# Generated by pormake.
# Topology wno, (7)-cn, num edge types: 1
# Building blocks:
#     Node 0, Type 0, BuildingBlock: OLANEW_clean_sbu_3, # of connection points: 7
#     Node 1, Type 0, BuildingBlock: OLANEW_clean_sbu_3, # of connection points: 7
#     Node 2, Type 0, BuildingBlock: OLANEW_clean_sbu_3, # of connection points: 7
#     Node 3, Type 0, BuildingBlock: OLANEW_clean_sbu_3, # of connection points: 7
#     Node 4, Type 0, BuildingBlock: OLANEW_clean_sbu_3, # of connection points: 7
#     Node 5, Type 0, BuildingBlock: OLANEW_clean_sbu_3, # of connection points: 7
#     Node 6, Type 0, BuildingBlock: OLANEW_clean_sbu_3, # of connection points: 7
#     Node 7, Type 0, BuildingBlock: OLANEW_clean_sbu_3, # of connection points: 7
#     Node 8, Type 0, BuildingBlock: OLANEW_clean_sbu_3, # of connection points: 7
#     Node 9, Type 0, BuildingBlock: OLANEW_clean_sbu_3, # of connection points: 7
#     Node 10, Type 0, BuildingBlock: OLANEW_clean_sbu_3, # of connection points: 7
#     Node 11, Type 0, BuildingBlock: OLANEW_clean_sbu_3, # of connection points: 7
#     Node 12, Type 0, BuildingBlock: OLANEW_clean_sbu_3, # of connection points: 7
#     Node 13, Type 0, BuildingBlock: OLANEW_clean_sbu_3, # of connection points: 7
#     Node 14, Type 0, BuildingBlock: OLANEW_clean_sbu_3, # of connection points: 7
#     Node 15, Type 0, BuildingBlock: OLANEW_clean_sbu_3, # of connection points: 7
#     Node 16, Type 0, BuildingBlock: OLANEW_clean_sbu_3, # of connection points: 7
#     Node 17, Type 0, BuildingBlock: OLANEW_clean_sbu_3, # of connection points: 7
#     Edge 18, Type (0, 0), None
#     Edge 19, Type (0, 0), None
#     Edge 20, Type (0, 0), None
#     Edge 21, Type (0, 0), None
#     Edge 22, Type (0, 0), None
#     Edge 23, Type (0, 0), None
#     Edge 24, Type (0, 0), None
#     Edge 25, Type (0, 0), None
#     Edge 26, Type (0, 0), None
#     Edge 27, Type (0, 0), None
#     Edge 28, Type (0, 0), None
#     Edge 29, Type (0, 0), None
#     Edge 30, Type (0, 0), None
#     Edge 31, Type (0, 0), None
#     Edge 32, Type (0, 0), None
#     Edge 33, Type (0, 0), None
#     Edge 34, Type (0, 0), None
#     Edge 35, Type (0, 0), None
#     Edge 36, Type (0, 0), None
#     Edge 37, Type (0, 0), None
#     Edge 38, Type (0, 0), None
#     Edge 39, Type (0, 0), None
#     Edge 40, Type (0, 0), None
#     Edge 41, Type (0, 0), None
#     Edge 42, Type (0, 0), None
#     Edge 43, Type (0, 0), None
#     Edge 44, Type (0, 0), None
#     Edge 45, Type (0, 0), None
#     Edge 46, Type (0, 0), None
#     Edge 47, Type (0, 0), None
#     Edge 48, Type (0, 0), None
#     Edge 49, Type (0, 0), None
#     Edge 50, Type (0, 0), None
#     Edge 51, Type (0, 0), None
#     Edge 52, Type (0, 0), None
#     Edge 53, Type (0, 0), None
#     Edge 54, Type (0, 0), None
#     Edge 55, Type (0, 0), None
#     Edge 56, Type (0, 0), None
#     Edge 57, Type (0, 0), None
#     Edge 58, Type (0, 0), None
#     Edge 59, Type (0, 0), None
#     Edge 60, Type (0, 0), None
#     Edge 61, Type (0, 0), None
#     Edge 62, Type (0, 0), None
#     Edge 63, Type (0, 0), None
#     Edge 64, Type (0, 0), None
#     Edge 65, Type (0, 0), None
#     Edge 66, Type (0, 0), None
#     Edge 67, Type (0, 0), None
#     Edge 68, Type (0, 0), None
#     Edge 69, Type (0, 0), None
#     Edge 70, Type (0, 0), None
#     Edge 71, Type (0, 0), None
#     Edge 72, Type (0, 0), None
#     Edge 73, Type (0, 0), None
#     Edge 74, Type (0, 0), None
#     Edge 75, Type (0, 0), None
#     Edge 76, Type (0, 0), None
#     Edge 77, Type (0, 0), None
#     Edge 78, Type (0, 0), None
#     Edge 79, Type (0, 0), None
#     Edge 80, Type (0, 0), None
# Relax obj value: 0.314
# Max RMSD: 0.267
# Mean RMSD: 0.267
data_MOF--net-wno--node1-OLANEW_clean_sbu_3--edge1-none
_symmetry_space_group_name_H-M    P1
_symmetry_Int_Tables_number       1
_symmetry_cell_setting            triclinic
loop_
_symmetry_equiv_pos_as_xyz
'x, y, z'
_cell_length_a     37.951772
_cell_length_b     37.948769
_cell_length_c     30.252968
_cell_angle_alpha  89.974846
_cell_angle_beta   90.017342
_cell_angle_gamma 120.00461
loop_
_atom_site_label
_atom_site_type_symbol
_atom_site_fract_x
_atom_site_fract_y
_atom_site_fract_z
_atom_type_partial_charge
C0 C 0.16248 0.27868 0.12018 0.0
C1 C 0.1473 0.2412 0.09868 0.0
C2 C 0.17352 0.23612 0.06936 0.0
C3 C 0.21398 0.26795 0.06243 0.0
C4 C 0.22704 0.3045 0.08515 0.0
N5 N 0.20082 0.30745 0.11211 0.0
C6 C 0.26672 0.3425 0.08299 0.0
C7 C 0.30383 0.41412 0.10983 0.0
C8 C 0.33709 0.41961 0.13516 0.0
C9 C 0.36519 0.45825 0.15067 0.0
C10 C 0.36111 0.49168 0.13928 0.0
C11 C 0.33043 0.48696 0.11036 0.0
C12 C 0.30226 0.44829 0.09495 0.0
Cd13 Cd 0.32647 0.35154 -0.01082 0.0
Cd14 Cd 0.25357 0.29235 0.88421 0.0
C15 C 0.16039 0.33945 0.21572 0.0
C16 C 0.13178 0.3701 0.26383 0.0
C17 C 0.15936 0.37293 0.29695 0.0
C18 C 0.18415 0.35463 0.29151 0.0
C19 C 0.18055 0.3349 0.25145 0.0
C20 C 0.13427 0.35519 0.22199 0.0
Co21 Co 0.21981 0.35545 0.14239 0.0
N22 N 0.24777 0.34183 0.18828 0.0
N23 N 0.23828 0.40358 0.17275 0.0
C24 C 0.26264 0.40963 0.20706 0.0
C25 C 0.2801 0.44698 0.22908 0.0
C26 C 0.27161 0.47685 0.21301 0.0
C27 C 0.24624 0.46893 0.17577 0.0
C28 C 0.22885 0.43038 0.15613 0.0
N29 N 0.19625 0.37776 0.10188 0.0
N30 N 0.26852 0.37462 0.10612 0.0
N31 N 0.16768 0.32821 0.17307 0.0
O32 O 0.29873 0.3554 0.84361 0.0
O33 O 0.31699 0.35989 0.91198 0.0
C34 C 0.40706 0.42148 0.01126 0.0
O35 O 0.38609 0.4233 -0.02058 0.0
O36 O 0.39088 0.38815 0.03234 0.0
C37 C 0.31458 0.25921 0.94622 0.0
O38 O 0.33018 0.28749 0.97528 0.0
O39 O 0.29111 0.25958 0.91611 0.0
C40 C 0.26884 0.37515 0.21532 0.0
O41 O 0.29429 0.37701 0.24596 0.0
O42 O 0.25544 0.34185 -0.01732 0.0
O43 O 0.20917 0.30666 0.93131 0.0
C44 C 0.20431 0.41543 0.11549 0.0
O45 O 0.19627 0.43885 0.09047 0.0
C46 C 0.1795 0.36121 0.05968 0.0
C47 C 0.20523 0.36156 0.02727 0.0
C48 C 0.1901 0.33634 -0.00961 0.0
C49 C 0.14755 0.31732 -0.01862 0.0
C50 C 0.12126 0.32147 0.01197 0.0
C51 C 0.1377 0.3419 0.05209 0.0
C52 C 0.32249 0.37651 0.87436 0.0
O53 O 0.29994 0.34339 0.0656 0.0
C54 C 0.2198 0.32853 0.96598 0.0
C55 C 0.2545 0.30761 0.18982 0.0
C56 C 0.22171 0.26766 0.19242 0.0
C57 C 0.22865 0.23498 0.19739 0.0
C58 C 0.26832 0.24182 0.20083 0.0
C59 C 0.30129 0.28165 0.20004 0.0
C60 C 0.29431 0.31412 0.19381 0.0
C61 C 0.14323 0.29059 0.155 0.0
O62 O 0.10778 0.2646 0.17226 0.0
H63 H 0.11666 0.2166 0.10468 0.0
H64 H 0.16259 0.20748 0.05226 0.0
H65 H 0.23401 0.26415 0.03993 0.0
H66 H 0.33996 0.39393 0.14505 0.0
H67 H 0.38103 0.521 0.15364 0.0
H68 H 0.27788 0.44487 0.07367 0.0
H69 H 0.15929 0.38785 0.3271 0.0
H70 H 0.19421 0.31644 0.24637 0.0
H71 H 0.11602 0.35554 0.19463 0.0
H72 H 0.30021 0.45321 0.25701 0.0
H73 H 0.28543 0.50642 0.22869 0.0
H74 H 0.242 0.49276 0.16233 0.0
H75 H 0.23759 0.37959 0.03276 0.0
H76 H 0.135 0.29881 0.95208 0.0
H77 H 0.11809 0.34296 0.07748 0.0
H78 H 0.1908 0.26162 0.19264 0.0
H79 H 0.2731 0.21622 0.2054 0.0
H80 H 0.32013 0.34457 0.19358 0.0
C81 C 0.77464 0.8949 0.12018 0.0
C82 C 0.81206 0.91733 0.09861 0.0
C83 C 0.81696 0.94857 0.06927 0.0
C84 C 0.78501 0.95703 0.0624 0.0
C85 C 0.74851 0.9334 0.08519 0.0
N86 N 0.74573 0.90429 0.11213 0.0
C87 C 0.71042 0.93492 0.08314 0.0
C88 C 0.63883 0.90013 0.11016 0.0
C89 C 0.6332 0.92777 0.13553 0.0
C90 C 0.59453 0.91703 0.15112 0.0
C91 C 0.5612 0.87943 0.13977 0.0
C92 C 0.56605 0.85357 0.11085 0.0
C93 C 0.60476 0.86427 0.09537 0.0
Cd94 Cd 0.70135 0.98558 -0.01075 0.0
Cd95 Cd 0.7605 0.97188 0.8843 0.0
C96 C 0.71412 0.83191 0.21585 0.0
C97 C 0.68325 0.77252 0.26381 0.0
C98 C 0.68027 0.79718 0.29691 0.0
C99 C 0.69862 0.84029 0.29156 0.0
C100 C 0.71855 0.85654 0.2516 0.0
C101 C 0.69834 0.79003 0.22205 0.0
Co102 Co 0.69784 0.8752 0.1426 0.0
N103 N 0.71148 0.91685 0.18838 0.0
N104 N 0.64984 0.84548 0.17315 0.0
C105 C 0.64382 0.86379 0.20746 0.0
C106 C 0.60662 0.84376 0.22976 0.0
C107 C 0.57687 0.80521 0.21398 0.0
C108 C 0.58476 0.78775 0.17675 0.0
C109 C 0.62315 0.80912 0.15678 0.0
N110 N 0.67553 0.82924 0.10223 0.0
N111 N 0.67842 0.90454 0.10636 0.0
N112 N 0.72531 0.85052 0.17322 0.0
O113 O 0.69746 0.95399 0.84371 0.0
O114 O 0.69296 0.96774 0.91207 0.0
C115 C 0.63148 0.99633 0.0113 0.0
O116 O 0.6296 0.97346 -0.02047 0.0
O117 O 0.66483 1.01351 0.03232 0.0
C118 C 0.79371 0.06602 0.94625 0.0
O119 O 0.76543 0.05333 0.97531 0.0
O120 O 0.79333 0.0422 0.91613 0.0
C121 C 0.67821 0.90456 0.21552 0.0
O122 O 0.67633 0.92821 0.24605 0.0
O123 O 0.71104 0.92421 -0.01717 0.0
O124 O 0.74621 0.91317 0.93144 0.0
C125 C 0.63801 0.79952 0.11609 0.0
O126 O 0.61459 0.76794 0.09126 0.0
C127 C 0.69196 0.82901 0.05997 0.0
C128 C 0.69151 0.85437 0.02756 0.0
C129 C 0.71662 0.86441 -0.00943 0.0
C130 C 0.73559 0.84086 -0.0185 0.0
C131 C 0.73153 0.81044 0.0121 0.0
C132 C 0.71123 0.8065 0.0523 0.0
C133 C 0.67635 0.95663 0.87446 0.0
O134 O 0.70937 0.96718 0.06573 0.0
C135 C 0.72437 0.90191 0.96613 0.0
C136 C 0.74566 0.95782 0.18982 0.0
C137 C 0.78562 0.96503 0.19248 0.0
C138 C 0.81826 1.00466 0.19749 0.0
C139 C 0.81136 0.03745 0.20092 0.0
C140 C 0.77151 0.03054 0.20006 0.0
C141 C 0.7391 0.99109 0.19374 0.0
C142 C 0.76292 0.8638 0.15506 0.0
O143 O 0.78903 0.85447 0.17227 0.0
H144 H 0.83677 0.91145 0.10459 0.0
H145 H 0.84557 0.96639 0.05213 0.0
H146 H 0.78867 0.98082 0.03991 0.0
H147 H 0.65881 0.95638 0.14543 0.0
H148 H 0.53185 0.86991 0.15415 0.0
H149 H 0.60828 0.84339 0.0741 0.0
H150 H 0.66516 0.7821 0.32696 0.0
H151 H 0.73697 0.88868 0.24656 0.0
H152 H 0.69805 0.77148 0.19468 0.0
H153 H 0.60042 0.85761 0.25772 0.0
H154 H 0.54743 0.78931 0.22992 0.0
H155 H 0.56107 0.75949 0.1636 0.0
H156 H 0.67349 0.86868 0.0331 0.0
H157 H 0.75402 0.84679 0.95212 0.0
H158 H 0.71024 0.78584 0.0777 0.0
H159 H 0.79169 0.94017 0.19274 0.0
H160 H 0.83692 0.06785 0.20556 0.0
H161 H 0.70862 0.9864 0.19344 0.0
C162 C 0.15818 0.89038 0.12015 0.0
C163 C 0.13577 0.90541 0.0986 0.0
C164 C 0.1045 0.87908 0.06929 0.0
C165 C 0.09601 0.83866 0.06242 0.0
C166 C 0.11962 0.82576 0.0852 0.0
N167 N 0.14875 0.85207 0.11212 0.0
C168 C 0.11807 0.78613 0.08314 0.0
C169 C 0.15285 0.74929 0.1101 0.0
C170 C 0.12525 0.71602 0.13553 0.0
C171 C 0.13601 0.68808 0.15107 0.0
C172 C 0.17358 0.69234 0.13963 0.0
C173 C 0.19939 0.72305 0.11066 0.0
C174 C 0.18867 0.75107 0.09522 0.0
Cd175 Cd 0.06737 0.72647 -0.01075 0.0
Cd176 Cd 0.08104 0.79941 0.88432 0.0
C177 C 0.22115 0.89277 0.21579 0.0
C178 C 0.28048 0.92132 0.26382 0.0
C179 C 0.25578 0.8937 0.29694 0.0
C180 C 0.21268 0.86893 0.29155 0.0
C181 C 0.19648 0.87258 0.25154 0.0
C182 C 0.26302 0.91886 0.22202 0.0
Co183 Co 0.17784 0.83323 0.14255 0.0
N184 N 0.13622 0.80523 0.18838 0.0
N185 N 0.20755 0.81491 0.17307 0.0
C186 C 0.18926 0.79058 0.2074 0.0
C187 C 0.20927 0.77335 0.22965 0.0
C188 C 0.24777 0.78209 0.21379 0.0
C189 C 0.26522 0.80745 0.17655 0.0
C190 C 0.24388 0.82454 0.15664 0.0
N191 N 0.22376 0.85686 0.10214 0.0
N192 N 0.14844 0.78447 0.10634 0.0
N193 N 0.20257 0.88538 0.17315 0.0
O194 O 0.09892 0.75429 0.84369 0.0
O195 O 0.08519 0.73596 0.91205 0.0
C196 C 0.05666 0.64585 0.01126 0.0
O197 O 0.07953 0.66688 -0.0205 0.0
O198 O 0.03946 0.66199 0.03229 0.0
C199 C 0.98691 0.7384 0.9463 0.0
O200 O 0.99961 0.72279 0.97535 0.0
O201 O 1.01073 0.76187 0.91618 0.0
C202 C 0.14851 0.78423 0.21551 0.0
O203 O 0.12488 0.75871 0.24609 0.0
O204 O 0.12872 0.79753 -0.01719 0.0
O205 O 0.13976 0.8438 0.93144 0.0
C206 C 0.25347 0.84903 0.11594 0.0
O207 O 0.28502 0.85718 0.09107 0.0
C208 C 0.22397 0.87356 0.05989 0.0
C209 C 0.19859 0.8478 0.02748 0.0
C210 C 0.18853 0.8629 -0.00946 0.0
C211 C 0.21208 0.90544 -0.01852 0.0
C212 C 0.24252 0.93176 0.01207 0.0
C213 C 0.24648 0.91536 0.05223 0.0
C214 C 0.0963 0.73051 0.87442 0.0
O215 O 0.08581 0.75284 0.06573 0.0
C216 C 0.15102 0.83318 0.96612 0.0
C217 C 0.09525 0.79843 0.18985 0.0
C218 C 0.08805 0.83119 0.19248 0.0
C219 C 0.04842 0.8242 0.19746 0.0
C220 C 1.01562 0.7845 0.20089 0.0
C221 C 1.02252 0.75155 0.20005 0.0
C222 C 0.06198 0.75859 0.19378 0.0
C223 C 0.18931 0.90973 0.155 0.0
O224 O 0.19866 0.94517 0.1722 0.0
H225 H 0.14168 0.93601 0.10456 0.0
H226 H 0.0867 0.8899 0.05215 0.0
H227 H 0.07221 0.81855 0.03995 0.0
H228 H 0.09666 0.71302 0.1455 0.0
H229 H 0.18312 0.6725 0.15397 0.0
H230 H 0.20952 0.77548 0.07391 0.0
H231 H 0.27082 0.8937 0.32704 0.0
H232 H 0.16435 0.85889 0.24648 0.0
H233 H 0.2816 0.93712 0.19465 0.0
H234 H 0.19542 0.75329 0.25762 0.0
H235 H 0.26365 0.7685 0.22969 0.0
H236 H 0.29344 0.81197 0.16334 0.0
H237 H 0.18427 0.81545 0.03301 0.0
H238 H 0.20613 0.91797 0.95212 0.0
H239 H 0.26715 0.935 0.07762 0.0
H240 H 0.1129 0.86212 0.19272 0.0
H241 H 0.98523 0.77967 0.20549 0.0
H242 H 0.06666 0.7328 0.19349 0.0
C243 C 0.90097 0.76396 0.83147 0.0
C244 C 0.91605 0.8014 0.85302 0.0
C245 C 0.88977 0.80637 0.88234 0.0
C246 C 0.84933 0.77447 0.88923 0.0
C247 C 0.83637 0.73796 0.86646 0.0
N248 N 0.86265 0.73511 0.83951 0.0
C249 C 0.79673 0.69991 0.86855 0.0
C250 C 0.75978 0.62831 0.84158 0.0
C251 C 0.72648 0.62277 0.81629 0.0
C252 C 0.69845 0.58413 0.80072 0.0
C253 C 0.70263 0.55074 0.81201 0.0
C254 C 0.73335 0.5555 0.84088 0.0
C255 C 0.76146 0.59418 0.85635 0.0
Cd256 Cd 0.737 0.69086 0.96241 0.0
Cd257 Cd 0.80991 0.75002 0.06738 0.0
C258 C 0.90326 0.70336 0.73585 0.0
C259 C 0.93182 0.67264 0.68778 0.0
C260 C 0.90425 0.66982 0.65465 0.0
C261 C 0.8795 0.68816 0.66006 0.0
C262 C 0.8831 0.70792 0.70011 0.0
C263 C 0.92934 0.68758 0.7296 0.0
Co264 Co 0.84376 0.68717 0.80913 0.0
N265 N 0.81577 0.70081 0.76328 0.0
N266 N 0.82539 0.63911 0.77867 0.0
C267 C 0.80108 0.63309 0.74433 0.0
C268 C 0.78382 0.59585 0.72212 0.0
C269 C 0.79252 0.56606 0.73801 0.0
C270 C 0.81787 0.57396 0.77526 0.0
C271 C 0.835 0.6124 0.79513 0.0
N272 N 0.86737 0.66486 0.84957 0.0
N273 N 0.79502 0.66785 0.84537 0.0
N274 N 0.8959 0.71455 0.77849 0.0
O275 O 0.76474 0.68696 0.10797 0.0
O276 O 0.74649 0.68249 0.0396 0.0
C277 C 0.6564 0.62093 0.94035 0.0
O278 O 0.67738 0.61909 0.97216 0.0
O279 O 0.67257 0.65427 0.91929 0.0
C280 C 0.74893 0.7832 0.00539 0.0
O281 O 0.73332 0.75493 -0.02367 0.0
O282 O 0.77239 0.78282 0.03551 0.0
C283 C 0.79477 0.66752 0.73617 0.0
O284 O 0.7693 0.66566 0.70555 0.0
O285 O 0.80805 0.70053 0.96887 0.0
O286 O 0.85429 0.73571 0.02025 0.0
C287 C 0.85949 0.62729 0.8358 0.0
O288 O 0.86763 0.60388 0.86071 0.0
C289 C 0.88407 0.68133 0.89181 0.0
C290 C 0.8583 0.68093 0.92421 0.0
C291 C 0.8734 0.70608 0.96115 0.0
C292 C 0.91594 0.72508 0.9702 0.0
C293 C 0.94227 0.72098 0.93961 0.0
C294 C 0.92587 0.70063 0.89946 0.0
C295 C 0.74098 0.66587 0.07722 0.0
O296 O 0.76346 0.69893 0.88595 0.0
C297 C 0.84368 0.71386 -0.01443 0.0
C298 C 0.80897 0.73498 0.76181 0.0
C299 C 0.84172 0.77495 0.75925 0.0
C300 C 0.83471 0.8076 0.75434 0.0
C301 C 0.79502 0.80069 0.75091 0.0
C302 C 0.76209 0.76083 0.75166 0.0
C303 C 0.76913 0.7284 0.75784 0.0
C304 C 0.92029 0.75216 0.79662 0.0
O305 O 0.95573 0.77822 0.7794 0.0
H306 H 0.94667 0.82606 0.84704 0.0
H307 H 0.90063 0.83499 0.89948 0.0
H308 H 0.82926 0.77819 0.91172 0.0
H309 H 0.72354 0.64843 0.80645 0.0
H310 H 0.68273 0.52141 0.79763 0.0
H311 H 0.78587 0.59763 0.87759 0.0
H312 H 0.90429 0.65485 0.62452 0.0
H313 H 0.86944 0.72637 0.70519 0.0
H314 H 0.94757 0.6872 0.75697 0.0
H315 H 0.76377 0.58964 0.69415 0.0
H316 H 0.7789 0.53658 0.72215 0.0
H317 H 0.82235 0.55022 0.78851 0.0
H318 H 0.82595 0.6629 0.91869 0.0
H319 H 0.92847 0.74354 -0.00045 0.0
H320 H 0.9455 0.6996 0.87406 0.0
H321 H 0.87265 0.78104 0.75902 0.0
H322 H 0.79019 0.82626 0.74637 0.0
H323 H 0.74335 0.69792 0.75805 0.0
C324 C 0.28897 0.1477 0.83143 0.0
C325 C 0.25153 0.12533 0.85298 0.0
C326 C 0.24656 0.09407 0.88233 0.0
C327 C 0.27846 0.08554 0.88923 0.0
C328 C 0.31497 0.10911 0.86645 0.0
N329 N 0.31782 0.13823 0.83949 0.0
C330 C 0.35302 0.10751 0.86854 0.0
C331 C 0.42461 0.14216 0.84155 0.0
C332 C 0.43013 0.11439 0.81628 0.0
C333 C 0.46877 0.12499 0.80071 0.0
C334 C 0.50216 0.16257 0.81197 0.0
C335 C 0.49742 0.18854 0.84081 0.0
C336 C 0.45875 0.17798 0.85629 0.0
Cd337 Cd 0.3621 0.05684 0.96241 0.0
Cd338 Cd 0.30291 0.07052 0.06737 0.0
C339 C 0.3496 0.21066 0.7358 0.0
C340 C 0.3804 0.27002 0.68779 0.0
C341 C 0.38334 0.24533 0.65469 0.0
C342 C 0.365 0.20223 0.66007 0.0
C343 C 0.34513 0.186 0.70006 0.0
C344 C 0.36536 0.25253 0.72958 0.0
Co345 Co 0.36575 0.16729 0.80908 0.0
N346 N 0.35212 0.12567 0.76327 0.0
N347 N 0.41381 0.19699 0.7786 0.0
C348 C 0.41983 0.17869 0.74429 0.0
C349 C 0.45707 0.19867 0.72207 0.0
C350 C 0.48686 0.23717 0.73793 0.0
C351 C 0.47896 0.25463 0.77516 0.0
C352 C 0.44053 0.23331 0.79504 0.0
N353 N 0.38807 0.21321 0.84949 0.0
N354 N 0.38507 0.13786 0.84535 0.0
N355 N 0.33838 0.19206 0.77843 0.0
O356 O 0.36594 0.08835 0.10798 0.0
O357 O 0.3704 0.07461 0.03961 0.0
C358 C 0.43202 0.04618 0.94036 0.0
O359 O 0.43387 0.06902 0.97214 0.0
O360 O 0.39868 0.02899 0.91933 0.0
C361 C 0.26975 0.97641 0.00537 0.0
O362 O 0.29804 0.98909 -0.02368 0.0
O363 O 0.27011 1.00022 0.03549 0.0
C364 C 0.38541 0.13795 0.73617 0.0
O365 O 0.38728 0.11432 0.7056 0.0
O366 O 0.35244 0.1182 0.96885 0.0
O367 O 0.31726 0.12925 0.02023 0.0
C368 C 0.42564 0.24291 0.83571 0.0
O369 O 0.44906 0.27444 0.8606 0.0
C370 C 0.37161 0.21343 0.89174 0.0
C371 C 0.37203 0.18807 0.92416 0.0
C372 C 0.34689 0.17802 0.96111 0.0
C373 C 0.3279 0.20156 0.97015 0.0
C374 C 0.33198 0.23198 0.93954 0.0
C375 C 0.35232 0.23593 0.89937 0.0
C376 C 0.38703 0.08571 0.07722 0.0
O377 O 0.354 0.07522 0.88595 0.0
C378 C 0.33912 0.14051 -0.01445 0.0
C379 C 0.31793 0.0847 0.7618 0.0
C380 C 0.27797 0.0775 0.75919 0.0
C381 C 0.24532 0.03787 0.75421 0.0
C382 C 0.25221 1.00507 0.75078 0.0
C383 C 0.29205 1.01197 0.75159 0.0
C384 C 0.32448 0.05142 0.75786 0.0
C385 C 0.30077 0.17883 0.79656 0.0
O386 O 0.27471 0.18822 0.77933 0.0
H387 H 0.22687 0.13128 0.847 0.0
H388 H 0.21794 0.0763 0.89947 0.0
H389 H 0.27474 0.06173 0.91173 0.0
H390 H 0.40447 0.08579 0.80647 0.0
H391 H 0.53149 0.172 0.79759 0.0
H392 H 0.4553 0.19895 0.87751 0.0
H393 H 0.39841 0.2604 0.62461 0.0
H394 H 0.32669 0.15387 0.70511 0.0
H395 H 0.36566 0.2711 0.75694 0.0
H396 H 0.46328 0.18482 0.69412 0.0
H397 H 0.51634 0.25303 0.72206 0.0
H398 H 0.50269 0.28284 0.78838 0.0
H399 H 0.39006 0.17376 0.91863 0.0
H400 H 0.30945 0.19562 -0.00048 0.0
H401 H 0.35333 0.25659 0.87397 0.0
H402 H 0.27191 0.10236 0.75895 0.0
H403 H 0.22663 0.97467 0.74618 0.0
H404 H 0.35495 0.0561 0.75811 0.0
C405 C 0.90524 0.15204 0.83146 0.0
C406 C 0.92764 0.13699 0.85299 0.0
C407 C 0.95892 0.16331 0.8823 0.0
C408 C 0.96744 0.20373 0.88917 0.0
C409 C 0.94384 0.21666 0.86642 0.0
N410 N 0.91469 0.19036 0.8395 0.0
C411 C 0.94541 0.25629 0.86849 0.0
C412 C 0.91064 0.29316 0.84158 0.0
C413 C 0.93817 0.32639 0.81606 0.0
C414 C 0.92737 0.3543 0.80051 0.0
C415 C 0.88982 0.35004 0.81204 0.0
C416 C 0.86409 0.31939 0.84111 0.0
C417 C 0.87485 0.29141 0.85656 0.0
Cd418 Cd 0.99614 0.31595 0.96237 0.0
Cd419 Cd 0.98248 0.24302 0.06726 0.0
C420 C 0.84226 0.1497 0.73585 0.0
C421 C 0.78291 0.12115 0.68784 0.0
C422 C 0.8076 0.1488 0.65474 0.0
C423 C 0.8507 0.17358 0.66011 0.0
C424 C 0.86692 0.16991 0.7001 0.0
C425 C 0.80039 0.12359 0.72963 0.0
Co426 Co 0.88562 0.20922 0.80909 0.0
N427 N 0.92723 0.23721 0.76326 0.0
N428 N 0.85592 0.22757 0.7786 0.0
C429 C 0.87423 0.25193 0.74429 0.0
C430 C 0.85427 0.26924 0.7221 0.0
C431 C 0.81581 0.26058 0.73801 0.0
C432 C 0.79835 0.23522 0.77525 0.0
C433 C 0.81963 0.21802 0.79508 0.0
N434 N 0.83971 0.18561 0.84952 0.0
N435 N 0.91504 0.25797 0.84531 0.0
N436 N 0.86085 0.15707 0.77848 0.0
O437 O 0.96453 0.28809 0.1079 0.0
O438 O 0.97826 0.30648 0.03955 0.0
C439 C 1.00689 0.39659 0.94032 0.0
O440 O 0.98403 0.37558 0.9721 0.0
O441 O 1.02406 0.38043 0.91929 0.0
C442 C 0.0766 0.30403 0.00532 0.0
O443 O 0.06389 0.31963 -0.02371 0.0
O444 O 0.05281 0.28055 0.03546 0.0
C445 C 0.91496 0.25824 0.73616 0.0
O446 O 0.93861 0.28378 0.7056 0.0
O447 O 0.93478 0.24489 0.96882 0.0
O448 O 0.92376 0.1986 0.02016 0.0
C449 C 0.81004 0.19352 0.83577 0.0
O450 O 0.77852 0.18541 0.86068 0.0
C451 C 0.83949 0.16889 0.89176 0.0
C452 C 0.86489 0.19464 0.92416 0.0
C453 C 0.87497 0.17952 0.96109 0.0
C454 C 0.85141 0.13698 0.97014 0.0
C455 C 0.82095 0.11067 0.93955 0.0
C456 C 0.81698 0.12709 0.89941 0.0
C457 C 0.96713 0.31188 0.0772 0.0
O458 O 0.97768 0.28957 0.88589 0.0
C459 C 0.91249 0.20923 -0.0145 0.0
C460 C 0.96818 0.24395 0.76177 0.0
C461 C 0.97533 0.21116 0.75908 0.0
C462 C 1.01494 0.21811 0.75404 0.0
C463 C 0.04776 0.25779 0.7506 0.0
C464 C 0.04091 0.29077 0.7515 0.0
C465 C 1.00148 0.28377 0.75784 0.0
C466 C 0.8741 0.1327 0.79662 0.0
O467 O 0.86473 0.09726 0.77941 0.0
H468 H 0.92171 0.10639 0.84702 0.0
H469 H 0.97672 0.15247 0.89942 0.0
H470 H 0.99126 0.22383 0.91164 0.0
H471 H 0.96674 0.32938 0.80602 0.0
H472 H 0.88023 0.36984 0.79769 0.0
H473 H 0.85405 0.26702 0.87793 0.0
H474 H 0.79254 0.1488 0.62464 0.0
H475 H 0.89904 0.1836 0.70514 0.0
H476 H 0.78182 0.10531 0.757 0.0
H477 H 0.86814 0.28933 0.69415 0.0
H478 H 0.79999 0.27426 0.72218 0.0
H479 H 0.77019 0.2308 0.78853 0.0
H480 H 0.87922 0.22699 0.91864 0.0
H481 H 0.85736 0.12444 -0.00052 0.0
H482 H 0.79629 0.10746 0.87402 0.0
H483 H 0.95045 0.18025 0.75884 0.0
H484 H 0.07814 0.26259 0.74594 0.0
H485 H 0.99684 0.30959 0.75817 0.0
C486 C 0.82931 0.61184 0.45355 0.0
C487 C 0.81432 0.57439 0.43205 0.0
C488 C 0.84067 0.56947 0.40277 0.0
C489 C 0.88108 0.60142 0.39589 0.0
C490 C 0.89395 0.63794 0.41862 0.0
N491 N 0.86761 0.64074 0.44551 0.0
C492 C 0.93355 0.67605 0.41653 0.0
C493 C 0.9703 0.7477 0.44339 0.0
C494 C 1.00357 0.75346 0.46888 0.0
C495 C 1.03143 0.79219 0.4844 0.0
C496 C 1.0271 0.82544 0.47288 0.0
C497 C 0.9964 0.82047 0.44385 0.0
C498 C 0.96846 0.7817 0.42843 0.0
Cd499 Cd 0.99322 0.68492 0.32268 0.0
Cd500 Cd 0.92033 0.62574 0.21765 0.0
C501 C 0.82686 0.67238 0.54913 0.0
C502 C 0.79835 0.70317 0.59717 0.0
C503 C 0.82593 0.706 0.6303 0.0
C504 C 0.85065 0.68763 0.62491 0.0
C505 C 0.84701 0.66783 0.58488 0.0
C506 C 0.80081 0.6882 0.55536 0.0
Co507 Co 0.88639 0.68867 0.47588 0.0
N508 N 0.91442 0.67511 0.52175 0.0
N509 N 0.90466 0.73672 0.50633 0.0
C510 C 0.92897 0.74279 0.54068 0.0
C511 C 0.94611 0.78001 0.56292 0.0
C512 C 0.93728 0.80972 0.54704 0.0
C513 C 0.91193 0.80177 0.50979 0.0
C514 C 0.89496 0.76336 0.48987 0.0
N515 N 0.86273 0.7109 0.4354 0.0
N516 N 0.93516 0.70808 0.43967 0.0
N517 N 0.83425 0.66122 0.50649 0.0
O518 O 0.96552 0.68879 0.17709 0.0
O519 O 0.98375 0.69326 0.24548 0.0
C520 C 0.07389 0.75478 0.34465 0.0
O521 O 0.05287 0.75665 0.31289 0.0
O522 O 0.05771 0.72143 0.3657 0.0
C523 C 0.98127 0.59257 0.27974 0.0
O524 O 0.99685 0.62081 0.30884 0.0
O525 O 0.95785 0.59299 0.2496 0.0
C526 C 0.93537 0.70841 0.54885 0.0
O527 O 0.96088 0.71034 0.57945 0.0
O528 O 0.92216 0.67521 0.31618 0.0
O529 O 0.87594 0.64004 0.26477 0.0
C530 C 0.87049 0.74843 0.44918 0.0
O531 O 0.8623 0.77179 0.42426 0.0
C532 C 0.84607 0.6944 0.39316 0.0
C533 C 0.87185 0.6948 0.36079 0.0
C534 C 0.85678 0.66963 0.32385 0.0
C535 C 0.81425 0.65061 0.31478 0.0
C536 C 0.7879 0.65471 0.34533 0.0
C537 C 0.80427 0.67509 0.38549 0.0
C538 C 0.98927 0.70989 0.20785 0.0
O539 O 0.96686 0.67711 0.39916 0.0
C540 C 0.88653 0.66187 0.29946 0.0
C541 C 0.92125 0.64097 0.52326 0.0
C542 C 0.88852 0.60099 0.5259 0.0
C543 C 0.89555 0.56836 0.53085 0.0
C544 C 0.93525 0.57529 0.53422 0.0
C545 C 0.96817 0.61516 0.53338 0.0
C546 C 0.9611 0.64757 0.52717 0.0
C547 C 0.80993 0.62359 0.48837 0.0
O548 O 0.7745 0.59747 0.50559 0.0
H549 H 0.78373 0.54968 0.43802 0.0
H550 H 0.82988 0.54084 0.38567 0.0
H551 H 0.90121 0.59775 0.37344 0.0
H552 H 1.00661 0.7279 0.47892 0.0
H553 H 0.04688 0.85485 0.48719 0.0
H554 H 0.94404 0.77808 0.40709 0.0
H555 H 0.82593 0.72101 0.66041 0.0
H556 H 0.86067 0.64937 0.57981 0.0
H557 H 0.78259 0.68858 0.52799 0.0
H558 H 0.96615 0.78626 0.59091 0.0
H559 H 0.95079 0.83918 0.56294 0.0
H560 H 0.9073 0.82542 0.49659 0.0
H561 H 0.9042 0.71285 0.36632 0.0
H562 H 0.80174 0.63214 0.28543 0.0
H563 H 0.78462 0.67611 0.41085 0.0
H564 H 0.85758 0.59488 0.52617 0.0
H565 H 0.94011 0.54974 0.53878 0.0
H566 H 0.98688 0.67805 0.52689 0.0
C567 C 0.44154 0.22858 0.45351 0.0
C568 C 0.47894 0.25108 0.43192 0.0
C569 C 0.48373 0.28227 0.40256 0.0
C570 C 0.45169 0.29061 0.3957 0.0
C571 C 0.41523 0.26692 0.41851 0.0
N572 N 0.41255 0.23786 0.44547 0.0
C573 C 0.37708 0.26832 0.41649 0.0
C574 C 0.30551 0.23339 0.44362 0.0
C575 C 0.29987 0.26111 0.46883 0.0
C576 C 0.26121 0.25037 0.48448 0.0
C577 C 0.22791 0.21267 0.47338 0.0
C578 C 0.23276 0.1867 0.44463 0.0
C579 C 0.27144 0.19741 0.42907 0.0
Cd580 Cd 0.36799 0.31895 0.32259 0.0
Cd581 Cd 0.42708 0.30521 0.21758 0.0
C582 C 0.38117 0.16557 0.54925 0.0
C583 C 0.35019 0.10618 0.59719 0.0
C584 C 0.34725 0.13087 0.63028 0.0
C585 C 0.36567 0.17399 0.62494 0.0
C586 C 0.38561 0.19022 0.58499 0.0
C587 C 0.36532 0.12369 0.55543 0.0
Co588 Co 0.3647 0.20869 0.47598 0.0
N589 N 0.37826 0.25036 0.52173 0.0
N590 N 0.31675 0.1789 0.50659 0.0
C591 C 0.31071 0.19715 0.54093 0.0
C592 C 0.27362 0.17694 0.56342 0.0
C593 C 0.24403 0.13823 0.54783 0.0
C594 C 0.25197 0.12081 0.51061 0.0
C595 C 0.29022 0.14241 0.4904 0.0
N596 N 0.34247 0.16269 0.43568 0.0
N597 N 0.34512 0.2379 0.43974 0.0
N598 N 0.39231 0.18417 0.50661 0.0
O599 O 0.36401 0.28735 0.17704 0.0
O600 O 0.35959 0.30111 0.24542 0.0
C601 C 0.29817 0.32979 0.3446 0.0
O602 O 0.29628 0.30691 0.31284 0.0
O603 O 0.33151 0.34694 0.36564 0.0
C604 C 0.46035 0.39936 0.27954 0.0
O605 O 0.4321 0.38669 0.30864 0.0
O606 O 0.45993 0.37553 0.24941 0.0
C607 C 0.34501 0.238 0.54891 0.0
O608 O 0.34307 0.26162 0.57944 0.0
O609 O 0.37768 0.25757 0.31619 0.0
O610 O 0.41281 0.24653 0.26475 0.0
C611 C 0.30508 0.13283 0.4497 0.0
O612 O 0.28172 0.10113 0.42498 0.0
C613 C 0.35883 0.16246 0.39337 0.0
C614 C 0.3583 0.18778 0.36097 0.0
C615 C 0.38332 0.1978 0.32392 0.0
C616 C 0.40229 0.17425 0.31478 0.0
C617 C 0.39831 0.14386 0.34539 0.0
C618 C 0.3781 0.13996 0.38564 0.0
C619 C 0.34294 0.29001 0.20782 0.0
O620 O 0.37592 0.30052 0.39909 0.0
C621 C 0.391 0.23527 0.29947 0.0
C622 C 0.41236 0.29138 0.52312 0.0
C623 C 0.45237 0.29871 0.52572 0.0
C624 C 0.48493 0.3384 0.53062 0.0
C625 C 0.47792 0.37112 0.53401 0.0
C626 C 0.43803 0.36409 0.53321 0.0
C627 C 0.40568 0.32458 0.52701 0.0
C628 C 0.42992 0.19753 0.48843 0.0
O629 O 0.45611 0.18831 0.50564 0.0
H630 H 0.50371 0.24529 0.43789 0.0
H631 H 0.51231 0.30014 0.38539 0.0
H632 H 0.45528 0.31436 0.37319 0.0
H633 H 0.32546 0.28981 0.47854 0.0
H634 H 0.19856 0.20317 0.48778 0.0
H635 H 0.27497 0.17645 0.40793 0.0
H636 H 0.3321 0.11579 0.66033 0.0
H637 H 0.40404 0.22236 0.57994 0.0
H638 H 0.36499 0.10512 0.52806 0.0
H639 H 0.2674 0.19073 0.59143 0.0
H640 H 0.21469 0.12215 0.56396 0.0
H641 H 0.22846 0.09234 0.49768 0.0
H642 H 0.34025 0.20206 0.36654 0.0
H643 H 0.42065 0.18017 0.28535 0.0
H644 H 0.37717 0.11933 0.41103 0.0
H645 H 0.45853 0.27392 0.526 0.0
H646 H 0.50344 0.40155 0.53855 0.0
H647 H 0.37517 0.3198 0.52675 0.0
C648 C 0.82418 0.2234 0.45351 0.0
C649 C 0.80149 0.2381 0.43194 0.0
C650 C 0.77029 0.21154 0.4027 0.0
C651 C 0.76211 0.17121 0.39594 0.0
C652 C 0.78598 0.15863 0.41874 0.0
N653 N 0.81507 0.18517 0.44554 0.0
C654 C 0.78477 0.11916 0.41682 0.0
C655 C 0.82041 0.08306 0.44365 0.0
C656 C 0.79372 0.04987 0.46975 0.0
C657 C 0.80539 0.02252 0.48498 0.0
C658 C 0.84296 0.02727 0.47262 0.0
C659 C 0.86789 0.05794 0.44314 0.0
C660 C 0.85628 0.08538 0.42802 0.0
Cd661 Cd 0.73407 0.05974 0.32277 0.0
Cd662 Cd 0.74781 0.13269 0.21779 0.0
C663 C 0.88735 0.22643 0.54927 0.0
C664 C 0.94675 0.25485 0.59719 0.0
C665 C 0.92206 0.22722 0.63031 0.0
C666 C 0.87894 0.20252 0.62498 0.0
C667 C 0.8627 0.20623 0.58503 0.0
C668 C 0.92923 0.25246 0.55543 0.0
Co669 Co 0.84435 0.16669 0.47617 0.0
N670 N 0.8027 0.13861 0.52193 0.0
N671 N 0.87421 0.14868 0.5069 0.0
C672 C 0.85596 0.12438 0.54126 0.0
C673 C 0.87615 0.10747 0.56374 0.0
C674 C 0.91482 0.11653 0.54811 0.0
C675 C 0.93223 0.14188 0.51084 0.0
C676 C 0.91066 0.15856 0.49064 0.0
N677 N 0.89033 0.19046 0.43584 0.0
N678 N 0.81528 0.11782 0.44009 0.0
N679 N 0.86876 0.21888 0.50663 0.0
O680 O 0.76572 0.08757 0.17723 0.0
O681 O 0.75197 0.06919 0.24559 0.0
C682 C 0.72307 0.979 0.34463 0.0
O683 O 0.74616 1.00011 0.31304 0.0
O684 O 0.70576 0.9951 0.36553 0.0
C685 C 0.65367 0.07176 0.27976 0.0
O686 O 0.66634 0.05619 0.30888 0.0
O687 O 0.67751 0.09519 0.24963 0.0
C688 C 0.81508 0.11777 0.54919 0.0
O689 O 0.79141 0.09213 0.57965 0.0
O690 O 0.79537 0.13089 0.31637 0.0
O691 O 0.80645 0.17713 0.26494 0.0
C692 C 0.92021 0.18295 0.44989 0.0
O693 O 0.95194 0.19134 0.42521 0.0
C694 C 0.89055 0.20708 0.39354 0.0
C695 C 0.86515 0.18127 0.36117 0.0
C696 C 0.85514 0.19631 0.32414 0.0
C697 C 0.87872 0.23883 0.31499 0.0
C698 C 0.90915 0.26519 0.34556 0.0
C699 C 0.91309 0.24886 0.38578 0.0
C700 C 0.76309 0.06377 0.20795 0.0
O701 O 0.7527 0.08571 0.3994 0.0
C702 C 0.81767 0.16654 0.29968 0.0
C703 C 0.76169 0.13168 0.52329 0.0
C704 C 0.75438 0.16436 0.5261 0.0
C705 C 0.71471 0.15724 0.53112 0.0
C706 C 0.68198 0.11749 0.5344 0.0
C707 C 0.68899 0.08462 0.53334 0.0
C708 C 0.72849 0.09178 0.52699 0.0
C709 C 0.85525 0.24299 0.48838 0.0
O710 O 0.86433 0.27838 0.5055 0.0
H711 H 0.80714 0.26861 0.43784 0.0
H712 H 0.75227 0.2221 0.38555 0.0
H713 H 0.73834 0.15091 0.37354 0.0
H714 H 0.76519 0.04654 0.48053 0.0
H715 H 0.85318 1.00783 0.48661 0.0
H716 H 0.87654 0.10982 0.40637 0.0
H717 H 0.93713 0.22714 0.66036 0.0
H718 H 0.83057 0.19251 0.57998 0.0
H719 H 0.9478 0.27067 0.52804 0.0
H720 H 0.86235 0.08745 0.59175 0.0
H721 H 0.93089 0.10324 0.56421 0.0
H722 H 0.96064 0.14676 0.49784 0.0
H723 H 0.85081 0.14893 0.36674 0.0
H724 H 0.87281 0.25131 0.28557 0.0
H725 H 0.93377 0.26853 0.41115 0.0
H726 H 0.77917 0.19532 0.52645 0.0
H727 H 0.65156 0.11256 0.53906 0.0
H728 H 0.73326 0.06605 0.52647 0.0
C729 C 0.5677 0.09745 0.16478 0.0
C730 C 0.58275 0.13489 0.18631 0.0
C731 C 0.55645 0.13984 0.21565 0.0
C732 C 0.51603 0.10791 0.22255 0.0
C733 C 0.50311 0.07139 0.19979 0.0
N734 N 0.52939 0.06857 0.17284 0.0
C735 C 0.46348 0.03332 0.20188 0.0
C736 C 0.42658 0.96172 0.17491 0.0
C737 C 0.39325 0.95617 0.14968 0.0
C738 C 0.36522 0.91752 0.1341 0.0
C739 C 0.36946 0.88415 0.14532 0.0
C740 C 0.40023 0.88892 0.17412 0.0
C741 C 0.42833 0.9276 0.1896 0.0
Cd742 Cd 0.40374 0.02426 0.29571 0.0
Cd743 Cd 0.47668 0.08348 0.40072 0.0
C744 C 0.57003 0.03687 0.06916 0.0
C745 C 0.59851 1.00604 0.02114 0.0
C746 C 0.57092 1.00318 -0.01198 0.0
C747 C 0.5462 0.02157 -0.0066 0.0
C748 C 0.54985 0.04139 0.03341 0.0
C749 C 0.59608 1.02105 0.06294 0.0
Co750 Co 0.51054 1.02065 0.14245 0.0
N751 N 0.4825 0.03424 0.09662 0.0
N752 N 0.49221 0.9726 0.11198 0.0
C753 C 0.46789 0.96656 0.07764 0.0
C754 C 0.45074 0.92935 0.05537 0.0
C755 C 0.45956 0.89962 0.0712 0.0
C756 C 0.48493 0.90755 0.10843 0.0
C757 C 0.50193 0.94594 0.12838 0.0
N758 N 0.53421 0.99837 0.18287 0.0
N759 N 0.4618 1.00128 0.17871 0.0
N760 N 0.56267 0.04806 0.1118 0.0
O761 O 0.43141 1.02048 0.44134 0.0
O762 O 0.41324 1.01606 0.37294 0.0
C763 C 0.32315 0.95433 0.27368 0.0
O764 O 0.34417 0.95247 0.30544 0.0
O765 O 0.33928 0.98769 0.25266 0.0
C766 C 0.41571 0.11663 0.33863 0.0
O767 O 0.40007 0.08836 0.30957 0.0
O768 O 0.43916 0.11623 0.36875 0.0
C769 C 0.46152 1.00095 0.06951 0.0
O770 O 0.43602 0.99905 0.03891 0.0
O771 O 0.47478 0.03391 0.3022 0.0
O772 O 0.52101 0.06908 0.35361 0.0
C773 C 0.52643 0.96085 0.16905 0.0
O774 O 0.53464 0.93746 0.1939 0.0
C775 C 0.55087 1.01481 0.22514 0.0
C776 C 0.52508 1.01437 0.25753 0.0
C777 C 0.54015 0.03947 0.29452 0.0
C778 C 0.58268 0.05843 0.30362 0.0
C779 C 0.60903 0.05437 0.27304 0.0
C780 C 0.59266 0.03408 0.23284 0.0
C781 C 0.40767 0.99942 0.41056 0.0
O782 O 0.4302 0.03232 0.21926 0.0
C783 C 0.51041 0.04723 0.31893 0.0
C784 C 0.47565 0.06838 0.09516 0.0
C785 C 0.50837 0.10837 0.09258 0.0
C786 C 0.50133 0.14098 0.08766 0.0
C787 C 0.46162 0.13403 0.08424 0.0
C788 C 0.42871 0.09416 0.08501 0.0
C789 C 0.4358 0.06176 0.09121 0.0
C790 C 0.58703 0.08568 0.12991 0.0
O791 O 0.62245 0.11177 0.11267 0.0
H792 H 0.61335 0.15958 0.18032 0.0
H793 H 0.56728 0.16846 0.23277 0.0
H794 H 0.49594 0.1116 0.24504 0.0
H795 H 0.39026 0.98181 0.1399 0.0
H796 H 0.34955 0.85482 0.13095 0.0
H797 H 0.45278 0.93106 0.21079 0.0
H798 H 0.5709 0.98814 0.95792 0.0
H799 H 0.53619 0.05985 0.03848 0.0
H800 H 0.61432 1.02069 0.09031 0.0
H801 H 0.43069 0.92313 0.02739 0.0
H802 H 0.44604 0.87017 0.05527 0.0
H803 H 0.48954 0.88388 0.1216 0.0
H804 H 0.49274 0.99634 0.25198 0.0
H805 H 0.59518 0.07685 0.333 0.0
H806 H 0.61231 0.03308 0.20745 0.0
H807 H 0.53931 0.11449 0.09234 0.0
H808 H 0.45675 0.15958 0.07969 0.0
H809 H 0.41003 0.03127 0.09143 0.0
C810 C 0.95547 0.481 0.16479 0.0
C811 C 0.91804 0.45874 0.18639 0.0
C812 C 0.91304 0.42751 0.21583 0.0
C813 C 0.94489 0.41892 0.22277 0.0
C814 C 0.98139 0.44239 0.19994 0.0
N815 N 0.98427 0.47147 0.17288 0.0
C816 C 1.01939 0.44072 0.20205 0.0
C817 C 0.09091 0.47507 0.17491 0.0
C818 C 0.0961 0.44685 0.15011 0.0
C819 C 0.1346 0.45703 0.13444 0.0
C820 C 0.16817 0.49466 0.14516 0.0
C821 C 0.16377 0.52112 0.17358 0.0
C822 C 0.12524 0.51096 0.18915 0.0
Cd823 Cd 1.02874 0.39018 0.29585 0.0
Cd824 Cd 0.96954 0.40389 0.40094 0.0
C825 C 1.01616 0.54383 0.06912 0.0
C826 C 0.04698 0.60318 0.02111 0.0
C827 C 0.04988 0.57847 -0.012 0.0
C828 C 1.03151 0.53536 -0.00662 0.0
C829 C 1.01168 0.51915 0.03339 0.0
C830 C 0.03194 0.5857 0.0629 0.0
Co831 Co 0.03223 0.50046 0.14249 0.0
N832 N 1.0186 0.4588 0.0967 0.0
N833 N 0.0803 0.53011 0.11203 0.0
C834 C 0.08632 0.51182 0.07772 0.0
C835 C 0.12352 0.53185 0.05541 0.0
C836 C 0.15326 0.57041 0.07118 0.0
C837 C 0.14535 0.58788 0.10838 0.0
C838 C 0.10697 0.5665 0.12836 0.0
N839 N 0.05455 0.54643 0.18285 0.0
N840 N 0.05148 0.47101 0.17883 0.0
N841 N 1.0049 0.52524 0.11176 0.0
O842 O 0.03252 0.42148 0.44152 0.0
O843 O 0.03672 0.40771 0.37309 0.0
C844 C 0.09874 0.37968 0.27372 0.0
O845 O 0.10055 0.40249 0.30552 0.0
O846 O 0.06538 0.36245 0.2527 0.0
C847 C 0.9364 0.30982 0.3388 0.0
O848 O 0.96469 0.32244 0.30975 0.0
O849 O 0.93681 0.33367 0.36889 0.0
C850 C 0.0519 0.47108 0.0696 0.0
O851 O 0.05375 0.44748 0.03899 0.0
O852 O 1.01918 0.45159 0.30233 0.0
O853 O 0.98406 0.46268 0.35376 0.0
C854 C 0.09208 0.57614 0.169 0.0
O855 O 0.11549 0.60774 0.19382 0.0
C856 C 0.03815 0.54668 0.22512 0.0
C857 C 0.03868 0.5214 0.25757 0.0
C858 C 1.01364 0.51141 0.2946 0.0
C859 C 0.99467 0.53496 0.30368 0.0
C860 C 0.99866 0.56532 0.27303 0.0
C861 C 1.01888 0.56919 0.23279 0.0
C862 C 0.05347 0.41874 0.41066 0.0
O863 O 1.02029 0.40839 0.21946 0.0
C864 C 1.0059 0.47392 0.31906 0.0
C865 C 0.98446 0.41781 0.09529 0.0
C866 C 0.94446 0.41054 0.09282 0.0
C867 C 0.91185 0.37087 0.08795 0.0
C868 C 0.91879 0.33811 0.08446 0.0
C869 C 0.95866 0.34508 0.08511 0.0
C870 C 0.99106 0.38457 0.09127 0.0
C871 C 0.96731 0.51208 0.12987 0.0
O872 O 0.94129 0.52151 0.11261 0.0
H873 H 0.89342 0.46474 0.18039 0.0
H874 H 0.88443 0.40983 0.23301 0.0
H875 H 0.94115 0.39516 0.24535 0.0
H876 H 0.07029 0.41817 0.14076 0.0
H877 H 0.19738 0.50376 0.13069 0.0
H878 H 0.12205 0.53225 0.21009 0.0
H879 H 0.06494 0.59353 0.95791 0.0
H880 H 0.99323 0.48702 0.03845 0.0
H881 H 0.03227 0.60427 0.09026 0.0
H882 H 0.12971 0.518 0.02745 0.0
H883 H 0.18269 0.58632 0.05523 0.0
H884 H 0.16902 0.61618 0.1215 0.0
H885 H 0.05671 0.50709 0.25201 0.0
H886 H 0.9763 0.52907 0.3331 0.0
H887 H 1.01983 0.58981 0.20737 0.0
H888 H 0.93835 0.43536 0.09261 0.0
H889 H 0.89324 0.30769 0.07995 0.0
H890 H 1.02156 0.3893 0.09139 0.0
C891 C 0.57197 0.48535 0.16483 0.0
C892 C 0.59436 0.4703 0.18639 0.0
C893 C 0.62563 0.49661 0.2157 0.0
C894 C 0.63416 0.53704 0.22255 0.0
C895 C 0.61058 0.54997 0.19976 0.0
N896 N 0.58143 0.52367 0.17285 0.0
C897 C 0.61216 0.58961 0.20181 0.0
C898 C 0.57739 0.62648 0.17489 0.0
C899 C 0.60487 0.65971 0.14933 0.0
C900 C 0.59403 0.6876 0.13384 0.0
C901 C 0.55651 0.68335 0.14547 0.0
C902 C 0.53083 0.6527 0.17457 0.0
C903 C 0.54163 0.62473 0.18996 0.0
Cd904 Cd 0.66284 0.64923 0.29569 0.0
Cd905 Cd 0.64915 0.57624 0.40062 0.0
C906 C 0.50904 0.483 0.06917 0.0
C907 C 0.44973 0.45447 0.02111 0.0
C908 C 0.47447 0.48205 -0.01202 0.0
C909 C 0.51758 0.50678 -0.00662 0.0
C910 C 0.53375 0.50315 0.03342 0.0
C911 C 0.46718 0.45694 0.06293 0.0
Co912 Co 0.55239 0.54254 0.14239 0.0
N913 N 0.59402 0.5705 0.09656 0.0
N914 N 0.52271 0.56091 0.11186 0.0
C915 C 0.54104 0.58524 0.07753 0.0
C916 C 0.52114 0.60261 0.05535 0.0
C917 C 0.48271 0.59404 0.07129 0.0
C918 C 0.46524 0.5687 0.10854 0.0
C919 C 0.48645 0.55143 0.12836 0.0
N920 N 0.50647 0.51897 0.18281 0.0
N921 N 0.58181 0.59131 0.1786 0.0
N922 N 0.52761 0.49038 0.11181 0.0
O923 O 0.63134 0.6214 0.44127 0.0
O924 O 0.64508 0.63973 0.37291 0.0
C925 C 0.67357 0.72985 0.27366 0.0
O926 O 0.65062 0.70879 0.30536 0.0
O927 O 0.69084 0.71374 0.2527 0.0
C928 C 0.74326 0.63726 0.33862 0.0
O929 O 0.73058 0.6529 0.30958 0.0
O930 O 0.71945 0.61378 0.36874 0.0
C931 C 0.58176 0.59151 0.06941 0.0
O932 O 0.60541 0.61701 0.03883 0.0
O933 O 0.60148 0.57818 0.30216 0.0
O934 O 0.59041 0.53189 0.35351 0.0
C935 C 0.47683 0.52693 0.16905 0.0
O936 O 0.44531 0.51886 0.19396 0.0
C937 C 0.50622 0.50224 0.22506 0.0
C938 C 0.53161 0.52797 0.25747 0.0
C939 C 0.54164 0.51284 0.29441 0.0
C940 C 0.51806 0.4703 0.30346 0.0
C941 C 0.48761 0.44401 0.27286 0.0
C942 C 0.48367 0.46044 0.2327 0.0
C943 C 0.63399 0.64519 0.41054 0.0
O944 O 0.64444 0.62289 0.21921 0.0
C945 C 0.57916 0.54254 0.31884 0.0
C946 C 0.63499 0.5773 0.09515 0.0
C947 C 0.64221 0.54455 0.09258 0.0
C948 C 0.68185 0.55156 0.08767 0.0
C949 C 0.71465 0.59126 0.08426 0.0
C950 C 0.70773 0.6242 0.08503 0.0
C951 C 0.66826 0.61715 0.09123 0.0
C952 C 0.54084 0.46601 0.12997 0.0
O953 O 0.53147 0.43056 0.11278 0.0
H954 H 0.58842 0.43968 0.18043 0.0
H955 H 0.64341 0.48577 0.23284 0.0
H956 H 0.65797 0.55715 0.24502 0.0
H957 H 0.63342 0.66269 0.13922 0.0
H958 H 0.54689 0.70314 0.13116 0.0
H959 H 0.52086 0.60035 0.21136 0.0
H960 H 0.45945 0.48204 0.95786 0.0
H961 H 0.56587 0.5168 0.0385 0.0
H962 H 0.44858 0.43872 0.09031 0.0
H963 H 0.53502 0.62269 0.0274 0.0
H964 H 0.46693 0.60777 0.05547 0.0
H965 H 0.43713 0.56438 0.12186 0.0
H966 H 0.54597 0.56033 0.25194 0.0
H967 H 0.52398 0.45775 0.33281 0.0
H968 H 0.463 0.44082 0.2073 0.0
H969 H 0.61736 0.51362 0.09234 0.0
H970 H 0.74505 0.59609 0.07971 0.0
H971 H 0.66358 0.64294 0.09146 0.0
C972 C 0.49572 0.94507 0.78686 0.0
C973 C 0.4806 0.90763 0.76532 0.0
C974 C 0.50685 0.90263 0.73596 0.0
C975 C 0.54729 0.9345 0.72905 0.0
C976 C 0.56029 0.97103 0.75182 0.0
N977 N 0.53405 0.9739 0.7788 0.0
C978 C 0.59994 1.00906 0.74971 0.0
C979 C 0.63698 0.08064 0.77668 0.0
C980 C 0.6703 0.0861 0.80187 0.0
C981 C 0.69841 0.12472 0.81745 0.0
C982 C 0.69426 0.15815 0.80627 0.0
C983 C 0.66351 0.15347 0.7775 0.0
C984 C 0.63533 0.11482 0.76202 0.0
Cd985 Cd 0.6597 1.01818 0.6559 0.0
Cd986 Cd 0.58671 0.95891 0.55088 0.0
C987 C 0.49353 1.00573 0.88248 0.0
C988 C 0.46501 0.03651 0.93052 0.0
C989 C 0.4926 0.03937 0.96364 0.0
C990 C 0.51734 1.021 0.95825 0.0
C991 C 0.5137 1.0012 0.91822 0.0
C992 C 0.46746 0.02152 0.88871 0.0
Co993 Co 0.55298 0.02185 0.80917 0.0
N994 N 0.58099 1.00822 0.855 0.0
N995 N 0.57139 0.06992 0.83961 0.0
C996 C 0.59572 0.07594 0.87393 0.0
C997 C 0.613 0.11319 0.89614 0.0
C998 C 0.6043 0.14299 0.88025 0.0
C999 C 0.57892 0.13508 0.84302 0.0
C1000 C 0.56178 0.09664 0.82317 0.0
N1001 N 0.52936 0.04417 0.76874 0.0
N1002 N 0.6017 0.04113 0.77289 0.0
N1003 N 0.50086 0.99451 0.83984 0.0
O1004 O 0.63204 0.02187 0.51023 0.0
O1005 O 0.65016 0.02624 0.57864 0.0
C1006 C 0.74026 0.08813 0.67797 0.0
O1007 O 0.71922 0.08999 0.64624 0.0
O1008 O 0.72416 0.05475 0.69895 0.0
C1009 C 0.64771 0.92582 0.61303 0.0
O1010 O 0.66336 0.9541 0.64208 0.0
O1011 O 0.62425 0.92623 0.58293 0.0
C1012 C 0.60201 0.04151 0.88209 0.0
O1013 O 0.62749 0.04337 0.9127 0.0
O1014 O 0.58869 1.00856 0.6494 0.0
O1015 O 0.54245 0.97341 0.598 0.0
C1016 C 0.53725 0.08174 0.78251 0.0
O1017 O 0.52912 0.10516 0.75762 0.0
C1018 C 0.51267 0.02772 0.72649 0.0
C1019 C 0.53844 0.02815 0.69408 0.0
C1020 C 0.52335 1.00305 0.6571 0.0
C1021 C 0.48082 0.98407 0.64803 0.0
C1022 C 0.45449 0.98813 0.67864 0.0
C1023 C 0.47087 1.00844 0.71883 0.0
C1024 C 0.65579 0.0429 0.54103 0.0
O1025 O 0.63319 1.00999 0.73233 0.0
C1026 C 0.55307 0.99527 0.63268 0.0
C1027 C 0.58779 0.97405 0.85646 0.0
C1028 C 0.55505 0.93407 0.85901 0.0
C1029 C 0.56205 0.90143 0.86393 0.0
C1030 C 0.60175 0.90834 0.86737 0.0
C1031 C 0.63468 0.9482 0.86663 0.0
C1032 C 0.62763 0.98062 0.86043 0.0
C1033 C 0.47644 0.95689 0.82173 0.0
O1034 O 0.441 0.93085 0.83898 0.0
H1035 H 0.44998 0.88298 0.77131 0.0
H1036 H 0.49596 0.874 0.71883 0.0
H1037 H 0.56734 0.93077 0.70653 0.0
H1038 H 0.67322 0.06041 0.8116 0.0
H1039 H 0.71422 0.18745 0.82066 0.0
H1040 H 0.6109 0.11143 0.74085 0.0
H1041 H 0.4926 0.05438 -0.00626 0.0
H1042 H 0.52737 0.98274 0.91316 0.0
H1043 H 0.44921 0.02187 0.86134 0.0
H1044 H 0.63306 0.1194 0.9241 0.0
H1045 H 0.61793 0.17247 0.89611 0.0
H1046 H 0.57445 0.15882 0.82978 0.0
H1047 H 0.57079 0.04618 0.69961 0.0
H1048 H 0.4683 0.96564 0.61866 0.0
H1049 H 0.45123 1.00944 0.74423 0.0
H1050 H 0.52411 0.92798 0.85924 0.0
H1051 H 0.60659 0.88277 0.87192 0.0
H1052 H 0.65341 1.0111 0.86023 0.0
C1053 C 0.10803 0.56158 0.78681 0.0
C1054 C 0.14545 0.58396 0.76524 0.0
C1055 C 0.15038 0.6152 0.73587 0.0
C1056 C 0.11846 0.62369 0.72897 0.0
C1057 C 0.08196 0.60011 0.75177 0.0
N1058 N 0.07915 0.57101 0.77875 0.0
C1059 C 0.0439 0.60168 0.7497 0.0
C1060 C 0.97234 0.56703 0.77676 0.0
C1061 C 0.96687 0.5949 0.8019 0.0
C1062 C 0.92826 0.58438 0.8175 0.0
C1063 C 0.89484 0.54676 0.80641 0.0
C1064 C 0.89953 0.52067 0.7777 0.0
C1065 C 0.93817 0.53115 0.76219 0.0
Cd1066 Cd 0.03474 0.65233 0.65586 0.0
Cd1067 Cd 0.0939 0.63863 0.55081 0.0
C1068 C 0.04746 0.49864 0.88248 0.0
C1069 C 1.01661 0.43928 0.93048 0.0
C1070 C 1.01372 0.46399 0.9636 0.0
C1071 C 0.03211 0.5071 0.95823 0.0
C1072 C 0.05196 0.52331 0.91822 0.0
C1073 C 1.03164 0.45677 0.88869 0.0
Co1074 Co 1.03124 0.54194 0.80918 0.0
N1075 N 0.04485 0.58358 0.85498 0.0
N1076 N 0.98321 0.51223 0.83969 0.0
C1077 C 0.97718 0.53051 0.87401 0.0
C1078 C 0.93998 0.51046 0.89632 0.0
C1079 C 0.91025 0.47191 0.88053 0.0
C1080 C 0.91816 0.45447 0.8433 0.0
C1081 C 0.95654 0.47586 0.82333 0.0
N1082 N 1.00894 0.49599 0.7688 0.0
N1083 N 1.01187 0.57132 0.77291 0.0
N1084 N 0.05866 0.51723 0.83984 0.0
O1085 O 1.03087 0.62089 0.51026 0.0
O1086 O 1.02655 0.63465 0.57866 0.0
C1087 C 0.96481 0.66298 0.67792 0.0
O1088 O 0.96297 0.64015 0.64613 0.0
O1089 O 0.99816 0.68016 0.69896 0.0
C1090 C 0.12707 0.73274 0.61287 0.0
O1091 O 0.09881 0.72008 0.64195 0.0
O1092 O 0.12666 0.7089 0.58276 0.0
C1093 C 1.01158 0.57127 0.88211 0.0
O1094 O 1.0097 0.59488 0.9127 0.0
O1095 O 0.04436 0.59093 0.64939 0.0
O1096 O 0.0795 0.57988 0.59796 0.0
C1097 C 0.97142 0.46625 0.78266 0.0
O1098 O 0.94801 0.43466 0.75783 0.0
C1099 C 1.02535 0.49576 0.72652 0.0
C1100 C 1.02486 0.5211 0.69411 0.0
C1101 C 0.04992 0.53112 0.65709 0.0
C1102 C 0.06887 0.50755 0.64797 0.0
C1103 C 0.06484 0.47714 0.67858 0.0
C1104 C 0.0446 0.47324 0.71881 0.0
C1105 C 1.00986 0.62358 0.54107 0.0
O1106 O 0.0429 0.63397 0.7323 0.0
C1107 C 0.05766 0.56862 0.63266 0.0
C1108 C 0.07899 0.62458 0.8564 0.0
C1109 C 0.11898 0.63186 0.85895 0.0
C1110 C 0.15159 0.67152 0.86386 0.0
C1111 C 0.14464 0.70428 0.8673 0.0
C1112 C 0.10477 0.6973 0.86657 0.0
C1113 C 0.07237 0.65781 0.86037 0.0
C1114 C 0.09626 0.53048 0.8217 0.0
O1115 O 0.12235 0.52113 0.83893 0.0
H1116 H 0.17014 0.57804 0.77122 0.0
H1117 H 0.17899 0.63297 0.71872 0.0
H1118 H 0.12215 0.64748 0.70645 0.0
H1119 H 0.99255 0.62355 0.81156 0.0
H1120 H 0.86554 0.53741 0.82082 0.0
H1121 H 0.94157 0.51011 0.74106 0.0
H1122 H 0.99865 0.44893 -0.00632 0.0
H1123 H 0.07041 0.55544 0.91316 0.0
H1124 H 1.0313 0.43819 0.86133 0.0
H1125 H 0.93378 0.5243 0.92429 0.0
H1126 H 0.88081 0.45599 0.89648 0.0
H1127 H 0.89448 0.42619 0.83016 0.0
H1128 H 1.00684 0.53541 0.69968 0.0
H1129 H 0.08726 0.51346 0.61856 0.0
H1130 H 0.04363 0.45259 0.74421 0.0
H1131 H 0.1251 0.60703 0.85918 0.0
H1132 H 0.17018 0.7347 0.87185 0.0
H1133 H 0.04188 0.65308 0.86017 0.0
C1134 C 0.49151 0.55716 0.78679 0.0
C1135 C 0.46917 0.57225 0.76522 0.0
C1136 C 0.43791 0.54597 0.73587 0.0
C1137 C 0.42937 0.50553 0.72899 0.0
C1138 C 0.45292 0.49257 0.75179 0.0
N1139 N 0.48204 0.51884 0.77875 0.0
C1140 C 0.45132 0.45293 0.74972 0.0
C1141 C 0.48595 0.41596 0.77672 0.0
C1142 C 0.4582 0.38265 0.802 0.0
C1143 C 0.4688 0.35461 0.81758 0.0
C1144 C 0.50638 0.35881 0.80631 0.0
C1145 C 0.53235 0.38956 0.77746 0.0
C1146 C 0.52178 0.41767 0.76198 0.0
Cd1147 Cd 0.40068 0.39325 0.65584 0.0
Cd1148 Cd 0.41439 0.46624 0.55089 0.0
C1149 C 0.55441 0.55943 0.88245 0.0
C1150 C 0.61372 0.58795 0.9305 0.0
C1151 C 0.58899 0.56035 0.96363 0.0
C1152 C 0.54588 0.53563 0.95823 0.0
C1153 C 0.52971 0.53926 0.91819 0.0
C1154 C 0.59627 0.58549 0.88869 0.0
Co1155 Co 0.51108 0.49994 0.80918 0.0
N1156 N 0.46944 0.47193 0.855 0.0
N1157 N 0.54075 0.48156 0.83968 0.0
C1158 C 0.52245 0.45724 0.87401 0.0
C1159 C 0.54244 0.43999 0.89626 0.0
C1160 C 0.58093 0.4487 0.88041 0.0
C1161 C 0.5984 0.47406 0.84317 0.0
C1162 C 0.57708 0.49118 0.82326 0.0
N1163 N 0.55701 0.52356 0.76878 0.0
N1164 N 0.48165 0.4512 0.77292 0.0
N1165 N 0.53584 0.55208 0.83981 0.0
O1166 O 0.43219 0.42106 0.51026 0.0
O1167 O 0.41843 0.40277 0.57863 0.0
C1168 C 0.39004 0.31267 0.67792 0.0
O1169 O 0.41293 0.33372 0.64618 0.0
O1170 O 0.37278 0.32878 0.6989 0.0
C1171 C 0.32026 0.4052 0.61287 0.0
O1172 O 0.33293 0.38957 0.64192 0.0
O1173 O 0.34409 0.42869 0.58277 0.0
C1174 C 0.48172 0.45093 0.88213 0.0
O1175 O 0.4581 0.42544 0.91273 0.0
O1176 O 0.46205 0.46429 0.6494 0.0
O1177 O 0.47312 0.51057 0.59803 0.0
C1178 C 0.5867 0.51569 0.78258 0.0
O1179 O 0.61825 0.52382 0.75771 0.0
C1180 C 0.55726 0.54027 0.72653 0.0
C1181 C 0.5319 0.51452 0.69411 0.0
C1182 C 0.52187 0.52964 0.65715 0.0
C1183 C 0.54544 0.57218 0.6481 0.0
C1184 C 0.57586 0.59849 0.67871 0.0
C1185 C 0.57979 0.58208 0.71888 0.0
C1186 C 0.42953 0.39728 0.54101 0.0
O1187 O 0.41903 0.41966 0.73231 0.0
C1188 C 0.48437 0.49994 0.63271 0.0
C1189 C 0.42846 0.46511 0.85642 0.0
C1190 C 0.42122 0.49784 0.85895 0.0
C1191 C 0.38156 0.49081 0.86383 0.0
C1192 C 0.34878 0.45111 0.86727 0.0
C1193 C 0.35572 0.41818 0.86655 0.0
C1194 C 0.3952 0.42526 0.86038 0.0
C1195 C 0.52263 0.57647 0.82166 0.0
O1196 O 0.53201 0.61191 0.83888 0.0
H1197 H 0.47512 0.60286 0.77119 0.0
H1198 H 0.42016 0.55683 0.71872 0.0
H1199 H 0.40558 0.48546 0.70649 0.0
H1200 H 0.42959 0.37969 0.81181 0.0
H1201 H 0.51581 0.33891 0.8207 0.0
H1202 H 0.54275 0.44209 0.74076 0.0
H1203 H 0.60401 0.56035 -0.00626 0.0
H1204 H 0.49759 0.52561 0.91311 0.0
H1205 H 0.61487 0.60373 0.86132 0.0
H1206 H 0.52858 0.41993 0.92423 0.0
H1207 H 0.59679 0.43509 0.8963 0.0
H1208 H 0.62661 0.47856 0.82996 0.0
H1209 H 0.51756 0.48217 0.69963 0.0
H1210 H 0.53952 0.58472 0.61873 0.0
H1211 H 0.60045 0.6017 0.74429 0.0
H1212 H 0.44605 0.52878 0.85918 0.0
H1213 H 0.31837 0.44625 0.87179 0.0
H1214 H 0.39991 0.39948 0.86019 0.0
C1215 C 0.23392 0.43071 0.49804 0.0
C1216 C 0.24871 0.46814 0.51952 0.0
C1217 C 0.22221 0.47291 0.54871 0.0
C1218 C 0.18186 0.44083 0.55552 0.0
C1219 C 0.16919 0.40433 0.53282 0.0
N1220 N 0.19567 0.40167 0.50604 0.0
C1221 C 0.12967 0.36612 0.53484 0.0
C1222 C 0.09342 0.29434 0.50822 0.0
C1223 C 0.06027 0.28788 0.48207 0.0
C1224 C 0.03287 0.24886 0.46691 0.0
C1225 C 0.03752 0.216 0.4794 0.0
C1226 C 0.06812 0.2217 0.50896 0.0
C1227 C 0.09562 0.26076 0.52401 0.0
Cd1228 Cd 0.07022 0.35751 0.62882 0.0
Cd1229 Cd 0.14311 0.41663 0.73387 0.0
C1230 C 0.23677 0.37039 0.40244 0.0
C1231 C 0.26523 0.33955 0.35442 0.0
C1232 C 0.23769 0.33675 0.32128 0.0
C1233 C 0.21299 0.35516 0.32666 0.0
C1234 C 0.21665 0.37498 0.36668 0.0
C1235 C 0.26278 0.35453 0.39623 0.0
Co1236 Co 0.1771 0.35383 0.47558 0.0
N1237 N 0.14908 0.36738 0.42972 0.0
N1238 N 0.159 0.30586 0.44503 0.0
C1239 C 0.13471 0.29979 0.41065 0.0
C1240 C 0.11762 0.26258 0.38839 0.0
C1241 C 0.12646 0.23289 0.40426 0.0
C1242 C 0.15178 0.24084 0.44155 0.0
C1243 C 0.16869 0.27922 0.46151 0.0
N1244 N 0.20079 0.33163 0.51606 0.0
N1245 N 0.12825 0.3342 0.51167 0.0
N1246 N 0.22929 0.38146 0.44509 0.0
O1247 O 0.09794 0.35354 0.77438 0.0
O1248 O 0.07964 0.34901 0.70601 0.0
C1249 C 0.98946 0.28777 0.60698 0.0
O1250 O 1.01054 0.2858 0.63862 0.0
O1251 O 1.00561 0.32116 0.58601 0.0
C1252 C 0.08223 0.4499 0.67184 0.0
O1253 O 0.06667 0.42168 0.6427 0.0
O1254 O 0.10563 0.44944 0.70199 0.0
C1255 C 0.12821 0.33412 0.40254 0.0
O1256 O 0.10263 0.33216 0.37201 0.0
O1257 O 0.14137 0.36737 0.63531 0.0
O1258 O 0.18759 0.40248 0.68675 0.0
C1259 C 0.19309 0.29413 0.50225 0.0
O1260 O 0.20131 0.27077 0.52714 0.0
C1261 C 0.21746 0.34814 0.5583 0.0
C1262 C 0.19169 0.34781 0.59065 0.0
C1263 C 0.20676 0.37296 0.62759 0.0
C1264 C 0.24929 0.39193 0.63669 0.0
C1265 C 0.27562 0.38779 0.60615 0.0
C1266 C 0.25925 0.3674 0.566 0.0
C1267 C 0.07418 0.33242 0.74364 0.0
O1268 O 0.09627 0.36485 0.55223 0.0
C1269 C 0.17701 0.3807 0.65201 0.0
C1270 C 0.14218 0.40149 0.42826 0.0
C1271 C 0.17488 0.44147 0.42546 0.0
C1272 C 0.1678 0.47405 0.42046 0.0
C1273 C 0.12807 0.46707 0.4172 0.0
C1274 C 0.09517 0.4272 0.41824 0.0
C1275 C 0.1023 0.39483 0.42452 0.0
C1276 C 0.25346 0.41911 0.46324 0.0
O1277 O 0.28886 0.44534 0.44607 0.0
H1278 H 0.27926 0.49296 0.51357 0.0
H1279 H 0.23285 0.50152 0.56579 0.0
H1280 H 0.16161 0.4444 0.5779 0.0
H1281 H 0.05702 0.31311 0.4712 0.0
H1282 H 1.01807 0.18634 0.46543 0.0
H1283 H 0.12001 0.26491 0.54571 0.0
H1284 H 0.23768 0.32172 0.29117 0.0
H1285 H 0.20298 0.39343 0.37175 0.0
H1286 H 0.28096 0.35409 0.42362 0.0
H1287 H 0.09758 0.25633 0.36039 0.0
H1288 H 0.11299 0.20344 0.38834 0.0
H1289 H 0.15642 0.21719 0.45476 0.0
H1290 H 0.15935 0.32981 0.58512 0.0
H1291 H 0.2618 0.41039 0.66604 0.0
H1292 H 0.27889 0.36634 0.54065 0.0
H1293 H 0.20583 0.44761 0.42512 0.0
H1294 H 0.12317 0.49259 0.41259 0.0
H1295 H 0.07655 0.36432 0.425 0.0
C1296 C 0.62185 0.81387 0.49807 0.0
C1297 C 0.58445 0.7914 0.51967 0.0
C1298 C 0.57966 0.76024 0.54907 0.0
C1299 C 0.61169 0.7519 0.55596 0.0
C1300 C 0.64816 0.77556 0.53314 0.0
N1301 N 0.65084 0.80459 0.50614 0.0
C1302 C 0.6863 0.77415 0.53518 0.0
C1303 C 0.75783 0.80897 0.50798 0.0
C1304 C 0.76331 0.781 0.48304 0.0
C1305 C 0.80189 0.79153 0.46732 0.0
C1306 C 0.83528 0.82928 0.47808 0.0
C1307 C 0.8306 0.85553 0.50657 0.0
C1308 C 0.792 0.84503 0.5222 0.0
Cd1309 Cd 0.69549 0.72357 0.62906 0.0
Cd1310 Cd 0.63632 0.73724 0.73404 0.0
C1311 C 0.68227 0.87687 0.40234 0.0
C1312 C 0.71329 0.93629 0.35444 0.0
C1313 C 0.7163 0.91163 0.32136 0.0
C1314 C 0.69789 0.86851 0.32668 0.0
C1315 C 0.6779 0.85224 0.3666 0.0
C1316 C 0.6981 0.91875 0.39617 0.0
Co1317 Co 0.6987 0.83375 0.47565 0.0
N1318 N 0.68519 0.79208 0.42991 0.0
N1319 N 0.74666 0.86355 0.44507 0.0
C1320 C 0.75273 0.84532 0.41073 0.0
C1321 C 0.78978 0.86562 0.38817 0.0
C1322 C 0.81928 0.9044 0.40366 0.0
C1323 C 0.81129 0.92182 0.44086 0.0
C1324 C 0.77311 0.90012 0.46116 0.0
N1325 N 0.72089 0.87977 0.51592 0.0
N1326 N 0.71827 0.80456 0.51194 0.0
N1327 N 0.67109 0.85826 0.44497 0.0
O1328 O 0.69934 0.75507 0.77464 0.0
O1329 O 0.70379 0.74133 0.70626 0.0
C1330 C 0.76538 0.71286 0.60702 0.0
O1331 O 0.76724 0.73572 0.63879 0.0
O1332 O 0.73203 0.69567 0.586 0.0
C1333 C 0.60312 0.64314 0.67202 0.0
O1334 O 0.6314 0.65582 0.64297 0.0
O1335 O 0.60349 0.66695 0.70216 0.0
C1336 C 0.71847 0.80446 0.40276 0.0
O1337 O 0.72043 0.78086 0.37223 0.0
O1338 O 0.68583 0.78496 0.63545 0.0
O1339 O 0.65065 0.79596 0.68688 0.0
C1340 C 0.75822 0.9097 0.50183 0.0
O1341 O 0.78153 0.94149 0.52646 0.0
C1342 C 0.70456 0.88 0.55824 0.0
C1343 C 0.70515 0.85472 0.59066 0.0
C1344 C 0.68015 0.8447 0.62773 0.0
C1345 C 0.66116 0.86823 0.63688 0.0
C1346 C 0.6651 0.89859 0.60626 0.0
C1347 C 0.68527 0.90249 0.56599 0.0
C1348 C 0.72042 0.75242 0.74387 0.0
O1349 O 0.68744 0.74194 0.55259 0.0
C1350 C 0.67249 0.80723 0.65218 0.0
C1351 C 0.65111 0.75106 0.42851 0.0
C1352 C 0.61109 0.74371 0.42591 0.0
C1353 C 0.57853 0.70402 0.42099 0.0
C1354 C 0.58556 0.67131 0.41759 0.0
C1355 C 0.62546 0.67836 0.41838 0.0
C1356 C 0.6578 0.71787 0.42459 0.0
C1357 C 0.63348 0.84491 0.46313 0.0
O1358 O 0.6073 0.85413 0.4459 0.0
H1359 H 0.55969 0.7972 0.51368 0.0
H1360 H 0.55108 0.74239 0.56625 0.0
H1361 H 0.60811 0.72816 0.5785 0.0
H1362 H 0.73764 0.75224 0.47362 0.0
H1363 H 0.86456 0.83861 0.46361 0.0
H1364 H 0.7886 0.86617 0.54317 0.0
H1365 H 0.7315 0.92673 0.29134 0.0
H1366 H 0.65948 0.8201 0.37164 0.0
H1367 H 0.69838 0.9373 0.42354 0.0
H1368 H 0.79601 0.85186 0.36015 0.0
H1369 H 0.84858 0.92058 0.38745 0.0
H1370 H 0.83471 0.95039 0.45368 0.0
H1371 H 0.72322 0.84047 0.58507 0.0
H1372 H 0.64283 0.86232 0.66633 0.0
H1373 H 0.68617 0.9231 0.5406 0.0
H1374 H 0.60492 0.76849 0.42564 0.0
H1375 H 0.56006 0.64087 0.41303 0.0
H1376 H 0.68832 0.72267 0.42485 0.0
C1377 C 0.239 0.81897 0.49818 0.0
C1378 C 0.26155 0.80412 0.51976 0.0
C1379 C 0.29279 0.83058 0.54903 0.0
C1380 C 0.30112 0.87096 0.5558 0.0
C1381 C 0.27738 0.88369 0.533 0.0
N1382 N 0.24826 0.85724 0.50615 0.0
C1383 C 0.27875 0.92323 0.53496 0.0
C1384 C 0.2435 0.95966 0.50805 0.0
C1385 C 0.27054 0.99285 0.48215 0.0
C1386 C 0.25922 1.02041 0.46673 0.0
C1387 C 0.22167 1.01588 0.47874 0.0
C1388 C 0.19642 0.98526 0.50811 0.0
C1389 C 0.20768 0.95761 0.52341 0.0
Cd1390 Cd 0.32946 0.98275 0.62893 0.0
Cd1391 Cd 0.31571 0.9098 0.73392 0.0
C1392 C 0.17594 0.81621 0.40245 0.0
C1393 C 0.11658 0.78773 0.35446 0.0
C1394 C 0.1413 0.81532 0.32133 0.0
C1395 C 0.18441 0.84004 0.32669 0.0
C1396 C 0.20061 0.83637 0.3667 0.0
C1397 C 0.13406 0.79017 0.39626 0.0
Co1398 Co 0.21908 0.87588 0.47559 0.0
N1399 N 0.26072 0.9039 0.42979 0.0
N1400 N 0.1893 0.89404 0.44493 0.0
C1401 C 0.20758 0.91834 0.41058 0.0
C1402 C 0.18751 0.93544 0.38822 0.0
C1403 C 0.14895 0.92661 0.40399 0.0
C1404 C 0.13152 0.90128 0.44126 0.0
C1405 C 0.15294 0.88435 0.46131 0.0
N1406 N 0.17313 0.85221 0.51596 0.0
N1407 N 0.24831 0.92471 0.51171 0.0
N1408 N 0.19451 0.82369 0.4451 0.0
O1409 O 0.29782 0.95494 0.77447 0.0
O1410 O 0.31158 0.97327 0.70611 0.0
C1411 C 0.34041 0.06347 0.60701 0.0
O1412 O 0.31739 0.0424 0.63866 0.0
O1413 O 0.35765 0.04733 0.58606 0.0
C1414 C 0.40984 0.97073 0.67193 0.0
O1415 O 0.39717 0.98633 0.64284 0.0
O1416 O 0.38602 0.9473 0.70207 0.0
C1417 C 0.24839 0.9248 0.40257 0.0
O1418 O 0.27205 0.95037 0.37205 0.0
O1419 O 0.26813 0.91164 0.63537 0.0
O1420 O 0.25704 0.86539 0.68678 0.0
C1421 C 0.14337 0.85994 0.50206 0.0
O1422 O 0.11178 0.85175 0.52688 0.0
C1423 C 0.17291 0.83555 0.55824 0.0
C1424 C 0.1983 0.86133 0.59063 0.0
C1425 C 0.20833 0.84625 0.62762 0.0
C1426 C 0.18475 0.80372 0.63672 0.0
C1427 C 0.15432 0.77738 0.60614 0.0
C1428 C 0.15037 0.79376 0.56594 0.0
C1429 C 0.30046 0.97872 0.74374 0.0
O1430 O 0.31091 0.95661 0.55236 0.0
C1431 C 0.24582 0.87599 0.65206 0.0
C1432 C 0.30171 0.91076 0.42841 0.0
C1433 C 0.30897 0.87804 0.42573 0.0
C1434 C 0.34863 0.8851 0.42077 0.0
C1435 C 0.38139 0.92482 0.41741 0.0
C1436 C 0.37444 0.95773 0.41832 0.0
C1437 C 0.33495 0.95063 0.42458 0.0
C1438 C 0.2079 0.79948 0.46332 0.0
O1439 O 0.19869 0.76405 0.44619 0.0
H1440 H 0.25578 0.77356 0.51385 0.0
H1441 H 0.3107 0.8199 0.56618 0.0
H1442 H 0.32491 0.89118 0.57823 0.0
H1443 H 0.29908 0.99601 0.47168 0.0
H1444 H 0.21171 0.03546 0.46456 0.0
H1445 H 0.1872 0.93322 0.54498 0.0
H1446 H 0.12624 0.81534 0.29124 0.0
H1447 H 0.23274 0.85006 0.37176 0.0
H1448 H 0.11547 0.77196 0.42365 0.0
H1449 H 0.20134 0.95548 0.36022 0.0
H1450 H 0.13301 0.94009 0.38799 0.0
H1451 H 0.10323 0.89666 0.45439 0.0
H1452 H 0.21264 0.89367 0.58508 0.0
H1453 H 0.19067 0.79121 0.66611 0.0
H1454 H 0.1297 0.77411 0.54056 0.0
H1455 H 0.28415 0.8471 0.42543 0.0
H1456 H 0.4118 0.9297 0.41281 0.0
H1457 H 0.33023 0.97639 0.42495 0.0
loop_
_geom_bond_atom_site_label_1
_geom_bond_atom_site_label_2
_geom_bond_distance
_geom_bond_site_symmetry_2
_ccdc_geom_bond_type
C0 C1 1.359 . S
C0 N5 1.330 . S
C0 C61 1.504 . S
C1 C0 1.359 . S
C1 C2 1.366 . S
C1 H63 0.929 . S
C2 C1 1.366 . S
C2 C3 1.415 . S
C2 H64 0.932 . S
C3 C2 1.415 . S
C3 C4 1.366 . S
C3 H65 0.931 . S
C4 C3 1.366 . S
C4 N5 1.325 . S
C4 C6 1.516 . S
N5 C0 1.330 . S
N5 C4 1.325 . S
N5 Co21 1.869 . S
C6 C4 1.516 . S
C6 N30 1.316 . S
C6 O53 1.263 . S
C7 C8 1.421 . S
C7 C12 1.360 . S
C7 N30 1.436 . S
C8 C7 1.421 . S
C8 C9 1.379 . S
C8 H66 0.929 . S
C9 C8 1.379 . S
C9 C10 1.417 . S
C10 C9 1.417 . S
C10 C11 1.352 . S
C10 H67 0.929 . S
C11 C10 1.352 . S
C11 C12 1.393 . S
C12 C7 1.360 . S
C12 C11 1.393 . S
C12 H68 0.931 . S
Cd13 O33 2.329 1_554 S
Cd13 O35 2.350 . S
Cd13 O36 2.277 . S
Cd13 O38 2.173 . S
Cd13 O42 2.263 1_554 S
Cd13 O53 2.366 . S
Cd14 O32 2.352 . S
Cd14 O39 2.250 . S
Cd14 O43 2.308 . S
C15 C19 1.403 . S
C15 C20 1.370 . S
C15 N31 1.423 . S
C16 C17 1.389 . S
C16 C20 1.389 . S
C17 C16 1.389 . S
C17 C18 1.379 . S
C17 H69 0.929 . S
C18 C17 1.379 . S
C18 C19 1.405 . S
C19 C15 1.403 . S
C19 C18 1.405 . S
C19 H70 0.932 . S
C20 C15 1.370 . S
C20 C16 1.389 . S
C20 H71 0.931 . S
Co21 N5 1.869 . S
Co21 N22 1.955 . S
Co21 N23 1.864 . S
Co21 N29 1.958 . S
Co21 N30 1.953 . S
Co21 N31 1.974 . S
N22 Co21 1.955 . S
N22 C40 1.329 . S
N22 C55 1.432 . S
N23 Co21 1.864 . S
N23 C24 1.327 . S
N23 C28 1.342 . S
C24 N23 1.327 . S
C24 C25 1.407 . S
C24 C40 1.481 . S
C25 C24 1.407 . S
C25 C26 1.364 . S
C25 H72 0.930 . S
C26 C25 1.364 . S
C26 C27 1.390 . S
C26 H73 0.931 . S
C27 C26 1.390 . S
C27 C28 1.346 . S
C27 H74 0.930 . S
C28 N23 1.342 . S
C28 C27 1.346 . S
C28 C44 1.516 . S
N29 Co21 1.958 . S
N29 C44 1.324 . S
N29 C46 1.427 . S
N30 C6 1.316 . S
N30 C7 1.436 . S
N30 Co21 1.953 . S
N31 C15 1.423 . S
N31 Co21 1.974 . S
N31 C61 1.309 . S
O32 Cd14 2.352 . S
O32 C52 1.235 . S
O33 Cd13 2.329 1_556 S
O33 C52 1.270 . S
C34 O35 1.270 . S
C34 O36 1.248 . S
O35 Cd13 2.350 . S
O35 C34 1.270 . S
O36 Cd13 2.277 . S
O36 C34 1.248 . S
C37 O38 1.277 1_556 S
C37 O39 1.230 . S
O38 Cd13 2.173 . S
O38 C37 1.277 1_554 S
O39 Cd14 2.250 . S
O39 C37 1.230 . S
C40 N22 1.329 . S
C40 C24 1.481 . S
C40 O41 1.246 . S
O41 C40 1.246 . S
O42 Cd13 2.263 1_556 S
O42 C54 1.258 . S
O43 Cd14 2.308 . S
O43 C54 1.274 . S
C44 C28 1.516 . S
C44 N29 1.324 . S
C44 O45 1.238 . S
O45 C44 1.238 . S
C46 N29 1.427 . S
C46 C47 1.394 . S
C46 C51 1.395 . S
C47 C46 1.394 . S
C47 C48 1.380 1_554 S
C47 H75 0.929 . S
C48 C47 1.380 1_556 S
C48 C49 1.384 . S
C48 C54 1.495 . S
C49 C48 1.384 . S
C49 C50 1.382 1_556 S
C49 H76 0.930 . S
C50 C49 1.382 1_554 S
C50 C51 1.398 . S
C51 C46 1.395 . S
C51 C50 1.398 . S
C51 H77 0.930 . S
C52 O32 1.235 . S
C52 O33 1.270 . S
O53 C6 1.263 . S
O53 Cd13 2.366 . S
C54 O42 1.258 . S
C54 O43 1.274 . S
C54 C48 1.495 . S
C55 N22 1.432 . S
C55 C56 1.381 . S
C55 C60 1.385 . S
C56 C55 1.381 . S
C56 C57 1.371 . S
C56 H78 0.932 . S
C57 C56 1.371 . S
C57 C58 1.400 . S
C58 C57 1.400 . S
C58 C59 1.351 . S
C58 H79 0.930 . S
C59 C58 1.351 . S
C59 C60 1.388 . S
C60 C55 1.385 . S
C60 C59 1.388 . S
C60 H80 0.929 . S
C61 C0 1.504 . S
C61 N31 1.309 . S
C61 O62 1.258 . S
O62 C61 1.258 . S
H63 C1 0.929 . S
H64 C2 0.932 . S
H65 C3 0.931 . S
H66 C8 0.929 . S
H67 C10 0.929 . S
H68 C12 0.931 . S
H69 C17 0.929 . S
H70 C19 0.932 . S
H71 C20 0.931 . S
H72 C25 0.930 . S
H73 C26 0.931 . S
H74 C27 0.930 . S
H75 C47 0.929 . S
H76 C49 0.930 . S
H77 C51 0.930 . S
H78 C56 0.932 . S
H79 C58 0.930 . S
H80 C60 0.929 . S
C81 C82 1.359 . S
C81 N86 1.330 . S
C81 C142 1.504 . S
C82 C81 1.359 . S
C82 C83 1.366 . S
C82 H144 0.929 . S
C83 C82 1.366 . S
C83 C84 1.415 . S
C83 H145 0.932 . S
C84 C83 1.415 . S
C84 C85 1.366 . S
C84 H146 0.931 . S
C85 C84 1.366 . S
C85 N86 1.325 . S
C85 C87 1.516 . S
N86 C81 1.330 . S
N86 C85 1.325 . S
N86 Co102 1.869 . S
C87 C85 1.516 . S
C87 N111 1.316 . S
C87 O134 1.263 . S
C88 C89 1.421 . S
C88 C93 1.360 . S
C88 N111 1.436 . S
C89 C88 1.421 . S
C89 C90 1.379 . S
C89 H147 0.929 . S
C90 C89 1.379 . S
C90 C91 1.417 . S
C91 C90 1.417 . S
C91 C92 1.352 . S
C91 H148 0.929 . S
C92 C91 1.352 . S
C92 C93 1.393 . S
C93 C88 1.360 . S
C93 C92 1.393 . S
C93 H149 0.931 . S
Cd94 O114 2.329 1_554 S
Cd94 O116 2.350 . S
Cd94 O117 2.277 . S
Cd94 O119 2.173 1_565 S
Cd94 O123 2.263 1_554 S
Cd94 O134 2.366 . S
Cd95 O113 2.352 1_565 S
Cd95 O120 2.250 . S
Cd95 O124 2.308 . S
C96 C100 1.403 . S
C96 C101 1.370 . S
C96 N112 1.423 . S
C97 C98 1.389 . S
C97 C101 1.389 . S
C98 C97 1.389 . S
C98 C99 1.379 . S
C98 H150 0.929 . S
C99 C98 1.379 . S
C99 C100 1.405 . S
C100 C96 1.403 . S
C100 C99 1.405 . S
C100 H151 0.932 . S
C101 C96 1.370 . S
C101 C97 1.389 . S
C101 H152 0.931 . S
Co102 N86 1.869 . S
Co102 N103 1.955 . S
Co102 N104 1.864 . S
Co102 N110 1.958 . S
Co102 N111 1.953 . S
Co102 N112 1.974 . S
N103 Co102 1.955 . S
N103 C121 1.329 . S
N103 C136 1.432 . S
N104 Co102 1.864 . S
N104 C105 1.327 . S
N104 C109 1.342 . S
C105 N104 1.327 . S
C105 C106 1.407 . S
C105 C121 1.481 . S
C106 C105 1.407 . S
C106 C107 1.364 . S
C106 H153 0.930 . S
C107 C106 1.364 . S
C107 C108 1.390 . S
C107 H154 0.931 . S
C108 C107 1.390 . S
C108 C109 1.346 . S
C108 H155 0.930 . S
C109 N104 1.342 . S
C109 C108 1.346 . S
C109 C125 1.516 . S
N110 Co102 1.958 . S
N110 C125 1.324 . S
N110 C127 1.427 . S
N111 C87 1.316 . S
N111 C88 1.436 . S
N111 Co102 1.953 . S
N112 C96 1.423 . S
N112 Co102 1.974 . S
N112 C142 1.309 . S
O113 Cd95 2.352 1_545 S
O113 C133 1.235 . S
O114 Cd94 2.329 1_556 S
O114 C133 1.270 1_565 S
C115 O116 1.270 . S
C115 O117 1.248 . S
O116 Cd94 2.350 . S
O116 C115 1.270 . S
O117 Cd94 2.277 . S
O117 C115 1.248 . S
C118 O119 1.277 1_556 S
C118 O120 1.230 1_545 S
O119 Cd94 2.173 1_545 S
O119 C118 1.277 1_554 S
O120 Cd95 2.250 . S
O120 C118 1.230 1_565 S
C121 N103 1.329 . S
C121 C105 1.481 . S
C121 O122 1.246 . S
O122 C121 1.246 . S
O123 Cd94 2.263 1_556 S
O123 C135 1.258 . S
O124 Cd95 2.308 . S
O124 C135 1.274 . S
C125 C109 1.516 . S
C125 N110 1.324 . S
C125 O126 1.238 . S
O126 C125 1.238 . S
C127 N110 1.427 . S
C127 C128 1.394 . S
C127 C132 1.395 . S
C128 C127 1.394 . S
C128 C129 1.380 1_554 S
C128 H156 0.929 . S
C129 C128 1.380 1_556 S
C129 C130 1.384 . S
C129 C135 1.495 . S
C130 C129 1.384 . S
C130 C131 1.382 1_556 S
C130 H157 0.930 . S
C131 C130 1.382 1_554 S
C131 C132 1.398 . S
C132 C127 1.395 . S
C132 C131 1.398 . S
C132 H158 0.930 . S
C133 O113 1.235 . S
C133 O114 1.270 1_545 S
O134 C87 1.263 . S
O134 Cd94 2.366 . S
C135 O123 1.258 . S
C135 O124 1.274 . S
C135 C129 1.495 . S
C136 N103 1.432 . S
C136 C137 1.381 . S
C136 C141 1.385 . S
C137 C136 1.381 . S
C137 C138 1.371 . S
C137 H159 0.932 . S
C138 C137 1.371 . S
C138 C139 1.400 1_565 S
C139 C138 1.400 1_545 S
C139 C140 1.351 1_545 S
C139 H160 0.930 . S
C140 C139 1.351 1_565 S
C140 C141 1.388 . S
C141 C136 1.385 . S
C141 C140 1.388 . S
C141 H161 0.929 . S
C142 C81 1.504 . S
C142 N112 1.309 . S
C142 O143 1.258 . S
O143 C142 1.258 . S
H144 C82 0.929 . S
H145 C83 0.932 . S
H146 C84 0.931 . S
H147 C89 0.929 . S
H148 C91 0.929 . S
H149 C93 0.931 . S
H150 C98 0.929 . S
H151 C100 0.932 . S
H152 C101 0.931 . S
H153 C106 0.930 . S
H154 C107 0.931 . S
H155 C108 0.930 . S
H156 C128 0.929 . S
H157 C130 0.930 . S
H158 C132 0.930 . S
H159 C137 0.932 . S
H160 C139 0.930 . S
H161 C141 0.929 . S
C162 C163 1.359 . S
C162 N167 1.330 . S
C162 C223 1.504 . S
C163 C162 1.359 . S
C163 C164 1.366 . S
C163 H225 0.929 . S
C164 C163 1.366 . S
C164 C165 1.415 . S
C164 H226 0.932 . S
C165 C164 1.415 . S
C165 C166 1.366 . S
C165 H227 0.931 . S
C166 C165 1.366 . S
C166 N167 1.325 . S
C166 C168 1.516 . S
N167 C162 1.330 . S
N167 C166 1.325 . S
N167 Co183 1.869 . S
C168 C166 1.516 . S
C168 N192 1.316 . S
C168 O215 1.263 . S
C169 C170 1.421 . S
C169 C174 1.360 . S
C169 N192 1.436 . S
C170 C169 1.421 . S
C170 C171 1.379 . S
C170 H228 0.929 . S
C171 C170 1.379 . S
C171 C172 1.417 . S
C172 C171 1.417 . S
C172 C173 1.352 . S
C172 H229 0.929 . S
C173 C172 1.352 . S
C173 C174 1.393 . S
C174 C169 1.360 . S
C174 C173 1.393 . S
C174 H230 0.931 . S
Cd175 O195 2.329 1_554 S
Cd175 O197 2.350 . S
Cd175 O198 2.277 . S
Cd175 O200 2.173 1_455 S
Cd175 O204 2.263 1_554 S
Cd175 O215 2.366 . S
Cd176 O194 2.352 1_455 S
Cd176 O201 2.250 . S
Cd176 O205 2.308 . S
C177 C181 1.403 . S
C177 C182 1.370 . S
C177 N193 1.423 . S
C178 C179 1.389 . S
C178 C182 1.389 . S
C179 C178 1.389 . S
C179 C180 1.379 . S
C179 H231 0.929 . S
C180 C179 1.379 . S
C180 C181 1.405 . S
C181 C177 1.403 . S
C181 C180 1.405 . S
C181 H232 0.932 . S
C182 C177 1.370 . S
C182 C178 1.389 . S
C182 H233 0.931 . S
Co183 N167 1.869 . S
Co183 N184 1.955 . S
Co183 N185 1.864 . S
Co183 N191 1.958 . S
Co183 N192 1.953 . S
Co183 N193 1.974 . S
N184 Co183 1.955 . S
N184 C202 1.329 . S
N184 C217 1.432 . S
N185 Co183 1.864 . S
N185 C186 1.327 . S
N185 C190 1.342 . S
C186 N185 1.327 . S
C186 C187 1.407 . S
C186 C202 1.481 . S
C187 C186 1.407 . S
C187 C188 1.364 . S
C187 H234 0.930 . S
C188 C187 1.364 . S
C188 C189 1.390 . S
C188 H235 0.931 . S
C189 C188 1.390 . S
C189 C190 1.346 . S
C189 H236 0.930 . S
C190 N185 1.342 . S
C190 C189 1.346 . S
C190 C206 1.516 . S
N191 Co183 1.958 . S
N191 C206 1.324 . S
N191 C208 1.427 . S
N192 C168 1.316 . S
N192 C169 1.436 . S
N192 Co183 1.953 . S
N193 C177 1.423 . S
N193 Co183 1.974 . S
N193 C223 1.309 . S
O194 Cd176 2.352 1_655 S
O194 C214 1.235 . S
O195 Cd175 2.329 1_556 S
O195 C214 1.270 1_455 S
C196 O197 1.270 . S
C196 O198 1.248 . S
O197 Cd175 2.350 . S
O197 C196 1.270 . S
O198 Cd175 2.277 . S
O198 C196 1.248 . S
C199 O200 1.277 1_556 S
C199 O201 1.230 1_655 S
O200 Cd175 2.173 1_655 S
O200 C199 1.277 1_554 S
O201 Cd176 2.250 . S
O201 C199 1.230 1_455 S
C202 N184 1.329 . S
C202 C186 1.481 . S
C202 O203 1.246 . S
O203 C202 1.246 . S
O204 Cd175 2.263 1_556 S
O204 C216 1.258 . S
O205 Cd176 2.308 . S
O205 C216 1.274 . S
C206 C190 1.516 . S
C206 N191 1.324 . S
C206 O207 1.238 . S
O207 C206 1.238 . S
C208 N191 1.427 . S
C208 C209 1.394 . S
C208 C213 1.395 . S
C209 C208 1.394 . S
C209 C210 1.380 1_554 S
C209 H237 0.929 . S
C210 C209 1.380 1_556 S
C210 C211 1.384 . S
C210 C216 1.495 . S
C211 C210 1.384 . S
C211 C212 1.382 1_556 S
C211 H238 0.930 . S
C212 C211 1.382 1_554 S
C212 C213 1.398 . S
C213 C208 1.395 . S
C213 C212 1.398 . S
C213 H239 0.930 . S
C214 O194 1.235 . S
C214 O195 1.270 1_655 S
O215 C168 1.263 . S
O215 Cd175 2.366 . S
C216 O204 1.258 . S
C216 O205 1.274 . S
C216 C210 1.495 . S
C217 N184 1.432 . S
C217 C218 1.381 . S
C217 C222 1.385 . S
C218 C217 1.381 . S
C218 C219 1.371 . S
C218 H240 0.932 . S
C219 C218 1.371 . S
C219 C220 1.400 1_455 S
C220 C219 1.400 1_655 S
C220 C221 1.351 1_655 S
C220 H241 0.930 . S
C221 C220 1.351 1_455 S
C221 C222 1.388 . S
C222 C217 1.385 . S
C222 C221 1.388 . S
C222 H242 0.929 . S
C223 C162 1.504 . S
C223 N193 1.309 . S
C223 O224 1.258 . S
O224 C223 1.258 . S
H225 C163 0.929 . S
H226 C164 0.932 . S
H227 C165 0.931 . S
H228 C170 0.929 . S
H229 C172 0.929 . S
H230 C174 0.931 . S
H231 C179 0.929 . S
H232 C181 0.932 . S
H233 C182 0.931 . S
H234 C187 0.930 . S
H235 C188 0.931 . S
H236 C189 0.930 . S
H237 C209 0.929 . S
H238 C211 0.930 . S
H239 C213 0.930 . S
H240 C218 0.932 . S
H241 C220 0.930 . S
H242 C222 0.929 . S
C243 C244 1.359 . S
C243 N248 1.330 . S
C243 C304 1.504 . S
C244 C243 1.359 . S
C244 C245 1.366 . S
C244 H306 0.929 . S
C245 C244 1.366 . S
C245 C246 1.415 . S
C245 H307 0.932 . S
C246 C245 1.415 . S
C246 C247 1.366 . S
C246 H308 0.931 . S
C247 C246 1.366 . S
C247 N248 1.325 . S
C247 C249 1.516 . S
N248 C243 1.330 . S
N248 C247 1.325 . S
N248 Co264 1.869 . S
C249 C247 1.516 . S
C249 N273 1.316 . S
C249 O296 1.263 . S
C250 C251 1.421 . S
C250 C255 1.360 . S
C250 N273 1.436 . S
C251 C250 1.421 . S
C251 C252 1.379 . S
C251 H309 0.929 . S
C252 C251 1.379 . S
C252 C253 1.417 . S
C253 C252 1.417 . S
C253 C254 1.352 . S
C253 H310 0.929 . S
C254 C253 1.352 . S
C254 C255 1.393 . S
C255 C250 1.360 . S
C255 C254 1.393 . S
C255 H311 0.931 . S
Cd256 O276 2.329 1_556 S
Cd256 O278 2.350 . S
Cd256 O279 2.277 . S
Cd256 O281 2.173 . S
Cd256 O285 2.263 1_556 S
Cd256 O296 2.366 . S
Cd257 O275 2.352 . S
Cd257 O282 2.250 . S
Cd257 O286 2.308 . S
C258 C262 1.403 . S
C258 C263 1.370 . S
C258 N274 1.423 . S
C259 C260 1.389 . S
C259 C263 1.389 . S
C260 C259 1.389 . S
C260 C261 1.379 . S
C260 H312 0.929 . S
C261 C260 1.379 . S
C261 C262 1.405 . S
C262 C258 1.403 . S
C262 C261 1.405 . S
C262 H313 0.932 . S
C263 C258 1.370 . S
C263 C259 1.389 . S
C263 H314 0.931 . S
Co264 N248 1.869 . S
Co264 N265 1.955 . S
Co264 N266 1.864 . S
Co264 N272 1.958 . S
Co264 N273 1.953 . S
Co264 N274 1.974 . S
N265 Co264 1.955 . S
N265 C283 1.329 . S
N265 C298 1.432 . S
N266 Co264 1.864 . S
N266 C267 1.327 . S
N266 C271 1.342 . S
C267 N266 1.327 . S
C267 C268 1.407 . S
C267 C283 1.481 . S
C268 C267 1.407 . S
C268 C269 1.364 . S
C268 H315 0.930 . S
C269 C268 1.364 . S
C269 C270 1.390 . S
C269 H316 0.931 . S
C270 C269 1.390 . S
C270 C271 1.346 . S
C270 H317 0.930 . S
C271 N266 1.342 . S
C271 C270 1.346 . S
C271 C287 1.516 . S
N272 Co264 1.958 . S
N272 C287 1.324 . S
N272 C289 1.427 . S
N273 C249 1.316 . S
N273 C250 1.436 . S
N273 Co264 1.953 . S
N274 C258 1.423 . S
N274 Co264 1.974 . S
N274 C304 1.309 . S
O275 Cd257 2.352 . S
O275 C295 1.235 . S
O276 Cd256 2.329 1_554 S
O276 C295 1.270 . S
C277 O278 1.270 . S
C277 O279 1.248 . S
O278 Cd256 2.350 . S
O278 C277 1.270 . S
O279 Cd256 2.277 . S
O279 C277 1.248 . S
C280 O281 1.277 1_554 S
C280 O282 1.230 . S
O281 Cd256 2.173 . S
O281 C280 1.277 1_556 S
O282 Cd257 2.250 . S
O282 C280 1.230 . S
C283 N265 1.329 . S
C283 C267 1.481 . S
C283 O284 1.246 . S
O284 C283 1.246 . S
O285 Cd256 2.263 1_554 S
O285 C297 1.258 . S
O286 Cd257 2.308 . S
O286 C297 1.274 . S
C287 C271 1.516 . S
C287 N272 1.324 . S
C287 O288 1.238 . S
O288 C287 1.238 . S
C289 N272 1.427 . S
C289 C290 1.394 . S
C289 C294 1.395 . S
C290 C289 1.394 . S
C290 C291 1.380 1_556 S
C290 H318 0.929 . S
C291 C290 1.380 1_554 S
C291 C292 1.384 . S
C291 C297 1.495 . S
C292 C291 1.384 . S
C292 C293 1.382 1_554 S
C292 H319 0.930 . S
C293 C292 1.382 1_556 S
C293 C294 1.398 . S
C294 C289 1.395 . S
C294 C293 1.398 . S
C294 H320 0.930 . S
C295 O275 1.235 . S
C295 O276 1.270 . S
O296 C249 1.263 . S
O296 Cd256 2.366 . S
C297 O285 1.258 . S
C297 O286 1.274 . S
C297 C291 1.495 . S
C298 N265 1.432 . S
C298 C299 1.381 . S
C298 C303 1.385 . S
C299 C298 1.381 . S
C299 C300 1.371 . S
C299 H321 0.932 . S
C300 C299 1.371 . S
C300 C301 1.400 . S
C301 C300 1.400 . S
C301 C302 1.351 . S
C301 H322 0.930 . S
C302 C301 1.351 . S
C302 C303 1.388 . S
C303 C298 1.385 . S
C303 C302 1.388 . S
C303 H323 0.929 . S
C304 C243 1.504 . S
C304 N274 1.309 . S
C304 O305 1.258 . S
O305 C304 1.258 . S
H306 C244 0.929 . S
H307 C245 0.932 . S
H308 C246 0.931 . S
H309 C251 0.929 . S
H310 C253 0.929 . S
H311 C255 0.931 . S
H312 C260 0.929 . S
H313 C262 0.932 . S
H314 C263 0.931 . S
H315 C268 0.930 . S
H316 C269 0.931 . S
H317 C270 0.930 . S
H318 C290 0.929 . S
H319 C292 0.930 . S
H320 C294 0.930 . S
H321 C299 0.932 . S
H322 C301 0.930 . S
H323 C303 0.929 . S
C324 C325 1.359 . S
C324 N329 1.330 . S
C324 C385 1.504 . S
C325 C324 1.359 . S
C325 C326 1.366 . S
C325 H387 0.929 . S
C326 C325 1.366 . S
C326 C327 1.415 . S
C326 H388 0.932 . S
C327 C326 1.415 . S
C327 C328 1.366 . S
C327 H389 0.931 . S
C328 C327 1.366 . S
C328 N329 1.325 . S
C328 C330 1.516 . S
N329 C324 1.330 . S
N329 C328 1.325 . S
N329 Co345 1.869 . S
C330 C328 1.516 . S
C330 N354 1.316 . S
C330 O377 1.263 . S
C331 C332 1.421 . S
C331 C336 1.360 . S
C331 N354 1.436 . S
C332 C331 1.421 . S
C332 C333 1.379 . S
C332 H390 0.929 . S
C333 C332 1.379 . S
C333 C334 1.417 . S
C334 C333 1.417 . S
C334 C335 1.352 . S
C334 H391 0.929 . S
C335 C334 1.352 . S
C335 C336 1.393 . S
C336 C331 1.360 . S
C336 C335 1.393 . S
C336 H392 0.931 . S
Cd337 O357 2.329 1_556 S
Cd337 O359 2.350 . S
Cd337 O360 2.277 . S
Cd337 O362 2.173 1_545 S
Cd337 O366 2.263 1_556 S
Cd337 O377 2.366 . S
Cd338 O356 2.352 1_545 S
Cd338 O363 2.250 . S
Cd338 O367 2.308 . S
C339 C343 1.403 . S
C339 C344 1.370 . S
C339 N355 1.423 . S
C340 C341 1.389 . S
C340 C344 1.389 . S
C341 C340 1.389 . S
C341 C342 1.379 . S
C341 H393 0.929 . S
C342 C341 1.379 . S
C342 C343 1.405 . S
C343 C339 1.403 . S
C343 C342 1.405 . S
C343 H394 0.932 . S
C344 C339 1.370 . S
C344 C340 1.389 . S
C344 H395 0.931 . S
Co345 N329 1.869 . S
Co345 N346 1.955 . S
Co345 N347 1.864 . S
Co345 N353 1.958 . S
Co345 N354 1.953 . S
Co345 N355 1.974 . S
N346 Co345 1.955 . S
N346 C364 1.329 . S
N346 C379 1.432 . S
N347 Co345 1.864 . S
N347 C348 1.327 . S
N347 C352 1.342 . S
C348 N347 1.327 . S
C348 C349 1.407 . S
C348 C364 1.481 . S
C349 C348 1.407 . S
C349 C350 1.364 . S
C349 H396 0.930 . S
C350 C349 1.364 . S
C350 C351 1.390 . S
C350 H397 0.931 . S
C351 C350 1.390 . S
C351 C352 1.346 . S
C351 H398 0.930 . S
C352 N347 1.342 . S
C352 C351 1.346 . S
C352 C368 1.516 . S
N353 Co345 1.958 . S
N353 C368 1.324 . S
N353 C370 1.427 . S
N354 C330 1.316 . S
N354 C331 1.436 . S
N354 Co345 1.953 . S
N355 C339 1.423 . S
N355 Co345 1.974 . S
N355 C385 1.309 . S
O356 Cd338 2.352 1_565 S
O356 C376 1.235 . S
O357 Cd337 2.329 1_554 S
O357 C376 1.270 1_545 S
C358 O359 1.270 . S
C358 O360 1.248 . S
O359 Cd337 2.350 . S
O359 C358 1.270 . S
O360 Cd337 2.277 . S
O360 C358 1.248 . S
C361 O362 1.277 1_554 S
C361 O363 1.230 1_565 S
O362 Cd337 2.173 1_565 S
O362 C361 1.277 1_556 S
O363 Cd338 2.250 . S
O363 C361 1.230 1_545 S
C364 N346 1.329 . S
C364 C348 1.481 . S
C364 O365 1.246 . S
O365 C364 1.246 . S
O366 Cd337 2.263 1_554 S
O366 C378 1.258 . S
O367 Cd338 2.308 . S
O367 C378 1.274 . S
C368 C352 1.516 . S
C368 N353 1.324 . S
C368 O369 1.238 . S
O369 C368 1.238 . S
C370 N353 1.427 . S
C370 C371 1.394 . S
C370 C375 1.395 . S
C371 C370 1.394 . S
C371 C372 1.380 1_556 S
C371 H399 0.929 . S
C372 C371 1.380 1_554 S
C372 C373 1.384 . S
C372 C378 1.495 . S
C373 C372 1.384 . S
C373 C374 1.382 1_554 S
C373 H400 0.930 . S
C374 C373 1.382 1_556 S
C374 C375 1.398 . S
C375 C370 1.395 . S
C375 C374 1.398 . S
C375 H401 0.930 . S
C376 O356 1.235 . S
C376 O357 1.270 1_565 S
O377 C330 1.263 . S
O377 Cd337 2.366 . S
C378 O366 1.258 . S
C378 O367 1.274 . S
C378 C372 1.495 . S
C379 N346 1.432 . S
C379 C380 1.381 . S
C379 C384 1.385 . S
C380 C379 1.381 . S
C380 C381 1.371 . S
C380 H402 0.932 . S
C381 C380 1.371 . S
C381 C382 1.400 1_545 S
C382 C381 1.400 1_565 S
C382 C383 1.351 1_565 S
C382 H403 0.930 . S
C383 C382 1.351 1_545 S
C383 C384 1.388 . S
C384 C379 1.385 . S
C384 C383 1.388 . S
C384 H404 0.929 . S
C385 C324 1.504 . S
C385 N355 1.309 . S
C385 O386 1.258 . S
O386 C385 1.258 . S
H387 C325 0.929 . S
H388 C326 0.932 . S
H389 C327 0.931 . S
H390 C332 0.929 . S
H391 C334 0.929 . S
H392 C336 0.931 . S
H393 C341 0.929 . S
H394 C343 0.932 . S
H395 C344 0.931 . S
H396 C349 0.930 . S
H397 C350 0.931 . S
H398 C351 0.930 . S
H399 C371 0.929 . S
H400 C373 0.930 . S
H401 C375 0.930 . S
H402 C380 0.932 . S
H403 C382 0.930 . S
H404 C384 0.929 . S
C405 C406 1.359 . S
C405 N410 1.330 . S
C405 C466 1.504 . S
C406 C405 1.359 . S
C406 C407 1.366 . S
C406 H468 0.929 . S
C407 C406 1.366 . S
C407 C408 1.415 . S
C407 H469 0.932 . S
C408 C407 1.415 . S
C408 C409 1.366 . S
C408 H470 0.931 . S
C409 C408 1.366 . S
C409 N410 1.325 . S
C409 C411 1.516 . S
N410 C405 1.330 . S
N410 C409 1.325 . S
N410 Co426 1.869 . S
C411 C409 1.516 . S
C411 N435 1.316 . S
C411 O458 1.263 . S
C412 C413 1.421 . S
C412 C417 1.360 . S
C412 N435 1.436 . S
C413 C412 1.421 . S
C413 C414 1.379 . S
C413 H471 0.929 . S
C414 C413 1.379 . S
C414 C415 1.417 . S
C415 C414 1.417 . S
C415 C416 1.352 . S
C415 H472 0.929 . S
C416 C415 1.352 . S
C416 C417 1.393 . S
C417 C412 1.360 . S
C417 C416 1.393 . S
C417 H473 0.931 . S
Cd418 O438 2.329 1_556 S
Cd418 O440 2.350 . S
Cd418 O441 2.277 . S
Cd418 O443 2.173 1_655 S
Cd418 O447 2.263 1_556 S
Cd418 O458 2.366 . S
Cd419 O437 2.352 1_655 S
Cd419 O444 2.250 . S
Cd419 O448 2.308 . S
C420 C424 1.403 . S
C420 C425 1.370 . S
C420 N436 1.423 . S
C421 C422 1.389 . S
C421 C425 1.389 . S
C422 C421 1.389 . S
C422 C423 1.379 . S
C422 H474 0.929 . S
C423 C422 1.379 . S
C423 C424 1.405 . S
C424 C420 1.403 . S
C424 C423 1.405 . S
C424 H475 0.932 . S
C425 C420 1.370 . S
C425 C421 1.389 . S
C425 H476 0.931 . S
Co426 N410 1.869 . S
Co426 N427 1.955 . S
Co426 N428 1.864 . S
Co426 N434 1.958 . S
Co426 N435 1.953 . S
Co426 N436 1.974 . S
N427 Co426 1.955 . S
N427 C445 1.329 . S
N427 C460 1.432 . S
N428 Co426 1.864 . S
N428 C429 1.327 . S
N428 C433 1.342 . S
C429 N428 1.327 . S
C429 C430 1.407 . S
C429 C445 1.481 . S
C430 C429 1.407 . S
C430 C431 1.364 . S
C430 H477 0.930 . S
C431 C430 1.364 . S
C431 C432 1.390 . S
C431 H478 0.931 . S
C432 C431 1.390 . S
C432 C433 1.346 . S
C432 H479 0.930 . S
C433 N428 1.342 . S
C433 C432 1.346 . S
C433 C449 1.516 . S
N434 Co426 1.958 . S
N434 C449 1.324 . S
N434 C451 1.427 . S
N435 C411 1.316 . S
N435 C412 1.436 . S
N435 Co426 1.953 . S
N436 C420 1.423 . S
N436 Co426 1.974 . S
N436 C466 1.309 . S
O437 Cd419 2.352 1_455 S
O437 C457 1.235 . S
O438 Cd418 2.329 1_554 S
O438 C457 1.270 1_655 S
C439 O440 1.270 . S
C439 O441 1.248 . S
O440 Cd418 2.350 . S
O440 C439 1.270 . S
O441 Cd418 2.277 . S
O441 C439 1.248 . S
C442 O443 1.277 1_554 S
C442 O444 1.230 1_455 S
O443 Cd418 2.173 1_455 S
O443 C442 1.277 1_556 S
O444 Cd419 2.250 . S
O444 C442 1.230 1_655 S
C445 N427 1.329 . S
C445 C429 1.481 . S
C445 O446 1.246 . S
O446 C445 1.246 . S
O447 Cd418 2.263 1_554 S
O447 C459 1.258 . S
O448 Cd419 2.308 . S
O448 C459 1.274 . S
C449 C433 1.516 . S
C449 N434 1.324 . S
C449 O450 1.238 . S
O450 C449 1.238 . S
C451 N434 1.427 . S
C451 C452 1.394 . S
C451 C456 1.395 . S
C452 C451 1.394 . S
C452 C453 1.380 1_556 S
C452 H480 0.929 . S
C453 C452 1.380 1_554 S
C453 C454 1.384 . S
C453 C459 1.495 . S
C454 C453 1.384 . S
C454 C455 1.382 1_554 S
C454 H481 0.930 . S
C455 C454 1.382 1_556 S
C455 C456 1.398 . S
C456 C451 1.395 . S
C456 C455 1.398 . S
C456 H482 0.930 . S
C457 O437 1.235 . S
C457 O438 1.270 1_455 S
O458 C411 1.263 . S
O458 Cd418 2.366 . S
C459 O447 1.258 . S
C459 O448 1.274 . S
C459 C453 1.495 . S
C460 N427 1.432 . S
C460 C461 1.381 . S
C460 C465 1.385 . S
C461 C460 1.381 . S
C461 C462 1.371 . S
C461 H483 0.932 . S
C462 C461 1.371 . S
C462 C463 1.400 1_655 S
C463 C462 1.400 1_455 S
C463 C464 1.351 1_455 S
C463 H484 0.930 . S
C464 C463 1.351 1_655 S
C464 C465 1.388 . S
C465 C460 1.385 . S
C465 C464 1.388 . S
C465 H485 0.929 . S
C466 C405 1.504 . S
C466 N436 1.309 . S
C466 O467 1.258 . S
O467 C466 1.258 . S
H468 C406 0.929 . S
H469 C407 0.932 . S
H470 C408 0.931 . S
H471 C413 0.929 . S
H472 C415 0.929 . S
H473 C417 0.931 . S
H474 C422 0.929 . S
H475 C424 0.932 . S
H476 C425 0.931 . S
H477 C430 0.930 . S
H478 C431 0.931 . S
H479 C432 0.930 . S
H480 C452 0.929 . S
H481 C454 0.930 . S
H482 C456 0.930 . S
H483 C461 0.932 . S
H484 C463 0.930 . S
H485 C465 0.929 . S
C486 C487 1.359 . S
C486 N491 1.330 . S
C486 C547 1.504 . S
C487 C486 1.359 . S
C487 C488 1.366 . S
C487 H549 0.929 . S
C488 C487 1.366 . S
C488 C489 1.415 . S
C488 H550 0.932 . S
C489 C488 1.415 . S
C489 C490 1.366 . S
C489 H551 0.931 . S
C490 C489 1.366 . S
C490 N491 1.325 . S
C490 C492 1.516 . S
N491 C486 1.330 . S
N491 C490 1.325 . S
N491 Co507 1.869 . S
C492 C490 1.516 . S
C492 N516 1.316 . S
C492 O539 1.263 . S
C493 C494 1.421 . S
C493 C498 1.360 . S
C493 N516 1.436 . S
C494 C493 1.421 . S
C494 C495 1.379 1_655 S
C494 H552 0.929 . S
C495 C494 1.379 1_455 S
C495 C496 1.417 . S
C496 C495 1.417 . S
C496 C497 1.352 1_455 S
C496 H553 0.929 . S
C497 C496 1.352 1_655 S
C497 C498 1.393 . S
C498 C493 1.360 . S
C498 C497 1.393 . S
C498 H554 0.931 . S
Cd499 O519 2.329 1_655 S
Cd499 O521 2.350 1_655 S
Cd499 O522 2.277 1_655 S
Cd499 O524 2.173 . S
Cd499 O528 2.263 . S
Cd499 O539 2.366 . S
Cd500 O518 2.352 1_655 S
Cd500 O525 2.250 . S
Cd500 O529 2.308 . S
C501 C505 1.403 . S
C501 C506 1.370 . S
C501 N517 1.423 . S
C502 C503 1.389 . S
C502 C506 1.389 . S
C503 C502 1.389 . S
C503 C504 1.379 . S
C503 H555 0.929 . S
C504 C503 1.379 . S
C504 C505 1.405 . S
C505 C501 1.403 . S
C505 C504 1.405 . S
C505 H556 0.932 . S
C506 C501 1.370 . S
C506 C502 1.389 . S
C506 H557 0.931 . S
Co507 N491 1.869 . S
Co507 N508 1.955 . S
Co507 N509 1.864 . S
Co507 N515 1.958 . S
Co507 N516 1.953 . S
Co507 N517 1.974 . S
N508 Co507 1.955 . S
N508 C526 1.329 . S
N508 C541 1.432 . S
N509 Co507 1.864 . S
N509 C510 1.327 . S
N509 C514 1.342 . S
C510 N509 1.327 . S
C510 C511 1.407 . S
C510 C526 1.481 . S
C511 C510 1.407 . S
C511 C512 1.364 . S
C511 H558 0.930 . S
C512 C511 1.364 . S
C512 C513 1.390 . S
C512 H559 0.931 . S
C513 C512 1.390 . S
C513 C514 1.346 . S
C513 H560 0.930 . S
C514 N509 1.342 . S
C514 C513 1.346 . S
C514 C530 1.516 . S
N515 Co507 1.958 . S
N515 C530 1.324 . S
N515 C532 1.427 . S
N516 C492 1.316 . S
N516 C493 1.436 . S
N516 Co507 1.953 . S
N517 C501 1.423 . S
N517 Co507 1.974 . S
N517 C547 1.309 . S
O518 Cd500 2.352 1_455 S
O518 C538 1.235 . S
O519 Cd499 2.329 1_455 S
O519 C538 1.270 . S
C520 O521 1.270 . S
C520 O522 1.248 . S
O521 Cd499 2.350 1_455 S
O521 C520 1.270 . S
O522 Cd499 2.277 1_455 S
O522 C520 1.248 . S
C523 O524 1.277 . S
C523 O525 1.230 . S
O524 Cd499 2.173 . S
O524 C523 1.277 . S
O525 Cd500 2.250 . S
O525 C523 1.230 . S
C526 N508 1.329 . S
C526 C510 1.481 . S
C526 O527 1.246 . S
O527 C526 1.246 . S
O528 Cd499 2.263 . S
O528 C540 1.258 . S
O529 Cd500 2.308 . S
O529 C540 1.274 . S
C530 C514 1.516 . S
C530 N515 1.324 . S
C530 O531 1.238 . S
O531 C530 1.238 . S
C532 N515 1.427 . S
C532 C533 1.394 . S
C532 C537 1.395 . S
C533 C532 1.394 . S
C533 C534 1.380 . S
C533 H561 0.929 . S
C534 C533 1.380 . S
C534 C535 1.384 . S
C534 C540 1.495 . S
C535 C534 1.384 . S
C535 C536 1.382 . S
C535 H562 0.930 . S
C536 C535 1.382 . S
C536 C537 1.398 . S
C537 C532 1.395 . S
C537 C536 1.398 . S
C537 H563 0.930 . S
C538 O518 1.235 . S
C538 O519 1.270 . S
O539 C492 1.263 . S
O539 Cd499 2.366 . S
C540 O528 1.258 . S
C540 O529 1.274 . S
C540 C534 1.495 . S
C541 N508 1.432 . S
C541 C542 1.381 . S
C541 C546 1.385 . S
C542 C541 1.381 . S
C542 C543 1.371 . S
C542 H564 0.932 . S
C543 C542 1.371 . S
C543 C544 1.400 . S
C544 C543 1.400 . S
C544 C545 1.351 . S
C544 H565 0.930 . S
C545 C544 1.351 . S
C545 C546 1.388 . S
C546 C541 1.385 . S
C546 C545 1.388 . S
C546 H566 0.929 . S
C547 C486 1.504 . S
C547 N517 1.309 . S
C547 O548 1.258 . S
O548 C547 1.258 . S
H549 C487 0.929 . S
H550 C488 0.932 . S
H551 C489 0.931 . S
H552 C494 0.929 . S
H553 C496 0.929 . S
H554 C498 0.931 . S
H555 C503 0.929 . S
H556 C505 0.932 . S
H557 C506 0.931 . S
H558 C511 0.930 . S
H559 C512 0.931 . S
H560 C513 0.930 . S
H561 C533 0.929 . S
H562 C535 0.930 . S
H563 C537 0.930 . S
H564 C542 0.932 . S
H565 C544 0.930 . S
H566 C546 0.929 . S
C567 C568 1.359 . S
C567 N572 1.330 . S
C567 C628 1.504 . S
C568 C567 1.359 . S
C568 C569 1.366 . S
C568 H630 0.929 . S
C569 C568 1.366 . S
C569 C570 1.415 . S
C569 H631 0.932 . S
C570 C569 1.415 . S
C570 C571 1.366 . S
C570 H632 0.931 . S
C571 C570 1.366 . S
C571 N572 1.325 . S
C571 C573 1.516 . S
N572 C567 1.330 . S
N572 C571 1.325 . S
N572 Co588 1.869 . S
C573 C571 1.516 . S
C573 N597 1.316 . S
C573 O620 1.263 . S
C574 C575 1.421 . S
C574 C579 1.360 . S
C574 N597 1.436 . S
C575 C574 1.421 . S
C575 C576 1.379 . S
C575 H633 0.929 . S
C576 C575 1.379 . S
C576 C577 1.417 . S
C577 C576 1.417 . S
C577 C578 1.352 . S
C577 H634 0.929 . S
C578 C577 1.352 . S
C578 C579 1.393 . S
C579 C574 1.360 . S
C579 C578 1.393 . S
C579 H635 0.931 . S
Cd580 O600 2.329 . S
Cd580 O602 2.350 . S
Cd580 O603 2.277 . S
Cd580 O605 2.173 . S
Cd580 O609 2.263 . S
Cd580 O620 2.366 . S
Cd581 O599 2.352 . S
Cd581 O606 2.250 . S
Cd581 O610 2.308 . S
C582 C586 1.403 . S
C582 C587 1.370 . S
C582 N598 1.423 . S
C583 C584 1.389 . S
C583 C587 1.389 . S
C584 C583 1.389 . S
C584 C585 1.379 . S
C584 H636 0.929 . S
C585 C584 1.379 . S
C585 C586 1.405 . S
C586 C582 1.403 . S
C586 C585 1.405 . S
C586 H637 0.932 . S
C587 C582 1.370 . S
C587 C583 1.389 . S
C587 H638 0.931 . S
Co588 N572 1.869 . S
Co588 N589 1.955 . S
Co588 N590 1.864 . S
Co588 N596 1.958 . S
Co588 N597 1.953 . S
Co588 N598 1.974 . S
N589 Co588 1.955 . S
N589 C607 1.329 . S
N589 C622 1.432 . S
N590 Co588 1.864 . S
N590 C591 1.327 . S
N590 C595 1.342 . S
C591 N590 1.327 . S
C591 C592 1.407 . S
C591 C607 1.481 . S
C592 C591 1.407 . S
C592 C593 1.364 . S
C592 H639 0.930 . S
C593 C592 1.364 . S
C593 C594 1.390 . S
C593 H640 0.931 . S
C594 C593 1.390 . S
C594 C595 1.346 . S
C594 H641 0.930 . S
C595 N590 1.342 . S
C595 C594 1.346 . S
C595 C611 1.516 . S
N596 Co588 1.958 . S
N596 C611 1.324 . S
N596 C613 1.427 . S
N597 C573 1.316 . S
N597 C574 1.436 . S
N597 Co588 1.953 . S
N598 C582 1.423 . S
N598 Co588 1.974 . S
N598 C628 1.309 . S
O599 Cd581 2.352 . S
O599 C619 1.235 . S
O600 Cd580 2.329 . S
O600 C619 1.270 . S
C601 O602 1.270 . S
C601 O603 1.248 . S
O602 Cd580 2.350 . S
O602 C601 1.270 . S
O603 Cd580 2.277 . S
O603 C601 1.248 . S
C604 O605 1.277 . S
C604 O606 1.230 . S
O605 Cd580 2.173 . S
O605 C604 1.277 . S
O606 Cd581 2.250 . S
O606 C604 1.230 . S
C607 N589 1.329 . S
C607 C591 1.481 . S
C607 O608 1.246 . S
O608 C607 1.246 . S
O609 Cd580 2.263 . S
O609 C621 1.258 . S
O610 Cd581 2.308 . S
O610 C621 1.274 . S
C611 C595 1.516 . S
C611 N596 1.324 . S
C611 O612 1.238 . S
O612 C611 1.238 . S
C613 N596 1.427 . S
C613 C614 1.394 . S
C613 C618 1.395 . S
C614 C613 1.394 . S
C614 C615 1.380 . S
C614 H642 0.929 . S
C615 C614 1.380 . S
C615 C616 1.384 . S
C615 C621 1.495 . S
C616 C615 1.384 . S
C616 C617 1.382 . S
C616 H643 0.930 . S
C617 C616 1.382 . S
C617 C618 1.398 . S
C618 C613 1.395 . S
C618 C617 1.398 . S
C618 H644 0.930 . S
C619 O599 1.235 . S
C619 O600 1.270 . S
O620 C573 1.263 . S
O620 Cd580 2.366 . S
C621 O609 1.258 . S
C621 O610 1.274 . S
C621 C615 1.495 . S
C622 N589 1.432 . S
C622 C623 1.381 . S
C622 C627 1.385 . S
C623 C622 1.381 . S
C623 C624 1.371 . S
C623 H645 0.932 . S
C624 C623 1.371 . S
C624 C625 1.400 . S
C625 C624 1.400 . S
C625 C626 1.351 . S
C625 H646 0.930 . S
C626 C625 1.351 . S
C626 C627 1.388 . S
C627 C622 1.385 . S
C627 C626 1.388 . S
C627 H647 0.929 . S
C628 C567 1.504 . S
C628 N598 1.309 . S
C628 O629 1.258 . S
O629 C628 1.258 . S
H630 C568 0.929 . S
H631 C569 0.932 . S
H632 C570 0.931 . S
H633 C575 0.929 . S
H634 C577 0.929 . S
H635 C579 0.931 . S
H636 C584 0.929 . S
H637 C586 0.932 . S
H638 C587 0.931 . S
H639 C592 0.930 . S
H640 C593 0.931 . S
H641 C594 0.930 . S
H642 C614 0.929 . S
H643 C616 0.930 . S
H644 C618 0.930 . S
H645 C623 0.932 . S
H646 C625 0.930 . S
H647 C627 0.929 . S
C648 C649 1.359 . S
C648 N653 1.330 . S
C648 C709 1.504 . S
C649 C648 1.359 . S
C649 C650 1.366 . S
C649 H711 0.929 . S
C650 C649 1.366 . S
C650 C651 1.415 . S
C650 H712 0.932 . S
C651 C650 1.415 . S
C651 C652 1.366 . S
C651 H713 0.931 . S
C652 C651 1.366 . S
C652 N653 1.325 . S
C652 C654 1.516 . S
N653 C648 1.330 . S
N653 C652 1.325 . S
N653 Co669 1.869 . S
C654 C652 1.516 . S
C654 N678 1.316 . S
C654 O701 1.263 . S
C655 C656 1.421 . S
C655 C660 1.360 . S
C655 N678 1.436 . S
C656 C655 1.421 . S
C656 C657 1.379 1_545 S
C656 H714 0.929 . S
C657 C656 1.379 1_565 S
C657 C658 1.417 . S
C658 C657 1.417 . S
C658 C659 1.352 1_565 S
C658 H715 0.929 . S
C659 C658 1.352 1_545 S
C659 C660 1.393 . S
C660 C655 1.360 . S
C660 C659 1.393 . S
C660 H716 0.931 . S
Cd661 O681 2.329 1_545 S
Cd661 O683 2.350 1_545 S
Cd661 O684 2.277 1_545 S
Cd661 O686 2.173 . S
Cd661 O690 2.263 . S
Cd661 O701 2.366 . S
Cd662 O680 2.352 1_545 S
Cd662 O687 2.250 . S
Cd662 O691 2.308 . S
C663 C667 1.403 . S
C663 C668 1.370 . S
C663 N679 1.423 . S
C664 C665 1.389 . S
C664 C668 1.389 . S
C665 C664 1.389 . S
C665 C666 1.379 . S
C665 H717 0.929 . S
C666 C665 1.379 . S
C666 C667 1.405 . S
C667 C663 1.403 . S
C667 C666 1.405 . S
C667 H718 0.932 . S
C668 C663 1.370 . S
C668 C664 1.389 . S
C668 H719 0.931 . S
Co669 N653 1.869 . S
Co669 N670 1.955 . S
Co669 N671 1.864 . S
Co669 N677 1.958 . S
Co669 N678 1.953 . S
Co669 N679 1.974 . S
N670 Co669 1.955 . S
N670 C688 1.329 . S
N670 C703 1.432 . S
N671 Co669 1.864 . S
N671 C672 1.327 . S
N671 C676 1.342 . S
C672 N671 1.327 . S
C672 C673 1.407 . S
C672 C688 1.481 . S
C673 C672 1.407 . S
C673 C674 1.364 . S
C673 H720 0.930 . S
C674 C673 1.364 . S
C674 C675 1.390 . S
C674 H721 0.931 . S
C675 C674 1.390 . S
C675 C676 1.346 . S
C675 H722 0.930 . S
C676 N671 1.342 . S
C676 C675 1.346 . S
C676 C692 1.516 . S
N677 Co669 1.958 . S
N677 C692 1.324 . S
N677 C694 1.427 . S
N678 C654 1.316 . S
N678 C655 1.436 . S
N678 Co669 1.953 . S
N679 C663 1.423 . S
N679 Co669 1.974 . S
N679 C709 1.309 . S
O680 Cd662 2.352 1_565 S
O680 C700 1.235 . S
O681 Cd661 2.329 1_565 S
O681 C700 1.270 . S
C682 O683 1.270 . S
C682 O684 1.248 . S
O683 Cd661 2.350 1_565 S
O683 C682 1.270 . S
O684 Cd661 2.277 1_565 S
O684 C682 1.248 . S
C685 O686 1.277 . S
C685 O687 1.230 . S
O686 Cd661 2.173 . S
O686 C685 1.277 . S
O687 Cd662 2.250 . S
O687 C685 1.230 . S
C688 N670 1.329 . S
C688 C672 1.481 . S
C688 O689 1.246 . S
O689 C688 1.246 . S
O690 Cd661 2.263 . S
O690 C702 1.258 . S
O691 Cd662 2.308 . S
O691 C702 1.274 . S
C692 C676 1.516 . S
C692 N677 1.324 . S
C692 O693 1.238 . S
O693 C692 1.238 . S
C694 N677 1.427 . S
C694 C695 1.394 . S
C694 C699 1.395 . S
C695 C694 1.394 . S
C695 C696 1.380 . S
C695 H723 0.929 . S
C696 C695 1.380 . S
C696 C697 1.384 . S
C696 C702 1.495 . S
C697 C696 1.384 . S
C697 C698 1.382 . S
C697 H724 0.930 . S
C698 C697 1.382 . S
C698 C699 1.398 . S
C699 C694 1.395 . S
C699 C698 1.398 . S
C699 H725 0.930 . S
C700 O680 1.235 . S
C700 O681 1.270 . S
O701 C654 1.263 . S
O701 Cd661 2.366 . S
C702 O690 1.258 . S
C702 O691 1.274 . S
C702 C696 1.495 . S
C703 N670 1.432 . S
C703 C704 1.381 . S
C703 C708 1.385 . S
C704 C703 1.381 . S
C704 C705 1.371 . S
C704 H726 0.932 . S
C705 C704 1.371 . S
C705 C706 1.400 . S
C706 C705 1.400 . S
C706 C707 1.351 . S
C706 H727 0.930 . S
C707 C706 1.351 . S
C707 C708 1.388 . S
C708 C703 1.385 . S
C708 C707 1.388 . S
C708 H728 0.929 . S
C709 C648 1.504 . S
C709 N679 1.309 . S
C709 O710 1.258 . S
O710 C709 1.258 . S
H711 C649 0.929 . S
H712 C650 0.932 . S
H713 C651 0.931 . S
H714 C656 0.929 . S
H715 C658 0.929 . S
H716 C660 0.931 . S
H717 C665 0.929 . S
H718 C667 0.932 . S
H719 C668 0.931 . S
H720 C673 0.930 . S
H721 C674 0.931 . S
H722 C675 0.930 . S
H723 C695 0.929 . S
H724 C697 0.930 . S
H725 C699 0.930 . S
H726 C704 0.932 . S
H727 C706 0.930 . S
H728 C708 0.929 . S
C729 C730 1.359 . S
C729 N734 1.330 . S
C729 C790 1.504 . S
C730 C729 1.359 . S
C730 C731 1.366 . S
C730 H792 0.929 . S
C731 C730 1.366 . S
C731 C732 1.415 . S
C731 H793 0.932 . S
C732 C731 1.415 . S
C732 C733 1.366 . S
C732 H794 0.931 . S
C733 C732 1.366 . S
C733 N734 1.325 . S
C733 C735 1.496 1_545 S
N734 C729 1.330 . S
N734 C733 1.325 . S
N734 Co750 1.869 1_545 S
C735 C733 1.496 1_565 S
C735 N759 1.345 . S
C735 O782 1.253 . S
C736 C737 1.421 . S
C736 C741 1.360 . S
C736 N759 1.436 . S
C737 C736 1.421 . S
C737 C738 1.379 . S
C737 H795 0.929 . S
C738 C737 1.379 . S
C738 C739 1.417 . S
C739 C738 1.417 . S
C739 C740 1.352 . S
C739 H796 0.929 . S
C740 C739 1.352 . S
C740 C741 1.393 . S
C741 C736 1.360 . S
C741 C740 1.393 . S
C741 H797 0.931 . S
Cd742 O762 2.329 . S
Cd742 O764 2.350 . S
Cd742 O765 2.277 . S
Cd742 O767 2.173 1_565 S
Cd742 O771 2.263 . S
Cd742 O782 2.366 . S
Cd743 O761 2.352 . S
Cd743 O768 2.250 . S
Cd743 O772 2.308 . S
C744 C748 1.403 . S
C744 C749 1.370 1_545 S
C744 N760 1.423 . S
C745 C746 1.389 1_565 S
C745 C749 1.389 . S
C746 C745 1.389 1_545 S
C746 C747 1.379 . S
C746 H798 0.929 1_545 S
C747 C746 1.379 . S
C747 C748 1.405 . S
C748 C744 1.403 . S
C748 C747 1.405 . S
C748 H799 0.932 . S
C749 C744 1.370 1_565 S
C749 C745 1.389 . S
C749 H800 0.931 . S
Co750 N734 1.869 1_565 S
Co750 N751 1.955 1_565 S
Co750 N752 1.864 . S
Co750 N758 1.958 . S
Co750 N759 1.953 . S
Co750 N760 1.974 1_565 S
N751 Co750 1.955 1_545 S
N751 C769 1.329 1_545 S
N751 C784 1.432 . S
N752 Co750 1.864 . S
N752 C753 1.327 . S
N752 C757 1.342 . S
C753 N752 1.327 . S
C753 C754 1.407 . S
C753 C769 1.481 . S
C754 C753 1.407 . S
C754 C755 1.364 . S
C754 H801 0.930 . S
C755 C754 1.364 . S
C755 C756 1.390 . S
C755 H802 0.931 . S
C756 C755 1.390 . S
C756 C757 1.346 . S
C756 H803 0.930 . S
C757 N752 1.342 . S
C757 C756 1.346 . S
C757 C773 1.516 . S
N758 Co750 1.958 . S
N758 C773 1.324 . S
N758 C775 1.427 . S
N759 C735 1.345 . S
N759 C736 1.436 . S
N759 Co750 1.953 . S
N760 C744 1.423 . S
N760 Co750 1.974 1_545 S
N760 C790 1.309 . S
O761 Cd743 2.352 . S
O761 C781 1.235 1_545 S
O762 Cd742 2.329 . S
O762 C781 1.270 . S
C763 O764 1.270 . S
C763 O765 1.248 . S
O764 Cd742 2.350 . S
O764 C763 1.270 . S
O765 Cd742 2.277 . S
O765 C763 1.248 . S
C766 O767 1.277 . S
C766 O768 1.230 . S
O767 Cd742 2.173 1_545 S
O767 C766 1.277 . S
O768 Cd743 2.250 . S
O768 C766 1.230 . S
C769 N751 1.329 1_565 S
C769 C753 1.481 . S
C769 O770 1.246 . S
O770 C769 1.246 . S
O771 Cd742 2.263 . S
O771 C783 1.258 1_565 S
O772 Cd743 2.308 . S
O772 C783 1.272 . S
C773 C757 1.516 . S
C773 N758 1.324 . S
C773 O774 1.238 . S
O774 C773 1.238 . S
C775 N758 1.427 . S
C775 C776 1.394 . S
C775 C780 1.395 1_565 S
C776 C775 1.394 . S
C776 C777 1.380 1_565 S
C776 H804 0.929 . S
C777 C776 1.380 1_545 S
C777 C778 1.384 . S
C777 C783 1.496 . S
C778 C777 1.384 . S
C778 C779 1.382 . S
C778 H805 0.930 . S
C779 C778 1.382 . S
C779 C780 1.398 . S
C780 C775 1.395 1_545 S
C780 C779 1.398 . S
C780 H806 0.930 . S
C781 O761 1.235 1_565 S
C781 O762 1.270 . S
O782 C735 1.253 . S
O782 Cd742 2.366 . S
C783 O771 1.258 1_545 S
C783 O772 1.272 . S
C783 C777 1.496 . S
C784 N751 1.432 . S
C784 C785 1.381 . S
C784 C789 1.385 . S
C785 C784 1.381 . S
C785 C786 1.371 . S
C785 H807 0.932 . S
C786 C785 1.371 . S
C786 C787 1.400 . S
C787 C786 1.400 . S
C787 C788 1.351 . S
C787 H808 0.930 . S
C788 C787 1.351 . S
C788 C789 1.388 . S
C789 C784 1.385 . S
C789 C788 1.388 . S
C789 H809 0.911 1_545 S
C790 C729 1.504 . S
C790 N760 1.309 . S
C790 O791 1.258 . S
O791 C790 1.258 . S
H792 C730 0.929 . S
H793 C731 0.932 . S
H794 C732 0.931 . S
H795 C737 0.929 . S
H796 C739 0.929 . S
H797 C741 0.931 . S
H798 C746 0.929 1_565 S
H799 C748 0.932 . S
H800 C749 0.931 . S
H801 C754 0.930 . S
H802 C755 0.931 . S
H803 C756 0.930 . S
H804 C776 0.929 . S
H805 C778 0.930 . S
H806 C780 0.930 . S
H807 C785 0.932 . S
H808 C787 0.930 . S
H809 C789 0.911 1_565 S
C810 C811 1.359 . S
C810 N815 1.330 . S
C810 C871 1.504 . S
C811 C810 1.359 . S
C811 C812 1.366 . S
C811 H873 0.929 . S
C812 C811 1.366 . S
C812 C813 1.415 . S
C812 H874 0.932 . S
C813 C812 1.415 . S
C813 C814 1.366 . S
C813 H875 0.931 . S
C814 C813 1.366 . S
C814 N815 1.325 . S
C814 C816 1.482 1_655 S
N815 C810 1.330 . S
N815 C814 1.325 . S
N815 Co831 1.869 1_655 S
C816 C814 1.482 1_455 S
C816 N840 1.325 . S
C816 O863 1.284 . S
C817 C818 1.421 . S
C817 C822 1.360 . S
C817 N840 1.436 . S
C818 C817 1.421 . S
C818 C819 1.379 . S
C818 H876 0.929 . S
C819 C818 1.379 . S
C819 C820 1.417 . S
C820 C819 1.417 . S
C820 C821 1.352 . S
C820 H877 0.929 . S
C821 C820 1.352 . S
C821 C822 1.393 . S
C822 C817 1.360 . S
C822 C821 1.393 . S
C822 H878 0.931 . S
Cd823 O843 2.329 . S
Cd823 O845 2.350 . S
Cd823 O846 2.277 . S
Cd823 O848 2.173 1_455 S
Cd823 O852 2.263 . S
Cd823 O863 2.366 . S
Cd824 O842 2.352 . S
Cd824 O849 2.250 . S
Cd824 O853 2.308 . S
C825 C829 1.403 . S
C825 C830 1.370 1_655 S
C825 N841 1.423 . S
C826 C827 1.389 1_455 S
C826 C830 1.389 . S
C827 C826 1.389 1_655 S
C827 C828 1.379 . S
C827 H879 0.929 1_655 S
C828 C827 1.379 . S
C828 C829 1.405 . S
C829 C825 1.403 . S
C829 C828 1.405 . S
C829 H880 0.932 . S
C830 C825 1.370 1_455 S
C830 C826 1.389 . S
C830 H881 0.931 . S
Co831 N815 1.869 1_455 S
Co831 N832 1.955 1_455 S
Co831 N833 1.864 . S
Co831 N839 1.958 . S
Co831 N840 1.953 . S
Co831 N841 1.974 1_455 S
N832 Co831 1.955 1_655 S
N832 C850 1.329 1_655 S
N832 C865 1.432 . S
N833 Co831 1.864 . S
N833 C834 1.327 . S
N833 C838 1.342 . S
C834 N833 1.327 . S
C834 C835 1.407 . S
C834 C850 1.481 . S
C835 C834 1.407 . S
C835 C836 1.364 . S
C835 H882 0.930 . S
C836 C835 1.364 . S
C836 C837 1.390 . S
C836 H883 0.931 . S
C837 C836 1.390 . S
C837 C838 1.346 . S
C837 H884 0.930 . S
C838 N833 1.342 . S
C838 C837 1.346 . S
C838 C854 1.516 . S
N839 Co831 1.958 . S
N839 C854 1.324 . S
N839 C856 1.427 . S
N840 C816 1.325 . S
N840 C817 1.436 . S
N840 Co831 1.953 . S
N841 C825 1.423 . S
N841 Co831 1.974 1_655 S
N841 C871 1.309 . S
O842 Cd824 2.352 . S
O842 C862 1.235 1_655 S
O843 Cd823 2.329 . S
O843 C862 1.270 . S
C844 O845 1.270 . S
C844 O846 1.248 . S
O845 Cd823 2.350 . S
O845 C844 1.270 . S
O846 Cd823 2.277 . S
O846 C844 1.248 . S
C847 O848 1.277 . S
C847 O849 1.230 . S
O848 Cd823 2.173 1_655 S
O848 C847 1.277 . S
O849 Cd824 2.250 . S
O849 C847 1.230 . S
C850 N832 1.329 1_455 S
C850 C834 1.481 . S
C850 O851 1.246 . S
O851 C850 1.246 . S
O852 Cd823 2.263 . S
O852 C864 1.255 . S
O853 Cd824 2.308 . S
O853 C864 1.275 1_655 S
C854 C838 1.516 . S
C854 N839 1.324 . S
C854 O855 1.238 . S
O855 C854 1.238 . S
C856 N839 1.427 . S
C856 C857 1.394 . S
C856 C861 1.395 1_455 S
C857 C856 1.394 . S
C857 C858 1.380 1_455 S
C857 H885 0.929 . S
C858 C857 1.380 1_655 S
C858 C859 1.384 . S
C858 C864 1.496 1_655 S
C859 C858 1.384 . S
C859 C860 1.382 . S
C859 H886 0.930 . S
C860 C859 1.382 . S
C860 C861 1.398 . S
C861 C856 1.395 1_655 S
C861 C860 1.398 . S
C861 H887 0.930 . S
C862 O842 1.235 1_455 S
C862 O843 1.270 . S
O863 C816 1.284 . S
O863 Cd823 2.366 . S
C864 O852 1.255 . S
C864 O853 1.275 1_455 S
C864 C858 1.496 1_455 S
C865 N832 1.432 . S
C865 C866 1.381 . S
C865 C870 1.385 . S
C866 C865 1.381 . S
C866 C867 1.371 . S
C866 H888 0.932 . S
C867 C866 1.371 . S
C867 C868 1.400 . S
C868 C867 1.400 . S
C868 C869 1.351 . S
C868 H889 0.930 . S
C869 C868 1.351 . S
C869 C870 1.388 . S
C870 C865 1.385 . S
C870 C869 1.388 . S
C870 H890 0.903 1_655 S
C871 C810 1.504 . S
C871 N841 1.309 . S
C871 O872 1.258 . S
O872 C871 1.258 . S
H873 C811 0.929 . S
H874 C812 0.932 . S
H875 C813 0.931 . S
H876 C818 0.929 . S
H877 C820 0.929 . S
H878 C822 0.931 . S
H879 C827 0.929 1_455 S
H880 C829 0.932 . S
H881 C830 0.931 . S
H882 C835 0.930 . S
H883 C836 0.931 . S
H884 C837 0.930 . S
H885 C857 0.929 . S
H886 C859 0.930 . S
H887 C861 0.930 . S
H888 C866 0.932 . S
H889 C868 0.930 . S
H890 C870 0.903 1_455 S
C891 C892 1.359 . S
C891 N896 1.330 . S
C891 C952 1.504 . S
C892 C891 1.359 . S
C892 C893 1.366 . S
C892 H954 0.929 . S
C893 C892 1.366 . S
C893 C894 1.415 . S
C893 H955 0.932 . S
C894 C893 1.415 . S
C894 C895 1.366 . S
C894 H956 0.931 . S
C895 C894 1.366 . S
C895 N896 1.325 . S
C895 C897 1.516 . S
N896 C891 1.330 . S
N896 C895 1.325 . S
N896 Co912 1.869 . S
C897 C895 1.516 . S
C897 N921 1.316 . S
C897 O944 1.263 . S
C898 C899 1.421 . S
C898 C903 1.360 . S
C898 N921 1.436 . S
C899 C898 1.421 . S
C899 C900 1.379 . S
C899 H957 0.929 . S
C900 C899 1.379 . S
C900 C901 1.417 . S
C901 C900 1.417 . S
C901 C902 1.352 . S
C901 H958 0.929 . S
C902 C901 1.352 . S
C902 C903 1.393 . S
C903 C898 1.360 . S
C903 C902 1.393 . S
C903 H959 0.931 . S
Cd904 O924 2.329 . S
Cd904 O926 2.350 . S
Cd904 O927 2.277 . S
Cd904 O929 2.173 . S
Cd904 O933 2.263 . S
Cd904 O944 2.366 . S
Cd905 O923 2.352 . S
Cd905 O930 2.250 . S
Cd905 O934 2.308 . S
C906 C910 1.403 . S
C906 C911 1.370 . S
C906 N922 1.423 . S
C907 C908 1.389 . S
C907 C911 1.389 . S
C908 C907 1.389 . S
C908 C909 1.379 . S
C908 H960 0.929 . S
C909 C908 1.379 . S
C909 C910 1.405 . S
C910 C906 1.403 . S
C910 C909 1.405 . S
C910 H961 0.932 . S
C911 C906 1.370 . S
C911 C907 1.389 . S
C911 H962 0.931 . S
Co912 N896 1.869 . S
Co912 N913 1.955 . S
Co912 N914 1.864 . S
Co912 N920 1.958 . S
Co912 N921 1.953 . S
Co912 N922 1.974 . S
N913 Co912 1.955 . S
N913 C931 1.329 . S
N913 C946 1.432 . S
N914 Co912 1.864 . S
N914 C915 1.327 . S
N914 C919 1.342 . S
C915 N914 1.327 . S
C915 C916 1.407 . S
C915 C931 1.481 . S
C916 C915 1.407 . S
C916 C917 1.364 . S
C916 H963 0.930 . S
C917 C916 1.364 . S
C917 C918 1.390 . S
C917 H964 0.931 . S
C918 C917 1.390 . S
C918 C919 1.346 . S
C918 H965 0.930 . S
C919 N914 1.342 . S
C919 C918 1.346 . S
C919 C935 1.516 . S
N920 Co912 1.958 . S
N920 C935 1.324 . S
N920 C937 1.427 . S
N921 C897 1.316 . S
N921 C898 1.436 . S
N921 Co912 1.953 . S
N922 C906 1.423 . S
N922 Co912 1.974 . S
N922 C952 1.309 . S
O923 Cd905 2.352 . S
O923 C943 1.235 . S
O924 Cd904 2.329 . S
O924 C943 1.270 . S
C925 O926 1.270 . S
C925 O927 1.248 . S
O926 Cd904 2.350 . S
O926 C925 1.270 . S
O927 Cd904 2.277 . S
O927 C925 1.248 . S
C928 O929 1.277 . S
C928 O930 1.230 . S
O929 Cd904 2.173 . S
O929 C928 1.277 . S
O930 Cd905 2.250 . S
O930 C928 1.230 . S
C931 N913 1.329 . S
C931 C915 1.481 . S
C931 O932 1.246 . S
O932 C931 1.246 . S
O933 Cd904 2.263 . S
O933 C945 1.258 . S
O934 Cd905 2.308 . S
O934 C945 1.274 . S
C935 C919 1.516 . S
C935 N920 1.324 . S
C935 O936 1.238 . S
O936 C935 1.238 . S
C937 N920 1.427 . S
C937 C938 1.394 . S
C937 C942 1.395 . S
C938 C937 1.394 . S
C938 C939 1.380 . S
C938 H966 0.929 . S
C939 C938 1.380 . S
C939 C940 1.384 . S
C939 C945 1.495 . S
C940 C939 1.384 . S
C940 C941 1.382 . S
C940 H967 0.930 . S
C941 C940 1.382 . S
C941 C942 1.398 . S
C942 C937 1.395 . S
C942 C941 1.398 . S
C942 H968 0.930 . S
C943 O923 1.235 . S
C943 O924 1.270 . S
O944 C897 1.263 . S
O944 Cd904 2.366 . S
C945 O933 1.258 . S
C945 O934 1.274 . S
C945 C939 1.495 . S
C946 N913 1.432 . S
C946 C947 1.381 . S
C946 C951 1.385 . S
C947 C946 1.381 . S
C947 C948 1.371 . S
C947 H969 0.932 . S
C948 C947 1.371 . S
C948 C949 1.400 . S
C949 C948 1.400 . S
C949 C950 1.351 . S
C949 H970 0.930 . S
C950 C949 1.351 . S
C950 C951 1.388 . S
C951 C946 1.385 . S
C951 C950 1.388 . S
C951 H971 0.929 . S
C952 C891 1.504 . S
C952 N922 1.309 . S
C952 O953 1.258 . S
O953 C952 1.258 . S
H954 C892 0.929 . S
H955 C893 0.932 . S
H956 C894 0.931 . S
H957 C899 0.929 . S
H958 C901 0.929 . S
H959 C903 0.931 . S
H960 C908 0.929 . S
H961 C910 0.932 . S
H962 C911 0.931 . S
H963 C916 0.930 . S
H964 C917 0.931 . S
H965 C918 0.930 . S
H966 C938 0.929 . S
H967 C940 0.930 . S
H968 C942 0.930 . S
H969 C947 0.932 . S
H970 C949 0.930 . S
H971 C951 0.929 . S
C972 C973 1.359 . S
C972 N977 1.330 . S
C972 C1033 1.504 . S
C973 C972 1.359 . S
C973 C974 1.366 . S
C973 H1035 0.929 . S
C974 C973 1.366 . S
C974 C975 1.415 . S
C974 H1036 0.932 . S
C975 C974 1.415 . S
C975 C976 1.366 . S
C975 H1037 0.931 . S
C976 C975 1.366 . S
C976 N977 1.325 . S
C976 C978 1.496 1_565 S
N977 C972 1.330 . S
N977 C976 1.325 . S
N977 Co993 1.869 1_565 S
C978 C976 1.496 1_545 S
C978 N1002 1.345 . S
C978 O1025 1.253 . S
C979 C980 1.421 . S
C979 C984 1.360 . S
C979 N1002 1.436 . S
C980 C979 1.421 . S
C980 C981 1.379 . S
C980 H1038 0.929 . S
C981 C980 1.379 . S
C981 C982 1.417 . S
C982 C981 1.417 . S
C982 C983 1.352 . S
C982 H1039 0.929 . S
C983 C982 1.352 . S
C983 C984 1.393 . S
C984 C979 1.360 . S
C984 C983 1.393 . S
C984 H1040 0.931 . S
Cd985 O1005 2.329 . S
Cd985 O1007 2.350 . S
Cd985 O1008 2.277 . S
Cd985 O1010 2.173 1_545 S
Cd985 O1014 2.263 . S
Cd985 O1025 2.366 . S
Cd986 O1004 2.352 . S
Cd986 O1011 2.250 . S
Cd986 O1015 2.308 . S
C987 C991 1.403 . S
C987 C992 1.370 1_565 S
C987 N1003 1.423 . S
C988 C989 1.389 1_545 S
C988 C992 1.389 . S
C989 C988 1.389 1_565 S
C989 C990 1.379 . S
C989 H1041 0.929 1_565 S
C990 C989 1.379 . S
C990 C991 1.405 . S
C991 C987 1.403 . S
C991 C990 1.405 . S
C991 H1042 0.932 . S
C992 C987 1.370 1_545 S
C992 C988 1.389 . S
C992 H1043 0.931 . S
Co993 N977 1.869 1_545 S
Co993 N994 1.955 1_545 S
Co993 N995 1.864 . S
Co993 N1001 1.958 . S
Co993 N1002 1.953 . S
Co993 N1003 1.974 1_545 S
N994 Co993 1.955 1_565 S
N994 C1012 1.329 1_565 S
N994 C1027 1.432 . S
N995 Co993 1.864 . S
N995 C996 1.327 . S
N995 C1000 1.342 . S
C996 N995 1.327 . S
C996 C997 1.407 . S
C996 C1012 1.481 . S
C997 C996 1.407 . S
C997 C998 1.364 . S
C997 H1044 0.930 . S
C998 C997 1.364 . S
C998 C999 1.390 . S
C998 H1045 0.931 . S
C999 C998 1.390 . S
C999 C1000 1.346 . S
C999 H1046 0.930 . S
C1000 N995 1.342 . S
C1000 C999 1.346 . S
C1000 C1016 1.516 . S
N1001 Co993 1.958 . S
N1001 C1016 1.324 . S
N1001 C1018 1.427 . S
N1002 C978 1.345 . S
N1002 C979 1.436 . S
N1002 Co993 1.953 . S
N1003 C987 1.423 . S
N1003 Co993 1.974 1_565 S
N1003 C1033 1.309 . S
O1004 Cd986 2.352 . S
O1004 C1024 1.235 1_565 S
O1005 Cd985 2.329 . S
O1005 C1024 1.270 . S
C1006 O1007 1.270 . S
C1006 O1008 1.248 . S
O1007 Cd985 2.350 . S
O1007 C1006 1.270 . S
O1008 Cd985 2.277 . S
O1008 C1006 1.248 . S
C1009 O1010 1.277 . S
C1009 O1011 1.230 . S
O1010 Cd985 2.173 1_565 S
O1010 C1009 1.277 . S
O1011 Cd986 2.250 . S
O1011 C1009 1.230 . S
C1012 N994 1.329 1_545 S
C1012 C996 1.481 . S
C1012 O1013 1.246 . S
O1013 C1012 1.246 . S
O1014 Cd985 2.263 . S
O1014 C1026 1.258 1_545 S
O1015 Cd986 2.308 . S
O1015 C1026 1.272 . S
C1016 C1000 1.516 . S
C1016 N1001 1.324 . S
C1016 O1017 1.238 . S
O1017 C1016 1.238 . S
C1018 N1001 1.427 . S
C1018 C1019 1.394 . S
C1018 C1023 1.395 1_545 S
C1019 C1018 1.394 . S
C1019 C1020 1.380 1_545 S
C1019 H1047 0.929 . S
C1020 C1019 1.380 1_565 S
C1020 C1021 1.384 . S
C1020 C1026 1.496 . S
C1021 C1020 1.384 . S
C1021 C1022 1.382 . S
C1021 H1048 0.930 . S
C1022 C1021 1.382 . S
C1022 C1023 1.398 . S
C1023 C1018 1.395 1_565 S
C1023 C1022 1.398 . S
C1023 H1049 0.930 . S
C1024 O1004 1.235 1_545 S
C1024 O1005 1.270 . S
O1025 C978 1.253 . S
O1025 Cd985 2.366 . S
C1026 O1014 1.258 1_565 S
C1026 O1015 1.272 . S
C1026 C1020 1.496 . S
C1027 N994 1.432 . S
C1027 C1028 1.381 . S
C1027 C1032 1.385 . S
C1028 C1027 1.381 . S
C1028 C1029 1.371 . S
C1028 H1050 0.932 . S
C1029 C1028 1.371 . S
C1029 C1030 1.400 . S
C1030 C1029 1.400 . S
C1030 C1031 1.351 . S
C1030 H1051 0.930 . S
C1031 C1030 1.351 . S
C1031 C1032 1.388 . S
C1032 C1027 1.385 . S
C1032 C1031 1.388 . S
C1032 H1052 0.911 1_565 S
C1033 C972 1.504 . S
C1033 N1003 1.309 . S
C1033 O1034 1.258 . S
O1034 C1033 1.258 . S
H1035 C973 0.929 . S
H1036 C974 0.932 . S
H1037 C975 0.931 . S
H1038 C980 0.929 . S
H1039 C982 0.929 . S
H1040 C984 0.931 . S
H1041 C989 0.929 1_545 S
H1042 C991 0.932 . S
H1043 C992 0.931 . S
H1044 C997 0.930 . S
H1045 C998 0.931 . S
H1046 C999 0.930 . S
H1047 C1019 0.929 . S
H1048 C1021 0.930 . S
H1049 C1023 0.930 . S
H1050 C1028 0.932 . S
H1051 C1030 0.930 . S
H1052 C1032 0.911 1_545 S
C1053 C1054 1.359 . S
C1053 N1058 1.330 . S
C1053 C1114 1.504 . S
C1054 C1053 1.359 . S
C1054 C1055 1.366 . S
C1054 H1116 0.929 . S
C1055 C1054 1.366 . S
C1055 C1056 1.415 . S
C1055 H1117 0.932 . S
C1056 C1055 1.415 . S
C1056 C1057 1.366 . S
C1056 H1118 0.931 . S
C1057 C1056 1.366 . S
C1057 N1058 1.325 . S
C1057 C1059 1.482 1_455 S
N1058 C1053 1.330 . S
N1058 C1057 1.325 . S
N1058 Co1074 1.869 1_455 S
C1059 C1057 1.482 1_655 S
C1059 N1083 1.325 . S
C1059 O1106 1.284 . S
C1060 C1061 1.421 . S
C1060 C1065 1.360 . S
C1060 N1083 1.436 . S
C1061 C1060 1.421 . S
C1061 C1062 1.379 . S
C1061 H1119 0.929 . S
C1062 C1061 1.379 . S
C1062 C1063 1.417 . S
C1063 C1062 1.417 . S
C1063 C1064 1.352 . S
C1063 H1120 0.929 . S
C1064 C1063 1.352 . S
C1064 C1065 1.393 . S
C1065 C1060 1.360 . S
C1065 C1064 1.393 . S
C1065 H1121 0.931 . S
Cd1066 O1086 2.329 . S
Cd1066 O1088 2.350 . S
Cd1066 O1089 2.277 . S
Cd1066 O1091 2.173 1_655 S
Cd1066 O1095 2.263 . S
Cd1066 O1106 2.366 . S
Cd1067 O1085 2.352 . S
Cd1067 O1092 2.250 . S
Cd1067 O1096 2.308 . S
C1068 C1072 1.403 . S
C1068 C1073 1.370 1_455 S
C1068 N1084 1.423 . S
C1069 C1070 1.389 1_655 S
C1069 C1073 1.389 . S
C1070 C1069 1.389 1_455 S
C1070 C1071 1.379 . S
C1070 H1122 0.929 1_455 S
C1071 C1070 1.379 . S
C1071 C1072 1.405 . S
C1072 C1068 1.403 . S
C1072 C1071 1.405 . S
C1072 H1123 0.932 . S
C1073 C1068 1.370 1_655 S
C1073 C1069 1.389 . S
C1073 H1124 0.931 . S
Co1074 N1058 1.869 1_655 S
Co1074 N1075 1.955 1_655 S
Co1074 N1076 1.864 . S
Co1074 N1082 1.958 . S
Co1074 N1083 1.953 . S
Co1074 N1084 1.974 1_655 S
N1075 Co1074 1.955 1_455 S
N1075 C1093 1.329 1_455 S
N1075 C1108 1.432 . S
N1076 Co1074 1.864 . S
N1076 C1077 1.327 . S
N1076 C1081 1.342 . S
C1077 N1076 1.327 . S
C1077 C1078 1.407 . S
C1077 C1093 1.481 . S
C1078 C1077 1.407 . S
C1078 C1079 1.364 . S
C1078 H1125 0.930 . S
C1079 C1078 1.364 . S
C1079 C1080 1.390 . S
C1079 H1126 0.931 . S
C1080 C1079 1.390 . S
C1080 C1081 1.346 . S
C1080 H1127 0.930 . S
C1081 N1076 1.342 . S
C1081 C1080 1.346 . S
C1081 C1097 1.516 . S
N1082 Co1074 1.958 . S
N1082 C1097 1.324 . S
N1082 C1099 1.427 . S
N1083 C1059 1.325 . S
N1083 C1060 1.436 . S
N1083 Co1074 1.953 . S
N1084 C1068 1.423 . S
N1084 Co1074 1.974 1_455 S
N1084 C1114 1.309 . S
O1085 Cd1067 2.352 . S
O1085 C1105 1.235 1_455 S
O1086 Cd1066 2.329 . S
O1086 C1105 1.270 . S
C1087 O1088 1.270 . S
C1087 O1089 1.248 . S
O1088 Cd1066 2.350 . S
O1088 C1087 1.270 . S
O1089 Cd1066 2.277 . S
O1089 C1087 1.248 . S
C1090 O1091 1.277 . S
C1090 O1092 1.230 . S
O1091 Cd1066 2.173 1_455 S
O1091 C1090 1.277 . S
O1092 Cd1067 2.250 . S
O1092 C1090 1.230 . S
C1093 N1075 1.329 1_655 S
C1093 C1077 1.481 . S
C1093 O1094 1.246 . S
O1094 C1093 1.246 . S
O1095 Cd1066 2.263 . S
O1095 C1107 1.255 . S
O1096 Cd1067 2.308 . S
O1096 C1107 1.275 1_455 S
C1097 C1081 1.516 . S
C1097 N1082 1.324 . S
C1097 O1098 1.238 . S
O1098 C1097 1.238 . S
C1099 N1082 1.427 . S
C1099 C1100 1.394 . S
C1099 C1104 1.395 1_655 S
C1100 C1099 1.394 . S
C1100 C1101 1.380 1_655 S
C1100 H1128 0.929 . S
C1101 C1100 1.380 1_455 S
C1101 C1102 1.384 . S
C1101 C1107 1.496 1_455 S
C1102 C1101 1.384 . S
C1102 C1103 1.382 . S
C1102 H1129 0.930 . S
C1103 C1102 1.382 . S
C1103 C1104 1.398 . S
C1104 C1099 1.395 1_455 S
C1104 C1103 1.398 . S
C1104 H1130 0.930 . S
C1105 O1085 1.235 1_655 S
C1105 O1086 1.270 . S
O1106 C1059 1.284 . S
O1106 Cd1066 2.366 . S
C1107 O1095 1.255 . S
C1107 O1096 1.275 1_655 S
C1107 C1101 1.496 1_655 S
C1108 N1075 1.432 . S
C1108 C1109 1.381 . S
C1108 C1113 1.385 . S
C1109 C1108 1.381 . S
C1109 C1110 1.371 . S
C1109 H1131 0.932 . S
C1110 C1109 1.371 . S
C1110 C1111 1.400 . S
C1111 C1110 1.400 . S
C1111 C1112 1.351 . S
C1111 H1132 0.930 . S
C1112 C1111 1.351 . S
C1112 C1113 1.388 . S
C1113 C1108 1.385 . S
C1113 C1112 1.388 . S
C1113 H1133 0.903 1_455 S
C1114 C1053 1.504 . S
C1114 N1084 1.309 . S
C1114 O1115 1.258 . S
O1115 C1114 1.258 . S
H1116 C1054 0.929 . S
H1117 C1055 0.932 . S
H1118 C1056 0.931 . S
H1119 C1061 0.929 . S
H1120 C1063 0.929 . S
H1121 C1065 0.931 . S
H1122 C1070 0.929 1_655 S
H1123 C1072 0.932 . S
H1124 C1073 0.931 . S
H1125 C1078 0.930 . S
H1126 C1079 0.931 . S
H1127 C1080 0.930 . S
H1128 C1100 0.929 . S
H1129 C1102 0.930 . S
H1130 C1104 0.930 . S
H1131 C1109 0.932 . S
H1132 C1111 0.930 . S
H1133 C1113 0.903 1_655 S
C1134 C1135 1.359 . S
C1134 N1139 1.330 . S
C1134 C1195 1.504 . S
C1135 C1134 1.359 . S
C1135 C1136 1.366 . S
C1135 H1197 0.929 . S
C1136 C1135 1.366 . S
C1136 C1137 1.415 . S
C1136 H1198 0.932 . S
C1137 C1136 1.415 . S
C1137 C1138 1.366 . S
C1137 H1199 0.931 . S
C1138 C1137 1.366 . S
C1138 N1139 1.325 . S
C1138 C1140 1.516 . S
N1139 C1134 1.330 . S
N1139 C1138 1.325 . S
N1139 Co1155 1.869 . S
C1140 C1138 1.516 . S
C1140 N1164 1.316 . S
C1140 O1187 1.263 . S
C1141 C1142 1.421 . S
C1141 C1146 1.360 . S
C1141 N1164 1.436 . S
C1142 C1141 1.421 . S
C1142 C1143 1.379 . S
C1142 H1200 0.929 . S
C1143 C1142 1.379 . S
C1143 C1144 1.417 . S
C1144 C1143 1.417 . S
C1144 C1145 1.352 . S
C1144 H1201 0.929 . S
C1145 C1144 1.352 . S
C1145 C1146 1.393 . S
C1146 C1141 1.360 . S
C1146 C1145 1.393 . S
C1146 H1202 0.931 . S
Cd1147 O1167 2.329 . S
Cd1147 O1169 2.350 . S
Cd1147 O1170 2.277 . S
Cd1147 O1172 2.173 . S
Cd1147 O1176 2.263 . S
Cd1147 O1187 2.366 . S
Cd1148 O1166 2.352 . S
Cd1148 O1173 2.250 . S
Cd1148 O1177 2.308 . S
C1149 C1153 1.403 . S
C1149 C1154 1.370 . S
C1149 N1165 1.423 . S
C1150 C1151 1.389 . S
C1150 C1154 1.389 . S
C1151 C1150 1.389 . S
C1151 C1152 1.379 . S
C1151 H1203 0.929 . S
C1152 C1151 1.379 . S
C1152 C1153 1.405 . S
C1153 C1149 1.403 . S
C1153 C1152 1.405 . S
C1153 H1204 0.932 . S
C1154 C1149 1.370 . S
C1154 C1150 1.389 . S
C1154 H1205 0.931 . S
Co1155 N1139 1.869 . S
Co1155 N1156 1.955 . S
Co1155 N1157 1.864 . S
Co1155 N1163 1.958 . S
Co1155 N1164 1.953 . S
Co1155 N1165 1.974 . S
N1156 Co1155 1.955 . S
N1156 C1174 1.329 . S
N1156 C1189 1.432 . S
N1157 Co1155 1.864 . S
N1157 C1158 1.327 . S
N1157 C1162 1.342 . S
C1158 N1157 1.327 . S
C1158 C1159 1.407 . S
C1158 C1174 1.481 . S
C1159 C1158 1.407 . S
C1159 C1160 1.364 . S
C1159 H1206 0.930 . S
C1160 C1159 1.364 . S
C1160 C1161 1.390 . S
C1160 H1207 0.931 . S
C1161 C1160 1.390 . S
C1161 C1162 1.346 . S
C1161 H1208 0.930 . S
C1162 N1157 1.342 . S
C1162 C1161 1.346 . S
C1162 C1178 1.516 . S
N1163 Co1155 1.958 . S
N1163 C1178 1.324 . S
N1163 C1180 1.427 . S
N1164 C1140 1.316 . S
N1164 C1141 1.436 . S
N1164 Co1155 1.953 . S
N1165 C1149 1.423 . S
N1165 Co1155 1.974 . S
N1165 C1195 1.309 . S
O1166 Cd1148 2.352 . S
O1166 C1186 1.235 . S
O1167 Cd1147 2.329 . S
O1167 C1186 1.270 . S
C1168 O1169 1.270 . S
C1168 O1170 1.248 . S
O1169 Cd1147 2.350 . S
O1169 C1168 1.270 . S
O1170 Cd1147 2.277 . S
O1170 C1168 1.248 . S
C1171 O1172 1.277 . S
C1171 O1173 1.230 . S
O1172 Cd1147 2.173 . S
O1172 C1171 1.277 . S
O1173 Cd1148 2.250 . S
O1173 C1171 1.230 . S
C1174 N1156 1.329 . S
C1174 C1158 1.481 . S
C1174 O1175 1.246 . S
O1175 C1174 1.246 . S
O1176 Cd1147 2.263 . S
O1176 C1188 1.258 . S
O1177 Cd1148 2.308 . S
O1177 C1188 1.274 . S
C1178 C1162 1.516 . S
C1178 N1163 1.324 . S
C1178 O1179 1.238 . S
O1179 C1178 1.238 . S
C1180 N1163 1.427 . S
C1180 C1181 1.394 . S
C1180 C1185 1.395 . S
C1181 C1180 1.394 . S
C1181 C1182 1.380 . S
C1181 H1209 0.929 . S
C1182 C1181 1.380 . S
C1182 C1183 1.384 . S
C1182 C1188 1.495 . S
C1183 C1182 1.384 . S
C1183 C1184 1.382 . S
C1183 H1210 0.930 . S
C1184 C1183 1.382 . S
C1184 C1185 1.398 . S
C1185 C1180 1.395 . S
C1185 C1184 1.398 . S
C1185 H1211 0.930 . S
C1186 O1166 1.235 . S
C1186 O1167 1.270 . S
O1187 C1140 1.263 . S
O1187 Cd1147 2.366 . S
C1188 O1176 1.258 . S
C1188 O1177 1.274 . S
C1188 C1182 1.495 . S
C1189 N1156 1.432 . S
C1189 C1190 1.381 . S
C1189 C1194 1.385 . S
C1190 C1189 1.381 . S
C1190 C1191 1.371 . S
C1190 H1212 0.932 . S
C1191 C1190 1.371 . S
C1191 C1192 1.400 . S
C1192 C1191 1.400 . S
C1192 C1193 1.351 . S
C1192 H1213 0.930 . S
C1193 C1192 1.351 . S
C1193 C1194 1.388 . S
C1194 C1189 1.385 . S
C1194 C1193 1.388 . S
C1194 H1214 0.929 . S
C1195 C1134 1.504 . S
C1195 N1165 1.309 . S
C1195 O1196 1.258 . S
O1196 C1195 1.258 . S
H1197 C1135 0.929 . S
H1198 C1136 0.932 . S
H1199 C1137 0.931 . S
H1200 C1142 0.929 . S
H1201 C1144 0.929 . S
H1202 C1146 0.931 . S
H1203 C1151 0.929 . S
H1204 C1153 0.932 . S
H1205 C1154 0.931 . S
H1206 C1159 0.930 . S
H1207 C1160 0.931 . S
H1208 C1161 0.930 . S
H1209 C1181 0.929 . S
H1210 C1183 0.930 . S
H1211 C1185 0.930 . S
H1212 C1190 0.932 . S
H1213 C1192 0.930 . S
H1214 C1194 0.929 . S
C1215 C1216 1.359 . S
C1215 N1220 1.330 . S
C1215 C1276 1.504 . S
C1216 C1215 1.359 . S
C1216 C1217 1.366 . S
C1216 H1278 0.929 . S
C1217 C1216 1.366 . S
C1217 C1218 1.415 . S
C1217 H1279 0.932 . S
C1218 C1217 1.415 . S
C1218 C1219 1.366 . S
C1218 H1280 0.931 . S
C1219 C1218 1.366 . S
C1219 N1220 1.325 . S
C1219 C1221 1.516 . S
N1220 C1215 1.330 . S
N1220 C1219 1.325 . S
N1220 Co1236 1.869 . S
C1221 C1219 1.516 . S
C1221 N1245 1.316 . S
C1221 O1268 1.263 . S
C1222 C1223 1.421 . S
C1222 C1227 1.360 . S
C1222 N1245 1.436 . S
C1223 C1222 1.421 . S
C1223 C1224 1.379 1_455 S
C1223 H1281 0.929 . S
C1224 C1223 1.379 1_655 S
C1224 C1225 1.417 . S
C1225 C1224 1.417 . S
C1225 C1226 1.352 1_655 S
C1225 H1282 0.929 . S
C1226 C1225 1.352 1_455 S
C1226 C1227 1.393 . S
C1227 C1222 1.360 . S
C1227 C1226 1.393 . S
C1227 H1283 0.931 . S
Cd1228 O1248 2.329 1_455 S
Cd1228 O1250 2.350 1_455 S
Cd1228 O1251 2.277 1_455 S
Cd1228 O1253 2.173 . S
Cd1228 O1257 2.263 . S
Cd1228 O1268 2.366 . S
Cd1229 O1247 2.352 1_455 S
Cd1229 O1254 2.250 . S
Cd1229 O1258 2.308 . S
C1230 C1234 1.403 . S
C1230 C1235 1.370 . S
C1230 N1246 1.423 . S
C1231 C1232 1.389 . S
C1231 C1235 1.389 . S
C1232 C1231 1.389 . S
C1232 C1233 1.379 . S
C1232 H1284 0.929 . S
C1233 C1232 1.379 . S
C1233 C1234 1.405 . S
C1234 C1230 1.403 . S
C1234 C1233 1.405 . S
C1234 H1285 0.932 . S
C1235 C1230 1.370 . S
C1235 C1231 1.389 . S
C1235 H1286 0.931 . S
Co1236 N1220 1.869 . S
Co1236 N1237 1.955 . S
Co1236 N1238 1.864 . S
Co1236 N1244 1.958 . S
Co1236 N1245 1.953 . S
Co1236 N1246 1.974 . S
N1237 Co1236 1.955 . S
N1237 C1255 1.329 . S
N1237 C1270 1.432 . S
N1238 Co1236 1.864 . S
N1238 C1239 1.327 . S
N1238 C1243 1.342 . S
C1239 N1238 1.327 . S
C1239 C1240 1.407 . S
C1239 C1255 1.481 . S
C1240 C1239 1.407 . S
C1240 C1241 1.364 . S
C1240 H1287 0.930 . S
C1241 C1240 1.364 . S
C1241 C1242 1.390 . S
C1241 H1288 0.931 . S
C1242 C1241 1.390 . S
C1242 C1243 1.346 . S
C1242 H1289 0.930 . S
C1243 N1238 1.342 . S
C1243 C1242 1.346 . S
C1243 C1259 1.516 . S
N1244 Co1236 1.958 . S
N1244 C1259 1.324 . S
N1244 C1261 1.427 . S
N1245 C1221 1.316 . S
N1245 C1222 1.436 . S
N1245 Co1236 1.953 . S
N1246 C1230 1.423 . S
N1246 Co1236 1.974 . S
N1246 C1276 1.309 . S
O1247 Cd1229 2.352 1_655 S
O1247 C1267 1.235 . S
O1248 Cd1228 2.329 1_655 S
O1248 C1267 1.270 . S
C1249 O1250 1.270 . S
C1249 O1251 1.248 . S
O1250 Cd1228 2.350 1_655 S
O1250 C1249 1.270 . S
O1251 Cd1228 2.277 1_655 S
O1251 C1249 1.248 . S
C1252 O1253 1.277 . S
C1252 O1254 1.230 . S
O1253 Cd1228 2.173 . S
O1253 C1252 1.277 . S
O1254 Cd1229 2.250 . S
O1254 C1252 1.230 . S
C1255 N1237 1.329 . S
C1255 C1239 1.481 . S
C1255 O1256 1.246 . S
O1256 C1255 1.246 . S
O1257 Cd1228 2.263 . S
O1257 C1269 1.258 . S
O1258 Cd1229 2.308 . S
O1258 C1269 1.274 . S
C1259 C1243 1.516 . S
C1259 N1244 1.324 . S
C1259 O1260 1.238 . S
O1260 C1259 1.238 . S
C1261 N1244 1.427 . S
C1261 C1262 1.394 . S
C1261 C1266 1.395 . S
C1262 C1261 1.394 . S
C1262 C1263 1.380 . S
C1262 H1290 0.929 . S
C1263 C1262 1.380 . S
C1263 C1264 1.384 . S
C1263 C1269 1.495 . S
C1264 C1263 1.384 . S
C1264 C1265 1.382 . S
C1264 H1291 0.930 . S
C1265 C1264 1.382 . S
C1265 C1266 1.398 . S
C1266 C1261 1.395 . S
C1266 C1265 1.398 . S
C1266 H1292 0.930 . S
C1267 O1247 1.235 . S
C1267 O1248 1.270 . S
O1268 C1221 1.263 . S
O1268 Cd1228 2.366 . S
C1269 O1257 1.258 . S
C1269 O1258 1.274 . S
C1269 C1263 1.495 . S
C1270 N1237 1.432 . S
C1270 C1271 1.381 . S
C1270 C1275 1.385 . S
C1271 C1270 1.381 . S
C1271 C1272 1.371 . S
C1271 H1293 0.932 . S
C1272 C1271 1.371 . S
C1272 C1273 1.400 . S
C1273 C1272 1.400 . S
C1273 C1274 1.351 . S
C1273 H1294 0.930 . S
C1274 C1273 1.351 . S
C1274 C1275 1.388 . S
C1275 C1270 1.385 . S
C1275 C1274 1.388 . S
C1275 H1295 0.929 . S
C1276 C1215 1.504 . S
C1276 N1246 1.309 . S
C1276 O1277 1.258 . S
O1277 C1276 1.258 . S
H1278 C1216 0.929 . S
H1279 C1217 0.932 . S
H1280 C1218 0.931 . S
H1281 C1223 0.929 . S
H1282 C1225 0.929 . S
H1283 C1227 0.931 . S
H1284 C1232 0.929 . S
H1285 C1234 0.932 . S
H1286 C1235 0.931 . S
H1287 C1240 0.930 . S
H1288 C1241 0.931 . S
H1289 C1242 0.930 . S
H1290 C1262 0.929 . S
H1291 C1264 0.930 . S
H1292 C1266 0.930 . S
H1293 C1271 0.932 . S
H1294 C1273 0.930 . S
H1295 C1275 0.929 . S
C1296 C1297 1.359 . S
C1296 N1301 1.330 . S
C1296 C1357 1.504 . S
C1297 C1296 1.359 . S
C1297 C1298 1.366 . S
C1297 H1359 0.929 . S
C1298 C1297 1.366 . S
C1298 C1299 1.415 . S
C1298 H1360 0.932 . S
C1299 C1298 1.415 . S
C1299 C1300 1.366 . S
C1299 H1361 0.931 . S
C1300 C1299 1.366 . S
C1300 N1301 1.325 . S
C1300 C1302 1.516 . S
N1301 C1296 1.330 . S
N1301 C1300 1.325 . S
N1301 Co1317 1.869 . S
C1302 C1300 1.516 . S
C1302 N1326 1.316 . S
C1302 O1349 1.263 . S
C1303 C1304 1.421 . S
C1303 C1308 1.360 . S
C1303 N1326 1.436 . S
C1304 C1303 1.421 . S
C1304 C1305 1.379 . S
C1304 H1362 0.929 . S
C1305 C1304 1.379 . S
C1305 C1306 1.417 . S
C1306 C1305 1.417 . S
C1306 C1307 1.352 . S
C1306 H1363 0.929 . S
C1307 C1306 1.352 . S
C1307 C1308 1.393 . S
C1308 C1303 1.360 . S
C1308 C1307 1.393 . S
C1308 H1364 0.931 . S
Cd1309 O1329 2.329 . S
Cd1309 O1331 2.350 . S
Cd1309 O1332 2.277 . S
Cd1309 O1334 2.173 . S
Cd1309 O1338 2.263 . S
Cd1309 O1349 2.366 . S
Cd1310 O1328 2.352 . S
Cd1310 O1335 2.250 . S
Cd1310 O1339 2.308 . S
C1311 C1315 1.403 . S
C1311 C1316 1.370 . S
C1311 N1327 1.423 . S
C1312 C1313 1.389 . S
C1312 C1316 1.389 . S
C1313 C1312 1.389 . S
C1313 C1314 1.379 . S
C1313 H1365 0.929 . S
C1314 C1313 1.379 . S
C1314 C1315 1.405 . S
C1315 C1311 1.403 . S
C1315 C1314 1.405 . S
C1315 H1366 0.932 . S
C1316 C1311 1.370 . S
C1316 C1312 1.389 . S
C1316 H1367 0.931 . S
Co1317 N1301 1.869 . S
Co1317 N1318 1.955 . S
Co1317 N1319 1.864 . S
Co1317 N1325 1.958 . S
Co1317 N1326 1.953 . S
Co1317 N1327 1.974 . S
N1318 Co1317 1.955 . S
N1318 C1336 1.329 . S
N1318 C1351 1.432 . S
N1319 Co1317 1.864 . S
N1319 C1320 1.327 . S
N1319 C1324 1.342 . S
C1320 N1319 1.327 . S
C1320 C1321 1.407 . S
C1320 C1336 1.481 . S
C1321 C1320 1.407 . S
C1321 C1322 1.364 . S
C1321 H1368 0.930 . S
C1322 C1321 1.364 . S
C1322 C1323 1.390 . S
C1322 H1369 0.931 . S
C1323 C1322 1.390 . S
C1323 C1324 1.346 . S
C1323 H1370 0.930 . S
C1324 N1319 1.342 . S
C1324 C1323 1.346 . S
C1324 C1340 1.516 . S
N1325 Co1317 1.958 . S
N1325 C1340 1.324 . S
N1325 C1342 1.427 . S
N1326 C1302 1.316 . S
N1326 C1303 1.436 . S
N1326 Co1317 1.953 . S
N1327 C1311 1.423 . S
N1327 Co1317 1.974 . S
N1327 C1357 1.309 . S
O1328 Cd1310 2.352 . S
O1328 C1348 1.235 . S
O1329 Cd1309 2.329 . S
O1329 C1348 1.270 . S
C1330 O1331 1.270 . S
C1330 O1332 1.248 . S
O1331 Cd1309 2.350 . S
O1331 C1330 1.270 . S
O1332 Cd1309 2.277 . S
O1332 C1330 1.248 . S
C1333 O1334 1.277 . S
C1333 O1335 1.230 . S
O1334 Cd1309 2.173 . S
O1334 C1333 1.277 . S
O1335 Cd1310 2.250 . S
O1335 C1333 1.230 . S
C1336 N1318 1.329 . S
C1336 C1320 1.481 . S
C1336 O1337 1.246 . S
O1337 C1336 1.246 . S
O1338 Cd1309 2.263 . S
O1338 C1350 1.258 . S
O1339 Cd1310 2.308 . S
O1339 C1350 1.274 . S
C1340 C1324 1.516 . S
C1340 N1325 1.324 . S
C1340 O1341 1.238 . S
O1341 C1340 1.238 . S
C1342 N1325 1.427 . S
C1342 C1343 1.394 . S
C1342 C1347 1.395 . S
C1343 C1342 1.394 . S
C1343 C1344 1.380 . S
C1343 H1371 0.929 . S
C1344 C1343 1.380 . S
C1344 C1345 1.384 . S
C1344 C1350 1.495 . S
C1345 C1344 1.384 . S
C1345 C1346 1.382 . S
C1345 H1372 0.930 . S
C1346 C1345 1.382 . S
C1346 C1347 1.398 . S
C1347 C1342 1.395 . S
C1347 C1346 1.398 . S
C1347 H1373 0.930 . S
C1348 O1328 1.235 . S
C1348 O1329 1.270 . S
O1349 C1302 1.263 . S
O1349 Cd1309 2.366 . S
C1350 O1338 1.258 . S
C1350 O1339 1.274 . S
C1350 C1344 1.495 . S
C1351 N1318 1.432 . S
C1351 C1352 1.381 . S
C1351 C1356 1.385 . S
C1352 C1351 1.381 . S
C1352 C1353 1.371 . S
C1352 H1374 0.932 . S
C1353 C1352 1.371 . S
C1353 C1354 1.400 . S
C1354 C1353 1.400 . S
C1354 C1355 1.351 . S
C1354 H1375 0.930 . S
C1355 C1354 1.351 . S
C1355 C1356 1.388 . S
C1356 C1351 1.385 . S
C1356 C1355 1.388 . S
C1356 H1376 0.929 . S
C1357 C1296 1.504 . S
C1357 N1327 1.309 . S
C1357 O1358 1.258 . S
O1358 C1357 1.258 . S
H1359 C1297 0.929 . S
H1360 C1298 0.932 . S
H1361 C1299 0.931 . S
H1362 C1304 0.929 . S
H1363 C1306 0.929 . S
H1364 C1308 0.931 . S
H1365 C1313 0.929 . S
H1366 C1315 0.932 . S
H1367 C1316 0.931 . S
H1368 C1321 0.930 . S
H1369 C1322 0.931 . S
H1370 C1323 0.930 . S
H1371 C1343 0.929 . S
H1372 C1345 0.930 . S
H1373 C1347 0.930 . S
H1374 C1352 0.932 . S
H1375 C1354 0.930 . S
H1376 C1356 0.929 . S
C1377 C1378 1.359 . S
C1377 N1382 1.330 . S
C1377 C1438 1.504 . S
C1378 C1377 1.359 . S
C1378 C1379 1.366 . S
C1378 H1440 0.929 . S
C1379 C1378 1.366 . S
C1379 C1380 1.415 . S
C1379 H1441 0.932 . S
C1380 C1379 1.415 . S
C1380 C1381 1.366 . S
C1380 H1442 0.931 . S
C1381 C1380 1.366 . S
C1381 N1382 1.325 . S
C1381 C1383 1.516 . S
N1382 C1377 1.330 . S
N1382 C1381 1.325 . S
N1382 Co1398 1.869 . S
C1383 C1381 1.516 . S
C1383 N1407 1.316 . S
C1383 O1430 1.263 . S
C1384 C1385 1.421 . S
C1384 C1389 1.360 . S
C1384 N1407 1.436 . S
C1385 C1384 1.421 . S
C1385 C1386 1.379 1_565 S
C1385 H1443 0.929 . S
C1386 C1385 1.379 1_545 S
C1386 C1387 1.417 . S
C1387 C1386 1.417 . S
C1387 C1388 1.352 1_545 S
C1387 H1444 0.929 . S
C1388 C1387 1.352 1_565 S
C1388 C1389 1.393 . S
C1389 C1384 1.360 . S
C1389 C1388 1.393 . S
C1389 H1445 0.931 . S
Cd1390 O1410 2.329 1_565 S
Cd1390 O1412 2.350 1_565 S
Cd1390 O1413 2.277 1_565 S
Cd1390 O1415 2.173 . S
Cd1390 O1419 2.263 . S
Cd1390 O1430 2.366 . S
Cd1391 O1409 2.352 1_565 S
Cd1391 O1416 2.250 . S
Cd1391 O1420 2.308 . S
C1392 C1396 1.403 . S
C1392 C1397 1.370 . S
C1392 N1408 1.423 . S
C1393 C1394 1.389 . S
C1393 C1397 1.389 . S
C1394 C1393 1.389 . S
C1394 C1395 1.379 . S
C1394 H1446 0.929 . S
C1395 C1394 1.379 . S
C1395 C1396 1.405 . S
C1396 C1392 1.403 . S
C1396 C1395 1.405 . S
C1396 H1447 0.932 . S
C1397 C1392 1.370 . S
C1397 C1393 1.389 . S
C1397 H1448 0.931 . S
Co1398 N1382 1.869 . S
Co1398 N1399 1.955 . S
Co1398 N1400 1.864 . S
Co1398 N1406 1.958 . S
Co1398 N1407 1.953 . S
Co1398 N1408 1.974 . S
N1399 Co1398 1.955 . S
N1399 C1417 1.329 . S
N1399 C1432 1.432 . S
N1400 Co1398 1.864 . S
N1400 C1401 1.327 . S
N1400 C1405 1.342 . S
C1401 N1400 1.327 . S
C1401 C1402 1.407 . S
C1401 C1417 1.481 . S
C1402 C1401 1.407 . S
C1402 C1403 1.364 . S
C1402 H1449 0.930 . S
C1403 C1402 1.364 . S
C1403 C1404 1.390 . S
C1403 H1450 0.931 . S
C1404 C1403 1.390 . S
C1404 C1405 1.346 . S
C1404 H1451 0.930 . S
C1405 N1400 1.342 . S
C1405 C1404 1.346 . S
C1405 C1421 1.516 . S
N1406 Co1398 1.958 . S
N1406 C1421 1.324 . S
N1406 C1423 1.427 . S
N1407 C1383 1.316 . S
N1407 C1384 1.436 . S
N1407 Co1398 1.953 . S
N1408 C1392 1.423 . S
N1408 Co1398 1.974 . S
N1408 C1438 1.309 . S
O1409 Cd1391 2.352 1_545 S
O1409 C1429 1.235 . S
O1410 Cd1390 2.329 1_545 S
O1410 C1429 1.270 . S
C1411 O1412 1.270 . S
C1411 O1413 1.248 . S
O1412 Cd1390 2.350 1_545 S
O1412 C1411 1.270 . S
O1413 Cd1390 2.277 1_545 S
O1413 C1411 1.248 . S
C1414 O1415 1.277 . S
C1414 O1416 1.230 . S
O1415 Cd1390 2.173 . S
O1415 C1414 1.277 . S
O1416 Cd1391 2.250 . S
O1416 C1414 1.230 . S
C1417 N1399 1.329 . S
C1417 C1401 1.481 . S
C1417 O1418 1.246 . S
O1418 C1417 1.246 . S
O1419 Cd1390 2.263 . S
O1419 C1431 1.258 . S
O1420 Cd1391 2.308 . S
O1420 C1431 1.274 . S
C1421 C1405 1.516 . S
C1421 N1406 1.324 . S
C1421 O1422 1.238 . S
O1422 C1421 1.238 . S
C1423 N1406 1.427 . S
C1423 C1424 1.394 . S
C1423 C1428 1.395 . S
C1424 C1423 1.394 . S
C1424 C1425 1.380 . S
C1424 H1452 0.929 . S
C1425 C1424 1.380 . S
C1425 C1426 1.384 . S
C1425 C1431 1.495 . S
C1426 C1425 1.384 . S
C1426 C1427 1.382 . S
C1426 H1453 0.930 . S
C1427 C1426 1.382 . S
C1427 C1428 1.398 . S
C1428 C1423 1.395 . S
C1428 C1427 1.398 . S
C1428 H1454 0.930 . S
C1429 O1409 1.235 . S
C1429 O1410 1.270 . S
O1430 C1383 1.263 . S
O1430 Cd1390 2.366 . S
C1431 O1419 1.258 . S
C1431 O1420 1.274 . S
C1431 C1425 1.495 . S
C1432 N1399 1.432 . S
C1432 C1433 1.381 . S
C1432 C1437 1.385 . S
C1433 C1432 1.381 . S
C1433 C1434 1.371 . S
C1433 H1455 0.932 . S
C1434 C1433 1.371 . S
C1434 C1435 1.400 . S
C1435 C1434 1.400 . S
C1435 C1436 1.351 . S
C1435 H1456 0.930 . S
C1436 C1435 1.351 . S
C1436 C1437 1.388 . S
C1437 C1432 1.385 . S
C1437 C1436 1.388 . S
C1437 H1457 0.929 . S
C1438 C1377 1.504 . S
C1438 N1408 1.309 . S
C1438 O1439 1.258 . S
O1439 C1438 1.258 . S
H1440 C1378 0.929 . S
H1441 C1379 0.932 . S
H1442 C1380 0.931 . S
H1443 C1385 0.929 . S
H1444 C1387 0.929 . S
H1445 C1389 0.931 . S
H1446 C1394 0.929 . S
H1447 C1396 0.932 . S
H1448 C1397 0.931 . S
H1449 C1402 0.930 . S
H1450 C1403 0.931 . S
H1451 C1404 0.930 . S
H1452 C1424 0.929 . S
H1453 C1426 0.930 . S
H1454 C1428 0.930 . S
H1455 C1433 0.932 . S
H1456 C1435 0.930 . S
H1457 C1437 0.929 . S
C1233 C18 5.584 . S
C99 C1314 5.584 . S
C1395 C180 5.584 . S
C504 C261 5.584 . S
C342 C585 5.584 . S
C423 C666 5.584 . S
C990 C747 5.584 1_566 S
C828 C1071 5.585 1_654 S
C909 C1152 5.584 1_554 S
C619 C59 2.517 . S
C700 C140 2.518 . S
C538 C221 2.517 . S
C302 C1348 2.517 . S
C1429 C383 2.518 . S
C464 C1267 2.517 . S
C1105 C545 2.517 . S
C1186 C626 2.517 . S
C1024 C707 2.518 . S
C376 C788 2.517 1_565 S
C869 C457 2.518 1_655 S
C950 C295 2.517 . S
C133 C1031 2.517 1_545 S
C1112 C214 2.518 1_455 S
C52 C1193 2.517 . S
C862 C1274 2.517 . S
C1355 C943 2.517 . S
C1436 C781 2.518 . S
C374 C37 4.182 . S
C455 C118 4.183 . S
C293 C199 4.183 . S
C131 C280 4.182 . S
C361 C212 4.183 . S
C442 C50 4.183 . S
C860 C523 4.183 . S
C604 C941 4.183 . S
C779 C685 4.182 . S
C766 C617 4.183 . S
C698 C847 4.183 . S
C928 C536 4.182 . S
C1346 C1009 4.183 . S
C1090 C1427 4.183 . S
C1171 C1265 4.182 . S
C1103 C1252 4.183 . S
C1184 C1333 4.183 . S
C1414 C1022 4.182 . S
C34 C907 2.060 . S
C745 C115 2.061 . S
C196 C826 2.060 . S
C277 C1150 2.060 . S
C358 C988 2.061 . S
C439 C1069 2.060 . S
C520 C1393 2.060 . S
C601 C1231 2.060 . S
C682 C1312 2.061 . S
C178 C763 2.060 . S
C16 C844 2.061 . S
C925 C97 2.060 . S
C421 C1006 2.060 . S
C1087 C259 2.061 . S
C340 C1168 2.060 . S
C1249 C664 2.060 . S
C1330 C502 2.060 . S
C583 C1411 2.061 . S
