# Generated by pormake.
# Topology zfe, (5)-cn, num edge types: 1
# Building blocks:
#     Node 0, Type 0, BuildingBlock: XOMCOT_clean_sbu_1, # of connection points: 5
#     Node 1, Type 0, BuildingBlock: XOMCOT_clean_sbu_1, # of connection points: 5
#     Node 2, Type 0, BuildingBlock: XOMCOT_clean_sbu_1, # of connection points: 5
#     Node 3, Type 0, BuildingBlock: XOMCOT_clean_sbu_1, # of connection points: 5
#     Node 4, Type 0, BuildingBlock: XOMCOT_clean_sbu_1, # of connection points: 5
#     Node 5, Type 0, BuildingBlock: XOMCOT_clean_sbu_1, # of connection points: 5
#     Node 6, Type 0, BuildingBlock: XOMCOT_clean_sbu_1, # of connection points: 5
#     Node 7, Type 0, BuildingBlock: XOMCOT_clean_sbu_1, # of connection points: 5
#     Node 8, Type 0, BuildingBlock: XOMCOT_clean_sbu_1, # of connection points: 5
#     Node 9, Type 0, BuildingBlock: XOMCOT_clean_sbu_1, # of connection points: 5
#     Node 10, Type 0, BuildingBlock: XOMCOT_clean_sbu_1, # of connection points: 5
#     Node 11, Type 0, BuildingBlock: XOMCOT_clean_sbu_1, # of connection points: 5
#     Node 12, Type 0, BuildingBlock: XOMCOT_clean_sbu_1, # of connection points: 5
#     Node 13, Type 0, BuildingBlock: XOMCOT_clean_sbu_1, # of connection points: 5
#     Node 14, Type 0, BuildingBlock: XOMCOT_clean_sbu_1, # of connection points: 5
#     Node 15, Type 0, BuildingBlock: XOMCOT_clean_sbu_1, # of connection points: 5
#     Edge 16, Type (0, 0), BuildingBlock: ZUJKAS_clean_linker_0, # of connection points: 2
#     Edge 17, Type (0, 0), BuildingBlock: ZUJKAS_clean_linker_0, # of connection points: 2
#     Edge 18, Type (0, 0), BuildingBlock: ZUJKAS_clean_linker_0, # of connection points: 2
#     Edge 19, Type (0, 0), BuildingBlock: ZUJKAS_clean_linker_0, # of connection points: 2
#     Edge 20, Type (0, 0), BuildingBlock: ZUJKAS_clean_linker_0, # of connection points: 2
#     Edge 21, Type (0, 0), BuildingBlock: ZUJKAS_clean_linker_0, # of connection points: 2
#     Edge 22, Type (0, 0), BuildingBlock: ZUJKAS_clean_linker_0, # of connection points: 2
#     Edge 23, Type (0, 0), BuildingBlock: ZUJKAS_clean_linker_0, # of connection points: 2
#     Edge 24, Type (0, 0), BuildingBlock: ZUJKAS_clean_linker_0, # of connection points: 2
#     Edge 25, Type (0, 0), BuildingBlock: ZUJKAS_clean_linker_0, # of connection points: 2
#     Edge 26, Type (0, 0), BuildingBlock: ZUJKAS_clean_linker_0, # of connection points: 2
#     Edge 27, Type (0, 0), BuildingBlock: ZUJKAS_clean_linker_0, # of connection points: 2
#     Edge 28, Type (0, 0), BuildingBlock: ZUJKAS_clean_linker_0, # of connection points: 2
#     Edge 29, Type (0, 0), BuildingBlock: ZUJKAS_clean_linker_0, # of connection points: 2
#     Edge 30, Type (0, 0), BuildingBlock: ZUJKAS_clean_linker_0, # of connection points: 2
#     Edge 31, Type (0, 0), BuildingBlock: ZUJKAS_clean_linker_0, # of connection points: 2
#     Edge 32, Type (0, 0), BuildingBlock: ZUJKAS_clean_linker_0, # of connection points: 2
#     Edge 33, Type (0, 0), BuildingBlock: ZUJKAS_clean_linker_0, # of connection points: 2
#     Edge 34, Type (0, 0), BuildingBlock: ZUJKAS_clean_linker_0, # of connection points: 2
#     Edge 35, Type (0, 0), BuildingBlock: ZUJKAS_clean_linker_0, # of connection points: 2
#     Edge 36, Type (0, 0), BuildingBlock: ZUJKAS_clean_linker_0, # of connection points: 2
#     Edge 37, Type (0, 0), BuildingBlock: ZUJKAS_clean_linker_0, # of connection points: 2
#     Edge 38, Type (0, 0), BuildingBlock: ZUJKAS_clean_linker_0, # of connection points: 2
#     Edge 39, Type (0, 0), BuildingBlock: ZUJKAS_clean_linker_0, # of connection points: 2
#     Edge 40, Type (0, 0), BuildingBlock: ZUJKAS_clean_linker_0, # of connection points: 2
#     Edge 41, Type (0, 0), BuildingBlock: ZUJKAS_clean_linker_0, # of connection points: 2
#     Edge 42, Type (0, 0), BuildingBlock: ZUJKAS_clean_linker_0, # of connection points: 2
#     Edge 43, Type (0, 0), BuildingBlock: ZUJKAS_clean_linker_0, # of connection points: 2
#     Edge 44, Type (0, 0), BuildingBlock: ZUJKAS_clean_linker_0, # of connection points: 2
#     Edge 45, Type (0, 0), BuildingBlock: ZUJKAS_clean_linker_0, # of connection points: 2
#     Edge 46, Type (0, 0), BuildingBlock: ZUJKAS_clean_linker_0, # of connection points: 2
#     Edge 47, Type (0, 0), BuildingBlock: ZUJKAS_clean_linker_0, # of connection points: 2
#     Edge 48, Type (0, 0), BuildingBlock: ZUJKAS_clean_linker_0, # of connection points: 2
#     Edge 49, Type (0, 0), BuildingBlock: ZUJKAS_clean_linker_0, # of connection points: 2
#     Edge 50, Type (0, 0), BuildingBlock: ZUJKAS_clean_linker_0, # of connection points: 2
#     Edge 51, Type (0, 0), BuildingBlock: ZUJKAS_clean_linker_0, # of connection points: 2
#     Edge 52, Type (0, 0), BuildingBlock: ZUJKAS_clean_linker_0, # of connection points: 2
#     Edge 53, Type (0, 0), BuildingBlock: ZUJKAS_clean_linker_0, # of connection points: 2
#     Edge 54, Type (0, 0), BuildingBlock: ZUJKAS_clean_linker_0, # of connection points: 2
#     Edge 55, Type (0, 0), BuildingBlock: ZUJKAS_clean_linker_0, # of connection points: 2
# Relax obj value: 0.187
# Max RMSD: 0.156
# Mean RMSD: 0.156
data_MOF--net-zfe--node1-XOMCOT_clean_sbu_1--edge1-ZUJKAS_clean_linker_0
_symmetry_space_group_name_H-M    P1
_symmetry_Int_Tables_number       1
_symmetry_cell_setting            triclinic
loop_
_symmetry_equiv_pos_as_xyz
'x, y, z'
_cell_length_a     68.106884
_cell_length_b     68.111958
_cell_length_c     36.140215
_cell_angle_alpha  89.995332
_cell_angle_beta   90.029732
_cell_angle_gamma 90.005082
loop_
_atom_site_label
_atom_site_type_symbol
_atom_site_fract_x
_atom_site_fract_y
_atom_site_fract_z
_atom_type_partial_charge
C0 C 0.07911 0.2419 0.99106 0.0
C1 C 0.09335 0.25583 0.98525 0.0
N2 N 0.08749 0.27281 1.00092 0.0
N3 N 0.06434 0.24983 1.01085 0.0
C4 C 0.06954 0.26888 0.01527 0.0
H5 H 0.07964 0.22679 0.98194 0.0
Co6 Co 0.04218 0.23575 0.02665 0.0
C7 C 0.04976 0.25989 0.09915 0.0
O8 O 0.06811 0.26508 0.09372 0.0
N9 N 0.01997 0.22152 0.04289 0.0
C10 C 1.00205 0.20324 0.08113 0.0
C11 C 0.01878 0.21418 0.07759 0.0
C12 C 0.00348 0.21492 0.02586 0.0
N13 N 0.99244 0.20367 0.04869 0.0
O14 O 0.02577 0.25468 1.0016 0.0
H15 H 0.02977 0.21613 0.09888 0.0
H16 H 0.99999 0.21758 0.9971 0.0
O17 O 0.04067 0.24979 0.07465 0.0
C18 C 0.02471 0.24808 0.96846 0.0
O19 O 0.03292 0.23108 0.96107 0.0
N20 N 0.05855 0.2158 0.04544 0.0
C21 C 0.08517 0.18475 0.05197 0.0
C22 C 0.08707 0.20162 0.07414 0.0
C23 C 0.0736 0.21711 0.0703 0.0
C24 C 0.05607 0.19916 0.02503 0.0
C25 C 0.06901 0.18346 0.02811 0.0
H26 H 0.07605 0.23038 0.08565 0.0
H27 H 0.04443 0.19844 1.00471 0.0
H28 H 0.06058 0.2795 0.02974 0.0
H29 H 0.10706 0.25351 0.97079 0.0
H30 H 0.99738 0.19531 0.10557 0.0
H31 H 0.09942 0.20328 0.09278 0.0
H32 H 0.06669 0.17063 1.01095 0.0
C33 C 0.76568 0.08073 1.00007 0.0
C34 C 0.75159 0.09477 0.9937 0.0
N35 N 0.73435 0.08822 1.00721 0.0
N36 N 0.75754 0.06541 0.01806 0.0
C37 C 0.73831 0.07019 0.02115 0.0
H38 H 0.78102 0.08175 0.99257 0.0
Co39 Co 0.77136 0.04274 0.03246 0.0
C40 C 0.74573 0.04771 0.1041 0.0
O41 O 0.73968 0.06588 0.10012 0.0
N42 N 0.78505 0.01997 0.04758 0.0
C43 C 0.80034 0.99998 0.08677 0.0
C44 C 0.79221 0.01815 0.08229 0.0
C45 C 0.78925 1.00253 0.03124 0.0
N46 N 0.79843 0.99005 0.05483 0.0
O47 O 0.75304 0.02711 1.00375 0.0
H48 H 0.79136 0.02933 0.10347 0.0
H49 H 0.78528 0.99887 1.00308 0.0
O50 O 0.75656 0.03982 0.07926 0.0
C51 C 0.76026 0.02899 0.97115 0.0
O52 O 0.77725 0.03799 0.96787 0.0
N53 N 0.7908 0.05856 0.0546 0.0
C54 C 0.82162 0.08481 0.06708 0.0
C55 C 0.80345 0.08735 0.08485 0.0
C56 C 0.78817 0.07392 0.07839 0.0
C57 C 0.80848 0.05583 0.03766 0.0
C58 C 0.82411 0.06853 0.04396 0.0
H59 H 0.77399 0.07671 0.0904 0.0
H60 H 0.81018 0.04424 0.01748 0.0
H61 H 0.72742 0.06062 0.03335 0.0
H62 H 0.75404 0.109 0.9812 0.0
H63 H 0.80729 0.99453 0.11169 0.0
H64 H 0.8009 0.09991 0.10261 0.0
H65 H 0.8377 0.06625 0.02897 0.0
C66 C 0.92695 0.75977 0.97923 0.0
C67 C 0.9139 0.74472 0.97343 0.0
N68 N 0.92063 0.72859 0.99087 0.0
N69 N 0.94182 0.7534 1.00074 0.0
C70 C 0.93784 0.73415 1.00654 0.0
H71 H 0.92548 0.77461 0.96897 0.0
Co72 Co 0.96252 0.7698 0.01577 0.0
C73 C 0.95839 0.74574 0.08968 0.0
O74 O 0.94087 0.73802 0.08535 0.0
N75 N 0.98323 0.78639 0.03115 0.0
C76 C 0.99934 0.8071 0.06785 0.0
C77 C 0.98285 0.79584 0.06403 0.0
C78 C 1.00042 0.79209 0.01552 0.0
N79 N 0.0104 0.80481 0.03738 0.0
O80 O 0.98074 0.75232 0.99147 0.0
H81 H 0.97122 0.79464 0.08427 0.0
H82 H 0.00541 0.78734 0.98858 0.0
O83 O 0.96567 0.75675 0.06443 0.0
C84 C 0.98091 0.7585 0.95798 0.0
O85 O 0.97081 0.77436 0.94986 0.0
N86 N 0.94424 0.78812 0.03369 0.0
C87 C 0.91552 0.81714 0.04099 0.0
C88 C 0.9151 0.80024 0.06341 0.0
C89 C 0.92962 0.78574 0.05913 0.0
C90 C 0.94507 0.80467 0.01258 0.0
C91 C 0.9311 0.81939 0.01607 0.0
H92 H 0.92851 0.77238 0.07489 0.0
H93 H 0.9564 0.80614 0.99181 0.0
H94 H 0.94734 0.72437 0.02186 0.0
H95 H 0.9001 0.74582 0.9587 0.0
H96 H 0.00305 0.81611 0.09152 0.0
H97 H 0.90324 0.79785 0.08284 0.0
H98 H 0.93232 0.83229 0.99872 0.0
C99 C 0.24292 0.92584 0.99877 0.0
C100 C 0.25769 0.91256 0.99199 0.0
N101 N 0.27407 0.91878 1.0093 0.0
N102 N 0.24977 0.94031 0.02072 0.0
C103 C 0.26896 0.93586 0.02585 0.0
H104 H 0.22799 0.92484 0.98875 0.0
Co105 Co 0.23458 0.96161 0.03702 0.0
C106 C 0.25837 0.95472 0.11039 0.0
O107 O 0.26484 0.93679 0.10496 0.0
N108 N 0.21926 0.98304 0.05381 0.0
C109 C 0.20119 1.00048 0.09315 0.0
C110 C 0.21078 0.9831 0.08761 0.0
C111 C 0.21439 1.00073 0.03916 0.0
N112 N 0.20348 0.01168 0.0628 0.0
O113 O 0.25301 0.97906 0.01332 0.0
H114 H 0.21161 0.97119 0.10735 0.0
H115 H 0.21897 0.00568 1.01209 0.0
O116 O 0.24794 0.96319 0.08558 0.0
C117 C 0.24604 0.98046 0.98049 0.0
O118 O 0.22907 0.9721 0.97337 0.0
N119 N 0.2153 0.94415 0.05416 0.0
C120 C 0.18604 0.91557 0.05638 0.0
C121 C 0.20228 0.91441 0.08026 0.0
C122 C 0.21699 0.92887 0.07845 0.0
C123 C 0.19905 0.94593 0.03244 0.0
C124 C 0.18426 0.9319 0.03318 0.0
H125 H 0.23006 0.92706 0.0948 0.0
H126 H 0.19809 0.95781 0.01267 0.0
H127 H 0.27903 0.94499 0.04135 0.0
H128 H 0.25625 0.89901 0.97659 0.0
H129 H 0.19291 0.00445 0.11759 0.0
H130 H 0.20414 0.90191 0.09846 0.0
H131 H 0.17186 0.93343 0.01461 0.0
C132 C 0.08325 0.76842 0.55619 0.0
C133 C 0.09753 0.75456 0.56198 0.0
N134 N 0.09113 0.73721 0.54866 0.0
N135 N 0.06785 0.76011 0.53878 0.0
C136 C 0.07279 0.7409 0.53578 0.0
H137 H 0.08411 0.78372 0.56398 0.0
Co138 Co 0.04526 0.77433 0.52528 0.0
C139 C 0.04888 0.74851 0.45344 0.0
O140 O 0.0666 0.74127 0.45774 0.0
N141 N 0.02266 0.78866 0.51159 0.0
C142 C 0.0027 0.8055 0.47464 0.0
C143 C 0.02083 0.7971 0.47793 0.0
C144 C 0.00529 0.79239 0.52856 0.0
N145 N 0.99282 0.80248 0.50632 0.0
O146 O 0.02944 0.75586 0.55294 0.0
H147 H 0.03196 0.79694 0.45661 0.0
H148 H 1.00164 0.78743 0.55616 0.0
O149 O 0.04167 0.76001 0.47797 0.0
C150 C 0.03086 0.76133 0.58674 0.0
O151 O 0.04092 0.7773 0.59422 0.0
N152 N 0.06122 0.79365 0.50319 0.0
C153 C 0.0866 0.82455 0.48598 0.0
C154 C 0.08824 0.80639 0.46776 0.0
C155 C 0.07529 0.79105 0.47671 0.0
C156 C 0.05955 0.81118 0.52109 0.0
C157 C 0.07184 0.82685 0.51258 0.0
H158 H 0.07722 0.77697 0.4637 0.0
H159 H 0.04892 0.81279 0.54312 0.0
H160 H 0.06324 0.72992 0.52382 0.0
H161 H 0.11158 0.75717 0.57506 0.0
H162 H 0.99724 0.81336 0.45072 0.0
H163 H 0.09961 0.80397 0.44733 0.0
H164 H 0.07036 0.84041 0.52801 0.0
C165 C 0.2612 0.06351 0.59583 0.0
C166 C 0.27744 0.07531 0.59364 0.0
N167 N 0.28154 0.07849 0.55768 0.0
N168 N 0.25501 0.05897 0.56148 0.0
C169 C 0.26758 0.06851 0.53859 0.0
H170 H 0.25412 0.05876 0.62104 0.0
Co171 Co 0.2329 0.04325 0.55472 0.0
C172 C 0.23166 0.03151 0.47547 0.0
O173 O 0.21259 0.0344 0.47695 0.0
N174 N 0.2103 0.02706 0.54957 0.0
C175 C 0.17997 0.01497 0.55288 0.0
C176 C 0.19144 0.03133 0.55798 0.0
C177 C 0.20985 0.00781 0.53988 0.0
N178 N 0.19155 1.00017 0.54145 0.0
O179 O 0.24654 0.02191 0.57947 0.0
H180 H 0.18611 0.04523 0.56804 0.0
H181 H 0.22279 0.99949 0.53241 0.0
O182 O 0.24221 0.03475 0.5044 0.0
C183 C 0.23932 0.02016 0.61205 0.0
O184 O 0.22395 0.03084 0.62079 0.0
N185 N 0.21926 0.06539 0.53678 0.0
C186 C 0.19466 0.09779 0.527 0.0
C187 C 0.20532 0.09004 0.49706 0.0
C188 C 0.21813 0.07415 0.5028 0.0
C189 C 0.21052 0.07402 0.56651 0.0
C190 C 0.19799 0.08999 0.56227 0.0
H191 H 0.22691 0.06905 0.47993 0.0
H192 H 0.21257 0.06773 0.59373 0.0
H193 H 0.26652 0.06817 0.50871 0.0
H194 H 0.28531 0.08156 0.61685 0.0
H195 H 0.16428 0.01407 0.55724 0.0
H196 H 0.20377 0.0962 0.46958 0.0
H197 H 0.1903 0.09557 0.58629 0.0
C198 C 0.93505 0.24963 0.58589 0.0
C199 C 0.9209 0.26388 0.58971 0.0
N200 N 0.92221 0.27637 0.56081 0.0
N201 N 0.94534 0.25297 0.55475 0.0
C202 C 0.93735 0.26949 0.54022 0.0
H203 H 0.93754 0.23742 0.60444 0.0
Co204 Co 0.96586 0.23688 0.5381 0.0
C205 C 0.96042 0.24866 0.45688 0.0
O206 O 0.94686 0.23536 0.45137 0.0
N207 N 0.98708 0.22115 0.52063 0.0
C208 C 0.00504 0.20332 0.48156 0.0
C209 C 0.98725 0.21214 0.48728 0.0
C210 C 0.00516 0.21734 0.5348 0.0
N211 N 0.01637 0.20663 0.51135 0.0
O212 O 0.98398 0.25495 0.56117 0.0
H213 H 0.9751 0.21174 0.46815 0.0
H214 H 0.01029 0.22267 0.56126 0.0
O215 O 0.96776 0.25102 0.48937 0.0
C216 C 0.9856 0.24865 0.59444 0.0
O217 O 0.97742 0.23177 0.6029 0.0
N218 N 0.94704 0.21757 0.52249 0.0
C219 C 0.91877 0.18754 0.51936 0.0
C220 C 0.91399 0.2068 0.50904 0.0
C221 C 0.92822 0.22164 0.51138 0.0
C222 C 0.95147 0.19897 0.53412 0.0
C223 C 0.93784 0.18375 0.53182 0.0
H224 H 0.92383 0.23649 0.505 0.0
H225 H 0.96537 0.19589 0.54728 0.0
H226 H 0.94216 0.27596 0.51447 0.0
H227 H 0.91049 0.26489 0.61222 0.0
H228 H 0.00925 0.1949 0.45743 0.0
H229 H 0.89929 0.21047 0.49993 0.0
H230 H 0.94194 0.16931 0.54172 0.0
C231 C 0.76255 0.92712 0.57666 0.0
C232 C 0.74805 0.91335 0.58153 0.0
N233 N 0.73161 0.91977 0.56467 0.0
N234 N 0.7555 0.94214 0.55631 0.0
C235 C 0.73643 0.93749 0.55029 0.0
H236 H 0.77745 0.92607 0.58677 0.0
Co237 Co 0.7706 0.96405 0.5426 0.0
C238 C 0.74759 0.95847 0.46804 0.0
O239 O 0.74162 0.94026 0.47202 0.0
N240 N 0.78584 0.98596 0.52855 0.0
C241 C 0.80542 0.00374 0.49252 0.0
C242 C 0.79429 0.98711 0.49479 0.0
C243 C 0.79201 1.00239 0.54636 0.0
N244 N 0.80408 0.01335 0.5249 0.0
O245 O 0.75171 0.98074 0.56701 0.0
H246 H 0.79277 0.97624 0.47315 0.0
H247 H 0.78826 0.00596 0.57465 0.0
O248 O 0.7576 0.96673 0.49371 0.0
C249 C 0.75722 0.9806 0.60092 0.0
O250 O 0.7735 0.97133 0.6095 0.0
N251 N 0.79034 0.94728 0.52455 0.0
C252 C 0.8207 0.91983 0.51921 0.0
C253 C 0.80423 0.91863 0.49581 0.0
C254 C 0.78905 0.93252 0.49909 0.0
C255 C 0.80662 0.94903 0.54624 0.0
C256 C 0.82199 0.93568 0.54375 0.0
H257 H 0.77599 0.93065 0.48278 0.0
H258 H 0.80726 0.96041 0.56706 0.0
H259 H 0.72628 0.94688 0.53556 0.0
H260 H 0.74976 0.89932 0.59522 0.0
H261 H 0.81392 0.00846 0.46881 0.0
H262 H 0.80259 0.90654 0.47661 0.0
H263 H 0.83454 0.93747 0.56186 0.0
C264 C 0.57876 0.74187 0.49258 0.0
C265 C 0.59262 0.75608 0.48555 0.0
N266 N 0.58642 0.77313 0.50043 0.0
N267 N 0.56395 0.74977 0.51233 0.0
C268 C 0.56877 0.76896 0.51574 0.0
H269 H 0.57963 0.72661 0.48452 0.0
Co270 Co 0.54187 0.73594 0.52917 0.0
C271 C 0.54946 0.76125 0.60054 0.0
O272 O 0.56763 0.76691 0.59481 0.0
N273 N 0.51963 0.72216 0.54664 0.0
C274 C 0.50079 0.70679 0.58769 0.0
C275 C 0.5185 0.71568 0.58192 0.0
C276 C 0.50228 0.71671 0.53126 0.0
N277 N 0.49048 0.70746 0.55597 0.0
O278 O 0.52544 0.75454 0.5033 0.0
H279 H 0.52996 0.71727 0.60242 0.0
H280 H 0.49824 0.71965 0.50284 0.0
O281 O 0.54062 0.75065 0.57646 0.0
C282 C 0.52462 0.74779 0.47025 0.0
O283 O 0.53286 0.73073 0.46338 0.0
N284 N 0.55831 0.71633 0.54904 0.0
C285 C 0.5847 0.68537 0.55915 0.0
C286 C 0.58768 0.70347 0.57692 0.0
C287 C 0.57422 0.71882 0.5716 0.0
C288 C 0.55516 0.69873 0.53205 0.0
C289 C 0.56795 0.68302 0.53714 0.0
H290 H 0.57733 0.73289 0.58365 0.0
H291 H 0.54308 0.69714 0.51285 0.0
H292 H 0.55955 0.77967 0.5294 0.0
H293 H 0.60655 0.75378 0.47182 0.0
H294 H 0.496 0.7 0.61322 0.0
H295 H 0.60055 0.7059 0.59393 0.0
H296 H 0.5653 0.66948 0.52223 0.0
C297 C 0.26328 0.57863 0.4952 0.0
C298 C 0.24896 0.59249 0.48925 0.0
N299 N 0.23203 0.58596 0.50417 0.0
N300 N 0.25563 0.56346 0.51433 0.0
C301 C 0.23643 0.56812 0.51852 0.0
H302 H 0.27845 0.5797 0.4866 0.0
Co303 Co 0.26975 0.54107 0.52897 0.0
C304 C 0.24589 0.54776 0.60216 0.0
O305 O 0.24007 0.56597 0.59749 0.0
N306 N 0.28382 0.5186 0.54412 0.0
C307 C 0.29961 0.49867 0.58277 0.0
C308 C 0.29093 0.51665 0.57886 0.0
C309 C 0.28883 0.50159 0.52705 0.0
N310 N 0.29829 0.48917 0.55029 0.0
O311 O 0.25047 0.52498 0.50424 0.0
H312 H 0.28981 0.52767 0.60031 0.0
H313 H 0.28537 0.49821 0.49854 0.0
O314 O 0.25614 0.53928 0.57715 0.0
C315 C 0.25609 0.52494 0.47043 0.0
O316 O 0.27259 0.53384 0.46197 0.0
N317 N 0.2899 0.55711 0.54776 0.0
C318 C 0.32094 0.58376 0.55409 0.0
C319 C 0.30391 0.5859 0.57576 0.0
C320 C 0.28844 0.57238 0.57208 0.0
C321 C 0.30666 0.55442 0.52783 0.0
C322 C 0.32238 0.56733 0.53093 0.0
H323 H 0.27498 0.57501 0.58682 0.0
H324 H 0.30745 0.54265 0.50779 0.0
H325 H 0.22589 0.5586 0.53191 0.0
H326 H 0.25107 0.60658 0.47603 0.0
H327 H 0.30664 0.49307 0.60749 0.0
H328 H 0.30207 0.59845 0.59381 0.0
H329 H 0.33533 0.56478 0.51423 0.0
C330 C 0.42713 0.26326 0.48237 0.0
C331 C 0.41331 0.24911 0.47494 0.0
N332 N 0.41922 0.23209 0.49035 0.0
N333 N 0.44167 0.25542 0.50293 0.0
C334 C 0.43668 0.23627 0.50658 0.0
H335 H 0.42647 0.27843 0.47367 0.0
Co336 Co 0.46364 0.26965 0.51928 0.0
C337 C 0.45722 0.24469 0.59154 0.0
O338 O 0.43918 0.23836 0.5867 0.0
N339 N 0.48565 0.28399 0.53616 0.0
C340 C 0.50417 0.30044 0.57631 0.0
C341 C 0.48643 0.29154 0.57072 0.0
C342 C 0.50325 0.28879 0.52105 0.0
N343 N 0.51483 0.29868 0.5452 0.0
O344 O 0.48029 0.25102 0.49407 0.0
H345 H 0.47479 0.29051 0.59097 0.0
H346 H 0.50767 0.28484 0.49329 0.0
O347 O 0.46532 0.25546 0.56687 0.0
C348 C 0.48167 0.25787 0.46118 0.0
O349 O 0.47371 0.27503 0.45405 0.0
N350 N 0.44699 0.28913 0.53837 0.0
C351 C 0.41962 0.31932 0.54566 0.0
C352 C 0.41852 0.30259 0.56832 0.0
C353 C 0.43234 0.28744 0.56396 0.0
C354 C 0.44874 0.30573 0.51762 0.0
C355 C 0.43529 0.32098 0.52084 0.0
H356 H 0.43054 0.27411 0.57957 0.0
H357 H 0.46013 0.30669 0.49685 0.0
H358 H 0.44572 0.22557 0.52068 0.0
H359 H 0.39964 0.25139 0.46026 0.0
H360 H 0.50877 0.30788 0.60133 0.0
H361 H 0.40653 0.30076 0.58768 0.0
H362 H 0.43679 0.33373 0.50314 0.0
C363 C 0.74253 0.42839 0.4796 0.0
C364 C 0.75637 0.4141 0.47361 0.0
N365 N 0.77293 0.41901 0.49188 0.0
N366 N 0.75007 0.44232 0.50193 0.0
C367 C 0.76884 0.43655 0.50791 0.0
H368 H 0.72773 0.42849 0.46877 0.0
Co369 Co 0.73541 0.46405 0.51817 0.0
C370 C 0.75923 0.45715 0.59172 0.0
O371 O 0.76507 0.43892 0.58742 0.0
N372 N 0.72055 0.48577 0.5348 0.0
C373 C 0.70144 0.50267 0.57321 0.0
C374 C 0.7126 0.48615 0.56907 0.0
C375 C 0.71406 0.50255 0.51863 0.0
N376 N 0.70229 0.51297 0.54157 0.0
O377 O 0.75414 0.4811 0.49432 0.0
H378 H 0.7144 0.47479 0.5897 0.0
H379 H 0.71727 0.50673 0.49039 0.0
O380 O 0.74904 0.46553 0.56645 0.0
C381 C 0.748 0.48212 0.46088 0.0
O382 O 0.73135 0.47348 0.45242 0.0
N383 N 0.71581 0.44703 0.53587 0.0
C384 C 0.68541 0.41962 0.54095 0.0
C385 C 0.70234 0.41775 0.56298 0.0
C386 C 0.71752 0.43163 0.55984 0.0
C387 C 0.69912 0.44941 0.51553 0.0
C388 C 0.68373 0.43608 0.51794 0.0
H389 H 0.73092 0.42926 0.5749 0.0
H390 H 0.69814 0.4613 0.4958 0.0
H391 H 0.77918 0.4449 0.52425 0.0
H392 H 0.75422 0.40102 0.45712 0.0
H393 H 0.69315 0.50677 0.59758 0.0
H394 H 0.7043 0.40516 0.58091 0.0
H395 H 0.67084 0.43835 0.50091 0.0
C396 C 0.57558 0.26232 0.06643 0.0
C397 C 0.58962 0.24827 0.07299 0.0
N398 N 0.58404 0.2315 0.05625 0.0
N399 N 0.56123 0.25465 0.04518 0.0
C400 C 0.56657 0.23567 0.04017 0.0
H401 H 0.57593 0.27733 0.07617 0.0
Co402 Co 0.53903 0.26885 0.02987 0.0
C403 C 0.54566 0.2451 0.95624 0.0
O404 O 0.56387 0.23919 0.96053 0.0
N405 N 0.51677 0.28309 0.01413 0.0
C406 C 0.49769 0.2998 0.97537 0.0
C407 C 0.51555 0.29096 0.97989 0.0
C408 C 0.49936 0.28762 0.03019 0.0
N409 N 0.48742 0.29767 1.00688 0.0
O410 O 0.52265 0.24972 0.05438 0.0
H411 H 0.52699 0.29027 0.95919 0.0
H412 H 0.49536 0.28341 0.05805 0.0
O413 O 0.53735 0.25529 0.98155 0.0
C414 C 0.52237 0.25552 0.08809 0.0
O415 O 0.53114 0.27213 0.09641 0.0
N416 N 0.55541 0.28885 1.01154 0.0
C417 C 0.58271 0.31939 1.00677 0.0
C418 C 0.58485 0.30235 0.9851 0.0
C419 C 0.57101 0.28712 0.98804 0.0
C420 C 0.55271 0.30565 0.03134 0.0
C421 C 0.56596 0.32113 0.02901 0.0
H422 H 0.57365 0.2736 0.97351 0.0
H423 H 0.54069 0.30664 0.05081 0.0
H424 H 0.55776 0.22508 0.02525 0.0
H425 H 0.60321 0.25045 0.08796 0.0
H426 H 0.49276 0.30748 0.95085 0.0
H427 H 0.59765 0.30031 0.96777 0.0
H428 H 0.56344 0.3341 0.04569 0.0
C429 C 0.74243 0.57675 0.06343 0.0
C430 C 0.75683 0.59048 0.06984 0.0
N431 N 0.77373 0.58399 0.05478 0.0
N432 N 0.75002 0.56172 0.04386 0.0
C433 C 0.76926 0.56629 0.03994 0.0
H434 H 0.72722 0.57787 0.07174 0.0
Co435 Co 0.73553 0.53988 0.02789 0.0
C436 C 0.76096 0.54548 0.95598 0.0
O437 O 0.76756 0.56344 0.96053 0.0
N438 N 0.72101 0.51786 1.01135 0.0
C439 C 0.70447 0.49928 0.97147 0.0
C440 C 0.71377 0.51684 0.97658 0.0
C441 C 0.71567 0.50057 0.02705 0.0
N442 N 0.7057 0.48892 1.00308 0.0
O443 O 0.75376 0.52318 0.05398 0.0
H444 H 0.71518 0.52825 0.95593 0.0
H445 H 0.71922 0.49644 0.05515 0.0
O446 O 0.74997 0.53765 0.98064 0.0
C447 C 0.74691 0.52227 0.08692 0.0
O448 O 0.72993 0.53067 0.0938 0.0
N449 N 0.7164 0.55669 1.00754 0.0
C450 C 0.68596 0.5833 0.99459 0.0
C451 C 0.70426 0.58568 0.97725 0.0
C452 C 0.71935 0.57209 0.98399 0.0
C453 C 0.69868 0.55425 0.02448 0.0
C454 C 0.68322 0.56715 0.01795 0.0
H455 H 0.73357 0.57465 0.972 0.0
H456 H 0.69675 0.54257 0.04442 0.0
H457 H 0.77977 0.55683 0.02633 0.0
H458 H 0.75475 0.60453 0.08326 0.0
H459 H 0.69707 0.49463 0.94645 0.0
H460 H 0.70699 0.59812 0.95931 0.0
H461 H 0.6695 0.56501 0.03257 0.0
C462 C 0.43777 0.75 0.09044 0.0
C463 C 0.42472 0.76518 0.09544 0.0
N464 N 0.42541 0.7769 0.06542 0.0
N465 N 0.44675 0.75209 0.05748 0.0
C466 C 0.439 0.7687 0.04289 0.0
H467 H 0.44037 0.738 0.10941 0.0
Co468 Co 0.46563 0.73464 0.03922 0.0
C469 C 0.46039 0.74738 0.95846 0.0
O470 O 0.4461 0.73487 0.95285 0.0
N471 N 0.48524 0.71733 0.01994 0.0
C472 C 0.49957 0.69638 0.98103 0.0
C473 C 0.48342 0.70782 0.98725 0.0
C474 C 0.50312 0.71157 0.0327 0.0
N475 N 0.51197 0.69868 1.00958 0.0
O476 O 0.48543 0.75099 0.06194 0.0
H477 H 0.47083 0.70858 0.96923 0.0
H478 H 0.50947 0.71637 0.05856 0.0
O479 O 0.46799 0.7491 0.99088 0.0
C480 C 0.48764 0.74372 0.09439 0.0
O481 O 0.47906 0.72691 0.10193 0.0
N482 N 0.44514 0.71708 0.02426 0.0
C483 C 0.41519 0.68886 0.01976 0.0
C484 C 0.41157 0.70845 1.00999 0.0
C485 C 0.42665 0.72241 0.01305 0.0
C486 C 0.44824 0.69828 0.03624 0.0
C487 C 0.4338 0.68392 0.03314 0.0
H488 H 0.42328 0.73754 1.00681 0.0
H489 H 0.46185 0.69436 0.04972 0.0
H490 H 0.44305 0.77458 0.01617 0.0
H491 H 0.41502 0.7671 0.11888 0.0
H492 H 0.50205 0.68709 0.95718 0.0
H493 H 0.39719 0.71299 1.00049 0.0
H494 H 0.43696 0.66919 0.04278 0.0
C495 C 0.26027 0.42822 0.0748 0.0
C496 C 0.24544 0.41481 0.07973 0.0
N497 N 0.22903 0.42179 0.06354 0.0
N498 N 0.25348 0.44356 0.05502 0.0
C499 C 0.23424 0.43949 0.0495 0.0
H500 H 0.27523 0.42667 0.08441 0.0
Co501 Co 0.26894 0.46514 0.04094 0.0
C502 C 0.24568 0.4597 0.96678 0.0
O503 O 0.23919 0.4417 0.97112 0.0
N504 N 0.2845 0.48676 0.02645 0.0
C505 C 0.30405 0.50437 0.99004 0.0
C506 C 0.2932 0.48756 0.99288 0.0
C507 C 0.29024 0.50355 0.04353 0.0
N508 N 0.30227 0.51443 0.02186 0.0
O509 O 0.25036 0.48227 0.06501 0.0
H510 H 0.29186 0.47646 0.97163 0.0
H511 H 0.28607 0.50756 0.07139 0.0
O512 O 0.25599 0.4678 0.99219 0.0
C513 C 0.25622 0.48255 0.09867 0.0
O514 O 0.27248 0.4732 0.10717 0.0
N515 N 0.28836 0.44796 0.02306 0.0
C516 C 0.31828 0.42004 0.01756 0.0
C517 C 0.30168 0.41903 0.99442 0.0
C518 C 0.28675 0.43315 0.99776 0.0
C519 C 0.30475 0.44952 0.04451 0.0
C520 C 0.3199 0.43594 0.04193 0.0
H521 H 0.27358 0.43145 0.98165 0.0
H522 H 0.30566 0.46097 0.06517 0.0
H523 H 0.22427 0.44927 0.03524 0.0
H524 H 0.24691 0.40064 0.093 0.0
H525 H 0.31249 0.50895 0.96618 0.0
H526 H 0.29978 0.40691 0.97537 0.0
H527 H 0.33256 0.43758 0.05982 0.0
H528 H 0.07428 0.31021 1.01175 0.0
H529 H 0.09435 0.33987 0.01978 0.0
H530 H 0.14692 0.30517 1.00824 0.0
H531 H 0.12719 0.27574 1.00038 0.0
H532 H 0.12209 0.34888 0.07263 0.0
H533 H 0.15683 0.34886 0.93453 0.0
H534 H 0.13557 0.33406 0.94514 0.0
H535 H 0.15981 0.32568 0.9574 0.0
C536 C 0.0901 0.30891 1.01083 0.0
C537 C 0.09904 0.29053 1.00486 0.0
C538 C 0.10156 0.3259 0.01532 0.0
C539 C 0.12217 0.32485 0.01378 0.0
C540 C 0.13107 0.3065 1.00838 0.0
H541 H 0.2144 0.39299 0.10744 0.0
H542 H 0.18617 0.37208 0.09488 0.0
C543 C 0.11969 0.28961 1.00384 0.0
C544 C 0.1346 0.34262 0.0192 0.0
H545 H 0.17348 0.36735 0.98186 0.0
C546 C 0.13313 0.35312 0.05254 0.0
C547 C 0.14878 0.34847 0.99275 0.0
C548 C 0.15022 0.3388 0.95529 0.0
C549 C 0.14616 0.36853 0.06098 0.0
C550 C 0.16134 0.37332 0.03573 0.0
C551 C 0.16206 0.36357 1.00152 0.0
C552 C 0.17739 0.38739 0.04506 0.0
C553 C 0.14359 0.3794 0.09701 0.0
C554 C 0.18214 0.40295 0.02111 0.0
C555 C 0.19858 0.41481 0.02794 0.0
C556 C 0.21074 0.41126 0.05875 0.0
C557 C 0.20555 0.39606 0.08326 0.0
C558 C 0.18918 0.38421 0.07637 0.0
H559 H 0.12804 0.37904 0.10629 0.0
H560 H 0.15258 0.37219 0.11871 0.0
H561 H 0.14831 0.39495 0.09458 0.0
H562 H 0.17337 0.40563 0.9966 0.0
H563 H 0.2022 0.42621 1.00824 0.0
H564 H 0.72191 0.11676 0.96049 0.0
H565 H 0.69364 0.13841 0.9687 0.0
H566 H 0.67728 0.10677 0.06726 0.0
H567 H 0.70568 0.08502 0.0593 0.0
H568 H 0.64464 0.11774 0.02041 0.0
H569 H 0.69409 0.18048 0.05106 0.0
H570 H 0.69908 0.16832 1.00798 0.0
H571 H 0.70253 0.15536 0.05083 0.0
C572 C 0.71229 0.11433 0.98387 0.0
C573 C 0.71626 0.09929 1.00952 0.0
C574 C 0.6961 0.12672 0.98849 0.0
C575 C 0.68355 0.12446 0.01898 0.0
C576 C 0.68682 0.10884 0.0436 0.0
H577 H 0.61009 0.21753 0.10634 0.0
H578 H 0.63272 0.19004 0.09834 0.0
C579 C 0.70303 0.09637 0.03894 0.0
C580 C 0.66776 0.13908 0.02614 0.0
H581 H 0.66031 0.18773 0.04428 0.0
C582 C 0.64803 0.13304 0.02573 0.0
C583 C 0.6722 0.15899 0.0336 0.0
C584 C 0.69311 0.16621 0.03627 0.0
C585 C 0.63263 0.14648 0.03186 0.0
C586 C 0.6371 0.16651 0.03821 0.0
C587 C 0.65685 0.17242 0.03919 0.0
C588 C 0.62169 0.18171 0.04443 0.0
C589 C 0.61177 0.13908 0.03209 0.0
C590 C 0.60767 0.18606 0.01707 0.0
C591 C 0.59464 0.20184 0.02163 0.0
C592 C 0.59555 0.21372 0.05346 0.0
C593 C 0.60917 0.20887 0.08129 0.0
C594 C 0.62208 0.1931 0.0768 0.0
H595 H 0.61111 0.12296 0.03659 0.0
H596 H 0.60302 0.14647 0.05396 0.0
H597 H 0.60485 0.14232 1.00496 0.0
H598 H 0.6073 0.17777 0.99152 0.0
H599 H 0.58452 0.20531 0.99947 0.0
H600 H 0.78712 0.61244 0.10088 0.0
H601 H 0.81515 0.63418 0.09072 0.0
H602 H 0.82971 0.60256 0.99118 0.0
H603 H 0.80151 0.58081 1.00092 0.0
H604 H 0.86334 0.61405 0.03764 0.0
H605 H 0.81256 0.67568 1.00611 0.0
H606 H 0.8082 0.66351 0.04946 0.0
H607 H 0.80462 0.6504 1.00686 0.0
C608 C 0.79629 0.61002 0.07688 0.0
C609 C 0.79182 0.59501 0.05145 0.0
C610 C 0.81236 0.62245 0.07117 0.0
C611 C 0.82434 0.6202 0.03988 0.0
C612 C 0.82063 0.60459 0.01548 0.0
H613 H 0.89515 0.71219 0.94246 0.0
H614 H 0.87342 0.68429 0.95366 0.0
C615 C 0.80451 0.59212 0.02117 0.0
C616 C 0.83985 0.63493 0.03147 0.0
H617 H 0.84632 0.68332 1.00983 0.0
C618 C 0.85966 0.6292 0.03151 0.0
C619 C 0.835 0.65463 0.02302 0.0
C620 C 0.81395 0.66147 0.021 0.0
C621 C 0.87477 0.64276 0.02389 0.0
C622 C 0.86992 0.66257 0.01629 0.0
C623 C 0.85007 0.66817 0.01583 0.0
C624 C 0.88498 0.67783 1.00808 0.0
C625 C 0.89576 0.63573 0.02343 0.0
C626 C 0.89905 0.68332 0.03461 0.0
C627 C 0.91155 0.69935 0.02823 0.0
C628 C 0.91006 0.71033 0.99533 0.0
C629 C 0.89651 0.70425 0.96826 0.0
C630 C 0.88411 0.68824 0.9746 0.0
H631 H 0.89669 0.61951 0.02073 0.0
H632 H 0.90404 0.64258 1.00033 0.0
H633 H 0.903 0.63998 0.04976 0.0
H634 H 0.8998 0.67576 0.06094 0.0
H635 H 0.92164 0.70377 0.04982 0.0
H636 H 0.29003 0.89395 0.95907 0.0
H637 H 0.31845 0.87242 0.96809 0.0
H638 H 0.32778 0.89731 0.0763 0.0
H639 H 0.29925 0.9188 0.06759 0.0
H640 H 0.36019 0.88172 0.98948 0.0
H641 H 0.31913 0.83626 0.0914 0.0
H642 H 0.30693 0.85246 0.05918 0.0
H643 H 0.31923 0.86238 0.09891 0.0
C644 C 0.29821 0.89494 0.98469 0.0
C645 C 0.29225 0.90799 0.01273 0.0
C646 C 0.3145 0.8827 0.98971 0.0
C647 C 0.32508 0.88311 0.02301 0.0
C648 C 0.31971 0.89666 0.05049 0.0
H649 H 0.41114 0.80255 0.11581 0.0
H650 H 0.38823 0.82956 0.10477 0.0
C651 C 0.30349 0.90904 0.04536 0.0
C652 C 0.34098 0.86858 0.0297 0.0
H653 H 0.35188 0.82742 0.07959 0.0
C654 C 0.35845 0.86986 1.00924 0.0
C655 C 0.33864 0.85313 0.05544 0.0
C656 C 0.31995 0.85077 0.07741 0.0
C657 C 0.37378 0.85623 0.01423 0.0
C658 C 0.37134 0.84056 0.03966 0.0
C659 C 0.35383 0.83939 0.06015 0.0
C660 C 0.38657 0.82511 0.04554 0.0
C661 C 0.39257 0.85902 0.9928 0.0
C662 C 0.39345 0.81358 0.01597 0.0
C663 C 0.40673 0.79819 0.02225 0.0
C664 C 0.41311 0.79377 0.05832 0.0
C665 C 0.40637 0.80546 0.08777 0.0
C666 C 0.3933 0.82094 0.08145 0.0
H667 H 0.39445 0.87453 0.9839 0.0
H668 H 0.40555 0.85466 1.00946 0.0
H669 H 0.39212 0.84978 0.96753 0.0
H670 H 0.38812 0.81608 0.98814 0.0
H671 H 0.41139 0.78927 0.99907 0.0
H672 H 0.0774 0.69967 0.54133 0.0
H673 H 0.09709 0.66957 0.53612 0.0
H674 H 0.1501 0.70386 0.54409 0.0
H675 H 0.13083 0.73371 0.54877 0.0
H676 H 0.12581 0.65926 0.48335 0.0
H677 H 0.15828 0.6619 0.62353 0.0
H678 H 0.13702 0.67621 0.61074 0.0
H679 H 0.1613 0.68462 0.59906 0.0
C680 C 0.09323 0.70081 0.54198 0.0
C681 C 0.10242 0.71922 0.54607 0.0
C682 C 0.10448 0.68357 0.53912 0.0
C683 C 0.12509 0.6844 0.54053 0.0
C684 C 0.13424 0.70275 0.54401 0.0
H685 H 0.21892 0.61465 0.45835 0.0
H686 H 0.19054 0.63589 0.46761 0.0
C687 C 0.1231 0.71988 0.54679 0.0
C688 C 0.13734 0.66638 0.53719 0.0
H689 H 0.17537 0.6422 0.57873 0.0
C690 C 0.13644 0.65532 0.50445 0.0
C691 C 0.15099 0.66097 0.56494 0.0
C692 C 0.15184 0.67142 0.60171 0.0
C693 C 0.14959 0.63975 0.49785 0.0
C694 C 0.16424 0.63534 0.52443 0.0
C695 C 0.16434 0.64567 0.55808 0.0
C696 C 0.18041 0.62111 0.51707 0.0
C697 C 0.14775 0.62832 0.46227 0.0
C698 C 0.18444 0.60575 0.54195 0.0
C699 C 0.20091 0.59368 0.53697 0.0
C700 C 0.21385 0.59684 0.50717 0.0
C701 C 0.20944 0.61189 0.48179 0.0
C702 C 0.19301 0.62392 0.48678 0.0
H703 H 0.13245 0.6287 0.45159 0.0
H704 H 0.15737 0.63506 0.441 0.0
H705 H 0.15222 0.61278 0.46603 0.0
H706 H 0.17505 0.60337 0.56572 0.0
H707 H 0.20392 0.58241 0.55729 0.0
H708 H 0.4208 0.20383 0.54345 0.0
H709 H 0.3993 0.17518 0.54927 0.0
H710 H 0.37008 0.19117 0.4478 0.0
H711 H 0.39186 0.2194 0.44121 0.0
H712 H 0.35928 0.17672 0.55665 0.0
H713 H 0.37818 0.13273 0.43261 0.0
H714 H 0.39357 0.15241 0.44936 0.0
H715 H 0.37203 0.15777 0.42237 0.0
C716 C 0.41015 0.20099 0.52189 0.0
C717 C 0.40807 0.21402 0.49192 0.0
C718 C 0.39776 0.18465 0.52537 0.0
C719 C 0.38315 0.18086 0.4988 0.0
C720 C 0.38142 0.19352 0.46833 0.0
H721 H 0.28137 0.10168 0.49625 0.0
H722 H 0.30644 0.12615 0.47924 0.0
C723 C 0.39378 0.20984 0.46485 0.0
C724 C 0.36871 0.16469 0.50453 0.0
H725 H 0.34926 0.12325 0.46531 0.0
C726 C 0.35722 0.16497 0.53676 0.0
C727 C 0.36582 0.14944 0.47841 0.0
C728 C 0.37817 0.1479 0.44389 0.0
C729 C 0.34286 0.1506 0.54346 0.0
C730 C 0.34005 0.13528 0.51752 0.0
C731 C 0.3514 0.13503 0.48511 0.0
C732 C 0.3259 0.11908 0.5247 0.0
C733 C 0.33058 0.15209 0.57812 0.0
C734 C 0.32888 0.10652 0.5549 0.0
C735 C 0.31469 0.09263 0.56453 0.0
C736 C 0.29718 0.09088 0.5441 0.0
C737 C 0.2947 0.10266 0.51245 0.0
C738 C 0.30897 0.11667 0.50283 0.0
H739 H 0.33104 0.16709 0.59018 0.0
H740 H 0.31505 0.14817 0.57241 0.0
H741 H 0.33635 0.14169 0.59912 0.0
H742 H 0.342 0.10781 0.57169 0.0
H743 H 0.31724 0.0835 0.58857 0.0
H744 H 0.80962 0.43057 0.51385 0.0
H745 H 0.83844 0.40956 0.52312 0.0
H746 H 0.80476 0.35907 0.48953 0.0
H747 H 0.77604 0.3796 0.48081 0.0
H748 H 0.84251 0.37713 0.57075 0.0
H749 H 0.85401 0.35451 0.42529 0.0
H750 H 0.83895 0.37529 0.43786 0.0
H751 H 0.82923 0.35077 0.44057 0.0
C752 C 0.80831 0.41502 0.50835 0.0
C753 C 0.79037 0.40697 0.49613 0.0
C754 C 0.82486 0.40302 0.51354 0.0
C755 C 0.8239 0.38277 0.50631 0.0
C756 C 0.80606 0.37471 0.49431 0.0
H757 H 0.88546 0.28277 0.58784 0.0
H758 H 0.86387 0.31035 0.57491 0.0
C759 C 0.78956 0.3866 0.48926 0.0
C760 C 0.84109 0.3697 0.51292 0.0
H761 H 0.86935 0.33444 0.47168 0.0
C762 C 0.84858 0.36801 0.54898 0.0
C763 C 0.84921 0.35793 0.48446 0.0
C764 C 0.84258 0.35983 0.44479 0.0
C765 C 0.86323 0.35419 0.55768 0.0
C766 C 0.87044 0.34155 0.52969 0.0
C767 C 0.86369 0.34395 0.49326 0.0
C768 C 0.8841 0.32505 0.53807 0.0
C769 C 0.87073 0.35311 0.59691 0.0
C770 C 0.9026 0.3238 0.52103 0.0
C771 C 0.91516 0.30795 0.52853 0.0
C772 C 0.90941 0.29289 0.553 0.0
C773 C 0.89073 0.29417 0.56957 0.0
C774 C 0.87827 0.31001 0.56218 0.0
H775 H 0.86828 0.36713 0.61193 0.0
H776 H 0.86272 0.34136 0.61192 0.0
H777 H 0.88664 0.34958 0.59758 0.0
H778 H 0.90737 0.33517 0.50209 0.0
H779 H 0.92941 0.30762 0.51536 0.0
H780 H 0.58445 0.8007 0.55474 0.0
H781 H 0.60634 0.82883 0.56321 0.0
H782 H 0.63604 0.81442 0.46145 0.0
H783 H 0.61424 0.78629 0.45286 0.0
H784 H 0.66143 0.81883 0.51874 0.0
H785 H 0.61076 0.88247 0.51414 0.0
H786 H 0.60356 0.86384 0.54656 0.0
H787 H 0.60382 0.85838 0.49789 0.0
C788 C 0.59531 0.80377 0.53369 0.0
C789 C 0.59762 0.79113 0.50318 0.0
C790 C 0.60784 0.81992 0.53856 0.0
C791 C 0.62278 0.82388 0.51282 0.0
C792 C 0.62465 0.81168 0.4817 0.0
H793 H 0.70596 0.92193 0.507 0.0
H794 H 0.6784 0.89968 0.49457 0.0
C795 C 0.6122 0.79554 0.4769 0.0
C796 C 0.63758 0.83957 0.51987 0.0
H797 H 0.64326 0.88876 0.53611 0.0
C798 C 0.65742 0.83412 0.52232 0.0
C799 C 0.63243 0.85959 0.52426 0.0
C800 C 0.61151 0.8665 0.52024 0.0
C801 C 0.67217 0.84799 0.5297 0.0
C802 C 0.66697 0.86788 0.5354 0.0
C803 C 0.6472 0.87347 0.53215 0.0
C804 C 0.68203 0.88288 0.5449 0.0
C805 C 0.69327 0.84124 0.53101 0.0
C806 C 0.69274 0.8813 0.57793 0.0
C807 C 0.70843 0.89399 0.58514 0.0
C808 C 0.71374 0.90863 0.55953 0.0
C809 C 0.70225 0.91091 0.5274 0.0
C810 C 0.68653 0.89815 0.52018 0.0
H811 H 0.69525 0.82679 0.51725 0.0
H812 H 0.7031 0.8521 0.51752 0.0
H813 H 0.69791 0.8397 0.5603 0.0
H814 H 0.68929 0.86988 0.59776 0.0
H815 H 0.71667 0.89206 0.61048 0.0
H816 H 0.19653 0.03867 0.11599 0.0
H817 H 0.17914 0.06971 0.10931 0.0
H818 H 0.17545 0.06066 0.99141 0.0
H819 H 0.19235 0.02898 0.99817 0.0
H820 H 0.18635 0.10353 0.07068 0.0
H821 H 0.11807 0.06756 0.02039 0.0
H822 H 0.13824 0.05382 0.03982 0.0
H823 H 0.13958 0.06279 0.99311 0.0
C824 C 0.19196 0.04319 0.08861 0.0
C825 C 0.19546 0.03112 0.0577 0.0
C826 C 0.18216 0.06106 0.0848 0.0
C827 C 0.17561 0.06735 0.05 0.0
C828 C 0.17999 0.05588 0.01868 0.0
H829 H 0.10019 0.16569 0.9919 0.0
H830 H 0.12325 0.13829 0.99082 0.0
C831 C 0.18982 0.03789 0.0225 0.0
C832 C 0.16353 0.08548 0.04729 0.0
H833 H 0.11759 0.102 0.02553 0.0
C834 C 0.17134 0.10323 0.06064 0.0
C835 C 0.1439 0.08504 0.03445 0.0
C836 C 0.13433 0.06628 0.02141 0.0
C837 C 0.16007 0.12052 0.06145 0.0
C838 C 0.14039 0.11999 0.04902 0.0
C839 C 0.13269 0.10235 0.0351 0.0
C840 C 0.12742 0.13751 0.0501 0.0
C841 C 0.16934 0.13924 0.0753 0.0
C842 C 0.12213 0.14628 0.08388 0.0
C843 C 0.10876 0.16194 0.08466 0.0
C844 C 0.10032 0.16896 0.05169 0.0
C845 C 0.10606 0.16039 0.01792 0.0
C846 C 0.11935 0.1448 0.01717 0.0
H847 H 0.18563 0.13835 0.07521 0.0
H848 H 0.16473 0.15196 0.05815 0.0
H849 H 0.16448 0.14196 0.10415 0.0
H850 H 0.12793 0.14068 0.10971 0.0
H851 H 0.10456 0.16813 0.11111 0.0
H852 H 0.98566 0.16588 0.0645 0.0
H853 H 0.95424 0.1486 0.06081 0.0
H854 H 0.92735 0.20014 0.01351 0.0
H855 H 0.95918 0.21749 0.01681 0.0
H856 H 0.90877 0.18176 0.08208 0.0
H857 H 0.92209 0.1292 0.96749 0.0
H858 H 0.94189 0.13149 1.00016 0.0
H859 H 0.93528 0.15213 0.97183 0.0
C860 C 0.97312 0.17336 0.05263 0.0
C861 C 0.97475 0.19294 0.04083 0.0
C862 C 0.95522 0.16351 0.0505 0.0
C863 C 0.93851 0.17307 0.0368 0.0
C864 C 0.94014 0.1925 0.024 0.0
H865 H 0.81867 0.12457 0.05765 0.0
H866 H 0.84571 0.14802 0.04997 0.0
C867 C 0.95826 0.20232 0.02562 0.0
C868 C 0.91928 0.16291 0.03863 0.0
H869 H 0.8958 0.12164 1.0086 0.0
C870 C 0.90567 0.16882 0.06559 0.0
C871 C 0.91543 0.14599 0.01726 0.0
C872 C 0.92935 0.13935 0.98731 0.0
C873 C 0.88878 0.1576 0.07311 0.0
C874 C 0.8853 0.14023 0.05261 0.0
C875 C 0.89853 0.13485 0.02455 0.0
C876 C 0.86865 0.12677 0.06081 0.0
C877 C 0.87539 0.16386 0.10419 0.0
C878 C 0.87249 0.10708 0.06974 0.0
C879 C 0.85711 0.09369 0.07392 0.0
C880 C 0.83752 0.0997 0.06932 0.0
C881 C 0.8336 0.1196 0.06198 0.0
C882 C 0.84905 0.133 0.05751 0.0
H883 H 0.88251 0.1748 0.12265 0.0
H884 H 0.862 0.17069 0.09236 0.0
H885 H 0.87081 0.15103 0.12106 0.0
H886 H 0.88747 0.10193 0.07256 0.0
H887 H 0.86056 0.07846 0.07964 0.0
H888 H 0.89844 0.83586 0.98243 0.0
H889 H 0.87565 0.86343 0.98375 0.0
H890 H 0.87289 0.85965 0.10275 0.0
H891 H 0.89656 0.83249 0.10178 0.0
H892 H 0.83858 0.86875 1.00808 0.0
H893 H 0.88985 0.91597 0.08773 0.0
H894 H 0.89725 0.89277 0.06816 0.0
H895 H 0.88368 0.89349 0.11085 0.0
C896 C 0.89312 0.84096 1.00899 0.0
C897 C 0.89973 0.83227 0.04211 0.0
C898 C 0.87992 0.85662 1.00963 0.0
C899 C 0.87291 0.86394 0.04336 0.0
C900 C 0.87852 0.85457 0.07642 0.0
H901 H 0.79876 0.96064 0.10461 0.0
H902 H 0.81539 0.92907 0.09876 0.0
C903 C 0.89187 0.83891 0.07583 0.0
C904 C 0.86037 0.88182 0.04366 0.0
H905 H 0.85814 0.92883 0.0763 0.0
C906 C 0.84287 0.8819 0.02294 0.0
C907 C 0.86612 0.89909 0.06261 0.0
C908 C 0.88533 0.90047 0.08329 0.0
C909 C 0.83081 0.89865 0.02135 0.0
C910 C 0.83641 0.91569 0.0409 0.0
C911 C 0.8539 0.91567 0.0614 0.0
C912 C 0.82406 0.93358 0.04189 0.0
C913 C 0.812 0.89802 0.99939 0.0
C914 C 0.82302 0.94639 1.01144 0.0
C915 C 0.81357 0.96462 0.01479 0.0
C916 C 0.80521 0.97027 0.04872 0.0
C917 C 0.80539 0.95686 0.07834 0.0
C918 C 0.81479 0.93878 0.07502 0.0
H919 H 0.80872 0.88306 0.98882 0.0
H920 H 0.79953 0.90306 0.01678 0.0
H921 H 0.81315 0.90819 0.97549 0.0
H922 H 0.83025 0.94265 0.98569 0.0
H923 H 0.81373 0.9747 0.99163 0.0
H924 H 0.16418 0.8983 0.11128 0.0
H925 H 0.13675 0.87524 0.10308 0.0
H926 H 0.14791 0.87367 0.98561 0.0
H927 H 0.17492 0.89688 0.99364 0.0
H928 H 0.11045 0.88239 0.99993 0.0
H929 H 0.13188 0.81695 0.08149 0.0
H930 H 0.13319 0.83932 0.10762 0.0
H931 H 0.14922 0.83582 0.06862 0.0
C932 C 0.16099 0.89265 0.08391 0.0
C933 C 0.1715 0.89946 0.05307 0.0
C934 C 0.14539 0.87942 0.07922 0.0
C935 C 0.14033 0.8726 0.04371 0.0
C936 C 0.1515 0.87872 0.01323 0.0
H937 H 0.04277 0.78933 1.00458 0.0
H938 H 0.07551 0.80473 1.00103 0.0
C939 C 0.1669 0.892 0.01785 0.0
C940 C 0.12223 0.86084 0.03757 0.0
H941 H 0.09787 0.81934 0.06436 0.0
C942 C 0.10784 0.86848 0.01368 0.0
C943 C 0.11888 0.84256 0.05507 0.0
C944 C 0.13419 0.83306 0.07934 0.0
C945 C 0.08994 0.85877 1.00802 0.0
C946 C 0.08614 0.84108 0.02715 0.0
C947 C 0.10079 0.83296 0.04983 0.0
C948 C 0.06639 0.83193 0.02677 0.0
C949 C 0.07508 0.86768 0.98198 0.0
C950 C 0.05051 0.84218 0.04206 0.0
C951 C 0.03203 0.83348 0.04408 0.0
C952 C 0.02897 0.8143 0.03092 0.0
C953 C 0.04472 0.80419 0.01458 0.0
C954 C 0.06339 0.81289 0.01283 0.0
H955 H 0.08217 0.87767 0.96166 0.0
H956 H 0.06692 0.85613 0.96669 0.0
H957 H 0.06435 0.87641 0.99818 0.0
H958 H 0.05253 0.85678 0.05333 0.0
H959 H 0.02012 0.84165 0.05657 0.0
H960 H 0.16227 0.97999 0.57441 0.0
H961 H 0.15001 0.94748 0.55781 0.0
H962 H 0.1942 0.94282 0.47289 0.0
H963 H 0.20653 0.97566 0.48935 0.0
H964 H 0.15436 0.93375 0.44969 0.0
H965 H 0.17577 0.89314 0.57626 0.0
H966 H 0.16339 0.91589 0.58563 0.0
H967 H 0.18694 0.91618 0.56313 0.0
C968 C 0.16944 0.97205 0.55228 0.0
C969 C 0.18534 0.98041 0.53313 0.0
C970 C 0.16252 0.95339 0.54303 0.0
C971 C 0.17132 0.94264 0.51439 0.0
C972 C 0.18731 0.95082 0.49528 0.0
H973 H 0.12676 0.8224 0.48399 0.0
H974 H 0.15006 0.84992 0.48427 0.0
C975 C 0.19439 0.9695 0.50481 0.0
C976 C 0.16295 0.92334 0.50358 0.0
H977 H 0.15042 0.87862 0.53911 0.0
C978 C 0.15379 0.92154 0.46894 0.0
C979 C 0.16243 0.90734 0.5285 0.0
C980 C 0.17282 0.9081 0.56534 0.0
C981 C 0.1431 0.9046 0.45951 0.0
C982 C 0.14139 0.88917 0.48554 0.0
C983 C 0.15159 0.89049 0.51924 0.0
C984 C 0.12773 0.8724 0.48001 0.0
C985 C 0.13336 0.90354 0.42208 0.0
C986 C 0.10748 0.87587 0.47699 0.0
C987 C 0.09419 0.86023 0.47686 0.0
C988 C 0.10086 0.84076 0.47982 0.0
C989 C 0.1212 0.83723 0.48121 0.0
C990 C 0.13451 0.85293 0.48161 0.0
H991 H 0.14095 0.91307 0.40164 0.0
H992 H 0.13314 0.88825 0.41141 0.0
H993 H 0.11798 0.90874 0.42452 0.0
H994 H 0.10185 0.89074 0.47643 0.0
H995 H 0.07862 0.86341 0.47571 0.0
H996 H 0.03384 0.19432 0.57478 0.0
H997 H 0.06662 0.17936 0.58041 0.0
H998 H 0.07637 0.18847 0.46379 0.0
H999 H 0.04392 0.20343 0.45817 0.0
H1000 H 0.07851 0.14516 0.53959 0.0
H1001 H 0.1277 0.20842 0.51228 0.0
H1002 H 0.10245 0.21135 0.52656 0.0
H1003 H 0.10818 0.20563 0.47924 0.0
C1004 C 0.04318 0.19347 0.5506 0.0
C1005 C 0.0363 0.19992 0.51601 0.0
C1006 C 0.06183 0.18487 0.55378 0.0
C1007 C 0.074 0.18296 0.52256 0.0
C1008 C 0.06738 0.19003 0.48833 0.0
H1009 H 0.16584 0.09899 0.4744 0.0
H1010 H 0.13717 0.12077 0.47287 0.0
C1011 C 0.04875 0.19841 0.48509 0.0
C1012 C 0.0929 0.17216 0.52471 0.0
H1013 H 0.14215 0.17651 0.50826 0.0
C1014 C 0.09244 0.15205 0.5331 0.0
C1015 C 0.11107 0.18119 0.51629 0.0
C1016 C 0.1125 0.20288 0.50839 0.0
C1017 C 0.10959 0.1406 0.53224 0.0
C1018 C 0.12765 0.14947 0.52244 0.0
C1019 C 0.12823 0.1697 0.51521 0.0
C1020 C 0.14608 0.13789 0.52042 0.0
C1021 C 0.10829 0.11909 0.54189 0.0
C1022 C 0.16096 0.14087 0.54664 0.0
C1023 C 0.17735 0.12851 0.5475 0.0
C1024 C 0.17924 0.11302 0.52194 0.0
C1025 C 0.16488 0.11085 0.49429 0.0
C1026 C 0.14841 0.12315 0.49361 0.0
H1027 H 0.09429 0.11545 0.5561 0.0
H1028 H 0.10913 0.11026 0.51613 0.0
H1029 H 0.12072 0.11468 0.55997 0.0
H1030 H 0.1595 0.15225 0.5674 0.0
H1031 H 0.18827 0.13067 0.56892 0.0
H1032 H 0.78972 0.04522 0.56113 0.0
H1033 H 0.80553 0.07782 0.56468 0.0
H1034 H 0.85692 0.05438 0.51085 0.0
H1035 H 0.84126 0.0222 0.50715 0.0
H1036 H 0.84421 0.09132 0.59351 0.0
H1037 H 0.837 0.099 0.44146 0.0
H1038 H 0.82306 0.08128 0.46778 0.0
H1039 H 0.84815 0.07629 0.45542 0.0
C1040 C 0.80454 0.04705 0.55086 0.0
C1041 C 0.8142 0.03135 0.5334 0.0
C1042 C 0.8135 0.06562 0.5527 0.0
C1043 C 0.8322 0.06857 0.53719 0.0
C1044 C 0.84232 0.05252 0.52221 0.0
H1045 H 0.92312 0.14983 0.49526 0.0
H1046 H 0.89974 0.12273 0.50076 0.0
C1047 C 0.83339 0.03416 0.52019 0.0
C1048 C 0.84107 0.08842 0.53454 0.0
H1049 H 0.85984 0.12056 0.4712 0.0
C1050 C 0.84731 0.09796 0.56688 0.0
C1051 C 0.84501 0.09706 0.4997 0.0
C1052 C 0.83779 0.08799 0.46411 0.0
C1053 C 0.85845 0.11536 0.56511 0.0
C1054 C 0.86326 0.1234 0.53014 0.0
C1055 C 0.85622 0.11431 0.49795 0.0
C1056 C 0.87692 0.14023 0.52613 0.0
C1057 C 0.86587 0.12449 0.60047 0.0
C1058 C 0.87167 0.15916 0.53785 0.0
C1059 C 0.885 0.17474 0.53457 0.0
C1060 C 0.90384 0.17159 0.51967 0.0
C1061 C 0.90881 0.15268 0.50718 0.0
C1062 C 0.89546 0.1372 0.51023 0.0
H1063 H 0.86306 0.11503 0.62494 0.0
H1064 H 0.88188 0.12736 0.5985 0.0
H1065 H 0.85841 0.13879 0.60489 0.0
H1066 H 0.85732 0.16184 0.54976 0.0
H1067 H 0.8808 0.1891 0.54472 0.0
H1068 H 0.97764 0.81547 0.57141 0.0
H1069 H 0.94542 0.83121 0.58004 0.0
H1070 H 0.93174 0.82078 0.46515 0.0
H1071 H 0.96332 0.8047 0.45688 0.0
H1072 H 0.93392 0.86443 0.54449 0.0
H1073 H 0.88066 0.80561 0.5127 0.0
H1074 H 0.90616 0.80057 0.52262 0.0
H1075 H 0.89869 0.80797 0.47687 0.0
C1076 C 0.96747 0.81607 0.5484 0.0
C1077 C 0.97304 0.80902 0.51342 0.0
C1078 C 0.94914 0.82514 0.55324 0.0
C1079 C 0.93603 0.82701 0.52331 0.0
C1080 C 0.94133 0.81919 0.48887 0.0
H1081 H 0.83803 0.90064 0.46055 0.0
H1082 H 0.86525 0.87695 0.46309 0.0
C1083 C 0.95954 0.81021 0.48405 0.0
C1084 C 0.91782 0.83894 0.52652 0.0
H1085 H 0.86871 0.83884 0.50663 0.0
C1086 C 0.91961 0.85873 0.53682 0.0
C1087 C 0.89914 0.83156 0.51624 0.0
C1088 C 0.89601 0.81021 0.50685 0.0
C1089 C 0.90343 0.87149 0.53581 0.0
C1090 C 0.88492 0.86424 0.52445 0.0
C1091 C 0.88298 0.84438 0.51492 0.0
C1092 C 0.86744 0.87718 0.52282 0.0
C1093 C 0.90634 0.89281 0.54581 0.0
C1094 C 0.85938 0.88466 0.55553 0.0
C1095 C 0.84387 0.89803 0.55418 0.0
C1096 C 0.83611 0.9043 0.52002 0.0
C1097 C 0.84367 0.89613 0.48725 0.0
C1098 C 0.85924 0.88266 0.48866 0.0
H1099 H 0.92212 0.89685 0.54722 0.0
H1100 H 0.89895 0.90247 0.52533 0.0
H1101 H 0.89966 0.89567 0.57328 0.0
H1102 H 0.86529 0.88036 0.58216 0.0
H1103 H 0.83805 0.90361 0.58001 0.0
H1104 H 0.71642 0.54686 0.51247 0.0
H1105 H 0.69965 0.57902 0.51352 0.0
H1106 H 0.64764 0.55128 0.55712 0.0
H1107 H 0.66439 0.51957 0.5567 0.0
H1108 H 0.66353 0.59393 0.48376 0.0
H1109 H 0.66183 0.59166 0.63683 0.0
H1110 H 0.67696 0.57533 0.60973 0.0
H1111 H 0.65127 0.57013 0.61631 0.0
C1112 C 0.70128 0.54771 0.52146 0.0
C1113 C 0.6917 0.53089 0.53486 0.0
C1114 C 0.69176 0.56602 0.52228 0.0
C1115 C 0.67258 0.5676 0.53642 0.0
C1116 C 0.66261 0.55051 0.5471 0.0
H1117 H 0.57816 0.64637 0.57121 0.0
H1118 H 0.6018 0.61941 0.56615 0.0
C1119 C 0.67212 0.53239 0.54661 0.0
C1120 C 0.66302 0.587 0.54184 0.0
H1121 H 0.64016 0.61477 0.60779 0.0
C1122 C 0.65872 0.5987 0.51091 0.0
C1123 C 0.65689 0.59328 0.57739 0.0
C1124 C 0.66215 0.58205 0.612 0.0
C1125 C 0.64745 0.61593 0.5144 0.0
C1126 C 0.64044 0.62156 0.54969 0.0
C1127 C 0.64545 0.61032 0.58075 0.0
C1128 C 0.62664 0.6382 0.55456 0.0
C1129 C 0.6423 0.62755 0.48023 0.0
C1130 C 0.63293 0.65772 0.55073 0.0
C1131 C 0.61946 0.67319 0.55396 0.0
C1132 C 0.59949 0.66934 0.56081 0.0
C1133 C 0.59342 0.64977 0.56573 0.0
C1134 C 0.60689 0.63438 0.56283 0.0
H1135 H 0.64726 0.62017 0.45446 0.0
H1136 H 0.62618 0.62985 0.4787 0.0
H1137 H 0.64934 0.64222 0.48174 0.0
H1138 H 0.64816 0.66095 0.54469 0.0
H1139 H 0.62452 0.68809 0.54967 0.0
H1140 H 0.34121 0.59743 0.4941 0.0
H1141 H 0.36863 0.62039 0.49296 0.0
H1142 H 0.3632 0.62873 0.61079 0.0
H1143 H 0.3362 0.60492 0.61248 0.0
H1144 H 0.37215 0.6587 0.5112 0.0
H1145 H 0.42037 0.61353 0.60107 0.0
H1146 H 0.39776 0.60424 0.58185 0.0
H1147 H 0.39735 0.61973 0.62217 0.0
C1148 C 0.34598 0.6039 0.51995 0.0
C1149 C 0.33674 0.59893 0.55357 0.0
C1150 C 0.36155 0.61722 0.51914 0.0
C1151 C 0.36828 0.62599 0.55185 0.0
C1152 C 0.35859 0.62177 0.58529 0.0
H1153 H 0.46154 0.70594 0.60665 0.0
H1154 H 0.43102 0.68732 0.60257 0.0
C1155 C 0.343 0.60831 0.58618 0.0
C1156 C 0.38564 0.63924 0.55076 0.0
H1157 H 0.43192 0.64529 0.58545 0.0
C1158 C 0.38524 0.65574 0.52736 0.0
C1159 C 0.40283 0.63525 0.57148 0.0
C1160 C 0.40475 0.61713 0.59527 0.0
C1161 C 0.40139 0.66857 0.52482 0.0
C1162 C 0.41835 0.66474 0.5461 0.0
C1163 C 0.41882 0.6482 0.56925 0.0
C1164 C 0.43563 0.678 0.54608 0.0
C1165 C 0.40012 0.68634 0.50006 0.0
C1166 C 0.44817 0.67933 0.51527 0.0
C1167 C 0.46581 0.68996 0.5176 0.0
C1168 C 0.47115 0.69923 0.55087 0.0
C1169 C 0.45801 0.69865 0.58087 0.0
C1170 C 0.44052 0.68809 0.57856 0.0
H1171 H 0.38498 0.68879 0.48957 0.0
H1172 H 0.40503 0.69966 0.51516 0.0
H1173 H 0.41003 0.68431 0.476 0.0
H1174 H 0.44474 0.67147 0.49003 0.0
H1175 H 0.4757 0.69005 0.49416 0.0
H1176 H 0.29559 0.45785 0.59505 0.0
H1177 H 0.31366 0.42692 0.58943 0.0
H1178 H 0.33742 0.44614 0.48499 0.0
H1179 H 0.31907 0.47723 0.49048 0.0
H1180 H 0.31649 0.39722 0.52247 0.0
H1181 H 0.38435 0.43672 0.56633 0.0
H1182 H 0.36014 0.44591 0.57714 0.0
H1183 H 0.36921 0.44742 0.5307 0.0
C1184 C 0.30436 0.45528 0.57055 0.0
C1185 C 0.30605 0.46989 0.54326 0.0
C1186 C 0.31462 0.43764 0.56734 0.0
C1187 C 0.32694 0.43435 0.53697 0.0
C1188 C 0.32795 0.44847 0.50865 0.0
H1189 H 0.40039 0.33416 0.48601 0.0
H1190 H 0.37674 0.36118 0.4844 0.0
C1191 C 0.31743 0.46611 0.51166 0.0
C1192 C 0.33995 0.41694 0.53696 0.0
H1193 H 0.38684 0.40264 0.55698 0.0
C1194 C 0.33191 0.39837 0.5297 0.0
C1195 C 0.35994 0.41853 0.54707 0.0
C1196 C 0.36906 0.43816 0.55597 0.0
C1197 C 0.34347 0.3813 0.532 0.0
C1198 C 0.36348 0.38292 0.54199 0.0
C1199 C 0.37147 0.40148 0.54946 0.0
C1200 C 0.37661 0.36559 0.54363 0.0
C1201 C 0.33422 0.36161 0.52428 0.0
C1202 C 0.38431 0.35907 0.57757 0.0
C1203 C 0.39779 0.34352 0.57861 0.0
C1204 C 0.40403 0.33456 0.54563 0.0
C1205 C 0.39598 0.34093 0.51183 0.0
C1206 C 0.38238 0.35626 0.51086 0.0
H1207 H 0.31793 0.36247 0.5234 0.0
H1208 H 0.33947 0.35611 0.49712 0.0
H1209 H 0.33862 0.35077 0.54569 0.0
H1210 H 0.38007 0.36619 0.60315 0.0
H1211 H 0.40384 0.33895 0.60497 0.0
H1212 H 0.53079 0.31312 0.48188 0.0
H1213 H 0.56255 0.33005 0.47609 0.0
H1214 H 0.57428 0.3191 0.59156 0.0
H1215 H 0.54311 0.30184 0.5971 0.0
H1216 H 0.57242 0.36341 0.51414 0.0
H1217 H 0.62654 0.30526 0.54603 0.0
H1218 H 0.60135 0.29985 0.53416 0.0
H1219 H 0.60775 0.30694 0.58063 0.0
C1220 C 0.54041 0.31391 0.50567 0.0
C1221 C 0.53439 0.3063 0.53999 0.0
C1222 C 0.55848 0.32365 0.50244 0.0
C1223 C 0.57091 0.32568 0.53332 0.0
C1224 C 0.56519 0.31742 0.56716 0.0
H1225 H 0.66906 0.39909 0.59897 0.0
H1226 H 0.64189 0.37535 0.59607 0.0
C1227 C 0.54722 0.30776 0.5704 0.0
C1228 C 0.58887 0.33803 0.53153 0.0
H1229 H 0.63789 0.33855 0.55218 0.0
C1230 C 0.58679 0.35789 0.52192 0.0
C1231 C 0.6076 0.33088 0.54203 0.0
C1232 C 0.611 0.30952 0.55094 0.0
C1233 C 0.60275 0.37091 0.52361 0.0
C1234 C 0.62135 0.36384 0.53482 0.0
C1235 C 0.62356 0.34395 0.54391 0.0
C1236 C 0.6387 0.37697 0.53657 0.0
C1237 C 0.59947 0.39228 0.5144 0.0
C1238 C 0.64621 0.38525 0.50405 0.0
C1239 C 0.66166 0.39867 0.50561 0.0
C1240 C 0.66997 0.40415 0.53978 0.0
C1241 C 0.66297 0.3952 0.57228 0.0
C1242 C 0.64744 0.38169 0.57066 0.0
H1243 H 0.58362 0.39615 0.51415 0.0
H1244 H 0.60713 0.40189 0.53459 0.0
H1245 H 0.60555 0.39539 0.48653 0.0
H1246 H 0.63993 0.38149 0.47742 0.0
H1247 H 0.66704 0.40486 0.47995 0.0
H1248 H 0.70118 0.46045 0.95183 0.0
H1249 H 0.6829 0.42995 0.95837 0.0
H1250 H 0.67373 0.44231 0.07413 0.0
H1251 H 0.69152 0.47353 0.06729 0.0
H1252 H 0.68696 0.39712 1.00021 0.0
H1253 H 0.61788 0.4361 0.03659 0.0
H1254 H 0.63931 0.44884 0.01981 0.0
H1255 H 0.63817 0.44074 0.0671 0.0
C1256 C 0.69525 0.45676 0.97871 0.0
C1257 C 0.69742 0.46966 1.00886 0.0
C1258 C 0.68492 0.43919 0.98248 0.0
C1259 C 0.67653 0.43402 0.0165 0.0
C1260 C 0.67968 0.44624 0.04735 0.0
H1261 H 0.59619 0.33856 0.06808 0.0
H1262 H 0.61993 0.36529 0.07133 0.0
C1263 C 0.69002 0.46395 0.04355 0.0
C1264 C 0.6638 0.41631 0.01862 0.0
H1265 H 0.61649 0.40162 0.0336 0.0
C1266 C 0.67157 0.39808 1.0077 0.0
C1267 C 0.64367 0.41759 0.02809 0.0
C1268 C 0.63416 0.43687 0.03826 0.0
C1269 C 0.65977 0.38116 1.00594 0.0
C1270 C 0.63964 0.38254 0.01499 0.0
C1271 C 0.63194 0.40064 0.0266 0.0
C1272 C 0.62618 0.36543 0.01271 0.0
C1273 C 0.66894 0.36192 0.99463 0.0
C1274 C 0.62182 0.35654 0.97857 0.0
C1275 C 0.60802 0.34129 0.97649 0.0
C1276 C 0.59824 0.33479 1.0085 0.0
C1277 C 0.60306 0.34348 0.0427 0.0
C1278 C 0.61676 0.35868 0.04472 0.0
H1279 H 0.68521 0.36234 0.99681 0.0
H1280 H 0.66332 0.34971 1.01201 0.0
H1281 H 0.66503 0.35874 0.96543 0.0
H1282 H 0.62872 0.36173 0.95341 0.0
H1283 H 0.60458 0.335 0.94973 0.0
H1284 H 0.51999 0.66132 0.99127 0.0
H1285 H 0.55212 0.64551 0.98996 0.0
H1286 H 0.5786 0.6981 0.03401 0.0
H1287 H 0.54609 0.71392 0.03593 0.0
H1288 H 0.58321 0.65776 0.94861 0.0
H1289 H 0.60366 0.65553 0.09764 0.0
H1290 H 0.5789 0.66041 0.08235 0.0
H1291 H 0.59726 0.67928 0.07963 0.0
C1292 C 0.53263 0.66944 1.00107 0.0
C1293 C 0.53059 0.68887 0.01352 0.0
C1294 C 0.55099 0.6604 1.00031 0.0
C1295 C 0.56781 0.67058 1.01187 0.0
C1296 C 0.5658 0.68983 0.02547 0.0
H1297 H 0.68851 0.6232 1.00254 0.0
H1298 H 0.66124 0.64686 1.00444 0.0
C1299 C 0.54727 0.69887 0.02657 0.0
C1300 C 0.58735 0.66111 1.00739 0.0
H1301 H 0.62657 0.64265 0.05514 0.0
C1302 C 0.59275 0.65461 0.97191 0.0
C1303 C 0.59988 0.65711 0.03773 0.0
C1304 C 0.59465 0.66328 0.07657 0.0
C1305 C 0.60994 0.64368 0.96613 0.0
C1306 C 0.62206 0.63905 0.99661 0.0
C1307 C 0.6172 0.64627 0.03184 0.0
C1308 C 0.63878 0.62525 0.99296 0.0
C1309 C 0.61486 0.63683 0.92754 0.0
C1310 C 0.63516 0.60536 0.98553 0.0
C1311 C 0.65061 0.59189 0.98455 0.0
C1312 C 0.67003 0.59805 0.9908 0.0
C1313 C 0.67372 0.6181 0.99713 0.0
C1314 C 0.65818 0.63157 0.99852 0.0
H1315 H 0.60691 0.64546 0.90617 0.0
H1316 H 0.63088 0.63794 0.9223 0.0
H1317 H 0.61054 0.6212 0.92455 0.0
H1318 H 0.62028 0.60016 0.98148 0.0
H1319 H 0.64734 0.57654 0.97965 0.0
H1320 H 0.33856 0.52525 1.00119 0.0
H1321 H 0.35296 0.55795 1.00525 0.0
H1322 H 0.30165 0.57867 0.06324 0.0
H1323 H 0.28711 0.54557 0.05927 0.0
H1324 H 0.33461 0.59144 0.97313 0.0
H1325 H 0.34875 0.60098 0.12399 0.0
H1326 H 0.34533 0.57705 0.10342 0.0
H1327 H 0.32468 0.593 0.10986 0.0
C1328 C 0.33042 0.53671 0.01517 0.0
C1329 C 0.31165 0.53294 0.02961 0.0
C1330 C 0.33867 0.55538 0.01752 0.0
C1331 C 0.32837 0.57077 0.03441 0.0
C1332 C 0.30994 0.56694 0.05039 0.0
H1333 H 0.37734 0.69104 0.04554 0.0
H1334 H 0.35307 0.66431 0.04841 0.0
C1335 C 0.30166 0.54808 0.04819 0.0
C1336 C 0.3367 0.59088 0.0326 0.0
H1337 H 0.35956 0.62614 0.08427 0.0
C1338 C 0.33982 0.59916 0.99749 0.0
C1339 C 0.34333 0.601 0.0644 0.0
C1340 C 0.34051 0.59261 0.10264 0.0
C1341 C 0.35016 0.61682 0.9932 0.0
C1342 C 0.35778 0.62637 0.0248 0.0
C1343 C 0.35372 0.61873 0.06009 0.0
C1344 C 0.37173 0.643 0.02139 0.0
C1345 C 0.3533 0.62487 0.95477 0.0
C1346 C 0.39016 0.63985 1.00513 0.0
C1347 C 0.40396 0.65497 1.00353 0.0
C1348 C 0.39963 0.6736 0.01813 0.0
C1349 C 0.38098 0.6769 0.03367 0.0
C1350 C 0.36718 0.66164 0.03557 0.0
H1351 H 0.3421 0.61926 0.93507 0.0
H1352 H 0.35282 0.64117 0.95475 0.0
H1353 H 0.36796 0.62021 0.94463 0.0
H1354 H 0.39405 0.62551 0.99441 0.0
H1355 H 0.41819 0.65201 0.99134 0.0
H1356 H 0.47229 0.31174 0.07121 0.0
H1357 H 0.44065 0.32872 0.07871 0.0
H1358 H 0.42744 0.31832 0.96363 0.0
H1359 H 0.45846 0.301 0.95644 0.0
H1360 H 0.43046 0.36222 0.04213 0.0
H1361 H 0.37564 0.30474 1.01068 0.0
H1362 H 0.40092 0.29905 0.02132 0.0
H1363 H 0.39399 0.30645 0.97528 0.0
C1364 C 0.46235 0.31264 0.04789 0.0
C1365 C 0.46791 0.30519 0.01319 0.0
C1366 C 0.44435 0.32242 0.05209 0.0
C1367 C 0.43155 0.32463 0.0218 0.0
C1368 C 0.43681 0.31649 0.9876 0.0
H1369 H 0.33494 0.40034 0.95881 0.0
H1370 H 0.36172 0.37614 0.96112 0.0
C1371 C 0.4547 0.3068 0.9834 0.0
C1372 C 0.41369 0.3371 0.0245 0.0
H1373 H 0.36458 0.33821 1.00475 0.0
C1374 C 0.41601 0.35688 0.03453 0.0
C1375 C 0.39483 0.33018 0.0143 0.0
C1376 C 0.39114 0.30889 1.00515 0.0
C1377 C 0.40016 0.37005 0.03341 0.0
C1378 C 0.38146 0.36324 0.02227 0.0
C1379 C 0.379 0.34341 0.0129 0.0
C1380 C 0.36428 0.37658 0.02079 0.0
C1381 C 0.40363 0.39132 0.04314 0.0
C1382 C 0.35656 0.38435 0.05356 0.0
C1383 C 0.34131 0.39801 0.05234 0.0
C1384 C 0.33344 0.40428 0.01827 0.0
C1385 C 0.34067 0.39585 0.98545 0.0
C1386 C 0.35598 0.38208 0.98673 0.0
H1387 H 0.41952 0.39498 0.04417 0.0
H1388 H 0.39636 0.40112 0.02275 0.0
H1389 H 0.39721 0.3944 0.07075 0.0
H1390 H 0.36254 0.38003 0.08013 0.0
H1391 H 0.33574 0.40378 0.07822 0.0
H1392 H 0.99842 0.26203 0.44761 0.0
H1393 H 0.01475 0.26949 0.38853 0.0
H1394 H 0.96002 0.26053 0.33091 0.0
H1395 H 0.94372 0.25362 0.38935 0.0
H1396 H 0.01923 0.24447 0.3315 0.0
H1397 H 0.97866 0.30896 0.2795 0.0
H1398 H 0.97695 0.30094 0.32698 0.0
H1399 H 0.96217 0.2895 0.29164 0.0
C1400 C 0.98976 0.26237 0.42249 0.0
C1401 C 0.96971 0.25736 0.42333 0.0
C1402 C 0.99914 0.26644 0.38862 0.0
C1403 C 0.98863 0.26582 0.35502 0.0
C1404 C 0.96846 0.26162 0.35623 0.0
H1405 H 0.01173 0.25238 0.12089 0.0
H1406 H 0.99778 0.25513 0.18323 0.0
C1407 C 0.95914 0.25755 0.38985 0.0
C1408 C 0.99883 0.2676 0.31843 0.0
H1409 H 0.99585 0.28984 0.23354 0.0
C1410 C 0.01432 0.25464 0.31035 0.0
C1411 C 0.99245 0.28079 0.2905 0.0
C1412 C 0.97678 0.29596 0.29773 0.0
C1413 C 0.02299 0.25397 0.27497 0.0
C1414 C 0.01616 0.26669 0.24678 0.0
C1415 C 1.001 0.27996 0.255 0.0
C1416 C 0.02439 0.26614 0.20848 0.0
C1417 C 0.03897 0.23915 0.26755 0.0
C1418 C 0.04387 0.27182 0.20164 0.0
C1419 C 0.05187 0.27038 0.16597 0.0
C1420 C 0.0406 0.26313 0.13623 0.0
C1421 C 0.0209 0.25795 0.14302 0.0
C1422 C 0.01288 0.25953 0.1787 0.0
H1423 H 0.04012 0.22805 0.28997 0.0
H1424 H 0.03628 0.23145 0.24093 0.0
H1425 H 0.05328 0.24686 0.26534 0.0
H1426 H 0.05298 0.27719 0.22403 0.0
H1427 H 0.06706 0.27454 0.16196 0.0
H1428 H 0.7605 0.99514 0.44683 0.0
H1429 H 0.7583 0.01031 0.38553 0.0
H1430 H 0.72673 0.95988 0.34493 0.0
H1431 H 0.72888 0.94458 0.40601 0.0
H1432 H 0.77317 0.99571 0.31841 0.0
H1433 H 0.69249 0.00587 0.30977 0.0
H1434 H 0.70499 1.00099 0.35289 0.0
H1435 H 0.70004 0.98132 0.32109 0.0
C1436 C 0.75296 0.98729 0.42501 0.0
C1437 C 0.74492 0.96855 0.43159 0.0
C1438 C 0.75173 0.99601 0.38986 0.0
C1439 C 0.74219 0.98636 0.36052 0.0
C1440 C 0.73388 0.96781 0.36715 0.0
H1441 H 0.75703 0.01032 0.12401 0.0
H1442 H 0.75584 0.99532 0.1855 0.0
C1443 C 0.7352 0.95903 0.4022 0.0
C1444 C 0.74166 0.99531 0.32271 0.0
H1445 H 0.71061 0.0114 0.25455 0.0
C1446 C 0.75948 0.99917 0.30451 0.0
C1447 C 0.72383 1.00002 0.30454 0.0
C1448 C 0.70423 0.99703 0.32312 0.0
C1449 C 0.75996 0.00727 0.26862 0.0
C1450 C 0.74211 0.0115 0.25006 0.0
C1451 C 0.72429 0.00797 0.2685 0.0
C1452 C 0.74174 0.02009 0.21194 0.0
C1453 C 0.7796 0.01156 0.25112 0.0
C1454 C 0.73354 0.03873 0.20574 0.0
C1455 C 0.73422 0.04739 0.17051 0.0
C1456 C 0.74302 0.03756 0.14047 0.0
C1457 C 0.75043 0.01851 0.14644 0.0
C1458 C 0.74981 0.0099 0.18173 0.0
H1459 H 0.7916 0.01191 0.27196 0.0
H1460 H 0.78307 0.99989 0.23072 0.0
H1461 H 0.77933 0.02584 0.2363 0.0
H1462 H 0.72709 0.04685 0.22846 0.0
H1463 H 0.72829 0.06203 0.16712 0.0
H1464 H 0.95082 0.71931 0.14524 0.0
H1465 H 0.96625 0.71721 0.2062 0.0
H1466 H 0.00384 0.76601 0.17845 0.0
H1467 H 0.98952 0.76714 0.1167 0.0
H1468 H 0.02413 0.74228 0.2155 0.0
H1469 H 0.9546 0.7497 0.29298 0.0
H1470 H 0.95441 0.72827 0.26429 0.0
H1471 H 0.95568 0.75231 0.24345 0.0
C1472 C 0.96245 0.72955 0.15204 0.0
C1473 C 0.96864 0.74364 0.12604 0.0
C1474 C 0.97114 0.72849 0.18723 0.0
C1475 C 0.98582 0.7419 0.19787 0.0
C1476 C 0.99243 0.75558 0.17145 0.0
H1477 H 0.01631 0.76788 0.42687 0.0
H1478 H 1.00188 0.76587 0.36535 0.0
C1479 C 0.9841 0.7563 0.13597 0.0
C1480 C 0.99448 0.74169 0.23614 0.0
H1481 H 0.98279 0.74123 0.32828 0.0
C1482 C 0.01503 0.74216 0.24011 0.0
C1483 C 0.98277 0.74188 0.26864 0.0
C1484 C 0.96066 0.74324 0.26717 0.0
C1485 C 0.02412 0.74286 0.27514 0.0
C1486 C 0.01244 0.74208 0.30764 0.0
C1487 C 0.99189 0.74157 0.30367 0.0
C1488 C 0.02109 0.74271 0.34589 0.0
C1489 C 0.04614 0.74529 0.2766 0.0
C1490 C 0.03645 0.73007 0.3565 0.0
C1491 C 0.04521 0.73169 0.39156 0.0
C1492 C 0.03843 0.74557 0.41746 0.0
C1493 C 0.02225 0.75732 0.40764 0.0
C1494 C 0.01385 0.75606 0.37229 0.0
H1495 H 0.05189 0.75203 0.25079 0.0
H1496 H 0.05068 0.75461 0.30031 0.0
H1497 H 0.05311 0.73065 0.27952 0.0
H1498 H 0.04184 0.71901 0.33758 0.0
H1499 H 0.05739 0.72211 0.39826 0.0
H1500 H 0.21719 0.03984 0.40754 0.0
H1501 H 0.22784 0.02727 0.34768 0.0
H1502 H 0.27554 0.9965 0.40038 0.0
H1503 H 0.26495 0.00935 0.46113 0.0
H1504 H 0.26811 0.02944 0.31118 0.0
H1505 H 0.24036 0.95418 0.34157 0.0
H1506 H 0.23145 0.97539 0.36639 0.0
H1507 H 0.25569 0.96631 0.3752 0.0
C1508 C 0.2301 0.03056 0.40654 0.0
C1509 C 0.24017 0.02552 0.43923 0.0
C1510 C 0.23619 0.02342 0.37217 0.0
C1511 C 0.25237 0.01081 0.36947 0.0
C1512 C 0.26293 0.00615 0.40184 0.0
H1513 H 0.278 0.94036 0.1711 0.0
H1514 H 0.27942 0.95427 0.23345 0.0
C1515 C 0.25696 0.01358 0.43648 0.0
C1516 C 0.2573 1.00207 0.33275 0.0
H1517 H 0.25104 0.96049 0.28108 0.0
C1518 C 0.26464 0.01428 0.30468 0.0
C1519 C 0.25277 0.98232 0.32422 0.0
C1520 C 0.24455 0.96868 0.35322 0.0
C1521 C 0.26733 0.00737 0.26826 0.0
C1522 C 0.2619 0.98783 0.2592 0.0
C1523 C 0.25515 0.97546 0.28769 0.0
C1524 C 0.26231 0.98013 0.22031 0.0
C1525 C 0.27609 0.02111 0.24 0.0
C1526 C 0.25233 0.98996 0.19169 0.0
C1527 C 0.25171 0.98215 0.15578 0.0
C1528 C 0.26071 0.96404 0.14761 0.0
C1529 C 0.27089 0.95432 0.17619 0.0
C1530 C 0.27167 0.96225 0.21202 0.0
H1531 H 0.28561 0.0323 0.25337 0.0
H1532 H 0.28493 0.01304 0.21914 0.0
H1533 H 0.26409 0.02901 0.22551 0.0
H1534 H 0.24451 0.00348 0.19725 0.0
H1535 H 0.24377 0.99012 0.13466 0.0
H1536 H 0.0151 0.76871 0.92532 0.0
H1537 H 0.02386 0.7617 0.86091 0.0
H1538 H 0.97567 0.72088 0.85332 0.0
H1539 H 0.9671 0.7277 0.91811 0.0
H1540 H 0.01019 0.71001 0.80931 0.0
H1541 H 0.98529 0.78654 0.78537 0.0
H1542 H 0.0046 0.78426 0.81897 0.0
H1543 H 0.9809 0.77374 0.82829 0.0
C1544 C 0.00706 0.75744 0.91053 0.0
C1545 C 0.99074 0.74837 0.92702 0.0
C1546 C 0.01186 0.75367 0.87349 0.0
C1547 C 1.0002 0.74103 0.85195 0.0
C1548 C 0.9849 0.73067 0.86929 0.0
H1549 H 0.99331 0.76042 0.61284 0.0
H1550 H 0.98368 0.75185 0.67636 0.0
C1551 C 0.98016 0.73438 0.90649 0.0
C1552 C 1.00243 0.74062 0.8108 0.0
H1553 H 0.99967 0.77015 0.73444 0.0
C1554 C 0.00783 0.72313 0.79288 0.0
C1555 C 0.99887 0.7576 0.78912 0.0
C1556 C 0.99191 0.77657 0.80627 0.0
C1557 C 0.01047 0.72238 0.75413 0.0
C1558 C 0.0078 0.73962 0.73269 0.0
C1559 C 1.00177 0.75691 0.75061 0.0
C1560 C 0.01224 0.74063 0.69213 0.0
C1561 C 0.01596 0.70308 0.73652 0.0
C1562 C 0.03126 0.73656 0.67915 0.0
C1563 C 0.03664 0.74125 0.64278 0.0
C1564 C 0.02314 0.75002 0.61844 0.0
C1565 C 0.0038 0.75304 0.63057 0.0
C1566 C 0.99839 0.74837 0.66706 0.0
H1567 H 0.01113 0.69047 0.75375 0.0
H1568 H 0.00941 0.70162 0.70851 0.0
H1569 H 0.03217 0.70226 0.73384 0.0
H1570 H 0.04241 0.73113 0.69789 0.0
H1571 H 0.05183 0.73943 0.63452 0.0
H1572 H 0.22193 0.99624 0.66131 0.0
H1573 H 0.23396 0.98827 0.72309 0.0
H1574 H 0.2902 0.01356 0.69603 0.0
H1575 H 0.27796 0.02179 0.63375 0.0
H1576 H 0.26444 0.96798 0.75566 0.0
H1577 H 0.27124 0.04831 0.7811 0.0
H1578 H 0.25952 0.03862 0.74024 0.0
H1579 H 0.28581 0.0383 0.74419 0.0
C1580 C 0.23712 0.9994 0.66801 0.0
C1581 C 0.24906 0.00946 0.64261 0.0
C1582 C 0.24397 0.99496 0.7035 0.0
C1583 C 0.26286 1.0007 0.71469 0.0
C1584 C 0.27544 0.00929 0.68832 0.0
H1585 H 0.28175 0.97036 0.95124 0.0
H1586 H 0.29181 0.97645 0.88679 0.0
C1587 C 0.26858 0.01366 0.65249 0.0
C1588 C 0.26815 0.99931 0.75479 0.0
H1589 H 0.27409 0.02757 0.83236 0.0
C1590 C 0.267 0.98095 0.77238 0.0
C1591 C 0.27123 0.01629 0.77675 0.0
C1592 C 0.27191 0.03654 0.75985 0.0
C1593 C 0.26786 0.97918 0.8112 0.0
C1594 C 0.27029 0.99624 0.83326 0.0
C1595 C 0.27243 0.01448 0.81555 0.0
C1596 C 0.26746 0.9958 0.87431 0.0
C1597 C 0.26474 0.95921 0.82833 0.0
C1598 C 0.25137 0.00579 0.88965 0.0
C1599 C 0.24587 1.00258 0.92642 0.0
C1600 C 0.25645 0.98952 0.94894 0.0
C1601 C 0.27362 0.98089 0.93479 0.0
C1602 C 0.27913 0.98406 0.89772 0.0
H1603 H 0.25982 0.94815 0.80769 0.0
H1604 H 0.27874 0.95399 0.84058 0.0
H1605 H 0.25363 0.95999 0.85076 0.0
H1606 H 0.24213 0.01495 0.8724 0.0
H1607 H 0.23235 0.0091 0.93639 0.0
H1608 H 0.99108 0.24014 0.93186 0.0
H1609 H 0.98454 0.24829 0.86701 0.0
H1610 H 0.03504 0.28642 0.86593 0.0
H1611 H 0.04133 0.27854 0.93127 0.0
H1612 H 0.00291 0.29949 0.81817 0.0
H1613 H 0.02362 0.22169 0.79535 0.0
H1614 H 0.0034 0.22485 0.82664 0.0
H1615 H 0.02731 0.23393 0.83906 0.0
C1616 C 1.00013 0.2511 0.91837 0.0
C1617 C 0.01642 0.25907 0.93687 0.0
C1618 C 0.99658 0.25552 0.88109 0.0
C1619 C 0.00952 0.26767 0.86125 0.0
C1620 C 0.02483 0.27702 0.88055 0.0
H1621 H 0.02199 0.24627 0.62474 0.0
H1622 H 0.03022 0.25483 0.68877 0.0
C1623 C 0.02829 0.2727 0.91806 0.0
C1624 C 0.00856 0.26843 0.81991 0.0
H1625 H 0.01148 0.23901 0.74349 0.0
C1626 C 0.00487 0.28631 0.80177 0.0
C1627 C 0.01159 0.25134 0.7983 0.0
C1628 C 0.0169 0.23189 0.81571 0.0
C1629 C 0.00346 0.28738 0.76278 0.0
C1630 C 0.00556 0.27006 0.7413 0.0
C1631 C 0.00981 0.25234 0.75959 0.0
C1632 C 1.00264 0.26946 0.70015 0.0
C1633 C 0.99996 0.30711 0.74506 0.0
C1634 C 0.98482 0.27564 0.68423 0.0
C1635 C 0.98038 0.27119 0.64723 0.0
C1636 C 0.99356 0.26035 0.62539 0.0
C1637 C 0.01186 0.25526 0.64047 0.0
C1638 C 0.01641 0.2599 0.67733 0.0
H1639 H 0.00545 0.31923 0.76288 0.0
H1640 H 0.00721 0.30815 0.71762 0.0
H1641 H 0.98395 0.30929 0.74123 0.0
H1642 H 0.97364 0.28251 0.70112 0.0
H1643 H 0.96584 0.27458 0.63679 0.0
H1644 H 0.73186 0.95969 0.64241 0.0
H1645 H 0.72251 0.96715 0.70642 0.0
H1646 H 0.7489 0.02442 0.69617 0.0
H1647 H 0.7583 0.01686 0.63221 0.0
H1648 H 0.75189 0.97464 0.7586 0.0
H1649 H 0.6987 0.03608 0.75603 0.0
H1650 H 0.70298 0.02042 0.71648 0.0
H1651 H 0.7198 0.03997 0.72716 0.0
C1652 C 0.73468 0.97426 0.65322 0.0
C1653 C 0.7452 0.98796 0.63193 0.0
C1654 C 0.72958 0.97842 0.68999 0.0
C1655 C 0.73484 0.99642 0.70625 0.0
C1656 C 0.74426 0.01061 0.68418 0.0
H1657 H 0.75888 0.05089 0.90965 0.0
H1658 H 0.74881 0.04114 0.84784 0.0
C1659 C 0.74948 0.00637 0.64744 0.0
C1660 C 0.7331 0.99928 0.74716 0.0
H1661 H 0.7157 0.03071 0.81323 0.0
C1662 C 0.74367 0.98668 0.77067 0.0
C1663 C 0.72242 0.01499 0.76296 0.0
C1664 C 0.71017 0.02855 0.73942 0.0
C1665 C 0.74486 0.99004 0.80909 0.0
C1666 C 0.73475 0.0062 0.82484 0.0
C1667 C 0.72341 0.01826 0.80144 0.0
C1668 C 0.73806 0.01252 0.86409 0.0
C1669 C 0.758 0.97698 0.83202 0.0
C1670 C 0.73468 1.00006 0.89468 0.0
C1671 C 0.74052 0.00569 0.93065 0.0
C1672 C 0.7498 0.02387 0.93638 0.0
C1673 C 0.7519 0.0367 0.90612 0.0
C1674 C 0.74609 0.03115 0.87062 0.0
H1675 H 0.76764 0.96762 0.81458 0.0
H1676 H 0.76742 0.98587 0.85069 0.0
H1677 H 0.74881 0.96716 0.84935 0.0
H1678 H 0.7281 0.98575 0.89062 0.0
H1679 H 0.7388 0.99547 0.95337 0.0
H1680 H 0.4986 0.76029 0.94935 0.0
H1681 H 0.51494 0.76814 0.89046 0.0
H1682 H 0.46011 0.76015 0.83272 0.0
H1683 H 0.44378 0.7529 0.89095 0.0
H1684 H 0.5193 0.74383 0.83237 0.0
H1685 H 0.47888 0.80902 0.78318 0.0
H1686 H 0.47717 0.80045 0.83032 0.0
H1687 H 0.46232 0.7895 0.79454 0.0
C1688 C 0.48992 0.76089 0.92425 0.0
C1689 C 0.46983 0.75607 0.92502 0.0
C1690 C 0.49931 0.76519 0.89049 0.0
C1691 C 0.48877 0.76499 0.8569 0.0
C1692 C 0.46857 0.76093 0.85804 0.0
H1693 H 0.51146 0.75365 0.62233 0.0
H1694 H 0.49765 0.75589 0.68485 0.0
C1695 C 0.45924 0.75664 0.89155 0.0
C1696 C 0.49894 0.76716 0.82034 0.0
H1697 H 0.49588 0.79032 0.73634 0.0
C1698 C 0.51439 0.75425 0.81166 0.0
C1699 C 0.49256 0.78067 0.79296 0.0
C1700 C 0.47696 0.79582 0.80087 0.0
C1701 C 0.52301 0.75396 0.77621 0.0
C1702 C 0.51615 0.76699 0.74855 0.0
C1703 C 0.50104 0.78021 0.75738 0.0
C1704 C 0.52428 0.76679 0.71016 0.0
C1705 C 0.53895 0.7392 0.76811 0.0
C1706 C 0.54372 0.77261 0.70329 0.0
C1707 C 0.55164 0.77146 0.66752 0.0
C1708 C 0.54034 0.76435 0.6377 0.0
C1709 C 0.52067 0.75907 0.64453 0.0
C1710 C 0.51272 0.76037 0.6803 0.0
H1711 H 0.54021 0.72792 0.7902 0.0
H1712 H 0.53613 0.73171 0.74133 0.0
H1713 H 0.55325 0.74692 0.76586 0.0
H1714 H 0.55287 0.77784 0.72574 0.0
H1715 H 0.56682 0.77568 0.66348 0.0
H1716 H 0.25939 0.49599 0.94535 0.0
H1717 H 0.25755 0.51108 0.88398 0.0
H1718 H 0.22486 0.4613 0.84368 0.0
H1719 H 0.22666 0.44606 0.90488 0.0
H1720 H 0.27215 0.4958 0.81707 0.0
H1721 H 0.19177 0.50819 0.80824 0.0
H1722 H 0.20413 0.50316 0.85144 0.0
H1723 H 0.1987 0.4835 0.81989 0.0
C1724 C 0.25169 0.48826 0.92358 0.0
C1725 C 0.24323 0.46972 0.93027 0.0
C1726 C 0.25065 0.49694 0.8884 0.0
C1727 C 0.24092 0.48745 0.85914 0.0
C1728 C 0.23218 0.4691 0.86586 0.0
H1729 H 0.25606 0.51018 0.62265 0.0
H1730 H 0.25454 0.49552 0.68438 0.0
C1731 C 0.23329 0.46036 0.90096 0.0
C1732 C 0.24065 0.49633 0.82131 0.0
H1733 H 0.2101 0.51327 0.75312 0.0
C1734 C 0.25858 0.49964 0.80314 0.0
C1735 C 0.22296 0.50154 0.80314 0.0
C1736 C 0.20328 0.4991 0.82172 0.0
C1737 C 0.2593 0.5077 0.76726 0.0
C1738 C 0.24159 0.51244 0.7487 0.0
C1739 C 0.22366 0.50945 0.7671 0.0
C1740 C 0.24148 0.52093 0.71055 0.0
C1741 C 0.27906 0.51137 0.74972 0.0
C1742 C 0.23403 0.53986 0.70422 0.0
C1743 C 0.23492 0.54834 0.66885 0.0
C1744 C 0.24318 0.53803 0.63887 0.0
C1745 C 0.2499 0.51873 0.64504 0.0
C1746 C 0.24908 0.51031 0.68044 0.0
H1747 H 0.29108 0.51132 0.77053 0.0
H1748 H 0.28214 0.49961 0.72928 0.0
H1749 H 0.27923 0.52566 0.73492 0.0
H1750 H 0.22797 0.54831 0.72689 0.0
H1751 H 0.22952 0.56317 0.66527 0.0
H1752 H 0.50844 0.2566 0.93565 0.0
H1753 H 0.49336 0.25465 0.87428 0.0
H1754 H 0.54492 0.22553 0.83234 0.0
H1755 H 0.5602 0.22754 0.89351 0.0
H1756 H 0.50776 0.27105 0.80784 0.0
H1757 H 0.49986 0.19023 0.7955 0.0
H1758 H 0.50416 0.20231 0.83924 0.0
H1759 H 0.52411 0.19843 0.80756 0.0
C1760 C 0.5166 0.2497 0.9135 0.0
C1761 C 0.53566 0.24234 0.91974 0.0
C1762 C 0.50791 0.24857 0.87832 0.0
C1763 C 0.5179 0.23981 0.84858 0.0
C1764 C 0.53675 0.2321 0.85485 0.0
H1765 H 0.49424 0.25646 0.61267 0.0
H1766 H 0.50893 0.25498 0.67439 0.0
C1767 C 0.54551 0.23332 0.88996 0.0
C1768 C 0.50897 0.23952 0.81074 0.0
H1769 H 0.49359 0.20894 0.74127 0.0
C1770 C 0.50464 0.25746 0.79334 0.0
C1771 C 0.5047 0.22181 0.7918 0.0
C1772 C 0.50826 0.20207 0.80951 0.0
C1773 C 0.4965 0.25818 0.7575 0.0
C1774 C 0.49269 0.24048 0.73818 0.0
C1775 C 0.49668 0.22252 0.75582 0.0
C1776 C 0.4842 0.24039 0.69998 0.0
C1777 C 0.49176 0.27792 0.7408 0.0
C1778 C 0.46565 0.23209 0.69326 0.0
C1779 C 0.45714 0.23296 0.65788 0.0
C1780 C 0.46705 0.24205 0.62824 0.0
C1781 C 0.48599 0.24963 0.63478 0.0
C1782 C 0.49443 0.24884 0.67019 0.0
H1783 H 0.49122 0.28968 0.76209 0.0
H1784 H 0.50328 0.28185 0.72042 0.0
H1785 H 0.47744 0.2775 0.72609 0.0
H1786 H 0.4575 0.22537 0.71566 0.0
H1787 H 0.44259 0.22689 0.65403 0.0
H1788 H 0.77691 0.44248 0.6542 0.0
H1789 H 0.77877 0.45752 0.7156 0.0
H1790 H 0.7497 0.50921 0.67406 0.0
H1791 H 0.7478 0.49434 0.61251 0.0
H1792 H 0.79581 0.49305 0.74069 0.0
H1793 H 0.71509 0.49255 0.76218 0.0
H1794 H 0.72683 0.47858 0.72597 0.0
H1795 H 0.72305 0.50453 0.72051 0.0
C1796 C 0.771 0.45711 0.65794 0.0
C1797 C 0.76197 0.46705 0.62827 0.0
C1798 C 0.77209 0.46569 0.69318 0.0
C1799 C 0.76406 0.48436 0.69975 0.0
C1800 C 0.75564 0.49462 0.66995 0.0
H1801 H 0.77912 0.55966 0.89359 0.0
H1802 H 0.78077 0.54449 0.83232 0.0
C1803 C 0.75462 0.48609 0.63465 0.0
C1804 C 0.76425 0.49292 0.73785 0.0
H1805 H 0.73422 0.5086 0.80778 0.0
C1806 C 0.78234 0.49646 0.75535 0.0
C1807 C 0.74668 0.49713 0.7573 0.0
C1808 C 0.72679 0.49287 0.74077 0.0
C1809 C 0.78334 0.50436 0.79137 0.0
C1810 C 0.76578 0.50901 0.81044 0.0
C1811 C 0.74769 0.50518 0.79316 0.0
C1812 C 0.76579 0.51781 0.84835 0.0
C1813 C 0.8032 0.50737 0.80897 0.0
C1814 C 0.75678 0.50795 0.87799 0.0
C1815 C 0.75586 0.51658 0.9132 0.0
C1816 C 0.76367 0.53543 0.91957 0.0
C1817 C 0.77299 0.54512 0.88993 0.0
C1818 C 0.774 0.53642 0.85477 0.0
H1819 H 0.81479 0.4987 0.79483 0.0
H1820 H 0.80724 0.52312 0.80709 0.0
H1821 H 0.80291 0.50322 0.83868 0.0
H1822 H 0.75034 0.49358 0.87382 0.0
H1823 H 0.74874 0.50855 0.93528 0.0
H1824 H 0.54323 0.23182 0.13295 0.0
H1825 H 0.53489 0.22392 0.19701 0.0
H1826 H 0.47669 0.2472 0.18008 0.0
H1827 H 0.48535 0.25559 0.11611 0.0
H1828 H 0.49388 0.26505 0.23541 0.0
H1829 H 0.50428 0.18553 0.25801 0.0
H1830 H 0.52536 0.19645 0.2366 0.0
H1831 H 0.50227 0.19605 0.2123 0.0
C1832 C 0.52831 0.23421 0.14233 0.0
C1833 C 0.51473 0.24375 0.11921 0.0
C1834 C 0.52355 0.22977 0.17916 0.0
C1835 C 0.50505 0.23476 0.19368 0.0
C1836 C 0.49101 0.24305 0.16966 0.0
H1837 H 0.46609 0.2264 0.42518 0.0
H1838 H 0.47246 0.21808 0.36004 0.0
C1839 C 0.49583 0.24758 0.13287 0.0
C1840 C 0.50156 0.23437 0.23464 0.0
H1841 H 0.5054 0.20596 0.31266 0.0
C1842 C 0.49616 0.252 0.25208 0.0
C1843 C 0.50447 0.21742 0.25681 0.0
C1844 C 0.50922 0.19776 0.23991 0.0
C1845 C 0.49414 0.25333 0.29071 0.0
C1846 C 0.49803 0.23667 0.31303 0.0
C1847 C 0.50277 0.21882 0.2957 0.0
C1848 C 0.4971 0.2379 0.3543 0.0
C1849 C 0.48777 0.27265 0.30729 0.0
C1850 C 0.50955 0.25084 0.37344 0.0
C1851 C 0.50596 0.25552 0.41056 0.0
C1852 C 0.49012 0.24703 0.4296 0.0
C1853 C 0.47879 0.23268 0.41153 0.0
C1854 C 0.48228 0.2281 0.37415 0.0
H1855 H 0.48054 0.28224 0.28646 0.0
H1856 H 0.47745 0.27032 0.33066 0.0
H1857 H 0.50085 0.28053 0.31799 0.0
H1858 H 0.52122 0.25842 0.35891 0.0
H1859 H 0.5146 0.26699 0.4235 0.0
H1860 H 0.77453 0.46303 0.41865 0.0
H1861 H 0.78229 0.47106 0.35431 0.0
H1862 H 0.75288 0.52675 0.36653 0.0
H1863 H 0.74464 0.51835 0.43061 0.0
H1864 H 0.73742 0.50667 0.31203 0.0
H1865 H 0.8179 0.50474 0.29253 0.0
H1866 H 0.80889 0.48301 0.31487 0.0
H1867 H 0.80672 0.5064 0.33773 0.0
C1868 C 0.77074 0.47746 0.40819 0.0
C1869 C 0.75951 0.49034 0.42997 0.0
C1870 C 0.77508 0.48202 0.3712 0.0
C1871 C 0.76833 0.49962 0.35526 0.0
C1872 C 0.75838 0.51313 0.37802 0.0
H1873 H 0.77648 0.53951 0.12543 0.0
H1874 H 0.78424 0.53294 0.19068 0.0
C1875 C 0.75391 0.50848 0.41489 0.0
C1876 C 0.76875 0.50249 0.31414 0.0
H1877 H 0.79829 0.50166 0.23736 0.0
C1878 C 0.75081 0.50575 0.29589 0.0
C1879 C 0.78615 0.50136 0.29271 0.0
C1880 C 0.80602 0.49888 0.31049 0.0
C1881 C 0.7497 0.50757 0.25721 0.0
C1882 C 0.76695 0.50557 0.23561 0.0
C1883 C 0.78501 0.50281 0.25374 0.0
C1884 C 0.76621 0.50686 0.19431 0.0
C1885 C 0.72998 0.51187 0.23988 0.0
C1886 C 0.75451 0.49374 0.1739 0.0
C1887 C 0.75012 0.49747 0.13666 0.0
C1888 C 0.75774 0.51412 0.1188 0.0
C1889 C 0.77092 0.52623 0.13818 0.0
C1890 C 0.77518 0.5226 0.17562 0.0
H1891 H 0.71945 0.51799 0.26032 0.0
H1892 H 0.73143 0.52243 0.21663 0.0
H1893 H 0.72365 0.49804 0.22887 0.0
H1894 H 0.74764 0.48134 0.18747 0.0
H1895 H 0.73952 0.48821 0.12269 0.0
H1896 H 0.54586 0.77178 0.4264 0.0
H1897 H 0.53879 0.77892 0.36142 0.0
H1898 H 0.48094 0.75406 0.3742 0.0
H1899 H 0.48839 0.74634 0.43897 0.0
H1900 H 0.49925 0.73658 0.32059 0.0
H1901 H 0.50884 0.81613 0.29721 0.0
H1902 H 0.52976 0.80564 0.31997 0.0
H1903 H 0.5063 0.8058 0.34297 0.0
C1904 C 0.53125 0.76886 0.41583 0.0
C1905 C 0.51744 0.75908 0.43807 0.0
C1906 C 0.52722 0.77286 0.37848 0.0
C1907 C 0.50922 0.76723 0.36255 0.0
C1908 C 0.4949 0.75869 0.38563 0.0
H1909 H 0.47329 0.77599 0.12955 0.0
H1910 H 0.4795 0.78415 0.19478 0.0
C1911 C 0.49902 0.75453 0.42289 0.0
C1912 C 0.50654 0.76735 0.32131 0.0
H1913 H 0.51095 0.7955 0.24304 0.0
C1914 C 0.50161 0.74958 0.30384 0.0
C1915 C 0.5095 0.78424 0.299 0.0
C1916 C 0.51369 0.80407 0.31579 0.0
C1917 C 0.50001 0.74808 0.26515 0.0
C1918 C 0.50397 0.76469 0.24272 0.0
C1919 C 0.50831 0.78266 0.26005 0.0
C1920 C 0.50329 0.76339 0.20137 0.0
C1921 C 0.49386 0.72865 0.24871 0.0
C1922 C 0.5154 0.74998 0.18257 0.0
C1923 C 0.51186 0.74535 0.14538 0.0
C1924 C 0.49648 0.75439 0.12586 0.0
C1925 C 0.48564 0.76924 0.14355 0.0
C1926 C 0.48903 0.77373 0.18102 0.0
H1927 H 0.48628 0.71924 0.26936 0.0
H1928 H 0.4839 0.7308 0.2247 0.0
H1929 H 0.50708 0.72065 0.23903 0.0
H1930 H 0.52672 0.74204 0.19739 0.0
H1931 H 0.52012 0.73352 0.13274 0.0
H1932 H 0.264 0.5169 0.13303 0.0
H1933 H 0.25582 0.5244 0.19752 0.0
H1934 H 0.21784 0.47382 0.20132 0.0
H1935 H 0.2258 0.46653 0.13645 0.0
H1936 H 0.2048 0.50697 0.24729 0.0
H1937 H 0.28251 0.48578 0.27074 0.0
H1938 H 0.27929 0.50557 0.23846 0.0
H1939 H 0.27011 0.48153 0.22735 0.0
C1940 C 0.25305 0.50805 0.147 0.0
C1941 C 0.24515 0.49143 0.12948 0.0
C1942 C 0.24861 0.51215 0.18406 0.0
C1943 C 0.2365 0.49946 0.20456 0.0
C1944 C 0.2272 0.48384 0.18614 0.0
H1945 H 0.25678 0.48813 0.44166 0.0
H1946 H 0.24807 0.47963 0.37776 0.0
C1947 C 0.23156 0.47981 0.14891 0.0
C1948 C 0.2358 0.50092 0.24578 0.0
H1949 H 0.26517 0.49811 0.32232 0.0
C1950 C 0.21796 0.50498 0.26377 0.0
C1951 C 0.25286 0.49783 0.26746 0.0
C1952 C 0.27225 0.49225 0.25015 0.0
C1953 C 0.21692 0.5067 0.30268 0.0
C1954 C 0.23421 0.50447 0.32419 0.0
C1955 C 0.25187 0.49985 0.3061 0.0
C1956 C 0.23484 0.50776 0.36516 0.0
C1957 C 0.19728 0.5107 0.32036 0.0
C1958 C 0.22952 0.52605 0.38018 0.0
C1959 C 0.23418 0.53072 0.41695 0.0
C1960 C 0.24424 0.51725 0.43948 0.0
C1961 C 0.24839 0.49852 0.42534 0.0
C1962 C 0.24366 0.49378 0.38861 0.0
H1963 H 0.18502 0.50555 0.30252 0.0
H1964 H 0.19607 0.50346 0.34779 0.0
H1965 H 0.19554 0.52676 0.32429 0.0
H1966 H 0.22323 0.53732 0.36271 0.0
H1967 H 0.23151 0.54553 0.42673 0.0
loop_
_geom_bond_atom_site_label_1
_geom_bond_atom_site_label_2
_geom_bond_distance
_geom_bond_site_symmetry_2
_ccdc_geom_bond_type
C0 C1 1.351 . S
C0 N3 1.368 . S
C0 H5 0.931 . S
C1 C0 1.351 . S
C1 N2 1.373 1_556 S
C1 H29 0.930 . S
N2 C1 1.373 1_554 S
N2 C4 1.340 . S
N3 C0 1.368 . S
N3 C4 1.321 1_556 S
N3 Co6 2.135 1_556 S
C4 N2 1.340 . S
C4 N3 1.321 1_554 S
C4 H28 0.930 . S
H5 C0 0.931 . S
Co6 N3 2.135 1_554 S
Co6 N9 2.121 . S
Co6 O14 2.055 1_554 S
Co6 O17 2.039 . S
Co6 N20 2.140 . S
C7 O8 1.227 . S
C7 O17 1.265 . S
O8 C7 1.227 . S
N9 Co6 2.121 . S
N9 C11 1.375 . S
N9 C12 1.313 1_454 S
C10 C11 1.338 1_655 S
C10 N13 1.377 . S
C10 H30 0.930 . S
C11 N9 1.375 . S
C11 C10 1.338 1_455 S
C11 H15 0.931 . S
C12 N9 1.313 1_656 S
C12 N13 1.344 1_556 S
C12 H16 0.930 . S
N13 C10 1.377 . S
N13 C12 1.344 1_554 S
O14 Co6 2.055 1_556 S
O14 C18 1.253 . S
H15 C11 0.931 . S
H16 C12 0.930 . S
O17 Co6 2.039 . S
O17 C7 1.265 . S
C18 O14 1.253 . S
C18 O19 1.227 . S
O19 C18 1.227 . S
N20 Co6 2.140 . S
N20 C23 1.346 . S
N20 C24 1.345 1_554 S
C21 C22 1.387 . S
C21 C25 1.391 1_554 S
C22 C21 1.387 . S
C22 C23 1.369 . S
C22 H31 0.929 . S
C23 N20 1.346 . S
C23 C22 1.369 . S
C23 H26 0.928 . S
C24 N20 1.345 1_556 S
C24 C25 1.371 . S
C24 H27 0.931 . S
C25 C21 1.391 1_556 S
C25 C24 1.371 . S
C25 H32 0.930 . S
H26 C23 0.928 . S
H27 C24 0.931 . S
H28 C4 0.930 . S
H29 C1 0.930 . S
H30 C10 0.930 . S
H31 C22 0.929 . S
H32 C25 0.930 . S
C33 C34 1.351 . S
C33 N36 1.368 . S
C33 H38 0.931 . S
C34 C33 1.351 . S
C34 N35 1.373 1_556 S
C34 H62 0.930 . S
N35 C34 1.373 1_554 S
N35 C37 1.340 . S
N36 C33 1.368 . S
N36 C37 1.321 1_556 S
N36 Co39 2.135 1_556 S
C37 N35 1.340 . S
C37 N36 1.321 1_554 S
C37 H61 0.930 . S
H38 C33 0.931 . S
Co39 N36 2.135 1_554 S
Co39 N42 2.121 . S
Co39 O47 2.055 1_554 S
Co39 O50 2.039 . S
Co39 N53 2.140 . S
C40 O41 1.227 . S
C40 O50 1.265 . S
O41 C40 1.227 . S
N42 Co39 2.121 . S
N42 C44 1.375 . S
N42 C45 1.313 1_544 S
C43 C44 1.338 1_565 S
C43 N46 1.377 . S
C43 H63 0.930 . S
C44 N42 1.375 . S
C44 C43 1.338 1_545 S
C44 H48 0.931 . S
C45 N42 1.313 1_566 S
C45 N46 1.344 1_556 S
C45 H49 0.930 . S
N46 C43 1.377 . S
N46 C45 1.344 1_554 S
O47 Co39 2.055 1_556 S
O47 C51 1.253 . S
H48 C44 0.931 . S
H49 C45 0.930 . S
O50 Co39 2.039 . S
O50 C40 1.265 . S
C51 O47 1.253 . S
C51 O52 1.227 . S
O52 C51 1.227 . S
N53 Co39 2.140 . S
N53 C56 1.346 . S
N53 C57 1.345 1_554 S
C54 C55 1.387 . S
C54 C58 1.391 1_554 S
C55 C54 1.387 . S
C55 C56 1.369 . S
C55 H64 0.929 . S
C56 N53 1.346 . S
C56 C55 1.369 . S
C56 H59 0.928 . S
C57 N53 1.345 1_556 S
C57 C58 1.371 . S
C57 H60 0.931 . S
C58 C54 1.391 1_556 S
C58 C57 1.371 . S
C58 H65 0.930 . S
H59 C56 0.928 . S
H60 C57 0.931 . S
H61 C37 0.930 . S
H62 C34 0.930 . S
H63 C43 0.930 . S
H64 C55 0.929 . S
H65 C58 0.930 . S
C66 C67 1.351 . S
C66 N69 1.368 . S
C66 H71 0.931 . S
C67 C66 1.351 . S
C67 N68 1.373 1_556 S
C67 H95 0.930 . S
N68 C67 1.373 1_554 S
N68 C70 1.340 . S
N69 C66 1.368 . S
N69 C70 1.321 1_556 S
N69 Co72 2.135 1_556 S
C70 N68 1.340 . S
C70 N69 1.321 1_554 S
C70 H94 0.930 . S
H71 C66 0.931 . S
Co72 N69 2.135 1_554 S
Co72 N75 2.121 . S
Co72 O80 2.055 1_554 S
Co72 O83 2.039 . S
Co72 N86 2.140 . S
C73 O74 1.227 . S
C73 O83 1.265 . S
O74 C73 1.227 . S
N75 Co72 2.121 . S
N75 C77 1.375 . S
N75 C78 1.313 1_654 S
C76 C77 1.338 1_455 S
C76 N79 1.377 . S
C76 H96 0.930 . S
C77 N75 1.375 . S
C77 C76 1.338 1_655 S
C77 H81 0.931 . S
C78 N75 1.313 1_456 S
C78 N79 1.344 1_556 S
C78 H82 0.930 . S
N79 C76 1.377 . S
N79 C78 1.344 1_554 S
O80 Co72 2.055 1_556 S
O80 C84 1.253 . S
H81 C77 0.931 . S
H82 C78 0.930 . S
O83 Co72 2.039 . S
O83 C73 1.265 . S
C84 O80 1.253 . S
C84 O85 1.227 . S
O85 C84 1.227 . S
N86 Co72 2.140 . S
N86 C89 1.346 . S
N86 C90 1.345 1_554 S
C87 C88 1.387 . S
C87 C91 1.391 1_554 S
C88 C87 1.387 . S
C88 C89 1.369 . S
C88 H97 0.929 . S
C89 N86 1.346 . S
C89 C88 1.369 . S
C89 H92 0.928 . S
C90 N86 1.345 1_556 S
C90 C91 1.371 . S
C90 H93 0.931 . S
C91 C87 1.391 1_556 S
C91 C90 1.371 . S
C91 H98 0.930 . S
H92 C89 0.928 . S
H93 C90 0.931 . S
H94 C70 0.930 . S
H95 C67 0.930 . S
H96 C76 0.930 . S
H97 C88 0.929 . S
H98 C91 0.930 . S
C99 C100 1.351 . S
C99 N102 1.368 . S
C99 H104 0.931 . S
C100 C99 1.351 . S
C100 N101 1.373 1_556 S
C100 H128 0.930 . S
N101 C100 1.373 1_554 S
N101 C103 1.340 . S
N102 C99 1.368 . S
N102 C103 1.321 1_556 S
N102 Co105 2.135 1_556 S
C103 N101 1.340 . S
C103 N102 1.321 1_554 S
C103 H127 0.930 . S
H104 C99 0.931 . S
Co105 N102 2.135 1_554 S
Co105 N108 2.121 . S
Co105 O113 2.055 1_554 S
Co105 O116 2.039 . S
Co105 N119 2.140 . S
C106 O107 1.227 . S
C106 O116 1.265 . S
O107 C106 1.227 . S
N108 Co105 2.121 . S
N108 C110 1.375 . S
N108 C111 1.313 1_564 S
C109 C110 1.338 1_545 S
C109 N112 1.377 . S
C109 H129 0.930 . S
C110 N108 1.375 . S
C110 C109 1.338 1_565 S
C110 H114 0.931 . S
C111 N108 1.313 1_546 S
C111 N112 1.344 1_556 S
C111 H115 0.930 . S
N112 C109 1.377 . S
N112 C111 1.344 1_554 S
O113 Co105 2.055 1_556 S
O113 C117 1.253 . S
H114 C110 0.931 . S
H115 C111 0.930 . S
O116 Co105 2.039 . S
O116 C106 1.265 . S
C117 O113 1.253 . S
C117 O118 1.227 . S
O118 C117 1.227 . S
N119 Co105 2.140 . S
N119 C122 1.346 . S
N119 C123 1.345 1_554 S
C120 C121 1.387 . S
C120 C124 1.391 1_554 S
C121 C120 1.387 . S
C121 C122 1.369 . S
C121 H130 0.929 . S
C122 N119 1.346 . S
C122 C121 1.369 . S
C122 H125 0.928 . S
C123 N119 1.345 1_556 S
C123 C124 1.371 . S
C123 H126 0.931 . S
C124 C120 1.391 1_556 S
C124 C123 1.371 . S
C124 H131 0.930 . S
H125 C122 0.928 . S
H126 C123 0.931 . S
H127 C103 0.930 . S
H128 C100 0.930 . S
H129 C109 0.930 . S
H130 C121 0.929 . S
H131 C124 0.930 . S
C132 C133 1.351 . S
C132 N135 1.368 . S
C132 H137 0.931 . S
C133 C132 1.351 . S
C133 N134 1.373 . S
C133 H161 0.930 . S
N134 C133 1.373 . S
N134 C136 1.340 . S
N135 C132 1.368 . S
N135 C136 1.321 . S
N135 Co138 2.135 . S
C136 N134 1.340 . S
C136 N135 1.321 . S
C136 H160 0.930 . S
H137 C132 0.931 . S
Co138 N135 2.135 . S
Co138 N141 2.121 . S
Co138 O146 2.055 . S
Co138 O149 2.039 . S
Co138 N152 2.140 . S
C139 O140 1.227 . S
C139 O149 1.265 . S
O140 C139 1.227 . S
N141 Co138 2.121 . S
N141 C143 1.375 . S
N141 C144 1.313 1_455 S
C142 C143 1.338 1_655 S
C142 N145 1.377 . S
C142 H162 0.930 . S
C143 N141 1.375 . S
C143 C142 1.338 1_455 S
C143 H147 0.931 . S
C144 N141 1.313 1_655 S
C144 N145 1.344 . S
C144 H148 0.930 . S
N145 C142 1.377 . S
N145 C144 1.344 . S
O146 Co138 2.055 . S
O146 C150 1.253 . S
H147 C143 0.931 . S
H148 C144 0.930 . S
O149 Co138 2.039 . S
O149 C139 1.265 . S
C150 O146 1.253 . S
C150 O151 1.227 . S
O151 C150 1.227 . S
N152 Co138 2.140 . S
N152 C155 1.346 . S
N152 C156 1.345 . S
C153 C154 1.387 . S
C153 C157 1.391 . S
C154 C153 1.387 . S
C154 C155 1.369 . S
C154 H163 0.929 . S
C155 N152 1.346 . S
C155 C154 1.369 . S
C155 H158 0.928 . S
C156 N152 1.345 . S
C156 C157 1.371 . S
C156 H159 0.931 . S
C157 C153 1.391 . S
C157 C156 1.371 . S
C157 H164 0.930 . S
H158 C155 0.928 . S
H159 C156 0.931 . S
H160 C136 0.930 . S
H161 C133 0.930 . S
H162 C142 0.930 . S
H163 C154 0.929 . S
H164 C157 0.930 . S
C165 C166 1.351 . S
C165 N168 1.368 . S
C165 H170 0.931 . S
C166 C165 1.351 . S
C166 N167 1.373 . S
C166 H194 0.930 . S
N167 C166 1.373 . S
N167 C169 1.340 . S
N168 C165 1.368 . S
N168 C169 1.321 . S
N168 Co171 2.135 . S
C169 N167 1.340 . S
C169 N168 1.321 . S
C169 H193 0.930 . S
H170 C165 0.931 . S
Co171 N168 2.135 . S
Co171 N174 2.121 . S
Co171 O179 2.055 . S
Co171 O182 2.039 . S
Co171 N185 2.140 . S
C172 O173 1.227 . S
C172 O182 1.265 . S
O173 C172 1.227 . S
N174 Co171 2.121 . S
N174 C176 1.375 . S
N174 C177 1.313 1_545 S
C175 C176 1.338 1_565 S
C175 N178 1.377 . S
C175 H195 0.930 . S
C176 N174 1.375 . S
C176 C175 1.338 1_545 S
C176 H180 0.931 . S
C177 N174 1.313 1_565 S
C177 N178 1.344 . S
C177 H181 0.930 . S
N178 C175 1.377 . S
N178 C177 1.344 . S
O179 Co171 2.055 . S
O179 C183 1.253 . S
H180 C176 0.931 . S
H181 C177 0.930 . S
O182 Co171 2.039 . S
O182 C172 1.265 . S
C183 O179 1.253 . S
C183 O184 1.227 . S
O184 C183 1.227 . S
N185 Co171 2.140 . S
N185 C188 1.346 . S
N185 C189 1.345 . S
C186 C187 1.387 . S
C186 C190 1.391 . S
C187 C186 1.387 . S
C187 C188 1.369 . S
C187 H196 0.929 . S
C188 N185 1.346 . S
C188 C187 1.369 . S
C188 H191 0.928 . S
C189 N185 1.345 . S
C189 C190 1.371 . S
C189 H192 0.931 . S
C190 C186 1.391 . S
C190 C189 1.371 . S
C190 H197 0.930 . S
H191 C188 0.928 . S
H192 C189 0.931 . S
H193 C169 0.930 . S
H194 C166 0.930 . S
H195 C175 0.930 . S
H196 C187 0.929 . S
H197 C190 0.930 . S
C198 C199 1.351 . S
C198 N201 1.368 . S
C198 H203 0.931 . S
C199 C198 1.351 . S
C199 N200 1.373 . S
C199 H227 0.930 . S
N200 C199 1.373 . S
N200 C202 1.340 . S
N201 C198 1.368 . S
N201 C202 1.321 . S
N201 Co204 2.135 . S
C202 N200 1.340 . S
C202 N201 1.321 . S
C202 H226 0.930 . S
H203 C198 0.931 . S
Co204 N201 2.135 . S
Co204 N207 2.121 . S
Co204 O212 2.055 . S
Co204 O215 2.039 . S
Co204 N218 2.140 . S
C205 O206 1.227 . S
C205 O215 1.265 . S
O206 C205 1.227 . S
N207 Co204 2.121 . S
N207 C209 1.375 . S
N207 C210 1.313 1_655 S
C208 C209 1.338 1_455 S
C208 N211 1.377 . S
C208 H228 0.930 . S
C209 N207 1.375 . S
C209 C208 1.338 1_655 S
C209 H213 0.931 . S
C210 N207 1.313 1_455 S
C210 N211 1.344 . S
C210 H214 0.930 . S
N211 C208 1.377 . S
N211 C210 1.344 . S
O212 Co204 2.055 . S
O212 C216 1.253 . S
H213 C209 0.931 . S
H214 C210 0.930 . S
O215 Co204 2.039 . S
O215 C205 1.265 . S
C216 O212 1.253 . S
C216 O217 1.227 . S
O217 C216 1.227 . S
N218 Co204 2.140 . S
N218 C221 1.346 . S
N218 C222 1.345 . S
C219 C220 1.387 . S
C219 C223 1.391 . S
C220 C219 1.387 . S
C220 C221 1.369 . S
C220 H229 0.929 . S
C221 N218 1.346 . S
C221 C220 1.369 . S
C221 H224 0.928 . S
C222 N218 1.345 . S
C222 C223 1.371 . S
C222 H225 0.931 . S
C223 C219 1.391 . S
C223 C222 1.371 . S
C223 H230 0.930 . S
H224 C221 0.928 . S
H225 C222 0.931 . S
H226 C202 0.930 . S
H227 C199 0.930 . S
H228 C208 0.930 . S
H229 C220 0.929 . S
H230 C223 0.930 . S
C231 C232 1.351 . S
C231 N234 1.368 . S
C231 H236 0.931 . S
C232 C231 1.351 . S
C232 N233 1.373 . S
C232 H260 0.930 . S
N233 C232 1.373 . S
N233 C235 1.340 . S
N234 C231 1.368 . S
N234 C235 1.321 . S
N234 Co237 2.135 . S
C235 N233 1.340 . S
C235 N234 1.321 . S
C235 H259 0.930 . S
H236 C231 0.931 . S
Co237 N234 2.135 . S
Co237 N240 2.121 . S
Co237 O245 2.055 . S
Co237 O248 2.039 . S
Co237 N251 2.140 . S
C238 O239 1.227 . S
C238 O248 1.265 . S
O239 C238 1.227 . S
N240 Co237 2.121 . S
N240 C242 1.375 . S
N240 C243 1.313 1_565 S
C241 C242 1.338 1_545 S
C241 N244 1.377 . S
C241 H261 0.930 . S
C242 N240 1.375 . S
C242 C241 1.338 1_565 S
C242 H246 0.931 . S
C243 N240 1.313 1_545 S
C243 N244 1.344 . S
C243 H247 0.930 . S
N244 C241 1.377 . S
N244 C243 1.344 . S
O245 Co237 2.055 . S
O245 C249 1.253 . S
H246 C242 0.931 . S
H247 C243 0.930 . S
O248 Co237 2.039 . S
O248 C238 1.265 . S
C249 O245 1.253 . S
C249 O250 1.227 . S
O250 C249 1.227 . S
N251 Co237 2.140 . S
N251 C254 1.346 . S
N251 C255 1.345 . S
C252 C253 1.387 . S
C252 C256 1.391 . S
C253 C252 1.387 . S
C253 C254 1.369 . S
C253 H262 0.929 . S
C254 N251 1.346 . S
C254 C253 1.369 . S
C254 H257 0.928 . S
C255 N251 1.345 . S
C255 C256 1.371 . S
C255 H258 0.931 . S
C256 C252 1.391 . S
C256 C255 1.371 . S
C256 H263 0.930 . S
H257 C254 0.928 . S
H258 C255 0.931 . S
H259 C235 0.930 . S
H260 C232 0.930 . S
H261 C241 0.930 . S
H262 C253 0.929 . S
H263 C256 0.930 . S
C264 C265 1.351 . S
C264 N267 1.368 . S
C264 H269 0.931 . S
C265 C264 1.351 . S
C265 N266 1.373 . S
C265 H293 0.930 . S
N266 C265 1.373 . S
N266 C268 1.340 . S
N267 C264 1.368 . S
N267 C268 1.321 . S
N267 Co270 2.135 . S
C268 N266 1.340 . S
C268 N267 1.321 . S
C268 H292 0.930 . S
H269 C264 0.931 . S
Co270 N267 2.135 . S
Co270 N273 2.121 . S
Co270 O278 2.055 . S
Co270 O281 2.039 . S
Co270 N284 2.140 . S
C271 O272 1.227 . S
C271 O281 1.265 . S
O272 C271 1.227 . S
N273 Co270 2.121 . S
N273 C275 1.375 . S
N273 C276 1.313 . S
C274 C275 1.338 . S
C274 N277 1.377 . S
C274 H294 0.930 . S
C275 N273 1.375 . S
C275 C274 1.338 . S
C275 H279 0.931 . S
C276 N273 1.313 . S
C276 N277 1.344 . S
C276 H280 0.930 . S
N277 C274 1.377 . S
N277 C276 1.344 . S
O278 Co270 2.055 . S
O278 C282 1.253 . S
H279 C275 0.931 . S
H280 C276 0.930 . S
O281 Co270 2.039 . S
O281 C271 1.265 . S
C282 O278 1.253 . S
C282 O283 1.227 . S
O283 C282 1.227 . S
N284 Co270 2.140 . S
N284 C287 1.346 . S
N284 C288 1.345 . S
C285 C286 1.387 . S
C285 C289 1.391 . S
C286 C285 1.387 . S
C286 C287 1.369 . S
C286 H295 0.929 . S
C287 N284 1.346 . S
C287 C286 1.369 . S
C287 H290 0.928 . S
C288 N284 1.345 . S
C288 C289 1.371 . S
C288 H291 0.931 . S
C289 C285 1.391 . S
C289 C288 1.371 . S
C289 H296 0.930 . S
H290 C287 0.928 . S
H291 C288 0.931 . S
H292 C268 0.930 . S
H293 C265 0.930 . S
H294 C274 0.930 . S
H295 C286 0.929 . S
H296 C289 0.930 . S
C297 C298 1.351 . S
C297 N300 1.368 . S
C297 H302 0.931 . S
C298 C297 1.351 . S
C298 N299 1.373 . S
C298 H326 0.930 . S
N299 C298 1.373 . S
N299 C301 1.340 . S
N300 C297 1.368 . S
N300 C301 1.321 . S
N300 Co303 2.135 . S
C301 N299 1.340 . S
C301 N300 1.321 . S
C301 H325 0.930 . S
H302 C297 0.931 . S
Co303 N300 2.135 . S
Co303 N306 2.121 . S
Co303 O311 2.055 . S
Co303 O314 2.039 . S
Co303 N317 2.140 . S
C304 O305 1.227 . S
C304 O314 1.265 . S
O305 C304 1.227 . S
N306 Co303 2.121 . S
N306 C308 1.375 . S
N306 C309 1.313 . S
C307 C308 1.338 . S
C307 N310 1.377 . S
C307 H327 0.930 . S
C308 N306 1.375 . S
C308 C307 1.338 . S
C308 H312 0.931 . S
C309 N306 1.313 . S
C309 N310 1.344 . S
C309 H313 0.930 . S
N310 C307 1.377 . S
N310 C309 1.344 . S
O311 Co303 2.055 . S
O311 C315 1.253 . S
H312 C308 0.931 . S
H313 C309 0.930 . S
O314 Co303 2.039 . S
O314 C304 1.265 . S
C315 O311 1.253 . S
C315 O316 1.227 . S
O316 C315 1.227 . S
N317 Co303 2.140 . S
N317 C320 1.346 . S
N317 C321 1.345 . S
C318 C319 1.387 . S
C318 C322 1.391 . S
C319 C318 1.387 . S
C319 C320 1.369 . S
C319 H328 0.929 . S
C320 N317 1.346 . S
C320 C319 1.369 . S
C320 H323 0.928 . S
C321 N317 1.345 . S
C321 C322 1.371 . S
C321 H324 0.931 . S
C322 C318 1.391 . S
C322 C321 1.371 . S
C322 H329 0.930 . S
H323 C320 0.928 . S
H324 C321 0.931 . S
H325 C301 0.930 . S
H326 C298 0.930 . S
H327 C307 0.930 . S
H328 C319 0.929 . S
H329 C322 0.930 . S
C330 C331 1.351 . S
C330 N333 1.368 . S
C330 H335 0.931 . S
C331 C330 1.351 . S
C331 N332 1.373 . S
C331 H359 0.930 . S
N332 C331 1.373 . S
N332 C334 1.340 . S
N333 C330 1.368 . S
N333 C334 1.321 . S
N333 Co336 2.135 . S
C334 N332 1.340 . S
C334 N333 1.321 . S
C334 H358 0.930 . S
H335 C330 0.931 . S
Co336 N333 2.135 . S
Co336 N339 2.121 . S
Co336 O344 2.055 . S
Co336 O347 2.039 . S
Co336 N350 2.140 . S
C337 O338 1.227 . S
C337 O347 1.265 . S
O338 C337 1.227 . S
N339 Co336 2.121 . S
N339 C341 1.375 . S
N339 C342 1.313 . S
C340 C341 1.338 . S
C340 N343 1.377 . S
C340 H360 0.930 . S
C341 N339 1.375 . S
C341 C340 1.338 . S
C341 H345 0.931 . S
C342 N339 1.313 . S
C342 N343 1.344 . S
C342 H346 0.930 . S
N343 C340 1.377 . S
N343 C342 1.344 . S
O344 Co336 2.055 . S
O344 C348 1.253 . S
H345 C341 0.931 . S
H346 C342 0.930 . S
O347 Co336 2.039 . S
O347 C337 1.265 . S
C348 O344 1.253 . S
C348 O349 1.227 . S
O349 C348 1.227 . S
N350 Co336 2.140 . S
N350 C353 1.346 . S
N350 C354 1.345 . S
C351 C352 1.387 . S
C351 C355 1.391 . S
C352 C351 1.387 . S
C352 C353 1.369 . S
C352 H361 0.929 . S
C353 N350 1.346 . S
C353 C352 1.369 . S
C353 H356 0.928 . S
C354 N350 1.345 . S
C354 C355 1.371 . S
C354 H357 0.931 . S
C355 C351 1.391 . S
C355 C354 1.371 . S
C355 H362 0.930 . S
H356 C353 0.928 . S
H357 C354 0.931 . S
H358 C334 0.930 . S
H359 C331 0.930 . S
H360 C340 0.930 . S
H361 C352 0.929 . S
H362 C355 0.930 . S
C363 C364 1.351 . S
C363 N366 1.368 . S
C363 H368 0.931 . S
C364 C363 1.351 . S
C364 N365 1.373 . S
C364 H392 0.930 . S
N365 C364 1.373 . S
N365 C367 1.340 . S
N366 C363 1.368 . S
N366 C367 1.321 . S
N366 Co369 2.135 . S
C367 N365 1.340 . S
C367 N366 1.321 . S
C367 H391 0.930 . S
H368 C363 0.931 . S
Co369 N366 2.135 . S
Co369 N372 2.121 . S
Co369 O377 2.055 . S
Co369 O380 2.039 . S
Co369 N383 2.140 . S
C370 O371 1.227 . S
C370 O380 1.265 . S
O371 C370 1.227 . S
N372 Co369 2.121 . S
N372 C374 1.375 . S
N372 C375 1.313 . S
C373 C374 1.338 . S
C373 N376 1.377 . S
C373 H393 0.930 . S
C374 N372 1.375 . S
C374 C373 1.338 . S
C374 H378 0.931 . S
C375 N372 1.313 . S
C375 N376 1.344 . S
C375 H379 0.930 . S
N376 C373 1.377 . S
N376 C375 1.344 . S
O377 Co369 2.055 . S
O377 C381 1.253 . S
H378 C374 0.931 . S
H379 C375 0.930 . S
O380 Co369 2.039 . S
O380 C370 1.265 . S
C381 O377 1.253 . S
C381 O382 1.227 . S
O382 C381 1.227 . S
N383 Co369 2.140 . S
N383 C386 1.346 . S
N383 C387 1.345 . S
C384 C385 1.387 . S
C384 C388 1.391 . S
C385 C384 1.387 . S
C385 C386 1.369 . S
C385 H394 0.929 . S
C386 N383 1.346 . S
C386 C385 1.369 . S
C386 H389 0.928 . S
C387 N383 1.345 . S
C387 C388 1.371 . S
C387 H390 0.931 . S
C388 C384 1.391 . S
C388 C387 1.371 . S
C388 H395 0.930 . S
H389 C386 0.928 . S
H390 C387 0.931 . S
H391 C367 0.930 . S
H392 C364 0.930 . S
H393 C373 0.930 . S
H394 C385 0.929 . S
H395 C388 0.930 . S
C396 C397 1.351 . S
C396 N399 1.368 . S
C396 H401 0.931 . S
C397 C396 1.351 . S
C397 N398 1.373 . S
C397 H425 0.930 . S
N398 C397 1.373 . S
N398 C400 1.340 . S
N399 C396 1.368 . S
N399 C400 1.321 . S
N399 Co402 2.135 . S
C400 N398 1.340 . S
C400 N399 1.321 . S
C400 H424 0.930 1_554 S
H401 C396 0.931 . S
Co402 N399 2.135 . S
Co402 N405 2.121 . S
Co402 O410 2.055 . S
Co402 O413 2.039 1_554 S
Co402 N416 2.140 . S
C403 O404 1.227 . S
C403 O413 1.265 . S
O404 C403 1.227 . S
N405 Co402 2.121 . S
N405 C407 1.375 1_554 S
N405 C408 1.313 . S
C406 C407 1.338 . S
C406 N409 1.377 1_556 S
C406 H426 0.930 . S
C407 N405 1.375 1_556 S
C407 C406 1.338 . S
C407 H411 0.931 . S
C408 N405 1.313 . S
C408 N409 1.344 . S
C408 H412 0.930 . S
N409 C406 1.377 1_554 S
N409 C408 1.344 . S
O410 Co402 2.055 . S
O410 C414 1.253 . S
H411 C407 0.931 . S
H412 C408 0.930 . S
O413 Co402 2.039 1_556 S
O413 C403 1.265 . S
C414 O410 1.253 . S
C414 O415 1.227 . S
O415 C414 1.227 . S
N416 Co402 2.140 . S
N416 C419 1.346 . S
N416 C420 1.345 . S
C417 C418 1.387 . S
C417 C421 1.391 . S
C418 C417 1.387 . S
C418 C419 1.369 . S
C418 H427 0.929 1_554 S
C419 N416 1.346 . S
C419 C418 1.369 . S
C419 H422 0.928 1_554 S
C420 N416 1.345 . S
C420 C421 1.371 . S
C420 H423 0.931 . S
C421 C417 1.391 . S
C421 C420 1.371 . S
C421 H428 0.930 . S
H422 C419 0.928 1_556 S
H423 C420 0.931 . S
H424 C400 0.930 1_556 S
H425 C397 0.930 . S
H426 C406 0.930 . S
H427 C418 0.929 1_556 S
H428 C421 0.930 . S
C429 C430 1.351 . S
C429 N432 1.368 . S
C429 H434 0.931 . S
C430 C429 1.351 . S
C430 N431 1.373 . S
C430 H458 0.930 . S
N431 C430 1.373 . S
N431 C433 1.340 . S
N432 C429 1.368 . S
N432 C433 1.321 . S
N432 Co435 2.135 . S
C433 N431 1.340 . S
C433 N432 1.321 . S
C433 H457 0.930 1_554 S
H434 C429 0.931 . S
Co435 N432 2.135 . S
Co435 N438 2.121 . S
Co435 O443 2.055 . S
Co435 O446 2.039 1_554 S
Co435 N449 2.140 . S
C436 O437 1.227 . S
C436 O446 1.265 . S
O437 C436 1.227 . S
N438 Co435 2.121 . S
N438 C440 1.375 1_554 S
N438 C441 1.313 . S
C439 C440 1.338 . S
C439 N442 1.377 1_556 S
C439 H459 0.930 . S
C440 N438 1.375 1_556 S
C440 C439 1.338 . S
C440 H444 0.931 . S
C441 N438 1.313 . S
C441 N442 1.344 . S
C441 H445 0.930 . S
N442 C439 1.377 1_554 S
N442 C441 1.344 . S
O443 Co435 2.055 . S
O443 C447 1.253 . S
H444 C440 0.931 . S
H445 C441 0.930 . S
O446 Co435 2.039 1_556 S
O446 C436 1.265 . S
C447 O443 1.253 . S
C447 O448 1.227 . S
O448 C447 1.227 . S
N449 Co435 2.140 . S
N449 C452 1.346 . S
N449 C453 1.345 . S
C450 C451 1.387 . S
C450 C454 1.391 . S
C451 C450 1.387 . S
C451 C452 1.369 . S
C451 H460 0.929 1_554 S
C452 N449 1.346 . S
C452 C451 1.369 . S
C452 H455 0.928 1_554 S
C453 N449 1.345 . S
C453 C454 1.371 . S
C453 H456 0.931 . S
C454 C450 1.391 . S
C454 C453 1.371 . S
C454 H461 0.930 . S
H455 C452 0.928 1_556 S
H456 C453 0.931 . S
H457 C433 0.930 1_556 S
H458 C430 0.930 . S
H459 C439 0.930 . S
H460 C451 0.929 1_556 S
H461 C454 0.930 . S
C462 C463 1.351 . S
C462 N465 1.368 . S
C462 H467 0.931 . S
C463 C462 1.351 . S
C463 N464 1.373 . S
C463 H491 0.930 . S
N464 C463 1.373 . S
N464 C466 1.340 . S
N465 C462 1.368 . S
N465 C466 1.321 . S
N465 Co468 2.135 . S
C466 N464 1.340 . S
C466 N465 1.321 . S
C466 H490 0.930 1_554 S
H467 C462 0.931 . S
Co468 N465 2.135 . S
Co468 N471 2.121 . S
Co468 O476 2.055 . S
Co468 O479 2.039 1_554 S
Co468 N482 2.140 . S
C469 O470 1.227 . S
C469 O479 1.265 . S
O470 C469 1.227 . S
N471 Co468 2.121 . S
N471 C473 1.375 1_554 S
N471 C474 1.313 . S
C472 C473 1.338 . S
C472 N475 1.377 1_556 S
C472 H492 0.930 . S
C473 N471 1.375 1_556 S
C473 C472 1.338 . S
C473 H477 0.931 . S
C474 N471 1.313 . S
C474 N475 1.344 . S
C474 H478 0.930 . S
N475 C472 1.377 1_554 S
N475 C474 1.344 . S
O476 Co468 2.055 . S
O476 C480 1.253 . S
H477 C473 0.931 . S
H478 C474 0.930 . S
O479 Co468 2.039 1_556 S
O479 C469 1.265 . S
C480 O476 1.253 . S
C480 O481 1.227 . S
O481 C480 1.227 . S
N482 Co468 2.140 . S
N482 C485 1.346 . S
N482 C486 1.345 . S
C483 C484 1.387 . S
C483 C487 1.391 . S
C484 C483 1.387 . S
C484 C485 1.369 . S
C484 H493 0.929 1_554 S
C485 N482 1.346 . S
C485 C484 1.369 . S
C485 H488 0.928 1_554 S
C486 N482 1.345 . S
C486 C487 1.371 . S
C486 H489 0.931 . S
C487 C483 1.391 . S
C487 C486 1.371 . S
C487 H494 0.930 . S
H488 C485 0.928 1_556 S
H489 C486 0.931 . S
H490 C466 0.930 1_556 S
H491 C463 0.930 . S
H492 C472 0.930 . S
H493 C484 0.929 1_556 S
H494 C487 0.930 . S
C495 C496 1.351 . S
C495 N498 1.368 . S
C495 H500 0.931 . S
C496 C495 1.351 . S
C496 N497 1.373 . S
C496 H524 0.930 . S
N497 C496 1.373 . S
N497 C499 1.340 . S
N498 C495 1.368 . S
N498 C499 1.321 . S
N498 Co501 2.135 . S
C499 N497 1.340 . S
C499 N498 1.321 . S
C499 H523 0.930 1_554 S
H500 C495 0.931 . S
Co501 N498 2.135 . S
Co501 N504 2.121 . S
Co501 O509 2.055 . S
Co501 O512 2.039 1_554 S
Co501 N515 2.140 . S
C502 O503 1.227 . S
C502 O512 1.265 . S
O503 C502 1.227 . S
N504 Co501 2.121 . S
N504 C506 1.375 1_554 S
N504 C507 1.313 . S
C505 C506 1.338 . S
C505 N508 1.377 1_556 S
C505 H525 0.930 . S
C506 N504 1.375 1_556 S
C506 C505 1.338 . S
C506 H510 0.931 . S
C507 N504 1.313 . S
C507 N508 1.344 . S
C507 H511 0.930 . S
N508 C505 1.377 1_554 S
N508 C507 1.344 . S
O509 Co501 2.055 . S
O509 C513 1.253 . S
H510 C506 0.931 . S
H511 C507 0.930 . S
O512 Co501 2.039 1_556 S
O512 C502 1.265 . S
C513 O509 1.253 . S
C513 O514 1.227 . S
O514 C513 1.227 . S
N515 Co501 2.140 . S
N515 C518 1.346 . S
N515 C519 1.345 . S
C516 C517 1.387 . S
C516 C520 1.391 . S
C517 C516 1.387 . S
C517 C518 1.369 . S
C517 H526 0.929 1_554 S
C518 N515 1.346 . S
C518 C517 1.369 . S
C518 H521 0.928 1_554 S
C519 N515 1.345 . S
C519 C520 1.371 . S
C519 H522 0.931 . S
C520 C516 1.391 . S
C520 C519 1.371 . S
C520 H527 0.930 . S
H521 C518 0.928 1_556 S
H522 C519 0.931 . S
H523 C499 0.930 1_556 S
H524 C496 0.930 . S
H525 C505 0.930 . S
H526 C517 0.929 1_556 S
H527 C520 0.930 . S
H528 C536 0.929 . S
H529 C538 0.930 . S
H530 C540 0.930 . S
H531 C543 0.929 . S
H532 C546 0.930 . S
H533 C548 0.960 . S
H534 C548 0.960 . S
H535 C548 0.960 . S
C536 H528 0.929 . S
C536 C537 1.377 . S
C536 C538 1.384 . S
C537 C536 1.377 . S
C537 C543 1.390 . S
C538 H529 0.930 . S
C538 C536 1.384 . S
C538 C539 1.372 . S
C539 C538 1.372 . S
C539 C540 1.400 . S
C539 C544 1.490 . S
C540 H530 0.930 . S
C540 C539 1.400 . S
C540 C543 1.386 . S
H541 C557 0.930 . S
H542 C558 0.931 . S
C543 H531 0.929 . S
C543 C537 1.390 . S
C543 C540 1.386 . S
C544 C539 1.490 . S
C544 C546 1.395 . S
C544 C547 1.403 1_554 S
H545 C551 0.930 . S
C546 H532 0.930 . S
C546 C544 1.395 . S
C546 C549 1.403 . S
C547 C544 1.403 1_556 S
C547 C548 1.524 . S
C547 C551 1.400 . S
C548 H533 0.960 . S
C548 H534 0.960 . S
C548 H535 0.960 . S
C548 C547 1.524 . S
C549 C546 1.403 . S
C549 C550 1.392 . S
C549 C553 1.495 . S
C550 C549 1.392 . S
C550 C551 1.385 1_554 S
C550 C552 1.478 . S
C551 H545 0.930 . S
C551 C547 1.400 . S
C551 C550 1.385 1_556 S
C552 C550 1.478 . S
C552 C554 1.381 . S
C552 C558 1.383 . S
C553 C549 1.495 . S
C553 H559 0.959 . S
C553 H560 0.961 . S
C553 H561 0.960 . S
C554 C552 1.381 . S
C554 C555 1.394 . S
C554 H562 0.930 . S
C555 C554 1.394 . S
C555 C556 1.383 . S
C555 H563 0.929 . S
C556 C555 1.383 . S
C556 C557 1.377 . S
C557 H541 0.930 . S
C557 C556 1.377 . S
C557 C558 1.379 . S
C558 H542 0.931 . S
C558 C552 1.383 . S
C558 C557 1.379 . S
H559 C553 0.959 . S
H560 C553 0.961 . S
H561 C553 0.960 . S
H562 C554 0.930 . S
H563 C555 0.929 . S
H564 C572 0.929 . S
H565 C574 0.930 . S
H566 C576 0.930 . S
H567 C579 0.929 . S
H568 C582 0.930 . S
H569 C584 0.960 . S
H570 C584 0.960 . S
H571 C584 0.960 1_554 S
C572 H564 0.929 . S
C572 C573 1.377 1_556 S
C572 C574 1.384 . S
C573 C572 1.377 1_554 S
C573 C579 1.390 . S
C574 H565 0.930 . S
C574 C572 1.384 . S
C574 C575 1.372 1_556 S
C575 C574 1.372 1_554 S
C575 C576 1.400 . S
C575 C580 1.490 . S
C576 H566 0.930 . S
C576 C575 1.400 . S
C576 C579 1.386 . S
H577 C593 0.930 . S
H578 C594 0.931 . S
C579 H567 0.929 . S
C579 C573 1.390 . S
C579 C576 1.386 . S
C580 C575 1.490 . S
C580 C582 1.395 . S
C580 C583 1.403 . S
H581 C587 0.930 . S
C582 H568 0.930 . S
C582 C580 1.395 . S
C582 C585 1.403 . S
C583 C580 1.403 . S
C583 C584 1.524 1_554 S
C583 C587 1.400 . S
C584 H569 0.960 . S
C584 H570 0.960 . S
C584 H571 0.960 1_556 S
C584 C583 1.524 1_556 S
C585 C582 1.403 . S
C585 C586 1.392 . S
C585 C589 1.495 . S
C586 C585 1.392 . S
C586 C587 1.385 . S
C586 C588 1.478 . S
C587 H581 0.930 . S
C587 C583 1.400 . S
C587 C586 1.385 . S
C588 C586 1.478 . S
C588 C590 1.381 1_554 S
C588 C594 1.383 . S
C589 C585 1.495 . S
C589 H595 0.959 . S
C589 H596 0.961 . S
C589 H597 0.960 . S
C590 C588 1.381 1_556 S
C590 C591 1.394 . S
C590 H598 0.930 . S
C591 C590 1.394 . S
C591 C592 1.383 1_556 S
C591 H599 0.929 . S
C592 C591 1.383 1_554 S
C592 C593 1.377 . S
C593 H577 0.930 . S
C593 C592 1.377 . S
C593 C594 1.379 . S
C594 H578 0.931 . S
C594 C588 1.383 . S
C594 C593 1.379 . S
H595 C589 0.959 . S
H596 C589 0.961 . S
H597 C589 0.960 . S
H598 C590 0.930 . S
H599 C591 0.929 . S
H600 C608 0.929 . S
H601 C610 0.930 . S
H602 C612 0.930 . S
H603 C615 0.929 . S
H604 C618 0.930 . S
H605 C620 0.960 . S
H606 C620 0.960 . S
H607 C620 0.960 . S
C608 H600 0.929 . S
C608 C609 1.377 . S
C608 C610 1.384 . S
C609 C608 1.377 . S
C609 C615 1.390 1_554 S
C610 H601 0.930 . S
C610 C608 1.384 . S
C610 C611 1.372 . S
C611 C610 1.372 . S
C611 C612 1.400 1_554 S
C611 C616 1.490 . S
C612 H602 0.930 . S
C612 C611 1.400 1_556 S
C612 C615 1.386 . S
H613 C629 0.930 . S
H614 C630 0.931 . S
C615 H603 0.929 . S
C615 C609 1.390 1_556 S
C615 C612 1.386 . S
C616 C611 1.490 . S
C616 C618 1.395 . S
C616 C619 1.403 1_554 S
H617 C623 0.930 . S
C618 H604 0.930 . S
C618 C616 1.395 . S
C618 C621 1.403 . S
C619 C616 1.403 1_556 S
C619 C620 1.524 . S
C619 C623 1.400 . S
C620 H605 0.960 . S
C620 H606 0.960 . S
C620 H607 0.960 . S
C620 C619 1.524 . S
C621 C618 1.403 . S
C621 C622 1.392 . S
C621 C625 1.495 . S
C622 C621 1.392 . S
C622 C623 1.385 1_554 S
C622 C624 1.478 . S
C623 H617 0.930 . S
C623 C619 1.400 . S
C623 C622 1.385 1_556 S
C624 C622 1.478 . S
C624 C626 1.381 . S
C624 C630 1.383 1_554 S
C625 C621 1.495 . S
C625 H631 0.959 . S
C625 H632 0.961 . S
C625 H633 0.960 . S
C626 C624 1.381 . S
C626 C627 1.394 . S
C626 H634 0.930 . S
C627 C626 1.394 . S
C627 C628 1.383 . S
C627 H635 0.929 . S
C628 C627 1.383 . S
C628 C629 1.377 1_554 S
C629 H613 0.930 . S
C629 C628 1.377 1_556 S
C629 C630 1.379 . S
C630 H614 0.931 . S
C630 C624 1.383 1_556 S
C630 C629 1.379 . S
H631 C625 0.959 . S
H632 C625 0.961 . S
H633 C625 0.960 . S
H634 C626 0.930 . S
H635 C627 0.929 . S
H636 C644 0.929 . S
H637 C646 0.930 . S
H638 C648 0.930 . S
H639 C651 0.929 . S
H640 C654 0.930 . S
H641 C656 0.960 . S
H642 C656 0.960 . S
H643 C656 0.960 . S
C644 H636 0.929 . S
C644 C645 1.377 1_556 S
C644 C646 1.384 . S
C645 C644 1.377 1_554 S
C645 C651 1.390 . S
C646 H637 0.930 . S
C646 C644 1.384 . S
C646 C647 1.372 1_556 S
C647 C646 1.372 1_554 S
C647 C648 1.400 . S
C647 C652 1.490 . S
C648 H638 0.930 . S
C648 C647 1.400 . S
C648 C651 1.386 . S
H649 C665 0.930 . S
H650 C666 0.931 . S
C651 H639 0.929 . S
C651 C645 1.390 . S
C651 C648 1.386 . S
C652 C647 1.490 . S
C652 C654 1.395 . S
C652 C655 1.403 . S
H653 C659 0.930 . S
C654 H640 0.930 . S
C654 C652 1.395 . S
C654 C657 1.403 . S
C655 C652 1.403 . S
C655 C656 1.524 . S
C655 C659 1.400 . S
C656 H641 0.960 . S
C656 H642 0.960 . S
C656 H643 0.960 . S
C656 C655 1.524 . S
C657 C654 1.403 . S
C657 C658 1.392 . S
C657 C661 1.495 . S
C658 C657 1.392 . S
C658 C659 1.385 . S
C658 C660 1.478 . S
C659 H653 0.930 . S
C659 C655 1.400 . S
C659 C658 1.385 . S
C660 C658 1.478 . S
C660 C662 1.381 1_554 S
C660 C666 1.383 . S
C661 C657 1.495 . S
C661 H667 0.959 1_554 S
C661 H668 0.961 . S
C661 H669 0.960 1_554 S
C662 C660 1.381 1_556 S
C662 C663 1.394 . S
C662 H670 0.930 . S
C663 C662 1.394 . S
C663 C664 1.383 1_556 S
C663 H671 0.929 . S
C664 C663 1.383 1_554 S
C664 C665 1.377 . S
C665 H649 0.930 . S
C665 C664 1.377 . S
C665 C666 1.379 . S
C666 H650 0.931 . S
C666 C660 1.383 . S
C666 C665 1.379 . S
H667 C661 0.959 1_556 S
H668 C661 0.961 . S
H669 C661 0.960 1_556 S
H670 C662 0.930 . S
H671 C663 0.929 . S
H672 C680 0.929 . S
H673 C682 0.930 . S
H674 C684 0.930 . S
H675 C687 0.929 . S
H676 C690 0.930 . S
H677 C692 0.960 . S
H678 C692 0.960 . S
H679 C692 0.960 . S
C680 H672 0.929 . S
C680 C681 1.377 . S
C680 C682 1.384 . S
C681 C680 1.377 . S
C681 C687 1.390 . S
C682 H673 0.930 . S
C682 C680 1.384 . S
C682 C683 1.372 . S
C683 C682 1.372 . S
C683 C684 1.400 . S
C683 C688 1.490 . S
C684 H674 0.930 . S
C684 C683 1.400 . S
C684 C687 1.386 . S
H685 C701 0.930 . S
H686 C702 0.931 . S
C687 H675 0.929 . S
C687 C681 1.390 . S
C687 C684 1.386 . S
C688 C683 1.490 . S
C688 C690 1.395 . S
C688 C691 1.403 . S
H689 C695 0.930 . S
C690 H676 0.930 . S
C690 C688 1.395 . S
C690 C693 1.403 . S
C691 C688 1.403 . S
C691 C692 1.524 . S
C691 C695 1.400 . S
C692 H677 0.960 . S
C692 H678 0.960 . S
C692 H679 0.960 . S
C692 C691 1.524 . S
C693 C690 1.403 . S
C693 C694 1.392 . S
C693 C697 1.495 . S
C694 C693 1.392 . S
C694 C695 1.385 . S
C694 C696 1.478 . S
C695 H689 0.930 . S
C695 C691 1.400 . S
C695 C694 1.385 . S
C696 C694 1.478 . S
C696 C698 1.381 . S
C696 C702 1.383 . S
C697 C693 1.495 . S
C697 H703 0.959 . S
C697 H704 0.961 . S
C697 H705 0.960 . S
C698 C696 1.381 . S
C698 C699 1.394 . S
C698 H706 0.930 . S
C699 C698 1.394 . S
C699 C700 1.383 . S
C699 H707 0.929 . S
C700 C699 1.383 . S
C700 C701 1.377 . S
C701 H685 0.930 . S
C701 C700 1.377 . S
C701 C702 1.379 . S
C702 H686 0.931 . S
C702 C696 1.383 . S
C702 C701 1.379 . S
H703 C697 0.959 . S
H704 C697 0.961 . S
H705 C697 0.960 . S
H706 C698 0.930 . S
H707 C699 0.929 . S
H708 C716 0.929 . S
H709 C718 0.930 . S
H710 C720 0.930 . S
H711 C723 0.929 . S
H712 C726 0.930 . S
H713 C728 0.960 . S
H714 C728 0.960 . S
H715 C728 0.960 . S
C716 H708 0.929 . S
C716 C717 1.377 . S
C716 C718 1.384 . S
C717 C716 1.377 . S
C717 C723 1.390 . S
C718 H709 0.930 . S
C718 C716 1.384 . S
C718 C719 1.372 . S
C719 C718 1.372 . S
C719 C720 1.400 . S
C719 C724 1.490 . S
C720 H710 0.930 . S
C720 C719 1.400 . S
C720 C723 1.386 . S
H721 C737 0.930 . S
H722 C738 0.931 . S
C723 H711 0.929 . S
C723 C717 1.390 . S
C723 C720 1.386 . S
C724 C719 1.490 . S
C724 C726 1.395 . S
C724 C727 1.403 . S
H725 C731 0.930 . S
C726 H712 0.930 . S
C726 C724 1.395 . S
C726 C729 1.403 . S
C727 C724 1.403 . S
C727 C728 1.524 . S
C727 C731 1.400 . S
C728 H713 0.960 . S
C728 H714 0.960 . S
C728 H715 0.960 . S
C728 C727 1.524 . S
C729 C726 1.403 . S
C729 C730 1.392 . S
C729 C733 1.495 . S
C730 C729 1.392 . S
C730 C731 1.385 . S
C730 C732 1.478 . S
C731 H725 0.930 . S
C731 C727 1.400 . S
C731 C730 1.385 . S
C732 C730 1.478 . S
C732 C734 1.381 . S
C732 C738 1.383 . S
C733 C729 1.495 . S
C733 H739 0.959 . S
C733 H740 0.961 . S
C733 H741 0.960 . S
C734 C732 1.381 . S
C734 C735 1.394 . S
C734 H742 0.930 . S
C735 C734 1.394 . S
C735 C736 1.383 . S
C735 H743 0.929 . S
C736 C735 1.383 . S
C736 C737 1.377 . S
C737 H721 0.930 . S
C737 C736 1.377 . S
C737 C738 1.379 . S
C738 H722 0.931 . S
C738 C732 1.383 . S
C738 C737 1.379 . S
H739 C733 0.959 . S
H740 C733 0.961 . S
H741 C733 0.960 . S
H742 C734 0.930 . S
H743 C735 0.929 . S
H744 C752 0.929 . S
H745 C754 0.930 . S
H746 C756 0.930 . S
H747 C759 0.929 . S
H748 C762 0.930 . S
H749 C764 0.960 . S
H750 C764 0.960 . S
H751 C764 0.960 . S
C752 H744 0.929 . S
C752 C753 1.377 . S
C752 C754 1.384 . S
C753 C752 1.377 . S
C753 C759 1.390 . S
C754 H745 0.930 . S
C754 C752 1.384 . S
C754 C755 1.372 . S
C755 C754 1.372 . S
C755 C756 1.400 . S
C755 C760 1.490 . S
C756 H746 0.930 . S
C756 C755 1.400 . S
C756 C759 1.386 . S
H757 C773 0.930 . S
H758 C774 0.931 . S
C759 H747 0.929 . S
C759 C753 1.390 . S
C759 C756 1.386 . S
C760 C755 1.490 . S
C760 C762 1.395 . S
C760 C763 1.403 . S
H761 C767 0.930 . S
C762 H748 0.930 . S
C762 C760 1.395 . S
C762 C765 1.403 . S
C763 C760 1.403 . S
C763 C764 1.524 . S
C763 C767 1.400 . S
C764 H749 0.960 . S
C764 H750 0.960 . S
C764 H751 0.960 . S
C764 C763 1.524 . S
C765 C762 1.403 . S
C765 C766 1.392 . S
C765 C769 1.495 . S
C766 C765 1.392 . S
C766 C767 1.385 . S
C766 C768 1.478 . S
C767 H761 0.930 . S
C767 C763 1.400 . S
C767 C766 1.385 . S
C768 C766 1.478 . S
C768 C770 1.381 . S
C768 C774 1.383 . S
C769 C765 1.495 . S
C769 H775 0.959 . S
C769 H776 0.961 . S
C769 H777 0.960 . S
C770 C768 1.381 . S
C770 C771 1.394 . S
C770 H778 0.930 . S
C771 C770 1.394 . S
C771 C772 1.383 . S
C771 H779 0.929 . S
C772 C771 1.383 . S
C772 C773 1.377 . S
C773 H757 0.930 . S
C773 C772 1.377 . S
C773 C774 1.379 . S
C774 H758 0.931 . S
C774 C768 1.383 . S
C774 C773 1.379 . S
H775 C769 0.959 . S
H776 C769 0.961 . S
H777 C769 0.960 . S
H778 C770 0.930 . S
H779 C771 0.929 . S
H780 C788 0.929 . S
H781 C790 0.930 . S
H782 C792 0.930 . S
H783 C795 0.929 . S
H784 C798 0.930 . S
H785 C800 0.960 . S
H786 C800 0.960 . S
H787 C800 0.960 . S
C788 H780 0.929 . S
C788 C789 1.377 . S
C788 C790 1.384 . S
C789 C788 1.377 . S
C789 C795 1.390 . S
C790 H781 0.930 . S
C790 C788 1.384 . S
C790 C791 1.372 . S
C791 C790 1.372 . S
C791 C792 1.400 . S
C791 C796 1.490 . S
C792 H782 0.930 . S
C792 C791 1.400 . S
C792 C795 1.386 . S
H793 C809 0.930 . S
H794 C810 0.931 . S
C795 H783 0.929 . S
C795 C789 1.390 . S
C795 C792 1.386 . S
C796 C791 1.490 . S
C796 C798 1.395 . S
C796 C799 1.403 . S
H797 C803 0.930 . S
C798 H784 0.930 . S
C798 C796 1.395 . S
C798 C801 1.403 . S
C799 C796 1.403 . S
C799 C800 1.524 . S
C799 C803 1.400 . S
C800 H785 0.960 . S
C800 H786 0.960 . S
C800 H787 0.960 . S
C800 C799 1.524 . S
C801 C798 1.403 . S
C801 C802 1.392 . S
C801 C805 1.495 . S
C802 C801 1.392 . S
C802 C803 1.385 . S
C802 C804 1.478 . S
C803 H797 0.930 . S
C803 C799 1.400 . S
C803 C802 1.385 . S
C804 C802 1.478 . S
C804 C806 1.381 . S
C804 C810 1.383 . S
C805 C801 1.495 . S
C805 H811 0.959 . S
C805 H812 0.961 . S
C805 H813 0.960 . S
C806 C804 1.381 . S
C806 C807 1.394 . S
C806 H814 0.930 . S
C807 C806 1.394 . S
C807 C808 1.383 . S
C807 H815 0.929 . S
C808 C807 1.383 . S
C808 C809 1.377 . S
C809 H793 0.930 . S
C809 C808 1.377 . S
C809 C810 1.379 . S
C810 H794 0.931 . S
C810 C804 1.383 . S
C810 C809 1.379 . S
H811 C805 0.959 . S
H812 C805 0.961 . S
H813 C805 0.960 . S
H814 C806 0.930 . S
H815 C807 0.929 . S
H816 C824 0.929 . S
H817 C826 0.930 . S
H818 C828 0.930 . S
H819 C831 0.929 . S
H820 C834 0.930 . S
H821 C836 0.960 . S
H822 C836 0.960 1_554 S
H823 C836 0.960 . S
C824 H816 0.929 . S
C824 C825 1.377 1_554 S
C824 C826 1.384 . S
C825 C824 1.377 1_556 S
C825 C831 1.390 . S
C826 H817 0.930 . S
C826 C824 1.384 . S
C826 C827 1.378 . S
C827 C826 1.378 . S
C827 C828 1.393 1_554 S
C827 C832 1.490 . S
C828 H818 0.930 . S
C828 C827 1.393 1_556 S
C828 C831 1.386 . S
H829 C845 0.930 . S
H830 C846 0.931 . S
C831 H819 0.929 . S
C831 C825 1.390 . S
C831 C828 1.386 . S
C832 C827 1.490 . S
C832 C834 1.395 . S
C832 C835 1.403 . S
H833 C839 0.930 1_556 S
C834 H820 0.930 . S
C834 C832 1.395 . S
C834 C837 1.403 . S
C835 C832 1.403 . S
C835 C836 1.523 1_554 S
C835 C839 1.400 . S
C836 H821 0.960 . S
C836 H822 0.960 1_556 S
C836 H823 0.960 . S
C836 C835 1.523 1_556 S
C837 C834 1.403 . S
C837 C838 1.392 . S
C837 C841 1.495 . S
C838 C837 1.392 . S
C838 C839 1.385 . S
C838 C840 1.478 . S
C839 H833 0.930 1_554 S
C839 C835 1.400 . S
C839 C838 1.385 . S
C840 C838 1.478 . S
C840 C842 1.381 . S
C840 C846 1.383 1_554 S
C841 C837 1.495 . S
C841 H847 0.959 . S
C841 H848 0.961 1_554 S
C841 H849 0.960 . S
C842 C840 1.381 . S
C842 C843 1.394 . S
C842 H850 0.930 . S
C843 C842 1.394 . S
C843 C844 1.383 . S
C843 H851 0.929 . S
C844 C843 1.383 . S
C844 C845 1.377 1_554 S
C845 H829 0.930 . S
C845 C844 1.377 1_556 S
C845 C846 1.379 . S
C846 H830 0.931 . S
C846 C840 1.383 1_556 S
C846 C845 1.379 . S
H847 C841 0.959 . S
H848 C841 0.961 1_556 S
H849 C841 0.960 . S
H850 C842 0.930 . S
H851 C843 0.929 . S
H852 C860 0.929 . S
H853 C862 0.930 . S
H854 C864 0.930 . S
H855 C867 0.929 . S
H856 C870 0.930 . S
H857 C872 0.960 . S
H858 C872 0.960 . S
H859 C872 0.960 . S
C860 H852 0.929 . S
C860 C861 1.377 1_554 S
C860 C862 1.384 . S
C861 C860 1.377 1_556 S
C861 C867 1.390 . S
C862 H853 0.930 . S
C862 C860 1.384 . S
C862 C863 1.369 . S
C863 C862 1.369 . S
C863 C864 1.403 1_554 S
C863 C868 1.490 . S
C864 H854 0.930 . S
C864 C863 1.403 1_556 S
C864 C867 1.386 . S
H865 C881 0.930 . S
H866 C882 0.931 . S
C867 H855 0.929 . S
C867 C861 1.390 . S
C867 C864 1.386 . S
C868 C863 1.490 . S
C868 C870 1.395 . S
C868 C871 1.403 1_554 S
H869 C875 0.930 . S
C870 H856 0.930 . S
C870 C868 1.395 . S
C870 C873 1.403 . S
C871 C868 1.403 1_556 S
C871 C872 1.524 . S
C871 C875 1.400 . S
C872 H857 0.960 . S
C872 H858 0.960 . S
C872 H859 0.960 . S
C872 C871 1.524 . S
C873 C870 1.403 . S
C873 C874 1.392 . S
C873 C877 1.495 . S
C874 C873 1.392 . S
C874 C875 1.385 1_554 S
C874 C876 1.478 . S
C875 H869 0.930 . S
C875 C871 1.400 . S
C875 C874 1.385 1_556 S
C876 C874 1.478 . S
C876 C878 1.381 . S
C876 C882 1.383 1_554 S
C877 C873 1.495 . S
C877 H883 0.959 . S
C877 H884 0.961 . S
C877 H885 0.960 . S
C878 C876 1.381 . S
C878 C879 1.394 . S
C878 H886 0.930 . S
C879 C878 1.394 . S
C879 C880 1.383 . S
C879 H887 0.929 . S
C880 C879 1.383 . S
C880 C881 1.377 1_554 S
C881 H865 0.930 . S
C881 C880 1.377 1_556 S
C881 C882 1.379 . S
C882 H866 0.931 . S
C882 C876 1.383 1_556 S
C882 C881 1.379 . S
H883 C877 0.959 . S
H884 C877 0.961 . S
H885 C877 0.960 . S
H886 C878 0.930 . S
H887 C879 0.929 . S
H888 C896 0.929 . S
H889 C898 0.930 . S
H890 C900 0.930 . S
H891 C903 0.929 . S
H892 C906 0.930 . S
H893 C908 0.960 . S
H894 C908 0.960 . S
H895 C908 0.960 . S
C896 H888 0.929 . S
C896 C897 1.377 1_556 S
C896 C898 1.384 . S
C897 C896 1.377 1_554 S
C897 C903 1.390 . S
C898 H889 0.930 . S
C898 C896 1.384 . S
C898 C899 1.372 1_556 S
C899 C898 1.372 1_554 S
C899 C900 1.400 . S
C899 C904 1.490 . S
C900 H890 0.930 . S
C900 C899 1.400 . S
C900 C903 1.386 . S
H901 C917 0.930 . S
H902 C918 0.931 . S
C903 H891 0.929 . S
C903 C897 1.390 . S
C903 C900 1.386 . S
C904 C899 1.490 . S
C904 C906 1.395 1_554 S
C904 C907 1.403 . S
H905 C911 0.930 . S
C906 H892 0.930 . S
C906 C904 1.395 1_556 S
C906 C909 1.403 . S
C907 C904 1.403 . S
C907 C908 1.524 . S
C907 C911 1.400 . S
C908 H893 0.960 . S
C908 H894 0.960 . S
C908 H895 0.960 . S
C908 C907 1.524 . S
C909 C906 1.403 . S
C909 C910 1.392 . S
C909 C913 1.495 . S
C910 C909 1.392 . S
C910 C911 1.385 1_556 S
C910 C912 1.478 . S
C911 H905 0.930 . S
C911 C907 1.400 . S
C911 C910 1.385 1_554 S
C912 C910 1.478 . S
C912 C914 1.381 . S
C912 C918 1.383 1_556 S
C913 C909 1.495 . S
C913 H919 0.959 . S
C913 H920 0.961 . S
C913 H921 0.960 . S
C914 C912 1.381 . S
C914 C915 1.394 . S
C914 H922 0.930 . S
C915 C914 1.394 . S
C915 C916 1.383 . S
C915 H923 0.929 . S
C916 C915 1.383 . S
C916 C917 1.377 1_556 S
C917 H901 0.930 . S
C917 C916 1.377 1_554 S
C917 C918 1.379 . S
C918 H902 0.931 . S
C918 C912 1.383 1_554 S
C918 C917 1.379 . S
H919 C913 0.959 . S
H920 C913 0.961 . S
H921 C913 0.960 . S
H922 C914 0.930 . S
H923 C915 0.929 . S
H924 C932 0.929 . S
H925 C934 0.930 . S
H926 C936 0.930 . S
H927 C939 0.929 . S
H928 C942 0.930 . S
H929 C944 0.960 . S
H930 C944 0.960 . S
H931 C944 0.960 1_556 S
C932 H924 0.929 . S
C932 C933 1.377 . S
C932 C934 1.384 . S
C933 C932 1.377 . S
C933 C939 1.390 1_554 S
C934 H925 0.930 . S
C934 C932 1.384 . S
C934 C935 1.372 . S
C935 C934 1.372 . S
C935 C936 1.400 1_554 S
C935 C940 1.490 . S
C936 H926 0.930 . S
C936 C935 1.400 1_556 S
C936 C939 1.386 . S
H937 C953 0.930 . S
H938 C954 0.931 . S
C939 H927 0.929 . S
C939 C933 1.390 1_556 S
C939 C936 1.386 . S
C940 C935 1.490 . S
C940 C942 1.395 . S
C940 C943 1.403 . S
H941 C947 0.930 1_556 S
C942 H928 0.930 . S
C942 C940 1.395 . S
C942 C945 1.403 . S
C943 C940 1.403 . S
C943 C944 1.524 . S
C943 C947 1.400 . S
C944 H929 0.960 . S
C944 H930 0.960 . S
C944 H931 0.960 1_554 S
C944 C943 1.524 . S
C945 C942 1.403 . S
C945 C946 1.392 . S
C945 C949 1.495 . S
C946 C945 1.392 . S
C946 C947 1.385 . S
C946 C948 1.478 1_554 S
C947 H941 0.930 1_554 S
C947 C943 1.400 . S
C947 C946 1.385 . S
C948 C946 1.478 1_556 S
C948 C950 1.381 1_556 S
C948 C954 1.383 . S
C949 C945 1.495 . S
C949 H955 0.959 . S
C949 H956 0.961 1_554 S
C949 H957 0.960 . S
C950 C948 1.381 1_554 S
C950 C951 1.394 . S
C950 H958 0.930 . S
C951 C950 1.394 . S
C951 C952 1.383 1_554 S
C951 H959 0.929 . S
C952 C951 1.383 1_556 S
C952 C953 1.377 . S
C953 H937 0.930 . S
C953 C952 1.377 . S
C953 C954 1.379 . S
C954 H938 0.931 . S
C954 C948 1.383 . S
C954 C953 1.379 . S
H955 C949 0.959 . S
H956 C949 0.961 1_556 S
H957 C949 0.960 . S
H958 C950 0.930 . S
H959 C951 0.929 . S
H960 C968 0.929 . S
H961 C970 0.930 . S
H962 C972 0.930 . S
H963 C975 0.929 . S
H964 C978 0.930 . S
H965 C980 0.960 . S
H966 C980 0.960 . S
H967 C980 0.960 . S
C968 H960 0.929 . S
C968 C969 1.377 . S
C968 C970 1.384 . S
C969 C968 1.377 . S
C969 C975 1.390 . S
C970 H961 0.930 . S
C970 C968 1.384 . S
C970 C971 1.372 . S
C971 C970 1.372 . S
C971 C972 1.400 . S
C971 C976 1.490 . S
C972 H962 0.930 . S
C972 C971 1.400 . S
C972 C975 1.386 . S
H973 C989 0.930 . S
H974 C990 0.931 . S
C975 H963 0.929 . S
C975 C969 1.390 . S
C975 C972 1.386 . S
C976 C971 1.490 . S
C976 C978 1.395 . S
C976 C979 1.403 . S
H977 C983 0.930 . S
C978 H964 0.930 . S
C978 C976 1.395 . S
C978 C981 1.403 . S
C979 C976 1.403 . S
C979 C980 1.524 . S
C979 C983 1.400 . S
C980 H965 0.960 . S
C980 H966 0.960 . S
C980 H967 0.960 . S
C980 C979 1.524 . S
C981 C978 1.403 . S
C981 C982 1.392 . S
C981 C985 1.495 . S
C982 C981 1.392 . S
C982 C983 1.385 . S
C982 C984 1.478 . S
C983 H977 0.930 . S
C983 C979 1.400 . S
C983 C982 1.385 . S
C984 C982 1.478 . S
C984 C986 1.381 . S
C984 C990 1.383 . S
C985 C981 1.495 . S
C985 H991 0.959 . S
C985 H992 0.961 . S
C985 H993 0.960 . S
C986 C984 1.381 . S
C986 C987 1.394 . S
C986 H994 0.930 . S
C987 C986 1.394 . S
C987 C988 1.383 . S
C987 H995 0.929 . S
C988 C987 1.383 . S
C988 C989 1.377 . S
C989 H973 0.930 . S
C989 C988 1.377 . S
C989 C990 1.379 . S
C990 H974 0.931 . S
C990 C984 1.383 . S
C990 C989 1.379 . S
H991 C985 0.959 . S
H992 C985 0.961 . S
H993 C985 0.960 . S
H994 C986 0.930 . S
H995 C987 0.929 . S
H996 C1004 0.929 . S
H997 C1006 0.930 . S
H998 C1008 0.930 . S
H999 C1011 0.929 . S
H1000 C1014 0.930 . S
H1001 C1016 0.960 . S
H1002 C1016 0.960 . S
H1003 C1016 0.960 . S
C1004 H996 0.929 . S
C1004 C1005 1.377 . S
C1004 C1006 1.384 . S
C1005 C1004 1.377 . S
C1005 C1011 1.390 . S
C1006 H997 0.930 . S
C1006 C1004 1.384 . S
C1006 C1007 1.372 . S
C1007 C1006 1.372 . S
C1007 C1008 1.400 . S
C1007 C1012 1.490 . S
C1008 H998 0.930 . S
C1008 C1007 1.400 . S
C1008 C1011 1.386 . S
H1009 C1025 0.930 . S
H1010 C1026 0.931 . S
C1011 H999 0.929 . S
C1011 C1005 1.390 . S
C1011 C1008 1.386 . S
C1012 C1007 1.490 . S
C1012 C1014 1.395 . S
C1012 C1015 1.403 . S
H1013 C1019 0.930 . S
C1014 H1000 0.930 . S
C1014 C1012 1.395 . S
C1014 C1017 1.403 . S
C1015 C1012 1.403 . S
C1015 C1016 1.524 . S
C1015 C1019 1.400 . S
C1016 H1001 0.960 . S
C1016 H1002 0.960 . S
C1016 H1003 0.960 . S
C1016 C1015 1.524 . S
C1017 C1014 1.403 . S
C1017 C1018 1.392 . S
C1017 C1021 1.495 . S
C1018 C1017 1.392 . S
C1018 C1019 1.385 . S
C1018 C1020 1.478 . S
C1019 H1013 0.930 . S
C1019 C1015 1.400 . S
C1019 C1018 1.385 . S
C1020 C1018 1.478 . S
C1020 C1022 1.381 . S
C1020 C1026 1.383 . S
C1021 C1017 1.495 . S
C1021 H1027 0.959 . S
C1021 H1028 0.961 . S
C1021 H1029 0.960 . S
C1022 C1020 1.381 . S
C1022 C1023 1.394 . S
C1022 H1030 0.930 . S
C1023 C1022 1.394 . S
C1023 C1024 1.383 . S
C1023 H1031 0.929 . S
C1024 C1023 1.383 . S
C1024 C1025 1.377 . S
C1025 H1009 0.930 . S
C1025 C1024 1.377 . S
C1025 C1026 1.379 . S
C1026 H1010 0.931 . S
C1026 C1020 1.383 . S
C1026 C1025 1.379 . S
H1027 C1021 0.959 . S
H1028 C1021 0.961 . S
H1029 C1021 0.960 . S
H1030 C1022 0.930 . S
H1031 C1023 0.929 . S
H1032 C1040 0.929 . S
H1033 C1042 0.930 . S
H1034 C1044 0.930 . S
H1035 C1047 0.929 . S
H1036 C1050 0.930 . S
H1037 C1052 0.960 . S
H1038 C1052 0.960 . S
H1039 C1052 0.960 . S
C1040 H1032 0.929 . S
C1040 C1041 1.377 . S
C1040 C1042 1.384 . S
C1041 C1040 1.377 . S
C1041 C1047 1.390 . S
C1042 H1033 0.930 . S
C1042 C1040 1.384 . S
C1042 C1043 1.372 . S
C1043 C1042 1.372 . S
C1043 C1044 1.400 . S
C1043 C1048 1.490 . S
C1044 H1034 0.930 . S
C1044 C1043 1.400 . S
C1044 C1047 1.386 . S
H1045 C1061 0.930 . S
H1046 C1062 0.931 . S
C1047 H1035 0.929 . S
C1047 C1041 1.390 . S
C1047 C1044 1.386 . S
C1048 C1043 1.490 . S
C1048 C1050 1.395 . S
C1048 C1051 1.403 . S
H1049 C1055 0.930 . S
C1050 H1036 0.930 . S
C1050 C1048 1.395 . S
C1050 C1053 1.403 . S
C1051 C1048 1.403 . S
C1051 C1052 1.524 . S
C1051 C1055 1.400 . S
C1052 H1037 0.960 . S
C1052 H1038 0.960 . S
C1052 H1039 0.960 . S
C1052 C1051 1.524 . S
C1053 C1050 1.403 . S
C1053 C1054 1.392 . S
C1053 C1057 1.495 . S
C1054 C1053 1.392 . S
C1054 C1055 1.385 . S
C1054 C1056 1.478 . S
C1055 H1049 0.930 . S
C1055 C1051 1.400 . S
C1055 C1054 1.385 . S
C1056 C1054 1.478 . S
C1056 C1058 1.381 . S
C1056 C1062 1.383 . S
C1057 C1053 1.495 . S
C1057 H1063 0.959 . S
C1057 H1064 0.961 . S
C1057 H1065 0.960 . S
C1058 C1056 1.381 . S
C1058 C1059 1.394 . S
C1058 H1066 0.930 . S
C1059 C1058 1.394 . S
C1059 C1060 1.383 . S
C1059 H1067 0.929 . S
C1060 C1059 1.383 . S
C1060 C1061 1.377 . S
C1061 H1045 0.930 . S
C1061 C1060 1.377 . S
C1061 C1062 1.379 . S
C1062 H1046 0.931 . S
C1062 C1056 1.383 . S
C1062 C1061 1.379 . S
H1063 C1057 0.959 . S
H1064 C1057 0.961 . S
H1065 C1057 0.960 . S
H1066 C1058 0.930 . S
H1067 C1059 0.929 . S
H1068 C1076 0.929 . S
H1069 C1078 0.930 . S
H1070 C1080 0.930 . S
H1071 C1083 0.929 . S
H1072 C1086 0.930 . S
H1073 C1088 0.960 . S
H1074 C1088 0.960 . S
H1075 C1088 0.960 . S
C1076 H1068 0.929 . S
C1076 C1077 1.377 . S
C1076 C1078 1.384 . S
C1077 C1076 1.377 . S
C1077 C1083 1.390 . S
C1078 H1069 0.930 . S
C1078 C1076 1.384 . S
C1078 C1079 1.372 . S
C1079 C1078 1.372 . S
C1079 C1080 1.400 . S
C1079 C1084 1.490 . S
C1080 H1070 0.930 . S
C1080 C1079 1.400 . S
C1080 C1083 1.386 . S
H1081 C1097 0.930 . S
H1082 C1098 0.931 . S
C1083 H1071 0.929 . S
C1083 C1077 1.390 . S
C1083 C1080 1.386 . S
C1084 C1079 1.490 . S
C1084 C1086 1.395 . S
C1084 C1087 1.403 . S
H1085 C1091 0.930 . S
C1086 H1072 0.930 . S
C1086 C1084 1.395 . S
C1086 C1089 1.403 . S
C1087 C1084 1.403 . S
C1087 C1088 1.524 . S
C1087 C1091 1.400 . S
C1088 H1073 0.960 . S
C1088 H1074 0.960 . S
C1088 H1075 0.960 . S
C1088 C1087 1.524 . S
C1089 C1086 1.403 . S
C1089 C1090 1.392 . S
C1089 C1093 1.495 . S
C1090 C1089 1.392 . S
C1090 C1091 1.385 . S
C1090 C1092 1.478 . S
C1091 H1085 0.930 . S
C1091 C1087 1.400 . S
C1091 C1090 1.385 . S
C1092 C1090 1.478 . S
C1092 C1094 1.381 . S
C1092 C1098 1.383 . S
C1093 C1089 1.495 . S
C1093 H1099 0.959 . S
C1093 H1100 0.961 . S
C1093 H1101 0.960 . S
C1094 C1092 1.381 . S
C1094 C1095 1.394 . S
C1094 H1102 0.930 . S
C1095 C1094 1.394 . S
C1095 C1096 1.383 . S
C1095 H1103 0.929 . S
C1096 C1095 1.383 . S
C1096 C1097 1.377 . S
C1097 H1081 0.930 . S
C1097 C1096 1.377 . S
C1097 C1098 1.379 . S
C1098 H1082 0.931 . S
C1098 C1092 1.383 . S
C1098 C1097 1.379 . S
H1099 C1093 0.959 . S
H1100 C1093 0.961 . S
H1101 C1093 0.960 . S
H1102 C1094 0.930 . S
H1103 C1095 0.929 . S
H1104 C1112 0.929 . S
H1105 C1114 0.930 . S
H1106 C1116 0.930 . S
H1107 C1119 0.929 . S
H1108 C1122 0.930 . S
H1109 C1124 0.960 . S
H1110 C1124 0.960 . S
H1111 C1124 0.960 . S
C1112 H1104 0.929 . S
C1112 C1113 1.377 . S
C1112 C1114 1.384 . S
C1113 C1112 1.377 . S
C1113 C1119 1.390 . S
C1114 H1105 0.930 . S
C1114 C1112 1.384 . S
C1114 C1115 1.372 . S
C1115 C1114 1.372 . S
C1115 C1116 1.400 . S
C1115 C1120 1.490 . S
C1116 H1106 0.930 . S
C1116 C1115 1.400 . S
C1116 C1119 1.386 . S
H1117 C1133 0.930 . S
H1118 C1134 0.931 . S
C1119 H1107 0.929 . S
C1119 C1113 1.390 . S
C1119 C1116 1.386 . S
C1120 C1115 1.490 . S
C1120 C1122 1.395 . S
C1120 C1123 1.403 . S
H1121 C1127 0.930 . S
C1122 H1108 0.930 . S
C1122 C1120 1.395 . S
C1122 C1125 1.403 . S
C1123 C1120 1.403 . S
C1123 C1124 1.524 . S
C1123 C1127 1.400 . S
C1124 H1109 0.960 . S
C1124 H1110 0.960 . S
C1124 H1111 0.960 . S
C1124 C1123 1.524 . S
C1125 C1122 1.403 . S
C1125 C1126 1.392 . S
C1125 C1129 1.495 . S
C1126 C1125 1.392 . S
C1126 C1127 1.385 . S
C1126 C1128 1.478 . S
C1127 H1121 0.930 . S
C1127 C1123 1.400 . S
C1127 C1126 1.385 . S
C1128 C1126 1.478 . S
C1128 C1130 1.381 . S
C1128 C1134 1.383 . S
C1129 C1125 1.495 . S
C1129 H1135 0.959 . S
C1129 H1136 0.961 . S
C1129 H1137 0.960 . S
C1130 C1128 1.381 . S
C1130 C1131 1.394 . S
C1130 H1138 0.930 . S
C1131 C1130 1.394 . S
C1131 C1132 1.383 . S
C1131 H1139 0.929 . S
C1132 C1131 1.383 . S
C1132 C1133 1.377 . S
C1133 H1117 0.930 . S
C1133 C1132 1.377 . S
C1133 C1134 1.379 . S
C1134 H1118 0.931 . S
C1134 C1128 1.383 . S
C1134 C1133 1.379 . S
H1135 C1129 0.959 . S
H1136 C1129 0.961 . S
H1137 C1129 0.960 . S
H1138 C1130 0.930 . S
H1139 C1131 0.929 . S
H1140 C1148 0.929 . S
H1141 C1150 0.930 . S
H1142 C1152 0.930 . S
H1143 C1155 0.929 . S
H1144 C1158 0.930 . S
H1145 C1160 0.960 . S
H1146 C1160 0.960 . S
H1147 C1160 0.960 . S
C1148 H1140 0.929 . S
C1148 C1149 1.377 . S
C1148 C1150 1.384 . S
C1149 C1148 1.377 . S
C1149 C1155 1.390 . S
C1150 H1141 0.930 . S
C1150 C1148 1.384 . S
C1150 C1151 1.372 . S
C1151 C1150 1.372 . S
C1151 C1152 1.400 . S
C1151 C1156 1.490 . S
C1152 H1142 0.930 . S
C1152 C1151 1.400 . S
C1152 C1155 1.386 . S
H1153 C1169 0.930 . S
H1154 C1170 0.931 . S
C1155 H1143 0.929 . S
C1155 C1149 1.390 . S
C1155 C1152 1.386 . S
C1156 C1151 1.490 . S
C1156 C1158 1.395 . S
C1156 C1159 1.403 . S
H1157 C1163 0.930 . S
C1158 H1144 0.930 . S
C1158 C1156 1.395 . S
C1158 C1161 1.403 . S
C1159 C1156 1.403 . S
C1159 C1160 1.524 . S
C1159 C1163 1.400 . S
C1160 H1145 0.960 . S
C1160 H1146 0.960 . S
C1160 H1147 0.960 . S
C1160 C1159 1.524 . S
C1161 C1158 1.403 . S
C1161 C1162 1.392 . S
C1161 C1165 1.495 . S
C1162 C1161 1.392 . S
C1162 C1163 1.385 . S
C1162 C1164 1.478 . S
C1163 H1157 0.930 . S
C1163 C1159 1.400 . S
C1163 C1162 1.385 . S
C1164 C1162 1.478 . S
C1164 C1166 1.381 . S
C1164 C1170 1.383 . S
C1165 C1161 1.495 . S
C1165 H1171 0.959 . S
C1165 H1172 0.961 . S
C1165 H1173 0.960 . S
C1166 C1164 1.381 . S
C1166 C1167 1.394 . S
C1166 H1174 0.930 . S
C1167 C1166 1.394 . S
C1167 C1168 1.383 . S
C1167 H1175 0.929 . S
C1168 C1167 1.383 . S
C1168 C1169 1.377 . S
C1169 H1153 0.930 . S
C1169 C1168 1.377 . S
C1169 C1170 1.379 . S
C1170 H1154 0.931 . S
C1170 C1164 1.383 . S
C1170 C1169 1.379 . S
H1171 C1165 0.959 . S
H1172 C1165 0.961 . S
H1173 C1165 0.960 . S
H1174 C1166 0.930 . S
H1175 C1167 0.929 . S
H1176 C1184 0.929 . S
H1177 C1186 0.930 . S
H1178 C1188 0.930 . S
H1179 C1191 0.929 . S
H1180 C1194 0.930 . S
H1181 C1196 0.960 . S
H1182 C1196 0.960 . S
H1183 C1196 0.960 . S
C1184 H1176 0.929 . S
C1184 C1185 1.377 . S
C1184 C1186 1.384 . S
C1185 C1184 1.377 . S
C1185 C1191 1.390 . S
C1186 H1177 0.930 . S
C1186 C1184 1.384 . S
C1186 C1187 1.372 . S
C1187 C1186 1.372 . S
C1187 C1188 1.400 . S
C1187 C1192 1.490 . S
C1188 H1178 0.930 . S
C1188 C1187 1.400 . S
C1188 C1191 1.386 . S
H1189 C1205 0.930 . S
H1190 C1206 0.931 . S
C1191 H1179 0.929 . S
C1191 C1185 1.390 . S
C1191 C1188 1.386 . S
C1192 C1187 1.490 . S
C1192 C1194 1.395 . S
C1192 C1195 1.403 . S
H1193 C1199 0.930 . S
C1194 H1180 0.930 . S
C1194 C1192 1.395 . S
C1194 C1197 1.403 . S
C1195 C1192 1.403 . S
C1195 C1196 1.524 . S
C1195 C1199 1.400 . S
C1196 H1181 0.960 . S
C1196 H1182 0.960 . S
C1196 H1183 0.960 . S
C1196 C1195 1.524 . S
C1197 C1194 1.403 . S
C1197 C1198 1.392 . S
C1197 C1201 1.495 . S
C1198 C1197 1.392 . S
C1198 C1199 1.385 . S
C1198 C1200 1.478 . S
C1199 H1193 0.930 . S
C1199 C1195 1.400 . S
C1199 C1198 1.385 . S
C1200 C1198 1.478 . S
C1200 C1202 1.381 . S
C1200 C1206 1.383 . S
C1201 C1197 1.495 . S
C1201 H1207 0.959 . S
C1201 H1208 0.961 . S
C1201 H1209 0.960 . S
C1202 C1200 1.381 . S
C1202 C1203 1.394 . S
C1202 H1210 0.930 . S
C1203 C1202 1.394 . S
C1203 C1204 1.383 . S
C1203 H1211 0.929 . S
C1204 C1203 1.383 . S
C1204 C1205 1.377 . S
C1205 H1189 0.930 . S
C1205 C1204 1.377 . S
C1205 C1206 1.379 . S
C1206 H1190 0.931 . S
C1206 C1200 1.383 . S
C1206 C1205 1.379 . S
H1207 C1201 0.959 . S
H1208 C1201 0.961 . S
H1209 C1201 0.960 . S
H1210 C1202 0.930 . S
H1211 C1203 0.929 . S
H1212 C1220 0.929 . S
H1213 C1222 0.930 . S
H1214 C1224 0.930 . S
H1215 C1227 0.929 . S
H1216 C1230 0.930 . S
H1217 C1232 0.960 . S
H1218 C1232 0.960 . S
H1219 C1232 0.960 . S
C1220 H1212 0.929 . S
C1220 C1221 1.377 . S
C1220 C1222 1.384 . S
C1221 C1220 1.377 . S
C1221 C1227 1.390 . S
C1222 H1213 0.930 . S
C1222 C1220 1.384 . S
C1222 C1223 1.372 . S
C1223 C1222 1.372 . S
C1223 C1224 1.400 . S
C1223 C1228 1.490 . S
C1224 H1214 0.930 . S
C1224 C1223 1.400 . S
C1224 C1227 1.386 . S
H1225 C1241 0.930 . S
H1226 C1242 0.931 . S
C1227 H1215 0.929 . S
C1227 C1221 1.390 . S
C1227 C1224 1.386 . S
C1228 C1223 1.490 . S
C1228 C1230 1.395 . S
C1228 C1231 1.403 . S
H1229 C1235 0.930 . S
C1230 H1216 0.930 . S
C1230 C1228 1.395 . S
C1230 C1233 1.403 . S
C1231 C1228 1.403 . S
C1231 C1232 1.524 . S
C1231 C1235 1.400 . S
C1232 H1217 0.960 . S
C1232 H1218 0.960 . S
C1232 H1219 0.960 . S
C1232 C1231 1.524 . S
C1233 C1230 1.403 . S
C1233 C1234 1.392 . S
C1233 C1237 1.495 . S
C1234 C1233 1.392 . S
C1234 C1235 1.385 . S
C1234 C1236 1.478 . S
C1235 H1229 0.930 . S
C1235 C1231 1.400 . S
C1235 C1234 1.385 . S
C1236 C1234 1.478 . S
C1236 C1238 1.381 . S
C1236 C1242 1.383 . S
C1237 C1233 1.495 . S
C1237 H1243 0.959 . S
C1237 H1244 0.961 . S
C1237 H1245 0.960 . S
C1238 C1236 1.381 . S
C1238 C1239 1.394 . S
C1238 H1246 0.930 . S
C1239 C1238 1.394 . S
C1239 C1240 1.383 . S
C1239 H1247 0.929 . S
C1240 C1239 1.383 . S
C1240 C1241 1.377 . S
C1241 H1225 0.930 . S
C1241 C1240 1.377 . S
C1241 C1242 1.379 . S
C1242 H1226 0.931 . S
C1242 C1236 1.383 . S
C1242 C1241 1.379 . S
H1243 C1237 0.959 . S
H1244 C1237 0.961 . S
H1245 C1237 0.960 . S
H1246 C1238 0.930 . S
H1247 C1239 0.929 . S
H1248 C1256 0.929 1_556 S
H1249 C1258 0.930 1_556 S
H1250 C1260 0.930 . S
H1251 C1263 0.929 . S
H1252 C1266 0.930 . S
H1253 C1268 0.960 . S
H1254 C1268 0.960 . S
H1255 C1268 0.960 . S
C1256 H1248 0.929 1_554 S
C1256 C1257 1.377 . S
C1256 C1258 1.384 . S
C1257 C1256 1.377 . S
C1257 C1263 1.390 . S
C1258 H1249 0.930 1_554 S
C1258 C1256 1.384 . S
C1258 C1259 1.372 . S
C1259 C1258 1.372 . S
C1259 C1260 1.400 . S
C1259 C1264 1.490 . S
C1260 H1250 0.930 . S
C1260 C1259 1.400 . S
C1260 C1263 1.386 . S
H1261 C1277 0.930 . S
H1262 C1278 0.931 . S
C1263 H1251 0.929 . S
C1263 C1257 1.390 . S
C1263 C1260 1.386 . S
C1264 C1259 1.490 . S
C1264 C1266 1.395 . S
C1264 C1267 1.403 . S
H1265 C1271 0.930 . S
C1266 H1252 0.930 . S
C1266 C1264 1.395 . S
C1266 C1269 1.403 . S
C1267 C1264 1.403 . S
C1267 C1268 1.524 . S
C1267 C1271 1.400 . S
C1268 H1253 0.960 . S
C1268 H1254 0.960 . S
C1268 H1255 0.960 . S
C1268 C1267 1.524 . S
C1269 C1266 1.403 . S
C1269 C1270 1.392 . S
C1269 C1273 1.495 1_554 S
C1270 C1269 1.392 . S
C1270 C1271 1.385 . S
C1270 C1272 1.478 . S
C1271 H1265 0.930 . S
C1271 C1267 1.400 . S
C1271 C1270 1.385 . S
C1272 C1270 1.478 . S
C1272 C1274 1.381 1_554 S
C1272 C1278 1.383 . S
C1273 C1269 1.495 1_556 S
C1273 H1279 0.959 . S
C1273 H1280 0.961 1_556 S
C1273 H1281 0.960 . S
C1274 C1272 1.381 1_556 S
C1274 C1275 1.394 . S
C1274 H1282 0.930 . S
C1275 C1274 1.394 . S
C1275 C1276 1.383 1_556 S
C1275 H1283 0.929 . S
C1276 C1275 1.383 1_554 S
C1276 C1277 1.377 . S
C1277 H1261 0.930 . S
C1277 C1276 1.377 . S
C1277 C1278 1.379 . S
C1278 H1262 0.931 . S
C1278 C1272 1.383 . S
C1278 C1277 1.379 . S
H1279 C1273 0.959 . S
H1280 C1273 0.961 1_554 S
H1281 C1273 0.960 . S
H1282 C1274 0.930 . S
H1283 C1275 0.929 . S
H1284 C1292 0.929 . S
H1285 C1294 0.930 . S
H1286 C1296 0.930 . S
H1287 C1299 0.929 . S
H1288 C1302 0.930 1_556 S
H1289 C1304 0.960 . S
H1290 C1304 0.960 . S
H1291 C1304 0.960 . S
C1292 H1284 0.929 . S
C1292 C1293 1.377 . S
C1292 C1294 1.384 . S
C1293 C1292 1.377 . S
C1293 C1299 1.390 . S
C1294 H1285 0.930 . S
C1294 C1292 1.384 . S
C1294 C1295 1.372 . S
C1295 C1294 1.372 . S
C1295 C1296 1.400 . S
C1295 C1300 1.490 . S
C1296 H1286 0.930 . S
C1296 C1295 1.400 . S
C1296 C1299 1.386 . S
H1297 C1313 0.930 . S
H1298 C1314 0.931 . S
C1299 H1287 0.929 . S
C1299 C1293 1.390 . S
C1299 C1296 1.386 . S
C1300 C1295 1.490 . S
C1300 C1302 1.395 . S
C1300 C1303 1.403 . S
H1301 C1307 0.930 . S
C1302 H1288 0.930 1_554 S
C1302 C1300 1.395 . S
C1302 C1305 1.403 . S
C1303 C1300 1.403 . S
C1303 C1304 1.524 . S
C1303 C1307 1.400 . S
C1304 H1289 0.960 . S
C1304 H1290 0.960 . S
C1304 H1291 0.960 . S
C1304 C1303 1.524 . S
C1305 C1302 1.403 . S
C1305 C1306 1.392 . S
C1305 C1309 1.495 1_554 S
C1306 C1305 1.392 . S
C1306 C1307 1.385 . S
C1306 C1308 1.478 . S
C1307 H1301 0.930 . S
C1307 C1303 1.400 . S
C1307 C1306 1.385 . S
C1308 C1306 1.478 . S
C1308 C1310 1.381 . S
C1308 C1314 1.383 . S
C1309 C1305 1.495 1_556 S
C1309 H1315 0.959 . S
C1309 H1316 0.961 . S
C1309 H1317 0.960 . S
C1310 C1308 1.381 . S
C1310 C1311 1.394 . S
C1310 H1318 0.930 . S
C1311 C1310 1.394 . S
C1311 C1312 1.383 . S
C1311 H1319 0.929 . S
C1312 C1311 1.383 . S
C1312 C1313 1.377 . S
C1313 H1297 0.930 . S
C1313 C1312 1.377 . S
C1313 C1314 1.379 . S
C1314 H1298 0.931 . S
C1314 C1308 1.383 . S
C1314 C1313 1.379 . S
H1315 C1309 0.959 . S
H1316 C1309 0.961 . S
H1317 C1309 0.960 . S
H1318 C1310 0.930 . S
H1319 C1311 0.929 . S
H1320 C1328 0.929 . S
H1321 C1330 0.930 . S
H1322 C1332 0.930 . S
H1323 C1335 0.929 . S
H1324 C1338 0.930 1_556 S
H1325 C1340 0.960 . S
H1326 C1340 0.960 . S
H1327 C1340 0.960 . S
C1328 H1320 0.929 . S
C1328 C1329 1.377 . S
C1328 C1330 1.384 . S
C1329 C1328 1.377 . S
C1329 C1335 1.390 . S
C1330 H1321 0.930 . S
C1330 C1328 1.384 . S
C1330 C1331 1.372 . S
C1331 C1330 1.372 . S
C1331 C1332 1.400 . S
C1331 C1336 1.490 . S
C1332 H1322 0.930 . S
C1332 C1331 1.400 . S
C1332 C1335 1.386 . S
H1333 C1349 0.930 . S
H1334 C1350 0.931 . S
C1335 H1323 0.929 . S
C1335 C1329 1.390 . S
C1335 C1332 1.386 . S
C1336 C1331 1.490 . S
C1336 C1338 1.395 . S
C1336 C1339 1.403 . S
H1337 C1343 0.930 . S
C1338 H1324 0.930 1_554 S
C1338 C1336 1.395 . S
C1338 C1341 1.403 . S
C1339 C1336 1.403 . S
C1339 C1340 1.524 . S
C1339 C1343 1.400 . S
C1340 H1325 0.960 . S
C1340 H1326 0.960 . S
C1340 H1327 0.960 . S
C1340 C1339 1.524 . S
C1341 C1338 1.403 . S
C1341 C1342 1.392 . S
C1341 C1345 1.495 1_554 S
C1342 C1341 1.392 . S
C1342 C1343 1.385 . S
C1342 C1344 1.478 . S
C1343 H1337 0.930 . S
C1343 C1339 1.400 . S
C1343 C1342 1.385 . S
C1344 C1342 1.478 . S
C1344 C1346 1.381 . S
C1344 C1350 1.383 . S
C1345 C1341 1.495 1_556 S
C1345 H1351 0.959 . S
C1345 H1352 0.961 . S
C1345 H1353 0.960 . S
C1346 C1344 1.381 . S
C1346 C1347 1.394 . S
C1346 H1354 0.930 . S
C1347 C1346 1.394 . S
C1347 C1348 1.383 . S
C1347 H1355 0.929 . S
C1348 C1347 1.383 . S
C1348 C1349 1.377 . S
C1349 H1333 0.930 . S
C1349 C1348 1.377 . S
C1349 C1350 1.379 . S
C1350 H1334 0.931 . S
C1350 C1344 1.383 . S
C1350 C1349 1.379 . S
H1351 C1345 0.959 . S
H1352 C1345 0.961 . S
H1353 C1345 0.960 . S
H1354 C1346 0.930 . S
H1355 C1347 0.929 . S
H1356 C1364 0.929 . S
H1357 C1366 0.930 . S
H1358 C1368 0.930 . S
H1359 C1371 0.929 . S
H1360 C1374 0.930 . S
H1361 C1376 0.960 . S
H1362 C1376 0.960 . S
H1363 C1376 0.960 . S
C1364 H1356 0.929 . S
C1364 C1365 1.377 . S
C1364 C1366 1.384 . S
C1365 C1364 1.377 . S
C1365 C1371 1.390 . S
C1366 H1357 0.930 . S
C1366 C1364 1.384 . S
C1366 C1367 1.372 . S
C1367 C1366 1.372 . S
C1367 C1368 1.400 . S
C1367 C1372 1.490 . S
C1368 H1358 0.930 . S
C1368 C1367 1.400 . S
C1368 C1371 1.386 . S
H1369 C1385 0.930 1_556 S
H1370 C1386 0.931 1_556 S
C1371 H1359 0.929 . S
C1371 C1365 1.390 . S
C1371 C1368 1.386 . S
C1372 C1367 1.490 . S
C1372 C1374 1.395 . S
C1372 C1375 1.403 . S
H1373 C1379 0.930 . S
C1374 H1360 0.930 . S
C1374 C1372 1.395 . S
C1374 C1377 1.403 . S
C1375 C1372 1.403 . S
C1375 C1376 1.524 . S
C1375 C1379 1.400 . S
C1376 H1361 0.960 . S
C1376 H1362 0.960 . S
C1376 H1363 0.960 . S
C1376 C1375 1.524 . S
C1377 C1374 1.403 . S
C1377 C1378 1.392 . S
C1377 C1381 1.495 . S
C1378 C1377 1.392 . S
C1378 C1379 1.385 . S
C1378 C1380 1.478 . S
C1379 H1373 0.930 . S
C1379 C1375 1.400 . S
C1379 C1378 1.385 . S
C1380 C1378 1.478 . S
C1380 C1382 1.381 . S
C1380 C1386 1.383 . S
C1381 C1377 1.495 . S
C1381 H1387 0.959 . S
C1381 H1388 0.961 1_554 S
C1381 H1389 0.960 . S
C1382 C1380 1.381 . S
C1382 C1383 1.394 . S
C1382 H1390 0.930 . S
C1383 C1382 1.394 . S
C1383 C1384 1.383 . S
C1383 H1391 0.929 . S
C1384 C1383 1.383 . S
C1384 C1385 1.377 . S
C1385 H1369 0.930 1_554 S
C1385 C1384 1.377 . S
C1385 C1386 1.379 . S
C1386 H1370 0.931 1_554 S
C1386 C1380 1.383 . S
C1386 C1385 1.379 . S
H1387 C1381 0.959 . S
H1388 C1381 0.961 1_556 S
H1389 C1381 0.960 . S
H1390 C1382 0.930 . S
H1391 C1383 0.929 . S
H1392 C1400 0.914 1_455 S
H1393 C1402 0.930 . S
H1394 C1404 0.930 . S
H1395 C1407 0.929 . S
H1396 C1410 0.930 . S
H1397 C1412 0.960 . S
H1398 C1412 0.960 . S
H1399 C1412 0.960 . S
C1400 H1392 0.914 1_655 S
C1400 C1401 1.398 . S
C1400 C1402 1.378 1_655 S
C1401 C1400 1.398 . S
C1401 C1407 1.390 . S
C1402 H1393 0.930 . S
C1402 C1400 1.378 1_455 S
C1402 C1403 1.372 1_455 S
C1403 C1402 1.372 1_655 S
C1403 C1404 1.400 . S
C1403 C1408 1.490 . S
C1404 H1394 0.930 . S
C1404 C1403 1.400 . S
C1404 C1407 1.386 . S
H1405 C1421 0.930 1_655 S
H1406 C1422 0.934 . S
C1407 H1395 0.929 . S
C1407 C1401 1.390 . S
C1407 C1404 1.386 . S
C1408 C1403 1.490 . S
C1408 C1410 1.395 1_655 S
C1408 C1411 1.403 . S
H1409 C1415 0.930 . S
C1410 H1396 0.930 . S
C1410 C1408 1.395 1_455 S
C1410 C1413 1.403 . S
C1411 C1408 1.403 . S
C1411 C1412 1.524 . S
C1411 C1415 1.400 . S
C1412 H1397 0.960 . S
C1412 H1398 0.960 . S
C1412 H1399 0.960 . S
C1412 C1411 1.524 . S
C1413 C1410 1.403 . S
C1413 C1414 1.392 . S
C1413 C1417 1.495 . S
C1414 C1413 1.392 . S
C1414 C1415 1.385 1_455 S
C1414 C1416 1.478 . S
C1415 H1409 0.930 . S
C1415 C1411 1.400 . S
C1415 C1414 1.385 1_655 S
C1416 C1414 1.478 . S
C1416 C1418 1.381 . S
C1416 C1422 1.380 1_455 S
C1417 C1413 1.495 . S
C1417 H1423 0.959 . S
C1417 H1424 0.961 . S
C1417 H1425 0.960 . S
C1418 C1416 1.381 . S
C1418 C1419 1.394 . S
C1418 H1426 0.930 . S
C1419 C1418 1.394 . S
C1419 C1420 1.383 . S
C1419 H1427 0.929 . S
C1420 C1419 1.383 . S
C1420 C1421 1.377 . S
C1421 H1405 0.930 1_455 S
C1421 C1420 1.377 . S
C1421 C1422 1.379 1_455 S
C1422 H1406 0.934 . S
C1422 C1416 1.380 1_655 S
C1422 C1421 1.379 1_655 S
H1423 C1417 0.959 . S
H1424 C1417 0.961 . S
H1425 C1417 0.960 . S
H1426 C1418 0.930 . S
H1427 C1419 0.929 . S
H1428 C1436 0.929 1_545 S
H1429 C1438 0.930 . S
H1430 C1440 0.930 . S
H1431 C1443 0.929 . S
H1432 C1446 0.930 . S
H1433 C1448 0.960 . S
H1434 C1448 0.960 . S
H1435 C1448 0.960 1_565 S
C1436 H1428 0.929 1_565 S
C1436 C1437 1.377 . S
C1436 C1438 1.384 1_565 S
C1437 C1436 1.377 . S
C1437 C1443 1.390 . S
C1438 H1429 0.930 . S
C1438 C1436 1.384 1_545 S
C1438 C1439 1.372 1_545 S
C1439 C1438 1.372 1_565 S
C1439 C1440 1.400 . S
C1439 C1444 1.490 . S
C1440 H1430 0.930 . S
C1440 C1439 1.400 . S
C1440 C1443 1.386 . S
H1441 C1457 0.930 1_565 S
H1442 C1458 0.931 . S
C1443 H1431 0.929 . S
C1443 C1437 1.390 . S
C1443 C1440 1.386 . S
C1444 C1439 1.490 . S
C1444 C1446 1.395 . S
C1444 C1447 1.403 1_565 S
H1445 C1451 0.930 . S
C1446 H1432 0.930 . S
C1446 C1444 1.395 . S
C1446 C1449 1.403 . S
C1447 C1444 1.403 1_545 S
C1447 C1448 1.524 . S
C1447 C1451 1.400 . S
C1448 H1433 0.960 . S
C1448 H1434 0.960 . S
C1448 H1435 0.960 1_545 S
C1448 C1447 1.524 . S
C1449 C1446 1.403 . S
C1449 C1450 1.392 1_565 S
C1449 C1453 1.495 . S
C1450 C1449 1.392 1_545 S
C1450 C1451 1.385 . S
C1450 C1452 1.478 . S
C1451 H1445 0.930 . S
C1451 C1447 1.400 . S
C1451 C1450 1.385 . S
C1452 C1450 1.478 . S
C1452 C1454 1.381 . S
C1452 C1458 1.383 1_545 S
C1453 C1449 1.495 . S
C1453 H1459 0.959 . S
C1453 H1460 0.961 . S
C1453 H1461 0.960 1_565 S
C1454 C1452 1.381 . S
C1454 C1455 1.394 . S
C1454 H1462 0.930 . S
C1455 C1454 1.394 . S
C1455 C1456 1.383 . S
C1455 H1463 0.929 . S
C1456 C1455 1.383 . S
C1456 C1457 1.377 . S
C1457 H1441 0.930 1_545 S
C1457 C1456 1.377 . S
C1457 C1458 1.379 1_545 S
C1458 H1442 0.931 . S
C1458 C1452 1.383 1_565 S
C1458 C1457 1.379 1_565 S
H1459 C1453 0.959 . S
H1460 C1453 0.961 . S
H1461 C1453 0.960 1_545 S
H1462 C1454 0.930 . S
H1463 C1455 0.929 . S
H1464 C1472 0.929 . S
H1465 C1474 0.930 . S
H1466 C1476 0.930 . S
H1467 C1479 0.929 . S
H1468 C1482 0.930 . S
H1469 C1484 0.960 . S
H1470 C1484 0.960 . S
H1471 C1484 0.960 . S
C1472 H1464 0.929 . S
C1472 C1473 1.377 . S
C1472 C1474 1.384 . S
C1473 C1472 1.377 . S
C1473 C1479 1.390 . S
C1474 H1465 0.930 . S
C1474 C1472 1.384 . S
C1474 C1475 1.372 . S
C1475 C1474 1.372 . S
C1475 C1476 1.400 . S
C1475 C1480 1.490 . S
C1476 H1466 0.930 . S
C1476 C1475 1.400 . S
C1476 C1479 1.386 . S
H1477 C1493 0.930 . S
H1478 C1494 0.931 . S
C1479 H1467 0.929 . S
C1479 C1473 1.390 . S
C1479 C1476 1.386 . S
C1480 C1475 1.490 . S
C1480 C1482 1.395 1_655 S
C1480 C1483 1.403 . S
H1481 C1487 0.930 . S
C1482 H1468 0.930 . S
C1482 C1480 1.395 1_455 S
C1482 C1485 1.403 . S
C1483 C1480 1.403 . S
C1483 C1484 1.524 . S
C1483 C1487 1.400 . S
C1484 H1469 0.960 . S
C1484 H1470 0.960 . S
C1484 H1471 0.960 . S
C1484 C1483 1.524 . S
C1485 C1482 1.403 . S
C1485 C1486 1.392 . S
C1485 C1489 1.495 . S
C1486 C1485 1.392 . S
C1486 C1487 1.385 1_455 S
C1486 C1488 1.478 . S
C1487 H1481 0.930 . S
C1487 C1483 1.400 . S
C1487 C1486 1.385 1_655 S
C1488 C1486 1.478 . S
C1488 C1490 1.381 . S
C1488 C1494 1.383 . S
C1489 C1485 1.495 . S
C1489 H1495 0.959 . S
C1489 H1496 0.961 . S
C1489 H1497 0.960 . S
C1490 C1488 1.381 . S
C1490 C1491 1.394 . S
C1490 H1498 0.930 . S
C1491 C1490 1.394 . S
C1491 C1492 1.383 . S
C1491 H1499 0.929 . S
C1492 C1491 1.383 . S
C1492 C1493 1.377 . S
C1493 H1477 0.930 . S
C1493 C1492 1.377 . S
C1493 C1494 1.379 . S
C1494 H1478 0.931 . S
C1494 C1488 1.383 . S
C1494 C1493 1.379 . S
H1495 C1489 0.959 . S
H1496 C1489 0.961 . S
H1497 C1489 0.960 . S
H1498 C1490 0.930 . S
H1499 C1491 0.929 . S
H1500 C1508 0.929 . S
H1501 C1510 0.930 . S
H1502 C1512 0.930 . S
H1503 C1515 0.929 . S
H1504 C1518 0.930 . S
H1505 C1520 0.960 . S
H1506 C1520 0.960 . S
H1507 C1520 0.960 . S
C1508 H1500 0.929 . S
C1508 C1509 1.377 . S
C1508 C1510 1.384 . S
C1509 C1508 1.377 . S
C1509 C1515 1.390 . S
C1510 H1501 0.930 . S
C1510 C1508 1.384 . S
C1510 C1511 1.372 . S
C1511 C1510 1.372 . S
C1511 C1512 1.400 . S
C1511 C1516 1.490 . S
C1512 H1502 0.930 . S
C1512 C1511 1.400 . S
C1512 C1515 1.386 . S
H1513 C1529 0.930 . S
H1514 C1530 0.931 . S
C1515 H1503 0.929 . S
C1515 C1509 1.390 . S
C1515 C1512 1.386 . S
C1516 C1511 1.490 . S
C1516 C1518 1.395 . S
C1516 C1519 1.403 1_545 S
H1517 C1523 0.930 . S
C1518 H1504 0.930 . S
C1518 C1516 1.395 . S
C1518 C1521 1.403 . S
C1519 C1516 1.403 1_565 S
C1519 C1520 1.524 . S
C1519 C1523 1.400 . S
C1520 H1505 0.960 . S
C1520 H1506 0.960 . S
C1520 H1507 0.960 . S
C1520 C1519 1.524 . S
C1521 C1518 1.403 . S
C1521 C1522 1.392 1_545 S
C1521 C1525 1.495 . S
C1522 C1521 1.392 1_565 S
C1522 C1523 1.385 . S
C1522 C1524 1.478 . S
C1523 H1517 0.930 . S
C1523 C1519 1.400 . S
C1523 C1522 1.385 . S
C1524 C1522 1.478 . S
C1524 C1526 1.381 . S
C1524 C1530 1.383 . S
C1525 C1521 1.495 . S
C1525 H1531 0.959 . S
C1525 H1532 0.961 . S
C1525 H1533 0.960 . S
C1526 C1524 1.381 . S
C1526 C1527 1.394 . S
C1526 H1534 0.930 . S
C1527 C1526 1.394 . S
C1527 C1528 1.383 . S
C1527 H1535 0.929 . S
C1528 C1527 1.383 . S
C1528 C1529 1.377 . S
C1529 H1513 0.930 . S
C1529 C1528 1.377 . S
C1529 C1530 1.379 . S
C1530 H1514 0.931 . S
C1530 C1524 1.383 . S
C1530 C1529 1.379 . S
H1531 C1525 0.959 . S
H1532 C1525 0.961 . S
H1533 C1525 0.960 . S
H1534 C1526 0.930 . S
H1535 C1527 0.929 . S
H1536 C1544 0.929 . S
H1537 C1546 0.930 . S
H1538 C1548 0.930 . S
H1539 C1551 0.929 . S
H1540 C1554 0.930 . S
H1541 C1556 0.960 . S
H1542 C1556 0.960 . S
H1543 C1556 0.960 . S
C1544 H1536 0.929 . S
C1544 C1545 1.377 1_455 S
C1544 C1546 1.384 . S
C1545 C1544 1.377 1_655 S
C1545 C1551 1.390 . S
C1546 H1537 0.930 . S
C1546 C1544 1.384 . S
C1546 C1547 1.372 1_455 S
C1547 C1546 1.372 1_655 S
C1547 C1548 1.400 . S
C1547 C1552 1.490 . S
C1548 H1538 0.930 . S
C1548 C1547 1.400 . S
C1548 C1551 1.386 . S
H1549 C1565 0.930 . S
H1550 C1566 0.931 . S
C1551 H1539 0.929 . S
C1551 C1545 1.390 . S
C1551 C1548 1.386 . S
C1552 C1547 1.490 . S
C1552 C1554 1.395 1_655 S
C1552 C1555 1.403 . S
H1553 C1559 0.930 . S
C1554 H1540 0.930 . S
C1554 C1552 1.395 1_455 S
C1554 C1557 1.403 . S
C1555 C1552 1.403 . S
C1555 C1556 1.524 . S
C1555 C1559 1.400 . S
C1556 H1541 0.960 . S
C1556 H1542 0.960 . S
C1556 H1543 0.960 . S
C1556 C1555 1.524 . S
C1557 C1554 1.403 . S
C1557 C1558 1.392 . S
C1557 C1561 1.495 . S
C1558 C1557 1.392 . S
C1558 C1559 1.385 1_455 S
C1558 C1560 1.478 . S
C1559 H1553 0.930 . S
C1559 C1555 1.400 . S
C1559 C1558 1.385 1_655 S
C1560 C1558 1.478 . S
C1560 C1562 1.381 . S
C1560 C1566 1.383 1_455 S
C1561 C1557 1.495 . S
C1561 H1567 0.959 . S
C1561 H1568 0.961 . S
C1561 H1569 0.960 . S
C1562 C1560 1.381 . S
C1562 C1563 1.394 . S
C1562 H1570 0.930 . S
C1563 C1562 1.394 . S
C1563 C1564 1.383 . S
C1563 H1571 0.929 . S
C1564 C1563 1.383 . S
C1564 C1565 1.377 1_455 S
C1565 H1549 0.930 . S
C1565 C1564 1.377 1_655 S
C1565 C1566 1.379 . S
C1566 H1550 0.931 . S
C1566 C1560 1.383 1_655 S
C1566 C1565 1.379 . S
H1567 C1561 0.959 . S
H1568 C1561 0.961 . S
H1569 C1561 0.960 . S
H1570 C1562 0.930 . S
H1571 C1563 0.929 . S
H1572 C1580 0.929 . S
H1573 C1582 0.930 1_565 S
H1574 C1584 0.930 . S
H1575 C1587 0.929 . S
H1576 C1590 0.930 . S
H1577 C1592 0.960 . S
H1578 C1592 0.960 . S
H1579 C1592 0.960 . S
C1580 H1572 0.929 . S
C1580 C1581 1.377 . S
C1580 C1582 1.384 . S
C1581 C1580 1.377 . S
C1581 C1587 1.390 . S
C1582 H1573 0.930 1_545 S
C1582 C1580 1.384 . S
C1582 C1583 1.372 . S
C1583 C1582 1.372 . S
C1583 C1584 1.400 . S
C1583 C1588 1.490 . S
C1584 H1574 0.930 . S
C1584 C1583 1.400 . S
C1584 C1587 1.386 . S
H1585 C1601 0.930 . S
H1586 C1602 0.931 . S
C1587 H1575 0.929 . S
C1587 C1581 1.390 . S
C1587 C1584 1.386 . S
C1588 C1583 1.490 . S
C1588 C1590 1.395 1_545 S
C1588 C1591 1.403 . S
H1589 C1595 0.930 . S
C1590 H1576 0.930 . S
C1590 C1588 1.395 1_565 S
C1590 C1593 1.403 . S
C1591 C1588 1.403 . S
C1591 C1592 1.524 . S
C1591 C1595 1.400 . S
C1592 H1577 0.960 . S
C1592 H1578 0.960 . S
C1592 H1579 0.960 . S
C1592 C1591 1.524 . S
C1593 C1590 1.403 . S
C1593 C1594 1.392 . S
C1593 C1597 1.495 . S
C1594 C1593 1.392 . S
C1594 C1595 1.385 1_565 S
C1594 C1596 1.478 . S
C1595 H1589 0.930 . S
C1595 C1591 1.400 . S
C1595 C1594 1.385 1_545 S
C1596 C1594 1.478 . S
C1596 C1598 1.381 . S
C1596 C1602 1.383 . S
C1597 C1593 1.495 . S
C1597 H1603 0.959 . S
C1597 H1604 0.961 . S
C1597 H1605 0.960 . S
C1598 C1596 1.381 . S
C1598 C1599 1.394 . S
C1598 H1606 0.930 . S
C1599 C1598 1.394 . S
C1599 C1600 1.383 . S
C1599 H1607 0.929 . S
C1600 C1599 1.383 . S
C1600 C1601 1.377 . S
C1601 H1585 0.930 . S
C1601 C1600 1.377 . S
C1601 C1602 1.379 . S
C1602 H1586 0.931 . S
C1602 C1596 1.383 . S
C1602 C1601 1.379 . S
H1603 C1597 0.959 . S
H1604 C1597 0.961 . S
H1605 C1597 0.960 . S
H1606 C1598 0.930 . S
H1607 C1599 0.929 . S
H1608 C1616 0.929 . S
H1609 C1618 0.930 . S
H1610 C1620 0.930 . S
H1611 C1623 0.929 . S
H1612 C1626 0.930 . S
H1613 C1628 0.960 . S
H1614 C1628 0.960 . S
H1615 C1628 0.960 . S
C1616 H1608 0.929 . S
C1616 C1617 1.377 1_655 S
C1616 C1618 1.384 . S
C1617 C1616 1.377 1_455 S
C1617 C1623 1.390 . S
C1618 H1609 0.930 . S
C1618 C1616 1.384 . S
C1618 C1619 1.372 1_655 S
C1619 C1618 1.372 1_455 S
C1619 C1620 1.400 . S
C1619 C1624 1.490 . S
C1620 H1610 0.930 . S
C1620 C1619 1.400 . S
C1620 C1623 1.386 . S
H1621 C1637 0.952 . S
H1622 C1638 0.931 . S
C1623 H1611 0.929 . S
C1623 C1617 1.390 . S
C1623 C1620 1.386 . S
C1624 C1619 1.490 . S
C1624 C1626 1.395 1_455 S
C1624 C1627 1.403 . S
H1625 C1631 0.930 . S
C1626 H1612 0.930 . S
C1626 C1624 1.395 1_655 S
C1626 C1629 1.403 . S
C1627 C1624 1.403 . S
C1627 C1628 1.524 . S
C1627 C1631 1.400 . S
C1628 H1613 0.960 . S
C1628 H1614 0.960 . S
C1628 H1615 0.960 . S
C1628 C1627 1.524 . S
C1629 C1626 1.403 . S
C1629 C1630 1.392 . S
C1629 C1633 1.495 . S
C1630 C1629 1.392 . S
C1630 C1631 1.385 1_655 S
C1630 C1632 1.478 . S
C1631 H1625 0.930 . S
C1631 C1627 1.400 . S
C1631 C1630 1.385 1_455 S
C1632 C1630 1.478 . S
C1632 C1634 1.381 . S
C1632 C1638 1.383 1_655 S
C1633 C1629 1.495 . S
C1633 H1639 0.959 . S
C1633 H1640 0.961 . S
C1633 H1641 0.960 . S
C1634 C1632 1.381 . S
C1634 C1635 1.394 . S
C1634 H1642 0.930 . S
C1635 C1634 1.394 . S
C1635 C1636 1.383 . S
C1635 H1643 0.929 . S
C1636 C1635 1.383 . S
C1636 C1637 1.352 1_655 S
C1637 H1621 0.952 . S
C1637 C1636 1.352 1_455 S
C1637 C1638 1.383 . S
C1638 H1622 0.931 . S
C1638 C1632 1.383 1_455 S
C1638 C1637 1.383 . S
H1639 C1633 0.959 . S
H1640 C1633 0.961 . S
H1641 C1633 0.960 . S
H1642 C1634 0.930 . S
H1643 C1635 0.929 . S
H1644 C1652 0.929 . S
H1645 C1654 0.930 . S
H1646 C1656 0.930 . S
H1647 C1659 0.929 . S
H1648 C1662 0.930 . S
H1649 C1664 0.960 . S
H1650 C1664 0.960 . S
H1651 C1664 0.960 . S
C1652 H1644 0.929 . S
C1652 C1653 1.377 . S
C1652 C1654 1.384 . S
C1653 C1652 1.377 . S
C1653 C1659 1.390 1_565 S
C1654 H1645 0.930 . S
C1654 C1652 1.384 . S
C1654 C1655 1.372 . S
C1655 C1654 1.372 . S
C1655 C1656 1.400 1_565 S
C1655 C1660 1.490 . S
C1656 H1646 0.930 . S
C1656 C1655 1.400 1_545 S
C1656 C1659 1.386 . S
H1657 C1673 0.930 . S
H1658 C1674 0.931 . S
C1659 H1647 0.929 . S
C1659 C1653 1.390 1_545 S
C1659 C1656 1.386 . S
C1660 C1655 1.490 . S
C1660 C1662 1.395 . S
C1660 C1663 1.403 1_565 S
H1661 C1667 0.930 . S
C1662 H1648 0.930 . S
C1662 C1660 1.395 . S
C1662 C1665 1.403 . S
C1663 C1660 1.403 1_545 S
C1663 C1664 1.524 . S
C1663 C1667 1.400 . S
C1664 H1649 0.960 . S
C1664 H1650 0.960 . S
C1664 H1651 0.960 . S
C1664 C1663 1.524 . S
C1665 C1662 1.403 . S
C1665 C1666 1.416 . S
C1665 C1669 1.495 . S
C1666 C1665 1.416 . S
C1666 C1667 1.365 1_565 S
C1666 C1668 1.473 1_565 S
C1667 H1661 0.930 . S
C1667 C1663 1.400 . S
C1667 C1666 1.365 1_545 S
C1668 C1666 1.473 1_545 S
C1668 C1670 1.381 1_545 S
C1668 C1674 1.383 . S
C1669 C1665 1.495 . S
C1669 H1675 0.959 . S
C1669 H1676 0.961 . S
C1669 H1677 0.960 . S
C1670 C1668 1.381 1_565 S
C1670 C1671 1.394 . S
C1670 H1678 0.930 . S
C1671 C1670 1.394 . S
C1671 C1672 1.383 1_565 S
C1671 H1679 0.929 . S
C1672 C1671 1.383 1_545 S
C1672 C1673 1.377 . S
C1673 H1657 0.930 . S
C1673 C1672 1.377 . S
C1673 C1674 1.379 . S
C1674 H1658 0.931 . S
C1674 C1668 1.383 . S
C1674 C1673 1.379 . S
H1675 C1669 0.959 . S
H1676 C1669 0.961 . S
H1677 C1669 0.960 . S
H1678 C1670 0.930 . S
H1679 C1671 0.929 . S
H1680 C1688 0.929 . S
H1681 C1690 0.930 . S
H1682 C1692 0.930 . S
H1683 C1695 0.929 . S
H1684 C1698 0.930 . S
H1685 C1700 0.960 . S
H1686 C1700 0.960 . S
H1687 C1700 0.960 . S
C1688 H1680 0.929 . S
C1688 C1689 1.377 . S
C1688 C1690 1.384 . S
C1689 C1688 1.377 . S
C1689 C1695 1.390 . S
C1690 H1681 0.930 . S
C1690 C1688 1.384 . S
C1690 C1691 1.372 . S
C1691 C1690 1.372 . S
C1691 C1692 1.400 . S
C1691 C1696 1.490 . S
C1692 H1682 0.930 . S
C1692 C1691 1.400 . S
C1692 C1695 1.386 . S
H1693 C1709 0.930 . S
H1694 C1710 0.931 . S
C1695 H1683 0.929 . S
C1695 C1689 1.390 . S
C1695 C1692 1.386 . S
C1696 C1691 1.490 . S
C1696 C1698 1.395 . S
C1696 C1699 1.403 . S
H1697 C1703 0.930 . S
C1698 H1684 0.930 . S
C1698 C1696 1.395 . S
C1698 C1701 1.403 . S
C1699 C1696 1.403 . S
C1699 C1700 1.524 . S
C1699 C1703 1.400 . S
C1700 H1685 0.960 . S
C1700 H1686 0.960 . S
C1700 H1687 0.960 . S
C1700 C1699 1.524 . S
C1701 C1698 1.403 . S
C1701 C1702 1.392 . S
C1701 C1705 1.495 . S
C1702 C1701 1.392 . S
C1702 C1703 1.385 . S
C1702 C1704 1.478 . S
C1703 H1697 0.930 . S
C1703 C1699 1.400 . S
C1703 C1702 1.385 . S
C1704 C1702 1.478 . S
C1704 C1706 1.381 . S
C1704 C1710 1.383 . S
C1705 C1701 1.495 . S
C1705 H1711 0.959 . S
C1705 H1712 0.961 . S
C1705 H1713 0.960 . S
C1706 C1704 1.381 . S
C1706 C1707 1.394 . S
C1706 H1714 0.930 . S
C1707 C1706 1.394 . S
C1707 C1708 1.383 . S
C1707 H1715 0.929 . S
C1708 C1707 1.383 . S
C1708 C1709 1.377 . S
C1709 H1693 0.930 . S
C1709 C1708 1.377 . S
C1709 C1710 1.379 . S
C1710 H1694 0.931 . S
C1710 C1704 1.383 . S
C1710 C1709 1.379 . S
H1711 C1705 0.959 . S
H1712 C1705 0.961 . S
H1713 C1705 0.960 . S
H1714 C1706 0.930 . S
H1715 C1707 0.929 . S
H1716 C1724 0.929 . S
H1717 C1726 0.930 . S
H1718 C1728 0.930 . S
H1719 C1731 0.929 . S
H1720 C1734 0.930 . S
H1721 C1736 0.960 . S
H1722 C1736 0.960 . S
H1723 C1736 0.960 . S
C1724 H1716 0.929 . S
C1724 C1725 1.377 . S
C1724 C1726 1.384 . S
C1725 C1724 1.377 . S
C1725 C1731 1.390 . S
C1726 H1717 0.930 . S
C1726 C1724 1.384 . S
C1726 C1727 1.372 . S
C1727 C1726 1.372 . S
C1727 C1728 1.400 . S
C1727 C1732 1.490 . S
C1728 H1718 0.930 . S
C1728 C1727 1.400 . S
C1728 C1731 1.386 . S
H1729 C1745 0.930 . S
H1730 C1746 0.931 . S
C1731 H1719 0.929 . S
C1731 C1725 1.390 . S
C1731 C1728 1.386 . S
C1732 C1727 1.490 . S
C1732 C1734 1.395 . S
C1732 C1735 1.403 . S
H1733 C1739 0.930 . S
C1734 H1720 0.930 . S
C1734 C1732 1.395 . S
C1734 C1737 1.403 . S
C1735 C1732 1.403 . S
C1735 C1736 1.524 . S
C1735 C1739 1.400 . S
C1736 H1721 0.960 . S
C1736 H1722 0.960 . S
C1736 H1723 0.960 . S
C1736 C1735 1.524 . S
C1737 C1734 1.403 . S
C1737 C1738 1.392 . S
C1737 C1741 1.495 . S
C1738 C1737 1.392 . S
C1738 C1739 1.385 . S
C1738 C1740 1.478 . S
C1739 H1733 0.930 . S
C1739 C1735 1.400 . S
C1739 C1738 1.385 . S
C1740 C1738 1.478 . S
C1740 C1742 1.381 . S
C1740 C1746 1.383 . S
C1741 C1737 1.495 . S
C1741 H1747 0.959 . S
C1741 H1748 0.961 . S
C1741 H1749 0.960 . S
C1742 C1740 1.381 . S
C1742 C1743 1.394 . S
C1742 H1750 0.930 . S
C1743 C1742 1.394 . S
C1743 C1744 1.383 . S
C1743 H1751 0.929 . S
C1744 C1743 1.383 . S
C1744 C1745 1.377 . S
C1745 H1729 0.930 . S
C1745 C1744 1.377 . S
C1745 C1746 1.379 . S
C1746 H1730 0.931 . S
C1746 C1740 1.383 . S
C1746 C1745 1.379 . S
H1747 C1741 0.959 . S
H1748 C1741 0.961 . S
H1749 C1741 0.960 . S
H1750 C1742 0.930 . S
H1751 C1743 0.929 . S
H1752 C1760 0.929 . S
H1753 C1762 0.930 . S
H1754 C1764 0.930 . S
H1755 C1767 0.929 . S
H1756 C1770 0.930 . S
H1757 C1772 0.960 . S
H1758 C1772 0.960 . S
H1759 C1772 0.960 . S
C1760 H1752 0.929 . S
C1760 C1761 1.377 . S
C1760 C1762 1.384 . S
C1761 C1760 1.377 . S
C1761 C1767 1.390 . S
C1762 H1753 0.930 . S
C1762 C1760 1.384 . S
C1762 C1763 1.372 . S
C1763 C1762 1.372 . S
C1763 C1764 1.400 . S
C1763 C1768 1.490 . S
C1764 H1754 0.930 . S
C1764 C1763 1.400 . S
C1764 C1767 1.386 . S
H1765 C1781 0.930 . S
H1766 C1782 0.931 . S
C1767 H1755 0.929 . S
C1767 C1761 1.390 . S
C1767 C1764 1.386 . S
C1768 C1763 1.490 . S
C1768 C1770 1.395 . S
C1768 C1771 1.403 . S
H1769 C1775 0.930 . S
C1770 H1756 0.930 . S
C1770 C1768 1.395 . S
C1770 C1773 1.403 . S
C1771 C1768 1.403 . S
C1771 C1772 1.524 . S
C1771 C1775 1.400 . S
C1772 H1757 0.960 . S
C1772 H1758 0.960 . S
C1772 H1759 0.960 . S
C1772 C1771 1.524 . S
C1773 C1770 1.403 . S
C1773 C1774 1.392 . S
C1773 C1777 1.495 . S
C1774 C1773 1.392 . S
C1774 C1775 1.385 . S
C1774 C1776 1.478 . S
C1775 H1769 0.930 . S
C1775 C1771 1.400 . S
C1775 C1774 1.385 . S
C1776 C1774 1.478 . S
C1776 C1778 1.381 . S
C1776 C1782 1.383 . S
C1777 C1773 1.495 . S
C1777 H1783 0.959 . S
C1777 H1784 0.961 . S
C1777 H1785 0.960 . S
C1778 C1776 1.381 . S
C1778 C1779 1.394 . S
C1778 H1786 0.930 . S
C1779 C1778 1.394 . S
C1779 C1780 1.383 . S
C1779 H1787 0.929 . S
C1780 C1779 1.383 . S
C1780 C1781 1.377 . S
C1781 H1765 0.930 . S
C1781 C1780 1.377 . S
C1781 C1782 1.379 . S
C1782 H1766 0.931 . S
C1782 C1776 1.383 . S
C1782 C1781 1.379 . S
H1783 C1777 0.959 . S
H1784 C1777 0.961 . S
H1785 C1777 0.960 . S
H1786 C1778 0.930 . S
H1787 C1779 0.929 . S
H1788 C1796 0.929 . S
H1789 C1798 0.930 . S
H1790 C1800 0.930 . S
H1791 C1803 0.929 . S
H1792 C1806 0.930 . S
H1793 C1808 0.960 . S
H1794 C1808 0.960 . S
H1795 C1808 0.960 . S
C1796 H1788 0.929 . S
C1796 C1797 1.377 . S
C1796 C1798 1.384 . S
C1797 C1796 1.377 . S
C1797 C1803 1.390 . S
C1798 H1789 0.930 . S
C1798 C1796 1.384 . S
C1798 C1799 1.372 . S
C1799 C1798 1.372 . S
C1799 C1800 1.400 . S
C1799 C1804 1.490 . S
C1800 H1790 0.930 . S
C1800 C1799 1.400 . S
C1800 C1803 1.386 . S
H1801 C1817 0.930 . S
H1802 C1818 0.931 . S
C1803 H1791 0.929 . S
C1803 C1797 1.390 . S
C1803 C1800 1.386 . S
C1804 C1799 1.490 . S
C1804 C1806 1.395 . S
C1804 C1807 1.403 . S
H1805 C1811 0.930 . S
C1806 H1792 0.930 . S
C1806 C1804 1.395 . S
C1806 C1809 1.403 . S
C1807 C1804 1.403 . S
C1807 C1808 1.524 . S
C1807 C1811 1.400 . S
C1808 H1793 0.960 . S
C1808 H1794 0.960 . S
C1808 H1795 0.960 . S
C1808 C1807 1.524 . S
C1809 C1806 1.403 . S
C1809 C1810 1.392 . S
C1809 C1813 1.495 . S
C1810 C1809 1.392 . S
C1810 C1811 1.385 . S
C1810 C1812 1.478 . S
C1811 H1805 0.930 . S
C1811 C1807 1.400 . S
C1811 C1810 1.385 . S
C1812 C1810 1.478 . S
C1812 C1814 1.381 . S
C1812 C1818 1.383 . S
C1813 C1809 1.495 . S
C1813 H1819 0.959 . S
C1813 H1820 0.961 . S
C1813 H1821 0.960 . S
C1814 C1812 1.381 . S
C1814 C1815 1.394 . S
C1814 H1822 0.930 . S
C1815 C1814 1.394 . S
C1815 C1816 1.383 . S
C1815 H1823 0.929 . S
C1816 C1815 1.383 . S
C1816 C1817 1.377 . S
C1817 H1801 0.930 . S
C1817 C1816 1.377 . S
C1817 C1818 1.379 . S
C1818 H1802 0.931 . S
C1818 C1812 1.383 . S
C1818 C1817 1.379 . S
H1819 C1813 0.959 . S
H1820 C1813 0.961 . S
H1821 C1813 0.960 . S
H1822 C1814 0.930 . S
H1823 C1815 0.929 . S
H1824 C1832 0.929 . S
H1825 C1834 0.930 . S
H1826 C1836 0.930 . S
H1827 C1839 0.929 . S
H1828 C1842 0.930 . S
H1829 C1844 0.960 . S
H1830 C1844 0.960 . S
H1831 C1844 0.960 . S
C1832 H1824 0.929 . S
C1832 C1833 1.377 . S
C1832 C1834 1.384 . S
C1833 C1832 1.377 . S
C1833 C1839 1.390 . S
C1834 H1825 0.930 . S
C1834 C1832 1.384 . S
C1834 C1835 1.372 . S
C1835 C1834 1.372 . S
C1835 C1836 1.400 . S
C1835 C1840 1.490 . S
C1836 H1826 0.930 . S
C1836 C1835 1.400 . S
C1836 C1839 1.386 . S
H1837 C1853 0.930 . S
H1838 C1854 0.931 . S
C1839 H1827 0.929 . S
C1839 C1833 1.390 . S
C1839 C1836 1.386 . S
C1840 C1835 1.490 . S
C1840 C1842 1.395 . S
C1840 C1843 1.403 . S
H1841 C1847 0.930 . S
C1842 H1828 0.930 . S
C1842 C1840 1.395 . S
C1842 C1845 1.403 . S
C1843 C1840 1.403 . S
C1843 C1844 1.524 . S
C1843 C1847 1.400 . S
C1844 H1829 0.960 . S
C1844 H1830 0.960 . S
C1844 H1831 0.960 . S
C1844 C1843 1.524 . S
C1845 C1842 1.403 . S
C1845 C1846 1.392 . S
C1845 C1849 1.495 . S
C1846 C1845 1.392 . S
C1846 C1847 1.385 . S
C1846 C1848 1.478 . S
C1847 H1841 0.930 . S
C1847 C1843 1.400 . S
C1847 C1846 1.385 . S
C1848 C1846 1.478 . S
C1848 C1850 1.381 . S
C1848 C1854 1.383 . S
C1849 C1845 1.495 . S
C1849 H1855 0.959 . S
C1849 H1856 0.961 . S
C1849 H1857 0.960 . S
C1850 C1848 1.381 . S
C1850 C1851 1.394 . S
C1850 H1858 0.930 . S
C1851 C1850 1.394 . S
C1851 C1852 1.383 . S
C1851 H1859 0.929 . S
C1852 C1851 1.383 . S
C1852 C1853 1.377 . S
C1853 H1837 0.930 . S
C1853 C1852 1.377 . S
C1853 C1854 1.379 . S
C1854 H1838 0.931 . S
C1854 C1848 1.383 . S
C1854 C1853 1.379 . S
H1855 C1849 0.959 . S
H1856 C1849 0.961 . S
H1857 C1849 0.960 . S
H1858 C1850 0.930 . S
H1859 C1851 0.929 . S
H1860 C1868 0.929 . S
H1861 C1870 0.930 . S
H1862 C1872 0.930 . S
H1863 C1875 0.929 . S
H1864 C1878 0.930 . S
H1865 C1880 0.960 . S
H1866 C1880 0.960 . S
H1867 C1880 0.960 . S
C1868 H1860 0.929 . S
C1868 C1869 1.377 . S
C1868 C1870 1.384 . S
C1869 C1868 1.377 . S
C1869 C1875 1.390 . S
C1870 H1861 0.930 . S
C1870 C1868 1.384 . S
C1870 C1871 1.372 . S
C1871 C1870 1.372 . S
C1871 C1872 1.400 . S
C1871 C1876 1.490 . S
C1872 H1862 0.930 . S
C1872 C1871 1.400 . S
C1872 C1875 1.386 . S
H1873 C1889 0.930 . S
H1874 C1890 0.931 . S
C1875 H1863 0.929 . S
C1875 C1869 1.390 . S
C1875 C1872 1.386 . S
C1876 C1871 1.490 . S
C1876 C1878 1.395 . S
C1876 C1879 1.403 . S
H1877 C1883 0.930 . S
C1878 H1864 0.930 . S
C1878 C1876 1.395 . S
C1878 C1881 1.403 . S
C1879 C1876 1.403 . S
C1879 C1880 1.524 . S
C1879 C1883 1.400 . S
C1880 H1865 0.960 . S
C1880 H1866 0.960 . S
C1880 H1867 0.960 . S
C1880 C1879 1.524 . S
C1881 C1878 1.403 . S
C1881 C1882 1.392 . S
C1881 C1885 1.495 . S
C1882 C1881 1.392 . S
C1882 C1883 1.385 . S
C1882 C1884 1.478 . S
C1883 H1877 0.930 . S
C1883 C1879 1.400 . S
C1883 C1882 1.385 . S
C1884 C1882 1.478 . S
C1884 C1886 1.381 . S
C1884 C1890 1.383 . S
C1885 C1881 1.495 . S
C1885 H1891 0.959 . S
C1885 H1892 0.961 . S
C1885 H1893 0.960 . S
C1886 C1884 1.381 . S
C1886 C1887 1.394 . S
C1886 H1894 0.930 . S
C1887 C1886 1.394 . S
C1887 C1888 1.383 . S
C1887 H1895 0.929 . S
C1888 C1887 1.383 . S
C1888 C1889 1.377 . S
C1889 H1873 0.930 . S
C1889 C1888 1.377 . S
C1889 C1890 1.379 . S
C1890 H1874 0.931 . S
C1890 C1884 1.383 . S
C1890 C1889 1.379 . S
H1891 C1885 0.959 . S
H1892 C1885 0.961 . S
H1893 C1885 0.960 . S
H1894 C1886 0.930 . S
H1895 C1887 0.929 . S
H1896 C1904 0.929 . S
H1897 C1906 0.930 . S
H1898 C1908 0.930 . S
H1899 C1911 0.929 . S
H1900 C1914 0.930 . S
H1901 C1916 0.960 . S
H1902 C1916 0.960 . S
H1903 C1916 0.960 . S
C1904 H1896 0.929 . S
C1904 C1905 1.377 . S
C1904 C1906 1.384 . S
C1905 C1904 1.377 . S
C1905 C1911 1.390 . S
C1906 H1897 0.930 . S
C1906 C1904 1.384 . S
C1906 C1907 1.372 . S
C1907 C1906 1.372 . S
C1907 C1908 1.400 . S
C1907 C1912 1.490 . S
C1908 H1898 0.930 . S
C1908 C1907 1.400 . S
C1908 C1911 1.386 . S
H1909 C1925 0.930 . S
H1910 C1926 0.931 . S
C1911 H1899 0.929 . S
C1911 C1905 1.390 . S
C1911 C1908 1.386 . S
C1912 C1907 1.490 . S
C1912 C1914 1.395 . S
C1912 C1915 1.403 . S
H1913 C1919 0.930 . S
C1914 H1900 0.930 . S
C1914 C1912 1.395 . S
C1914 C1917 1.403 . S
C1915 C1912 1.403 . S
C1915 C1916 1.524 . S
C1915 C1919 1.400 . S
C1916 H1901 0.960 . S
C1916 H1902 0.960 . S
C1916 H1903 0.960 . S
C1916 C1915 1.524 . S
C1917 C1914 1.403 . S
C1917 C1918 1.392 . S
C1917 C1921 1.495 . S
C1918 C1917 1.392 . S
C1918 C1919 1.385 . S
C1918 C1920 1.478 . S
C1919 H1913 0.930 . S
C1919 C1915 1.400 . S
C1919 C1918 1.385 . S
C1920 C1918 1.478 . S
C1920 C1922 1.381 . S
C1920 C1926 1.383 . S
C1921 C1917 1.495 . S
C1921 H1927 0.959 . S
C1921 H1928 0.961 . S
C1921 H1929 0.960 . S
C1922 C1920 1.381 . S
C1922 C1923 1.394 . S
C1922 H1930 0.930 . S
C1923 C1922 1.394 . S
C1923 C1924 1.383 . S
C1923 H1931 0.929 . S
C1924 C1923 1.383 . S
C1924 C1925 1.377 . S
C1925 H1909 0.930 . S
C1925 C1924 1.377 . S
C1925 C1926 1.379 . S
C1926 H1910 0.931 . S
C1926 C1920 1.383 . S
C1926 C1925 1.379 . S
H1927 C1921 0.959 . S
H1928 C1921 0.961 . S
H1929 C1921 0.960 . S
H1930 C1922 0.930 . S
H1931 C1923 0.929 . S
H1932 C1940 0.929 . S
H1933 C1942 0.930 . S
H1934 C1944 0.930 . S
H1935 C1947 0.929 . S
H1936 C1950 0.930 . S
H1937 C1952 0.960 . S
H1938 C1952 0.960 . S
H1939 C1952 0.960 . S
C1940 H1932 0.929 . S
C1940 C1941 1.377 . S
C1940 C1942 1.384 . S
C1941 C1940 1.377 . S
C1941 C1947 1.390 . S
C1942 H1933 0.930 . S
C1942 C1940 1.384 . S
C1942 C1943 1.372 . S
C1943 C1942 1.372 . S
C1943 C1944 1.400 . S
C1943 C1948 1.490 . S
C1944 H1934 0.930 . S
C1944 C1943 1.400 . S
C1944 C1947 1.386 . S
H1945 C1961 0.930 . S
H1946 C1962 0.931 . S
C1947 H1935 0.929 . S
C1947 C1941 1.390 . S
C1947 C1944 1.386 . S
C1948 C1943 1.490 . S
C1948 C1950 1.395 . S
C1948 C1951 1.403 . S
H1949 C1955 0.930 . S
C1950 H1936 0.930 . S
C1950 C1948 1.395 . S
C1950 C1953 1.403 . S
C1951 C1948 1.403 . S
C1951 C1952 1.524 . S
C1951 C1955 1.400 . S
C1952 H1937 0.960 . S
C1952 H1938 0.960 . S
C1952 H1939 0.960 . S
C1952 C1951 1.524 . S
C1953 C1950 1.403 . S
C1953 C1954 1.392 . S
C1953 C1957 1.495 . S
C1954 C1953 1.392 . S
C1954 C1955 1.385 . S
C1954 C1956 1.478 . S
C1955 H1949 0.930 . S
C1955 C1951 1.400 . S
C1955 C1954 1.385 . S
C1956 C1954 1.478 . S
C1956 C1958 1.381 . S
C1956 C1962 1.383 . S
C1957 C1953 1.495 . S
C1957 H1963 0.959 . S
C1957 H1964 0.961 . S
C1957 H1965 0.960 . S
C1958 C1956 1.381 . S
C1958 C1959 1.394 . S
C1958 H1966 0.930 . S
C1959 C1958 1.394 . S
C1959 C1960 1.383 . S
C1959 H1967 0.929 . S
C1960 C1959 1.383 . S
C1960 C1961 1.377 . S
C1961 H1945 0.930 . S
C1961 C1960 1.377 . S
C1961 C1962 1.379 . S
C1962 H1946 0.931 . S
C1962 C1956 1.383 . S
C1962 C1961 1.379 . S
H1963 C1957 0.959 . S
H1964 C1957 0.961 . S
H1965 C1957 0.960 . S
H1966 C1958 0.930 . S
H1967 C1959 0.929 . S
C537 N2 1.258 . S
C556 N497 1.231 . S
C573 N35 1.258 . S
C592 N398 1.242 . S
C609 N431 1.264 . S
C628 N68 1.279 . S
C645 N101 1.260 . S
C664 N464 1.257 . S
C681 N134 1.259 . S
C700 N299 1.231 . S
C717 N332 1.260 . S
C736 N167 1.233 . S
C753 N365 1.257 . S
C772 N200 1.236 . S
C789 N266 1.269 . S
C808 N233 1.276 . S
C825 N112 1.548 1_556 S
C844 C21 1.611 . S
C861 N13 1.551 1_556 S
C880 C54 1.611 . S
C897 C87 1.607 . S
C916 N46 1.558 1_556 S
C933 C120 1.610 . S
C952 N79 1.552 1_556 S
C969 N178 1.557 . S
C988 C153 1.604 . S
C1005 N211 1.558 . S
C1024 C186 1.600 . S
C1041 N244 1.548 . S
C1060 C219 1.606 . S
C1077 N145 1.556 . S
C1096 C252 1.599 . S
C1113 N376 1.549 . S
C1132 C285 1.603 . S
C1149 C318 1.607 . S
C1168 N277 1.563 . S
C1185 N310 1.547 . S
C1204 C351 1.608 . S
C1221 N343 1.557 . S
C1240 C384 1.599 . S
C1257 N442 1.549 . S
C1276 C417 1.612 . S
C1293 N475 1.557 . S
C1312 C450 1.605 . S
C1329 N508 1.557 . S
C1348 C483 1.605 . S
C1365 N409 1.558 . S
C1384 C516 1.601 . S
C1401 C205 1.549 . S
C1420 C7 1.524 . S
C1437 C238 1.548 . S
C1456 C40 1.531 . S
C1473 C73 1.545 . S
C1492 C139 1.544 . S
C1509 C172 1.545 . S
C1528 C106 1.547 . S
C1545 C84 0.739 . S
C1564 C150 0.764 . S
C1581 C183 0.733 . S
C1600 C117 0.713 . S
C1617 C18 0.735 . S
C1636 C216 0.739 . S
C1653 C249 0.748 . S
C1672 C51 0.738 . S
C1689 C469 1.549 . S
C1708 C271 1.523 . S
C1725 C502 1.549 . S
C1744 C304 1.523 . S
C1761 C403 1.548 . S
C1780 C337 1.527 . S
C1797 C370 1.543 . S
C1816 C436 1.555 . S
C1833 C414 0.737 . S
C1852 C348 0.698 . S
C1869 C381 0.745 . S
C1888 C447 0.721 . S
C1905 C282 0.741 . S
C1924 C480 0.704 . S
C1941 C513 0.738 . S
C1960 C315 0.757 . S
