# Generated by pormake.
# Topology flu-e, (6)-cn, num edge types: 1
# Building blocks:
#     Node 0, Type 0, BuildingBlock: IZENUY_clean_sbu_0, # of connection points: 6
#     Node 1, Type 0, BuildingBlock: IZENUY_clean_sbu_0, # of connection points: 6
#     Node 2, Type 0, BuildingBlock: IZENUY_clean_sbu_0, # of connection points: 6
#     Node 3, Type 0, BuildingBlock: IZENUY_clean_sbu_0, # of connection points: 6
#     Node 4, Type 0, BuildingBlock: IZENUY_clean_sbu_0, # of connection points: 6
#     Node 5, Type 0, BuildingBlock: IZENUY_clean_sbu_0, # of connection points: 6
#     Node 6, Type 0, BuildingBlock: IZENUY_clean_sbu_0, # of connection points: 6
#     Node 7, Type 0, BuildingBlock: IZENUY_clean_sbu_0, # of connection points: 6
#     Node 8, Type 0, BuildingBlock: IZENUY_clean_sbu_0, # of connection points: 6
#     Node 9, Type 0, BuildingBlock: IZENUY_clean_sbu_0, # of connection points: 6
#     Node 10, Type 0, BuildingBlock: IZENUY_clean_sbu_0, # of connection points: 6
#     Node 11, Type 0, BuildingBlock: IZENUY_clean_sbu_0, # of connection points: 6
#     Node 12, Type 0, BuildingBlock: IZENUY_clean_sbu_0, # of connection points: 6
#     Node 13, Type 0, BuildingBlock: IZENUY_clean_sbu_0, # of connection points: 6
#     Node 14, Type 0, BuildingBlock: IZENUY_clean_sbu_0, # of connection points: 6
#     Node 15, Type 0, BuildingBlock: IZENUY_clean_sbu_0, # of connection points: 6
#     Node 16, Type 0, BuildingBlock: IZENUY_clean_sbu_0, # of connection points: 6
#     Node 17, Type 0, BuildingBlock: IZENUY_clean_sbu_0, # of connection points: 6
#     Node 18, Type 0, BuildingBlock: IZENUY_clean_sbu_0, # of connection points: 6
#     Node 19, Type 0, BuildingBlock: IZENUY_clean_sbu_0, # of connection points: 6
#     Node 20, Type 0, BuildingBlock: IZENUY_clean_sbu_0, # of connection points: 6
#     Node 21, Type 0, BuildingBlock: IZENUY_clean_sbu_0, # of connection points: 6
#     Node 22, Type 0, BuildingBlock: IZENUY_clean_sbu_0, # of connection points: 6
#     Node 23, Type 0, BuildingBlock: IZENUY_clean_sbu_0, # of connection points: 6
#     Node 24, Type 0, BuildingBlock: IZENUY_clean_sbu_0, # of connection points: 6
#     Node 25, Type 0, BuildingBlock: IZENUY_clean_sbu_0, # of connection points: 6
#     Node 26, Type 0, BuildingBlock: IZENUY_clean_sbu_0, # of connection points: 6
#     Node 27, Type 0, BuildingBlock: IZENUY_clean_sbu_0, # of connection points: 6
#     Node 28, Type 0, BuildingBlock: IZENUY_clean_sbu_0, # of connection points: 6
#     Node 29, Type 0, BuildingBlock: IZENUY_clean_sbu_0, # of connection points: 6
#     Node 30, Type 0, BuildingBlock: IZENUY_clean_sbu_0, # of connection points: 6
#     Node 31, Type 0, BuildingBlock: IZENUY_clean_sbu_0, # of connection points: 6
#     Edge 32, Type (0, 0), BuildingBlock: XIVTED_clean_linker_0, # of connection points: 2
#     Edge 33, Type (0, 0), BuildingBlock: XIVTED_clean_linker_0, # of connection points: 2
#     Edge 34, Type (0, 0), BuildingBlock: XIVTED_clean_linker_0, # of connection points: 2
#     Edge 35, Type (0, 0), BuildingBlock: XIVTED_clean_linker_0, # of connection points: 2
#     Edge 36, Type (0, 0), BuildingBlock: XIVTED_clean_linker_0, # of connection points: 2
#     Edge 37, Type (0, 0), BuildingBlock: XIVTED_clean_linker_0, # of connection points: 2
#     Edge 38, Type (0, 0), BuildingBlock: XIVTED_clean_linker_0, # of connection points: 2
#     Edge 39, Type (0, 0), BuildingBlock: XIVTED_clean_linker_0, # of connection points: 2
#     Edge 40, Type (0, 0), BuildingBlock: XIVTED_clean_linker_0, # of connection points: 2
#     Edge 41, Type (0, 0), BuildingBlock: XIVTED_clean_linker_0, # of connection points: 2
#     Edge 42, Type (0, 0), BuildingBlock: XIVTED_clean_linker_0, # of connection points: 2
#     Edge 43, Type (0, 0), BuildingBlock: XIVTED_clean_linker_0, # of connection points: 2
#     Edge 44, Type (0, 0), BuildingBlock: XIVTED_clean_linker_0, # of connection points: 2
#     Edge 45, Type (0, 0), BuildingBlock: XIVTED_clean_linker_0, # of connection points: 2
#     Edge 46, Type (0, 0), BuildingBlock: XIVTED_clean_linker_0, # of connection points: 2
#     Edge 47, Type (0, 0), BuildingBlock: XIVTED_clean_linker_0, # of connection points: 2
#     Edge 48, Type (0, 0), BuildingBlock: XIVTED_clean_linker_0, # of connection points: 2
#     Edge 49, Type (0, 0), BuildingBlock: XIVTED_clean_linker_0, # of connection points: 2
#     Edge 50, Type (0, 0), BuildingBlock: XIVTED_clean_linker_0, # of connection points: 2
#     Edge 51, Type (0, 0), BuildingBlock: XIVTED_clean_linker_0, # of connection points: 2
#     Edge 52, Type (0, 0), BuildingBlock: XIVTED_clean_linker_0, # of connection points: 2
#     Edge 53, Type (0, 0), BuildingBlock: XIVTED_clean_linker_0, # of connection points: 2
#     Edge 54, Type (0, 0), BuildingBlock: XIVTED_clean_linker_0, # of connection points: 2
#     Edge 55, Type (0, 0), BuildingBlock: XIVTED_clean_linker_0, # of connection points: 2
#     Edge 56, Type (0, 0), BuildingBlock: XIVTED_clean_linker_0, # of connection points: 2
#     Edge 57, Type (0, 0), BuildingBlock: XIVTED_clean_linker_0, # of connection points: 2
#     Edge 58, Type (0, 0), BuildingBlock: XIVTED_clean_linker_0, # of connection points: 2
#     Edge 59, Type (0, 0), BuildingBlock: XIVTED_clean_linker_0, # of connection points: 2
#     Edge 60, Type (0, 0), BuildingBlock: XIVTED_clean_linker_0, # of connection points: 2
#     Edge 61, Type (0, 0), BuildingBlock: XIVTED_clean_linker_0, # of connection points: 2
#     Edge 62, Type (0, 0), BuildingBlock: XIVTED_clean_linker_0, # of connection points: 2
#     Edge 63, Type (0, 0), BuildingBlock: XIVTED_clean_linker_0, # of connection points: 2
#     Edge 64, Type (0, 0), BuildingBlock: XIVTED_clean_linker_0, # of connection points: 2
#     Edge 65, Type (0, 0), BuildingBlock: XIVTED_clean_linker_0, # of connection points: 2
#     Edge 66, Type (0, 0), BuildingBlock: XIVTED_clean_linker_0, # of connection points: 2
#     Edge 67, Type (0, 0), BuildingBlock: XIVTED_clean_linker_0, # of connection points: 2
#     Edge 68, Type (0, 0), BuildingBlock: XIVTED_clean_linker_0, # of connection points: 2
#     Edge 69, Type (0, 0), BuildingBlock: XIVTED_clean_linker_0, # of connection points: 2
#     Edge 70, Type (0, 0), BuildingBlock: XIVTED_clean_linker_0, # of connection points: 2
#     Edge 71, Type (0, 0), BuildingBlock: XIVTED_clean_linker_0, # of connection points: 2
#     Edge 72, Type (0, 0), BuildingBlock: XIVTED_clean_linker_0, # of connection points: 2
#     Edge 73, Type (0, 0), BuildingBlock: XIVTED_clean_linker_0, # of connection points: 2
#     Edge 74, Type (0, 0), BuildingBlock: XIVTED_clean_linker_0, # of connection points: 2
#     Edge 75, Type (0, 0), BuildingBlock: XIVTED_clean_linker_0, # of connection points: 2
#     Edge 76, Type (0, 0), BuildingBlock: XIVTED_clean_linker_0, # of connection points: 2
#     Edge 77, Type (0, 0), BuildingBlock: XIVTED_clean_linker_0, # of connection points: 2
#     Edge 78, Type (0, 0), BuildingBlock: XIVTED_clean_linker_0, # of connection points: 2
#     Edge 79, Type (0, 0), BuildingBlock: XIVTED_clean_linker_0, # of connection points: 2
#     Edge 80, Type (0, 0), BuildingBlock: XIVTED_clean_linker_0, # of connection points: 2
#     Edge 81, Type (0, 0), BuildingBlock: XIVTED_clean_linker_0, # of connection points: 2
#     Edge 82, Type (0, 0), BuildingBlock: XIVTED_clean_linker_0, # of connection points: 2
#     Edge 83, Type (0, 0), BuildingBlock: XIVTED_clean_linker_0, # of connection points: 2
#     Edge 84, Type (0, 0), BuildingBlock: XIVTED_clean_linker_0, # of connection points: 2
#     Edge 85, Type (0, 0), BuildingBlock: XIVTED_clean_linker_0, # of connection points: 2
#     Edge 86, Type (0, 0), BuildingBlock: XIVTED_clean_linker_0, # of connection points: 2
#     Edge 87, Type (0, 0), BuildingBlock: XIVTED_clean_linker_0, # of connection points: 2
#     Edge 88, Type (0, 0), BuildingBlock: XIVTED_clean_linker_0, # of connection points: 2
#     Edge 89, Type (0, 0), BuildingBlock: XIVTED_clean_linker_0, # of connection points: 2
#     Edge 90, Type (0, 0), BuildingBlock: XIVTED_clean_linker_0, # of connection points: 2
#     Edge 91, Type (0, 0), BuildingBlock: XIVTED_clean_linker_0, # of connection points: 2
#     Edge 92, Type (0, 0), BuildingBlock: XIVTED_clean_linker_0, # of connection points: 2
#     Edge 93, Type (0, 0), BuildingBlock: XIVTED_clean_linker_0, # of connection points: 2
#     Edge 94, Type (0, 0), BuildingBlock: XIVTED_clean_linker_0, # of connection points: 2
#     Edge 95, Type (0, 0), BuildingBlock: XIVTED_clean_linker_0, # of connection points: 2
#     Edge 96, Type (0, 0), BuildingBlock: XIVTED_clean_linker_0, # of connection points: 2
#     Edge 97, Type (0, 0), BuildingBlock: XIVTED_clean_linker_0, # of connection points: 2
#     Edge 98, Type (0, 0), BuildingBlock: XIVTED_clean_linker_0, # of connection points: 2
#     Edge 99, Type (0, 0), BuildingBlock: XIVTED_clean_linker_0, # of connection points: 2
#     Edge 100, Type (0, 0), BuildingBlock: XIVTED_clean_linker_0, # of connection points: 2
#     Edge 101, Type (0, 0), BuildingBlock: XIVTED_clean_linker_0, # of connection points: 2
#     Edge 102, Type (0, 0), BuildingBlock: XIVTED_clean_linker_0, # of connection points: 2
#     Edge 103, Type (0, 0), BuildingBlock: XIVTED_clean_linker_0, # of connection points: 2
#     Edge 104, Type (0, 0), BuildingBlock: XIVTED_clean_linker_0, # of connection points: 2
#     Edge 105, Type (0, 0), BuildingBlock: XIVTED_clean_linker_0, # of connection points: 2
#     Edge 106, Type (0, 0), BuildingBlock: XIVTED_clean_linker_0, # of connection points: 2
#     Edge 107, Type (0, 0), BuildingBlock: XIVTED_clean_linker_0, # of connection points: 2
#     Edge 108, Type (0, 0), BuildingBlock: XIVTED_clean_linker_0, # of connection points: 2
#     Edge 109, Type (0, 0), BuildingBlock: XIVTED_clean_linker_0, # of connection points: 2
#     Edge 110, Type (0, 0), BuildingBlock: XIVTED_clean_linker_0, # of connection points: 2
#     Edge 111, Type (0, 0), BuildingBlock: XIVTED_clean_linker_0, # of connection points: 2
#     Edge 112, Type (0, 0), BuildingBlock: XIVTED_clean_linker_0, # of connection points: 2
#     Edge 113, Type (0, 0), BuildingBlock: XIVTED_clean_linker_0, # of connection points: 2
#     Edge 114, Type (0, 0), BuildingBlock: XIVTED_clean_linker_0, # of connection points: 2
#     Edge 115, Type (0, 0), BuildingBlock: XIVTED_clean_linker_0, # of connection points: 2
#     Edge 116, Type (0, 0), BuildingBlock: XIVTED_clean_linker_0, # of connection points: 2
#     Edge 117, Type (0, 0), BuildingBlock: XIVTED_clean_linker_0, # of connection points: 2
#     Edge 118, Type (0, 0), BuildingBlock: XIVTED_clean_linker_0, # of connection points: 2
#     Edge 119, Type (0, 0), BuildingBlock: XIVTED_clean_linker_0, # of connection points: 2
#     Edge 120, Type (0, 0), BuildingBlock: XIVTED_clean_linker_0, # of connection points: 2
#     Edge 121, Type (0, 0), BuildingBlock: XIVTED_clean_linker_0, # of connection points: 2
#     Edge 122, Type (0, 0), BuildingBlock: XIVTED_clean_linker_0, # of connection points: 2
#     Edge 123, Type (0, 0), BuildingBlock: XIVTED_clean_linker_0, # of connection points: 2
#     Edge 124, Type (0, 0), BuildingBlock: XIVTED_clean_linker_0, # of connection points: 2
#     Edge 125, Type (0, 0), BuildingBlock: XIVTED_clean_linker_0, # of connection points: 2
#     Edge 126, Type (0, 0), BuildingBlock: XIVTED_clean_linker_0, # of connection points: 2
#     Edge 127, Type (0, 0), BuildingBlock: XIVTED_clean_linker_0, # of connection points: 2
# Relax obj value: 0.166
# Max RMSD: 0.166
# Mean RMSD: 0.166
data_MOF--net-flu-e--node1-IZENUY_clean_sbu_0--edge1-XIVTED_clean_linker_0
_symmetry_space_group_name_H-M    P1
_symmetry_Int_Tables_number       1
_symmetry_cell_setting            triclinic
loop_
_symmetry_equiv_pos_as_xyz
'x, y, z'
_cell_length_a     54.079652
_cell_length_b     54.079496
_cell_length_c     54.095883
_cell_angle_alpha  90.004594
_cell_angle_beta   90.005444
_cell_angle_gamma 89.987502
loop_
_atom_site_label
_atom_site_type_symbol
_atom_site_fract_x
_atom_site_fract_y
_atom_site_fract_z
_atom_type_partial_charge
Fe0 Fe 0.13449 0.17526 0.36512 0.0
Fe1 Fe 0.1758 0.13636 0.36779 0.0
O2 O 0.14884 0.14824 0.3534 0.0
Fe3 Fe 0.13642 0.13322 0.32709 0.0
O4 O 0.14056 0.16054 0.30832 0.0
O5 O 0.12416 0.18665 0.33475 0.0
O6 O 0.16229 0.19329 0.36045 0.0
C7 C 0.18322 0.18811 0.36927 0.0
C8 C 0.09371 0.14769 0.35403 0.0
O9 O 0.18778 0.16666 0.37747 0.0
C10 C 0.14863 0.09323 0.35521 0.0
O11 O 0.14237 0.1688 0.39757 0.0
O12 O 0.15968 0.13199 0.39685 0.0
O13 O 0.10414 0.14115 0.3341 0.0
O14 O 0.10564 0.15909 0.37049 0.0
C15 C 0.18794 0.13111 0.31895 0.0
O16 O 0.16878 0.10388 0.36068 0.0
O17 O 0.13165 0.10482 0.34419 0.0
C18 C 0.14858 0.14895 0.40842 0.0
O19 O 0.19369 0.1401 0.33968 0.0
O20 O 0.16642 0.12271 0.31513 0.0
C21 C 0.13204 0.18165 0.31326 0.0
Fe22 Fe 0.86834 0.17564 0.36541 0.0
Fe23 Fe 0.86574 0.13474 0.32614 0.0
O24 O 0.85365 0.14918 0.35297 0.0
Fe25 Fe 0.82661 0.1373 0.36706 0.0
O26 O 0.81499 0.16746 0.37772 0.0
O27 O 0.84075 0.19419 0.36139 0.0
O28 O 0.87857 0.18776 0.33536 0.0
C29 C 0.87049 0.18354 0.31377 0.0
C30 C 0.85405 0.1482 0.40793 0.0
O31 O 0.86176 0.16267 0.30812 0.0
C32 C 0.85338 0.09418 0.35324 0.0
O33 O 0.89704 0.15895 0.37011 0.0
O34 O 0.89812 0.14224 0.33311 0.0
O35 O 0.84266 0.13177 0.39592 0.0
O36 O 0.86054 0.16827 0.39767 0.0
C37 C 0.81425 0.13346 0.31832 0.0
O38 O 0.8704 0.10593 0.3425 0.0
O39 O 0.83326 0.10485 0.35895 0.0
C40 C 0.90873 0.14797 0.35319 0.0
O41 O 0.83551 0.1246 0.31417 0.0
O42 O 0.80888 0.14241 0.33912 0.0
C43 C 0.81974 0.18906 0.37002 0.0
Fe44 Fe 0.8267 0.86627 0.36816 0.0
Fe45 Fe 0.8664 0.86784 0.32758 0.0
O46 O 0.8538 0.85388 0.35444 0.0
Fe47 Fe 0.86809 0.82734 0.3674 0.0
O48 O 0.84032 0.80906 0.36329 0.0
O49 O 0.81464 0.83642 0.37879 0.0
O50 O 0.80902 0.8615 0.34009 0.0
C51 C 0.81486 0.86968 0.31906 0.0
C52 C 0.8537 0.85532 0.40946 0.0
O53 O 0.83647 0.87765 0.31489 0.0
C54 C 0.90892 0.8546 0.35548 0.0
O55 O 0.8337 0.89841 0.35993 0.0
O56 O 0.87081 0.89713 0.34342 0.0
O57 O 0.86005 0.83511 0.39944 0.0
O58 O 0.84249 0.87174 0.39724 0.0
C59 C 0.87098 0.81869 0.31593 0.0
O60 O 0.89863 0.86041 0.33525 0.0
O61 O 0.89693 0.84373 0.37226 0.0
C62 C 0.85374 0.90899 0.35405 0.0
O63 O 0.86267 0.83962 0.30987 0.0
O64 O 0.87862 0.81468 0.33769 0.0
C65 C 0.8192 0.81473 0.3713 0.0
Fe66 Fe 0.13693 0.86838 0.32754 0.0
Fe67 Fe 0.17638 0.86488 0.36806 0.0
O68 O 0.14901 0.85352 0.35411 0.0
Fe69 Fe 0.13393 0.82718 0.36644 0.0
O70 O 0.12329 0.81546 0.33627 0.0
O71 O 0.14042 0.84061 0.30933 0.0
O72 O 0.16717 0.87809 0.31531 0.0
C73 C 0.18852 0.86929 0.31927 0.0
C74 C 0.09388 0.85551 0.35475 0.0
O75 O 0.19387 0.8601 0.33998 0.0
C76 C 0.14929 0.85394 0.40912 0.0
O77 O 0.13285 0.89712 0.34419 0.0
O78 O 0.17009 0.89745 0.36047 0.0
O79 O 0.10554 0.84427 0.3715 0.0
O80 O 0.10447 0.86132 0.33468 0.0
C81 C 0.18238 0.81297 0.37039 0.0
O82 O 0.16075 0.87024 0.39706 0.0
O83 O 0.14206 0.83415 0.39879 0.0
C84 C 0.15008 0.90844 0.35506 0.0
O85 O 0.18766 0.83442 0.37816 0.0
O86 O 0.16116 0.80824 0.36207 0.0
C87 C 0.13134 0.81984 0.31468 0.0
Fe88 Fe 0.13682 0.82764 0.63452 0.0
Fe89 Fe 0.17663 0.86786 0.63713 0.0
O90 O 0.14932 0.85424 0.64898 0.0
Fe91 Fe 0.13481 0.86681 0.67549 0.0
O92 O 0.12417 0.83676 0.68758 0.0
O93 O 0.14075 0.80957 0.66232 0.0
O94 O 0.16683 0.81518 0.62419 0.0
C95 C 0.18814 0.81885 0.63315 0.0
C96 C 0.09418 0.85525 0.64803 0.0
O97 O 0.19387 0.83954 0.64214 0.0
C98 C 0.14994 0.90926 0.64818 0.0
O99 O 0.1323 0.84414 0.60587 0.0
O100 O 0.16972 0.86002 0.60463 0.0
O101 O 0.10621 0.87199 0.65887 0.0
O102 O 0.1045 0.83503 0.64219 0.0
C103 C 0.18344 0.87064 0.6889 0.0
O104 O 0.16119 0.89707 0.63177 0.0
O105 O 0.14302 0.89905 0.66815 0.0
C106 C 0.14947 0.85455 0.59405 0.0
O107 O 0.18846 0.87818 0.66731 0.0
O108 O 0.16229 0.86237 0.69397 0.0
C109 C 0.13205 0.81509 0.68321 0.0
Fe110 Fe 0.13591 0.13478 0.67557 0.0
Fe111 Fe 0.17423 0.13781 0.63381 0.0
O112 O 0.14754 0.14955 0.64876 0.0
Fe113 Fe 0.13263 0.17633 0.63714 0.0
O114 O 0.12263 0.18779 0.6676 0.0
O115 O 0.14029 0.16242 0.69389 0.0
O116 O 0.16628 0.12454 0.68697 0.0
C117 C 0.18773 0.13267 0.6823 0.0
C118 C 0.09247 0.1484 0.64928 0.0
O119 O 0.19272 0.1417 0.66143 0.0
C120 C 0.14634 0.15017 0.59363 0.0
O121 O 0.13098 0.10612 0.65904 0.0
O122 O 0.16746 0.10519 0.64107 0.0
O123 O 0.10394 0.15968 0.6324 0.0
O124 O 0.10336 0.14235 0.66915 0.0
C125 C 0.18119 0.18973 0.63236 0.0
O126 O 0.1576 0.13328 0.60509 0.0
O127 O 0.14006 0.16993 0.60457 0.0
C128 C 0.14765 0.09445 0.64765 0.0
O129 O 0.18586 0.16832 0.624 0.0
O130 O 0.16026 0.1947 0.6413 0.0
C131 C 0.13122 0.1833 0.68892 0.0
Fe132 Fe 0.86411 0.13442 0.67434 0.0
Fe133 Fe 0.86672 0.17569 0.63549 0.0
O134 O 0.8521 0.149 0.64762 0.0
Fe135 Fe 0.82526 0.13699 0.63315 0.0
O136 O 0.80714 0.14174 0.66082 0.0
O137 O 0.83372 0.12449 0.68624 0.0
O138 O 0.86012 0.16221 0.69255 0.0
C139 C 0.86894 0.18311 0.68724 0.0
C140 C 0.85172 0.09393 0.64714 0.0
O141 O 0.87684 0.18766 0.66566 0.0
C142 C 0.85315 0.14839 0.59271 0.0
O143 O 0.89656 0.14189 0.6675 0.0
O144 O 0.89556 0.15925 0.6308 0.0
O145 O 0.83168 0.1046 0.6414 0.0
O146 O 0.86884 0.1056 0.65778 0.0
C147 C 0.81804 0.18865 0.63064 0.0
O148 O 0.85913 0.1685 0.60319 0.0
O149 O 0.84179 0.13171 0.60444 0.0
C150 C 0.90726 0.14811 0.64761 0.0
O151 O 0.83893 0.19401 0.63947 0.0
O152 O 0.81368 0.16712 0.62253 0.0
C153 C 0.8123 0.13295 0.68177 0.0
Fe154 Fe 0.86828 0.86571 0.67671 0.0
Fe155 Fe 0.82775 0.8693 0.63724 0.0
O156 O 0.85429 0.85439 0.64935 0.0
Fe157 Fe 0.86658 0.82799 0.63445 0.0
O158 O 0.86213 0.80916 0.66181 0.0
O159 O 0.87889 0.83539 0.68777 0.0
O160 O 0.84014 0.86034 0.69413 0.0
C161 C 0.81945 0.86961 0.68873 0.0
C162 C 0.90919 0.85497 0.64919 0.0
O163 O 0.81559 0.87893 0.66759 0.0
C164 C 0.855 0.85628 0.59426 0.0
O165 O 0.86009 0.89825 0.67084 0.0
O166 O 0.84458 0.89808 0.63328 0.0
O167 O 0.89876 0.83503 0.6426 0.0
O168 O 0.89733 0.8714 0.66084 0.0
C169 C 0.815 0.82052 0.63186 0.0
O170 O 0.83495 0.86233 0.60478 0.0
O171 O 0.87165 0.84491 0.60597 0.0
C172 C 0.85484 0.90938 0.6509 0.0
O173 O 0.80933 0.84143 0.64054 0.0
O174 O 0.83658 0.81631 0.62381 0.0
C175 C 0.87081 0.81398 0.68288 0.0
Fe176 Fe 0.36649 0.13373 0.17512 0.0
Fe177 Fe 0.36836 0.17504 0.13635 0.0
O178 O 0.35388 0.14832 0.14864 0.0
Fe179 Fe 0.32664 0.13639 0.13478 0.0
O180 O 0.30914 0.14037 0.16309 0.0
O181 O 0.33666 0.12336 0.18757 0.0
O182 O 0.36249 0.1614 0.19341 0.0
C183 C 0.37111 0.18236 0.18806 0.0
C184 C 0.35405 0.09331 0.14771 0.0
O185 O 0.37901 0.18688 0.16647 0.0
C186 C 0.35323 0.14841 0.09353 0.0
O187 O 0.39874 0.1415 0.16778 0.0
O188 O 0.39706 0.15856 0.13099 0.0
O189 O 0.33388 0.10387 0.14198 0.0
O190 O 0.37105 0.10508 0.1585 0.0
C191 C 0.31959 0.18832 0.13279 0.0
O192 O 0.36016 0.16817 0.10407 0.0
O193 O 0.3421 0.13175 0.10546 0.0
C194 C 0.40908 0.14754 0.14765 0.0
O195 O 0.3408 0.19338 0.14097 0.0
O196 O 0.31452 0.16674 0.12515 0.0
C197 C 0.31508 0.13157 0.18383 0.0
Fe198 Fe 0.86632 0.36807 0.17524 0.0
Fe199 Fe 0.82704 0.36605 0.13435 0.0
O200 O 0.85402 0.35382 0.14837 0.0
Fe201 Fe 0.86842 0.3272 0.13573 0.0
O202 O 0.87863 0.31479 0.16565 0.0
O203 O 0.86248 0.34004 0.19312 0.0
O204 O 0.83618 0.37799 0.18756 0.0
C205 C 0.81464 0.36987 0.18316 0.0
C206 C 0.90915 0.35454 0.14791 0.0
O207 O 0.80923 0.36129 0.16221 0.0
C208 C 0.85429 0.35497 0.09339 0.0
O209 O 0.8709 0.39713 0.15917 0.0
O210 O 0.83389 0.39829 0.14247 0.0
O211 O 0.89732 0.34353 0.1311 0.0
O212 O 0.89866 0.36064 0.16795 0.0
C213 C 0.81957 0.31446 0.13139 0.0
O214 O 0.84308 0.37143 0.1055 0.0
O215 O 0.86069 0.33481 0.10352 0.0
C216 C 0.85392 0.4089 0.14835 0.0
O217 O 0.81509 0.3361 0.12372 0.0
O218 O 0.84062 0.30889 0.13967 0.0
C219 C 0.87093 0.3191 0.18734 0.0
Fe220 Fe 0.67596 0.86576 0.13529 0.0
Fe221 Fe 0.63562 0.86733 0.17524 0.0
O222 O 0.64869 0.85333 0.14861 0.0
Fe223 Fe 0.63472 0.82673 0.13545 0.0
O224 O 0.66245 0.80854 0.14004 0.0
O225 O 0.68823 0.83595 0.12482 0.0
O226 O 0.6932 0.86103 0.1636 0.0
C227 C 0.68706 0.86921 0.18454 0.0
C228 C 0.64973 0.85472 0.09357 0.0
O229 O 0.66536 0.87713 0.18844 0.0
C230 C 0.59367 0.85398 0.14657 0.0
O231 O 0.6688 0.89788 0.1434 0.0
O232 O 0.63143 0.89658 0.15928 0.0
O233 O 0.64327 0.83449 0.10349 0.0
O234 O 0.66058 0.8712 0.10601 0.0
C235 C 0.63091 0.81819 0.1869 0.0
O236 O 0.60353 0.85993 0.16697 0.0
O237 O 0.60596 0.84301 0.13009 0.0
C238 C 0.64861 0.9084 0.14882 0.0
O239 O 0.63905 0.83915 0.19304 0.0
O240 O 0.62373 0.81407 0.16499 0.0
C241 C 0.68363 0.81425 0.13222 0.0
Fe242 Fe 0.13521 0.63754 0.17606 0.0
Fe243 Fe 0.17487 0.63488 0.13563 0.0
O244 O 0.14843 0.64937 0.14854 0.0
Fe245 Fe 0.13553 0.67585 0.13428 0.0
O246 O 0.1403 0.69434 0.16172 0.0
O247 O 0.12471 0.66763 0.18791 0.0
O248 O 0.16369 0.64285 0.19285 0.0
C249 C 0.18435 0.63395 0.18686 0.0
C250 C 0.09354 0.6482 0.14973 0.0
O251 O 0.18783 0.62491 0.16554 0.0
C252 C 0.14654 0.64841 0.09345 0.0
O253 O 0.14325 0.60512 0.16933 0.0
O254 O 0.15836 0.60603 0.13163 0.0
O255 O 0.10351 0.66832 0.14292 0.0
O256 O 0.1059 0.63188 0.16093 0.0
C257 C 0.18709 0.68377 0.1306 0.0
O258 O 0.16684 0.64226 0.10342 0.0
O259 O 0.13003 0.65934 0.10573 0.0
C260 C 0.14824 0.59436 0.14909 0.0
O261 O 0.19303 0.66281 0.13893 0.0
O262 O 0.16526 0.68806 0.12325 0.0
C263 C 0.13219 0.68923 0.18292 0.0
Fe264 Fe 0.3279 0.8657 0.86839 0.0
Fe265 Fe 0.36663 0.86812 0.82698 0.0
O266 O 0.35433 0.85333 0.85346 0.0
Fe267 Fe 0.36808 0.82586 0.86482 0.0
O268 O 0.33972 0.80872 0.85991 0.0
O269 O 0.31552 0.83555 0.8784 0.0
O270 O 0.3095 0.86222 0.84071 0.0
C271 C 0.31486 0.87112 0.81986 0.0
C272 C 0.35526 0.85241 0.90841 0.0
O273 O 0.3365 0.87896 0.81536 0.0
C274 C 0.40935 0.85265 0.85366 0.0
O275 O 0.33528 0.89813 0.86113 0.0
O276 O 0.37199 0.89653 0.84383 0.0
O277 O 0.36061 0.83233 0.89747 0.0
O278 O 0.3447 0.86976 0.89697 0.0
C279 C 0.37022 0.81963 0.81295 0.0
O280 O 0.39895 0.85978 0.83387 0.0
O281 O 0.39732 0.84124 0.87006 0.0
C282 C 0.35538 0.90849 0.85496 0.0
O283 O 0.36193 0.84085 0.80821 0.0
O284 O 0.37807 0.8144 0.83438 0.0
C285 C 0.31913 0.81433 0.8692 0.0
Fe286 Fe 0.13588 0.36612 0.8273 0.0
Fe287 Fe 0.17681 0.36837 0.86652 0.0
O288 O 0.14991 0.3542 0.85439 0.0
Fe289 Fe 0.13743 0.32779 0.86924 0.0
O290 O 0.14181 0.30913 0.84182 0.0
O291 O 0.12586 0.33577 0.81556 0.0
O292 O 0.16396 0.36174 0.80943 0.0
C293 C 0.18489 0.37028 0.81511 0.0
C294 C 0.09478 0.35464 0.85432 0.0
O295 O 0.18896 0.37852 0.83659 0.0
C296 C 0.14937 0.35566 0.90939 0.0
O297 O 0.14352 0.39854 0.83434 0.0
O298 O 0.16078 0.39737 0.87121 0.0
O299 O 0.10521 0.33475 0.861 0.0
O300 O 0.10677 0.3712 0.84313 0.0
C301 C 0.18879 0.3196 0.87129 0.0
O302 O 0.16967 0.36084 0.89888 0.0
O303 O 0.13238 0.34481 0.89766 0.0
C304 C 0.14971 0.40912 0.85436 0.0
O305 O 0.19446 0.34023 0.86212 0.0
O306 O 0.16744 0.31586 0.88011 0.0
C307 C 0.13352 0.31419 0.82063 0.0
Fe308 Fe 0.63334 0.13741 0.82699 0.0
Fe309 Fe 0.63579 0.17618 0.86824 0.0
O310 O 0.64785 0.14932 0.85385 0.0
Fe311 Fe 0.67455 0.13468 0.86607 0.0
O312 O 0.6867 0.12486 0.83581 0.0
O313 O 0.66118 0.14159 0.80895 0.0
O314 O 0.62324 0.16769 0.81517 0.0
C315 C 0.63169 0.18908 0.81956 0.0
C316 C 0.64714 0.09413 0.85348 0.0
O317 O 0.64045 0.1943 0.8405 0.0
C318 C 0.64715 0.14855 0.90889 0.0
O319 O 0.60444 0.13259 0.84334 0.0
O320 O 0.60349 0.1695 0.86027 0.0
O321 O 0.65817 0.10572 0.87045 0.0
O322 O 0.64092 0.10498 0.83367 0.0
C323 C 0.68737 0.1835 0.87093 0.0
O324 O 0.63059 0.15985 0.89696 0.0
O325 O 0.66716 0.14203 0.8985 0.0
C326 C 0.5928 0.14949 0.85444 0.0
O327 O 0.6658 0.18788 0.87881 0.0
O328 O 0.69289 0.16254 0.86237 0.0
C329 C 0.68214 0.13289 0.81426 0.0
Fe330 Fe 0.86918 0.6748 0.86523 0.0
Fe331 Fe 0.86532 0.63342 0.82668 0.0
O332 O 0.85408 0.6481 0.85372 0.0
Fe333 Fe 0.82758 0.63633 0.86899 0.0
O334 O 0.81607 0.66684 0.87906 0.0
O335 O 0.84154 0.69321 0.86157 0.0
O336 O 0.87872 0.68641 0.83463 0.0
C337 C 0.86989 0.68191 0.81339 0.0
C338 C 0.85595 0.64849 0.90889 0.0
O339 O 0.86069 0.66109 0.80854 0.0
C340 C 0.854 0.59303 0.8546 0.0
O341 O 0.89792 0.65811 0.86946 0.0
O342 O 0.898 0.64095 0.83264 0.0
O343 O 0.84455 0.63166 0.89748 0.0
O344 O 0.86223 0.66824 0.89791 0.0
C345 C 0.8134 0.63154 0.82064 0.0
O346 O 0.87048 0.60476 0.84304 0.0
O347 O 0.83425 0.60371 0.86149 0.0
C348 C 0.90919 0.64698 0.85235 0.0
O349 O 0.83474 0.62327 0.81566 0.0
O350 O 0.80874 0.6404 0.84165 0.0
C351 C 0.82071 0.68827 0.87074 0.0
Fe352 Fe 0.1757 0.36888 0.1369 0.0
Fe353 Fe 0.13513 0.3658 0.17644 0.0
O354 O 0.1492 0.3541 0.14925 0.0
Fe355 Fe 0.13701 0.32744 0.13458 0.0
O356 O 0.16714 0.31572 0.12394 0.0
O357 O 0.19409 0.34115 0.14055 0.0
O358 O 0.18799 0.37879 0.16695 0.0
C359 C 0.18409 0.37033 0.18842 0.0
C360 C 0.14833 0.35542 0.09415 0.0
O361 O 0.16329 0.36149 0.19414 0.0
C362 C 0.09418 0.35417 0.14923 0.0
O363 O 0.15904 0.39769 0.13265 0.0
O364 O 0.14259 0.39828 0.16981 0.0
O365 O 0.13175 0.34409 0.10599 0.0
O366 O 0.1684 0.36152 0.10457 0.0
C367 C 0.13302 0.31398 0.18318 0.0
O368 O 0.106 0.37075 0.16061 0.0
O369 O 0.1047 0.33428 0.14264 0.0
C370 C 0.14821 0.40917 0.14983 0.0
O371 O 0.12514 0.33548 0.18808 0.0
O372 O 0.14155 0.30894 0.1621 0.0
C373 C 0.18875 0.32023 0.13178 0.0
Fe374 Fe 0.1762 0.63724 0.86879 0.0
Fe375 Fe 0.13811 0.63465 0.82684 0.0
O376 O 0.14964 0.6492 0.85379 0.0
Fe377 Fe 0.13491 0.67597 0.86556 0.0
O378 O 0.16282 0.69407 0.86147 0.0
O379 O 0.18764 0.66749 0.87954 0.0
O380 O 0.19488 0.64172 0.84141 0.0
C381 C 0.19003 0.63295 0.82038 0.0
C382 C 0.14795 0.64888 0.90873 0.0
O383 O 0.16864 0.62467 0.81551 0.0
C384 C 0.09457 0.64837 0.85307 0.0
O385 O 0.16969 0.60479 0.86084 0.0
O386 O 0.13314 0.60584 0.8431 0.0
O387 O 0.14211 0.66903 0.89818 0.0
O388 O 0.15918 0.63214 0.89705 0.0
C389 C 0.13345 0.68327 0.81381 0.0
O390 O 0.10552 0.64216 0.83327 0.0
O391 O 0.10604 0.65957 0.87002 0.0
C392 C 0.14982 0.59413 0.85442 0.0
O393 O 0.14248 0.66241 0.80875 0.0
O394 O 0.12507 0.6878 0.8352 0.0
C395 C 0.18349 0.6888 0.8708 0.0
Fe396 Fe 0.36459 0.17543 0.86787 0.0
Fe397 Fe 0.36806 0.13615 0.82717 0.0
O398 O 0.35284 0.14852 0.85338 0.0
Fe399 Fe 0.32563 0.13445 0.86481 0.0
O400 O 0.30793 0.16245 0.85964 0.0
O401 O 0.3343 0.18726 0.87791 0.0
O402 O 0.36038 0.1932 0.83978 0.0
C403 C 0.36976 0.18767 0.81919 0.0
C404 C 0.35199 0.14826 0.90829 0.0
O405 O 0.3787 0.16635 0.81537 0.0
C406 C 0.3531 0.09349 0.85411 0.0
O407 O 0.39716 0.16862 0.86058 0.0
O408 O 0.39627 0.13136 0.84449 0.0
O409 O 0.33203 0.14233 0.8974 0.0
O410 O 0.36908 0.15917 0.89674 0.0
C411 C 0.31968 0.13185 0.81292 0.0
O412 O 0.36007 0.1038 0.83422 0.0
O413 O 0.3415 0.10553 0.87037 0.0
C414 C 0.40787 0.14842 0.85531 0.0
O415 O 0.34085 0.14029 0.80814 0.0
O416 O 0.31447 0.12408 0.83439 0.0
C417 C 0.31315 0.18318 0.86882 0.0
Fe418 Fe 0.86862 0.36513 0.82707 0.0
Fe419 Fe 0.86695 0.32606 0.86817 0.0
O420 O 0.85436 0.35271 0.85385 0.0
Fe421 Fe 0.82734 0.3666 0.86619 0.0
O422 O 0.815 0.37675 0.83616 0.0
O423 O 0.84076 0.36099 0.80901 0.0
O424 O 0.87878 0.33495 0.81482 0.0
C425 C 0.87092 0.31334 0.81945 0.0
C426 C 0.85407 0.4078 0.85442 0.0
O427 O 0.86254 0.30797 0.8405 0.0
C428 C 0.85512 0.35334 0.9088 0.0
O429 O 0.89763 0.37005 0.8432 0.0
O430 O 0.89913 0.33318 0.86011 0.0
O431 O 0.84308 0.3957 0.87104 0.0
O432 O 0.86081 0.39747 0.83446 0.0
C433 C 0.81554 0.31762 0.87064 0.0
O434 O 0.87195 0.34252 0.89683 0.0
O435 O 0.8348 0.35899 0.89852 0.0
C436 C 0.90958 0.35325 0.85409 0.0
O437 O 0.83713 0.31376 0.87877 0.0
O438 O 0.80965 0.33845 0.86202 0.0
C439 C 0.81971 0.36935 0.81445 0.0
Fe440 Fe 0.63527 0.86554 0.82662 0.0
Fe441 Fe 0.67606 0.86835 0.86588 0.0
O442 O 0.6495 0.85365 0.8536 0.0
Fe443 Fe 0.63747 0.82677 0.86783 0.0
O444 O 0.64225 0.80877 0.83993 0.0
O445 O 0.62459 0.8354 0.81495 0.0
O446 O 0.66326 0.86062 0.8089 0.0
C447 C 0.68407 0.86953 0.81439 0.0
C448 C 0.59454 0.85393 0.85375 0.0
O449 O 0.68811 0.87851 0.83565 0.0
C450 C 0.64881 0.85424 0.90863 0.0
O451 O 0.64322 0.89802 0.83323 0.0
O452 O 0.65939 0.89704 0.87045 0.0
O453 O 0.60503 0.83382 0.85989 0.0
O454 O 0.60646 0.87075 0.84281 0.0
C455 C 0.68923 0.81963 0.8706 0.0
O456 O 0.66882 0.86075 0.89825 0.0
O457 O 0.63227 0.84293 0.89667 0.0
C458 C 0.64874 0.90875 0.85334 0.0
O459 O 0.69451 0.84064 0.86199 0.0
O460 O 0.66761 0.81497 0.87831 0.0
C461 C 0.63317 0.81407 0.81917 0.0
Fe462 Fe 0.86611 0.63482 0.17621 0.0
Fe463 Fe 0.86796 0.67565 0.13676 0.0
O464 O 0.85376 0.64895 0.1493 0.0
Fe465 Fe 0.82694 0.63658 0.13516 0.0
O466 O 0.80905 0.64138 0.16309 0.0
O467 O 0.83599 0.62448 0.18839 0.0
O468 O 0.86193 0.66288 0.19414 0.0
C469 C 0.87034 0.68384 0.18832 0.0
C470 C 0.85419 0.59393 0.14924 0.0
O471 O 0.87825 0.68797 0.16667 0.0
C472 C 0.85409 0.64809 0.09419 0.0
O473 O 0.89842 0.64258 0.16894 0.0
O474 O 0.89679 0.65937 0.13195 0.0
O475 O 0.83404 0.60435 0.14331 0.0
O476 O 0.87102 0.60587 0.16009 0.0
C477 C 0.81917 0.68807 0.13245 0.0
O478 O 0.86012 0.66823 0.10454 0.0
O479 O 0.84312 0.63134 0.1062 0.0
C480 C 0.90876 0.64852 0.14875 0.0
O481 O 0.84012 0.69374 0.1409 0.0
O482 O 0.81489 0.66647 0.12456 0.0
C483 C 0.81452 0.63277 0.18401 0.0
Fe484 Fe 0.36838 0.86627 0.17492 0.0
Fe485 Fe 0.32687 0.86658 0.13611 0.0
O486 O 0.35417 0.85317 0.14844 0.0
Fe487 Fe 0.36712 0.82644 0.13452 0.0
O488 O 0.36349 0.80876 0.16266 0.0
O489 O 0.37941 0.83666 0.18749 0.0
O490 O 0.34085 0.86163 0.19321 0.0
C491 C 0.31958 0.86945 0.18789 0.0
C492 C 0.40921 0.85499 0.14758 0.0
O493 O 0.31455 0.87675 0.16619 0.0
C494 C 0.3544 0.85278 0.09342 0.0
O495 O 0.35979 0.89828 0.16737 0.0
O496 O 0.34213 0.89591 0.13085 0.0
O497 O 0.39927 0.83453 0.14197 0.0
O498 O 0.39698 0.87162 0.15841 0.0
C499 C 0.31566 0.81736 0.13226 0.0
O500 O 0.33424 0.85874 0.10383 0.0
O501 O 0.37143 0.84229 0.10539 0.0
C502 C 0.35304 0.9083 0.14729 0.0
O503 O 0.30959 0.83825 0.14058 0.0
O504 O 0.3374 0.81337 0.12456 0.0
C505 C 0.37189 0.81484 0.18351 0.0
Fe506 Fe 0.63716 0.13365 0.17548 0.0
Fe507 Fe 0.6762 0.13616 0.13461 0.0
O508 O 0.64936 0.14832 0.14885 0.0
Fe509 Fe 0.63505 0.17523 0.13684 0.0
O510 O 0.62533 0.18718 0.16727 0.0
O511 O 0.64181 0.16117 0.19386 0.0
O512 O 0.66724 0.12274 0.18718 0.0
C513 C 0.68856 0.13153 0.18323 0.0
C514 C 0.59422 0.1481 0.14899 0.0
O515 O 0.69403 0.1407 0.16257 0.0
C516 C 0.64886 0.14798 0.09388 0.0
O517 O 0.63189 0.10521 0.15868 0.0
O518 O 0.66904 0.10376 0.14232 0.0
O519 O 0.60598 0.15916 0.13218 0.0
O520 O 0.60488 0.14187 0.16889 0.0
C521 C 0.68395 0.18775 0.13219 0.0
O522 O 0.66006 0.13129 0.10573 0.0
O523 O 0.64242 0.16798 0.10436 0.0
C524 C 0.64875 0.09333 0.14782 0.0
O525 O 0.68829 0.16616 0.1243 0.0
O526 O 0.66301 0.1933 0.14075 0.0
C527 C 0.63338 0.18229 0.18877 0.0
Fe528 Fe 0.36855 0.63701 0.67402 0.0
Fe529 Fe 0.36508 0.67559 0.63259 0.0
O530 O 0.35345 0.64885 0.6475 0.0
Fe531 Fe 0.32646 0.63428 0.63609 0.0
O532 O 0.31524 0.62405 0.66651 0.0
O533 O 0.34109 0.64108 0.69274 0.0
O534 O 0.37861 0.66743 0.68553 0.0
C535 C 0.37012 0.68884 0.68111 0.0
C536 C 0.35435 0.59377 0.64753 0.0
O537 O 0.361 0.69396 0.66028 0.0
C538 C 0.35275 0.64769 0.59257 0.0
O539 O 0.39713 0.63234 0.65714 0.0
O540 O 0.39764 0.66915 0.63999 0.0
O541 O 0.34276 0.60542 0.63096 0.0
O542 O 0.36101 0.6045 0.6673 0.0
C543 C 0.31349 0.68289 0.63152 0.0
O544 O 0.36974 0.65882 0.60402 0.0
O545 O 0.33278 0.64189 0.60346 0.0
C546 C 0.40857 0.64928 0.64594 0.0
O547 O 0.33465 0.68707 0.62243 0.0
O548 O 0.30842 0.66217 0.64085 0.0
C549 C 0.32011 0.6322 0.68791 0.0
Fe550 Fe 0.6754 0.36788 0.6338 0.0
Fe551 Fe 0.63755 0.36923 0.67603 0.0
O552 O 0.64909 0.3553 0.64869 0.0
Fe553 Fe 0.63444 0.32864 0.63655 0.0
O554 O 0.66242 0.3105 0.6396 0.0
O555 O 0.68752 0.33794 0.62317 0.0
O556 O 0.69419 0.3636 0.66113 0.0
C557 C 0.68932 0.3721 0.68224 0.0
C558 C 0.64731 0.35612 0.59354 0.0
O559 O 0.66785 0.38 0.68721 0.0
C560 C 0.594 0.35532 0.65027 0.0
O561 O 0.66801 0.4001 0.64191 0.0
O562 O 0.63168 0.39812 0.66015 0.0
O563 O 0.64116 0.33608 0.60405 0.0
O564 O 0.65854 0.37281 0.60532 0.0
C565 C 0.63406 0.32044 0.68831 0.0
O566 O 0.60507 0.36082 0.67017 0.0
O567 O 0.60542 0.34509 0.63273 0.0
C568 C 0.64796 0.41026 0.64867 0.0
O569 O 0.64292 0.34133 0.69354 0.0
O570 O 0.62527 0.31617 0.66698 0.0
C571 C 0.68324 0.31621 0.63082 0.0
Fe572 Fe 0.32777 0.36834 0.36707 0.0
Fe573 Fe 0.36802 0.3649 0.32726 0.0
O574 O 0.35384 0.35314 0.35436 0.0
Fe575 Fe 0.36552 0.32602 0.36855 0.0
O576 O 0.33521 0.31485 0.37928 0.0
O577 O 0.30878 0.34114 0.36319 0.0
O578 O 0.31547 0.37882 0.33718 0.0
C579 C 0.3191 0.37043 0.31562 0.0
C580 C 0.35519 0.35369 0.40944 0.0
O581 O 0.33973 0.36133 0.30968 0.0
C582 C 0.40879 0.35206 0.3541 0.0
O583 O 0.34505 0.39667 0.37157 0.0
O584 O 0.36119 0.39745 0.33431 0.0
O585 O 0.37139 0.34212 0.39731 0.0
O586 O 0.33518 0.36044 0.39928 0.0
C587 C 0.36899 0.31311 0.31981 0.0
O588 O 0.39726 0.36908 0.34309 0.0
O589 O 0.3979 0.33224 0.36029 0.0
C590 C 0.35588 0.4082 0.35445 0.0
O591 O 0.37737 0.33448 0.31517 0.0
O592 O 0.36034 0.30806 0.34083 0.0
C593 C 0.31368 0.31999 0.37161 0.0
Fe594 Fe 0.67612 0.63706 0.36735 0.0
Fe595 Fe 0.6361 0.63486 0.32727 0.0
O596 O 0.64884 0.64921 0.35384 0.0
Fe597 Fe 0.63468 0.6758 0.36665 0.0
O598 O 0.66244 0.69406 0.36232 0.0
O599 O 0.68795 0.66689 0.37826 0.0
O600 O 0.6933 0.64253 0.33913 0.0
C601 C 0.68751 0.6338 0.31833 0.0
C602 C 0.64924 0.64777 0.40872 0.0
O603 O 0.66618 0.62485 0.31455 0.0
C604 C 0.59369 0.64859 0.35515 0.0
O605 O 0.66951 0.6048 0.35875 0.0
O606 O 0.63176 0.60596 0.34379 0.0
O607 O 0.64286 0.668 0.39868 0.0
O608 O 0.66049 0.63132 0.39651 0.0
C609 C 0.63142 0.68388 0.31505 0.0
O610 O 0.60385 0.64236 0.33498 0.0
O611 O 0.60584 0.65956 0.37174 0.0
C612 C 0.64918 0.59424 0.3539 0.0
O613 O 0.63963 0.66286 0.30912 0.0
O614 O 0.6241 0.68822 0.33687 0.0
C615 C 0.68349 0.68851 0.37057 0.0
Fe616 Fe 0.36582 0.67451 0.36739 0.0
Fe617 Fe 0.36832 0.63641 0.32541 0.0
O618 O 0.3538 0.64802 0.35233 0.0
Fe619 Fe 0.32694 0.63323 0.3639 0.0
O620 O 0.30873 0.66101 0.35972 0.0
O621 O 0.3354 0.68636 0.3771 0.0
O622 O 0.36229 0.69328 0.33982 0.0
C623 C 0.37108 0.68811 0.31888 0.0
C624 C 0.35299 0.64661 0.40746 0.0
O625 O 0.37893 0.66658 0.3142 0.0
C626 C 0.35473 0.59308 0.35172 0.0
O627 O 0.39833 0.6673 0.3602 0.0
O628 O 0.39699 0.63101 0.34179 0.0
O629 O 0.33321 0.64067 0.39643 0.0
O630 O 0.37006 0.6577 0.3961 0.0
C631 C 0.31981 0.6322 0.31233 0.0
O632 O 0.36038 0.60392 0.33171 0.0
O633 O 0.34357 0.60455 0.36868 0.0
C634 C 0.40879 0.64738 0.3535 0.0
O635 O 0.34056 0.64146 0.30732 0.0
O636 O 0.31554 0.62308 0.33345 0.0
C637 C 0.31393 0.68188 0.36876 0.0
Fe638 Fe 0.63725 0.3275 0.36825 0.0
Fe639 Fe 0.63409 0.36563 0.32646 0.0
O640 O 0.64878 0.35434 0.35347 0.0
Fe641 Fe 0.67511 0.36975 0.36534 0.0
O642 O 0.69402 0.34234 0.36196 0.0
O643 O 0.66768 0.31626 0.37855 0.0
O644 O 0.64181 0.30909 0.34063 0.0
C645 C 0.63259 0.31392 0.3198 0.0
C646 C 0.64844 0.35583 0.40855 0.0
O647 O 0.62385 0.33517 0.31535 0.0
C648 C 0.64738 0.40954 0.35191 0.0
O649 O 0.60471 0.33398 0.36052 0.0
O650 O 0.60541 0.37069 0.34297 0.0
O651 O 0.66816 0.36276 0.39791 0.0
O652 O 0.6321 0.34397 0.3969 0.0
C653 C 0.68262 0.37028 0.31352 0.0
O654 O 0.64178 0.39824 0.3322 0.0
O655 O 0.65796 0.39836 0.36941 0.0
C656 C 0.59388 0.35388 0.35434 0.0
O657 O 0.66183 0.36103 0.30847 0.0
O658 O 0.68693 0.37924 0.33478 0.0
C659 C 0.68918 0.32132 0.37075 0.0
Fe660 Fe 0.36897 0.36529 0.67581 0.0
Fe661 Fe 0.32801 0.36822 0.63665 0.0
O662 O 0.35426 0.35323 0.64914 0.0
Fe663 Fe 0.36565 0.32583 0.63526 0.0
O664 O 0.35996 0.30844 0.66333 0.0
O665 O 0.37847 0.33487 0.68803 0.0
O666 O 0.34096 0.36199 0.69397 0.0
C667 C 0.3201 0.37071 0.68817 0.0
C668 C 0.40925 0.35161 0.64902 0.0
O669 O 0.31605 0.37878 0.66657 0.0
C670 C 0.35536 0.35341 0.59427 0.0
O671 O 0.36204 0.39779 0.66863 0.0
O672 O 0.345 0.39673 0.63178 0.0
O673 O 0.39815 0.33165 0.64374 0.0
O674 O 0.39789 0.36924 0.6592 0.0
C675 C 0.3139 0.31979 0.63222 0.0
O676 O 0.33536 0.36013 0.60453 0.0
O677 O 0.37162 0.34167 0.60626 0.0
C678 C 0.3561 0.40844 0.64862 0.0
O679 O 0.30907 0.34088 0.64084 0.0
O680 O 0.33538 0.31481 0.62438 0.0
C681 C 0.36905 0.31379 0.6841 0.0
Fe682 Fe 0.63415 0.63777 0.67508 0.0
Fe683 Fe 0.676 0.6363 0.63664 0.0
O684 O 0.64885 0.65023 0.64857 0.0
Fe685 Fe 0.63659 0.677 0.63425 0.0
O686 O 0.64097 0.69483 0.66226 0.0
O687 O 0.62346 0.66784 0.68706 0.0
O688 O 0.6617 0.64206 0.69366 0.0
C689 C 0.68285 0.63372 0.68849 0.0
C690 C 0.59373 0.64966 0.64745 0.0
O691 O 0.68781 0.62618 0.66688 0.0
C692 C 0.64887 0.64968 0.59363 0.0
O693 O 0.64223 0.60551 0.66798 0.0
O694 O 0.66023 0.60721 0.63156 0.0
O695 O 0.60422 0.66987 0.6419 0.0
O696 O 0.60558 0.63275 0.65829 0.0
C697 C 0.68799 0.6853 0.63242 0.0
O698 O 0.66899 0.64393 0.60424 0.0
O699 O 0.63192 0.66073 0.6053 0.0
C700 C 0.64894 0.59518 0.64803 0.0
O701 O 0.69374 0.66444 0.64106 0.0
O702 O 0.66652 0.6892 0.62402 0.0
C703 C 0.63212 0.68922 0.68305 0.0
H704 H 0.11454 0.31747 0.23025 0.0
H705 H 0.14666 0.1772 0.26498 0.0
H706 H 0.1475 0.26552 0.17934 0.0
H707 H 0.11427 0.22911 0.31631 0.0
H708 H 0.14566 0.20893 0.23298 0.0
H709 H 0.11291 0.285 0.26156 0.0
C710 C 0.12135 0.29922 0.22559 0.0
C711 C 0.13117 0.29425 0.20208 0.0
C712 C 0.13867 0.21337 0.25121 0.0
C713 C 0.12942 0.25696 0.23795 0.0
C714 C 0.1392 0.19523 0.26952 0.0
C715 C 0.13051 0.20046 0.29342 0.0
C716 C 0.12944 0.237 0.25677 0.0
C717 C 0.12114 0.22421 0.29816 0.0
C718 C 0.12042 0.28068 0.24351 0.0
C719 C 0.13975 0.27023 0.19718 0.0
N720 N 0.12091 0.24161 0.28002 0.0
N721 N 0.13871 0.25252 0.21496 0.0
H722 H 0.6977 0.09392 0.21576 0.0
H723 H 0.78061 0.16896 0.307 0.0
H724 H 0.72182 0.16711 0.19525 0.0
H725 H 0.80498 0.0961 0.28557 0.0
H726 H 0.75004 0.16808 0.27335 0.0
H727 H 0.7289 0.09356 0.24898 0.0
C728 C 0.70956 0.10986 0.2183 0.0
C729 C 0.70743 0.13052 0.20279 0.0
C730 C 0.76206 0.15231 0.27619 0.0
C731 C 0.74219 0.13048 0.24081 0.0
C732 C 0.77931 0.15272 0.29534 0.0
C733 C 0.79524 0.13258 0.2989 0.0
C734 C 0.76027 0.13131 0.26111 0.0
C735 C 0.79304 0.11201 0.28325 0.0
C736 C 0.72728 0.1096 0.23709 0.0
C737 C 0.72314 0.15076 0.20674 0.0
N738 N 0.77561 0.11175 0.26511 0.0
N739 N 0.73968 0.1504 0.22564 0.0
H740 H 0.87834 0.76925 0.32384 0.0
H741 H 0.87823 0.73317 0.18066 0.0
H742 H 0.86661 0.82246 0.26551 0.0
H743 H 0.86557 0.67993 0.23876 0.0
H744 H 0.87941 0.76604 0.21163 0.0
H745 H 0.8791 0.73624 0.29294 0.0
C746 C 0.87611 0.77404 0.30452 0.0
C747 C 0.87246 0.79871 0.29726 0.0
C748 C 0.87641 0.74716 0.2176 0.0
C749 C 0.87334 0.76096 0.26183 0.0
C750 C 0.87586 0.72835 0.19995 0.0
C751 C 0.87184 0.70371 0.20711 0.0
C752 C 0.87321 0.74133 0.24267 0.0
C753 C 0.86869 0.69864 0.23238 0.0
C754 C 0.87642 0.75515 0.28693 0.0
C755 C 0.86946 0.80373 0.27197 0.0
N756 N 0.86953 0.71728 0.24926 0.0
N757 N 0.87005 0.78504 0.25516 0.0
H758 H 0.1841 0.88737 0.27203 0.0
H759 H 0.32429 0.85587 0.23636 0.0
H760 H 0.2369 0.8547 0.32226 0.0
H761 H 0.27163 0.88609 0.18446 0.0
H762 H 0.29271 0.857 0.26839 0.0
H763 H 0.21609 0.88866 0.2401 0.0
C764 C 0.20242 0.88057 0.27641 0.0
C765 C 0.2078 0.87093 0.29991 0.0
C766 C 0.28804 0.86347 0.25003 0.0
C767 C 0.24447 0.87231 0.2634 0.0
C768 C 0.30611 0.86286 0.23168 0.0
C769 C 0.30065 0.87092 0.20762 0.0
C770 C 0.26424 0.87215 0.24438 0.0
C771 C 0.2767 0.87971 0.20274 0.0
C772 C 0.22067 0.88129 0.25814 0.0
C773 C 0.23187 0.86231 0.30445 0.0
N774 N 0.25935 0.88005 0.22095 0.0
N775 N 0.24926 0.86319 0.28637 0.0
H776 H 0.11428 0.81923 0.73066 0.0
H777 H 0.14784 0.67925 0.76548 0.0
H778 H 0.14608 0.76663 0.67966 0.0
H779 H 0.11532 0.73063 0.81725 0.0
H780 H 0.14611 0.71098 0.73359 0.0
H781 H 0.11326 0.78697 0.76238 0.0
C782 C 0.12092 0.8009 0.72607 0.0
C783 C 0.13026 0.79566 0.70242 0.0
C784 C 0.13927 0.71533 0.75189 0.0
C785 C 0.12924 0.75871 0.73867 0.0
C786 C 0.14023 0.69718 0.77015 0.0
C787 C 0.1317 0.70224 0.79413 0.0
C788 C 0.12976 0.73883 0.75757 0.0
C789 C 0.12209 0.72588 0.79903 0.0
C790 C 0.12036 0.7825 0.74421 0.0
C791 C 0.13869 0.77157 0.69759 0.0
N792 N 0.12144 0.74332 0.78092 0.0
N793 N 0.13802 0.75406 0.71555 0.0
H794 H 0.18424 0.11381 0.72925 0.0
H795 H 0.32424 0.14667 0.76467 0.0
H796 H 0.23615 0.14733 0.67868 0.0
H797 H 0.2723 0.11387 0.81567 0.0
H798 H 0.29262 0.14557 0.73252 0.0
H799 H 0.21665 0.11223 0.76067 0.0
C800 C 0.20247 0.12073 0.72468 0.0
C801 C 0.20744 0.13071 0.70124 0.0
C802 C 0.28815 0.13852 0.75071 0.0
C803 C 0.24465 0.12903 0.73723 0.0
C804 C 0.30623 0.1391 0.7691 0.0
C805 C 0.30096 0.13032 0.79296 0.0
C806 C 0.26455 0.12914 0.75614 0.0
C807 C 0.27723 0.12082 0.79757 0.0
C808 C 0.22097 0.11984 0.74267 0.0
C809 C 0.23143 0.13945 0.69646 0.0
N810 N 0.25991 0.12054 0.77936 0.0
N811 N 0.24909 0.13846 0.71431 0.0
H812 H 0.8571 0.26491 0.82382 0.0
H813 H 0.88706 0.23036 0.68309 0.0
H814 H 0.88767 0.31698 0.77156 0.0
H815 H 0.85533 0.17955 0.73588 0.0
H816 H 0.88897 0.26193 0.71539 0.0
H817 H 0.85794 0.2331 0.79201 0.0
C818 C 0.86412 0.26967 0.80567 0.0
C819 C 0.87236 0.29372 0.8004 0.0
C820 C 0.88167 0.24385 0.7199 0.0
C821 C 0.87323 0.25721 0.76371 0.0
C822 C 0.88059 0.22578 0.70148 0.0
C823 C 0.87102 0.20221 0.70675 0.0
C824 C 0.87311 0.23834 0.74378 0.0
C825 C 0.86287 0.19741 0.73092 0.0
C826 C 0.86456 0.25144 0.78748 0.0
C827 C 0.88117 0.29871 0.77649 0.0
N828 N 0.86407 0.21531 0.74848 0.0
N829 N 0.88132 0.28061 0.75901 0.0
H830 H 0.78772 0.9077 0.69848 0.0
H831 H 0.69559 0.83346 0.78145 0.0
H832 H 0.80681 0.83382 0.72165 0.0
H833 H 0.71717 0.90658 0.80485 0.0
H834 H 0.72943 0.83373 0.75108 0.0
H835 H 0.75465 0.90841 0.7298 0.0
C836 C 0.78489 0.89167 0.71015 0.0
C837 C 0.79995 0.8707 0.70768 0.0
C838 C 0.72661 0.8497 0.76286 0.0
C839 C 0.76208 0.87118 0.74266 0.0
C840 C 0.70733 0.84963 0.77999 0.0
C841 C 0.70372 0.87004 0.79556 0.0
C842 C 0.74178 0.87061 0.76081 0.0
C843 C 0.7195 0.89049 0.79317 0.0
C844 C 0.76618 0.89214 0.72796 0.0
C845 C 0.79565 0.85038 0.7232 0.0
N846 N 0.73775 0.89041 0.77585 0.0
N847 N 0.77683 0.85097 0.73984 0.0
H848 H 0.32312 0.12375 0.23311 0.0
H849 H 0.18009 0.12304 0.2697 0.0
H850 H 0.26465 0.13617 0.18021 0.0
H851 H 0.23834 0.13612 0.3227 0.0
H852 H 0.21096 0.12216 0.2367 0.0
H853 H 0.29231 0.12262 0.26618 0.0
C854 C 0.30379 0.12606 0.22841 0.0
C855 C 0.29645 0.13001 0.20382 0.0
C856 C 0.21697 0.12517 0.25556 0.0
C857 C 0.26113 0.1287 0.24162 0.0
C858 C 0.1994 0.12554 0.27444 0.0
C859 C 0.20665 0.1296 0.29904 0.0
C860 C 0.24204 0.12859 0.2613 0.0
C861 C 0.23191 0.13296 0.30401 0.0
C862 C 0.28624 0.12555 0.24733 0.0
C863 C 0.27115 0.13311 0.19889 0.0
N864 N 0.24872 0.13228 0.28531 0.0
N865 N 0.25438 0.13229 0.21761 0.0
H866 H 0.86572 0.17881 0.26352 0.0
H867 H 0.86671 0.32385 0.23763 0.0
H868 H 0.87868 0.23295 0.32074 0.0
H869 H 0.87843 0.26957 0.18027 0.0
H870 H 0.86786 0.29077 0.26844 0.0
H871 H 0.86711 0.21186 0.23267 0.0
C872 C 0.86894 0.19762 0.26959 0.0
C873 C 0.87217 0.20311 0.29475 0.0
C874 C 0.87033 0.28614 0.24912 0.0
C875 C 0.87353 0.241 0.25958 0.0
C876 C 0.86962 0.305 0.23151 0.0
C877 C 0.87255 0.29948 0.20633 0.0
C878 C 0.87362 0.26155 0.24146 0.0
C879 C 0.87624 0.2747 0.19949 0.0
C880 C 0.8698 0.21646 0.25197 0.0
C881 C 0.87627 0.22784 0.30154 0.0
N882 N 0.8765 0.25663 0.21694 0.0
N883 N 0.87666 0.24589 0.28407 0.0
H884 H 0.67912 0.87651 0.23397 0.0
H885 H 0.8224 0.87733 0.26968 0.0
H886 H 0.73744 0.86474 0.18074 0.0
H887 H 0.76449 0.86457 0.32312 0.0
H888 H 0.79133 0.87812 0.2369 0.0
H889 H 0.71009 0.8775 0.26693 0.0
C890 C 0.69845 0.87429 0.22918 0.0
C891 C 0.7057 0.87058 0.20453 0.0
C892 C 0.78543 0.87518 0.2558 0.0
C893 C 0.74119 0.87174 0.24217 0.0
C894 C 0.80314 0.87485 0.27456 0.0
C895 C 0.79604 0.87092 0.29922 0.0
C896 C 0.76039 0.87184 0.26173 0.0
C897 C 0.7708 0.86762 0.30438 0.0
C898 C 0.71608 0.87474 0.24802 0.0
C899 C 0.73099 0.86761 0.19947 0.0
N900 N 0.75387 0.86825 0.28579 0.0
N901 N 0.74783 0.86835 0.21811 0.0
H902 H 0.11346 0.77244 0.31872 0.0
H903 H 0.14589 0.73776 0.17847 0.0
H904 H 0.14507 0.82355 0.26614 0.0
H905 H 0.11485 0.68574 0.2305 0.0
H906 H 0.14421 0.76976 0.21015 0.0
H907 H 0.11227 0.7408 0.28643 0.0
C908 C 0.12001 0.77708 0.30038 0.0
C909 C 0.12937 0.80073 0.29517 0.0
C910 C 0.13768 0.75138 0.21464 0.0
C911 C 0.12815 0.76455 0.25816 0.0
C912 C 0.13861 0.73306 0.19653 0.0
C913 C 0.13048 0.70898 0.20179 0.0
C914 C 0.12861 0.74564 0.23829 0.0
C915 C 0.1213 0.70404 0.22558 0.0
C916 C 0.11936 0.75898 0.28196 0.0
C917 C 0.13768 0.80561 0.27106 0.0
N918 N 0.12066 0.7222 0.24296 0.0
N919 N 0.13692 0.78769 0.25351 0.0
H920 H 0.17881 0.85695 0.73739 0.0
H921 H 0.31898 0.88914 0.77257 0.0
H922 H 0.23107 0.88799 0.68561 0.0
H923 H 0.26628 0.85735 0.82344 0.0
H924 H 0.28677 0.89047 0.74088 0.0
H925 H 0.21037 0.85854 0.7695 0.0
C926 C 0.19689 0.86422 0.73276 0.0
C927 C 0.20226 0.87236 0.70871 0.0
C928 C 0.28225 0.8833 0.75901 0.0
C929 C 0.23862 0.87413 0.74551 0.0
C930 C 0.30062 0.88257 0.77715 0.0
C931 C 0.29536 0.87313 0.80075 0.0
C932 C 0.25843 0.8745 0.76449 0.0
C933 C 0.27123 0.86481 0.80555 0.0
C934 C 0.21494 0.86509 0.75114 0.0
C935 C 0.22607 0.88152 0.70388 0.0
N936 N 0.25372 0.86564 0.78758 0.0
N937 N 0.24339 0.88211 0.7221 0.0
H938 H 0.148 0.26581 0.82491 0.0
H939 H 0.11291 0.23052 0.68543 0.0
H940 H 0.11539 0.3173 0.77331 0.0
H941 H 0.14654 0.17975 0.73709 0.0
H942 H 0.11227 0.26214 0.7177 0.0
H943 H 0.14623 0.23371 0.7933 0.0
C944 C 0.14035 0.27037 0.80697 0.0
C945 C 0.1318 0.29435 0.80181 0.0
C946 C 0.1197 0.24405 0.722 0.0
C947 C 0.12982 0.25756 0.7654 0.0
C948 C 0.12005 0.22595 0.70358 0.0
C949 C 0.12977 0.20238 0.70852 0.0
C950 C 0.12918 0.2386 0.74555 0.0
C951 C 0.13883 0.19761 0.73239 0.0
C952 C 0.13938 0.252 0.7889 0.0
C953 C 0.12218 0.29911 0.77816 0.0
N954 N 0.13835 0.21556 0.74996 0.0
N955 N 0.12149 0.2809 0.76083 0.0
H956 H 0.76406 0.14779 0.67791 0.0
H957 H 0.72949 0.11479 0.81805 0.0
H958 H 0.81576 0.11503 0.72921 0.0
H959 H 0.67856 0.14735 0.76588 0.0
H960 H 0.76105 0.11356 0.78568 0.0
H961 H 0.73228 0.14657 0.7098 0.0
C962 C 0.76874 0.14022 0.69585 0.0
C963 C 0.79267 0.13147 0.70083 0.0
C964 C 0.74294 0.12088 0.78132 0.0
C965 C 0.75623 0.13014 0.73761 0.0
C966 C 0.72488 0.12158 0.79979 0.0
C967 C 0.70128 0.13118 0.79472 0.0
C968 C 0.73739 0.12988 0.75759 0.0
C969 C 0.69644 0.13976 0.77069 0.0
C970 C 0.75054 0.13956 0.7141 0.0
C971 C 0.79757 0.12195 0.7245 0.0
N972 N 0.71433 0.13895 0.75309 0.0
N973 N 0.77953 0.12159 0.74202 0.0
H974 H 0.85415 0.67798 0.76543 0.0
H975 H 0.88982 0.81714 0.72976 0.0
H976 H 0.88877 0.729 0.81617 0.0
H977 H 0.85516 0.76586 0.67931 0.0
H978 H 0.89078 0.7848 0.76123 0.0
H979 H 0.85554 0.70961 0.73336 0.0
C980 C 0.86215 0.6958 0.76983 0.0
C981 C 0.87139 0.70079 0.79359 0.0
C982 C 0.88305 0.78059 0.74325 0.0
C983 C 0.87294 0.73723 0.75682 0.0
C984 C 0.88252 0.79905 0.72523 0.0
C985 C 0.87242 0.79424 0.70179 0.0
C986 C 0.87337 0.7571 0.73788 0.0
C987 C 0.86318 0.77043 0.69707 0.0
C988 C 0.86292 0.71389 0.75147 0.0
C989 C 0.88147 0.72428 0.79814 0.0
N990 N 0.86383 0.7528 0.71496 0.0
N991 N 0.88192 0.74164 0.77995 0.0
H992 H 0.32436 0.23678 0.1467 0.0
H993 H 0.18454 0.27292 0.11382 0.0
H994 H 0.27188 0.18532 0.11547 0.0
H995 H 0.23731 0.3235 0.14595 0.0
H996 H 0.21653 0.241 0.11279 0.0
H997 H 0.29297 0.26907 0.14511 0.0
C998 C 0.30626 0.23225 0.1394 0.0
C999 C 0.3008 0.20822 0.13119 0.0
C1000 C 0.22113 0.25911 0.11997 0.0
C1001 C 0.26462 0.24528 0.12941 0.0
C1002 C 0.20287 0.27738 0.12054 0.0
C1003 C 0.2082 0.30099 0.12997 0.0
C1004 C 0.24492 0.26443 0.12894 0.0
C1005 C 0.2323 0.30562 0.13848 0.0
C1006 C 0.28831 0.25075 0.13852 0.0
C1007 C 0.27696 0.20355 0.12199 0.0
N1008 N 0.24971 0.28751 0.1378 0.0
N1009 N 0.25974 0.22189 0.1214 0.0
H1010 H 0.21575 0.69834 0.90859 0.0
H1011 H 0.30708 0.78118 0.83348 0.0
H1012 H 0.19552 0.72213 0.83524 0.0
H1013 H 0.28625 0.8052 0.90659 0.0
H1014 H 0.27315 0.75093 0.83429 0.0
H1015 H 0.24882 0.72973 0.90904 0.0
C1016 C 0.2183 0.71018 0.89264 0.0
C1017 C 0.20291 0.70787 0.8719 0.0
C1018 C 0.27615 0.76282 0.85013 0.0
C1019 C 0.24079 0.74288 0.87205 0.0
C1020 C 0.29547 0.7799 0.84976 0.0
C1021 C 0.29933 0.79563 0.87 0.0
C1022 C 0.26117 0.76096 0.8712 0.0
C1023 C 0.28372 0.79343 0.89061 0.0
C1024 C 0.23701 0.72802 0.89295 0.0
C1025 C 0.2069 0.72356 0.85164 0.0
N1026 N 0.26543 0.77614 0.89083 0.0
N1027 N 0.22573 0.7402 0.85206 0.0
H1028 H 0.2803 0.19543 0.83287 0.0
H1029 H 0.19742 0.28664 0.90862 0.0
H1030 H 0.30321 0.2151 0.90666 0.0
H1031 H 0.22201 0.30744 0.83569 0.0
H1032 H 0.22813 0.25295 0.90875 0.0
H1033 H 0.24998 0.22935 0.8338 0.0
C1034 C 0.27871 0.20675 0.84933 0.0
C1035 C 0.29415 0.20262 0.86972 0.0
C1036 C 0.22672 0.265 0.89281 0.0
C1037 C 0.2595 0.24074 0.87104 0.0
C1038 C 0.20928 0.28406 0.89269 0.0
C1039 C 0.20742 0.2998 0.87217 0.0
C1040 C 0.24162 0.26124 0.87194 0.0
C1041 C 0.22312 0.29578 0.85193 0.0
C1042 C 0.26162 0.22607 0.84977 0.0
C1043 C 0.29163 0.21786 0.89056 0.0
N1044 N 0.23938 0.27663 0.85216 0.0
N1045 N 0.27438 0.23616 0.89082 0.0
H1046 H 0.68008 0.23283 0.87882 0.0
H1047 H 0.82338 0.26823 0.87816 0.0
H1048 H 0.73779 0.17916 0.86601 0.0
H1049 H 0.76516 0.32153 0.86614 0.0
H1050 H 0.79237 0.2353 0.87918 0.0
H1051 H 0.71124 0.26549 0.87972 0.0
C1052 C 0.69933 0.22787 0.87638 0.0
C1053 C 0.70633 0.20318 0.87239 0.0
C1054 C 0.78641 0.25421 0.87636 0.0
C1055 C 0.7421 0.24056 0.8734 0.0
C1056 C 0.80406 0.27304 0.87592 0.0
C1057 C 0.79684 0.2977 0.87212 0.0
C1058 C 0.76132 0.26009 0.8733 0.0
C1059 C 0.77157 0.3028 0.86909 0.0
C1060 C 0.71708 0.24656 0.87676 0.0
C1061 C 0.73155 0.19793 0.86912 0.0
N1062 N 0.75471 0.28416 0.86984 0.0
N1063 N 0.74855 0.21646 0.86978 0.0
H1064 H 0.68513 0.77235 0.88865 0.0
H1065 H 0.82527 0.73668 0.85668 0.0
H1066 H 0.73785 0.82301 0.85658 0.0
H1067 H 0.77309 0.68524 0.8884 0.0
H1068 H 0.79373 0.76882 0.85796 0.0
H1069 H 0.71728 0.7406 0.8901 0.0
C1070 C 0.70348 0.77687 0.88202 0.0
C1071 C 0.70876 0.80046 0.8725 0.0
C1072 C 0.78916 0.75054 0.86474 0.0
C1073 C 0.74566 0.76408 0.87403 0.0
C1074 C 0.80721 0.73213 0.86404 0.0
C1075 C 0.80188 0.70814 0.87247 0.0
C1076 C 0.76549 0.74503 0.87386 0.0
C1077 C 0.77808 0.70344 0.88175 0.0
C1078 C 0.72183 0.75869 0.88284 0.0
C1079 C 0.73288 0.80515 0.86411 0.0
N1080 N 0.76075 0.7217 0.88213 0.0
N1081 N 0.75038 0.78713 0.86504 0.0
H1082 H 0.82384 0.73828 0.1375 0.0
H1083 H 0.67877 0.76396 0.13666 0.0
H1084 H 0.7698 0.68097 0.12443 0.0
H1085 H 0.73311 0.8213 0.12506 0.0
H1086 H 0.71188 0.73313 0.13564 0.0
H1087 H 0.79071 0.76904 0.13641 0.0
C1088 C 0.80503 0.73218 0.13431 0.0
C1089 C 0.79958 0.70703 0.13095 0.0
C1090 C 0.71649 0.75246 0.13318 0.0
C1091 C 0.76162 0.74207 0.12995 0.0
C1092 C 0.69763 0.77006 0.13381 0.0
C1093 C 0.70318 0.79523 0.13085 0.0
C1094 C 0.74108 0.76013 0.12992 0.0
C1095 C 0.72797 0.80208 0.12726 0.0
C1096 C 0.78615 0.74974 0.13364 0.0
C1097 C 0.77486 0.70017 0.12693 0.0
N1098 N 0.74602 0.78464 0.12705 0.0
N1099 N 0.75677 0.71758 0.1267 0.0
H1100 H 0.17969 0.73324 0.12314 0.0
H1101 H 0.32327 0.768 0.12413 0.0
H1102 H 0.23749 0.67932 0.13448 0.0
H1103 H 0.26528 0.82149 0.13645 0.0
H1104 H 0.29208 0.73532 0.12234 0.0
H1105 H 0.21095 0.76587 0.12233 0.0
C1106 C 0.19896 0.72822 0.12525 0.0
C1107 C 0.20598 0.70348 0.12885 0.0
C1108 C 0.28621 0.75422 0.12539 0.0
C1109 C 0.24182 0.74078 0.12795 0.0
C1110 C 0.30398 0.77291 0.12631 0.0
C1111 C 0.29688 0.79754 0.13044 0.0
C1112 C 0.26112 0.76022 0.12834 0.0
C1113 C 0.2716 0.80276 0.13329 0.0
C1114 C 0.21677 0.74689 0.12492 0.0
C1115 C 0.23123 0.69814 0.1317 0.0
N1116 N 0.25463 0.78426 0.13212 0.0
N1117 N 0.24825 0.71663 0.13113 0.0
H1118 H 0.67924 0.23806 0.13703 0.0
H1119 H 0.8244 0.26413 0.13598 0.0
H1120 H 0.73343 0.18083 0.12427 0.0
H1121 H 0.77 0.32135 0.12407 0.0
H1122 H 0.79132 0.23325 0.13513 0.0
H1123 H 0.71232 0.26892 0.13576 0.0
C1124 C 0.69806 0.23198 0.13388 0.0
C1125 C 0.70354 0.20681 0.13065 0.0
C1126 C 0.78667 0.25256 0.13256 0.0
C1127 C 0.74149 0.24201 0.12945 0.0
C1128 C 0.80553 0.2702 0.13309 0.0
C1129 C 0.79999 0.29537 0.12999 0.0
C1130 C 0.76205 0.26016 0.12929 0.0
C1131 C 0.77517 0.30214 0.12637 0.0
C1132 C 0.71692 0.24961 0.1331 0.0
C1133 C 0.72831 0.20003 0.12668 0.0
N1134 N 0.75711 0.28467 0.12628 0.0
N1135 N 0.74637 0.2175 0.12634 0.0
H1136 H 0.72993 0.61517 0.68485 0.0
H1137 H 0.76521 0.64659 0.82518 0.0
H1138 H 0.6792 0.64802 0.73704 0.0
H1139 H 0.81612 0.61377 0.77316 0.0
H1140 H 0.73311 0.64596 0.79349 0.0
H1141 H 0.76132 0.6133 0.71726 0.0
C1142 C 0.72533 0.62191 0.70314 0.0
C1143 C 0.70183 0.63176 0.70819 0.0
C1144 C 0.75127 0.63879 0.78902 0.0
C1145 C 0.73781 0.62972 0.74542 0.0
C1146 C 0.76964 0.63911 0.80714 0.0
C1147 C 0.79346 0.63019 0.80188 0.0
C1148 C 0.75669 0.62955 0.76537 0.0
C1149 C 0.79805 0.62081 0.7781 0.0
C1150 C 0.7433 0.62084 0.72165 0.0
C1151 C 0.69701 0.64023 0.73226 0.0
N1152 N 0.77987 0.62079 0.76073 0.0
N1153 N 0.71485 0.63906 0.74993 0.0
H1154 H 0.23414 0.37803 0.82299 0.0
H1155 H 0.27079 0.37814 0.68017 0.0
H1156 H 0.18118 0.36496 0.7647 0.0
H1157 H 0.32382 0.3659 0.73858 0.0
H1158 H 0.23769 0.37871 0.71092 0.0
H1159 H 0.26716 0.37895 0.79222 0.0
C1160 C 0.22941 0.37551 0.8037 0.0
C1161 C 0.20481 0.37148 0.7964 0.0
C1162 C 0.25658 0.37595 0.71699 0.0
C1163 C 0.2426 0.37255 0.7611 0.0
C1164 C 0.27551 0.37577 0.69949 0.0
C1165 C 0.30015 0.37205 0.70682 0.0
C1166 C 0.2623 0.37269 0.74207 0.0
C1167 C 0.3051 0.36882 0.73209 0.0
C1168 C 0.24831 0.37591 0.78617 0.0
C1169 C 0.19986 0.36811 0.77115 0.0
N1170 N 0.28635 0.36932 0.74882 0.0
N1171 N 0.21859 0.36882 0.75439 0.0
H1172 H 0.28745 0.59463 0.30261 0.0
H1173 H 0.19674 0.66989 0.21961 0.0
H1174 H 0.30835 0.6678 0.27879 0.0
H1175 H 0.2173 0.59661 0.19578 0.0
H1176 H 0.23084 0.66914 0.24967 0.0
H1177 H 0.25461 0.59432 0.27103 0.0
C1178 C 0.28509 0.61057 0.29072 0.0
C1179 C 0.30058 0.63123 0.2931 0.0
C1180 C 0.22776 0.65326 0.23784 0.0
C1181 C 0.26298 0.63123 0.25784 0.0
C1182 C 0.20834 0.6536 0.22088 0.0
C1183 C 0.20435 0.63328 0.20529 0.0
C1184 C 0.24269 0.63216 0.23972 0.0
C1185 C 0.21994 0.61266 0.20746 0.0
C1186 C 0.26652 0.61033 0.27277 0.0
C1187 C 0.29686 0.65147 0.27732 0.0
N1188 N 0.23832 0.61246 0.22465 0.0
N1189 N 0.27815 0.65113 0.26055 0.0
H1190 H 0.67877 0.3549 0.26551 0.0
H1191 H 0.81861 0.38826 0.23034 0.0
H1192 H 0.72994 0.38857 0.31676 0.0
H1193 H 0.76637 0.35506 0.17987 0.0
H1194 H 0.78635 0.38962 0.26199 0.0
H1195 H 0.71058 0.35596 0.23371 0.0
C1196 C 0.69667 0.36263 0.27009 0.0
C1197 C 0.70164 0.37169 0.2939 0.0
C1198 C 0.78195 0.38212 0.24396 0.0
C1199 C 0.73833 0.37284 0.25742 0.0
C1200 C 0.80036 0.38135 0.22586 0.0
C1201 C 0.79522 0.37155 0.20237 0.0
C1202 C 0.75824 0.37299 0.23856 0.0
C1203 C 0.77122 0.36281 0.19768 0.0
C1204 C 0.71487 0.3632 0.25187 0.0
C1205 C 0.72525 0.38142 0.29866 0.0
N1206 N 0.75369 0.36371 0.21561 0.0
N1207 N 0.74274 0.38168 0.2806 0.0
H1208 H 0.23818 0.64826 0.82442 0.0
H1209 H 0.27314 0.61328 0.68486 0.0
H1210 H 0.18711 0.61434 0.77326 0.0
H1211 H 0.32392 0.64753 0.73609 0.0
H1212 H 0.24183 0.6122 0.71738 0.0
H1213 H 0.2702 0.64684 0.79268 0.0
C1214 C 0.2337 0.6404 0.80656 0.0
C1215 C 0.20987 0.63138 0.80155 0.0
C1216 C 0.25985 0.61987 0.72153 0.0
C1217 C 0.24653 0.62981 0.76501 0.0
C1218 C 0.27778 0.62047 0.70297 0.0
C1219 C 0.30126 0.6305 0.70771 0.0
C1220 C 0.26537 0.62941 0.74504 0.0
C1221 C 0.30612 0.63959 0.73155 0.0
C1222 C 0.25202 0.63962 0.78841 0.0
C1223 C 0.20519 0.62149 0.778 0.0
N1224 N 0.28833 0.63887 0.74928 0.0
N1225 N 0.22333 0.62101 0.76061 0.0
H1226 H 0.77235 0.38721 0.81858 0.0
H1227 H 0.73775 0.35797 0.67759 0.0
H1228 H 0.82344 0.35609 0.76569 0.0
H1229 H 0.68612 0.389 0.73002 0.0
H1230 H 0.7697 0.35856 0.70938 0.0
H1231 H 0.74089 0.38932 0.78619 0.0
C1232 C 0.77701 0.38091 0.80015 0.0
C1233 C 0.80063 0.37146 0.79489 0.0
C1234 C 0.75142 0.36534 0.71393 0.0
C1235 C 0.76461 0.37377 0.75771 0.0
C1236 C 0.73313 0.36505 0.69575 0.0
C1237 C 0.70916 0.37348 0.70109 0.0
C1238 C 0.74577 0.37405 0.73773 0.0
C1239 C 0.70433 0.38236 0.72502 0.0
C1240 C 0.75901 0.38211 0.78167 0.0
C1241 C 0.80553 0.36353 0.77065 0.0
N1242 N 0.72245 0.38235 0.74246 0.0
N1243 N 0.78769 0.36482 0.75302 0.0
H1244 H 0.26979 0.37823 0.32368 0.0
H1245 H 0.23333 0.37848 0.18067 0.0
H1246 H 0.32274 0.36589 0.26525 0.0
H1247 H 0.18028 0.36514 0.23879 0.0
H1248 H 0.26626 0.37958 0.21158 0.0
H1249 H 0.23669 0.37916 0.29286 0.0
C1250 C 0.27449 0.37592 0.30435 0.0
C1251 C 0.2991 0.37203 0.29702 0.0
C1252 C 0.24741 0.37645 0.21756 0.0
C1253 C 0.2613 0.3731 0.26171 0.0
C1254 C 0.22857 0.37595 0.19995 0.0
C1255 C 0.20398 0.37175 0.20716 0.0
C1256 C 0.24164 0.37304 0.24262 0.0
C1257 C 0.19897 0.36839 0.2324 0.0
C1258 C 0.25556 0.3763 0.28681 0.0
C1259 C 0.30405 0.36891 0.27174 0.0
N1260 N 0.21763 0.3692 0.24924 0.0
N1261 N 0.28532 0.3696 0.25498 0.0
H1262 H 0.71978 0.67014 0.30589 0.0
H1263 H 0.80603 0.59576 0.21747 0.0
H1264 H 0.69764 0.59616 0.28601 0.0
H1265 H 0.77982 0.66754 0.19463 0.0
H1266 H 0.77419 0.59516 0.2501 0.0
H1267 H 0.75039 0.66949 0.27229 0.0
C1268 C 0.72153 0.65373 0.29453 0.0
C1269 C 0.70623 0.63319 0.29856 0.0
C1270 C 0.77549 0.61094 0.23783 0.0
C1271 C 0.74136 0.63216 0.26081 0.0
C1272 C 0.7936 0.61135 0.21938 0.0
C1273 C 0.79537 0.63169 0.20338 0.0
C1274 C 0.75978 0.63137 0.24074 0.0
C1275 C 0.77886 0.65145 0.20653 0.0
C1276 C 0.73883 0.65343 0.2754 0.0
C1277 C 0.70906 0.61239 0.28331 0.0
N1278 N 0.76195 0.65099 0.22511 0.0
N1279 N 0.72657 0.61225 0.26522 0.0
H1280 H 0.30399 0.7154 0.59399 0.0
H1281 H 0.22074 0.8063 0.66923 0.0
H1282 H 0.27989 0.69457 0.66706 0.0
H1283 H 0.19758 0.78623 0.59563 0.0
H1284 H 0.2508 0.77216 0.66854 0.0
H1285 H 0.27261 0.74845 0.59366 0.0
C1286 C 0.29208 0.71781 0.60991 0.0
C1287 C 0.29432 0.70225 0.63053 0.0
C1288 C 0.23914 0.77536 0.65257 0.0
C1289 C 0.25928 0.74015 0.63052 0.0
C1290 C 0.22218 0.79481 0.65287 0.0
C1291 C 0.20676 0.79896 0.63245 0.0
C1292 C 0.2412 0.76055 0.6314 0.0
C1293 C 0.20913 0.78349 0.61175 0.0
C1294 C 0.27424 0.73652 0.60966 0.0
C1295 C 0.27852 0.70608 0.65074 0.0
N1296 N 0.2263 0.76509 0.6116 0.0
N1297 N 0.26187 0.72492 0.6504 0.0
H1298 H 0.26539 0.32471 0.35714 0.0
H1299 H 0.23019 0.1843 0.38802 0.0
H1300 H 0.31663 0.27239 0.38904 0.0
H1301 H 0.17977 0.23656 0.35478 0.0
H1302 H 0.26162 0.21666 0.39005 0.0
H1303 H 0.23334 0.29303 0.35778 0.0
C1304 C 0.2699 0.3066 0.36443 0.0
C1305 C 0.29379 0.30124 0.37308 0.0
C1306 C 0.24365 0.22106 0.38238 0.0
C1307 C 0.25709 0.26476 0.37371 0.0
C1308 C 0.22567 0.20259 0.38123 0.0
C1309 C 0.20225 0.20769 0.37122 0.0
C1310 C 0.23824 0.24483 0.37345 0.0
C1311 C 0.19752 0.23175 0.36266 0.0
C1312 C 0.25156 0.28849 0.36474 0.0
C1313 C 0.29849 0.27739 0.38221 0.0
N1314 N 0.21536 0.24939 0.36394 0.0
N1315 N 0.28032 0.26002 0.38223 0.0
H1316 H 0.17761 0.76472 0.35563 0.0
H1317 H 0.31768 0.7288 0.38772 0.0
H1318 H 0.22994 0.81565 0.38795 0.0
H1319 H 0.26556 0.67864 0.3539 0.0
H1320 H 0.28541 0.76037 0.38946 0.0
H1321 H 0.20918 0.7325 0.35644 0.0
C1322 C 0.19569 0.76913 0.36303 0.0
C1323 C 0.20108 0.79298 0.37176 0.0
C1324 C 0.28101 0.74242 0.38174 0.0
C1325 C 0.23744 0.75609 0.3726 0.0
C1326 C 0.29944 0.72436 0.38075 0.0
C1327 C 0.29436 0.70097 0.37067 0.0
C1328 C 0.25731 0.73713 0.37254 0.0
C1329 C 0.27036 0.69636 0.36187 0.0
C1330 C 0.21375 0.7507 0.36344 0.0
C1331 C 0.22491 0.79755 0.38104 0.0
N1332 N 0.25277 0.71427 0.36298 0.0
N1333 N 0.24221 0.7793 0.38117 0.0
H1334 H 0.67878 0.73878 0.36552 0.0
H1335 H 0.82396 0.76442 0.36679 0.0
H1336 H 0.73288 0.6815 0.37851 0.0
H1337 H 0.76967 0.82183 0.37842 0.0
H1338 H 0.79079 0.73365 0.36759 0.0
H1339 H 0.71192 0.76958 0.36672 0.0
C1340 C 0.6976 0.73269 0.36871 0.0
C1341 C 0.70306 0.70754 0.37203 0.0
C1342 C 0.7862 0.75298 0.37011 0.0
C1343 C 0.74102 0.74262 0.37316 0.0
C1344 C 0.8051 0.77055 0.36961 0.0
C1345 C 0.79959 0.79573 0.37265 0.0
C1346 C 0.76159 0.76068 0.3733 0.0
C1347 C 0.77479 0.80261 0.37617 0.0
C1348 C 0.71648 0.75028 0.36945 0.0
C1349 C 0.72779 0.7007 0.37604 0.0
N1350 N 0.7567 0.78519 0.37625 0.0
N1351 N 0.74587 0.71812 0.37634 0.0
H1352 H 0.73762 0.32583 0.35651 0.0
H1353 H 0.77255 0.18542 0.38839 0.0
H1354 H 0.68619 0.27382 0.38852 0.0
H1355 H 0.82347 0.23762 0.35587 0.0
H1356 H 0.74113 0.21786 0.39003 0.0
H1357 H 0.76969 0.29411 0.35765 0.0
C1358 C 0.73307 0.30778 0.36392 0.0
C1359 C 0.70911 0.30254 0.37245 0.0
C1360 C 0.7592 0.22224 0.38262 0.0
C1361 C 0.74585 0.26599 0.37367 0.0
C1362 C 0.77719 0.20372 0.3817 0.0
C1363 C 0.80075 0.20875 0.37199 0.0
C1364 C 0.76474 0.24601 0.37374 0.0
C1365 C 0.80561 0.23283 0.36354 0.0
C1366 C 0.75142 0.28965 0.36453 0.0
C1367 C 0.70438 0.27875 0.38177 0.0
N1368 N 0.78777 0.25051 0.36457 0.0
N1369 N 0.72255 0.26136 0.38207 0.0
H1370 H 0.82315 0.23891 0.63566 0.0
H1371 H 0.67825 0.26589 0.63444 0.0
H1372 H 0.76861 0.18221 0.62214 0.0
H1373 H 0.73284 0.32304 0.62329 0.0
H1374 H 0.71115 0.23488 0.63306 0.0
H1375 H 0.79033 0.27007 0.63428 0.0
C1376 C 0.8043 0.23301 0.63231 0.0
C1377 C 0.79864 0.2079 0.62893 0.0
C1378 C 0.7159 0.2542 0.63075 0.0
C1379 C 0.761 0.24344 0.6276 0.0
C1380 C 0.69713 0.27192 0.6316 0.0
C1381 C 0.70278 0.29711 0.6289 0.0
C1382 C 0.74055 0.26172 0.62758 0.0
C1383 C 0.72761 0.30383 0.62528 0.0
C1384 C 0.7856 0.25081 0.63147 0.0
C1385 C 0.77386 0.20136 0.62468 0.0
N1386 N 0.7456 0.28625 0.62491 0.0
N1387 N 0.75595 0.21898 0.62431 0.0
H1388 H 0.31704 0.27278 0.61341 0.0
H1389 H 0.17722 0.23791 0.64754 0.0
H1390 H 0.2656 0.3236 0.64729 0.0
H1391 H 0.22847 0.18669 0.61397 0.0
H1392 H 0.20901 0.26986 0.64629 0.0
H1393 H 0.28453 0.24145 0.61217 0.0
C1394 C 0.29889 0.27742 0.62048 0.0
C1395 C 0.29408 0.30093 0.63044 0.0
C1396 C 0.2133 0.25167 0.63911 0.0
C1397 C 0.25675 0.265 0.62917 0.0
C1398 C 0.19512 0.23337 0.63978 0.0
C1399 C 0.20012 0.20951 0.63081 0.0
C1400 C 0.23676 0.24614 0.62945 0.0
C1401 C 0.22373 0.2048 0.62106 0.0
C1402 C 0.28033 0.25948 0.61979 0.0
C1403 C 0.27018 0.30579 0.63938 0.0
N1404 N 0.24117 0.22292 0.62069 0.0
N1405 N 0.25246 0.28798 0.63858 0.0
H1406 H 0.82281 0.77122 0.62429 0.0
H1407 H 0.67994 0.73458 0.62481 0.0
H1408 H 0.76456 0.82436 0.63689 0.0
H1409 H 0.73839 0.68172 0.63762 0.0
H1410 H 0.71068 0.76769 0.62391 0.0
H1411 H 0.792 0.73821 0.62376 0.0
C1412 C 0.80351 0.77599 0.62675 0.0
C1413 C 0.79624 0.80064 0.63055 0.0
C1414 C 0.71676 0.74884 0.62689 0.0
C1415 C 0.7609 0.76286 0.62998 0.0
C1416 C 0.69926 0.72989 0.62727 0.0
C1417 C 0.70662 0.7053 0.63122 0.0
C1418 C 0.74186 0.74316 0.63017 0.0
C1419 C 0.73189 0.7004 0.63453 0.0
C1420 C 0.78596 0.7571 0.6266 0.0
C1421 C 0.77099 0.80564 0.6339 0.0
N1422 N 0.74862 0.71915 0.63382 0.0
N1423 N 0.7542 0.78692 0.63343 0.0
H1424 H 0.61348 0.1852 0.77233 0.0
H1425 H 0.64961 0.32415 0.73628 0.0
H1426 H 0.64728 0.23717 0.82265 0.0
H1427 H 0.61544 0.27319 0.68517 0.0
H1428 H 0.64796 0.29255 0.76826 0.0
H1429 H 0.61304 0.21721 0.74039 0.0
C1430 C 0.62069 0.20336 0.77673 0.0
C1431 C 0.63039 0.20848 0.80027 0.0
C1432 C 0.64075 0.28825 0.75008 0.0
C1433 C 0.63004 0.24517 0.76371 0.0
C1434 C 0.64167 0.30633 0.73175 0.0
C1435 C 0.63261 0.30137 0.70793 0.0
C1436 C 0.63075 0.26492 0.74466 0.0
C1437 C 0.62261 0.27786 0.70325 0.0
C1438 C 0.62047 0.22161 0.75845 0.0
C1439 C 0.63957 0.23234 0.80483 0.0
N1440 N 0.62198 0.26049 0.72144 0.0
N1441 N 0.6392 0.24974 0.78673 0.0
H1442 H 0.35534 0.82446 0.76477 0.0
H1443 H 0.38895 0.68497 0.72805 0.0
H1444 H 0.38799 0.77212 0.81548 0.0
H1445 H 0.35494 0.73714 0.67806 0.0
H1446 H 0.39017 0.71701 0.75985 0.0
H1447 H 0.35648 0.79309 0.73239 0.0
C1448 C 0.36287 0.80641 0.7691 0.0
C1449 C 0.37162 0.80096 0.79294 0.0
C1450 C 0.38253 0.72147 0.7419 0.0
C1451 C 0.37287 0.76484 0.75584 0.0
C1452 C 0.38185 0.70318 0.72369 0.0
C1453 C 0.37185 0.70834 0.70028 0.0
C1454 C 0.37312 0.74512 0.73673 0.0
C1455 C 0.36286 0.73229 0.69579 0.0
C1456 C 0.36348 0.78847 0.75057 0.0
C1457 C 0.38107 0.77718 0.7974 0.0
N1458 N 0.36367 0.74975 0.71384 0.0
N1459 N 0.3814 0.76 0.77905 0.0
H1460 H 0.62356 0.73327 0.32255 0.0
H1461 H 0.62333 0.76874 0.17913 0.0
H1462 H 0.63552 0.67972 0.26457 0.0
H1463 H 0.63482 0.82215 0.23733 0.0
H1464 H 0.62228 0.73586 0.21017 0.0
H1465 H 0.62217 0.76599 0.29144 0.0
C1466 C 0.62571 0.72834 0.30326 0.0
C1467 C 0.62963 0.70367 0.29617 0.0
C1468 C 0.62497 0.75479 0.21612 0.0
C1469 C 0.62803 0.74113 0.26046 0.0
C1470 C 0.62544 0.7736 0.19845 0.0
C1471 C 0.62913 0.79828 0.20563 0.0
C1472 C 0.62793 0.76069 0.24122 0.0
C1473 C 0.63196 0.80341 0.23093 0.0
C1474 C 0.62504 0.74708 0.28553 0.0
C1475 C 0.6325 0.69847 0.27089 0.0
N1476 N 0.63123 0.78478 0.2478 0.0
N1477 N 0.63157 0.71704 0.25394 0.0
H1478 H 0.35442 0.26478 0.32387 0.0
H1479 H 0.3887 0.22986 0.18412 0.0
H1480 H 0.38692 0.31649 0.27243 0.0
H1481 H 0.3568 0.17869 0.23645 0.0
H1482 H 0.38935 0.26159 0.21634 0.0
H1483 H 0.35622 0.2328 0.29218 0.0
C1484 C 0.36203 0.26942 0.30594 0.0
C1485 C 0.37056 0.29341 0.30085 0.0
C1486 C 0.38231 0.24338 0.22078 0.0
C1487 C 0.37259 0.25676 0.26434 0.0
C1488 C 0.38196 0.22523 0.20239 0.0
C1489 C 0.37271 0.20153 0.20755 0.0
C1490 C 0.37329 0.23781 0.24449 0.0
C1491 C 0.36414 0.19666 0.23158 0.0
C1492 C 0.36304 0.25112 0.28781 0.0
C1493 C 0.38016 0.29827 0.27721 0.0
N1494 N 0.3646 0.21464 0.24909 0.0
N1495 N 0.38087 0.28012 0.25982 0.0
H1496 H 0.40749 0.19675 0.78672 0.0
H1497 H 0.33275 0.28123 0.69609 0.0
H1498 H 0.33427 0.22104 0.80696 0.0
H1499 H 0.40657 0.30349 0.71643 0.0
H1500 H 0.33328 0.25059 0.72968 0.0
H1501 H 0.40809 0.22807 0.75361 0.0
C1502 C 0.39159 0.20866 0.78414 0.0
C1503 C 0.37086 0.20653 0.79957 0.0
C1504 C 0.34934 0.26217 0.72665 0.0
C1505 C 0.37118 0.24149 0.76165 0.0
C1506 C 0.34912 0.27947 0.70751 0.0
C1507 C 0.36964 0.29483 0.70364 0.0
C1508 C 0.37051 0.25973 0.7414 0.0
C1509 C 0.39036 0.29202 0.719 0.0
C1510 C 0.39199 0.22647 0.76541 0.0
C1511 C 0.35068 0.22233 0.79555 0.0
N1512 N 0.39042 0.27455 0.73711 0.0
N1513 N 0.35118 0.23896 0.77672 0.0
H1514 H 0.59498 0.80481 0.78746 0.0
H1515 H 0.66814 0.72221 0.69456 0.0
H1516 H 0.66843 0.78045 0.80673 0.0
H1517 H 0.59526 0.69841 0.71648 0.0
H1518 H 0.66811 0.75217 0.72876 0.0
H1519 H 0.59393 0.77361 0.75428 0.0
C1520 C 0.61083 0.79287 0.78468 0.0
C1521 C 0.63177 0.79497 0.79982 0.0
C1522 C 0.65214 0.7404 0.72593 0.0
C1523 C 0.63093 0.76016 0.7618 0.0
C1524 C 0.65206 0.72351 0.70644 0.0
C1525 C 0.63165 0.70794 0.70282 0.0
C1526 C 0.63137 0.74222 0.74131 0.0
C1527 C 0.61134 0.7101 0.7188 0.0
C1528 C 0.61017 0.77513 0.76591 0.0
C1529 C 0.65188 0.77916 0.79554 0.0
N1530 N 0.61155 0.72721 0.73726 0.0
N1531 N 0.65113 0.76261 0.77663 0.0
H1532 H 0.61365 0.31739 0.27289 0.0
H1533 H 0.64853 0.17806 0.23689 0.0
H1534 H 0.64826 0.26579 0.32305 0.0
H1535 H 0.6152 0.22968 0.18588 0.0
H1536 H 0.6472 0.20963 0.26901 0.0
H1537 H 0.61269 0.2852 0.24123 0.0
C1538 C 0.62094 0.29926 0.27732 0.0
C1539 C 0.63103 0.29431 0.30073 0.0
C1540 C 0.6401 0.21406 0.25083 0.0
C1541 C 0.63006 0.25736 0.26444 0.0
C1542 C 0.64082 0.196 0.23243 0.0
C1543 C 0.63192 0.20117 0.20858 0.0
C1544 C 0.63046 0.23755 0.24543 0.0
C1545 C 0.62224 0.22483 0.20397 0.0
C1546 C 0.62041 0.28089 0.25919 0.0
C1547 C 0.64027 0.27048 0.30531 0.0
N1548 N 0.6218 0.24214 0.22221 0.0
N1549 N 0.63959 0.25294 0.28733 0.0
H1550 H 0.36876 0.76452 0.17901 0.0
H1551 H 0.36542 0.73839 0.32398 0.0
H1552 H 0.37845 0.82236 0.23317 0.0
H1553 H 0.38039 0.68182 0.26967 0.0
H1554 H 0.36699 0.76956 0.29112 0.0
H1555 H 0.36979 0.73391 0.2122 0.0
C1556 C 0.37121 0.77079 0.19787 0.0
C1557 C 0.37363 0.79605 0.20331 0.0
C1558 C 0.37008 0.75033 0.28648 0.0
C1559 C 0.37454 0.76109 0.24142 0.0
C1560 C 0.36913 0.73253 0.3052 0.0
C1561 C 0.37285 0.70745 0.29959 0.0
C1562 C 0.3744 0.74294 0.26196 0.0
C1563 C 0.37755 0.70093 0.2749 0.0
C1564 C 0.37185 0.75329 0.21681 0.0
C1565 C 0.37672 0.80307 0.22812 0.0
N1566 N 0.37803 0.71853 0.257 0.0
N1567 N 0.37691 0.78569 0.2463 0.0
H1568 H 0.18365 0.93927 0.37709 0.0
H1569 H 0.11035 0.06274 0.34152 0.0
H1570 H 0.11228 0.93942 0.34124 0.0
H1571 H 0.18201 0.0619 0.37676 0.0
H1572 H 0.10899 0.01766 0.3444 0.0
H1573 H 0.18164 0.98421 0.38022 0.0
C1574 C 0.16748 0.94872 0.36997 0.0
C1575 C 0.14822 0.93552 0.35864 0.0
C1576 C 0.12494 0.02737 0.35164 0.0
C1577 C 0.14583 0.9871 0.36214 0.0
C1578 C 0.12572 0.05313 0.35002 0.0
C1579 C 0.14646 0.06616 0.35866 0.0
C1580 C 0.14502 0.01452 0.36196 0.0
C1581 C 0.16575 0.05267 0.36963 0.0
C1582 C 0.16635 0.97442 0.37178 0.0
C1583 C 0.12766 0.94881 0.34996 0.0
N1584 N 0.16462 0.02761 0.37081 0.0
N1585 N 0.12709 0.97388 0.35173 0.0
H1586 H 0.93961 0.12392 0.3212 0.0
H1587 H 0.06345 0.16413 0.39147 0.0
H1588 H 0.93973 0.1642 0.39014 0.0
H1589 H 0.06203 0.12441 0.32222 0.0
H1590 H 0.01831 0.16154 0.39326 0.0
H1591 H 0.98452 0.1211 0.32327 0.0
C1592 C 0.94906 0.13209 0.33686 0.0
C1593 C 0.93583 0.14454 0.3554 0.0
C1594 C 0.02791 0.15327 0.37776 0.0
C1595 C 0.98746 0.14143 0.35783 0.0
C1596 C 0.0537 0.15472 0.37672 0.0
C1597 C 0.06659 0.14469 0.35653 0.0
C1598 C 0.01491 0.14171 0.35847 0.0
C1599 C 0.05293 0.13262 0.33804 0.0
C1600 C 0.97475 0.13046 0.33803 0.0
C1601 C 0.94914 0.15455 0.37535 0.0
N1602 N 0.02788 0.13161 0.3394 0.0
N1603 N 0.97424 0.15293 0.37594 0.0
H1604 H 0.89158 0.06404 0.33858 0.0
H1605 H 0.82117 0.93982 0.37727 0.0
H1606 H 0.82032 0.06228 0.37457 0.0
H1607 H 0.89053 0.94025 0.33772 0.0
H1608 H 0.82263 0.98473 0.37958 0.0
H1609 H 0.89346 0.01894 0.34118 0.0
C1610 C 0.87638 0.05422 0.34716 0.0
C1611 C 0.85563 0.06702 0.35617 0.0
C1612 C 0.83761 0.97505 0.37048 0.0
C1613 C 0.85773 0.01534 0.35919 0.0
C1614 C 0.8368 0.94934 0.36914 0.0
C1615 C 0.85565 0.93617 0.35705 0.0
C1616 C 0.85738 0.98788 0.35962 0.0
C1617 C 0.87552 0.9496 0.3471 0.0
C1618 C 0.87748 0.02845 0.34861 0.0
C1619 C 0.83659 0.05325 0.3672 0.0
N1620 N 0.87579 0.97474 0.34846 0.0
N1621 N 0.83806 0.0282 0.36828 0.0
H1622 H 0.93922 0.83902 0.3933 0.0
H1623 H 0.06288 0.87954 0.32282 0.0
H1624 H 0.94051 0.87766 0.32344 0.0
H1625 H 0.06299 0.83936 0.39181 0.0
H1626 H 0.01796 0.88216 0.32491 0.0
H1627 H 0.98435 0.84204 0.39517 0.0
C1628 C 0.94894 0.84829 0.37844 0.0
C1629 C 0.93602 0.85788 0.35805 0.0
C1630 C 0.02778 0.87287 0.33968 0.0
C1631 C 0.98767 0.86136 0.36009 0.0
C1632 C 0.05349 0.87137 0.33851 0.0
C1633 C 0.06678 0.85898 0.35704 0.0
C1634 C 0.01513 0.86185 0.3595 0.0
C1635 C 0.05353 0.84896 0.37702 0.0
C1636 C 0.97471 0.84998 0.37952 0.0
C1637 C 0.94963 0.86978 0.33942 0.0
N1638 N 0.02842 0.85045 0.37762 0.0
N1639 N 0.97467 0.87105 0.34083 0.0
H1640 H 0.11286 0.06379 0.66815 0.0
H1641 H 0.17226 0.93948 0.61404 0.0
H1642 H 0.17746 0.06297 0.62123 0.0
H1643 H 0.12192 0.94102 0.67598 0.0
H1644 H 0.16988 0.98459 0.61165 0.0
H1645 H 0.11149 0.01869 0.66623 0.0
C1646 C 0.12666 0.05417 0.65727 0.0
C1647 C 0.14545 0.06725 0.64499 0.0
C1648 C 0.15929 0.97503 0.62569 0.0
C1649 C 0.1439 0.01551 0.64272 0.0
C1650 C 0.16055 0.94926 0.62703 0.0
C1651 C 0.14741 0.93641 0.64538 0.0
C1652 C 0.14458 0.98807 0.64264 0.0
C1653 C 0.13254 0.95013 0.66167 0.0
C1654 C 0.12589 0.02839 0.65627 0.0
C1655 C 0.16276 0.05369 0.63115 0.0
N1656 N 0.13156 0.97519 0.65993 0.0
N1657 N 0.1616 0.02857 0.63044 0.0
H1658 H 0.93784 0.16333 0.60994 0.0
H1659 H 0.06147 0.12542 0.68204 0.0
H1660 H 0.93878 0.12608 0.68055 0.0
H1661 H 0.06144 0.16381 0.61204 0.0
H1662 H 0.01652 0.12267 0.68003 0.0
H1663 H 0.98298 0.16085 0.60864 0.0
C1664 C 0.94749 0.15448 0.6251 0.0
C1665 C 0.93444 0.1451 0.6455 0.0
C1666 C 0.02632 0.1316 0.66504 0.0
C1667 C 0.98617 0.14225 0.64413 0.0
C1668 C 0.05205 0.13318 0.66617 0.0
C1669 C 0.06532 0.14508 0.64729 0.0
C1670 C 0.01364 0.14203 0.64491 0.0
C1671 C 0.05201 0.1546 0.6271 0.0
C1672 C 0.97329 0.1531 0.62435 0.0
C1673 C 0.948 0.13374 0.66452 0.0
N1674 N 0.02691 0.15301 0.62653 0.0
N1675 N 0.97308 0.13278 0.66343 0.0
H1676 H 0.89012 0.0653 0.63077 0.0
H1677 H 0.84453 0.94143 0.68814 0.0
H1678 H 0.81658 0.06112 0.66126 0.0
H1679 H 0.86778 0.93903 0.61191 0.0
H1680 H 0.84423 0.98677 0.68613 0.0
H1681 H 0.89195 0.01964 0.63047 0.0
C1682 C 0.87442 0.05473 0.63734 0.0
C1683 C 0.85311 0.06678 0.64589 0.0
C1684 C 0.84958 0.97623 0.66996 0.0
C1685 C 0.85542 0.01527 0.64635 0.0
C1686 C 0.8499 0.95048 0.6711 0.0
C1687 C 0.8562 0.93659 0.65013 0.0
C1688 C 0.85632 0.98811 0.64797 0.0
C1689 C 0.86275 0.94918 0.62841 0.0
C1690 C 0.87545 0.02888 0.63709 0.0
C1691 C 0.83322 0.05243 0.65429 0.0
N1692 N 0.86289 0.97437 0.62791 0.0
N1693 N 0.83499 0.02738 0.65468 0.0
H1694 H 0.93984 0.82418 0.62348 0.0
H1695 H 0.06426 0.89301 0.66433 0.0
H1696 H 0.94042 0.89111 0.66705 0.0
H1697 H 0.06214 0.82344 0.62518 0.0
H1698 H 0.01913 0.89507 0.66208 0.0
H1699 H 0.98468 0.82619 0.62048 0.0
C1700 C 0.94938 0.8394 0.63236 0.0
C1701 C 0.93628 0.85736 0.64579 0.0
C1702 C 0.02857 0.87944 0.65387 0.0
C1703 C 0.98791 0.85973 0.64242 0.0
C1704 C 0.05436 0.87825 0.6551 0.0
C1705 C 0.06706 0.85788 0.64513 0.0
C1706 C 0.01537 0.86017 0.64253 0.0
C1707 C 0.05319 0.83939 0.63332 0.0
C1708 C 0.97505 0.84052 0.63062 0.0
C1709 C 0.94973 0.87676 0.65664 0.0
N1710 N 0.02814 0.84093 0.63246 0.0
N1711 N 0.97483 0.87734 0.65487 0.0
H1712 H 0.38155 0.17649 0.06237 0.0
H1713 H 0.32173 0.12188 0.93927 0.0
H1714 H 0.33015 0.11541 0.0626 0.0
H1715 H 0.38662 0.16839 0.93939 0.0
H1716 H 0.32377 0.11983 0.98441 0.0
H1717 H 0.38301 0.17445 0.01727 0.0
C1718 C 0.37065 0.16257 0.05295 0.0
C1719 C 0.3556 0.14619 0.06632 0.0
C1720 C 0.33766 0.13033 0.97453 0.0
C1721 C 0.35705 0.14388 0.01461 0.0
C1722 C 0.33647 0.13157 0.94876 0.0
C1723 C 0.35393 0.14546 0.93548 0.0
C1724 C 0.35627 0.14331 0.98718 0.0
C1725 C 0.37271 0.1575 0.9488 0.0
C1726 C 0.37155 0.16138 0.02719 0.0
C1727 C 0.34201 0.12843 0.05309 0.0
N1728 N 0.37324 0.15633 0.97389 0.0
N1729 N 0.34288 0.1279 0.02797 0.0
H1730 H 0.89065 0.33358 0.93909 0.0
H1731 H 0.83263 0.38945 0.06313 0.0
H1732 H 0.8258 0.38018 0.94019 0.0
H1733 H 0.88236 0.32697 0.06193 0.0
H1734 H 0.83506 0.39161 0.01804 0.0
H1735 H 0.89286 0.33642 0.98412 0.0
C1736 C 0.87699 0.34458 0.94876 0.0
C1737 C 0.85785 0.35646 0.93584 0.0
C1738 C 0.84553 0.37752 0.02769 0.0
C1739 C 0.86036 0.35982 0.98738 0.0
C1740 C 0.84424 0.37632 0.05343 0.0
C1741 C 0.85713 0.35783 0.06633 0.0
C1742 C 0.86002 0.36029 0.01476 0.0
C1743 C 0.87191 0.34136 0.05274 0.0
C1744 C 0.87823 0.34612 0.97447 0.0
C1745 C 0.84072 0.37051 0.94939 0.0
N1746 N 0.8729 0.34294 0.0277 0.0
N1747 N 0.84234 0.37175 0.97443 0.0
H1748 H 0.61406 0.8333 0.93907 0.0
H1749 H 0.67152 0.88937 0.06346 0.0
H1750 H 0.67761 0.88162 0.94011 0.0
H1751 H 0.6221 0.82669 0.06181 0.0
H1752 H 0.66924 0.89167 0.01832 0.0
H1753 H 0.6121 0.83572 0.98413 0.0
C1754 C 0.62749 0.84459 0.94872 0.0
C1755 C 0.64619 0.85709 0.93575 0.0
C1756 C 0.65882 0.8775 0.02788 0.0
C1757 C 0.64398 0.85996 0.9874 0.0
C1758 C 0.66003 0.87622 0.05365 0.0
C1759 C 0.64716 0.85765 0.06646 0.0
C1760 C 0.64443 0.86027 0.01482 0.0
C1761 C 0.63254 0.84115 0.05273 0.0
C1762 C 0.6264 0.84589 0.97447 0.0
C1763 C 0.66303 0.87147 0.94933 0.0
N1764 N 0.63162 0.84282 0.02768 0.0
N1765 N 0.66157 0.87246 0.97441 0.0
H1766 H 0.11215 0.67064 0.06349 0.0
H1767 H 0.16698 0.61295 0.93893 0.0
H1768 H 0.17425 0.62047 0.06162 0.0
H1769 H 0.12176 0.67878 0.94034 0.0
H1770 H 0.16418 0.61061 0.98389 0.0
H1771 H 0.10996 0.66883 0.01835 0.0
C1772 C 0.12517 0.65905 0.05363 0.0
C1773 C 0.14357 0.64584 0.06637 0.0
C1774 C 0.15479 0.6255 0.97434 0.0
C1775 C 0.14106 0.64367 0.01475 0.0
C1776 C 0.15629 0.62683 0.94864 0.0
C1777 C 0.14477 0.64626 0.9358 0.0
C1778 C 0.14147 0.64356 0.98736 0.0
C1779 C 0.13112 0.66362 0.94946 0.0
C1780 C 0.12396 0.65813 0.02787 0.0
C1781 C 0.15992 0.63114 0.05258 0.0
N1782 N 0.1299 0.6619 0.97452 0.0
N1783 N 0.15831 0.63049 0.02752 0.0
H1784 H 0.38128 0.82173 0.93932 0.0
H1785 H 0.32589 0.88064 0.06225 0.0
H1786 H 0.3356 0.88724 0.9395 0.0
H1787 H 0.3881 0.8306 0.06268 0.0
H1788 H 0.32822 0.88237 0.01717 0.0
H1789 H 0.38322 0.82364 0.98449 0.0
C1790 C 0.37176 0.83658 0.94883 0.0
C1791 C 0.35812 0.85425 0.93558 0.0
C1792 C 0.34148 0.87116 0.02714 0.0
C1793 C 0.36012 0.85642 0.98724 0.0
C1794 C 0.34011 0.8701 0.05288 0.0
C1795 C 0.35673 0.85535 0.06627 0.0
C1796 C 0.35938 0.85709 0.01464 0.0
C1797 C 0.37489 0.84221 0.05313 0.0
C1798 C 0.37294 0.83769 0.9746 0.0
C1799 C 0.34629 0.87317 0.94889 0.0
N1800 N 0.37557 0.8432 0.02802 0.0
N1801 N 0.34737 0.87361 0.97398 0.0
H1802 H 0.11057 0.33981 0.06386 0.0
H1803 H 0.18153 0.37939 0.9403 0.0
H1804 H 0.18035 0.37861 0.06263 0.0
H1805 H 0.11204 0.34006 0.94023 0.0
H1806 H 0.17935 0.38231 0.98518 0.0
H1807 H 0.10877 0.34273 0.01876 0.0
C1808 C 0.12542 0.3491 0.05416 0.0
C1809 C 0.14578 0.35875 0.06709 0.0
C1810 C 0.16449 0.37314 0.97538 0.0
C1811 C 0.14383 0.3621 0.01546 0.0
C1812 C 0.16572 0.37146 0.9497 0.0
C1813 C 0.14707 0.35922 0.93644 0.0
C1814 C 0.1445 0.36244 0.98803 0.0
C1815 C 0.12693 0.34953 0.94968 0.0
C1816 C 0.12438 0.35073 0.0284 0.0
C1817 C 0.1644 0.37068 0.0535 0.0
N1818 N 0.12628 0.35117 0.97476 0.0
N1819 N 0.16304 0.37187 0.02847 0.0
H1820 H 0.66957 0.11309 0.06345 0.0
H1821 H 0.61271 0.17003 0.93933 0.0
H1822 H 0.62176 0.17705 0.06236 0.0
H1823 H 0.67578 0.12106 0.94042 0.0
H1824 H 0.6109 0.16791 0.98443 0.0
H1825 H 0.66704 0.11103 0.0184 0.0
C1826 C 0.65838 0.1266 0.05379 0.0
C1827 C 0.64601 0.14542 0.06675 0.0
C1828 C 0.62505 0.15755 0.97477 0.0
C1829 C 0.64303 0.14306 0.01512 0.0
C1830 C 0.62606 0.15865 0.949 0.0
C1831 C 0.64458 0.14586 0.93603 0.0
C1832 C 0.64252 0.14335 0.9877 0.0
C1833 C 0.66133 0.13141 0.94963 0.0
C1834 C 0.65703 0.12544 0.02805 0.0
C1835 C 0.63177 0.16236 0.05316 0.0
N1836 N 0.65993 0.13059 0.97471 0.0
N1837 N 0.6307 0.1608 0.02809 0.0
H1838 H 0.87888 0.68122 0.94004 0.0
H1839 H 0.83838 0.61042 0.06367 0.0
H1840 H 0.84001 0.61148 0.93991 0.0
H1841 H 0.87692 0.68034 0.06263 0.0
H1842 H 0.84136 0.60875 0.01853 0.0
H1843 H 0.88095 0.67945 0.98504 0.0
C1844 C 0.87089 0.66544 0.94943 0.0
C1845 C 0.85906 0.64658 0.93609 0.0
C1846 C 0.84928 0.62438 0.02822 0.0
C1847 C 0.8613 0.64448 0.98784 0.0
C1848 C 0.8476 0.62534 0.05401 0.0
C1849 C 0.85721 0.64567 0.06703 0.0
C1850 C 0.86064 0.64388 0.01532 0.0
C1851 C 0.86904 0.66439 0.05345 0.0
C1852 C 0.87208 0.66445 0.97519 0.0
C1853 C 0.8492 0.62653 0.94938 0.0
N1854 N 0.8703 0.6631 0.02841 0.0
N1855 N 0.8504 0.62609 0.9745 0.0
H1856 H 0.06352 0.32585 0.12062 0.0
H1857 H 0.93978 0.38262 0.17677 0.0
H1858 H 0.06296 0.38794 0.17079 0.0
H1859 H 0.94044 0.33333 0.11398 0.0
H1860 H 0.98485 0.38483 0.17492 0.0
H1861 H 0.01848 0.3282 0.11796 0.0
C1862 C 0.05394 0.34005 0.131 0.0
C1863 C 0.06706 0.3566 0.14611 0.0
C1864 C 0.97514 0.37369 0.16142 0.0
C1865 C 0.01542 0.35929 0.14323 0.0
C1866 C 0.94939 0.37236 0.16249 0.0
C1867 C 0.93628 0.35761 0.14562 0.0
C1868 C 0.98797 0.35994 0.14352 0.0
C1869 C 0.94974 0.34489 0.12741 0.0
C1870 C 0.02822 0.34143 0.1294 0.0
C1871 C 0.05364 0.37475 0.15896 0.0
N1872 N 0.97486 0.34615 0.12701 0.0
N1873 N 0.02855 0.37545 0.15741 0.0
H1874 H 0.06386 0.66241 0.89105 0.0
H1875 H 0.94017 0.62549 0.81847 0.0
H1876 H 0.06313 0.62725 0.81937 0.0
H1877 H 0.94042 0.66153 0.88971 0.0
H1878 H 0.98521 0.62328 0.81995 0.0
H1879 H 0.01877 0.65957 0.89232 0.0
C1880 C 0.05427 0.65396 0.87563 0.0
C1881 C 0.06738 0.64525 0.85496 0.0
C1882 C 0.97543 0.63157 0.83533 0.0
C1883 C 0.01565 0.64199 0.85631 0.0
C1884 C 0.94966 0.63283 0.8345 0.0
C1885 C 0.93641 0.64391 0.8539 0.0
C1886 C 0.98817 0.64149 0.85567 0.0
C1887 C 0.94981 0.65296 0.87425 0.0
C1888 C 0.02849 0.65237 0.87637 0.0
C1889 C 0.05387 0.63438 0.83561 0.0
N1890 N 0.97492 0.65167 0.87453 0.0
N1891 N 0.02879 0.63319 0.83671 0.0
H1892 H 0.39025 0.93889 0.83412 0.0
H1893 H 0.33151 0.06329 0.88867 0.0
H1894 H 0.32623 0.94009 0.88181 0.0
H1895 H 0.38104 0.0618 0.82608 0.0
H1896 H 0.33419 0.01825 0.89123 0.0
H1897 H 0.39188 0.98402 0.836 0.0
C1898 C 0.37666 0.9486 0.84518 0.0
C1899 C 0.35793 0.93565 0.85766 0.0
C1900 C 0.34455 0.02781 0.87701 0.0
C1901 C 0.35976 0.98735 0.85989 0.0
C1902 C 0.3431 0.05354 0.87557 0.0
C1903 C 0.3559 0.06638 0.85697 0.0
C1904 C 0.35909 0.01478 0.85991 0.0
C1905 C 0.37067 0.05269 0.84057 0.0
C1906 C 0.37756 0.97438 0.84615 0.0
C1907 C 0.34086 0.94929 0.87171 0.0
N1908 N 0.37182 0.02764 0.84239 0.0
N1909 N 0.34215 0.97439 0.87239 0.0
H1910 H 0.06441 0.39179 0.83728 0.0
H1911 H 0.94071 0.32165 0.87827 0.0
H1912 H 0.06303 0.32283 0.87752 0.0
H1913 H 0.94045 0.38999 0.83699 0.0
H1914 H 0.98559 0.32379 0.88078 0.0
H1915 H 0.01923 0.39341 0.83957 0.0
C1916 C 0.05466 0.37708 0.84674 0.0
C1917 C 0.06759 0.35702 0.85703 0.0
C1918 C 0.97577 0.33841 0.87126 0.0
C1919 C 0.01586 0.35878 0.85967 0.0
C1920 C 0.95007 0.3372 0.8698 0.0
C1921 C 0.93672 0.35555 0.85718 0.0
C1922 C 0.98839 0.35808 0.85996 0.0
C1923 C 0.94995 0.37536 0.8468 0.0
C1924 C 0.02885 0.37801 0.84801 0.0
C1925 C 0.05392 0.33856 0.86913 0.0
N1926 N 0.97507 0.37601 0.84827 0.0
N1927 N 0.02886 0.33983 0.86999 0.0
H1928 H 0.66288 0.93913 0.89157 0.0
H1929 H 0.62455 0.06318 0.82043 0.0
H1930 H 0.62767 0.9405 0.81994 0.0
H1931 H 0.66297 0.06284 0.89041 0.0
H1932 H 0.62247 0.0182 0.82183 0.0
H1933 H 0.66007 0.98422 0.89326 0.0
C1934 C 0.65443 0.94886 0.87625 0.0
C1935 C 0.64569 0.93594 0.85547 0.0
C1936 C 0.63126 0.02793 0.83695 0.0
C1937 C 0.64243 0.98765 0.85732 0.0
C1938 C 0.63246 0.05368 0.83618 0.0
C1939 C 0.64416 0.0669 0.85523 0.0
C1940 C 0.64187 0.01514 0.8569 0.0
C1941 C 0.65389 0.05347 0.87524 0.0
C1942 C 0.65285 0.97464 0.87723 0.0
C1943 C 0.63482 0.94962 0.83625 0.0
N1944 N 0.65266 0.02833 0.87547 0.0
N1945 N 0.63362 0.97468 0.8376 0.0
H1946 H 0.93908 0.66833 0.11328 0.0
H1947 H 0.06348 0.61405 0.17224 0.0
H1948 H 0.94028 0.62208 0.17834 0.0
H1949 H 0.06183 0.67557 0.12138 0.0
H1950 H 0.01837 0.6116 0.16991 0.0
H1951 H 0.98415 0.66585 0.1113 0.0
C1952 C 0.94877 0.65749 0.12704 0.0
C1953 C 0.93586 0.6456 0.14617 0.0
C1954 C 0.02792 0.62555 0.15919 0.0
C1955 C 0.98747 0.64266 0.14393 0.0
C1956 C 0.05368 0.62692 0.16043 0.0
C1957 C 0.06646 0.64521 0.14717 0.0
C1958 C 0.01487 0.64241 0.14438 0.0
C1959 C 0.05274 0.66134 0.13213 0.0
C1960 C 0.97452 0.65616 0.12593 0.0
C1961 C 0.94947 0.63175 0.16343 0.0
N1962 N 0.0277 0.6596 0.13119 0.0
N1963 N 0.97454 0.63072 0.16194 0.0
H1964 H 0.33016 0.93839 0.11339 0.0
H1965 H 0.38967 0.06281 0.16699 0.0
H1966 H 0.38127 0.9401 0.17469 0.0
H1967 H 0.32382 0.06182 0.12184 0.0
H1968 H 0.3914 0.01775 0.16462 0.0
H1969 H 0.33224 0.98355 0.11107 0.0
C1970 C 0.34198 0.94822 0.12623 0.0
C1971 C 0.35541 0.93543 0.14442 0.0
C1972 C 0.37664 0.02741 0.15514 0.0
C1973 C 0.35792 0.98708 0.14175 0.0
C1974 C 0.37567 0.05317 0.1564 0.0
C1975 C 0.35641 0.06616 0.14478 0.0
C1976 C 0.35839 0.0145 0.14197 0.0
C1977 C 0.33886 0.05258 0.13128 0.0
C1978 C 0.34307 0.974 0.12494 0.0
C1979 C 0.37042 0.94918 0.16054 0.0
N1980 N 0.34023 0.02749 0.13029 0.0
N1981 N 0.37124 0.97424 0.15884 0.0
H1982 H 0.68101 0.93899 0.12514 0.0
H1983 H 0.6104 0.06343 0.16259 0.0
H1984 H 0.6116 0.93969 0.1646 0.0
H1985 H 0.68142 0.06132 0.12613 0.0
H1986 H 0.60841 0.01833 0.16021 0.0
H1987 H 0.67927 0.98384 0.12206 0.0
C1988 C 0.66532 0.94856 0.1331 0.0
C1989 C 0.64655 0.9355 0.14541 0.0
C1990 C 0.62435 0.02776 0.15261 0.0
C1991 C 0.64448 0.98711 0.14194 0.0
C1992 C 0.62551 0.05354 0.15393 0.0
C1993 C 0.64625 0.06623 0.14477 0.0
C1994 C 0.64405 0.01456 0.14202 0.0
C1995 C 0.66516 0.05237 0.13364 0.0
C1996 C 0.66434 0.97423 0.13131 0.0
C1997 C 0.62656 0.94897 0.15509 0.0
N1998 N 0.66366 0.02732 0.13271 0.0
N1999 N 0.62614 0.97408 0.15331 0.0
H2000 H 0.17861 0.56331 0.88245 0.0
H2001 H 0.12201 0.43998 0.82531 0.0
H2002 H 0.11599 0.56304 0.83292 0.0
H2003 H 0.17084 0.44019 0.88847 0.0
H2004 H 0.11986 0.48507 0.82744 0.0
H2005 H 0.17645 0.51821 0.88463 0.0
C2006 C 0.16433 0.55379 0.87213 0.0
C2007 C 0.14757 0.567 0.85734 0.0
C2008 C 0.13089 0.47523 0.84095 0.0
C2009 C 0.14511 0.51534 0.85964 0.0
C2010 C 0.13219 0.44948 0.8397 0.0
C2011 C 0.14678 0.43626 0.85662 0.0
C2012 C 0.14451 0.48792 0.85905 0.0
C2013 C 0.15941 0.44959 0.87499 0.0
C2014 C 0.16307 0.52804 0.87344 0.0
C2015 C 0.12934 0.55366 0.84451 0.0
N2016 N 0.15818 0.47469 0.87556 0.0
N2017 N 0.12875 0.52856 0.84577 0.0
H2018 H 0.88876 0.56274 0.83355 0.0
H2019 H 0.83217 0.43785 0.88893 0.0
H2020 H 0.82475 0.56119 0.88126 0.0
H2021 H 0.88102 0.43984 0.82583 0.0
H2022 H 0.83387 0.48298 0.89108 0.0
H2023 H 0.8907 0.51769 0.83542 0.0
C2024 C 0.8752 0.55298 0.84459 0.0
C2025 C 0.85641 0.56583 0.85712 0.0
C2026 C 0.84429 0.47351 0.87684 0.0
C2027 C 0.85863 0.51413 0.85934 0.0
C2028 C 0.84342 0.44773 0.87563 0.0
C2029 C 0.85634 0.435 0.85703 0.0
C2030 C 0.85839 0.48669 0.8595 0.0
C2031 C 0.87061 0.44886 0.84035 0.0
C2032 C 0.87629 0.52722 0.84555 0.0
C2033 C 0.83942 0.55208 0.87114 0.0
N2034 N 0.87122 0.47394 0.84196 0.0
N2035 N 0.84091 0.52697 0.87184 0.0
H2036 H 0.1263 0.44001 0.18342 0.0
H2037 H 0.16136 0.56394 0.11055 0.0
H2038 H 0.16257 0.44038 0.1123 0.0
H2039 H 0.12834 0.56268 0.18322 0.0
H2040 H 0.15877 0.51884 0.10913 0.0
H2041 H 0.12366 0.48496 0.18184 0.0
C2042 C 0.13361 0.44951 0.16739 0.0
C2043 C 0.1449 0.43633 0.14807 0.0
C2044 C 0.15198 0.52845 0.12533 0.0
C2045 C 0.14197 0.48801 0.14618 0.0
C2046 C 0.15343 0.55423 0.12616 0.0
C2047 C 0.14526 0.56717 0.14715 0.0
C2048 C 0.14227 0.51547 0.14561 0.0
C2049 C 0.13505 0.55353 0.16673 0.0
C2050 C 0.1321 0.47523 0.16651 0.0
C2051 C 0.15385 0.44973 0.1277 0.0
N2052 N 0.13396 0.52846 0.16553 0.0
N2053 N 0.15233 0.47484 0.12736 0.0
H2054 H 0.82165 0.43986 0.12483 0.0
H2055 H 0.89204 0.5637 0.16481 0.0
H2056 H 0.8908 0.43992 0.16477 0.0
H2057 H 0.82182 0.56221 0.12679 0.0
H2058 H 0.89389 0.51858 0.16206 0.0
H2059 H 0.82347 0.48477 0.12242 0.0
C2060 C 0.8373 0.44929 0.13302 0.0
C2061 C 0.85597 0.43605 0.14525 0.0
C2062 C 0.87816 0.52816 0.15421 0.0
C2063 C 0.85813 0.4877 0.14259 0.0
C2064 C 0.87708 0.55394 0.15575 0.0
C2065 C 0.85661 0.5668 0.14623 0.0
C2066 C 0.85864 0.51515 0.14304 0.0
C2067 C 0.83787 0.55312 0.13459 0.0
C2068 C 0.83833 0.475 0.13162 0.0
C2069 C 0.87591 0.44935 0.15528 0.0
N2070 N 0.83929 0.52809 0.13345 0.0
N2071 N 0.87637 0.47447 0.15388 0.0
H2072 H 0.39113 0.66122 0.56222 0.0
H2073 H 0.31945 0.62437 0.43814 0.0
H2074 H 0.3191 0.62678 0.56092 0.0
H2075 H 0.39017 0.66145 0.43884 0.0
H2076 H 0.32079 0.62191 0.48312 0.0
H2077 H 0.39279 0.65831 0.51719 0.0
C2078 C 0.37571 0.65291 0.55251 0.0
C2079 C 0.35482 0.64444 0.56543 0.0
C2080 C 0.33608 0.63048 0.47345 0.0
C2081 C 0.35664 0.64108 0.51377 0.0
C2082 C 0.33535 0.63189 0.44772 0.0
C2083 C 0.35463 0.64335 0.43463 0.0
C2084 C 0.35622 0.64063 0.48632 0.0
C2085 C 0.37481 0.65258 0.44812 0.0
C2086 C 0.37668 0.65127 0.52677 0.0
C2087 C 0.3355 0.63373 0.55179 0.0
N2088 N 0.375 0.65116 0.47323 0.0
N2089 N 0.33682 0.63248 0.52673 0.0
H2090 H 0.8831 0.82811 0.44026 0.0
H2091 H 0.82585 0.8842 0.56368 0.0
H2092 H 0.83158 0.88911 0.44034 0.0
H2093 H 0.88944 0.83591 0.56301 0.0
H2094 H 0.82779 0.88661 0.51862 0.0
H2095 H 0.88584 0.83093 0.4852 0.0
C2096 C 0.87244 0.84219 0.44971 0.0
C2097 C 0.85691 0.85826 0.43649 0.0
C2098 C 0.84145 0.87567 0.52834 0.0
C2099 C 0.85989 0.86149 0.48807 0.0
C2100 C 0.84033 0.87422 0.55408 0.0
C2101 C 0.85738 0.85965 0.56718 0.0
C2102 C 0.85959 0.86223 0.51551 0.0
C2103 C 0.87585 0.8473 0.55372 0.0
C2104 C 0.87409 0.84384 0.4754 0.0
C2105 C 0.84374 0.87629 0.44976 0.0
N2106 N 0.87629 0.84866 0.52863 0.0
N2107 N 0.84532 0.87724 0.47484 0.0
H2108 H 0.61954 0.32722 0.56258 0.0
H2109 H 0.67678 0.3843 0.43949 0.0
H2110 H 0.66835 0.39038 0.56259 0.0
H2111 H 0.61449 0.33436 0.43951 0.0
H2112 H 0.67423 0.38668 0.48455 0.0
H2113 H 0.61757 0.32936 0.51749 0.0
C2114 C 0.62972 0.34164 0.55313 0.0
C2115 C 0.64427 0.35854 0.56642 0.0
C2116 C 0.661 0.37536 0.47467 0.0
C2117 C 0.64224 0.36097 0.51474 0.0
C2118 C 0.66248 0.37394 0.44894 0.0
C2119 C 0.64594 0.35896 0.43566 0.0
C2120 C 0.64304 0.36149 0.4873 0.0
C2121 C 0.62769 0.34609 0.44893 0.0
C2122 C 0.62855 0.34288 0.52737 0.0
C2123 C 0.65694 0.37693 0.55314 0.0
N2124 N 0.62689 0.34746 0.47401 0.0
N2125 N 0.65583 0.37749 0.52804 0.0
H2126 H 0.12411 0.18331 0.56243 0.0
H2127 H 0.16328 0.11123 0.43919 0.0
H2128 H 0.16182 0.11291 0.56269 0.0
H2129 H 0.12673 0.18224 0.43971 0.0
H2130 H 0.16021 0.10991 0.48427 0.0
H2131 H 0.12213 0.18156 0.51742 0.0
C2132 C 0.13186 0.1674 0.55306 0.0
C2133 C 0.14335 0.14833 0.56643 0.0
C2134 C 0.15276 0.12572 0.4745 0.0
C2135 C 0.1412 0.14626 0.51471 0.0
C2136 C 0.15449 0.12649 0.44873 0.0
C2137 C 0.14545 0.14699 0.43558 0.0
C2138 C 0.1419 0.14558 0.48726 0.0
C2139 C 0.13413 0.16613 0.44901 0.0
C2140 C 0.13073 0.16642 0.52731 0.0
C2141 C 0.15291 0.12812 0.55319 0.0
N2142 N 0.13281 0.16501 0.47407 0.0
N2143 N 0.15177 0.12769 0.52808 0.0
H2144 H 0.32556 0.38015 0.56357 0.0
H2145 H 0.3923 0.33575 0.43928 0.0
H2146 H 0.39098 0.33435 0.56317 0.0
H2147 H 0.32473 0.37828 0.44145 0.0
H2148 H 0.3947 0.33825 0.48439 0.0
H2149 H 0.32767 0.38292 0.51875 0.0
C2150 C 0.34047 0.37073 0.55408 0.0
C2151 C 0.35796 0.35675 0.56721 0.0
C2152 C 0.37945 0.34715 0.47496 0.0
C2153 C 0.36045 0.35982 0.5156 0.0
C2154 C 0.37806 0.34577 0.44919 0.0
C2155 C 0.35813 0.35661 0.43652 0.0
C2156 C 0.3608 0.35951 0.48815 0.0
C2157 C 0.34031 0.36943 0.45038 0.0
C2158 C 0.34167 0.37234 0.52841 0.0
C2159 C 0.37701 0.34522 0.55383 0.0
N2160 N 0.34201 0.3704 0.4754 0.0
N2161 N 0.37764 0.34685 0.52872 0.0
H2162 H 0.17257 0.88755 0.43904 0.0
H2163 H 0.11343 0.83549 0.56399 0.0
H2164 H 0.12116 0.82649 0.44114 0.0
H2165 H 0.18023 0.87921 0.56213 0.0
H2166 H 0.11151 0.83733 0.51894 0.0
H2167 H 0.17095 0.88987 0.48411 0.0
C2168 C 0.16078 0.87474 0.44894 0.0
C2169 C 0.14711 0.85665 0.43626 0.0
C2170 C 0.12653 0.84659 0.52841 0.0
C2171 C 0.14516 0.85932 0.48788 0.0
C2172 C 0.12762 0.84564 0.55415 0.0
C2173 C 0.14717 0.85706 0.56689 0.0
C2174 C 0.14495 0.85925 0.51527 0.0
C2175 C 0.16495 0.86998 0.55308 0.0
C2176 C 0.15996 0.87604 0.47468 0.0
C2177 C 0.13217 0.84058 0.45013 0.0
N2178 N 0.16344 0.87069 0.528 0.0
N2179 N 0.13161 0.84229 0.47519 0.0
H2180 H 0.61924 0.67457 0.43922 0.0
H2181 H 0.67856 0.62208 0.56329 0.0
H2182 H 0.6723 0.61493 0.44002 0.0
H2183 H 0.6141 0.66919 0.56213 0.0
H2184 H 0.67645 0.61887 0.51829 0.0
H2185 H 0.61687 0.67253 0.48421 0.0
C2186 C 0.63031 0.66093 0.44885 0.0
C2187 C 0.64616 0.64504 0.4358 0.0
C2188 C 0.66266 0.62974 0.52789 0.0
C2189 C 0.64364 0.64273 0.48747 0.0
C2190 C 0.66388 0.63166 0.5536 0.0
C2191 C 0.64661 0.64612 0.56655 0.0
C2192 C 0.64418 0.64258 0.51493 0.0
C2193 C 0.62788 0.65792 0.55297 0.0
C2194 C 0.62889 0.65974 0.47457 0.0
C2195 C 0.65987 0.62759 0.44929 0.0
N2196 N 0.62732 0.65608 0.5279 0.0
N2197 N 0.6585 0.62708 0.47441 0.0
H2198 H 0.87851 0.17953 0.5621 0.0
H2199 H 0.83728 0.11068 0.43789 0.0
H2200 H 0.83605 0.11191 0.56158 0.0
H2201 H 0.87766 0.17954 0.43984 0.0
H2202 H 0.8398 0.10854 0.48299 0.0
H2203 H 0.88158 0.17747 0.51726 0.0
C2204 C 0.86991 0.16415 0.55258 0.0
C2205 C 0.85675 0.14601 0.56567 0.0
C2206 C 0.84823 0.12403 0.47351 0.0
C2207 C 0.86017 0.14358 0.51409 0.0
C2208 C 0.84683 0.12526 0.44774 0.0
C2209 C 0.85705 0.14547 0.43502 0.0
C2210 C 0.85997 0.14311 0.48665 0.0
C2211 C 0.8693 0.16373 0.44882 0.0
C2212 C 0.87169 0.16299 0.52691 0.0
C2213 C 0.84624 0.1264 0.55227 0.0
N2214 N 0.87028 0.16217 0.47385 0.0
N2215 N 0.84801 0.12581 0.52718 0.0
H2216 H 0.37727 0.56209 0.31866 0.0
H2217 H 0.34207 0.43887 0.39255 0.0
H2218 H 0.34047 0.56225 0.38951 0.0
H2219 H 0.37721 0.43947 0.32086 0.0
H2220 H 0.34459 0.48398 0.3936 0.0
H2221 H 0.38059 0.5172 0.32098 0.0
C2222 C 0.36997 0.55272 0.33478 0.0
C2223 C 0.35833 0.566 0.3538 0.0
C2224 C 0.35189 0.47422 0.37771 0.0
C2225 C 0.36207 0.51444 0.35655 0.0
C2226 C 0.35049 0.44844 0.37711 0.0
C2227 C 0.35921 0.43532 0.35646 0.0
C2228 C 0.36209 0.48701 0.35754 0.0
C2229 C 0.37004 0.44876 0.33707 0.0
C2230 C 0.37189 0.52704 0.33609 0.0
C2231 C 0.34943 0.55279 0.37432 0.0
N2232 N 0.37102 0.47384 0.33803 0.0
N2233 N 0.35134 0.52773 0.37507 0.0
H2234 H 0.61629 0.56547 0.37931 0.0
H2235 H 0.65217 0.44118 0.31319 0.0
H2236 H 0.67905 0.56182 0.33036 0.0
H2237 H 0.63915 0.43979 0.39187 0.0
H2238 H 0.65197 0.48645 0.31441 0.0
H2239 H 0.61483 0.51979 0.37992 0.0
C2240 C 0.62967 0.55499 0.36871 0.0
C2241 C 0.64789 0.56714 0.35487 0.0
C2242 C 0.649 0.47617 0.33134 0.0
C2243 C 0.64589 0.51562 0.35491 0.0
C2244 C 0.64896 0.45041 0.33067 0.0
C2245 C 0.6457 0.43678 0.35249 0.0
C2246 C 0.64509 0.48838 0.35384 0.0
C2247 C 0.64184 0.44969 0.37469 0.0
C2248 C 0.62889 0.52912 0.36913 0.0
C2249 C 0.66486 0.55297 0.34138 0.0
N2250 N 0.64143 0.47489 0.3748 0.0
N2251 N 0.66327 0.52791 0.34147 0.0
H2252 H 0.33856 0.5631 0.61012 0.0
H2253 H 0.3794 0.43965 0.68094 0.0
H2254 H 0.37733 0.56231 0.67991 0.0
H2255 H 0.33995 0.43936 0.61154 0.0
H2256 H 0.38155 0.48463 0.67903 0.0
H2257 H 0.34155 0.51799 0.60855 0.0
C2258 C 0.34784 0.5535 0.62504 0.0
C2259 C 0.35752 0.56659 0.64529 0.0
C2260 C 0.37253 0.47476 0.66413 0.0
C2261 C 0.36096 0.51486 0.6436 0.0
C2262 C 0.3713 0.44901 0.6652 0.0
C2263 C 0.35928 0.43562 0.64648 0.0
C2264 C 0.3616 0.48737 0.64423 0.0
C2265 C 0.3493 0.44886 0.62647 0.0
C2266 C 0.34952 0.52771 0.62413 0.0
C2267 C 0.36942 0.55307 0.66401 0.0
N2268 N 0.35053 0.474 0.62596 0.0
N2269 N 0.37068 0.52801 0.66276 0.0
H2270 H 0.6136 0.44056 0.67056 0.0
H2271 H 0.6699 0.56484 0.61317 0.0
H2272 H 0.67591 0.44183 0.62067 0.0
H2273 H 0.62168 0.56363 0.67678 0.0
H2274 H 0.66738 0.51976 0.61102 0.0
H2275 H 0.61149 0.48568 0.66827 0.0
C2276 C 0.62671 0.45028 0.65895 0.0
C2277 C 0.64512 0.43737 0.64596 0.0
C2278 C 0.65727 0.52939 0.62537 0.0
C2279 C 0.64274 0.48901 0.64325 0.0
C2280 C 0.65863 0.55514 0.62658 0.0
C2281 C 0.64617 0.56806 0.64535 0.0
C2282 C 0.64318 0.51643 0.64291 0.0
C2283 C 0.63179 0.55445 0.66215 0.0
C2284 C 0.62554 0.47605 0.65774 0.0
C2285 C 0.66157 0.451 0.63119 0.0
N2286 N 0.63075 0.52938 0.66057 0.0
N2287 N 0.66003 0.47607 0.63029 0.0
H2288 H 0.43814 0.11006 0.84142 0.0
H2289 H 0.56208 0.1821 0.87782 0.0
H2290 H 0.43954 0.18181 0.87646 0.0
H2291 H 0.56166 0.11226 0.8391 0.0
H2292 H 0.51721 0.18018 0.88095 0.0
H2293 H 0.48323 0.1085 0.84391 0.0
C2294 C 0.44788 0.12542 0.8498 0.0
C2295 C 0.43499 0.14623 0.85853 0.0
C2296 C 0.5269 0.1652 0.87186 0.0
C2297 C 0.48666 0.14453 0.86139 0.0
C2298 C 0.55258 0.16628 0.87005 0.0
C2299 C 0.56571 0.14743 0.85793 0.0
C2300 C 0.51411 0.14516 0.86145 0.0
C2301 C 0.55232 0.12729 0.84845 0.0
C2302 C 0.47365 0.12452 0.85118 0.0
C2303 C 0.44865 0.16549 0.86931 0.0
N2304 N 0.52723 0.12677 0.85027 0.0
N2305 N 0.47372 0.16422 0.87029 0.0
H2306 H 0.5641 0.88883 0.83302 0.0
H2307 H 0.43966 0.83043 0.88775 0.0
H2308 H 0.56289 0.82437 0.8801 0.0
H2309 H 0.44109 0.88036 0.82547 0.0
H2310 H 0.48476 0.8326 0.8899 0.0
H2311 H 0.51898 0.89048 0.83492 0.0
C2312 C 0.55439 0.87513 0.84393 0.0
C2313 C 0.56735 0.85629 0.85627 0.0
C2314 C 0.47518 0.84314 0.87583 0.0
C2315 C 0.51563 0.85817 0.85853 0.0
C2316 C 0.44941 0.842 0.87463 0.0
C2317 C 0.43653 0.85508 0.85625 0.0
C2318 C 0.4882 0.85767 0.85872 0.0
C2319 C 0.45022 0.86979 0.8398 0.0
C2320 C 0.52861 0.87605 0.84491 0.0
C2321 C 0.5537 0.83909 0.87013 0.0
N2322 N 0.4753 0.87065 0.84141 0.0
N2323 N 0.5286 0.84041 0.87085 0.0
H2324 H 0.43939 0.16392 0.11018 0.0
H2325 H 0.5632 0.12418 0.18093 0.0
H2326 H 0.44081 0.12458 0.17964 0.0
H2327 H 0.56325 0.16474 0.11217 0.0
H2328 H 0.51831 0.12141 0.17877 0.0
H2329 H 0.48457 0.16162 0.10861 0.0
C2330 C 0.44915 0.15464 0.12501 0.0
C2331 C 0.43624 0.14464 0.14521 0.0
C2332 C 0.5281 0.13083 0.16407 0.0
C2333 C 0.48796 0.142 0.14351 0.0
C2334 C 0.5538 0.13244 0.16529 0.0
C2335 C 0.56708 0.14493 0.14682 0.0
C2336 C 0.51543 0.14185 0.14426 0.0
C2337 C 0.5538 0.15505 0.12691 0.0
C2338 C 0.47496 0.15338 0.1241 0.0
C2339 C 0.44991 0.13276 0.16381 0.0
N2340 N 0.52869 0.15344 0.12624 0.0
N2341 N 0.47498 0.13191 0.16257 0.0
H2342 H 0.56357 0.833 0.11151 0.0
H2343 H 0.43933 0.89055 0.16767 0.0
H2344 H 0.56219 0.88212 0.17445 0.0
H2345 H 0.44066 0.8264 0.12013 0.0
H2346 H 0.48439 0.89299 0.16477 0.0
H2347 H 0.5185 0.83581 0.109 0.0
C2348 C 0.55384 0.84456 0.12466 0.0
C2349 C 0.56667 0.85714 0.1434 0.0
C2350 C 0.47477 0.87848 0.15487 0.0
C2351 C 0.51513 0.86045 0.14054 0.0
C2352 C 0.44905 0.87711 0.15644 0.0
C2353 C 0.43621 0.85806 0.14434 0.0
C2354 C 0.48774 0.86083 0.14092 0.0
C2355 C 0.44981 0.84122 0.13 0.0
C2356 C 0.52811 0.84607 0.12325 0.0
C2357 C 0.55305 0.87188 0.15988 0.0
N2358 N 0.47485 0.84295 0.12875 0.0
N2359 N 0.52802 0.87307 0.15811 0.0
H2360 H 0.44139 0.31515 0.66165 0.0
H2361 H 0.56472 0.36939 0.61145 0.0
H2362 H 0.4388 0.3899 0.63397 0.0
H2363 H 0.56161 0.34371 0.68685 0.0
H2364 H 0.51906 0.36974 0.61032 0.0
H2365 H 0.48676 0.31726 0.66174 0.0
C2366 C 0.45041 0.33188 0.6553 0.0
C2367 C 0.43647 0.3524 0.64777 0.0
C2368 C 0.52853 0.36418 0.62706 0.0
C2369 C 0.48801 0.35465 0.64739 0.0
C2370 C 0.5544 0.3639 0.62771 0.0
C2371 C 0.56679 0.35667 0.64933 0.0
C2372 C 0.5152 0.35628 0.64785 0.0
C2373 C 0.55269 0.34964 0.66994 0.0
C2374 C 0.47617 0.33308 0.6555 0.0
C2375 C 0.449 0.37374 0.63996 0.0
N2376 N 0.52761 0.34924 0.66858 0.0
N2377 N 0.47419 0.37427 0.6397 0.0
H2378 H 0.43934 0.61264 0.33269 0.0
H2379 H 0.56332 0.66975 0.38991 0.0
H2380 H 0.44011 0.67603 0.38124 0.0
H2381 H 0.5622 0.62101 0.32668 0.0
H2382 H 0.51819 0.66729 0.39195 0.0
H2383 H 0.48439 0.61061 0.33542 0.0
C2384 C 0.44893 0.62602 0.34409 0.0
C2385 C 0.43589 0.6447 0.35657 0.0
C2386 C 0.52786 0.65705 0.37772 0.0
C2387 C 0.48752 0.64239 0.35979 0.0
C2388 C 0.55364 0.65836 0.37658 0.0
C2389 C 0.56659 0.64574 0.35794 0.0
C2390 C 0.51494 0.64283 0.36026 0.0
C2391 C 0.553 0.63124 0.34122 0.0
C2392 C 0.47468 0.62488 0.34557 0.0
C2393 C 0.44939 0.66147 0.37111 0.0
N2394 N 0.52793 0.63023 0.34274 0.0
N2395 N 0.47446 0.65996 0.37227 0.0
H2396 H 0.56325 0.39157 0.33937 0.0
H2397 H 0.43981 0.31907 0.37672 0.0
H2398 H 0.56248 0.32071 0.37619 0.0
H2399 H 0.43979 0.3893 0.33871 0.0
H2400 H 0.48474 0.32107 0.37948 0.0
H2401 H 0.51814 0.39276 0.34181 0.0
C2402 C 0.55364 0.37633 0.34811 0.0
C2403 C 0.56672 0.35589 0.35738 0.0
C2404 C 0.47493 0.33611 0.37063 0.0
C2405 C 0.51502 0.35714 0.36018 0.0
C2406 C 0.44922 0.33498 0.36903 0.0
C2407 C 0.43595 0.35393 0.35725 0.0
C2408 C 0.48758 0.35631 0.36034 0.0
C2409 C 0.44922 0.37418 0.34782 0.0
C2410 C 0.52786 0.37703 0.34948 0.0
C2411 C 0.55323 0.33677 0.36862 0.0
N2412 N 0.47431 0.37475 0.34944 0.0
N2413 N 0.52815 0.33781 0.36956 0.0
H2414 H 0.43941 0.68225 0.62307 0.0
H2415 H 0.56349 0.61141 0.66191 0.0
H2416 H 0.43982 0.61225 0.66149 0.0
H2417 H 0.56201 0.6825 0.62557 0.0
H2418 H 0.51839 0.60954 0.65889 0.0
H2419 H 0.48439 0.68072 0.62074 0.0
C2420 C 0.44893 0.66647 0.63092 0.0
C2421 C 0.43575 0.64746 0.64272 0.0
C2422 C 0.52796 0.62547 0.65146 0.0
C2423 C 0.48747 0.64565 0.64016 0.0
C2424 C 0.55373 0.62655 0.65315 0.0
C2425 C 0.56661 0.64726 0.64419 0.0
C2426 C 0.51494 0.64522 0.64071 0.0
C2427 C 0.55293 0.66625 0.63293 0.0
C2428 C 0.47467 0.66562 0.62958 0.0
C2429 C 0.44917 0.6274 0.65235 0.0
N2430 N 0.52788 0.66482 0.63165 0.0
N2431 N 0.4743 0.62711 0.65101 0.0
loop_
_geom_bond_atom_site_label_1
_geom_bond_atom_site_label_2
_geom_bond_distance
_geom_bond_site_symmetry_2
_ccdc_geom_bond_type
Fe0 O2 1.918 . S
Fe0 O5 1.997 . S
Fe0 O6 2.002 . S
Fe0 O11 1.976 . S
Fe0 O14 1.996 . S
Fe1 O2 1.918 . S
Fe1 O9 1.997 . S
Fe1 O12 1.996 . S
Fe1 O16 1.976 . S
Fe1 O19 2.002 . S
O2 Fe0 1.918 . S
O2 Fe1 1.918 . S
O2 Fe3 1.918 . S
Fe3 O2 1.918 . S
Fe3 O4 2.002 . S
Fe3 O13 1.976 . S
Fe3 O17 1.996 . S
Fe3 O20 1.997 . S
O4 Fe3 2.002 . S
O4 C21 1.295 . S
O5 Fe0 1.997 . S
O5 C21 1.235 . S
O6 Fe0 2.002 . S
O6 C7 1.295 . S
C7 O6 1.295 . S
C7 O9 1.235 . S
C8 O13 1.287 . S
C8 O14 1.255 . S
O9 Fe1 1.997 . S
O9 C7 1.235 . S
C10 O16 1.287 . S
C10 O17 1.255 . S
O11 Fe0 1.976 . S
O11 C18 1.287 . S
O12 Fe1 1.996 . S
O12 C18 1.255 . S
O13 Fe3 1.976 . S
O13 C8 1.287 . S
O14 Fe0 1.996 . S
O14 C8 1.255 . S
C15 O19 1.295 . S
C15 O20 1.235 . S
O16 Fe1 1.976 . S
O16 C10 1.287 . S
O17 Fe3 1.996 . S
O17 C10 1.255 . S
C18 O11 1.287 . S
C18 O12 1.255 . S
O19 Fe1 2.002 . S
O19 C15 1.295 . S
O20 Fe3 1.997 . S
O20 C15 1.235 . S
C21 O4 1.295 . S
C21 O5 1.235 . S
Fe22 O24 1.918 . S
Fe22 O27 1.997 . S
Fe22 O28 2.002 . S
Fe22 O33 1.976 . S
Fe22 O36 1.996 . S
Fe23 O24 1.918 . S
Fe23 O31 1.997 . S
Fe23 O34 1.996 . S
Fe23 O38 1.976 . S
Fe23 O41 2.002 . S
O24 Fe22 1.918 . S
O24 Fe23 1.918 . S
O24 Fe25 1.918 . S
Fe25 O24 1.918 . S
Fe25 O26 2.002 . S
Fe25 O35 1.976 . S
Fe25 O39 1.996 . S
Fe25 O42 1.997 . S
O26 Fe25 2.002 . S
O26 C43 1.295 . S
O27 Fe22 1.997 . S
O27 C43 1.235 . S
O28 Fe22 2.002 . S
O28 C29 1.295 . S
C29 O28 1.295 . S
C29 O31 1.235 . S
C30 O35 1.287 . S
C30 O36 1.255 . S
O31 Fe23 1.997 . S
O31 C29 1.235 . S
C32 O38 1.287 . S
C32 O39 1.255 . S
O33 Fe22 1.976 . S
O33 C40 1.287 . S
O34 Fe23 1.996 . S
O34 C40 1.255 . S
O35 Fe25 1.976 . S
O35 C30 1.287 . S
O36 Fe22 1.996 . S
O36 C30 1.255 . S
C37 O41 1.295 . S
C37 O42 1.235 . S
O38 Fe23 1.976 . S
O38 C32 1.287 . S
O39 Fe25 1.996 . S
O39 C32 1.255 . S
C40 O33 1.287 . S
C40 O34 1.255 . S
O41 Fe23 2.002 . S
O41 C37 1.295 . S
O42 Fe25 1.997 . S
O42 C37 1.235 . S
C43 O26 1.295 . S
C43 O27 1.235 . S
Fe44 O46 1.918 . S
Fe44 O49 1.997 . S
Fe44 O50 2.002 . S
Fe44 O55 1.976 . S
Fe44 O58 1.996 . S
Fe45 O46 1.918 . S
Fe45 O53 1.997 . S
Fe45 O56 1.996 . S
Fe45 O60 1.976 . S
Fe45 O63 2.002 . S
O46 Fe44 1.918 . S
O46 Fe45 1.918 . S
O46 Fe47 1.918 . S
Fe47 O46 1.918 . S
Fe47 O48 2.002 . S
Fe47 O57 1.976 . S
Fe47 O61 1.996 . S
Fe47 O64 1.997 . S
O48 Fe47 2.002 . S
O48 C65 1.295 . S
O49 Fe44 1.997 . S
O49 C65 1.235 . S
O50 Fe44 2.002 . S
O50 C51 1.295 . S
C51 O50 1.295 . S
C51 O53 1.235 . S
C52 O57 1.287 . S
C52 O58 1.255 . S
O53 Fe45 1.997 . S
O53 C51 1.235 . S
C54 O60 1.287 . S
C54 O61 1.255 . S
O55 Fe44 1.976 . S
O55 C62 1.287 . S
O56 Fe45 1.996 . S
O56 C62 1.255 . S
O57 Fe47 1.976 . S
O57 C52 1.287 . S
O58 Fe44 1.996 . S
O58 C52 1.255 . S
C59 O63 1.295 . S
C59 O64 1.235 . S
O60 Fe45 1.976 . S
O60 C54 1.287 . S
O61 Fe47 1.996 . S
O61 C54 1.255 . S
C62 O55 1.287 . S
C62 O56 1.255 . S
O63 Fe45 2.002 . S
O63 C59 1.295 . S
O64 Fe47 1.997 . S
O64 C59 1.235 . S
C65 O48 1.295 . S
C65 O49 1.235 . S
Fe66 O68 1.918 . S
Fe66 O71 1.997 . S
Fe66 O72 2.002 . S
Fe66 O77 1.976 . S
Fe66 O80 1.996 . S
Fe67 O68 1.918 . S
Fe67 O75 1.997 . S
Fe67 O78 1.996 . S
Fe67 O82 1.976 . S
Fe67 O85 2.002 . S
O68 Fe66 1.918 . S
O68 Fe67 1.918 . S
O68 Fe69 1.918 . S
Fe69 O68 1.918 . S
Fe69 O70 2.002 . S
Fe69 O79 1.976 . S
Fe69 O83 1.996 . S
Fe69 O86 1.997 . S
O70 Fe69 2.002 . S
O70 C87 1.295 . S
O71 Fe66 1.997 . S
O71 C87 1.235 . S
O72 Fe66 2.002 . S
O72 C73 1.295 . S
C73 O72 1.295 . S
C73 O75 1.235 . S
C74 O79 1.287 . S
C74 O80 1.255 . S
O75 Fe67 1.997 . S
O75 C73 1.235 . S
C76 O82 1.287 . S
C76 O83 1.255 . S
O77 Fe66 1.976 . S
O77 C84 1.287 . S
O78 Fe67 1.996 . S
O78 C84 1.255 . S
O79 Fe69 1.976 . S
O79 C74 1.287 . S
O80 Fe66 1.996 . S
O80 C74 1.255 . S
C81 O85 1.295 . S
C81 O86 1.235 . S
O82 Fe67 1.976 . S
O82 C76 1.287 . S
O83 Fe69 1.996 . S
O83 C76 1.255 . S
C84 O77 1.287 . S
C84 O78 1.255 . S
O85 Fe67 2.002 . S
O85 C81 1.295 . S
O86 Fe69 1.997 . S
O86 C81 1.235 . S
C87 O70 1.295 . S
C87 O71 1.235 . S
Fe88 O90 1.918 . S
Fe88 O93 1.997 . S
Fe88 O94 2.002 . S
Fe88 O99 1.976 . S
Fe88 O102 1.996 . S
Fe89 O90 1.918 . S
Fe89 O97 1.997 . S
Fe89 O100 1.996 . S
Fe89 O104 1.976 . S
Fe89 O107 2.002 . S
O90 Fe88 1.918 . S
O90 Fe89 1.918 . S
O90 Fe91 1.918 . S
Fe91 O90 1.918 . S
Fe91 O92 2.002 . S
Fe91 O101 1.976 . S
Fe91 O105 1.996 . S
Fe91 O108 1.997 . S
O92 Fe91 2.002 . S
O92 C109 1.295 . S
O93 Fe88 1.997 . S
O93 C109 1.235 . S
O94 Fe88 2.002 . S
O94 C95 1.295 . S
C95 O94 1.295 . S
C95 O97 1.235 . S
C96 O101 1.287 . S
C96 O102 1.255 . S
O97 Fe89 1.997 . S
O97 C95 1.235 . S
C98 O104 1.287 . S
C98 O105 1.255 . S
O99 Fe88 1.976 . S
O99 C106 1.287 . S
O100 Fe89 1.996 . S
O100 C106 1.255 . S
O101 Fe91 1.976 . S
O101 C96 1.287 . S
O102 Fe88 1.996 . S
O102 C96 1.255 . S
C103 O107 1.295 . S
C103 O108 1.235 . S
O104 Fe89 1.976 . S
O104 C98 1.287 . S
O105 Fe91 1.996 . S
O105 C98 1.255 . S
C106 O99 1.287 . S
C106 O100 1.255 . S
O107 Fe89 2.002 . S
O107 C103 1.295 . S
O108 Fe91 1.997 . S
O108 C103 1.235 . S
C109 O92 1.295 . S
C109 O93 1.235 . S
Fe110 O112 1.918 . S
Fe110 O115 1.997 . S
Fe110 O116 2.002 . S
Fe110 O121 1.976 . S
Fe110 O124 1.996 . S
Fe111 O112 1.918 . S
Fe111 O119 1.997 . S
Fe111 O122 1.996 . S
Fe111 O126 1.976 . S
Fe111 O129 2.002 . S
O112 Fe110 1.918 . S
O112 Fe111 1.918 . S
O112 Fe113 1.918 . S
Fe113 O112 1.918 . S
Fe113 O114 2.002 . S
Fe113 O123 1.976 . S
Fe113 O127 1.996 . S
Fe113 O130 1.997 . S
O114 Fe113 2.002 . S
O114 C131 1.295 . S
O115 Fe110 1.997 . S
O115 C131 1.235 . S
O116 Fe110 2.002 . S
O116 C117 1.295 . S
C117 O116 1.295 . S
C117 O119 1.235 . S
C118 O123 1.287 . S
C118 O124 1.255 . S
O119 Fe111 1.997 . S
O119 C117 1.235 . S
C120 O126 1.287 . S
C120 O127 1.255 . S
O121 Fe110 1.976 . S
O121 C128 1.287 . S
O122 Fe111 1.996 . S
O122 C128 1.255 . S
O123 Fe113 1.976 . S
O123 C118 1.287 . S
O124 Fe110 1.996 . S
O124 C118 1.255 . S
C125 O129 1.295 . S
C125 O130 1.235 . S
O126 Fe111 1.976 . S
O126 C120 1.287 . S
O127 Fe113 1.996 . S
O127 C120 1.255 . S
C128 O121 1.287 . S
C128 O122 1.255 . S
O129 Fe111 2.002 . S
O129 C125 1.295 . S
O130 Fe113 1.997 . S
O130 C125 1.235 . S
C131 O114 1.295 . S
C131 O115 1.235 . S
Fe132 O134 1.918 . S
Fe132 O137 1.997 . S
Fe132 O138 2.002 . S
Fe132 O143 1.976 . S
Fe132 O146 1.996 . S
Fe133 O134 1.918 . S
Fe133 O141 1.997 . S
Fe133 O144 1.996 . S
Fe133 O148 1.976 . S
Fe133 O151 2.002 . S
O134 Fe132 1.918 . S
O134 Fe133 1.918 . S
O134 Fe135 1.918 . S
Fe135 O134 1.918 . S
Fe135 O136 2.002 . S
Fe135 O145 1.976 . S
Fe135 O149 1.996 . S
Fe135 O152 1.997 . S
O136 Fe135 2.002 . S
O136 C153 1.295 . S
O137 Fe132 1.997 . S
O137 C153 1.235 . S
O138 Fe132 2.002 . S
O138 C139 1.295 . S
C139 O138 1.295 . S
C139 O141 1.235 . S
C140 O145 1.287 . S
C140 O146 1.255 . S
O141 Fe133 1.997 . S
O141 C139 1.235 . S
C142 O148 1.287 . S
C142 O149 1.255 . S
O143 Fe132 1.976 . S
O143 C150 1.287 . S
O144 Fe133 1.996 . S
O144 C150 1.255 . S
O145 Fe135 1.976 . S
O145 C140 1.287 . S
O146 Fe132 1.996 . S
O146 C140 1.255 . S
C147 O151 1.295 . S
C147 O152 1.235 . S
O148 Fe133 1.976 . S
O148 C142 1.287 . S
O149 Fe135 1.996 . S
O149 C142 1.255 . S
C150 O143 1.287 . S
C150 O144 1.255 . S
O151 Fe133 2.002 . S
O151 C147 1.295 . S
O152 Fe135 1.997 . S
O152 C147 1.235 . S
C153 O136 1.295 . S
C153 O137 1.235 . S
Fe154 O156 1.918 . S
Fe154 O159 1.997 . S
Fe154 O160 2.002 . S
Fe154 O165 1.976 . S
Fe154 O168 1.996 . S
Fe155 O156 1.918 . S
Fe155 O163 1.997 . S
Fe155 O166 1.996 . S
Fe155 O170 1.976 . S
Fe155 O173 2.002 . S
O156 Fe154 1.918 . S
O156 Fe155 1.918 . S
O156 Fe157 1.918 . S
Fe157 O156 1.918 . S
Fe157 O158 2.002 . S
Fe157 O167 1.976 . S
Fe157 O171 1.996 . S
Fe157 O174 1.997 . S
O158 Fe157 2.002 . S
O158 C175 1.295 . S
O159 Fe154 1.997 . S
O159 C175 1.235 . S
O160 Fe154 2.002 . S
O160 C161 1.295 . S
C161 O160 1.295 . S
C161 O163 1.235 . S
C162 O167 1.287 . S
C162 O168 1.255 . S
O163 Fe155 1.997 . S
O163 C161 1.235 . S
C164 O170 1.287 . S
C164 O171 1.255 . S
O165 Fe154 1.976 . S
O165 C172 1.287 . S
O166 Fe155 1.996 . S
O166 C172 1.255 . S
O167 Fe157 1.976 . S
O167 C162 1.287 . S
O168 Fe154 1.996 . S
O168 C162 1.255 . S
C169 O173 1.295 . S
C169 O174 1.235 . S
O170 Fe155 1.976 . S
O170 C164 1.287 . S
O171 Fe157 1.996 . S
O171 C164 1.255 . S
C172 O165 1.287 . S
C172 O166 1.255 . S
O173 Fe155 2.002 . S
O173 C169 1.295 . S
O174 Fe157 1.997 . S
O174 C169 1.235 . S
C175 O158 1.295 . S
C175 O159 1.235 . S
Fe176 O178 1.918 . S
Fe176 O181 1.997 . S
Fe176 O182 2.002 . S
Fe176 O187 1.976 . S
Fe176 O190 1.996 . S
Fe177 O178 1.918 . S
Fe177 O185 1.997 . S
Fe177 O188 1.996 . S
Fe177 O192 1.976 . S
Fe177 O195 2.002 . S
O178 Fe176 1.918 . S
O178 Fe177 1.918 . S
O178 Fe179 1.918 . S
Fe179 O178 1.918 . S
Fe179 O180 2.002 . S
Fe179 O189 1.976 . S
Fe179 O193 1.996 . S
Fe179 O196 1.997 . S
O180 Fe179 2.002 . S
O180 C197 1.295 . S
O181 Fe176 1.997 . S
O181 C197 1.235 . S
O182 Fe176 2.002 . S
O182 C183 1.295 . S
C183 O182 1.295 . S
C183 O185 1.235 . S
C184 O189 1.287 . S
C184 O190 1.255 . S
O185 Fe177 1.997 . S
O185 C183 1.235 . S
C186 O192 1.287 . S
C186 O193 1.255 . S
O187 Fe176 1.976 . S
O187 C194 1.287 . S
O188 Fe177 1.996 . S
O188 C194 1.255 . S
O189 Fe179 1.976 . S
O189 C184 1.287 . S
O190 Fe176 1.996 . S
O190 C184 1.255 . S
C191 O195 1.295 . S
C191 O196 1.235 . S
O192 Fe177 1.976 . S
O192 C186 1.287 . S
O193 Fe179 1.996 . S
O193 C186 1.255 . S
C194 O187 1.287 . S
C194 O188 1.255 . S
O195 Fe177 2.002 . S
O195 C191 1.295 . S
O196 Fe179 1.997 . S
O196 C191 1.235 . S
C197 O180 1.295 . S
C197 O181 1.235 . S
Fe198 O200 1.918 . S
Fe198 O203 1.997 . S
Fe198 O204 2.002 . S
Fe198 O209 1.976 . S
Fe198 O212 1.996 . S
Fe199 O200 1.918 . S
Fe199 O207 1.997 . S
Fe199 O210 1.996 . S
Fe199 O214 1.976 . S
Fe199 O217 2.002 . S
O200 Fe198 1.918 . S
O200 Fe199 1.918 . S
O200 Fe201 1.918 . S
Fe201 O200 1.918 . S
Fe201 O202 2.002 . S
Fe201 O211 1.976 . S
Fe201 O215 1.996 . S
Fe201 O218 1.997 . S
O202 Fe201 2.002 . S
O202 C219 1.295 . S
O203 Fe198 1.997 . S
O203 C219 1.235 . S
O204 Fe198 2.002 . S
O204 C205 1.295 . S
C205 O204 1.295 . S
C205 O207 1.235 . S
C206 O211 1.287 . S
C206 O212 1.255 . S
O207 Fe199 1.997 . S
O207 C205 1.235 . S
C208 O214 1.287 . S
C208 O215 1.255 . S
O209 Fe198 1.976 . S
O209 C216 1.287 . S
O210 Fe199 1.996 . S
O210 C216 1.255 . S
O211 Fe201 1.976 . S
O211 C206 1.287 . S
O212 Fe198 1.996 . S
O212 C206 1.255 . S
C213 O217 1.295 . S
C213 O218 1.235 . S
O214 Fe199 1.976 . S
O214 C208 1.287 . S
O215 Fe201 1.996 . S
O215 C208 1.255 . S
C216 O209 1.287 . S
C216 O210 1.255 . S
O217 Fe199 2.002 . S
O217 C213 1.295 . S
O218 Fe201 1.997 . S
O218 C213 1.235 . S
C219 O202 1.295 . S
C219 O203 1.235 . S
Fe220 O222 1.918 . S
Fe220 O225 1.997 . S
Fe220 O226 2.002 . S
Fe220 O231 1.976 . S
Fe220 O234 1.996 . S
Fe221 O222 1.918 . S
Fe221 O229 1.997 . S
Fe221 O232 1.996 . S
Fe221 O236 1.976 . S
Fe221 O239 2.002 . S
O222 Fe220 1.918 . S
O222 Fe221 1.918 . S
O222 Fe223 1.918 . S
Fe223 O222 1.918 . S
Fe223 O224 2.002 . S
Fe223 O233 1.976 . S
Fe223 O237 1.996 . S
Fe223 O240 1.997 . S
O224 Fe223 2.002 . S
O224 C241 1.295 . S
O225 Fe220 1.997 . S
O225 C241 1.235 . S
O226 Fe220 2.002 . S
O226 C227 1.295 . S
C227 O226 1.295 . S
C227 O229 1.235 . S
C228 O233 1.287 . S
C228 O234 1.255 . S
O229 Fe221 1.997 . S
O229 C227 1.235 . S
C230 O236 1.287 . S
C230 O237 1.255 . S
O231 Fe220 1.976 . S
O231 C238 1.287 . S
O232 Fe221 1.996 . S
O232 C238 1.255 . S
O233 Fe223 1.976 . S
O233 C228 1.287 . S
O234 Fe220 1.996 . S
O234 C228 1.255 . S
C235 O239 1.295 . S
C235 O240 1.235 . S
O236 Fe221 1.976 . S
O236 C230 1.287 . S
O237 Fe223 1.996 . S
O237 C230 1.255 . S
C238 O231 1.287 . S
C238 O232 1.255 . S
O239 Fe221 2.002 . S
O239 C235 1.295 . S
O240 Fe223 1.997 . S
O240 C235 1.235 . S
C241 O224 1.295 . S
C241 O225 1.235 . S
Fe242 O244 1.918 . S
Fe242 O247 1.997 . S
Fe242 O248 2.002 . S
Fe242 O253 1.976 . S
Fe242 O256 1.996 . S
Fe243 O244 1.918 . S
Fe243 O251 1.997 . S
Fe243 O254 1.996 . S
Fe243 O258 1.976 . S
Fe243 O261 2.002 . S
O244 Fe242 1.918 . S
O244 Fe243 1.918 . S
O244 Fe245 1.918 . S
Fe245 O244 1.918 . S
Fe245 O246 2.002 . S
Fe245 O255 1.976 . S
Fe245 O259 1.996 . S
Fe245 O262 1.997 . S
O246 Fe245 2.002 . S
O246 C263 1.295 . S
O247 Fe242 1.997 . S
O247 C263 1.235 . S
O248 Fe242 2.002 . S
O248 C249 1.295 . S
C249 O248 1.295 . S
C249 O251 1.235 . S
C250 O255 1.287 . S
C250 O256 1.255 . S
O251 Fe243 1.997 . S
O251 C249 1.235 . S
C252 O258 1.287 . S
C252 O259 1.255 . S
O253 Fe242 1.976 . S
O253 C260 1.287 . S
O254 Fe243 1.996 . S
O254 C260 1.255 . S
O255 Fe245 1.976 . S
O255 C250 1.287 . S
O256 Fe242 1.996 . S
O256 C250 1.255 . S
C257 O261 1.295 . S
C257 O262 1.235 . S
O258 Fe243 1.976 . S
O258 C252 1.287 . S
O259 Fe245 1.996 . S
O259 C252 1.255 . S
C260 O253 1.287 . S
C260 O254 1.255 . S
O261 Fe243 2.002 . S
O261 C257 1.295 . S
O262 Fe245 1.997 . S
O262 C257 1.235 . S
C263 O246 1.295 . S
C263 O247 1.235 . S
Fe264 O266 1.918 . S
Fe264 O269 1.997 . S
Fe264 O270 2.002 . S
Fe264 O275 1.976 . S
Fe264 O278 1.996 . S
Fe265 O266 1.918 . S
Fe265 O273 1.997 . S
Fe265 O276 1.996 . S
Fe265 O280 1.976 . S
Fe265 O283 2.002 . S
O266 Fe264 1.918 . S
O266 Fe265 1.918 . S
O266 Fe267 1.918 . S
Fe267 O266 1.918 . S
Fe267 O268 2.002 . S
Fe267 O277 1.976 . S
Fe267 O281 1.996 . S
Fe267 O284 1.997 . S
O268 Fe267 2.002 . S
O268 C285 1.295 . S
O269 Fe264 1.997 . S
O269 C285 1.235 . S
O270 Fe264 2.002 . S
O270 C271 1.295 . S
C271 O270 1.295 . S
C271 O273 1.235 . S
C272 O277 1.287 . S
C272 O278 1.255 . S
O273 Fe265 1.997 . S
O273 C271 1.235 . S
C274 O280 1.287 . S
C274 O281 1.255 . S
O275 Fe264 1.976 . S
O275 C282 1.287 . S
O276 Fe265 1.996 . S
O276 C282 1.255 . S
O277 Fe267 1.976 . S
O277 C272 1.287 . S
O278 Fe264 1.996 . S
O278 C272 1.255 . S
C279 O283 1.295 . S
C279 O284 1.235 . S
O280 Fe265 1.976 . S
O280 C274 1.287 . S
O281 Fe267 1.996 . S
O281 C274 1.255 . S
C282 O275 1.287 . S
C282 O276 1.255 . S
O283 Fe265 2.002 . S
O283 C279 1.295 . S
O284 Fe267 1.997 . S
O284 C279 1.235 . S
C285 O268 1.295 . S
C285 O269 1.235 . S
Fe286 O288 1.918 . S
Fe286 O291 1.997 . S
Fe286 O292 2.002 . S
Fe286 O297 1.976 . S
Fe286 O300 1.996 . S
Fe287 O288 1.918 . S
Fe287 O295 1.997 . S
Fe287 O298 1.996 . S
Fe287 O302 1.976 . S
Fe287 O305 2.002 . S
O288 Fe286 1.918 . S
O288 Fe287 1.918 . S
O288 Fe289 1.918 . S
Fe289 O288 1.918 . S
Fe289 O290 2.002 . S
Fe289 O299 1.976 . S
Fe289 O303 1.996 . S
Fe289 O306 1.997 . S
O290 Fe289 2.002 . S
O290 C307 1.295 . S
O291 Fe286 1.997 . S
O291 C307 1.235 . S
O292 Fe286 2.002 . S
O292 C293 1.295 . S
C293 O292 1.295 . S
C293 O295 1.235 . S
C294 O299 1.287 . S
C294 O300 1.255 . S
O295 Fe287 1.997 . S
O295 C293 1.235 . S
C296 O302 1.287 . S
C296 O303 1.255 . S
O297 Fe286 1.976 . S
O297 C304 1.287 . S
O298 Fe287 1.996 . S
O298 C304 1.255 . S
O299 Fe289 1.976 . S
O299 C294 1.287 . S
O300 Fe286 1.996 . S
O300 C294 1.255 . S
C301 O305 1.295 . S
C301 O306 1.235 . S
O302 Fe287 1.976 . S
O302 C296 1.287 . S
O303 Fe289 1.996 . S
O303 C296 1.255 . S
C304 O297 1.287 . S
C304 O298 1.255 . S
O305 Fe287 2.002 . S
O305 C301 1.295 . S
O306 Fe289 1.997 . S
O306 C301 1.235 . S
C307 O290 1.295 . S
C307 O291 1.235 . S
Fe308 O310 1.918 . S
Fe308 O313 1.997 . S
Fe308 O314 2.002 . S
Fe308 O319 1.976 . S
Fe308 O322 1.996 . S
Fe309 O310 1.918 . S
Fe309 O317 1.997 . S
Fe309 O320 1.996 . S
Fe309 O324 1.976 . S
Fe309 O327 2.002 . S
O310 Fe308 1.918 . S
O310 Fe309 1.918 . S
O310 Fe311 1.918 . S
Fe311 O310 1.918 . S
Fe311 O312 2.002 . S
Fe311 O321 1.976 . S
Fe311 O325 1.996 . S
Fe311 O328 1.997 . S
O312 Fe311 2.002 . S
O312 C329 1.295 . S
O313 Fe308 1.997 . S
O313 C329 1.235 . S
O314 Fe308 2.002 . S
O314 C315 1.295 . S
C315 O314 1.295 . S
C315 O317 1.235 . S
C316 O321 1.287 . S
C316 O322 1.255 . S
O317 Fe309 1.997 . S
O317 C315 1.235 . S
C318 O324 1.287 . S
C318 O325 1.255 . S
O319 Fe308 1.976 . S
O319 C326 1.287 . S
O320 Fe309 1.996 . S
O320 C326 1.255 . S
O321 Fe311 1.976 . S
O321 C316 1.287 . S
O322 Fe308 1.996 . S
O322 C316 1.255 . S
C323 O327 1.295 . S
C323 O328 1.235 . S
O324 Fe309 1.976 . S
O324 C318 1.287 . S
O325 Fe311 1.996 . S
O325 C318 1.255 . S
C326 O319 1.287 . S
C326 O320 1.255 . S
O327 Fe309 2.002 . S
O327 C323 1.295 . S
O328 Fe311 1.997 . S
O328 C323 1.235 . S
C329 O312 1.295 . S
C329 O313 1.235 . S
Fe330 O332 1.918 . S
Fe330 O335 1.997 . S
Fe330 O336 2.002 . S
Fe330 O341 1.976 . S
Fe330 O344 1.996 . S
Fe331 O332 1.918 . S
Fe331 O339 1.997 . S
Fe331 O342 1.996 . S
Fe331 O346 1.976 . S
Fe331 O349 2.002 . S
O332 Fe330 1.918 . S
O332 Fe331 1.918 . S
O332 Fe333 1.918 . S
Fe333 O332 1.918 . S
Fe333 O334 2.002 . S
Fe333 O343 1.976 . S
Fe333 O347 1.996 . S
Fe333 O350 1.997 . S
O334 Fe333 2.002 . S
O334 C351 1.295 . S
O335 Fe330 1.997 . S
O335 C351 1.235 . S
O336 Fe330 2.002 . S
O336 C337 1.295 . S
C337 O336 1.295 . S
C337 O339 1.235 . S
C338 O343 1.287 . S
C338 O344 1.255 . S
O339 Fe331 1.997 . S
O339 C337 1.235 . S
C340 O346 1.287 . S
C340 O347 1.255 . S
O341 Fe330 1.976 . S
O341 C348 1.287 . S
O342 Fe331 1.996 . S
O342 C348 1.255 . S
O343 Fe333 1.976 . S
O343 C338 1.287 . S
O344 Fe330 1.996 . S
O344 C338 1.255 . S
C345 O349 1.295 . S
C345 O350 1.235 . S
O346 Fe331 1.976 . S
O346 C340 1.287 . S
O347 Fe333 1.996 . S
O347 C340 1.255 . S
C348 O341 1.287 . S
C348 O342 1.255 . S
O349 Fe331 2.002 . S
O349 C345 1.295 . S
O350 Fe333 1.997 . S
O350 C345 1.235 . S
C351 O334 1.295 . S
C351 O335 1.235 . S
Fe352 O354 1.918 . S
Fe352 O357 1.997 . S
Fe352 O358 2.002 . S
Fe352 O363 1.976 . S
Fe352 O366 1.996 . S
Fe353 O354 1.918 . S
Fe353 O361 1.997 . S
Fe353 O364 1.996 . S
Fe353 O368 1.976 . S
Fe353 O371 2.002 . S
O354 Fe352 1.918 . S
O354 Fe353 1.918 . S
O354 Fe355 1.918 . S
Fe355 O354 1.918 . S
Fe355 O356 2.002 . S
Fe355 O365 1.976 . S
Fe355 O369 1.996 . S
Fe355 O372 1.997 . S
O356 Fe355 2.002 . S
O356 C373 1.295 . S
O357 Fe352 1.997 . S
O357 C373 1.235 . S
O358 Fe352 2.002 . S
O358 C359 1.295 . S
C359 O358 1.295 . S
C359 O361 1.235 . S
C360 O365 1.287 . S
C360 O366 1.255 . S
O361 Fe353 1.997 . S
O361 C359 1.235 . S
C362 O368 1.287 . S
C362 O369 1.255 . S
O363 Fe352 1.976 . S
O363 C370 1.287 . S
O364 Fe353 1.996 . S
O364 C370 1.255 . S
O365 Fe355 1.976 . S
O365 C360 1.287 . S
O366 Fe352 1.996 . S
O366 C360 1.255 . S
C367 O371 1.295 . S
C367 O372 1.235 . S
O368 Fe353 1.976 . S
O368 C362 1.287 . S
O369 Fe355 1.996 . S
O369 C362 1.255 . S
C370 O363 1.287 . S
C370 O364 1.255 . S
O371 Fe353 2.002 . S
O371 C367 1.295 . S
O372 Fe355 1.997 . S
O372 C367 1.235 . S
C373 O356 1.295 . S
C373 O357 1.235 . S
Fe374 O376 1.918 . S
Fe374 O379 1.997 . S
Fe374 O380 2.002 . S
Fe374 O385 1.976 . S
Fe374 O388 1.996 . S
Fe375 O376 1.918 . S
Fe375 O383 1.997 . S
Fe375 O386 1.996 . S
Fe375 O390 1.976 . S
Fe375 O393 2.002 . S
O376 Fe374 1.918 . S
O376 Fe375 1.918 . S
O376 Fe377 1.918 . S
Fe377 O376 1.918 . S
Fe377 O378 2.002 . S
Fe377 O387 1.976 . S
Fe377 O391 1.996 . S
Fe377 O394 1.997 . S
O378 Fe377 2.002 . S
O378 C395 1.295 . S
O379 Fe374 1.997 . S
O379 C395 1.235 . S
O380 Fe374 2.002 . S
O380 C381 1.295 . S
C381 O380 1.295 . S
C381 O383 1.235 . S
C382 O387 1.287 . S
C382 O388 1.255 . S
O383 Fe375 1.997 . S
O383 C381 1.235 . S
C384 O390 1.287 . S
C384 O391 1.255 . S
O385 Fe374 1.976 . S
O385 C392 1.287 . S
O386 Fe375 1.996 . S
O386 C392 1.255 . S
O387 Fe377 1.976 . S
O387 C382 1.287 . S
O388 Fe374 1.996 . S
O388 C382 1.255 . S
C389 O393 1.295 . S
C389 O394 1.235 . S
O390 Fe375 1.976 . S
O390 C384 1.287 . S
O391 Fe377 1.996 . S
O391 C384 1.255 . S
C392 O385 1.287 . S
C392 O386 1.255 . S
O393 Fe375 2.002 . S
O393 C389 1.295 . S
O394 Fe377 1.997 . S
O394 C389 1.235 . S
C395 O378 1.295 . S
C395 O379 1.235 . S
Fe396 O398 1.918 . S
Fe396 O401 1.997 . S
Fe396 O402 2.002 . S
Fe396 O407 1.976 . S
Fe396 O410 1.996 . S
Fe397 O398 1.918 . S
Fe397 O405 1.997 . S
Fe397 O408 1.996 . S
Fe397 O412 1.976 . S
Fe397 O415 2.002 . S
O398 Fe396 1.918 . S
O398 Fe397 1.918 . S
O398 Fe399 1.918 . S
Fe399 O398 1.918 . S
Fe399 O400 2.002 . S
Fe399 O409 1.976 . S
Fe399 O413 1.996 . S
Fe399 O416 1.997 . S
O400 Fe399 2.002 . S
O400 C417 1.295 . S
O401 Fe396 1.997 . S
O401 C417 1.235 . S
O402 Fe396 2.002 . S
O402 C403 1.295 . S
C403 O402 1.295 . S
C403 O405 1.235 . S
C404 O409 1.287 . S
C404 O410 1.255 . S
O405 Fe397 1.997 . S
O405 C403 1.235 . S
C406 O412 1.287 . S
C406 O413 1.255 . S
O407 Fe396 1.976 . S
O407 C414 1.287 . S
O408 Fe397 1.996 . S
O408 C414 1.255 . S
O409 Fe399 1.976 . S
O409 C404 1.287 . S
O410 Fe396 1.996 . S
O410 C404 1.255 . S
C411 O415 1.295 . S
C411 O416 1.235 . S
O412 Fe397 1.976 . S
O412 C406 1.287 . S
O413 Fe399 1.996 . S
O413 C406 1.255 . S
C414 O407 1.287 . S
C414 O408 1.255 . S
O415 Fe397 2.002 . S
O415 C411 1.295 . S
O416 Fe399 1.997 . S
O416 C411 1.235 . S
C417 O400 1.295 . S
C417 O401 1.235 . S
Fe418 O420 1.918 . S
Fe418 O423 1.997 . S
Fe418 O424 2.002 . S
Fe418 O429 1.976 . S
Fe418 O432 1.996 . S
Fe419 O420 1.918 . S
Fe419 O427 1.997 . S
Fe419 O430 1.996 . S
Fe419 O434 1.976 . S
Fe419 O437 2.002 . S
O420 Fe418 1.918 . S
O420 Fe419 1.918 . S
O420 Fe421 1.918 . S
Fe421 O420 1.918 . S
Fe421 O422 2.002 . S
Fe421 O431 1.976 . S
Fe421 O435 1.996 . S
Fe421 O438 1.997 . S
O422 Fe421 2.002 . S
O422 C439 1.295 . S
O423 Fe418 1.997 . S
O423 C439 1.235 . S
O424 Fe418 2.002 . S
O424 C425 1.295 . S
C425 O424 1.295 . S
C425 O427 1.235 . S
C426 O431 1.287 . S
C426 O432 1.255 . S
O427 Fe419 1.997 . S
O427 C425 1.235 . S
C428 O434 1.287 . S
C428 O435 1.255 . S
O429 Fe418 1.976 . S
O429 C436 1.287 . S
O430 Fe419 1.996 . S
O430 C436 1.255 . S
O431 Fe421 1.976 . S
O431 C426 1.287 . S
O432 Fe418 1.996 . S
O432 C426 1.255 . S
C433 O437 1.295 . S
C433 O438 1.235 . S
O434 Fe419 1.976 . S
O434 C428 1.287 . S
O435 Fe421 1.996 . S
O435 C428 1.255 . S
C436 O429 1.287 . S
C436 O430 1.255 . S
O437 Fe419 2.002 . S
O437 C433 1.295 . S
O438 Fe421 1.997 . S
O438 C433 1.235 . S
C439 O422 1.295 . S
C439 O423 1.235 . S
Fe440 O442 1.918 . S
Fe440 O445 1.997 . S
Fe440 O446 2.002 . S
Fe440 O451 1.976 . S
Fe440 O454 1.996 . S
Fe441 O442 1.918 . S
Fe441 O449 1.997 . S
Fe441 O452 1.996 . S
Fe441 O456 1.976 . S
Fe441 O459 2.002 . S
O442 Fe440 1.918 . S
O442 Fe441 1.918 . S
O442 Fe443 1.918 . S
Fe443 O442 1.918 . S
Fe443 O444 2.002 . S
Fe443 O453 1.976 . S
Fe443 O457 1.996 . S
Fe443 O460 1.997 . S
O444 Fe443 2.002 . S
O444 C461 1.295 . S
O445 Fe440 1.997 . S
O445 C461 1.235 . S
O446 Fe440 2.002 . S
O446 C447 1.295 . S
C447 O446 1.295 . S
C447 O449 1.235 . S
C448 O453 1.287 . S
C448 O454 1.255 . S
O449 Fe441 1.997 . S
O449 C447 1.235 . S
C450 O456 1.287 . S
C450 O457 1.255 . S
O451 Fe440 1.976 . S
O451 C458 1.287 . S
O452 Fe441 1.996 . S
O452 C458 1.255 . S
O453 Fe443 1.976 . S
O453 C448 1.287 . S
O454 Fe440 1.996 . S
O454 C448 1.255 . S
C455 O459 1.295 . S
C455 O460 1.235 . S
O456 Fe441 1.976 . S
O456 C450 1.287 . S
O457 Fe443 1.996 . S
O457 C450 1.255 . S
C458 O451 1.287 . S
C458 O452 1.255 . S
O459 Fe441 2.002 . S
O459 C455 1.295 . S
O460 Fe443 1.997 . S
O460 C455 1.235 . S
C461 O444 1.295 . S
C461 O445 1.235 . S
Fe462 O464 1.918 . S
Fe462 O467 1.997 . S
Fe462 O468 2.002 . S
Fe462 O473 1.976 . S
Fe462 O476 1.996 . S
Fe463 O464 1.918 . S
Fe463 O471 1.997 . S
Fe463 O474 1.996 . S
Fe463 O478 1.976 . S
Fe463 O481 2.002 . S
O464 Fe462 1.918 . S
O464 Fe463 1.918 . S
O464 Fe465 1.918 . S
Fe465 O464 1.918 . S
Fe465 O466 2.002 . S
Fe465 O475 1.976 . S
Fe465 O479 1.996 . S
Fe465 O482 1.997 . S
O466 Fe465 2.002 . S
O466 C483 1.295 . S
O467 Fe462 1.997 . S
O467 C483 1.235 . S
O468 Fe462 2.002 . S
O468 C469 1.295 . S
C469 O468 1.295 . S
C469 O471 1.235 . S
C470 O475 1.287 . S
C470 O476 1.255 . S
O471 Fe463 1.997 . S
O471 C469 1.235 . S
C472 O478 1.287 . S
C472 O479 1.255 . S
O473 Fe462 1.976 . S
O473 C480 1.287 . S
O474 Fe463 1.996 . S
O474 C480 1.255 . S
O475 Fe465 1.976 . S
O475 C470 1.287 . S
O476 Fe462 1.996 . S
O476 C470 1.255 . S
C477 O481 1.295 . S
C477 O482 1.235 . S
O478 Fe463 1.976 . S
O478 C472 1.287 . S
O479 Fe465 1.996 . S
O479 C472 1.255 . S
C480 O473 1.287 . S
C480 O474 1.255 . S
O481 Fe463 2.002 . S
O481 C477 1.295 . S
O482 Fe465 1.997 . S
O482 C477 1.235 . S
C483 O466 1.295 . S
C483 O467 1.235 . S
Fe484 O486 1.918 . S
Fe484 O489 1.997 . S
Fe484 O490 2.002 . S
Fe484 O495 1.976 . S
Fe484 O498 1.996 . S
Fe485 O486 1.918 . S
Fe485 O493 1.997 . S
Fe485 O496 1.996 . S
Fe485 O500 1.976 . S
Fe485 O503 2.002 . S
O486 Fe484 1.918 . S
O486 Fe485 1.918 . S
O486 Fe487 1.918 . S
Fe487 O486 1.918 . S
Fe487 O488 2.002 . S
Fe487 O497 1.976 . S
Fe487 O501 1.996 . S
Fe487 O504 1.997 . S
O488 Fe487 2.002 . S
O488 C505 1.295 . S
O489 Fe484 1.997 . S
O489 C505 1.235 . S
O490 Fe484 2.002 . S
O490 C491 1.295 . S
C491 O490 1.295 . S
C491 O493 1.235 . S
C492 O497 1.287 . S
C492 O498 1.255 . S
O493 Fe485 1.997 . S
O493 C491 1.235 . S
C494 O500 1.287 . S
C494 O501 1.255 . S
O495 Fe484 1.976 . S
O495 C502 1.287 . S
O496 Fe485 1.996 . S
O496 C502 1.255 . S
O497 Fe487 1.976 . S
O497 C492 1.287 . S
O498 Fe484 1.996 . S
O498 C492 1.255 . S
C499 O503 1.295 . S
C499 O504 1.235 . S
O500 Fe485 1.976 . S
O500 C494 1.287 . S
O501 Fe487 1.996 . S
O501 C494 1.255 . S
C502 O495 1.287 . S
C502 O496 1.255 . S
O503 Fe485 2.002 . S
O503 C499 1.295 . S
O504 Fe487 1.997 . S
O504 C499 1.235 . S
C505 O488 1.295 . S
C505 O489 1.235 . S
Fe506 O508 1.918 . S
Fe506 O511 1.997 . S
Fe506 O512 2.002 . S
Fe506 O517 1.976 . S
Fe506 O520 1.996 . S
Fe507 O508 1.918 . S
Fe507 O515 1.997 . S
Fe507 O518 1.996 . S
Fe507 O522 1.976 . S
Fe507 O525 2.002 . S
O508 Fe506 1.918 . S
O508 Fe507 1.918 . S
O508 Fe509 1.918 . S
Fe509 O508 1.918 . S
Fe509 O510 2.002 . S
Fe509 O519 1.976 . S
Fe509 O523 1.996 . S
Fe509 O526 1.997 . S
O510 Fe509 2.002 . S
O510 C527 1.295 . S
O511 Fe506 1.997 . S
O511 C527 1.235 . S
O512 Fe506 2.002 . S
O512 C513 1.295 . S
C513 O512 1.295 . S
C513 O515 1.235 . S
C514 O519 1.287 . S
C514 O520 1.255 . S
O515 Fe507 1.997 . S
O515 C513 1.235 . S
C516 O522 1.287 . S
C516 O523 1.255 . S
O517 Fe506 1.976 . S
O517 C524 1.287 . S
O518 Fe507 1.996 . S
O518 C524 1.255 . S
O519 Fe509 1.976 . S
O519 C514 1.287 . S
O520 Fe506 1.996 . S
O520 C514 1.255 . S
C521 O525 1.295 . S
C521 O526 1.235 . S
O522 Fe507 1.976 . S
O522 C516 1.287 . S
O523 Fe509 1.996 . S
O523 C516 1.255 . S
C524 O517 1.287 . S
C524 O518 1.255 . S
O525 Fe507 2.002 . S
O525 C521 1.295 . S
O526 Fe509 1.997 . S
O526 C521 1.235 . S
C527 O510 1.295 . S
C527 O511 1.235 . S
Fe528 O530 1.918 . S
Fe528 O533 1.997 . S
Fe528 O534 2.002 . S
Fe528 O539 1.976 . S
Fe528 O542 1.996 . S
Fe529 O530 1.918 . S
Fe529 O537 1.997 . S
Fe529 O540 1.996 . S
Fe529 O544 1.976 . S
Fe529 O547 2.002 . S
O530 Fe528 1.918 . S
O530 Fe529 1.918 . S
O530 Fe531 1.918 . S
Fe531 O530 1.918 . S
Fe531 O532 2.002 . S
Fe531 O541 1.976 . S
Fe531 O545 1.996 . S
Fe531 O548 1.997 . S
O532 Fe531 2.002 . S
O532 C549 1.295 . S
O533 Fe528 1.997 . S
O533 C549 1.235 . S
O534 Fe528 2.002 . S
O534 C535 1.295 . S
C535 O534 1.295 . S
C535 O537 1.235 . S
C536 O541 1.287 . S
C536 O542 1.255 . S
O537 Fe529 1.997 . S
O537 C535 1.235 . S
C538 O544 1.287 . S
C538 O545 1.255 . S
O539 Fe528 1.976 . S
O539 C546 1.287 . S
O540 Fe529 1.996 . S
O540 C546 1.255 . S
O541 Fe531 1.976 . S
O541 C536 1.287 . S
O542 Fe528 1.996 . S
O542 C536 1.255 . S
C543 O547 1.295 . S
C543 O548 1.235 . S
O544 Fe529 1.976 . S
O544 C538 1.287 . S
O545 Fe531 1.996 . S
O545 C538 1.255 . S
C546 O539 1.287 . S
C546 O540 1.255 . S
O547 Fe529 2.002 . S
O547 C543 1.295 . S
O548 Fe531 1.997 . S
O548 C543 1.235 . S
C549 O532 1.295 . S
C549 O533 1.235 . S
Fe550 O552 1.918 . S
Fe550 O555 1.997 . S
Fe550 O556 2.002 . S
Fe550 O561 1.976 . S
Fe550 O564 1.996 . S
Fe551 O552 1.918 . S
Fe551 O559 1.997 . S
Fe551 O562 1.996 . S
Fe551 O566 1.976 . S
Fe551 O569 2.002 . S
O552 Fe550 1.918 . S
O552 Fe551 1.918 . S
O552 Fe553 1.918 . S
Fe553 O552 1.918 . S
Fe553 O554 2.002 . S
Fe553 O563 1.976 . S
Fe553 O567 1.996 . S
Fe553 O570 1.997 . S
O554 Fe553 2.002 . S
O554 C571 1.295 . S
O555 Fe550 1.997 . S
O555 C571 1.235 . S
O556 Fe550 2.002 . S
O556 C557 1.295 . S
C557 O556 1.295 . S
C557 O559 1.235 . S
C558 O563 1.287 . S
C558 O564 1.255 . S
O559 Fe551 1.997 . S
O559 C557 1.235 . S
C560 O566 1.287 . S
C560 O567 1.255 . S
O561 Fe550 1.976 . S
O561 C568 1.287 . S
O562 Fe551 1.996 . S
O562 C568 1.255 . S
O563 Fe553 1.976 . S
O563 C558 1.287 . S
O564 Fe550 1.996 . S
O564 C558 1.255 . S
C565 O569 1.295 . S
C565 O570 1.235 . S
O566 Fe551 1.976 . S
O566 C560 1.287 . S
O567 Fe553 1.996 . S
O567 C560 1.255 . S
C568 O561 1.287 . S
C568 O562 1.255 . S
O569 Fe551 2.002 . S
O569 C565 1.295 . S
O570 Fe553 1.997 . S
O570 C565 1.235 . S
C571 O554 1.295 . S
C571 O555 1.235 . S
Fe572 O574 1.918 . S
Fe572 O577 1.997 . S
Fe572 O578 2.002 . S
Fe572 O583 1.976 . S
Fe572 O586 1.996 . S
Fe573 O574 1.918 . S
Fe573 O581 1.997 . S
Fe573 O584 1.996 . S
Fe573 O588 1.976 . S
Fe573 O591 2.002 . S
O574 Fe572 1.918 . S
O574 Fe573 1.918 . S
O574 Fe575 1.918 . S
Fe575 O574 1.918 . S
Fe575 O576 2.002 . S
Fe575 O585 1.976 . S
Fe575 O589 1.996 . S
Fe575 O592 1.997 . S
O576 Fe575 2.002 . S
O576 C593 1.295 . S
O577 Fe572 1.997 . S
O577 C593 1.235 . S
O578 Fe572 2.002 . S
O578 C579 1.295 . S
C579 O578 1.295 . S
C579 O581 1.235 . S
C580 O585 1.287 . S
C580 O586 1.255 . S
O581 Fe573 1.997 . S
O581 C579 1.235 . S
C582 O588 1.287 . S
C582 O589 1.255 . S
O583 Fe572 1.976 . S
O583 C590 1.287 . S
O584 Fe573 1.996 . S
O584 C590 1.255 . S
O585 Fe575 1.976 . S
O585 C580 1.287 . S
O586 Fe572 1.996 . S
O586 C580 1.255 . S
C587 O591 1.295 . S
C587 O592 1.235 . S
O588 Fe573 1.976 . S
O588 C582 1.287 . S
O589 Fe575 1.996 . S
O589 C582 1.255 . S
C590 O583 1.287 . S
C590 O584 1.255 . S
O591 Fe573 2.002 . S
O591 C587 1.295 . S
O592 Fe575 1.997 . S
O592 C587 1.235 . S
C593 O576 1.295 . S
C593 O577 1.235 . S
Fe594 O596 1.918 . S
Fe594 O599 1.997 . S
Fe594 O600 2.002 . S
Fe594 O605 1.976 . S
Fe594 O608 1.996 . S
Fe595 O596 1.918 . S
Fe595 O603 1.997 . S
Fe595 O606 1.996 . S
Fe595 O610 1.976 . S
Fe595 O613 2.002 . S
O596 Fe594 1.918 . S
O596 Fe595 1.918 . S
O596 Fe597 1.918 . S
Fe597 O596 1.918 . S
Fe597 O598 2.002 . S
Fe597 O607 1.976 . S
Fe597 O611 1.996 . S
Fe597 O614 1.997 . S
O598 Fe597 2.002 . S
O598 C615 1.295 . S
O599 Fe594 1.997 . S
O599 C615 1.235 . S
O600 Fe594 2.002 . S
O600 C601 1.295 . S
C601 O600 1.295 . S
C601 O603 1.235 . S
C602 O607 1.287 . S
C602 O608 1.255 . S
O603 Fe595 1.997 . S
O603 C601 1.235 . S
C604 O610 1.287 . S
C604 O611 1.255 . S
O605 Fe594 1.976 . S
O605 C612 1.287 . S
O606 Fe595 1.996 . S
O606 C612 1.255 . S
O607 Fe597 1.976 . S
O607 C602 1.287 . S
O608 Fe594 1.996 . S
O608 C602 1.255 . S
C609 O613 1.295 . S
C609 O614 1.235 . S
O610 Fe595 1.976 . S
O610 C604 1.287 . S
O611 Fe597 1.996 . S
O611 C604 1.255 . S
C612 O605 1.287 . S
C612 O606 1.255 . S
O613 Fe595 2.002 . S
O613 C609 1.295 . S
O614 Fe597 1.997 . S
O614 C609 1.235 . S
C615 O598 1.295 . S
C615 O599 1.235 . S
Fe616 O618 1.918 . S
Fe616 O621 1.997 . S
Fe616 O622 2.002 . S
Fe616 O627 1.976 . S
Fe616 O630 1.996 . S
Fe617 O618 1.918 . S
Fe617 O625 1.997 . S
Fe617 O628 1.996 . S
Fe617 O632 1.976 . S
Fe617 O635 2.002 . S
O618 Fe616 1.918 . S
O618 Fe617 1.918 . S
O618 Fe619 1.918 . S
Fe619 O618 1.918 . S
Fe619 O620 2.002 . S
Fe619 O629 1.976 . S
Fe619 O633 1.996 . S
Fe619 O636 1.997 . S
O620 Fe619 2.002 . S
O620 C637 1.295 . S
O621 Fe616 1.997 . S
O621 C637 1.235 . S
O622 Fe616 2.002 . S
O622 C623 1.295 . S
C623 O622 1.295 . S
C623 O625 1.235 . S
C624 O629 1.287 . S
C624 O630 1.255 . S
O625 Fe617 1.997 . S
O625 C623 1.235 . S
C626 O632 1.287 . S
C626 O633 1.255 . S
O627 Fe616 1.976 . S
O627 C634 1.287 . S
O628 Fe617 1.996 . S
O628 C634 1.255 . S
O629 Fe619 1.976 . S
O629 C624 1.287 . S
O630 Fe616 1.996 . S
O630 C624 1.255 . S
C631 O635 1.295 . S
C631 O636 1.235 . S
O632 Fe617 1.976 . S
O632 C626 1.287 . S
O633 Fe619 1.996 . S
O633 C626 1.255 . S
C634 O627 1.287 . S
C634 O628 1.255 . S
O635 Fe617 2.002 . S
O635 C631 1.295 . S
O636 Fe619 1.997 . S
O636 C631 1.235 . S
C637 O620 1.295 . S
C637 O621 1.235 . S
Fe638 O640 1.918 . S
Fe638 O643 1.997 . S
Fe638 O644 2.002 . S
Fe638 O649 1.976 . S
Fe638 O652 1.996 . S
Fe639 O640 1.918 . S
Fe639 O647 1.997 . S
Fe639 O650 1.996 . S
Fe639 O654 1.976 . S
Fe639 O657 2.002 . S
O640 Fe638 1.918 . S
O640 Fe639 1.918 . S
O640 Fe641 1.918 . S
Fe641 O640 1.918 . S
Fe641 O642 2.002 . S
Fe641 O651 1.976 . S
Fe641 O655 1.996 . S
Fe641 O658 1.997 . S
O642 Fe641 2.002 . S
O642 C659 1.295 . S
O643 Fe638 1.997 . S
O643 C659 1.235 . S
O644 Fe638 2.002 . S
O644 C645 1.295 . S
C645 O644 1.295 . S
C645 O647 1.235 . S
C646 O651 1.287 . S
C646 O652 1.255 . S
O647 Fe639 1.997 . S
O647 C645 1.235 . S
C648 O654 1.287 . S
C648 O655 1.255 . S
O649 Fe638 1.976 . S
O649 C656 1.287 . S
O650 Fe639 1.996 . S
O650 C656 1.255 . S
O651 Fe641 1.976 . S
O651 C646 1.287 . S
O652 Fe638 1.996 . S
O652 C646 1.255 . S
C653 O657 1.295 . S
C653 O658 1.235 . S
O654 Fe639 1.976 . S
O654 C648 1.287 . S
O655 Fe641 1.996 . S
O655 C648 1.255 . S
C656 O649 1.287 . S
C656 O650 1.255 . S
O657 Fe639 2.002 . S
O657 C653 1.295 . S
O658 Fe641 1.997 . S
O658 C653 1.235 . S
C659 O642 1.295 . S
C659 O643 1.235 . S
Fe660 O662 1.918 . S
Fe660 O665 1.997 . S
Fe660 O666 2.002 . S
Fe660 O671 1.976 . S
Fe660 O674 1.996 . S
Fe661 O662 1.918 . S
Fe661 O669 1.997 . S
Fe661 O672 1.996 . S
Fe661 O676 1.976 . S
Fe661 O679 2.002 . S
O662 Fe660 1.918 . S
O662 Fe661 1.918 . S
O662 Fe663 1.918 . S
Fe663 O662 1.918 . S
Fe663 O664 2.002 . S
Fe663 O673 1.976 . S
Fe663 O677 1.996 . S
Fe663 O680 1.997 . S
O664 Fe663 2.002 . S
O664 C681 1.295 . S
O665 Fe660 1.997 . S
O665 C681 1.235 . S
O666 Fe660 2.002 . S
O666 C667 1.295 . S
C667 O666 1.295 . S
C667 O669 1.235 . S
C668 O673 1.287 . S
C668 O674 1.255 . S
O669 Fe661 1.997 . S
O669 C667 1.235 . S
C670 O676 1.287 . S
C670 O677 1.255 . S
O671 Fe660 1.976 . S
O671 C678 1.287 . S
O672 Fe661 1.996 . S
O672 C678 1.255 . S
O673 Fe663 1.976 . S
O673 C668 1.287 . S
O674 Fe660 1.996 . S
O674 C668 1.255 . S
C675 O679 1.295 . S
C675 O680 1.235 . S
O676 Fe661 1.976 . S
O676 C670 1.287 . S
O677 Fe663 1.996 . S
O677 C670 1.255 . S
C678 O671 1.287 . S
C678 O672 1.255 . S
O679 Fe661 2.002 . S
O679 C675 1.295 . S
O680 Fe663 1.997 . S
O680 C675 1.235 . S
C681 O664 1.295 . S
C681 O665 1.235 . S
Fe682 O684 1.918 . S
Fe682 O687 1.997 . S
Fe682 O688 2.002 . S
Fe682 O693 1.976 . S
Fe682 O696 1.996 . S
Fe683 O684 1.918 . S
Fe683 O691 1.997 . S
Fe683 O694 1.996 . S
Fe683 O698 1.976 . S
Fe683 O701 2.002 . S
O684 Fe682 1.918 . S
O684 Fe683 1.918 . S
O684 Fe685 1.918 . S
Fe685 O684 1.918 . S
Fe685 O686 2.002 . S
Fe685 O695 1.976 . S
Fe685 O699 1.996 . S
Fe685 O702 1.997 . S
O686 Fe685 2.002 . S
O686 C703 1.295 . S
O687 Fe682 1.997 . S
O687 C703 1.235 . S
O688 Fe682 2.002 . S
O688 C689 1.295 . S
C689 O688 1.295 . S
C689 O691 1.235 . S
C690 O695 1.287 . S
C690 O696 1.255 . S
O691 Fe683 1.997 . S
O691 C689 1.235 . S
C692 O698 1.287 . S
C692 O699 1.255 . S
O693 Fe682 1.976 . S
O693 C700 1.287 . S
O694 Fe683 1.996 . S
O694 C700 1.255 . S
O695 Fe685 1.976 . S
O695 C690 1.287 . S
O696 Fe682 1.996 . S
O696 C690 1.255 . S
C697 O701 1.295 . S
C697 O702 1.235 . S
O698 Fe683 1.976 . S
O698 C692 1.287 . S
O699 Fe685 1.996 . S
O699 C692 1.255 . S
C700 O693 1.287 . S
C700 O694 1.255 . S
O701 Fe683 2.002 . S
O701 C697 1.295 . S
O702 Fe685 1.997 . S
O702 C697 1.235 . S
C703 O686 1.295 . S
C703 O687 1.235 . S
H704 C710 0.930 . S
H705 C714 0.930 . S
H706 C719 0.929 . S
H707 C717 0.929 . S
H708 C712 0.929 . S
H709 C718 0.929 . S
C710 H704 0.930 . S
C710 C711 1.367 . S
C710 C718 1.378 . S
C711 C710 1.367 . S
C711 C719 1.433 . S
C712 H708 0.929 . S
C712 C714 1.378 . S
C712 C716 1.350 . S
C713 C716 1.463 . S
C713 C718 1.350 . S
C713 N721 1.427 . S
C714 H705 0.930 . S
C714 C712 1.378 . S
C714 C715 1.367 . S
C715 C714 1.367 . S
C715 C717 1.433 . S
C716 C712 1.350 . S
C716 C713 1.463 . S
C716 N720 1.427 . S
C717 H707 0.929 . S
C717 C715 1.433 . S
C717 N720 1.384 . S
C718 H709 0.929 . S
C718 C710 1.378 . S
C718 C713 1.350 . S
C719 H706 0.929 . S
C719 C711 1.433 . S
C719 N721 1.384 . S
N720 C716 1.427 . S
N720 C717 1.384 . S
N721 C713 1.427 . S
N721 C719 1.384 . S
H722 C728 0.930 . S
H723 C732 0.930 . S
H724 C737 0.929 . S
H725 C735 0.929 . S
H726 C730 0.929 . S
H727 C736 0.929 . S
C728 H722 0.930 . S
C728 C729 1.367 . S
C728 C736 1.378 . S
C729 C728 1.367 . S
C729 C737 1.433 . S
C730 H726 0.929 . S
C730 C732 1.378 . S
C730 C734 1.350 . S
C731 C734 1.463 . S
C731 C736 1.350 . S
C731 N739 1.427 . S
C732 H723 0.930 . S
C732 C730 1.378 . S
C732 C733 1.367 . S
C733 C732 1.367 . S
C733 C735 1.433 . S
C734 C730 1.350 . S
C734 C731 1.463 . S
C734 N738 1.427 . S
C735 H725 0.929 . S
C735 C733 1.433 . S
C735 N738 1.384 . S
C736 H727 0.929 . S
C736 C728 1.378 . S
C736 C731 1.350 . S
C737 H724 0.929 . S
C737 C729 1.433 . S
C737 N739 1.384 . S
N738 C734 1.427 . S
N738 C735 1.384 . S
N739 C731 1.427 . S
N739 C737 1.384 . S
H740 C746 0.930 . S
H741 C750 0.930 . S
H742 C755 0.929 . S
H743 C753 0.929 . S
H744 C748 0.929 . S
H745 C754 0.929 . S
C746 H740 0.930 . S
C746 C747 1.367 . S
C746 C754 1.378 . S
C747 C746 1.367 . S
C747 C755 1.433 . S
C748 H744 0.929 . S
C748 C750 1.378 . S
C748 C752 1.350 . S
C749 C752 1.463 . S
C749 C754 1.350 . S
C749 N757 1.427 . S
C750 H741 0.930 . S
C750 C748 1.378 . S
C750 C751 1.367 . S
C751 C750 1.367 . S
C751 C753 1.433 . S
C752 C748 1.350 . S
C752 C749 1.463 . S
C752 N756 1.427 . S
C753 H743 0.929 . S
C753 C751 1.433 . S
C753 N756 1.384 . S
C754 H745 0.929 . S
C754 C746 1.378 . S
C754 C749 1.350 . S
C755 H742 0.929 . S
C755 C747 1.433 . S
C755 N757 1.384 . S
N756 C752 1.427 . S
N756 C753 1.384 . S
N757 C749 1.427 . S
N757 C755 1.384 . S
H758 C764 0.930 . S
H759 C768 0.930 . S
H760 C773 0.929 . S
H761 C771 0.929 . S
H762 C766 0.929 . S
H763 C772 0.929 . S
C764 H758 0.930 . S
C764 C765 1.367 . S
C764 C772 1.378 . S
C765 C764 1.367 . S
C765 C773 1.433 . S
C766 H762 0.929 . S
C766 C768 1.378 . S
C766 C770 1.350 . S
C767 C770 1.463 . S
C767 C772 1.350 . S
C767 N775 1.427 . S
C768 H759 0.930 . S
C768 C766 1.378 . S
C768 C769 1.367 . S
C769 C768 1.367 . S
C769 C771 1.433 . S
C770 C766 1.350 . S
C770 C767 1.463 . S
C770 N774 1.427 . S
C771 H761 0.929 . S
C771 C769 1.433 . S
C771 N774 1.384 . S
C772 H763 0.929 . S
C772 C764 1.378 . S
C772 C767 1.350 . S
C773 H760 0.929 . S
C773 C765 1.433 . S
C773 N775 1.384 . S
N774 C770 1.427 . S
N774 C771 1.384 . S
N775 C767 1.427 . S
N775 C773 1.384 . S
H776 C782 0.930 . S
H777 C786 0.930 . S
H778 C791 0.929 . S
H779 C789 0.929 . S
H780 C784 0.929 . S
H781 C790 0.929 . S
C782 H776 0.930 . S
C782 C783 1.367 . S
C782 C790 1.378 . S
C783 C782 1.367 . S
C783 C791 1.433 . S
C784 H780 0.929 . S
C784 C786 1.378 . S
C784 C788 1.350 . S
C785 C788 1.463 . S
C785 C790 1.350 . S
C785 N793 1.427 . S
C786 H777 0.930 . S
C786 C784 1.378 . S
C786 C787 1.367 . S
C787 C786 1.367 . S
C787 C789 1.433 . S
C788 C784 1.350 . S
C788 C785 1.463 . S
C788 N792 1.427 . S
C789 H779 0.929 . S
C789 C787 1.433 . S
C789 N792 1.384 . S
C790 H781 0.929 . S
C790 C782 1.378 . S
C790 C785 1.350 . S
C791 H778 0.929 . S
C791 C783 1.433 . S
C791 N793 1.384 . S
N792 C788 1.427 . S
N792 C789 1.384 . S
N793 C785 1.427 . S
N793 C791 1.384 . S
H794 C800 0.930 . S
H795 C804 0.930 . S
H796 C809 0.929 . S
H797 C807 0.929 . S
H798 C802 0.929 . S
H799 C808 0.929 . S
C800 H794 0.930 . S
C800 C801 1.367 . S
C800 C808 1.378 . S
C801 C800 1.367 . S
C801 C809 1.433 . S
C802 H798 0.929 . S
C802 C804 1.378 . S
C802 C806 1.350 . S
C803 C806 1.463 . S
C803 C808 1.350 . S
C803 N811 1.427 . S
C804 H795 0.930 . S
C804 C802 1.378 . S
C804 C805 1.367 . S
C805 C804 1.367 . S
C805 C807 1.433 . S
C806 C802 1.350 . S
C806 C803 1.463 . S
C806 N810 1.427 . S
C807 H797 0.929 . S
C807 C805 1.433 . S
C807 N810 1.384 . S
C808 H799 0.929 . S
C808 C800 1.378 . S
C808 C803 1.350 . S
C809 H796 0.929 . S
C809 C801 1.433 . S
C809 N811 1.384 . S
N810 C806 1.427 . S
N810 C807 1.384 . S
N811 C803 1.427 . S
N811 C809 1.384 . S
H812 C818 0.930 . S
H813 C822 0.930 . S
H814 C827 0.929 . S
H815 C825 0.929 . S
H816 C820 0.929 . S
H817 C826 0.929 . S
C818 H812 0.930 . S
C818 C819 1.367 . S
C818 C826 1.378 . S
C819 C818 1.367 . S
C819 C827 1.433 . S
C820 H816 0.929 . S
C820 C822 1.378 . S
C820 C824 1.350 . S
C821 C824 1.463 . S
C821 C826 1.350 . S
C821 N829 1.427 . S
C822 H813 0.930 . S
C822 C820 1.378 . S
C822 C823 1.367 . S
C823 C822 1.367 . S
C823 C825 1.433 . S
C824 C820 1.350 . S
C824 C821 1.463 . S
C824 N828 1.427 . S
C825 H815 0.929 . S
C825 C823 1.433 . S
C825 N828 1.384 . S
C826 H817 0.929 . S
C826 C818 1.378 . S
C826 C821 1.350 . S
C827 H814 0.929 . S
C827 C819 1.433 . S
C827 N829 1.384 . S
N828 C824 1.427 . S
N828 C825 1.384 . S
N829 C821 1.427 . S
N829 C827 1.384 . S
H830 C836 0.930 . S
H831 C840 0.930 . S
H832 C845 0.929 . S
H833 C843 0.929 . S
H834 C838 0.929 . S
H835 C844 0.929 . S
C836 H830 0.930 . S
C836 C837 1.367 . S
C836 C844 1.378 . S
C837 C836 1.367 . S
C837 C845 1.433 . S
C838 H834 0.929 . S
C838 C840 1.378 . S
C838 C842 1.350 . S
C839 C842 1.463 . S
C839 C844 1.350 . S
C839 N847 1.427 . S
C840 H831 0.930 . S
C840 C838 1.378 . S
C840 C841 1.367 . S
C841 C840 1.367 . S
C841 C843 1.433 . S
C842 C838 1.350 . S
C842 C839 1.463 . S
C842 N846 1.427 . S
C843 H833 0.929 . S
C843 C841 1.433 . S
C843 N846 1.384 . S
C844 H835 0.929 . S
C844 C836 1.378 . S
C844 C839 1.350 . S
C845 H832 0.929 . S
C845 C837 1.433 . S
C845 N847 1.384 . S
N846 C842 1.427 . S
N846 C843 1.384 . S
N847 C839 1.427 . S
N847 C845 1.384 . S
H848 C854 0.930 . S
H849 C858 0.930 . S
H850 C863 0.929 . S
H851 C861 0.929 . S
H852 C856 0.929 . S
H853 C862 0.929 . S
C854 H848 0.930 . S
C854 C855 1.367 . S
C854 C862 1.378 . S
C855 C854 1.367 . S
C855 C863 1.433 . S
C856 H852 0.929 . S
C856 C858 1.378 . S
C856 C860 1.350 . S
C857 C860 1.463 . S
C857 C862 1.350 . S
C857 N865 1.427 . S
C858 H849 0.930 . S
C858 C856 1.378 . S
C858 C859 1.367 . S
C859 C858 1.367 . S
C859 C861 1.433 . S
C860 C856 1.350 . S
C860 C857 1.463 . S
C860 N864 1.427 . S
C861 H851 0.929 . S
C861 C859 1.433 . S
C861 N864 1.384 . S
C862 H853 0.929 . S
C862 C854 1.378 . S
C862 C857 1.350 . S
C863 H850 0.929 . S
C863 C855 1.433 . S
C863 N865 1.384 . S
N864 C860 1.427 . S
N864 C861 1.384 . S
N865 C857 1.427 . S
N865 C863 1.384 . S
H866 C872 0.930 . S
H867 C876 0.930 . S
H868 C881 0.929 . S
H869 C879 0.929 . S
H870 C874 0.929 . S
H871 C880 0.929 . S
C872 H866 0.930 . S
C872 C873 1.367 . S
C872 C880 1.378 . S
C873 C872 1.367 . S
C873 C881 1.433 . S
C874 H870 0.929 . S
C874 C876 1.378 . S
C874 C878 1.350 . S
C875 C878 1.463 . S
C875 C880 1.350 . S
C875 N883 1.427 . S
C876 H867 0.930 . S
C876 C874 1.378 . S
C876 C877 1.367 . S
C877 C876 1.367 . S
C877 C879 1.433 . S
C878 C874 1.350 . S
C878 C875 1.463 . S
C878 N882 1.427 . S
C879 H869 0.929 . S
C879 C877 1.433 . S
C879 N882 1.384 . S
C880 H871 0.929 . S
C880 C872 1.378 . S
C880 C875 1.350 . S
C881 H868 0.929 . S
C881 C873 1.433 . S
C881 N883 1.384 . S
N882 C878 1.427 . S
N882 C879 1.384 . S
N883 C875 1.427 . S
N883 C881 1.384 . S
H884 C890 0.930 . S
H885 C894 0.930 . S
H886 C899 0.929 . S
H887 C897 0.929 . S
H888 C892 0.929 . S
H889 C898 0.929 . S
C890 H884 0.930 . S
C890 C891 1.367 . S
C890 C898 1.378 . S
C891 C890 1.367 . S
C891 C899 1.433 . S
C892 H888 0.929 . S
C892 C894 1.378 . S
C892 C896 1.350 . S
C893 C896 1.463 . S
C893 C898 1.350 . S
C893 N901 1.427 . S
C894 H885 0.930 . S
C894 C892 1.378 . S
C894 C895 1.367 . S
C895 C894 1.367 . S
C895 C897 1.433 . S
C896 C892 1.350 . S
C896 C893 1.463 . S
C896 N900 1.427 . S
C897 H887 0.929 . S
C897 C895 1.433 . S
C897 N900 1.384 . S
C898 H889 0.929 . S
C898 C890 1.378 . S
C898 C893 1.350 . S
C899 H886 0.929 . S
C899 C891 1.433 . S
C899 N901 1.384 . S
N900 C896 1.427 . S
N900 C897 1.384 . S
N901 C893 1.427 . S
N901 C899 1.384 . S
H902 C908 0.930 . S
H903 C912 0.930 . S
H904 C917 0.929 . S
H905 C915 0.929 . S
H906 C910 0.929 . S
H907 C916 0.929 . S
C908 H902 0.930 . S
C908 C909 1.367 . S
C908 C916 1.378 . S
C909 C908 1.367 . S
C909 C917 1.433 . S
C910 H906 0.929 . S
C910 C912 1.378 . S
C910 C914 1.350 . S
C911 C914 1.463 . S
C911 C916 1.350 . S
C911 N919 1.427 . S
C912 H903 0.930 . S
C912 C910 1.378 . S
C912 C913 1.367 . S
C913 C912 1.367 . S
C913 C915 1.433 . S
C914 C910 1.350 . S
C914 C911 1.463 . S
C914 N918 1.427 . S
C915 H905 0.929 . S
C915 C913 1.433 . S
C915 N918 1.384 . S
C916 H907 0.929 . S
C916 C908 1.378 . S
C916 C911 1.350 . S
C917 H904 0.929 . S
C917 C909 1.433 . S
C917 N919 1.384 . S
N918 C914 1.427 . S
N918 C915 1.384 . S
N919 C911 1.427 . S
N919 C917 1.384 . S
H920 C926 0.930 . S
H921 C930 0.930 . S
H922 C935 0.929 . S
H923 C933 0.929 . S
H924 C928 0.929 . S
H925 C934 0.929 . S
C926 H920 0.930 . S
C926 C927 1.367 . S
C926 C934 1.378 . S
C927 C926 1.367 . S
C927 C935 1.433 . S
C928 H924 0.929 . S
C928 C930 1.378 . S
C928 C932 1.350 . S
C929 C932 1.463 . S
C929 C934 1.350 . S
C929 N937 1.427 . S
C930 H921 0.930 . S
C930 C928 1.378 . S
C930 C931 1.367 . S
C931 C930 1.367 . S
C931 C933 1.433 . S
C932 C928 1.350 . S
C932 C929 1.463 . S
C932 N936 1.427 . S
C933 H923 0.929 . S
C933 C931 1.433 . S
C933 N936 1.384 . S
C934 H925 0.929 . S
C934 C926 1.378 . S
C934 C929 1.350 . S
C935 H922 0.929 . S
C935 C927 1.433 . S
C935 N937 1.384 . S
N936 C932 1.427 . S
N936 C933 1.384 . S
N937 C929 1.427 . S
N937 C935 1.384 . S
H938 C944 0.930 . S
H939 C948 0.930 . S
H940 C953 0.929 . S
H941 C951 0.929 . S
H942 C946 0.929 . S
H943 C952 0.929 . S
C944 H938 0.930 . S
C944 C945 1.367 . S
C944 C952 1.378 . S
C945 C944 1.367 . S
C945 C953 1.433 . S
C946 H942 0.929 . S
C946 C948 1.378 . S
C946 C950 1.350 . S
C947 C950 1.463 . S
C947 C952 1.350 . S
C947 N955 1.427 . S
C948 H939 0.930 . S
C948 C946 1.378 . S
C948 C949 1.367 . S
C949 C948 1.367 . S
C949 C951 1.433 . S
C950 C946 1.350 . S
C950 C947 1.463 . S
C950 N954 1.427 . S
C951 H941 0.929 . S
C951 C949 1.433 . S
C951 N954 1.384 . S
C952 H943 0.929 . S
C952 C944 1.378 . S
C952 C947 1.350 . S
C953 H940 0.929 . S
C953 C945 1.433 . S
C953 N955 1.384 . S
N954 C950 1.427 . S
N954 C951 1.384 . S
N955 C947 1.427 . S
N955 C953 1.384 . S
H956 C962 0.930 . S
H957 C966 0.930 . S
H958 C971 0.929 . S
H959 C969 0.929 . S
H960 C964 0.929 . S
H961 C970 0.929 . S
C962 H956 0.930 . S
C962 C963 1.367 . S
C962 C970 1.378 . S
C963 C962 1.367 . S
C963 C971 1.433 . S
C964 H960 0.929 . S
C964 C966 1.378 . S
C964 C968 1.350 . S
C965 C968 1.463 . S
C965 C970 1.350 . S
C965 N973 1.427 . S
C966 H957 0.930 . S
C966 C964 1.378 . S
C966 C967 1.367 . S
C967 C966 1.367 . S
C967 C969 1.433 . S
C968 C964 1.350 . S
C968 C965 1.463 . S
C968 N972 1.427 . S
C969 H959 0.929 . S
C969 C967 1.433 . S
C969 N972 1.384 . S
C970 H961 0.929 . S
C970 C962 1.378 . S
C970 C965 1.350 . S
C971 H958 0.929 . S
C971 C963 1.433 . S
C971 N973 1.384 . S
N972 C968 1.427 . S
N972 C969 1.384 . S
N973 C965 1.427 . S
N973 C971 1.384 . S
H974 C980 0.930 . S
H975 C984 0.930 . S
H976 C989 0.929 . S
H977 C987 0.929 . S
H978 C982 0.929 . S
H979 C988 0.929 . S
C980 H974 0.930 . S
C980 C981 1.367 . S
C980 C988 1.378 . S
C981 C980 1.367 . S
C981 C989 1.433 . S
C982 H978 0.929 . S
C982 C984 1.378 . S
C982 C986 1.350 . S
C983 C986 1.463 . S
C983 C988 1.350 . S
C983 N991 1.427 . S
C984 H975 0.930 . S
C984 C982 1.378 . S
C984 C985 1.367 . S
C985 C984 1.367 . S
C985 C987 1.433 . S
C986 C982 1.350 . S
C986 C983 1.463 . S
C986 N990 1.427 . S
C987 H977 0.929 . S
C987 C985 1.433 . S
C987 N990 1.384 . S
C988 H979 0.929 . S
C988 C980 1.378 . S
C988 C983 1.350 . S
C989 H976 0.929 . S
C989 C981 1.433 . S
C989 N991 1.384 . S
N990 C986 1.427 . S
N990 C987 1.384 . S
N991 C983 1.427 . S
N991 C989 1.384 . S
H992 C998 0.930 . S
H993 C1002 0.930 . S
H994 C1007 0.929 . S
H995 C1005 0.929 . S
H996 C1000 0.929 . S
H997 C1006 0.929 . S
C998 H992 0.930 . S
C998 C999 1.367 . S
C998 C1006 1.378 . S
C999 C998 1.367 . S
C999 C1007 1.433 . S
C1000 H996 0.929 . S
C1000 C1002 1.378 . S
C1000 C1004 1.350 . S
C1001 C1004 1.463 . S
C1001 C1006 1.350 . S
C1001 N1009 1.427 . S
C1002 H993 0.930 . S
C1002 C1000 1.378 . S
C1002 C1003 1.367 . S
C1003 C1002 1.367 . S
C1003 C1005 1.433 . S
C1004 C1000 1.350 . S
C1004 C1001 1.463 . S
C1004 N1008 1.427 . S
C1005 H995 0.929 . S
C1005 C1003 1.433 . S
C1005 N1008 1.384 . S
C1006 H997 0.929 . S
C1006 C998 1.378 . S
C1006 C1001 1.350 . S
C1007 H994 0.929 . S
C1007 C999 1.433 . S
C1007 N1009 1.384 . S
N1008 C1004 1.427 . S
N1008 C1005 1.384 . S
N1009 C1001 1.427 . S
N1009 C1007 1.384 . S
H1010 C1016 0.930 . S
H1011 C1020 0.930 . S
H1012 C1025 0.929 . S
H1013 C1023 0.929 . S
H1014 C1018 0.929 . S
H1015 C1024 0.929 . S
C1016 H1010 0.930 . S
C1016 C1017 1.367 . S
C1016 C1024 1.378 . S
C1017 C1016 1.367 . S
C1017 C1025 1.433 . S
C1018 H1014 0.929 . S
C1018 C1020 1.378 . S
C1018 C1022 1.350 . S
C1019 C1022 1.463 . S
C1019 C1024 1.350 . S
C1019 N1027 1.427 . S
C1020 H1011 0.930 . S
C1020 C1018 1.378 . S
C1020 C1021 1.367 . S
C1021 C1020 1.367 . S
C1021 C1023 1.433 . S
C1022 C1018 1.350 . S
C1022 C1019 1.463 . S
C1022 N1026 1.427 . S
C1023 H1013 0.929 . S
C1023 C1021 1.433 . S
C1023 N1026 1.384 . S
C1024 H1015 0.929 . S
C1024 C1016 1.378 . S
C1024 C1019 1.350 . S
C1025 H1012 0.929 . S
C1025 C1017 1.433 . S
C1025 N1027 1.384 . S
N1026 C1022 1.427 . S
N1026 C1023 1.384 . S
N1027 C1019 1.427 . S
N1027 C1025 1.384 . S
H1028 C1034 0.930 . S
H1029 C1038 0.930 . S
H1030 C1043 0.929 . S
H1031 C1041 0.929 . S
H1032 C1036 0.929 . S
H1033 C1042 0.929 . S
C1034 H1028 0.930 . S
C1034 C1035 1.367 . S
C1034 C1042 1.378 . S
C1035 C1034 1.367 . S
C1035 C1043 1.433 . S
C1036 H1032 0.929 . S
C1036 C1038 1.378 . S
C1036 C1040 1.350 . S
C1037 C1040 1.463 . S
C1037 C1042 1.350 . S
C1037 N1045 1.427 . S
C1038 H1029 0.930 . S
C1038 C1036 1.378 . S
C1038 C1039 1.367 . S
C1039 C1038 1.367 . S
C1039 C1041 1.433 . S
C1040 C1036 1.350 . S
C1040 C1037 1.463 . S
C1040 N1044 1.427 . S
C1041 H1031 0.929 . S
C1041 C1039 1.433 . S
C1041 N1044 1.384 . S
C1042 H1033 0.929 . S
C1042 C1034 1.378 . S
C1042 C1037 1.350 . S
C1043 H1030 0.929 . S
C1043 C1035 1.433 . S
C1043 N1045 1.384 . S
N1044 C1040 1.427 . S
N1044 C1041 1.384 . S
N1045 C1037 1.427 . S
N1045 C1043 1.384 . S
H1046 C1052 0.930 . S
H1047 C1056 0.930 . S
H1048 C1061 0.929 . S
H1049 C1059 0.929 . S
H1050 C1054 0.929 . S
H1051 C1060 0.929 . S
C1052 H1046 0.930 . S
C1052 C1053 1.367 . S
C1052 C1060 1.378 . S
C1053 C1052 1.367 . S
C1053 C1061 1.433 . S
C1054 H1050 0.929 . S
C1054 C1056 1.378 . S
C1054 C1058 1.350 . S
C1055 C1058 1.463 . S
C1055 C1060 1.350 . S
C1055 N1063 1.427 . S
C1056 H1047 0.930 . S
C1056 C1054 1.378 . S
C1056 C1057 1.367 . S
C1057 C1056 1.367 . S
C1057 C1059 1.433 . S
C1058 C1054 1.350 . S
C1058 C1055 1.463 . S
C1058 N1062 1.427 . S
C1059 H1049 0.929 . S
C1059 C1057 1.433 . S
C1059 N1062 1.384 . S
C1060 H1051 0.929 . S
C1060 C1052 1.378 . S
C1060 C1055 1.350 . S
C1061 H1048 0.929 . S
C1061 C1053 1.433 . S
C1061 N1063 1.384 . S
N1062 C1058 1.427 . S
N1062 C1059 1.384 . S
N1063 C1055 1.427 . S
N1063 C1061 1.384 . S
H1064 C1070 0.930 . S
H1065 C1074 0.930 . S
H1066 C1079 0.929 . S
H1067 C1077 0.929 . S
H1068 C1072 0.929 . S
H1069 C1078 0.929 . S
C1070 H1064 0.930 . S
C1070 C1071 1.367 . S
C1070 C1078 1.378 . S
C1071 C1070 1.367 . S
C1071 C1079 1.433 . S
C1072 H1068 0.929 . S
C1072 C1074 1.378 . S
C1072 C1076 1.350 . S
C1073 C1076 1.463 . S
C1073 C1078 1.350 . S
C1073 N1081 1.427 . S
C1074 H1065 0.930 . S
C1074 C1072 1.378 . S
C1074 C1075 1.367 . S
C1075 C1074 1.367 . S
C1075 C1077 1.433 . S
C1076 C1072 1.350 . S
C1076 C1073 1.463 . S
C1076 N1080 1.427 . S
C1077 H1067 0.929 . S
C1077 C1075 1.433 . S
C1077 N1080 1.384 . S
C1078 H1069 0.929 . S
C1078 C1070 1.378 . S
C1078 C1073 1.350 . S
C1079 H1066 0.929 . S
C1079 C1071 1.433 . S
C1079 N1081 1.384 . S
N1080 C1076 1.427 . S
N1080 C1077 1.384 . S
N1081 C1073 1.427 . S
N1081 C1079 1.384 . S
H1082 C1088 0.930 . S
H1083 C1092 0.930 . S
H1084 C1097 0.929 . S
H1085 C1095 0.929 . S
H1086 C1090 0.929 . S
H1087 C1096 0.929 . S
C1088 H1082 0.930 . S
C1088 C1089 1.367 . S
C1088 C1096 1.378 . S
C1089 C1088 1.367 . S
C1089 C1097 1.433 . S
C1090 H1086 0.929 . S
C1090 C1092 1.378 . S
C1090 C1094 1.350 . S
C1091 C1094 1.463 . S
C1091 C1096 1.350 . S
C1091 N1099 1.427 . S
C1092 H1083 0.930 . S
C1092 C1090 1.378 . S
C1092 C1093 1.367 . S
C1093 C1092 1.367 . S
C1093 C1095 1.433 . S
C1094 C1090 1.350 . S
C1094 C1091 1.463 . S
C1094 N1098 1.427 . S
C1095 H1085 0.929 . S
C1095 C1093 1.433 . S
C1095 N1098 1.384 . S
C1096 H1087 0.929 . S
C1096 C1088 1.378 . S
C1096 C1091 1.350 . S
C1097 H1084 0.929 . S
C1097 C1089 1.433 . S
C1097 N1099 1.384 . S
N1098 C1094 1.427 . S
N1098 C1095 1.384 . S
N1099 C1091 1.427 . S
N1099 C1097 1.384 . S
H1100 C1106 0.930 . S
H1101 C1110 0.930 . S
H1102 C1115 0.929 . S
H1103 C1113 0.929 . S
H1104 C1108 0.929 . S
H1105 C1114 0.929 . S
C1106 H1100 0.930 . S
C1106 C1107 1.367 . S
C1106 C1114 1.378 . S
C1107 C1106 1.367 . S
C1107 C1115 1.433 . S
C1108 H1104 0.929 . S
C1108 C1110 1.378 . S
C1108 C1112 1.350 . S
C1109 C1112 1.463 . S
C1109 C1114 1.350 . S
C1109 N1117 1.427 . S
C1110 H1101 0.930 . S
C1110 C1108 1.378 . S
C1110 C1111 1.367 . S
C1111 C1110 1.367 . S
C1111 C1113 1.433 . S
C1112 C1108 1.350 . S
C1112 C1109 1.463 . S
C1112 N1116 1.427 . S
C1113 H1103 0.929 . S
C1113 C1111 1.433 . S
C1113 N1116 1.384 . S
C1114 H1105 0.929 . S
C1114 C1106 1.378 . S
C1114 C1109 1.350 . S
C1115 H1102 0.929 . S
C1115 C1107 1.433 . S
C1115 N1117 1.384 . S
N1116 C1112 1.427 . S
N1116 C1113 1.384 . S
N1117 C1109 1.427 . S
N1117 C1115 1.384 . S
H1118 C1124 0.930 . S
H1119 C1128 0.930 . S
H1120 C1133 0.929 . S
H1121 C1131 0.929 . S
H1122 C1126 0.929 . S
H1123 C1132 0.929 . S
C1124 H1118 0.930 . S
C1124 C1125 1.367 . S
C1124 C1132 1.378 . S
C1125 C1124 1.367 . S
C1125 C1133 1.433 . S
C1126 H1122 0.929 . S
C1126 C1128 1.378 . S
C1126 C1130 1.350 . S
C1127 C1130 1.463 . S
C1127 C1132 1.350 . S
C1127 N1135 1.427 . S
C1128 H1119 0.930 . S
C1128 C1126 1.378 . S
C1128 C1129 1.367 . S
C1129 C1128 1.367 . S
C1129 C1131 1.433 . S
C1130 C1126 1.350 . S
C1130 C1127 1.463 . S
C1130 N1134 1.427 . S
C1131 H1121 0.929 . S
C1131 C1129 1.433 . S
C1131 N1134 1.384 . S
C1132 H1123 0.929 . S
C1132 C1124 1.378 . S
C1132 C1127 1.350 . S
C1133 H1120 0.929 . S
C1133 C1125 1.433 . S
C1133 N1135 1.384 . S
N1134 C1130 1.427 . S
N1134 C1131 1.384 . S
N1135 C1127 1.427 . S
N1135 C1133 1.384 . S
H1136 C1142 0.930 . S
H1137 C1146 0.930 . S
H1138 C1151 0.929 . S
H1139 C1149 0.929 . S
H1140 C1144 0.929 . S
H1141 C1150 0.929 . S
C1142 H1136 0.930 . S
C1142 C1143 1.367 . S
C1142 C1150 1.378 . S
C1143 C1142 1.367 . S
C1143 C1151 1.433 . S
C1144 H1140 0.929 . S
C1144 C1146 1.378 . S
C1144 C1148 1.350 . S
C1145 C1148 1.463 . S
C1145 C1150 1.350 . S
C1145 N1153 1.427 . S
C1146 H1137 0.930 . S
C1146 C1144 1.378 . S
C1146 C1147 1.367 . S
C1147 C1146 1.367 . S
C1147 C1149 1.433 . S
C1148 C1144 1.350 . S
C1148 C1145 1.463 . S
C1148 N1152 1.427 . S
C1149 H1139 0.929 . S
C1149 C1147 1.433 . S
C1149 N1152 1.384 . S
C1150 H1141 0.929 . S
C1150 C1142 1.378 . S
C1150 C1145 1.350 . S
C1151 H1138 0.929 . S
C1151 C1143 1.433 . S
C1151 N1153 1.384 . S
N1152 C1148 1.427 . S
N1152 C1149 1.384 . S
N1153 C1145 1.427 . S
N1153 C1151 1.384 . S
H1154 C1160 0.930 . S
H1155 C1164 0.930 . S
H1156 C1169 0.929 . S
H1157 C1167 0.929 . S
H1158 C1162 0.929 . S
H1159 C1168 0.929 . S
C1160 H1154 0.930 . S
C1160 C1161 1.367 . S
C1160 C1168 1.378 . S
C1161 C1160 1.367 . S
C1161 C1169 1.433 . S
C1162 H1158 0.929 . S
C1162 C1164 1.378 . S
C1162 C1166 1.350 . S
C1163 C1166 1.463 . S
C1163 C1168 1.350 . S
C1163 N1171 1.427 . S
C1164 H1155 0.930 . S
C1164 C1162 1.378 . S
C1164 C1165 1.367 . S
C1165 C1164 1.367 . S
C1165 C1167 1.433 . S
C1166 C1162 1.350 . S
C1166 C1163 1.463 . S
C1166 N1170 1.427 . S
C1167 H1157 0.929 . S
C1167 C1165 1.433 . S
C1167 N1170 1.384 . S
C1168 H1159 0.929 . S
C1168 C1160 1.378 . S
C1168 C1163 1.350 . S
C1169 H1156 0.929 . S
C1169 C1161 1.433 . S
C1169 N1171 1.384 . S
N1170 C1166 1.427 . S
N1170 C1167 1.384 . S
N1171 C1163 1.427 . S
N1171 C1169 1.384 . S
H1172 C1178 0.930 . S
H1173 C1182 0.930 . S
H1174 C1187 0.929 . S
H1175 C1185 0.929 . S
H1176 C1180 0.929 . S
H1177 C1186 0.929 . S
C1178 H1172 0.930 . S
C1178 C1179 1.367 . S
C1178 C1186 1.378 . S
C1179 C1178 1.367 . S
C1179 C1187 1.433 . S
C1180 H1176 0.929 . S
C1180 C1182 1.378 . S
C1180 C1184 1.350 . S
C1181 C1184 1.463 . S
C1181 C1186 1.350 . S
C1181 N1189 1.427 . S
C1182 H1173 0.930 . S
C1182 C1180 1.378 . S
C1182 C1183 1.367 . S
C1183 C1182 1.367 . S
C1183 C1185 1.433 . S
C1184 C1180 1.350 . S
C1184 C1181 1.463 . S
C1184 N1188 1.427 . S
C1185 H1175 0.929 . S
C1185 C1183 1.433 . S
C1185 N1188 1.384 . S
C1186 H1177 0.929 . S
C1186 C1178 1.378 . S
C1186 C1181 1.350 . S
C1187 H1174 0.929 . S
C1187 C1179 1.433 . S
C1187 N1189 1.384 . S
N1188 C1184 1.427 . S
N1188 C1185 1.384 . S
N1189 C1181 1.427 . S
N1189 C1187 1.384 . S
H1190 C1196 0.930 . S
H1191 C1200 0.930 . S
H1192 C1205 0.929 . S
H1193 C1203 0.929 . S
H1194 C1198 0.929 . S
H1195 C1204 0.929 . S
C1196 H1190 0.930 . S
C1196 C1197 1.367 . S
C1196 C1204 1.378 . S
C1197 C1196 1.367 . S
C1197 C1205 1.433 . S
C1198 H1194 0.929 . S
C1198 C1200 1.378 . S
C1198 C1202 1.350 . S
C1199 C1202 1.463 . S
C1199 C1204 1.350 . S
C1199 N1207 1.427 . S
C1200 H1191 0.930 . S
C1200 C1198 1.378 . S
C1200 C1201 1.367 . S
C1201 C1200 1.367 . S
C1201 C1203 1.433 . S
C1202 C1198 1.350 . S
C1202 C1199 1.463 . S
C1202 N1206 1.427 . S
C1203 H1193 0.929 . S
C1203 C1201 1.433 . S
C1203 N1206 1.384 . S
C1204 H1195 0.929 . S
C1204 C1196 1.378 . S
C1204 C1199 1.350 . S
C1205 H1192 0.929 . S
C1205 C1197 1.433 . S
C1205 N1207 1.384 . S
N1206 C1202 1.427 . S
N1206 C1203 1.384 . S
N1207 C1199 1.427 . S
N1207 C1205 1.384 . S
H1208 C1214 0.930 . S
H1209 C1218 0.930 . S
H1210 C1223 0.929 . S
H1211 C1221 0.929 . S
H1212 C1216 0.929 . S
H1213 C1222 0.929 . S
C1214 H1208 0.930 . S
C1214 C1215 1.367 . S
C1214 C1222 1.378 . S
C1215 C1214 1.367 . S
C1215 C1223 1.433 . S
C1216 H1212 0.929 . S
C1216 C1218 1.378 . S
C1216 C1220 1.350 . S
C1217 C1220 1.463 . S
C1217 C1222 1.350 . S
C1217 N1225 1.427 . S
C1218 H1209 0.930 . S
C1218 C1216 1.378 . S
C1218 C1219 1.367 . S
C1219 C1218 1.367 . S
C1219 C1221 1.433 . S
C1220 C1216 1.350 . S
C1220 C1217 1.463 . S
C1220 N1224 1.427 . S
C1221 H1211 0.929 . S
C1221 C1219 1.433 . S
C1221 N1224 1.384 . S
C1222 H1213 0.929 . S
C1222 C1214 1.378 . S
C1222 C1217 1.350 . S
C1223 H1210 0.929 . S
C1223 C1215 1.433 . S
C1223 N1225 1.384 . S
N1224 C1220 1.427 . S
N1224 C1221 1.384 . S
N1225 C1217 1.427 . S
N1225 C1223 1.384 . S
H1226 C1232 0.930 . S
H1227 C1236 0.930 . S
H1228 C1241 0.929 . S
H1229 C1239 0.929 . S
H1230 C1234 0.929 . S
H1231 C1240 0.929 . S
C1232 H1226 0.930 . S
C1232 C1233 1.367 . S
C1232 C1240 1.378 . S
C1233 C1232 1.367 . S
C1233 C1241 1.433 . S
C1234 H1230 0.929 . S
C1234 C1236 1.378 . S
C1234 C1238 1.350 . S
C1235 C1238 1.463 . S
C1235 C1240 1.350 . S
C1235 N1243 1.427 . S
C1236 H1227 0.930 . S
C1236 C1234 1.378 . S
C1236 C1237 1.367 . S
C1237 C1236 1.367 . S
C1237 C1239 1.433 . S
C1238 C1234 1.350 . S
C1238 C1235 1.463 . S
C1238 N1242 1.427 . S
C1239 H1229 0.929 . S
C1239 C1237 1.433 . S
C1239 N1242 1.384 . S
C1240 H1231 0.929 . S
C1240 C1232 1.378 . S
C1240 C1235 1.350 . S
C1241 H1228 0.929 . S
C1241 C1233 1.433 . S
C1241 N1243 1.384 . S
N1242 C1238 1.427 . S
N1242 C1239 1.384 . S
N1243 C1235 1.427 . S
N1243 C1241 1.384 . S
H1244 C1250 0.930 . S
H1245 C1254 0.930 . S
H1246 C1259 0.929 . S
H1247 C1257 0.929 . S
H1248 C1252 0.929 . S
H1249 C1258 0.929 . S
C1250 H1244 0.930 . S
C1250 C1251 1.367 . S
C1250 C1258 1.378 . S
C1251 C1250 1.367 . S
C1251 C1259 1.433 . S
C1252 H1248 0.929 . S
C1252 C1254 1.378 . S
C1252 C1256 1.350 . S
C1253 C1256 1.463 . S
C1253 C1258 1.350 . S
C1253 N1261 1.427 . S
C1254 H1245 0.930 . S
C1254 C1252 1.378 . S
C1254 C1255 1.367 . S
C1255 C1254 1.367 . S
C1255 C1257 1.433 . S
C1256 C1252 1.350 . S
C1256 C1253 1.463 . S
C1256 N1260 1.427 . S
C1257 H1247 0.929 . S
C1257 C1255 1.433 . S
C1257 N1260 1.384 . S
C1258 H1249 0.929 . S
C1258 C1250 1.378 . S
C1258 C1253 1.350 . S
C1259 H1246 0.929 . S
C1259 C1251 1.433 . S
C1259 N1261 1.384 . S
N1260 C1256 1.427 . S
N1260 C1257 1.384 . S
N1261 C1253 1.427 . S
N1261 C1259 1.384 . S
H1262 C1268 0.930 . S
H1263 C1272 0.930 . S
H1264 C1277 0.929 . S
H1265 C1275 0.929 . S
H1266 C1270 0.929 . S
H1267 C1276 0.929 . S
C1268 H1262 0.930 . S
C1268 C1269 1.367 . S
C1268 C1276 1.378 . S
C1269 C1268 1.367 . S
C1269 C1277 1.433 . S
C1270 H1266 0.929 . S
C1270 C1272 1.378 . S
C1270 C1274 1.350 . S
C1271 C1274 1.463 . S
C1271 C1276 1.350 . S
C1271 N1279 1.427 . S
C1272 H1263 0.930 . S
C1272 C1270 1.378 . S
C1272 C1273 1.367 . S
C1273 C1272 1.367 . S
C1273 C1275 1.433 . S
C1274 C1270 1.350 . S
C1274 C1271 1.463 . S
C1274 N1278 1.427 . S
C1275 H1265 0.929 . S
C1275 C1273 1.433 . S
C1275 N1278 1.384 . S
C1276 H1267 0.929 . S
C1276 C1268 1.378 . S
C1276 C1271 1.350 . S
C1277 H1264 0.929 . S
C1277 C1269 1.433 . S
C1277 N1279 1.384 . S
N1278 C1274 1.427 . S
N1278 C1275 1.384 . S
N1279 C1271 1.427 . S
N1279 C1277 1.384 . S
H1280 C1286 0.930 . S
H1281 C1290 0.930 . S
H1282 C1295 0.929 . S
H1283 C1293 0.929 . S
H1284 C1288 0.929 . S
H1285 C1294 0.929 . S
C1286 H1280 0.930 . S
C1286 C1287 1.367 . S
C1286 C1294 1.378 . S
C1287 C1286 1.367 . S
C1287 C1295 1.433 . S
C1288 H1284 0.929 . S
C1288 C1290 1.378 . S
C1288 C1292 1.350 . S
C1289 C1292 1.463 . S
C1289 C1294 1.350 . S
C1289 N1297 1.427 . S
C1290 H1281 0.930 . S
C1290 C1288 1.378 . S
C1290 C1291 1.367 . S
C1291 C1290 1.367 . S
C1291 C1293 1.433 . S
C1292 C1288 1.350 . S
C1292 C1289 1.463 . S
C1292 N1296 1.427 . S
C1293 H1283 0.929 . S
C1293 C1291 1.433 . S
C1293 N1296 1.384 . S
C1294 H1285 0.929 . S
C1294 C1286 1.378 . S
C1294 C1289 1.350 . S
C1295 H1282 0.929 . S
C1295 C1287 1.433 . S
C1295 N1297 1.384 . S
N1296 C1292 1.427 . S
N1296 C1293 1.384 . S
N1297 C1289 1.427 . S
N1297 C1295 1.384 . S
H1298 C1304 0.930 . S
H1299 C1308 0.930 . S
H1300 C1313 0.929 . S
H1301 C1311 0.929 . S
H1302 C1306 0.929 . S
H1303 C1312 0.929 . S
C1304 H1298 0.930 . S
C1304 C1305 1.367 . S
C1304 C1312 1.378 . S
C1305 C1304 1.367 . S
C1305 C1313 1.433 . S
C1306 H1302 0.929 . S
C1306 C1308 1.378 . S
C1306 C1310 1.350 . S
C1307 C1310 1.463 . S
C1307 C1312 1.350 . S
C1307 N1315 1.427 . S
C1308 H1299 0.930 . S
C1308 C1306 1.378 . S
C1308 C1309 1.367 . S
C1309 C1308 1.367 . S
C1309 C1311 1.433 . S
C1310 C1306 1.350 . S
C1310 C1307 1.463 . S
C1310 N1314 1.427 . S
C1311 H1301 0.929 . S
C1311 C1309 1.433 . S
C1311 N1314 1.384 . S
C1312 H1303 0.929 . S
C1312 C1304 1.378 . S
C1312 C1307 1.350 . S
C1313 H1300 0.929 . S
C1313 C1305 1.433 . S
C1313 N1315 1.384 . S
N1314 C1310 1.427 . S
N1314 C1311 1.384 . S
N1315 C1307 1.427 . S
N1315 C1313 1.384 . S
H1316 C1322 0.930 . S
H1317 C1326 0.930 . S
H1318 C1331 0.929 . S
H1319 C1329 0.929 . S
H1320 C1324 0.929 . S
H1321 C1330 0.929 . S
C1322 H1316 0.930 . S
C1322 C1323 1.367 . S
C1322 C1330 1.378 . S
C1323 C1322 1.367 . S
C1323 C1331 1.433 . S
C1324 H1320 0.929 . S
C1324 C1326 1.378 . S
C1324 C1328 1.350 . S
C1325 C1328 1.463 . S
C1325 C1330 1.350 . S
C1325 N1333 1.427 . S
C1326 H1317 0.930 . S
C1326 C1324 1.378 . S
C1326 C1327 1.367 . S
C1327 C1326 1.367 . S
C1327 C1329 1.433 . S
C1328 C1324 1.350 . S
C1328 C1325 1.463 . S
C1328 N1332 1.427 . S
C1329 H1319 0.929 . S
C1329 C1327 1.433 . S
C1329 N1332 1.384 . S
C1330 H1321 0.929 . S
C1330 C1322 1.378 . S
C1330 C1325 1.350 . S
C1331 H1318 0.929 . S
C1331 C1323 1.433 . S
C1331 N1333 1.384 . S
N1332 C1328 1.427 . S
N1332 C1329 1.384 . S
N1333 C1325 1.427 . S
N1333 C1331 1.384 . S
H1334 C1340 0.930 . S
H1335 C1344 0.930 . S
H1336 C1349 0.929 . S
H1337 C1347 0.929 . S
H1338 C1342 0.929 . S
H1339 C1348 0.929 . S
C1340 H1334 0.930 . S
C1340 C1341 1.367 . S
C1340 C1348 1.378 . S
C1341 C1340 1.367 . S
C1341 C1349 1.433 . S
C1342 H1338 0.929 . S
C1342 C1344 1.378 . S
C1342 C1346 1.350 . S
C1343 C1346 1.463 . S
C1343 C1348 1.350 . S
C1343 N1351 1.427 . S
C1344 H1335 0.930 . S
C1344 C1342 1.378 . S
C1344 C1345 1.367 . S
C1345 C1344 1.367 . S
C1345 C1347 1.433 . S
C1346 C1342 1.350 . S
C1346 C1343 1.463 . S
C1346 N1350 1.427 . S
C1347 H1337 0.929 . S
C1347 C1345 1.433 . S
C1347 N1350 1.384 . S
C1348 H1339 0.929 . S
C1348 C1340 1.378 . S
C1348 C1343 1.350 . S
C1349 H1336 0.929 . S
C1349 C1341 1.433 . S
C1349 N1351 1.384 . S
N1350 C1346 1.427 . S
N1350 C1347 1.384 . S
N1351 C1343 1.427 . S
N1351 C1349 1.384 . S
H1352 C1358 0.930 . S
H1353 C1362 0.930 . S
H1354 C1367 0.929 . S
H1355 C1365 0.929 . S
H1356 C1360 0.929 . S
H1357 C1366 0.929 . S
C1358 H1352 0.930 . S
C1358 C1359 1.367 . S
C1358 C1366 1.378 . S
C1359 C1358 1.367 . S
C1359 C1367 1.433 . S
C1360 H1356 0.929 . S
C1360 C1362 1.378 . S
C1360 C1364 1.350 . S
C1361 C1364 1.463 . S
C1361 C1366 1.350 . S
C1361 N1369 1.427 . S
C1362 H1353 0.930 . S
C1362 C1360 1.378 . S
C1362 C1363 1.367 . S
C1363 C1362 1.367 . S
C1363 C1365 1.433 . S
C1364 C1360 1.350 . S
C1364 C1361 1.463 . S
C1364 N1368 1.427 . S
C1365 H1355 0.929 . S
C1365 C1363 1.433 . S
C1365 N1368 1.384 . S
C1366 H1357 0.929 . S
C1366 C1358 1.378 . S
C1366 C1361 1.350 . S
C1367 H1354 0.929 . S
C1367 C1359 1.433 . S
C1367 N1369 1.384 . S
N1368 C1364 1.427 . S
N1368 C1365 1.384 . S
N1369 C1361 1.427 . S
N1369 C1367 1.384 . S
H1370 C1376 0.930 . S
H1371 C1380 0.930 . S
H1372 C1385 0.929 . S
H1373 C1383 0.929 . S
H1374 C1378 0.929 . S
H1375 C1384 0.929 . S
C1376 H1370 0.930 . S
C1376 C1377 1.367 . S
C1376 C1384 1.378 . S
C1377 C1376 1.367 . S
C1377 C1385 1.433 . S
C1378 H1374 0.929 . S
C1378 C1380 1.378 . S
C1378 C1382 1.350 . S
C1379 C1382 1.463 . S
C1379 C1384 1.350 . S
C1379 N1387 1.427 . S
C1380 H1371 0.930 . S
C1380 C1378 1.378 . S
C1380 C1381 1.367 . S
C1381 C1380 1.367 . S
C1381 C1383 1.433 . S
C1382 C1378 1.350 . S
C1382 C1379 1.463 . S
C1382 N1386 1.427 . S
C1383 H1373 0.929 . S
C1383 C1381 1.433 . S
C1383 N1386 1.384 . S
C1384 H1375 0.929 . S
C1384 C1376 1.378 . S
C1384 C1379 1.350 . S
C1385 H1372 0.929 . S
C1385 C1377 1.433 . S
C1385 N1387 1.384 . S
N1386 C1382 1.427 . S
N1386 C1383 1.384 . S
N1387 C1379 1.427 . S
N1387 C1385 1.384 . S
H1388 C1394 0.930 . S
H1389 C1398 0.930 . S
H1390 C1403 0.929 . S
H1391 C1401 0.929 . S
H1392 C1396 0.929 . S
H1393 C1402 0.929 . S
C1394 H1388 0.930 . S
C1394 C1395 1.367 . S
C1394 C1402 1.378 . S
C1395 C1394 1.367 . S
C1395 C1403 1.433 . S
C1396 H1392 0.929 . S
C1396 C1398 1.378 . S
C1396 C1400 1.350 . S
C1397 C1400 1.463 . S
C1397 C1402 1.350 . S
C1397 N1405 1.427 . S
C1398 H1389 0.930 . S
C1398 C1396 1.378 . S
C1398 C1399 1.367 . S
C1399 C1398 1.367 . S
C1399 C1401 1.433 . S
C1400 C1396 1.350 . S
C1400 C1397 1.463 . S
C1400 N1404 1.427 . S
C1401 H1391 0.929 . S
C1401 C1399 1.433 . S
C1401 N1404 1.384 . S
C1402 H1393 0.929 . S
C1402 C1394 1.378 . S
C1402 C1397 1.350 . S
C1403 H1390 0.929 . S
C1403 C1395 1.433 . S
C1403 N1405 1.384 . S
N1404 C1400 1.427 . S
N1404 C1401 1.384 . S
N1405 C1397 1.427 . S
N1405 C1403 1.384 . S
H1406 C1412 0.930 . S
H1407 C1416 0.930 . S
H1408 C1421 0.929 . S
H1409 C1419 0.929 . S
H1410 C1414 0.929 . S
H1411 C1420 0.929 . S
C1412 H1406 0.930 . S
C1412 C1413 1.367 . S
C1412 C1420 1.378 . S
C1413 C1412 1.367 . S
C1413 C1421 1.433 . S
C1414 H1410 0.929 . S
C1414 C1416 1.378 . S
C1414 C1418 1.350 . S
C1415 C1418 1.463 . S
C1415 C1420 1.350 . S
C1415 N1423 1.427 . S
C1416 H1407 0.930 . S
C1416 C1414 1.378 . S
C1416 C1417 1.367 . S
C1417 C1416 1.367 . S
C1417 C1419 1.433 . S
C1418 C1414 1.350 . S
C1418 C1415 1.463 . S
C1418 N1422 1.427 . S
C1419 H1409 0.929 . S
C1419 C1417 1.433 . S
C1419 N1422 1.384 . S
C1420 H1411 0.929 . S
C1420 C1412 1.378 . S
C1420 C1415 1.350 . S
C1421 H1408 0.929 . S
C1421 C1413 1.433 . S
C1421 N1423 1.384 . S
N1422 C1418 1.427 . S
N1422 C1419 1.384 . S
N1423 C1415 1.427 . S
N1423 C1421 1.384 . S
H1424 C1430 0.930 . S
H1425 C1434 0.930 . S
H1426 C1439 0.929 . S
H1427 C1437 0.929 . S
H1428 C1432 0.929 . S
H1429 C1438 0.929 . S
C1430 H1424 0.930 . S
C1430 C1431 1.367 . S
C1430 C1438 1.378 . S
C1431 C1430 1.367 . S
C1431 C1439 1.433 . S
C1432 H1428 0.929 . S
C1432 C1434 1.378 . S
C1432 C1436 1.350 . S
C1433 C1436 1.463 . S
C1433 C1438 1.350 . S
C1433 N1441 1.427 . S
C1434 H1425 0.930 . S
C1434 C1432 1.378 . S
C1434 C1435 1.367 . S
C1435 C1434 1.367 . S
C1435 C1437 1.433 . S
C1436 C1432 1.350 . S
C1436 C1433 1.463 . S
C1436 N1440 1.427 . S
C1437 H1427 0.929 . S
C1437 C1435 1.433 . S
C1437 N1440 1.384 . S
C1438 H1429 0.929 . S
C1438 C1430 1.378 . S
C1438 C1433 1.350 . S
C1439 H1426 0.929 . S
C1439 C1431 1.433 . S
C1439 N1441 1.384 . S
N1440 C1436 1.427 . S
N1440 C1437 1.384 . S
N1441 C1433 1.427 . S
N1441 C1439 1.384 . S
H1442 C1448 0.930 . S
H1443 C1452 0.930 . S
H1444 C1457 0.929 . S
H1445 C1455 0.929 . S
H1446 C1450 0.929 . S
H1447 C1456 0.929 . S
C1448 H1442 0.930 . S
C1448 C1449 1.367 . S
C1448 C1456 1.378 . S
C1449 C1448 1.367 . S
C1449 C1457 1.433 . S
C1450 H1446 0.929 . S
C1450 C1452 1.378 . S
C1450 C1454 1.350 . S
C1451 C1454 1.463 . S
C1451 C1456 1.350 . S
C1451 N1459 1.427 . S
C1452 H1443 0.930 . S
C1452 C1450 1.378 . S
C1452 C1453 1.367 . S
C1453 C1452 1.367 . S
C1453 C1455 1.433 . S
C1454 C1450 1.350 . S
C1454 C1451 1.463 . S
C1454 N1458 1.427 . S
C1455 H1445 0.929 . S
C1455 C1453 1.433 . S
C1455 N1458 1.384 . S
C1456 H1447 0.929 . S
C1456 C1448 1.378 . S
C1456 C1451 1.350 . S
C1457 H1444 0.929 . S
C1457 C1449 1.433 . S
C1457 N1459 1.384 . S
N1458 C1454 1.427 . S
N1458 C1455 1.384 . S
N1459 C1451 1.427 . S
N1459 C1457 1.384 . S
H1460 C1466 0.930 . S
H1461 C1470 0.930 . S
H1462 C1475 0.929 . S
H1463 C1473 0.929 . S
H1464 C1468 0.929 . S
H1465 C1474 0.929 . S
C1466 H1460 0.930 . S
C1466 C1467 1.367 . S
C1466 C1474 1.378 . S
C1467 C1466 1.367 . S
C1467 C1475 1.433 . S
C1468 H1464 0.929 . S
C1468 C1470 1.378 . S
C1468 C1472 1.350 . S
C1469 C1472 1.463 . S
C1469 C1474 1.350 . S
C1469 N1477 1.427 . S
C1470 H1461 0.930 . S
C1470 C1468 1.378 . S
C1470 C1471 1.367 . S
C1471 C1470 1.367 . S
C1471 C1473 1.433 . S
C1472 C1468 1.350 . S
C1472 C1469 1.463 . S
C1472 N1476 1.427 . S
C1473 H1463 0.929 . S
C1473 C1471 1.433 . S
C1473 N1476 1.384 . S
C1474 H1465 0.929 . S
C1474 C1466 1.378 . S
C1474 C1469 1.350 . S
C1475 H1462 0.929 . S
C1475 C1467 1.433 . S
C1475 N1477 1.384 . S
N1476 C1472 1.427 . S
N1476 C1473 1.384 . S
N1477 C1469 1.427 . S
N1477 C1475 1.384 . S
H1478 C1484 0.930 . S
H1479 C1488 0.930 . S
H1480 C1493 0.929 . S
H1481 C1491 0.929 . S
H1482 C1486 0.929 . S
H1483 C1492 0.929 . S
C1484 H1478 0.930 . S
C1484 C1485 1.367 . S
C1484 C1492 1.378 . S
C1485 C1484 1.367 . S
C1485 C1493 1.433 . S
C1486 H1482 0.929 . S
C1486 C1488 1.378 . S
C1486 C1490 1.350 . S
C1487 C1490 1.463 . S
C1487 C1492 1.350 . S
C1487 N1495 1.427 . S
C1488 H1479 0.930 . S
C1488 C1486 1.378 . S
C1488 C1489 1.367 . S
C1489 C1488 1.367 . S
C1489 C1491 1.433 . S
C1490 C1486 1.350 . S
C1490 C1487 1.463 . S
C1490 N1494 1.427 . S
C1491 H1481 0.929 . S
C1491 C1489 1.433 . S
C1491 N1494 1.384 . S
C1492 H1483 0.929 . S
C1492 C1484 1.378 . S
C1492 C1487 1.350 . S
C1493 H1480 0.929 . S
C1493 C1485 1.433 . S
C1493 N1495 1.384 . S
N1494 C1490 1.427 . S
N1494 C1491 1.384 . S
N1495 C1487 1.427 . S
N1495 C1493 1.384 . S
H1496 C1502 0.930 . S
H1497 C1506 0.930 . S
H1498 C1511 0.929 . S
H1499 C1509 0.929 . S
H1500 C1504 0.929 . S
H1501 C1510 0.929 . S
C1502 H1496 0.930 . S
C1502 C1503 1.367 . S
C1502 C1510 1.378 . S
C1503 C1502 1.367 . S
C1503 C1511 1.433 . S
C1504 H1500 0.929 . S
C1504 C1506 1.378 . S
C1504 C1508 1.350 . S
C1505 C1508 1.463 . S
C1505 C1510 1.350 . S
C1505 N1513 1.427 . S
C1506 H1497 0.930 . S
C1506 C1504 1.378 . S
C1506 C1507 1.367 . S
C1507 C1506 1.367 . S
C1507 C1509 1.433 . S
C1508 C1504 1.350 . S
C1508 C1505 1.463 . S
C1508 N1512 1.427 . S
C1509 H1499 0.929 . S
C1509 C1507 1.433 . S
C1509 N1512 1.384 . S
C1510 H1501 0.929 . S
C1510 C1502 1.378 . S
C1510 C1505 1.350 . S
C1511 H1498 0.929 . S
C1511 C1503 1.433 . S
C1511 N1513 1.384 . S
N1512 C1508 1.427 . S
N1512 C1509 1.384 . S
N1513 C1505 1.427 . S
N1513 C1511 1.384 . S
H1514 C1520 0.930 . S
H1515 C1524 0.930 . S
H1516 C1529 0.929 . S
H1517 C1527 0.929 . S
H1518 C1522 0.929 . S
H1519 C1528 0.929 . S
C1520 H1514 0.930 . S
C1520 C1521 1.367 . S
C1520 C1528 1.378 . S
C1521 C1520 1.367 . S
C1521 C1529 1.433 . S
C1522 H1518 0.929 . S
C1522 C1524 1.378 . S
C1522 C1526 1.350 . S
C1523 C1526 1.463 . S
C1523 C1528 1.350 . S
C1523 N1531 1.427 . S
C1524 H1515 0.930 . S
C1524 C1522 1.378 . S
C1524 C1525 1.367 . S
C1525 C1524 1.367 . S
C1525 C1527 1.433 . S
C1526 C1522 1.350 . S
C1526 C1523 1.463 . S
C1526 N1530 1.427 . S
C1527 H1517 0.929 . S
C1527 C1525 1.433 . S
C1527 N1530 1.384 . S
C1528 H1519 0.929 . S
C1528 C1520 1.378 . S
C1528 C1523 1.350 . S
C1529 H1516 0.929 . S
C1529 C1521 1.433 . S
C1529 N1531 1.384 . S
N1530 C1526 1.427 . S
N1530 C1527 1.384 . S
N1531 C1523 1.427 . S
N1531 C1529 1.384 . S
H1532 C1538 0.930 . S
H1533 C1542 0.930 . S
H1534 C1547 0.929 . S
H1535 C1545 0.929 . S
H1536 C1540 0.929 . S
H1537 C1546 0.929 . S
C1538 H1532 0.930 . S
C1538 C1539 1.367 . S
C1538 C1546 1.378 . S
C1539 C1538 1.367 . S
C1539 C1547 1.433 . S
C1540 H1536 0.929 . S
C1540 C1542 1.378 . S
C1540 C1544 1.350 . S
C1541 C1544 1.463 . S
C1541 C1546 1.350 . S
C1541 N1549 1.427 . S
C1542 H1533 0.930 . S
C1542 C1540 1.378 . S
C1542 C1543 1.367 . S
C1543 C1542 1.367 . S
C1543 C1545 1.433 . S
C1544 C1540 1.350 . S
C1544 C1541 1.463 . S
C1544 N1548 1.427 . S
C1545 H1535 0.929 . S
C1545 C1543 1.433 . S
C1545 N1548 1.384 . S
C1546 H1537 0.929 . S
C1546 C1538 1.378 . S
C1546 C1541 1.350 . S
C1547 H1534 0.929 . S
C1547 C1539 1.433 . S
C1547 N1549 1.384 . S
N1548 C1544 1.427 . S
N1548 C1545 1.384 . S
N1549 C1541 1.427 . S
N1549 C1547 1.384 . S
H1550 C1556 0.930 . S
H1551 C1560 0.930 . S
H1552 C1565 0.929 . S
H1553 C1563 0.929 . S
H1554 C1558 0.929 . S
H1555 C1564 0.929 . S
C1556 H1550 0.930 . S
C1556 C1557 1.367 . S
C1556 C1564 1.378 . S
C1557 C1556 1.367 . S
C1557 C1565 1.433 . S
C1558 H1554 0.929 . S
C1558 C1560 1.378 . S
C1558 C1562 1.350 . S
C1559 C1562 1.463 . S
C1559 C1564 1.350 . S
C1559 N1567 1.427 . S
C1560 H1551 0.930 . S
C1560 C1558 1.378 . S
C1560 C1561 1.367 . S
C1561 C1560 1.367 . S
C1561 C1563 1.433 . S
C1562 C1558 1.350 . S
C1562 C1559 1.463 . S
C1562 N1566 1.427 . S
C1563 H1553 0.929 . S
C1563 C1561 1.433 . S
C1563 N1566 1.384 . S
C1564 H1555 0.929 . S
C1564 C1556 1.378 . S
C1564 C1559 1.350 . S
C1565 H1552 0.929 . S
C1565 C1557 1.433 . S
C1565 N1567 1.384 . S
N1566 C1562 1.427 . S
N1566 C1563 1.384 . S
N1567 C1559 1.427 . S
N1567 C1565 1.384 . S
H1568 C1574 0.930 . S
H1569 C1578 0.930 . S
H1570 C1583 0.929 . S
H1571 C1581 0.929 . S
H1572 C1576 0.929 . S
H1573 C1582 0.929 . S
C1574 H1568 0.930 . S
C1574 C1575 1.367 . S
C1574 C1582 1.378 . S
C1575 C1574 1.367 . S
C1575 C1583 1.433 . S
C1576 H1572 0.929 . S
C1576 C1578 1.378 . S
C1576 C1580 1.350 . S
C1577 C1580 1.463 1_565 S
C1577 C1582 1.350 . S
C1577 N1585 1.427 . S
C1578 H1569 0.930 . S
C1578 C1576 1.378 . S
C1578 C1579 1.367 . S
C1579 C1578 1.367 . S
C1579 C1581 1.433 . S
C1580 C1576 1.350 . S
C1580 C1577 1.463 1_545 S
C1580 N1584 1.427 . S
C1581 H1571 0.929 . S
C1581 C1579 1.433 . S
C1581 N1584 1.384 . S
C1582 H1573 0.929 . S
C1582 C1574 1.378 . S
C1582 C1577 1.350 . S
C1583 H1570 0.929 . S
C1583 C1575 1.433 . S
C1583 N1585 1.384 . S
N1584 C1580 1.427 . S
N1584 C1581 1.384 . S
N1585 C1577 1.427 . S
N1585 C1583 1.384 . S
H1586 C1592 0.930 . S
H1587 C1596 0.930 . S
H1588 C1601 0.929 . S
H1589 C1599 0.929 . S
H1590 C1594 0.929 . S
H1591 C1600 0.929 . S
C1592 H1586 0.930 . S
C1592 C1593 1.367 . S
C1592 C1600 1.378 . S
C1593 C1592 1.367 . S
C1593 C1601 1.433 . S
C1594 H1590 0.929 . S
C1594 C1596 1.378 . S
C1594 C1598 1.350 . S
C1595 C1598 1.463 1_655 S
C1595 C1600 1.350 . S
C1595 N1603 1.427 . S
C1596 H1587 0.930 . S
C1596 C1594 1.378 . S
C1596 C1597 1.367 . S
C1597 C1596 1.367 . S
C1597 C1599 1.433 . S
C1598 C1594 1.350 . S
C1598 C1595 1.463 1_455 S
C1598 N1602 1.427 . S
C1599 H1589 0.929 . S
C1599 C1597 1.433 . S
C1599 N1602 1.384 . S
C1600 H1591 0.929 . S
C1600 C1592 1.378 . S
C1600 C1595 1.350 . S
C1601 H1588 0.929 . S
C1601 C1593 1.433 . S
C1601 N1603 1.384 . S
N1602 C1598 1.427 . S
N1602 C1599 1.384 . S
N1603 C1595 1.427 . S
N1603 C1601 1.384 . S
H1604 C1610 0.930 . S
H1605 C1614 0.930 . S
H1606 C1619 0.929 . S
H1607 C1617 0.929 . S
H1608 C1612 0.929 . S
H1609 C1618 0.929 . S
C1610 H1604 0.930 . S
C1610 C1611 1.367 . S
C1610 C1618 1.378 . S
C1611 C1610 1.367 . S
C1611 C1619 1.433 . S
C1612 H1608 0.929 . S
C1612 C1614 1.378 . S
C1612 C1616 1.350 . S
C1613 C1616 1.463 1_545 S
C1613 C1618 1.350 . S
C1613 N1621 1.427 . S
C1614 H1605 0.930 . S
C1614 C1612 1.378 . S
C1614 C1615 1.367 . S
C1615 C1614 1.367 . S
C1615 C1617 1.433 . S
C1616 C1612 1.350 . S
C1616 C1613 1.463 1_565 S
C1616 N1620 1.427 . S
C1617 H1607 0.929 . S
C1617 C1615 1.433 . S
C1617 N1620 1.384 . S
C1618 H1609 0.929 . S
C1618 C1610 1.378 . S
C1618 C1613 1.350 . S
C1619 H1606 0.929 . S
C1619 C1611 1.433 . S
C1619 N1621 1.384 . S
N1620 C1616 1.427 . S
N1620 C1617 1.384 . S
N1621 C1613 1.427 . S
N1621 C1619 1.384 . S
H1622 C1628 0.930 . S
H1623 C1632 0.930 . S
H1624 C1637 0.929 . S
H1625 C1635 0.929 . S
H1626 C1630 0.929 . S
H1627 C1636 0.929 . S
C1628 H1622 0.930 . S
C1628 C1629 1.367 . S
C1628 C1636 1.378 . S
C1629 C1628 1.367 . S
C1629 C1637 1.433 . S
C1630 H1626 0.929 . S
C1630 C1632 1.378 . S
C1630 C1634 1.350 . S
C1631 C1634 1.463 1_655 S
C1631 C1636 1.350 . S
C1631 N1639 1.427 . S
C1632 H1623 0.930 . S
C1632 C1630 1.378 . S
C1632 C1633 1.367 . S
C1633 C1632 1.367 . S
C1633 C1635 1.433 . S
C1634 C1630 1.350 . S
C1634 C1631 1.463 1_455 S
C1634 N1638 1.427 . S
C1635 H1625 0.929 . S
C1635 C1633 1.433 . S
C1635 N1638 1.384 . S
C1636 H1627 0.929 . S
C1636 C1628 1.378 . S
C1636 C1631 1.350 . S
C1637 H1624 0.929 . S
C1637 C1629 1.433 . S
C1637 N1639 1.384 . S
N1638 C1634 1.427 . S
N1638 C1635 1.384 . S
N1639 C1631 1.427 . S
N1639 C1637 1.384 . S
H1640 C1646 0.930 . S
H1641 C1650 0.930 . S
H1642 C1655 0.929 . S
H1643 C1653 0.929 . S
H1644 C1648 0.929 . S
H1645 C1654 0.929 . S
C1646 H1640 0.930 . S
C1646 C1647 1.367 . S
C1646 C1654 1.378 . S
C1647 C1646 1.367 . S
C1647 C1655 1.433 . S
C1648 H1644 0.929 . S
C1648 C1650 1.378 . S
C1648 C1652 1.350 . S
C1649 C1652 1.463 1_545 S
C1649 C1654 1.350 . S
C1649 N1657 1.427 . S
C1650 H1641 0.930 . S
C1650 C1648 1.378 . S
C1650 C1651 1.367 . S
C1651 C1650 1.367 . S
C1651 C1653 1.433 . S
C1652 C1648 1.350 . S
C1652 C1649 1.463 1_565 S
C1652 N1656 1.427 . S
C1653 H1643 0.929 . S
C1653 C1651 1.433 . S
C1653 N1656 1.384 . S
C1654 H1645 0.929 . S
C1654 C1646 1.378 . S
C1654 C1649 1.350 . S
C1655 H1642 0.929 . S
C1655 C1647 1.433 . S
C1655 N1657 1.384 . S
N1656 C1652 1.427 . S
N1656 C1653 1.384 . S
N1657 C1649 1.427 . S
N1657 C1655 1.384 . S
H1658 C1664 0.930 . S
H1659 C1668 0.930 . S
H1660 C1673 0.929 . S
H1661 C1671 0.929 . S
H1662 C1666 0.929 . S
H1663 C1672 0.929 . S
C1664 H1658 0.930 . S
C1664 C1665 1.367 . S
C1664 C1672 1.378 . S
C1665 C1664 1.367 . S
C1665 C1673 1.433 . S
C1666 H1662 0.929 . S
C1666 C1668 1.378 . S
C1666 C1670 1.350 . S
C1667 C1670 1.463 1_655 S
C1667 C1672 1.350 . S
C1667 N1675 1.427 . S
C1668 H1659 0.930 . S
C1668 C1666 1.378 . S
C1668 C1669 1.367 . S
C1669 C1668 1.367 . S
C1669 C1671 1.433 . S
C1670 C1666 1.350 . S
C1670 C1667 1.463 1_455 S
C1670 N1674 1.427 . S
C1671 H1661 0.929 . S
C1671 C1669 1.433 . S
C1671 N1674 1.384 . S
C1672 H1663 0.929 . S
C1672 C1664 1.378 . S
C1672 C1667 1.350 . S
C1673 H1660 0.929 . S
C1673 C1665 1.433 . S
C1673 N1675 1.384 . S
N1674 C1670 1.427 . S
N1674 C1671 1.384 . S
N1675 C1667 1.427 . S
N1675 C1673 1.384 . S
H1676 C1682 0.930 . S
H1677 C1686 0.930 . S
H1678 C1691 0.929 . S
H1679 C1689 0.929 . S
H1680 C1684 0.929 . S
H1681 C1690 0.929 . S
C1682 H1676 0.930 . S
C1682 C1683 1.367 . S
C1682 C1690 1.378 . S
C1683 C1682 1.367 . S
C1683 C1691 1.433 . S
C1684 H1680 0.929 . S
C1684 C1686 1.378 . S
C1684 C1688 1.350 . S
C1685 C1688 1.463 1_545 S
C1685 C1690 1.350 . S
C1685 N1693 1.427 . S
C1686 H1677 0.930 . S
C1686 C1684 1.378 . S
C1686 C1687 1.367 . S
C1687 C1686 1.367 . S
C1687 C1689 1.433 . S
C1688 C1684 1.350 . S
C1688 C1685 1.463 1_565 S
C1688 N1692 1.427 . S
C1689 H1679 0.929 . S
C1689 C1687 1.433 . S
C1689 N1692 1.384 . S
C1690 H1681 0.929 . S
C1690 C1682 1.378 . S
C1690 C1685 1.350 . S
C1691 H1678 0.929 . S
C1691 C1683 1.433 . S
C1691 N1693 1.384 . S
N1692 C1688 1.427 . S
N1692 C1689 1.384 . S
N1693 C1685 1.427 . S
N1693 C1691 1.384 . S
H1694 C1700 0.930 . S
H1695 C1704 0.930 . S
H1696 C1709 0.929 . S
H1697 C1707 0.929 . S
H1698 C1702 0.929 . S
H1699 C1708 0.929 . S
C1700 H1694 0.930 . S
C1700 C1701 1.367 . S
C1700 C1708 1.378 . S
C1701 C1700 1.367 . S
C1701 C1709 1.433 . S
C1702 H1698 0.929 . S
C1702 C1704 1.378 . S
C1702 C1706 1.350 . S
C1703 C1706 1.463 1_655 S
C1703 C1708 1.350 . S
C1703 N1711 1.427 . S
C1704 H1695 0.930 . S
C1704 C1702 1.378 . S
C1704 C1705 1.367 . S
C1705 C1704 1.367 . S
C1705 C1707 1.433 . S
C1706 C1702 1.350 . S
C1706 C1703 1.463 1_455 S
C1706 N1710 1.427 . S
C1707 H1697 0.929 . S
C1707 C1705 1.433 . S
C1707 N1710 1.384 . S
C1708 H1699 0.929 . S
C1708 C1700 1.378 . S
C1708 C1703 1.350 . S
C1709 H1696 0.929 . S
C1709 C1701 1.433 . S
C1709 N1711 1.384 . S
N1710 C1706 1.427 . S
N1710 C1707 1.384 . S
N1711 C1703 1.427 . S
N1711 C1709 1.384 . S
H1712 C1718 0.930 . S
H1713 C1722 0.930 . S
H1714 C1727 0.929 . S
H1715 C1725 0.929 . S
H1716 C1720 0.929 . S
H1717 C1726 0.929 . S
C1718 H1712 0.930 . S
C1718 C1719 1.367 . S
C1718 C1726 1.378 . S
C1719 C1718 1.367 . S
C1719 C1727 1.433 . S
C1720 H1716 0.929 . S
C1720 C1722 1.378 . S
C1720 C1724 1.350 . S
C1721 C1724 1.463 1_554 S
C1721 C1726 1.350 . S
C1721 N1729 1.427 . S
C1722 H1713 0.930 . S
C1722 C1720 1.378 . S
C1722 C1723 1.367 . S
C1723 C1722 1.367 . S
C1723 C1725 1.433 . S
C1724 C1720 1.350 . S
C1724 C1721 1.463 1_556 S
C1724 N1728 1.427 . S
C1725 H1715 0.929 . S
C1725 C1723 1.433 . S
C1725 N1728 1.384 . S
C1726 H1717 0.929 . S
C1726 C1718 1.378 . S
C1726 C1721 1.350 . S
C1727 H1714 0.929 . S
C1727 C1719 1.433 . S
C1727 N1729 1.384 . S
N1728 C1724 1.427 . S
N1728 C1725 1.384 . S
N1729 C1721 1.427 . S
N1729 C1727 1.384 . S
H1730 C1736 0.930 . S
H1731 C1740 0.930 . S
H1732 C1745 0.929 . S
H1733 C1743 0.929 . S
H1734 C1738 0.929 . S
H1735 C1744 0.929 . S
C1736 H1730 0.930 . S
C1736 C1737 1.367 . S
C1736 C1744 1.378 . S
C1737 C1736 1.367 . S
C1737 C1745 1.433 . S
C1738 H1734 0.929 . S
C1738 C1740 1.378 . S
C1738 C1742 1.350 . S
C1739 C1742 1.463 1_556 S
C1739 C1744 1.350 . S
C1739 N1747 1.427 . S
C1740 H1731 0.930 . S
C1740 C1738 1.378 . S
C1740 C1741 1.367 . S
C1741 C1740 1.367 . S
C1741 C1743 1.433 . S
C1742 C1738 1.350 . S
C1742 C1739 1.463 1_554 S
C1742 N1746 1.427 . S
C1743 H1733 0.929 . S
C1743 C1741 1.433 . S
C1743 N1746 1.384 . S
C1744 H1735 0.929 . S
C1744 C1736 1.378 . S
C1744 C1739 1.350 . S
C1745 H1732 0.929 . S
C1745 C1737 1.433 . S
C1745 N1747 1.384 . S
N1746 C1742 1.427 . S
N1746 C1743 1.384 . S
N1747 C1739 1.427 . S
N1747 C1745 1.384 . S
H1748 C1754 0.930 . S
H1749 C1758 0.930 . S
H1750 C1763 0.929 . S
H1751 C1761 0.929 . S
H1752 C1756 0.929 . S
H1753 C1762 0.929 . S
C1754 H1748 0.930 . S
C1754 C1755 1.367 . S
C1754 C1762 1.378 . S
C1755 C1754 1.367 . S
C1755 C1763 1.433 . S
C1756 H1752 0.929 . S
C1756 C1758 1.378 . S
C1756 C1760 1.350 . S
C1757 C1760 1.463 1_556 S
C1757 C1762 1.350 . S
C1757 N1765 1.427 . S
C1758 H1749 0.930 . S
C1758 C1756 1.378 . S
C1758 C1759 1.367 . S
C1759 C1758 1.367 . S
C1759 C1761 1.433 . S
C1760 C1756 1.350 . S
C1760 C1757 1.463 1_554 S
C1760 N1764 1.427 . S
C1761 H1751 0.929 . S
C1761 C1759 1.433 . S
C1761 N1764 1.384 . S
C1762 H1753 0.929 . S
C1762 C1754 1.378 . S
C1762 C1757 1.350 . S
C1763 H1750 0.929 . S
C1763 C1755 1.433 . S
C1763 N1765 1.384 . S
N1764 C1760 1.427 . S
N1764 C1761 1.384 . S
N1765 C1757 1.427 . S
N1765 C1763 1.384 . S
H1766 C1772 0.930 . S
H1767 C1776 0.930 . S
H1768 C1781 0.929 . S
H1769 C1779 0.929 . S
H1770 C1774 0.929 . S
H1771 C1780 0.929 . S
C1772 H1766 0.930 . S
C1772 C1773 1.367 . S
C1772 C1780 1.378 . S
C1773 C1772 1.367 . S
C1773 C1781 1.433 . S
C1774 H1770 0.929 . S
C1774 C1776 1.378 . S
C1774 C1778 1.350 . S
C1775 C1778 1.463 1_554 S
C1775 C1780 1.350 . S
C1775 N1783 1.427 . S
C1776 H1767 0.930 . S
C1776 C1774 1.378 . S
C1776 C1777 1.367 . S
C1777 C1776 1.367 . S
C1777 C1779 1.433 . S
C1778 C1774 1.350 . S
C1778 C1775 1.463 1_556 S
C1778 N1782 1.427 . S
C1779 H1769 0.929 . S
C1779 C1777 1.433 . S
C1779 N1782 1.384 . S
C1780 H1771 0.929 . S
C1780 C1772 1.378 . S
C1780 C1775 1.350 . S
C1781 H1768 0.929 . S
C1781 C1773 1.433 . S
C1781 N1783 1.384 . S
N1782 C1778 1.427 . S
N1782 C1779 1.384 . S
N1783 C1775 1.427 . S
N1783 C1781 1.384 . S
H1784 C1790 0.930 . S
H1785 C1794 0.930 . S
H1786 C1799 0.929 . S
H1787 C1797 0.929 . S
H1788 C1792 0.929 . S
H1789 C1798 0.929 . S
C1790 H1784 0.930 . S
C1790 C1791 1.367 . S
C1790 C1798 1.378 . S
C1791 C1790 1.367 . S
C1791 C1799 1.433 . S
C1792 H1788 0.929 . S
C1792 C1794 1.378 . S
C1792 C1796 1.350 . S
C1793 C1796 1.463 1_556 S
C1793 C1798 1.350 . S
C1793 N1801 1.427 . S
C1794 H1785 0.930 . S
C1794 C1792 1.378 . S
C1794 C1795 1.367 . S
C1795 C1794 1.367 . S
C1795 C1797 1.433 . S
C1796 C1792 1.350 . S
C1796 C1793 1.463 1_554 S
C1796 N1800 1.427 . S
C1797 H1787 0.929 . S
C1797 C1795 1.433 . S
C1797 N1800 1.384 . S
C1798 H1789 0.929 . S
C1798 C1790 1.378 . S
C1798 C1793 1.350 . S
C1799 H1786 0.929 . S
C1799 C1791 1.433 . S
C1799 N1801 1.384 . S
N1800 C1796 1.427 . S
N1800 C1797 1.384 . S
N1801 C1793 1.427 . S
N1801 C1799 1.384 . S
H1802 C1808 0.930 . S
H1803 C1812 0.930 . S
H1804 C1817 0.929 . S
H1805 C1815 0.929 . S
H1806 C1810 0.929 . S
H1807 C1816 0.929 . S
C1808 H1802 0.930 . S
C1808 C1809 1.367 . S
C1808 C1816 1.378 . S
C1809 C1808 1.367 . S
C1809 C1817 1.433 . S
C1810 H1806 0.929 . S
C1810 C1812 1.378 . S
C1810 C1814 1.350 . S
C1811 C1814 1.463 1_554 S
C1811 C1816 1.350 . S
C1811 N1819 1.427 . S
C1812 H1803 0.930 . S
C1812 C1810 1.378 . S
C1812 C1813 1.367 . S
C1813 C1812 1.367 . S
C1813 C1815 1.433 . S
C1814 C1810 1.350 . S
C1814 C1811 1.463 1_556 S
C1814 N1818 1.427 . S
C1815 H1805 0.929 . S
C1815 C1813 1.433 . S
C1815 N1818 1.384 . S
C1816 H1807 0.929 . S
C1816 C1808 1.378 . S
C1816 C1811 1.350 . S
C1817 H1804 0.929 . S
C1817 C1809 1.433 . S
C1817 N1819 1.384 . S
N1818 C1814 1.427 . S
N1818 C1815 1.384 . S
N1819 C1811 1.427 . S
N1819 C1817 1.384 . S
H1820 C1826 0.930 . S
H1821 C1830 0.930 . S
H1822 C1835 0.929 . S
H1823 C1833 0.929 . S
H1824 C1828 0.929 . S
H1825 C1834 0.929 . S
C1826 H1820 0.930 . S
C1826 C1827 1.367 . S
C1826 C1834 1.378 . S
C1827 C1826 1.367 . S
C1827 C1835 1.433 . S
C1828 H1824 0.929 . S
C1828 C1830 1.378 . S
C1828 C1832 1.350 . S
C1829 C1832 1.463 1_554 S
C1829 C1834 1.350 . S
C1829 N1837 1.427 . S
C1830 H1821 0.930 . S
C1830 C1828 1.378 . S
C1830 C1831 1.367 . S
C1831 C1830 1.367 . S
C1831 C1833 1.433 . S
C1832 C1828 1.350 . S
C1832 C1829 1.463 1_556 S
C1832 N1836 1.427 . S
C1833 H1823 0.929 . S
C1833 C1831 1.433 . S
C1833 N1836 1.384 . S
C1834 H1825 0.929 . S
C1834 C1826 1.378 . S
C1834 C1829 1.350 . S
C1835 H1822 0.929 . S
C1835 C1827 1.433 . S
C1835 N1837 1.384 . S
N1836 C1832 1.427 . S
N1836 C1833 1.384 . S
N1837 C1829 1.427 . S
N1837 C1835 1.384 . S
H1838 C1844 0.930 . S
H1839 C1848 0.930 . S
H1840 C1853 0.929 . S
H1841 C1851 0.929 . S
H1842 C1846 0.929 . S
H1843 C1852 0.929 . S
C1844 H1838 0.930 . S
C1844 C1845 1.367 . S
C1844 C1852 1.378 . S
C1845 C1844 1.367 . S
C1845 C1853 1.433 . S
C1846 H1842 0.929 . S
C1846 C1848 1.378 . S
C1846 C1850 1.350 . S
C1847 C1850 1.463 1_556 S
C1847 C1852 1.350 . S
C1847 N1855 1.427 . S
C1848 H1839 0.930 . S
C1848 C1846 1.378 . S
C1848 C1849 1.367 . S
C1849 C1848 1.367 . S
C1849 C1851 1.433 . S
C1850 C1846 1.350 . S
C1850 C1847 1.463 1_554 S
C1850 N1854 1.427 . S
C1851 H1841 0.929 . S
C1851 C1849 1.433 . S
C1851 N1854 1.384 . S
C1852 H1843 0.929 . S
C1852 C1844 1.378 . S
C1852 C1847 1.350 . S
C1853 H1840 0.929 . S
C1853 C1845 1.433 . S
C1853 N1855 1.384 . S
N1854 C1850 1.427 . S
N1854 C1851 1.384 . S
N1855 C1847 1.427 . S
N1855 C1853 1.384 . S
H1856 C1862 0.930 . S
H1857 C1866 0.930 . S
H1858 C1871 0.929 . S
H1859 C1869 0.929 . S
H1860 C1864 0.929 . S
H1861 C1870 0.929 . S
C1862 H1856 0.930 . S
C1862 C1863 1.367 . S
C1862 C1870 1.378 . S
C1863 C1862 1.367 . S
C1863 C1871 1.433 . S
C1864 H1860 0.929 . S
C1864 C1866 1.378 . S
C1864 C1868 1.350 . S
C1865 C1868 1.463 1_455 S
C1865 C1870 1.350 . S
C1865 N1873 1.427 . S
C1866 H1857 0.930 . S
C1866 C1864 1.378 . S
C1866 C1867 1.367 . S
C1867 C1866 1.367 . S
C1867 C1869 1.433 . S
C1868 C1864 1.350 . S
C1868 C1865 1.463 1_655 S
C1868 N1872 1.427 . S
C1869 H1859 0.929 . S
C1869 C1867 1.433 . S
C1869 N1872 1.384 . S
C1870 H1861 0.929 . S
C1870 C1862 1.378 . S
C1870 C1865 1.350 . S
C1871 H1858 0.929 . S
C1871 C1863 1.433 . S
C1871 N1873 1.384 . S
N1872 C1868 1.427 . S
N1872 C1869 1.384 . S
N1873 C1865 1.427 . S
N1873 C1871 1.384 . S
H1874 C1880 0.930 . S
H1875 C1884 0.930 . S
H1876 C1889 0.929 . S
H1877 C1887 0.929 . S
H1878 C1882 0.929 . S
H1879 C1888 0.929 . S
C1880 H1874 0.930 . S
C1880 C1881 1.367 . S
C1880 C1888 1.378 . S
C1881 C1880 1.367 . S
C1881 C1889 1.433 . S
C1882 H1878 0.929 . S
C1882 C1884 1.378 . S
C1882 C1886 1.350 . S
C1883 C1886 1.463 1_455 S
C1883 C1888 1.350 . S
C1883 N1891 1.427 . S
C1884 H1875 0.930 . S
C1884 C1882 1.378 . S
C1884 C1885 1.367 . S
C1885 C1884 1.367 . S
C1885 C1887 1.433 . S
C1886 C1882 1.350 . S
C1886 C1883 1.463 1_655 S
C1886 N1890 1.427 . S
C1887 H1877 0.929 . S
C1887 C1885 1.433 . S
C1887 N1890 1.384 . S
C1888 H1879 0.929 . S
C1888 C1880 1.378 . S
C1888 C1883 1.350 . S
C1889 H1876 0.929 . S
C1889 C1881 1.433 . S
C1889 N1891 1.384 . S
N1890 C1886 1.427 . S
N1890 C1887 1.384 . S
N1891 C1883 1.427 . S
N1891 C1889 1.384 . S
H1892 C1898 0.930 . S
H1893 C1902 0.930 . S
H1894 C1907 0.929 . S
H1895 C1905 0.929 . S
H1896 C1900 0.929 . S
H1897 C1906 0.929 . S
C1898 H1892 0.930 . S
C1898 C1899 1.367 . S
C1898 C1906 1.378 . S
C1899 C1898 1.367 . S
C1899 C1907 1.433 . S
C1900 H1896 0.929 . S
C1900 C1902 1.378 . S
C1900 C1904 1.350 . S
C1901 C1904 1.463 1_565 S
C1901 C1906 1.350 . S
C1901 N1909 1.427 . S
C1902 H1893 0.930 . S
C1902 C1900 1.378 . S
C1902 C1903 1.367 . S
C1903 C1902 1.367 . S
C1903 C1905 1.433 . S
C1904 C1900 1.350 . S
C1904 C1901 1.463 1_545 S
C1904 N1908 1.427 . S
C1905 H1895 0.929 . S
C1905 C1903 1.433 . S
C1905 N1908 1.384 . S
C1906 H1897 0.929 . S
C1906 C1898 1.378 . S
C1906 C1901 1.350 . S
C1907 H1894 0.929 . S
C1907 C1899 1.433 . S
C1907 N1909 1.384 . S
N1908 C1904 1.427 . S
N1908 C1905 1.384 . S
N1909 C1901 1.427 . S
N1909 C1907 1.384 . S
H1910 C1916 0.930 . S
H1911 C1920 0.930 . S
H1912 C1925 0.929 . S
H1913 C1923 0.929 . S
H1914 C1918 0.929 . S
H1915 C1924 0.929 . S
C1916 H1910 0.930 . S
C1916 C1917 1.367 . S
C1916 C1924 1.378 . S
C1917 C1916 1.367 . S
C1917 C1925 1.433 . S
C1918 H1914 0.929 . S
C1918 C1920 1.378 . S
C1918 C1922 1.350 . S
C1919 C1922 1.463 1_455 S
C1919 C1924 1.350 . S
C1919 N1927 1.427 . S
C1920 H1911 0.930 . S
C1920 C1918 1.378 . S
C1920 C1921 1.367 . S
C1921 C1920 1.367 . S
C1921 C1923 1.433 . S
C1922 C1918 1.350 . S
C1922 C1919 1.463 1_655 S
C1922 N1926 1.427 . S
C1923 H1913 0.929 . S
C1923 C1921 1.433 . S
C1923 N1926 1.384 . S
C1924 H1915 0.929 . S
C1924 C1916 1.378 . S
C1924 C1919 1.350 . S
C1925 H1912 0.929 . S
C1925 C1917 1.433 . S
C1925 N1927 1.384 . S
N1926 C1922 1.427 . S
N1926 C1923 1.384 . S
N1927 C1919 1.427 . S
N1927 C1925 1.384 . S
H1928 C1934 0.930 . S
H1929 C1938 0.930 . S
H1930 C1943 0.929 . S
H1931 C1941 0.929 . S
H1932 C1936 0.929 . S
H1933 C1942 0.929 . S
C1934 H1928 0.930 . S
C1934 C1935 1.367 . S
C1934 C1942 1.378 . S
C1935 C1934 1.367 . S
C1935 C1943 1.433 . S
C1936 H1932 0.929 . S
C1936 C1938 1.378 . S
C1936 C1940 1.350 . S
C1937 C1940 1.463 1_565 S
C1937 C1942 1.350 . S
C1937 N1945 1.427 . S
C1938 H1929 0.930 . S
C1938 C1936 1.378 . S
C1938 C1939 1.367 . S
C1939 C1938 1.367 . S
C1939 C1941 1.433 . S
C1940 C1936 1.350 . S
C1940 C1937 1.463 1_545 S
C1940 N1944 1.427 . S
C1941 H1931 0.929 . S
C1941 C1939 1.433 . S
C1941 N1944 1.384 . S
C1942 H1933 0.929 . S
C1942 C1934 1.378 . S
C1942 C1937 1.350 . S
C1943 H1930 0.929 . S
C1943 C1935 1.433 . S
C1943 N1945 1.384 . S
N1944 C1940 1.427 . S
N1944 C1941 1.384 . S
N1945 C1937 1.427 . S
N1945 C1943 1.384 . S
H1946 C1952 0.930 . S
H1947 C1956 0.930 . S
H1948 C1961 0.929 . S
H1949 C1959 0.929 . S
H1950 C1954 0.929 . S
H1951 C1960 0.929 . S
C1952 H1946 0.930 . S
C1952 C1953 1.367 . S
C1952 C1960 1.378 . S
C1953 C1952 1.367 . S
C1953 C1961 1.433 . S
C1954 H1950 0.929 . S
C1954 C1956 1.378 . S
C1954 C1958 1.350 . S
C1955 C1958 1.463 1_655 S
C1955 C1960 1.350 . S
C1955 N1963 1.427 . S
C1956 H1947 0.930 . S
C1956 C1954 1.378 . S
C1956 C1957 1.367 . S
C1957 C1956 1.367 . S
C1957 C1959 1.433 . S
C1958 C1954 1.350 . S
C1958 C1955 1.463 1_455 S
C1958 N1962 1.427 . S
C1959 H1949 0.929 . S
C1959 C1957 1.433 . S
C1959 N1962 1.384 . S
C1960 H1951 0.929 . S
C1960 C1952 1.378 . S
C1960 C1955 1.350 . S
C1961 H1948 0.929 . S
C1961 C1953 1.433 . S
C1961 N1963 1.384 . S
N1962 C1958 1.427 . S
N1962 C1959 1.384 . S
N1963 C1955 1.427 . S
N1963 C1961 1.384 . S
H1964 C1970 0.930 . S
H1965 C1974 0.930 . S
H1966 C1979 0.929 . S
H1967 C1977 0.929 . S
H1968 C1972 0.929 . S
H1969 C1978 0.929 . S
C1970 H1964 0.930 . S
C1970 C1971 1.367 . S
C1970 C1978 1.378 . S
C1971 C1970 1.367 . S
C1971 C1979 1.433 . S
C1972 H1968 0.929 . S
C1972 C1974 1.378 . S
C1972 C1976 1.350 . S
C1973 C1976 1.463 1_565 S
C1973 C1978 1.350 . S
C1973 N1981 1.427 . S
C1974 H1965 0.930 . S
C1974 C1972 1.378 . S
C1974 C1975 1.367 . S
C1975 C1974 1.367 . S
C1975 C1977 1.433 . S
C1976 C1972 1.350 . S
C1976 C1973 1.463 1_545 S
C1976 N1980 1.427 . S
C1977 H1967 0.929 . S
C1977 C1975 1.433 . S
C1977 N1980 1.384 . S
C1978 H1969 0.929 . S
C1978 C1970 1.378 . S
C1978 C1973 1.350 . S
C1979 H1966 0.929 . S
C1979 C1971 1.433 . S
C1979 N1981 1.384 . S
N1980 C1976 1.427 . S
N1980 C1977 1.384 . S
N1981 C1973 1.427 . S
N1981 C1979 1.384 . S
H1982 C1988 0.930 . S
H1983 C1992 0.930 . S
H1984 C1997 0.929 . S
H1985 C1995 0.929 . S
H1986 C1990 0.929 . S
H1987 C1996 0.929 . S
C1988 H1982 0.930 . S
C1988 C1989 1.367 . S
C1988 C1996 1.378 . S
C1989 C1988 1.367 . S
C1989 C1997 1.433 . S
C1990 H1986 0.929 . S
C1990 C1992 1.378 . S
C1990 C1994 1.350 . S
C1991 C1994 1.463 1_565 S
C1991 C1996 1.350 . S
C1991 N1999 1.427 . S
C1992 H1983 0.930 . S
C1992 C1990 1.378 . S
C1992 C1993 1.367 . S
C1993 C1992 1.367 . S
C1993 C1995 1.433 . S
C1994 C1990 1.350 . S
C1994 C1991 1.463 1_545 S
C1994 N1998 1.427 . S
C1995 H1985 0.929 . S
C1995 C1993 1.433 . S
C1995 N1998 1.384 . S
C1996 H1987 0.929 . S
C1996 C1988 1.378 . S
C1996 C1991 1.350 . S
C1997 H1984 0.929 . S
C1997 C1989 1.433 . S
C1997 N1999 1.384 . S
N1998 C1994 1.427 . S
N1998 C1995 1.384 . S
N1999 C1991 1.427 . S
N1999 C1997 1.384 . S
H2000 C2006 0.930 . S
H2001 C2010 0.930 . S
H2002 C2015 0.929 . S
H2003 C2013 0.929 . S
H2004 C2008 0.929 . S
H2005 C2014 0.929 . S
C2006 H2000 0.930 . S
C2006 C2007 1.367 . S
C2006 C2014 1.378 . S
C2007 C2006 1.367 . S
C2007 C2015 1.433 . S
C2008 H2004 0.929 . S
C2008 C2010 1.378 . S
C2008 C2012 1.350 . S
C2009 C2012 1.463 . S
C2009 C2014 1.350 . S
C2009 N2017 1.427 . S
C2010 H2001 0.930 . S
C2010 C2008 1.378 . S
C2010 C2011 1.367 . S
C2011 C2010 1.367 . S
C2011 C2013 1.433 . S
C2012 C2008 1.350 . S
C2012 C2009 1.463 . S
C2012 N2016 1.427 . S
C2013 H2003 0.929 . S
C2013 C2011 1.433 . S
C2013 N2016 1.384 . S
C2014 H2005 0.929 . S
C2014 C2006 1.378 . S
C2014 C2009 1.350 . S
C2015 H2002 0.929 . S
C2015 C2007 1.433 . S
C2015 N2017 1.384 . S
N2016 C2012 1.427 . S
N2016 C2013 1.384 . S
N2017 C2009 1.427 . S
N2017 C2015 1.384 . S
H2018 C2024 0.930 . S
H2019 C2028 0.930 . S
H2020 C2033 0.929 . S
H2021 C2031 0.929 . S
H2022 C2026 0.929 . S
H2023 C2032 0.929 . S
C2024 H2018 0.930 . S
C2024 C2025 1.367 . S
C2024 C2032 1.378 . S
C2025 C2024 1.367 . S
C2025 C2033 1.433 . S
C2026 H2022 0.929 . S
C2026 C2028 1.378 . S
C2026 C2030 1.350 . S
C2027 C2030 1.463 . S
C2027 C2032 1.350 . S
C2027 N2035 1.427 . S
C2028 H2019 0.930 . S
C2028 C2026 1.378 . S
C2028 C2029 1.367 . S
C2029 C2028 1.367 . S
C2029 C2031 1.433 . S
C2030 C2026 1.350 . S
C2030 C2027 1.463 . S
C2030 N2034 1.427 . S
C2031 H2021 0.929 . S
C2031 C2029 1.433 . S
C2031 N2034 1.384 . S
C2032 H2023 0.929 . S
C2032 C2024 1.378 . S
C2032 C2027 1.350 . S
C2033 H2020 0.929 . S
C2033 C2025 1.433 . S
C2033 N2035 1.384 . S
N2034 C2030 1.427 . S
N2034 C2031 1.384 . S
N2035 C2027 1.427 . S
N2035 C2033 1.384 . S
H2036 C2042 0.930 . S
H2037 C2046 0.930 . S
H2038 C2051 0.929 . S
H2039 C2049 0.929 . S
H2040 C2044 0.929 . S
H2041 C2050 0.929 . S
C2042 H2036 0.930 . S
C2042 C2043 1.367 . S
C2042 C2050 1.378 . S
C2043 C2042 1.367 . S
C2043 C2051 1.433 . S
C2044 H2040 0.929 . S
C2044 C2046 1.378 . S
C2044 C2048 1.350 . S
C2045 C2048 1.463 . S
C2045 C2050 1.350 . S
C2045 N2053 1.427 . S
C2046 H2037 0.930 . S
C2046 C2044 1.378 . S
C2046 C2047 1.367 . S
C2047 C2046 1.367 . S
C2047 C2049 1.433 . S
C2048 C2044 1.350 . S
C2048 C2045 1.463 . S
C2048 N2052 1.427 . S
C2049 H2039 0.929 . S
C2049 C2047 1.433 . S
C2049 N2052 1.384 . S
C2050 H2041 0.929 . S
C2050 C2042 1.378 . S
C2050 C2045 1.350 . S
C2051 H2038 0.929 . S
C2051 C2043 1.433 . S
C2051 N2053 1.384 . S
N2052 C2048 1.427 . S
N2052 C2049 1.384 . S
N2053 C2045 1.427 . S
N2053 C2051 1.384 . S
H2054 C2060 0.930 . S
H2055 C2064 0.930 . S
H2056 C2069 0.929 . S
H2057 C2067 0.929 . S
H2058 C2062 0.929 . S
H2059 C2068 0.929 . S
C2060 H2054 0.930 . S
C2060 C2061 1.367 . S
C2060 C2068 1.378 . S
C2061 C2060 1.367 . S
C2061 C2069 1.433 . S
C2062 H2058 0.929 . S
C2062 C2064 1.378 . S
C2062 C2066 1.350 . S
C2063 C2066 1.463 . S
C2063 C2068 1.350 . S
C2063 N2071 1.427 . S
C2064 H2055 0.930 . S
C2064 C2062 1.378 . S
C2064 C2065 1.367 . S
C2065 C2064 1.367 . S
C2065 C2067 1.433 . S
C2066 C2062 1.350 . S
C2066 C2063 1.463 . S
C2066 N2070 1.427 . S
C2067 H2057 0.929 . S
C2067 C2065 1.433 . S
C2067 N2070 1.384 . S
C2068 H2059 0.929 . S
C2068 C2060 1.378 . S
C2068 C2063 1.350 . S
C2069 H2056 0.929 . S
C2069 C2061 1.433 . S
C2069 N2071 1.384 . S
N2070 C2066 1.427 . S
N2070 C2067 1.384 . S
N2071 C2063 1.427 . S
N2071 C2069 1.384 . S
H2072 C2078 0.930 . S
H2073 C2082 0.930 . S
H2074 C2087 0.929 . S
H2075 C2085 0.929 . S
H2076 C2080 0.929 . S
H2077 C2086 0.929 . S
C2078 H2072 0.930 . S
C2078 C2079 1.367 . S
C2078 C2086 1.378 . S
C2079 C2078 1.367 . S
C2079 C2087 1.433 . S
C2080 H2076 0.929 . S
C2080 C2082 1.378 . S
C2080 C2084 1.350 . S
C2081 C2084 1.463 . S
C2081 C2086 1.350 . S
C2081 N2089 1.427 . S
C2082 H2073 0.930 . S
C2082 C2080 1.378 . S
C2082 C2083 1.367 . S
C2083 C2082 1.367 . S
C2083 C2085 1.433 . S
C2084 C2080 1.350 . S
C2084 C2081 1.463 . S
C2084 N2088 1.427 . S
C2085 H2075 0.929 . S
C2085 C2083 1.433 . S
C2085 N2088 1.384 . S
C2086 H2077 0.929 . S
C2086 C2078 1.378 . S
C2086 C2081 1.350 . S
C2087 H2074 0.929 . S
C2087 C2079 1.433 . S
C2087 N2089 1.384 . S
N2088 C2084 1.427 . S
N2088 C2085 1.384 . S
N2089 C2081 1.427 . S
N2089 C2087 1.384 . S
H2090 C2096 0.930 . S
H2091 C2100 0.930 . S
H2092 C2105 0.929 . S
H2093 C2103 0.929 . S
H2094 C2098 0.929 . S
H2095 C2104 0.929 . S
C2096 H2090 0.930 . S
C2096 C2097 1.367 . S
C2096 C2104 1.378 . S
C2097 C2096 1.367 . S
C2097 C2105 1.433 . S
C2098 H2094 0.929 . S
C2098 C2100 1.378 . S
C2098 C2102 1.350 . S
C2099 C2102 1.463 . S
C2099 C2104 1.350 . S
C2099 N2107 1.427 . S
C2100 H2091 0.930 . S
C2100 C2098 1.378 . S
C2100 C2101 1.367 . S
C2101 C2100 1.367 . S
C2101 C2103 1.433 . S
C2102 C2098 1.350 . S
C2102 C2099 1.463 . S
C2102 N2106 1.427 . S
C2103 H2093 0.929 . S
C2103 C2101 1.433 . S
C2103 N2106 1.384 . S
C2104 H2095 0.929 . S
C2104 C2096 1.378 . S
C2104 C2099 1.350 . S
C2105 H2092 0.929 . S
C2105 C2097 1.433 . S
C2105 N2107 1.384 . S
N2106 C2102 1.427 . S
N2106 C2103 1.384 . S
N2107 C2099 1.427 . S
N2107 C2105 1.384 . S
H2108 C2114 0.930 . S
H2109 C2118 0.930 . S
H2110 C2123 0.929 . S
H2111 C2121 0.929 . S
H2112 C2116 0.929 . S
H2113 C2122 0.929 . S
C2114 H2108 0.930 . S
C2114 C2115 1.367 . S
C2114 C2122 1.378 . S
C2115 C2114 1.367 . S
C2115 C2123 1.433 . S
C2116 H2112 0.929 . S
C2116 C2118 1.378 . S
C2116 C2120 1.350 . S
C2117 C2120 1.463 . S
C2117 C2122 1.350 . S
C2117 N2125 1.427 . S
C2118 H2109 0.930 . S
C2118 C2116 1.378 . S
C2118 C2119 1.367 . S
C2119 C2118 1.367 . S
C2119 C2121 1.433 . S
C2120 C2116 1.350 . S
C2120 C2117 1.463 . S
C2120 N2124 1.427 . S
C2121 H2111 0.929 . S
C2121 C2119 1.433 . S
C2121 N2124 1.384 . S
C2122 H2113 0.929 . S
C2122 C2114 1.378 . S
C2122 C2117 1.350 . S
C2123 H2110 0.929 . S
C2123 C2115 1.433 . S
C2123 N2125 1.384 . S
N2124 C2120 1.427 . S
N2124 C2121 1.384 . S
N2125 C2117 1.427 . S
N2125 C2123 1.384 . S
H2126 C2132 0.930 . S
H2127 C2136 0.930 . S
H2128 C2141 0.929 . S
H2129 C2139 0.929 . S
H2130 C2134 0.929 . S
H2131 C2140 0.929 . S
C2132 H2126 0.930 . S
C2132 C2133 1.367 . S
C2132 C2140 1.378 . S
C2133 C2132 1.367 . S
C2133 C2141 1.433 . S
C2134 H2130 0.929 . S
C2134 C2136 1.378 . S
C2134 C2138 1.350 . S
C2135 C2138 1.463 . S
C2135 C2140 1.350 . S
C2135 N2143 1.427 . S
C2136 H2127 0.930 . S
C2136 C2134 1.378 . S
C2136 C2137 1.367 . S
C2137 C2136 1.367 . S
C2137 C2139 1.433 . S
C2138 C2134 1.350 . S
C2138 C2135 1.463 . S
C2138 N2142 1.427 . S
C2139 H2129 0.929 . S
C2139 C2137 1.433 . S
C2139 N2142 1.384 . S
C2140 H2131 0.929 . S
C2140 C2132 1.378 . S
C2140 C2135 1.350 . S
C2141 H2128 0.929 . S
C2141 C2133 1.433 . S
C2141 N2143 1.384 . S
N2142 C2138 1.427 . S
N2142 C2139 1.384 . S
N2143 C2135 1.427 . S
N2143 C2141 1.384 . S
H2144 C2150 0.930 . S
H2145 C2154 0.930 . S
H2146 C2159 0.929 . S
H2147 C2157 0.929 . S
H2148 C2152 0.929 . S
H2149 C2158 0.929 . S
C2150 H2144 0.930 . S
C2150 C2151 1.367 . S
C2150 C2158 1.378 . S
C2151 C2150 1.367 . S
C2151 C2159 1.433 . S
C2152 H2148 0.929 . S
C2152 C2154 1.378 . S
C2152 C2156 1.350 . S
C2153 C2156 1.463 . S
C2153 C2158 1.350 . S
C2153 N2161 1.427 . S
C2154 H2145 0.930 . S
C2154 C2152 1.378 . S
C2154 C2155 1.367 . S
C2155 C2154 1.367 . S
C2155 C2157 1.433 . S
C2156 C2152 1.350 . S
C2156 C2153 1.463 . S
C2156 N2160 1.427 . S
C2157 H2147 0.929 . S
C2157 C2155 1.433 . S
C2157 N2160 1.384 . S
C2158 H2149 0.929 . S
C2158 C2150 1.378 . S
C2158 C2153 1.350 . S
C2159 H2146 0.929 . S
C2159 C2151 1.433 . S
C2159 N2161 1.384 . S
N2160 C2156 1.427 . S
N2160 C2157 1.384 . S
N2161 C2153 1.427 . S
N2161 C2159 1.384 . S
H2162 C2168 0.930 . S
H2163 C2172 0.930 . S
H2164 C2177 0.929 . S
H2165 C2175 0.929 . S
H2166 C2170 0.929 . S
H2167 C2176 0.929 . S
C2168 H2162 0.930 . S
C2168 C2169 1.367 . S
C2168 C2176 1.378 . S
C2169 C2168 1.367 . S
C2169 C2177 1.433 . S
C2170 H2166 0.929 . S
C2170 C2172 1.378 . S
C2170 C2174 1.350 . S
C2171 C2174 1.463 . S
C2171 C2176 1.350 . S
C2171 N2179 1.427 . S
C2172 H2163 0.930 . S
C2172 C2170 1.378 . S
C2172 C2173 1.367 . S
C2173 C2172 1.367 . S
C2173 C2175 1.433 . S
C2174 C2170 1.350 . S
C2174 C2171 1.463 . S
C2174 N2178 1.427 . S
C2175 H2165 0.929 . S
C2175 C2173 1.433 . S
C2175 N2178 1.384 . S
C2176 H2167 0.929 . S
C2176 C2168 1.378 . S
C2176 C2171 1.350 . S
C2177 H2164 0.929 . S
C2177 C2169 1.433 . S
C2177 N2179 1.384 . S
N2178 C2174 1.427 . S
N2178 C2175 1.384 . S
N2179 C2171 1.427 . S
N2179 C2177 1.384 . S
H2180 C2186 0.930 . S
H2181 C2190 0.930 . S
H2182 C2195 0.929 . S
H2183 C2193 0.929 . S
H2184 C2188 0.929 . S
H2185 C2194 0.929 . S
C2186 H2180 0.930 . S
C2186 C2187 1.367 . S
C2186 C2194 1.378 . S
C2187 C2186 1.367 . S
C2187 C2195 1.433 . S
C2188 H2184 0.929 . S
C2188 C2190 1.378 . S
C2188 C2192 1.350 . S
C2189 C2192 1.463 . S
C2189 C2194 1.350 . S
C2189 N2197 1.427 . S
C2190 H2181 0.930 . S
C2190 C2188 1.378 . S
C2190 C2191 1.367 . S
C2191 C2190 1.367 . S
C2191 C2193 1.433 . S
C2192 C2188 1.350 . S
C2192 C2189 1.463 . S
C2192 N2196 1.427 . S
C2193 H2183 0.929 . S
C2193 C2191 1.433 . S
C2193 N2196 1.384 . S
C2194 H2185 0.929 . S
C2194 C2186 1.378 . S
C2194 C2189 1.350 . S
C2195 H2182 0.929 . S
C2195 C2187 1.433 . S
C2195 N2197 1.384 . S
N2196 C2192 1.427 . S
N2196 C2193 1.384 . S
N2197 C2189 1.427 . S
N2197 C2195 1.384 . S
H2198 C2204 0.930 . S
H2199 C2208 0.930 . S
H2200 C2213 0.929 . S
H2201 C2211 0.929 . S
H2202 C2206 0.929 . S
H2203 C2212 0.929 . S
C2204 H2198 0.930 . S
C2204 C2205 1.367 . S
C2204 C2212 1.378 . S
C2205 C2204 1.367 . S
C2205 C2213 1.433 . S
C2206 H2202 0.929 . S
C2206 C2208 1.378 . S
C2206 C2210 1.350 . S
C2207 C2210 1.463 . S
C2207 C2212 1.350 . S
C2207 N2215 1.427 . S
C2208 H2199 0.930 . S
C2208 C2206 1.378 . S
C2208 C2209 1.367 . S
C2209 C2208 1.367 . S
C2209 C2211 1.433 . S
C2210 C2206 1.350 . S
C2210 C2207 1.463 . S
C2210 N2214 1.427 . S
C2211 H2201 0.929 . S
C2211 C2209 1.433 . S
C2211 N2214 1.384 . S
C2212 H2203 0.929 . S
C2212 C2204 1.378 . S
C2212 C2207 1.350 . S
C2213 H2200 0.929 . S
C2213 C2205 1.433 . S
C2213 N2215 1.384 . S
N2214 C2210 1.427 . S
N2214 C2211 1.384 . S
N2215 C2207 1.427 . S
N2215 C2213 1.384 . S
H2216 C2222 0.930 . S
H2217 C2226 0.930 . S
H2218 C2231 0.929 . S
H2219 C2229 0.929 . S
H2220 C2224 0.929 . S
H2221 C2230 0.929 . S
C2222 H2216 0.930 . S
C2222 C2223 1.367 . S
C2222 C2230 1.378 . S
C2223 C2222 1.367 . S
C2223 C2231 1.433 . S
C2224 H2220 0.929 . S
C2224 C2226 1.378 . S
C2224 C2228 1.350 . S
C2225 C2228 1.463 . S
C2225 C2230 1.350 . S
C2225 N2233 1.427 . S
C2226 H2217 0.930 . S
C2226 C2224 1.378 . S
C2226 C2227 1.367 . S
C2227 C2226 1.367 . S
C2227 C2229 1.433 . S
C2228 C2224 1.350 . S
C2228 C2225 1.463 . S
C2228 N2232 1.427 . S
C2229 H2219 0.929 . S
C2229 C2227 1.433 . S
C2229 N2232 1.384 . S
C2230 H2221 0.929 . S
C2230 C2222 1.378 . S
C2230 C2225 1.350 . S
C2231 H2218 0.929 . S
C2231 C2223 1.433 . S
C2231 N2233 1.384 . S
N2232 C2228 1.427 . S
N2232 C2229 1.384 . S
N2233 C2225 1.427 . S
N2233 C2231 1.384 . S
H2234 C2240 0.930 . S
H2235 C2244 0.930 . S
H2236 C2249 0.929 . S
H2237 C2247 0.929 . S
H2238 C2242 0.929 . S
H2239 C2248 0.929 . S
C2240 H2234 0.930 . S
C2240 C2241 1.367 . S
C2240 C2248 1.378 . S
C2241 C2240 1.367 . S
C2241 C2249 1.433 . S
C2242 H2238 0.929 . S
C2242 C2244 1.378 . S
C2242 C2246 1.350 . S
C2243 C2246 1.463 . S
C2243 C2248 1.350 . S
C2243 N2251 1.427 . S
C2244 H2235 0.930 . S
C2244 C2242 1.378 . S
C2244 C2245 1.367 . S
C2245 C2244 1.367 . S
C2245 C2247 1.433 . S
C2246 C2242 1.350 . S
C2246 C2243 1.463 . S
C2246 N2250 1.427 . S
C2247 H2237 0.929 . S
C2247 C2245 1.433 . S
C2247 N2250 1.384 . S
C2248 H2239 0.929 . S
C2248 C2240 1.378 . S
C2248 C2243 1.350 . S
C2249 H2236 0.929 . S
C2249 C2241 1.433 . S
C2249 N2251 1.384 . S
N2250 C2246 1.427 . S
N2250 C2247 1.384 . S
N2251 C2243 1.427 . S
N2251 C2249 1.384 . S
H2252 C2258 0.930 . S
H2253 C2262 0.930 . S
H2254 C2267 0.929 . S
H2255 C2265 0.929 . S
H2256 C2260 0.929 . S
H2257 C2266 0.929 . S
C2258 H2252 0.930 . S
C2258 C2259 1.367 . S
C2258 C2266 1.378 . S
C2259 C2258 1.367 . S
C2259 C2267 1.433 . S
C2260 H2256 0.929 . S
C2260 C2262 1.378 . S
C2260 C2264 1.350 . S
C2261 C2264 1.463 . S
C2261 C2266 1.350 . S
C2261 N2269 1.427 . S
C2262 H2253 0.930 . S
C2262 C2260 1.378 . S
C2262 C2263 1.367 . S
C2263 C2262 1.367 . S
C2263 C2265 1.433 . S
C2264 C2260 1.350 . S
C2264 C2261 1.463 . S
C2264 N2268 1.427 . S
C2265 H2255 0.929 . S
C2265 C2263 1.433 . S
C2265 N2268 1.384 . S
C2266 H2257 0.929 . S
C2266 C2258 1.378 . S
C2266 C2261 1.350 . S
C2267 H2254 0.929 . S
C2267 C2259 1.433 . S
C2267 N2269 1.384 . S
N2268 C2264 1.427 . S
N2268 C2265 1.384 . S
N2269 C2261 1.427 . S
N2269 C2267 1.384 . S
H2270 C2276 0.930 . S
H2271 C2280 0.930 . S
H2272 C2285 0.929 . S
H2273 C2283 0.929 . S
H2274 C2278 0.929 . S
H2275 C2284 0.929 . S
C2276 H2270 0.930 . S
C2276 C2277 1.367 . S
C2276 C2284 1.378 . S
C2277 C2276 1.367 . S
C2277 C2285 1.433 . S
C2278 H2274 0.929 . S
C2278 C2280 1.378 . S
C2278 C2282 1.350 . S
C2279 C2282 1.463 . S
C2279 C2284 1.350 . S
C2279 N2287 1.427 . S
C2280 H2271 0.930 . S
C2280 C2278 1.378 . S
C2280 C2281 1.367 . S
C2281 C2280 1.367 . S
C2281 C2283 1.433 . S
C2282 C2278 1.350 . S
C2282 C2279 1.463 . S
C2282 N2286 1.427 . S
C2283 H2273 0.929 . S
C2283 C2281 1.433 . S
C2283 N2286 1.384 . S
C2284 H2275 0.929 . S
C2284 C2276 1.378 . S
C2284 C2279 1.350 . S
C2285 H2272 0.929 . S
C2285 C2277 1.433 . S
C2285 N2287 1.384 . S
N2286 C2282 1.427 . S
N2286 C2283 1.384 . S
N2287 C2279 1.427 . S
N2287 C2285 1.384 . S
H2288 C2294 0.930 . S
H2289 C2298 0.930 . S
H2290 C2303 0.929 . S
H2291 C2301 0.929 . S
H2292 C2296 0.929 . S
H2293 C2302 0.929 . S
C2294 H2288 0.930 . S
C2294 C2295 1.367 . S
C2294 C2302 1.378 . S
C2295 C2294 1.367 . S
C2295 C2303 1.433 . S
C2296 H2292 0.929 . S
C2296 C2298 1.378 . S
C2296 C2300 1.350 . S
C2297 C2300 1.463 . S
C2297 C2302 1.350 . S
C2297 N2305 1.427 . S
C2298 H2289 0.930 . S
C2298 C2296 1.378 . S
C2298 C2299 1.367 . S
C2299 C2298 1.367 . S
C2299 C2301 1.433 . S
C2300 C2296 1.350 . S
C2300 C2297 1.463 . S
C2300 N2304 1.427 . S
C2301 H2291 0.929 . S
C2301 C2299 1.433 . S
C2301 N2304 1.384 . S
C2302 H2293 0.929 . S
C2302 C2294 1.378 . S
C2302 C2297 1.350 . S
C2303 H2290 0.929 . S
C2303 C2295 1.433 . S
C2303 N2305 1.384 . S
N2304 C2300 1.427 . S
N2304 C2301 1.384 . S
N2305 C2297 1.427 . S
N2305 C2303 1.384 . S
H2306 C2312 0.930 . S
H2307 C2316 0.930 . S
H2308 C2321 0.929 . S
H2309 C2319 0.929 . S
H2310 C2314 0.929 . S
H2311 C2320 0.929 . S
C2312 H2306 0.930 . S
C2312 C2313 1.367 . S
C2312 C2320 1.378 . S
C2313 C2312 1.367 . S
C2313 C2321 1.433 . S
C2314 H2310 0.929 . S
C2314 C2316 1.378 . S
C2314 C2318 1.350 . S
C2315 C2318 1.463 . S
C2315 C2320 1.350 . S
C2315 N2323 1.427 . S
C2316 H2307 0.930 . S
C2316 C2314 1.378 . S
C2316 C2317 1.367 . S
C2317 C2316 1.367 . S
C2317 C2319 1.433 . S
C2318 C2314 1.350 . S
C2318 C2315 1.463 . S
C2318 N2322 1.427 . S
C2319 H2309 0.929 . S
C2319 C2317 1.433 . S
C2319 N2322 1.384 . S
C2320 H2311 0.929 . S
C2320 C2312 1.378 . S
C2320 C2315 1.350 . S
C2321 H2308 0.929 . S
C2321 C2313 1.433 . S
C2321 N2323 1.384 . S
N2322 C2318 1.427 . S
N2322 C2319 1.384 . S
N2323 C2315 1.427 . S
N2323 C2321 1.384 . S
H2324 C2330 0.930 . S
H2325 C2334 0.930 . S
H2326 C2339 0.929 . S
H2327 C2337 0.929 . S
H2328 C2332 0.929 . S
H2329 C2338 0.929 . S
C2330 H2324 0.930 . S
C2330 C2331 1.367 . S
C2330 C2338 1.378 . S
C2331 C2330 1.367 . S
C2331 C2339 1.433 . S
C2332 H2328 0.929 . S
C2332 C2334 1.378 . S
C2332 C2336 1.350 . S
C2333 C2336 1.463 . S
C2333 C2338 1.350 . S
C2333 N2341 1.427 . S
C2334 H2325 0.930 . S
C2334 C2332 1.378 . S
C2334 C2335 1.367 . S
C2335 C2334 1.367 . S
C2335 C2337 1.433 . S
C2336 C2332 1.350 . S
C2336 C2333 1.463 . S
C2336 N2340 1.427 . S
C2337 H2327 0.929 . S
C2337 C2335 1.433 . S
C2337 N2340 1.384 . S
C2338 H2329 0.929 . S
C2338 C2330 1.378 . S
C2338 C2333 1.350 . S
C2339 H2326 0.929 . S
C2339 C2331 1.433 . S
C2339 N2341 1.384 . S
N2340 C2336 1.427 . S
N2340 C2337 1.384 . S
N2341 C2333 1.427 . S
N2341 C2339 1.384 . S
H2342 C2348 0.930 . S
H2343 C2352 0.930 . S
H2344 C2357 0.929 . S
H2345 C2355 0.929 . S
H2346 C2350 0.929 . S
H2347 C2356 0.929 . S
C2348 H2342 0.930 . S
C2348 C2349 1.367 . S
C2348 C2356 1.378 . S
C2349 C2348 1.367 . S
C2349 C2357 1.433 . S
C2350 H2346 0.929 . S
C2350 C2352 1.378 . S
C2350 C2354 1.350 . S
C2351 C2354 1.463 . S
C2351 C2356 1.350 . S
C2351 N2359 1.427 . S
C2352 H2343 0.930 . S
C2352 C2350 1.378 . S
C2352 C2353 1.367 . S
C2353 C2352 1.367 . S
C2353 C2355 1.433 . S
C2354 C2350 1.350 . S
C2354 C2351 1.463 . S
C2354 N2358 1.427 . S
C2355 H2345 0.929 . S
C2355 C2353 1.433 . S
C2355 N2358 1.384 . S
C2356 H2347 0.929 . S
C2356 C2348 1.378 . S
C2356 C2351 1.350 . S
C2357 H2344 0.929 . S
C2357 C2349 1.433 . S
C2357 N2359 1.384 . S
N2358 C2354 1.427 . S
N2358 C2355 1.384 . S
N2359 C2351 1.427 . S
N2359 C2357 1.384 . S
H2360 C2366 0.930 . S
H2361 C2370 0.930 . S
H2362 C2375 0.929 . S
H2363 C2373 0.929 . S
H2364 C2368 0.929 . S
H2365 C2374 0.929 . S
C2366 H2360 0.930 . S
C2366 C2367 1.367 . S
C2366 C2374 1.378 . S
C2367 C2366 1.367 . S
C2367 C2375 1.433 . S
C2368 H2364 0.929 . S
C2368 C2370 1.378 . S
C2368 C2372 1.350 . S
C2369 C2372 1.463 . S
C2369 C2374 1.350 . S
C2369 N2377 1.427 . S
C2370 H2361 0.930 . S
C2370 C2368 1.378 . S
C2370 C2371 1.367 . S
C2371 C2370 1.367 . S
C2371 C2373 1.433 . S
C2372 C2368 1.350 . S
C2372 C2369 1.463 . S
C2372 N2376 1.427 . S
C2373 H2363 0.929 . S
C2373 C2371 1.433 . S
C2373 N2376 1.384 . S
C2374 H2365 0.929 . S
C2374 C2366 1.378 . S
C2374 C2369 1.350 . S
C2375 H2362 0.929 . S
C2375 C2367 1.433 . S
C2375 N2377 1.384 . S
N2376 C2372 1.427 . S
N2376 C2373 1.384 . S
N2377 C2369 1.427 . S
N2377 C2375 1.384 . S
H2378 C2384 0.930 . S
H2379 C2388 0.930 . S
H2380 C2393 0.929 . S
H2381 C2391 0.929 . S
H2382 C2386 0.929 . S
H2383 C2392 0.929 . S
C2384 H2378 0.930 . S
C2384 C2385 1.367 . S
C2384 C2392 1.378 . S
C2385 C2384 1.367 . S
C2385 C2393 1.433 . S
C2386 H2382 0.929 . S
C2386 C2388 1.378 . S
C2386 C2390 1.350 . S
C2387 C2390 1.463 . S
C2387 C2392 1.350 . S
C2387 N2395 1.427 . S
C2388 H2379 0.930 . S
C2388 C2386 1.378 . S
C2388 C2389 1.367 . S
C2389 C2388 1.367 . S
C2389 C2391 1.433 . S
C2390 C2386 1.350 . S
C2390 C2387 1.463 . S
C2390 N2394 1.427 . S
C2391 H2381 0.929 . S
C2391 C2389 1.433 . S
C2391 N2394 1.384 . S
C2392 H2383 0.929 . S
C2392 C2384 1.378 . S
C2392 C2387 1.350 . S
C2393 H2380 0.929 . S
C2393 C2385 1.433 . S
C2393 N2395 1.384 . S
N2394 C2390 1.427 . S
N2394 C2391 1.384 . S
N2395 C2387 1.427 . S
N2395 C2393 1.384 . S
H2396 C2402 0.930 . S
H2397 C2406 0.930 . S
H2398 C2411 0.929 . S
H2399 C2409 0.929 . S
H2400 C2404 0.929 . S
H2401 C2410 0.929 . S
C2402 H2396 0.930 . S
C2402 C2403 1.367 . S
C2402 C2410 1.378 . S
C2403 C2402 1.367 . S
C2403 C2411 1.433 . S
C2404 H2400 0.929 . S
C2404 C2406 1.378 . S
C2404 C2408 1.350 . S
C2405 C2408 1.463 . S
C2405 C2410 1.350 . S
C2405 N2413 1.427 . S
C2406 H2397 0.930 . S
C2406 C2404 1.378 . S
C2406 C2407 1.367 . S
C2407 C2406 1.367 . S
C2407 C2409 1.433 . S
C2408 C2404 1.350 . S
C2408 C2405 1.463 . S
C2408 N2412 1.427 . S
C2409 H2399 0.929 . S
C2409 C2407 1.433 . S
C2409 N2412 1.384 . S
C2410 H2401 0.929 . S
C2410 C2402 1.378 . S
C2410 C2405 1.350 . S
C2411 H2398 0.929 . S
C2411 C2403 1.433 . S
C2411 N2413 1.384 . S
N2412 C2408 1.427 . S
N2412 C2409 1.384 . S
N2413 C2405 1.427 . S
N2413 C2411 1.384 . S
H2414 C2420 0.930 . S
H2415 C2424 0.930 . S
H2416 C2429 0.929 . S
H2417 C2427 0.929 . S
H2418 C2422 0.929 . S
H2419 C2428 0.929 . S
C2420 H2414 0.930 . S
C2420 C2421 1.367 . S
C2420 C2428 1.378 . S
C2421 C2420 1.367 . S
C2421 C2429 1.433 . S
C2422 H2418 0.929 . S
C2422 C2424 1.378 . S
C2422 C2426 1.350 . S
C2423 C2426 1.463 . S
C2423 C2428 1.350 . S
C2423 N2431 1.427 . S
C2424 H2415 0.930 . S
C2424 C2422 1.378 . S
C2424 C2425 1.367 . S
C2425 C2424 1.367 . S
C2425 C2427 1.433 . S
C2426 C2422 1.350 . S
C2426 C2423 1.463 . S
C2426 N2430 1.427 . S
C2427 H2417 0.929 . S
C2427 C2425 1.433 . S
C2427 N2430 1.384 . S
C2428 H2419 0.929 . S
C2428 C2420 1.378 . S
C2428 C2423 1.350 . S
C2429 H2416 0.929 . S
C2429 C2421 1.433 . S
C2429 N2431 1.384 . S
N2430 C2426 1.427 . S
N2430 C2427 1.384 . S
N2431 C2423 1.427 . S
N2431 C2429 1.384 . S
C711 C367 1.023 . S
C715 C21 1.021 . S
C729 C513 1.023 . S
C733 C37 1.021 . S
C747 C59 1.023 . S
C751 C469 1.023 . S
C765 C73 1.021 . S
C769 C491 1.023 . S
C783 C109 1.023 . S
C787 C389 1.021 . S
C801 C117 1.021 . S
C805 C411 1.022 . S
C819 C425 1.022 . S
C823 C139 1.023 . S
C837 C161 1.023 . S
C841 C447 1.021 . S
C855 C197 1.023 . S
C859 C15 1.022 . S
C873 C29 1.023 . S
C877 C219 1.022 . S
C891 C227 1.022 . S
C895 C51 1.023 . S
C909 C87 1.023 . S
C913 C263 1.021 . S
C927 C103 1.022 . S
C931 C271 1.023 . S
C945 C307 1.022 . S
C949 C131 1.022 . S
C963 C153 1.021 . S
C967 C329 1.022 . S
C981 C337 1.023 . S
C985 C175 1.023 . S
C999 C191 1.021 . S
C1003 C373 1.023 . S
C1017 C395 1.023 . S
C1021 C285 1.021 . S
C1035 C417 1.021 . S
C1039 C301 1.023 . S
C1053 C323 1.022 . S
C1057 C433 1.022 . S
C1071 C455 1.022 . S
C1075 C351 1.023 . S
C1089 C477 1.022 . S
C1093 C241 1.022 . S
C1107 C257 1.022 . S
C1111 C499 1.023 . S
C1125 C521 1.023 . S
C1129 C213 1.022 . S
C1143 C689 1.023 . S
C1147 C345 1.022 . S
C1161 C293 1.023 . S
C1165 C667 1.022 . S
C1179 C631 1.023 . S
C1183 C249 1.021 . S
C1197 C653 1.021 . S
C1201 C205 1.023 . S
C1215 C381 1.021 . S
C1219 C549 1.023 . S
C1233 C439 1.022 . S
C1237 C557 1.022 . S
C1251 C579 1.021 . S
C1255 C359 1.023 . S
C1269 C601 1.021 . S
C1273 C483 1.023 . S
C1287 C543 1.023 . S
C1291 C95 1.021 . S
C1305 C593 1.021 . S
C1309 C7 1.023 . S
C1323 C81 1.022 . S
C1327 C637 1.023 . S
C1341 C615 1.021 . S
C1345 C65 1.023 . S
C1359 C659 1.021 . S
C1363 C43 1.023 . S
C1377 C147 1.022 . S
C1381 C571 1.022 . S
C1395 C675 1.023 . S
C1399 C125 1.021 . S
C1413 C169 1.023 . S
C1417 C697 1.022 . S
C1431 C315 1.022 . S
C1435 C565 1.021 . S
C1449 C279 1.023 . S
C1453 C535 1.021 . S
C1467 C609 1.023 . S
C1471 C235 1.023 . S
C1485 C587 1.023 . S
C1489 C183 1.023 . S
C1503 C403 1.023 . S
C1507 C681 1.021 . S
C1521 C461 1.023 . S
C1525 C703 1.021 . S
C1539 C645 1.023 . S
C1543 C527 1.022 . S
C1557 C505 1.021 . S
C1561 C623 1.023 . S
C1575 C84 1.570 . S
C1579 C10 1.573 . S
C1593 C40 1.572 . S
C1597 C8 1.572 . S
C1611 C32 1.572 . S
C1615 C62 1.572 . S
C1629 C54 1.574 . S
C1633 C74 1.570 . S
C1647 C128 1.573 . S
C1651 C98 1.572 . S
C1665 C150 1.571 . S
C1669 C118 1.572 . S
C1683 C140 1.574 . S
C1687 C172 1.570 . S
C1701 C162 1.572 . S
C1705 C96 1.573 . S
C1719 C186 1.573 . S
C1723 C404 1.572 . S
C1737 C428 1.572 . S
C1741 C208 1.573 . S
C1755 C450 1.570 . S
C1759 C228 1.574 . S
C1773 C252 1.570 . S
C1777 C382 1.573 . S
C1791 C272 1.573 . S
C1795 C494 1.572 . S
C1809 C360 1.572 . S
C1813 C296 1.573 . S
C1827 C516 1.574 . S
C1831 C318 1.571 . S
C1845 C338 1.570 . S
C1849 C472 1.574 . S
C1863 C362 1.572 . S
C1867 C206 1.572 . S
C1881 C384 1.573 . S
C1885 C348 1.570 . S
C1899 C282 1.570 . S
C1903 C406 1.574 . S
C1917 C294 1.573 . S
C1921 C436 1.570 . S
C1935 C458 1.572 . S
C1939 C316 1.571 . S
C1953 C480 1.572 . S
C1957 C250 1.571 . S
C1971 C502 1.572 . S
C1975 C184 1.571 . S
C1989 C238 1.570 . S
C1993 C524 1.574 . S
C2007 C392 1.574 . S
C2011 C304 1.570 . S
C2025 C340 1.572 . S
C2029 C426 1.572 . S
C2043 C370 1.570 . S
C2047 C260 1.574 . S
C2061 C216 1.572 . S
C2065 C470 1.571 . S
C2079 C538 1.572 . S
C2083 C624 1.573 . S
C2097 C52 1.572 . S
C2101 C164 1.573 . S
C2115 C558 1.572 . S
C2119 C646 1.573 . S
C2133 C120 1.570 . S
C2137 C18 1.573 . S
C2151 C670 1.570 . S
C2155 C580 1.574 . S
C2169 C76 1.570 . S
C2173 C106 1.574 . S
C2187 C602 1.572 . S
C2191 C692 1.573 . S
C2205 C142 1.572 . S
C2209 C30 1.573 . S
C2223 C626 1.572 . S
C2227 C590 1.573 . S
C2241 C612 1.574 . S
C2245 C648 1.570 . S
C2259 C536 1.574 . S
C2263 C678 1.570 . S
C2277 C568 1.570 . S
C2281 C700 1.574 . S
C2295 C414 1.573 . S
C2299 C326 1.571 . S
C2313 C448 1.572 . S
C2317 C274 1.571 . S
C2331 C194 1.572 . S
C2335 C514 1.572 . S
C2349 C230 1.573 . S
C2353 C492 1.571 . S
C2367 C668 1.570 . S
C2371 C560 1.574 . S
C2385 C634 1.573 . S
C2389 C604 1.571 . S
C2403 C656 1.573 . S
C2407 C582 1.571 . S
C2421 C546 1.571 . S
C2425 C690 1.573 . S
