# Generated by pormake.
# Topology wip, (6)-cn, num edge types: 1
# Building blocks:
#     Node 0, Type 0, BuildingBlock: CIFDUS_clean_sbu_1, # of connection points: 6
#     Node 1, Type 0, BuildingBlock: CIFDUS_clean_sbu_1, # of connection points: 6
#     Node 2, Type 0, BuildingBlock: CIFDUS_clean_sbu_1, # of connection points: 6
#     Node 3, Type 0, BuildingBlock: CIFDUS_clean_sbu_1, # of connection points: 6
#     Node 4, Type 0, BuildingBlock: CIFDUS_clean_sbu_1, # of connection points: 6
#     Node 5, Type 0, BuildingBlock: CIFDUS_clean_sbu_1, # of connection points: 6
#     Node 6, Type 0, BuildingBlock: CIFDUS_clean_sbu_1, # of connection points: 6
#     Node 7, Type 0, BuildingBlock: CIFDUS_clean_sbu_1, # of connection points: 6
#     Node 8, Type 0, BuildingBlock: CIFDUS_clean_sbu_1, # of connection points: 6
#     Node 9, Type 0, BuildingBlock: CIFDUS_clean_sbu_1, # of connection points: 6
#     Node 10, Type 0, BuildingBlock: CIFDUS_clean_sbu_1, # of connection points: 6
#     Node 11, Type 0, BuildingBlock: CIFDUS_clean_sbu_1, # of connection points: 6
#     Node 12, Type 0, BuildingBlock: CIFDUS_clean_sbu_1, # of connection points: 6
#     Node 13, Type 0, BuildingBlock: CIFDUS_clean_sbu_1, # of connection points: 6
#     Node 14, Type 0, BuildingBlock: CIFDUS_clean_sbu_1, # of connection points: 6
#     Node 15, Type 0, BuildingBlock: CIFDUS_clean_sbu_1, # of connection points: 6
#     Node 16, Type 0, BuildingBlock: CIFDUS_clean_sbu_1, # of connection points: 6
#     Node 17, Type 0, BuildingBlock: CIFDUS_clean_sbu_1, # of connection points: 6
#     Node 18, Type 0, BuildingBlock: CIFDUS_clean_sbu_1, # of connection points: 6
#     Node 19, Type 0, BuildingBlock: CIFDUS_clean_sbu_1, # of connection points: 6
#     Node 20, Type 0, BuildingBlock: CIFDUS_clean_sbu_1, # of connection points: 6
#     Node 21, Type 0, BuildingBlock: CIFDUS_clean_sbu_1, # of connection points: 6
#     Node 22, Type 0, BuildingBlock: CIFDUS_clean_sbu_1, # of connection points: 6
#     Node 23, Type 0, BuildingBlock: CIFDUS_clean_sbu_1, # of connection points: 6
#     Node 24, Type 0, BuildingBlock: CIFDUS_clean_sbu_1, # of connection points: 6
#     Node 25, Type 0, BuildingBlock: CIFDUS_clean_sbu_1, # of connection points: 6
#     Node 26, Type 0, BuildingBlock: CIFDUS_clean_sbu_1, # of connection points: 6
#     Node 27, Type 0, BuildingBlock: CIFDUS_clean_sbu_1, # of connection points: 6
#     Node 28, Type 0, BuildingBlock: CIFDUS_clean_sbu_1, # of connection points: 6
#     Node 29, Type 0, BuildingBlock: CIFDUS_clean_sbu_1, # of connection points: 6
#     Node 30, Type 0, BuildingBlock: CIFDUS_clean_sbu_1, # of connection points: 6
#     Node 31, Type 0, BuildingBlock: CIFDUS_clean_sbu_1, # of connection points: 6
#     Edge 32, Type (0, 0), BuildingBlock: CIFDUS_clean_linker_0, # of connection points: 2
#     Edge 33, Type (0, 0), BuildingBlock: CIFDUS_clean_linker_0, # of connection points: 2
#     Edge 34, Type (0, 0), BuildingBlock: CIFDUS_clean_linker_0, # of connection points: 2
#     Edge 35, Type (0, 0), BuildingBlock: CIFDUS_clean_linker_0, # of connection points: 2
#     Edge 36, Type (0, 0), BuildingBlock: CIFDUS_clean_linker_0, # of connection points: 2
#     Edge 37, Type (0, 0), BuildingBlock: CIFDUS_clean_linker_0, # of connection points: 2
#     Edge 38, Type (0, 0), BuildingBlock: CIFDUS_clean_linker_0, # of connection points: 2
#     Edge 39, Type (0, 0), BuildingBlock: CIFDUS_clean_linker_0, # of connection points: 2
#     Edge 40, Type (0, 0), BuildingBlock: CIFDUS_clean_linker_0, # of connection points: 2
#     Edge 41, Type (0, 0), BuildingBlock: CIFDUS_clean_linker_0, # of connection points: 2
#     Edge 42, Type (0, 0), BuildingBlock: CIFDUS_clean_linker_0, # of connection points: 2
#     Edge 43, Type (0, 0), BuildingBlock: CIFDUS_clean_linker_0, # of connection points: 2
#     Edge 44, Type (0, 0), BuildingBlock: CIFDUS_clean_linker_0, # of connection points: 2
#     Edge 45, Type (0, 0), BuildingBlock: CIFDUS_clean_linker_0, # of connection points: 2
#     Edge 46, Type (0, 0), BuildingBlock: CIFDUS_clean_linker_0, # of connection points: 2
#     Edge 47, Type (0, 0), BuildingBlock: CIFDUS_clean_linker_0, # of connection points: 2
#     Edge 48, Type (0, 0), BuildingBlock: CIFDUS_clean_linker_0, # of connection points: 2
#     Edge 49, Type (0, 0), BuildingBlock: CIFDUS_clean_linker_0, # of connection points: 2
#     Edge 50, Type (0, 0), BuildingBlock: CIFDUS_clean_linker_0, # of connection points: 2
#     Edge 51, Type (0, 0), BuildingBlock: CIFDUS_clean_linker_0, # of connection points: 2
#     Edge 52, Type (0, 0), BuildingBlock: CIFDUS_clean_linker_0, # of connection points: 2
#     Edge 53, Type (0, 0), BuildingBlock: CIFDUS_clean_linker_0, # of connection points: 2
#     Edge 54, Type (0, 0), BuildingBlock: CIFDUS_clean_linker_0, # of connection points: 2
#     Edge 55, Type (0, 0), BuildingBlock: CIFDUS_clean_linker_0, # of connection points: 2
#     Edge 56, Type (0, 0), BuildingBlock: CIFDUS_clean_linker_0, # of connection points: 2
#     Edge 57, Type (0, 0), BuildingBlock: CIFDUS_clean_linker_0, # of connection points: 2
#     Edge 58, Type (0, 0), BuildingBlock: CIFDUS_clean_linker_0, # of connection points: 2
#     Edge 59, Type (0, 0), BuildingBlock: CIFDUS_clean_linker_0, # of connection points: 2
#     Edge 60, Type (0, 0), BuildingBlock: CIFDUS_clean_linker_0, # of connection points: 2
#     Edge 61, Type (0, 0), BuildingBlock: CIFDUS_clean_linker_0, # of connection points: 2
#     Edge 62, Type (0, 0), BuildingBlock: CIFDUS_clean_linker_0, # of connection points: 2
#     Edge 63, Type (0, 0), BuildingBlock: CIFDUS_clean_linker_0, # of connection points: 2
#     Edge 64, Type (0, 0), BuildingBlock: CIFDUS_clean_linker_0, # of connection points: 2
#     Edge 65, Type (0, 0), BuildingBlock: CIFDUS_clean_linker_0, # of connection points: 2
#     Edge 66, Type (0, 0), BuildingBlock: CIFDUS_clean_linker_0, # of connection points: 2
#     Edge 67, Type (0, 0), BuildingBlock: CIFDUS_clean_linker_0, # of connection points: 2
#     Edge 68, Type (0, 0), BuildingBlock: CIFDUS_clean_linker_0, # of connection points: 2
#     Edge 69, Type (0, 0), BuildingBlock: CIFDUS_clean_linker_0, # of connection points: 2
#     Edge 70, Type (0, 0), BuildingBlock: CIFDUS_clean_linker_0, # of connection points: 2
#     Edge 71, Type (0, 0), BuildingBlock: CIFDUS_clean_linker_0, # of connection points: 2
#     Edge 72, Type (0, 0), BuildingBlock: CIFDUS_clean_linker_0, # of connection points: 2
#     Edge 73, Type (0, 0), BuildingBlock: CIFDUS_clean_linker_0, # of connection points: 2
#     Edge 74, Type (0, 0), BuildingBlock: CIFDUS_clean_linker_0, # of connection points: 2
#     Edge 75, Type (0, 0), BuildingBlock: CIFDUS_clean_linker_0, # of connection points: 2
#     Edge 76, Type (0, 0), BuildingBlock: CIFDUS_clean_linker_0, # of connection points: 2
#     Edge 77, Type (0, 0), BuildingBlock: CIFDUS_clean_linker_0, # of connection points: 2
#     Edge 78, Type (0, 0), BuildingBlock: CIFDUS_clean_linker_0, # of connection points: 2
#     Edge 79, Type (0, 0), BuildingBlock: CIFDUS_clean_linker_0, # of connection points: 2
#     Edge 80, Type (0, 0), BuildingBlock: CIFDUS_clean_linker_0, # of connection points: 2
#     Edge 81, Type (0, 0), BuildingBlock: CIFDUS_clean_linker_0, # of connection points: 2
#     Edge 82, Type (0, 0), BuildingBlock: CIFDUS_clean_linker_0, # of connection points: 2
#     Edge 83, Type (0, 0), BuildingBlock: CIFDUS_clean_linker_0, # of connection points: 2
#     Edge 84, Type (0, 0), BuildingBlock: CIFDUS_clean_linker_0, # of connection points: 2
#     Edge 85, Type (0, 0), BuildingBlock: CIFDUS_clean_linker_0, # of connection points: 2
#     Edge 86, Type (0, 0), BuildingBlock: CIFDUS_clean_linker_0, # of connection points: 2
#     Edge 87, Type (0, 0), BuildingBlock: CIFDUS_clean_linker_0, # of connection points: 2
#     Edge 88, Type (0, 0), BuildingBlock: CIFDUS_clean_linker_0, # of connection points: 2
#     Edge 89, Type (0, 0), BuildingBlock: CIFDUS_clean_linker_0, # of connection points: 2
#     Edge 90, Type (0, 0), BuildingBlock: CIFDUS_clean_linker_0, # of connection points: 2
#     Edge 91, Type (0, 0), BuildingBlock: CIFDUS_clean_linker_0, # of connection points: 2
#     Edge 92, Type (0, 0), BuildingBlock: CIFDUS_clean_linker_0, # of connection points: 2
#     Edge 93, Type (0, 0), BuildingBlock: CIFDUS_clean_linker_0, # of connection points: 2
#     Edge 94, Type (0, 0), BuildingBlock: CIFDUS_clean_linker_0, # of connection points: 2
#     Edge 95, Type (0, 0), BuildingBlock: CIFDUS_clean_linker_0, # of connection points: 2
#     Edge 96, Type (0, 0), BuildingBlock: CIFDUS_clean_linker_0, # of connection points: 2
#     Edge 97, Type (0, 0), BuildingBlock: CIFDUS_clean_linker_0, # of connection points: 2
#     Edge 98, Type (0, 0), BuildingBlock: CIFDUS_clean_linker_0, # of connection points: 2
#     Edge 99, Type (0, 0), BuildingBlock: CIFDUS_clean_linker_0, # of connection points: 2
#     Edge 100, Type (0, 0), BuildingBlock: CIFDUS_clean_linker_0, # of connection points: 2
#     Edge 101, Type (0, 0), BuildingBlock: CIFDUS_clean_linker_0, # of connection points: 2
#     Edge 102, Type (0, 0), BuildingBlock: CIFDUS_clean_linker_0, # of connection points: 2
#     Edge 103, Type (0, 0), BuildingBlock: CIFDUS_clean_linker_0, # of connection points: 2
#     Edge 104, Type (0, 0), BuildingBlock: CIFDUS_clean_linker_0, # of connection points: 2
#     Edge 105, Type (0, 0), BuildingBlock: CIFDUS_clean_linker_0, # of connection points: 2
#     Edge 106, Type (0, 0), BuildingBlock: CIFDUS_clean_linker_0, # of connection points: 2
#     Edge 107, Type (0, 0), BuildingBlock: CIFDUS_clean_linker_0, # of connection points: 2
#     Edge 108, Type (0, 0), BuildingBlock: CIFDUS_clean_linker_0, # of connection points: 2
#     Edge 109, Type (0, 0), BuildingBlock: CIFDUS_clean_linker_0, # of connection points: 2
#     Edge 110, Type (0, 0), BuildingBlock: CIFDUS_clean_linker_0, # of connection points: 2
#     Edge 111, Type (0, 0), BuildingBlock: CIFDUS_clean_linker_0, # of connection points: 2
#     Edge 112, Type (0, 0), BuildingBlock: CIFDUS_clean_linker_0, # of connection points: 2
#     Edge 113, Type (0, 0), BuildingBlock: CIFDUS_clean_linker_0, # of connection points: 2
#     Edge 114, Type (0, 0), BuildingBlock: CIFDUS_clean_linker_0, # of connection points: 2
#     Edge 115, Type (0, 0), BuildingBlock: CIFDUS_clean_linker_0, # of connection points: 2
#     Edge 116, Type (0, 0), BuildingBlock: CIFDUS_clean_linker_0, # of connection points: 2
#     Edge 117, Type (0, 0), BuildingBlock: CIFDUS_clean_linker_0, # of connection points: 2
#     Edge 118, Type (0, 0), BuildingBlock: CIFDUS_clean_linker_0, # of connection points: 2
#     Edge 119, Type (0, 0), BuildingBlock: CIFDUS_clean_linker_0, # of connection points: 2
#     Edge 120, Type (0, 0), BuildingBlock: CIFDUS_clean_linker_0, # of connection points: 2
#     Edge 121, Type (0, 0), BuildingBlock: CIFDUS_clean_linker_0, # of connection points: 2
#     Edge 122, Type (0, 0), BuildingBlock: CIFDUS_clean_linker_0, # of connection points: 2
#     Edge 123, Type (0, 0), BuildingBlock: CIFDUS_clean_linker_0, # of connection points: 2
#     Edge 124, Type (0, 0), BuildingBlock: CIFDUS_clean_linker_0, # of connection points: 2
#     Edge 125, Type (0, 0), BuildingBlock: CIFDUS_clean_linker_0, # of connection points: 2
#     Edge 126, Type (0, 0), BuildingBlock: CIFDUS_clean_linker_0, # of connection points: 2
#     Edge 127, Type (0, 0), BuildingBlock: CIFDUS_clean_linker_0, # of connection points: 2
# Relax obj value: 0.535
# Max RMSD: 0.243
# Mean RMSD: 0.242
data_MOF--net-wip--node1-CIFDUS_clean_sbu_1--edge1-CIFDUS_clean_linker_0
_symmetry_space_group_name_H-M    P1
_symmetry_Int_Tables_number       1
_symmetry_cell_setting            triclinic
loop_
_symmetry_equiv_pos_as_xyz
'x, y, z'
_cell_length_a     63.201551
_cell_length_b     63.32213
_cell_length_c     21.279998
_cell_angle_alpha  90.07361
_cell_angle_beta   90.033771
_cell_angle_gamma 90.020293
loop_
_atom_site_label
_atom_site_type_symbol
_atom_site_fract_x
_atom_site_fract_y
_atom_site_fract_z
_atom_type_partial_charge
O0 O 0.04188 0.41506 0.18011 0.0
Mn1 Mn 0.05473 0.43495 0.10646 0.0
O2 O 0.01296 0.43317 0.20711 0.0
Mn3 Mn 0.02968 0.45673 0.21295 0.0
O4 O 0.06567 0.45541 0.03496 0.0
O5 O 0.07646 0.41262 0.07887 0.0
Mn6 Mn 0.06998 0.40901 0.99833 0.0
O7 O 0.03089 0.42434 0.04125 0.0
O8 O 0.07243 0.43412 0.95325 0.0
O9 O 0.07657 0.44784 0.17195 0.0
O10 O 0.05467 0.45112 0.25459 0.0
O11 O 0.09234 0.39192 1.0086 0.0
O12 O 0.04406 0.39615 0.99475 0.0
C13 C 0.03694 0.47737 0.13595 0.0
C14 C 0.02385 0.41633 0.20978 0.0
C15 C 0.06997 0.45254 0.97629 0.0
C16 C 0.0909 0.39839 0.0663 0.0
C17 C 0.02858 0.40823 1.00465 0.0
C18 C 0.07306 0.4519 0.23065 0.0
O19 O 0.03534 0.45734 0.13219 0.0
O20 O 0.02927 0.4847 0.18786 0.0
O21 O 0.82226 0.79981 0.43922 0.0
Mn22 Mn 0.80608 0.81453 0.35986 0.0
O23 O 0.79541 0.78396 0.49218 0.0
Mn24 Mn 0.7788 0.80682 0.47904 0.0
O25 O 0.78834 0.826 0.28378 0.0
O26 O 0.83282 0.8281 0.3247 0.0
Mn27 Mn 0.83436 0.8214 0.24434 0.0
O28 O 0.81162 0.78585 0.30573 0.0
O29 O 0.81082 0.83228 0.20445 0.0
O30 O 0.79799 0.84309 0.40727 0.0
O31 O 0.79418 0.83041 0.50201 0.0
O32 O 0.85739 0.83793 0.25775 0.0
O33 O 0.83728 0.79276 0.23604 0.0
C34 C 0.75997 0.80565 0.39102 0.0
C35 C 0.81507 0.78604 0.48021 0.0
C36 C 0.79219 0.8319 0.22712 0.0
C37 C 0.84991 0.83908 0.31435 0.0
C38 C 0.82409 0.78002 0.26008 0.0
C39 C 0.79373 0.84598 0.4657 0.0
O40 O 0.77993 0.80317 0.39654 0.0
O41 O 0.75163 0.8095 0.44515 0.0
O42 O 0.44643 0.59076 0.67971 0.0
Mn43 Mn 0.44062 0.56802 0.60536 0.0
O44 O 0.47778 0.57934 0.71226 0.0
Mn45 Mn 0.46483 0.55388 0.72336 0.0
O46 O 0.43633 0.54559 0.53164 0.0
O47 O 0.41751 0.58538 0.56859 0.0
Mn48 Mn 0.42051 0.58888 0.48669 0.0
O49 O 0.46313 0.58331 0.54868 0.0
O50 O 0.4199 0.562 0.45118 0.0
O51 O 0.42009 0.5501 0.662 0.0
O52 O 0.43691 0.55673 0.75087 0.0
O53 O 0.39674 0.60417 0.51078 0.0
O54 O 0.44642 0.60202 0.47427 0.0
C55 C 0.46494 0.53123 0.6491 0.0
C56 C 0.46394 0.59379 0.71094 0.0
C57 C 0.42867 0.54571 0.47516 0.0
C58 C 0.40124 0.59745 0.56661 0.0
C59 C 0.46337 0.59569 0.50069 0.0
C60 C 0.42227 0.54722 0.72153 0.0
O61 O 0.46319 0.55091 0.64086 0.0
O62 O 0.47128 0.52615 0.70481 0.0
O63 O 0.69161 0.20865 0.78588 0.0
Mn64 Mn 0.70113 0.18313 0.84563 0.0
O65 O 0.66491 0.19636 0.72672 0.0
Mn66 Mn 0.66688 0.16925 0.75621 0.0
O67 O 0.71154 0.15816 0.90351 0.0
O68 O 0.72993 0.19646 0.85239 0.0
Mn69 Mn 0.73577 0.20015 0.93263 0.0
O70 O 0.69052 0.20048 0.9274 0.0
O71 O 0.72942 0.17615 0.97748 0.0
O72 O 0.71296 0.16694 0.76654 0.0
O73 O 0.68594 0.15277 0.7141 0.0
O74 O 0.7612 0.19691 0.89223 0.0
O75 O 0.71767 0.2221 0.94801 0.0
C76 C 0.65317 0.16025 0.83939 0.0
C77 C 0.67753 0.21106 0.74216 0.0
C78 C 0.72216 0.15903 0.95513 0.0
C79 C 0.74978 0.19242 0.84357 0.0
C80 C 0.69857 0.21657 0.9571 0.0
C81 C 0.70557 0.15604 0.72059 0.0
O82 O 0.67183 0.16922 0.83819 0.0
O83 O 0.64348 0.15713 0.7864 0.0
O84 O 0.0489 0.58542 0.49599 0.0
Mn85 Mn 0.05135 0.56341 0.57451 0.0
O86 O 0.01564 0.58332 0.47582 0.0
Mn87 Mn 0.02134 0.55507 0.47447 0.0
O88 O 0.05545 0.54063 0.64872 0.0
O89 O 0.07805 0.57972 0.59894 0.0
Mn90 Mn 0.07922 0.57904 0.68171 0.0
O91 O 0.03281 0.58241 0.63758 0.0
O92 O 0.08177 0.55192 0.71063 0.0
O93 O 0.06824 0.54383 0.51239 0.0
O94 O 0.04464 0.54289 0.43281 0.0
O95 O 0.10238 0.59418 0.6598 0.0
O96 O 0.05584 0.5931 0.71171 0.0
C97 C 0.00719 0.53639 0.53874 0.0
C98 C 0.03272 0.59237 0.4653 0.0
C99 C 0.06827 0.538 0.69568 0.0
C100 C 0.09499 0.59144 0.60353 0.0
C101 C 0.03713 0.59231 0.68946 0.0
C102 C 0.06269 0.53811 0.45648 0.0
O103 O 0.02436 0.54691 0.55261 0.0
O104 O -0.00149 0.53935 0.48416 0.0
O105 O 0.69179 0.78735 0.87132 0.0
Mn106 Mn 0.70085 0.81349 0.81058 0.0
O107 O 0.66548 0.79875 0.93415 0.0
Mn108 Mn 0.6698 0.82678 0.91646 0.0
O109 O 0.71032 0.83911 0.75235 0.0
O110 O 0.72809 0.80004 0.78829 0.0
Mn111 Mn 0.73256 0.79769 0.70737 0.0
O112 O 0.68646 0.79765 0.73194 0.0
O113 O 0.72471 0.82257 0.6691 0.0
O114 O 0.71653 0.82748 0.88651 0.0
O115 O 0.69282 0.83822 0.9581 0.0
O116 O 0.75882 0.79922 0.74781 0.0
O117 O 0.71273 0.77699 0.69406 0.0
C118 C 0.65717 0.84036 0.83357 0.0
C119 C 0.67786 0.7842 0.91567 0.0
C120 C 0.71837 0.83923 0.69645 0.0
C121 C 0.74796 0.80297 0.79795 0.0
C122 C 0.69326 0.78225 0.69664 0.0
C123 C 0.71183 0.83574 0.93985 0.0
O124 O 0.67402 0.82877 0.83463 0.0
O125 O 0.64817 0.84326 0.88763 0.0
O126 O 0.44859 0.40843 1.00462 0.0
Mn127 Mn 0.44911 0.4316 0.07877 0.0
O128 O 0.48196 0.40339 0.99166 0.0
Mn129 Mn 0.48302 0.43201 0.98019 0.0
O130 O 0.44757 0.45522 0.15199 0.0
O131 O 0.4199 0.42096 0.10063 0.0
Mn132 Mn 0.41718 0.41948 0.1827 0.0
O133 O 0.46336 0.41075 0.14448 0.0
O134 O 0.42017 0.44636 0.21445 0.0
O135 O 0.43749 0.45233 1.01283 0.0
O136 O 0.46173 0.44744 0.93517 0.0
O137 O 0.39214 0.40954 0.15021 0.0
O138 O 0.43758 0.4008 0.21092 0.0
C139 C 0.495 0.45363 0.04134 0.0
C140 C 0.46353 0.39787 0.97852 0.0
C141 C 0.43523 0.45875 0.19983 0.0
C142 C 0.40127 0.41245 0.09643 0.0
C143 C 0.4568 0.40027 0.1927 0.0
C144 C 0.44462 0.456 0.95709 0.0
O145 O 0.47829 0.44246 0.05436 0.0
O146 O 0.50755 0.44513 1.00033 0.0
O147 O 0.80159 0.19395 0.23723 0.0
Mn148 Mn 0.79401 0.17768 0.31905 0.0
O149 O 0.77282 0.18648 0.17692 0.0
Mn150 Mn 0.75409 0.17484 0.23769 0.0
O151 O 0.78396 0.16181 0.39975 0.0
O152 O 0.82403 0.16796 0.33466 0.0
Mn153 Mn 0.83086 0.17311 0.41341 0.0
O154 O 0.79864 0.20529 0.37552 0.0
O155 O 0.81206 0.15844 0.46369 0.0
O156 O 0.79017 0.15031 0.26122 0.0
O157 O 0.75594 0.14728 0.26313 0.0
O158 O 0.85391 0.15976 0.38022 0.0
O159 O 0.82996 0.20183 0.42438 0.0
C160 C 0.74702 0.19819 0.30484 0.0
C161 C 0.79101 0.19538 0.18524 0.0
C162 C 0.79242 0.15609 0.45202 0.0
C163 C 0.8423 0.1588 0.33005 0.0
C164 C 0.8135 0.21253 0.41166 0.0
C165 C 0.77343 0.13984 0.2463 0.0
O166 O 0.76395 0.18693 0.30501 0.0
O167 O 0.73261 0.19169 0.2662 0.0
O168 O 0.93197 0.54206 0.14924 0.0
Mn169 Mn 0.93779 0.56419 0.07535 0.0
O170 O 0.91658 0.55953 0.22866 0.0
Mn171 Mn 0.92027 0.58572 0.19314 0.0
O172 O 0.9461 0.58583 0.99906 0.0
O173 O 0.95728 0.54333 0.0377 0.0
Mn174 Mn 0.95646 0.54666 0.95469 0.0
O175 O 0.91401 0.54911 0.02119 0.0
O176 O 0.97411 0.56925 0.95917 0.0
O177 O 0.96305 0.57793 0.13171 0.0
O178 O 0.94648 0.5971 0.20587 0.0
O179 O 0.95819 0.51821 0.96964 0.0
O180 O 0.92934 0.55442 0.92984 0.0
C181 C 0.90075 0.59795 0.12218 0.0
C182 C 0.92405 0.54266 0.20525 0.0
C183 C 0.96319 0.58592 0.96425 0.0
C184 C 0.95575 0.52338 0.02791 0.0
C185 C 0.91377 0.54761 0.96091 0.0
C186 C 0.96337 0.59087 0.17933 0.0
O187 O 0.91603 0.5846 0.11146 0.0
O188 O 0.89793 0.60321 0.18047 0.0
O189 O 0.19767 0.16562 0.75593 0.0
Mn190 Mn 0.18526 0.18867 0.81695 0.0
O191 O 0.2026 0.18487 0.66935 0.0
Mn192 Mn 0.20847 0.21063 0.70753 0.0
O193 O 0.17545 0.2136 0.87869 0.0
O194 O 0.1609 0.1686 0.84384 0.0
Mn195 Mn 0.16022 0.17384 0.9267 0.0
O196 O 0.2053 0.1759 0.88733 0.0
O197 O 0.15175 0.2008 0.94563 0.0
O198 O 0.16568 0.20273 0.74412 0.0
O199 O 0.18614 0.22858 0.70403 0.0
O200 O 0.13989 0.15459 0.91716 0.0
O201 O 0.18471 0.16579 0.96703 0.0
C202 C 0.2292 0.20709 0.78541 0.0
C203 C 0.20359 0.16738 0.69827 0.0
C204 C 0.16215 0.21623 0.92414 0.0
C205 C 0.14538 0.15562 0.85849 0.0
C206 C 0.20287 0.1684 0.94306 0.0
C207 C 0.16815 0.21998 0.71125 0.0
O208 O 0.20893 0.20728 0.78973 0.0
O209 O 0.23633 0.21348 0.73175 0.0
O210 O 0.57065 0.43727 0.51171 0.0
Mn211 Mn 0.5524 0.42111 0.5812 0.0
O212 O 0.54592 0.44083 0.43459 0.0
Mn213 Mn 0.52082 0.43784 0.47891 0.0
O214 O 0.53074 0.40658 0.64578 0.0
O215 O 0.57735 0.40256 0.60951 0.0
Mn216 Mn 0.57388 0.40176 0.69263 0.0
O217 O 0.56024 0.44428 0.65011 0.0
O218 O 0.54971 0.38746 0.71287 0.0
O219 O 0.54337 0.39913 0.50882 0.0
O220 O 0.5109 0.41075 0.48722 0.0
O221 O 0.59727 0.38632 0.68177 0.0
O222 O 0.57618 0.42791 0.72995 0.0
C223 C 0.5238 0.45772 0.55932 0.0
C224 C 0.56478 0.44297 0.45547 0.0
C225 C 0.53196 0.39339 0.69177 0.0
C226 C 0.59363 0.39057 0.62312 0.0
C227 C 0.56852 0.44447 0.70551 0.0
C228 C 0.52524 0.39691 0.48058 0.0
O229 O 0.52901 0.43864 0.55663 0.0
O230 O 0.51209 0.46351 0.51255 0.0
O231 O 0.2904 0.81435 0.26459 0.0
Mn232 Mn 0.312 0.79802 0.32739 0.0
O233 O 0.26722 0.78957 0.23803 0.0
Mn234 Mn 0.2917 0.77503 0.22739 0.0
O235 O 0.33197 0.78274 0.39266 0.0
O236 O 0.32602 0.82585 0.34627 0.0
Mn237 Mn 0.32725 0.83021 0.42749 0.0
O238 O 0.2895 0.80247 0.39997 0.0
O239 O 0.34371 0.8083 0.45782 0.0
O240 O 0.3342 0.79207 0.25697 0.0
O241 O 0.31091 0.79074 0.181 0.0
O242 O 0.33985 0.85346 0.39146 0.0
O243 O 0.29995 0.83026 0.4579 0.0
C244 C 0.30457 0.75124 0.28767 0.0
C245 C 0.27187 0.80896 0.24329 0.0
C246 C 0.34297 0.78899 0.44042 0.0
C247 C 0.33652 0.84322 0.3397 0.0
C248 C 0.28672 0.81567 0.4455 0.0
C249 C 0.32995 0.7914 0.19841 0.0
O250 O 0.29854 0.76971 0.30792 0.0
O251 O 0.29997 0.74774 0.22926 0.0
O252 O 0.93218 0.45654 0.53764 0.0
Mn253 Mn 0.93663 0.43326 0.60923 0.0
O254 O 0.90937 0.44325 0.46684 0.0
Mn255 Mn 0.90882 0.41669 0.50181 0.0
O256 O 0.94305 0.41081 0.68054 0.0
O257 O 0.96296 0.44741 0.63721 0.0
Mn258 Mn 0.9607 0.45429 0.71779 0.0
O259 O 0.919 0.4535 0.67247 0.0
O260 O 0.9453 0.43361 0.75927 0.0
O261 O 0.95481 0.41513 0.54262 0.0
O262 O 0.93122 0.40007 0.47778 0.0
O263 O 0.98887 0.44752 0.70136 0.0
O264 O 0.94324 0.47693 0.70581 0.0
C265 C 0.89129 0.40869 0.58236 0.0
C266 C 0.92145 0.45796 0.48593 0.0
C267 C 0.94509 0.41479 0.73966 0.0
C268 C 0.98233 0.44198 0.64625 0.0
C269 C 0.92399 0.47166 0.69738 0.0
C270 C 0.95027 0.40334 0.49457 0.0
O271 O 0.90937 0.41847 0.58439 0.0
O272 O 0.88402 0.40466 0.52667 0.0
O273 O 0.29371 0.16166 0.4106 0.0
Mn274 Mn 0.30489 0.18616 0.3546 0.0
O275 O 0.30078 0.17808 0.49741 0.0
Mn276 Mn 0.29137 0.20377 0.46412 0.0
O277 O 0.31483 0.21057 0.2904 0.0
O278 O 0.3277 0.16659 0.32348 0.0
Mn279 Mn 0.33135 0.16819 0.24246 0.0
O280 O 0.28483 0.176 0.28109 0.0
O281 O 0.34102 0.19533 0.23449 0.0
O282 O 0.32703 0.1991 0.42563 0.0
O283 O 0.30909 0.22596 0.46193 0.0
O284 O 0.34929 0.1471 0.26941 0.0
O285 O 0.30543 0.16299 0.20361 0.0
C286 C 0.26277 0.20027 0.42761 0.0
C287 C 0.29351 0.16186 0.47038 0.0
C288 C 0.32947 0.21121 0.2474 0.0
C289 C 0.34184 0.15188 0.32425 0.0
C290 C 0.28738 0.16853 0.22493 0.0
C291 C 0.32663 0.21707 0.45567 0.0
O292 O 0.27897 0.20316 0.38863 0.0
O293 O 0.26506 0.20501 0.48673 0.0
O294 O 0.56139 0.53708 0.16219 0.0
Mn295 Mn 0.5455 0.55764 0.09582 0.0
O296 O 0.5368 0.51343 0.18981 0.0
Mn297 Mn 0.51796 0.53557 0.19452 0.0
O298 O 0.52911 0.5777 0.03074 0.0
O299 O 0.57335 0.5719 0.07602 0.0
Mn300 Mn 0.57527 0.57479 0.99381 0.0
O301 O 0.55132 0.53483 0.02368 0.0
O302 O 0.55375 0.59235 0.96885 0.0
O303 O 0.53921 0.57942 0.16842 0.0
O304 O 0.5285 0.55714 0.24404 0.0
O305 O 0.59971 0.58623 0.02349 0.0
O306 O 0.57525 0.54853 0.95691 0.0
C307 C 0.49803 0.54782 0.1198 0.0
C308 C 0.5561 0.51922 0.18823 0.0
C309 C 0.53457 0.59042 0.98599 0.0
C310 C 0.59155 0.58132 0.07735 0.0
C311 C 0.5633 0.53353 0.9744 0.0
C312 C 0.53396 0.57546 0.22576 0.0
O313 O 0.51796 0.5436 0.11513 0.0
O314 O 0.49011 0.54055 0.17151 0.0
O315 O 0.19795 0.81187 0.91252 0.0
Mn316 Mn 0.17881 0.79562 0.84474 0.0
O317 O 0.22 0.78692 0.95098 0.0
Mn318 Mn 0.20014 0.76579 0.94363 0.0
O319 O 0.16108 0.77819 0.77651 0.0
O320 O 0.16309 0.82291 0.82487 0.0
Mn321 Mn 0.16107 0.82446 0.74209 0.0
O322 O 0.20184 0.80275 0.77549 0.0
O323 O 0.14507 0.802 0.71493 0.0
O324 O 0.15653 0.78837 0.9163 0.0
O325 O 0.17606 0.77063 0.98824 0.0
O326 O 0.14812 0.84826 0.77012 0.0
O327 O 0.18762 0.82571 0.70699 0.0
C328 C 0.1965 0.74907 0.85438 0.0
C329 C 0.21467 0.8062 0.94376 0.0
C330 C 0.1486 0.78295 0.73051 0.0
C331 C 0.15263 0.84065 0.82505 0.0
C332 C 0.20293 0.81444 0.72594 0.0
C333 C 0.15902 0.77937 0.97043 0.0
O334 O 0.19379 0.76888 0.86454 0.0
O335 O 0.20221 0.73959 0.90557 0.0
O336 O 0.54949 0.92106 0.67787 0.0
Mn337 Mn 0.56104 0.9407 0.60493 0.0
O338 O 0.55667 0.94303 0.7563 0.0
Mn339 Mn 0.54771 0.96772 0.71703 0.0
O340 O 0.57087 0.96147 0.53283 0.0
O341 O 0.58118 0.91855 0.57376 0.0
Mn342 Mn 0.58106 0.91729 0.49133 0.0
O343 O 0.53695 0.92953 0.54165 0.0
O344 O 0.59024 0.94321 0.46283 0.0
O345 O 0.58529 0.95458 0.6641 0.0
O346 O 0.56984 0.98453 0.69463 0.0
O347 O 0.6 0.89707 0.51681 0.0
O348 O 0.55381 0.91059 0.46725 0.0
C349 C 0.52176 0.96124 0.6547 0.0
C350 C 0.54997 0.9253 0.73717 0.0
C351 C 0.58246 0.96047 0.48284 0.0
C352 C 0.5951 0.90366 0.57258 0.0
C353 C 0.53692 0.91852 0.49006 0.0
C354 C 0.58656 0.9738 0.68601 0.0
O355 O 0.54119 0.9618 0.63795 0.0
O356 O 0.51869 0.96909 0.71006 0.0
O357 O 0.32803 0.29932 0.93822 0.0
Mn358 Mn 0.30824 0.30733 0.86317 0.0
O359 O 0.30414 0.309 1.0079 0.0
Mn360 Mn 0.28115 0.2989 0.96093 0.0
O361 O 0.28702 0.31401 0.78847 0.0
O362 O 0.32873 0.32978 0.83311 0.0
Mn363 Mn 0.33139 0.3283 0.75074 0.0
O364 O 0.32258 0.28434 0.80232 0.0
O365 O 0.30491 0.33296 0.71647 0.0
O366 O 0.29273 0.33216 0.91759 0.0
O367 O 0.26184 0.31816 0.93427 0.0
O368 O 0.34875 0.35007 0.776 0.0
O369 O 0.34204 0.30193 0.73077 0.0
C370 C 0.28803 0.26921 0.94187 0.0
C371 C 0.32256 0.30228 0.99566 0.0
C372 C 0.28801 0.32409 0.73575 0.0
C373 C 0.34217 0.34529 0.83182 0.0
C374 C 0.33468 0.28474 0.75284 0.0
C375 C 0.27315 0.33445 0.93483 0.0
O376 O 0.28883 0.2832 0.8956 0.0
O377 O 0.27638 0.2736 0.99076 0.0
O378 O 0.94537 0.05522 0.18679 0.0
Mn379 Mn 0.92906 0.04533 0.10806 0.0
O380 O 0.9356 0.02869 0.25271 0.0
Mn381 Mn 0.92556 0.00824 0.19395 0.0
O382 O 0.91308 0.03319 0.03071 0.0
O383 O 0.91843 0.07446 0.08563 0.0
Mn384 Mn 0.92501 0.08055 1.00727 0.0
O385 O 0.95536 0.04896 0.04718 0.0
O386 O 0.9128 0.05938 0.95869 0.0
O387 O 0.90179 0.0423 0.16718 0.0
O388 O 0.89886 0.00861 0.16039 0.0
O389 O 0.90943 0.10308 0.03578 0.0
O390 O 0.95414 0.08091 1.00313 0.0
C391 C 0.95167 -0.00084 0.14241 0.0
C392 C 0.94567 0.04608 0.24116 0.0
C393 C 0.9093 0.04028 0.97519 0.0
C394 C 0.9083 0.0922 0.08715 0.0
C395 C 0.96346 0.06341 1.01169 0.0
C396 C 0.89083 0.02561 0.17797 0.0
O397 O 0.94082 0.01615 0.13052 0.0
O398 O 0.94231 0.98562 0.1785 0.0
O399 O 0.15967 0.70738 0.26697 0.0
Mn400 Mn 0.17815 0.69103 0.33463 0.0
O401 O 0.14643 0.68297 0.20255 0.0
Mn402 Mn 0.16272 0.66174 0.23565 0.0
O403 O 0.19675 0.67738 0.40399 0.0
O404 O 0.1936 0.71824 0.34872 0.0
Mn405 Mn 0.18895 0.72765 0.42419 0.0
O406 O 0.15579 0.69847 0.40781 0.0
O407 O 0.19771 0.70449 0.47406 0.0
O408 O 0.20142 0.68427 0.26554 0.0
O409 O 0.18927 0.65924 0.20153 0.0
O410 O 0.21089 0.74359 0.39343 0.0
O411 O 0.16047 0.73278 0.41823 0.0
C412 C 0.15251 0.64445 0.31185 0.0
C413 C 0.14818 0.70209 0.21952 0.0
C414 C 0.20176 0.68531 0.45778 0.0
C415 C 0.21123 0.72839 0.35258 0.0
C416 C 0.15013 0.71638 0.43212 0.0
C417 C 0.20383 0.67159 0.21882 0.0
O418 O 0.1625 0.66255 0.31966 0.0
O419 O 0.1496 0.63777 0.25482 0.0
O420 O 0.54716 0.06348 1.0006 0.0
Mn421 Mn 0.56596 0.05083 0.07558 0.0
O422 O 0.53031 0.03521 0.9575 0.0
Mn423 Mn 0.5485 0.01469 0.98754 0.0
O424 O 0.58355 0.03704 0.14831 0.0
O425 O 0.58098 0.07854 0.09273 0.0
Mn426 Mn 0.57786 0.08409 0.17411 0.0
O427 O 0.54084 0.05899 0.13857 0.0
O428 O 0.58975 0.0623 0.22024 0.0
O429 O 0.58969 0.04214 1.0092 0.0
O430 O 0.57495 0.01549 0.95274 0.0
O431 O 0.59383 0.10581 0.14477 0.0
O432 O 0.54973 0.08821 0.19151 0.0
C433 C 0.54996 0.00413 0.08393 0.0
C434 C 0.53347 0.0551 0.96215 0.0
C435 C 0.59043 0.04313 0.20219 0.0
C436 C 0.59216 0.09572 0.09198 0.0
C437 C 0.53634 0.07406 0.17748 0.0
C438 C 0.59038 0.02763 0.96609 0.0
O439 O 0.5526 0.02302 0.06427 0.0
O440 O 0.54333 0.99168 0.03977 0.0
O441 O 0.16786 0.29086 0.38233 0.0
Mn442 Mn 0.18385 0.31357 0.32381 0.0
O443 O 0.14746 0.30864 0.45002 0.0
Mn444 Mn 0.16103 0.33367 0.43472 0.0
O445 O 0.20035 0.33598 0.26509 0.0
O446 O 0.2041 0.29149 0.29631 0.0
Mn447 Mn 0.21364 0.29705 0.2205 0.0
O448 O 0.16497 0.30421 0.24633 0.0
O449 O 0.23038 0.31925 0.24435 0.0
O450 O 0.2049 0.32037 0.39865 0.0
O451 O 0.18664 0.33627 0.47542 0.0
O452 O 0.21475 0.26805 0.2303 0.0
O453 O 0.19041 0.30566 0.17314 0.0
C454 C 0.15099 0.35303 0.36123 0.0
C455 C 0.15429 0.29132 0.42804 0.0
C456 C 0.21961 0.33614 0.24342 0.0
C457 C 0.20439 0.27195 0.28133 0.0
C458 C 0.17129 0.30212 0.18872 0.0
C459 C 0.20372 0.32856 0.454 0.0
O460 O 0.16382 0.33712 0.35239 0.0
O461 O 0.14521 0.35672 0.41869 0.0
O462 O 0.94039 0.92906 0.47816 0.0
Mn463 Mn 0.92907 0.94633 0.55511 0.0
O464 O 0.92928 0.9529 0.40891 0.0
Mn465 Mn 0.93424 0.97683 0.45995 0.0
O466 O 0.91909 0.96606 0.62902 0.0
O467 O 0.90977 0.92205 0.58441 0.0
Mn468 Mn 0.91356 0.92113 0.66694 0.0
O469 O 0.95414 0.93621 0.61481 0.0
O470 O 0.90383 0.94573 0.70185 0.0
O471 O 0.9024 0.95804 0.50093 0.0
O472 O 0.91201 0.99088 0.49401 0.0
O473 O 0.89497 0.90022 0.65349 0.0
O474 O 0.94098 0.91457 0.68783 0.0
C475 C 0.96384 0.97382 0.48274 0.0
C476 C 0.93801 0.93518 0.42086 0.0
C477 C 0.90923 0.96374 0.68139 0.0
C478 C 0.89672 0.9064 0.59561 0.0
C479 C 0.95645 0.92444 0.66396 0.0
C480 C 0.89739 0.97757 0.49011 0.0
O481 O 0.9494 0.96969 0.52564 0.0
O482 O 0.95909 0.98712 0.43814 0.0
O483 O 0.33182 0.70621 0.74241 0.0
Mn484 Mn 0.31051 0.69845 0.81435 0.0
O485 O 0.30994 0.71132 0.66118 0.0
Mn486 Mn 0.28687 0.72061 0.70595 0.0
O487 O 0.28856 0.69156 0.88854 0.0
O488 O 0.32917 0.67433 0.84159 0.0
Mn489 Mn 0.33153 0.67358 0.92406 0.0
O490 O 0.32643 0.71882 0.87527 0.0
O491 O 0.30465 0.66946 0.9561 0.0
O492 O 0.29319 0.67837 0.75171 0.0
O493 O 0.26726 0.69966 0.71805 0.0
O494 O 0.34779 0.65149 0.89398 0.0
O495 O 0.34353 0.69927 0.94739 0.0
C496 C 0.29222 0.74291 0.78394 0.0
C497 C 0.32834 0.70858 0.68332 0.0
C498 C 0.2885 0.68007 0.93907 0.0
C499 C 0.34202 0.65848 0.83948 0.0
C500 C 0.33847 0.71711 0.92375 0.0
C501 C 0.27499 0.68124 0.72464 0.0
O502 O 0.29288 0.72262 0.78641 0.0
O503 O 0.28782 0.74896 0.72748 0.0
O504 O 0.42492 0.02936 0.63263 0.0
Mn505 Mn 0.43362 0.05132 0.56297 0.0
O506 O 0.40284 0.04539 0.70035 0.0
Mn507 Mn 0.41084 0.07229 0.67657 0.0
O508 O 0.44446 0.07183 0.49091 0.0
O509 O 0.45493 0.03184 0.53211 0.0
Mn510 Mn 0.45063 0.02501 0.45247 0.0
O511 O 0.41122 0.03577 0.50252 0.0
O512 O 0.43911 0.04876 0.41462 0.0
O513 O 0.45602 0.06448 0.62728 0.0
O514 O 0.43754 0.07997 0.7052 0.0
O515 O 0.47966 0.02761 0.4657 0.0
O516 O 0.42924 0.00695 0.47399 0.0
C517 C 0.39755 0.08597 0.59315 0.0
C518 C 0.41206 0.02895 0.67945 0.0
C519 C 0.44539 0.06681 0.43213 0.0
C520 C 0.47436 0.03478 0.52025 0.0
C521 C 0.41168 0.01658 0.48039 0.0
C522 C 0.45508 0.07422 0.68088 0.0
O523 O 0.412 0.07172 0.59391 0.0
O524 O 0.39134 0.09186 0.64843 0.0
O525 O 0.70699 0.65333 0.25311 0.0
Mn526 Mn 0.69546 0.67628 0.31917 0.0
O527 O 0.73904 0.665 0.2232 0.0
Mn528 Mn 0.73276 0.6927 0.23601 0.0
O529 O 0.68461 0.69877 0.38812 0.0
O530 O 0.66919 0.65848 0.33113 0.0
Mn531 Mn 0.66381 0.65774 0.41256 0.0
O532 O 0.71096 0.66019 0.39124 0.0
O533 O 0.65647 0.68455 0.43572 0.0
O534 O 0.68228 0.69418 0.24313 0.0
O535 O 0.7114 0.70418 0.18736 0.0
O536 O 0.6435 0.64104 0.3789 0.0
O537 O 0.68663 0.64684 0.45656 0.0
C538 C 0.73688 0.70353 0.33032 0.0
C539 C 0.72521 0.65052 0.22623 0.0
C540 C 0.66931 0.69974 0.42869 0.0
C541 C 0.65251 0.64663 0.3268 0.0
C542 C 0.70578 0.65027 0.44132 0.0
C543 C 0.69136 0.70364 0.19577 0.0
O544 O 0.72154 0.6925 0.31015 0.0
O545 O 0.75033 0.70856 0.28687 0.0
O546 O 0.08857 0.95683 1.01596 0.0
Mn547 Mn 0.0621 0.94806 0.07063 0.0
O548 O 0.07273 0.96957 0.93084 0.0
Mn549 Mn 0.04909 0.98011 0.97113 0.0
O550 O 0.03553 0.94085 0.13063 0.0
O551 O 0.07559 0.91932 0.08584 0.0
Mn552 Mn 0.06971 0.9119 0.16358 0.0
O553 O 0.0777 0.96005 0.15042 0.0
O554 O 0.0409 0.90862 0.16984 0.0
O555 O 0.04491 0.93589 0.9903 0.0
O556 O 0.02616 0.96361 0.95495 0.0
O557 O 0.08593 0.89041 0.13351 0.0
O558 O 0.08123 0.93235 0.21581 0.0
C559 C 0.05484 -0.00328 0.05842 0.0
C560 C 0.08933 0.96406 0.95963 0.0
C561 C 0.0292 0.92469 0.16305 0.0
C562 C 0.08618 0.90174 0.08282 0.0
C563 C 0.08307 0.95201 0.20379 0.0
C564 C 0.0299 0.94387 0.95565 0.0
O565 O 0.04985 0.9769 0.05404 0.0
O566 O 0.0534 0.00647 1.0052 0.0
O567 O 0.79198 0.34169 0.75102 0.0
Mn568 Mn 0.79519 0.31345 0.8072 0.0
O569 O 0.75824 0.34377 0.75573 0.0
Mn570 Mn 0.76319 0.31786 0.72111 0.0
O571 O 0.79843 0.28613 0.86544 0.0
O572 O 0.82421 0.3252 0.83319 0.0
Mn573 Mn 0.82587 0.32049 0.91515 0.0
O574 O 0.78036 0.32878 0.88101 0.0
O575 O 0.82508 0.29203 0.93234 0.0
O576 O 0.80812 0.29817 0.732 0.0
O577 O 0.78566 0.31262 0.66346 0.0
O578 O 0.85085 0.33297 0.89674 0.0
O579 O 0.80486 0.33592 0.95403 0.0
C580 C 0.75532 0.29067 0.73776 0.0
C581 C 0.77516 0.35279 0.74219 0.0
C582 C 0.81056 0.28015 0.91106 0.0
C583 C 0.8429 0.33373 0.84061 0.0
C584 C 0.78592 0.33669 0.93387 0.0
C585 C 0.80165 0.30081 0.67559 0.0
O586 O 0.76596 0.30034 0.78323 0.0
O587 O 0.74217 0.30116 0.70174 0.0
O588 O 0.41765 0.95593 0.0238 0.0
Mn589 Mn 0.43235 0.94406 0.10252 0.0
O590 O 0.41626 0.92992 0.95186 0.0
Mn591 Mn 0.42587 0.90833 1.00521 0.0
O592 O 0.44756 0.93519 0.18636 0.0
O593 O 0.44391 0.97336 0.11798 0.0
Mn594 Mn 0.42975 0.98358 0.18047 0.0
O595 O 0.40541 0.95001 0.15942 0.0
O596 O 0.43701 0.96372 0.24361 0.0
O597 O 0.45867 0.93765 0.04147 0.0
O598 O 0.45479 0.90504 1.00363 0.0
O599 O 0.44996 0.00336 0.16675 0.0
O600 O 0.40252 0.98395 0.1512 0.0
C601 C 0.40857 0.89809 0.08547 0.0
C602 C 0.41462 0.94935 0.96759 0.0
C603 C 0.44658 0.94575 0.23886 0.0
C604 C 0.45778 0.9867 0.13944 0.0
C605 C 0.39487 0.96692 0.1712 0.0
C606 C 0.4658 0.92162 1.01005 0.0
O607 O 0.41951 0.9154 0.08356 0.0
O608 O 0.40904 0.88691 0.03448 0.0
O609 O 0.79175 0.64925 0.91462 0.0
Mn610 Mn 0.80062 0.67527 0.85535 0.0
O611 O 0.75768 0.65437 0.9264 0.0
Mn612 Mn 0.76382 0.68177 0.94541 0.0
O613 O 0.81018 0.7012 0.79559 0.0
O614 O 0.82696 0.65782 0.83186 0.0
Mn615 Mn 0.82808 0.66034 0.74846 0.0
O616 O 0.78342 0.66258 0.78075 0.0
O617 O 0.83353 0.68774 0.72714 0.0
O618 O 0.81399 0.68998 0.93609 0.0
O619 O 0.78556 0.68881 1.00167 0.0
O620 O 0.85034 0.64383 0.76561 0.0
O621 O 0.80477 0.64891 0.70855 0.0
C622 C 0.75874 0.70399 0.87429 0.0
C623 C 0.77342 0.64241 0.93205 0.0
C624 C 0.82319 0.70329 0.74863 0.0
C625 C 0.84384 0.64615 0.82303 0.0
C626 C 0.78634 0.65323 0.72817 0.0
C627 C 0.80489 0.69382 0.99002 0.0
O628 O 0.77416 0.69088 0.87496 0.0
O629 O 0.74538 0.70216 0.92007 0.0
O630 O 0.09509 0.03615 0.65679 0.0
Mn631 Mn 0.06902 0.04378 0.59891 0.0
O632 O 0.07812 0.02057 0.73629 0.0
Mn633 Mn 0.05585 0.0092 0.69152 0.0
O634 O 0.04209 0.04877 0.54072 0.0
O635 O 0.081 0.07374 0.58516 0.0
Mn636 Mn 0.07367 0.07916 0.50593 0.0
O637 O 0.08637 0.03315 0.52021 0.0
O638 O 0.0449 0.07982 0.49316 0.0
O639 O 0.05009 0.05398 0.67858 0.0
O640 O 0.03189 0.0246 0.70162 0.0
O641 O 0.0871 0.10287 0.52943 0.0
O642 O 0.0875 0.06051 0.45356 0.0
C643 C 0.06281 0.99486 0.60093 0.0
C644 C 0.0949 0.02778 0.71195 0.0
C645 C 0.0344 0.06329 0.50509 0.0
C646 C 0.08958 0.09258 0.58162 0.0
C647 C 0.09092 0.04118 0.46617 0.0
C648 C 0.03445 0.04445 0.70685 0.0
O649 O 0.05819 0.01438 0.6107 0.0
O650 O 0.06127 0.98381 0.65172 0.0
O651 O 0.71057 0.34334 0.40841 0.0
Mn652 Mn 0.69931 0.31956 0.3455 0.0
O653 O 0.73482 0.3275 0.47026 0.0
Mn654 Mn 0.73476 0.30129 0.43534 0.0
O655 O 0.68788 0.29552 0.27992 0.0
O656 O 0.67291 0.33792 0.33151 0.0
Mn657 Mn 0.66791 0.33593 0.24989 0.0
O658 O 0.71452 0.33487 0.27262 0.0
O659 O 0.66023 0.30917 0.22905 0.0
O660 O 0.68581 0.30227 0.42222 0.0
O661 O 0.71347 0.28416 0.46527 0.0
O662 O 0.64736 0.35326 0.27513 0.0
O663 O 0.69025 0.34672 0.20489 0.0
C664 C 0.7458 0.30232 0.33894 0.0
C665 C 0.72464 0.34366 0.4526 0.0
C666 C 0.67259 0.29388 0.23906 0.0
C667 C 0.65633 0.3503 0.32929 0.0
C668 C 0.70935 0.34413 0.22155 0.0
C669 C 0.69371 0.2884 0.461 0.0
O670 O 0.72638 0.30366 0.35745 0.0
O671 O 0.75823 0.29708 0.38452 0.0
H672 H 0.08976 0.49105 0.21679 0.0
H673 H 0.08754 0.43795 0.34234 0.0
H674 H 0.08681 0.46161 0.43264 0.0
H675 H 0.07638 0.49723 0.47223 0.0
H676 H 0.0805 0.55033 0.34662 0.0
H677 H 0.09104 0.52716 0.26088 0.0
C678 C 0.09074 0.48461 0.26395 0.0
C679 C 0.08834 0.46267 0.27249 0.0
C680 C 0.08958 0.49849 0.31599 0.0
C681 C 0.0895 0.45473 0.3342 0.0
C682 C 0.08842 0.46835 0.38611 0.0
C683 C 0.08058 0.50384 0.42692 0.0
C684 C 0.07705 0.5255 0.41551 0.0
C685 C 0.08689 0.49027 0.37727 0.0
C686 C 0.08246 0.53371 0.35634 0.0
C687 C 0.08857 0.5204 0.30706 0.0
H688 H 0.70936 0.85393 0.58003 0.0
H689 H 0.74829 0.86565 0.7422 0.0
H690 H 0.77756 0.87614 0.67445 0.0
H691 H 0.79465 0.86961 0.57187 0.0
H692 H 0.75612 0.85561 0.41025 0.0
H693 H 0.72423 0.85907 0.47385 0.0
C694 C 0.72375 0.86026 0.60057 0.0
C695 C 0.72671 0.85855 0.6662 0.0
C696 C 0.74097 0.8651 0.56084 0.0
C697 C 0.74546 0.86677 0.69207 0.0
C698 C 0.76249 0.87225 0.65301 0.0
C699 C 0.77922 0.8688 0.54959 0.0
C700 C 0.77792 0.8619 0.48648 0.0
C701 C 0.7609 0.86976 0.58751 0.0
C702 C 0.75776 0.86088 0.45848 0.0
C703 C 0.73942 0.86236 0.49543 0.0
H704 H 0.41068 0.5408 0.84192 0.0
H705 H 0.42232 0.50774 0.66849 0.0
H706 H 0.42979 0.47526 0.72701 0.0
H707 H 0.43939 0.45832 0.82877 0.0
H708 H 0.42578 0.49142 1.00135 0.0
H709 H 0.41302 0.52178 0.94214 0.0
C710 C 0.41386 0.52623 0.81674 0.0
C711 C 0.41614 0.52682 0.75092 0.0
C712 C 0.41861 0.50778 0.8508 0.0
C713 C 0.42039 0.5078 0.71905 0.0
C714 C 0.42509 0.48929 0.75266 0.0
C715 C 0.43326 0.47204 0.85326 0.0
C716 C 0.43392 0.4727 0.91949 0.0
C717 C 0.42536 0.48942 0.81872 0.0
C718 C 0.42561 0.49049 0.95053 0.0
C719 C 0.41827 0.50791 0.91667 0.0
H720 H 0.74088 0.1166 0.20046 0.0
H721 H 0.80237 0.14063 0.14929 0.0
H722 H 0.79171 0.14147 0.03934 0.0
H723 H 0.76205 0.14665 0.96689 0.0
H724 H 0.69871 0.13132 0.0252 0.0
H725 H 0.71258 0.11544 0.12176 0.0
C726 C 0.7523 0.12112 0.16483 0.0
C727 C 0.77221 0.12923 0.18377 0.0
C728 C 0.74527 0.12371 0.10261 0.0
C729 C 0.78692 0.13457 0.13685 0.0
C730 C 0.78062 0.13545 0.07377 0.0
C731 C 0.75143 0.13871 0.99928 0.0
C732 C 0.72939 0.14011 0.98918 0.0
C733 C 0.75939 0.1317 0.05722 0.0
C734 C 0.71568 0.13018 0.03156 0.0
C735 C 0.72366 0.12152 0.08741 0.0
H736 H 0.8964 0.54974 0.84541 0.0
H737 H 0.90727 0.50693 0.99906 0.0
H738 H 0.9063 0.47698 0.92648 0.0
H739 H 0.912 0.46457 0.81725 0.0
H740 H 0.90476 0.50826 0.664 0.0
H741 H 0.89425 0.53603 0.73759 0.0
C742 C 0.89731 0.53374 0.86343 0.0
C743 C 0.90187 0.53068 0.92774 0.0
C744 C 0.89795 0.51669 0.82073 0.0
C745 C 0.9034 0.50984 0.95023 0.0
C746 C 0.90332 0.49268 0.90827 0.0
C747 C 0.90693 0.47984 0.7998 0.0
C748 C 0.90875 0.48421 0.73494 0.0
C749 C 0.90196 0.49608 0.84304 0.0
C750 C 0.90298 0.50433 0.71326 0.0
C751 C 0.89729 0.52032 0.75561 0.0
H752 H 0.20419 0.15122 0.58036 0.0
H753 H 0.23954 0.15331 0.75327 0.0
H754 H 0.27241 0.14757 0.69554 0.0
H755 H 0.29129 0.1513 0.59434 0.0
H756 H 0.25568 0.14898 0.42149 0.0
H757 H 0.22293 0.14512 0.48041 0.0
C758 C 0.21894 0.14909 0.6057 0.0
C759 C 0.21933 0.15265 0.67107 0.0
C760 C 0.23792 0.14642 0.57185 0.0
C761 C 0.23865 0.15026 0.70321 0.0
C762 C 0.25758 0.14745 0.66993 0.0
C763 C 0.27647 0.14892 0.56958 0.0
C764 C 0.27605 0.15071 0.50358 0.0
C765 C 0.25749 0.14685 0.60395 0.0
C766 C 0.25665 0.14761 0.47215 0.0
C767 C 0.23777 0.14566 0.50595 0.0
H768 H 0.57193 0.47882 0.19496 0.0
H769 H 0.56804 0.53734 0.29743 0.0
H770 H 0.57588 0.51881 0.39545 0.0
H771 H 0.57542 0.48471 0.4536 0.0
H772 H 0.58202 0.42661 0.35047 0.0
H773 H 0.58251 0.44611 0.25172 0.0
C774 C 0.57393 0.48768 0.23818 0.0
C775 C 0.5695 0.50955 0.23843 0.0
C776 C 0.57875 0.47686 0.29478 0.0
C777 C 0.57172 0.52064 0.29541 0.0
C778 C 0.57596 0.50995 0.35186 0.0
C779 C 0.5785 0.47641 0.40991 0.0
C780 C 0.57871 0.45406 0.40994 0.0
C781 C 0.57848 0.48788 0.3526 0.0
C782 C 0.58211 0.44371 0.35229 0.0
C783 C 0.58189 0.4549 0.29539 0.0
H784 H 0.28458 0.82422 0.13133 0.0
H785 H 0.23107 0.82152 0.25595 0.0
H786 H 0.20702 0.827 0.16747 0.0
H787 H 0.2013 0.82222 0.05384 0.0
H788 H 0.25488 0.82015 0.92946 0.0
H789 H 0.27872 0.82741 0.01735 0.0
C790 C 0.26775 0.82613 0.13949 0.0
C791 C 0.25965 0.82273 0.20036 0.0
C792 C 0.25393 0.82787 0.08757 0.0
C793 C 0.23772 0.82448 0.20987 0.0
C794 C 0.22393 0.82723 0.15895 0.0
C795 C 0.21806 0.8247 0.04555 0.0
C796 C 0.22628 0.82099 0.98504 0.0
C797 C 0.23179 0.82753 0.09724 0.0
C798 C 0.24813 0.82341 0.97527 0.0
C799 C 0.26182 0.82717 0.02589 0.0
H800 H 0.61502 0.99352 0.94703 0.0
H801 H 0.60251 0.05613 0.87853 0.0
H802 H 0.60677 0.04384 0.7706 0.0
H803 H 0.6015 0.01352 0.69968 0.0
H804 H 0.60902 0.95023 0.77017 0.0
H805 H 0.6199 0.96425 0.87215 0.0
C806 C 0.61476 0.00475 0.90855 0.0
C807 C 0.60789 0.02561 0.92071 0.0
C808 C 0.61548 -0.00294 0.84638 0.0
C809 C 0.60768 0.04002 0.87067 0.0
C810 C 0.60952 0.03279 0.80859 0.0
C811 C 0.60679 0.00281 0.73627 0.0
C812 C 0.60412 0.98082 0.72749 0.0
C813 C 0.6116 0.01105 0.79613 0.0
C814 C 0.61094 0.96715 0.77531 0.0
C815 C 0.61675 0.97523 0.83428 0.0
H816 H 0.23414 0.3498 0.96431 0.0
H817 H 0.29901 0.35051 0.02689 0.0
H818 H 0.28735 0.35601 0.13476 0.0
H819 H 0.25866 0.35087 0.21241 0.0
H820 H 0.19379 0.3505 0.14993 0.0
H821 H 0.20541 0.35536 0.04159 0.0
C822 C 0.24579 0.35237 1.00099 0.0
C823 C 0.26746 0.34915 0.9872 0.0
C824 C 0.23889 0.35516 0.06361 0.0
C825 C 0.28227 0.35262 0.03554 0.0
C826 C 0.27556 0.35549 0.09781 0.0
C827 C 0.24701 0.35309 0.17554 0.0
C828 C 0.22535 0.35004 0.18958 0.0
C829 C 0.25389 0.35538 0.11277 0.0
C830 C 0.21051 0.35283 0.14102 0.0
C831 C 0.21721 0.35525 0.07857 0.0
H832 H 0.86975 0.99106 0.21953 0.0
H833 H 0.88617 0.05464 0.27426 0.0
H834 H 0.88172 0.04508 0.38457 0.0
H835 H 0.8834 0.01685 0.46303 0.0
H836 H 0.87675 0.9519 0.40486 0.0
H837 H 0.86652 0.96357 0.29971 0.0
C838 C 0.87167 0.00309 0.25548 0.0
C839 C 0.87887 0.02349 0.23821 0.0
C840 C 0.87128 -0.00312 0.31888 0.0
C841 C 0.88082 0.03886 0.28553 0.0
C842 C 0.87861 0.03324 0.34893 0.0
C843 C 0.87889 0.00522 0.428 0.0
C844 C 0.88134 0.98345 0.44177 0.0
C845 C 0.87535 0.012 0.36598 0.0
C846 C 0.87513 0.96867 0.39607 0.0
C847 C 0.86967 0.97539 0.33536 0.0
H848 H 0.24351 0.67504 0.46244 0.0
H849 H 0.18448 0.66695 0.56042 0.0
H850 H 0.20336 0.65866 0.65714 0.0
H851 H 0.23631 0.66311 0.71765 0.0
H852 H 0.29556 0.66925 0.6199 0.0
H853 H 0.2772 0.66792 0.51908 0.0
C854 C 0.23485 0.67046 0.50426 0.0
C855 C 0.21265 0.67221 0.50506 0.0
C856 C 0.24591 0.66548 0.55991 0.0
C857 C 0.20156 0.66633 0.55933 0.0
C858 C 0.21238 0.66151 0.61469 0.0
C859 C 0.24532 0.6626 0.67427 0.0
C860 C 0.26722 0.66652 0.67625 0.0
C861 C 0.23454 0.66232 0.61639 0.0
C862 C 0.2787 0.66609 0.61967 0.0
C863 C 0.26811 0.66586 0.56181 0.0
H864 H 0.40223 0.97589 0.45426 0.0
H865 H 0.38516 0.03974 0.40592 0.0
H866 H 0.37171 0.0276 0.30454 0.0
H867 H 0.37431 0.00084 0.22113 0.0
H868 H 0.39489 0.93772 0.26723 0.0
H869 H 0.39673 0.94732 0.37773 0.0
C870 C 0.39459 0.98699 0.42273 0.0
C871 C 0.39496 0.00875 0.43736 0.0
C872 C 0.38796 0.98002 0.36314 0.0
C873 C 0.38503 0.02295 0.39617 0.0
C874 C 0.37765 0.01601 0.33755 0.0
C875 C 0.37827 0.98887 0.25564 0.0
C876 C 0.38524 0.96879 0.23508 0.0
C877 C 0.38039 0.99485 0.31907 0.0
C878 C 0.38979 0.9534 0.28086 0.0
C879 C 0.39116 0.95899 0.34438 0.0
H880 H 0.73818 0.6206 0.96296 0.0
H881 H 0.8024 0.63165 0.02297 0.0
H882 H 0.79176 0.62676 0.13217 0.0
H883 H 0.76299 0.63198 0.20776 0.0
H884 H 0.69821 0.63043 0.14488 0.0
H885 H 0.70983 0.61839 0.04127 0.0
C886 C 0.75006 0.62085 0.99983 0.0
C887 C 0.77095 0.62721 0.98479 0.0
C888 C 0.74332 0.62046 0.0628 0.0
C889 C 0.78621 0.62707 0.03278 0.0
C890 C 0.77997 0.62474 0.09562 0.0
C891 C 0.75135 0.62794 0.17219 0.0
C892 C 0.72978 0.63257 0.18352 0.0
C893 C 0.75835 0.6233 0.11105 0.0
C894 C 0.71484 0.62709 0.13756 0.0
C895 C 0.7216 0.62064 0.07772 0.0
H896 H 0.11086 0.95364 0.85323 0.0
H897 H 0.10858 -0.00131 1.00453 0.0
H898 H 0.11762 0.02707 0.93227 0.0
H899 H 0.11325 0.03931 0.82262 0.0
H900 H 0.11722 0.99431 0.67169 0.0
H901 H 0.1215 0.96569 0.74687 0.0
C902 C 0.11397 0.96937 0.87124 0.0
C903 C 0.10853 0.97409 0.93393 0.0
C904 C 0.11883 0.98579 0.82882 0.0
C905 C 0.11264 0.99458 0.95656 0.0
C906 C 0.11732 0.011 0.91475 0.0
C907 C 0.11678 0.0235 0.80599 0.0
C908 C 0.11397 0.01887 0.74171 0.0
C909 C 0.11869 0.00695 0.85003 0.0
C910 C 0.11897 -0.00165 0.72095 0.0
C911 C 0.12081 0.98177 0.76423 0.0
H912 H 0.76315 0.36039 0.46302 0.0
H913 H 0.69924 0.36737 0.52922 0.0
H914 H 0.71246 0.37959 0.63108 0.0
H915 H 0.74114 0.3762 0.70806 0.0
H916 H 0.80371 0.35887 0.64566 0.0
H917 H 0.79273 0.36359 0.53674 0.0
C918 C 0.75216 0.36585 0.49871 0.0
C919 C 0.73024 0.36274 0.48893 0.0
C920 C 0.75994 0.37023 0.55924 0.0
C921 C 0.71611 0.36969 0.53527 0.0
C922 C 0.72376 0.37614 0.5942 0.0
C923 C 0.75267 0.37435 0.67068 0.0
C924 C 0.77311 0.3665 0.68539 0.0
C925 C 0.74554 0.3747 0.60803 0.0
C926 C 0.7879 0.36466 0.6364 0.0
C927 C 0.78143 0.36696 0.57372 0.0
H928 H 0.15268 0.34584 0.23564 0.0
H929 H 0.12971 0.38983 0.37487 0.0
H930 H 0.10966 0.40864 0.29518 0.0
H931 H 0.09575 0.41043 0.18811 0.0
H932 H 0.11863 0.36633 0.04895 0.0
H933 H 0.14138 0.34973 0.12642 0.0
C934 C 0.14357 0.35973 0.24816 0.0
C935 C 0.14236 0.36619 0.3108 0.0
C936 C 0.13175 0.37031 0.2024 0.0
C937 C 0.13063 0.38434 0.32672 0.0
C938 C 0.11909 0.39511 0.28136 0.0
C939 C 0.10586 0.39736 0.17474 0.0
C940 C 0.10537 0.38957 0.11333 0.0
C941 C 0.119 0.38785 0.21941 0.0
C942 C 0.11863 0.37262 0.09631 0.0
C943 C 0.13171 0.36307 0.14045 0.0
H944 H 0.90285 0.90537 0.46888 0.0
H945 H 0.86168 0.88312 0.61639 0.0
H946 H 0.84291 0.86065 0.54253 0.0
H947 H 0.84002 0.84494 0.43772 0.0
H948 H 0.88133 0.86693 0.2902 0.0
H949 H 0.89819 0.89152 0.3621 0.0
C950 C 0.88958 0.89585 0.48439 0.0
C951 C 0.88387 0.89569 0.54777 0.0
C952 C 0.87901 0.88258 0.44191 0.0
C953 C 0.8666 0.8833 0.56762 0.0
C954 C 0.85583 0.87037 0.52558 0.0
C955 C 0.85253 0.85526 0.42135 0.0
C956 C 0.85945 0.85399 0.35914 0.0
C957 C 0.86224 0.86946 0.46291 0.0
C958 C 0.87581 0.86741 0.33836 0.0
C959 C 0.88546 0.8816 0.37926 0.0
H960 H 0.35058 0.61766 0.81406 0.0
H961 H 0.35827 0.6805 0.74196 0.0
H962 H 0.37512 0.66695 0.64765 0.0
H963 H 0.38962 0.63717 0.58863 0.0
H964 H 0.38732 0.57459 0.66711 0.0
H965 H 0.36727 0.58784 0.75763 0.0
C966 C 0.35566 0.62826 0.77698 0.0
C967 C 0.35147 0.64999 0.7818 0.0
C968 C 0.36694 0.62032 0.72536 0.0
C969 C 0.35905 0.6637 0.73552 0.0
C970 C 0.36949 0.65593 0.68282 0.0
C971 C 0.38467 0.62649 0.62567 0.0
C972 C 0.38993 0.60505 0.62209 0.0
C973 C 0.37355 0.63429 0.6774 0.0
C974 C 0.38375 0.59125 0.67011 0.0
C975 C 0.37212 0.5988 0.72129 0.0
H976 H 0.66449 0.12954 0.92018 0.0
H977 H 0.61604 0.17519 0.8778 0.0
H978 H 0.59123 0.157 0.94682 0.0
H979 H 0.58296 0.12744 1.01599 0.0
H980 H 0.63068 0.08123 0.0587 0.0
H981 H 0.65624 0.09995 0.99202 0.0
C982 C 0.64878 0.13587 0.92845 0.0
C983 C 0.64215 0.15396 0.89622 0.0
C984 C 0.63433 0.12477 0.96599 0.0
C985 C 0.62153 0.16167 0.90442 0.0
C986 C 0.60725 0.15105 0.94262 0.0
C987 C 0.59877 0.12118 1.00869 0.0
C988 C 0.60486 0.10267 0.03918 0.0
C989 C 0.61333 0.13234 0.97232 0.0
C990 C 0.62556 0.095 0.03261 0.0
C991 C 0.64022 0.10593 0.99583 0.0
H992 H 0.10372 0.57973 0.4832 0.0
H993 H 0.10664 0.63207 0.61249 0.0
H994 H 0.12594 0.6532 0.53584 0.0
H995 H 0.14271 0.65666 0.43201 0.0
H996 H 0.14106 0.60349 0.30491 0.0
H997 H 0.12107 0.58293 0.38046 0.0
C998 C 0.10831 0.59586 0.49382 0.0
C999 C 0.1037 0.60443 0.55271 0.0
C1000 C 0.12003 0.60773 0.4503 0.0
C1001 C 0.11003 0.62522 0.5669 0.0
C1002 C 0.12118 0.63728 0.52339 0.0
C1003 C 0.13823 0.6405 0.42143 0.0
C1004 C 0.14332 0.63172 0.36299 0.0
C1005 C 0.12656 0.62862 0.46514 0.0
C1006 C 0.13726 0.61074 0.34963 0.0
C1007 C 0.12571 0.59891 0.39263 0.0
H1008 H 0.62259 0.87142 0.57426 0.0
H1009 H 0.5907 0.91591 0.69513 0.0
H1010 H 0.60775 0.90032 0.7869 0.0
H1011 H 0.63129 0.87376 0.83178 0.0
H1012 H 0.66426 0.83013 0.71061 0.0
H1013 H 0.64732 0.84591 0.61869 0.0
C1014 C 0.61936 0.87774 0.62068 0.0
C1015 C 0.60517 0.89462 0.62834 0.0
C1016 C 0.62947 0.86892 0.67258 0.0
C1017 C 0.60125 0.90273 0.68846 0.0
C1018 C 0.6111 0.89389 0.74072 0.0
C1019 C 0.63483 0.86774 0.78518 0.0
C1020 C 0.64882 0.85071 0.77751 0.0
C1021 C 0.62516 0.87695 0.73316 0.0
C1022 C 0.65354 0.84321 0.71724 0.0
C1023 C 0.6438 0.85218 0.66494 0.0
H1024 H 0.36933 0.38455 0.09157 0.0
H1025 H 0.4116 0.4198 0.97199 0.0
H1026 H 0.39708 0.40172 0.87957 0.0
H1027 H 0.3727 0.37538 0.83388 0.0
H1028 H 0.32972 0.34159 0.95435 0.0
H1029 H 0.34409 0.35974 0.04603 0.0
C1030 C 0.37535 0.38846 0.0453 0.0
C1031 C 0.39193 0.4032 0.0388 0.0
C1032 C 0.36677 0.3782 0.99286 0.0
C1033 C 0.39937 0.40808 0.97847 0.0
C1034 C 0.39091 0.39786 0.92565 0.0
C1035 C 0.36643 0.37199 0.8802 0.0
C1036 C 0.35028 0.35677 0.88753 0.0
C1037 C 0.37473 0.38274 0.93247 0.0
C1038 C 0.3423 0.35278 0.94768 0.0
C1039 C 0.35048 0.36331 0.99999 0.0
H1040 H 0.86803 0.12543 0.33663 0.0
H1041 H 0.83219 0.16303 0.2054 0.0
H1042 H 0.84845 0.14383 0.11747 0.0
H1043 H 0.87551 0.11902 0.07939 0.0
H1044 H 0.91174 0.0821 0.21146 0.0
H1045 H 0.89242 0.09832 0.29874 0.0
C1046 C 0.86363 0.1293 0.28871 0.0
C1047 C 0.8492 0.14575 0.27693 0.0
C1048 C 0.87316 0.11842 0.23918 0.0
C1049 C 0.84328 0.15041 0.21513 0.0
C1050 C 0.85267 0.13954 0.16515 0.0
C1051 C 0.87901 0.11438 0.12733 0.0
C1052 C 0.89509 0.09953 0.13946 0.0
C1053 C 0.86803 0.12393 0.17679 0.0
C1054 C 0.89935 0.0934 0.20133 0.0
C1055 C 0.88842 0.10278 0.25103 0.0
H1056 H 0.90254 0.59149 0.99618 0.0
H1057 H 0.86826 0.62522 0.14003 0.0
H1058 H 0.84663 0.64249 0.06078 0.0
H1059 H 0.83859 0.64948 0.94987 0.0
H1060 H 0.87329 0.6157 0.80667 0.0
H1061 H 0.89327 0.59693 0.88616 0.0
C1062 C 0.89024 0.60246 1.01006 0.0
C1063 C 0.88711 0.60712 0.0735 0.0
C1064 C 0.87788 0.61245 0.96435 0.0
C1065 C 0.87107 0.62141 0.09112 0.0
C1066 C 0.85865 0.63134 0.04595 0.0
C1067 C 0.85043 0.63794 0.93632 0.0
C1068 C 0.85462 0.63425 0.87278 0.0
C1069 C 0.8621 0.62721 0.98231 0.0
C1070 C 0.86993 0.61911 0.85554 0.0
C1071 C 0.8814 0.60828 0.90086 0.0
H1072 H 0.08545 0.09364 0.7088 0.0
H1073 H 0.12636 0.11212 0.55663 0.0
H1074 H 0.14801 0.13313 0.62811 0.0
H1075 H 0.15371 0.14869 0.7331 0.0
H1076 H 0.1116 0.13089 0.88388 0.0
H1077 H 0.09224 0.10765 0.81434 0.0
C1078 C 0.0994 0.10188 0.69193 0.0
C1079 C 0.10436 0.10137 0.62806 0.0
C1080 C 0.11144 0.11451 0.7329 0.0
C1081 C 0.12226 0.11237 0.60607 0.0
C1082 C 0.1346 0.1245 0.64672 0.0
C1083 C 0.14035 0.1397 0.75056 0.0
C1084 C 0.13416 0.14172 0.81349 0.0
C1085 C 0.12902 0.12617 0.71007 0.0
C1086 C 0.1168 0.1298 0.83552 0.0
C1087 C 0.10563 0.11635 0.79585 0.0
H1088 H 0.65498 0.33856 0.45122 0.0
H1089 H 0.63975 0.38925 0.32375 0.0
H1090 H 0.61868 0.40663 0.40412 0.0
H1091 H 0.60174 0.40561 0.50705 0.0
H1092 H 0.61683 0.35506 0.63518 0.0
H1093 H 0.64057 0.33932 0.55817 0.0
C1094 C 0.6475 0.35367 0.44203 0.0
C1095 C 0.64858 0.36255 0.38226 0.0
C1096 C 0.63498 0.36335 0.48788 0.0
C1097 C 0.63882 0.38208 0.36989 0.0
C1098 C 0.62668 0.39197 0.41546 0.0
C1099 C 0.61021 0.39116 0.51777 0.0
C1100 C 0.60745 0.38134 0.57573 0.0
C1101 C 0.62404 0.38236 0.47385 0.0
C1102 C 0.61874 0.36281 0.59019 0.0
C1103 C 0.63236 0.35383 0.54647 0.0
H1104 H 0.33897 0.88216 0.29115 0.0
H1105 H 0.36196 0.81865 0.26848 0.0
H1106 H 0.38652 0.83025 0.18736 0.0
H1107 H 0.4033 0.85901 0.12884 0.0
H1108 H 0.37997 0.92244 0.14896 0.0
H1109 H 0.35463 0.91084 0.22819 0.0
C1110 C 0.34899 0.87086 0.26697 0.0
C1111 C 0.34785 0.84938 0.28273 0.0
C1112 C 0.36379 0.8779 0.22275 0.0
C1113 C 0.36139 0.8349 0.25336 0.0
C1114 C 0.37594 0.84169 0.20854 0.0
C1115 C 0.39282 0.87029 0.15137 0.0
C1116 C 0.39447 0.89182 0.1368 0.0
C1117 C 0.37753 0.8632 0.19385 0.0
C1118 C 0.38033 0.90621 0.16396 0.0
C1119 C 0.36532 0.89939 0.20754 0.0
H1120 H 0.90737 0.38553 0.67732 0.0
H1121 H 0.8495 0.41162 0.60411 0.0
H1122 H 0.82874 0.38961 0.67541 0.0
H1123 H 0.82711 0.36116 0.75404 0.0
H1124 H 0.88504 0.3343 0.82453 0.0
H1125 H 0.90574 0.35808 0.7586 0.0
C1126 C 0.89027 0.38688 0.6788 0.0
C1127 C 0.87992 0.40041 0.63693 0.0
C1128 C 0.87843 0.37344 0.71769 0.0
C1129 C 0.85772 0.40152 0.63718 0.0
C1130 C 0.84585 0.3887 0.67706 0.0
C1131 C 0.84418 0.36008 0.75329 0.0
C1132 C 0.85451 0.34553 0.79221 0.0
C1133 C 0.85601 0.3741 0.71611 0.0
C1134 C 0.87676 0.34507 0.79353 0.0
C1135 C 0.88862 0.35881 0.75649 0.0
H1136 H 0.36614 0.11692 0.32883 0.0
H1137 H 0.33566 0.16316 0.44621 0.0
H1138 H 0.34996 0.14656 0.53974 0.0
H1139 H 0.37196 0.11952 0.58748 0.0
H1140 H 0.40314 0.07326 0.47125 0.0
H1141 H 0.38811 0.08938 0.37714 0.0
C1142 C 0.36253 0.12329 0.37494 0.0
C1143 C 0.34951 0.14117 0.38095 0.0
C1144 C 0.37121 0.11376 0.42826 0.0
C1145 C 0.34513 0.14927 0.44066 0.0
C1146 C 0.35352 0.13985 0.49406 0.0
C1147 C 0.37545 0.11292 0.54156 0.0
C1148 C 0.38878 0.09534 0.53596 0.0
C1149 C 0.36666 0.12218 0.48827 0.0
C1150 C 0.39318 0.08695 0.47642 0.0
C1151 C 0.38448 0.09611 0.42274 0.0
H1152 H 0.58794 0.61974 0.12432 0.0
H1153 H 0.61999 0.56034 0.14829 0.0
H1154 H 0.64499 0.57679 0.22187 0.0
H1155 H 0.65741 0.6083 0.27862 0.0
H1156 H 0.62573 0.66779 0.25244 0.0
H1157 H 0.60097 0.65138 0.17843 0.0
C1158 C 0.6 0.61037 0.14757 0.0
C1159 C 0.60179 0.58883 0.13393 0.0
C1160 C 0.6147 0.62013 0.18694 0.0
C1161 C 0.61793 0.57678 0.16112 0.0
C1162 C 0.63242 0.58627 0.20176 0.0
C1163 C 0.64557 0.6177 0.2545 0.0
C1164 C 0.64364 0.63921 0.26829 0.0
C1165 C 0.6311 0.60799 0.21418 0.0
C1166 C 0.62785 0.65135 0.23969 0.0
C1167 C 0.61347 0.64188 0.19882 0.0
H1168 H 0.12871 0.87576 0.82794 0.0
H1169 H 0.15793 0.82941 0.94882 0.0
H1170 H 0.14056 0.84542 0.04001 0.0
H1171 H 0.11545 0.87099 0.08315 0.0
H1172 H 0.08538 0.91661 0.96177 0.0
H1173 H 0.10511 0.90251 0.87191 0.0
C1174 C 0.13148 0.86919 0.87428 0.0
C1175 C 0.14438 0.85119 0.88169 0.0
C1176 C 0.12129 0.87832 0.92585 0.0
C1177 C 0.1479 0.84305 0.94195 0.0
C1178 C 0.13797 0.85221 0.99393 0.0
C1179 C 0.11324 0.87796 0.03707 0.0
C1180 C 0.09891 0.89479 0.02877 0.0
C1181 C 0.12434 0.86957 0.98606 0.0
C1182 C 0.0964 0.90377 0.96915 0.0
C1183 C 0.10758 0.89562 0.91793 0.0
H1184 H 0.97836 0.53167 0.13307 0.0
H1185 H 0.94961 0.47982 0.03583 0.0
H1186 H 0.98448 0.46396 1.01653 0.0
H1187 H 0.02332 0.4684 1.01604 0.0
H1188 H 0.05164 0.51954 0.11371 0.0
H1189 H 0.01706 0.53699 0.12633 0.0
C1190 C 0.97981 0.51669 0.10852 0.0
C1191 C 0.96251 0.50848 0.07584 0.0
C1192 C -0.0003 0.50997 0.08938 0.0
C1193 C 0.96357 0.48746 0.05482 0.0
C1194 C 0.98338 0.47909 0.04022 0.0
C1195 C 0.0217 0.48359 0.03919 0.0
C1196 C 0.03769 0.49058 0.07946 0.0
C1197 C 0.0015 0.49103 0.05373 0.0
C1198 C 0.03768 0.51221 0.09379 0.0
C1199 C 0.01799 0.52169 0.10363 0.0
H1200 H 0.77754 0.77239 0.33568 0.0
H1201 H 0.71707 0.80226 0.36229 0.0
H1202 H 0.70077 0.76704 0.37381 0.0
H1203 H 0.70655 0.72839 0.38698 0.0
H1204 H 0.76906 0.70492 0.41792 0.0
H1205 H 0.78383 0.73953 0.39195 0.0
C1206 C 0.76079 0.77154 0.34437 0.0
C1207 C 0.74893 0.79002 0.35228 0.0
C1208 C 0.75307 0.75317 0.37029 0.0
C1209 C 0.72681 0.78826 0.35789 0.0
C1210 C 0.71774 0.76838 0.36816 0.0
C1211 C 0.72323 0.73093 0.39239 0.0
C1212 C 0.73739 0.71387 0.39128 0.0
C1213 C 0.73107 0.75092 0.37806 0.0
C1214 C 0.7583 0.71793 0.40937 0.0
C1215 C 0.76682 0.7373 0.39158 0.0
H1216 H 0.53851 0.49863 0.5689 0.0
H1217 H 0.51719 0.4489 0.68655 0.0
H1218 H 0.4818 0.46473 0.69435 0.0
H1219 H 0.45594 0.48897 0.64563 0.0
H1220 H 0.47729 0.53863 0.52583 0.0
H1221 H 0.51306 0.52399 0.52434 0.0
C1222 C 0.52611 0.49194 0.59803 0.0
C1223 C 0.52722 0.47076 0.61462 0.0
C1224 C 0.50569 0.49996 0.59383 0.0
C1225 C 0.51419 0.46387 0.66361 0.0
C1226 C 0.49383 0.47224 0.66579 0.0
C1227 C 0.46843 0.4961 0.61799 0.0
C1228 C 0.46619 0.51669 0.59663 0.0
C1229 C 0.48906 0.48918 0.62579 0.0
C1230 C 0.48028 0.524 0.55063 0.0
C1231 C 0.50094 0.51652 0.55264 0.0
H1232 H 0.732 0.19692 0.72428 0.0
H1233 H 0.79243 0.18984 0.81127 0.0
H1234 H 0.80191 0.22608 0.78375 0.0
H1235 H 0.78621 0.26233 0.77107 0.0
H1236 H 0.72633 0.26764 0.67573 0.0
H1237 H 0.72289 0.22956 0.6713 0.0
C1238 C 0.74767 0.2028 0.73449 0.0
C1239 C 0.75991 0.19322 0.78099 0.0
C1240 C 0.75216 0.22387 0.72087 0.0
C1241 C 0.78147 0.19889 0.78287 0.0
C1242 C 0.78672 0.21985 0.76902 0.0
C1243 C 0.7724 0.25513 0.74984 0.0
C1244 C 0.75532 0.26763 0.73033 0.0
C1245 C 0.77096 0.23312 0.74472 0.0
C1246 C 0.73856 0.2582 0.69699 0.0
C1247 C 0.73684 0.23645 0.69272 0.0
H1248 H 0.97473 0.44854 0.52152 0.0
H1249 H 0.0271 0.43375 0.63846 0.0
H1250 H 0.04202 0.46921 0.62012 0.0
H1251 H 0.03274 0.50789 0.59822 0.0
H1252 H 0.96797 0.52129 0.5471 0.0
H1253 H 0.96197 0.48423 0.52493 0.0
C1254 C 0.98949 0.45318 0.54343 0.0
C1255 C -0.00269 0.44106 0.59285 0.0
C1256 C 0.99358 0.47463 0.5502 0.0
C1257 C 0.01866 0.44473 0.60857 0.0
C1258 C 0.02667 0.46529 0.601 0.0
C1259 C 0.01702 0.50256 0.58563 0.0
C1260 C 0.00108 0.51719 0.57074 0.0
C1261 C 0.01288 0.481 0.5783 0.0
C1262 C 0.98056 0.51012 0.55693 0.0
C1263 C 0.97731 0.48916 0.5416 0.0
H1264 H 0.79138 0.73127 0.85951 0.0
H1265 H 0.72586 0.72078 0.81167 0.0
H1266 H 0.71799 0.75752 0.839 0.0
H1267 H 0.72872 0.78847 0.90233 0.0
H1268 H 0.79039 0.80748 0.84807 0.0
H1269 H 0.80294 0.7706 0.86169 0.0
C1270 C 0.77551 0.73715 0.85188 0.0
C1271 C 0.75878 0.72321 0.83871 0.0
C1272 C 0.77083 0.7582 0.86515 0.0
C1273 C 0.7386 0.7312 0.82602 0.0
C1274 C 0.73366 0.75135 0.84653 0.0
C1275 C 0.74493 0.78447 0.89175 0.0
C1276 C 0.75731 0.79924 0.86071 0.0
C1277 C 0.74943 0.76398 0.87282 0.0
C1278 C 0.77932 0.79534 0.86221 0.0
C1279 C 0.78629 0.77424 0.86662 0.0
H1280 H 0.46223 0.48049 0.07406 0.0
H1281 H 0.52412 0.47859 0.98786 0.0
H1282 H 0.52105 0.51525 0.95891 0.0
H1283 H 0.50743 0.5489 0.99063 0.0
H1284 H 0.45296 0.55312 0.10499 0.0
H1285 H 0.44375 0.51616 0.08115 0.0
C1286 C 0.47525 0.48812 0.05049 0.0
C1287 C 0.49376 0.47679 0.03587 0.0
C1288 C 0.47429 0.50981 0.03769 0.0
C1289 C 0.51006 0.48699 1.00225 0.0
C1290 C 0.50831 0.5079 0.98457 0.0
C1291 C 0.49344 0.54165 1.0103 0.0
C1292 C 0.48419 0.5505 0.06368 0.0
C1293 C 0.4914 0.51974 1.00631 0.0
C1294 C 0.46312 0.5441 0.074 0.0
C1295 C 0.45829 0.52274 0.06293 0.0
H1296 H 0.77963 0.22575 0.28837 0.0
H1297 H 0.7144 0.22099 0.34758 0.0
H1298 H 0.70848 0.25745 0.31612 0.0
H1299 H 0.72086 0.28723 0.24551 0.0
H1300 H 0.78549 0.301 0.27161 0.0
H1301 H 0.79379 0.26272 0.26738 0.0
C1302 C 0.76417 0.23269 0.29515 0.0
C1303 C 0.74718 0.22058 0.31805 0.0
C1304 C 0.76075 0.25367 0.27801 0.0
C1305 C 0.7275 0.23005 0.3288 0.0
C1306 C 0.72375 0.25031 0.3072 0.0
C1307 C 0.73656 0.28166 0.25352 0.0
C1308 C 0.75151 0.29604 0.27425 0.0
C1309 C 0.73981 0.26129 0.27599 0.0
C1310 C 0.77276 0.28971 0.26579 0.0
C1311 C 0.77746 0.26793 0.26667 0.0
H1312 H 0.27465 0.23656 1.01211 0.0
H1313 H 0.31636 0.24945 0.859 0.0
H1314 H 0.30516 0.21614 0.8073 0.0
H1315 H 0.27091 0.20023 0.77976 0.0
H1316 H 0.21944 0.21023 0.90943 0.0
H1317 H 0.24398 0.21601 0.99393 0.0
C1318 C 0.28136 0.23208 0.96707 0.0
C1319 C 0.29337 0.24673 0.93301 0.0
C1320 C 0.27119 0.21655 0.93231 0.0
C1321 C 0.30452 0.23957 0.88049 0.0
C1322 C 0.29809 0.22072 0.8516 0.0
C1323 C 0.26527 0.20298 0.82727 0.0
C1324 C 0.24342 0.20412 0.8388 0.0
C1325 C 0.27905 0.21151 0.87178 0.0
C1326 C 0.23607 0.20784 0.89993 0.0
C1327 C 0.25026 0.21184 0.94814 0.0
H1328 H 0.24113 0.7237 0.4391 0.0
H1329 H 0.2277 0.71187 0.24377 0.0
H1330 H 0.26436 0.70124 0.22657 0.0
H1331 H 0.30031 0.70992 0.25566 0.0
H1332 H 0.30761 0.74913 0.41868 0.0
H1333 H 0.27743 0.73207 0.46739 0.0
C1334 C 0.24621 0.71834 0.39302 0.0
C1335 C 0.23169 0.71795 0.34284 0.0
C1336 C 0.26775 0.71684 0.38055 0.0
C1337 C 0.2383 0.71109 0.28355 0.0
C1338 C 0.25943 0.70552 0.27369 0.0
C1339 C 0.29535 0.71445 0.30264 0.0
C1340 C 0.30432 0.73263 0.32995 0.0
C1341 C 0.27449 0.71025 0.32026 0.0
C1342 C 0.30017 0.73618 0.39397 0.0
C1343 C 0.28217 0.72705 0.42076 0.0
H1344 H 0.22949 0.21632 0.4882 0.0
H1345 H 0.24503 0.18058 0.32339 0.0
H1346 H 0.21438 0.19625 0.26794 0.0
H1347 H 0.19831 0.23125 0.25348 0.0
H1348 H 0.20213 0.2754 0.4078 0.0
H1349 H 0.20861 0.24704 0.48021 0.0
C1350 C 0.22614 0.21174 0.44004 0.0
C1351 C 0.24082 0.19982 0.40574 0.0
C1352 C 0.21156 0.22352 0.4067 0.0
C1353 C 0.23513 0.19205 0.34674 0.0
C1354 C 0.21767 0.20085 0.31596 0.0
C1355 C 0.19973 0.23431 0.30352 0.0
C1356 C 0.19952 0.2552 0.32554 0.0
C1357 C 0.20798 0.21871 0.34258 0.0
C1358 C 0.20143 0.25941 0.38995 0.0
C1359 C 0.20574 0.24314 0.43129 0.0
H1360 H 0.27202 0.72694 0.88542 0.0
H1361 H 0.28362 0.78685 0.80481 0.0
H1362 H 0.24625 0.78956 0.77276 0.0
H1363 H 0.21288 0.76906 0.74177 0.0
H1364 H 0.20418 0.70717 0.8057 0.0
H1365 H 0.24117 0.70536 0.84208 0.0
C1366 C 0.26599 0.74049 0.86093 0.0
C1367 C 0.28075 0.75425 0.83427 0.0
C1368 C 0.24646 0.7392 0.83014 0.0
C1369 C 0.27282 0.77415 0.81636 0.0
C1370 C 0.2519 0.77528 0.79442 0.0
C1371 C 0.21898 0.75617 0.76923 0.0
C1372 C 0.20509 0.74113 0.79406 0.0
C1373 C 0.23913 0.75713 0.79686 0.0
C1374 C 0.21418 0.72098 0.80132 0.0
C1375 C 0.23482 0.72022 0.8258 0.0
H1376 H 0.46938 0.02702 0.64805 0.0
H1377 H 0.51772 0.04684 0.52294 0.0
H1378 H 0.53183 0.0111 0.51796 0.0
H1379 H 0.52489 0.9728 0.53219 0.0
H1380 H 0.4778 0.95291 0.66295 0.0
H1381 H 0.46336 0.989 0.66838 0.0
C1382 C 0.48336 0.02333 0.62067 0.0
C1383 C 0.48962 0.03669 0.57166 0.0
C1384 C 0.48908 0.00226 0.61315 0.0
C1385 C 0.51046 0.03456 0.55103 0.0
C1386 C 0.51803 0.014 0.54585 0.0
C1387 C 0.51126 0.97646 0.56127 0.0
C1388 C 0.50496 0.96232 0.60788 0.0
C1389 C 0.50614 -0.00253 0.5721 0.0
C1390 C 0.48478 0.96517 0.63416 0.0
C1391 C 0.47732 0.98583 0.64036 0.0
H1392 H 0.04751 0.98236 0.1785 0.0
H1393 H 0.0519 0.04047 0.07814 0.0
H1394 H 0.01465 0.04809 0.09993 0.0
H1395 H 0.97926 0.03143 0.11497 0.0
H1396 H 0.97623 0.9677 0.18647 0.0
H1397 H 0.01378 0.96874 0.20855 0.0
C1398 C 0.04051 -0.00297 0.16316 0.0
C1399 C 0.05058 0.00881 0.11665 0.0
C1400 C 0.0186 -0.0008 0.1669 0.0
C1401 C 0.04308 0.02954 0.10723 0.0
C1402 C 0.02156 0.03359 0.11755 0.0
C1403 C 0.9868 0.0174 0.13242 0.0
C1404 C 0.97492 -0.00084 0.14521 0.0
C1405 C 0.00878 0.01719 0.14056 0.0
C1406 C 0.985 0.9817 0.17325 0.0
C1407 C 0.00643 0.98219 0.18666 0.0
H1408 H 0.4834 0.00895 0.21507 0.0
H1409 H 0.47972 0.94893 0.12103 0.0
H1410 H 0.51751 0.94391 0.13309 0.0
H1411 H 0.55067 0.96409 0.13067 0.0
H1412 H 0.55068 0.02772 0.19721 0.0
H1413 H 0.51732 0.02266 0.24811 0.0
C1414 C 0.49062 0.99451 0.19786 0.0
C1415 C 0.47922 0.98047 0.1595 0.0
C1416 C 0.5123 0.99209 0.20452 0.0
C1417 C 0.48858 0.96117 0.14305 0.0
C1418 C 0.51017 0.95796 0.15239 0.0
C1419 C 0.54359 0.97652 0.15888 0.0
C1420 C 0.55067 -0.00269 0.15036 0.0
C1421 C 0.5224 0.97449 0.17655 0.0
C1422 C 0.54402 0.01221 0.19505 0.0
C1423 C 0.5244 0.00947 0.22335 0.0
H1424 H 0.99624 0.99047 0.4199 0.0
H1425 H 0.98143 0.93901 0.5432 0.0
H1426 H 0.01888 0.93452 0.56838 0.0
H1427 H 0.05217 0.95396 0.58213 0.0
H1428 H 0.05855 0.01325 0.48477 0.0
H1429 H 0.03124 0.00397 0.41404 0.0
C1430 C 0.00107 0.97815 0.45224 0.0
C1431 C 0.98599 0.967 0.48716 0.0
C1432 C 0.02229 0.97642 0.46757 0.0
C1433 C 0.99264 0.94985 0.52374 0.0
C1434 C 0.01414 0.94675 0.53568 0.0
C1435 C 0.04802 0.96455 0.544 0.0
C1436 C 0.05731 0.98473 0.54075 0.0
C1437 C 0.02877 0.9615 0.51296 0.0
C1438 C 0.05252 -0.00241 0.48898 0.0
C1439 C 0.03591 0.99257 0.44944 0.0
H1440 H 0.98566 0.39728 0.99673 0.0
H1441 H 0.03879 0.42031 0.88961 0.0
H1442 H 0.01902 0.41639 0.79262 0.0
H1443 H 0.98646 0.40816 0.73756 0.0
H1444 H 0.93037 0.39337 0.84249 0.0
H1445 H 0.95145 0.39027 0.93914 0.0
C1446 C 0.99267 0.40177 0.95222 0.0
C1447 C 0.01369 0.40929 0.95065 0.0
C1448 C 0.98087 0.39991 0.89556 0.0
C1449 C 0.02261 0.41475 0.89234 0.0
C1450 C 0.01142 0.41221 0.83653 0.0
C1451 C 0.97896 0.40352 0.78121 0.0
C1452 C 0.95689 0.40074 0.7824 0.0
C1453 C 0.9906 0.40471 0.83742 0.0
C1454 C 0.94741 0.39501 0.83971 0.0
C1455 C 0.9594 0.39399 0.89545 0.0
H1456 H 0.79265 0.69858 0.11241 0.0
H1457 H 0.83986 0.72009 0.98059 0.0
H1458 H 0.8513 0.74701 0.05637 0.0
H1459 H 0.84522 0.76682 0.15443 0.0
H1460 H 0.79654 0.74655 0.28322 0.0
H1461 H 0.78842 0.71675 0.21394 0.0
C1462 C 0.80572 0.70889 0.1002 0.0
C1463 C 0.81533 0.70709 0.04007 0.0
C1464 C 0.81174 0.7248 0.1433 0.0
C1465 C 0.83226 0.72073 0.02616 0.0
C1466 C 0.83865 0.73634 0.06945 0.0
C1467 C 0.83298 0.75581 0.16844 0.0
C1468 C 0.82134 0.75941 0.22481 0.0
C1469 C 0.82811 0.73888 0.12744 0.0
C1470 C 0.80566 0.74462 0.24078 0.0
C1471 C 0.801 0.7275 0.2008 0.0
H1472 H 0.54454 0.57585 0.34766 0.0
H1473 H 0.51 0.61078 0.20783 0.0
H1474 H 0.48611 0.62424 0.28897 0.0
H1475 H 0.46994 0.61819 0.39265 0.0
H1476 H 0.50242 0.57923 0.5285 0.0
H1477 H 0.53203 0.57519 0.45634 0.0
C1478 C 0.53248 0.58736 0.33562 0.0
C1479 C 0.52897 0.59221 0.27181 0.0
C1480 C 0.51782 0.59357 0.38167 0.0
C1481 C 0.51322 0.60697 0.25653 0.0
C1482 C 0.49919 0.61422 0.30287 0.0
C1483 C 0.48377 0.60937 0.40749 0.0
C1484 C 0.48366 0.5988 0.46599 0.0
C1485 C 0.5005 0.60642 0.36465 0.0
C1486 C 0.50187 0.58752 0.48404 0.0
C1487 C 0.51884 0.58508 0.44249 0.0
H1488 H 0.6643 0.21296 0.62154 0.0
H1489 H 0.68929 0.25228 0.76985 0.0
H1490 H 0.69078 0.28226 0.6966 0.0
H1491 H 0.69192 0.29471 0.58598 0.0
H1492 H 0.6686 0.25442 0.43821 0.0
H1493 H 0.65975 0.22721 0.51562 0.0
C1494 C 0.66989 0.22814 0.63846 0.0
C1495 C 0.67701 0.23022 0.70128 0.0
C1496 C 0.67141 0.24496 0.59566 0.0
C1497 C 0.68404 0.25008 0.72183 0.0
C1498 C 0.68484 0.26721 0.67986 0.0
C1499 C 0.6839 0.28038 0.57126 0.0
C1500 C 0.68044 0.27677 0.50651 0.0
C1501 C 0.67958 0.26452 0.61599 0.0
C1502 C 0.67079 0.25784 0.48769 0.0
C1503 C 0.66614 0.24213 0.53194 0.0
H1504 H 0.99282 0.61587 0.93962 0.0
H1505 H 0.94033 0.583 0.85606 0.0
H1506 H 0.95863 0.58199 0.75528 0.0
H1507 H 0.99354 0.58359 0.69812 0.0
H1508 H 0.04311 0.62196 0.77917 0.0
H1509 H 0.02187 0.62809 0.87179 0.0
C1510 C 0.98466 0.60981 0.89849 0.0
C1511 C 0.96541 0.59898 0.90664 0.0
C1512 C 0.99522 0.60958 0.8399 0.0
C1513 C 0.95529 0.59117 0.85218 0.0
C1514 C 0.96599 0.59023 0.79425 0.0
C1515 C -0.00062 0.59399 0.73473 0.0
C1516 C 0.02045 0.60152 0.73192 0.0
C1517 C 0.98662 0.59827 0.78848 0.0
C1518 C 0.02734 0.61525 0.78018 0.0
C1519 C 0.01516 0.61887 0.83373 0.0
H1520 H 0.696 0.70066 0.07047 0.0
H1521 H 0.66173 0.73509 0.21242 0.0
H1522 H 0.6531 0.76253 0.13497 0.0
H1523 H 0.66037 0.77913 0.03238 0.0
H1524 H 0.69239 0.74354 0.88838 0.0
H1525 H 0.69784 0.71453 0.96216 0.0
C1526 C 0.68598 0.71381 0.08396 0.0
C1527 C 0.67938 0.71568 0.14727 0.0
C1528 C 0.68171 0.72981 0.0397 0.0
C1529 C 0.66665 0.73296 0.16406 0.0
C1530 C 0.66209 0.74886 0.11991 0.0
C1531 C 0.66833 0.76497 1.01623 0.0
C1532 C 0.67754 0.76442 0.95523 0.0
C1533 C 0.67032 0.74785 0.05834 0.0
C1534 C 0.68708 0.74548 0.93596 0.0
C1535 C 0.68954 0.72855 0.97792 0.0
H1536 H 0.49576 0.36883 0.44268 0.0
H1537 H 0.54946 0.40415 0.37721 0.0
H1538 H 0.53335 0.40731 0.27318 0.0
H1539 H 0.49993 0.40693 0.20971 0.0
H1540 H 0.44748 0.36932 0.27587 0.0
H1541 H 0.46723 0.35984 0.36935 0.0
C1542 C 0.50461 0.37596 0.40452 0.0
C1543 C 0.52365 0.38653 0.41832 0.0
C1544 C 0.49503 0.37797 0.34497 0.0
C1545 C 0.53474 0.39595 0.36827 0.0
C1546 C 0.52528 0.39813 0.30881 0.0
C1547 C 0.49315 0.39597 0.24323 0.0
C1548 C 0.47191 0.38936 0.23605 0.0
C1549 C 0.50478 0.3903 0.29776 0.0
C1550 C 0.46355 0.37509 0.28036 0.0
C1551 C 0.47486 0.36961 0.33424 0.0
H1552 H 0.78499 0.2944 0.55939 0.0
H1553 H 0.83588 0.27425 0.68082 0.0
H1554 H 0.84499 0.24629 0.60647 0.0
H1555 H 0.83661 0.22587 0.51211 0.0
H1556 H 0.78363 0.24395 0.39645 0.0
H1557 H 0.77724 0.27435 0.46405 0.0
C1558 C 0.79842 0.28426 0.56907 0.0
C1559 C 0.80986 0.28669 0.62547 0.0
C1560 C 0.8031 0.2677 0.5273 0.0
C1561 C 0.82694 0.27301 0.63753 0.0
C1562 C 0.83207 0.25688 0.5952 0.0
C1563 C 0.82386 0.23663 0.50044 0.0
C1564 C 0.81071 0.23255 0.44795 0.0
C1565 C 0.81997 0.25384 0.54055 0.0
C1566 C 0.79413 0.24664 0.43529 0.0
C1567 C 0.79048 0.26411 0.47413 0.0
H1568 H 0.01316 0.62517 0.40528 0.0
H1569 H 0.05412 0.5727 0.36955 0.0
H1570 H 0.03577 0.56538 0.27034 0.0
H1571 H 0.00234 0.57058 0.20519 0.0
H1572 H 0.96873 0.6294 0.22918 0.0
H1573 H 0.99056 0.63827 0.31893 0.0
C1574 C 0.01914 0.61299 0.37415 0.0
C1575 C 0.03414 0.59849 0.39744 0.0
C1576 C 0.00941 0.60988 0.31485 0.0
C1577 C 0.04167 0.58314 0.35507 0.0
C1578 C 0.0311 0.57899 0.29798 0.0
C1579 C 0.00046 0.58581 0.22784 0.0
C1580 C 0.98312 0.59885 0.21125 0.0
C1581 C 0.01396 0.5916 0.27895 0.0
C1582 C 0.98142 0.61866 0.24151 0.0
C1583 C 0.99389 0.62382 0.29347 0.0
H1584 H 0.17617 0.30344 0.06265 0.0
H1585 H 0.14115 0.27121 0.20761 0.0
H1586 H 0.13317 0.2425 0.13387 0.0
H1587 H 0.14136 0.224 0.03467 0.0
H1588 H 0.18037 0.25458 0.89516 0.0
H1589 H 0.18194 0.28629 0.96092 0.0
C1590 C 0.1662 0.29045 0.07774 0.0
C1591 C 0.15926 0.28964 0.14097 0.0
C1592 C 0.16301 0.27333 0.0365 0.0
C1593 C 0.14642 0.27259 0.15937 0.0
C1594 C 0.14225 0.25591 0.11739 0.0
C1595 C 0.14993 0.23769 0.01777 0.0
C1596 C 0.16078 0.23672 0.95944 0.0
C1597 C 0.15129 0.25569 0.05681 0.0
C1598 C 0.17187 0.25472 0.93932 0.0
C1599 C 0.17277 0.27289 0.97708 0.0
H1600 H 0.4814 0.36377 0.92339 0.0
H1601 H 0.443 0.41786 0.88056 0.0
H1602 H 0.46095 0.42182 0.77925 0.0
H1603 H 0.49358 0.41404 0.71471 0.0
H1604 H 0.5281 0.35674 0.75445 0.0
H1605 H 0.5052 0.34948 0.84313 0.0
C1606 C 0.47594 0.37562 0.89037 0.0
C1607 C 0.46178 0.39126 0.91142 0.0
C1608 C 0.48611 0.37753 0.83168 0.0
C1609 C 0.45472 0.40625 0.86724 0.0
C1610 C 0.46513 0.40862 0.80916 0.0
C1611 C 0.49553 0.39953 0.74107 0.0
C1612 C 0.51309 0.38629 0.72865 0.0
C1613 C 0.4819 0.3951 0.79261 0.0
C1614 C 0.51512 0.3675 0.76351 0.0
C1615 C 0.502 0.36328 0.81461 0.0
H1616 H 0.34421 0.74524 0.43242 0.0
H1617 H 0.36334 0.79741 0.5505 0.0
H1618 H 0.36728 0.77391 0.63909 0.0
H1619 H 0.35582 0.74095 0.68899 0.0
H1620 H 0.33633 0.68864 0.57368 0.0
H1621 H 0.34255 0.70936 0.47885 0.0
C1622 C 0.34958 0.7514 0.47716 0.0
C1623 C 0.35221 0.77335 0.48515 0.0
C1624 C 0.3517 0.73769 0.52909 0.0
C1625 C 0.36036 0.78076 0.54287 0.0
C1626 C 0.36267 0.76729 0.59412 0.0
C1627 C 0.35439 0.73361 0.64305 0.0
C1628 C 0.34521 0.7135 0.63821 0.0
C1629 C 0.35709 0.746 0.5888 0.0
C1630 C 0.34336 0.70418 0.57839 0.0
C1631 C 0.3464 0.71624 0.52408 0.0
H1632 H 0.99259 0.38796 0.23446 0.0
H1633 H 0.04481 0.42049 0.32081 0.0
H1634 H 0.02719 0.41903 0.42269 0.0
H1635 H 0.99345 0.41386 0.483 0.0
H1636 H 0.94427 0.37603 0.39781 0.0
H1637 H 0.96449 0.37341 0.30194 0.0
C1638 C 0.00076 0.39357 0.27613 0.0
C1639 C 0.01993 0.40459 0.26918 0.0
C1640 C 0.99076 0.39212 0.33539 0.0
C1641 C 0.03 0.41206 0.32407 0.0
C1642 C 0.01976 0.41142 0.3827 0.0
C1643 C 0.98737 0.40456 0.44436 0.0
C1644 C 0.96667 0.3961 0.44775 0.0
C1645 C -0.00045 0.40239 0.38843 0.0
C1646 C 0.9597 0.38347 0.39692 0.0
C1647 C 0.97129 0.38189 0.34135 0.0
H1648 H 0.3345 0.26164 0.99284 0.0
H1649 H 0.32951 0.31538 0.11569 0.0
H1650 H 0.3308 0.29218 0.20784 0.0
H1651 H 0.32916 0.25564 0.25344 0.0
H1652 H 0.33031 0.20279 0.12486 0.0
H1653 H 0.3341 0.22629 0.03643 0.0
C1654 C 0.33465 0.26835 0.03981 0.0
C1655 C 0.33242 0.29023 0.0474 0.0
C1656 C 0.33383 0.25484 0.09218 0.0
C1657 C 0.33182 0.29858 0.10872 0.0
C1658 C 0.33204 0.28525 0.16142 0.0
C1659 C 0.33013 0.24939 0.2061 0.0
C1660 C 0.32961 0.22738 0.19645 0.0
C1661 C 0.33219 0.26321 0.15385 0.0
C1662 C 0.33093 0.21961 0.1343 0.0
C1663 C 0.3332 0.23304 0.08322 0.0
H1664 H 0.49065 0.58475 0.9749 0.0
H1665 H 0.54259 0.62205 0.9037 0.0
H1666 H 0.52164 0.63247 0.81398 0.0
H1667 H 0.49223 0.62388 0.74334 0.0
H1668 H 0.43861 0.5898 0.81468 0.0
H1669 H 0.45618 0.58567 0.91623 0.0
C1670 C 0.49723 0.59552 0.94072 0.0
C1671 C 0.51872 0.60156 0.94513 0.0
C1672 C 0.48484 0.60189 0.88832 0.0
C1673 C 0.52646 0.61632 0.90103 0.0
C1674 C 0.51444 0.62244 0.84925 0.0
C1675 C 0.4837 0.61684 0.78232 0.0
C1676 C 0.4646 0.60618 0.77003 0.0
C1677 C 0.49406 0.6144 0.84058 0.0
C1678 C 0.45374 0.59742 0.82166 0.0
C1679 C 0.46399 0.59473 0.87981 0.0
H1680 H 0.1626 0.74189 0.70596 0.0
H1681 H 0.11492 0.78746 0.6535 0.0
H1682 H 0.1075 0.76795 0.55808 0.0
H1683 H 0.11996 0.74254 0.47902 0.0
H1684 H 0.16353 0.69398 0.53336 0.0
H1685 H 0.16688 0.70958 0.63822 0.0
C1686 C 0.15 0.74709 0.67504 0.0
C1687 C 0.13987 0.76663 0.68649 0.0
C1688 C 0.14528 0.7354 0.61968 0.0
C1689 C 0.12346 0.77286 0.64557 0.0
C1690 C 0.11913 0.76169 0.59055 0.0
C1691 C 0.12916 0.73458 0.51493 0.0
C1692 C 0.14194 0.71733 0.49765 0.0
C1693 C 0.13066 0.74354 0.57553 0.0
C1694 C 0.15383 0.70739 0.54503 0.0
C1695 C 0.15593 0.71654 0.60497 0.0
H1696 H 0.47691 0.9142 0.25224 0.0
H1697 H 0.44378 0.96249 0.35656 0.0
H1698 H 0.46716 0.95743 0.44552 0.0
H1699 H 0.49945 0.94174 0.49146 0.0
H1700 H 0.53125 0.89192 0.3906 0.0
H1701 H 0.50594 0.89476 0.30527 0.0
C1702 C 0.47443 0.92324 0.2949 0.0
C1703 C 0.45857 0.9389 0.2964 0.0
C1704 C 0.48794 0.9201 0.34745 0.0
C1705 C 0.45589 0.95045 0.35275 0.0
C1706 C 0.46934 0.9476 0.40428 0.0
C1707 C 0.50064 0.9312 0.45172 0.0
C1708 C 0.51777 0.91698 0.44797 0.0
C1709 C 0.4858 0.93283 0.40186 0.0
C1710 C 0.51859 0.90333 0.39535 0.0
C1711 C 0.50407 0.90496 0.34583 0.0
H1712 H 0.32109 0.20602 0.57542 0.0
H1713 H 0.36137 0.24314 0.4559 0.0
H1714 H 0.37043 0.26597 0.54516 0.0
H1715 H 0.36081 0.27968 0.65031 0.0
H1716 H 0.31238 0.24772 0.75542 0.0
H1717 H 0.31278 0.21859 0.68104 0.0
C1718 C 0.33281 0.21839 0.56971 0.0
C1719 C 0.34096 0.2224 0.50891 0.0
C1720 C 0.33597 0.23284 0.61942 0.0
C1721 C 0.35537 0.23915 0.50206 0.0
C1722 C 0.36007 0.25259 0.553 0.0
C1723 C 0.35075 0.26606 0.65815 0.0
C1724 C 0.33748 0.26544 0.71202 0.0
C1725 C 0.34953 0.25029 0.61094 0.0
C1726 C 0.32405 0.24793 0.71879 0.0
C1727 C 0.32383 0.2315 0.67454 0.0
H1728 H 0.99547 0.08618 0.95399 0.0
H1729 H 0.96233 0.02649 0.95022 0.0
H1730 H 0.97844 0.01793 0.85013 0.0
H1731 H 0.00079 0.02706 0.76369 0.0
H1732 H 0.03971 0.08308 0.76968 0.0
H1733 H 0.02179 0.09393 0.86765 0.0
C1734 C 0.99237 0.07104 0.93204 0.0
C1735 C 0.97801 0.05679 0.96063 0.0
C1736 C 0.0022 0.06586 0.87418 0.0
C1737 C 0.97377 0.03744 0.93081 0.0
C1738 C 0.98269 0.03268 0.87279 0.0
C1739 C 0.00565 0.04171 0.78594 0.0
C1740 C 0.02176 0.05418 0.75876 0.0
C1741 C 0.99671 0.04681 0.84399 0.0
C1742 C 0.02725 0.07323 0.78869 0.0
C1743 C 0.01723 0.07923 0.84533 0.0
H1744 H 0.12813 0.75005 0.9733 0.0
H1745 H 0.15475 0.80191 0.07688 0.0
H1746 H 0.15231 0.78179 0.17422 0.0
H1747 H 0.15198 0.74585 0.22224 0.0
H1748 H 0.12359 0.6947 0.11716 0.0
H1749 H 0.11734 0.71797 0.02918 0.0
C1750 C 0.13187 0.75756 0.01783 0.0
C1751 C 0.14218 0.77722 0.01747 0.0
C1752 C 0.13122 0.74545 0.07333 0.0
C1753 C 0.14681 0.78674 0.07575 0.0
C1754 C 0.1461 0.7749 0.13137 0.0
C1755 C 0.14379 0.73996 0.18102 0.0
C1756 C 0.13907 0.71823 0.17602 0.0
C1757 C 0.13983 0.75364 0.12975 0.0
C1758 C 0.12806 0.71113 0.12228 0.0
C1759 C 0.12436 0.72448 0.07147 0.0
H1760 H 0.52806 0.09352 0.28933 0.0
H1761 H 0.49898 0.05421 0.14748 0.0
H1762 H 0.4665 0.05277 0.20994 0.0
H1763 H 0.44758 0.06023 0.30714 0.0
H1764 H 0.47826 0.09478 0.45659 0.0
H1765 H 0.50852 0.10162 0.38715 0.0
C1766 C 0.51453 0.08487 0.27143 0.0
C1767 C 0.51599 0.07409 0.21314 0.0
C1768 C 0.49611 0.08358 0.30862 0.0
C1769 C 0.49836 0.06269 0.19168 0.0
C1770 C 0.47976 0.06192 0.22741 0.0
C1771 C 0.46068 0.06966 0.32453 0.0
C1772 C 0.46046 0.07703 0.3874 0.0
C1773 C 0.4786 0.07206 0.2862 0.0
C1774 C 0.47767 0.0892 0.40849 0.0
C1775 C 0.49518 0.09275 0.36902 0.0
H1776 H 0.13625 0.2901 0.54421 0.0
H1777 H 0.16035 0.24869 0.4001 0.0
H1778 H 0.16248 0.21986 0.47695 0.0
H1779 H 0.16393 0.20914 0.58948 0.0
H1780 H 0.13972 0.25126 0.73115 0.0
H1781 H 0.13006 0.2768 0.65008 0.0
C1782 C 0.14153 0.27468 0.52853 0.0
C1783 C 0.14952 0.27205 0.46679 0.0
C1784 C 0.14238 0.2582 0.5728 0.0
C1785 C 0.15548 0.25164 0.44799 0.0
C1786 C 0.1564 0.23505 0.4919 0.0
C1787 C 0.15532 0.22335 0.60215 0.0
C1788 C 0.15219 0.22808 0.66651 0.0
C1789 C 0.15085 0.23848 0.55522 0.0
C1790 C 0.14177 0.24692 0.68225 0.0
C1791 C 0.13672 0.26177 0.63582 0.0
H1792 H 0.03122 0.95517 0.83512 0.0
H1793 H 0.00607 0.90716 0.95731 0.0
H1794 H 0.98316 0.89448 0.87147 0.0
H1795 H 0.96675 0.90084 0.76751 0.0
H1796 H 0.98971 0.95204 0.6523 0.0
H1797 H 0.01743 0.95925 0.72856 0.0
C1798 C 0.02108 0.94155 0.8425 0.0
C1799 C 0.0203 0.93209 0.90246 0.0
C1800 C 0.00752 0.93501 0.79399 0.0
C1801 C 0.00712 0.91454 0.91153 0.0
C1802 C 0.99387 0.90749 0.86258 0.0
C1803 C 0.97812 0.91326 0.75813 0.0
C1804 C 0.97619 0.9256 0.7028 0.0
C1805 C 0.99339 0.91815 0.80436 0.0
C1806 C 0.99105 0.94175 0.69253 0.0
C1807 C 0.00674 0.94617 0.73704 0.0
H1808 H 0.33153 0.8007 0.07579 0.0
H1809 H 0.36026 0.76131 0.21688 0.0
H1810 H 0.36926 0.73512 0.13679 0.0
H1811 H 0.36068 0.71995 0.03356 0.0
H1812 H 0.32783 0.75802 0.8962 0.0
H1813 H 0.32859 0.78804 0.96774 0.0
C1814 C 0.34076 0.78687 0.08832 0.0
C1815 C 0.34505 0.78286 0.15209 0.0
C1816 C 0.34432 0.7712 0.04295 0.0
C1817 C 0.35692 0.76489 0.1681 0.0
C1818 C 0.36159 0.74964 0.12241 0.0
C1819 C 0.35421 0.73496 0.01841 0.0
C1820 C 0.34389 0.73651 0.95976 0.0
C1821 C 0.35407 0.75204 0.06066 0.0
C1822 C 0.33572 0.7562 0.94106 0.0
C1823 C 0.3361 0.77343 0.98209 0.0
H1824 H 0.45699 0.08681 0.80404 0.0
H1825 H 0.49725 0.06658 0.6521 0.0
H1826 H 0.52624 0.06083 0.72619 0.0
H1827 H 0.5386 0.05744 0.83654 0.0
H1828 H 0.49881 0.07937 0.9872 0.0
H1829 H 0.47149 0.08949 0.91102 0.0
C1830 C 0.47219 0.08156 0.78638 0.0
C1831 C 0.4744 0.07603 0.72212 0.0
C1832 C 0.48901 0.07887 0.82937 0.0
C1833 C 0.49452 0.06971 0.70117 0.0
C1834 C 0.51127 0.06674 0.74368 0.0
C1835 C 0.52429 0.06527 0.85238 0.0
C1836 C 0.52092 0.06805 0.91748 0.0
C1837 C 0.50848 0.07061 0.80823 0.0
C1838 C 0.50205 0.07761 0.93749 0.0
C1839 C 0.48629 0.08307 0.89386 0.0
H1840 H 0.67654 0.74377 0.43177 0.0
H1841 H 0.66182 0.69004 0.54879 0.0
H1842 H 0.66295 0.71186 0.64162 0.0
H1843 H 0.67292 0.74484 0.69304 0.0
H1844 H 0.68854 0.79907 0.58113 0.0
H1845 H 0.6825 0.77879 0.48453 0.0
C1846 C 0.67383 0.73686 0.47753 0.0
C1847 C 0.66952 0.71505 0.48249 0.0
C1848 C 0.67458 0.74969 0.53245 0.0
C1849 C 0.6652 0.70669 0.54264 0.0
C1850 C 0.66586 0.71917 0.59641 0.0
C1851 C 0.6739 0.75249 0.64752 0.0
C1852 C 0.68056 0.77356 0.64435 0.0
C1853 C 0.67098 0.74055 0.59228 0.0
C1854 C 0.68265 0.78304 0.58483 0.0
C1855 C 0.67965 0.77128 0.52945 0.0
H1856 H 0.98499 0.92109 0.16137 0.0
H1857 H 0.03848 0.93309 0.28212 0.0
H1858 H 0.01558 0.93292 0.37418 0.0
H1859 H 0.98039 0.92953 0.42118 0.0
H1860 H 0.92576 0.92341 0.30256 0.0
H1861 H 0.94873 0.91966 0.21002 0.0
C1862 C 0.99149 0.92393 0.20775 0.0
C1863 C 0.01346 0.92734 0.21466 0.0
C1864 C 0.97802 0.92407 0.26133 0.0
C1865 C 0.02164 0.93066 0.2754 0.0
C1866 C 0.00857 0.93036 0.32827 0.0
C1867 C 0.97351 0.92717 0.37534 0.0
C1868 C 0.95136 0.92642 0.36929 0.0
C1869 C 0.98677 0.92693 0.32199 0.0
C1870 C 0.94277 0.92349 0.30892 0.0
C1871 C 0.95594 0.92176 0.2558 0.0
H1872 H 0.83353 0.26364 1.00806 0.0
H1873 H 0.77632 0.25316 0.90134 0.0
H1874 H 0.76567 0.22581 0.9762 0.0
H1875 H 0.77182 0.20571 0.07359 0.0
H1876 H 0.82832 0.2177 0.18232 0.0
H1877 H 0.84008 0.24324 0.10394 0.0
C1878 C 0.81891 0.25509 0.99988 0.0
C1879 C 0.80584 0.26059 0.94829 0.0
C1880 C 0.81278 0.23944 0.04331 0.0
C1881 C 0.78691 0.24926 0.93965 0.0
C1882 C 0.78078 0.23356 0.9826 0.0
C1883 C 0.78688 0.21364 0.07995 0.0
C1884 C 0.7992 0.20946 0.1341 0.0
C1885 C 0.79347 0.22864 0.03491 0.0
C1886 C 0.81852 0.22027 0.14127 0.0
C1887 C 0.82526 0.23499 0.09637 0.0
H1888 H 0.50845 0.93258 0.74623 0.0
H1889 H 0.5591 0.89813 0.83356 0.0
H1890 H 0.53776 0.89421 0.92956 0.0
H1891 H 0.50534 0.90369 0.99209 0.0
H1892 H 0.45933 0.94528 0.90852 0.0
H1893 H 0.47851 0.94453 0.80926 0.0
C1894 C 0.51472 0.92392 0.78584 0.0
C1895 C 0.53517 0.91519 0.78193 0.0
C1896 C 0.50347 0.92401 0.84289 0.0
C1897 C 0.5431 0.90425 0.83429 0.0
C1898 C 0.53109 0.90255 0.8898 0.0
C1899 C 0.49996 0.91308 0.95265 0.0
C1900 C 0.4812 0.92507 0.95841 0.0
C1901 C 0.51152 0.91304 0.89551 0.0
C1902 C 0.47407 0.93661 0.90618 0.0
C1903 C 0.48482 0.93583 0.84891 0.0
H1904 H 0.81557 0.79063 0.605 0.0
H1905 H 0.8415 0.75273 0.45562 0.0
H1906 H 0.84806 0.72396 0.53023 0.0
H1907 H 0.84029 0.70768 0.63195 0.0
H1908 H 0.81119 0.74433 0.77932 0.0
H1909 H 0.8113 0.7754 0.71097 0.0
C1910 C 0.82364 0.77642 0.58946 0.0
C1911 C 0.8285 0.77406 0.52484 0.0
C1912 C 0.82574 0.75941 0.63165 0.0
C1913 C 0.83826 0.75531 0.50502 0.0
C1914 C 0.84146 0.73865 0.54756 0.0
C1915 C 0.83422 0.72249 0.65011 0.0
C1916 C 0.82518 0.72333 0.71121 0.0
C1917 C 0.83428 0.7402 0.61012 0.0
C1918 C 0.81754 0.74285 0.73263 0.0
C1919 C 0.81788 0.76072 0.6935 0.0
H1920 H 0.01922 0.08577 0.40502 0.0
H1921 H 0.00509 0.03165 0.52092 0.0
H1922 H 0.97498 0.02323 0.45358 0.0
H1923 H 0.95497 0.02869 0.35567 0.0
H1924 H 0.97014 0.08194 0.23725 0.0
H1925 H -0.00234 0.09281 0.31106 0.0
C1926 C 0.00946 0.07221 0.41618 0.0
C1927 C 0.01453 0.05942 0.46858 0.0
C1928 C 0.99255 0.06693 0.37579 0.0
C1929 C 0.00168 0.04184 0.48135 0.0
C1930 C 0.98452 0.03685 0.44231 0.0
C1931 C 0.96398 0.04291 0.34632 0.0
C1932 C 0.96025 0.05447 0.29064 0.0
C1933 C 0.98012 0.04893 0.38855 0.0
C1934 C 0.97243 0.07272 0.27955 0.0
C1935 C 0.98831 0.07892 0.32172 0.0
H1936 H 0.66387 0.24177 0.98604 0.0
H1937 H 0.71612 0.2078 0.0679 0.0
H1938 H 0.71235 0.22752 0.16546 0.0
H1939 H 0.69788 0.25847 0.2199 0.0
H1940 H 0.64278 0.28944 0.14636 0.0
H1941 H 0.6439 0.26711 0.05391 0.0
C1942 C 0.67379 0.23807 0.02613 0.0
C1943 C 0.69034 0.22338 0.01936 0.0
C1944 C 0.67138 0.24937 0.08332 0.0
C1945 C 0.70322 0.219 0.07183 0.0
C1946 C 0.70123 0.23044 0.12764 0.0
C1947 C 0.68566 0.25985 0.1859 0.0
C1948 C 0.67069 0.27611 0.19173 0.0
C1949 C 0.6859 0.24629 0.13309 0.0
C1950 C 0.65499 0.27747 0.14427 0.0
C1951 C 0.65553 0.26461 0.09061 0.0
H1952 H 0.07301 0.53845 0.82209 0.0
H1953 H 0.06043 0.49618 0.66806 0.0
H1954 H 0.05987 0.46609 0.74127 0.0
H1955 H 0.06411 0.45192 0.849 0.0
H1956 H 0.07629 0.4947 1.00293 0.0
H1957 H 0.07604 0.52453 0.92978 0.0
C1958 C 0.07008 0.52264 0.8044 0.0
C1959 C 0.06652 0.51957 0.73934 0.0
C1960 C 0.06997 0.50555 0.84687 0.0
C1961 C 0.06264 0.49901 0.71768 0.0
C1962 C 0.06263 0.48183 0.75961 0.0
C1963 C 0.0669 0.46774 0.8667 0.0
C1964 C 0.0705 0.4709 0.93181 0.0
C1965 C 0.06646 0.4849 0.82428 0.0
C1966 C 0.07358 0.49166 0.9535 0.0
C1967 C 0.07343 0.50875 0.91153 0.0
H1968 H 0.70829 0.83752 0.06688 0.0
H1969 H 0.75409 0.84101 0.9167 0.0
H1970 H 0.78279 0.84152 0.99357 0.0
H1971 H 0.79482 0.83898 0.10187 0.0
H1972 H 0.7494 0.83329 0.25264 0.0
H1973 H 0.72046 0.83605 0.17654 0.0
C1974 C 0.72452 0.8389 0.05088 0.0
C1975 C 0.72901 0.8394 0.98596 0.0
C1976 C 0.74096 0.83876 0.09532 0.0
C1977 C 0.75018 0.84065 0.96623 0.0
C1978 C 0.76659 0.84092 1.01017 0.0
C1979 C 0.77862 0.83865 0.11863 0.0
C1980 C 0.77439 0.83609 0.18322 0.0
C1981 C 0.76215 0.83969 0.07468 0.0
C1982 C 0.7532 0.83543 0.20342 0.0
C1983 C 0.73664 0.83691 0.15987 0.0
H1984 H 0.43881 0.54541 0.3508 0.0
H1985 H 0.42511 0.50357 0.50522 0.0
H1986 H 0.42691 0.47315 0.43369 0.0
H1987 H 0.43026 0.45873 0.32631 0.0
H1988 H 0.44747 0.49972 0.17377 0.0
H1989 H 0.44666 0.53029 0.24526 0.0
C1990 C 0.43623 0.52961 0.36885 0.0
C1991 C 0.43128 0.52685 0.43327 0.0
C1992 C 0.43792 0.51213 0.32764 0.0
C1993 C 0.42865 0.50622 0.45605 0.0
C1994 C 0.42968 0.48883 0.41504 0.0
C1995 C 0.43403 0.47434 0.30863 0.0
C1996 C 0.43845 0.47701 0.24385 0.0
C1997 C 0.43398 0.49163 0.35062 0.0
C1998 C 0.44375 0.49728 0.22259 0.0
C1999 C 0.44322 0.51472 0.26372 0.0
H2000 H 0.74924 0.15584 0.45604 0.0
H2001 H 0.80456 0.14329 0.5692 0.0
H2002 H 0.78273 0.14142 0.66319 0.0
H2003 H 0.74814 0.14698 0.71537 0.0
H2004 H 0.69296 0.15765 0.60001 0.0
H2005 H 0.71447 0.15678 0.50584 0.0
C2006 C 0.75652 0.15214 0.5009 0.0
C2007 C 0.77859 0.14994 0.50528 0.0
C2008 C 0.74388 0.15107 0.55508 0.0
C2009 C 0.78762 0.14522 0.56418 0.0
C2010 C 0.77516 0.14426 0.61829 0.0
C2011 C 0.74084 0.1486 0.66948 0.0
C2012 C 0.71895 0.1521 0.66489 0.0
C2013 C 0.75332 0.14774 0.61465 0.0
C2014 C 0.70972 0.15447 0.60505 0.0
C2015 C 0.72203 0.15414 0.55089 0.0
H2016 H 0.92329 0.45664 0.35894 0.0
H2017 H 0.9253 0.50033 0.51452 0.0
H2018 H 0.92683 0.53 0.44045 0.0
H2019 H 0.92585 0.54342 0.33226 0.0
H2020 H 0.92508 0.49995 0.17589 0.0
H2021 H 0.92482 0.47012 0.24983 0.0
C2022 C 0.9241 0.47268 0.37672 0.0
C2023 C 0.92404 0.47626 0.44244 0.0
C2024 C 0.92503 0.4896 0.33377 0.0
C2025 C 0.9254 0.4971 0.46452 0.0
C2026 C 0.92616 0.51404 0.42207 0.0
C2027 C 0.92554 0.52742 0.31401 0.0
C2028 C 0.92499 0.524 0.24824 0.0
C2029 C 0.92568 0.51047 0.35672 0.0
C2030 C 0.92526 0.50312 0.22593 0.0
C2031 C 0.9251 0.48608 0.26831 0.0
H2032 H 0.20698 0.18649 0.05565 0.0
H2033 H 0.24002 0.14578 0.92668 0.0
H2034 H 0.26844 0.14077 1.00478 0.0
H2035 H 0.28336 0.14775 0.11142 0.0
H2036 H 0.25268 0.19376 0.22919 0.0
H2037 H 0.2235 0.19639 0.15514 0.0
C2038 C 0.22039 0.17643 0.04472 0.0
C2039 C 0.22122 0.16613 0.98616 0.0
C2040 C 0.23675 0.17414 0.08886 0.0
C2041 C 0.23896 0.1537 0.97169 0.0
C2042 C 0.25513 0.15081 1.01647 0.0
C2043 C 0.2701 0.15806 0.12146 0.0
C2044 C 0.26933 0.16912 0.17935 0.0
C2045 C 0.25407 0.1608 0.07566 0.0
C2046 C 0.25258 0.18331 0.18921 0.0
C2047 C 0.23622 0.18538 0.14553 0.0
H2048 H 0.56733 0.44565 0.83271 0.0
H2049 H 0.56686 0.48657 0.67077 0.0
H2050 H 0.56453 0.51749 0.74018 0.0
H2051 H 0.56336 0.53282 0.84723 0.0
H2052 H 0.56328 0.49172 1.00852 0.0
H2053 H 0.56515 0.46081 0.93887 0.0
C2054 C 0.56688 0.46133 0.81232 0.0
C2055 C 0.56743 0.46371 0.74625 0.0
C2056 C 0.5654 0.47895 0.85253 0.0
C2057 C 0.56638 0.48419 0.72111 0.0
C2058 C 0.56512 0.50188 0.76091 0.0
C2059 C 0.56368 0.51706 0.86711 0.0
C2060 C 0.56307 0.51454 0.9331 0.0
C2061 C 0.56469 0.49943 0.82668 0.0
C2062 C 0.56351 0.49407 0.95811 0.0
C2063 C 0.56469 0.47644 0.91823 0.0
H2064 H 0.20479 0.79788 0.60964 0.0
H2065 H 0.24228 0.83053 0.74821 0.0
H2066 H 0.27148 0.83363 0.67277 0.0
H2067 H 0.28544 0.82861 0.56658 0.0
H2068 H 0.24844 0.79558 0.42706 0.0
H2069 H 0.21974 0.79113 0.5037 0.0
C2070 C 0.21953 0.80537 0.62336 0.0
C2071 C 0.22164 0.81368 0.68452 0.0
C2072 C 0.23607 0.80729 0.57942 0.0
C2073 C 0.24053 0.82372 0.70176 0.0
C2074 C 0.2571 0.82561 0.6585 0.0
C2075 C 0.27105 0.82054 0.55251 0.0
C2076 C 0.26895 0.8128 0.49055 0.0
C2077 C 0.25488 0.81777 0.59697 0.0
C2078 C 0.2504 0.80189 0.47404 0.0
C2079 C 0.23403 0.79931 0.51794 0.0
H2080 H 0.6089 0.96591 0.38182 0.0
H2081 H 0.55999 0.99649 0.48814 0.0
H2082 H 0.55789 0.02484 0.41014 0.0
H2083 H 0.56974 0.04032 0.31072 0.0
H2084 H 0.61791 0.00936 0.20119 0.0
H2085 H 0.62127 0.98189 0.28242 0.0
C2086 C 0.59803 0.97896 0.3885 0.0
C2087 C 0.58435 0.97917 0.44099 0.0
C2088 C 0.59714 0.99514 0.34321 0.0
C2089 C 0.57043 0.99616 0.44839 0.0
C2090 C 0.56932 0.01225 0.40374 0.0
C2091 C 0.58124 0.02772 0.30525 0.0
C2092 C 0.59395 0.02702 0.25107 0.0
C2093 C 0.58256 0.01185 0.35091 0.0
C2094 C 0.6082 0.01027 0.24302 0.0
C2095 C 0.61004 0.99461 0.28931 0.0
H2096 H 0.20235 0.32435 0.58042 0.0
H2097 H 0.24624 0.32958 0.42603 0.0
H2098 H 0.27597 0.32886 0.50034 0.0
H2099 H 0.28925 0.32756 0.60888 0.0
H2100 H 0.24552 0.31989 0.76287 0.0
H2101 H 0.21579 0.32064 0.68859 0.0
C2102 C 0.21843 0.32548 0.56296 0.0
C2103 C 0.22207 0.32752 0.49773 0.0
C2104 C 0.23537 0.32461 0.60582 0.0
C2105 C 0.243 0.32825 0.47585 0.0
C2106 C 0.25997 0.32785 0.51838 0.0
C2107 C 0.27321 0.32621 0.62648 0.0
C2108 C 0.26963 0.32415 0.69178 0.0
C2109 C 0.25631 0.32624 0.58345 0.0
C2110 C 0.24875 0.32174 0.7132 0.0
C2111 C 0.23177 0.32218 0.67068 0.0
H2112 H 0.91581 0.04491 0.85045 0.0
H2113 H 0.89147 0.00111 0.98809 0.0
H2114 H 0.88706 0.97437 0.90613 0.0
H2115 H 0.89281 0.96277 0.79868 0.0
H2116 H 0.92011 0.00539 0.66248 0.0
H2117 H 0.92031 0.03361 0.74121 0.0
C2118 C 0.90904 0.0297 0.86241 0.0
C2119 C 0.90368 0.0251 0.92522 0.0
C2120 C 0.90722 0.01424 0.81559 0.0
C2121 C 0.89552 0.00509 0.94009 0.0
C2122 C 0.89309 0.98981 0.89332 0.0
C2123 C 0.89854 0.97829 0.78551 0.0
C2124 C 0.90645 0.98191 0.72453 0.0
C2125 C 0.89926 0.99412 0.8313 0.0
C2126 C 0.91386 0.00215 0.70887 0.0
C2127 C 0.91408 0.01825 0.75396 0.0
H2128 H 0.21002 0.6975 0.12001 0.0
H2129 H 0.23897 0.64676 0.2233 0.0
H2130 H 0.26715 0.64427 0.14424 0.0
H2131 H 0.28275 0.65572 0.04405 0.0
H2132 H 0.25312 0.70595 0.94018 0.0
H2133 H 0.22602 0.70929 0.01991 0.0
C2134 C 0.2228 0.68623 0.12572 0.0
C2135 C 0.22279 0.67268 0.17812 0.0
C2136 C 0.2386 0.68454 0.07919 0.0
C2137 C 0.239 0.65769 0.18419 0.0
C2138 C 0.25494 0.65613 0.13861 0.0
C2139 C 0.27034 0.66737 0.03825 0.0
C2140 C 0.27024 0.68056 0.98452 0.0
C2141 C 0.25475 0.66929 0.08541 0.0
C2142 C 0.25384 0.69544 0.97929 0.0
C2143 C 0.23828 0.69747 0.02576 0.0
H2144 H 0.39224 0.95121 0.85608 0.0
H2145 H 0.4398 0.9833 0.96632 0.0
H2146 H 0.44515 0.00882 0.88287 0.0
H2147 H 0.43567 0.02311 0.78056 0.0
H2148 H 0.3861 0.99421 0.67178 0.0
H2149 H 0.3821 0.96642 0.75192 0.0
C2150 C 0.40353 0.96397 0.86178 0.0
C2151 C 0.41528 0.96558 0.91778 0.0
C2152 C 0.40629 0.97907 0.81366 0.0
C2153 C 0.43008 0.98205 0.92447 0.0
C2154 C 0.43338 0.99654 0.87647 0.0
C2155 C 0.42426 0.01047 0.77409 0.0
C2156 C 0.41149 0.01029 0.72035 0.0
C2157 C 0.42153 0.99528 0.82114 0.0
C2158 C 0.3964 0.99425 0.71249 0.0
C2159 C 0.39399 0.97855 0.75854 0.0
H2160 H 0.78585 0.63466 0.61218 0.0
H2161 H 0.74601 0.66765 0.74495 0.0
H2162 H 0.71751 0.66868 0.66809 0.0
H2163 H 0.70431 0.66176 0.56195 0.0
H2164 H 0.74448 0.63128 0.42586 0.0
H2165 H 0.77239 0.62743 0.50557 0.0
C2166 C 0.77081 0.64172 0.62478 0.0
C2167 C 0.76809 0.65079 0.68478 0.0
C2168 C 0.75453 0.64268 0.57978 0.0
C2169 C 0.74853 0.66018 0.69974 0.0
C2170 C 0.73222 0.66094 0.6556 0.0
C2171 C 0.71905 0.6539 0.5502 0.0
C2172 C 0.72225 0.64632 0.48889 0.0
C2173 C 0.7351 0.65239 0.59544 0.0
C2174 C 0.74165 0.63694 0.47317 0.0
C2175 C 0.75756 0.63481 0.51862 0.0
H2176 H 0.08941 0.99511 0.2043 0.0
H2177 H 0.09037 0.94032 0.32504 0.0
H2178 H 0.09553 0.96265 0.41636 0.0
H2179 H 0.097 -0.00201 0.46424 0.0
H2180 H 0.09579 0.05278 0.34363 0.0
H2181 H 0.09442 0.0303 0.25145 0.0
C2182 C 0.09113 0.98801 0.25037 0.0
C2183 C 0.08939 0.96597 0.25712 0.0
C2184 C 0.09418 0.001 0.30355 0.0
C2185 C 0.09164 0.95719 0.31768 0.0
C2186 C 0.09458 0.96998 0.37044 0.0
C2187 C 0.09678 0.00504 0.41784 0.0
C2188 C 0.09601 0.02716 0.41171 0.0
C2189 C 0.09552 0.99195 0.36423 0.0
C2190 C 0.09617 0.03585 0.35064 0.0
C2191 C 0.0952 0.02297 0.29739 0.0
H2192 H 0.70461 0.34832 0.09651 0.0
H2193 H 0.75162 0.34892 0.24396 0.0
H2194 H 0.77974 0.34995 0.16541 0.0
H2195 H 0.7907 0.34655 0.05653 0.0
H2196 H 0.74367 0.3421 0.90951 0.0
H2197 H 0.71563 0.34708 0.98691 0.0
C2198 C 0.72099 0.34928 0.11157 0.0
C2199 C 0.72607 0.34876 0.17582 0.0
C2200 C 0.73699 0.349 0.06641 0.0
C2201 C 0.74736 0.34947 0.19466 0.0
C2202 C 0.76341 0.34995 0.14986 0.0
C2203 C 0.77437 0.34713 0.04097 0.0
C2204 C 0.76931 0.34392 0.97736 0.0
C2205 C 0.75837 0.34915 0.08574 0.0
C2206 C 0.74802 0.34457 0.95823 0.0
C2207 C 0.73197 0.3473 1.00244 0.0
loop_
_geom_bond_atom_site_label_1
_geom_bond_atom_site_label_2
_geom_bond_distance
_geom_bond_site_symmetry_2
_ccdc_geom_bond_type
O0 Mn1 2.163 . S
O0 C14 1.244 . S
Mn1 O0 2.163 . S
Mn1 O4 2.160 . S
Mn1 O5 2.221 . S
Mn1 O7 2.163 . S
Mn1 O9 2.160 . S
Mn1 O19 2.221 . S
O2 Mn3 2.087 . S
O2 C14 1.256 . S
Mn3 O2 2.087 . S
Mn3 O10 2.089 . S
Mn3 O19 2.290 . S
Mn3 O20 2.251 . S
O4 Mn1 2.160 . S
O4 C15 1.239 1_554 S
O5 Mn1 2.221 . S
O5 Mn6 2.290 1_554 S
O5 C16 1.278 . S
Mn6 O5 2.290 1_556 S
Mn6 O8 2.089 . S
Mn6 O11 2.251 1_556 S
Mn6 O12 2.087 . S
O7 Mn1 2.163 . S
O7 C17 1.244 1_554 S
O8 Mn6 2.089 . S
O8 C15 1.256 . S
O9 Mn1 2.160 . S
O9 C18 1.239 . S
O10 Mn3 2.089 . S
O10 C18 1.256 . S
O11 Mn6 2.251 1_554 S
O11 C16 1.241 . S
O12 Mn6 2.087 . S
O12 C17 1.256 . S
C13 O19 1.278 . S
C13 O20 1.241 . S
C14 O0 1.244 . S
C14 O2 1.256 . S
C15 O4 1.239 1_556 S
C15 O8 1.256 . S
C16 O5 1.278 . S
C16 O11 1.241 . S
C17 O7 1.244 1_556 S
C17 O12 1.256 . S
C18 O9 1.239 . S
C18 O10 1.256 . S
O19 Mn1 2.221 . S
O19 Mn3 2.290 . S
O19 C13 1.278 . S
O20 Mn3 2.251 . S
O20 C13 1.241 . S
O21 Mn22 2.163 . S
O21 C35 1.244 . S
Mn22 O21 2.163 . S
Mn22 O25 2.160 . S
Mn22 O26 2.221 . S
Mn22 O28 2.163 . S
Mn22 O30 2.160 . S
Mn22 O40 2.221 . S
O23 Mn24 2.087 . S
O23 C35 1.256 . S
Mn24 O23 2.087 . S
Mn24 O31 2.089 . S
Mn24 O40 2.290 . S
Mn24 O41 2.251 . S
O25 Mn22 2.160 . S
O25 C36 1.239 . S
O26 Mn22 2.221 . S
O26 Mn27 2.290 . S
O26 C37 1.278 . S
Mn27 O26 2.290 . S
Mn27 O29 2.089 . S
Mn27 O32 2.251 . S
Mn27 O33 2.087 . S
O28 Mn22 2.163 . S
O28 C38 1.244 . S
O29 Mn27 2.089 . S
O29 C36 1.256 . S
O30 Mn22 2.160 . S
O30 C39 1.239 . S
O31 Mn24 2.089 . S
O31 C39 1.256 . S
O32 Mn27 2.251 . S
O32 C37 1.241 . S
O33 Mn27 2.087 . S
O33 C38 1.256 . S
C34 O40 1.278 . S
C34 O41 1.241 . S
C35 O21 1.244 . S
C35 O23 1.256 . S
C36 O25 1.239 . S
C36 O29 1.256 . S
C37 O26 1.278 . S
C37 O32 1.241 . S
C38 O28 1.244 . S
C38 O33 1.256 . S
C39 O30 1.239 . S
C39 O31 1.256 . S
O40 Mn22 2.221 . S
O40 Mn24 2.290 . S
O40 C34 1.278 . S
O41 Mn24 2.251 . S
O41 C34 1.241 . S
O42 Mn43 2.163 . S
O42 C56 1.244 . S
Mn43 O42 2.163 . S
Mn43 O46 2.160 . S
Mn43 O47 2.221 . S
Mn43 O49 2.163 . S
Mn43 O51 2.160 . S
Mn43 O61 2.221 . S
O44 Mn45 2.087 . S
O44 C56 1.256 . S
Mn45 O44 2.087 . S
Mn45 O52 2.089 . S
Mn45 O61 2.290 . S
Mn45 O62 2.251 . S
O46 Mn43 2.160 . S
O46 C57 1.239 . S
O47 Mn43 2.221 . S
O47 Mn48 2.290 . S
O47 C58 1.278 . S
Mn48 O47 2.290 . S
Mn48 O50 2.089 . S
Mn48 O53 2.251 . S
Mn48 O54 2.087 . S
O49 Mn43 2.163 . S
O49 C59 1.244 . S
O50 Mn48 2.089 . S
O50 C57 1.256 . S
O51 Mn43 2.160 . S
O51 C60 1.239 . S
O52 Mn45 2.089 . S
O52 C60 1.256 . S
O53 Mn48 2.251 . S
O53 C58 1.241 . S
O54 Mn48 2.087 . S
O54 C59 1.256 . S
C55 O61 1.278 . S
C55 O62 1.241 . S
C56 O42 1.244 . S
C56 O44 1.256 . S
C57 O46 1.239 . S
C57 O50 1.256 . S
C58 O47 1.278 . S
C58 O53 1.241 . S
C59 O49 1.244 . S
C59 O54 1.256 . S
C60 O51 1.239 . S
C60 O52 1.256 . S
O61 Mn43 2.221 . S
O61 Mn45 2.290 . S
O61 C55 1.278 . S
O62 Mn45 2.251 . S
O62 C55 1.241 . S
O63 Mn64 2.163 . S
O63 C77 1.244 . S
Mn64 O63 2.163 . S
Mn64 O67 2.160 . S
Mn64 O68 2.221 . S
Mn64 O70 2.163 . S
Mn64 O72 2.160 . S
Mn64 O82 2.221 . S
O65 Mn66 2.087 . S
O65 C77 1.256 . S
Mn66 O65 2.087 . S
Mn66 O73 2.089 . S
Mn66 O82 2.290 . S
Mn66 O83 2.251 . S
O67 Mn64 2.160 . S
O67 C78 1.239 . S
O68 Mn64 2.221 . S
O68 Mn69 2.290 . S
O68 C79 1.278 . S
Mn69 O68 2.290 . S
Mn69 O71 2.089 . S
Mn69 O74 2.251 . S
Mn69 O75 2.087 . S
O70 Mn64 2.163 . S
O70 C80 1.244 . S
O71 Mn69 2.089 . S
O71 C78 1.256 . S
O72 Mn64 2.160 . S
O72 C81 1.239 . S
O73 Mn66 2.089 . S
O73 C81 1.256 . S
O74 Mn69 2.251 . S
O74 C79 1.241 . S
O75 Mn69 2.087 . S
O75 C80 1.256 . S
C76 O82 1.278 . S
C76 O83 1.241 . S
C77 O63 1.244 . S
C77 O65 1.256 . S
C78 O67 1.239 . S
C78 O71 1.256 . S
C79 O68 1.278 . S
C79 O74 1.241 . S
C80 O70 1.244 . S
C80 O75 1.256 . S
C81 O72 1.239 . S
C81 O73 1.256 . S
O82 Mn64 2.221 . S
O82 Mn66 2.290 . S
O82 C76 1.278 . S
O83 Mn66 2.251 . S
O83 C76 1.241 . S
O84 Mn85 2.163 . S
O84 C98 1.244 . S
Mn85 O84 2.163 . S
Mn85 O88 2.160 . S
Mn85 O89 2.221 . S
Mn85 O91 2.163 . S
Mn85 O93 2.160 . S
Mn85 O103 2.221 . S
O86 Mn87 2.087 . S
O86 C98 1.256 . S
Mn87 O86 2.087 . S
Mn87 O94 2.089 . S
Mn87 O103 2.290 . S
Mn87 O104 2.251 . S
O88 Mn85 2.160 . S
O88 C99 1.239 . S
O89 Mn85 2.221 . S
O89 Mn90 2.290 . S
O89 C100 1.278 . S
Mn90 O89 2.290 . S
Mn90 O92 2.089 . S
Mn90 O95 2.251 . S
Mn90 O96 2.087 . S
O91 Mn85 2.163 . S
O91 C101 1.244 . S
O92 Mn90 2.089 . S
O92 C99 1.256 . S
O93 Mn85 2.160 . S
O93 C102 1.239 . S
O94 Mn87 2.089 . S
O94 C102 1.256 . S
O95 Mn90 2.251 . S
O95 C100 1.241 . S
O96 Mn90 2.087 . S
O96 C101 1.256 . S
C97 O103 1.278 . S
C97 O104 1.241 . S
C98 O84 1.244 . S
C98 O86 1.256 . S
C99 O88 1.239 . S
C99 O92 1.256 . S
C100 O89 1.278 . S
C100 O95 1.241 . S
C101 O91 1.244 . S
C101 O96 1.256 . S
C102 O93 1.239 . S
C102 O94 1.256 . S
O103 Mn85 2.221 . S
O103 Mn87 2.290 . S
O103 C97 1.278 . S
O104 Mn87 2.251 . S
O104 C97 1.241 . S
O105 Mn106 2.163 . S
O105 C119 1.244 . S
Mn106 O105 2.163 . S
Mn106 O109 2.160 . S
Mn106 O110 2.221 . S
Mn106 O112 2.163 . S
Mn106 O114 2.160 . S
Mn106 O124 2.221 . S
O107 Mn108 2.087 . S
O107 C119 1.256 . S
Mn108 O107 2.087 . S
Mn108 O115 2.089 . S
Mn108 O124 2.290 . S
Mn108 O125 2.251 . S
O109 Mn106 2.160 . S
O109 C120 1.239 . S
O110 Mn106 2.221 . S
O110 Mn111 2.290 . S
O110 C121 1.278 . S
Mn111 O110 2.290 . S
Mn111 O113 2.089 . S
Mn111 O116 2.251 . S
Mn111 O117 2.087 . S
O112 Mn106 2.163 . S
O112 C122 1.244 . S
O113 Mn111 2.089 . S
O113 C120 1.256 . S
O114 Mn106 2.160 . S
O114 C123 1.239 . S
O115 Mn108 2.089 . S
O115 C123 1.256 . S
O116 Mn111 2.251 . S
O116 C121 1.241 . S
O117 Mn111 2.087 . S
O117 C122 1.256 . S
C118 O124 1.278 . S
C118 O125 1.241 . S
C119 O105 1.244 . S
C119 O107 1.256 . S
C120 O109 1.239 . S
C120 O113 1.256 . S
C121 O110 1.278 . S
C121 O116 1.241 . S
C122 O112 1.244 . S
C122 O117 1.256 . S
C123 O114 1.239 . S
C123 O115 1.256 . S
O124 Mn106 2.221 . S
O124 Mn108 2.290 . S
O124 C118 1.278 . S
O125 Mn108 2.251 . S
O125 C118 1.241 . S
O126 Mn127 2.163 1_556 S
O126 C140 1.244 . S
Mn127 O126 2.163 1_554 S
Mn127 O130 2.160 . S
Mn127 O131 2.221 . S
Mn127 O133 2.163 . S
Mn127 O135 2.160 1_554 S
Mn127 O145 2.221 . S
O128 Mn129 2.087 . S
O128 C140 1.256 . S
Mn129 O128 2.087 . S
Mn129 O136 2.089 . S
Mn129 O145 2.290 1_556 S
Mn129 O146 2.251 1_556 S
O130 Mn127 2.160 . S
O130 C141 1.239 . S
O131 Mn127 2.221 . S
O131 Mn132 2.290 . S
O131 C142 1.278 . S
Mn132 O131 2.290 . S
Mn132 O134 2.089 . S
Mn132 O137 2.251 . S
Mn132 O138 2.087 . S
O133 Mn127 2.163 . S
O133 C143 1.244 . S
O134 Mn132 2.089 . S
O134 C141 1.256 . S
O135 Mn127 2.160 1_556 S
O135 C144 1.239 . S
O136 Mn129 2.089 . S
O136 C144 1.256 . S
O137 Mn132 2.251 . S
O137 C142 1.241 . S
O138 Mn132 2.087 . S
O138 C143 1.256 . S
C139 O145 1.278 . S
C139 O146 1.241 . S
C140 O126 1.244 . S
C140 O128 1.256 . S
C141 O130 1.239 . S
C141 O134 1.256 . S
C142 O131 1.278 . S
C142 O137 1.241 . S
C143 O133 1.244 . S
C143 O138 1.256 . S
C144 O135 1.239 . S
C144 O136 1.256 . S
O145 Mn127 2.221 . S
O145 Mn129 2.290 1_554 S
O145 C139 1.278 . S
O146 Mn129 2.251 1_554 S
O146 C139 1.241 . S
O147 Mn148 2.163 . S
O147 C161 1.244 . S
Mn148 O147 2.163 . S
Mn148 O151 2.160 . S
Mn148 O152 2.221 . S
Mn148 O154 2.163 . S
Mn148 O156 2.160 . S
Mn148 O166 2.221 . S
O149 Mn150 2.087 . S
O149 C161 1.256 . S
Mn150 O149 2.087 . S
Mn150 O157 2.089 . S
Mn150 O166 2.290 . S
Mn150 O167 2.251 . S
O151 Mn148 2.160 . S
O151 C162 1.239 . S
O152 Mn148 2.221 . S
O152 Mn153 2.290 . S
O152 C163 1.278 . S
Mn153 O152 2.290 . S
Mn153 O155 2.089 . S
Mn153 O158 2.251 . S
Mn153 O159 2.087 . S
O154 Mn148 2.163 . S
O154 C164 1.244 . S
O155 Mn153 2.089 . S
O155 C162 1.256 . S
O156 Mn148 2.160 . S
O156 C165 1.239 . S
O157 Mn150 2.089 . S
O157 C165 1.256 . S
O158 Mn153 2.251 . S
O158 C163 1.241 . S
O159 Mn153 2.087 . S
O159 C164 1.256 . S
C160 O166 1.278 . S
C160 O167 1.241 . S
C161 O147 1.244 . S
C161 O149 1.256 . S
C162 O151 1.239 . S
C162 O155 1.256 . S
C163 O152 1.278 . S
C163 O158 1.241 . S
C164 O154 1.244 . S
C164 O159 1.256 . S
C165 O156 1.239 . S
C165 O157 1.256 . S
O166 Mn148 2.221 . S
O166 Mn150 2.290 . S
O166 C160 1.278 . S
O167 Mn150 2.251 . S
O167 C160 1.241 . S
O168 Mn169 2.163 . S
O168 C182 1.244 . S
Mn169 O168 2.163 . S
Mn169 O172 2.160 1_554 S
Mn169 O173 2.221 . S
Mn169 O175 2.163 1_554 S
Mn169 O177 2.160 . S
Mn169 O187 2.221 . S
O170 Mn171 2.087 . S
O170 C182 1.256 . S
Mn171 O170 2.087 . S
Mn171 O178 2.089 . S
Mn171 O187 2.290 . S
Mn171 O188 2.251 . S
O172 Mn169 2.160 1_556 S
O172 C183 1.239 . S
O173 Mn169 2.221 . S
O173 Mn174 2.290 1_554 S
O173 C184 1.278 . S
Mn174 O173 2.290 1_556 S
Mn174 O176 2.089 . S
Mn174 O179 2.251 1_556 S
Mn174 O180 2.087 . S
O175 Mn169 2.163 1_556 S
O175 C185 1.244 . S
O176 Mn174 2.089 . S
O176 C183 1.256 . S
O177 Mn169 2.160 . S
O177 C186 1.239 . S
O178 Mn171 2.089 . S
O178 C186 1.256 . S
O179 Mn174 2.251 1_554 S
O179 C184 1.241 . S
O180 Mn174 2.087 . S
O180 C185 1.256 . S
C181 O187 1.278 . S
C181 O188 1.241 . S
C182 O168 1.244 . S
C182 O170 1.256 . S
C183 O172 1.239 . S
C183 O176 1.256 . S
C184 O173 1.278 . S
C184 O179 1.241 . S
C185 O175 1.244 . S
C185 O180 1.256 . S
C186 O177 1.239 . S
C186 O178 1.256 . S
O187 Mn169 2.221 . S
O187 Mn171 2.290 . S
O187 C181 1.278 . S
O188 Mn171 2.251 . S
O188 C181 1.241 . S
O189 Mn190 2.163 . S
O189 C203 1.244 . S
Mn190 O189 2.163 . S
Mn190 O193 2.160 . S
Mn190 O194 2.221 . S
Mn190 O196 2.163 . S
Mn190 O198 2.160 . S
Mn190 O208 2.221 . S
O191 Mn192 2.087 . S
O191 C203 1.256 . S
Mn192 O191 2.087 . S
Mn192 O199 2.089 . S
Mn192 O208 2.290 . S
Mn192 O209 2.251 . S
O193 Mn190 2.160 . S
O193 C204 1.239 . S
O194 Mn190 2.221 . S
O194 Mn195 2.290 . S
O194 C205 1.278 . S
Mn195 O194 2.290 . S
Mn195 O197 2.089 . S
Mn195 O200 2.251 . S
Mn195 O201 2.087 . S
O196 Mn190 2.163 . S
O196 C206 1.244 . S
O197 Mn195 2.089 . S
O197 C204 1.256 . S
O198 Mn190 2.160 . S
O198 C207 1.239 . S
O199 Mn192 2.089 . S
O199 C207 1.256 . S
O200 Mn195 2.251 . S
O200 C205 1.241 . S
O201 Mn195 2.087 . S
O201 C206 1.256 . S
C202 O208 1.278 . S
C202 O209 1.241 . S
C203 O189 1.244 . S
C203 O191 1.256 . S
C204 O193 1.239 . S
C204 O197 1.256 . S
C205 O194 1.278 . S
C205 O200 1.241 . S
C206 O196 1.244 . S
C206 O201 1.256 . S
C207 O198 1.239 . S
C207 O199 1.256 . S
O208 Mn190 2.221 . S
O208 Mn192 2.290 . S
O208 C202 1.278 . S
O209 Mn192 2.251 . S
O209 C202 1.241 . S
O210 Mn211 2.163 . S
O210 C224 1.244 . S
Mn211 O210 2.163 . S
Mn211 O214 2.160 . S
Mn211 O215 2.221 . S
Mn211 O217 2.163 . S
Mn211 O219 2.160 . S
Mn211 O229 2.221 . S
O212 Mn213 2.087 . S
O212 C224 1.256 . S
Mn213 O212 2.087 . S
Mn213 O220 2.089 . S
Mn213 O229 2.290 . S
Mn213 O230 2.251 . S
O214 Mn211 2.160 . S
O214 C225 1.239 . S
O215 Mn211 2.221 . S
O215 Mn216 2.290 . S
O215 C226 1.278 . S
Mn216 O215 2.290 . S
Mn216 O218 2.089 . S
Mn216 O221 2.251 . S
Mn216 O222 2.087 . S
O217 Mn211 2.163 . S
O217 C227 1.244 . S
O218 Mn216 2.089 . S
O218 C225 1.256 . S
O219 Mn211 2.160 . S
O219 C228 1.239 . S
O220 Mn213 2.089 . S
O220 C228 1.256 . S
O221 Mn216 2.251 . S
O221 C226 1.241 . S
O222 Mn216 2.087 . S
O222 C227 1.256 . S
C223 O229 1.278 . S
C223 O230 1.241 . S
C224 O210 1.244 . S
C224 O212 1.256 . S
C225 O214 1.239 . S
C225 O218 1.256 . S
C226 O215 1.278 . S
C226 O221 1.241 . S
C227 O217 1.244 . S
C227 O222 1.256 . S
C228 O219 1.239 . S
C228 O220 1.256 . S
O229 Mn211 2.221 . S
O229 Mn213 2.290 . S
O229 C223 1.278 . S
O230 Mn213 2.251 . S
O230 C223 1.241 . S
O231 Mn232 2.163 . S
O231 C245 1.244 . S
Mn232 O231 2.163 . S
Mn232 O235 2.160 . S
Mn232 O236 2.221 . S
Mn232 O238 2.163 . S
Mn232 O240 2.160 . S
Mn232 O250 2.221 . S
O233 Mn234 2.087 . S
O233 C245 1.256 . S
Mn234 O233 2.087 . S
Mn234 O241 2.089 . S
Mn234 O250 2.290 . S
Mn234 O251 2.251 . S
O235 Mn232 2.160 . S
O235 C246 1.239 . S
O236 Mn232 2.221 . S
O236 Mn237 2.290 . S
O236 C247 1.278 . S
Mn237 O236 2.290 . S
Mn237 O239 2.089 . S
Mn237 O242 2.251 . S
Mn237 O243 2.087 . S
O238 Mn232 2.163 . S
O238 C248 1.244 . S
O239 Mn237 2.089 . S
O239 C246 1.256 . S
O240 Mn232 2.160 . S
O240 C249 1.239 . S
O241 Mn234 2.089 . S
O241 C249 1.256 . S
O242 Mn237 2.251 . S
O242 C247 1.241 . S
O243 Mn237 2.087 . S
O243 C248 1.256 . S
C244 O250 1.278 . S
C244 O251 1.241 . S
C245 O231 1.244 . S
C245 O233 1.256 . S
C246 O235 1.239 . S
C246 O239 1.256 . S
C247 O236 1.278 . S
C247 O242 1.241 . S
C248 O238 1.244 . S
C248 O243 1.256 . S
C249 O240 1.239 . S
C249 O241 1.256 . S
O250 Mn232 2.221 . S
O250 Mn234 2.290 . S
O250 C244 1.278 . S
O251 Mn234 2.251 . S
O251 C244 1.241 . S
O252 Mn253 2.163 . S
O252 C266 1.244 . S
Mn253 O252 2.163 . S
Mn253 O256 2.160 . S
Mn253 O257 2.221 . S
Mn253 O259 2.163 . S
Mn253 O261 2.160 . S
Mn253 O271 2.221 . S
O254 Mn255 2.087 . S
O254 C266 1.256 . S
Mn255 O254 2.087 . S
Mn255 O262 2.089 . S
Mn255 O271 2.290 . S
Mn255 O272 2.251 . S
O256 Mn253 2.160 . S
O256 C267 1.239 . S
O257 Mn253 2.221 . S
O257 Mn258 2.290 . S
O257 C268 1.278 . S
Mn258 O257 2.290 . S
Mn258 O260 2.089 . S
Mn258 O263 2.251 . S
Mn258 O264 2.087 . S
O259 Mn253 2.163 . S
O259 C269 1.244 . S
O260 Mn258 2.089 . S
O260 C267 1.256 . S
O261 Mn253 2.160 . S
O261 C270 1.239 . S
O262 Mn255 2.089 . S
O262 C270 1.256 . S
O263 Mn258 2.251 . S
O263 C268 1.241 . S
O264 Mn258 2.087 . S
O264 C269 1.256 . S
C265 O271 1.278 . S
C265 O272 1.241 . S
C266 O252 1.244 . S
C266 O254 1.256 . S
C267 O256 1.239 . S
C267 O260 1.256 . S
C268 O257 1.278 . S
C268 O263 1.241 . S
C269 O259 1.244 . S
C269 O264 1.256 . S
C270 O261 1.239 . S
C270 O262 1.256 . S
O271 Mn253 2.221 . S
O271 Mn255 2.290 . S
O271 C265 1.278 . S
O272 Mn255 2.251 . S
O272 C265 1.241 . S
O273 Mn274 2.163 . S
O273 C287 1.244 . S
Mn274 O273 2.163 . S
Mn274 O277 2.160 . S
Mn274 O278 2.221 . S
Mn274 O280 2.163 . S
Mn274 O282 2.160 . S
Mn274 O292 2.221 . S
O275 Mn276 2.087 . S
O275 C287 1.256 . S
Mn276 O275 2.087 . S
Mn276 O283 2.089 . S
Mn276 O292 2.290 . S
Mn276 O293 2.251 . S
O277 Mn274 2.160 . S
O277 C288 1.239 . S
O278 Mn274 2.221 . S
O278 Mn279 2.290 . S
O278 C289 1.278 . S
Mn279 O278 2.290 . S
Mn279 O281 2.089 . S
Mn279 O284 2.251 . S
Mn279 O285 2.087 . S
O280 Mn274 2.163 . S
O280 C290 1.244 . S
O281 Mn279 2.089 . S
O281 C288 1.256 . S
O282 Mn274 2.160 . S
O282 C291 1.239 . S
O283 Mn276 2.089 . S
O283 C291 1.256 . S
O284 Mn279 2.251 . S
O284 C289 1.241 . S
O285 Mn279 2.087 . S
O285 C290 1.256 . S
C286 O292 1.278 . S
C286 O293 1.241 . S
C287 O273 1.244 . S
C287 O275 1.256 . S
C288 O277 1.239 . S
C288 O281 1.256 . S
C289 O278 1.278 . S
C289 O284 1.241 . S
C290 O280 1.244 . S
C290 O285 1.256 . S
C291 O282 1.239 . S
C291 O283 1.256 . S
O292 Mn274 2.221 . S
O292 Mn276 2.290 . S
O292 C286 1.278 . S
O293 Mn276 2.251 . S
O293 C286 1.241 . S
O294 Mn295 2.163 . S
O294 C308 1.244 . S
Mn295 O294 2.163 . S
Mn295 O298 2.160 . S
Mn295 O299 2.221 . S
Mn295 O301 2.163 . S
Mn295 O303 2.160 . S
Mn295 O313 2.221 . S
O296 Mn297 2.087 . S
O296 C308 1.256 . S
Mn297 O296 2.087 . S
Mn297 O304 2.089 . S
Mn297 O313 2.290 . S
Mn297 O314 2.251 . S
O298 Mn295 2.160 . S
O298 C309 1.239 1_554 S
O299 Mn295 2.221 . S
O299 Mn300 2.290 1_554 S
O299 C310 1.278 . S
Mn300 O299 2.290 1_556 S
Mn300 O302 2.089 . S
Mn300 O305 2.251 1_556 S
Mn300 O306 2.087 . S
O301 Mn295 2.163 . S
O301 C311 1.244 1_554 S
O302 Mn300 2.089 . S
O302 C309 1.256 . S
O303 Mn295 2.160 . S
O303 C312 1.239 . S
O304 Mn297 2.089 . S
O304 C312 1.256 . S
O305 Mn300 2.251 1_554 S
O305 C310 1.241 . S
O306 Mn300 2.087 . S
O306 C311 1.256 . S
C307 O313 1.278 . S
C307 O314 1.241 . S
C308 O294 1.244 . S
C308 O296 1.256 . S
C309 O298 1.239 1_556 S
C309 O302 1.256 . S
C310 O299 1.278 . S
C310 O305 1.241 . S
C311 O301 1.244 1_556 S
C311 O306 1.256 . S
C312 O303 1.239 . S
C312 O304 1.256 . S
O313 Mn295 2.221 . S
O313 Mn297 2.290 . S
O313 C307 1.278 . S
O314 Mn297 2.251 . S
O314 C307 1.241 . S
O315 Mn316 2.163 . S
O315 C329 1.244 . S
Mn316 O315 2.163 . S
Mn316 O319 2.160 . S
Mn316 O320 2.221 . S
Mn316 O322 2.163 . S
Mn316 O324 2.160 . S
Mn316 O334 2.221 . S
O317 Mn318 2.087 . S
O317 C329 1.256 . S
Mn318 O317 2.087 . S
Mn318 O325 2.089 . S
Mn318 O334 2.290 . S
Mn318 O335 2.251 . S
O319 Mn316 2.160 . S
O319 C330 1.239 . S
O320 Mn316 2.221 . S
O320 Mn321 2.290 . S
O320 C331 1.278 . S
Mn321 O320 2.290 . S
Mn321 O323 2.089 . S
Mn321 O326 2.251 . S
Mn321 O327 2.087 . S
O322 Mn316 2.163 . S
O322 C332 1.244 . S
O323 Mn321 2.089 . S
O323 C330 1.256 . S
O324 Mn316 2.160 . S
O324 C333 1.239 . S
O325 Mn318 2.089 . S
O325 C333 1.256 . S
O326 Mn321 2.251 . S
O326 C331 1.241 . S
O327 Mn321 2.087 . S
O327 C332 1.256 . S
C328 O334 1.278 . S
C328 O335 1.241 . S
C329 O315 1.244 . S
C329 O317 1.256 . S
C330 O319 1.239 . S
C330 O323 1.256 . S
C331 O320 1.278 . S
C331 O326 1.241 . S
C332 O322 1.244 . S
C332 O327 1.256 . S
C333 O324 1.239 . S
C333 O325 1.256 . S
O334 Mn316 2.221 . S
O334 Mn318 2.290 . S
O334 C328 1.278 . S
O335 Mn318 2.251 . S
O335 C328 1.241 . S
O336 Mn337 2.163 . S
O336 C350 1.244 . S
Mn337 O336 2.163 . S
Mn337 O340 2.160 . S
Mn337 O341 2.221 . S
Mn337 O343 2.163 . S
Mn337 O345 2.160 . S
Mn337 O355 2.221 . S
O338 Mn339 2.087 . S
O338 C350 1.256 . S
Mn339 O338 2.087 . S
Mn339 O346 2.089 . S
Mn339 O355 2.290 . S
Mn339 O356 2.251 . S
O340 Mn337 2.160 . S
O340 C351 1.239 . S
O341 Mn337 2.221 . S
O341 Mn342 2.290 . S
O341 C352 1.278 . S
Mn342 O341 2.290 . S
Mn342 O344 2.089 . S
Mn342 O347 2.251 . S
Mn342 O348 2.087 . S
O343 Mn337 2.163 . S
O343 C353 1.244 . S
O344 Mn342 2.089 . S
O344 C351 1.256 . S
O345 Mn337 2.160 . S
O345 C354 1.239 . S
O346 Mn339 2.089 . S
O346 C354 1.256 . S
O347 Mn342 2.251 . S
O347 C352 1.241 . S
O348 Mn342 2.087 . S
O348 C353 1.256 . S
C349 O355 1.278 . S
C349 O356 1.241 . S
C350 O336 1.244 . S
C350 O338 1.256 . S
C351 O340 1.239 . S
C351 O344 1.256 . S
C352 O341 1.278 . S
C352 O347 1.241 . S
C353 O343 1.244 . S
C353 O348 1.256 . S
C354 O345 1.239 . S
C354 O346 1.256 . S
O355 Mn337 2.221 . S
O355 Mn339 2.290 . S
O355 C349 1.278 . S
O356 Mn339 2.251 . S
O356 C349 1.241 . S
O357 Mn358 2.163 . S
O357 C371 1.244 . S
Mn358 O357 2.163 . S
Mn358 O361 2.160 . S
Mn358 O362 2.221 . S
Mn358 O364 2.163 . S
Mn358 O366 2.160 . S
Mn358 O376 2.221 . S
O359 Mn360 2.087 . S
O359 C371 1.256 . S
Mn360 O359 2.087 . S
Mn360 O367 2.089 . S
Mn360 O376 2.290 . S
Mn360 O377 2.251 . S
O361 Mn358 2.160 . S
O361 C372 1.239 . S
O362 Mn358 2.221 . S
O362 Mn363 2.290 . S
O362 C373 1.278 . S
Mn363 O362 2.290 . S
Mn363 O365 2.089 . S
Mn363 O368 2.251 . S
Mn363 O369 2.087 . S
O364 Mn358 2.163 . S
O364 C374 1.244 . S
O365 Mn363 2.089 . S
O365 C372 1.256 . S
O366 Mn358 2.160 . S
O366 C375 1.239 . S
O367 Mn360 2.089 . S
O367 C375 1.256 . S
O368 Mn363 2.251 . S
O368 C373 1.241 . S
O369 Mn363 2.087 . S
O369 C374 1.256 . S
C370 O376 1.278 . S
C370 O377 1.241 . S
C371 O357 1.244 . S
C371 O359 1.256 . S
C372 O361 1.239 . S
C372 O365 1.256 . S
C373 O362 1.278 . S
C373 O368 1.241 . S
C374 O364 1.244 . S
C374 O369 1.256 . S
C375 O366 1.239 . S
C375 O367 1.256 . S
O376 Mn358 2.221 . S
O376 Mn360 2.290 . S
O376 C370 1.278 . S
O377 Mn360 2.251 . S
O377 C370 1.241 . S
O378 Mn379 2.163 . S
O378 C392 1.244 . S
Mn379 O378 2.163 . S
Mn379 O382 2.160 . S
Mn379 O383 2.221 . S
Mn379 O385 2.163 . S
Mn379 O387 2.160 . S
Mn379 O397 2.221 . S
O380 Mn381 2.087 . S
O380 C392 1.256 . S
Mn381 O380 2.087 . S
Mn381 O388 2.089 . S
Mn381 O397 2.290 . S
Mn381 O398 2.251 . S
O382 Mn379 2.160 . S
O382 C393 1.239 1_554 S
O383 Mn379 2.221 . S
O383 Mn384 2.290 1_554 S
O383 C394 1.278 . S
Mn384 O383 2.290 1_556 S
Mn384 O386 2.089 . S
Mn384 O389 2.251 1_556 S
Mn384 O390 2.087 . S
O385 Mn379 2.163 . S
O385 C395 1.244 1_554 S
O386 Mn384 2.089 . S
O386 C393 1.256 . S
O387 Mn379 2.160 . S
O387 C396 1.239 . S
O388 Mn381 2.089 . S
O388 C396 1.256 . S
O389 Mn384 2.251 1_554 S
O389 C394 1.241 . S
O390 Mn384 2.087 . S
O390 C395 1.256 . S
C391 O397 1.278 . S
C391 O398 1.241 . S
C392 O378 1.244 . S
C392 O380 1.256 . S
C393 O382 1.239 1_556 S
C393 O386 1.256 . S
C394 O383 1.278 . S
C394 O389 1.241 . S
C395 O385 1.244 1_556 S
C395 O390 1.256 . S
C396 O387 1.239 . S
C396 O388 1.256 . S
O397 Mn379 2.221 . S
O397 Mn381 2.290 . S
O397 C391 1.278 . S
O398 Mn381 2.251 . S
O398 C391 1.241 . S
O399 Mn400 2.163 . S
O399 C413 1.244 . S
Mn400 O399 2.163 . S
Mn400 O403 2.160 . S
Mn400 O404 2.221 . S
Mn400 O406 2.163 . S
Mn400 O408 2.160 . S
Mn400 O418 2.221 . S
O401 Mn402 2.087 . S
O401 C413 1.256 . S
Mn402 O401 2.087 . S
Mn402 O409 2.089 . S
Mn402 O418 2.290 . S
Mn402 O419 2.251 . S
O403 Mn400 2.160 . S
O403 C414 1.239 . S
O404 Mn400 2.221 . S
O404 Mn405 2.290 . S
O404 C415 1.278 . S
Mn405 O404 2.290 . S
Mn405 O407 2.089 . S
Mn405 O410 2.251 . S
Mn405 O411 2.087 . S
O406 Mn400 2.163 . S
O406 C416 1.244 . S
O407 Mn405 2.089 . S
O407 C414 1.256 . S
O408 Mn400 2.160 . S
O408 C417 1.239 . S
O409 Mn402 2.089 . S
O409 C417 1.256 . S
O410 Mn405 2.251 . S
O410 C415 1.241 . S
O411 Mn405 2.087 . S
O411 C416 1.256 . S
C412 O418 1.278 . S
C412 O419 1.241 . S
C413 O399 1.244 . S
C413 O401 1.256 . S
C414 O403 1.239 . S
C414 O407 1.256 . S
C415 O404 1.278 . S
C415 O410 1.241 . S
C416 O406 1.244 . S
C416 O411 1.256 . S
C417 O408 1.239 . S
C417 O409 1.256 . S
O418 Mn400 2.221 . S
O418 Mn402 2.290 . S
O418 C412 1.278 . S
O419 Mn402 2.251 . S
O419 C412 1.241 . S
O420 Mn421 2.163 1_556 S
O420 C434 1.244 . S
Mn421 O420 2.163 1_554 S
Mn421 O424 2.160 . S
Mn421 O425 2.221 . S
Mn421 O427 2.163 . S
Mn421 O429 2.160 1_554 S
Mn421 O439 2.221 . S
O422 Mn423 2.087 . S
O422 C434 1.256 . S
Mn423 O422 2.087 . S
Mn423 O430 2.089 . S
Mn423 O439 2.290 1_556 S
Mn423 O440 2.251 1_556 S
O424 Mn421 2.160 . S
O424 C435 1.239 . S
O425 Mn421 2.221 . S
O425 Mn426 2.290 . S
O425 C436 1.278 . S
Mn426 O425 2.290 . S
Mn426 O428 2.089 . S
Mn426 O431 2.251 . S
Mn426 O432 2.087 . S
O427 Mn421 2.163 . S
O427 C437 1.244 . S
O428 Mn426 2.089 . S
O428 C435 1.256 . S
O429 Mn421 2.160 1_556 S
O429 C438 1.239 . S
O430 Mn423 2.089 . S
O430 C438 1.256 . S
O431 Mn426 2.251 . S
O431 C436 1.241 . S
O432 Mn426 2.087 . S
O432 C437 1.256 . S
C433 O439 1.278 . S
C433 O440 1.241 . S
C434 O420 1.244 . S
C434 O422 1.256 . S
C435 O424 1.239 . S
C435 O428 1.256 . S
C436 O425 1.278 . S
C436 O431 1.241 . S
C437 O427 1.244 . S
C437 O432 1.256 . S
C438 O429 1.239 . S
C438 O430 1.256 . S
O439 Mn421 2.221 . S
O439 Mn423 2.290 1_554 S
O439 C433 1.278 . S
O440 Mn423 2.251 1_554 S
O440 C433 1.241 . S
O441 Mn442 2.163 . S
O441 C455 1.244 . S
Mn442 O441 2.163 . S
Mn442 O445 2.160 . S
Mn442 O446 2.221 . S
Mn442 O448 2.163 . S
Mn442 O450 2.160 . S
Mn442 O460 2.221 . S
O443 Mn444 2.087 . S
O443 C455 1.256 . S
Mn444 O443 2.087 . S
Mn444 O451 2.089 . S
Mn444 O460 2.290 . S
Mn444 O461 2.251 . S
O445 Mn442 2.160 . S
O445 C456 1.239 . S
O446 Mn442 2.221 . S
O446 Mn447 2.290 . S
O446 C457 1.278 . S
Mn447 O446 2.290 . S
Mn447 O449 2.089 . S
Mn447 O452 2.251 . S
Mn447 O453 2.087 . S
O448 Mn442 2.163 . S
O448 C458 1.244 . S
O449 Mn447 2.089 . S
O449 C456 1.256 . S
O450 Mn442 2.160 . S
O450 C459 1.239 . S
O451 Mn444 2.089 . S
O451 C459 1.256 . S
O452 Mn447 2.251 . S
O452 C457 1.241 . S
O453 Mn447 2.087 . S
O453 C458 1.256 . S
C454 O460 1.278 . S
C454 O461 1.241 . S
C455 O441 1.244 . S
C455 O443 1.256 . S
C456 O445 1.239 . S
C456 O449 1.256 . S
C457 O446 1.278 . S
C457 O452 1.241 . S
C458 O448 1.244 . S
C458 O453 1.256 . S
C459 O450 1.239 . S
C459 O451 1.256 . S
O460 Mn442 2.221 . S
O460 Mn444 2.290 . S
O460 C454 1.278 . S
O461 Mn444 2.251 . S
O461 C454 1.241 . S
O462 Mn463 2.163 . S
O462 C476 1.244 . S
Mn463 O462 2.163 . S
Mn463 O466 2.160 . S
Mn463 O467 2.221 . S
Mn463 O469 2.163 . S
Mn463 O471 2.160 . S
Mn463 O481 2.221 . S
O464 Mn465 2.087 . S
O464 C476 1.256 . S
Mn465 O464 2.087 . S
Mn465 O472 2.089 . S
Mn465 O481 2.290 . S
Mn465 O482 2.251 . S
O466 Mn463 2.160 . S
O466 C477 1.239 . S
O467 Mn463 2.221 . S
O467 Mn468 2.290 . S
O467 C478 1.278 . S
Mn468 O467 2.290 . S
Mn468 O470 2.089 . S
Mn468 O473 2.251 . S
Mn468 O474 2.087 . S
O469 Mn463 2.163 . S
O469 C479 1.244 . S
O470 Mn468 2.089 . S
O470 C477 1.256 . S
O471 Mn463 2.160 . S
O471 C480 1.239 . S
O472 Mn465 2.089 . S
O472 C480 1.256 . S
O473 Mn468 2.251 . S
O473 C478 1.241 . S
O474 Mn468 2.087 . S
O474 C479 1.256 . S
C475 O481 1.278 . S
C475 O482 1.241 . S
C476 O462 1.244 . S
C476 O464 1.256 . S
C477 O466 1.239 . S
C477 O470 1.256 . S
C478 O467 1.278 . S
C478 O473 1.241 . S
C479 O469 1.244 . S
C479 O474 1.256 . S
C480 O471 1.239 . S
C480 O472 1.256 . S
O481 Mn463 2.221 . S
O481 Mn465 2.290 . S
O481 C475 1.278 . S
O482 Mn465 2.251 . S
O482 C475 1.241 . S
O483 Mn484 2.163 . S
O483 C497 1.244 . S
Mn484 O483 2.163 . S
Mn484 O487 2.160 . S
Mn484 O488 2.221 . S
Mn484 O490 2.163 . S
Mn484 O492 2.160 . S
Mn484 O502 2.221 . S
O485 Mn486 2.087 . S
O485 C497 1.256 . S
Mn486 O485 2.087 . S
Mn486 O493 2.089 . S
Mn486 O502 2.290 . S
Mn486 O503 2.251 . S
O487 Mn484 2.160 . S
O487 C498 1.239 . S
O488 Mn484 2.221 . S
O488 Mn489 2.290 . S
O488 C499 1.278 . S
Mn489 O488 2.290 . S
Mn489 O491 2.089 . S
Mn489 O494 2.251 . S
Mn489 O495 2.087 . S
O490 Mn484 2.163 . S
O490 C500 1.244 . S
O491 Mn489 2.089 . S
O491 C498 1.256 . S
O492 Mn484 2.160 . S
O492 C501 1.239 . S
O493 Mn486 2.089 . S
O493 C501 1.256 . S
O494 Mn489 2.251 . S
O494 C499 1.241 . S
O495 Mn489 2.087 . S
O495 C500 1.256 . S
C496 O502 1.278 . S
C496 O503 1.241 . S
C497 O483 1.244 . S
C497 O485 1.256 . S
C498 O487 1.239 . S
C498 O491 1.256 . S
C499 O488 1.278 . S
C499 O494 1.241 . S
C500 O490 1.244 . S
C500 O495 1.256 . S
C501 O492 1.239 . S
C501 O493 1.256 . S
O502 Mn484 2.221 . S
O502 Mn486 2.290 . S
O502 C496 1.278 . S
O503 Mn486 2.251 . S
O503 C496 1.241 . S
O504 Mn505 2.163 . S
O504 C518 1.244 . S
Mn505 O504 2.163 . S
Mn505 O508 2.160 . S
Mn505 O509 2.221 . S
Mn505 O511 2.163 . S
Mn505 O513 2.160 . S
Mn505 O523 2.221 . S
O506 Mn507 2.087 . S
O506 C518 1.256 . S
Mn507 O506 2.087 . S
Mn507 O514 2.089 . S
Mn507 O523 2.290 . S
Mn507 O524 2.251 . S
O508 Mn505 2.160 . S
O508 C519 1.239 . S
O509 Mn505 2.221 . S
O509 Mn510 2.290 . S
O509 C520 1.278 . S
Mn510 O509 2.290 . S
Mn510 O512 2.089 . S
Mn510 O515 2.251 . S
Mn510 O516 2.087 . S
O511 Mn505 2.163 . S
O511 C521 1.244 . S
O512 Mn510 2.089 . S
O512 C519 1.256 . S
O513 Mn505 2.160 . S
O513 C522 1.239 . S
O514 Mn507 2.089 . S
O514 C522 1.256 . S
O515 Mn510 2.251 . S
O515 C520 1.241 . S
O516 Mn510 2.087 . S
O516 C521 1.256 . S
C517 O523 1.278 . S
C517 O524 1.241 . S
C518 O504 1.244 . S
C518 O506 1.256 . S
C519 O508 1.239 . S
C519 O512 1.256 . S
C520 O509 1.278 . S
C520 O515 1.241 . S
C521 O511 1.244 . S
C521 O516 1.256 . S
C522 O513 1.239 . S
C522 O514 1.256 . S
O523 Mn505 2.221 . S
O523 Mn507 2.290 . S
O523 C517 1.278 . S
O524 Mn507 2.251 . S
O524 C517 1.241 . S
O525 Mn526 2.163 . S
O525 C539 1.244 . S
Mn526 O525 2.163 . S
Mn526 O529 2.160 . S
Mn526 O530 2.221 . S
Mn526 O532 2.163 . S
Mn526 O534 2.160 . S
Mn526 O544 2.221 . S
O527 Mn528 2.087 . S
O527 C539 1.256 . S
Mn528 O527 2.087 . S
Mn528 O535 2.089 . S
Mn528 O544 2.290 . S
Mn528 O545 2.251 . S
O529 Mn526 2.160 . S
O529 C540 1.239 . S
O530 Mn526 2.221 . S
O530 Mn531 2.290 . S
O530 C541 1.278 . S
Mn531 O530 2.290 . S
Mn531 O533 2.089 . S
Mn531 O536 2.251 . S
Mn531 O537 2.087 . S
O532 Mn526 2.163 . S
O532 C542 1.244 . S
O533 Mn531 2.089 . S
O533 C540 1.256 . S
O534 Mn526 2.160 . S
O534 C543 1.239 . S
O535 Mn528 2.089 . S
O535 C543 1.256 . S
O536 Mn531 2.251 . S
O536 C541 1.241 . S
O537 Mn531 2.087 . S
O537 C542 1.256 . S
C538 O544 1.278 . S
C538 O545 1.241 . S
C539 O525 1.244 . S
C539 O527 1.256 . S
C540 O529 1.239 . S
C540 O533 1.256 . S
C541 O530 1.278 . S
C541 O536 1.241 . S
C542 O532 1.244 . S
C542 O537 1.256 . S
C543 O534 1.239 . S
C543 O535 1.256 . S
O544 Mn526 2.221 . S
O544 Mn528 2.290 . S
O544 C538 1.278 . S
O545 Mn528 2.251 . S
O545 C538 1.241 . S
O546 Mn547 2.163 1_556 S
O546 C560 1.244 . S
Mn547 O546 2.163 1_554 S
Mn547 O550 2.160 . S
Mn547 O551 2.221 . S
Mn547 O553 2.163 . S
Mn547 O555 2.160 1_554 S
Mn547 O565 2.221 . S
O548 Mn549 2.087 . S
O548 C560 1.256 . S
Mn549 O548 2.087 . S
Mn549 O556 2.089 . S
Mn549 O565 2.290 1_556 S
Mn549 O566 2.251 1_556 S
O550 Mn547 2.160 . S
O550 C561 1.239 . S
O551 Mn547 2.221 . S
O551 Mn552 2.290 . S
O551 C562 1.278 . S
Mn552 O551 2.290 . S
Mn552 O554 2.089 . S
Mn552 O557 2.251 . S
Mn552 O558 2.087 . S
O553 Mn547 2.163 . S
O553 C563 1.244 . S
O554 Mn552 2.089 . S
O554 C561 1.256 . S
O555 Mn547 2.160 1_556 S
O555 C564 1.239 . S
O556 Mn549 2.089 . S
O556 C564 1.256 . S
O557 Mn552 2.251 . S
O557 C562 1.241 . S
O558 Mn552 2.087 . S
O558 C563 1.256 . S
C559 O565 1.278 . S
C559 O566 1.241 . S
C560 O546 1.244 . S
C560 O548 1.256 . S
C561 O550 1.239 . S
C561 O554 1.256 . S
C562 O551 1.278 . S
C562 O557 1.241 . S
C563 O553 1.244 . S
C563 O558 1.256 . S
C564 O555 1.239 . S
C564 O556 1.256 . S
O565 Mn547 2.221 . S
O565 Mn549 2.290 1_554 S
O565 C559 1.278 . S
O566 Mn549 2.251 1_554 S
O566 C559 1.241 . S
O567 Mn568 2.163 . S
O567 C581 1.244 . S
Mn568 O567 2.163 . S
Mn568 O571 2.160 . S
Mn568 O572 2.221 . S
Mn568 O574 2.163 . S
Mn568 O576 2.160 . S
Mn568 O586 2.221 . S
O569 Mn570 2.087 . S
O569 C581 1.256 . S
Mn570 O569 2.087 . S
Mn570 O577 2.089 . S
Mn570 O586 2.290 . S
Mn570 O587 2.251 . S
O571 Mn568 2.160 . S
O571 C582 1.239 . S
O572 Mn568 2.221 . S
O572 Mn573 2.290 . S
O572 C583 1.278 . S
Mn573 O572 2.290 . S
Mn573 O575 2.089 . S
Mn573 O578 2.251 . S
Mn573 O579 2.087 . S
O574 Mn568 2.163 . S
O574 C584 1.244 . S
O575 Mn573 2.089 . S
O575 C582 1.256 . S
O576 Mn568 2.160 . S
O576 C585 1.239 . S
O577 Mn570 2.089 . S
O577 C585 1.256 . S
O578 Mn573 2.251 . S
O578 C583 1.241 . S
O579 Mn573 2.087 . S
O579 C584 1.256 . S
C580 O586 1.278 . S
C580 O587 1.241 . S
C581 O567 1.244 . S
C581 O569 1.256 . S
C582 O571 1.239 . S
C582 O575 1.256 . S
C583 O572 1.278 . S
C583 O578 1.241 . S
C584 O574 1.244 . S
C584 O579 1.256 . S
C585 O576 1.239 . S
C585 O577 1.256 . S
O586 Mn568 2.221 . S
O586 Mn570 2.290 . S
O586 C580 1.278 . S
O587 Mn570 2.251 . S
O587 C580 1.241 . S
O588 Mn589 2.163 . S
O588 C602 1.244 1_554 S
Mn589 O588 2.163 . S
Mn589 O592 2.160 . S
Mn589 O593 2.221 . S
Mn589 O595 2.163 . S
Mn589 O597 2.160 . S
Mn589 O607 2.221 . S
O590 Mn591 2.087 . S
O590 C602 1.256 . S
Mn591 O590 2.087 . S
Mn591 O598 2.089 . S
Mn591 O607 2.290 1_556 S
Mn591 O608 2.251 1_556 S
O592 Mn589 2.160 . S
O592 C603 1.239 . S
O593 Mn589 2.221 . S
O593 Mn594 2.290 . S
O593 C604 1.278 . S
Mn594 O593 2.290 . S
Mn594 O596 2.089 . S
Mn594 O599 2.251 . S
Mn594 O600 2.087 . S
O595 Mn589 2.163 . S
O595 C605 1.244 . S
O596 Mn594 2.089 . S
O596 C603 1.256 . S
O597 Mn589 2.160 . S
O597 C606 1.239 1_554 S
O598 Mn591 2.089 . S
O598 C606 1.256 . S
O599 Mn594 2.251 . S
O599 C604 1.241 . S
O600 Mn594 2.087 . S
O600 C605 1.256 . S
C601 O607 1.278 . S
C601 O608 1.241 . S
C602 O588 1.244 1_556 S
C602 O590 1.256 . S
C603 O592 1.239 . S
C603 O596 1.256 . S
C604 O593 1.278 . S
C604 O599 1.241 . S
C605 O595 1.244 . S
C605 O600 1.256 . S
C606 O597 1.239 1_556 S
C606 O598 1.256 . S
O607 Mn589 2.221 . S
O607 Mn591 2.290 1_554 S
O607 C601 1.278 . S
O608 Mn591 2.251 1_554 S
O608 C601 1.241 . S
O609 Mn610 2.163 . S
O609 C623 1.244 . S
Mn610 O609 2.163 . S
Mn610 O613 2.160 . S
Mn610 O614 2.221 . S
Mn610 O616 2.163 . S
Mn610 O618 2.160 . S
Mn610 O628 2.221 . S
O611 Mn612 2.087 . S
O611 C623 1.256 . S
Mn612 O611 2.087 . S
Mn612 O619 2.089 . S
Mn612 O628 2.290 . S
Mn612 O629 2.251 . S
O613 Mn610 2.160 . S
O613 C624 1.239 . S
O614 Mn610 2.221 . S
O614 Mn615 2.290 . S
O614 C625 1.278 . S
Mn615 O614 2.290 . S
Mn615 O617 2.089 . S
Mn615 O620 2.251 . S
Mn615 O621 2.087 . S
O616 Mn610 2.163 . S
O616 C626 1.244 . S
O617 Mn615 2.089 . S
O617 C624 1.256 . S
O618 Mn610 2.160 . S
O618 C627 1.239 . S
O619 Mn612 2.089 . S
O619 C627 1.256 . S
O620 Mn615 2.251 . S
O620 C625 1.241 . S
O621 Mn615 2.087 . S
O621 C626 1.256 . S
C622 O628 1.278 . S
C622 O629 1.241 . S
C623 O609 1.244 . S
C623 O611 1.256 . S
C624 O613 1.239 . S
C624 O617 1.256 . S
C625 O614 1.278 . S
C625 O620 1.241 . S
C626 O616 1.244 . S
C626 O621 1.256 . S
C627 O618 1.239 . S
C627 O619 1.256 . S
O628 Mn610 2.221 . S
O628 Mn612 2.290 . S
O628 C622 1.278 . S
O629 Mn612 2.251 . S
O629 C622 1.241 . S
O630 Mn631 2.163 . S
O630 C644 1.244 . S
Mn631 O630 2.163 . S
Mn631 O634 2.160 . S
Mn631 O635 2.221 . S
Mn631 O637 2.163 . S
Mn631 O639 2.160 . S
Mn631 O649 2.221 . S
O632 Mn633 2.087 . S
O632 C644 1.256 . S
Mn633 O632 2.087 . S
Mn633 O640 2.089 . S
Mn633 O649 2.290 . S
Mn633 O650 2.251 . S
O634 Mn631 2.160 . S
O634 C645 1.239 . S
O635 Mn631 2.221 . S
O635 Mn636 2.290 . S
O635 C646 1.278 . S
Mn636 O635 2.290 . S
Mn636 O638 2.089 . S
Mn636 O641 2.251 . S
Mn636 O642 2.087 . S
O637 Mn631 2.163 . S
O637 C647 1.244 . S
O638 Mn636 2.089 . S
O638 C645 1.256 . S
O639 Mn631 2.160 . S
O639 C648 1.239 . S
O640 Mn633 2.089 . S
O640 C648 1.256 . S
O641 Mn636 2.251 . S
O641 C646 1.241 . S
O642 Mn636 2.087 . S
O642 C647 1.256 . S
C643 O649 1.278 . S
C643 O650 1.241 . S
C644 O630 1.244 . S
C644 O632 1.256 . S
C645 O634 1.239 . S
C645 O638 1.256 . S
C646 O635 1.278 . S
C646 O641 1.241 . S
C647 O637 1.244 . S
C647 O642 1.256 . S
C648 O639 1.239 . S
C648 O640 1.256 . S
O649 Mn631 2.221 . S
O649 Mn633 2.290 . S
O649 C643 1.278 . S
O650 Mn633 2.251 . S
O650 C643 1.241 . S
O651 Mn652 2.163 . S
O651 C665 1.244 . S
Mn652 O651 2.163 . S
Mn652 O655 2.160 . S
Mn652 O656 2.221 . S
Mn652 O658 2.163 . S
Mn652 O660 2.160 . S
Mn652 O670 2.221 . S
O653 Mn654 2.087 . S
O653 C665 1.256 . S
Mn654 O653 2.087 . S
Mn654 O661 2.089 . S
Mn654 O670 2.290 . S
Mn654 O671 2.251 . S
O655 Mn652 2.160 . S
O655 C666 1.239 . S
O656 Mn652 2.221 . S
O656 Mn657 2.290 . S
O656 C667 1.278 . S
Mn657 O656 2.290 . S
Mn657 O659 2.089 . S
Mn657 O662 2.251 . S
Mn657 O663 2.087 . S
O658 Mn652 2.163 . S
O658 C668 1.244 . S
O659 Mn657 2.089 . S
O659 C666 1.256 . S
O660 Mn652 2.160 . S
O660 C669 1.239 . S
O661 Mn654 2.089 . S
O661 C669 1.256 . S
O662 Mn657 2.251 . S
O662 C667 1.241 . S
O663 Mn657 2.087 . S
O663 C668 1.256 . S
C664 O670 1.278 . S
C664 O671 1.241 . S
C665 O651 1.244 . S
C665 O653 1.256 . S
C666 O655 1.239 . S
C666 O659 1.256 . S
C667 O656 1.278 . S
C667 O662 1.241 . S
C668 O658 1.244 . S
C668 O663 1.256 . S
C669 O660 1.239 . S
C669 O661 1.256 . S
O670 Mn652 2.221 . S
O670 Mn654 2.290 . S
O670 C664 1.278 . S
O671 Mn654 2.251 . S
O671 C664 1.241 . S
H672 C678 0.930 . S
H673 C681 0.930 . S
H674 C682 0.930 . S
H675 C683 0.930 . S
H676 C686 0.930 . S
H677 C687 0.930 . S
C678 H672 0.930 . S
C678 C679 1.355 . S
C678 C680 1.415 . S
C679 C678 1.355 . S
C679 C681 1.419 . S
C680 C678 1.415 . S
C680 C685 1.425 . S
C680 C687 1.409 . S
C681 H673 0.930 . S
C681 C679 1.419 . S
C681 C682 1.362 . S
C682 H674 0.930 . S
C682 C681 1.362 . S
C682 C685 1.409 . S
C683 H675 0.930 . S
C683 C684 1.355 . S
C683 C685 1.415 . S
C684 C683 1.355 . S
C684 C686 1.419 . S
C685 C680 1.425 . S
C685 C682 1.409 . S
C685 C683 1.415 . S
C686 H676 0.930 . S
C686 C684 1.419 . S
C686 C687 1.362 . S
C687 H677 0.930 . S
C687 C680 1.409 . S
C687 C686 1.362 . S
H688 C694 0.930 . S
H689 C697 0.930 . S
H690 C698 0.930 . S
H691 C699 0.930 . S
H692 C702 0.930 . S
H693 C703 0.930 . S
C694 H688 0.930 . S
C694 C695 1.355 . S
C694 C696 1.415 . S
C695 C694 1.355 . S
C695 C697 1.419 . S
C696 C694 1.415 . S
C696 C701 1.425 . S
C696 C703 1.409 . S
C697 H689 0.930 . S
C697 C695 1.419 . S
C697 C698 1.362 . S
C698 H690 0.930 . S
C698 C697 1.362 . S
C698 C701 1.409 . S
C699 H691 0.930 . S
C699 C700 1.355 . S
C699 C701 1.415 . S
C700 C699 1.355 . S
C700 C702 1.419 . S
C701 C696 1.425 . S
C701 C698 1.409 . S
C701 C699 1.415 . S
C702 H692 0.930 . S
C702 C700 1.419 . S
C702 C703 1.362 . S
C703 H693 0.930 . S
C703 C696 1.409 . S
C703 C702 1.362 . S
H704 C710 0.930 . S
H705 C713 0.930 . S
H706 C714 0.930 . S
H707 C715 0.930 . S
H708 C718 0.930 . S
H709 C719 0.930 . S
C710 H704 0.930 . S
C710 C711 1.355 . S
C710 C712 1.415 . S
C711 C710 1.355 . S
C711 C713 1.419 . S
C712 C710 1.415 . S
C712 C717 1.425 . S
C712 C719 1.409 . S
C713 H705 0.930 . S
C713 C711 1.419 . S
C713 C714 1.362 . S
C714 H706 0.930 . S
C714 C713 1.362 . S
C714 C717 1.409 . S
C715 H707 0.930 . S
C715 C716 1.355 . S
C715 C717 1.415 . S
C716 C715 1.355 . S
C716 C718 1.419 . S
C717 C712 1.425 . S
C717 C714 1.409 . S
C717 C715 1.415 . S
C718 H708 0.930 . S
C718 C716 1.419 . S
C718 C719 1.362 . S
C719 H709 0.930 . S
C719 C712 1.409 . S
C719 C718 1.362 . S
H720 C726 0.930 . S
H721 C729 0.930 . S
H722 C730 0.930 . S
H723 C731 0.930 . S
H724 C734 0.930 . S
H725 C735 0.930 . S
C726 H720 0.930 . S
C726 C727 1.355 . S
C726 C728 1.415 . S
C727 C726 1.355 . S
C727 C729 1.419 . S
C728 C726 1.415 . S
C728 C733 1.425 . S
C728 C735 1.409 . S
C729 H721 0.930 . S
C729 C727 1.419 . S
C729 C730 1.362 . S
C730 H722 0.930 . S
C730 C729 1.362 . S
C730 C733 1.409 . S
C731 H723 0.930 . S
C731 C732 1.355 . S
C731 C733 1.415 1_556 S
C732 C731 1.355 . S
C732 C734 1.419 1_556 S
C733 C728 1.425 . S
C733 C730 1.409 . S
C733 C731 1.415 1_554 S
C734 H724 0.930 . S
C734 C732 1.419 1_554 S
C734 C735 1.362 . S
C735 H725 0.930 . S
C735 C728 1.409 . S
C735 C734 1.362 . S
H736 C742 0.930 . S
H737 C745 0.930 . S
H738 C746 0.930 . S
H739 C747 0.930 . S
H740 C750 0.930 . S
H741 C751 0.930 . S
C742 H736 0.930 . S
C742 C743 1.355 . S
C742 C744 1.415 . S
C743 C742 1.355 . S
C743 C745 1.419 . S
C744 C742 1.415 . S
C744 C749 1.425 . S
C744 C751 1.409 . S
C745 H737 0.930 . S
C745 C743 1.419 . S
C745 C746 1.362 . S
C746 H738 0.930 . S
C746 C745 1.362 . S
C746 C749 1.409 . S
C747 H739 0.930 . S
C747 C748 1.355 . S
C747 C749 1.415 . S
C748 C747 1.355 . S
C748 C750 1.419 . S
C749 C744 1.425 . S
C749 C746 1.409 . S
C749 C747 1.415 . S
C750 H740 0.930 . S
C750 C748 1.419 . S
C750 C751 1.362 . S
C751 H741 0.930 . S
C751 C744 1.409 . S
C751 C750 1.362 . S
H752 C758 0.930 . S
H753 C761 0.930 . S
H754 C762 0.930 . S
H755 C763 0.930 . S
H756 C766 0.930 . S
H757 C767 0.930 . S
C758 H752 0.930 . S
C758 C759 1.355 . S
C758 C760 1.415 . S
C759 C758 1.355 . S
C759 C761 1.419 . S
C760 C758 1.415 . S
C760 C765 1.425 . S
C760 C767 1.409 . S
C761 H753 0.930 . S
C761 C759 1.419 . S
C761 C762 1.362 . S
C762 H754 0.930 . S
C762 C761 1.362 . S
C762 C765 1.409 . S
C763 H755 0.930 . S
C763 C764 1.355 . S
C763 C765 1.415 . S
C764 C763 1.355 . S
C764 C766 1.419 . S
C765 C760 1.425 . S
C765 C762 1.409 . S
C765 C763 1.415 . S
C766 H756 0.930 . S
C766 C764 1.419 . S
C766 C767 1.362 . S
C767 H757 0.930 . S
C767 C760 1.409 . S
C767 C766 1.362 . S
H768 C774 0.930 . S
H769 C777 0.930 . S
H770 C778 0.930 . S
H771 C779 0.930 . S
H772 C782 0.930 . S
H773 C783 0.930 . S
C774 H768 0.930 . S
C774 C775 1.355 . S
C774 C776 1.415 . S
C775 C774 1.355 . S
C775 C777 1.419 . S
C776 C774 1.415 . S
C776 C781 1.425 . S
C776 C783 1.409 . S
C777 H769 0.930 . S
C777 C775 1.419 . S
C777 C778 1.362 . S
C778 H770 0.930 . S
C778 C777 1.362 . S
C778 C781 1.409 . S
C779 H771 0.930 . S
C779 C780 1.355 . S
C779 C781 1.415 . S
C780 C779 1.355 . S
C780 C782 1.419 . S
C781 C776 1.425 . S
C781 C778 1.409 . S
C781 C779 1.415 . S
C782 H772 0.930 . S
C782 C780 1.419 . S
C782 C783 1.362 . S
C783 H773 0.930 . S
C783 C776 1.409 . S
C783 C782 1.362 . S
H784 C790 0.930 . S
H785 C793 0.930 . S
H786 C794 0.930 . S
H787 C795 0.930 . S
H788 C798 0.930 . S
H789 C799 0.930 . S
C790 H784 0.930 . S
C790 C791 1.355 . S
C790 C792 1.415 . S
C791 C790 1.355 . S
C791 C793 1.419 . S
C792 C790 1.415 . S
C792 C797 1.425 . S
C792 C799 1.409 1_554 S
C793 H785 0.930 . S
C793 C791 1.419 . S
C793 C794 1.362 . S
C794 H786 0.930 . S
C794 C793 1.362 . S
C794 C797 1.409 . S
C795 H787 0.930 . S
C795 C796 1.355 1_554 S
C795 C797 1.415 . S
C796 C795 1.355 1_556 S
C796 C798 1.419 . S
C797 C792 1.425 . S
C797 C794 1.409 . S
C797 C795 1.415 . S
C798 H788 0.930 . S
C798 C796 1.419 . S
C798 C799 1.362 . S
C799 H789 0.930 . S
C799 C792 1.409 1_556 S
C799 C798 1.362 . S
H800 C806 0.930 . S
H801 C809 0.930 . S
H802 C810 0.930 . S
H803 C811 0.930 . S
H804 C814 0.930 . S
H805 C815 0.930 . S
C806 H800 0.930 . S
C806 C807 1.355 . S
C806 C808 1.415 1_545 S
C807 C806 1.355 . S
C807 C809 1.419 . S
C808 C806 1.415 1_565 S
C808 C813 1.425 1_565 S
C808 C815 1.409 . S
C809 H801 0.930 . S
C809 C807 1.419 . S
C809 C810 1.362 . S
C810 H802 0.930 . S
C810 C809 1.362 . S
C810 C813 1.409 . S
C811 H803 0.930 . S
C811 C812 1.355 . S
C811 C813 1.415 1_565 S
C812 C811 1.355 . S
C812 C814 1.419 . S
C813 C808 1.425 1_545 S
C813 C810 1.409 . S
C813 C811 1.415 1_545 S
C814 H804 0.930 . S
C814 C812 1.419 . S
C814 C815 1.362 . S
C815 H805 0.930 . S
C815 C808 1.409 . S
C815 C814 1.362 . S
H816 C822 0.930 1_556 S
H817 C825 0.930 1_556 S
H818 C826 0.930 . S
H819 C827 0.930 . S
H820 C830 0.930 . S
H821 C831 0.930 . S
C822 H816 0.930 1_554 S
C822 C823 1.355 1_554 S
C822 C824 1.415 . S
C823 C822 1.355 1_556 S
C823 C825 1.419 1_556 S
C824 C822 1.415 . S
C824 C829 1.425 . S
C824 C831 1.409 . S
C825 H817 0.930 1_554 S
C825 C823 1.419 1_554 S
C825 C826 1.362 . S
C826 H818 0.930 . S
C826 C825 1.362 . S
C826 C829 1.409 . S
C827 H819 0.930 . S
C827 C828 1.355 . S
C827 C829 1.415 . S
C828 C827 1.355 . S
C828 C830 1.419 . S
C829 C824 1.425 . S
C829 C826 1.409 . S
C829 C827 1.415 . S
C830 H820 0.930 . S
C830 C828 1.419 . S
C830 C831 1.362 . S
C831 H821 0.930 . S
C831 C824 1.409 . S
C831 C830 1.362 . S
H832 C838 0.930 . S
H833 C841 0.930 . S
H834 C842 0.930 . S
H835 C843 0.930 . S
H836 C846 0.930 . S
H837 C847 0.930 . S
C838 H832 0.930 . S
C838 C839 1.355 . S
C838 C840 1.432 . S
C839 C838 1.355 . S
C839 C841 1.419 . S
C840 C838 1.432 . S
C840 C845 1.424 1_545 S
C840 C847 1.393 1_545 S
C841 H833 0.930 . S
C841 C839 1.419 . S
C841 C842 1.362 . S
C842 H834 0.930 . S
C842 C841 1.362 . S
C842 C845 1.393 1_545 S
C843 H835 0.930 . S
C843 C844 1.355 . S
C843 C845 1.433 . S
C844 C843 1.355 . S
C844 C846 1.419 . S
C845 C840 1.424 1_565 S
C845 C842 1.393 1_565 S
C845 C843 1.433 . S
C846 H836 0.930 . S
C846 C844 1.419 . S
C846 C847 1.362 . S
C847 H837 0.930 . S
C847 C840 1.393 1_565 S
C847 C846 1.362 . S
H848 C854 0.930 . S
H849 C857 0.930 . S
H850 C858 0.930 . S
H851 C859 0.930 . S
H852 C862 0.930 . S
H853 C863 0.930 . S
C854 H848 0.930 . S
C854 C855 1.355 . S
C854 C856 1.415 . S
C855 C854 1.355 . S
C855 C857 1.419 . S
C856 C854 1.415 . S
C856 C861 1.425 . S
C856 C863 1.409 . S
C857 H849 0.930 . S
C857 C855 1.419 . S
C857 C858 1.362 . S
C858 H850 0.930 . S
C858 C857 1.362 . S
C858 C861 1.409 . S
C859 H851 0.930 . S
C859 C860 1.355 . S
C859 C861 1.415 . S
C860 C859 1.355 . S
C860 C862 1.419 . S
C861 C856 1.425 . S
C861 C858 1.409 . S
C861 C859 1.415 . S
C862 H852 0.930 . S
C862 C860 1.419 . S
C862 C863 1.362 . S
C863 H853 0.930 . S
C863 C856 1.409 . S
C863 C862 1.362 . S
H864 C870 0.930 . S
H865 C873 0.930 . S
H866 C874 0.930 . S
H867 C875 0.930 . S
H868 C878 0.930 . S
H869 C879 0.930 . S
C870 H864 0.930 . S
C870 C871 1.355 . S
C870 C872 1.416 1_545 S
C871 C870 1.355 . S
C871 C873 1.419 . S
C872 C870 1.416 1_565 S
C872 C877 1.425 1_565 S
C872 C879 1.408 . S
C873 H865 0.930 . S
C873 C871 1.419 . S
C873 C874 1.362 . S
C874 H866 0.930 . S
C874 C873 1.362 . S
C874 C877 1.409 . S
C875 H867 0.930 . S
C875 C876 1.355 . S
C875 C877 1.415 1_565 S
C876 C875 1.355 . S
C876 C878 1.419 . S
C877 C872 1.425 1_545 S
C877 C874 1.409 . S
C877 C875 1.415 1_545 S
C878 H868 0.930 . S
C878 C876 1.419 . S
C878 C879 1.362 . S
C879 H869 0.930 . S
C879 C872 1.408 . S
C879 C878 1.362 . S
H880 C886 0.930 . S
H881 C889 0.930 . S
H882 C890 0.930 . S
H883 C891 0.930 . S
H884 C894 0.930 . S
H885 C895 0.930 . S
C886 H880 0.930 . S
C886 C887 1.355 . S
C886 C888 1.415 1_556 S
C887 C886 1.355 . S
C887 C889 1.419 1_556 S
C888 C886 1.415 1_554 S
C888 C893 1.425 . S
C888 C895 1.409 . S
C889 H881 0.930 . S
C889 C887 1.419 1_554 S
C889 C890 1.362 . S
C890 H882 0.930 . S
C890 C889 1.362 . S
C890 C893 1.409 . S
C891 H883 0.930 . S
C891 C892 1.355 . S
C891 C893 1.415 . S
C892 C891 1.355 . S
C892 C894 1.419 . S
C893 C888 1.425 . S
C893 C890 1.409 . S
C893 C891 1.415 . S
C894 H884 0.930 . S
C894 C892 1.419 . S
C894 C895 1.362 . S
C895 H885 0.930 . S
C895 C888 1.409 . S
C895 C894 1.362 . S
H896 C902 0.930 . S
H897 C905 0.930 . S
H898 C906 0.930 . S
H899 C907 0.930 . S
H900 C910 0.930 . S
H901 C911 0.930 . S
C902 H896 0.930 . S
C902 C903 1.355 . S
C902 C904 1.415 . S
C903 C902 1.355 . S
C903 C905 1.419 . S
C904 C902 1.415 . S
C904 C909 1.425 1_565 S
C904 C911 1.409 . S
C905 H897 0.930 . S
C905 C903 1.419 . S
C905 C906 1.362 1_565 S
C906 H898 0.930 . S
C906 C905 1.362 1_545 S
C906 C909 1.409 . S
C907 H899 0.930 . S
C907 C908 1.355 . S
C907 C909 1.415 . S
C908 C907 1.355 . S
C908 C910 1.419 . S
C909 C904 1.425 1_545 S
C909 C906 1.409 . S
C909 C907 1.415 . S
C910 H900 0.930 . S
C910 C908 1.419 . S
C910 C911 1.362 1_545 S
C911 H901 0.930 . S
C911 C904 1.409 . S
C911 C910 1.362 1_565 S
H912 C918 0.930 . S
H913 C921 0.930 . S
H914 C922 0.930 . S
H915 C923 0.930 . S
H916 C926 0.930 . S
H917 C927 0.930 . S
C918 H912 0.930 . S
C918 C919 1.355 . S
C918 C920 1.415 . S
C919 C918 1.355 . S
C919 C921 1.419 . S
C920 C918 1.415 . S
C920 C925 1.425 . S
C920 C927 1.409 . S
C921 H913 0.930 . S
C921 C919 1.419 . S
C921 C922 1.362 . S
C922 H914 0.930 . S
C922 C921 1.362 . S
C922 C925 1.409 . S
C923 H915 0.930 . S
C923 C924 1.355 . S
C923 C925 1.415 . S
C924 C923 1.355 . S
C924 C926 1.419 . S
C925 C920 1.425 . S
C925 C922 1.409 . S
C925 C923 1.415 . S
C926 H916 0.930 . S
C926 C924 1.419 . S
C926 C927 1.362 . S
C927 H917 0.930 . S
C927 C920 1.409 . S
C927 C926 1.362 . S
H928 C934 0.930 . S
H929 C937 0.930 . S
H930 C938 0.930 . S
H931 C939 0.930 . S
H932 C942 0.930 . S
H933 C943 0.930 . S
C934 H928 0.930 . S
C934 C935 1.355 . S
C934 C936 1.415 . S
C935 C934 1.355 . S
C935 C937 1.419 . S
C936 C934 1.415 . S
C936 C941 1.425 . S
C936 C943 1.409 . S
C937 H929 0.930 . S
C937 C935 1.419 . S
C937 C938 1.362 . S
C938 H930 0.930 . S
C938 C937 1.362 . S
C938 C941 1.409 . S
C939 H931 0.930 . S
C939 C940 1.355 . S
C939 C941 1.415 . S
C940 C939 1.355 . S
C940 C942 1.419 . S
C941 C936 1.425 . S
C941 C938 1.409 . S
C941 C939 1.415 . S
C942 H932 0.930 . S
C942 C940 1.419 . S
C942 C943 1.362 . S
C943 H933 0.930 . S
C943 C936 1.409 . S
C943 C942 1.362 . S
H944 C950 0.930 . S
H945 C953 0.930 . S
H946 C954 0.930 . S
H947 C955 0.930 . S
H948 C958 0.930 . S
H949 C959 0.930 . S
C950 H944 0.930 . S
C950 C951 1.355 . S
C950 C952 1.415 . S
C951 C950 1.355 . S
C951 C953 1.419 . S
C952 C950 1.415 . S
C952 C957 1.425 . S
C952 C959 1.409 . S
C953 H945 0.930 . S
C953 C951 1.419 . S
C953 C954 1.362 . S
C954 H946 0.930 . S
C954 C953 1.362 . S
C954 C957 1.409 . S
C955 H947 0.930 . S
C955 C956 1.355 . S
C955 C957 1.415 . S
C956 C955 1.355 . S
C956 C958 1.419 . S
C957 C952 1.425 . S
C957 C954 1.409 . S
C957 C955 1.415 . S
C958 H948 0.930 . S
C958 C956 1.419 . S
C958 C959 1.362 . S
C959 H949 0.930 . S
C959 C952 1.409 . S
C959 C958 1.362 . S
H960 C966 0.930 . S
H961 C969 0.930 . S
H962 C970 0.930 . S
H963 C971 0.930 . S
H964 C974 0.930 . S
H965 C975 0.930 . S
C966 H960 0.930 . S
C966 C967 1.355 . S
C966 C968 1.415 . S
C967 C966 1.355 . S
C967 C969 1.419 . S
C968 C966 1.415 . S
C968 C973 1.425 . S
C968 C975 1.409 . S
C969 H961 0.930 . S
C969 C967 1.419 . S
C969 C970 1.362 . S
C970 H962 0.930 . S
C970 C969 1.362 . S
C970 C973 1.409 . S
C971 H963 0.930 . S
C971 C972 1.355 . S
C971 C973 1.415 . S
C972 C971 1.355 . S
C972 C974 1.419 . S
C973 C968 1.425 . S
C973 C970 1.409 . S
C973 C971 1.415 . S
C974 H964 0.930 . S
C974 C972 1.419 . S
C974 C975 1.362 . S
C975 H965 0.930 . S
C975 C968 1.409 . S
C975 C974 1.362 . S
H976 C982 0.930 . S
H977 C985 0.930 . S
H978 C986 0.930 . S
H979 C987 0.930 . S
H980 C990 0.930 . S
H981 C991 0.930 . S
C982 H976 0.930 . S
C982 C983 1.355 . S
C982 C984 1.415 . S
C983 C982 1.355 . S
C983 C985 1.419 . S
C984 C982 1.415 . S
C984 C989 1.425 . S
C984 C991 1.409 1_556 S
C985 H977 0.930 . S
C985 C983 1.419 . S
C985 C986 1.362 . S
C986 H978 0.930 . S
C986 C985 1.362 . S
C986 C989 1.409 . S
C987 H979 0.930 . S
C987 C988 1.355 1_556 S
C987 C989 1.415 . S
C988 C987 1.355 1_554 S
C988 C990 1.419 . S
C989 C984 1.425 . S
C989 C986 1.409 . S
C989 C987 1.415 . S
C990 H980 0.930 . S
C990 C988 1.419 . S
C990 C991 1.362 . S
C991 H981 0.930 . S
C991 C984 1.409 1_554 S
C991 C990 1.362 . S
H992 C998 0.930 . S
H993 C1001 0.930 . S
H994 C1002 0.930 . S
H995 C1003 0.930 . S
H996 C1006 0.930 . S
H997 C1007 0.930 . S
C998 H992 0.930 . S
C998 C999 1.355 . S
C998 C1000 1.415 . S
C999 C998 1.355 . S
C999 C1001 1.419 . S
C1000 C998 1.415 . S
C1000 C1005 1.425 . S
C1000 C1007 1.409 . S
C1001 H993 0.930 . S
C1001 C999 1.419 . S
C1001 C1002 1.362 . S
C1002 H994 0.930 . S
C1002 C1001 1.362 . S
C1002 C1005 1.409 . S
C1003 H995 0.930 . S
C1003 C1004 1.355 . S
C1003 C1005 1.415 . S
C1004 C1003 1.355 . S
C1004 C1006 1.419 . S
C1005 C1000 1.425 . S
C1005 C1002 1.409 . S
C1005 C1003 1.415 . S
C1006 H996 0.930 . S
C1006 C1004 1.419 . S
C1006 C1007 1.362 . S
C1007 H997 0.930 . S
C1007 C1000 1.409 . S
C1007 C1006 1.362 . S
H1008 C1014 0.930 . S
H1009 C1017 0.930 . S
H1010 C1018 0.930 . S
H1011 C1019 0.930 . S
H1012 C1022 0.930 . S
H1013 C1023 0.930 . S
C1014 H1008 0.930 . S
C1014 C1015 1.355 . S
C1014 C1016 1.415 . S
C1015 C1014 1.355 . S
C1015 C1017 1.419 . S
C1016 C1014 1.415 . S
C1016 C1021 1.425 . S
C1016 C1023 1.409 . S
C1017 H1009 0.930 . S
C1017 C1015 1.419 . S
C1017 C1018 1.362 . S
C1018 H1010 0.930 . S
C1018 C1017 1.362 . S
C1018 C1021 1.409 . S
C1019 H1011 0.930 . S
C1019 C1020 1.355 . S
C1019 C1021 1.415 . S
C1020 C1019 1.355 . S
C1020 C1022 1.419 . S
C1021 C1016 1.425 . S
C1021 C1018 1.409 . S
C1021 C1019 1.415 . S
C1022 H1012 0.930 . S
C1022 C1020 1.419 . S
C1022 C1023 1.362 . S
C1023 H1013 0.930 . S
C1023 C1016 1.409 . S
C1023 C1022 1.362 . S
H1024 C1030 0.930 . S
H1025 C1033 0.930 . S
H1026 C1034 0.930 . S
H1027 C1035 0.930 . S
H1028 C1038 0.930 . S
H1029 C1039 0.930 1_554 S
C1030 H1024 0.930 . S
C1030 C1031 1.355 . S
C1030 C1032 1.415 1_554 S
C1031 C1030 1.355 . S
C1031 C1033 1.419 1_554 S
C1032 C1030 1.415 1_556 S
C1032 C1037 1.425 . S
C1032 C1039 1.409 . S
C1033 H1025 0.930 . S
C1033 C1031 1.419 1_556 S
C1033 C1034 1.362 . S
C1034 H1026 0.930 . S
C1034 C1033 1.362 . S
C1034 C1037 1.409 . S
C1035 H1027 0.930 . S
C1035 C1036 1.355 . S
C1035 C1037 1.415 . S
C1036 C1035 1.355 . S
C1036 C1038 1.419 . S
C1037 C1032 1.425 . S
C1037 C1034 1.409 . S
C1037 C1035 1.415 . S
C1038 H1028 0.930 . S
C1038 C1036 1.419 . S
C1038 C1039 1.362 . S
C1039 H1029 0.930 1_556 S
C1039 C1032 1.409 . S
C1039 C1038 1.362 . S
H1040 C1046 0.930 . S
H1041 C1049 0.930 . S
H1042 C1050 0.930 . S
H1043 C1051 0.930 . S
H1044 C1054 0.930 . S
H1045 C1055 0.930 . S
C1046 H1040 0.930 . S
C1046 C1047 1.355 . S
C1046 C1048 1.415 . S
C1047 C1046 1.355 . S
C1047 C1049 1.419 . S
C1048 C1046 1.415 . S
C1048 C1053 1.425 . S
C1048 C1055 1.409 . S
C1049 H1041 0.930 . S
C1049 C1047 1.419 . S
C1049 C1050 1.362 . S
C1050 H1042 0.930 . S
C1050 C1049 1.362 . S
C1050 C1053 1.409 . S
C1051 H1043 0.930 . S
C1051 C1052 1.355 . S
C1051 C1053 1.415 . S
C1052 C1051 1.355 . S
C1052 C1054 1.419 . S
C1053 C1048 1.425 . S
C1053 C1050 1.409 . S
C1053 C1051 1.415 . S
C1054 H1044 0.930 . S
C1054 C1052 1.419 . S
C1054 C1055 1.362 . S
C1055 H1045 0.930 . S
C1055 C1048 1.409 . S
C1055 C1054 1.362 . S
H1056 C1062 0.930 . S
H1057 C1065 0.930 . S
H1058 C1066 0.930 . S
H1059 C1067 0.930 . S
H1060 C1070 0.930 . S
H1061 C1071 0.930 . S
C1062 H1056 0.930 . S
C1062 C1063 1.355 1_556 S
C1062 C1064 1.415 . S
C1063 C1062 1.355 1_554 S
C1063 C1065 1.419 . S
C1064 C1062 1.415 . S
C1064 C1069 1.425 . S
C1064 C1071 1.409 . S
C1065 H1057 0.930 . S
C1065 C1063 1.419 . S
C1065 C1066 1.362 . S
C1066 H1058 0.930 . S
C1066 C1065 1.362 . S
C1066 C1069 1.409 1_554 S
C1067 H1059 0.930 . S
C1067 C1068 1.355 . S
C1067 C1069 1.415 . S
C1068 C1067 1.355 . S
C1068 C1070 1.419 . S
C1069 C1064 1.425 . S
C1069 C1066 1.409 1_556 S
C1069 C1067 1.415 . S
C1070 H1060 0.930 . S
C1070 C1068 1.419 . S
C1070 C1071 1.362 . S
C1071 H1061 0.930 . S
C1071 C1064 1.409 . S
C1071 C1070 1.362 . S
H1072 C1078 0.930 . S
H1073 C1081 0.930 . S
H1074 C1082 0.930 . S
H1075 C1083 0.930 . S
H1076 C1086 0.930 . S
H1077 C1087 0.930 . S
C1078 H1072 0.930 . S
C1078 C1079 1.355 . S
C1078 C1080 1.415 . S
C1079 C1078 1.355 . S
C1079 C1081 1.419 . S
C1080 C1078 1.415 . S
C1080 C1085 1.425 . S
C1080 C1087 1.409 . S
C1081 H1073 0.930 . S
C1081 C1079 1.419 . S
C1081 C1082 1.362 . S
C1082 H1074 0.930 . S
C1082 C1081 1.362 . S
C1082 C1085 1.409 . S
C1083 H1075 0.930 . S
C1083 C1084 1.355 . S
C1083 C1085 1.415 . S
C1084 C1083 1.355 . S
C1084 C1086 1.419 . S
C1085 C1080 1.425 . S
C1085 C1082 1.409 . S
C1085 C1083 1.415 . S
C1086 H1076 0.930 . S
C1086 C1084 1.419 . S
C1086 C1087 1.362 . S
C1087 H1077 0.930 . S
C1087 C1080 1.409 . S
C1087 C1086 1.362 . S
H1088 C1094 0.930 . S
H1089 C1097 0.930 . S
H1090 C1098 0.930 . S
H1091 C1099 0.930 . S
H1092 C1102 0.930 . S
H1093 C1103 0.930 . S
C1094 H1088 0.930 . S
C1094 C1095 1.355 . S
C1094 C1096 1.415 . S
C1095 C1094 1.355 . S
C1095 C1097 1.419 . S
C1096 C1094 1.415 . S
C1096 C1101 1.425 . S
C1096 C1103 1.409 . S
C1097 H1089 0.930 . S
C1097 C1095 1.419 . S
C1097 C1098 1.362 . S
C1098 H1090 0.930 . S
C1098 C1097 1.362 . S
C1098 C1101 1.409 . S
C1099 H1091 0.930 . S
C1099 C1100 1.355 . S
C1099 C1101 1.415 . S
C1100 C1099 1.355 . S
C1100 C1102 1.419 . S
C1101 C1096 1.425 . S
C1101 C1098 1.409 . S
C1101 C1099 1.415 . S
C1102 H1092 0.930 . S
C1102 C1100 1.419 . S
C1102 C1103 1.362 . S
C1103 H1093 0.930 . S
C1103 C1096 1.409 . S
C1103 C1102 1.362 . S
H1104 C1110 0.930 . S
H1105 C1113 0.930 . S
H1106 C1114 0.930 . S
H1107 C1115 0.930 . S
H1108 C1118 0.930 . S
H1109 C1119 0.930 . S
C1110 H1104 0.930 . S
C1110 C1111 1.355 . S
C1110 C1112 1.415 . S
C1111 C1110 1.355 . S
C1111 C1113 1.419 . S
C1112 C1110 1.415 . S
C1112 C1117 1.425 . S
C1112 C1119 1.409 . S
C1113 H1105 0.930 . S
C1113 C1111 1.419 . S
C1113 C1114 1.362 . S
C1114 H1106 0.930 . S
C1114 C1113 1.362 . S
C1114 C1117 1.409 . S
C1115 H1107 0.930 . S
C1115 C1116 1.355 . S
C1115 C1117 1.415 . S
C1116 C1115 1.355 . S
C1116 C1118 1.419 . S
C1117 C1112 1.425 . S
C1117 C1114 1.409 . S
C1117 C1115 1.415 . S
C1118 H1108 0.930 . S
C1118 C1116 1.419 . S
C1118 C1119 1.362 . S
C1119 H1109 0.930 . S
C1119 C1112 1.409 . S
C1119 C1118 1.362 . S
H1120 C1126 0.930 . S
H1121 C1129 0.930 . S
H1122 C1130 0.930 . S
H1123 C1131 0.930 . S
H1124 C1134 0.930 . S
H1125 C1135 0.930 . S
C1126 H1120 0.930 . S
C1126 C1127 1.355 . S
C1126 C1128 1.415 . S
C1127 C1126 1.355 . S
C1127 C1129 1.419 . S
C1128 C1126 1.415 . S
C1128 C1133 1.425 . S
C1128 C1135 1.409 . S
C1129 H1121 0.930 . S
C1129 C1127 1.419 . S
C1129 C1130 1.362 . S
C1130 H1122 0.930 . S
C1130 C1129 1.362 . S
C1130 C1133 1.409 . S
C1131 H1123 0.930 . S
C1131 C1132 1.355 . S
C1131 C1133 1.415 . S
C1132 C1131 1.355 . S
C1132 C1134 1.419 . S
C1133 C1128 1.425 . S
C1133 C1130 1.409 . S
C1133 C1131 1.415 . S
C1134 H1124 0.930 . S
C1134 C1132 1.419 . S
C1134 C1135 1.362 . S
C1135 H1125 0.930 . S
C1135 C1128 1.409 . S
C1135 C1134 1.362 . S
H1136 C1142 0.930 . S
H1137 C1145 0.930 . S
H1138 C1146 0.930 . S
H1139 C1147 0.930 . S
H1140 C1150 0.930 . S
H1141 C1151 0.930 . S
C1142 H1136 0.930 . S
C1142 C1143 1.355 . S
C1142 C1144 1.415 . S
C1143 C1142 1.355 . S
C1143 C1145 1.419 . S
C1144 C1142 1.415 . S
C1144 C1149 1.425 . S
C1144 C1151 1.409 . S
C1145 H1137 0.930 . S
C1145 C1143 1.419 . S
C1145 C1146 1.362 . S
C1146 H1138 0.930 . S
C1146 C1145 1.362 . S
C1146 C1149 1.409 . S
C1147 H1139 0.930 . S
C1147 C1148 1.355 . S
C1147 C1149 1.415 . S
C1148 C1147 1.355 . S
C1148 C1150 1.419 . S
C1149 C1144 1.425 . S
C1149 C1146 1.409 . S
C1149 C1147 1.415 . S
C1150 H1140 0.930 . S
C1150 C1148 1.419 . S
C1150 C1151 1.362 . S
C1151 H1141 0.930 . S
C1151 C1144 1.409 . S
C1151 C1150 1.362 . S
H1152 C1158 0.930 . S
H1153 C1161 0.930 . S
H1154 C1162 0.930 . S
H1155 C1163 0.930 . S
H1156 C1166 0.930 . S
H1157 C1167 0.930 . S
C1158 H1152 0.930 . S
C1158 C1159 1.355 . S
C1158 C1160 1.415 . S
C1159 C1158 1.355 . S
C1159 C1161 1.419 . S
C1160 C1158 1.415 . S
C1160 C1165 1.425 . S
C1160 C1167 1.409 . S
C1161 H1153 0.930 . S
C1161 C1159 1.419 . S
C1161 C1162 1.362 . S
C1162 H1154 0.930 . S
C1162 C1161 1.362 . S
C1162 C1165 1.409 . S
C1163 H1155 0.930 . S
C1163 C1164 1.355 . S
C1163 C1165 1.415 . S
C1164 C1163 1.355 . S
C1164 C1166 1.419 . S
C1165 C1160 1.425 . S
C1165 C1162 1.409 . S
C1165 C1163 1.415 . S
C1166 H1156 0.930 . S
C1166 C1164 1.419 . S
C1166 C1167 1.362 . S
C1167 H1157 0.930 . S
C1167 C1160 1.409 . S
C1167 C1166 1.362 . S
H1168 C1174 0.930 . S
H1169 C1177 0.930 . S
H1170 C1178 0.930 1_554 S
H1171 C1179 0.930 . S
H1172 C1182 0.930 . S
H1173 C1183 0.930 . S
C1174 H1168 0.930 . S
C1174 C1175 1.355 . S
C1174 C1176 1.415 . S
C1175 C1174 1.355 . S
C1175 C1177 1.419 . S
C1176 C1174 1.415 . S
C1176 C1181 1.425 . S
C1176 C1183 1.409 . S
C1177 H1169 0.930 . S
C1177 C1175 1.419 . S
C1177 C1178 1.362 . S
C1178 H1170 0.930 1_556 S
C1178 C1177 1.362 . S
C1178 C1181 1.409 . S
C1179 H1171 0.930 . S
C1179 C1180 1.350 1_554 S
C1179 C1181 1.415 1_554 S
C1180 C1179 1.350 1_556 S
C1180 C1182 1.437 . S
C1181 C1176 1.425 . S
C1181 C1178 1.409 . S
C1181 C1179 1.415 1_556 S
C1182 H1172 0.930 . S
C1182 C1180 1.437 . S
C1182 C1183 1.362 . S
C1183 H1173 0.930 . S
C1183 C1176 1.409 . S
C1183 C1182 1.362 . S
H1184 C1190 0.930 . S
H1185 C1193 0.930 . S
H1186 C1194 0.930 . S
H1187 C1195 0.930 . S
H1188 C1198 0.929 . S
H1189 C1199 0.930 1_556 S
C1190 H1184 0.930 . S
C1190 C1191 1.355 . S
C1190 C1192 1.415 . S
C1191 C1190 1.355 . S
C1191 C1193 1.419 . S
C1192 C1190 1.415 . S
C1192 C1197 1.425 . S
C1192 C1199 1.409 1_655 S
C1193 H1185 0.930 . S
C1193 C1191 1.419 . S
C1193 C1194 1.362 . S
C1194 H1186 0.930 . S
C1194 C1193 1.362 . S
C1194 C1197 1.409 . S
C1195 H1187 0.930 . S
C1195 C1196 1.355 . S
C1195 C1197 1.415 1_455 S
C1196 C1195 1.355 . S
C1196 C1198 1.420 1_554 S
C1197 C1192 1.425 . S
C1197 C1194 1.409 . S
C1197 C1195 1.415 1_655 S
C1198 H1188 0.929 . S
C1198 C1196 1.420 1_556 S
C1198 C1199 1.362 1_556 S
C1199 H1189 0.930 1_554 S
C1199 C1192 1.409 1_455 S
C1199 C1198 1.362 1_554 S
H1200 C1206 0.930 . S
H1201 C1209 0.930 . S
H1202 C1210 0.930 . S
H1203 C1211 0.930 . S
H1204 C1214 0.930 . S
H1205 C1215 0.930 . S
C1206 H1200 0.930 . S
C1206 C1207 1.355 . S
C1206 C1208 1.415 . S
C1207 C1206 1.355 . S
C1207 C1209 1.419 . S
C1208 C1206 1.415 . S
C1208 C1213 1.425 . S
C1208 C1215 1.409 . S
C1209 H1201 0.930 . S
C1209 C1207 1.419 . S
C1209 C1210 1.362 . S
C1210 H1202 0.930 . S
C1210 C1209 1.362 . S
C1210 C1213 1.409 . S
C1211 H1203 0.930 . S
C1211 C1212 1.355 . S
C1211 C1213 1.415 . S
C1212 C1211 1.355 . S
C1212 C1214 1.419 . S
C1213 C1208 1.425 . S
C1213 C1210 1.409 . S
C1213 C1211 1.415 . S
C1214 H1204 0.930 . S
C1214 C1212 1.419 . S
C1214 C1215 1.362 . S
C1215 H1205 0.930 . S
C1215 C1208 1.409 . S
C1215 C1214 1.362 . S
H1216 C1222 0.930 . S
H1217 C1225 0.930 . S
H1218 C1226 0.930 . S
H1219 C1227 0.930 . S
H1220 C1230 0.930 . S
H1221 C1231 0.930 . S
C1222 H1216 0.930 . S
C1222 C1223 1.355 . S
C1222 C1224 1.415 . S
C1223 C1222 1.355 . S
C1223 C1225 1.419 . S
C1224 C1222 1.415 . S
C1224 C1229 1.425 . S
C1224 C1231 1.409 . S
C1225 H1217 0.930 . S
C1225 C1223 1.419 . S
C1225 C1226 1.362 . S
C1226 H1218 0.930 . S
C1226 C1225 1.362 . S
C1226 C1229 1.409 . S
C1227 H1219 0.930 . S
C1227 C1228 1.355 . S
C1227 C1229 1.415 . S
C1228 C1227 1.355 . S
C1228 C1230 1.419 . S
C1229 C1224 1.425 . S
C1229 C1226 1.409 . S
C1229 C1227 1.415 . S
C1230 H1220 0.930 . S
C1230 C1228 1.419 . S
C1230 C1231 1.362 . S
C1231 H1221 0.930 . S
C1231 C1224 1.409 . S
C1231 C1230 1.362 . S
H1232 C1238 0.930 . S
H1233 C1241 0.930 . S
H1234 C1242 0.930 . S
H1235 C1243 0.930 . S
H1236 C1246 0.930 . S
H1237 C1247 0.930 . S
C1238 H1232 0.930 . S
C1238 C1239 1.355 . S
C1238 C1240 1.415 . S
C1239 C1238 1.355 . S
C1239 C1241 1.419 . S
C1240 C1238 1.415 . S
C1240 C1245 1.425 . S
C1240 C1247 1.409 . S
C1241 H1233 0.930 . S
C1241 C1239 1.419 . S
C1241 C1242 1.362 . S
C1242 H1234 0.930 . S
C1242 C1241 1.362 . S
C1242 C1245 1.409 . S
C1243 H1235 0.930 . S
C1243 C1244 1.355 . S
C1243 C1245 1.415 . S
C1244 C1243 1.355 . S
C1244 C1246 1.419 . S
C1245 C1240 1.425 . S
C1245 C1242 1.409 . S
C1245 C1243 1.415 . S
C1246 H1236 0.930 . S
C1246 C1244 1.419 . S
C1246 C1247 1.362 . S
C1247 H1237 0.930 . S
C1247 C1240 1.409 . S
C1247 C1246 1.362 . S
H1248 C1254 0.930 . S
H1249 C1257 0.930 . S
H1250 C1258 0.930 . S
H1251 C1259 0.930 . S
H1252 C1262 0.930 . S
H1253 C1263 0.930 . S
C1254 H1248 0.930 . S
C1254 C1255 1.355 . S
C1254 C1256 1.415 . S
C1255 C1254 1.355 . S
C1255 C1257 1.419 . S
C1256 C1254 1.415 . S
C1256 C1261 1.425 1_655 S
C1256 C1263 1.409 . S
C1257 H1249 0.930 . S
C1257 C1255 1.419 . S
C1257 C1258 1.362 1_655 S
C1258 H1250 0.930 . S
C1258 C1257 1.362 1_455 S
C1258 C1261 1.409 . S
C1259 H1251 0.930 . S
C1259 C1260 1.355 . S
C1259 C1261 1.415 . S
C1260 C1259 1.355 . S
C1260 C1262 1.419 . S
C1261 C1256 1.425 1_455 S
C1261 C1258 1.409 . S
C1261 C1259 1.415 . S
C1262 H1252 0.930 . S
C1262 C1260 1.419 . S
C1262 C1263 1.362 1_455 S
C1263 H1253 0.930 . S
C1263 C1256 1.409 . S
C1263 C1262 1.362 1_655 S
H1264 C1270 0.930 . S
H1265 C1273 0.930 . S
H1266 C1274 0.930 . S
H1267 C1275 0.930 . S
H1268 C1278 0.930 . S
H1269 C1279 0.930 . S
C1270 H1264 0.930 . S
C1270 C1271 1.355 . S
C1270 C1272 1.415 . S
C1271 C1270 1.355 . S
C1271 C1273 1.419 . S
C1272 C1270 1.415 . S
C1272 C1277 1.425 . S
C1272 C1279 1.409 . S
C1273 H1265 0.930 . S
C1273 C1271 1.419 . S
C1273 C1274 1.362 . S
C1274 H1266 0.930 . S
C1274 C1273 1.362 . S
C1274 C1277 1.409 . S
C1275 H1267 0.930 . S
C1275 C1276 1.355 . S
C1275 C1277 1.415 . S
C1276 C1275 1.355 . S
C1276 C1278 1.419 . S
C1277 C1272 1.425 . S
C1277 C1274 1.409 . S
C1277 C1275 1.415 . S
C1278 H1268 0.930 . S
C1278 C1276 1.419 . S
C1278 C1279 1.362 . S
C1279 H1269 0.930 . S
C1279 C1272 1.409 . S
C1279 C1278 1.362 . S
H1280 C1286 0.930 . S
H1281 C1289 0.930 . S
H1282 C1290 0.930 . S
H1283 C1291 0.930 . S
H1284 C1294 0.930 1_556 S
H1285 C1295 0.930 1_556 S
C1286 H1280 0.930 . S
C1286 C1287 1.355 . S
C1286 C1288 1.415 . S
C1287 C1286 1.355 . S
C1287 C1289 1.419 . S
C1288 C1286 1.415 . S
C1288 C1293 1.425 . S
C1288 C1295 1.409 . S
C1289 H1281 0.930 . S
C1289 C1287 1.419 . S
C1289 C1290 1.362 . S
C1290 H1282 0.930 . S
C1290 C1289 1.362 . S
C1290 C1293 1.409 . S
C1291 H1283 0.930 . S
C1291 C1292 1.355 . S
C1291 C1293 1.415 . S
C1292 C1291 1.355 . S
C1292 C1294 1.419 . S
C1293 C1288 1.425 . S
C1293 C1290 1.409 . S
C1293 C1291 1.415 . S
C1294 H1284 0.930 1_554 S
C1294 C1292 1.419 . S
C1294 C1295 1.362 . S
C1295 H1285 0.930 1_554 S
C1295 C1288 1.409 . S
C1295 C1294 1.362 . S
H1296 C1302 0.930 . S
H1297 C1305 0.930 . S
H1298 C1306 0.930 . S
H1299 C1307 0.930 . S
H1300 C1310 0.930 . S
H1301 C1311 0.930 . S
C1302 H1296 0.930 . S
C1302 C1303 1.355 . S
C1302 C1304 1.415 . S
C1303 C1302 1.355 . S
C1303 C1305 1.419 . S
C1304 C1302 1.415 . S
C1304 C1309 1.425 . S
C1304 C1311 1.409 . S
C1305 H1297 0.930 . S
C1305 C1303 1.419 . S
C1305 C1306 1.362 . S
C1306 H1298 0.930 . S
C1306 C1305 1.362 . S
C1306 C1309 1.409 . S
C1307 H1299 0.930 . S
C1307 C1308 1.355 . S
C1307 C1309 1.415 . S
C1308 C1307 1.355 . S
C1308 C1310 1.419 . S
C1309 C1304 1.425 . S
C1309 C1306 1.409 . S
C1309 C1307 1.415 . S
C1310 H1300 0.930 . S
C1310 C1308 1.419 . S
C1310 C1311 1.362 . S
C1311 H1301 0.930 . S
C1311 C1304 1.409 . S
C1311 C1310 1.362 . S
H1312 C1318 0.930 . S
H1313 C1321 0.930 . S
H1314 C1322 0.930 . S
H1315 C1323 0.930 . S
H1316 C1326 0.930 . S
H1317 C1327 0.930 . S
C1318 H1312 0.930 . S
C1318 C1319 1.355 . S
C1318 C1320 1.415 . S
C1319 C1318 1.355 . S
C1319 C1321 1.419 . S
C1320 C1318 1.415 . S
C1320 C1325 1.425 . S
C1320 C1327 1.409 . S
C1321 H1313 0.930 . S
C1321 C1319 1.419 . S
C1321 C1322 1.362 . S
C1322 H1314 0.930 . S
C1322 C1321 1.362 . S
C1322 C1325 1.409 . S
C1323 H1315 0.930 . S
C1323 C1324 1.355 . S
C1323 C1325 1.415 . S
C1324 C1323 1.355 . S
C1324 C1326 1.419 . S
C1325 C1320 1.425 . S
C1325 C1322 1.409 . S
C1325 C1323 1.415 . S
C1326 H1316 0.930 . S
C1326 C1324 1.419 . S
C1326 C1327 1.362 . S
C1327 H1317 0.930 . S
C1327 C1320 1.409 . S
C1327 C1326 1.362 . S
H1328 C1334 0.930 . S
H1329 C1337 0.930 . S
H1330 C1338 0.930 . S
H1331 C1339 0.930 . S
H1332 C1342 0.930 . S
H1333 C1343 0.930 . S
C1334 H1328 0.930 . S
C1334 C1335 1.355 . S
C1334 C1336 1.415 . S
C1335 C1334 1.355 . S
C1335 C1337 1.419 . S
C1336 C1334 1.415 . S
C1336 C1341 1.425 . S
C1336 C1343 1.409 . S
C1337 H1329 0.930 . S
C1337 C1335 1.419 . S
C1337 C1338 1.362 . S
C1338 H1330 0.930 . S
C1338 C1337 1.362 . S
C1338 C1341 1.409 . S
C1339 H1331 0.930 . S
C1339 C1340 1.355 . S
C1339 C1341 1.415 . S
C1340 C1339 1.355 . S
C1340 C1342 1.419 . S
C1341 C1336 1.425 . S
C1341 C1338 1.409 . S
C1341 C1339 1.415 . S
C1342 H1332 0.930 . S
C1342 C1340 1.419 . S
C1342 C1343 1.362 . S
C1343 H1333 0.930 . S
C1343 C1336 1.409 . S
C1343 C1342 1.362 . S
H1344 C1350 0.930 . S
H1345 C1353 0.930 . S
H1346 C1354 0.930 . S
H1347 C1355 0.930 . S
H1348 C1358 0.930 . S
H1349 C1359 0.930 . S
C1350 H1344 0.930 . S
C1350 C1351 1.355 . S
C1350 C1352 1.415 . S
C1351 C1350 1.355 . S
C1351 C1353 1.419 . S
C1352 C1350 1.415 . S
C1352 C1357 1.425 . S
C1352 C1359 1.409 . S
C1353 H1345 0.930 . S
C1353 C1351 1.419 . S
C1353 C1354 1.362 . S
C1354 H1346 0.930 . S
C1354 C1353 1.362 . S
C1354 C1357 1.409 . S
C1355 H1347 0.930 . S
C1355 C1356 1.355 . S
C1355 C1357 1.415 . S
C1356 C1355 1.355 . S
C1356 C1358 1.419 . S
C1357 C1352 1.425 . S
C1357 C1354 1.409 . S
C1357 C1355 1.415 . S
C1358 H1348 0.930 . S
C1358 C1356 1.419 . S
C1358 C1359 1.362 . S
C1359 H1349 0.930 . S
C1359 C1352 1.409 . S
C1359 C1358 1.362 . S
H1360 C1366 0.930 . S
H1361 C1369 0.930 . S
H1362 C1370 0.930 . S
H1363 C1371 0.930 . S
H1364 C1374 0.930 . S
H1365 C1375 0.930 . S
C1366 H1360 0.930 . S
C1366 C1367 1.355 . S
C1366 C1368 1.415 . S
C1367 C1366 1.355 . S
C1367 C1369 1.419 . S
C1368 C1366 1.415 . S
C1368 C1373 1.425 . S
C1368 C1375 1.409 . S
C1369 H1361 0.930 . S
C1369 C1367 1.419 . S
C1369 C1370 1.362 . S
C1370 H1362 0.930 . S
C1370 C1369 1.362 . S
C1370 C1373 1.409 . S
C1371 H1363 0.930 . S
C1371 C1372 1.355 . S
C1371 C1373 1.415 . S
C1372 C1371 1.355 . S
C1372 C1374 1.419 . S
C1373 C1368 1.425 . S
C1373 C1370 1.409 . S
C1373 C1371 1.415 . S
C1374 H1364 0.930 . S
C1374 C1372 1.419 . S
C1374 C1375 1.362 . S
C1375 H1365 0.930 . S
C1375 C1368 1.409 . S
C1375 C1374 1.362 . S
H1376 C1382 0.930 1_565 S
H1377 C1385 0.930 . S
H1378 C1386 0.930 . S
H1379 C1387 0.930 . S
H1380 C1390 0.930 . S
H1381 C1391 0.930 . S
C1382 H1376 0.930 1_545 S
C1382 C1383 1.355 . S
C1382 C1384 1.415 1_545 S
C1383 C1382 1.355 . S
C1383 C1385 1.419 . S
C1384 C1382 1.415 1_565 S
C1384 C1389 1.432 . S
C1384 C1391 1.409 . S
C1385 H1377 0.930 . S
C1385 C1383 1.419 . S
C1385 C1386 1.362 . S
C1386 H1378 0.930 . S
C1386 C1385 1.362 . S
C1386 C1389 1.395 1_545 S
C1387 H1379 0.930 . S
C1387 C1388 1.355 . S
C1387 C1389 1.422 . S
C1388 C1387 1.355 . S
C1388 C1390 1.419 . S
C1389 C1384 1.432 . S
C1389 C1386 1.395 1_565 S
C1389 C1387 1.422 . S
C1390 H1380 0.930 . S
C1390 C1388 1.419 . S
C1390 C1391 1.362 . S
C1391 H1381 0.930 . S
C1391 C1384 1.409 . S
C1391 C1390 1.362 . S
H1392 C1398 0.930 . S
H1393 C1401 0.930 . S
H1394 C1402 0.930 . S
H1395 C1403 0.930 . S
H1396 C1406 0.942 . S
H1397 C1407 0.930 1_556 S
C1398 H1392 0.930 . S
C1398 C1399 1.355 . S
C1398 C1400 1.415 . S
C1399 C1398 1.355 . S
C1399 C1401 1.419 . S
C1400 C1398 1.415 . S
C1400 C1405 1.425 1_565 S
C1400 C1407 1.409 1_455 S
C1401 H1393 0.930 . S
C1401 C1399 1.419 . S
C1401 C1402 1.362 1_565 S
C1402 H1394 0.930 . S
C1402 C1401 1.362 1_545 S
C1402 C1405 1.409 . S
C1403 H1395 0.930 . S
C1403 C1404 1.355 . S
C1403 C1405 1.415 1_655 S
C1404 C1403 1.355 . S
C1404 C1406 1.408 1_554 S
C1405 C1400 1.425 1_545 S
C1405 C1402 1.409 . S
C1405 C1403 1.415 1_455 S
C1406 H1396 0.942 . S
C1406 C1404 1.408 1_556 S
C1406 C1407 1.362 1_546 S
C1407 H1397 0.930 1_554 S
C1407 C1400 1.409 1_655 S
C1407 C1406 1.362 1_564 S
H1408 C1414 0.936 1_556 S
H1409 C1417 0.930 . S
H1410 C1418 0.930 . S
H1411 C1419 0.930 . S
H1412 C1422 0.930 . S
H1413 C1423 0.930 1_556 S
C1414 H1408 0.936 1_554 S
C1414 C1415 1.355 . S
C1414 C1416 1.415 1_565 S
C1415 C1414 1.355 . S
C1415 C1417 1.419 . S
C1416 C1414 1.415 1_545 S
C1416 C1421 1.425 . S
C1416 C1423 1.409 . S
C1417 H1409 0.930 . S
C1417 C1415 1.419 . S
C1417 C1418 1.362 . S
C1418 H1410 0.930 . S
C1418 C1417 1.362 . S
C1418 C1421 1.409 1_565 S
C1419 H1411 0.930 . S
C1419 C1420 1.355 . S
C1419 C1421 1.415 . S
C1420 C1419 1.355 . S
C1420 C1422 1.419 . S
C1421 C1416 1.425 . S
C1421 C1418 1.409 1_545 S
C1421 C1419 1.415 . S
C1422 H1412 0.930 . S
C1422 C1420 1.419 . S
C1422 C1423 1.362 . S
C1423 H1413 0.930 1_554 S
C1423 C1416 1.409 . S
C1423 C1422 1.362 . S
H1424 C1430 0.930 . S
H1425 C1433 0.930 . S
H1426 C1434 0.930 . S
H1427 C1435 0.931 . S
H1428 C1438 0.930 . S
H1429 C1439 0.930 . S
C1430 H1424 0.930 . S
C1430 C1431 1.355 . S
C1430 C1432 1.415 . S
C1431 C1430 1.355 . S
C1431 C1433 1.419 . S
C1432 C1430 1.415 . S
C1432 C1437 1.425 1_655 S
C1432 C1439 1.409 1_565 S
C1433 H1425 0.930 . S
C1433 C1431 1.419 . S
C1433 C1434 1.362 1_655 S
C1434 H1426 0.930 . S
C1434 C1433 1.362 1_455 S
C1434 C1437 1.409 . S
C1435 H1427 0.931 . S
C1435 C1436 1.355 . S
C1435 C1437 1.415 1_545 S
C1436 C1435 1.355 . S
C1436 C1438 1.419 . S
C1437 C1432 1.425 1_455 S
C1437 C1434 1.409 . S
C1437 C1435 1.415 1_565 S
C1438 H1428 0.930 . S
C1438 C1436 1.419 . S
C1438 C1439 1.362 1_455 S
C1439 H1429 0.930 . S
C1439 C1432 1.409 1_545 S
C1439 C1438 1.362 1_655 S
H1440 C1446 0.930 . S
H1441 C1449 0.930 . S
H1442 C1450 0.930 . S
H1443 C1451 0.914 1_455 S
H1444 C1454 0.930 . S
H1445 C1455 0.930 . S
C1446 H1440 0.930 . S
C1446 C1447 1.355 . S
C1446 C1448 1.415 1_455 S
C1447 C1446 1.355 . S
C1447 C1449 1.419 . S
C1448 C1446 1.415 1_655 S
C1448 C1453 1.425 1_655 S
C1448 C1455 1.409 . S
C1449 H1441 0.930 . S
C1449 C1447 1.419 . S
C1449 C1450 1.362 . S
C1450 H1442 0.930 . S
C1450 C1449 1.362 . S
C1450 C1453 1.409 . S
C1451 H1443 0.914 1_655 S
C1451 C1452 1.355 . S
C1451 C1453 1.415 1_655 S
C1452 C1451 1.355 . S
C1452 C1454 1.419 . S
C1453 C1448 1.425 1_455 S
C1453 C1450 1.409 . S
C1453 C1451 1.415 1_455 S
C1454 H1444 0.930 . S
C1454 C1452 1.419 . S
C1454 C1455 1.362 . S
C1455 H1445 0.930 . S
C1455 C1448 1.409 . S
C1455 C1454 1.362 . S
H1456 C1462 0.930 . S
H1457 C1465 0.930 . S
H1458 C1466 0.930 . S
H1459 C1467 0.930 . S
H1460 C1470 0.930 . S
H1461 C1471 0.930 . S
C1462 H1456 0.930 . S
C1462 C1463 1.346 1_554 S
C1462 C1464 1.415 . S
C1463 C1462 1.346 1_556 S
C1463 C1465 1.421 . S
C1464 C1462 1.415 . S
C1464 C1469 1.425 . S
C1464 C1471 1.409 . S
C1465 H1457 0.930 . S
C1465 C1463 1.421 . S
C1465 C1466 1.362 1_556 S
C1466 H1458 0.930 . S
C1466 C1465 1.362 1_554 S
C1466 C1469 1.409 . S
C1467 H1459 0.930 . S
C1467 C1468 1.355 . S
C1467 C1469 1.415 . S
C1468 C1467 1.355 . S
C1468 C1470 1.419 . S
C1469 C1464 1.425 . S
C1469 C1466 1.409 . S
C1469 C1467 1.415 . S
C1470 H1460 0.930 . S
C1470 C1468 1.419 . S
C1470 C1471 1.362 . S
C1471 H1461 0.930 . S
C1471 C1464 1.409 . S
C1471 C1470 1.362 . S
H1472 C1478 0.930 . S
H1473 C1481 0.930 . S
H1474 C1482 0.930 . S
H1475 C1483 0.930 . S
H1476 C1486 0.930 . S
H1477 C1487 0.930 . S
C1478 H1472 0.930 . S
C1478 C1479 1.355 . S
C1478 C1480 1.415 . S
C1479 C1478 1.355 . S
C1479 C1481 1.419 . S
C1480 C1478 1.415 . S
C1480 C1485 1.425 . S
C1480 C1487 1.409 . S
C1481 H1473 0.930 . S
C1481 C1479 1.419 . S
C1481 C1482 1.362 . S
C1482 H1474 0.930 . S
C1482 C1481 1.362 . S
C1482 C1485 1.409 . S
C1483 H1475 0.930 . S
C1483 C1484 1.355 . S
C1483 C1485 1.415 . S
C1484 C1483 1.355 . S
C1484 C1486 1.419 . S
C1485 C1480 1.425 . S
C1485 C1482 1.409 . S
C1485 C1483 1.415 . S
C1486 H1476 0.930 . S
C1486 C1484 1.419 . S
C1486 C1487 1.362 . S
C1487 H1477 0.930 . S
C1487 C1480 1.409 . S
C1487 C1486 1.362 . S
H1488 C1494 0.930 . S
H1489 C1497 0.930 . S
H1490 C1498 0.930 . S
H1491 C1499 0.930 . S
H1492 C1502 0.930 . S
H1493 C1503 0.930 . S
C1494 H1488 0.930 . S
C1494 C1495 1.355 . S
C1494 C1496 1.415 . S
C1495 C1494 1.355 . S
C1495 C1497 1.419 . S
C1496 C1494 1.415 . S
C1496 C1501 1.425 . S
C1496 C1503 1.409 . S
C1497 H1489 0.930 . S
C1497 C1495 1.419 . S
C1497 C1498 1.362 . S
C1498 H1490 0.930 . S
C1498 C1497 1.362 . S
C1498 C1501 1.409 . S
C1499 H1491 0.930 . S
C1499 C1500 1.355 . S
C1499 C1501 1.415 . S
C1500 C1499 1.355 . S
C1500 C1502 1.419 . S
C1501 C1496 1.425 . S
C1501 C1498 1.409 . S
C1501 C1499 1.415 . S
C1502 H1492 0.930 . S
C1502 C1500 1.419 . S
C1502 C1503 1.362 . S
C1503 H1493 0.930 . S
C1503 C1496 1.409 . S
C1503 C1502 1.362 . S
H1504 C1510 0.930 1_455 S
H1505 C1513 0.930 . S
H1506 C1514 0.930 . S
H1507 C1515 0.948 . S
H1508 C1518 0.930 . S
H1509 C1519 0.930 . S
C1510 H1504 0.930 1_655 S
C1510 C1511 1.355 . S
C1510 C1512 1.415 1_655 S
C1511 C1510 1.355 . S
C1511 C1513 1.419 . S
C1512 C1510 1.415 1_455 S
C1512 C1517 1.425 1_455 S
C1512 C1519 1.409 . S
C1513 H1505 0.930 . S
C1513 C1511 1.419 . S
C1513 C1514 1.362 . S
C1514 H1506 0.930 . S
C1514 C1513 1.362 . S
C1514 C1517 1.409 . S
C1515 H1507 0.948 . S
C1515 C1516 1.355 . S
C1515 C1517 1.415 1_455 S
C1516 C1515 1.355 . S
C1516 C1518 1.419 . S
C1517 C1512 1.425 1_655 S
C1517 C1514 1.409 . S
C1517 C1515 1.415 1_655 S
C1518 H1508 0.930 . S
C1518 C1516 1.419 . S
C1518 C1519 1.362 . S
C1519 H1509 0.930 . S
C1519 C1512 1.409 . S
C1519 C1518 1.362 . S
H1520 C1526 0.930 . S
H1521 C1529 0.930 . S
H1522 C1530 0.930 . S
H1523 C1531 0.930 . S
H1524 C1534 0.930 . S
H1525 C1535 0.930 . S
C1526 H1520 0.930 . S
C1526 C1527 1.355 . S
C1526 C1528 1.415 . S
C1527 C1526 1.355 . S
C1527 C1529 1.419 . S
C1528 C1526 1.415 . S
C1528 C1533 1.425 . S
C1528 C1535 1.409 . S
C1529 H1521 0.930 . S
C1529 C1527 1.419 . S
C1529 C1530 1.362 . S
C1530 H1522 0.930 . S
C1530 C1529 1.362 . S
C1530 C1533 1.409 . S
C1531 H1523 0.930 . S
C1531 C1532 1.355 . S
C1531 C1533 1.415 1_556 S
C1532 C1531 1.355 . S
C1532 C1534 1.419 . S
C1533 C1528 1.425 . S
C1533 C1530 1.409 . S
C1533 C1531 1.415 1_554 S
C1534 H1524 0.930 . S
C1534 C1532 1.419 . S
C1534 C1535 1.362 1_556 S
C1535 H1525 0.930 . S
C1535 C1528 1.409 . S
C1535 C1534 1.362 1_554 S
H1536 C1542 0.930 . S
H1537 C1545 0.930 . S
H1538 C1546 0.930 . S
H1539 C1547 0.930 . S
H1540 C1550 0.930 . S
H1541 C1551 0.930 . S
C1542 H1536 0.930 . S
C1542 C1543 1.355 . S
C1542 C1544 1.415 . S
C1543 C1542 1.355 . S
C1543 C1545 1.419 . S
C1544 C1542 1.415 . S
C1544 C1549 1.425 . S
C1544 C1551 1.409 . S
C1545 H1537 0.930 . S
C1545 C1543 1.419 . S
C1545 C1546 1.362 . S
C1546 H1538 0.930 . S
C1546 C1545 1.362 . S
C1546 C1549 1.409 . S
C1547 H1539 0.930 . S
C1547 C1548 1.355 . S
C1547 C1549 1.415 . S
C1548 C1547 1.355 . S
C1548 C1550 1.419 . S
C1549 C1544 1.425 . S
C1549 C1546 1.409 . S
C1549 C1547 1.415 . S
C1550 H1540 0.930 . S
C1550 C1548 1.419 . S
C1550 C1551 1.362 . S
C1551 H1541 0.930 . S
C1551 C1544 1.409 . S
C1551 C1550 1.362 . S
H1552 C1558 0.930 . S
H1553 C1561 0.930 . S
H1554 C1562 0.930 . S
H1555 C1563 0.930 . S
H1556 C1566 0.930 . S
H1557 C1567 0.930 . S
C1558 H1552 0.930 . S
C1558 C1559 1.355 . S
C1558 C1560 1.415 . S
C1559 C1558 1.355 . S
C1559 C1561 1.419 . S
C1560 C1558 1.415 . S
C1560 C1565 1.425 . S
C1560 C1567 1.409 . S
C1561 H1553 0.930 . S
C1561 C1559 1.419 . S
C1561 C1562 1.362 . S
C1562 H1554 0.930 . S
C1562 C1561 1.362 . S
C1562 C1565 1.409 . S
C1563 H1555 0.930 . S
C1563 C1564 1.355 . S
C1563 C1565 1.415 . S
C1564 C1563 1.355 . S
C1564 C1566 1.419 . S
C1565 C1560 1.425 . S
C1565 C1562 1.409 . S
C1565 C1563 1.415 . S
C1566 H1556 0.930 . S
C1566 C1564 1.419 . S
C1566 C1567 1.362 . S
C1567 H1557 0.930 . S
C1567 C1560 1.409 . S
C1567 C1566 1.362 . S
H1568 C1574 0.930 . S
H1569 C1577 0.930 . S
H1570 C1578 0.930 . S
H1571 C1579 0.930 . S
H1572 C1582 0.930 . S
H1573 C1583 0.930 . S
C1574 H1568 0.930 . S
C1574 C1575 1.355 . S
C1574 C1576 1.415 . S
C1575 C1574 1.355 . S
C1575 C1577 1.419 . S
C1576 C1574 1.415 . S
C1576 C1581 1.425 . S
C1576 C1583 1.409 1_455 S
C1577 H1569 0.930 . S
C1577 C1575 1.419 . S
C1577 C1578 1.362 . S
C1578 H1570 0.930 . S
C1578 C1577 1.362 . S
C1578 C1581 1.409 . S
C1579 H1571 0.930 . S
C1579 C1580 1.355 . S
C1579 C1581 1.415 1_655 S
C1580 C1579 1.355 . S
C1580 C1582 1.419 . S
C1581 C1576 1.425 . S
C1581 C1578 1.409 . S
C1581 C1579 1.415 1_455 S
C1582 H1572 0.930 . S
C1582 C1580 1.419 . S
C1582 C1583 1.362 . S
C1583 H1573 0.930 . S
C1583 C1576 1.409 1_655 S
C1583 C1582 1.362 . S
H1584 C1590 0.930 . S
H1585 C1593 0.930 . S
H1586 C1594 0.930 . S
H1587 C1595 0.930 . S
H1588 C1598 0.930 . S
H1589 C1599 0.930 . S
C1590 H1584 0.930 . S
C1590 C1591 1.355 . S
C1590 C1592 1.415 . S
C1591 C1590 1.355 . S
C1591 C1593 1.419 . S
C1592 C1590 1.415 . S
C1592 C1597 1.425 . S
C1592 C1599 1.409 1_554 S
C1593 H1585 0.930 . S
C1593 C1591 1.419 . S
C1593 C1594 1.362 . S
C1594 H1586 0.930 . S
C1594 C1593 1.362 . S
C1594 C1597 1.409 . S
C1595 H1587 0.930 . S
C1595 C1596 1.355 1_554 S
C1595 C1597 1.415 . S
C1596 C1595 1.355 1_556 S
C1596 C1598 1.419 . S
C1597 C1592 1.425 . S
C1597 C1594 1.409 . S
C1597 C1595 1.415 . S
C1598 H1588 0.930 . S
C1598 C1596 1.419 . S
C1598 C1599 1.362 . S
C1599 H1589 0.930 . S
C1599 C1592 1.409 1_556 S
C1599 C1598 1.362 . S
H1600 C1606 0.930 . S
H1601 C1609 0.930 . S
H1602 C1610 0.930 . S
H1603 C1611 0.930 . S
H1604 C1614 0.930 . S
H1605 C1615 0.930 . S
C1606 H1600 0.930 . S
C1606 C1607 1.355 . S
C1606 C1608 1.415 . S
C1607 C1606 1.355 . S
C1607 C1609 1.419 . S
C1608 C1606 1.415 . S
C1608 C1613 1.425 . S
C1608 C1615 1.409 . S
C1609 H1601 0.930 . S
C1609 C1607 1.419 . S
C1609 C1610 1.362 . S
C1610 H1602 0.930 . S
C1610 C1609 1.362 . S
C1610 C1613 1.409 . S
C1611 H1603 0.930 . S
C1611 C1612 1.355 . S
C1611 C1613 1.415 . S
C1612 C1611 1.355 . S
C1612 C1614 1.419 . S
C1613 C1608 1.425 . S
C1613 C1610 1.409 . S
C1613 C1611 1.415 . S
C1614 H1604 0.930 . S
C1614 C1612 1.419 . S
C1614 C1615 1.362 . S
C1615 H1605 0.930 . S
C1615 C1608 1.409 . S
C1615 C1614 1.362 . S
H1616 C1622 0.930 . S
H1617 C1625 0.930 . S
H1618 C1626 0.930 . S
H1619 C1627 0.930 . S
H1620 C1630 0.930 . S
H1621 C1631 0.930 . S
C1622 H1616 0.930 . S
C1622 C1623 1.355 . S
C1622 C1624 1.415 . S
C1623 C1622 1.355 . S
C1623 C1625 1.419 . S
C1624 C1622 1.415 . S
C1624 C1629 1.425 . S
C1624 C1631 1.409 . S
C1625 H1617 0.930 . S
C1625 C1623 1.419 . S
C1625 C1626 1.362 . S
C1626 H1618 0.930 . S
C1626 C1625 1.362 . S
C1626 C1629 1.409 . S
C1627 H1619 0.930 . S
C1627 C1628 1.355 . S
C1627 C1629 1.415 . S
C1628 C1627 1.355 . S
C1628 C1630 1.419 . S
C1629 C1624 1.425 . S
C1629 C1626 1.409 . S
C1629 C1627 1.415 . S
C1630 H1620 0.930 . S
C1630 C1628 1.419 . S
C1630 C1631 1.362 . S
C1631 H1621 0.930 . S
C1631 C1624 1.409 . S
C1631 C1630 1.362 . S
H1632 C1638 0.908 1_655 S
H1633 C1641 0.930 . S
H1634 C1642 0.930 . S
H1635 C1643 0.930 1_455 S
H1636 C1646 0.930 . S
H1637 C1647 0.930 . S
C1638 H1632 0.908 1_455 S
C1638 C1639 1.355 . S
C1638 C1640 1.415 1_455 S
C1639 C1638 1.355 . S
C1639 C1641 1.419 . S
C1640 C1638 1.415 1_655 S
C1640 C1645 1.425 1_655 S
C1640 C1647 1.409 . S
C1641 H1633 0.930 . S
C1641 C1639 1.419 . S
C1641 C1642 1.362 . S
C1642 H1634 0.930 . S
C1642 C1641 1.362 . S
C1642 C1645 1.409 . S
C1643 H1635 0.930 1_655 S
C1643 C1644 1.355 . S
C1643 C1645 1.415 1_655 S
C1644 C1643 1.355 . S
C1644 C1646 1.419 . S
C1645 C1640 1.425 1_455 S
C1645 C1642 1.409 . S
C1645 C1643 1.415 1_455 S
C1646 H1636 0.930 . S
C1646 C1644 1.419 . S
C1646 C1647 1.362 . S
C1647 H1637 0.930 . S
C1647 C1640 1.409 . S
C1647 C1646 1.362 . S
H1648 C1654 0.930 . S
H1649 C1657 0.930 1_556 S
H1650 C1658 0.930 . S
H1651 C1659 0.930 . S
H1652 C1662 0.930 . S
H1653 C1663 0.930 . S
C1654 H1648 0.930 . S
C1654 C1655 1.355 1_554 S
C1654 C1656 1.415 . S
C1655 C1654 1.355 1_556 S
C1655 C1657 1.419 1_556 S
C1656 C1654 1.415 . S
C1656 C1661 1.425 . S
C1656 C1663 1.409 . S
C1657 H1649 0.930 1_554 S
C1657 C1655 1.419 1_554 S
C1657 C1658 1.362 . S
C1658 H1650 0.930 . S
C1658 C1657 1.362 . S
C1658 C1661 1.409 . S
C1659 H1651 0.930 . S
C1659 C1660 1.355 . S
C1659 C1661 1.415 . S
C1660 C1659 1.355 . S
C1660 C1662 1.419 . S
C1661 C1656 1.425 . S
C1661 C1658 1.409 . S
C1661 C1659 1.415 . S
C1662 H1652 0.930 . S
C1662 C1660 1.419 . S
C1662 C1663 1.362 . S
C1663 H1653 0.930 . S
C1663 C1656 1.409 . S
C1663 C1662 1.362 . S
H1664 C1670 0.930 . S
H1665 C1673 0.930 . S
H1666 C1674 0.930 . S
H1667 C1675 0.930 . S
H1668 C1678 0.930 . S
H1669 C1679 0.930 . S
C1670 H1664 0.930 . S
C1670 C1671 1.355 . S
C1670 C1672 1.415 . S
C1671 C1670 1.355 . S
C1671 C1673 1.419 . S
C1672 C1670 1.415 . S
C1672 C1677 1.425 . S
C1672 C1679 1.409 . S
C1673 H1665 0.930 . S
C1673 C1671 1.419 . S
C1673 C1674 1.362 . S
C1674 H1666 0.930 . S
C1674 C1673 1.362 . S
C1674 C1677 1.409 . S
C1675 H1667 0.930 . S
C1675 C1676 1.355 . S
C1675 C1677 1.415 . S
C1676 C1675 1.355 . S
C1676 C1678 1.419 . S
C1677 C1672 1.425 . S
C1677 C1674 1.409 . S
C1677 C1675 1.415 . S
C1678 H1668 0.930 . S
C1678 C1676 1.419 . S
C1678 C1679 1.362 . S
C1679 H1669 0.930 . S
C1679 C1672 1.409 . S
C1679 C1678 1.362 . S
H1680 C1686 0.930 . S
H1681 C1689 0.930 . S
H1682 C1690 0.930 . S
H1683 C1691 0.930 . S
H1684 C1694 0.930 . S
H1685 C1695 0.930 . S
C1686 H1680 0.930 . S
C1686 C1687 1.355 . S
C1686 C1688 1.415 . S
C1687 C1686 1.355 . S
C1687 C1689 1.419 . S
C1688 C1686 1.415 . S
C1688 C1693 1.425 . S
C1688 C1695 1.409 . S
C1689 H1681 0.930 . S
C1689 C1687 1.419 . S
C1689 C1690 1.362 . S
C1690 H1682 0.930 . S
C1690 C1689 1.362 . S
C1690 C1693 1.409 . S
C1691 H1683 0.930 . S
C1691 C1692 1.355 . S
C1691 C1693 1.415 . S
C1692 C1691 1.355 . S
C1692 C1694 1.419 . S
C1693 C1688 1.425 . S
C1693 C1690 1.409 . S
C1693 C1691 1.415 . S
C1694 H1684 0.930 . S
C1694 C1692 1.419 . S
C1694 C1695 1.362 . S
C1695 H1685 0.930 . S
C1695 C1688 1.409 . S
C1695 C1694 1.362 . S
H1696 C1702 0.930 . S
H1697 C1705 0.930 . S
H1698 C1706 0.930 . S
H1699 C1707 0.930 . S
H1700 C1710 0.930 . S
H1701 C1711 0.930 . S
C1702 H1696 0.930 . S
C1702 C1703 1.355 . S
C1702 C1704 1.415 . S
C1703 C1702 1.355 . S
C1703 C1705 1.419 . S
C1704 C1702 1.415 . S
C1704 C1709 1.425 . S
C1704 C1711 1.409 . S
C1705 H1697 0.930 . S
C1705 C1703 1.419 . S
C1705 C1706 1.362 . S
C1706 H1698 0.930 . S
C1706 C1705 1.362 . S
C1706 C1709 1.409 . S
C1707 H1699 0.930 . S
C1707 C1708 1.355 . S
C1707 C1709 1.415 . S
C1708 C1707 1.355 . S
C1708 C1710 1.419 . S
C1709 C1704 1.425 . S
C1709 C1706 1.409 . S
C1709 C1707 1.415 . S
C1710 H1700 0.930 . S
C1710 C1708 1.419 . S
C1710 C1711 1.362 . S
C1711 H1701 0.930 . S
C1711 C1704 1.409 . S
C1711 C1710 1.362 . S
H1712 C1718 0.930 . S
H1713 C1721 0.930 . S
H1714 C1722 0.930 . S
H1715 C1723 0.930 . S
H1716 C1726 0.930 . S
H1717 C1727 0.930 . S
C1718 H1712 0.930 . S
C1718 C1719 1.355 . S
C1718 C1720 1.415 . S
C1719 C1718 1.355 . S
C1719 C1721 1.419 . S
C1720 C1718 1.415 . S
C1720 C1725 1.425 . S
C1720 C1727 1.409 . S
C1721 H1713 0.930 . S
C1721 C1719 1.419 . S
C1721 C1722 1.362 . S
C1722 H1714 0.930 . S
C1722 C1721 1.362 . S
C1722 C1725 1.409 . S
C1723 H1715 0.930 . S
C1723 C1724 1.355 . S
C1723 C1725 1.415 . S
C1724 C1723 1.355 . S
C1724 C1726 1.419 . S
C1725 C1720 1.425 . S
C1725 C1722 1.409 . S
C1725 C1723 1.415 . S
C1726 H1716 0.930 . S
C1726 C1724 1.419 . S
C1726 C1727 1.362 . S
C1727 H1717 0.930 . S
C1727 C1720 1.409 . S
C1727 C1726 1.362 . S
H1728 C1734 0.930 1_455 S
H1729 C1737 0.930 . S
H1730 C1738 0.930 . S
H1731 C1739 0.930 1_655 S
H1732 C1742 0.930 . S
H1733 C1743 0.930 . S
C1734 H1728 0.930 1_655 S
C1734 C1735 1.355 . S
C1734 C1736 1.415 1_655 S
C1735 C1734 1.355 . S
C1735 C1737 1.419 . S
C1736 C1734 1.415 1_455 S
C1736 C1741 1.425 1_455 S
C1736 C1743 1.409 . S
C1737 H1729 0.930 . S
C1737 C1735 1.419 . S
C1737 C1738 1.362 . S
C1738 H1730 0.930 . S
C1738 C1737 1.362 . S
C1738 C1741 1.409 . S
C1739 H1731 0.930 1_455 S
C1739 C1740 1.355 . S
C1739 C1741 1.415 1_455 S
C1740 C1739 1.355 . S
C1740 C1742 1.419 . S
C1741 C1736 1.425 1_655 S
C1741 C1738 1.409 . S
C1741 C1739 1.415 1_655 S
C1742 H1732 0.930 . S
C1742 C1740 1.419 . S
C1742 C1743 1.362 . S
C1743 H1733 0.930 . S
C1743 C1736 1.409 . S
C1743 C1742 1.362 . S
H1744 C1750 0.930 1_556 S
H1745 C1753 0.930 . S
H1746 C1754 0.930 . S
H1747 C1755 0.930 . S
H1748 C1758 0.930 . S
H1749 C1759 0.930 . S
C1750 H1744 0.930 1_554 S
C1750 C1751 1.355 . S
C1750 C1752 1.415 . S
C1751 C1750 1.355 . S
C1751 C1753 1.419 . S
C1752 C1750 1.415 . S
C1752 C1757 1.425 . S
C1752 C1759 1.409 . S
C1753 H1745 0.930 . S
C1753 C1751 1.419 . S
C1753 C1754 1.362 . S
C1754 H1746 0.930 . S
C1754 C1753 1.362 . S
C1754 C1757 1.409 . S
C1755 H1747 0.930 . S
C1755 C1756 1.355 . S
C1755 C1757 1.415 . S
C1756 C1755 1.355 . S
C1756 C1758 1.419 . S
C1757 C1752 1.425 . S
C1757 C1754 1.409 . S
C1757 C1755 1.415 . S
C1758 H1748 0.930 . S
C1758 C1756 1.419 . S
C1758 C1759 1.362 . S
C1759 H1749 0.930 . S
C1759 C1752 1.409 . S
C1759 C1758 1.362 . S
H1760 C1766 0.930 . S
H1761 C1769 0.930 . S
H1762 C1770 0.930 . S
H1763 C1771 0.930 . S
H1764 C1774 0.930 . S
H1765 C1775 0.930 . S
C1766 H1760 0.930 . S
C1766 C1767 1.355 . S
C1766 C1768 1.415 . S
C1767 C1766 1.355 . S
C1767 C1769 1.419 . S
C1768 C1766 1.415 . S
C1768 C1773 1.425 . S
C1768 C1775 1.409 . S
C1769 H1761 0.930 . S
C1769 C1767 1.419 . S
C1769 C1770 1.362 . S
C1770 H1762 0.930 . S
C1770 C1769 1.362 . S
C1770 C1773 1.409 . S
C1771 H1763 0.930 . S
C1771 C1772 1.355 . S
C1771 C1773 1.415 . S
C1772 C1771 1.355 . S
C1772 C1774 1.419 . S
C1773 C1768 1.425 . S
C1773 C1770 1.409 . S
C1773 C1771 1.415 . S
C1774 H1764 0.930 . S
C1774 C1772 1.419 . S
C1774 C1775 1.362 . S
C1775 H1765 0.930 . S
C1775 C1768 1.409 . S
C1775 C1774 1.362 . S
H1776 C1782 0.930 . S
H1777 C1785 0.930 . S
H1778 C1786 0.930 . S
H1779 C1787 0.930 . S
H1780 C1790 0.930 . S
H1781 C1791 0.930 . S
C1782 H1776 0.930 . S
C1782 C1783 1.355 . S
C1782 C1784 1.415 . S
C1783 C1782 1.355 . S
C1783 C1785 1.419 . S
C1784 C1782 1.415 . S
C1784 C1789 1.425 . S
C1784 C1791 1.409 . S
C1785 H1777 0.930 . S
C1785 C1783 1.419 . S
C1785 C1786 1.362 . S
C1786 H1778 0.930 . S
C1786 C1785 1.362 . S
C1786 C1789 1.409 . S
C1787 H1779 0.930 . S
C1787 C1788 1.355 . S
C1787 C1789 1.415 . S
C1788 C1787 1.355 . S
C1788 C1790 1.419 . S
C1789 C1784 1.425 . S
C1789 C1786 1.409 . S
C1789 C1787 1.415 . S
C1790 H1780 0.930 . S
C1790 C1788 1.419 . S
C1790 C1791 1.362 . S
C1791 H1781 0.930 . S
C1791 C1784 1.409 . S
C1791 C1790 1.362 . S
H1792 C1798 0.930 . S
H1793 C1801 0.922 1_655 S
H1794 C1802 0.930 . S
H1795 C1803 0.930 . S
H1796 C1806 0.930 . S
H1797 C1807 0.930 . S
C1798 H1792 0.930 . S
C1798 C1799 1.355 . S
C1798 C1800 1.415 . S
C1799 C1798 1.355 . S
C1799 C1801 1.419 . S
C1800 C1798 1.415 . S
C1800 C1805 1.425 1_455 S
C1800 C1807 1.409 . S
C1801 H1793 0.922 1_455 S
C1801 C1799 1.419 . S
C1801 C1802 1.362 1_455 S
C1802 H1794 0.930 . S
C1802 C1801 1.362 1_655 S
C1802 C1805 1.409 . S
C1803 H1795 0.930 . S
C1803 C1804 1.355 . S
C1803 C1805 1.415 . S
C1804 C1803 1.355 . S
C1804 C1806 1.419 . S
C1805 C1800 1.425 1_655 S
C1805 C1802 1.409 . S
C1805 C1803 1.415 . S
C1806 H1796 0.930 . S
C1806 C1804 1.419 . S
C1806 C1807 1.362 1_655 S
C1807 H1797 0.930 . S
C1807 C1800 1.409 . S
C1807 C1806 1.362 1_455 S
H1808 C1814 0.930 . S
H1809 C1817 0.930 . S
H1810 C1818 0.930 . S
H1811 C1819 0.930 . S
H1812 C1822 0.930 . S
H1813 C1823 0.930 . S
C1814 H1808 0.930 . S
C1814 C1815 1.355 . S
C1814 C1816 1.415 . S
C1815 C1814 1.355 . S
C1815 C1817 1.419 . S
C1816 C1814 1.415 . S
C1816 C1821 1.425 . S
C1816 C1823 1.409 1_554 S
C1817 H1809 0.930 . S
C1817 C1815 1.419 . S
C1817 C1818 1.362 . S
C1818 H1810 0.930 . S
C1818 C1817 1.362 . S
C1818 C1821 1.409 . S
C1819 H1811 0.930 . S
C1819 C1820 1.355 1_554 S
C1819 C1821 1.415 . S
C1820 C1819 1.355 1_556 S
C1820 C1822 1.419 . S
C1821 C1816 1.425 . S
C1821 C1818 1.409 . S
C1821 C1819 1.415 . S
C1822 H1812 0.930 . S
C1822 C1820 1.419 . S
C1822 C1823 1.362 . S
C1823 H1813 0.930 . S
C1823 C1816 1.409 1_556 S
C1823 C1822 1.362 . S
H1824 C1830 0.930 . S
H1825 C1833 0.930 . S
H1826 C1834 0.930 . S
H1827 C1835 0.930 . S
H1828 C1838 0.930 . S
H1829 C1839 0.930 . S
C1830 H1824 0.930 . S
C1830 C1831 1.355 . S
C1830 C1832 1.415 . S
C1831 C1830 1.355 . S
C1831 C1833 1.419 . S
C1832 C1830 1.415 . S
C1832 C1837 1.425 . S
C1832 C1839 1.409 . S
C1833 H1825 0.930 . S
C1833 C1831 1.419 . S
C1833 C1834 1.362 . S
C1834 H1826 0.930 . S
C1834 C1833 1.362 . S
C1834 C1837 1.409 . S
C1835 H1827 0.930 . S
C1835 C1836 1.355 . S
C1835 C1837 1.415 . S
C1836 C1835 1.355 . S
C1836 C1838 1.419 . S
C1837 C1832 1.425 . S
C1837 C1834 1.409 . S
C1837 C1835 1.415 . S
C1838 H1828 0.930 . S
C1838 C1836 1.419 . S
C1838 C1839 1.362 . S
C1839 H1829 0.930 . S
C1839 C1832 1.409 . S
C1839 C1838 1.362 . S
H1840 C1846 0.930 . S
H1841 C1849 0.930 . S
H1842 C1850 0.930 . S
H1843 C1851 0.930 . S
H1844 C1854 0.930 . S
H1845 C1855 0.930 . S
C1846 H1840 0.930 . S
C1846 C1847 1.355 . S
C1846 C1848 1.415 . S
C1847 C1846 1.355 . S
C1847 C1849 1.419 . S
C1848 C1846 1.415 . S
C1848 C1853 1.425 . S
C1848 C1855 1.409 . S
C1849 H1841 0.930 . S
C1849 C1847 1.419 . S
C1849 C1850 1.362 . S
C1850 H1842 0.930 . S
C1850 C1849 1.362 . S
C1850 C1853 1.409 . S
C1851 H1843 0.930 . S
C1851 C1852 1.355 . S
C1851 C1853 1.415 . S
C1852 C1851 1.355 . S
C1852 C1854 1.419 . S
C1853 C1848 1.425 . S
C1853 C1850 1.409 . S
C1853 C1851 1.415 . S
C1854 H1844 0.930 . S
C1854 C1852 1.419 . S
C1854 C1855 1.362 . S
C1855 H1845 0.930 . S
C1855 C1848 1.409 . S
C1855 C1854 1.362 . S
H1856 C1862 0.930 1_655 S
H1857 C1865 0.930 . S
H1858 C1866 0.930 . S
H1859 C1867 0.933 . S
H1860 C1870 0.930 . S
H1861 C1871 0.930 . S
C1862 H1856 0.930 1_455 S
C1862 C1863 1.355 . S
C1862 C1864 1.415 1_455 S
C1863 C1862 1.355 . S
C1863 C1865 1.419 . S
C1864 C1862 1.415 1_655 S
C1864 C1869 1.425 1_655 S
C1864 C1871 1.409 . S
C1865 H1857 0.930 . S
C1865 C1863 1.419 . S
C1865 C1866 1.362 . S
C1866 H1858 0.930 . S
C1866 C1865 1.362 . S
C1866 C1869 1.409 . S
C1867 H1859 0.933 . S
C1867 C1868 1.355 . S
C1867 C1869 1.415 1_655 S
C1868 C1867 1.355 . S
C1868 C1870 1.419 . S
C1869 C1864 1.425 1_455 S
C1869 C1866 1.409 . S
C1869 C1867 1.415 1_455 S
C1870 H1860 0.930 . S
C1870 C1868 1.419 . S
C1870 C1871 1.362 . S
C1871 H1861 0.930 . S
C1871 C1864 1.409 . S
C1871 C1870 1.362 . S
H1872 C1878 0.929 1_556 S
H1873 C1881 0.930 . S
H1874 C1882 0.930 1_556 S
H1875 C1883 0.930 . S
H1876 C1886 0.930 . S
H1877 C1887 0.930 . S
C1878 H1872 0.929 1_554 S
C1878 C1879 1.347 1_554 S
C1878 C1880 1.423 . S
C1879 C1878 1.347 1_556 S
C1879 C1881 1.419 . S
C1880 C1878 1.423 . S
C1880 C1885 1.425 . S
C1880 C1887 1.409 . S
C1881 H1873 0.930 . S
C1881 C1879 1.419 . S
C1881 C1882 1.351 1_556 S
C1882 H1874 0.930 1_554 S
C1882 C1881 1.351 1_554 S
C1882 C1885 1.421 . S
C1883 H1875 0.930 . S
C1883 C1884 1.355 . S
C1883 C1885 1.415 . S
C1884 C1883 1.355 . S
C1884 C1886 1.419 . S
C1885 C1880 1.425 . S
C1885 C1882 1.421 . S
C1885 C1883 1.415 . S
C1886 H1876 0.930 . S
C1886 C1884 1.419 . S
C1886 C1887 1.362 . S
C1887 H1877 0.930 . S
C1887 C1880 1.409 . S
C1887 C1886 1.362 . S
H1888 C1894 0.930 . S
H1889 C1897 0.930 . S
H1890 C1898 0.930 . S
H1891 C1899 0.930 . S
H1892 C1902 0.930 . S
H1893 C1903 0.930 . S
C1894 H1888 0.930 . S
C1894 C1895 1.355 . S
C1894 C1896 1.415 . S
C1895 C1894 1.355 . S
C1895 C1897 1.419 . S
C1896 C1894 1.415 . S
C1896 C1901 1.425 . S
C1896 C1903 1.409 . S
C1897 H1889 0.930 . S
C1897 C1895 1.419 . S
C1897 C1898 1.362 . S
C1898 H1890 0.930 . S
C1898 C1897 1.362 . S
C1898 C1901 1.409 . S
C1899 H1891 0.930 . S
C1899 C1900 1.355 . S
C1899 C1901 1.415 . S
C1900 C1899 1.355 . S
C1900 C1902 1.419 . S
C1901 C1896 1.425 . S
C1901 C1898 1.409 . S
C1901 C1899 1.415 . S
C1902 H1892 0.930 . S
C1902 C1900 1.419 . S
C1902 C1903 1.362 . S
C1903 H1893 0.930 . S
C1903 C1896 1.409 . S
C1903 C1902 1.362 . S
H1904 C1910 0.930 . S
H1905 C1913 0.930 . S
H1906 C1914 0.930 . S
H1907 C1915 0.930 . S
H1908 C1918 0.930 . S
H1909 C1919 0.930 . S
C1910 H1904 0.930 . S
C1910 C1911 1.355 . S
C1910 C1912 1.415 . S
C1911 C1910 1.355 . S
C1911 C1913 1.419 . S
C1912 C1910 1.415 . S
C1912 C1917 1.425 . S
C1912 C1919 1.409 . S
C1913 H1905 0.930 . S
C1913 C1911 1.419 . S
C1913 C1914 1.362 . S
C1914 H1906 0.930 . S
C1914 C1913 1.362 . S
C1914 C1917 1.409 . S
C1915 H1907 0.930 . S
C1915 C1916 1.355 . S
C1915 C1917 1.415 . S
C1916 C1915 1.355 . S
C1916 C1918 1.419 . S
C1917 C1912 1.425 . S
C1917 C1914 1.409 . S
C1917 C1915 1.415 . S
C1918 H1908 0.930 . S
C1918 C1916 1.419 . S
C1918 C1919 1.362 . S
C1919 H1909 0.930 . S
C1919 C1912 1.409 . S
C1919 C1918 1.362 . S
H1920 C1926 0.930 . S
H1921 C1929 0.930 1_655 S
H1922 C1930 0.930 . S
H1923 C1931 0.930 . S
H1924 C1934 0.930 . S
H1925 C1935 0.930 . S
C1926 H1920 0.930 . S
C1926 C1927 1.355 . S
C1926 C1928 1.415 . S
C1927 C1926 1.355 . S
C1927 C1929 1.419 . S
C1928 C1926 1.415 . S
C1928 C1933 1.425 1_455 S
C1928 C1935 1.409 . S
C1929 H1921 0.930 1_455 S
C1929 C1927 1.419 . S
C1929 C1930 1.362 1_455 S
C1930 H1922 0.930 . S
C1930 C1929 1.362 1_655 S
C1930 C1933 1.409 . S
C1931 H1923 0.930 . S
C1931 C1932 1.355 . S
C1931 C1933 1.415 . S
C1932 C1931 1.355 . S
C1932 C1934 1.419 . S
C1933 C1928 1.425 1_655 S
C1933 C1930 1.409 . S
C1933 C1931 1.415 . S
C1934 H1924 0.930 . S
C1934 C1932 1.419 . S
C1934 C1935 1.362 1_655 S
C1935 H1925 0.930 . S
C1935 C1928 1.409 . S
C1935 C1934 1.362 1_455 S
H1936 C1942 0.930 . S
H1937 C1945 0.930 . S
H1938 C1946 0.930 . S
H1939 C1947 0.930 . S
H1940 C1950 0.930 . S
H1941 C1951 0.930 . S
C1942 H1936 0.930 . S
C1942 C1943 1.348 1_554 S
C1942 C1944 1.415 . S
C1943 C1942 1.348 1_556 S
C1943 C1945 1.413 1_556 S
C1944 C1942 1.415 . S
C1944 C1949 1.425 . S
C1944 C1951 1.409 . S
C1945 H1937 0.930 . S
C1945 C1943 1.413 1_554 S
C1945 C1946 1.362 . S
C1946 H1938 0.930 . S
C1946 C1945 1.362 . S
C1946 C1949 1.409 . S
C1947 H1939 0.930 . S
C1947 C1948 1.355 . S
C1947 C1949 1.415 . S
C1948 C1947 1.355 . S
C1948 C1950 1.419 . S
C1949 C1944 1.425 . S
C1949 C1946 1.409 . S
C1949 C1947 1.415 . S
C1950 H1940 0.930 . S
C1950 C1948 1.419 . S
C1950 C1951 1.362 . S
C1951 H1941 0.930 . S
C1951 C1944 1.409 . S
C1951 C1950 1.362 . S
H1952 C1958 0.930 . S
H1953 C1961 0.930 . S
H1954 C1962 0.930 . S
H1955 C1963 0.930 . S
H1956 C1966 0.930 . S
H1957 C1967 0.930 . S
C1958 H1952 0.930 . S
C1958 C1959 1.355 . S
C1958 C1960 1.415 . S
C1959 C1958 1.355 . S
C1959 C1961 1.419 . S
C1960 C1958 1.415 . S
C1960 C1965 1.425 . S
C1960 C1967 1.409 . S
C1961 H1953 0.930 . S
C1961 C1959 1.419 . S
C1961 C1962 1.362 . S
C1962 H1954 0.930 . S
C1962 C1961 1.362 . S
C1962 C1965 1.409 . S
C1963 H1955 0.930 . S
C1963 C1964 1.355 . S
C1963 C1965 1.415 . S
C1964 C1963 1.355 . S
C1964 C1966 1.419 . S
C1965 C1960 1.425 . S
C1965 C1962 1.409 . S
C1965 C1963 1.415 . S
C1966 H1956 0.930 . S
C1966 C1964 1.419 . S
C1966 C1967 1.362 . S
C1967 H1957 0.930 . S
C1967 C1960 1.409 . S
C1967 C1966 1.362 . S
H1968 C1974 0.930 . S
H1969 C1977 0.930 . S
H1970 C1978 0.930 . S
H1971 C1979 0.930 . S
H1972 C1982 0.930 . S
H1973 C1983 0.930 . S
C1974 H1968 0.930 . S
C1974 C1975 1.355 1_554 S
C1974 C1976 1.415 . S
C1975 C1974 1.355 1_556 S
C1975 C1977 1.419 . S
C1976 C1974 1.415 . S
C1976 C1981 1.425 . S
C1976 C1983 1.409 . S
C1977 H1969 0.930 . S
C1977 C1975 1.419 . S
C1977 C1978 1.362 1_556 S
C1978 H1970 0.930 . S
C1978 C1977 1.362 1_554 S
C1978 C1981 1.409 . S
C1979 H1971 0.930 . S
C1979 C1980 1.355 . S
C1979 C1981 1.415 . S
C1980 C1979 1.355 . S
C1980 C1982 1.419 . S
C1981 C1976 1.425 . S
C1981 C1978 1.409 . S
C1981 C1979 1.415 . S
C1982 H1972 0.930 . S
C1982 C1980 1.419 . S
C1982 C1983 1.362 . S
C1983 H1973 0.930 . S
C1983 C1976 1.409 . S
C1983 C1982 1.362 . S
H1984 C1990 0.930 . S
H1985 C1993 0.930 . S
H1986 C1994 0.930 . S
H1987 C1995 0.930 . S
H1988 C1998 0.930 . S
H1989 C1999 0.930 . S
C1990 H1984 0.930 . S
C1990 C1991 1.355 . S
C1990 C1992 1.415 . S
C1991 C1990 1.355 . S
C1991 C1993 1.419 . S
C1992 C1990 1.415 . S
C1992 C1997 1.425 . S
C1992 C1999 1.409 . S
C1993 H1985 0.930 . S
C1993 C1991 1.419 . S
C1993 C1994 1.362 . S
C1994 H1986 0.930 . S
C1994 C1993 1.362 . S
C1994 C1997 1.409 . S
C1995 H1987 0.930 . S
C1995 C1996 1.355 . S
C1995 C1997 1.415 . S
C1996 C1995 1.355 . S
C1996 C1998 1.419 . S
C1997 C1992 1.425 . S
C1997 C1994 1.409 . S
C1997 C1995 1.415 . S
C1998 H1988 0.930 . S
C1998 C1996 1.419 . S
C1998 C1999 1.362 . S
C1999 H1989 0.930 . S
C1999 C1992 1.409 . S
C1999 C1998 1.362 . S
H2000 C2006 0.930 . S
H2001 C2009 0.930 . S
H2002 C2010 0.930 . S
H2003 C2011 0.930 . S
H2004 C2014 0.930 . S
H2005 C2015 0.930 . S
C2006 H2000 0.930 . S
C2006 C2007 1.355 . S
C2006 C2008 1.415 . S
C2007 C2006 1.355 . S
C2007 C2009 1.419 . S
C2008 C2006 1.415 . S
C2008 C2013 1.425 . S
C2008 C2015 1.409 . S
C2009 H2001 0.930 . S
C2009 C2007 1.419 . S
C2009 C2010 1.362 . S
C2010 H2002 0.930 . S
C2010 C2009 1.362 . S
C2010 C2013 1.409 . S
C2011 H2003 0.930 . S
C2011 C2012 1.355 . S
C2011 C2013 1.415 . S
C2012 C2011 1.355 . S
C2012 C2014 1.419 . S
C2013 C2008 1.425 . S
C2013 C2010 1.409 . S
C2013 C2011 1.415 . S
C2014 H2004 0.930 . S
C2014 C2012 1.419 . S
C2014 C2015 1.362 . S
C2015 H2005 0.930 . S
C2015 C2008 1.409 . S
C2015 C2014 1.362 . S
H2016 C2022 0.930 . S
H2017 C2025 0.930 . S
H2018 C2026 0.930 . S
H2019 C2027 0.930 . S
H2020 C2030 0.930 . S
H2021 C2031 0.930 . S
C2022 H2016 0.930 . S
C2022 C2023 1.355 . S
C2022 C2024 1.415 . S
C2023 C2022 1.355 . S
C2023 C2025 1.419 . S
C2024 C2022 1.415 . S
C2024 C2029 1.425 . S
C2024 C2031 1.409 . S
C2025 H2017 0.930 . S
C2025 C2023 1.419 . S
C2025 C2026 1.362 . S
C2026 H2018 0.930 . S
C2026 C2025 1.362 . S
C2026 C2029 1.409 . S
C2027 H2019 0.930 . S
C2027 C2028 1.355 . S
C2027 C2029 1.415 . S
C2028 C2027 1.355 . S
C2028 C2030 1.419 . S
C2029 C2024 1.425 . S
C2029 C2026 1.409 . S
C2029 C2027 1.415 . S
C2030 H2020 0.930 . S
C2030 C2028 1.419 . S
C2030 C2031 1.362 . S
C2031 H2021 0.930 . S
C2031 C2024 1.409 . S
C2031 C2030 1.362 . S
H2032 C2038 0.930 1_556 S
H2033 C2041 0.930 . S
H2034 C2042 0.930 . S
H2035 C2043 0.930 . S
H2036 C2046 0.930 . S
H2037 C2047 0.930 . S
C2038 H2032 0.930 1_554 S
C2038 C2039 1.355 1_554 S
C2038 C2040 1.415 . S
C2039 C2038 1.355 1_556 S
C2039 C2041 1.419 . S
C2040 C2038 1.415 . S
C2040 C2045 1.425 . S
C2040 C2047 1.409 . S
C2041 H2033 0.930 . S
C2041 C2039 1.419 . S
C2041 C2042 1.362 1_556 S
C2042 H2034 0.930 . S
C2042 C2041 1.362 1_554 S
C2042 C2045 1.409 . S
C2043 H2035 0.930 . S
C2043 C2044 1.355 . S
C2043 C2045 1.415 . S
C2044 C2043 1.355 . S
C2044 C2046 1.419 . S
C2045 C2040 1.425 . S
C2045 C2042 1.409 . S
C2045 C2043 1.415 . S
C2046 H2036 0.930 . S
C2046 C2044 1.419 . S
C2046 C2047 1.362 . S
C2047 H2037 0.930 . S
C2047 C2040 1.409 . S
C2047 C2046 1.362 . S
H2048 C2054 0.930 . S
H2049 C2057 0.930 . S
H2050 C2058 0.930 . S
H2051 C2059 0.930 . S
H2052 C2062 0.930 . S
H2053 C2063 0.930 . S
C2054 H2048 0.930 . S
C2054 C2055 1.355 . S
C2054 C2056 1.415 . S
C2055 C2054 1.355 . S
C2055 C2057 1.419 . S
C2056 C2054 1.415 . S
C2056 C2061 1.425 . S
C2056 C2063 1.409 . S
C2057 H2049 0.930 . S
C2057 C2055 1.419 . S
C2057 C2058 1.362 . S
C2058 H2050 0.930 . S
C2058 C2057 1.362 . S
C2058 C2061 1.409 . S
C2059 H2051 0.930 . S
C2059 C2060 1.355 . S
C2059 C2061 1.415 . S
C2060 C2059 1.355 . S
C2060 C2062 1.419 . S
C2061 C2056 1.425 . S
C2061 C2058 1.409 . S
C2061 C2059 1.415 . S
C2062 H2052 0.930 . S
C2062 C2060 1.419 . S
C2062 C2063 1.362 . S
C2063 H2053 0.930 . S
C2063 C2056 1.409 . S
C2063 C2062 1.362 . S
H2064 C2070 0.930 . S
H2065 C2073 0.930 . S
H2066 C2074 0.930 . S
H2067 C2075 0.930 . S
H2068 C2078 0.930 . S
H2069 C2079 0.930 . S
C2070 H2064 0.930 . S
C2070 C2071 1.355 . S
C2070 C2072 1.415 . S
C2071 C2070 1.355 . S
C2071 C2073 1.419 . S
C2072 C2070 1.415 . S
C2072 C2077 1.425 . S
C2072 C2079 1.409 . S
C2073 H2065 0.930 . S
C2073 C2071 1.419 . S
C2073 C2074 1.362 . S
C2074 H2066 0.930 . S
C2074 C2073 1.362 . S
C2074 C2077 1.409 . S
C2075 H2067 0.930 . S
C2075 C2076 1.355 . S
C2075 C2077 1.415 . S
C2076 C2075 1.355 . S
C2076 C2078 1.419 . S
C2077 C2072 1.425 . S
C2077 C2074 1.409 . S
C2077 C2075 1.415 . S
C2078 H2068 0.930 . S
C2078 C2076 1.419 . S
C2078 C2079 1.362 . S
C2079 H2069 0.930 . S
C2079 C2072 1.409 . S
C2079 C2078 1.362 . S
H2080 C2086 0.930 . S
H2081 C2089 0.930 . S
H2082 C2090 0.930 . S
H2083 C2091 0.930 . S
H2084 C2094 0.930 . S
H2085 C2095 0.930 . S
C2086 H2080 0.930 . S
C2086 C2087 1.355 . S
C2086 C2088 1.415 1_565 S
C2087 C2086 1.355 . S
C2087 C2089 1.419 . S
C2088 C2086 1.415 1_545 S
C2088 C2093 1.421 1_545 S
C2088 C2095 1.409 . S
C2089 H2081 0.930 . S
C2089 C2087 1.419 . S
C2089 C2090 1.362 . S
C2090 H2082 0.930 . S
C2090 C2089 1.362 . S
C2090 C2093 1.442 . S
C2091 H2083 0.930 . S
C2091 C2092 1.355 . S
C2091 C2093 1.388 1_545 S
C2092 C2091 1.355 . S
C2092 C2094 1.419 . S
C2093 C2088 1.421 1_565 S
C2093 C2090 1.442 . S
C2093 C2091 1.388 1_565 S
C2094 H2084 0.930 . S
C2094 C2092 1.419 . S
C2094 C2095 1.362 . S
C2095 H2085 0.930 . S
C2095 C2088 1.409 . S
C2095 C2094 1.362 . S
H2096 C2102 0.930 . S
H2097 C2105 0.930 . S
H2098 C2106 0.930 . S
H2099 C2107 0.930 . S
H2100 C2110 0.930 . S
H2101 C2111 0.930 . S
C2102 H2096 0.930 . S
C2102 C2103 1.355 . S
C2102 C2104 1.415 . S
C2103 C2102 1.355 . S
C2103 C2105 1.419 . S
C2104 C2102 1.415 . S
C2104 C2109 1.425 . S
C2104 C2111 1.409 . S
C2105 H2097 0.930 . S
C2105 C2103 1.419 . S
C2105 C2106 1.362 . S
C2106 H2098 0.930 . S
C2106 C2105 1.362 . S
C2106 C2109 1.409 . S
C2107 H2099 0.930 . S
C2107 C2108 1.355 . S
C2107 C2109 1.415 . S
C2108 C2107 1.355 . S
C2108 C2110 1.419 . S
C2109 C2104 1.425 . S
C2109 C2106 1.409 . S
C2109 C2107 1.415 . S
C2110 H2100 0.930 . S
C2110 C2108 1.419 . S
C2110 C2111 1.362 . S
C2111 H2101 0.930 . S
C2111 C2104 1.409 . S
C2111 C2110 1.362 . S
H2112 C2118 0.930 . S
H2113 C2121 0.930 . S
H2114 C2122 0.930 . S
H2115 C2123 0.930 . S
H2116 C2126 0.930 . S
H2117 C2127 0.930 . S
C2118 H2112 0.930 . S
C2118 C2119 1.355 . S
C2118 C2120 1.415 . S
C2119 C2118 1.355 . S
C2119 C2121 1.419 . S
C2120 C2118 1.415 . S
C2120 C2125 1.425 1_545 S
C2120 C2127 1.409 . S
C2121 H2113 0.930 . S
C2121 C2119 1.419 . S
C2121 C2122 1.362 1_545 S
C2122 H2114 0.930 . S
C2122 C2121 1.362 1_565 S
C2122 C2125 1.409 . S
C2123 H2115 0.930 . S
C2123 C2124 1.355 . S
C2123 C2125 1.415 . S
C2124 C2123 1.355 . S
C2124 C2126 1.419 . S
C2125 C2120 1.425 1_565 S
C2125 C2122 1.409 . S
C2125 C2123 1.415 . S
C2126 H2116 0.930 . S
C2126 C2124 1.419 . S
C2126 C2127 1.362 1_565 S
C2127 H2117 0.930 . S
C2127 C2120 1.409 . S
C2127 C2126 1.362 1_545 S
H2128 C2134 0.930 . S
H2129 C2137 0.930 . S
H2130 C2138 0.930 . S
H2131 C2139 0.930 . S
H2132 C2142 0.930 . S
H2133 C2143 0.930 . S
C2134 H2128 0.930 . S
C2134 C2135 1.355 . S
C2134 C2136 1.415 . S
C2135 C2134 1.355 . S
C2135 C2137 1.419 . S
C2136 C2134 1.415 . S
C2136 C2141 1.425 . S
C2136 C2143 1.409 . S
C2137 H2129 0.930 . S
C2137 C2135 1.419 . S
C2137 C2138 1.362 . S
C2138 H2130 0.930 . S
C2138 C2137 1.362 . S
C2138 C2141 1.409 . S
C2139 H2131 0.930 . S
C2139 C2140 1.355 1_554 S
C2139 C2141 1.415 . S
C2140 C2139 1.355 1_556 S
C2140 C2142 1.419 . S
C2141 C2136 1.425 . S
C2141 C2138 1.409 . S
C2141 C2139 1.415 . S
C2142 H2132 0.930 . S
C2142 C2140 1.419 . S
C2142 C2143 1.362 1_556 S
C2143 H2133 0.930 . S
C2143 C2136 1.409 . S
C2143 C2142 1.362 1_554 S
H2144 C2150 0.930 1_545 S
H2145 C2153 0.930 . S
H2146 C2154 0.930 . S
H2147 C2155 0.930 1_565 S
H2148 C2158 0.930 . S
H2149 C2159 0.930 . S
C2150 H2144 0.930 1_565 S
C2150 C2151 1.355 . S
C2150 C2152 1.415 1_565 S
C2151 C2150 1.355 . S
C2151 C2153 1.419 . S
C2152 C2150 1.415 1_545 S
C2152 C2157 1.425 1_545 S
C2152 C2159 1.409 . S
C2153 H2145 0.930 . S
C2153 C2151 1.419 . S
C2153 C2154 1.362 . S
C2154 H2146 0.930 . S
C2154 C2153 1.362 . S
C2154 C2157 1.409 . S
C2155 H2147 0.930 1_545 S
C2155 C2156 1.355 . S
C2155 C2157 1.415 1_545 S
C2156 C2155 1.355 . S
C2156 C2158 1.419 . S
C2157 C2152 1.425 1_565 S
C2157 C2154 1.409 . S
C2157 C2155 1.415 1_565 S
C2158 H2148 0.930 . S
C2158 C2156 1.419 . S
C2158 C2159 1.362 . S
C2159 H2149 0.930 . S
C2159 C2152 1.409 . S
C2159 C2158 1.362 . S
H2160 C2166 0.930 . S
H2161 C2169 0.930 . S
H2162 C2170 0.930 . S
H2163 C2171 0.930 . S
H2164 C2174 0.930 . S
H2165 C2175 0.930 . S
C2166 H2160 0.930 . S
C2166 C2167 1.355 . S
C2166 C2168 1.415 . S
C2167 C2166 1.355 . S
C2167 C2169 1.419 . S
C2168 C2166 1.415 . S
C2168 C2173 1.425 . S
C2168 C2175 1.409 . S
C2169 H2161 0.930 . S
C2169 C2167 1.419 . S
C2169 C2170 1.362 . S
C2170 H2162 0.930 . S
C2170 C2169 1.362 . S
C2170 C2173 1.409 . S
C2171 H2163 0.930 . S
C2171 C2172 1.355 . S
C2171 C2173 1.415 . S
C2172 C2171 1.355 . S
C2172 C2174 1.419 . S
C2173 C2168 1.425 . S
C2173 C2170 1.409 . S
C2173 C2171 1.415 . S
C2174 H2164 0.930 . S
C2174 C2172 1.419 . S
C2174 C2175 1.362 . S
C2175 H2165 0.930 . S
C2175 C2168 1.409 . S
C2175 C2174 1.362 . S
H2176 C2182 0.930 1_545 S
H2177 C2185 0.930 . S
H2178 C2186 0.930 . S
H2179 C2187 0.930 1_565 S
H2180 C2190 0.930 . S
H2181 C2191 0.930 . S
C2182 H2176 0.930 1_565 S
C2182 C2183 1.355 . S
C2182 C2184 1.415 1_565 S
C2183 C2182 1.355 . S
C2183 C2185 1.419 . S
C2184 C2182 1.415 1_545 S
C2184 C2189 1.425 1_545 S
C2184 C2191 1.409 . S
C2185 H2177 0.930 . S
C2185 C2183 1.419 . S
C2185 C2186 1.362 . S
C2186 H2178 0.930 . S
C2186 C2185 1.362 . S
C2186 C2189 1.409 . S
C2187 H2179 0.930 1_545 S
C2187 C2188 1.355 . S
C2187 C2189 1.415 1_545 S
C2188 C2187 1.355 . S
C2188 C2190 1.419 . S
C2189 C2184 1.425 1_565 S
C2189 C2186 1.409 . S
C2189 C2187 1.415 1_565 S
C2190 H2180 0.930 . S
C2190 C2188 1.419 . S
C2190 C2191 1.362 . S
C2191 H2181 0.930 . S
C2191 C2184 1.409 . S
C2191 C2190 1.362 . S
H2192 C2198 0.930 . S
H2193 C2201 0.930 . S
H2194 C2202 0.930 . S
H2195 C2203 0.930 . S
H2196 C2206 0.930 . S
H2197 C2207 0.930 . S
C2198 H2192 0.930 . S
C2198 C2199 1.355 . S
C2198 C2200 1.415 . S
C2199 C2198 1.355 . S
C2199 C2201 1.419 . S
C2200 C2198 1.415 . S
C2200 C2205 1.425 . S
C2200 C2207 1.409 . S
C2201 H2193 0.930 . S
C2201 C2199 1.419 . S
C2201 C2202 1.362 . S
C2202 H2194 0.930 . S
C2202 C2201 1.362 . S
C2202 C2205 1.409 . S
C2203 H2195 0.930 . S
C2203 C2204 1.355 1_554 S
C2203 C2205 1.415 . S
C2204 C2203 1.355 1_556 S
C2204 C2206 1.419 . S
C2205 C2200 1.425 . S
C2205 C2202 1.409 . S
C2205 C2203 1.415 . S
C2206 H2196 0.930 . S
C2206 C2204 1.419 . S
C2206 C2207 1.362 1_556 S
C2207 H2197 0.930 . S
C2207 C2200 1.409 . S
C2207 C2206 1.362 1_554 S
C679 C18 1.039 . S
C684 C102 0.903 . S
C695 C120 0.913 . S
C700 C39 0.988 . S
C711 C60 1.040 . S
C716 C144 0.873 . S
C727 C165 0.966 . S
C732 C78 0.991 . S
C743 C185 1.054 . S
C748 C269 0.984 . S
C759 C203 1.047 . S
C764 C287 0.989 . S
C775 C308 0.988 . S
C780 C224 1.128 . S
C791 C245 1.025 . S
C796 C329 1.007 . S
C807 C438 1.045 . S
C812 C354 0.890 . S
C823 C375 0.898 . S
C828 C456 1.041 . S
C839 C396 0.898 . S
C844 C480 1.042 . S
C855 C414 0.999 . S
C860 C501 0.958 . S
C871 C521 1.125 . S
C876 C605 1.009 . S
C887 C623 1.039 . S
C892 C539 1.111 . S
C903 C560 1.024 . S
C908 C644 1.008 . S
C919 C665 1.090 . S
C924 C581 1.068 . S
C935 C454 0.893 . S
C940 C16 0.892 . S
C951 C478 0.881 . S
C956 C37 0.880 . S
C967 C499 0.902 . S
C972 C58 0.903 . S
C983 C76 0.877 . S
C988 C436 0.876 . S
C999 C100 0.877 . S
C1004 C412 0.878 . S
C1015 C352 0.944 . S
C1020 C118 0.942 . S
C1031 C142 1.005 . S
C1036 C373 1.005 . S
C1047 C163 0.910 . S
C1052 C394 0.912 . S
C1063 C181 0.969 . S
C1068 C625 0.972 . S
C1079 C646 0.961 . S
C1084 C205 0.959 . S
C1095 C667 0.952 . S
C1100 C226 0.951 . S
C1111 C247 1.061 . S
C1116 C601 1.064 . S
C1127 C265 0.981 . S
C1132 C583 0.977 . S
C1143 C289 1.053 . S
C1148 C517 1.056 . S
C1159 C310 0.977 . S
C1164 C541 0.974 . S
C1175 C331 1.077 . S
C1180 C562 1.059 1_556 S
C1191 C184 1.039 . S
C1196 C13 1.037 . S
C1207 C34 1.053 . S
C1212 C538 1.054 . S
C1223 C223 0.978 . S
C1228 C55 0.982 . S
C1239 C79 0.934 . S
C1244 C580 0.936 . S
C1255 C268 1.069 . S
C1260 C97 1.071 . S
C1271 C622 0.924 . S
C1276 C121 0.922 . S
C1287 C139 1.024 . S
C1292 C307 1.021 . S
C1303 C160 1.083 . S
C1308 C664 1.082 . S
C1319 C370 0.999 . S
C1324 C202 0.995 . S
C1335 C415 0.909 . S
C1340 C244 0.910 . S
C1351 C286 0.878 . S
C1356 C457 0.879 . S
C1367 C496 1.044 . S
C1372 C328 1.041 . S
C1383 C520 1.008 . S
C1388 C349 1.012 . S
C1399 C559 1.041 . S
C1404 C391 1.039 . S
C1415 C604 0.929 . S
C1420 C433 0.932 . S
C1431 C475 1.005 . S
C1436 C643 1.002 . S
C1447 C17 1.447 . S
C1452 C267 1.341 . S
C1463 C627 1.335 . S
C1468 C38 1.478 . S
C1479 C312 1.331 . S
C1484 C59 1.478 . S
C1495 C77 1.482 . S
C1500 C669 1.258 . S
C1511 C183 1.323 . S
C1516 C101 1.449 . S
C1527 C543 1.255 . S
C1532 C119 1.475 . S
C1543 C228 1.365 . S
C1548 C143 1.446 . S
C1559 C585 1.255 . S
C1564 C164 1.480 . S
C1575 C98 1.297 . S
C1580 C186 1.513 . S
C1591 C458 1.353 . S
C1596 C204 1.508 . S
C1607 C140 1.332 . S
C1612 C225 1.491 . S
C1623 C246 1.465 . S
C1628 C497 1.408 . S
C1639 C14 1.357 . S
C1644 C270 1.480 . S
C1655 C371 1.294 . S
C1660 C288 1.517 . S
C1671 C309 1.465 . S
C1676 C56 1.409 . S
C1687 C330 1.507 . S
C1692 C416 1.304 . S
C1703 C603 1.330 . S
C1708 C353 1.448 . S
C1719 C291 1.340 . S
C1724 C374 1.475 . S
C1735 C395 1.454 . S
C1740 C648 1.303 . S
C1751 C333 1.379 1_554 S
C1756 C413 1.451 . S
C1767 C437 1.485 . S
C1772 C519 1.278 . S
C1783 C455 1.471 . S
C1788 C207 1.353 . S
C1799 C564 1.271 . S
C1804 C479 1.484 . S
C1815 C249 1.262 . S
C1820 C500 1.483 . S
C1831 C522 1.521 . S
C1836 C434 1.295 . S
C1847 C540 1.487 . S
C1852 C122 1.340 . S
C1863 C561 1.465 . S
C1868 C476 1.410 . S
C1879 C582 1.496 . S
C1884 C161 1.381 . S
C1895 C350 1.366 . S
C1900 C606 1.476 . S
C1911 C35 1.382 . S
C1916 C624 1.495 . S
C1927 C645 1.522 . S
C1932 C392 1.304 . S
C1943 C80 1.309 . S
C1948 C666 1.515 . S
C1959 C99 1.777 . S
C1964 C15 1.760 . S
C1975 C123 1.774 . S
C1980 C36 1.749 . S
C1991 C57 1.777 . S
C1996 C141 1.758 . S
C2007 C162 1.728 . S
C2012 C81 1.742 . S
C2023 C266 1.871 . S
C2028 C182 1.878 . S
C2039 C206 1.872 . S
C2044 C290 1.861 . S
C2055 C227 1.878 . S
C2060 C311 1.871 . S
C2071 C332 1.879 . S
C2076 C248 1.876 . S
C2087 C351 1.738 . S
C2092 C435 1.766 . S
C2103 C459 1.755 . S
C2108 C372 1.730 . S
C2119 C393 1.766 . S
C2124 C477 1.777 . S
C2135 C417 1.767 . S
C2140 C498 1.739 . S
C2151 C602 1.844 . S
C2156 C518 1.848 . S
C2167 C626 1.845 . S
C2172 C542 1.852 . S
C2183 C563 1.849 . S
C2188 C647 1.844 . S
C2199 C668 1.879 . S
C2204 C584 1.874 . S
