# Generated by pormake.
# Topology xbj, (5)-cn, num edge types: 1
# Building blocks:
#     Node 0, Type 0, BuildingBlock: BEQFEK_clean_sbu_0, # of connection points: 5
#     Node 1, Type 0, BuildingBlock: BEQFEK_clean_sbu_0, # of connection points: 5
#     Node 2, Type 0, BuildingBlock: BEQFEK_clean_sbu_0, # of connection points: 5
#     Node 3, Type 0, BuildingBlock: BEQFEK_clean_sbu_0, # of connection points: 5
#     Node 4, Type 0, BuildingBlock: BEQFEK_clean_sbu_0, # of connection points: 5
#     Node 5, Type 0, BuildingBlock: BEQFEK_clean_sbu_0, # of connection points: 5
#     Node 6, Type 0, BuildingBlock: BEQFEK_clean_sbu_0, # of connection points: 5
#     Node 7, Type 0, BuildingBlock: BEQFEK_clean_sbu_0, # of connection points: 5
#     Edge 8, Type (0, 0), BuildingBlock: AJUNOK_clean_linker_0, # of connection points: 2
#     Edge 9, Type (0, 0), BuildingBlock: AJUNOK_clean_linker_0, # of connection points: 2
#     Edge 10, Type (0, 0), BuildingBlock: AJUNOK_clean_linker_0, # of connection points: 2
#     Edge 11, Type (0, 0), BuildingBlock: AJUNOK_clean_linker_0, # of connection points: 2
#     Edge 12, Type (0, 0), BuildingBlock: AJUNOK_clean_linker_0, # of connection points: 2
#     Edge 13, Type (0, 0), BuildingBlock: AJUNOK_clean_linker_0, # of connection points: 2
#     Edge 14, Type (0, 0), BuildingBlock: AJUNOK_clean_linker_0, # of connection points: 2
#     Edge 15, Type (0, 0), BuildingBlock: AJUNOK_clean_linker_0, # of connection points: 2
#     Edge 16, Type (0, 0), BuildingBlock: AJUNOK_clean_linker_0, # of connection points: 2
#     Edge 17, Type (0, 0), BuildingBlock: AJUNOK_clean_linker_0, # of connection points: 2
#     Edge 18, Type (0, 0), BuildingBlock: AJUNOK_clean_linker_0, # of connection points: 2
#     Edge 19, Type (0, 0), BuildingBlock: AJUNOK_clean_linker_0, # of connection points: 2
#     Edge 20, Type (0, 0), BuildingBlock: AJUNOK_clean_linker_0, # of connection points: 2
#     Edge 21, Type (0, 0), BuildingBlock: AJUNOK_clean_linker_0, # of connection points: 2
#     Edge 22, Type (0, 0), BuildingBlock: AJUNOK_clean_linker_0, # of connection points: 2
#     Edge 23, Type (0, 0), BuildingBlock: AJUNOK_clean_linker_0, # of connection points: 2
#     Edge 24, Type (0, 0), BuildingBlock: AJUNOK_clean_linker_0, # of connection points: 2
#     Edge 25, Type (0, 0), BuildingBlock: AJUNOK_clean_linker_0, # of connection points: 2
#     Edge 26, Type (0, 0), BuildingBlock: AJUNOK_clean_linker_0, # of connection points: 2
#     Edge 27, Type (0, 0), BuildingBlock: AJUNOK_clean_linker_0, # of connection points: 2
# Relax obj value: 0.035
# Max RMSD: 0.115
# Mean RMSD: 0.112
data_MOF--net-xbj--node1-BEQFEK_clean_sbu_0--edge1-AJUNOK_clean_linker_0
_symmetry_space_group_name_H-M    P1
_symmetry_Int_Tables_number       1
_symmetry_cell_setting            triclinic
loop_
_symmetry_equiv_pos_as_xyz
'x, y, z'
_cell_length_a     15.711917
_cell_length_b     15.725534
_cell_length_c     83.011647
_cell_angle_alpha  91.107095
_cell_angle_beta   91.254778
_cell_angle_gamma 90.064158
loop_
_atom_site_label
_atom_site_type_symbol
_atom_site_fract_x
_atom_site_fract_y
_atom_site_fract_z
_atom_type_partial_charge
Co0 Co 0.21536 0.76605 0.04345 0.0
Co1 Co 0.01399 0.74989 0.04164 0.0
C2 C 0.10501 0.89455 0.02676 0.0
O3 O 0.17744 0.86685 0.03148 0.0
O4 O 0.03608 0.85766 0.03052 0.0
C5 C 0.39147 0.81172 0.03924 0.0
O6 O 0.35991 0.85463 0.02708 0.0
C7 C 0.8289 0.78412 0.04443 0.0
C8 C 0.77728 0.65343 0.04257 0.0
C9 C 0.75329 0.73782 0.04408 0.0
N10 N 0.89422 0.7293 0.04308 0.0
N11 N 0.86272 0.65139 0.04196 0.0
C12 C 0.83983 0.878 0.0468 0.0
H13 H 0.89948 0.89162 0.0538 0.0
H14 H 0.78452 0.90614 0.05305 0.0
H15 H 0.84537 0.90784 0.03488 0.0
C16 C 0.17967 0.75439 0.07833 0.0
N17 N 0.15372 0.75481 0.06275 0.0
N18 N 0.07056 0.74485 0.06194 0.0
C19 C 0.04122 0.73485 0.07691 0.0
C20 C 0.10923 0.74178 0.08787 0.0
C21 C 0.26962 0.77069 0.08386 0.0
H22 H 0.29726 0.82256 0.07676 0.0
H23 H 0.27358 0.78857 0.09685 0.0
H24 H 0.30788 0.71244 0.08172 0.0
O25 O 0.19654 0.66877 0.02814 0.0
O26 O 0.05562 0.66223 0.02693 0.0
H27 H 0.94377 0.69124 0.09296 0.0
H28 H 0.90942 0.76773 0.07811 0.0
C29 C 0.95098 0.71205 0.08038 0.0
H30 H 0.92981 0.65946 0.07217 0.0
H31 H 0.89969 0.59671 0.04067 0.0
O32 O 0.3407 0.77117 0.04805 0.0
C33 C 0.1278 0.63726 0.02219 0.0
Co34 Co 0.60674 0.82887 0.2921 0.0
Co35 Co 0.61313 0.62828 0.29267 0.0
C36 C 0.46987 0.72057 0.27658 0.0
O37 O 0.50266 0.79242 0.28048 0.0
O38 O 0.50409 0.65078 0.28092 0.0
C39 C 0.55074 0.00765 0.29483 0.0
O40 O 0.47173 0.98043 0.29507 0.0
C41 C 0.58294 0.44082 0.29407 0.0
C42 C 0.71364 0.39869 0.30021 0.0
C43 C 0.63229 0.36871 0.29675 0.0
N44 N 0.63331 0.50987 0.29597 0.0
N45 N 0.71122 0.48387 0.29958 0.0
C46 C 0.49222 0.44434 0.28826 0.0
H47 H 0.48651 0.48856 0.27807 0.0
H48 H 0.45231 0.46948 0.29813 0.0
H49 H 0.4682 0.38097 0.28422 0.0
C50 C 0.61626 0.80581 0.3274 0.0
N51 N 0.61666 0.77454 0.31219 0.0
N52 N 0.62132 0.69105 0.3125 0.0
C53 C 0.62601 0.66652 0.32797 0.0
C54 C 0.62313 0.73849 0.33797 0.0
C55 C 0.60009 0.89737 0.33153 0.0
H56 H 0.54472 0.92002 0.32432 0.0
H57 H 0.5866 0.90723 0.34449 0.0
H58 H 0.65628 0.93581 0.32831 0.0
O59 O 0.7008 0.80118 0.27753 0.0
O60 O 0.70161 0.66077 0.27771 0.0
H61 H 0.69715 0.55124 0.32846 0.0
H62 H 0.63678 0.56892 0.34618 0.0
C63 C 0.63594 0.57595 0.33294 0.0
H64 H 0.58375 0.53689 0.32743 0.0
H65 H 0.7633 0.52453 0.30132 0.0
O66 O 0.61149 0.95441 0.2944 0.0
C67 C 0.72944 0.73037 0.27242 0.0
Co68 Co 0.72118 0.26113 0.54348 0.0
Co69 Co 0.52042 0.25618 0.54156 0.0
C70 C 0.61843 0.39551 0.52672 0.0
O71 O 0.68843 0.36271 0.53148 0.0
O72 O 0.54687 0.36342 0.53038 0.0
C73 C 0.89931 0.31826 0.54793 0.0
O74 O 0.87216 0.39712 0.54889 0.0
C75 C 0.33255 0.28706 0.5441 0.0
C76 C 0.28872 0.15347 0.54366 0.0
C77 C 0.25964 0.2365 0.54435 0.0
N78 N 0.40098 0.23561 0.54326 0.0
N79 N 0.37389 0.15604 0.543 0.0
C80 C 0.33704 0.38201 0.54382 0.0
H81 H 0.39688 0.40321 0.53835 0.0
H82 H 0.33585 0.40739 0.55638 0.0
H83 H 0.28167 0.40819 0.53704 0.0
C84 C 0.68606 0.25183 0.57842 0.0
N85 N 0.66034 0.25333 0.56284 0.0
N86 N 0.57675 0.2485 0.56198 0.0
C87 C 0.54665 0.24117 0.57697 0.0
C88 C 0.61481 0.24428 0.58795 0.0
C89 C 0.77678 0.2626 0.58394 0.0
H90 H 0.80607 0.31553 0.57738 0.0
H91 H 0.78229 0.27629 0.59708 0.0
H92 H 0.81252 0.20369 0.581 0.0
O93 O 0.69823 0.16482 0.52841 0.0
O94 O 0.55773 0.16693 0.52663 0.0
H95 H 0.44569 0.20914 0.59329 0.0
H96 H 0.41653 0.28119 0.57729 0.0
C97 C 0.45508 0.22466 0.58049 0.0
H98 H 0.43199 0.16999 0.57301 0.0
H99 H 0.41385 0.10321 0.54227 0.0
O100 O 0.84614 0.25737 0.54678 0.0
C101 C 0.62868 0.13744 0.52217 0.0
Co102 Co 0.12173 0.33695 0.79302 0.0
Co103 Co 0.11781 0.1352 0.79277 0.0
C104 C 0.98773 0.22918 0.7748 0.0
O105 O 0.02317 0.29892 0.77933 0.0
O106 O 0.01374 0.15775 0.77998 0.0
C107 C 0.06201 0.51192 0.79066 0.0
O108 O -7e-05 0.47899 0.78174 0.0
C109 C 0.08284 0.94949 0.79411 0.0
C110 C 0.21137 0.90172 0.80036 0.0
C111 C 0.12889 0.87515 0.7968 0.0
N112 N 0.13631 0.0162 0.79585 0.0
N113 N 0.21283 0.98702 0.79961 0.0
C114 C 0.98916 0.95845 0.79102 0.0
H115 H 0.96534 0.01623 0.79734 0.0
H116 H 0.95412 0.90169 0.79508 0.0
H117 H 0.97708 0.96663 0.77792 0.0
C118 C 0.1314 0.30863 0.82805 0.0
N119 N 0.12627 0.27906 0.81274 0.0
N120 N 0.11958 0.1957 0.81274 0.0
C121 C 0.11756 0.16961 0.82809 0.0
C122 C 0.12501 0.2403 0.83836 0.0
C123 C 0.14811 0.39995 0.83249 0.0
H124 H 0.19606 0.42642 0.82434 0.0
H125 H 0.08849 0.43686 0.83085 0.0
H126 H 0.17157 0.40732 0.84514 0.0
O127 O 0.22113 0.312 0.77983 0.0
O128 O 0.21061 0.17148 0.77874 0.0
H129 H 0.16525 0.04456 0.83212 0.0
H130 H 0.07934 0.07507 0.84512 0.0
C131 C 0.10389 0.07919 0.83273 0.0
H132 H 0.058 0.04799 0.82417 0.0
H133 H 0.26641 0.02554 0.80155 0.0
O134 O 0.11781 0.46295 0.79682 0.0
C135 C 0.24521 0.24014 0.77432 0.0
Co136 Co 0.0262 0.25498 0.95309 0.0
Co137 Co 0.22755 0.24492 0.95457 0.0
C138 C 0.13767 0.38911 0.9697 0.0
O139 O 0.06624 0.35747 0.9651 0.0
O140 O 0.20786 0.35366 0.96611 0.0
C141 C 0.85185 0.28801 0.95989 0.0
O142 O 0.88524 0.31181 0.9739 0.0
C143 C 0.41439 0.27458 0.95449 0.0
C144 C 0.46013 0.14702 0.94719 0.0
C145 C 0.48792 0.22791 0.95162 0.0
N146 N 0.34661 0.22309 0.95202 0.0
N147 N 0.37459 0.14707 0.94765 0.0
C148 C 0.40768 0.36747 0.95846 0.0
H149 H 0.35375 0.39539 0.95153 0.0
H150 H 0.46737 0.40156 0.95571 0.0
H151 H 0.39429 0.37585 0.97147 0.0
C152 C 0.05751 0.23733 0.91842 0.0
N153 N 0.08579 0.24077 0.93382 0.0
N154 N 0.1695 0.242 0.9342 0.0
C155 C 0.19727 0.24222 0.91894 0.0
C156 C 0.12718 0.23945 0.9084 0.0
C157 C 0.96549 0.2281 0.91362 0.0
H158 H 0.9346 0.18173 0.92154 0.0
H159 H 0.93311 0.29021 0.9153 0.0
H160 H 0.95754 0.2062 0.90089 0.0
O161 O 0.04481 0.16047 0.96765 0.0
O162 O 0.18574 0.15621 0.96926 0.0
H163 H 0.32053 0.18908 0.91536 0.0
H164 H 0.29508 0.27605 0.90224 0.0
C165 C 0.28873 0.25187 0.91463 0.0
H166 H 0.32123 0.29635 0.92327 0.0
H167 H 0.33508 0.09495 0.94502 0.0
O168 O 0.9013 0.26297 0.94883 0.0
C169 C 0.11311 0.12996 0.9736 0.0
Co170 Co 0.09919 0.62629 0.20284 0.0
Co171 Co 0.10263 0.82784 0.20378 0.0
C172 C 0.9649 0.73082 0.21928 0.0
O173 O 0.9981 0.66046 0.21488 0.0
O174 O 0.99627 0.80198 0.2152 0.0
C175 C 0.03888 0.44995 0.19766 0.0
O176 O 0.96145 0.48052 0.19607 0.0
C177 C 0.06806 0.01485 0.20117 0.0
C178 C 0.19989 0.06091 0.1985 0.0
C179 C 0.11633 0.08829 0.19922 0.0
N180 N 0.12111 0.94748 0.20125 0.0
N181 N 0.19965 0.97591 0.19975 0.0
C182 C 0.97495 0.00897 0.20437 0.0
H183 H 0.96358 0.96073 0.21363 0.0
H184 H 0.94066 0.98827 0.19314 0.0
H185 H 0.9492 0.07098 0.20859 0.0
C186 C 0.10392 0.65767 0.16768 0.0
N187 N 0.10492 0.68512 0.18316 0.0
N188 N 0.10807 0.7688 0.1836 0.0
C189 C 0.11082 0.79723 0.16842 0.0
C190 C 0.10714 0.72789 0.15778 0.0
C191 C 0.09374 0.56631 0.16263 0.0
H192 H 0.0346 0.54094 0.16778 0.0
H193 H 0.09005 0.55783 0.14935 0.0
H194 H 0.14793 0.5291 0.16758 0.0
O195 O 0.19637 0.65194 0.21763 0.0
O196 O 0.19349 0.7926 0.21871 0.0
H197 H 0.17995 0.91395 0.17051 0.0
H198 H 0.12938 0.89779 0.15119 0.0
C199 C 0.12192 0.88884 0.16429 0.0
H200 H 0.06653 0.92597 0.16856 0.0
H201 H 0.25339 0.937 0.19965 0.0
O202 O 0.10143 0.50057 0.19987 0.0
C203 C 0.2237 0.72237 0.22347 0.0
Co204 Co 0.52913 0.75474 0.45342 0.0
Co205 Co 0.72976 0.74727 0.45379 0.0
C206 C 0.63591 0.89059 0.46945 0.0
O207 O 0.56424 0.85846 0.46518 0.0
O208 O 0.70601 0.85572 0.46553 0.0
C209 C 0.35056 0.81074 0.4499 0.0
O210 O 0.37748 0.88971 0.44934 0.0
C211 C 0.9177 0.77775 0.45139 0.0
C212 C 0.95992 0.64429 0.44879 0.0
C213 C 0.98987 0.72702 0.44998 0.0
N214 N 0.84861 0.72673 0.45105 0.0
N215 N 0.87475 0.64723 0.4495 0.0
C216 C 0.91485 0.87206 0.45406 0.0
H217 H 0.85779 0.89064 0.46084 0.0
H218 H 0.91167 0.90331 0.44219 0.0
H219 H 0.97274 0.89487 0.46072 0.0
C220 C 0.55665 0.74858 0.41823 0.0
N221 N 0.58575 0.74585 0.43358 0.0
N222 N 0.66927 0.73998 0.43371 0.0
C223 C 0.69594 0.73619 0.41839 0.0
C224 C 0.62554 0.74283 0.40803 0.0
C225 C 0.46539 0.76405 0.41365 0.0
H226 H 0.44166 0.81947 0.42066 0.0
H227 H 0.45672 0.77687 0.40063 0.0
H228 H 0.42688 0.70784 0.41681 0.0
O229 O 0.55473 0.66032 0.46812 0.0
O230 O 0.69522 0.65862 0.46853 0.0
H231 H 0.79323 0.70956 0.40078 0.0
H232 H 0.82578 0.77716 0.4178 0.0
C233 C 0.7866 0.72141 0.4139 0.0
H234 H 0.81126 0.66497 0.42024 0.0
H235 H 0.83416 0.59463 0.44914 0.0
O236 O 0.40392 0.75024 0.45068 0.0
C237 C 0.62485 0.63114 0.47353 0.0
Co238 Co 0.60573 0.13184 0.70301 0.0
Co239 Co 0.614 0.33264 0.70392 0.0
C240 C 0.47894 0.2371 0.7209 0.0
O241 O 0.50809 0.16587 0.71598 0.0
O242 O 0.512 0.30736 0.71675 0.0
C243 C 0.54762 0.95344 0.69938 0.0
O244 O 0.46854 0.98043 0.69897 0.0
C245 C 0.5814 0.52037 0.70163 0.0
C246 C 0.71432 0.56417 0.69957 0.0
C247 C 0.63139 0.59318 0.70047 0.0
N248 N 0.63307 0.45194 0.70147 0.0
N249 N 0.71224 0.47904 0.70023 0.0
C250 C 0.48722 0.51614 0.70375 0.0
H251 H 0.46906 0.45643 0.70962 0.0
H252 H 0.45508 0.51756 0.69172 0.0
H253 H 0.46499 0.5715 0.711 0.0
C254 C 0.60312 0.16332 0.66778 0.0
N255 N 0.60684 0.19066 0.68327 0.0
N256 N 0.61261 0.27418 0.68369 0.0
C257 C 0.61512 0.30256 0.6685 0.0
C258 C 0.60794 0.23339 0.65787 0.0
C259 C 0.59093 0.07216 0.66276 0.0
H260 H 0.53823 0.04452 0.66962 0.0
H261 H 0.57595 0.06507 0.64969 0.0
H262 H 0.64968 0.03613 0.66575 0.0
O263 O 0.70733 0.15617 0.7168 0.0
O264 O 0.71029 0.29677 0.71737 0.0
H265 H 0.68996 0.41564 0.67099 0.0
H266 H 0.64205 0.40155 0.65138 0.0
C267 C 0.63182 0.39335 0.66442 0.0
H268 H 0.57769 0.4334 0.66834 0.0
H269 H 0.76521 0.43914 0.69996 0.0
O270 O 0.60855 0.0067 0.70005 0.0
C271 C 0.74027 0.2259 0.72178 0.0
C272 C 0.16426 0.68581 0.11415 0.0
C273 C 0.10697 0.73819 0.10569 0.0
C274 C 0.16347 0.682 0.13102 0.0
C275 C 0.10443 0.72938 0.13995 0.0
H276 H 0.21009 0.64757 0.10769 0.0
H277 H 0.20994 0.64248 0.13713 0.0
S278 S 0.94007 0.87497 0.12354 0.0
N279 N 0.99137 0.84032 0.10756 0.0
N280 N 0.98493 0.82725 0.1391 0.0
C281 C 0.04561 0.78041 0.13161 0.0
C282 C 0.04806 0.78626 0.11451 0.0
C283 C 0.56852 0.69145 0.38122 0.0
C284 C 0.62418 0.74507 0.39018 0.0
C285 C 0.56731 0.69102 0.36434 0.0
C286 C 0.62359 0.74221 0.35582 0.0
H287 H 0.52594 0.64907 0.3873 0.0
H288 H 0.52228 0.6499 0.3579 0.0
S289 S 0.77932 0.89644 0.37363 0.0
N290 N 0.7322 0.85562 0.3893 0.0
N291 N 0.73599 0.84846 0.35758 0.0
C292 C 0.67926 0.79641 0.36463 0.0
C293 C 0.67832 0.79912 0.38181 0.0
C294 C 0.66427 0.18559 0.61437 0.0
C295 C 0.61184 0.24205 0.60577 0.0
C296 C 0.66218 0.18247 0.63124 0.0
C297 C 0.60652 0.23465 0.64002 0.0
H298 H 0.70722 0.14355 0.60802 0.0
H299 H 0.70506 0.13961 0.63745 0.0
S300 S 0.45501 0.39201 0.62317 0.0
N301 N 0.50465 0.35311 0.60733 0.0
N302 N 0.49492 0.34138 0.63884 0.0
C303 C 0.55242 0.28988 0.63152 0.0
C304 C 0.5565 0.29504 0.61444 0.0
C305 C 0.17862 0.18591 0.88177 0.0
C306 C 0.12686 0.24201 0.89057 0.0
C307 C 0.17813 0.1862 0.86488 0.0
C308 C 0.12517 0.24193 0.85621 0.0
H309 H 0.21925 0.14099 0.88799 0.0
H310 H 0.21961 0.14254 0.85855 0.0
S311 S 0.9784 0.40193 0.8736 0.0
N312 N 0.02439 0.35754 0.8894 0.0
N313 N 0.01835 0.35331 0.85767 0.0
C314 C 0.07292 0.29807 0.86487 0.0
C315 C 0.07492 0.29917 0.88205 0.0
C316 C 0.20608 0.53266 0.00483 0.0
C317 C 0.13073 0.57682 0.00832 0.0
C318 C 0.20949 0.47541 0.99171 0.0
C319 C 0.13775 0.46061 0.98155 0.0
H320 H 0.26233 0.54089 0.01249 0.0
H321 H 0.26785 0.44022 0.98992 0.0
S322 S 0.92862 0.56923 0.98412 0.0
N323 N 0.98502 0.60793 -0.00043 0.0
N324 N 0.99191 0.50118 0.97494 0.0
C325 C 0.06344 0.50773 0.98442 0.0
C326 C 0.05972 0.56543 0.99781 0.0
C327 C 0.82016 0.80529 0.25268 0.0
C328 C 0.78927 0.72864 0.25883 0.0
C329 C 0.87332 0.80573 0.23936 0.0
C330 C 0.89777 0.72952 0.23158 0.0
H331 H 0.80365 0.86577 0.25824 0.0
H332 H 0.89712 0.86641 0.23544 0.0
S333 S 0.82991 0.51137 0.24224 0.0
N334 N 0.78436 0.57426 0.25562 0.0
N335 N 0.88315 0.57515 0.23055 0.0
C336 C 0.86528 0.65241 0.23731 0.0
C337 C 0.81165 0.65192 0.25094 0.0
C338 C 0.54741 0.54153 0.49314 0.0
C339 C 0.6249 0.57124 0.48714 0.0
C340 C 0.54555 0.48838 0.50648 0.0
C341 C 0.62111 0.46282 0.51443 0.0
H342 H 0.48739 0.559 0.48745 0.0
H343 H 0.48429 0.46549 0.5103 0.0
S344 S 0.84103 0.52721 0.50416 0.0
N345 N 0.77935 0.57368 0.49064 0.0
N346 N 0.77583 0.4751 0.51575 0.0
C347 C 0.69904 0.49417 0.50885 0.0
C348 C 0.70097 0.5477 0.49519 0.0
C349 C 0.87365 0.15769 0.75787 0.0
C350 C 0.92323 0.23044 0.76151 0.0
C351 C 0.81692 0.15535 0.7446 0.0
C352 C 0.80764 0.22568 0.73448 0.0
H353 H 0.87847 0.10206 0.76533 0.0
H354 H 0.77864 0.09869 0.74252 0.0
S355 S 0.928 0.42875 0.7378 0.0
N356 N 0.96311 0.37259 0.75314 0.0
N357 N 0.85609 0.36822 0.72842 0.0
C358 C 0.85809 0.29807 0.73776 0.0
C359 C 0.9158 0.30051 0.75123 0.0
C360 C 0.34617 0.3121 0.75603 0.0
C361 C 0.30632 0.23699 0.76094 0.0
C362 C 0.39883 0.31233 0.74264 0.0
C363 C 0.41389 0.23745 0.73358 0.0
H364 H 0.33672 0.37153 0.76256 0.0
H365 H 0.4294 0.37154 0.73962 0.0
S366 S 0.32088 0.0244 0.74074 0.0
N367 N 0.28326 0.0859 0.75524 0.0
N368 N 0.38147 0.08665 0.73006 0.0
C369 C 0.3731 0.16213 0.73815 0.0
C370 C 0.31982 0.16175 0.75184 0.0
C371 C 0.32959 0.64812 0.24126 0.0
C372 C 0.28481 0.7226 0.23732 0.0
C373 C 0.38577 0.64635 0.25459 0.0
C374 C 0.39909 0.71892 0.26452 0.0
H375 H 0.32233 0.591 0.23385 0.0
H376 H 0.42133 0.58854 0.25671 0.0
S377 S 0.28981 0.92702 0.26062 0.0
N378 N 0.25257 0.86894 0.24527 0.0
N379 N 0.35741 0.8651 0.27032 0.0
C380 C 0.35193 0.79266 0.26114 0.0
C381 C 0.29522 0.79472 0.24752 0.0
C382 C 0.70828 0.97523 0.49158 0.0
C383 C 0.6366 0.96172 0.48137 0.0
C384 C 0.70522 0.03181 0.5048 0.0
C385 C 0.6303 0.07674 0.50833 0.0
H386 H 0.76631 0.93952 0.48974 0.0
H387 H 0.76157 0.03914 0.51246 0.0
S388 S 0.4284 0.07204 0.48408 0.0
N389 N 0.49119 0.0039 0.47479 0.0
N390 N 0.48494 0.10946 0.49963 0.0
C391 C 0.55928 0.06643 0.4978 0.0
C392 C 0.56265 0.00934 0.48431 0.0
C393 C 0.17974 0.99767 0.00943 0.0
C394 C 0.10278 0.96152 0.01438 0.0
C395 C 0.18243 0.05037 0.99608 0.0
C396 C 0.10822 0.06989 0.98711 0.0
H397 H 0.23923 0.98372 0.01566 0.0
H398 H 0.24355 0.07612 0.99283 0.0
S399 S 0.88924 0.99492 0.99539 0.0
N400 N 0.94962 0.95137 0.00948 0.0
N401 N 0.95456 0.05096 0.98446 0.0
C402 C 0.03028 0.03599 0.99213 0.0
C403 C 0.02755 0.98203 0.00576 0.0
C404 C 0.60514 0.72606 0.05389 0.0
C405 C 0.66384 0.76748 0.04418 0.0
C406 C 0.51779 0.74374 0.05273 0.0
C407 C 0.48528 0.80257 0.04159 0.0
H408 H 0.62677 0.67803 0.06221 0.0
H409 H 0.47525 0.70855 0.06025 0.0
S410 S 0.61337 0.92926 0.01352 0.0
N411 N 0.68409 0.87066 0.02322 0.0
N412 N 0.52026 0.90486 0.02105 0.0
C413 C 0.54393 0.84642 0.03213 0.0
C414 C 0.63307 0.8286 0.03341 0.0
C415 C 0.53286 0.24689 0.3018 0.0
C416 C 0.60881 0.2775 0.29533 0.0
C417 C 0.51345 0.15956 0.30136 0.0
C418 C 0.57006 0.09986 0.2947 0.0
H419 H 0.4892 0.2903 0.30762 0.0
H420 H 0.45481 0.13853 0.30665 0.0
S421 S 0.7747 0.14829 0.27525 0.0
N422 N 0.73859 0.24177 0.28132 0.0
N423 N 0.70319 0.07827 0.28075 0.0
C424 C 0.64558 0.13001 0.288 0.0
C425 C 0.66478 0.2186 0.2883 0.0
C426 C 0.14006 0.33146 0.55364 0.0
C427 C 0.16838 0.26103 0.54449 0.0
C428 C 0.05288 0.35088 0.55453 0.0
C429 C 0.99115 0.29946 0.54659 0.0
H430 H 0.18494 0.37046 0.56054 0.0
H431 H 0.03359 0.40503 0.56184 0.0
S432 S 0.03227 0.11197 0.52005 0.0
N433 N 0.12753 0.1433 0.52649 0.0
N434 N 0.9646 0.17832 0.52852 0.0
C435 C 0.01878 0.22985 0.53721 0.0
C436 C 0.10709 0.2109 0.53611 0.0
C437 C 0.13514 0.72746 0.80712 0.0
C438 C 0.10188 0.78466 0.79578 0.0
C439 C 0.11997 0.63977 0.80561 0.0
C440 C 0.07076 0.60558 0.79269 0.0
H441 H 0.17468 0.75057 0.81713 0.0
H442 H 0.14811 0.59836 0.81454 0.0
S443 S 0.9725 0.72732 0.75921 0.0
N444 N 0.0205 0.8002 0.77076 0.0
N445 N 0.98938 0.63589 0.76819 0.0
C446 C 0.03574 0.66216 0.78138 0.0
C447 C 0.052 0.75154 0.78285 0.0
C448 C 0.72357 0.24317 0.94332 0.0
C449 C 0.75782 0.28203 0.95746 0.0
C450 C 0.63584 0.22863 0.94136 0.0
C451 C 0.57854 0.2535 0.95333 0.0
H452 H 0.76495 0.22132 0.93383 0.0
H453 H 0.61276 0.19633 0.93047 0.0
S454 S 0.63419 0.35899 0.9925 0.0
N455 N 0.72624 0.34727 0.98351 0.0
N456 N 0.56175 0.3186 0.97984 0.0
C457 C 0.61123 0.29431 0.96735 0.0
C458 C 0.70072 0.30899 0.9694 0.0
C459 C 0.14246 0.23914 0.20735 0.0
C460 C 0.09047 0.179 0.19912 0.0
C461 C 0.12482 0.3262 0.2068 0.0
C462 C 0.0541 0.35701 0.19804 0.0
H463 H 0.19775 0.21879 0.21429 0.0
H464 H 0.16696 0.3697 0.21338 0.0
S465 S 0.90158 0.22703 0.17328 0.0
N466 N 0.96845 0.15693 0.18098 0.0
N467 N 0.93315 0.32085 0.18046 0.0
C468 C 0.00127 0.2978 0.18973 0.0
C469 C 0.02001 0.20876 0.19013 0.0
C470 C 0.1108 0.82412 0.44297 0.0
C471 C 0.08119 0.75122 0.4507 0.0
C472 C 0.19803 0.84419 0.44296 0.0
C473 C 0.25855 0.79119 0.45043 0.0
H474 H 0.06682 0.86475 0.43651 0.0
H475 H 0.21834 0.90028 0.43671 0.0
S476 S 0.21329 0.59645 0.47336 0.0
N477 N 0.11908 0.62891 0.46684 0.0
N478 N 0.2823 0.66543 0.46653 0.0
C479 C 0.22952 0.71894 0.4584 0.0
C480 C 0.14108 0.69916 0.45857 0.0
C481 C 0.51262 0.80053 0.6928 0.0
C482 C 0.56702 0.8615 0.7002 0.0
C483 C 0.53254 0.71338 0.69309 0.0
C484 C 0.60673 0.68428 0.70105 0.0
H485 H 0.45554 0.82044 0.68637 0.0
H486 H 0.49083 0.66911 0.68664 0.0
S487 S 0.76515 0.81775 0.72379 0.0
N488 N 0.69526 0.88622 0.71658 0.0
N489 N 0.73151 0.72325 0.71743 0.0
C490 C 0.66004 0.74466 0.70891 0.0
C491 C 0.64041 0.83299 0.70845 0.0
loop_
_geom_bond_atom_site_label_1
_geom_bond_atom_site_label_2
_geom_bond_distance
_geom_bond_site_symmetry_2
_ccdc_geom_bond_type
Co0 O3 1.970 . S
Co0 N17 1.989 . S
Co0 O25 1.967 . S
Co0 O32 1.920 . S
Co1 O4 1.966 . S
Co1 N10 2.022 1_455 S
Co1 N18 1.993 . S
Co1 O26 1.941 . S
C2 O3 1.258 . S
C2 O4 1.263 . S
O3 Co0 1.970 . S
O3 C2 1.258 . S
O4 Co1 1.966 . S
O4 C2 1.263 . S
C5 O6 1.235 . S
C5 O32 1.289 . S
O6 C5 1.235 . S
C7 C9 1.400 . S
C7 N10 1.351 . S
C7 C12 1.501 . S
C8 C9 1.387 . S
C8 N11 1.341 . S
C9 C7 1.400 . S
C9 C8 1.387 . S
N10 Co1 2.022 1_655 S
N10 C7 1.351 . S
N10 N11 1.365 . S
N11 C8 1.341 . S
N11 N10 1.365 . S
N11 H31 0.862 . S
C12 C7 1.501 . S
C12 H13 0.961 . S
C12 H14 0.961 . S
C12 H15 0.960 . S
H13 C12 0.961 . S
H14 C12 0.961 . S
H15 C12 0.960 . S
C16 N17 1.342 . S
C16 C20 1.401 . S
C16 C21 1.499 . S
N17 Co0 1.989 . S
N17 C16 1.342 . S
N17 N18 1.388 . S
N18 Co1 1.993 . S
N18 N17 1.388 . S
N18 C19 1.346 . S
C19 N18 1.346 . S
C19 C20 1.396 . S
C19 C29 1.510 1_455 S
C20 C16 1.401 . S
C20 C19 1.396 . S
C21 C16 1.499 . S
C21 H22 0.959 . S
C21 H23 0.960 . S
C21 H24 0.961 . S
H22 C21 0.959 . S
H23 C21 0.960 . S
H24 C21 0.961 . S
O25 Co0 1.967 . S
O25 C33 1.258 . S
O26 Co1 1.941 . S
O26 C33 1.266 . S
H27 C29 0.959 . S
H28 C29 0.961 . S
C29 C19 1.510 1_655 S
C29 H27 0.959 . S
C29 H28 0.961 . S
C29 H30 0.960 . S
H30 C29 0.960 . S
H31 N11 0.862 . S
O32 Co0 1.920 . S
O32 C5 1.289 . S
C33 O25 1.258 . S
C33 O26 1.266 . S
Co34 O37 1.970 . S
Co34 N51 1.989 . S
Co34 O59 1.967 . S
Co34 O66 1.920 . S
Co35 O38 1.966 . S
Co35 N44 2.022 . S
Co35 N52 1.993 . S
Co35 O60 1.941 . S
C36 O37 1.258 . S
C36 O38 1.263 . S
O37 Co34 1.970 . S
O37 C36 1.258 . S
O38 Co35 1.966 . S
O38 C36 1.263 . S
C39 O40 1.235 . S
C39 O66 1.289 . S
O40 C39 1.235 . S
C41 C43 1.400 . S
C41 N44 1.351 . S
C41 C46 1.501 . S
C42 C43 1.387 . S
C42 N45 1.341 . S
C43 C41 1.400 . S
C43 C42 1.387 . S
N44 Co35 2.022 . S
N44 C41 1.351 . S
N44 N45 1.365 . S
N45 C42 1.341 . S
N45 N44 1.365 . S
N45 H65 0.862 . S
C46 C41 1.501 . S
C46 H47 0.961 . S
C46 H48 0.961 . S
C46 H49 0.960 . S
H47 C46 0.961 . S
H48 C46 0.961 . S
H49 C46 0.960 . S
C50 N51 1.342 . S
C50 C54 1.401 . S
C50 C55 1.499 . S
N51 Co34 1.989 . S
N51 C50 1.342 . S
N51 N52 1.388 . S
N52 Co35 1.993 . S
N52 N51 1.388 . S
N52 C53 1.346 . S
C53 N52 1.346 . S
C53 C54 1.396 . S
C53 C63 1.510 . S
C54 C50 1.401 . S
C54 C53 1.396 . S
C55 C50 1.499 . S
C55 H56 0.959 . S
C55 H57 0.960 . S
C55 H58 0.961 . S
H56 C55 0.959 . S
H57 C55 0.960 . S
H58 C55 0.961 . S
O59 Co34 1.967 . S
O59 C67 1.258 . S
O60 Co35 1.941 . S
O60 C67 1.266 . S
H61 C63 0.959 . S
H62 C63 0.961 . S
C63 C53 1.510 . S
C63 H61 0.959 . S
C63 H62 0.961 . S
C63 H64 0.960 . S
H64 C63 0.960 . S
H65 N45 0.862 . S
O66 Co34 1.920 . S
O66 C39 1.289 . S
C67 O59 1.258 . S
C67 O60 1.266 . S
Co68 O71 1.970 . S
Co68 N85 1.989 . S
Co68 O93 1.967 . S
Co68 O100 1.920 . S
Co69 O72 1.966 . S
Co69 N78 2.022 . S
Co69 N86 1.993 . S
Co69 O94 1.941 . S
C70 O71 1.258 . S
C70 O72 1.263 . S
O71 Co68 1.970 . S
O71 C70 1.258 . S
O72 Co69 1.966 . S
O72 C70 1.263 . S
C73 O74 1.235 . S
C73 O100 1.289 . S
O74 C73 1.235 . S
C75 C77 1.400 . S
C75 N78 1.351 . S
C75 C80 1.501 . S
C76 C77 1.387 . S
C76 N79 1.341 . S
C77 C75 1.400 . S
C77 C76 1.387 . S
N78 Co69 2.022 . S
N78 C75 1.351 . S
N78 N79 1.365 . S
N79 C76 1.341 . S
N79 N78 1.365 . S
N79 H99 0.862 . S
C80 C75 1.501 . S
C80 H81 0.961 . S
C80 H82 0.961 . S
C80 H83 0.960 . S
H81 C80 0.961 . S
H82 C80 0.961 . S
H83 C80 0.960 . S
C84 N85 1.342 . S
C84 C88 1.401 . S
C84 C89 1.499 . S
N85 Co68 1.989 . S
N85 C84 1.342 . S
N85 N86 1.388 . S
N86 Co69 1.993 . S
N86 N85 1.388 . S
N86 C87 1.346 . S
C87 N86 1.346 . S
C87 C88 1.396 . S
C87 C97 1.510 . S
C88 C84 1.401 . S
C88 C87 1.396 . S
C89 C84 1.499 . S
C89 H90 0.959 . S
C89 H91 0.960 . S
C89 H92 0.961 . S
H90 C89 0.959 . S
H91 C89 0.960 . S
H92 C89 0.961 . S
O93 Co68 1.967 . S
O93 C101 1.258 . S
O94 Co69 1.941 . S
O94 C101 1.266 . S
H95 C97 0.959 . S
H96 C97 0.961 . S
C97 C87 1.510 . S
C97 H95 0.959 . S
C97 H96 0.961 . S
C97 H98 0.960 . S
H98 C97 0.960 . S
H99 N79 0.862 . S
O100 Co68 1.920 . S
O100 C73 1.289 . S
C101 O93 1.258 . S
C101 O94 1.266 . S
Co102 O105 1.970 1_455 S
Co102 N119 1.989 . S
Co102 O127 1.967 . S
Co102 O134 1.920 . S
Co103 O106 1.966 . S
Co103 N112 2.022 1_545 S
Co103 N120 1.993 . S
Co103 O128 1.941 . S
C104 O105 1.258 . S
C104 O106 1.263 1_655 S
O105 Co102 1.970 1_655 S
O105 C104 1.258 . S
O106 Co103 1.966 . S
O106 C104 1.263 1_455 S
C107 O108 1.235 1_455 S
C107 O134 1.289 . S
O108 C107 1.235 1_655 S
C109 C111 1.400 . S
C109 N112 1.351 . S
C109 C114 1.501 1_455 S
C110 C111 1.387 . S
C110 N113 1.341 . S
C111 C109 1.400 . S
C111 C110 1.387 . S
N112 Co103 2.022 1_565 S
N112 C109 1.351 . S
N112 N113 1.365 . S
N113 C110 1.341 . S
N113 N112 1.365 . S
N113 H133 0.862 . S
C114 C109 1.501 1_655 S
C114 H115 0.961 1_565 S
C114 H116 0.961 . S
C114 H117 0.960 . S
H115 C114 0.961 1_545 S
H116 C114 0.961 . S
H117 C114 0.960 . S
C118 N119 1.342 . S
C118 C122 1.401 . S
C118 C123 1.499 . S
N119 Co102 1.989 . S
N119 C118 1.342 . S
N119 N120 1.388 . S
N120 Co103 1.993 . S
N120 N119 1.388 . S
N120 C121 1.346 . S
C121 N120 1.346 . S
C121 C122 1.396 . S
C121 C131 1.510 . S
C122 C118 1.401 . S
C122 C121 1.396 . S
C123 C118 1.499 . S
C123 H124 0.959 . S
C123 H125 0.960 . S
C123 H126 0.961 . S
H124 C123 0.959 . S
H125 C123 0.960 . S
H126 C123 0.961 . S
O127 Co102 1.967 . S
O127 C135 1.258 . S
O128 Co103 1.941 . S
O128 C135 1.266 . S
H129 C131 0.959 . S
H130 C131 0.961 . S
C131 C121 1.510 . S
C131 H129 0.959 . S
C131 H130 0.961 . S
C131 H132 0.960 . S
H132 C131 0.960 . S
H133 N113 0.862 . S
O134 Co102 1.920 . S
O134 C107 1.289 . S
C135 O127 1.258 . S
C135 O128 1.266 . S
Co136 O139 1.970 . S
Co136 N153 1.989 . S
Co136 O161 1.967 . S
Co136 O168 1.920 1_455 S
Co137 O140 1.966 . S
Co137 N146 2.022 . S
Co137 N154 1.993 . S
Co137 O162 1.941 . S
C138 O139 1.258 . S
C138 O140 1.263 . S
O139 Co136 1.970 . S
O139 C138 1.258 . S
O140 Co137 1.966 . S
O140 C138 1.263 . S
C141 O142 1.235 . S
C141 O168 1.289 . S
O142 C141 1.235 . S
C143 C145 1.400 . S
C143 N146 1.351 . S
C143 C148 1.501 . S
C144 C145 1.387 . S
C144 N147 1.341 . S
C145 C143 1.400 . S
C145 C144 1.387 . S
N146 Co137 2.022 . S
N146 C143 1.351 . S
N146 N147 1.365 . S
N147 C144 1.341 . S
N147 N146 1.365 . S
N147 H167 0.862 . S
C148 C143 1.501 . S
C148 H149 0.961 . S
C148 H150 0.961 . S
C148 H151 0.960 . S
H149 C148 0.961 . S
H150 C148 0.961 . S
H151 C148 0.960 . S
C152 N153 1.342 . S
C152 C156 1.401 . S
C152 C157 1.499 1_455 S
N153 Co136 1.989 . S
N153 C152 1.342 . S
N153 N154 1.388 . S
N154 Co137 1.993 . S
N154 N153 1.388 . S
N154 C155 1.346 . S
C155 N154 1.346 . S
C155 C156 1.396 . S
C155 C165 1.510 . S
C156 C152 1.401 . S
C156 C155 1.396 . S
C157 C152 1.499 1_655 S
C157 H158 0.959 . S
C157 H159 0.960 . S
C157 H160 0.961 . S
H158 C157 0.959 . S
H159 C157 0.960 . S
H160 C157 0.961 . S
O161 Co136 1.967 . S
O161 C169 1.258 . S
O162 Co137 1.941 . S
O162 C169 1.266 . S
H163 C165 0.959 . S
H164 C165 0.961 . S
C165 C155 1.510 . S
C165 H163 0.959 . S
C165 H164 0.961 . S
C165 H166 0.960 . S
H166 C165 0.960 . S
H167 N147 0.862 . S
O168 Co136 1.920 1_655 S
O168 C141 1.289 . S
C169 O161 1.258 . S
C169 O162 1.266 . S
Co170 O173 1.970 1_455 S
Co170 N187 1.989 . S
Co170 O195 1.967 . S
Co170 O202 1.920 . S
Co171 O174 1.966 . S
Co171 N180 2.022 . S
Co171 N188 1.993 . S
Co171 O196 1.941 . S
C172 O173 1.258 . S
C172 O174 1.263 1_655 S
O173 Co170 1.970 1_655 S
O173 C172 1.258 . S
O174 Co171 1.966 . S
O174 C172 1.263 1_455 S
C175 O176 1.235 1_455 S
C175 O202 1.289 . S
O176 C175 1.235 1_655 S
C177 C179 1.400 . S
C177 N180 1.351 1_545 S
C177 C182 1.502 1_455 S
C178 C179 1.387 . S
C178 N181 1.341 . S
C179 C177 1.400 . S
C179 C178 1.387 . S
N180 Co171 2.022 . S
N180 C177 1.351 1_565 S
N180 N181 1.365 1_565 S
N181 C178 1.341 . S
N181 N180 1.365 1_545 S
N181 H201 0.862 1_545 S
C182 C177 1.502 1_655 S
C182 H183 0.955 1_545 S
C182 H184 0.962 . S
C182 H185 0.964 . S
H183 C182 0.955 1_565 S
H184 C182 0.962 . S
H185 C182 0.964 . S
C186 N187 1.342 . S
C186 C190 1.401 . S
C186 C191 1.499 . S
N187 Co170 1.989 . S
N187 C186 1.342 . S
N187 N188 1.388 . S
N188 Co171 1.993 . S
N188 N187 1.388 . S
N188 C189 1.346 . S
C189 N188 1.346 . S
C189 C190 1.396 . S
C189 C199 1.510 . S
C190 C186 1.401 . S
C190 C189 1.396 . S
C191 C186 1.499 . S
C191 H192 0.959 . S
C191 H193 0.960 . S
C191 H194 0.961 . S
H192 C191 0.959 . S
H193 C191 0.960 . S
H194 C191 0.961 . S
O195 Co170 1.967 . S
O195 C203 1.258 . S
O196 Co171 1.941 . S
O196 C203 1.266 . S
H197 C199 0.959 . S
H198 C199 0.961 . S
C199 C189 1.510 . S
C199 H197 0.959 . S
C199 H198 0.961 . S
C199 H200 0.960 . S
H200 C199 0.960 . S
H201 N181 0.862 1_565 S
O202 Co170 1.920 . S
O202 C175 1.289 . S
C203 O195 1.258 . S
C203 O196 1.266 . S
Co204 O207 1.970 . S
Co204 N221 1.989 . S
Co204 O229 1.967 . S
Co204 O236 1.920 . S
Co205 O208 1.966 . S
Co205 N214 2.022 . S
Co205 N222 1.993 . S
Co205 O230 1.941 . S
C206 O207 1.258 . S
C206 O208 1.263 . S
O207 Co204 1.970 . S
O207 C206 1.258 . S
O208 Co205 1.966 . S
O208 C206 1.263 . S
C209 O210 1.235 . S
C209 O236 1.289 . S
O210 C209 1.235 . S
C211 C213 1.400 1_655 S
C211 N214 1.351 . S
C211 C216 1.501 . S
C212 C213 1.387 1_655 S
C212 N215 1.341 . S
C213 C211 1.400 1_455 S
C213 C212 1.387 1_455 S
N214 Co205 2.022 . S
N214 C211 1.351 . S
N214 N215 1.365 . S
N215 C212 1.341 . S
N215 N214 1.365 . S
N215 H235 0.862 . S
C216 C211 1.501 . S
C216 H217 0.961 . S
C216 H218 0.961 . S
C216 H219 0.960 . S
H217 C216 0.961 . S
H218 C216 0.961 . S
H219 C216 0.960 . S
C220 N221 1.342 . S
C220 C224 1.401 . S
C220 C225 1.499 . S
N221 Co204 1.989 . S
N221 C220 1.342 . S
N221 N222 1.388 . S
N222 Co205 1.993 . S
N222 N221 1.388 . S
N222 C223 1.346 . S
C223 N222 1.346 . S
C223 C224 1.396 . S
C223 C233 1.510 . S
C224 C220 1.401 . S
C224 C223 1.396 . S
C225 C220 1.499 . S
C225 H226 0.959 . S
C225 H227 0.960 . S
C225 H228 0.961 . S
H226 C225 0.959 . S
H227 C225 0.960 . S
H228 C225 0.961 . S
O229 Co204 1.967 . S
O229 C237 1.258 . S
O230 Co205 1.941 . S
O230 C237 1.266 . S
H231 C233 0.959 . S
H232 C233 0.961 . S
C233 C223 1.510 . S
C233 H231 0.959 . S
C233 H232 0.961 . S
C233 H234 0.960 . S
H234 C233 0.960 . S
H235 N215 0.862 . S
O236 Co204 1.920 . S
O236 C209 1.289 . S
C237 O229 1.258 . S
C237 O230 1.266 . S
Co238 O241 1.970 . S
Co238 N255 1.989 . S
Co238 O263 1.967 . S
Co238 O270 1.920 . S
Co239 O242 1.966 . S
Co239 N248 2.022 . S
Co239 N256 1.993 . S
Co239 O264 1.941 . S
C240 O241 1.258 . S
C240 O242 1.263 . S
O241 Co238 1.970 . S
O241 C240 1.258 . S
O242 Co239 1.966 . S
O242 C240 1.263 . S
C243 O244 1.235 1_565 S
C243 O270 1.289 1_565 S
O244 C243 1.235 1_545 S
C245 C247 1.400 . S
C245 N248 1.351 . S
C245 C250 1.501 . S
C246 C247 1.387 . S
C246 N249 1.341 . S
C247 C245 1.400 . S
C247 C246 1.387 . S
N248 Co239 2.022 . S
N248 C245 1.351 . S
N248 N249 1.365 . S
N249 C246 1.341 . S
N249 N248 1.365 . S
N249 H269 0.862 . S
C250 C245 1.501 . S
C250 H251 0.961 . S
C250 H252 0.961 . S
C250 H253 0.960 . S
H251 C250 0.961 . S
H252 C250 0.961 . S
H253 C250 0.960 . S
C254 N255 1.342 . S
C254 C258 1.401 . S
C254 C259 1.499 . S
N255 Co238 1.989 . S
N255 C254 1.342 . S
N255 N256 1.388 . S
N256 Co239 1.993 . S
N256 N255 1.388 . S
N256 C257 1.346 . S
C257 N256 1.346 . S
C257 C258 1.396 . S
C257 C267 1.510 . S
C258 C254 1.401 . S
C258 C257 1.396 . S
C259 C254 1.499 . S
C259 H260 0.959 . S
C259 H261 0.960 . S
C259 H262 0.961 . S
H260 C259 0.959 . S
H261 C259 0.960 . S
H262 C259 0.961 . S
O263 Co238 1.967 . S
O263 C271 1.258 . S
O264 Co239 1.941 . S
O264 C271 1.266 . S
H265 C267 0.959 . S
H266 C267 0.961 . S
C267 C257 1.510 . S
C267 H265 0.959 . S
C267 H266 0.961 . S
C267 H268 0.960 . S
H268 C267 0.960 . S
H269 N249 0.862 . S
O270 Co238 1.920 . S
O270 C243 1.289 1_545 S
C271 O263 1.258 . S
C271 O264 1.266 . S
C272 C273 1.369 . S
C272 C274 1.419 . S
C272 H276 0.930 . S
C273 C272 1.369 . S
C273 C282 1.429 . S
C274 C272 1.419 . S
C274 C275 1.363 . S
C274 H277 0.929 . S
C275 C274 1.363 . S
C275 C281 1.428 . S
H276 C272 0.930 . S
H277 C274 0.929 . S
S278 N279 1.613 . S
S278 N280 1.610 1_655 S
N279 S278 1.613 . S
N279 C282 1.350 1_655 S
N280 S278 1.610 1_455 S
N280 C281 1.351 . S
C281 C275 1.428 . S
C281 N280 1.351 . S
C281 C282 1.434 . S
C282 C273 1.429 . S
C282 N279 1.350 1_455 S
C282 C281 1.434 . S
C283 C284 1.369 . S
C283 C285 1.419 . S
C283 H287 0.930 . S
C284 C283 1.369 . S
C284 C293 1.429 . S
C285 C283 1.419 . S
C285 C286 1.363 . S
C285 H288 0.929 . S
C286 C285 1.363 . S
C286 C292 1.428 . S
H287 C283 0.930 . S
H288 C285 0.929 . S
S289 N290 1.613 . S
S289 N291 1.610 . S
N290 S289 1.613 . S
N290 C293 1.350 . S
N291 S289 1.610 . S
N291 C292 1.351 . S
C292 C286 1.428 . S
C292 N291 1.351 . S
C292 C293 1.434 . S
C293 C284 1.429 . S
C293 N290 1.350 . S
C293 C292 1.434 . S
C294 C295 1.369 . S
C294 C296 1.419 . S
C294 H298 0.930 . S
C295 C294 1.369 . S
C295 C304 1.429 . S
C296 C294 1.419 . S
C296 C297 1.363 . S
C296 H299 0.929 . S
C297 C296 1.363 . S
C297 C303 1.428 . S
H298 C294 0.930 . S
H299 C296 0.929 . S
S300 N301 1.613 . S
S300 N302 1.610 . S
N301 S300 1.613 . S
N301 C304 1.350 . S
N302 S300 1.610 . S
N302 C303 1.351 . S
C303 C297 1.428 . S
C303 N302 1.351 . S
C303 C304 1.434 . S
C304 C295 1.429 . S
C304 N301 1.350 . S
C304 C303 1.434 . S
C305 C306 1.369 . S
C305 C307 1.419 . S
C305 H309 0.930 . S
C306 C305 1.369 . S
C306 C315 1.429 . S
C307 C305 1.419 . S
C307 C308 1.363 . S
C307 H310 0.929 . S
C308 C307 1.363 . S
C308 C314 1.428 . S
H309 C305 0.930 . S
H310 C307 0.929 . S
S311 N312 1.613 . S
S311 N313 1.610 . S
N312 S311 1.613 . S
N312 C315 1.350 . S
N313 S311 1.610 . S
N313 C314 1.351 . S
C314 C308 1.428 . S
C314 N313 1.351 . S
C314 C315 1.434 . S
C315 C306 1.429 . S
C315 N312 1.350 . S
C315 C314 1.434 . S
C316 C317 1.369 . S
C316 C318 1.419 . S
C316 H320 0.930 . S
C317 C316 1.369 . S
C317 C326 1.429 1_554 S
C318 C316 1.419 . S
C318 C319 1.363 1_554 S
C318 H321 0.929 . S
C319 C318 1.363 1_556 S
C319 C325 1.428 . S
H320 C316 0.930 . S
H321 C318 0.929 . S
S322 N323 1.613 . S
S322 N324 1.610 . S
N323 S322 1.613 . S
N323 C326 1.350 . S
N324 S322 1.610 . S
N324 C325 1.351 . S
C325 C319 1.428 . S
C325 N324 1.351 . S
C325 C326 1.434 . S
C326 C317 1.429 1_556 S
C326 N323 1.350 . S
C326 C325 1.434 . S
C327 C328 1.369 . S
C327 C329 1.419 . S
C327 H331 0.930 . S
C328 C327 1.369 . S
C328 C337 1.429 . S
C329 C327 1.419 . S
C329 C330 1.363 . S
C329 H332 0.929 . S
C330 C329 1.363 . S
C330 C336 1.428 . S
H331 C327 0.930 . S
H332 C329 0.929 . S
S333 N334 1.613 . S
S333 N335 1.610 1_655 S
N334 S333 1.613 . S
N334 C337 1.350 . S
N335 S333 1.610 1_455 S
N335 C336 1.351 1_455 S
C336 C330 1.428 . S
C336 N335 1.351 1_655 S
C336 C337 1.434 . S
C337 C328 1.429 . S
C337 N334 1.350 . S
C337 C336 1.434 . S
C338 C339 1.369 . S
C338 C340 1.419 . S
C338 H342 0.930 . S
C339 C338 1.369 . S
C339 C348 1.429 . S
C340 C338 1.419 . S
C340 C341 1.363 . S
C340 H343 0.929 . S
C341 C340 1.363 . S
C341 C347 1.428 . S
H342 C338 0.930 . S
H343 C340 0.929 . S
S344 N345 1.613 . S
S344 N346 1.610 . S
N345 S344 1.613 . S
N345 C348 1.350 . S
N346 S344 1.610 . S
N346 C347 1.351 . S
C347 C341 1.428 . S
C347 N346 1.351 . S
C347 C348 1.434 . S
C348 C339 1.429 . S
C348 N345 1.350 . S
C348 C347 1.434 . S
C349 C350 1.369 . S
C349 C351 1.419 . S
C349 H353 0.930 . S
C350 C349 1.369 . S
C350 C359 1.429 . S
C351 C349 1.419 . S
C351 C352 1.363 . S
C351 H354 0.929 . S
C352 C351 1.363 . S
C352 C358 1.428 . S
H353 C349 0.930 . S
H354 C351 0.929 . S
S355 N356 1.613 . S
S355 N357 1.610 1_455 S
N356 S355 1.613 . S
N356 C359 1.350 1_455 S
N357 S355 1.610 1_655 S
N357 C358 1.351 . S
C358 C352 1.428 . S
C358 N357 1.351 . S
C358 C359 1.434 . S
C359 C350 1.429 . S
C359 N356 1.350 1_655 S
C359 C358 1.434 . S
C360 C361 1.369 . S
C360 C362 1.419 . S
C360 H364 0.930 . S
C361 C360 1.369 . S
C361 C370 1.429 . S
C362 C360 1.419 . S
C362 C363 1.363 . S
C362 H365 0.929 . S
C363 C362 1.363 . S
C363 C369 1.428 . S
H364 C360 0.930 . S
H365 C362 0.929 . S
S366 N367 1.613 . S
S366 N368 1.610 . S
N367 S366 1.613 . S
N367 C370 1.350 . S
N368 S366 1.610 . S
N368 C369 1.351 . S
C369 C363 1.428 . S
C369 N368 1.351 . S
C369 C370 1.434 . S
C370 C361 1.429 . S
C370 N367 1.350 . S
C370 C369 1.434 . S
C371 C372 1.369 . S
C371 C373 1.419 . S
C371 H375 0.930 . S
C372 C371 1.369 . S
C372 C381 1.429 . S
C373 C371 1.419 . S
C373 C374 1.363 . S
C373 H376 0.929 . S
C374 C373 1.363 . S
C374 C380 1.428 . S
H375 C371 0.930 . S
H376 C373 0.929 . S
S377 N378 1.613 . S
S377 N379 1.610 . S
N378 S377 1.613 . S
N378 C381 1.350 . S
N379 S377 1.610 . S
N379 C380 1.351 . S
C380 C374 1.428 . S
C380 N379 1.351 . S
C380 C381 1.434 . S
C381 C372 1.429 . S
C381 N378 1.350 . S
C381 C380 1.434 . S
C382 C383 1.369 . S
C382 C384 1.419 . S
C382 H386 0.930 . S
C383 C382 1.369 . S
C383 C392 1.429 1_565 S
C384 C382 1.419 . S
C384 C385 1.363 1_565 S
C384 H387 0.929 . S
C385 C384 1.363 1_545 S
C385 C391 1.428 . S
H386 C382 0.930 . S
H387 C384 0.929 . S
S388 N389 1.613 . S
S388 N390 1.610 . S
N389 S388 1.613 . S
N389 C392 1.350 . S
N390 S388 1.610 . S
N390 C391 1.351 . S
C391 C385 1.428 . S
C391 N390 1.351 . S
C391 C392 1.434 . S
C392 C383 1.429 1_545 S
C392 N389 1.350 . S
C392 C391 1.434 . S
C393 C394 1.369 1_545 S
C393 C395 1.419 . S
C393 H397 0.930 . S
C394 C393 1.369 1_565 S
C394 C403 1.429 1_554 S
C395 C393 1.419 . S
C395 C396 1.363 1_554 S
C395 H398 0.929 . S
C396 C395 1.363 1_556 S
C396 C402 1.428 1_545 S
H397 C393 0.930 . S
H398 C395 0.929 . S
S399 N400 1.613 . S
S399 N401 1.610 . S
N400 S399 1.613 . S
N400 C403 1.350 . S
N401 S399 1.610 . S
N401 C402 1.351 . S
C402 C396 1.428 1_565 S
C402 N401 1.351 . S
C402 C403 1.434 . S
C403 C394 1.429 1_556 S
C403 N400 1.350 . S
C403 C402 1.434 . S
C404 C405 1.369 . S
C404 C406 1.419 . S
C404 H408 0.930 . S
C405 C404 1.369 . S
C405 C414 1.429 . S
C406 C404 1.419 . S
C406 C407 1.363 . S
C406 H409 0.929 . S
C407 C406 1.363 . S
C407 C413 1.428 . S
H408 C404 0.930 . S
H409 C406 0.929 . S
S410 N411 1.613 . S
S410 N412 1.610 . S
N411 S410 1.613 . S
N411 C414 1.350 . S
N412 S410 1.610 . S
N412 C413 1.351 . S
C413 C407 1.428 . S
C413 N412 1.351 . S
C413 C414 1.434 . S
C414 C405 1.429 . S
C414 N411 1.350 . S
C414 C413 1.434 . S
C415 C416 1.369 . S
C415 C417 1.419 . S
C415 H419 0.930 . S
C416 C415 1.369 . S
C416 C425 1.429 . S
C417 C415 1.419 . S
C417 C418 1.363 . S
C417 H420 0.929 . S
C418 C417 1.363 . S
C418 C424 1.428 . S
H419 C415 0.930 . S
H420 C417 0.929 . S
S421 N422 1.613 . S
S421 N423 1.610 . S
N422 S421 1.613 . S
N422 C425 1.350 . S
N423 S421 1.610 . S
N423 C424 1.351 . S
C424 C418 1.428 . S
C424 N423 1.351 . S
C424 C425 1.434 . S
C425 C416 1.429 . S
C425 N422 1.350 . S
C425 C424 1.434 . S
C426 C427 1.369 . S
C426 C428 1.419 . S
C426 H430 0.930 . S
C427 C426 1.369 . S
C427 C436 1.429 . S
C428 C426 1.419 . S
C428 C429 1.363 1_455 S
C428 H431 0.929 1_455 S
C429 C428 1.363 1_655 S
C429 C435 1.428 1_655 S
H430 C426 0.930 . S
H431 C428 0.929 1_655 S
S432 N433 1.613 . S
S432 N434 1.610 . S
N433 S432 1.613 . S
N433 C436 1.350 . S
N434 S432 1.610 . S
N434 C435 1.351 . S
C435 C429 1.428 1_455 S
C435 N434 1.351 . S
C435 C436 1.434 . S
C436 C427 1.429 . S
C436 N433 1.350 . S
C436 C435 1.434 . S
C437 C438 1.369 . S
C437 C439 1.419 . S
C437 H441 0.930 . S
C438 C437 1.369 . S
C438 C447 1.429 . S
C439 C437 1.419 . S
C439 C440 1.363 . S
C439 H442 0.929 . S
C440 C439 1.363 . S
C440 C446 1.428 . S
H441 C437 0.930 . S
H442 C439 0.929 . S
S443 N444 1.613 . S
S443 N445 1.610 . S
N444 S443 1.613 . S
N444 C447 1.350 1_655 S
N445 S443 1.610 . S
N445 C446 1.351 1_655 S
C446 C440 1.428 . S
C446 N445 1.351 1_455 S
C446 C447 1.434 . S
C447 C438 1.429 . S
C447 N444 1.350 1_455 S
C447 C446 1.434 . S
C448 C449 1.369 . S
C448 C450 1.419 . S
C448 H452 0.930 . S
C449 C448 1.369 . S
C449 C458 1.429 . S
C450 C448 1.419 . S
C450 C451 1.363 . S
C450 H453 0.929 . S
C451 C450 1.363 . S
C451 C457 1.428 . S
H452 C448 0.930 . S
H453 C450 0.929 . S
S454 N455 1.613 . S
S454 N456 1.610 . S
N455 S454 1.613 . S
N455 C458 1.350 . S
N456 S454 1.610 . S
N456 C457 1.351 . S
C457 C451 1.428 . S
C457 N456 1.351 . S
C457 C458 1.434 . S
C458 C449 1.429 . S
C458 N455 1.350 . S
C458 C457 1.434 . S
C459 C460 1.369 . S
C459 C461 1.419 . S
C459 H463 0.930 . S
C460 C459 1.369 . S
C460 C469 1.429 1_455 S
C461 C459 1.419 . S
C461 C462 1.363 . S
C461 H464 0.929 . S
C462 C461 1.363 . S
C462 C468 1.428 1_455 S
H463 C459 0.930 . S
H464 C461 0.929 . S
S465 N466 1.613 . S
S465 N467 1.610 . S
N466 S465 1.613 . S
N466 C469 1.350 . S
N467 S465 1.610 . S
N467 C468 1.351 . S
C468 C462 1.428 1_655 S
C468 N467 1.351 . S
C468 C469 1.434 . S
C469 C460 1.429 1_655 S
C469 N466 1.350 . S
C469 C468 1.434 . S
C470 C471 1.369 . S
C470 C472 1.419 . S
C470 H474 0.930 . S
C471 C470 1.369 . S
C471 C480 1.429 . S
C472 C470 1.419 . S
C472 C473 1.363 . S
C472 H475 0.929 . S
C473 C472 1.363 . S
C473 C479 1.428 . S
H474 C470 0.930 . S
H475 C472 0.929 . S
S476 N477 1.613 . S
S476 N478 1.610 . S
N477 S476 1.613 . S
N477 C480 1.350 . S
N478 S476 1.610 . S
N478 C479 1.351 . S
C479 C473 1.428 . S
C479 N478 1.351 . S
C479 C480 1.434 . S
C480 C471 1.429 . S
C480 N477 1.350 . S
C480 C479 1.434 . S
C481 C482 1.369 . S
C481 C483 1.419 . S
C481 H485 0.930 . S
C482 C481 1.369 . S
C482 C491 1.429 . S
C483 C481 1.419 . S
C483 C484 1.363 . S
C483 H486 0.929 . S
C484 C483 1.363 . S
C484 C490 1.428 . S
H485 C481 0.930 . S
H486 C483 0.929 . S
S487 N488 1.613 . S
S487 N489 1.610 . S
N488 S487 1.613 . S
N488 C491 1.350 . S
N489 S487 1.610 . S
N489 C490 1.351 . S
C490 C484 1.428 . S
C490 N489 1.351 . S
C490 C491 1.434 . S
C491 C482 1.429 . S
C491 N488 1.350 . S
C491 C490 1.434 . S
C273 C20 1.503 . S
C275 C190 1.504 . S
C284 C224 1.515 . S
C286 C54 1.518 . S
C295 C88 1.503 . S
C297 C258 1.503 . S
C306 C156 1.515 . S
C308 C122 1.516 . S
C317 C33 1.372 . S
C319 C138 1.377 . S
C328 C67 1.372 . S
C330 C172 1.372 . S
C339 C237 1.372 . S
C341 C70 1.373 . S
C350 C104 1.374 . S
C352 C271 1.375 . S
C361 C135 1.370 . S
C363 C240 1.374 . S
C372 C203 1.373 . S
C374 C36 1.377 . S
C383 C206 1.378 . S
C385 C101 1.373 . S
C394 C2 1.373 . S
C396 C169 1.372 . S
C405 C9 1.433 . S
C407 C5 1.525 . S
C416 C43 1.420 . S
C418 C39 1.531 1_545 S
C427 C77 1.422 . S
C429 C73 1.528 . S
C438 C111 1.430 . S
C440 C107 1.528 . S
C449 C141 1.529 . S
C451 C145 1.428 . S
C460 C179 1.433 . S
C462 C175 1.526 . S
C471 C213 1.425 . S
C473 C209 1.530 . S
C482 C243 1.529 . S
C484 C247 1.423 . S
