# Generated by pormake.
# Topology umo, (4)-cn, num edge types: 1
# Building blocks:
#     Node 0, Type 0, BuildingBlock: KUFVIS_clean_sbu_0, # of connection points: 4
#     Node 1, Type 0, BuildingBlock: KUFVIS_clean_sbu_0, # of connection points: 4
#     Node 2, Type 0, BuildingBlock: KUFVIS_clean_sbu_0, # of connection points: 4
#     Node 3, Type 0, BuildingBlock: KUFVIS_clean_sbu_0, # of connection points: 4
#     Node 4, Type 0, BuildingBlock: KUFVIS_clean_sbu_0, # of connection points: 4
#     Node 5, Type 0, BuildingBlock: KUFVIS_clean_sbu_0, # of connection points: 4
#     Node 6, Type 0, BuildingBlock: KUFVIS_clean_sbu_0, # of connection points: 4
#     Node 7, Type 0, BuildingBlock: KUFVIS_clean_sbu_0, # of connection points: 4
#     Node 8, Type 0, BuildingBlock: KUFVIS_clean_sbu_0, # of connection points: 4
#     Node 9, Type 0, BuildingBlock: KUFVIS_clean_sbu_0, # of connection points: 4
#     Node 10, Type 0, BuildingBlock: KUFVIS_clean_sbu_0, # of connection points: 4
#     Node 11, Type 0, BuildingBlock: KUFVIS_clean_sbu_0, # of connection points: 4
#     Edge 12, Type (0, 0), BuildingBlock: ZUJKAS_clean_linker_0, # of connection points: 2
#     Edge 13, Type (0, 0), BuildingBlock: ZUJKAS_clean_linker_0, # of connection points: 2
#     Edge 14, Type (0, 0), BuildingBlock: ZUJKAS_clean_linker_0, # of connection points: 2
#     Edge 15, Type (0, 0), BuildingBlock: ZUJKAS_clean_linker_0, # of connection points: 2
#     Edge 16, Type (0, 0), BuildingBlock: ZUJKAS_clean_linker_0, # of connection points: 2
#     Edge 17, Type (0, 0), BuildingBlock: ZUJKAS_clean_linker_0, # of connection points: 2
#     Edge 18, Type (0, 0), BuildingBlock: ZUJKAS_clean_linker_0, # of connection points: 2
#     Edge 19, Type (0, 0), BuildingBlock: ZUJKAS_clean_linker_0, # of connection points: 2
#     Edge 20, Type (0, 0), BuildingBlock: ZUJKAS_clean_linker_0, # of connection points: 2
#     Edge 21, Type (0, 0), BuildingBlock: ZUJKAS_clean_linker_0, # of connection points: 2
#     Edge 22, Type (0, 0), BuildingBlock: ZUJKAS_clean_linker_0, # of connection points: 2
#     Edge 23, Type (0, 0), BuildingBlock: ZUJKAS_clean_linker_0, # of connection points: 2
#     Edge 24, Type (0, 0), BuildingBlock: ZUJKAS_clean_linker_0, # of connection points: 2
#     Edge 25, Type (0, 0), BuildingBlock: ZUJKAS_clean_linker_0, # of connection points: 2
#     Edge 26, Type (0, 0), BuildingBlock: ZUJKAS_clean_linker_0, # of connection points: 2
#     Edge 27, Type (0, 0), BuildingBlock: ZUJKAS_clean_linker_0, # of connection points: 2
#     Edge 28, Type (0, 0), BuildingBlock: ZUJKAS_clean_linker_0, # of connection points: 2
#     Edge 29, Type (0, 0), BuildingBlock: ZUJKAS_clean_linker_0, # of connection points: 2
#     Edge 30, Type (0, 0), BuildingBlock: ZUJKAS_clean_linker_0, # of connection points: 2
#     Edge 31, Type (0, 0), BuildingBlock: ZUJKAS_clean_linker_0, # of connection points: 2
#     Edge 32, Type (0, 0), BuildingBlock: ZUJKAS_clean_linker_0, # of connection points: 2
#     Edge 33, Type (0, 0), BuildingBlock: ZUJKAS_clean_linker_0, # of connection points: 2
#     Edge 34, Type (0, 0), BuildingBlock: ZUJKAS_clean_linker_0, # of connection points: 2
#     Edge 35, Type (0, 0), BuildingBlock: ZUJKAS_clean_linker_0, # of connection points: 2
# Relax obj value: 0.197
# Max RMSD: 0.251
# Mean RMSD: 0.251
data_MOF--net-umo--node1-KUFVIS_clean_sbu_0--edge1-ZUJKAS_clean_linker_0
_symmetry_space_group_name_H-M    P1
_symmetry_Int_Tables_number       1
_symmetry_cell_setting            triclinic
loop_
_symmetry_equiv_pos_as_xyz
'x, y, z'
_cell_length_a     60.465693
_cell_length_b     60.483492
_cell_length_c     50.155333
_cell_angle_alpha  89.987277
_cell_angle_beta   89.990525
_cell_angle_gamma 119.95931
loop_
_atom_site_label
_atom_site_type_symbol
_atom_site_fract_x
_atom_site_fract_y
_atom_site_fract_z
_atom_type_partial_charge
Mn0 Mn 0.17025 0.53946 0.40023 0.0
Mn1 Mn 0.13633 0.56896 0.4126 0.0
C2 C 0.1915 0.5821 0.41057 0.0
C3 C 0.1877 0.5256 0.36678 0.0
C4 C 0.14521 0.53757 0.45395 0.0
O5 O 0.13435 0.51336 0.38888 0.0
O6 O 0.11499 0.53659 0.39314 0.0
C7 C 0.13185 0.58128 0.35645 0.0
N8 N 0.13931 0.5891 0.38199 0.0
C9 C 0.15625 0.63311 0.36971 0.0
C10 C 0.14859 0.62551 0.34331 0.0
C11 C 0.13637 0.59949 0.33665 0.0
C12 C 0.15132 0.61411 0.38855 0.0
H13 H 0.12262 0.5613 0.35122 0.0
C14 C 0.11504 0.51627 0.38624 0.0
O15 O 0.18261 0.51506 0.3903 0.0
O16 O 0.18229 0.54349 0.36294 0.0
N17 N 0.15389 0.60071 0.43135 0.0
C18 C 0.1581 0.60464 0.45809 0.0
C19 C 0.16956 0.62959 0.46823 0.0
C20 C 0.17605 0.65018 0.45088 0.0
C21 C 0.17033 0.64553 0.42366 0.0
C22 C 0.15865 0.62022 0.41477 0.0
H23 H 0.15297 0.58889 0.47158 0.0
O24 O 0.20339 0.56926 0.41093 0.0
O25 O 0.168 0.57006 0.40225 0.0
O26 O 0.15985 0.53229 0.44004 0.0
O27 O 0.13411 0.54936 0.44486 0.0
C28 C 0.17556 0.66498 0.40504 0.0
C29 C 0.16863 0.65879 0.37805 0.0
H30 H 0.15203 0.6395 0.32798 0.0
H31 H 0.1305 0.59348 0.3163 0.0
H32 H 0.17346 0.63296 0.48935 0.0
H33 H 0.1851 0.66942 0.45873 0.0
H34 H 0.18482 0.68476 0.41127 0.0
H35 H 0.17275 0.67391 0.36391 0.0
Mn36 Mn 0.6198 0.17312 0.55881 0.0
Mn37 Mn 0.55688 0.13471 0.57134 0.0
C38 C 0.59486 0.19116 0.56692 0.0
C39 C 0.65121 0.19119 0.52568 0.0
C40 C 0.598 0.14963 0.61338 0.0
O41 O 0.61372 0.13781 0.54993 0.0
O42 O 0.5711 0.11521 0.55376 0.0
C43 C 0.54027 0.12627 0.51495 0.0
N44 N 0.53882 0.13432 0.53991 0.0
C45 C 0.50879 0.14691 0.52537 0.0
C46 C 0.50982 0.1386 0.49954 0.0
C47 C 0.52567 0.12828 0.49431 0.0
C48 C 0.52391 0.1446 0.54507 0.0
H49 H 0.55256 0.11849 0.51079 0.0
C50 C 0.59254 0.11716 0.54769 0.0
O51 O 0.65709 0.18843 0.54994 0.0
O52 O 0.62739 0.18333 0.52096 0.0
N53 N 0.53967 0.1502 0.58835 0.0
C54 C 0.53866 0.15456 0.61488 0.0
C55 C 0.52295 0.16404 0.62374 0.0
C56 C 0.50789 0.16822 0.60537 0.0
C57 C 0.50812 0.16218 0.57842 0.0
C58 C 0.52403 0.1526 0.57082 0.0
H59 H 0.54995 0.15109 0.62915 0.0
O60 O 0.61951 0.20509 0.56696 0.0
O61 O 0.58546 0.16743 0.55991 0.0
O62 O 0.61728 0.16502 0.59912 0.0
O63 O 0.57523 0.13606 0.60437 0.0
C64 C 0.49283 0.1648 0.5589 0.0
C65 C 0.49329 0.15732 0.53235 0.0
H66 H 0.49854 0.14004 0.48359 0.0
H67 H 0.52665 0.12191 0.4744 0.0
H68 H 0.52246 0.16811 0.64467 0.0
H69 H 0.49584 0.17558 0.61228 0.0
H70 H 0.4805 0.17234 0.56413 0.0
H71 H 0.4814 0.15937 0.51753 0.0
Mn72 Mn 0.45187 0.62743 0.73115 0.0
Mn73 Mn 0.42553 0.56489 0.74691 0.0
C74 C 0.40835 0.60264 0.7351 0.0
C75 C 0.46705 0.65827 0.69722 0.0
C76 C 0.44936 0.60731 0.78786 0.0
O77 O 0.48104 0.62046 0.72548 0.0
O78 O 0.46074 0.57817 0.73337 0.0
C79 C 0.42252 0.54522 0.69222 0.0
N80 N 0.41079 0.5452 0.71541 0.0
C81 C 0.36977 0.51372 0.69838 0.0
C82 C 0.38144 0.51328 0.67437 0.0
C83 C 0.40793 0.52913 0.67128 0.0
C84 C 0.38531 0.5301 0.71856 0.0
H85 H 0.44285 0.55749 0.68969 0.0
C86 C 0.48049 0.59916 0.72658 0.0
O87 O 0.47461 0.66455 0.72176 0.0
O88 O 0.45147 0.63437 0.69263 0.0
N89 N 0.39132 0.5492 0.76023 0.0
C90 C 0.38302 0.55183 0.78467 0.0
C91 C 0.35694 0.53739 0.79092 0.0
C92 C 0.33972 0.52017 0.77215 0.0
C93 C 0.34881 0.51725 0.74744 0.0
C94 C 0.37504 0.53199 0.74242 0.0
H95 H 0.39615 0.56501 0.7992 0.0
O96 O 0.4192 0.62731 0.73576 0.0
O97 O 0.42317 0.59315 0.73098 0.0
O98 O 0.45509 0.62621 0.7722 0.0
O99 O 0.43952 0.58416 0.78012 0.0
C100 C 0.33284 0.5005 0.72748 0.0
C101 C 0.3433 0.49878 0.70295 0.0
H102 H 0.37024 0.50096 0.65814 0.0
H103 H 0.41706 0.52898 0.65277 0.0
H104 H 0.35011 0.53963 0.81011 0.0
H105 H 0.31958 0.50927 0.77693 0.0
H106 H 0.31245 0.48898 0.73073 0.0
H107 H 0.3308 0.48596 0.68769 0.0
Mn108 Mn 0.82021 0.44807 0.8929 0.0
Mn109 Mn 0.85691 0.42149 0.90459 0.0
C110 C 0.80082 0.40513 0.90172 0.0
C111 C 0.80244 0.46194 0.86003 0.0
C112 C 0.84457 0.44971 0.94679 0.0
O113 O 0.85582 0.47609 0.88308 0.0
O114 O 0.87695 0.45443 0.88559 0.0
C115 C 0.8628 0.41091 0.84821 0.0
N116 N 0.85549 0.40242 0.87361 0.0
C117 C 0.8415 0.35912 0.86059 0.0
C118 C 0.84912 0.36744 0.83434 0.0
C119 C 0.85974 0.39344 0.82812 0.0
C120 C 0.84487 0.3774 0.87973 0.0
H121 H 0.87078 0.43084 0.84329 0.0
C122 C 0.8757 0.47434 0.87968 0.0
O123 O 0.8064 0.47137 0.88403 0.0
O124 O 0.80907 0.44503 0.85539 0.0
N125 N 0.84074 0.38934 0.92273 0.0
C126 C 0.83644 0.38479 0.94939 0.0
C127 C 0.82642 0.35981 0.9591 0.0
C128 C 0.82157 0.33989 0.94143 0.0
C129 C 0.82734 0.34523 0.91429 0.0
C130 C 0.83744 0.37053 0.90581 0.0
H131 H 0.84043 0.40004 0.96316 0.0
O132 O 0.78771 0.41674 0.90208 0.0
O133 O 0.82447 0.41856 0.89405 0.0
O134 O 0.82929 0.45404 0.9329 0.0
O135 O 0.85751 0.43993 0.93736 0.0
C136 C 0.82383 0.32652 0.89538 0.0
C137 C 0.83074 0.33343 0.86852 0.0
H138 H 0.84685 0.35403 0.8188 0.0
H139 H 0.86553 0.39998 0.80788 0.0
H140 H 0.82247 0.35594 0.98015 0.0
H141 H 0.81382 0.32065 0.94899 0.0
H142 H 0.81595 0.30678 0.90131 0.0
H143 H 0.82792 0.31887 0.85416 0.0
Mn144 Mn 0.3726 0.82288 0.06259 0.0
Mn145 Mn 0.43494 0.86133 0.07771 0.0
C146 C 0.39761 0.80493 0.07065 0.0
C147 C 0.34256 0.80605 0.02798 0.0
C148 C 0.39234 0.84435 0.11838 0.0
O149 O 0.37855 0.85836 0.05505 0.0
O150 O 0.42099 0.88125 0.06046 0.0
C151 C 0.45346 0.87213 0.02198 0.0
N152 N 0.45414 0.86312 0.04668 0.0
C153 C 0.48475 0.85125 0.03229 0.0
C154 C 0.48451 0.86055 0.00674 0.0
C155 C 0.46876 0.871 1.00156 0.0
C156 C 0.46896 0.85273 0.05178 0.0
H157 H 0.44124 0.87999 0.01786 0.0
C158 C 0.39963 0.87924 0.05392 0.0
O159 O 0.33561 0.80759 0.05217 0.0
O160 O 0.36659 0.81434 0.02421 0.0
N161 N 0.45187 0.84548 0.09457 0.0
C162 C 0.45216 0.84024 0.12097 0.0
C163 C 0.46768 0.83054 0.12981 0.0
C164 C 0.4833 0.82705 0.11158 0.0
C165 C 0.48383 0.83402 0.08483 0.0
C166 C 0.46808 0.84378 0.07725 0.0
H167 H 0.44042 0.84317 0.13514 0.0
O168 O 0.37301 0.7908 0.0696 0.0
O169 O 0.40702 0.82892 0.06471 0.0
O170 O 0.37362 0.8293 0.10328 0.0
O171 O 0.41537 0.85847 0.11026 0.0
C172 C 0.49974 0.83217 0.0655 0.0
C173 C 0.50009 0.84065 0.03921 0.0
H174 H 0.49634 0.85978 0.99096 0.0
H175 H 0.4684 0.87813 0.98187 0.0
H176 H 0.46759 0.82575 0.15062 0.0
H177 H 0.49521 0.81951 0.11847 0.0
H178 H 0.51195 0.82446 0.07071 0.0
H179 H 0.51247 0.8392 0.02454 0.0
Mn180 Mn 0.5464 0.3716 0.22445 0.0
Mn181 Mn 0.56918 0.43245 0.24508 0.0
C182 C 0.5898 0.39772 0.22947 0.0
C183 C 0.53162 0.34259 0.18898 0.0
C184 C 0.54687 0.38705 0.28252 0.0
O185 O 0.51575 0.37671 0.22128 0.0
O186 O 0.53448 0.41864 0.23001 0.0
C187 C 0.57353 0.45602 0.19221 0.0
N188 N 0.5844 0.4552 0.2157 0.0
C189 C 0.62455 0.49161 0.20335 0.0
C190 C 0.61376 0.49296 0.17908 0.0
C191 C 0.58817 0.47503 0.17346 0.0
C192 C 0.60905 0.4722 0.22121 0.0
H193 H 0.55386 0.44226 0.18784 0.0
C194 C 0.51525 0.39745 0.22286 0.0
O195 O 0.52498 0.33502 0.21343 0.0
O196 O 0.54641 0.36686 0.18528 0.0
N197 N 0.60266 0.44901 0.26031 0.0
C198 C 0.61028 0.44486 0.28447 0.0
C199 C 0.6354 0.4611 0.2931 0.0
C200 C 0.65233 0.48167 0.27703 0.0
C201 C 0.64392 0.4859 0.25252 0.0
C202 C 0.61859 0.46919 0.24505 0.0
H203 H 0.59732 0.42928 0.29708 0.0
O204 O 0.57983 0.37321 0.22732 0.0
O205 O 0.57423 0.40662 0.22672 0.0
O206 O 0.54334 0.36981 0.2655 0.0
O207 O 0.5546 0.41031 0.27648 0.0
C208 C 0.65977 0.50581 0.23503 0.0
C209 C 0.65013 0.5086 0.21041 0.0
H210 H 0.62498 0.5076 0.16457 0.0
H211 H 0.57973 0.47589 0.15473 0.0
H212 H 0.64168 0.45779 0.31214 0.0
H213 H 0.67175 0.49407 0.28368 0.0
H214 H 0.67949 0.51894 0.24019 0.0
H215 H 0.66257 0.52382 0.19701 0.0
Mn216 Mn 0.45062 0.82482 0.44762 0.0
Mn217 Mn 0.42318 0.86047 0.43422 0.0
C218 C 0.40702 0.80551 0.44425 0.0
C219 C 0.46652 0.80913 0.48081 0.0
C220 C 0.44702 0.84325 0.39171 0.0
O221 O 0.47962 0.86104 0.45304 0.0
O222 O 0.45853 0.88253 0.44737 0.0
C223 C 0.42057 0.87544 0.4898 0.0
N224 N 0.40862 0.8642 0.46654 0.0
C225 C 0.36757 0.85301 0.48492 0.0
C226 C 0.37945 0.86461 0.50902 0.0
C227 C 0.40607 0.87584 0.51147 0.0
C228 C 0.38302 0.8532 0.46402 0.0
H229 H 0.441 0.88394 0.49182 0.0
C230 C 0.47873 0.88163 0.45291 0.0
O231 O 0.47388 0.81075 0.45614 0.0
O232 O 0.45086 0.81725 0.48593 0.0
N233 N 0.38884 0.8419 0.42134 0.0
C234 C 0.38043 0.83215 0.3965 0.0
C235 C 0.35425 0.8204 0.39067 0.0
C236 C 0.33706 0.81914 0.41027 0.0
C237 C 0.34626 0.83 0.4354 0.0
C238 C 0.37258 0.84169 0.43997 0.0
H239 H 0.39355 0.83314 0.38132 0.0
O240 O 0.41823 0.79204 0.44312 0.0
O241 O 0.42153 0.82976 0.44875 0.0
O242 O 0.45313 0.82988 0.40665 0.0
O243 O 0.43701 0.8562 0.40031 0.0
C244 C 0.33035 0.82968 0.45611 0.0
C245 C 0.34099 0.84109 0.48088 0.0
H246 H 0.36833 0.86493 0.5258 0.0
H247 H 0.41536 0.88474 0.53004 0.0
H248 H 0.34733 0.81226 0.37115 0.0
H249 H 0.31688 0.80997 0.40574 0.0
H250 H 0.30991 0.82065 0.45322 0.0
H251 H 0.32855 0.84062 0.49669 0.0
Mn252 Mn 0.62703 0.45296 0.60706 0.0
Mn253 Mn 0.56507 0.42817 0.58949 0.0
C254 C 0.60125 0.40955 0.60373 0.0
C255 C 0.65721 0.46802 0.6415 0.0
C256 C 0.60845 0.44983 0.54955 0.0
O257 O 0.62122 0.48302 0.61111 0.0
O258 O 0.57925 0.46394 0.60161 0.0
C259 C 0.54485 0.42739 0.64343 0.0
N260 N 0.54467 0.4148 0.62085 0.0
C261 C 0.51213 0.37469 0.63871 0.0
C262 C 0.51182 0.38725 0.66208 0.0
C263 C 0.52828 0.4137 0.66446 0.0
C264 C 0.52903 0.38934 0.61841 0.0
H265 H 0.5576 0.44769 0.6454 0.0
C266 C 0.60044 0.48332 0.60852 0.0
O267 O 0.66407 0.47491 0.61691 0.0
O268 O 0.6331 0.45315 0.64584 0.0
N269 N 0.54847 0.3936 0.57721 0.0
C270 C 0.55079 0.38447 0.55314 0.0
C271 C 0.53564 0.35832 0.54755 0.0
C272 C 0.518 0.34192 0.56656 0.0
C273 C 0.51534 0.35191 0.5908 0.0
C274 C 0.5308 0.37817 0.59516 0.0
H275 H 0.56426 0.39698 0.53841 0.0
O276 O 0.62587 0.41972 0.60386 0.0
O277 O 0.59231 0.42498 0.60685 0.0
O278 O 0.62685 0.45544 0.56587 0.0
O279 O 0.58517 0.44072 0.55659 0.0
C280 C 0.49808 0.33682 0.61089 0.0
C281 C 0.49653 0.34819 0.63486 0.0
H282 H 0.49912 0.37676 0.67838 0.0
H283 H 0.52824 0.42351 0.68249 0.0
H284 H 0.53763 0.35082 0.52867 0.0
H285 H 0.50653 0.32172 0.56229 0.0
H286 H 0.486 0.31643 0.60817 0.0
H287 H 0.4833 0.33636 0.65022 0.0
Mn288 Mn 0.17053 0.61969 0.7798 0.0
Mn289 Mn 0.13244 0.55657 0.76901 0.0
C290 C 0.18893 0.59509 0.7716 0.0
C291 C 0.18861 0.6513 0.81282 0.0
C292 C 0.14542 0.59686 0.72631 0.0
O293 O 0.13515 0.61323 0.78904 0.0
O294 O 0.11341 0.57039 0.78847 0.0
C295 C 0.12725 0.54047 0.82548 0.0
N296 N 0.13398 0.53889 0.79992 0.0
C297 C 0.14773 0.50931 0.81271 0.0
C298 C 0.1407 0.51041 0.83911 0.0
C299 C 0.13048 0.52611 0.84552 0.0
C300 C 0.1442 0.52416 0.79361 0.0
H301 H 0.11964 0.55271 0.83055 0.0
C302 C 0.11516 0.59194 0.79345 0.0
O303 O 0.18558 0.65704 0.78858 0.0
O304 O 0.18108 0.62757 0.81753 0.0
N305 N 0.14768 0.53983 0.75051 0.0
C306 C 0.1513 0.53913 0.72374 0.0
C307 C 0.16087 0.52383 0.71386 0.0
C308 C 0.16595 0.50886 0.73148 0.0
C309 C 0.16076 0.50882 0.75873 0.0
C310 C 0.15107 0.52434 0.76738 0.0
H311 H 0.14716 0.55033 0.71003 0.0
O312 O 0.20265 0.61975 0.77125 0.0
O313 O 0.1653 0.58559 0.779 0.0
O314 O 0.16169 0.61641 0.73966 0.0
O315 O 0.13176 0.57448 0.7363 0.0
C316 C 0.16447 0.49371 0.7776 0.0
C317 C 0.15811 0.49408 0.80459 0.0
H318 H 0.14312 0.49933 0.85462 0.0
H319 H 0.12515 0.52718 0.86588 0.0
H320 H 0.16434 0.52359 0.69272 0.0
H321 H 0.17343 0.49716 0.7238 0.0
H322 H 0.17206 0.48162 0.77153 0.0
H323 H 0.16107 0.4824 0.81891 0.0
Mn324 Mn 0.53707 0.169 0.9413 0.0
Mn325 Mn 0.56552 0.13448 0.92715 0.0
C326 C 0.58078 0.18907 0.93845 0.0
C327 C 0.52022 0.18348 0.97458 0.0
C328 C 0.5407 0.15128 0.88531 0.0
O329 O 0.50849 0.13239 0.94596 0.0
O330 O 0.53064 0.11184 0.94117 0.0
C331 C 0.56989 0.11965 0.98227 0.0
N332 N 0.58113 0.13104 0.9588 0.0
C333 C 0.62279 0.14267 0.97569 0.0
C334 C 0.61165 0.13089 0.99999 0.0
C335 C 0.58509 0.11937 1.0033 0.0
C336 C 0.60667 0.14228 0.95544 0.0
H337 H 0.5495 0.11091 0.98495 0.0
C338 C 0.51008 0.11217 0.94643 0.0
O339 O 0.51347 0.18255 0.94978 0.0
O340 O 0.53598 0.17548 0.97977 0.0
N341 N 0.59952 0.15383 0.91343 0.0
C342 C 0.60726 0.16432 0.88873 0.0
C343 C 0.63334 0.17676 0.88224 0.0
C344 C 0.65112 0.17799 0.90105 0.0
C345 C 0.64262 0.16641 0.92605 0.0
C346 C 0.61637 0.15408 0.9313 0.0
H347 H 0.59371 0.16343 0.87416 0.0
O348 O 0.56919 0.2022 0.93758 0.0
O349 O 0.56653 0.16467 0.94234 0.0
O350 O 0.53501 0.16488 0.90033 0.0
O351 O 0.55062 0.13821 0.89372 0.0
C352 C 0.65918 0.16686 0.94607 0.0
C353 C 0.64928 0.15505 0.97089 0.0
H354 H 0.62331 0.13072 0.01629 0.0
H355 H 0.57636 0.11035 0.02204 0.0
H356 H 0.63972 0.18548 0.86284 0.0
H357 H 0.67125 0.18784 0.89608 0.0
H358 H 0.67959 0.1764 0.94264 0.0
H359 H 0.66223 0.15569 0.9862 0.0
Mn360 Mn 0.36797 0.54192 0.11492 0.0
Mn361 Mn 0.43086 0.56931 0.10059 0.0
C362 C 0.39222 0.58558 0.11198 0.0
C363 C 0.33676 0.52554 0.14853 0.0
C364 C 0.38922 0.54573 0.05865 0.0
O365 O 0.37532 0.51285 0.11952 0.0
O366 O 0.41793 0.53417 0.11418 0.0
C367 C 0.44968 0.57257 0.15572 0.0
N368 N 0.44991 0.58423 0.13241 0.0
C369 C 0.48061 0.6254 0.14976 0.0
C370 C 0.48085 0.61381 0.1739 0.0
C371 C 0.46528 0.58729 0.1769 0.0
C372 C 0.46471 0.60975 0.12936 0.0
H373 H 0.43762 0.5522 0.15816 0.0
C374 C 0.39689 0.5139 0.11966 0.0
O375 O 0.33077 0.5186 0.12379 0.0
O376 O 0.36058 0.54115 0.15345 0.0
N377 N 0.4463 0.60351 0.08729 0.0
C378 C 0.44408 0.61169 0.06262 0.0
C379 C 0.45835 0.63779 0.05641 0.0
C380 C 0.47503 0.65513 0.07543 0.0
C381 C 0.4776 0.64616 0.10036 0.0
C382 C 0.46305 0.61991 0.10534 0.0
H383 H 0.43136 0.59847 0.04787 0.0
O384 O 0.36753 0.57439 0.11126 0.0
O385 O 0.40201 0.57099 0.11583 0.0
O386 O 0.36996 0.53994 0.07381 0.0
O387 O 0.41216 0.55517 0.06706 0.0
C388 C 0.49387 0.66226 0.12055 0.0
C389 C 0.49533 0.65189 0.14525 0.0
H390 H 0.49279 0.62511 0.19031 0.0
H391 H 0.46526 0.57822 0.19551 0.0
H392 H 0.45642 0.64452 0.03703 0.0
H393 H 0.48581 0.67528 0.07066 0.0
H394 H 0.50524 0.68266 0.11733 0.0
H395 H 0.50778 0.66449 0.16068 0.0
Mn396 Mn 0.82249 0.37518 0.27632 0.0
Mn397 Mn 0.86027 0.43633 0.25641 0.0
C398 C 0.80476 0.40081 0.27042 0.0
C399 C 0.80749 0.34616 0.31184 0.0
C400 C 0.83904 0.39124 0.2186 0.0
O401 O 0.85829 0.38079 0.28077 0.0
O402 O 0.88123 0.42269 0.27174 0.0
C403 C 0.87824 0.45929 0.30972 0.0
N404 N 0.8669 0.4586 0.28604 0.0
C405 C 0.86208 0.49434 0.29861 0.0
C406 C 0.87387 0.49556 0.32308 0.0
C407 C 0.88191 0.4779 0.32868 0.0
C408 C 0.85891 0.47535 0.28053 0.0
H409 H 0.88443 0.44573 0.31408 0.0
C410 C 0.87943 0.40162 0.27915 0.0
O411 O 0.80732 0.33857 0.28754 0.0
O412 O 0.81672 0.37041 0.31534 0.0
N413 N 0.84322 0.45269 0.24097 0.0
C414 C 0.83178 0.44863 0.21665 0.0
C415 C 0.82246 0.46454 0.20806 0.0
C416 C 0.82538 0.48472 0.22435 0.0
C417 C 0.83771 0.48888 0.24903 0.0
C418 C 0.84675 0.47249 0.25646 0.0
H419 H 0.82968 0.43331 0.20391 0.0
O420 O 0.79048 0.37624 0.27218 0.0
O421 O 0.82918 0.41002 0.27396 0.0
O422 O 0.82517 0.37368 0.23531 0.0
O423 O 0.85365 0.41463 0.22487 0.0
C424 C 0.84103 0.50838 0.26675 0.0
C425 C 0.85311 0.51105 0.29157 0.0
H426 H 0.87671 0.50988 0.33776 0.0
H427 H 0.89092 0.47865 0.34756 0.0
H428 H 0.81308 0.46128 0.18892 0.0
H429 H 0.81804 0.49687 0.21773 0.0
H430 H 0.83411 0.52126 0.26161 0.0
H431 H 0.85531 0.52594 0.30514 0.0
H432 H 0.2083 0.6241 0.37964 0.0
H433 H 0.23795 0.66824 0.39311 0.0
H434 H 0.23383 0.64337 0.47463 0.0
H435 H 0.20616 0.59908 0.46058 0.0
H436 H 0.24076 0.70377 0.42539 0.0
H437 H 0.30719 0.67174 0.46161 0.0
H438 H 0.27808 0.65062 0.44442 0.0
H439 H 0.27754 0.65748 0.47933 0.0
C440 C 0.21361 0.6283 0.40043 0.0
C441 C 0.20497 0.60862 0.41924 0.0
C442 C 0.23038 0.65342 0.40817 0.0
C443 C 0.23855 0.65903 0.43481 0.0
C444 C 0.22846 0.6394 0.45385 0.0
H445 H 0.37449 0.80101 0.48382 0.0
H446 H 0.32845 0.76997 0.48513 0.0
C447 C 0.21253 0.61422 0.44592 0.0
C448 C 0.25978 0.68468 0.44179 0.0
H449 H 0.32123 0.71517 0.46425 0.0
C450 C 0.25825 0.70628 0.43422 0.0
C451 C 0.28269 0.68793 0.45319 0.0
C452 C 0.28663 0.66575 0.45986 0.0
C453 C 0.27948 0.73093 0.43652 0.0
C454 C 0.30231 0.73387 0.44722 0.0
C455 C 0.30335 0.71259 0.45643 0.0
C456 C 0.32684 0.7576 0.44436 0.0
C457 C 0.278 0.75356 0.42628 0.0
C458 C 0.34078 0.76093 0.42092 0.0
C459 C 0.36694 0.77792 0.42043 0.0
C460 C 0.37923 0.79248 0.44301 0.0
C461 C 0.36505 0.79039 0.46597 0.0
C462 C 0.33888 0.77287 0.46669 0.0
H463 H 0.25797 0.74888 0.42283 0.0
H464 H 0.28721 0.76969 0.44058 0.0
H465 H 0.28857 0.75996 0.40714 0.0
H466 H 0.33184 0.74878 0.40378 0.0
H467 H 0.37778 0.77893 0.4028 0.0
H468 H 0.59107 0.20311 0.61751 0.0
H469 H 0.57315 0.2291 0.6331 0.0
H470 H 0.55213 0.23489 0.55209 0.0
H471 H 0.56758 0.20653 0.53725 0.0
H472 H 0.59354 0.27384 0.62284 0.0
H473 H 0.49593 0.23777 0.58631 0.0
H474 H 0.51044 0.21796 0.58653 0.0
H475 H 0.51488 0.23859 0.55854 0.0
C476 C 0.58149 0.20906 0.60338 0.0
C477 C 0.57987 0.20237 0.57645 0.0
C478 C 0.57133 0.22395 0.61221 0.0
C479 C 0.56093 0.23389 0.59391 0.0
C480 C 0.55898 0.22676 0.56691 0.0
H481 H 0.60048 0.37924 0.56428 0.0
H482 H 0.58128 0.33279 0.56581 0.0
C483 C 0.56815 0.21085 0.55829 0.0
C484 C 0.55747 0.25562 0.6019 0.0
H485 H 0.52337 0.28523 0.5873 0.0
C486 C 0.57755 0.27571 0.616 0.0
C487 C 0.53671 0.25844 0.59313 0.0
C488 C 0.51319 0.23683 0.58057 0.0
C489 C 0.57858 0.29909 0.61944 0.0
C490 C 0.55934 0.30274 0.60801 0.0
C491 C 0.53821 0.28229 0.59576 0.0
C492 C 0.56391 0.3288 0.60454 0.0
C493 C 0.60139 0.32055 0.63329 0.0
C494 C 0.55988 0.34161 0.62561 0.0
C495 C 0.57074 0.36813 0.62466 0.0
C496 C 0.58548 0.38182 0.60257 0.0
C497 C 0.58868 0.36883 0.58118 0.0
C498 C 0.57759 0.34241 0.58196 0.0
H499 H 0.61382 0.31405 0.64266 0.0
H500 H 0.61295 0.33581 0.61868 0.0
H501 H 0.59495 0.32902 0.64897 0.0
H502 H 0.54984 0.33136 0.6434 0.0
H503 H 0.56878 0.37806 0.64168 0.0
H504 H 0.20025 0.59096 0.72084 0.0
H505 H 0.22658 0.57348 0.70502 0.0
H506 H 0.23343 0.5531 0.78598 0.0
H507 H 0.20493 0.56828 0.80113 0.0
H508 H 0.27174 0.59503 0.71566 0.0
H509 H 0.23698 0.49725 0.75117 0.0
H510 H 0.21663 0.51115 0.75047 0.0
H511 H 0.23689 0.51583 0.77886 0.0
C512 C 0.20651 0.58161 0.73493 0.0
C513 C 0.20017 0.58017 0.76196 0.0
C514 C 0.22156 0.57168 0.72596 0.0
C515 C 0.23191 0.56164 0.74418 0.0
C516 C 0.225 0.55972 0.77126 0.0
H517 H 0.37778 0.60182 0.7744 0.0
H518 H 0.33134 0.58297 0.77252 0.0
C519 C 0.20902 0.56873 0.78004 0.0
C520 C 0.2539 0.55868 0.73607 0.0
H521 H 0.28426 0.52523 0.75019 0.0
C522 C 0.2739 0.57915 0.7223 0.0
C523 C 0.25704 0.53807 0.74457 0.0
C524 C 0.23554 0.51425 0.75681 0.0
C525 C 0.29753 0.58067 0.71894 0.0
C526 C 0.30145 0.5615 0.73007 0.0
C527 C 0.28109 0.54001 0.74198 0.0
C528 C 0.3276 0.56631 0.73344 0.0
C529 C 0.3189 0.60387 0.70549 0.0
C530 C 0.34053 0.56266 0.71222 0.0
C531 C 0.36702 0.57333 0.71336 0.0
C532 C 0.38056 0.58749 0.73578 0.0
C533 C 0.36747 0.59045 0.75723 0.0
C534 C 0.34107 0.57956 0.75625 0.0
H535 H 0.31223 0.61628 0.69642 0.0
H536 H 0.33402 0.61528 0.72028 0.0
H537 H 0.32762 0.59789 0.68964 0.0
H538 H 0.33038 0.55296 0.69426 0.0
H539 H 0.37703 0.5716 0.69629 0.0
H540 H 0.7875 0.38907 0.95207 0.0
H541 H 0.76029 0.34514 0.9671 0.0
H542 H 0.75601 0.3188 0.88615 0.0
H543 H 0.78523 0.3626 0.87181 0.0
H544 H 0.71525 0.32159 0.95441 0.0
H545 H 0.75226 0.2594 0.92169 0.0
H546 H 0.7722 0.29366 0.9228 0.0
H547 H 0.75276 0.27822 0.89391 0.0
C548 C 0.78155 0.37364 0.93783 0.0
C549 C 0.78881 0.37881 0.91104 0.0
C550 C 0.76602 0.3486 0.94635 0.0
C551 C 0.75621 0.32843 0.92788 0.0
C552 C 0.76399 0.33369 0.90106 0.0
H553 H 0.61014 0.21827 0.89829 0.0
H554 H 0.65633 0.24742 0.89939 0.0
C555 C 0.7804 0.35874 0.89274 0.0
C556 C 0.7341 0.30339 0.93543 0.0
H557 H 0.70521 0.2394 0.92274 0.0
C558 C 0.71358 0.30361 0.94835 0.0
C559 C 0.73161 0.27974 0.92758 0.0
C560 C 0.75356 0.27777 0.916 0.0
C561 C 0.69019 0.28127 0.95177 0.0
C562 C 0.68705 0.25815 0.9416 0.0
C563 C 0.70782 0.25736 0.93029 0.0
C564 C 0.66125 0.23609 0.93886 0.0
C565 C 0.66831 0.28277 0.96443 0.0
C566 C 0.64908 0.21989 0.96056 0.0
C567 C 0.62273 0.20316 0.95987 0.0
C568 C 0.60858 0.20249 0.9374 0.0
C569 C 0.62095 0.21818 0.91549 0.0
C570 C 0.64722 0.23461 0.91604 0.0
H571 H 0.6744 0.30194 0.97289 0.0
H572 H 0.65325 0.27833 0.9493 0.0
H573 H 0.65971 0.2684 0.98061 0.0
H574 H 0.65965 0.22129 0.97852 0.0
H575 H 0.61324 0.1917 0.97727 0.0
H576 H 0.39967 0.79195 0.12123 0.0
H577 H 0.4167 0.76532 0.13722 0.0
H578 H 0.44067 0.76134 0.05702 0.0
H579 H 0.42602 0.79029 0.04184 0.0
H580 H 0.39592 0.72068 0.12515 0.0
H581 H 0.49528 0.75719 0.09383 0.0
H582 H 0.4809 0.77712 0.09334 0.0
H583 H 0.47743 0.75694 0.06527 0.0
C584 C 0.40972 0.78629 0.10741 0.0
C585 C 0.41237 0.79362 0.08061 0.0
C586 C 0.41937 0.77103 0.11646 0.0
C587 C 0.43027 0.76137 0.09847 0.0
C588 C 0.43334 0.76921 0.07162 0.0
H589 H 0.39282 0.61465 0.07128 0.0
H590 H 0.41066 0.66096 0.07157 0.0
C591 C 0.42466 0.78547 0.06281 0.0
C592 C 0.4331 0.73926 0.10643 0.0
H593 H 0.468 0.70992 0.09473 0.0
C594 C 0.41224 0.71891 0.11939 0.0
C595 C 0.45424 0.73656 0.09894 0.0
C596 C 0.47829 0.75831 0.08735 0.0
C597 C 0.41108 0.69551 0.12324 0.0
C598 C 0.431 0.69211 0.11339 0.0
C599 C 0.45268 0.71271 0.10203 0.0
C600 C 0.42705 0.66619 0.111 0.0
C601 C 0.3876 0.67386 0.13601 0.0
C602 C 0.4309 0.65413 0.13293 0.0
C603 C 0.42081 0.6277 0.13271 0.0
C604 C 0.40703 0.61335 0.11048 0.0
C605 C 0.40391 0.62559 0.08832 0.0
C606 C 0.41423 0.65193 0.0884 0.0
H607 H 0.37463 0.68018 0.14432 0.0
H608 H 0.37689 0.65874 0.12098 0.0
H609 H 0.39323 0.66527 0.15232 0.0
H610 H 0.44025 0.66489 0.15074 0.0
H611 H 0.42265 0.61834 0.15029 0.0
H612 H 0.77227 0.39223 0.23046 0.0
H613 H 0.74608 0.41164 0.2234 0.0
H614 H 0.78343 0.4629 0.28943 0.0
H615 H 0.80771 0.44108 0.29822 0.0
H616 H 0.73938 0.44935 0.29493 0.0
H617 H 0.75035 0.47042 0.18905 0.0
H618 H 0.74238 0.43777 0.19028 0.0
H619 H 0.77146 0.462 0.20585 0.0
C620 C 0.77519 0.40799 0.24311 0.0
C621 C 0.79265 0.41595 0.26418 0.0
C622 C 0.76055 0.41951 0.23877 0.0
C623 C 0.7634 0.43969 0.25505 0.0
C624 C 0.78108 0.44774 0.27619 0.0
H625 H 0.62671 0.4389 0.20233 0.0
H626 H 0.67276 0.46154 0.21146 0.0
C627 C 0.7952 0.43555 0.28106 0.0
C628 C 0.7449 0.449 0.25235 0.0
H629 H 0.70453 0.44983 0.20569 0.0
C630 C 0.73238 0.4504 0.27535 0.0
C631 C 0.73624 0.4521 0.22713 0.0
C632 C 0.75117 0.45583 0.20182 0.0
C633 C 0.70947 0.45081 0.27355 0.0
C634 C 0.69794 0.44797 0.24824 0.0
C635 C 0.71243 0.45065 0.2253 0.0
C636 C 0.67 0.43783 0.24524 0.0
C637 C 0.69754 0.45322 0.29899 0.0
C638 C 0.6529 0.41703 0.26103 0.0
C639 C 0.62675 0.40503 0.25653 0.0
C640 C 0.61701 0.4131 0.23575 0.0
C641 C 0.63384 0.43324 0.21928 0.0
C642 C 0.66013 0.44591 0.22433 0.0
H643 H 0.71244 0.46777 0.3122 0.0
H644 H 0.68291 0.45875 0.29516 0.0
H645 H 0.68872 0.43482 0.30995 0.0
H646 H 0.65973 0.40914 0.27615 0.0
H647 H 0.6141 0.38888 0.26886 0.0
H648 H 0.10514 0.56971 0.69317 0.0
H649 H 0.1076 0.56123 0.6459 0.0
H650 H 0.18799 0.61636 0.64569 0.0
H651 H 0.18571 0.62509 0.69313 0.0
H652 H 0.14131 0.60548 0.59599 0.0
H653 H 0.16526 0.53205 0.62977 0.0
H654 H 0.14391 0.53835 0.64928 0.0
H655 H 0.17705 0.56192 0.64733 0.0
C656 C 0.12315 0.58075 0.68283 0.0
C657 C 0.14521 0.59816 0.69685 0.0
C658 C 0.12455 0.57575 0.65589 0.0
C659 C 0.14801 0.58797 0.64251 0.0
C660 C 0.16972 0.60677 0.65578 0.0
H661 H 0.18457 0.54741 0.48751 0.0
H662 H 0.18655 0.55852 0.53488 0.0
C663 C 0.16831 0.61195 0.68279 0.0
C664 C 0.15003 0.57914 0.61557 0.0
H665 H 0.15806 0.53364 0.58374 0.0
C666 C 0.14517 0.58994 0.59323 0.0
C667 C 0.15523 0.55896 0.61216 0.0
C668 C 0.16073 0.54702 0.63579 0.0
C669 C 0.14488 0.5807 0.56746 0.0
C670 C 0.14897 0.55973 0.56409 0.0
C671 C 0.15466 0.54949 0.58641 0.0
C672 C 0.14678 0.54807 0.53747 0.0
C673 C 0.14022 0.59347 0.54398 0.0
C674 C 0.12342 0.53692 0.52383 0.0
C675 C 0.12222 0.53043 0.49695 0.0
C676 C 0.14432 0.53476 0.48325 0.0
C677 C 0.16714 0.54343 0.49765 0.0
C678 C 0.16836 0.5501 0.52462 0.0
H679 H 0.14398 0.61292 0.54908 0.0
H680 H 0.15244 0.59488 0.52679 0.0
H681 H 0.11998 0.58194 0.5377 0.0
H682 H 0.10643 0.53474 0.53354 0.0
H683 H 0.10442 0.52391 0.48632 0.0
H684 H 0.62505 0.19153 0.64455 0.0
H685 H 0.61653 0.19503 0.69161 0.0
H686 H 0.56603 0.11357 0.6952 0.0
H687 H 0.57392 0.11012 0.64802 0.0
H688 H 0.54245 0.13965 0.71001 0.0
H689 H 0.63482 0.17849 0.76362 0.0
H690 H 0.63576 0.19667 0.7349 0.0
H691 H 0.62993 0.16468 0.73074 0.0
C692 C 0.61308 0.17425 0.65572 0.0
C693 C 0.60027 0.15052 0.6427 0.0
C694 C 0.60809 0.17629 0.68262 0.0
C695 C 0.59059 0.15456 0.69697 0.0
C696 C 0.57951 0.1306 0.68451 0.0
H697 H 0.52298 0.11223 0.85012 0.0
H698 H 0.53284 0.11559 0.80251 0.0
C699 C 0.58423 0.1286 0.65763 0.0
C700 C 0.58138 0.15691 0.72372 0.0
H701 H 0.60009 0.17632 0.78782 0.0
C702 C 0.5551 0.14767 0.72701 0.0
C703 C 0.59789 0.1677 0.74582 0.0
C704 C 0.62614 0.17726 0.74376 0.0
C705 C 0.54483 0.14843 0.75185 0.0
C706 C 0.56123 0.15867 0.77402 0.0
C707 C 0.5876 0.16865 0.77066 0.0
C708 C 0.55119 0.15677 0.80138 0.0
C709 C 0.51647 0.13809 0.75431 0.0
C710 C 0.5575 0.17879 0.81632 0.0
C711 C 0.55138 0.17685 0.8435 0.0
C712 C 0.53938 0.1529 0.8561 0.0
C713 C 0.53186 0.13086 0.84074 0.0
C714 C 0.53759 0.13277 0.81359 0.0
H715 H 0.50751 0.13684 0.73461 0.0
H716 H 0.50742 0.11862 0.76298 0.0
H717 H 0.51242 0.15022 0.76776 0.0
H718 H 0.56816 0.19749 0.80724 0.0
H719 H 0.55795 0.19414 0.85505 0.0
H720 H 0.36377 0.56411 0.02965 0.0
H721 H 0.37241 0.57779 0.9829 0.0
H722 H 0.41926 0.54287 0.9754 0.0
H723 H 0.41115 0.52978 0.02211 0.0
H724 H 0.44499 0.59396 0.96309 0.0
H725 H 0.35234 0.54508 0.90912 0.0
H726 H 0.35259 0.56131 0.93922 0.0
H727 H 0.35696 0.53407 0.94098 0.0
C728 C 0.37488 0.55831 0.01762 0.0
C729 C 0.38657 0.54564 0.02938 0.0
C730 C 0.37998 0.56631 0.99094 0.0
C731 C 0.39655 0.56142 0.97561 0.0
C732 C 0.4065 0.54695 0.98683 0.0
H733 H 0.46685 0.58686 0.82443 0.0
H734 H 0.45603 0.5808 0.87181 0.0
C735 C 0.40164 0.53922 0.01344 0.0
C736 C 0.40608 0.57372 0.94917 0.0
H737 H 0.38814 0.57593 0.88507 0.0
C738 C 0.43251 0.59006 0.94607 0.0
C739 C 0.3898 0.56897 0.92705 0.0
C740 C 0.36136 0.55126 0.92906 0.0
C741 C 0.44315 0.60116 0.92134 0.0
C742 C 0.42701 0.59567 0.89901 0.0
C743 C 0.40048 0.58019 0.90228 0.0
C744 C 0.4374 0.60343 0.87163 0.0
C745 C 0.47166 0.61845 0.91923 0.0
C746 C 0.43122 0.61883 0.85593 0.0
C747 C 0.43787 0.62273 0.82883 0.0
C748 C 0.45032 0.61084 0.81703 0.0
C749 C 0.45768 0.59662 0.83316 0.0
C750 C 0.45139 0.59305 0.8602 0.0
H751 H 0.48032 0.6266 0.93891 0.0
H752 H 0.48039 0.60729 0.91176 0.0
H753 H 0.47647 0.63434 0.90505 0.0
H754 H 0.42028 0.62687 0.86433 0.0
H755 H 0.43136 0.63318 0.81669 0.0
H756 H 0.79483 0.3693 0.19034 0.0
H757 H 0.79126 0.37523 0.14237 0.0
H758 H 0.87295 0.41018 0.13443 0.0
H759 H 0.87654 0.40456 0.18218 0.0
H760 H 0.8173 0.42656 0.12141 0.0
H761 H 0.84503 0.36401 0.06768 0.0
H762 H 0.83333 0.35792 0.10158 0.0
H763 H 0.86594 0.38152 0.09475 0.0
C764 C 0.81182 0.37703 0.17804 0.0
C765 C 0.83593 0.38609 0.18977 0.0
C766 C 0.80981 0.38073 0.15075 0.0
C767 C 0.83184 0.39307 0.13484 0.0
C768 C 0.85568 0.40027 0.14622 0.0
H769 H 0.88331 0.46083 0.98152 0.0
H770 H 0.87861 0.44878 0.02856 0.0
C771 C 0.85772 0.39693 0.17347 0.0
C772 C 0.83066 0.40163 0.10743 0.0
H773 H 0.84764 0.39908 0.04314 0.0
C774 C 0.82354 0.42031 0.10416 0.0
C775 C 0.839 0.39357 0.08509 0.0
C776 C 0.84605 0.37298 0.08731 0.0
C777 C 0.82565 0.43199 0.07931 0.0
C778 C 0.83472 0.42444 0.05709 0.0
C779 C 0.84099 0.40511 0.06025 0.0
C780 C 0.83832 0.43641 0.03037 0.0
C781 C 0.81921 0.45303 0.07733 0.0
C782 C 0.81753 0.43469 0.01608 0.0
C783 C 0.82032 0.44208 0.98925 0.0
C784 C 0.84384 0.45087 0.9762 0.0
C785 C 0.86502 0.4543 0.9911 0.0
C786 C 0.86228 0.44718 0.01791 0.0
H787 H 0.81894 0.46097 0.09722 0.0
H788 H 0.83311 0.46878 0.06442 0.0
H789 H 0.79997 0.44527 0.06837 0.0
H790 H 0.79877 0.42606 0.02509 0.0
H791 H 0.80353 0.43865 0.97816 0.0
H792 H 0.36623 0.80141 0.14847 0.0
H793 H 0.37401 0.79753 0.19571 0.0
H794 H 0.42073 0.87939 0.2013 0.0
H795 H 0.41361 0.88323 0.15399 0.0
H796 H 0.44631 0.85533 0.21637 0.0
H797 H 0.35231 0.81084 0.26759 0.0
H798 H 0.35335 0.79391 0.23864 0.0
H799 H 0.35728 0.82524 0.23499 0.0
C800 C 0.37716 0.81862 0.16011 0.0
C801 C 0.38916 0.84265 0.14764 0.0
C802 C 0.38174 0.81638 0.18711 0.0
C803 C 0.39801 0.83818 0.20211 0.0
C804 C 0.4082 0.8623 0.19013 0.0
H805 H 0.4629 0.88207 0.35635 0.0
H806 H 0.45308 0.87831 0.30874 0.0
C807 C 0.40391 0.86451 0.16317 0.0
C808 C 0.40698 0.83596 0.22908 0.0
H809 H 0.38747 0.81523 0.29274 0.0
C810 C 0.43339 0.84654 0.23305 0.0
C811 C 0.39015 0.82417 0.25077 0.0
C812 C 0.36171 0.81307 0.24795 0.0
C813 C 0.44344 0.84617 0.25816 0.0
C814 C 0.4267 0.83501 0.27996 0.0
C815 C 0.40025 0.82365 0.2759 0.0
C816 C 0.43634 0.83727 0.3076 0.0
C817 C 0.47194 0.85794 0.26128 0.0
C818 C 0.43086 0.8155 0.32261 0.0
C819 C 0.43694 0.81769 0.34984 0.0
C820 C 0.44809 0.84162 0.36244 0.0
C821 C 0.45468 0.86346 0.34702 0.0
C822 C 0.44897 0.86131 0.31985 0.0
H823 H 0.48146 0.8596 0.24183 0.0
H824 H 0.47989 0.87739 0.26975 0.0
H825 H 0.47661 0.84652 0.27512 0.0
H826 H 0.42097 0.79676 0.31353 0.0
H827 H 0.43109 0.80051 0.3614 0.0
H828 H 0.52751 0.40271 0.3222 0.0
H829 H 0.54067 0.4081 0.36894 0.0
H830 H 0.58176 0.36807 0.35429 0.0
H831 H 0.56837 0.36239 0.30735 0.0
H832 H 0.53951 0.37305 0.41213 0.0
H833 H 0.63627 0.44463 0.37507 0.0
H834 H 0.60808 0.43365 0.35471 0.0
H835 H 0.62093 0.41308 0.36083 0.0
C836 C 0.53839 0.39406 0.32923 0.0
C837 C 0.54674 0.38195 0.31127 0.0
C838 C 0.54607 0.39733 0.35586 0.0
C839 C 0.56252 0.38886 0.36489 0.0
C840 C 0.56919 0.37488 0.34759 0.0
H841 H 0.63521 0.43112 0.52348 0.0
H842 H 0.6279 0.41615 0.477 0.0
C843 C 0.56121 0.37131 0.32092 0.0
C844 C 0.57463 0.39727 0.39142 0.0
H845 H 0.62952 0.44258 0.42142 0.0
C846 C 0.5593 0.38789 0.41423 0.0
C847 C 0.60046 0.41677 0.39402 0.0
C848 C 0.61751 0.42783 0.36994 0.0
C849 C 0.56892 0.39803 0.43954 0.0
C850 C 0.59434 0.41838 0.44197 0.0
C851 C 0.61005 0.42703 0.41938 0.0
C852 C 0.60379 0.43207 0.46759 0.0
C853 C 0.5516 0.38747 0.46349 0.0
C854 C 0.59392 0.44722 0.47699 0.0
C855 C 0.59816 0.45584 0.50329 0.0
C856 C 0.6125 0.44961 0.5206 0.0
C857 C 0.62452 0.43662 0.5104 0.0
C858 C 0.62012 0.42782 0.48399 0.0
H859 H 0.5347 0.3685 0.4593 0.0
H860 H 0.56206 0.38571 0.4808 0.0
H861 H 0.54471 0.40074 0.46916 0.0
H862 H 0.58143 0.45084 0.46452 0.0
H863 H 0.58851 0.46562 0.51072 0.0
H864 H 0.88476 0.36362 0.30336 0.0
H865 H 0.9244 0.36682 0.32014 0.0
H866 H 0.96706 0.44373 0.28988 0.0
H867 H 0.92812 0.44067 0.27278 0.0
H868 H 0.9918 0.41482 0.28266 0.0
H869 H 0.95757 0.41072 0.38692 0.0
H870 H 0.93891 0.38453 0.36474 0.0
H871 H 0.94125 0.41491 0.35899 0.0
C872 C 0.90266 0.38107 0.29995 0.0
C873 C 0.90321 0.40204 0.28708 0.0
C874 C 0.92524 0.38285 0.30959 0.0
C875 C 0.94857 0.40559 0.30647 0.0
C876 C 0.94925 0.42596 0.29244 0.0
H877 H 0.07058 0.51596 0.37645 0.0
H878 H 0.03111 0.4814 0.3585 0.0
C879 C 0.92687 0.42424 0.28286 0.0
C880 C 0.97216 0.40994 0.31988 0.0
H881 H 0.00145 0.42928 0.38029 0.0
C882 C 0.99392 0.41715 0.30412 0.0
C883 C 0.97471 0.41286 0.34789 0.0
C884 C 0.95197 0.40546 0.36577 0.0
C885 C 0.01844 0.42979 0.31533 0.0
C886 C 0.02104 0.43501 0.34294 0.0
C887 C -0.00078 0.42525 0.35908 0.0
C888 C 0.04534 0.45511 0.35426 0.0
C889 C 0.04143 0.43976 0.29731 0.0
C890 C 0.06647 0.45173 0.3577 0.0
C891 C 0.08932 0.47164 0.36796 0.0
C892 C 0.09124 0.49511 0.37494 0.0
C893 C 0.06988 0.49821 0.37138 0.0
C894 C 0.04722 0.47843 0.3612 0.0
H895 H 0.03606 0.43437 0.27613 0.0
H896 H 0.0528 0.46089 0.2987 0.0
H897 H 0.05383 0.43209 0.30382 0.0
H898 H 0.06526 0.43378 0.35251 0.0
H899 H 0.10538 0.46859 0.37051 0.0
H900 H 0.52485 0.88879 0.47123 0.0
H901 H 0.56207 0.92921 0.48509 0.0
H902 H 0.52221 0.96925 0.46417 0.0
H903 H 0.48543 0.92953 0.45011 0.0
H904 H 0.57529 0.99454 0.44856 0.0
H905 H 0.55872 0.96405 0.55523 0.0
H906 H 0.56321 0.94482 0.5308 0.0
H907 H 0.53453 0.94672 0.53044 0.0
C908 C 0.52415 0.90627 0.46934 0.0
C909 C 0.50201 0.90586 0.45984 0.0
C910 C 0.54542 0.9293 0.47726 0.0
C911 C 0.54478 0.95212 0.47573 0.0
C912 C 0.52312 0.95183 0.46536 0.0
H913 H 0.55107 0.07016 0.53992 0.0
H914 H 0.55002 0.03196 0.52342 0.0
C915 C 0.50198 0.929 0.45752 0.0
C916 C 0.5652 0.97631 0.487 0.0
H917 H 0.57977 0.00785 0.54636 0.0
C918 C 0.57729 -0.00251 0.46996 0.0
C919 C 0.56782 0.97995 0.51491 0.0
C920 C 0.55543 0.95779 0.53407 0.0
C921 C 0.58913 0.02241 0.48012 0.0
C922 C 0.58885 0.02596 0.5079 0.0
C923 C 0.57978 0.00488 0.52503 0.0
C924 C 0.59093 0.04959 0.51866 0.0
C925 C 0.59912 0.04464 0.46107 0.0
C926 C 0.6144 0.07221 0.52131 0.0
C927 C 0.61512 0.09436 0.53079 0.0
C928 C 0.59236 0.09406 0.53765 0.0
C929 C 0.56899 0.0712 0.53492 0.0
C930 C 0.56833 0.04926 0.52557 0.0
H931 H 0.5994 0.03879 0.44014 0.0
H932 H 0.58691 0.05354 0.46214 0.0
H933 H 0.61877 0.05935 0.46685 0.0
H934 H 0.63201 0.07272 0.51602 0.0
H935 H 0.63344 0.11166 0.53268 0.0
H936 H 0.51634 0.62962 0.68989 0.0
H937 H 0.54725 0.62072 0.6677 0.0
H938 H 0.52601 0.55683 0.72034 0.0
H939 H 0.49488 0.56522 0.74221 0.0
H940 H 0.58934 0.60914 0.68535 0.0
H941 H 0.50137 0.52879 0.64194 0.0
H942 H 0.5017 0.55565 0.65803 0.0
H943 H 0.50116 0.53053 0.67769 0.0
C944 C 0.51884 0.61416 0.69723 0.0
C945 C 0.50293 0.59779 0.71742 0.0
C946 C 0.53652 0.60916 0.68459 0.0
C947 C 0.53858 0.58798 0.69227 0.0
C948 C 0.52448 0.57317 0.71409 0.0
H949 H 0.62059 0.51288 0.65252 0.0
H950 H 0.61035 0.54473 0.66918 0.0
C951 C 0.50665 0.57791 0.72646 0.0
C952 C 0.55187 0.57856 0.67509 0.0
H953 H 0.53962 0.52758 0.63633 0.0
C954 C 0.57863 0.5915 0.67427 0.0
C955 C 0.53772 0.55591 0.66024 0.0
C956 C 0.5089 0.54199 0.65924 0.0
C957 C 0.59165 0.58154 0.65987 0.0
C958 C 0.57741 0.5579 0.64651 0.0
C959 C 0.55064 0.54571 0.6465 0.0
C960 C 0.58919 0.54406 0.63399 0.0
C961 C 0.62042 0.59636 0.6592 0.0
C962 C 0.58112 0.53336 0.60852 0.0
C963 C 0.58616 0.51453 0.59949 0.0
C964 C 0.59996 0.50663 0.61545 0.0
C965 C 0.61011 0.51894 0.63981 0.0
C966 C 0.60445 0.53731 0.64921 0.0
H967 H 0.62772 0.61717 0.66127 0.0
H968 H 0.62793 0.59037 0.67623 0.0
H969 H 0.62797 0.59294 0.64042 0.0
H970 H 0.56936 0.53826 0.59641 0.0
H971 H 0.57827 0.50529 0.58057 0.0
H972 H 0.10095 0.62824 0.78806 0.0
H973 H 0.06099 0.62534 0.80373 0.0
H974 H 0.03914 0.55268 0.84017 0.0
H975 H 0.07835 0.5551 0.82425 0.0
H976 H 0.00988 0.57872 0.78912 0.0
H977 H 0.02535 0.59642 0.89763 0.0
H978 H 0.05113 0.60986 0.87358 0.0
H979 H 0.03807 0.57738 0.88457 0.0
C980 C 0.08775 0.61187 0.79978 0.0
C981 C 0.09262 0.59181 0.80484 0.0
C982 C 0.06505 0.61029 0.8087 0.0
C983 C 0.04743 0.58898 0.82336 0.0
C984 C 0.05276 0.56946 0.82922 0.0
H985 H 0.91357 0.4732 0.85183 0.0
H986 H 0.95318 0.50935 0.83578 0.0
C987 C 0.07506 0.57077 0.81993 0.0
C988 C 0.02198 0.58495 0.83017 0.0
H989 H 0.98192 0.56626 0.88361 0.0
C990 C 0.00377 0.577 0.80973 0.0
C991 C 0.01417 0.58296 0.85701 0.0
C992 C 0.03326 0.59235 0.87949 0.0
C993 C 0.97763 0.56402 0.81568 0.0
C994 C 0.96983 0.55907 0.84259 0.0
C995 C 0.98803 0.56997 0.86296 0.0
C996 C 0.94438 0.53792 0.84975 0.0
C997 C 0.95854 0.55352 0.79324 0.0
C998 C 0.92636 0.54217 0.86286 0.0
C999 C 0.90344 0.52142 0.87184 0.0
C1000 C 0.8987 0.49631 0.8684 0.0
C1001 C 0.91673 0.49229 0.85491 0.0
C1002 C 0.93927 0.5129 0.84556 0.0
H1003 H 0.96651 0.56463 0.77459 0.0
H1004 H 0.9535 0.53348 0.78932 0.0
H1005 H 0.94078 0.55364 0.7986 0.0
H1006 H 0.93023 0.56143 0.8665 0.0
H1007 H 0.88988 0.52503 0.8823 0.0
H1008 H 0.46348 0.10398 0.96442 0.0
H1009 H 0.4276 0.06362 0.98053 0.0
H1010 H 0.46983 0.02533 0.9625 0.0
H1011 H 0.50524 0.06495 0.94611 0.0
H1012 H 0.41727 0.99714 0.9485 0.0
H1013 H 0.43336 0.03413 0.05283 0.0
H1014 H 0.42695 0.05088 0.02705 0.0
H1015 H 0.45665 0.05093 0.02707 0.0
C1016 C 0.46497 0.08687 0.96361 0.0
C1017 C 0.48739 0.08779 0.95426 0.0
C1018 C 0.44447 0.06388 0.97285 0.0
C1019 C 0.4462 0.0416 0.97287 0.0
C1020 C 0.46808 0.04232 0.96255 0.0
H1021 H 0.44009 0.92765 0.0523 0.0
H1022 H 0.44153 0.96546 0.03393 0.0
C1023 C 0.48843 0.0651 0.95335 0.0
C1024 C 0.4267 0.01771 0.98559 0.0
H1025 H 0.4125 0.98995 0.04704 0.0
C1026 C 0.41532 0.99547 0.97002 0.0
C1027 C 0.42415 0.01577 0.01365 0.0
C1028 C 0.4359 0.0391 0.03129 0.0
C1029 C 0.40416 0.97126 0.98189 0.0
C1030 C 0.40416 0.96946 0.00998 0.0
C1031 C 0.4127 0.99155 0.02549 0.0
C1032 C 0.40156 0.94642 0.0231 0.0
C1033 C 0.39502 0.94803 0.96436 0.0
C1034 C 0.37846 0.92318 0.02334 0.0
C1035 C 0.37756 0.90127 0.03378 0.0
C1036 C 0.39978 0.90239 0.04409 0.0
C1037 C 0.42264 0.92596 0.04442 0.0
C1038 C 0.42348 0.94769 0.03406 0.0
H1039 H 0.39739 0.95293 0.94281 0.0
H1040 H 0.40574 0.93802 0.96905 0.0
H1041 H 0.37451 0.93457 0.96828 0.0
H1042 H 0.36131 0.92192 0.0151 0.0
H1043 H 0.35962 0.88342 0.03333 0.0
H1044 H 0.35786 0.46743 0.1371 0.0
H1045 H 0.36147 0.43095 0.15289 0.0
H1046 H 0.44217 0.4722 0.13583 0.0
H1047 H 0.43881 0.50821 0.11973 0.0
H1048 H 0.4175 0.42023 0.12077 0.0
H1049 H 0.39518 0.43405 0.22532 0.0
H1050 H 0.37246 0.4286 0.19936 0.0
H1051 H 0.40235 0.45799 0.20012 0.0
C1052 C 0.37631 0.46859 0.13645 0.0
C1053 C 0.3981 0.4909 0.1274 0.0
C1054 C 0.37832 0.44775 0.14554 0.0
C1055 C 0.40212 0.449 0.14573 0.0
C1056 C 0.42359 0.47082 0.13577 0.0
H1057 H 0.50612 0.43707 0.22686 0.0
H1058 H 0.47003 0.4396 0.20957 0.0
C1059 C 0.42164 0.49151 0.12671 0.0
C1060 C 0.4059 0.42891 0.158 0.0
H1061 H 0.41724 0.41195 0.21911 0.0
C1062 C 0.41669 0.41758 0.14221 0.0
C1063 C 0.40457 0.42544 0.18595 0.0
C1064 C 0.3931 0.43714 0.20384 0.0
C1065 C 0.42898 0.40551 0.15383 0.0
C1066 C 0.42999 0.40442 0.18195 0.0
C1067 C 0.41647 0.41297 0.19756 0.0
C1068 C 0.4497 0.40066 0.19523 0.0
C1069 C 0.4431 0.39655 0.13608 0.0
C1070 C 0.45002 0.37766 0.19344 0.0
C1071 C 0.47096 0.37618 0.20318 0.0
C1072 C 0.49178 0.39767 0.2149 0.0
C1073 C 0.49062 0.42019 0.21777 0.0
C1074 C 0.46986 0.42164 0.20804 0.0
H1075 H 0.44184 0.40051 0.11467 0.0
H1076 H 0.46356 0.40604 0.14181 0.0
H1077 H 0.43495 0.37567 0.13853 0.0
H1078 H 0.43447 0.36115 0.18391 0.0
H1079 H 0.47116 0.35848 0.20083 0.0
H1080 H 0.1915 0.48207 0.36108 0.0
H1081 H 0.2108 0.47151 0.32349 0.0
H1082 H 0.23116 0.54369 0.28663 0.0
H1083 H 0.21123 0.55369 0.32306 0.0
H1084 H 0.21216 0.50746 0.25066 0.0
H1085 H 0.28497 0.49794 0.30939 0.0
H1086 H 0.2524 0.47641 0.3185 0.0
H1087 H 0.26588 0.51012 0.3238 0.0
C1088 C 0.20017 0.49562 0.34493 0.0
C1089 C 0.19983 0.5187 0.34507 0.0
C1090 C 0.21131 0.48965 0.32351 0.0
C1091 C 0.22274 0.50691 0.30223 0.0
C1092 C 0.2224 0.52993 0.30261 0.0
H1093 H 0.3449 0.54506 0.19848 0.0
H1094 H 0.31427 0.53506 0.23417 0.0
C1095 C 0.21102 0.53568 0.3236 0.0
C1096 C 0.23531 0.50173 0.27934 0.0
H1097 H 0.28615 0.49443 0.26297 0.0
C1098 C 0.2282 0.50434 0.25333 0.0
C1099 C 0.25622 0.49762 0.28278 0.0
C1100 C 0.26553 0.49555 0.31008 0.0
C1101 C 0.24232 0.50467 0.2309 0.0
C1102 C 0.2637 0.5013 0.23439 0.0
C1103 C 0.26979 0.49701 0.26025 0.0
C1104 C 0.28207 0.50575 0.21233 0.0
C1105 C 0.23519 0.5104 0.20397 0.0
C1106 C 0.27444 0.49245 0.18794 0.0
C1107 C 0.29206 0.49855 0.16702 0.0
C1108 C 0.3177 0.51766 0.17038 0.0
C1109 C 0.32534 0.53021 0.19511 0.0
C1110 C 0.30779 0.52443 0.21569 0.0
H1111 H 0.22182 0.51792 0.20565 0.0
H1112 H 0.25241 0.52457 0.19295 0.0
H1113 H 0.22564 0.4926 0.19203 0.0
H1114 H 0.25487 0.47751 0.18499 0.0
H1115 H 0.28564 0.48839 0.14829 0.0
H1116 H 0.77929 0.2937 0.31077 0.0
H1117 H 0.75649 0.26516 0.34831 0.0
H1118 H 0.78766 0.32965 0.40161 0.0
H1119 H 0.81022 0.35817 0.36446 0.0
H1120 H 0.77322 0.25735 0.40201 0.0
H1121 H 0.70839 0.29773 0.40488 0.0
H1122 H 0.72861 0.30187 0.37665 0.0
H1123 H 0.74188 0.32077 0.40616 0.0
C1124 C 0.78158 0.30172 0.33056 0.0
C1125 C 0.7963 0.32823 0.33457 0.0
C1126 C 0.76859 0.2854 0.35197 0.0
C1127 C 0.77016 0.29537 0.37765 0.0
C1128 C 0.78596 0.32162 0.3819 0.0
H1129 H 0.70377 0.21806 0.52955 0.0
H1130 H 0.73431 0.24211 0.49379 0.0
C1131 C 0.79884 0.33789 0.3606 0.0
C1132 C 0.75371 0.27886 0.39958 0.0
H1133 H 0.70361 0.26894 0.43912 0.0
C1134 C 0.75798 0.25981 0.41017 0.0
C1135 C 0.73373 0.28203 0.41001 0.0
C1136 C 0.72764 0.30154 0.39876 0.0
C1137 C 0.74284 0.24396 0.43114 0.0
C1138 C 0.72311 0.24743 0.44179 0.0
C1139 C 0.71886 0.26643 0.43106 0.0
C1140 C 0.70553 0.23081 0.46304 0.0
C1141 C 0.74765 0.22331 0.44139 0.0
C1142 C 0.67933 0.21645 0.45762 0.0
C1143 C 0.66198 0.20296 0.47789 0.0
C1144 C 0.67038 0.20354 0.50417 0.0
C1145 C 0.69673 0.21719 0.5095 0.0
C1146 C 0.71419 0.23083 0.48907 0.0
H1147 H 0.76017 0.21994 0.42779 0.0
H1148 H 0.7571 0.22902 0.46115 0.0
H1149 H 0.72937 0.20513 0.444 0.0
H1150 H 0.6722 0.21615 0.43772 0.0
H1151 H 0.64184 0.19253 0.47301 0.0
H1152 H 0.50717 0.70794 0.69485 0.0
H1153 H 0.51776 0.73823 0.65775 0.0
H1154 H 0.45277 0.68137 0.61383 0.0
H1155 H 0.44308 0.65104 0.64981 0.0
H1156 H 0.49084 0.70476 0.5814 0.0
H1157 H 0.4838 0.77833 0.64131 0.0
H1158 H 0.50799 0.77145 0.65217 0.0
H1159 H 0.47485 0.7473 0.65458 0.0
C1160 C 0.49527 0.702 0.6772 0.0
C1161 C 0.47426 0.67713 0.67531 0.0
C1162 C 0.50121 0.71936 0.65606 0.0
C1163 C 0.48583 0.71232 0.63302 0.0
C1164 C 0.46505 0.68738 0.63121 0.0
H1165 H 0.44298 0.79218 0.52835 0.0
H1166 H 0.45286 0.77128 0.56383 0.0
C1167 C 0.45946 0.67001 0.65194 0.0
C1168 C 0.49049 0.73056 0.61075 0.0
H1169 H 0.49147 0.78612 0.59559 0.0
C1170 C 0.49118 0.72268 0.58452 0.0
C1171 C 0.49098 0.75399 0.61473 0.0
C1172 C 0.48916 0.76325 0.64216 0.0
C1173 C 0.49064 0.73656 0.56226 0.0
C1174 C 0.49049 0.75967 0.56625 0.0
C1175 C 0.49155 0.76841 0.59247 0.0
C1176 C 0.48564 0.77322 0.5441 0.0
C1177 C 0.48849 0.72538 0.53483 0.0
C1178 C 0.50078 0.78152 0.52087 0.0
C1179 C 0.49475 0.79315 0.49999 0.0
C1180 C 0.47388 0.79723 0.50234 0.0
C1181 C 0.45928 0.78948 0.52586 0.0
C1182 C 0.46497 0.77753 0.54631 0.0
H1183 H 0.48311 0.70494 0.5357 0.0
H1184 H 0.47406 0.72704 0.52263 0.0
H1185 H 0.5072 0.73593 0.52457 0.0
H1186 H 0.51723 0.77904 0.51886 0.0
H1187 H 0.50647 0.79912 0.48221 0.0
H1188 H 0.79812 0.50518 0.85586 0.0
H1189 H 0.77926 0.51666 0.81863 0.0
H1190 H 0.76008 0.44578 0.77944 0.0
H1191 H 0.77968 0.43493 0.81556 0.0
H1192 H 0.77958 0.48312 0.74482 0.0
H1193 H 0.70535 0.49028 0.80349 0.0
H1194 H 0.73769 0.51173 0.81341 0.0
H1195 H 0.72438 0.4779 0.81761 0.0
C1196 C 0.78977 0.4921 0.83928 0.0
C1197 C 0.79037 0.46917 0.83863 0.0
C1198 C 0.7789 0.4986 0.81808 0.0
C1199 C 0.76795 0.48197 0.79625 0.0
C1200 C 0.76849 0.45905 0.79587 0.0
H1201 H 0.64779 0.44696 0.69078 0.0
H1202 H 0.67765 0.45586 0.72706 0.0
C1203 C 0.77966 0.45281 0.81665 0.0
C1204 C 0.75576 0.48778 0.77354 0.0
H1205 H 0.70515 0.49545 0.75721 0.0
C1206 C 0.76343 0.48606 0.74751 0.0
C1207 C 0.73473 0.49169 0.77704 0.0
C1208 C 0.72485 0.49282 0.80435 0.0
C1209 C 0.7497 0.48635 0.72503 0.0
C1210 C 0.72822 0.48954 0.72855 0.0
C1211 C 0.7216 0.493 0.75449 0.0
C1212 C 0.71031 0.48579 0.7063 0.0
C1213 C 0.75737 0.48146 0.69798 0.0
C1214 C 0.7185 0.49983 0.68239 0.0
C1215 C 0.70137 0.49434 0.66115 0.0
C1216 C 0.67567 0.47515 0.66376 0.0
C1217 C 0.66743 0.46189 0.68805 0.0
C1218 C 0.68452 0.46704 0.70894 0.0
H1219 H 0.77065 0.47382 0.69952 0.0
H1220 H 0.74037 0.46768 0.68641 0.0
H1221 H 0.76722 0.49963 0.68668 0.0
H1222 H 0.73812 0.51486 0.68005 0.0
H1223 H 0.70821 0.50504 0.64276 0.0
H1224 H 0.35422 0.80843 0.97546 0.0
H1225 H 0.32564 0.78651 0.93834 0.0
H1226 H 0.26119 0.75531 0.99184 0.0
H1227 H 0.28992 0.77771 0.0294 0.0
H1228 H 0.29667 0.73471 0.93496 0.0
H1229 H 0.23517 0.77856 0.92791 0.0
H1230 H 0.26502 0.79328 0.94596 0.0
H1231 H 0.23695 0.76723 0.96054 0.0
C1232 C 0.33393 0.79721 0.97939 0.0
C1233 C 0.32436 0.7947 0.00547 0.0
C1234 C 0.31759 0.78471 0.95807 0.0
C1235 C 0.29124 0.76937 0.96219 0.0
C1236 C 0.28141 0.76741 0.98807 0.0
H1237 H 0.18925 0.64181 0.86556 0.0
H1238 H 0.21296 0.67198 0.90097 0.0
C1239 C 0.29785 0.7801 0.00954 0.0
C1240 C 0.27477 0.75365 0.93977 0.0
H1241 H 0.2232 0.74161 0.90128 0.0
C1242 C 0.2807 0.73636 0.92755 0.0
C1243 C 0.25405 0.75593 0.92992 0.0
C1244 C 0.24747 0.7749 0.94155 0.0
C1245 C 0.26631 0.72103 0.90613 0.0
C1246 C 0.24515 0.72274 0.89676 0.0
C1247 C 0.2394 0.74032 0.90857 0.0
C1248 C 0.22828 0.7053 0.87562 0.0
C1249 C 0.27383 0.70303 0.89364 0.0
C1250 C 0.22834 0.71414 0.84968 0.0
C1251 C 0.21466 0.6968 0.82915 0.0
C1252 C 0.20082 0.67044 0.83439 0.0
C1253 C 0.19993 0.66194 0.86071 0.0
C1254 C 0.21345 0.67916 0.88105 0.0
H1255 H 0.29363 0.70808 0.899 0.0
H1256 H 0.26073 0.68335 0.90079 0.0
H1257 H 0.27228 0.70308 0.87158 0.0
H1258 H 0.2397 0.73429 0.84511 0.0
H1259 H 0.21568 0.70392 0.80912 0.0
H1260 H 0.5036 0.29017 0.19009 0.0
H1261 H 0.49513 0.26081 0.15263 0.0
H1262 H 0.53398 0.32484 0.09932 0.0
H1263 H 0.54255 0.35421 0.1364 0.0
H1264 H 0.47133 0.25713 0.09754 0.0
H1265 H 0.5737 0.28363 0.09761 0.0
H1266 H 0.55872 0.28934 0.12586 0.0
H1267 H 0.56735 0.30968 0.09712 0.0
C1268 C 0.51004 0.29797 0.17033 0.0
C1269 C 0.52398 0.32453 0.16628 0.0
C1270 C 0.50511 0.28118 0.14895 0.0
C1271 C 0.5141 0.2907 0.12329 0.0
C1272 C 0.52702 0.31714 0.11902 0.0
H1273 H 0.49959 0.21496 0.97021 0.0
H1274 H 0.49445 0.23949 0.0064 0.0
C1275 C 0.53192 0.33388 0.14028 0.0
C1276 C 0.51198 0.2733 0.10137 0.0
H1277 H 0.54797 0.2565 0.06319 0.0
C1278 C 0.48802 0.25691 0.08998 0.0
C1279 C 0.5338 0.27301 0.09171 0.0
C1280 C 0.55986 0.28969 0.10376 0.0
C1281 C 0.48542 0.24035 0.06893 0.0
C1282 C 0.50733 0.24032 0.05912 0.0
C1283 C 0.5312 0.25664 0.07066 0.0
C1284 C 0.50619 0.22286 0.03766 0.0
C1285 C 0.4593 0.22268 0.05765 0.0
C1286 C 0.51402 0.20511 0.04328 0.0
C1287 C 0.51707 0.19129 0.02279 0.0
C1288 C 0.51242 0.19492 0.99612 0.0
C1289 C 0.50318 0.21165 0.99057 0.0
C1290 C 0.5002 0.22563 0.01123 0.0
H1291 H 0.44387 0.22178 0.07045 0.0
H1292 H 0.45774 0.22957 0.03762 0.0
H1293 H 0.45633 0.20312 0.0553 0.0
H1294 H 0.51874 0.20266 0.06351 0.0
H1295 H 0.52406 0.17844 0.02778 0.0
loop_
_geom_bond_atom_site_label_1
_geom_bond_atom_site_label_2
_geom_bond_distance
_geom_bond_site_symmetry_2
_ccdc_geom_bond_type
Mn0 O5 2.095 . S
Mn0 O15 2.162 . S
Mn0 O16 2.297 . S
Mn0 O24 2.385 . S
Mn0 O25 2.209 . S
Mn0 O26 2.094 . S
Mn1 O6 2.121 . S
Mn1 N8 2.257 . S
Mn1 N17 2.282 . S
Mn1 O25 2.215 . S
Mn1 O27 2.117 . S
C2 O24 1.234 . S
C2 O25 1.283 . S
C3 O15 1.281 . S
C3 O16 1.236 . S
C4 O26 1.240 . S
C4 O27 1.264 . S
O5 Mn0 2.095 . S
O5 C14 1.250 . S
O6 Mn1 2.121 . S
O6 C14 1.258 . S
C7 N8 1.326 . S
C7 C11 1.460 . S
C7 H13 0.929 . S
N8 Mn1 2.257 . S
N8 C7 1.326 . S
N8 C12 1.362 . S
C9 C10 1.258 . S
C9 C12 1.431 . S
C9 C29 1.449 . S
C10 C9 1.258 . S
C10 C11 1.477 . S
C10 H30 0.931 . S
C11 C7 1.460 . S
C11 C10 1.477 . S
C11 H31 0.930 . S
C12 N8 1.362 . S
C12 C9 1.431 . S
C12 C22 1.476 . S
H13 C7 0.929 . S
C14 O5 1.250 . S
C14 O6 1.258 . S
O15 Mn0 2.162 . S
O15 C3 1.281 . S
O16 Mn0 2.297 . S
O16 C3 1.236 . S
N17 Mn1 2.282 . S
N17 C18 1.328 . S
N17 C22 1.318 . S
C18 N17 1.328 . S
C18 C19 1.457 . S
C18 H23 0.929 . S
C19 C18 1.457 . S
C19 C20 1.291 . S
C19 H32 0.931 . S
C20 C19 1.291 . S
C20 C21 1.373 . S
C20 H33 0.929 . S
C21 C20 1.373 . S
C21 C22 1.396 . S
C21 C28 1.403 . S
C22 C12 1.476 . S
C22 N17 1.318 . S
C22 C21 1.396 . S
H23 C18 0.929 . S
O24 Mn0 2.385 . S
O24 C2 1.234 . S
O25 Mn0 2.209 . S
O25 Mn1 2.215 . S
O25 C2 1.283 . S
O26 Mn0 2.094 . S
O26 C4 1.240 . S
O27 Mn1 2.117 . S
O27 C4 1.264 . S
C28 C21 1.403 . S
C28 C29 1.399 . S
C28 H34 0.929 . S
C29 C9 1.449 . S
C29 C28 1.399 . S
C29 H35 0.930 . S
H30 C10 0.931 . S
H31 C11 0.930 . S
H32 C19 0.931 . S
H33 C20 0.929 . S
H34 C28 0.929 . S
H35 C29 0.930 . S
Mn36 O41 2.095 . S
Mn36 O51 2.162 . S
Mn36 O52 2.297 . S
Mn36 O60 2.385 . S
Mn36 O61 2.209 . S
Mn36 O62 2.094 . S
Mn37 O42 2.121 . S
Mn37 N44 2.257 . S
Mn37 N53 2.282 . S
Mn37 O61 2.215 . S
Mn37 O63 2.117 . S
C38 O60 1.234 . S
C38 O61 1.283 . S
C39 O51 1.281 . S
C39 O52 1.236 . S
C40 O62 1.240 . S
C40 O63 1.264 . S
O41 Mn36 2.095 . S
O41 C50 1.250 . S
O42 Mn37 2.121 . S
O42 C50 1.258 . S
C43 N44 1.326 . S
C43 C47 1.460 . S
C43 H49 0.929 . S
N44 Mn37 2.257 . S
N44 C43 1.326 . S
N44 C48 1.362 . S
C45 C46 1.258 . S
C45 C48 1.431 . S
C45 C65 1.449 . S
C46 C45 1.258 . S
C46 C47 1.477 . S
C46 H66 0.931 . S
C47 C43 1.460 . S
C47 C46 1.477 . S
C47 H67 0.930 . S
C48 N44 1.362 . S
C48 C45 1.431 . S
C48 C58 1.476 . S
H49 C43 0.929 . S
C50 O41 1.250 . S
C50 O42 1.258 . S
O51 Mn36 2.162 . S
O51 C39 1.281 . S
O52 Mn36 2.297 . S
O52 C39 1.236 . S
N53 Mn37 2.282 . S
N53 C54 1.328 . S
N53 C58 1.318 . S
C54 N53 1.328 . S
C54 C55 1.457 . S
C54 H59 0.929 . S
C55 C54 1.457 . S
C55 C56 1.291 . S
C55 H68 0.931 . S
C56 C55 1.291 . S
C56 C57 1.373 . S
C56 H69 0.929 . S
C57 C56 1.373 . S
C57 C58 1.396 . S
C57 C64 1.403 . S
C58 C48 1.476 . S
C58 N53 1.318 . S
C58 C57 1.396 . S
H59 C54 0.929 . S
O60 Mn36 2.385 . S
O60 C38 1.234 . S
O61 Mn36 2.209 . S
O61 Mn37 2.215 . S
O61 C38 1.283 . S
O62 Mn36 2.094 . S
O62 C40 1.240 . S
O63 Mn37 2.117 . S
O63 C40 1.264 . S
C64 C57 1.403 . S
C64 C65 1.399 . S
C64 H70 0.929 . S
C65 C45 1.449 . S
C65 C64 1.399 . S
C65 H71 0.930 . S
H66 C46 0.931 . S
H67 C47 0.930 . S
H68 C55 0.931 . S
H69 C56 0.929 . S
H70 C64 0.929 . S
H71 C65 0.930 . S
Mn72 O77 2.095 . S
Mn72 O87 2.162 . S
Mn72 O88 2.297 . S
Mn72 O96 2.385 . S
Mn72 O97 2.209 . S
Mn72 O98 2.094 . S
Mn73 O78 2.121 . S
Mn73 N80 2.257 . S
Mn73 N89 2.282 . S
Mn73 O97 2.215 . S
Mn73 O99 2.117 . S
C74 O96 1.234 . S
C74 O97 1.283 . S
C75 O87 1.281 . S
C75 O88 1.236 . S
C76 O98 1.240 . S
C76 O99 1.264 . S
O77 Mn72 2.095 . S
O77 C86 1.250 . S
O78 Mn73 2.121 . S
O78 C86 1.258 . S
C79 N80 1.326 . S
C79 C83 1.460 . S
C79 H85 0.929 . S
N80 Mn73 2.257 . S
N80 C79 1.326 . S
N80 C84 1.362 . S
C81 C82 1.258 . S
C81 C84 1.431 . S
C81 C101 1.449 . S
C82 C81 1.258 . S
C82 C83 1.477 . S
C82 H102 0.931 . S
C83 C79 1.460 . S
C83 C82 1.477 . S
C83 H103 0.930 . S
C84 N80 1.362 . S
C84 C81 1.431 . S
C84 C94 1.476 . S
H85 C79 0.929 . S
C86 O77 1.250 . S
C86 O78 1.258 . S
O87 Mn72 2.162 . S
O87 C75 1.281 . S
O88 Mn72 2.297 . S
O88 C75 1.236 . S
N89 Mn73 2.282 . S
N89 C90 1.328 . S
N89 C94 1.318 . S
C90 N89 1.328 . S
C90 C91 1.457 . S
C90 H95 0.929 . S
C91 C90 1.457 . S
C91 C92 1.291 . S
C91 H104 0.931 . S
C92 C91 1.291 . S
C92 C93 1.373 . S
C92 H105 0.929 . S
C93 C92 1.373 . S
C93 C94 1.396 . S
C93 C100 1.403 . S
C94 C84 1.476 . S
C94 N89 1.318 . S
C94 C93 1.396 . S
H95 C90 0.929 . S
O96 Mn72 2.385 . S
O96 C74 1.234 . S
O97 Mn72 2.209 . S
O97 Mn73 2.215 . S
O97 C74 1.283 . S
O98 Mn72 2.094 . S
O98 C76 1.240 . S
O99 Mn73 2.117 . S
O99 C76 1.264 . S
C100 C93 1.403 . S
C100 C101 1.399 . S
C100 H106 0.929 . S
C101 C81 1.449 . S
C101 C100 1.399 . S
C101 H107 0.930 . S
H102 C82 0.931 . S
H103 C83 0.930 . S
H104 C91 0.931 . S
H105 C92 0.929 . S
H106 C100 0.929 . S
H107 C101 0.930 . S
Mn108 O113 2.095 . S
Mn108 O123 2.162 . S
Mn108 O124 2.297 . S
Mn108 O132 2.385 . S
Mn108 O133 2.209 . S
Mn108 O134 2.094 . S
Mn109 O114 2.121 . S
Mn109 N116 2.257 . S
Mn109 N125 2.282 . S
Mn109 O133 2.215 . S
Mn109 O135 2.117 . S
C110 O132 1.234 . S
C110 O133 1.283 . S
C111 O123 1.281 . S
C111 O124 1.236 . S
C112 O134 1.240 . S
C112 O135 1.264 . S
O113 Mn108 2.095 . S
O113 C122 1.250 . S
O114 Mn109 2.121 . S
O114 C122 1.258 . S
C115 N116 1.326 . S
C115 C119 1.460 . S
C115 H121 0.929 . S
N116 Mn109 2.257 . S
N116 C115 1.326 . S
N116 C120 1.362 . S
C117 C118 1.258 . S
C117 C120 1.431 . S
C117 C137 1.449 . S
C118 C117 1.258 . S
C118 C119 1.477 . S
C118 H138 0.931 . S
C119 C115 1.460 . S
C119 C118 1.477 . S
C119 H139 0.930 . S
C120 N116 1.362 . S
C120 C117 1.431 . S
C120 C130 1.476 . S
H121 C115 0.929 . S
C122 O113 1.250 . S
C122 O114 1.258 . S
O123 Mn108 2.162 . S
O123 C111 1.281 . S
O124 Mn108 2.297 . S
O124 C111 1.236 . S
N125 Mn109 2.282 . S
N125 C126 1.328 . S
N125 C130 1.318 . S
C126 N125 1.328 . S
C126 C127 1.457 . S
C126 H131 0.929 . S
C127 C126 1.457 . S
C127 C128 1.291 . S
C127 H140 0.931 . S
C128 C127 1.291 . S
C128 C129 1.373 . S
C128 H141 0.929 . S
C129 C128 1.373 . S
C129 C130 1.396 . S
C129 C136 1.403 . S
C130 C120 1.476 . S
C130 N125 1.318 . S
C130 C129 1.396 . S
H131 C126 0.929 . S
O132 Mn108 2.385 . S
O132 C110 1.234 . S
O133 Mn108 2.209 . S
O133 Mn109 2.215 . S
O133 C110 1.283 . S
O134 Mn108 2.094 . S
O134 C112 1.240 . S
O135 Mn109 2.117 . S
O135 C112 1.264 . S
C136 C129 1.403 . S
C136 C137 1.399 . S
C136 H142 0.929 . S
C137 C117 1.449 . S
C137 C136 1.399 . S
C137 H143 0.930 . S
H138 C118 0.931 . S
H139 C119 0.930 . S
H140 C127 0.931 . S
H141 C128 0.929 . S
H142 C136 0.929 . S
H143 C137 0.930 . S
Mn144 O149 2.095 . S
Mn144 O159 2.162 . S
Mn144 O160 2.297 . S
Mn144 O168 2.385 . S
Mn144 O169 2.209 . S
Mn144 O170 2.094 . S
Mn145 O150 2.121 . S
Mn145 N152 2.257 . S
Mn145 N161 2.282 . S
Mn145 O169 2.215 . S
Mn145 O171 2.117 . S
C146 O168 1.234 . S
C146 O169 1.283 . S
C147 O159 1.281 . S
C147 O160 1.236 . S
C148 O170 1.240 . S
C148 O171 1.264 . S
O149 Mn144 2.095 . S
O149 C158 1.250 . S
O150 Mn145 2.121 . S
O150 C158 1.258 . S
C151 N152 1.326 . S
C151 C155 1.460 . S
C151 H157 0.929 . S
N152 Mn145 2.257 . S
N152 C151 1.326 . S
N152 C156 1.362 . S
C153 C154 1.258 . S
C153 C156 1.431 . S
C153 C173 1.449 . S
C154 C153 1.258 . S
C154 C155 1.477 . S
C154 H174 0.931 . S
C155 C151 1.460 . S
C155 C154 1.477 . S
C155 H175 0.930 . S
C156 N152 1.362 . S
C156 C153 1.431 . S
C156 C166 1.476 . S
H157 C151 0.929 . S
C158 O149 1.250 . S
C158 O150 1.258 . S
O159 Mn144 2.162 . S
O159 C147 1.281 . S
O160 Mn144 2.297 . S
O160 C147 1.236 . S
N161 Mn145 2.282 . S
N161 C162 1.328 . S
N161 C166 1.318 . S
C162 N161 1.328 . S
C162 C163 1.457 . S
C162 H167 0.929 . S
C163 C162 1.457 . S
C163 C164 1.291 . S
C163 H176 0.931 . S
C164 C163 1.291 . S
C164 C165 1.373 . S
C164 H177 0.929 . S
C165 C164 1.373 . S
C165 C166 1.396 . S
C165 C172 1.403 . S
C166 C156 1.476 . S
C166 N161 1.318 . S
C166 C165 1.396 . S
H167 C162 0.929 . S
O168 Mn144 2.385 . S
O168 C146 1.234 . S
O169 Mn144 2.209 . S
O169 Mn145 2.215 . S
O169 C146 1.283 . S
O170 Mn144 2.094 . S
O170 C148 1.240 . S
O171 Mn145 2.117 . S
O171 C148 1.264 . S
C172 C165 1.403 . S
C172 C173 1.399 . S
C172 H178 0.929 . S
C173 C153 1.449 . S
C173 C172 1.399 . S
C173 H179 0.930 . S
H174 C154 0.931 . S
H175 C155 0.930 . S
H176 C163 0.931 . S
H177 C164 0.929 . S
H178 C172 0.929 . S
H179 C173 0.930 . S
Mn180 O185 2.095 . S
Mn180 O195 2.162 . S
Mn180 O196 2.297 . S
Mn180 O204 2.385 . S
Mn180 O205 2.209 . S
Mn180 O206 2.094 . S
Mn181 O186 2.121 . S
Mn181 N188 2.257 . S
Mn181 N197 2.282 . S
Mn181 O205 2.215 . S
Mn181 O207 2.117 . S
C182 O204 1.234 . S
C182 O205 1.283 . S
C183 O195 1.281 . S
C183 O196 1.236 . S
C184 O206 1.240 . S
C184 O207 1.264 . S
O185 Mn180 2.095 . S
O185 C194 1.250 . S
O186 Mn181 2.121 . S
O186 C194 1.258 . S
C187 N188 1.326 . S
C187 C191 1.460 . S
C187 H193 0.929 . S
N188 Mn181 2.257 . S
N188 C187 1.326 . S
N188 C192 1.362 . S
C189 C190 1.258 . S
C189 C192 1.431 . S
C189 C209 1.449 . S
C190 C189 1.258 . S
C190 C191 1.477 . S
C190 H210 0.931 . S
C191 C187 1.460 . S
C191 C190 1.477 . S
C191 H211 0.930 . S
C192 N188 1.362 . S
C192 C189 1.431 . S
C192 C202 1.476 . S
H193 C187 0.929 . S
C194 O185 1.250 . S
C194 O186 1.258 . S
O195 Mn180 2.162 . S
O195 C183 1.281 . S
O196 Mn180 2.297 . S
O196 C183 1.236 . S
N197 Mn181 2.282 . S
N197 C198 1.328 . S
N197 C202 1.318 . S
C198 N197 1.328 . S
C198 C199 1.457 . S
C198 H203 0.929 . S
C199 C198 1.457 . S
C199 C200 1.291 . S
C199 H212 0.931 . S
C200 C199 1.291 . S
C200 C201 1.373 . S
C200 H213 0.929 . S
C201 C200 1.373 . S
C201 C202 1.396 . S
C201 C208 1.403 . S
C202 C192 1.476 . S
C202 N197 1.318 . S
C202 C201 1.396 . S
H203 C198 0.929 . S
O204 Mn180 2.385 . S
O204 C182 1.234 . S
O205 Mn180 2.209 . S
O205 Mn181 2.215 . S
O205 C182 1.283 . S
O206 Mn180 2.094 . S
O206 C184 1.240 . S
O207 Mn181 2.117 . S
O207 C184 1.264 . S
C208 C201 1.403 . S
C208 C209 1.399 . S
C208 H214 0.929 . S
C209 C189 1.449 . S
C209 C208 1.399 . S
C209 H215 0.930 . S
H210 C190 0.931 . S
H211 C191 0.930 . S
H212 C199 0.931 . S
H213 C200 0.929 . S
H214 C208 0.929 . S
H215 C209 0.930 . S
Mn216 O221 2.095 . S
Mn216 O231 2.162 . S
Mn216 O232 2.297 . S
Mn216 O240 2.385 . S
Mn216 O241 2.209 . S
Mn216 O242 2.094 . S
Mn217 O222 2.121 . S
Mn217 N224 2.257 . S
Mn217 N233 2.282 . S
Mn217 O241 2.215 . S
Mn217 O243 2.117 . S
C218 O240 1.234 . S
C218 O241 1.283 . S
C219 O231 1.281 . S
C219 O232 1.236 . S
C220 O242 1.240 . S
C220 O243 1.264 . S
O221 Mn216 2.095 . S
O221 C230 1.250 . S
O222 Mn217 2.121 . S
O222 C230 1.258 . S
C223 N224 1.326 . S
C223 C227 1.460 . S
C223 H229 0.929 . S
N224 Mn217 2.257 . S
N224 C223 1.326 . S
N224 C228 1.362 . S
C225 C226 1.258 . S
C225 C228 1.431 . S
C225 C245 1.449 . S
C226 C225 1.258 . S
C226 C227 1.477 . S
C226 H246 0.931 . S
C227 C223 1.460 . S
C227 C226 1.477 . S
C227 H247 0.930 . S
C228 N224 1.362 . S
C228 C225 1.431 . S
C228 C238 1.476 . S
H229 C223 0.929 . S
C230 O221 1.250 . S
C230 O222 1.258 . S
O231 Mn216 2.162 . S
O231 C219 1.281 . S
O232 Mn216 2.297 . S
O232 C219 1.236 . S
N233 Mn217 2.282 . S
N233 C234 1.328 . S
N233 C238 1.318 . S
C234 N233 1.328 . S
C234 C235 1.457 . S
C234 H239 0.929 . S
C235 C234 1.457 . S
C235 C236 1.291 . S
C235 H248 0.931 . S
C236 C235 1.291 . S
C236 C237 1.373 . S
C236 H249 0.929 . S
C237 C236 1.373 . S
C237 C238 1.396 . S
C237 C244 1.403 . S
C238 C228 1.476 . S
C238 N233 1.318 . S
C238 C237 1.396 . S
H239 C234 0.929 . S
O240 Mn216 2.385 . S
O240 C218 1.234 . S
O241 Mn216 2.209 . S
O241 Mn217 2.215 . S
O241 C218 1.283 . S
O242 Mn216 2.094 . S
O242 C220 1.240 . S
O243 Mn217 2.117 . S
O243 C220 1.264 . S
C244 C237 1.403 . S
C244 C245 1.399 . S
C244 H250 0.929 . S
C245 C225 1.449 . S
C245 C244 1.399 . S
C245 H251 0.930 . S
H246 C226 0.931 . S
H247 C227 0.930 . S
H248 C235 0.931 . S
H249 C236 0.929 . S
H250 C244 0.929 . S
H251 C245 0.930 . S
Mn252 O257 2.095 . S
Mn252 O267 2.162 . S
Mn252 O268 2.297 . S
Mn252 O276 2.385 . S
Mn252 O277 2.209 . S
Mn252 O278 2.094 . S
Mn253 O258 2.121 . S
Mn253 N260 2.257 . S
Mn253 N269 2.282 . S
Mn253 O277 2.215 . S
Mn253 O279 2.117 . S
C254 O276 1.234 . S
C254 O277 1.283 . S
C255 O267 1.281 . S
C255 O268 1.236 . S
C256 O278 1.240 . S
C256 O279 1.264 . S
O257 Mn252 2.095 . S
O257 C266 1.250 . S
O258 Mn253 2.121 . S
O258 C266 1.258 . S
C259 N260 1.326 . S
C259 C263 1.460 . S
C259 H265 0.929 . S
N260 Mn253 2.257 . S
N260 C259 1.326 . S
N260 C264 1.362 . S
C261 C262 1.258 . S
C261 C264 1.431 . S
C261 C281 1.449 . S
C262 C261 1.258 . S
C262 C263 1.477 . S
C262 H282 0.931 . S
C263 C259 1.460 . S
C263 C262 1.477 . S
C263 H283 0.930 . S
C264 N260 1.362 . S
C264 C261 1.431 . S
C264 C274 1.476 . S
H265 C259 0.929 . S
C266 O257 1.250 . S
C266 O258 1.258 . S
O267 Mn252 2.162 . S
O267 C255 1.281 . S
O268 Mn252 2.297 . S
O268 C255 1.236 . S
N269 Mn253 2.282 . S
N269 C270 1.328 . S
N269 C274 1.318 . S
C270 N269 1.328 . S
C270 C271 1.457 . S
C270 H275 0.929 . S
C271 C270 1.457 . S
C271 C272 1.291 . S
C271 H284 0.931 . S
C272 C271 1.291 . S
C272 C273 1.373 . S
C272 H285 0.929 . S
C273 C272 1.373 . S
C273 C274 1.396 . S
C273 C280 1.403 . S
C274 C264 1.476 . S
C274 N269 1.318 . S
C274 C273 1.396 . S
H275 C270 0.929 . S
O276 Mn252 2.385 . S
O276 C254 1.234 . S
O277 Mn252 2.209 . S
O277 Mn253 2.215 . S
O277 C254 1.283 . S
O278 Mn252 2.094 . S
O278 C256 1.240 . S
O279 Mn253 2.117 . S
O279 C256 1.264 . S
C280 C273 1.403 . S
C280 C281 1.399 . S
C280 H286 0.929 . S
C281 C261 1.449 . S
C281 C280 1.399 . S
C281 H287 0.930 . S
H282 C262 0.931 . S
H283 C263 0.930 . S
H284 C271 0.931 . S
H285 C272 0.929 . S
H286 C280 0.929 . S
H287 C281 0.930 . S
Mn288 O293 2.095 . S
Mn288 O303 2.162 . S
Mn288 O304 2.297 . S
Mn288 O312 2.385 . S
Mn288 O313 2.209 . S
Mn288 O314 2.094 . S
Mn289 O294 2.121 . S
Mn289 N296 2.257 . S
Mn289 N305 2.282 . S
Mn289 O313 2.215 . S
Mn289 O315 2.117 . S
C290 O312 1.234 . S
C290 O313 1.283 . S
C291 O303 1.281 . S
C291 O304 1.236 . S
C292 O314 1.240 . S
C292 O315 1.264 . S
O293 Mn288 2.095 . S
O293 C302 1.250 . S
O294 Mn289 2.121 . S
O294 C302 1.258 . S
C295 N296 1.326 . S
C295 C299 1.460 . S
C295 H301 0.929 . S
N296 Mn289 2.257 . S
N296 C295 1.326 . S
N296 C300 1.362 . S
C297 C298 1.258 . S
C297 C300 1.431 . S
C297 C317 1.449 . S
C298 C297 1.258 . S
C298 C299 1.477 . S
C298 H318 0.931 . S
C299 C295 1.460 . S
C299 C298 1.477 . S
C299 H319 0.930 . S
C300 N296 1.362 . S
C300 C297 1.431 . S
C300 C310 1.476 . S
H301 C295 0.929 . S
C302 O293 1.250 . S
C302 O294 1.258 . S
O303 Mn288 2.162 . S
O303 C291 1.281 . S
O304 Mn288 2.297 . S
O304 C291 1.236 . S
N305 Mn289 2.282 . S
N305 C306 1.328 . S
N305 C310 1.318 . S
C306 N305 1.328 . S
C306 C307 1.457 . S
C306 H311 0.929 . S
C307 C306 1.457 . S
C307 C308 1.291 . S
C307 H320 0.931 . S
C308 C307 1.291 . S
C308 C309 1.373 . S
C308 H321 0.929 . S
C309 C308 1.373 . S
C309 C310 1.396 . S
C309 C316 1.403 . S
C310 C300 1.476 . S
C310 N305 1.318 . S
C310 C309 1.396 . S
H311 C306 0.929 . S
O312 Mn288 2.385 . S
O312 C290 1.234 . S
O313 Mn288 2.209 . S
O313 Mn289 2.215 . S
O313 C290 1.283 . S
O314 Mn288 2.094 . S
O314 C292 1.240 . S
O315 Mn289 2.117 . S
O315 C292 1.264 . S
C316 C309 1.403 . S
C316 C317 1.399 . S
C316 H322 0.929 . S
C317 C297 1.449 . S
C317 C316 1.399 . S
C317 H323 0.930 . S
H318 C298 0.931 . S
H319 C299 0.930 . S
H320 C307 0.931 . S
H321 C308 0.929 . S
H322 C316 0.929 . S
H323 C317 0.930 . S
Mn324 O329 2.095 . S
Mn324 O339 2.162 . S
Mn324 O340 2.297 . S
Mn324 O348 2.385 . S
Mn324 O349 2.209 . S
Mn324 O350 2.094 . S
Mn325 O330 2.121 . S
Mn325 N332 2.257 . S
Mn325 N341 2.282 . S
Mn325 O349 2.215 . S
Mn325 O351 2.117 . S
C326 O348 1.234 . S
C326 O349 1.283 . S
C327 O339 1.281 . S
C327 O340 1.236 . S
C328 O350 1.240 . S
C328 O351 1.264 . S
O329 Mn324 2.095 . S
O329 C338 1.250 . S
O330 Mn325 2.121 . S
O330 C338 1.258 . S
C331 N332 1.326 . S
C331 C335 1.460 . S
C331 H337 0.929 . S
N332 Mn325 2.257 . S
N332 C331 1.326 . S
N332 C336 1.362 . S
C333 C334 1.258 . S
C333 C336 1.431 . S
C333 C353 1.449 . S
C334 C333 1.258 . S
C334 C335 1.477 . S
C334 H354 0.931 . S
C335 C331 1.460 . S
C335 C334 1.477 . S
C335 H355 0.930 . S
C336 N332 1.362 . S
C336 C333 1.431 . S
C336 C346 1.476 . S
H337 C331 0.929 . S
C338 O329 1.250 . S
C338 O330 1.258 . S
O339 Mn324 2.162 . S
O339 C327 1.281 . S
O340 Mn324 2.297 . S
O340 C327 1.236 . S
N341 Mn325 2.282 . S
N341 C342 1.328 . S
N341 C346 1.318 . S
C342 N341 1.328 . S
C342 C343 1.457 . S
C342 H347 0.929 . S
C343 C342 1.457 . S
C343 C344 1.291 . S
C343 H356 0.931 . S
C344 C343 1.291 . S
C344 C345 1.373 . S
C344 H357 0.929 . S
C345 C344 1.373 . S
C345 C346 1.396 . S
C345 C352 1.403 . S
C346 C336 1.476 . S
C346 N341 1.318 . S
C346 C345 1.396 . S
H347 C342 0.929 . S
O348 Mn324 2.385 . S
O348 C326 1.234 . S
O349 Mn324 2.209 . S
O349 Mn325 2.215 . S
O349 C326 1.283 . S
O350 Mn324 2.094 . S
O350 C328 1.240 . S
O351 Mn325 2.117 . S
O351 C328 1.264 . S
C352 C345 1.403 . S
C352 C353 1.399 . S
C352 H358 0.929 . S
C353 C333 1.449 . S
C353 C352 1.399 . S
C353 H359 0.930 . S
H354 C334 0.931 . S
H355 C335 0.930 . S
H356 C343 0.931 . S
H357 C344 0.929 . S
H358 C352 0.929 . S
H359 C353 0.930 . S
Mn360 O365 2.095 . S
Mn360 O375 2.162 . S
Mn360 O376 2.297 . S
Mn360 O384 2.385 . S
Mn360 O385 2.209 . S
Mn360 O386 2.094 . S
Mn361 O366 2.121 . S
Mn361 N368 2.257 . S
Mn361 N377 2.282 . S
Mn361 O385 2.215 . S
Mn361 O387 2.117 . S
C362 O384 1.234 . S
C362 O385 1.283 . S
C363 O375 1.281 . S
C363 O376 1.236 . S
C364 O386 1.240 . S
C364 O387 1.264 . S
O365 Mn360 2.095 . S
O365 C374 1.250 . S
O366 Mn361 2.121 . S
O366 C374 1.258 . S
C367 N368 1.326 . S
C367 C371 1.460 . S
C367 H373 0.929 . S
N368 Mn361 2.257 . S
N368 C367 1.326 . S
N368 C372 1.362 . S
C369 C370 1.258 . S
C369 C372 1.431 . S
C369 C389 1.449 . S
C370 C369 1.258 . S
C370 C371 1.477 . S
C370 H390 0.931 . S
C371 C367 1.460 . S
C371 C370 1.477 . S
C371 H391 0.930 . S
C372 N368 1.362 . S
C372 C369 1.431 . S
C372 C382 1.476 . S
H373 C367 0.929 . S
C374 O365 1.250 . S
C374 O366 1.258 . S
O375 Mn360 2.162 . S
O375 C363 1.281 . S
O376 Mn360 2.297 . S
O376 C363 1.236 . S
N377 Mn361 2.282 . S
N377 C378 1.328 . S
N377 C382 1.318 . S
C378 N377 1.328 . S
C378 C379 1.457 . S
C378 H383 0.929 . S
C379 C378 1.457 . S
C379 C380 1.291 . S
C379 H392 0.931 . S
C380 C379 1.291 . S
C380 C381 1.373 . S
C380 H393 0.929 . S
C381 C380 1.373 . S
C381 C382 1.396 . S
C381 C388 1.403 . S
C382 C372 1.476 . S
C382 N377 1.318 . S
C382 C381 1.396 . S
H383 C378 0.929 . S
O384 Mn360 2.385 . S
O384 C362 1.234 . S
O385 Mn360 2.209 . S
O385 Mn361 2.215 . S
O385 C362 1.283 . S
O386 Mn360 2.094 . S
O386 C364 1.240 . S
O387 Mn361 2.117 . S
O387 C364 1.264 . S
C388 C381 1.403 . S
C388 C389 1.399 . S
C388 H394 0.929 . S
C389 C369 1.449 . S
C389 C388 1.399 . S
C389 H395 0.930 . S
H390 C370 0.931 . S
H391 C371 0.930 . S
H392 C379 0.931 . S
H393 C380 0.929 . S
H394 C388 0.929 . S
H395 C389 0.930 . S
Mn396 O401 2.095 . S
Mn396 O411 2.162 . S
Mn396 O412 2.297 . S
Mn396 O420 2.385 . S
Mn396 O421 2.209 . S
Mn396 O422 2.094 . S
Mn397 O402 2.121 . S
Mn397 N404 2.257 . S
Mn397 N413 2.282 . S
Mn397 O421 2.215 . S
Mn397 O423 2.117 . S
C398 O420 1.234 . S
C398 O421 1.283 . S
C399 O411 1.281 . S
C399 O412 1.236 . S
C400 O422 1.240 . S
C400 O423 1.264 . S
O401 Mn396 2.095 . S
O401 C410 1.250 . S
O402 Mn397 2.121 . S
O402 C410 1.258 . S
C403 N404 1.326 . S
C403 C407 1.460 . S
C403 H409 0.929 . S
N404 Mn397 2.257 . S
N404 C403 1.326 . S
N404 C408 1.362 . S
C405 C406 1.258 . S
C405 C408 1.431 . S
C405 C425 1.449 . S
C406 C405 1.258 . S
C406 C407 1.477 . S
C406 H426 0.931 . S
C407 C403 1.460 . S
C407 C406 1.477 . S
C407 H427 0.930 . S
C408 N404 1.362 . S
C408 C405 1.431 . S
C408 C418 1.476 . S
H409 C403 0.929 . S
C410 O401 1.250 . S
C410 O402 1.258 . S
O411 Mn396 2.162 . S
O411 C399 1.281 . S
O412 Mn396 2.297 . S
O412 C399 1.236 . S
N413 Mn397 2.282 . S
N413 C414 1.328 . S
N413 C418 1.318 . S
C414 N413 1.328 . S
C414 C415 1.457 . S
C414 H419 0.929 . S
C415 C414 1.457 . S
C415 C416 1.291 . S
C415 H428 0.931 . S
C416 C415 1.291 . S
C416 C417 1.373 . S
C416 H429 0.929 . S
C417 C416 1.373 . S
C417 C418 1.396 . S
C417 C424 1.403 . S
C418 C408 1.476 . S
C418 N413 1.318 . S
C418 C417 1.396 . S
H419 C414 0.929 . S
O420 Mn396 2.385 . S
O420 C398 1.234 . S
O421 Mn396 2.209 . S
O421 Mn397 2.215 . S
O421 C398 1.283 . S
O422 Mn396 2.094 . S
O422 C400 1.240 . S
O423 Mn397 2.117 . S
O423 C400 1.264 . S
C424 C417 1.403 . S
C424 C425 1.399 . S
C424 H430 0.929 . S
C425 C405 1.449 . S
C425 C424 1.399 . S
C425 H431 0.930 . S
H426 C406 0.931 . S
H427 C407 0.930 . S
H428 C415 0.931 . S
H429 C416 0.929 . S
H430 C424 0.929 . S
H431 C425 0.930 . S
H432 C440 0.929 . S
H433 C442 0.930 . S
H434 C444 0.930 . S
H435 C447 0.929 . S
H436 C450 0.930 . S
H437 C452 0.960 . S
H438 C452 0.960 . S
H439 C452 0.960 . S
C440 H432 0.929 . S
C440 C441 1.377 . S
C440 C442 1.384 . S
C441 C440 1.377 . S
C441 C447 1.390 . S
C442 H433 0.930 . S
C442 C440 1.384 . S
C442 C443 1.372 . S
C443 C442 1.372 . S
C443 C444 1.400 . S
C443 C448 1.490 . S
C444 H434 0.930 . S
C444 C443 1.400 . S
C444 C447 1.386 . S
H445 C461 0.930 . S
H446 C462 0.931 . S
C447 H435 0.929 . S
C447 C441 1.390 . S
C447 C444 1.386 . S
C448 C443 1.490 . S
C448 C450 1.395 . S
C448 C451 1.403 . S
H449 C455 0.930 . S
C450 H436 0.930 . S
C450 C448 1.395 . S
C450 C453 1.403 . S
C451 C448 1.403 . S
C451 C452 1.524 . S
C451 C455 1.400 . S
C452 H437 0.960 . S
C452 H438 0.960 . S
C452 H439 0.960 . S
C452 C451 1.524 . S
C453 C450 1.403 . S
C453 C454 1.392 . S
C453 C457 1.495 . S
C454 C453 1.392 . S
C454 C455 1.385 . S
C454 C456 1.478 . S
C455 H449 0.930 . S
C455 C451 1.400 . S
C455 C454 1.385 . S
C456 C454 1.478 . S
C456 C458 1.381 . S
C456 C462 1.383 . S
C457 C453 1.495 . S
C457 H463 0.959 . S
C457 H464 0.961 . S
C457 H465 0.960 . S
C458 C456 1.381 . S
C458 C459 1.394 . S
C458 H466 0.930 . S
C459 C458 1.394 . S
C459 C460 1.383 . S
C459 H467 0.929 . S
C460 C459 1.383 . S
C460 C461 1.377 . S
C461 H445 0.930 . S
C461 C460 1.377 . S
C461 C462 1.379 . S
C462 H446 0.931 . S
C462 C456 1.383 . S
C462 C461 1.379 . S
H463 C457 0.959 . S
H464 C457 0.961 . S
H465 C457 0.960 . S
H466 C458 0.930 . S
H467 C459 0.929 . S
H468 C476 0.929 . S
H469 C478 0.930 . S
H470 C480 0.930 . S
H471 C483 0.929 . S
H472 C486 0.930 . S
H473 C488 0.960 . S
H474 C488 0.960 . S
H475 C488 0.960 . S
C476 H468 0.929 . S
C476 C477 1.377 . S
C476 C478 1.384 . S
C477 C476 1.377 . S
C477 C483 1.390 . S
C478 H469 0.930 . S
C478 C476 1.384 . S
C478 C479 1.372 . S
C479 C478 1.372 . S
C479 C480 1.400 . S
C479 C484 1.490 . S
C480 H470 0.930 . S
C480 C479 1.400 . S
C480 C483 1.386 . S
H481 C497 0.930 . S
H482 C498 0.931 . S
C483 H471 0.929 . S
C483 C477 1.390 . S
C483 C480 1.386 . S
C484 C479 1.490 . S
C484 C486 1.395 . S
C484 C487 1.403 . S
H485 C491 0.930 . S
C486 H472 0.930 . S
C486 C484 1.395 . S
C486 C489 1.403 . S
C487 C484 1.403 . S
C487 C488 1.524 . S
C487 C491 1.400 . S
C488 H473 0.960 . S
C488 H474 0.960 . S
C488 H475 0.960 . S
C488 C487 1.524 . S
C489 C486 1.403 . S
C489 C490 1.392 . S
C489 C493 1.495 . S
C490 C489 1.392 . S
C490 C491 1.385 . S
C490 C492 1.478 . S
C491 H485 0.930 . S
C491 C487 1.400 . S
C491 C490 1.385 . S
C492 C490 1.478 . S
C492 C494 1.381 . S
C492 C498 1.383 . S
C493 C489 1.495 . S
C493 H499 0.959 . S
C493 H500 0.961 . S
C493 H501 0.960 . S
C494 C492 1.381 . S
C494 C495 1.394 . S
C494 H502 0.930 . S
C495 C494 1.394 . S
C495 C496 1.383 . S
C495 H503 0.929 . S
C496 C495 1.383 . S
C496 C497 1.377 . S
C497 H481 0.930 . S
C497 C496 1.377 . S
C497 C498 1.379 . S
C498 H482 0.931 . S
C498 C492 1.383 . S
C498 C497 1.379 . S
H499 C493 0.959 . S
H500 C493 0.961 . S
H501 C493 0.960 . S
H502 C494 0.930 . S
H503 C495 0.929 . S
H504 C512 0.929 . S
H505 C514 0.930 . S
H506 C516 0.930 . S
H507 C519 0.929 . S
H508 C522 0.930 . S
H509 C524 0.960 . S
H510 C524 0.960 . S
H511 C524 0.960 . S
C512 H504 0.929 . S
C512 C513 1.377 . S
C512 C514 1.384 . S
C513 C512 1.377 . S
C513 C519 1.390 . S
C514 H505 0.930 . S
C514 C512 1.384 . S
C514 C515 1.372 . S
C515 C514 1.372 . S
C515 C516 1.400 . S
C515 C520 1.490 . S
C516 H506 0.930 . S
C516 C515 1.400 . S
C516 C519 1.386 . S
H517 C533 0.930 . S
H518 C534 0.931 . S
C519 H507 0.929 . S
C519 C513 1.390 . S
C519 C516 1.386 . S
C520 C515 1.490 . S
C520 C522 1.395 . S
C520 C523 1.403 . S
H521 C527 0.930 . S
C522 H508 0.930 . S
C522 C520 1.395 . S
C522 C525 1.403 . S
C523 C520 1.403 . S
C523 C524 1.524 . S
C523 C527 1.400 . S
C524 H509 0.960 . S
C524 H510 0.960 . S
C524 H511 0.960 . S
C524 C523 1.524 . S
C525 C522 1.403 . S
C525 C526 1.392 . S
C525 C529 1.495 . S
C526 C525 1.392 . S
C526 C527 1.385 . S
C526 C528 1.478 . S
C527 H521 0.930 . S
C527 C523 1.400 . S
C527 C526 1.385 . S
C528 C526 1.478 . S
C528 C530 1.381 . S
C528 C534 1.383 . S
C529 C525 1.495 . S
C529 H535 0.959 . S
C529 H536 0.961 . S
C529 H537 0.960 . S
C530 C528 1.381 . S
C530 C531 1.394 . S
C530 H538 0.930 . S
C531 C530 1.394 . S
C531 C532 1.383 . S
C531 H539 0.929 . S
C532 C531 1.383 . S
C532 C533 1.377 . S
C533 H517 0.930 . S
C533 C532 1.377 . S
C533 C534 1.379 . S
C534 H518 0.931 . S
C534 C528 1.383 . S
C534 C533 1.379 . S
H535 C529 0.959 . S
H536 C529 0.961 . S
H537 C529 0.960 . S
H538 C530 0.930 . S
H539 C531 0.929 . S
H540 C548 0.929 . S
H541 C550 0.930 . S
H542 C552 0.930 . S
H543 C555 0.929 . S
H544 C558 0.930 . S
H545 C560 0.960 . S
H546 C560 0.960 . S
H547 C560 0.960 . S
C548 H540 0.929 . S
C548 C549 1.377 . S
C548 C550 1.384 . S
C549 C548 1.377 . S
C549 C555 1.390 . S
C550 H541 0.930 . S
C550 C548 1.384 . S
C550 C551 1.372 . S
C551 C550 1.372 . S
C551 C552 1.400 . S
C551 C556 1.490 . S
C552 H542 0.930 . S
C552 C551 1.400 . S
C552 C555 1.386 . S
H553 C569 0.930 . S
H554 C570 0.931 . S
C555 H543 0.929 . S
C555 C549 1.390 . S
C555 C552 1.386 . S
C556 C551 1.490 . S
C556 C558 1.395 . S
C556 C559 1.403 . S
H557 C563 0.930 . S
C558 H544 0.930 . S
C558 C556 1.395 . S
C558 C561 1.403 . S
C559 C556 1.403 . S
C559 C560 1.524 . S
C559 C563 1.400 . S
C560 H545 0.960 . S
C560 H546 0.960 . S
C560 H547 0.960 . S
C560 C559 1.524 . S
C561 C558 1.403 . S
C561 C562 1.392 . S
C561 C565 1.495 . S
C562 C561 1.392 . S
C562 C563 1.385 . S
C562 C564 1.478 . S
C563 H557 0.930 . S
C563 C559 1.400 . S
C563 C562 1.385 . S
C564 C562 1.478 . S
C564 C566 1.381 . S
C564 C570 1.383 . S
C565 C561 1.495 . S
C565 H571 0.959 . S
C565 H572 0.961 . S
C565 H573 0.960 . S
C566 C564 1.381 . S
C566 C567 1.394 . S
C566 H574 0.930 . S
C567 C566 1.394 . S
C567 C568 1.383 . S
C567 H575 0.929 . S
C568 C567 1.383 . S
C568 C569 1.377 . S
C569 H553 0.930 . S
C569 C568 1.377 . S
C569 C570 1.379 . S
C570 H554 0.931 . S
C570 C564 1.383 . S
C570 C569 1.379 . S
H571 C565 0.959 . S
H572 C565 0.961 . S
H573 C565 0.960 . S
H574 C566 0.930 . S
H575 C567 0.929 . S
H576 C584 0.929 . S
H577 C586 0.930 . S
H578 C588 0.930 . S
H579 C591 0.929 . S
H580 C594 0.930 . S
H581 C596 0.960 . S
H582 C596 0.960 . S
H583 C596 0.960 . S
C584 H576 0.929 . S
C584 C585 1.377 . S
C584 C586 1.384 . S
C585 C584 1.377 . S
C585 C591 1.390 . S
C586 H577 0.930 . S
C586 C584 1.384 . S
C586 C587 1.372 . S
C587 C586 1.372 . S
C587 C588 1.400 . S
C587 C592 1.490 . S
C588 H578 0.930 . S
C588 C587 1.400 . S
C588 C591 1.386 . S
H589 C605 0.930 . S
H590 C606 0.931 . S
C591 H579 0.929 . S
C591 C585 1.390 . S
C591 C588 1.386 . S
C592 C587 1.490 . S
C592 C594 1.395 . S
C592 C595 1.403 . S
H593 C599 0.930 . S
C594 H580 0.930 . S
C594 C592 1.395 . S
C594 C597 1.403 . S
C595 C592 1.403 . S
C595 C596 1.524 . S
C595 C599 1.400 . S
C596 H581 0.960 . S
C596 H582 0.960 . S
C596 H583 0.960 . S
C596 C595 1.524 . S
C597 C594 1.403 . S
C597 C598 1.392 . S
C597 C601 1.495 . S
C598 C597 1.392 . S
C598 C599 1.385 . S
C598 C600 1.478 . S
C599 H593 0.930 . S
C599 C595 1.400 . S
C599 C598 1.385 . S
C600 C598 1.478 . S
C600 C602 1.381 . S
C600 C606 1.383 . S
C601 C597 1.495 . S
C601 H607 0.959 . S
C601 H608 0.961 . S
C601 H609 0.960 . S
C602 C600 1.381 . S
C602 C603 1.394 . S
C602 H610 0.930 . S
C603 C602 1.394 . S
C603 C604 1.383 . S
C603 H611 0.929 . S
C604 C603 1.383 . S
C604 C605 1.377 . S
C605 H589 0.930 . S
C605 C604 1.377 . S
C605 C606 1.379 . S
C606 H590 0.931 . S
C606 C600 1.383 . S
C606 C605 1.379 . S
H607 C601 0.959 . S
H608 C601 0.961 . S
H609 C601 0.960 . S
H610 C602 0.930 . S
H611 C603 0.929 . S
H612 C620 0.929 . S
H613 C622 0.930 . S
H614 C624 0.930 . S
H615 C627 0.929 . S
H616 C630 0.930 . S
H617 C632 0.960 . S
H618 C632 0.960 . S
H619 C632 0.960 . S
C620 H612 0.929 . S
C620 C621 1.377 . S
C620 C622 1.384 . S
C621 C620 1.377 . S
C621 C627 1.390 . S
C622 H613 0.930 . S
C622 C620 1.384 . S
C622 C623 1.372 . S
C623 C622 1.372 . S
C623 C624 1.400 . S
C623 C628 1.490 . S
C624 H614 0.930 . S
C624 C623 1.400 . S
C624 C627 1.386 . S
H625 C641 0.930 . S
H626 C642 0.931 . S
C627 H615 0.929 . S
C627 C621 1.390 . S
C627 C624 1.386 . S
C628 C623 1.490 . S
C628 C630 1.395 . S
C628 C631 1.403 . S
H629 C635 0.930 . S
C630 H616 0.930 . S
C630 C628 1.395 . S
C630 C633 1.403 . S
C631 C628 1.403 . S
C631 C632 1.524 . S
C631 C635 1.400 . S
C632 H617 0.960 . S
C632 H618 0.960 . S
C632 H619 0.960 . S
C632 C631 1.524 . S
C633 C630 1.403 . S
C633 C634 1.392 . S
C633 C637 1.495 . S
C634 C633 1.392 . S
C634 C635 1.385 . S
C634 C636 1.478 . S
C635 H629 0.930 . S
C635 C631 1.400 . S
C635 C634 1.385 . S
C636 C634 1.478 . S
C636 C638 1.381 . S
C636 C642 1.383 . S
C637 C633 1.495 . S
C637 H643 0.959 . S
C637 H644 0.961 . S
C637 H645 0.960 . S
C638 C636 1.381 . S
C638 C639 1.394 . S
C638 H646 0.930 . S
C639 C638 1.394 . S
C639 C640 1.383 . S
C639 H647 0.929 . S
C640 C639 1.383 . S
C640 C641 1.377 . S
C641 H625 0.930 . S
C641 C640 1.377 . S
C641 C642 1.379 . S
C642 H626 0.931 . S
C642 C636 1.383 . S
C642 C641 1.379 . S
H643 C637 0.959 . S
H644 C637 0.961 . S
H645 C637 0.960 . S
H646 C638 0.930 . S
H647 C639 0.929 . S
H648 C656 0.929 . S
H649 C658 0.930 . S
H650 C660 0.930 . S
H651 C663 0.929 . S
H652 C666 0.930 . S
H653 C668 0.960 . S
H654 C668 0.960 . S
H655 C668 0.960 . S
C656 H648 0.929 . S
C656 C657 1.377 . S
C656 C658 1.384 . S
C657 C656 1.377 . S
C657 C663 1.390 . S
C658 H649 0.930 . S
C658 C656 1.384 . S
C658 C659 1.372 . S
C659 C658 1.372 . S
C659 C660 1.400 . S
C659 C664 1.490 . S
C660 H650 0.930 . S
C660 C659 1.400 . S
C660 C663 1.386 . S
H661 C677 0.930 . S
H662 C678 0.931 . S
C663 H651 0.929 . S
C663 C657 1.390 . S
C663 C660 1.386 . S
C664 C659 1.490 . S
C664 C666 1.395 . S
C664 C667 1.403 . S
H665 C671 0.930 . S
C666 H652 0.930 . S
C666 C664 1.395 . S
C666 C669 1.403 . S
C667 C664 1.403 . S
C667 C668 1.524 . S
C667 C671 1.400 . S
C668 H653 0.960 . S
C668 H654 0.960 . S
C668 H655 0.960 . S
C668 C667 1.524 . S
C669 C666 1.403 . S
C669 C670 1.392 . S
C669 C673 1.495 . S
C670 C669 1.392 . S
C670 C671 1.385 . S
C670 C672 1.478 . S
C671 H665 0.930 . S
C671 C667 1.400 . S
C671 C670 1.385 . S
C672 C670 1.478 . S
C672 C674 1.381 . S
C672 C678 1.383 . S
C673 C669 1.495 . S
C673 H679 0.959 . S
C673 H680 0.961 . S
C673 H681 0.960 . S
C674 C672 1.381 . S
C674 C675 1.394 . S
C674 H682 0.930 . S
C675 C674 1.394 . S
C675 C676 1.383 . S
C675 H683 0.929 . S
C676 C675 1.383 . S
C676 C677 1.377 . S
C677 H661 0.930 . S
C677 C676 1.377 . S
C677 C678 1.379 . S
C678 H662 0.931 . S
C678 C672 1.383 . S
C678 C677 1.379 . S
H679 C673 0.959 . S
H680 C673 0.961 . S
H681 C673 0.960 . S
H682 C674 0.930 . S
H683 C675 0.929 . S
H684 C692 0.929 . S
H685 C694 0.930 . S
H686 C696 0.930 . S
H687 C699 0.929 . S
H688 C702 0.930 . S
H689 C704 0.960 . S
H690 C704 0.960 . S
H691 C704 0.960 . S
C692 H684 0.929 . S
C692 C693 1.377 . S
C692 C694 1.384 . S
C693 C692 1.377 . S
C693 C699 1.390 . S
C694 H685 0.930 . S
C694 C692 1.384 . S
C694 C695 1.372 . S
C695 C694 1.372 . S
C695 C696 1.400 . S
C695 C700 1.490 . S
C696 H686 0.930 . S
C696 C695 1.400 . S
C696 C699 1.386 . S
H697 C713 0.930 . S
H698 C714 0.931 . S
C699 H687 0.929 . S
C699 C693 1.390 . S
C699 C696 1.386 . S
C700 C695 1.490 . S
C700 C702 1.395 . S
C700 C703 1.403 . S
H701 C707 0.930 . S
C702 H688 0.930 . S
C702 C700 1.395 . S
C702 C705 1.403 . S
C703 C700 1.403 . S
C703 C704 1.524 . S
C703 C707 1.400 . S
C704 H689 0.960 . S
C704 H690 0.960 . S
C704 H691 0.960 . S
C704 C703 1.524 . S
C705 C702 1.403 . S
C705 C706 1.392 . S
C705 C709 1.495 . S
C706 C705 1.392 . S
C706 C707 1.385 . S
C706 C708 1.478 . S
C707 H701 0.930 . S
C707 C703 1.400 . S
C707 C706 1.385 . S
C708 C706 1.478 . S
C708 C710 1.381 . S
C708 C714 1.383 . S
C709 C705 1.495 . S
C709 H715 0.959 . S
C709 H716 0.961 . S
C709 H717 0.960 . S
C710 C708 1.381 . S
C710 C711 1.394 . S
C710 H718 0.930 . S
C711 C710 1.394 . S
C711 C712 1.383 . S
C711 H719 0.929 . S
C712 C711 1.383 . S
C712 C713 1.377 . S
C713 H697 0.930 . S
C713 C712 1.377 . S
C713 C714 1.379 . S
C714 H698 0.931 . S
C714 C708 1.383 . S
C714 C713 1.379 . S
H715 C709 0.959 . S
H716 C709 0.961 . S
H717 C709 0.960 . S
H718 C710 0.930 . S
H719 C711 0.929 . S
H720 C728 0.929 . S
H721 C730 0.930 . S
H722 C732 0.930 . S
H723 C735 0.929 . S
H724 C738 0.930 . S
H725 C740 0.960 . S
H726 C740 0.960 . S
H727 C740 0.960 . S
C728 H720 0.929 . S
C728 C729 1.377 . S
C728 C730 1.384 1_554 S
C729 C728 1.377 . S
C729 C735 1.390 . S
C730 H721 0.930 . S
C730 C728 1.384 1_556 S
C730 C731 1.372 . S
C731 C730 1.372 . S
C731 C732 1.400 . S
C731 C736 1.490 . S
C732 H722 0.930 . S
C732 C731 1.400 . S
C732 C735 1.386 1_556 S
H733 C749 0.930 . S
H734 C750 0.931 . S
C735 H723 0.929 . S
C735 C729 1.390 . S
C735 C732 1.386 1_554 S
C736 C731 1.490 . S
C736 C738 1.395 . S
C736 C739 1.403 . S
H737 C743 0.930 . S
C738 H724 0.930 . S
C738 C736 1.395 . S
C738 C741 1.403 . S
C739 C736 1.403 . S
C739 C740 1.524 . S
C739 C743 1.400 . S
C740 H725 0.960 . S
C740 H726 0.960 . S
C740 H727 0.960 . S
C740 C739 1.524 . S
C741 C738 1.403 . S
C741 C742 1.392 . S
C741 C745 1.495 . S
C742 C741 1.392 . S
C742 C743 1.385 . S
C742 C744 1.478 . S
C743 H737 0.930 . S
C743 C739 1.400 . S
C743 C742 1.385 . S
C744 C742 1.478 . S
C744 C746 1.381 . S
C744 C750 1.383 . S
C745 C741 1.495 . S
C745 H751 0.959 . S
C745 H752 0.961 . S
C745 H753 0.960 . S
C746 C744 1.381 . S
C746 C747 1.394 . S
C746 H754 0.930 . S
C747 C746 1.394 . S
C747 C748 1.383 . S
C747 H755 0.929 . S
C748 C747 1.383 . S
C748 C749 1.377 . S
C749 H733 0.930 . S
C749 C748 1.377 . S
C749 C750 1.379 . S
C750 H734 0.931 . S
C750 C744 1.383 . S
C750 C749 1.379 . S
H751 C745 0.959 . S
H752 C745 0.961 . S
H753 C745 0.960 . S
H754 C746 0.930 . S
H755 C747 0.929 . S
H756 C764 0.929 . S
H757 C766 0.930 . S
H758 C768 0.930 . S
H759 C771 0.929 . S
H760 C774 0.930 . S
H761 C776 0.960 . S
H762 C776 0.960 . S
H763 C776 0.960 . S
C764 H756 0.929 . S
C764 C765 1.377 . S
C764 C766 1.384 . S
C765 C764 1.377 . S
C765 C771 1.390 . S
C766 H757 0.930 . S
C766 C764 1.384 . S
C766 C767 1.372 . S
C767 C766 1.372 . S
C767 C768 1.400 . S
C767 C772 1.490 . S
C768 H758 0.930 . S
C768 C767 1.400 . S
C768 C771 1.386 . S
H769 C785 0.930 . S
H770 C786 0.931 . S
C771 H759 0.929 . S
C771 C765 1.390 . S
C771 C768 1.386 . S
C772 C767 1.490 . S
C772 C774 1.395 . S
C772 C775 1.403 . S
H773 C779 0.930 . S
C774 H760 0.930 . S
C774 C772 1.395 . S
C774 C777 1.403 . S
C775 C772 1.403 . S
C775 C776 1.524 . S
C775 C779 1.400 . S
C776 H761 0.960 . S
C776 H762 0.960 . S
C776 H763 0.960 . S
C776 C775 1.524 . S
C777 C774 1.403 . S
C777 C778 1.392 . S
C777 C781 1.495 . S
C778 C777 1.392 . S
C778 C779 1.385 . S
C778 C780 1.478 . S
C779 H773 0.930 . S
C779 C775 1.400 . S
C779 C778 1.385 . S
C780 C778 1.478 . S
C780 C782 1.381 . S
C780 C786 1.383 . S
C781 C777 1.495 . S
C781 H787 0.959 . S
C781 H788 0.961 . S
C781 H789 0.960 . S
C782 C780 1.381 . S
C782 C783 1.394 1_554 S
C782 H790 0.930 . S
C783 C782 1.394 1_556 S
C783 C784 1.383 . S
C783 H791 0.929 . S
C784 C783 1.383 . S
C784 C785 1.377 . S
C785 H769 0.930 . S
C785 C784 1.377 . S
C785 C786 1.379 1_556 S
C786 H770 0.931 . S
C786 C780 1.383 . S
C786 C785 1.379 1_554 S
H787 C781 0.959 . S
H788 C781 0.961 . S
H789 C781 0.960 . S
H790 C782 0.930 . S
H791 C783 0.929 . S
H792 C800 0.929 . S
H793 C802 0.930 . S
H794 C804 0.930 . S
H795 C807 0.929 . S
H796 C810 0.930 . S
H797 C812 0.960 . S
H798 C812 0.960 . S
H799 C812 0.960 . S
C800 H792 0.929 . S
C800 C801 1.377 . S
C800 C802 1.384 . S
C801 C800 1.377 . S
C801 C807 1.390 . S
C802 H793 0.930 . S
C802 C800 1.384 . S
C802 C803 1.372 . S
C803 C802 1.372 . S
C803 C804 1.400 . S
C803 C808 1.490 . S
C804 H794 0.930 . S
C804 C803 1.400 . S
C804 C807 1.386 . S
H805 C821 0.930 . S
H806 C822 0.931 . S
C807 H795 0.929 . S
C807 C801 1.390 . S
C807 C804 1.386 . S
C808 C803 1.490 . S
C808 C810 1.395 . S
C808 C811 1.403 . S
H809 C815 0.930 . S
C810 H796 0.930 . S
C810 C808 1.395 . S
C810 C813 1.403 . S
C811 C808 1.403 . S
C811 C812 1.524 . S
C811 C815 1.400 . S
C812 H797 0.960 . S
C812 H798 0.960 . S
C812 H799 0.960 . S
C812 C811 1.524 . S
C813 C810 1.403 . S
C813 C814 1.392 . S
C813 C817 1.495 . S
C814 C813 1.392 . S
C814 C815 1.385 . S
C814 C816 1.478 . S
C815 H809 0.930 . S
C815 C811 1.400 . S
C815 C814 1.385 . S
C816 C814 1.478 . S
C816 C818 1.381 . S
C816 C822 1.383 . S
C817 C813 1.495 . S
C817 H823 0.959 . S
C817 H824 0.961 . S
C817 H825 0.960 . S
C818 C816 1.381 . S
C818 C819 1.394 . S
C818 H826 0.930 . S
C819 C818 1.394 . S
C819 C820 1.383 . S
C819 H827 0.929 . S
C820 C819 1.383 . S
C820 C821 1.377 . S
C821 H805 0.930 . S
C821 C820 1.377 . S
C821 C822 1.379 . S
C822 H806 0.931 . S
C822 C816 1.383 . S
C822 C821 1.379 . S
H823 C817 0.959 . S
H824 C817 0.961 . S
H825 C817 0.960 . S
H826 C818 0.930 . S
H827 C819 0.929 . S
H828 C836 0.929 . S
H829 C838 0.930 . S
H830 C840 0.930 . S
H831 C843 0.929 . S
H832 C846 0.930 . S
H833 C848 0.960 . S
H834 C848 0.960 . S
H835 C848 0.960 . S
C836 H828 0.929 . S
C836 C837 1.377 . S
C836 C838 1.384 . S
C837 C836 1.377 . S
C837 C843 1.390 . S
C838 H829 0.930 . S
C838 C836 1.384 . S
C838 C839 1.372 . S
C839 C838 1.372 . S
C839 C840 1.400 . S
C839 C844 1.490 . S
C840 H830 0.930 . S
C840 C839 1.400 . S
C840 C843 1.386 . S
H841 C857 0.930 . S
H842 C858 0.931 . S
C843 H831 0.929 . S
C843 C837 1.390 . S
C843 C840 1.386 . S
C844 C839 1.490 . S
C844 C846 1.395 . S
C844 C847 1.403 . S
H845 C851 0.930 . S
C846 H832 0.930 . S
C846 C844 1.395 . S
C846 C849 1.403 . S
C847 C844 1.403 . S
C847 C848 1.524 . S
C847 C851 1.400 . S
C848 H833 0.960 . S
C848 H834 0.960 . S
C848 H835 0.960 . S
C848 C847 1.524 . S
C849 C846 1.403 . S
C849 C850 1.392 . S
C849 C853 1.495 . S
C850 C849 1.392 . S
C850 C851 1.385 . S
C850 C852 1.478 . S
C851 H845 0.930 . S
C851 C847 1.400 . S
C851 C850 1.385 . S
C852 C850 1.478 . S
C852 C854 1.381 . S
C852 C858 1.383 . S
C853 C849 1.495 . S
C853 H859 0.959 . S
C853 H860 0.961 . S
C853 H861 0.960 . S
C854 C852 1.381 . S
C854 C855 1.394 . S
C854 H862 0.930 . S
C855 C854 1.394 . S
C855 C856 1.383 . S
C855 H863 0.929 . S
C856 C855 1.383 . S
C856 C857 1.377 . S
C857 H841 0.930 . S
C857 C856 1.377 . S
C857 C858 1.379 . S
C858 H842 0.931 . S
C858 C852 1.383 . S
C858 C857 1.379 . S
H859 C853 0.959 . S
H860 C853 0.961 . S
H861 C853 0.960 . S
H862 C854 0.930 . S
H863 C855 0.929 . S
H864 C872 0.929 . S
H865 C874 0.930 . S
H866 C876 0.930 . S
H867 C879 0.929 . S
H868 C882 0.930 . S
H869 C884 0.960 . S
H870 C884 0.960 . S
H871 C884 0.960 . S
C872 H864 0.929 . S
C872 C873 1.377 . S
C872 C874 1.384 . S
C873 C872 1.377 . S
C873 C879 1.390 . S
C874 H865 0.930 . S
C874 C872 1.384 . S
C874 C875 1.372 . S
C875 C874 1.372 . S
C875 C876 1.400 . S
C875 C880 1.490 . S
C876 H866 0.930 . S
C876 C875 1.400 . S
C876 C879 1.386 . S
H877 C893 0.930 . S
H878 C894 0.931 . S
C879 H867 0.929 . S
C879 C873 1.390 . S
C879 C876 1.386 . S
C880 C875 1.490 . S
C880 C882 1.395 . S
C880 C883 1.403 . S
H881 C887 0.930 . S
C882 H868 0.930 . S
C882 C880 1.395 . S
C882 C885 1.403 1_655 S
C883 C880 1.403 . S
C883 C884 1.524 . S
C883 C887 1.400 1_655 S
C884 H869 0.960 . S
C884 H870 0.960 . S
C884 H871 0.960 . S
C884 C883 1.524 . S
C885 C882 1.403 1_455 S
C885 C886 1.392 . S
C885 C889 1.495 . S
C886 C885 1.392 . S
C886 C887 1.385 . S
C886 C888 1.478 . S
C887 H881 0.930 . S
C887 C883 1.400 1_455 S
C887 C886 1.385 . S
C888 C886 1.478 . S
C888 C890 1.381 . S
C888 C894 1.383 . S
C889 C885 1.495 . S
C889 H895 0.959 . S
C889 H896 0.961 . S
C889 H897 0.960 . S
C890 C888 1.381 . S
C890 C891 1.394 . S
C890 H898 0.930 . S
C891 C890 1.394 . S
C891 C892 1.383 . S
C891 H899 0.929 . S
C892 C891 1.383 . S
C892 C893 1.377 . S
C893 H877 0.930 . S
C893 C892 1.377 . S
C893 C894 1.379 . S
C894 H878 0.931 . S
C894 C888 1.383 . S
C894 C893 1.379 . S
H895 C889 0.959 . S
H896 C889 0.961 . S
H897 C889 0.960 . S
H898 C890 0.930 . S
H899 C891 0.929 . S
H900 C908 0.929 . S
H901 C910 0.930 . S
H902 C912 0.930 . S
H903 C915 0.929 . S
H904 C918 0.930 . S
H905 C920 0.960 . S
H906 C920 0.960 . S
H907 C920 0.960 . S
C908 H900 0.929 . S
C908 C909 1.377 . S
C908 C910 1.384 . S
C909 C908 1.377 . S
C909 C915 1.390 . S
C910 H901 0.930 . S
C910 C908 1.384 . S
C910 C911 1.372 . S
C911 C910 1.372 . S
C911 C912 1.400 . S
C911 C916 1.490 . S
C912 H902 0.930 . S
C912 C911 1.400 . S
C912 C915 1.386 . S
H913 C929 0.930 . S
H914 C930 0.931 . S
C915 H903 0.929 . S
C915 C909 1.390 . S
C915 C912 1.386 . S
C916 C911 1.490 . S
C916 C918 1.395 . S
C916 C919 1.403 . S
H917 C923 0.930 . S
C918 H904 0.930 . S
C918 C916 1.395 . S
C918 C921 1.403 1_565 S
C919 C916 1.403 . S
C919 C920 1.524 . S
C919 C923 1.400 1_565 S
C920 H905 0.960 . S
C920 H906 0.960 . S
C920 H907 0.960 . S
C920 C919 1.524 . S
C921 C918 1.403 1_545 S
C921 C922 1.392 . S
C921 C925 1.495 . S
C922 C921 1.392 . S
C922 C923 1.385 . S
C922 C924 1.478 . S
C923 H917 0.930 . S
C923 C919 1.400 1_545 S
C923 C922 1.385 . S
C924 C922 1.478 . S
C924 C926 1.381 . S
C924 C930 1.383 . S
C925 C921 1.495 . S
C925 H931 0.959 . S
C925 H932 0.961 . S
C925 H933 0.960 . S
C926 C924 1.381 . S
C926 C927 1.394 . S
C926 H934 0.930 . S
C927 C926 1.394 . S
C927 C928 1.383 . S
C927 H935 0.929 . S
C928 C927 1.383 . S
C928 C929 1.377 . S
C929 H913 0.930 . S
C929 C928 1.377 . S
C929 C930 1.379 . S
C930 H914 0.931 . S
C930 C924 1.383 . S
C930 C929 1.379 . S
H931 C925 0.959 . S
H932 C925 0.961 . S
H933 C925 0.960 . S
H934 C926 0.930 . S
H935 C927 0.929 . S
H936 C944 0.929 . S
H937 C946 0.930 . S
H938 C948 0.930 . S
H939 C951 0.929 . S
H940 C954 0.930 . S
H941 C956 0.960 . S
H942 C956 0.960 . S
H943 C956 0.960 . S
C944 H936 0.929 . S
C944 C945 1.377 . S
C944 C946 1.384 . S
C945 C944 1.377 . S
C945 C951 1.390 . S
C946 H937 0.930 . S
C946 C944 1.384 . S
C946 C947 1.372 . S
C947 C946 1.372 . S
C947 C948 1.400 . S
C947 C952 1.490 . S
C948 H938 0.930 . S
C948 C947 1.400 . S
C948 C951 1.386 . S
H949 C965 0.930 . S
H950 C966 0.931 . S
C951 H939 0.929 . S
C951 C945 1.390 . S
C951 C948 1.386 . S
C952 C947 1.490 . S
C952 C954 1.395 . S
C952 C955 1.403 . S
H953 C959 0.930 . S
C954 H940 0.930 . S
C954 C952 1.395 . S
C954 C957 1.403 . S
C955 C952 1.403 . S
C955 C956 1.524 . S
C955 C959 1.400 . S
C956 H941 0.960 . S
C956 H942 0.960 . S
C956 H943 0.960 . S
C956 C955 1.524 . S
C957 C954 1.403 . S
C957 C958 1.392 . S
C957 C961 1.495 . S
C958 C957 1.392 . S
C958 C959 1.385 . S
C958 C960 1.478 . S
C959 H953 0.930 . S
C959 C955 1.400 . S
C959 C958 1.385 . S
C960 C958 1.478 . S
C960 C962 1.381 . S
C960 C966 1.383 . S
C961 C957 1.495 . S
C961 H967 0.959 . S
C961 H968 0.961 . S
C961 H969 0.960 . S
C962 C960 1.381 . S
C962 C963 1.394 . S
C962 H970 0.930 . S
C963 C962 1.394 . S
C963 C964 1.383 . S
C963 H971 0.929 . S
C964 C963 1.383 . S
C964 C965 1.377 . S
C965 H949 0.930 . S
C965 C964 1.377 . S
C965 C966 1.379 . S
C966 H950 0.931 . S
C966 C960 1.383 . S
C966 C965 1.379 . S
H967 C961 0.959 . S
H968 C961 0.961 . S
H969 C961 0.960 . S
H970 C962 0.930 . S
H971 C963 0.929 . S
H972 C980 0.929 . S
H973 C982 0.930 . S
H974 C984 0.930 . S
H975 C987 0.929 . S
H976 C990 0.930 . S
H977 C992 0.960 . S
H978 C992 0.960 . S
H979 C992 0.960 . S
C980 H972 0.929 . S
C980 C981 1.377 . S
C980 C982 1.384 . S
C981 C980 1.377 . S
C981 C987 1.390 . S
C982 H973 0.930 . S
C982 C980 1.384 . S
C982 C983 1.372 . S
C983 C982 1.372 . S
C983 C984 1.400 . S
C983 C988 1.490 . S
C984 H974 0.930 . S
C984 C983 1.400 . S
C984 C987 1.386 . S
H985 C1001 0.930 . S
H986 C1002 0.931 . S
C987 H975 0.929 . S
C987 C981 1.390 . S
C987 C984 1.386 . S
C988 C983 1.490 . S
C988 C990 1.395 . S
C988 C991 1.403 . S
H989 C995 0.930 . S
C990 H976 0.930 . S
C990 C988 1.395 . S
C990 C993 1.403 1_455 S
C991 C988 1.403 . S
C991 C992 1.524 . S
C991 C995 1.400 1_455 S
C992 H977 0.960 . S
C992 H978 0.960 . S
C992 H979 0.960 . S
C992 C991 1.524 . S
C993 C990 1.403 1_655 S
C993 C994 1.392 . S
C993 C997 1.495 . S
C994 C993 1.392 . S
C994 C995 1.385 . S
C994 C996 1.478 . S
C995 H989 0.930 . S
C995 C991 1.400 1_655 S
C995 C994 1.385 . S
C996 C994 1.478 . S
C996 C998 1.381 . S
C996 C1002 1.383 . S
C997 C993 1.495 . S
C997 H1003 0.959 . S
C997 H1004 0.961 . S
C997 H1005 0.960 . S
C998 C996 1.381 . S
C998 C999 1.394 . S
C998 H1006 0.930 . S
C999 C998 1.394 . S
C999 C1000 1.383 . S
C999 H1007 0.929 . S
C1000 C999 1.383 . S
C1000 C1001 1.377 . S
C1001 H985 0.930 . S
C1001 C1000 1.377 . S
C1001 C1002 1.379 . S
C1002 H986 0.931 . S
C1002 C996 1.383 . S
C1002 C1001 1.379 . S
H1003 C997 0.959 . S
H1004 C997 0.961 . S
H1005 C997 0.960 . S
H1006 C998 0.930 . S
H1007 C999 0.929 . S
H1008 C1016 0.929 . S
H1009 C1018 0.930 . S
H1010 C1020 0.930 1_554 S
H1011 C1023 0.944 . S
H1012 C1026 0.930 . S
H1013 C1028 0.960 . S
H1014 C1028 0.960 . S
H1015 C1028 0.960 . S
C1016 H1008 0.929 . S
C1016 C1017 1.377 . S
C1016 C1018 1.384 . S
C1017 C1016 1.377 . S
C1017 C1023 1.390 . S
C1018 H1009 0.930 . S
C1018 C1016 1.384 . S
C1018 C1019 1.372 . S
C1019 C1018 1.372 . S
C1019 C1020 1.400 . S
C1019 C1024 1.490 . S
C1020 H1010 0.930 1_556 S
C1020 C1019 1.400 . S
C1020 C1023 1.386 . S
H1021 C1037 0.930 . S
H1022 C1038 0.931 . S
C1023 H1011 0.944 . S
C1023 C1017 1.390 . S
C1023 C1020 1.386 . S
C1024 C1019 1.490 . S
C1024 C1026 1.395 . S
C1024 C1027 1.403 1_556 S
H1025 C1031 0.930 . S
C1026 H1012 0.930 . S
C1026 C1024 1.395 . S
C1026 C1029 1.403 1_545 S
C1027 C1024 1.403 1_554 S
C1027 C1028 1.524 . S
C1027 C1031 1.400 1_545 S
C1028 H1013 0.960 . S
C1028 H1014 0.960 . S
C1028 H1015 0.960 . S
C1028 C1027 1.524 . S
C1029 C1026 1.403 1_565 S
C1029 C1030 1.392 1_556 S
C1029 C1033 1.495 . S
C1030 C1029 1.392 1_554 S
C1030 C1031 1.385 . S
C1030 C1032 1.478 . S
C1031 H1025 0.930 . S
C1031 C1027 1.400 1_565 S
C1031 C1030 1.385 . S
C1032 C1030 1.478 . S
C1032 C1034 1.397 . S
C1032 C1038 1.383 . S
C1033 C1029 1.495 . S
C1033 H1039 0.959 . S
C1033 H1040 0.961 . S
C1033 H1041 0.960 . S
C1034 C1032 1.397 . S
C1034 C1035 1.406 . S
C1034 H1042 0.902 1_554 S
C1035 C1034 1.406 . S
C1035 C1036 1.383 . S
C1035 H1043 0.929 . S
C1036 C1035 1.383 . S
C1036 C1037 1.377 . S
C1037 H1021 0.930 . S
C1037 C1036 1.377 . S
C1037 C1038 1.379 . S
C1038 H1022 0.931 . S
C1038 C1032 1.383 . S
C1038 C1037 1.379 . S
H1039 C1033 0.959 . S
H1040 C1033 0.961 . S
H1041 C1033 0.960 . S
H1042 C1034 0.902 1_556 S
H1043 C1035 0.929 . S
H1044 C1052 0.929 . S
H1045 C1054 0.930 . S
H1046 C1056 0.930 . S
H1047 C1059 0.929 . S
H1048 C1062 0.930 . S
H1049 C1064 0.960 . S
H1050 C1064 0.960 . S
H1051 C1064 0.960 . S
C1052 H1044 0.929 . S
C1052 C1053 1.377 . S
C1052 C1054 1.384 . S
C1053 C1052 1.377 . S
C1053 C1059 1.390 . S
C1054 H1045 0.930 . S
C1054 C1052 1.384 . S
C1054 C1055 1.372 . S
C1055 C1054 1.372 . S
C1055 C1056 1.400 . S
C1055 C1060 1.490 . S
C1056 H1046 0.930 . S
C1056 C1055 1.400 . S
C1056 C1059 1.386 . S
H1057 C1073 0.930 . S
H1058 C1074 0.931 . S
C1059 H1047 0.929 . S
C1059 C1053 1.390 . S
C1059 C1056 1.386 . S
C1060 C1055 1.490 . S
C1060 C1062 1.395 . S
C1060 C1063 1.403 . S
H1061 C1067 0.930 . S
C1062 H1048 0.930 . S
C1062 C1060 1.395 . S
C1062 C1065 1.403 . S
C1063 C1060 1.403 . S
C1063 C1064 1.524 . S
C1063 C1067 1.400 . S
C1064 H1049 0.960 . S
C1064 H1050 0.960 . S
C1064 H1051 0.960 . S
C1064 C1063 1.524 . S
C1065 C1062 1.403 . S
C1065 C1066 1.392 . S
C1065 C1069 1.495 . S
C1066 C1065 1.392 . S
C1066 C1067 1.385 . S
C1066 C1068 1.478 . S
C1067 H1061 0.930 . S
C1067 C1063 1.400 . S
C1067 C1066 1.385 . S
C1068 C1066 1.478 . S
C1068 C1070 1.381 . S
C1068 C1074 1.383 . S
C1069 C1065 1.495 . S
C1069 H1075 0.959 . S
C1069 H1076 0.961 . S
C1069 H1077 0.960 . S
C1070 C1068 1.381 . S
C1070 C1071 1.394 . S
C1070 H1078 0.930 . S
C1071 C1070 1.394 . S
C1071 C1072 1.383 . S
C1071 H1079 0.929 . S
C1072 C1071 1.383 . S
C1072 C1073 1.377 . S
C1073 H1057 0.930 . S
C1073 C1072 1.377 . S
C1073 C1074 1.379 . S
C1074 H1058 0.931 . S
C1074 C1068 1.383 . S
C1074 C1073 1.379 . S
H1075 C1069 0.959 . S
H1076 C1069 0.961 . S
H1077 C1069 0.960 . S
H1078 C1070 0.930 . S
H1079 C1071 0.929 . S
H1080 C1088 0.929 . S
H1081 C1090 0.930 . S
H1082 C1092 0.930 . S
H1083 C1095 0.929 . S
H1084 C1098 0.930 . S
H1085 C1100 0.960 . S
H1086 C1100 0.960 . S
H1087 C1100 0.960 . S
C1088 H1080 0.929 . S
C1088 C1089 1.377 . S
C1088 C1090 1.384 . S
C1089 C1088 1.377 . S
C1089 C1095 1.390 . S
C1090 H1081 0.930 . S
C1090 C1088 1.384 . S
C1090 C1091 1.372 . S
C1091 C1090 1.372 . S
C1091 C1092 1.400 . S
C1091 C1096 1.490 . S
C1092 H1082 0.930 . S
C1092 C1091 1.400 . S
C1092 C1095 1.386 . S
H1093 C1109 0.930 . S
H1094 C1110 0.931 . S
C1095 H1083 0.929 . S
C1095 C1089 1.390 . S
C1095 C1092 1.386 . S
C1096 C1091 1.490 . S
C1096 C1098 1.395 . S
C1096 C1099 1.403 . S
H1097 C1103 0.930 . S
C1098 H1084 0.930 . S
C1098 C1096 1.395 . S
C1098 C1101 1.403 . S
C1099 C1096 1.403 . S
C1099 C1100 1.524 . S
C1099 C1103 1.400 . S
C1100 H1085 0.960 . S
C1100 H1086 0.960 . S
C1100 H1087 0.960 . S
C1100 C1099 1.524 . S
C1101 C1098 1.403 . S
C1101 C1102 1.392 . S
C1101 C1105 1.495 . S
C1102 C1101 1.392 . S
C1102 C1103 1.385 . S
C1102 C1104 1.478 . S
C1103 H1097 0.930 . S
C1103 C1099 1.400 . S
C1103 C1102 1.385 . S
C1104 C1102 1.478 . S
C1104 C1106 1.381 . S
C1104 C1110 1.383 . S
C1105 C1101 1.495 . S
C1105 H1111 0.959 . S
C1105 H1112 0.961 . S
C1105 H1113 0.960 . S
C1106 C1104 1.381 . S
C1106 C1107 1.394 . S
C1106 H1114 0.930 . S
C1107 C1106 1.394 . S
C1107 C1108 1.383 . S
C1107 H1115 0.929 . S
C1108 C1107 1.383 . S
C1108 C1109 1.377 . S
C1109 H1093 0.930 . S
C1109 C1108 1.377 . S
C1109 C1110 1.379 . S
C1110 H1094 0.931 . S
C1110 C1104 1.383 . S
C1110 C1109 1.379 . S
H1111 C1105 0.959 . S
H1112 C1105 0.961 . S
H1113 C1105 0.960 . S
H1114 C1106 0.930 . S
H1115 C1107 0.929 . S
H1116 C1124 0.929 . S
H1117 C1126 0.930 . S
H1118 C1128 0.930 . S
H1119 C1131 0.929 . S
H1120 C1134 0.930 . S
H1121 C1136 0.960 . S
H1122 C1136 0.960 . S
H1123 C1136 0.960 . S
C1124 H1116 0.929 . S
C1124 C1125 1.377 . S
C1124 C1126 1.384 . S
C1125 C1124 1.377 . S
C1125 C1131 1.390 . S
C1126 H1117 0.930 . S
C1126 C1124 1.384 . S
C1126 C1127 1.372 . S
C1127 C1126 1.372 . S
C1127 C1128 1.400 . S
C1127 C1132 1.490 . S
C1128 H1118 0.930 . S
C1128 C1127 1.400 . S
C1128 C1131 1.386 . S
H1129 C1145 0.930 . S
H1130 C1146 0.931 . S
C1131 H1119 0.929 . S
C1131 C1125 1.390 . S
C1131 C1128 1.386 . S
C1132 C1127 1.490 . S
C1132 C1134 1.395 . S
C1132 C1135 1.403 . S
H1133 C1139 0.930 . S
C1134 H1120 0.930 . S
C1134 C1132 1.395 . S
C1134 C1137 1.403 . S
C1135 C1132 1.403 . S
C1135 C1136 1.524 . S
C1135 C1139 1.400 . S
C1136 H1121 0.960 . S
C1136 H1122 0.960 . S
C1136 H1123 0.960 . S
C1136 C1135 1.524 . S
C1137 C1134 1.403 . S
C1137 C1138 1.392 . S
C1137 C1141 1.495 . S
C1138 C1137 1.392 . S
C1138 C1139 1.385 . S
C1138 C1140 1.478 . S
C1139 H1133 0.930 . S
C1139 C1135 1.400 . S
C1139 C1138 1.385 . S
C1140 C1138 1.478 . S
C1140 C1142 1.381 . S
C1140 C1146 1.383 . S
C1141 C1137 1.495 . S
C1141 H1147 0.959 . S
C1141 H1148 0.961 . S
C1141 H1149 0.960 . S
C1142 C1140 1.381 . S
C1142 C1143 1.394 . S
C1142 H1150 0.930 . S
C1143 C1142 1.394 . S
C1143 C1144 1.383 . S
C1143 H1151 0.929 . S
C1144 C1143 1.383 . S
C1144 C1145 1.377 . S
C1145 H1129 0.930 . S
C1145 C1144 1.377 . S
C1145 C1146 1.379 . S
C1146 H1130 0.931 . S
C1146 C1140 1.383 . S
C1146 C1145 1.379 . S
H1147 C1141 0.959 . S
H1148 C1141 0.961 . S
H1149 C1141 0.960 . S
H1150 C1142 0.930 . S
H1151 C1143 0.929 . S
H1152 C1160 0.929 . S
H1153 C1162 0.930 . S
H1154 C1164 0.930 . S
H1155 C1167 0.929 . S
H1156 C1170 0.930 . S
H1157 C1172 0.960 . S
H1158 C1172 0.960 . S
H1159 C1172 0.960 . S
C1160 H1152 0.929 . S
C1160 C1161 1.377 . S
C1160 C1162 1.384 . S
C1161 C1160 1.377 . S
C1161 C1167 1.390 . S
C1162 H1153 0.930 . S
C1162 C1160 1.384 . S
C1162 C1163 1.372 . S
C1163 C1162 1.372 . S
C1163 C1164 1.400 . S
C1163 C1168 1.490 . S
C1164 H1154 0.930 . S
C1164 C1163 1.400 . S
C1164 C1167 1.386 . S
H1165 C1181 0.930 . S
H1166 C1182 0.931 . S
C1167 H1155 0.929 . S
C1167 C1161 1.390 . S
C1167 C1164 1.386 . S
C1168 C1163 1.490 . S
C1168 C1170 1.395 . S
C1168 C1171 1.403 . S
H1169 C1175 0.930 . S
C1170 H1156 0.930 . S
C1170 C1168 1.395 . S
C1170 C1173 1.403 . S
C1171 C1168 1.403 . S
C1171 C1172 1.524 . S
C1171 C1175 1.400 . S
C1172 H1157 0.960 . S
C1172 H1158 0.960 . S
C1172 H1159 0.960 . S
C1172 C1171 1.524 . S
C1173 C1170 1.403 . S
C1173 C1174 1.392 . S
C1173 C1177 1.495 . S
C1174 C1173 1.392 . S
C1174 C1175 1.385 . S
C1174 C1176 1.478 . S
C1175 H1169 0.930 . S
C1175 C1171 1.400 . S
C1175 C1174 1.385 . S
C1176 C1174 1.478 . S
C1176 C1178 1.381 . S
C1176 C1182 1.383 . S
C1177 C1173 1.495 . S
C1177 H1183 0.959 . S
C1177 H1184 0.961 . S
C1177 H1185 0.960 . S
C1178 C1176 1.381 . S
C1178 C1179 1.394 . S
C1178 H1186 0.930 . S
C1179 C1178 1.394 . S
C1179 C1180 1.383 . S
C1179 H1187 0.929 . S
C1180 C1179 1.383 . S
C1180 C1181 1.377 . S
C1181 H1165 0.930 . S
C1181 C1180 1.377 . S
C1181 C1182 1.379 . S
C1182 H1166 0.931 . S
C1182 C1176 1.383 . S
C1182 C1181 1.379 . S
H1183 C1177 0.959 . S
H1184 C1177 0.961 . S
H1185 C1177 0.960 . S
H1186 C1178 0.930 . S
H1187 C1179 0.929 . S
H1188 C1196 0.929 . S
H1189 C1198 0.930 . S
H1190 C1200 0.930 . S
H1191 C1203 0.929 . S
H1192 C1206 0.930 . S
H1193 C1208 0.960 . S
H1194 C1208 0.960 . S
H1195 C1208 0.960 . S
C1196 H1188 0.929 . S
C1196 C1197 1.377 . S
C1196 C1198 1.384 . S
C1197 C1196 1.377 . S
C1197 C1203 1.390 . S
C1198 H1189 0.930 . S
C1198 C1196 1.384 . S
C1198 C1199 1.372 . S
C1199 C1198 1.372 . S
C1199 C1200 1.400 . S
C1199 C1204 1.490 . S
C1200 H1190 0.930 . S
C1200 C1199 1.400 . S
C1200 C1203 1.386 . S
H1201 C1217 0.930 . S
H1202 C1218 0.931 . S
C1203 H1191 0.929 . S
C1203 C1197 1.390 . S
C1203 C1200 1.386 . S
C1204 C1199 1.490 . S
C1204 C1206 1.395 . S
C1204 C1207 1.403 . S
H1205 C1211 0.930 . S
C1206 H1192 0.930 . S
C1206 C1204 1.395 . S
C1206 C1209 1.403 . S
C1207 C1204 1.403 . S
C1207 C1208 1.524 . S
C1207 C1211 1.400 . S
C1208 H1193 0.960 . S
C1208 H1194 0.960 . S
C1208 H1195 0.960 . S
C1208 C1207 1.524 . S
C1209 C1206 1.403 . S
C1209 C1210 1.392 . S
C1209 C1213 1.495 . S
C1210 C1209 1.392 . S
C1210 C1211 1.385 . S
C1210 C1212 1.478 . S
C1211 H1205 0.930 . S
C1211 C1207 1.400 . S
C1211 C1210 1.385 . S
C1212 C1210 1.478 . S
C1212 C1214 1.381 . S
C1212 C1218 1.383 . S
C1213 C1209 1.495 . S
C1213 H1219 0.959 . S
C1213 H1220 0.961 . S
C1213 H1221 0.960 . S
C1214 C1212 1.381 . S
C1214 C1215 1.394 . S
C1214 H1222 0.930 . S
C1215 C1214 1.394 . S
C1215 C1216 1.383 . S
C1215 H1223 0.929 . S
C1216 C1215 1.383 . S
C1216 C1217 1.377 . S
C1217 H1201 0.930 . S
C1217 C1216 1.377 . S
C1217 C1218 1.379 . S
C1218 H1202 0.931 . S
C1218 C1212 1.383 . S
C1218 C1217 1.379 . S
H1219 C1213 0.959 . S
H1220 C1213 0.961 . S
H1221 C1213 0.960 . S
H1222 C1214 0.930 . S
H1223 C1215 0.929 . S
H1224 C1232 0.929 . S
H1225 C1234 0.930 . S
H1226 C1236 0.930 . S
H1227 C1239 0.932 1_554 S
H1228 C1242 0.930 . S
H1229 C1244 0.960 . S
H1230 C1244 0.960 . S
H1231 C1244 0.960 . S
C1232 H1224 0.929 . S
C1232 C1233 1.344 1_556 S
C1232 C1234 1.384 . S
C1233 C1232 1.344 1_554 S
C1233 C1239 1.389 1_554 S
C1234 H1225 0.930 . S
C1234 C1232 1.384 . S
C1234 C1235 1.372 . S
C1235 C1234 1.372 . S
C1235 C1236 1.400 . S
C1235 C1240 1.490 . S
C1236 H1226 0.930 . S
C1236 C1235 1.400 . S
C1236 C1239 1.383 . S
H1237 C1253 0.930 . S
H1238 C1254 0.931 . S
C1239 H1227 0.932 1_556 S
C1239 C1233 1.389 1_556 S
C1239 C1236 1.383 . S
C1240 C1235 1.490 . S
C1240 C1242 1.395 . S
C1240 C1243 1.403 . S
H1241 C1247 0.930 . S
C1242 H1228 0.930 . S
C1242 C1240 1.395 . S
C1242 C1245 1.403 . S
C1243 C1240 1.403 . S
C1243 C1244 1.524 . S
C1243 C1247 1.400 . S
C1244 H1229 0.960 . S
C1244 H1230 0.960 . S
C1244 H1231 0.960 . S
C1244 C1243 1.524 . S
C1245 C1242 1.403 . S
C1245 C1246 1.392 . S
C1245 C1249 1.495 . S
C1246 C1245 1.392 . S
C1246 C1247 1.385 . S
C1246 C1248 1.478 . S
C1247 H1241 0.930 . S
C1247 C1243 1.400 . S
C1247 C1246 1.385 . S
C1248 C1246 1.478 . S
C1248 C1250 1.381 . S
C1248 C1254 1.383 . S
C1249 C1245 1.495 . S
C1249 H1255 0.959 . S
C1249 H1256 0.961 . S
C1249 H1257 0.960 . S
C1250 C1248 1.381 . S
C1250 C1251 1.394 . S
C1250 H1258 0.930 . S
C1251 C1250 1.394 . S
C1251 C1252 1.383 . S
C1251 H1259 0.929 . S
C1252 C1251 1.383 . S
C1252 C1253 1.377 . S
C1253 H1237 0.930 . S
C1253 C1252 1.377 . S
C1253 C1254 1.379 . S
C1254 H1238 0.931 . S
C1254 C1248 1.383 . S
C1254 C1253 1.379 . S
H1255 C1249 0.959 . S
H1256 C1249 0.961 . S
H1257 C1249 0.960 . S
H1258 C1250 0.930 . S
H1259 C1251 0.929 . S
H1260 C1268 0.929 . S
H1261 C1270 0.930 . S
H1262 C1272 0.930 . S
H1263 C1275 0.929 . S
H1264 C1278 0.930 . S
H1265 C1280 0.960 . S
H1266 C1280 0.960 . S
H1267 C1280 0.960 . S
C1268 H1260 0.929 . S
C1268 C1269 1.377 . S
C1268 C1270 1.384 . S
C1269 C1268 1.377 . S
C1269 C1275 1.390 . S
C1270 H1261 0.930 . S
C1270 C1268 1.384 . S
C1270 C1271 1.372 . S
C1271 C1270 1.372 . S
C1271 C1272 1.400 . S
C1271 C1276 1.490 . S
C1272 H1262 0.930 . S
C1272 C1271 1.400 . S
C1272 C1275 1.386 . S
H1273 C1289 0.930 . S
H1274 C1290 0.931 . S
C1275 H1263 0.929 . S
C1275 C1269 1.390 . S
C1275 C1272 1.386 . S
C1276 C1271 1.490 . S
C1276 C1278 1.395 . S
C1276 C1279 1.403 . S
H1277 C1283 0.930 . S
C1278 H1264 0.930 . S
C1278 C1276 1.395 . S
C1278 C1281 1.403 . S
C1279 C1276 1.403 . S
C1279 C1280 1.524 . S
C1279 C1283 1.400 . S
C1280 H1265 0.960 . S
C1280 H1266 0.960 . S
C1280 H1267 0.960 . S
C1280 C1279 1.524 . S
C1281 C1278 1.403 . S
C1281 C1282 1.392 . S
C1281 C1285 1.495 . S
C1282 C1281 1.392 . S
C1282 C1283 1.385 . S
C1282 C1284 1.478 . S
C1283 H1277 0.930 . S
C1283 C1279 1.400 . S
C1283 C1282 1.385 . S
C1284 C1282 1.478 . S
C1284 C1286 1.381 . S
C1284 C1290 1.383 . S
C1285 C1281 1.495 . S
C1285 H1291 0.959 . S
C1285 H1292 0.961 . S
C1285 H1293 0.960 . S
C1286 C1284 1.381 . S
C1286 C1287 1.394 . S
C1286 H1294 0.930 . S
C1287 C1286 1.394 . S
C1287 C1288 1.383 1_554 S
C1287 H1295 0.929 . S
C1288 C1287 1.383 1_556 S
C1288 C1289 1.377 . S
C1289 H1273 0.930 . S
C1289 C1288 1.377 . S
C1289 C1290 1.379 1_556 S
C1290 H1274 0.931 . S
C1290 C1284 1.383 . S
C1290 C1289 1.379 1_554 S
H1291 C1285 0.959 . S
H1292 C1285 0.961 . S
H1293 C1285 0.960 . S
H1294 C1286 0.930 . S
H1295 C1287 0.929 . S
C441 C2 0.422 . S
C460 C218 0.495 . S
C477 C38 0.439 . S
C496 C254 0.391 . S
C513 C290 0.442 . S
C532 C74 0.407 . S
C549 C110 0.432 . S
C568 C326 0.358 . S
C585 C146 0.442 . S
C604 C362 0.409 . S
C621 C398 0.410 . S
C640 C182 0.419 . S
C657 C292 1.254 . S
C676 C4 1.259 . S
C693 C40 1.260 . S
C712 C328 1.296 . S
C729 C364 1.260 . S
C748 C76 1.296 . S
C765 C400 1.264 . S
C784 C112 1.294 . S
C801 C148 1.259 . S
C820 C220 1.295 . S
C837 C184 1.254 . S
C856 C256 1.247 . S
C873 C410 1.136 . S
C892 C14 1.156 . S
C909 C230 1.134 . S
C928 C50 1.151 . S
C945 C86 1.134 . S
C964 C266 1.142 . S
C981 C302 1.134 . S
C1000 C122 1.151 . S
C1017 C338 1.131 . S
C1036 C158 1.136 . S
C1053 C374 1.136 . S
C1072 C194 1.156 . S
C1089 C3 1.567 . S
C1108 C363 1.562 . S
C1125 C399 1.563 . S
C1144 C39 1.572 . S
C1161 C75 1.567 . S
C1180 C219 1.561 . S
C1197 C111 1.567 . S
C1216 C255 1.560 . S
C1233 C147 1.598 . S
C1252 C291 1.549 . S
C1269 C183 1.564 . S
C1288 C327 1.574 . S
