# Generated by pormake.
# Topology crs, (6)-cn, num edge types: 1
# Building blocks:
#     Node 0, Type 0, BuildingBlock: KUMJIN_clean_sbu_0, # of connection points: 6
#     Node 1, Type 0, BuildingBlock: KUMJIN_clean_sbu_0, # of connection points: 6
#     Node 2, Type 0, BuildingBlock: KUMJIN_clean_sbu_0, # of connection points: 6
#     Node 3, Type 0, BuildingBlock: KUMJIN_clean_sbu_0, # of connection points: 6
#     Node 4, Type 0, BuildingBlock: KUMJIN_clean_sbu_0, # of connection points: 6
#     Node 5, Type 0, BuildingBlock: KUMJIN_clean_sbu_0, # of connection points: 6
#     Node 6, Type 0, BuildingBlock: KUMJIN_clean_sbu_0, # of connection points: 6
#     Node 7, Type 0, BuildingBlock: KUMJIN_clean_sbu_0, # of connection points: 6
#     Node 8, Type 0, BuildingBlock: KUMJIN_clean_sbu_0, # of connection points: 6
#     Node 9, Type 0, BuildingBlock: KUMJIN_clean_sbu_0, # of connection points: 6
#     Node 10, Type 0, BuildingBlock: KUMJIN_clean_sbu_0, # of connection points: 6
#     Node 11, Type 0, BuildingBlock: KUMJIN_clean_sbu_0, # of connection points: 6
#     Node 12, Type 0, BuildingBlock: KUMJIN_clean_sbu_0, # of connection points: 6
#     Node 13, Type 0, BuildingBlock: KUMJIN_clean_sbu_0, # of connection points: 6
#     Node 14, Type 0, BuildingBlock: KUMJIN_clean_sbu_0, # of connection points: 6
#     Node 15, Type 0, BuildingBlock: KUMJIN_clean_sbu_0, # of connection points: 6
#     Edge 16, Type (0, 0), BuildingBlock: MIFKUJ_clean_linker_0, # of connection points: 2
#     Edge 17, Type (0, 0), BuildingBlock: MIFKUJ_clean_linker_0, # of connection points: 2
#     Edge 18, Type (0, 0), BuildingBlock: MIFKUJ_clean_linker_0, # of connection points: 2
#     Edge 19, Type (0, 0), BuildingBlock: MIFKUJ_clean_linker_0, # of connection points: 2
#     Edge 20, Type (0, 0), BuildingBlock: MIFKUJ_clean_linker_0, # of connection points: 2
#     Edge 21, Type (0, 0), BuildingBlock: MIFKUJ_clean_linker_0, # of connection points: 2
#     Edge 22, Type (0, 0), BuildingBlock: MIFKUJ_clean_linker_0, # of connection points: 2
#     Edge 23, Type (0, 0), BuildingBlock: MIFKUJ_clean_linker_0, # of connection points: 2
#     Edge 24, Type (0, 0), BuildingBlock: MIFKUJ_clean_linker_0, # of connection points: 2
#     Edge 25, Type (0, 0), BuildingBlock: MIFKUJ_clean_linker_0, # of connection points: 2
#     Edge 26, Type (0, 0), BuildingBlock: MIFKUJ_clean_linker_0, # of connection points: 2
#     Edge 27, Type (0, 0), BuildingBlock: MIFKUJ_clean_linker_0, # of connection points: 2
#     Edge 28, Type (0, 0), BuildingBlock: MIFKUJ_clean_linker_0, # of connection points: 2
#     Edge 29, Type (0, 0), BuildingBlock: MIFKUJ_clean_linker_0, # of connection points: 2
#     Edge 30, Type (0, 0), BuildingBlock: MIFKUJ_clean_linker_0, # of connection points: 2
#     Edge 31, Type (0, 0), BuildingBlock: MIFKUJ_clean_linker_0, # of connection points: 2
#     Edge 32, Type (0, 0), BuildingBlock: MIFKUJ_clean_linker_0, # of connection points: 2
#     Edge 33, Type (0, 0), BuildingBlock: MIFKUJ_clean_linker_0, # of connection points: 2
#     Edge 34, Type (0, 0), BuildingBlock: MIFKUJ_clean_linker_0, # of connection points: 2
#     Edge 35, Type (0, 0), BuildingBlock: MIFKUJ_clean_linker_0, # of connection points: 2
#     Edge 36, Type (0, 0), BuildingBlock: MIFKUJ_clean_linker_0, # of connection points: 2
#     Edge 37, Type (0, 0), BuildingBlock: MIFKUJ_clean_linker_0, # of connection points: 2
#     Edge 38, Type (0, 0), BuildingBlock: MIFKUJ_clean_linker_0, # of connection points: 2
#     Edge 39, Type (0, 0), BuildingBlock: MIFKUJ_clean_linker_0, # of connection points: 2
#     Edge 40, Type (0, 0), BuildingBlock: MIFKUJ_clean_linker_0, # of connection points: 2
#     Edge 41, Type (0, 0), BuildingBlock: MIFKUJ_clean_linker_0, # of connection points: 2
#     Edge 42, Type (0, 0), BuildingBlock: MIFKUJ_clean_linker_0, # of connection points: 2
#     Edge 43, Type (0, 0), BuildingBlock: MIFKUJ_clean_linker_0, # of connection points: 2
#     Edge 44, Type (0, 0), BuildingBlock: MIFKUJ_clean_linker_0, # of connection points: 2
#     Edge 45, Type (0, 0), BuildingBlock: MIFKUJ_clean_linker_0, # of connection points: 2
#     Edge 46, Type (0, 0), BuildingBlock: MIFKUJ_clean_linker_0, # of connection points: 2
#     Edge 47, Type (0, 0), BuildingBlock: MIFKUJ_clean_linker_0, # of connection points: 2
#     Edge 48, Type (0, 0), BuildingBlock: MIFKUJ_clean_linker_0, # of connection points: 2
#     Edge 49, Type (0, 0), BuildingBlock: MIFKUJ_clean_linker_0, # of connection points: 2
#     Edge 50, Type (0, 0), BuildingBlock: MIFKUJ_clean_linker_0, # of connection points: 2
#     Edge 51, Type (0, 0), BuildingBlock: MIFKUJ_clean_linker_0, # of connection points: 2
#     Edge 52, Type (0, 0), BuildingBlock: MIFKUJ_clean_linker_0, # of connection points: 2
#     Edge 53, Type (0, 0), BuildingBlock: MIFKUJ_clean_linker_0, # of connection points: 2
#     Edge 54, Type (0, 0), BuildingBlock: MIFKUJ_clean_linker_0, # of connection points: 2
#     Edge 55, Type (0, 0), BuildingBlock: MIFKUJ_clean_linker_0, # of connection points: 2
#     Edge 56, Type (0, 0), BuildingBlock: MIFKUJ_clean_linker_0, # of connection points: 2
#     Edge 57, Type (0, 0), BuildingBlock: MIFKUJ_clean_linker_0, # of connection points: 2
#     Edge 58, Type (0, 0), BuildingBlock: MIFKUJ_clean_linker_0, # of connection points: 2
#     Edge 59, Type (0, 0), BuildingBlock: MIFKUJ_clean_linker_0, # of connection points: 2
#     Edge 60, Type (0, 0), BuildingBlock: MIFKUJ_clean_linker_0, # of connection points: 2
#     Edge 61, Type (0, 0), BuildingBlock: MIFKUJ_clean_linker_0, # of connection points: 2
#     Edge 62, Type (0, 0), BuildingBlock: MIFKUJ_clean_linker_0, # of connection points: 2
#     Edge 63, Type (0, 0), BuildingBlock: MIFKUJ_clean_linker_0, # of connection points: 2
# Relax obj value: 0.084
# Max RMSD: 0.196
# Mean RMSD: 0.153
data_MOF--net-crs--node1-KUMJIN_clean_sbu_0--edge1-MIFKUJ_clean_linker_0
_symmetry_space_group_name_H-M    P1
_symmetry_Int_Tables_number       1
_symmetry_cell_setting            triclinic
loop_
_symmetry_equiv_pos_as_xyz
'x, y, z'
_cell_length_a     67.328926
_cell_length_b     67.691742
_cell_length_c     55.907648
_cell_angle_alpha  78.876724
_cell_angle_beta   77.533894
_cell_angle_gamma 72.838424
loop_
_atom_site_label
_atom_site_type_symbol
_atom_site_fract_x
_atom_site_fract_y
_atom_site_fract_z
_atom_type_partial_charge
Eu0 Eu 0.98463 0.99125 0.03911 0.0
C1 C 0.02347 0.01555 0.92785 0.0
C2 C 0.04914 0.98396 0.91604 0.0
C3 C 0.0318 0.00953 0.88491 0.0
C4 C 0.03757 0.99672 0.93423 0.0
C5 C 0.02056 0.0223 0.90308 0.0
C6 C 0.04606 0.9904 0.89137 0.0
C7 C 0.99614 0.05406 0.916 0.0
N8 N 0.01273 0.02741 0.94586 0.0
C9 C 0.99963 0.04672 0.94028 0.0
C10 C 0.00654 0.04174 0.89732 0.0
Eu11 Eu 0.01843 0.01343 0.98661 0.0
N12 N 0.03985 0.99077 0.95829 0.0
C13 C 0.05427 0.97275 0.96527 0.0
C14 C 0.06345 0.96512 0.9232 0.0
C15 C 0.06613 0.95957 0.9479 0.0
H16 H 0.99141 0.0562 0.95471 0.0
H17 H 0.07726 0.94511 0.95362 0.0
H18 H 0.05473 0.98076 0.87714 0.0
H19 H 0.98541 0.06919 0.91171 0.0
H20 H 0.05642 0.9682 0.98431 0.0
H21 H 0.92347 0.05685 0.07472 0.0
H22 H 0.07259 0.95484 0.90979 0.0
H23 H 0.01482 0.9494 0.06921 0.0
H24 H 0.94577 0.03555 0.04287 0.0
H25 H 0.02034 0.93514 0.1121 0.0
H26 H 0.02971 0.01439 0.86578 0.0
H27 H 0.92798 0.04595 0.11849 0.0
H28 H 0.94566 0.01913 0.15048 0.0
H29 H 0.00381 0.04746 0.87852 0.0
H30 H 0.97135 0.98572 0.16072 0.0
N31 N 0.96355 0.01334 0.06806 0.0
C32 C 0.94817 0.03077 0.06181 0.0
C33 C 0.93804 0.03667 0.10451 0.0
C34 C 0.95318 0.01825 0.11094 0.0
C35 C 0.9354 0.04285 0.07985 0.0
C36 C 0.96596 0.00681 0.09202 0.0
H37 H 0.99965 0.95463 0.14652 0.0
N38 N 0.99204 0.97713 0.0792 0.0
C39 C 0.00908 0.95003 0.10833 0.0
C40 C 0.98054 0.98808 0.09778 0.0
C41 C 0.00594 0.95816 0.08407 0.0
C42 C 0.9974 0.9611 0.1277 0.0
C43 C 0.98271 0.98023 0.12261 0.0
O44 O 0.97583 0.96242 0.04176 0.0
O45 O 0.00317 0.98767 1.00141 0.0
O46 O 0.98891 0.01391 0.97339 0.0
O47 O 0.96573 0.014 1.01095 0.0
O48 O 0.00651 0.96101 0.02655 0.0
O49 O 0.95153 0.99187 0.04253 0.0
O50 O 0.0288 0.04154 0.98324 0.0
O51 O 0.99871 0.01747 0.02312 0.0
O52 O 0.01284 0.99384 0.05287 0.0
O53 O 0.03559 0.98995 0.01577 0.0
O54 O 0.99714 0.0442 0.99897 0.0
O55 O 0.0512 0.01093 0.98744 0.0
C56 C 0.01133 0.96825 1.00357 0.0
C57 C 0.94224 0.96093 0.06256 0.0
C58 C 0.92198 0.93517 0.07227 0.0
C59 C 0.93353 0.94735 0.05494 0.0
C60 C 0.91896 0.93715 0.0975 0.0
C61 C 0.93925 0.96276 0.08769 0.0
C62 C 0.92755 0.95092 0.1051 0.0
C63 C 0.96965 0.01626 0.98641 0.0
C64 C 0.95573 0.97162 0.04392 0.0
C65 C 0.96996 0.99152 0.14153 0.0
C66 C 0.95538 0.01059 0.13569 0.0
C67 C 0.99073 0.03689 0.02147 0.0
C68 C 0.06457 0.03959 0.96831 0.0
C69 C 0.07367 0.05146 0.97821 0.0
C70 C 0.08884 0.06092 0.96346 0.0
C71 C 0.09539 0.05776 0.93854 0.0
C72 C 0.07084 0.03663 0.94341 0.0
C73 C 0.08636 0.04563 0.92859 0.0
C74 C 0.03209 0.99092 0.0398 0.0
C75 C 0.04826 0.03109 0.98467 0.0
H76 H 0.93585 0.9463 0.03536 0.0
H77 H 0.91025 0.92788 0.11136 0.0
H78 H 0.94608 0.97309 0.09383 0.0
H79 H 0.92531 0.95225 0.12454 0.0
H80 H 0.06882 0.05336 0.99758 0.0
H81 H 0.10708 0.06496 0.92671 0.0
H82 H 0.06375 0.02749 0.93555 0.0
H83 H 0.09125 0.0434 0.90933 0.0
Eu84 Eu 0.01265 0.2622 0.2822 0.0
C85 C 0.94228 0.24155 0.25069 0.0
C86 C 0.93712 0.21381 0.28414 0.0
C87 C 0.90756 0.23524 0.26451 0.0
C88 C 0.95043 0.22526 0.2682 0.0
C89 C 0.92092 0.24616 0.24813 0.0
C90 C 0.91561 0.2192 0.28255 0.0
C91 C 0.92785 0.2707 0.21189 0.0
N92 N 0.95538 0.25218 0.23534 0.0
C93 C 0.94877 0.2659 0.21542 0.0
C94 C 0.91374 0.26112 0.22864 0.0
Eu95 Eu 0.99075 0.24208 0.24183 0.0
N96 N 0.97136 0.22021 0.26928 0.0
C97 C 0.98003 0.20334 0.28519 0.0
C98 C 0.94584 0.19706 0.30102 0.0
C99 C 0.96741 0.1917 0.30138 0.0
H100 H 0.9596 0.27364 0.20268 0.0
H101 H 0.97434 0.17867 0.31426 0.0
H102 H 0.90517 0.21071 0.29482 0.0
H103 H 0.9226 0.28193 0.19641 0.0
H104 H 0.9965 0.19905 0.2864 0.0
H105 H 0.01925 0.32994 0.21137 0.0
H106 H 0.93611 0.188 0.31363 0.0
H107 H 0.04892 0.23087 0.31552 0.0
H108 H 0.00115 0.30593 0.23859 0.0
H109 H 0.0865 0.22517 0.31745 0.0
H110 H 0.89106 0.23879 0.26303 0.0
H111 H 0.05704 0.32507 0.2102 0.0
H112 H 0.09073 0.30397 0.22442 0.0
H113 H 0.8975 0.26495 0.22597 0.0
H114 H 0.10915 0.2752 0.25245 0.0
N115 N 0.02823 0.28684 0.25392 0.0
C116 C 0.01753 0.30329 0.23905 0.0
C117 C 0.0493 0.31407 0.22221 0.0
C118 C 0.06036 0.29723 0.23714 0.0
C119 C 0.02787 0.31703 0.22307 0.0
C120 C 0.04927 0.2837 0.25316 0.0
H121 H 0.10768 0.24609 0.28733 0.0
N122 N 0.04889 0.25452 0.28433 0.0
C123 C 0.07928 0.23689 0.3035 0.0
C124 C 0.05983 0.26718 0.26874 0.0
C125 C 0.058 0.24023 0.30239 0.0
C126 C 0.09117 0.2487 0.28645 0.0
C127 C 0.08143 0.26427 0.26905 0.0
O128 O 0.00937 0.25972 0.32211 0.0
O129 O 0.98366 0.25308 0.27937 0.0
O130 O 0.96972 0.27525 0.24472 0.0
O131 O 0.98361 0.28781 0.27172 0.0
O132 O 0.9964 0.2408 0.31114 0.0
O133 O 0.00937 0.28969 0.30007 0.0
O134 O 0.99584 0.24172 0.20207 0.0
O135 O 0.02001 0.25083 0.24481 0.0
O136 O 0.03352 0.22917 0.27921 0.0
O137 O 0.01779 0.2155 0.25532 0.0
O138 O 0.0075 0.26309 0.21286 0.0
O139 O 0.99504 0.21306 0.22673 0.0
C140 C 0.98025 0.24299 0.30096 0.0
C141 C 0.02086 0.28295 0.33958 0.0
C142 C 0.02512 0.30571 0.36624 0.0
C143 C 0.01593 0.30285 0.34715 0.0
C144 C 0.03996 0.28888 0.37681 0.0
C145 C 0.0353 0.26626 0.3512 0.0
C146 C 0.04507 0.26934 0.36922 0.0
C147 C 0.9696 0.2901 0.25721 0.0
C148 C 0.00892 0.27907 0.32223 0.0
C149 C 0.09252 0.27736 0.25262 0.0
C150 C 0.08202 0.29378 0.2367 0.0
C151 C 0.02356 0.26092 0.22322 0.0
C152 C 0.98366 0.21708 0.18784 0.0
C153 C 0.98646 0.19616 0.18461 0.0
C154 C 0.97547 0.19144 0.16849 0.0
C155 C 0.96145 0.20786 0.15601 0.0
C156 C 0.97024 0.2331 0.17411 0.0
C157 C 0.95893 0.22848 0.15879 0.0
C158 C 0.0324 0.21365 0.26876 0.0
C159 C 0.99595 0.2222 0.20387 0.0
H160 H 0.00424 0.31573 0.33917 0.0
H161 H 0.04732 0.2908 0.39135 0.0
H162 H 0.03854 0.25056 0.34718 0.0
H163 H 0.05617 0.25634 0.37791 0.0
H164 H 0.99736 0.18366 0.19429 0.0
H165 H 0.95304 0.20482 0.14322 0.0
H166 H 0.96879 0.24932 0.17459 0.0
H167 H 0.94859 0.24099 0.14848 0.0
Eu168 Eu 0.74189 0.24214 0.49386 0.0
C169 C 0.73708 0.27486 0.58662 0.0
C170 C 0.70799 0.30551 0.58048 0.0
C171 C 0.71384 0.29014 0.62209 0.0
C172 C 0.7258 0.29027 0.57069 0.0
C173 C 0.73126 0.27482 0.61251 0.0
C174 C 0.70219 0.30539 0.60613 0.0
C175 C 0.76038 0.2445 0.61806 0.0
N176 N 0.75342 0.2597 0.57704 0.0
C177 C 0.76547 0.245 0.59245 0.0
C178 C 0.74309 0.25936 0.62817 0.0
Eu179 Eu 0.76234 0.26258 0.5331 0.0
N180 N 0.73154 0.28989 0.54585 0.0
C181 C 0.71919 0.30396 0.53023 0.0
C182 C 0.6961 0.32024 0.56432 0.0
C183 C 0.70161 0.3193 0.53911 0.0
H184 H 0.77917 0.23341 0.58511 0.0
H185 H 0.69204 0.33013 0.52645 0.0
H186 H 0.68859 0.31697 0.61383 0.0
H187 H 0.76988 0.23263 0.62997 0.0
H188 H 0.72153 0.30303 0.511 0.0
H189 H 0.8127 0.17551 0.48719 0.0
H190 H 0.6823 0.33205 0.57117 0.0
H191 H 0.71665 0.27262 0.44889 0.0
H192 H 0.78443 0.20105 0.50829 0.0
H193 H 0.72036 0.2769 0.40345 0.0
H194 H 0.70915 0.29025 0.64187 0.0
H195 H 0.81732 0.17689 0.44196 0.0
H196 H 0.80452 0.19344 0.40253 0.0
H197 H 0.73912 0.25889 0.64807 0.0
H198 H 0.78059 0.22175 0.37945 0.0
N199 N 0.77175 0.21723 0.47575 0.0
C200 C 0.78537 0.20189 0.48875 0.0
C201 C 0.80455 0.18829 0.45122 0.0
C202 C 0.79079 0.204 0.43792 0.0
C203 C 0.80193 0.18738 0.47673 0.0
C204 C 0.77453 0.21868 0.45072 0.0
H205 H 0.74998 0.25336 0.37946 0.0
N206 N 0.74515 0.24841 0.45036 0.0
C207 C 0.73202 0.26513 0.41279 0.0
C208 C 0.76098 0.2347 0.43773 0.0
C209 C 0.73013 0.26281 0.43847 0.0
C210 C 0.74873 0.2518 0.39935 0.0
C211 C 0.76316 0.23607 0.41181 0.0
O212 O 0.71047 0.24494 0.48703 0.0
O213 O 0.73473 0.25036 0.53273 0.0
O214 O 0.76236 0.22926 0.55246 0.0
O215 O 0.74963 0.21542 0.52591 0.0
O216 O 0.7117 0.26382 0.51118 0.0
O217 O 0.73226 0.21414 0.4937 0.0
O218 O 0.79039 0.2567 0.54897 0.0
O219 O 0.76972 0.25342 0.49486 0.0
O220 O 0.74306 0.2752 0.4737 0.0
O221 O 0.75815 0.28819 0.49894 0.0
O222 O 0.79326 0.24136 0.51536 0.0
O223 O 0.7762 0.28814 0.53288 0.0
C224 C 0.7154 0.2605 0.53352 0.0
C225 C 0.7033 0.2167 0.47446 0.0
C226 C 0.67731 0.19836 0.47465 0.0
C227 C 0.68749 0.20736 0.48718 0.0
C228 C 0.68255 0.19967 0.44872 0.0
C229 C 0.70876 0.21775 0.44869 0.0
C230 C 0.69816 0.20943 0.43583 0.0
C231 C 0.75716 0.21359 0.54658 0.0
C232 C 0.71348 0.22481 0.4894 0.0
C233 C 0.77906 0.22122 0.39923 0.0
C234 C 0.79272 0.20518 0.41229 0.0
C235 C 0.78909 0.2435 0.49342 0.0
C236 C 0.81373 0.27649 0.52813 0.0
C237 C 0.81693 0.29546 0.51514 0.0
C238 C 0.83733 0.29714 0.50416 0.0
C239 C 0.85435 0.27903 0.50505 0.0
C240 C 0.83101 0.25868 0.52893 0.0
C241 C 0.85109 0.25994 0.51707 0.0
C242 C 0.75025 0.29017 0.47838 0.0
C243 C 0.79263 0.27543 0.54163 0.0
H244 H 0.68328 0.20687 0.50711 0.0
H245 H 0.67506 0.19267 0.43853 0.0
H246 H 0.72112 0.22477 0.4386 0.0
H247 H 0.70232 0.2102 0.41592 0.0
H248 H 0.80352 0.30902 0.51429 0.0
H249 H 0.8704 0.27961 0.49754 0.0
H250 H 0.82912 0.24377 0.53888 0.0
H251 H 0.86431 0.2462 0.51792 0.0
Eu252 Eu 0.74203 0.98903 0.74241 0.0
C253 C 0.76361 0.06201 0.77128 0.0
C254 C 0.79526 0.06302 0.74103 0.0
C255 C 0.77362 0.09467 0.75738 0.0
C256 C 0.78135 0.05174 0.75605 0.0
C257 C 0.75977 0.08355 0.77227 0.0
C258 C 0.79126 0.08446 0.74176 0.0
C259 C 0.729 0.08166 0.80319 0.0
N260 N 0.75001 0.05112 0.78492 0.0
C261 C 0.73332 0.06046 0.80148 0.0
C262 C 0.74216 0.09332 0.78833 0.0
Eu263 Eu 0.75943 0.01487 0.78204 0.0
N264 N 0.78474 0.031 0.75534 0.0
C265 C 0.8019 0.02076 0.74003 0.0
C266 C 0.81271 0.05252 0.72542 0.0
C267 C 0.81602 0.03132 0.72493 0.0
H268 H 0.72314 0.05147 0.81326 0.0
H269 H 0.82938 0.02307 0.71273 0.0
H270 H 0.80176 0.0933 0.73029 0.0
H271 H 0.71556 0.08897 0.81603 0.0
H272 H 0.80473 0.00461 0.73846 0.0
H273 H 0.67233 0.98316 0.81346 0.0
H274 H 0.82366 0.06066 0.71357 0.0
H275 H 0.77532 0.95136 0.71071 0.0
H276 H 0.69553 1.00111 0.78392 0.0
H277 H 0.78513 0.91298 0.71333 0.0
H278 H 0.77082 0.11121 0.75782 0.0
H279 H 0.68048 0.94471 0.81917 0.0
H280 H 0.70419 0.91078 0.80735 0.0
H281 H 0.73875 0.10979 0.78963 0.0
H282 H 0.73514 0.89166 0.78082 0.0
N283 N 0.71708 0.97345 0.77116 0.0
C284 C 0.69939 0.98447 0.78507 0.0
C285 C 0.69076 0.95258 0.80558 0.0
C286 C 0.70862 0.94129 0.79124 0.0
C287 C 0.68608 0.97426 0.80236 0.0
C288 C 0.72159 0.95227 0.77383 0.0
H289 H 0.76528 0.8923 0.74578 0.0
N290 N 0.75144 0.9523 0.74264 0.0
C291 C 0.77243 0.9207 0.72666 0.0
C292 C 0.73928 0.94143 0.75925 0.0
C293 C 0.76705 0.94239 0.72549 0.0
C294 C 0.76114 0.90912 0.74491 0.0
C295 C 0.74409 0.91946 0.76119 0.0
O296 O 0.74617 0.98691 0.70323 0.0
O297 O 0.7506 0.01822 0.74469 0.0
O298 O 0.72698 0.03532 0.77549 0.0
O299 O 0.71494 0.01785 0.75184 0.0
O300 O 0.76378 0.00464 0.71307 0.0
O301 O 0.71454 0.99507 0.72436 0.0
O302 O 0.75372 0.01356 0.82197 0.0
O303 O 0.75178 0.98537 0.77933 0.0
O304 O 0.77623 0.97111 0.74418 0.0
O305 O 0.78672 0.98645 0.77172 0.0
O306 O 0.73698 0.99932 0.81048 0.0
O307 O 0.78554 0.01107 0.80179 0.0
C308 C 0.76146 0.02089 0.72331 0.0
C309 C 0.71914 0.98006 0.68767 0.0
C310 C 0.69752 0.98159 0.65737 0.0
C311 C 0.70275 0.99101 0.67452 0.0
C312 C 0.70838 0.96092 0.65389 0.0
C313 C 0.72976 0.95933 0.68412 0.0
C314 C 0.7243 0.9498 0.66741 0.0
C315 C 0.71228 0.03351 0.76432 0.0
C316 C 0.72604 0.9914 0.7029 0.0
C317 C 0.73151 0.90853 0.77887 0.0
C318 C 0.71385 0.91942 0.7939 0.0
C319 C 0.74069 0.98264 0.80049 0.0
C320 C 0.77627 0.02512 0.84005 0.0
C321 C 0.79535 0.0195 0.84918 0.0
C322 C 0.79792 0.0304 0.86688 0.0
C323 C 0.78163 0.04771 0.87426 0.0
C324 C 0.75977 0.04165 0.84901 0.0
C325 C 0.76267 0.0532 0.86543 0.0
C326 C 0.79036 0.97217 0.7568 0.0
C327 C 0.77316 0.01229 0.82328 0.0
H328 H 0.69458 0.00709 0.67694 0.0
H329 H 0.70442 0.95335 0.64084 0.0
H330 H 0.74251 0.9506 0.69372 0.0
H331 H 0.73264 0.93385 0.66467 0.0
H332 H 0.80773 0.00608 0.84339 0.0
H333 H 0.7834 0.05679 0.88726 0.0
H334 H 0.74438 0.04534 0.84406 0.0
H335 H 0.74996 0.06611 0.87185 0.0
Eu336 Eu 0.51142 0.76239 0.28185 0.0
C337 C 0.4401 0.74139 0.261 0.0
C338 C 0.44055 0.70988 0.29053 0.0
C339 C 0.40711 0.7334 0.28213 0.0
C340 C 0.45144 0.72308 0.27344 0.0
C341 C 0.4178 0.74641 0.26495 0.0
C342 C 0.41844 0.71523 0.2949 0.0
C343 C 0.41792 0.77619 0.23343 0.0
N344 N 0.45066 0.75416 0.2449 0.0
C345 C 0.4399 0.77064 0.23006 0.0
C346 C 0.40679 0.76424 0.25127 0.0
Eu347 Eu 0.48811 0.74318 0.24059 0.0
N348 N 0.47292 0.71839 0.26947 0.0
C349 C 0.48416 0.70058 0.28195 0.0
C350 C 0.45212 0.69175 0.30313 0.0
C351 C 0.474 0.68709 0.29877 0.0
H352 H 0.44813 0.77963 0.21528 0.0
H353 H 0.48313 0.67317 0.30861 0.0
H354 H 0.40993 0.70535 0.30812 0.0
H355 H 0.4096 0.78956 0.22202 0.0
H356 H 0.50093 0.69656 0.27993 0.0
H357 H 0.52509 0.82741 0.21193 0.0
H358 H 0.44431 0.68132 0.3164 0.0
H359 H 0.54461 0.72778 0.3173 0.0
H360 H 0.50403 0.80546 0.23941 0.0
H361 H 0.58237 0.71826 0.32048 0.0
H362 H 0.39004 0.73719 0.28555 0.0
H363 H 0.56328 0.81874 0.21153 0.0
H364 H 0.59558 0.79487 0.22722 0.0
H365 H 0.38971 0.76855 0.25381 0.0
H366 H 0.61128 0.76478 0.25583 0.0
N367 N 0.53017 0.78391 0.2539 0.0
C368 C 0.52072 0.80118 0.2392 0.0
C369 C 0.55429 0.80869 0.22328 0.0
C370 C 0.5639 0.79111 0.23856 0.0
C371 C 0.53264 0.81375 0.22359 0.0
C372 C 0.55123 0.77887 0.2541 0.0
H373 H 0.60653 0.73629 0.29078 0.0
N374 N 0.5475 0.75063 0.28566 0.0
C375 C 0.57647 0.73019 0.30596 0.0
C376 C 0.56014 0.76176 0.27026 0.0
C377 C 0.55513 0.73562 0.30411 0.0
C378 C 0.58998 0.74051 0.28924 0.0
C379 C 0.58183 0.75673 0.27139 0.0
O380 O 0.50913 0.76333 0.32121 0.0
O381 O 0.48227 0.75343 0.2788 0.0
O382 O 0.47509 0.77864 0.23665 0.0
O383 O 0.48163 0.78686 0.27227 0.0
O384 O 0.49533 0.74077 0.31056 0.0
O385 O 0.50658 0.79204 0.29584 0.0
O386 O 0.48048 0.7492 0.20371 0.0
O387 O 0.51442 0.75648 0.24304 0.0
O388 O 0.53192 0.72978 0.27591 0.0
O389 O 0.51715 0.71719 0.24962 0.0
O390 O 0.51403 0.75033 0.20889 0.0
O391 O 0.49075 0.71667 0.22117 0.0
C392 C 0.47914 0.74304 0.3003 0.0
C393 C 0.52039 0.79007 0.33255 0.0
C394 C 0.52615 0.81653 0.35291 0.0
C395 C 0.51403 0.81043 0.33929 0.0
C396 C 0.54458 0.80216 0.35957 0.0
C397 C 0.53851 0.77593 0.3404 0.0
C398 C 0.55062 0.78202 0.35346 0.0
C399 C 0.47131 0.79125 0.25342 0.0
C400 C 0.50756 0.78329 0.31865 0.0
C401 C 0.59457 0.7685 0.25534 0.0
C402 C 0.58562 0.78566 0.23903 0.0
C403 C 0.52476 0.75663 0.22083 0.0
C404 C 0.4821 0.72272 0.17907 0.0
C405 C 0.48985 0.70173 0.17446 0.0
C406 C 0.48871 0.69644 0.15163 0.0
C407 C 0.47935 0.71212 0.13392 0.0
C408 C 0.47257 0.73797 0.16104 0.0
C409 C 0.4712 0.73267 0.13871 0.0
C410 C 0.53176 0.7153 0.26311 0.0
C411 C 0.48463 0.72942 0.20175 0.0
H412 H 0.49976 0.82139 0.33409 0.0
H413 H 0.55404 0.80636 0.37021 0.0
H414 H 0.54316 0.75998 0.33704 0.0
H415 H 0.56456 0.77093 0.35926 0.0
H416 H 0.49715 0.68974 0.18816 0.0
H417 H 0.47808 0.70838 0.11641 0.0
H418 H 0.4663 0.75415 0.16407 0.0
H419 H 0.46389 0.74457 0.12498 0.0
Eu420 Eu 0.24001 0.74271 0.4881 0.0
C421 C 0.24024 0.76206 0.5859 0.0
C422 C 0.2092 0.79157 0.58735 0.0
C423 C 0.21834 0.76991 0.62544 0.0
C424 C 0.22704 0.77902 0.57375 0.0
C425 C 0.23622 0.75763 0.61195 0.0
C426 C 0.20484 0.78679 0.61317 0.0
C427 C 0.26851 0.7299 0.60975 0.0
N428 N 0.25714 0.75007 0.57243 0.0
C429 C 0.27183 0.73485 0.58404 0.0
C430 C 0.25046 0.74114 0.62377 0.0
Eu431 Eu 0.26174 0.7601 0.52893 0.0
N432 N 0.23139 0.78312 0.54869 0.0
C433 C 0.21886 0.79996 0.53627 0.0
C434 C 0.19615 0.80853 0.57461 0.0
C435 C 0.20108 0.81278 0.54897 0.0
H436 H 0.28596 0.72615 0.57332 0.0
H437 H 0.19112 0.82589 0.53893 0.0
H438 H 0.19112 0.79616 0.62385 0.0
H439 H 0.27991 0.71747 0.61873 0.0
H440 H 0.22206 0.80342 0.5165 0.0
H441 H 0.30538 0.66952 0.49499 0.0
H442 H 0.18228 0.81845 0.5844 0.0
H443 H 0.23041 0.77532 0.43575 0.0
H444 H 0.28202 0.70123 0.50898 0.0
H445 H 0.2382 0.77491 0.39116 0.0
H446 H 0.2149 0.76658 0.64542 0.0
H447 H 0.30875 0.66343 0.45202 0.0
H448 H 0.29982 0.67716 0.40984 0.0
H449 H 0.2479 0.73728 0.64373 0.0
H450 H 0.28198 0.70613 0.38147 0.0
N451 N 0.26846 0.71273 0.47596 0.0
C452 C 0.28141 0.69859 0.49095 0.0
C453 C 0.29762 0.67733 0.45844 0.0
C454 C 0.28631 0.69274 0.44232 0.0
C455 C 0.29563 0.68062 0.4827 0.0
C456 C 0.27211 0.7107 0.45156 0.0
H457 H 0.26088 0.74317 0.37396 0.0
N458 N 0.25054 0.74486 0.4445 0.0
C459 C 0.24544 0.76145 0.40332 0.0
C460 C 0.26297 0.72732 0.43537 0.0
C461 C 0.2415 0.76174 0.42882 0.0
C462 C 0.25809 0.74349 0.39373 0.0
C463 C 0.26691 0.7261 0.40976 0.0
O464 O 0.21037 0.76206 0.47722 0.0
O465 O 0.23035 0.75962 0.52164 0.0
O466 O 0.25958 0.72682 0.54599 0.0
O467 O 0.24426 0.71481 0.51978 0.0
O468 O 0.21631 0.73594 0.52205 0.0
O469 O 0.22109 0.72939 0.47192 0.0
O470 O 0.29127 0.75726 0.54078 0.0
O471 O 0.2683 0.75275 0.48983 0.0
O472 O 0.23983 0.7772 0.47333 0.0
O473 O 0.25823 0.78735 0.49714 0.0
O474 O 0.29108 0.73729 0.51085 0.0
O475 O 0.27131 0.78794 0.53047 0.0
C476 C 0.21689 0.74986 0.53453 0.0
C477 C 0.18412 0.74475 0.48056 0.0
C478 C 0.15947 0.72374 0.49929 0.0
C479 C 0.18021 0.72564 0.49226 0.0
C480 C 0.14261 0.74156 0.49549 0.0
C481 C 0.16712 0.76228 0.47692 0.0
C482 C 0.14647 0.76071 0.48461 0.0
C483 C 0.25191 0.71252 0.54065 0.0
C484 C 0.20573 0.74653 0.47112 0.0
C485 C 0.27944 0.70758 0.40092 0.0
C486 C 0.28938 0.69102 0.41711 0.0
C487 C 0.28707 0.74131 0.48859 0.0
C488 C 0.30794 0.7828 0.5184 0.0
C489 C 0.30971 0.80313 0.51602 0.0
C490 C 0.32667 0.80915 0.49999 0.0
C491 C 0.34141 0.79483 0.48541 0.0
C492 C 0.32317 0.76841 0.50431 0.0
C493 C 0.3396 0.77453 0.48759 0.0
C494 C 0.24825 0.79115 0.47807 0.0
C495 C 0.28989 0.77711 0.53521 0.0
H496 H 0.19332 0.71213 0.49537 0.0
H497 H 0.12642 0.74059 0.49998 0.0
H498 H 0.16983 0.77715 0.46786 0.0
H499 H 0.13341 0.77425 0.48152 0.0
H500 H 0.29804 0.81418 0.52702 0.0
H501 H 0.3548 0.799 0.47314 0.0
H502 H 0.32254 0.75242 0.50623 0.0
H503 H 0.35121 0.7634 0.47673 0.0
Eu504 Eu 0.24281 0.49076 0.74104 0.0
C505 C 0.27005 0.56016 0.77115 0.0
C506 C 0.30259 0.55877 0.7419 0.0
C507 C 0.28496 0.59003 0.76111 0.0
C508 C 0.28679 0.5492 0.75545 0.0
C509 C 0.26897 0.58076 0.77405 0.0
C510 C 0.30178 0.57901 0.74521 0.0
C511 C 0.23755 0.58088 0.80449 0.0
N512 N 0.25517 0.55059 0.78414 0.0
C513 C 0.23958 0.56033 0.80149 0.0
C514 C 0.25225 0.59121 0.79057 0.0
Eu515 Eu 0.26133 0.51479 0.78077 0.0
N516 N 0.28771 0.52924 0.75343 0.0
C517 C 0.30351 0.51858 0.73698 0.0
C518 C 0.31891 0.5477 0.72553 0.0
C519 C 0.31919 0.52762 0.72284 0.0
H520 H 0.22875 0.55213 0.81333 0.0
H521 H 0.3315 0.51904 0.70983 0.0
H522 H 0.31426 0.58618 0.7357 0.0
H523 H 0.22493 0.58856 0.81793 0.0
H524 H 0.30392 0.50337 0.73367 0.0
H525 H 0.17327 0.4842 0.81195 0.0
H526 H 0.3312 0.55461 0.71468 0.0
H527 H 0.27779 0.45346 0.70946 0.0
H528 H 0.1977 0.50219 0.78474 0.0
H529 H 0.28486 0.41584 0.70793 0.0
H530 H 0.28459 0.60563 0.76358 0.0
H531 H 0.17873 0.44645 0.81259 0.0
H532 H 0.19996 0.4134 0.7964 0.0
H533 H 0.25088 0.60703 0.79322 0.0
H534 H 0.23021 0.39486 0.76854 0.0
N535 N 0.21737 0.47527 0.76861 0.0
C536 C 0.20041 0.48592 0.78382 0.0
C537 C 0.18957 0.45437 0.80009 0.0
C538 C 0.2067 0.4435 0.7844 0.0
C539 C 0.18642 0.47566 0.79976 0.0
C540 C 0.22054 0.45446 0.76859 0.0
H541 H 0.26178 0.39557 0.73574 0.0
N542 N 0.25148 0.45443 0.73875 0.0
C543 C 0.27174 0.42343 0.72093 0.0
C544 C 0.23791 0.44384 0.75318 0.0
C545 C 0.26776 0.44471 0.72202 0.0
C546 C 0.25864 0.41209 0.73658 0.0
C547 C 0.24142 0.42225 0.75281 0.0
O548 O 0.24696 0.4902 0.70142 0.0
O549 O 0.2513 0.51988 0.74379 0.0
O550 O 0.22838 0.53555 0.77708 0.0
O551 O 0.21626 0.51959 0.75174 0.0
O552 O 0.26486 0.50646 0.71212 0.0
O553 O 0.21542 0.49636 0.72296 0.0
O554 O 0.25434 0.51607 0.82004 0.0
O555 O 0.25262 0.48574 0.77816 0.0
O556 O 0.27574 0.4702 0.74597 0.0
O557 O 0.28849 0.48635 0.77046 0.0
O558 O 0.23805 0.50021 0.80876 0.0
O559 O 0.28748 0.5072 0.80208 0.0
C560 C 0.2621 0.52278 0.72246 0.0
C561 C 0.22115 0.48001 0.68703 0.0
C562 C 0.19585 0.47478 0.66493 0.0
C563 C 0.2012 0.48645 0.67974 0.0
C564 C 0.21028 0.45596 0.65874 0.0
C565 C 0.23574 0.46192 0.67904 0.0
C566 C 0.23012 0.4497 0.66562 0.0
C567 C 0.21356 0.53438 0.76564 0.0
C568 C 0.22693 0.49311 0.70135 0.0
C569 C 0.22765 0.41144 0.76851 0.0
C570 C 0.21041 0.422 0.78432 0.0
C571 C 0.24142 0.48335 0.79935 0.0
C572 C 0.27979 0.50819 0.84714 0.0
C573 C 0.30099 0.50229 0.85035 0.0
C574 C 0.30607 0.49984 0.8741 0.0
C575 C 0.28967 0.50338 0.89449 0.0
C576 C 0.26372 0.51165 0.86783 0.0
C577 C 0.26868 0.50922 0.89132 0.0
C578 C 0.29072 0.47126 0.75725 0.0
C579 C 0.27405 0.51039 0.82259 0.0
H580 H 0.19029 0.50098 0.68469 0.0
H581 H 0.20643 0.44627 0.64805 0.0
H582 H 0.25168 0.45738 0.68251 0.0
H583 H 0.24137 0.43558 0.66 0.0
H584 H 0.31345 0.49955 0.8345 0.0
H585 H 0.29304 0.50218 0.91289 0.0
H586 H 0.24724 0.51622 0.86594 0.0
H587 H 0.2562 0.51205 0.90711 0.0
Eu588 Eu 0.97998 0.49562 0.53533 0.0
C589 C 0.02971 0.50884 0.42631 0.0
C590 C 0.05814 0.47713 0.42373 0.0
C591 C 0.04588 0.49737 0.38631 0.0
C592 C 0.0432 0.49182 0.43781 0.0
C593 C 0.0311 0.51198 0.4004 0.0
C594 C 0.05936 0.47997 0.39796 0.0
C595 C 0.00365 0.54419 0.40417 0.0
N596 N 0.01542 0.52252 0.44042 0.0
C597 C 0.00295 0.54042 0.42976 0.0
C598 C 0.01772 0.52984 0.38941 0.0
Eu599 Eu 0.01543 0.51573 0.48338 0.0
N600 N 0.04128 0.48929 0.46283 0.0
C601 C 0.05439 0.47268 0.47481 0.0
C602 C 0.07134 0.45995 0.43598 0.0
C603 C 0.06947 0.45776 0.46162 0.0
H604 H 0.99224 0.55164 0.44119 0.0
H605 H 0.0796 0.44452 0.47129 0.0
H606 H 0.07072 0.46883 0.38685 0.0
H607 H 0.9934 0.55817 0.39584 0.0
H608 H 0.05315 0.47043 0.49461 0.0
H609 H 0.92203 0.56759 0.56024 0.0
H610 H 0.08299 0.44831 0.42583 0.0
H611 H 0.00356 0.45396 0.57193 0.0
H612 H 0.94267 0.54188 0.53265 0.0
H613 H 0.00752 0.44373 0.61589 0.0
H614 H 0.04711 0.49944 0.36639 0.0
H615 H 0.9254 0.56093 0.60445 0.0
H616 H 0.9413 0.53678 0.63957 0.0
H617 H 0.01828 0.5328 0.36956 0.0
H618 H 0.96449 0.50318 0.6547 0.0
N619 N 0.95815 0.52075 0.56068 0.0
C620 C 0.94435 0.53858 0.55186 0.0
C621 C 0.93453 0.54948 0.5924 0.0
C622 C 0.94798 0.53078 0.60156 0.0
C623 C 0.93257 0.55329 0.56748 0.0
C624 C 0.95962 0.51646 0.58506 0.0
H625 H 0.9892 0.46841 0.64604 0.0
N626 N 0.98355 0.48418 0.5772 0.0
C627 C 0.99773 0.45895 0.60985 0.0
C628 C 0.97273 0.49762 0.59357 0.0
C629 C 0.99541 0.46475 0.58501 0.0
C630 C 0.98738 0.47294 0.6268 0.0
C631 C 0.9745 0.49246 0.61881 0.0
O632 O 0.9711 0.46658 0.53969 0.0
O633 O 0.99998 0.49014 0.49854 0.0
O634 O 0.98617 0.51606 0.46893 0.0
O635 O 0.96199 0.51653 0.50576 0.0
O636 O 0.00313 0.46508 0.52608 0.0
O637 O 0.94727 0.49633 0.53656 0.0
O638 O 0.02102 0.54653 0.47338 0.0
O639 O 0.99513 0.52115 0.51934 0.0
O640 O 0.00757 0.49608 0.5514 0.0
O641 O 0.03281 0.49839 0.5158 0.0
O642 O 0.99174 0.54629 0.49207 0.0
O643 O 0.04568 0.52001 0.48607 0.0
C644 C 0.00865 0.47086 0.5028 0.0
C645 C 0.93623 0.4666 0.55711 0.0
C646 C 0.91376 0.44316 0.56453 0.0
C647 C 0.92803 0.45314 0.54863 0.0
C648 C 0.90748 0.44706 0.58922 0.0
C649 C 0.93026 0.47031 0.58178 0.0
C650 C 0.91583 0.46055 0.59779 0.0
C651 C 0.96664 0.51875 0.48138 0.0
C652 C 0.95124 0.47604 0.53953 0.0
C653 C 0.96325 0.50681 0.63525 0.0
C654 C 0.95004 0.52594 0.62664 0.0
C655 C 0.98657 0.54045 0.51543 0.0
C656 C 0.0559 0.54891 0.46116 0.0
C657 C 0.064 0.56246 0.46973 0.0
C658 C 0.07885 0.57198 0.45412 0.0
C659 C 0.08555 0.56764 0.4296 0.0
C660 C 0.06248 0.54475 0.4367 0.0
C661 C 0.0773 0.55414 0.42096 0.0
C662 C 0.02705 0.49561 0.54026 0.0
C663 C 0.04015 0.53999 0.47822 0.0
H664 H 0.93271 0.45054 0.5294 0.0
H665 H 0.89643 0.43951 0.60185 0.0
H666 H 0.9367 0.48065 0.58854 0.0
H667 H 0.91115 0.46338 0.61686 0.0
H668 H 0.05883 0.56539 0.48879 0.0
H669 H 0.09695 0.57483 0.41709 0.0
H670 H 0.05616 0.53439 0.42983 0.0
H671 H 0.08238 0.55098 0.40203 0.0
Eu672 Eu 0.24197 0.24295 0.99119 0.0
C673 C 0.23156 0.27134 0.08658 0.0
C674 C 0.20262 0.30224 0.08078 0.0
C675 C 0.20549 0.28349 0.12196 0.0
C676 C 0.2213 0.28797 0.0709 0.0
C677 C 0.22393 0.26929 0.11235 0.0
C678 C 0.19482 0.29984 0.10622 0.0
C679 C 0.25368 0.23961 0.1179 0.0
N680 N 0.24891 0.25716 0.07691 0.0
C681 C 0.2605 0.242 0.09239 0.0
C682 C 0.23512 0.2531 0.1279 0.0
Eu683 Eu 0.26018 0.26304 0.03334 0.0
N684 N 0.22894 0.28986 0.04612 0.0
C685 C 0.21791 0.3055 0.03057 0.0
C686 C 0.19194 0.31838 0.06482 0.0
C687 C 0.19958 0.31993 0.03963 0.0
H688 H 0.27499 0.23125 0.08515 0.0
H689 H 0.1911 0.33205 0.027 0.0
H690 H 0.1805 0.31061 0.11394 0.0
H691 H 0.26274 0.22728 0.1298 0.0
H692 H 0.22207 0.30688 1.01096 0.0
H693 H 0.31149 0.17511 1.00114 0.0
H694 H 0.17755 0.3295 0.07173 0.0
H695 H 0.22897 0.27269 0.93791 0.0
H696 H 0.28487 0.20589 0.01401 0.0
H697 H 0.23652 0.26996 0.89362 0.0
H698 H 0.19936 0.28197 0.14162 0.0
H699 H 0.31654 0.16717 0.95861 0.0
H700 H 0.30674 0.17759 0.9165 0.0
H701 H 0.22976 0.25112 0.14772 0.0
H702 H 0.28651 0.20348 0.88732 0.0
N703 N 0.27255 0.21505 0.98015 0.0
C704 C 0.28565 0.2024 0.99589 0.0
C705 C 0.30434 0.18071 0.96438 0.0
C706 C 0.29214 0.19445 0.94775 0.0
C707 C 0.30145 0.18504 0.98839 0.0
C708 C 0.27658 0.21202 0.95608 0.0
H709 H 0.26211 0.23874 0.87807 0.0
N710 N 0.25184 0.24433 0.9476 0.0
C711 C 0.24503 0.25784 0.90622 0.0
C712 C 0.26591 0.22707 0.93937 0.0
C713 C 0.24115 0.25949 0.93141 0.0
C714 C 0.25937 0.24016 0.89756 0.0
C715 C 0.26987 0.22445 0.91417 0.0
O716 O 0.21402 0.25058 0.97447 0.0
O717 O 0.23341 0.25113 0.03007 0.0
O718 O 0.25826 0.22944 0.05103 0.0
O719 O 0.24614 0.21583 0.02357 0.0
O720 O 0.21079 0.26414 1.00831 0.0
O721 O 0.22704 0.21857 0.98997 0.0
O722 O 0.28742 0.25518 0.05094 0.0
O723 O 0.2687 0.25478 0.99456 0.0
O724 O 0.24443 0.27592 0.97208 0.0
O725 O 0.25682 0.28942 0.99963 0.0
O726 O 0.29238 0.24438 0.0149 0.0
O727 O 0.27235 0.28798 0.04022 0.0
C728 C 0.21418 0.26114 0.03067 0.0
C729 C 0.18965 0.23132 0.99399 0.0
C730 C 0.1652 0.21112 0.01688 0.0
C731 C 0.18582 0.21236 1.00626 0.0
C732 C 0.1486 0.22959 0.01623 0.0
C733 C 0.17276 0.24947 0.99343 0.0
C734 C 0.15246 0.2486 1.00484 0.0
C735 C 0.25254 0.21405 0.045 0.0
C736 C 0.21105 0.23203 0.98111 0.0
C737 C 0.28399 0.20615 0.90634 0.0
C738 C 0.29532 0.19131 0.92301 0.0
C739 C 0.28826 0.24579 0.99309 0.0
C740 C 0.30797 0.27802 0.04914 0.0
C741 C 0.31489 0.2939 0.03231 0.0
C742 C 0.33453 0.29724 0.03269 0.0
C743 C 0.34697 0.28435 0.05002 0.0
C744 C 0.32076 0.2654 0.06606 0.0
C745 C 0.34017 0.26849 0.06638 0.0
C746 C 0.25018 0.29129 0.97817 0.0
C747 C 0.28723 0.27441 0.05102 0.0
H748 H 0.19892 0.1985 1.00694 0.0
H749 H 0.1324 0.22937 0.02348 0.0
H750 H 0.17514 0.26437 0.98404 0.0
H751 H 0.13954 0.26262 1.00419 0.0
H752 H 0.30498 0.30367 0.01932 0.0
H753 H 0.36171 0.28692 0.05168 0.0
H754 H 0.31555 0.25325 0.07939 0.0
H755 H 0.34978 0.25887 0.07973 0.0
Eu756 Eu 0.24038 0.99108 0.24626 0.0
C757 C 0.2776 0.06049 0.25708 0.0
C758 C 0.30843 0.05396 0.22515 0.0
C759 C 0.29398 0.08854 0.23738 0.0
C760 C 0.29281 0.04667 0.24297 0.0
C761 C 0.27806 0.08157 0.25441 0.0
C762 C 0.30911 0.07477 0.22277 0.0
C763 C 0.24691 0.08763 0.28567 0.0
N764 N 0.26202 0.05359 0.27297 0.0
C765 C 0.24709 0.06671 0.28767 0.0
C766 C 0.26243 0.09514 0.26889 0.0
Eu767 Eu 0.26403 0.01752 0.27796 0.0
N768 N 0.29151 0.02664 0.24536 0.0
C769 C 0.30417 0.01418 0.22818 0.0
C770 C 0.32246 0.04042 0.20946 0.0
C771 C 0.32001 0.0206 0.21066 0.0
H772 H 0.23517 0.06113 0.30119 0.0
H773 H 0.32994 0.0104 0.19756 0.0
H774 H 0.32105 0.0805 0.20927 0.0
H775 H 0.23487 0.0979 0.29721 0.0
H776 H 0.30168 0.99966 0.2264 0.0
H777 H 0.18158 0.961 0.31481 0.0
H778 H 0.33457 0.04547 0.19555 0.0
H779 H 0.27466 0.96718 0.2008 0.0
H780 H 0.19814 0.98793 0.28986 0.0
H781 H 0.29042 0.93139 0.19006 0.0
H782 H 0.29456 0.10463 0.23514 0.0
H783 H 0.19851 0.92371 0.31107 0.0
H784 H 0.22736 0.89669 0.28962 0.0
H785 H 0.26227 0.11138 0.26734 0.0
H786 H 0.25723 0.88855 0.25567 0.0
N787 N 0.22428 0.96619 0.27209 0.0
C788 C 0.20565 0.97176 0.28786 0.0
C789 C 0.20584 0.93549 0.29996 0.0
C790 C 0.22441 0.92996 0.28291 0.0
C791 C 0.19617 0.95652 0.30205 0.0
C792 C 0.23323 0.94592 0.26877 0.0
H793 H 0.28054 0.90142 0.21804 0.0
N794 N 0.25694 0.9573 0.23503 0.0
C795 C 0.27935 0.9339 0.20705 0.0
C796 C 0.2501 0.94131 0.2497 0.0
C797 C 0.27041 0.95411 0.21313 0.0
C798 C 0.27371 0.91704 0.22291 0.0
C799 C 0.25852 0.92067 0.2442 0.0
O800 O 0.23434 0.99863 0.20827 0.0
O801 O 0.24963 0.02062 0.2449 0.0
O802 O 0.23049 0.03729 0.27474 0.0
O803 O 0.21331 0.01531 0.26555 0.0
O804 O 0.25995 0.00649 0.21342 0.0
O805 O 0.20927 0.99367 0.23799 0.0
O806 O 0.249 0.0237 0.31536 0.0
O807 O 0.24465 0.99403 0.28415 0.0
O808 O 0.27353 0.9703 0.251 0.0
O809 O 0.29056 0.98877 0.2678 0.0
O810 O 0.27063 0.98631 0.30209 0.0
O811 O 0.28191 0.02358 0.30276 0.0
C812 C 0.25861 0.023 0.22265 0.0
C813 C 0.20896 0.98526 0.19893 0.0
C814 C 0.19199 0.98497 0.16477 0.0
C815 C 0.19664 0.99599 0.18078 0.0
C816 C 0.19974 0.96312 0.16712 0.0
C817 C 0.21613 0.96341 0.20141 0.0
C818 C 0.21162 0.95242 0.18548 0.0
C819 C 0.21308 0.03318 0.2721 0.0
C820 C 0.21503 0.99719 0.21417 0.0
C821 C 0.25076 0.90454 0.25937 0.0
C822 C 0.23374 0.90918 0.2787 0.0
C823 C 0.25486 0.98022 0.29959 0.0
C824 C 0.27205 0.01105 0.34486 0.0
C825 C 0.28894 0.01312 0.35432 0.0
C826 C 0.29517 1.00035 0.37589 0.0
C827 C 0.28411 0.98552 0.38799 0.0
C828 C 0.26116 0.99621 0.35735 0.0
C829 C 0.26726 0.98351 0.37873 0.0
C830 C 0.2903 0.9722 0.25837 0.0
C831 C 0.2665 0.02403 0.32161 0.0
H832 H 0.19089 0.01286 0.17891 0.0
H833 H 0.19613 0.95429 0.15515 0.0
H834 H 0.22523 0.95484 0.21551 0.0
H835 H 0.21729 0.93557 0.18742 0.0
H836 H 0.2975 0.02439 0.34453 0.0
H837 H 0.28833 0.97561 0.40479 0.0
H838 H 0.24808 0.99423 0.35055 0.0
H839 H 0.25892 0.97201 0.38814 0.0
Eu840 Eu 0.51158 0.26355 0.77887 0.0
C841 C 0.44111 0.23203 0.76754 0.0
C842 C 0.44614 0.20205 0.79956 0.0
C843 C 0.41102 0.21951 0.79054 0.0
C844 C 0.45462 0.21607 0.78079 0.0
C845 C 0.41923 0.2336 0.77212 0.0
C846 C 0.42441 0.20384 0.80425 0.0
C847 C 0.41483 0.26268 0.7394 0.0
N848 N 0.44912 0.24612 0.75042 0.0
C849 C 0.43646 0.26066 0.73558 0.0
C850 C 0.40612 0.24927 0.75798 0.0
Eu851 Eu 0.4862 0.24046 0.74374 0.0
N852 N 0.47568 0.21481 0.77632 0.0
C853 C 0.48857 0.2005 0.79119 0.0
C854 C 0.4596 0.18687 0.81368 0.0
C855 C 0.48084 0.18626 0.80963 0.0
H856 H 0.44292 0.27098 0.72069 0.0
H857 H 0.49126 0.17507 0.82112 0.0
H858 H 0.41776 0.19322 0.81862 0.0
H859 H 0.40492 0.27453 0.72791 0.0
H860 H 0.50466 0.20021 0.79029 0.0
H861 H 0.54043 0.31905 0.70538 0.0
H862 H 0.45364 0.17594 0.82825 0.0
H863 H 0.53678 0.22707 0.82023 0.0
H864 H 0.51411 0.30145 0.73049 0.0
H865 H 0.57273 0.21398 0.83074 0.0
H866 H 0.39427 0.22064 0.79439 0.0
H867 H 0.57713 0.30776 0.71331 0.0
H868 H 0.60408 0.28364 0.7378 0.0
H869 H 0.3893 0.2509 0.76097 0.0
H870 H 0.61301 0.2547 0.77111 0.0
N871 N 0.53565 0.28038 0.75255 0.0
C872 C 0.53 0.29645 0.73432 0.0
C873 C 0.5656 0.30003 0.72454 0.0
C874 C 0.57123 0.28363 0.74342 0.0
C875 C 0.5449 0.30644 0.71998 0.0
C876 C 0.55567 0.27398 0.75742 0.0
H877 H 0.60154 0.22856 0.80564 0.0
N878 N 0.54557 0.24817 0.78902 0.0
C879 C 0.56969 0.2259 0.81505 0.0
C880 C 0.56082 0.25732 0.77594 0.0
C881 C 0.54942 0.23329 0.8091 0.0
C882 C 0.58586 0.23427 0.80091 0.0
C883 C 0.5815 0.25036 0.78131 0.0
O884 O 0.50649 0.26863 0.8174 0.0
O885 O 0.48154 0.25465 0.77881 0.0
O886 O 0.46788 0.27467 0.7441 0.0
O887 O 0.48695 0.29038 0.76146 0.0
O888 O 0.49466 0.24456 0.81059 0.0
O889 O 0.50755 0.2947 0.78836 0.0
O890 O 0.47837 0.24784 0.707 0.0
O891 O 0.51207 0.2558 0.74183 0.0
O892 O 0.53357 0.23168 0.77074 0.0
O893 O 0.51604 0.21551 0.75145 0.0
O894 O 0.51162 0.24557 0.71026 0.0
O895 O 0.48465 0.21506 0.72483 0.0
C896 C 0.47826 0.24609 0.80117 0.0
C897 C 0.51858 0.29578 0.82577 0.0
C898 C 0.5208 0.32052 0.85107 0.0
C899 C 0.50953 0.31428 0.83665 0.0
C900 C 0.54118 0.30847 0.85417 0.0
C901 C 0.53901 0.28404 0.82926 0.0
C902 C 0.55025 0.29038 0.84321 0.0
C903 C 0.47092 0.29118 0.75075 0.0
C904 C 0.50625 0.28833 0.81208 0.0
C905 C 0.59702 0.25991 0.76733 0.0
C906 C 0.59191 0.27646 0.74843 0.0
C907 C 0.52226 0.254 0.7198 0.0
C908 C 0.47425 0.22337 0.68331 0.0
C909 C 0.48179 0.20312 0.67626 0.0
C910 C 0.4774 0.19938 0.65415 0.0
C911 C 0.46497 0.21582 0.63983 0.0
C912 C 0.46176 0.23939 0.66859 0.0
C913 C 0.45713 0.23559 0.64709 0.0
C914 C 0.53239 0.21569 0.76106 0.0
C915 C 0.47932 0.22853 0.70552 0.0
H916 H 0.49371 0.32347 0.83439 0.0
H917 H 0.55007 0.31309 0.86514 0.0
H918 H 0.54629 0.26977 0.82164 0.0
H919 H 0.56597 0.2811 0.84575 0.0
H920 H 0.49144 0.19059 0.68739 0.0
H921 H 0.46119 0.21331 0.62295 0.0
H922 H 0.45552 0.25499 0.67369 0.0
H923 H 0.44751 0.24808 0.63592 0.0
Eu924 Eu 0.01251 0.76218 0.78109 0.0
C925 C 0.94169 0.74013 0.75743 0.0
C926 C 0.94057 0.71057 0.78952 0.0
C927 C 0.90821 0.73213 0.77569 0.0
C928 C 0.95204 0.7233 0.77266 0.0
C929 C 0.91973 0.74427 0.75828 0.0
C930 C 0.91861 0.71529 0.79125 0.0
C931 C 0.92254 0.77006 0.72223 0.0
N932 N 0.95324 0.75142 0.74047 0.0
C933 C 0.94423 0.76522 0.72196 0.0
C934 C 0.91014 0.75985 0.7408 0.0
Eu935 Eu 0.98998 0.74209 0.74119 0.0
N936 N 0.97333 0.71897 0.77057 0.0
C937 C 0.98407 0.70165 0.78422 0.0
C938 C 0.95154 0.69318 0.80384 0.0
C939 C 0.97337 0.68869 0.80115 0.0
H940 H 0.95383 0.77268 0.70699 0.0
H941 H 0.98201 0.67511 0.81198 0.0
H942 H 0.9096 0.70568 0.80412 0.0
H943 H 0.91546 0.78147 0.70793 0.0
H944 H 0.00088 0.69755 0.78248 0.0
H945 H 0.02088 0.82958 0.71073 0.0
H946 H 0.94342 0.68284 0.81659 0.0
H947 H 0.049 0.72978 0.81415 0.0
H948 H 0.00184 0.80692 0.73943 0.0
H949 H 0.08717 0.72163 0.81396 0.0
H950 H 0.89133 0.73521 0.77675 0.0
H951 H 0.05944 0.82224 0.70742 0.0
H952 H 0.09285 0.79967 0.72041 0.0
H953 H 0.89335 0.76344 0.74082 0.0
H954 H 0.1109 0.77022 0.748 0.0
N955 N 0.02912 0.78578 0.75236 0.0
C956 C 0.01857 0.80299 0.73836 0.0
C957 C 0.05113 0.81185 0.71985 0.0
C958 C 0.0619 0.79456 0.73443 0.0
C959 C 0.02938 0.8161 0.72183 0.0
C960 C 0.05034 0.78167 0.75092 0.0
H961 H 0.1088 0.7417 0.78318 0.0
N962 N 0.04927 0.7527 0.78215 0.0
C963 C 0.08002 0.73355 0.80012 0.0
C964 C 0.06064 0.76476 0.76617 0.0
C965 C 0.05845 0.73802 0.7999 0.0
C966 C 0.09216 0.74485 0.78274 0.0
C967 C 0.08253 0.7608 0.76569 0.0
O968 O 0.01117 0.76141 0.8205 0.0
O969 O 0.98309 0.75358 0.77853 0.0
O970 O 0.97239 0.77674 0.73933 0.0
O971 O 0.98314 0.78717 0.77074 0.0
O972 O 0.99516 0.74237 0.81098 0.0
O973 O 0.00845 0.79094 0.79673 0.0
O974 O 0.98657 0.74038 0.70351 0.0
O975 O 0.01913 0.75126 0.74338 0.0
O976 O 0.03047 0.72787 0.78213 0.0
O977 O 0.01961 0.71737 0.75104 0.0
O978 O 0.00674 0.76219 0.71109 0.0
O979 O 1.0001 0.7123 0.72659 0.0
C980 C 0.97928 0.74418 0.80047 0.0
C981 C 0.02288 0.78683 0.83366 0.0
C982 C 0.02816 0.81158 0.85682 0.0
C983 C 0.0172 0.80702 0.84061 0.0
C984 C 0.04536 0.79623 0.86506 0.0
C985 C 0.03971 0.77158 0.84303 0.0
C986 C 0.05112 0.77639 0.8581 0.0
C987 C 0.97085 0.79064 0.75388 0.0
C988 C 0.00982 0.78118 0.81908 0.0
C989 C 0.09406 0.77324 0.7488 0.0
C990 C 0.08378 0.79003 0.73315 0.0
C991 C 0.02261 0.76085 0.72145 0.0
C992 C 0.98172 0.70837 0.69709 0.0
C993 C 0.99251 0.69224 0.68266 0.0
C994 C 0.98136 0.68007 0.67597 0.0
C995 C 0.95943 0.68427 0.68358 0.0
C996 C 0.95974 0.71241 0.70411 0.0
C997 C 0.9487 0.70043 0.69743 0.0
C998 C 0.03199 0.71401 0.76769 0.0
C999 C 0.99367 0.72011 0.70556 0.0
H1000 H 0.00374 0.81876 0.83446 0.0
H1001 H 0.05401 0.79947 0.87744 0.0
H1002 H 0.04369 0.75567 0.83959 0.0
H1003 H 0.06406 0.76449 0.86509 0.0
H1004 H 0.00946 0.689 0.67693 0.0
H1005 H 0.95055 0.67523 0.67839 0.0
H1006 H 0.95099 0.72471 0.71479 0.0
H1007 H 0.93175 0.70371 0.703 0.0
Eu1008 Eu 0.73791 0.48856 0.24702 0.0
C1009 C 0.77185 0.56027 0.25605 0.0
C1010 C 0.80371 0.55543 0.22522 0.0
C1011 C 0.78747 0.58928 0.2389 0.0
C1012 C 0.78806 0.54724 0.24182 0.0
C1013 C 0.77161 0.58138 0.2549 0.0
C1014 C 0.80331 0.57642 0.2239 0.0
C1015 C 0.741 0.5852 0.28703 0.0
N1016 N 0.75682 0.55223 0.27168 0.0
C1017 C 0.74202 0.5642 0.28779 0.0
C1018 C 0.75587 0.59383 0.27052 0.0
Eu1019 Eu 0.76268 0.51548 0.27623 0.0
N1020 N 0.78838 0.52679 0.24377 0.0
C1021 C 0.80302 0.51442 0.22787 0.0
C1022 C 0.81935 0.54235 0.21026 0.0
C1023 C 0.81883 0.52183 0.21138 0.0
H1024 H 0.73096 0.55759 0.30163 0.0
H1025 H 0.83036 0.51177 0.19917 0.0
H1026 H 0.81532 0.58284 0.21145 0.0
H1027 H 0.72905 0.59456 0.29964 0.0
H1028 H 0.80246 0.49906 0.22658 0.0
H1029 H 0.66998 0.4909 0.32384 0.0
H1030 H 0.83157 0.54809 0.19732 0.0
H1031 H 0.76835 0.44704 0.21983 0.0
H1032 H 0.69572 0.50514 0.29446 0.0
H1033 H 0.77479 0.40892 0.22615 0.0
H1034 H 0.78781 0.60526 0.23816 0.0
H1035 H 0.67298 0.45318 0.33001 0.0
H1036 H 0.69323 0.41776 0.32019 0.0
H1037 H 0.75541 0.60995 0.27052 0.0
H1038 H 0.72273 0.39533 0.29541 0.0
N1039 N 0.71285 0.47653 0.28001 0.0
C1040 C 0.69706 0.48897 0.29484 0.0
C1041 C 0.68418 0.45951 0.31597 0.0
C1042 C 0.70086 0.44653 0.302 0.0
C1043 C 0.68238 0.48079 0.31246 0.0
C1044 C 0.71509 0.45553 0.28383 0.0
H1045 H 0.75327 0.39181 0.26076 0.0
N1046 N 0.74522 0.4516 0.25239 0.0
C1047 C 0.76295 0.41815 0.23896 0.0
C1048 C 0.73193 0.44276 0.27007 0.0
C1049 C 0.75949 0.43979 0.23576 0.0
C1050 C 0.75073 0.40859 0.25843 0.0
C1051 C 0.73461 0.42091 0.27382 0.0
O1052 O 0.74687 0.4825 0.2088 0.0
O1053 O 0.75765 0.51187 0.2394 0.0
O1054 O 0.72828 0.53442 0.27477 0.0
O1055 O 0.71152 0.51708 0.25626 0.0
O1056 O 0.73193 0.51941 0.22157 0.0
O1057 O 0.71483 0.4839 0.22813 0.0
O1058 O 0.75227 0.52122 0.31458 0.0
O1059 O 0.74273 0.49242 0.28393 0.0
O1060 O 0.77302 0.47026 0.24684 0.0
O1061 O 0.78903 0.48697 0.26725 0.0
O1062 O 0.76927 0.48431 0.30075 0.0
O1063 O 0.78451 0.52065 0.29653 0.0
C1064 C 0.74765 0.52557 0.22387 0.0
C1065 C 0.71905 0.49736 0.18558 0.0
C1066 C 0.69026 0.51134 0.16178 0.0
C1067 C 0.69906 0.49781 0.18151 0.0
C1068 C 0.70171 0.52468 0.14627 0.0
C1069 C 0.73032 0.51066 0.16967 0.0
C1070 C 0.72158 0.52431 0.15026 0.0
C1071 C 0.71162 0.53299 0.26678 0.0
C1072 C 0.7276 0.48336 0.20685 0.0
C1073 C 0.72076 0.41205 0.29218 0.0
C1074 C 0.70389 0.42483 0.30616 0.0
C1075 C 0.75323 0.47847 0.2988 0.0
C1076 C 0.77923 0.50873 0.33937 0.0
C1077 C 0.79637 0.51261 0.34637 0.0
C1078 C 0.805 0.50062 0.36703 0.0
C1079 C 0.79631 0.4844 0.38043 0.0
C1080 C 0.77064 0.49262 0.35318 0.0
C1081 C 0.77937 0.48039 0.37338 0.0
C1082 C 0.78938 0.47132 0.25593 0.0
C1083 C 0.77104 0.52141 0.31728 0.0
H1084 H 0.69033 0.48764 0.19385 0.0
H1085 H 0.6956 0.535 0.13063 0.0
H1086 H 0.74578 0.5107 0.17228 0.0
H1087 H 0.73034 0.53452 0.13813 0.0
H1088 H 0.80314 0.52485 0.33543 0.0
H1089 H 0.80238 0.47496 0.39657 0.0
H1090 H 0.75734 0.48932 0.34832 0.0
H1091 H 0.77301 0.46774 0.38365 0.0
Eu1092 Eu 0.742 0.74301 0.9916 0.0
C1093 C 0.73318 0.78068 0.08606 0.0
C1094 C 0.70628 0.81255 0.07746 0.0
C1095 C 0.71188 0.79969 0.1197 0.0
C1096 C 0.72294 0.79566 0.06912 0.0
C1097 C 0.72761 0.7824 0.11158 0.0
C1098 C 0.70122 0.81475 0.10266 0.0
C1099 C 0.75307 0.74943 0.11953 0.0
N1100 N 0.74793 0.76387 0.0778 0.0
C1101 C 0.75801 0.7484 0.09417 0.0
C1102 C 0.73781 0.76654 0.12831 0.0
Eu1103 Eu 0.7586 0.7639 0.03449 0.0
N1104 N 0.72793 0.79276 0.04491 0.0
C1105 C 0.71456 0.80496 0.02911 0.0
C1106 C 0.69442 0.82621 0.0605 0.0
C1107 C 0.69824 0.82204 0.03634 0.0
H1108 H 0.77041 0.7354 0.08776 0.0
H1109 H 0.68824 0.83163 0.02337 0.0
H1110 H 0.68862 0.82769 0.10926 0.0
H1111 H 0.76121 0.73711 0.13225 0.0
H1112 H 0.71534 0.80132 1.01107 0.0
H1113 H 0.80746 0.67178 0.99487 0.0
H1114 H 0.68152 0.83927 0.06619 0.0
H1115 H 0.726 0.77656 0.9413 0.0
H1116 H 0.77987 0.70004 0.01216 0.0
H1117 H 0.73654 0.78081 0.89626 0.0
H1118 H 0.7075 0.80132 0.13918 0.0
H1119 H 0.81783 0.67285 0.94961 0.0
H1120 H 0.81391 0.69219 0.90747 0.0
H1121 H 0.73398 0.76732 0.148 0.0
H1122 H 0.79592 0.72255 0.88094 0.0
N1123 N 0.7725 0.71699 0.97733 0.0
C1124 C 0.78312 0.70072 0.99248 0.0
C1125 C 0.80509 0.68527 0.95715 0.0
C1126 C 0.7949 0.70229 0.94165 0.0
C1127 C 0.79927 0.68458 0.98267 0.0
C1128 C 0.77833 0.7181 0.95236 0.0
H1129 H 0.7675 0.7557 0.87657 0.0
N1130 N 0.75198 0.7501 0.94789 0.0
C1131 C 0.74585 0.7682 0.90754 0.0
C1132 C 0.7682 0.73533 0.93733 0.0
C1133 C 0.74013 0.76581 0.93321 0.0
C1134 C 0.76324 0.75391 0.89654 0.0
C1135 C 0.77436 0.73699 0.91135 0.0
O1136 O 0.71633 0.74591 0.97242 0.0
O1137 O 0.73257 0.75187 0.02998 0.0
O1138 O 0.75687 0.73027 0.05212 0.0
O1139 O 0.74418 0.71689 0.02502 0.0
O1140 O 0.71003 0.7636 1.00807 0.0
O1141 O 0.73049 0.71586 0.99182 0.0
O1142 O 0.78836 0.74506 0.04539 0.0
O1143 O 0.77162 0.74641 1.00098 0.0
O1144 O 0.74361 0.77663 0.97464 0.0
O1145 O 0.75315 0.79177 1.00317 0.0
O1146 O 0.78233 0.77214 1.0017 0.0
O1147 O 0.77714 0.77782 0.05057 0.0
C1148 C 0.71328 0.7614 0.03045 0.0
C1149 C 0.69349 0.72533 0.99309 0.0
C1150 C 0.67001 0.7037 0.0143 0.0
C1151 C 0.69021 0.70563 1.00276 0.0
C1152 C 0.6532 0.72187 0.01643 0.0
C1153 C 0.67639 0.74325 0.99524 0.0
C1154 C 0.65646 0.74147 1.00706 0.0
C1155 C 0.75101 0.71492 0.04621 0.0
C1156 C 0.71471 0.72707 0.98088 0.0
C1157 C 0.79099 0.72144 0.90081 0.0
C1158 C 0.80115 0.7041 0.91591 0.0
C1159 C 0.78451 0.75728 0.98914 0.0
C1160 C 0.81432 0.76303 0.0412 0.0
C1161 C 0.81806 0.78261 0.03148 0.0
C1162 C 0.8388 0.78458 0.02375 0.0
C1163 C 0.85572 0.76644 0.02498 0.0
C1164 C 0.83145 0.74522 0.04226 0.0
C1165 C 0.85201 0.74693 0.03394 0.0
C1166 C 0.74793 0.79259 0.98118 0.0
C1167 C 0.79281 0.7609 0.05111 0.0
H1168 H 0.70337 0.69184 1.00118 0.0
H1169 H 0.63732 0.72099 0.0246 0.0
H1170 H 0.67832 0.7587 0.98782 0.0
H1171 H 0.6434 0.75533 1.00862 0.0
H1172 H 0.80487 0.79636 0.03037 0.0
H1173 H 0.87192 0.76732 0.01994 0.0
H1174 H 0.82895 0.72998 0.04978 0.0
H1175 H 0.86514 0.73314 0.03504 0.0
Eu1176 Eu 0.48657 0.9905 0.53881 0.0
C1177 C 0.51742 0.00898 0.42663 0.0
C1178 C 0.54969 0.98173 0.41884 0.0
C1179 C 0.52774 0.99576 0.38704 0.0
C1180 C 0.53491 0.99496 0.43487 0.0
C1181 C 0.51392 0.00994 0.4024 0.0
C1182 C 0.54565 0.98171 0.39523 0.0
C1183 C 0.48472 0.04033 0.40933 0.0
N1184 N 0.50468 0.02277 0.44166 0.0
C1185 C 0.48904 0.03892 0.43305 0.0
C1186 C 0.49706 0.02561 0.39403 0.0
Eu1187 Eu 0.5111 0.01789 0.48269 0.0
N1188 N 0.53839 0.99549 0.45774 0.0
C1189 C 0.55733 0.98452 0.46472 0.0
C1190 C 0.56856 0.96966 0.42651 0.0
C1191 C 0.57262 0.97151 0.44928 0.0
H1192 H 0.47935 0.05021 0.445 0.0
H1193 H 0.58743 0.9627 0.45513 0.0
H1194 H 0.55666 0.97144 0.38283 0.0
H1195 H 0.47188 0.05274 0.4029 0.0
H1196 H 0.56106 0.98552 0.48211 0.0
H1197 H 0.41524 0.05228 0.56418 0.0
H1198 H 0.58038 0.95945 0.41467 0.0
H1199 H 0.52067 0.95865 0.57358 0.0
H1200 H 0.44217 0.03082 0.53598 0.0
H1201 H 0.52568 0.9514 0.61736 0.0
H1202 H 0.52516 0.99607 0.36849 0.0
H1203 H 0.41735 0.04677 0.60866 0.0
H1204 H 0.43652 0.02716 0.64344 0.0
H1205 H 0.49379 0.02681 0.37558 0.0
H1206 H 0.46659 1.00006 0.65782 0.0
N1207 N 0.45982 0.01279 0.56399 0.0
C1208 C 0.44344 0.02787 0.55529 0.0
C1209 C 0.4293 0.03709 0.59634 0.0
C1210 C 0.446 0.02159 0.60522 0.0
C1211 C 0.42805 0.04026 0.57126 0.0
C1212 C 0.46119 0.00946 0.58841 0.0
H1213 H 0.49999 0.97197 0.64822 0.0
N1214 N 0.49292 0.98338 0.57978 0.0
C1215 C 0.51233 0.96357 0.61173 0.0
C1216 C 0.4783 0.9944 0.59649 0.0
C1217 C 0.50949 0.9677 0.58705 0.0
C1218 C 0.49778 0.97521 0.62909 0.0
C1219 C 0.48043 0.99075 0.62161 0.0
O1220 O 0.48825 0.95766 0.54994 0.0
O1221 O 0.50301 0.98873 0.50017 0.0
O1222 O 0.48198 0.01255 0.47383 0.0
O1223 O 0.46277 0.00425 0.51268 0.0
O1224 O 0.51401 0.96383 0.5248 0.0
O1225 O 0.45846 0.97995 0.54217 0.0
O1226 O 0.51308 0.04932 0.46587 0.0
O1227 O 0.49412 0.0202 0.52091 0.0
O1228 O 0.51284 0.99944 0.54912 0.0
O1229 O 0.53377 1.00163 0.51033 0.0
O1230 O 0.48355 0.04466 0.49528 0.0
O1231 O 0.53616 0.02958 0.48823 0.0
C1232 C 0.51541 0.97075 0.50146 0.0
C1233 C 0.45665 0.94772 0.56686 0.0
C1234 C 0.4326 0.92628 0.57122 0.0
C1235 C 0.44088 0.94281 0.55863 0.0
C1236 C 0.43869 0.91625 0.59406 0.0
C1237 C 0.46279 0.93775 0.58952 0.0
C1238 C 0.45342 0.92231 0.60334 0.0
C1239 C 0.46461 0.00949 0.48843 0.0
C1240 C 0.46836 0.96058 0.54899 0.0
C1241 C 0.46522 1.00263 0.63844 0.0
C1242 C 0.44807 0.01803 0.63026 0.0
C1243 C 0.48233 0.0385 0.51879 0.0
C1244 C 0.54645 0.05633 0.46 0.0
C1245 C 0.55753 0.06418 0.47255 0.0
C1246 C 0.57319 0.07368 0.45963 0.0
C1247 C 0.57789 0.07516 0.43371 0.0
C1248 C 0.55133 0.05733 0.43421 0.0
C1249 C 0.56711 0.06676 0.4211 0.0
C1250 C 0.53088 1.00063 0.53478 0.0
C1251 C 0.52986 0.04753 0.475 0.0
H1252 H 0.43602 0.95119 0.54135 0.0
H1253 H 0.43271 0.90332 0.60431 0.0
H1254 H 0.47512 0.94142 0.59608 0.0
H1255 H 0.45826 0.91438 0.62073 0.0
H1256 H 0.55346 0.06349 0.49254 0.0
H1257 H 0.58982 0.08274 0.42333 0.0
H1258 H 0.54292 0.05102 0.42435 0.0
H1259 H 0.57084 0.06777 0.40115 0.0
Eu1260 Eu 0.48662 0.49227 0.03597 0.0
C1261 C 0.52928 0.50041 0.92946 0.0
C1262 C 0.55855 0.46958 0.93338 0.0
C1263 C 0.54434 0.48027 0.89511 0.0
C1264 C 0.54362 0.48676 0.94344 0.0
C1265 C 0.5298 0.49755 0.90495 0.0
C1266 C 0.55865 0.4663 0.90932 0.0
C1267 C 0.50248 0.52982 0.90097 0.0
N1268 N 0.51504 0.5167 0.93959 0.0
C1269 C 0.5026 0.53199 0.92527 0.0
C1270 C 0.5159 0.51232 0.89087 0.0
Eu1271 Eu 0.51511 0.51869 0.98148 0.0
N1272 N 0.54295 0.49015 0.96683 0.0
C1273 C 0.55734 0.47715 0.98076 0.0
C1274 C 0.57295 0.45613 0.9478 0.0
C1275 C 0.5724 0.46001 0.97153 0.0
H1276 H 0.49228 0.5457 0.93288 0.0
H1277 H 0.58347 0.44967 0.98286 0.0
H1278 H 0.5699 0.45311 0.90142 0.0
H1279 H 0.49205 0.54164 0.89005 0.0
H1280 H 0.55711 0.47923 0.99937 0.0
H1281 H 0.41313 0.54875 0.06896 0.0
H1282 H 0.58458 0.44275 0.94076 0.0
H1283 H 0.5166 0.45434 0.07097 0.0
H1284 H 0.43843 0.52782 0.03907 0.0
H1285 H 0.5244 0.44678 0.11362 0.0
H1286 H 0.54483 0.47772 0.87642 0.0
H1287 H 0.42102 0.54703 0.11062 0.0
H1288 H 0.44489 0.53045 0.14185 0.0
H1289 H 0.5158 0.51065 0.87202 0.0
H1290 H 0.47539 0.50268 0.15404 0.0
N1291 N 0.46113 0.51395 0.06313 0.0
C1292 C 0.4424 0.52661 0.05702 0.0
C1293 C 0.43229 0.5376 0.09753 0.0
C1294 C 0.45091 0.52381 0.10416 0.0
C1295 C 0.42776 0.53857 0.07407 0.0
C1296 C 0.46497 0.51168 0.08651 0.0
H1297 H 0.50484 0.47107 0.14382 0.0
N1298 N 0.49372 0.48304 0.07688 0.0
C1299 C 0.51248 0.46069 0.1082 0.0
C1300 C 0.48191 0.49585 0.09353 0.0
C1301 C 0.50799 0.46494 0.08417 0.0
C1302 C 0.50149 0.4745 0.12513 0.0
C1303 C 0.48558 0.49203 0.11811 0.0
O1304 O 0.48443 0.46016 0.04408 0.0
O1305 O 0.50272 0.49112 0.99709 0.0
O1306 O 0.48444 0.51926 0.97108 0.0
O1307 O 0.46424 0.51128 1.00932 0.0
O1308 O 0.51113 0.46427 0.02138 0.0
O1309 O 0.45665 0.4855 0.03763 0.0
O1310 O 0.51443 0.55007 0.9622 0.0
O1311 O 0.49767 0.52055 0.01973 0.0
O1312 O 0.51596 0.49449 0.04788 0.0
O1313 O 0.53471 0.50991 0.0125 0.0
O1314 O 0.49054 0.54701 0.99582 0.0
O1315 O 0.54338 0.52974 0.97535 0.0
C1316 C 0.51286 0.47218 0.99835 0.0
C1317 C 0.45123 0.45432 0.06156 0.0
C1318 C 0.42599 0.43367 0.06976 0.0
C1319 C 0.43738 0.44639 0.05334 0.0
C1320 C 0.42822 0.42926 0.09478 0.0
C1321 C 0.45315 0.45032 0.08663 0.0
C1322 C 0.44155 0.43785 0.10321 0.0
C1323 C 0.46644 0.51733 0.98511 0.0
C1324 C 0.46436 0.46545 0.04304 0.0
C1325 C 0.47266 0.50519 0.13515 0.0
C1326 C 0.4553 0.52102 0.12821 0.0
C1327 C 0.48762 0.53951 0.019 0.0
C1328 C 0.54459 0.5643 0.95433 0.0
C1329 C 0.55948 0.56676 0.96674 0.0
C1330 C 0.56844 0.58368 0.95885 0.0
C1331 C 0.5627 0.59775 0.93783 0.0
C1332 C 0.53888 0.5785 0.93357 0.0
C1333 C 0.54808 0.59507 0.92524 0.0
C1334 C 0.53258 0.50104 0.03594 0.0
C1335 C 0.53394 0.54781 0.96415 0.0
H1336 H 0.43611 0.44942 0.03388 0.0
H1337 H 0.41971 0.41921 0.10766 0.0
H1338 H 0.46381 0.45647 0.09321 0.0
H1339 H 0.44319 0.43453 0.12252 0.0
H1340 H 0.56369 0.55578 0.98291 0.0
H1341 H 0.56906 0.61116 0.93148 0.0
H1342 H 0.52724 0.57685 0.92393 0.0
H1343 H 0.54359 0.60608 0.90927 0.0
H1344 H 0.02223 0.03422 0.04574 0.0
H1345 H 0.02273 0.05599 0.07557 0.0
H1346 H 0.95824 0.08992 0.06986 0.0
H1347 H 0.95858 0.06892 0.03868 0.0
H1348 H 0.9775 0.11585 0.06771 0.0
H1349 H 0.98261 0.0484 0.11893 0.0
H1350 H 0.99987 0.0116 0.13217 0.0
H1351 H 0.05108 0.02896 0.1487 0.0
H1352 H 0.03489 0.06575 0.13456 0.0
H1353 H 0.94617 0.17148 0.16679 0.0
H1354 H 0.95204 0.14054 0.14709 0.0
H1355 H 0.01923 0.13183 0.1367 0.0
H1356 H 0.01343 0.16312 0.1562 0.0
H1357 H 0.00261 0.09249 0.14823 0.0
H1358 H 0.00269 0.15575 0.09127 0.0
H1359 H 0.98841 0.19332 0.07793 0.0
H1360 H 0.92928 0.1827 0.07468 0.0
H1361 H 0.94314 0.1451 0.08847 0.0
C1362 C 0.00794 0.04577 0.05171 0.0
C1363 C 0.98983 0.04888 0.04133 0.0
C1364 C 0.00829 0.05844 0.06858 0.0
C1365 C 0.99034 0.0744 0.07578 0.0
C1366 C 0.9723 0.07762 0.06504 0.0
C1367 C 0.9723 0.06542 0.04747 0.0
C1368 C 0.9906 0.08891 0.09279 0.0
C1369 C 0.98278 0.11044 0.08542 0.0
C1370 C 0.99849 0.08227 0.11559 0.0
C1371 C 0.0078 0.05997 0.12478 0.0
C1372 C 0.99771 0.04444 0.12499 0.0
C1373 C 0.00723 0.02353 0.13284 0.0
C1374 C 0.02638 0.01794 0.14144 0.0
C1375 C 0.03621 0.03327 0.14206 0.0
C1376 C 0.02697 0.05415 0.13387 0.0
C1377 C 0.96222 0.16269 0.1609 0.0
C1378 C 0.97933 0.1699 0.16275 0.0
C1379 C 0.96555 0.14497 0.14973 0.0
C1380 C 0.98605 0.13403 0.14023 0.0
C1381 C 0.00329 0.14001 0.14402 0.0
C1382 C 0.99995 0.15787 0.15519 0.0
C1383 C 0.98895 0.11869 0.12317 0.0
C1384 C 0.99742 0.09738 0.13043 0.0
C1385 C 0.98202 0.12527 0.10014 0.0
C1386 C 0.97388 0.1477 0.09107 0.0
C1387 C 0.98661 0.16147 0.08784 0.0
C1388 C 0.9786 0.18275 0.0802 0.0
C1389 C 0.95793 0.1904 0.07551 0.0
C1390 C 0.94528 0.17676 0.07834 0.0
C1391 C 0.9532 0.15546 0.08605 0.0
H1392 H 0.95174 0.20689 0.06962 0.0
H1393 H 0.03365 1.00172 0.14749 0.0
H1394 H 0.7875 0.26167 0.44342 0.0
H1395 H 0.81709 0.26276 0.4089 0.0
H1396 H 0.86064 0.22595 0.45711 0.0
H1397 H 0.83137 0.22525 0.49123 0.0
H1398 H 0.87905 0.25076 0.43365 0.0
H1399 H 0.85263 0.20685 0.391 0.0
H1400 H 0.83013 0.1971 0.36825 0.0
H1401 H 0.81261 0.26003 0.332 0.0
H1402 H 0.83604 0.26989 0.35344 0.0
H1403 H 0.97281 0.22156 0.34706 0.0
H1404 H 0.94003 0.223 0.37638 0.0
H1405 H 0.90549 0.26642 0.32295 0.0
H1406 H 0.93872 0.26504 0.2933 0.0
H1407 H 0.88148 0.24257 0.34689 0.0
H1408 H 0.91734 0.28054 0.37784 0.0
H1409 H 0.94695 0.28716 0.39155 0.0
H1410 H 0.94783 0.23479 0.44895 0.0
H1411 H 0.91837 0.22771 0.43541 0.0
C1412 C 0.80334 0.25347 0.44659 0.0
C1413 C 0.80661 0.2431 0.47055 0.0
C1414 C 0.82055 0.254 0.42653 0.0
C1415 C 0.84186 0.24425 0.4295 0.0
C1416 C 0.84485 0.23381 0.45348 0.0
C1417 C 0.8278 0.23327 0.47331 0.0
C1418 C 0.86115 0.24563 0.40884 0.0
C1419 C 0.87941 0.24855 0.41486 0.0
C1420 C 0.86233 0.2439 0.38346 0.0
C1421 C 0.84543 0.23924 0.37444 0.0
C1422 C 0.84351 0.21873 0.37871 0.0
C1423 C 0.83083 0.21313 0.3658 0.0
C1424 C 0.81947 0.22808 0.34926 0.0
C1425 C 0.82107 0.2486 0.34523 0.0
C1426 C 0.83417 0.25416 0.35757 0.0
C1427 C 0.95829 0.23142 0.34132 0.0
C1428 C 0.95884 0.24302 0.31741 0.0
C1429 C 0.9393 0.23243 0.35844 0.0
C1430 C 0.91974 0.24533 0.35276 0.0
C1431 C 0.92006 0.2565 0.32848 0.0
C1432 C 0.93924 0.25558 0.31125 0.0
C1433 C 0.89934 0.24682 0.37208 0.0
C1434 C 0.88099 0.24467 0.36578 0.0
C1435 C 0.89807 0.24928 0.39719 0.0
C1436 C 0.91574 0.25351 0.40548 0.0
C1437 C 0.92393 0.27036 0.3933 0.0
C1438 C 0.94067 0.27421 0.40105 0.0
C1439 C 0.94929 0.26138 0.42108 0.0
C1440 C 0.94115 0.24471 0.43343 0.0
C1441 C 0.9244 0.24079 0.42575 0.0
H1442 H 0.96226 0.26438 0.42705 0.0
H1443 H 0.80965 0.2237 0.33933 0.0
H1444 H 0.74417 0.06183 0.73445 0.0
H1445 H 0.74589 0.09447 0.70741 0.0
H1446 H 0.77513 0.05948 0.64612 0.0
H1447 H 0.77749 0.02729 0.67433 0.0
H1448 H 0.78913 0.08691 0.63277 0.0
H1449 H 0.71633 0.0945 0.66661 0.0
H1450 H 0.68412 0.09723 0.69733 0.0
H1451 H 0.69272 0.1512 0.71921 0.0
H1452 H 0.72611 0.14783 0.68952 0.0
H1453 H 0.75919 0.17399 0.53812 0.0
H1454 H 0.7601 0.14216 0.5682 0.0
H1455 H 0.75767 0.17646 0.62663 0.0
H1456 H 0.75645 0.20813 0.59686 0.0
H1457 H 0.73103 0.15137 0.64112 0.0
H1458 H 0.80451 0.14166 0.60142 0.0
H1459 H 0.8329 0.13877 0.56501 0.0
H1460 H 0.81534 0.08789 0.54735 0.0
H1461 H 0.7867 0.09068 0.58349 0.0
C1462 C 0.75203 0.06113 0.71555 0.0
C1463 C 0.7617 0.04163 0.70721 0.0
C1464 C 0.75224 0.08006 0.69949 0.0
C1465 C 0.76023 0.08029 0.67381 0.0
C1466 C 0.76917 0.0606 0.66553 0.0
C1467 C 0.77032 0.04183 0.68188 0.0
C1468 C 0.75959 0.10044 0.65541 0.0
C1469 C 0.77596 0.10064 0.63475 0.0
C1470 C 0.74309 0.11934 0.65725 0.0
C1471 C 0.72378 0.12076 0.67604 0.0
C1472 C 0.71152 0.10677 0.67821 0.0
C1473 C 0.69296 0.10851 0.69543 0.0
C1474 C 0.68599 0.12468 0.70996 0.0
C1475 C 0.69803 0.13875 0.70785 0.0
C1476 C 0.71691 0.13681 0.69099 0.0
C1477 C 0.75895 0.17477 0.55735 0.0
C1478 C 0.75818 0.1938 0.56477 0.0
C1479 C 0.75957 0.15644 0.57463 0.0
C1480 C 0.75927 0.15656 0.59993 0.0
C1481 C 0.75811 0.17564 0.60735 0.0
C1482 C 0.75767 0.19386 0.5901 0.0
C1483 C 0.75994 0.13708 0.61876 0.0
C1484 C 0.74384 0.13727 0.63946 0.0
C1485 C 0.77608 0.11827 0.61642 0.0
C1486 C 0.79344 0.11647 0.595 0.0
C1487 C 0.80667 0.12994 0.58968 0.0
C1488 C 0.8228 0.12831 0.56911 0.0
C1489 C 0.8259 0.11319 0.55384 0.0
C1490 C 0.81292 0.09961 0.55916 0.0
C1491 C 0.79676 0.10119 0.57969 0.0
H1492 H 0.83838 0.11196 0.53791 0.0
H1493 H 0.67125 0.12633 0.72281 0.0
H1494 H 0.92744 0.02358 1.00542 0.0
H1495 H 0.89929 0.02388 0.98428 0.0
H1496 H 0.94383 0.01538 0.91657 0.0
H1497 H 0.97192 0.01549 0.93724 0.0
H1498 H 0.90994 0.0391 0.906 0.0
H1499 H 0.91436 0.96249 0.95521 0.0
H1500 H 0.91574 0.93963 0.99529 0.0
H1501 H 0.86793 0.98747 0.03113 0.0
H1502 H 0.86682 0.01073 0.9913 0.0
H1503 H 0.83931 0.01677 0.84489 0.0
H1504 H 0.87069 0.00895 0.8642 0.0
H1505 H 0.83087 0.02109 0.9343 0.0
H1506 H 0.79971 0.0278 0.91555 0.0
H1507 H 0.86459 0.99108 0.94182 0.0
H1508 H 0.84968 0.05977 0.89321 0.0
H1509 H 0.84405 0.08336 0.85429 0.0
H1510 H 0.90624 0.05327 0.81945 0.0
H1511 H 0.91208 0.02929 0.85812 0.0
C1512 C 0.93127 0.02163 0.98603 0.0
C1513 C 0.95205 0.01904 0.97317 0.0
C1514 C 0.91518 0.02128 0.97409 0.0
C1515 C 0.91964 0.01781 0.94929 0.0
C1516 C 0.94009 0.01685 0.93604 0.0
C1517 C 0.95616 0.01725 0.94785 0.0
C1518 C 0.90303 0.016 0.93669 0.0
C1519 C 0.90029 0.02834 0.91377 0.0
C1520 C 0.89001 1.00228 0.94674 0.0
C1521 C 0.89154 0.98874 0.97068 0.0
C1522 C 0.90491 0.96842 0.97183 0.0
C1523 C 0.90542 0.95531 0.99443 0.0
C1524 C 0.89217 0.96228 0.01578 0.0
C1525 C 0.87839 0.98226 0.01462 0.0
C1526 C 0.87786 0.99539 0.99209 0.0
C1527 C 0.8373 0.01731 0.86452 0.0
C1528 C 0.81706 0.02346 0.87858 0.0
C1529 C 0.85521 0.01294 0.8755 0.0
C1530 C 0.85309 0.01494 0.90055 0.0
C1531 C 0.83291 0.01963 0.9149 0.0
C1532 C 0.81509 0.02377 0.90406 0.0
C1533 C 0.87144 0.01436 0.91153 0.0
C1534 C 0.87459 1.0015 0.93395 0.0
C1535 C 0.88449 0.02793 0.90131 0.0
C1536 C 0.88124 0.04269 0.87839 0.0
C1537 C 0.86212 0.05818 0.8772 0.0
C1538 C 0.85888 0.07159 0.85521 0.0
C1539 C 0.87477 0.06979 0.83439 0.0
C1540 C 0.89395 0.05462 0.83557 0.0
C1541 C 0.89723 0.04113 0.85751 0.0
H1542 H 0.87223 0.08017 0.81736 0.0
H1543 H 0.89218 0.95212 0.03315 0.0
H1544 H 0.02931 0.00355 0.08438 0.0
H1545 H 0.05749 0.01075 0.09989 0.0
H1546 H 0.102 0.98923 0.03642 0.0
H1547 H 0.07408 0.98227 0.02042 0.0
H1548 H 0.11336 0.97076 0.08294 0.0
H1549 H 0.0835 0.03825 0.0406 0.0
H1550 H 0.05623 0.07088 0.03166 0.0
H1551 H 0.05377 0.08743 0.10254 0.0
H1552 H 0.07947 0.05412 0.11315 0.0
H1553 H 0.20003 0.98313 0.11532 0.0
H1554 H 0.17392 0.9933 0.08775 0.0
H1555 H 0.12615 0.02032 0.14604 0.0
H1556 H 0.15244 0.01073 0.17342 0.0
H1557 H 0.11716 0.03912 0.09876 0.0
H1558 H 0.13454 0.97101 0.14585 0.0
H1559 H 0.15918 0.93834 0.161 0.0
H1560 H 0.18174 0.92433 0.08661 0.0
H1561 H 0.15746 0.95717 0.07099 0.0
C1562 C 0.04513 1.0002 0.07378 0.0
C1563 C 0.04945 0.99242 0.05106 0.0
C1564 C 0.06106 0.00464 0.08253 0.0
C1565 C 0.08159 1.00098 0.06904 0.0
C1566 C 0.08612 0.99251 0.04686 0.0
C1567 C 0.07018 0.98839 0.03787 0.0
C1568 C 0.09886 0.00387 0.07925 0.0
C1569 C 0.11432 0.98581 0.08594 0.0
C1570 C 0.09954 0.0235 0.08408 0.0
C1571 C 0.08338 0.04331 0.07786 0.0
C1572 C 0.07682 0.04849 0.05463 0.0
C1573 C 0.06165 0.06717 0.04921 0.0
C1574 C 0.05339 0.08118 0.06643 0.0
C1575 C 0.06013 0.0765 0.08924 0.0
C1576 C 0.07485 0.0576 0.09509 0.0
C1577 C 0.18413 0.99193 0.12189 0.0
C1578 C 0.17803 0.9958 0.14654 0.0
C1579 C 0.16927 0.99782 0.10614 0.0
C1580 C 0.14803 0.00709 0.1151 0.0
C1581 C 0.14245 0.01312 0.13881 0.0
C1582 C 0.15743 0.00754 0.15447 0.0
C1583 C 0.13139 0.00606 0.10223 0.0
C1584 C 0.1161 0.02426 0.09533 0.0
C1585 C 0.13016 0.98657 0.09793 0.0
C1586 C 0.14439 0.9666 0.10725 0.0
C1587 C 0.14485 0.961 0.13273 0.0
C1588 C 0.15873 0.94247 0.14139 0.0
C1589 C 0.17206 0.92929 0.12477 0.0
C1590 C 0.17145 0.93458 0.09945 0.0
C1591 C 0.15763 0.95315 0.09068 0.0
H1592 H 0.18282 0.91495 0.13151 0.0
H1593 H 0.04171 0.09565 0.06211 0.0
H1594 H 0.00947 0.4784 0.45201 0.0
H1595 H 0.01766 0.45255 0.42369 0.0
H1596 H 0.01429 0.40481 0.48673 0.0
H1597 H 0.01361 0.42906 0.51362 0.0
H1598 H 0.03832 0.38705 0.45623 0.0
H1599 H 0.97521 0.44625 0.44869 0.0
H1600 H 0.95002 0.48417 0.43517 0.0
H1601 H 0.97975 0.46165 0.33933 0.0
H1602 H 0.00199 0.42838 0.36571 0.0
H1603 H 0.0067 0.31205 0.41318 0.0
H1604 H 0.00256 0.34261 0.43299 0.0
H1605 H 0.02642 0.37444 0.36301 0.0
H1606 H 0.03018 0.34385 0.343 0.0
H1607 H 0.99342 0.40031 0.39248 0.0
H1608 H 0.05963 0.3474 0.40337 0.0
H1609 H 0.0784 0.31115 0.41744 0.0
H1610 H 0.0432 0.31629 0.49085 0.0
H1611 H 0.02403 0.35244 0.47711 0.0
C1612 C 0.01254 0.46209 0.45945 0.0
C1613 C 0.01252 0.45577 0.48492 0.0
C1614 C 0.01597 0.44739 0.44332 0.0
C1615 C 0.01559 0.42663 0.45269 0.0
C1616 C 0.01474 0.42054 0.47842 0.0
C1617 C 0.01405 0.43462 0.49405 0.0
C1618 C 0.01587 0.41093 0.43667 0.0
C1619 C 0.02828 0.39039 0.44237 0.0
C1620 C 0.0036 0.41481 0.41739 0.0
C1621 C 0.99044 0.43555 0.40801 0.0
C1622 C 0.97536 0.45145 0.42914 0.0
C1623 C 0.9589 0.47504 0.42051 0.0
C1624 C 0.96012 0.48167 0.37257 0.0
C1625 C 0.97744 0.46118 0.35916 0.0
C1626 C 0.9912 0.44013 0.37635 0.0
C1627 C 0.01059 0.32578 0.40195 0.0
C1628 C 0.01883 0.32564 0.37662 0.0
C1629 C 0.00834 0.34316 0.41329 0.0
C1630 C 0.01466 0.36061 0.39961 0.0
C1631 C 0.02158 0.36107 0.37394 0.0
C1632 C 0.02366 0.34367 0.3625 0.0
C1633 C 0.01555 0.37764 0.41237 0.0
C1634 C 0.00354 0.39792 0.40604 0.0
C1635 C 0.02807 0.37384 0.43082 0.0
C1636 C 0.04041 0.35255 0.43921 0.0
C1637 C 0.05594 0.34078 0.42251 0.0
C1638 C 0.06661 0.32025 0.43041 0.0
C1639 C 0.062 0.31142 0.45502 0.0
C1640 C 0.04678 0.32314 0.47181 0.0
C1641 C 0.03604 0.34365 0.46399 0.0
H1642 H 0.07023 0.2955 0.46109 0.0
H1643 H 0.95175 0.49464 0.36035 0.0
H1644 H 0.67334 0.27076 0.53196 0.0
H1645 H 0.64362 0.26825 0.5644 0.0
H1646 H 0.68497 0.24737 0.61853 0.0
H1647 H 0.71552 0.24677 0.5849 0.0
H1648 H 0.65635 0.23083 0.63709 0.0
H1649 H 0.64529 0.30371 0.60316 0.0
H1650 H 0.64192 0.33363 0.56978 0.0
H1651 H 0.59059 0.31795 0.55049 0.0
H1652 H 0.5938 0.28783 0.58357 0.0
H1653 H 0.56308 0.24166 0.73248 0.0
H1654 H 0.59641 0.2446 0.706 0.0
H1655 H 0.56312 0.2706 0.64441 0.0
H1656 H 0.52996 0.27092 0.6721 0.0
H1657 H 0.58997 0.28669 0.63265 0.0
H1658 H 0.60328 0.21134 0.6656 0.0
H1659 H 0.6081 0.18123 0.6988 0.0
H1660 H 0.65508 0.20195 0.72076 0.0
H1661 H 0.65036 0.23224 0.68794 0.0
C1662 C 0.67637 0.2657 0.55073 0.0
C1663 C 0.69727 0.25986 0.5554 0.0
C1664 C 0.65894 0.26462 0.56974 0.0
C1665 C 0.66109 0.25887 0.59492 0.0
C1666 C 0.68213 0.25245 0.5997 0.0
C1667 C 0.69985 0.25253 0.58031 0.0
C1668 C 0.64158 0.25926 0.61562 0.0
C1669 C 0.64193 0.24322 0.63602 0.0
C1670 C 0.62213 0.27509 0.61513 0.0
C1671 C 0.61986 0.2935 0.59573 0.0
C1672 C 0.63329 0.30667 0.59179 0.0
C1673 C 0.63143 0.32363 0.5729 0.0
C1674 C 0.61607 0.32767 0.55801 0.0
C1675 C 0.60248 0.31481 0.56203 0.0
C1676 C 0.60428 0.29782 0.58086 0.0
C1677 C 0.56275 0.24924 0.71376 0.0
C1678 C 0.54325 0.25749 0.70534 0.0
C1679 C 0.58225 0.25005 0.69788 0.0
C1680 C 0.58334 0.25746 0.67215 0.0
C1681 C 0.56369 0.26512 0.66381 0.0
C1682 C 0.54433 0.26529 0.67993 0.0
C1683 C 0.60415 0.25763 0.65366 0.0
C1684 C 0.60417 0.27402 0.63368 0.0
C1685 C 0.62384 0.24212 0.65465 0.0
C1686 C 0.62636 0.22408 0.67447 0.0
C1687 C 0.61456 0.20948 0.6776 0.0
C1688 C 0.61728 0.1924 0.69633 0.0
C1689 C 0.63193 0.18966 0.71181 0.0
C1690 C 0.64377 0.20407 0.70874 0.0
C1691 C 0.64107 0.22118 0.6901 0.0
H1692 H 0.63417 0.17633 0.72614 0.0
H1693 H 0.61469 0.34079 0.54336 0.0
H1694 H 0.71693 0.9753 0.8456 0.0
H1695 H 0.71944 0.94289 0.87445 0.0
H1696 H 0.76864 0.91012 0.82169 0.0
H1697 H 0.7665 0.94286 0.79287 0.0
H1698 H 0.74226 0.88585 0.84447 0.0
H1699 H 0.78023 0.92362 0.87301 0.0
H1700 H 0.78577 0.95419 0.88588 0.0
H1701 H 0.73338 0.95468 0.94546 0.0
H1702 H 0.72739 0.92423 0.93279 0.0
H1703 H 0.76614 0.79433 0.9324 0.0
H1704 H 0.76707 0.82482 0.90132 0.0
H1705 H 0.72995 0.86493 0.95525 0.0
H1706 H 0.73084 0.83426 0.98699 0.0
H1707 H 0.75248 0.88526 0.92984 0.0
H1708 H 0.71258 0.8489 0.89845 0.0
H1709 H 0.70726 0.8187 0.88441 0.0
H1710 H 0.76347 0.81546 0.82992 0.0
H1711 H 0.76908 0.84565 0.84363 0.0
C1712 C 0.72825 0.9612 0.83999 0.0
C1713 C 0.74129 0.96186 0.81663 0.0
C1714 C 0.72977 0.94256 0.85667 0.0
C1715 C 0.7445 0.9238 0.85074 0.0
C1716 C 0.75721 0.92423 0.82707 0.0
C1717 C 0.75586 0.94303 0.81041 0.0
C1718 C 0.74667 0.90407 0.86944 0.0
C1719 C 0.74472 0.8857 0.86307 0.0
C1720 C 0.7496 0.90357 0.89399 0.0
C1721 C 0.75326 0.92175 0.90183 0.0
C1722 C 0.76982 0.93032 0.88877 0.0
C1723 C 0.77305 0.94761 0.89605 0.0
C1724 C 0.75991 0.9564 0.91644 0.0
C1725 C 0.74354 0.94787 0.92966 0.0
C1726 C 0.74024 0.93057 0.92246 0.0
C1727 C 0.75807 0.80966 0.93764 0.0
C1728 C 0.74812 0.81169 0.96225 0.0
C1729 C 0.75839 0.8273 0.91959 0.0
C1730 C 0.74788 0.84772 0.92505 0.0
C1731 C 0.73815 0.84967 0.94991 0.0
C1732 C 0.73853 0.83201 0.96824 0.0
C1733 C 0.74737 0.86691 0.90531 0.0
C1734 C 0.7498 0.88528 0.9114 0.0
C1735 C 0.7448 0.86741 0.88049 0.0
C1736 C 0.74126 0.84945 0.87211 0.0
C1737 C 0.72377 0.84174 0.88347 0.0
C1738 C 0.7207 0.82466 0.87554 0.0
C1739 C 0.735 0.81521 0.85624 0.0
C1740 C 0.75237 0.82284 0.8448 0.0
C1741 C 0.75546 0.83998 0.85257 0.0
H1742 H 0.73264 0.80193 0.85021 0.0
H1743 H 0.76242 0.9698 0.92203 0.0
H1744 H 0.21435 0.23867 0.07848 0.0
H1745 H 0.18457 0.23803 0.11265 0.0
H1746 H 0.14259 0.28123 0.06644 0.0
H1747 H 0.17247 0.28253 0.03293 0.0
H1748 H 0.12973 0.29242 0.10849 0.0
H1749 H 0.1465 0.22299 0.08554 0.0
H1750 H 0.17043 0.1885 0.07788 0.0
H1751 H 0.18301 0.17662 0.15215 0.0
H1752 H 0.15973 0.2113 0.15995 0.0
H1753 H 0.0306 0.28366 0.17799 0.0
H1754 H 0.06296 0.28265 0.14828 0.0
H1755 H 0.09843 0.2386 0.20045 0.0
H1756 H 0.06534 0.23877 0.23011 0.0
H1757 H 0.11591 0.22706 0.15713 0.0
H1758 H 0.10535 0.29711 0.17821 0.0
H1759 H 0.08669 0.33351 0.1846 0.0
H1760 H 0.0646 0.34415 0.11549 0.0
H1761 H 0.08432 0.30821 0.10798 0.0
C1762 C 0.19886 0.24826 0.07567 0.0
C1763 C 0.19622 0.26095 0.05272 0.0
C1764 C 0.18152 0.24764 0.09529 0.0
C1765 C 0.16064 0.25932 0.09264 0.0
C1766 C 0.15815 0.27198 0.06964 0.0
C1767 C 0.17545 0.27272 0.05021 0.0
C1768 C 0.14149 0.25899 0.11348 0.0
C1769 C 0.12681 0.27796 0.11882 0.0
C1770 C 0.1373 0.24046 0.12813 0.0
C1771 C 0.15122 0.21963 0.12343 0.0
C1772 C 0.15439 0.21302 0.10022 0.0
C1773 C 0.16789 0.19347 0.09581 0.0
C1774 C 0.17814 0.18034 0.11454 0.0
C1775 C 0.17499 0.18676 0.13769 0.0
C1776 C 0.16162 0.20634 0.14213 0.0
C1777 C 0.04526 0.27389 0.18349 0.0
C1778 C 0.04493 0.26162 0.207 0.0
C1779 C 0.06412 0.27348 0.16628 0.0
C1780 C 0.08395 0.26098 0.17164 0.0
C1781 C 0.08375 0.2486 0.19528 0.0
C1782 C 0.06466 0.24888 0.21259 0.0
C1783 C 0.10428 0.26057 0.15229 0.0
C1784 C 0.11905 0.24148 0.14705 0.0
C1785 C 0.1088 0.27899 0.13776 0.0
C1786 C 0.0959 0.29998 0.14281 0.0
C1787 C 0.09634 0.3072 0.16453 0.0
C1788 C 0.08576 0.32778 0.16822 0.0
C1789 C 0.0741 0.341 0.15073 0.0
C1790 C 0.07347 0.33384 0.12915 0.0
C1791 C 0.08457 0.31347 0.125 0.0
H1792 H 0.06574 0.35686 0.15378 0.0
H1793 H 0.18856 0.16522 0.11109 0.0
H1794 H 0.71896 0.47278 0.33399 0.0
H1795 H 0.71538 0.44113 0.36215 0.0
H1796 H 0.77842 0.40902 0.33067 0.0
H1797 H 0.78036 0.43974 0.30022 0.0
H1798 H 0.76197 0.38117 0.3435 0.0
H1799 H 0.75731 0.43506 0.39476 0.0
H1800 H 0.74072 0.46892 0.41069 0.0
H1801 H 0.68147 0.45336 0.43233 0.0
H1802 H 0.69763 0.41946 0.41681 0.0
H1803 H 0.76904 0.32191 0.47643 0.0
H1804 H 0.76782 0.35365 0.44612 0.0
H1805 H 0.72758 0.33559 0.4089 0.0
H1806 H 0.72886 0.304 0.43877 0.0
H1807 H 0.73226 0.38767 0.43175 0.0
H1808 H 0.73967 0.3402 0.36143 0.0
H1809 H 0.75755 0.30475 0.35063 0.0
H1810 H 0.81477 0.30815 0.36983 0.0
H1811 H 0.79699 0.34341 0.38131 0.0
C1812 C 0.73145 0.45856 0.33207 0.0
C1813 C 0.74927 0.45855 0.31352 0.0
C1814 C 0.72987 0.4405 0.3491 0.0
C1815 C 0.74688 0.42225 0.34964 0.0
C1816 C 0.76479 0.42241 0.33108 0.0
C1817 C 0.76593 0.44015 0.31342 0.0
C1818 C 0.7465 0.40323 0.36943 0.0
C1819 C 0.75543 0.38297 0.3627 0.0
C1820 C 0.73809 0.40462 0.39499 0.0
C1821 C 0.72862 0.42486 0.40449 0.0
C1822 C 0.74075 0.43892 0.4029 0.0
C1823 C 0.73144 0.45807 0.41183 0.0
C1824 C 0.71009 0.46329 0.42234 0.0
C1825 C 0.698 0.44931 0.42415 0.0
C1826 C 0.70722 0.43011 0.4154 0.0
C1827 C 0.75995 0.32461 0.46177 0.0
C1828 C 0.74932 0.30992 0.46007 0.0
C1829 C 0.75924 0.34289 0.44438 0.0
C1830 C 0.74793 0.34706 0.42469 0.0
C1831 C 0.73695 0.33267 0.42333 0.0
C1832 C 0.73769 0.31443 0.44061 0.0
C1833 C 0.74767 0.36624 0.40551 0.0
C1834 C 0.73874 0.38628 0.41243 0.0
C1835 C 0.75618 0.36478 0.38027 0.0
C1836 C 0.76709 0.34428 0.37213 0.0
C1837 C 0.7561 0.33338 0.36316 0.0
C1838 C 0.76615 0.31332 0.3571 0.0
C1839 C 0.78725 0.30425 0.35956 0.0
C1840 C 0.7984 0.3152 0.36802 0.0
C1841 C 0.78833 0.33516 0.3744 0.0
H1842 H 0.79492 0.28874 0.35496 0.0
H1843 H 0.70293 0.47815 0.42916 0.0
H1844 H 0.57105 1.00195 0.51265 0.0
H1845 H 0.59854 0.00628 0.53183 0.0
H1846 H 0.55646 0.00913 0.60193 0.0
H1847 H 0.52876 0.00497 0.58297 0.0
H1848 H 0.58114 0.03822 0.59243 0.0
H1849 H 0.58929 0.96534 0.59405 0.0
H1850 H 0.59251 0.93329 0.57711 0.0
H1851 H 0.64877 0.94124 0.52742 0.0
H1852 H 0.64568 0.97357 0.54381 0.0
H1853 H 0.65636 0.99892 0.67509 0.0
H1854 H 0.62735 0.01098 0.65143 0.0
H1855 H 0.67212 1.00258 0.58368 0.0
H1856 H 0.70104 0.98974 0.60749 0.0
H1857 H 0.64568 0.97906 0.59083 0.0
H1858 H 0.63557 0.0541 0.58969 0.0
H1859 H 0.63286 0.08392 0.61075 0.0
H1860 H 0.5822 0.0683 0.66508 0.0
H1861 H 0.58392 0.03898 0.64372 0.0
C1862 C 0.56759 0.00348 0.53213 0.0
C1863 C 0.54782 1.00272 0.54633 0.0
C1864 C 0.58327 0.00611 0.54302 0.0
C1865 C 0.57948 0.00801 0.56828 0.0
C1866 C 0.55962 0.00783 0.58238 0.0
C1867 C 0.54393 0.00513 0.57154 0.0
C1868 C 0.59689 0.00819 0.58035 0.0
C1869 C 0.59527 0.02531 0.59213 0.0
C1870 C 0.61526 0.99135 0.57996 0.0
C1871 C 0.61709 0.97202 0.56991 0.0
C1872 C 0.60221 0.96038 0.57932 0.0
C1873 C 0.60404 0.94214 0.56986 0.0
C1874 C 0.62079 0.93527 0.55114 0.0
C1875 C 0.63577 0.94662 0.54187 0.0
C1876 C 0.63399 0.9649 0.55124 0.0
C1877 C 0.65994 1.00027 0.65509 0.0
C1878 C 0.68072 0.99312 0.643 0.0
C1879 C 0.64341 0.00734 0.64156 0.0
C1880 C 0.64758 0.00767 0.61577 0.0
C1881 C 0.66858 1.00237 0.60357 0.0
C1882 C 0.68503 0.99497 0.61711 0.0
C1883 C 0.63037 0.00933 0.60234 0.0
C1884 C 0.63184 0.99229 0.5906 0.0
C1885 C 0.61189 0.02606 0.60313 0.0
C1886 C 0.60983 0.04445 0.61507 0.0
C1887 C 0.62366 0.05722 0.60595 0.0
C1888 C 0.6222 0.0741 0.61785 0.0
C1889 C 0.60715 0.07817 0.63906 0.0
C1890 C 0.59347 0.06543 0.64833 0.0
C1891 C 0.59456 0.04879 0.63623 0.0
H1892 H 0.6062 0.09107 0.64845 0.0
H1893 H 0.6222 0.92112 0.54387 0.0
H1894 H 0.00497 0.98027 0.95495 0.0
H1895 H 0.01057 0.95799 0.92353 0.0
H1896 H 0.02277 0.90385 0.9792 0.0
H1897 H 0.02217 0.92606 1.00862 0.0
H1898 H 0.04434 0.89164 0.94403 0.0
H1899 H 0.97182 0.93836 0.94788 0.0
H1900 H 0.94472 0.97135 0.94005 0.0
H1901 H 0.96968 0.97575 0.86245 0.0
H1902 H 0.99822 0.94394 0.87001 0.0
H1903 H 0.0123 0.81695 0.9044 0.0
H1904 H 0.00827 0.8476 0.9239 0.0
H1905 H 0.02557 0.88152 0.85249 0.0
H1906 H 0.02943 0.85066 0.8328 0.0
H1907 H 0.99319 0.90619 0.88695 0.0
H1908 H 0.06292 0.85929 0.88314 0.0
H1909 H 0.08734 0.8242 0.88908 0.0
H1910 H 0.06331 0.81856 0.96706 0.0
H1911 H 0.03847 0.85346 0.96149 0.0
C1912 C 0.01013 0.96361 0.96002 0.0
C1913 C 0.01434 0.95504 0.98397 0.0
C1914 C 0.01244 0.95072 0.94219 0.0
C1915 C 0.01659 0.9289 0.94867 0.0
C1916 C 0.01994 0.92047 0.97305 0.0
C1917 C 0.01938 0.93326 0.99016 0.0
C1918 C 0.01756 0.91447 0.93077 0.0
C1919 C 0.03273 0.895 0.93203 0.0
C1920 C 0.00351 0.91878 0.91345 0.0
C1921 C 0.98723 0.93878 0.90956 0.0
C1922 C 0.97174 0.94652 0.92921 0.0
C1923 C 0.95607 0.965 0.92479 0.0
C1924 C 0.95504 0.97524 0.90069 0.0
C1925 C 0.97035 0.96768 0.88108 0.0
C1926 C 0.98646 0.94962 0.88547 0.0
C1927 C 0.01465 0.83115 0.89282 0.0
C1928 C 0.02119 0.83153 0.86717 0.0
C1929 C 0.01244 0.8486 0.90396 0.0
C1930 C 0.01699 0.86669 0.88969 0.0
C1931 C 0.02204 0.86767 0.86381 0.0
C1932 C 0.02418 0.85013 0.85259 0.0
C1933 C 0.01855 0.88349 0.90226 0.0
C1934 C 0.00439 0.90323 0.89941 0.0
C1935 C 0.03321 0.87949 0.91839 0.0
C1936 C 0.0488 0.85893 0.92188 0.0
C1937 C 0.06282 0.85054 0.90154 0.0
C1938 C 0.07671 0.83068 0.90483 0.0
C1939 C 0.07687 0.81915 0.92843 0.0
C1940 C 0.06319 0.82751 0.94879 0.0
C1941 C 0.04922 0.84733 0.94558 0.0
H1942 H 0.0876 0.80375 0.93094 0.0
H1943 H 0.94237 0.98903 0.89715 0.0
H1944 H 0.06606 0.09152 0.99103 0.0
H1945 H 0.07918 0.11255 1.01165 0.0
H1946 H 0.14313 0.08243 0.98094 0.0
H1947 H 0.12999 0.06065 0.96088 0.0
H1948 H 0.13842 0.08861 0.03093 0.0
H1949 H 0.12075 0.12737 0.95333 0.0
H1950 H 0.09805 0.14292 0.92168 0.0
H1951 H 0.05291 0.18029 0.97324 0.0
H1952 H 0.07519 0.16465 1.00537 0.0
H1953 H 0.18637 0.17359 0.99996 0.0
H1954 H 0.17364 0.14288 1.00618 0.0
H1955 H 0.11969 0.17099 0.05741 0.0
H1956 H 0.13334 0.20133 0.05338 0.0
H1957 H 0.11582 0.1651 1.00512 0.0
H1958 H 0.13862 0.13097 0.07992 0.0
H1959 H 0.16334 0.11653 0.10948 0.0
H1960 H 0.20103 0.07157 0.0619 0.0
H1961 H 0.17686 0.08611 0.03165 0.0
C1962 C 0.08294 0.0892 0.98891 0.0
C1963 C 0.09706 0.07445 0.97444 0.0
C1964 C 0.09039 0.10121 1.00068 0.0
C1965 C 0.1121 0.09898 0.99784 0.0
C1966 C 0.12631 0.08421 0.9835 0.0
C1967 C 0.11882 0.07205 0.97176 0.0
C1968 C 0.11972 0.11339 1.00811 0.0
C1969 C 0.13363 0.10533 0.02525 0.0
C1970 C 0.11295 0.13521 1.00112 0.0
C1971 C 0.09948 0.14461 0.98186 0.0
C1972 C 0.10587 0.13873 0.95801 0.0
C1973 C 0.0931 0.14759 0.93996 0.0
C1974 C 0.07401 0.16252 0.94547 0.0
C1975 C 0.06767 0.16867 0.96902 0.0
C1976 C 0.08036 0.1598 0.98716 0.0
C1977 C 0.17245 0.17304 0.0137 0.0
C1978 C 0.16055 0.19047 0.02556 0.0
C1979 C 0.16516 0.15531 0.01715 0.0
C1980 C 0.14568 0.15487 0.032 0.0
C1981 C 0.13479 0.17117 0.04582 0.0
C1982 C 0.14243 0.18867 0.04305 0.0
C1983 C 0.13471 0.14038 0.02771 0.0
C1984 C 0.12025 0.14842 1.01136 0.0
C1985 C 0.14126 0.11867 0.03522 0.0
C1986 C 0.15596 0.10979 0.05333 0.0
C1987 C 0.15232 0.11818 0.07554 0.0
C1988 C 0.16622 0.10994 0.09248 0.0
C1989 C 0.18376 0.09316 0.08756 0.0
C1990 C 0.18744 0.08459 0.06568 0.0
C1991 C 0.17363 0.09283 0.04862 0.0
H1992 H 0.19448 0.08677 0.10072 0.0
H1993 H 0.06415 0.16938 0.93146 0.0
H1994 H 0.67026 0.53266 0.27125 0.0
H1995 H 0.63917 0.56257 0.27137 0.0
H1996 H 0.67909 0.60412 0.26149 0.0
H1997 H 0.70967 0.5743 0.26326 0.0
H1998 H 0.6477 0.61832 0.29065 0.0
H1999 H 0.65394 0.59306 0.21327 0.0
H2000 H 0.65564 0.56694 0.18705 0.0
H2001 H 0.59456 0.56088 0.22468 0.0
H2002 H 0.59262 0.58673 0.25134 0.0
H2003 H 0.57294 0.71278 0.26278 0.0
H2004 H 0.60295 0.68251 0.26077 0.0
H2005 H 0.56149 0.64349 0.26479 0.0
H2006 H 0.53183 0.67458 0.26252 0.0
H2007 H 0.59332 0.62715 0.23944 0.0
H2008 H 0.58836 0.6518 0.31813 0.0
H2009 H 0.58789 0.6774 0.34444 0.0
H2010 H 0.64765 0.68463 0.30337 0.0
H2011 H 0.64846 0.65909 0.27686 0.0
C2012 C 0.67233 0.54817 0.2695 0.0
C2013 C 0.69249 0.55099 0.26782 0.0
C2014 C 0.65453 0.56537 0.26916 0.0
C2015 C 0.65659 0.58587 0.26595 0.0
C2016 C 0.6768 0.5886 0.26422 0.0
C2017 C 0.6944 0.57142 0.26548 0.0
C2018 C 0.63789 0.60456 0.26505 0.0
C2019 C 0.63596 0.62029 0.27918 0.0
C2020 C 0.62209 0.60713 0.25067 0.0
C2021 C 0.62322 0.59171 0.23444 0.0
C2022 C 0.64092 0.58608 0.21603 0.0
C2023 C 0.64193 0.57132 0.20109 0.0
C2024 C 0.62524 0.56223 0.20423 0.0
C2025 C 0.60749 0.56792 0.22228 0.0
C2026 C 0.60642 0.58262 0.2373 0.0
C2027 C 0.57017 0.69782 0.26298 0.0
C2028 C 0.54981 0.69624 0.26306 0.0
C2029 C 0.58745 0.68024 0.2624 0.0
C2030 C 0.58474 0.66017 0.26392 0.0
C2031 C 0.56431 0.65858 0.26386 0.0
C2032 C 0.54718 0.67643 0.26285 0.0
C2033 C 0.60307 0.641 0.2651 0.0
C2034 C 0.60496 0.62516 0.25102 0.0
C2035 C 0.61897 0.63831 0.27947 0.0
C2036 C 0.6184 0.65363 0.29548 0.0
C2037 C 0.60136 0.65888 0.31473 0.0
C2038 C 0.60108 0.67333 0.3297 0.0
C2039 C 0.61776 0.68259 0.32561 0.0
C2040 C 0.63477 0.67741 0.30656 0.0
C2041 C 0.63519 0.66291 0.29161 0.0
H2042 H 0.61746 0.69383 0.33716 0.0
H2043 H 0.62605 0.55082 0.19266 0.0
H2044 H 0.32308 0.82672 0.54083 0.0
H2045 H 0.33455 0.85679 0.54336 0.0
H2046 H 0.35075 0.86739 0.46376 0.0
H2047 H 0.33911 0.83689 0.46108 0.0
H2048 H 0.38326 0.86304 0.485 0.0
H2049 H 0.3134 0.9053 0.49524 0.0
H2050 H 0.27515 0.91457 0.5109 0.0
H2051 H 0.28694 0.90775 0.58493 0.0
H2052 H 0.32522 0.89804 0.56985 0.0
H2053 H 0.43554 0.92567 0.52163 0.0
H2054 H 0.41239 0.91578 0.50144 0.0
H2055 H 0.37766 0.89729 0.57259 0.0
H2056 H 0.39927 0.90973 0.59309 0.0
H2057 H 0.35156 0.91541 0.54291 0.0
H2058 H 0.41991 0.86187 0.53312 0.0
H2059 H 0.45826 0.85059 0.51821 0.0
H2060 H 0.44867 0.8774 0.44408 0.0
H2061 H 0.41029 0.88892 0.45862 0.0
C2062 C 0.32831 0.83586 0.52376 0.0
C2063 C 0.33029 0.82944 0.50074 0.0
C2064 C 0.33479 0.85317 0.52523 0.0
C2065 C 0.34324 0.86452 0.50373 0.0
C2066 C 0.34413 0.85889 0.48055 0.0
C2067 C 0.33765 0.84144 0.47905 0.0
C2068 C 0.35451 0.87946 0.50628 0.0
C2069 C 0.37619 0.87495 0.49708 0.0
C2070 C 0.34532 0.89485 0.52218 0.0
C2071 C 0.32224 0.90097 0.53135 0.0
C2072 C 0.30785 0.90569 0.51487 0.0
C2073 C 0.28615 0.91102 0.52366 0.0
C2074 C 0.27862 0.91177 0.54888 0.0
C2075 C 0.29278 0.90721 0.56538 0.0
C2076 C 0.31449 0.90183 0.55671 0.0
C2077 C 0.42264 0.92008 0.53315 0.0
C2078 C 0.4191 0.91885 0.55915 0.0
C2079 C 0.40969 0.91392 0.52145 0.0
C2080 C 0.39356 0.90536 0.53545 0.0
C2081 C 0.39006 0.90387 0.56138 0.0
C2082 C 0.40261 0.91071 0.57313 0.0
C2083 C 0.38042 0.89766 0.52326 0.0
C2084 C 0.35845 0.90385 0.53036 0.0
C2085 C 0.38933 0.88362 0.50562 0.0
C2086 C 0.41234 0.87644 0.49698 0.0
C2087 C 0.42603 0.86541 0.51367 0.0
C2088 C 0.44775 0.85897 0.50528 0.0
C2089 C 0.4559 0.86333 0.48023 0.0
C2090 C 0.44234 0.87406 0.46348 0.0
C2091 C 0.42062 0.88052 0.47178 0.0
H2092 H 0.47272 0.85838 0.47377 0.0
H2093 H 0.26182 0.91589 0.55565 0.0
H2094 H 0.0554 0.6958 0.80478 0.0
H2095 H 0.08562 0.66512 0.80461 0.0
H2096 H 0.07823 0.6568 0.73275 0.0
H2097 H 0.04799 0.68748 0.73283 0.0
H2098 H 0.08668 0.62055 0.75981 0.0
H2099 H 0.117 0.67884 0.74221 0.0
H2100 H 0.12393 0.71106 0.74867 0.0
H2101 H 0.14493 0.6802 0.81693 0.0
H2102 H 0.1378 0.64789 0.8111 0.0
H2103 H 0.18686 0.54823 0.73166 0.0
H2104 H 0.15577 0.57816 0.73187 0.0
H2105 H 0.16423 0.58912 0.8021 0.0
H2106 H 0.1956 0.5597 0.8015 0.0
H2107 H 0.15519 0.6242 0.77533 0.0
H2108 H 0.12456 0.56605 0.79347 0.0
H2109 H 0.11947 0.53322 0.78617 0.0
H2110 H 0.09947 0.56347 0.7172 0.0
H2111 H 0.10476 0.59641 0.72391 0.0
C2112 C 0.0603 0.68762 0.78881 0.0
C2113 C 0.04943 0.69444 0.76863 0.0
C2114 C 0.07763 0.66999 0.78874 0.0
C2115 C 0.08459 0.65879 0.76842 0.0
C2116 C 0.07332 0.66518 0.74861 0.0
C2117 C 0.05596 0.68277 0.7487 0.0
C2118 C 0.10351 0.64041 0.76779 0.0
C2119 C 0.10172 0.62144 0.76293 0.0
C2120 C 0.12311 0.64131 0.77238 0.0
C2121 C 0.12671 0.66097 0.7763 0.0
C2122 C 0.12287 0.67899 0.75874 0.0
C2123 C 0.1269 0.69725 0.76225 0.0
C2124 C 0.13494 0.69763 0.78316 0.0
C2125 C 0.13874 0.67985 0.80073 0.0
C2126 C 0.13471 0.66156 0.79733 0.0
C2127 C 0.18198 0.55692 0.74724 0.0
C2128 C 0.1938 0.55159 0.76653 0.0
C2129 C 0.16411 0.57404 0.7474 0.0
C2130 C 0.15732 0.58588 0.76719 0.0
C2131 C 0.16905 0.58038 0.78655 0.0
C2132 C 0.18707 0.56351 0.7862 0.0
C2133 C 0.13834 0.60425 0.76759 0.0
C2134 C 0.14012 0.62326 0.77233 0.0
C2135 C 0.11873 0.60336 0.76299 0.0
C2136 C 0.11524 0.58365 0.7591 0.0
C2137 C 0.11919 0.56567 0.77668 0.0
C2138 C 0.11626 0.54704 0.77265 0.0
C2139 C 0.1092 0.54625 0.75121 0.0
C2140 C 0.10497 0.5641 0.73379 0.0
C2141 C 0.10792 0.58276 0.7377 0.0
H2142 H 0.10696 0.53181 0.74811 0.0
H2143 H 0.13833 0.71166 0.78573 0.0
H2144 H 0.81525 0.33455 0.52085 0.0
H2145 H 0.82791 0.36513 0.51575 0.0
H2146 H 0.88228 0.33777 0.46452 0.0
H2147 H 0.8687 0.30756 0.4674 0.0
H2148 H 0.88626 0.34072 0.51675 0.0
H2149 H 0.86271 0.38028 0.4443 0.0
H2150 H 0.8377 0.39734 0.41553 0.0
H2151 H 0.80065 0.43841 0.46793 0.0
H2152 H 0.82516 0.42126 0.49734 0.0
H2153 H 0.93653 0.41209 0.5376 0.0
H2154 H 0.92318 0.39121 0.517 0.0
H2155 H 0.85938 0.42134 0.54821 0.0
H2156 H 0.87274 0.44272 0.56855 0.0
H2157 H 0.86368 0.41794 0.49831 0.0
H2158 H 0.88165 0.37444 0.57298 0.0
H2159 H 0.90418 0.3563 0.60422 0.0
H2160 H 0.94868 0.32144 0.54988 0.0
H2161 H 0.92658 0.33968 0.51817 0.0
C2162 C 0.82922 0.33528 0.50725 0.0
C2163 C 0.84137 0.318 0.49525 0.0
C2164 C 0.83646 0.35296 0.50442 0.0
C2165 C 0.85613 0.35345 0.49011 0.0
C2166 C 0.86706 0.33752 0.47575 0.0
C2167 C 0.85945 0.32009 0.47785 0.0
C2168 C 0.86733 0.36701 0.49603 0.0
C2169 C 0.88188 0.3576 0.51209 0.0
C2170 C 0.8607 0.38896 0.49072 0.0
C2171 C 0.84577 0.39935 0.47316 0.0
C2172 C 0.84911 0.39278 0.44986 0.0
C2173 C 0.83503 0.40251 0.43339 0.0
C2174 C 0.81758 0.41895 0.4399 0.0
C2175 C 0.81418 0.42567 0.46291 0.0
C2176 C 0.82818 0.41595 0.4795 0.0
C2177 C 0.91965 0.41421 0.54012 0.0
C2178 C 0.90561 0.42895 0.55468 0.0
C2179 C 0.91207 0.40233 0.52832 0.0
C2180 C 0.89032 0.40483 0.53103 0.0
C2181 C 0.87623 0.41935 0.54578 0.0
C2182 C 0.88384 0.43128 0.55766 0.0
C2183 C 0.88246 0.39159 0.51922 0.0
C2184 C 0.86846 0.40106 0.5024 0.0
C2185 C 0.88922 0.36958 0.52413 0.0
C2186 C 0.90263 0.35867 0.54311 0.0
C2187 C 0.89637 0.36309 0.56762 0.0
C2188 C 0.90903 0.35276 0.58542 0.0
C2189 C 0.9279 0.33779 0.57901 0.0
C2190 C 0.9341 0.33309 0.55479 0.0
C2191 C 0.92152 0.34343 0.53689 0.0
H2192 H 0.93767 0.32979 0.59283 0.0
H2193 H 0.80673 0.4265 0.4271 0.0
H2194 H 0.33139 0.97191 0.25763 0.0
H2195 H 0.36263 0.94195 0.25568 0.0
H2196 H 0.32341 0.90151 0.25671 0.0
H2197 H 0.29247 0.93126 0.25836 0.0
H2198 H 0.37528 0.90759 0.28441 0.0
H2199 H 0.34889 0.86147 0.22538 0.0
H2200 H 0.32671 0.86863 0.19323 0.0
H2201 H 0.33757 0.92941 0.17053 0.0
H2202 H 0.36003 0.92252 0.20229 0.0
H2203 H 0.4431 0.80596 0.29261 0.0
H2204 H 0.41243 0.83602 0.29272 0.0
H2205 H 0.42839 0.85015 0.21339 0.0
H2206 H 0.45813 0.81865 0.21316 0.0
H2207 H 0.3895 0.85919 0.22277 0.0
H2208 H 0.43843 0.87698 0.26153 0.0
H2209 H 0.46168 0.87146 0.29218 0.0
H2210 H 0.40901 0.87116 0.35123 0.0
H2211 H 0.3855 0.87645 0.32096 0.0
C2212 C 0.32947 0.95665 0.25727 0.0
C2213 C 0.30943 0.95414 0.25742 0.0
C2214 C 0.34735 0.93948 0.25623 0.0
C2215 C 0.34559 0.91941 0.25545 0.0
C2216 C 0.32545 0.91684 0.25645 0.0
C2217 C 0.30768 0.93397 0.25725 0.0
C2218 C 0.36468 0.90114 0.25378 0.0
C2219 C 0.37844 0.89708 0.27084 0.0
C2220 C 0.36908 0.88743 0.23594 0.0
C2221 C 0.35604 0.8915 0.21633 0.0
C2222 C 0.34667 0.8763 0.21341 0.0
C2223 C 0.33403 0.88032 0.19528 0.0
C2224 C 0.33076 0.89945 0.17984 0.0
C2225 C 0.34013 0.91459 0.18249 0.0
C2226 C 0.3528 0.91064 0.20057 0.0
C2227 C 0.4401 0.81552 0.27518 0.0
C2228 C 0.45324 0.81017 0.2529 0.0
C2229 C 0.42259 0.83291 0.27526 0.0
C2230 C 0.4183 0.8461 0.25319 0.0
C2231 C 0.4313 0.8405 0.23079 0.0
C2232 C 0.44841 0.82257 0.23062 0.0
C2233 C 0.40024 0.86551 0.25347 0.0
C2234 C 0.38655 0.86976 0.23622 0.0
C2235 C 0.39618 0.87968 0.2708 0.0
C2236 C 0.41024 0.877 0.28897 0.0
C2237 C 0.43183 0.8757 0.28105 0.0
C2238 C 0.44505 0.8726 0.29836 0.0
C2239 C 0.43683 0.87093 0.32364 0.0
C2240 C 0.41535 0.87245 0.33166 0.0
C2241 C 0.40207 0.87554 0.31443 0.0
H2242 H 0.4471 0.86848 0.33701 0.0
H2243 H 0.32093 0.90254 0.16585 0.0
H2244 H 0.33176 0.47226 0.75362 0.0
H2245 H 0.36341 0.44246 0.75228 0.0
H2246 H 0.32447 0.40037 0.76066 0.0
H2247 H 0.29302 0.43 0.76118 0.0
H2248 H 0.35868 0.38989 0.79373 0.0
H2249 H 0.34549 0.40447 0.71022 0.0
H2250 H 0.33829 0.42722 0.67125 0.0
H2251 H 0.39696 0.44303 0.66244 0.0
H2252 H 0.40429 0.42065 0.70169 0.0
H2253 H 0.42878 0.2949 0.75842 0.0
H2254 H 0.39975 0.3265 0.75985 0.0
H2255 H 0.44416 0.36385 0.7439 0.0
H2256 H 0.47361 0.33188 0.74274 0.0
H2257 H 0.40832 0.37795 0.71494 0.0
H2258 H 0.42232 0.36027 0.79807 0.0
H2259 H 0.42799 0.33806 0.8378 0.0
H2260 H 0.36682 0.32734 0.8474 0.0
H2261 H 0.3609 0.34923 0.8075 0.0
C2262 C 0.33 0.45665 0.75511 0.0
C2263 C 0.30995 0.45349 0.75709 0.0
C2264 C 0.34806 0.43966 0.75436 0.0
C2265 C 0.34629 0.4192 0.75632 0.0
C2266 C 0.32622 0.416 0.75907 0.0
C2267 C 0.30828 0.43298 0.75914 0.0
C2268 C 0.36539 0.40115 0.75497 0.0
C2269 C 0.36946 0.38719 0.77649 0.0
C2270 C 0.37959 0.39775 0.73257 0.0
C2271 C 0.37528 0.41117 0.70903 0.0
C2272 C 0.35672 0.41301 0.70013 0.0
C2273 C 0.35264 0.42579 0.67797 0.0
C2274 C 0.36712 0.43663 0.66442 0.0
C2275 C 0.38573 0.43467 0.67299 0.0
C2276 C 0.38986 0.42195 0.6952 0.0
C2277 C 0.4325 0.30978 0.75461 0.0
C2278 C 0.45359 0.31082 0.74982 0.0
C2279 C 0.4158 0.32788 0.75576 0.0
C2280 C 0.41974 0.34757 0.75193 0.0
C2281 C 0.44077 0.34881 0.7468 0.0
C2282 C 0.45756 0.33056 0.74613 0.0
C2283 C 0.40172 0.36667 0.75376 0.0
C2284 C 0.39771 0.38075 0.73227 0.0
C2285 C 0.38746 0.37005 0.77618 0.0
C2286 C 0.39124 0.35625 0.79971 0.0
C2287 C 0.4102 0.35294 0.80848 0.0
C2288 C 0.41343 0.34047 0.83106 0.0
C2289 C 0.39776 0.33135 0.84512 0.0
C2290 C 0.37892 0.33446 0.83649 0.0
C2291 C 0.37562 0.3469 0.8139 0.0
H2292 H 0.40012 0.32207 0.86281 0.0
H2293 H 0.36396 0.4465 0.64724 0.0
H2294 H 0.21606 0.73461 0.5841 0.0
H2295 H 0.18577 0.73841 0.61767 0.0
H2296 H 0.14586 0.77664 0.566 0.0
H2297 H 0.17686 0.77503 0.53345 0.0
H2298 H 0.12796 0.78982 0.60342 0.0
H2299 H 0.15359 0.71594 0.59533 0.0
H2300 H 0.18082 0.68226 0.59489 0.0
H2301 H 0.18785 0.68404 0.66893 0.0
H2302 H 0.16072 0.71777 0.66974 0.0
H2303 H 0.02967 0.77988 0.67415 0.0
H2304 H 0.0621 0.77784 0.64477 0.0
H2305 H 0.09765 0.74089 0.70112 0.0
H2306 H 0.06433 0.7404 0.72977 0.0
H2307 H 0.11879 0.7277 0.66345 0.0
H2308 H 0.09206 0.80284 0.66988 0.0
H2309 H 0.06602 0.83744 0.6673 0.0
H2310 H 0.06044 0.83231 0.59394 0.0
H2311 H 0.08687 0.79813 0.59564 0.0
C2312 C 0.20102 0.74477 0.58021 0.0
C2313 C 0.19944 0.75565 0.55619 0.0
C2314 C 0.18324 0.74631 0.59942 0.0
C2315 C 0.16261 0.7573 0.595 0.0
C2316 C 0.16113 0.76811 0.57079 0.0
C2317 C 0.1791 0.76734 0.55192 0.0
C2318 C 0.1427 0.75755 0.61497 0.0
C2319 C 0.12609 0.776 0.61619 0.0
C2320 C 0.13956 0.73999 0.63272 0.0
C2321 C 0.15525 0.71939 0.63254 0.0
C2322 C 0.16094 0.70911 0.61151 0.0
C2323 C 0.17637 0.69003 0.61119 0.0
C2324 C 0.18609 0.68103 0.63185 0.0
C2325 C 0.18031 0.69102 0.65294 0.0
C2326 C 0.16487 0.71008 0.65337 0.0
C2327 C 0.04434 0.77144 0.68059 0.0
C2328 C 0.04396 0.76108 0.70508 0.0
C2329 C 0.06332 0.7706 0.66357 0.0
C2330 C 0.08326 0.76023 0.67031 0.0
C2331 C 0.08295 0.74951 0.69485 0.0
C2332 C 0.06371 0.74958 0.71169 0.0
C2333 C 0.10395 0.75995 0.65162 0.0
C2334 C 0.12071 0.74151 0.65067 0.0
C2335 C 0.10716 0.77745 0.63382 0.0
C2336 C 0.09129 0.79792 0.63298 0.0
C2337 C 0.08523 0.8091 0.65325 0.0
C2338 C 0.07043 0.82859 0.65195 0.0
C2339 C 0.06141 0.83688 0.63067 0.0
C2340 C 0.06738 0.82584 0.61045 0.0
C2341 C 0.08238 0.80652 0.61148 0.0
H2342 H 0.04989 0.85191 0.62981 0.0
H2343 H 0.19808 0.6663 0.63156 0.0
H2344 H 0.21873 0.97174 0.32936 0.0
H2345 H 0.21528 0.93938 0.35581 0.0
H2346 H 0.28261 0.91342 0.33732 0.0
H2347 H 0.28465 0.94379 0.30691 0.0
H2348 H 0.27375 0.88303 0.34928 0.0
H2349 H 0.24578 0.93826 0.39929 0.0
H2350 H 0.22276 0.97165 0.41214 0.0
H2351 H 0.16804 0.94973 0.41761 0.0
H2352 H 0.19071 0.91627 0.40473 0.0
H2353 H 0.27527 0.81651 0.469 0.0
H2354 H 0.27506 0.84816 0.43873 0.0
H2355 H 0.21927 0.84336 0.41701 0.0
H2356 H 0.21963 0.81147 0.44682 0.0
H2357 H 0.22177 0.8875 0.42699 0.0
H2358 H 0.2597 0.82766 0.3808 0.0
H2359 H 0.28873 0.79534 0.37848 0.0
H2360 H 0.33343 0.82982 0.37665 0.0
H2361 H 0.30466 0.86224 0.37937 0.0
C2362 C 0.23237 0.95841 0.3294 0.0
C2363 C 0.25147 0.95986 0.31395 0.0
C2364 C 0.23076 0.94004 0.34593 0.0
C2365 C 0.24878 0.9233 0.35002 0.0
C2366 C 0.26806 0.92524 0.33496 0.0
C2367 C 0.26929 0.94292 0.31723 0.0
C2368 C 0.24792 0.90419 0.36988 0.0
C2369 C 0.2624 0.88456 0.36624 0.0
C2370 C 0.23351 0.90498 0.39281 0.0
C2371 C 0.21989 0.92491 0.40083 0.0
C2372 C 0.22883 0.94062 0.40319 0.0
C2373 C 0.21586 0.95954 0.41046 0.0
C2374 C 0.19397 0.96283 0.41558 0.0
C2375 C 0.18499 0.94717 0.4136 0.0
C2376 C 0.19788 0.92822 0.40637 0.0
C2377 C 0.26283 0.82223 0.45794 0.0
C2378 C 0.24748 0.81123 0.46049 0.0
C2379 C 0.26275 0.8404 0.44054 0.0
C2380 C 0.2471 0.84839 0.42545 0.0
C2381 C 0.23149 0.83771 0.42837 0.0
C2382 C 0.2318 0.81932 0.44541 0.0
C2383 C 0.24749 0.86728 0.40599 0.0
C2384 C 0.23297 0.88656 0.40982 0.0
C2385 C 0.26275 0.86654 0.38413 0.0
C2386 C 0.28004 0.84735 0.38034 0.0
C2387 C 0.27573 0.82834 0.37983 0.0
C2388 C 0.29213 0.81 0.37851 0.0
C2389 C 0.31289 0.81055 0.37749 0.0
C2390 C 0.31734 0.82944 0.37745 0.0
C2391 C 0.30101 0.84779 0.37883 0.0
H2392 H 0.32555 0.79635 0.37684 0.0
H2393 H 0.18396 0.9775 0.42116 0.0
H2394 H 0.98499 0.63849 0.68838 0.0
H2395 H 0.99312 0.6129 0.65962 0.0
H2396 H 0.00741 0.65928 0.59885 0.0
H2397 H 0.99985 0.68475 0.62773 0.0
H2398 H 0.96979 0.6419 0.60219 0.0
H2399 H 0.04419 0.62192 0.60501 0.0
H2400 H 0.07649 0.60816 0.6235 0.0
H2401 H 0.06088 0.54977 0.64977 0.0
H2402 H 0.02819 0.56333 0.63202 0.0
H2403 H 0.97738 0.58294 0.5071 0.0
H2404 H 0.98159 0.60602 0.53317 0.0
H2405 H 0.99666 0.55354 0.58994 0.0
H2406 H 0.9943 0.53054 0.56319 0.0
H2407 H 0.02212 0.57471 0.58701 0.0
H2408 H 0.94741 0.59299 0.59271 0.0
H2409 H 0.91372 0.60378 0.57705 0.0
H2410 H 0.92691 0.66167 0.54097 0.0
H2411 H 0.96084 0.6511 0.55615 0.0
C2412 C 0.99077 0.64288 0.66902 0.0
C2413 C 0.99187 0.66349 0.66017 0.0
C2414 C 0.99543 0.62829 0.65264 0.0
C2415 C 0.00087 0.63422 0.62716 0.0
C2416 C 0.00342 0.65438 0.6185 0.0
C2417 C 0.99916 0.66888 0.63496 0.0
C2418 C 0.99952 0.62106 0.60958 0.0
C2419 C 0.98142 0.62736 0.59849 0.0
C2420 C 0.01422 0.60164 0.60584 0.0
C2421 C 0.03349 0.59381 0.61744 0.0
C2422 C 0.04739 0.6063 0.61512 0.0
C2423 C 0.06585 0.59849 0.6254 0.0
C2424 C 0.07069 0.57814 0.63789 0.0
C2425 C 0.05707 0.56556 0.64017 0.0
C2426 C 0.03856 0.57332 0.63003 0.0
C2427 C 0.98131 0.57638 0.52528 0.0
C2428 C 0.98514 0.55479 0.53315 0.0
C2429 C 0.98368 0.58962 0.54024 0.0
C2430 C 0.98925 0.58164 0.56376 0.0
C2431 C 0.99244 0.56019 0.57189 0.0
C2432 C 0.99071 0.54695 0.55664 0.0
C2433 C 0.99224 0.59545 0.57971 0.0
C2434 C 0.01052 0.58927 0.5906 0.0
C2435 C 0.97731 0.61462 0.58416 0.0
C2436 C 0.95675 0.62118 0.57537 0.0
C2437 C 0.94318 0.60798 0.58133 0.0
C2438 C 0.92404 0.61405 0.57254 0.0
C2439 C 0.91821 0.63337 0.55796 0.0
C2440 C 0.93146 0.64669 0.55224 0.0
C2441 C 0.95064 0.64068 0.56095 0.0
H2442 H 0.90339 0.63803 0.55115 0.0
H2443 H 0.08503 0.5721 0.64573 0.0
H2444 H 0.28688 0.76367 0.44057 0.0
H2445 H 0.31716 0.7651 0.40715 0.0
H2446 H 0.35826 0.71961 0.45255 0.0
H2447 H 0.32821 0.71829 0.48566 0.0
H2448 H 0.37863 0.74542 0.43299 0.0
H2449 H 0.34712 0.70892 0.3906 0.0
H2450 H 0.3201 0.7023 0.37208 0.0
H2451 H 0.30832 0.76456 0.33266 0.0
H2452 H 0.33668 0.77085 0.34933 0.0
H2453 H 0.47124 0.71767 0.34354 0.0
H2454 H 0.43831 0.71846 0.3727 0.0
H2455 H 0.40525 0.76954 0.32476 0.0
H2456 H 0.43852 0.76883 0.29548 0.0
H2457 H 0.38006 0.74413 0.3443 0.0
H2458 H 0.4187 0.77591 0.38091 0.0
H2459 H 0.44929 0.77876 0.39631 0.0
H2460 H 0.44789 0.72327 0.44828 0.0
H2461 H 0.41743 0.71996 0.433 0.0
C2462 C 0.30229 0.75365 0.44328 0.0
C2463 C 0.30476 0.74073 0.46615 0.0
C2464 C 0.31985 0.75445 0.42394 0.0
C2465 C 0.34064 0.74239 0.42663 0.0
C2466 C 0.34283 0.72928 0.44937 0.0
C2467 C 0.32538 0.7284 0.46851 0.0
C2468 C 0.3602 0.74379 0.4067 0.0
C2469 C 0.3788 0.74484 0.4137 0.0
C2470 C 0.36107 0.74379 0.381 0.0
C2471 C 0.3435 0.74056 0.37176 0.0
C2472 C 0.3386 0.72125 0.37817 0.0
C2473 C 0.3232 0.71748 0.3678 0.0
C2474 C 0.31208 0.73317 0.35166 0.0
C2475 C 0.31677 0.75249 0.34535 0.0
C2476 C 0.3327 0.75607 0.35501 0.0
C2477 C 0.45697 0.72903 0.339 0.0
C2478 C 0.45783 0.7429 0.31667 0.0
C2479 C 0.43796 0.7296 0.35596 0.0
C2480 C 0.41881 0.74429 0.35164 0.0
C2481 C 0.41949 0.75799 0.32904 0.0
C2482 C 0.43867 0.75751 0.31205 0.0
C2483 C 0.39847 0.7453 0.37076 0.0
C2484 C 0.37978 0.7448 0.36361 0.0
C2485 C 0.39758 0.74565 0.39638 0.0
C2486 C 0.41587 0.7476 0.40567 0.0
C2487 C 0.425 0.76424 0.39551 0.0
C2488 C 0.4423 0.76595 0.40424 0.0
C2489 C 0.45055 0.75118 0.42323 0.0
C2490 C 0.44149 0.73469 0.43356 0.0
C2491 C 0.42419 0.73291 0.4249 0.0
H2492 H 0.46394 0.75254 0.42996 0.0
H2493 H 0.30001 0.73027 0.34383 0.0
H2494 H 0.23978 0.06377 0.23302 0.0
H2495 H 0.2387 0.09641 0.20449 0.0
H2496 H 0.27598 0.06115 0.14605 0.0
H2497 H 0.27798 0.02884 0.17482 0.0
H2498 H 0.28874 0.09288 0.13941 0.0
H2499 H 0.2186 0.08542 0.15393 0.0
H2500 H 0.18388 0.08206 0.17702 0.0
H2501 H 0.17263 0.14065 0.20324 0.0
H2502 H 0.20746 0.14412 0.18079 0.0
H2503 H 0.26319 0.17305 0.03634 0.0
H2504 H 0.26427 0.14137 0.06689 0.0
H2505 H 0.24223 0.17926 0.12586 0.0
H2506 H 0.24145 0.21069 0.09556 0.0
H2507 H 0.22155 0.14731 0.13248 0.0
H2508 H 0.29273 0.1538 0.11561 0.0
H2509 H 0.32627 0.15703 0.08897 0.0
H2510 H 0.33387 0.09897 0.06326 0.0
H2511 H 0.30018 0.09557 0.08949 0.0
C2512 C 0.24815 0.06299 0.21426 0.0
C2513 C 0.25922 0.04349 0.20646 0.0
C2514 C 0.24721 0.08177 0.19767 0.0
C2515 C 0.25691 0.08164 0.17257 0.0
C2516 C 0.26829 0.06211 0.16507 0.0
C2517 C 0.26942 0.04346 0.18165 0.0
C2518 C 0.25549 0.10149 0.15403 0.0
C2519 C 0.27388 0.10452 0.13786 0.0
C2520 C 0.23634 0.11731 0.15171 0.0
C2521 C 0.21578 0.11485 0.16602 0.0
C2522 C 0.20885 0.09742 0.16495 0.0
C2523 C 0.18913 0.09552 0.17788 0.0
C2524 C 0.17609 0.11108 0.1917 0.0
C2525 C 0.18277 0.12855 0.19267 0.0
C2526 C 0.20252 0.13048 0.17988 0.0
C2527 C 0.25861 0.17463 0.05581 0.0
C2528 C 0.25264 0.19456 0.06338 0.0
C2529 C 0.25927 0.15645 0.07335 0.0
C2530 C 0.25353 0.15769 0.09894 0.0
C2531 C 0.24691 0.17765 0.1064 0.0
C2532 C 0.24668 0.19572 0.08895 0.0
C2533 C 0.25467 0.13833 0.11796 0.0
C2534 C 0.2363 0.13551 0.13418 0.0
C2535 C 0.2737 0.1225 0.12003 0.0
C2536 C 0.29387 0.12456 0.10427 0.0
C2537 C 0.30147 0.14183 0.10409 0.0
C2538 C 0.32052 0.14367 0.0891 0.0
C2539 C 0.33216 0.12825 0.07437 0.0
C2540 C 0.32481 0.11093 0.07464 0.0
C2541 C 0.30575 0.10903 0.08956 0.0
H2542 H 0.34692 0.1297 0.06279 0.0
H2543 H 0.16077 0.10963 0.20153 0.0
H2544 H 0.79999 0.78778 0.95961 0.0
H2545 H 0.83162 0.78557 0.92948 0.0
H2546 H 0.84025 0.7192 0.93425 0.0
H2547 H 0.81217 0.72128 0.96999 0.0
H2548 H 0.87309 0.71893 0.91874 0.0
H2549 H 0.82255 0.7728 0.87735 0.0
H2550 H 0.79478 0.80566 0.87143 0.0
H2551 H 0.8354 0.84025 0.88271 0.0
H2552 H 0.86348 0.80756 0.88852 0.0
H2553 H 0.93821 0.76694 0.79222 0.0
H2554 H 0.90452 0.76751 0.82035 0.0
H2555 H 0.93838 0.7257 0.87559 0.0
H2556 H 0.97121 0.7233 0.84667 0.0
H2557 H 0.88316 0.77958 0.85675 0.0
H2558 H 0.91573 0.70358 0.92062 0.0
H2559 H 0.93615 0.66696 0.91782 0.0
H2560 H 0.91872 0.67101 0.84723 0.0
H2561 H 0.8992 0.70799 0.84903 0.0
C2562 C 0.80836 0.77263 0.95402 0.0
C2563 C 0.80167 0.75478 0.9662 0.0
C2564 C 0.82665 0.77142 0.93577 0.0
C2565 C 0.83857 0.75247 0.92687 0.0
C2566 C 0.83188 0.73449 0.93929 0.0
C2567 C 0.8146 0.73559 0.95926 0.0
C2568 C 0.85839 0.75119 0.90624 0.0
C2569 C 0.8747 0.73241 0.90527 0.0
C2570 C 0.86171 0.76808 0.88728 0.0
C2571 C 0.84502 0.78775 0.88353 0.0
C2572 C 0.82553 0.78743 0.87856 0.0
C2573 C 0.80974 0.80602 0.87525 0.0
C2574 C 0.81326 0.82504 0.87685 0.0
C2575 C 0.83267 0.82552 0.88154 0.0
C2576 C 0.84856 0.80698 0.88473 0.0
C2577 C 0.93836 0.75716 0.80999 0.0
C2578 C 0.95773 0.74436 0.81648 0.0
C2579 C 0.9189 0.75776 0.82652 0.0
C2580 C 0.918 0.74613 0.85061 0.0
C2581 C 0.93759 0.73402 0.85713 0.0
C2582 C 0.95679 0.7329 0.84043 0.0
C2583 C 0.89718 0.74731 0.86927 0.0
C2584 C 0.88101 0.76614 0.87008 0.0
C2585 C 0.8931 0.73004 0.88677 0.0
C2586 C 0.90639 0.70855 0.88475 0.0
C2587 C 0.91663 0.69673 0.90431 0.0
C2588 C 0.92815 0.67599 0.90281 0.0
C2589 C 0.92906 0.66679 0.88212 0.0
C2590 C 0.91851 0.67834 0.86288 0.0
C2591 C 0.90744 0.69924 0.86398 0.0
H2592 H 0.93775 0.65065 0.88112 0.0
H2593 H 0.80096 0.8394 0.8744 0.0
H2594 H 0.27966 0.52974 0.67404 0.0
H2595 H 0.27641 0.56237 0.64575 0.0
H2596 H 0.24059 0.59661 0.70548 0.0
H2597 H 0.24333 0.56357 0.73399 0.0
H2598 H 0.2423 0.58972 0.63075 0.0
H2599 H 0.24335 0.63941 0.69733 0.0
H2600 H 0.2615 0.64455 0.72873 0.0
H2601 H 0.32049 0.60868 0.69281 0.0
H2602 H 0.30252 0.60287 0.6617 0.0
H2603 H 0.2216 0.69065 0.5553 0.0
H2604 H 0.22081 0.66076 0.58774 0.0
H2605 H 0.2823 0.65991 0.59977 0.0
H2606 H 0.28218 0.69071 0.56875 0.0
H2607 H 0.26461 0.65072 0.64062 0.0
H2608 H 0.26557 0.62155 0.56608 0.0
H2609 H 0.25087 0.62073 0.52956 0.0
H2610 H 0.1922 0.61613 0.57606 0.0
H2611 H 0.20652 0.61705 0.6128 0.0
C2612 C 0.27129 0.54417 0.68142 0.0
C2613 C 0.262 0.54372 0.70662 0.0
C2614 C 0.26936 0.563 0.66502 0.0
C2615 C 0.25834 0.58235 0.67309 0.0
C2616 C 0.24948 0.58214 0.69849 0.0
C2617 C 0.25112 0.56311 0.71495 0.0
C2618 C 0.25544 0.60221 0.65447 0.0
C2619 C 0.24716 0.60306 0.63303 0.0
C2620 C 0.26156 0.61996 0.65684 0.0
C2621 C 0.2716 0.62044 0.67757 0.0
C2622 C 0.26011 0.63227 0.69653 0.0
C2623 C 0.27037 0.63539 0.71415 0.0
C2624 C 0.29216 0.6271 0.71263 0.0
C2625 C 0.30363 0.61514 0.69392 0.0
C2626 C 0.29338 0.6117 0.67649 0.0
C2627 C 0.23503 0.68394 0.56474 0.0
C2628 C 0.25206 0.69307 0.5591 0.0
C2629 C 0.23468 0.66658 0.58337 0.0
C2630 C 0.25173 0.65718 0.59639 0.0
C2631 C 0.26877 0.66644 0.59049 0.0
C2632 C 0.2688 0.68415 0.57246 0.0
C2633 C 0.252 0.63819 0.61634 0.0
C2634 C 0.25968 0.63748 0.63815 0.0
C2635 C 0.24541 0.62055 0.61414 0.0
C2636 C 0.23707 0.61947 0.59212 0.0
C2637 C 0.24954 0.62036 0.56848 0.0
C2638 C 0.24127 0.6199 0.54775 0.0
C2639 C 0.2206 0.61841 0.55049 0.0
C2640 C 0.20819 0.61728 0.57397 0.0
C2641 C 0.21639 0.61773 0.59474 0.0
H2642 H 0.21421 0.61812 0.53442 0.0
H2643 H 0.30014 0.62979 0.72607 0.0
H2644 H 0.30492 0.03621 0.37923 0.0
H2645 H 0.33402 0.03928 0.39679 0.0
H2646 H 0.35507 0.97221 0.41259 0.0
H2647 H 0.32631 0.96898 0.39471 0.0
H2648 H 0.3513 0.99215 0.45267 0.0
H2649 H 0.3817 0.99826 0.3657 0.0
H2650 H 0.38247 0.01403 0.322 0.0
H2651 H 0.38032 0.07309 0.34139 0.0
H2652 H 0.37918 0.05774 0.38527 0.0
H2653 H 0.44713 0.97778 0.49114 0.0
H2654 H 0.41948 0.97722 0.46984 0.0
H2655 H 0.41287 0.04229 0.44026 0.0
H2656 H 0.4426 0.04193 0.45932 0.0
H2657 H 0.40736 0.02588 0.40749 0.0
H2658 H 0.37921 0.02036 0.49373 0.0
H2659 H 0.37801 0.00559 0.53775 0.0
H2660 H 0.37239 0.94818 0.52168 0.0
H2661 H 0.37495 0.96203 0.47738 0.0
C2662 C 0.31592 0.02211 0.38611 0.0
C2663 C 0.31321 1.00234 0.38571 0.0
C2664 C 0.33251 0.0239 0.39618 0.0
C2665 C 0.34671 0.00597 0.40594 0.0
C2666 C 0.34421 0.98624 0.40526 0.0
C2667 C 0.3277 0.98443 0.39516 0.0
C2668 C 0.36368 0.00767 0.41785 0.0
C2669 C 0.36375 0.99929 0.44278 0.0
C2670 C 0.37935 0.01776 0.40516 0.0
C2671 C 0.38013 0.02691 0.37878 0.0
C2672 C 0.3812 0.01465 0.36067 0.0
C2673 C 0.38174 0.0235 0.33586 0.0
C2674 C 0.38139 0.04456 0.32893 0.0
C2675 C 0.38055 0.05679 0.34679 0.0
C2676 C 0.37997 0.04802 0.37162 0.0
C2677 C 0.43993 0.99188 0.47987 0.0
C2678 C 0.44692 0.0099 0.47678 0.0
C2679 C 0.42381 0.99169 0.468 0.0
C2680 C 0.41338 0.00993 0.45406 0.0
C2681 C 0.42048 0.02801 0.45097 0.0
C2682 C 0.43735 0.02788 0.46195 0.0
C2683 C 0.39537 0.00996 0.44248 0.0
C2684 C 0.39496 0.01878 0.41761 0.0
C2685 C 0.37913 1.00053 0.4554 0.0
C2686 C 0.37746 0.99221 0.48214 0.0
C2687 C 0.378 0.00448 0.49953 0.0
C2688 C 0.37725 0.99619 0.52452 0.0
C2689 C 0.37542 0.97583 0.53247 0.0
C2690 C 0.37424 0.96376 0.51545 0.0
C2691 C 0.37542 0.9718 0.49038 0.0
H2692 H 0.37476 0.96945 0.55184 0.0
H2693 H 0.38181 0.05138 0.30972 0.0
H2694 H 0.87071 0.7963 0.9894 0.0
H2695 H 0.88312 0.82704 0.988 0.0
H2696 H 0.82838 0.85157 0.0405 0.0
H2697 H 0.81651 0.8205 0.04343 0.0
H2698 H 0.85051 0.88272 0.99875 0.0
H2699 H 0.85852 0.82632 0.07167 0.0
H2700 H 0.86749 0.78843 0.08613 0.0
H2701 H 0.92782 0.78093 0.03865 0.0
H2702 H 0.91898 0.81879 0.02365 0.0
H2703 H 0.88315 0.92776 0.08886 0.0
H2704 H 0.86745 0.90593 0.07251 0.0
H2705 H 0.92408 0.88916 0.01915 0.0
H2706 H 0.94026 0.9103 0.03584 0.0
H2707 H 0.90237 0.85528 0.05631 0.0
H2708 H 0.88495 0.90799 0.97252 0.0
H2709 H 0.87401 0.94501 0.95431 0.0
H2710 H 0.83257 0.95961 0.02227 0.0
H2711 H 0.84317 0.92265 0.04071 0.0
C2712 C 0.86109 0.80838 1.00036 0.0
C2713 C 0.84298 0.80552 0.01716 0.0
C2714 C 0.86803 0.8261 0.99914 0.0
C2715 C 0.85668 0.8414 0.01427 0.0
C2716 C 0.83722 0.83994 0.02855 0.0
C2717 C 0.83049 0.82204 0.0302 0.0
C2718 C 0.86735 0.85546 0.02027 0.0
C2719 C 0.86189 0.87677 1.01123 0.0
C2720 C 0.88222 0.84763 0.03646 0.0
C2721 C 0.88812 0.82525 0.04659 0.0
C2722 C 0.87371 0.81655 0.0644 0.0
C2723 C 0.87873 0.79511 0.07262 0.0
C2724 C 0.89822 0.78228 0.06332 0.0
C2725 C 0.91274 0.79089 0.04585 0.0
C2726 C 0.90775 0.81233 0.0375 0.0
C2727 C 0.8924 0.91919 0.07391 0.0
C2728 C 0.91296 0.92078 0.06368 0.0
C2729 C 0.88326 0.90706 0.0643 0.0
C2730 C 0.89448 0.89644 0.04429 0.0
C2731 C 0.91509 0.89762 0.03432 0.0
C2732 C 0.92428 0.90966 0.04394 0.0
C2733 C 0.8853 0.8827 0.03515 0.0
C2734 C 0.89116 0.86128 0.04361 0.0
C2735 C 0.87082 0.89049 0.01848 0.0
C2736 C 0.86503 0.91275 1.00802 0.0
C2737 C 0.87359 0.91917 0.98355 0.0
C2738 C 0.86738 0.94009 0.97317 0.0
C2739 C 0.85259 0.95464 0.98713 0.0
C2740 C 0.84405 0.94833 1.01151 0.0
C2741 C 0.85018 0.92742 0.02195 0.0
H2742 H 0.84775 0.97082 0.97908 0.0
H2743 H 0.90206 0.76566 0.06964 0.0
H2744 H 0.68132 0.17193 0.51788 0.0
H2745 H 0.65874 0.14949 0.53937 0.0
H2746 H 0.61761 0.17486 0.48514 0.0
H2747 H 0.63961 0.1981 0.46411 0.0
H2748 H 0.59611 0.16254 0.53286 0.0
H2749 H 0.6614 0.13485 0.47221 0.0
H2750 H 0.70017 0.12644 0.46043 0.0
H2751 H 0.70689 0.08986 0.53153 0.0
H2752 H 0.66811 0.09827 0.54375 0.0
H2753 H 0.57468 0.11388 0.45206 0.0
H2754 H 0.58743 0.13115 0.47792 0.0
H2755 H 0.60563 0.07278 0.52531 0.0
H2756 H 0.59258 0.05543 0.49947 0.0
H2757 H 0.63735 0.09346 0.50824 0.0
H2758 H 0.57034 0.10782 0.5544 0.0
H2759 H 0.53156 0.11596 0.56379 0.0
H2760 H 0.52707 0.17696 0.52209 0.0
H2761 H 0.56582 0.16912 0.51206 0.0
C2762 C 0.66705 0.1733 0.51101 0.0
C2763 C 0.66236 0.18655 0.48905 0.0
C2764 C 0.65416 0.1605 0.5234 0.0
C2765 C 0.63666 0.16047 0.51374 0.0
C2766 C 0.63104 0.17478 0.49294 0.0
C2767 C 0.64382 0.18773 0.48065 0.0
C2768 C 0.62698 0.14291 0.52129 0.0
C2769 C 0.60502 0.14724 0.52806 0.0
C2770 C 0.63884 0.12264 0.51634 0.0
C2771 C 0.66201 0.11725 0.5089 0.0
C2772 C 0.6712 0.12502 0.48528 0.0
C2773 C 0.69314 0.12029 0.47856 0.0
C2774 C 0.70599 0.10764 0.49524 0.0
C2775 C 0.69692 0.09967 0.51865 0.0
C2776 C 0.67497 0.10441 0.52549 0.0
C2777 C 0.58159 0.10475 0.46784 0.0
C2778 C 0.58303 0.08337 0.47362 0.0
C2779 C 0.58844 0.11463 0.48289 0.0
C2780 C 0.59695 0.10327 0.50383 0.0
C2781 C 0.59874 0.08181 0.50947 0.0
C2782 C 0.59157 0.07194 0.49459 0.0
C2783 C 0.6063 0.11378 0.51748 0.0
C2784 C 0.62831 0.10813 0.51481 0.0
C2785 C 0.59444 0.13269 0.52641 0.0
C2786 C 0.57106 0.13782 0.53243 0.0
C2787 C 0.5611 0.12294 0.5471 0.0
C2788 C 0.53911 0.1275 0.55254 0.0
C2789 C 0.52687 0.14691 0.54342 0.0
C2790 C 0.53659 0.1619 0.52907 0.0
C2791 C 0.55859 0.15742 0.52356 0.0
H2792 H 0.50984 0.15038 0.54755 0.0
H2793 H 0.72297 0.104 0.49 0.0
H2794 H 0.82342 0.46483 0.2788 0.0
H2795 H 0.85437 0.43486 0.27936 0.0
H2796 H 0.83075 0.40714 0.23201 0.0
H2797 H 0.80044 0.43746 0.23027 0.0
H2798 H 0.84477 0.37915 0.2745 0.0
H2799 H 0.86878 0.42804 0.20773 0.0
H2800 H 0.87499 0.46231 0.18946 0.0
H2801 H 0.91571 0.456 0.24152 0.0
H2802 H 0.90939 0.42184 0.26043 0.0
H2803 H 0.93189 0.29692 0.24183 0.0
H2804 H 0.90286 0.32821 0.24105 0.0
H2805 H 0.93665 0.35855 0.27332 0.0
H2806 H 0.96664 0.32738 0.27245 0.0
H2807 H 0.91735 0.3858 0.24071 0.0
H2808 H 0.89504 0.33819 0.30772 0.0
H2809 H 0.88857 0.30475 0.3293 0.0
H2810 H 0.84475 0.3091 0.28172 0.0
H2811 H 0.85115 0.34251 0.25964 0.0
C2812 C 0.8248 0.45251 0.26826 0.0
C2813 C 0.80894 0.45359 0.2548 0.0
C2814 C 0.84254 0.4353 0.26872 0.0
C2815 C 0.84482 0.41864 0.2559 0.0
C2816 C 0.82921 0.41968 0.24232 0.0
C2817 C 0.81167 0.43705 0.2415 0.0
C2818 C 0.8636 0.40024 0.25638 0.0
C2819 C 0.86063 0.38053 0.26685 0.0
C2820 C 0.88435 0.40215 0.24723 0.0
C2821 C 0.88844 0.42249 0.23564 0.0
C2822 C 0.87892 0.43404 0.2154 0.0
C2823 C 0.88247 0.45344 0.20492 0.0
C2824 C 0.8957 0.46136 0.21436 0.0
C2825 C 0.90544 0.44986 0.23425 0.0
C2826 C 0.90188 0.43048 0.24486 0.0
C2827 C 0.93354 0.31032 0.24807 0.0
C2828 C 0.95192 0.30957 0.25666 0.0
C2829 C 0.91662 0.32822 0.24813 0.0
C2830 C 0.91724 0.34578 0.25754 0.0
C2831 C 0.93566 0.34525 0.26599 0.0
C2832 C 0.95279 0.32734 0.2656 0.0
C2833 C 0.89861 0.36449 0.25863 0.0
C2834 C 0.90156 0.38431 0.24848 0.0
C2835 C 0.87783 0.36274 0.26855 0.0
C2836 C 0.87372 0.34277 0.28189 0.0
C2837 C 0.88412 0.33195 0.30175 0.0
C2838 C 0.88046 0.313 0.31408 0.0
C2839 C 0.86631 0.30475 0.30683 0.0
C2840 C 0.85573 0.31549 0.28729 0.0
C2841 C 0.85934 0.33446 0.27488 0.0
H2842 H 0.86352 0.29006 0.31639 0.0
H2843 H 0.89843 0.47638 0.20621 0.0
H2844 H 0.12003 0.57268 0.44786 0.0
H2845 H 0.13458 0.59386 0.46684 0.0
H2846 H 0.072 0.62324 0.50221 0.0
H2847 H 0.05734 0.60215 0.48339 0.0
H2848 H 0.09493 0.65104 0.47453 0.0
H2849 H 0.10295 0.596 0.54418 0.0
H2850 H 0.1135 0.5605 0.56674 0.0
H2851 H 0.17683 0.55286 0.52695 0.0
H2852 H 0.1668 0.58872 0.50492 0.0
H2853 H 0.12696 0.71362 0.53383 0.0
H2854 H 0.11482 0.68236 0.53751 0.0
H2855 H 0.17093 0.65507 0.48848 0.0
H2856 H 0.18267 0.68649 0.48347 0.0
H2857 H 0.14948 0.62538 0.52872 0.0
H2858 H 0.13976 0.68045 0.45719 0.0
H2859 H 0.13018 0.71788 0.44053 0.0
H2860 H 0.06878 0.7254 0.48556 0.0
H2861 H 0.07821 0.68803 0.50283 0.0
C2862 C 0.10938 0.58382 0.45945 0.0
C2863 C 0.08754 0.5859 0.46395 0.0
C2864 C 0.11773 0.59557 0.47068 0.0
C2865 C 0.10436 0.60982 0.48621 0.0
C2866 C 0.08257 0.6121 0.49054 0.0
C2867 C 0.07424 0.60015 0.47964 0.0
C2868 C 0.11288 0.62408 0.4955 0.0
C2869 C 0.10653 0.64542 0.48677 0.0
C2870 C 0.1283 0.61677 0.51106 0.0
C2871 C 0.13408 0.59482 0.52271 0.0
C2872 C 0.11906 0.58663 0.54007 0.0
C2873 C 0.12499 0.56653 0.5529 0.0
C2874 C 0.14577 0.55433 0.54808 0.0
C2875 C 0.16072 0.56229 0.53059 0.0
C2876 C 0.15498 0.58256 0.51808 0.0
C2877 C 0.13694 0.7008 0.52422 0.0
C2878 C 0.1554 0.7029 0.50767 0.0
C2879 C 0.13015 0.68283 0.52671 0.0
C2880 C 0.14191 0.66665 0.513 0.0
C2881 C 0.16173 0.66743 0.49925 0.0
C2882 C 0.16837 0.68553 0.49639 0.0
C2883 C 0.13143 0.65211 0.50774 0.0
C2884 C 0.13759 0.63088 0.51685 0.0
C2885 C 0.1158 0.65945 0.49251 0.0
C2886 C 0.10971 0.68159 0.48138 0.0
C2887 C 0.12424 0.69014 0.46357 0.0
C2888 C 0.11886 0.71132 0.45405 0.0
C2889 C 0.09889 0.72402 0.46201 0.0
C2890 C 0.08424 0.71554 0.47943 0.0
C2891 C 0.08959 0.69437 0.48909 0.0
H2892 H 0.09476 0.74043 0.45466 0.0
H2893 H 0.15032 0.53874 0.55798 0.0
H2894 H 0.67169 0.03272 0.76386 0.0
H2895 H 0.64022 0.06228 0.76397 0.0
H2896 H 0.67869 0.10408 0.76079 0.0
H2897 H 0.70956 0.07465 0.76192 0.0
H2898 H 0.64749 0.11728 0.78834 0.0
H2899 H 0.65135 0.0966 0.70754 0.0
H2900 H 0.65289 0.07151 0.67995 0.0
H2901 H 0.59403 0.06166 0.72085 0.0
H2902 H 0.59276 0.0862 0.74898 0.0
H2903 H 0.57386 0.213 0.76079 0.0
H2904 H 0.60352 0.18229 0.75958 0.0
H2905 H 0.56148 0.14397 0.7632 0.0
H2906 H 0.53198 0.17525 0.76161 0.0
H2907 H 0.59311 0.12814 0.73649 0.0
H2908 H 0.5877 0.14951 0.81622 0.0
H2909 H 0.58605 0.17422 0.84423 0.0
H2910 H 0.64579 0.18333 0.80549 0.0
H2911 H 0.64783 0.15859 0.77731 0.0
C2912 C 0.67334 0.04828 0.7631 0.0
C2913 C 0.69309 0.05128 0.76326 0.0
C2914 C 0.65532 0.06532 0.76279 0.0
C2915 C 0.6568 0.08586 0.7616 0.0
C2916 C 0.67675 0.08866 0.76149 0.0
C2917 C 0.69454 0.07168 0.76234 0.0
C2918 C 0.63781 0.10444 0.76166 0.0
C2919 C 0.63586 0.11967 0.7766 0.0
C2920 C 0.62175 0.10753 0.7474 0.0
C2921 C 0.62241 0.09275 0.73064 0.0
C2922 C 0.63911 0.08869 0.71083 0.0
C2923 C 0.63984 0.07466 0.69509 0.0
C2924 C 0.62366 0.06482 0.69881 0.0
C2925 C 0.60666 0.06915 0.71813 0.0
C2926 C 0.60597 0.08309 0.73399 0.0
C2927 C 0.5709 0.19811 0.76104 0.0
C2928 C 0.55047 0.1967 0.76119 0.0
C2929 C 0.58798 0.18031 0.76075 0.0
C2930 C 0.585 0.16037 0.76201 0.0
C2931 C 0.56449 0.15899 0.76221 0.0
C2932 C 0.54752 0.17694 0.76145 0.0
C2933 C 0.60312 0.14105 0.76278 0.0
C2934 C 0.60481 0.12569 0.74815 0.0
C2935 C 0.61888 0.1377 0.77747 0.0
C2936 C 0.61785 0.15228 0.79465 0.0
C2937 C 0.60047 0.15679 0.81371 0.0
C2938 C 0.59949 0.17077 0.82961 0.0
C2939 C 0.61579 0.18036 0.82662 0.0
C2940 C 0.63319 0.17588 0.8078 0.0
C2941 C 0.63431 0.16181 0.79193 0.0
H2942 H 0.61493 0.19128 0.83887 0.0
H2943 H 0.62424 0.05394 0.68664 0.0
H2944 H 0.7819 0.53429 0.19026 0.0
H2945 H 0.78335 0.5669 0.16249 0.0
H2946 H 0.7189 0.59453 0.1932 0.0
H2947 H 0.71814 0.56259 0.22147 0.0
H2948 H 0.75993 0.58568 0.12631 0.0
H2949 H 0.70744 0.63203 0.19196 0.0
H2950 H 0.69844 0.64224 0.23385 0.0
H2951 H 0.76335 0.639 0.23222 0.0
H2952 H 0.77291 0.62725 0.19104 0.0
H2953 H 0.73186 0.68371 0.04704 0.0
H2954 H 0.73123 0.65257 0.07766 0.0
H2955 H 0.76996 0.67014 0.11765 0.0
H2956 H 0.7702 0.70137 0.08751 0.0
H2957 H 0.74221 0.6566 0.14983 0.0
H2958 H 0.78867 0.62742 0.07843 0.0
H2959 H 0.79703 0.62225 0.0345 0.0
H2960 H 0.74434 0.59632 0.04456 0.0
H2961 H 0.7356 0.60137 0.08858 0.0
C2962 C 0.76872 0.54787 0.19261 0.0
C2963 C 0.75072 0.54632 0.21042 0.0
C2964 C 0.76926 0.56649 0.17606 0.0
C2965 C 0.75155 0.58404 0.17623 0.0
C2966 C 0.73336 0.58218 0.19346 0.0
C2967 C 0.73296 0.56372 0.21002 0.0
C2968 C 0.7513 0.60328 0.15696 0.0
C2969 C 0.75604 0.60115 0.13159 0.0
C2970 C 0.7461 0.62379 0.16316 0.0
C2971 C 0.74095 0.62802 0.18897 0.0
C2972 C 0.71987 0.63277 0.20097 0.0
C2973 C 0.71469 0.63882 0.22454 0.0
C2974 C 0.73039 0.64095 0.23584 0.0
C2975 C 0.75131 0.63688 0.22365 0.0
C2976 C 0.75667 0.63019 0.20039 0.0
C2977 C 0.74034 0.68094 0.06229 0.0
C2978 C 0.75104 0.69536 0.06461 0.0
C2979 C 0.74008 0.66291 0.07986 0.0
C2980 C 0.75085 0.65844 0.10013 0.0
C2981 C 0.76146 0.67291 0.10243 0.0
C2982 C 0.76157 0.69097 0.08502 0.0
C2983 C 0.75096 0.63906 0.11916 0.0
C2984 C 0.74617 0.64114 0.14447 0.0
C2985 C 0.75587 0.6186 0.11282 0.0
C2986 C 0.76147 0.61485 0.0867 0.0
C2987 C 0.77889 0.62059 0.07125 0.0
C2988 C 0.78368 0.61768 0.04637 0.0
C2989 C 0.77121 0.60894 0.03677 0.0
C2990 C 0.75398 0.60301 0.05208 0.0
C2991 C 0.74914 0.60584 0.077 0.0
H2992 H 0.77489 0.60677 0.01748 0.0
H2993 H 0.72633 0.64594 0.25395 0.0
H2994 H 0.93934 0.49512 0.4898 0.0
H2995 H 0.91167 0.49789 0.4663 0.0
H2996 H 0.92525 0.5532 0.42128 0.0
H2997 H 0.954 0.54974 0.44398 0.0
H2998 H 0.87664 0.54522 0.44617 0.0
H2999 H 0.94612 0.52616 0.39567 0.0
H3000 H 0.98747 0.5077 0.39059 0.0
H3001 H 0.9562 0.43769 0.39787 0.0
H3002 H 0.91805 0.46664 0.40453 0.0
H3003 H 0.81156 0.53888 0.36613 0.0
H3004 H 0.84019 0.54643 0.37986 0.0
H3005 H 0.86684 0.48055 0.40038 0.0
H3006 H 0.83894 0.47276 0.38528 0.0
H3007 H 0.89731 0.49855 0.38148 0.0
H3008 H 0.83581 0.51155 0.44316 0.0
H3009 H 0.79848 0.52704 0.4595 0.0
H3010 H 0.80812 0.58845 0.43897 0.0
H3011 H 0.84548 0.57329 0.42212 0.0
C3012 C 0.93639 0.50791 0.47492 0.0
C3013 C 0.94913 0.52186 0.46809 0.0
C3014 C 0.92055 0.50951 0.46161 0.0
C3015 C 0.91715 0.52518 0.4414 0.0
C3016 C 0.9283 0.54051 0.43625 0.0
C3017 C 0.94475 0.53846 0.44901 0.0
C3018 C 0.90245 0.52475 0.42539 0.0
C3019 C 0.88124 0.53547 0.43155 0.0
C3020 C 0.90839 0.51118 0.4071 0.0
C3021 C 0.93014 0.49779 0.40136 0.0
C3022 C 0.95039 0.50939 0.39725 0.0
C3023 C 0.97674 0.49807 0.39317 0.0
C3024 C 0.98667 0.47193 0.39211 0.0
C3025 C 0.95615 0.45392 0.39759 0.0
C3026 C 0.93217 0.47196 0.4014 0.0
C3027 C 0.82373 0.52593 0.37306 0.0
C3028 C 0.82283 0.50519 0.37472 0.0
C3029 C 0.84001 0.53031 0.38113 0.0
C3030 C 0.85551 0.5141 0.39149 0.0
C3031 C 0.85503 0.49334 0.3925 0.0
C3032 C 0.83888 0.48893 0.38418 0.0
C3033 C 0.87149 0.51875 0.4026 0.0
C3034 C 0.89284 0.50877 0.39559 0.0
C3035 C 0.86564 0.53216 0.42093 0.0
C3036 C 0.84329 0.54133 0.4311 0.0
C3037 C 0.8299 0.52837 0.44195 0.0
C3038 C 0.80876 0.53708 0.45132 0.0
C3039 C 0.8009 0.55873 0.45019 0.0
C3040 C 0.81421 0.5717 0.43976 0.0
C3041 C 0.83536 0.56306 0.43029 0.0
H3042 H 0.78452 0.56545 0.45747 0.0
H3043 H 0.00383 0.46596 0.38873 0.0
H3044 H 0.15603 0.49446 0.68748 0.0
H3045 H 0.12336 0.50559 0.66996 0.0
H3046 H 0.15827 0.48325 0.6017 0.0
H3047 H 0.19076 0.47329 0.61841 0.0
H3048 H 0.12976 0.51836 0.59199 0.0
H3049 H 0.13035 0.45309 0.65052 0.0
H3050 H 0.1305 0.43374 0.69274 0.0
H3051 H 0.07438 0.47915 0.71958 0.0
H3052 H 0.07406 0.49883 0.67752 0.0
H3053 H 0.0702 0.4851 0.52852 0.0
H3054 H 0.09513 0.48677 0.55356 0.0
H3055 H 0.04353 0.5073 0.61184 0.0
H3056 H 0.01873 0.50432 0.58768 0.0
H3057 H 0.07433 0.48213 0.63187 0.0
H3058 H 0.07021 0.54364 0.57133 0.0
H3059 H 0.07029 0.56256 0.52891 0.0
H3060 H 0.13283 0.52492 0.50615 0.0
H3061 H 0.13317 0.50585 0.54841 0.0
C3062 C 0.15673 0.49225 0.66861 0.0
C3063 C 0.17595 0.48258 0.65452 0.0
C3064 C 0.13804 0.49848 0.65869 0.0
C3065 C 0.13829 0.49494 0.63463 0.0
C3066 C 0.15761 0.4861 0.62032 0.0
C3067 C 0.17618 0.4801 0.63007 0.0
C3068 C 0.11866 0.499 0.62435 0.0
C3069 C 0.1176 0.5105 0.60076 0.0
C3070 C 0.10229 0.48949 0.63608 0.0
C3071 C 0.10225 0.47742 0.66106 0.0
C3072 C 0.11808 0.45891 0.66548 0.0
C3073 C 0.1182 0.44792 0.68935 0.0
C3074 C 0.10247 0.45523 0.70884 0.0
C3075 C 0.08655 0.47351 0.70448 0.0
C3076 C 0.08638 0.48458 0.68065 0.0
C3077 C 0.06421 0.48974 0.54678 0.0
C3078 C 0.04249 0.49465 0.556 0.0
C3079 C 0.07843 0.49095 0.56099 0.0
C3080 C 0.07118 0.4978 0.58435 0.0
C3081 C 0.04954 0.50212 0.59386 0.0
C3082 C 0.03537 0.5004 0.57995 0.0
C3083 C 0.08625 0.50034 0.59877 0.0
C3084 C 0.0862 0.49039 0.62325 0.0
C3085 C 0.10159 0.51134 0.58792 0.0
C3086 C 0.10166 0.52329 0.56288 0.0
C3087 C 0.08395 0.53941 0.55723 0.0
C3088 C 0.08393 0.55014 0.53325 0.0
C3089 C 0.1015 0.54474 0.51488 0.0
C3090 C 0.11923 0.52894 0.52044 0.0
C3091 C 0.11939 0.51825 0.54438 0.0
H3092 H 0.10143 0.55265 0.4963 0.0
H3093 H 0.10261 0.44671 0.72732 0.0
H3094 H 0.56571 0.7349 0.22805 0.0
H3095 H 0.59891 0.73601 0.19946 0.0
H3096 H 0.56428 0.78626 0.15206 0.0
H3097 H 0.53166 0.78539 0.181 0.0
H3098 H 0.61385 0.72763 0.15488 0.0
H3099 H 0.58529 0.81202 0.11718 0.0
H3100 H 0.56896 0.84721 0.12946 0.0
H3101 H 0.59844 0.82859 0.1941 0.0
H3102 H 0.61402 0.79304 0.18274 0.0
H3103 H 0.67044 0.77463 0.03106 0.0
H3104 H 0.64131 0.77282 0.06561 0.0
H3105 H 0.68577 0.74793 0.11582 0.0
H3106 H 0.71508 0.74779 0.08089 0.0
H3107 H 0.63345 0.79255 0.11367 0.0
H3108 H 0.67626 0.71845 0.13465 0.0
H3109 H 0.6957 0.68378 0.1228 0.0
H3110 H 0.64147 0.67979 0.09732 0.0
H3111 H 0.62251 0.71541 0.10661 0.0
C3112 C 0.56536 0.74689 0.21228 0.0
C3113 C 0.54582 0.76084 0.20799 0.0
C3114 C 0.58446 0.74732 0.1954 0.0
C3115 C 0.58487 0.7616 0.17322 0.0
C3116 C 0.56528 0.77557 0.1691 0.0
C3117 C 0.54632 0.77509 0.18593 0.0
C3118 C 0.60508 0.76106 0.15375 0.0
C3119 C 0.61814 0.74192 0.14627 0.0
C3120 C 0.6113 0.77935 0.14155 0.0
C3121 C 0.60042 0.79994 0.14941 0.0
C3122 C 0.58794 0.81542 0.13421 0.0
C3123 C 0.57878 0.83536 0.14104 0.0
C3124 C 0.58254 0.84009 0.16264 0.0
C3125 C 0.59541 0.82486 0.17747 0.0
C3126 C 0.60408 0.80473 0.1711 0.0
C3127 C 0.67418 0.76848 0.04939 0.0
C3128 C 0.6955 0.76151 0.05277 0.0
C3129 C 0.65731 0.7674 0.06933 0.0
C3130 C 0.66088 0.75946 0.09373 0.0
C3131 C 0.68215 0.75315 0.09734 0.0
C3132 C 0.69911 0.75366 0.07722 0.0
C3133 C 0.6423 0.75921 0.11513 0.0
C3134 C 0.6293 0.77825 0.12255 0.0
C3135 C 0.63642 0.74076 0.12746 0.0
C3136 C 0.64833 0.71999 0.12034 0.0
C3137 C 0.66886 0.71065 0.12537 0.0
C3138 C 0.67979 0.6908 0.11912 0.0
C3139 C 0.67001 0.6798 0.10869 0.0
C3140 C 0.64928 0.68862 0.10457 0.0
C3141 C 0.63853 0.70873 0.11007 0.0
H3142 H 0.67836 0.66431 0.10418 0.0
H3143 H 0.57557 0.85557 0.16783 0.0
H3144 H 0.67618 0.47685 0.16479 0.0
H3145 H 0.64537 0.47492 0.15017 0.0
H3146 H 0.62771 0.54183 0.13064 0.0
H3147 H 0.65819 0.54406 0.14629 0.0
H3148 H 0.59221 0.52337 0.14771 0.0
H3149 H 0.65738 0.51553 0.08818 0.0
H3150 H 0.69538 0.49974 0.07561 0.0
H3151 H 0.68424 0.43905 0.08701 0.0
H3152 H 0.64619 0.45447 0.10007 0.0
H3153 H 0.55147 0.53172 0.03464 0.0
H3154 H 0.57487 0.53269 0.06217 0.0
H3155 H 0.57396 0.47014 0.09655 0.0
H3156 H 0.54965 0.4695 0.06984 0.0
H3157 H 0.61711 0.48527 0.07466 0.0
H3158 H 0.55278 0.49156 0.13223 0.0
H3159 H 0.5148 0.50556 0.14639 0.0
H3160 H 0.52358 0.5664 0.14184 0.0
H3161 H 0.56173 0.55301 0.12646 0.0
C3162 C 0.66542 0.49126 0.15819 0.0
C3163 C 0.66987 0.51059 0.15632 0.0
C3164 C 0.64782 0.4901 0.14976 0.0
C3165 C 0.6345 0.50818 0.13899 0.0
C3166 C 0.63789 0.52768 0.13882 0.0
C3167 C 0.65547 0.52889 0.14742 0.0
C3168 C 0.61926 0.5063 0.12459 0.0
C3169 C 0.59762 0.5152 0.13164 0.0
C3170 C 0.62633 0.49527 0.10392 0.0
C3171 C 0.64902 0.48611 0.09523 0.0
C3172 C 0.66307 0.49881 0.08807 0.0
C3173 C 0.6846 0.48993 0.08089 0.0
C3174 C 0.69223 0.4684 0.08055 0.0
C3175 C 0.67832 0.45572 0.0873 0.0
C3176 C 0.65677 0.46452 0.09457 0.0
C3177 C 0.55615 0.51825 0.04816 0.0
C3178 C 0.54845 0.50069 0.05053 0.0
C3179 C 0.56944 0.51884 0.06387 0.0
C3180 C 0.57571 0.50164 0.08162 0.0
C3181 C 0.56889 0.48369 0.08323 0.0
C3182 C 0.55504 0.48335 0.06805 0.0
C3183 C 0.5901 0.50227 0.09777 0.0
C3184 C 0.61165 0.49331 0.09084 0.0
C3185 C 0.58287 0.51302 0.11863 0.0
C3186 C 0.56003 0.52138 0.12757 0.0
C3187 C 0.54659 0.50806 0.1336 0.0
C3188 C 0.52504 0.51589 0.14184 0.0
C3189 C 0.51676 0.53697 0.14455 0.0
C3190 C 0.53007 0.5502 0.13925 0.0
C3191 C 0.55163 0.54251 0.13071 0.0
H3192 H 0.50006 0.54301 0.15101 0.0
H3193 H 0.70892 0.46154 0.07502 0.0
H3194 H 0.39081 0.45289 0.04933 0.0
H3195 H 0.37248 0.43688 0.02793 0.0
H3196 H 0.41549 0.37674 0.04509 0.0
H3197 H 0.43367 0.39269 0.06659 0.0
H3198 H 0.40737 0.3874 0.99353 0.0
H3199 H 0.37031 0.38692 0.08029 0.0
H3200 H 0.35084 0.40566 0.11558 0.0
H3201 H 0.30505 0.44387 0.07127 0.0
H3202 H 0.32447 0.42551 0.03562 0.0
H3203 H 0.37467 0.29889 1.01149 0.0
H3204 H 0.3869 0.32993 1.0023 0.0
H3205 H 0.32257 0.36807 1.00582 0.0
H3206 H 0.31012 0.33674 0.01885 0.0
H3207 H 0.33659 0.37964 0.03487 0.0
H3208 H 0.3668 0.37092 0.9529 0.0
H3209 H 0.38557 0.35254 0.91719 0.0
H3210 H 0.44285 0.33399 0.94733 0.0
H3211 H 0.42441 0.35187 0.98348 0.0
C3212 C 0.39602 0.43621 0.04882 0.0
C3213 C 0.41331 0.42384 0.05986 0.0
C3214 C 0.38579 0.42717 0.03637 0.0
C3215 C 0.39288 0.40572 0.03466 0.0
C3216 C 0.41003 0.39337 0.04593 0.0
C3217 C 0.42013 0.40236 0.05854 0.0
C3218 C 0.38143 0.3956 0.02308 0.0
C3219 C 0.39185 0.38563 1.0023 0.0
C3220 C 0.36078 0.39443 0.03375 0.0
C3221 C 0.3489 0.40504 0.05531 0.0
C3222 C 0.35614 0.39939 0.07808 0.0
C3223 C 0.34513 0.40994 0.09813 0.0
C3224 C 0.32675 0.42599 0.09565 0.0
C3225 C 0.3193 0.43146 0.07315 0.0
C3226 C 0.3303 0.421 0.05303 0.0
C3227 C 0.36306 0.31388 1.01008 0.0
C3228 C 0.34143 0.31531 0.01732 0.0
C3229 C 0.37015 0.33183 1.00407 0.0
C3230 C 0.35572 0.35167 1.00358 0.0
C3231 C 0.33408 0.35301 1.00661 0.0
C3232 C 0.32694 0.33498 0.01382 0.0
C3233 C 0.3629 0.36997 1.0058 0.0
C3234 C 0.35172 0.38176 0.02497 0.0
C3235 C 0.38267 0.37306 0.99316 0.0
C3236 C 0.39416 0.36288 0.97095 0.0
C3237 C 0.3834 0.36293 0.95196 0.0
C3238 C 0.39398 0.35255 0.93163 0.0
C3239 C 0.41539 0.34213 0.92997 0.0
C3240 C 0.42628 0.34213 0.9486 0.0
C3241 C 0.41577 0.35245 0.96899 0.0
H3242 H 0.42354 0.33404 0.91427 0.0
H3243 H 0.31825 0.43415 0.11118 0.0
H3244 H 0.07251 0.20857 0.27613 0.0
H3245 H 0.10132 0.177 0.27739 0.0
H3246 H 0.06181 0.14269 0.26211 0.0
H3247 H 0.03225 0.17438 0.26223 0.0
H3248 H 0.08563 0.11993 0.29697 0.0
H3249 H 0.09928 0.15981 0.21653 0.0
H3250 H 0.10332 0.19212 0.18906 0.0
H3251 H 0.15534 0.19179 0.22218 0.0
H3252 H 0.1513 0.15978 0.25024 0.0
H3253 H 0.17298 0.03213 0.26917 0.0
H3254 H 0.14141 0.06158 0.2677 0.0
H3255 H 0.17696 0.10305 0.27501 0.0
H3256 H 0.20839 0.07419 0.27535 0.0
H3257 H 0.15408 0.12153 0.24273 0.0
H3258 H 0.14049 0.08583 0.32387 0.0
H3259 H 0.13664 0.05587 0.35576 0.0
H3260 H 0.0859 0.04973 0.325 0.0
H3261 H 0.08969 0.07949 0.29266 0.0
C3262 C 0.06961 0.19427 0.27385 0.0
C3263 C 0.0498 0.19402 0.26978 0.0
C3264 C 0.08634 0.1762 0.27405 0.0
C3265 C 0.08393 0.15741 0.26954 0.0
C3266 C 0.06411 0.15698 0.26562 0.0
C3267 C 0.04725 0.17513 0.26561 0.0
C3268 C 0.10222 0.13844 0.26858 0.0
C3269 C 0.10045 0.12012 0.28467 0.0
C3270 C 0.12187 0.1388 0.2532 0.0
C3271 C 0.12487 0.15751 0.2356 0.0
C3272 C 0.11153 0.16667 0.21799 0.0
C3273 C 0.11381 0.18493 0.20235 0.0
C3274 C 0.1295 0.19402 0.20401 0.0
C3275 C 0.14314 0.18475 0.22103 0.0
C3276 C 0.14085 0.16657 0.23681 0.0
C3277 C 0.17403 0.04749 0.27068 0.0
C3278 C 0.19329 0.05054 0.27298 0.0
C3279 C 0.15591 0.06436 0.26989 0.0
C3280 C 0.15659 0.08464 0.2716 0.0
C3281 C 0.17584 0.08766 0.27376 0.0
C3282 C 0.19388 0.07092 0.27434 0.0
C3283 C 0.13749 0.10284 0.27088 0.0
C3284 C 0.13914 0.1211 0.25459 0.0
C3285 C 0.11788 0.10253 0.28635 0.0
C3286 C 0.11553 0.0847 0.30571 0.0
C3287 C 0.12863 0.07797 0.3238 0.0
C3288 C 0.12644 0.06105 0.34196 0.0
C3289 C 0.11107 0.05086 0.34236 0.0
C3290 C 0.09783 0.05761 0.32463 0.0
C3291 C 0.09998 0.0745 0.30638 0.0
H3292 H 0.10939 0.03776 0.35646 0.0
H3293 H 0.13106 0.2083 0.19223 0.0
H3294 H 0.25117 0.29642 0.92787 0.0
H3295 H 0.24962 0.32797 0.89795 0.0
H3296 H 0.24779 0.36261 0.95581 0.0
H3297 H 0.24886 0.33087 0.98615 0.0
H3298 H 0.21946 0.38494 0.92507 0.0
H3299 H 0.29331 0.34697 0.91263 0.0
H3300 H 0.32227 0.31548 0.90455 0.0
H3301 H 0.30368 0.31659 0.83541 0.0
H3302 H 0.27442 0.34793 0.84324 0.0
H3303 H 0.22993 0.47795 0.84945 0.0
H3304 H 0.23408 0.44627 0.87855 0.0
H3305 H 0.25838 0.40969 0.81827 0.0
H3306 H 0.25845 0.44195 0.78944 0.0
H3307 H 0.27451 0.38697 0.8504 0.0
H3308 H 0.20054 0.42182 0.86089 0.0
H3309 H 0.16919 0.45153 0.8677 0.0
H3310 H 0.18377 0.45387 0.93804 0.0
H3311 H 0.21533 0.42434 0.93151 0.0
C3312 C 0.25017 0.3107 0.93446 0.0
C3313 C 0.2499 0.31086 0.95973 0.0
C3314 C 0.24954 0.32887 0.9171 0.0
C3315 C 0.24878 0.34795 0.92426 0.0
C3316 C 0.24841 0.34824 0.94954 0.0
C3317 C 0.24914 0.32996 0.96695 0.0
C3318 C 0.24833 0.36744 0.90546 0.0
C3319 C 0.23165 0.38544 0.90889 0.0
C3320 C 0.26365 0.36816 0.88363 0.0
C3321 C 0.28166 0.34976 0.87854 0.0
C3322 C 0.29539 0.34048 0.89572 0.0
C3323 C 0.31183 0.32265 0.8912 0.0
C3324 C 0.31482 0.31407 0.86948 0.0
C3325 C 0.30137 0.32329 0.85221 0.0
C3326 C 0.28487 0.3411 0.85665 0.0
C3327 C 0.23609 0.46322 0.84215 0.0
C3328 C 0.24263 0.46286 0.81649 0.0
C3329 C 0.23807 0.44476 0.85909 0.0
C3330 C 0.2451 0.42487 0.85121 0.0
C3331 C 0.25225 0.42444 0.82549 0.0
C3332 C 0.25169 0.44309 0.8086 0.0
C3333 C 0.24544 0.40492 0.86977 0.0
C3334 C 0.26213 0.3867 0.86637 0.0
C3335 C 0.22968 0.40374 0.89131 0.0
C3336 C 0.21031 0.42095 0.89566 0.0
C3337 C 0.19701 0.42866 0.87782 0.0
C3338 C 0.17924 0.44549 0.88161 0.0
C3339 C 0.17449 0.45458 0.90329 0.0
C3340 C 0.18745 0.4468 0.92127 0.0
C3341 C 0.20525 0.43 0.91756 0.0
H3342 H 0.16076 0.46765 0.90615 0.0
H3343 H 0.32759 0.3003 0.86603 0.0
H3344 H 0.28629 0.26233 0.94278 0.0
H3345 H 0.31588 0.26353 0.90827 0.0
H3346 H 0.35971 0.22925 0.95722 0.0
H3347 H 0.33044 0.22832 0.99133 0.0
H3348 H 0.37617 0.25651 0.93255 0.0
H3349 H 0.35232 0.20667 0.89724 0.0
H3350 H 0.32855 0.19417 0.87939 0.0
H3351 H 0.31054 0.25405 0.83565 0.0
H3352 H 0.33531 0.26639 0.85204 0.0
H3353 H 0.47135 0.22565 0.84803 0.0
H3354 H 0.43849 0.22709 0.87747 0.0
H3355 H 0.40356 0.26812 0.82284 0.0
H3356 H 0.43681 0.26711 0.79339 0.0
H3357 H 0.38119 0.24129 0.84794 0.0
H3358 H 0.41272 0.2856 0.8726 0.0
H3359 H 0.43917 0.29827 0.88519 0.0
H3360 H 0.44203 0.25115 0.94887 0.0
H3361 H 0.41552 0.23826 0.93664 0.0
C3362 C 0.30219 0.25465 0.94611 0.0
C3363 C 0.30561 0.24498 0.97022 0.0
C3364 C 0.31936 0.25529 0.92611 0.0
C3365 C 0.34069 0.2463 0.9294 0.0
C3366 C 0.34384 0.23646 0.95348 0.0
C3367 C 0.32683 0.23581 0.97325 0.0
C3368 C 0.35981 0.24778 0.90881 0.0
C3369 C 0.3772 0.25277 0.91424 0.0
C3370 C 0.36157 0.24409 0.88408 0.0
C3371 C 0.34521 0.23757 0.87626 0.0
C3372 C 0.34306 0.21722 0.88407 0.0
C3373 C 0.32963 0.21009 0.87398 0.0
C3374 C 0.31782 0.22339 0.85665 0.0
C3375 C 0.31959 0.2438 0.84917 0.0
C3376 C 0.33348 0.2508 0.85866 0.0
C3377 C 0.45671 0.23493 0.84207 0.0
C3378 C 0.45707 0.24594 0.81786 0.0
C3379 C 0.43772 0.23586 0.85917 0.0
C3380 C 0.41804 0.2479 0.85298 0.0
C3381 C 0.41823 0.25864 0.82855 0.0
C3382 C 0.4374 0.25793 0.81147 0.0
C3383 C 0.39767 0.24924 0.87207 0.0
C3384 C 0.38012 0.24492 0.86632 0.0
C3385 C 0.39571 0.25376 0.89647 0.0
C3386 C 0.41218 0.26092 0.9036 0.0
C3387 C 0.41906 0.27789 0.88921 0.0
C3388 C 0.43403 0.28514 0.89632 0.0
C3389 C 0.4423 0.27551 0.91781 0.0
C3390 C 0.4356 0.25861 0.93223 0.0
C3391 C 0.42055 0.25136 0.92524 0.0
H3392 H 0.45387 0.28115 0.92331 0.0
H3393 H 0.30741 0.21785 0.84887 0.0
H3394 H 0.45949 0.53777 0.93914 0.0
H3395 H 0.43565 0.53293 0.91486 0.0
H3396 H 0.40929 0.49535 0.97803 0.0
H3397 H 0.43358 0.49949 1.00219 0.0
H3398 H 0.42315 0.476 0.93435 0.0
H3399 H 0.38108 0.54189 0.96071 0.0
H3400 H 0.37448 0.57887 0.96539 0.0
H3401 H 0.38776 0.59472 0.8865 0.0
H3402 H 0.39475 0.55775 0.88138 0.0
H3403 H 0.32463 0.47349 0.91145 0.0
H3404 H 0.35739 0.47325 0.92347 0.0
H3405 H 0.37086 0.51484 0.85683 0.0
H3406 H 0.33755 0.51593 0.84529 0.0
H3407 H 0.36857 0.53173 0.8957 0.0
H3408 H 0.40381 0.46489 0.87084 0.0
H3409 H 0.41057 0.42758 0.86769 0.0
H3410 H 0.40939 0.41223 0.94608 0.0
H3411 H 0.40212 0.44945 0.94985 0.0
C3412 C 0.44863 0.52852 0.94791 0.0
C3413 C 0.44886 0.51863 0.97244 0.0
C3414 C 0.43493 0.52586 0.93403 0.0
C3415 C 0.42106 0.51341 0.94454 0.0
C3416 C 0.42022 0.50467 0.96948 0.0
C3417 C 0.43395 0.5073 0.98336 0.0
C3418 C 0.40794 0.50886 0.92934 0.0
C3419 C 0.41089 0.48804 0.92629 0.0
C3420 C 0.3929 0.52481 0.91763 0.0
C3421 C 0.3887 0.54703 0.92068 0.0
C3422 C 0.3828 0.55323 0.94438 0.0
C3423 C 0.37894 0.57419 0.94711 0.0
C3424 C 0.38077 0.58913 0.92626 0.0
C3425 C 0.3864 0.58313 0.90263 0.0
C3426 C 0.3903 0.56218 0.89981 0.0
C3427 C 0.33478 0.48227 0.89911 0.0
C3428 C 0.32824 0.49519 0.87778 0.0
C3429 C 0.35369 0.48187 0.90583 0.0
C3430 C 0.36654 0.49415 0.89113 0.0
C3431 C 0.36111 0.50532 0.8685 0.0
C3432 C 0.3421 0.50585 0.86186 0.0
C3433 C 0.38294 0.49853 0.90166 0.0
C3434 C 0.38079 0.51947 0.9037 0.0
C3435 C 0.39848 0.48254 0.91279 0.0
C3436 C 0.40224 0.4601 0.91063 0.0
C3437 C 0.4047 0.45362 0.88747 0.0
C3438 C 0.40868 0.43245 0.88557 0.0
C3439 C 0.41037 0.41755 0.90667 0.0
C3440 C 0.40806 0.42378 0.92974 0.0
C3441 C 0.40401 0.44493 0.93176 0.0
H3442 H 0.41349 0.40117 0.90514 0.0
H3443 H 0.37777 0.60536 0.92841 0.0
H3444 H 0.64296 0.69178 0.05461 0.0
H3445 H 0.62975 0.66087 0.06172 0.0
H3446 H 0.67429 0.63775 0.99886 0.0
H3447 H 0.68739 0.66861 0.99148 0.0
H3448 H 0.61143 0.65904 0.02371 0.0
H3449 H 0.68049 0.58418 1.00395 0.0
H3450 H 0.71463 0.56554 0.01702 0.0
H3451 H 0.69584 0.59537 0.0825 0.0
H3452 H 0.66136 0.61383 0.0702 0.0
H3453 H 0.60423 0.59673 0.9411 0.0
H3454 H 0.62491 0.60746 0.96474 0.0
H3455 H 0.58629 0.58911 0.03275 0.0
H3456 H 0.56495 0.57904 1.0093 0.0
H3457 H 0.64309 0.58344 0.01923 0.0
H3458 H 0.56782 0.6281 0.03812 0.0
H3459 H 0.53431 0.64595 0.02289 0.0
H3460 H 0.56756 0.67702 0.95955 0.0
H3461 H 0.60127 0.65911 0.97434 0.0
C3462 C 0.6504 0.67978 0.04282 0.0
C3463 C 0.66592 0.68286 0.02227 0.0
C3464 C 0.64295 0.66206 0.04702 0.0
C3465 C 0.65099 0.6471 0.03076 0.0
C3466 C 0.66806 0.64899 0.01184 0.0
C3467 C 0.67549 0.66676 1.00758 0.0
C3468 C 0.63843 0.63294 0.02935 0.0
C3469 C 0.61816 0.64236 0.02366 0.0
C3470 C 0.64736 0.61128 0.02874 0.0
C3471 C 0.66826 0.60045 0.03608 0.0
C3472 C 0.68354 0.58669 0.02123 0.0
C3473 C 0.70297 0.57614 0.02851 0.0
C3474 C 0.70736 0.57921 0.05062 0.0
C3475 C 0.6924 0.59298 0.0654 0.0
C3476 C 0.6729 0.60352 0.05825 0.0
C3477 C 0.60025 0.59478 0.96109 0.0
C3478 C 0.58279 0.58732 0.97327 0.0
C3479 C 0.61227 0.60059 0.97456 0.0
C3480 C 0.60713 0.59889 1.0004 0.0
C3481 C 0.59058 0.59025 0.0128 0.0
C3482 C 0.57842 0.58455 0.99933 0.0
C3483 C 0.61653 0.60976 0.01352 0.0
C3484 C 0.63621 0.59989 0.02067 0.0
C3485 C 0.60719 0.63103 0.01569 0.0
C3486 C 0.58695 0.64224 1.00723 0.0
C3487 C 0.56793 0.6387 0.02092 0.0
C3488 C 0.54893 0.64881 0.01237 0.0
C3489 C 0.54881 0.66259 0.99024 0.0
C3490 C 0.56768 0.66634 0.97667 0.0
C3491 C 0.58672 0.65623 0.98513 0.0
H3492 H 0.53409 0.67038 0.98363 0.0
H3493 H 0.72235 0.57089 0.05631 0.0
H3494 H 0.94134 0.80498 0.72271 0.0
H3495 H 0.91103 0.83517 0.72453 0.0
H3496 H 0.9317 0.85335 0.78287 0.0
H3497 H 0.961 0.82186 0.78281 0.0
H3498 H 0.8914 0.86023 0.79336 0.0
H3499 H 0.93805 0.87685 0.71713 0.0
H3500 H 0.95922 0.86972 0.67629 0.0
H3501 H 0.90397 0.86809 0.65089 0.0
H3502 H 0.88256 0.87496 0.69166 0.0
H3503 H 0.82032 0.9621 0.78711 0.0
H3504 H 0.85205 0.93278 0.78659 0.0
H3505 H 0.83695 0.91403 0.72459 0.0
H3506 H 0.80696 0.9443 0.72343 0.0
H3507 H 0.87521 0.90785 0.71667 0.0
H3508 H 0.82838 0.88926 0.78993 0.0
H3509 H 0.80543 0.89378 0.83045 0.0
H3510 H 0.85769 0.89654 0.86099 0.0
H3511 H 0.88091 0.8922 0.82061 0.0
C3512 C 0.93933 0.81504 0.73629 0.0
C3513 C 0.95357 0.81048 0.75291 0.0
C3514 C 0.92207 0.83271 0.737 0.0
C3515 C 0.91909 0.84697 0.75354 0.0
C3516 C 0.9335 0.8427 0.7699 0.0
C3517 C 0.95044 0.82468 0.76967 0.0
C3518 C 0.90099 0.86625 0.75391 0.0
C3519 C 0.88806 0.8708 0.7766 0.0
C3520 C 0.896 0.87983 0.73208 0.0
C3521 C 0.90878 0.8763 0.70743 0.0
C3522 C 0.93046 0.87493 0.70282 0.0
C3523 C 0.94249 0.87092 0.67971 0.0
C3524 C 0.93295 0.86842 0.66102 0.0
C3525 C 0.91134 0.87002 0.66537 0.0
C3526 C 0.89925 0.87401 0.68846 0.0
C3527 C 0.82392 0.95187 0.77317 0.0
C3528 C 0.81055 0.95534 0.75572 0.0
C3529 C 0.84196 0.93485 0.77312 0.0
C3530 C 0.84676 0.9206 0.75602 0.0
C3531 C 0.83371 0.92449 0.73821 0.0
C3532 C 0.81614 0.94174 0.73784 0.0
C3533 C 0.86542 0.90183 0.75611 0.0
C3534 C 0.8785 0.89737 0.7335 0.0
C3535 C 0.87021 0.8881 0.77794 0.0
C3536 C 0.85631 0.89064 0.80221 0.0
C3537 C 0.83493 0.89097 0.80526 0.0
C3538 C 0.82188 0.89348 0.82819 0.0
C3539 C 0.83007 0.89554 0.84824 0.0
C3540 C 0.85135 0.89499 0.84543 0.0
C3541 C 0.86447 0.89248 0.82254 0.0
H3542 H 0.81993 0.89749 0.86598 0.0
H3543 H 0.94231 0.86527 0.64316 0.0
H3544 H 0.47064 0.16161 0.67716 0.0
H3545 H 0.47613 0.13064 0.65699 0.0
H3546 H 0.5068 0.16044 0.58998 0.0
H3547 H 0.5015 0.19107 0.60994 0.0
H3548 H 0.46885 0.14972 0.58683 0.0
H3549 H 0.53467 0.119 0.6191 0.0
H3550 H 0.55417 0.107 0.65413 0.0
H3551 H 0.51789 0.06269 0.68478 0.0
H3552 H 0.49784 0.07473 0.65025 0.0
H3553 H 0.48127 0.07971 0.50522 0.0
H3554 H 0.48668 0.10333 0.52904 0.0
H3555 H 0.48791 0.05631 0.59343 0.0
H3556 H 0.48767 0.03136 0.56774 0.0
H3557 H 0.50924 0.07555 0.60066 0.0
H3558 H 0.44117 0.10497 0.57676 0.0
H3559 H 0.41567 0.1174 0.54784 0.0
H3560 H 0.44773 0.16364 0.50956 0.0
H3561 H 0.47355 0.15132 0.53803 0.0
C3562 C 0.47926 0.16114 0.65844 0.0
C3563 C 0.48554 0.17876 0.64504 0.0
C3564 C 0.48231 0.14351 0.64689 0.0
C3565 C 0.49171 0.1433 0.62185 0.0
C3566 C 0.49943 0.16025 0.6092 0.0
C3567 C 0.49645 0.17773 0.62066 0.0
C3568 C 0.49083 0.12713 0.6077 0.0
C3569 C 0.47782 0.1335 0.58965 0.0
C3570 C 0.50173 0.10583 0.61222 0.0
C3571 C 0.51457 0.09796 0.63224 0.0
C3572 C 0.53075 0.1068 0.6334 0.0
C3573 C 0.54188 0.1 0.65318 0.0
C3574 C 0.53714 0.08421 0.67177 0.0
C3575 C 0.52146 0.07499 0.67044 0.0
C3576 C 0.51022 0.08179 0.65076 0.0
C3577 C 0.48246 0.07435 0.52453 0.0
C3578 C 0.48242 0.0537 0.53495 0.0
C3579 C 0.48528 0.08815 0.53841 0.0
C3580 C 0.48625 0.08246 0.56383 0.0
C3581 C 0.48662 0.06168 0.57415 0.0
C3582 C 0.48555 0.04739 0.55963 0.0
C3583 C 0.48709 0.09802 0.57936 0.0
C3584 C 0.50005 0.09165 0.59774 0.0
C3585 C 0.47527 0.11928 0.57605 0.0
C3586 C 0.45934 0.12715 0.55944 0.0
C3587 C 0.44276 0.11779 0.56217 0.0
C3588 C 0.42828 0.12479 0.54583 0.0
C3589 C 0.43009 0.14128 0.52686 0.0
C3590 C 0.44634 0.15087 0.52425 0.0
C3591 C 0.46088 0.14391 0.5405 0.0
H3592 H 0.4189 0.14664 0.51419 0.0
H3593 H 0.54565 0.07907 0.68718 0.0
H3594 H 0.51692 0.36094 0.83021 0.0
H3595 H 0.51123 0.39078 0.85225 0.0
H3596 H 0.50046 0.35179 0.92194 0.0
H3597 H 0.50624 0.32205 0.89992 0.0
H3598 H 0.47547 0.39201 0.92326 0.0
H3599 H 0.54803 0.35616 0.9005 0.0
H3600 H 0.57974 0.34132 0.87142 0.0
H3601 H 0.57778 0.40239 0.83079 0.0
H3602 H 0.54577 0.41752 0.85941 0.0
H3603 H 0.5319 0.43059 0.99839 0.0
H3604 H 0.5292 0.40794 0.97042 0.0
H3605 H 0.49422 0.46154 0.92729 0.0
H3606 H 0.49528 0.48381 0.95612 0.0
H3607 H 0.53996 0.41675 0.91049 0.0
H3608 H 0.46279 0.45057 0.93902 0.0
H3609 H 0.43267 0.45974 0.9726 0.0
H3610 H 0.44551 0.39595 1.00673 0.0
H3611 H 0.47659 0.3866 0.97443 0.0
C3612 C 0.51257 0.35904 0.85017 0.0
C3613 C 0.51184 0.33937 0.86345 0.0
C3614 C 0.50949 0.37599 0.86275 0.0
C3615 C 0.5057 0.37342 0.88875 0.0
C3616 C 0.50334 0.35414 0.9019 0.0
C3617 C 0.50658 0.33719 0.88935 0.0
C3618 C 0.50667 0.38985 0.90234 0.0
C3619 C 0.48949 0.39758 0.92025 0.0
C3620 C 0.52509 0.39686 0.89883 0.0
C3621 C 0.5444 0.3879 0.88183 0.0
C3622 C 0.55427 0.36638 0.88523 0.0
C3623 C 0.5723 0.35792 0.86886 0.0
C3624 C 0.58074 0.37089 0.84921 0.0
C3625 C 0.57119 0.39236 0.84597 0.0
C3626 C 0.55311 0.40088 0.86224 0.0
C3627 C 0.52371 0.43753 0.98288 0.0
C3628 C 0.51408 0.4591 0.97933 0.0
C3629 C 0.52212 0.42459 0.96699 0.0
C3630 C 0.51103 0.43302 0.94719 0.0
C3631 C 0.50232 0.45463 0.94287 0.0
C3632 C 0.50334 0.46745 0.95914 0.0
C3633 C 0.50862 0.41918 0.93105 0.0
C3634 C 0.52571 0.41168 0.91292 0.0
C3635 C 0.4903 0.41203 0.93474 0.0
C3636 C 0.47234 0.41803 0.95472 0.0
C3637 C 0.45963 0.43865 0.95411 0.0
C3638 C 0.44231 0.44385 0.97279 0.0
C3639 C 0.43717 0.42847 0.9916 0.0
C3640 C 0.44954 0.40788 0.99217 0.0
C3641 C 0.46713 0.40265 0.97384 0.0
H3642 H 0.42352 0.43257 1.00559 0.0
H3643 H 0.5947 0.36432 0.83655 0.0
H3644 H 0.54887 0.84512 0.34336 0.0
H3645 H 0.5433 0.87442 0.36591 0.0
H3646 H 0.4844 0.86338 0.40611 0.0
H3647 H 0.48986 0.83405 0.38319 0.0
H3648 H 0.4852 0.90776 0.39439 0.0
H3649 H 0.52539 0.8409 0.43138 0.0
H3650 H 0.55441 0.80865 0.42892 0.0
H3651 H 0.59961 0.84495 0.40664 0.0
H3652 H 0.57082 0.87742 0.40852 0.0
H3653 H 0.48152 0.96133 0.4935 0.0
H3654 H 0.47996 0.93738 0.46692 0.0
H3655 H 0.54761 0.92415 0.44434 0.0
H3656 H 0.54898 0.94576 0.47401 0.0
H3657 H 0.54024 0.89168 0.44684 0.0
H3658 H 0.50369 0.95811 0.40782 0.0
H3659 H 0.47679 0.99178 0.40313 0.0
H3660 H 0.42776 0.96008 0.42254 0.0
H3661 H 0.45431 0.92617 0.42778 0.0
C3662 C 0.53439 0.84939 0.35641 0.0
C3663 C 0.51981 0.83731 0.36154 0.0
C3664 C 0.53126 0.86607 0.36937 0.0
C3665 C 0.51361 0.87089 0.38801 0.0
C3666 C 0.49813 0.85995 0.39181 0.0
C3667 C 0.50121 0.84326 0.37866 0.0
C3668 C 0.51289 0.88543 0.40532 0.0
C3669 C 0.49705 0.90426 0.40611 0.0
C3670 C 0.52868 0.8811 0.4201 0.0
C3671 C 0.54597 0.86155 0.41995 0.0
C3672 C 0.54152 0.84198 0.42588 0.0
C3673 C 0.55792 0.82367 0.42457 0.0
C3674 C 0.57884 0.82475 0.4176 0.0
C3675 C 0.5834 0.84414 0.41203 0.0
C3676 C 0.56706 0.86249 0.41323 0.0
C3677 C 0.49594 0.9535 0.48249 0.0
C3678 C 0.51525 0.95645 0.48454 0.0
C3679 C 0.49508 0.93988 0.46706 0.0
C3680 C 0.51353 0.92943 0.4524 0.0
C3681 C 0.53297 0.93212 0.45495 0.0
C3682 C 0.53382 0.94494 0.47145 0.0
C3683 C 0.51283 0.91481 0.43564 0.0
C3684 C 0.52834 0.89562 0.43513 0.0
C3685 C 0.49702 0.9192 0.42061 0.0
C3686 C 0.481 0.9396 0.41829 0.0
C3687 C 0.48717 0.95831 0.4113 0.0
C3688 C 0.472 0.97743 0.40851 0.0
C3689 C 0.45065 0.97803 0.41237 0.0
C3690 C 0.44434 0.95955 0.41941 0.0
C3691 C 0.45943 0.94038 0.42233 0.0
H3692 H 0.43902 0.99283 0.40982 0.0
H3693 H 0.59152 0.81056 0.41655 0.0
H3694 H 0.45993 0.55524 0.05902 0.0
H3695 H 0.46566 0.57445 0.08811 0.0
H3696 H 0.5262 0.57649 0.04356 0.0
H3697 H 0.52146 0.55414 0.01682 0.0
H3698 H 0.53029 0.57726 0.08651 0.0
H3699 H 0.47726 0.61792 0.04005 0.0
H3700 H 0.44469 0.62629 0.02244 0.0
H3701 H 0.408 0.62432 0.09552 0.0
H3702 H 0.4404 0.61568 0.11358 0.0
H3703 H 0.51919 0.68187 0.11378 0.0
H3704 H 0.52475 0.64943 0.09689 0.0
H3705 H 0.47983 0.63037 0.15785 0.0
H3706 H 0.47454 0.66269 0.17502 0.0
H3707 H 0.46953 0.63696 0.10858 0.0
H3708 H 0.52753 0.60237 0.15203 0.0
H3709 H 0.5622 0.59602 0.16408 0.0
H3710 H 0.59245 0.59185 0.08863 0.0
H3711 H 0.55794 0.59851 0.076 0.0
C3712 C 0.47487 0.55854 0.05634 0.0
C3713 C 0.49052 0.55208 0.03643 0.0
C3714 C 0.47798 0.57033 0.07251 0.0
C3715 C 0.49619 0.5776 0.06789 0.0
C3716 C 0.51198 0.57119 0.04782 0.0
C3717 C 0.5092 0.5585 0.03239 0.0
C3718 C 0.49797 0.59299 0.08286 0.0
C3719 C 0.51706 0.59044 0.09108 0.0
C3720 C 0.48083 0.61035 0.08892 0.0
C3721 C 0.46125 0.616 0.07816 0.0
C3722 C 0.46224 0.61922 0.05236 0.0
C3723 C 0.44382 0.62399 0.0423 0.0
C3724 C 0.42429 0.6258 0.05785 0.0
C3725 C 0.42314 0.6229 0.0835 0.0
C3726 C 0.44152 0.61809 0.09366 0.0
C3727 C 0.51118 0.67033 0.12408 0.0
C3728 C 0.49644 0.67473 0.1457 0.0
C3729 C 0.51437 0.65181 0.11443 0.0
C3730 C 0.50268 0.63749 0.12607 0.0
C3731 C 0.4891 0.64117 0.14864 0.0
C3732 C 0.48614 0.65956 0.15851 0.0
C3733 C 0.50164 0.62104 0.11252 0.0
C3734 C 0.48269 0.62364 0.10422 0.0
C3735 C 0.51926 0.60445 0.10547 0.0
C3736 C 0.54001 0.6012 0.11299 0.0
C3737 C 0.5415 0.60048 0.1379 0.0
C3738 C 0.56117 0.59669 0.14487 0.0
C3739 C 0.57952 0.59357 0.12714 0.0
C3740 C 0.57823 0.59427 0.10237 0.0
C3741 C 0.55861 0.59803 0.09529 0.0
H3742 H 0.59473 0.59056 0.1326 0.0
H3743 H 0.41005 0.62947 0.05003 0.0
loop_
_geom_bond_atom_site_label_1
_geom_bond_atom_site_label_2
_geom_bond_distance
_geom_bond_site_symmetry_2
_ccdc_geom_bond_type
Eu0 N31 2.657 1_565 S
Eu0 N38 2.609 . S
Eu0 O44 2.558 . S
Eu0 O45 2.612 1_654 S
Eu0 O47 2.339 1_564 S
Eu0 O48 2.563 1_554 S
Eu0 O49 2.419 . S
Eu0 O51 2.380 1_565 S
Eu0 O52 2.432 1_655 S
Eu0 C64 2.848 . S
C1 C4 1.429 1_545 S
C1 C5 1.411 . S
C1 N8 1.377 . S
C2 C4 1.420 . S
C2 C6 1.423 . S
C2 C14 1.392 . S
C3 C5 1.420 1_565 S
C3 C6 1.351 . S
C3 H26 0.931 . S
C4 C1 1.429 1_565 S
C4 C2 1.420 . S
C4 N12 1.362 . S
C5 C1 1.411 . S
C5 C3 1.420 1_545 S
C5 C10 1.395 . S
C6 C2 1.423 . S
C6 C3 1.351 . S
C6 H18 0.930 . S
C7 C9 1.400 . S
C7 C10 1.386 . S
C7 H19 0.920 1_455 S
N8 C1 1.377 . S
N8 C9 1.321 . S
N8 Eu11 2.609 . S
C9 C7 1.400 . S
C9 N8 1.321 . S
C9 H16 0.930 1_455 S
C10 C5 1.395 . S
C10 C7 1.386 . S
C10 H29 0.930 . S
Eu11 N8 2.609 . S
Eu11 N12 2.657 1_545 S
Eu11 O45 2.380 1_545 S
Eu11 O46 2.432 1_455 S
Eu11 O50 2.558 . S
Eu11 O51 2.612 1_456 S
Eu11 O53 2.339 1_546 S
Eu11 O54 2.563 1_556 S
Eu11 O55 2.419 . S
Eu11 C75 2.848 . S
N12 C4 1.362 . S
N12 Eu11 2.657 1_565 S
N12 C13 1.334 . S
C13 N12 1.334 . S
C13 C15 1.413 . S
C13 H20 0.929 . S
C14 C2 1.392 . S
C14 C15 1.367 . S
C14 H22 0.930 . S
C15 C13 1.413 . S
C15 C14 1.367 . S
C15 H17 0.930 . S
H16 C9 0.930 1_655 S
H17 C15 0.930 . S
H18 C6 0.930 . S
H19 C7 0.920 1_655 S
H20 C13 0.929 . S
H21 C35 0.930 . S
H22 C14 0.930 . S
H23 C41 0.930 1_455 S
H24 C32 0.929 . S
H25 C39 0.901 1_455 S
H26 C3 0.931 . S
H27 C33 0.930 . S
H28 C66 0.930 . S
H29 C10 0.930 . S
H30 C65 0.931 . S
N31 Eu0 2.657 1_545 S
N31 C32 1.334 . S
N31 C36 1.362 . S
C32 H24 0.929 . S
C32 N31 1.334 . S
C32 C35 1.413 . S
C33 H27 0.930 . S
C33 C34 1.392 . S
C33 C35 1.367 . S
C34 C33 1.392 . S
C34 C36 1.420 . S
C34 C66 1.423 . S
C35 H21 0.930 . S
C35 C32 1.413 . S
C35 C33 1.367 . S
C36 N31 1.362 . S
C36 C34 1.420 . S
C36 C40 1.429 1_545 S
H37 C42 0.930 . S
N38 Eu0 2.609 . S
N38 C40 1.377 . S
N38 C41 1.321 . S
C39 H25 0.901 1_655 S
C39 C41 1.400 . S
C39 C42 1.386 . S
C40 C36 1.429 1_565 S
C40 N38 1.377 . S
C40 C43 1.411 . S
C41 H23 0.930 1_655 S
C41 N38 1.321 . S
C41 C39 1.400 . S
C42 H37 0.930 . S
C42 C39 1.386 . S
C42 C43 1.395 . S
C43 C40 1.411 . S
C43 C42 1.395 . S
C43 C65 1.420 1_565 S
O44 Eu0 2.558 . S
O44 C64 1.257 . S
O45 Eu0 2.612 1_456 S
O45 Eu11 2.380 1_565 S
O45 C56 1.276 . S
O46 Eu11 2.432 1_655 S
O46 C63 1.264 . S
O47 Eu0 2.339 1_546 S
O47 C63 1.254 . S
O48 Eu0 2.563 1_556 S
O48 C56 1.235 1_655 S
O49 Eu0 2.419 . S
O49 C64 1.249 . S
O50 Eu11 2.558 . S
O50 C75 1.257 . S
O51 Eu0 2.380 1_545 S
O51 Eu11 2.612 1_654 S
O51 C67 1.276 . S
O52 Eu0 2.432 1_455 S
O52 C74 1.264 . S
O53 Eu11 2.339 1_564 S
O53 C74 1.254 . S
O54 Eu11 2.563 1_554 S
O54 C67 1.235 1_455 S
O55 Eu11 2.419 . S
O55 C75 1.249 . S
C56 O45 1.276 . S
C56 O48 1.235 1_455 S
C57 C59 1.393 . S
C57 C61 1.395 . S
C57 C64 1.492 . S
C58 C59 1.392 . S
C58 C60 1.386 . S
C59 C57 1.393 . S
C59 C58 1.392 . S
C59 H76 0.930 . S
C60 C58 1.386 . S
C60 C62 1.395 . S
C60 H77 0.930 . S
C61 C57 1.395 . S
C61 C62 1.379 . S
C61 H78 0.930 . S
C62 C60 1.395 . S
C62 C61 1.379 . S
C62 H79 0.930 . S
C63 O46 1.264 . S
C63 O47 1.254 . S
C64 Eu0 2.848 . S
C64 O44 1.257 . S
C64 O49 1.249 . S
C64 C57 1.492 . S
C65 H30 0.931 . S
C65 C43 1.420 1_545 S
C65 C66 1.351 . S
C66 H28 0.930 . S
C66 C34 1.423 . S
C66 C65 1.351 . S
C67 O51 1.276 . S
C67 O54 1.235 1_655 S
C68 C69 1.393 . S
C68 C72 1.395 . S
C68 C75 1.492 . S
C69 C68 1.393 . S
C69 C70 1.392 . S
C69 H80 0.930 . S
C70 C69 1.392 . S
C70 C71 1.386 . S
C71 C70 1.386 . S
C71 C73 1.395 . S
C71 H81 0.930 . S
C72 C68 1.395 . S
C72 C73 1.379 . S
C72 H82 0.930 . S
C73 C71 1.395 . S
C73 C72 1.379 . S
C73 H83 0.930 . S
C74 O52 1.264 . S
C74 O53 1.254 . S
C75 Eu11 2.848 . S
C75 O50 1.257 . S
C75 O55 1.249 . S
C75 C68 1.492 . S
H76 C59 0.930 . S
H77 C60 0.930 . S
H78 C61 0.930 . S
H79 C62 0.930 . S
H80 C69 0.930 . S
H81 C71 0.930 . S
H82 C72 0.930 . S
H83 C73 0.930 . S
Eu84 N115 2.657 . S
Eu84 N122 2.609 . S
Eu84 O128 2.558 . S
Eu84 O129 2.612 1_455 S
Eu84 O131 2.339 1_455 S
Eu84 O132 2.563 1_455 S
Eu84 O133 2.419 . S
Eu84 O135 2.380 . S
Eu84 O136 2.432 . S
Eu84 C148 2.848 . S
C85 C88 1.429 . S
C85 C89 1.411 . S
C85 N92 1.377 . S
C86 C88 1.420 . S
C86 C90 1.423 . S
C86 C98 1.392 . S
C87 C89 1.420 . S
C87 C90 1.351 . S
C87 H110 0.931 . S
C88 C85 1.429 . S
C88 C86 1.420 . S
C88 N96 1.362 . S
C89 C85 1.411 . S
C89 C87 1.420 . S
C89 C94 1.395 . S
C90 C86 1.423 . S
C90 C87 1.351 . S
C90 H102 0.930 . S
C91 C93 1.400 . S
C91 C94 1.386 . S
C91 H103 0.930 . S
N92 C85 1.377 . S
N92 C93 1.321 . S
N92 Eu95 2.609 . S
C93 C91 1.400 . S
C93 N92 1.321 . S
C93 H100 0.930 . S
C94 C89 1.395 . S
C94 C91 1.386 . S
C94 H113 0.930 . S
Eu95 N92 2.609 . S
Eu95 N96 2.657 . S
Eu95 O129 2.380 . S
Eu95 O130 2.432 . S
Eu95 O134 2.558 . S
Eu95 O135 2.612 1_655 S
Eu95 O137 2.339 1_655 S
Eu95 O138 2.563 1_655 S
Eu95 O139 2.419 . S
Eu95 C159 2.848 . S
N96 C88 1.362 . S
N96 Eu95 2.657 . S
N96 C97 1.334 . S
C97 N96 1.334 . S
C97 C99 1.413 . S
C97 H104 0.929 . S
C98 C86 1.392 . S
C98 C99 1.367 . S
C98 H106 0.930 . S
C99 C97 1.413 . S
C99 C98 1.367 . S
C99 H101 0.930 . S
H100 C93 0.930 . S
H101 C99 0.930 . S
H102 C90 0.930 . S
H103 C91 0.930 . S
H104 C97 0.929 . S
H105 C119 0.930 . S
H106 C98 0.930 . S
H107 C125 0.930 . S
H108 C116 0.929 . S
H109 C123 0.930 . S
H110 C87 0.931 . S
H111 C117 0.930 . S
H112 C150 0.930 . S
H113 C94 0.930 . S
H114 C149 0.931 . S
N115 Eu84 2.657 . S
N115 C116 1.334 . S
N115 C120 1.362 . S
C116 H108 0.929 . S
C116 N115 1.334 . S
C116 C119 1.413 . S
C117 H111 0.930 . S
C117 C118 1.392 . S
C117 C119 1.367 . S
C118 C117 1.392 . S
C118 C120 1.420 . S
C118 C150 1.423 . S
C119 H105 0.930 . S
C119 C116 1.413 . S
C119 C117 1.367 . S
C120 N115 1.362 . S
C120 C118 1.420 . S
C120 C124 1.429 . S
H121 C126 0.930 . S
N122 Eu84 2.609 . S
N122 C124 1.377 . S
N122 C125 1.321 . S
C123 H109 0.930 . S
C123 C125 1.400 . S
C123 C126 1.386 . S
C124 C120 1.429 . S
C124 N122 1.377 . S
C124 C127 1.411 . S
C125 H107 0.930 . S
C125 N122 1.321 . S
C125 C123 1.400 . S
C126 H121 0.930 . S
C126 C123 1.386 . S
C126 C127 1.395 . S
C127 C124 1.411 . S
C127 C126 1.395 . S
C127 C149 1.420 . S
O128 Eu84 2.558 . S
O128 C148 1.257 . S
O129 Eu84 2.612 1_655 S
O129 Eu95 2.380 . S
O129 C140 1.276 . S
O130 Eu95 2.432 . S
O130 C147 1.264 . S
O131 Eu84 2.339 1_655 S
O131 C147 1.254 . S
O132 Eu84 2.563 1_655 S
O132 C140 1.235 . S
O133 Eu84 2.419 . S
O133 C148 1.249 . S
O134 Eu95 2.558 . S
O134 C159 1.257 . S
O135 Eu84 2.380 . S
O135 Eu95 2.612 1_455 S
O135 C151 1.276 . S
O136 Eu84 2.432 . S
O136 C158 1.264 . S
O137 Eu95 2.339 1_455 S
O137 C158 1.254 . S
O138 Eu95 2.563 1_455 S
O138 C151 1.235 . S
O139 Eu95 2.419 . S
O139 C159 1.249 . S
C140 O129 1.276 . S
C140 O132 1.235 . S
C141 C143 1.393 1_455 S
C141 C145 1.395 . S
C141 C148 1.492 . S
C142 C143 1.392 . S
C142 C144 1.386 1_655 S
C143 C141 1.393 1_655 S
C143 C142 1.392 . S
C143 H160 0.930 . S
C144 C142 1.386 1_455 S
C144 C146 1.395 . S
C144 H161 0.930 . S
C145 C141 1.395 . S
C145 C146 1.379 . S
C145 H162 0.930 . S
C146 C144 1.395 . S
C146 C145 1.379 . S
C146 H163 0.930 . S
C147 O130 1.264 . S
C147 O131 1.254 . S
C148 Eu84 2.848 . S
C148 O128 1.257 . S
C148 O133 1.249 . S
C148 C141 1.492 . S
C149 H114 0.931 . S
C149 C127 1.420 . S
C149 C150 1.351 . S
C150 H112 0.930 . S
C150 C118 1.423 . S
C150 C149 1.351 . S
C151 O135 1.276 . S
C151 O138 1.235 . S
C152 C153 1.393 1_655 S
C152 C156 1.395 . S
C152 C159 1.492 . S
C153 C152 1.393 1_455 S
C153 C154 1.392 . S
C153 H164 0.930 . S
C154 C153 1.392 . S
C154 C155 1.386 1_455 S
C155 C154 1.386 1_655 S
C155 C157 1.395 . S
C155 H165 0.930 . S
C156 C152 1.395 . S
C156 C157 1.379 . S
C156 H166 0.930 . S
C157 C155 1.395 . S
C157 C156 1.379 . S
C157 H167 0.930 . S
C158 O136 1.264 . S
C158 O137 1.254 . S
C159 Eu95 2.848 . S
C159 O134 1.257 . S
C159 O139 1.249 . S
C159 C152 1.492 . S
H160 C143 0.930 . S
H161 C144 0.930 . S
H162 C145 0.930 . S
H163 C146 0.930 . S
H164 C153 0.930 . S
H165 C155 0.930 . S
H166 C156 0.930 . S
H167 C157 0.930 . S
Eu168 N199 2.657 . S
Eu168 N206 2.609 . S
Eu168 O212 2.558 . S
Eu168 O213 2.612 . S
Eu168 O215 2.339 . S
Eu168 O216 2.563 . S
Eu168 O217 2.419 . S
Eu168 O219 2.380 . S
Eu168 O220 2.432 . S
Eu168 C232 2.848 . S
C169 C172 1.429 . S
C169 C173 1.411 . S
C169 N176 1.377 . S
C170 C172 1.420 . S
C170 C174 1.423 . S
C170 C182 1.392 . S
C171 C173 1.420 . S
C171 C174 1.351 . S
C171 H194 0.931 . S
C172 C169 1.429 . S
C172 C170 1.420 . S
C172 N180 1.362 . S
C173 C169 1.411 . S
C173 C171 1.420 . S
C173 C178 1.395 . S
C174 C170 1.423 . S
C174 C171 1.351 . S
C174 H186 0.930 . S
C175 C177 1.400 . S
C175 C178 1.386 . S
C175 H187 0.930 . S
N176 C169 1.377 . S
N176 C177 1.321 . S
N176 Eu179 2.609 . S
C177 C175 1.400 . S
C177 N176 1.321 . S
C177 H184 0.930 . S
C178 C173 1.395 . S
C178 C175 1.386 . S
C178 H197 0.930 . S
Eu179 N176 2.609 . S
Eu179 N180 2.657 . S
Eu179 O213 2.380 . S
Eu179 O214 2.432 . S
Eu179 O218 2.558 . S
Eu179 O219 2.612 . S
Eu179 O221 2.339 . S
Eu179 O222 2.563 . S
Eu179 O223 2.419 . S
Eu179 C243 2.848 . S
N180 C172 1.362 . S
N180 Eu179 2.657 . S
N180 C181 1.334 . S
C181 N180 1.334 . S
C181 C183 1.413 . S
C181 H188 0.929 . S
C182 C170 1.392 . S
C182 C183 1.367 . S
C182 H190 0.930 . S
C183 C181 1.413 . S
C183 C182 1.367 . S
C183 H185 0.930 . S
H184 C177 0.930 . S
H185 C183 0.930 . S
H186 C174 0.930 . S
H187 C175 0.930 . S
H188 C181 0.929 . S
H189 C203 0.930 . S
H190 C182 0.930 . S
H191 C209 0.930 . S
H192 C200 0.929 . S
H193 C207 0.930 . S
H194 C171 0.931 . S
H195 C201 0.930 . S
H196 C234 0.930 . S
H197 C178 0.930 . S
H198 C233 0.931 . S
N199 Eu168 2.657 . S
N199 C200 1.334 . S
N199 C204 1.362 . S
C200 H192 0.929 . S
C200 N199 1.334 . S
C200 C203 1.413 . S
C201 H195 0.930 . S
C201 C202 1.392 . S
C201 C203 1.367 . S
C202 C201 1.392 . S
C202 C204 1.420 . S
C202 C234 1.423 . S
C203 H189 0.930 . S
C203 C200 1.413 . S
C203 C201 1.367 . S
C204 N199 1.362 . S
C204 C202 1.420 . S
C204 C208 1.429 . S
H205 C210 0.930 . S
N206 Eu168 2.609 . S
N206 C208 1.377 . S
N206 C209 1.321 . S
C207 H193 0.930 . S
C207 C209 1.400 . S
C207 C210 1.386 . S
C208 C204 1.429 . S
C208 N206 1.377 . S
C208 C211 1.411 . S
C209 H191 0.930 . S
C209 N206 1.321 . S
C209 C207 1.400 . S
C210 H205 0.930 . S
C210 C207 1.386 . S
C210 C211 1.395 . S
C211 C208 1.411 . S
C211 C210 1.395 . S
C211 C233 1.420 . S
O212 Eu168 2.558 . S
O212 C232 1.257 . S
O213 Eu168 2.612 . S
O213 Eu179 2.380 . S
O213 C224 1.276 . S
O214 Eu179 2.432 . S
O214 C231 1.264 . S
O215 Eu168 2.339 . S
O215 C231 1.254 . S
O216 Eu168 2.563 . S
O216 C224 1.235 . S
O217 Eu168 2.419 . S
O217 C232 1.249 . S
O218 Eu179 2.558 . S
O218 C243 1.257 . S
O219 Eu168 2.380 . S
O219 Eu179 2.612 . S
O219 C235 1.276 . S
O220 Eu168 2.432 . S
O220 C242 1.264 . S
O221 Eu179 2.339 . S
O221 C242 1.254 . S
O222 Eu179 2.563 . S
O222 C235 1.235 . S
O223 Eu179 2.419 . S
O223 C243 1.249 . S
C224 O213 1.276 . S
C224 O216 1.235 . S
C225 C227 1.393 . S
C225 C229 1.395 . S
C225 C232 1.492 . S
C226 C227 1.392 . S
C226 C228 1.386 . S
C227 C225 1.393 . S
C227 C226 1.392 . S
C227 H244 0.930 . S
C228 C226 1.386 . S
C228 C230 1.395 . S
C228 H245 0.930 . S
C229 C225 1.395 . S
C229 C230 1.379 . S
C229 H246 0.930 . S
C230 C228 1.395 . S
C230 C229 1.379 . S
C230 H247 0.930 . S
C231 O214 1.264 . S
C231 O215 1.254 . S
C232 Eu168 2.848 . S
C232 O212 1.257 . S
C232 O217 1.249 . S
C232 C225 1.492 . S
C233 H198 0.931 . S
C233 C211 1.420 . S
C233 C234 1.351 . S
C234 H196 0.930 . S
C234 C202 1.423 . S
C234 C233 1.351 . S
C235 O219 1.276 . S
C235 O222 1.235 . S
C236 C237 1.393 . S
C236 C240 1.395 . S
C236 C243 1.492 . S
C237 C236 1.393 . S
C237 C238 1.392 . S
C237 H248 0.930 . S
C238 C237 1.392 . S
C238 C239 1.386 . S
C239 C238 1.386 . S
C239 C241 1.395 . S
C239 H249 0.930 . S
C240 C236 1.395 . S
C240 C241 1.379 . S
C240 H250 0.930 . S
C241 C239 1.395 . S
C241 C240 1.379 . S
C241 H251 0.930 . S
C242 O220 1.264 . S
C242 O221 1.254 . S
C243 Eu179 2.848 . S
C243 O218 1.257 . S
C243 O223 1.249 . S
C243 C236 1.492 . S
H244 C227 0.930 . S
H245 C228 0.930 . S
H246 C229 0.930 . S
H247 C230 0.930 . S
H248 C237 0.930 . S
H249 C239 0.930 . S
H250 C240 0.930 . S
H251 C241 0.930 . S
Eu252 N283 2.657 . S
Eu252 N290 2.609 . S
Eu252 O296 2.558 . S
Eu252 O297 2.612 1_565 S
Eu252 O299 2.339 1_565 S
Eu252 O300 2.563 1_565 S
Eu252 O301 2.419 . S
Eu252 O303 2.380 . S
Eu252 O304 2.432 . S
Eu252 C316 2.848 . S
C253 C256 1.429 . S
C253 C257 1.411 . S
C253 N260 1.377 . S
C254 C256 1.420 . S
C254 C258 1.423 . S
C254 C266 1.392 . S
C255 C257 1.420 . S
C255 C258 1.351 . S
C255 H278 0.931 . S
C256 C253 1.429 . S
C256 C254 1.420 . S
C256 N264 1.362 . S
C257 C253 1.411 . S
C257 C255 1.420 . S
C257 C262 1.395 . S
C258 C254 1.423 . S
C258 C255 1.351 . S
C258 H270 0.930 . S
C259 C261 1.400 . S
C259 C262 1.386 . S
C259 H271 0.930 . S
N260 C253 1.377 . S
N260 C261 1.321 . S
N260 Eu263 2.609 . S
C261 C259 1.400 . S
C261 N260 1.321 . S
C261 H268 0.930 . S
C262 C257 1.395 . S
C262 C259 1.386 . S
C262 H281 0.930 . S
Eu263 N260 2.609 . S
Eu263 N264 2.657 . S
Eu263 O297 2.380 . S
Eu263 O298 2.432 . S
Eu263 O302 2.558 . S
Eu263 O303 2.612 1_545 S
Eu263 O305 2.339 1_545 S
Eu263 O306 2.563 1_545 S
Eu263 O307 2.419 . S
Eu263 C327 2.848 . S
N264 C256 1.362 . S
N264 Eu263 2.657 . S
N264 C265 1.334 . S
C265 N264 1.334 . S
C265 C267 1.413 . S
C265 H272 0.929 . S
C266 C254 1.392 . S
C266 C267 1.367 . S
C266 H274 0.930 . S
C267 C265 1.413 . S
C267 C266 1.367 . S
C267 H269 0.930 . S
H268 C261 0.930 . S
H269 C267 0.930 . S
H270 C258 0.930 . S
H271 C259 0.930 . S
H272 C265 0.929 . S
H273 C287 0.930 . S
H274 C266 0.930 . S
H275 C293 0.930 . S
H276 C284 0.929 . S
H277 C291 0.930 . S
H278 C255 0.931 . S
H279 C285 0.930 . S
H280 C318 0.930 . S
H281 C262 0.930 . S
H282 C317 0.931 . S
N283 Eu252 2.657 . S
N283 C284 1.334 . S
N283 C288 1.362 . S
C284 H276 0.929 . S
C284 N283 1.334 . S
C284 C287 1.413 . S
C285 H279 0.930 . S
C285 C286 1.392 . S
C285 C287 1.367 . S
C286 C285 1.392 . S
C286 C288 1.420 . S
C286 C318 1.423 . S
C287 H273 0.930 . S
C287 C284 1.413 . S
C287 C285 1.367 . S
C288 N283 1.362 . S
C288 C286 1.420 . S
C288 C292 1.429 . S
H289 C294 0.930 . S
N290 Eu252 2.609 . S
N290 C292 1.377 . S
N290 C293 1.321 . S
C291 H277 0.930 . S
C291 C293 1.400 . S
C291 C294 1.386 . S
C292 C288 1.429 . S
C292 N290 1.377 . S
C292 C295 1.411 . S
C293 H275 0.930 . S
C293 N290 1.321 . S
C293 C291 1.400 . S
C294 H289 0.930 . S
C294 C291 1.386 . S
C294 C295 1.395 . S
C295 C292 1.411 . S
C295 C294 1.395 . S
C295 C317 1.420 . S
O296 Eu252 2.558 . S
O296 C316 1.257 . S
O297 Eu252 2.612 1_545 S
O297 Eu263 2.380 . S
O297 C308 1.276 . S
O298 Eu263 2.432 . S
O298 C315 1.264 . S
O299 Eu252 2.339 1_545 S
O299 C315 1.254 . S
O300 Eu252 2.563 1_545 S
O300 C308 1.235 . S
O301 Eu252 2.419 . S
O301 C316 1.249 . S
O302 Eu263 2.558 . S
O302 C327 1.257 . S
O303 Eu252 2.380 . S
O303 Eu263 2.612 1_565 S
O303 C319 1.276 . S
O304 Eu252 2.432 . S
O304 C326 1.264 . S
O305 Eu263 2.339 1_565 S
O305 C326 1.254 . S
O306 Eu263 2.563 1_565 S
O306 C319 1.235 . S
O307 Eu263 2.419 . S
O307 C327 1.249 . S
C308 O297 1.276 . S
C308 O300 1.235 . S
C309 C311 1.393 1_565 S
C309 C313 1.395 . S
C309 C316 1.492 . S
C310 C311 1.392 . S
C310 C312 1.386 1_545 S
C311 C309 1.393 1_545 S
C311 C310 1.392 . S
C311 H328 0.930 . S
C312 C310 1.386 1_565 S
C312 C314 1.395 . S
C312 H329 0.930 . S
C313 C309 1.395 . S
C313 C314 1.379 . S
C313 H330 0.930 . S
C314 C312 1.395 . S
C314 C313 1.379 . S
C314 H331 0.930 . S
C315 O298 1.264 . S
C315 O299 1.254 . S
C316 Eu252 2.848 . S
C316 O296 1.257 . S
C316 O301 1.249 . S
C316 C309 1.492 . S
C317 H282 0.931 . S
C317 C295 1.420 . S
C317 C318 1.351 . S
C318 H280 0.930 . S
C318 C286 1.423 . S
C318 C317 1.351 . S
C319 O303 1.276 . S
C319 O306 1.235 . S
C320 C321 1.393 1_545 S
C320 C324 1.395 . S
C320 C327 1.492 . S
C321 C320 1.393 1_565 S
C321 C322 1.392 . S
C321 H332 0.930 . S
C322 C321 1.392 . S
C322 C323 1.386 1_565 S
C323 C322 1.386 1_545 S
C323 C325 1.395 . S
C323 H333 0.930 . S
C324 C320 1.395 . S
C324 C325 1.379 . S
C324 H334 0.930 . S
C325 C323 1.395 . S
C325 C324 1.379 . S
C325 H335 0.930 . S
C326 O304 1.264 . S
C326 O305 1.254 . S
C327 Eu263 2.848 . S
C327 O302 1.257 . S
C327 O307 1.249 . S
C327 C320 1.492 . S
H328 C311 0.930 . S
H329 C312 0.930 . S
H330 C313 0.930 . S
H331 C314 0.930 . S
H332 C321 0.930 . S
H333 C323 0.930 . S
H334 C324 0.930 . S
H335 C325 0.930 . S
Eu336 N367 2.657 . S
Eu336 N374 2.609 . S
Eu336 O380 2.558 . S
Eu336 O381 2.612 . S
Eu336 O383 2.339 . S
Eu336 O384 2.563 . S
Eu336 O385 2.419 . S
Eu336 O387 2.380 . S
Eu336 O388 2.432 . S
Eu336 C400 2.848 . S
C337 C340 1.429 . S
C337 C341 1.411 . S
C337 N344 1.377 . S
C338 C340 1.420 . S
C338 C342 1.423 . S
C338 C350 1.392 . S
C339 C341 1.420 . S
C339 C342 1.351 . S
C339 H362 0.931 . S
C340 C337 1.429 . S
C340 C338 1.420 . S
C340 N348 1.362 . S
C341 C337 1.411 . S
C341 C339 1.420 . S
C341 C346 1.395 . S
C342 C338 1.423 . S
C342 C339 1.351 . S
C342 H354 0.930 . S
C343 C345 1.400 . S
C343 C346 1.386 . S
C343 H355 0.930 . S
N344 C337 1.377 . S
N344 C345 1.321 . S
N344 Eu347 2.609 . S
C345 C343 1.400 . S
C345 N344 1.321 . S
C345 H352 0.930 . S
C346 C341 1.395 . S
C346 C343 1.386 . S
C346 H365 0.930 . S
Eu347 N344 2.609 . S
Eu347 N348 2.657 . S
Eu347 O381 2.380 . S
Eu347 O382 2.432 . S
Eu347 O386 2.558 . S
Eu347 O387 2.612 . S
Eu347 O389 2.339 . S
Eu347 O390 2.563 . S
Eu347 O391 2.419 . S
Eu347 C411 2.848 . S
N348 C340 1.362 . S
N348 Eu347 2.657 . S
N348 C349 1.334 . S
C349 N348 1.334 . S
C349 C351 1.413 . S
C349 H356 0.929 . S
C350 C338 1.392 . S
C350 C351 1.367 . S
C350 H358 0.930 . S
C351 C349 1.413 . S
C351 C350 1.367 . S
C351 H353 0.930 . S
H352 C345 0.930 . S
H353 C351 0.930 . S
H354 C342 0.930 . S
H355 C343 0.930 . S
H356 C349 0.929 . S
H357 C371 0.930 . S
H358 C350 0.930 . S
H359 C377 0.930 . S
H360 C368 0.929 . S
H361 C375 0.930 . S
H362 C339 0.931 . S
H363 C369 0.930 . S
H364 C402 0.930 . S
H365 C346 0.930 . S
H366 C401 0.931 . S
N367 Eu336 2.657 . S
N367 C368 1.334 . S
N367 C372 1.362 . S
C368 H360 0.929 . S
C368 N367 1.334 . S
C368 C371 1.413 . S
C369 H363 0.930 . S
C369 C370 1.392 . S
C369 C371 1.367 . S
C370 C369 1.392 . S
C370 C372 1.420 . S
C370 C402 1.423 . S
C371 H357 0.930 . S
C371 C368 1.413 . S
C371 C369 1.367 . S
C372 N367 1.362 . S
C372 C370 1.420 . S
C372 C376 1.429 . S
H373 C378 0.930 . S
N374 Eu336 2.609 . S
N374 C376 1.377 . S
N374 C377 1.321 . S
C375 H361 0.930 . S
C375 C377 1.400 . S
C375 C378 1.386 . S
C376 C372 1.429 . S
C376 N374 1.377 . S
C376 C379 1.411 . S
C377 H359 0.930 . S
C377 N374 1.321 . S
C377 C375 1.400 . S
C378 H373 0.930 . S
C378 C375 1.386 . S
C378 C379 1.395 . S
C379 C376 1.411 . S
C379 C378 1.395 . S
C379 C401 1.420 . S
O380 Eu336 2.558 . S
O380 C400 1.257 . S
O381 Eu336 2.612 . S
O381 Eu347 2.380 . S
O381 C392 1.276 . S
O382 Eu347 2.432 . S
O382 C399 1.264 . S
O383 Eu336 2.339 . S
O383 C399 1.254 . S
O384 Eu336 2.563 . S
O384 C392 1.235 . S
O385 Eu336 2.419 . S
O385 C400 1.249 . S
O386 Eu347 2.558 . S
O386 C411 1.257 . S
O387 Eu336 2.380 . S
O387 Eu347 2.612 . S
O387 C403 1.276 . S
O388 Eu336 2.432 . S
O388 C410 1.264 . S
O389 Eu347 2.339 . S
O389 C410 1.254 . S
O390 Eu347 2.563 . S
O390 C403 1.235 . S
O391 Eu347 2.419 . S
O391 C411 1.249 . S
C392 O381 1.276 . S
C392 O384 1.235 . S
C393 C395 1.393 . S
C393 C397 1.395 . S
C393 C400 1.492 . S
C394 C395 1.392 . S
C394 C396 1.386 . S
C395 C393 1.393 . S
C395 C394 1.392 . S
C395 H412 0.930 . S
C396 C394 1.386 . S
C396 C398 1.395 . S
C396 H413 0.930 . S
C397 C393 1.395 . S
C397 C398 1.379 . S
C397 H414 0.930 . S
C398 C396 1.395 . S
C398 C397 1.379 . S
C398 H415 0.930 . S
C399 O382 1.264 . S
C399 O383 1.254 . S
C400 Eu336 2.848 . S
C400 O380 1.257 . S
C400 O385 1.249 . S
C400 C393 1.492 . S
C401 H366 0.931 . S
C401 C379 1.420 . S
C401 C402 1.351 . S
C402 H364 0.930 . S
C402 C370 1.423 . S
C402 C401 1.351 . S
C403 O387 1.276 . S
C403 O390 1.235 . S
C404 C405 1.393 . S
C404 C408 1.395 . S
C404 C411 1.492 . S
C405 C404 1.393 . S
C405 C406 1.392 . S
C405 H416 0.930 . S
C406 C405 1.392 . S
C406 C407 1.386 . S
C407 C406 1.386 . S
C407 C409 1.395 . S
C407 H417 0.930 . S
C408 C404 1.395 . S
C408 C409 1.379 . S
C408 H418 0.930 . S
C409 C407 1.395 . S
C409 C408 1.379 . S
C409 H419 0.930 . S
C410 O388 1.264 . S
C410 O389 1.254 . S
C411 Eu347 2.848 . S
C411 O386 1.257 . S
C411 O391 1.249 . S
C411 C404 1.492 . S
H412 C395 0.930 . S
H413 C396 0.930 . S
H414 C397 0.930 . S
H415 C398 0.930 . S
H416 C405 0.930 . S
H417 C407 0.930 . S
H418 C408 0.930 . S
H419 C409 0.930 . S
Eu420 N451 2.657 . S
Eu420 N458 2.609 . S
Eu420 O464 2.558 . S
Eu420 O465 2.612 . S
Eu420 O467 2.339 . S
Eu420 O468 2.563 . S
Eu420 O469 2.419 . S
Eu420 O471 2.380 . S
Eu420 O472 2.432 . S
Eu420 C484 2.848 . S
C421 C424 1.429 . S
C421 C425 1.411 . S
C421 N428 1.377 . S
C422 C424 1.420 . S
C422 C426 1.423 . S
C422 C434 1.392 . S
C423 C425 1.420 . S
C423 C426 1.351 . S
C423 H446 0.931 . S
C424 C421 1.429 . S
C424 C422 1.420 . S
C424 N432 1.362 . S
C425 C421 1.411 . S
C425 C423 1.420 . S
C425 C430 1.395 . S
C426 C422 1.423 . S
C426 C423 1.351 . S
C426 H438 0.930 . S
C427 C429 1.400 . S
C427 C430 1.386 . S
C427 H439 0.930 . S
N428 C421 1.377 . S
N428 C429 1.321 . S
N428 Eu431 2.609 . S
C429 C427 1.400 . S
C429 N428 1.321 . S
C429 H436 0.930 . S
C430 C425 1.395 . S
C430 C427 1.386 . S
C430 H449 0.930 . S
Eu431 N428 2.609 . S
Eu431 N432 2.657 . S
Eu431 O465 2.380 . S
Eu431 O466 2.432 . S
Eu431 O470 2.558 . S
Eu431 O471 2.612 . S
Eu431 O473 2.339 . S
Eu431 O474 2.563 . S
Eu431 O475 2.419 . S
Eu431 C495 2.848 . S
N432 C424 1.362 . S
N432 Eu431 2.657 . S
N432 C433 1.334 . S
C433 N432 1.334 . S
C433 C435 1.413 . S
C433 H440 0.929 . S
C434 C422 1.392 . S
C434 C435 1.367 . S
C434 H442 0.930 . S
C435 C433 1.413 . S
C435 C434 1.367 . S
C435 H437 0.930 . S
H436 C429 0.930 . S
H437 C435 0.930 . S
H438 C426 0.930 . S
H439 C427 0.930 . S
H440 C433 0.929 . S
H441 C455 0.930 . S
H442 C434 0.930 . S
H443 C461 0.930 . S
H444 C452 0.929 . S
H445 C459 0.930 . S
H446 C423 0.931 . S
H447 C453 0.930 . S
H448 C486 0.930 . S
H449 C430 0.930 . S
H450 C485 0.931 . S
N451 Eu420 2.657 . S
N451 C452 1.334 . S
N451 C456 1.362 . S
C452 H444 0.929 . S
C452 N451 1.334 . S
C452 C455 1.413 . S
C453 H447 0.930 . S
C453 C454 1.392 . S
C453 C455 1.367 . S
C454 C453 1.392 . S
C454 C456 1.420 . S
C454 C486 1.423 . S
C455 H441 0.930 . S
C455 C452 1.413 . S
C455 C453 1.367 . S
C456 N451 1.362 . S
C456 C454 1.420 . S
C456 C460 1.429 . S
H457 C462 0.930 . S
N458 Eu420 2.609 . S
N458 C460 1.377 . S
N458 C461 1.321 . S
C459 H445 0.930 . S
C459 C461 1.400 . S
C459 C462 1.386 . S
C460 C456 1.429 . S
C460 N458 1.377 . S
C460 C463 1.411 . S
C461 H443 0.930 . S
C461 N458 1.321 . S
C461 C459 1.400 . S
C462 H457 0.930 . S
C462 C459 1.386 . S
C462 C463 1.395 . S
C463 C460 1.411 . S
C463 C462 1.395 . S
C463 C485 1.420 . S
O464 Eu420 2.558 . S
O464 C484 1.257 . S
O465 Eu420 2.612 . S
O465 Eu431 2.380 . S
O465 C476 1.276 . S
O466 Eu431 2.432 . S
O466 C483 1.264 . S
O467 Eu420 2.339 . S
O467 C483 1.254 . S
O468 Eu420 2.563 . S
O468 C476 1.235 . S
O469 Eu420 2.419 . S
O469 C484 1.249 . S
O470 Eu431 2.558 . S
O470 C495 1.257 . S
O471 Eu420 2.380 . S
O471 Eu431 2.612 . S
O471 C487 1.276 . S
O472 Eu420 2.432 . S
O472 C494 1.264 . S
O473 Eu431 2.339 . S
O473 C494 1.254 . S
O474 Eu431 2.563 . S
O474 C487 1.235 . S
O475 Eu431 2.419 . S
O475 C495 1.249 . S
C476 O465 1.276 . S
C476 O468 1.235 . S
C477 C479 1.393 . S
C477 C481 1.395 . S
C477 C484 1.492 . S
C478 C479 1.392 . S
C478 C480 1.386 . S
C479 C477 1.393 . S
C479 C478 1.392 . S
C479 H496 0.930 . S
C480 C478 1.386 . S
C480 C482 1.395 . S
C480 H497 0.930 . S
C481 C477 1.395 . S
C481 C482 1.379 . S
C481 H498 0.930 . S
C482 C480 1.395 . S
C482 C481 1.379 . S
C482 H499 0.930 . S
C483 O466 1.264 . S
C483 O467 1.254 . S
C484 Eu420 2.848 . S
C484 O464 1.257 . S
C484 O469 1.249 . S
C484 C477 1.492 . S
C485 H450 0.931 . S
C485 C463 1.420 . S
C485 C486 1.351 . S
C486 H448 0.930 . S
C486 C454 1.423 . S
C486 C485 1.351 . S
C487 O471 1.276 . S
C487 O474 1.235 . S
C488 C489 1.393 . S
C488 C492 1.395 . S
C488 C495 1.492 . S
C489 C488 1.393 . S
C489 C490 1.392 . S
C489 H500 0.930 . S
C490 C489 1.392 . S
C490 C491 1.386 . S
C491 C490 1.386 . S
C491 C493 1.395 . S
C491 H501 0.930 . S
C492 C488 1.395 . S
C492 C493 1.379 . S
C492 H502 0.930 . S
C493 C491 1.395 . S
C493 C492 1.379 . S
C493 H503 0.930 . S
C494 O472 1.264 . S
C494 O473 1.254 . S
C495 Eu431 2.848 . S
C495 O470 1.257 . S
C495 O475 1.249 . S
C495 C488 1.492 . S
H496 C479 0.930 . S
H497 C480 0.930 . S
H498 C481 0.930 . S
H499 C482 0.930 . S
H500 C489 0.930 . S
H501 C491 0.930 . S
H502 C492 0.930 . S
H503 C493 0.930 . S
Eu504 N535 2.657 . S
Eu504 N542 2.609 . S
Eu504 O548 2.558 . S
Eu504 O549 2.612 . S
Eu504 O551 2.339 . S
Eu504 O552 2.563 . S
Eu504 O553 2.419 . S
Eu504 O555 2.380 . S
Eu504 O556 2.432 . S
Eu504 C568 2.848 . S
C505 C508 1.429 . S
C505 C509 1.411 . S
C505 N512 1.377 . S
C506 C508 1.420 . S
C506 C510 1.423 . S
C506 C518 1.392 . S
C507 C509 1.420 . S
C507 C510 1.351 . S
C507 H530 0.931 . S
C508 C505 1.429 . S
C508 C506 1.420 . S
C508 N516 1.362 . S
C509 C505 1.411 . S
C509 C507 1.420 . S
C509 C514 1.395 . S
C510 C506 1.423 . S
C510 C507 1.351 . S
C510 H522 0.930 . S
C511 C513 1.400 . S
C511 C514 1.386 . S
C511 H523 0.930 . S
N512 C505 1.377 . S
N512 C513 1.321 . S
N512 Eu515 2.609 . S
C513 C511 1.400 . S
C513 N512 1.321 . S
C513 H520 0.930 . S
C514 C509 1.395 . S
C514 C511 1.386 . S
C514 H533 0.930 . S
Eu515 N512 2.609 . S
Eu515 N516 2.657 . S
Eu515 O549 2.380 . S
Eu515 O550 2.432 . S
Eu515 O554 2.558 . S
Eu515 O555 2.612 . S
Eu515 O557 2.339 . S
Eu515 O558 2.563 . S
Eu515 O559 2.419 . S
Eu515 C579 2.848 . S
N516 C508 1.362 . S
N516 Eu515 2.657 . S
N516 C517 1.334 . S
C517 N516 1.334 . S
C517 C519 1.413 . S
C517 H524 0.929 . S
C518 C506 1.392 . S
C518 C519 1.367 . S
C518 H526 0.930 . S
C519 C517 1.413 . S
C519 C518 1.367 . S
C519 H521 0.930 . S
H520 C513 0.930 . S
H521 C519 0.930 . S
H522 C510 0.930 . S
H523 C511 0.930 . S
H524 C517 0.929 . S
H525 C539 0.930 . S
H526 C518 0.930 . S
H527 C545 0.930 . S
H528 C536 0.929 . S
H529 C543 0.930 . S
H530 C507 0.931 . S
H531 C537 0.930 . S
H532 C570 0.930 . S
H533 C514 0.930 . S
H534 C569 0.931 . S
N535 Eu504 2.657 . S
N535 C536 1.334 . S
N535 C540 1.362 . S
C536 H528 0.929 . S
C536 N535 1.334 . S
C536 C539 1.413 . S
C537 H531 0.930 . S
C537 C538 1.392 . S
C537 C539 1.367 . S
C538 C537 1.392 . S
C538 C540 1.420 . S
C538 C570 1.423 . S
C539 H525 0.930 . S
C539 C536 1.413 . S
C539 C537 1.367 . S
C540 N535 1.362 . S
C540 C538 1.420 . S
C540 C544 1.429 . S
H541 C546 0.930 . S
N542 Eu504 2.609 . S
N542 C544 1.377 . S
N542 C545 1.321 . S
C543 H529 0.930 . S
C543 C545 1.400 . S
C543 C546 1.386 . S
C544 C540 1.429 . S
C544 N542 1.377 . S
C544 C547 1.411 . S
C545 H527 0.930 . S
C545 N542 1.321 . S
C545 C543 1.400 . S
C546 H541 0.930 . S
C546 C543 1.386 . S
C546 C547 1.395 . S
C547 C544 1.411 . S
C547 C546 1.395 . S
C547 C569 1.420 . S
O548 Eu504 2.558 . S
O548 C568 1.257 . S
O549 Eu504 2.612 . S
O549 Eu515 2.380 . S
O549 C560 1.276 . S
O550 Eu515 2.432 . S
O550 C567 1.264 . S
O551 Eu504 2.339 . S
O551 C567 1.254 . S
O552 Eu504 2.563 . S
O552 C560 1.235 . S
O553 Eu504 2.419 . S
O553 C568 1.249 . S
O554 Eu515 2.558 . S
O554 C579 1.257 . S
O555 Eu504 2.380 . S
O555 Eu515 2.612 . S
O555 C571 1.276 . S
O556 Eu504 2.432 . S
O556 C578 1.264 . S
O557 Eu515 2.339 . S
O557 C578 1.254 . S
O558 Eu515 2.563 . S
O558 C571 1.235 . S
O559 Eu515 2.419 . S
O559 C579 1.249 . S
C560 O549 1.276 . S
C560 O552 1.235 . S
C561 C563 1.393 . S
C561 C565 1.395 . S
C561 C568 1.492 . S
C562 C563 1.392 . S
C562 C564 1.386 . S
C563 C561 1.393 . S
C563 C562 1.392 . S
C563 H580 0.930 . S
C564 C562 1.386 . S
C564 C566 1.395 . S
C564 H581 0.930 . S
C565 C561 1.395 . S
C565 C566 1.379 . S
C565 H582 0.930 . S
C566 C564 1.395 . S
C566 C565 1.379 . S
C566 H583 0.930 . S
C567 O550 1.264 . S
C567 O551 1.254 . S
C568 Eu504 2.848 . S
C568 O548 1.257 . S
C568 O553 1.249 . S
C568 C561 1.492 . S
C569 H534 0.931 . S
C569 C547 1.420 . S
C569 C570 1.351 . S
C570 H532 0.930 . S
C570 C538 1.423 . S
C570 C569 1.351 . S
C571 O555 1.276 . S
C571 O558 1.235 . S
C572 C573 1.393 . S
C572 C576 1.395 . S
C572 C579 1.492 . S
C573 C572 1.393 . S
C573 C574 1.392 . S
C573 H584 0.930 . S
C574 C573 1.392 . S
C574 C575 1.386 . S
C575 C574 1.386 . S
C575 C577 1.395 . S
C575 H585 0.930 . S
C576 C572 1.395 . S
C576 C577 1.379 . S
C576 H586 0.930 . S
C577 C575 1.395 . S
C577 C576 1.379 . S
C577 H587 0.930 . S
C578 O556 1.264 . S
C578 O557 1.254 . S
C579 Eu515 2.848 . S
C579 O554 1.257 . S
C579 O559 1.249 . S
C579 C572 1.492 . S
H580 C563 0.930 . S
H581 C564 0.930 . S
H582 C565 0.930 . S
H583 C566 0.930 . S
H584 C573 0.930 . S
H585 C575 0.930 . S
H586 C576 0.930 . S
H587 C577 0.930 . S
Eu588 N619 2.657 . S
Eu588 N626 2.609 . S
Eu588 O632 2.558 . S
Eu588 O633 2.612 1_655 S
Eu588 O635 2.339 . S
Eu588 O636 2.563 . S
Eu588 O637 2.419 . S
Eu588 O639 2.380 . S
Eu588 O640 2.432 1_655 S
Eu588 C652 2.848 . S
C589 C592 1.429 . S
C589 C593 1.411 . S
C589 N596 1.377 . S
C590 C592 1.420 . S
C590 C594 1.423 . S
C590 C602 1.392 . S
C591 C593 1.420 . S
C591 C594 1.351 . S
C591 H614 0.931 . S
C592 C589 1.429 . S
C592 C590 1.420 . S
C592 N600 1.362 . S
C593 C589 1.411 . S
C593 C591 1.420 . S
C593 C598 1.395 . S
C594 C590 1.423 . S
C594 C591 1.351 . S
C594 H606 0.930 . S
C595 C597 1.400 . S
C595 C598 1.386 . S
C595 H607 0.920 1_455 S
N596 C589 1.377 . S
N596 C597 1.321 . S
N596 Eu599 2.609 . S
C597 C595 1.400 . S
C597 N596 1.321 . S
C597 H604 0.930 1_455 S
C598 C593 1.395 . S
C598 C595 1.386 . S
C598 H617 0.930 . S
Eu599 N596 2.609 . S
Eu599 N600 2.657 . S
Eu599 O633 2.380 . S
Eu599 O634 2.432 1_455 S
Eu599 O638 2.558 . S
Eu599 O639 2.612 1_455 S
Eu599 O641 2.339 . S
Eu599 O642 2.563 . S
Eu599 O643 2.419 . S
Eu599 C663 2.848 . S
N600 C592 1.362 . S
N600 Eu599 2.657 . S
N600 C601 1.334 . S
C601 N600 1.334 . S
C601 C603 1.413 . S
C601 H608 0.929 . S
C602 C590 1.392 . S
C602 C603 1.367 . S
C602 H610 0.930 . S
C603 C601 1.413 . S
C603 C602 1.367 . S
C603 H605 0.930 . S
H604 C597 0.930 1_655 S
H605 C603 0.930 . S
H606 C594 0.930 . S
H607 C595 0.920 1_655 S
H608 C601 0.929 . S
H609 C623 0.930 . S
H610 C602 0.930 . S
H611 C629 0.930 1_455 S
H612 C620 0.929 . S
H613 C627 0.901 1_455 S
H614 C591 0.931 . S
H615 C621 0.930 . S
H616 C654 0.930 . S
H617 C598 0.930 . S
H618 C653 0.931 . S
N619 Eu588 2.657 . S
N619 C620 1.334 . S
N619 C624 1.362 . S
C620 H612 0.929 . S
C620 N619 1.334 . S
C620 C623 1.413 . S
C621 H615 0.930 . S
C621 C622 1.392 . S
C621 C623 1.367 . S
C622 C621 1.392 . S
C622 C624 1.420 . S
C622 C654 1.423 . S
C623 H609 0.930 . S
C623 C620 1.413 . S
C623 C621 1.367 . S
C624 N619 1.362 . S
C624 C622 1.420 . S
C624 C628 1.429 . S
H625 C630 0.930 . S
N626 Eu588 2.609 . S
N626 C628 1.377 . S
N626 C629 1.321 . S
C627 H613 0.901 1_655 S
C627 C629 1.400 . S
C627 C630 1.386 . S
C628 C624 1.429 . S
C628 N626 1.377 . S
C628 C631 1.411 . S
C629 H611 0.930 1_655 S
C629 N626 1.321 . S
C629 C627 1.400 . S
C630 H625 0.930 . S
C630 C627 1.386 . S
C630 C631 1.395 . S
C631 C628 1.411 . S
C631 C630 1.395 . S
C631 C653 1.420 . S
O632 Eu588 2.558 . S
O632 C652 1.257 . S
O633 Eu588 2.612 1_455 S
O633 Eu599 2.380 . S
O633 C644 1.276 . S
O634 Eu599 2.432 1_655 S
O634 C651 1.264 . S
O635 Eu588 2.339 . S
O635 C651 1.254 . S
O636 Eu588 2.563 . S
O636 C644 1.235 1_655 S
O637 Eu588 2.419 . S
O637 C652 1.249 . S
O638 Eu599 2.558 . S
O638 C663 1.257 . S
O639 Eu588 2.380 . S
O639 Eu599 2.612 1_655 S
O639 C655 1.276 . S
O640 Eu588 2.432 1_455 S
O640 C662 1.264 . S
O641 Eu599 2.339 . S
O641 C662 1.254 . S
O642 Eu599 2.563 . S
O642 C655 1.235 1_455 S
O643 Eu599 2.419 . S
O643 C663 1.249 . S
C644 O633 1.276 . S
C644 O636 1.235 1_455 S
C645 C647 1.393 . S
C645 C649 1.395 . S
C645 C652 1.492 . S
C646 C647 1.392 . S
C646 C648 1.386 . S
C647 C645 1.393 . S
C647 C646 1.392 . S
C647 H664 0.930 . S
C648 C646 1.386 . S
C648 C650 1.395 . S
C648 H665 0.930 . S
C649 C645 1.395 . S
C649 C650 1.379 . S
C649 H666 0.930 . S
C650 C648 1.395 . S
C650 C649 1.379 . S
C650 H667 0.930 . S
C651 O634 1.264 . S
C651 O635 1.254 . S
C652 Eu588 2.848 . S
C652 O632 1.257 . S
C652 O637 1.249 . S
C652 C645 1.492 . S
C653 H618 0.931 . S
C653 C631 1.420 . S
C653 C654 1.351 . S
C654 H616 0.930 . S
C654 C622 1.423 . S
C654 C653 1.351 . S
C655 O639 1.276 . S
C655 O642 1.235 1_655 S
C656 C657 1.393 . S
C656 C660 1.395 . S
C656 C663 1.492 . S
C657 C656 1.393 . S
C657 C658 1.392 . S
C657 H668 0.930 . S
C658 C657 1.392 . S
C658 C659 1.386 . S
C659 C658 1.386 . S
C659 C661 1.395 . S
C659 H669 0.930 . S
C660 C656 1.395 . S
C660 C661 1.379 . S
C660 H670 0.930 . S
C661 C659 1.395 . S
C661 C660 1.379 . S
C661 H671 0.930 . S
C662 O640 1.264 . S
C662 O641 1.254 . S
C663 Eu599 2.848 . S
C663 O638 1.257 . S
C663 O643 1.249 . S
C663 C656 1.492 . S
H664 C647 0.930 . S
H665 C648 0.930 . S
H666 C649 0.930 . S
H667 C650 0.930 . S
H668 C657 0.930 . S
H669 C659 0.930 . S
H670 C660 0.930 . S
H671 C661 0.930 . S
Eu672 N703 2.657 . S
Eu672 N710 2.609 . S
Eu672 O716 2.558 . S
Eu672 O717 2.612 1_556 S
Eu672 O719 2.339 1_556 S
Eu672 O720 2.563 1_556 S
Eu672 O721 2.419 . S
Eu672 O723 2.380 . S
Eu672 O724 2.432 . S
Eu672 C736 2.848 . S
C673 C676 1.429 . S
C673 C677 1.411 . S
C673 N680 1.377 . S
C674 C676 1.420 . S
C674 C678 1.423 . S
C674 C686 1.392 . S
C675 C677 1.420 . S
C675 C678 1.351 . S
C675 H698 0.931 . S
C676 C673 1.429 . S
C676 C674 1.420 . S
C676 N684 1.362 . S
C677 C673 1.411 . S
C677 C675 1.420 . S
C677 C682 1.395 . S
C678 C674 1.423 . S
C678 C675 1.351 . S
C678 H690 0.930 . S
C679 C681 1.400 . S
C679 C682 1.386 . S
C679 H691 0.930 . S
N680 C673 1.377 . S
N680 C681 1.321 . S
N680 Eu683 2.609 . S
C681 C679 1.400 . S
C681 N680 1.321 . S
C681 H688 0.930 . S
C682 C677 1.395 . S
C682 C679 1.386 . S
C682 H701 0.930 . S
Eu683 N680 2.609 . S
Eu683 N684 2.657 . S
Eu683 O717 2.380 . S
Eu683 O718 2.432 . S
Eu683 O722 2.558 . S
Eu683 O723 2.612 1_554 S
Eu683 O725 2.339 1_554 S
Eu683 O726 2.563 1_554 S
Eu683 O727 2.419 . S
Eu683 C747 2.848 . S
N684 C676 1.362 . S
N684 Eu683 2.657 . S
N684 C685 1.334 . S
C685 N684 1.334 . S
C685 C687 1.413 . S
C685 H692 0.929 . S
C686 C674 1.392 . S
C686 C687 1.367 . S
C686 H694 0.930 . S
C687 C685 1.413 . S
C687 C686 1.367 . S
C687 H689 0.930 . S
H688 C681 0.930 . S
H689 C687 0.930 . S
H690 C678 0.930 . S
H691 C679 0.930 . S
H692 C685 0.929 . S
H693 C707 0.930 . S
H694 C686 0.930 . S
H695 C713 0.930 . S
H696 C704 0.929 . S
H697 C711 0.930 . S
H698 C675 0.931 . S
H699 C705 0.930 . S
H700 C738 0.930 . S
H701 C682 0.930 . S
H702 C737 0.931 . S
N703 Eu672 2.657 . S
N703 C704 1.334 . S
N703 C708 1.362 . S
C704 H696 0.929 . S
C704 N703 1.334 . S
C704 C707 1.413 . S
C705 H699 0.930 . S
C705 C706 1.392 . S
C705 C707 1.367 . S
C706 C705 1.392 . S
C706 C708 1.420 . S
C706 C738 1.423 . S
C707 H693 0.930 . S
C707 C704 1.413 . S
C707 C705 1.367 . S
C708 N703 1.362 . S
C708 C706 1.420 . S
C708 C712 1.429 . S
H709 C714 0.930 . S
N710 Eu672 2.609 . S
N710 C712 1.377 . S
N710 C713 1.321 . S
C711 H697 0.930 . S
C711 C713 1.400 . S
C711 C714 1.386 . S
C712 C708 1.429 . S
C712 N710 1.377 . S
C712 C715 1.411 . S
C713 H695 0.930 . S
C713 N710 1.321 . S
C713 C711 1.400 . S
C714 H709 0.930 . S
C714 C711 1.386 . S
C714 C715 1.395 . S
C715 C712 1.411 . S
C715 C714 1.395 . S
C715 C737 1.420 . S
O716 Eu672 2.558 . S
O716 C736 1.257 . S
O717 Eu672 2.612 1_554 S
O717 Eu683 2.380 . S
O717 C728 1.276 . S
O718 Eu683 2.432 . S
O718 C735 1.264 . S
O719 Eu672 2.339 1_554 S
O719 C735 1.254 . S
O720 Eu672 2.563 1_554 S
O720 C728 1.235 . S
O721 Eu672 2.419 . S
O721 C736 1.249 . S
O722 Eu683 2.558 . S
O722 C747 1.257 . S
O723 Eu672 2.380 . S
O723 Eu683 2.612 1_556 S
O723 C739 1.276 . S
O724 Eu672 2.432 . S
O724 C746 1.264 . S
O725 Eu683 2.339 1_556 S
O725 C746 1.254 . S
O726 Eu683 2.563 1_556 S
O726 C739 1.235 . S
O727 Eu683 2.419 . S
O727 C747 1.249 . S
C728 O717 1.276 . S
C728 O720 1.235 . S
C729 C731 1.393 . S
C729 C733 1.395 . S
C729 C736 1.492 . S
C730 C731 1.392 . S
C730 C732 1.386 . S
C731 C729 1.393 . S
C731 C730 1.392 . S
C731 H748 0.941 . S
C732 C730 1.386 . S
C732 C734 1.395 . S
C732 H749 0.930 . S
C733 C729 1.395 . S
C733 C734 1.379 . S
C733 H750 0.930 . S
C734 C732 1.395 . S
C734 C733 1.379 . S
C734 H751 0.930 . S
C735 O718 1.264 . S
C735 O719 1.254 . S
C736 Eu672 2.848 . S
C736 O716 1.257 . S
C736 O721 1.249 . S
C736 C729 1.492 . S
C737 H702 0.931 . S
C737 C715 1.420 . S
C737 C738 1.351 . S
C738 H700 0.930 . S
C738 C706 1.423 . S
C738 C737 1.351 . S
C739 O723 1.276 . S
C739 O726 1.235 . S
C740 C741 1.393 . S
C740 C744 1.395 . S
C740 C747 1.492 . S
C741 C740 1.393 . S
C741 C742 1.392 . S
C741 H752 0.951 . S
C742 C741 1.392 . S
C742 C743 1.386 . S
C743 C742 1.386 . S
C743 C745 1.395 . S
C743 H753 0.930 . S
C744 C740 1.395 . S
C744 C745 1.379 . S
C744 H754 0.930 . S
C745 C743 1.395 . S
C745 C744 1.379 . S
C745 H755 0.930 . S
C746 O724 1.264 . S
C746 O725 1.254 . S
C747 Eu683 2.848 . S
C747 O722 1.257 . S
C747 O727 1.249 . S
C747 C740 1.492 . S
H748 C731 0.941 . S
H749 C732 0.930 . S
H750 C733 0.930 . S
H751 C734 0.930 . S
H752 C741 0.951 . S
H753 C743 0.930 . S
H754 C744 0.930 . S
H755 C745 0.930 . S
Eu756 N787 2.657 . S
Eu756 N794 2.609 . S
Eu756 O800 2.558 . S
Eu756 O801 2.612 1_565 S
Eu756 O803 2.339 1_565 S
Eu756 O804 2.563 1_565 S
Eu756 O805 2.419 . S
Eu756 O807 2.380 . S
Eu756 O808 2.432 . S
Eu756 C820 2.848 . S
C757 C760 1.429 . S
C757 C761 1.411 . S
C757 N764 1.377 . S
C758 C760 1.420 . S
C758 C762 1.423 . S
C758 C770 1.392 . S
C759 C761 1.420 . S
C759 C762 1.351 . S
C759 H782 0.931 . S
C760 C757 1.429 . S
C760 C758 1.420 . S
C760 N768 1.362 . S
C761 C757 1.411 . S
C761 C759 1.420 . S
C761 C766 1.395 . S
C762 C758 1.423 . S
C762 C759 1.351 . S
C762 H774 0.930 . S
C763 C765 1.400 . S
C763 C766 1.386 . S
C763 H775 0.930 . S
N764 C757 1.377 . S
N764 C765 1.321 . S
N764 Eu767 2.609 . S
C765 C763 1.400 . S
C765 N764 1.321 . S
C765 H772 0.930 . S
C766 C761 1.395 . S
C766 C763 1.386 . S
C766 H785 0.930 . S
Eu767 N764 2.609 . S
Eu767 N768 2.657 . S
Eu767 O801 2.380 . S
Eu767 O802 2.432 . S
Eu767 O806 2.558 . S
Eu767 O807 2.612 1_545 S
Eu767 O809 2.339 1_545 S
Eu767 O810 2.563 1_545 S
Eu767 O811 2.419 . S
Eu767 C831 2.848 . S
N768 C760 1.362 . S
N768 Eu767 2.657 . S
N768 C769 1.334 . S
C769 N768 1.334 . S
C769 C771 1.413 . S
C769 H776 0.929 . S
C770 C758 1.392 . S
C770 C771 1.367 . S
C770 H778 0.930 . S
C771 C769 1.413 . S
C771 C770 1.367 . S
C771 H773 0.930 . S
H772 C765 0.930 . S
H773 C771 0.930 . S
H774 C762 0.930 . S
H775 C763 0.930 . S
H776 C769 0.929 . S
H777 C791 0.930 . S
H778 C770 0.930 . S
H779 C797 0.930 . S
H780 C788 0.929 . S
H781 C795 0.930 . S
H782 C759 0.931 . S
H783 C789 0.930 . S
H784 C822 0.930 . S
H785 C766 0.930 . S
H786 C821 0.931 . S
N787 Eu756 2.657 . S
N787 C788 1.334 . S
N787 C792 1.362 . S
C788 H780 0.929 . S
C788 N787 1.334 . S
C788 C791 1.413 . S
C789 H783 0.930 . S
C789 C790 1.392 . S
C789 C791 1.367 . S
C790 C789 1.392 . S
C790 C792 1.420 . S
C790 C822 1.423 . S
C791 H777 0.930 . S
C791 C788 1.413 . S
C791 C789 1.367 . S
C792 N787 1.362 . S
C792 C790 1.420 . S
C792 C796 1.429 . S
H793 C798 0.930 . S
N794 Eu756 2.609 . S
N794 C796 1.377 . S
N794 C797 1.321 . S
C795 H781 0.930 . S
C795 C797 1.400 . S
C795 C798 1.386 . S
C796 C792 1.429 . S
C796 N794 1.377 . S
C796 C799 1.411 . S
C797 H779 0.930 . S
C797 N794 1.321 . S
C797 C795 1.400 . S
C798 H793 0.930 . S
C798 C795 1.386 . S
C798 C799 1.395 . S
C799 C796 1.411 . S
C799 C798 1.395 . S
C799 C821 1.420 . S
O800 Eu756 2.558 . S
O800 C820 1.257 . S
O801 Eu756 2.612 1_545 S
O801 Eu767 2.380 . S
O801 C812 1.276 . S
O802 Eu767 2.432 . S
O802 C819 1.264 . S
O803 Eu756 2.339 1_545 S
O803 C819 1.254 . S
O804 Eu756 2.563 1_545 S
O804 C812 1.235 . S
O805 Eu756 2.419 . S
O805 C820 1.249 . S
O806 Eu767 2.558 . S
O806 C831 1.257 . S
O807 Eu756 2.380 . S
O807 Eu767 2.612 1_565 S
O807 C823 1.276 . S
O808 Eu756 2.432 . S
O808 C830 1.264 . S
O809 Eu767 2.339 1_565 S
O809 C830 1.254 . S
O810 Eu767 2.563 1_565 S
O810 C823 1.235 . S
O811 Eu767 2.419 . S
O811 C831 1.249 . S
C812 O801 1.276 . S
C812 O804 1.235 . S
C813 C815 1.393 1_565 S
C813 C817 1.395 . S
C813 C820 1.492 . S
C814 C815 1.392 . S
C814 C816 1.386 1_545 S
C815 C813 1.393 1_545 S
C815 C814 1.392 . S
C815 H832 0.930 . S
C816 C814 1.386 1_565 S
C816 C818 1.395 . S
C816 H833 0.930 . S
C817 C813 1.395 . S
C817 C818 1.379 . S
C817 H834 0.930 . S
C818 C816 1.395 . S
C818 C817 1.379 . S
C818 H835 0.930 . S
C819 O802 1.264 . S
C819 O803 1.254 . S
C820 Eu756 2.848 . S
C820 O800 1.257 . S
C820 O805 1.249 . S
C820 C813 1.492 . S
C821 H786 0.931 . S
C821 C799 1.420 . S
C821 C822 1.351 . S
C822 H784 0.930 . S
C822 C790 1.423 . S
C822 C821 1.351 . S
C823 O807 1.276 . S
C823 O810 1.235 . S
C824 C825 1.393 1_545 S
C824 C828 1.395 . S
C824 C831 1.492 . S
C825 C824 1.393 1_565 S
C825 C826 1.392 . S
C825 H836 0.930 . S
C826 C825 1.392 . S
C826 C827 1.386 1_565 S
C827 C826 1.386 1_545 S
C827 C829 1.395 . S
C827 H837 0.930 . S
C828 C824 1.395 . S
C828 C829 1.379 . S
C828 H838 0.930 . S
C829 C827 1.395 . S
C829 C828 1.379 . S
C829 H839 0.930 . S
C830 O808 1.264 . S
C830 O809 1.254 . S
C831 Eu767 2.848 . S
C831 O806 1.257 . S
C831 O811 1.249 . S
C831 C824 1.492 . S
H832 C815 0.930 . S
H833 C816 0.930 . S
H834 C817 0.930 . S
H835 C818 0.930 . S
H836 C825 0.930 . S
H837 C827 0.930 . S
H838 C828 0.930 . S
H839 C829 0.930 . S
Eu840 N871 2.657 . S
Eu840 N878 2.609 . S
Eu840 O884 2.558 . S
Eu840 O885 2.612 . S
Eu840 O887 2.339 . S
Eu840 O888 2.563 . S
Eu840 O889 2.419 . S
Eu840 O891 2.380 . S
Eu840 O892 2.432 . S
Eu840 C904 2.848 . S
C841 C844 1.429 . S
C841 C845 1.411 . S
C841 N848 1.377 . S
C842 C844 1.420 . S
C842 C846 1.423 . S
C842 C854 1.392 . S
C843 C845 1.420 . S
C843 C846 1.351 . S
C843 H866 0.931 . S
C844 C841 1.429 . S
C844 C842 1.420 . S
C844 N852 1.362 . S
C845 C841 1.411 . S
C845 C843 1.420 . S
C845 C850 1.395 . S
C846 C842 1.423 . S
C846 C843 1.351 . S
C846 H858 0.930 . S
C847 C849 1.400 . S
C847 C850 1.386 . S
C847 H859 0.930 . S
N848 C841 1.377 . S
N848 C849 1.321 . S
N848 Eu851 2.609 . S
C849 C847 1.400 . S
C849 N848 1.321 . S
C849 H856 0.930 . S
C850 C845 1.395 . S
C850 C847 1.386 . S
C850 H869 0.930 . S
Eu851 N848 2.609 . S
Eu851 N852 2.657 . S
Eu851 O885 2.380 . S
Eu851 O886 2.432 . S
Eu851 O890 2.558 . S
Eu851 O891 2.612 . S
Eu851 O893 2.339 . S
Eu851 O894 2.563 . S
Eu851 O895 2.419 . S
Eu851 C915 2.848 . S
N852 C844 1.362 . S
N852 Eu851 2.657 . S
N852 C853 1.334 . S
C853 N852 1.334 . S
C853 C855 1.413 . S
C853 H860 0.929 . S
C854 C842 1.392 . S
C854 C855 1.367 . S
C854 H862 0.930 . S
C855 C853 1.413 . S
C855 C854 1.367 . S
C855 H857 0.930 . S
H856 C849 0.930 . S
H857 C855 0.930 . S
H858 C846 0.930 . S
H859 C847 0.930 . S
H860 C853 0.929 . S
H861 C875 0.930 . S
H862 C854 0.930 . S
H863 C881 0.930 . S
H864 C872 0.929 . S
H865 C879 0.930 . S
H866 C843 0.931 . S
H867 C873 0.930 . S
H868 C906 0.930 . S
H869 C850 0.930 . S
H870 C905 0.931 . S
N871 Eu840 2.657 . S
N871 C872 1.334 . S
N871 C876 1.362 . S
C872 H864 0.929 . S
C872 N871 1.334 . S
C872 C875 1.413 . S
C873 H867 0.930 . S
C873 C874 1.392 . S
C873 C875 1.367 . S
C874 C873 1.392 . S
C874 C876 1.420 . S
C874 C906 1.423 . S
C875 H861 0.930 . S
C875 C872 1.413 . S
C875 C873 1.367 . S
C876 N871 1.362 . S
C876 C874 1.420 . S
C876 C880 1.429 . S
H877 C882 0.930 . S
N878 Eu840 2.609 . S
N878 C880 1.377 . S
N878 C881 1.321 . S
C879 H865 0.930 . S
C879 C881 1.400 . S
C879 C882 1.386 . S
C880 C876 1.429 . S
C880 N878 1.377 . S
C880 C883 1.411 . S
C881 H863 0.930 . S
C881 N878 1.321 . S
C881 C879 1.400 . S
C882 H877 0.930 . S
C882 C879 1.386 . S
C882 C883 1.395 . S
C883 C880 1.411 . S
C883 C882 1.395 . S
C883 C905 1.420 . S
O884 Eu840 2.558 . S
O884 C904 1.257 . S
O885 Eu840 2.612 . S
O885 Eu851 2.380 . S
O885 C896 1.276 . S
O886 Eu851 2.432 . S
O886 C903 1.264 . S
O887 Eu840 2.339 . S
O887 C903 1.254 . S
O888 Eu840 2.563 . S
O888 C896 1.235 . S
O889 Eu840 2.419 . S
O889 C904 1.249 . S
O890 Eu851 2.558 . S
O890 C915 1.257 . S
O891 Eu840 2.380 . S
O891 Eu851 2.612 . S
O891 C907 1.276 . S
O892 Eu840 2.432 . S
O892 C914 1.264 . S
O893 Eu851 2.339 . S
O893 C914 1.254 . S
O894 Eu851 2.563 . S
O894 C907 1.235 . S
O895 Eu851 2.419 . S
O895 C915 1.249 . S
C896 O885 1.276 . S
C896 O888 1.235 . S
C897 C899 1.393 . S
C897 C901 1.395 . S
C897 C904 1.492 . S
C898 C899 1.392 . S
C898 C900 1.386 . S
C899 C897 1.393 . S
C899 C898 1.392 . S
C899 H916 0.930 . S
C900 C898 1.386 . S
C900 C902 1.395 . S
C900 H917 0.930 . S
C901 C897 1.395 . S
C901 C902 1.379 . S
C901 H918 0.930 . S
C902 C900 1.395 . S
C902 C901 1.379 . S
C902 H919 0.930 . S
C903 O886 1.264 . S
C903 O887 1.254 . S
C904 Eu840 2.848 . S
C904 O884 1.257 . S
C904 O889 1.249 . S
C904 C897 1.492 . S
C905 H870 0.931 . S
C905 C883 1.420 . S
C905 C906 1.351 . S
C906 H868 0.930 . S
C906 C874 1.423 . S
C906 C905 1.351 . S
C907 O891 1.276 . S
C907 O894 1.235 . S
C908 C909 1.393 . S
C908 C912 1.395 . S
C908 C915 1.492 . S
C909 C908 1.393 . S
C909 C910 1.392 . S
C909 H920 0.930 . S
C910 C909 1.392 . S
C910 C911 1.386 . S
C911 C910 1.386 . S
C911 C913 1.395 . S
C911 H921 0.930 . S
C912 C908 1.395 . S
C912 C913 1.379 . S
C912 H922 0.930 . S
C913 C911 1.395 . S
C913 C912 1.379 . S
C913 H923 0.930 . S
C914 O892 1.264 . S
C914 O893 1.254 . S
C915 Eu851 2.848 . S
C915 O890 1.257 . S
C915 O895 1.249 . S
C915 C908 1.492 . S
H916 C899 0.930 . S
H917 C900 0.930 . S
H918 C901 0.930 . S
H919 C902 0.930 . S
H920 C909 0.930 . S
H921 C911 0.930 . S
H922 C912 0.930 . S
H923 C913 0.930 . S
Eu924 N955 2.657 . S
Eu924 N962 2.609 . S
Eu924 O968 2.558 . S
Eu924 O969 2.612 1_455 S
Eu924 O971 2.339 1_455 S
Eu924 O972 2.563 1_455 S
Eu924 O973 2.419 . S
Eu924 O975 2.380 . S
Eu924 O976 2.432 . S
Eu924 C988 2.848 . S
C925 C928 1.429 . S
C925 C929 1.411 . S
C925 N932 1.377 . S
C926 C928 1.420 . S
C926 C930 1.423 . S
C926 C938 1.392 . S
C927 C929 1.420 . S
C927 C930 1.351 . S
C927 H950 0.931 . S
C928 C925 1.429 . S
C928 C926 1.420 . S
C928 N936 1.362 . S
C929 C925 1.411 . S
C929 C927 1.420 . S
C929 C934 1.395 . S
C930 C926 1.423 . S
C930 C927 1.351 . S
C930 H942 0.930 . S
C931 C933 1.400 . S
C931 C934 1.386 . S
C931 H943 0.930 . S
N932 C925 1.377 . S
N932 C933 1.321 . S
N932 Eu935 2.609 . S
C933 C931 1.400 . S
C933 N932 1.321 . S
C933 H940 0.930 . S
C934 C929 1.395 . S
C934 C931 1.386 . S
C934 H953 0.930 . S
Eu935 N932 2.609 . S
Eu935 N936 2.657 . S
Eu935 O969 2.380 . S
Eu935 O970 2.432 . S
Eu935 O974 2.558 . S
Eu935 O975 2.612 1_655 S
Eu935 O977 2.339 1_655 S
Eu935 O978 2.563 1_655 S
Eu935 O979 2.419 . S
Eu935 C999 2.848 . S
N936 C928 1.362 . S
N936 Eu935 2.657 . S
N936 C937 1.334 . S
C937 N936 1.334 . S
C937 C939 1.413 . S
C937 H944 0.929 . S
C938 C926 1.392 . S
C938 C939 1.367 . S
C938 H946 0.930 . S
C939 C937 1.413 . S
C939 C938 1.367 . S
C939 H941 0.930 . S
H940 C933 0.930 . S
H941 C939 0.930 . S
H942 C930 0.930 . S
H943 C931 0.930 . S
H944 C937 0.929 . S
H945 C959 0.930 . S
H946 C938 0.930 . S
H947 C965 0.930 . S
H948 C956 0.929 . S
H949 C963 0.930 . S
H950 C927 0.931 . S
H951 C957 0.930 . S
H952 C990 0.930 . S
H953 C934 0.930 . S
H954 C989 0.931 . S
N955 Eu924 2.657 . S
N955 C956 1.334 . S
N955 C960 1.362 . S
C956 H948 0.929 . S
C956 N955 1.334 . S
C956 C959 1.413 . S
C957 H951 0.930 . S
C957 C958 1.392 . S
C957 C959 1.367 . S
C958 C957 1.392 . S
C958 C960 1.420 . S
C958 C990 1.423 . S
C959 H945 0.930 . S
C959 C956 1.413 . S
C959 C957 1.367 . S
C960 N955 1.362 . S
C960 C958 1.420 . S
C960 C964 1.429 . S
H961 C966 0.930 . S
N962 Eu924 2.609 . S
N962 C964 1.377 . S
N962 C965 1.321 . S
C963 H949 0.930 . S
C963 C965 1.400 . S
C963 C966 1.386 . S
C964 C960 1.429 . S
C964 N962 1.377 . S
C964 C967 1.411 . S
C965 H947 0.930 . S
C965 N962 1.321 . S
C965 C963 1.400 . S
C966 H961 0.930 . S
C966 C963 1.386 . S
C966 C967 1.395 . S
C967 C964 1.411 . S
C967 C966 1.395 . S
C967 C989 1.420 . S
O968 Eu924 2.558 . S
O968 C988 1.257 . S
O969 Eu924 2.612 1_655 S
O969 Eu935 2.380 . S
O969 C980 1.276 . S
O970 Eu935 2.432 . S
O970 C987 1.264 . S
O971 Eu924 2.339 1_655 S
O971 C987 1.254 . S
O972 Eu924 2.563 1_655 S
O972 C980 1.235 . S
O973 Eu924 2.419 . S
O973 C988 1.249 . S
O974 Eu935 2.558 . S
O974 C999 1.257 . S
O975 Eu924 2.380 . S
O975 Eu935 2.612 1_455 S
O975 C991 1.276 . S
O976 Eu924 2.432 . S
O976 C998 1.264 . S
O977 Eu935 2.339 1_455 S
O977 C998 1.254 . S
O978 Eu935 2.563 1_455 S
O978 C991 1.235 . S
O979 Eu935 2.419 . S
O979 C999 1.249 . S
C980 O969 1.276 . S
C980 O972 1.235 . S
C981 C983 1.393 1_455 S
C981 C985 1.395 . S
C981 C988 1.492 . S
C982 C983 1.392 . S
C982 C984 1.386 1_655 S
C983 C981 1.393 1_655 S
C983 C982 1.392 . S
C983 H1000 0.930 . S
C984 C982 1.386 1_455 S
C984 C986 1.395 . S
C984 H1001 0.930 . S
C985 C981 1.395 . S
C985 C986 1.379 . S
C985 H1002 0.930 . S
C986 C984 1.395 . S
C986 C985 1.379 . S
C986 H1003 0.930 . S
C987 O970 1.264 . S
C987 O971 1.254 . S
C988 Eu924 2.848 . S
C988 O968 1.257 . S
C988 O973 1.249 . S
C988 C981 1.492 . S
C989 H954 0.931 . S
C989 C967 1.420 . S
C989 C990 1.351 . S
C990 H952 0.930 . S
C990 C958 1.423 . S
C990 C989 1.351 . S
C991 O975 1.276 . S
C991 O978 1.235 . S
C992 C993 1.393 1_655 S
C992 C996 1.395 . S
C992 C999 1.492 . S
C993 C992 1.393 1_455 S
C993 C994 1.392 . S
C993 H1004 0.930 . S
C994 C993 1.392 . S
C994 C995 1.386 1_455 S
C995 C994 1.386 1_655 S
C995 C997 1.395 . S
C995 H1005 0.930 . S
C996 C992 1.395 . S
C996 C997 1.379 . S
C996 H1006 0.930 . S
C997 C995 1.395 . S
C997 C996 1.379 . S
C997 H1007 0.930 . S
C998 O976 1.264 . S
C998 O977 1.254 . S
C999 Eu935 2.848 . S
C999 O974 1.257 . S
C999 O979 1.249 . S
C999 C992 1.492 . S
H1000 C983 0.930 . S
H1001 C984 0.930 . S
H1002 C985 0.930 . S
H1003 C986 0.930 . S
H1004 C993 0.930 . S
H1005 C995 0.930 . S
H1006 C996 0.930 . S
H1007 C997 0.930 . S
Eu1008 N1039 2.657 . S
Eu1008 N1046 2.609 . S
Eu1008 O1052 2.558 . S
Eu1008 O1053 2.612 . S
Eu1008 O1055 2.339 . S
Eu1008 O1056 2.563 . S
Eu1008 O1057 2.419 . S
Eu1008 O1059 2.380 . S
Eu1008 O1060 2.432 . S
Eu1008 C1072 2.848 . S
C1009 C1012 1.429 . S
C1009 C1013 1.411 . S
C1009 N1016 1.377 . S
C1010 C1012 1.420 . S
C1010 C1014 1.423 . S
C1010 C1022 1.392 . S
C1011 C1013 1.420 . S
C1011 C1014 1.351 . S
C1011 H1034 0.931 . S
C1012 C1009 1.429 . S
C1012 C1010 1.420 . S
C1012 N1020 1.362 . S
C1013 C1009 1.411 . S
C1013 C1011 1.420 . S
C1013 C1018 1.395 . S
C1014 C1010 1.423 . S
C1014 C1011 1.351 . S
C1014 H1026 0.930 . S
C1015 C1017 1.400 . S
C1015 C1018 1.386 . S
C1015 H1027 0.930 . S
N1016 C1009 1.377 . S
N1016 C1017 1.321 . S
N1016 Eu1019 2.609 . S
C1017 C1015 1.400 . S
C1017 N1016 1.321 . S
C1017 H1024 0.930 . S
C1018 C1013 1.395 . S
C1018 C1015 1.386 . S
C1018 H1037 0.930 . S
Eu1019 N1016 2.609 . S
Eu1019 N1020 2.657 . S
Eu1019 O1053 2.380 . S
Eu1019 O1054 2.432 . S
Eu1019 O1058 2.558 . S
Eu1019 O1059 2.612 . S
Eu1019 O1061 2.339 . S
Eu1019 O1062 2.563 . S
Eu1019 O1063 2.419 . S
Eu1019 C1083 2.848 . S
N1020 C1012 1.362 . S
N1020 Eu1019 2.657 . S
N1020 C1021 1.334 . S
C1021 N1020 1.334 . S
C1021 C1023 1.413 . S
C1021 H1028 0.929 . S
C1022 C1010 1.392 . S
C1022 C1023 1.367 . S
C1022 H1030 0.930 . S
C1023 C1021 1.413 . S
C1023 C1022 1.367 . S
C1023 H1025 0.930 . S
H1024 C1017 0.930 . S
H1025 C1023 0.930 . S
H1026 C1014 0.930 . S
H1027 C1015 0.930 . S
H1028 C1021 0.929 . S
H1029 C1043 0.930 . S
H1030 C1022 0.930 . S
H1031 C1049 0.930 . S
H1032 C1040 0.929 . S
H1033 C1047 0.930 . S
H1034 C1011 0.931 . S
H1035 C1041 0.930 . S
H1036 C1074 0.930 . S
H1037 C1018 0.930 . S
H1038 C1073 0.931 . S
N1039 Eu1008 2.657 . S
N1039 C1040 1.334 . S
N1039 C1044 1.362 . S
C1040 H1032 0.929 . S
C1040 N1039 1.334 . S
C1040 C1043 1.413 . S
C1041 H1035 0.930 . S
C1041 C1042 1.392 . S
C1041 C1043 1.367 . S
C1042 C1041 1.392 . S
C1042 C1044 1.420 . S
C1042 C1074 1.423 . S
C1043 H1029 0.930 . S
C1043 C1040 1.413 . S
C1043 C1041 1.367 . S
C1044 N1039 1.362 . S
C1044 C1042 1.420 . S
C1044 C1048 1.429 . S
H1045 C1050 0.930 . S
N1046 Eu1008 2.609 . S
N1046 C1048 1.377 . S
N1046 C1049 1.321 . S
C1047 H1033 0.930 . S
C1047 C1049 1.400 . S
C1047 C1050 1.386 . S
C1048 C1044 1.429 . S
C1048 N1046 1.377 . S
C1048 C1051 1.411 . S
C1049 H1031 0.930 . S
C1049 N1046 1.321 . S
C1049 C1047 1.400 . S
C1050 H1045 0.930 . S
C1050 C1047 1.386 . S
C1050 C1051 1.395 . S
C1051 C1048 1.411 . S
C1051 C1050 1.395 . S
C1051 C1073 1.420 . S
O1052 Eu1008 2.558 . S
O1052 C1072 1.257 . S
O1053 Eu1008 2.612 . S
O1053 Eu1019 2.380 . S
O1053 C1064 1.276 . S
O1054 Eu1019 2.432 . S
O1054 C1071 1.264 . S
O1055 Eu1008 2.339 . S
O1055 C1071 1.254 . S
O1056 Eu1008 2.563 . S
O1056 C1064 1.235 . S
O1057 Eu1008 2.419 . S
O1057 C1072 1.249 . S
O1058 Eu1019 2.558 . S
O1058 C1083 1.257 . S
O1059 Eu1008 2.380 . S
O1059 Eu1019 2.612 . S
O1059 C1075 1.276 . S
O1060 Eu1008 2.432 . S
O1060 C1082 1.264 . S
O1061 Eu1019 2.339 . S
O1061 C1082 1.254 . S
O1062 Eu1019 2.563 . S
O1062 C1075 1.235 . S
O1063 Eu1019 2.419 . S
O1063 C1083 1.249 . S
C1064 O1053 1.276 . S
C1064 O1056 1.235 . S
C1065 C1067 1.393 . S
C1065 C1069 1.395 . S
C1065 C1072 1.492 . S
C1066 C1067 1.392 . S
C1066 C1068 1.386 . S
C1067 C1065 1.393 . S
C1067 C1066 1.392 . S
C1067 H1084 0.930 . S
C1068 C1066 1.386 . S
C1068 C1070 1.395 . S
C1068 H1085 0.930 . S
C1069 C1065 1.395 . S
C1069 C1070 1.379 . S
C1069 H1086 0.930 . S
C1070 C1068 1.395 . S
C1070 C1069 1.379 . S
C1070 H1087 0.930 . S
C1071 O1054 1.264 . S
C1071 O1055 1.254 . S
C1072 Eu1008 2.848 . S
C1072 O1052 1.257 . S
C1072 O1057 1.249 . S
C1072 C1065 1.492 . S
C1073 H1038 0.931 . S
C1073 C1051 1.420 . S
C1073 C1074 1.351 . S
C1074 H1036 0.930 . S
C1074 C1042 1.423 . S
C1074 C1073 1.351 . S
C1075 O1059 1.276 . S
C1075 O1062 1.235 . S
C1076 C1077 1.393 . S
C1076 C1080 1.395 . S
C1076 C1083 1.492 . S
C1077 C1076 1.393 . S
C1077 C1078 1.392 . S
C1077 H1088 0.930 . S
C1078 C1077 1.392 . S
C1078 C1079 1.386 . S
C1079 C1078 1.386 . S
C1079 C1081 1.395 . S
C1079 H1089 0.930 . S
C1080 C1076 1.395 . S
C1080 C1081 1.379 . S
C1080 H1090 0.930 . S
C1081 C1079 1.395 . S
C1081 C1080 1.379 . S
C1081 H1091 0.930 . S
C1082 O1060 1.264 . S
C1082 O1061 1.254 . S
C1083 Eu1019 2.848 . S
C1083 O1058 1.257 . S
C1083 O1063 1.249 . S
C1083 C1076 1.492 . S
H1084 C1067 0.930 . S
H1085 C1068 0.930 . S
H1086 C1069 0.930 . S
H1087 C1070 0.930 . S
H1088 C1077 0.930 . S
H1089 C1079 0.930 . S
H1090 C1080 0.930 . S
H1091 C1081 0.930 . S
Eu1092 N1123 2.657 . S
Eu1092 N1130 2.609 . S
Eu1092 O1136 2.558 . S
Eu1092 O1137 2.612 1_556 S
Eu1092 O1139 2.339 1_556 S
Eu1092 O1140 2.563 1_556 S
Eu1092 O1141 2.419 . S
Eu1092 O1143 2.380 . S
Eu1092 O1144 2.432 . S
Eu1092 C1156 2.848 . S
C1093 C1096 1.429 . S
C1093 C1097 1.411 . S
C1093 N1100 1.377 . S
C1094 C1096 1.420 . S
C1094 C1098 1.423 . S
C1094 C1106 1.392 . S
C1095 C1097 1.420 . S
C1095 C1098 1.351 . S
C1095 H1118 0.931 . S
C1096 C1093 1.429 . S
C1096 C1094 1.420 . S
C1096 N1104 1.362 . S
C1097 C1093 1.411 . S
C1097 C1095 1.420 . S
C1097 C1102 1.395 . S
C1098 C1094 1.423 . S
C1098 C1095 1.351 . S
C1098 H1110 0.930 . S
C1099 C1101 1.400 . S
C1099 C1102 1.386 . S
C1099 H1111 0.930 . S
N1100 C1093 1.377 . S
N1100 C1101 1.321 . S
N1100 Eu1103 2.609 . S
C1101 C1099 1.400 . S
C1101 N1100 1.321 . S
C1101 H1108 0.930 . S
C1102 C1097 1.395 . S
C1102 C1099 1.386 . S
C1102 H1121 0.930 . S
Eu1103 N1100 2.609 . S
Eu1103 N1104 2.657 . S
Eu1103 O1137 2.380 . S
Eu1103 O1138 2.432 . S
Eu1103 O1142 2.558 . S
Eu1103 O1143 2.612 1_554 S
Eu1103 O1145 2.339 1_554 S
Eu1103 O1146 2.563 1_554 S
Eu1103 O1147 2.419 . S
Eu1103 C1167 2.848 . S
N1104 C1096 1.362 . S
N1104 Eu1103 2.657 . S
N1104 C1105 1.334 . S
C1105 N1104 1.334 . S
C1105 C1107 1.413 . S
C1105 H1112 0.929 . S
C1106 C1094 1.392 . S
C1106 C1107 1.367 . S
C1106 H1114 0.930 . S
C1107 C1105 1.413 . S
C1107 C1106 1.367 . S
C1107 H1109 0.930 . S
H1108 C1101 0.930 . S
H1109 C1107 0.930 . S
H1110 C1098 0.930 . S
H1111 C1099 0.930 . S
H1112 C1105 0.929 . S
H1113 C1127 0.930 . S
H1114 C1106 0.930 . S
H1115 C1133 0.930 . S
H1116 C1124 0.929 . S
H1117 C1131 0.930 . S
H1118 C1095 0.931 . S
H1119 C1125 0.930 . S
H1120 C1158 0.930 . S
H1121 C1102 0.930 . S
H1122 C1157 0.931 . S
N1123 Eu1092 2.657 . S
N1123 C1124 1.334 . S
N1123 C1128 1.362 . S
C1124 H1116 0.929 . S
C1124 N1123 1.334 . S
C1124 C1127 1.413 . S
C1125 H1119 0.930 . S
C1125 C1126 1.392 . S
C1125 C1127 1.367 . S
C1126 C1125 1.392 . S
C1126 C1128 1.420 . S
C1126 C1158 1.423 . S
C1127 H1113 0.930 . S
C1127 C1124 1.413 . S
C1127 C1125 1.367 . S
C1128 N1123 1.362 . S
C1128 C1126 1.420 . S
C1128 C1132 1.429 . S
H1129 C1134 0.930 . S
N1130 Eu1092 2.609 . S
N1130 C1132 1.377 . S
N1130 C1133 1.321 . S
C1131 H1117 0.930 . S
C1131 C1133 1.400 . S
C1131 C1134 1.386 . S
C1132 C1128 1.429 . S
C1132 N1130 1.377 . S
C1132 C1135 1.411 . S
C1133 H1115 0.930 . S
C1133 N1130 1.321 . S
C1133 C1131 1.400 . S
C1134 H1129 0.930 . S
C1134 C1131 1.386 . S
C1134 C1135 1.395 . S
C1135 C1132 1.411 . S
C1135 C1134 1.395 . S
C1135 C1157 1.420 . S
O1136 Eu1092 2.558 . S
O1136 C1156 1.257 . S
O1137 Eu1092 2.612 1_554 S
O1137 Eu1103 2.380 . S
O1137 C1148 1.276 . S
O1138 Eu1103 2.432 . S
O1138 C1155 1.264 . S
O1139 Eu1092 2.339 1_554 S
O1139 C1155 1.254 . S
O1140 Eu1092 2.563 1_554 S
O1140 C1148 1.235 . S
O1141 Eu1092 2.419 . S
O1141 C1156 1.249 . S
O1142 Eu1103 2.558 . S
O1142 C1167 1.257 . S
O1143 Eu1092 2.380 . S
O1143 Eu1103 2.612 1_556 S
O1143 C1159 1.276 . S
O1144 Eu1092 2.432 . S
O1144 C1166 1.264 . S
O1145 Eu1103 2.339 1_556 S
O1145 C1166 1.254 . S
O1146 Eu1103 2.563 1_556 S
O1146 C1159 1.235 . S
O1147 Eu1103 2.419 . S
O1147 C1167 1.249 . S
C1148 O1137 1.276 . S
C1148 O1140 1.235 . S
C1149 C1151 1.393 . S
C1149 C1153 1.395 . S
C1149 C1156 1.492 . S
C1150 C1151 1.392 . S
C1150 C1152 1.386 . S
C1151 C1149 1.393 . S
C1151 C1150 1.392 . S
C1151 H1168 0.941 . S
C1152 C1150 1.386 . S
C1152 C1154 1.395 . S
C1152 H1169 0.930 . S
C1153 C1149 1.395 . S
C1153 C1154 1.379 . S
C1153 H1170 0.930 . S
C1154 C1152 1.395 . S
C1154 C1153 1.379 . S
C1154 H1171 0.930 . S
C1155 O1138 1.264 . S
C1155 O1139 1.254 . S
C1156 Eu1092 2.848 . S
C1156 O1136 1.257 . S
C1156 O1141 1.249 . S
C1156 C1149 1.492 . S
C1157 H1122 0.931 . S
C1157 C1135 1.420 . S
C1157 C1158 1.351 . S
C1158 H1120 0.930 . S
C1158 C1126 1.423 . S
C1158 C1157 1.351 . S
C1159 O1143 1.276 . S
C1159 O1146 1.235 . S
C1160 C1161 1.393 . S
C1160 C1164 1.395 . S
C1160 C1167 1.492 . S
C1161 C1160 1.393 . S
C1161 C1162 1.392 . S
C1161 H1172 0.951 . S
C1162 C1161 1.392 . S
C1162 C1163 1.386 . S
C1163 C1162 1.386 . S
C1163 C1165 1.395 . S
C1163 H1173 0.930 . S
C1164 C1160 1.395 . S
C1164 C1165 1.379 . S
C1164 H1174 0.930 . S
C1165 C1163 1.395 . S
C1165 C1164 1.379 . S
C1165 H1175 0.930 . S
C1166 O1144 1.264 . S
C1166 O1145 1.254 . S
C1167 Eu1103 2.848 . S
C1167 O1142 1.257 . S
C1167 O1147 1.249 . S
C1167 C1160 1.492 . S
H1168 C1151 0.941 . S
H1169 C1152 0.930 . S
H1170 C1153 0.930 . S
H1171 C1154 0.930 . S
H1172 C1161 0.951 . S
H1173 C1163 0.930 . S
H1174 C1164 0.930 . S
H1175 C1165 0.930 . S
Eu1176 N1207 2.657 1_565 S
Eu1176 N1214 2.609 . S
Eu1176 O1220 2.558 . S
Eu1176 O1221 2.612 . S
Eu1176 O1223 2.339 1_565 S
Eu1176 O1224 2.563 . S
Eu1176 O1225 2.419 . S
Eu1176 O1227 2.380 1_565 S
Eu1176 O1228 2.432 . S
Eu1176 C1240 2.848 . S
C1177 C1180 1.429 1_545 S
C1177 C1181 1.411 . S
C1177 N1184 1.377 . S
C1178 C1180 1.420 . S
C1178 C1182 1.423 . S
C1178 C1190 1.392 . S
C1179 C1181 1.420 1_565 S
C1179 C1182 1.351 . S
C1179 H1202 0.931 . S
C1180 C1177 1.429 1_565 S
C1180 C1178 1.420 . S
C1180 N1188 1.362 . S
C1181 C1177 1.411 . S
C1181 C1179 1.420 1_545 S
C1181 C1186 1.395 . S
C1182 C1178 1.423 . S
C1182 C1179 1.351 . S
C1182 H1194 0.930 . S
C1183 C1185 1.400 . S
C1183 C1186 1.386 . S
C1183 H1195 0.930 . S
N1184 C1177 1.377 . S
N1184 C1185 1.321 . S
N1184 Eu1187 2.609 . S
C1185 C1183 1.400 . S
C1185 N1184 1.321 . S
C1185 H1192 0.930 . S
C1186 C1181 1.395 . S
C1186 C1183 1.386 . S
C1186 H1205 0.930 . S
Eu1187 N1184 2.609 . S
Eu1187 N1188 2.657 1_545 S
Eu1187 O1221 2.380 1_545 S
Eu1187 O1222 2.432 . S
Eu1187 O1226 2.558 . S
Eu1187 O1227 2.612 . S
Eu1187 O1229 2.339 1_545 S
Eu1187 O1230 2.563 . S
Eu1187 O1231 2.419 . S
Eu1187 C1251 2.848 . S
N1188 C1180 1.362 . S
N1188 Eu1187 2.657 1_565 S
N1188 C1189 1.334 . S
C1189 N1188 1.334 . S
C1189 C1191 1.413 . S
C1189 H1196 0.929 . S
C1190 C1178 1.392 . S
C1190 C1191 1.367 . S
C1190 H1198 0.930 . S
C1191 C1189 1.413 . S
C1191 C1190 1.367 . S
C1191 H1193 0.930 . S
H1192 C1185 0.930 . S
H1193 C1191 0.930 . S
H1194 C1182 0.930 . S
H1195 C1183 0.930 . S
H1196 C1189 0.929 . S
H1197 C1211 0.930 . S
H1198 C1190 0.930 . S
H1199 C1217 0.930 . S
H1200 C1208 0.929 . S
H1201 C1215 0.930 . S
H1202 C1179 0.931 . S
H1203 C1209 0.930 . S
H1204 C1242 0.930 . S
H1205 C1186 0.930 . S
H1206 C1241 0.931 . S
N1207 Eu1176 2.657 1_545 S
N1207 C1208 1.334 . S
N1207 C1212 1.362 . S
C1208 H1200 0.929 . S
C1208 N1207 1.334 . S
C1208 C1211 1.413 . S
C1209 H1203 0.930 . S
C1209 C1210 1.392 . S
C1209 C1211 1.367 . S
C1210 C1209 1.392 . S
C1210 C1212 1.420 . S
C1210 C1242 1.423 . S
C1211 H1197 0.930 . S
C1211 C1208 1.413 . S
C1211 C1209 1.367 . S
C1212 N1207 1.362 . S
C1212 C1210 1.420 . S
C1212 C1216 1.429 1_545 S
H1213 C1218 0.930 . S
N1214 Eu1176 2.609 . S
N1214 C1216 1.377 . S
N1214 C1217 1.321 . S
C1215 H1201 0.930 . S
C1215 C1217 1.400 . S
C1215 C1218 1.386 . S
C1216 C1212 1.429 1_565 S
C1216 N1214 1.377 . S
C1216 C1219 1.411 . S
C1217 H1199 0.930 . S
C1217 N1214 1.321 . S
C1217 C1215 1.400 . S
C1218 H1213 0.930 . S
C1218 C1215 1.386 . S
C1218 C1219 1.395 . S
C1219 C1216 1.411 . S
C1219 C1218 1.395 . S
C1219 C1241 1.420 1_565 S
O1220 Eu1176 2.558 . S
O1220 C1240 1.257 . S
O1221 Eu1176 2.612 . S
O1221 Eu1187 2.380 1_565 S
O1221 C1232 1.276 . S
O1222 Eu1187 2.432 . S
O1222 C1239 1.264 . S
O1223 Eu1176 2.339 1_545 S
O1223 C1239 1.254 . S
O1224 Eu1176 2.563 . S
O1224 C1232 1.235 . S
O1225 Eu1176 2.419 . S
O1225 C1240 1.249 . S
O1226 Eu1187 2.558 . S
O1226 C1251 1.257 . S
O1227 Eu1176 2.380 1_545 S
O1227 Eu1187 2.612 . S
O1227 C1243 1.276 . S
O1228 Eu1176 2.432 . S
O1228 C1250 1.264 . S
O1229 Eu1187 2.339 1_565 S
O1229 C1250 1.254 . S
O1230 Eu1187 2.563 . S
O1230 C1243 1.235 . S
O1231 Eu1187 2.419 . S
O1231 C1251 1.249 . S
C1232 O1221 1.276 . S
C1232 O1224 1.235 . S
C1233 C1235 1.393 . S
C1233 C1237 1.395 . S
C1233 C1240 1.492 . S
C1234 C1235 1.392 . S
C1234 C1236 1.386 . S
C1235 C1233 1.393 . S
C1235 C1234 1.392 . S
C1235 H1252 0.930 . S
C1236 C1234 1.386 . S
C1236 C1238 1.395 . S
C1236 H1253 0.930 . S
C1237 C1233 1.395 . S
C1237 C1238 1.379 . S
C1237 H1254 0.930 . S
C1238 C1236 1.395 . S
C1238 C1237 1.379 . S
C1238 H1255 0.930 . S
C1239 O1222 1.264 . S
C1239 O1223 1.254 . S
C1240 Eu1176 2.848 . S
C1240 O1220 1.257 . S
C1240 O1225 1.249 . S
C1240 C1233 1.492 . S
C1241 H1206 0.931 . S
C1241 C1219 1.420 1_545 S
C1241 C1242 1.351 . S
C1242 H1204 0.930 . S
C1242 C1210 1.423 . S
C1242 C1241 1.351 . S
C1243 O1227 1.276 . S
C1243 O1230 1.235 . S
C1244 C1245 1.393 . S
C1244 C1248 1.395 . S
C1244 C1251 1.492 . S
C1245 C1244 1.393 . S
C1245 C1246 1.392 . S
C1245 H1256 0.930 . S
C1246 C1245 1.392 . S
C1246 C1247 1.386 . S
C1247 C1246 1.386 . S
C1247 C1249 1.395 . S
C1247 H1257 0.930 . S
C1248 C1244 1.395 . S
C1248 C1249 1.379 . S
C1248 H1258 0.930 . S
C1249 C1247 1.395 . S
C1249 C1248 1.379 . S
C1249 H1259 0.930 . S
C1250 O1228 1.264 . S
C1250 O1229 1.254 . S
C1251 Eu1187 2.848 . S
C1251 O1226 1.257 . S
C1251 O1231 1.249 . S
C1251 C1244 1.492 . S
H1252 C1235 0.930 . S
H1253 C1236 0.930 . S
H1254 C1237 0.930 . S
H1255 C1238 0.930 . S
H1256 C1245 0.930 . S
H1257 C1247 0.930 . S
H1258 C1248 0.930 . S
H1259 C1249 0.930 . S
Eu1260 N1291 2.657 . S
Eu1260 N1298 2.609 . S
Eu1260 O1304 2.558 . S
Eu1260 O1305 2.612 1_554 S
Eu1260 O1307 2.339 1_554 S
Eu1260 O1308 2.563 1_554 S
Eu1260 O1309 2.419 . S
Eu1260 O1311 2.380 . S
Eu1260 O1312 2.432 . S
Eu1260 C1324 2.848 . S
C1261 C1264 1.429 . S
C1261 C1265 1.411 . S
C1261 N1268 1.377 . S
C1262 C1264 1.420 . S
C1262 C1266 1.423 . S
C1262 C1274 1.392 . S
C1263 C1265 1.420 . S
C1263 C1266 1.351 . S
C1263 H1286 0.931 . S
C1264 C1261 1.429 . S
C1264 C1262 1.420 . S
C1264 N1272 1.362 . S
C1265 C1261 1.411 . S
C1265 C1263 1.420 . S
C1265 C1270 1.395 . S
C1266 C1262 1.423 . S
C1266 C1263 1.351 . S
C1266 H1278 0.930 . S
C1267 C1269 1.400 . S
C1267 C1270 1.386 . S
C1267 H1279 0.930 . S
N1268 C1261 1.377 . S
N1268 C1269 1.321 . S
N1268 Eu1271 2.609 . S
C1269 C1267 1.400 . S
C1269 N1268 1.321 . S
C1269 H1276 0.930 . S
C1270 C1265 1.395 . S
C1270 C1267 1.386 . S
C1270 H1289 0.930 . S
Eu1271 N1268 2.609 . S
Eu1271 N1272 2.657 . S
Eu1271 O1305 2.380 . S
Eu1271 O1306 2.432 . S
Eu1271 O1310 2.558 . S
Eu1271 O1311 2.612 1_556 S
Eu1271 O1313 2.339 1_556 S
Eu1271 O1314 2.563 1_556 S
Eu1271 O1315 2.419 . S
Eu1271 C1335 2.848 . S
N1272 C1264 1.362 . S
N1272 Eu1271 2.657 . S
N1272 C1273 1.334 . S
C1273 N1272 1.334 . S
C1273 C1275 1.413 . S
C1273 H1280 0.929 . S
C1274 C1262 1.392 . S
C1274 C1275 1.367 . S
C1274 H1282 0.930 . S
C1275 C1273 1.413 . S
C1275 C1274 1.367 . S
C1275 H1277 0.930 . S
H1276 C1269 0.930 . S
H1277 C1275 0.930 . S
H1278 C1266 0.930 . S
H1279 C1267 0.930 . S
H1280 C1273 0.929 . S
H1281 C1295 0.930 . S
H1282 C1274 0.930 . S
H1283 C1301 0.930 . S
H1284 C1292 0.929 . S
H1285 C1299 0.930 . S
H1286 C1263 0.931 . S
H1287 C1293 0.930 . S
H1288 C1326 0.930 . S
H1289 C1270 0.930 . S
H1290 C1325 0.931 . S
N1291 Eu1260 2.657 . S
N1291 C1292 1.334 . S
N1291 C1296 1.362 . S
C1292 H1284 0.929 . S
C1292 N1291 1.334 . S
C1292 C1295 1.413 . S
C1293 H1287 0.930 . S
C1293 C1294 1.392 . S
C1293 C1295 1.367 . S
C1294 C1293 1.392 . S
C1294 C1296 1.420 . S
C1294 C1326 1.423 . S
C1295 H1281 0.930 . S
C1295 C1292 1.413 . S
C1295 C1293 1.367 . S
C1296 N1291 1.362 . S
C1296 C1294 1.420 . S
C1296 C1300 1.429 . S
H1297 C1302 0.930 . S
N1298 Eu1260 2.609 . S
N1298 C1300 1.377 . S
N1298 C1301 1.321 . S
C1299 H1285 0.930 . S
C1299 C1301 1.400 . S
C1299 C1302 1.386 . S
C1300 C1296 1.429 . S
C1300 N1298 1.377 . S
C1300 C1303 1.411 . S
C1301 H1283 0.930 . S
C1301 N1298 1.321 . S
C1301 C1299 1.400 . S
C1302 H1297 0.930 . S
C1302 C1299 1.386 . S
C1302 C1303 1.395 . S
C1303 C1300 1.411 . S
C1303 C1302 1.395 . S
C1303 C1325 1.420 . S
O1304 Eu1260 2.558 . S
O1304 C1324 1.257 . S
O1305 Eu1260 2.612 1_556 S
O1305 Eu1271 2.380 . S
O1305 C1316 1.276 . S
O1306 Eu1271 2.432 . S
O1306 C1323 1.264 . S
O1307 Eu1260 2.339 1_556 S
O1307 C1323 1.254 . S
O1308 Eu1260 2.563 1_556 S
O1308 C1316 1.235 . S
O1309 Eu1260 2.419 . S
O1309 C1324 1.249 . S
O1310 Eu1271 2.558 . S
O1310 C1335 1.257 . S
O1311 Eu1260 2.380 . S
O1311 Eu1271 2.612 1_554 S
O1311 C1327 1.276 . S
O1312 Eu1260 2.432 . S
O1312 C1334 1.264 . S
O1313 Eu1271 2.339 1_554 S
O1313 C1334 1.254 . S
O1314 Eu1271 2.563 1_554 S
O1314 C1327 1.235 . S
O1315 Eu1271 2.419 . S
O1315 C1335 1.249 . S
C1316 O1305 1.276 . S
C1316 O1308 1.235 . S
C1317 C1319 1.393 . S
C1317 C1321 1.395 . S
C1317 C1324 1.492 . S
C1318 C1319 1.392 . S
C1318 C1320 1.386 . S
C1319 C1317 1.393 . S
C1319 C1318 1.392 . S
C1319 H1336 0.930 . S
C1320 C1318 1.386 . S
C1320 C1322 1.395 . S
C1320 H1337 0.930 . S
C1321 C1317 1.395 . S
C1321 C1322 1.379 . S
C1321 H1338 0.930 . S
C1322 C1320 1.395 . S
C1322 C1321 1.379 . S
C1322 H1339 0.930 . S
C1323 O1306 1.264 . S
C1323 O1307 1.254 . S
C1324 Eu1260 2.848 . S
C1324 O1304 1.257 . S
C1324 O1309 1.249 . S
C1324 C1317 1.492 . S
C1325 H1290 0.931 . S
C1325 C1303 1.420 . S
C1325 C1326 1.351 . S
C1326 H1288 0.930 . S
C1326 C1294 1.423 . S
C1326 C1325 1.351 . S
C1327 O1311 1.276 . S
C1327 O1314 1.235 . S
C1328 C1329 1.393 . S
C1328 C1332 1.395 . S
C1328 C1335 1.492 . S
C1329 C1328 1.393 . S
C1329 C1330 1.392 . S
C1329 H1340 0.930 . S
C1330 C1329 1.392 . S
C1330 C1331 1.386 . S
C1331 C1330 1.386 . S
C1331 C1333 1.395 . S
C1331 H1341 0.930 . S
C1332 C1328 1.395 . S
C1332 C1333 1.379 . S
C1332 H1342 0.930 . S
C1333 C1331 1.395 . S
C1333 C1332 1.379 . S
C1333 H1343 0.930 . S
C1334 O1312 1.264 . S
C1334 O1313 1.254 . S
C1335 Eu1271 2.848 . S
C1335 O1310 1.257 . S
C1335 O1315 1.249 . S
C1335 C1328 1.492 . S
H1336 C1319 0.930 . S
H1337 C1320 0.930 . S
H1338 C1321 0.930 . S
H1339 C1322 0.930 . S
H1340 C1329 0.930 . S
H1341 C1331 0.930 . S
H1342 C1332 0.930 . S
H1343 C1333 0.930 . S
H1344 C1362 0.951 . S
H1345 C1364 0.951 . S
H1346 C1366 0.950 . S
H1347 C1367 0.950 . S
H1348 C1369 0.950 . S
H1349 C1372 0.950 . S
H1350 C1373 0.950 . S
H1351 C1375 0.950 . S
H1352 C1376 0.950 . S
H1353 C1377 0.951 . S
H1354 C1379 0.951 . S
H1355 C1381 0.950 . S
H1356 C1382 0.950 . S
H1357 C1384 0.950 . S
H1358 C1387 0.950 1_455 S
H1359 C1388 0.950 . S
H1360 C1390 0.950 . S
H1361 C1391 0.950 . S
C1362 H1344 0.951 . S
C1362 C1363 1.366 1_455 S
C1362 C1364 1.388 . S
C1363 C1362 1.366 1_655 S
C1363 C1367 1.385 . S
C1364 H1345 0.951 . S
C1364 C1362 1.388 . S
C1364 C1365 1.366 1_455 S
C1365 C1364 1.366 1_655 S
C1365 C1366 1.414 . S
C1365 C1368 1.498 1_655 S
C1366 H1346 0.950 . S
C1366 C1365 1.414 . S
C1366 C1367 1.374 . S
C1367 H1347 0.950 . S
C1367 C1363 1.385 . S
C1367 C1366 1.374 . S
C1368 C1365 1.498 1_455 S
C1368 C1369 1.373 1_455 S
C1368 C1370 1.391 . S
C1369 H1348 0.950 . S
C1369 C1368 1.373 1_655 S
C1369 C1385 1.377 . S
C1370 C1368 1.391 . S
C1370 C1371 1.524 . S
C1370 C1384 1.377 . S
C1371 C1370 1.524 . S
C1371 C1372 1.397 . S
C1371 C1376 1.363 . S
C1372 H1349 0.950 . S
C1372 C1371 1.397 . S
C1372 C1373 1.334 . S
C1373 H1350 0.950 . S
C1373 C1372 1.334 . S
C1373 C1374 1.287 . S
C1374 C1373 1.287 . S
C1374 C1375 1.524 . S
C1374 H1393 0.913 . S
C1375 H1351 0.950 . S
C1375 C1374 1.524 . S
C1375 C1376 1.415 . S
C1376 H1352 0.950 . S
C1376 C1371 1.363 . S
C1376 C1375 1.415 . S
C1377 H1353 0.951 . S
C1377 C1378 1.366 1_655 S
C1377 C1379 1.388 . S
C1378 C1377 1.366 1_455 S
C1378 C1382 1.385 . S
C1379 H1354 0.951 . S
C1379 C1377 1.388 . S
C1379 C1380 1.366 1_655 S
C1380 C1379 1.366 1_455 S
C1380 C1381 1.414 . S
C1380 C1383 1.499 . S
C1381 H1355 0.950 . S
C1381 C1380 1.414 . S
C1381 C1382 1.374 . S
C1382 H1356 0.950 . S
C1382 C1378 1.385 . S
C1382 C1381 1.374 . S
C1383 C1380 1.499 . S
C1383 C1384 1.373 . S
C1383 C1385 1.389 1_455 S
C1384 H1357 0.950 . S
C1384 C1370 1.377 . S
C1384 C1383 1.373 . S
C1385 C1369 1.377 . S
C1385 C1383 1.389 1_655 S
C1385 C1386 1.524 . S
C1386 C1385 1.524 . S
C1386 C1387 1.397 . S
C1386 C1391 1.363 . S
C1387 H1358 0.950 1_655 S
C1387 C1386 1.397 . S
C1387 C1388 1.334 . S
C1388 H1359 0.950 . S
C1388 C1387 1.334 . S
C1388 C1389 1.287 . S
C1389 C1388 1.287 . S
C1389 C1390 1.524 . S
C1389 H1392 0.999 . S
C1390 H1360 0.950 . S
C1390 C1389 1.524 . S
C1390 C1391 1.415 . S
C1391 H1361 0.950 . S
C1391 C1386 1.363 . S
C1391 C1390 1.415 . S
H1392 C1389 0.999 . S
H1393 C1374 0.913 . S
H1394 C1412 0.951 . S
H1395 C1414 0.951 . S
H1396 C1416 0.950 . S
H1397 C1417 0.950 . S
H1398 C1419 0.950 . S
H1399 C1422 0.950 . S
H1400 C1423 0.950 . S
H1401 C1425 0.950 . S
H1402 C1426 0.950 . S
H1403 C1427 0.951 . S
H1404 C1429 0.951 . S
H1405 C1431 0.950 . S
H1406 C1432 0.950 . S
H1407 C1434 0.950 . S
H1408 C1437 0.950 . S
H1409 C1438 0.950 . S
H1410 C1440 0.950 . S
H1411 C1441 0.950 . S
C1412 H1394 0.951 . S
C1412 C1413 1.366 . S
C1412 C1414 1.388 . S
C1413 C1412 1.366 . S
C1413 C1417 1.385 . S
C1414 H1395 0.951 . S
C1414 C1412 1.388 . S
C1414 C1415 1.366 . S
C1415 C1414 1.366 . S
C1415 C1416 1.414 . S
C1415 C1418 1.499 . S
C1416 H1396 0.950 . S
C1416 C1415 1.414 . S
C1416 C1417 1.374 . S
C1417 H1397 0.950 . S
C1417 C1413 1.385 . S
C1417 C1416 1.374 . S
C1418 C1415 1.499 . S
C1418 C1419 1.373 . S
C1418 C1420 1.389 . S
C1419 H1398 0.950 . S
C1419 C1418 1.373 . S
C1419 C1435 1.377 . S
C1420 C1418 1.389 . S
C1420 C1421 1.524 . S
C1420 C1434 1.377 . S
C1421 C1420 1.524 . S
C1421 C1422 1.397 . S
C1421 C1426 1.363 . S
C1422 H1399 0.950 . S
C1422 C1421 1.397 . S
C1422 C1423 1.334 . S
C1423 H1400 0.950 . S
C1423 C1422 1.334 . S
C1423 C1424 1.287 . S
C1424 C1423 1.287 . S
C1424 C1425 1.524 . S
C1424 H1443 0.913 . S
C1425 H1401 0.950 . S
C1425 C1424 1.524 . S
C1425 C1426 1.415 . S
C1426 H1402 0.950 . S
C1426 C1421 1.363 . S
C1426 C1425 1.415 . S
C1427 H1403 0.951 . S
C1427 C1428 1.366 . S
C1427 C1429 1.388 . S
C1428 C1427 1.366 . S
C1428 C1432 1.385 . S
C1429 H1404 0.951 . S
C1429 C1427 1.388 . S
C1429 C1430 1.366 . S
C1430 C1429 1.366 . S
C1430 C1431 1.414 . S
C1430 C1433 1.499 . S
C1431 H1405 0.950 . S
C1431 C1430 1.414 . S
C1431 C1432 1.374 . S
C1432 H1406 0.950 . S
C1432 C1428 1.385 . S
C1432 C1431 1.374 . S
C1433 C1430 1.499 . S
C1433 C1434 1.373 . S
C1433 C1435 1.389 . S
C1434 H1407 0.950 . S
C1434 C1420 1.377 . S
C1434 C1433 1.373 . S
C1435 C1419 1.377 . S
C1435 C1433 1.389 . S
C1435 C1436 1.524 . S
C1436 C1435 1.524 . S
C1436 C1437 1.397 . S
C1436 C1441 1.363 . S
C1437 H1408 0.950 . S
C1437 C1436 1.397 . S
C1437 C1438 1.334 . S
C1438 H1409 0.950 . S
C1438 C1437 1.334 . S
C1438 C1439 1.287 . S
C1439 C1438 1.287 . S
C1439 C1440 1.524 . S
C1439 H1442 0.999 . S
C1440 H1410 0.950 . S
C1440 C1439 1.524 . S
C1440 C1441 1.415 . S
C1441 H1411 0.950 . S
C1441 C1436 1.363 . S
C1441 C1440 1.415 . S
H1442 C1439 0.999 . S
H1443 C1424 0.913 . S
H1444 C1462 0.951 . S
H1445 C1464 0.951 . S
H1446 C1466 0.950 . S
H1447 C1467 0.950 . S
H1448 C1469 0.950 . S
H1449 C1472 0.950 . S
H1450 C1473 0.950 . S
H1451 C1475 0.950 . S
H1452 C1476 0.950 . S
H1453 C1477 0.951 . S
H1454 C1479 0.951 . S
H1455 C1481 0.950 . S
H1456 C1482 0.950 . S
H1457 C1484 0.950 . S
H1458 C1487 0.950 . S
H1459 C1488 0.950 . S
H1460 C1490 0.950 . S
H1461 C1491 0.950 . S
C1462 H1444 0.951 . S
C1462 C1463 1.366 . S
C1462 C1464 1.388 . S
C1463 C1462 1.366 . S
C1463 C1467 1.385 . S
C1464 H1445 0.951 . S
C1464 C1462 1.388 . S
C1464 C1465 1.366 . S
C1465 C1464 1.366 . S
C1465 C1466 1.414 . S
C1465 C1468 1.499 . S
C1466 H1446 0.950 . S
C1466 C1465 1.414 . S
C1466 C1467 1.374 . S
C1467 H1447 0.950 . S
C1467 C1463 1.385 . S
C1467 C1466 1.374 . S
C1468 C1465 1.499 . S
C1468 C1469 1.373 . S
C1468 C1470 1.389 . S
C1469 H1448 0.950 . S
C1469 C1468 1.373 . S
C1469 C1485 1.377 . S
C1470 C1468 1.389 . S
C1470 C1471 1.524 . S
C1470 C1484 1.377 . S
C1471 C1470 1.524 . S
C1471 C1472 1.397 . S
C1471 C1476 1.363 . S
C1472 H1449 0.950 . S
C1472 C1471 1.397 . S
C1472 C1473 1.334 . S
C1473 H1450 0.950 . S
C1473 C1472 1.334 . S
C1473 C1474 1.287 . S
C1474 C1473 1.287 . S
C1474 C1475 1.524 . S
C1474 H1493 0.913 . S
C1475 H1451 0.950 . S
C1475 C1474 1.524 . S
C1475 C1476 1.415 . S
C1476 H1452 0.950 . S
C1476 C1471 1.363 . S
C1476 C1475 1.415 . S
C1477 H1453 0.951 . S
C1477 C1478 1.366 . S
C1477 C1479 1.388 . S
C1478 C1477 1.366 . S
C1478 C1482 1.385 . S
C1479 H1454 0.951 . S
C1479 C1477 1.388 . S
C1479 C1480 1.366 . S
C1480 C1479 1.366 . S
C1480 C1481 1.414 . S
C1480 C1483 1.499 . S
C1481 H1455 0.950 . S
C1481 C1480 1.414 . S
C1481 C1482 1.374 . S
C1482 H1456 0.950 . S
C1482 C1478 1.385 . S
C1482 C1481 1.374 . S
C1483 C1480 1.499 . S
C1483 C1484 1.373 . S
C1483 C1485 1.389 . S
C1484 H1457 0.950 . S
C1484 C1470 1.377 . S
C1484 C1483 1.373 . S
C1485 C1469 1.377 . S
C1485 C1483 1.389 . S
C1485 C1486 1.524 . S
C1486 C1485 1.524 . S
C1486 C1487 1.397 . S
C1486 C1491 1.363 . S
C1487 H1458 0.950 . S
C1487 C1486 1.397 . S
C1487 C1488 1.334 . S
C1488 H1459 0.950 . S
C1488 C1487 1.334 . S
C1488 C1489 1.287 . S
C1489 C1488 1.287 . S
C1489 C1490 1.524 . S
C1489 H1492 0.999 . S
C1490 H1460 0.950 . S
C1490 C1489 1.524 . S
C1490 C1491 1.415 . S
C1491 H1461 0.950 . S
C1491 C1486 1.363 . S
C1491 C1490 1.415 . S
H1492 C1489 0.999 . S
H1493 C1474 0.913 . S
H1494 C1512 0.951 . S
H1495 C1514 0.951 . S
H1496 C1516 0.950 . S
H1497 C1517 0.950 . S
H1498 C1519 0.950 . S
H1499 C1522 0.950 . S
H1500 C1523 0.950 . S
H1501 C1525 0.927 1_554 S
H1502 C1526 0.950 . S
H1503 C1527 0.951 . S
H1504 C1529 0.951 . S
H1505 C1531 0.950 . S
H1506 C1532 0.950 . S
H1507 C1534 0.950 . S
H1508 C1537 0.950 . S
H1509 C1538 0.950 . S
H1510 C1540 0.950 . S
H1511 C1541 0.950 . S
C1512 H1494 0.951 . S
C1512 C1513 1.366 . S
C1512 C1514 1.388 . S
C1513 C1512 1.366 . S
C1513 C1517 1.385 . S
C1514 H1495 0.951 . S
C1514 C1512 1.388 . S
C1514 C1515 1.366 . S
C1515 C1514 1.366 . S
C1515 C1516 1.414 . S
C1515 C1518 1.503 . S
C1516 H1496 0.950 . S
C1516 C1515 1.414 . S
C1516 C1517 1.374 . S
C1517 H1497 0.950 . S
C1517 C1513 1.385 . S
C1517 C1516 1.374 . S
C1518 C1515 1.503 . S
C1518 C1519 1.378 . S
C1518 C1520 1.381 1_545 S
C1519 H1498 0.950 . S
C1519 C1518 1.378 . S
C1519 C1535 1.377 . S
C1520 C1518 1.381 1_565 S
C1520 C1521 1.524 . S
C1520 C1534 1.377 . S
C1521 C1520 1.524 . S
C1521 C1522 1.397 . S
C1521 C1526 1.363 . S
C1522 H1499 0.950 . S
C1522 C1521 1.397 . S
C1522 C1523 1.334 . S
C1523 H1500 0.950 . S
C1523 C1522 1.334 . S
C1523 C1524 1.287 . S
C1524 C1523 1.287 . S
C1524 C1525 1.524 . S
C1524 H1543 0.913 . S
C1525 H1501 0.927 1_556 S
C1525 C1524 1.524 . S
C1525 C1526 1.415 . S
C1526 H1502 0.950 . S
C1526 C1521 1.363 . S
C1526 C1525 1.415 . S
C1527 H1503 0.951 . S
C1527 C1528 1.366 . S
C1527 C1529 1.388 . S
C1528 C1527 1.366 . S
C1528 C1532 1.385 . S
C1529 H1504 0.951 . S
C1529 C1527 1.388 . S
C1529 C1530 1.366 . S
C1530 C1529 1.366 . S
C1530 C1531 1.414 . S
C1530 C1533 1.499 . S
C1531 H1505 0.950 . S
C1531 C1530 1.414 . S
C1531 C1532 1.374 . S
C1532 H1506 0.950 . S
C1532 C1528 1.385 . S
C1532 C1531 1.374 . S
C1533 C1530 1.499 . S
C1533 C1534 1.373 . S
C1533 C1535 1.389 1_565 S
C1534 H1507 0.950 . S
C1534 C1520 1.377 . S
C1534 C1533 1.373 . S
C1535 C1519 1.377 . S
C1535 C1533 1.389 1_545 S
C1535 C1536 1.524 . S
C1536 C1535 1.524 . S
C1536 C1537 1.397 . S
C1536 C1541 1.363 . S
C1537 H1508 0.950 . S
C1537 C1536 1.397 . S
C1537 C1538 1.334 . S
C1538 H1509 0.950 . S
C1538 C1537 1.334 . S
C1538 C1539 1.287 . S
C1539 C1538 1.287 . S
C1539 C1540 1.524 . S
C1539 H1542 0.999 . S
C1540 H1510 0.950 . S
C1540 C1539 1.524 . S
C1540 C1541 1.415 . S
C1541 H1511 0.950 . S
C1541 C1536 1.363 . S
C1541 C1540 1.415 . S
H1542 C1539 0.999 . S
H1543 C1524 0.913 . S
H1544 C1562 0.951 1_545 S
H1545 C1564 0.951 . S
H1546 C1566 0.950 . S
H1547 C1567 0.950 . S
H1548 C1569 0.950 . S
H1549 C1572 0.950 . S
H1550 C1573 0.950 . S
H1551 C1575 0.950 . S
H1552 C1576 0.950 . S
H1553 C1577 0.951 . S
H1554 C1579 0.951 1_565 S
H1555 C1581 0.950 . S
H1556 C1582 0.950 . S
H1557 C1584 0.950 . S
H1558 C1587 0.950 . S
H1559 C1588 0.950 . S
H1560 C1590 0.950 . S
H1561 C1591 0.950 . S
C1562 H1544 0.951 1_565 S
C1562 C1563 1.366 . S
C1562 C1564 1.388 1_565 S
C1563 C1562 1.366 . S
C1563 C1567 1.385 . S
C1564 H1545 0.951 . S
C1564 C1562 1.388 1_545 S
C1564 C1565 1.366 1_545 S
C1565 C1564 1.366 1_565 S
C1565 C1566 1.414 . S
C1565 C1568 1.505 . S
C1566 H1546 0.950 . S
C1566 C1565 1.414 . S
C1566 C1567 1.374 . S
C1567 H1547 0.950 . S
C1567 C1563 1.385 . S
C1567 C1566 1.374 . S
C1568 C1565 1.505 . S
C1568 C1569 1.381 . S
C1568 C1570 1.377 1_565 S
C1569 H1548 0.950 . S
C1569 C1568 1.381 . S
C1569 C1585 1.377 . S
C1570 C1568 1.377 1_545 S
C1570 C1571 1.524 . S
C1570 C1584 1.377 . S
C1571 C1570 1.524 . S
C1571 C1572 1.397 . S
C1571 C1576 1.363 . S
C1572 H1549 0.950 . S
C1572 C1571 1.397 . S
C1572 C1573 1.334 . S
C1573 H1550 0.950 . S
C1573 C1572 1.334 . S
C1573 C1574 1.287 . S
C1574 C1573 1.287 . S
C1574 C1575 1.524 . S
C1574 H1593 0.913 . S
C1575 H1551 0.950 . S
C1575 C1574 1.524 . S
C1575 C1576 1.415 . S
C1576 H1552 0.950 . S
C1576 C1571 1.363 . S
C1576 C1575 1.415 . S
C1577 H1553 0.951 . S
C1577 C1578 1.366 . S
C1577 C1579 1.388 . S
C1578 C1577 1.366 . S
C1578 C1582 1.385 . S
C1579 H1554 0.951 1_545 S
C1579 C1577 1.388 . S
C1579 C1580 1.366 . S
C1580 C1579 1.366 . S
C1580 C1581 1.414 . S
C1580 C1583 1.499 . S
C1581 H1555 0.950 . S
C1581 C1580 1.414 . S
C1581 C1582 1.374 . S
C1582 H1556 0.950 . S
C1582 C1578 1.385 . S
C1582 C1581 1.374 . S
C1583 C1580 1.499 . S
C1583 C1584 1.373 . S
C1583 C1585 1.389 1_545 S
C1584 H1557 0.950 . S
C1584 C1570 1.377 . S
C1584 C1583 1.373 . S
C1585 C1569 1.377 . S
C1585 C1583 1.389 1_565 S
C1585 C1586 1.524 . S
C1586 C1585 1.524 . S
C1586 C1587 1.397 . S
C1586 C1591 1.363 . S
C1587 H1558 0.950 . S
C1587 C1586 1.397 . S
C1587 C1588 1.334 . S
C1588 H1559 0.950 . S
C1588 C1587 1.334 . S
C1588 C1589 1.287 . S
C1589 C1588 1.287 . S
C1589 C1590 1.524 . S
C1589 H1592 0.999 . S
C1590 H1560 0.950 . S
C1590 C1589 1.524 . S
C1590 C1591 1.415 . S
C1591 H1561 0.950 . S
C1591 C1586 1.363 . S
C1591 C1590 1.415 . S
H1592 C1589 0.999 . S
H1593 C1574 0.913 . S
H1594 C1612 0.951 . S
H1595 C1614 0.951 . S
H1596 C1616 0.950 . S
H1597 C1617 0.950 . S
H1598 C1619 0.950 . S
H1599 C1622 0.950 . S
H1600 C1623 0.950 . S
H1601 C1625 0.950 . S
H1602 C1626 0.950 1_455 S
H1603 C1627 0.951 . S
H1604 C1629 0.951 . S
H1605 C1631 0.963 . S
H1606 C1632 0.950 1_455 S
H1607 C1634 0.950 . S
H1608 C1637 0.950 . S
H1609 C1638 0.950 . S
H1610 C1640 0.950 1_655 S
H1611 C1641 0.950 . S
C1612 H1594 0.951 . S
C1612 C1613 1.366 . S
C1612 C1614 1.388 . S
C1613 C1612 1.366 . S
C1613 C1617 1.385 1_455 S
C1614 H1595 0.951 . S
C1614 C1612 1.388 . S
C1614 C1615 1.366 . S
C1615 C1614 1.366 . S
C1615 C1616 1.414 1_455 S
C1615 C1618 1.499 1_455 S
C1616 H1596 0.950 . S
C1616 C1615 1.414 1_655 S
C1616 C1617 1.374 . S
C1617 H1597 0.950 . S
C1617 C1613 1.385 1_655 S
C1617 C1616 1.374 . S
C1618 C1615 1.499 1_655 S
C1618 C1619 1.373 1_655 S
C1618 C1620 1.389 . S
C1619 H1598 0.950 . S
C1619 C1618 1.373 1_455 S
C1619 C1635 1.388 . S
C1620 C1618 1.389 . S
C1620 C1621 1.524 . S
C1620 C1634 1.377 . S
C1621 C1620 1.524 . S
C1621 C1622 1.397 . S
C1621 C1626 1.363 . S
C1622 H1599 0.950 . S
C1622 C1621 1.397 . S
C1622 C1623 1.334 . S
C1623 H1600 0.950 . S
C1623 C1622 1.334 . S
C1623 C1624 1.287 . S
C1624 C1623 1.287 . S
C1624 C1625 1.524 . S
C1624 H1643 0.913 . S
C1625 H1601 0.950 . S
C1625 C1624 1.524 . S
C1625 C1626 1.415 . S
C1626 H1602 0.950 1_655 S
C1626 C1621 1.363 . S
C1626 C1625 1.415 . S
C1627 H1603 0.951 . S
C1627 C1628 1.366 . S
C1627 C1629 1.388 . S
C1628 C1627 1.366 . S
C1628 C1632 1.385 . S
C1629 H1604 0.951 . S
C1629 C1627 1.388 . S
C1629 C1630 1.366 . S
C1630 C1629 1.366 . S
C1630 C1631 1.410 1_655 S
C1630 C1633 1.499 . S
C1631 H1605 0.963 . S
C1631 C1630 1.410 1_455 S
C1631 C1632 1.366 1_455 S
C1632 H1606 0.950 1_655 S
C1632 C1628 1.385 . S
C1632 C1631 1.366 1_655 S
C1633 C1630 1.499 . S
C1633 C1634 1.373 . S
C1633 C1635 1.379 1_655 S
C1634 H1607 0.950 . S
C1634 C1620 1.377 . S
C1634 C1633 1.373 . S
C1635 C1619 1.388 . S
C1635 C1633 1.379 1_455 S
C1635 C1636 1.527 . S
C1636 C1635 1.527 . S
C1636 C1637 1.397 . S
C1636 C1641 1.363 1_455 S
C1637 H1608 0.950 . S
C1637 C1636 1.397 . S
C1637 C1638 1.334 . S
C1638 H1609 0.950 . S
C1638 C1637 1.334 . S
C1638 C1639 1.287 . S
C1639 C1638 1.287 . S
C1639 C1640 1.524 . S
C1639 H1642 0.999 . S
C1640 H1610 0.950 1_455 S
C1640 C1639 1.524 . S
C1640 C1641 1.415 1_455 S
C1641 H1611 0.950 . S
C1641 C1636 1.363 1_655 S
C1641 C1640 1.415 1_655 S
H1642 C1639 0.999 . S
H1643 C1624 0.913 . S
H1644 C1662 0.951 . S
H1645 C1664 0.951 . S
H1646 C1666 0.950 . S
H1647 C1667 0.950 . S
H1648 C1669 0.950 . S
H1649 C1672 0.950 . S
H1650 C1673 0.950 . S
H1651 C1675 0.950 . S
H1652 C1676 0.950 . S
H1653 C1677 0.951 . S
H1654 C1679 0.951 . S
H1655 C1681 0.950 . S
H1656 C1682 0.950 . S
H1657 C1684 0.950 . S
H1658 C1687 0.950 . S
H1659 C1688 0.950 . S
H1660 C1690 0.950 . S
H1661 C1691 0.950 . S
C1662 H1644 0.951 . S
C1662 C1663 1.366 . S
C1662 C1664 1.388 . S
C1663 C1662 1.366 . S
C1663 C1667 1.385 . S
C1664 H1645 0.951 . S
C1664 C1662 1.388 . S
C1664 C1665 1.366 . S
C1665 C1664 1.366 . S
C1665 C1666 1.414 . S
C1665 C1668 1.499 . S
C1666 H1646 0.950 . S
C1666 C1665 1.414 . S
C1666 C1667 1.374 . S
C1667 H1647 0.950 . S
C1667 C1663 1.385 . S
C1667 C1666 1.374 . S
C1668 C1665 1.499 . S
C1668 C1669 1.373 . S
C1668 C1670 1.389 . S
C1669 H1648 0.950 . S
C1669 C1668 1.373 . S
C1669 C1685 1.377 . S
C1670 C1668 1.389 . S
C1670 C1671 1.524 . S
C1670 C1684 1.377 . S
C1671 C1670 1.524 . S
C1671 C1672 1.397 . S
C1671 C1676 1.363 . S
C1672 H1649 0.950 . S
C1672 C1671 1.397 . S
C1672 C1673 1.334 . S
C1673 H1650 0.950 . S
C1673 C1672 1.334 . S
C1673 C1674 1.287 . S
C1674 C1673 1.287 . S
C1674 C1675 1.524 . S
C1674 H1693 0.913 . S
C1675 H1651 0.950 . S
C1675 C1674 1.524 . S
C1675 C1676 1.415 . S
C1676 H1652 0.950 . S
C1676 C1671 1.363 . S
C1676 C1675 1.415 . S
C1677 H1653 0.951 . S
C1677 C1678 1.366 . S
C1677 C1679 1.388 . S
C1678 C1677 1.366 . S
C1678 C1682 1.385 . S
C1679 H1654 0.951 . S
C1679 C1677 1.388 . S
C1679 C1680 1.366 . S
C1680 C1679 1.366 . S
C1680 C1681 1.414 . S
C1680 C1683 1.499 . S
C1681 H1655 0.950 . S
C1681 C1680 1.414 . S
C1681 C1682 1.374 . S
C1682 H1656 0.950 . S
C1682 C1678 1.385 . S
C1682 C1681 1.374 . S
C1683 C1680 1.499 . S
C1683 C1684 1.373 . S
C1683 C1685 1.389 . S
C1684 H1657 0.950 . S
C1684 C1670 1.377 . S
C1684 C1683 1.373 . S
C1685 C1669 1.377 . S
C1685 C1683 1.389 . S
C1685 C1686 1.524 . S
C1686 C1685 1.524 . S
C1686 C1687 1.397 . S
C1686 C1691 1.363 . S
C1687 H1658 0.950 . S
C1687 C1686 1.397 . S
C1687 C1688 1.334 . S
C1688 H1659 0.950 . S
C1688 C1687 1.334 . S
C1688 C1689 1.287 . S
C1689 C1688 1.287 . S
C1689 C1690 1.524 . S
C1689 H1692 0.999 . S
C1690 H1660 0.950 . S
C1690 C1689 1.524 . S
C1690 C1691 1.415 . S
C1691 H1661 0.950 . S
C1691 C1686 1.363 . S
C1691 C1690 1.415 . S
H1692 C1689 0.999 . S
H1693 C1674 0.913 . S
H1694 C1712 0.951 . S
H1695 C1714 0.951 . S
H1696 C1716 0.950 . S
H1697 C1717 0.950 . S
H1698 C1719 0.950 . S
H1699 C1722 0.950 . S
H1700 C1723 0.950 . S
H1701 C1725 0.950 . S
H1702 C1726 0.950 . S
H1703 C1727 0.951 . S
H1704 C1729 0.951 . S
H1705 C1731 0.950 . S
H1706 C1732 0.950 . S
H1707 C1734 0.950 . S
H1708 C1737 0.950 . S
H1709 C1738 0.950 . S
H1710 C1740 0.950 . S
H1711 C1741 0.950 . S
C1712 H1694 0.951 . S
C1712 C1713 1.366 . S
C1712 C1714 1.388 . S
C1713 C1712 1.366 . S
C1713 C1717 1.385 . S
C1714 H1695 0.951 . S
C1714 C1712 1.388 . S
C1714 C1715 1.366 . S
C1715 C1714 1.366 . S
C1715 C1716 1.414 . S
C1715 C1718 1.499 . S
C1716 H1696 0.950 . S
C1716 C1715 1.414 . S
C1716 C1717 1.374 . S
C1717 H1697 0.950 . S
C1717 C1713 1.385 . S
C1717 C1716 1.374 . S
C1718 C1715 1.499 . S
C1718 C1719 1.373 . S
C1718 C1720 1.389 . S
C1719 H1698 0.950 . S
C1719 C1718 1.373 . S
C1719 C1735 1.377 . S
C1720 C1718 1.389 . S
C1720 C1721 1.524 . S
C1720 C1734 1.377 . S
C1721 C1720 1.524 . S
C1721 C1722 1.397 . S
C1721 C1726 1.363 . S
C1722 H1699 0.950 . S
C1722 C1721 1.397 . S
C1722 C1723 1.334 . S
C1723 H1700 0.950 . S
C1723 C1722 1.334 . S
C1723 C1724 1.287 . S
C1724 C1723 1.287 . S
C1724 C1725 1.524 . S
C1724 H1743 0.913 . S
C1725 H1701 0.950 . S
C1725 C1724 1.524 . S
C1725 C1726 1.415 . S
C1726 H1702 0.950 . S
C1726 C1721 1.363 . S
C1726 C1725 1.415 . S
C1727 H1703 0.951 . S
C1727 C1728 1.366 . S
C1727 C1729 1.388 . S
C1728 C1727 1.366 . S
C1728 C1732 1.385 . S
C1729 H1704 0.951 . S
C1729 C1727 1.388 . S
C1729 C1730 1.366 . S
C1730 C1729 1.366 . S
C1730 C1731 1.414 . S
C1730 C1733 1.499 . S
C1731 H1705 0.950 . S
C1731 C1730 1.414 . S
C1731 C1732 1.374 . S
C1732 H1706 0.950 . S
C1732 C1728 1.385 . S
C1732 C1731 1.374 . S
C1733 C1730 1.499 . S
C1733 C1734 1.373 . S
C1733 C1735 1.389 . S
C1734 H1707 0.950 . S
C1734 C1720 1.377 . S
C1734 C1733 1.373 . S
C1735 C1719 1.377 . S
C1735 C1733 1.389 . S
C1735 C1736 1.524 . S
C1736 C1735 1.524 . S
C1736 C1737 1.397 . S
C1736 C1741 1.363 . S
C1737 H1708 0.950 . S
C1737 C1736 1.397 . S
C1737 C1738 1.334 . S
C1738 H1709 0.950 . S
C1738 C1737 1.334 . S
C1738 C1739 1.287 . S
C1739 C1738 1.287 . S
C1739 C1740 1.524 . S
C1739 H1742 0.999 . S
C1740 H1710 0.950 . S
C1740 C1739 1.524 . S
C1740 C1741 1.415 . S
C1741 H1711 0.950 . S
C1741 C1736 1.363 . S
C1741 C1740 1.415 . S
H1742 C1739 0.999 . S
H1743 C1724 0.913 . S
H1744 C1762 0.951 . S
H1745 C1764 0.951 . S
H1746 C1766 0.950 . S
H1747 C1767 0.950 . S
H1748 C1769 0.950 . S
H1749 C1772 0.950 . S
H1750 C1773 0.950 . S
H1751 C1775 0.950 . S
H1752 C1776 0.950 . S
H1753 C1777 0.951 . S
H1754 C1779 0.951 . S
H1755 C1781 0.950 . S
H1756 C1782 0.950 . S
H1757 C1784 0.950 . S
H1758 C1787 0.950 . S
H1759 C1788 0.950 . S
H1760 C1790 0.950 . S
H1761 C1791 0.950 . S
C1762 H1744 0.951 . S
C1762 C1763 1.366 . S
C1762 C1764 1.388 . S
C1763 C1762 1.366 . S
C1763 C1767 1.385 . S
C1764 H1745 0.951 . S
C1764 C1762 1.388 . S
C1764 C1765 1.366 . S
C1765 C1764 1.366 . S
C1765 C1766 1.414 . S
C1765 C1768 1.499 . S
C1766 H1746 0.950 . S
C1766 C1765 1.414 . S
C1766 C1767 1.374 . S
C1767 H1747 0.950 . S
C1767 C1763 1.385 . S
C1767 C1766 1.374 . S
C1768 C1765 1.499 . S
C1768 C1769 1.373 . S
C1768 C1770 1.389 . S
C1769 H1748 0.950 . S
C1769 C1768 1.373 . S
C1769 C1785 1.377 . S
C1770 C1768 1.389 . S
C1770 C1771 1.524 . S
C1770 C1784 1.377 . S
C1771 C1770 1.524 . S
C1771 C1772 1.397 . S
C1771 C1776 1.363 . S
C1772 H1749 0.950 . S
C1772 C1771 1.397 . S
C1772 C1773 1.334 . S
C1773 H1750 0.950 . S
C1773 C1772 1.334 . S
C1773 C1774 1.287 . S
C1774 C1773 1.287 . S
C1774 C1775 1.524 . S
C1774 H1793 0.913 . S
C1775 H1751 0.950 . S
C1775 C1774 1.524 . S
C1775 C1776 1.415 . S
C1776 H1752 0.950 . S
C1776 C1771 1.363 . S
C1776 C1775 1.415 . S
C1777 H1753 0.951 . S
C1777 C1778 1.366 . S
C1777 C1779 1.388 . S
C1778 C1777 1.366 . S
C1778 C1782 1.385 . S
C1779 H1754 0.951 . S
C1779 C1777 1.388 . S
C1779 C1780 1.366 . S
C1780 C1779 1.366 . S
C1780 C1781 1.414 . S
C1780 C1783 1.499 . S
C1781 H1755 0.950 . S
C1781 C1780 1.414 . S
C1781 C1782 1.374 . S
C1782 H1756 0.950 . S
C1782 C1778 1.385 . S
C1782 C1781 1.374 . S
C1783 C1780 1.499 . S
C1783 C1784 1.373 . S
C1783 C1785 1.389 . S
C1784 H1757 0.950 . S
C1784 C1770 1.377 . S
C1784 C1783 1.373 . S
C1785 C1769 1.377 . S
C1785 C1783 1.389 . S
C1785 C1786 1.524 . S
C1786 C1785 1.524 . S
C1786 C1787 1.397 . S
C1786 C1791 1.363 . S
C1787 H1758 0.950 . S
C1787 C1786 1.397 . S
C1787 C1788 1.334 . S
C1788 H1759 0.950 . S
C1788 C1787 1.334 . S
C1788 C1789 1.287 . S
C1789 C1788 1.287 . S
C1789 C1790 1.524 . S
C1789 H1792 0.999 . S
C1790 H1760 0.950 . S
C1790 C1789 1.524 . S
C1790 C1791 1.415 . S
C1791 H1761 0.950 . S
C1791 C1786 1.363 . S
C1791 C1790 1.415 . S
H1792 C1789 0.999 . S
H1793 C1774 0.913 . S
H1794 C1812 0.951 . S
H1795 C1814 0.951 . S
H1796 C1816 0.950 . S
H1797 C1817 0.950 . S
H1798 C1819 0.950 . S
H1799 C1822 0.950 . S
H1800 C1823 0.950 . S
H1801 C1825 0.950 . S
H1802 C1826 0.950 . S
H1803 C1827 0.951 . S
H1804 C1829 0.951 . S
H1805 C1831 0.950 . S
H1806 C1832 0.950 . S
H1807 C1834 0.950 . S
H1808 C1837 0.950 . S
H1809 C1838 0.950 . S
H1810 C1840 0.950 . S
H1811 C1841 0.950 . S
C1812 H1794 0.951 . S
C1812 C1813 1.366 . S
C1812 C1814 1.388 . S
C1813 C1812 1.366 . S
C1813 C1817 1.385 . S
C1814 H1795 0.951 . S
C1814 C1812 1.388 . S
C1814 C1815 1.366 . S
C1815 C1814 1.366 . S
C1815 C1816 1.414 . S
C1815 C1818 1.499 . S
C1816 H1796 0.950 . S
C1816 C1815 1.414 . S
C1816 C1817 1.374 . S
C1817 H1797 0.950 . S
C1817 C1813 1.385 . S
C1817 C1816 1.374 . S
C1818 C1815 1.499 . S
C1818 C1819 1.373 . S
C1818 C1820 1.389 . S
C1819 H1798 0.950 . S
C1819 C1818 1.373 . S
C1819 C1835 1.377 . S
C1820 C1818 1.389 . S
C1820 C1821 1.524 . S
C1820 C1834 1.377 . S
C1821 C1820 1.524 . S
C1821 C1822 1.397 . S
C1821 C1826 1.363 . S
C1822 H1799 0.950 . S
C1822 C1821 1.397 . S
C1822 C1823 1.334 . S
C1823 H1800 0.950 . S
C1823 C1822 1.334 . S
C1823 C1824 1.287 . S
C1824 C1823 1.287 . S
C1824 C1825 1.524 . S
C1824 H1843 0.913 . S
C1825 H1801 0.950 . S
C1825 C1824 1.524 . S
C1825 C1826 1.415 . S
C1826 H1802 0.950 . S
C1826 C1821 1.363 . S
C1826 C1825 1.415 . S
C1827 H1803 0.951 . S
C1827 C1828 1.366 . S
C1827 C1829 1.388 . S
C1828 C1827 1.366 . S
C1828 C1832 1.385 . S
C1829 H1804 0.951 . S
C1829 C1827 1.388 . S
C1829 C1830 1.366 . S
C1830 C1829 1.366 . S
C1830 C1831 1.414 . S
C1830 C1833 1.499 . S
C1831 H1805 0.950 . S
C1831 C1830 1.414 . S
C1831 C1832 1.374 . S
C1832 H1806 0.950 . S
C1832 C1828 1.385 . S
C1832 C1831 1.374 . S
C1833 C1830 1.499 . S
C1833 C1834 1.373 . S
C1833 C1835 1.389 . S
C1834 H1807 0.950 . S
C1834 C1820 1.377 . S
C1834 C1833 1.373 . S
C1835 C1819 1.377 . S
C1835 C1833 1.389 . S
C1835 C1836 1.524 . S
C1836 C1835 1.524 . S
C1836 C1837 1.397 . S
C1836 C1841 1.363 . S
C1837 H1808 0.950 . S
C1837 C1836 1.397 . S
C1837 C1838 1.334 . S
C1838 H1809 0.950 . S
C1838 C1837 1.334 . S
C1838 C1839 1.287 . S
C1839 C1838 1.287 . S
C1839 C1840 1.524 . S
C1839 H1842 0.999 . S
C1840 H1810 0.950 . S
C1840 C1839 1.524 . S
C1840 C1841 1.415 . S
C1841 H1811 0.950 . S
C1841 C1836 1.363 . S
C1841 C1840 1.415 . S
H1842 C1839 0.999 . S
H1843 C1824 0.913 . S
H1844 C1862 0.951 . S
H1845 C1864 0.951 . S
H1846 C1866 0.943 1_545 S
H1847 C1867 0.950 . S
H1848 C1869 0.950 . S
H1849 C1872 0.950 . S
H1850 C1873 0.950 . S
H1851 C1875 0.950 . S
H1852 C1876 0.950 . S
H1853 C1877 0.951 . S
H1854 C1879 0.951 . S
H1855 C1881 0.950 . S
H1856 C1882 0.950 . S
H1857 C1884 0.950 . S
H1858 C1887 0.950 . S
H1859 C1888 0.950 . S
H1860 C1890 0.950 . S
H1861 C1891 0.950 . S
C1862 H1844 0.951 . S
C1862 C1863 1.366 . S
C1862 C1864 1.388 . S
C1863 C1862 1.366 . S
C1863 C1867 1.385 . S
C1864 H1845 0.951 . S
C1864 C1862 1.388 . S
C1864 C1865 1.366 . S
C1865 C1864 1.366 . S
C1865 C1866 1.414 . S
C1865 C1868 1.499 . S
C1866 H1846 0.943 1_565 S
C1866 C1865 1.414 . S
C1866 C1867 1.374 . S
C1867 H1847 0.950 . S
C1867 C1863 1.385 . S
C1867 C1866 1.374 . S
C1868 C1865 1.499 . S
C1868 C1869 1.373 1_565 S
C1868 C1870 1.389 . S
C1869 H1848 0.950 . S
C1869 C1868 1.373 1_545 S
C1869 C1885 1.377 . S
C1870 C1868 1.389 . S
C1870 C1871 1.524 . S
C1870 C1884 1.377 . S
C1871 C1870 1.524 . S
C1871 C1872 1.397 . S
C1871 C1876 1.363 . S
C1872 H1849 0.950 . S
C1872 C1871 1.397 . S
C1872 C1873 1.334 . S
C1873 H1850 0.950 . S
C1873 C1872 1.334 . S
C1873 C1874 1.287 . S
C1874 C1873 1.287 . S
C1874 C1875 1.524 . S
C1874 H1893 0.913 . S
C1875 H1851 0.950 . S
C1875 C1874 1.524 . S
C1875 C1876 1.415 . S
C1876 H1852 0.950 . S
C1876 C1871 1.363 . S
C1876 C1875 1.415 . S
C1877 H1853 0.951 . S
C1877 C1878 1.366 . S
C1877 C1879 1.388 . S
C1878 C1877 1.366 . S
C1878 C1882 1.385 . S
C1879 H1854 0.951 . S
C1879 C1877 1.388 . S
C1879 C1880 1.366 . S
C1880 C1879 1.366 . S
C1880 C1881 1.414 . S
C1880 C1883 1.499 . S
C1881 H1855 0.950 . S
C1881 C1880 1.414 . S
C1881 C1882 1.374 . S
C1882 H1856 0.950 . S
C1882 C1878 1.385 . S
C1882 C1881 1.374 . S
C1883 C1880 1.499 . S
C1883 C1884 1.373 1_545 S
C1883 C1885 1.389 . S
C1884 H1857 0.950 . S
C1884 C1870 1.377 . S
C1884 C1883 1.373 1_565 S
C1885 C1869 1.377 . S
C1885 C1883 1.389 . S
C1885 C1886 1.524 . S
C1886 C1885 1.524 . S
C1886 C1887 1.397 . S
C1886 C1891 1.363 . S
C1887 H1858 0.950 . S
C1887 C1886 1.397 . S
C1887 C1888 1.334 . S
C1888 H1859 0.950 . S
C1888 C1887 1.334 . S
C1888 C1889 1.287 . S
C1889 C1888 1.287 . S
C1889 C1890 1.524 . S
C1889 H1892 0.999 . S
C1890 H1860 0.950 . S
C1890 C1889 1.524 . S
C1890 C1891 1.415 . S
C1891 H1861 0.950 . S
C1891 C1886 1.363 . S
C1891 C1890 1.415 . S
H1892 C1889 0.999 . S
H1893 C1874 0.913 . S
H1894 C1912 0.951 . S
H1895 C1914 0.951 . S
H1896 C1916 0.950 . S
H1897 C1917 0.950 . S
H1898 C1919 0.950 . S
H1899 C1922 0.950 . S
H1900 C1923 0.950 . S
H1901 C1925 0.950 . S
H1902 C1926 0.950 . S
H1903 C1927 0.951 . S
H1904 C1929 0.951 . S
H1905 C1931 0.950 . S
H1906 C1932 0.950 . S
H1907 C1934 0.950 . S
H1908 C1937 0.950 . S
H1909 C1938 0.950 . S
H1910 C1940 0.950 . S
H1911 C1941 0.950 . S
C1912 H1894 0.951 . S
C1912 C1913 1.366 . S
C1912 C1914 1.388 . S
C1913 C1912 1.366 . S
C1913 C1917 1.385 . S
C1914 H1895 0.951 . S
C1914 C1912 1.388 . S
C1914 C1915 1.366 . S
C1915 C1914 1.366 . S
C1915 C1916 1.414 . S
C1915 C1918 1.499 1_455 S
C1916 H1896 0.950 . S
C1916 C1915 1.414 . S
C1916 C1917 1.374 . S
C1917 H1897 0.950 . S
C1917 C1913 1.385 . S
C1917 C1916 1.374 . S
C1918 C1915 1.499 1_655 S
C1918 C1919 1.373 1_655 S
C1918 C1920 1.389 . S
C1919 H1898 0.950 . S
C1919 C1918 1.373 1_455 S
C1919 C1935 1.377 . S
C1920 C1918 1.389 . S
C1920 C1921 1.524 . S
C1920 C1934 1.377 . S
C1921 C1920 1.524 . S
C1921 C1922 1.397 . S
C1921 C1926 1.363 . S
C1922 H1899 0.950 . S
C1922 C1921 1.397 . S
C1922 C1923 1.334 . S
C1923 H1900 0.950 . S
C1923 C1922 1.334 . S
C1923 C1924 1.287 . S
C1924 C1923 1.287 . S
C1924 C1925 1.524 . S
C1924 H1943 0.913 . S
C1925 H1901 0.950 . S
C1925 C1924 1.524 . S
C1925 C1926 1.415 . S
C1926 H1902 0.950 . S
C1926 C1921 1.363 . S
C1926 C1925 1.415 . S
C1927 H1903 0.951 . S
C1927 C1928 1.366 . S
C1927 C1929 1.388 . S
C1928 C1927 1.366 . S
C1928 C1932 1.385 . S
C1929 H1904 0.951 . S
C1929 C1927 1.388 . S
C1929 C1930 1.366 . S
C1930 C1929 1.366 . S
C1930 C1931 1.414 . S
C1930 C1933 1.499 . S
C1931 H1905 0.950 . S
C1931 C1930 1.414 . S
C1931 C1932 1.374 . S
C1932 H1906 0.950 . S
C1932 C1928 1.385 . S
C1932 C1931 1.374 . S
C1933 C1930 1.499 . S
C1933 C1934 1.373 . S
C1933 C1935 1.389 1_655 S
C1934 H1907 0.950 . S
C1934 C1920 1.377 . S
C1934 C1933 1.373 . S
C1935 C1919 1.377 . S
C1935 C1933 1.389 1_455 S
C1935 C1936 1.524 . S
C1936 C1935 1.524 . S
C1936 C1937 1.397 . S
C1936 C1941 1.363 . S
C1937 H1908 0.950 . S
C1937 C1936 1.397 . S
C1937 C1938 1.334 . S
C1938 H1909 0.950 . S
C1938 C1937 1.334 . S
C1938 C1939 1.287 . S
C1939 C1938 1.287 . S
C1939 C1940 1.524 . S
C1939 H1942 0.999 . S
C1940 H1910 0.950 . S
C1940 C1939 1.524 . S
C1940 C1941 1.415 . S
C1941 H1911 0.950 . S
C1941 C1936 1.363 . S
C1941 C1940 1.415 . S
H1942 C1939 0.999 . S
H1943 C1924 0.913 . S
H1944 C1962 0.951 . S
H1945 C1964 0.951 . S
H1946 C1966 0.950 . S
H1947 C1967 0.950 . S
H1948 C1969 0.950 1_554 S
H1949 C1972 0.950 . S
H1950 C1973 0.950 . S
H1951 C1975 0.950 . S
H1952 C1976 0.950 . S
H1953 C1977 0.951 . S
H1954 C1979 0.951 . S
H1955 C1981 0.950 . S
H1956 C1982 0.943 1_554 S
H1957 C1984 0.950 . S
H1958 C1987 0.950 . S
H1959 C1988 0.950 . S
H1960 C1990 0.950 . S
H1961 C1991 0.950 . S
C1962 H1944 0.951 . S
C1962 C1963 1.366 . S
C1962 C1964 1.388 . S
C1963 C1962 1.366 . S
C1963 C1967 1.385 . S
C1964 H1945 0.951 . S
C1964 C1962 1.388 . S
C1964 C1965 1.366 . S
C1965 C1964 1.366 . S
C1965 C1966 1.414 . S
C1965 C1968 1.499 . S
C1966 H1946 0.950 . S
C1966 C1965 1.414 . S
C1966 C1967 1.374 . S
C1967 H1947 0.950 . S
C1967 C1963 1.385 . S
C1967 C1966 1.374 . S
C1968 C1965 1.499 . S
C1968 C1969 1.373 . S
C1968 C1970 1.389 . S
C1969 H1948 0.950 1_556 S
C1969 C1968 1.373 . S
C1969 C1985 1.377 1_556 S
C1970 C1968 1.389 . S
C1970 C1971 1.524 . S
C1970 C1984 1.377 . S
C1971 C1970 1.524 . S
C1971 C1972 1.397 . S
C1971 C1976 1.363 . S
C1972 H1949 0.950 . S
C1972 C1971 1.397 . S
C1972 C1973 1.334 . S
C1973 H1950 0.950 . S
C1973 C1972 1.334 . S
C1973 C1974 1.287 . S
C1974 C1973 1.287 . S
C1974 C1975 1.524 . S
C1974 H1993 0.913 . S
C1975 H1951 0.950 . S
C1975 C1974 1.524 . S
C1975 C1976 1.415 . S
C1976 H1952 0.950 . S
C1976 C1971 1.363 . S
C1976 C1975 1.415 . S
C1977 H1953 0.951 . S
C1977 C1978 1.366 . S
C1977 C1979 1.388 . S
C1978 C1977 1.366 . S
C1978 C1982 1.384 . S
C1979 H1954 0.951 . S
C1979 C1977 1.388 . S
C1979 C1980 1.366 . S
C1980 C1979 1.366 . S
C1980 C1981 1.414 . S
C1980 C1983 1.499 . S
C1981 H1955 0.950 . S
C1981 C1980 1.414 . S
C1981 C1982 1.382 . S
C1982 H1956 0.943 1_556 S
C1982 C1978 1.384 . S
C1982 C1981 1.382 . S
C1983 C1980 1.499 . S
C1983 C1984 1.373 . S
C1983 C1985 1.389 1_556 S
C1984 H1957 0.950 . S
C1984 C1970 1.377 . S
C1984 C1983 1.373 . S
C1985 C1969 1.377 1_554 S
C1985 C1983 1.389 1_554 S
C1985 C1986 1.524 . S
C1986 C1985 1.524 . S
C1986 C1987 1.397 . S
C1986 C1991 1.363 . S
C1987 H1958 0.950 . S
C1987 C1986 1.397 . S
C1987 C1988 1.334 . S
C1988 H1959 0.950 . S
C1988 C1987 1.334 . S
C1988 C1989 1.287 . S
C1989 C1988 1.287 . S
C1989 C1990 1.524 . S
C1989 H1992 0.999 . S
C1990 H1960 0.950 . S
C1990 C1989 1.524 . S
C1990 C1991 1.415 . S
C1991 H1961 0.950 . S
C1991 C1986 1.363 . S
C1991 C1990 1.415 . S
H1992 C1989 0.999 . S
H1993 C1974 0.913 . S
H1994 C2012 0.951 . S
H1995 C2014 0.951 . S
H1996 C2016 0.950 . S
H1997 C2017 0.950 . S
H1998 C2019 0.950 . S
H1999 C2022 0.950 . S
H2000 C2023 0.950 . S
H2001 C2025 0.950 . S
H2002 C2026 0.950 . S
H2003 C2027 0.951 . S
H2004 C2029 0.951 . S
H2005 C2031 0.950 . S
H2006 C2032 0.950 . S
H2007 C2034 0.950 . S
H2008 C2037 0.950 . S
H2009 C2038 0.950 . S
H2010 C2040 0.950 . S
H2011 C2041 0.950 . S
C2012 H1994 0.951 . S
C2012 C2013 1.366 . S
C2012 C2014 1.388 . S
C2013 C2012 1.366 . S
C2013 C2017 1.385 . S
C2014 H1995 0.951 . S
C2014 C2012 1.388 . S
C2014 C2015 1.366 . S
C2015 C2014 1.366 . S
C2015 C2016 1.414 . S
C2015 C2018 1.499 . S
C2016 H1996 0.950 . S
C2016 C2015 1.414 . S
C2016 C2017 1.374 . S
C2017 H1997 0.950 . S
C2017 C2013 1.385 . S
C2017 C2016 1.374 . S
C2018 C2015 1.499 . S
C2018 C2019 1.373 . S
C2018 C2020 1.389 . S
C2019 H1998 0.950 . S
C2019 C2018 1.373 . S
C2019 C2035 1.377 . S
C2020 C2018 1.389 . S
C2020 C2021 1.524 . S
C2020 C2034 1.377 . S
C2021 C2020 1.524 . S
C2021 C2022 1.397 . S
C2021 C2026 1.363 . S
C2022 H1999 0.950 . S
C2022 C2021 1.397 . S
C2022 C2023 1.334 . S
C2023 H2000 0.950 . S
C2023 C2022 1.334 . S
C2023 C2024 1.287 . S
C2024 C2023 1.287 . S
C2024 C2025 1.524 . S
C2024 H2043 0.913 . S
C2025 H2001 0.950 . S
C2025 C2024 1.524 . S
C2025 C2026 1.415 . S
C2026 H2002 0.950 . S
C2026 C2021 1.363 . S
C2026 C2025 1.415 . S
C2027 H2003 0.951 . S
C2027 C2028 1.366 . S
C2027 C2029 1.388 . S
C2028 C2027 1.366 . S
C2028 C2032 1.385 . S
C2029 H2004 0.951 . S
C2029 C2027 1.388 . S
C2029 C2030 1.366 . S
C2030 C2029 1.366 . S
C2030 C2031 1.414 . S
C2030 C2033 1.499 . S
C2031 H2005 0.950 . S
C2031 C2030 1.414 . S
C2031 C2032 1.374 . S
C2032 H2006 0.950 . S
C2032 C2028 1.385 . S
C2032 C2031 1.374 . S
C2033 C2030 1.499 . S
C2033 C2034 1.373 . S
C2033 C2035 1.389 . S
C2034 H2007 0.950 . S
C2034 C2020 1.377 . S
C2034 C2033 1.373 . S
C2035 C2019 1.377 . S
C2035 C2033 1.389 . S
C2035 C2036 1.524 . S
C2036 C2035 1.524 . S
C2036 C2037 1.397 . S
C2036 C2041 1.363 . S
C2037 H2008 0.950 . S
C2037 C2036 1.397 . S
C2037 C2038 1.334 . S
C2038 H2009 0.950 . S
C2038 C2037 1.334 . S
C2038 C2039 1.287 . S
C2039 C2038 1.287 . S
C2039 C2040 1.524 . S
C2039 H2042 0.999 . S
C2040 H2010 0.950 . S
C2040 C2039 1.524 . S
C2040 C2041 1.415 . S
C2041 H2011 0.950 . S
C2041 C2036 1.363 . S
C2041 C2040 1.415 . S
H2042 C2039 0.999 . S
H2043 C2024 0.913 . S
H2044 C2062 0.951 . S
H2045 C2064 0.951 . S
H2046 C2066 0.950 . S
H2047 C2067 0.950 . S
H2048 C2069 0.950 . S
H2049 C2072 0.950 . S
H2050 C2073 0.950 . S
H2051 C2075 0.950 . S
H2052 C2076 0.950 . S
H2053 C2077 0.951 . S
H2054 C2079 0.951 . S
H2055 C2081 0.950 . S
H2056 C2082 0.950 . S
H2057 C2084 0.950 . S
H2058 C2087 0.950 . S
H2059 C2088 0.950 . S
H2060 C2090 0.950 . S
H2061 C2091 0.950 . S
C2062 H2044 0.951 . S
C2062 C2063 1.366 . S
C2062 C2064 1.388 . S
C2063 C2062 1.366 . S
C2063 C2067 1.385 . S
C2064 H2045 0.951 . S
C2064 C2062 1.388 . S
C2064 C2065 1.366 . S
C2065 C2064 1.366 . S
C2065 C2066 1.414 . S
C2065 C2068 1.499 . S
C2066 H2046 0.950 . S
C2066 C2065 1.414 . S
C2066 C2067 1.374 . S
C2067 H2047 0.950 . S
C2067 C2063 1.385 . S
C2067 C2066 1.374 . S
C2068 C2065 1.499 . S
C2068 C2069 1.373 . S
C2068 C2070 1.389 . S
C2069 H2048 0.950 . S
C2069 C2068 1.373 . S
C2069 C2085 1.377 . S
C2070 C2068 1.389 . S
C2070 C2071 1.524 . S
C2070 C2084 1.377 . S
C2071 C2070 1.524 . S
C2071 C2072 1.397 . S
C2071 C2076 1.363 . S
C2072 H2049 0.950 . S
C2072 C2071 1.397 . S
C2072 C2073 1.334 . S
C2073 H2050 0.950 . S
C2073 C2072 1.334 . S
C2073 C2074 1.287 . S
C2074 C2073 1.287 . S
C2074 C2075 1.524 . S
C2074 H2093 0.913 . S
C2075 H2051 0.950 . S
C2075 C2074 1.524 . S
C2075 C2076 1.415 . S
C2076 H2052 0.950 . S
C2076 C2071 1.363 . S
C2076 C2075 1.415 . S
C2077 H2053 0.951 . S
C2077 C2078 1.366 . S
C2077 C2079 1.388 . S
C2078 C2077 1.366 . S
C2078 C2082 1.385 . S
C2079 H2054 0.951 . S
C2079 C2077 1.388 . S
C2079 C2080 1.366 . S
C2080 C2079 1.366 . S
C2080 C2081 1.414 . S
C2080 C2083 1.499 . S
C2081 H2055 0.950 . S
C2081 C2080 1.414 . S
C2081 C2082 1.374 . S
C2082 H2056 0.950 . S
C2082 C2078 1.385 . S
C2082 C2081 1.374 . S
C2083 C2080 1.499 . S
C2083 C2084 1.373 . S
C2083 C2085 1.389 . S
C2084 H2057 0.950 . S
C2084 C2070 1.377 . S
C2084 C2083 1.373 . S
C2085 C2069 1.377 . S
C2085 C2083 1.389 . S
C2085 C2086 1.524 . S
C2086 C2085 1.524 . S
C2086 C2087 1.397 . S
C2086 C2091 1.363 . S
C2087 H2058 0.950 . S
C2087 C2086 1.397 . S
C2087 C2088 1.334 . S
C2088 H2059 0.950 . S
C2088 C2087 1.334 . S
C2088 C2089 1.287 . S
C2089 C2088 1.287 . S
C2089 C2090 1.524 . S
C2089 H2092 0.999 . S
C2090 H2060 0.950 . S
C2090 C2089 1.524 . S
C2090 C2091 1.415 . S
C2091 H2061 0.950 . S
C2091 C2086 1.363 . S
C2091 C2090 1.415 . S
H2092 C2089 0.999 . S
H2093 C2074 0.913 . S
H2094 C2112 0.951 . S
H2095 C2114 0.951 . S
H2096 C2116 0.950 . S
H2097 C2117 0.950 . S
H2098 C2119 0.950 . S
H2099 C2122 0.950 . S
H2100 C2123 0.950 . S
H2101 C2125 0.950 . S
H2102 C2126 0.950 . S
H2103 C2127 0.951 . S
H2104 C2129 0.951 . S
H2105 C2131 0.950 . S
H2106 C2132 0.950 . S
H2107 C2134 0.950 . S
H2108 C2137 0.950 . S
H2109 C2138 0.950 . S
H2110 C2140 0.950 . S
H2111 C2141 0.950 . S
C2112 H2094 0.951 . S
C2112 C2113 1.366 . S
C2112 C2114 1.388 . S
C2113 C2112 1.366 . S
C2113 C2117 1.385 . S
C2114 H2095 0.951 . S
C2114 C2112 1.388 . S
C2114 C2115 1.366 . S
C2115 C2114 1.366 . S
C2115 C2116 1.414 . S
C2115 C2118 1.499 . S
C2116 H2096 0.950 . S
C2116 C2115 1.414 . S
C2116 C2117 1.374 . S
C2117 H2097 0.950 . S
C2117 C2113 1.385 . S
C2117 C2116 1.374 . S
C2118 C2115 1.499 . S
C2118 C2119 1.373 . S
C2118 C2120 1.389 . S
C2119 H2098 0.950 . S
C2119 C2118 1.373 . S
C2119 C2135 1.377 . S
C2120 C2118 1.389 . S
C2120 C2121 1.524 . S
C2120 C2134 1.377 . S
C2121 C2120 1.524 . S
C2121 C2122 1.397 . S
C2121 C2126 1.363 . S
C2122 H2099 0.950 . S
C2122 C2121 1.397 . S
C2122 C2123 1.334 . S
C2123 H2100 0.950 . S
C2123 C2122 1.334 . S
C2123 C2124 1.287 . S
C2124 C2123 1.287 . S
C2124 C2125 1.524 . S
C2124 H2143 0.913 . S
C2125 H2101 0.950 . S
C2125 C2124 1.524 . S
C2125 C2126 1.415 . S
C2126 H2102 0.950 . S
C2126 C2121 1.363 . S
C2126 C2125 1.415 . S
C2127 H2103 0.951 . S
C2127 C2128 1.366 . S
C2127 C2129 1.388 . S
C2128 C2127 1.366 . S
C2128 C2132 1.385 . S
C2129 H2104 0.951 . S
C2129 C2127 1.388 . S
C2129 C2130 1.366 . S
C2130 C2129 1.366 . S
C2130 C2131 1.414 . S
C2130 C2133 1.499 . S
C2131 H2105 0.950 . S
C2131 C2130 1.414 . S
C2131 C2132 1.374 . S
C2132 H2106 0.950 . S
C2132 C2128 1.385 . S
C2132 C2131 1.374 . S
C2133 C2130 1.499 . S
C2133 C2134 1.373 . S
C2133 C2135 1.389 . S
C2134 H2107 0.950 . S
C2134 C2120 1.377 . S
C2134 C2133 1.373 . S
C2135 C2119 1.377 . S
C2135 C2133 1.389 . S
C2135 C2136 1.524 . S
C2136 C2135 1.524 . S
C2136 C2137 1.397 . S
C2136 C2141 1.363 . S
C2137 H2108 0.950 . S
C2137 C2136 1.397 . S
C2137 C2138 1.334 . S
C2138 H2109 0.950 . S
C2138 C2137 1.334 . S
C2138 C2139 1.287 . S
C2139 C2138 1.287 . S
C2139 C2140 1.524 . S
C2139 H2142 0.999 . S
C2140 H2110 0.950 . S
C2140 C2139 1.524 . S
C2140 C2141 1.415 . S
C2141 H2111 0.950 . S
C2141 C2136 1.363 . S
C2141 C2140 1.415 . S
H2142 C2139 0.999 . S
H2143 C2124 0.913 . S
H2144 C2162 0.951 . S
H2145 C2164 0.951 . S
H2146 C2166 0.950 . S
H2147 C2167 0.950 . S
H2148 C2169 0.950 . S
H2149 C2172 0.950 . S
H2150 C2173 0.950 . S
H2151 C2175 0.950 . S
H2152 C2176 0.950 . S
H2153 C2177 0.951 . S
H2154 C2179 0.951 . S
H2155 C2181 0.950 . S
H2156 C2182 0.950 . S
H2157 C2184 0.950 . S
H2158 C2187 0.950 . S
H2159 C2188 0.950 . S
H2160 C2190 0.950 . S
H2161 C2191 0.950 . S
C2162 H2144 0.951 . S
C2162 C2163 1.366 . S
C2162 C2164 1.388 . S
C2163 C2162 1.366 . S
C2163 C2167 1.385 . S
C2164 H2145 0.951 . S
C2164 C2162 1.388 . S
C2164 C2165 1.366 . S
C2165 C2164 1.366 . S
C2165 C2166 1.414 . S
C2165 C2168 1.499 . S
C2166 H2146 0.950 . S
C2166 C2165 1.414 . S
C2166 C2167 1.374 . S
C2167 H2147 0.950 . S
C2167 C2163 1.385 . S
C2167 C2166 1.374 . S
C2168 C2165 1.499 . S
C2168 C2169 1.373 . S
C2168 C2170 1.389 . S
C2169 H2148 0.950 . S
C2169 C2168 1.373 . S
C2169 C2185 1.377 . S
C2170 C2168 1.389 . S
C2170 C2171 1.524 . S
C2170 C2184 1.377 . S
C2171 C2170 1.524 . S
C2171 C2172 1.397 . S
C2171 C2176 1.363 . S
C2172 H2149 0.950 . S
C2172 C2171 1.397 . S
C2172 C2173 1.334 . S
C2173 H2150 0.950 . S
C2173 C2172 1.334 . S
C2173 C2174 1.287 . S
C2174 C2173 1.287 . S
C2174 C2175 1.524 . S
C2174 H2193 0.913 . S
C2175 H2151 0.950 . S
C2175 C2174 1.524 . S
C2175 C2176 1.415 . S
C2176 H2152 0.950 . S
C2176 C2171 1.363 . S
C2176 C2175 1.415 . S
C2177 H2153 0.951 . S
C2177 C2178 1.366 . S
C2177 C2179 1.388 . S
C2178 C2177 1.366 . S
C2178 C2182 1.385 . S
C2179 H2154 0.951 . S
C2179 C2177 1.388 . S
C2179 C2180 1.366 . S
C2180 C2179 1.366 . S
C2180 C2181 1.414 . S
C2180 C2183 1.499 . S
C2181 H2155 0.950 . S
C2181 C2180 1.414 . S
C2181 C2182 1.374 . S
C2182 H2156 0.950 . S
C2182 C2178 1.385 . S
C2182 C2181 1.374 . S
C2183 C2180 1.499 . S
C2183 C2184 1.373 . S
C2183 C2185 1.389 . S
C2184 H2157 0.950 . S
C2184 C2170 1.377 . S
C2184 C2183 1.373 . S
C2185 C2169 1.377 . S
C2185 C2183 1.389 . S
C2185 C2186 1.524 . S
C2186 C2185 1.524 . S
C2186 C2187 1.397 . S
C2186 C2191 1.363 . S
C2187 H2158 0.950 . S
C2187 C2186 1.397 . S
C2187 C2188 1.334 . S
C2188 H2159 0.950 . S
C2188 C2187 1.334 . S
C2188 C2189 1.287 . S
C2189 C2188 1.287 . S
C2189 C2190 1.524 . S
C2189 H2192 0.999 . S
C2190 H2160 0.950 . S
C2190 C2189 1.524 . S
C2190 C2191 1.415 . S
C2191 H2161 0.950 . S
C2191 C2186 1.363 . S
C2191 C2190 1.415 . S
H2192 C2189 0.999 . S
H2193 C2174 0.913 . S
H2194 C2212 0.951 . S
H2195 C2214 0.951 . S
H2196 C2216 0.950 . S
H2197 C2217 0.950 . S
H2198 C2219 0.950 . S
H2199 C2222 0.950 . S
H2200 C2223 0.950 . S
H2201 C2225 0.950 . S
H2202 C2226 0.950 . S
H2203 C2227 0.951 . S
H2204 C2229 0.951 . S
H2205 C2231 0.950 . S
H2206 C2232 0.950 . S
H2207 C2234 0.950 . S
H2208 C2237 0.950 . S
H2209 C2238 0.950 . S
H2210 C2240 0.950 . S
H2211 C2241 0.950 . S
C2212 H2194 0.951 . S
C2212 C2213 1.366 . S
C2212 C2214 1.388 . S
C2213 C2212 1.366 . S
C2213 C2217 1.385 . S
C2214 H2195 0.951 . S
C2214 C2212 1.388 . S
C2214 C2215 1.366 . S
C2215 C2214 1.366 . S
C2215 C2216 1.414 . S
C2215 C2218 1.499 . S
C2216 H2196 0.950 . S
C2216 C2215 1.414 . S
C2216 C2217 1.374 . S
C2217 H2197 0.950 . S
C2217 C2213 1.385 . S
C2217 C2216 1.374 . S
C2218 C2215 1.499 . S
C2218 C2219 1.373 . S
C2218 C2220 1.389 . S
C2219 H2198 0.950 . S
C2219 C2218 1.373 . S
C2219 C2235 1.377 . S
C2220 C2218 1.389 . S
C2220 C2221 1.524 . S
C2220 C2234 1.377 . S
C2221 C2220 1.524 . S
C2221 C2222 1.397 . S
C2221 C2226 1.363 . S
C2222 H2199 0.950 . S
C2222 C2221 1.397 . S
C2222 C2223 1.334 . S
C2223 H2200 0.950 . S
C2223 C2222 1.334 . S
C2223 C2224 1.287 . S
C2224 C2223 1.287 . S
C2224 C2225 1.524 . S
C2224 H2243 0.913 . S
C2225 H2201 0.950 . S
C2225 C2224 1.524 . S
C2225 C2226 1.415 . S
C2226 H2202 0.950 . S
C2226 C2221 1.363 . S
C2226 C2225 1.415 . S
C2227 H2203 0.951 . S
C2227 C2228 1.366 . S
C2227 C2229 1.388 . S
C2228 C2227 1.366 . S
C2228 C2232 1.385 . S
C2229 H2204 0.951 . S
C2229 C2227 1.388 . S
C2229 C2230 1.366 . S
C2230 C2229 1.366 . S
C2230 C2231 1.414 . S
C2230 C2233 1.499 . S
C2231 H2205 0.950 . S
C2231 C2230 1.414 . S
C2231 C2232 1.374 . S
C2232 H2206 0.950 . S
C2232 C2228 1.385 . S
C2232 C2231 1.374 . S
C2233 C2230 1.499 . S
C2233 C2234 1.373 . S
C2233 C2235 1.389 . S
C2234 H2207 0.950 . S
C2234 C2220 1.377 . S
C2234 C2233 1.373 . S
C2235 C2219 1.377 . S
C2235 C2233 1.389 . S
C2235 C2236 1.524 . S
C2236 C2235 1.524 . S
C2236 C2237 1.397 . S
C2236 C2241 1.363 . S
C2237 H2208 0.950 . S
C2237 C2236 1.397 . S
C2237 C2238 1.334 . S
C2238 H2209 0.950 . S
C2238 C2237 1.334 . S
C2238 C2239 1.287 . S
C2239 C2238 1.287 . S
C2239 C2240 1.524 . S
C2239 H2242 0.999 . S
C2240 H2210 0.950 . S
C2240 C2239 1.524 . S
C2240 C2241 1.415 . S
C2241 H2211 0.950 . S
C2241 C2236 1.363 . S
C2241 C2240 1.415 . S
H2242 C2239 0.999 . S
H2243 C2224 0.913 . S
H2244 C2262 0.951 . S
H2245 C2264 0.951 . S
H2246 C2266 0.950 . S
H2247 C2267 0.950 . S
H2248 C2269 0.950 . S
H2249 C2272 0.950 . S
H2250 C2273 0.950 . S
H2251 C2275 0.950 . S
H2252 C2276 0.950 . S
H2253 C2277 0.951 . S
H2254 C2279 0.951 . S
H2255 C2281 0.950 . S
H2256 C2282 0.950 . S
H2257 C2284 0.950 . S
H2258 C2287 0.950 . S
H2259 C2288 0.950 . S
H2260 C2290 0.950 . S
H2261 C2291 0.950 . S
C2262 H2244 0.951 . S
C2262 C2263 1.366 . S
C2262 C2264 1.388 . S
C2263 C2262 1.366 . S
C2263 C2267 1.385 . S
C2264 H2245 0.951 . S
C2264 C2262 1.388 . S
C2264 C2265 1.366 . S
C2265 C2264 1.366 . S
C2265 C2266 1.414 . S
C2265 C2268 1.499 . S
C2266 H2246 0.950 . S
C2266 C2265 1.414 . S
C2266 C2267 1.374 . S
C2267 H2247 0.950 . S
C2267 C2263 1.385 . S
C2267 C2266 1.374 . S
C2268 C2265 1.499 . S
C2268 C2269 1.373 . S
C2268 C2270 1.389 . S
C2269 H2248 0.950 . S
C2269 C2268 1.373 . S
C2269 C2285 1.377 . S
C2270 C2268 1.389 . S
C2270 C2271 1.524 . S
C2270 C2284 1.377 . S
C2271 C2270 1.524 . S
C2271 C2272 1.397 . S
C2271 C2276 1.363 . S
C2272 H2249 0.950 . S
C2272 C2271 1.397 . S
C2272 C2273 1.334 . S
C2273 H2250 0.950 . S
C2273 C2272 1.334 . S
C2273 C2274 1.287 . S
C2274 C2273 1.287 . S
C2274 C2275 1.524 . S
C2274 H2293 0.913 . S
C2275 H2251 0.950 . S
C2275 C2274 1.524 . S
C2275 C2276 1.415 . S
C2276 H2252 0.950 . S
C2276 C2271 1.363 . S
C2276 C2275 1.415 . S
C2277 H2253 0.951 . S
C2277 C2278 1.366 . S
C2277 C2279 1.388 . S
C2278 C2277 1.366 . S
C2278 C2282 1.385 . S
C2279 H2254 0.951 . S
C2279 C2277 1.388 . S
C2279 C2280 1.366 . S
C2280 C2279 1.366 . S
C2280 C2281 1.414 . S
C2280 C2283 1.499 . S
C2281 H2255 0.950 . S
C2281 C2280 1.414 . S
C2281 C2282 1.374 . S
C2282 H2256 0.950 . S
C2282 C2278 1.385 . S
C2282 C2281 1.374 . S
C2283 C2280 1.499 . S
C2283 C2284 1.373 . S
C2283 C2285 1.389 . S
C2284 H2257 0.950 . S
C2284 C2270 1.377 . S
C2284 C2283 1.373 . S
C2285 C2269 1.377 . S
C2285 C2283 1.389 . S
C2285 C2286 1.524 . S
C2286 C2285 1.524 . S
C2286 C2287 1.397 . S
C2286 C2291 1.363 . S
C2287 H2258 0.950 . S
C2287 C2286 1.397 . S
C2287 C2288 1.334 . S
C2288 H2259 0.950 . S
C2288 C2287 1.334 . S
C2288 C2289 1.287 . S
C2289 C2288 1.287 . S
C2289 C2290 1.524 . S
C2289 H2292 0.999 . S
C2290 H2260 0.950 . S
C2290 C2289 1.524 . S
C2290 C2291 1.415 . S
C2291 H2261 0.950 . S
C2291 C2286 1.363 . S
C2291 C2290 1.415 . S
H2292 C2289 0.999 . S
H2293 C2274 0.913 . S
H2294 C2312 0.951 . S
H2295 C2314 0.951 . S
H2296 C2316 0.950 . S
H2297 C2317 0.950 . S
H2298 C2319 0.950 . S
H2299 C2322 0.950 . S
H2300 C2323 0.950 . S
H2301 C2325 0.950 . S
H2302 C2326 0.950 . S
H2303 C2327 0.951 . S
H2304 C2329 0.951 . S
H2305 C2331 0.950 . S
H2306 C2332 0.950 . S
H2307 C2334 0.950 . S
H2308 C2337 0.950 . S
H2309 C2338 0.950 . S
H2310 C2340 0.950 . S
H2311 C2341 0.950 . S
C2312 H2294 0.951 . S
C2312 C2313 1.366 . S
C2312 C2314 1.388 . S
C2313 C2312 1.366 . S
C2313 C2317 1.385 . S
C2314 H2295 0.951 . S
C2314 C2312 1.388 . S
C2314 C2315 1.366 . S
C2315 C2314 1.366 . S
C2315 C2316 1.414 . S
C2315 C2318 1.499 . S
C2316 H2296 0.950 . S
C2316 C2315 1.414 . S
C2316 C2317 1.374 . S
C2317 H2297 0.950 . S
C2317 C2313 1.385 . S
C2317 C2316 1.374 . S
C2318 C2315 1.499 . S
C2318 C2319 1.373 . S
C2318 C2320 1.389 . S
C2319 H2298 0.950 . S
C2319 C2318 1.373 . S
C2319 C2335 1.377 . S
C2320 C2318 1.389 . S
C2320 C2321 1.524 . S
C2320 C2334 1.377 . S
C2321 C2320 1.524 . S
C2321 C2322 1.397 . S
C2321 C2326 1.363 . S
C2322 H2299 0.950 . S
C2322 C2321 1.397 . S
C2322 C2323 1.334 . S
C2323 H2300 0.950 . S
C2323 C2322 1.334 . S
C2323 C2324 1.287 . S
C2324 C2323 1.287 . S
C2324 C2325 1.524 . S
C2324 H2343 0.913 . S
C2325 H2301 0.950 . S
C2325 C2324 1.524 . S
C2325 C2326 1.415 . S
C2326 H2302 0.950 . S
C2326 C2321 1.363 . S
C2326 C2325 1.415 . S
C2327 H2303 0.951 . S
C2327 C2328 1.366 . S
C2327 C2329 1.388 . S
C2328 C2327 1.366 . S
C2328 C2332 1.385 . S
C2329 H2304 0.951 . S
C2329 C2327 1.388 . S
C2329 C2330 1.366 . S
C2330 C2329 1.366 . S
C2330 C2331 1.414 . S
C2330 C2333 1.499 . S
C2331 H2305 0.950 . S
C2331 C2330 1.414 . S
C2331 C2332 1.374 . S
C2332 H2306 0.950 . S
C2332 C2328 1.385 . S
C2332 C2331 1.374 . S
C2333 C2330 1.499 . S
C2333 C2334 1.373 . S
C2333 C2335 1.389 . S
C2334 H2307 0.950 . S
C2334 C2320 1.377 . S
C2334 C2333 1.373 . S
C2335 C2319 1.377 . S
C2335 C2333 1.389 . S
C2335 C2336 1.524 . S
C2336 C2335 1.524 . S
C2336 C2337 1.397 . S
C2336 C2341 1.363 . S
C2337 H2308 0.950 . S
C2337 C2336 1.397 . S
C2337 C2338 1.334 . S
C2338 H2309 0.950 . S
C2338 C2337 1.334 . S
C2338 C2339 1.287 . S
C2339 C2338 1.287 . S
C2339 C2340 1.524 . S
C2339 H2342 0.999 . S
C2340 H2310 0.950 . S
C2340 C2339 1.524 . S
C2340 C2341 1.415 . S
C2341 H2311 0.950 . S
C2341 C2336 1.363 . S
C2341 C2340 1.415 . S
H2342 C2339 0.999 . S
H2343 C2324 0.913 . S
H2344 C2362 0.951 . S
H2345 C2364 0.951 . S
H2346 C2366 0.950 . S
H2347 C2367 0.950 . S
H2348 C2369 0.950 . S
H2349 C2372 0.950 . S
H2350 C2373 0.950 . S
H2351 C2375 0.950 . S
H2352 C2376 0.950 . S
H2353 C2377 0.951 . S
H2354 C2379 0.951 . S
H2355 C2381 0.950 . S
H2356 C2382 0.950 . S
H2357 C2384 0.950 . S
H2358 C2387 0.950 . S
H2359 C2388 0.950 . S
H2360 C2390 0.950 . S
H2361 C2391 0.950 . S
C2362 H2344 0.951 . S
C2362 C2363 1.366 . S
C2362 C2364 1.388 . S
C2363 C2362 1.366 . S
C2363 C2367 1.385 . S
C2364 H2345 0.951 . S
C2364 C2362 1.388 . S
C2364 C2365 1.366 . S
C2365 C2364 1.366 . S
C2365 C2366 1.414 . S
C2365 C2368 1.499 . S
C2366 H2346 0.950 . S
C2366 C2365 1.414 . S
C2366 C2367 1.374 . S
C2367 H2347 0.950 . S
C2367 C2363 1.385 . S
C2367 C2366 1.374 . S
C2368 C2365 1.499 . S
C2368 C2369 1.373 . S
C2368 C2370 1.389 . S
C2369 H2348 0.950 . S
C2369 C2368 1.373 . S
C2369 C2385 1.377 . S
C2370 C2368 1.389 . S
C2370 C2371 1.524 . S
C2370 C2384 1.377 . S
C2371 C2370 1.524 . S
C2371 C2372 1.397 . S
C2371 C2376 1.363 . S
C2372 H2349 0.950 . S
C2372 C2371 1.397 . S
C2372 C2373 1.334 . S
C2373 H2350 0.950 . S
C2373 C2372 1.334 . S
C2373 C2374 1.287 . S
C2374 C2373 1.287 . S
C2374 C2375 1.524 . S
C2374 H2393 0.913 . S
C2375 H2351 0.950 . S
C2375 C2374 1.524 . S
C2375 C2376 1.415 . S
C2376 H2352 0.950 . S
C2376 C2371 1.363 . S
C2376 C2375 1.415 . S
C2377 H2353 0.951 . S
C2377 C2378 1.366 . S
C2377 C2379 1.388 . S
C2378 C2377 1.366 . S
C2378 C2382 1.385 . S
C2379 H2354 0.951 . S
C2379 C2377 1.388 . S
C2379 C2380 1.366 . S
C2380 C2379 1.366 . S
C2380 C2381 1.414 . S
C2380 C2383 1.499 . S
C2381 H2355 0.950 . S
C2381 C2380 1.414 . S
C2381 C2382 1.374 . S
C2382 H2356 0.950 . S
C2382 C2378 1.385 . S
C2382 C2381 1.374 . S
C2383 C2380 1.499 . S
C2383 C2384 1.373 . S
C2383 C2385 1.389 . S
C2384 H2357 0.950 . S
C2384 C2370 1.377 . S
C2384 C2383 1.373 . S
C2385 C2369 1.377 . S
C2385 C2383 1.389 . S
C2385 C2386 1.524 . S
C2386 C2385 1.524 . S
C2386 C2387 1.397 . S
C2386 C2391 1.363 . S
C2387 H2358 0.950 . S
C2387 C2386 1.397 . S
C2387 C2388 1.334 . S
C2388 H2359 0.950 . S
C2388 C2387 1.334 . S
C2388 C2389 1.287 . S
C2389 C2388 1.287 . S
C2389 C2390 1.524 . S
C2389 H2392 0.999 . S
C2390 H2360 0.950 . S
C2390 C2389 1.524 . S
C2390 C2391 1.415 . S
C2391 H2361 0.950 . S
C2391 C2386 1.363 . S
C2391 C2390 1.415 . S
H2392 C2389 0.999 . S
H2393 C2374 0.913 . S
H2394 C2412 0.951 . S
H2395 C2414 0.951 . S
H2396 C2416 0.950 . S
H2397 C2417 0.950 . S
H2398 C2419 0.950 . S
H2399 C2422 0.950 . S
H2400 C2423 0.950 . S
H2401 C2425 0.950 . S
H2402 C2426 0.950 . S
H2403 C2427 0.951 . S
H2404 C2429 0.957 . S
H2405 C2431 0.950 . S
H2406 C2432 0.950 . S
H2407 C2434 0.950 . S
H2408 C2437 0.950 . S
H2409 C2438 0.950 . S
H2410 C2440 0.950 . S
H2411 C2441 0.950 . S
C2412 H2394 0.951 . S
C2412 C2413 1.366 . S
C2412 C2414 1.388 . S
C2413 C2412 1.366 . S
C2413 C2417 1.385 . S
C2414 H2395 0.951 . S
C2414 C2412 1.388 . S
C2414 C2415 1.366 . S
C2415 C2414 1.366 . S
C2415 C2416 1.414 . S
C2415 C2418 1.499 . S
C2416 H2396 0.950 . S
C2416 C2415 1.414 . S
C2416 C2417 1.374 . S
C2417 H2397 0.950 . S
C2417 C2413 1.385 . S
C2417 C2416 1.374 . S
C2418 C2415 1.499 . S
C2418 C2419 1.373 1_455 S
C2418 C2420 1.389 . S
C2419 H2398 0.950 . S
C2419 C2418 1.373 1_655 S
C2419 C2435 1.377 . S
C2420 C2418 1.389 . S
C2420 C2421 1.524 . S
C2420 C2434 1.377 . S
C2421 C2420 1.524 . S
C2421 C2422 1.397 . S
C2421 C2426 1.363 . S
C2422 H2399 0.950 . S
C2422 C2421 1.397 . S
C2422 C2423 1.334 . S
C2423 H2400 0.950 . S
C2423 C2422 1.334 . S
C2423 C2424 1.287 . S
C2424 C2423 1.287 . S
C2424 C2425 1.524 . S
C2424 H2443 0.913 . S
C2425 H2401 0.950 . S
C2425 C2424 1.524 . S
C2425 C2426 1.415 . S
C2426 H2402 0.950 . S
C2426 C2421 1.363 . S
C2426 C2425 1.415 . S
C2427 H2403 0.951 . S
C2427 C2428 1.366 . S
C2427 C2429 1.388 . S
C2428 C2427 1.366 . S
C2428 C2432 1.385 . S
C2429 H2404 0.957 . S
C2429 C2427 1.388 . S
C2429 C2430 1.366 . S
C2430 C2429 1.366 . S
C2430 C2431 1.414 . S
C2430 C2433 1.514 . S
C2431 H2405 0.950 . S
C2431 C2430 1.414 . S
C2431 C2432 1.374 . S
C2432 H2406 0.950 . S
C2432 C2428 1.385 . S
C2432 C2431 1.374 . S
C2433 C2430 1.514 . S
C2433 C2434 1.348 1_655 S
C2433 C2435 1.398 . S
C2434 H2407 0.950 . S
C2434 C2420 1.377 . S
C2434 C2433 1.348 1_455 S
C2435 C2419 1.377 . S
C2435 C2433 1.398 . S
C2435 C2436 1.524 . S
C2436 C2435 1.524 . S
C2436 C2437 1.397 . S
C2436 C2441 1.363 . S
C2437 H2408 0.950 . S
C2437 C2436 1.397 . S
C2437 C2438 1.334 . S
C2438 H2409 0.950 . S
C2438 C2437 1.334 . S
C2438 C2439 1.287 . S
C2439 C2438 1.287 . S
C2439 C2440 1.524 . S
C2439 H2442 0.999 . S
C2440 H2410 0.950 . S
C2440 C2439 1.524 . S
C2440 C2441 1.415 . S
C2441 H2411 0.950 . S
C2441 C2436 1.363 . S
C2441 C2440 1.415 . S
H2442 C2439 0.999 . S
H2443 C2424 0.913 . S
H2444 C2462 0.951 . S
H2445 C2464 0.951 . S
H2446 C2466 0.950 . S
H2447 C2467 0.950 . S
H2448 C2469 0.950 . S
H2449 C2472 0.950 . S
H2450 C2473 0.950 . S
H2451 C2475 0.950 . S
H2452 C2476 0.950 . S
H2453 C2477 0.951 . S
H2454 C2479 0.951 . S
H2455 C2481 0.950 . S
H2456 C2482 0.950 . S
H2457 C2484 0.950 . S
H2458 C2487 0.950 . S
H2459 C2488 0.950 . S
H2460 C2490 0.950 . S
H2461 C2491 0.950 . S
C2462 H2444 0.951 . S
C2462 C2463 1.366 . S
C2462 C2464 1.388 . S
C2463 C2462 1.366 . S
C2463 C2467 1.385 . S
C2464 H2445 0.951 . S
C2464 C2462 1.388 . S
C2464 C2465 1.366 . S
C2465 C2464 1.366 . S
C2465 C2466 1.414 . S
C2465 C2468 1.499 . S
C2466 H2446 0.950 . S
C2466 C2465 1.414 . S
C2466 C2467 1.374 . S
C2467 H2447 0.950 . S
C2467 C2463 1.385 . S
C2467 C2466 1.374 . S
C2468 C2465 1.499 . S
C2468 C2469 1.373 . S
C2468 C2470 1.389 . S
C2469 H2448 0.950 . S
C2469 C2468 1.373 . S
C2469 C2485 1.377 . S
C2470 C2468 1.389 . S
C2470 C2471 1.524 . S
C2470 C2484 1.377 . S
C2471 C2470 1.524 . S
C2471 C2472 1.397 . S
C2471 C2476 1.363 . S
C2472 H2449 0.950 . S
C2472 C2471 1.397 . S
C2472 C2473 1.334 . S
C2473 H2450 0.950 . S
C2473 C2472 1.334 . S
C2473 C2474 1.287 . S
C2474 C2473 1.287 . S
C2474 C2475 1.524 . S
C2474 H2493 0.913 . S
C2475 H2451 0.950 . S
C2475 C2474 1.524 . S
C2475 C2476 1.415 . S
C2476 H2452 0.950 . S
C2476 C2471 1.363 . S
C2476 C2475 1.415 . S
C2477 H2453 0.951 . S
C2477 C2478 1.366 . S
C2477 C2479 1.388 . S
C2478 C2477 1.366 . S
C2478 C2482 1.385 . S
C2479 H2454 0.951 . S
C2479 C2477 1.388 . S
C2479 C2480 1.366 . S
C2480 C2479 1.366 . S
C2480 C2481 1.414 . S
C2480 C2483 1.499 . S
C2481 H2455 0.950 . S
C2481 C2480 1.414 . S
C2481 C2482 1.374 . S
C2482 H2456 0.950 . S
C2482 C2478 1.385 . S
C2482 C2481 1.374 . S
C2483 C2480 1.499 . S
C2483 C2484 1.373 . S
C2483 C2485 1.389 . S
C2484 H2457 0.950 . S
C2484 C2470 1.377 . S
C2484 C2483 1.373 . S
C2485 C2469 1.377 . S
C2485 C2483 1.389 . S
C2485 C2486 1.524 . S
C2486 C2485 1.524 . S
C2486 C2487 1.397 . S
C2486 C2491 1.363 . S
C2487 H2458 0.950 . S
C2487 C2486 1.397 . S
C2487 C2488 1.334 . S
C2488 H2459 0.950 . S
C2488 C2487 1.334 . S
C2488 C2489 1.287 . S
C2489 C2488 1.287 . S
C2489 C2490 1.524 . S
C2489 H2492 0.999 . S
C2490 H2460 0.950 . S
C2490 C2489 1.524 . S
C2490 C2491 1.415 . S
C2491 H2461 0.950 . S
C2491 C2486 1.363 . S
C2491 C2490 1.415 . S
H2492 C2489 0.999 . S
H2493 C2474 0.913 . S
H2494 C2512 0.951 . S
H2495 C2514 0.951 . S
H2496 C2516 0.950 . S
H2497 C2517 0.950 . S
H2498 C2519 0.950 . S
H2499 C2522 0.950 . S
H2500 C2523 0.950 . S
H2501 C2525 0.950 . S
H2502 C2526 0.950 . S
H2503 C2527 0.951 . S
H2504 C2529 0.951 . S
H2505 C2531 0.950 . S
H2506 C2532 0.950 . S
H2507 C2534 0.950 . S
H2508 C2537 0.950 . S
H2509 C2538 0.950 . S
H2510 C2540 0.950 . S
H2511 C2541 0.950 . S
C2512 H2494 0.951 . S
C2512 C2513 1.366 . S
C2512 C2514 1.388 . S
C2513 C2512 1.366 . S
C2513 C2517 1.385 . S
C2514 H2495 0.951 . S
C2514 C2512 1.388 . S
C2514 C2515 1.366 . S
C2515 C2514 1.366 . S
C2515 C2516 1.414 . S
C2515 C2518 1.499 . S
C2516 H2496 0.950 . S
C2516 C2515 1.414 . S
C2516 C2517 1.374 . S
C2517 H2497 0.950 . S
C2517 C2513 1.385 . S
C2517 C2516 1.374 . S
C2518 C2515 1.499 . S
C2518 C2519 1.373 . S
C2518 C2520 1.389 . S
C2519 H2498 0.950 . S
C2519 C2518 1.373 . S
C2519 C2535 1.377 . S
C2520 C2518 1.389 . S
C2520 C2521 1.524 . S
C2520 C2534 1.377 . S
C2521 C2520 1.524 . S
C2521 C2522 1.397 . S
C2521 C2526 1.363 . S
C2522 H2499 0.950 . S
C2522 C2521 1.397 . S
C2522 C2523 1.334 . S
C2523 H2500 0.950 . S
C2523 C2522 1.334 . S
C2523 C2524 1.287 . S
C2524 C2523 1.287 . S
C2524 C2525 1.524 . S
C2524 H2543 0.913 . S
C2525 H2501 0.950 . S
C2525 C2524 1.524 . S
C2525 C2526 1.415 . S
C2526 H2502 0.950 . S
C2526 C2521 1.363 . S
C2526 C2525 1.415 . S
C2527 H2503 0.951 . S
C2527 C2528 1.366 . S
C2527 C2529 1.388 . S
C2528 C2527 1.366 . S
C2528 C2532 1.385 . S
C2529 H2504 0.951 . S
C2529 C2527 1.388 . S
C2529 C2530 1.366 . S
C2530 C2529 1.366 . S
C2530 C2531 1.414 . S
C2530 C2533 1.499 . S
C2531 H2505 0.950 . S
C2531 C2530 1.414 . S
C2531 C2532 1.374 . S
C2532 H2506 0.950 . S
C2532 C2528 1.385 . S
C2532 C2531 1.374 . S
C2533 C2530 1.499 . S
C2533 C2534 1.373 . S
C2533 C2535 1.389 . S
C2534 H2507 0.950 . S
C2534 C2520 1.377 . S
C2534 C2533 1.373 . S
C2535 C2519 1.377 . S
C2535 C2533 1.389 . S
C2535 C2536 1.524 . S
C2536 C2535 1.524 . S
C2536 C2537 1.397 . S
C2536 C2541 1.363 . S
C2537 H2508 0.950 . S
C2537 C2536 1.397 . S
C2537 C2538 1.334 . S
C2538 H2509 0.950 . S
C2538 C2537 1.334 . S
C2538 C2539 1.287 . S
C2539 C2538 1.287 . S
C2539 C2540 1.524 . S
C2539 H2542 0.999 . S
C2540 H2510 0.950 . S
C2540 C2539 1.524 . S
C2540 C2541 1.415 . S
C2541 H2511 0.950 . S
C2541 C2536 1.363 . S
C2541 C2540 1.415 . S
H2542 C2539 0.999 . S
H2543 C2524 0.913 . S
H2544 C2562 0.951 . S
H2545 C2564 0.951 . S
H2546 C2566 0.950 . S
H2547 C2567 0.950 . S
H2548 C2569 0.950 . S
H2549 C2572 0.950 . S
H2550 C2573 0.950 . S
H2551 C2575 0.950 . S
H2552 C2576 0.950 . S
H2553 C2577 0.951 . S
H2554 C2579 0.951 . S
H2555 C2581 0.950 . S
H2556 C2582 0.950 . S
H2557 C2584 0.950 . S
H2558 C2587 0.950 . S
H2559 C2588 0.950 . S
H2560 C2590 0.950 . S
H2561 C2591 0.950 . S
C2562 H2544 0.951 . S
C2562 C2563 1.366 . S
C2562 C2564 1.388 . S
C2563 C2562 1.366 . S
C2563 C2567 1.385 . S
C2564 H2545 0.951 . S
C2564 C2562 1.388 . S
C2564 C2565 1.366 . S
C2565 C2564 1.366 . S
C2565 C2566 1.414 . S
C2565 C2568 1.499 . S
C2566 H2546 0.950 . S
C2566 C2565 1.414 . S
C2566 C2567 1.374 . S
C2567 H2547 0.950 . S
C2567 C2563 1.385 . S
C2567 C2566 1.374 . S
C2568 C2565 1.499 . S
C2568 C2569 1.373 . S
C2568 C2570 1.389 . S
C2569 H2548 0.950 . S
C2569 C2568 1.373 . S
C2569 C2585 1.377 . S
C2570 C2568 1.389 . S
C2570 C2571 1.524 . S
C2570 C2584 1.377 . S
C2571 C2570 1.524 . S
C2571 C2572 1.397 . S
C2571 C2576 1.363 . S
C2572 H2549 0.950 . S
C2572 C2571 1.397 . S
C2572 C2573 1.334 . S
C2573 H2550 0.950 . S
C2573 C2572 1.334 . S
C2573 C2574 1.287 . S
C2574 C2573 1.287 . S
C2574 C2575 1.524 . S
C2574 H2593 0.913 . S
C2575 H2551 0.950 . S
C2575 C2574 1.524 . S
C2575 C2576 1.415 . S
C2576 H2552 0.950 . S
C2576 C2571 1.363 . S
C2576 C2575 1.415 . S
C2577 H2553 0.951 . S
C2577 C2578 1.366 . S
C2577 C2579 1.388 . S
C2578 C2577 1.366 . S
C2578 C2582 1.385 . S
C2579 H2554 0.951 . S
C2579 C2577 1.388 . S
C2579 C2580 1.366 . S
C2580 C2579 1.366 . S
C2580 C2581 1.414 . S
C2580 C2583 1.499 . S
C2581 H2555 0.950 . S
C2581 C2580 1.414 . S
C2581 C2582 1.374 . S
C2582 H2556 0.950 . S
C2582 C2578 1.385 . S
C2582 C2581 1.374 . S
C2583 C2580 1.499 . S
C2583 C2584 1.373 . S
C2583 C2585 1.389 . S
C2584 H2557 0.950 . S
C2584 C2570 1.377 . S
C2584 C2583 1.373 . S
C2585 C2569 1.377 . S
C2585 C2583 1.389 . S
C2585 C2586 1.524 . S
C2586 C2585 1.524 . S
C2586 C2587 1.397 . S
C2586 C2591 1.363 . S
C2587 H2558 0.950 . S
C2587 C2586 1.397 . S
C2587 C2588 1.334 . S
C2588 H2559 0.950 . S
C2588 C2587 1.334 . S
C2588 C2589 1.287 . S
C2589 C2588 1.287 . S
C2589 C2590 1.524 . S
C2589 H2592 0.999 . S
C2590 H2560 0.950 . S
C2590 C2589 1.524 . S
C2590 C2591 1.415 . S
C2591 H2561 0.950 . S
C2591 C2586 1.363 . S
C2591 C2590 1.415 . S
H2592 C2589 0.999 . S
H2593 C2574 0.913 . S
H2594 C2612 0.951 . S
H2595 C2614 0.951 . S
H2596 C2616 0.950 . S
H2597 C2617 0.950 . S
H2598 C2619 0.950 . S
H2599 C2622 0.950 . S
H2600 C2623 0.950 . S
H2601 C2625 0.950 . S
H2602 C2626 0.950 . S
H2603 C2627 0.951 . S
H2604 C2629 0.951 . S
H2605 C2631 0.950 . S
H2606 C2632 0.950 . S
H2607 C2634 0.950 . S
H2608 C2637 0.950 . S
H2609 C2638 0.950 . S
H2610 C2640 0.950 . S
H2611 C2641 0.950 . S
C2612 H2594 0.951 . S
C2612 C2613 1.366 . S
C2612 C2614 1.388 . S
C2613 C2612 1.366 . S
C2613 C2617 1.385 . S
C2614 H2595 0.951 . S
C2614 C2612 1.388 . S
C2614 C2615 1.366 . S
C2615 C2614 1.366 . S
C2615 C2616 1.414 . S
C2615 C2618 1.499 . S
C2616 H2596 0.950 . S
C2616 C2615 1.414 . S
C2616 C2617 1.374 . S
C2617 H2597 0.950 . S
C2617 C2613 1.385 . S
C2617 C2616 1.374 . S
C2618 C2615 1.499 . S
C2618 C2619 1.373 . S
C2618 C2620 1.389 . S
C2619 H2598 0.950 . S
C2619 C2618 1.373 . S
C2619 C2635 1.377 . S
C2620 C2618 1.389 . S
C2620 C2621 1.524 . S
C2620 C2634 1.377 . S
C2621 C2620 1.524 . S
C2621 C2622 1.397 . S
C2621 C2626 1.363 . S
C2622 H2599 0.950 . S
C2622 C2621 1.397 . S
C2622 C2623 1.334 . S
C2623 H2600 0.950 . S
C2623 C2622 1.334 . S
C2623 C2624 1.287 . S
C2624 C2623 1.287 . S
C2624 C2625 1.524 . S
C2624 H2643 0.913 . S
C2625 H2601 0.950 . S
C2625 C2624 1.524 . S
C2625 C2626 1.415 . S
C2626 H2602 0.950 . S
C2626 C2621 1.363 . S
C2626 C2625 1.415 . S
C2627 H2603 0.951 . S
C2627 C2628 1.366 . S
C2627 C2629 1.388 . S
C2628 C2627 1.366 . S
C2628 C2632 1.385 . S
C2629 H2604 0.951 . S
C2629 C2627 1.388 . S
C2629 C2630 1.366 . S
C2630 C2629 1.366 . S
C2630 C2631 1.414 . S
C2630 C2633 1.499 . S
C2631 H2605 0.950 . S
C2631 C2630 1.414 . S
C2631 C2632 1.374 . S
C2632 H2606 0.950 . S
C2632 C2628 1.385 . S
C2632 C2631 1.374 . S
C2633 C2630 1.499 . S
C2633 C2634 1.373 . S
C2633 C2635 1.389 . S
C2634 H2607 0.950 . S
C2634 C2620 1.377 . S
C2634 C2633 1.373 . S
C2635 C2619 1.377 . S
C2635 C2633 1.389 . S
C2635 C2636 1.524 . S
C2636 C2635 1.524 . S
C2636 C2637 1.397 . S
C2636 C2641 1.363 . S
C2637 H2608 0.950 . S
C2637 C2636 1.397 . S
C2637 C2638 1.334 . S
C2638 H2609 0.950 . S
C2638 C2637 1.334 . S
C2638 C2639 1.287 . S
C2639 C2638 1.287 . S
C2639 C2640 1.524 . S
C2639 H2642 0.999 . S
C2640 H2610 0.950 . S
C2640 C2639 1.524 . S
C2640 C2641 1.415 . S
C2641 H2611 0.950 . S
C2641 C2636 1.363 . S
C2641 C2640 1.415 . S
H2642 C2639 0.999 . S
H2643 C2624 0.913 . S
H2644 C2662 0.951 . S
H2645 C2664 0.951 . S
H2646 C2666 0.950 . S
H2647 C2667 0.950 . S
H2648 C2669 0.950 . S
H2649 C2672 0.950 . S
H2650 C2673 0.950 . S
H2651 C2675 0.950 . S
H2652 C2676 0.950 . S
H2653 C2677 0.951 . S
H2654 C2679 0.951 . S
H2655 C2681 0.950 . S
H2656 C2682 0.950 . S
H2657 C2684 0.950 . S
H2658 C2687 0.950 . S
H2659 C2688 0.950 . S
H2660 C2690 0.950 . S
H2661 C2691 0.950 . S
C2662 H2644 0.951 . S
C2662 C2663 1.366 1_545 S
C2662 C2664 1.388 . S
C2663 C2662 1.366 1_565 S
C2663 C2667 1.385 . S
C2664 H2645 0.951 . S
C2664 C2662 1.388 . S
C2664 C2665 1.366 1_545 S
C2665 C2664 1.366 1_565 S
C2665 C2666 1.414 . S
C2665 C2668 1.499 . S
C2666 H2646 0.950 . S
C2666 C2665 1.414 . S
C2666 C2667 1.374 . S
C2667 H2647 0.950 . S
C2667 C2663 1.385 . S
C2667 C2666 1.374 . S
C2668 C2665 1.499 . S
C2668 C2669 1.373 . S
C2668 C2670 1.389 1_565 S
C2669 H2648 0.950 . S
C2669 C2668 1.373 . S
C2669 C2685 1.377 . S
C2670 C2668 1.389 1_545 S
C2670 C2671 1.524 . S
C2670 C2684 1.377 . S
C2671 C2670 1.524 . S
C2671 C2672 1.397 . S
C2671 C2676 1.363 . S
C2672 H2649 0.950 . S
C2672 C2671 1.397 . S
C2672 C2673 1.334 . S
C2673 H2650 0.950 . S
C2673 C2672 1.334 . S
C2673 C2674 1.287 . S
C2674 C2673 1.287 . S
C2674 C2675 1.524 . S
C2674 H2693 0.913 . S
C2675 H2651 0.950 . S
C2675 C2674 1.524 . S
C2675 C2676 1.415 . S
C2676 H2652 0.950 . S
C2676 C2671 1.363 . S
C2676 C2675 1.415 . S
C2677 H2653 0.951 . S
C2677 C2678 1.366 1_565 S
C2677 C2679 1.388 . S
C2678 C2677 1.366 1_545 S
C2678 C2682 1.385 . S
C2679 H2654 0.951 . S
C2679 C2677 1.388 . S
C2679 C2680 1.366 1_565 S
C2680 C2679 1.366 1_545 S
C2680 C2681 1.414 . S
C2680 C2683 1.499 . S
C2681 H2655 0.950 . S
C2681 C2680 1.414 . S
C2681 C2682 1.374 . S
C2682 H2656 0.950 . S
C2682 C2678 1.385 . S
C2682 C2681 1.374 . S
C2683 C2680 1.499 . S
C2683 C2684 1.373 . S
C2683 C2685 1.389 1_545 S
C2684 H2657 0.950 . S
C2684 C2670 1.377 . S
C2684 C2683 1.373 . S
C2685 C2669 1.377 . S
C2685 C2683 1.389 1_565 S
C2685 C2686 1.524 . S
C2686 C2685 1.524 . S
C2686 C2687 1.397 . S
C2686 C2691 1.363 . S
C2687 H2658 0.950 . S
C2687 C2686 1.397 . S
C2687 C2688 1.334 . S
C2688 H2659 0.950 . S
C2688 C2687 1.334 . S
C2688 C2689 1.287 . S
C2689 C2688 1.287 . S
C2689 C2690 1.524 . S
C2689 H2692 0.999 . S
C2690 H2660 0.950 . S
C2690 C2689 1.524 . S
C2690 C2691 1.415 . S
C2691 H2661 0.950 . S
C2691 C2686 1.363 . S
C2691 C2690 1.415 . S
H2692 C2689 0.999 . S
H2693 C2674 0.913 . S
H2694 C2712 0.951 . S
H2695 C2714 0.951 . S
H2696 C2716 0.950 . S
H2697 C2717 0.950 . S
H2698 C2719 0.950 1_556 S
H2699 C2722 0.950 . S
H2700 C2723 0.950 . S
H2701 C2725 0.950 . S
H2702 C2726 0.950 . S
H2703 C2727 0.951 . S
H2704 C2729 0.951 . S
H2705 C2731 0.950 . S
H2706 C2732 0.950 . S
H2707 C2734 0.950 . S
H2708 C2737 0.950 . S
H2709 C2738 0.950 . S
H2710 C2740 0.950 . S
H2711 C2741 0.978 . S
C2712 H2694 0.951 . S
C2712 C2713 1.366 1_556 S
C2712 C2714 1.388 . S
C2713 C2712 1.366 1_554 S
C2713 C2717 1.385 . S
C2714 H2695 0.951 . S
C2714 C2712 1.388 . S
C2714 C2715 1.366 1_556 S
C2715 C2714 1.366 1_554 S
C2715 C2716 1.414 . S
C2715 C2718 1.499 . S
C2716 H2696 0.950 . S
C2716 C2715 1.414 . S
C2716 C2717 1.374 . S
C2717 H2697 0.950 . S
C2717 C2713 1.385 . S
C2717 C2716 1.374 . S
C2718 C2715 1.499 . S
C2718 C2719 1.373 . S
C2718 C2720 1.389 . S
C2719 H2698 0.950 1_554 S
C2719 C2718 1.373 . S
C2719 C2735 1.377 . S
C2720 C2718 1.389 . S
C2720 C2721 1.524 . S
C2720 C2734 1.377 . S
C2721 C2720 1.524 . S
C2721 C2722 1.397 . S
C2721 C2726 1.363 . S
C2722 H2699 0.950 . S
C2722 C2721 1.397 . S
C2722 C2723 1.334 . S
C2723 H2700 0.950 . S
C2723 C2722 1.334 . S
C2723 C2724 1.287 . S
C2724 C2723 1.287 . S
C2724 C2725 1.524 . S
C2724 H2743 0.913 . S
C2725 H2701 0.950 . S
C2725 C2724 1.524 . S
C2725 C2726 1.415 . S
C2726 H2702 0.950 . S
C2726 C2721 1.363 . S
C2726 C2725 1.415 . S
C2727 H2703 0.951 . S
C2727 C2728 1.366 . S
C2727 C2729 1.388 . S
C2728 C2727 1.366 . S
C2728 C2732 1.385 . S
C2729 H2704 0.951 . S
C2729 C2727 1.388 . S
C2729 C2730 1.366 . S
C2730 C2729 1.366 . S
C2730 C2731 1.414 . S
C2730 C2733 1.499 . S
C2731 H2705 0.950 . S
C2731 C2730 1.414 . S
C2731 C2732 1.374 . S
C2732 H2706 0.950 . S
C2732 C2728 1.385 . S
C2732 C2731 1.374 . S
C2733 C2730 1.499 . S
C2733 C2734 1.373 . S
C2733 C2735 1.389 . S
C2734 H2707 0.950 . S
C2734 C2720 1.377 . S
C2734 C2733 1.373 . S
C2735 C2719 1.377 . S
C2735 C2733 1.389 . S
C2735 C2736 1.524 1_554 S
C2736 C2735 1.524 1_556 S
C2736 C2737 1.397 . S
C2736 C2741 1.354 1_556 S
C2737 H2708 0.950 . S
C2737 C2736 1.397 . S
C2737 C2738 1.334 . S
C2738 H2709 0.950 . S
C2738 C2737 1.334 . S
C2738 C2739 1.287 . S
C2739 C2738 1.287 . S
C2739 C2740 1.524 . S
C2739 H2742 0.999 . S
C2740 H2710 0.950 . S
C2740 C2739 1.524 . S
C2740 C2741 1.398 1_556 S
C2741 H2711 0.978 . S
C2741 C2736 1.354 1_554 S
C2741 C2740 1.398 1_554 S
H2742 C2739 0.999 . S
H2743 C2724 0.913 . S
H2744 C2762 0.951 . S
H2745 C2764 0.951 . S
H2746 C2766 0.950 . S
H2747 C2767 0.950 . S
H2748 C2769 0.950 . S
H2749 C2772 0.950 . S
H2750 C2773 0.950 . S
H2751 C2775 0.950 . S
H2752 C2776 0.950 . S
H2753 C2777 0.951 . S
H2754 C2779 0.951 . S
H2755 C2781 0.950 . S
H2756 C2782 0.950 . S
H2757 C2784 0.950 . S
H2758 C2787 0.950 . S
H2759 C2788 0.950 . S
H2760 C2790 0.950 . S
H2761 C2791 0.950 . S
C2762 H2744 0.951 . S
C2762 C2763 1.366 . S
C2762 C2764 1.388 . S
C2763 C2762 1.366 . S
C2763 C2767 1.385 . S
C2764 H2745 0.951 . S
C2764 C2762 1.388 . S
C2764 C2765 1.366 . S
C2765 C2764 1.366 . S
C2765 C2766 1.414 . S
C2765 C2768 1.499 . S
C2766 H2746 0.950 . S
C2766 C2765 1.414 . S
C2766 C2767 1.374 . S
C2767 H2747 0.950 . S
C2767 C2763 1.385 . S
C2767 C2766 1.374 . S
C2768 C2765 1.499 . S
C2768 C2769 1.373 . S
C2768 C2770 1.389 . S
C2769 H2748 0.950 . S
C2769 C2768 1.373 . S
C2769 C2785 1.377 . S
C2770 C2768 1.389 . S
C2770 C2771 1.524 . S
C2770 C2784 1.377 . S
C2771 C2770 1.524 . S
C2771 C2772 1.397 . S
C2771 C2776 1.363 . S
C2772 H2749 0.950 . S
C2772 C2771 1.397 . S
C2772 C2773 1.334 . S
C2773 H2750 0.950 . S
C2773 C2772 1.334 . S
C2773 C2774 1.287 . S
C2774 C2773 1.287 . S
C2774 C2775 1.524 . S
C2774 H2793 0.913 . S
C2775 H2751 0.950 . S
C2775 C2774 1.524 . S
C2775 C2776 1.415 . S
C2776 H2752 0.950 . S
C2776 C2771 1.363 . S
C2776 C2775 1.415 . S
C2777 H2753 0.951 . S
C2777 C2778 1.366 . S
C2777 C2779 1.388 . S
C2778 C2777 1.366 . S
C2778 C2782 1.385 . S
C2779 H2754 0.951 . S
C2779 C2777 1.388 . S
C2779 C2780 1.366 . S
C2780 C2779 1.366 . S
C2780 C2781 1.414 . S
C2780 C2783 1.499 . S
C2781 H2755 0.950 . S
C2781 C2780 1.414 . S
C2781 C2782 1.374 . S
C2782 H2756 0.950 . S
C2782 C2778 1.385 . S
C2782 C2781 1.374 . S
C2783 C2780 1.499 . S
C2783 C2784 1.373 . S
C2783 C2785 1.389 . S
C2784 H2757 0.950 . S
C2784 C2770 1.377 . S
C2784 C2783 1.373 . S
C2785 C2769 1.377 . S
C2785 C2783 1.389 . S
C2785 C2786 1.524 . S
C2786 C2785 1.524 . S
C2786 C2787 1.397 . S
C2786 C2791 1.363 . S
C2787 H2758 0.950 . S
C2787 C2786 1.397 . S
C2787 C2788 1.334 . S
C2788 H2759 0.950 . S
C2788 C2787 1.334 . S
C2788 C2789 1.287 . S
C2789 C2788 1.287 . S
C2789 C2790 1.524 . S
C2789 H2792 0.999 . S
C2790 H2760 0.950 . S
C2790 C2789 1.524 . S
C2790 C2791 1.415 . S
C2791 H2761 0.950 . S
C2791 C2786 1.363 . S
C2791 C2790 1.415 . S
H2792 C2789 0.999 . S
H2793 C2774 0.913 . S
H2794 C2812 0.951 . S
H2795 C2814 0.951 . S
H2796 C2816 0.950 . S
H2797 C2817 0.950 . S
H2798 C2819 0.950 . S
H2799 C2822 0.950 . S
H2800 C2823 0.950 . S
H2801 C2825 0.950 . S
H2802 C2826 0.950 . S
H2803 C2827 0.951 . S
H2804 C2829 0.951 . S
H2805 C2831 0.950 . S
H2806 C2832 0.950 . S
H2807 C2834 0.950 . S
H2808 C2837 0.950 . S
H2809 C2838 0.950 . S
H2810 C2840 0.950 . S
H2811 C2841 0.950 . S
C2812 H2794 0.951 . S
C2812 C2813 1.366 . S
C2812 C2814 1.388 . S
C2813 C2812 1.366 . S
C2813 C2817 1.385 . S
C2814 H2795 0.951 . S
C2814 C2812 1.388 . S
C2814 C2815 1.366 . S
C2815 C2814 1.366 . S
C2815 C2816 1.414 . S
C2815 C2818 1.499 . S
C2816 H2796 0.950 . S
C2816 C2815 1.414 . S
C2816 C2817 1.374 . S
C2817 H2797 0.950 . S
C2817 C2813 1.385 . S
C2817 C2816 1.374 . S
C2818 C2815 1.499 . S
C2818 C2819 1.373 . S
C2818 C2820 1.389 . S
C2819 H2798 0.950 . S
C2819 C2818 1.373 . S
C2819 C2835 1.377 . S
C2820 C2818 1.389 . S
C2820 C2821 1.524 . S
C2820 C2834 1.377 . S
C2821 C2820 1.524 . S
C2821 C2822 1.397 . S
C2821 C2826 1.363 . S
C2822 H2799 0.950 . S
C2822 C2821 1.397 . S
C2822 C2823 1.334 . S
C2823 H2800 0.950 . S
C2823 C2822 1.334 . S
C2823 C2824 1.287 . S
C2824 C2823 1.287 . S
C2824 C2825 1.524 . S
C2824 H2843 0.913 . S
C2825 H2801 0.950 . S
C2825 C2824 1.524 . S
C2825 C2826 1.415 . S
C2826 H2802 0.950 . S
C2826 C2821 1.363 . S
C2826 C2825 1.415 . S
C2827 H2803 0.951 . S
C2827 C2828 1.366 . S
C2827 C2829 1.388 . S
C2828 C2827 1.366 . S
C2828 C2832 1.385 . S
C2829 H2804 0.951 . S
C2829 C2827 1.388 . S
C2829 C2830 1.366 . S
C2830 C2829 1.366 . S
C2830 C2831 1.414 . S
C2830 C2833 1.499 . S
C2831 H2805 0.950 . S
C2831 C2830 1.414 . S
C2831 C2832 1.374 . S
C2832 H2806 0.950 . S
C2832 C2828 1.385 . S
C2832 C2831 1.374 . S
C2833 C2830 1.499 . S
C2833 C2834 1.373 . S
C2833 C2835 1.389 . S
C2834 H2807 0.950 . S
C2834 C2820 1.377 . S
C2834 C2833 1.373 . S
C2835 C2819 1.377 . S
C2835 C2833 1.389 . S
C2835 C2836 1.524 . S
C2836 C2835 1.524 . S
C2836 C2837 1.397 . S
C2836 C2841 1.363 . S
C2837 H2808 0.950 . S
C2837 C2836 1.397 . S
C2837 C2838 1.334 . S
C2838 H2809 0.950 . S
C2838 C2837 1.334 . S
C2838 C2839 1.287 . S
C2839 C2838 1.287 . S
C2839 C2840 1.524 . S
C2839 H2842 0.999 . S
C2840 H2810 0.950 . S
C2840 C2839 1.524 . S
C2840 C2841 1.415 . S
C2841 H2811 0.950 . S
C2841 C2836 1.363 . S
C2841 C2840 1.415 . S
H2842 C2839 0.999 . S
H2843 C2824 0.913 . S
H2844 C2862 0.951 . S
H2845 C2864 0.951 . S
H2846 C2866 0.950 . S
H2847 C2867 0.950 . S
H2848 C2869 0.950 . S
H2849 C2872 0.950 . S
H2850 C2873 0.950 . S
H2851 C2875 0.950 . S
H2852 C2876 0.950 . S
H2853 C2877 0.951 . S
H2854 C2879 0.951 . S
H2855 C2881 0.950 . S
H2856 C2882 0.950 . S
H2857 C2884 0.950 . S
H2858 C2887 0.950 . S
H2859 C2888 0.950 . S
H2860 C2890 0.950 . S
H2861 C2891 0.950 . S
C2862 H2844 0.951 . S
C2862 C2863 1.366 . S
C2862 C2864 1.388 . S
C2863 C2862 1.366 . S
C2863 C2867 1.385 . S
C2864 H2845 0.951 . S
C2864 C2862 1.388 . S
C2864 C2865 1.366 . S
C2865 C2864 1.366 . S
C2865 C2866 1.414 . S
C2865 C2868 1.499 . S
C2866 H2846 0.950 . S
C2866 C2865 1.414 . S
C2866 C2867 1.374 . S
C2867 H2847 0.950 . S
C2867 C2863 1.385 . S
C2867 C2866 1.374 . S
C2868 C2865 1.499 . S
C2868 C2869 1.373 . S
C2868 C2870 1.389 . S
C2869 H2848 0.950 . S
C2869 C2868 1.373 . S
C2869 C2885 1.377 . S
C2870 C2868 1.389 . S
C2870 C2871 1.524 . S
C2870 C2884 1.377 . S
C2871 C2870 1.524 . S
C2871 C2872 1.397 . S
C2871 C2876 1.363 . S
C2872 H2849 0.950 . S
C2872 C2871 1.397 . S
C2872 C2873 1.334 . S
C2873 H2850 0.950 . S
C2873 C2872 1.334 . S
C2873 C2874 1.287 . S
C2874 C2873 1.287 . S
C2874 C2875 1.524 . S
C2874 H2893 0.913 . S
C2875 H2851 0.950 . S
C2875 C2874 1.524 . S
C2875 C2876 1.415 . S
C2876 H2852 0.950 . S
C2876 C2871 1.363 . S
C2876 C2875 1.415 . S
C2877 H2853 0.951 . S
C2877 C2878 1.366 . S
C2877 C2879 1.388 . S
C2878 C2877 1.366 . S
C2878 C2882 1.385 . S
C2879 H2854 0.951 . S
C2879 C2877 1.388 . S
C2879 C2880 1.366 . S
C2880 C2879 1.366 . S
C2880 C2881 1.414 . S
C2880 C2883 1.499 . S
C2881 H2855 0.950 . S
C2881 C2880 1.414 . S
C2881 C2882 1.374 . S
C2882 H2856 0.950 . S
C2882 C2878 1.385 . S
C2882 C2881 1.374 . S
C2883 C2880 1.499 . S
C2883 C2884 1.373 . S
C2883 C2885 1.389 . S
C2884 H2857 0.950 . S
C2884 C2870 1.377 . S
C2884 C2883 1.373 . S
C2885 C2869 1.377 . S
C2885 C2883 1.389 . S
C2885 C2886 1.524 . S
C2886 C2885 1.524 . S
C2886 C2887 1.397 . S
C2886 C2891 1.363 . S
C2887 H2858 0.950 . S
C2887 C2886 1.397 . S
C2887 C2888 1.334 . S
C2888 H2859 0.950 . S
C2888 C2887 1.334 . S
C2888 C2889 1.287 . S
C2889 C2888 1.287 . S
C2889 C2890 1.524 . S
C2889 H2892 0.999 . S
C2890 H2860 0.950 . S
C2890 C2889 1.524 . S
C2890 C2891 1.415 . S
C2891 H2861 0.950 . S
C2891 C2886 1.363 . S
C2891 C2890 1.415 . S
H2892 C2889 0.999 . S
H2893 C2874 0.913 . S
H2894 C2912 0.951 . S
H2895 C2914 0.951 . S
H2896 C2916 0.950 . S
H2897 C2917 0.950 . S
H2898 C2919 0.950 . S
H2899 C2922 0.950 . S
H2900 C2923 0.950 . S
H2901 C2925 0.950 . S
H2902 C2926 0.950 . S
H2903 C2927 0.951 . S
H2904 C2929 0.951 . S
H2905 C2931 0.950 . S
H2906 C2932 0.950 . S
H2907 C2934 0.950 . S
H2908 C2937 0.950 . S
H2909 C2938 0.950 . S
H2910 C2940 0.950 . S
H2911 C2941 0.950 . S
C2912 H2894 0.951 . S
C2912 C2913 1.366 . S
C2912 C2914 1.388 . S
C2913 C2912 1.366 . S
C2913 C2917 1.385 . S
C2914 H2895 0.951 . S
C2914 C2912 1.388 . S
C2914 C2915 1.366 . S
C2915 C2914 1.366 . S
C2915 C2916 1.414 . S
C2915 C2918 1.499 . S
C2916 H2896 0.950 . S
C2916 C2915 1.414 . S
C2916 C2917 1.374 . S
C2917 H2897 0.950 . S
C2917 C2913 1.385 . S
C2917 C2916 1.374 . S
C2918 C2915 1.499 . S
C2918 C2919 1.373 . S
C2918 C2920 1.389 . S
C2919 H2898 0.950 . S
C2919 C2918 1.373 . S
C2919 C2935 1.377 . S
C2920 C2918 1.389 . S
C2920 C2921 1.524 . S
C2920 C2934 1.377 . S
C2921 C2920 1.524 . S
C2921 C2922 1.397 . S
C2921 C2926 1.363 . S
C2922 H2899 0.950 . S
C2922 C2921 1.397 . S
C2922 C2923 1.334 . S
C2923 H2900 0.950 . S
C2923 C2922 1.334 . S
C2923 C2924 1.287 . S
C2924 C2923 1.287 . S
C2924 C2925 1.524 . S
C2924 H2943 0.913 . S
C2925 H2901 0.950 . S
C2925 C2924 1.524 . S
C2925 C2926 1.415 . S
C2926 H2902 0.950 . S
C2926 C2921 1.363 . S
C2926 C2925 1.415 . S
C2927 H2903 0.951 . S
C2927 C2928 1.366 . S
C2927 C2929 1.388 . S
C2928 C2927 1.366 . S
C2928 C2932 1.385 . S
C2929 H2904 0.951 . S
C2929 C2927 1.388 . S
C2929 C2930 1.366 . S
C2930 C2929 1.366 . S
C2930 C2931 1.414 . S
C2930 C2933 1.499 . S
C2931 H2905 0.950 . S
C2931 C2930 1.414 . S
C2931 C2932 1.374 . S
C2932 H2906 0.950 . S
C2932 C2928 1.385 . S
C2932 C2931 1.374 . S
C2933 C2930 1.499 . S
C2933 C2934 1.373 . S
C2933 C2935 1.389 . S
C2934 H2907 0.950 . S
C2934 C2920 1.377 . S
C2934 C2933 1.373 . S
C2935 C2919 1.377 . S
C2935 C2933 1.389 . S
C2935 C2936 1.524 . S
C2936 C2935 1.524 . S
C2936 C2937 1.397 . S
C2936 C2941 1.363 . S
C2937 H2908 0.950 . S
C2937 C2936 1.397 . S
C2937 C2938 1.334 . S
C2938 H2909 0.950 . S
C2938 C2937 1.334 . S
C2938 C2939 1.287 . S
C2939 C2938 1.287 . S
C2939 C2940 1.524 . S
C2939 H2942 0.999 . S
C2940 H2910 0.950 . S
C2940 C2939 1.524 . S
C2940 C2941 1.415 . S
C2941 H2911 0.950 . S
C2941 C2936 1.363 . S
C2941 C2940 1.415 . S
H2942 C2939 0.999 . S
H2943 C2924 0.913 . S
H2944 C2962 0.951 . S
H2945 C2964 0.951 . S
H2946 C2966 0.950 . S
H2947 C2967 0.950 . S
H2948 C2969 0.950 . S
H2949 C2972 0.950 . S
H2950 C2973 0.950 . S
H2951 C2975 0.950 . S
H2952 C2976 0.950 . S
H2953 C2977 0.951 . S
H2954 C2979 0.951 . S
H2955 C2981 0.950 . S
H2956 C2982 0.950 . S
H2957 C2984 0.950 . S
H2958 C2987 0.950 . S
H2959 C2988 0.950 . S
H2960 C2990 0.950 . S
H2961 C2991 0.950 . S
C2962 H2944 0.951 . S
C2962 C2963 1.366 . S
C2962 C2964 1.388 . S
C2963 C2962 1.366 . S
C2963 C2967 1.385 . S
C2964 H2945 0.951 . S
C2964 C2962 1.388 . S
C2964 C2965 1.366 . S
C2965 C2964 1.366 . S
C2965 C2966 1.414 . S
C2965 C2968 1.499 . S
C2966 H2946 0.950 . S
C2966 C2965 1.414 . S
C2966 C2967 1.374 . S
C2967 H2947 0.950 . S
C2967 C2963 1.385 . S
C2967 C2966 1.374 . S
C2968 C2965 1.499 . S
C2968 C2969 1.373 . S
C2968 C2970 1.389 . S
C2969 H2948 0.950 . S
C2969 C2968 1.373 . S
C2969 C2985 1.377 . S
C2970 C2968 1.389 . S
C2970 C2971 1.524 . S
C2970 C2984 1.377 . S
C2971 C2970 1.524 . S
C2971 C2972 1.397 . S
C2971 C2976 1.363 . S
C2972 H2949 0.950 . S
C2972 C2971 1.397 . S
C2972 C2973 1.334 . S
C2973 H2950 0.950 . S
C2973 C2972 1.334 . S
C2973 C2974 1.287 . S
C2974 C2973 1.287 . S
C2974 C2975 1.524 . S
C2974 H2993 0.913 . S
C2975 H2951 0.950 . S
C2975 C2974 1.524 . S
C2975 C2976 1.415 . S
C2976 H2952 0.950 . S
C2976 C2971 1.363 . S
C2976 C2975 1.415 . S
C2977 H2953 0.951 . S
C2977 C2978 1.366 . S
C2977 C2979 1.388 . S
C2978 C2977 1.366 . S
C2978 C2982 1.385 . S
C2979 H2954 0.951 . S
C2979 C2977 1.388 . S
C2979 C2980 1.366 . S
C2980 C2979 1.366 . S
C2980 C2981 1.414 . S
C2980 C2983 1.499 . S
C2981 H2955 0.950 . S
C2981 C2980 1.414 . S
C2981 C2982 1.374 . S
C2982 H2956 0.950 . S
C2982 C2978 1.385 . S
C2982 C2981 1.374 . S
C2983 C2980 1.499 . S
C2983 C2984 1.373 . S
C2983 C2985 1.389 . S
C2984 H2957 0.950 . S
C2984 C2970 1.377 . S
C2984 C2983 1.373 . S
C2985 C2969 1.377 . S
C2985 C2983 1.389 . S
C2985 C2986 1.524 . S
C2986 C2985 1.524 . S
C2986 C2987 1.397 . S
C2986 C2991 1.363 . S
C2987 H2958 0.950 . S
C2987 C2986 1.397 . S
C2987 C2988 1.334 . S
C2988 H2959 0.950 . S
C2988 C2987 1.334 . S
C2988 C2989 1.287 . S
C2989 C2988 1.287 . S
C2989 C2990 1.524 . S
C2989 H2992 0.999 . S
C2990 H2960 0.950 . S
C2990 C2989 1.524 . S
C2990 C2991 1.415 . S
C2991 H2961 0.950 . S
C2991 C2986 1.363 . S
C2991 C2990 1.415 . S
H2992 C2989 0.999 . S
H2993 C2974 0.913 . S
H2994 C3012 0.951 . S
H2995 C3014 0.951 . S
H2996 C3016 0.950 . S
H2997 C3017 0.950 . S
H2998 C3019 0.950 . S
H2999 C3022 0.950 . S
H3000 C3023 0.950 . S
H3001 C3025 0.950 . S
H3002 C3026 0.950 . S
H3003 C3027 0.951 . S
H3004 C3029 0.951 . S
H3005 C3031 0.950 . S
H3006 C3032 0.950 . S
H3007 C3034 0.950 . S
H3008 C3037 0.950 . S
H3009 C3038 0.950 . S
H3010 C3040 0.950 . S
H3011 C3041 0.950 . S
C3012 H2994 0.951 . S
C3012 C3013 1.366 . S
C3012 C3014 1.388 . S
C3013 C3012 1.366 . S
C3013 C3017 1.385 . S
C3014 H2995 0.951 . S
C3014 C3012 1.388 . S
C3014 C3015 1.366 . S
C3015 C3014 1.366 . S
C3015 C3016 1.414 . S
C3015 C3018 1.499 . S
C3016 H2996 0.950 . S
C3016 C3015 1.414 . S
C3016 C3017 1.374 . S
C3017 H2997 0.950 . S
C3017 C3013 1.385 . S
C3017 C3016 1.374 . S
C3018 C3015 1.499 . S
C3018 C3019 1.373 . S
C3018 C3020 1.389 . S
C3019 H2998 0.950 . S
C3019 C3018 1.373 . S
C3019 C3035 1.377 . S
C3020 C3018 1.389 . S
C3020 C3021 1.524 . S
C3020 C3034 1.377 . S
C3021 C3020 1.524 . S
C3021 C3022 1.397 . S
C3021 C3026 1.363 . S
C3022 H2999 0.950 . S
C3022 C3021 1.397 . S
C3022 C3023 1.334 . S
C3023 H3000 0.950 . S
C3023 C3022 1.334 . S
C3023 C3024 1.287 . S
C3024 C3023 1.287 . S
C3024 C3025 1.524 . S
C3024 H3043 0.913 . S
C3025 H3001 0.950 . S
C3025 C3024 1.524 . S
C3025 C3026 1.415 . S
C3026 H3002 0.950 . S
C3026 C3021 1.363 . S
C3026 C3025 1.415 . S
C3027 H3003 0.951 . S
C3027 C3028 1.366 . S
C3027 C3029 1.388 . S
C3028 C3027 1.366 . S
C3028 C3032 1.385 . S
C3029 H3004 0.951 . S
C3029 C3027 1.388 . S
C3029 C3030 1.366 . S
C3030 C3029 1.366 . S
C3030 C3031 1.414 . S
C3030 C3033 1.499 . S
C3031 H3005 0.950 . S
C3031 C3030 1.414 . S
C3031 C3032 1.374 . S
C3032 H3006 0.950 . S
C3032 C3028 1.385 . S
C3032 C3031 1.374 . S
C3033 C3030 1.499 . S
C3033 C3034 1.373 . S
C3033 C3035 1.389 . S
C3034 H3007 0.950 . S
C3034 C3020 1.377 . S
C3034 C3033 1.373 . S
C3035 C3019 1.377 . S
C3035 C3033 1.389 . S
C3035 C3036 1.524 . S
C3036 C3035 1.524 . S
C3036 C3037 1.397 . S
C3036 C3041 1.363 . S
C3037 H3008 0.950 . S
C3037 C3036 1.397 . S
C3037 C3038 1.334 . S
C3038 H3009 0.950 . S
C3038 C3037 1.334 . S
C3038 C3039 1.287 . S
C3039 C3038 1.287 . S
C3039 C3040 1.524 . S
C3039 H3042 0.999 . S
C3040 H3010 0.950 . S
C3040 C3039 1.524 . S
C3040 C3041 1.415 . S
C3041 H3011 0.950 . S
C3041 C3036 1.363 . S
C3041 C3040 1.415 . S
H3042 C3039 0.999 . S
H3043 C3024 0.913 . S
H3044 C3062 0.951 . S
H3045 C3064 0.951 . S
H3046 C3066 0.950 . S
H3047 C3067 0.950 . S
H3048 C3069 0.950 . S
H3049 C3072 0.950 . S
H3050 C3073 0.950 . S
H3051 C3075 0.950 . S
H3052 C3076 0.950 . S
H3053 C3077 0.951 . S
H3054 C3079 0.951 . S
H3055 C3081 0.950 . S
H3056 C3082 0.950 . S
H3057 C3084 0.950 . S
H3058 C3087 0.950 . S
H3059 C3088 0.950 . S
H3060 C3090 0.950 . S
H3061 C3091 0.950 . S
C3062 H3044 0.951 . S
C3062 C3063 1.366 . S
C3062 C3064 1.388 . S
C3063 C3062 1.366 . S
C3063 C3067 1.385 . S
C3064 H3045 0.951 . S
C3064 C3062 1.388 . S
C3064 C3065 1.366 . S
C3065 C3064 1.366 . S
C3065 C3066 1.414 . S
C3065 C3068 1.499 . S
C3066 H3046 0.950 . S
C3066 C3065 1.414 . S
C3066 C3067 1.374 . S
C3067 H3047 0.950 . S
C3067 C3063 1.385 . S
C3067 C3066 1.374 . S
C3068 C3065 1.499 . S
C3068 C3069 1.373 . S
C3068 C3070 1.389 . S
C3069 H3048 0.950 . S
C3069 C3068 1.373 . S
C3069 C3085 1.377 . S
C3070 C3068 1.389 . S
C3070 C3071 1.524 . S
C3070 C3084 1.377 . S
C3071 C3070 1.524 . S
C3071 C3072 1.397 . S
C3071 C3076 1.363 . S
C3072 H3049 0.950 . S
C3072 C3071 1.397 . S
C3072 C3073 1.334 . S
C3073 H3050 0.950 . S
C3073 C3072 1.334 . S
C3073 C3074 1.287 . S
C3074 C3073 1.287 . S
C3074 C3075 1.524 . S
C3074 H3093 0.913 . S
C3075 H3051 0.950 . S
C3075 C3074 1.524 . S
C3075 C3076 1.415 . S
C3076 H3052 0.950 . S
C3076 C3071 1.363 . S
C3076 C3075 1.415 . S
C3077 H3053 0.951 . S
C3077 C3078 1.366 . S
C3077 C3079 1.388 . S
C3078 C3077 1.366 . S
C3078 C3082 1.385 . S
C3079 H3054 0.951 . S
C3079 C3077 1.388 . S
C3079 C3080 1.366 . S
C3080 C3079 1.366 . S
C3080 C3081 1.414 . S
C3080 C3083 1.499 . S
C3081 H3055 0.950 . S
C3081 C3080 1.414 . S
C3081 C3082 1.374 . S
C3082 H3056 0.950 . S
C3082 C3078 1.385 . S
C3082 C3081 1.374 . S
C3083 C3080 1.499 . S
C3083 C3084 1.373 . S
C3083 C3085 1.389 . S
C3084 H3057 0.950 . S
C3084 C3070 1.377 . S
C3084 C3083 1.373 . S
C3085 C3069 1.377 . S
C3085 C3083 1.389 . S
C3085 C3086 1.524 . S
C3086 C3085 1.524 . S
C3086 C3087 1.397 . S
C3086 C3091 1.363 . S
C3087 H3058 0.950 . S
C3087 C3086 1.397 . S
C3087 C3088 1.334 . S
C3088 H3059 0.950 . S
C3088 C3087 1.334 . S
C3088 C3089 1.287 . S
C3089 C3088 1.287 . S
C3089 C3090 1.524 . S
C3089 H3092 0.999 . S
C3090 H3060 0.950 . S
C3090 C3089 1.524 . S
C3090 C3091 1.415 . S
C3091 H3061 0.950 . S
C3091 C3086 1.363 . S
C3091 C3090 1.415 . S
H3092 C3089 0.999 . S
H3093 C3074 0.913 . S
H3094 C3112 0.951 . S
H3095 C3114 0.951 . S
H3096 C3116 0.950 . S
H3097 C3117 0.950 . S
H3098 C3119 0.950 . S
H3099 C3122 0.950 . S
H3100 C3123 0.950 . S
H3101 C3125 0.950 . S
H3102 C3126 0.950 . S
H3103 C3127 0.951 . S
H3104 C3129 0.951 . S
H3105 C3131 0.950 . S
H3106 C3132 0.950 . S
H3107 C3134 0.950 . S
H3108 C3137 0.950 . S
H3109 C3138 0.950 . S
H3110 C3140 0.950 . S
H3111 C3141 0.950 . S
C3112 H3094 0.951 . S
C3112 C3113 1.366 . S
C3112 C3114 1.388 . S
C3113 C3112 1.366 . S
C3113 C3117 1.385 . S
C3114 H3095 0.951 . S
C3114 C3112 1.388 . S
C3114 C3115 1.366 . S
C3115 C3114 1.366 . S
C3115 C3116 1.414 . S
C3115 C3118 1.499 . S
C3116 H3096 0.950 . S
C3116 C3115 1.414 . S
C3116 C3117 1.374 . S
C3117 H3097 0.950 . S
C3117 C3113 1.385 . S
C3117 C3116 1.374 . S
C3118 C3115 1.499 . S
C3118 C3119 1.373 . S
C3118 C3120 1.389 . S
C3119 H3098 0.950 . S
C3119 C3118 1.373 . S
C3119 C3135 1.377 . S
C3120 C3118 1.389 . S
C3120 C3121 1.524 . S
C3120 C3134 1.377 . S
C3121 C3120 1.524 . S
C3121 C3122 1.397 . S
C3121 C3126 1.363 . S
C3122 H3099 0.950 . S
C3122 C3121 1.397 . S
C3122 C3123 1.334 . S
C3123 H3100 0.950 . S
C3123 C3122 1.334 . S
C3123 C3124 1.287 . S
C3124 C3123 1.287 . S
C3124 C3125 1.524 . S
C3124 H3143 0.913 . S
C3125 H3101 0.950 . S
C3125 C3124 1.524 . S
C3125 C3126 1.415 . S
C3126 H3102 0.950 . S
C3126 C3121 1.363 . S
C3126 C3125 1.415 . S
C3127 H3103 0.951 . S
C3127 C3128 1.366 . S
C3127 C3129 1.388 . S
C3128 C3127 1.366 . S
C3128 C3132 1.385 . S
C3129 H3104 0.951 . S
C3129 C3127 1.388 . S
C3129 C3130 1.366 . S
C3130 C3129 1.366 . S
C3130 C3131 1.414 . S
C3130 C3133 1.499 . S
C3131 H3105 0.950 . S
C3131 C3130 1.414 . S
C3131 C3132 1.374 . S
C3132 H3106 0.950 . S
C3132 C3128 1.385 . S
C3132 C3131 1.374 . S
C3133 C3130 1.499 . S
C3133 C3134 1.373 . S
C3133 C3135 1.389 . S
C3134 H3107 0.950 . S
C3134 C3120 1.377 . S
C3134 C3133 1.373 . S
C3135 C3119 1.377 . S
C3135 C3133 1.389 . S
C3135 C3136 1.524 . S
C3136 C3135 1.524 . S
C3136 C3137 1.397 . S
C3136 C3141 1.363 . S
C3137 H3108 0.950 . S
C3137 C3136 1.397 . S
C3137 C3138 1.334 . S
C3138 H3109 0.950 . S
C3138 C3137 1.334 . S
C3138 C3139 1.287 . S
C3139 C3138 1.287 . S
C3139 C3140 1.524 . S
C3139 H3142 0.999 . S
C3140 H3110 0.950 . S
C3140 C3139 1.524 . S
C3140 C3141 1.415 . S
C3141 H3111 0.950 . S
C3141 C3136 1.363 . S
C3141 C3140 1.415 . S
H3142 C3139 0.999 . S
H3143 C3124 0.913 . S
H3144 C3162 0.951 . S
H3145 C3164 0.951 . S
H3146 C3166 0.950 . S
H3147 C3167 0.950 . S
H3148 C3169 0.950 . S
H3149 C3172 0.950 . S
H3150 C3173 0.950 . S
H3151 C3175 0.950 . S
H3152 C3176 0.950 . S
H3153 C3177 0.951 . S
H3154 C3179 0.951 . S
H3155 C3181 0.950 . S
H3156 C3182 0.950 . S
H3157 C3184 0.950 . S
H3158 C3187 0.950 . S
H3159 C3188 0.950 . S
H3160 C3190 0.950 . S
H3161 C3191 0.950 . S
C3162 H3144 0.951 . S
C3162 C3163 1.366 . S
C3162 C3164 1.388 . S
C3163 C3162 1.366 . S
C3163 C3167 1.385 . S
C3164 H3145 0.951 . S
C3164 C3162 1.388 . S
C3164 C3165 1.366 . S
C3165 C3164 1.366 . S
C3165 C3166 1.414 . S
C3165 C3168 1.499 . S
C3166 H3146 0.950 . S
C3166 C3165 1.414 . S
C3166 C3167 1.374 . S
C3167 H3147 0.950 . S
C3167 C3163 1.385 . S
C3167 C3166 1.374 . S
C3168 C3165 1.499 . S
C3168 C3169 1.373 . S
C3168 C3170 1.389 . S
C3169 H3148 0.950 . S
C3169 C3168 1.373 . S
C3169 C3185 1.377 . S
C3170 C3168 1.389 . S
C3170 C3171 1.524 . S
C3170 C3184 1.377 . S
C3171 C3170 1.524 . S
C3171 C3172 1.397 . S
C3171 C3176 1.363 . S
C3172 H3149 0.950 . S
C3172 C3171 1.397 . S
C3172 C3173 1.334 . S
C3173 H3150 0.950 . S
C3173 C3172 1.334 . S
C3173 C3174 1.287 . S
C3174 C3173 1.287 . S
C3174 C3175 1.524 . S
C3174 H3193 0.913 . S
C3175 H3151 0.950 . S
C3175 C3174 1.524 . S
C3175 C3176 1.415 . S
C3176 H3152 0.950 . S
C3176 C3171 1.363 . S
C3176 C3175 1.415 . S
C3177 H3153 0.951 . S
C3177 C3178 1.366 . S
C3177 C3179 1.388 . S
C3178 C3177 1.366 . S
C3178 C3182 1.385 . S
C3179 H3154 0.951 . S
C3179 C3177 1.388 . S
C3179 C3180 1.366 . S
C3180 C3179 1.366 . S
C3180 C3181 1.414 . S
C3180 C3183 1.499 . S
C3181 H3155 0.950 . S
C3181 C3180 1.414 . S
C3181 C3182 1.374 . S
C3182 H3156 0.950 . S
C3182 C3178 1.385 . S
C3182 C3181 1.374 . S
C3183 C3180 1.499 . S
C3183 C3184 1.373 . S
C3183 C3185 1.389 . S
C3184 H3157 0.950 . S
C3184 C3170 1.377 . S
C3184 C3183 1.373 . S
C3185 C3169 1.377 . S
C3185 C3183 1.389 . S
C3185 C3186 1.524 . S
C3186 C3185 1.524 . S
C3186 C3187 1.397 . S
C3186 C3191 1.363 . S
C3187 H3158 0.950 . S
C3187 C3186 1.397 . S
C3187 C3188 1.334 . S
C3188 H3159 0.950 . S
C3188 C3187 1.334 . S
C3188 C3189 1.287 . S
C3189 C3188 1.287 . S
C3189 C3190 1.524 . S
C3189 H3192 0.999 . S
C3190 H3160 0.950 . S
C3190 C3189 1.524 . S
C3190 C3191 1.415 . S
C3191 H3161 0.950 . S
C3191 C3186 1.363 . S
C3191 C3190 1.415 . S
H3192 C3189 0.999 . S
H3193 C3174 0.913 . S
H3194 C3212 0.951 . S
H3195 C3214 0.951 . S
H3196 C3216 0.950 . S
H3197 C3217 0.950 . S
H3198 C3219 0.950 1_556 S
H3199 C3222 0.950 . S
H3200 C3223 0.950 . S
H3201 C3225 0.950 . S
H3202 C3226 0.950 . S
H3203 C3227 0.951 . S
H3204 C3229 0.951 . S
H3205 C3231 0.950 1_556 S
H3206 C3232 0.950 . S
H3207 C3234 0.950 . S
H3208 C3237 0.950 . S
H3209 C3238 0.950 . S
H3210 C3240 0.950 . S
H3211 C3241 0.950 . S
C3212 H3194 0.951 . S
C3212 C3213 1.366 . S
C3212 C3214 1.388 . S
C3213 C3212 1.366 . S
C3213 C3217 1.385 . S
C3214 H3195 0.951 . S
C3214 C3212 1.388 . S
C3214 C3215 1.366 . S
C3215 C3214 1.366 . S
C3215 C3216 1.414 . S
C3215 C3218 1.499 . S
C3216 H3196 0.950 . S
C3216 C3215 1.414 . S
C3216 C3217 1.374 . S
C3217 H3197 0.950 . S
C3217 C3213 1.385 . S
C3217 C3216 1.374 . S
C3218 C3215 1.499 . S
C3218 C3219 1.373 . S
C3218 C3220 1.389 . S
C3219 H3198 0.950 1_554 S
C3219 C3218 1.373 . S
C3219 C3235 1.360 1_554 S
C3220 C3218 1.389 . S
C3220 C3221 1.524 . S
C3220 C3234 1.377 . S
C3221 C3220 1.524 . S
C3221 C3222 1.397 . S
C3221 C3226 1.363 . S
C3222 H3199 0.950 . S
C3222 C3221 1.397 . S
C3222 C3223 1.334 . S
C3223 H3200 0.950 . S
C3223 C3222 1.334 . S
C3223 C3224 1.287 . S
C3224 C3223 1.287 . S
C3224 C3225 1.524 . S
C3224 H3243 0.913 . S
C3225 H3201 0.950 . S
C3225 C3224 1.524 . S
C3225 C3226 1.415 . S
C3226 H3202 0.950 . S
C3226 C3221 1.363 . S
C3226 C3225 1.415 . S
C3227 H3203 0.951 . S
C3227 C3228 1.366 . S
C3227 C3229 1.388 . S
C3228 C3227 1.366 . S
C3228 C3232 1.385 1_554 S
C3229 H3204 0.951 . S
C3229 C3227 1.388 . S
C3229 C3230 1.366 . S
C3230 C3229 1.366 . S
C3230 C3231 1.414 . S
C3230 C3233 1.499 . S
C3231 H3205 0.950 1_554 S
C3231 C3230 1.414 . S
C3231 C3232 1.374 1_554 S
C3232 H3206 0.950 . S
C3232 C3228 1.385 1_556 S
C3232 C3231 1.374 1_556 S
C3233 C3230 1.499 . S
C3233 C3234 1.373 . S
C3233 C3235 1.377 1_554 S
C3234 H3207 0.950 . S
C3234 C3220 1.377 . S
C3234 C3233 1.373 . S
C3235 C3219 1.360 1_556 S
C3235 C3233 1.377 1_556 S
C3235 C3236 1.557 . S
C3236 C3235 1.557 . S
C3236 C3237 1.397 . S
C3236 C3241 1.363 . S
C3237 H3208 0.950 . S
C3237 C3236 1.397 . S
C3237 C3238 1.334 . S
C3238 H3209 0.950 . S
C3238 C3237 1.334 . S
C3238 C3239 1.287 . S
C3239 C3238 1.287 . S
C3239 C3240 1.524 . S
C3239 H3242 0.999 . S
C3240 H3210 0.950 . S
C3240 C3239 1.524 . S
C3240 C3241 1.415 . S
C3241 H3211 0.950 . S
C3241 C3236 1.363 . S
C3241 C3240 1.415 . S
H3242 C3239 0.999 . S
H3243 C3224 0.913 . S
H3244 C3262 0.951 . S
H3245 C3264 0.951 . S
H3246 C3266 0.950 . S
H3247 C3267 0.950 . S
H3248 C3269 0.950 . S
H3249 C3272 0.950 . S
H3250 C3273 0.950 . S
H3251 C3275 0.950 . S
H3252 C3276 0.950 . S
H3253 C3277 0.951 . S
H3254 C3279 0.951 . S
H3255 C3281 0.950 . S
H3256 C3282 0.950 . S
H3257 C3284 0.950 . S
H3258 C3287 0.950 . S
H3259 C3288 0.950 . S
H3260 C3290 0.950 . S
H3261 C3291 0.950 . S
C3262 H3244 0.951 . S
C3262 C3263 1.366 . S
C3262 C3264 1.388 . S
C3263 C3262 1.366 . S
C3263 C3267 1.385 . S
C3264 H3245 0.951 . S
C3264 C3262 1.388 . S
C3264 C3265 1.366 . S
C3265 C3264 1.366 . S
C3265 C3266 1.414 . S
C3265 C3268 1.499 . S
C3266 H3246 0.950 . S
C3266 C3265 1.414 . S
C3266 C3267 1.374 . S
C3267 H3247 0.950 . S
C3267 C3263 1.385 . S
C3267 C3266 1.374 . S
C3268 C3265 1.499 . S
C3268 C3269 1.373 . S
C3268 C3270 1.389 . S
C3269 H3248 0.950 . S
C3269 C3268 1.373 . S
C3269 C3285 1.377 . S
C3270 C3268 1.389 . S
C3270 C3271 1.524 . S
C3270 C3284 1.377 . S
C3271 C3270 1.524 . S
C3271 C3272 1.397 . S
C3271 C3276 1.363 . S
C3272 H3249 0.950 . S
C3272 C3271 1.397 . S
C3272 C3273 1.334 . S
C3273 H3250 0.950 . S
C3273 C3272 1.334 . S
C3273 C3274 1.287 . S
C3274 C3273 1.287 . S
C3274 C3275 1.524 . S
C3274 H3293 0.913 . S
C3275 H3251 0.950 . S
C3275 C3274 1.524 . S
C3275 C3276 1.415 . S
C3276 H3252 0.950 . S
C3276 C3271 1.363 . S
C3276 C3275 1.415 . S
C3277 H3253 0.951 . S
C3277 C3278 1.366 . S
C3277 C3279 1.388 . S
C3278 C3277 1.366 . S
C3278 C3282 1.385 . S
C3279 H3254 0.951 . S
C3279 C3277 1.388 . S
C3279 C3280 1.366 . S
C3280 C3279 1.366 . S
C3280 C3281 1.414 . S
C3280 C3283 1.499 . S
C3281 H3255 0.950 . S
C3281 C3280 1.414 . S
C3281 C3282 1.374 . S
C3282 H3256 0.950 . S
C3282 C3278 1.385 . S
C3282 C3281 1.374 . S
C3283 C3280 1.499 . S
C3283 C3284 1.373 . S
C3283 C3285 1.389 . S
C3284 H3257 0.950 . S
C3284 C3270 1.377 . S
C3284 C3283 1.373 . S
C3285 C3269 1.377 . S
C3285 C3283 1.389 . S
C3285 C3286 1.524 . S
C3286 C3285 1.524 . S
C3286 C3287 1.397 . S
C3286 C3291 1.363 . S
C3287 H3258 0.950 . S
C3287 C3286 1.397 . S
C3287 C3288 1.334 . S
C3288 H3259 0.950 . S
C3288 C3287 1.334 . S
C3288 C3289 1.287 . S
C3289 C3288 1.287 . S
C3289 C3290 1.524 . S
C3289 H3292 0.999 . S
C3290 H3260 0.950 . S
C3290 C3289 1.524 . S
C3290 C3291 1.415 . S
C3291 H3261 0.950 . S
C3291 C3286 1.363 . S
C3291 C3290 1.415 . S
H3292 C3289 0.999 . S
H3293 C3274 0.913 . S
H3294 C3312 0.951 . S
H3295 C3314 0.951 . S
H3296 C3316 0.950 . S
H3297 C3317 0.950 . S
H3298 C3319 0.950 . S
H3299 C3322 0.950 . S
H3300 C3323 0.950 . S
H3301 C3325 0.950 . S
H3302 C3326 0.950 . S
H3303 C3327 0.951 . S
H3304 C3329 0.951 . S
H3305 C3331 0.950 . S
H3306 C3332 0.950 . S
H3307 C3334 0.950 . S
H3308 C3337 0.950 . S
H3309 C3338 0.950 . S
H3310 C3340 0.950 . S
H3311 C3341 0.950 . S
C3312 H3294 0.951 . S
C3312 C3313 1.366 . S
C3312 C3314 1.388 . S
C3313 C3312 1.366 . S
C3313 C3317 1.385 . S
C3314 H3295 0.951 . S
C3314 C3312 1.388 . S
C3314 C3315 1.366 . S
C3315 C3314 1.366 . S
C3315 C3316 1.414 . S
C3315 C3318 1.499 . S
C3316 H3296 0.950 . S
C3316 C3315 1.414 . S
C3316 C3317 1.374 . S
C3317 H3297 0.950 . S
C3317 C3313 1.385 . S
C3317 C3316 1.374 . S
C3318 C3315 1.499 . S
C3318 C3319 1.373 . S
C3318 C3320 1.389 . S
C3319 H3298 0.950 . S
C3319 C3318 1.373 . S
C3319 C3335 1.377 . S
C3320 C3318 1.389 . S
C3320 C3321 1.524 . S
C3320 C3334 1.377 . S
C3321 C3320 1.524 . S
C3321 C3322 1.397 . S
C3321 C3326 1.363 . S
C3322 H3299 0.950 . S
C3322 C3321 1.397 . S
C3322 C3323 1.334 . S
C3323 H3300 0.950 . S
C3323 C3322 1.334 . S
C3323 C3324 1.287 . S
C3324 C3323 1.287 . S
C3324 C3325 1.524 . S
C3324 H3343 0.913 . S
C3325 H3301 0.950 . S
C3325 C3324 1.524 . S
C3325 C3326 1.415 . S
C3326 H3302 0.950 . S
C3326 C3321 1.363 . S
C3326 C3325 1.415 . S
C3327 H3303 0.951 . S
C3327 C3328 1.366 . S
C3327 C3329 1.388 . S
C3328 C3327 1.366 . S
C3328 C3332 1.385 . S
C3329 H3304 0.951 . S
C3329 C3327 1.388 . S
C3329 C3330 1.366 . S
C3330 C3329 1.366 . S
C3330 C3331 1.414 . S
C3330 C3333 1.499 . S
C3331 H3305 0.950 . S
C3331 C3330 1.414 . S
C3331 C3332 1.374 . S
C3332 H3306 0.950 . S
C3332 C3328 1.385 . S
C3332 C3331 1.374 . S
C3333 C3330 1.499 . S
C3333 C3334 1.373 . S
C3333 C3335 1.389 . S
C3334 H3307 0.950 . S
C3334 C3320 1.377 . S
C3334 C3333 1.373 . S
C3335 C3319 1.377 . S
C3335 C3333 1.389 . S
C3335 C3336 1.524 . S
C3336 C3335 1.524 . S
C3336 C3337 1.397 . S
C3336 C3341 1.363 . S
C3337 H3308 0.950 . S
C3337 C3336 1.397 . S
C3337 C3338 1.334 . S
C3338 H3309 0.950 . S
C3338 C3337 1.334 . S
C3338 C3339 1.287 . S
C3339 C3338 1.287 . S
C3339 C3340 1.524 . S
C3339 H3342 0.999 . S
C3340 H3310 0.950 . S
C3340 C3339 1.524 . S
C3340 C3341 1.415 . S
C3341 H3311 0.950 . S
C3341 C3336 1.363 . S
C3341 C3340 1.415 . S
H3342 C3339 0.999 . S
H3343 C3324 0.913 . S
H3344 C3362 0.951 . S
H3345 C3364 0.951 . S
H3346 C3366 0.950 . S
H3347 C3367 0.950 . S
H3348 C3369 0.950 . S
H3349 C3372 0.950 . S
H3350 C3373 0.950 . S
H3351 C3375 0.950 . S
H3352 C3376 0.950 . S
H3353 C3377 0.951 . S
H3354 C3379 0.951 . S
H3355 C3381 0.950 . S
H3356 C3382 0.950 . S
H3357 C3384 0.950 . S
H3358 C3387 0.950 . S
H3359 C3388 0.950 . S
H3360 C3390 0.950 . S
H3361 C3391 0.950 . S
C3362 H3344 0.951 . S
C3362 C3363 1.366 . S
C3362 C3364 1.388 . S
C3363 C3362 1.366 . S
C3363 C3367 1.385 . S
C3364 H3345 0.951 . S
C3364 C3362 1.388 . S
C3364 C3365 1.366 . S
C3365 C3364 1.366 . S
C3365 C3366 1.414 . S
C3365 C3368 1.499 . S
C3366 H3346 0.950 . S
C3366 C3365 1.414 . S
C3366 C3367 1.374 . S
C3367 H3347 0.950 . S
C3367 C3363 1.385 . S
C3367 C3366 1.374 . S
C3368 C3365 1.499 . S
C3368 C3369 1.373 . S
C3368 C3370 1.389 . S
C3369 H3348 0.950 . S
C3369 C3368 1.373 . S
C3369 C3385 1.377 . S
C3370 C3368 1.389 . S
C3370 C3371 1.524 . S
C3370 C3384 1.377 . S
C3371 C3370 1.524 . S
C3371 C3372 1.397 . S
C3371 C3376 1.363 . S
C3372 H3349 0.950 . S
C3372 C3371 1.397 . S
C3372 C3373 1.334 . S
C3373 H3350 0.950 . S
C3373 C3372 1.334 . S
C3373 C3374 1.287 . S
C3374 C3373 1.287 . S
C3374 C3375 1.524 . S
C3374 H3393 0.913 . S
C3375 H3351 0.950 . S
C3375 C3374 1.524 . S
C3375 C3376 1.415 . S
C3376 H3352 0.950 . S
C3376 C3371 1.363 . S
C3376 C3375 1.415 . S
C3377 H3353 0.951 . S
C3377 C3378 1.366 . S
C3377 C3379 1.388 . S
C3378 C3377 1.366 . S
C3378 C3382 1.385 . S
C3379 H3354 0.951 . S
C3379 C3377 1.388 . S
C3379 C3380 1.366 . S
C3380 C3379 1.366 . S
C3380 C3381 1.414 . S
C3380 C3383 1.499 . S
C3381 H3355 0.950 . S
C3381 C3380 1.414 . S
C3381 C3382 1.374 . S
C3382 H3356 0.950 . S
C3382 C3378 1.385 . S
C3382 C3381 1.374 . S
C3383 C3380 1.499 . S
C3383 C3384 1.373 . S
C3383 C3385 1.389 . S
C3384 H3357 0.950 . S
C3384 C3370 1.377 . S
C3384 C3383 1.373 . S
C3385 C3369 1.377 . S
C3385 C3383 1.389 . S
C3385 C3386 1.524 . S
C3386 C3385 1.524 . S
C3386 C3387 1.397 . S
C3386 C3391 1.363 . S
C3387 H3358 0.950 . S
C3387 C3386 1.397 . S
C3387 C3388 1.334 . S
C3388 H3359 0.950 . S
C3388 C3387 1.334 . S
C3388 C3389 1.287 . S
C3389 C3388 1.287 . S
C3389 C3390 1.524 . S
C3389 H3392 0.999 . S
C3390 H3360 0.950 . S
C3390 C3389 1.524 . S
C3390 C3391 1.415 . S
C3391 H3361 0.950 . S
C3391 C3386 1.363 . S
C3391 C3390 1.415 . S
H3392 C3389 0.999 . S
H3393 C3374 0.913 . S
H3394 C3412 0.951 . S
H3395 C3414 0.951 . S
H3396 C3416 0.950 . S
H3397 C3417 0.950 . S
H3398 C3419 0.950 . S
H3399 C3422 0.950 . S
H3400 C3423 0.950 . S
H3401 C3425 0.950 . S
H3402 C3426 0.950 . S
H3403 C3427 0.951 . S
H3404 C3429 0.951 . S
H3405 C3431 0.950 . S
H3406 C3432 0.950 . S
H3407 C3434 0.950 . S
H3408 C3437 0.950 . S
H3409 C3438 0.950 . S
H3410 C3440 0.950 . S
H3411 C3441 0.950 . S
C3412 H3394 0.951 . S
C3412 C3413 1.366 . S
C3412 C3414 1.388 . S
C3413 C3412 1.366 . S
C3413 C3417 1.385 . S
C3414 H3395 0.951 . S
C3414 C3412 1.388 . S
C3414 C3415 1.366 . S
C3415 C3414 1.366 . S
C3415 C3416 1.414 . S
C3415 C3418 1.499 . S
C3416 H3396 0.950 . S
C3416 C3415 1.414 . S
C3416 C3417 1.374 . S
C3417 H3397 0.950 . S
C3417 C3413 1.385 . S
C3417 C3416 1.374 . S
C3418 C3415 1.499 . S
C3418 C3419 1.373 . S
C3418 C3420 1.389 . S
C3419 H3398 0.950 . S
C3419 C3418 1.373 . S
C3419 C3435 1.377 . S
C3420 C3418 1.389 . S
C3420 C3421 1.524 . S
C3420 C3434 1.377 . S
C3421 C3420 1.524 . S
C3421 C3422 1.397 . S
C3421 C3426 1.363 . S
C3422 H3399 0.950 . S
C3422 C3421 1.397 . S
C3422 C3423 1.334 . S
C3423 H3400 0.950 . S
C3423 C3422 1.334 . S
C3423 C3424 1.287 . S
C3424 C3423 1.287 . S
C3424 C3425 1.524 . S
C3424 H3443 0.913 . S
C3425 H3401 0.950 . S
C3425 C3424 1.524 . S
C3425 C3426 1.415 . S
C3426 H3402 0.950 . S
C3426 C3421 1.363 . S
C3426 C3425 1.415 . S
C3427 H3403 0.951 . S
C3427 C3428 1.366 . S
C3427 C3429 1.388 . S
C3428 C3427 1.366 . S
C3428 C3432 1.385 . S
C3429 H3404 0.951 . S
C3429 C3427 1.388 . S
C3429 C3430 1.366 . S
C3430 C3429 1.366 . S
C3430 C3431 1.414 . S
C3430 C3433 1.499 . S
C3431 H3405 0.950 . S
C3431 C3430 1.414 . S
C3431 C3432 1.374 . S
C3432 H3406 0.950 . S
C3432 C3428 1.385 . S
C3432 C3431 1.374 . S
C3433 C3430 1.499 . S
C3433 C3434 1.373 . S
C3433 C3435 1.389 . S
C3434 H3407 0.950 . S
C3434 C3420 1.377 . S
C3434 C3433 1.373 . S
C3435 C3419 1.377 . S
C3435 C3433 1.389 . S
C3435 C3436 1.524 . S
C3436 C3435 1.524 . S
C3436 C3437 1.397 . S
C3436 C3441 1.363 . S
C3437 H3408 0.950 . S
C3437 C3436 1.397 . S
C3437 C3438 1.334 . S
C3438 H3409 0.950 . S
C3438 C3437 1.334 . S
C3438 C3439 1.287 . S
C3439 C3438 1.287 . S
C3439 C3440 1.524 . S
C3439 H3442 0.999 . S
C3440 H3410 0.950 . S
C3440 C3439 1.524 . S
C3440 C3441 1.415 . S
C3441 H3411 0.950 . S
C3441 C3436 1.363 . S
C3441 C3440 1.415 . S
H3442 C3439 0.999 . S
H3443 C3424 0.913 . S
H3444 C3462 0.951 . S
H3445 C3464 0.951 . S
H3446 C3466 0.950 . S
H3447 C3467 0.950 . S
H3448 C3469 0.950 . S
H3449 C3472 0.950 . S
H3450 C3473 0.950 . S
H3451 C3475 0.950 . S
H3452 C3476 0.950 . S
H3453 C3477 0.951 . S
H3454 C3479 0.951 . S
H3455 C3481 0.995 . S
H3456 C3482 0.950 1_554 S
H3457 C3484 0.949 1_554 S
H3458 C3487 0.950 . S
H3459 C3488 0.950 . S
H3460 C3490 0.950 . S
H3461 C3491 0.950 . S
C3462 H3444 0.951 . S
C3462 C3463 1.366 1_554 S
C3462 C3464 1.388 . S
C3463 C3462 1.366 1_556 S
C3463 C3467 1.385 . S
C3464 H3445 0.951 . S
C3464 C3462 1.388 . S
C3464 C3465 1.366 1_554 S
C3465 C3464 1.366 1_556 S
C3465 C3466 1.414 . S
C3465 C3468 1.499 . S
C3466 H3446 0.950 . S
C3466 C3465 1.414 . S
C3466 C3467 1.374 . S
C3467 H3447 0.950 . S
C3467 C3463 1.385 . S
C3467 C3466 1.374 . S
C3468 C3465 1.499 . S
C3468 C3469 1.373 . S
C3468 C3470 1.389 . S
C3469 H3448 0.950 . S
C3469 C3468 1.373 . S
C3469 C3485 1.377 . S
C3470 C3468 1.389 . S
C3470 C3471 1.524 1_556 S
C3470 C3484 1.377 . S
C3471 C3470 1.524 1_554 S
C3471 C3472 1.397 1_554 S
C3471 C3476 1.363 . S
C3472 H3449 0.950 . S
C3472 C3471 1.397 1_556 S
C3472 C3473 1.334 . S
C3473 H3450 0.950 . S
C3473 C3472 1.334 . S
C3473 C3474 1.287 1_556 S
C3474 C3473 1.287 1_554 S
C3474 C3475 1.524 . S
C3474 H3493 0.913 . S
C3475 H3451 0.950 . S
C3475 C3474 1.524 . S
C3475 C3476 1.415 . S
C3476 H3452 0.950 . S
C3476 C3471 1.363 . S
C3476 C3475 1.415 . S
C3477 H3453 0.951 . S
C3477 C3478 1.366 . S
C3477 C3479 1.388 . S
C3478 C3477 1.366 . S
C3478 C3482 1.385 . S
C3479 H3454 0.951 . S
C3479 C3477 1.388 . S
C3479 C3480 1.366 . S
C3480 C3479 1.366 . S
C3480 C3481 1.385 1_556 S
C3480 C3483 1.499 . S
C3481 H3455 0.995 . S
C3481 C3480 1.385 1_554 S
C3481 C3482 1.360 1_554 S
C3482 H3456 0.950 1_556 S
C3482 C3478 1.385 . S
C3482 C3481 1.360 1_556 S
C3483 C3480 1.499 . S
C3483 C3484 1.373 . S
C3483 C3485 1.389 . S
C3484 H3457 0.949 1_556 S
C3484 C3470 1.377 . S
C3484 C3483 1.373 . S
C3485 C3469 1.377 . S
C3485 C3483 1.389 . S
C3485 C3486 1.524 . S
C3486 C3485 1.524 . S
C3486 C3487 1.397 . S
C3486 C3491 1.363 . S
C3487 H3458 0.950 . S
C3487 C3486 1.397 . S
C3487 C3488 1.334 . S
C3488 H3459 0.950 . S
C3488 C3487 1.334 . S
C3488 C3489 1.287 . S
C3489 C3488 1.287 . S
C3489 C3490 1.524 . S
C3489 H3492 0.999 . S
C3490 H3460 0.950 . S
C3490 C3489 1.524 . S
C3490 C3491 1.415 . S
C3491 H3461 0.950 . S
C3491 C3486 1.363 . S
C3491 C3490 1.415 . S
H3492 C3489 0.999 . S
H3493 C3474 0.913 . S
H3494 C3512 0.951 . S
H3495 C3514 0.951 . S
H3496 C3516 0.950 . S
H3497 C3517 0.950 . S
H3498 C3519 0.950 . S
H3499 C3522 0.950 . S
H3500 C3523 0.950 . S
H3501 C3525 0.950 . S
H3502 C3526 0.950 . S
H3503 C3527 0.951 . S
H3504 C3529 0.951 . S
H3505 C3531 0.950 . S
H3506 C3532 0.950 . S
H3507 C3534 0.950 . S
H3508 C3537 0.950 . S
H3509 C3538 0.950 . S
H3510 C3540 0.950 . S
H3511 C3541 0.950 . S
C3512 H3494 0.951 . S
C3512 C3513 1.366 . S
C3512 C3514 1.388 . S
C3513 C3512 1.366 . S
C3513 C3517 1.385 . S
C3514 H3495 0.951 . S
C3514 C3512 1.388 . S
C3514 C3515 1.366 . S
C3515 C3514 1.366 . S
C3515 C3516 1.414 . S
C3515 C3518 1.499 . S
C3516 H3496 0.950 . S
C3516 C3515 1.414 . S
C3516 C3517 1.374 . S
C3517 H3497 0.950 . S
C3517 C3513 1.385 . S
C3517 C3516 1.374 . S
C3518 C3515 1.499 . S
C3518 C3519 1.373 . S
C3518 C3520 1.389 . S
C3519 H3498 0.950 . S
C3519 C3518 1.373 . S
C3519 C3535 1.377 . S
C3520 C3518 1.389 . S
C3520 C3521 1.524 . S
C3520 C3534 1.377 . S
C3521 C3520 1.524 . S
C3521 C3522 1.397 . S
C3521 C3526 1.363 . S
C3522 H3499 0.950 . S
C3522 C3521 1.397 . S
C3522 C3523 1.334 . S
C3523 H3500 0.950 . S
C3523 C3522 1.334 . S
C3523 C3524 1.287 . S
C3524 C3523 1.287 . S
C3524 C3525 1.524 . S
C3524 H3543 0.913 . S
C3525 H3501 0.950 . S
C3525 C3524 1.524 . S
C3525 C3526 1.415 . S
C3526 H3502 0.950 . S
C3526 C3521 1.363 . S
C3526 C3525 1.415 . S
C3527 H3503 0.951 . S
C3527 C3528 1.366 . S
C3527 C3529 1.388 . S
C3528 C3527 1.366 . S
C3528 C3532 1.385 . S
C3529 H3504 0.951 . S
C3529 C3527 1.388 . S
C3529 C3530 1.366 . S
C3530 C3529 1.366 . S
C3530 C3531 1.414 . S
C3530 C3533 1.499 . S
C3531 H3505 0.950 . S
C3531 C3530 1.414 . S
C3531 C3532 1.374 . S
C3532 H3506 0.950 . S
C3532 C3528 1.385 . S
C3532 C3531 1.374 . S
C3533 C3530 1.499 . S
C3533 C3534 1.373 . S
C3533 C3535 1.389 . S
C3534 H3507 0.950 . S
C3534 C3520 1.377 . S
C3534 C3533 1.373 . S
C3535 C3519 1.377 . S
C3535 C3533 1.389 . S
C3535 C3536 1.524 . S
C3536 C3535 1.524 . S
C3536 C3537 1.397 . S
C3536 C3541 1.363 . S
C3537 H3508 0.950 . S
C3537 C3536 1.397 . S
C3537 C3538 1.334 . S
C3538 H3509 0.950 . S
C3538 C3537 1.334 . S
C3538 C3539 1.287 . S
C3539 C3538 1.287 . S
C3539 C3540 1.524 . S
C3539 H3542 0.999 . S
C3540 H3510 0.950 . S
C3540 C3539 1.524 . S
C3540 C3541 1.415 . S
C3541 H3511 0.950 . S
C3541 C3536 1.363 . S
C3541 C3540 1.415 . S
H3542 C3539 0.999 . S
H3543 C3524 0.913 . S
H3544 C3562 0.951 . S
H3545 C3564 0.951 . S
H3546 C3566 0.950 . S
H3547 C3567 0.950 . S
H3548 C3569 0.950 . S
H3549 C3572 0.950 . S
H3550 C3573 0.950 . S
H3551 C3575 0.950 . S
H3552 C3576 0.950 . S
H3553 C3577 0.951 . S
H3554 C3579 0.951 . S
H3555 C3581 0.950 . S
H3556 C3582 0.950 . S
H3557 C3584 0.950 . S
H3558 C3587 0.950 . S
H3559 C3588 0.950 . S
H3560 C3590 0.950 . S
H3561 C3591 0.950 . S
C3562 H3544 0.951 . S
C3562 C3563 1.366 . S
C3562 C3564 1.388 . S
C3563 C3562 1.366 . S
C3563 C3567 1.385 . S
C3564 H3545 0.951 . S
C3564 C3562 1.388 . S
C3564 C3565 1.366 . S
C3565 C3564 1.366 . S
C3565 C3566 1.414 . S
C3565 C3568 1.499 . S
C3566 H3546 0.950 . S
C3566 C3565 1.414 . S
C3566 C3567 1.374 . S
C3567 H3547 0.950 . S
C3567 C3563 1.385 . S
C3567 C3566 1.374 . S
C3568 C3565 1.499 . S
C3568 C3569 1.373 . S
C3568 C3570 1.389 . S
C3569 H3548 0.950 . S
C3569 C3568 1.373 . S
C3569 C3585 1.377 . S
C3570 C3568 1.389 . S
C3570 C3571 1.524 . S
C3570 C3584 1.377 . S
C3571 C3570 1.524 . S
C3571 C3572 1.397 . S
C3571 C3576 1.363 . S
C3572 H3549 0.950 . S
C3572 C3571 1.397 . S
C3572 C3573 1.334 . S
C3573 H3550 0.950 . S
C3573 C3572 1.334 . S
C3573 C3574 1.287 . S
C3574 C3573 1.287 . S
C3574 C3575 1.524 . S
C3574 H3593 0.913 . S
C3575 H3551 0.950 . S
C3575 C3574 1.524 . S
C3575 C3576 1.415 . S
C3576 H3552 0.950 . S
C3576 C3571 1.363 . S
C3576 C3575 1.415 . S
C3577 H3553 0.951 . S
C3577 C3578 1.366 . S
C3577 C3579 1.388 . S
C3578 C3577 1.366 . S
C3578 C3582 1.385 . S
C3579 H3554 0.951 . S
C3579 C3577 1.388 . S
C3579 C3580 1.366 . S
C3580 C3579 1.366 . S
C3580 C3581 1.414 . S
C3580 C3583 1.499 . S
C3581 H3555 0.950 . S
C3581 C3580 1.414 . S
C3581 C3582 1.374 . S
C3582 H3556 0.950 . S
C3582 C3578 1.385 . S
C3582 C3581 1.374 . S
C3583 C3580 1.499 . S
C3583 C3584 1.373 . S
C3583 C3585 1.389 . S
C3584 H3557 0.950 . S
C3584 C3570 1.377 . S
C3584 C3583 1.373 . S
C3585 C3569 1.377 . S
C3585 C3583 1.389 . S
C3585 C3586 1.524 . S
C3586 C3585 1.524 . S
C3586 C3587 1.397 . S
C3586 C3591 1.363 . S
C3587 H3558 0.950 . S
C3587 C3586 1.397 . S
C3587 C3588 1.334 . S
C3588 H3559 0.950 . S
C3588 C3587 1.334 . S
C3588 C3589 1.287 . S
C3589 C3588 1.287 . S
C3589 C3590 1.524 . S
C3589 H3592 0.999 . S
C3590 H3560 0.950 . S
C3590 C3589 1.524 . S
C3590 C3591 1.415 . S
C3591 H3561 0.950 . S
C3591 C3586 1.363 . S
C3591 C3590 1.415 . S
H3592 C3589 0.999 . S
H3593 C3574 0.913 . S
H3594 C3612 0.951 . S
H3595 C3614 0.951 . S
H3596 C3616 0.950 . S
H3597 C3617 0.950 . S
H3598 C3619 0.950 . S
H3599 C3622 0.950 . S
H3600 C3623 0.950 . S
H3601 C3625 0.950 . S
H3602 C3626 0.950 . S
H3603 C3627 0.951 . S
H3604 C3629 0.951 . S
H3605 C3631 0.950 . S
H3606 C3632 0.950 . S
H3607 C3634 0.950 . S
H3608 C3637 0.950 . S
H3609 C3638 0.950 . S
H3610 C3640 0.950 . S
H3611 C3641 0.950 . S
C3612 H3594 0.951 . S
C3612 C3613 1.366 . S
C3612 C3614 1.388 . S
C3613 C3612 1.366 . S
C3613 C3617 1.385 . S
C3614 H3595 0.951 . S
C3614 C3612 1.388 . S
C3614 C3615 1.366 . S
C3615 C3614 1.366 . S
C3615 C3616 1.414 . S
C3615 C3618 1.499 . S
C3616 H3596 0.950 . S
C3616 C3615 1.414 . S
C3616 C3617 1.374 . S
C3617 H3597 0.950 . S
C3617 C3613 1.385 . S
C3617 C3616 1.374 . S
C3618 C3615 1.499 . S
C3618 C3619 1.373 . S
C3618 C3620 1.389 . S
C3619 H3598 0.950 . S
C3619 C3618 1.373 . S
C3619 C3635 1.377 . S
C3620 C3618 1.389 . S
C3620 C3621 1.524 . S
C3620 C3634 1.377 . S
C3621 C3620 1.524 . S
C3621 C3622 1.397 . S
C3621 C3626 1.363 . S
C3622 H3599 0.950 . S
C3622 C3621 1.397 . S
C3622 C3623 1.334 . S
C3623 H3600 0.950 . S
C3623 C3622 1.334 . S
C3623 C3624 1.287 . S
C3624 C3623 1.287 . S
C3624 C3625 1.524 . S
C3624 H3643 0.913 . S
C3625 H3601 0.950 . S
C3625 C3624 1.524 . S
C3625 C3626 1.415 . S
C3626 H3602 0.950 . S
C3626 C3621 1.363 . S
C3626 C3625 1.415 . S
C3627 H3603 0.951 . S
C3627 C3628 1.366 . S
C3627 C3629 1.388 . S
C3628 C3627 1.366 . S
C3628 C3632 1.385 . S
C3629 H3604 0.951 . S
C3629 C3627 1.388 . S
C3629 C3630 1.366 . S
C3630 C3629 1.366 . S
C3630 C3631 1.414 . S
C3630 C3633 1.499 . S
C3631 H3605 0.950 . S
C3631 C3630 1.414 . S
C3631 C3632 1.374 . S
C3632 H3606 0.950 . S
C3632 C3628 1.385 . S
C3632 C3631 1.374 . S
C3633 C3630 1.499 . S
C3633 C3634 1.373 . S
C3633 C3635 1.389 . S
C3634 H3607 0.950 . S
C3634 C3620 1.377 . S
C3634 C3633 1.373 . S
C3635 C3619 1.377 . S
C3635 C3633 1.389 . S
C3635 C3636 1.524 . S
C3636 C3635 1.524 . S
C3636 C3637 1.397 . S
C3636 C3641 1.363 . S
C3637 H3608 0.950 . S
C3637 C3636 1.397 . S
C3637 C3638 1.334 . S
C3638 H3609 0.950 . S
C3638 C3637 1.334 . S
C3638 C3639 1.287 . S
C3639 C3638 1.287 . S
C3639 C3640 1.524 . S
C3639 H3642 0.999 . S
C3640 H3610 0.950 . S
C3640 C3639 1.524 . S
C3640 C3641 1.415 . S
C3641 H3611 0.950 . S
C3641 C3636 1.363 . S
C3641 C3640 1.415 . S
H3642 C3639 0.999 . S
H3643 C3624 0.913 . S
H3644 C3662 0.951 . S
H3645 C3664 0.951 . S
H3646 C3666 0.950 . S
H3647 C3667 0.950 . S
H3648 C3669 0.950 . S
H3649 C3672 0.950 . S
H3650 C3673 0.950 . S
H3651 C3675 0.950 . S
H3652 C3676 0.950 . S
H3653 C3677 0.951 . S
H3654 C3679 0.951 . S
H3655 C3681 0.950 . S
H3656 C3682 0.950 . S
H3657 C3684 0.950 . S
H3658 C3687 0.950 . S
H3659 C3688 0.950 . S
H3660 C3690 0.950 . S
H3661 C3691 0.950 . S
C3662 H3644 0.951 . S
C3662 C3663 1.366 . S
C3662 C3664 1.388 . S
C3663 C3662 1.366 . S
C3663 C3667 1.385 . S
C3664 H3645 0.951 . S
C3664 C3662 1.388 . S
C3664 C3665 1.366 . S
C3665 C3664 1.366 . S
C3665 C3666 1.414 . S
C3665 C3668 1.499 . S
C3666 H3646 0.950 . S
C3666 C3665 1.414 . S
C3666 C3667 1.374 . S
C3667 H3647 0.950 . S
C3667 C3663 1.385 . S
C3667 C3666 1.374 . S
C3668 C3665 1.499 . S
C3668 C3669 1.373 . S
C3668 C3670 1.389 . S
C3669 H3648 0.950 . S
C3669 C3668 1.373 . S
C3669 C3685 1.377 . S
C3670 C3668 1.389 . S
C3670 C3671 1.524 . S
C3670 C3684 1.377 . S
C3671 C3670 1.524 . S
C3671 C3672 1.397 . S
C3671 C3676 1.363 . S
C3672 H3649 0.950 . S
C3672 C3671 1.397 . S
C3672 C3673 1.334 . S
C3673 H3650 0.950 . S
C3673 C3672 1.334 . S
C3673 C3674 1.287 . S
C3674 C3673 1.287 . S
C3674 C3675 1.524 . S
C3674 H3693 0.913 . S
C3675 H3651 0.950 . S
C3675 C3674 1.524 . S
C3675 C3676 1.415 . S
C3676 H3652 0.950 . S
C3676 C3671 1.363 . S
C3676 C3675 1.415 . S
C3677 H3653 0.951 . S
C3677 C3678 1.366 . S
C3677 C3679 1.388 . S
C3678 C3677 1.366 . S
C3678 C3682 1.385 . S
C3679 H3654 0.951 . S
C3679 C3677 1.388 . S
C3679 C3680 1.366 . S
C3680 C3679 1.366 . S
C3680 C3681 1.414 . S
C3680 C3683 1.499 . S
C3681 H3655 0.950 . S
C3681 C3680 1.414 . S
C3681 C3682 1.374 . S
C3682 H3656 0.950 . S
C3682 C3678 1.385 . S
C3682 C3681 1.374 . S
C3683 C3680 1.499 . S
C3683 C3684 1.373 . S
C3683 C3685 1.389 . S
C3684 H3657 0.950 . S
C3684 C3670 1.377 . S
C3684 C3683 1.373 . S
C3685 C3669 1.377 . S
C3685 C3683 1.389 . S
C3685 C3686 1.524 . S
C3686 C3685 1.524 . S
C3686 C3687 1.397 . S
C3686 C3691 1.363 . S
C3687 H3658 0.950 . S
C3687 C3686 1.397 . S
C3687 C3688 1.334 . S
C3688 H3659 0.950 . S
C3688 C3687 1.334 . S
C3688 C3689 1.287 . S
C3689 C3688 1.287 . S
C3689 C3690 1.524 . S
C3689 H3692 0.999 . S
C3690 H3660 0.950 . S
C3690 C3689 1.524 . S
C3690 C3691 1.415 . S
C3691 H3661 0.950 . S
C3691 C3686 1.363 . S
C3691 C3690 1.415 . S
H3692 C3689 0.999 . S
H3693 C3674 0.913 . S
H3694 C3712 0.951 . S
H3695 C3714 0.951 . S
H3696 C3716 0.950 . S
H3697 C3717 0.950 . S
H3698 C3719 0.950 . S
H3699 C3722 0.950 . S
H3700 C3723 0.950 . S
H3701 C3725 0.950 . S
H3702 C3726 0.950 . S
H3703 C3727 0.951 . S
H3704 C3729 0.951 . S
H3705 C3731 0.950 . S
H3706 C3732 0.950 . S
H3707 C3734 0.950 . S
H3708 C3737 0.950 . S
H3709 C3738 0.950 . S
H3710 C3740 0.950 . S
H3711 C3741 0.950 . S
C3712 H3694 0.951 . S
C3712 C3713 1.366 . S
C3712 C3714 1.388 . S
C3713 C3712 1.366 . S
C3713 C3717 1.385 . S
C3714 H3695 0.951 . S
C3714 C3712 1.388 . S
C3714 C3715 1.366 . S
C3715 C3714 1.366 . S
C3715 C3716 1.414 . S
C3715 C3718 1.499 . S
C3716 H3696 0.950 . S
C3716 C3715 1.414 . S
C3716 C3717 1.374 . S
C3717 H3697 0.950 . S
C3717 C3713 1.385 . S
C3717 C3716 1.374 . S
C3718 C3715 1.499 . S
C3718 C3719 1.373 . S
C3718 C3720 1.389 . S
C3719 H3698 0.950 . S
C3719 C3718 1.373 . S
C3719 C3735 1.377 . S
C3720 C3718 1.389 . S
C3720 C3721 1.524 . S
C3720 C3734 1.377 . S
C3721 C3720 1.524 . S
C3721 C3722 1.397 . S
C3721 C3726 1.363 . S
C3722 H3699 0.950 . S
C3722 C3721 1.397 . S
C3722 C3723 1.334 . S
C3723 H3700 0.950 . S
C3723 C3722 1.334 . S
C3723 C3724 1.287 . S
C3724 C3723 1.287 . S
C3724 C3725 1.524 . S
C3724 H3743 0.913 . S
C3725 H3701 0.950 . S
C3725 C3724 1.524 . S
C3725 C3726 1.415 . S
C3726 H3702 0.950 . S
C3726 C3721 1.363 . S
C3726 C3725 1.415 . S
C3727 H3703 0.951 . S
C3727 C3728 1.366 . S
C3727 C3729 1.388 . S
C3728 C3727 1.366 . S
C3728 C3732 1.385 . S
C3729 H3704 0.951 . S
C3729 C3727 1.388 . S
C3729 C3730 1.366 . S
C3730 C3729 1.366 . S
C3730 C3731 1.414 . S
C3730 C3733 1.499 . S
C3731 H3705 0.950 . S
C3731 C3730 1.414 . S
C3731 C3732 1.374 . S
C3732 H3706 0.950 . S
C3732 C3728 1.385 . S
C3732 C3731 1.374 . S
C3733 C3730 1.499 . S
C3733 C3734 1.373 . S
C3733 C3735 1.389 . S
C3734 H3707 0.950 . S
C3734 C3720 1.377 . S
C3734 C3733 1.373 . S
C3735 C3719 1.377 . S
C3735 C3733 1.389 . S
C3735 C3736 1.524 . S
C3736 C3735 1.524 . S
C3736 C3737 1.397 . S
C3736 C3741 1.363 . S
C3737 H3708 0.950 . S
C3737 C3736 1.397 . S
C3737 C3738 1.334 . S
C3738 H3709 0.950 . S
C3738 C3737 1.334 . S
C3738 C3739 1.287 . S
C3739 C3738 1.287 . S
C3739 C3740 1.524 . S
C3739 H3742 0.999 . S
C3740 H3710 0.950 . S
C3740 C3739 1.524 . S
C3740 C3741 1.415 . S
C3741 H3711 0.950 . S
C3741 C3736 1.363 . S
C3741 C3740 1.415 . S
H3742 C3739 0.999 . S
H3743 C3724 0.913 . S
C1363 C67 1.114 . S
C1378 C154 1.006 . S
C1413 C235 1.901 . S
C1428 C140 1.951 . S
C1463 C308 1.941 . S
C1478 C231 1.959 . S
C1513 C63 1.164 . S
C1528 C322 0.986 . S
C1563 C74 1.164 . S
C1578 C814 0.985 . S
C1613 C644 1.114 . S
C1628 C142 1.007 . S
C1663 C224 1.901 . S
C1678 C907 1.950 . S
C1713 C319 1.941 . S
C1728 C1166 1.960 . S
C1763 C728 1.901 . S
C1778 C151 1.949 . S
C1813 C1075 1.941 . S
C1828 C242 1.959 . S
C1863 C1250 1.164 . S
C1878 C310 0.983 . S
C1913 C56 1.115 . S
C1928 C982 1.009 . S
C1963 C70 0.505 . S
C1978 C730 0.680 . S
C2013 C1071 1.874 . S
C2028 C410 1.872 . S
C2063 C490 0.682 . S
C2078 C1234 0.502 . S
C2113 C998 1.872 . S
C2128 C567 1.874 . S
C2163 C238 0.679 . S
C2178 C646 0.505 . S
C2213 C830 1.874 . S
C2228 C399 1.872 . S
C2263 C578 1.874 . S
C2278 C903 1.872 . S
C2313 C476 1.901 . S
C2328 C991 1.950 . S
C2363 C823 1.941 . S
C2378 C494 1.959 . S
C2413 C994 1.005 . S
C2428 C655 1.114 . S
C2463 C487 1.901 . S
C2478 C392 1.951 . S
C2513 C812 1.941 . S
C2528 C735 1.958 . S
C2563 C1159 1.901 . S
C2578 C980 1.951 . S
C2613 C560 1.941 . S
C2628 C483 1.959 . S
C2663 C826 0.985 . S
C2678 C1239 1.164 . S
C2713 C1162 0.683 . S
C2728 C58 0.501 . S
C2763 C226 0.682 . S
C2778 C1246 0.502 . S
C2813 C1082 1.874 . S
C2828 C147 1.872 . S
C2863 C658 0.500 . S
C2878 C478 0.683 . S
C2913 C315 1.873 . S
C2928 C914 1.873 . S
C2963 C1064 1.941 . S
C2978 C1155 1.958 . S
C3013 C651 1.164 . S
C3028 C1078 0.985 . S
C3063 C562 0.985 . S
C3078 C662 1.165 . S
C3113 C403 1.950 . S
C3128 C1148 1.900 . S
C3163 C1066 0.985 . S
C3178 C1334 1.164 . S
C3213 C1318 0.504 . S
C3228 C742 0.681 . S
C3263 C158 1.872 . S
C3278 C819 1.874 . S
C3313 C746 1.959 . S
C3328 C571 1.942 . S
C3363 C739 1.901 . S
C3378 C896 1.951 . S
C3413 C1323 1.165 . S
C3428 C574 0.983 . S
C3463 C1150 0.681 . S
C3478 C1330 0.504 . S
C3513 C987 1.873 . S
C3528 C326 1.873 . S
C3563 C910 1.005 . S
C3578 C1243 1.114 . S
C3613 C898 1.008 . S
C3628 C1316 1.115 . S
C3663 C394 1.008 . S
C3678 C1232 1.114 . S
C3713 C1327 1.114 . S
C3728 C406 1.005 . S
