# Generated by pormake.
# Topology uoy, (4)-cn, num edge types: 1
# Building blocks:
#     Node 0, Type 0, BuildingBlock: ICAMEG_clean_sbu_1, # of connection points: 4
#     Node 1, Type 0, BuildingBlock: ICAMEG_clean_sbu_1, # of connection points: 4
#     Node 2, Type 0, BuildingBlock: ICAMEG_clean_sbu_1, # of connection points: 4
#     Node 3, Type 0, BuildingBlock: ICAMEG_clean_sbu_1, # of connection points: 4
#     Node 4, Type 0, BuildingBlock: ICAMEG_clean_sbu_1, # of connection points: 4
#     Node 5, Type 0, BuildingBlock: ICAMEG_clean_sbu_1, # of connection points: 4
#     Node 6, Type 0, BuildingBlock: ICAMEG_clean_sbu_1, # of connection points: 4
#     Node 7, Type 0, BuildingBlock: ICAMEG_clean_sbu_1, # of connection points: 4
#     Node 8, Type 0, BuildingBlock: ICAMEG_clean_sbu_1, # of connection points: 4
#     Node 9, Type 0, BuildingBlock: ICAMEG_clean_sbu_1, # of connection points: 4
#     Node 10, Type 0, BuildingBlock: ICAMEG_clean_sbu_1, # of connection points: 4
#     Node 11, Type 0, BuildingBlock: ICAMEG_clean_sbu_1, # of connection points: 4
#     Node 12, Type 0, BuildingBlock: ICAMEG_clean_sbu_1, # of connection points: 4
#     Node 13, Type 0, BuildingBlock: ICAMEG_clean_sbu_1, # of connection points: 4
#     Node 14, Type 0, BuildingBlock: ICAMEG_clean_sbu_1, # of connection points: 4
#     Node 15, Type 0, BuildingBlock: ICAMEG_clean_sbu_1, # of connection points: 4
#     Edge 16, Type (0, 0), BuildingBlock: ZUJKAS_clean_linker_0, # of connection points: 2
#     Edge 17, Type (0, 0), BuildingBlock: ZUJKAS_clean_linker_0, # of connection points: 2
#     Edge 18, Type (0, 0), BuildingBlock: ZUJKAS_clean_linker_0, # of connection points: 2
#     Edge 19, Type (0, 0), BuildingBlock: ZUJKAS_clean_linker_0, # of connection points: 2
#     Edge 20, Type (0, 0), BuildingBlock: ZUJKAS_clean_linker_0, # of connection points: 2
#     Edge 21, Type (0, 0), BuildingBlock: ZUJKAS_clean_linker_0, # of connection points: 2
#     Edge 22, Type (0, 0), BuildingBlock: ZUJKAS_clean_linker_0, # of connection points: 2
#     Edge 23, Type (0, 0), BuildingBlock: ZUJKAS_clean_linker_0, # of connection points: 2
#     Edge 24, Type (0, 0), BuildingBlock: ZUJKAS_clean_linker_0, # of connection points: 2
#     Edge 25, Type (0, 0), BuildingBlock: ZUJKAS_clean_linker_0, # of connection points: 2
#     Edge 26, Type (0, 0), BuildingBlock: ZUJKAS_clean_linker_0, # of connection points: 2
#     Edge 27, Type (0, 0), BuildingBlock: ZUJKAS_clean_linker_0, # of connection points: 2
#     Edge 28, Type (0, 0), BuildingBlock: ZUJKAS_clean_linker_0, # of connection points: 2
#     Edge 29, Type (0, 0), BuildingBlock: ZUJKAS_clean_linker_0, # of connection points: 2
#     Edge 30, Type (0, 0), BuildingBlock: ZUJKAS_clean_linker_0, # of connection points: 2
#     Edge 31, Type (0, 0), BuildingBlock: ZUJKAS_clean_linker_0, # of connection points: 2
#     Edge 32, Type (0, 0), BuildingBlock: ZUJKAS_clean_linker_0, # of connection points: 2
#     Edge 33, Type (0, 0), BuildingBlock: ZUJKAS_clean_linker_0, # of connection points: 2
#     Edge 34, Type (0, 0), BuildingBlock: ZUJKAS_clean_linker_0, # of connection points: 2
#     Edge 35, Type (0, 0), BuildingBlock: ZUJKAS_clean_linker_0, # of connection points: 2
#     Edge 36, Type (0, 0), BuildingBlock: ZUJKAS_clean_linker_0, # of connection points: 2
#     Edge 37, Type (0, 0), BuildingBlock: ZUJKAS_clean_linker_0, # of connection points: 2
#     Edge 38, Type (0, 0), BuildingBlock: ZUJKAS_clean_linker_0, # of connection points: 2
#     Edge 39, Type (0, 0), BuildingBlock: ZUJKAS_clean_linker_0, # of connection points: 2
#     Edge 40, Type (0, 0), BuildingBlock: ZUJKAS_clean_linker_0, # of connection points: 2
#     Edge 41, Type (0, 0), BuildingBlock: ZUJKAS_clean_linker_0, # of connection points: 2
#     Edge 42, Type (0, 0), BuildingBlock: ZUJKAS_clean_linker_0, # of connection points: 2
#     Edge 43, Type (0, 0), BuildingBlock: ZUJKAS_clean_linker_0, # of connection points: 2
#     Edge 44, Type (0, 0), BuildingBlock: ZUJKAS_clean_linker_0, # of connection points: 2
#     Edge 45, Type (0, 0), BuildingBlock: ZUJKAS_clean_linker_0, # of connection points: 2
#     Edge 46, Type (0, 0), BuildingBlock: ZUJKAS_clean_linker_0, # of connection points: 2
#     Edge 47, Type (0, 0), BuildingBlock: ZUJKAS_clean_linker_0, # of connection points: 2
# Relax obj value: 0.022
# Max RMSD: 0.077
# Mean RMSD: 0.077
data_MOF--net-uoy--node1-ICAMEG_clean_sbu_1--edge1-ZUJKAS_clean_linker_0
_symmetry_space_group_name_H-M    P1
_symmetry_Int_Tables_number       1
_symmetry_cell_setting            triclinic
loop_
_symmetry_equiv_pos_as_xyz
'x, y, z'
_cell_length_a     37.050661
_cell_length_b     37.173531
_cell_length_c     149.60181
_cell_angle_alpha  89.974799
_cell_angle_beta   89.9963
_cell_angle_gamma 90.013396
loop_
_atom_site_label
_atom_site_type_symbol
_atom_site_fract_x
_atom_site_fract_y
_atom_site_fract_z
_atom_type_partial_charge
Co0 Co 0.28775 0.15807 0.19125 0.0
Co1 Co 0.25701 0.07524 0.19762 0.0
O2 O 0.25132 0.11975 0.19067 0.0
C3 C 0.27774 0.1523 0.17147 0.0
O4 O 0.28364 0.11751 0.17193 0.0
C5 C 0.17635 0.09042 0.19745 0.0
O6 O 0.18099 0.12129 0.19337 0.0
O7 O 0.2611 0.10388 0.20883 0.0
O8 O 0.29874 0.14691 0.20407 0.0
H9 H 0.31519 0.99729 0.22099 0.0
H10 H 0.21477 0.17699 0.18464 0.0
O11 O 0.27779 0.17136 0.17853 0.0
H12 H 0.23405 0.25349 0.21114 0.0
H13 H 0.33793 0.2814 0.18488 0.0
H14 H 0.36171 0.16335 0.19871 0.0
H15 H 0.28133 0.21152 0.2061 0.0
H16 H 0.29179 0.23362 0.18452 0.0
O17 O 0.20332 0.07089 0.19956 0.0
H18 H 0.30756 0.05202 0.21187 0.0
H19 H 0.21805 0.00491 0.19853 0.0
H20 H 0.40849 0.21048 0.19929 0.0
H21 H 0.1669 0.21895 0.18938 0.0
H22 H 0.39673 0.27002 0.19233 0.0
H23 H 0.17635 0.25749 0.20274 0.0
O24 O 0.32564 0.12348 0.18736 0.0
H25 H 0.20523 0.04341 0.1675 0.0
H26 H 0.29856 0.01417 0.18984 0.0
H27 H 0.29575 0.97959 0.17582 0.0
H28 H 0.24871 0.994 0.16454 0.0
H29 H 0.20927 0.07756 0.18154 0.0
H30 H 0.22453 0.94979 0.20757 0.0
H31 H 0.27349 0.94566 0.21886 0.0
O32 O 0.31075 0.07667 0.19603 0.0
C33 C 0.2834 0.12932 0.21033 0.0
C34 C 0.29383 0.99871 0.21607 0.0
C35 C 0.24292 0.97208 0.20854 0.0
N36 N 0.26257 0.0316 0.20463 0.0
C37 C 0.28942 0.02961 0.21087 0.0
C38 C 0.23932 0.00341 0.20347 0.0
C39 C 0.2704 0.96978 0.21488 0.0
C40 C 0.21913 0.19376 0.19044 0.0
N41 N 0.25071 0.19157 0.19512 0.0
C42 C 0.19191 0.21743 0.19311 0.0
C43 C 0.19721 0.23902 0.2006 0.0
C44 C 0.22956 0.23675 0.20532 0.0
C45 C 0.25616 0.21276 0.20247 0.0
C46 C 0.34336 0.25558 0.18794 0.0
C47 C 0.35632 0.18923 0.19571 0.0
C48 C 0.31737 0.22838 0.18774 0.0
N49 N 0.32396 0.19577 0.19164 0.0
C50 C 0.38295 0.2158 0.19604 0.0
C51 C 0.37634 0.24919 0.19213 0.0
C52 C 0.3329 0.09324 0.19096 0.0
C53 C 0.22564 0.03665 0.1724 0.0
C54 C 0.2779 0.02059 0.18499 0.0
C55 C 0.27648 1.0009 0.17705 0.0
C56 C 0.25009 0.00899 0.17073 0.0
N57 N 0.25357 0.04747 0.18664 0.0
C58 C 0.22788 0.05576 0.18042 0.0
Co59 Co 0.8495 0.78646 0.44071 0.0
Co60 Co 0.93364 0.75349 0.44628 0.0
O61 O 0.88687 0.7487 0.44011 0.0
C62 C 0.85459 0.7715 0.42109 0.0
O63 O 0.88969 0.76771 0.42179 0.0
C64 C 0.91244 0.67568 0.44952 0.0
O65 O 0.87858 0.68136 0.4474 0.0
O66 O 0.9087 0.76316 0.45785 0.0
O67 O 0.86147 0.7965 0.45348 0.0
H68 H 0.02181 0.81387 0.46692 0.0
H69 H 0.82868 0.71445 0.43399 0.0
O70 O 0.83546 0.77804 0.42796 0.0
H71 H 0.75317 0.73442 0.46067 0.0
H72 H 0.72694 0.83998 0.43472 0.0
H73 H 0.84643 0.85995 0.44837 0.0
H74 H 0.79639 0.78068 0.45569 0.0
H75 H 0.77359 0.79274 0.43416 0.0
O76 O 0.93535 0.70112 0.44931 0.0
H77 H 0.96395 0.80672 0.45897 0.0
H78 H 1.00199 0.71069 0.4468 0.0
H79 H 0.80046 0.9078 0.44915 0.0
H80 H 0.78536 0.66767 0.43866 0.0
H81 H 0.7402 0.89796 0.44229 0.0
H82 H 0.74734 0.67747 0.45212 0.0
O83 O 0.88458 0.82389 0.43675 0.0
H84 H 0.95394 0.68614 0.41758 0.0
H85 H 0.99459 0.78754 0.43626 0.0
H86 H 0.02448 0.77616 0.42182 0.0
H87 H 1.00427 0.72502 0.41238 0.0
H88 H 0.92444 0.6989 0.432 0.0
H89 H 0.06011 0.71665 0.45468 0.0
H90 H 0.07037 0.76862 0.4648 0.0
O91 O 0.93521 0.80585 0.44356 0.0
C92 C 0.88209 0.78387 0.45954 0.0
C93 C 0.01769 0.79116 0.46251 0.0
C94 C 0.03917 0.73657 0.45565 0.0
N95 N 0.97964 0.75845 0.45238 0.0
C96 C 0.98502 0.787 0.45797 0.0
C97 C 0.00616 0.7333 0.45122 0.0
C98 C 0.04492 0.76574 0.46132 0.0
C99 C 0.81199 0.71903 0.4398 0.0
N100 N 0.81511 0.75024 0.44456 0.0
C101 C 0.78761 0.69239 0.44244 0.0
C102 C 0.76633 0.69788 0.45 0.0
C103 C 0.76963 0.72981 0.45481 0.0
C104 C 0.7943 0.75584 0.45198 0.0
C105 C 0.75307 0.84457 0.43775 0.0
C106 C 0.82021 0.85539 0.44541 0.0
C107 C 0.77963 0.81794 0.43744 0.0
N108 N 0.81265 0.82349 0.44128 0.0
C109 C 0.79431 0.88262 0.44585 0.0
C110 C 0.76052 0.87709 0.442 0.0
C111 C 0.91698 0.82918 0.43928 0.0
C112 C 0.96307 0.70843 0.42165 0.0
C113 C 0.98542 0.76546 0.43217 0.0
C114 C 1.00257 0.75902 0.42401 0.0
C115 C 0.99126 0.7303 0.41873 0.0
N116 N 0.95782 0.74387 0.435 0.0
C117 C 0.94659 0.71568 0.42985 0.0
Co118 Co 0.21527 0.34657 0.69083 0.0
Co119 Co 0.25154 0.42798 0.69623 0.0
O120 O 0.25422 0.38197 0.6899 0.0
C121 C 0.22667 0.34871 0.67105 0.0
O122 O 0.22386 0.38393 0.67123 0.0
C123 C 0.32383 0.43263 0.70465 0.0
O124 O 0.30725 0.43409 0.71241 0.0
O125 O 0.24565 0.40167 0.70779 0.0
O126 O 0.2052 0.36037 0.70352 0.0
H127 H 0.2015 0.51446 0.71887 0.0
H128 H 0.2879 0.32369 0.68484 0.0
O129 O 0.22441 0.33064 0.67826 0.0
H130 H 0.26171 0.24998 0.71148 0.0
H131 H 0.15641 0.22626 0.68555 0.0
H132 H 0.14116 0.34761 0.69831 0.0
H133 H 0.21724 0.29399 0.70595 0.0
H134 H 0.20586 0.27056 0.6848 0.0
O135 O 0.30565 0.42753 0.69752 0.0
H136 H 0.20488 0.45725 0.71057 0.0
H137 H 0.29393 0.4965 0.69558 0.0
H138 H 0.09112 0.30403 0.69928 0.0
H139 H 0.33303 0.27968 0.6901 0.0
H140 H 0.09858 0.24285 0.69287 0.0
H141 H 0.32005 0.2425 0.70352 0.0
O142 O 0.17992 0.38318 0.68658 0.0
H143 H 0.30722 0.45023 0.66611 0.0
H144 H 0.21274 0.48865 0.68726 0.0
H145 H 0.21808 0.51907 0.67268 0.0
H146 H 0.26567 0.49998 0.662 0.0
H147 H 0.30068 0.42023 0.68072 0.0
H148 H 0.29159 0.55408 0.70374 0.0
H149 H 0.24509 0.56336 0.71547 0.0
O150 O 0.19771 0.43011 0.69487 0.0
C151 C 0.22208 0.37768 0.70958 0.0
C152 C 0.22187 0.51075 0.71377 0.0
C153 C 0.27243 0.53299 0.70527 0.0
N154 N 0.24951 0.47353 0.70259 0.0
C155 C 0.2239 0.47842 0.70904 0.0
C156 C 0.27363 0.50032 0.70068 0.0
C157 C 0.24634 0.53818 0.71186 0.0
C158 C 0.282 0.30746 0.69066 0.0
N159 N 0.24994 0.31133 0.69506 0.0
C160 C 0.30768 0.28265 0.69361 0.0
C161 C 0.30039 0.26182 0.70115 0.0
C162 C 0.26768 0.26601 0.70563 0.0
C163 C 0.24264 0.29107 0.70247 0.0
C164 C 0.15284 0.25282 0.68838 0.0
C165 C 0.14468 0.321 0.69554 0.0
C166 C 0.18071 0.27807 0.68795 0.0
N167 N 0.17648 0.3116 0.69155 0.0
C168 C 0.11622 0.29645 0.69609 0.0
C169 C 0.12041 0.26214 0.69249 0.0
C170 C 0.17457 0.41431 0.68991 0.0
C171 C 0.28646 0.45888 0.67072 0.0
C172 C 0.23344 0.48005 0.68264 0.0
C173 C 0.23638 0.49746 0.6744 0.0
C174 C 0.2631 0.48675 0.66841 0.0
N175 N 0.25653 0.4528 0.68487 0.0
C176 C 0.28272 0.44209 0.67902 0.0
Co177 Co 0.65777 0.7195 0.94024 0.0
Co178 Co 0.57562 0.75119 0.94726 0.0
O179 O 0.61942 0.75623 0.93986 0.0
C180 C 0.6541 0.74258 0.92078 0.0
O181 O 0.62326 0.75917 0.92198 0.0
C182 C 0.59163 0.8314 0.94685 0.0
O183 O 0.62229 0.82632 0.94266 0.0
O184 O 0.60594 0.7478 0.95819 0.0
O185 O 0.64844 0.71005 0.95325 0.0
H186 H 0.50084 0.69481 0.97154 0.0
H187 H 0.67608 0.79216 0.93329 0.0
O188 O 0.66974 0.72666 0.92725 0.0
H189 H 0.75779 0.77272 0.95883 0.0
H190 H 0.77972 0.66664 0.93317 0.0
H191 H 0.66286 0.64653 0.94814 0.0
H192 H 0.71418 0.72596 0.95441 0.0
H193 H 0.73258 0.71343 0.93289 0.0
O194 O 0.57182 0.8048 0.94906 0.0
H195 H 0.55436 0.70172 0.9619 0.0
H196 H 0.50537 0.79031 0.94868 0.0
H197 H 0.70939 0.59915 0.94864 0.0
H198 H 0.71962 0.83943 0.9374 0.0
H199 H 0.76833 0.60906 0.94111 0.0
H200 H 0.76083 0.82992 0.95028 0.0
O201 O 0.62206 0.68211 0.93679 0.0
H202 H 0.53606 0.80396 0.91781 0.0
H203 H 0.51408 0.7085 0.94003 0.0
H204 H 0.47651 0.71124 0.92648 0.0
H205 H 0.48724 0.75935 0.91526 0.0
H206 H 0.57337 0.79986 0.93137 0.0
H207 H 0.45145 0.78451 0.95823 0.0
H208 H 0.44888 0.73639 0.96974 0.0
O209 O 0.57658 0.69745 0.94587 0.0
C210 C 0.63167 0.72575 0.95958 0.0
C211 C 0.50158 0.71581 0.96653 0.0
C212 C 0.47389 0.76619 0.95907 0.0
N213 N 0.53292 0.74621 0.95469 0.0
C214 C 0.53179 0.71981 0.96104 0.0
C215 C 0.50454 0.76938 0.9537 0.0
C216 C 0.47246 0.73918 0.96552 0.0
C217 C 0.69407 0.78764 0.93885 0.0
N218 N 0.69251 0.75627 0.94358 0.0
C219 C 0.71861 0.81459 0.94117 0.0
C220 C 0.74168 0.80927 0.9484 0.0
C221 C 0.73996 0.7772 0.95321 0.0
C222 C 0.71506 0.75087 0.9507 0.0
C223 C 0.75417 0.66203 0.93648 0.0
C224 C 0.6885 0.65113 0.94489 0.0
C225 C 0.72733 0.68839 0.93634 0.0
N226 N 0.69506 0.68283 0.94055 0.0
C227 C 0.71472 0.62416 0.94517 0.0
C228 C 0.74777 0.62973 0.94095 0.0
C229 C 0.59223 0.67519 0.94067 0.0
C230 C 0.53099 0.78297 0.92267 0.0
C231 C 0.51915 0.72942 0.93517 0.0
C232 C 0.49765 0.73089 0.92752 0.0
C233 C 0.50366 0.7579 0.92123 0.0
N234 N 0.54588 0.7542 0.93657 0.0
C235 C 0.55195 0.78066 0.93041 0.0
Co236 Co 0.29061 0.34561 0.06862 0.0
Co237 Co 0.25604 0.42817 0.06351 0.0
O238 O 0.25256 0.38188 0.0697 0.0
C239 C 0.28024 0.3476 0.08842 0.0
O240 O 0.28386 0.38275 0.08827 0.0
C241 C 0.18399 0.43453 0.05509 0.0
O242 O 0.20076 0.43652 0.04737 0.0
O243 O 0.26143 0.40251 0.05186 0.0
O244 O 0.30044 0.35951 0.05592 0.0
H245 H 0.30753 0.51507 0.04115 0.0
H246 H 0.21774 0.32432 0.0748 0.0
O247 O 0.28168 0.32961 0.0812 0.0
H248 H 0.24078 0.25071 0.04798 0.0
H249 H 0.34668 0.22378 0.07358 0.0
H250 H 0.36436 0.34503 0.06093 0.0
H251 H 0.28658 0.29352 0.05343 0.0
H252 H 0.2984 0.26926 0.07454 0.0
O253 O 0.20196 0.42868 0.06222 0.0
H254 H 0.30313 0.45744 0.04924 0.0
H255 H 0.21494 0.49739 0.06442 0.0
H256 H 0.41324 0.30026 0.05975 0.0
H257 H 0.17129 0.28153 0.06963 0.0
H258 H 0.40455 0.23912 0.06611 0.0
H259 H 0.18268 0.24441 0.05612 0.0
O260 O 0.3271 0.3812 0.07283 0.0
H261 H 0.20079 0.44972 0.09371 0.0
H262 H 0.29608 0.48748 0.07269 0.0
H263 H 0.29137 0.51711 0.08738 0.0
H264 H 0.24338 0.49835 0.098 0.0
H265 H 0.20672 0.42048 0.07899 0.0
H266 H 0.21835 0.55543 0.05648 0.0
H267 H 0.26493 0.56457 0.04475 0.0
O268 O 0.30985 0.42924 0.06485 0.0
C269 C 0.2842 0.37793 0.04996 0.0
C270 C 0.28714 0.51143 0.04625 0.0
C271 C 0.23709 0.53409 0.05485 0.0
N272 N 0.25888 0.47405 0.05731 0.0
C273 C 0.28453 0.47886 0.05086 0.0
C274 C 0.2353 0.50116 0.05933 0.0
C275 C 0.26322 0.53919 0.04827 0.0
C276 C 0.22295 0.30811 0.06895 0.0
N277 N 0.25487 0.31134 0.06445 0.0
C278 C 0.19653 0.28399 0.06604 0.0
C279 C 0.20292 0.26319 0.05845 0.0
C280 C 0.2355 0.26673 0.05388 0.0
C281 C 0.26129 0.29111 0.05698 0.0
C282 C 0.35078 0.25031 0.07078 0.0
C283 C 0.36031 0.31843 0.06368 0.0
C284 C 0.32357 0.27622 0.07132 0.0
N285 N 0.32848 0.30972 0.06775 0.0
C286 C 0.38811 0.29322 0.06301 0.0
C287 C 0.38323 0.25893 0.06658 0.0
C288 C 0.33292 0.41247 0.06962 0.0
C289 C 0.22173 0.45822 0.08913 0.0
C290 C 0.2752 0.47903 0.07728 0.0
C291 C 0.27262 0.49599 0.08558 0.0
C292 C 0.24567 0.48547 0.09154 0.0
N293 N 0.25154 0.45239 0.07495 0.0
C294 C 0.22512 0.44187 0.08077 0.0
Co295 Co 0.65445 0.78463 0.31903 0.0
Co296 Co 0.57129 0.75318 0.31295 0.0
O297 O 0.6161 0.74823 0.31986 0.0
C298 C 0.65448 0.76034 0.33844 0.0
O299 O 0.62636 0.73953 0.3372 0.0
C300 C 0.58751 0.67565 0.3089 0.0
O301 O 0.61943 0.68396 0.30568 0.0
O302 O 0.59968 0.75519 0.30166 0.0
O303 O 0.64385 0.79241 0.30601 0.0
H304 H 0.4925 0.80628 0.289 0.0
H305 H 0.67022 0.71045 0.32559 0.0
O306 O 0.66748 0.77887 0.33203 0.0
H307 H 0.75323 0.72995 0.30033 0.0
H308 H 0.77708 0.83782 0.32518 0.0
H309 H 0.65938 0.85644 0.3105 0.0
H310 H 0.71092 0.77754 0.30494 0.0
H311 H 0.72976 0.79128 0.32601 0.0
O312 O 0.56695 0.69988 0.31204 0.0
H313 H 0.54775 0.80036 0.29806 0.0
H314 H 0.50029 0.71494 0.31283 0.0
H315 H 0.70608 0.90353 0.30944 0.0
H316 H 0.71232 0.66236 0.32127 0.0
H317 H 0.76544 0.89436 0.31681 0.0
H318 H 0.75427 0.67189 0.30854 0.0
O319 O 0.61935 0.82287 0.32244 0.0
H320 H 0.53738 0.70235 0.34294 0.0
H321 H 0.51159 0.79721 0.32082 0.0
H322 H 0.47746 0.79582 0.33495 0.0
H323 H 0.4902 0.74805 0.34613 0.0
H324 H 0.57125 0.70511 0.32876 0.0
H325 H 0.44466 0.71976 0.30387 0.0
H326 H 0.44044 0.76579 0.29188 0.0
O327 O 0.57292 0.80671 0.31379 0.0
C328 C 0.62583 0.77641 0.29992 0.0
C329 C 0.49398 0.78617 0.29422 0.0
C330 C 0.46715 0.73758 0.30256 0.0
N331 N 0.52724 0.75744 0.306 0.0
C332 C 0.52518 0.78272 0.29939 0.0
C333 C 0.49878 0.73491 0.30759 0.0
C334 C 0.46479 0.76342 0.29583 0.0
C335 C 0.68867 0.71516 0.32015 0.0
N336 N 0.68848 0.74718 0.31567 0.0
C337 C 0.71234 0.68766 0.31769 0.0
C338 C 0.73581 0.69298 0.31053 0.0
C339 C 0.73525 0.72554 0.30592 0.0
C340 C 0.7112 0.75242 0.30857 0.0
C341 C 0.75135 0.8421 0.32192 0.0
C342 C 0.68521 0.85216 0.31369 0.0
C343 C 0.7244 0.81589 0.32239 0.0
N344 N 0.6919 0.82103 0.31825 0.0
C345 C 0.71152 0.87896 0.31308 0.0
C346 C 0.7448 0.87381 0.31722 0.0
C347 C 0.589 0.82939 0.31877 0.0
C348 C 0.53165 0.72337 0.33813 0.0
C349 C 0.51772 0.7767 0.32569 0.0
C350 C 0.49809 0.77587 0.33366 0.0
C351 C 0.50521 0.74903 0.33992 0.0
N352 N 0.5438 0.75159 0.32401 0.0
C353 C 0.55072 0.72506 0.33009 0.0
Co354 Co 0.22002 0.15831 0.56831 0.0
Co355 Co 0.25147 0.07601 0.56185 0.0
O356 O 0.25671 0.12027 0.56892 0.0
C357 C 0.22968 0.15243 0.58811 0.0
O358 O 0.22428 0.11756 0.58762 0.0
C359 C 0.33209 0.09125 0.56241 0.0
O360 O 0.32712 0.12201 0.56651 0.0
O361 O 0.24805 0.10517 0.55071 0.0
O362 O 0.20941 0.14728 0.55545 0.0
H363 H 0.19475 0.99891 0.53811 0.0
H364 H 0.29273 0.17768 0.575 0.0
O365 O 0.22957 0.17154 0.58105 0.0
H366 H 0.2733 0.25457 0.54857 0.0
H367 H 0.16856 0.28107 0.57469 0.0
H368 H 0.14616 0.16294 0.56077 0.0
H369 H 0.22624 0.21215 0.55352 0.0
H370 H 0.21516 0.23375 0.57506 0.0
O371 O 0.30529 0.0718 0.56012 0.0
H372 H 0.20177 0.05328 0.54738 0.0
H373 H 0.29062 0.0058 0.56091 0.0
H374 H 0.09893 0.2096 0.56017 0.0
H375 H 0.34038 0.22008 0.57035 0.0
H376 H 0.10999 0.26918 0.56717 0.0
H377 H 0.33085 0.25881 0.55702 0.0
O378 O 0.18245 0.12327 0.57215 0.0
H379 H 0.30142 0.04305 0.59209 0.0
H380 H 0.20963 0.01445 0.56933 0.0
H381 H 0.21169 0.97924 0.58327 0.0
H382 H 0.25795 0.99333 0.59476 0.0
H383 H 0.29813 0.07782 0.57813 0.0
H384 H 0.28476 0.95106 0.55172 0.0
H385 H 0.23644 0.9473 0.54025 0.0
O386 O 0.19759 0.07725 0.56325 0.0
C387 C 0.22554 0.1304 0.54919 0.0
C388 C 0.21584 1.00018 0.5431 0.0
C389 C 0.26639 0.97335 0.55074 0.0
N390 N 0.24639 0.03265 0.55473 0.0
C391 C 0.21989 0.03087 0.54839 0.0
C392 C 0.26963 0.00447 0.5559 0.0
C393 C 0.23926 0.97125 0.5443 0.0
C394 C 0.28834 0.19452 0.56921 0.0
N395 N 0.25685 0.1922 0.56451 0.0
C396 C 0.31544 0.21845 0.5666 0.0
C397 C 0.31009 0.24015 0.55912 0.0
C398 C 0.27783 0.23775 0.55437 0.0
C399 C 0.25135 0.21351 0.55718 0.0
C400 C 0.16343 0.25523 0.57161 0.0
C401 C 0.15125 0.18885 0.56379 0.0
C402 C 0.18969 0.22829 0.57182 0.0
N403 N 0.18348 0.19566 0.5679 0.0
C404 C 0.12437 0.21514 0.56345 0.0
C405 C 0.13058 0.24855 0.56738 0.0
C406 C 0.17543 0.09319 0.56845 0.0
C407 C 0.28135 0.03643 0.5871 0.0
C408 C 0.22995 0.02073 0.57427 0.0
C409 C 0.23095 1.00068 0.58216 0.0
C410 C 0.2569 0.00859 0.5886 0.0
N411 N 0.25428 0.04778 0.57279 0.0
C412 C 0.27954 0.0559 0.57913 0.0
Co413 Co 0.85458 0.72303 0.81935 0.0
Co414 Co 0.9388 0.74812 0.81246 0.0
O415 O 0.89554 0.75668 0.81981 0.0
C416 C 0.85868 0.74629 0.83883 0.0
O417 O 0.8893 0.76333 0.83763 0.0
C418 C 0.92566 0.82686 0.8096 0.0
O419 O 0.89103 0.82075 0.80851 0.0
O420 O 0.90864 0.74817 0.80145 0.0
O421 O 0.86326 0.71362 0.80632 0.0
H422 H 0.00939 0.68836 0.78792 0.0
H423 H 0.8438 0.79756 0.82605 0.0
O424 O 0.84313 0.73034 0.83235 0.0
H425 H 0.75864 0.78429 0.80097 0.0
H426 H 0.72894 0.67916 0.82629 0.0
H427 H 0.84392 0.6511 0.81123 0.0
H428 H 0.79801 0.73393 0.80539 0.0
H429 H 0.77951 0.72226 0.82669 0.0
O430 O 0.94716 0.80105 0.81125 0.0
H431 H 0.95619 0.69891 0.79746 0.0
H432 H 0.01255 0.78049 0.81161 0.0
H433 H 0.7939 0.60739 0.8106 0.0
H434 H 0.80462 0.84842 0.82193 0.0
H435 H 0.7359 0.62132 0.81817 0.0
H436 H 0.76167 0.84202 0.80928 0.0
O437 O 0.88732 0.68283 0.82274 0.0
H438 H 0.98145 0.79663 0.84197 0.0
H439 H 0.99542 0.69918 0.8199 0.0
H440 H 0.03176 0.6981 0.83369 0.0
H441 H 0.02498 0.74714 0.84484 0.0
H442 H 0.94525 0.79639 0.82814 0.0
H443 H 0.06626 0.77102 0.80218 0.0
H444 H 0.06495 0.72457 0.79025 0.0
O445 O 0.93308 0.69473 0.81346 0.0
C446 C 0.88123 0.72824 0.80001 0.0
C447 C 0.01032 0.70864 0.79311 0.0
C448 C 0.04222 0.75505 0.8011 0.0
N449 N 0.98126 0.7402 0.80511 0.0
C450 C 0.98029 0.7147 0.79854 0.0
C451 C 0.01167 0.76037 0.8064 0.0
C452 C 0.04148 0.72898 0.79441 0.0
C453 C 0.82487 0.79431 0.82064 0.0
N454 N 0.82293 0.76257 0.81606 0.0
C455 C 0.80288 0.82332 0.81829 0.0
C456 C 0.77884 0.81975 0.81118 0.0
C457 C 0.77715 0.78737 0.80651 0.0
C458 C 0.79957 0.75895 0.80904 0.0
C459 C 0.75406 0.67281 0.82295 0.0
C460 C 0.8187 0.65745 0.8145 0.0
C461 C 0.78283 0.69707 0.82317 0.0
N462 N 0.81458 0.68932 0.81893 0.0
C463 C 0.7905 0.63255 0.81414 0.0
C464 C 0.75798 0.64037 0.81839 0.0
C465 C 0.91637 0.67378 0.81878 0.0
C466 C 0.98464 0.77511 0.83717 0.0
C467 C 0.992 0.72043 0.82475 0.0
C468 C 0.01282 0.71977 0.83253 0.0
C469 C 0.00903 0.74731 0.83878 0.0
N470 N 0.96802 0.74773 0.82323 0.0
C471 C 0.96428 0.77487 0.82931 0.0
Co472 Co 0.78557 0.65621 0.69126 0.0
Co473 Co 0.76028 0.57161 0.6974 0.0
O474 O 0.75174 0.61573 0.6905 0.0
C475 C 0.77773 0.6508 0.67139 0.0
O476 O 0.78584 0.61644 0.67178 0.0
C477 C 0.68147 0.58549 0.70037 0.0
O478 O 0.68805 0.61998 0.70133 0.0
O479 O 0.76126 0.60005 0.70869 0.0
O480 O 0.79641 0.64544 0.70411 0.0
H481 H 0.8211 0.49681 0.72099 0.0
H482 H 0.71145 0.66916 0.68461 0.0
O483 O 0.77558 0.66933 0.67851 0.0
H484 H 0.72446 0.74764 0.71098 0.0
H485 H 0.82812 0.7827 0.68529 0.0
H486 H 0.8586 0.66592 0.69899 0.0
H487 H 0.77495 0.70933 0.70604 0.0
H488 H 0.78512 0.73213 0.6847 0.0
O489 O 0.70707 0.56365 0.69875 0.0
H490 H 0.81051 0.55141 0.712 0.0
H491 H 0.72678 0.49852 0.69774 0.0
H492 H 0.90226 0.71588 0.69981 0.0
H493 H 0.66039 0.70741 0.68926 0.0
H494 H 0.88713 0.77479 0.69292 0.0
H495 H 0.6667 0.74692 0.70256 0.0
O496 O 0.82588 0.62415 0.68742 0.0
H497 H 0.71092 0.53681 0.66736 0.0
H498 H 0.80766 0.51515 0.68935 0.0
H499 H 0.80785 0.48176 0.67511 0.0
H500 H 0.75918 0.49244 0.66401 0.0
H501 H 0.71196 0.56989 0.68165 0.0
H502 H 0.73627 0.44345 0.70662 0.0
H503 H 0.78382 0.44231 0.71832 0.0
O504 O 0.81388 0.57692 0.69622 0.0
C505 C 0.78171 0.6269 0.71031 0.0
C506 C 0.80036 0.49694 0.71589 0.0
C507 C 0.75272 0.46701 0.70784 0.0
N508 N 0.7682 0.52812 0.70431 0.0
C509 C 0.79428 0.52776 0.71077 0.0
C510 C 0.74741 0.49831 0.70284 0.0
C511 C 0.77941 0.46639 0.7144 0.0
C512 C 0.71449 0.68653 0.69036 0.0
N513 N 0.74615 0.68703 0.69503 0.0
C514 C 0.68545 0.70802 0.69298 0.0
C515 C 0.68899 0.73014 0.70045 0.0
C516 C 0.72138 0.73053 0.70518 0.0
C517 C 0.74983 0.70866 0.70237 0.0
C518 C 0.83502 0.75717 0.68832 0.0
C519 C 0.85174 0.69151 0.69601 0.0
C520 C 0.81082 0.72839 0.68799 0.0
N521 N 0.81926 0.69613 0.69184 0.0
C522 C 0.87661 0.71969 0.69648 0.0
C523 C 0.86811 0.75272 0.69261 0.0
C524 C 0.83497 0.59455 0.6911 0.0
C525 C 0.73221 0.53184 0.67215 0.0
C526 C 0.78643 0.52005 0.68454 0.0
C527 C 0.78665 0.50099 0.6765 0.0
C528 C 0.75932 0.50698 0.67027 0.0
N529 N 0.7597 0.54434 0.68634 0.0
C530 C 0.73287 0.5504 0.68027 0.0
Co531 Co 0.34972 0.2891 0.94026 0.0
Co532 Co 0.43199 0.2563 0.94679 0.0
O533 O 0.38745 0.25184 0.93968 0.0
C534 C 0.35534 0.27307 0.92062 0.0
O535 O 0.39015 0.26738 0.92136 0.0
C536 C 0.41489 0.17625 0.94655 0.0
O537 O 0.38425 0.18152 0.94236 0.0
O538 O 0.40285 0.26058 0.95791 0.0
O539 O 0.36044 0.29888 0.95317 0.0
H540 H 0.51019 0.31204 0.97049 0.0
H541 H 0.32964 0.21722 0.93334 0.0
O542 O 0.33649 0.28114 0.92744 0.0
H543 H 0.25152 0.23649 0.95958 0.0
H544 H 0.22759 0.34282 0.93383 0.0
H545 H 0.34611 0.3624 0.94801 0.0
H546 H 0.29496 0.28301 0.95488 0.0
H547 H 0.27426 0.29559 0.93339 0.0
O548 O 0.43501 0.2027 0.9487 0.0
H549 H 0.45561 0.30582 0.96118 0.0
H550 H 0.50163 0.21592 0.94787 0.0
H551 H 0.30009 0.41024 0.94867 0.0
H552 H 0.28623 0.17011 0.93774 0.0
H553 H 0.24032 0.40059 0.94155 0.0
H554 H 0.24687 0.17956 0.95097 0.0
O555 O 0.38548 0.32608 0.93655 0.0
H556 H 0.46659 0.20272 0.91706 0.0
H557 H 0.49394 0.29721 0.93916 0.0
H558 H 0.52998 0.29341 0.92536 0.0
H559 H 0.51656 0.24576 0.91421 0.0
H560 H 0.43082 0.20791 0.93084 0.0
H561 H 0.55657 0.22099 0.95709 0.0
H562 H 0.56117 0.26942 0.96847 0.0
O563 O 0.43184 0.30997 0.94528 0.0
C564 C 0.37757 0.28302 0.95942 0.0
C565 C 0.50856 0.29089 0.96553 0.0
C566 C 0.53456 0.23977 0.95802 0.0
N567 N 0.47551 0.26072 0.95394 0.0
C568 C 0.47775 0.28729 0.96023 0.0
C569 C 0.50334 0.23698 0.95284 0.0
C570 C 0.53713 0.26695 0.9644 0.0
C571 C 0.31249 0.22159 0.93908 0.0
N572 N 0.31501 0.25275 0.94387 0.0
C573 C 0.28801 0.19479 0.94155 0.0
C574 C 0.26597 0.20009 0.94898 0.0
C575 C 0.2686 0.232 0.95382 0.0
C576 C 0.2934 0.25819 0.95115 0.0
C577 C 0.25351 0.34732 0.93697 0.0
C578 C 0.32011 0.35792 0.94493 0.0
C579 C 0.28008 0.3207 0.93673 0.0
N580 N 0.31283 0.32613 0.94072 0.0
C581 C 0.29418 0.38514 0.94531 0.0
C582 C 0.26066 0.37972 0.94131 0.0
C583 C 0.41583 0.33256 0.94023 0.0
C584 C 0.4729 0.22343 0.9219 0.0
C585 C 0.48778 0.27643 0.93434 0.0
C586 C 0.50838 0.27438 0.92654 0.0
C587 C 0.50086 0.24764 0.92029 0.0
N588 N 0.46051 0.25242 0.93591 0.0
C589 C 0.45287 0.2263 0.92978 0.0
Co590 Co 0.71768 0.84843 0.19033 0.0
Co591 Co 0.75072 0.92942 0.19761 0.0
O592 O 0.75524 0.88598 0.19013 0.0
C593 C 0.74399 0.8506 0.17106 0.0
O594 O 0.76528 0.87809 0.1726 0.0
C595 C 0.83108 0.9127 0.19713 0.0
O596 O 0.82577 0.88265 0.19273 0.0
O597 O 0.74679 0.89874 0.20845 0.0
O598 O 0.70817 0.85725 0.20337 0.0
H599 H 0.69513 0.00365 0.22208 0.0
H600 H 0.79122 0.8293 0.18372 0.0
O601 O 0.72474 0.83718 0.17728 0.0
H602 H 0.76747 0.74632 0.20872 0.0
H603 H 0.66211 0.72855 0.18271 0.0
H604 H 0.64429 0.84435 0.19816 0.0
H605 H 0.72193 0.79106 0.20423 0.0
H606 H 0.71007 0.77454 0.18267 0.0
O607 O 0.80454 0.9324 0.19946 0.0
H608 H 0.70134 0.95065 0.2123 0.0
H609 H 0.79095 0.99884 0.19922 0.0
H610 H 0.59575 0.79896 0.19843 0.0
H611 H 0.83725 0.78469 0.18789 0.0
H612 H 0.60451 0.74056 0.19066 0.0
H613 H 0.8256 0.74278 0.2005 0.0
O614 O 0.68099 0.8849 0.18692 0.0
H615 H 0.80385 0.96891 0.16819 0.0
H616 H 0.709 0.99186 0.19057 0.0
H617 H 0.71216 0.02969 0.17708 0.0
H618 H 0.75996 0.01846 0.16578 0.0
H619 H 0.79939 0.93144 0.18169 0.0
H620 H 0.78587 0.05223 0.20892 0.0
H621 H 0.7376 0.05494 0.22042 0.0
O622 O 0.69681 0.92934 0.19621 0.0
C623 C 0.72425 0.87337 0.20976 0.0
C624 C 0.71621 0.00284 0.21707 0.0
C625 C 0.76716 0.03008 0.20969 0.0
N626 N 0.74629 0.97172 0.20515 0.0
C627 C 0.71981 0.97292 0.2115 0.0
C628 C 0.76995 0.99973 0.20424 0.0
C629 C 0.74006 0.03159 0.21614 0.0
C630 C 0.78566 0.81103 0.18913 0.0
N631 N 0.75372 0.81282 0.19367 0.0
C632 C 0.81197 0.78587 0.1915 0.0
C633 C 0.80545 0.76241 0.19859 0.0
C634 C 0.77287 0.7644 0.2032 0.0
C635 C 0.74721 0.78993 0.20065 0.0
C636 C 0.658 0.75386 0.18613 0.0
C637 C 0.64839 0.81893 0.19481 0.0
C638 C 0.68502 0.78006 0.18612 0.0
N639 N 0.6801 0.81203 0.19047 0.0
C640 C 0.62077 0.79336 0.19496 0.0
C641 C 0.62569 0.76062 0.1906 0.0
C642 C 0.67444 0.91453 0.19087 0.0
C643 C 0.78299 0.97418 0.17308 0.0
C644 C 0.72981 0.98659 0.18568 0.0
C645 C 0.73151 0.00823 0.17806 0.0
C646 C 0.75833 1.00193 0.17172 0.0
N647 N 0.75419 0.95946 0.18699 0.0
C648 C 0.78046 0.95311 0.18079 0.0
Co649 Co 0.15154 0.2231 0.44004 0.0
Co650 Co 0.06781 0.25015 0.4468 0.0
O651 O 0.11091 0.25662 0.4394 0.0
C652 C 0.16427 0.20626 0.42099 0.0
O653 O 0.15815 0.17253 0.42312 0.0
C654 C 0.0814 0.32848 0.45042 0.0
O655 O 0.11364 0.32136 0.45362 0.0
O656 O 0.09814 0.24998 0.45782 0.0
O657 O 0.14384 0.21519 0.45315 0.0
H658 H 0.99528 0.19536 0.47172 0.0
H659 H 0.1622 0.29565 0.43229 0.0
O660 O 0.16073 0.23082 0.4269 0.0
H661 H 0.24731 0.28861 0.45757 0.0
H662 H 0.27774 0.18019 0.43328 0.0
H663 H 0.16288 0.15169 0.44837 0.0
H664 H 0.20829 0.23705 0.45383 0.0
H665 H 0.22673 0.22275 0.43273 0.0
O666 O 0.06141 0.30337 0.44747 0.0
H667 H 0.04863 0.20283 0.46205 0.0
H668 H 0.99562 0.28585 0.44761 0.0
H669 H 0.21324 0.10842 0.44913 0.0
H670 H 0.201 0.34775 0.43575 0.0
H671 H 0.27118 0.12257 0.44154 0.0
H672 H 0.2439 0.34443 0.44848 0.0
O673 O 0.11824 0.18229 0.43733 0.0
H674 H 0.02895 0.29524 0.41663 0.0
H675 H 0.00804 0.20373 0.43992 0.0
H676 H 0.97173 0.20233 0.42612 0.0
H677 H 0.98199 0.24842 0.41437 0.0
H678 H 0.06495 0.29538 0.4305 0.0
H679 H 0.94181 0.27945 0.45717 0.0
H680 H 0.94135 0.23385 0.46931 0.0
O681 O 0.07166 0.19672 0.44614 0.0
C682 C 0.12559 0.23015 0.45937 0.0
C683 C 0.99511 0.21527 0.46644 0.0
C684 C 0.96512 0.26249 0.45828 0.0
N685 N 0.02521 0.24459 0.45423 0.0
C686 C 0.02522 0.21957 0.46092 0.0
C687 C 0.99572 0.26605 0.4529 0.0
C688 C 0.96488 0.23689 0.46509 0.0
C689 C 0.18101 0.2939 0.43779 0.0
N690 N 0.18313 0.26325 0.44281 0.0
C691 C 0.20282 0.32353 0.43974 0.0
C692 C 0.22685 0.32167 0.44689 0.0
C693 C 0.22876 0.29037 0.452 0.0
C694 C 0.20652 0.26128 0.44986 0.0
C695 C 0.25264 0.17373 0.43663 0.0
C696 C 0.18803 0.15807 0.44507 0.0
C697 C 0.22366 0.19772 0.43633 0.0
N698 N 0.19187 0.18975 0.44054 0.0
C699 C 0.21645 0.13346 0.44552 0.0
C700 C 0.24894 0.14141 0.44126 0.0
C701 C 0.08864 0.17447 0.44122 0.0
C702 C 0.0242 0.27503 0.42171 0.0
C703 C 0.01287 0.2237 0.43482 0.0
C704 C 0.99212 0.22287 0.42703 0.0
C705 C 0.99788 0.24874 0.42044 0.0
N706 N 0.0386 0.24962 0.43602 0.0
C707 C 0.04445 0.27502 0.42958 0.0
Co708 Co 0.79065 0.84618 0.56884 0.0
Co709 Co 0.75794 0.9289 0.56305 0.0
O710 O 0.75337 0.8836 0.56974 0.0
C711 C 0.78029 0.84932 0.58867 0.0
O712 O 0.78431 0.88441 0.58846 0.0
C713 C 0.67744 0.91251 0.56337 0.0
O714 O 0.68248 0.88165 0.56743 0.0
O715 O 0.76208 0.90141 0.55168 0.0
O716 O 0.80104 0.85899 0.55607 0.0
H717 H 0.81365 0.01014 0.54 0.0
H718 H 0.7182 0.82513 0.57539 0.0
O719 O 0.78142 0.83111 0.58148 0.0
H720 H 0.73847 0.75182 0.54839 0.0
H721 H 0.84376 0.72329 0.5742 0.0
H722 H 0.86456 0.84355 0.56126 0.0
H723 H 0.78504 0.79414 0.55365 0.0
H724 H 0.79652 0.76989 0.57496 0.0
O725 O 0.70414 0.93239 0.56124 0.0
H726 H 0.80744 0.95443 0.54882 0.0
H727 H 0.71762 0.99852 0.56265 0.0
H728 H 0.91242 0.79764 0.56028 0.0
H729 H 0.67102 0.7828 0.57042 0.0
H730 H 0.90216 0.73699 0.56679 0.0
H731 H 0.68098 0.74586 0.55681 0.0
O732 O 0.82787 0.88119 0.57292 0.0
H733 H 0.70675 0.957 0.59347 0.0
H734 H 0.79861 0.99002 0.57109 0.0
H735 H 0.79565 0.02333 0.58529 0.0
H736 H 0.74934 0.00702 0.5966 0.0
H737 H 0.71093 0.92414 0.57925 0.0
H738 H 0.72267 0.05458 0.55392 0.0
H739 H 0.77106 0.06072 0.54253 0.0
O740 O 0.81175 0.92835 0.56451 0.0
C741 C 0.78492 0.8767 0.54996 0.0
C742 C 0.79253 0.00784 0.54497 0.0
C743 C 0.74143 0.03276 0.55277 0.0
N744 N 0.7624 0.97329 0.5563 0.0
C745 C 0.78894 0.97638 0.55 0.0
C746 C 0.73866 1.0009 0.55768 0.0
C747 C 0.7686 0.03619 0.54638 0.0
C748 C 0.72277 0.80907 0.56948 0.0
N749 N 0.75424 0.81232 0.56479 0.0
C750 C 0.69594 0.78518 0.56669 0.0
C751 C 0.70153 0.76449 0.55905 0.0
C752 C 0.73376 0.76785 0.55431 0.0
C753 C 0.75996 0.79203 0.5573 0.0
C754 C 0.84854 0.74961 0.57133 0.0
C755 C 0.85982 0.81719 0.56407 0.0
C756 C 0.82193 0.77615 0.57176 0.0
N757 N 0.8277 0.80939 0.56812 0.0
C758 C 0.88706 0.79132 0.56351 0.0
C759 C 0.8813 0.75731 0.56717 0.0
C760 C 0.83441 0.91183 0.56945 0.0
C761 C 0.72683 0.96459 0.58856 0.0
C762 C 0.77827 0.98277 0.57594 0.0
C763 C 0.77676 1.00175 0.58399 0.0
C764 C 0.75079 0.99259 0.59032 0.0
N765 N 0.75441 0.95556 0.57421 0.0
C766 C 0.72913 0.94622 0.58044 0.0
Co767 Co 0.15483 0.28511 0.81916 0.0
Co768 Co 0.07045 0.25992 0.81245 0.0
O769 O 0.11396 0.25147 0.8197 0.0
C770 C 0.15215 0.26024 0.83855 0.0
O771 O 0.12317 0.24067 0.83724 0.0
C772 C 0.08346 0.18132 0.80941 0.0
O773 O 0.11765 0.18782 0.80774 0.0
O774 O 0.10025 0.25977 0.80137 0.0
O775 O 0.14587 0.29429 0.80613 0.0
H776 H 0.99886 0.31908 0.78798 0.0
H777 H 0.16532 0.20991 0.82563 0.0
O778 O 0.16638 0.27804 0.83218 0.0
H779 H 0.2512 0.22474 0.80076 0.0
H780 H 0.28029 0.32958 0.82604 0.0
H781 H 0.16527 0.35685 0.81091 0.0
H782 H 0.21169 0.2748 0.80529 0.0
H783 H 0.22986 0.28632 0.82651 0.0
O784 O 0.06218 0.20693 0.81139 0.0
H785 H 0.05242 0.30884 0.79742 0.0
H786 H 0.99679 0.22734 0.81179 0.0
H787 H 0.21515 0.40071 0.8102 0.0
H788 H 0.20459 0.15937 0.82141 0.0
H789 H 0.27317 0.38718 0.81781 0.0
H790 H 0.24795 0.16652 0.80888 0.0
O791 O 0.12207 0.32528 0.82257 0.0
H792 H 0.02914 0.21227 0.84218 0.0
H793 H 0.01397 0.30891 0.81991 0.0
H794 H 0.97822 0.31038 0.83379 0.0
H795 H 0.98561 0.26176 0.84504 0.0
H796 H 0.06471 0.2121 0.82824 0.0
H797 H 0.94271 0.23652 0.80246 0.0
H798 H 0.94348 0.28277 0.79048 0.0
O799 O 0.07616 0.31333 0.81334 0.0
C800 C 0.12765 0.27966 0.79987 0.0
C801 C 0.99817 0.2989 0.7932 0.0
C802 C 0.96667 0.25253 0.80132 0.0
N803 N 0.02773 0.26762 0.80518 0.0
C804 C 0.02841 0.29301 0.79857 0.0
C805 C 0.99742 0.24737 0.80656 0.0
C806 C 0.96711 0.27849 0.7946 0.0
C807 C 0.18444 0.21358 0.82029 0.0
N808 N 0.18656 0.24563 0.81585 0.0
C809 C 0.20648 0.18469 0.81787 0.0
C810 C 0.23074 0.18869 0.81083 0.0
C811 C 0.23256 0.22134 0.80627 0.0
C812 C 0.21008 0.24961 0.80887 0.0
C813 C 0.25516 0.33576 0.82269 0.0
C814 C 0.1905 0.35067 0.81419 0.0
C815 C 0.22647 0.31141 0.82295 0.0
N816 N 0.19471 0.31894 0.81868 0.0
C817 C 0.21862 0.37565 0.81379 0.0
C818 C 0.25115 0.36806 0.81806 0.0
C819 C 0.09295 0.33432 0.81864 0.0
C820 C 0.02569 0.23363 0.83733 0.0
C821 C 0.01765 0.28783 0.8248 0.0
C822 C 0.99717 0.28872 0.83263 0.0
C823 C 1.0013 0.26141 0.83894 0.0
N824 N 0.04163 0.26055 0.82329 0.0
C825 C 0.04572 0.23363 0.82942 0.0
Co826 Co 0.72032 0.65554 0.06889 0.0
Co827 Co 0.74833 0.57162 0.06272 0.0
O828 O 0.75548 0.61601 0.06968 0.0
C829 C 0.73441 0.64991 0.08862 0.0
O830 O 0.73764 0.61486 0.088 0.0
C831 C 0.82697 0.5876 0.0599 0.0
O832 O 0.82002 0.62214 0.0593 0.0
O833 O 0.74675 0.60012 0.05146 0.0
O834 O 0.7106 0.64477 0.05597 0.0
H835 H 0.68985 0.49557 0.03903 0.0
H836 H 0.79358 0.67067 0.07579 0.0
O837 O 0.72847 0.66891 0.0817 0.0
H838 H 0.77951 0.74951 0.04951 0.0
H839 H 0.67305 0.78038 0.0748 0.0
H840 H 0.64751 0.66288 0.06088 0.0
H841 H 0.73001 0.70945 0.05423 0.0
H842 H 0.71773 0.73132 0.07553 0.0
O843 O 0.80168 0.56518 0.06134 0.0
H844 H 0.69885 0.55028 0.04808 0.0
H845 H 0.78382 0.49946 0.06236 0.0
H846 H 0.60221 0.71132 0.05993 0.0
H847 H 0.84365 0.71068 0.07138 0.0
H848 H 0.61486 0.77059 0.06692 0.0
H849 H 0.83681 0.75038 0.05813 0.0
O850 O 0.68104 0.62219 0.07263 0.0
H851 H 0.80011 0.53586 0.09246 0.0
H852 H 0.70211 0.51422 0.07082 0.0
H853 H 0.70335 0.48 0.08493 0.0
H854 H 0.75269 0.49063 0.09586 0.0
H855 H 0.79752 0.56993 0.07832 0.0
H856 H 0.77593 0.44431 0.05342 0.0
H857 H 0.72857 0.44207 0.04168 0.0
O858 O 0.69459 0.57531 0.06388 0.0
C859 C 0.72595 0.62661 0.04981 0.0
C860 C 0.71052 0.49618 0.04414 0.0
C861 C 0.75886 0.46743 0.05221 0.0
N862 N 0.74168 0.52803 0.05578 0.0
C863 C 0.7157 0.52707 0.0493 0.0
C864 C 0.76325 0.49878 0.05724 0.0
C865 C 0.73227 0.46619 0.04563 0.0
C866 C 0.7903 0.68811 0.07007 0.0
N867 N 0.7589 0.68775 0.06529 0.0
C868 C 0.81879 0.7106 0.06758 0.0
C869 C 0.81495 0.73283 0.06014 0.0
C870 C 0.78282 0.73233 0.05529 0.0
C871 C 0.75493 0.70947 0.05798 0.0
C872 C 0.66725 0.7547 0.07171 0.0
C873 C 0.6533 0.68864 0.06391 0.0
C874 C 0.69241 0.72677 0.07212 0.0
N875 N 0.68534 0.69431 0.0682 0.0
C876 C 0.62751 0.71595 0.06336 0.0
C877 C 0.63461 0.74919 0.06729 0.0
C878 C 0.6729 0.59233 0.06897 0.0
C879 C 0.77852 0.53093 0.08775 0.0
C880 C 0.72352 0.51924 0.07556 0.0
C881 C 0.72416 0.49965 0.08353 0.0
C882 C 0.75187 0.5056 0.08965 0.0
N883 N 0.74975 0.54408 0.07374 0.0
C884 C 0.77701 0.55003 0.07971 0.0
Co885 Co 0.35479 0.22219 0.3191 0.0
Co886 Co 0.44045 0.24903 0.3134 0.0
O887 O 0.39464 0.25706 0.3197 0.0
C888 C 0.36117 0.23273 0.3388 0.0
O889 O 0.39609 0.22716 0.33819 0.0
C890 C 0.4238 0.32619 0.30896 0.0
O891 O 0.38898 0.31977 0.30867 0.0
O892 O 0.41424 0.2426 0.30186 0.0
O893 O 0.36603 0.21089 0.30634 0.0
H894 H 0.52273 0.18457 0.29205 0.0
H895 H 0.33999 0.29605 0.32556 0.0
O896 O 0.34159 0.23252 0.33181 0.0
H897 H 0.26253 0.28044 0.29904 0.0
H898 H 0.22861 0.17802 0.32518 0.0
H899 H 0.34631 0.14883 0.31161 0.0
H900 H 0.30194 0.23118 0.30418 0.0
H901 H 0.27863 0.22175 0.32563 0.0
O902 O 0.44604 0.30136 0.31088 0.0
H903 H 0.46593 0.19521 0.30022 0.0
H904 H 0.51198 0.28627 0.31304 0.0
H905 H 0.29693 0.10443 0.31094 0.0
H906 H 0.3006 0.34589 0.32071 0.0
H907 H 0.23755 0.11892 0.31776 0.0
H908 H 0.2616 0.33827 0.30735 0.0
O909 O 0.38721 0.1824 0.32309 0.0
H910 H 0.46621 0.31098 0.34253 0.0
H911 H 0.49885 0.20916 0.32306 0.0
H912 H 0.52945 0.21632 0.33757 0.0
H913 H 0.51323 0.26761 0.34742 0.0
H914 H 0.43599 0.30251 0.32799 0.0
H915 H 0.56915 0.27679 0.30494 0.0
H916 H 0.57485 0.22554 0.29439 0.0
O917 O 0.43786 0.19645 0.31572 0.0
C918 C 0.38672 0.22301 0.30023 0.0
C919 C 0.52061 0.20694 0.29665 0.0
C920 C 0.54665 0.25872 0.30388 0.0
N921 N 0.48567 0.2412 0.30714 0.0
C922 C 0.48853 0.21307 0.30131 0.0
C923 C 0.51416 0.264 0.30842 0.0
C924 C 0.54983 0.22996 0.29796 0.0
C925 C 0.32285 0.29243 0.31978 0.0
N926 N 0.32323 0.26073 0.31517 0.0
C927 C 0.30071 0.32079 0.31705 0.0
C928 C 0.27888 0.31652 0.30954 0.0
C929 C 0.27941 0.2841 0.30487 0.0
C930 C 0.3019 0.25634 0.30779 0.0
C931 C 0.25434 0.17141 0.32218 0.0
C932 C 0.32051 0.15541 0.31456 0.0
C933 C 0.2828 0.19603 0.32243 0.0
N934 N 0.31532 0.18793 0.31861 0.0
C935 C 0.29266 0.13013 0.31418 0.0
C936 C 0.25937 0.13826 0.31801 0.0
C937 C 0.4187 0.17463 0.32024 0.0
C938 C 0.47354 0.28855 0.3383 0.0
C939 C 0.49143 0.23135 0.32732 0.0
C940 C 0.50897 0.23538 0.33553 0.0
C941 C 0.49989 0.26418 0.34104 0.0
N942 N 0.46561 0.25535 0.32468 0.0
C943 C 0.4566 0.28367 0.33005 0.0
H944 H 0.27736 0.37507 0.10551 0.0
H945 H 0.27386 0.34102 0.11957 0.0
H946 H 0.27064 0.24169 0.10475 0.0
H947 H 0.27405 0.27507 0.09076 0.0
H948 H 0.21901 0.28728 0.12516 0.0
H949 H 0.35742 0.23066 0.12237 0.0
H950 H 0.34305 0.26975 0.11614 0.0
H951 H 0.32937 0.22559 0.11265 0.0
C952 C 0.27578 0.34599 0.10525 0.0
C953 C 0.27629 0.32786 0.097 0.0
C954 C 0.27378 0.3266 0.11328 0.0
C955 C 0.27254 0.28883 0.11319 0.0
C956 C 0.27217 0.27078 0.10497 0.0
H957 H 0.28028 0.12291 0.15458 0.0
H958 H 0.27608 0.15496 0.14026 0.0
C959 C 0.27401 0.29002 0.09697 0.0
C960 C 0.27187 0.268 0.12164 0.0
H961 H 0.32077 0.20818 0.13404 0.0
C962 C 0.24128 0.27009 0.12713 0.0
C963 C 0.30082 0.24532 0.12413 0.0
C964 C 0.3347 0.24276 0.11857 0.0
C965 C 0.23869 0.24975 0.13503 0.0
C966 C 0.26786 0.22737 0.1376 0.0
C967 C 0.29836 0.22517 0.13206 0.0
C968 C 0.26815 0.20743 0.14622 0.0
C969 C 0.20443 0.25192 0.14046 0.0
C970 C 0.26521 0.22624 0.1543 0.0
C971 C 0.26742 0.20807 0.16245 0.0
C972 C 0.27309 0.17062 0.16272 0.0
C973 C 0.27579 0.1517 0.15461 0.0
C974 C 0.27347 0.16999 0.14643 0.0
H975 H 0.18117 0.26055 0.13629 0.0
H976 H 0.19786 0.22562 0.14358 0.0
H977 H 0.20796 0.2721 0.14585 0.0
H978 H 0.26202 0.2552 0.15433 0.0
H979 H 0.26533 0.22364 0.16854 0.0
H980 H 0.87537 0.73375 0.40616 0.0
H981 H 0.84234 0.72841 0.39199 0.0
H982 H 0.76058 0.80059 0.40202 0.0
H983 H 0.79228 0.80434 0.41624 0.0
H984 H 0.72936 0.74773 0.39428 0.0
H985 H 0.83703 0.79575 0.3715 0.0
H986 H 0.8502 0.7568 0.37777 0.0
H987 H 0.84113 0.79846 0.38348 0.0
C988 C 0.85046 0.74859 0.40529 0.0
C989 C 0.8364 0.76942 0.4123 0.0
C990 C 0.83169 0.74574 0.39717 0.0
C991 C 0.79914 0.76455 0.39584 0.0
C992 C 0.78551 0.7857 0.40284 0.0
H993 H 0.69814 0.81278 0.34512 0.0
H994 H 0.73189 0.8123 0.35914 0.0
C995 C 0.80373 0.78789 0.41098 0.0
C996 C 0.77834 0.76171 0.38733 0.0
H997 H 0.78418 0.77249 0.3647 0.0
C998 C 0.74139 0.75327 0.38781 0.0
C999 C 0.79379 0.76928 0.37887 0.0
C1000 C 0.83261 0.78094 0.37786 0.0
C1001 C 0.71941 0.75277 0.38016 0.0
C1002 C 0.73506 0.75929 0.37168 0.0
C1003 C 0.77213 0.76723 0.37117 0.0
C1004 C 0.71338 0.75957 0.36328 0.0
C1005 C 0.6794 0.74671 0.38135 0.0
C1006 C 0.69152 0.73017 0.36088 0.0
C1007 C 0.67139 0.73082 0.35295 0.0
C1008 C 0.67358 0.76044 0.34714 0.0
C1009 C 0.69581 0.7896 0.34948 0.0
C1010 C 0.71527 0.78927 0.35748 0.0
H1011 H 0.67047 0.75347 0.38824 0.0
H1012 H 0.66345 0.7631 0.37656 0.0
H1013 H 0.67318 0.71789 0.38019 0.0
H1014 H 0.69039 0.70644 0.36506 0.0
H1015 H 0.65498 0.7077 0.35125 0.0
H1016 H 0.22825 0.1227 0.60498 0.0
H1017 H 0.23131 0.15463 0.61931 0.0
H1018 H 0.24225 0.25553 0.60534 0.0
H1019 H 0.24014 0.22406 0.59109 0.0
H1020 H 0.28827 0.25114 0.61947 0.0
H1021 H 0.14949 0.21344 0.62992 0.0
H1022 H 0.17833 0.17585 0.62754 0.0
H1023 H 0.16588 0.20627 0.61871 0.0
C1024 C 0.23149 0.15165 0.60497 0.0
C1025 C 0.23361 0.17077 0.59687 0.0
C1026 C 0.23298 0.16991 0.61316 0.0
C1027 C 0.23629 0.20759 0.6134 0.0
C1028 C 0.23948 0.22651 0.60533 0.0
H1029 H 0.23122 0.37636 0.654 0.0
H1030 H 0.23521 0.34252 0.63994 0.0
C1031 C 0.23816 0.20838 0.59718 0.0
C1032 C 0.23609 0.22769 0.62199 0.0
H1033 H 0.18458 0.24584 0.6404 0.0
C1034 C 0.26558 0.25 0.62404 0.0
C1035 C 0.20636 0.2264 0.62793 0.0
C1036 C 0.17305 0.20449 0.6259 0.0
C1037 C 0.26635 0.27067 0.63191 0.0
C1038 C 0.23669 0.26926 0.63784 0.0
C1039 C 0.20728 0.24686 0.63582 0.0
C1040 C 0.23583 0.29018 0.64628 0.0
C1041 C 0.29911 0.2934 0.63389 0.0
C1042 C 0.2346 0.272 0.65448 0.0
C1043 C 0.23233 0.29115 0.66248 0.0
C1044 C 0.23087 0.32902 0.66248 0.0
C1045 C 0.23238 0.34727 0.65425 0.0
C1046 C 0.2348 0.32798 0.64621 0.0
H1047 H 0.32255 0.28576 0.62967 0.0
H1048 H 0.29267 0.32205 0.63256 0.0
H1049 H 0.30692 0.29095 0.64103 0.0
H1050 H 0.23529 0.24287 0.65469 0.0
H1051 H 0.23128 0.2761 0.66868 0.0
H1052 H 0.86805 0.79398 0.85268 0.0
H1053 H 0.83328 0.79712 0.86661 0.0
H1054 H 0.773 0.70303 0.85871 0.0
H1055 H 0.80647 0.70064 0.84471 0.0
H1056 H 0.72882 0.75227 0.86479 0.0
H1057 H 0.84189 0.73799 0.88881 0.0
H1058 H 0.84694 0.77569 0.88143 0.0
H1059 H 0.84753 0.7307 0.87698 0.0
C1060 C 0.84763 0.77379 0.85397 0.0
C1061 C 0.84008 0.74704 0.8476 0.0
C1062 C 0.82785 0.7755 0.86195 0.0
C1063 C 0.80075 0.75002 0.86379 0.0
C1064 C 0.79366 0.72305 0.85747 0.0
H1065 H 0.70664 0.69762 0.91476 0.0
H1066 H 0.74033 0.70124 0.9008 0.0
C1067 C 0.81295 0.72166 0.84946 0.0
C1068 C 0.77883 0.75168 0.87213 0.0
H1069 H 0.7844 0.75091 0.89492 0.0
C1070 C 0.741 0.75195 0.87138 0.0
C1071 C 0.79464 0.75094 0.88075 0.0
C1072 C 0.83495 0.74846 0.88207 0.0
C1073 C 0.71859 0.75092 0.87896 0.0
C1074 C 0.73439 0.75088 0.88758 0.0
C1075 C 0.77222 0.75118 0.88833 0.0
C1076 C 0.71245 0.74849 0.8959 0.0
C1077 C 0.67829 0.74844 0.87761 0.0
C1078 C 0.68523 0.77371 0.89784 0.0
C1079 C 0.66532 0.77126 0.90579 0.0
C1080 C 0.67287 0.74404 0.91204 0.0
C1081 C 0.70016 0.71896 0.91009 0.0
C1082 C 0.71957 0.72107 0.90211 0.0
H1083 H 0.6714 0.73846 0.87082 0.0
H1084 H 0.66571 0.73028 0.88262 0.0
H1085 H 0.66624 0.77559 0.87837 0.0
H1086 H 0.67979 0.79568 0.89328 0.0
H1087 H 0.6448 0.79126 0.90715 0.0
H1088 H 0.77566 0.77676 0.59115 0.0
H1089 H 0.77217 0.74372 0.60518 0.0
H1090 H 0.77254 0.84352 0.61983 0.0
H1091 H 0.77621 0.87722 0.60572 0.0
H1092 H 0.82442 0.74896 0.61969 0.0
H1093 H 0.68449 0.78449 0.6299 0.0
H1094 H 0.70003 0.78855 0.61849 0.0
H1095 H 0.71356 0.82108 0.62669 0.0
C1096 C 0.77481 0.7919 0.59732 0.0
C1097 C 0.77629 0.82978 0.59728 0.0
C1098 C 0.77283 0.77285 0.60535 0.0
C1099 C 0.77188 0.79113 0.61353 0.0
C1100 C 0.77285 0.82892 0.61356 0.0
H1101 H 0.76349 0.72194 0.66858 0.0
H1102 H 0.76175 0.75432 0.65445 0.0
C1103 C 0.77506 0.84813 0.6055 0.0
C1104 C 0.77125 0.77027 0.62199 0.0
H1105 H 0.7186 0.74948 0.64 0.0
C1106 C 0.8013 0.74899 0.62414 0.0
C1107 C 0.74104 0.77042 0.62775 0.0
C1108 C 0.70775 0.79212 0.62561 0.0
C1109 C 0.80226 0.7283 0.632 0.0
C1110 C 0.77188 0.7281 0.63775 0.0
C1111 C 0.74178 0.74942 0.63557 0.0
C1112 C 0.77146 0.70739 0.64626 0.0
C1113 C 0.83624 0.70773 0.63419 0.0
C1114 C 0.7767 0.66991 0.64638 0.0
C1115 C 0.77803 0.65115 0.65452 0.0
C1116 C 0.77375 0.66952 0.66266 0.0
C1117 C 0.76716 0.70683 0.66246 0.0
C1118 C 0.76606 0.72549 0.65437 0.0
H1119 H 0.85988 0.71815 0.63042 0.0
H1120 H 0.84238 0.70911 0.64145 0.0
H1121 H 0.83252 0.67906 0.63235 0.0
H1122 H 0.78003 0.65518 0.6402 0.0
H1123 H 0.78287 0.62242 0.65442 0.0
H1124 H 0.37429 0.23236 0.90602 0.0
H1125 H 0.3404 0.22573 0.89201 0.0
H1126 H 0.26169 0.30238 0.90146 0.0
H1127 H 0.29426 0.3076 0.91554 0.0
H1128 H 0.2284 0.24859 0.8944 0.0
H1129 H 0.33625 0.29016 0.87087 0.0
H1130 H 0.34847 0.25193 0.87752 0.0
H1131 H 0.34091 0.2948 0.88281 0.0
C1132 C 0.3499 0.24795 0.90505 0.0
C1133 C 0.33694 0.27049 0.91186 0.0
C1134 C 0.33063 0.24431 0.89702 0.0
C1135 C 0.29865 0.26395 0.89559 0.0
C1136 C 0.28614 0.28683 0.90238 0.0
H1137 H 0.19683 0.31158 0.84523 0.0
H1138 H 0.23079 0.31034 0.85919 0.0
C1139 C 0.30488 0.28987 0.91043 0.0
C1140 C 0.27733 0.26033 0.88718 0.0
H1141 H 0.28214 0.26832 0.86447 0.0
C1142 C 0.24019 0.25297 0.88785 0.0
C1143 C 0.29252 0.26632 0.87862 0.0
C1144 C 0.33163 0.2766 0.87739 0.0
C1145 C 0.21775 0.25221 0.88028 0.0
C1146 C 0.23306 0.25746 0.87171 0.0
C1147 C 0.27034 0.26409 0.87102 0.0
C1148 C 0.21085 0.25824 0.8634 0.0
C1149 C 0.17766 0.24732 0.88163 0.0
C1150 C 0.18793 0.22952 0.86109 0.0
C1151 C 0.16769 0.2306 0.85317 0.0
C1152 C 0.17079 0.25998 0.84731 0.0
C1153 C 0.19384 0.28856 0.84961 0.0
C1154 C 0.21342 0.2878 0.85758 0.0
H1155 H 0.16934 0.25441 0.88855 0.0
H1156 H 0.16193 0.2641 0.87689 0.0
H1157 H 0.17054 0.21868 0.88051 0.0
H1158 H 0.18617 0.20593 0.86531 0.0
H1159 H 0.1506 0.20794 0.8515 0.0
H1160 H 0.7716 0.62912 0.10366 0.0
H1161 H 0.77735 0.66254 0.11775 0.0
H1162 H 0.7067 0.74496 0.1074 0.0
H1163 H 0.70254 0.71281 0.09327 0.0
H1164 H 0.76024 0.7754 0.1152 0.0
H1165 H 0.70915 0.66966 0.13807 0.0
H1166 H 0.74822 0.65573 0.13191 0.0
H1167 H 0.70675 0.6653 0.12609 0.0
C1168 C 0.75718 0.65426 0.10445 0.0
C1169 C 0.73664 0.66834 0.09737 0.0
C1170 C 0.76027 0.67327 0.11252 0.0
C1171 C 0.742 0.70613 0.11373 0.0
C1172 C 0.72117 0.71981 0.10667 0.0
H1173 H 0.69118 0.80876 0.16389 0.0
H1174 H 0.69258 0.77526 0.14988 0.0
C1175 C 0.71874 0.70132 0.09858 0.0
C1176 C 0.74495 0.72709 0.12221 0.0
H1177 H 0.73267 0.72229 0.14481 0.0
C1178 C 0.75411 0.76375 0.12168 0.0
C1179 C 0.73666 0.71212 0.13067 0.0
C1180 C 0.72429 0.67366 0.13173 0.0
C1181 C 0.75454 0.78593 0.12928 0.0
C1182 C 0.74711 0.77077 0.13777 0.0
C1183 C 0.73858 0.73397 0.13833 0.0
C1184 C 0.74624 0.79273 0.14611 0.0
C1185 C 0.76147 0.82565 0.12804 0.0
C1186 C 0.77581 0.81409 0.1487 0.0
C1187 C 0.77468 0.83408 0.15664 0.0
C1188 C 0.74436 0.83227 0.16227 0.0
C1189 C 0.71493 0.81076 0.1597 0.0
C1190 C 0.71577 0.79143 0.15169 0.0
H1191 H 0.75566 0.8344 0.12108 0.0
H1192 H 0.74476 0.84199 0.13267 0.0
H1193 H 0.79034 0.83138 0.1294 0.0
H1194 H 0.80007 0.81481 0.14467 0.0
H1195 H 0.798 0.84995 0.15852 0.0
H1196 H 0.16919 0.16311 0.40629 0.0
H1197 H 0.20464 0.17359 0.39276 0.0
H1198 H 0.23601 0.27792 0.40269 0.0
H1199 H 0.19982 0.26801 0.41616 0.0
H1200 H 0.22137 0.2802 0.385 0.0
H1201 H 0.31335 0.16638 0.39194 0.0
H1202 H 0.26707 0.15236 0.39147 0.0
H1203 H 0.28153 0.18289 0.4001 0.0
C1204 C 0.18333 0.18845 0.40556 0.0
C1205 C 0.18185 0.21461 0.41233 0.0
C1206 C 0.20388 0.19427 0.39786 0.0
C1207 C 0.22387 0.2261 0.39683 0.0
C1208 C 0.22113 0.25299 0.40338 0.0
H1209 H 0.39257 0.23498 0.35548 0.0
H1210 H 0.36175 0.23813 0.36999 0.0
C1211 C 0.20029 0.24733 0.41107 0.0
C1212 C 0.24776 0.23107 0.38893 0.0
H1213 H 0.31577 0.19099 0.37716 0.0
C1214 C 0.24223 0.26088 0.38333 0.0
C1215 C 0.27569 0.20641 0.38686 0.0
C1216 C 0.28507 0.17545 0.39296 0.0
C1217 C 0.2627 0.26577 0.37551 0.0
C1218 C 0.28883 0.23967 0.37311 0.0
C1219 C 0.29548 0.21078 0.37893 0.0
C1220 C 0.30794 0.24054 0.36437 0.0
C1221 C 0.25612 0.29892 0.36993 0.0
C1222 C 0.28805 0.24072 0.35639 0.0
C1223 C 0.30551 0.2392 0.34814 0.0
C1224 C 0.34338 0.23684 0.34764 0.0
C1225 C 0.36341 0.23684 0.35562 0.0
C1226 C 0.34582 0.23861 0.36392 0.0
H1227 H 0.24564 0.32141 0.37407 0.0
H1228 H 0.28115 0.30798 0.36652 0.0
H1229 H 0.2355 0.29279 0.36477 0.0
H1230 H 0.25883 0.24111 0.35654 0.0
H1231 H 0.2891 0.23902 0.34215 0.0
H1232 H 0.25774 0.09999 0.22604 0.0
H1233 H 0.27517 0.11627 0.24134 0.0
H1234 H 0.34999 0.19478 0.231 0.0
H1235 H 0.33253 0.17942 0.21583 0.0
H1236 H 0.34251 0.11333 0.24947 0.0
H1237 H 0.29274 0.25391 0.24882 0.0
H1238 H 0.28009 0.2212 0.24047 0.0
H1239 H 0.32296 0.24378 0.23979 0.0
C1240 C 0.2777 0.12089 0.22703 0.0
C1241 C 0.29341 0.13857 0.21967 0.0
C1242 C 0.28768 0.13013 0.23577 0.0
C1243 C 0.31337 0.15726 0.23732 0.0
C1244 C 0.32944 0.17446 0.22999 0.0
H1245 H 0.41871 0.24671 0.28465 0.0
H1246 H 0.4024 0.23018 0.26927 0.0
C1247 C 0.31949 0.16539 0.22129 0.0
C1248 C 0.32433 0.16706 0.24655 0.0
H1249 H 0.33083 0.23792 0.26102 0.0
C1250 C 0.33973 0.1405 0.25202 0.0
C1251 C 0.32085 0.20261 0.24985 0.0
C1252 C 0.30295 0.23195 0.24446 0.0
C1253 C 0.35227 0.14865 0.26064 0.0
C1254 C 0.34899 0.1842 0.26391 0.0
C1255 C 0.33362 0.21077 0.25845 0.0
C1256 C 0.35955 0.19386 0.27316 0.0
C1257 C 0.36939 0.11928 0.26617 0.0
C1258 C 0.3406 0.17922 0.2804 0.0
C1259 C 0.34965 0.18866 0.28913 0.0
C1260 C 0.37791 0.21308 0.29086 0.0
C1261 C 0.39691 0.22779 0.28357 0.0
C1262 C 0.38762 0.21841 0.27479 0.0
H1263 H 0.37785 0.09608 0.26198 0.0
H1264 H 0.39329 0.12961 0.26984 0.0
H1265 H 0.34956 0.10943 0.27116 0.0
H1266 H 0.31848 0.16069 0.27928 0.0
H1267 H 0.33428 0.17676 0.29454 0.0
H1268 H 0.83097 0.83128 0.46539 0.0
H1269 H 0.81633 0.84775 0.48068 0.0
H1270 H 0.89907 0.77623 0.49043 0.0
H1271 H 0.91458 0.75986 0.47502 0.0
H1272 H 0.79203 0.80473 0.49417 0.0
H1273 H 0.92164 0.86908 0.50373 0.0
H1274 H 0.91031 0.85881 0.49228 0.0
H1275 H 0.92608 0.82391 0.49963 0.0
C1276 C 0.84634 0.81905 0.47074 0.0
C1277 C 0.87408 0.79416 0.46893 0.0
C1278 C 0.83782 0.82856 0.47951 0.0
C1279 C 0.85681 0.81358 0.4867 0.0
C1280 C 0.88451 0.7887 0.48497 0.0
H1281 H 0.83484 0.82823 0.544 0.0
H1282 H 0.85107 0.81404 0.52864 0.0
C1283 C 0.89321 0.77919 0.47615 0.0
C1284 C 0.84657 0.8234 0.49599 0.0
H1285 H 0.87848 0.86095 0.51528 0.0
C1286 C 0.81089 0.81717 0.49878 0.0
C1287 C 0.87118 0.83972 0.50198 0.0
C1288 C 0.90936 0.84862 0.49925 0.0
C1289 C 0.79931 0.82624 0.50743 0.0
C1290 C 0.82395 0.8424 0.51342 0.0
C1291 C 0.85962 0.84865 0.51065 0.0
C1292 C 0.81364 0.85172 0.52272 0.0
C1293 C 0.76105 0.8177 0.51016 0.0
C1294 C 0.78732 0.87797 0.5245 0.0
C1295 C 0.77783 0.8863 0.53334 0.0
C1296 C 0.79457 0.8685 0.54053 0.0
C1297 C 0.82116 0.84246 0.53867 0.0
C1298 C 0.83063 0.83428 0.52987 0.0
H1299 H 0.74793 0.79859 0.50547 0.0
H1300 H 0.76034 0.80602 0.51699 0.0
H1301 H 0.74499 0.84289 0.51023 0.0
H1302 H 0.77427 0.89215 0.51907 0.0
H1303 H 0.75745 0.90662 0.53452 0.0
H1304 H 0.25359 0.40369 0.72501 0.0
H1305 H 0.23916 0.38671 0.74047 0.0
H1306 H 0.15525 0.31613 0.73094 0.0
H1307 H 0.16954 0.33229 0.71561 0.0
H1308 H 0.17411 0.39274 0.74998 0.0
H1309 H 0.21436 0.24969 0.74688 0.0
H1310 H 0.22691 0.28327 0.73873 0.0
H1311 H 0.18256 0.26358 0.73852 0.0
C1312 C 0.23213 0.38452 0.72621 0.0
C1313 C 0.21305 0.36913 0.71903 0.0
C1314 C 0.22391 0.37484 0.73505 0.0
C1315 C 0.19665 0.34953 0.73684 0.0
C1316 C 0.17702 0.33495 0.72971 0.0
H1317 H 0.09514 0.2578 0.7842 0.0
H1318 H 0.11179 0.27498 0.76889 0.0
C1319 C 0.18518 0.34447 0.72092 0.0
C1320 C 0.18796 0.33867 0.74615 0.0
H1321 H 0.18053 0.26542 0.75986 0.0
C1322 C 0.17581 0.36497 0.75217 0.0
C1323 C 0.19004 0.30236 0.74899 0.0
C1324 C 0.2045 0.27313 0.74297 0.0
C1325 C 0.16489 0.35581 0.76087 0.0
C1326 C 0.16661 0.31947 0.76367 0.0
C1327 C 0.17896 0.2932 0.75768 0.0
C1328 C 0.1568 0.30842 0.77288 0.0
C1329 C 0.15086 0.38499 0.76696 0.0
C1330 C 0.17701 0.32093 0.78015 0.0
C1331 C 0.16772 0.31114 0.78886 0.0
C1332 C 0.13799 0.28842 0.79051 0.0
C1333 C 0.11814 0.27532 0.78318 0.0
C1334 C 0.12759 0.28513 0.77444 0.0
H1335 H 0.14293 0.40946 0.76317 0.0
H1336 H 0.12721 0.37537 0.77085 0.0
H1337 H 0.17234 0.39266 0.77176 0.0
H1338 H 0.20006 0.33836 0.77909 0.0
H1339 H 0.18383 0.32171 0.7943 0.0
H1340 H 0.75269 0.5965 0.03432 0.0
H1341 H 0.7386 0.61394 0.01889 0.0
H1342 H 0.66593 0.69562 0.0286 0.0
H1343 H 0.68009 0.67905 0.04392 0.0
H1344 H 0.67263 0.61421 0.0101 0.0
H1345 H 0.72856 0.75238 0.01139 0.0
H1346 H 0.7384 0.719 0.01981 0.0
H1347 H 0.69655 0.74353 0.02012 0.0
C1348 C 0.73389 0.61833 0.03317 0.0
C1349 C 0.71782 0.63652 0.04039 0.0
C1350 C 0.72585 0.62823 0.02435 0.0
C1351 C 0.70176 0.65658 0.02259 0.0
C1352 C 0.68531 0.67433 0.02978 0.0
H1353 H 0.60337 0.75193 0.97532 0.0
H1354 H 0.62022 0.73476 0.9906 0.0
C1355 C 0.69334 0.66458 0.03856 0.0
C1356 C 0.69273 0.66703 0.01327 0.0
H1357 H 0.6911 0.73852 0.99888 0.0
C1358 C 0.67696 0.64129 0.00762 0.0
C1359 C 0.69826 0.70245 0.01005 0.0
C1360 C 0.71669 0.73085 0.01563 0.0
C1361 C 0.66581 0.65022 0.99892 0.0
C1362 C 0.67098 0.68572 0.99575 0.0
C1363 C 0.68693 0.71141 1.00136 0.0
C1364 C 0.6609 0.6964 0.98652 0.0
C1365 C 0.6479 0.62181 0.99325 0.0
C1366 C 0.67859 0.68094 0.97919 0.0
C1367 C 0.66918 0.69071 0.97049 0.0
C1368 C 0.64187 0.71632 0.9689 0.0
C1369 C 0.62447 0.73213 0.97628 0.0
C1370 C 0.63404 0.72236 0.98502 0.0
H1371 H 0.63814 0.59881 0.99733 0.0
H1372 H 0.62474 0.63327 0.98949 0.0
H1373 H 0.66768 0.61134 0.98833 0.0
H1374 H 0.69982 0.66132 0.98021 0.0
H1375 H 0.68333 0.67797 0.96501 0.0
H1376 H 0.33387 0.32998 0.04367 0.0
H1377 H 0.34847 0.31579 0.02823 0.0
H1378 H 0.26966 0.39288 0.01914 0.0
H1379 H 0.25501 0.40788 0.0347 0.0
H1380 H 0.30379 0.28845 0.01518 0.0
H1381 H 0.35983 0.42091 0.00497 0.0
H1382 H 0.35235 0.40904 0.01652 0.0
H1383 H 0.3151 0.42243 0.00959 0.0
C1384 C 0.31959 0.34419 0.03843 0.0
C1385 C 0.29317 0.37018 0.04047 0.0
C1386 C 0.32804 0.33592 0.02958 0.0
C1387 C 0.31046 0.35347 0.02253 0.0
C1388 C 0.28403 0.37944 0.02449 0.0
H1389 H 0.32649 0.33101 0.96504 0.0
H1390 H 0.31034 0.34697 0.9803 0.0
C1391 C 0.27554 0.38784 0.03338 0.0
C1392 C 0.3195 0.34364 0.01317 0.0
H1393 H 0.3543 0.37668 0.99368 0.0
C1394 C 0.31487 0.30773 0.01048 0.0
C1395 C 0.33402 0.36882 0.00705 0.0
C1396 C 0.34097 0.4074 0.00967 0.0
C1397 C 0.32405 0.29637 1.00182 0.0
C1398 C 0.33876 0.32148 0.99573 0.0
C1399 C 0.34314 0.35746 0.99838 0.0
C1400 C 0.34898 0.31119 0.98648 0.0
C1401 C 0.31728 0.25775 0.99921 0.0
C1402 C 0.37639 0.28589 0.98486 0.0
C1403 C 0.3858 0.27653 0.97609 0.0
C1404 C 0.36799 0.29243 0.96878 0.0
C1405 C 0.34075 0.318 0.97047 0.0
C1406 C 0.33146 0.3273 0.97921 0.0
H1407 H 0.29826 0.24425 1.00387 0.0
H1408 H 0.30618 0.25603 0.99233 0.0
H1409 H 0.34318 0.24277 0.99936 0.0
H1410 H 0.39071 0.2736 0.99039 0.0
H1411 H 0.40705 0.25698 0.97505 0.0
H1412 H 0.59484 0.7497 0.28453 0.0
H1413 H 0.61072 0.76467 0.26904 0.0
H1414 H 0.69394 0.83627 0.27846 0.0
H1415 H 0.67837 0.82188 0.29385 0.0
H1416 H 0.64819 0.86646 0.26527 0.0
H1417 H 0.702 0.733 0.25507 0.0
H1418 H 0.65767 0.73287 0.25997 0.0
H1419 H 0.69591 0.74546 0.26664 0.0
C1420 C 0.61665 0.76847 0.2833 0.0
C1421 C 0.63535 0.78442 0.29047 0.0
C1422 C 0.62578 0.77689 0.27445 0.0
C1423 C 0.65378 0.80131 0.2726 0.0
C1424 C 0.67234 0.81729 0.27973 0.0
H1425 H 0.75131 0.90026 0.22555 0.0
H1426 H 0.73443 0.88286 0.24078 0.0
C1427 C 0.66335 0.8089 0.28855 0.0
C1428 C 0.66341 0.81117 0.26329 0.0
H1429 H 0.69884 0.77784 0.24391 0.0
C1430 C 0.65927 0.84711 0.26059 0.0
C1431 C 0.67785 0.78586 0.25721 0.0
C1432 C 0.68396 0.74717 0.25985 0.0
C1433 C 0.66882 0.8584 0.25194 0.0
C1434 C 0.68369 0.8332 0.24588 0.0
C1435 C 0.68759 0.79717 0.24857 0.0
C1436 C 0.69469 0.84348 0.23667 0.0
C1437 C 0.66215 0.89704 0.24932 0.0
C1438 C 0.67878 0.82643 0.2293 0.0
C1439 C 0.68859 0.83603 0.22061 0.0
C1440 C 0.71471 0.86289 0.21906 0.0
C1441 C 0.73101 0.87962 0.22647 0.0
C1442 C 0.72121 0.86987 0.23519 0.0
H1443 H 0.64205 0.91009 0.25377 0.0
H1444 H 0.68778 0.91233 0.24985 0.0
H1445 H 0.65243 0.89898 0.24232 0.0
H1446 H 0.65839 0.8059 0.23028 0.0
H1447 H 0.67541 0.82247 0.2151 0.0
H1448 H 0.1815 0.18802 0.46504 0.0
H1449 H 0.19777 0.1721 0.48027 0.0
H1450 H 0.11121 0.23821 0.49033 0.0
H1451 H 0.09399 0.25387 0.47498 0.0
H1452 H 0.21946 0.21342 0.49427 0.0
H1453 H 0.09183 0.14273 0.50264 0.0
H1454 H 0.10337 0.15544 0.49136 0.0
H1455 H 0.08582 0.18837 0.49901 0.0
C1456 C 0.16575 0.19931 0.47045 0.0
C1457 C 0.1362 0.22216 0.46874 0.0
C1458 C 0.17521 0.19013 0.47919 0.0
C1459 C 0.15541 0.20345 0.48645 0.0
C1460 C 0.12641 0.22695 0.48482 0.0
H1461 H 0.17524 0.17924 0.54363 0.0
H1462 H 0.15964 0.19619 0.5284 0.0
C1463 C 0.11676 0.23611 0.47604 0.0
C1464 C 0.1655 0.19263 0.49568 0.0
H1465 H 0.13395 0.15039 0.51441 0.0
C1466 C 0.2008 0.19955 0.49866 0.0
C1467 C 0.14119 0.17432 0.5014 0.0
C1468 C 0.10354 0.16443 0.49843 0.0
C1469 C 0.21224 0.1892 0.50724 0.0
C1470 C 0.18787 0.17111 0.51296 0.0
C1471 C 0.15259 0.16421 0.51 0.0
C1472 C 0.198 0.1603 0.52217 0.0
C1473 C 0.25006 0.19836 0.51021 0.0
C1474 C 0.22464 0.13414 0.52374 0.0
C1475 C 0.23371 0.12417 0.5325 0.0
C1476 C 0.21628 0.14026 0.53984 0.0
C1477 C 0.18943 0.16629 0.53818 0.0
C1478 C 0.18035 0.17606 0.52946 0.0
H1479 H 0.26296 0.21849 0.50574 0.0
H1480 H 0.24999 0.20904 0.51714 0.0
H1481 H 0.26681 0.17361 0.51013 0.0
H1482 H 0.23822 0.12127 0.51818 0.0
H1483 H 0.25435 0.10394 0.53351 0.0
H1484 H 0.82879 0.67852 0.716 0.0
H1485 H 0.84449 0.69467 0.73124 0.0
H1486 H 0.77026 0.61493 0.74127 0.0
H1487 H 0.75483 0.59773 0.72591 0.0
H1488 H 0.80313 0.72142 0.7445 0.0
H1489 H 0.86148 0.59035 0.75488 0.0
H1490 H 0.85142 0.6008 0.74337 0.0
H1491 H 0.81591 0.58749 0.75087 0.0
C1492 C 0.81575 0.66416 0.72141 0.0
C1493 C 0.79056 0.63662 0.71969 0.0
C1494 C 0.8248 0.67356 0.73015 0.0
C1495 C 0.80898 0.65574 0.73742 0.0
C1496 C 0.78344 0.62854 0.73577 0.0
H1497 H 0.82652 0.68405 0.7946 0.0
H1498 H 0.80943 0.66788 0.77942 0.0
C1499 C 0.77446 0.61889 0.72698 0.0
C1500 C 0.81905 0.66636 0.74667 0.0
H1501 H 0.85547 0.63484 0.76614 0.0
C1502 C 0.81467 0.70249 0.74922 0.0
C1503 C 0.83428 0.6417 0.75281 0.0
C1504 C 0.84141 0.603 0.75034 0.0
C1505 C 0.82468 0.71451 0.75777 0.0
C1506 C 0.83972 0.68983 0.76391 0.0
C1507 C 0.84398 0.6537 0.76139 0.0
C1508 C 0.85023 0.70069 0.77308 0.0
C1509 C 0.8185 0.75337 0.76024 0.0
C1510 C 0.87904 0.72454 0.77457 0.0
C1511 C 0.88911 0.73391 0.7833 0.0
C1512 C 0.87048 0.71957 0.79069 0.0
C1513 C 0.84154 0.69578 0.78911 0.0
C1514 C 0.83167 0.68637 0.78042 0.0
H1515 H 0.80044 0.7672 0.75541 0.0
H1516 H 0.80655 0.75545 0.76703 0.0
H1517 H 0.84476 0.76771 0.76032 0.0
H1518 H 0.89401 0.73555 0.76898 0.0
H1519 H 0.91161 0.75212 0.78425 0.0
H1520 H 0.11568 0.10569 0.18774 0.0
H1521 H 0.05728 0.0752 0.18847 0.0
H1522 H 0.0955 0.01069 0.21052 0.0
H1523 H 0.15453 0.03975 0.20947 0.0
H1524 H 0.063 0.96948 0.19947 0.0
H1525 H 0.97398 0.08683 0.20465 0.0
H1526 H 0.9999 0.09167 0.19462 0.0
H1527 H 0.02243 0.0903 0.2053 0.0
C1528 C 0.11141 0.08543 0.19284 0.0
C1529 C 0.13963 0.07529 0.19859 0.0
C1530 C 0.07788 0.06808 0.19329 0.0
C1531 C 0.07152 0.04098 0.19966 0.0
C1532 C 0.09955 0.03149 0.20554 0.0
H1533 H 0.85423 0.96031 0.20972 0.0
H1534 H 0.9135 0.98877 0.21087 0.0
C1535 C 0.13327 0.04825 0.20497 0.0
C1536 C 0.03652 0.02108 0.19991 0.0
H1537 H 0.94502 0.03219 0.20019 0.0
C1538 C 0.03722 0.98326 0.19972 0.0
C1539 C 1.00273 0.03881 0.20037 0.0
C1540 C 0.9997 0.0791 0.20134 0.0
C1541 C 0.0053 0.96279 0.19987 0.0
C1542 C 0.97149 0.98057 0.19982 0.0
C1543 C 0.97081 0.01838 0.20013 0.0
C1544 C 0.93645 0.96076 0.19952 0.0
C1545 C 0.00839 0.92234 0.2003 0.0
C1546 C 0.92944 0.93507 0.19283 0.0
C1547 C 0.89577 0.91802 0.19232 0.0
C1548 C 0.86806 0.92709 0.19832 0.0
C1549 C 0.87509 0.95266 0.20502 0.0
C1550 C 0.90895 0.96908 0.20565 0.0
H1551 H 0.03438 0.91392 0.20336 0.0
H1552 H 0.986 0.9103 0.20422 0.0
H1553 H 0.00757 0.91124 0.19342 0.0
H1554 H 0.94962 0.92891 0.18783 0.0
H1555 H 0.89096 0.89893 0.18698 0.0
H1556 H 0.01814 0.35103 0.44309 0.0
H1557 H 0.99062 0.41027 0.44395 0.0
H1558 H 0.08185 0.44936 0.45897 0.0
H1559 H 0.11005 0.3896 0.45812 0.0
H1560 H 0.97171 0.44803 0.45966 0.0
H1561 H 0.06946 0.5238 0.43861 0.0
H1562 H 0.06705 0.47528 0.43859 0.0
H1563 H 0.08846 0.49839 0.44769 0.0
C1564 C 0.03263 0.37213 0.44655 0.0
C1565 C 0.06638 0.36546 0.45056 0.0
C1566 C 0.01672 0.40604 0.44704 0.0
C1567 C 0.03419 0.43422 0.45149 0.0
C1568 C 0.06811 0.42801 0.45541 0.0
H1569 H 0.97465 0.65781 0.45801 0.0
H1570 H 1.00234 0.59861 0.45924 0.0
C1571 C 0.08416 0.39387 0.45493 0.0
C1572 C 0.01614 0.46974 0.4521 0.0
H1573 H 0.02211 0.55695 0.44515 0.0
C1574 C 0.98274 0.47192 0.45652 0.0
C1575 C 0.03057 0.50074 0.44797 0.0
C1576 C 0.06571 0.49961 0.44288 0.0
C1577 C 0.96344 0.50441 0.45696 0.0
C1578 C 0.97765 0.53534 0.45273 0.0
C1579 C 0.01123 0.53318 0.44838 0.0
C1580 C 0.95851 0.57044 0.45275 0.0
C1581 C 0.92835 0.50544 0.46207 0.0
C1582 C 0.9242 0.57427 0.44883 0.0
C1583 C 0.90803 0.60829 0.44817 0.0
C1584 C 0.92621 0.63898 0.4513 0.0
C1585 C 0.96 0.63475 0.45547 0.0
C1586 C 0.97593 0.60091 0.45618 0.0
H1587 H 0.9262 0.48271 0.46686 0.0
H1588 H 0.92548 0.53108 0.4658 0.0
H1589 H 0.90554 0.50332 0.45729 0.0
H1590 H 0.91052 0.55121 0.44599 0.0
H1591 H 0.88216 0.61074 0.44485 0.0
H1592 H 0.37349 0.43845 0.71814 0.0
H1593 H 0.43414 0.46429 0.71727 0.0
H1594 H 0.42052 0.48107 0.68894 0.0
H1595 H 0.36051 0.4541 0.6897 0.0
H1596 H 0.48615 0.45837 0.6922 0.0
H1597 H 0.45623 0.56943 0.71567 0.0
H1598 H 0.44926 0.52614 0.72067 0.0
H1599 H 0.42159 0.54003 0.71139 0.0
C1600 C 0.38357 0.4473 0.71171 0.0
C1601 C 0.36206 0.44429 0.704 0.0
C1602 C 0.41812 0.46247 0.71124 0.0
C1603 C 0.4316 0.47567 0.70309 0.0
C1604 C 0.41068 0.47142 0.69532 0.0
H1605 H 0.6171 0.62208 0.69902 0.0
H1606 H 0.55599 0.59641 0.69932 0.0
C1607 C 0.37636 0.45582 0.69576 0.0
C1608 C 0.46747 0.49375 0.70261 0.0
H1609 H 0.51813 0.56133 0.71174 0.0
C1610 C 0.49303 0.48099 0.69644 0.0
C1611 C 0.47631 0.52389 0.70799 0.0
C1612 C 0.44927 0.54094 0.71423 0.0
C1613 C 0.52732 0.49685 0.69566 0.0
C1614 C 0.53691 0.5256 0.70142 0.0
C1615 C 0.51105 0.539 0.70742 0.0
C1616 C 0.5738 0.54156 0.70142 0.0
C1617 C 0.55262 0.48296 0.68855 0.0
C1618 C 0.6041 0.51955 0.70273 0.0
C1619 C 0.63885 0.53403 0.70245 0.0
C1620 C 0.64422 0.57108 0.70105 0.0
C1621 C 0.61387 0.59345 0.70009 0.0
C1622 C 0.57896 0.57878 0.70025 0.0
H1623 H 0.53756 0.47017 0.68297 0.0
H1624 H 0.56965 0.50485 0.68577 0.0
H1625 H 0.57055 0.46221 0.6915 0.0
H1626 H 0.60091 0.49101 0.70396 0.0
H1627 H 0.66157 0.51607 0.70337 0.0
H1628 H 0.39986 0.1163 0.93661 0.0
H1629 H 0.4298 0.05775 0.93741 0.0
H1630 H 0.4922 0.0943 0.96002 0.0
H1631 H 0.46376 0.15343 0.95891 0.0
H1632 H 0.5346 0.06239 0.94916 0.0
H1633 H 0.41592 0.97386 0.95321 0.0
H1634 H 0.41243 1.00025 0.94323 0.0
H1635 H 0.41257 0.02212 0.95399 0.0
C1636 C 0.41951 0.11161 0.94185 0.0
C1637 C 0.42929 0.13939 0.94773 0.0
C1638 C 0.43654 0.07801 0.94233 0.0
C1639 C 0.46292 0.07115 0.94888 0.0
C1640 C 0.47197 0.09873 0.95491 0.0
H1641 H 0.54211 0.85409 0.95907 0.0
H1642 H 0.51336 0.91311 0.96007 0.0
C1643 C 0.45556 0.13251 0.9543 0.0
C1644 C 0.4827 0.03618 0.94915 0.0
H1645 H 0.47119 0.945 0.94912 0.0
C1646 C 0.52066 0.03674 0.94924 0.0
C1647 C 0.46474 1.00254 0.94939 0.0
C1648 C 0.42419 0.99963 0.95005 0.0
C1649 C 0.54104 0.00486 0.94946 0.0
C1650 C 0.52309 0.97123 0.9492 0.0
C1651 C 0.48513 0.97066 0.94922 0.0
C1652 C 0.54289 0.93626 0.94897 0.0
C1653 C 0.58157 0.00778 0.9502 0.0
C1654 C 0.56949 0.92945 0.94247 0.0
C1655 C 0.58668 0.89593 0.94205 0.0
C1656 C 0.57687 0.86817 0.94795 0.0
C1657 C 0.55035 0.87499 0.95445 0.0
C1658 C 0.53376 0.9087 0.955 0.0
H1659 H 0.58973 0.03356 0.95337 0.0
H1660 H 0.59307 0.9853 0.95417 0.0
H1661 H 0.59355 0.00715 0.94341 0.0
H1662 H 0.57631 0.94969 0.93755 0.0
H1663 H 0.60653 0.89128 0.93686 0.0
H1664 H 0.14666 0.45408 0.0701 0.0
H1665 H 0.08636 0.48028 0.07091 0.0
H1666 H 0.07432 0.46779 0.0424 0.0
H1667 H 0.13523 0.44261 0.04149 0.0
H1668 H 0.05393 0.53335 0.04749 0.0
H1669 H 0.98924 0.43355 0.06983 0.0
H1670 H 0.02904 0.4529 0.07466 0.0
H1671 H 0.03263 0.42579 0.06472 0.0
C1672 C 0.13098 0.45628 0.06401 0.0
C1673 C 0.14572 0.44599 0.05573 0.0
C1674 C 0.09638 0.47124 0.06449 0.0
C1675 C 0.07547 0.4756 0.05674 0.0
C1676 C 0.08987 0.46467 0.04848 0.0
H1677 H 0.84694 0.51923 0.05584 0.0
H1678 H 0.90756 0.49445 0.05484 0.0
C1679 C 0.12464 0.45009 0.04798 0.0
C1680 C 0.03927 0.49294 0.05716 0.0
H1681 H 0.95689 0.48788 0.06732 0.0
C1682 C 0.03263 0.5233 0.0518 0.0
C1683 C 0.01134 0.47972 0.06272 0.0
C1684 C 0.01574 0.446 0.06824 0.0
C1685 C 0.99896 0.54077 0.05184 0.0
C1686 C 0.97139 0.52817 0.0576 0.0
C1687 C 0.97808 0.49783 0.06297 0.0
C1688 C 0.93471 0.54456 0.05785 0.0
C1689 C 0.993 0.57187 0.04553 0.0
C1690 C 0.92951 0.58122 0.05982 0.0
C1691 C 0.89457 0.59572 0.06028 0.0
C1692 C 0.86425 0.57361 0.05895 0.0
C1693 C 0.86964 0.53701 0.05697 0.0
C1694 C 0.90438 0.52274 0.05639 0.0
H1695 H 0.01277 0.57169 0.03994 0.0
H1696 H 0.96535 0.57128 0.04267 0.0
H1697 H 0.99642 0.5975 0.04923 0.0
H1698 H 0.95239 0.59849 0.06118 0.0
H1699 H 0.89127 0.62393 0.0619 0.0
H1700 H 0.61937 0.61496 0.30173 0.0
H1701 H 0.59259 0.55448 0.30058 0.0
H1702 H 0.49678 0.59224 0.31394 0.0
H1703 H 0.52296 0.65187 0.31524 0.0
H1704 H 0.56113 0.51069 0.31618 0.0
H1705 H 0.46267 0.54509 0.28946 0.0
H1706 H 0.50368 0.57043 0.29127 0.0
H1707 H 0.46586 0.57627 0.29862 0.0
C1708 C 0.59268 0.61028 0.30445 0.0
C1709 C 0.57327 0.6384 0.3085 0.0
C1710 C 0.57742 0.57582 0.30377 0.0
C1711 C 0.54249 0.56925 0.30704 0.0
C1712 C 0.52349 0.59699 0.31124 0.0
H1713 H 0.39064 0.39182 0.3113 0.0
H1714 H 0.41955 0.45138 0.31044 0.0
C1715 C 0.53868 0.63111 0.31198 0.0
C1716 C 0.5256 0.53332 0.30631 0.0
H1717 H 0.45475 0.4889 0.29674 0.0
C1718 C 0.53817 0.50568 0.31186 0.0
C1719 C 0.49527 0.52729 0.30078 0.0
C1720 C 0.48108 0.5562 0.29463 0.0
C1721 C 0.52066 0.47222 0.31217 0.0
C1722 C 0.49034 0.46603 0.30659 0.0
C1723 C 0.47794 0.49369 0.301 0.0
C1724 C 0.47171 0.43072 0.3064 0.0
C1725 C 0.5341 0.44422 0.31868 0.0
C1726 C 0.49102 0.39973 0.30407 0.0
C1727 C 0.47477 0.36601 0.30463 0.0
C1728 C 0.43862 0.36254 0.30738 0.0
C1729 C 0.41852 0.39374 0.30918 0.0
C1730 C 0.43503 0.42767 0.30871 0.0
H1731 H 0.55021 0.4565 0.32415 0.0
H1732 H 0.51133 0.42901 0.32169 0.0
H1733 H 0.55175 0.4249 0.3151 0.0
H1734 H 0.51898 0.40153 0.30201 0.0
H1735 H 0.49081 0.34252 0.30303 0.0
H1736 H 0.65437 0.96147 0.55108 0.0
H1737 H 0.59549 0.9909 0.55029 0.0
H1738 H 0.55926 0.92889 0.57297 0.0
H1739 H 0.61755 0.89789 0.57345 0.0
H1740 H 0.50674 0.9347 0.56179 0.0
H1741 H 0.56439 0.07082 0.56591 0.0
H1742 H 0.58186 0.04927 0.55612 0.0
H1743 H 0.59138 0.03075 0.56701 0.0
C1744 C 0.63368 0.95383 0.55583 0.0
C1745 C 0.64062 0.92746 0.56235 0.0
C1746 C 0.60014 0.97102 0.55545 0.0
C1747 C 0.57318 0.96311 0.56176 0.0
C1748 C 0.57964 0.93578 0.56807 0.0
H1749 H 0.39134 0.10566 0.57271 0.0
H1750 H 0.44939 0.07425 0.57256 0.0
C1751 C 0.61296 0.91796 0.56833 0.0
C1752 C 0.53837 0.98331 0.5618 0.0
H1753 H 0.50245 0.06803 0.56163 0.0
C1754 C 0.50585 0.96387 0.56181 0.0
C1755 C 0.53697 0.02143 0.56202 0.0
C1756 C 0.57052 0.04425 0.56287 0.0
C1757 C 0.47218 0.98131 0.56192 0.0
C1758 C 0.47081 0.01943 0.5616 0.0
C1759 C 0.50332 0.03887 0.56172 0.0
C1760 C 0.43603 0.03968 0.56138 0.0
C1761 C 0.43857 0.95854 0.56265 0.0
C1762 C 0.40943 0.03167 0.55499 0.0
C1763 C 0.37599 0.04912 0.55518 0.0
C1764 C 0.36881 0.07583 0.56159 0.0
C1765 C 0.39612 0.08533 0.56767 0.0
C1766 C 0.4293 0.06728 0.5676 0.0
H1767 H 0.44446 0.93204 0.56577 0.0
H1768 H 0.41742 0.97215 0.56667 0.0
H1769 H 0.42772 0.95335 0.55586 0.0
H1770 H 0.4143 0.01156 0.5499 0.0
H1771 H 0.35558 0.04145 0.55036 0.0
H1772 H 0.01308 0.16114 0.81116 0.0
H1773 H 0.98774 0.10078 0.81069 0.0
H1774 H 0.09381 0.05664 0.80626 0.0
H1775 H 0.11978 0.11747 0.80674 0.0
H1776 H 0.99185 0.04903 0.79653 0.0
H1777 H 0.05359 1.00037 0.8282 0.0
H1778 H 0.0508 0.04755 0.8254 0.0
H1779 H 0.08407 0.01955 0.82014 0.0
C1780 C 0.03123 0.13873 0.81009 0.0
C1781 C 0.06861 0.14424 0.80901 0.0
C1782 C 0.01657 0.10418 0.80981 0.0
C1783 C 0.03887 0.07423 0.80852 0.0
C1784 C 0.07618 0.07943 0.80737 0.0
H1785 H 0.99654 0.84567 0.80852 0.0
H1786 H 0.02257 0.90565 0.80785 0.0
C1787 C 0.09095 0.11419 0.80761 0.0
C1788 C 0.02268 0.03771 0.80839 0.0
H1789 H 0.01885 0.95874 0.82 0.0
C1790 C 0.99776 0.0292 0.80164 0.0
C1791 C 0.03032 0.01204 0.8151 0.0
C1792 C 0.05593 0.02023 0.82267 0.0
C1793 C 0.98068 0.99544 0.80134 0.0
C1794 C 0.9881 0.96981 0.80809 0.0
C1795 C 0.01308 0.9784 0.81484 0.0
C1796 C 0.97131 0.93345 0.80817 0.0
C1797 C 0.95554 0.98728 0.79367 0.0
C1798 C 0.93364 0.92893 0.80857 0.0
C1799 C 0.91847 0.89434 0.80889 0.0
C1800 C 0.94078 0.86375 0.80894 0.0
C1801 C 0.97845 0.86854 0.80854 0.0
C1802 C 0.99348 0.90291 0.80815 0.0
H1803 H 0.96025 0.00556 0.78791 0.0
H1804 H 0.95876 0.95907 0.79136 0.0
H1805 H 0.92724 0.99098 0.79591 0.0
H1806 H 0.91598 0.95211 0.80879 0.0
H1807 H 0.8894 0.8916 0.80926 0.0
H1808 H 0.62465 0.90244 0.17758 0.0
H1809 H 0.56775 0.93461 0.17508 0.0
H1810 H 0.58734 0.99854 0.19865 0.0
H1811 H 0.64442 0.96768 0.20099 0.0
H1812 H 0.5087 0.9392 0.18461 0.0
H1813 H 0.56354 0.07643 0.18135 0.0
H1814 H 0.59212 0.03715 0.18123 0.0
H1815 H 0.578 0.0568 0.19168 0.0
C1816 C 0.61687 0.92348 0.1822 0.0
C1817 C 0.63926 0.93266 0.18944 0.0
C1818 C 0.58439 0.94191 0.18075 0.0
C1819 C 0.57366 0.96973 0.18653 0.0
C1820 C 0.59557 0.97817 0.19389 0.0
H1821 H 0.36347 0.03919 0.20063 0.0
H1822 H 0.42126 0.00998 0.19823 0.0
C1823 C 0.62812 0.96016 0.19528 0.0
C1824 C 0.53875 0.98877 0.18523 0.0
H1825 H 0.50042 0.07236 0.1855 0.0
C1826 C 0.50698 0.96833 0.18466 0.0
C1827 C 0.53634 0.02682 0.18504 0.0
C1828 C 0.5694 0.0505 0.18475 0.0
C1829 C 0.47289 0.9848 0.18447 0.0
C1830 C 0.47041 0.02273 0.18516 0.0
C1831 C 0.5022 0.04327 0.18515 0.0
C1832 C 0.4353 0.04128 0.18653 0.0
C1833 C 0.4399 0.96125 0.18358 0.0
C1834 C 0.42452 0.06998 0.18102 0.0
C1835 C 0.39148 0.08744 0.18249 0.0
C1836 C 0.36868 0.07639 0.18949 0.0
C1837 C 0.38001 0.04814 0.19509 0.0
C1838 C 0.41302 0.03109 0.19368 0.0
H1839 H 0.44625 0.93612 0.17988 0.0
H1840 H 0.43037 0.95341 0.19034 0.0
H1841 H 0.41766 0.9754 0.18006 0.0
H1842 H 0.44149 0.07862 0.17552 0.0
H1843 H 0.38358 0.10914 0.17807 0.0
H1844 H 0.98763 0.84636 0.442 0.0
H1845 H 0.01631 0.90468 0.44068 0.0
H1846 H 0.91585 0.9513 0.43191 0.0
H1847 H 0.88654 0.89209 0.43299 0.0
H1848 H 0.9812 0.97655 0.42254 0.0
H1849 H 0.99242 0.98255 0.45951 0.0
H1850 H 0.01089 0.94237 0.45467 0.0
H1851 H 0.96326 0.95102 0.45385 0.0
C1852 C 0.97149 0.86867 0.43964 0.0
C1853 C 0.93458 0.8644 0.43764 0.0
C1854 C 0.98805 0.90213 0.43892 0.0
C1855 C 0.96808 0.93231 0.43633 0.0
C1856 C 0.93165 0.9282 0.43395 0.0
H1857 H 0.02668 0.1495 0.44881 0.0
H1858 H 0.99801 0.09153 0.44679 0.0
C1859 C 0.91496 0.89441 0.43459 0.0
C1860 C 0.98509 0.96826 0.43674 0.0
H1861 H 0.02486 0.02655 0.45132 0.0
C1862 C 0.9906 0.9877 0.42882 0.0
C1863 C 0.99706 0.9827 0.44497 0.0
C1864 C 0.99036 0.96378 0.45375 0.0
C1865 C 0.00833 0.02117 0.4289 0.0
C1866 C 0.02125 0.03504 0.43711 0.0
C1867 C 0.01533 0.01566 0.44503 0.0
C1868 C 0.03881 0.07073 0.43783 0.0
C1869 C 0.01248 0.0417 0.42027 0.0
C1870 C 0.07161 0.07834 0.43351 0.0
C1871 C 0.08825 0.11195 0.43461 0.0
C1872 C 0.07239 0.13828 0.4401 0.0
C1873 C 0.03974 0.13015 0.44448 0.0
C1874 C 0.02317 0.09689 0.44334 0.0
H1875 H 0.99419 0.0313 0.41498 0.0
H1876 H 0.00686 0.07075 0.42128 0.0
H1877 H 0.04066 0.03899 0.41785 0.0
H1878 H 0.08455 0.05819 0.42938 0.0
H1879 H 0.11344 0.11723 0.43118 0.0
H1880 H 0.12226 0.39855 0.67743 0.0
H1881 H 0.06567 0.43115 0.67477 0.0
H1882 H 0.09138 0.50389 0.6963 0.0
H1883 H 0.14802 0.47258 0.69879 0.0
H1884 H 0.00899 0.44062 0.68493 0.0
H1885 H 0.06422 0.575 0.67759 0.0
H1886 H 0.09238 0.53543 0.678 0.0
H1887 H 0.08122 0.55942 0.68811 0.0
C1888 C 0.11592 0.42167 0.68155 0.0
C1889 C 0.13985 0.43307 0.68827 0.0
C1890 C 0.08362 0.44033 0.68 0.0
C1891 C 0.07464 0.47065 0.68517 0.0
C1892 C 0.09821 0.4815 0.692 0.0
H1893 H 0.87056 0.54676 0.70163 0.0
H1894 H 0.92807 0.5175 0.6988 0.0
C1895 C 0.13053 0.46323 0.69347 0.0
C1896 C 0.03969 0.4897 0.68391 0.0
H1897 H 1.00242 0.57374 0.68308 0.0
C1898 C 0.00761 0.46968 0.68436 0.0
C1899 C 0.03762 0.52758 0.68293 0.0
C1900 C 0.07076 0.55049 0.68152 0.0
C1901 C 0.97376 0.48662 0.68446 0.0
C1902 C 0.97192 0.5247 0.68441 0.0
C1903 C 1.0038 0.54461 0.68333 0.0
C1904 C 0.93757 0.54414 0.68615 0.0
C1905 C 0.94032 0.46344 0.68474 0.0
C1906 C 0.92458 0.57055 0.68023 0.0
C1907 C 0.89172 0.58805 0.68193 0.0
C1908 C 0.87138 0.57929 0.68956 0.0
C1909 C 0.88521 0.55378 0.69561 0.0
C1910 C 0.91802 0.53673 0.69396 0.0
H1911 H 0.94519 0.437 0.68149 0.0
H1912 H 0.93288 0.45821 0.6918 0.0
H1913 H 0.9172 0.47672 0.68136 0.0
H1914 H 0.93949 0.57707 0.67421 0.0
H1915 H 0.88176 0.60758 0.67715 0.0
H1916 H 0.40077 0.38381 0.92748 0.0
H1917 H 0.43165 0.44151 0.92521 0.0
H1918 H 0.49994 0.41963 0.94792 0.0
H1919 H 0.47041 0.36188 0.95002 0.0
H1920 H 0.4371 0.49914 0.9353 0.0
H1921 H 0.57469 0.44688 0.93002 0.0
H1922 H 0.53561 0.41791 0.93004 0.0
H1923 H 0.55698 0.43059 0.9404 0.0
C1924 C 0.42252 0.39126 0.93195 0.0
C1925 C 0.43332 0.36804 0.93887 0.0
C1926 C 0.44018 0.4242 0.93063 0.0
C1927 C 0.46883 0.43454 0.93624 0.0
C1928 C 0.47888 0.41177 0.94329 0.0
H1929 H 0.5395 0.64446 0.95083 0.0
H1930 H 0.50976 0.58685 0.9486 0.0
C1931 C 0.46165 0.37879 0.94454 0.0
C1932 C 0.48723 0.4698 0.93507 0.0
H1933 H 0.57062 0.509 0.93476 0.0
C1934 C 0.46628 0.50125 0.93504 0.0
C1935 C 0.5253 0.47273 0.93449 0.0
C1936 C 0.54936 0.44016 0.93363 0.0
C1937 C 0.48238 0.53546 0.93497 0.0
C1938 C 0.5205 0.53833 0.93525 0.0
C1939 C 0.54141 0.50691 0.93474 0.0
C1940 C 0.53911 0.57341 0.93653 0.0
C1941 C 0.45823 0.56812 0.93462 0.0
C1942 C 0.56689 0.58447 0.93075 0.0
C1943 C 0.58468 0.61728 0.93213 0.0
C1944 C 0.57487 0.63967 0.93931 0.0
C1945 C 0.54746 0.62818 0.94516 0.0
C1946 C 0.53011 0.5953 0.94384 0.0
H1947 H 0.43236 0.56192 0.93119 0.0
H1948 H 0.45167 0.57672 0.94153 0.0
H1949 H 0.47145 0.59088 0.93109 0.0
H1950 H 0.57461 0.56785 0.92512 0.0
H1951 H 0.60569 0.62532 0.92751 0.0
H1952 H 0.62503 0.60539 0.08267 0.0
H1953 H 0.56765 0.57421 0.08552 0.0
H1954 H 0.58193 0.51257 0.06135 0.0
H1955 H 0.63922 0.54245 0.05863 0.0
H1956 H 0.50606 0.57 0.07652 0.0
H1957 H 0.56277 0.43326 0.07875 0.0
H1958 H 0.59092 0.47289 0.0788 0.0
H1959 H 0.57572 0.45372 0.06839 0.0
C1960 C 0.61583 0.58519 0.07797 0.0
C1961 C 0.63688 0.57613 0.07048 0.0
C1962 C 0.58315 0.56731 0.07962 0.0
C1963 C 0.571 0.54021 0.07379 0.0
C1964 C 0.59133 0.53232 0.06613 0.0
H1965 H 0.36102 0.46947 0.06055 0.0
H1966 H 0.41802 0.50003 0.06309 0.0
C1967 C 0.62401 0.54975 0.06454 0.0
C1968 C 0.53651 0.52083 0.07543 0.0
H1969 H 0.49919 0.43684 0.07497 0.0
C1970 C 0.50463 0.54086 0.07634 0.0
C1971 C 0.53456 0.48276 0.07547 0.0
C1972 C 0.56792 0.45947 0.07541 0.0
C1973 C 0.47075 0.52395 0.07666 0.0
C1974 C 0.46863 0.48605 0.07575 0.0
C1975 C 0.50064 0.46591 0.07548 0.0
C1976 C 0.43368 0.46714 0.07439 0.0
C1977 C 0.43761 0.547 0.07789 0.0
C1978 C 0.42405 0.43717 0.07962 0.0
C1979 C 0.39152 0.41892 0.07804 0.0
C1980 C 0.36806 0.43043 0.07123 0.0
C1981 C 0.37813 0.46011 0.06595 0.0
C1982 C 0.41066 0.47794 0.06745 0.0
H1983 H 0.444 0.57163 0.08179 0.0
H1984 H 0.42757 0.55575 0.07125 0.0
H1985 H 0.41573 0.53213 0.08137 0.0
H1986 H 0.44159 0.42803 0.08495 0.0
H1987 H 0.38458 0.39615 0.08223 0.0
H1988 H 0.48705 0.1526 0.31648 0.0
H1989 H 0.51273 0.09318 0.31807 0.0
H1990 H 0.4124 0.05384 0.3289 0.0
H1991 H 0.38608 0.11447 0.32756 0.0
H1992 H 0.48071 0.02768 0.33762 0.0
H1993 H 0.47856 0.01262 0.30073 0.0
H1994 H 0.49947 0.0535 0.30448 0.0
H1995 H 0.45219 0.04619 0.3065 0.0
C1996 C 0.47029 0.13174 0.31935 0.0
C1997 C 0.43429 0.13849 0.32188 0.0
C1998 C 0.48515 0.09762 0.32022 0.0
C1999 C 0.46435 0.06915 0.32349 0.0
C2000 C 0.42882 0.07565 0.32634 0.0
H2001 H 0.52411 0.85063 0.31205 0.0
H2002 H 0.49302 0.9071 0.31428 0.0
C2003 C 0.41383 0.1102 0.32555 0.0
C2004 C 0.47962 0.03245 0.32328 0.0
H2005 H 0.51468 0.97096 0.3088 0.0
C2006 C 0.48779 0.01493 0.33134 0.0
C2007 C 0.48861 0.01597 0.31507 0.0
C2008 C 0.47898 0.03284 0.30619 0.0
C2009 C 0.50564 0.98152 0.33138 0.0
C2010 C 0.51603 0.96583 0.32315 0.0
C2011 C 0.50708 0.98317 0.31511 0.0
C2012 C 0.53465 0.93062 0.32256 0.0
C2013 C 0.51282 0.96318 0.34019 0.0
C2014 C 0.56866 0.92488 0.32649 0.0
C2015 C 0.58662 0.89199 0.32532 0.0
C2016 C 0.57098 0.86458 0.32012 0.0
C2017 C 0.53704 0.87079 0.31618 0.0
C2018 C 0.51908 0.90323 0.31743 0.0
H2019 H 0.49523 0.97388 0.34558 0.0
H2020 H 0.50854 0.93369 0.33966 0.0
H2021 H 0.5413 0.96792 0.34216 0.0
H2022 H 0.58161 0.94602 0.33029 0.0
H2023 H 0.6128 0.8882 0.32841 0.0
H2024 H 0.86424 0.96544 0.55952 0.0
H2025 H 0.92215 0.99487 0.56157 0.0
H2026 H 0.94321 0.92848 0.58465 0.0
H2027 H 0.88528 0.89765 0.58242 0.0
H2028 H 0.94707 0.03453 0.57484 0.0
H2029 H 0.03482 0.91441 0.57081 0.0
H2030 H 0.98723 0.91344 0.56832 0.0
H2031 H 1.00254 0.91118 0.57972 0.0
C2032 C 0.88115 0.95683 0.56502 0.0
C2033 C 0.87013 0.929 0.57078 0.0
C2034 C 0.91432 0.97384 0.5662 0.0
C2035 C 0.93732 0.96376 0.57321 0.0
C2036 C 0.92633 0.93623 0.57907 0.0
H2037 H 0.12693 0.10497 0.58206 0.0
H2038 H 0.06952 0.07364 0.58461 0.0
C2039 C 0.89315 0.91872 0.57781 0.0
C2040 C 0.97255 0.98253 0.57425 0.0
H2041 H 0.06375 0.96954 0.57365 0.0
C2042 C 0.97262 0.02031 0.57464 0.0
C2043 C 0.00588 0.96398 0.57394 0.0
C2044 C 0.00781 0.92356 0.5731 0.0
C2045 C 0.00491 0.04011 0.57436 0.0
C2046 C 0.03824 0.02157 0.57398 0.0
C2047 C 0.03821 0.98375 0.57396 0.0
C2048 C 0.07321 0.0406 0.57272 0.0
C2049 C 1.0028 0.08064 0.57397 0.0
C2050 C 0.09485 0.03191 0.56533 0.0
C2051 C 0.12778 0.04921 0.56396 0.0
C2052 C 0.13984 0.07594 0.56991 0.0
C2053 C 0.11816 0.08483 0.5773 0.0
C2054 C 0.08529 0.06702 0.57875 0.0
H2055 H 0.97537 0.09011 0.57211 0.0
H2056 H 0.00933 0.09185 0.58065 0.0
H2057 H 0.02242 0.09165 0.56907 0.0
H2058 H 0.08615 0.01174 0.56057 0.0
H2059 H 0.1437 0.04169 0.55819 0.0
H2060 H 0.90165 0.6256 0.8323 0.0
H2061 H 0.9325 0.56824 0.83522 0.0
H2062 H 0.99695 0.58323 0.8115 0.0
H2063 H 0.96718 0.64026 0.80865 0.0
H2064 H 0.93769 0.50697 0.82553 0.0
H2065 H 0.07406 0.56387 0.82987 0.0
H2066 H 0.03401 0.59154 0.82985 0.0
H2067 H 0.05491 0.57832 0.81948 0.0
C2068 C 0.92234 0.61655 0.82771 0.0
C2069 C 0.93219 0.6377 0.8203 0.0
C2070 C 0.94005 0.5839 0.82941 0.0
C2071 C 0.96782 0.57202 0.82373 0.0
C2072 C 0.97656 0.59245 0.81616 0.0
H2073 H 0.04213 0.36794 0.80852 0.0
H2074 H 0.0123 0.42491 0.81142 0.0
C2075 C 0.95919 0.62498 0.81449 0.0
C2076 C 0.98702 0.53764 0.82539 0.0
H2077 H 0.07152 0.50096 0.82554 0.0
C2078 C 0.96693 0.50569 0.82571 0.0
C2079 C 0.02517 0.53591 0.82587 0.0
C2080 C 0.04822 0.56933 0.82635 0.0
C2081 C 0.98404 0.472 0.82581 0.0
C2082 C 0.02219 0.47029 0.82534 0.0
C2083 C 0.04228 0.50223 0.82572 0.0
C2084 C 0.04141 0.43595 0.82365 0.0
C2085 C 0.96098 0.43858 0.82625 0.0
C2086 C 0.0692 0.424 0.82932 0.0
C2087 C 0.08694 0.39141 0.82759 0.0
C2088 C 0.07712 0.37036 0.82017 0.0
C2089 C 0.0501 0.38315 0.81438 0.0
C2090 C 0.0327 0.41564 0.81606 0.0
H2091 H 0.93513 0.44395 0.82977 0.0
H2092 H 0.95431 0.42977 0.81936 0.0
H2093 H 0.97517 0.41627 0.82972 0.0
H2094 H 0.07673 0.43958 0.83515 0.0
H2095 H 0.10764 0.38231 0.83218 0.0
loop_
_geom_bond_atom_site_label_1
_geom_bond_atom_site_label_2
_geom_bond_distance
_geom_bond_site_symmetry_2
_ccdc_geom_bond_type
Co0 O2 2.143 . S
Co0 O8 2.074 . S
Co0 O11 2.093 . S
Co0 O24 2.097 . S
Co0 N41 2.151 . S
Co0 N49 2.214 . S
Co1 O2 2.160 . S
Co1 O7 2.058 . S
Co1 O17 2.057 . S
Co1 O32 2.037 . S
Co1 N36 2.145 . S
Co1 N57 2.257 . S
O2 Co0 2.143 . S
O2 Co1 2.160 . S
C3 O4 1.278 . S
C3 O11 1.224 . S
O4 C3 1.278 . S
C5 O6 1.245 . S
C5 O17 1.232 . S
O6 C5 1.245 . S
O7 Co1 2.058 . S
O7 C33 1.269 . S
O8 Co0 2.074 . S
O8 C33 1.257 . S
H9 C34 0.930 . S
H10 C40 0.930 . S
O11 Co0 2.093 . S
O11 C3 1.224 . S
H12 C44 0.929 . S
H13 C46 0.930 . S
H14 C47 0.930 . S
H15 C45 0.929 . S
H16 C48 0.928 . S
O17 Co1 2.057 . S
O17 C5 1.232 . S
H18 C37 0.929 . S
H19 C38 0.929 1_545 S
H20 C50 0.931 . S
H21 C42 0.929 . S
H22 C51 0.930 . S
H23 C43 0.931 . S
O24 Co0 2.097 . S
O24 C52 1.214 . S
H25 C53 0.929 . S
H26 C54 0.929 . S
H27 C55 0.930 . S
H28 C56 0.929 1_565 S
H29 C58 0.930 . S
H30 C35 0.930 . S
H31 C39 0.930 . S
O32 Co1 2.037 . S
O32 C52 1.234 . S
C33 O7 1.269 . S
C33 O8 1.257 . S
C34 H9 0.930 . S
C34 C37 1.388 1_565 S
C34 C39 1.418 . S
C35 H30 0.930 . S
C35 C38 1.405 . S
C35 C39 1.353 . S
N36 Co1 2.145 . S
N36 C37 1.397 . S
N36 C38 1.333 1_545 S
C37 H18 0.929 . S
C37 C34 1.388 1_545 S
C37 N36 1.397 . S
C38 H19 0.929 1_565 S
C38 C35 1.405 . S
C38 N36 1.333 1_565 S
C39 H31 0.930 . S
C39 C34 1.418 . S
C39 C35 1.353 . S
C40 H10 0.930 . S
C40 N41 1.330 . S
C40 C42 1.446 . S
N41 Co0 2.151 . S
N41 C40 1.330 . S
N41 C45 1.418 . S
C42 H21 0.929 . S
C42 C40 1.446 . S
C42 C43 1.332 . S
C43 H23 0.931 . S
C43 C42 1.332 . S
C43 C44 1.267 . S
C44 H12 0.929 . S
C44 C43 1.267 . S
C44 C45 1.251 . S
C45 H15 0.929 . S
C45 N41 1.418 . S
C45 C44 1.251 . S
C46 H13 0.930 . S
C46 C48 1.406 . S
C46 C51 1.261 . S
C47 H14 0.930 . S
C47 N49 1.325 . S
C47 C50 1.357 . S
C48 H16 0.928 . S
C48 C46 1.406 . S
C48 N49 1.261 . S
N49 Co0 2.214 . S
N49 C47 1.325 . S
N49 C48 1.261 . S
C50 H20 0.931 . S
C50 C47 1.357 . S
C50 C51 1.312 . S
C51 H22 0.930 . S
C51 C46 1.261 . S
C51 C50 1.312 . S
C52 O24 1.214 . S
C52 O32 1.234 . S
C53 H25 0.929 . S
C53 C56 1.391 . S
C53 C58 1.391 . S
C54 H26 0.929 . S
C54 C55 1.390 1_545 S
C54 N57 1.391 . S
C55 H27 0.930 . S
C55 C54 1.390 1_565 S
C55 C56 1.392 1_565 S
C56 H28 0.929 1_545 S
C56 C53 1.391 . S
C56 C55 1.392 1_545 S
N57 Co1 2.257 . S
N57 C54 1.391 . S
N57 C58 1.388 . S
C58 H29 0.930 . S
C58 C53 1.391 . S
C58 N57 1.388 . S
Co59 O61 2.143 . S
Co59 O67 2.074 . S
Co59 O70 2.093 . S
Co59 O83 2.097 . S
Co59 N100 2.151 . S
Co59 N108 2.214 . S
Co60 O61 2.160 . S
Co60 O66 2.058 . S
Co60 O76 2.057 . S
Co60 O91 2.037 . S
Co60 N95 2.145 . S
Co60 N116 2.257 . S
O61 Co59 2.143 . S
O61 Co60 2.160 . S
C62 O63 1.278 . S
C62 O70 1.224 . S
O63 C62 1.278 . S
C64 O65 1.245 . S
C64 O76 1.232 . S
O65 C64 1.245 . S
O66 Co60 2.058 . S
O66 C92 1.269 . S
O67 Co59 2.074 . S
O67 C92 1.257 . S
H68 C93 0.930 . S
H69 C99 0.930 . S
O70 Co59 2.093 . S
O70 C62 1.224 . S
H71 C103 0.929 . S
H72 C105 0.930 . S
H73 C106 0.930 . S
H74 C104 0.929 . S
H75 C107 0.928 . S
O76 Co60 2.057 . S
O76 C64 1.232 . S
H77 C96 0.929 . S
H78 C97 0.929 1_655 S
H79 C109 0.931 . S
H80 C101 0.929 . S
H81 C110 0.930 . S
H82 C102 0.931 . S
O83 Co59 2.097 . S
O83 C111 1.214 . S
H84 C112 0.929 . S
H85 C113 0.929 . S
H86 C114 0.930 . S
H87 C115 0.929 1_455 S
H88 C117 0.930 . S
H89 C94 0.930 . S
H90 C98 0.930 . S
O91 Co60 2.037 . S
O91 C111 1.234 . S
C92 O66 1.269 . S
C92 O67 1.257 . S
C93 H68 0.930 . S
C93 C96 1.388 1_455 S
C93 C98 1.418 . S
C94 H89 0.930 . S
C94 C97 1.405 . S
C94 C98 1.353 . S
N95 Co60 2.145 . S
N95 C96 1.397 . S
N95 C97 1.333 1_655 S
C96 H77 0.929 . S
C96 C93 1.388 1_655 S
C96 N95 1.397 . S
C97 H78 0.929 1_455 S
C97 C94 1.405 . S
C97 N95 1.333 1_455 S
C98 H90 0.930 . S
C98 C93 1.418 . S
C98 C94 1.353 . S
C99 H69 0.930 . S
C99 N100 1.330 . S
C99 C101 1.446 . S
N100 Co59 2.151 . S
N100 C99 1.330 . S
N100 C104 1.418 . S
C101 H80 0.929 . S
C101 C99 1.446 . S
C101 C102 1.332 . S
C102 H82 0.931 . S
C102 C101 1.332 . S
C102 C103 1.267 . S
C103 H71 0.929 . S
C103 C102 1.267 . S
C103 C104 1.251 . S
C104 H74 0.929 . S
C104 N100 1.418 . S
C104 C103 1.251 . S
C105 H72 0.930 . S
C105 C107 1.406 . S
C105 C110 1.261 . S
C106 H73 0.930 . S
C106 N108 1.325 . S
C106 C109 1.357 . S
C107 H75 0.928 . S
C107 C105 1.406 . S
C107 N108 1.261 . S
N108 Co59 2.214 . S
N108 C106 1.325 . S
N108 C107 1.261 . S
C109 H79 0.931 . S
C109 C106 1.357 . S
C109 C110 1.312 . S
C110 H81 0.930 . S
C110 C105 1.261 . S
C110 C109 1.312 . S
C111 O83 1.214 . S
C111 O91 1.234 . S
C112 H84 0.929 . S
C112 C115 1.391 . S
C112 C117 1.391 . S
C113 H85 0.929 . S
C113 C114 1.390 1_655 S
C113 N116 1.391 . S
C114 H86 0.930 . S
C114 C113 1.390 1_455 S
C114 C115 1.392 1_455 S
C115 H87 0.929 1_655 S
C115 C112 1.391 . S
C115 C114 1.392 1_655 S
N116 Co60 2.257 . S
N116 C113 1.391 . S
N116 C117 1.388 . S
C117 H88 0.930 . S
C117 C112 1.391 . S
C117 N116 1.388 . S
Co118 O120 2.143 . S
Co118 O126 2.074 . S
Co118 O129 2.093 . S
Co118 O142 2.097 . S
Co118 N159 2.151 . S
Co118 N167 2.214 . S
Co119 O120 2.160 . S
Co119 O125 2.058 . S
Co119 O135 2.057 . S
Co119 O150 2.037 . S
Co119 N154 2.145 . S
Co119 N175 2.257 . S
O120 Co118 2.143 . S
O120 Co119 2.160 . S
C121 O122 1.278 . S
C121 O129 1.224 . S
O122 C121 1.278 . S
C123 O124 1.245 . S
C123 O135 1.232 . S
O124 C123 1.245 . S
O125 Co119 2.058 . S
O125 C151 1.269 . S
O126 Co118 2.074 . S
O126 C151 1.257 . S
H127 C152 0.930 . S
H128 C158 0.930 . S
O129 Co118 2.093 . S
O129 C121 1.224 . S
H130 C162 0.929 . S
H131 C164 0.930 . S
H132 C165 0.930 . S
H133 C163 0.929 . S
H134 C166 0.928 . S
O135 Co119 2.057 . S
O135 C123 1.232 . S
H136 C155 0.929 . S
H137 C156 0.929 . S
H138 C168 0.931 . S
H139 C160 0.929 . S
H140 C169 0.930 . S
H141 C161 0.931 . S
O142 Co118 2.097 . S
O142 C170 1.214 . S
H143 C171 0.929 . S
H144 C172 0.929 . S
H145 C173 0.930 . S
H146 C174 0.929 . S
H147 C176 0.930 . S
H148 C153 0.930 . S
H149 C157 0.930 . S
O150 Co119 2.037 . S
O150 C170 1.234 . S
C151 O125 1.269 . S
C151 O126 1.257 . S
C152 H127 0.930 . S
C152 C155 1.388 . S
C152 C157 1.418 . S
C153 H148 0.930 . S
C153 C156 1.404 . S
C153 C157 1.353 . S
N154 Co119 2.145 . S
N154 C155 1.397 . S
N154 C156 1.334 . S
C155 H136 0.929 . S
C155 C152 1.388 . S
C155 N154 1.397 . S
C156 H137 0.929 . S
C156 C153 1.404 . S
C156 N154 1.334 . S
C157 H149 0.930 . S
C157 C152 1.418 . S
C157 C153 1.353 . S
C158 H128 0.930 . S
C158 N159 1.330 . S
C158 C160 1.446 . S
N159 Co118 2.151 . S
N159 C158 1.330 . S
N159 C163 1.418 . S
C160 H139 0.929 . S
C160 C158 1.446 . S
C160 C161 1.332 . S
C161 H141 0.931 . S
C161 C160 1.332 . S
C161 C162 1.267 . S
C162 H130 0.929 . S
C162 C161 1.267 . S
C162 C163 1.251 . S
C163 H133 0.929 . S
C163 N159 1.418 . S
C163 C162 1.251 . S
C164 H131 0.930 . S
C164 C166 1.406 . S
C164 C169 1.261 . S
C165 H132 0.930 . S
C165 N167 1.325 . S
C165 C168 1.357 . S
C166 H134 0.928 . S
C166 C164 1.406 . S
C166 N167 1.261 . S
N167 Co118 2.214 . S
N167 C165 1.325 . S
N167 C166 1.261 . S
C168 H138 0.931 . S
C168 C165 1.357 . S
C168 C169 1.312 . S
C169 H140 0.930 . S
C169 C164 1.261 . S
C169 C168 1.312 . S
C170 O142 1.214 . S
C170 O150 1.234 . S
C171 H143 0.929 . S
C171 C174 1.391 . S
C171 C176 1.391 . S
C172 H144 0.929 . S
C172 C173 1.390 . S
C172 N175 1.391 . S
C173 H145 0.930 . S
C173 C172 1.390 . S
C173 C174 1.392 . S
C174 H146 0.929 . S
C174 C171 1.391 . S
C174 C173 1.392 . S
N175 Co119 2.257 . S
N175 C172 1.391 . S
N175 C176 1.388 . S
C176 H147 0.930 . S
C176 C171 1.391 . S
C176 N175 1.388 . S
Co177 O179 2.143 . S
Co177 O185 2.074 . S
Co177 O188 2.093 . S
Co177 O201 2.097 . S
Co177 N218 2.151 . S
Co177 N226 2.214 . S
Co178 O179 2.160 . S
Co178 O184 2.058 . S
Co178 O194 2.057 . S
Co178 O209 2.037 . S
Co178 N213 2.145 . S
Co178 N234 2.257 . S
O179 Co177 2.143 . S
O179 Co178 2.160 . S
C180 O181 1.278 . S
C180 O188 1.224 . S
O181 C180 1.278 . S
C182 O183 1.245 . S
C182 O194 1.232 . S
O183 C182 1.245 . S
O184 Co178 2.058 . S
O184 C210 1.269 . S
O185 Co177 2.074 . S
O185 C210 1.257 . S
H186 C211 0.930 . S
H187 C217 0.930 . S
O188 Co177 2.093 . S
O188 C180 1.224 . S
H189 C221 0.929 . S
H190 C223 0.930 . S
H191 C224 0.930 . S
H192 C222 0.929 . S
H193 C225 0.928 . S
O194 Co178 2.057 . S
O194 C182 1.232 . S
H195 C214 0.929 . S
H196 C215 0.929 . S
H197 C227 0.931 . S
H198 C219 0.929 . S
H199 C228 0.930 . S
H200 C220 0.931 . S
O201 Co177 2.097 . S
O201 C229 1.214 . S
H202 C230 0.929 . S
H203 C231 0.929 . S
H204 C232 0.930 . S
H205 C233 0.929 . S
H206 C235 0.930 . S
H207 C212 0.930 . S
H208 C216 0.930 . S
O209 Co178 2.037 . S
O209 C229 1.234 . S
C210 O184 1.269 . S
C210 O185 1.257 . S
C211 H186 0.930 . S
C211 C214 1.388 . S
C211 C216 1.418 . S
C212 H207 0.930 . S
C212 C215 1.404 . S
C212 C216 1.353 . S
N213 Co178 2.145 . S
N213 C214 1.397 . S
N213 C215 1.334 . S
C214 H195 0.929 . S
C214 C211 1.388 . S
C214 N213 1.397 . S
C215 H196 0.929 . S
C215 C212 1.404 . S
C215 N213 1.334 . S
C216 H208 0.930 . S
C216 C211 1.418 . S
C216 C212 1.353 . S
C217 H187 0.930 . S
C217 N218 1.330 . S
C217 C219 1.446 . S
N218 Co177 2.151 . S
N218 C217 1.330 . S
N218 C222 1.418 . S
C219 H198 0.929 . S
C219 C217 1.446 . S
C219 C220 1.332 . S
C220 H200 0.931 . S
C220 C219 1.332 . S
C220 C221 1.267 . S
C221 H189 0.929 . S
C221 C220 1.267 . S
C221 C222 1.251 . S
C222 H192 0.929 . S
C222 N218 1.418 . S
C222 C221 1.251 . S
C223 H190 0.930 . S
C223 C225 1.406 . S
C223 C228 1.261 . S
C224 H191 0.930 . S
C224 N226 1.325 . S
C224 C227 1.357 . S
C225 H193 0.928 . S
C225 C223 1.406 . S
C225 N226 1.261 . S
N226 Co177 2.214 . S
N226 C224 1.325 . S
N226 C225 1.261 . S
C227 H197 0.931 . S
C227 C224 1.357 . S
C227 C228 1.312 . S
C228 H199 0.930 . S
C228 C223 1.261 . S
C228 C227 1.312 . S
C229 O201 1.214 . S
C229 O209 1.234 . S
C230 H202 0.929 . S
C230 C233 1.391 . S
C230 C235 1.391 . S
C231 H203 0.929 . S
C231 C232 1.390 . S
C231 N234 1.391 . S
C232 H204 0.930 . S
C232 C231 1.390 . S
C232 C233 1.392 . S
C233 H205 0.929 . S
C233 C230 1.391 . S
C233 C232 1.392 . S
N234 Co178 2.257 . S
N234 C231 1.391 . S
N234 C235 1.388 . S
C235 H206 0.930 . S
C235 C230 1.391 . S
C235 N234 1.388 . S
Co236 O238 2.143 . S
Co236 O244 2.074 . S
Co236 O247 2.093 . S
Co236 O260 2.097 . S
Co236 N277 2.151 . S
Co236 N285 2.214 . S
Co237 O238 2.160 . S
Co237 O243 2.058 . S
Co237 O253 2.057 . S
Co237 O268 2.037 . S
Co237 N272 2.145 . S
Co237 N293 2.257 . S
O238 Co236 2.143 . S
O238 Co237 2.160 . S
C239 O240 1.278 . S
C239 O247 1.224 . S
O240 C239 1.278 . S
C241 O242 1.245 . S
C241 O253 1.232 . S
O242 C241 1.245 . S
O243 Co237 2.058 . S
O243 C269 1.269 . S
O244 Co236 2.074 . S
O244 C269 1.257 . S
H245 C270 0.930 . S
H246 C276 0.930 . S
O247 Co236 2.093 . S
O247 C239 1.224 . S
H248 C280 0.929 . S
H249 C282 0.930 . S
H250 C283 0.930 . S
H251 C281 0.929 . S
H252 C284 0.928 . S
O253 Co237 2.057 . S
O253 C241 1.232 . S
H254 C273 0.929 . S
H255 C274 0.929 . S
H256 C286 0.931 . S
H257 C278 0.929 . S
H258 C287 0.930 . S
H259 C279 0.931 . S
O260 Co236 2.097 . S
O260 C288 1.214 . S
H261 C289 0.929 . S
H262 C290 0.929 . S
H263 C291 0.930 . S
H264 C292 0.929 . S
H265 C294 0.930 . S
H266 C271 0.930 . S
H267 C275 0.930 . S
O268 Co237 2.037 . S
O268 C288 1.234 . S
C269 O243 1.269 . S
C269 O244 1.257 . S
C270 H245 0.930 . S
C270 C273 1.388 . S
C270 C275 1.418 . S
C271 H266 0.930 . S
C271 C274 1.404 . S
C271 C275 1.353 . S
N272 Co237 2.145 . S
N272 C273 1.397 . S
N272 C274 1.334 . S
C273 H254 0.929 . S
C273 C270 1.388 . S
C273 N272 1.397 . S
C274 H255 0.929 . S
C274 C271 1.404 . S
C274 N272 1.334 . S
C275 H267 0.930 . S
C275 C270 1.418 . S
C275 C271 1.353 . S
C276 H246 0.930 . S
C276 N277 1.330 . S
C276 C278 1.446 . S
N277 Co236 2.151 . S
N277 C276 1.330 . S
N277 C281 1.418 . S
C278 H257 0.929 . S
C278 C276 1.446 . S
C278 C279 1.332 . S
C279 H259 0.931 . S
C279 C278 1.332 . S
C279 C280 1.267 . S
C280 H248 0.929 . S
C280 C279 1.267 . S
C280 C281 1.251 . S
C281 H251 0.929 . S
C281 N277 1.418 . S
C281 C280 1.251 . S
C282 H249 0.930 . S
C282 C284 1.406 . S
C282 C287 1.261 . S
C283 H250 0.930 . S
C283 N285 1.325 . S
C283 C286 1.357 . S
C284 H252 0.928 . S
C284 C282 1.406 . S
C284 N285 1.261 . S
N285 Co236 2.214 . S
N285 C283 1.325 . S
N285 C284 1.261 . S
C286 H256 0.931 . S
C286 C283 1.357 . S
C286 C287 1.312 . S
C287 H258 0.930 . S
C287 C282 1.261 . S
C287 C286 1.312 . S
C288 O260 1.214 . S
C288 O268 1.234 . S
C289 H261 0.929 . S
C289 C292 1.391 . S
C289 C294 1.391 . S
C290 H262 0.929 . S
C290 C291 1.390 . S
C290 N293 1.391 . S
C291 H263 0.930 . S
C291 C290 1.390 . S
C291 C292 1.392 . S
C292 H264 0.929 . S
C292 C289 1.391 . S
C292 C291 1.392 . S
N293 Co237 2.257 . S
N293 C290 1.391 . S
N293 C294 1.388 . S
C294 H265 0.930 . S
C294 C289 1.391 . S
C294 N293 1.388 . S
Co295 O297 2.143 . S
Co295 O303 2.074 . S
Co295 O306 2.093 . S
Co295 O319 2.097 . S
Co295 N336 2.151 . S
Co295 N344 2.214 . S
Co296 O297 2.160 . S
Co296 O302 2.058 . S
Co296 O312 2.057 . S
Co296 O327 2.037 . S
Co296 N331 2.145 . S
Co296 N352 2.257 . S
O297 Co295 2.143 . S
O297 Co296 2.160 . S
C298 O299 1.278 . S
C298 O306 1.224 . S
O299 C298 1.278 . S
C300 O301 1.245 . S
C300 O312 1.232 . S
O301 C300 1.245 . S
O302 Co296 2.058 . S
O302 C328 1.269 . S
O303 Co295 2.074 . S
O303 C328 1.257 . S
H304 C329 0.930 . S
H305 C335 0.930 . S
O306 Co295 2.093 . S
O306 C298 1.224 . S
H307 C339 0.929 . S
H308 C341 0.930 . S
H309 C342 0.930 . S
H310 C340 0.929 . S
H311 C343 0.928 . S
O312 Co296 2.057 . S
O312 C300 1.232 . S
H313 C332 0.929 . S
H314 C333 0.929 . S
H315 C345 0.931 . S
H316 C337 0.929 . S
H317 C346 0.930 . S
H318 C338 0.931 . S
O319 Co295 2.097 . S
O319 C347 1.214 . S
H320 C348 0.929 . S
H321 C349 0.929 . S
H322 C350 0.930 . S
H323 C351 0.929 . S
H324 C353 0.930 . S
H325 C330 0.930 . S
H326 C334 0.930 . S
O327 Co296 2.037 . S
O327 C347 1.234 . S
C328 O302 1.269 . S
C328 O303 1.257 . S
C329 H304 0.930 . S
C329 C332 1.388 . S
C329 C334 1.418 . S
C330 H325 0.930 . S
C330 C333 1.404 . S
C330 C334 1.353 . S
N331 Co296 2.145 . S
N331 C332 1.397 . S
N331 C333 1.334 . S
C332 H313 0.929 . S
C332 C329 1.388 . S
C332 N331 1.397 . S
C333 H314 0.929 . S
C333 C330 1.404 . S
C333 N331 1.334 . S
C334 H326 0.930 . S
C334 C329 1.418 . S
C334 C330 1.353 . S
C335 H305 0.930 . S
C335 N336 1.330 . S
C335 C337 1.446 . S
N336 Co295 2.151 . S
N336 C335 1.330 . S
N336 C340 1.418 . S
C337 H316 0.929 . S
C337 C335 1.446 . S
C337 C338 1.332 . S
C338 H318 0.931 . S
C338 C337 1.332 . S
C338 C339 1.267 . S
C339 H307 0.929 . S
C339 C338 1.267 . S
C339 C340 1.251 . S
C340 H310 0.929 . S
C340 N336 1.418 . S
C340 C339 1.251 . S
C341 H308 0.930 . S
C341 C343 1.406 . S
C341 C346 1.261 . S
C342 H309 0.930 . S
C342 N344 1.325 . S
C342 C345 1.357 . S
C343 H311 0.928 . S
C343 C341 1.406 . S
C343 N344 1.261 . S
N344 Co295 2.214 . S
N344 C342 1.325 . S
N344 C343 1.261 . S
C345 H315 0.931 . S
C345 C342 1.357 . S
C345 C346 1.312 . S
C346 H317 0.930 . S
C346 C341 1.261 . S
C346 C345 1.312 . S
C347 O319 1.214 . S
C347 O327 1.234 . S
C348 H320 0.929 . S
C348 C351 1.391 . S
C348 C353 1.391 . S
C349 H321 0.929 . S
C349 C350 1.390 . S
C349 N352 1.391 . S
C350 H322 0.930 . S
C350 C349 1.390 . S
C350 C351 1.392 . S
C351 H323 0.929 . S
C351 C348 1.391 . S
C351 C350 1.392 . S
N352 Co296 2.257 . S
N352 C349 1.391 . S
N352 C353 1.388 . S
C353 H324 0.930 . S
C353 C348 1.391 . S
C353 N352 1.388 . S
Co354 O356 2.143 . S
Co354 O362 2.074 . S
Co354 O365 2.093 . S
Co354 O378 2.097 . S
Co354 N395 2.151 . S
Co354 N403 2.214 . S
Co355 O356 2.160 . S
Co355 O361 2.058 . S
Co355 O371 2.057 . S
Co355 O386 2.037 . S
Co355 N390 2.145 . S
Co355 N411 2.257 . S
O356 Co354 2.143 . S
O356 Co355 2.160 . S
C357 O358 1.278 . S
C357 O365 1.224 . S
O358 C357 1.278 . S
C359 O360 1.245 . S
C359 O371 1.232 . S
O360 C359 1.245 . S
O361 Co355 2.058 . S
O361 C387 1.269 . S
O362 Co354 2.074 . S
O362 C387 1.257 . S
H363 C388 0.930 . S
H364 C394 0.930 . S
O365 Co354 2.093 . S
O365 C357 1.224 . S
H366 C398 0.929 . S
H367 C400 0.930 . S
H368 C401 0.930 . S
H369 C399 0.929 . S
H370 C402 0.928 . S
O371 Co355 2.057 . S
O371 C359 1.232 . S
H372 C391 0.929 . S
H373 C392 0.929 1_545 S
H374 C404 0.931 . S
H375 C396 0.929 . S
H376 C405 0.930 . S
H377 C397 0.931 . S
O378 Co354 2.097 . S
O378 C406 1.214 . S
H379 C407 0.929 . S
H380 C408 0.929 . S
H381 C409 0.930 . S
H382 C410 0.929 1_565 S
H383 C412 0.930 . S
H384 C389 0.930 . S
H385 C393 0.930 . S
O386 Co355 2.037 . S
O386 C406 1.234 . S
C387 O361 1.269 . S
C387 O362 1.257 . S
C388 H363 0.930 . S
C388 C391 1.388 1_565 S
C388 C393 1.418 . S
C389 H384 0.930 . S
C389 C392 1.405 . S
C389 C393 1.353 . S
N390 Co355 2.145 . S
N390 C391 1.397 . S
N390 C392 1.333 1_545 S
C391 H372 0.929 . S
C391 C388 1.388 1_545 S
C391 N390 1.397 . S
C392 H373 0.929 1_565 S
C392 C389 1.405 . S
C392 N390 1.333 1_565 S
C393 H385 0.930 . S
C393 C388 1.418 . S
C393 C389 1.353 . S
C394 H364 0.930 . S
C394 N395 1.330 . S
C394 C396 1.446 . S
N395 Co354 2.151 . S
N395 C394 1.330 . S
N395 C399 1.418 . S
C396 H375 0.929 . S
C396 C394 1.446 . S
C396 C397 1.332 . S
C397 H377 0.931 . S
C397 C396 1.332 . S
C397 C398 1.267 . S
C398 H366 0.929 . S
C398 C397 1.267 . S
C398 C399 1.251 . S
C399 H369 0.929 . S
C399 N395 1.418 . S
C399 C398 1.251 . S
C400 H367 0.930 . S
C400 C402 1.406 . S
C400 C405 1.261 . S
C401 H368 0.930 . S
C401 N403 1.325 . S
C401 C404 1.357 . S
C402 H370 0.928 . S
C402 C400 1.406 . S
C402 N403 1.261 . S
N403 Co354 2.214 . S
N403 C401 1.325 . S
N403 C402 1.261 . S
C404 H374 0.931 . S
C404 C401 1.357 . S
C404 C405 1.312 . S
C405 H376 0.930 . S
C405 C400 1.261 . S
C405 C404 1.312 . S
C406 O378 1.214 . S
C406 O386 1.234 . S
C407 H379 0.929 . S
C407 C410 1.391 . S
C407 C412 1.391 . S
C408 H380 0.929 . S
C408 C409 1.390 1_545 S
C408 N411 1.391 . S
C409 H381 0.930 . S
C409 C408 1.390 1_565 S
C409 C410 1.392 1_565 S
C410 H382 0.929 1_545 S
C410 C407 1.391 . S
C410 C409 1.392 1_545 S
N411 Co355 2.257 . S
N411 C408 1.391 . S
N411 C412 1.388 . S
C412 H383 0.930 . S
C412 C407 1.391 . S
C412 N411 1.388 . S
Co413 O415 2.143 . S
Co413 O421 2.074 . S
Co413 O424 2.093 . S
Co413 O437 2.097 . S
Co413 N454 2.151 . S
Co413 N462 2.214 . S
Co414 O415 2.160 . S
Co414 O420 2.058 . S
Co414 O430 2.057 . S
Co414 O445 2.037 . S
Co414 N449 2.145 . S
Co414 N470 2.257 . S
O415 Co413 2.143 . S
O415 Co414 2.160 . S
C416 O417 1.278 . S
C416 O424 1.224 . S
O417 C416 1.278 . S
C418 O419 1.245 . S
C418 O430 1.232 . S
O419 C418 1.245 . S
O420 Co414 2.058 . S
O420 C446 1.269 . S
O421 Co413 2.074 . S
O421 C446 1.257 . S
H422 C447 0.930 . S
H423 C453 0.930 . S
O424 Co413 2.093 . S
O424 C416 1.224 . S
H425 C457 0.929 . S
H426 C459 0.930 . S
H427 C460 0.930 . S
H428 C458 0.929 . S
H429 C461 0.928 . S
O430 Co414 2.057 . S
O430 C418 1.232 . S
H431 C450 0.929 . S
H432 C451 0.929 1_655 S
H433 C463 0.931 . S
H434 C455 0.929 . S
H435 C464 0.930 . S
H436 C456 0.931 . S
O437 Co413 2.097 . S
O437 C465 1.214 . S
H438 C466 0.929 . S
H439 C467 0.929 . S
H440 C468 0.930 . S
H441 C469 0.929 1_455 S
H442 C471 0.930 . S
H443 C448 0.930 . S
H444 C452 0.930 . S
O445 Co414 2.037 . S
O445 C465 1.234 . S
C446 O420 1.269 . S
C446 O421 1.257 . S
C447 H422 0.930 . S
C447 C450 1.388 1_455 S
C447 C452 1.418 . S
C448 H443 0.930 . S
C448 C451 1.405 . S
C448 C452 1.353 . S
N449 Co414 2.145 . S
N449 C450 1.397 . S
N449 C451 1.333 1_655 S
C450 H431 0.929 . S
C450 C447 1.388 1_655 S
C450 N449 1.397 . S
C451 H432 0.929 1_455 S
C451 C448 1.405 . S
C451 N449 1.333 1_455 S
C452 H444 0.930 . S
C452 C447 1.418 . S
C452 C448 1.353 . S
C453 H423 0.930 . S
C453 N454 1.330 . S
C453 C455 1.446 . S
N454 Co413 2.151 . S
N454 C453 1.330 . S
N454 C458 1.418 . S
C455 H434 0.929 . S
C455 C453 1.446 . S
C455 C456 1.332 . S
C456 H436 0.931 . S
C456 C455 1.332 . S
C456 C457 1.267 . S
C457 H425 0.929 . S
C457 C456 1.267 . S
C457 C458 1.251 . S
C458 H428 0.929 . S
C458 N454 1.418 . S
C458 C457 1.251 . S
C459 H426 0.930 . S
C459 C461 1.406 . S
C459 C464 1.261 . S
C460 H427 0.930 . S
C460 N462 1.325 . S
C460 C463 1.357 . S
C461 H429 0.928 . S
C461 C459 1.406 . S
C461 N462 1.261 . S
N462 Co413 2.214 . S
N462 C460 1.325 . S
N462 C461 1.261 . S
C463 H433 0.931 . S
C463 C460 1.357 . S
C463 C464 1.312 . S
C464 H435 0.930 . S
C464 C459 1.261 . S
C464 C463 1.312 . S
C465 O437 1.214 . S
C465 O445 1.234 . S
C466 H438 0.929 . S
C466 C469 1.391 . S
C466 C471 1.391 . S
C467 H439 0.929 . S
C467 C468 1.390 1_655 S
C467 N470 1.391 . S
C468 H440 0.930 . S
C468 C467 1.390 1_455 S
C468 C469 1.392 1_455 S
C469 H441 0.929 1_655 S
C469 C466 1.391 . S
C469 C468 1.392 1_655 S
N470 Co414 2.257 . S
N470 C467 1.391 . S
N470 C471 1.388 . S
C471 H442 0.930 . S
C471 C466 1.391 . S
C471 N470 1.388 . S
Co472 O474 2.143 . S
Co472 O480 2.074 . S
Co472 O483 2.093 . S
Co472 O496 2.097 . S
Co472 N513 2.151 . S
Co472 N521 2.214 . S
Co473 O474 2.160 . S
Co473 O479 2.058 . S
Co473 O489 2.057 . S
Co473 O504 2.037 . S
Co473 N508 2.145 . S
Co473 N529 2.257 . S
O474 Co472 2.143 . S
O474 Co473 2.160 . S
C475 O476 1.278 . S
C475 O483 1.224 . S
O476 C475 1.278 . S
C477 O478 1.245 . S
C477 O489 1.232 . S
O478 C477 1.245 . S
O479 Co473 2.058 . S
O479 C505 1.269 . S
O480 Co472 2.074 . S
O480 C505 1.257 . S
H481 C506 0.930 . S
H482 C512 0.930 . S
O483 Co472 2.093 . S
O483 C475 1.224 . S
H484 C516 0.929 . S
H485 C518 0.930 . S
H486 C519 0.930 . S
H487 C517 0.929 . S
H488 C520 0.928 . S
O489 Co473 2.057 . S
O489 C477 1.232 . S
H490 C509 0.929 . S
H491 C510 0.929 . S
H492 C522 0.931 . S
H493 C514 0.929 . S
H494 C523 0.930 . S
H495 C515 0.931 . S
O496 Co472 2.097 . S
O496 C524 1.214 . S
H497 C525 0.929 . S
H498 C526 0.929 . S
H499 C527 0.930 . S
H500 C528 0.929 . S
H501 C530 0.930 . S
H502 C507 0.930 . S
H503 C511 0.930 . S
O504 Co473 2.037 . S
O504 C524 1.234 . S
C505 O479 1.269 . S
C505 O480 1.257 . S
C506 H481 0.930 . S
C506 C509 1.388 . S
C506 C511 1.418 . S
C507 H502 0.930 . S
C507 C510 1.404 . S
C507 C511 1.353 . S
N508 Co473 2.145 . S
N508 C509 1.397 . S
N508 C510 1.334 . S
C509 H490 0.929 . S
C509 C506 1.388 . S
C509 N508 1.397 . S
C510 H491 0.929 . S
C510 C507 1.404 . S
C510 N508 1.334 . S
C511 H503 0.930 . S
C511 C506 1.418 . S
C511 C507 1.353 . S
C512 H482 0.930 . S
C512 N513 1.330 . S
C512 C514 1.446 . S
N513 Co472 2.151 . S
N513 C512 1.330 . S
N513 C517 1.418 . S
C514 H493 0.929 . S
C514 C512 1.446 . S
C514 C515 1.332 . S
C515 H495 0.931 . S
C515 C514 1.332 . S
C515 C516 1.267 . S
C516 H484 0.929 . S
C516 C515 1.267 . S
C516 C517 1.251 . S
C517 H487 0.929 . S
C517 N513 1.418 . S
C517 C516 1.251 . S
C518 H485 0.930 . S
C518 C520 1.406 . S
C518 C523 1.261 . S
C519 H486 0.930 . S
C519 N521 1.325 . S
C519 C522 1.357 . S
C520 H488 0.928 . S
C520 C518 1.406 . S
C520 N521 1.261 . S
N521 Co472 2.214 . S
N521 C519 1.325 . S
N521 C520 1.261 . S
C522 H492 0.931 . S
C522 C519 1.357 . S
C522 C523 1.312 . S
C523 H494 0.930 . S
C523 C518 1.261 . S
C523 C522 1.312 . S
C524 O496 1.214 . S
C524 O504 1.234 . S
C525 H497 0.929 . S
C525 C528 1.391 . S
C525 C530 1.391 . S
C526 H498 0.929 . S
C526 C527 1.390 . S
C526 N529 1.391 . S
C527 H499 0.930 . S
C527 C526 1.390 . S
C527 C528 1.392 . S
C528 H500 0.929 . S
C528 C525 1.391 . S
C528 C527 1.392 . S
N529 Co473 2.257 . S
N529 C526 1.391 . S
N529 C530 1.388 . S
C530 H501 0.930 . S
C530 C525 1.391 . S
C530 N529 1.388 . S
Co531 O533 2.143 . S
Co531 O539 2.074 . S
Co531 O542 2.093 . S
Co531 O555 2.097 . S
Co531 N572 2.151 . S
Co531 N580 2.214 . S
Co532 O533 2.160 . S
Co532 O538 2.058 . S
Co532 O548 2.057 . S
Co532 O563 2.037 . S
Co532 N567 2.145 . S
Co532 N588 2.257 . S
O533 Co531 2.143 . S
O533 Co532 2.160 . S
C534 O535 1.278 . S
C534 O542 1.224 . S
O535 C534 1.278 . S
C536 O537 1.245 . S
C536 O548 1.232 . S
O537 C536 1.245 . S
O538 Co532 2.058 . S
O538 C564 1.269 . S
O539 Co531 2.074 . S
O539 C564 1.257 . S
H540 C565 0.930 . S
H541 C571 0.930 . S
O542 Co531 2.093 . S
O542 C534 1.224 . S
H543 C575 0.929 . S
H544 C577 0.930 . S
H545 C578 0.930 . S
H546 C576 0.929 . S
H547 C579 0.928 . S
O548 Co532 2.057 . S
O548 C536 1.232 . S
H549 C568 0.929 . S
H550 C569 0.929 . S
H551 C581 0.931 . S
H552 C573 0.929 . S
H553 C582 0.930 . S
H554 C574 0.931 . S
O555 Co531 2.097 . S
O555 C583 1.214 . S
H556 C584 0.929 . S
H557 C585 0.929 . S
H558 C586 0.930 . S
H559 C587 0.929 . S
H560 C589 0.930 . S
H561 C566 0.930 . S
H562 C570 0.930 . S
O563 Co532 2.037 . S
O563 C583 1.234 . S
C564 O538 1.269 . S
C564 O539 1.257 . S
C565 H540 0.930 . S
C565 C568 1.388 . S
C565 C570 1.418 . S
C566 H561 0.930 . S
C566 C569 1.404 . S
C566 C570 1.353 . S
N567 Co532 2.145 . S
N567 C568 1.397 . S
N567 C569 1.334 . S
C568 H549 0.929 . S
C568 C565 1.388 . S
C568 N567 1.397 . S
C569 H550 0.929 . S
C569 C566 1.404 . S
C569 N567 1.334 . S
C570 H562 0.930 . S
C570 C565 1.418 . S
C570 C566 1.353 . S
C571 H541 0.930 . S
C571 N572 1.330 . S
C571 C573 1.446 . S
N572 Co531 2.151 . S
N572 C571 1.330 . S
N572 C576 1.418 . S
C573 H552 0.929 . S
C573 C571 1.446 . S
C573 C574 1.332 . S
C574 H554 0.931 . S
C574 C573 1.332 . S
C574 C575 1.267 . S
C575 H543 0.929 . S
C575 C574 1.267 . S
C575 C576 1.251 . S
C576 H546 0.929 . S
C576 N572 1.418 . S
C576 C575 1.251 . S
C577 H544 0.930 . S
C577 C579 1.406 . S
C577 C582 1.261 . S
C578 H545 0.930 . S
C578 N580 1.325 . S
C578 C581 1.357 . S
C579 H547 0.928 . S
C579 C577 1.406 . S
C579 N580 1.261 . S
N580 Co531 2.214 . S
N580 C578 1.325 . S
N580 C579 1.261 . S
C581 H551 0.931 . S
C581 C578 1.357 . S
C581 C582 1.312 . S
C582 H553 0.930 . S
C582 C577 1.261 . S
C582 C581 1.312 . S
C583 O555 1.214 . S
C583 O563 1.234 . S
C584 H556 0.929 . S
C584 C587 1.391 . S
C584 C589 1.391 . S
C585 H557 0.929 . S
C585 C586 1.390 . S
C585 N588 1.391 . S
C586 H558 0.930 . S
C586 C585 1.390 . S
C586 C587 1.392 . S
C587 H559 0.929 . S
C587 C584 1.391 . S
C587 C586 1.392 . S
N588 Co532 2.257 . S
N588 C585 1.391 . S
N588 C589 1.388 . S
C589 H560 0.930 . S
C589 C584 1.391 . S
C589 N588 1.388 . S
Co590 O592 2.143 . S
Co590 O598 2.074 . S
Co590 O601 2.093 . S
Co590 O614 2.097 . S
Co590 N631 2.151 . S
Co590 N639 2.214 . S
Co591 O592 2.160 . S
Co591 O597 2.058 . S
Co591 O607 2.057 . S
Co591 O622 2.037 . S
Co591 N626 2.145 . S
Co591 N647 2.257 . S
O592 Co590 2.143 . S
O592 Co591 2.160 . S
C593 O594 1.278 . S
C593 O601 1.224 . S
O594 C593 1.278 . S
C595 O596 1.245 . S
C595 O607 1.232 . S
O596 C595 1.245 . S
O597 Co591 2.058 . S
O597 C623 1.269 . S
O598 Co590 2.074 . S
O598 C623 1.257 . S
H599 C624 0.930 . S
H600 C630 0.930 . S
O601 Co590 2.093 . S
O601 C593 1.224 . S
H602 C634 0.929 . S
H603 C636 0.930 . S
H604 C637 0.930 . S
H605 C635 0.929 . S
H606 C638 0.928 . S
O607 Co591 2.057 . S
O607 C595 1.232 . S
H608 C627 0.929 . S
H609 C628 0.929 1_565 S
H610 C640 0.931 . S
H611 C632 0.929 . S
H612 C641 0.930 . S
H613 C633 0.931 . S
O614 Co590 2.097 . S
O614 C642 1.214 . S
H615 C643 0.929 . S
H616 C644 0.929 . S
H617 C645 0.930 . S
H618 C646 0.929 1_545 S
H619 C648 0.930 . S
H620 C625 0.930 . S
H621 C629 0.930 . S
O622 Co591 2.037 . S
O622 C642 1.234 . S
C623 O597 1.269 . S
C623 O598 1.257 . S
C624 H599 0.930 . S
C624 C627 1.388 1_545 S
C624 C629 1.418 . S
C625 H620 0.930 . S
C625 C628 1.405 . S
C625 C629 1.353 . S
N626 Co591 2.145 . S
N626 C627 1.397 . S
N626 C628 1.333 1_565 S
C627 H608 0.929 . S
C627 C624 1.388 1_565 S
C627 N626 1.397 . S
C628 H609 0.929 1_545 S
C628 C625 1.405 . S
C628 N626 1.333 1_545 S
C629 H621 0.930 . S
C629 C624 1.418 . S
C629 C625 1.353 . S
C630 H600 0.930 . S
C630 N631 1.330 . S
C630 C632 1.446 . S
N631 Co590 2.151 . S
N631 C630 1.330 . S
N631 C635 1.418 . S
C632 H611 0.929 . S
C632 C630 1.446 . S
C632 C633 1.332 . S
C633 H613 0.931 . S
C633 C632 1.332 . S
C633 C634 1.267 . S
C634 H602 0.929 . S
C634 C633 1.267 . S
C634 C635 1.251 . S
C635 H605 0.929 . S
C635 N631 1.418 . S
C635 C634 1.251 . S
C636 H603 0.930 . S
C636 C638 1.406 . S
C636 C641 1.261 . S
C637 H604 0.930 . S
C637 N639 1.325 . S
C637 C640 1.357 . S
C638 H606 0.928 . S
C638 C636 1.406 . S
C638 N639 1.261 . S
N639 Co590 2.214 . S
N639 C637 1.325 . S
N639 C638 1.261 . S
C640 H610 0.931 . S
C640 C637 1.357 . S
C640 C641 1.312 . S
C641 H612 0.930 . S
C641 C636 1.261 . S
C641 C640 1.312 . S
C642 O614 1.214 . S
C642 O622 1.234 . S
C643 H615 0.929 . S
C643 C646 1.391 . S
C643 C648 1.391 . S
C644 H616 0.929 . S
C644 C645 1.390 1_565 S
C644 N647 1.391 . S
C645 H617 0.930 . S
C645 C644 1.390 1_545 S
C645 C646 1.392 1_545 S
C646 H618 0.929 1_565 S
C646 C643 1.391 . S
C646 C645 1.392 1_565 S
N647 Co591 2.257 . S
N647 C644 1.391 . S
N647 C648 1.388 . S
C648 H619 0.930 . S
C648 C643 1.391 . S
C648 N647 1.388 . S
Co649 O651 2.143 . S
Co649 O657 2.074 . S
Co649 O660 2.093 . S
Co649 O673 2.097 . S
Co649 N690 2.151 . S
Co649 N698 2.214 . S
Co650 O651 2.160 . S
Co650 O656 2.058 . S
Co650 O666 2.057 . S
Co650 O681 2.037 . S
Co650 N685 2.145 . S
Co650 N706 2.257 . S
O651 Co649 2.143 . S
O651 Co650 2.160 . S
C652 O653 1.278 . S
C652 O660 1.224 . S
O653 C652 1.278 . S
C654 O655 1.245 . S
C654 O666 1.232 . S
O655 C654 1.245 . S
O656 Co650 2.058 . S
O656 C682 1.269 . S
O657 Co649 2.074 . S
O657 C682 1.257 . S
H658 C683 0.930 . S
H659 C689 0.930 . S
O660 Co649 2.093 . S
O660 C652 1.224 . S
H661 C693 0.929 . S
H662 C695 0.930 . S
H663 C696 0.930 . S
H664 C694 0.929 . S
H665 C697 0.928 . S
O666 Co650 2.057 . S
O666 C654 1.232 . S
H667 C686 0.929 . S
H668 C687 0.929 1_455 S
H669 C699 0.931 . S
H670 C691 0.929 . S
H671 C700 0.930 . S
H672 C692 0.931 . S
O673 Co649 2.097 . S
O673 C701 1.214 . S
H674 C702 0.929 . S
H675 C703 0.929 . S
H676 C704 0.930 . S
H677 C705 0.929 1_655 S
H678 C707 0.930 . S
H679 C684 0.930 . S
H680 C688 0.930 . S
O681 Co650 2.037 . S
O681 C701 1.234 . S
C682 O656 1.269 . S
C682 O657 1.257 . S
C683 H658 0.930 . S
C683 C686 1.388 1_655 S
C683 C688 1.418 . S
C684 H679 0.930 . S
C684 C687 1.405 . S
C684 C688 1.353 . S
N685 Co650 2.145 . S
N685 C686 1.397 . S
N685 C687 1.333 1_455 S
C686 H667 0.929 . S
C686 C683 1.388 1_455 S
C686 N685 1.397 . S
C687 H668 0.929 1_655 S
C687 C684 1.405 . S
C687 N685 1.333 1_655 S
C688 H680 0.930 . S
C688 C683 1.418 . S
C688 C684 1.353 . S
C689 H659 0.930 . S
C689 N690 1.330 . S
C689 C691 1.446 . S
N690 Co649 2.151 . S
N690 C689 1.330 . S
N690 C694 1.418 . S
C691 H670 0.929 . S
C691 C689 1.446 . S
C691 C692 1.332 . S
C692 H672 0.931 . S
C692 C691 1.332 . S
C692 C693 1.267 . S
C693 H661 0.929 . S
C693 C692 1.267 . S
C693 C694 1.251 . S
C694 H664 0.929 . S
C694 N690 1.418 . S
C694 C693 1.251 . S
C695 H662 0.930 . S
C695 C697 1.406 . S
C695 C700 1.261 . S
C696 H663 0.930 . S
C696 N698 1.325 . S
C696 C699 1.357 . S
C697 H665 0.928 . S
C697 C695 1.406 . S
C697 N698 1.261 . S
N698 Co649 2.214 . S
N698 C696 1.325 . S
N698 C697 1.261 . S
C699 H669 0.931 . S
C699 C696 1.357 . S
C699 C700 1.312 . S
C700 H671 0.930 . S
C700 C695 1.261 . S
C700 C699 1.312 . S
C701 O673 1.214 . S
C701 O681 1.234 . S
C702 H674 0.929 . S
C702 C705 1.391 . S
C702 C707 1.391 . S
C703 H675 0.929 . S
C703 C704 1.390 1_455 S
C703 N706 1.391 . S
C704 H676 0.930 . S
C704 C703 1.390 1_655 S
C704 C705 1.392 1_655 S
C705 H677 0.929 1_455 S
C705 C702 1.391 . S
C705 C704 1.392 1_455 S
N706 Co650 2.257 . S
N706 C703 1.391 . S
N706 C707 1.388 . S
C707 H678 0.930 . S
C707 C702 1.391 . S
C707 N706 1.388 . S
Co708 O710 2.143 . S
Co708 O716 2.074 . S
Co708 O719 2.093 . S
Co708 O732 2.097 . S
Co708 N749 2.151 . S
Co708 N757 2.214 . S
Co709 O710 2.160 . S
Co709 O715 2.058 . S
Co709 O725 2.057 . S
Co709 O740 2.037 . S
Co709 N744 2.145 . S
Co709 N765 2.257 . S
O710 Co708 2.143 . S
O710 Co709 2.160 . S
C711 O712 1.278 . S
C711 O719 1.224 . S
O712 C711 1.278 . S
C713 O714 1.245 . S
C713 O725 1.232 . S
O714 C713 1.245 . S
O715 Co709 2.058 . S
O715 C741 1.269 . S
O716 Co708 2.074 . S
O716 C741 1.257 . S
H717 C742 0.930 . S
H718 C748 0.930 . S
O719 Co708 2.093 . S
O719 C711 1.224 . S
H720 C752 0.929 . S
H721 C754 0.930 . S
H722 C755 0.930 . S
H723 C753 0.929 . S
H724 C756 0.928 . S
O725 Co709 2.057 . S
O725 C713 1.232 . S
H726 C745 0.929 . S
H727 C746 0.929 1_565 S
H728 C758 0.931 . S
H729 C750 0.929 . S
H730 C759 0.930 . S
H731 C751 0.931 . S
O732 Co708 2.097 . S
O732 C760 1.214 . S
H733 C761 0.929 . S
H734 C762 0.929 . S
H735 C763 0.930 . S
H736 C764 0.929 1_545 S
H737 C766 0.930 . S
H738 C743 0.930 . S
H739 C747 0.930 . S
O740 Co709 2.037 . S
O740 C760 1.234 . S
C741 O715 1.269 . S
C741 O716 1.257 . S
C742 H717 0.930 . S
C742 C745 1.388 1_545 S
C742 C747 1.418 . S
C743 H738 0.930 . S
C743 C746 1.405 . S
C743 C747 1.353 . S
N744 Co709 2.145 . S
N744 C745 1.397 . S
N744 C746 1.333 1_565 S
C745 H726 0.929 . S
C745 C742 1.388 1_565 S
C745 N744 1.397 . S
C746 H727 0.929 1_545 S
C746 C743 1.405 . S
C746 N744 1.333 1_545 S
C747 H739 0.930 . S
C747 C742 1.418 . S
C747 C743 1.353 . S
C748 H718 0.930 . S
C748 N749 1.330 . S
C748 C750 1.446 . S
N749 Co708 2.151 . S
N749 C748 1.330 . S
N749 C753 1.418 . S
C750 H729 0.929 . S
C750 C748 1.446 . S
C750 C751 1.332 . S
C751 H731 0.931 . S
C751 C750 1.332 . S
C751 C752 1.267 . S
C752 H720 0.929 . S
C752 C751 1.267 . S
C752 C753 1.251 . S
C753 H723 0.929 . S
C753 N749 1.418 . S
C753 C752 1.251 . S
C754 H721 0.930 . S
C754 C756 1.406 . S
C754 C759 1.261 . S
C755 H722 0.930 . S
C755 N757 1.325 . S
C755 C758 1.357 . S
C756 H724 0.928 . S
C756 C754 1.406 . S
C756 N757 1.261 . S
N757 Co708 2.214 . S
N757 C755 1.325 . S
N757 C756 1.261 . S
C758 H728 0.931 . S
C758 C755 1.357 . S
C758 C759 1.312 . S
C759 H730 0.930 . S
C759 C754 1.261 . S
C759 C758 1.312 . S
C760 O732 1.214 . S
C760 O740 1.234 . S
C761 H733 0.929 . S
C761 C764 1.391 . S
C761 C766 1.391 . S
C762 H734 0.929 . S
C762 C763 1.390 1_565 S
C762 N765 1.391 . S
C763 H735 0.930 . S
C763 C762 1.390 1_545 S
C763 C764 1.392 1_545 S
C764 H736 0.929 1_565 S
C764 C761 1.391 . S
C764 C763 1.392 1_565 S
N765 Co709 2.257 . S
N765 C762 1.391 . S
N765 C766 1.388 . S
C766 H737 0.930 . S
C766 C761 1.391 . S
C766 N765 1.388 . S
Co767 O769 2.143 . S
Co767 O775 2.074 . S
Co767 O778 2.093 . S
Co767 O791 2.097 . S
Co767 N808 2.151 . S
Co767 N816 2.214 . S
Co768 O769 2.160 . S
Co768 O774 2.058 . S
Co768 O784 2.057 . S
Co768 O799 2.037 . S
Co768 N803 2.145 . S
Co768 N824 2.257 . S
O769 Co767 2.143 . S
O769 Co768 2.160 . S
C770 O771 1.278 . S
C770 O778 1.224 . S
O771 C770 1.278 . S
C772 O773 1.245 . S
C772 O784 1.232 . S
O773 C772 1.245 . S
O774 Co768 2.058 . S
O774 C800 1.269 . S
O775 Co767 2.074 . S
O775 C800 1.257 . S
H776 C801 0.930 . S
H777 C807 0.930 . S
O778 Co767 2.093 . S
O778 C770 1.224 . S
H779 C811 0.929 . S
H780 C813 0.930 . S
H781 C814 0.930 . S
H782 C812 0.929 . S
H783 C815 0.928 . S
O784 Co768 2.057 . S
O784 C772 1.232 . S
H785 C804 0.929 . S
H786 C805 0.929 1_455 S
H787 C817 0.931 . S
H788 C809 0.929 . S
H789 C818 0.930 . S
H790 C810 0.931 . S
O791 Co767 2.097 . S
O791 C819 1.214 . S
H792 C820 0.929 . S
H793 C821 0.929 . S
H794 C822 0.930 . S
H795 C823 0.929 1_655 S
H796 C825 0.930 . S
H797 C802 0.930 . S
H798 C806 0.930 . S
O799 Co768 2.037 . S
O799 C819 1.234 . S
C800 O774 1.269 . S
C800 O775 1.257 . S
C801 H776 0.930 . S
C801 C804 1.388 1_655 S
C801 C806 1.418 . S
C802 H797 0.930 . S
C802 C805 1.405 . S
C802 C806 1.353 . S
N803 Co768 2.145 . S
N803 C804 1.397 . S
N803 C805 1.333 1_455 S
C804 H785 0.929 . S
C804 C801 1.388 1_455 S
C804 N803 1.397 . S
C805 H786 0.929 1_655 S
C805 C802 1.405 . S
C805 N803 1.333 1_655 S
C806 H798 0.930 . S
C806 C801 1.418 . S
C806 C802 1.353 . S
C807 H777 0.930 . S
C807 N808 1.330 . S
C807 C809 1.446 . S
N808 Co767 2.151 . S
N808 C807 1.330 . S
N808 C812 1.418 . S
C809 H788 0.929 . S
C809 C807 1.446 . S
C809 C810 1.332 . S
C810 H790 0.931 . S
C810 C809 1.332 . S
C810 C811 1.267 . S
C811 H779 0.929 . S
C811 C810 1.267 . S
C811 C812 1.251 . S
C812 H782 0.929 . S
C812 N808 1.418 . S
C812 C811 1.251 . S
C813 H780 0.930 . S
C813 C815 1.406 . S
C813 C818 1.261 . S
C814 H781 0.930 . S
C814 N816 1.325 . S
C814 C817 1.357 . S
C815 H783 0.928 . S
C815 C813 1.406 . S
C815 N816 1.261 . S
N816 Co767 2.214 . S
N816 C814 1.325 . S
N816 C815 1.261 . S
C817 H787 0.931 . S
C817 C814 1.357 . S
C817 C818 1.312 . S
C818 H789 0.930 . S
C818 C813 1.261 . S
C818 C817 1.312 . S
C819 O791 1.214 . S
C819 O799 1.234 . S
C820 H792 0.929 . S
C820 C823 1.391 . S
C820 C825 1.391 . S
C821 H793 0.929 . S
C821 C822 1.390 1_455 S
C821 N824 1.391 . S
C822 H794 0.930 . S
C822 C821 1.390 1_655 S
C822 C823 1.392 1_655 S
C823 H795 0.929 1_455 S
C823 C820 1.391 . S
C823 C822 1.392 1_455 S
N824 Co768 2.257 . S
N824 C821 1.391 . S
N824 C825 1.388 . S
C825 H796 0.930 . S
C825 C820 1.391 . S
C825 N824 1.388 . S
Co826 O828 2.143 . S
Co826 O834 2.074 . S
Co826 O837 2.093 . S
Co826 O850 2.097 . S
Co826 N867 2.151 . S
Co826 N875 2.214 . S
Co827 O828 2.160 . S
Co827 O833 2.058 . S
Co827 O843 2.057 . S
Co827 O858 2.037 . S
Co827 N862 2.145 . S
Co827 N883 2.257 . S
O828 Co826 2.143 . S
O828 Co827 2.160 . S
C829 O830 1.278 . S
C829 O837 1.224 . S
O830 C829 1.278 . S
C831 O832 1.245 . S
C831 O843 1.232 . S
O832 C831 1.245 . S
O833 Co827 2.058 . S
O833 C859 1.269 . S
O834 Co826 2.074 . S
O834 C859 1.257 . S
H835 C860 0.930 . S
H836 C866 0.930 . S
O837 Co826 2.093 . S
O837 C829 1.224 . S
H838 C870 0.929 . S
H839 C872 0.930 . S
H840 C873 0.930 . S
H841 C871 0.929 . S
H842 C874 0.928 . S
O843 Co827 2.057 . S
O843 C831 1.232 . S
H844 C863 0.929 . S
H845 C864 0.929 . S
H846 C876 0.931 . S
H847 C868 0.929 . S
H848 C877 0.930 . S
H849 C869 0.931 . S
O850 Co826 2.097 . S
O850 C878 1.214 . S
H851 C879 0.929 . S
H852 C880 0.929 . S
H853 C881 0.930 . S
H854 C882 0.929 . S
H855 C884 0.930 . S
H856 C861 0.930 . S
H857 C865 0.930 . S
O858 Co827 2.037 . S
O858 C878 1.234 . S
C859 O833 1.269 . S
C859 O834 1.257 . S
C860 H835 0.930 . S
C860 C863 1.388 . S
C860 C865 1.418 . S
C861 H856 0.930 . S
C861 C864 1.404 . S
C861 C865 1.353 . S
N862 Co827 2.145 . S
N862 C863 1.397 . S
N862 C864 1.334 . S
C863 H844 0.929 . S
C863 C860 1.388 . S
C863 N862 1.397 . S
C864 H845 0.929 . S
C864 C861 1.404 . S
C864 N862 1.334 . S
C865 H857 0.930 . S
C865 C860 1.418 . S
C865 C861 1.353 . S
C866 H836 0.930 . S
C866 N867 1.330 . S
C866 C868 1.446 . S
N867 Co826 2.151 . S
N867 C866 1.330 . S
N867 C871 1.418 . S
C868 H847 0.929 . S
C868 C866 1.446 . S
C868 C869 1.332 . S
C869 H849 0.931 . S
C869 C868 1.332 . S
C869 C870 1.267 . S
C870 H838 0.929 . S
C870 C869 1.267 . S
C870 C871 1.251 . S
C871 H841 0.929 . S
C871 N867 1.418 . S
C871 C870 1.251 . S
C872 H839 0.930 . S
C872 C874 1.406 . S
C872 C877 1.261 . S
C873 H840 0.930 . S
C873 N875 1.325 . S
C873 C876 1.357 . S
C874 H842 0.928 . S
C874 C872 1.406 . S
C874 N875 1.261 . S
N875 Co826 2.214 . S
N875 C873 1.325 . S
N875 C874 1.261 . S
C876 H846 0.931 . S
C876 C873 1.357 . S
C876 C877 1.312 . S
C877 H848 0.930 . S
C877 C872 1.261 . S
C877 C876 1.312 . S
C878 O850 1.214 . S
C878 O858 1.234 . S
C879 H851 0.929 . S
C879 C882 1.391 . S
C879 C884 1.391 . S
C880 H852 0.929 . S
C880 C881 1.390 . S
C880 N883 1.391 . S
C881 H853 0.930 . S
C881 C880 1.390 . S
C881 C882 1.392 . S
C882 H854 0.929 . S
C882 C879 1.391 . S
C882 C881 1.392 . S
N883 Co827 2.257 . S
N883 C880 1.391 . S
N883 C884 1.388 . S
C884 H855 0.930 . S
C884 C879 1.391 . S
C884 N883 1.388 . S
Co885 O887 2.143 . S
Co885 O893 2.074 . S
Co885 O896 2.093 . S
Co885 O909 2.097 . S
Co885 N926 2.151 . S
Co885 N934 2.214 . S
Co886 O887 2.160 . S
Co886 O892 2.058 . S
Co886 O902 2.057 . S
Co886 O917 2.037 . S
Co886 N921 2.145 . S
Co886 N942 2.257 . S
O887 Co885 2.143 . S
O887 Co886 2.160 . S
C888 O889 1.278 . S
C888 O896 1.224 . S
O889 C888 1.278 . S
C890 O891 1.245 . S
C890 O902 1.232 . S
O891 C890 1.245 . S
O892 Co886 2.058 . S
O892 C918 1.269 . S
O893 Co885 2.074 . S
O893 C918 1.257 . S
H894 C919 0.930 . S
H895 C925 0.930 . S
O896 Co885 2.093 . S
O896 C888 1.224 . S
H897 C929 0.929 . S
H898 C931 0.930 . S
H899 C932 0.930 . S
H900 C930 0.929 . S
H901 C933 0.928 . S
O902 Co886 2.057 . S
O902 C890 1.232 . S
H903 C922 0.929 . S
H904 C923 0.929 . S
H905 C935 0.931 . S
H906 C927 0.929 . S
H907 C936 0.930 . S
H908 C928 0.931 . S
O909 Co885 2.097 . S
O909 C937 1.214 . S
H910 C938 0.929 . S
H911 C939 0.929 . S
H912 C940 0.930 . S
H913 C941 0.929 . S
H914 C943 0.930 . S
H915 C920 0.930 . S
H916 C924 0.930 . S
O917 Co886 2.037 . S
O917 C937 1.234 . S
C918 O892 1.269 . S
C918 O893 1.257 . S
C919 H894 0.930 . S
C919 C922 1.388 . S
C919 C924 1.418 . S
C920 H915 0.930 . S
C920 C923 1.404 . S
C920 C924 1.353 . S
N921 Co886 2.145 . S
N921 C922 1.397 . S
N921 C923 1.334 . S
C922 H903 0.929 . S
C922 C919 1.388 . S
C922 N921 1.397 . S
C923 H904 0.929 . S
C923 C920 1.404 . S
C923 N921 1.334 . S
C924 H916 0.930 . S
C924 C919 1.418 . S
C924 C920 1.353 . S
C925 H895 0.930 . S
C925 N926 1.330 . S
C925 C927 1.446 . S
N926 Co885 2.151 . S
N926 C925 1.330 . S
N926 C930 1.418 . S
C927 H906 0.929 . S
C927 C925 1.446 . S
C927 C928 1.332 . S
C928 H908 0.931 . S
C928 C927 1.332 . S
C928 C929 1.267 . S
C929 H897 0.929 . S
C929 C928 1.267 . S
C929 C930 1.251 . S
C930 H900 0.929 . S
C930 N926 1.418 . S
C930 C929 1.251 . S
C931 H898 0.930 . S
C931 C933 1.406 . S
C931 C936 1.261 . S
C932 H899 0.930 . S
C932 N934 1.325 . S
C932 C935 1.357 . S
C933 H901 0.928 . S
C933 C931 1.406 . S
C933 N934 1.261 . S
N934 Co885 2.214 . S
N934 C932 1.325 . S
N934 C933 1.261 . S
C935 H905 0.931 . S
C935 C932 1.357 . S
C935 C936 1.312 . S
C936 H907 0.930 . S
C936 C931 1.261 . S
C936 C935 1.312 . S
C937 O909 1.214 . S
C937 O917 1.234 . S
C938 H910 0.929 . S
C938 C941 1.391 . S
C938 C943 1.391 . S
C939 H911 0.929 . S
C939 C940 1.390 . S
C939 N942 1.391 . S
C940 H912 0.930 . S
C940 C939 1.390 . S
C940 C941 1.392 . S
C941 H913 0.929 . S
C941 C938 1.391 . S
C941 C940 1.392 . S
N942 Co886 2.257 . S
N942 C939 1.391 . S
N942 C943 1.388 . S
C943 H914 0.930 . S
C943 C938 1.391 . S
C943 N942 1.388 . S
H944 C952 0.929 . S
H945 C954 0.930 . S
H946 C956 0.930 . S
H947 C959 0.929 . S
H948 C962 0.930 . S
H949 C964 0.960 . S
H950 C964 0.960 . S
H951 C964 0.960 . S
C952 H944 0.929 . S
C952 C953 1.377 . S
C952 C954 1.384 . S
C953 C952 1.377 . S
C953 C959 1.390 . S
C954 H945 0.930 . S
C954 C952 1.384 . S
C954 C955 1.372 . S
C955 C954 1.372 . S
C955 C956 1.400 . S
C955 C960 1.490 . S
C956 H946 0.930 . S
C956 C955 1.400 . S
C956 C959 1.386 . S
H957 C973 0.930 . S
H958 C974 0.931 . S
C959 H947 0.929 . S
C959 C953 1.390 . S
C959 C956 1.386 . S
C960 C955 1.490 . S
C960 C962 1.395 . S
C960 C963 1.403 . S
H961 C967 0.930 . S
C962 H948 0.930 . S
C962 C960 1.395 . S
C962 C965 1.403 . S
C963 C960 1.403 . S
C963 C964 1.524 . S
C963 C967 1.400 . S
C964 H949 0.960 . S
C964 H950 0.960 . S
C964 H951 0.960 . S
C964 C963 1.524 . S
C965 C962 1.403 . S
C965 C966 1.392 . S
C965 C969 1.495 . S
C966 C965 1.392 . S
C966 C967 1.385 . S
C966 C968 1.478 . S
C967 H961 0.930 . S
C967 C963 1.400 . S
C967 C966 1.385 . S
C968 C966 1.478 . S
C968 C970 1.381 . S
C968 C974 1.383 . S
C969 C965 1.495 . S
C969 H975 0.959 . S
C969 H976 0.961 . S
C969 H977 0.960 . S
C970 C968 1.381 . S
C970 C971 1.394 . S
C970 H978 0.930 . S
C971 C970 1.394 . S
C971 C972 1.383 . S
C971 H979 0.929 . S
C972 C971 1.383 . S
C972 C973 1.377 . S
C973 H957 0.930 . S
C973 C972 1.377 . S
C973 C974 1.379 . S
C974 H958 0.931 . S
C974 C968 1.383 . S
C974 C973 1.379 . S
H975 C969 0.959 . S
H976 C969 0.961 . S
H977 C969 0.960 . S
H978 C970 0.930 . S
H979 C971 0.929 . S
H980 C988 0.929 . S
H981 C990 0.930 . S
H982 C992 0.930 . S
H983 C995 0.929 . S
H984 C998 0.930 . S
H985 C1000 0.960 . S
H986 C1000 0.960 . S
H987 C1000 0.960 . S
C988 H980 0.929 . S
C988 C989 1.377 . S
C988 C990 1.384 . S
C989 C988 1.377 . S
C989 C995 1.390 . S
C990 H981 0.930 . S
C990 C988 1.384 . S
C990 C991 1.372 . S
C991 C990 1.372 . S
C991 C992 1.400 . S
C991 C996 1.490 . S
C992 H982 0.930 . S
C992 C991 1.400 . S
C992 C995 1.386 . S
H993 C1009 0.930 . S
H994 C1010 0.931 . S
C995 H983 0.929 . S
C995 C989 1.390 . S
C995 C992 1.386 . S
C996 C991 1.490 . S
C996 C998 1.395 . S
C996 C999 1.403 . S
H997 C1003 0.930 . S
C998 H984 0.930 . S
C998 C996 1.395 . S
C998 C1001 1.403 . S
C999 C996 1.403 . S
C999 C1000 1.524 . S
C999 C1003 1.400 . S
C1000 H985 0.960 . S
C1000 H986 0.960 . S
C1000 H987 0.960 . S
C1000 C999 1.524 . S
C1001 C998 1.403 . S
C1001 C1002 1.392 . S
C1001 C1005 1.495 . S
C1002 C1001 1.392 . S
C1002 C1003 1.385 . S
C1002 C1004 1.478 . S
C1003 H997 0.930 . S
C1003 C999 1.400 . S
C1003 C1002 1.385 . S
C1004 C1002 1.478 . S
C1004 C1006 1.381 . S
C1004 C1010 1.383 . S
C1005 C1001 1.495 . S
C1005 H1011 0.959 . S
C1005 H1012 0.961 . S
C1005 H1013 0.960 . S
C1006 C1004 1.381 . S
C1006 C1007 1.394 . S
C1006 H1014 0.930 . S
C1007 C1006 1.394 . S
C1007 C1008 1.383 . S
C1007 H1015 0.929 . S
C1008 C1007 1.383 . S
C1008 C1009 1.377 . S
C1009 H993 0.930 . S
C1009 C1008 1.377 . S
C1009 C1010 1.379 . S
C1010 H994 0.931 . S
C1010 C1004 1.383 . S
C1010 C1009 1.379 . S
H1011 C1005 0.959 . S
H1012 C1005 0.961 . S
H1013 C1005 0.960 . S
H1014 C1006 0.930 . S
H1015 C1007 0.929 . S
H1016 C1024 0.929 . S
H1017 C1026 0.930 . S
H1018 C1028 0.930 . S
H1019 C1031 0.929 . S
H1020 C1034 0.930 . S
H1021 C1036 0.960 . S
H1022 C1036 0.960 . S
H1023 C1036 0.960 . S
C1024 H1016 0.929 . S
C1024 C1025 1.377 . S
C1024 C1026 1.384 . S
C1025 C1024 1.377 . S
C1025 C1031 1.390 . S
C1026 H1017 0.930 . S
C1026 C1024 1.384 . S
C1026 C1027 1.372 . S
C1027 C1026 1.372 . S
C1027 C1028 1.400 . S
C1027 C1032 1.490 . S
C1028 H1018 0.930 . S
C1028 C1027 1.400 . S
C1028 C1031 1.386 . S
H1029 C1045 0.930 . S
H1030 C1046 0.931 . S
C1031 H1019 0.929 . S
C1031 C1025 1.390 . S
C1031 C1028 1.386 . S
C1032 C1027 1.490 . S
C1032 C1034 1.395 . S
C1032 C1035 1.403 . S
H1033 C1039 0.930 . S
C1034 H1020 0.930 . S
C1034 C1032 1.395 . S
C1034 C1037 1.403 . S
C1035 C1032 1.403 . S
C1035 C1036 1.524 . S
C1035 C1039 1.400 . S
C1036 H1021 0.960 . S
C1036 H1022 0.960 . S
C1036 H1023 0.960 . S
C1036 C1035 1.524 . S
C1037 C1034 1.403 . S
C1037 C1038 1.392 . S
C1037 C1041 1.495 . S
C1038 C1037 1.392 . S
C1038 C1039 1.385 . S
C1038 C1040 1.478 . S
C1039 H1033 0.930 . S
C1039 C1035 1.400 . S
C1039 C1038 1.385 . S
C1040 C1038 1.478 . S
C1040 C1042 1.381 . S
C1040 C1046 1.383 . S
C1041 C1037 1.495 . S
C1041 H1047 0.959 . S
C1041 H1048 0.961 . S
C1041 H1049 0.960 . S
C1042 C1040 1.381 . S
C1042 C1043 1.394 . S
C1042 H1050 0.930 . S
C1043 C1042 1.394 . S
C1043 C1044 1.383 . S
C1043 H1051 0.929 . S
C1044 C1043 1.383 . S
C1044 C1045 1.377 . S
C1045 H1029 0.930 . S
C1045 C1044 1.377 . S
C1045 C1046 1.379 . S
C1046 H1030 0.931 . S
C1046 C1040 1.383 . S
C1046 C1045 1.379 . S
H1047 C1041 0.959 . S
H1048 C1041 0.961 . S
H1049 C1041 0.960 . S
H1050 C1042 0.930 . S
H1051 C1043 0.929 . S
H1052 C1060 0.929 . S
H1053 C1062 0.930 . S
H1054 C1064 0.930 . S
H1055 C1067 0.929 . S
H1056 C1070 0.930 . S
H1057 C1072 0.960 . S
H1058 C1072 0.960 . S
H1059 C1072 0.960 . S
C1060 H1052 0.929 . S
C1060 C1061 1.377 . S
C1060 C1062 1.384 . S
C1061 C1060 1.377 . S
C1061 C1067 1.390 . S
C1062 H1053 0.930 . S
C1062 C1060 1.384 . S
C1062 C1063 1.372 . S
C1063 C1062 1.372 . S
C1063 C1064 1.400 . S
C1063 C1068 1.490 . S
C1064 H1054 0.930 . S
C1064 C1063 1.400 . S
C1064 C1067 1.386 . S
H1065 C1081 0.930 . S
H1066 C1082 0.931 . S
C1067 H1055 0.929 . S
C1067 C1061 1.390 . S
C1067 C1064 1.386 . S
C1068 C1063 1.490 . S
C1068 C1070 1.395 . S
C1068 C1071 1.403 . S
H1069 C1075 0.930 . S
C1070 H1056 0.930 . S
C1070 C1068 1.395 . S
C1070 C1073 1.403 . S
C1071 C1068 1.403 . S
C1071 C1072 1.524 . S
C1071 C1075 1.400 . S
C1072 H1057 0.960 . S
C1072 H1058 0.960 . S
C1072 H1059 0.960 . S
C1072 C1071 1.524 . S
C1073 C1070 1.403 . S
C1073 C1074 1.392 . S
C1073 C1077 1.495 . S
C1074 C1073 1.392 . S
C1074 C1075 1.385 . S
C1074 C1076 1.478 . S
C1075 H1069 0.930 . S
C1075 C1071 1.400 . S
C1075 C1074 1.385 . S
C1076 C1074 1.478 . S
C1076 C1078 1.381 . S
C1076 C1082 1.383 . S
C1077 C1073 1.495 . S
C1077 H1083 0.959 . S
C1077 H1084 0.961 . S
C1077 H1085 0.960 . S
C1078 C1076 1.381 . S
C1078 C1079 1.394 . S
C1078 H1086 0.930 . S
C1079 C1078 1.394 . S
C1079 C1080 1.383 . S
C1079 H1087 0.929 . S
C1080 C1079 1.383 . S
C1080 C1081 1.377 . S
C1081 H1065 0.930 . S
C1081 C1080 1.377 . S
C1081 C1082 1.379 . S
C1082 H1066 0.931 . S
C1082 C1076 1.383 . S
C1082 C1081 1.379 . S
H1083 C1077 0.959 . S
H1084 C1077 0.961 . S
H1085 C1077 0.960 . S
H1086 C1078 0.930 . S
H1087 C1079 0.929 . S
H1088 C1096 0.929 . S
H1089 C1098 0.930 . S
H1090 C1100 0.930 . S
H1091 C1103 0.929 . S
H1092 C1106 0.930 . S
H1093 C1108 0.960 . S
H1094 C1108 0.960 . S
H1095 C1108 0.960 . S
C1096 H1088 0.929 . S
C1096 C1097 1.377 . S
C1096 C1098 1.384 . S
C1097 C1096 1.377 . S
C1097 C1103 1.390 . S
C1098 H1089 0.930 . S
C1098 C1096 1.384 . S
C1098 C1099 1.372 . S
C1099 C1098 1.372 . S
C1099 C1100 1.400 . S
C1099 C1104 1.490 . S
C1100 H1090 0.930 . S
C1100 C1099 1.400 . S
C1100 C1103 1.386 . S
H1101 C1117 0.930 . S
H1102 C1118 0.931 . S
C1103 H1091 0.929 . S
C1103 C1097 1.390 . S
C1103 C1100 1.386 . S
C1104 C1099 1.490 . S
C1104 C1106 1.395 . S
C1104 C1107 1.403 . S
H1105 C1111 0.930 . S
C1106 H1092 0.930 . S
C1106 C1104 1.395 . S
C1106 C1109 1.403 . S
C1107 C1104 1.403 . S
C1107 C1108 1.524 . S
C1107 C1111 1.400 . S
C1108 H1093 0.960 . S
C1108 H1094 0.960 . S
C1108 H1095 0.960 . S
C1108 C1107 1.524 . S
C1109 C1106 1.403 . S
C1109 C1110 1.392 . S
C1109 C1113 1.495 . S
C1110 C1109 1.392 . S
C1110 C1111 1.385 . S
C1110 C1112 1.478 . S
C1111 H1105 0.930 . S
C1111 C1107 1.400 . S
C1111 C1110 1.385 . S
C1112 C1110 1.478 . S
C1112 C1114 1.381 . S
C1112 C1118 1.383 . S
C1113 C1109 1.495 . S
C1113 H1119 0.959 . S
C1113 H1120 0.961 . S
C1113 H1121 0.960 . S
C1114 C1112 1.381 . S
C1114 C1115 1.394 . S
C1114 H1122 0.930 . S
C1115 C1114 1.394 . S
C1115 C1116 1.383 . S
C1115 H1123 0.929 . S
C1116 C1115 1.383 . S
C1116 C1117 1.377 . S
C1117 H1101 0.930 . S
C1117 C1116 1.377 . S
C1117 C1118 1.379 . S
C1118 H1102 0.931 . S
C1118 C1112 1.383 . S
C1118 C1117 1.379 . S
H1119 C1113 0.959 . S
H1120 C1113 0.961 . S
H1121 C1113 0.960 . S
H1122 C1114 0.930 . S
H1123 C1115 0.929 . S
H1124 C1132 0.929 . S
H1125 C1134 0.930 . S
H1126 C1136 0.930 . S
H1127 C1139 0.929 . S
H1128 C1142 0.930 . S
H1129 C1144 0.960 . S
H1130 C1144 0.960 . S
H1131 C1144 0.960 . S
C1132 H1124 0.929 . S
C1132 C1133 1.377 . S
C1132 C1134 1.384 . S
C1133 C1132 1.377 . S
C1133 C1139 1.390 . S
C1134 H1125 0.930 . S
C1134 C1132 1.384 . S
C1134 C1135 1.372 . S
C1135 C1134 1.372 . S
C1135 C1136 1.400 . S
C1135 C1140 1.490 . S
C1136 H1126 0.930 . S
C1136 C1135 1.400 . S
C1136 C1139 1.386 . S
H1137 C1153 0.930 . S
H1138 C1154 0.931 . S
C1139 H1127 0.929 . S
C1139 C1133 1.390 . S
C1139 C1136 1.386 . S
C1140 C1135 1.490 . S
C1140 C1142 1.395 . S
C1140 C1143 1.403 . S
H1141 C1147 0.930 . S
C1142 H1128 0.930 . S
C1142 C1140 1.395 . S
C1142 C1145 1.403 . S
C1143 C1140 1.403 . S
C1143 C1144 1.524 . S
C1143 C1147 1.400 . S
C1144 H1129 0.960 . S
C1144 H1130 0.960 . S
C1144 H1131 0.960 . S
C1144 C1143 1.524 . S
C1145 C1142 1.403 . S
C1145 C1146 1.392 . S
C1145 C1149 1.495 . S
C1146 C1145 1.392 . S
C1146 C1147 1.385 . S
C1146 C1148 1.478 . S
C1147 H1141 0.930 . S
C1147 C1143 1.400 . S
C1147 C1146 1.385 . S
C1148 C1146 1.478 . S
C1148 C1150 1.381 . S
C1148 C1154 1.383 . S
C1149 C1145 1.495 . S
C1149 H1155 0.959 . S
C1149 H1156 0.961 . S
C1149 H1157 0.960 . S
C1150 C1148 1.381 . S
C1150 C1151 1.394 . S
C1150 H1158 0.930 . S
C1151 C1150 1.394 . S
C1151 C1152 1.383 . S
C1151 H1159 0.929 . S
C1152 C1151 1.383 . S
C1152 C1153 1.377 . S
C1153 H1137 0.930 . S
C1153 C1152 1.377 . S
C1153 C1154 1.379 . S
C1154 H1138 0.931 . S
C1154 C1148 1.383 . S
C1154 C1153 1.379 . S
H1155 C1149 0.959 . S
H1156 C1149 0.961 . S
H1157 C1149 0.960 . S
H1158 C1150 0.930 . S
H1159 C1151 0.929 . S
H1160 C1168 0.929 . S
H1161 C1170 0.930 . S
H1162 C1172 0.930 . S
H1163 C1175 0.929 . S
H1164 C1178 0.930 . S
H1165 C1180 0.960 . S
H1166 C1180 0.960 . S
H1167 C1180 0.960 . S
C1168 H1160 0.929 . S
C1168 C1169 1.377 . S
C1168 C1170 1.384 . S
C1169 C1168 1.377 . S
C1169 C1175 1.390 . S
C1170 H1161 0.930 . S
C1170 C1168 1.384 . S
C1170 C1171 1.372 . S
C1171 C1170 1.372 . S
C1171 C1172 1.400 . S
C1171 C1176 1.490 . S
C1172 H1162 0.930 . S
C1172 C1171 1.400 . S
C1172 C1175 1.386 . S
H1173 C1189 0.930 . S
H1174 C1190 0.931 . S
C1175 H1163 0.929 . S
C1175 C1169 1.390 . S
C1175 C1172 1.386 . S
C1176 C1171 1.490 . S
C1176 C1178 1.395 . S
C1176 C1179 1.403 . S
H1177 C1183 0.930 . S
C1178 H1164 0.930 . S
C1178 C1176 1.395 . S
C1178 C1181 1.403 . S
C1179 C1176 1.403 . S
C1179 C1180 1.524 . S
C1179 C1183 1.400 . S
C1180 H1165 0.960 . S
C1180 H1166 0.960 . S
C1180 H1167 0.960 . S
C1180 C1179 1.524 . S
C1181 C1178 1.403 . S
C1181 C1182 1.392 . S
C1181 C1185 1.495 . S
C1182 C1181 1.392 . S
C1182 C1183 1.385 . S
C1182 C1184 1.478 . S
C1183 H1177 0.930 . S
C1183 C1179 1.400 . S
C1183 C1182 1.385 . S
C1184 C1182 1.478 . S
C1184 C1186 1.381 . S
C1184 C1190 1.383 . S
C1185 C1181 1.495 . S
C1185 H1191 0.959 . S
C1185 H1192 0.961 . S
C1185 H1193 0.960 . S
C1186 C1184 1.381 . S
C1186 C1187 1.394 . S
C1186 H1194 0.930 . S
C1187 C1186 1.394 . S
C1187 C1188 1.383 . S
C1187 H1195 0.929 . S
C1188 C1187 1.383 . S
C1188 C1189 1.377 . S
C1189 H1173 0.930 . S
C1189 C1188 1.377 . S
C1189 C1190 1.379 . S
C1190 H1174 0.931 . S
C1190 C1184 1.383 . S
C1190 C1189 1.379 . S
H1191 C1185 0.959 . S
H1192 C1185 0.961 . S
H1193 C1185 0.960 . S
H1194 C1186 0.930 . S
H1195 C1187 0.929 . S
H1196 C1204 0.929 . S
H1197 C1206 0.930 . S
H1198 C1208 0.930 . S
H1199 C1211 0.929 . S
H1200 C1214 0.930 . S
H1201 C1216 0.960 . S
H1202 C1216 0.960 . S
H1203 C1216 0.960 . S
C1204 H1196 0.929 . S
C1204 C1205 1.377 . S
C1204 C1206 1.384 . S
C1205 C1204 1.377 . S
C1205 C1211 1.390 . S
C1206 H1197 0.930 . S
C1206 C1204 1.384 . S
C1206 C1207 1.372 . S
C1207 C1206 1.372 . S
C1207 C1208 1.400 . S
C1207 C1212 1.490 . S
C1208 H1198 0.930 . S
C1208 C1207 1.400 . S
C1208 C1211 1.386 . S
H1209 C1225 0.930 . S
H1210 C1226 0.931 . S
C1211 H1199 0.929 . S
C1211 C1205 1.390 . S
C1211 C1208 1.386 . S
C1212 C1207 1.490 . S
C1212 C1214 1.395 . S
C1212 C1215 1.403 . S
H1213 C1219 0.930 . S
C1214 H1200 0.930 . S
C1214 C1212 1.395 . S
C1214 C1217 1.403 . S
C1215 C1212 1.403 . S
C1215 C1216 1.524 . S
C1215 C1219 1.400 . S
C1216 H1201 0.960 . S
C1216 H1202 0.960 . S
C1216 H1203 0.960 . S
C1216 C1215 1.524 . S
C1217 C1214 1.403 . S
C1217 C1218 1.392 . S
C1217 C1221 1.495 . S
C1218 C1217 1.392 . S
C1218 C1219 1.385 . S
C1218 C1220 1.478 . S
C1219 H1213 0.930 . S
C1219 C1215 1.400 . S
C1219 C1218 1.385 . S
C1220 C1218 1.478 . S
C1220 C1222 1.381 . S
C1220 C1226 1.383 . S
C1221 C1217 1.495 . S
C1221 H1227 0.959 . S
C1221 H1228 0.961 . S
C1221 H1229 0.960 . S
C1222 C1220 1.381 . S
C1222 C1223 1.394 . S
C1222 H1230 0.930 . S
C1223 C1222 1.394 . S
C1223 C1224 1.383 . S
C1223 H1231 0.929 . S
C1224 C1223 1.383 . S
C1224 C1225 1.377 . S
C1225 H1209 0.930 . S
C1225 C1224 1.377 . S
C1225 C1226 1.379 . S
C1226 H1210 0.931 . S
C1226 C1220 1.383 . S
C1226 C1225 1.379 . S
H1227 C1221 0.959 . S
H1228 C1221 0.961 . S
H1229 C1221 0.960 . S
H1230 C1222 0.930 . S
H1231 C1223 0.929 . S
H1232 C1240 0.929 . S
H1233 C1242 0.930 . S
H1234 C1244 0.930 . S
H1235 C1247 0.929 . S
H1236 C1250 0.930 . S
H1237 C1252 0.960 . S
H1238 C1252 0.960 . S
H1239 C1252 0.960 . S
C1240 H1232 0.929 . S
C1240 C1241 1.377 . S
C1240 C1242 1.384 . S
C1241 C1240 1.377 . S
C1241 C1247 1.390 . S
C1242 H1233 0.930 . S
C1242 C1240 1.384 . S
C1242 C1243 1.372 . S
C1243 C1242 1.372 . S
C1243 C1244 1.400 . S
C1243 C1248 1.490 . S
C1244 H1234 0.930 . S
C1244 C1243 1.400 . S
C1244 C1247 1.386 . S
H1245 C1261 0.930 . S
H1246 C1262 0.931 . S
C1247 H1235 0.929 . S
C1247 C1241 1.390 . S
C1247 C1244 1.386 . S
C1248 C1243 1.490 . S
C1248 C1250 1.395 . S
C1248 C1251 1.403 . S
H1249 C1255 0.930 . S
C1250 H1236 0.930 . S
C1250 C1248 1.395 . S
C1250 C1253 1.403 . S
C1251 C1248 1.403 . S
C1251 C1252 1.524 . S
C1251 C1255 1.400 . S
C1252 H1237 0.960 . S
C1252 H1238 0.960 . S
C1252 H1239 0.960 . S
C1252 C1251 1.524 . S
C1253 C1250 1.403 . S
C1253 C1254 1.392 . S
C1253 C1257 1.495 . S
C1254 C1253 1.392 . S
C1254 C1255 1.385 . S
C1254 C1256 1.478 . S
C1255 H1249 0.930 . S
C1255 C1251 1.400 . S
C1255 C1254 1.385 . S
C1256 C1254 1.478 . S
C1256 C1258 1.381 . S
C1256 C1262 1.383 . S
C1257 C1253 1.495 . S
C1257 H1263 0.959 . S
C1257 H1264 0.961 . S
C1257 H1265 0.960 . S
C1258 C1256 1.381 . S
C1258 C1259 1.394 . S
C1258 H1266 0.930 . S
C1259 C1258 1.394 . S
C1259 C1260 1.383 . S
C1259 H1267 0.929 . S
C1260 C1259 1.383 . S
C1260 C1261 1.377 . S
C1261 H1245 0.930 . S
C1261 C1260 1.377 . S
C1261 C1262 1.379 . S
C1262 H1246 0.931 . S
C1262 C1256 1.383 . S
C1262 C1261 1.379 . S
H1263 C1257 0.959 . S
H1264 C1257 0.961 . S
H1265 C1257 0.960 . S
H1266 C1258 0.930 . S
H1267 C1259 0.929 . S
H1268 C1276 0.929 . S
H1269 C1278 0.930 . S
H1270 C1280 0.930 . S
H1271 C1283 0.929 . S
H1272 C1286 0.930 . S
H1273 C1288 0.960 . S
H1274 C1288 0.960 . S
H1275 C1288 0.960 . S
C1276 H1268 0.929 . S
C1276 C1277 1.377 . S
C1276 C1278 1.384 . S
C1277 C1276 1.377 . S
C1277 C1283 1.390 . S
C1278 H1269 0.930 . S
C1278 C1276 1.384 . S
C1278 C1279 1.372 . S
C1279 C1278 1.372 . S
C1279 C1280 1.400 . S
C1279 C1284 1.490 . S
C1280 H1270 0.930 . S
C1280 C1279 1.400 . S
C1280 C1283 1.386 . S
H1281 C1297 0.930 . S
H1282 C1298 0.931 . S
C1283 H1271 0.929 . S
C1283 C1277 1.390 . S
C1283 C1280 1.386 . S
C1284 C1279 1.490 . S
C1284 C1286 1.395 . S
C1284 C1287 1.403 . S
H1285 C1291 0.930 . S
C1286 H1272 0.930 . S
C1286 C1284 1.395 . S
C1286 C1289 1.403 . S
C1287 C1284 1.403 . S
C1287 C1288 1.524 . S
C1287 C1291 1.400 . S
C1288 H1273 0.960 . S
C1288 H1274 0.960 . S
C1288 H1275 0.960 . S
C1288 C1287 1.524 . S
C1289 C1286 1.403 . S
C1289 C1290 1.392 . S
C1289 C1293 1.495 . S
C1290 C1289 1.392 . S
C1290 C1291 1.385 . S
C1290 C1292 1.478 . S
C1291 H1285 0.930 . S
C1291 C1287 1.400 . S
C1291 C1290 1.385 . S
C1292 C1290 1.478 . S
C1292 C1294 1.381 . S
C1292 C1298 1.383 . S
C1293 C1289 1.495 . S
C1293 H1299 0.959 . S
C1293 H1300 0.961 . S
C1293 H1301 0.960 . S
C1294 C1292 1.381 . S
C1294 C1295 1.394 . S
C1294 H1302 0.930 . S
C1295 C1294 1.394 . S
C1295 C1296 1.383 . S
C1295 H1303 0.929 . S
C1296 C1295 1.383 . S
C1296 C1297 1.377 . S
C1297 H1281 0.930 . S
C1297 C1296 1.377 . S
C1297 C1298 1.379 . S
C1298 H1282 0.931 . S
C1298 C1292 1.383 . S
C1298 C1297 1.379 . S
H1299 C1293 0.959 . S
H1300 C1293 0.961 . S
H1301 C1293 0.960 . S
H1302 C1294 0.930 . S
H1303 C1295 0.929 . S
H1304 C1312 0.929 . S
H1305 C1314 0.930 . S
H1306 C1316 0.930 . S
H1307 C1319 0.929 . S
H1308 C1322 0.930 . S
H1309 C1324 0.960 . S
H1310 C1324 0.960 . S
H1311 C1324 0.960 . S
C1312 H1304 0.929 . S
C1312 C1313 1.377 . S
C1312 C1314 1.384 . S
C1313 C1312 1.377 . S
C1313 C1319 1.390 . S
C1314 H1305 0.930 . S
C1314 C1312 1.384 . S
C1314 C1315 1.372 . S
C1315 C1314 1.372 . S
C1315 C1316 1.400 . S
C1315 C1320 1.490 . S
C1316 H1306 0.930 . S
C1316 C1315 1.400 . S
C1316 C1319 1.386 . S
H1317 C1333 0.930 . S
H1318 C1334 0.931 . S
C1319 H1307 0.929 . S
C1319 C1313 1.390 . S
C1319 C1316 1.386 . S
C1320 C1315 1.490 . S
C1320 C1322 1.395 . S
C1320 C1323 1.403 . S
H1321 C1327 0.930 . S
C1322 H1308 0.930 . S
C1322 C1320 1.395 . S
C1322 C1325 1.403 . S
C1323 C1320 1.403 . S
C1323 C1324 1.524 . S
C1323 C1327 1.400 . S
C1324 H1309 0.960 . S
C1324 H1310 0.960 . S
C1324 H1311 0.960 . S
C1324 C1323 1.524 . S
C1325 C1322 1.403 . S
C1325 C1326 1.392 . S
C1325 C1329 1.495 . S
C1326 C1325 1.392 . S
C1326 C1327 1.385 . S
C1326 C1328 1.478 . S
C1327 H1321 0.930 . S
C1327 C1323 1.400 . S
C1327 C1326 1.385 . S
C1328 C1326 1.478 . S
C1328 C1330 1.381 . S
C1328 C1334 1.383 . S
C1329 C1325 1.495 . S
C1329 H1335 0.959 . S
C1329 H1336 0.961 . S
C1329 H1337 0.960 . S
C1330 C1328 1.381 . S
C1330 C1331 1.394 . S
C1330 H1338 0.930 . S
C1331 C1330 1.394 . S
C1331 C1332 1.383 . S
C1331 H1339 0.929 . S
C1332 C1331 1.383 . S
C1332 C1333 1.377 . S
C1333 H1317 0.930 . S
C1333 C1332 1.377 . S
C1333 C1334 1.379 . S
C1334 H1318 0.931 . S
C1334 C1328 1.383 . S
C1334 C1333 1.379 . S
H1335 C1329 0.959 . S
H1336 C1329 0.961 . S
H1337 C1329 0.960 . S
H1338 C1330 0.930 . S
H1339 C1331 0.929 . S
H1340 C1348 0.929 . S
H1341 C1350 0.930 . S
H1342 C1352 0.930 . S
H1343 C1355 0.929 . S
H1344 C1358 0.930 . S
H1345 C1360 0.960 . S
H1346 C1360 0.960 . S
H1347 C1360 0.960 . S
C1348 H1340 0.929 . S
C1348 C1349 1.377 . S
C1348 C1350 1.384 . S
C1349 C1348 1.377 . S
C1349 C1355 1.390 . S
C1350 H1341 0.930 . S
C1350 C1348 1.384 . S
C1350 C1351 1.372 . S
C1351 C1350 1.372 . S
C1351 C1352 1.400 . S
C1351 C1356 1.490 . S
C1352 H1342 0.930 . S
C1352 C1351 1.400 . S
C1352 C1355 1.386 . S
H1353 C1369 0.930 . S
H1354 C1370 0.931 . S
C1355 H1343 0.929 . S
C1355 C1349 1.390 . S
C1355 C1352 1.386 . S
C1356 C1351 1.490 . S
C1356 C1358 1.395 . S
C1356 C1359 1.403 . S
H1357 C1363 0.930 . S
C1358 H1344 0.930 . S
C1358 C1356 1.395 . S
C1358 C1361 1.403 1_554 S
C1359 C1356 1.403 . S
C1359 C1360 1.524 . S
C1359 C1363 1.400 1_554 S
C1360 H1345 0.960 . S
C1360 H1346 0.960 . S
C1360 H1347 0.960 . S
C1360 C1359 1.524 . S
C1361 C1358 1.403 1_556 S
C1361 C1362 1.392 . S
C1361 C1365 1.495 . S
C1362 C1361 1.392 . S
C1362 C1363 1.385 . S
C1362 C1364 1.478 . S
C1363 H1357 0.930 . S
C1363 C1359 1.400 1_556 S
C1363 C1362 1.385 . S
C1364 C1362 1.478 . S
C1364 C1366 1.381 . S
C1364 C1370 1.383 . S
C1365 C1361 1.495 . S
C1365 H1371 0.959 . S
C1365 H1372 0.961 . S
C1365 H1373 0.960 . S
C1366 C1364 1.381 . S
C1366 C1367 1.394 . S
C1366 H1374 0.930 . S
C1367 C1366 1.394 . S
C1367 C1368 1.383 . S
C1367 H1375 0.929 . S
C1368 C1367 1.383 . S
C1368 C1369 1.377 . S
C1369 H1353 0.930 . S
C1369 C1368 1.377 . S
C1369 C1370 1.379 . S
C1370 H1354 0.931 . S
C1370 C1364 1.383 . S
C1370 C1369 1.379 . S
H1371 C1365 0.959 . S
H1372 C1365 0.961 . S
H1373 C1365 0.960 . S
H1374 C1366 0.930 . S
H1375 C1367 0.929 . S
H1376 C1384 0.929 . S
H1377 C1386 0.930 . S
H1378 C1388 0.930 . S
H1379 C1391 0.929 . S
H1380 C1394 0.930 . S
H1381 C1396 0.960 . S
H1382 C1396 0.960 . S
H1383 C1396 0.960 . S
C1384 H1376 0.929 . S
C1384 C1385 1.377 . S
C1384 C1386 1.384 . S
C1385 C1384 1.377 . S
C1385 C1391 1.390 . S
C1386 H1377 0.930 . S
C1386 C1384 1.384 . S
C1386 C1387 1.372 . S
C1387 C1386 1.372 . S
C1387 C1388 1.400 . S
C1387 C1392 1.490 . S
C1388 H1378 0.930 . S
C1388 C1387 1.400 . S
C1388 C1391 1.386 . S
H1389 C1405 0.930 . S
H1390 C1406 0.931 . S
C1391 H1379 0.929 . S
C1391 C1385 1.390 . S
C1391 C1388 1.386 . S
C1392 C1387 1.490 . S
C1392 C1394 1.395 . S
C1392 C1395 1.403 . S
H1393 C1399 0.930 . S
C1394 H1380 0.930 . S
C1394 C1392 1.395 . S
C1394 C1397 1.403 1_554 S
C1395 C1392 1.403 . S
C1395 C1396 1.524 . S
C1395 C1399 1.400 1_554 S
C1396 H1381 0.960 . S
C1396 H1382 0.960 . S
C1396 H1383 0.960 . S
C1396 C1395 1.524 . S
C1397 C1394 1.403 1_556 S
C1397 C1398 1.392 . S
C1397 C1401 1.495 . S
C1398 C1397 1.392 . S
C1398 C1399 1.385 . S
C1398 C1400 1.478 . S
C1399 H1393 0.930 . S
C1399 C1395 1.400 1_556 S
C1399 C1398 1.385 . S
C1400 C1398 1.478 . S
C1400 C1402 1.381 . S
C1400 C1406 1.383 . S
C1401 C1397 1.495 . S
C1401 H1407 0.959 . S
C1401 H1408 0.961 . S
C1401 H1409 0.960 . S
C1402 C1400 1.381 . S
C1402 C1403 1.394 . S
C1402 H1410 0.930 . S
C1403 C1402 1.394 . S
C1403 C1404 1.383 . S
C1403 H1411 0.929 . S
C1404 C1403 1.383 . S
C1404 C1405 1.377 . S
C1405 H1389 0.930 . S
C1405 C1404 1.377 . S
C1405 C1406 1.379 . S
C1406 H1390 0.931 . S
C1406 C1400 1.383 . S
C1406 C1405 1.379 . S
H1407 C1401 0.959 . S
H1408 C1401 0.961 . S
H1409 C1401 0.960 . S
H1410 C1402 0.930 . S
H1411 C1403 0.929 . S
H1412 C1420 0.929 . S
H1413 C1422 0.930 . S
H1414 C1424 0.930 . S
H1415 C1427 0.929 . S
H1416 C1430 0.930 . S
H1417 C1432 0.960 . S
H1418 C1432 0.960 . S
H1419 C1432 0.960 . S
C1420 H1412 0.929 . S
C1420 C1421 1.377 . S
C1420 C1422 1.384 . S
C1421 C1420 1.377 . S
C1421 C1427 1.390 . S
C1422 H1413 0.930 . S
C1422 C1420 1.384 . S
C1422 C1423 1.372 . S
C1423 C1422 1.372 . S
C1423 C1424 1.400 . S
C1423 C1428 1.490 . S
C1424 H1414 0.930 . S
C1424 C1423 1.400 . S
C1424 C1427 1.386 . S
H1425 C1441 0.930 . S
H1426 C1442 0.931 . S
C1427 H1415 0.929 . S
C1427 C1421 1.390 . S
C1427 C1424 1.386 . S
C1428 C1423 1.490 . S
C1428 C1430 1.395 . S
C1428 C1431 1.403 . S
H1429 C1435 0.930 . S
C1430 H1416 0.930 . S
C1430 C1428 1.395 . S
C1430 C1433 1.403 . S
C1431 C1428 1.403 . S
C1431 C1432 1.524 . S
C1431 C1435 1.400 . S
C1432 H1417 0.960 . S
C1432 H1418 0.960 . S
C1432 H1419 0.960 . S
C1432 C1431 1.524 . S
C1433 C1430 1.403 . S
C1433 C1434 1.392 . S
C1433 C1437 1.495 . S
C1434 C1433 1.392 . S
C1434 C1435 1.385 . S
C1434 C1436 1.478 . S
C1435 H1429 0.930 . S
C1435 C1431 1.400 . S
C1435 C1434 1.385 . S
C1436 C1434 1.478 . S
C1436 C1438 1.381 . S
C1436 C1442 1.383 . S
C1437 C1433 1.495 . S
C1437 H1443 0.959 . S
C1437 H1444 0.961 . S
C1437 H1445 0.960 . S
C1438 C1436 1.381 . S
C1438 C1439 1.394 . S
C1438 H1446 0.930 . S
C1439 C1438 1.394 . S
C1439 C1440 1.383 . S
C1439 H1447 0.929 . S
C1440 C1439 1.383 . S
C1440 C1441 1.377 . S
C1441 H1425 0.930 . S
C1441 C1440 1.377 . S
C1441 C1442 1.379 . S
C1442 H1426 0.931 . S
C1442 C1436 1.383 . S
C1442 C1441 1.379 . S
H1443 C1437 0.959 . S
H1444 C1437 0.961 . S
H1445 C1437 0.960 . S
H1446 C1438 0.930 . S
H1447 C1439 0.929 . S
H1448 C1456 0.929 . S
H1449 C1458 0.930 . S
H1450 C1460 0.930 . S
H1451 C1463 0.929 . S
H1452 C1466 0.930 . S
H1453 C1468 0.960 . S
H1454 C1468 0.960 . S
H1455 C1468 0.960 . S
C1456 H1448 0.929 . S
C1456 C1457 1.377 . S
C1456 C1458 1.384 . S
C1457 C1456 1.377 . S
C1457 C1463 1.390 . S
C1458 H1449 0.930 . S
C1458 C1456 1.384 . S
C1458 C1459 1.372 . S
C1459 C1458 1.372 . S
C1459 C1460 1.400 . S
C1459 C1464 1.490 . S
C1460 H1450 0.930 . S
C1460 C1459 1.400 . S
C1460 C1463 1.386 . S
H1461 C1477 0.930 . S
H1462 C1478 0.931 . S
C1463 H1451 0.929 . S
C1463 C1457 1.390 . S
C1463 C1460 1.386 . S
C1464 C1459 1.490 . S
C1464 C1466 1.395 . S
C1464 C1467 1.403 . S
H1465 C1471 0.930 . S
C1466 H1452 0.930 . S
C1466 C1464 1.395 . S
C1466 C1469 1.403 . S
C1467 C1464 1.403 . S
C1467 C1468 1.524 . S
C1467 C1471 1.400 . S
C1468 H1453 0.960 . S
C1468 H1454 0.960 . S
C1468 H1455 0.960 . S
C1468 C1467 1.524 . S
C1469 C1466 1.403 . S
C1469 C1470 1.392 . S
C1469 C1473 1.495 . S
C1470 C1469 1.392 . S
C1470 C1471 1.385 . S
C1470 C1472 1.478 . S
C1471 H1465 0.930 . S
C1471 C1467 1.400 . S
C1471 C1470 1.385 . S
C1472 C1470 1.478 . S
C1472 C1474 1.381 . S
C1472 C1478 1.383 . S
C1473 C1469 1.495 . S
C1473 H1479 0.959 . S
C1473 H1480 0.961 . S
C1473 H1481 0.960 . S
C1474 C1472 1.381 . S
C1474 C1475 1.394 . S
C1474 H1482 0.930 . S
C1475 C1474 1.394 . S
C1475 C1476 1.383 . S
C1475 H1483 0.929 . S
C1476 C1475 1.383 . S
C1476 C1477 1.377 . S
C1477 H1461 0.930 . S
C1477 C1476 1.377 . S
C1477 C1478 1.379 . S
C1478 H1462 0.931 . S
C1478 C1472 1.383 . S
C1478 C1477 1.379 . S
H1479 C1473 0.959 . S
H1480 C1473 0.961 . S
H1481 C1473 0.960 . S
H1482 C1474 0.930 . S
H1483 C1475 0.929 . S
H1484 C1492 0.929 . S
H1485 C1494 0.930 . S
H1486 C1496 0.930 . S
H1487 C1499 0.929 . S
H1488 C1502 0.930 . S
H1489 C1504 0.960 . S
H1490 C1504 0.960 . S
H1491 C1504 0.960 . S
C1492 H1484 0.929 . S
C1492 C1493 1.377 . S
C1492 C1494 1.384 . S
C1493 C1492 1.377 . S
C1493 C1499 1.390 . S
C1494 H1485 0.930 . S
C1494 C1492 1.384 . S
C1494 C1495 1.372 . S
C1495 C1494 1.372 . S
C1495 C1496 1.400 . S
C1495 C1500 1.490 . S
C1496 H1486 0.930 . S
C1496 C1495 1.400 . S
C1496 C1499 1.386 . S
H1497 C1513 0.930 . S
H1498 C1514 0.931 . S
C1499 H1487 0.929 . S
C1499 C1493 1.390 . S
C1499 C1496 1.386 . S
C1500 C1495 1.490 . S
C1500 C1502 1.395 . S
C1500 C1503 1.403 . S
H1501 C1507 0.930 . S
C1502 H1488 0.930 . S
C1502 C1500 1.395 . S
C1502 C1505 1.403 . S
C1503 C1500 1.403 . S
C1503 C1504 1.524 . S
C1503 C1507 1.400 . S
C1504 H1489 0.960 . S
C1504 H1490 0.960 . S
C1504 H1491 0.960 . S
C1504 C1503 1.524 . S
C1505 C1502 1.403 . S
C1505 C1506 1.392 . S
C1505 C1509 1.495 . S
C1506 C1505 1.392 . S
C1506 C1507 1.385 . S
C1506 C1508 1.478 . S
C1507 H1501 0.930 . S
C1507 C1503 1.400 . S
C1507 C1506 1.385 . S
C1508 C1506 1.478 . S
C1508 C1510 1.381 . S
C1508 C1514 1.383 . S
C1509 C1505 1.495 . S
C1509 H1515 0.959 . S
C1509 H1516 0.961 . S
C1509 H1517 0.960 . S
C1510 C1508 1.381 . S
C1510 C1511 1.394 . S
C1510 H1518 0.930 . S
C1511 C1510 1.394 . S
C1511 C1512 1.383 . S
C1511 H1519 0.929 . S
C1512 C1511 1.383 . S
C1512 C1513 1.377 . S
C1513 H1497 0.930 . S
C1513 C1512 1.377 . S
C1513 C1514 1.379 . S
C1514 H1498 0.931 . S
C1514 C1508 1.383 . S
C1514 C1513 1.379 . S
H1515 C1509 0.959 . S
H1516 C1509 0.961 . S
H1517 C1509 0.960 . S
H1518 C1510 0.930 . S
H1519 C1511 0.929 . S
H1520 C1528 0.929 . S
H1521 C1530 0.930 . S
H1522 C1532 0.930 . S
H1523 C1535 0.929 . S
H1524 C1538 0.930 . S
H1525 C1540 0.983 . S
H1526 C1540 0.952 1_455 S
H1527 C1540 0.947 1_455 S
C1528 H1520 0.929 . S
C1528 C1529 1.377 . S
C1528 C1530 1.384 . S
C1529 C1528 1.377 . S
C1529 C1535 1.390 . S
C1530 H1521 0.930 . S
C1530 C1528 1.384 . S
C1530 C1531 1.372 . S
C1531 C1530 1.372 . S
C1531 C1532 1.400 . S
C1531 C1536 1.490 . S
C1532 H1522 0.930 . S
C1532 C1531 1.400 . S
C1532 C1535 1.386 . S
H1533 C1549 0.930 . S
H1534 C1550 0.931 . S
C1535 H1523 0.929 . S
C1535 C1529 1.390 . S
C1535 C1532 1.386 . S
C1536 C1531 1.490 . S
C1536 C1538 1.395 1_545 S
C1536 C1539 1.403 . S
H1537 C1543 0.930 . S
C1538 H1524 0.930 . S
C1538 C1536 1.395 1_565 S
C1538 C1541 1.403 . S
C1539 C1536 1.403 . S
C1539 C1540 1.523 1_455 S
C1539 C1543 1.400 1_455 S
C1540 H1525 0.983 . S
C1540 H1526 0.952 1_655 S
C1540 H1527 0.947 1_655 S
C1540 C1539 1.523 1_655 S
C1541 C1538 1.403 . S
C1541 C1542 1.392 1_455 S
C1541 C1545 1.495 . S
C1542 C1541 1.392 1_655 S
C1542 C1543 1.385 1_565 S
C1542 C1544 1.478 . S
C1543 H1537 0.930 . S
C1543 C1539 1.400 1_655 S
C1543 C1542 1.385 1_545 S
C1544 C1542 1.478 . S
C1544 C1546 1.381 . S
C1544 C1550 1.383 . S
C1545 C1541 1.495 . S
C1545 H1551 0.959 . S
C1545 H1552 0.961 1_455 S
C1545 H1553 0.960 1_455 S
C1546 C1544 1.381 . S
C1546 C1547 1.394 . S
C1546 H1554 0.930 . S
C1547 C1546 1.394 . S
C1547 C1548 1.383 . S
C1547 H1555 0.929 . S
C1548 C1547 1.383 . S
C1548 C1549 1.377 . S
C1549 H1533 0.930 . S
C1549 C1548 1.377 . S
C1549 C1550 1.379 . S
C1550 H1534 0.931 . S
C1550 C1544 1.383 . S
C1550 C1549 1.379 . S
H1551 C1545 0.959 . S
H1552 C1545 0.961 1_655 S
H1553 C1545 0.960 1_655 S
H1554 C1546 0.930 . S
H1555 C1547 0.929 . S
H1556 C1564 0.929 . S
H1557 C1566 0.930 . S
H1558 C1568 0.930 . S
H1559 C1571 0.929 . S
H1560 C1574 0.930 . S
H1561 C1576 0.960 . S
H1562 C1576 0.960 . S
H1563 C1576 0.960 . S
C1564 H1556 0.929 . S
C1564 C1565 1.377 . S
C1564 C1566 1.384 . S
C1565 C1564 1.377 . S
C1565 C1571 1.390 . S
C1566 H1557 0.930 . S
C1566 C1564 1.384 . S
C1566 C1567 1.372 . S
C1567 C1566 1.372 . S
C1567 C1568 1.400 . S
C1567 C1572 1.490 . S
C1568 H1558 0.930 . S
C1568 C1567 1.400 . S
C1568 C1571 1.386 . S
H1569 C1585 0.930 . S
H1570 C1586 0.931 . S
C1571 H1559 0.929 . S
C1571 C1565 1.390 . S
C1571 C1568 1.386 . S
C1572 C1567 1.490 . S
C1572 C1574 1.395 1_455 S
C1572 C1575 1.403 . S
H1573 C1579 0.930 . S
C1574 H1560 0.930 . S
C1574 C1572 1.395 1_655 S
C1574 C1577 1.403 . S
C1575 C1572 1.403 . S
C1575 C1576 1.524 . S
C1575 C1579 1.400 . S
C1576 H1561 0.960 . S
C1576 H1562 0.960 . S
C1576 H1563 0.960 . S
C1576 C1575 1.524 . S
C1577 C1574 1.403 . S
C1577 C1578 1.392 . S
C1577 C1581 1.495 . S
C1578 C1577 1.392 . S
C1578 C1579 1.385 1_655 S
C1578 C1580 1.478 . S
C1579 H1573 0.930 . S
C1579 C1575 1.400 . S
C1579 C1578 1.385 1_455 S
C1580 C1578 1.478 . S
C1580 C1582 1.381 . S
C1580 C1586 1.383 . S
C1581 C1577 1.495 . S
C1581 H1587 0.959 . S
C1581 H1588 0.961 . S
C1581 H1589 0.960 . S
C1582 C1580 1.381 . S
C1582 C1583 1.394 . S
C1582 H1590 0.930 . S
C1583 C1582 1.394 . S
C1583 C1584 1.383 . S
C1583 H1591 0.929 . S
C1584 C1583 1.383 . S
C1584 C1585 1.377 . S
C1585 H1569 0.930 . S
C1585 C1584 1.377 . S
C1585 C1586 1.379 . S
C1586 H1570 0.931 . S
C1586 C1580 1.383 . S
C1586 C1585 1.379 . S
H1587 C1581 0.959 . S
H1588 C1581 0.961 . S
H1589 C1581 0.960 . S
H1590 C1582 0.930 . S
H1591 C1583 0.929 . S
H1592 C1600 0.929 . S
H1593 C1602 0.930 . S
H1594 C1604 0.930 . S
H1595 C1607 0.929 . S
H1596 C1610 0.930 . S
H1597 C1612 0.960 . S
H1598 C1612 0.960 . S
H1599 C1612 0.960 . S
C1600 H1592 0.929 . S
C1600 C1601 1.377 . S
C1600 C1602 1.384 . S
C1601 C1600 1.377 . S
C1601 C1607 1.390 . S
C1602 H1593 0.930 . S
C1602 C1600 1.384 . S
C1602 C1603 1.372 . S
C1603 C1602 1.372 . S
C1603 C1604 1.400 . S
C1603 C1608 1.490 . S
C1604 H1594 0.930 . S
C1604 C1603 1.400 . S
C1604 C1607 1.386 . S
H1605 C1621 0.930 . S
H1606 C1622 0.931 . S
C1607 H1595 0.929 . S
C1607 C1601 1.390 . S
C1607 C1604 1.386 . S
C1608 C1603 1.490 . S
C1608 C1610 1.395 . S
C1608 C1611 1.403 . S
H1609 C1615 0.930 . S
C1610 H1596 0.930 . S
C1610 C1608 1.395 . S
C1610 C1613 1.403 . S
C1611 C1608 1.403 . S
C1611 C1612 1.524 . S
C1611 C1615 1.400 . S
C1612 H1597 0.960 . S
C1612 H1598 0.960 . S
C1612 H1599 0.960 . S
C1612 C1611 1.524 . S
C1613 C1610 1.403 . S
C1613 C1614 1.392 . S
C1613 C1617 1.495 . S
C1614 C1613 1.392 . S
C1614 C1615 1.385 . S
C1614 C1616 1.478 . S
C1615 H1609 0.930 . S
C1615 C1611 1.400 . S
C1615 C1614 1.385 . S
C1616 C1614 1.478 . S
C1616 C1618 1.381 . S
C1616 C1622 1.383 . S
C1617 C1613 1.495 . S
C1617 H1623 0.959 . S
C1617 H1624 0.961 . S
C1617 H1625 0.960 . S
C1618 C1616 1.381 . S
C1618 C1619 1.394 . S
C1618 H1626 0.930 . S
C1619 C1618 1.394 . S
C1619 C1620 1.383 . S
C1619 H1627 0.929 . S
C1620 C1619 1.383 . S
C1620 C1621 1.377 . S
C1621 H1605 0.930 . S
C1621 C1620 1.377 . S
C1621 C1622 1.379 . S
C1622 H1606 0.931 . S
C1622 C1616 1.383 . S
C1622 C1621 1.379 . S
H1623 C1617 0.959 . S
H1624 C1617 0.961 . S
H1625 C1617 0.960 . S
H1626 C1618 0.930 . S
H1627 C1619 0.929 . S
H1628 C1636 0.929 . S
H1629 C1638 0.930 . S
H1630 C1640 0.930 . S
H1631 C1643 0.929 . S
H1632 C1646 0.930 . S
H1633 C1648 0.974 . S
H1634 C1648 0.955 1_545 S
H1635 C1648 0.952 1_545 S
C1636 H1628 0.929 . S
C1636 C1637 1.377 . S
C1636 C1638 1.384 . S
C1637 C1636 1.377 . S
C1637 C1643 1.390 . S
C1638 H1629 0.930 . S
C1638 C1636 1.384 . S
C1638 C1639 1.372 . S
C1639 C1638 1.372 . S
C1639 C1640 1.400 . S
C1639 C1644 1.490 . S
C1640 H1630 0.930 . S
C1640 C1639 1.400 . S
C1640 C1643 1.386 . S
H1641 C1657 0.930 . S
H1642 C1658 0.931 . S
C1643 H1631 0.929 . S
C1643 C1637 1.390 . S
C1643 C1640 1.386 . S
C1644 C1639 1.490 . S
C1644 C1646 1.395 . S
C1644 C1647 1.403 . S
H1645 C1651 0.930 . S
C1646 H1632 0.930 . S
C1646 C1644 1.395 . S
C1646 C1649 1.403 . S
C1647 C1644 1.403 . S
C1647 C1648 1.523 1_545 S
C1647 C1651 1.400 1_545 S
C1648 H1633 0.974 . S
C1648 H1634 0.955 1_565 S
C1648 H1635 0.952 1_565 S
C1648 C1647 1.523 1_565 S
C1649 C1646 1.403 . S
C1649 C1650 1.392 1_545 S
C1649 C1653 1.495 . S
C1650 C1649 1.392 1_565 S
C1650 C1651 1.385 . S
C1650 C1652 1.478 . S
C1651 H1645 0.930 . S
C1651 C1647 1.400 1_565 S
C1651 C1650 1.385 . S
C1652 C1650 1.478 . S
C1652 C1654 1.381 . S
C1652 C1658 1.383 . S
C1653 C1649 1.495 . S
C1653 H1659 0.959 . S
C1653 H1660 0.961 1_545 S
C1653 H1661 0.960 1_545 S
C1654 C1652 1.381 . S
C1654 C1655 1.394 . S
C1654 H1662 0.930 . S
C1655 C1654 1.394 . S
C1655 C1656 1.383 . S
C1655 H1663 0.929 . S
C1656 C1655 1.383 . S
C1656 C1657 1.377 . S
C1657 H1641 0.930 . S
C1657 C1656 1.377 . S
C1657 C1658 1.379 . S
C1658 H1642 0.931 . S
C1658 C1652 1.383 . S
C1658 C1657 1.379 . S
H1659 C1653 0.959 . S
H1660 C1653 0.961 1_565 S
H1661 C1653 0.960 1_565 S
H1662 C1654 0.930 . S
H1663 C1655 0.929 . S
H1664 C1672 0.929 . S
H1665 C1674 0.930 . S
H1666 C1676 0.930 . S
H1667 C1679 0.929 . S
H1668 C1682 0.930 . S
H1669 C1684 0.992 . S
H1670 C1684 0.947 1_455 S
H1671 C1684 0.945 1_455 S
C1672 H1664 0.929 . S
C1672 C1673 1.377 . S
C1672 C1674 1.384 . S
C1673 C1672 1.377 . S
C1673 C1679 1.390 . S
C1674 H1665 0.930 . S
C1674 C1672 1.384 . S
C1674 C1675 1.372 . S
C1675 C1674 1.372 . S
C1675 C1676 1.400 . S
C1675 C1680 1.490 . S
C1676 H1666 0.930 . S
C1676 C1675 1.400 . S
C1676 C1679 1.386 . S
H1677 C1693 0.930 . S
H1678 C1694 0.931 . S
C1679 H1667 0.929 . S
C1679 C1673 1.390 . S
C1679 C1676 1.386 . S
C1680 C1675 1.490 . S
C1680 C1682 1.395 . S
C1680 C1683 1.403 . S
H1681 C1687 0.930 . S
C1682 H1668 0.930 . S
C1682 C1680 1.395 . S
C1682 C1685 1.403 . S
C1683 C1680 1.403 . S
C1683 C1684 1.522 1_455 S
C1683 C1687 1.400 1_455 S
C1684 H1669 0.992 . S
C1684 H1670 0.947 1_655 S
C1684 H1671 0.945 1_655 S
C1684 C1683 1.522 1_655 S
C1685 C1682 1.403 . S
C1685 C1686 1.392 1_455 S
C1685 C1689 1.495 . S
C1686 C1685 1.392 1_655 S
C1686 C1687 1.385 . S
C1686 C1688 1.478 . S
C1687 H1681 0.930 . S
C1687 C1683 1.400 1_655 S
C1687 C1686 1.385 . S
C1688 C1686 1.478 . S
C1688 C1690 1.381 . S
C1688 C1694 1.383 . S
C1689 C1685 1.495 . S
C1689 H1695 0.959 . S
C1689 H1696 0.961 1_455 S
C1689 H1697 0.960 1_455 S
C1690 C1688 1.381 . S
C1690 C1691 1.394 . S
C1690 H1698 0.930 . S
C1691 C1690 1.394 . S
C1691 C1692 1.383 . S
C1691 H1699 0.929 . S
C1692 C1691 1.383 . S
C1692 C1693 1.377 . S
C1693 H1677 0.930 . S
C1693 C1692 1.377 . S
C1693 C1694 1.379 . S
C1694 H1678 0.931 . S
C1694 C1688 1.383 . S
C1694 C1693 1.379 . S
H1695 C1689 0.959 . S
H1696 C1689 0.961 1_655 S
H1697 C1689 0.960 1_655 S
H1698 C1690 0.930 . S
H1699 C1691 0.929 . S
H1700 C1708 0.929 . S
H1701 C1710 0.930 . S
H1702 C1712 0.930 . S
H1703 C1715 0.929 . S
H1704 C1718 0.930 . S
H1705 C1720 0.960 . S
H1706 C1720 0.960 . S
H1707 C1720 0.960 . S
C1708 H1700 0.929 . S
C1708 C1709 1.377 . S
C1708 C1710 1.384 . S
C1709 C1708 1.377 . S
C1709 C1715 1.390 . S
C1710 H1701 0.930 . S
C1710 C1708 1.384 . S
C1710 C1711 1.372 . S
C1711 C1710 1.372 . S
C1711 C1712 1.400 . S
C1711 C1716 1.490 . S
C1712 H1702 0.930 . S
C1712 C1711 1.400 . S
C1712 C1715 1.386 . S
H1713 C1729 0.930 . S
H1714 C1730 0.931 . S
C1715 H1703 0.929 . S
C1715 C1709 1.390 . S
C1715 C1712 1.386 . S
C1716 C1711 1.490 . S
C1716 C1718 1.395 . S
C1716 C1719 1.403 . S
H1717 C1723 0.930 . S
C1718 H1704 0.930 . S
C1718 C1716 1.395 . S
C1718 C1721 1.403 . S
C1719 C1716 1.403 . S
C1719 C1720 1.524 . S
C1719 C1723 1.400 . S
C1720 H1705 0.960 . S
C1720 H1706 0.960 . S
C1720 H1707 0.960 . S
C1720 C1719 1.524 . S
C1721 C1718 1.403 . S
C1721 C1722 1.392 . S
C1721 C1725 1.495 . S
C1722 C1721 1.392 . S
C1722 C1723 1.385 . S
C1722 C1724 1.478 . S
C1723 H1717 0.930 . S
C1723 C1719 1.400 . S
C1723 C1722 1.385 . S
C1724 C1722 1.478 . S
C1724 C1726 1.381 . S
C1724 C1730 1.383 . S
C1725 C1721 1.495 . S
C1725 H1731 0.959 . S
C1725 H1732 0.961 . S
C1725 H1733 0.960 . S
C1726 C1724 1.381 . S
C1726 C1727 1.394 . S
C1726 H1734 0.930 . S
C1727 C1726 1.394 . S
C1727 C1728 1.383 . S
C1727 H1735 0.929 . S
C1728 C1727 1.383 . S
C1728 C1729 1.377 . S
C1729 H1713 0.930 . S
C1729 C1728 1.377 . S
C1729 C1730 1.379 . S
C1730 H1714 0.931 . S
C1730 C1724 1.383 . S
C1730 C1729 1.379 . S
H1731 C1725 0.959 . S
H1732 C1725 0.961 . S
H1733 C1725 0.960 . S
H1734 C1726 0.930 . S
H1735 C1727 0.929 . S
H1736 C1744 0.929 . S
H1737 C1746 0.930 . S
H1738 C1748 0.930 . S
H1739 C1751 0.929 . S
H1740 C1754 0.930 . S
H1741 C1756 0.960 . S
H1742 C1756 0.960 . S
H1743 C1756 0.960 . S
C1744 H1736 0.929 . S
C1744 C1745 1.377 . S
C1744 C1746 1.384 . S
C1745 C1744 1.377 . S
C1745 C1751 1.390 . S
C1746 H1737 0.930 . S
C1746 C1744 1.384 . S
C1746 C1747 1.372 . S
C1747 C1746 1.372 . S
C1747 C1748 1.400 . S
C1747 C1752 1.490 . S
C1748 H1738 0.930 . S
C1748 C1747 1.400 . S
C1748 C1751 1.386 . S
H1749 C1765 0.930 . S
H1750 C1766 0.931 . S
C1751 H1739 0.929 . S
C1751 C1745 1.390 . S
C1751 C1748 1.386 . S
C1752 C1747 1.490 . S
C1752 C1754 1.395 . S
C1752 C1755 1.403 1_565 S
H1753 C1759 0.930 . S
C1754 H1740 0.930 . S
C1754 C1752 1.395 . S
C1754 C1757 1.403 . S
C1755 C1752 1.403 1_545 S
C1755 C1756 1.524 . S
C1755 C1759 1.400 . S
C1756 H1741 0.960 . S
C1756 H1742 0.960 . S
C1756 H1743 0.960 . S
C1756 C1755 1.524 . S
C1757 C1754 1.403 . S
C1757 C1758 1.392 1_565 S
C1757 C1761 1.495 . S
C1758 C1757 1.392 1_545 S
C1758 C1759 1.385 . S
C1758 C1760 1.478 . S
C1759 H1753 0.930 . S
C1759 C1755 1.400 . S
C1759 C1758 1.385 . S
C1760 C1758 1.478 . S
C1760 C1762 1.381 . S
C1760 C1766 1.383 . S
C1761 C1757 1.495 . S
C1761 H1767 0.959 . S
C1761 H1768 0.961 . S
C1761 H1769 0.960 . S
C1762 C1760 1.381 . S
C1762 C1763 1.394 . S
C1762 H1770 0.930 . S
C1763 C1762 1.394 . S
C1763 C1764 1.383 . S
C1763 H1771 0.929 . S
C1764 C1763 1.383 . S
C1764 C1765 1.377 . S
C1765 H1749 0.930 . S
C1765 C1764 1.377 . S
C1765 C1766 1.379 . S
C1766 H1750 0.931 . S
C1766 C1760 1.383 . S
C1766 C1765 1.379 . S
H1767 C1761 0.959 . S
H1768 C1761 0.961 . S
H1769 C1761 0.960 . S
H1770 C1762 0.930 . S
H1771 C1763 0.929 . S
H1772 C1780 0.929 . S
H1773 C1782 0.930 1_655 S
H1774 C1784 0.930 . S
H1775 C1787 0.929 . S
H1776 C1790 0.930 . S
H1777 C1792 0.960 1_565 S
H1778 C1792 0.960 . S
H1779 C1792 0.960 . S
C1780 H1772 0.929 . S
C1780 C1781 1.377 . S
C1780 C1782 1.384 . S
C1781 C1780 1.377 . S
C1781 C1787 1.390 . S
C1782 H1773 0.930 1_455 S
C1782 C1780 1.384 . S
C1782 C1783 1.372 . S
C1783 C1782 1.372 . S
C1783 C1784 1.400 . S
C1783 C1788 1.490 . S
C1784 H1774 0.930 . S
C1784 C1783 1.400 . S
C1784 C1787 1.386 . S
H1785 C1801 0.930 . S
H1786 C1802 0.931 . S
C1787 H1775 0.929 . S
C1787 C1781 1.390 . S
C1787 C1784 1.386 . S
C1788 C1783 1.490 . S
C1788 C1790 1.395 1_455 S
C1788 C1791 1.403 . S
H1789 C1795 0.930 . S
C1790 H1776 0.930 . S
C1790 C1788 1.395 1_655 S
C1790 C1793 1.403 1_545 S
C1791 C1788 1.403 . S
C1791 C1792 1.524 . S
C1791 C1795 1.400 1_545 S
C1792 H1777 0.960 1_545 S
C1792 H1778 0.960 . S
C1792 H1779 0.960 . S
C1792 C1791 1.524 . S
C1793 C1790 1.403 1_565 S
C1793 C1794 1.392 . S
C1793 C1797 1.495 . S
C1794 C1793 1.392 . S
C1794 C1795 1.385 1_655 S
C1794 C1796 1.478 . S
C1795 H1789 0.930 . S
C1795 C1791 1.400 1_565 S
C1795 C1794 1.385 1_455 S
C1796 C1794 1.478 . S
C1796 C1798 1.381 . S
C1796 C1802 1.383 . S
C1797 C1793 1.495 . S
C1797 H1803 0.959 1_565 S
C1797 H1804 0.961 . S
C1797 H1805 0.960 . S
C1798 C1796 1.381 . S
C1798 C1799 1.394 . S
C1798 H1806 0.930 . S
C1799 C1798 1.394 . S
C1799 C1800 1.383 . S
C1799 H1807 0.929 . S
C1800 C1799 1.383 . S
C1800 C1801 1.377 . S
C1801 H1785 0.930 . S
C1801 C1800 1.377 . S
C1801 C1802 1.379 . S
C1802 H1786 0.931 . S
C1802 C1796 1.383 . S
C1802 C1801 1.379 . S
H1803 C1797 0.959 1_545 S
H1804 C1797 0.961 . S
H1805 C1797 0.960 . S
H1806 C1798 0.930 . S
H1807 C1799 0.929 . S
H1808 C1816 0.929 . S
H1809 C1818 0.930 . S
H1810 C1820 0.930 . S
H1811 C1823 0.929 . S
H1812 C1826 0.930 . S
H1813 C1828 0.960 . S
H1814 C1828 0.960 . S
H1815 C1828 0.960 . S
C1816 H1808 0.929 . S
C1816 C1817 1.377 . S
C1816 C1818 1.384 . S
C1817 C1816 1.377 . S
C1817 C1823 1.390 . S
C1818 H1809 0.930 . S
C1818 C1816 1.384 . S
C1818 C1819 1.372 . S
C1819 C1818 1.372 . S
C1819 C1820 1.400 . S
C1819 C1824 1.490 . S
C1820 H1810 0.930 . S
C1820 C1819 1.400 . S
C1820 C1823 1.386 . S
H1821 C1837 0.930 . S
H1822 C1838 0.931 . S
C1823 H1811 0.929 . S
C1823 C1817 1.390 . S
C1823 C1820 1.386 . S
C1824 C1819 1.490 . S
C1824 C1826 1.395 . S
C1824 C1827 1.403 1_565 S
H1825 C1831 0.930 . S
C1826 H1812 0.930 . S
C1826 C1824 1.395 . S
C1826 C1829 1.403 . S
C1827 C1824 1.403 1_545 S
C1827 C1828 1.524 . S
C1827 C1831 1.400 . S
C1828 H1813 0.960 . S
C1828 H1814 0.960 . S
C1828 H1815 0.960 . S
C1828 C1827 1.524 . S
C1829 C1826 1.403 . S
C1829 C1830 1.392 1_565 S
C1829 C1833 1.495 . S
C1830 C1829 1.392 1_545 S
C1830 C1831 1.385 . S
C1830 C1832 1.478 . S
C1831 H1825 0.930 . S
C1831 C1827 1.400 . S
C1831 C1830 1.385 . S
C1832 C1830 1.478 . S
C1832 C1834 1.381 . S
C1832 C1838 1.383 . S
C1833 C1829 1.495 . S
C1833 H1839 0.959 . S
C1833 H1840 0.961 . S
C1833 H1841 0.960 . S
C1834 C1832 1.381 . S
C1834 C1835 1.394 . S
C1834 H1842 0.930 . S
C1835 C1834 1.394 . S
C1835 C1836 1.383 . S
C1835 H1843 0.929 . S
C1836 C1835 1.383 . S
C1836 C1837 1.377 . S
C1837 H1821 0.930 . S
C1837 C1836 1.377 . S
C1837 C1838 1.379 . S
C1838 H1822 0.931 . S
C1838 C1832 1.383 . S
C1838 C1837 1.379 . S
H1839 C1833 0.959 . S
H1840 C1833 0.961 . S
H1841 C1833 0.960 . S
H1842 C1834 0.930 . S
H1843 C1835 0.929 . S
H1844 C1852 0.929 . S
H1845 C1854 0.930 . S
H1846 C1856 0.930 . S
H1847 C1859 0.929 . S
H1848 C1862 0.930 . S
H1849 C1864 0.960 . S
H1850 C1864 0.960 . S
H1851 C1864 0.960 1_655 S
C1852 H1844 0.929 . S
C1852 C1853 1.377 . S
C1852 C1854 1.384 . S
C1853 C1852 1.377 . S
C1853 C1859 1.390 . S
C1854 H1845 0.930 . S
C1854 C1852 1.384 . S
C1854 C1855 1.372 . S
C1855 C1854 1.372 . S
C1855 C1856 1.400 . S
C1855 C1860 1.490 . S
C1856 H1846 0.930 . S
C1856 C1855 1.400 . S
C1856 C1859 1.386 . S
H1857 C1873 0.930 . S
H1858 C1874 0.931 . S
C1859 H1847 0.929 . S
C1859 C1853 1.390 . S
C1859 C1856 1.386 . S
C1860 C1855 1.490 . S
C1860 C1862 1.395 . S
C1860 C1863 1.403 1_655 S
H1861 C1867 0.930 . S
C1862 H1848 0.930 . S
C1862 C1860 1.395 . S
C1862 C1865 1.403 1_565 S
C1863 C1860 1.403 1_455 S
C1863 C1864 1.524 . S
C1863 C1867 1.400 1_565 S
C1864 H1849 0.960 . S
C1864 H1850 0.960 . S
C1864 H1851 0.960 1_455 S
C1864 C1863 1.524 . S
C1865 C1862 1.403 1_545 S
C1865 C1866 1.392 1_655 S
C1865 C1869 1.495 . S
C1866 C1865 1.392 1_455 S
C1866 C1867 1.385 . S
C1866 C1868 1.478 . S
C1867 H1861 0.930 . S
C1867 C1863 1.400 1_545 S
C1867 C1866 1.385 . S
C1868 C1866 1.478 . S
C1868 C1870 1.381 . S
C1868 C1874 1.383 . S
C1869 C1865 1.495 . S
C1869 H1875 0.959 . S
C1869 H1876 0.961 . S
C1869 H1877 0.960 1_655 S
C1870 C1868 1.381 . S
C1870 C1871 1.394 . S
C1870 H1878 0.930 . S
C1871 C1870 1.394 . S
C1871 C1872 1.383 . S
C1871 H1879 0.929 . S
C1872 C1871 1.383 . S
C1872 C1873 1.377 . S
C1873 H1857 0.930 . S
C1873 C1872 1.377 . S
C1873 C1874 1.379 . S
C1874 H1858 0.931 . S
C1874 C1868 1.383 . S
C1874 C1873 1.379 . S
H1875 C1869 0.959 . S
H1876 C1869 0.961 . S
H1877 C1869 0.960 1_455 S
H1878 C1870 0.930 . S
H1879 C1871 0.929 . S
H1880 C1888 0.929 . S
H1881 C1890 0.930 . S
H1882 C1892 0.930 . S
H1883 C1895 0.929 . S
H1884 C1898 0.931 . S
H1885 C1900 0.960 . S
H1886 C1900 0.960 . S
H1887 C1900 0.960 . S
C1888 H1880 0.929 . S
C1888 C1889 1.377 . S
C1888 C1890 1.384 . S
C1889 C1888 1.377 . S
C1889 C1895 1.390 . S
C1890 H1881 0.930 . S
C1890 C1888 1.384 . S
C1890 C1891 1.372 . S
C1891 C1890 1.372 . S
C1891 C1892 1.400 . S
C1891 C1896 1.490 . S
C1892 H1882 0.930 . S
C1892 C1891 1.400 . S
C1892 C1895 1.386 . S
H1893 C1909 0.930 . S
H1894 C1910 0.931 . S
C1895 H1883 0.929 . S
C1895 C1889 1.390 . S
C1895 C1892 1.386 . S
C1896 C1891 1.490 . S
C1896 C1898 1.403 . S
C1896 C1899 1.403 . S
H1897 C1903 0.930 . S
C1898 H1884 0.931 . S
C1898 C1896 1.403 . S
C1898 C1901 1.395 1_455 S
C1899 C1896 1.403 . S
C1899 C1900 1.524 . S
C1899 C1903 1.400 1_455 S
C1900 H1885 0.960 . S
C1900 H1886 0.960 . S
C1900 H1887 0.960 . S
C1900 C1899 1.524 . S
C1901 C1898 1.395 1_655 S
C1901 C1902 1.392 . S
C1901 C1905 1.495 . S
C1902 C1901 1.392 . S
C1902 C1903 1.385 . S
C1902 C1904 1.478 . S
C1903 H1897 0.930 . S
C1903 C1899 1.400 1_655 S
C1903 C1902 1.385 . S
C1904 C1902 1.478 . S
C1904 C1906 1.381 . S
C1904 C1910 1.383 . S
C1905 C1901 1.495 . S
C1905 H1911 0.959 . S
C1905 H1912 0.961 . S
C1905 H1913 0.960 . S
C1906 C1904 1.381 . S
C1906 C1907 1.394 . S
C1906 H1914 0.930 . S
C1907 C1906 1.394 . S
C1907 C1908 1.383 . S
C1907 H1915 0.929 . S
C1908 C1907 1.383 . S
C1908 C1909 1.377 . S
C1909 H1893 0.930 . S
C1909 C1908 1.377 . S
C1909 C1910 1.379 . S
C1910 H1894 0.931 . S
C1910 C1904 1.383 . S
C1910 C1909 1.379 . S
H1911 C1905 0.959 . S
H1912 C1905 0.961 . S
H1913 C1905 0.960 . S
H1914 C1906 0.930 . S
H1915 C1907 0.929 . S
H1916 C1924 0.929 . S
H1917 C1926 0.930 . S
H1918 C1928 0.930 . S
H1919 C1931 0.929 . S
H1920 C1934 0.930 . S
H1921 C1936 0.960 . S
H1922 C1936 0.960 . S
H1923 C1936 0.960 . S
C1924 H1916 0.929 . S
C1924 C1925 1.377 . S
C1924 C1926 1.384 . S
C1925 C1924 1.377 . S
C1925 C1931 1.390 . S
C1926 H1917 0.930 . S
C1926 C1924 1.384 . S
C1926 C1927 1.372 . S
C1927 C1926 1.372 . S
C1927 C1928 1.400 . S
C1927 C1932 1.490 . S
C1928 H1918 0.930 . S
C1928 C1927 1.400 . S
C1928 C1931 1.386 . S
H1929 C1945 0.930 . S
H1930 C1946 0.931 . S
C1931 H1919 0.929 . S
C1931 C1925 1.390 . S
C1931 C1928 1.386 . S
C1932 C1927 1.490 . S
C1932 C1934 1.395 . S
C1932 C1935 1.403 . S
H1933 C1939 0.930 . S
C1934 H1920 0.930 . S
C1934 C1932 1.395 . S
C1934 C1937 1.403 . S
C1935 C1932 1.403 . S
C1935 C1936 1.524 . S
C1935 C1939 1.400 . S
C1936 H1921 0.960 . S
C1936 H1922 0.960 . S
C1936 H1923 0.960 . S
C1936 C1935 1.524 . S
C1937 C1934 1.403 . S
C1937 C1938 1.392 . S
C1937 C1941 1.495 . S
C1938 C1937 1.392 . S
C1938 C1939 1.385 . S
C1938 C1940 1.478 . S
C1939 H1933 0.930 . S
C1939 C1935 1.400 . S
C1939 C1938 1.385 . S
C1940 C1938 1.478 . S
C1940 C1942 1.381 . S
C1940 C1946 1.383 . S
C1941 C1937 1.495 . S
C1941 H1947 0.959 . S
C1941 H1948 0.961 . S
C1941 H1949 0.960 . S
C1942 C1940 1.381 . S
C1942 C1943 1.394 . S
C1942 H1950 0.930 . S
C1943 C1942 1.394 . S
C1943 C1944 1.383 . S
C1943 H1951 0.929 . S
C1944 C1943 1.383 . S
C1944 C1945 1.377 . S
C1945 H1929 0.930 . S
C1945 C1944 1.377 . S
C1945 C1946 1.379 . S
C1946 H1930 0.931 . S
C1946 C1940 1.383 . S
C1946 C1945 1.379 . S
H1947 C1941 0.959 . S
H1948 C1941 0.961 . S
H1949 C1941 0.960 . S
H1950 C1942 0.930 . S
H1951 C1943 0.929 . S
H1952 C1960 0.929 . S
H1953 C1962 0.930 . S
H1954 C1964 0.930 . S
H1955 C1967 0.929 . S
H1956 C1970 0.930 . S
H1957 C1972 0.960 . S
H1958 C1972 0.960 . S
H1959 C1972 0.960 . S
C1960 H1952 0.929 . S
C1960 C1961 1.377 . S
C1960 C1962 1.384 . S
C1961 C1960 1.377 . S
C1961 C1967 1.390 . S
C1962 H1953 0.930 . S
C1962 C1960 1.384 . S
C1962 C1963 1.372 . S
C1963 C1962 1.372 . S
C1963 C1964 1.400 . S
C1963 C1968 1.490 . S
C1964 H1954 0.930 . S
C1964 C1963 1.400 . S
C1964 C1967 1.386 . S
H1965 C1981 0.930 . S
H1966 C1982 0.931 . S
C1967 H1955 0.929 . S
C1967 C1961 1.390 . S
C1967 C1964 1.386 . S
C1968 C1963 1.490 . S
C1968 C1970 1.395 . S
C1968 C1971 1.403 . S
H1969 C1975 0.930 . S
C1970 H1956 0.930 . S
C1970 C1968 1.395 . S
C1970 C1973 1.403 . S
C1971 C1968 1.403 . S
C1971 C1972 1.524 . S
C1971 C1975 1.400 . S
C1972 H1957 0.960 . S
C1972 H1958 0.960 . S
C1972 H1959 0.960 . S
C1972 C1971 1.524 . S
C1973 C1970 1.403 . S
C1973 C1974 1.392 . S
C1973 C1977 1.495 . S
C1974 C1973 1.392 . S
C1974 C1975 1.385 . S
C1974 C1976 1.478 . S
C1975 H1969 0.930 . S
C1975 C1971 1.400 . S
C1975 C1974 1.385 . S
C1976 C1974 1.478 . S
C1976 C1978 1.381 . S
C1976 C1982 1.383 . S
C1977 C1973 1.495 . S
C1977 H1983 0.959 . S
C1977 H1984 0.961 . S
C1977 H1985 0.960 . S
C1978 C1976 1.381 . S
C1978 C1979 1.394 . S
C1978 H1986 0.930 . S
C1979 C1978 1.394 . S
C1979 C1980 1.383 . S
C1979 H1987 0.929 . S
C1980 C1979 1.383 . S
C1980 C1981 1.377 . S
C1981 H1965 0.930 . S
C1981 C1980 1.377 . S
C1981 C1982 1.379 . S
C1982 H1966 0.931 . S
C1982 C1976 1.383 . S
C1982 C1981 1.379 . S
H1983 C1977 0.959 . S
H1984 C1977 0.961 . S
H1985 C1977 0.960 . S
H1986 C1978 0.930 . S
H1987 C1979 0.929 . S
H1988 C1996 0.929 . S
H1989 C1998 0.930 . S
H1990 C2000 0.930 . S
H1991 C2003 0.929 . S
H1992 C2006 0.930 . S
H1993 C2008 0.960 1_565 S
H1994 C2008 0.960 . S
H1995 C2008 0.960 . S
C1996 H1988 0.929 . S
C1996 C1997 1.377 . S
C1996 C1998 1.384 . S
C1997 C1996 1.377 . S
C1997 C2003 1.390 . S
C1998 H1989 0.930 . S
C1998 C1996 1.384 . S
C1998 C1999 1.372 . S
C1999 C1998 1.372 . S
C1999 C2000 1.400 . S
C1999 C2004 1.490 . S
C2000 H1990 0.930 . S
C2000 C1999 1.400 . S
C2000 C2003 1.386 . S
H2001 C2017 0.930 . S
H2002 C2018 0.931 . S
C2003 H1991 0.929 . S
C2003 C1997 1.390 . S
C2003 C2000 1.386 . S
C2004 C1999 1.490 . S
C2004 C2006 1.395 . S
C2004 C2007 1.403 . S
H2005 C2011 0.930 . S
C2006 H1992 0.930 . S
C2006 C2004 1.395 . S
C2006 C2009 1.403 1_545 S
C2007 C2004 1.403 . S
C2007 C2008 1.524 . S
C2007 C2011 1.400 1_545 S
C2008 H1993 0.960 1_545 S
C2008 H1994 0.960 . S
C2008 H1995 0.960 . S
C2008 C2007 1.524 . S
C2009 C2006 1.403 1_565 S
C2009 C2010 1.392 . S
C2009 C2013 1.495 . S
C2010 C2009 1.392 . S
C2010 C2011 1.385 . S
C2010 C2012 1.478 . S
C2011 H2005 0.930 . S
C2011 C2007 1.400 1_565 S
C2011 C2010 1.385 . S
C2012 C2010 1.478 . S
C2012 C2014 1.381 . S
C2012 C2018 1.383 . S
C2013 C2009 1.495 . S
C2013 H2019 0.959 1_565 S
C2013 H2020 0.961 . S
C2013 H2021 0.960 . S
C2014 C2012 1.381 . S
C2014 C2015 1.394 . S
C2014 H2022 0.930 . S
C2015 C2014 1.394 . S
C2015 C2016 1.383 . S
C2015 H2023 0.929 . S
C2016 C2015 1.383 . S
C2016 C2017 1.377 . S
C2017 H2001 0.930 . S
C2017 C2016 1.377 . S
C2017 C2018 1.379 . S
C2018 H2002 0.931 . S
C2018 C2012 1.383 . S
C2018 C2017 1.379 . S
H2019 C2013 0.959 1_545 S
H2020 C2013 0.961 . S
H2021 C2013 0.960 . S
H2022 C2014 0.930 . S
H2023 C2015 0.929 . S
H2024 C2032 0.929 . S
H2025 C2034 0.930 . S
H2026 C2036 0.930 . S
H2027 C2039 0.929 . S
H2028 C2042 0.930 . S
H2029 C2044 0.960 . S
H2030 C2044 0.960 1_655 S
H2031 C2044 0.960 1_655 S
C2032 H2024 0.929 . S
C2032 C2033 1.377 . S
C2032 C2034 1.384 . S
C2033 C2032 1.377 . S
C2033 C2039 1.390 . S
C2034 H2025 0.930 . S
C2034 C2032 1.384 . S
C2034 C2035 1.372 . S
C2035 C2034 1.372 . S
C2035 C2036 1.400 . S
C2035 C2040 1.490 . S
C2036 H2026 0.930 . S
C2036 C2035 1.400 . S
C2036 C2039 1.386 . S
H2037 C2053 0.930 . S
H2038 C2054 0.931 . S
C2039 H2027 0.929 . S
C2039 C2033 1.390 . S
C2039 C2036 1.386 . S
C2040 C2035 1.490 . S
C2040 C2042 1.395 1_565 S
C2040 C2043 1.405 . S
H2041 C2047 0.930 . S
C2042 H2028 0.930 . S
C2042 C2040 1.395 1_545 S
C2042 C2045 1.403 . S
C2043 C2040 1.405 . S
C2043 C2044 1.523 1_655 S
C2043 C2047 1.398 1_655 S
C2044 H2029 0.960 . S
C2044 H2030 0.960 1_455 S
C2044 H2031 0.960 1_455 S
C2044 C2043 1.523 1_455 S
C2045 C2042 1.403 . S
C2045 C2046 1.392 1_655 S
C2045 C2049 1.495 . S
C2046 C2045 1.392 1_455 S
C2046 C2047 1.385 1_545 S
C2046 C2048 1.478 . S
C2047 H2041 0.930 . S
C2047 C2043 1.398 1_455 S
C2047 C2046 1.385 1_565 S
C2048 C2046 1.478 . S
C2048 C2050 1.381 . S
C2048 C2054 1.383 . S
C2049 C2045 1.495 . S
C2049 H2055 0.959 . S
C2049 H2056 0.961 1_655 S
C2049 H2057 0.960 1_655 S
C2050 C2048 1.381 . S
C2050 C2051 1.394 . S
C2050 H2058 0.930 . S
C2051 C2050 1.394 . S
C2051 C2052 1.383 . S
C2051 H2059 0.929 . S
C2052 C2051 1.383 . S
C2052 C2053 1.377 . S
C2053 H2037 0.930 . S
C2053 C2052 1.377 . S
C2053 C2054 1.379 . S
C2054 H2038 0.931 . S
C2054 C2048 1.383 . S
C2054 C2053 1.379 . S
H2055 C2049 0.959 . S
H2056 C2049 0.961 1_455 S
H2057 C2049 0.960 1_455 S
H2058 C2050 0.930 . S
H2059 C2051 0.929 . S
H2060 C2068 0.929 . S
H2061 C2070 0.930 . S
H2062 C2072 0.930 . S
H2063 C2075 0.929 . S
H2064 C2078 0.930 . S
H2065 C2080 0.960 . S
H2066 C2080 0.960 . S
H2067 C2080 0.960 . S
C2068 H2060 0.929 . S
C2068 C2069 1.377 . S
C2068 C2070 1.384 . S
C2069 C2068 1.377 . S
C2069 C2075 1.390 . S
C2070 H2061 0.930 . S
C2070 C2068 1.384 . S
C2070 C2071 1.372 . S
C2071 C2070 1.372 . S
C2071 C2072 1.400 . S
C2071 C2076 1.490 . S
C2072 H2062 0.930 . S
C2072 C2071 1.400 . S
C2072 C2075 1.386 . S
H2073 C2089 0.930 . S
H2074 C2090 0.931 . S
C2075 H2063 0.929 . S
C2075 C2069 1.390 . S
C2075 C2072 1.386 . S
C2076 C2071 1.490 . S
C2076 C2078 1.395 . S
C2076 C2079 1.403 1_655 S
H2077 C2083 0.930 . S
C2078 H2064 0.930 . S
C2078 C2076 1.395 . S
C2078 C2081 1.403 . S
C2079 C2076 1.403 1_455 S
C2079 C2080 1.524 . S
C2079 C2083 1.400 . S
C2080 H2065 0.960 . S
C2080 H2066 0.960 . S
C2080 H2067 0.960 . S
C2080 C2079 1.524 . S
C2081 C2078 1.403 . S
C2081 C2082 1.392 1_655 S
C2081 C2085 1.495 . S
C2082 C2081 1.392 1_455 S
C2082 C2083 1.385 . S
C2082 C2084 1.478 . S
C2083 H2077 0.930 . S
C2083 C2079 1.400 . S
C2083 C2082 1.385 . S
C2084 C2082 1.478 . S
C2084 C2086 1.381 . S
C2084 C2090 1.383 . S
C2085 C2081 1.495 . S
C2085 H2091 0.959 . S
C2085 H2092 0.961 . S
C2085 H2093 0.960 . S
C2086 C2084 1.381 . S
C2086 C2087 1.394 . S
C2086 H2094 0.930 . S
C2087 C2086 1.394 . S
C2087 C2088 1.383 . S
C2087 H2095 0.929 . S
C2088 C2087 1.383 . S
C2088 C2089 1.377 . S
C2089 H2073 0.930 . S
C2089 C2088 1.377 . S
C2089 C2090 1.379 . S
C2090 H2074 0.931 . S
C2090 C2084 1.383 . S
C2090 C2089 1.379 . S
H2091 C2085 0.959 . S
H2092 C2085 0.961 . S
H2093 C2085 0.960 . S
H2094 C2086 0.930 . S
H2095 C2087 0.929 . S
C953 C239 1.560 . S
C972 C3 1.567 . S
C989 C62 1.564 . S
C1008 C298 1.561 . S
C1025 C357 1.562 . S
C1044 C121 1.567 . S
C1061 C416 1.564 . S
C1080 C180 1.561 . S
C1097 C711 1.562 . S
C1116 C475 1.551 . S
C1133 C534 1.564 . S
C1152 C770 1.563 . S
C1169 C829 1.564 . S
C1188 C593 1.560 . S
C1205 C652 1.560 . S
C1224 C888 1.561 . S
C1241 C33 1.585 . S
C1260 C918 1.575 . S
C1277 C92 1.582 . S
C1296 C741 1.586 . S
C1313 C151 1.584 . S
C1332 C800 1.576 . S
C1349 C859 1.585 . S
C1368 C210 1.575 . S
C1385 C269 1.582 . S
C1404 C564 1.585 . S
C1421 C328 1.584 . S
C1440 C623 1.578 . S
C1457 C682 1.582 . S
C1476 C387 1.584 . S
C1493 C505 1.583 . S
C1512 C446 1.585 . S
C1529 C5 1.677 . S
C1548 C595 1.678 . S
C1565 C654 1.677 . S
C1584 C64 1.678 . S
C1601 C123 1.676 . S
C1620 C477 1.668 . S
C1637 C536 1.677 . S
C1656 C182 1.678 . S
C1673 C241 1.677 . S
C1692 C831 1.678 . S
C1709 C300 1.677 . S
C1728 C890 1.671 . S
C1745 C713 1.676 . S
C1764 C359 1.669 . S
C1781 C772 1.676 . S
C1800 C418 1.676 . S
C1817 C642 1.434 . S
C1836 C52 1.425 . S
C1853 C111 1.434 . S
C1872 C701 1.427 . S
C1889 C170 1.435 . S
C1908 C524 1.426 . S
C1925 C583 1.435 . S
C1944 C229 1.426 . S
C1961 C878 1.435 . S
C1980 C288 1.426 . S
C1997 C937 1.436 . S
C2016 C347 1.435 . S
C2033 C760 1.437 . S
C2052 C406 1.439 . S
C2069 C465 1.434 . S
C2088 C819 1.425 . S
