# Generated by pormake.
# Topology umc, (4)-cn, num edge types: 1
# Building blocks:
#     Node 0, Type 0, BuildingBlock: CEKHIL_clean_sbu_0, # of connection points: 4
#     Node 1, Type 0, BuildingBlock: CEKHIL_clean_sbu_0, # of connection points: 4
#     Node 2, Type 0, BuildingBlock: CEKHIL_clean_sbu_0, # of connection points: 4
#     Node 3, Type 0, BuildingBlock: CEKHIL_clean_sbu_0, # of connection points: 4
#     Node 4, Type 0, BuildingBlock: CEKHIL_clean_sbu_0, # of connection points: 4
#     Node 5, Type 0, BuildingBlock: CEKHIL_clean_sbu_0, # of connection points: 4
#     Node 6, Type 0, BuildingBlock: CEKHIL_clean_sbu_0, # of connection points: 4
#     Node 7, Type 0, BuildingBlock: CEKHIL_clean_sbu_0, # of connection points: 4
#     Node 8, Type 0, BuildingBlock: CEKHIL_clean_sbu_0, # of connection points: 4
#     Node 9, Type 0, BuildingBlock: CEKHIL_clean_sbu_0, # of connection points: 4
#     Node 10, Type 0, BuildingBlock: CEKHIL_clean_sbu_0, # of connection points: 4
#     Node 11, Type 0, BuildingBlock: CEKHIL_clean_sbu_0, # of connection points: 4
#     Node 12, Type 0, BuildingBlock: CEKHIL_clean_sbu_0, # of connection points: 4
#     Node 13, Type 0, BuildingBlock: CEKHIL_clean_sbu_0, # of connection points: 4
#     Node 14, Type 0, BuildingBlock: CEKHIL_clean_sbu_0, # of connection points: 4
#     Node 15, Type 0, BuildingBlock: CEKHIL_clean_sbu_0, # of connection points: 4
#     Edge 16, Type (0, 0), BuildingBlock: TEMPAE_clean_linker_10, # of connection points: 2
#     Edge 17, Type (0, 0), BuildingBlock: TEMPAE_clean_linker_10, # of connection points: 2
#     Edge 18, Type (0, 0), BuildingBlock: TEMPAE_clean_linker_10, # of connection points: 2
#     Edge 19, Type (0, 0), BuildingBlock: TEMPAE_clean_linker_10, # of connection points: 2
#     Edge 20, Type (0, 0), BuildingBlock: TEMPAE_clean_linker_10, # of connection points: 2
#     Edge 21, Type (0, 0), BuildingBlock: TEMPAE_clean_linker_10, # of connection points: 2
#     Edge 22, Type (0, 0), BuildingBlock: TEMPAE_clean_linker_10, # of connection points: 2
#     Edge 23, Type (0, 0), BuildingBlock: TEMPAE_clean_linker_10, # of connection points: 2
#     Edge 24, Type (0, 0), BuildingBlock: TEMPAE_clean_linker_10, # of connection points: 2
#     Edge 25, Type (0, 0), BuildingBlock: TEMPAE_clean_linker_10, # of connection points: 2
#     Edge 26, Type (0, 0), BuildingBlock: TEMPAE_clean_linker_10, # of connection points: 2
#     Edge 27, Type (0, 0), BuildingBlock: TEMPAE_clean_linker_10, # of connection points: 2
#     Edge 28, Type (0, 0), BuildingBlock: TEMPAE_clean_linker_10, # of connection points: 2
#     Edge 29, Type (0, 0), BuildingBlock: TEMPAE_clean_linker_10, # of connection points: 2
#     Edge 30, Type (0, 0), BuildingBlock: TEMPAE_clean_linker_10, # of connection points: 2
#     Edge 31, Type (0, 0), BuildingBlock: TEMPAE_clean_linker_10, # of connection points: 2
#     Edge 32, Type (0, 0), BuildingBlock: TEMPAE_clean_linker_10, # of connection points: 2
#     Edge 33, Type (0, 0), BuildingBlock: TEMPAE_clean_linker_10, # of connection points: 2
#     Edge 34, Type (0, 0), BuildingBlock: TEMPAE_clean_linker_10, # of connection points: 2
#     Edge 35, Type (0, 0), BuildingBlock: TEMPAE_clean_linker_10, # of connection points: 2
#     Edge 36, Type (0, 0), BuildingBlock: TEMPAE_clean_linker_10, # of connection points: 2
#     Edge 37, Type (0, 0), BuildingBlock: TEMPAE_clean_linker_10, # of connection points: 2
#     Edge 38, Type (0, 0), BuildingBlock: TEMPAE_clean_linker_10, # of connection points: 2
#     Edge 39, Type (0, 0), BuildingBlock: TEMPAE_clean_linker_10, # of connection points: 2
#     Edge 40, Type (0, 0), BuildingBlock: TEMPAE_clean_linker_10, # of connection points: 2
#     Edge 41, Type (0, 0), BuildingBlock: TEMPAE_clean_linker_10, # of connection points: 2
#     Edge 42, Type (0, 0), BuildingBlock: TEMPAE_clean_linker_10, # of connection points: 2
#     Edge 43, Type (0, 0), BuildingBlock: TEMPAE_clean_linker_10, # of connection points: 2
#     Edge 44, Type (0, 0), BuildingBlock: TEMPAE_clean_linker_10, # of connection points: 2
#     Edge 45, Type (0, 0), BuildingBlock: TEMPAE_clean_linker_10, # of connection points: 2
#     Edge 46, Type (0, 0), BuildingBlock: TEMPAE_clean_linker_10, # of connection points: 2
#     Edge 47, Type (0, 0), BuildingBlock: TEMPAE_clean_linker_10, # of connection points: 2
# Relax obj value: 0.083
# Max RMSD: 0.169
# Mean RMSD: 0.169
data_MOF--net-umc--node1-CEKHIL_clean_sbu_0--edge1-TEMPAE_clean_linker_10
_symmetry_space_group_name_H-M    P1
_symmetry_Int_Tables_number       1
_symmetry_cell_setting            triclinic
loop_
_symmetry_equiv_pos_as_xyz
'x, y, z'
_cell_length_a     45.944523
_cell_length_b     33.30822
_cell_length_c     56.120961
_cell_angle_alpha  90.008161
_cell_angle_beta   90.01336
_cell_angle_gamma 89.995375
loop_
_atom_site_label
_atom_site_type_symbol
_atom_site_fract_x
_atom_site_fract_y
_atom_site_fract_z
_atom_type_partial_charge
Co0 Co 0.34218 0.07885 0.3677 0.0
O1 O 0.30565 0.10645 0.36684 0.0
O2 O 0.34583 0.13202 0.38225 0.0
C3 C 0.34066 0.05812 0.32962 0.0
O4 O 0.38408 0.05765 0.37022 0.0
Co5 Co 0.3405 0.98646 0.36067 0.0
O6 O 0.38301 0.99426 0.35609 0.0
C7 C 0.32388 0.02023 0.40684 0.0
C8 C 0.31837 0.13655 0.37697 0.0
C9 C 0.39694 0.02522 0.36313 0.0
O10 O 0.33224 0.05491 0.39953 0.0
O11 O 0.32283 0.98917 0.39344 0.0
O12 O 0.34986 0.09392 0.3348 0.0
O13 O 0.32989 0.0379 0.3472 0.0
Co14 Co 0.66858 0.92949 0.36754 0.0
O15 O 0.70396 0.89922 0.36585 0.0
O16 O 0.66316 0.87658 0.38194 0.0
C17 C 0.6698 0.951 0.32972 0.0
O18 O 0.62761 0.95362 0.37083 0.0
Co19 Co 0.6737 0.02167 0.36149 0.0
O20 O 0.63084 0.01728 0.35746 0.0
C21 C 0.68953 0.98567 0.40715 0.0
C22 C 0.6903 0.8702 0.37625 0.0
C23 C 0.61585 0.98713 0.36427 0.0
O24 O 0.68005 0.95184 0.39941 0.0
O25 O 0.69145 0.01714 0.39417 0.0
O26 O 0.6594 0.91576 0.33473 0.0
O27 O 0.682 0.96998 0.34717 0.0
Co28 Co 0.33599 0.9361 0.12291 0.0
O29 O 0.29947 0.90849 0.12406 0.0
O30 O 0.33949 0.88272 0.10855 0.0
C31 C 0.33516 0.95748 0.16085 0.0
O32 O 0.37782 0.95762 0.12017 0.0
Co33 Co 0.33332 0.02866 0.12914 0.0
O34 O 0.376 0.02177 0.13299 0.0
C35 C 0.31707 0.9937 0.08332 0.0
C36 C 0.31202 0.87831 0.11388 0.0
C37 C 0.39033 0.99078 0.12653 0.0
O38 O 0.32583 0.95944 0.09098 0.0
O39 O 0.31557 0.02507 0.09643 0.0
O40 O 0.34404 0.92148 0.1558 0.0
O41 O 0.32389 0.97729 0.14331 0.0
Co42 Co 0.66673 0.0693 0.12225 0.0
O43 O 0.70454 0.09351 0.12183 0.0
O44 O 0.6651 0.12239 0.10736 0.0
C45 C 0.66856 0.04949 0.16052 0.0
O46 O 0.62386 0.05169 0.1209 0.0
Co47 Co 0.66455 0.97698 0.13021 0.0
O48 O 0.62264 0.98858 0.13551 0.0
C49 C 0.68083 0.00817 0.0833 0.0
C50 C 0.69295 0.12452 0.11175 0.0
C51 C 0.60987 0.02045 0.12844 0.0
O52 O 0.6743 0.04367 0.09048 0.0
O53 O 0.68105 0.97741 0.09697 0.0
O54 O 0.66111 0.08598 0.15514 0.0
O55 O 0.67767 0.02786 0.1429 0.0
Co56 Co 0.66828 0.93618 0.6217 0.0
O57 O 0.70406 0.907 0.62511 0.0
O58 O 0.66521 0.88319 0.60678 0.0
C59 C 0.66621 0.95679 0.65977 0.0
O60 O 0.62691 0.95872 0.61633 0.0
Co61 Co 0.66986 0.02836 0.62909 0.0
O62 O 0.62718 0.02138 0.63143 0.0
C63 C 0.69012 0.99496 0.58368 0.0
C64 C 0.69193 0.8775 0.61391 0.0
C65 C 0.6136 0.99105 0.62315 0.0
O66 O 0.68256 0.9598 0.59081 0.0
O67 O 0.68806 0.02648 0.59661 0.0
O68 O 0.65681 0.92139 0.65388 0.0
O69 O 0.67911 0.97675 0.64308 0.0
Co70 Co 0.33649 0.06659 0.62145 0.0
O71 O 0.29922 0.0922 0.62413 0.0
O72 O 0.33713 0.11955 0.60629 0.0
C73 C 0.33883 0.04687 0.65968 0.0
O74 O 0.37899 0.04788 0.61677 0.0
Co75 Co 0.33927 0.97459 0.62927 0.0
O76 O 0.38135 0.98586 0.6327 0.0
C77 C 0.31892 0.00541 0.58326 0.0
C78 C 0.31 0.12266 0.61293 0.0
C79 C 0.39362 0.01709 0.62425 0.0
O80 O 0.32419 0.04128 0.5905 0.0
O81 O 0.32242 0.97421 0.59625 0.0
O82 O 0.34648 0.083 0.65366 0.0
O83 O 0.3273 0.0254 0.64294 0.0
Co84 Co 0.67093 0.0625 0.86941 0.0
O85 O 0.70906 0.0859 0.86759 0.0
O86 O 0.67167 0.11493 0.8852 0.0
C87 C 0.66875 0.04439 0.83088 0.0
O88 O 0.62781 0.04629 0.8734 0.0
Co89 Co 0.66491 0.97107 0.85997 0.0
O90 O 0.62338 0.9855 0.85611 0.0
C91 C 0.6855 0.99855 0.90675 0.0
C92 C 0.69902 0.11664 0.87901 0.0
C93 C 0.6122 0.01701 0.86518 0.0
O94 O 0.68178 0.03512 0.9001 0.0
O95 O 0.68105 0.96828 0.89319 0.0
O96 O 0.66216 0.08073 0.83728 0.0
O97 O 0.67913 0.0216 0.84749 0.0
Co98 Co 0.3369 0.94202 0.86953 0.0
O99 O 0.3007 0.91374 0.86673 0.0
O100 O 0.33932 0.88954 0.88515 0.0
C101 C 0.3391 0.961 0.83115 0.0
O102 O 0.37859 0.96379 0.87445 0.0
Co103 Co 0.33611 0.03393 0.86092 0.0
O104 O 0.37877 0.02641 0.85931 0.0
C105 C 0.31594 0.00274 0.90684 0.0
C106 C 0.31243 0.88436 0.87831 0.0
C107 C 0.39213 0.99601 0.86774 0.0
O108 O 0.32313 0.9672 0.90014 0.0
O109 O 0.31818 0.03374 0.89352 0.0
O110 O 0.34799 0.9256 0.83755 0.0
O111 O 0.3265 0.98194 0.84759 0.0
Co112 Co 0.83981 0.5665 0.371 0.0
O113 O 0.80237 0.59166 0.37036 0.0
O114 O 0.84168 0.61996 0.38548 0.0
C115 C 0.83923 0.54564 0.33297 0.0
O116 O 0.88237 0.54746 0.37348 0.0
Co117 Co 0.84004 0.47413 0.36457 0.0
O118 O 0.88241 0.48329 0.36066 0.0
C119 C 0.82282 0.50761 0.41059 0.0
C120 C 0.8139 0.62236 0.38078 0.0
C121 C 0.89584 0.51501 0.36711 0.0
O122 O 0.83039 0.54236 0.40283 0.0
O123 O 0.82269 0.4762 0.39747 0.0
O124 O 0.84711 0.58202 0.33819 0.0
O125 O 0.82875 0.52487 0.35046 0.0
Co126 Co 0.17352 0.44572 0.36818 0.0
O127 O 0.21094 0.42052 0.36647 0.0
O128 O 0.17267 0.39332 0.3839 0.0
C129 C 0.17218 0.46401 0.32985 0.0
O130 O 0.13085 0.46392 0.37199 0.0
Co131 Co 0.16981 0.53711 0.3593 0.0
O132 O 0.12804 0.52482 0.35472 0.0
C133 C 0.18935 0.50831 0.40598 0.0
C134 C 0.20001 0.39036 0.37787 0.0
C135 C 0.116 0.49376 0.36358 0.0
O136 O 0.18495 0.4721 0.399 0.0
O137 O 0.18546 0.53907 0.39271 0.0
O138 O 0.16432 0.4281 0.33607 0.0
O139 O 0.18322 0.48633 0.34641 0.0
Co140 Co 0.83516 0.4362 0.12386 0.0
O141 O 0.79914 0.40751 0.12643 0.0
O142 O 0.83827 0.38375 0.10839 0.0
C143 C 0.83654 0.45555 0.16216 0.0
O144 O 0.87674 0.45834 0.11935 0.0
Co145 Co 0.83398 0.52807 0.13194 0.0
O146 O 0.8765 0.5204 0.13528 0.0
C147 C 0.81526 0.49615 0.08576 0.0
C148 C 0.81136 0.37827 0.11506 0.0
C149 C 0.89007 0.4902 0.12684 0.0
O150 O 0.82187 0.46072 0.09299 0.0
O151 O 0.81744 0.52751 0.09881 0.0
O152 O 0.8458 0.42022 0.15597 0.0
O153 O 0.82411 0.47629 0.14552 0.0
Co154 Co 0.1662 0.56961 0.12025 0.0
O155 O 0.2039 0.59408 0.12063 0.0
O156 O 0.16488 0.62274 0.10528 0.0
C157 C 0.16703 0.55011 0.15859 0.0
O158 O 0.12347 0.55134 0.11818 0.0
Co159 Co 0.16517 0.47722 0.12796 0.0
O160 O 0.12292 0.48768 0.132 0.0
C161 C 0.18266 0.50904 0.08163 0.0
C162 C 0.19255 0.62507 0.11038 0.0
C163 C 0.10978 0.5194 0.12511 0.0
O164 O 0.17485 0.54411 0.08864 0.0
O165 O 0.18328 0.47828 0.09528 0.0
O166 O 0.15959 0.58647 0.15294 0.0
O167 O 0.17678 0.5284 0.14122 0.0
Co168 Co 0.16559 0.43415 0.62172 0.0
O169 O 0.2022 0.40673 0.62322 0.0
O170 O 0.16251 0.38046 0.60755 0.0
C171 C 0.16624 0.45572 0.65966 0.0
O172 O 0.12366 0.45549 0.61859 0.0
Co173 Co 0.1679 0.52676 0.62805 0.0
O174 O 0.12516 0.51987 0.631 0.0
C175 C 0.18495 0.49188 0.58233 0.0
C176 C 0.18993 0.37626 0.61314 0.0
C177 C 0.11097 0.48879 0.6245 0.0
O178 O 0.17619 0.45747 0.58982 0.0
O179 O 0.18608 0.52314 0.59556 0.0
O180 O 0.15726 0.41976 0.65463 0.0
O181 O 0.17748 0.47545 0.6421 0.0
Co182 Co 0.83364 0.56449 0.62456 0.0
O183 O 0.79612 0.58987 0.62575 0.0
O184 O 0.83468 0.61663 0.60854 0.0
C185 C 0.83463 0.54674 0.66319 0.0
O186 O 0.87638 0.54633 0.62117 0.0
Co187 Co 0.83777 0.47295 0.63478 0.0
O188 O 0.87948 0.48596 0.63915 0.0
C189 C 0.81914 0.5004 0.58739 0.0
C190 C 0.80731 0.61994 0.6144 0.0
C191 C 0.89134 0.51679 0.62984 0.0
O192 O 0.82285 0.53707 0.59384 0.0
O193 O 0.82309 0.47024 0.60113 0.0
O194 O 0.8422 0.5827 0.65677 0.0
O195 O 0.82408 0.52423 0.64652 0.0
Co196 Co 0.17481 0.56783 0.86815 0.0
O197 O 0.21127 0.59571 0.86628 0.0
O198 O 0.17227 0.62001 0.88411 0.0
C199 C 0.17358 0.54979 0.82959 0.0
O200 O 0.13289 0.54647 0.87207 0.0
Co201 Co 0.17511 0.47605 0.85852 0.0
O202 O 0.13264 0.48473 0.85565 0.0
C203 C 0.19376 0.50568 0.90534 0.0
C204 C 0.19934 0.62507 0.87774 0.0
C205 C 0.11931 0.51492 0.86437 0.0
O206 O 0.18738 0.54163 0.89881 0.0
O207 O 0.19167 0.47515 0.89161 0.0
O208 O 0.1648 0.58519 0.83608 0.0
O209 O 0.18553 0.52831 0.84609 0.0
Co210 Co 0.84557 0.42604 0.86994 0.0
O211 O 0.80928 0.39782 0.86786 0.0
O212 O 0.84915 0.37213 0.88366 0.0
C213 C 0.84493 0.44877 0.83222 0.0
O214 O 0.88724 0.44796 0.8736 0.0
Co215 Co 0.84303 0.5188 0.86444 0.0
O216 O 0.88572 0.51201 0.86055 0.0
C217 C 0.82508 0.48234 0.90954 0.0
C218 C 0.82187 0.36744 0.87778 0.0
C219 C 0.89987 0.48103 0.86726 0.0
O220 O 0.83443 0.44828 0.90197 0.0
O221 O 0.82393 0.5139 0.89656 0.0
O222 O 0.85432 0.41285 0.83689 0.0
O223 O 0.83349 0.46778 0.84997 0.0
C224 C 0.33542 0.03651 0.44884 0.0
C225 C 0.31809 0.01555 0.43252 0.0
C226 C 0.33188 0.03123 0.47339 0.0
C227 C 0.30974 0.00534 0.48187 0.0
C228 C 0.29157 0.98489 0.46548 0.0
C229 C 0.29634 0.98965 0.44089 0.0
C230 C 0.35226 0.05282 0.49022 0.0
C231 C 0.26712 0.95821 0.47394 0.0
C232 C 0.32427 0.96945 0.54467 0.0
C233 C 0.31127 1.00019 0.55796 0.0
C234 C 0.32238 0.96914 0.51972 0.0
C235 C 0.30637 0.99965 0.50798 0.0
C236 C 0.29095 0.0285 0.52153 0.0
C237 C 0.29404 0.0289 0.54639 0.0
C238 C 0.33978 0.93848 0.50595 0.0
C239 C 0.27286 0.06069 0.50973 0.0
H240 H 0.35248 0.05619 0.44236 0.0
H241 H 0.28285 0.97361 0.42821 0.0
H242 H 0.33976 0.07349 0.50185 0.0
H243 H 0.36338 0.03081 0.50195 0.0
H244 H 0.36908 0.07053 0.48064 0.0
H245 H 0.25406 0.94605 0.45892 0.0
H246 H 0.27602 0.93272 0.48435 0.0
H247 H 0.25249 0.9753 0.48597 0.0
H248 H 0.33778 0.94743 0.55363 0.0
H249 H 0.28379 0.05249 0.55673 0.0
H250 H 0.35869 0.95349 0.49746 0.0
H251 H 0.3265 0.92506 0.4915 0.0
H252 H 0.34802 0.914 0.51757 0.0
H253 H 0.28741 0.08378 0.50193 0.0
H254 H 0.25805 0.07572 0.52259 0.0
H255 H 0.25968 0.04785 0.49501 0.0
C256 C 0.6892 0.03253 0.54537 0.0
C257 C 0.69888 0.99941 0.55855 0.0
C258 C 0.6921 0.03337 0.5205 0.0
C259 C 0.70579 0.00083 0.50872 0.0
C260 C 0.71805 0.96917 0.52224 0.0
C261 C 0.71396 0.96845 0.54701 0.0
C262 C 0.67802 0.06715 0.50675 0.0
C263 C 0.73367 0.93462 0.51043 0.0
C264 C 0.67552 0.97063 0.44869 0.0
C265 C 0.69497 0.98907 0.43292 0.0
C266 C 0.67878 0.97464 0.47334 0.0
C267 C 0.70274 0.99647 0.4825 0.0
C268 C 0.72298 0.01432 0.46666 0.0
C269 C 0.7185 0.0111 0.44192 0.0
C270 C 0.6562 0.9561 0.48954 0.0
C271 C 0.74932 0.0365 0.47584 0.0
H272 H 0.67739 0.05638 0.55429 0.0
H273 H 0.72173 0.94301 0.55726 0.0
H274 H 0.69285 0.07864 0.49274 0.0
H275 H 0.65819 0.05571 0.49771 0.0
H276 H 0.67164 0.09251 0.5185 0.0
H277 H 0.74665 0.91692 0.52342 0.0
H278 H 0.71752 0.91428 0.50205 0.0
H279 H 0.74833 0.94565 0.49615 0.0
H280 H 0.65711 0.954 0.44168 0.0
H281 H 0.73359 0.02517 0.42964 0.0
H282 H 0.64678 0.97941 0.50138 0.0
H283 H 0.66647 0.93309 0.50109 0.0
H284 H 0.6382 0.94167 0.47946 0.0
H285 H 0.74243 0.06279 0.48657 0.0
H286 H 0.76364 0.04712 0.46119 0.0
H287 H 0.76214 0.01664 0.48776 0.0
C288 C 0.33012 0.97738 0.04169 0.0
C289 C 0.31169 0.99755 0.05755 0.0
C290 C 0.3269 0.98169 0.01705 0.0
C291 C 0.30399 0.00569 0.00799 0.0
C292 C 0.28476 0.02534 0.02391 0.0
C293 C 0.28921 0.02168 0.04863 0.0
C294 C 0.34841 0.96107 0.00075 0.0
C295 C 0.2595 0.04994 0.01484 0.0
C296 C 0.31877 0.04037 0.94503 0.0
C297 C 0.30743 0.00817 0.93194 0.0
C298 C 0.31612 0.0415 0.96992 0.0
C299 C 0.30098 0.0103 0.98178 0.0
C300 C 0.28711 0.97982 0.96834 0.0
C301 C 0.29101 0.97866 0.94356 0.0
C302 C 0.33192 0.0739 0.98358 0.0
C303 C 0.26992 0.94682 0.98024 0.0
H304 H 0.34773 0.9591 0.04861 0.0
H305 H 0.27489 0.03709 0.06096 0.0
H306 H 0.33697 0.93905 0.98926 0.0
H307 H 0.35885 0.98344 0.98885 0.0
H308 H 0.36574 0.94502 0.01075 0.0
H309 H 0.24576 0.06172 0.02955 0.0
H310 H 0.26761 0.07562 0.00418 0.0
H311 H 0.24574 0.03138 0.00289 0.0
H312 H 0.33164 0.06304 0.93602 0.0
H313 H 0.28202 0.95394 0.93336 0.0
H314 H 0.35121 0.06064 0.99253 0.0
H315 H 0.31779 0.08676 -0.00235 0.0
H316 H 0.33945 0.09858 0.97178 0.0
H317 H 0.2851 0.925 0.98853 0.0
H318 H 0.25599 0.93039 0.96732 0.0
H319 H 0.25596 0.9592 0.9946 0.0
C320 C 0.71069 0.01817 0.94426 0.0
C321 C 0.69249 0.99149 0.93201 0.0
C322 C 0.71344 0.01616 0.96911 0.0
C323 C 0.69671 0.9878 0.98197 0.0
C324 C 0.67966 0.95924 0.96953 0.0
C325 C 0.6781 0.96108 0.94459 0.0
C326 C 0.7326 0.04629 0.98168 0.0
C327 C 0.66089 0.92922 0.98257 0.0
C328 C 0.70618 0.97503 0.04896 0.0
C329 C 0.68566 0.00256 0.05757 0.0
C330 C 0.71053 0.97022 0.02431 0.0
C331 C 0.6932 0.99246 0.00813 0.0
C332 C 0.6721 0.01972 0.01687 0.0
C333 C 0.66894 0.02487 0.04145 0.0
C334 C 0.73382 0.94187 0.01559 0.0
C335 C 0.6526 0.04325 0.00026 0.0
H336 H 0.72203 0.04147 0.93446 0.0
H337 H 0.66385 0.94063 0.9351 0.0
H338 H 0.71885 0.06989 0.98991 0.0
H339 H 0.74515 0.03164 -0.00383 0.0
H340 H 0.74806 0.06102 0.96922 0.0
H341 H 0.6521 0.90581 0.97044 0.0
H342 H 0.67331 0.91435 -0.00298 0.0
H343 H 0.6423 0.94514 0.99096 0.0
H344 H 0.71918 0.95792 0.06149 0.0
H345 H 0.65279 0.0458 0.04812 0.0
H346 H 0.74976 0.95852 0.0045 0.0
H347 H 0.72408 0.91832 0.00412 0.0
H348 H 0.74562 0.92711 0.03048 0.0
H349 H 0.66589 0.06362 0.98904 0.0
H350 H 0.63628 0.06158 0.01001 0.0
H351 H 0.64089 0.0225 0.98811 0.0
C352 C 0.78874 0.50815 0.55098 0.0
C353 C 0.81362 0.49282 0.56208 0.0
C354 C 0.78554 0.50587 0.52614 0.0
C355 C 0.80846 0.48972 0.51223 0.0
C356 C 0.83317 0.47294 0.52359 0.0
C357 C 0.83519 0.4741 0.54848 0.0
C358 C 0.75841 0.5227 0.51473 0.0
C359 C 0.85853 0.45668 0.50943 0.0
C360 C 0.80377 0.46878 0.44575 0.0
C361 C 0.81613 0.50391 0.43633 0.0
C362 C 0.79967 0.4644 0.47045 0.0
C363 C 0.80874 0.49546 0.48599 0.0
C364 C 0.82037 0.5314 0.47651 0.0
C365 C 0.82362 0.5353 0.45184 0.0
C366 C 0.78639 0.42617 0.47994 0.0
C367 C 0.8307 0.56508 0.49247 0.0
H368 H 0.77212 0.52262 0.56169 0.0
H369 H 0.85456 0.46275 0.55725 0.0
H370 H 0.76338 0.55221 0.50654 0.0
H371 H 0.75056 0.50255 0.50035 0.0
H372 H 0.74065 0.52698 0.52792 0.0
H373 H 0.87513 0.44219 0.52097 0.0
H374 H 0.85092 0.43448 0.4961 0.0
H375 H 0.86908 0.48159 0.49953 0.0
H376 H 0.79763 0.44455 0.4339 0.0
H377 H 0.83316 0.56262 0.44481 0.0
H378 H 0.76903 0.43316 0.49305 0.0
H379 H 0.80325 0.40839 0.48936 0.0
H380 H 0.77703 0.40733 0.46551 0.0
H381 H 0.8128 0.57522 0.50426 0.0
H382 H 0.83872 0.59137 0.4822 0.0
H383 H 0.84859 0.55418 0.50408 0.0
C384 C 0.1764 0.4718 0.5403 0.0
C385 C 0.19123 0.49614 0.55665 0.0
C386 C 0.17971 0.47736 0.51574 0.0
C387 C 0.19902 0.50725 0.50727 0.0
C388 C 0.21496 0.53094 0.52366 0.0
C389 C 0.21049 0.52557 0.54824 0.0
C390 C 0.1618 0.452 0.49888 0.0
C391 C 0.23645 0.56211 0.51524 0.0
C392 C 0.2165 0.48867 0.44247 0.0
C393 C 0.19656 0.51423 0.43125 0.0
C394 C 0.21964 0.4889 0.46732 0.0
C395 C 0.20148 0.51404 0.4812 0.0
C396 C 0.18245 0.54148 0.4698 0.0
C397 C 0.18058 0.54168 0.44485 0.0
C398 C 0.24095 0.46028 0.47876 0.0
C399 C 0.16211 0.56797 0.48393 0.0
H400 H 0.16125 0.44929 0.54671 0.0
H401 H 0.2221 0.54428 0.56087 0.0
H402 H 0.14821 0.47162 0.4874 0.0
H403 H 0.1763 0.43448 0.48699 0.0
H404 H 0.14727 0.43073 0.50842 0.0
H405 H 0.24893 0.57554 0.53021 0.0
H406 H 0.25199 0.54852 0.50242 0.0
H407 H 0.22483 0.58648 0.50572 0.0
H408 H 0.22895 0.46758 0.43184 0.0
H409 H 0.16495 0.56113 0.43611 0.0
H410 H 0.22898 0.43437 0.48638 0.0
H411 H 0.25278 0.47518 0.49356 0.0
H412 H 0.25705 0.44864 0.4657 0.0
H413 H 0.14528 0.54906 0.49262 0.0
H414 H 0.15099 0.59052 0.47253 0.0
H415 H 0.17406 0.58392 0.49824 0.0
C416 C 0.79524 0.50996 0.94312 0.0
C417 C 0.81827 0.48593 0.93509 0.0
C418 C 0.7896 0.51409 0.96763 0.0
C419 C 0.80819 0.49505 0.9843 0.0
C420 C 0.83157 0.47097 0.97615 0.0
C421 C 0.83597 0.46615 0.95165 0.0
C422 C 0.76384 0.5387 0.9757 0.0
C423 C 0.85241 0.45098 0.99329 0.0
C424 C 0.81972 0.53244 0.04722 0.0
C425 C 0.80775 0.5008 0.06039 0.0
C426 C 0.81842 0.53241 0.02224 0.0
C427 C 0.80403 0.50057 0.01034 0.0
C428 C 0.78952 0.47064 0.02373 0.0
C429 C 0.79203 0.47068 0.04864 0.0
C430 C 0.83482 0.56433 0.00865 0.0
C431 C 0.77311 0.43696 0.01175 0.0
H432 H 0.78148 0.52507 0.93024 0.0
H433 H 0.854 0.44794 0.94542 0.0
H434 H 0.74981 0.52053 0.98764 0.0
H435 H 0.7714 0.56503 0.98609 0.0
H436 H 0.75052 0.54955 0.96048 0.0
H437 H 0.87013 0.43458 0.98398 0.0
H438 H 0.86237 0.47383 0.00517 0.0
H439 H 0.84052 0.42941 0.00476 0.0
H440 H 0.83209 0.55555 0.05632 0.0
H441 H 0.78257 0.44635 0.05888 0.0
H442 H 0.82129 0.57666 0.99403 0.0
H443 H 0.85446 0.55076 0.00042 0.0
H444 H 0.84183 0.58944 0.02035 0.0
H445 H 0.75979 0.4486 -0.00323 0.0
H446 H 0.75865 0.42087 0.02442 0.0
H447 H 0.7888 0.41501 0.00427 0.0
C448 C 0.16969 0.52223 0.03965 0.0
C449 C 0.18841 0.50389 0.05603 0.0
C450 C 0.17423 0.51837 0.01512 0.0
C451 C 0.19871 0.49674 0.00677 0.0
C452 C 0.21791 0.47835 0.02325 0.0
C453 C 0.21221 0.48155 0.04782 0.0
C454 C 0.15273 0.5375 -0.00182 0.0
C455 C 0.2447 0.45619 0.01496 0.0
C456 C 0.19003 0.46517 0.94248 0.0
C457 C 0.20081 0.49913 0.93068 0.0
C458 C 0.19102 0.4625 0.96741 0.0
C459 C 0.20383 0.49406 0.98068 0.0
C460 C 0.21724 0.52651 0.96864 0.0
C461 C 0.21512 0.52902 0.94376 0.0
C462 C 0.17586 0.42787 0.97954 0.0
C463 C 0.23192 0.56012 0.98211 0.0
H464 H 0.15111 0.53915 0.04607 0.0
H465 H 0.22674 0.46763 0.0606 0.0
H466 H 0.16366 0.56128 0.98764 0.0
H467 H 0.14439 0.51477 0.98543 0.0
H468 H 0.13391 0.55113 0.00762 0.0
H469 H 0.25716 0.44303 0.03003 0.0
H470 H 0.23858 0.43178 0.00249 0.0
H471 H 0.25912 0.47706 0.00506 0.0
H472 H 0.17881 0.44212 0.93239 0.0
H473 H 0.22375 0.55511 0.9346 0.0
H474 H 0.15517 0.43869 0.98749 0.0
H475 H 0.18936 0.41567 0.99422 0.0
H476 H 0.17073 0.40319 0.9669 0.0
H477 H 0.21514 0.57982 0.99021 0.0
H478 H 0.24581 0.57878 0.97028 0.0
H479 H 0.24552 0.548 -0.00322 0.0
C480 C 0.56576 0.96778 0.37884 0.0
C481 C 0.58364 0.99211 0.36463 0.0
C482 C 0.53542 0.97409 0.37976 0.0
C483 C 0.52262 0.005 0.36586 0.0
C484 C 0.54057 0.02933 0.35134 0.0
C485 C 0.57073 0.02275 0.35101 0.0
C486 C 0.51704 0.94768 0.39559 0.0
C487 C 0.52787 0.06204 0.33585 0.0
C488 C 0.44311 0.99491 0.34806 0.0
C489 C 0.42924 0.02222 0.3634 0.0
C490 C 0.47334 0.98909 0.34873 0.0
C491 C 0.49034 0.01069 0.36539 0.0
C492 C 0.47658 0.03854 0.38087 0.0
C493 C 0.44619 0.04426 0.37955 0.0
C494 C 0.48709 0.95983 0.33151 0.0
C495 C 0.49393 0.06194 0.39899 0.0
H496 H 0.57551 0.94426 0.38953 0.0
H497 H 0.58425 0.04156 0.33979 0.0
H498 H 0.50419 0.96646 0.40808 0.0
H499 H 0.50132 0.93043 0.38461 0.0
H500 H 0.53036 0.92618 0.40608 0.0
H501 H 0.54486 0.07876 0.32586 0.0
H502 H 0.51238 0.04882 0.32287 0.0
H503 H 0.51547 0.08366 0.34694 0.0
H504 H 0.43024 0.97797 0.33536 0.0
H505 H 0.43563 0.06514 0.39158 0.0
H506 H 0.49864 0.93587 0.34146 0.0
H507 H 0.50349 0.9755 0.32038 0.0
H508 H 0.47082 0.94556 0.31955 0.0
H509 H 0.50579 0.04094 0.41088 0.0
H510 H 0.47997 0.08176 0.41008 0.0
H511 H 0.51047 0.08068 0.38986 0.0
C512 C 0.44042 0.9675 0.11381 0.0
C513 C 0.42267 0.99451 0.12634 0.0
C514 C 0.4709 0.9726 0.11311 0.0
C515 C 0.48396 0.00518 0.12543 0.0
C516 C 0.46615 0.03228 0.13821 0.0
C517 C 0.4359 0.02671 0.13845 0.0
C518 C 0.48916 0.94314 0.0992 0.0
C519 C 0.47909 0.06698 0.15196 0.0
C520 C 0.56288 0.99554 0.14503 0.0
C521 C 0.57755 0.01965 0.12838 0.0
C522 C 0.53256 0.99071 0.14425 0.0
C523 C 0.51632 0.00994 0.12613 0.0
C524 C 0.5309 0.03474 0.10937 0.0
C525 C 0.56135 0.03961 0.11083 0.0
C526 C 0.51794 0.96486 0.16285 0.0
C527 C 0.51437 0.05555 0.08969 0.0
H528 H 0.43048 0.94271 0.10431 0.0
H529 H 0.42256 0.04769 0.14838 0.0
H530 H 0.50262 0.95936 0.0859 0.0
H531 H 0.50431 0.92731 0.11139 0.0
H532 H 0.47569 0.92043 0.08978 0.0
H533 H 0.46219 0.08584 0.16063 0.0
H534 H 0.49402 0.05548 0.16592 0.0
H535 H 0.49214 0.08625 0.13989 0.0
H536 H 0.57524 0.9802 0.15874 0.0
H537 H 0.57257 0.0579 0.09776 0.0
H538 H 0.50632 0.93963 0.15413 0.0
H539 H 0.50146 0.98273 0.17267 0.0
H540 H 0.53367 0.9523 0.17591 0.0
H541 H 0.50264 0.03301 0.07875 0.0
H542 H 0.52889 0.07329 0.07788 0.0
H543 H 0.49777 0.07594 0.0974 0.0
C544 C 0.56708 0.02534 0.63424 0.0
C545 C 0.58126 0.99461 0.62153 0.0
C546 C 0.53681 0.03048 0.63315 0.0
C547 C 0.5199 0.00446 0.61885 0.0
C548 C 0.53395 0.97363 0.60568 0.0
C549 C 0.56445 0.96888 0.60729 0.0
C550 C 0.52286 0.06324 0.64788 0.0
C551 C 0.5167 0.94539 0.59012 0.0
C552 C 0.44134 0.99031 0.63834 0.0
C553 C 0.42602 0.01609 0.62296 0.0
C554 C 0.47165 0.98595 0.63689 0.0
C555 C 0.48739 0.00764 0.61948 0.0
C556 C 0.47219 0.03392 0.6039 0.0
C557 C 0.44167 0.03808 0.60593 0.0
C558 C 0.48686 0.9583 0.65425 0.0
C559 C 0.48817 0.05746 0.58504 0.0
H560 H 0.57965 0.04536 0.64547 0.0
H561 H 0.57511 0.94527 0.59728 0.0
H562 H 0.50934 0.0829 0.63639 0.0
H563 H 0.5082 0.0497 0.66138 0.0
H564 H 0.53918 0.08213 0.65725 0.0
H565 H 0.53092 0.9249 0.57971 0.0
H566 H 0.50193 0.92701 0.60133 0.0
H567 H 0.50288 0.96273 0.57759 0.0
H568 H 0.42956 0.9734 0.65173 0.0
H569 H 0.43004 0.05776 0.59386 0.0
H570 H 0.50265 0.97562 0.66511 0.0
H571 H 0.49933 0.93509 0.64442 0.0
H572 H 0.4714 0.94302 0.66647 0.0
H573 H 0.50405 0.07806 0.59354 0.0
H574 H 0.47319 0.07543 0.57374 0.0
H575 H 0.5007 0.03672 0.57345 0.0
C576 C 0.56366 0.99748 0.84916 0.0
C577 C 0.57988 0.01794 0.86656 0.0
C578 C 0.53332 0.9938 0.85083 0.0
C579 C 0.51855 0.01052 0.8706 0.0
C580 C 0.5347 0.03159 0.8882 0.0
C581 C 0.56519 0.03537 0.88586 0.0
C582 C 0.51706 0.972 0.83132 0.0
C583 C 0.51979 0.04964 0.90961 0.0
C584 C 0.43857 0.03326 0.86001 0.0
C585 C 0.42451 0.99937 0.86966 0.0
C586 C 0.4689 0.03773 0.86093 0.0
C587 C 0.48605 0.00772 0.87187 0.0
C588 C 0.47215 0.97377 0.88213 0.0
C589 C 0.44156 0.96989 0.88082 0.0
C590 C 0.48264 0.07414 0.84945 0.0
C591 C 0.48968 0.9412 0.89408 0.0
H592 H 0.57483 0.98409 0.8341 0.0
H593 H 0.57761 0.05076 0.89951 0.0
H594 H 0.50484 0.9463 0.83892 0.0
H595 H 0.50093 0.99244 0.82299 0.0
H596 H 0.5318 0.96054 0.81718 0.0
H597 H 0.53541 0.06429 0.92197 0.0
H598 H 0.50354 0.07224 0.90379 0.0
H599 H 0.50781 0.02595 0.91946 0.0
H600 H 0.42589 0.05641 0.85128 0.0
H601 H 0.43107 0.94375 0.88845 0.0
H602 H 0.49646 0.06459 0.83426 0.0
H603 H 0.49697 0.08979 0.86237 0.0
H604 H 0.46619 0.09584 0.84278 0.0
H605 H 0.50355 0.92587 0.8807 0.0
H606 H 0.47564 0.91841 0.90283 0.0
H607 H 0.50441 0.95446 0.90763 0.0
C608 C 0.94229 0.48079 0.35573 0.0
C609 C 0.92829 0.51284 0.36739 0.0
C610 C 0.97265 0.4765 0.3561 0.0
C611 C 0.98982 0.50484 0.36852 0.0
C612 C 0.97598 0.53727 0.38041 0.0
C613 C 0.94538 0.54102 0.37962 0.0
C614 C 0.98638 0.44185 0.34283 0.0
C615 C 0.99355 0.56807 0.39389 0.0
C616 C 0.06826 0.47428 0.38268 0.0
C617 C 0.08365 0.49391 0.36452 0.0
C618 C 0.03775 0.47816 0.38455 0.0
C619 C 0.02229 0.50166 0.36765 0.0
C620 C 0.03774 0.5207 0.34901 0.0
C621 C 0.0681 0.51677 0.34776 0.0
C622 C 0.02206 0.45747 0.40472 0.0
C623 C 0.0222 0.54522 0.33026 0.0
H624 H 0.92949 0.45887 0.34604 0.0
H625 H 0.93486 0.5657 0.38879 0.0
H626 H 1.00081 0.45346 0.32856 0.0
H627 H 1.0001 0.42385 0.3551 0.0
H628 H 0.96993 0.42172 0.33461 0.0
H629 H 0.97955 0.5904 0.40312 0.0
H630 H 0.00752 0.55298 0.4073 0.0
H631 H 0.00818 0.58424 0.38144 0.0
H632 H 0.08013 0.45689 0.3958 0.0
H633 H 0.07977 0.53176 0.33352 0.0
H634 H 0.00596 0.43584 0.39748 0.0
H635 H 0.00982 0.47988 0.41537 0.0
H636 H 0.03721 0.44109 0.4167 0.0
H637 H 0.00619 0.52617 0.3207 0.0
H638 H 0.03743 0.55829 0.31699 0.0
H639 H 0.00992 0.57002 0.3388 0.0
C640 C 0.06071 0.54116 0.10927 0.0
C641 C 0.0774 0.51769 0.12489 0.0
C642 C 0.03021 0.53648 0.10798 0.0
C643 C 0.01607 0.50811 0.1229 0.0
C644 C 0.03283 0.48493 0.13895 0.0
C645 C 0.06313 0.48987 0.13967 0.0
C646 C 0.0131 0.56168 0.09058 0.0
C647 C 0.01874 0.45499 0.15557 0.0
C648 C 0.93661 0.52259 0.13958 0.0
C649 C 0.9224 0.49349 0.12561 0.0
C650 C 0.96685 0.52805 0.13849 0.0
C651 C 0.98364 0.50403 0.12291 0.0
C652 C 0.96956 0.47462 0.10866 0.0
C653 C 0.93911 0.4695 0.11029 0.0
C654 C 0.98087 0.55919 0.15436 0.0
C655 C 0.98671 0.44852 0.09177 0.0
H656 H 0.07154 0.56244 0.09766 0.0
H657 H 0.07574 0.47177 0.15197 0.0
H658 H 1.00046 0.54196 0.07846 0.0
H659 H 0.99724 0.58068 0.10033 0.0
H660 H 0.02733 0.58145 0.0797 0.0
H661 H 0.0349 0.43891 0.16678 0.0
H662 H 1.0031 0.47058 0.16746 0.0
H663 H 0.00624 0.43251 0.14518 0.0
H664 H 0.92407 0.54116 0.15167 0.0
H665 H 0.92838 0.44717 0.09932 0.0
H666 H 0.99358 0.58076 0.14348 0.0
H667 H 0.99631 0.54442 0.16679 0.0
H668 H 0.96465 0.57622 0.165 0.0
H669 H 0.99965 0.46755 0.07947 0.0
H670 H 0.97248 0.42848 0.08105 0.0
H671 H 1.0023 0.42973 0.10194 0.0
C672 C 0.93952 0.49645 0.64624 0.0
C673 C 0.92364 0.5165 0.62848 0.0
C674 C 0.96979 0.49166 0.64458 0.0
C675 C 0.98475 0.50673 0.62443 0.0
C676 C 0.96892 0.52735 0.60648 0.0
C677 C 0.93854 0.53235 0.60882 0.0
C678 C 0.98576 0.47042 0.66446 0.0
C679 C 0.98403 0.54361 0.58465 0.0
C680 C 0.06537 0.52729 0.63329 0.0
C681 C 0.07857 0.49263 0.62382 0.0
C682 C 0.03509 0.53254 0.63304 0.0
C683 C 0.01714 0.50253 0.62299 0.0
C684 C 0.03016 0.46761 0.61312 0.0
C685 C 0.06071 0.46298 0.61373 0.0
C686 C 0.02227 0.56997 0.64408 0.0
C687 C 0.01175 0.43497 0.60215 0.0
H688 H 0.92815 0.48427 0.66155 0.0
H689 H 0.92634 0.54738 0.5949 0.0
H690 H 0.99732 0.44375 0.65735 0.0
H691 H 1.00243 0.49066 0.67223 0.0
H692 H 0.97091 0.46049 0.67892 0.0
H693 H 0.96862 0.55815 0.57207 0.0
H694 H 1.00077 0.56589 0.58995 0.0
H695 H 0.99545 0.51892 0.57523 0.0
H696 H 0.07872 0.55052 0.64126 0.0
H697 H 0.07055 0.43623 0.60625 0.0
H698 H 0.00833 0.56166 0.65946 0.0
H699 H 0.00822 0.58571 0.631 0.0
H700 H 0.03926 0.5912 0.65038 0.0
H701 H 0.99761 0.42135 0.61597 0.0
H702 H 0.02515 0.41089 0.59394 0.0
H703 H 0.99725 0.44789 0.58831 0.0
C704 C 0.07262 0.48186 0.85252 0.0
C705 C 0.08694 0.51181 0.86578 0.0
C706 C 0.04241 0.47637 0.85391 0.0
C707 C 0.0257 0.50131 0.86901 0.0
C708 C 0.03983 0.5317 0.88247 0.0
C709 C 0.07028 0.53675 0.88062 0.0
C710 C 0.02835 0.44406 0.8389 0.0
C711 C 0.02276 0.55885 0.89883 0.0
C712 C 0.94582 0.51232 0.85246 0.0
C713 C 0.93216 0.48467 0.86771 0.0
C714 C 0.97603 0.51839 0.85301 0.0
C715 C 0.99328 0.49672 0.86947 0.0
C716 C 0.97969 0.46885 0.88505 0.0
C717 C 0.94931 0.46284 0.88383 0.0
C718 C 0.98955 0.54761 0.83564 0.0
C719 C 0.99728 0.4454 0.90298 0.0
H720 H 0.08507 0.46251 0.8408 0.0
H721 H 0.08105 0.55979 0.89103 0.0
H722 H 0.0161 0.42294 0.85042 0.0
H723 H 0.0125 0.45778 0.8264 0.0
H724 H 0.0445 0.42667 0.82839 0.0
H725 H 0.037 0.57992 0.90881 0.0
H726 H 0.00682 0.57657 0.88835 0.0
H727 H 0.0102 0.54059 0.91178 0.0
H728 H 0.93281 0.52915 0.83981 0.0
H729 H 0.93892 0.44175 0.89582 0.0
H730 H 0.00504 0.53157 0.82384 0.0
H731 H 1.00209 0.57083 0.8454 0.0
H732 H 0.97303 0.56282 0.82435 0.0
H733 H 0.01299 0.42565 0.89361 0.0
H734 H 0.98337 0.42653 0.91467 0.0
H735 H 0.01011 0.46625 0.91428 0.0
C736 C 0.24576 0.35165 0.37168 0.0
C737 C 0.21822 0.35429 0.38244 0.0
C738 C 0.26298 0.31712 0.37385 0.0
C739 C 0.25275 0.28432 0.38748 0.0
C740 C 0.22563 0.28747 0.39945 0.0
C741 C 0.2085 0.32232 0.3966 0.0
C742 C 0.29139 0.31494 0.36034 0.0
C743 C 0.21425 0.25348 0.41457 0.0
C744 C 0.27803 0.18232 0.36582 0.0
C745 C 0.30193 0.17435 0.38065 0.0
C746 C 0.26162 0.21751 0.36826 0.0
C747 C 0.26872 0.24529 0.38642 0.0
C748 C 0.2924 0.23703 0.40193 0.0
C749 C 0.30906 0.20183 0.39863 0.0
C750 C 0.2372 0.22548 0.35082 0.0
C751 C 0.3002 0.26547 0.42185 0.0
H752 H 0.2536 0.37619 0.36074 0.0
H753 H 0.18741 0.32427 0.40516 0.0
H754 H 0.30934 0.30579 0.37237 0.0
H755 H 0.28972 0.29186 0.34613 0.0
H756 H 0.29724 0.34404 0.35194 0.0
H757 H 0.19513 0.26266 0.42539 0.0
H758 H 0.20767 0.22812 0.40293 0.0
H759 H 0.23154 0.24227 0.42666 0.0
H760 H 0.27248 0.16132 0.35177 0.0
H761 H 0.32732 0.19556 0.41029 0.0
H762 H 0.2418 0.25336 0.34067 0.0
H763 H 0.21645 0.23015 0.36052 0.0
H764 H 0.23419 0.20049 0.33795 0.0
H765 H 0.30796 0.29434 0.41434 0.0
H766 H 0.31744 0.2531 0.43363 0.0
H767 H 0.28064 0.27216 0.43276 0.0
C768 C 0.70651 0.81289 0.4022 0.0
C769 C 0.70545 0.83162 0.37988 0.0
C770 C 0.72455 0.77916 0.40595 0.0
C771 C 0.74115 0.76346 0.38675 0.0
C772 C 0.73934 0.78187 0.36406 0.0
C773 C 0.72191 0.816 0.36104 0.0
C774 C 0.72638 0.7609 0.4305 0.0
C775 C 0.75585 0.76556 0.34288 0.0
C776 C 0.80758 0.69532 0.39208 0.0
C777 C 0.79555 0.65803 0.38603 0.0
C778 C 0.78982 0.72975 0.39399 0.0
C779 C 0.75944 0.72668 0.38967 0.0
C780 C 0.7471 0.68863 0.38495 0.0
C781 C 0.76523 0.65492 0.38326 0.0
C782 C 0.80375 0.76973 0.3994 0.0
C783 C 0.71494 0.68381 0.38007 0.0
H784 H 0.69423 0.82555 0.41688 0.0
H785 H 0.72115 0.8307 0.3438 0.0
H786 H 0.72013 0.72876 0.42985 0.0
H787 H 0.74917 0.76227 0.43701 0.0
H788 H 0.71211 0.77654 0.44352 0.0
H789 H 0.75169 0.78305 0.32637 0.0
H790 H 0.77957 0.766 0.34657 0.0
H791 H 0.74957 0.73385 0.33963 0.0
H792 H 0.83093 0.69794 0.39439 0.0
H793 H 0.75559 0.62614 0.37891 0.0
H794 H 0.7911 0.786 0.41319 0.0
H795 H 0.80375 0.78856 0.3831 0.0
H796 H 0.82657 0.76636 0.40563 0.0
H797 H 0.70189 0.69884 0.39409 0.0
H798 H 0.70831 0.65177 0.37913 0.0
H799 H 0.70947 0.69835 0.36285 0.0
C800 C 0.2018 0.69308 0.09173 0.0
C801 C 0.21066 0.66147 0.10654 0.0
C802 C 0.21909 0.72789 0.08929 0.0
C803 C 0.24537 0.73149 0.10246 0.0
C804 C 0.25459 0.69921 0.11698 0.0
C805 C 0.23735 0.66463 0.11862 0.0
C806 C 0.20887 0.76127 0.07318 0.0
C807 C 0.28194 0.70195 0.13187 0.0
C808 C 0.30322 0.81243 0.09264 0.0
C809 C 0.29527 0.84081 0.1099 0.0
C810 C 0.28636 0.77748 0.08908 0.0
C811 C 0.26154 0.77039 0.10355 0.0
C812 C 0.25353 0.79913 0.12092 0.0
C813 C 0.27024 0.83399 0.12366 0.0
C814 C 0.29523 0.74796 0.07003 0.0
C815 C 0.22783 0.79246 0.13727 0.0
H816 H 0.18137 0.69071 0.08218 0.0
H817 H 0.24444 0.64046 0.13018 0.0
H818 H 0.20187 0.78732 0.08408 0.0
H819 H 0.22695 0.77159 0.06158 0.0
H820 H 0.19032 0.75183 0.06177 0.0
H821 H 0.28693 0.67337 0.14123 0.0
H822 H 0.30083 0.71007 0.12057 0.0
H823 H 0.27941 0.72599 0.14542 0.0
H824 H 0.32235 0.81775 0.0818 0.0
H825 H 0.26398 0.85567 0.13714 0.0
H826 H 0.27633 0.74071 0.05849 0.0
H827 H 0.3025 0.71951 0.0784 0.0
H828 H 0.31318 0.75965 0.05873 0.0
H829 H 0.20778 0.78746 0.12669 0.0
H830 H 0.22409 0.81822 0.14947 0.0
H831 H 0.23149 0.76514 0.14819 0.0
C832 C 0.70006 0.19451 0.09526 0.0
C833 C 0.71102 0.16076 0.10719 0.0
C834 C 0.71702 0.22961 0.09286 0.0
C835 C 0.7453 0.23115 0.10303 0.0
C836 C 0.75674 0.1966 0.11429 0.0
C837 C 0.73962 0.16191 0.11603 0.0
C838 C 0.70429 0.26553 0.08025 0.0
C839 C 0.78645 0.19695 0.12586 0.0
C840 C 0.80028 0.31528 0.09171 0.0
C841 C 0.79501 0.34046 0.11124 0.0
C842 C 0.78343 0.28034 0.08811 0.0
C843 C 0.7615 0.26993 0.10483 0.0
C844 C 0.75638 0.2953 0.12462 0.0
C845 C 0.77288 0.33035 0.12738 0.0
C846 C 0.78908 0.25456 0.0665 0.0
C847 C 0.73393 0.28493 0.14332 0.0
H848 H 0.67811 0.19378 0.0882 0.0
H849 H 0.74844 0.136 0.12523 0.0
H850 H 0.69903 0.28921 0.09347 0.0
H851 H 0.72033 0.27837 0.06759 0.0
H852 H 0.68409 0.25783 0.07036 0.0
H853 H 0.79306 0.16678 0.13233 0.0
H854 H 0.80314 0.20787 0.11315 0.0
H855 H 0.78632 0.2179 0.14124 0.0
H856 H 0.81714 0.32326 0.07905 0.0
H857 H 0.7688 0.3496 0.1426 0.0
H858 H 0.76849 0.24957 0.05658 0.0
H859 H 0.79722 0.22469 0.07212 0.0
H860 H 0.80528 0.26828 0.05427 0.0
H861 H 0.71218 0.28161 0.13497 0.0
H862 H 0.73245 0.30806 0.15753 0.0
H863 H 0.73946 0.25574 0.15171 0.0
C864 C 0.70126 0.81176 0.59267 0.0
C865 C 0.7081 0.83923 0.61076 0.0
C866 C 0.71748 0.77602 0.58989 0.0
C867 C 0.74048 0.76717 0.60596 0.0
C868 C 0.74731 0.79493 0.62422 0.0
C869 C 0.73132 0.83063 0.62619 0.0
C870 C 0.70995 0.74764 0.56987 0.0
C871 C 0.77104 0.78646 0.64219 0.0
C872 C 0.76191 0.65981 0.62044 0.0
C873 C 0.78954 0.65656 0.6099 0.0
C874 C 0.74526 0.69496 0.61841 0.0
C875 C 0.75616 0.7278 0.60514 0.0
C876 C 0.78344 0.72411 0.59346 0.0
C877 C 0.79996 0.68866 0.59616 0.0
C878 C 0.71664 0.69763 0.63158 0.0
C879 C 0.79559 0.75813 0.57877 0.0
H880 H 0.68354 0.81842 0.58054 0.0
H881 H 0.73668 0.85159 0.64031 0.0
H882 H 0.72971 0.74062 0.5593 0.0
H883 H 0.70177 0.71891 0.57728 0.0
H884 H 0.69311 0.76024 0.55778 0.0
H885 H 0.77392 0.81142 0.65511 0.0
H886 H 0.7658 0.75871 0.65225 0.0
H887 H 0.79204 0.78131 0.63295 0.0
H888 H 0.75355 0.63523 0.63109 0.0
H889 H 0.82116 0.68632 0.5878 0.0
H890 H 0.69902 0.70723 0.61933 0.0
H891 H 0.71828 0.7206 0.64584 0.0
H892 H 0.71032 0.6686 0.63983 0.0
H893 H 0.7788 0.76972 0.56633 0.0
H894 H 0.815 0.74882 0.56834 0.0
H895 H 0.80194 0.78326 0.59066 0.0
C896 C 0.23288 0.33358 0.62248 0.0
C897 C 0.20691 0.33869 0.60961 0.0
C898 C 0.2496 0.29856 0.62041 0.0
C899 C 0.24059 0.26778 0.60469 0.0
C900 C 0.21482 0.27309 0.59106 0.0
C901 C 0.19804 0.30834 0.59389 0.0
C902 C 0.27641 0.29399 0.63579 0.0
C903 C 0.20481 0.24132 0.57375 0.0
C904 C 0.29956 0.18918 0.59288 0.0
C905 C 0.29189 0.15914 0.60922 0.0
C906 C 0.28213 0.22381 0.59012 0.0
C907 C 0.25691 0.22889 0.60444 0.0
C908 C 0.24895 0.19826 0.62064 0.0
C909 C 0.2663 0.16378 0.62263 0.0
C910 C 0.29104 0.25538 0.57229 0.0
C911 C 0.22278 0.20264 0.63675 0.0
H912 H 0.23991 0.35673 0.63477 0.0
H913 H 0.17817 0.31222 0.58374 0.0
H914 H 0.27361 0.26813 0.64804 0.0
H915 H 0.29572 0.28765 0.62455 0.0
H916 H 0.28092 0.32122 0.64661 0.0
H917 H 0.18609 0.25156 0.56279 0.0
H918 H 0.22294 0.23271 0.56172 0.0
H919 H 0.19823 0.21395 0.58363 0.0
H920 H 0.31911 0.18564 0.58229 0.0
H921 H 0.26016 0.14082 0.63536 0.0
H922 H 0.29841 0.28275 0.58181 0.0
H923 H 0.27218 0.26405 0.56107 0.0
H924 H 0.30896 0.24492 0.56055 0.0
H925 H 0.22616 0.22828 0.64907 0.0
H926 H 0.2187 0.17524 0.64753 0.0
H927 H 0.20303 0.20923 0.6261 0.0
C928 C 0.70868 0.18544 0.89646 0.0
C929 C 0.71809 0.15206 0.88331 0.0
C930 C 0.72651 0.21975 0.89886 0.0
C931 C 0.75413 0.22092 0.88752 0.0
C932 C 0.76402 0.18672 0.87495 0.0
C933 C 0.74605 0.1528 0.87317 0.0
C934 C 0.71536 0.25529 0.91279 0.0
C935 C 0.79297 0.18669 0.86218 0.0
C936 C 0.78241 0.32119 0.86512 0.0
C937 C 0.80542 0.32941 0.88082 0.0
C938 C 0.76552 0.28635 0.86733 0.0
C939 C 0.77118 0.25915 0.88614 0.0
C940 C 0.79414 0.26749 0.90237 0.0
C941 C 0.81131 0.30232 0.89932 0.0
C942 C 0.74194 0.2783 0.84916 0.0
C943 C 0.80045 0.2397 0.92295 0.0
H944 H 0.68725 0.18506 0.90452 0.0
H945 H 0.75368 0.12719 0.86302 0.0
H946 H 0.73235 0.26637 0.92522 0.0
H947 H 0.71011 0.28018 0.90039 0.0
H948 H 0.69548 0.24785 0.92315 0.0
H949 H 0.79846 0.15676 0.85468 0.0
H950 H 0.7924 0.20877 0.84738 0.0
H951 H 0.81065 0.19594 0.87445 0.0
H952 H 0.77782 0.34189 0.85068 0.0
H953 H 0.82885 0.30878 0.91165 0.0
H954 H 0.72057 0.27522 0.85816 0.0
H955 H 0.74639 0.24957 0.83983 0.0
H956 H 0.74027 0.30254 0.83564 0.0
H957 H 0.78043 0.2351 0.93366 0.0
H958 H 0.81787 0.25149 0.93476 0.0
H959 H 0.80723 0.20986 0.91615 0.0
C960 C 0.24155 0.66933 0.86859 0.0
C961 C 0.21604 0.6627 0.88181 0.0
C962 C 0.25751 0.705 0.8708 0.0
C963 C 0.24822 0.73485 0.88704 0.0
C964 C 0.22308 0.72784 0.90116 0.0
C965 C 0.20704 0.692 0.89817 0.0
C966 C 0.28367 0.7114 0.85492 0.0
C967 C 0.21282 0.75854 0.91904 0.0
C968 C 0.30485 0.81693 0.89817 0.0
C969 C 0.29562 0.84676 0.88223 0.0
C970 C 0.28876 0.78111 0.901 0.0
C971 C 0.26327 0.7747 0.8872 0.0
C972 C 0.25369 0.80513 0.87146 0.0
C973 C 0.26977 0.84073 0.86936 0.0
C974 C 0.29936 0.74976 0.91835 0.0
C975 C 0.2271 0.79943 0.85595 0.0
H976 H 0.24869 0.64698 0.85582 0.0
H977 H 0.18753 0.68696 0.90859 0.0
H978 H 0.27961 0.73716 0.84282 0.0
H979 H 0.30309 0.71885 0.86578 0.0
H980 H 0.28872 0.68458 0.8439 0.0
H981 H 0.19511 0.74674 0.93056 0.0
H982 H 0.23119 0.76827 0.93051 0.0
H983 H 0.20466 0.78553 0.90959 0.0
H984 H 0.32463 0.8215 0.90834 0.0
H985 H 0.26239 0.86351 0.85696 0.0
H986 H 0.3073 0.72311 0.90843 0.0
H987 H 0.28122 0.73964 0.92994 0.0
H988 H 0.31733 0.76111 0.92976 0.0
H989 H 0.23082 0.77419 0.8434 0.0
H990 H 0.22177 0.82671 0.84544 0.0
H991 H 0.20797 0.79152 0.86704 0.0
C992 C 0.32341 0.01074 0.29828 0.0
C993 C 0.34153 0.04252 0.30509 0.0
C994 C 0.32273 0.99743 0.27457 0.0
C995 C 0.3411 0.01583 0.2575 0.0
C996 C 0.36001 0.04724 0.26446 0.0
C997 C 0.35977 0.0605 0.28817 0.0
C998 C 0.30202 0.96419 0.2677 0.0
C999 C 0.3804 0.06689 0.24688 0.0
C1000 C 0.35651 0.95588 0.20154 0.0
C1001 C 0.33768 0.974 0.1851 0.0
C1002 C 0.35835 0.96983 0.22504 0.0
C1003 C 0.3405 0.00217 0.23234 0.0
C1004 C 0.32167 0.0209 0.21572 0.0
C1005 C 0.3207 0.00681 0.19216 0.0
C1006 C 0.37917 0.94971 0.24211 0.0
C1007 C 0.30207 0.05518 0.22298 0.0
H1008 H 0.30919 0.99697 0.31134 0.0
H1009 H 0.37396 0.08492 0.29348 0.0
H1010 H 0.28694 0.97492 0.25362 0.0
H1011 H 0.31431 0.93846 0.26021 0.0
H1012 H 0.28895 0.95338 0.28306 0.0
H1013 H 0.39443 0.08999 0.25537 0.0
H1014 H 0.39456 0.0439 0.23848 0.0
H1015 H 0.36772 0.08133 0.2324 0.0
H1016 H 0.36987 0.9307 0.19603 0.0
H1017 H 0.30608 0.02075 0.17946 0.0
H1018 H 0.36685 0.93552 0.25687 0.0
H1019 H 0.39391 0.97234 0.25018 0.0
H1020 H 0.39259 0.9263 0.23328 0.0
H1021 H 0.28711 0.04516 0.23732 0.0
H1022 H 0.28887 0.06666 0.20785 0.0
H1023 H 0.31522 0.08025 0.23026 0.0
C1024 C 0.65615 0.05923 0.20331 0.0
C1025 C 0.66717 0.0345 0.18521 0.0
C1026 C 0.65561 0.0463 0.22705 0.0
C1027 C 0.66652 0.00781 0.23282 0.0
C1028 C 0.67734 0.98247 0.21459 0.0
C1029 C 0.67745 0.9961 0.19093 0.0
C1030 C 0.64358 0.07395 0.24598 0.0
C1031 C 0.68924 0.94126 0.22014 0.0
C1032 C 0.69129 0.99043 0.29649 0.0
C1033 C 0.66833 0.96741 0.30548 0.0
C1034 C 0.69113 0.00344 0.27272 0.0
C1035 C 0.66696 0.99429 0.25801 0.0
C1036 C 0.64326 0.97218 0.26735 0.0
C1037 C 0.64447 0.95838 0.29092 0.0
C1038 C 0.71707 0.0262 0.2632 0.0
C1039 C 0.61672 0.96298 0.25243 0.0
H1040 H 0.64807 0.08891 0.19895 0.0
H1041 H 0.68596 0.9769 0.17698 0.0
H1042 H 0.62585 0.05871 0.2559 0.0
H1043 H 0.66086 0.08143 0.25906 0.0
H1044 H 0.63495 0.10236 0.2384 0.0
H1045 H 0.69673 0.92522 0.20391 0.0
H1046 H 0.7078 0.94385 0.2327 0.0
H1047 H 0.67232 0.9228 0.22902 0.0
H1048 H 0.70982 0.99701 0.3078 0.0
H1049 H 0.62664 0.94078 0.29806 0.0
H1050 H 0.71016 0.05612 0.25664 0.0
H1051 H 0.72658 0.00981 0.24784 0.0
H1052 H 0.73426 0.03041 0.2769 0.0
H1053 H 0.60731 0.99122 0.24531 0.0
H1054 H 0.59965 0.94695 0.26272 0.0
H1055 H 0.62296 0.9442 0.23693 0.0
C1056 C 0.68016 0.99641 0.79811 0.0
C1057 C 0.66541 0.03066 0.80607 0.0
C1058 C 0.67888 0.98478 0.77412 0.0
C1059 C 0.66198 0.00754 0.7579 0.0
C1060 C 0.64621 0.04134 0.76605 0.0
C1061 C 0.64835 0.05274 0.79004 0.0
C1062 C 0.69628 0.94881 0.76599 0.0
C1063 C 0.62745 0.06577 0.74938 0.0
C1064 C 0.68274 0.00167 0.69259 0.0
C1065 C 0.66363 0.97206 0.6843 0.0
C1066 C 0.68222 0.01384 0.71651 0.0
C1067 C 0.66162 0.99663 0.73226 0.0
C1068 C 0.64146 0.96794 0.72368 0.0
C1069 C 0.64295 0.95562 0.69982 0.0
C1070 C 0.70435 0.04409 0.72511 0.0
C1071 C 0.6187 0.94974 0.73981 0.0
H1072 H 0.69341 0.97936 0.81048 0.0
H1073 H 0.63672 0.07907 0.79624 0.0
H1074 H 0.68172 0.92641 0.75752 0.0
H1075 H 0.7124 0.95821 0.75237 0.0
H1076 H 0.70804 0.93407 0.78091 0.0
H1077 H 0.61512 0.08959 0.75887 0.0
H1078 H 0.64124 0.08013 0.73559 0.0
H1079 H 0.61176 0.04596 0.74 0.0
H1080 H 0.69881 0.01427 0.68059 0.0
H1081 H 0.62797 0.93296 0.69333 0.0
H1082 H 0.71829 0.03029 0.73903 0.0
H1083 H 0.69321 0.07016 0.73335 0.0
H1084 H 0.71853 0.05514 0.71048 0.0
H1085 H 0.62941 0.93163 0.75389 0.0
H1086 H 0.60329 0.93013 0.72994 0.0
H1087 H 0.60614 0.97377 0.74886 0.0
C1088 C 0.32429 0.00644 0.79801 0.0
C1089 C 0.34189 0.97518 0.8064 0.0
C1090 C 0.32507 0.01793 0.77398 0.0
C1091 C 0.34438 0.99818 0.75817 0.0
C1092 C 0.36297 0.96758 0.76677 0.0
C1093 C 0.36128 0.95615 0.79078 0.0
C1094 C 0.30467 0.05039 0.76536 0.0
C1095 C 0.38431 0.94654 0.75056 0.0
C1096 C 0.32528 0.99983 0.6924 0.0
C1097 C 0.34188 0.03235 0.68434 0.0
C1098 C 0.32613 0.98808 0.71639 0.0
C1099 C 0.34448 0.00888 0.73249 0.0
C1100 C 0.36216 0.04072 0.7242 0.0
C1101 C 0.36042 0.05236 0.70024 0.0
C1102 C 0.30672 0.95426 0.72467 0.0
C1103 C 0.38249 0.06296 0.74072 0.0
H1104 H 0.30921 0.02108 0.81007 0.0
H1105 H 0.3751 0.93216 0.79731 0.0
H1106 H 0.31722 0.07512 0.75703 0.0
H1107 H 0.28994 0.03804 0.7515 0.0
H1108 H 0.29122 0.06304 0.78 0.0
H1109 H 0.39847 0.92515 0.76038 0.0
H1110 H 0.37236 0.92978 0.73656 0.0
H1111 H 0.3983 0.96888 0.74141 0.0
H1112 H 0.31088 0.98442 0.68013 0.0
H1113 H 0.37348 0.07732 0.69396 0.0
H1114 H 0.29118 0.96561 0.73823 0.0
H1115 H 0.31991 0.93043 0.73326 0.0
H1116 H 0.29414 0.94068 0.7098 0.0
H1117 H 0.36973 0.07906 0.75451 0.0
H1118 H 0.39622 0.08512 0.73111 0.0
H1119 H 0.39693 0.04145 0.75012 0.0
C1120 C 0.85877 0.45177 0.20251 0.0
C1121 C 0.83891 0.46987 0.1869 0.0
C1122 C 0.86033 0.46348 0.22647 0.0
C1123 C 0.84113 0.49338 0.23504 0.0
C1124 C 0.82118 0.51198 0.21927 0.0
C1125 C 0.82053 0.50028 0.19526 0.0
C1126 C 0.88238 0.44372 0.24262 0.0
C1127 C 0.80013 0.54366 0.22787 0.0
C1128 C 0.82464 0.49703 0.30128 0.0
C1129 C 0.84112 0.53027 0.30842 0.0
C1130 C 0.82458 0.48445 0.27741 0.0
C1131 C 0.84185 0.50522 0.26052 0.0
C1132 C 0.85931 0.53793 0.26786 0.0
C1133 C 0.85853 0.55028 0.29171 0.0
C1134 C 0.80545 0.44968 0.27013 0.0
C1135 C 0.87847 0.56025 0.25046 0.0
H1136 H 0.87316 0.42843 0.19599 0.0
H1137 H 0.80507 0.51413 0.18321 0.0
H1138 H 0.89642 0.46684 0.25102 0.0
H1139 H 0.87107 0.42755 0.25721 0.0
H1140 H 0.89646 0.42206 0.23294 0.0
H1141 H 0.78585 0.55492 0.21336 0.0
H1142 H 0.78625 0.53118 0.24225 0.0
H1143 H 0.81225 0.56941 0.23552 0.0
H1144 H 0.81111 0.48163 0.31419 0.0
H1145 H 0.8715 0.57583 0.29725 0.0
H1146 H 0.81874 0.42591 0.26159 0.0
H1147 H 0.78925 0.45992 0.25678 0.0
H1148 H 0.79366 0.43639 0.2855 0.0
H1149 H 0.89315 0.53895 0.24115 0.0
H1150 H 0.89193 0.58359 0.25932 0.0
H1151 H 0.86484 0.57494 0.23667 0.0
C1152 C 0.14354 0.47753 0.29333 0.0
C1153 C 0.17037 0.47719 0.30506 0.0
C1154 C 0.14171 0.48877 0.26928 0.0
C1155 C 0.16751 0.49834 0.25669 0.0
C1156 C 0.19473 0.49726 0.26853 0.0
C1157 C 0.19576 0.48733 0.29278 0.0
C1158 C 0.11223 0.49075 0.25744 0.0
C1159 C 0.22275 0.50641 0.25555 0.0
C1160 C 0.16836 0.49525 0.18902 0.0
C1161 C 0.16605 0.53611 0.18348 0.0
C1162 C 0.16815 0.4823 0.21284 0.0
C1163 C 0.16603 0.51103 0.23138 0.0
C1164 C 0.16346 0.55227 0.2258 0.0
C1165 C 0.1633 0.56427 0.2019 0.0
C1166 C 0.17062 0.43802 0.21819 0.0
C1167 C 0.16141 0.58382 0.24508 0.0
H1168 H 0.12399 0.46957 0.30308 0.0
H1169 H 0.21649 0.4864 0.30201 0.0
H1170 H 0.10825 0.52156 0.25065 0.0
H1171 H 0.11162 0.47021 0.24189 0.0
H1172 H 0.0943 0.48258 0.2698 0.0
H1173 H 0.24217 0.50265 0.26714 0.0
H1174 H 0.22505 0.48633 0.23988 0.0
H1175 H 0.22235 0.5377 0.2488 0.0
H1176 H 0.1703 0.47345 0.17477 0.0
H1177 H 0.16163 0.59595 0.19768 0.0
H1178 H 0.15205 0.42819 0.2294 0.0
H1179 H 0.19081 0.43217 0.22847 0.0
H1180 H 0.17102 0.41947 0.20174 0.0
H1181 H 0.14284 0.57716 0.25708 0.0
H1182 H 0.15857 0.61452 0.2377 0.0
H1183 H 0.18145 0.58341 0.25611 0.0
C1184 C 0.15121 0.55492 0.78928 0.0
C1185 C 0.17045 0.53554 0.80488 0.0
C1186 C 0.14872 0.5427 0.76546 0.0
C1187 C 0.16634 0.5109 0.75702 0.0
C1188 C 0.18566 0.49105 0.77276 0.0
C1189 C 0.18726 0.50337 0.79662 0.0
C1190 C 0.12739 0.56392 0.74931 0.0
C1191 C 0.20505 0.45732 0.7643 0.0
C1192 C 0.14647 0.45385 0.7009 0.0
C1193 C 0.16477 0.47189 0.68405 0.0
C1194 C 0.14608 0.46711 0.7246 0.0
C1195 C 0.16488 0.49859 0.73163 0.0
C1196 C 0.18303 0.51741 0.71456 0.0
C1197 C 0.18252 0.50406 0.69085 0.0
C1198 C 0.12595 0.44696 0.74219 0.0
C1199 C 0.20362 0.55077 0.72149 0.0
H1200 H 0.13801 0.57963 0.79572 0.0
H1201 H 0.20221 0.48845 0.80866 0.0
H1202 H 0.13922 0.5788 0.73452 0.0
H1203 H 0.11226 0.54184 0.7412 0.0
H1204 H 0.11441 0.58693 0.75893 0.0
H1205 H 0.21897 0.44516 0.77879 0.0
H1206 H 0.19165 0.43252 0.75698 0.0
H1207 H 0.21931 0.46815 0.74969 0.0
H1208 H 0.13252 0.42916 0.69559 0.0
H1209 H 0.19674 0.51795 0.67782 0.0
H1210 H 0.11242 0.46975 0.75143 0.0
H1211 H 0.1389 0.43123 0.75602 0.0
H1212 H 0.11131 0.42481 0.73351 0.0
H1213 H 0.19141 0.57573 0.72993 0.0
H1214 H 0.21583 0.56279 0.70597 0.0
H1215 H 0.21947 0.53953 0.73484 0.0
C1216 C 0.85703 0.55246 0.70349 0.0
C1217 C 0.83819 0.53245 0.68785 0.0
C1218 C 0.86012 0.53976 0.72719 0.0
C1219 C 0.84346 0.50686 0.73547 0.0
C1220 C 0.82449 0.48647 0.71968 0.0
C1221 C 0.82234 0.49926 0.69594 0.0
C1222 C 0.88108 0.56158 0.74337 0.0
C1223 C 0.80606 0.45162 0.72797 0.0
C1224 C 0.86483 0.44903 0.79096 0.0
C1225 C 0.84615 0.46575 0.80801 0.0
C1226 C 0.86494 0.46313 0.76742 0.0
C1227 C 0.84543 0.49404 0.76075 0.0
C1228 C 0.82691 0.51153 0.77804 0.0
C1229 C 0.82773 0.49744 0.80158 0.0
C1230 C 0.88549 0.44443 0.74959 0.0
C1231 C 0.80553 0.54417 0.77149 0.0
H1232 H 0.86951 0.57794 0.69717 0.0
H1233 H 0.8077 0.48386 0.68386 0.0
H1234 H 0.86906 0.57551 0.75838 0.0
H1235 H 0.89685 0.54003 0.75117 0.0
H1236 H 0.89336 0.58543 0.73386 0.0
H1237 H 0.79226 0.4392 0.71347 0.0
H1238 H 0.82017 0.42727 0.73492 0.0
H1239 H 0.79173 0.46137 0.7428 0.0
H1240 H 0.87929 0.42474 0.79599 0.0
H1241 H 0.81322 0.5103 0.81476 0.0
H1242 H 0.89831 0.46809 0.74045 0.0
H1243 H 0.87288 0.42829 0.73572 0.0
H1244 H 0.90079 0.42289 0.75806 0.0
H1245 H 0.8171 0.56984 0.76322 0.0
H1246 H 0.79317 0.55529 0.78717 0.0
H1247 H 0.78983 0.53257 0.75813 0.0
loop_
_geom_bond_atom_site_label_1
_geom_bond_atom_site_label_2
_geom_bond_distance
_geom_bond_site_symmetry_2
_ccdc_geom_bond_type
Co0 O1 2.216 . S
Co0 O2 2.091 . S
Co0 O4 2.004 . S
Co0 O10 2.021 . S
Co0 O12 2.137 . S
Co0 O13 2.263 . S
O1 Co0 2.216 . S
O1 C8 1.247 . S
O2 Co0 2.091 . S
O2 C8 1.261 . S
C3 O12 1.247 . S
C3 O13 1.280 . S
O4 Co0 2.004 . S
O4 C9 1.259 . S
Co5 O6 2.061 . S
Co5 O11 2.052 . S
Co5 O13 2.121 1_565 S
O6 Co5 2.061 . S
O6 C9 1.235 1_565 S
C7 O10 1.238 . S
C7 O11 1.241 1_545 S
C8 O1 1.247 . S
C8 O2 1.261 . S
C9 O4 1.259 . S
C9 O6 1.235 1_545 S
O10 Co0 2.021 . S
O10 C7 1.238 . S
O11 Co5 2.052 . S
O11 C7 1.241 1_565 S
O12 Co0 2.137 . S
O12 C3 1.247 . S
O13 Co0 2.263 . S
O13 C3 1.280 . S
O13 Co5 2.121 1_545 S
Co14 O15 2.216 . S
Co14 O16 2.091 . S
Co14 O18 2.004 . S
Co14 O24 2.021 . S
Co14 O26 2.137 . S
Co14 O27 2.265 . S
O15 Co14 2.216 . S
O15 C22 1.247 . S
O16 Co14 2.091 . S
O16 C22 1.261 . S
C17 O26 1.247 . S
C17 O27 1.282 . S
O18 Co14 2.004 . S
O18 C23 1.259 . S
Co19 O20 2.061 . S
Co19 O25 2.052 . S
Co19 O27 2.119 1_545 S
O20 Co19 2.061 . S
O20 C23 1.235 1_545 S
C21 O24 1.238 . S
C21 O25 1.241 1_565 S
C22 O15 1.247 . S
C22 O16 1.261 . S
C23 O18 1.259 . S
C23 O20 1.235 1_565 S
O24 Co14 2.021 . S
O24 C21 1.238 . S
O25 Co19 2.052 . S
O25 C21 1.241 1_545 S
O26 Co14 2.137 . S
O26 C17 1.247 . S
O27 Co14 2.265 . S
O27 C17 1.282 . S
O27 Co19 2.119 1_565 S
Co28 O29 2.216 . S
Co28 O30 2.091 . S
Co28 O32 2.004 . S
Co28 O38 2.021 . S
Co28 O40 2.137 . S
Co28 O41 2.263 . S
O29 Co28 2.216 . S
O29 C36 1.247 . S
O30 Co28 2.091 . S
O30 C36 1.261 . S
C31 O40 1.247 . S
C31 O41 1.280 . S
O32 Co28 2.004 . S
O32 C37 1.259 . S
Co33 O34 2.061 . S
Co33 O39 2.052 . S
Co33 O41 2.121 1_545 S
O34 Co33 2.061 . S
O34 C37 1.235 1_545 S
C35 O38 1.238 . S
C35 O39 1.241 1_565 S
C36 O29 1.247 . S
C36 O30 1.261 . S
C37 O32 1.259 . S
C37 O34 1.235 1_565 S
O38 Co28 2.021 . S
O38 C35 1.238 . S
O39 Co33 2.052 . S
O39 C35 1.241 1_545 S
O40 Co28 2.137 . S
O40 C31 1.247 . S
O41 Co28 2.263 . S
O41 C31 1.280 . S
O41 Co33 2.121 1_565 S
Co42 O43 2.216 . S
Co42 O44 2.091 . S
Co42 O46 2.004 . S
Co42 O52 2.021 . S
Co42 O54 2.137 . S
Co42 O55 2.265 . S
O43 Co42 2.216 . S
O43 C50 1.247 . S
O44 Co42 2.091 . S
O44 C50 1.261 . S
C45 O54 1.247 . S
C45 O55 1.282 . S
O46 Co42 2.004 . S
O46 C51 1.259 . S
Co47 O48 2.061 . S
Co47 O53 2.052 . S
Co47 O55 2.119 1_565 S
O48 Co47 2.061 . S
O48 C51 1.235 1_565 S
C49 O52 1.238 . S
C49 O53 1.241 1_545 S
C50 O43 1.247 . S
C50 O44 1.261 . S
C51 O46 1.259 . S
C51 O48 1.235 1_545 S
O52 Co42 2.021 . S
O52 C49 1.238 . S
O53 Co47 2.052 . S
O53 C49 1.241 1_565 S
O54 Co42 2.137 . S
O54 C45 1.247 . S
O55 Co42 2.265 . S
O55 C45 1.282 . S
O55 Co47 2.119 1_545 S
Co56 O57 2.216 . S
Co56 O58 2.091 . S
Co56 O60 2.004 . S
Co56 O66 2.021 . S
Co56 O68 2.137 . S
Co56 O69 2.263 . S
O57 Co56 2.216 . S
O57 C64 1.247 . S
O58 Co56 2.091 . S
O58 C64 1.261 . S
C59 O68 1.247 . S
C59 O69 1.280 . S
O60 Co56 2.004 . S
O60 C65 1.259 . S
Co61 O62 2.061 . S
Co61 O67 2.052 . S
Co61 O69 2.121 1_545 S
O62 Co61 2.061 . S
O62 C65 1.235 1_545 S
C63 O66 1.238 . S
C63 O67 1.241 1_565 S
C64 O57 1.247 . S
C64 O58 1.261 . S
C65 O60 1.259 . S
C65 O62 1.235 1_565 S
O66 Co56 2.021 . S
O66 C63 1.238 . S
O67 Co61 2.052 . S
O67 C63 1.241 1_545 S
O68 Co56 2.137 . S
O68 C59 1.247 . S
O69 Co56 2.263 . S
O69 C59 1.280 . S
O69 Co61 2.121 1_565 S
Co70 O71 2.216 . S
Co70 O72 2.091 . S
Co70 O74 2.004 . S
Co70 O80 2.021 . S
Co70 O82 2.137 . S
Co70 O83 2.265 . S
O71 Co70 2.216 . S
O71 C78 1.247 . S
O72 Co70 2.091 . S
O72 C78 1.261 . S
C73 O82 1.247 . S
C73 O83 1.282 . S
O74 Co70 2.004 . S
O74 C79 1.259 . S
Co75 O76 2.061 . S
Co75 O81 2.052 . S
Co75 O83 2.119 1_565 S
O76 Co75 2.061 . S
O76 C79 1.235 1_565 S
C77 O80 1.238 . S
C77 O81 1.241 1_545 S
C78 O71 1.247 . S
C78 O72 1.261 . S
C79 O74 1.259 . S
C79 O76 1.235 1_545 S
O80 Co70 2.021 . S
O80 C77 1.238 . S
O81 Co75 2.052 . S
O81 C77 1.241 1_565 S
O82 Co70 2.137 . S
O82 C73 1.247 . S
O83 Co70 2.265 . S
O83 C73 1.282 . S
O83 Co75 2.119 1_545 S
Co84 O85 2.216 . S
Co84 O86 2.091 . S
Co84 O88 2.004 . S
Co84 O94 2.021 . S
Co84 O96 2.137 . S
Co84 O97 2.263 . S
O85 Co84 2.216 . S
O85 C92 1.247 . S
O86 Co84 2.091 . S
O86 C92 1.261 . S
C87 O96 1.247 . S
C87 O97 1.280 . S
O88 Co84 2.004 . S
O88 C93 1.259 . S
Co89 O90 2.061 . S
Co89 O95 2.052 . S
Co89 O97 2.121 1_565 S
O90 Co89 2.061 . S
O90 C93 1.235 1_565 S
C91 O94 1.238 . S
C91 O95 1.241 1_545 S
C92 O85 1.247 . S
C92 O86 1.261 . S
C93 O88 1.259 . S
C93 O90 1.235 1_545 S
O94 Co84 2.021 . S
O94 C91 1.238 . S
O95 Co89 2.052 . S
O95 C91 1.241 1_565 S
O96 Co84 2.137 . S
O96 C87 1.247 . S
O97 Co84 2.263 . S
O97 C87 1.280 . S
O97 Co89 2.121 1_545 S
Co98 O99 2.216 . S
Co98 O100 2.091 . S
Co98 O102 2.004 . S
Co98 O108 2.021 . S
Co98 O110 2.137 . S
Co98 O111 2.265 . S
O99 Co98 2.216 . S
O99 C106 1.247 . S
O100 Co98 2.091 . S
O100 C106 1.261 . S
C101 O110 1.247 . S
C101 O111 1.282 . S
O102 Co98 2.004 . S
O102 C107 1.259 . S
Co103 O104 2.061 . S
Co103 O109 2.052 . S
Co103 O111 2.119 1_545 S
O104 Co103 2.061 . S
O104 C107 1.235 1_545 S
C105 O108 1.238 . S
C105 O109 1.241 1_565 S
C106 O99 1.247 . S
C106 O100 1.261 . S
C107 O102 1.259 . S
C107 O104 1.235 1_565 S
O108 Co98 2.021 . S
O108 C105 1.238 . S
O109 Co103 2.052 . S
O109 C105 1.241 1_545 S
O110 Co98 2.137 . S
O110 C101 1.247 . S
O111 Co98 2.265 . S
O111 C101 1.282 . S
O111 Co103 2.119 1_565 S
Co112 O113 2.216 . S
Co112 O114 2.091 . S
Co112 O116 2.004 . S
Co112 O122 2.021 . S
Co112 O124 2.137 . S
Co112 O125 2.244 . S
O113 Co112 2.216 . S
O113 C120 1.247 . S
O114 Co112 2.091 . S
O114 C120 1.261 . S
C115 O124 1.247 . S
C115 O125 1.272 . S
O116 Co112 2.004 . S
O116 C121 1.259 . S
Co117 O118 2.061 . S
Co117 O123 2.052 . S
Co117 O125 2.135 . S
O118 Co117 2.061 . S
O118 C121 1.235 . S
C119 O122 1.238 . S
C119 O123 1.241 . S
C120 O113 1.247 . S
C120 O114 1.261 . S
C121 O116 1.259 . S
C121 O118 1.235 . S
O122 Co112 2.021 . S
O122 C119 1.238 . S
O123 Co117 2.052 . S
O123 C119 1.241 . S
O124 Co112 2.137 . S
O124 C115 1.247 . S
O125 Co112 2.244 . S
O125 C115 1.272 . S
O125 Co117 2.135 . S
Co126 O127 2.216 . S
Co126 O128 2.091 . S
Co126 O130 2.004 . S
Co126 O136 2.021 . S
Co126 O138 2.137 . S
Co126 O139 2.244 . S
O127 Co126 2.216 . S
O127 C134 1.247 . S
O128 Co126 2.091 . S
O128 C134 1.261 . S
C129 O138 1.247 . S
C129 O139 1.272 . S
O130 Co126 2.004 . S
O130 C135 1.259 . S
Co131 O132 2.061 . S
Co131 O137 2.052 . S
Co131 O139 2.135 . S
O132 Co131 2.061 . S
O132 C135 1.235 . S
C133 O136 1.238 . S
C133 O137 1.241 . S
C134 O127 1.247 . S
C134 O128 1.261 . S
C135 O130 1.259 . S
C135 O132 1.235 . S
O136 Co126 2.021 . S
O136 C133 1.238 . S
O137 Co131 2.052 . S
O137 C133 1.241 . S
O138 Co126 2.137 . S
O138 C129 1.247 . S
O139 Co126 2.244 . S
O139 C129 1.272 . S
O139 Co131 2.135 . S
Co140 O141 2.216 . S
Co140 O142 2.091 . S
Co140 O144 2.004 . S
Co140 O150 2.021 . S
Co140 O152 2.137 . S
Co140 O153 2.244 . S
O141 Co140 2.216 . S
O141 C148 1.247 . S
O142 Co140 2.091 . S
O142 C148 1.261 . S
C143 O152 1.247 . S
C143 O153 1.272 . S
O144 Co140 2.004 . S
O144 C149 1.259 . S
Co145 O146 2.061 . S
Co145 O151 2.052 . S
Co145 O153 2.135 . S
O146 Co145 2.061 . S
O146 C149 1.235 . S
C147 O150 1.238 . S
C147 O151 1.241 . S
C148 O141 1.247 . S
C148 O142 1.261 . S
C149 O144 1.259 . S
C149 O146 1.235 . S
O150 Co140 2.021 . S
O150 C147 1.238 . S
O151 Co145 2.052 . S
O151 C147 1.241 . S
O152 Co140 2.137 . S
O152 C143 1.247 . S
O153 Co140 2.244 . S
O153 C143 1.272 . S
O153 Co145 2.135 . S
Co154 O155 2.216 . S
Co154 O156 2.091 . S
Co154 O158 2.004 . S
Co154 O164 2.021 . S
Co154 O166 2.137 . S
Co154 O167 2.244 . S
O155 Co154 2.216 . S
O155 C162 1.247 . S
O156 Co154 2.091 . S
O156 C162 1.261 . S
C157 O166 1.247 . S
C157 O167 1.272 . S
O158 Co154 2.004 . S
O158 C163 1.259 . S
Co159 O160 2.061 . S
Co159 O165 2.052 . S
Co159 O167 2.135 . S
O160 Co159 2.061 . S
O160 C163 1.235 . S
C161 O164 1.238 . S
C161 O165 1.241 . S
C162 O155 1.247 . S
C162 O156 1.261 . S
C163 O158 1.259 . S
C163 O160 1.235 . S
O164 Co154 2.021 . S
O164 C161 1.238 . S
O165 Co159 2.052 . S
O165 C161 1.241 . S
O166 Co154 2.137 . S
O166 C157 1.247 . S
O167 Co154 2.244 . S
O167 C157 1.272 . S
O167 Co159 2.135 . S
Co168 O169 2.216 . S
Co168 O170 2.091 . S
Co168 O172 2.004 . S
Co168 O178 2.021 . S
Co168 O180 2.137 . S
Co168 O181 2.244 . S
O169 Co168 2.216 . S
O169 C176 1.247 . S
O170 Co168 2.091 . S
O170 C176 1.261 . S
C171 O180 1.247 . S
C171 O181 1.272 . S
O172 Co168 2.004 . S
O172 C177 1.259 . S
Co173 O174 2.061 . S
Co173 O179 2.052 . S
Co173 O181 2.135 . S
O174 Co173 2.061 . S
O174 C177 1.235 . S
C175 O178 1.238 . S
C175 O179 1.241 . S
C176 O169 1.247 . S
C176 O170 1.261 . S
C177 O172 1.259 . S
C177 O174 1.235 . S
O178 Co168 2.021 . S
O178 C175 1.238 . S
O179 Co173 2.052 . S
O179 C175 1.241 . S
O180 Co168 2.137 . S
O180 C171 1.247 . S
O181 Co168 2.244 . S
O181 C171 1.272 . S
O181 Co173 2.135 . S
Co182 O183 2.216 . S
Co182 O184 2.091 . S
Co182 O186 2.004 . S
Co182 O192 2.021 . S
Co182 O194 2.137 . S
Co182 O195 2.244 . S
O183 Co182 2.216 . S
O183 C190 1.247 . S
O184 Co182 2.091 . S
O184 C190 1.261 . S
C185 O194 1.247 . S
C185 O195 1.272 . S
O186 Co182 2.004 . S
O186 C191 1.259 . S
Co187 O188 2.061 . S
Co187 O193 2.052 . S
Co187 O195 2.135 . S
O188 Co187 2.061 . S
O188 C191 1.235 . S
C189 O192 1.238 . S
C189 O193 1.241 . S
C190 O183 1.247 . S
C190 O184 1.261 . S
C191 O186 1.259 . S
C191 O188 1.235 . S
O192 Co182 2.021 . S
O192 C189 1.238 . S
O193 Co187 2.052 . S
O193 C189 1.241 . S
O194 Co182 2.137 . S
O194 C185 1.247 . S
O195 Co182 2.244 . S
O195 C185 1.272 . S
O195 Co187 2.135 . S
Co196 O197 2.216 . S
Co196 O198 2.091 . S
Co196 O200 2.004 . S
Co196 O206 2.021 . S
Co196 O208 2.137 . S
Co196 O209 2.244 . S
O197 Co196 2.216 . S
O197 C204 1.247 . S
O198 Co196 2.091 . S
O198 C204 1.261 . S
C199 O208 1.247 . S
C199 O209 1.272 . S
O200 Co196 2.004 . S
O200 C205 1.259 . S
Co201 O202 2.061 . S
Co201 O207 2.052 . S
Co201 O209 2.135 . S
O202 Co201 2.061 . S
O202 C205 1.235 . S
C203 O206 1.238 . S
C203 O207 1.241 . S
C204 O197 1.247 . S
C204 O198 1.261 . S
C205 O200 1.259 . S
C205 O202 1.235 . S
O206 Co196 2.021 . S
O206 C203 1.238 . S
O207 Co201 2.052 . S
O207 C203 1.241 . S
O208 Co196 2.137 . S
O208 C199 1.247 . S
O209 Co196 2.244 . S
O209 C199 1.272 . S
O209 Co201 2.135 . S
Co210 O211 2.216 . S
Co210 O212 2.091 . S
Co210 O214 2.004 . S
Co210 O220 2.021 . S
Co210 O222 2.137 . S
Co210 O223 2.244 . S
O211 Co210 2.216 . S
O211 C218 1.247 . S
O212 Co210 2.091 . S
O212 C218 1.261 . S
C213 O222 1.247 . S
C213 O223 1.272 . S
O214 Co210 2.004 . S
O214 C219 1.259 . S
Co215 O216 2.061 . S
Co215 O221 2.052 . S
Co215 O223 2.135 . S
O216 Co215 2.061 . S
O216 C219 1.235 . S
C217 O220 1.238 . S
C217 O221 1.241 . S
C218 O211 1.247 . S
C218 O212 1.261 . S
C219 O214 1.259 . S
C219 O216 1.235 . S
O220 Co210 2.021 . S
O220 C217 1.238 . S
O221 Co215 2.052 . S
O221 C217 1.241 . S
O222 Co210 2.137 . S
O222 C213 1.247 . S
O223 Co210 2.244 . S
O223 C213 1.272 . S
O223 Co215 2.135 . S
C224 C225 1.391 . S
C224 C226 1.394 . S
C224 H240 0.931 . S
C225 C224 1.391 . S
C225 C229 1.376 . S
C226 C224 1.394 . S
C226 C227 1.369 . S
C226 C230 1.531 . S
C227 C226 1.369 . S
C227 C228 1.410 . S
C227 C235 1.503 . S
C228 C227 1.410 . S
C228 C229 1.392 . S
C228 C231 1.511 . S
C229 C225 1.376 . S
C229 C228 1.392 . S
C229 H241 0.929 . S
C230 C226 1.531 . S
C230 H242 0.960 . S
C230 H243 0.962 . S
C230 H244 0.960 . S
C231 C228 1.511 . S
C231 H245 0.961 1_545 S
C231 H246 0.961 . S
C231 H247 0.961 . S
C232 C233 1.370 1_565 S
C232 C234 1.363 . S
C232 H248 0.931 . S
C233 C232 1.370 1_545 S
C233 C237 1.408 . S
C234 C232 1.363 . S
C234 C235 1.370 1_565 S
C234 C238 1.524 . S
C235 C227 1.503 . S
C235 C234 1.370 1_545 S
C235 C236 1.403 . S
C236 C235 1.403 . S
C236 C237 1.404 . S
C236 C239 1.539 . S
C237 C233 1.408 . S
C237 C236 1.404 . S
C237 H249 0.930 . S
C238 C234 1.524 . S
C238 H250 0.956 . S
C238 H251 0.961 . S
C238 H252 0.961 . S
C239 C236 1.539 . S
C239 H253 0.958 . S
C239 H254 0.961 . S
C239 H255 0.960 . S
H240 C224 0.931 . S
H241 C229 0.929 . S
H242 C230 0.960 . S
H243 C230 0.962 . S
H244 C230 0.960 . S
H245 C231 0.961 1_565 S
H246 C231 0.961 . S
H247 C231 0.961 . S
H248 C232 0.931 . S
H249 C237 0.930 . S
H250 C238 0.956 . S
H251 C238 0.961 . S
H252 C238 0.961 . S
H253 C239 0.958 . S
H254 C239 0.961 . S
H255 C239 0.960 . S
C256 C257 1.391 1_545 S
C256 C258 1.394 . S
C256 H272 0.931 . S
C257 C256 1.391 1_565 S
C257 C261 1.376 . S
C258 C256 1.394 . S
C258 C259 1.369 1_545 S
C258 C262 1.531 . S
C259 C258 1.369 1_565 S
C259 C260 1.410 . S
C259 C267 1.503 . S
C260 C259 1.410 . S
C260 C261 1.392 . S
C260 C263 1.511 . S
C261 C257 1.376 . S
C261 C260 1.392 . S
C261 H273 0.929 . S
C262 C258 1.531 . S
C262 H274 0.960 . S
C262 H275 0.962 . S
C262 H276 0.960 . S
C263 C260 1.511 . S
C263 H277 0.961 . S
C263 H278 0.961 . S
C263 H279 0.961 . S
C264 C265 1.370 . S
C264 C266 1.363 . S
C264 H280 0.931 . S
C265 C264 1.370 . S
C265 C269 1.408 . S
C266 C264 1.363 . S
C266 C267 1.370 . S
C266 C270 1.524 . S
C267 C259 1.503 . S
C267 C266 1.370 . S
C267 C268 1.403 . S
C268 C267 1.403 . S
C268 C269 1.404 . S
C268 C271 1.539 . S
C269 C265 1.408 . S
C269 C268 1.404 . S
C269 H281 0.930 . S
C270 C266 1.524 . S
C270 H282 0.956 1_565 S
C270 H283 0.961 . S
C270 H284 0.961 . S
C271 C268 1.539 . S
C271 H285 0.958 1_565 S
C271 H286 0.961 . S
C271 H287 0.960 . S
H272 C256 0.931 . S
H273 C261 0.929 . S
H274 C262 0.960 . S
H275 C262 0.962 . S
H276 C262 0.960 . S
H277 C263 0.961 . S
H278 C263 0.961 . S
H279 C263 0.961 . S
H280 C264 0.931 . S
H281 C269 0.930 . S
H282 C270 0.956 1_545 S
H283 C270 0.961 . S
H284 C270 0.961 . S
H285 C271 0.958 1_545 S
H286 C271 0.961 . S
H287 C271 0.960 . S
C288 C289 1.391 . S
C288 C290 1.394 . S
C288 H304 0.931 . S
C289 C288 1.391 . S
C289 C293 1.376 . S
C290 C288 1.394 . S
C290 C291 1.369 . S
C290 C294 1.531 . S
C291 C290 1.369 . S
C291 C292 1.410 . S
C291 C299 1.503 1_554 S
C292 C291 1.410 . S
C292 C293 1.392 . S
C292 C295 1.511 1_565 S
C293 C289 1.376 . S
C293 C292 1.392 . S
C293 H305 0.927 1_565 S
C294 C290 1.531 . S
C294 H306 0.960 1_554 S
C294 H307 0.962 . S
C294 H308 0.960 . S
C295 C292 1.511 1_545 S
C295 H309 0.961 . S
C295 H310 0.961 1_554 S
C295 H311 0.961 1_545 S
C296 C297 1.370 1_545 S
C296 C298 1.363 . S
C296 H312 0.931 . S
C297 C296 1.370 1_565 S
C297 C301 1.408 . S
C298 C296 1.363 . S
C298 C299 1.370 1_545 S
C298 C302 1.524 . S
C299 C291 1.503 1_556 S
C299 C298 1.370 1_565 S
C299 C300 1.403 . S
C300 C299 1.403 . S
C300 C301 1.404 . S
C300 C303 1.539 . S
C301 C297 1.408 . S
C301 C300 1.404 . S
C301 H313 0.930 . S
C302 C298 1.524 . S
C302 H314 0.956 . S
C302 H315 0.961 1_556 S
C302 H316 0.961 . S
C303 C300 1.539 . S
C303 H317 0.958 . S
C303 H318 0.961 . S
C303 H319 0.970 . S
H304 C288 0.931 . S
H305 C293 0.927 1_545 S
H306 C294 0.960 1_556 S
H307 C294 0.962 . S
H308 C294 0.960 . S
H309 C295 0.961 . S
H310 C295 0.961 1_556 S
H311 C295 0.961 1_565 S
H312 C296 0.931 . S
H313 C301 0.930 . S
H314 C302 0.956 . S
H315 C302 0.961 1_554 S
H316 C302 0.961 . S
H317 C303 0.958 . S
H318 C303 0.961 . S
H319 C303 0.970 . S
C320 C321 1.391 . S
C320 C322 1.394 . S
C320 H336 0.931 . S
C321 C320 1.391 . S
C321 C325 1.390 . S
C322 C320 1.394 . S
C322 C323 1.369 . S
C322 C326 1.531 . S
C323 C322 1.369 . S
C323 C324 1.410 . S
C323 C331 1.503 1_556 S
C324 C323 1.410 . S
C324 C325 1.394 . S
C324 C327 1.511 1_545 S
C325 C321 1.390 . S
C325 C324 1.394 . S
C325 H337 0.913 1_545 S
C326 C322 1.531 . S
C326 H338 0.960 1_556 S
C326 H339 0.962 . S
C326 H340 0.960 . S
C327 C324 1.511 1_565 S
C327 H341 0.961 . S
C327 H342 0.961 1_556 S
C327 H343 0.961 . S
C328 C329 1.370 1_565 S
C328 C330 1.363 . S
C328 H344 0.931 . S
C329 C328 1.370 1_545 S
C329 C333 1.408 . S
C330 C328 1.363 . S
C330 C331 1.370 1_565 S
C330 C334 1.525 . S
C331 C323 1.503 1_554 S
C331 C330 1.370 1_545 S
C331 C332 1.403 . S
C332 C331 1.403 . S
C332 C333 1.404 . S
C332 C335 1.539 . S
C333 C329 1.408 . S
C333 C332 1.404 . S
C333 H345 0.930 . S
C334 C330 1.525 . S
C334 H346 0.956 . S
C334 H347 0.961 1_554 S
C334 H348 0.961 . S
C335 C332 1.539 . S
C335 H349 0.958 . S
C335 H350 0.961 . S
C335 H351 0.970 . S
H336 C320 0.931 . S
H337 C325 0.913 1_565 S
H338 C326 0.960 1_554 S
H339 C326 0.962 . S
H340 C326 0.960 . S
H341 C327 0.961 . S
H342 C327 0.961 1_554 S
H343 C327 0.961 . S
H344 C328 0.931 . S
H345 C333 0.930 . S
H346 C334 0.956 . S
H347 C334 0.961 1_556 S
H348 C334 0.961 . S
H349 C335 0.958 . S
H350 C335 0.961 . S
H351 C335 0.970 . S
C352 C353 1.391 . S
C352 C354 1.394 . S
C352 H368 0.931 . S
C353 C352 1.391 . S
C353 C357 1.376 . S
C354 C352 1.394 . S
C354 C355 1.369 . S
C354 C358 1.531 . S
C355 C354 1.369 . S
C355 C356 1.410 . S
C355 C363 1.503 . S
C356 C355 1.410 . S
C356 C357 1.392 . S
C356 C359 1.511 . S
C357 C353 1.376 . S
C357 C356 1.392 . S
C357 H369 0.929 . S
C358 C354 1.531 . S
C358 H370 0.960 . S
C358 H371 0.962 . S
C358 H372 0.960 . S
C359 C356 1.511 . S
C359 H373 0.961 . S
C359 H374 0.961 . S
C359 H375 0.961 . S
C360 C361 1.370 . S
C360 C362 1.363 . S
C360 H376 0.931 . S
C361 C360 1.370 . S
C361 C365 1.408 . S
C362 C360 1.363 . S
C362 C363 1.370 . S
C362 C366 1.524 . S
C363 C355 1.503 . S
C363 C362 1.370 . S
C363 C364 1.403 . S
C364 C363 1.403 . S
C364 C365 1.404 . S
C364 C367 1.539 . S
C365 C361 1.408 . S
C365 C364 1.404 . S
C365 H377 0.930 . S
C366 C362 1.524 . S
C366 H378 0.956 . S
C366 H379 0.961 . S
C366 H380 0.961 . S
C367 C364 1.539 . S
C367 H381 0.958 . S
C367 H382 0.961 . S
C367 H383 0.960 . S
H368 C352 0.931 . S
H369 C357 0.929 . S
H370 C358 0.960 . S
H371 C358 0.962 . S
H372 C358 0.960 . S
H373 C359 0.961 . S
H374 C359 0.961 . S
H375 C359 0.961 . S
H376 C360 0.931 . S
H377 C365 0.930 . S
H378 C366 0.956 . S
H379 C366 0.961 . S
H380 C366 0.961 . S
H381 C367 0.958 . S
H382 C367 0.961 . S
H383 C367 0.960 . S
C384 C385 1.391 . S
C384 C386 1.394 . S
C384 H400 0.931 . S
C385 C384 1.391 . S
C385 C389 1.376 . S
C386 C384 1.394 . S
C386 C387 1.369 . S
C386 C390 1.531 . S
C387 C386 1.369 . S
C387 C388 1.410 . S
C387 C395 1.503 . S
C388 C387 1.410 . S
C388 C389 1.392 . S
C388 C391 1.511 . S
C389 C385 1.376 . S
C389 C388 1.392 . S
C389 H401 0.929 . S
C390 C386 1.531 . S
C390 H402 0.960 . S
C390 H403 0.962 . S
C390 H404 0.960 . S
C391 C388 1.511 . S
C391 H405 0.961 . S
C391 H406 0.961 . S
C391 H407 0.961 . S
C392 C393 1.370 . S
C392 C394 1.363 . S
C392 H408 0.931 . S
C393 C392 1.370 . S
C393 C397 1.408 . S
C394 C392 1.363 . S
C394 C395 1.370 . S
C394 C398 1.524 . S
C395 C387 1.503 . S
C395 C394 1.370 . S
C395 C396 1.403 . S
C396 C395 1.403 . S
C396 C397 1.404 . S
C396 C399 1.539 . S
C397 C393 1.408 . S
C397 C396 1.404 . S
C397 H409 0.930 . S
C398 C394 1.524 . S
C398 H410 0.956 . S
C398 H411 0.961 . S
C398 H412 0.961 . S
C399 C396 1.539 . S
C399 H413 0.958 . S
C399 H414 0.961 . S
C399 H415 0.960 . S
H400 C384 0.931 . S
H401 C389 0.929 . S
H402 C390 0.960 . S
H403 C390 0.962 . S
H404 C390 0.960 . S
H405 C391 0.961 . S
H406 C391 0.961 . S
H407 C391 0.961 . S
H408 C392 0.931 . S
H409 C397 0.930 . S
H410 C398 0.956 . S
H411 C398 0.961 . S
H412 C398 0.961 . S
H413 C399 0.958 . S
H414 C399 0.961 . S
H415 C399 0.960 . S
C416 C417 1.391 . S
C416 C418 1.394 . S
C416 H432 0.931 . S
C417 C416 1.391 . S
C417 C421 1.376 . S
C418 C416 1.394 . S
C418 C419 1.369 . S
C418 C422 1.531 . S
C419 C418 1.369 . S
C419 C420 1.410 . S
C419 C427 1.503 1_556 S
C420 C419 1.410 . S
C420 C421 1.392 . S
C420 C423 1.511 . S
C421 C417 1.376 . S
C421 C420 1.392 . S
C421 H433 0.929 . S
C422 C418 1.531 . S
C422 H434 0.960 1_556 S
C422 H435 0.962 . S
C422 H436 0.960 . S
C423 C420 1.511 . S
C423 H437 0.961 . S
C423 H438 0.961 1_556 S
C423 H439 0.961 . S
C424 C425 1.370 . S
C424 C426 1.363 . S
C424 H440 0.931 . S
C425 C424 1.370 . S
C425 C429 1.408 . S
C426 C424 1.363 . S
C426 C427 1.370 . S
C426 C430 1.524 . S
C427 C419 1.503 1_554 S
C427 C426 1.370 . S
C427 C428 1.403 . S
C428 C427 1.403 . S
C428 C429 1.404 . S
C428 C431 1.539 . S
C429 C425 1.408 . S
C429 C428 1.404 . S
C429 H441 0.930 . S
C430 C426 1.524 . S
C430 H442 0.956 . S
C430 H443 0.961 1_554 S
C430 H444 0.961 . S
C431 C428 1.539 . S
C431 H445 0.958 . S
C431 H446 0.961 . S
C431 H447 0.971 . S
H432 C416 0.931 . S
H433 C421 0.929 . S
H434 C422 0.960 1_554 S
H435 C422 0.962 . S
H436 C422 0.960 . S
H437 C423 0.961 . S
H438 C423 0.961 1_554 S
H439 C423 0.961 . S
H440 C424 0.931 . S
H441 C429 0.930 . S
H442 C430 0.956 . S
H443 C430 0.961 1_556 S
H444 C430 0.961 . S
H445 C431 0.958 . S
H446 C431 0.961 . S
H447 C431 0.971 . S
C448 C449 1.391 . S
C448 C450 1.394 . S
C448 H464 0.931 . S
C449 C448 1.391 . S
C449 C453 1.376 . S
C450 C448 1.394 . S
C450 C451 1.369 . S
C450 C454 1.531 . S
C451 C450 1.369 . S
C451 C452 1.410 . S
C451 C459 1.503 1_554 S
C452 C451 1.410 . S
C452 C453 1.392 . S
C452 C455 1.511 . S
C453 C449 1.376 . S
C453 C452 1.392 . S
C453 H465 0.929 . S
C454 C450 1.531 . S
C454 H466 0.960 1_554 S
C454 H467 0.962 . S
C454 H468 0.960 . S
C455 C452 1.511 . S
C455 H469 0.961 . S
C455 H470 0.961 1_554 S
C455 H471 0.961 . S
C456 C457 1.370 . S
C456 C458 1.363 . S
C456 H472 0.931 . S
C457 C456 1.370 . S
C457 C461 1.408 . S
C458 C456 1.363 . S
C458 C459 1.370 . S
C458 C462 1.524 . S
C459 C451 1.503 1_556 S
C459 C458 1.370 . S
C459 C460 1.403 . S
C460 C459 1.403 . S
C460 C461 1.404 . S
C460 C463 1.539 . S
C461 C457 1.408 . S
C461 C460 1.404 . S
C461 H473 0.930 . S
C462 C458 1.524 . S
C462 H474 0.956 . S
C462 H475 0.961 1_556 S
C462 H476 0.961 . S
C463 C460 1.539 . S
C463 H477 0.958 . S
C463 H478 0.961 . S
C463 H479 0.971 . S
H464 C448 0.931 . S
H465 C453 0.929 . S
H466 C454 0.960 1_556 S
H467 C454 0.962 . S
H468 C454 0.960 . S
H469 C455 0.961 . S
H470 C455 0.961 1_556 S
H471 C455 0.961 . S
H472 C456 0.931 . S
H473 C461 0.930 . S
H474 C462 0.956 . S
H475 C462 0.961 1_554 S
H476 C462 0.961 . S
H477 C463 0.958 . S
H478 C463 0.961 . S
H479 C463 0.971 . S
C480 C481 1.391 . S
C480 C482 1.394 . S
C480 H496 0.931 . S
C481 C480 1.391 . S
C481 C485 1.376 1_565 S
C482 C480 1.394 . S
C482 C483 1.369 . S
C482 C486 1.531 . S
C483 C482 1.369 . S
C483 C484 1.410 1_565 S
C483 C491 1.503 1_565 S
C484 C483 1.410 1_545 S
C484 C485 1.392 . S
C484 C487 1.511 . S
C485 C481 1.376 1_545 S
C485 C484 1.392 . S
C485 H497 0.929 . S
C486 C482 1.531 . S
C486 H498 0.960 . S
C486 H499 0.962 . S
C486 H500 0.960 . S
C487 C484 1.511 . S
C487 H501 0.961 . S
C487 H502 0.961 . S
C487 H503 0.961 . S
C488 C489 1.370 . S
C488 C490 1.363 . S
C488 H504 0.931 . S
C489 C488 1.370 . S
C489 C493 1.408 . S
C490 C488 1.363 . S
C490 C491 1.370 . S
C490 C494 1.524 1_545 S
C491 C483 1.503 1_545 S
C491 C490 1.370 . S
C491 C492 1.403 . S
C492 C491 1.403 . S
C492 C493 1.404 . S
C492 C495 1.539 . S
C493 C489 1.408 . S
C493 C492 1.404 . S
C493 H505 0.930 . S
C494 C490 1.524 1_565 S
C494 H506 0.956 . S
C494 H507 0.961 1_565 S
C494 H508 0.961 . S
C495 C492 1.539 . S
C495 H509 0.958 1_545 S
C495 H510 0.961 . S
C495 H511 0.960 . S
H496 C480 0.931 . S
H497 C485 0.929 . S
H498 C486 0.960 . S
H499 C486 0.962 . S
H500 C486 0.960 . S
H501 C487 0.961 . S
H502 C487 0.961 . S
H503 C487 0.961 . S
H504 C488 0.931 . S
H505 C493 0.930 . S
H506 C494 0.956 . S
H507 C494 0.961 1_545 S
H508 C494 0.961 . S
H509 C495 0.958 1_565 S
H510 C495 0.961 . S
H511 C495 0.960 . S
C512 C513 1.391 . S
C512 C514 1.394 . S
C512 H528 0.931 . S
C513 C512 1.391 . S
C513 C517 1.376 1_565 S
C514 C512 1.394 . S
C514 C515 1.369 . S
C514 C518 1.531 . S
C515 C514 1.369 . S
C515 C516 1.410 1_565 S
C515 C523 1.503 1_565 S
C516 C515 1.410 1_545 S
C516 C517 1.392 . S
C516 C519 1.511 . S
C517 C513 1.376 1_545 S
C517 C516 1.392 . S
C517 H529 0.929 . S
C518 C514 1.531 . S
C518 H530 0.960 . S
C518 H531 0.962 . S
C518 H532 0.960 . S
C519 C516 1.511 . S
C519 H533 0.961 . S
C519 H534 0.961 . S
C519 H535 0.961 . S
C520 C521 1.370 . S
C520 C522 1.363 . S
C520 H536 0.931 . S
C521 C520 1.370 . S
C521 C525 1.408 . S
C522 C520 1.363 . S
C522 C523 1.370 . S
C522 C526 1.524 . S
C523 C515 1.503 1_545 S
C523 C522 1.370 . S
C523 C524 1.403 . S
C524 C523 1.403 . S
C524 C525 1.404 . S
C524 C527 1.538 1_545 S
C525 C521 1.408 . S
C525 C524 1.404 . S
C525 H537 0.930 . S
C526 C522 1.524 . S
C526 H538 0.956 1_545 S
C526 H539 0.961 . S
C526 H540 0.961 . S
C527 C524 1.538 1_565 S
C527 H541 0.968 . S
C527 H542 0.956 1_565 S
C527 H543 0.957 1_565 S
H528 C512 0.931 . S
H529 C517 0.929 . S
H530 C518 0.960 . S
H531 C518 0.962 . S
H532 C518 0.960 . S
H533 C519 0.961 . S
H534 C519 0.961 . S
H535 C519 0.961 . S
H536 C520 0.931 . S
H537 C525 0.930 . S
H538 C526 0.956 1_565 S
H539 C526 0.961 . S
H540 C526 0.961 . S
H541 C527 0.968 . S
H542 C527 0.956 1_545 S
H543 C527 0.957 1_545 S
C544 C545 1.391 1_545 S
C544 C546 1.394 . S
C544 H560 0.931 . S
C545 C544 1.391 1_565 S
C545 C549 1.376 . S
C546 C544 1.394 . S
C546 C547 1.369 . S
C546 C550 1.531 . S
C547 C546 1.369 . S
C547 C548 1.410 1_545 S
C547 C555 1.503 . S
C548 C547 1.410 1_565 S
C548 C549 1.392 . S
C548 C551 1.511 . S
C549 C545 1.376 . S
C549 C548 1.392 . S
C549 H561 0.929 . S
C550 C546 1.531 . S
C550 H562 0.960 . S
C550 H563 0.962 . S
C550 H564 0.960 . S
C551 C548 1.511 . S
C551 H565 0.961 . S
C551 H566 0.961 . S
C551 H567 0.961 . S
C552 C553 1.370 1_565 S
C552 C554 1.363 . S
C552 H568 0.931 . S
C553 C552 1.370 1_545 S
C553 C557 1.408 . S
C554 C552 1.363 . S
C554 C555 1.370 1_565 S
C554 C558 1.524 . S
C555 C547 1.503 . S
C555 C554 1.370 1_545 S
C555 C556 1.403 . S
C556 C555 1.403 . S
C556 C557 1.404 . S
C556 C559 1.539 . S
C557 C553 1.408 . S
C557 C556 1.404 . S
C557 H569 0.930 . S
C558 C554 1.524 . S
C558 H570 0.956 . S
C558 H571 0.961 . S
C558 H572 0.961 . S
C559 C556 1.539 . S
C559 H573 0.958 . S
C559 H574 0.961 . S
C559 H575 0.960 . S
H560 C544 0.931 . S
H561 C549 0.929 . S
H562 C550 0.960 . S
H563 C550 0.962 . S
H564 C550 0.960 . S
H565 C551 0.961 . S
H566 C551 0.961 . S
H567 C551 0.961 . S
H568 C552 0.931 . S
H569 C557 0.930 . S
H570 C558 0.956 . S
H571 C558 0.961 . S
H572 C558 0.961 . S
H573 C559 0.958 . S
H574 C559 0.961 . S
H575 C559 0.960 . S
C576 C577 1.391 . S
C576 C578 1.394 . S
C576 H592 0.931 . S
C577 C576 1.391 . S
C577 C581 1.376 . S
C578 C576 1.394 . S
C578 C579 1.369 1_545 S
C578 C582 1.531 1_545 S
C579 C578 1.369 1_565 S
C579 C580 1.410 1_565 S
C579 C587 1.503 . S
C580 C579 1.410 1_545 S
C580 C581 1.392 . S
C580 C583 1.512 1_545 S
C581 C577 1.376 . S
C581 C580 1.392 . S
C581 H593 0.929 . S
C582 C578 1.531 1_565 S
C582 H594 0.960 . S
C582 H595 0.962 1_565 S
C582 H596 0.960 . S
C583 C580 1.512 1_565 S
C583 H597 0.961 1_565 S
C583 H598 0.965 . S
C583 H599 0.961 . S
C584 C585 1.370 1_545 S
C584 C586 1.363 . S
C584 H600 0.931 . S
C585 C584 1.370 1_565 S
C585 C589 1.408 . S
C586 C584 1.363 . S
C586 C587 1.370 1_545 S
C586 C590 1.524 . S
C587 C579 1.503 . S
C587 C586 1.370 1_565 S
C587 C588 1.403 . S
C588 C587 1.403 . S
C588 C589 1.404 . S
C588 C591 1.539 . S
C589 C585 1.408 . S
C589 C588 1.404 . S
C589 H601 0.930 . S
C590 C586 1.524 . S
C590 H602 0.956 . S
C590 H603 0.961 . S
C590 H604 0.961 . S
C591 C588 1.539 . S
C591 H605 0.958 . S
C591 H606 0.961 . S
C591 H607 0.960 . S
H592 C576 0.931 . S
H593 C581 0.929 . S
H594 C582 0.960 . S
H595 C582 0.962 1_545 S
H596 C582 0.960 . S
H597 C583 0.961 1_545 S
H598 C583 0.965 . S
H599 C583 0.961 . S
H600 C584 0.931 . S
H601 C589 0.930 . S
H602 C590 0.956 . S
H603 C590 0.961 . S
H604 C590 0.961 . S
H605 C591 0.958 . S
H606 C591 0.961 . S
H607 C591 0.960 . S
C608 C609 1.391 . S
C608 C610 1.394 . S
C608 H624 0.931 . S
C609 C608 1.391 . S
C609 C613 1.376 . S
C610 C608 1.394 . S
C610 C611 1.369 . S
C610 C614 1.531 . S
C611 C610 1.369 . S
C611 C612 1.410 . S
C611 C619 1.503 1_655 S
C612 C611 1.410 . S
C612 C613 1.392 . S
C612 C615 1.511 . S
C613 C609 1.376 . S
C613 C612 1.392 . S
C613 H625 0.929 . S
C614 C610 1.531 . S
C614 H626 0.960 . S
C614 H627 0.962 . S
C614 H628 0.960 . S
C615 C612 1.511 . S
C615 H629 0.961 . S
C615 H630 0.961 1_655 S
C615 H631 0.961 1_655 S
C616 C617 1.370 . S
C616 C618 1.363 . S
C616 H632 0.931 . S
C617 C616 1.370 . S
C617 C621 1.408 . S
C618 C616 1.363 . S
C618 C619 1.370 . S
C618 C622 1.524 . S
C619 C611 1.503 1_455 S
C619 C618 1.370 . S
C619 C620 1.403 . S
C620 C619 1.403 . S
C620 C621 1.404 . S
C620 C623 1.539 . S
C621 C617 1.408 . S
C621 C620 1.404 . S
C621 H633 0.930 . S
C622 C618 1.524 . S
C622 H634 0.956 1_455 S
C622 H635 0.961 . S
C622 H636 0.961 . S
C623 C620 1.539 . S
C623 H637 0.958 . S
C623 H638 0.961 . S
C623 H639 0.960 . S
H624 C608 0.931 . S
H625 C613 0.929 . S
H626 C614 0.960 . S
H627 C614 0.962 . S
H628 C614 0.960 . S
H629 C615 0.961 . S
H630 C615 0.961 1_455 S
H631 C615 0.961 1_455 S
H632 C616 0.931 . S
H633 C621 0.930 . S
H634 C622 0.956 1_655 S
H635 C622 0.961 . S
H636 C622 0.961 . S
H637 C623 0.958 . S
H638 C623 0.961 . S
H639 C623 0.960 . S
C640 C641 1.391 . S
C640 C642 1.394 . S
C640 H656 0.931 . S
C641 C640 1.391 . S
C641 C645 1.376 . S
C642 C640 1.394 . S
C642 C643 1.369 . S
C642 C646 1.531 . S
C643 C642 1.369 . S
C643 C644 1.410 . S
C643 C651 1.503 1_455 S
C644 C643 1.410 . S
C644 C645 1.392 . S
C644 C647 1.511 . S
C645 C641 1.376 . S
C645 C644 1.392 . S
C645 H657 0.929 . S
C646 C642 1.531 . S
C646 H658 0.960 1_455 S
C646 H659 0.954 1_455 S
C646 H660 0.960 . S
C647 C644 1.511 . S
C647 H661 0.961 . S
C647 H662 0.961 . S
C647 H663 0.961 . S
C648 C649 1.370 . S
C648 C650 1.363 . S
C648 H664 0.931 . S
C649 C648 1.370 . S
C649 C653 1.408 . S
C650 C648 1.363 . S
C650 C651 1.370 . S
C650 C654 1.524 . S
C651 C643 1.503 1_655 S
C651 C650 1.370 . S
C651 C652 1.403 . S
C652 C651 1.403 . S
C652 C653 1.404 . S
C652 C655 1.539 . S
C653 C649 1.408 . S
C653 C652 1.404 . S
C653 H665 0.930 . S
C654 C650 1.524 . S
C654 H666 0.956 . S
C654 H667 0.961 . S
C654 H668 0.961 . S
C655 C652 1.539 . S
C655 H669 0.958 . S
C655 H670 0.961 . S
C655 H671 0.960 1_655 S
H656 C640 0.931 . S
H657 C645 0.929 . S
H658 C646 0.960 1_655 S
H659 C646 0.954 1_655 S
H660 C646 0.960 . S
H661 C647 0.961 . S
H662 C647 0.961 . S
H663 C647 0.961 . S
H664 C648 0.931 . S
H665 C653 0.930 . S
H666 C654 0.956 . S
H667 C654 0.961 . S
H668 C654 0.961 . S
H669 C655 0.958 . S
H670 C655 0.961 . S
H671 C655 0.960 1_455 S
C672 C673 1.391 . S
C672 C674 1.394 . S
C672 H688 0.931 . S
C673 C672 1.391 . S
C673 C677 1.376 . S
C674 C672 1.394 . S
C674 C675 1.369 . S
C674 C678 1.531 . S
C675 C674 1.369 . S
C675 C676 1.410 . S
C675 C683 1.503 1_655 S
C676 C675 1.410 . S
C676 C677 1.392 . S
C676 C679 1.511 . S
C677 C673 1.376 . S
C677 C676 1.392 . S
C677 H689 0.929 . S
C678 C674 1.531 . S
C678 H690 0.960 1_655 S
C678 H691 0.962 . S
C678 H692 0.960 . S
C679 C676 1.511 . S
C679 H693 0.961 . S
C679 H694 0.959 . S
C679 H695 0.961 . S
C680 C681 1.370 . S
C680 C682 1.363 . S
C680 H696 0.931 . S
C681 C680 1.370 . S
C681 C685 1.408 . S
C682 C680 1.363 . S
C682 C683 1.370 . S
C682 C686 1.524 . S
C683 C675 1.503 1_455 S
C683 C682 1.370 . S
C683 C684 1.403 . S
C684 C683 1.403 . S
C684 C685 1.404 . S
C684 C687 1.539 . S
C685 C681 1.408 . S
C685 C684 1.404 . S
C685 H697 0.930 . S
C686 C682 1.524 . S
C686 H698 0.956 . S
C686 H699 0.961 . S
C686 H700 0.961 . S
C687 C684 1.539 . S
C687 H701 0.958 . S
C687 H702 0.961 . S
C687 H703 0.960 1_455 S
H688 C672 0.931 . S
H689 C677 0.929 . S
H690 C678 0.960 1_455 S
H691 C678 0.962 . S
H692 C678 0.960 . S
H693 C679 0.961 . S
H694 C679 0.959 . S
H695 C679 0.961 . S
H696 C680 0.931 . S
H697 C685 0.930 . S
H698 C686 0.956 . S
H699 C686 0.961 . S
H700 C686 0.961 . S
H701 C687 0.958 . S
H702 C687 0.961 . S
H703 C687 0.960 1_655 S
C704 C705 1.391 . S
C704 C706 1.394 . S
C704 H720 0.931 . S
C705 C704 1.391 . S
C705 C709 1.376 . S
C706 C704 1.394 . S
C706 C707 1.369 . S
C706 C710 1.531 . S
C707 C706 1.369 . S
C707 C708 1.410 . S
C707 C715 1.503 1_455 S
C708 C707 1.410 . S
C708 C709 1.392 . S
C708 C711 1.511 . S
C709 C705 1.376 . S
C709 C708 1.392 . S
C709 H721 0.929 . S
C710 C706 1.531 . S
C710 H722 0.960 . S
C710 H723 0.962 . S
C710 H724 0.960 . S
C711 C708 1.511 . S
C711 H725 0.961 . S
C711 H726 0.961 1_455 S
C711 H727 0.961 1_455 S
C712 C713 1.370 . S
C712 C714 1.363 . S
C712 H728 0.931 . S
C713 C712 1.370 . S
C713 C717 1.408 . S
C714 C712 1.363 . S
C714 C715 1.370 . S
C714 C718 1.524 . S
C715 C707 1.503 1_655 S
C715 C714 1.370 . S
C715 C716 1.403 . S
C716 C715 1.403 . S
C716 C717 1.404 . S
C716 C719 1.539 . S
C717 C713 1.408 . S
C717 C716 1.404 . S
C717 H729 0.930 . S
C718 C714 1.524 . S
C718 H730 0.956 1_655 S
C718 H731 0.970 . S
C718 H732 0.961 . S
C719 C716 1.539 . S
C719 H733 0.958 . S
C719 H734 0.961 . S
C719 H735 0.960 . S
H720 C704 0.931 . S
H721 C709 0.929 . S
H722 C710 0.960 . S
H723 C710 0.962 . S
H724 C710 0.960 . S
H725 C711 0.961 . S
H726 C711 0.961 1_655 S
H727 C711 0.961 1_655 S
H728 C712 0.931 . S
H729 C717 0.930 . S
H730 C718 0.956 1_455 S
H731 C718 0.970 . S
H732 C718 0.961 . S
H733 C719 0.958 . S
H734 C719 0.961 . S
H735 C719 0.960 . S
C736 C737 1.391 . S
C736 C738 1.394 . S
C736 H752 0.931 . S
C737 C736 1.391 . S
C737 C741 1.376 . S
C738 C736 1.394 . S
C738 C739 1.369 . S
C738 C742 1.531 . S
C739 C738 1.369 . S
C739 C740 1.410 . S
C739 C747 1.503 . S
C740 C739 1.410 . S
C740 C741 1.392 . S
C740 C743 1.511 . S
C741 C737 1.376 . S
C741 C740 1.392 . S
C741 H753 0.929 . S
C742 C738 1.531 . S
C742 H754 0.960 . S
C742 H755 0.962 . S
C742 H756 0.960 . S
C743 C740 1.511 . S
C743 H757 0.961 . S
C743 H758 0.961 . S
C743 H759 0.961 . S
C744 C745 1.370 . S
C744 C746 1.363 . S
C744 H760 0.931 . S
C745 C744 1.370 . S
C745 C749 1.408 . S
C746 C744 1.363 . S
C746 C747 1.370 . S
C746 C750 1.524 . S
C747 C739 1.503 . S
C747 C746 1.370 . S
C747 C748 1.403 . S
C748 C747 1.403 . S
C748 C749 1.404 . S
C748 C751 1.539 . S
C749 C745 1.408 . S
C749 C748 1.404 . S
C749 H761 0.930 . S
C750 C746 1.524 . S
C750 H762 0.956 . S
C750 H763 0.961 . S
C750 H764 0.961 . S
C751 C748 1.539 . S
C751 H765 0.958 . S
C751 H766 0.961 . S
C751 H767 0.960 . S
H752 C736 0.931 . S
H753 C741 0.929 . S
H754 C742 0.960 . S
H755 C742 0.962 . S
H756 C742 0.960 . S
H757 C743 0.961 . S
H758 C743 0.961 . S
H759 C743 0.961 . S
H760 C744 0.931 . S
H761 C749 0.930 . S
H762 C750 0.956 . S
H763 C750 0.961 . S
H764 C750 0.961 . S
H765 C751 0.958 . S
H766 C751 0.961 . S
H767 C751 0.960 . S
C768 C769 1.391 . S
C768 C770 1.394 . S
C768 H784 0.931 . S
C769 C768 1.391 . S
C769 C773 1.376 . S
C770 C768 1.394 . S
C770 C771 1.369 . S
C770 C774 1.531 . S
C771 C770 1.369 . S
C771 C772 1.410 . S
C771 C779 1.503 . S
C772 C771 1.410 . S
C772 C773 1.392 . S
C772 C775 1.511 . S
C773 C769 1.376 . S
C773 C772 1.392 . S
C773 H785 0.929 . S
C774 C770 1.531 . S
C774 H786 0.960 . S
C774 H787 0.962 . S
C774 H788 0.960 . S
C775 C772 1.511 . S
C775 H789 0.961 . S
C775 H790 0.961 . S
C775 H791 0.961 . S
C776 C777 1.370 . S
C776 C778 1.363 . S
C776 H792 0.931 . S
C777 C776 1.370 . S
C777 C781 1.408 . S
C778 C776 1.363 . S
C778 C779 1.370 . S
C778 C782 1.524 . S
C779 C771 1.503 . S
C779 C778 1.370 . S
C779 C780 1.403 . S
C780 C779 1.403 . S
C780 C781 1.404 . S
C780 C783 1.539 . S
C781 C777 1.408 . S
C781 C780 1.404 . S
C781 H793 0.930 . S
C782 C778 1.524 . S
C782 H794 0.956 . S
C782 H795 0.961 . S
C782 H796 0.961 . S
C783 C780 1.539 . S
C783 H797 0.958 . S
C783 H798 0.961 . S
C783 H799 0.960 . S
H784 C768 0.931 . S
H785 C773 0.929 . S
H786 C774 0.960 . S
H787 C774 0.962 . S
H788 C774 0.960 . S
H789 C775 0.961 . S
H790 C775 0.961 . S
H791 C775 0.961 . S
H792 C776 0.931 . S
H793 C781 0.930 . S
H794 C782 0.956 . S
H795 C782 0.961 . S
H796 C782 0.961 . S
H797 C783 0.958 . S
H798 C783 0.961 . S
H799 C783 0.960 . S
C800 C801 1.391 . S
C800 C802 1.394 . S
C800 H816 0.931 . S
C801 C800 1.391 . S
C801 C805 1.376 . S
C802 C800 1.394 . S
C802 C803 1.369 . S
C802 C806 1.531 . S
C803 C802 1.369 . S
C803 C804 1.410 . S
C803 C811 1.503 . S
C804 C803 1.410 . S
C804 C805 1.392 . S
C804 C807 1.511 . S
C805 C801 1.376 . S
C805 C804 1.392 . S
C805 H817 0.929 . S
C806 C802 1.531 . S
C806 H818 0.960 . S
C806 H819 0.962 . S
C806 H820 0.960 . S
C807 C804 1.511 . S
C807 H821 0.961 . S
C807 H822 0.961 . S
C807 H823 0.961 . S
C808 C809 1.370 . S
C808 C810 1.363 . S
C808 H824 0.931 . S
C809 C808 1.370 . S
C809 C813 1.408 . S
C810 C808 1.363 . S
C810 C811 1.370 . S
C810 C814 1.524 . S
C811 C803 1.503 . S
C811 C810 1.370 . S
C811 C812 1.403 . S
C812 C811 1.403 . S
C812 C813 1.404 . S
C812 C815 1.539 . S
C813 C809 1.408 . S
C813 C812 1.404 . S
C813 H825 0.930 . S
C814 C810 1.524 . S
C814 H826 0.956 . S
C814 H827 0.961 . S
C814 H828 0.961 . S
C815 C812 1.539 . S
C815 H829 0.958 . S
C815 H830 0.961 . S
C815 H831 0.960 . S
H816 C800 0.931 . S
H817 C805 0.929 . S
H818 C806 0.960 . S
H819 C806 0.962 . S
H820 C806 0.960 . S
H821 C807 0.961 . S
H822 C807 0.961 . S
H823 C807 0.961 . S
H824 C808 0.931 . S
H825 C813 0.930 . S
H826 C814 0.956 . S
H827 C814 0.961 . S
H828 C814 0.961 . S
H829 C815 0.958 . S
H830 C815 0.961 . S
H831 C815 0.960 . S
C832 C833 1.391 . S
C832 C834 1.394 . S
C832 H848 0.931 . S
C833 C832 1.391 . S
C833 C837 1.376 . S
C834 C832 1.394 . S
C834 C835 1.369 . S
C834 C838 1.531 . S
C835 C834 1.369 . S
C835 C836 1.410 . S
C835 C843 1.503 . S
C836 C835 1.410 . S
C836 C837 1.392 . S
C836 C839 1.511 . S
C837 C833 1.376 . S
C837 C836 1.392 . S
C837 H849 0.929 . S
C838 C834 1.531 . S
C838 H850 0.960 . S
C838 H851 0.962 . S
C838 H852 0.960 . S
C839 C836 1.511 . S
C839 H853 0.961 . S
C839 H854 0.961 . S
C839 H855 0.961 . S
C840 C841 1.370 . S
C840 C842 1.363 . S
C840 H856 0.931 . S
C841 C840 1.370 . S
C841 C845 1.408 . S
C842 C840 1.363 . S
C842 C843 1.370 . S
C842 C846 1.524 . S
C843 C835 1.503 . S
C843 C842 1.370 . S
C843 C844 1.403 . S
C844 C843 1.403 . S
C844 C845 1.404 . S
C844 C847 1.539 . S
C845 C841 1.408 . S
C845 C844 1.404 . S
C845 H857 0.930 . S
C846 C842 1.524 . S
C846 H858 0.956 . S
C846 H859 0.961 . S
C846 H860 0.961 . S
C847 C844 1.539 . S
C847 H861 0.958 . S
C847 H862 0.961 . S
C847 H863 0.960 . S
H848 C832 0.931 . S
H849 C837 0.929 . S
H850 C838 0.960 . S
H851 C838 0.962 . S
H852 C838 0.960 . S
H853 C839 0.961 . S
H854 C839 0.961 . S
H855 C839 0.961 . S
H856 C840 0.931 . S
H857 C845 0.930 . S
H858 C846 0.956 . S
H859 C846 0.961 . S
H860 C846 0.961 . S
H861 C847 0.958 . S
H862 C847 0.961 . S
H863 C847 0.960 . S
C864 C865 1.391 . S
C864 C866 1.394 . S
C864 H880 0.931 . S
C865 C864 1.391 . S
C865 C869 1.376 . S
C866 C864 1.394 . S
C866 C867 1.369 . S
C866 C870 1.531 . S
C867 C866 1.369 . S
C867 C868 1.410 . S
C867 C875 1.503 . S
C868 C867 1.410 . S
C868 C869 1.392 . S
C868 C871 1.511 . S
C869 C865 1.376 . S
C869 C868 1.392 . S
C869 H881 0.929 . S
C870 C866 1.531 . S
C870 H882 0.960 . S
C870 H883 0.962 . S
C870 H884 0.960 . S
C871 C868 1.511 . S
C871 H885 0.961 . S
C871 H886 0.961 . S
C871 H887 0.961 . S
C872 C873 1.370 . S
C872 C874 1.363 . S
C872 H888 0.931 . S
C873 C872 1.370 . S
C873 C877 1.408 . S
C874 C872 1.363 . S
C874 C875 1.370 . S
C874 C878 1.524 . S
C875 C867 1.503 . S
C875 C874 1.370 . S
C875 C876 1.403 . S
C876 C875 1.403 . S
C876 C877 1.404 . S
C876 C879 1.539 . S
C877 C873 1.408 . S
C877 C876 1.404 . S
C877 H889 0.930 . S
C878 C874 1.524 . S
C878 H890 0.956 . S
C878 H891 0.961 . S
C878 H892 0.961 . S
C879 C876 1.539 . S
C879 H893 0.958 . S
C879 H894 0.961 . S
C879 H895 0.960 . S
H880 C864 0.931 . S
H881 C869 0.929 . S
H882 C870 0.960 . S
H883 C870 0.962 . S
H884 C870 0.960 . S
H885 C871 0.961 . S
H886 C871 0.961 . S
H887 C871 0.961 . S
H888 C872 0.931 . S
H889 C877 0.930 . S
H890 C878 0.956 . S
H891 C878 0.961 . S
H892 C878 0.961 . S
H893 C879 0.958 . S
H894 C879 0.961 . S
H895 C879 0.960 . S
C896 C897 1.391 . S
C896 C898 1.394 . S
C896 H912 0.931 . S
C897 C896 1.391 . S
C897 C901 1.376 . S
C898 C896 1.394 . S
C898 C899 1.369 . S
C898 C902 1.531 . S
C899 C898 1.369 . S
C899 C900 1.410 . S
C899 C907 1.503 . S
C900 C899 1.410 . S
C900 C901 1.392 . S
C900 C903 1.511 . S
C901 C897 1.376 . S
C901 C900 1.392 . S
C901 H913 0.929 . S
C902 C898 1.531 . S
C902 H914 0.960 . S
C902 H915 0.962 . S
C902 H916 0.960 . S
C903 C900 1.511 . S
C903 H917 0.961 . S
C903 H918 0.961 . S
C903 H919 0.961 . S
C904 C905 1.370 . S
C904 C906 1.363 . S
C904 H920 0.931 . S
C905 C904 1.370 . S
C905 C909 1.408 . S
C906 C904 1.363 . S
C906 C907 1.370 . S
C906 C910 1.524 . S
C907 C899 1.503 . S
C907 C906 1.370 . S
C907 C908 1.403 . S
C908 C907 1.403 . S
C908 C909 1.404 . S
C908 C911 1.539 . S
C909 C905 1.408 . S
C909 C908 1.404 . S
C909 H921 0.930 . S
C910 C906 1.524 . S
C910 H922 0.956 . S
C910 H923 0.961 . S
C910 H924 0.961 . S
C911 C908 1.539 . S
C911 H925 0.958 . S
C911 H926 0.961 . S
C911 H927 0.960 . S
H912 C896 0.931 . S
H913 C901 0.929 . S
H914 C902 0.960 . S
H915 C902 0.962 . S
H916 C902 0.960 . S
H917 C903 0.961 . S
H918 C903 0.961 . S
H919 C903 0.961 . S
H920 C904 0.931 . S
H921 C909 0.930 . S
H922 C910 0.956 . S
H923 C910 0.961 . S
H924 C910 0.961 . S
H925 C911 0.958 . S
H926 C911 0.961 . S
H927 C911 0.960 . S
C928 C929 1.391 . S
C928 C930 1.394 . S
C928 H944 0.931 . S
C929 C928 1.391 . S
C929 C933 1.376 . S
C930 C928 1.394 . S
C930 C931 1.369 . S
C930 C934 1.531 . S
C931 C930 1.369 . S
C931 C932 1.410 . S
C931 C939 1.503 . S
C932 C931 1.410 . S
C932 C933 1.392 . S
C932 C935 1.511 . S
C933 C929 1.376 . S
C933 C932 1.392 . S
C933 H945 0.929 . S
C934 C930 1.531 . S
C934 H946 0.960 . S
C934 H947 0.962 . S
C934 H948 0.960 . S
C935 C932 1.511 . S
C935 H949 0.961 . S
C935 H950 0.961 . S
C935 H951 0.961 . S
C936 C937 1.370 . S
C936 C938 1.363 . S
C936 H952 0.931 . S
C937 C936 1.370 . S
C937 C941 1.408 . S
C938 C936 1.363 . S
C938 C939 1.370 . S
C938 C942 1.524 . S
C939 C931 1.503 . S
C939 C938 1.370 . S
C939 C940 1.403 . S
C940 C939 1.403 . S
C940 C941 1.404 . S
C940 C943 1.539 . S
C941 C937 1.408 . S
C941 C940 1.404 . S
C941 H953 0.930 . S
C942 C938 1.524 . S
C942 H954 0.956 . S
C942 H955 0.961 . S
C942 H956 0.961 . S
C943 C940 1.539 . S
C943 H957 0.958 . S
C943 H958 0.961 . S
C943 H959 0.960 . S
H944 C928 0.931 . S
H945 C933 0.929 . S
H946 C934 0.960 . S
H947 C934 0.962 . S
H948 C934 0.960 . S
H949 C935 0.961 . S
H950 C935 0.961 . S
H951 C935 0.961 . S
H952 C936 0.931 . S
H953 C941 0.930 . S
H954 C942 0.956 . S
H955 C942 0.961 . S
H956 C942 0.961 . S
H957 C943 0.958 . S
H958 C943 0.961 . S
H959 C943 0.960 . S
C960 C961 1.391 . S
C960 C962 1.394 . S
C960 H976 0.931 . S
C961 C960 1.391 . S
C961 C965 1.376 . S
C962 C960 1.394 . S
C962 C963 1.369 . S
C962 C966 1.531 . S
C963 C962 1.369 . S
C963 C964 1.410 . S
C963 C971 1.503 . S
C964 C963 1.410 . S
C964 C965 1.392 . S
C964 C967 1.511 . S
C965 C961 1.376 . S
C965 C964 1.392 . S
C965 H977 0.929 . S
C966 C962 1.531 . S
C966 H978 0.960 . S
C966 H979 0.962 . S
C966 H980 0.960 . S
C967 C964 1.511 . S
C967 H981 0.961 . S
C967 H982 0.961 . S
C967 H983 0.961 . S
C968 C969 1.370 . S
C968 C970 1.363 . S
C968 H984 0.931 . S
C969 C968 1.370 . S
C969 C973 1.408 . S
C970 C968 1.363 . S
C970 C971 1.370 . S
C970 C974 1.524 . S
C971 C963 1.503 . S
C971 C970 1.370 . S
C971 C972 1.403 . S
C972 C971 1.403 . S
C972 C973 1.404 . S
C972 C975 1.539 . S
C973 C969 1.408 . S
C973 C972 1.404 . S
C973 H985 0.930 . S
C974 C970 1.524 . S
C974 H986 0.956 . S
C974 H987 0.961 . S
C974 H988 0.961 . S
C975 C972 1.539 . S
C975 H989 0.958 . S
C975 H990 0.961 . S
C975 H991 0.960 . S
H976 C960 0.931 . S
H977 C965 0.929 . S
H978 C966 0.960 . S
H979 C966 0.962 . S
H980 C966 0.960 . S
H981 C967 0.961 . S
H982 C967 0.961 . S
H983 C967 0.961 . S
H984 C968 0.931 . S
H985 C973 0.930 . S
H986 C974 0.956 . S
H987 C974 0.961 . S
H988 C974 0.961 . S
H989 C975 0.958 . S
H990 C975 0.961 . S
H991 C975 0.960 . S
C992 C993 1.391 . S
C992 C994 1.394 . S
C992 H1008 0.931 . S
C993 C992 1.391 . S
C993 C997 1.376 . S
C994 C992 1.394 . S
C994 C995 1.369 . S
C994 C998 1.531 . S
C995 C994 1.369 . S
C995 C996 1.410 . S
C995 C1003 1.503 . S
C996 C995 1.410 . S
C996 C997 1.392 . S
C996 C999 1.511 . S
C997 C993 1.376 . S
C997 C996 1.392 . S
C997 H1009 0.929 . S
C998 C994 1.531 . S
C998 H1010 0.960 . S
C998 H1011 0.962 1_545 S
C998 H1012 0.960 . S
C999 C996 1.511 . S
C999 H1013 0.961 . S
C999 H1014 0.961 1_545 S
C999 H1015 0.961 . S
C1000 C1001 1.370 . S
C1000 C1002 1.363 . S
C1000 H1016 0.931 . S
C1001 C1000 1.370 . S
C1001 C1005 1.408 1_565 S
C1002 C1000 1.363 . S
C1002 C1003 1.370 1_565 S
C1002 C1006 1.524 . S
C1003 C995 1.503 . S
C1003 C1002 1.370 1_545 S
C1003 C1004 1.403 . S
C1004 C1003 1.403 . S
C1004 C1005 1.404 . S
C1004 C1007 1.539 . S
C1005 C1001 1.408 1_545 S
C1005 C1004 1.404 . S
C1005 H1017 0.930 . S
C1006 C1002 1.524 . S
C1006 H1018 0.956 . S
C1006 H1019 0.961 . S
C1006 H1020 0.961 . S
C1007 C1004 1.539 . S
C1007 H1021 0.958 . S
C1007 H1022 0.961 . S
C1007 H1023 0.960 . S
H1008 C992 0.931 . S
H1009 C997 0.929 . S
H1010 C998 0.960 . S
H1011 C998 0.962 1_565 S
H1012 C998 0.960 . S
H1013 C999 0.961 . S
H1014 C999 0.961 1_565 S
H1015 C999 0.961 . S
H1016 C1000 0.931 . S
H1017 C1005 0.930 . S
H1018 C1006 0.956 . S
H1019 C1006 0.961 . S
H1020 C1006 0.961 . S
H1021 C1007 0.958 . S
H1022 C1007 0.961 . S
H1023 C1007 0.960 . S
C1024 C1025 1.391 . S
C1024 C1026 1.394 . S
C1024 H1040 0.931 . S
C1025 C1024 1.391 . S
C1025 C1029 1.376 1_545 S
C1026 C1024 1.394 . S
C1026 C1027 1.369 . S
C1026 C1030 1.531 . S
C1027 C1026 1.369 . S
C1027 C1028 1.410 1_545 S
C1027 C1035 1.503 . S
C1028 C1027 1.410 1_565 S
C1028 C1029 1.392 . S
C1028 C1031 1.511 . S
C1029 C1025 1.376 1_565 S
C1029 C1028 1.392 . S
C1029 H1041 0.929 . S
C1030 C1026 1.531 . S
C1030 H1042 0.960 . S
C1030 H1043 0.962 . S
C1030 H1044 0.960 . S
C1031 C1028 1.511 . S
C1031 H1045 0.961 . S
C1031 H1046 0.961 . S
C1031 H1047 0.961 . S
C1032 C1033 1.370 . S
C1032 C1034 1.363 . S
C1032 H1048 0.931 . S
C1033 C1032 1.370 . S
C1033 C1037 1.408 1_565 S
C1034 C1032 1.363 . S
C1034 C1035 1.370 1_565 S
C1034 C1038 1.524 . S
C1035 C1027 1.503 . S
C1035 C1034 1.370 1_545 S
C1035 C1036 1.403 . S
C1036 C1035 1.403 . S
C1036 C1037 1.404 . S
C1036 C1039 1.539 . S
C1037 C1033 1.408 1_545 S
C1037 C1036 1.404 . S
C1037 H1049 0.930 . S
C1038 C1034 1.524 . S
C1038 H1050 0.956 . S
C1038 H1051 0.961 . S
C1038 H1052 0.961 . S
C1039 C1036 1.539 . S
C1039 H1053 0.958 . S
C1039 H1054 0.961 . S
C1039 H1055 0.960 . S
H1040 C1024 0.931 . S
H1041 C1029 0.929 . S
H1042 C1030 0.960 . S
H1043 C1030 0.962 . S
H1044 C1030 0.960 . S
H1045 C1031 0.961 . S
H1046 C1031 0.961 . S
H1047 C1031 0.961 . S
H1048 C1032 0.931 . S
H1049 C1037 0.930 . S
H1050 C1038 0.956 . S
H1051 C1038 0.961 . S
H1052 C1038 0.961 . S
H1053 C1039 0.958 . S
H1054 C1039 0.961 . S
H1055 C1039 0.960 . S
C1056 C1057 1.391 1_565 S
C1056 C1058 1.394 . S
C1056 H1072 0.931 . S
C1057 C1056 1.391 1_545 S
C1057 C1061 1.376 . S
C1058 C1056 1.394 . S
C1058 C1059 1.369 1_565 S
C1058 C1062 1.531 . S
C1059 C1058 1.369 1_545 S
C1059 C1060 1.410 . S
C1059 C1067 1.503 . S
C1060 C1059 1.410 . S
C1060 C1061 1.392 . S
C1060 C1063 1.511 . S
C1061 C1057 1.376 . S
C1061 C1060 1.392 . S
C1061 H1073 0.929 . S
C1062 C1058 1.531 . S
C1062 H1074 0.960 . S
C1062 H1075 0.962 . S
C1062 H1076 0.960 . S
C1063 C1060 1.511 . S
C1063 H1077 0.961 . S
C1063 H1078 0.961 . S
C1063 H1079 0.961 . S
C1064 C1065 1.370 . S
C1064 C1066 1.363 . S
C1064 H1080 0.931 . S
C1065 C1064 1.370 . S
C1065 C1069 1.408 1_565 S
C1066 C1064 1.363 . S
C1066 C1067 1.370 1_565 S
C1066 C1070 1.524 . S
C1067 C1059 1.503 . S
C1067 C1066 1.370 1_545 S
C1067 C1068 1.403 . S
C1068 C1067 1.403 . S
C1068 C1069 1.404 . S
C1068 C1071 1.539 . S
C1069 C1065 1.408 1_545 S
C1069 C1068 1.404 . S
C1069 H1081 0.930 . S
C1070 C1066 1.524 . S
C1070 H1082 0.956 . S
C1070 H1083 0.961 . S
C1070 H1084 0.961 . S
C1071 C1068 1.539 . S
C1071 H1085 0.958 . S
C1071 H1086 0.961 . S
C1071 H1087 0.960 . S
H1072 C1056 0.931 . S
H1073 C1061 0.929 . S
H1074 C1062 0.960 . S
H1075 C1062 0.962 . S
H1076 C1062 0.960 . S
H1077 C1063 0.961 . S
H1078 C1063 0.961 . S
H1079 C1063 0.961 . S
H1080 C1064 0.931 . S
H1081 C1069 0.930 . S
H1082 C1070 0.956 . S
H1083 C1070 0.961 . S
H1084 C1070 0.961 . S
H1085 C1071 0.958 . S
H1086 C1071 0.961 . S
H1087 C1071 0.960 . S
C1088 C1089 1.376 1_545 S
C1088 C1090 1.394 . S
C1088 H1104 0.931 . S
C1089 C1088 1.376 1_565 S
C1089 C1093 1.387 . S
C1090 C1088 1.394 . S
C1090 C1091 1.369 . S
C1090 C1094 1.531 . S
C1091 C1090 1.369 . S
C1091 C1092 1.410 1_545 S
C1091 C1099 1.503 . S
C1092 C1091 1.410 1_565 S
C1092 C1093 1.392 . S
C1092 C1095 1.511 . S
C1093 C1089 1.387 . S
C1093 C1092 1.392 . S
C1093 H1105 0.929 . S
C1094 C1090 1.531 . S
C1094 H1106 0.960 . S
C1094 H1107 0.962 . S
C1094 H1108 0.960 . S
C1095 C1092 1.511 . S
C1095 H1109 0.961 . S
C1095 H1110 0.961 . S
C1095 H1111 0.961 . S
C1096 C1097 1.370 1_565 S
C1096 C1098 1.363 . S
C1096 H1112 0.931 . S
C1097 C1096 1.370 1_545 S
C1097 C1101 1.408 . S
C1098 C1096 1.363 . S
C1098 C1099 1.370 1_565 S
C1098 C1102 1.524 . S
C1099 C1091 1.503 . S
C1099 C1098 1.370 1_545 S
C1099 C1100 1.403 . S
C1100 C1099 1.403 . S
C1100 C1101 1.404 . S
C1100 C1103 1.539 . S
C1101 C1097 1.408 . S
C1101 C1100 1.404 . S
C1101 H1113 0.930 . S
C1102 C1098 1.524 . S
C1102 H1114 0.956 . S
C1102 H1115 0.961 . S
C1102 H1116 0.961 . S
C1103 C1100 1.539 . S
C1103 H1117 0.958 . S
C1103 H1118 0.961 . S
C1103 H1119 0.960 . S
H1104 C1088 0.931 . S
H1105 C1093 0.929 . S
H1106 C1094 0.960 . S
H1107 C1094 0.962 . S
H1108 C1094 0.960 . S
H1109 C1095 0.961 . S
H1110 C1095 0.961 . S
H1111 C1095 0.961 . S
H1112 C1096 0.931 . S
H1113 C1101 0.930 . S
H1114 C1102 0.956 . S
H1115 C1102 0.961 . S
H1116 C1102 0.961 . S
H1117 C1103 0.958 . S
H1118 C1103 0.961 . S
H1119 C1103 0.960 . S
C1120 C1121 1.391 . S
C1120 C1122 1.394 . S
C1120 H1136 0.931 . S
C1121 C1120 1.391 . S
C1121 C1125 1.376 . S
C1122 C1120 1.394 . S
C1122 C1123 1.369 . S
C1122 C1126 1.531 . S
C1123 C1122 1.369 . S
C1123 C1124 1.410 . S
C1123 C1131 1.503 . S
C1124 C1123 1.410 . S
C1124 C1125 1.392 . S
C1124 C1127 1.511 . S
C1125 C1121 1.376 . S
C1125 C1124 1.392 . S
C1125 H1137 0.929 . S
C1126 C1122 1.531 . S
C1126 H1138 0.960 . S
C1126 H1139 0.962 . S
C1126 H1140 0.960 . S
C1127 C1124 1.511 . S
C1127 H1141 0.961 . S
C1127 H1142 0.961 . S
C1127 H1143 0.961 . S
C1128 C1129 1.370 . S
C1128 C1130 1.363 . S
C1128 H1144 0.931 . S
C1129 C1128 1.370 . S
C1129 C1133 1.408 . S
C1130 C1128 1.363 . S
C1130 C1131 1.370 . S
C1130 C1134 1.524 . S
C1131 C1123 1.503 . S
C1131 C1130 1.370 . S
C1131 C1132 1.403 . S
C1132 C1131 1.403 . S
C1132 C1133 1.404 . S
C1132 C1135 1.539 . S
C1133 C1129 1.408 . S
C1133 C1132 1.404 . S
C1133 H1145 0.930 . S
C1134 C1130 1.524 . S
C1134 H1146 0.956 . S
C1134 H1147 0.961 . S
C1134 H1148 0.961 . S
C1135 C1132 1.539 . S
C1135 H1149 0.958 . S
C1135 H1150 0.961 . S
C1135 H1151 0.960 . S
H1136 C1120 0.931 . S
H1137 C1125 0.929 . S
H1138 C1126 0.960 . S
H1139 C1126 0.962 . S
H1140 C1126 0.960 . S
H1141 C1127 0.961 . S
H1142 C1127 0.961 . S
H1143 C1127 0.961 . S
H1144 C1128 0.931 . S
H1145 C1133 0.930 . S
H1146 C1134 0.956 . S
H1147 C1134 0.961 . S
H1148 C1134 0.961 . S
H1149 C1135 0.958 . S
H1150 C1135 0.961 . S
H1151 C1135 0.960 . S
C1152 C1153 1.391 . S
C1152 C1154 1.394 . S
C1152 H1168 0.931 . S
C1153 C1152 1.391 . S
C1153 C1157 1.376 . S
C1154 C1152 1.394 . S
C1154 C1155 1.369 . S
C1154 C1158 1.531 . S
C1155 C1154 1.369 . S
C1155 C1156 1.410 . S
C1155 C1163 1.503 . S
C1156 C1155 1.410 . S
C1156 C1157 1.392 . S
C1156 C1159 1.511 . S
C1157 C1153 1.376 . S
C1157 C1156 1.392 . S
C1157 H1169 0.929 . S
C1158 C1154 1.531 . S
C1158 H1170 0.960 . S
C1158 H1171 0.962 . S
C1158 H1172 0.960 . S
C1159 C1156 1.511 . S
C1159 H1173 0.961 . S
C1159 H1174 0.961 . S
C1159 H1175 0.961 . S
C1160 C1161 1.370 . S
C1160 C1162 1.363 . S
C1160 H1176 0.931 . S
C1161 C1160 1.370 . S
C1161 C1165 1.408 . S
C1162 C1160 1.363 . S
C1162 C1163 1.370 . S
C1162 C1166 1.524 . S
C1163 C1155 1.503 . S
C1163 C1162 1.370 . S
C1163 C1164 1.403 . S
C1164 C1163 1.403 . S
C1164 C1165 1.404 . S
C1164 C1167 1.539 . S
C1165 C1161 1.408 . S
C1165 C1164 1.404 . S
C1165 H1177 0.930 . S
C1166 C1162 1.524 . S
C1166 H1178 0.956 . S
C1166 H1179 0.961 . S
C1166 H1180 0.961 . S
C1167 C1164 1.539 . S
C1167 H1181 0.958 . S
C1167 H1182 0.961 . S
C1167 H1183 0.960 . S
H1168 C1152 0.931 . S
H1169 C1157 0.929 . S
H1170 C1158 0.960 . S
H1171 C1158 0.962 . S
H1172 C1158 0.960 . S
H1173 C1159 0.961 . S
H1174 C1159 0.961 . S
H1175 C1159 0.961 . S
H1176 C1160 0.931 . S
H1177 C1165 0.930 . S
H1178 C1166 0.956 . S
H1179 C1166 0.961 . S
H1180 C1166 0.961 . S
H1181 C1167 0.958 . S
H1182 C1167 0.961 . S
H1183 C1167 0.960 . S
C1184 C1185 1.391 . S
C1184 C1186 1.394 . S
C1184 H1200 0.931 . S
C1185 C1184 1.391 . S
C1185 C1189 1.376 . S
C1186 C1184 1.394 . S
C1186 C1187 1.369 . S
C1186 C1190 1.531 . S
C1187 C1186 1.369 . S
C1187 C1188 1.410 . S
C1187 C1195 1.503 . S
C1188 C1187 1.410 . S
C1188 C1189 1.392 . S
C1188 C1191 1.511 . S
C1189 C1185 1.376 . S
C1189 C1188 1.392 . S
C1189 H1201 0.929 . S
C1190 C1186 1.531 . S
C1190 H1202 0.960 . S
C1190 H1203 0.962 . S
C1190 H1204 0.960 . S
C1191 C1188 1.511 . S
C1191 H1205 0.961 . S
C1191 H1206 0.961 . S
C1191 H1207 0.961 . S
C1192 C1193 1.370 . S
C1192 C1194 1.363 . S
C1192 H1208 0.931 . S
C1193 C1192 1.370 . S
C1193 C1197 1.408 . S
C1194 C1192 1.363 . S
C1194 C1195 1.370 . S
C1194 C1198 1.524 . S
C1195 C1187 1.503 . S
C1195 C1194 1.370 . S
C1195 C1196 1.403 . S
C1196 C1195 1.403 . S
C1196 C1197 1.404 . S
C1196 C1199 1.539 . S
C1197 C1193 1.408 . S
C1197 C1196 1.404 . S
C1197 H1209 0.930 . S
C1198 C1194 1.524 . S
C1198 H1210 0.956 . S
C1198 H1211 0.961 . S
C1198 H1212 0.961 . S
C1199 C1196 1.539 . S
C1199 H1213 0.958 . S
C1199 H1214 0.961 . S
C1199 H1215 0.960 . S
H1200 C1184 0.931 . S
H1201 C1189 0.929 . S
H1202 C1190 0.960 . S
H1203 C1190 0.962 . S
H1204 C1190 0.960 . S
H1205 C1191 0.961 . S
H1206 C1191 0.961 . S
H1207 C1191 0.961 . S
H1208 C1192 0.931 . S
H1209 C1197 0.930 . S
H1210 C1198 0.956 . S
H1211 C1198 0.961 . S
H1212 C1198 0.961 . S
H1213 C1199 0.958 . S
H1214 C1199 0.961 . S
H1215 C1199 0.960 . S
C1216 C1217 1.391 . S
C1216 C1218 1.394 . S
C1216 H1232 0.931 . S
C1217 C1216 1.391 . S
C1217 C1221 1.376 . S
C1218 C1216 1.394 . S
C1218 C1219 1.369 . S
C1218 C1222 1.531 . S
C1219 C1218 1.369 . S
C1219 C1220 1.410 . S
C1219 C1227 1.503 . S
C1220 C1219 1.410 . S
C1220 C1221 1.392 . S
C1220 C1223 1.511 . S
C1221 C1217 1.376 . S
C1221 C1220 1.392 . S
C1221 H1233 0.929 . S
C1222 C1218 1.531 . S
C1222 H1234 0.960 . S
C1222 H1235 0.962 . S
C1222 H1236 0.960 . S
C1223 C1220 1.511 . S
C1223 H1237 0.961 . S
C1223 H1238 0.961 . S
C1223 H1239 0.961 . S
C1224 C1225 1.370 . S
C1224 C1226 1.363 . S
C1224 H1240 0.931 . S
C1225 C1224 1.370 . S
C1225 C1229 1.408 . S
C1226 C1224 1.363 . S
C1226 C1227 1.370 . S
C1226 C1230 1.524 . S
C1227 C1219 1.503 . S
C1227 C1226 1.370 . S
C1227 C1228 1.403 . S
C1228 C1227 1.403 . S
C1228 C1229 1.404 . S
C1228 C1231 1.539 . S
C1229 C1225 1.408 . S
C1229 C1228 1.404 . S
C1229 H1241 0.930 . S
C1230 C1226 1.524 . S
C1230 H1242 0.956 . S
C1230 H1243 0.961 . S
C1230 H1244 0.961 . S
C1231 C1228 1.539 . S
C1231 H1245 0.958 . S
C1231 H1246 0.961 . S
C1231 H1247 0.960 . S
H1232 C1216 0.931 . S
H1233 C1221 0.929 . S
H1234 C1222 0.960 . S
H1235 C1222 0.962 . S
H1236 C1222 0.960 . S
H1237 C1223 0.961 . S
H1238 C1223 0.961 . S
H1239 C1223 0.961 . S
H1240 C1224 0.931 . S
H1241 C1229 0.930 . S
H1242 C1230 0.956 . S
H1243 C1230 0.961 . S
H1244 C1230 0.961 . S
H1245 C1231 0.958 . S
H1246 C1231 0.961 . S
H1247 C1231 0.960 . S
C225 C7 1.261 . S
C233 C77 1.258 . S
C257 C63 1.272 . S
C265 C21 1.262 . S
C289 C35 1.265 . S
C297 C105 1.260 . S
C321 C91 1.237 . S
C329 C49 1.246 . S
C353 C189 1.254 . S
C361 C119 1.252 . S
C385 C175 1.224 . S
C393 C133 1.242 . S
C417 C217 1.261 . S
C425 C147 1.255 . S
C449 C161 1.262 . S
C457 C203 1.259 . S
C481 C23 1.480 . S
C489 C9 1.489 . S
C513 C37 1.485 . S
C521 C51 1.487 . S
C545 C65 1.469 . S
C553 C79 1.492 . S
C577 C93 1.465 . S
C585 C107 1.494 . S
C609 C121 1.483 . S
C617 C135 1.485 . S
C641 C163 1.469 . S
C649 C149 1.493 . S
C673 C191 1.465 . S
C681 C177 1.494 . S
C705 C205 1.486 . S
C713 C219 1.485 . S
C737 C134 1.515 . S
C745 C8 1.517 . S
C769 C22 1.508 . S
C777 C120 1.519 . S
C801 C162 1.508 . S
C809 C36 1.518 . S
C833 C50 1.511 . S
C841 C148 1.516 . S
C865 C64 1.518 . S
C873 C190 1.515 . S
C897 C176 1.509 . S
C905 C78 1.518 . S
C929 C92 1.513 . S
C937 C218 1.517 . S
C961 C204 1.508 . S
C969 C106 1.519 . S
C993 C3 1.208 . S
C1001 C31 1.261 . S
C1025 C45 1.204 . S
C1033 C17 1.249 . S
C1057 C87 1.210 . S
C1065 C59 1.250 . S
C1089 C101 1.276 . S
C1097 C73 1.230 . S
C1121 C143 1.285 . S
C1129 C115 1.237 . S
C1153 C129 1.284 . S
C1161 C157 1.242 . S
C1185 C199 1.228 . S
C1193 C171 1.263 . S
C1217 C185 1.221 . S
C1225 C213 1.264 . S
