# Generated by pormake.
# Topology ukt, (4)-cn, num edge types: 1
# Building blocks:
#     Node 0, Type 0, BuildingBlock: ICAMEG_clean_sbu_1, # of connection points: 4
#     Node 1, Type 0, BuildingBlock: ICAMEG_clean_sbu_1, # of connection points: 4
#     Node 2, Type 0, BuildingBlock: ICAMEG_clean_sbu_1, # of connection points: 4
#     Node 3, Type 0, BuildingBlock: ICAMEG_clean_sbu_1, # of connection points: 4
#     Node 4, Type 0, BuildingBlock: ICAMEG_clean_sbu_1, # of connection points: 4
#     Node 5, Type 0, BuildingBlock: ICAMEG_clean_sbu_1, # of connection points: 4
#     Node 6, Type 0, BuildingBlock: ICAMEG_clean_sbu_1, # of connection points: 4
#     Node 7, Type 0, BuildingBlock: ICAMEG_clean_sbu_1, # of connection points: 4
#     Node 8, Type 0, BuildingBlock: ICAMEG_clean_sbu_1, # of connection points: 4
#     Node 9, Type 0, BuildingBlock: ICAMEG_clean_sbu_1, # of connection points: 4
#     Node 10, Type 0, BuildingBlock: ICAMEG_clean_sbu_1, # of connection points: 4
#     Node 11, Type 0, BuildingBlock: ICAMEG_clean_sbu_1, # of connection points: 4
#     Node 12, Type 0, BuildingBlock: ICAMEG_clean_sbu_1, # of connection points: 4
#     Node 13, Type 0, BuildingBlock: ICAMEG_clean_sbu_1, # of connection points: 4
#     Node 14, Type 0, BuildingBlock: ICAMEG_clean_sbu_1, # of connection points: 4
#     Node 15, Type 0, BuildingBlock: ICAMEG_clean_sbu_1, # of connection points: 4
#     Edge 16, Type (0, 0), BuildingBlock: CIFDUS_clean_linker_0, # of connection points: 2
#     Edge 17, Type (0, 0), BuildingBlock: CIFDUS_clean_linker_0, # of connection points: 2
#     Edge 18, Type (0, 0), BuildingBlock: CIFDUS_clean_linker_0, # of connection points: 2
#     Edge 19, Type (0, 0), BuildingBlock: CIFDUS_clean_linker_0, # of connection points: 2
#     Edge 20, Type (0, 0), BuildingBlock: CIFDUS_clean_linker_0, # of connection points: 2
#     Edge 21, Type (0, 0), BuildingBlock: CIFDUS_clean_linker_0, # of connection points: 2
#     Edge 22, Type (0, 0), BuildingBlock: CIFDUS_clean_linker_0, # of connection points: 2
#     Edge 23, Type (0, 0), BuildingBlock: CIFDUS_clean_linker_0, # of connection points: 2
#     Edge 24, Type (0, 0), BuildingBlock: CIFDUS_clean_linker_0, # of connection points: 2
#     Edge 25, Type (0, 0), BuildingBlock: CIFDUS_clean_linker_0, # of connection points: 2
#     Edge 26, Type (0, 0), BuildingBlock: CIFDUS_clean_linker_0, # of connection points: 2
#     Edge 27, Type (0, 0), BuildingBlock: CIFDUS_clean_linker_0, # of connection points: 2
#     Edge 28, Type (0, 0), BuildingBlock: CIFDUS_clean_linker_0, # of connection points: 2
#     Edge 29, Type (0, 0), BuildingBlock: CIFDUS_clean_linker_0, # of connection points: 2
#     Edge 30, Type (0, 0), BuildingBlock: CIFDUS_clean_linker_0, # of connection points: 2
#     Edge 31, Type (0, 0), BuildingBlock: CIFDUS_clean_linker_0, # of connection points: 2
#     Edge 32, Type (0, 0), BuildingBlock: CIFDUS_clean_linker_0, # of connection points: 2
#     Edge 33, Type (0, 0), BuildingBlock: CIFDUS_clean_linker_0, # of connection points: 2
#     Edge 34, Type (0, 0), BuildingBlock: CIFDUS_clean_linker_0, # of connection points: 2
#     Edge 35, Type (0, 0), BuildingBlock: CIFDUS_clean_linker_0, # of connection points: 2
#     Edge 36, Type (0, 0), BuildingBlock: CIFDUS_clean_linker_0, # of connection points: 2
#     Edge 37, Type (0, 0), BuildingBlock: CIFDUS_clean_linker_0, # of connection points: 2
#     Edge 38, Type (0, 0), BuildingBlock: CIFDUS_clean_linker_0, # of connection points: 2
#     Edge 39, Type (0, 0), BuildingBlock: CIFDUS_clean_linker_0, # of connection points: 2
#     Edge 40, Type (0, 0), BuildingBlock: CIFDUS_clean_linker_0, # of connection points: 2
#     Edge 41, Type (0, 0), BuildingBlock: CIFDUS_clean_linker_0, # of connection points: 2
#     Edge 42, Type (0, 0), BuildingBlock: CIFDUS_clean_linker_0, # of connection points: 2
#     Edge 43, Type (0, 0), BuildingBlock: CIFDUS_clean_linker_0, # of connection points: 2
#     Edge 44, Type (0, 0), BuildingBlock: CIFDUS_clean_linker_0, # of connection points: 2
#     Edge 45, Type (0, 0), BuildingBlock: CIFDUS_clean_linker_0, # of connection points: 2
#     Edge 46, Type (0, 0), BuildingBlock: CIFDUS_clean_linker_0, # of connection points: 2
#     Edge 47, Type (0, 0), BuildingBlock: CIFDUS_clean_linker_0, # of connection points: 2
# Relax obj value: 0.222
# Max RMSD: 0.137
# Mean RMSD: 0.137
data_MOF--net-ukt--node1-ICAMEG_clean_sbu_1--edge1-CIFDUS_clean_linker_0
_symmetry_space_group_name_H-M    P1
_symmetry_Int_Tables_number       1
_symmetry_cell_setting            triclinic
loop_
_symmetry_equiv_pos_as_xyz
'x, y, z'
_cell_length_a     39.42044
_cell_length_b     39.463394
_cell_length_c     35.769504
_cell_angle_alpha  89.979051
_cell_angle_beta   90.001774
_cell_angle_gamma 89.870474
loop_
_atom_site_label
_atom_site_type_symbol
_atom_site_fract_x
_atom_site_fract_y
_atom_site_fract_z
_atom_type_partial_charge
Co0 Co 0.57949 0.17155 0.12588 0.0
Co1 Co 0.53773 0.16008 0.04163 0.0
O2 O 0.53987 0.15855 0.09628 0.0
C3 C 0.52906 0.22079 0.15686 0.0
O4 O 0.5242 0.23344 0.12335 0.0
C5 C 0.52869 0.08804 0.05812 0.0
O6 O 0.55186 0.09191 0.08409 0.0
O7 O 0.58364 0.13939 0.03636 0.0
O8 O 0.6103 0.14649 0.09131 0.0
H9 H 0.58201 0.18462 0.9127 0.0
H10 H 0.52058 0.13808 0.16169 0.0
O11 O 0.54943 0.19615 0.16192 0.0
H12 H 0.61838 0.06365 0.18795 0.0
H13 H 0.64249 0.19352 0.24595 0.0
H14 H 0.64889 0.19554 0.10827 0.0
H15 H 0.62588 0.11682 0.15267 0.0
H16 H 0.59346 0.17604 0.20779 0.0
O17 O 0.51786 0.11362 0.03998 0.0
H18 H 0.58445 0.18255 0.98156 0.0
H19 H 0.48555 0.14023 0.98545 0.0
H20 H 0.69866 0.2129 0.14538 0.0
H21 H 0.51197 0.08537 0.19752 0.0
H22 H 0.69562 0.21199 0.21473 0.0
H23 H 0.56107 0.04766 0.21069 0.0
O24 O 0.58597 0.21404 0.09592 0.0
H25 H 0.41899 0.16822 0.09174 0.0
H26 H 0.5038 0.22078 0.00874 0.0
H27 H 0.44732 0.24716 0.0153 0.0
H28 H 0.40443 0.22078 0.05698 0.0
H29 H 0.47592 0.14285 0.08457 0.0
H30 H 0.48216 0.1415 0.91659 0.0
H31 H 0.53057 0.16397 0.87975 0.0
O32 O 0.55828 0.20572 0.04174 0.0
C33 C 0.60923 0.1357 0.05774 0.0
C34 C 0.56068 0.17491 0.92844 0.0
C35 C 0.50466 0.15068 0.93062 0.0
N36 N 0.53501 0.16168 0.98751 0.0
C37 C 0.56187 0.1738 0.96744 0.0
C38 C 0.50674 0.14999 0.96959 0.0
C39 C 0.53183 0.16329 0.90997 0.0
C40 C 0.54211 0.1219 0.16753 0.0
N41 N 0.57369 0.13043 0.15494 0.0
C42 C 0.53706 0.09205 0.18774 0.0
C43 C 0.56461 0.07089 0.19509 0.0
C44 C 0.59677 0.07982 0.18229 0.0
C45 C 0.60085 0.10986 0.16216 0.0
C46 C 0.64415 0.19397 0.21575 0.0
C47 C 0.64747 0.19483 0.13844 0.0
C48 C 0.61644 0.18417 0.19398 0.0
N49 N 0.6184 0.18454 0.15582 0.0
C50 C 0.67569 0.20479 0.1593 0.0
C51 C 0.67395 0.20431 0.19821 0.0
C52 C 0.57664 0.22359 0.06333 0.0
C53 C 0.43743 0.1799 0.07343 0.0
C54 C 0.48531 0.20924 0.02704 0.0
C55 C 0.45335 0.22424 0.03057 0.0
C56 C 0.42929 0.20942 0.05395 0.0
N57 N 0.49304 0.18023 0.04614 0.0
C58 C 0.46964 0.1656 0.06918 0.0
Co59 Co 0.33433 0.57937 0.11013 0.0
Co60 Co 0.33656 0.53079 0.02955 0.0
O61 O 0.34542 0.53803 0.08282 0.0
C62 C 0.29377 0.52823 0.1513 0.0
O63 O 0.28203 0.51747 0.11909 0.0
C64 C 0.41085 0.52833 0.03627 0.0
O65 O 0.40745 0.55396 0.05929 0.0
O66 O 0.35159 0.57728 0.01582 0.0
O67 O 0.3528 0.60779 0.06882 0.0
H68 H 0.28938 0.5595 0.90288 0.0
H69 H 0.37488 0.5254 0.14664 0.0
O70 O 0.31564 0.5519 0.15247 0.0
H71 H 0.44736 0.62708 0.14885 0.0
H72 H 0.32483 0.6519 0.2255 0.0
H73 H 0.30439 0.64582 0.08965 0.0
H74 H 0.38973 0.62959 0.1221 0.0
H75 H 0.3398 0.60039 0.19005 0.0
O76 O 0.38457 0.51445 0.02217 0.0
H77 H 0.30085 0.56903 0.96983 0.0
H78 H 0.35418 0.47558 0.9762 0.0
H79 H 0.28932 0.69794 0.12397 0.0
H80 H 0.43222 0.52182 0.17407 0.0
H81 H 0.29952 0.70119 0.1924 0.0
H82 H 0.46893 0.57288 0.17511 0.0
O83 O 0.28834 0.5815 0.08684 0.0
H84 H 0.34676 0.4173 0.09224 0.0
H85 H 0.27544 0.48961 0.01161 0.0
H86 H 0.25566 0.43233 0.02849 0.0
H87 H 0.29149 0.39574 0.06902 0.0
H88 H 0.36541 0.47486 0.0749 0.0
H89 H 0.34362 0.46518 0.90918 0.0
H90 H 0.31086 0.50725 0.87211 0.0
O91 O 0.28923 0.5481 0.03578 0.0
C92 C 0.35718 0.6046 0.03367 0.0
C93 C 0.30357 0.54091 0.91876 0.0
C94 C 0.33405 0.488 0.92229 0.0
N95 N 0.32783 0.52271 0.97696 0.0
C96 C 0.31003 0.54611 0.95671 0.0
C97 C 0.34 0.49404 0.96019 0.0
C98 C 0.31566 0.51161 0.90151 0.0
C99 C 0.39062 0.54779 0.1473 0.0
N100 N 0.37901 0.57766 0.13277 0.0
C101 C 0.4231 0.54558 0.16274 0.0
C102 C 0.4437 0.57423 0.16327 0.0
C103 C 0.43162 0.60464 0.14851 0.0
C104 C 0.39902 0.60589 0.13328 0.0
C105 C 0.32034 0.65082 0.19568 0.0
C106 C 0.30914 0.64715 0.11938 0.0
C107 C 0.3287 0.6217 0.17546 0.0
N108 N 0.32323 0.62022 0.13775 0.0
C109 C 0.30045 0.67668 0.13868 0.0
C110 C 0.30615 0.67847 0.17708 0.0
C111 C 0.27414 0.56833 0.05822 0.0
C112 C 0.33097 0.43297 0.07448 0.0
C113 C 0.2911 0.47386 0.02936 0.0
C114 C 0.27981 0.44143 0.03875 0.0
C115 C 0.29993 0.4209 0.06148 0.0
N116 N 0.32163 0.48544 0.04212 0.0
C117 C 0.34145 0.46552 0.06448 0.0
Co118 Co 0.92208 0.32017 0.09598 0.0
Co119 Co 0.96405 0.3337 0.01189 0.0
O120 O 0.96104 0.33635 0.0667 0.0
C121 C 0.98422 0.29401 0.13762 0.0
O122 O 0.00576 0.30841 0.1147 0.0
C123 C 0.97036 0.40755 0.02345 0.0
O124 O 0.94361 0.40633 0.04527 0.0
O125 O 0.9171 0.35218 0.00564 0.0
O126 O 0.89037 0.34237 0.0601 0.0
H127 H 0.92251 0.30416 0.88318 0.0
H128 H 0.97696 0.36315 0.12934 0.0
O129 O 0.95228 0.29701 0.13331 0.0
H130 H 0.87001 0.42255 0.15749 0.0
H131 H 0.85779 0.29292 0.21402 0.0
H132 H 0.85552 0.29039 0.07619 0.0
H133 H 0.86957 0.36863 0.12291 0.0
H134 H 0.90611 0.31475 0.1775 0.0
O135 O 0.98255 0.38057 0.00942 0.0
H136 H 0.91929 0.30747 0.95193 0.0
H137 H 0.01582 0.35497 0.95572 0.0
H138 H 0.80647 0.26868 0.11163 0.0
H139 H 0.97853 0.41657 0.16443 0.0
H140 H 0.80745 0.26981 0.18105 0.0
H141 H 0.92479 0.44684 0.17873 0.0
O142 O 0.92038 0.27676 0.06731 0.0
H143 H 0.08332 0.33317 0.06148 0.0
H144 H 0.00104 0.27368 0.98123 0.0
H145 H 0.05879 0.2505 0.9884 0.0
H146 H 0.10044 0.28037 0.02866 0.0
H147 H 0.0251 0.35518 0.05399 0.0
H148 H 0.01996 0.35239 0.88698 0.0
H149 H 0.97313 0.32673 0.85024 0.0
O150 O 0.94592 0.28714 0.01254 0.0
C151 C 0.89102 0.35365 0.02671 0.0
C152 C 0.94313 0.3153 0.89888 0.0
C153 C 0.9978 0.34241 0.90101 0.0
N154 N 0.96744 0.33117 0.95785 0.0
C155 C 0.94149 0.31718 0.93782 0.0
C156 C 0.99529 0.34386 0.93993 0.0
C157 C 0.97152 0.328 0.88042 0.0
C158 C 0.9534 0.37562 0.13583 0.0
N159 N 0.92318 0.36221 0.12447 0.0
C160 C 0.95447 0.40614 0.15556 0.0
C161 C 0.92433 0.42315 0.1635 0.0
C162 C 0.89361 0.40955 0.15159 0.0
C163 C 0.89354 0.37899 0.13192 0.0
C164 C 0.85704 0.29236 0.18377 0.0
C165 C 0.85599 0.29126 0.10639 0.0
C166 C 0.88436 0.30459 0.16294 0.0
N167 N 0.88353 0.30409 0.12472 0.0
C168 C 0.82821 0.27881 0.12631 0.0
C169 C 0.82879 0.27941 0.16526 0.0
C170 C 0.93015 0.26768 0.03484 0.0
C171 C 0.06541 0.31993 0.04383 0.0
C172 C 0.01887 0.28664 0.99913 0.0
C173 C 0.05161 0.27349 0.00291 0.0
C174 C 0.07499 0.29029 0.02546 0.0
N175 N 0.00965 0.31571 0.01729 0.0
C176 C 0.03245 0.33235 0.03937 0.0
Co177 Co 0.17362 0.93056 0.11128 0.0
Co178 Co 0.17237 0.97828 0.03 0.0
O179 O 0.16294 0.97168 0.08326 0.0
C180 C 0.21404 0.98084 0.15414 0.0
O181 O 0.22812 0.99062 0.12269 0.0
C182 C 0.09816 0.98193 0.03419 0.0
O183 O 0.1004 0.95573 0.05665 0.0
O184 O 0.15614 0.93205 0.01658 0.0
O185 O 0.15651 0.9018 0.06972 0.0
H186 H 0.21891 0.94697 0.90381 0.0
H187 H 0.13196 0.9846 0.14604 0.0
O188 O 0.191 0.9583 0.15406 0.0
H189 H 0.05974 0.88273 0.14677 0.0
H190 H 0.18027 0.85877 0.22752 0.0
H191 H 0.2043 0.86404 0.09234 0.0
H192 H 0.11802 0.88026 0.12183 0.0
H193 H 0.16611 0.91 0.19117 0.0
O194 O 0.12508 0.99596 0.02197 0.0
H195 H 0.20668 0.93827 0.97074 0.0
H196 H 0.15721 0.03384 0.97609 0.0
H197 H 0.21855 0.81219 0.12756 0.0
H198 H 0.07394 0.98817 0.17167 0.0
H199 H 0.20656 0.80934 0.19566 0.0
H200 H 0.03736 0.937 0.17197 0.0
O201 O 0.22016 0.92831 0.0893 0.0
H202 H 0.16491 0.0925 0.09142 0.0
H203 H 0.23483 0.01754 0.01231 0.0
H204 H 0.2561 0.07436 0.02882 0.0
H205 H 0.22098 0.11229 0.06857 0.0
H206 H 0.14477 0.03536 0.07448 0.0
H207 H 0.16857 0.04345 0.90908 0.0
H208 H 0.19979 -0.00011 0.87254 0.0
O209 O 0.21899 0.95971 0.03671 0.0
C210 C 0.15145 0.90465 0.03466 0.0
C211 C 0.20543 0.96622 0.91947 0.0
C212 C 0.17714 0.02035 0.92242 0.0
N213 N 0.18167 0.98572 0.9774 0.0
C214 C 0.19856 0.96149 0.95741 0.0
C215 C 0.17074 0.01475 0.96033 0.0
C216 C 0.19466 0.99589 0.90193 0.0
C217 C 0.11627 0.96217 0.14637 0.0
N218 N 0.12834 0.93225 0.13245 0.0
C219 C 0.08341 0.96437 0.16079 0.0
C220 C 0.06289 0.93566 0.16091 0.0
C221 C 0.07542 0.90521 0.14675 0.0
C222 C 0.10839 0.90398 0.13253 0.0
C223 C 0.18555 0.85968 0.19784 0.0
C224 C 0.19877 0.86291 0.12191 0.0
C225 C 0.17766 0.88865 0.17712 0.0
N226 N 0.18415 0.88992 0.1396 0.0
C227 C 0.207 0.83352 0.14173 0.0
C228 C 0.2003 0.83195 0.17995 0.0
C229 C 0.23413 0.94024 0.05989 0.0
C230 C 0.1804 0.07624 0.074 0.0
C231 C 0.21948 0.03387 0.02974 0.0
C232 C 0.23161 0.06603 0.03892 0.0
C233 C 0.21189 0.08731 0.06121 0.0
N234 N 0.18852 0.02327 0.04229 0.0
C235 C 0.16908 0.04392 0.06423 0.0
Co236 Co 0.56707 0.32587 0.40393 0.0
Co237 Co 0.52014 0.32934 0.48574 0.0
O238 O 0.5264 0.33795 0.43227 0.0
C239 C 0.5157 0.28507 0.36293 0.0
O240 O 0.50586 0.27184 0.3948 0.0
C241 C 0.51677 0.40381 0.48091 0.0
O242 O 0.54299 0.40204 0.45839 0.0
O243 O 0.56711 0.34484 0.49823 0.0
O244 O 0.59637 0.34407 0.44431 0.0
H245 H 0.55175 0.28235 0.61164 0.0
H246 H 0.51268 0.36741 0.36953 0.0
O247 O 0.53862 0.3077 0.36223 0.0
H248 H 0.6159 0.43747 0.36218 0.0
H249 H 0.63723 0.31444 0.28686 0.0
H250 H 0.63367 0.29539 0.42307 0.0
H251 H 0.6181 0.37997 0.38911 0.0
H252 H 0.58663 0.33045 0.3234 0.0
O253 O 0.50329 0.37677 0.4934 0.0
H254 H 0.55972 0.29372 0.54441 0.0
H255 H 0.46591 0.34678 0.54062 0.0
H256 H 0.68491 0.27932 0.38764 0.0
H257 H 0.50935 0.42462 0.34191 0.0
H258 H 0.68689 0.28879 0.31902 0.0
H259 H 0.56119 0.46013 0.33828 0.0
O260 O 0.56922 0.2798 0.42743 0.0
H261 H 0.4057 0.33834 0.42473 0.0
H262 H 0.47902 0.26867 0.50595 0.0
H263 H 0.42154 0.24856 0.49034 0.0
H264 H 0.38442 0.28356 0.44951 0.0
H265 H 0.46351 0.3573 0.44079 0.0
H266 H 0.45707 0.33626 0.60791 0.0
H267 H 0.50012 0.3037 0.64384 0.0
O268 O 0.53718 0.28238 0.47939 0.0
C269 C 0.5941 0.3496 0.47931 0.0
C270 C 0.53276 0.29649 0.59627 0.0
C271 C 0.47965 0.32679 0.59419 0.0
N272 N 0.5132 0.3207 0.53857 0.0
C273 C 0.53709 0.30293 0.55817 0.0
C274 C 0.48483 0.33274 0.55612 0.0
C275 C 0.50381 0.30851 0.61432 0.0
C276 C 0.53538 0.38266 0.36785 0.0
N277 N 0.56552 0.37047 0.38114 0.0
C278 C 0.53332 0.41505 0.35226 0.0
C279 C 0.56241 0.43498 0.35027 0.0
C280 C 0.5931 0.4223 0.36371 0.0
C281 C 0.59418 0.3898 0.37913 0.0
C282 C 0.63669 0.31024 0.31676 0.0
C283 C 0.63443 0.29983 0.39327 0.0
C284 C 0.60808 0.31917 0.3376 0.0
N285 N 0.60727 0.31406 0.3754 0.0
C286 C 0.66348 0.29058 0.37333 0.0
C287 C 0.66455 0.29586 0.33482 0.0
C288 C 0.5564 0.26645 0.45673 0.0
C289 C 0.42162 0.32289 0.44259 0.0
C290 C 0.46309 0.28392 0.488 0.0
C291 C 0.43053 0.27247 0.47936 0.0
C292 C 0.40971 0.29213 0.45647 0.0
N293 N 0.47456 0.31414 0.47433 0.0
C294 C 0.45432 0.33354 0.45186 0.0
Co295 Co 0.17391 0.57623 0.39031 0.0
Co296 Co 0.17052 0.53518 0.4759 0.0
O297 O 0.16534 0.53638 0.42144 0.0
C298 C 0.22471 0.529 0.35701 0.0
O299 O 0.23796 0.52427 0.39028 0.0
C300 C 0.09804 0.52137 0.46585 0.0
O301 O 0.09822 0.5458 0.44096 0.0
O302 O 0.14736 0.57986 0.48231 0.0
O303 O 0.14905 0.60569 0.42631 0.0
H304 H 0.20082 0.58247 0.60195 0.0
H305 H 0.14243 0.51476 0.35793 0.0
O306 O 0.19855 0.54758 0.35288 0.0
H307 H 0.05994 0.6068 0.33616 0.0
H308 H 0.18402 0.63879 0.26805 0.0
H309 H 0.1942 0.64725 0.40515 0.0
H310 H 0.11457 0.61839 0.3672 0.0
H311 H 0.17234 0.58929 0.30808 0.0
O312 O 0.12562 0.5121 0.48133 0.0
H313 H 0.19395 0.58392 0.53344 0.0
H314 H 0.15764 0.48269 0.53413 0.0
H315 H 0.20578 0.6975 0.36616 0.0
H316 H 0.08828 0.50207 0.32635 0.0
H317 H 0.20075 0.69342 0.29709 0.0
H318 H 0.04654 0.54827 0.31544 0.0
O319 O 0.21766 0.58593 0.41678 0.0
H320 H 0.1833 0.41666 0.42663 0.0
H321 H 0.23533 0.50575 0.50429 0.0
H322 H 0.26495 0.4511 0.49629 0.0
H323 H 0.23886 0.40606 0.4573 0.0
H324 H 0.1547 0.47183 0.43513 0.0
H325 H 0.16382 0.48022 0.60272 0.0
H326 H 0.18571 0.53032 0.63706 0.0
O327 O 0.2147 0.55862 0.47186 0.0
C328 C 0.14074 0.60472 0.46073 0.0
C329 C 0.1914 0.56042 0.5873 0.0
C330 C 0.17059 0.50305 0.58773 0.0
N331 N 0.17579 0.5333 0.52977 0.0
C332 C 0.18756 0.56106 0.54849 0.0
C333 C 0.1671 0.50461 0.54891 0.0
C334 C 0.18288 0.53117 0.60698 0.0
C335 C 0.12446 0.53502 0.35308 0.0
N336 N 0.13157 0.56726 0.36454 0.0
C337 C 0.09382 0.52767 0.33527 0.0
C338 C 0.07039 0.5536 0.32919 0.0
C339 C 0.07788 0.58644 0.34084 0.0
C340 C 0.10877 0.59283 0.35858 0.0
C341 C 0.18624 0.6409 0.29812 0.0
C342 C 0.19171 0.64536 0.37513 0.0
C343 C 0.17974 0.61293 0.32094 0.0
N344 N 0.18235 0.61545 0.35895 0.0
C345 C 0.1984 0.67386 0.35319 0.0
C346 C 0.19561 0.67155 0.31443 0.0
C347 C 0.22995 0.57767 0.44857 0.0
C348 C 0.19488 0.43605 0.44376 0.0
C349 C 0.22389 0.48632 0.48716 0.0
C350 C 0.24073 0.4554 0.48281 0.0
C351 C 0.22607 0.43014 0.46095 0.0
N352 N 0.19324 0.49186 0.47033 0.0
C353 C 0.17875 0.46727 0.44877 0.0
Co354 Co 0.92002 0.16928 0.37824 0.0
Co355 Co 0.96388 0.16402 0.46146 0.0
O356 O 0.9592 0.15497 0.40787 0.0
C357 C 0.97329 0.20166 0.33025 0.0
O358 O 0.98348 0.22035 0.35844 0.0
C359 C 0.96944 0.08961 0.45901 0.0
O360 O 0.94206 0.08994 0.43811 0.0
O361 O 0.91747 0.14642 0.47223 0.0
O362 O 0.88861 0.15875 0.41999 0.0
H363 H 0.92692 0.20873 0.58657 0.0
H364 H 0.96819 0.11866 0.34761 0.0
O365 O 0.95009 0.17967 0.33478 0.0
H366 H 0.85739 0.06098 0.35084 0.0
H367 H 0.85056 0.17799 0.26038 0.0
H368 H 0.85834 0.21029 0.39327 0.0
H369 H 0.86265 0.12036 0.37137 0.0
H370 H 0.89892 0.15905 0.29884 0.0
O371 O 0.98275 0.11741 0.46955 0.0
H372 H 0.92106 0.19711 0.51914 0.0
H373 H 0.01768 0.14927 0.5178 0.0
H374 H 0.80936 0.22949 0.3559 0.0
H375 H 0.96402 0.05932 0.32644 0.0
H376 H 0.80528 0.21339 0.28893 0.0
H377 H 0.90832 0.03006 0.32811 0.0
O378 O 0.92385 0.21681 0.39685 0.0
H379 H 0.08029 0.16041 0.40447 0.0
H380 H 0.00129 0.22683 0.48246 0.0
H381 H 0.05817 0.2496 0.46879 0.0
H382 H 0.09815 0.21626 0.42961 0.0
H383 H 0.02303 0.13872 0.4186 0.0
H384 H 0.02444 0.16005 0.58533 0.0
H385 H 0.97891 0.19013 0.62012 0.0
O386 O 0.94476 0.21038 0.45484 0.0
C387 C 0.88993 0.14845 0.45368 0.0
C388 C 0.94698 0.19569 0.5717 0.0
C389 C 0.0017 0.16834 0.57101 0.0
N390 N 0.96913 0.17281 0.5145 0.0
C391 C 0.94385 0.18913 0.53349 0.0
C392 C 0.9977 0.16224 0.5328 0.0
C393 C 0.97615 0.18522 0.59051 0.0
C394 C 0.94382 0.10618 0.3481 0.0
N395 N 0.91569 0.123 0.36061 0.0
C396 C 0.94163 0.07255 0.33621 0.0
C397 C 0.91038 0.05613 0.3372 0.0
C398 C 0.8818 0.07346 0.34997 0.0
C399 C 0.88495 0.10706 0.36167 0.0
C400 C 0.85203 0.18514 0.28954 0.0
C401 C 0.85664 0.20298 0.36421 0.0
C402 C 0.8794 0.17456 0.31145 0.0
N403 N 0.88139 0.18341 0.34834 0.0
C404 C 0.82889 0.21401 0.34316 0.0
C405 C 0.82662 0.20499 0.30558 0.0
C406 C 0.93145 0.2284 0.4291 0.0
C407 C 0.06313 0.17513 0.42165 0.0
C408 C 0.01849 0.21223 0.46526 0.0
C409 C 0.0507 0.22522 0.4577 0.0
C410 C 0.07312 0.20649 0.43573 0.0
N411 N 0.00894 0.18141 0.45145 0.0
C412 C 0.03073 0.16294 0.42982 0.0
Co413 Co 0.32305 0.92552 0.39769 0.0
Co414 Co 0.33753 0.96926 0.48007 0.0
O415 O 0.33823 0.96537 0.42553 0.0
C416 C 0.27355 0.97435 0.36341 0.0
O417 O 0.2588 0.97879 0.39593 0.0
C418 C 0.41067 0.9772 0.46478 0.0
O419 O 0.4089 0.95019 0.44347 0.0
O420 O 0.35778 0.9232 0.48668 0.0
O421 O 0.34698 0.89493 0.4334 0.0
H422 H 0.31427 0.92963 0.6111 0.0
H423 H 0.3594 0.98165 0.36 0.0
O424 O 0.29959 0.9554 0.36036 0.0
H425 H 0.42807 0.87945 0.33546 0.0
H426 H 0.29679 0.85971 0.28057 0.0
H427 H 0.29613 0.85799 0.41843 0.0
H428 H 0.37487 0.87568 0.37151 0.0
H429 H 0.31707 0.90901 0.31644 0.0
O430 O 0.384 0.9893 0.4798 0.0
H431 H 0.31504 0.92501 0.54235 0.0
H432 H 0.35916 0.02281 0.5338 0.0
H433 H 0.27596 0.80798 0.38363 0.0
H434 H 0.4122 0.98657 0.3234 0.0
H435 H 0.27617 0.80867 0.31419 0.0
H436 H 0.44701 0.93523 0.31105 0.0
O437 O 0.28051 0.92187 0.42824 0.0
H438 H 0.32918 0.08617 0.42519 0.0
H439 H 0.27785 0.00489 0.51322 0.0
H440 H 0.25181 0.06129 0.50503 0.0
H441 H 0.27757 0.10242 0.46083 0.0
H442 H 0.35423 0.02935 0.43401 0.0
H443 H 0.3591 0.02838 0.60249 0.0
H444 H 0.33641 0.98161 0.64161 0.0
O445 O 0.29166 0.94928 0.48183 0.0
C446 C 0.3592 0.89669 0.46635 0.0
C447 C 0.32411 0.95023 0.59436 0.0
C448 C 0.34931 0.00563 0.58952 0.0
N449 N 0.33688 0.97372 0.53408 0.0
C450 C 0.32454 0.9478 0.55541 0.0
C451 C 0.34934 0.00231 0.55065 0.0
C452 C 0.33657 0.97938 0.61146 0.0
C453 C 0.37437 0.95918 0.35465 0.0
N454 N 0.36422 0.92843 0.36814 0.0
C455 C 0.40426 0.96213 0.33395 0.0
C456 C 0.42379 0.93332 0.32705 0.0
C457 C 0.4132 0.90203 0.34078 0.0
C458 C 0.38318 0.90006 0.36138 0.0
C459 C 0.29663 0.85908 0.31082 0.0
C460 C 0.29655 0.85838 0.38822 0.0
C461 C 0.308 0.88696 0.3313 0.0
N462 N 0.308 0.8863 0.36952 0.0
C463 C 0.28499 0.83003 0.36866 0.0
C464 C 0.28508 0.83045 0.3297 0.0
C465 C 0.27226 0.9318 0.46101 0.0
C466 C 0.31777 0.0685 0.4446 0.0
C467 C 0.28911 0.02259 0.4938 0.0
C468 C 0.27431 0.05452 0.48936 0.0
C469 C 0.28879 0.07759 0.46457 0.0
N470 N 0.31761 0.01392 0.47421 0.0
C471 C 0.33189 0.03635 0.44978 0.0
Co472 Co 0.42719 0.82767 0.89409 0.0
Co473 Co 0.47192 0.84378 0.97547 0.0
O474 O 0.46726 0.84374 0.92098 0.0
C475 C 0.47859 0.78011 0.86149 0.0
O476 O 0.48516 0.76771 0.89477 0.0
C477 C 0.47706 0.91608 0.95708 0.0
O478 O 0.45283 0.91134 0.93248 0.0
O479 O 0.42535 0.86263 0.98259 0.0
O480 O 0.39679 0.85225 0.92939 0.0
H481 H 0.43474 0.8208 0.10743 0.0
H482 H 0.48256 0.86343 0.85426 0.0
O483 O 0.45694 0.80375 0.85726 0.0
H484 H 0.3794 0.93077 0.82972 0.0
H485 H 0.36039 0.79793 0.77862 0.0
H486 H 0.36007 0.80073 0.91646 0.0
H487 H 0.37657 0.87854 0.86747 0.0
H488 H 0.40989 0.81959 0.81325 0.0
O489 O 0.48975 0.891 0.97457 0.0
H490 H 0.42919 0.82064 0.03875 0.0
H491 H 0.52557 0.86752 0.028 0.0
H492 H 0.30986 0.77921 0.8829 0.0
H493 H 0.48651 0.91525 0.81593 0.0
H494 H 0.30986 0.77766 0.81348 0.0
H495 H 0.43469 0.9494 0.80359 0.0
O496 O 0.42428 0.78581 0.92585 0.0
H497 H 0.58832 0.83937 0.9186 0.0
H498 H 0.51021 0.7857 0.00846 0.0
H499 H 0.56743 0.76164 0.99936 0.0
H500 H 0.60694 0.78858 0.95421 0.0
H501 H 0.53074 0.86242 0.92837 0.0
H502 H 0.53204 0.86848 0.09659 0.0
H503 H 0.48646 0.84487 0.13678 0.0
O504 O 0.45363 0.79734 0.97811 0.0
C505 C 0.39881 0.86438 0.96233 0.0
C506 C 0.45483 0.83105 0.09022 0.0
C507 C 0.50942 0.85785 0.08413 0.0
N508 N 0.47715 0.8438 0.02939 0.0
C509 C 0.45187 0.83095 0.05131 0.0
C510 C 0.50559 0.85729 0.04532 0.0
C511 C 0.48384 0.84459 0.10667 0.0
C512 C 0.45987 0.87807 0.84886 0.0
N513 N 0.42939 0.8681 0.86329 0.0
C514 C 0.46228 0.90743 0.8272 0.0
C515 C 0.4332 0.92659 0.82031 0.0
C516 C 0.40218 0.91618 0.835 0.0
C517 C 0.40075 0.88669 0.85653 0.0
C518 C 0.36006 0.79854 0.80887 0.0
C519 C 0.36013 0.8004 0.88624 0.0
C520 C 0.38806 0.81069 0.82865 0.0
N521 N 0.38778 0.81164 0.86686 0.0
C522 C 0.33169 0.78808 0.8674 0.0
C523 C 0.33171 0.78718 0.82844 0.0
C524 C 0.43541 0.77782 0.95826 0.0
C525 C 0.57136 0.82745 0.93841 0.0
C526 C 0.52722 0.79748 0.98866 0.0
C527 C 0.55961 0.78379 0.98369 0.0
C528 C 0.58178 0.79893 0.95838 0.0
N529 N 0.51724 0.82552 0.96906 0.0
C530 C 0.53879 0.84046 0.94414 0.0
Co531 Co 0.66454 0.414 0.8725 0.0
Co532 Co 0.65799 0.45689 0.95666 0.0
O533 O 0.65192 0.4534 0.90249 0.0
C534 C 0.70704 0.46719 0.83695 0.0
O535 O 0.71883 0.4752 0.87011 0.0
C536 C 0.58405 0.46111 0.94633 0.0
O537 O 0.58781 0.43671 0.92178 0.0
O538 O 0.64143 0.40996 0.96533 0.0
O539 O 0.64466 0.38273 0.91033 0.0
H540 H 0.6972 0.41831 0.08345 0.0
H541 H 0.62504 0.47012 0.83863 0.0
O542 O 0.68456 0.44432 0.83346 0.0
H543 H 0.55369 0.3685 0.82403 0.0
H544 H 0.67958 0.34965 0.75204 0.0
H545 H 0.69423 0.34651 0.88893 0.0
H546 H 0.61013 0.36447 0.85349 0.0
H547 H 0.66253 0.39843 0.79087 0.0
O548 O 0.61005 0.47374 0.96235 0.0
H549 H 0.68946 0.41379 0.01522 0.0
H550 H 0.63858 0.50874 0.01331 0.0
H551 H 0.71131 0.29703 0.85117 0.0
H552 H 0.56891 0.47529 0.80861 0.0
H553 H 0.70406 0.29844 0.78221 0.0
H554 H 0.53276 0.42424 0.80132 0.0
O555 O 0.7096 0.41049 0.8979 0.0
H556 H 0.65312 0.57454 0.90326 0.0
H557 H 0.71866 0.49545 0.98207 0.0
H558 H 0.74022 0.55331 0.97151 0.0
H559 H 0.70729 0.59332 0.93193 0.0
H560 H 0.63265 0.51633 0.91433 0.0
H561 H 0.64546 0.51417 0.08162 0.0
H562 H 0.67509 0.4688 0.11711 0.0
O563 O 0.70524 0.43913 0.95215 0.0
C564 C 0.63758 0.38372 0.94508 0.0
C565 C 0.68437 0.43832 0.06828 0.0
C566 C 0.6553 0.4921 0.06725 0.0
N567 N 0.66394 0.46115 0.01027 0.0
C568 C 0.68004 0.43596 0.02962 0.0
C569 C 0.65143 0.48887 0.0286 0.0
C570 C 0.67193 0.46664 0.08715 0.0
C571 C 0.60955 0.44776 0.83528 0.0
N572 N 0.62081 0.41703 0.84784 0.0
C573 C 0.57775 0.45086 0.81838 0.0
C574 C 0.55747 0.42221 0.81433 0.0
C575 C 0.56918 0.39094 0.8271 0.0
C576 C 0.6011 0.38881 0.8439 0.0
C577 C 0.6828 0.34871 0.78207 0.0
C578 C 0.69073 0.3472 0.85896 0.0
C579 C 0.67325 0.37627 0.80421 0.0
N580 N 0.67713 0.37521 0.84217 0.0
C581 C 0.70056 0.31915 0.83772 0.0
C582 C 0.69652 0.31997 0.79902 0.0
C583 C 0.72187 0.42103 0.92885 0.0
C584 C 0.66764 0.55737 0.92064 0.0
C585 C 0.70428 0.51268 0.9647 0.0
C586 C 0.71656 0.54543 0.95889 0.0
C587 C 0.69807 0.56788 0.9367 0.0
N588 N 0.67435 0.50263 0.94897 0.0
C589 C 0.65613 0.52443 0.92709 0.0
Co590 Co 0.07914 0.67886 0.89807 0.0
Co591 Co 0.03436 0.66572 0.98011 0.0
O592 O 0.03812 0.66628 0.92553 0.0
C593 C 0.03488 0.73253 0.86348 0.0
O594 O 0.03275 0.74857 0.89554 0.0
C595 C 0.01929 0.59495 0.96157 0.0
O596 O 0.04591 0.59566 0.93952 0.0
O597 O 0.07828 0.6408 0.98565 0.0
O598 O 0.10794 0.65235 0.93342 0.0
H599 H 0.07652 0.67946 0.11184 0.0
H600 H 0.02076 0.64707 0.85941 0.0
O601 O 0.05103 0.70465 0.86093 0.0
H602 H 0.11813 0.57167 0.83473 0.0
H603 H 0.14735 0.70154 0.78162 0.0
H604 H 0.14837 0.70067 0.91949 0.0
H605 H 0.1254 0.62396 0.87158 0.0
H606 H 0.09643 0.68462 0.81697 0.0
O607 O 0.00969 0.6217 0.97832 0.0
H608 H 0.08105 0.68042 0.04308 0.0
H609 H 0.97856 0.64875 0.03318 0.0
H610 H 0.19998 0.71743 0.8852 0.0
H611 H 0.01238 0.59526 0.822 0.0
H612 H 0.19965 0.71797 0.81577 0.0
H613 H 0.06127 0.55707 0.80958 0.0
O614 O 0.0856 0.72054 0.92943 0.0
H615 H 0.91874 0.68774 0.92614 0.0
H616 H 0.00515 0.72775 0.01543 0.0
H617 H 0.95171 0.75974 0.00837 0.0
H618 H 0.90802 0.7397 0.96353 0.0
H619 H 0.9727 0.65667 0.93387 0.0
H620 H 0.97297 0.64721 0.10184 0.0
H621 H 0.02215 0.66279 0.14166 0.0
O622 O 0.05899 0.7091 0.98352 0.0
C623 C 0.10491 0.6386 0.96551 0.0
C624 C 0.05486 0.67278 0.0948 0.0
C625 C 0.99675 0.65464 0.08918 0.0
N626 N 0.02999 0.66508 0.03414 0.0
C627 C 0.05724 0.67338 0.05585 0.0
C628 C 8e-05 0.65554 0.05032 0.0
C629 C 0.02436 0.66338 0.11151 0.0
C630 C 0.04218 0.63065 0.85399 0.0
N631 N 0.07351 0.63841 0.86787 0.0
C632 C 0.03727 0.60132 0.83285 0.0
C633 C 0.0647 0.57989 0.82591 0.0
C634 C 0.0966 0.58804 0.84004 0.0
C635 C 0.10055 0.61758 0.86107 0.0
C636 C 0.14782 0.70136 0.81187 0.0
C637 C 0.14811 0.70061 0.88927 0.0
C638 C 0.11903 0.69189 0.83206 0.0
N639 N 0.11949 0.69145 0.87028 0.0
C640 C 0.17737 0.71023 0.87001 0.0
C641 C 0.17716 0.71056 0.83105 0.0
C642 C 0.0773 0.72799 0.963 0.0
C643 C 0.93755 0.69667 0.94584 0.0
C644 C 0.98632 0.71894 0.99575 0.0
C645 C 0.95607 0.73711 0.99195 0.0
C646 C 0.93156 0.72584 0.9668 0.0
N647 N 0.99193 0.69027 0.9752 0.0
C648 C 0.96808 0.67913 0.95041 0.0
Co649 Co 0.82742 0.06568 0.89969 0.0
Co650 Co 0.83198 0.01608 0.97968 0.0
O651 O 0.83866 0.02351 0.92579 0.0
C652 C 0.79718 0.01008 0.85104 0.0
O653 O 0.80804 0.98529 0.87236 0.0
C654 C 0.90612 0.01168 0.97086 0.0
O655 O 0.90347 0.0376 0.94807 0.0
O656 O 0.84904 0.06214 0.99298 0.0
O657 O 0.84972 0.09225 0.93973 0.0
H658 H 0.79282 0.04586 0.10932 0.0
H659 H 0.8663 0.01039 0.86158 0.0
O660 O 0.80371 0.04094 0.85846 0.0
H661 H 0.93805 0.11201 0.8518 0.0
H662 H 0.81315 0.14138 0.78728 0.0
H663 H 0.80176 0.13276 0.92425 0.0
H664 H 0.88239 0.11492 0.88294 0.0
H665 H 0.82834 0.08847 0.82003 0.0
O666 O 0.87951 0.99825 0.98463 0.0
H667 H 0.80156 0.05552 0.04189 0.0
H668 H 0.84937 0.95946 0.03147 0.0
H669 H 0.78665 0.18627 0.89265 0.0
H670 H 0.92142 0.00645 0.82975 0.0
H671 H 0.79228 0.1908 0.82366 0.0
H672 H 0.95787 0.05749 0.82475 0.0
O673 O 0.78308 0.06897 0.92612 0.0
H674 H 0.83735 0.90187 0.91793 0.0
H675 H 0.7701 0.97678 0.99983 0.0
H676 H 0.74837 0.91994 0.98427 0.0
H677 H 0.78214 0.88201 0.94314 0.0
H678 H 0.8579 0.9591 0.9338 0.0
H679 H 0.8415 0.94888 0.09889 0.0
H680 H 0.81288 0.9922 0.13826 0.0
O681 O 0.78503 0.03467 0.97634 0.0
C682 C 0.85533 0.08903 0.97458 0.0
C683 C 0.80515 0.0267 0.09243 0.0
C684 C 0.8325 0.97229 0.08658 0.0
N685 N 0.82542 0.00785 0.03266 0.0
C686 C 0.81 0.03196 0.05419 0.0
C687 C 0.8369 0.97843 0.04843 0.0
C688 C 0.81644 0.99661 0.10865 0.0
C689 C 0.88154 0.03286 0.85903 0.0
N690 N 0.87066 0.06297 0.87363 0.0
C691 C 0.91296 0.03042 0.84118 0.0
C692 C 0.93344 0.05904 0.83846 0.0
C693 C 0.92234 0.08961 0.85363 0.0
C694 C 0.89078 0.09109 0.87128 0.0
C695 C 0.81066 0.13974 0.81735 0.0
C696 C 0.80455 0.13463 0.89425 0.0
C697 C 0.81914 0.10982 0.83605 0.0
N698 N 0.81621 0.10762 0.87407 0.0
C699 C 0.79583 0.16495 0.8765 0.0
C700 C 0.79896 0.16746 0.83779 0.0
C701 C 0.7697 0.0557 0.9551 0.0
C702 C 0.82243 0.91814 0.93593 0.0
C703 C 0.7848 0.96053 0.98166 0.0
C704 C 0.77244 0.92832 0.97308 0.0
C705 C 0.79143 0.90703 0.95004 0.0
N706 N 0.81525 0.97121 0.96773 0.0
C707 C 0.83401 0.9505 0.94514 0.0
Co708 Co 0.43025 0.673 0.62099 0.0
Co709 Co 0.46845 0.66826 0.53394 0.0
O710 O 0.46826 0.66162 0.58818 0.0
C711 C 0.48325 0.71676 0.65544 0.0
O712 O 0.48865 0.73102 0.62282 0.0
C713 C 0.47698 0.59458 0.54145 0.0
O714 O 0.4525 0.59592 0.56628 0.0
O715 O 0.4219 0.64912 0.52833 0.0
O716 O 0.39744 0.65324 0.58487 0.0
H717 H 0.42063 0.70625 0.41057 0.0
H718 H 0.48895 0.63362 0.64936 0.0
O719 O 0.46216 0.6926 0.65861 0.0
H720 H 0.38923 0.56094 0.67082 0.0
H721 H 0.37221 0.6851 0.74577 0.0
H722 H 0.36137 0.70155 0.60961 0.0
H723 H 0.38265 0.61779 0.64306 0.0
H724 H 0.41906 0.66935 0.7035 0.0
O725 O 0.48791 0.62177 0.52654 0.0
H726 H 0.42039 0.69765 0.47886 0.0
H727 H 0.51813 0.6524 0.47356 0.0
H728 H 0.31374 0.71729 0.65087 0.0
H729 H 0.49672 0.5771 0.67763 0.0
H730 H 0.31904 0.70917 0.71949 0.0
H731 H 0.44664 0.54027 0.68836 0.0
O732 O 0.42448 0.71849 0.59691 0.0
H733 H 0.58895 0.66997 0.57956 0.0
H734 H 0.50214 0.73109 0.50646 0.0
H735 H 0.55919 0.75585 0.51341 0.0
H736 H 0.60309 0.72517 0.5501 0.0
H737 H 0.53145 0.64627 0.57214 0.0
H738 H 0.51931 0.66023 0.40513 0.0
H739 H 0.47036 0.68746 0.37322 0.0
O740 O 0.44853 0.71416 0.5401 0.0
C741 C 0.39678 0.64529 0.55035 0.0
C742 C 0.44216 0.69446 0.42416 0.0
C743 C 0.49753 0.66859 0.42111 0.0
N744 N 0.46935 0.67484 0.48021 0.0
C745 C 0.44222 0.68962 0.46284 0.0
C746 C 0.49669 0.66418 0.45984 0.0
C747 C 0.47006 0.68388 0.40322 0.0
C748 C 0.46702 0.6178 0.65413 0.0
N749 N 0.43538 0.62889 0.64435 0.0
C750 C 0.47159 0.5858 0.67007 0.0
C751 C 0.44348 0.56514 0.67605 0.0
C752 C 0.41127 0.5767 0.66617 0.0
C753 C 0.4077 0.60883 0.65026 0.0
C754 C 0.36957 0.6887 0.71591 0.0
C755 C 0.36375 0.69765 0.63941 0.0
C756 C 0.39605 0.6799 0.69183 0.0
N757 N 0.39287 0.6843 0.65407 0.0
C758 C 0.33674 0.70672 0.66264 0.0
C759 C 0.33974 0.70219 0.70115 0.0
C760 C 0.43215 0.73065 0.56489 0.0
C761 C 0.57007 0.68353 0.56343 0.0
C762 C 0.52107 0.71766 0.52259 0.0
C763 C 0.55335 0.73176 0.52635 0.0
C764 C 0.57797 0.71453 0.54692 0.0
N765 N 0.51357 0.68719 0.53874 0.0
C766 C 0.53752 0.67019 0.55904 0.0
Co767 Co 0.82678 0.42194 0.59907 0.0
Co768 Co 0.8366 0.46602 0.51603 0.0
O769 O 0.83937 0.46231 0.57052 0.0
C770 C 0.77807 0.47115 0.63288 0.0
O771 O 0.7657 0.47764 0.59956 0.0
C772 C 0.90954 0.47648 0.5293 0.0
O773 O 0.90847 0.45047 0.55216 0.0
O774 O 0.85814 0.42064 0.50863 0.0
O775 O 0.85102 0.39233 0.56266 0.0
H776 H 0.80985 0.42529 0.38626 0.0
H777 H 0.86143 0.47973 0.63554 0.0
O778 O 0.80287 0.45077 0.63687 0.0
H779 H 0.93566 0.38095 0.65747 0.0
H780 H 0.80688 0.35547 0.71731 0.0
H781 H 0.80232 0.35321 0.57954 0.0
H782 H 0.88168 0.37463 0.6233 0.0
H783 H 0.82391 0.40549 0.68054 0.0
O784 O 0.88245 0.48739 0.51409 0.0
H785 H 0.8134 0.42085 0.45493 0.0
H786 H 0.85437 0.52014 0.46125 0.0
H787 H 0.78539 0.30249 0.61523 0.0
H788 H 0.91497 0.48717 0.67027 0.0
H789 H 0.78756 0.30345 0.68463 0.0
H790 H 0.95257 0.43757 0.68128 0.0
O791 O 0.78345 0.4164 0.57024 0.0
H792 H 0.82652 0.58267 0.5711 0.0
H793 H 0.77458 0.49963 0.4856 0.0
H794 H 0.74698 0.55513 0.49502 0.0
H795 H 0.77303 0.59713 0.53796 0.0
H796 H 0.85311 0.52672 0.56109 0.0
H797 H 0.8515 0.52556 0.39261 0.0
H798 H 0.82899 0.47795 0.35466 0.0
O799 O 0.79133 0.4446 0.51642 0.0
C800 C 0.86174 0.39441 0.5291 0.0
C801 C 0.8196 0.44625 0.4025 0.0
C802 C 0.84302 0.50251 0.40606 0.0
N803 N 0.8338 0.47031 0.46209 0.0
C804 C 0.82159 0.44392 0.4414 0.0
C805 C 0.84463 0.49927 0.44491 0.0
C806 C 0.83037 0.47579 0.38478 0.0
C807 C 0.87761 0.458 0.64034 0.0
N808 N 0.86859 0.42681 0.62716 0.0
C809 C 0.90792 0.46238 0.65997 0.0
C810 C 0.92901 0.43455 0.66612 0.0
C811 C 0.91956 0.40278 0.65272 0.0
C812 C 0.88908 0.39938 0.6332 0.0
C813 C 0.80588 0.35472 0.68708 0.0
C814 C 0.8036 0.35372 0.60972 0.0
C815 C 0.81542 0.383 0.6661 0.0
N816 N 0.81434 0.38219 0.6279 0.0
C817 C 0.79387 0.32497 0.62979 0.0
C818 C 0.79506 0.32554 0.66873 0.0
C819 C 0.77349 0.42623 0.53802 0.0
C820 C 0.81497 0.56461 0.55225 0.0
C821 C 0.78599 0.51772 0.50444 0.0
C822 C 0.7703 0.54914 0.50959 0.0
C823 C 0.78494 0.57269 0.53368 0.0
N824 N 0.81551 0.51004 0.52266 0.0
C825 C 0.82996 0.53296 0.54639 0.0
Co826 Co 0.07298 0.83172 0.60821 0.0
Co827 Co 0.02423 0.82914 0.52762 0.0
O828 O 0.03093 0.83979 0.5806 0.0
C829 C 0.02551 0.78925 0.65281 0.0
O830 O 0.01604 0.77406 0.62188 0.0
C831 C 0.01556 0.90309 0.52992 0.0
O832 O 0.04241 0.90347 0.55159 0.0
O833 O 0.06936 0.84796 0.5132 0.0
O834 O 0.10018 0.85007 0.566 0.0
H835 H 0.05681 0.78205 0.40209 0.0
H836 H 0.01682 0.87086 0.64251 0.0
O837 O 0.04679 0.81343 0.65172 0.0
H838 H 0.11502 0.94806 0.64246 0.0
H839 H 0.14652 0.83027 0.72338 0.0
H840 H 0.14094 0.80474 0.58857 0.0
H841 H 0.12046 0.88979 0.61825 0.0
H842 H 0.09408 0.84115 0.68772 0.0
O843 O 0.00337 0.87491 0.51892 0.0
H844 H 0.06548 0.79593 0.46862 0.0
H845 H 0.96728 0.84014 0.47414 0.0
H846 H 0.19401 0.7938 0.6231 0.0
H847 H 0.0103 0.9288 0.66746 0.0
H848 H 0.19701 0.80655 0.69102 0.0
H849 H 0.0596 0.96788 0.66737 0.0
O850 O 0.07763 0.78503 0.58691 0.0
H851 H 0.91052 0.83039 0.59098 0.0
H852 H 0.98855 0.76424 0.51151 0.0
H853 H 0.93332 0.7398 0.52937 0.0
H854 H 0.89385 0.77299 0.56931 0.0
H855 H 0.96613 0.85374 0.57269 0.0
H856 H 0.95767 0.82705 0.40754 0.0
H857 H 0.00258 0.79765 0.3711 0.0
O858 O 0.04556 0.78396 0.53488 0.0
C859 C 0.09658 0.85462 0.53094 0.0
C860 C 0.037 0.79475 0.41769 0.0
C861 C 0.98137 0.82005 0.42075 0.0
N862 N 0.01678 0.81851 0.47533 0.0
C863 C 0.04172 0.80258 0.45541 0.0
C864 C 0.98698 0.82745 0.45842 0.0
C865 C 0.00658 0.80354 0.40032 0.0
C866 C 0.03843 0.88767 0.6426 0.0
N867 N 0.06896 0.87703 0.62878 0.0
C868 C 0.03457 0.92047 0.65667 0.0
C869 C 0.06224 0.94239 0.65657 0.0
C870 C 0.09332 0.9313 0.64256 0.0
C871 C 0.09623 0.89834 0.6287 0.0
C872 C 0.14555 0.82466 0.69378 0.0
C873 C 0.14213 0.8106 0.61806 0.0
C874 C 0.11589 0.83069 0.67345 0.0
N875 N 0.11452 0.82382 0.63602 0.0
C876 C 0.17221 0.80424 0.63749 0.0
C877 C 0.17387 0.81137 0.67561 0.0
C878 C 0.06603 0.7701 0.55791 0.0
C879 C 0.92746 0.81571 0.57348 0.0
C880 C 0.97155 0.77878 0.52901 0.0
C881 C 0.94028 0.76484 0.53896 0.0
C882 C 0.91814 0.78349 0.56135 0.0
N883 N 0.98043 0.81045 0.54092 0.0
C884 C 0.95892 0.82885 0.56295 0.0
Co885 Co 0.668 0.084 0.60556 0.0
Co886 Co 0.67181 0.0274 0.53159 0.0
O887 O 0.65973 0.03971 0.58303 0.0
C888 C 0.70272 0.0374 0.65912 0.0
O889 O 0.71687 0.02134 0.63098 0.0
C890 C 0.59817 0.02009 0.53297 0.0
O891 O 0.59827 0.04889 0.55128 0.0
O892 O 0.6531 0.07053 0.51083 0.0
O893 O 0.65308 0.10718 0.55898 0.0
H894 H 0.72077 0.04589 0.4034 0.0
H895 H 0.62442 0.03412 0.64458 0.0
O896 O 0.6826 0.06209 0.65322 0.0
H897 H 0.55156 0.1341 0.6237 0.0
H898 H 0.66527 0.16987 0.70971 0.0
H899 H 0.69959 0.14781 0.57937 0.0
H900 H 0.61142 0.13437 0.60373 0.0
H901 H 0.65427 0.11435 0.68054 0.0
O902 O 0.62619 0.0059 0.52442 0.0
H903 H 0.70529 0.06199 0.46778 0.0
H904 H 0.6627 0.96476 0.48635 0.0
H905 H 0.71079 0.20382 0.60733 0.0
H906 H 0.56477 0.03291 0.66545 0.0
H907 H 0.6936 0.21512 0.67297 0.0
H908 H 0.52787 0.0831 0.65485 0.0
O909 O 0.71592 0.08404 0.58758 0.0
H910 H 0.66941 0.9215 0.60947 0.0
H911 H 0.73747 0.9907 0.52267 0.0
H912 H 0.76184 0.9381 0.54873 0.0
H913 H 0.72768 0.90309 0.59241 0.0
H914 H 0.64617 0.97445 0.58298 0.0
H915 H 0.67734 0.94763 0.422 0.0
H916 H 0.70676 0.98829 0.38011 0.0
O917 O 0.71671 0.04978 0.53709 0.0
C918 C 0.64802 0.09977 0.5248 0.0
C919 C 0.70814 0.02787 0.42144 0.0
C920 C 0.68371 0.97275 0.43187 0.0
N921 N 0.68363 0.0142 0.48099 0.0
C922 C 0.69949 0.03681 0.458 0.0
C923 C 0.67546 0.9826 0.46826 0.0
C924 C 0.70022 0.99557 0.40838 0.0
C925 C 0.6086 0.05617 0.64023 0.0
N926 N 0.6214 0.08428 0.62301 0.0
C927 C 0.57482 0.0553 0.65197 0.0
C928 C 0.55411 0.08345 0.64597 0.0
C929 C 0.56738 0.11207 0.62848 0.0
C930 C 0.60127 0.11204 0.61715 0.0
C931 C 0.67286 0.16526 0.68108 0.0
C932 C 0.69188 0.1526 0.60789 0.0
C933 C 0.6668 0.13383 0.66445 0.0
N934 N 0.67616 0.12789 0.62824 0.0
C935 C 0.69836 0.18433 0.6236 0.0
C936 C 0.68874 0.19065 0.66044 0.0
C937 C 0.73075 0.07056 0.55958 0.0
C938 C 0.68451 0.9365 0.59039 0.0
C939 C 0.72252 0.97564 0.54176 0.0
C940 C 0.73641 0.94585 0.55635 0.0
C941 C 0.71722 0.9262 0.58084 0.0
N942 N 0.69038 0.98549 0.55119 0.0
C943 C 0.67143 0.96641 0.57521 0.0
H944 H 0.57243 0.24517 0.99185 0.0
H945 H 0.60783 0.27606 0.10087 0.0
H946 H 0.62878 0.3293 0.07408 0.0
H947 H 0.63823 0.36613 0.01896 0.0
H948 H 0.60528 0.33186 0.91019 0.0
H949 H 0.58227 0.28057 0.93785 0.0
C950 C 0.58461 0.26343 0.01003 0.0
C951 C 0.58848 0.25654 0.0484 0.0
C952 C 0.59716 0.29332 0.99441 0.0
C953 C 0.60452 0.28067 0.07124 0.0
C954 C 0.61651 0.31108 0.05592 0.0
C955 C 0.62585 0.34749 0.00139 0.0
C956 C 0.62342 0.3529 0.96252 0.0
C957 C 0.61315 0.31755 0.01744 0.0
C958 C 0.60764 0.32835 0.94008 0.0
C959 C 0.59439 0.299 0.95589 0.0
H960 H 0.13063 0.6373 0.03617 0.0
H961 H 0.14466 0.59571 0.92581 0.0
H962 H 0.19652 0.56738 0.94597 0.0
H963 H 0.24007 0.5581 0.9932 0.0
H964 H 0.22899 0.60272 0.10274 0.0
H965 H 0.17366 0.62568 0.08491 0.0
C966 C 0.14486 0.62163 0.0168 0.0
C967 C 0.13408 0.61883 0.97947 0.0
C968 C 0.17527 0.60607 0.02839 0.0
C969 C 0.15279 0.59869 0.95449 0.0
C970 C 0.18238 0.58237 0.96605 0.0
C971 C 0.2255 0.57252 0.01342 0.0
C972 C 0.23891 0.57882 0.04918 0.0
C973 C 0.19425 0.58649 0.00267 0.0
C974 C 0.21945 0.5976 0.07491 0.0
C975 C 0.1878 0.61082 0.06473 0.0
H976 H 0.89741 0.13514 0.94506 0.0
H977 H 0.8469 0.10838 0.04773 0.0
H978 H 0.86707 0.16099 0.07681 0.0
H979 H 0.89575 0.21664 0.07088 0.0
H980 H 0.94592 0.24131 0.96678 0.0
H981 H 0.92903 0.18748 0.94058 0.0
C982 C 0.89084 0.14074 0.97384 0.0
C983 C 0.87032 0.1183 0.99404 0.0
C984 C 0.90231 0.17077 0.99008 0.0
C985 C 0.86268 0.12542 0.03161 0.0
C986 C 0.87404 0.15553 0.04813 0.0
C987 C 0.90322 0.2101 0.0426 0.0
C988 C 0.92182 0.23336 0.02088 0.0
C989 C 0.89337 0.17875 0.02733 0.0
C990 C 0.93145 0.22425 0.9843 0.0
C991 C 0.9218 0.19336 0.9691 0.0
H992 H 0.37465 0.86627 0.0338 0.0
H993 H 0.35699 0.90523 0.92279 0.0
H994 H 0.3067 0.9352 0.94444 0.0
H995 H 0.26617 0.94775 0.99347 0.0
H996 H 0.27979 0.90552 0.10385 0.0
H997 H 0.33361 0.88009 0.08416 0.0
C998 C 0.35981 0.88152 0.01454 0.0
C999 C 0.36922 0.88323 0.97665 0.0
C1000 C 0.33032 0.89818 0.02707 0.0
C1001 C 0.34986 0.90297 0.95187 0.0
C1002 C 0.32123 0.92032 0.96429 0.0
C1003 C 0.2809 0.93326 0.01348 0.0
C1004 C 0.26874 0.92846 0.05005 0.0
C1005 C 0.31096 0.91769 0.00164 0.0
C1006 C 0.28845 0.90958 0.07546 0.0
C1007 C 0.31917 0.8949 0.06418 0.0
H1008 H 0.6087 0.2276 0.42958 0.0
H1009 H 0.52472 0.22595 0.50728 0.0
H1010 H 0.5442 0.17218 0.53225 0.0
H1011 H 0.58815 0.12892 0.53717 0.0
H1012 H 0.67296 0.12941 0.46143 0.0
H1013 H 0.64993 0.18002 0.43006 0.0
C1014 C 0.59432 0.21515 0.45146 0.0
C1015 C 0.56554 0.23118 0.46684 0.0
C1016 C 0.60596 0.18416 0.46625 0.0
C1017 C 0.54719 0.21457 0.49516 0.0
C1018 C 0.5583 0.18375 0.50957 0.0
C1019 C 0.6013 0.13997 0.51349 0.0
C1020 C 0.63219 0.12608 0.50169 0.0
C1021 C 0.58815 0.16892 0.49616 0.0
C1022 C 0.64901 0.13995 0.47074 0.0
C1023 C 0.63595 0.1689 0.45306 0.0
H1024 H 0.37402 0.64368 0.47795 0.0
H1025 H 0.34835 0.61262 0.59025 0.0
H1026 H 0.29573 0.58816 0.56808 0.0
H1027 H 0.25658 0.57648 0.51798 0.0
H1028 H 0.27852 0.60943 0.40547 0.0
H1029 H 0.33316 0.6322 0.4266 0.0
C1030 C 0.35696 0.63137 0.49746 0.0
C1031 C 0.36526 0.62995 0.53576 0.0
C1032 C 0.32609 0.61779 0.48457 0.0
C1033 C 0.3427 0.61423 0.56074 0.0
C1034 C 0.31254 0.60015 0.54808 0.0
C1035 C 0.27318 0.58853 0.49783 0.0
C1036 C 0.26339 0.59117 0.46015 0.0
C1037 C 0.30393 0.60196 0.5102 0.0
C1038 C 0.28538 0.6071 0.43468 0.0
C1039 C 0.31661 0.62009 0.44675 0.0
H1040 H 0.86343 0.37158 0.4569 0.0
H1041 H 0.90217 0.35119 0.5675 0.0
H1042 H 0.93024 0.30026 0.54499 0.0
H1043 H 0.94056 0.25965 0.49568 0.0
H1044 H 0.89911 0.27622 0.38538 0.0
H1045 H 0.87603 0.33086 0.40577 0.0
C1046 C 0.87831 0.35609 0.47588 0.0
C1047 C 0.88038 0.36494 0.51395 0.0
C1048 C 0.89393 0.3262 0.46283 0.0
C1049 C 0.89965 0.34465 0.53829 0.0
C1050 C 0.91589 0.31558 0.52539 0.0
C1051 C 0.92676 0.27518 0.47578 0.0
C1052 C 0.92144 0.26356 0.43906 0.0
C1053 C 0.91266 0.30581 0.48795 0.0
C1054 C 0.90362 0.28441 0.41384 0.0
C1055 C 0.89023 0.3156 0.42555 0.0
H1056 H 0.14504 0.89533 0.55858 0.0
H1057 H 0.11335 0.84614 0.45689 0.0
H1058 H 0.16463 0.86656 0.42515 0.0
H1059 H 0.22021 0.89615 0.42789 0.0
H1060 H 0.24915 0.94576 0.53092 0.0
H1061 H 0.19723 0.92731 0.56032 0.0
C1062 C 0.14924 0.88903 0.52947 0.0
C1063 C 0.12571 0.86891 0.51031 0.0
C1064 C 0.17843 0.90086 0.5116 0.0
C1065 C 0.1312 0.86161 0.4723 0.0
C1066 C 0.16056 0.87315 0.45422 0.0
C1067 C 0.21503 0.90309 0.45667 0.0
C1068 C 0.23897 0.92208 0.47707 0.0
C1069 C 0.18465 0.89246 0.47379 0.0
C1070 C 0.23157 0.93102 0.51433 0.0
C1071 C 0.20177 0.92048 0.53138 0.0
H1072 H 0.39764 0.72622 0.92765 0.0
H1073 H 0.45138 0.75542 0.02803 0.0
H1074 H 0.43208 0.70476 0.05943 0.0
H1075 H 0.39842 0.65334 0.06004 0.0
H1076 H 0.34612 0.62133 0.96034 0.0
H1077 H 0.36653 0.6717 0.92713 0.0
C1078 C 0.40534 0.72136 0.95626 0.0
C1079 C 0.4257 0.74499 0.97534 0.0
C1080 C 0.39429 0.69172 0.97449 0.0
C1081 C 0.43558 0.73802 0.01244 0.0
C1082 C 0.42452 0.70897 0.03066 0.0
C1083 C 0.3914 0.65739 0.03108 0.0
C1084 C 0.37047 0.63398 0.01284 0.0
C1085 C 0.40353 0.68594 0.01218 0.0
C1086 C 0.3622 0.63914 0.97501 0.0
C1087 C 0.3738 0.66794 0.95606 0.0
H1088 H 0.75128 0.42595 0.99715 0.0
H1089 H 0.77062 0.39106 0.88475 0.0
H1090 H 0.82588 0.36892 0.90442 0.0
H1091 H 0.8674 0.35657 0.95478 0.0
H1092 H 0.84488 0.38886 0.06733 0.0
H1093 H 0.79223 0.41472 0.04634 0.0
C1094 C 0.76757 0.41376 0.97673 0.0
C1095 C 0.75663 0.41015 0.93952 0.0
C1096 C 0.79875 0.4003 0.98839 0.0
C1097 C 0.77827 0.39414 0.91364 0.0
C1098 C 0.80988 0.3814 0.92487 0.0
C1099 C 0.85103 0.3695 0.97456 0.0
C1100 C 0.85997 0.37052 0.01266 0.0
C1101 C 0.82019 0.38388 0.96235 0.0
C1102 C 0.83843 0.38722 0.03802 0.0
C1103 C 0.80833 0.40219 0.026 0.0
H1104 H 0.10519 0.78417 0.92906 0.0
H1105 H 0.07763 0.74297 0.0369 0.0
H1106 H 0.09827 0.79326 0.06766 0.0
H1107 H 0.12408 0.84849 0.06501 0.0
H1108 H 0.15018 0.89305 0.95871 0.0
H1109 H 0.13009 0.84206 0.92648 0.0
C1110 C 0.10378 0.78627 0.95925 0.0
C1111 C 0.08996 0.75956 0.98046 0.0
C1112 C 0.11535 0.81589 0.97719 0.0
C1113 C 0.08808 0.76288 0.01962 0.0
C1114 C 0.09992 0.79173 0.03744 0.0
C1115 C 0.12543 0.84726 0.03478 0.0
C1116 C 0.13871 0.87455 0.01442 0.0
C1117 C 0.11358 0.8183 0.01658 0.0
C1118 C 0.13997 0.8724 0.97515 0.0
C1119 C 0.12857 0.84322 0.9567 0.0
H1120 H 0.63032 0.12991 0.98546 0.0
H1121 H 0.65479 0.09891 0.09801 0.0
H1122 H 0.70436 0.0683 0.07537 0.0
H1123 H 0.74213 0.05253 0.02441 0.0
H1124 H 0.72143 0.08744 0.91233 0.0
H1125 H 0.66861 0.11368 0.93382 0.0
C1126 C 0.64643 0.11629 0.00495 0.0
C1127 C 0.63893 0.11683 0.04341 0.0
C1128 C 0.67547 0.09931 0.9918 0.0
C1129 C 0.66015 0.09925 0.06837 0.0
C1130 C 0.68844 0.08157 0.05541 0.0
C1131 C 0.72602 0.06559 0.00452 0.0
C1132 C 0.73583 0.06804 0.96683 0.0
C1133 C 0.69653 0.08174 0.01729 0.0
C1134 C 0.71453 0.08522 0.94154 0.0
C1135 C 0.68439 0.10034 0.95383 0.0
H1136 H 0.43652 0.76047 0.49697 0.0
H1137 H 0.39976 0.77808 0.60904 0.0
H1138 H 0.37573 0.83252 0.58911 0.0
H1139 H 0.3623 0.87356 0.53841 0.0
H1140 H 0.39677 0.85222 0.42635 0.0
H1141 H 0.42441 0.80069 0.44779 0.0
C1142 C 0.42347 0.77614 0.51733 0.0
C1143 C 0.41991 0.76499 0.55448 0.0
C1144 C 0.40902 0.80672 0.50553 0.0
C1145 C 0.40286 0.78593 0.58022 0.0
C1146 C 0.38903 0.81704 0.56882 0.0
C1147 C 0.37611 0.85768 0.51887 0.0
C1148 C 0.37721 0.86653 0.48074 0.0
C1149 C 0.39151 0.82746 0.53134 0.0
C1150 C 0.39504 0.84573 0.45565 0.0
C1151 C 0.41103 0.8163 0.46793 0.0
H1152 H 0.7229 0.39116 0.57464 0.0
H1153 H 0.74792 0.43787 0.4687 0.0
H1154 H 0.69467 0.41925 0.44259 0.0
H1155 H 0.64207 0.38854 0.44819 0.0
H1156 H 0.61404 0.34204 0.55268 0.0
H1157 H 0.66711 0.36217 0.58109 0.0
C1158 C 0.71661 0.39734 0.54592 0.0
C1159 C 0.73978 0.4157 0.52376 0.0
C1160 C 0.6854 0.38665 0.53071 0.0
C1161 C 0.73095 0.42369 0.48661 0.0
C1162 C 0.70037 0.41305 0.47145 0.0
C1163 C 0.6475 0.38266 0.47715 0.0
C1164 C 0.62446 0.36343 0.49809 0.0
C1165 C 0.67766 0.39428 0.49305 0.0
C1166 C 0.63151 0.3568 0.53593 0.0
C1167 C 0.66187 0.36817 0.55209 0.0
H1168 H 0.14364 0.63168 0.53092 0.0
H1169 H 0.09419 0.64267 0.42397 0.0
H1170 H 0.06423 0.69272 0.44621 0.0
H1171 H 0.05465 0.73505 0.49407 0.0
H1172 H 0.10675 0.72795 0.60002 0.0
H1173 H 0.13258 0.67433 0.5804 0.0
C1174 C 0.12605 0.64493 0.51272 0.0
C1175 C 0.12134 0.63369 0.47573 0.0
C1176 C 0.10939 0.67433 0.52547 0.0
C1177 C 0.09865 0.65111 0.45231 0.0
C1178 C 0.08137 0.67965 0.46507 0.0
C1179 C 0.07143 0.72181 0.51318 0.0
C1180 C 0.07883 0.73576 0.54844 0.0
C1181 C 0.08698 0.69178 0.50132 0.0
C1182 C 0.10062 0.71792 0.57267 0.0
C1183 C 0.11551 0.6873 0.56141 0.0
H1184 H 0.74273 0.10092 0.49515 0.0
H1185 H 0.79111 0.07276 0.59843 0.0
H1186 H 0.84549 0.09541 0.57526 0.0
H1187 H 0.87913 0.12154 0.52382 0.0
H1188 H 0.82744 0.15025 0.42181 0.0
H1189 H 0.77455 0.12884 0.44627 0.0
C1190 C 0.76533 0.09937 0.51237 0.0
C1191 C 0.76349 0.08454 0.54782 0.0
C1192 C 0.79582 0.11256 0.49908 0.0
C1193 C 0.79234 0.08383 0.57075 0.0
C1194 C 0.82327 0.09672 0.55749 0.0
C1195 C 0.85627 0.12323 0.50706 0.0
C1196 C 0.85762 0.13715 0.47076 0.0
C1197 C 0.82536 0.11092 0.52143 0.0
C1198 C 0.82755 0.1394 0.44961 0.0
C1199 C 0.7971 0.12716 0.46355 0.0
H1200 H 0.51177 0.93372 0.01934 0.0
H1201 H 0.46052 0.97612 0.92336 0.0
H1202 H 0.47047 0.0333 0.94734 0.0
H1203 H 0.49337 0.07089 0.99573 0.0
H1204 H 0.54405 0.02798 0.09187 0.0
H1205 H 0.53398 0.97102 0.06781 0.0
C1206 C 0.50303 0.95542 0.00339 0.0
C1207 C 0.48562 0.95069 0.96946 0.0
C1208 C 0.50826 0.98802 0.01763 0.0
C1209 C 0.47412 0.97911 0.94946 0.0
C1210 C 0.47964 0.01177 0.96325 0.0
C1211 C 0.50192 0.0491 0.01166 0.0
C1212 C 0.51939 0.05368 0.0456 0.0
C1213 C 0.49645 0.01646 0.99744 0.0
C1214 C 0.5305 0.02515 0.06571 0.0
C1215 C 0.52492 0.99259 0.05189 0.0
H1216 H 0.42844 0.48703 0.97824 0.0
H1217 H 0.47087 0.54597 0.06844 0.0
H1218 H 0.52806 0.53136 0.04797 0.0
H1219 H 0.56621 0.50218 0.00433 0.0
H1220 H 0.52398 0.44334 0.91393 0.0
H1221 H 0.46672 0.45784 0.93444 0.0
C1222 C 0.4502 0.49647 0.99358 0.0
C1223 C 0.44532 0.51752 0.02486 0.0
C1224 C 0.48314 0.48825 0.98144 0.0
C1225 C 0.47384 0.52976 0.04422 0.0
C1226 C 0.50661 0.52148 0.03251 0.0
C1227 C 0.54451 0.4927 0.98894 0.0
C1228 C 0.54946 0.47174 0.9576 0.0
C1229 C 0.51158 0.50091 0.00103 0.0
C1230 C 0.52097 0.45952 0.93817 0.0
C1231 C 0.48816 0.46772 0.94992 0.0
H1232 H 0.04583 0.53218 0.95207 0.0
H1233 H 0.9587 0.58487 0.99661 0.0
H1234 H 0.93633 0.53164 0.02112 0.0
H1235 H 0.9422 0.47025 0.0311 0.0
H1236 H 0.03008 0.41815 0.98728 0.0
H1237 H 0.05164 0.47113 0.96185 0.0
C1238 C 0.02172 0.53196 0.96669 0.0
C1239 C 0.00389 0.56235 0.97234 0.0
C1240 C 0.00937 0.50146 0.98139 0.0
C1241 C 0.97289 0.56173 0.9918 0.0
C1242 C 0.96016 0.53136 0.00601 0.0
C1243 C 0.96621 0.47057 0.0163 0.0
C1244 C 0.9845 0.44032 0.0112 0.0
C1245 C 0.9784 0.50112 0.00137 0.0
C1246 C 0.01545 0.44109 0.99163 0.0
C1247 C 0.02778 0.47135 0.97691 0.0
H1248 H 0.03738 0.95203 0.04744 0.0
H1249 H 0.08338 0.03578 0.9887 0.0
H1250 H 0.02821 0.05146 0.9627 0.0
H1251 H 0.96701 0.04132 0.95657 0.0
H1252 H 0.92125 0.95748 0.01542 0.0
H1253 H 0.97645 0.94167 0.04102 0.0
C1254 C 0.03539 0.97384 0.02911 0.0
C1255 C 0.0645 0.99276 0.02016 0.0
C1256 C 0.00369 0.98251 0.01397 0.0
C1257 C 0.06138 0.02083 0.99617 0.0
C1258 C 0.02986 0.02974 0.98117 0.0
C1259 C 0.96911 0.01942 0.97476 0.0
C1260 C 0.93999 0.00059 0.98398 0.0
C1261 C 0.00088 0.01067 0.98974 0.0
C1262 C 0.94321 0.97241 0.00779 0.0
C1263 C 0.97476 0.96341 0.02257 0.0
H1264 H 0.45139 0.53237 0.55731 0.0
H1265 H 0.53061 0.5823 0.49491 0.0
H1266 H 0.54936 0.5278 0.46993 0.0
H1267 H 0.54296 0.46604 0.46536 0.0
H1268 H 0.46325 0.4164 0.52736 0.0
H1269 H 0.44484 0.47081 0.55256 0.0
C1270 C 0.4729 0.53135 0.53844 0.0
C1271 C 0.48961 0.56138 0.52811 0.0
C1272 C 0.4833 0.50001 0.52381 0.0
C1273 C 0.5173 0.55957 0.50339 0.0
C1274 C 0.528 0.52842 0.48899 0.0
C1275 C 0.52146 0.46711 0.48424 0.0
C1276 C 0.50453 0.43713 0.49439 0.0
C1277 C 0.51106 0.4985 0.49884 0.0
C1278 C 0.47675 0.43904 0.519 0.0
C1279 C 0.46624 0.47015 0.53355 0.0
H1280 H 0.03512 0.54668 0.45322 0.0
H1281 H 0.08802 0.46591 0.51026 0.0
H1282 H 0.03449 0.44583 0.53656 0.0
H1283 H 0.97265 0.45127 0.54331 0.0
H1284 H 0.92025 0.53263 0.48659 0.0
H1285 H 0.97375 0.55267 0.46072 0.0
C1286 C 0.03495 0.5245 0.47114 0.0
C1287 C 0.06547 0.50769 0.47955 0.0
C1288 C 0.00423 0.51343 0.48662 0.0
C1289 C 0.06483 0.47924 0.50322 0.0
C1290 C 0.03426 0.46782 0.5184 0.0
C1291 C 0.97297 0.47359 0.52561 0.0
C1292 C 0.94247 0.49039 0.51694 0.0
C1293 C 0.00382 0.48483 0.51045 0.0
C1294 C 0.94334 0.51917 0.49374 0.0
C1295 C 0.97391 0.5306 0.47877 0.0
H1296 H 0.04175 0.96623 0.53825 0.0
H1297 H 0.95829 0.91227 0.48784 0.0
H1298 H 0.93726 0.96501 0.46046 0.0
H1299 H 0.94278 0.02641 0.45048 0.0
H1300 H 0.02663 0.07997 0.50073 0.0
H1301 H 0.04742 0.0273 0.5281 0.0
C1302 C 0.01883 0.96597 0.52147 0.0
C1303 C 0.00159 0.93532 0.51523 0.0
C1304 C 0.00709 0.99629 0.50546 0.0
C1305 C 0.97205 0.9355 0.49319 0.0
C1306 C 0.96005 0.96564 0.4774 0.0
C1307 C 0.96572 0.02655 0.46722 0.0
C1308 C 0.9831 0.05715 0.47345 0.0
C1309 C 0.97747 0.99616 0.48318 0.0
C1310 C 0.01272 0.05683 0.49539 0.0
C1311 C 0.02461 0.02671 0.51119 0.0
H1312 H 0.53653 0.05019 0.5361 0.0
H1313 H 0.58728 0.96009 0.49633 0.0
H1314 H 0.53402 0.93976 0.46939 0.0
H1315 H 0.47282 0.94744 0.45788 0.0
H1316 H 0.42286 0.03785 0.49811 0.0
H1317 H 0.47631 0.05844 0.52355 0.0
C1318 C 0.536 0.02599 0.52174 0.0
C1319 C 0.5658 0.00659 0.51847 0.0
C1320 C 0.50552 0.0147 0.506 0.0
C1321 C 0.56464 0.97545 0.49943 0.0
C1322 C 0.53424 0.96388 0.48387 0.0
C1323 C 0.47374 0.97184 0.47177 0.0
C1324 C 0.4439 0.99108 0.47606 0.0
C1325 C 0.50453 0.98335 0.48692 0.0
C1326 C 0.44545 0.02251 0.49446 0.0
C1327 C 0.47597 0.03426 0.50917 0.0
H1328 H 0.51154 0.31546 0.29522 0.0
H1329 H 0.49955 0.21899 0.3503 0.0
H1330 H 0.49822 0.19037 0.28971 0.0
H1331 H 0.50973 0.19219 0.22206 0.0
H1332 H 0.52034 0.28867 0.16674 0.0
H1333 H 0.5124 0.31803 0.22638 0.0
C1334 C 0.50775 0.28826 0.29384 0.0
C1335 C 0.50609 0.26926 0.32708 0.0
C1336 C 0.50714 0.27201 0.25894 0.0
C1337 C 0.50084 0.23413 0.32507 0.0
C1338 C 0.50039 0.21773 0.29045 0.0
C1339 C 0.50942 0.21968 0.22301 0.0
C1340 C 0.516 0.23832 0.1903 0.0
C1341 C 0.50489 0.2363 0.25734 0.0
C1342 C 0.51525 0.27385 0.19161 0.0
C1343 C 0.511 0.29061 0.22574 0.0
H1344 H 0.19834 0.51191 0.28981 0.0
H1345 H 0.29318 0.52504 0.34804 0.0
H1346 H 0.32397 0.52227 0.28874 0.0
H1347 H 0.32277 0.52446 0.21985 0.0
H1348 H 0.22812 0.50933 0.1618 0.0
H1349 H 0.1984 0.50403 0.2215 0.0
C1350 C 0.22583 0.51331 0.28951 0.0
C1351 C 0.24349 0.51902 0.32307 0.0
C1352 C 0.2433 0.51171 0.25536 0.0
C1353 C 0.27907 0.52052 0.32253 0.0
C1354 C 0.29665 0.51926 0.28861 0.0
C1355 C 0.29576 0.51925 0.22036 0.0
C1356 C 0.27754 0.51771 0.1866 0.0
C1357 C 0.27888 0.51611 0.25477 0.0
C1358 C 0.24266 0.51059 0.18746 0.0
C1359 C 0.22562 0.5078 0.22159 0.0
H1360 H 0.97103 0.23037 0.15876 0.0
H1361 H 0.02171 0.32146 0.19376 0.0
H1362 H 0.02732 0.29878 0.25742 0.0
H1363 H 0.00929 0.25654 0.30471 0.0
H1364 H 0.95941 0.16509 0.26779 0.0
H1365 H 0.96268 0.18402 0.20331 0.0
C1366 C 0.98428 0.24469 0.18014 0.0
C1367 C 0.99599 0.27734 0.17196 0.0
C1368 C 0.98713 0.2316 0.21643 0.0
C1369 C 0.0129 0.29601 0.19961 0.0
C1370 C 0.01577 0.28319 0.23601 0.0
C1371 C -5e-05 0.24038 0.28248 0.0
C1372 C 0.9833 0.20986 0.29131 0.0
C1373 C 0.00176 0.2515 0.24509 0.0
C1374 C 0.97168 0.18906 0.26202 0.0
C1375 C 0.97348 0.19985 0.22501 0.0
H1376 H 0.30356 0.99144 0.29802 0.0
H1377 H 0.20573 0.98096 0.35066 0.0
H1378 H 0.17783 0.98601 0.28982 0.0
H1379 H 0.18208 0.98505 0.22107 0.0
H1380 H 0.2798 0.99733 0.16861 0.0
H1381 H 0.30692 0.00051 0.22998 0.0
C1382 C 0.27608 0.9911 0.29619 0.0
C1383 C 0.2567 0.98547 0.32862 0.0
C1384 C 0.26026 0.99401 0.26116 0.0
C1385 C 0.22116 0.98536 0.32608 0.0
C1386 C 0.20522 0.98795 0.29126 0.0
C1387 C 0.20922 0.98921 0.22316 0.0
C1388 C 0.229 0.99053 0.19045 0.0
C1389 C 0.22461 0.99104 0.25852 0.0
C1390 C 0.26404 0.99627 0.19339 0.0
C1391 C 0.27959 0.99782 0.22848 0.0
H1392 H 0.49347 0.80973 0.79548 0.0
H1393 H 0.49117 0.71282 0.8511 0.0
H1394 H 0.49787 0.68395 0.79098 0.0
H1395 H 0.49449 0.68657 0.72228 0.0
H1396 H 0.49724 0.7836 0.6668 0.0
H1397 H 0.50105 0.81222 0.72724 0.0
C1398 C 0.49535 0.7823 0.79445 0.0
C1399 C 0.49138 0.76333 0.82745 0.0
C1400 C 0.49898 0.76598 0.75984 0.0
C1401 C 0.4942 0.7279 0.82601 0.0
C1402 C 0.49773 0.71141 0.79162 0.0
C1403 C 0.49687 0.71394 0.72344 0.0
C1404 C 0.49508 0.73302 0.69024 0.0
C1405 C 0.4987 0.7302 0.75828 0.0
C1406 C 0.49856 0.76838 0.69197 0.0
C1407 C 0.50041 0.78477 0.72655 0.0
H1408 H 0.80461 0.48483 0.70092 0.0
H1409 H 0.70985 0.47926 0.64103 0.0
H1410 H 0.67858 0.48189 0.70003 0.0
H1411 H 0.67891 0.47667 0.7687 0.0
H1412 H 0.7736 0.4838 0.82854 0.0
H1413 H 0.80422 0.49027 0.76952 0.0
C1414 C 0.77708 0.4851 0.70082 0.0
C1415 C 0.75951 0.48146 0.66684 0.0
C1416 C 0.75933 0.48654 0.73481 0.0
C1417 C 0.7239 0.48213 0.66687 0.0
C1418 C 0.70603 0.48332 0.70062 0.0
C1419 C 0.70616 0.48049 0.76878 0.0
C1420 C 0.72408 0.47933 0.80277 0.0
C1421 C 0.72356 0.48417 0.73477 0.0
C1422 C 0.75929 0.48465 0.8027 0.0
C1423 C 0.77683 0.48807 0.76895 0.0
H1424 H 0.02363 0.82206 0.71938 0.0
H1425 H 0.00865 0.72388 0.66908 0.0
H1426 H 0.00631 0.6978 0.73103 0.0
H1427 H 0.01637 0.70205 0.79878 0.0
H1428 H 0.03016 0.80031 0.84925 0.0
H1429 H 0.02458 0.82731 0.78799 0.0
C1430 C 0.01916 0.79504 0.72205 0.0
C1431 C 0.01676 0.77484 0.68973 0.0
C1432 C 0.01791 0.78023 0.75774 0.0
C1433 C 0.01057 0.73997 0.69351 0.0
C1434 C 0.00948 0.72501 0.72893 0.0
C1435 C 0.01743 0.72944 0.79643 0.0
C1436 C 0.02408 0.74915 0.82838 0.0
C1437 C 0.01428 0.74474 0.76114 0.0
C1438 C 0.02503 0.7846 0.82509 0.0
C1439 C 0.0221 0.80002 0.79001 0.0
H1440 H 0.74937 0.99099 0.6851 0.0
H1441 H 0.67744 0.06686 0.72179 0.0
H1442 H 0.69802 0.06184 0.78535 0.0
H1443 H 0.74057 0.04131 0.82922 0.0
H1444 H 0.81236 0.96496 0.79523 0.0
H1445 H 0.7874 0.96423 0.7322 0.0
C1446 C 0.7379 0.00602 0.70711 0.0
C1447 C 0.71241 0.02983 0.69832 0.0
C1448 C 0.74987 0.00301 0.74412 0.0
C1449 C 0.6975 0.04877 0.72737 0.0
C1450 C 0.7092 0.04593 0.76391 0.0
C1451 C 0.7502 0.02396 0.80817 0.0
C1452 C 0.77819 0.00336 0.81647 0.0
C1453 C 0.73598 0.02395 0.77235 0.0
C1454 C 0.79056 0.98085 0.78931 0.0
C1455 C 0.77651 0.98071 0.75326 0.0
loop_
_geom_bond_atom_site_label_1
_geom_bond_atom_site_label_2
_geom_bond_distance
_geom_bond_site_symmetry_2
_ccdc_geom_bond_type
Co0 O2 2.143 . S
Co0 O8 2.074 . S
Co0 O11 2.093 . S
Co0 O24 2.097 . S
Co0 N41 2.151 . S
Co0 N49 2.214 . S
Co1 O2 2.160 . S
Co1 O7 2.058 . S
Co1 O17 2.057 . S
Co1 O32 2.037 . S
Co1 N36 2.145 1_554 S
Co1 N57 2.257 . S
O2 Co0 2.143 . S
O2 Co1 2.160 . S
C3 O4 1.278 . S
C3 O11 1.224 . S
O4 C3 1.278 . S
C5 O6 1.245 . S
C5 O17 1.232 . S
O6 C5 1.245 . S
O7 Co1 2.058 . S
O7 C33 1.269 . S
O8 Co0 2.074 . S
O8 C33 1.257 . S
H9 C34 0.930 . S
H10 C40 0.930 . S
O11 Co0 2.093 . S
O11 C3 1.224 . S
H12 C44 0.929 . S
H13 C46 0.930 . S
H14 C47 0.930 . S
H15 C45 0.929 . S
H16 C48 0.928 . S
O17 Co1 2.057 . S
O17 C5 1.232 . S
H18 C37 0.929 . S
H19 C38 0.929 . S
H20 C50 0.931 . S
H21 C42 0.929 . S
H22 C51 0.930 . S
H23 C43 0.931 . S
O24 Co0 2.097 . S
O24 C52 1.214 . S
H25 C53 0.929 . S
H26 C54 0.929 1_556 S
H27 C55 0.930 1_556 S
H28 C56 0.929 . S
H29 C58 0.930 . S
H30 C35 0.930 . S
H31 C39 0.930 . S
O32 Co1 2.037 . S
O32 C52 1.234 . S
C33 O7 1.269 . S
C33 O8 1.257 . S
C34 H9 0.930 . S
C34 C37 1.388 . S
C34 C39 1.418 . S
C35 H30 0.930 . S
C35 C38 1.404 . S
C35 C39 1.353 . S
N36 Co1 2.145 1_556 S
N36 C37 1.397 . S
N36 C38 1.334 . S
C37 H18 0.929 . S
C37 C34 1.388 . S
C37 N36 1.397 . S
C38 H19 0.929 . S
C38 C35 1.404 . S
C38 N36 1.334 . S
C39 H31 0.930 . S
C39 C34 1.418 . S
C39 C35 1.353 . S
C40 H10 0.930 . S
C40 N41 1.330 . S
C40 C42 1.446 . S
N41 Co0 2.151 . S
N41 C40 1.330 . S
N41 C45 1.418 . S
C42 H21 0.929 . S
C42 C40 1.446 . S
C42 C43 1.332 . S
C43 H23 0.931 . S
C43 C42 1.332 . S
C43 C44 1.267 . S
C44 H12 0.929 . S
C44 C43 1.267 . S
C44 C45 1.251 . S
C45 H15 0.929 . S
C45 N41 1.418 . S
C45 C44 1.251 . S
C46 H13 0.930 . S
C46 C48 1.406 . S
C46 C51 1.261 . S
C47 H14 0.930 . S
C47 N49 1.325 . S
C47 C50 1.357 . S
C48 H16 0.928 . S
C48 C46 1.406 . S
C48 N49 1.261 . S
N49 Co0 2.214 . S
N49 C47 1.325 . S
N49 C48 1.261 . S
C50 H20 0.931 . S
C50 C47 1.357 . S
C50 C51 1.312 . S
C51 H22 0.930 . S
C51 C46 1.261 . S
C51 C50 1.312 . S
C52 O24 1.214 . S
C52 O32 1.234 . S
C53 H25 0.929 . S
C53 C56 1.391 . S
C53 C58 1.391 . S
C54 H26 0.929 1_554 S
C54 C55 1.390 . S
C54 N57 1.391 . S
C55 H27 0.930 1_554 S
C55 C54 1.390 . S
C55 C56 1.392 . S
C56 H28 0.929 . S
C56 C53 1.391 . S
C56 C55 1.392 . S
N57 Co1 2.257 . S
N57 C54 1.391 . S
N57 C58 1.388 . S
C58 H29 0.930 . S
C58 C53 1.391 . S
C58 N57 1.388 . S
Co59 O61 2.143 . S
Co59 O67 2.074 . S
Co59 O70 2.093 . S
Co59 O83 2.097 . S
Co59 N100 2.151 . S
Co59 N108 2.214 . S
Co60 O61 2.160 . S
Co60 O66 2.058 . S
Co60 O76 2.057 . S
Co60 O91 2.037 . S
Co60 N95 2.145 1_554 S
Co60 N116 2.257 . S
O61 Co59 2.143 . S
O61 Co60 2.160 . S
C62 O63 1.278 . S
C62 O70 1.224 . S
O63 C62 1.278 . S
C64 O65 1.245 . S
C64 O76 1.232 . S
O65 C64 1.245 . S
O66 Co60 2.058 . S
O66 C92 1.269 . S
O67 Co59 2.074 . S
O67 C92 1.257 . S
H68 C93 0.930 . S
H69 C99 0.930 . S
O70 Co59 2.093 . S
O70 C62 1.224 . S
H71 C103 0.929 . S
H72 C105 0.930 . S
H73 C106 0.930 . S
H74 C104 0.929 . S
H75 C107 0.928 . S
O76 Co60 2.057 . S
O76 C64 1.232 . S
H77 C96 0.929 . S
H78 C97 0.929 . S
H79 C109 0.931 . S
H80 C101 0.929 . S
H81 C110 0.930 . S
H82 C102 0.931 . S
O83 Co59 2.097 . S
O83 C111 1.214 . S
H84 C112 0.929 . S
H85 C113 0.929 1_556 S
H86 C114 0.930 1_556 S
H87 C115 0.929 . S
H88 C117 0.930 . S
H89 C94 0.930 . S
H90 C98 0.930 . S
O91 Co60 2.037 . S
O91 C111 1.234 . S
C92 O66 1.269 . S
C92 O67 1.257 . S
C93 H68 0.930 . S
C93 C96 1.388 . S
C93 C98 1.418 . S
C94 H89 0.930 . S
C94 C97 1.404 . S
C94 C98 1.353 . S
N95 Co60 2.145 1_556 S
N95 C96 1.397 . S
N95 C97 1.334 . S
C96 H77 0.929 . S
C96 C93 1.388 . S
C96 N95 1.397 . S
C97 H78 0.929 . S
C97 C94 1.404 . S
C97 N95 1.334 . S
C98 H90 0.930 . S
C98 C93 1.418 . S
C98 C94 1.353 . S
C99 H69 0.930 . S
C99 N100 1.330 . S
C99 C101 1.446 . S
N100 Co59 2.151 . S
N100 C99 1.330 . S
N100 C104 1.418 . S
C101 H80 0.929 . S
C101 C99 1.446 . S
C101 C102 1.332 . S
C102 H82 0.931 . S
C102 C101 1.332 . S
C102 C103 1.267 . S
C103 H71 0.929 . S
C103 C102 1.267 . S
C103 C104 1.251 . S
C104 H74 0.929 . S
C104 N100 1.418 . S
C104 C103 1.251 . S
C105 H72 0.930 . S
C105 C107 1.406 . S
C105 C110 1.261 . S
C106 H73 0.930 . S
C106 N108 1.325 . S
C106 C109 1.357 . S
C107 H75 0.928 . S
C107 C105 1.406 . S
C107 N108 1.261 . S
N108 Co59 2.214 . S
N108 C106 1.325 . S
N108 C107 1.261 . S
C109 H79 0.931 . S
C109 C106 1.357 . S
C109 C110 1.312 . S
C110 H81 0.930 . S
C110 C105 1.261 . S
C110 C109 1.312 . S
C111 O83 1.214 . S
C111 O91 1.234 . S
C112 H84 0.929 . S
C112 C115 1.391 . S
C112 C117 1.391 . S
C113 H85 0.929 1_554 S
C113 C114 1.390 . S
C113 N116 1.391 . S
C114 H86 0.930 1_554 S
C114 C113 1.390 . S
C114 C115 1.392 . S
C115 H87 0.929 . S
C115 C112 1.391 . S
C115 C114 1.392 . S
N116 Co60 2.257 . S
N116 C113 1.391 . S
N116 C117 1.388 . S
C117 H88 0.930 . S
C117 C112 1.391 . S
C117 N116 1.388 . S
Co118 O120 2.143 . S
Co118 O126 2.074 . S
Co118 O129 2.093 . S
Co118 O142 2.097 . S
Co118 N159 2.151 . S
Co118 N167 2.214 . S
Co119 O120 2.160 . S
Co119 O125 2.058 . S
Co119 O135 2.057 . S
Co119 O150 2.037 . S
Co119 N154 2.145 1_554 S
Co119 N175 2.257 1_655 S
O120 Co118 2.143 . S
O120 Co119 2.160 . S
C121 O122 1.278 . S
C121 O129 1.224 . S
O122 C121 1.278 . S
C123 O124 1.245 . S
C123 O135 1.232 . S
O124 C123 1.245 . S
O125 Co119 2.058 . S
O125 C151 1.269 . S
O126 Co118 2.074 . S
O126 C151 1.257 . S
H127 C152 0.930 . S
H128 C158 0.930 . S
O129 Co118 2.093 . S
O129 C121 1.224 . S
H130 C162 0.929 . S
H131 C164 0.930 . S
H132 C165 0.930 . S
H133 C163 0.929 . S
H134 C166 0.928 . S
O135 Co119 2.057 . S
O135 C123 1.232 . S
H136 C155 0.929 . S
H137 C156 0.929 1_455 S
H138 C168 0.931 . S
H139 C160 0.929 . S
H140 C169 0.930 . S
H141 C161 0.931 . S
O142 Co118 2.097 . S
O142 C170 1.214 . S
H143 C171 0.929 . S
H144 C172 0.929 1_556 S
H145 C173 0.930 1_556 S
H146 C174 0.929 . S
H147 C176 0.930 . S
H148 C153 0.930 . S
H149 C157 0.930 . S
O150 Co119 2.037 . S
O150 C170 1.234 . S
C151 O125 1.269 . S
C151 O126 1.257 . S
C152 H127 0.930 . S
C152 C155 1.388 . S
C152 C157 1.418 . S
C153 H148 0.930 . S
C153 C156 1.404 1_455 S
C153 C157 1.353 1_455 S
N154 Co119 2.145 1_556 S
N154 C155 1.397 . S
N154 C156 1.334 . S
C155 H136 0.929 . S
C155 C152 1.388 . S
C155 N154 1.397 . S
C156 H137 0.929 1_655 S
C156 C153 1.404 1_655 S
C156 N154 1.334 . S
C157 H149 0.930 . S
C157 C152 1.418 . S
C157 C153 1.353 1_655 S
C158 H128 0.930 . S
C158 N159 1.330 . S
C158 C160 1.446 . S
N159 Co118 2.151 . S
N159 C158 1.330 . S
N159 C163 1.418 . S
C160 H139 0.929 . S
C160 C158 1.446 . S
C160 C161 1.332 . S
C161 H141 0.931 . S
C161 C160 1.332 . S
C161 C162 1.267 . S
C162 H130 0.929 . S
C162 C161 1.267 . S
C162 C163 1.251 . S
C163 H133 0.929 . S
C163 N159 1.418 . S
C163 C162 1.251 . S
C164 H131 0.930 . S
C164 C166 1.406 . S
C164 C169 1.261 . S
C165 H132 0.930 . S
C165 N167 1.325 . S
C165 C168 1.357 . S
C166 H134 0.928 . S
C166 C164 1.406 . S
C166 N167 1.261 . S
N167 Co118 2.214 . S
N167 C165 1.325 . S
N167 C166 1.261 . S
C168 H138 0.931 . S
C168 C165 1.357 . S
C168 C169 1.312 . S
C169 H140 0.930 . S
C169 C164 1.261 . S
C169 C168 1.312 . S
C170 O142 1.214 . S
C170 O150 1.234 . S
C171 H143 0.929 . S
C171 C174 1.391 . S
C171 C176 1.391 . S
C172 H144 0.929 1_554 S
C172 C173 1.390 . S
C172 N175 1.391 . S
C173 H145 0.930 1_554 S
C173 C172 1.390 . S
C173 C174 1.392 . S
C174 H146 0.929 . S
C174 C171 1.391 . S
C174 C173 1.392 . S
N175 Co119 2.257 1_455 S
N175 C172 1.391 . S
N175 C176 1.388 . S
C176 H147 0.930 . S
C176 C171 1.391 . S
C176 N175 1.388 . S
Co177 O179 2.143 . S
Co177 O185 2.074 . S
Co177 O188 2.093 . S
Co177 O201 2.097 . S
Co177 N218 2.151 . S
Co177 N226 2.214 . S
Co178 O179 2.160 . S
Co178 O184 2.058 . S
Co178 O194 2.057 . S
Co178 O209 2.037 . S
Co178 N213 2.145 1_554 S
Co178 N234 2.257 1_565 S
O179 Co177 2.143 . S
O179 Co178 2.160 . S
C180 O181 1.278 . S
C180 O188 1.224 . S
O181 C180 1.278 . S
C182 O183 1.245 . S
C182 O194 1.232 . S
O183 C182 1.245 . S
O184 Co178 2.058 . S
O184 C210 1.269 . S
O185 Co177 2.074 . S
O185 C210 1.257 . S
H186 C211 0.930 . S
H187 C217 0.930 . S
O188 Co177 2.093 . S
O188 C180 1.224 . S
H189 C221 0.929 . S
H190 C223 0.930 . S
H191 C224 0.930 . S
H192 C222 0.929 . S
H193 C225 0.928 . S
O194 Co178 2.057 . S
O194 C182 1.232 . S
H195 C214 0.929 . S
H196 C215 0.929 1_545 S
H197 C227 0.931 . S
H198 C219 0.929 . S
H199 C228 0.930 . S
H200 C220 0.931 . S
O201 Co177 2.097 . S
O201 C229 1.214 . S
H202 C230 0.929 . S
H203 C231 0.929 1_556 S
H204 C232 0.930 1_556 S
H205 C233 0.929 . S
H206 C235 0.930 . S
H207 C212 0.930 . S
H208 C216 0.930 . S
O209 Co178 2.037 . S
O209 C229 1.234 . S
C210 O184 1.269 . S
C210 O185 1.257 . S
C211 H186 0.930 . S
C211 C214 1.388 . S
C211 C216 1.418 . S
C212 H207 0.930 . S
C212 C215 1.404 1_545 S
C212 C216 1.353 1_545 S
N213 Co178 2.145 1_556 S
N213 C214 1.397 . S
N213 C215 1.334 . S
C214 H195 0.929 . S
C214 C211 1.388 . S
C214 N213 1.397 . S
C215 H196 0.929 1_565 S
C215 C212 1.404 1_565 S
C215 N213 1.334 . S
C216 H208 0.930 . S
C216 C211 1.418 . S
C216 C212 1.353 1_565 S
C217 H187 0.930 . S
C217 N218 1.330 . S
C217 C219 1.446 . S
N218 Co177 2.151 . S
N218 C217 1.330 . S
N218 C222 1.418 . S
C219 H198 0.929 . S
C219 C217 1.446 . S
C219 C220 1.332 . S
C220 H200 0.931 . S
C220 C219 1.332 . S
C220 C221 1.267 . S
C221 H189 0.929 . S
C221 C220 1.267 . S
C221 C222 1.251 . S
C222 H192 0.929 . S
C222 N218 1.418 . S
C222 C221 1.251 . S
C223 H190 0.930 . S
C223 C225 1.406 . S
C223 C228 1.261 . S
C224 H191 0.930 . S
C224 N226 1.325 . S
C224 C227 1.357 . S
C225 H193 0.928 . S
C225 C223 1.406 . S
C225 N226 1.261 . S
N226 Co177 2.214 . S
N226 C224 1.325 . S
N226 C225 1.261 . S
C227 H197 0.931 . S
C227 C224 1.357 . S
C227 C228 1.312 . S
C228 H199 0.930 . S
C228 C223 1.261 . S
C228 C227 1.312 . S
C229 O201 1.214 . S
C229 O209 1.234 . S
C230 H202 0.929 . S
C230 C233 1.391 . S
C230 C235 1.391 . S
C231 H203 0.929 1_554 S
C231 C232 1.390 . S
C231 N234 1.391 . S
C232 H204 0.930 1_554 S
C232 C231 1.390 . S
C232 C233 1.392 . S
C233 H205 0.929 . S
C233 C230 1.391 . S
C233 C232 1.392 . S
N234 Co178 2.257 1_545 S
N234 C231 1.391 . S
N234 C235 1.388 . S
C235 H206 0.930 . S
C235 C230 1.391 . S
C235 N234 1.388 . S
Co236 O238 2.143 . S
Co236 O244 2.074 . S
Co236 O247 2.093 . S
Co236 O260 2.097 . S
Co236 N277 2.151 . S
Co236 N285 2.214 . S
Co237 O238 2.160 . S
Co237 O243 2.058 . S
Co237 O253 2.057 . S
Co237 O268 2.037 . S
Co237 N272 2.145 . S
Co237 N293 2.257 . S
O238 Co236 2.143 . S
O238 Co237 2.160 . S
C239 O240 1.278 . S
C239 O247 1.224 . S
O240 C239 1.278 . S
C241 O242 1.245 . S
C241 O253 1.232 . S
O242 C241 1.245 . S
O243 Co237 2.058 . S
O243 C269 1.269 . S
O244 Co236 2.074 . S
O244 C269 1.257 . S
H245 C270 0.930 . S
H246 C276 0.930 . S
O247 Co236 2.093 . S
O247 C239 1.224 . S
H248 C280 0.929 . S
H249 C282 0.930 . S
H250 C283 0.930 . S
H251 C281 0.929 . S
H252 C284 0.928 . S
O253 Co237 2.057 . S
O253 C241 1.232 . S
H254 C273 0.929 . S
H255 C274 0.929 . S
H256 C286 0.931 . S
H257 C278 0.929 . S
H258 C287 0.930 . S
H259 C279 0.931 . S
O260 Co236 2.097 . S
O260 C288 1.214 . S
H261 C289 0.929 . S
H262 C290 0.929 . S
H263 C291 0.930 . S
H264 C292 0.929 . S
H265 C294 0.930 . S
H266 C271 0.930 . S
H267 C275 0.930 . S
O268 Co237 2.037 . S
O268 C288 1.234 . S
C269 O243 1.269 . S
C269 O244 1.257 . S
C270 H245 0.930 . S
C270 C273 1.388 . S
C270 C275 1.418 . S
C271 H266 0.930 . S
C271 C274 1.404 . S
C271 C275 1.353 . S
N272 Co237 2.145 . S
N272 C273 1.397 . S
N272 C274 1.334 . S
C273 H254 0.929 . S
C273 C270 1.388 . S
C273 N272 1.397 . S
C274 H255 0.929 . S
C274 C271 1.404 . S
C274 N272 1.334 . S
C275 H267 0.930 . S
C275 C270 1.418 . S
C275 C271 1.353 . S
C276 H246 0.930 . S
C276 N277 1.330 . S
C276 C278 1.446 . S
N277 Co236 2.151 . S
N277 C276 1.330 . S
N277 C281 1.418 . S
C278 H257 0.929 . S
C278 C276 1.446 . S
C278 C279 1.332 . S
C279 H259 0.931 . S
C279 C278 1.332 . S
C279 C280 1.267 . S
C280 H248 0.929 . S
C280 C279 1.267 . S
C280 C281 1.251 . S
C281 H251 0.929 . S
C281 N277 1.418 . S
C281 C280 1.251 . S
C282 H249 0.930 . S
C282 C284 1.406 . S
C282 C287 1.261 . S
C283 H250 0.930 . S
C283 N285 1.325 . S
C283 C286 1.357 . S
C284 H252 0.928 . S
C284 C282 1.406 . S
C284 N285 1.261 . S
N285 Co236 2.214 . S
N285 C283 1.325 . S
N285 C284 1.261 . S
C286 H256 0.931 . S
C286 C283 1.357 . S
C286 C287 1.312 . S
C287 H258 0.930 . S
C287 C282 1.261 . S
C287 C286 1.312 . S
C288 O260 1.214 . S
C288 O268 1.234 . S
C289 H261 0.929 . S
C289 C292 1.391 . S
C289 C294 1.391 . S
C290 H262 0.929 . S
C290 C291 1.390 . S
C290 N293 1.391 . S
C291 H263 0.930 . S
C291 C290 1.390 . S
C291 C292 1.392 . S
C292 H264 0.929 . S
C292 C289 1.391 . S
C292 C291 1.392 . S
N293 Co237 2.257 . S
N293 C290 1.391 . S
N293 C294 1.388 . S
C294 H265 0.930 . S
C294 C289 1.391 . S
C294 N293 1.388 . S
Co295 O297 2.143 . S
Co295 O303 2.074 . S
Co295 O306 2.093 . S
Co295 O319 2.097 . S
Co295 N336 2.151 . S
Co295 N344 2.214 . S
Co296 O297 2.160 . S
Co296 O302 2.058 . S
Co296 O312 2.057 . S
Co296 O327 2.037 . S
Co296 N331 2.145 . S
Co296 N352 2.257 . S
O297 Co295 2.143 . S
O297 Co296 2.160 . S
C298 O299 1.278 . S
C298 O306 1.224 . S
O299 C298 1.278 . S
C300 O301 1.245 . S
C300 O312 1.232 . S
O301 C300 1.245 . S
O302 Co296 2.058 . S
O302 C328 1.269 . S
O303 Co295 2.074 . S
O303 C328 1.257 . S
H304 C329 0.930 . S
H305 C335 0.930 . S
O306 Co295 2.093 . S
O306 C298 1.224 . S
H307 C339 0.929 . S
H308 C341 0.930 . S
H309 C342 0.930 . S
H310 C340 0.929 . S
H311 C343 0.928 . S
O312 Co296 2.057 . S
O312 C300 1.232 . S
H313 C332 0.929 . S
H314 C333 0.929 . S
H315 C345 0.931 . S
H316 C337 0.929 . S
H317 C346 0.930 . S
H318 C338 0.931 . S
O319 Co295 2.097 . S
O319 C347 1.214 . S
H320 C348 0.929 . S
H321 C349 0.929 . S
H322 C350 0.930 . S
H323 C351 0.929 . S
H324 C353 0.930 . S
H325 C330 0.930 . S
H326 C334 0.930 . S
O327 Co296 2.037 . S
O327 C347 1.234 . S
C328 O302 1.269 . S
C328 O303 1.257 . S
C329 H304 0.930 . S
C329 C332 1.388 . S
C329 C334 1.418 . S
C330 H325 0.930 . S
C330 C333 1.404 . S
C330 C334 1.353 . S
N331 Co296 2.145 . S
N331 C332 1.397 . S
N331 C333 1.334 . S
C332 H313 0.929 . S
C332 C329 1.388 . S
C332 N331 1.397 . S
C333 H314 0.929 . S
C333 C330 1.404 . S
C333 N331 1.334 . S
C334 H326 0.930 . S
C334 C329 1.418 . S
C334 C330 1.353 . S
C335 H305 0.930 . S
C335 N336 1.330 . S
C335 C337 1.446 . S
N336 Co295 2.151 . S
N336 C335 1.330 . S
N336 C340 1.418 . S
C337 H316 0.929 . S
C337 C335 1.446 . S
C337 C338 1.332 . S
C338 H318 0.931 . S
C338 C337 1.332 . S
C338 C339 1.267 . S
C339 H307 0.929 . S
C339 C338 1.267 . S
C339 C340 1.251 . S
C340 H310 0.929 . S
C340 N336 1.418 . S
C340 C339 1.251 . S
C341 H308 0.930 . S
C341 C343 1.406 . S
C341 C346 1.261 . S
C342 H309 0.930 . S
C342 N344 1.325 . S
C342 C345 1.357 . S
C343 H311 0.928 . S
C343 C341 1.406 . S
C343 N344 1.261 . S
N344 Co295 2.214 . S
N344 C342 1.325 . S
N344 C343 1.261 . S
C345 H315 0.931 . S
C345 C342 1.357 . S
C345 C346 1.312 . S
C346 H317 0.930 . S
C346 C341 1.261 . S
C346 C345 1.312 . S
C347 O319 1.214 . S
C347 O327 1.234 . S
C348 H320 0.929 . S
C348 C351 1.391 . S
C348 C353 1.391 . S
C349 H321 0.929 . S
C349 C350 1.390 . S
C349 N352 1.391 . S
C350 H322 0.930 . S
C350 C349 1.390 . S
C350 C351 1.392 . S
C351 H323 0.929 . S
C351 C348 1.391 . S
C351 C350 1.392 . S
N352 Co296 2.257 . S
N352 C349 1.391 . S
N352 C353 1.388 . S
C353 H324 0.930 . S
C353 C348 1.391 . S
C353 N352 1.388 . S
Co354 O356 2.143 . S
Co354 O362 2.074 . S
Co354 O365 2.093 . S
Co354 O378 2.097 . S
Co354 N395 2.151 . S
Co354 N403 2.214 . S
Co355 O356 2.160 . S
Co355 O361 2.058 . S
Co355 O371 2.057 . S
Co355 O386 2.037 . S
Co355 N390 2.145 . S
Co355 N411 2.257 1_655 S
O356 Co354 2.143 . S
O356 Co355 2.160 . S
C357 O358 1.278 . S
C357 O365 1.224 . S
O358 C357 1.278 . S
C359 O360 1.245 . S
C359 O371 1.232 . S
O360 C359 1.245 . S
O361 Co355 2.058 . S
O361 C387 1.269 . S
O362 Co354 2.074 . S
O362 C387 1.257 . S
H363 C388 0.930 . S
H364 C394 0.930 . S
O365 Co354 2.093 . S
O365 C357 1.224 . S
H366 C398 0.929 . S
H367 C400 0.930 . S
H368 C401 0.930 . S
H369 C399 0.929 . S
H370 C402 0.928 . S
O371 Co355 2.057 . S
O371 C359 1.232 . S
H372 C391 0.929 . S
H373 C392 0.929 1_455 S
H374 C404 0.931 . S
H375 C396 0.929 . S
H376 C405 0.930 . S
H377 C397 0.931 . S
O378 Co354 2.097 . S
O378 C406 1.214 . S
H379 C407 0.929 . S
H380 C408 0.929 . S
H381 C409 0.930 . S
H382 C410 0.929 . S
H383 C412 0.930 . S
H384 C389 0.930 . S
H385 C393 0.930 . S
O386 Co355 2.037 . S
O386 C406 1.234 . S
C387 O361 1.269 . S
C387 O362 1.257 . S
C388 H363 0.930 . S
C388 C391 1.388 . S
C388 C393 1.418 . S
C389 H384 0.930 . S
C389 C392 1.404 1_455 S
C389 C393 1.353 1_455 S
N390 Co355 2.145 . S
N390 C391 1.397 . S
N390 C392 1.334 . S
C391 H372 0.929 . S
C391 C388 1.388 . S
C391 N390 1.397 . S
C392 H373 0.929 1_655 S
C392 C389 1.404 1_655 S
C392 N390 1.334 . S
C393 H385 0.930 . S
C393 C388 1.418 . S
C393 C389 1.353 1_655 S
C394 H364 0.930 . S
C394 N395 1.330 . S
C394 C396 1.446 . S
N395 Co354 2.151 . S
N395 C394 1.330 . S
N395 C399 1.418 . S
C396 H375 0.929 . S
C396 C394 1.446 . S
C396 C397 1.332 . S
C397 H377 0.931 . S
C397 C396 1.332 . S
C397 C398 1.267 . S
C398 H366 0.929 . S
C398 C397 1.267 . S
C398 C399 1.251 . S
C399 H369 0.929 . S
C399 N395 1.418 . S
C399 C398 1.251 . S
C400 H367 0.930 . S
C400 C402 1.406 . S
C400 C405 1.261 . S
C401 H368 0.930 . S
C401 N403 1.325 . S
C401 C404 1.357 . S
C402 H370 0.928 . S
C402 C400 1.406 . S
C402 N403 1.261 . S
N403 Co354 2.214 . S
N403 C401 1.325 . S
N403 C402 1.261 . S
C404 H374 0.931 . S
C404 C401 1.357 . S
C404 C405 1.312 . S
C405 H376 0.930 . S
C405 C400 1.261 . S
C405 C404 1.312 . S
C406 O378 1.214 . S
C406 O386 1.234 . S
C407 H379 0.929 . S
C407 C410 1.391 . S
C407 C412 1.391 . S
C408 H380 0.929 . S
C408 C409 1.390 . S
C408 N411 1.391 . S
C409 H381 0.930 . S
C409 C408 1.390 . S
C409 C410 1.392 . S
C410 H382 0.929 . S
C410 C407 1.391 . S
C410 C409 1.392 . S
N411 Co355 2.257 1_455 S
N411 C408 1.391 . S
N411 C412 1.388 . S
C412 H383 0.930 . S
C412 C407 1.391 . S
C412 N411 1.388 . S
Co413 O415 2.143 . S
Co413 O421 2.074 . S
Co413 O424 2.093 . S
Co413 O437 2.097 . S
Co413 N454 2.151 . S
Co413 N462 2.214 . S
Co414 O415 2.160 . S
Co414 O420 2.058 . S
Co414 O430 2.057 . S
Co414 O445 2.037 . S
Co414 N449 2.145 . S
Co414 N470 2.257 1_565 S
O415 Co413 2.143 . S
O415 Co414 2.160 . S
C416 O417 1.278 . S
C416 O424 1.224 . S
O417 C416 1.278 . S
C418 O419 1.245 . S
C418 O430 1.232 . S
O419 C418 1.245 . S
O420 Co414 2.058 . S
O420 C446 1.269 . S
O421 Co413 2.074 . S
O421 C446 1.257 . S
H422 C447 0.930 . S
H423 C453 0.930 . S
O424 Co413 2.093 . S
O424 C416 1.224 . S
H425 C457 0.929 . S
H426 C459 0.930 . S
H427 C460 0.930 . S
H428 C458 0.929 . S
H429 C461 0.928 . S
O430 Co414 2.057 . S
O430 C418 1.232 . S
H431 C450 0.929 . S
H432 C451 0.929 1_545 S
H433 C463 0.931 . S
H434 C455 0.929 . S
H435 C464 0.930 . S
H436 C456 0.931 . S
O437 Co413 2.097 . S
O437 C465 1.214 . S
H438 C466 0.929 . S
H439 C467 0.929 . S
H440 C468 0.930 . S
H441 C469 0.929 . S
H442 C471 0.930 . S
H443 C448 0.930 . S
H444 C452 0.930 . S
O445 Co414 2.037 . S
O445 C465 1.234 . S
C446 O420 1.269 . S
C446 O421 1.257 . S
C447 H422 0.930 . S
C447 C450 1.388 . S
C447 C452 1.418 . S
C448 H443 0.930 . S
C448 C451 1.404 1_545 S
C448 C452 1.353 1_545 S
N449 Co414 2.145 . S
N449 C450 1.397 . S
N449 C451 1.334 . S
C450 H431 0.929 . S
C450 C447 1.388 . S
C450 N449 1.397 . S
C451 H432 0.929 1_565 S
C451 C448 1.404 1_565 S
C451 N449 1.334 . S
C452 H444 0.930 . S
C452 C447 1.418 . S
C452 C448 1.353 1_565 S
C453 H423 0.930 . S
C453 N454 1.330 . S
C453 C455 1.446 . S
N454 Co413 2.151 . S
N454 C453 1.330 . S
N454 C458 1.418 . S
C455 H434 0.929 . S
C455 C453 1.446 . S
C455 C456 1.332 . S
C456 H436 0.931 . S
C456 C455 1.332 . S
C456 C457 1.267 . S
C457 H425 0.929 . S
C457 C456 1.267 . S
C457 C458 1.251 . S
C458 H428 0.929 . S
C458 N454 1.418 . S
C458 C457 1.251 . S
C459 H426 0.930 . S
C459 C461 1.406 . S
C459 C464 1.261 . S
C460 H427 0.930 . S
C460 N462 1.325 . S
C460 C463 1.357 . S
C461 H429 0.928 . S
C461 C459 1.406 . S
C461 N462 1.261 . S
N462 Co413 2.214 . S
N462 C460 1.325 . S
N462 C461 1.261 . S
C463 H433 0.931 . S
C463 C460 1.357 . S
C463 C464 1.312 . S
C464 H435 0.930 . S
C464 C459 1.261 . S
C464 C463 1.312 . S
C465 O437 1.214 . S
C465 O445 1.234 . S
C466 H438 0.929 . S
C466 C469 1.391 . S
C466 C471 1.391 . S
C467 H439 0.929 . S
C467 C468 1.390 . S
C467 N470 1.391 . S
C468 H440 0.930 . S
C468 C467 1.390 . S
C468 C469 1.392 . S
C469 H441 0.929 . S
C469 C466 1.391 . S
C469 C468 1.392 . S
N470 Co414 2.257 1_545 S
N470 C467 1.391 . S
N470 C471 1.388 . S
C471 H442 0.930 . S
C471 C466 1.391 . S
C471 N470 1.388 . S
Co472 O474 2.143 . S
Co472 O480 2.074 . S
Co472 O483 2.093 . S
Co472 O496 2.097 . S
Co472 N513 2.151 . S
Co472 N521 2.214 . S
Co473 O474 2.160 . S
Co473 O479 2.058 . S
Co473 O489 2.057 . S
Co473 O504 2.037 . S
Co473 N508 2.145 1_556 S
Co473 N529 2.257 . S
O474 Co472 2.143 . S
O474 Co473 2.160 . S
C475 O476 1.278 . S
C475 O483 1.224 . S
O476 C475 1.278 . S
C477 O478 1.245 . S
C477 O489 1.232 . S
O478 C477 1.245 . S
O479 Co473 2.058 . S
O479 C505 1.269 . S
O480 Co472 2.074 . S
O480 C505 1.257 . S
H481 C506 0.930 . S
H482 C512 0.930 . S
O483 Co472 2.093 . S
O483 C475 1.224 . S
H484 C516 0.929 . S
H485 C518 0.930 . S
H486 C519 0.930 . S
H487 C517 0.929 . S
H488 C520 0.928 . S
O489 Co473 2.057 . S
O489 C477 1.232 . S
H490 C509 0.929 . S
H491 C510 0.929 . S
H492 C522 0.931 . S
H493 C514 0.929 . S
H494 C523 0.930 . S
H495 C515 0.931 . S
O496 Co472 2.097 . S
O496 C524 1.214 . S
H497 C525 0.929 . S
H498 C526 0.929 1_554 S
H499 C527 0.930 1_554 S
H500 C528 0.929 . S
H501 C530 0.930 . S
H502 C507 0.930 . S
H503 C511 0.930 . S
O504 Co473 2.037 . S
O504 C524 1.234 . S
C505 O479 1.269 . S
C505 O480 1.257 . S
C506 H481 0.930 . S
C506 C509 1.388 . S
C506 C511 1.418 . S
C507 H502 0.930 . S
C507 C510 1.404 . S
C507 C511 1.353 . S
N508 Co473 2.145 1_554 S
N508 C509 1.397 . S
N508 C510 1.334 . S
C509 H490 0.929 . S
C509 C506 1.388 . S
C509 N508 1.397 . S
C510 H491 0.929 . S
C510 C507 1.404 . S
C510 N508 1.334 . S
C511 H503 0.930 . S
C511 C506 1.418 . S
C511 C507 1.353 . S
C512 H482 0.930 . S
C512 N513 1.330 . S
C512 C514 1.446 . S
N513 Co472 2.151 . S
N513 C512 1.330 . S
N513 C517 1.418 . S
C514 H493 0.929 . S
C514 C512 1.446 . S
C514 C515 1.332 . S
C515 H495 0.931 . S
C515 C514 1.332 . S
C515 C516 1.267 . S
C516 H484 0.929 . S
C516 C515 1.267 . S
C516 C517 1.251 . S
C517 H487 0.929 . S
C517 N513 1.418 . S
C517 C516 1.251 . S
C518 H485 0.930 . S
C518 C520 1.406 . S
C518 C523 1.261 . S
C519 H486 0.930 . S
C519 N521 1.325 . S
C519 C522 1.357 . S
C520 H488 0.928 . S
C520 C518 1.406 . S
C520 N521 1.261 . S
N521 Co472 2.214 . S
N521 C519 1.325 . S
N521 C520 1.261 . S
C522 H492 0.931 . S
C522 C519 1.357 . S
C522 C523 1.312 . S
C523 H494 0.930 . S
C523 C518 1.261 . S
C523 C522 1.312 . S
C524 O496 1.214 . S
C524 O504 1.234 . S
C525 H497 0.929 . S
C525 C528 1.391 . S
C525 C530 1.391 . S
C526 H498 0.929 1_556 S
C526 C527 1.390 . S
C526 N529 1.391 . S
C527 H499 0.930 1_556 S
C527 C526 1.390 . S
C527 C528 1.392 . S
C528 H500 0.929 . S
C528 C525 1.391 . S
C528 C527 1.392 . S
N529 Co473 2.257 . S
N529 C526 1.391 . S
N529 C530 1.388 . S
C530 H501 0.930 . S
C530 C525 1.391 . S
C530 N529 1.388 . S
Co531 O533 2.143 . S
Co531 O539 2.074 . S
Co531 O542 2.093 . S
Co531 O555 2.097 . S
Co531 N572 2.151 . S
Co531 N580 2.214 . S
Co532 O533 2.160 . S
Co532 O538 2.058 . S
Co532 O548 2.057 . S
Co532 O563 2.037 . S
Co532 N567 2.145 1_556 S
Co532 N588 2.257 . S
O533 Co531 2.143 . S
O533 Co532 2.160 . S
C534 O535 1.278 . S
C534 O542 1.224 . S
O535 C534 1.278 . S
C536 O537 1.245 . S
C536 O548 1.232 . S
O537 C536 1.245 . S
O538 Co532 2.058 . S
O538 C564 1.269 . S
O539 Co531 2.074 . S
O539 C564 1.257 . S
H540 C565 0.930 . S
H541 C571 0.930 . S
O542 Co531 2.093 . S
O542 C534 1.224 . S
H543 C575 0.929 . S
H544 C577 0.930 . S
H545 C578 0.930 . S
H546 C576 0.929 . S
H547 C579 0.928 . S
O548 Co532 2.057 . S
O548 C536 1.232 . S
H549 C568 0.929 . S
H550 C569 0.929 . S
H551 C581 0.931 . S
H552 C573 0.929 . S
H553 C582 0.930 . S
H554 C574 0.931 . S
O555 Co531 2.097 . S
O555 C583 1.214 . S
H556 C584 0.929 . S
H557 C585 0.929 1_554 S
H558 C586 0.930 1_554 S
H559 C587 0.929 . S
H560 C589 0.930 . S
H561 C566 0.930 . S
H562 C570 0.930 . S
O563 Co532 2.037 . S
O563 C583 1.234 . S
C564 O538 1.269 . S
C564 O539 1.257 . S
C565 H540 0.930 . S
C565 C568 1.388 . S
C565 C570 1.418 . S
C566 H561 0.930 . S
C566 C569 1.404 . S
C566 C570 1.353 . S
N567 Co532 2.145 1_554 S
N567 C568 1.397 . S
N567 C569 1.334 . S
C568 H549 0.929 . S
C568 C565 1.388 . S
C568 N567 1.397 . S
C569 H550 0.929 . S
C569 C566 1.404 . S
C569 N567 1.334 . S
C570 H562 0.930 . S
C570 C565 1.418 . S
C570 C566 1.353 . S
C571 H541 0.930 . S
C571 N572 1.330 . S
C571 C573 1.446 . S
N572 Co531 2.151 . S
N572 C571 1.330 . S
N572 C576 1.418 . S
C573 H552 0.929 . S
C573 C571 1.446 . S
C573 C574 1.332 . S
C574 H554 0.931 . S
C574 C573 1.332 . S
C574 C575 1.267 . S
C575 H543 0.929 . S
C575 C574 1.267 . S
C575 C576 1.251 . S
C576 H546 0.929 . S
C576 N572 1.418 . S
C576 C575 1.251 . S
C577 H544 0.930 . S
C577 C579 1.406 . S
C577 C582 1.261 . S
C578 H545 0.930 . S
C578 N580 1.325 . S
C578 C581 1.357 . S
C579 H547 0.928 . S
C579 C577 1.406 . S
C579 N580 1.261 . S
N580 Co531 2.214 . S
N580 C578 1.325 . S
N580 C579 1.261 . S
C581 H551 0.931 . S
C581 C578 1.357 . S
C581 C582 1.312 . S
C582 H553 0.930 . S
C582 C577 1.261 . S
C582 C581 1.312 . S
C583 O555 1.214 . S
C583 O563 1.234 . S
C584 H556 0.929 . S
C584 C587 1.391 . S
C584 C589 1.391 . S
C585 H557 0.929 1_556 S
C585 C586 1.390 . S
C585 N588 1.391 . S
C586 H558 0.930 1_556 S
C586 C585 1.390 . S
C586 C587 1.392 . S
C587 H559 0.929 . S
C587 C584 1.391 . S
C587 C586 1.392 . S
N588 Co532 2.257 . S
N588 C585 1.391 . S
N588 C589 1.388 . S
C589 H560 0.930 . S
C589 C584 1.391 . S
C589 N588 1.388 . S
Co590 O592 2.143 . S
Co590 O598 2.074 . S
Co590 O601 2.093 . S
Co590 O614 2.097 . S
Co590 N631 2.151 . S
Co590 N639 2.214 . S
Co591 O592 2.160 . S
Co591 O597 2.058 . S
Co591 O607 2.057 . S
Co591 O622 2.037 . S
Co591 N626 2.145 1_556 S
Co591 N647 2.257 1_455 S
O592 Co590 2.143 . S
O592 Co591 2.160 . S
C593 O594 1.278 . S
C593 O601 1.224 . S
O594 C593 1.278 . S
C595 O596 1.245 . S
C595 O607 1.232 . S
O596 C595 1.245 . S
O597 Co591 2.058 . S
O597 C623 1.269 . S
O598 Co590 2.074 . S
O598 C623 1.257 . S
H599 C624 0.930 . S
H600 C630 0.930 . S
O601 Co590 2.093 . S
O601 C593 1.224 . S
H602 C634 0.929 . S
H603 C636 0.930 . S
H604 C637 0.930 . S
H605 C635 0.929 . S
H606 C638 0.928 . S
O607 Co591 2.057 . S
O607 C595 1.232 . S
H608 C627 0.929 . S
H609 C628 0.929 1_655 S
H610 C640 0.931 . S
H611 C632 0.929 . S
H612 C641 0.930 . S
H613 C633 0.931 . S
O614 Co590 2.097 . S
O614 C642 1.214 . S
H615 C643 0.929 . S
H616 C644 0.929 1_554 S
H617 C645 0.930 1_554 S
H618 C646 0.929 . S
H619 C648 0.930 . S
H620 C625 0.930 . S
H621 C629 0.930 . S
O622 Co591 2.037 . S
O622 C642 1.234 . S
C623 O597 1.269 . S
C623 O598 1.257 . S
C624 H599 0.930 . S
C624 C627 1.388 . S
C624 C629 1.418 . S
C625 H620 0.930 . S
C625 C628 1.404 1_655 S
C625 C629 1.353 1_655 S
N626 Co591 2.145 1_554 S
N626 C627 1.397 . S
N626 C628 1.334 . S
C627 H608 0.929 . S
C627 C624 1.388 . S
C627 N626 1.397 . S
C628 H609 0.929 1_455 S
C628 C625 1.404 1_455 S
C628 N626 1.334 . S
C629 H621 0.930 . S
C629 C624 1.418 . S
C629 C625 1.353 1_455 S
C630 H600 0.930 . S
C630 N631 1.330 . S
C630 C632 1.446 . S
N631 Co590 2.151 . S
N631 C630 1.330 . S
N631 C635 1.418 . S
C632 H611 0.929 . S
C632 C630 1.446 . S
C632 C633 1.332 . S
C633 H613 0.931 . S
C633 C632 1.332 . S
C633 C634 1.267 . S
C634 H602 0.929 . S
C634 C633 1.267 . S
C634 C635 1.251 . S
C635 H605 0.929 . S
C635 N631 1.418 . S
C635 C634 1.251 . S
C636 H603 0.930 . S
C636 C638 1.406 . S
C636 C641 1.261 . S
C637 H604 0.930 . S
C637 N639 1.325 . S
C637 C640 1.357 . S
C638 H606 0.928 . S
C638 C636 1.406 . S
C638 N639 1.261 . S
N639 Co590 2.214 . S
N639 C637 1.325 . S
N639 C638 1.261 . S
C640 H610 0.931 . S
C640 C637 1.357 . S
C640 C641 1.312 . S
C641 H612 0.930 . S
C641 C636 1.261 . S
C641 C640 1.312 . S
C642 O614 1.214 . S
C642 O622 1.234 . S
C643 H615 0.929 . S
C643 C646 1.391 . S
C643 C648 1.391 . S
C644 H616 0.929 1_556 S
C644 C645 1.390 . S
C644 N647 1.391 . S
C645 H617 0.930 1_556 S
C645 C644 1.390 . S
C645 C646 1.392 . S
C646 H618 0.929 . S
C646 C643 1.391 . S
C646 C645 1.392 . S
N647 Co591 2.257 1_655 S
N647 C644 1.391 . S
N647 C648 1.388 . S
C648 H619 0.930 . S
C648 C643 1.391 . S
C648 N647 1.388 . S
Co649 O651 2.143 . S
Co649 O657 2.074 . S
Co649 O660 2.093 . S
Co649 O673 2.097 . S
Co649 N690 2.151 . S
Co649 N698 2.214 . S
Co650 O651 2.160 . S
Co650 O656 2.058 . S
Co650 O666 2.057 . S
Co650 O681 2.037 . S
Co650 N685 2.145 1_556 S
Co650 N706 2.257 1_545 S
O651 Co649 2.143 . S
O651 Co650 2.160 . S
C652 O653 1.278 . S
C652 O660 1.224 . S
O653 C652 1.278 . S
C654 O655 1.245 . S
C654 O666 1.232 . S
O655 C654 1.245 . S
O656 Co650 2.058 . S
O656 C682 1.269 . S
O657 Co649 2.074 . S
O657 C682 1.257 . S
H658 C683 0.930 . S
H659 C689 0.930 . S
O660 Co649 2.093 . S
O660 C652 1.224 . S
H661 C693 0.929 . S
H662 C695 0.930 . S
H663 C696 0.930 . S
H664 C694 0.929 . S
H665 C697 0.928 . S
O666 Co650 2.057 . S
O666 C654 1.232 . S
H667 C686 0.929 . S
H668 C687 0.929 1_565 S
H669 C699 0.931 . S
H670 C691 0.929 . S
H671 C700 0.930 . S
H672 C692 0.931 . S
O673 Co649 2.097 . S
O673 C701 1.214 . S
H674 C702 0.929 . S
H675 C703 0.929 1_554 S
H676 C704 0.930 1_554 S
H677 C705 0.929 . S
H678 C707 0.930 . S
H679 C684 0.930 . S
H680 C688 0.930 . S
O681 Co650 2.037 . S
O681 C701 1.234 . S
C682 O656 1.269 . S
C682 O657 1.257 . S
C683 H658 0.930 . S
C683 C686 1.388 . S
C683 C688 1.418 . S
C684 H679 0.930 . S
C684 C687 1.404 1_565 S
C684 C688 1.353 1_565 S
N685 Co650 2.145 1_554 S
N685 C686 1.397 . S
N685 C687 1.334 . S
C686 H667 0.929 . S
C686 C683 1.388 . S
C686 N685 1.397 . S
C687 H668 0.929 1_545 S
C687 C684 1.404 1_545 S
C687 N685 1.334 . S
C688 H680 0.930 . S
C688 C683 1.418 . S
C688 C684 1.353 1_545 S
C689 H659 0.930 . S
C689 N690 1.330 . S
C689 C691 1.446 . S
N690 Co649 2.151 . S
N690 C689 1.330 . S
N690 C694 1.418 . S
C691 H670 0.929 . S
C691 C689 1.446 . S
C691 C692 1.332 . S
C692 H672 0.931 . S
C692 C691 1.332 . S
C692 C693 1.267 . S
C693 H661 0.929 . S
C693 C692 1.267 . S
C693 C694 1.251 . S
C694 H664 0.929 . S
C694 N690 1.418 . S
C694 C693 1.251 . S
C695 H662 0.930 . S
C695 C697 1.406 . S
C695 C700 1.261 . S
C696 H663 0.930 . S
C696 N698 1.325 . S
C696 C699 1.357 . S
C697 H665 0.928 . S
C697 C695 1.406 . S
C697 N698 1.261 . S
N698 Co649 2.214 . S
N698 C696 1.325 . S
N698 C697 1.261 . S
C699 H669 0.931 . S
C699 C696 1.357 . S
C699 C700 1.312 . S
C700 H671 0.930 . S
C700 C695 1.261 . S
C700 C699 1.312 . S
C701 O673 1.214 . S
C701 O681 1.234 . S
C702 H674 0.929 . S
C702 C705 1.391 . S
C702 C707 1.391 . S
C703 H675 0.929 1_556 S
C703 C704 1.390 . S
C703 N706 1.391 . S
C704 H676 0.930 1_556 S
C704 C703 1.390 . S
C704 C705 1.392 . S
C705 H677 0.929 . S
C705 C702 1.391 . S
C705 C704 1.392 . S
N706 Co650 2.257 1_565 S
N706 C703 1.391 . S
N706 C707 1.388 . S
C707 H678 0.930 . S
C707 C702 1.391 . S
C707 N706 1.388 . S
Co708 O710 2.143 . S
Co708 O716 2.074 . S
Co708 O719 2.093 . S
Co708 O732 2.097 . S
Co708 N749 2.151 . S
Co708 N757 2.214 . S
Co709 O710 2.160 . S
Co709 O715 2.058 . S
Co709 O725 2.057 . S
Co709 O740 2.037 . S
Co709 N744 2.145 . S
Co709 N765 2.257 . S
O710 Co708 2.143 . S
O710 Co709 2.160 . S
C711 O712 1.278 . S
C711 O719 1.224 . S
O712 C711 1.278 . S
C713 O714 1.245 . S
C713 O725 1.232 . S
O714 C713 1.245 . S
O715 Co709 2.058 . S
O715 C741 1.269 . S
O716 Co708 2.074 . S
O716 C741 1.257 . S
H717 C742 0.930 . S
H718 C748 0.930 . S
O719 Co708 2.093 . S
O719 C711 1.224 . S
H720 C752 0.929 . S
H721 C754 0.930 . S
H722 C755 0.930 . S
H723 C753 0.929 . S
H724 C756 0.928 . S
O725 Co709 2.057 . S
O725 C713 1.232 . S
H726 C745 0.929 . S
H727 C746 0.929 . S
H728 C758 0.931 . S
H729 C750 0.929 . S
H730 C759 0.930 . S
H731 C751 0.931 . S
O732 Co708 2.097 . S
O732 C760 1.214 . S
H733 C761 0.929 . S
H734 C762 0.929 . S
H735 C763 0.930 . S
H736 C764 0.929 . S
H737 C766 0.930 . S
H738 C743 0.930 . S
H739 C747 0.930 . S
O740 Co709 2.037 . S
O740 C760 1.234 . S
C741 O715 1.269 . S
C741 O716 1.257 . S
C742 H717 0.930 . S
C742 C745 1.388 . S
C742 C747 1.418 . S
C743 H738 0.930 . S
C743 C746 1.404 . S
C743 C747 1.353 . S
N744 Co709 2.145 . S
N744 C745 1.397 . S
N744 C746 1.334 . S
C745 H726 0.929 . S
C745 C742 1.388 . S
C745 N744 1.397 . S
C746 H727 0.929 . S
C746 C743 1.404 . S
C746 N744 1.334 . S
C747 H739 0.930 . S
C747 C742 1.418 . S
C747 C743 1.353 . S
C748 H718 0.930 . S
C748 N749 1.330 . S
C748 C750 1.446 . S
N749 Co708 2.151 . S
N749 C748 1.330 . S
N749 C753 1.418 . S
C750 H729 0.929 . S
C750 C748 1.446 . S
C750 C751 1.332 . S
C751 H731 0.931 . S
C751 C750 1.332 . S
C751 C752 1.267 . S
C752 H720 0.929 . S
C752 C751 1.267 . S
C752 C753 1.251 . S
C753 H723 0.929 . S
C753 N749 1.418 . S
C753 C752 1.251 . S
C754 H721 0.930 . S
C754 C756 1.406 . S
C754 C759 1.261 . S
C755 H722 0.930 . S
C755 N757 1.325 . S
C755 C758 1.357 . S
C756 H724 0.928 . S
C756 C754 1.406 . S
C756 N757 1.261 . S
N757 Co708 2.214 . S
N757 C755 1.325 . S
N757 C756 1.261 . S
C758 H728 0.931 . S
C758 C755 1.357 . S
C758 C759 1.312 . S
C759 H730 0.930 . S
C759 C754 1.261 . S
C759 C758 1.312 . S
C760 O732 1.214 . S
C760 O740 1.234 . S
C761 H733 0.929 . S
C761 C764 1.391 . S
C761 C766 1.391 . S
C762 H734 0.929 . S
C762 C763 1.390 . S
C762 N765 1.391 . S
C763 H735 0.930 . S
C763 C762 1.390 . S
C763 C764 1.392 . S
C764 H736 0.929 . S
C764 C761 1.391 . S
C764 C763 1.392 . S
N765 Co709 2.257 . S
N765 C762 1.391 . S
N765 C766 1.388 . S
C766 H737 0.930 . S
C766 C761 1.391 . S
C766 N765 1.388 . S
Co767 O769 2.143 . S
Co767 O775 2.074 . S
Co767 O778 2.093 . S
Co767 O791 2.097 . S
Co767 N808 2.151 . S
Co767 N816 2.214 . S
Co768 O769 2.160 . S
Co768 O774 2.058 . S
Co768 O784 2.057 . S
Co768 O799 2.037 . S
Co768 N803 2.145 . S
Co768 N824 2.257 . S
O769 Co767 2.143 . S
O769 Co768 2.160 . S
C770 O771 1.278 . S
C770 O778 1.224 . S
O771 C770 1.278 . S
C772 O773 1.245 . S
C772 O784 1.232 . S
O773 C772 1.245 . S
O774 Co768 2.058 . S
O774 C800 1.269 . S
O775 Co767 2.074 . S
O775 C800 1.257 . S
H776 C801 0.930 . S
H777 C807 0.930 . S
O778 Co767 2.093 . S
O778 C770 1.224 . S
H779 C811 0.929 . S
H780 C813 0.930 . S
H781 C814 0.930 . S
H782 C812 0.929 . S
H783 C815 0.928 . S
O784 Co768 2.057 . S
O784 C772 1.232 . S
H785 C804 0.929 . S
H786 C805 0.929 . S
H787 C817 0.931 . S
H788 C809 0.929 . S
H789 C818 0.930 . S
H790 C810 0.931 . S
O791 Co767 2.097 . S
O791 C819 1.214 . S
H792 C820 0.929 . S
H793 C821 0.929 . S
H794 C822 0.930 . S
H795 C823 0.929 . S
H796 C825 0.930 . S
H797 C802 0.930 . S
H798 C806 0.930 . S
O799 Co768 2.037 . S
O799 C819 1.234 . S
C800 O774 1.269 . S
C800 O775 1.257 . S
C801 H776 0.930 . S
C801 C804 1.388 . S
C801 C806 1.418 . S
C802 H797 0.930 . S
C802 C805 1.404 . S
C802 C806 1.353 . S
N803 Co768 2.145 . S
N803 C804 1.397 . S
N803 C805 1.334 . S
C804 H785 0.929 . S
C804 C801 1.388 . S
C804 N803 1.397 . S
C805 H786 0.929 . S
C805 C802 1.404 . S
C805 N803 1.334 . S
C806 H798 0.930 . S
C806 C801 1.418 . S
C806 C802 1.353 . S
C807 H777 0.930 . S
C807 N808 1.330 . S
C807 C809 1.446 . S
N808 Co767 2.151 . S
N808 C807 1.330 . S
N808 C812 1.418 . S
C809 H788 0.929 . S
C809 C807 1.446 . S
C809 C810 1.332 . S
C810 H790 0.931 . S
C810 C809 1.332 . S
C810 C811 1.267 . S
C811 H779 0.929 . S
C811 C810 1.267 . S
C811 C812 1.251 . S
C812 H782 0.929 . S
C812 N808 1.418 . S
C812 C811 1.251 . S
C813 H780 0.930 . S
C813 C815 1.406 . S
C813 C818 1.261 . S
C814 H781 0.930 . S
C814 N816 1.325 . S
C814 C817 1.357 . S
C815 H783 0.928 . S
C815 C813 1.406 . S
C815 N816 1.261 . S
N816 Co767 2.214 . S
N816 C814 1.325 . S
N816 C815 1.261 . S
C817 H787 0.931 . S
C817 C814 1.357 . S
C817 C818 1.312 . S
C818 H789 0.930 . S
C818 C813 1.261 . S
C818 C817 1.312 . S
C819 O791 1.214 . S
C819 O799 1.234 . S
C820 H792 0.929 . S
C820 C823 1.391 . S
C820 C825 1.391 . S
C821 H793 0.929 . S
C821 C822 1.390 . S
C821 N824 1.391 . S
C822 H794 0.930 . S
C822 C821 1.390 . S
C822 C823 1.392 . S
C823 H795 0.929 . S
C823 C820 1.391 . S
C823 C822 1.392 . S
N824 Co768 2.257 . S
N824 C821 1.391 . S
N824 C825 1.388 . S
C825 H796 0.930 . S
C825 C820 1.391 . S
C825 N824 1.388 . S
Co826 O828 2.143 . S
Co826 O834 2.074 . S
Co826 O837 2.093 . S
Co826 O850 2.097 . S
Co826 N867 2.151 . S
Co826 N875 2.214 . S
Co827 O828 2.160 . S
Co827 O833 2.058 . S
Co827 O843 2.057 . S
Co827 O858 2.037 . S
Co827 N862 2.145 . S
Co827 N883 2.257 1_455 S
O828 Co826 2.143 . S
O828 Co827 2.160 . S
C829 O830 1.278 . S
C829 O837 1.224 . S
O830 C829 1.278 . S
C831 O832 1.245 . S
C831 O843 1.232 . S
O832 C831 1.245 . S
O833 Co827 2.058 . S
O833 C859 1.269 . S
O834 Co826 2.074 . S
O834 C859 1.257 . S
H835 C860 0.930 . S
H836 C866 0.930 . S
O837 Co826 2.093 . S
O837 C829 1.224 . S
H838 C870 0.929 . S
H839 C872 0.930 . S
H840 C873 0.930 . S
H841 C871 0.929 . S
H842 C874 0.928 . S
O843 Co827 2.057 . S
O843 C831 1.232 . S
H844 C863 0.929 . S
H845 C864 0.929 1_655 S
H846 C876 0.931 . S
H847 C868 0.929 . S
H848 C877 0.930 . S
H849 C869 0.931 . S
O850 Co826 2.097 . S
O850 C878 1.214 . S
H851 C879 0.929 . S
H852 C880 0.929 . S
H853 C881 0.930 . S
H854 C882 0.929 . S
H855 C884 0.930 . S
H856 C861 0.930 . S
H857 C865 0.930 . S
O858 Co827 2.037 . S
O858 C878 1.234 . S
C859 O833 1.269 . S
C859 O834 1.257 . S
C860 H835 0.930 . S
C860 C863 1.388 . S
C860 C865 1.418 . S
C861 H856 0.930 . S
C861 C864 1.404 1_655 S
C861 C865 1.353 1_655 S
N862 Co827 2.145 . S
N862 C863 1.397 . S
N862 C864 1.334 . S
C863 H844 0.929 . S
C863 C860 1.388 . S
C863 N862 1.397 . S
C864 H845 0.929 1_455 S
C864 C861 1.404 1_455 S
C864 N862 1.334 . S
C865 H857 0.930 . S
C865 C860 1.418 . S
C865 C861 1.353 1_455 S
C866 H836 0.930 . S
C866 N867 1.330 . S
C866 C868 1.446 . S
N867 Co826 2.151 . S
N867 C866 1.330 . S
N867 C871 1.418 . S
C868 H847 0.929 . S
C868 C866 1.446 . S
C868 C869 1.332 . S
C869 H849 0.931 . S
C869 C868 1.332 . S
C869 C870 1.267 . S
C870 H838 0.929 . S
C870 C869 1.267 . S
C870 C871 1.251 . S
C871 H841 0.929 . S
C871 N867 1.418 . S
C871 C870 1.251 . S
C872 H839 0.930 . S
C872 C874 1.406 . S
C872 C877 1.261 . S
C873 H840 0.930 . S
C873 N875 1.325 . S
C873 C876 1.357 . S
C874 H842 0.928 . S
C874 C872 1.406 . S
C874 N875 1.261 . S
N875 Co826 2.214 . S
N875 C873 1.325 . S
N875 C874 1.261 . S
C876 H846 0.931 . S
C876 C873 1.357 . S
C876 C877 1.312 . S
C877 H848 0.930 . S
C877 C872 1.261 . S
C877 C876 1.312 . S
C878 O850 1.214 . S
C878 O858 1.234 . S
C879 H851 0.929 . S
C879 C882 1.391 . S
C879 C884 1.391 . S
C880 H852 0.929 . S
C880 C881 1.390 . S
C880 N883 1.391 . S
C881 H853 0.930 . S
C881 C880 1.390 . S
C881 C882 1.392 . S
C882 H854 0.929 . S
C882 C879 1.391 . S
C882 C881 1.392 . S
N883 Co827 2.257 1_655 S
N883 C880 1.391 . S
N883 C884 1.388 . S
C884 H855 0.930 . S
C884 C879 1.391 . S
C884 N883 1.388 . S
Co885 O887 2.143 . S
Co885 O893 2.074 . S
Co885 O896 2.093 . S
Co885 O909 2.097 . S
Co885 N926 2.151 . S
Co885 N934 2.214 . S
Co886 O887 2.160 . S
Co886 O892 2.058 . S
Co886 O902 2.057 . S
Co886 O917 2.037 . S
Co886 N921 2.145 . S
Co886 N942 2.257 1_545 S
O887 Co885 2.143 . S
O887 Co886 2.160 . S
C888 O889 1.278 . S
C888 O896 1.224 . S
O889 C888 1.278 . S
C890 O891 1.245 . S
C890 O902 1.232 . S
O891 C890 1.245 . S
O892 Co886 2.058 . S
O892 C918 1.269 . S
O893 Co885 2.074 . S
O893 C918 1.257 . S
H894 C919 0.930 . S
H895 C925 0.930 . S
O896 Co885 2.093 . S
O896 C888 1.224 . S
H897 C929 0.929 . S
H898 C931 0.930 . S
H899 C932 0.930 . S
H900 C930 0.929 . S
H901 C933 0.928 . S
O902 Co886 2.057 . S
O902 C890 1.232 . S
H903 C922 0.929 . S
H904 C923 0.929 1_565 S
H905 C935 0.931 . S
H906 C927 0.929 . S
H907 C936 0.930 . S
H908 C928 0.931 . S
O909 Co885 2.097 . S
O909 C937 1.214 . S
H910 C938 0.929 . S
H911 C939 0.929 . S
H912 C940 0.930 . S
H913 C941 0.929 . S
H914 C943 0.930 . S
H915 C920 0.930 . S
H916 C924 0.930 . S
O917 Co886 2.037 . S
O917 C937 1.234 . S
C918 O892 1.269 . S
C918 O893 1.257 . S
C919 H894 0.930 . S
C919 C922 1.388 . S
C919 C924 1.418 . S
C920 H915 0.930 . S
C920 C923 1.404 1_565 S
C920 C924 1.353 1_565 S
N921 Co886 2.145 . S
N921 C922 1.397 . S
N921 C923 1.334 . S
C922 H903 0.929 . S
C922 C919 1.388 . S
C922 N921 1.397 . S
C923 H904 0.929 1_545 S
C923 C920 1.404 1_545 S
C923 N921 1.334 . S
C924 H916 0.930 . S
C924 C919 1.418 . S
C924 C920 1.353 1_545 S
C925 H895 0.930 . S
C925 N926 1.330 . S
C925 C927 1.446 . S
N926 Co885 2.151 . S
N926 C925 1.330 . S
N926 C930 1.418 . S
C927 H906 0.929 . S
C927 C925 1.446 . S
C927 C928 1.332 . S
C928 H908 0.931 . S
C928 C927 1.332 . S
C928 C929 1.267 . S
C929 H897 0.929 . S
C929 C928 1.267 . S
C929 C930 1.251 . S
C930 H900 0.929 . S
C930 N926 1.418 . S
C930 C929 1.251 . S
C931 H898 0.930 . S
C931 C933 1.406 . S
C931 C936 1.261 . S
C932 H899 0.930 . S
C932 N934 1.325 . S
C932 C935 1.357 . S
C933 H901 0.928 . S
C933 C931 1.406 . S
C933 N934 1.261 . S
N934 Co885 2.214 . S
N934 C932 1.325 . S
N934 C933 1.261 . S
C935 H905 0.931 . S
C935 C932 1.357 . S
C935 C936 1.312 . S
C936 H907 0.930 . S
C936 C931 1.261 . S
C936 C935 1.312 . S
C937 O909 1.214 . S
C937 O917 1.234 . S
C938 H910 0.929 . S
C938 C941 1.391 . S
C938 C943 1.391 . S
C939 H911 0.929 . S
C939 C940 1.390 . S
C939 N942 1.391 . S
C940 H912 0.930 . S
C940 C939 1.390 . S
C940 C941 1.392 . S
C941 H913 0.929 . S
C941 C938 1.391 . S
C941 C940 1.392 . S
N942 Co886 2.257 1_565 S
N942 C939 1.391 . S
N942 C943 1.388 . S
C943 H914 0.930 . S
C943 C938 1.391 . S
C943 N942 1.388 . S
H944 C950 0.930 . S
H945 C953 0.930 . S
H946 C954 0.930 . S
H947 C955 0.930 . S
H948 C958 0.930 . S
H949 C959 0.930 . S
C950 H944 0.930 . S
C950 C951 1.355 1_556 S
C950 C952 1.415 . S
C951 C950 1.355 1_554 S
C951 C953 1.419 . S
C952 C950 1.415 . S
C952 C957 1.425 1_556 S
C952 C959 1.409 . S
C953 H945 0.930 . S
C953 C951 1.419 . S
C953 C954 1.362 . S
C954 H946 0.930 . S
C954 C953 1.362 . S
C954 C957 1.409 . S
C955 H947 0.930 . S
C955 C956 1.355 1_554 S
C955 C957 1.415 . S
C956 C955 1.355 1_556 S
C956 C958 1.419 . S
C957 C952 1.425 1_554 S
C957 C954 1.409 . S
C957 C955 1.415 . S
C958 H948 0.930 . S
C958 C956 1.419 . S
C958 C959 1.362 . S
C959 H949 0.930 . S
C959 C952 1.409 . S
C959 C958 1.362 . S
H960 C966 0.930 . S
H961 C969 0.930 . S
H962 C970 0.930 . S
H963 C971 0.930 . S
H964 C974 0.930 . S
H965 C975 0.930 . S
C966 H960 0.930 . S
C966 C967 1.355 1_554 S
C966 C968 1.415 . S
C967 C966 1.355 1_556 S
C967 C969 1.419 . S
C968 C966 1.415 . S
C968 C973 1.425 1_554 S
C968 C975 1.409 . S
C969 H961 0.930 . S
C969 C967 1.419 . S
C969 C970 1.362 . S
C970 H962 0.930 . S
C970 C969 1.362 . S
C970 C973 1.409 . S
C971 H963 0.930 . S
C971 C972 1.355 1_556 S
C971 C973 1.415 . S
C972 C971 1.355 1_554 S
C972 C974 1.419 . S
C973 C968 1.425 1_556 S
C973 C970 1.409 . S
C973 C971 1.415 . S
C974 H964 0.930 . S
C974 C972 1.419 . S
C974 C975 1.362 . S
C975 H965 0.930 . S
C975 C968 1.409 . S
C975 C974 1.362 . S
H976 C982 0.930 1_554 S
H977 C985 0.930 . S
H978 C986 0.930 . S
H979 C987 0.930 . S
H980 C990 0.930 . S
H981 C991 0.930 . S
C982 H976 0.930 1_556 S
C982 C983 1.355 . S
C982 C984 1.415 1_556 S
C983 C982 1.355 . S
C983 C985 1.419 . S
C984 C982 1.415 1_554 S
C984 C989 1.420 1_554 S
C984 C991 1.409 . S
C985 H977 0.930 . S
C985 C983 1.419 . S
C985 C986 1.362 . S
C986 H978 0.930 . S
C986 C985 1.362 . S
C986 C989 1.421 . S
C987 H979 0.930 . S
C987 C988 1.355 . S
C987 C989 1.409 1_554 S
C988 C987 1.355 . S
C988 C990 1.419 . S
C989 C984 1.420 1_556 S
C989 C986 1.421 . S
C989 C987 1.409 1_556 S
C990 H980 0.930 . S
C990 C988 1.419 . S
C990 C991 1.362 . S
C991 H981 0.930 . S
C991 C984 1.409 . S
C991 C990 1.362 . S
H992 C998 0.930 . S
H993 C1001 0.930 . S
H994 C1002 0.930 . S
H995 C1003 0.930 . S
H996 C1006 0.930 . S
H997 C1007 0.930 . S
C998 H992 0.930 . S
C998 C999 1.355 1_554 S
C998 C1000 1.415 . S
C999 C998 1.355 1_556 S
C999 C1001 1.419 . S
C1000 C998 1.415 . S
C1000 C1005 1.425 1_554 S
C1000 C1007 1.409 . S
C1001 H993 0.930 . S
C1001 C999 1.419 . S
C1001 C1002 1.362 . S
C1002 H994 0.930 . S
C1002 C1001 1.362 . S
C1002 C1005 1.409 . S
C1003 H995 0.930 . S
C1003 C1004 1.355 1_556 S
C1003 C1005 1.415 . S
C1004 C1003 1.355 1_554 S
C1004 C1006 1.419 . S
C1005 C1000 1.425 1_556 S
C1005 C1002 1.409 . S
C1005 C1003 1.415 . S
C1006 H996 0.930 . S
C1006 C1004 1.419 . S
C1006 C1007 1.362 . S
C1007 H997 0.930 . S
C1007 C1000 1.409 . S
C1007 C1006 1.362 . S
H1008 C1014 0.930 . S
H1009 C1017 0.930 . S
H1010 C1018 0.930 . S
H1011 C1019 0.930 . S
H1012 C1022 0.930 . S
H1013 C1023 0.930 . S
C1014 H1008 0.930 . S
C1014 C1015 1.355 . S
C1014 C1016 1.415 . S
C1015 C1014 1.355 . S
C1015 C1017 1.419 . S
C1016 C1014 1.415 . S
C1016 C1021 1.425 . S
C1016 C1023 1.409 . S
C1017 H1009 0.930 . S
C1017 C1015 1.419 . S
C1017 C1018 1.362 . S
C1018 H1010 0.930 . S
C1018 C1017 1.362 . S
C1018 C1021 1.409 . S
C1019 H1011 0.930 . S
C1019 C1020 1.355 . S
C1019 C1021 1.415 . S
C1020 C1019 1.355 . S
C1020 C1022 1.419 . S
C1021 C1016 1.425 . S
C1021 C1018 1.409 . S
C1021 C1019 1.415 . S
C1022 H1012 0.930 . S
C1022 C1020 1.419 . S
C1022 C1023 1.362 . S
C1023 H1013 0.930 . S
C1023 C1016 1.409 . S
C1023 C1022 1.362 . S
H1024 C1030 0.930 . S
H1025 C1033 0.930 . S
H1026 C1034 0.930 . S
H1027 C1035 0.930 . S
H1028 C1038 0.930 . S
H1029 C1039 0.930 . S
C1030 H1024 0.930 . S
C1030 C1031 1.355 . S
C1030 C1032 1.415 . S
C1031 C1030 1.355 . S
C1031 C1033 1.419 . S
C1032 C1030 1.415 . S
C1032 C1037 1.425 . S
C1032 C1039 1.409 . S
C1033 H1025 0.930 . S
C1033 C1031 1.419 . S
C1033 C1034 1.362 . S
C1034 H1026 0.930 . S
C1034 C1033 1.362 . S
C1034 C1037 1.409 . S
C1035 H1027 0.930 . S
C1035 C1036 1.355 . S
C1035 C1037 1.415 . S
C1036 C1035 1.355 . S
C1036 C1038 1.419 . S
C1037 C1032 1.425 . S
C1037 C1034 1.409 . S
C1037 C1035 1.415 . S
C1038 H1028 0.930 . S
C1038 C1036 1.419 . S
C1038 C1039 1.362 . S
C1039 H1029 0.930 . S
C1039 C1032 1.409 . S
C1039 C1038 1.362 . S
H1040 C1046 0.930 . S
H1041 C1049 0.930 . S
H1042 C1050 0.930 . S
H1043 C1051 0.930 . S
H1044 C1054 0.930 . S
H1045 C1055 0.930 . S
C1046 H1040 0.930 . S
C1046 C1047 1.355 . S
C1046 C1048 1.415 . S
C1047 C1046 1.355 . S
C1047 C1049 1.419 . S
C1048 C1046 1.415 . S
C1048 C1053 1.425 . S
C1048 C1055 1.409 . S
C1049 H1041 0.930 . S
C1049 C1047 1.419 . S
C1049 C1050 1.362 . S
C1050 H1042 0.930 . S
C1050 C1049 1.362 . S
C1050 C1053 1.409 . S
C1051 H1043 0.930 . S
C1051 C1052 1.355 . S
C1051 C1053 1.415 . S
C1052 C1051 1.355 . S
C1052 C1054 1.419 . S
C1053 C1048 1.425 . S
C1053 C1050 1.409 . S
C1053 C1051 1.415 . S
C1054 H1044 0.930 . S
C1054 C1052 1.419 . S
C1054 C1055 1.362 . S
C1055 H1045 0.930 . S
C1055 C1048 1.409 . S
C1055 C1054 1.362 . S
H1056 C1062 0.930 . S
H1057 C1065 0.930 . S
H1058 C1066 0.930 . S
H1059 C1067 0.930 . S
H1060 C1070 0.930 . S
H1061 C1071 0.930 . S
C1062 H1056 0.930 . S
C1062 C1063 1.355 . S
C1062 C1064 1.415 . S
C1063 C1062 1.355 . S
C1063 C1065 1.419 . S
C1064 C1062 1.415 . S
C1064 C1069 1.425 . S
C1064 C1071 1.409 . S
C1065 H1057 0.930 . S
C1065 C1063 1.419 . S
C1065 C1066 1.362 . S
C1066 H1058 0.930 . S
C1066 C1065 1.362 . S
C1066 C1069 1.409 . S
C1067 H1059 0.930 . S
C1067 C1068 1.355 . S
C1067 C1069 1.415 . S
C1068 C1067 1.355 . S
C1068 C1070 1.419 . S
C1069 C1064 1.425 . S
C1069 C1066 1.409 . S
C1069 C1067 1.415 . S
C1070 H1060 0.930 . S
C1070 C1068 1.419 . S
C1070 C1071 1.362 . S
C1071 H1061 0.930 . S
C1071 C1064 1.409 . S
C1071 C1070 1.362 . S
H1072 C1078 0.930 . S
H1073 C1081 0.930 . S
H1074 C1082 0.930 . S
H1075 C1083 0.930 . S
H1076 C1086 0.930 . S
H1077 C1087 0.930 . S
C1078 H1072 0.930 . S
C1078 C1079 1.355 . S
C1078 C1080 1.415 . S
C1079 C1078 1.355 . S
C1079 C1081 1.419 . S
C1080 C1078 1.415 . S
C1080 C1085 1.425 . S
C1080 C1087 1.409 1_556 S
C1081 H1073 0.930 . S
C1081 C1079 1.419 . S
C1081 C1082 1.362 . S
C1082 H1074 0.930 . S
C1082 C1081 1.362 . S
C1082 C1085 1.409 . S
C1083 H1075 0.930 . S
C1083 C1084 1.355 . S
C1083 C1085 1.415 1_554 S
C1084 C1083 1.355 . S
C1084 C1086 1.419 . S
C1085 C1080 1.425 . S
C1085 C1082 1.409 . S
C1085 C1083 1.415 1_556 S
C1086 H1076 0.930 . S
C1086 C1084 1.419 . S
C1086 C1087 1.362 . S
C1087 H1077 0.930 . S
C1087 C1080 1.409 1_554 S
C1087 C1086 1.362 . S
H1088 C1094 0.930 . S
H1089 C1097 0.930 . S
H1090 C1098 0.930 . S
H1091 C1099 0.930 . S
H1092 C1102 0.930 . S
H1093 C1103 0.930 . S
C1094 H1088 0.930 . S
C1094 C1095 1.355 1_554 S
C1094 C1096 1.415 . S
C1095 C1094 1.355 1_556 S
C1095 C1097 1.419 . S
C1096 C1094 1.415 . S
C1096 C1101 1.425 1_554 S
C1096 C1103 1.409 . S
C1097 H1089 0.930 . S
C1097 C1095 1.419 . S
C1097 C1098 1.362 . S
C1098 H1090 0.930 . S
C1098 C1097 1.362 . S
C1098 C1101 1.409 . S
C1099 H1091 0.930 . S
C1099 C1100 1.355 1_556 S
C1099 C1101 1.415 . S
C1100 C1099 1.355 1_554 S
C1100 C1102 1.419 . S
C1101 C1096 1.425 1_556 S
C1101 C1098 1.409 . S
C1101 C1099 1.415 . S
C1102 H1092 0.930 . S
C1102 C1100 1.419 . S
C1102 C1103 1.362 . S
C1103 H1093 0.930 . S
C1103 C1096 1.409 . S
C1103 C1102 1.362 . S
H1104 C1110 0.930 . S
H1105 C1113 0.930 . S
H1106 C1114 0.930 . S
H1107 C1115 0.930 . S
H1108 C1118 0.930 . S
H1109 C1119 0.930 . S
C1110 H1104 0.930 . S
C1110 C1111 1.355 . S
C1110 C1112 1.418 . S
C1111 C1110 1.355 . S
C1111 C1113 1.419 . S
C1112 C1110 1.418 . S
C1112 C1117 1.427 . S
C1112 C1119 1.404 1_556 S
C1113 H1105 0.930 . S
C1113 C1111 1.419 . S
C1113 C1114 1.362 . S
C1114 H1106 0.930 . S
C1114 C1113 1.362 . S
C1114 C1117 1.409 . S
C1115 H1107 0.930 . S
C1115 C1116 1.355 . S
C1115 C1117 1.415 1_554 S
C1116 C1115 1.355 . S
C1116 C1118 1.419 . S
C1117 C1112 1.427 . S
C1117 C1114 1.409 . S
C1117 C1115 1.415 1_556 S
C1118 H1108 0.930 . S
C1118 C1116 1.419 . S
C1118 C1119 1.362 . S
C1119 H1109 0.930 . S
C1119 C1112 1.404 1_554 S
C1119 C1118 1.362 . S
H1120 C1126 0.930 . S
H1121 C1129 0.930 . S
H1122 C1130 0.930 1_556 S
H1123 C1131 0.930 . S
H1124 C1134 0.930 . S
H1125 C1135 0.930 . S
C1126 H1120 0.930 . S
C1126 C1127 1.355 . S
C1126 C1128 1.411 1_554 S
C1127 C1126 1.355 . S
C1127 C1129 1.419 . S
C1128 C1126 1.411 1_556 S
C1128 C1133 1.427 . S
C1128 C1135 1.411 . S
C1129 H1121 0.930 . S
C1129 C1127 1.419 . S
C1129 C1130 1.364 . S
C1130 H1122 0.930 1_554 S
C1130 C1129 1.364 . S
C1130 C1133 1.408 1_554 S
C1131 H1123 0.930 . S
C1131 C1132 1.355 . S
C1131 C1133 1.415 . S
C1132 C1131 1.355 . S
C1132 C1134 1.419 . S
C1133 C1128 1.427 . S
C1133 C1130 1.408 1_556 S
C1133 C1131 1.415 . S
C1134 H1124 0.930 . S
C1134 C1132 1.419 . S
C1134 C1135 1.362 . S
C1135 H1125 0.930 . S
C1135 C1128 1.411 . S
C1135 C1134 1.362 . S
H1136 C1142 0.930 . S
H1137 C1145 0.930 . S
H1138 C1146 0.930 . S
H1139 C1147 0.930 . S
H1140 C1150 0.930 . S
H1141 C1151 0.930 . S
C1142 H1136 0.930 . S
C1142 C1143 1.355 . S
C1142 C1144 1.415 . S
C1143 C1142 1.355 . S
C1143 C1145 1.419 . S
C1144 C1142 1.415 . S
C1144 C1149 1.425 . S
C1144 C1151 1.409 . S
C1145 H1137 0.930 . S
C1145 C1143 1.419 . S
C1145 C1146 1.362 . S
C1146 H1138 0.930 . S
C1146 C1145 1.362 . S
C1146 C1149 1.409 . S
C1147 H1139 0.930 . S
C1147 C1148 1.355 . S
C1147 C1149 1.415 . S
C1148 C1147 1.355 . S
C1148 C1150 1.419 . S
C1149 C1144 1.425 . S
C1149 C1146 1.409 . S
C1149 C1147 1.415 . S
C1150 H1140 0.930 . S
C1150 C1148 1.419 . S
C1150 C1151 1.362 . S
C1151 H1141 0.930 . S
C1151 C1144 1.409 . S
C1151 C1150 1.362 . S
H1152 C1158 0.930 . S
H1153 C1161 0.930 . S
H1154 C1162 0.930 . S
H1155 C1163 0.930 . S
H1156 C1166 0.930 . S
H1157 C1167 0.930 . S
C1158 H1152 0.930 . S
C1158 C1159 1.355 . S
C1158 C1160 1.415 . S
C1159 C1158 1.355 . S
C1159 C1161 1.419 . S
C1160 C1158 1.415 . S
C1160 C1165 1.425 . S
C1160 C1167 1.409 . S
C1161 H1153 0.930 . S
C1161 C1159 1.419 . S
C1161 C1162 1.362 . S
C1162 H1154 0.930 . S
C1162 C1161 1.362 . S
C1162 C1165 1.409 . S
C1163 H1155 0.930 . S
C1163 C1164 1.355 . S
C1163 C1165 1.415 . S
C1164 C1163 1.355 . S
C1164 C1166 1.419 . S
C1165 C1160 1.425 . S
C1165 C1162 1.409 . S
C1165 C1163 1.415 . S
C1166 H1156 0.930 . S
C1166 C1164 1.419 . S
C1166 C1167 1.362 . S
C1167 H1157 0.930 . S
C1167 C1160 1.409 . S
C1167 C1166 1.362 . S
H1168 C1174 0.930 . S
H1169 C1177 0.930 . S
H1170 C1178 0.930 . S
H1171 C1179 0.930 . S
H1172 C1182 0.930 . S
H1173 C1183 0.930 . S
C1174 H1168 0.930 . S
C1174 C1175 1.355 . S
C1174 C1176 1.415 . S
C1175 C1174 1.355 . S
C1175 C1177 1.419 . S
C1176 C1174 1.415 . S
C1176 C1181 1.425 . S
C1176 C1183 1.409 . S
C1177 H1169 0.930 . S
C1177 C1175 1.419 . S
C1177 C1178 1.362 . S
C1178 H1170 0.930 . S
C1178 C1177 1.362 . S
C1178 C1181 1.409 . S
C1179 H1171 0.930 . S
C1179 C1180 1.355 . S
C1179 C1181 1.415 . S
C1180 C1179 1.355 . S
C1180 C1182 1.419 . S
C1181 C1176 1.425 . S
C1181 C1178 1.409 . S
C1181 C1179 1.415 . S
C1182 H1172 0.930 . S
C1182 C1180 1.419 . S
C1182 C1183 1.362 . S
C1183 H1173 0.930 . S
C1183 C1176 1.409 . S
C1183 C1182 1.362 . S
H1184 C1190 0.930 . S
H1185 C1193 0.930 . S
H1186 C1194 0.930 . S
H1187 C1195 0.930 . S
H1188 C1198 0.930 . S
H1189 C1199 0.930 . S
C1190 H1184 0.930 . S
C1190 C1191 1.355 . S
C1190 C1192 1.415 . S
C1191 C1190 1.355 . S
C1191 C1193 1.419 . S
C1192 C1190 1.415 . S
C1192 C1197 1.425 . S
C1192 C1199 1.409 . S
C1193 H1185 0.930 . S
C1193 C1191 1.419 . S
C1193 C1194 1.362 . S
C1194 H1186 0.930 . S
C1194 C1193 1.362 . S
C1194 C1197 1.409 . S
C1195 H1187 0.930 . S
C1195 C1196 1.355 . S
C1195 C1197 1.415 . S
C1196 C1195 1.355 . S
C1196 C1198 1.419 . S
C1197 C1192 1.425 . S
C1197 C1194 1.409 . S
C1197 C1195 1.415 . S
C1198 H1188 0.930 . S
C1198 C1196 1.419 . S
C1198 C1199 1.362 . S
C1199 H1189 0.930 . S
C1199 C1192 1.409 . S
C1199 C1198 1.362 . S
H1200 C1206 0.930 . S
H1201 C1209 0.930 1_554 S
H1202 C1210 0.930 . S
H1203 C1211 0.930 . S
H1204 C1214 0.930 1_556 S
H1205 C1215 0.930 . S
C1206 H1200 0.930 . S
C1206 C1207 1.355 . S
C1206 C1208 1.432 . S
C1207 C1206 1.355 . S
C1207 C1209 1.419 . S
C1208 C1206 1.432 . S
C1208 C1213 1.424 1_566 S
C1208 C1215 1.393 1_565 S
C1209 H1201 0.930 1_556 S
C1209 C1207 1.419 . S
C1209 C1210 1.362 1_556 S
C1210 H1202 0.930 . S
C1210 C1209 1.362 1_554 S
C1210 C1213 1.393 1_565 S
C1211 H1203 0.930 . S
C1211 C1212 1.355 . S
C1211 C1213 1.432 . S
C1212 C1211 1.355 . S
C1212 C1214 1.419 . S
C1213 C1208 1.424 1_544 S
C1213 C1210 1.393 1_545 S
C1213 C1211 1.432 . S
C1214 H1204 0.930 1_554 S
C1214 C1212 1.419 . S
C1214 C1215 1.362 1_554 S
C1215 H1205 0.930 . S
C1215 C1208 1.393 1_545 S
C1215 C1214 1.362 1_556 S
H1216 C1222 0.930 . S
H1217 C1225 0.930 . S
H1218 C1226 0.930 . S
H1219 C1227 0.930 . S
H1220 C1230 0.930 . S
H1221 C1231 0.930 . S
C1222 H1216 0.930 . S
C1222 C1223 1.355 . S
C1222 C1224 1.415 . S
C1223 C1222 1.355 . S
C1223 C1225 1.419 . S
C1224 C1222 1.415 . S
C1224 C1229 1.425 1_554 S
C1224 C1231 1.409 . S
C1225 H1217 0.930 . S
C1225 C1223 1.419 . S
C1225 C1226 1.362 1_554 S
C1226 H1218 0.930 . S
C1226 C1225 1.362 1_556 S
C1226 C1229 1.409 . S
C1227 H1219 0.930 . S
C1227 C1228 1.355 . S
C1227 C1229 1.415 . S
C1228 C1227 1.355 . S
C1228 C1230 1.419 . S
C1229 C1224 1.425 1_556 S
C1229 C1226 1.409 . S
C1229 C1227 1.415 . S
C1230 H1220 0.930 . S
C1230 C1228 1.419 . S
C1230 C1231 1.362 1_556 S
C1231 H1221 0.930 . S
C1231 C1224 1.409 . S
C1231 C1230 1.362 1_554 S
H1232 C1238 0.930 . S
H1233 C1241 0.930 . S
H1234 C1242 0.930 . S
H1235 C1243 0.930 . S
H1236 C1246 0.930 . S
H1237 C1247 0.930 . S
C1238 H1232 0.930 . S
C1238 C1239 1.355 1_455 S
C1238 C1240 1.415 . S
C1239 C1238 1.355 1_655 S
C1239 C1241 1.419 . S
C1240 C1238 1.415 . S
C1240 C1245 1.425 1_456 S
C1240 C1247 1.409 . S
C1241 H1233 0.930 . S
C1241 C1239 1.419 . S
C1241 C1242 1.362 1_556 S
C1242 H1234 0.930 . S
C1242 C1241 1.362 1_554 S
C1242 C1245 1.409 . S
C1243 H1235 0.930 . S
C1243 C1244 1.355 1_655 S
C1243 C1245 1.415 . S
C1244 C1243 1.355 1_455 S
C1244 C1246 1.419 . S
C1245 C1240 1.425 1_654 S
C1245 C1242 1.409 . S
C1245 C1243 1.415 . S
C1246 H1236 0.930 . S
C1246 C1244 1.419 . S
C1246 C1247 1.362 1_554 S
C1247 H1237 0.930 . S
C1247 C1240 1.409 . S
C1247 C1246 1.362 1_556 S
H1248 C1254 0.930 . S
H1249 C1257 0.930 . S
H1250 C1258 0.930 . S
H1251 C1259 0.930 . S
H1252 C1262 0.930 . S
H1253 C1263 0.930 . S
C1254 H1248 0.930 . S
C1254 C1255 1.355 1_565 S
C1254 C1256 1.415 1_455 S
C1255 C1254 1.355 1_545 S
C1255 C1257 1.419 1_554 S
C1256 C1254 1.415 1_655 S
C1256 C1261 1.425 1_664 S
C1256 C1263 1.409 . S
C1257 H1249 0.930 . S
C1257 C1255 1.419 1_556 S
C1257 C1258 1.362 . S
C1258 H1250 0.930 . S
C1258 C1257 1.362 . S
C1258 C1261 1.409 . S
C1259 H1251 0.930 . S
C1259 C1260 1.355 1_545 S
C1259 C1261 1.415 1_655 S
C1260 C1259 1.355 1_565 S
C1260 C1262 1.419 1_556 S
C1261 C1256 1.425 1_446 S
C1261 C1258 1.409 . S
C1261 C1259 1.415 1_455 S
C1262 H1252 0.930 . S
C1262 C1260 1.419 1_554 S
C1262 C1263 1.362 . S
C1263 H1253 0.930 . S
C1263 C1256 1.409 . S
C1263 C1262 1.362 . S
H1264 C1270 0.930 . S
H1265 C1273 0.930 . S
H1266 C1274 0.930 . S
H1267 C1275 0.930 . S
H1268 C1278 0.930 . S
H1269 C1279 0.930 . S
C1270 H1264 0.930 . S
C1270 C1271 1.355 . S
C1270 C1272 1.415 . S
C1271 C1270 1.355 . S
C1271 C1273 1.419 . S
C1272 C1270 1.415 . S
C1272 C1277 1.425 . S
C1272 C1279 1.409 . S
C1273 H1265 0.930 . S
C1273 C1271 1.419 . S
C1273 C1274 1.362 . S
C1274 H1266 0.930 . S
C1274 C1273 1.362 . S
C1274 C1277 1.409 . S
C1275 H1267 0.930 . S
C1275 C1276 1.355 . S
C1275 C1277 1.415 . S
C1276 C1275 1.355 . S
C1276 C1278 1.419 . S
C1277 C1272 1.425 . S
C1277 C1274 1.409 . S
C1277 C1275 1.415 . S
C1278 H1268 0.930 . S
C1278 C1276 1.419 . S
C1278 C1279 1.362 . S
C1279 H1269 0.930 . S
C1279 C1272 1.409 . S
C1279 C1278 1.362 . S
H1280 C1286 0.930 . S
H1281 C1289 0.930 . S
H1282 C1290 0.930 . S
H1283 C1291 0.930 . S
H1284 C1294 0.930 . S
H1285 C1295 0.930 . S
C1286 H1280 0.930 . S
C1286 C1287 1.355 . S
C1286 C1288 1.415 1_455 S
C1287 C1286 1.355 . S
C1287 C1289 1.419 . S
C1288 C1286 1.415 1_655 S
C1288 C1293 1.425 1_655 S
C1288 C1295 1.409 . S
C1289 H1281 0.930 . S
C1289 C1287 1.419 . S
C1289 C1290 1.362 . S
C1290 H1282 0.930 . S
C1290 C1289 1.362 . S
C1290 C1293 1.409 . S
C1291 H1283 0.930 . S
C1291 C1292 1.355 . S
C1291 C1293 1.415 1_655 S
C1292 C1291 1.355 . S
C1292 C1294 1.419 . S
C1293 C1288 1.425 1_455 S
C1293 C1290 1.409 . S
C1293 C1291 1.415 1_455 S
C1294 H1284 0.930 . S
C1294 C1292 1.419 . S
C1294 C1295 1.362 . S
C1295 H1285 0.930 . S
C1295 C1288 1.409 . S
C1295 C1294 1.362 . S
H1296 C1302 0.930 . S
H1297 C1305 0.930 . S
H1298 C1306 0.930 . S
H1299 C1307 0.930 . S
H1300 C1310 0.930 . S
H1301 C1311 0.930 . S
C1302 H1296 0.930 . S
C1302 C1303 1.355 1_455 S
C1302 C1304 1.415 1_565 S
C1303 C1302 1.355 1_655 S
C1303 C1305 1.419 . S
C1304 C1302 1.415 1_545 S
C1304 C1309 1.425 1_445 S
C1304 C1311 1.409 . S
C1305 H1297 0.930 . S
C1305 C1303 1.419 . S
C1305 C1306 1.362 . S
C1306 H1298 0.930 . S
C1306 C1305 1.362 . S
C1306 C1309 1.409 . S
C1307 H1299 0.930 . S
C1307 C1308 1.355 1_655 S
C1307 C1309 1.415 1_545 S
C1308 C1307 1.355 1_455 S
C1308 C1310 1.419 . S
C1309 C1304 1.425 1_665 S
C1309 C1306 1.409 . S
C1309 C1307 1.415 1_565 S
C1310 H1300 0.930 . S
C1310 C1308 1.419 . S
C1310 C1311 1.362 . S
C1311 H1301 0.930 . S
C1311 C1304 1.409 . S
C1311 C1310 1.362 . S
H1312 C1318 0.930 . S
H1313 C1321 0.930 . S
H1314 C1322 0.930 . S
H1315 C1323 0.930 . S
H1316 C1326 0.930 . S
H1317 C1327 0.930 . S
C1318 H1312 0.930 . S
C1318 C1319 1.355 1_545 S
C1318 C1320 1.415 . S
C1319 C1318 1.355 1_565 S
C1319 C1321 1.419 . S
C1320 C1318 1.415 . S
C1320 C1325 1.425 1_545 S
C1320 C1327 1.409 . S
C1321 H1313 0.930 . S
C1321 C1319 1.419 . S
C1321 C1322 1.362 . S
C1322 H1314 0.930 . S
C1322 C1321 1.362 . S
C1322 C1325 1.409 . S
C1323 H1315 0.930 . S
C1323 C1324 1.355 1_565 S
C1323 C1325 1.415 . S
C1324 C1323 1.355 1_545 S
C1324 C1326 1.419 . S
C1325 C1320 1.425 1_565 S
C1325 C1322 1.409 . S
C1325 C1323 1.415 . S
C1326 H1316 0.930 . S
C1326 C1324 1.419 . S
C1326 C1327 1.362 . S
C1327 H1317 0.930 . S
C1327 C1320 1.409 . S
C1327 C1326 1.362 . S
H1328 C1334 0.930 . S
H1329 C1337 0.930 . S
H1330 C1338 0.930 . S
H1331 C1339 0.930 . S
H1332 C1342 0.930 . S
H1333 C1343 0.930 . S
C1334 H1328 0.930 . S
C1334 C1335 1.355 . S
C1334 C1336 1.415 . S
C1335 C1334 1.355 . S
C1335 C1337 1.419 . S
C1336 C1334 1.415 . S
C1336 C1341 1.425 . S
C1336 C1343 1.409 . S
C1337 H1329 0.930 . S
C1337 C1335 1.419 . S
C1337 C1338 1.362 . S
C1338 H1330 0.930 . S
C1338 C1337 1.362 . S
C1338 C1341 1.409 . S
C1339 H1331 0.930 . S
C1339 C1340 1.355 . S
C1339 C1341 1.415 . S
C1340 C1339 1.355 . S
C1340 C1342 1.419 . S
C1341 C1336 1.425 . S
C1341 C1338 1.409 . S
C1341 C1339 1.415 . S
C1342 H1332 0.930 . S
C1342 C1340 1.419 . S
C1342 C1343 1.362 . S
C1343 H1333 0.930 . S
C1343 C1336 1.409 . S
C1343 C1342 1.362 . S
H1344 C1350 0.930 . S
H1345 C1353 0.930 . S
H1346 C1354 0.930 . S
H1347 C1355 0.930 . S
H1348 C1358 0.930 . S
H1349 C1359 0.930 . S
C1350 H1344 0.930 . S
C1350 C1351 1.355 . S
C1350 C1352 1.415 . S
C1351 C1350 1.355 . S
C1351 C1353 1.419 . S
C1352 C1350 1.415 . S
C1352 C1357 1.425 . S
C1352 C1359 1.409 . S
C1353 H1345 0.930 . S
C1353 C1351 1.419 . S
C1353 C1354 1.362 . S
C1354 H1346 0.930 . S
C1354 C1353 1.362 . S
C1354 C1357 1.409 . S
C1355 H1347 0.930 . S
C1355 C1356 1.355 . S
C1355 C1357 1.415 . S
C1356 C1355 1.355 . S
C1356 C1358 1.419 . S
C1357 C1352 1.425 . S
C1357 C1354 1.409 . S
C1357 C1355 1.415 . S
C1358 H1348 0.930 . S
C1358 C1356 1.419 . S
C1358 C1359 1.362 . S
C1359 H1349 0.930 . S
C1359 C1352 1.409 . S
C1359 C1358 1.362 . S
H1360 C1366 0.930 . S
H1361 C1369 0.930 . S
H1362 C1370 0.930 . S
H1363 C1371 0.930 . S
H1364 C1374 0.930 . S
H1365 C1375 0.930 . S
C1366 H1360 0.930 . S
C1366 C1367 1.355 . S
C1366 C1368 1.415 . S
C1367 C1366 1.355 . S
C1367 C1369 1.419 . S
C1368 C1366 1.415 . S
C1368 C1373 1.425 . S
C1368 C1375 1.409 . S
C1369 H1361 0.930 . S
C1369 C1367 1.419 . S
C1369 C1370 1.362 . S
C1370 H1362 0.930 . S
C1370 C1369 1.362 . S
C1370 C1373 1.409 . S
C1371 H1363 0.930 . S
C1371 C1372 1.355 . S
C1371 C1373 1.415 . S
C1372 C1371 1.355 . S
C1372 C1374 1.419 . S
C1373 C1368 1.425 . S
C1373 C1370 1.409 . S
C1373 C1371 1.415 . S
C1374 H1364 0.930 . S
C1374 C1372 1.419 . S
C1374 C1375 1.362 . S
C1375 H1365 0.930 . S
C1375 C1368 1.409 . S
C1375 C1374 1.362 . S
H1376 C1382 0.930 . S
H1377 C1385 0.930 . S
H1378 C1386 0.930 . S
H1379 C1387 0.930 . S
H1380 C1390 0.930 . S
H1381 C1391 0.930 . S
C1382 H1376 0.930 . S
C1382 C1383 1.355 . S
C1382 C1384 1.415 . S
C1383 C1382 1.355 . S
C1383 C1385 1.419 . S
C1384 C1382 1.415 . S
C1384 C1389 1.425 . S
C1384 C1391 1.409 . S
C1385 H1377 0.930 . S
C1385 C1383 1.419 . S
C1385 C1386 1.362 . S
C1386 H1378 0.930 . S
C1386 C1385 1.362 . S
C1386 C1389 1.409 . S
C1387 H1379 0.930 . S
C1387 C1388 1.355 . S
C1387 C1389 1.415 . S
C1388 C1387 1.355 . S
C1388 C1390 1.419 . S
C1389 C1384 1.425 . S
C1389 C1386 1.409 . S
C1389 C1387 1.415 . S
C1390 H1380 0.930 . S
C1390 C1388 1.419 . S
C1390 C1391 1.362 . S
C1391 H1381 0.930 . S
C1391 C1384 1.409 . S
C1391 C1390 1.362 . S
H1392 C1398 0.930 . S
H1393 C1401 0.930 . S
H1394 C1402 0.930 . S
H1395 C1403 0.930 . S
H1396 C1406 0.930 . S
H1397 C1407 0.930 . S
C1398 H1392 0.930 . S
C1398 C1399 1.355 . S
C1398 C1400 1.415 . S
C1399 C1398 1.355 . S
C1399 C1401 1.419 . S
C1400 C1398 1.415 . S
C1400 C1405 1.425 . S
C1400 C1407 1.409 . S
C1401 H1393 0.930 . S
C1401 C1399 1.419 . S
C1401 C1402 1.362 . S
C1402 H1394 0.930 . S
C1402 C1401 1.362 . S
C1402 C1405 1.409 . S
C1403 H1395 0.930 . S
C1403 C1404 1.355 . S
C1403 C1405 1.415 . S
C1404 C1403 1.355 . S
C1404 C1406 1.419 . S
C1405 C1400 1.425 . S
C1405 C1402 1.409 . S
C1405 C1403 1.415 . S
C1406 H1396 0.930 . S
C1406 C1404 1.419 . S
C1406 C1407 1.362 . S
C1407 H1397 0.930 . S
C1407 C1400 1.409 . S
C1407 C1406 1.362 . S
H1408 C1414 0.930 . S
H1409 C1417 0.930 . S
H1410 C1418 0.930 . S
H1411 C1419 0.930 . S
H1412 C1422 0.930 . S
H1413 C1423 0.930 . S
C1414 H1408 0.930 . S
C1414 C1415 1.355 . S
C1414 C1416 1.415 . S
C1415 C1414 1.355 . S
C1415 C1417 1.419 . S
C1416 C1414 1.415 . S
C1416 C1421 1.425 . S
C1416 C1423 1.409 . S
C1417 H1409 0.930 . S
C1417 C1415 1.419 . S
C1417 C1418 1.362 . S
C1418 H1410 0.930 . S
C1418 C1417 1.362 . S
C1418 C1421 1.409 . S
C1419 H1411 0.930 . S
C1419 C1420 1.355 . S
C1419 C1421 1.415 . S
C1420 C1419 1.355 . S
C1420 C1422 1.419 . S
C1421 C1416 1.425 . S
C1421 C1418 1.409 . S
C1421 C1419 1.415 . S
C1422 H1412 0.930 . S
C1422 C1420 1.419 . S
C1422 C1423 1.362 . S
C1423 H1413 0.930 . S
C1423 C1416 1.409 . S
C1423 C1422 1.362 . S
H1424 C1430 0.930 . S
H1425 C1433 0.930 . S
H1426 C1434 0.930 . S
H1427 C1435 0.930 . S
H1428 C1438 0.930 . S
H1429 C1439 0.930 . S
C1430 H1424 0.930 . S
C1430 C1431 1.355 . S
C1430 C1432 1.415 . S
C1431 C1430 1.355 . S
C1431 C1433 1.419 . S
C1432 C1430 1.415 . S
C1432 C1437 1.425 . S
C1432 C1439 1.409 . S
C1433 H1425 0.930 . S
C1433 C1431 1.419 . S
C1433 C1434 1.362 . S
C1434 H1426 0.930 . S
C1434 C1433 1.362 . S
C1434 C1437 1.409 . S
C1435 H1427 0.930 . S
C1435 C1436 1.355 . S
C1435 C1437 1.415 . S
C1436 C1435 1.355 . S
C1436 C1438 1.419 . S
C1437 C1432 1.425 . S
C1437 C1434 1.409 . S
C1437 C1435 1.415 . S
C1438 H1428 0.930 . S
C1438 C1436 1.419 . S
C1438 C1439 1.362 . S
C1439 H1429 0.930 . S
C1439 C1432 1.409 . S
C1439 C1438 1.362 . S
H1440 C1446 0.930 . S
H1441 C1449 0.930 . S
H1442 C1450 0.930 . S
H1443 C1451 0.930 . S
H1444 C1454 0.930 . S
H1445 C1455 0.930 . S
C1446 H1440 0.930 . S
C1446 C1447 1.355 . S
C1446 C1448 1.415 . S
C1447 C1446 1.355 . S
C1447 C1449 1.419 . S
C1448 C1446 1.415 . S
C1448 C1453 1.425 . S
C1448 C1455 1.409 . S
C1449 H1441 0.930 . S
C1449 C1447 1.419 . S
C1449 C1450 1.362 . S
C1450 H1442 0.930 . S
C1450 C1449 1.362 . S
C1450 C1453 1.409 . S
C1451 H1443 0.930 . S
C1451 C1452 1.355 . S
C1451 C1453 1.415 . S
C1452 C1451 1.355 . S
C1452 C1454 1.419 . S
C1453 C1448 1.425 . S
C1453 C1450 1.409 . S
C1453 C1451 1.415 . S
C1454 H1444 0.930 . S
C1454 C1452 1.419 . S
C1454 C1455 1.362 . S
C1455 H1445 0.930 . S
C1455 C1448 1.409 . S
C1455 C1454 1.362 . S
C951 C52 1.035 . S
C956 C564 1.043 . S
C967 C623 1.036 . S
C972 C111 1.022 . S
C983 C682 1.037 . S
C988 C170 1.017 . S
C999 C505 1.036 . S
C1004 C229 1.021 . S
C1015 C288 1.062 . S
C1020 C918 1.060 . S
C1031 C741 1.054 . S
C1036 C347 1.054 . S
C1047 C800 1.035 . S
C1052 C406 1.018 . S
C1063 C859 1.038 . S
C1068 C465 1.018 . S
C1079 C524 1.020 . S
C1084 C92 1.041 . S
C1095 C583 1.062 . S
C1100 C151 1.060 . S
C1111 C642 1.018 . S
C1116 C210 1.038 . S
C1127 C33 1.062 . S
C1132 C701 1.065 . S
C1143 C760 1.081 . S
C1148 C446 1.076 . S
C1159 C819 1.017 . S
C1164 C269 1.037 . S
C1175 C328 1.039 . S
C1180 C878 1.018 . S
C1191 C937 1.083 . S
C1196 C387 1.079 . S
C1207 C477 1.772 . S
C1212 C5 1.772 . S
C1223 C64 1.764 . S
C1228 C536 1.764 . S
C1239 C595 1.843 1_655 S
C1244 C123 1.843 1_455 S
C1255 C182 1.783 1_545 S
C1260 C654 1.783 1_565 S
C1271 C713 1.779 . S
C1276 C241 1.779 . S
C1287 C300 1.779 . S
C1292 C772 1.779 . S
C1303 C831 1.813 1_655 S
C1308 C359 1.813 1_455 S
C1319 C890 1.843 1_565 S
C1324 C418 1.843 1_545 S
C1335 C239 1.653 . S
C1340 C3 1.640 . S
C1351 C298 1.662 . S
C1356 C62 1.637 . S
C1367 C121 1.690 . S
C1372 C357 1.693 . S
C1383 C416 1.660 . S
C1388 C180 1.637 . S
C1399 C475 1.642 . S
C1404 C711 1.684 . S
C1415 C770 1.653 . S
C1420 C534 1.640 . S
C1431 C829 1.638 . S
C1436 C593 1.658 . S
C1447 C888 1.694 . S
C1452 C652 1.689 . S
