# Generated by pormake.
# Topology smt, (6)-cn, num edge types: 1
# Building blocks:
#     Node 0, Type 0, BuildingBlock: UKALOJ_clean_sbu_0, # of connection points: 6
#     Node 1, Type 0, BuildingBlock: UKALOJ_clean_sbu_0, # of connection points: 6
#     Node 2, Type 0, BuildingBlock: UKALOJ_clean_sbu_0, # of connection points: 6
#     Node 3, Type 0, BuildingBlock: UKALOJ_clean_sbu_0, # of connection points: 6
#     Node 4, Type 0, BuildingBlock: UKALOJ_clean_sbu_0, # of connection points: 6
#     Node 5, Type 0, BuildingBlock: UKALOJ_clean_sbu_0, # of connection points: 6
#     Edge 6, Type (0, 0), BuildingBlock: XIVTED_clean_linker_0, # of connection points: 2
#     Edge 7, Type (0, 0), BuildingBlock: XIVTED_clean_linker_0, # of connection points: 2
#     Edge 8, Type (0, 0), BuildingBlock: XIVTED_clean_linker_0, # of connection points: 2
#     Edge 9, Type (0, 0), BuildingBlock: XIVTED_clean_linker_0, # of connection points: 2
#     Edge 10, Type (0, 0), BuildingBlock: XIVTED_clean_linker_0, # of connection points: 2
#     Edge 11, Type (0, 0), BuildingBlock: XIVTED_clean_linker_0, # of connection points: 2
#     Edge 12, Type (0, 0), BuildingBlock: XIVTED_clean_linker_0, # of connection points: 2
#     Edge 13, Type (0, 0), BuildingBlock: XIVTED_clean_linker_0, # of connection points: 2
#     Edge 14, Type (0, 0), BuildingBlock: XIVTED_clean_linker_0, # of connection points: 2
#     Edge 15, Type (0, 0), BuildingBlock: XIVTED_clean_linker_0, # of connection points: 2
#     Edge 16, Type (0, 0), BuildingBlock: XIVTED_clean_linker_0, # of connection points: 2
#     Edge 17, Type (0, 0), BuildingBlock: XIVTED_clean_linker_0, # of connection points: 2
#     Edge 18, Type (0, 0), BuildingBlock: XIVTED_clean_linker_0, # of connection points: 2
#     Edge 19, Type (0, 0), BuildingBlock: XIVTED_clean_linker_0, # of connection points: 2
#     Edge 20, Type (0, 0), BuildingBlock: XIVTED_clean_linker_0, # of connection points: 2
#     Edge 21, Type (0, 0), BuildingBlock: XIVTED_clean_linker_0, # of connection points: 2
#     Edge 22, Type (0, 0), BuildingBlock: XIVTED_clean_linker_0, # of connection points: 2
#     Edge 23, Type (0, 0), BuildingBlock: XIVTED_clean_linker_0, # of connection points: 2
# Relax obj value: 0.353
# Max RMSD: 0.284
# Mean RMSD: 0.284
data_MOF--net-smt--node1-UKALOJ_clean_sbu_0--edge1-XIVTED_clean_linker_0
_symmetry_space_group_name_H-M    P1
_symmetry_Int_Tables_number       1
_symmetry_cell_setting            triclinic
loop_
_symmetry_equiv_pos_as_xyz
'x, y, z'
_cell_length_a     38.413875
_cell_length_b     38.336389
_cell_length_c     25.614821
_cell_angle_alpha  89.718384
_cell_angle_beta   90.239116
_cell_angle_gamma 119.84424
loop_
_atom_site_label
_atom_site_type_symbol
_atom_site_fract_x
_atom_site_fract_y
_atom_site_fract_z
_atom_type_partial_charge
Zn0 Zn 0.4821 0.11373 0.00805 0.0
O1 O 0.45983 0.06553 0.06187 0.0
C2 C 0.39968 0.08136 0.97396 0.0
Zn3 Zn 0.45416 0.14206 0.05429 0.0
C4 C 0.44167 0.06646 0.10279 0.0
O5 O 0.4359 0.09593 0.11022 0.0
C6 C 0.49643 0.19008 0.96043 0.0
O7 O 0.50734 0.17823 0.09876 0.0
O8 O 0.53202 0.14591 0.05587 0.0
N9 N 0.42186 0.16344 0.09199 0.0
C10 C 0.42446 0.1998 0.09121 0.0
C11 C 0.36808 0.15858 0.12516 0.0
N12 N 0.38695 0.13796 0.11352 0.0
N13 N 0.39077 0.19742 0.11097 0.0
C14 C 0.50114 0.05892 0.93955 0.0
C15 C 0.56429 0.09557 0.92908 0.0
N16 N 0.51323 0.09201 0.96887 0.0
N17 N 0.55257 0.11454 0.96281 0.0
N18 N 0.53251 0.06064 0.9138 0.0
H19 H 0.44356 0.02091 0.97518 0.0
H20 H 0.45895 -0.00402 0.92835 0.0
H21 H 0.44225 0.02974 0.90624 0.0
C22 C 0.45902 0.02429 0.93747 0.0
C23 C 0.46081 0.23779 0.07385 0.0
H24 H 0.4883 0.23566 0.07986 0.0
H25 H 0.46355 0.26395 0.09576 0.0
H26 H 0.45806 0.24274 0.03173 0.0
O27 O 0.47401 0.18845 -0.00226 0.0
O28 O 0.50455 0.16206 0.95489 0.0
C29 C 0.53595 0.17122 0.09042 0.0
O30 O 0.43156 0.08144 0.96124 0.0
O31 O 0.40092 0.1042 0.01059 0.0
Zn32 Zn 0.35984 0.49529 0.1655 0.0
O33 O 0.39048 0.48343 0.22588 0.0
C34 C 0.32112 0.41132 0.13434 0.0
Zn35 Zn 0.30278 0.46051 0.20931 0.0
C36 C 0.37104 0.46142 0.26453 0.0
O37 O 0.33327 0.44686 0.26677 0.0
C38 C 0.29296 0.49748 0.11193 0.0
O39 O 0.31225 0.5111 0.25413 0.0
O40 O 0.36661 0.54496 0.20658 0.0
N41 N 0.24947 0.423 0.24523 0.0
C42 C 0.21374 0.42161 0.24465 0.0
C43 C 0.20471 0.36744 0.28047 0.0
N44 N 0.24382 0.38941 0.2678 0.0
N45 N 0.18503 0.38676 0.26582 0.0
C46 C 0.43974 0.52615 0.10405 0.0
C47 C 0.45166 0.58481 0.08246 0.0
N48 N 0.41206 0.53236 0.1277 0.0
N49 N 0.41995 0.56909 0.11487 0.0
N50 N 0.46486 0.55858 0.07535 0.0
H51 H 0.42593 0.47022 0.1414 0.0
H52 H 0.47094 0.4925 0.10229 0.0
H53 H 0.42282 0.46893 0.07084 0.0
C54 C 0.43987 0.48716 0.10502 0.0
C55 C 0.20759 0.45526 0.22599 0.0
H56 H 0.2355 0.48458 0.23078 0.0
H57 H 0.18294 0.45565 0.24794 0.0
H58 H 0.1994 0.45092 0.18402 0.0
O59 O 0.2735 0.47631 0.15101 0.0
O60 O 0.3296 0.50768 0.10677 0.0
C61 C 0.34331 0.54415 0.24205 0.0
O62 O 0.35213 0.44487 0.12474 0.0
O63 O 0.29501 0.40993 0.16589 0.0
Zn64 Zn 0.86957 0.36751 0.33591 0.0
O65 O 0.91755 0.3949 0.39044 0.0
C66 C 0.90502 0.31857 0.30599 0.0
Zn67 Zn 0.84215 0.31108 0.38142 0.0
C68 C 0.91468 0.37611 0.43277 0.0
O69 O 0.88513 0.34095 0.43938 0.0
C70 C 0.79559 0.303 0.28617 0.0
O71 O 0.80253 0.32682 0.42065 0.0
O72 O 0.83698 0.38532 0.38146 0.0
N73 N 0.82126 0.25875 0.42298 0.0
C74 C 0.78517 0.22491 0.42478 0.0
C75 C 0.82702 0.21256 0.46383 0.0
N76 N 0.84705 0.25114 0.44784 0.0
N77 N 0.78809 0.19532 0.44992 0.0
C78 C 0.92318 0.44032 0.26461 0.0
C79 C 0.88575 0.46606 0.25263 0.0
N80 N 0.89037 0.41953 0.29444 0.0
N81 N 0.86734 0.43585 0.28737 0.0
N82 N 0.92079 0.46935 0.23762 0.0
H83 H 0.96187 0.4218 0.30159 0.0
H84 H 0.98619 0.46158 0.25362 0.0
H85 H 0.9531 0.41085 0.23287 0.0
C86 C 0.95821 0.43331 0.26336 0.0
C87 C 0.74857 0.22003 0.39693 0.0
H88 H 0.75006 0.24949 0.39231 0.0
H89 H 0.72071 0.19995 0.41824 0.0
H90 H 0.74666 0.2067 0.35797 0.0
O91 O 0.79936 0.28212 0.32196 0.0
O92 O 0.82081 0.34029 0.28313 0.0
C93 C 0.81003 0.36283 0.4136 0.0
O94 O 0.90277 0.34894 0.29084 0.0
O95 O 0.88303 0.29736 0.34351 0.0
Zn96 Zn 0.48948 0.86441 0.49692 0.0
O97 O 0.50083 0.90549 0.55804 0.0
C98 C 0.57295 0.91272 0.46321 0.0
Zn99 Zn 0.52739 0.84425 0.53869 0.0
C100 C 0.52425 0.90918 0.59558 0.0
O101 O 0.54099 0.88773 0.59656 0.0
C102 C 0.48929 0.79764 0.44169 0.0
O103 O 0.47841 0.80224 0.58555 0.0
O104 O 0.44174 0.82009 0.53878 0.0
N105 N 0.56625 0.82853 0.57198 0.0
C106 C 0.56651 0.79351 0.57213 0.0
C107 C 0.62232 0.83803 0.60419 0.0
N108 N 0.60088 0.85612 0.59216 0.0
N109 N 0.6016 0.79879 0.59143 0.0
C110 C 0.45369 0.90901 0.4328 0.0
C111 C 0.39294 0.86253 0.42498 0.0
N112 N 0.4494 0.87787 0.46204 0.0
N113 N 0.41134 0.84925 0.4578 0.0
N114 N 0.41889 0.90014 0.40901 0.0
H115 H 0.51115 0.95558 0.46005 0.0
H116 H 0.48649 0.97201 0.41381 0.0
H117 H 0.50821 0.94285 0.39129 0.0
C118 C 0.49229 0.94724 0.42435 0.0
C119 C 0.53171 0.75394 0.55585 0.0
H120 H 0.503 0.75374 0.56095 0.0
H121 H 0.53091 0.72901 0.579 0.0
H122 H 0.53499 0.74877 0.51406 0.0
O123 O 0.51137 0.79981 0.48002 0.0
O124 O 0.47772 0.82322 0.43731 0.0
C125 C 0.44445 0.79855 0.57439 0.0
O126 O 0.53845 0.90871 0.45578 0.0
O127 O 0.57647 0.88824 0.49346 0.0
Zn128 Zn 0.61565 0.49296 0.67366 0.0
O129 O 0.58862 0.5101 0.73269 0.0
C130 C 0.65948 0.57812 0.64156 0.0
Zn131 Zn 0.67373 0.52611 0.71605 0.0
C132 C 0.6088 0.52962 0.77244 0.0
O133 O 0.64573 0.54008 0.77584 0.0
C134 C 0.67968 0.48724 0.61872 0.0
O135 O 0.66191 0.47316 0.75808 0.0
O136 O 0.60391 0.44203 0.71698 0.0
N137 N 0.7283 0.56016 0.75111 0.0
C138 C 0.76246 0.55847 0.74856 0.0
C139 C 0.777 0.61439 0.78366 0.0
N140 N 0.73735 0.5948 0.77328 0.0
N141 N 0.79363 0.59249 0.76796 0.0
C142 C 0.53917 0.47148 0.60924 0.0
C143 C 0.51787 0.40999 0.59094 0.0
N144 N 0.56229 0.46013 0.63561 0.0
N145 N 0.54865 0.42172 0.62473 0.0
N146 N 0.51143 0.44077 0.58048 0.0
H147 H 0.55508 0.52613 0.65099 0.0
H148 H 0.51318 0.50988 0.60627 0.0
H149 H 0.56331 0.53185 0.58146 0.0
C150 C 0.54289 0.51221 0.61249 0.0
C151 C 0.76465 0.5226 0.72992 0.0
H152 H 0.73557 0.49465 0.73582 0.0
H153 H 0.78862 0.52011 0.75101 0.0
H154 H 0.77168 0.52584 0.68768 0.0
O155 O 0.70072 0.51086 0.65504 0.0
O156 O 0.64244 0.47519 0.61656 0.0
C157 C 0.62847 0.44141 0.74974 0.0
O158 O 0.62862 0.54488 0.63035 0.0
O159 O 0.68386 0.57879 0.67568 0.0
Zn160 Zn 0.12359 0.62824 0.82611 0.0
O161 O 0.08085 0.59685 0.88501 0.0
C162 C 0.07776 0.66625 0.79329 0.0
Zn163 Zn 0.1447 0.68505 0.87031 0.0
C164 C 0.07748 0.6158 0.92353 0.0
O165 O 0.10008 0.65371 0.92648 0.0
C166 C 0.19242 0.69575 0.77432 0.0
O167 O 0.18548 0.67571 0.91689 0.0
O168 O 0.16631 0.62178 0.86886 0.0
N169 N 0.15972 0.73844 0.90605 0.0
C170 C 0.19398 0.7742 0.90591 0.0
C171 C 0.14863 0.78365 0.9393 0.0
N172 N 0.13164 0.74435 0.92713 0.0
N173 N 0.18767 0.80316 0.92581 0.0
C174 C 0.07756 0.54898 0.76215 0.0
C175 C 0.12561 0.53845 0.7438 0.0
N176 N 0.11021 0.57655 0.78807 0.0
N177 N 0.13985 0.56952 0.77721 0.0
N178 N 0.08651 0.52483 0.73401 0.0
H179 H 0.03351 0.56091 0.79669 0.0
H180 H 0.01306 0.51694 0.75557 0.0
H181 H 0.03797 0.56601 0.72637 0.0
C182 C 0.03818 0.54813 0.7604 0.0
C183 C 0.23387 0.78022 0.88886 0.0
H184 H 0.23521 0.75222 0.89431 0.0
H185 H 0.25851 0.80487 0.91137 0.0
H186 H 0.23835 0.78854 0.84692 0.0
O187 O 0.19028 0.71501 0.81321 0.0
O188 O 0.16628 0.65907 0.76871 0.0
C189 C 0.18796 0.6448 0.90517 0.0
O190 O 0.08091 0.63548 0.78394 0.0
O191 O 0.10198 0.69245 0.82527 0.0
H192 H 0.32669 0.04915 0.02189 0.0
H193 H 0.23783 0.85005 0.84908 0.0
H194 H 0.38459 0.03753 0.88441 0.0
H195 H 0.19496 0.8543 0.0027 0.0
H196 H 0.28355 0.92257 0.85245 0.0
H197 H 0.26885 0.98289 0.00436 0.0
C198 C 0.32676 0.03322 0.9871 0.0
C199 C 0.36083 0.04849 0.95506 0.0
C200 C 0.26421 0.9077 0.8855 0.0
C201 C 0.29516 0.97245 0.93545 0.0
C202 C 0.23861 0.86621 0.88393 0.0
C203 C 0.21399 0.84601 0.92673 0.0
C204 C 0.26487 0.92929 0.92996 0.0
C205 C 0.21422 0.86879 0.96949 0.0
C206 C 0.29391 -0.00484 0.9775 0.0
C207 C 0.35927 0.02647 0.91068 0.0
N208 N 0.23962 0.90922 0.97032 0.0
N209 N 0.32725 0.98928 0.9026 0.0
H210 H 0.27685 0.33641 0.17698 0.0
H211 H 0.40139 0.24978 0.03247 0.0
H212 H 0.36413 0.40136 0.05672 0.0
H213 H 0.34616 0.20832 0.18312 0.0
H214 H 0.37729 0.29782 0.03007 0.0
H215 H 0.28909 0.28012 0.16622 0.0
C216 C 0.29779 0.33844 0.1473 0.0
C217 C 0.32001 0.3739 0.11822 0.0
C218 C 0.37066 0.2784 0.06381 0.0
C219 C 0.33448 0.3099 0.10638 0.0
C220 C 0.38509 0.2515 0.06569 0.0
C221 C 0.37741 0.22641 0.1093 0.0
C222 C 0.34762 0.27963 0.10533 0.0
C223 C 0.35346 0.22787 0.14943 0.0
C224 C 0.30508 0.30647 0.14166 0.0
C225 C 0.34684 0.37484 0.08049 0.0
N226 N 0.33957 0.25424 0.14667 0.0
N227 N 0.35367 0.34347 0.07603 0.0
H228 H 0.94807 0.34639 0.21562 0.0
H229 H 0.13509 0.34337 0.34384 0.0
H230 H 0.94039 0.28179 0.35744 0.0
H231 H 0.13719 0.38988 0.18975 0.0
H232 H 0.06216 0.31542 0.34636 0.0
H233 H 0.0151 0.35622 0.2005 0.0
C234 C 0.96018 0.33355 0.24299 0.0
C235 C 0.93903 0.314 0.28836 0.0
C236 C 0.07857 0.33176 0.31196 0.0
C237 C 0.01589 0.32566 0.27191 0.0
C238 C 0.12011 0.34784 0.31072 0.0
C239 C 0.14228 0.37036 0.2675 0.0
C240 C 0.0591 0.33815 0.26948 0.0
C241 C 0.12153 0.37456 0.22494 0.0
C242 C -0.0015 0.33923 0.23445 0.0
C243 C 0.95578 0.2973 0.32208 0.0
N244 N 0.08117 0.359 0.22722 0.0
N245 N -0.00639 0.30424 0.31376 0.0
H246 H 0.80245 0.13597 0.4216 0.0
H247 H 0.57573 0.97345 0.40384 0.0
H248 H 0.7108 0.15769 0.48333 0.0
H249 H 0.65243 0.93866 0.4852 0.0
H250 H 0.6313 0.0422 0.3991 0.0
H251 H 0.753 0.06352 0.41751 0.0
C252 C 0.77188 0.12546 0.43396 0.0
C253 C 0.76008 0.15288 0.4507 0.0
C254 C 0.63597 0.01921 0.41711 0.0
C255 C 0.70399 0.07122 0.4449 0.0
C256 C 0.60435 0.97989 0.41975 0.0
C257 C 0.60893 0.95031 0.4463 0.0
C258 C 0.6728 0.02886 0.43988 0.0
C259 C 0.64736 0.9606 0.46495 0.0
C260 C 0.74392 0.08443 0.43144 0.0
C261 C 0.72044 0.13791 0.46712 0.0
N262 N 0.67794 -0.00067 0.46188 0.0
N263 N 0.69354 0.09808 0.46294 0.0
H264 H 0.64497 0.79136 0.6693 0.0
H265 H 0.62499 0.59011 0.55464 0.0
H266 H 0.59427 0.74465 0.51801 0.0
H267 H 0.69988 0.65209 0.68701 0.0
H268 H 0.61693 0.64842 0.53713 0.0
H269 H 0.66847 0.74251 0.67452 0.0
C270 C 0.63871 0.77067 0.63733 0.0
C271 C 0.61626 0.77085 0.59419 0.0
C272 C 0.63567 0.64956 0.56952 0.0
C273 C 0.6432 0.7153 0.59936 0.0
C274 C 0.64025 0.61626 0.5795 0.0
C275 C 0.66254 0.61601 0.62283 0.0
C276 C 0.65308 0.6826 0.60356 0.0
C277 C 0.68228 0.65095 0.65326 0.0
C278 C 0.6522 0.74295 0.64014 0.0
C279 C 0.60962 0.7441 0.55317 0.0
N280 N 0.67648 0.68257 0.64363 0.0
N281 N 0.6226 0.71709 0.55701 0.0
H282 H 0.04618 0.70999 0.83472 0.0
H283 H 0.83551 0.58234 0.68967 0.0
H284 H 0.02512 0.62243 0.71547 0.0
H285 H 0.8491 0.63788 0.83991 0.0
H286 H 0.90763 0.60732 0.68759 0.0
H287 H 0.97745 0.69664 0.82327 0.0
C288 C 0.0275 0.68875 0.8051 0.0
C289 C 0.0412 0.66678 0.77654 0.0
C290 C 0.89479 0.61384 0.72115 0.0
C291 C 0.96244 0.65103 0.76392 0.0
C292 C 0.85347 0.59891 0.72285 0.0
C293 C 0.83601 0.60644 0.76625 0.0
C294 C 0.91898 0.63724 0.76261 0.0
C295 C 0.86134 0.63071 0.80633 0.0
C296 C 0.98812 0.68082 0.79907 0.0
C297 C 0.01557 0.63955 0.73886 0.0
N298 N 0.90156 0.64509 0.80372 0.0
N299 N 0.97723 0.63209 0.73403 0.0
H300 H 0.44061 -0.00517 0.09527 0.0
H301 H 0.45043 0.89793 0.31743 0.0
H302 H 0.41484 0.06604 0.20165 0.0
H303 H 0.37987 0.94161 0.39298 0.0
H304 H 0.44996 0.93204 0.23723 0.0
H305 H 0.42713 0.94637 0.16499 0.0
C306 C 0.43226 0.00032 0.13342 0.0
C307 C 0.42972 0.03494 0.14302 0.0
C308 C 0.43344 0.93342 0.27046 0.0
C309 C 0.4158 0.98044 0.22377 0.0
C310 C 0.43421 0.91432 0.31633 0.0
C311 C 0.41528 0.91737 0.36116 0.0
C312 C 0.41338 0.95567 0.2695 0.0
C313 C 0.39471 0.93883 0.35874 0.0
C314 C 0.42496 0.97282 0.17349 0.0
C315 C 0.41774 0.04002 0.19277 0.0
N316 N 0.39467 0.95769 0.31362 0.0
N317 N 0.41165 0.01328 0.2315 0.0
H318 H 0.45205 0.49694 0.28054 0.0
H319 H 0.43362 0.39034 0.55681 0.0
H320 H 0.3382 0.41157 0.34878 0.0
H321 H 0.54105 0.49432 0.5017 0.0
H322 H 0.39846 0.3924 0.4772 0.0
H323 H 0.4861 0.49045 0.35753 0.0
C324 C 0.43423 0.47656 0.31149 0.0
C325 C 0.39223 0.45498 0.30841 0.0
C326 C 0.42963 0.41499 0.48286 0.0
C327 C 0.43096 0.44757 0.39671 0.0
C328 C 0.44947 0.41383 0.52813 0.0
C329 C 0.48969 0.44293 0.53617 0.0
C330 C 0.45063 0.44502 0.44519 0.0
C331 C 0.50956 0.47232 0.49769 0.0
C332 C 0.45366 0.47303 0.35556 0.0
C333 C 0.37065 0.42899 0.34971 0.0
N334 N 0.48985 0.47261 0.45383 0.0
N335 N 0.39027 0.42608 0.39227 0.0
H336 H 0.10743 0.54208 0.63361 0.0
H337 H 0.91208 0.34594 0.53015 0.0
H338 H 0.01717 0.45393 0.735 0.0
H339 H 0.98326 0.45007 0.43329 0.0
H340 H 0.95682 0.37998 0.60328 0.0
H341 H 0.06851 0.50349 0.55753 0.0
C342 C 0.07948 0.51426 0.63949 0.0
C343 C 0.06503 0.50093 0.68999 0.0
C344 C 0.96275 0.3953 0.56598 0.0
C345 C 0.02061 0.45691 0.60411 0.0
C346 C 0.93732 0.37588 0.52409 0.0
C347 C 0.94376 0.39539 0.47561 0.0
C348 C -0.00498 0.43441 0.55936 0.0
C349 C 0.97705 0.43407 0.47009 0.0
C350 C 0.05727 0.49244 0.59637 0.0
C351 C 0.02881 0.46502 0.69635 0.0
N352 N 0.00142 0.45243 0.51162 0.0
N353 N 0.00766 0.44415 0.65374 0.0
H354 H 0.48785 0.95404 0.61044 0.0
H355 H 0.58215 0.03145 0.89431 0.0
H356 H 0.57175 0.92421 0.68206 0.0
H357 H 0.48336 0.04108 0.83054 0.0
H358 H 0.58341 -0.00328 0.81437 0.0
H359 H 0.49124 0.99206 0.6881 0.0
C360 C 0.50727 0.95578 0.64231 0.0
C361 C 0.52934 0.9357 0.63992 0.0
C362 C 0.56119 0.00608 0.81819 0.0
C363 C 0.5331 0.97891 0.72915 0.0
C364 C 0.56045 0.02566 0.86365 0.0
C365 C 0.53183 0.03782 0.86932 0.0
C366 C 0.53355 -0.00054 0.77801 0.0
C367 C 0.50481 0.03068 0.82839 0.0
C368 C 0.50904 0.97733 0.68678 0.0
C369 C 0.55407 0.93908 0.68239 0.0
N370 N 0.50635 0.01199 0.78444 0.0
N371 N 0.55516 0.96014 0.72543 0.0
H372 H 0.53465 0.55766 0.07945 0.0
H373 H 0.5346 0.5232 0.77297 0.0
H374 H 0.44882 0.56102 0.97409 0.0
H375 H 0.63832 0.55586 0.87037 0.0
H376 H 0.50137 0.53432 0.84698 0.0
H377 H 0.57246 0.55441 0.00403 0.0
C378 C 0.52412 0.55795 0.04026 0.0
C379 C 0.48888 0.55949 0.03233 0.0
C380 C 0.53152 0.53933 0.85201 0.0
C381 C 0.5311 0.55554 0.94664 0.0
C382 C 0.55043 0.53288 0.80985 0.0
C383 C 0.58919 0.53848 0.81563 0.0
C384 C 0.55132 0.55093 0.90041 0.0
C385 C 0.60841 0.5512 0.86422 0.0
C386 C 0.54554 0.55622 -0.0026 0.0
C387 C 0.47609 0.55999 0.98124 0.0
N388 N 0.58913 0.55667 0.90492 0.0
N389 N 0.49701 0.55766 0.94019 0.0
H390 H 0.03193 0.53438 0.93652 0.0
H391 H 0.94847 0.54784 0.21716 0.0
H392 H 0.06058 0.64701 0.00926 0.0
H393 H 0.94226 0.44057 0.15558 0.0
H394 H 0.984 0.58439 0.13776 0.0
H395 H -0.00796 0.49867 0.0128 0.0
C396 C 0.02953 0.5516 0.96831 0.0
C397 C 0.04986 0.59374 0.96673 0.0
C398 C 0.97518 0.55294 0.14191 0.0
C399 C 0.00452 0.5531 0.05425 0.0
C400 C 0.95514 0.53229 0.18707 0.0
C401 C 0.94374 0.4917 0.19324 0.0
C402 C 0.98306 0.53243 0.10249 0.0
C403 C 0.95202 0.47229 0.15302 0.0
C404 C 0.00693 0.5312 0.01197 0.0
C405 C 0.04561 0.61449 0.00902 0.0
N406 N 0.97118 0.49283 0.10931 0.0
N407 N 0.02352 0.59394 0.05123 0.0
H408 H 0.51681 0.19449 0.85766 0.0
H409 H 0.6454 0.4338 0.85156 0.0
H410 H 0.52352 0.26761 0.98895 0.0
H411 H 0.58281 0.36485 0.7155 0.0
H412 H 0.61505 0.37132 0.90325 0.0
H413 H 0.55422 0.25592 0.80504 0.0
C414 C 0.52594 0.22346 0.87519 0.0
C415 C 0.51642 0.22613 0.92723 0.0
C416 C 0.60846 0.37 0.86191 0.0
C417 C 0.5601 0.29596 0.86834 0.0
C418 C 0.626 0.40542 0.83245 0.0
C419 C 0.61632 0.40424 0.77947 0.0
C420 C 0.58192 0.33337 0.83773 0.0
C421 C 0.59072 0.36688 0.75644 0.0
C422 C 0.54729 0.25833 0.84535 0.0
C423 C 0.52933 0.26429 0.94853 0.0
N424 N 0.57435 0.33282 0.78574 0.0
N425 N 0.55079 0.29782 0.91907 0.0
H426 H 0.19864 0.6485 0.0109 0.0
H427 H 0.31383 0.52357 0.01164 0.0
H428 H 0.2295 0.61006 0.8691 0.0
H429 H 0.23561 0.51672 0.13652 0.0
H430 H 0.29334 0.56493 0.96139 0.0
H431 H 0.22514 0.61214 0.06161 0.0
C432 C 0.21209 0.63341 -0.00939 0.0
C433 C 0.21205 0.63215 0.93599 0.0
C434 C 0.28042 0.554 -0.00039 0.0
C435 C 0.24155 0.59037 -0.00692 0.0
C436 C 0.29183 0.53021 0.02805 0.0
C437 C 0.27588 0.51622 0.0779 0.0
C438 C 0.25363 0.5646 0.02175 0.0
C439 C 0.24795 0.52616 0.09778 0.0
C440 C 0.22658 0.61224 0.01938 0.0
C441 C 0.22905 0.61161 0.91129 0.0
N442 N 0.23797 0.55011 0.06982 0.0
N443 N 0.24306 0.59139 0.94003 0.0
H444 H 0.58576 0.14186 0.10951 0.0
H445 H 0.76148 0.34129 0.23505 0.0
H446 H 0.57185 0.24496 0.13945 0.0
H447 H 0.74724 0.22372 0.26258 0.0
H448 H 0.69724 0.30975 0.18811 0.0
H449 H 0.6499 0.17466 0.15504 0.0
C450 C 0.59625 0.17149 0.12579 0.0
C451 C 0.57354 0.19082 0.12072 0.0
C452 C 0.70834 0.29099 0.20435 0.0
C453 C 0.64726 0.22869 0.17242 0.0
C454 C 0.74512 0.3089 0.23057 0.0
C455 C 0.75962 0.28499 0.25264 0.0
C456 C 0.68642 0.24902 0.19952 0.0
C457 C 0.73704 0.2432 0.24632 0.0
C458 C 0.63282 0.19011 0.15187 0.0
C459 C 0.58844 0.22904 0.14283 0.0
N460 N 0.7016 0.22654 0.22018 0.0
N461 N 0.62472 0.247 0.16746 0.0
H462 H 0.46283 0.79204 0.34145 0.0
H463 H 0.33885 0.55245 0.34717 0.0
H464 H 0.47072 0.7215 0.46786 0.0
H465 H 0.37779 0.61975 0.20324 0.0
H466 H 0.37467 0.61583 0.3959 0.0
H467 H 0.42146 0.72988 0.29254 0.0
C468 C 0.45645 0.76352 0.35843 0.0
C469 C 0.47077 0.76183 0.40826 0.0
C470 C 0.37478 0.61662 0.35362 0.0
C471 C 0.42238 0.69101 0.35384 0.0
C472 C 0.35393 0.58066 0.32597 0.0
C473 C 0.35558 0.5812 0.27138 0.0
C474 C 0.39667 0.65303 0.3262 0.0
C475 C 0.37603 0.61833 0.24546 0.0
C476 C 0.43266 0.72818 0.33079 0.0
C477 C 0.46114 0.72416 0.42902 0.0
N478 N 0.39595 0.65287 0.27313 0.0
N479 N 0.43716 0.69013 0.40189 0.0
H480 H 0.83791 0.44175 0.43158 0.0
H481 H 0.64094 0.41586 0.56682 0.0
H482 H 0.73657 0.32424 0.46343 0.0
H483 H 0.75844 0.51881 0.59183 0.0
H484 H 0.67169 0.38404 0.5165 0.0
H485 H 0.80525 0.47229 0.47878 0.0
C486 C 0.80863 0.42229 0.44846 0.0
C487 C 0.78981 0.38033 0.44353 0.0
C488 C 0.69061 0.41362 0.53293 0.0
C489 C 0.75221 0.41539 0.49746 0.0
C490 C 0.67314 0.432 0.56108 0.0
C491 C 0.6973 0.47003 0.58345 0.0
C492 C 0.73235 0.4338 0.52644 0.0
C493 C 0.73882 0.4894 0.57546 0.0
C494 C 0.79013 0.43983 0.47558 0.0
C495 C 0.75208 0.35669 0.46657 0.0
N496 N 0.75505 0.47109 0.54743 0.0
N497 N 0.73425 0.37463 0.49239 0.0
H498 H 0.43811 0.79125 0.68037 0.0
H499 H 0.19847 0.67448 0.67499 0.0
H500 H 0.36917 0.75183 0.53799 0.0
H501 H 0.26855 0.75317 0.80046 0.0
H502 H 0.26049 0.69349 0.62735 0.0
H503 H 0.37527 0.76511 0.72989 0.0
C504 C 0.40967 0.77583 0.65986 0.0
C505 C 0.40847 0.77343 0.60531 0.0
C506 C 0.26222 0.70689 0.66509 0.0
C507 C 0.33724 0.74463 0.66089 0.0
C508 C 0.2269 0.69636 0.69201 0.0
C509 C 0.22844 0.71278 0.74132 0.0
C510 C 0.29931 0.73341 0.68813 0.0
C511 C 0.26602 0.74051 0.76206 0.0
C512 C 0.37399 0.76161 0.68788 0.0
C513 C 0.37109 0.75408 0.58016 0.0
N514 N 0.30009 0.74972 0.73552 0.0
N515 N 0.33688 0.74057 0.60815 0.0
loop_
_geom_bond_atom_site_label_1
_geom_bond_atom_site_label_2
_geom_bond_distance
_geom_bond_site_symmetry_2
_ccdc_geom_bond_type
Zn0 O1 2.055 1_556 S
Zn0 O8 2.046 1_556 S
Zn0 N16 2.036 . S
Zn0 O28 2.053 . S
Zn0 O30 2.066 . S
O1 Zn0 2.055 1_554 S
O1 C4 1.259 . S
C2 O30 1.256 . S
C2 O31 1.244 1_556 S
Zn3 O5 2.046 . S
Zn3 O7 2.055 . S
Zn3 N9 2.036 . S
Zn3 O27 2.066 1_554 S
Zn3 O31 2.053 . S
C4 O1 1.259 . S
C4 O5 1.254 . S
O5 Zn3 2.046 . S
O5 C4 1.254 . S
C6 O27 1.256 . S
C6 O28 1.244 . S
O7 Zn3 2.055 . S
O7 C29 1.259 . S
O8 Zn0 2.046 1_554 S
O8 C29 1.254 . S
N9 Zn3 2.036 . S
N9 C10 1.298 . S
N9 N12 1.398 . S
C10 N9 1.298 . S
C10 N13 1.367 . S
C10 C23 1.481 . S
C11 N12 1.299 . S
C11 N13 1.379 . S
N12 N9 1.398 . S
N12 C11 1.299 . S
N13 C10 1.367 . S
N13 C11 1.379 . S
C14 N16 1.298 . S
C14 N18 1.367 . S
C14 C22 1.481 . S
C15 N17 1.299 . S
C15 N18 1.379 . S
N16 Zn0 2.036 . S
N16 C14 1.298 . S
N16 N17 1.398 . S
N17 C15 1.299 . S
N17 N16 1.398 . S
N18 C14 1.367 . S
N18 C15 1.379 . S
H19 C22 0.980 1_554 S
H20 C22 0.981 . S
H21 C22 0.981 . S
C22 C14 1.481 . S
C22 H19 0.980 1_556 S
C22 H20 0.981 . S
C22 H21 0.981 . S
C23 C10 1.481 . S
C23 H24 0.980 . S
C23 H25 0.981 . S
C23 H26 0.981 . S
H24 C23 0.980 . S
H25 C23 0.981 . S
H26 C23 0.981 . S
O27 Zn3 2.066 1_556 S
O27 C6 1.256 . S
O28 Zn0 2.053 . S
O28 C6 1.244 . S
C29 O7 1.259 . S
C29 O8 1.254 . S
O30 Zn0 2.066 . S
O30 C2 1.256 . S
O31 C2 1.244 1_554 S
O31 Zn3 2.053 . S
Zn32 O33 2.055 . S
Zn32 O40 2.046 . S
Zn32 N48 2.036 . S
Zn32 O60 2.053 . S
Zn32 O62 2.066 . S
O33 Zn32 2.055 . S
O33 C36 1.259 . S
C34 O62 1.256 . S
C34 O63 1.244 . S
Zn35 O37 2.046 . S
Zn35 O39 2.055 . S
Zn35 N41 2.036 . S
Zn35 O59 2.066 . S
Zn35 O63 2.053 . S
C36 O33 1.259 . S
C36 O37 1.254 . S
O37 Zn35 2.046 . S
O37 C36 1.254 . S
C38 O59 1.256 . S
C38 O60 1.244 . S
O39 Zn35 2.055 . S
O39 C61 1.259 . S
O40 Zn32 2.046 . S
O40 C61 1.254 . S
N41 Zn35 2.036 . S
N41 C42 1.298 . S
N41 N44 1.398 . S
C42 N41 1.298 . S
C42 N45 1.367 . S
C42 C55 1.481 . S
C43 N44 1.299 . S
C43 N45 1.379 . S
N44 N41 1.398 . S
N44 C43 1.299 . S
N45 C42 1.367 . S
N45 C43 1.379 . S
C46 N48 1.298 . S
C46 N50 1.367 . S
C46 C54 1.481 . S
C47 N49 1.299 . S
C47 N50 1.379 . S
N48 Zn32 2.036 . S
N48 C46 1.298 . S
N48 N49 1.398 . S
N49 C47 1.299 . S
N49 N48 1.398 . S
N50 C46 1.367 . S
N50 C47 1.379 . S
H51 C54 0.980 . S
H52 C54 0.981 . S
H53 C54 0.981 . S
C54 C46 1.481 . S
C54 H51 0.980 . S
C54 H52 0.981 . S
C54 H53 0.981 . S
C55 C42 1.481 . S
C55 H56 0.980 . S
C55 H57 0.981 . S
C55 H58 0.981 . S
H56 C55 0.980 . S
H57 C55 0.981 . S
H58 C55 0.981 . S
O59 Zn35 2.066 . S
O59 C38 1.256 . S
O60 Zn32 2.053 . S
O60 C38 1.244 . S
C61 O39 1.259 . S
C61 O40 1.254 . S
O62 Zn32 2.066 . S
O62 C34 1.256 . S
O63 C34 1.244 . S
O63 Zn35 2.053 . S
Zn64 O65 2.055 . S
Zn64 O72 2.046 . S
Zn64 N80 2.036 . S
Zn64 O92 2.053 . S
Zn64 O94 2.066 . S
O65 Zn64 2.055 . S
O65 C68 1.259 . S
C66 O94 1.256 . S
C66 O95 1.244 . S
Zn67 O69 2.046 . S
Zn67 O71 2.055 . S
Zn67 N73 2.036 . S
Zn67 O91 2.066 . S
Zn67 O95 2.053 . S
C68 O65 1.259 . S
C68 O69 1.254 . S
O69 Zn67 2.046 . S
O69 C68 1.254 . S
C70 O91 1.256 . S
C70 O92 1.244 . S
O71 Zn67 2.055 . S
O71 C93 1.259 . S
O72 Zn64 2.046 . S
O72 C93 1.254 . S
N73 Zn67 2.036 . S
N73 C74 1.298 . S
N73 N76 1.398 . S
C74 N73 1.298 . S
C74 N77 1.367 . S
C74 C87 1.481 . S
C75 N76 1.299 . S
C75 N77 1.379 . S
N76 N73 1.398 . S
N76 C75 1.299 . S
N77 C74 1.367 . S
N77 C75 1.379 . S
C78 N80 1.298 . S
C78 N82 1.367 . S
C78 C86 1.481 . S
C79 N81 1.299 . S
C79 N82 1.379 . S
N80 Zn64 2.036 . S
N80 C78 1.298 . S
N80 N81 1.398 . S
N81 C79 1.299 . S
N81 N80 1.398 . S
N82 C78 1.367 . S
N82 C79 1.379 . S
H83 C86 0.980 . S
H84 C86 0.981 . S
H85 C86 0.981 . S
C86 C78 1.481 . S
C86 H83 0.980 . S
C86 H84 0.981 . S
C86 H85 0.981 . S
C87 C74 1.481 . S
C87 H88 0.980 . S
C87 H89 0.981 . S
C87 H90 0.981 . S
H88 C87 0.980 . S
H89 C87 0.981 . S
H90 C87 0.981 . S
O91 Zn67 2.066 . S
O91 C70 1.256 . S
O92 Zn64 2.053 . S
O92 C70 1.244 . S
C93 O71 1.259 . S
C93 O72 1.254 . S
O94 Zn64 2.066 . S
O94 C66 1.256 . S
O95 C66 1.244 . S
O95 Zn67 2.053 . S
Zn96 O97 2.055 . S
Zn96 O104 2.046 . S
Zn96 N112 2.036 . S
Zn96 O124 2.053 . S
Zn96 O126 2.066 . S
O97 Zn96 2.055 . S
O97 C100 1.259 . S
C98 O126 1.256 . S
C98 O127 1.244 . S
Zn99 O101 2.046 . S
Zn99 O103 2.055 . S
Zn99 N105 2.036 . S
Zn99 O123 2.066 . S
Zn99 O127 2.053 . S
C100 O97 1.259 . S
C100 O101 1.254 . S
O101 Zn99 2.046 . S
O101 C100 1.254 . S
C102 O123 1.256 . S
C102 O124 1.244 . S
O103 Zn99 2.055 . S
O103 C125 1.259 . S
O104 Zn96 2.046 . S
O104 C125 1.254 . S
N105 Zn99 2.036 . S
N105 C106 1.298 . S
N105 N108 1.398 . S
C106 N105 1.298 . S
C106 N109 1.367 . S
C106 C119 1.481 . S
C107 N108 1.299 . S
C107 N109 1.379 . S
N108 N105 1.398 . S
N108 C107 1.299 . S
N109 C106 1.367 . S
N109 C107 1.379 . S
C110 N112 1.298 . S
C110 N114 1.367 . S
C110 C118 1.481 . S
C111 N113 1.299 . S
C111 N114 1.379 . S
N112 Zn96 2.036 . S
N112 C110 1.298 . S
N112 N113 1.398 . S
N113 C111 1.299 . S
N113 N112 1.398 . S
N114 C110 1.367 . S
N114 C111 1.379 . S
H115 C118 0.980 . S
H116 C118 0.981 . S
H117 C118 0.981 . S
C118 C110 1.481 . S
C118 H115 0.980 . S
C118 H116 0.981 . S
C118 H117 0.981 . S
C119 C106 1.481 . S
C119 H120 0.980 . S
C119 H121 0.981 . S
C119 H122 0.981 . S
H120 C119 0.980 . S
H121 C119 0.981 . S
H122 C119 0.981 . S
O123 Zn99 2.066 . S
O123 C102 1.256 . S
O124 Zn96 2.053 . S
O124 C102 1.244 . S
C125 O103 1.259 . S
C125 O104 1.254 . S
O126 Zn96 2.066 . S
O126 C98 1.256 . S
O127 C98 1.244 . S
O127 Zn99 2.053 . S
Zn128 O129 2.055 . S
Zn128 O136 2.046 . S
Zn128 N144 2.036 . S
Zn128 O156 2.053 . S
Zn128 O158 2.066 . S
O129 Zn128 2.055 . S
O129 C132 1.259 . S
C130 O158 1.256 . S
C130 O159 1.244 . S
Zn131 O133 2.046 . S
Zn131 O135 2.055 . S
Zn131 N137 2.036 . S
Zn131 O155 2.066 . S
Zn131 O159 2.053 . S
C132 O129 1.259 . S
C132 O133 1.254 . S
O133 Zn131 2.046 . S
O133 C132 1.254 . S
C134 O155 1.256 . S
C134 O156 1.244 . S
O135 Zn131 2.055 . S
O135 C157 1.259 . S
O136 Zn128 2.046 . S
O136 C157 1.254 . S
N137 Zn131 2.036 . S
N137 C138 1.298 . S
N137 N140 1.398 . S
C138 N137 1.298 . S
C138 N141 1.367 . S
C138 C151 1.481 . S
C139 N140 1.299 . S
C139 N141 1.379 . S
N140 N137 1.398 . S
N140 C139 1.299 . S
N141 C138 1.367 . S
N141 C139 1.379 . S
C142 N144 1.298 . S
C142 N146 1.367 . S
C142 C150 1.481 . S
C143 N145 1.299 . S
C143 N146 1.379 . S
N144 Zn128 2.036 . S
N144 C142 1.298 . S
N144 N145 1.398 . S
N145 C143 1.299 . S
N145 N144 1.398 . S
N146 C142 1.367 . S
N146 C143 1.379 . S
H147 C150 0.980 . S
H148 C150 0.981 . S
H149 C150 0.981 . S
C150 C142 1.481 . S
C150 H147 0.980 . S
C150 H148 0.981 . S
C150 H149 0.981 . S
C151 C138 1.481 . S
C151 H152 0.980 . S
C151 H153 0.981 . S
C151 H154 0.981 . S
H152 C151 0.980 . S
H153 C151 0.981 . S
H154 C151 0.981 . S
O155 Zn131 2.066 . S
O155 C134 1.256 . S
O156 Zn128 2.053 . S
O156 C134 1.244 . S
C157 O135 1.259 . S
C157 O136 1.254 . S
O158 Zn128 2.066 . S
O158 C130 1.256 . S
O159 C130 1.244 . S
O159 Zn131 2.053 . S
Zn160 O161 2.055 . S
Zn160 O168 2.046 . S
Zn160 N176 2.036 . S
Zn160 O188 2.053 . S
Zn160 O190 2.066 . S
O161 Zn160 2.055 . S
O161 C164 1.259 . S
C162 O190 1.256 . S
C162 O191 1.244 . S
Zn163 O165 2.046 . S
Zn163 O167 2.055 . S
Zn163 N169 2.036 . S
Zn163 O187 2.066 . S
Zn163 O191 2.053 . S
C164 O161 1.259 . S
C164 O165 1.254 . S
O165 Zn163 2.046 . S
O165 C164 1.254 . S
C166 O187 1.256 . S
C166 O188 1.244 . S
O167 Zn163 2.055 . S
O167 C189 1.259 . S
O168 Zn160 2.046 . S
O168 C189 1.254 . S
N169 Zn163 2.036 . S
N169 C170 1.298 . S
N169 N172 1.398 . S
C170 N169 1.298 . S
C170 N173 1.367 . S
C170 C183 1.481 . S
C171 N172 1.299 . S
C171 N173 1.379 . S
N172 N169 1.398 . S
N172 C171 1.299 . S
N173 C170 1.367 . S
N173 C171 1.379 . S
C174 N176 1.298 . S
C174 N178 1.367 . S
C174 C182 1.481 . S
C175 N177 1.299 . S
C175 N178 1.379 . S
N176 Zn160 2.036 . S
N176 C174 1.298 . S
N176 N177 1.398 . S
N177 C175 1.299 . S
N177 N176 1.398 . S
N178 C174 1.367 . S
N178 C175 1.379 . S
H179 C182 0.980 . S
H180 C182 0.981 . S
H181 C182 0.981 . S
C182 C174 1.481 . S
C182 H179 0.980 . S
C182 H180 0.981 . S
C182 H181 0.981 . S
C183 C170 1.481 . S
C183 H184 0.980 . S
C183 H185 0.981 . S
C183 H186 0.981 . S
H184 C183 0.980 . S
H185 C183 0.981 . S
H186 C183 0.981 . S
O187 Zn163 2.066 . S
O187 C166 1.256 . S
O188 Zn160 2.053 . S
O188 C166 1.244 . S
C189 O167 1.259 . S
C189 O168 1.254 . S
O190 Zn160 2.066 . S
O190 C162 1.256 . S
O191 C162 1.244 . S
O191 Zn163 2.053 . S
H192 C198 0.930 . S
H193 C202 0.930 . S
H194 C207 0.929 . S
H195 C205 0.929 . S
H196 C200 0.929 . S
H197 C206 0.929 . S
C198 H192 0.930 . S
C198 C199 1.367 1_554 S
C198 C206 1.378 1_545 S
C199 C198 1.367 1_556 S
C199 C207 1.433 . S
C200 H196 0.929 . S
C200 C202 1.378 . S
C200 C204 1.350 . S
C201 C204 1.463 . S
C201 C206 1.350 1_556 S
C201 N209 1.427 . S
C202 H193 0.930 . S
C202 C200 1.378 . S
C202 C203 1.367 . S
C203 C202 1.367 . S
C203 C205 1.433 1_556 S
C204 C200 1.350 . S
C204 C201 1.463 . S
C204 N208 1.427 1_556 S
C205 H195 0.929 . S
C205 C203 1.433 1_554 S
C205 N208 1.384 . S
C206 H197 0.929 . S
C206 C198 1.378 1_565 S
C206 C201 1.350 1_554 S
C207 H194 0.929 . S
C207 C199 1.433 . S
C207 N209 1.384 1_545 S
N208 C204 1.427 1_554 S
N208 C205 1.384 . S
N209 C201 1.427 . S
N209 C207 1.384 1_565 S
H210 C216 0.930 . S
H211 C220 0.930 . S
H212 C225 0.929 . S
H213 C223 0.929 . S
H214 C218 0.929 . S
H215 C224 0.929 . S
C216 H210 0.930 . S
C216 C217 1.367 . S
C216 C224 1.378 . S
C217 C216 1.367 . S
C217 C225 1.433 . S
C218 H214 0.929 . S
C218 C220 1.378 . S
C218 C222 1.350 . S
C219 C222 1.463 . S
C219 C224 1.350 . S
C219 N227 1.427 . S
C220 H211 0.930 . S
C220 C218 1.378 . S
C220 C221 1.367 . S
C221 C220 1.367 . S
C221 C223 1.433 . S
C222 C218 1.350 . S
C222 C219 1.463 . S
C222 N226 1.427 . S
C223 H213 0.929 . S
C223 C221 1.433 . S
C223 N226 1.384 . S
C224 H215 0.929 . S
C224 C216 1.378 . S
C224 C219 1.350 . S
C225 H212 0.929 . S
C225 C217 1.433 . S
C225 N227 1.384 . S
N226 C222 1.427 . S
N226 C223 1.384 . S
N227 C219 1.427 . S
N227 C225 1.384 . S
H228 C234 0.930 . S
H229 C238 0.930 . S
H230 C243 0.929 . S
H231 C241 0.929 . S
H232 C236 0.929 . S
H233 C242 0.929 . S
C234 H228 0.930 . S
C234 C235 1.367 . S
C234 C242 1.378 1_655 S
C235 C234 1.367 . S
C235 C243 1.433 . S
C236 H232 0.929 . S
C236 C238 1.378 . S
C236 C240 1.350 . S
C237 C240 1.463 . S
C237 C242 1.350 . S
C237 N245 1.427 . S
C238 H229 0.930 . S
C238 C236 1.378 . S
C238 C239 1.367 . S
C239 C238 1.367 . S
C239 C241 1.433 . S
C240 C236 1.350 . S
C240 C237 1.463 . S
C240 N244 1.427 . S
C241 H231 0.929 . S
C241 C239 1.433 . S
C241 N244 1.384 . S
C242 H233 0.929 . S
C242 C234 1.378 1_455 S
C242 C237 1.350 . S
C243 H230 0.929 . S
C243 C235 1.433 . S
C243 N245 1.384 1_655 S
N244 C240 1.427 . S
N244 C241 1.384 . S
N245 C237 1.427 . S
N245 C243 1.384 1_455 S
H246 C252 0.930 . S
H247 C256 0.930 . S
H248 C261 0.929 . S
H249 C259 0.929 . S
H250 C254 0.929 . S
H251 C260 0.929 . S
C252 H246 0.930 . S
C252 C253 1.367 . S
C252 C260 1.378 . S
C253 C252 1.367 . S
C253 C261 1.433 . S
C254 H250 0.929 . S
C254 C256 1.378 1_545 S
C254 C258 1.350 . S
C255 C258 1.463 . S
C255 C260 1.350 . S
C255 N263 1.427 . S
C256 H247 0.930 . S
C256 C254 1.378 1_565 S
C256 C257 1.367 . S
C257 C256 1.367 . S
C257 C259 1.433 . S
C258 C254 1.350 . S
C258 C255 1.463 . S
C258 N262 1.427 . S
C259 H249 0.929 . S
C259 C257 1.433 . S
C259 N262 1.384 1_565 S
C260 H251 0.929 . S
C260 C252 1.378 . S
C260 C255 1.350 . S
C261 H248 0.929 . S
C261 C253 1.433 . S
C261 N263 1.384 . S
N262 C258 1.427 . S
N262 C259 1.384 1_545 S
N263 C255 1.427 . S
N263 C261 1.384 . S
H264 C270 0.930 . S
H265 C274 0.930 . S
H266 C279 0.929 . S
H267 C277 0.929 . S
H268 C272 0.929 . S
H269 C278 0.929 . S
C270 H264 0.930 . S
C270 C271 1.367 . S
C270 C278 1.378 . S
C271 C270 1.367 . S
C271 C279 1.433 . S
C272 H268 0.929 . S
C272 C274 1.378 . S
C272 C276 1.350 . S
C273 C276 1.463 . S
C273 C278 1.350 . S
C273 N281 1.427 . S
C274 H265 0.930 . S
C274 C272 1.378 . S
C274 C275 1.367 . S
C275 C274 1.367 . S
C275 C277 1.433 . S
C276 C272 1.350 . S
C276 C273 1.463 . S
C276 N280 1.427 . S
C277 H267 0.929 . S
C277 C275 1.433 . S
C277 N280 1.384 . S
C278 H269 0.929 . S
C278 C270 1.378 . S
C278 C273 1.350 . S
C279 H266 0.929 . S
C279 C271 1.433 . S
C279 N281 1.384 . S
N280 C276 1.427 . S
N280 C277 1.384 . S
N281 C273 1.427 . S
N281 C279 1.384 . S
H282 C288 0.930 . S
H283 C292 0.930 . S
H284 C297 0.929 . S
H285 C295 0.929 . S
H286 C290 0.929 . S
H287 C296 0.929 . S
C288 H282 0.930 . S
C288 C289 1.367 . S
C288 C296 1.378 1_455 S
C289 C288 1.367 . S
C289 C297 1.433 . S
C290 H286 0.929 . S
C290 C292 1.378 . S
C290 C294 1.350 . S
C291 C294 1.463 . S
C291 C296 1.350 . S
C291 N299 1.427 . S
C292 H283 0.930 . S
C292 C290 1.378 . S
C292 C293 1.367 . S
C293 C292 1.367 . S
C293 C295 1.433 . S
C294 C290 1.350 . S
C294 C291 1.463 . S
C294 N298 1.427 . S
C295 H285 0.929 . S
C295 C293 1.433 . S
C295 N298 1.384 . S
C296 H287 0.929 . S
C296 C288 1.378 1_655 S
C296 C291 1.350 . S
C297 H284 0.929 . S
C297 C289 1.433 . S
C297 N299 1.384 1_455 S
N298 C294 1.427 . S
N298 C295 1.384 . S
N299 C291 1.427 . S
N299 C297 1.384 1_655 S
H300 C306 0.930 . S
H301 C310 0.930 . S
H302 C315 0.929 . S
H303 C313 0.929 . S
H304 C308 0.929 . S
H305 C314 0.929 1_565 S
C306 H300 0.930 . S
C306 C307 1.367 . S
C306 C314 1.378 . S
C307 C306 1.367 . S
C307 C315 1.433 . S
C308 H304 0.929 . S
C308 C310 1.378 . S
C308 C312 1.350 . S
C309 C312 1.463 . S
C309 C314 1.350 . S
C309 N317 1.427 . S
C310 H301 0.930 . S
C310 C308 1.378 . S
C310 C311 1.367 1_545 S
C311 C310 1.367 1_565 S
C311 C313 1.433 . S
C312 C308 1.350 . S
C312 C309 1.463 . S
C312 N316 1.427 1_545 S
C313 H303 0.929 . S
C313 C311 1.433 . S
C313 N316 1.384 . S
C314 H305 0.929 1_545 S
C314 C306 1.378 . S
C314 C309 1.350 . S
C315 H302 0.929 . S
C315 C307 1.433 . S
C315 N317 1.384 . S
N316 C312 1.427 1_565 S
N316 C313 1.384 . S
N317 C309 1.427 . S
N317 C315 1.384 . S
H318 C324 0.930 . S
H319 C328 0.930 . S
H320 C333 0.929 . S
H321 C331 0.929 . S
H322 C326 0.929 . S
H323 C332 0.929 . S
C324 H318 0.930 . S
C324 C325 1.367 . S
C324 C332 1.378 . S
C325 C324 1.367 . S
C325 C333 1.433 . S
C326 H322 0.929 . S
C326 C328 1.378 . S
C326 C330 1.350 . S
C327 C330 1.463 . S
C327 C332 1.350 . S
C327 N335 1.427 . S
C328 H319 0.930 . S
C328 C326 1.378 . S
C328 C329 1.367 . S
C329 C328 1.367 . S
C329 C331 1.433 . S
C330 C326 1.350 . S
C330 C327 1.463 . S
C330 N334 1.427 . S
C331 H321 0.929 . S
C331 C329 1.433 . S
C331 N334 1.384 . S
C332 H323 0.929 . S
C332 C324 1.378 . S
C332 C327 1.350 . S
C333 H320 0.929 . S
C333 C325 1.433 . S
C333 N335 1.384 . S
N334 C330 1.427 . S
N334 C331 1.384 . S
N335 C327 1.427 . S
N335 C333 1.384 . S
H336 C342 0.930 . S
H337 C346 0.930 . S
H338 C351 0.929 . S
H339 C349 0.929 . S
H340 C344 0.929 . S
H341 C350 0.929 . S
C342 H336 0.930 . S
C342 C343 1.367 . S
C342 C350 1.378 . S
C343 C342 1.367 . S
C343 C351 1.433 1_455 S
C344 H340 0.929 . S
C344 C346 1.378 . S
C344 C348 1.350 . S
C345 C348 1.463 . S
C345 C350 1.350 1_655 S
C345 N353 1.427 . S
C346 H337 0.930 . S
C346 C344 1.378 . S
C346 C347 1.367 . S
C347 C346 1.367 . S
C347 C349 1.433 . S
C348 C344 1.350 . S
C348 C345 1.463 . S
C348 N352 1.446 . S
C349 H339 0.929 . S
C349 C347 1.433 . S
C349 N352 1.392 . S
C350 H341 0.929 . S
C350 C342 1.378 . S
C350 C345 1.350 1_455 S
C351 H338 0.929 . S
C351 C343 1.433 1_655 S
C351 N353 1.384 . S
N352 C348 1.446 . S
N352 C349 1.392 . S
N353 C345 1.427 . S
N353 C351 1.384 . S
H354 C360 0.930 . S
H355 C364 0.930 1_565 S
H356 C369 0.929 . S
H357 C367 0.929 . S
H358 C362 0.929 . S
H359 C368 0.929 1_545 S
C360 H354 0.930 . S
C360 C361 1.367 . S
C360 C368 1.378 . S
C361 C360 1.367 . S
C361 C369 1.433 . S
C362 H358 0.929 . S
C362 C364 1.378 1_565 S
C362 C366 1.350 . S
C363 C366 1.463 . S
C363 C368 1.350 . S
C363 N371 1.427 . S
C364 H355 0.930 1_545 S
C364 C362 1.378 1_545 S
C364 C365 1.367 . S
C365 C364 1.367 . S
C365 C367 1.433 . S
C366 C362 1.350 . S
C366 C363 1.463 . S
C366 N370 1.427 1_565 S
C367 H357 0.929 . S
C367 C365 1.433 . S
C367 N370 1.384 . S
C368 H359 0.929 1_565 S
C368 C360 1.378 . S
C368 C363 1.350 . S
C369 H356 0.929 . S
C369 C361 1.433 . S
C369 N371 1.384 . S
N370 C366 1.427 1_545 S
N370 C367 1.384 . S
N371 C363 1.427 . S
N371 C369 1.384 . S
H372 C378 0.930 . S
H373 C382 0.930 . S
H374 C387 0.929 . S
H375 C385 0.929 . S
H376 C380 0.929 . S
H377 C386 0.929 . S
C378 H372 0.930 . S
C378 C379 1.367 . S
C378 C386 1.378 1_554 S
C379 C378 1.367 . S
C379 C387 1.433 1_554 S
C380 H376 0.929 . S
C380 C382 1.378 . S
C380 C384 1.350 . S
C381 C384 1.463 . S
C381 C386 1.350 . S
C381 N389 1.427 . S
C382 H373 0.930 . S
C382 C380 1.378 . S
C382 C383 1.367 . S
C383 C382 1.367 . S
C383 C385 1.433 . S
C384 C380 1.350 . S
C384 C381 1.463 . S
C384 N388 1.427 . S
C385 H375 0.929 . S
C385 C383 1.433 . S
C385 N388 1.384 . S
C386 H377 0.929 . S
C386 C378 1.378 1_556 S
C386 C381 1.350 . S
C387 H374 0.929 . S
C387 C379 1.433 1_556 S
C387 N389 1.384 . S
N388 C384 1.427 . S
N388 C385 1.384 . S
N389 C381 1.427 . S
N389 C387 1.384 . S
H390 C396 0.932 . S
H391 C400 0.930 . S
H392 C405 0.929 . S
H393 C403 0.929 . S
H394 C398 0.929 . S
H395 C404 0.929 . S
C396 H390 0.932 . S
C396 C397 1.371 . S
C396 C404 1.373 1_556 S
C397 C396 1.371 . S
C397 C405 1.433 . S
C398 H394 0.929 . S
C398 C400 1.378 . S
C398 C402 1.350 1_655 S
C399 C402 1.463 . S
C399 C404 1.350 . S
C399 N407 1.427 . S
C400 H391 0.930 . S
C400 C398 1.378 . S
C400 C401 1.367 . S
C401 C400 1.367 . S
C401 C403 1.433 1_655 S
C402 C398 1.350 1_455 S
C402 C399 1.463 . S
C402 N406 1.427 . S
C403 H393 0.929 . S
C403 C401 1.433 1_455 S
C403 N406 1.384 . S
C404 H395 0.929 . S
C404 C396 1.373 1_554 S
C404 C399 1.350 . S
C405 H392 0.929 . S
C405 C397 1.433 . S
C405 N407 1.384 1_556 S
N406 C402 1.427 . S
N406 C403 1.384 . S
N407 C399 1.427 . S
N407 C405 1.384 1_554 S
H408 C414 0.930 . S
H409 C418 0.930 . S
H410 C423 0.929 . S
H411 C421 0.929 . S
H412 C416 0.929 . S
H413 C422 0.929 . S
C414 H408 0.930 . S
C414 C415 1.367 . S
C414 C422 1.378 . S
C415 C414 1.367 . S
C415 C423 1.433 . S
C416 H412 0.929 . S
C416 C418 1.378 . S
C416 C420 1.350 . S
C417 C420 1.463 . S
C417 C422 1.350 . S
C417 N425 1.427 . S
C418 H409 0.930 . S
C418 C416 1.378 . S
C418 C419 1.367 . S
C419 C418 1.367 . S
C419 C421 1.433 . S
C420 C416 1.350 . S
C420 C417 1.463 . S
C420 N424 1.427 . S
C421 H411 0.929 . S
C421 C419 1.433 . S
C421 N424 1.384 . S
C422 H413 0.929 . S
C422 C414 1.378 . S
C422 C417 1.350 . S
C423 H410 0.929 . S
C423 C415 1.433 . S
C423 N425 1.384 . S
N424 C420 1.427 . S
N424 C421 1.384 . S
N425 C417 1.427 . S
N425 C423 1.384 . S
H426 C432 0.930 . S
H427 C436 0.930 . S
H428 C441 0.929 . S
H429 C439 0.929 . S
H430 C434 0.929 . S
H431 C440 0.929 . S
C432 H426 0.930 . S
C432 C433 1.367 . S
C432 C440 1.378 1_556 S
C433 C432 1.367 . S
C433 C441 1.433 . S
C434 H430 0.929 . S
C434 C436 1.378 1_556 S
C434 C438 1.350 1_556 S
C435 C438 1.463 1_556 S
C435 C440 1.350 1_556 S
C435 N443 1.427 . S
C436 H427 0.930 . S
C436 C434 1.378 1_554 S
C436 C437 1.367 . S
C437 C436 1.367 . S
C437 C439 1.433 . S
C438 C434 1.350 1_554 S
C438 C435 1.463 1_554 S
C438 N442 1.427 . S
C439 H429 0.929 . S
C439 C437 1.433 . S
C439 N442 1.384 . S
C440 H431 0.929 . S
C440 C432 1.378 1_554 S
C440 C435 1.350 1_554 S
C441 H428 0.929 . S
C441 C433 1.433 . S
C441 N443 1.384 . S
N442 C438 1.427 . S
N442 C439 1.384 . S
N443 C435 1.427 . S
N443 C441 1.384 . S
H444 C450 0.930 . S
H445 C454 0.930 . S
H446 C459 0.929 . S
H447 C457 0.929 . S
H448 C452 0.929 . S
H449 C458 0.929 . S
C450 H444 0.930 . S
C450 C451 1.367 . S
C450 C458 1.378 . S
C451 C450 1.367 . S
C451 C459 1.433 . S
C452 H448 0.929 . S
C452 C454 1.378 . S
C452 C456 1.350 . S
C453 C456 1.463 . S
C453 C458 1.350 . S
C453 N461 1.427 . S
C454 H445 0.930 . S
C454 C452 1.378 . S
C454 C455 1.367 . S
C455 C454 1.367 . S
C455 C457 1.433 . S
C456 C452 1.350 . S
C456 C453 1.463 . S
C456 N460 1.427 . S
C457 H447 0.929 . S
C457 C455 1.433 . S
C457 N460 1.384 . S
C458 H449 0.929 . S
C458 C450 1.378 . S
C458 C453 1.350 . S
C459 H446 0.929 . S
C459 C451 1.433 . S
C459 N461 1.384 . S
N460 C456 1.427 . S
N460 C457 1.384 . S
N461 C453 1.427 . S
N461 C459 1.384 . S
H462 C468 0.930 . S
H463 C472 0.930 . S
H464 C477 0.929 . S
H465 C475 0.929 . S
H466 C470 0.929 . S
H467 C476 0.929 . S
C468 H462 0.930 . S
C468 C469 1.367 . S
C468 C476 1.378 . S
C469 C468 1.367 . S
C469 C477 1.433 . S
C470 H466 0.929 . S
C470 C472 1.378 . S
C470 C474 1.350 . S
C471 C474 1.463 . S
C471 C476 1.350 . S
C471 N479 1.427 . S
C472 H463 0.930 . S
C472 C470 1.378 . S
C472 C473 1.367 . S
C473 C472 1.367 . S
C473 C475 1.433 . S
C474 C470 1.350 . S
C474 C471 1.463 . S
C474 N478 1.427 . S
C475 H465 0.929 . S
C475 C473 1.433 . S
C475 N478 1.384 . S
C476 H467 0.929 . S
C476 C468 1.378 . S
C476 C471 1.350 . S
C477 H464 0.929 . S
C477 C469 1.433 . S
C477 N479 1.384 . S
N478 C474 1.427 . S
N478 C475 1.384 . S
N479 C471 1.427 . S
N479 C477 1.384 . S
H480 C486 0.930 . S
H481 C490 0.930 . S
H482 C495 0.929 . S
H483 C493 0.929 . S
H484 C488 0.929 . S
H485 C494 0.929 . S
C486 H480 0.930 . S
C486 C487 1.367 . S
C486 C494 1.378 . S
C487 C486 1.367 . S
C487 C495 1.433 . S
C488 H484 0.929 . S
C488 C490 1.378 . S
C488 C492 1.350 . S
C489 C492 1.463 . S
C489 C494 1.350 . S
C489 N497 1.427 . S
C490 H481 0.930 . S
C490 C488 1.378 . S
C490 C491 1.367 . S
C491 C490 1.367 . S
C491 C493 1.433 . S
C492 C488 1.350 . S
C492 C489 1.463 . S
C492 N496 1.427 . S
C493 H483 0.929 . S
C493 C491 1.433 . S
C493 N496 1.384 . S
C494 H485 0.929 . S
C494 C486 1.378 . S
C494 C489 1.350 . S
C495 H482 0.929 . S
C495 C487 1.433 . S
C495 N497 1.384 . S
N496 C492 1.427 . S
N496 C493 1.384 . S
N497 C489 1.427 . S
N497 C495 1.384 . S
H498 C504 0.930 . S
H499 C508 0.930 . S
H500 C513 0.929 . S
H501 C511 0.929 . S
H502 C506 0.929 . S
H503 C512 0.929 . S
C504 H498 0.930 . S
C504 C505 1.367 . S
C504 C512 1.378 . S
C505 C504 1.367 . S
C505 C513 1.433 . S
C506 H502 0.929 . S
C506 C508 1.378 . S
C506 C510 1.350 . S
C507 C510 1.463 . S
C507 C512 1.350 . S
C507 N515 1.427 . S
C508 H499 0.930 . S
C508 C506 1.378 . S
C508 C509 1.367 . S
C509 C508 1.367 . S
C509 C511 1.433 . S
C510 C506 1.350 . S
C510 C507 1.463 . S
C510 N514 1.427 . S
C511 H501 0.929 . S
C511 C509 1.433 . S
C511 N514 1.384 . S
C512 H503 0.929 . S
C512 C504 1.378 . S
C512 C507 1.350 . S
C513 H500 0.929 . S
C513 C505 1.433 . S
C513 N515 1.384 . S
N514 C510 1.427 . S
N514 C511 1.384 . S
N515 C507 1.427 . S
N515 C513 1.384 . S
C199 C2 1.314 . S
C203 N173 1.345 . S
C217 C34 1.311 . S
C221 N13 1.344 . S
C235 C66 1.317 . S
C239 N45 1.349 . S
C253 N77 1.343 . S
C257 C98 1.310 . S
C271 N109 1.355 . S
C275 C130 1.325 . S
C289 C162 1.316 . S
C293 N141 1.346 . S
C307 C4 1.102 . S
C311 N114 1.084 . S
C325 C36 1.087 . S
C329 N146 1.072 . S
C343 N178 1.066 . S
C347 C68 1.086 . S
C361 C100 1.098 . S
C365 N18 1.086 . S
C379 N50 1.085 . S
C383 C132 1.098 . S
C397 C164 1.086 . S
C401 N82 1.069 . S
C415 C6 1.634 . S
C419 C157 1.561 . S
C433 C189 1.557 . S
C437 C38 1.633 . S
C451 C29 1.552 . S
C455 C70 1.629 . S
C469 C102 1.633 . S
C473 C61 1.557 . S
C487 C93 1.555 . S
C491 C134 1.627 . S
C505 C125 1.563 . S
C509 C166 1.634 . S
