# Generated by pormake.
# Topology uot, (4)-cn, num edge types: 1
# Building blocks:
#     Node 0, Type 0, BuildingBlock: QUQFOY_clean_sbu_1, # of connection points: 4
#     Node 1, Type 0, BuildingBlock: QUQFOY_clean_sbu_1, # of connection points: 4
#     Node 2, Type 0, BuildingBlock: QUQFOY_clean_sbu_1, # of connection points: 4
#     Node 3, Type 0, BuildingBlock: QUQFOY_clean_sbu_1, # of connection points: 4
#     Node 4, Type 0, BuildingBlock: QUQFOY_clean_sbu_1, # of connection points: 4
#     Node 5, Type 0, BuildingBlock: QUQFOY_clean_sbu_1, # of connection points: 4
#     Node 6, Type 0, BuildingBlock: QUQFOY_clean_sbu_1, # of connection points: 4
#     Node 7, Type 0, BuildingBlock: QUQFOY_clean_sbu_1, # of connection points: 4
#     Node 8, Type 0, BuildingBlock: QUQFOY_clean_sbu_1, # of connection points: 4
#     Node 9, Type 0, BuildingBlock: QUQFOY_clean_sbu_1, # of connection points: 4
#     Node 10, Type 0, BuildingBlock: QUQFOY_clean_sbu_1, # of connection points: 4
#     Node 11, Type 0, BuildingBlock: QUQFOY_clean_sbu_1, # of connection points: 4
#     Node 12, Type 0, BuildingBlock: QUQFOY_clean_sbu_1, # of connection points: 4
#     Node 13, Type 0, BuildingBlock: QUQFOY_clean_sbu_1, # of connection points: 4
#     Node 14, Type 0, BuildingBlock: QUQFOY_clean_sbu_1, # of connection points: 4
#     Node 15, Type 0, BuildingBlock: QUQFOY_clean_sbu_1, # of connection points: 4
#     Edge 16, Type (0, 0), BuildingBlock: EZIPEK_clean_linker_0, # of connection points: 2
#     Edge 17, Type (0, 0), BuildingBlock: EZIPEK_clean_linker_0, # of connection points: 2
#     Edge 18, Type (0, 0), BuildingBlock: EZIPEK_clean_linker_0, # of connection points: 2
#     Edge 19, Type (0, 0), BuildingBlock: EZIPEK_clean_linker_0, # of connection points: 2
#     Edge 20, Type (0, 0), BuildingBlock: EZIPEK_clean_linker_0, # of connection points: 2
#     Edge 21, Type (0, 0), BuildingBlock: EZIPEK_clean_linker_0, # of connection points: 2
#     Edge 22, Type (0, 0), BuildingBlock: EZIPEK_clean_linker_0, # of connection points: 2
#     Edge 23, Type (0, 0), BuildingBlock: EZIPEK_clean_linker_0, # of connection points: 2
#     Edge 24, Type (0, 0), BuildingBlock: EZIPEK_clean_linker_0, # of connection points: 2
#     Edge 25, Type (0, 0), BuildingBlock: EZIPEK_clean_linker_0, # of connection points: 2
#     Edge 26, Type (0, 0), BuildingBlock: EZIPEK_clean_linker_0, # of connection points: 2
#     Edge 27, Type (0, 0), BuildingBlock: EZIPEK_clean_linker_0, # of connection points: 2
#     Edge 28, Type (0, 0), BuildingBlock: EZIPEK_clean_linker_0, # of connection points: 2
#     Edge 29, Type (0, 0), BuildingBlock: EZIPEK_clean_linker_0, # of connection points: 2
#     Edge 30, Type (0, 0), BuildingBlock: EZIPEK_clean_linker_0, # of connection points: 2
#     Edge 31, Type (0, 0), BuildingBlock: EZIPEK_clean_linker_0, # of connection points: 2
#     Edge 32, Type (0, 0), BuildingBlock: EZIPEK_clean_linker_0, # of connection points: 2
#     Edge 33, Type (0, 0), BuildingBlock: EZIPEK_clean_linker_0, # of connection points: 2
#     Edge 34, Type (0, 0), BuildingBlock: EZIPEK_clean_linker_0, # of connection points: 2
#     Edge 35, Type (0, 0), BuildingBlock: EZIPEK_clean_linker_0, # of connection points: 2
#     Edge 36, Type (0, 0), BuildingBlock: EZIPEK_clean_linker_0, # of connection points: 2
#     Edge 37, Type (0, 0), BuildingBlock: EZIPEK_clean_linker_0, # of connection points: 2
#     Edge 38, Type (0, 0), BuildingBlock: EZIPEK_clean_linker_0, # of connection points: 2
#     Edge 39, Type (0, 0), BuildingBlock: EZIPEK_clean_linker_0, # of connection points: 2
#     Edge 40, Type (0, 0), BuildingBlock: EZIPEK_clean_linker_0, # of connection points: 2
#     Edge 41, Type (0, 0), BuildingBlock: EZIPEK_clean_linker_0, # of connection points: 2
#     Edge 42, Type (0, 0), BuildingBlock: EZIPEK_clean_linker_0, # of connection points: 2
#     Edge 43, Type (0, 0), BuildingBlock: EZIPEK_clean_linker_0, # of connection points: 2
#     Edge 44, Type (0, 0), BuildingBlock: EZIPEK_clean_linker_0, # of connection points: 2
#     Edge 45, Type (0, 0), BuildingBlock: EZIPEK_clean_linker_0, # of connection points: 2
#     Edge 46, Type (0, 0), BuildingBlock: EZIPEK_clean_linker_0, # of connection points: 2
#     Edge 47, Type (0, 0), BuildingBlock: EZIPEK_clean_linker_0, # of connection points: 2
# Relax obj value: 0.059
# Max RMSD: 0.083
# Mean RMSD: 0.083
data_MOF--net-uot--node1-QUQFOY_clean_sbu_1--edge1-EZIPEK_clean_linker_0
_symmetry_space_group_name_H-M    P1
_symmetry_Int_Tables_number       1
_symmetry_cell_setting            triclinic
loop_
_symmetry_equiv_pos_as_xyz
'x, y, z'
_cell_length_a     34.355535
_cell_length_b     34.477612
_cell_length_c     32.901
_cell_angle_alpha  89.93728
_cell_angle_beta   89.88647
_cell_angle_gamma 90.021099
loop_
_atom_site_label
_atom_site_type_symbol
_atom_site_fract_x
_atom_site_fract_y
_atom_site_fract_z
_atom_type_partial_charge
O0 O 0.16087 0.39154 0.29512 0.0
Cd1 Cd 0.21284 0.41946 0.30693 0.0
Cd2 Cd 0.16876 0.45048 0.36604 0.0
O3 O 0.13172 0.40485 0.35333 0.0
O4 O 0.25423 0.38621 0.28299 0.0
O5 O 0.24868 0.39727 0.34924 0.0
C6 C 0.26609 0.37984 0.31957 0.0
C7 C 0.17739 0.47207 0.43294 0.0
C8 C 0.13211 0.38767 0.31913 0.0
C9 C 0.19149 0.49978 0.29264 0.0
O10 O 0.16922 0.49401 0.32295 0.0
O11 O 0.21703 0.47476 0.28303 0.0
O12 O 0.14526 0.47773 0.41382 0.0
O13 O 0.20463 0.45295 0.41477 0.0
O14 O 0.38721 0.84695 0.72344 0.0
Cd15 Cd 0.42248 0.80015 0.70915 0.0
Cd16 Cd 0.45509 0.85678 0.66088 0.0
O17 O 0.41094 0.89171 0.68232 0.0
O18 O 0.39323 0.7556 0.73306 0.0
O19 O 0.40295 0.76245 0.66688 0.0
C20 C 0.38701 0.74368 0.69658 0.0
C21 C 0.4735 0.85298 0.59262 0.0
C22 C 0.38725 0.8816 0.71016 0.0
C23 C 0.50385 0.82417 0.72914 0.0
O24 O 0.49932 0.84949 0.70152 0.0
O25 O 0.47779 0.7986 0.73549 0.0
O26 O 0.48089 0.8834 0.614 0.0
O27 O 0.45394 0.82516 0.60932 0.0
O28 O 0.85158 0.62247 0.29972 0.0
Cd29 Cd 0.80081 0.59133 0.30796 0.0
Cd30 Cd 0.84246 0.55968 0.36797 0.0
O31 O 0.8796 0.60605 0.3575 0.0
O32 O 0.7577 0.624 0.28649 0.0
O33 O 0.76231 0.60642 0.35123 0.0
C34 C 0.74454 0.62586 0.32321 0.0
C35 C 0.83177 0.53805 0.4346 0.0
C36 C 0.87984 0.62518 0.3244 0.0
C37 C 0.82558 0.51214 0.29163 0.0
O38 O 0.8449 0.51669 0.32421 0.0
O39 O 0.80157 0.53783 0.27993 0.0
O40 O 0.86454 0.53259 0.41652 0.0
O41 O 0.80486 0.55662 0.41539 0.0
O42 O 0.62869 0.16528 0.72983 0.0
Cd43 Cd 0.59348 0.21219 0.71588 0.0
Cd44 Cd 0.5616 0.15684 0.66685 0.0
O45 O 0.60512 0.12109 0.68818 0.0
O46 O 0.6236 0.25647 0.73865 0.0
O47 O 0.61147 0.25002 0.67292 0.0
C48 C 0.62861 0.26855 0.70195 0.0
C49 C 0.54367 0.16198 0.59871 0.0
C50 C 0.62859 0.13077 0.71626 0.0
C51 C 0.51196 0.18879 0.735 0.0
O52 O 0.51675 0.16405 0.7069 0.0
O53 O 0.53822 0.21382 0.74246 0.0
O54 O 0.53599 0.13122 0.61952 0.0
O55 O 0.56347 0.1893 0.61583 0.0
O56 O 0.16186 0.62175 0.73054 0.0
Cd57 Cd 0.21274 0.59152 0.71955 0.0
Cd58 Cd 0.16918 0.56257 0.65974 0.0
O59 O 0.13483 0.61078 0.67096 0.0
O60 O 0.25635 0.62388 0.74038 0.0
O61 O 0.24888 0.60919 0.67516 0.0
C62 C 0.2677 0.62762 0.70315 0.0
C63 C 0.17784 0.54019 0.59306 0.0
C64 C 0.13439 0.62747 0.70542 0.0
C65 C 0.18811 0.5123 0.73379 0.0
O66 O 0.16672 0.51899 0.70305 0.0
O67 O 0.21428 0.53639 0.74405 0.0
O68 O 0.14509 0.5364 0.61167 0.0
O69 O 0.20578 0.55782 0.61163 0.0
O70 O 0.6297 0.8445 0.30397 0.0
Cd71 Cd 0.59184 0.7989 0.31374 0.0
Cd72 Cd 0.55662 0.85436 0.36141 0.0
O73 O 0.60138 0.88969 0.34107 0.0
O74 O 0.62157 0.75444 0.29045 0.0
O75 O 0.60671 0.75881 0.3558 0.0
C76 C 0.62465 0.74095 0.32679 0.0
C77 C 0.53698 0.85122 0.42941 0.0
C78 C 0.62776 0.87942 0.31607 0.0
C79 C 0.51194 0.82474 0.28896 0.0
O80 O 0.51348 0.84739 0.31927 0.0
O81 O 0.53967 0.80135 0.28134 0.0
O82 O 0.5298 0.88131 0.40742 0.0
O83 O 0.55671 0.82321 0.41342 0.0
O84 O 0.85254 0.39104 0.73233 0.0
Cd85 Cd 0.80156 0.42144 0.72268 0.0
Cd86 Cd 0.8432 0.45054 0.66205 0.0
O87 O 0.87721 0.40179 0.67149 0.0
O88 O 0.75769 0.38979 0.74422 0.0
O89 O 0.76559 0.40337 0.67864 0.0
C90 C 0.74647 0.38569 0.70705 0.0
C91 C 0.83242 0.4728 0.59573 0.0
C92 C 0.87891 0.38507 0.70591 0.0
C93 C 0.82671 0.50039 0.7367 0.0
O94 O 0.84759 0.49383 0.70548 0.0
O95 O 0.80044 0.47644 0.74718 0.0
O96 O 0.86581 0.47644 0.61296 0.0
O97 O 0.80494 0.45561 0.6156 0.0
O98 O 0.39483 0.15565 0.29978 0.0
Cd99 Cd 0.42287 0.20728 0.31285 0.0
Cd100 Cd 0.45455 0.1605 0.37048 0.0
O101 O 0.40875 0.12423 0.35645 0.0
O102 O 0.38998 0.24807 0.28741 0.0
O103 O 0.39992 0.24407 0.35392 0.0
C104 C 0.38317 0.26089 0.32351 0.0
C105 C 0.47693 0.16547 0.43752 0.0
C106 C 0.39116 0.12605 0.32253 0.0
C107 C 0.50368 0.18638 0.29796 0.0
O108 O 0.49783 0.16285 0.32711 0.0
O109 O 0.47858 0.21221 0.28961 0.0
O110 O 0.4823 0.1345 0.41648 0.0
O111 O 0.45766 0.19358 0.42118 0.0
O112 O 0.6695 0.88353 0.80336 0.0
Cd113 Cd 0.71577 0.91913 0.81913 0.0
Cd114 Cd 0.65853 0.94993 0.86714 0.0
O115 O 0.62409 0.90596 0.84464 0.0
O116 O 0.76219 0.89079 0.79795 0.0
O117 O 0.75223 0.90145 0.86352 0.0
C118 C 0.77284 0.88569 0.83509 0.0
C119 C 0.6612 0.96859 0.93531 0.0
C120 C 0.63456 0.88317 0.81624 0.0
C121 C 0.69088 0.99979 0.7995 0.0
O122 O 0.66554 0.99456 0.82707 0.0
O123 O 0.71689 0.97429 0.79282 0.0
O124 O 0.63075 0.97515 0.91357 0.0
O125 O 0.68957 0.94939 0.91916 0.0
O126 O 0.89136 0.35215 0.22691 0.0
Cd127 Cd 0.92208 0.30188 0.21532 0.0
Cd128 Cd 0.95512 0.34717 0.15817 0.0
O129 O 0.91009 0.38462 0.17233 0.0
O130 O 0.8904 0.25806 0.23696 0.0
O131 O 0.90431 0.26534 0.17146 0.0
C132 C 0.88671 0.24631 0.19997 0.0
C133 C 0.97561 0.34027 0.0906 0.0
C134 C 0.89004 0.38238 0.20482 0.0
C135 C 1.00244 0.32454 0.2326 0.0
O136 O 0.99854 0.34582 0.20133 0.0
O137 O 0.97603 0.30062 0.24277 0.0
O138 O 0.98225 0.37155 0.11072 0.0
O139 O 0.95651 0.31278 0.10836 0.0
O140 O 0.34379 0.12798 0.80102 0.0
Cd141 Cd 0.29735 0.0916 0.81431 0.0
Cd142 Cd 0.35194 0.06036 0.86328 0.0
O143 O 0.38763 0.10443 0.8432 0.0
O144 O 0.25137 0.12035 0.79303 0.0
O145 O 0.25993 0.10775 0.85847 0.0
C146 C 0.23996 0.12436 0.83011 0.0
C147 C 0.34463 0.0422 0.93111 0.0
C148 C 0.37822 0.12804 0.81516 0.0
C149 C 0.32278 0.01134 0.79396 0.0
O150 O 0.34696 0.01603 0.82263 0.0
O151 O 0.29717 0.03707 0.78667 0.0
O152 O 0.37634 0.03509 0.91151 0.0
O153 O 0.31749 0.06147 0.91294 0.0
O154 O 0.12785 0.66602 0.22449 0.0
Cd155 Cd 0.09091 0.71228 0.21513 0.0
Cd156 Cd 0.0549 0.65872 0.16674 0.0
O157 O 0.09815 0.62184 0.18737 0.0
O158 O 0.12222 0.75597 0.23764 0.0
O159 O 0.10541 0.75237 0.17285 0.0
C160 C 0.12474 0.76957 0.20126 0.0
C161 C 0.03737 0.6632 0.09821 0.0
C162 C 0.12477 0.63122 0.21237 0.0
C163 C 0.01036 0.6879 0.23958 0.0
O164 O 0.01123 0.66627 0.20841 0.0
O165 O 0.03883 0.71015 0.24797 0.0
O166 O 0.02856 0.63314 0.11965 0.0
O167 O 0.05732 0.6905 0.11519 0.0
O168 O 0.66952 0.12407 0.22674 0.0
Cd169 Cd 0.71685 0.08958 0.21287 0.0
Cd170 Cd 0.66092 0.05617 0.16428 0.0
O171 O 0.62518 0.09966 0.18558 0.0
O172 O 0.76101 0.12071 0.23467 0.0
O173 O 0.75417 0.10748 0.16923 0.0
C174 C 0.77263 0.12545 0.19775 0.0
C175 C 0.66289 0.03609 0.09647 0.0
C176 C 0.63483 0.12335 0.21344 0.0
C177 C 0.69357 0.00897 0.23412 0.0
O178 O 0.66911 0.01276 0.20555 0.0
O179 O 0.71862 0.03535 0.24107 0.0
O180 O 0.63312 0.02901 0.11917 0.0
O181 O 0.69104 0.05632 0.11151 0.0
O182 O 0.12581 0.34438 0.80112 0.0
Cd183 Cd 0.0895 0.29748 0.81105 0.0
Cd184 Cd 0.05214 0.34962 0.85792 0.0
O185 O 0.09445 0.38786 0.83774 0.0
O186 O 0.12149 0.25303 0.79153 0.0
O187 O 0.10215 0.25903 0.85544 0.0
C188 C 0.12219 0.24054 0.82843 0.0
C189 C 0.03479 0.34292 0.92614 0.0
C190 C 0.12163 0.37917 0.81304 0.0
C191 C 0.00888 0.31901 0.78547 0.0
O192 O 0.00877 0.34094 0.81638 0.0
O193 O 0.03804 0.29751 0.77759 0.0
O194 O 0.02502 0.37322 0.90558 0.0
O195 O 0.05572 0.31673 0.90849 0.0
O196 O 0.35274 0.88819 0.22675 0.0
Cd197 Cd 0.3019 0.91885 0.21701 0.0
Cd198 Cd 0.34607 0.9511 0.15813 0.0
O199 O 0.38198 0.90408 0.16928 0.0
O200 O 0.25834 0.88724 0.23958 0.0
O201 O 0.26413 0.90154 0.17403 0.0
C202 C 0.24566 0.88383 0.20288 0.0
C203 C 0.33951 0.97476 0.09169 0.0
C204 C 0.38151 0.88529 0.2026 0.0
C205 C 0.32663 0.99798 0.2341 0.0
O206 O 0.34752 0.99329 0.20258 0.0
O207 O 0.30165 0.97263 0.2444 0.0
O208 O 0.37138 0.97888 0.11165 0.0
O209 O 0.31121 0.95627 0.10884 0.0
O210 O 0.88939 0.66687 0.80755 0.0
Cd211 Cd 0.92568 0.71362 0.81779 0.0
Cd212 Cd 0.96368 0.65992 0.86372 0.0
O213 O 0.92121 0.62245 0.84247 0.0
O214 O 0.8936 0.7578 0.79753 0.0
O215 O 0.912 0.75233 0.86169 0.0
C216 C 0.89214 0.77046 0.83431 0.0
C217 C 0.98124 0.66374 0.93224 0.0
C218 C 0.89382 0.63177 0.81835 0.0
C219 C 1.0064 0.69195 0.7912 0.0
O220 O 1.00682 0.66966 0.82191 0.0
O221 O 0.97714 0.71355 0.78396 0.0
O222 O 0.99085 0.6343 0.91031 0.0
O223 O 0.96049 0.69075 0.91575 0.0
C224 C 0.2848 0.30993 0.32282 0.0
C225 C 0.29569 0.34945 0.32711 0.0
C226 C 0.36425 0.33065 0.3344 0.0
C227 C 0.35329 0.29125 0.3296 0.0
N228 N 0.30338 0.24222 0.32853 0.0
N229 N 0.34367 0.39752 0.34439 0.0
C230 C 0.31355 0.28056 0.32672 0.0
C231 C 0.33482 0.35983 0.33551 0.0
N232 N 0.24703 0.30059 0.31402 0.0
N233 N 0.40284 0.34014 0.33622 0.0
H234 H 0.32284 0.41953 0.34445 0.0
H235 H 0.37086 0.40667 0.35443 0.0
H236 H 0.42486 0.3193 0.33674 0.0
H237 H 0.4133 0.36845 0.33525 0.0
H238 H 0.23799 0.27301 0.30535 0.0
H239 H 0.22467 0.32102 0.31338 0.0
H240 H 0.27481 0.23239 0.33063 0.0
H241 H 0.32381 0.22 0.33145 0.0
C242 C 0.36841 0.67395 0.70503 0.0
C243 C 0.3594 0.71126 0.68961 0.0
C244 C 0.29342 0.68924 0.67239 0.0
C245 C 0.30068 0.6539 0.6933 0.0
N246 N 0.34477 0.61146 0.72879 0.0
N247 N 0.31302 0.7559 0.66058 0.0
C248 C 0.33825 0.64581 0.70914 0.0
C249 C 0.32208 0.7191 0.67299 0.0
N250 N 0.40605 0.6654 0.71504 0.0
N251 N 0.25882 0.69468 0.6527 0.0
H252 H 0.33307 0.77858 0.66005 0.0
H253 H 0.28496 0.76488 0.65331 0.0
H254 H 0.23601 0.6748 0.65361 0.0
H255 H 0.25359 0.71767 0.63292 0.0
H256 H 0.41562 0.63785 0.72319 0.0
H257 H 0.42864 0.68543 0.71183 0.0
H258 H 0.36977 0.60546 0.74544 0.0
H259 H 0.32425 0.58915 0.72972 0.0
C260 C 0.68754 0.71519 0.35459 0.0
C261 C 0.65153 0.70813 0.33474 0.0
C262 C 0.67427 0.64372 0.31365 0.0
C263 C 0.71067 0.65119 0.3325 0.0
N264 N 0.74928 0.68992 0.37843 0.0
N265 N 0.60697 0.66349 0.30362 0.0
C266 C 0.71622 0.6854 0.35583 0.0
C267 C 0.64377 0.67157 0.31688 0.0
N268 N 0.69557 0.75135 0.36951 0.0
N269 N 0.66926 0.61028 0.29198 0.0
H270 H 0.58415 0.68333 0.30616 0.0
H271 H 0.59808 0.63637 0.29334 0.0
H272 H 0.68989 0.58808 0.29155 0.0
H273 H 0.64544 0.60493 0.27332 0.0
H274 H 0.72302 0.76 0.37928 0.0
H275 H 0.67544 0.77395 0.36973 0.0
H276 H 0.75291 0.71186 0.3998 0.0
H277 H 0.7722 0.67017 0.37829 0.0
C278 C 0.64695 0.33833 0.71176 0.0
C279 C 0.65525 0.30167 0.69412 0.0
C280 C 0.72203 0.32266 0.67893 0.0
C281 C 0.71398 0.35893 0.69752 0.0
N282 N 0.66753 0.40494 0.72322 0.0
N283 N 0.69744 0.26162 0.65296 0.0
C284 C 0.67593 0.3679 0.71128 0.0
C285 C 0.69161 0.29491 0.6747 0.0
N286 N 0.61156 0.34445 0.72971 0.0
N287 N 0.7594 0.31361 0.66799 0.0
H288 H 0.67691 0.2395 0.65086 0.0
H289 H 0.72149 0.25706 0.63428 0.0
H290 H 0.78251 0.33311 0.67015 0.0
H291 H 0.7683 0.28597 0.65935 0.0
H292 H 0.60505 0.3685 0.74755 0.0
H293 H 0.58877 0.32451 0.72786 0.0
H294 H 0.63966 0.41462 0.73031 0.0
H295 H 0.68822 0.42712 0.72281 0.0
C296 C 0.80028 0.82388 0.86397 0.0
C297 C 0.80646 0.86002 0.84417 0.0
C298 C 0.87273 0.84013 0.82551 0.0
C299 C 0.86618 0.80361 0.84427 0.0
N300 N 0.82787 0.76409 0.88993 0.0
N301 N 0.85078 0.90647 0.81521 0.0
C302 C 0.83148 0.79682 0.86673 0.0
C303 C 0.84352 0.86937 0.82786 0.0
N304 N 0.76382 0.81404 0.87725 0.0
N305 N 0.9066 0.8464 0.80462 0.0
H306 H 0.82999 0.92846 0.81721 0.0
H307 H 0.87808 0.91637 0.80619 0.0
H308 H 0.92962 0.82666 0.80483 0.0
H309 H 0.91144 0.87032 0.78596 0.0
H310 H 0.75622 0.78629 0.88692 0.0
H311 H 0.74006 0.83276 0.87597 0.0
H312 H 0.80524 0.75967 0.91053 0.0
H313 H 0.8491 0.74259 0.89137 0.0
C314 C 0.84232 0.14579 0.2058 0.0
C315 C 0.80494 0.15292 0.18906 0.0
C316 C 0.82379 0.21996 0.17301 0.0
C317 C 0.86075 0.21309 0.19083 0.0
N318 N 0.90877 0.1683 0.21564 0.0
N319 N 0.76258 0.19362 0.14891 0.0
C320 C 0.87113 0.17551 0.20451 0.0
C321 C 0.79668 0.18886 0.1697 0.0
N322 N 0.84985 0.1108 0.22374 0.0
N323 N 0.81358 0.25683 0.16187 0.0
H324 H 0.74094 0.17252 0.14753 0.0
H325 H 0.7568 0.21738 0.13034 0.0
H326 H 0.8327 0.28029 0.16318 0.0
H327 H 0.78547 0.26494 0.15377 0.0
H328 H 0.87457 0.10506 0.24095 0.0
H329 H 0.83041 0.08756 0.22254 0.0
H330 H 0.91944 0.14086 0.22263 0.0
H331 H 0.93039 0.18956 0.21463 0.0
C332 C 0.18154 0.21308 0.86221 0.0
C333 C 0.14733 0.20696 0.83891 0.0
C334 C 0.16956 0.14114 0.82228 0.0
C335 C 0.20637 0.14995 0.83932 0.0
N336 N 0.24872 0.19493 0.87399 0.0
N337 N 0.10712 0.16497 0.79835 0.0
C338 C 0.21248 0.18571 0.85977 0.0
C339 C 0.1407 0.17069 0.81976 0.0
N340 N 0.18497 0.24546 0.88588 0.0
N341 N 0.16226 0.10429 0.80902 0.0
H342 H 0.08429 0.18494 0.79847 0.0
H343 H 0.10231 0.14128 0.77945 0.0
H344 H 0.18283 0.0821 0.81112 0.0
H345 H 0.13509 0.09473 0.79933 0.0
H346 H 0.20716 0.24936 0.907 0.0
H347 H 0.16395 0.26716 0.88716 0.0
H348 H 0.25641 0.22246 0.88418 0.0
H349 H 0.27226 0.17592 0.87308 0.0
C350 C 0.17493 0.8676 0.21039 0.0
C351 C 0.21205 0.85806 0.19438 0.0
C352 C 0.18687 0.79517 0.17124 0.0
C353 C 0.15169 0.80233 0.19277 0.0
N354 N 0.1111 0.84517 0.23204 0.0
N355 N 0.25477 0.81227 0.16148 0.0
C356 C 0.14528 0.83871 0.21182 0.0
C357 C 0.21822 0.82203 0.17454 0.0
N358 N 0.16802 0.90457 0.22356 0.0
N359 N 0.19073 0.76231 0.14835 0.0
H360 H 0.27847 0.83109 0.16294 0.0
H361 H 0.26247 0.7846 0.15173 0.0
H362 H 0.16949 0.74083 0.14672 0.0
H363 H 0.21374 0.7576 0.12832 0.0
H364 H 0.14075 0.91471 0.23233 0.0
H365 H 0.18918 0.92628 0.22247 0.0
H366 H 0.10617 0.86894 0.25083 0.0
H367 H 0.08783 0.82572 0.23116 0.0
C368 C 0.17747 0.53511 0.22638 0.0
C369 C 0.1857 0.53595 0.26874 0.0
C370 C 0.15653 0.60026 0.27388 0.0
C371 C 0.14957 0.60052 0.23113 0.0
N372 N 0.16544 0.57314 0.16568 0.0
N373 N 0.19648 0.57494 0.32822 0.0
C374 C 0.16404 0.56955 0.20699 0.0
C375 C 0.18007 0.57067 0.29072 0.0
N376 N 0.17988 0.50126 0.20501 0.0
N377 N 0.13807 0.62567 0.29932 0.0
H378 H 0.21454 0.55378 0.34085 0.0
H379 H 0.19574 0.60098 0.34429 0.0
H380 H 0.11728 0.64564 0.28994 0.0
H381 H 0.13981 0.6236 0.33088 0.0
H382 H 0.16969 0.4985 0.17534 0.0
H383 H 0.18925 0.47519 0.21757 0.0
H384 H 0.17877 0.55271 0.14693 0.0
H385 H 0.15731 0.59854 0.15066 0.0
C386 C 0.53963 0.82955 0.79668 0.0
C387 C 0.54025 0.82635 0.75358 0.0
C388 C 0.60421 0.85709 0.75154 0.0
C389 C 0.60463 0.85934 0.79481 0.0
N390 N 0.57817 0.83534 0.85805 0.0
N391 N 0.5795 0.82253 0.6931 0.0
C392 C 0.57412 0.84141 0.81726 0.0
C393 C 0.57503 0.83474 0.73229 0.0
N394 N 0.50595 0.82388 0.81797 0.0
N395 N 0.62872 0.87912 0.72822 0.0
H396 H 0.55853 0.80557 0.67857 0.0
H397 H 0.60556 0.82555 0.6771 0.0
H398 H 0.64761 0.8999 0.73982 0.0
H399 H 0.62657 0.88047 0.69664 0.0
H400 H 0.50323 0.83055 0.84873 0.0
H401 H 0.47998 0.81509 0.80465 0.0
H402 H 0.55813 0.81955 0.8752 0.0
H403 H 0.60367 0.84221 0.87366 0.0
C404 C 0.89429 0.45075 0.23019 0.0
C405 C 0.87106 0.41767 0.22135 0.0
C406 C 0.81536 0.44795 0.25609 0.0
C407 C 0.83841 0.48133 0.2633 0.0
N408 N 0.8956 0.51895 0.2472 0.0
N409 N 0.80791 0.38738 0.21903 0.0
C410 C 0.87647 0.48414 0.24692 0.0
C411 C 0.83099 0.4171 0.23217 0.0
N412 N 0.93389 0.44948 0.22564 0.0
N413 N 0.77928 0.44517 0.27336 0.0
H414 H 0.81858 0.36468 0.20126 0.0
H415 H 0.77782 0.38684 0.22275 0.0
H416 H 0.76687 0.46773 0.29008 0.0
H417 H 0.76263 0.41995 0.27312 0.0
H418 H 0.95235 0.47116 0.23633 0.0
H419 H 0.94898 0.42529 0.21511 0.0
H420 H 0.92184 0.5236 0.23202 0.0
H421 H 0.88335 0.54426 0.25899 0.0
C422 C 0.4406 0.18005 0.73559 0.0
C423 C 0.47481 0.18681 0.75826 0.0
C424 C 0.43876 0.16937 0.82005 0.0
C425 C 0.40885 0.15273 0.79582 0.0
N426 N 0.3867 0.13652 0.72754 0.0
N427 N 0.50701 0.18635 0.82365 0.0
C428 C 0.41062 0.15711 0.75274 0.0
C429 C 0.474 0.18178 0.80113 0.0
N430 N 0.43755 0.19427 0.69699 0.0
N431 N 0.4334 0.17374 0.86092 0.0
H432 H 0.53335 0.19574 0.81147 0.0
H433 H 0.50874 0.17836 0.85415 0.0
H434 H 0.40728 0.16661 0.87534 0.0
H435 H 0.45304 0.1885 0.87941 0.0
H436 H 0.41198 0.19242 0.68007 0.0
H437 H 0.45921 0.21166 0.68408 0.0
H438 H 0.38985 0.13679 0.69601 0.0
H439 H 0.36735 0.11528 0.73738 0.0
C440 C 0.17563 0.44137 0.73484 0.0
C441 C 0.18103 0.47597 0.75713 0.0
C442 C 0.15951 0.44174 0.81868 0.0
C443 C 0.14574 0.41058 0.7944 0.0
N444 N 0.13455 0.38565 0.72619 0.0
N445 N 0.17435 0.51027 0.82098 0.0
C446 C 0.15259 0.41128 0.75163 0.0
C447 C 0.17253 0.47647 0.79946 0.0
N448 N 0.19212 0.43748 0.69725 0.0
N449 N 0.16071 0.43802 0.85999 0.0
H450 H 0.18311 0.53658 0.80841 0.0
H451 H 0.16407 0.51277 0.85069 0.0
H452 H 0.15283 0.41246 0.8749 0.0
H453 H 0.1736 0.45859 0.87886 0.0
H454 H 0.19161 0.41154 0.68101 0.0
H455 H 0.21006 0.45883 0.68468 0.0
H456 H 0.13608 0.38793 0.69462 0.0
H457 H 0.11426 0.36518 0.73571 0.0
C458 C 0.41507 0.82705 0.23294 0.0
C459 C 0.41732 0.86538 0.21703 0.0
C460 C 0.48633 0.86793 0.23542 0.0
C461 C 0.48197 0.83323 0.25793 0.0
N462 N 0.44267 0.77919 0.27906 0.0
N463 N 0.45421 0.92516 0.21035 0.0
C464 C 0.44657 0.81228 0.25658 0.0
C465 C 0.45289 0.88644 0.21945 0.0
N466 N 0.38304 0.80483 0.22508 0.0
N467 N 0.5225 0.88373 0.2302 0.0
H468 H 0.43015 0.94134 0.20135 0.0
H469 H 0.47845 0.94246 0.21611 0.0
H470 H 0.5476 0.87091 0.24193 0.0
H471 H 0.52793 0.90705 0.21082 0.0
H472 H 0.38091 0.77565 0.23296 0.0
H473 H 0.35995 0.81475 0.20731 0.0
H474 H 0.4163 0.76482 0.28317 0.0
H475 H 0.46584 0.76718 0.29525 0.0
C476 C 0.84339 0.53466 0.80277 0.0
C477 C 0.83455 0.53615 0.76057 0.0
C478 C 0.8625 0.60119 0.75639 0.0
C479 C 0.86965 0.60083 0.79911 0.0
N480 N 0.85525 0.57164 0.86413 0.0
N481 N 0.82307 0.57592 0.70165 0.0
C482 C 0.85625 0.56898 0.82272 0.0
C483 C 0.8397 0.57128 0.73902 0.0
N484 N 0.84207 0.50029 0.82344 0.0
N485 N 0.87994 0.62779 0.73146 0.0
H486 H 0.80534 0.55473 0.68861 0.0
H487 H 0.82325 0.60226 0.68604 0.0
H488 H 0.89967 0.64858 0.74131 0.0
H489 H 0.87838 0.62624 0.69986 0.0
H490 H 0.85255 0.49716 0.85296 0.0
H491 H 0.83367 0.47417 0.81026 0.0
H492 H 0.8426 0.55051 0.88258 0.0
H493 H 0.863 0.59688 0.8796 0.0
C494 C 0.60342 0.14999 0.27717 0.0
C495 C 0.60435 0.14708 0.23397 0.0
C496 C 0.53974 0.17728 0.23092 0.0
C497 C 0.5401 0.18172 0.27393 0.0
N498 N 0.5789 0.18624 0.33458 0.0
N499 N 0.57875 0.16981 0.16995 0.0
C500 C 0.57447 0.17315 0.29571 0.0
C501 C 0.57426 0.16469 0.21086 0.0
N502 N 0.62735 0.128 0.30106 0.0
N503 N 0.50625 0.1824 0.20927 0.0
H504 H 0.60428 0.16232 0.15464 0.0
H505 H 0.55903 0.18542 0.15232 0.0
H506 H 0.48004 0.19118 0.22216 0.0
H507 H 0.50384 0.17496 0.17868 0.0
H508 H 0.62484 0.12722 0.33264 0.0
H509 H 0.64601 0.10675 0.28989 0.0
H510 H 0.60476 0.18301 0.35078 0.0
H511 H 0.55829 0.20411 0.34851 0.0
C512 C 0.68377 0.03631 0.73269 0.0
C513 C 0.68819 0.03637 0.77565 0.0
C514 C 0.65655 0.09954 0.77958 0.0
C515 C 0.65301 0.10055 0.73642 0.0
N516 N 0.67553 0.07545 0.67203 0.0
N517 N 0.69321 0.07453 0.83653 0.0
C518 C 0.67071 0.07074 0.71295 0.0
C519 C 0.67995 0.07056 0.79767 0.0
N520 N 0.68951 1.00315 0.71085 0.0
N521 N 0.63477 0.12328 0.80392 0.0
H522 H 0.71087 0.05361 0.85019 0.0
H523 H 0.69029 0.10019 0.85302 0.0
H524 H 0.61322 0.14183 0.79322 0.0
H525 H 0.63442 0.12072 0.8355 0.0
H526 H 0.68197 1.00068 0.68029 0.0
H527 H 0.69938 0.97735 0.72361 0.0
H528 H 0.6911 0.05594 0.65411 0.0
H529 H 0.66786 0.10096 0.65698 0.0
C530 C 0.06131 0.38907 0.30039 0.0
C531 C 0.09662 0.36784 0.30407 0.0
C532 C 0.06821 0.31428 0.26475 0.0
C533 C 0.033 0.33538 0.26202 0.0
N534 N 0.99208 0.38686 0.28711 0.0
N535 N 0.13084 0.30713 0.29815 0.0
C536 C 0.02827 0.3707 0.28338 0.0
C537 C 0.09915 0.32933 0.28889 0.0
N538 N 0.05994 0.42769 0.30985 0.0
N539 N 0.07248 0.28071 0.24321 0.0
H540 H 0.1533 0.31722 0.31662 0.0
H541 H 0.13316 0.27785 0.29085 0.0
H542 H 0.04978 0.26852 0.22649 0.0
H543 H 0.09886 0.26613 0.24018 0.0
H544 H 0.03619 0.44532 0.30309 0.0
H545 H 0.08365 0.44337 0.32069 0.0
H546 H 0.98626 0.41062 0.3057 0.0
H547 H 0.96713 0.37414 0.27492 0.0
C548 C 0.33393 0.94059 0.79128 0.0
C549 C 0.32629 0.97515 0.76961 0.0
C550 C 0.34514 0.94164 0.70684 0.0
C551 C 0.36233 0.91149 0.73025 0.0
N552 N 0.37903 0.88786 0.79785 0.0
N553 N 0.3267 0.00932 0.70524 0.0
C554 C 0.3578 0.9119 0.77334 0.0
C555 C 0.33176 0.97583 0.72676 0.0
N556 N 0.31955 0.93594 0.82969 0.0
N557 N 0.34107 0.93747 0.6658 0.0
H558 H 0.31673 0.03502 0.71811 0.0
H559 H 0.33496 0.01216 0.67488 0.0
H560 H 0.34887 0.9121 0.65059 0.0
H561 H 0.3259 0.95727 0.64787 0.0
H562 H 0.32208 0.91001 0.84583 0.0
H563 H 0.30137 0.95655 0.84313 0.0
H564 H 0.37857 0.88999 0.82946 0.0
H565 H 0.40089 0.86952 0.78741 0.0
C566 C 0.91324 0.68414 0.29537 0.0
C567 C 0.91573 0.6457 0.31092 0.0
C568 C 0.98493 0.64409 0.29284 0.0
C569 C 0.98037 0.67892 0.27059 0.0
N570 N 0.9407 0.73272 0.24985 0.0
N571 N 0.95328 0.58638 0.31765 0.0
C572 C 0.94476 0.69947 0.272 0.0
C573 C 0.95158 0.62511 0.30862 0.0
N574 N 0.88092 0.70595 0.30331 0.0
N575 N 0.0212 0.62858 0.29792 0.0
H576 H 0.9294 0.56993 0.32675 0.0
H577 H 0.97772 0.56936 0.31185 0.0
H578 H 0.04621 0.64164 0.28618 0.0
H579 H 0.02679 0.6052 0.31715 0.0
H580 H 0.87855 0.73517 0.29568 0.0
H581 H 0.85783 0.69564 0.32093 0.0
H582 H 0.91422 0.74684 0.24575 0.0
H583 H 0.96389 0.74514 0.23393 0.0
C584 C 0.68283 0.97427 0.30133 0.0
C585 C 0.69078 0.97302 0.25895 0.0
C586 C 0.66108 0.90894 0.25449 0.0
C587 C 0.65361 0.90931 0.29718 0.0
N588 N 0.66963 0.937 0.36241 0.0
N589 N 0.7016 0.93345 0.19996 0.0
C590 C 0.66858 0.94025 0.32106 0.0
C591 C 0.68523 0.93801 0.2375 0.0
N592 N 0.68638 0.00818 0.32239 0.0
N593 N 0.64227 0.88376 0.22913 0.0
H594 H 0.71949 0.95465 0.18702 0.0
H595 H 0.70083 0.90727 0.18413 0.0
H596 H 0.6206 0.86465 0.23844 0.0
H597 H 0.64455 0.88537 0.19758 0.0
H598 H 0.67624 0.01157 0.35205 0.0
H599 H 0.6973 0.03359 0.30962 0.0
H600 H 0.68315 0.95737 0.38102 0.0
H601 H 0.66092 0.91187 0.37761 0.0
C602 C 0.90869 0.32603 0.73831 0.0
C603 C 0.91372 0.36187 0.71747 0.0
C604 C 0.98426 0.35612 0.72668 0.0
C605 C 0.97815 0.32571 0.75484 0.0
N606 N 0.93501 0.28079 0.78786 0.0
N607 N 0.95722 0.41414 0.69737 0.0
C608 C 0.94049 0.31002 0.76042 0.0
C609 C 0.95183 0.37745 0.71224 0.0
N610 N 0.87372 0.30725 0.73654 0.0
N611 N 0.02124 0.3656 0.71503 0.0
H612 H 0.93469 0.43268 0.68916 0.0
H613 H 0.98416 0.42804 0.69736 0.0
H614 H 0.04557 0.35058 0.72551 0.0
H615 H 0.02731 0.38531 0.69182 0.0
H616 H 0.86916 0.27962 0.74845 0.0
H617 H 0.85036 0.31775 0.71954 0.0
H618 H 0.90763 0.27106 0.79694 0.0
H619 H 0.95821 0.2675 0.80286 0.0
C620 C 0.39344 0.05661 0.30006 0.0
C621 C 0.37154 0.09114 0.30602 0.0
C622 C 0.31691 0.06291 0.26796 0.0
C623 C 0.33861 0.02829 0.26326 0.0
N624 N 0.39226 0.98806 0.28444 0.0
N625 N 0.30999 0.1245 0.30318 0.0
C626 C 0.37508 0.02382 0.28268 0.0
C627 C 0.33239 0.09344 0.29232 0.0
N628 N 0.43255 0.05587 0.30788 0.0
N629 N 0.28235 0.06709 0.24798 0.0
H630 H 0.32048 0.14686 0.32147 0.0
H631 H 0.28032 0.12647 0.29718 0.0
H632 H 0.26993 0.04475 0.231 0.0
H633 H 0.26713 0.09315 0.24637 0.0
H634 H 0.45051 0.03288 0.2995 0.0
H635 H 0.44812 0.07952 0.31894 0.0
H636 H 0.41697 0.98229 0.30174 0.0
H637 H 0.3796 0.96325 0.272 0.0
C638 C 0.06179 0.63346 0.71607 0.0
C639 C 0.0997 0.64998 0.71888 0.0
C640 C 0.07383 0.70148 0.76297 0.0
C641 C 0.0363 0.68497 0.7596 0.0
N642 N 0.99236 0.64361 0.72278 0.0
N643 N 0.1394 0.70543 0.73553 0.0
C644 C 0.02961 0.65411 0.7322 0.0
C645 C 0.10492 0.68599 0.73926 0.0
N646 N 0.05658 0.59654 0.70187 0.0
N647 N 0.07993 0.73103 0.7898 0.0
H648 H 0.16218 0.69528 0.7174 0.0
H649 H 0.14396 0.7332 0.747 0.0
H650 H 0.05719 0.7439 0.80599 0.0
H651 H 0.10747 0.74144 0.79726 0.0
H652 H 0.03006 0.58196 0.70364 0.0
H653 H 0.07912 0.57852 0.69243 0.0
H654 H 0.98567 0.62359 0.70013 0.0
H655 H 0.9682 0.65803 0.73457 0.0
C656 C 0.18475 0.48198 0.54816 0.0
C657 C 0.18323 0.52297 0.55212 0.0
C658 C 0.18639 0.52989 0.47795 0.0
C659 C 0.18301 0.48901 0.47396 0.0
N660 N 0.17647 0.42582 0.50451 0.0
N661 N 0.18009 0.58638 0.52151 0.0
C662 C 0.18194 0.46488 0.50887 0.0
C663 C 0.18378 0.54711 0.5172 0.0
N664 N 0.18965 0.4595 0.58204 0.0
N665 N 0.19286 0.55211 0.44414 0.0
H666 H 0.179 0.60002 0.54978 0.0
H667 H 0.1756 0.6053 0.4973 0.0
H668 H 0.19493 0.54038 0.41501 0.0
H669 H 0.19946 0.58156 0.44514 0.0
H670 H 0.1949 0.42978 0.58113 0.0
H671 H 0.19177 0.47114 0.6112 0.0
H672 H 0.17077 0.40713 0.52866 0.0
H673 H 0.17515 0.41224 0.47623 0.0
C674 C 0.5463 0.84982 0.50527 0.0
C675 C 0.52101 0.84844 0.4713 0.0
C676 C 0.46415 0.84969 0.51682 0.0
C677 C 0.48946 0.84941 0.55081 0.0
N678 N 0.5541 0.8415 0.57805 0.0
N679 N 0.45643 0.8394 0.44431 0.0
C680 C 0.53043 0.84722 0.5452 0.0
C681 C 0.48005 0.84614 0.47697 0.0
N682 N 0.58534 0.85524 0.49942 0.0
N683 N 0.42508 0.85498 0.52251 0.0
H684 H 0.46703 0.83643 0.41474 0.0
H685 H 0.42684 0.83335 0.44684 0.0
H686 H 0.41237 0.85727 0.55122 0.0
H687 H 0.40561 0.86001 0.49888 0.0
H688 H 0.60477 0.86107 0.52288 0.0
H689 H 0.59807 0.85682 0.47065 0.0
H690 H 0.58373 0.83555 0.5757 0.0
H691 H 0.54354 0.83927 0.60771 0.0
C692 C 0.82851 0.54681 0.51029 0.0
C693 C 0.82543 0.52218 0.47597 0.0
C694 C 0.82297 0.46491 0.5204 0.0
C695 C 0.82594 0.48955 0.55475 0.0
N696 N 0.82314 0.55369 0.58356 0.0
N697 N 0.81158 0.45928 0.44777 0.0
C698 C 0.82608 0.53049 0.55 0.0
C699 C 0.82003 0.48163 0.48091 0.0
N700 N 0.83543 0.58554 0.50489 0.0
N701 N 0.82486 0.42558 0.52538 0.0
H702 H 0.80934 0.47069 0.41847 0.0
H703 H 0.80354 0.43022 0.44957 0.0
H704 H 0.82624 0.41233 0.55387 0.0
H705 H 0.82754 0.40608 0.50141 0.0
H706 H 0.84266 0.60436 0.5284 0.0
H707 H 0.83621 0.59861 0.47628 0.0
H708 H 0.81925 0.5836 0.58221 0.0
H709 H 0.82121 0.5426 0.61301 0.0
C710 C 0.46937 0.16892 0.51349 0.0
C711 C 0.49394 0.16872 0.47881 0.0
C712 C 0.5517 0.16529 0.52271 0.0
C713 C 0.52716 0.16674 0.55736 0.0
N714 N 0.46363 0.17779 0.58641 0.0
N715 N 0.5582 0.17431 0.44982 0.0
C716 C 0.48624 0.17092 0.55291 0.0
C717 C 0.53508 0.16917 0.48328 0.0
N718 N 0.42998 0.16541 0.50882 0.0
N719 N 0.59066 0.15861 0.52745 0.0
H720 H 0.54699 0.17741 0.42055 0.0
H721 H 0.58811 0.17887 0.45128 0.0
H722 H 0.60387 0.15628 0.55587 0.0
H723 H 0.60948 0.1527 0.50341 0.0
H724 H 0.41082 0.1607 0.53288 0.0
H725 H 0.41651 0.16435 0.48046 0.0
H726 H 0.43429 0.18517 0.58492 0.0
H727 H 0.47498 0.17944 0.61574 0.0
C728 C 0.66339 0.0434 0.02037 0.0
C729 C 0.66538 0.01912 0.05509 0.0
C730 C 0.66469 0.96128 1.0114 0.0
C731 C 0.66444 0.9856 0.97663 0.0
N732 N 0.67127 0.04943 0.94734 0.0
N733 N 0.67545 0.95562 0.08406 0.0
C734 C 0.66602 0.02659 0.98093 0.0
C735 C 0.66822 0.9782 0.05071 0.0
N736 N 0.6574 0.08235 0.02503 0.0
N737 N 0.65998 0.92213 1.00695 0.0
H738 H 0.67841 0.96697 0.11328 0.0
H739 H 0.6819 0.92616 0.08245 0.0
H740 H 0.65774 0.90872 0.97865 0.0
H741 H 0.65538 0.90325 0.0312 0.0
H742 H 0.65111 0.10099 1.00102 0.0
H743 H 0.6558 0.09573 0.05341 0.0
H744 H 0.67682 0.07908 0.94872 0.0
H745 H 0.67351 0.03821 0.918 0.0
C746 C 0.04633 0.33979 1.00158 0.0
C747 C 0.02027 0.33775 0.96829 0.0
C748 C 0.9646 0.33524 0.01522 0.0
C749 C 0.99071 0.33615 0.04854 0.0
N750 N 0.05622 0.331 0.07405 0.0
N751 N 0.95575 0.3251 0.94285 0.0
C752 C 0.03158 0.33591 0.04187 0.0
C753 C 0.9797 0.33291 0.97498 0.0
N754 N 0.08492 0.34713 0.9948 0.0
N755 N 0.92544 0.33848 0.02189 0.0
H756 H 0.96584 0.32295 0.913 0.0
H757 H 0.92663 0.31728 0.94607 0.0
H758 H 0.91322 0.33982 0.0509 0.0
H759 H 0.90522 0.34269 0.99877 0.0
H760 H 0.10463 0.35351 0.01784 0.0
H761 H 0.09685 0.34963 0.96574 0.0
H762 H 0.08606 0.32663 0.07092 0.0
H763 H 0.04639 0.32778 0.10389 0.0
C764 C 0.33983 0.04984 1.007 0.0
C765 C 0.33866 0.02561 0.97225 0.0
C766 C 0.33535 0.96775 0.0158 0.0
C767 C 0.3357 0.992 0.05057 0.0
N768 N 0.33037 0.05579 0.07991 0.0
N769 N 0.32725 0.96267 0.94274 0.0
C770 C 0.33554 0.03301 0.04633 0.0
C771 C 0.33394 0.98487 0.97644 0.0
N772 N 0.34666 0.08868 1.00247 0.0
N773 N 0.3382 0.92842 0.02034 0.0
H774 H 0.32608 0.97424 0.91346 0.0
H775 H 0.31955 0.93349 0.94393 0.0
H776 H 0.3386 0.9148 0.04866 0.0
H777 H 0.34283 0.9094 0.99627 0.0
H778 H 0.3524 0.10729 0.02662 0.0
H779 H 0.34915 0.10203 0.97411 0.0
H780 H 0.32609 0.08565 0.07862 0.0
H781 H 0.32697 0.04437 0.1091 0.0
C782 C 0.03591 0.66973 0.98232 0.0
C783 C 0.99529 0.66687 0.9748 0.0
C784 C 0.98256 0.66849 0.04822 0.0
C785 C 0.02324 0.66665 0.0557 0.0
N786 N 0.08883 0.66115 0.03023 0.0
N787 N 0.92988 0.65917 1.00019 0.0
C788 C 0.05003 0.66635 0.02285 0.0
C789 C 0.96853 0.66534 1.00765 0.0
N790 N 0.0609 0.67685 0.95078 0.0
N791 N 0.95739 0.67444 0.07985 0.0
H792 H 0.91846 0.65695 0.97093 0.0
H793 H 0.90957 0.65323 0.02289 0.0
H794 H 0.9666 0.67724 0.10991 0.0
H795 H 0.92786 0.68013 0.07603 0.0
H796 H 0.09026 0.6833 0.95469 0.0
H797 H 0.05162 0.67985 0.92076 0.0
H798 H 0.10929 0.65611 1.00745 0.0
H799 H 0.10031 0.65883 0.05946 0.0
loop_
_geom_bond_atom_site_label_1
_geom_bond_atom_site_label_2
_geom_bond_distance
_geom_bond_site_symmetry_2
_ccdc_geom_bond_type
O0 Cd1 2.223 . S
O0 C8 1.315 . S
Cd1 O0 2.223 . S
Cd1 O4 2.297 . S
Cd1 O5 2.439 . S
Cd1 O11 2.240 . S
Cd2 O3 2.240 . S
Cd2 O10 2.223 . S
Cd2 O12 2.297 . S
Cd2 O13 2.439 . S
O3 Cd2 2.240 . S
O3 C8 1.279 . S
O4 Cd1 2.297 . S
O4 C6 1.247 . S
O5 Cd1 2.439 . S
O5 C6 1.208 . S
C6 O4 1.247 . S
C6 O5 1.208 . S
C7 O12 1.247 . S
C7 O13 1.208 . S
C8 O0 1.315 . S
C8 O3 1.279 . S
C9 O10 1.315 . S
C9 O11 1.279 . S
O10 Cd2 2.223 . S
O10 C9 1.315 . S
O11 Cd1 2.240 . S
O11 C9 1.279 . S
O12 Cd2 2.297 . S
O12 C7 1.247 . S
O13 Cd2 2.439 . S
O13 C7 1.208 . S
O14 Cd15 2.223 . S
O14 C22 1.315 . S
Cd15 O14 2.223 . S
Cd15 O18 2.297 . S
Cd15 O19 2.439 . S
Cd15 O25 2.240 . S
Cd16 O17 2.240 . S
Cd16 O24 2.223 . S
Cd16 O26 2.297 . S
Cd16 O27 2.439 . S
O17 Cd16 2.240 . S
O17 C22 1.279 . S
O18 Cd15 2.297 . S
O18 C20 1.247 . S
O19 Cd15 2.439 . S
O19 C20 1.208 . S
C20 O18 1.247 . S
C20 O19 1.208 . S
C21 O26 1.247 . S
C21 O27 1.208 . S
C22 O14 1.315 . S
C22 O17 1.279 . S
C23 O24 1.315 . S
C23 O25 1.279 . S
O24 Cd16 2.223 . S
O24 C23 1.315 . S
O25 Cd15 2.240 . S
O25 C23 1.279 . S
O26 Cd16 2.297 . S
O26 C21 1.247 . S
O27 Cd16 2.439 . S
O27 C21 1.208 . S
O28 Cd29 2.223 . S
O28 C36 1.315 . S
Cd29 O28 2.223 . S
Cd29 O32 2.297 . S
Cd29 O33 2.439 . S
Cd29 O39 2.240 . S
Cd30 O31 2.240 . S
Cd30 O38 2.223 . S
Cd30 O40 2.297 . S
Cd30 O41 2.439 . S
O31 Cd30 2.240 . S
O31 C36 1.279 . S
O32 Cd29 2.297 . S
O32 C34 1.247 . S
O33 Cd29 2.439 . S
O33 C34 1.208 . S
C34 O32 1.247 . S
C34 O33 1.208 . S
C35 O40 1.247 . S
C35 O41 1.208 . S
C36 O28 1.315 . S
C36 O31 1.279 . S
C37 O38 1.315 . S
C37 O39 1.279 . S
O38 Cd30 2.223 . S
O38 C37 1.315 . S
O39 Cd29 2.240 . S
O39 C37 1.279 . S
O40 Cd30 2.297 . S
O40 C35 1.247 . S
O41 Cd30 2.439 . S
O41 C35 1.208 . S
O42 Cd43 2.223 . S
O42 C50 1.315 . S
Cd43 O42 2.223 . S
Cd43 O46 2.297 . S
Cd43 O47 2.439 . S
Cd43 O53 2.240 . S
Cd44 O45 2.240 . S
Cd44 O52 2.223 . S
Cd44 O54 2.297 . S
Cd44 O55 2.439 . S
O45 Cd44 2.240 . S
O45 C50 1.279 . S
O46 Cd43 2.297 . S
O46 C48 1.247 . S
O47 Cd43 2.439 . S
O47 C48 1.208 . S
C48 O46 1.247 . S
C48 O47 1.208 . S
C49 O54 1.247 . S
C49 O55 1.208 . S
C50 O42 1.315 . S
C50 O45 1.279 . S
C51 O52 1.315 . S
C51 O53 1.279 . S
O52 Cd44 2.223 . S
O52 C51 1.315 . S
O53 Cd43 2.240 . S
O53 C51 1.279 . S
O54 Cd44 2.297 . S
O54 C49 1.247 . S
O55 Cd44 2.439 . S
O55 C49 1.208 . S
O56 Cd57 2.223 . S
O56 C64 1.315 . S
Cd57 O56 2.223 . S
Cd57 O60 2.297 . S
Cd57 O61 2.439 . S
Cd57 O67 2.240 . S
Cd58 O59 2.240 . S
Cd58 O66 2.223 . S
Cd58 O68 2.297 . S
Cd58 O69 2.439 . S
O59 Cd58 2.240 . S
O59 C64 1.279 . S
O60 Cd57 2.297 . S
O60 C62 1.247 . S
O61 Cd57 2.439 . S
O61 C62 1.208 . S
C62 O60 1.247 . S
C62 O61 1.208 . S
C63 O68 1.247 . S
C63 O69 1.208 . S
C64 O56 1.315 . S
C64 O59 1.279 . S
C65 O66 1.315 . S
C65 O67 1.279 . S
O66 Cd58 2.223 . S
O66 C65 1.315 . S
O67 Cd57 2.240 . S
O67 C65 1.279 . S
O68 Cd58 2.297 . S
O68 C63 1.247 . S
O69 Cd58 2.439 . S
O69 C63 1.208 . S
O70 Cd71 2.223 . S
O70 C78 1.315 . S
Cd71 O70 2.223 . S
Cd71 O74 2.297 . S
Cd71 O75 2.439 . S
Cd71 O81 2.240 . S
Cd72 O73 2.240 . S
Cd72 O80 2.223 . S
Cd72 O82 2.297 . S
Cd72 O83 2.439 . S
O73 Cd72 2.240 . S
O73 C78 1.279 . S
O74 Cd71 2.297 . S
O74 C76 1.247 . S
O75 Cd71 2.439 . S
O75 C76 1.208 . S
C76 O74 1.247 . S
C76 O75 1.208 . S
C77 O82 1.247 . S
C77 O83 1.208 . S
C78 O70 1.315 . S
C78 O73 1.279 . S
C79 O80 1.315 . S
C79 O81 1.279 . S
O80 Cd72 2.223 . S
O80 C79 1.315 . S
O81 Cd71 2.240 . S
O81 C79 1.279 . S
O82 Cd72 2.297 . S
O82 C77 1.247 . S
O83 Cd72 2.439 . S
O83 C77 1.208 . S
O84 Cd85 2.223 . S
O84 C92 1.315 . S
Cd85 O84 2.223 . S
Cd85 O88 2.297 . S
Cd85 O89 2.439 . S
Cd85 O95 2.240 . S
Cd86 O87 2.240 . S
Cd86 O94 2.223 . S
Cd86 O96 2.297 . S
Cd86 O97 2.439 . S
O87 Cd86 2.240 . S
O87 C92 1.279 . S
O88 Cd85 2.297 . S
O88 C90 1.247 . S
O89 Cd85 2.439 . S
O89 C90 1.208 . S
C90 O88 1.247 . S
C90 O89 1.208 . S
C91 O96 1.247 . S
C91 O97 1.208 . S
C92 O84 1.315 . S
C92 O87 1.279 . S
C93 O94 1.315 . S
C93 O95 1.279 . S
O94 Cd86 2.223 . S
O94 C93 1.315 . S
O95 Cd85 2.240 . S
O95 C93 1.279 . S
O96 Cd86 2.297 . S
O96 C91 1.247 . S
O97 Cd86 2.439 . S
O97 C91 1.208 . S
O98 Cd99 2.223 . S
O98 C106 1.315 . S
Cd99 O98 2.223 . S
Cd99 O102 2.297 . S
Cd99 O103 2.439 . S
Cd99 O109 2.240 . S
Cd100 O101 2.240 . S
Cd100 O108 2.223 . S
Cd100 O110 2.297 . S
Cd100 O111 2.439 . S
O101 Cd100 2.240 . S
O101 C106 1.279 . S
O102 Cd99 2.297 . S
O102 C104 1.247 . S
O103 Cd99 2.439 . S
O103 C104 1.208 . S
C104 O102 1.247 . S
C104 O103 1.208 . S
C105 O110 1.247 . S
C105 O111 1.208 . S
C106 O98 1.315 . S
C106 O101 1.279 . S
C107 O108 1.315 . S
C107 O109 1.279 . S
O108 Cd100 2.223 . S
O108 C107 1.315 . S
O109 Cd99 2.240 . S
O109 C107 1.279 . S
O110 Cd100 2.297 . S
O110 C105 1.247 . S
O111 Cd100 2.439 . S
O111 C105 1.208 . S
O112 Cd113 2.223 . S
O112 C120 1.315 . S
Cd113 O112 2.223 . S
Cd113 O116 2.297 . S
Cd113 O117 2.439 . S
Cd113 O123 2.240 . S
Cd114 O115 2.240 . S
Cd114 O122 2.223 . S
Cd114 O124 2.297 . S
Cd114 O125 2.439 . S
O115 Cd114 2.240 . S
O115 C120 1.279 . S
O116 Cd113 2.297 . S
O116 C118 1.247 . S
O117 Cd113 2.439 . S
O117 C118 1.208 . S
C118 O116 1.247 . S
C118 O117 1.208 . S
C119 O124 1.247 . S
C119 O125 1.208 . S
C120 O112 1.315 . S
C120 O115 1.279 . S
C121 O122 1.315 . S
C121 O123 1.279 . S
O122 Cd114 2.223 . S
O122 C121 1.315 . S
O123 Cd113 2.240 . S
O123 C121 1.279 . S
O124 Cd114 2.297 . S
O124 C119 1.247 . S
O125 Cd114 2.439 . S
O125 C119 1.208 . S
O126 Cd127 2.223 . S
O126 C134 1.315 . S
Cd127 O126 2.223 . S
Cd127 O130 2.297 . S
Cd127 O131 2.439 . S
Cd127 O137 2.240 . S
Cd128 O129 2.240 . S
Cd128 O136 2.223 . S
Cd128 O138 2.297 . S
Cd128 O139 2.439 . S
O129 Cd128 2.240 . S
O129 C134 1.279 . S
O130 Cd127 2.297 . S
O130 C132 1.247 . S
O131 Cd127 2.439 . S
O131 C132 1.208 . S
C132 O130 1.247 . S
C132 O131 1.208 . S
C133 O138 1.247 . S
C133 O139 1.208 . S
C134 O126 1.315 . S
C134 O129 1.279 . S
C135 O136 1.315 . S
C135 O137 1.279 . S
O136 Cd128 2.223 . S
O136 C135 1.315 . S
O137 Cd127 2.240 . S
O137 C135 1.279 . S
O138 Cd128 2.297 . S
O138 C133 1.247 . S
O139 Cd128 2.439 . S
O139 C133 1.208 . S
O140 Cd141 2.223 . S
O140 C148 1.315 . S
Cd141 O140 2.223 . S
Cd141 O144 2.297 . S
Cd141 O145 2.439 . S
Cd141 O151 2.240 . S
Cd142 O143 2.240 . S
Cd142 O150 2.223 . S
Cd142 O152 2.297 . S
Cd142 O153 2.439 . S
O143 Cd142 2.240 . S
O143 C148 1.279 . S
O144 Cd141 2.297 . S
O144 C146 1.247 . S
O145 Cd141 2.439 . S
O145 C146 1.208 . S
C146 O144 1.247 . S
C146 O145 1.208 . S
C147 O152 1.247 . S
C147 O153 1.208 . S
C148 O140 1.315 . S
C148 O143 1.279 . S
C149 O150 1.315 . S
C149 O151 1.279 . S
O150 Cd142 2.223 . S
O150 C149 1.315 . S
O151 Cd141 2.240 . S
O151 C149 1.279 . S
O152 Cd142 2.297 . S
O152 C147 1.247 . S
O153 Cd142 2.439 . S
O153 C147 1.208 . S
O154 Cd155 2.223 . S
O154 C162 1.315 . S
Cd155 O154 2.223 . S
Cd155 O158 2.297 . S
Cd155 O159 2.439 . S
Cd155 O165 2.240 . S
Cd156 O157 2.240 . S
Cd156 O164 2.223 . S
Cd156 O166 2.297 . S
Cd156 O167 2.439 . S
O157 Cd156 2.240 . S
O157 C162 1.279 . S
O158 Cd155 2.297 . S
O158 C160 1.247 . S
O159 Cd155 2.439 . S
O159 C160 1.208 . S
C160 O158 1.247 . S
C160 O159 1.208 . S
C161 O166 1.247 . S
C161 O167 1.208 . S
C162 O154 1.315 . S
C162 O157 1.279 . S
C163 O164 1.315 . S
C163 O165 1.279 . S
O164 Cd156 2.223 . S
O164 C163 1.315 . S
O165 Cd155 2.240 . S
O165 C163 1.279 . S
O166 Cd156 2.297 . S
O166 C161 1.247 . S
O167 Cd156 2.439 . S
O167 C161 1.208 . S
O168 Cd169 2.223 . S
O168 C176 1.315 . S
Cd169 O168 2.223 . S
Cd169 O172 2.297 . S
Cd169 O173 2.439 . S
Cd169 O179 2.240 . S
Cd170 O171 2.240 . S
Cd170 O178 2.223 . S
Cd170 O180 2.297 . S
Cd170 O181 2.439 . S
O171 Cd170 2.240 . S
O171 C176 1.279 . S
O172 Cd169 2.297 . S
O172 C174 1.247 . S
O173 Cd169 2.439 . S
O173 C174 1.208 . S
C174 O172 1.247 . S
C174 O173 1.208 . S
C175 O180 1.247 . S
C175 O181 1.208 . S
C176 O168 1.315 . S
C176 O171 1.279 . S
C177 O178 1.315 . S
C177 O179 1.279 . S
O178 Cd170 2.223 . S
O178 C177 1.315 . S
O179 Cd169 2.240 . S
O179 C177 1.279 . S
O180 Cd170 2.297 . S
O180 C175 1.247 . S
O181 Cd170 2.439 . S
O181 C175 1.208 . S
O182 Cd183 2.223 . S
O182 C190 1.315 . S
Cd183 O182 2.223 . S
Cd183 O186 2.297 . S
Cd183 O187 2.439 . S
Cd183 O193 2.240 . S
Cd184 O185 2.240 . S
Cd184 O192 2.223 . S
Cd184 O194 2.297 . S
Cd184 O195 2.439 . S
O185 Cd184 2.240 . S
O185 C190 1.279 . S
O186 Cd183 2.297 . S
O186 C188 1.247 . S
O187 Cd183 2.439 . S
O187 C188 1.208 . S
C188 O186 1.247 . S
C188 O187 1.208 . S
C189 O194 1.247 . S
C189 O195 1.208 . S
C190 O182 1.315 . S
C190 O185 1.279 . S
C191 O192 1.315 . S
C191 O193 1.279 . S
O192 Cd184 2.223 . S
O192 C191 1.315 . S
O193 Cd183 2.240 . S
O193 C191 1.279 . S
O194 Cd184 2.297 . S
O194 C189 1.247 . S
O195 Cd184 2.439 . S
O195 C189 1.208 . S
O196 Cd197 2.223 . S
O196 C204 1.315 . S
Cd197 O196 2.223 . S
Cd197 O200 2.297 . S
Cd197 O201 2.439 . S
Cd197 O207 2.240 . S
Cd198 O199 2.240 . S
Cd198 O206 2.223 . S
Cd198 O208 2.297 . S
Cd198 O209 2.439 . S
O199 Cd198 2.240 . S
O199 C204 1.279 . S
O200 Cd197 2.297 . S
O200 C202 1.247 . S
O201 Cd197 2.439 . S
O201 C202 1.208 . S
C202 O200 1.247 . S
C202 O201 1.208 . S
C203 O208 1.247 . S
C203 O209 1.208 . S
C204 O196 1.315 . S
C204 O199 1.279 . S
C205 O206 1.315 . S
C205 O207 1.279 . S
O206 Cd198 2.223 . S
O206 C205 1.315 . S
O207 Cd197 2.240 . S
O207 C205 1.279 . S
O208 Cd198 2.297 . S
O208 C203 1.247 . S
O209 Cd198 2.439 . S
O209 C203 1.208 . S
O210 Cd211 2.223 . S
O210 C218 1.315 . S
Cd211 O210 2.223 . S
Cd211 O214 2.297 . S
Cd211 O215 2.439 . S
Cd211 O221 2.240 . S
Cd212 O213 2.240 . S
Cd212 O220 2.223 . S
Cd212 O222 2.297 . S
Cd212 O223 2.439 . S
O213 Cd212 2.240 . S
O213 C218 1.279 . S
O214 Cd211 2.297 . S
O214 C216 1.247 . S
O215 Cd211 2.439 . S
O215 C216 1.208 . S
C216 O214 1.247 . S
C216 O215 1.208 . S
C217 O222 1.247 . S
C217 O223 1.208 . S
C218 O210 1.315 . S
C218 O213 1.279 . S
C219 O220 1.315 . S
C219 O221 1.279 . S
O220 Cd212 2.223 . S
O220 C219 1.315 . S
O221 Cd211 2.240 . S
O221 C219 1.279 . S
O222 Cd212 2.297 . S
O222 C217 1.247 . S
O223 Cd212 2.439 . S
O223 C217 1.208 . S
C224 C225 1.363 . S
C224 C230 1.379 . S
C224 N232 1.356 . S
C225 C224 1.363 . S
C225 C231 1.363 . S
C226 C227 1.363 . S
C226 C231 1.379 . S
C226 N233 1.356 . S
C227 C226 1.363 . S
C227 C230 1.363 . S
N228 C230 1.356 . S
N228 H240 0.984 . S
N228 H241 0.985 . S
N229 C231 1.356 . S
N229 H234 0.984 . S
N229 H235 0.985 . S
C230 C224 1.379 . S
C230 C227 1.363 . S
C230 N228 1.356 . S
C231 C225 1.363 . S
C231 C226 1.379 . S
C231 N229 1.356 . S
N232 C224 1.356 . S
N232 H238 0.984 . S
N232 H239 0.984 . S
N233 C226 1.356 . S
N233 H236 0.984 . S
N233 H237 0.985 . S
H234 N229 0.984 . S
H235 N229 0.985 . S
H236 N233 0.984 . S
H237 N233 0.985 . S
H238 N232 0.984 . S
H239 N232 0.984 . S
H240 N228 0.984 . S
H241 N228 0.985 . S
C242 C243 1.363 . S
C242 C248 1.379 . S
C242 N250 1.356 . S
C243 C242 1.363 . S
C243 C249 1.363 . S
C244 C245 1.363 . S
C244 C249 1.379 . S
C244 N251 1.356 . S
C245 C244 1.363 . S
C245 C248 1.363 . S
N246 C248 1.356 . S
N246 H258 0.984 . S
N246 H259 0.985 . S
N247 C249 1.356 . S
N247 H252 0.984 . S
N247 H253 0.985 . S
C248 C242 1.379 . S
C248 C245 1.363 . S
C248 N246 1.356 . S
C249 C243 1.363 . S
C249 C244 1.379 . S
C249 N247 1.356 . S
N250 C242 1.356 . S
N250 H256 0.984 . S
N250 H257 0.984 . S
N251 C244 1.356 . S
N251 H254 0.984 . S
N251 H255 0.985 . S
H252 N247 0.984 . S
H253 N247 0.985 . S
H254 N251 0.984 . S
H255 N251 0.985 . S
H256 N250 0.984 . S
H257 N250 0.984 . S
H258 N246 0.984 . S
H259 N246 0.985 . S
C260 C261 1.363 . S
C260 C266 1.379 . S
C260 N268 1.356 . S
C261 C260 1.363 . S
C261 C267 1.363 . S
C262 C263 1.363 . S
C262 C267 1.379 . S
C262 N269 1.356 . S
C263 C262 1.363 . S
C263 C266 1.363 . S
N264 C266 1.356 . S
N264 H276 0.984 . S
N264 H277 0.985 . S
N265 C267 1.356 . S
N265 H270 0.984 . S
N265 H271 0.985 . S
C266 C260 1.379 . S
C266 C263 1.363 . S
C266 N264 1.356 . S
C267 C261 1.363 . S
C267 C262 1.379 . S
C267 N265 1.356 . S
N268 C260 1.356 . S
N268 H274 0.984 . S
N268 H275 0.984 . S
N269 C262 1.356 . S
N269 H272 0.984 . S
N269 H273 0.985 . S
H270 N265 0.984 . S
H271 N265 0.985 . S
H272 N269 0.984 . S
H273 N269 0.985 . S
H274 N268 0.984 . S
H275 N268 0.984 . S
H276 N264 0.984 . S
H277 N264 0.985 . S
C278 C279 1.363 . S
C278 C284 1.379 . S
C278 N286 1.356 . S
C279 C278 1.363 . S
C279 C285 1.363 . S
C280 C281 1.363 . S
C280 C285 1.379 . S
C280 N287 1.356 . S
C281 C280 1.363 . S
C281 C284 1.363 . S
N282 C284 1.356 . S
N282 H294 0.984 . S
N282 H295 0.985 . S
N283 C285 1.356 . S
N283 H288 0.984 . S
N283 H289 0.985 . S
C284 C278 1.379 . S
C284 C281 1.363 . S
C284 N282 1.356 . S
C285 C279 1.363 . S
C285 C280 1.379 . S
C285 N283 1.356 . S
N286 C278 1.356 . S
N286 H292 0.984 . S
N286 H293 0.984 . S
N287 C280 1.356 . S
N287 H290 0.984 . S
N287 H291 0.985 . S
H288 N283 0.984 . S
H289 N283 0.985 . S
H290 N287 0.984 . S
H291 N287 0.985 . S
H292 N286 0.984 . S
H293 N286 0.984 . S
H294 N282 0.984 . S
H295 N282 0.985 . S
C296 C297 1.363 . S
C296 C302 1.379 . S
C296 N304 1.356 . S
C297 C296 1.363 . S
C297 C303 1.363 . S
C298 C299 1.363 . S
C298 C303 1.379 . S
C298 N305 1.356 . S
C299 C298 1.363 . S
C299 C302 1.363 . S
N300 C302 1.356 . S
N300 H312 0.984 . S
N300 H313 0.985 . S
N301 C303 1.356 . S
N301 H306 0.984 . S
N301 H307 0.985 . S
C302 C296 1.379 . S
C302 C299 1.363 . S
C302 N300 1.356 . S
C303 C297 1.363 . S
C303 C298 1.379 . S
C303 N301 1.356 . S
N304 C296 1.356 . S
N304 H310 0.984 . S
N304 H311 0.984 . S
N305 C298 1.356 . S
N305 H308 0.984 . S
N305 H309 0.985 . S
H306 N301 0.984 . S
H307 N301 0.985 . S
H308 N305 0.984 . S
H309 N305 0.985 . S
H310 N304 0.984 . S
H311 N304 0.984 . S
H312 N300 0.984 . S
H313 N300 0.985 . S
C314 C315 1.363 . S
C314 C320 1.379 . S
C314 N322 1.356 . S
C315 C314 1.363 . S
C315 C321 1.363 . S
C316 C317 1.363 . S
C316 C321 1.379 . S
C316 N323 1.356 . S
C317 C316 1.363 . S
C317 C320 1.363 . S
N318 C320 1.356 . S
N318 H330 0.984 . S
N318 H331 0.985 . S
N319 C321 1.356 . S
N319 H324 0.984 . S
N319 H325 0.985 . S
C320 C314 1.379 . S
C320 C317 1.363 . S
C320 N318 1.356 . S
C321 C315 1.363 . S
C321 C316 1.379 . S
C321 N319 1.356 . S
N322 C314 1.356 . S
N322 H328 0.984 . S
N322 H329 0.984 . S
N323 C316 1.356 . S
N323 H326 0.984 . S
N323 H327 0.985 . S
H324 N319 0.984 . S
H325 N319 0.985 . S
H326 N323 0.984 . S
H327 N323 0.985 . S
H328 N322 0.984 . S
H329 N322 0.984 . S
H330 N318 0.984 . S
H331 N318 0.985 . S
C332 C333 1.363 . S
C332 C338 1.379 . S
C332 N340 1.356 . S
C333 C332 1.363 . S
C333 C339 1.363 . S
C334 C335 1.363 . S
C334 C339 1.379 . S
C334 N341 1.356 . S
C335 C334 1.363 . S
C335 C338 1.363 . S
N336 C338 1.356 . S
N336 H348 0.984 . S
N336 H349 0.985 . S
N337 C339 1.356 . S
N337 H342 0.984 . S
N337 H343 0.985 . S
C338 C332 1.379 . S
C338 C335 1.363 . S
C338 N336 1.356 . S
C339 C333 1.363 . S
C339 C334 1.379 . S
C339 N337 1.356 . S
N340 C332 1.356 . S
N340 H346 0.984 . S
N340 H347 0.984 . S
N341 C334 1.356 . S
N341 H344 0.984 . S
N341 H345 0.985 . S
H342 N337 0.984 . S
H343 N337 0.985 . S
H344 N341 0.984 . S
H345 N341 0.985 . S
H346 N340 0.984 . S
H347 N340 0.984 . S
H348 N336 0.984 . S
H349 N336 0.985 . S
C350 C351 1.363 . S
C350 C356 1.379 . S
C350 N358 1.356 . S
C351 C350 1.363 . S
C351 C357 1.363 . S
C352 C353 1.363 . S
C352 C357 1.379 . S
C352 N359 1.356 . S
C353 C352 1.363 . S
C353 C356 1.363 . S
N354 C356 1.356 . S
N354 H366 0.984 . S
N354 H367 0.985 . S
N355 C357 1.356 . S
N355 H360 0.984 . S
N355 H361 0.985 . S
C356 C350 1.379 . S
C356 C353 1.363 . S
C356 N354 1.356 . S
C357 C351 1.363 . S
C357 C352 1.379 . S
C357 N355 1.356 . S
N358 C350 1.356 . S
N358 H364 0.984 . S
N358 H365 0.984 . S
N359 C352 1.356 . S
N359 H362 0.984 . S
N359 H363 0.985 . S
H360 N355 0.984 . S
H361 N355 0.985 . S
H362 N359 0.984 . S
H363 N359 0.985 . S
H364 N358 0.984 . S
H365 N358 0.984 . S
H366 N354 0.984 . S
H367 N354 0.985 . S
C368 C369 1.363 . S
C368 C374 1.379 . S
C368 N376 1.356 . S
C369 C368 1.363 . S
C369 C375 1.363 . S
C370 C371 1.363 . S
C370 C375 1.379 . S
C370 N377 1.356 . S
C371 C370 1.363 . S
C371 C374 1.363 . S
N372 C374 1.356 . S
N372 H384 0.984 . S
N372 H385 0.985 . S
N373 C375 1.356 . S
N373 H378 0.984 . S
N373 H379 0.985 . S
C374 C368 1.379 . S
C374 C371 1.363 . S
C374 N372 1.356 . S
C375 C369 1.363 . S
C375 C370 1.379 . S
C375 N373 1.356 . S
N376 C368 1.356 . S
N376 H382 0.984 . S
N376 H383 0.984 . S
N377 C370 1.356 . S
N377 H380 0.984 . S
N377 H381 0.985 . S
H378 N373 0.984 . S
H379 N373 0.985 . S
H380 N377 0.984 . S
H381 N377 0.985 . S
H382 N376 0.984 . S
H383 N376 0.984 . S
H384 N372 0.984 . S
H385 N372 0.985 . S
C386 C387 1.363 . S
C386 C392 1.379 . S
C386 N394 1.356 . S
C387 C386 1.363 . S
C387 C393 1.363 . S
C388 C389 1.363 . S
C388 C393 1.379 . S
C388 N395 1.356 . S
C389 C388 1.363 . S
C389 C392 1.363 . S
N390 C392 1.356 . S
N390 H402 0.984 . S
N390 H403 0.985 . S
N391 C393 1.356 . S
N391 H396 0.984 . S
N391 H397 0.985 . S
C392 C386 1.379 . S
C392 C389 1.363 . S
C392 N390 1.356 . S
C393 C387 1.363 . S
C393 C388 1.379 . S
C393 N391 1.356 . S
N394 C386 1.356 . S
N394 H400 0.984 . S
N394 H401 0.984 . S
N395 C388 1.356 . S
N395 H398 0.984 . S
N395 H399 0.985 . S
H396 N391 0.984 . S
H397 N391 0.985 . S
H398 N395 0.984 . S
H399 N395 0.985 . S
H400 N394 0.984 . S
H401 N394 0.984 . S
H402 N390 0.984 . S
H403 N390 0.985 . S
C404 C405 1.363 . S
C404 C410 1.379 . S
C404 N412 1.356 . S
C405 C404 1.363 . S
C405 C411 1.363 . S
C406 C407 1.363 . S
C406 C411 1.379 . S
C406 N413 1.356 . S
C407 C406 1.363 . S
C407 C410 1.363 . S
N408 C410 1.356 . S
N408 H420 0.984 . S
N408 H421 0.985 . S
N409 C411 1.356 . S
N409 H414 0.984 . S
N409 H415 0.985 . S
C410 C404 1.379 . S
C410 C407 1.363 . S
C410 N408 1.356 . S
C411 C405 1.363 . S
C411 C406 1.379 . S
C411 N409 1.356 . S
N412 C404 1.356 . S
N412 H418 0.984 . S
N412 H419 0.984 . S
N413 C406 1.356 . S
N413 H416 0.984 . S
N413 H417 0.985 . S
H414 N409 0.984 . S
H415 N409 0.985 . S
H416 N413 0.984 . S
H417 N413 0.985 . S
H418 N412 0.984 . S
H419 N412 0.984 . S
H420 N408 0.984 . S
H421 N408 0.985 . S
C422 C423 1.363 . S
C422 C428 1.379 . S
C422 N430 1.356 . S
C423 C422 1.363 . S
C423 C429 1.363 . S
C424 C425 1.363 . S
C424 C429 1.379 . S
C424 N431 1.356 . S
C425 C424 1.363 . S
C425 C428 1.363 . S
N426 C428 1.356 . S
N426 H438 0.984 . S
N426 H439 0.985 . S
N427 C429 1.356 . S
N427 H432 0.984 . S
N427 H433 0.985 . S
C428 C422 1.379 . S
C428 C425 1.363 . S
C428 N426 1.356 . S
C429 C423 1.363 . S
C429 C424 1.379 . S
C429 N427 1.356 . S
N430 C422 1.356 . S
N430 H436 0.984 . S
N430 H437 0.984 . S
N431 C424 1.356 . S
N431 H434 0.984 . S
N431 H435 0.985 . S
H432 N427 0.984 . S
H433 N427 0.985 . S
H434 N431 0.984 . S
H435 N431 0.985 . S
H436 N430 0.984 . S
H437 N430 0.984 . S
H438 N426 0.984 . S
H439 N426 0.985 . S
C440 C441 1.363 . S
C440 C446 1.379 . S
C440 N448 1.356 . S
C441 C440 1.363 . S
C441 C447 1.363 . S
C442 C443 1.363 . S
C442 C447 1.379 . S
C442 N449 1.356 . S
C443 C442 1.363 . S
C443 C446 1.363 . S
N444 C446 1.356 . S
N444 H456 0.984 . S
N444 H457 0.985 . S
N445 C447 1.356 . S
N445 H450 0.984 . S
N445 H451 0.985 . S
C446 C440 1.379 . S
C446 C443 1.363 . S
C446 N444 1.356 . S
C447 C441 1.363 . S
C447 C442 1.379 . S
C447 N445 1.356 . S
N448 C440 1.356 . S
N448 H454 0.984 . S
N448 H455 0.984 . S
N449 C442 1.356 . S
N449 H452 0.984 . S
N449 H453 0.985 . S
H450 N445 0.984 . S
H451 N445 0.985 . S
H452 N449 0.984 . S
H453 N449 0.985 . S
H454 N448 0.984 . S
H455 N448 0.984 . S
H456 N444 0.984 . S
H457 N444 0.985 . S
C458 C459 1.363 . S
C458 C464 1.379 . S
C458 N466 1.356 . S
C459 C458 1.363 . S
C459 C465 1.363 . S
C460 C461 1.363 . S
C460 C465 1.379 . S
C460 N467 1.356 . S
C461 C460 1.363 . S
C461 C464 1.363 . S
N462 C464 1.356 . S
N462 H474 0.984 . S
N462 H475 0.985 . S
N463 C465 1.356 . S
N463 H468 0.984 . S
N463 H469 0.985 . S
C464 C458 1.379 . S
C464 C461 1.363 . S
C464 N462 1.356 . S
C465 C459 1.363 . S
C465 C460 1.379 . S
C465 N463 1.356 . S
N466 C458 1.356 . S
N466 H472 0.984 . S
N466 H473 0.984 . S
N467 C460 1.356 . S
N467 H470 0.984 . S
N467 H471 0.985 . S
H468 N463 0.984 . S
H469 N463 0.985 . S
H470 N467 0.984 . S
H471 N467 0.985 . S
H472 N466 0.984 . S
H473 N466 0.984 . S
H474 N462 0.984 . S
H475 N462 0.985 . S
C476 C477 1.363 . S
C476 C482 1.379 . S
C476 N484 1.356 . S
C477 C476 1.363 . S
C477 C483 1.363 . S
C478 C479 1.363 . S
C478 C483 1.379 . S
C478 N485 1.356 . S
C479 C478 1.363 . S
C479 C482 1.363 . S
N480 C482 1.356 . S
N480 H492 0.984 . S
N480 H493 0.985 . S
N481 C483 1.356 . S
N481 H486 0.984 . S
N481 H487 0.985 . S
C482 C476 1.379 . S
C482 C479 1.363 . S
C482 N480 1.356 . S
C483 C477 1.363 . S
C483 C478 1.379 . S
C483 N481 1.356 . S
N484 C476 1.356 . S
N484 H490 0.984 . S
N484 H491 0.984 . S
N485 C478 1.356 . S
N485 H488 0.984 . S
N485 H489 0.985 . S
H486 N481 0.984 . S
H487 N481 0.985 . S
H488 N485 0.984 . S
H489 N485 0.985 . S
H490 N484 0.984 . S
H491 N484 0.984 . S
H492 N480 0.984 . S
H493 N480 0.985 . S
C494 C495 1.363 . S
C494 C500 1.379 . S
C494 N502 1.356 . S
C495 C494 1.363 . S
C495 C501 1.363 . S
C496 C497 1.363 . S
C496 C501 1.379 . S
C496 N503 1.356 . S
C497 C496 1.363 . S
C497 C500 1.363 . S
N498 C500 1.356 . S
N498 H510 0.984 . S
N498 H511 0.985 . S
N499 C501 1.356 . S
N499 H504 0.984 . S
N499 H505 0.985 . S
C500 C494 1.379 . S
C500 C497 1.363 . S
C500 N498 1.356 . S
C501 C495 1.363 . S
C501 C496 1.379 . S
C501 N499 1.356 . S
N502 C494 1.356 . S
N502 H508 0.984 . S
N502 H509 0.984 . S
N503 C496 1.356 . S
N503 H506 0.984 . S
N503 H507 0.985 . S
H504 N499 0.984 . S
H505 N499 0.985 . S
H506 N503 0.984 . S
H507 N503 0.985 . S
H508 N502 0.984 . S
H509 N502 0.984 . S
H510 N498 0.984 . S
H511 N498 0.985 . S
C512 C513 1.363 . S
C512 C518 1.379 . S
C512 N520 1.356 . S
C513 C512 1.363 . S
C513 C519 1.363 . S
C514 C515 1.363 . S
C514 C519 1.379 . S
C514 N521 1.356 . S
C515 C514 1.363 . S
C515 C518 1.363 . S
N516 C518 1.356 . S
N516 H528 0.984 . S
N516 H529 0.985 . S
N517 C519 1.356 . S
N517 H522 0.966 1_545 S
N517 H523 0.985 . S
C518 C512 1.379 . S
C518 C515 1.363 . S
C518 N516 1.356 . S
C519 C513 1.363 . S
C519 C514 1.379 . S
C519 N517 1.356 . S
N520 C512 1.356 . S
N520 H526 0.984 . S
N520 H527 0.984 1_545 S
N521 C514 1.356 . S
N521 H524 0.984 . S
N521 H525 0.985 . S
H522 N517 0.966 1_565 S
H523 N517 0.985 . S
H524 N521 0.984 . S
H525 N521 0.985 . S
H526 N520 0.984 . S
H527 N520 0.984 1_565 S
H528 N516 0.984 . S
H529 N516 0.985 . S
C530 C531 1.363 . S
C530 C536 1.379 . S
C530 N538 1.356 . S
C531 C530 1.363 . S
C531 C537 1.363 . S
C532 C533 1.363 . S
C532 C537 1.379 . S
C532 N539 1.356 . S
C533 C532 1.363 . S
C533 C536 1.363 . S
N534 C536 1.356 1_655 S
N534 H546 0.984 . S
N534 H547 0.985 . S
N535 C537 1.356 . S
N535 H540 0.984 . S
N535 H541 0.985 . S
C536 C530 1.379 . S
C536 C533 1.363 . S
C536 N534 1.356 1_455 S
C537 C531 1.363 . S
C537 C532 1.379 . S
C537 N535 1.356 . S
N538 C530 1.356 . S
N538 H544 0.984 . S
N538 H545 0.984 . S
N539 C532 1.356 . S
N539 H542 0.984 . S
N539 H543 0.985 . S
H540 N535 0.984 . S
H541 N535 0.985 . S
H542 N539 0.984 . S
H543 N539 0.985 . S
H544 N538 0.984 . S
H545 N538 0.984 . S
H546 N534 0.984 . S
H547 N534 0.985 . S
C548 C549 1.363 . S
C548 C554 1.379 . S
C548 N556 1.356 . S
C549 C548 1.363 . S
C549 C555 1.363 . S
C550 C551 1.363 . S
C550 C555 1.379 . S
C550 N557 1.356 . S
C551 C550 1.363 . S
C551 C554 1.363 . S
N552 C554 1.356 . S
N552 H564 0.984 . S
N552 H565 0.985 . S
N553 C555 1.356 . S
N553 H558 0.984 1_565 S
N553 H559 0.985 . S
C554 C548 1.379 . S
C554 C551 1.363 . S
C554 N552 1.356 . S
C555 C549 1.363 . S
C555 C550 1.379 . S
C555 N553 1.356 . S
N556 C548 1.356 . S
N556 H562 0.984 . S
N556 H563 0.984 . S
N557 C550 1.356 . S
N557 H560 0.984 . S
N557 H561 0.985 . S
H558 N553 0.984 1_545 S
H559 N553 0.985 . S
H560 N557 0.984 . S
H561 N557 0.985 . S
H562 N556 0.984 . S
H563 N556 0.984 . S
H564 N552 0.984 . S
H565 N552 0.985 . S
C566 C567 1.363 . S
C566 C572 1.379 . S
C566 N574 1.356 . S
C567 C566 1.363 . S
C567 C573 1.363 . S
C568 C569 1.363 . S
C568 C573 1.379 . S
C568 N575 1.356 . S
C569 C568 1.363 . S
C569 C572 1.363 . S
N570 C572 1.356 . S
N570 H582 0.984 . S
N570 H583 0.985 . S
N571 C573 1.356 . S
N571 H576 0.984 . S
N571 H577 0.985 . S
C572 C566 1.379 . S
C572 C569 1.363 . S
C572 N570 1.356 . S
C573 C567 1.363 . S
C573 C568 1.379 . S
C573 N571 1.356 . S
N574 C566 1.356 . S
N574 H580 0.984 . S
N574 H581 0.984 . S
N575 C568 1.356 . S
N575 H578 0.984 1_655 S
N575 H579 0.985 . S
H576 N571 0.984 . S
H577 N571 0.985 . S
H578 N575 0.984 1_455 S
H579 N575 0.985 . S
H580 N574 0.984 . S
H581 N574 0.984 . S
H582 N570 0.984 . S
H583 N570 0.985 . S
C584 C585 1.363 . S
C584 C590 1.379 . S
C584 N592 1.356 . S
C585 C584 1.363 . S
C585 C591 1.363 . S
C586 C587 1.363 . S
C586 C591 1.379 . S
C586 N593 1.356 . S
C587 C586 1.363 . S
C587 C590 1.363 . S
N588 C590 1.356 . S
N588 H600 0.984 . S
N588 H601 0.985 . S
N589 C591 1.356 . S
N589 H594 0.984 . S
N589 H595 0.985 . S
C590 C584 1.379 . S
C590 C587 1.363 . S
C590 N588 1.356 . S
C591 C585 1.363 . S
C591 C586 1.379 . S
C591 N589 1.356 . S
N592 C584 1.356 . S
N592 H598 0.984 . S
N592 H599 0.984 1_565 S
N593 C586 1.356 . S
N593 H596 0.984 . S
N593 H597 0.985 . S
H594 N589 0.984 . S
H595 N589 0.985 . S
H596 N593 0.984 . S
H597 N593 0.985 . S
H598 N592 0.984 . S
H599 N592 0.984 1_545 S
H600 N588 0.984 . S
H601 N588 0.985 . S
C602 C603 1.363 . S
C602 C608 1.379 . S
C602 N610 1.356 . S
C603 C602 1.363 . S
C603 C609 1.363 . S
C604 C605 1.363 . S
C604 C609 1.379 . S
C604 N611 1.356 . S
C605 C604 1.363 . S
C605 C608 1.363 . S
N606 C608 1.356 . S
N606 H618 0.984 . S
N606 H619 0.985 . S
N607 C609 1.356 . S
N607 H612 0.984 . S
N607 H613 0.985 . S
C608 C602 1.379 . S
C608 C605 1.363 . S
C608 N606 1.356 . S
C609 C603 1.363 . S
C609 C604 1.379 . S
C609 N607 1.356 . S
N610 C602 1.356 . S
N610 H616 0.984 . S
N610 H617 0.984 . S
N611 C604 1.356 . S
N611 H614 0.984 1_655 S
N611 H615 0.985 . S
H612 N607 0.984 . S
H613 N607 0.985 . S
H614 N611 0.984 1_455 S
H615 N611 0.985 . S
H616 N610 0.984 . S
H617 N610 0.984 . S
H618 N606 0.984 . S
H619 N606 0.985 . S
C620 C621 1.363 . S
C620 C626 1.379 . S
C620 N628 1.356 . S
C621 C620 1.363 . S
C621 C627 1.363 . S
C622 C623 1.363 . S
C622 C627 1.379 . S
C622 N629 1.356 . S
C623 C622 1.363 . S
C623 C626 1.363 . S
N624 C626 1.356 1_565 S
N624 H636 0.984 . S
N624 H637 0.985 . S
N625 C627 1.356 . S
N625 H630 0.984 . S
N625 H631 0.985 . S
C626 C620 1.379 . S
C626 C623 1.363 . S
C626 N624 1.356 1_545 S
C627 C621 1.363 . S
C627 C622 1.379 . S
C627 N625 1.356 . S
N628 C620 1.356 . S
N628 H634 0.984 . S
N628 H635 0.984 . S
N629 C622 1.356 . S
N629 H632 0.984 . S
N629 H633 0.985 . S
H630 N625 0.984 . S
H631 N625 0.985 . S
H632 N629 0.984 . S
H633 N629 0.985 . S
H634 N628 0.984 . S
H635 N628 0.984 . S
H636 N624 0.984 . S
H637 N624 0.985 . S
C638 C639 1.363 . S
C638 C644 1.379 . S
C638 N646 1.356 . S
C639 C638 1.363 . S
C639 C645 1.363 . S
C640 C641 1.363 . S
C640 C645 1.379 . S
C640 N647 1.356 . S
C641 C640 1.363 . S
C641 C644 1.363 . S
N642 C644 1.356 1_655 S
N642 H654 0.984 . S
N642 H655 0.985 . S
N643 C645 1.356 . S
N643 H648 0.984 . S
N643 H649 0.985 . S
C644 C638 1.379 . S
C644 C641 1.363 . S
C644 N642 1.356 1_455 S
C645 C639 1.363 . S
C645 C640 1.379 . S
C645 N643 1.356 . S
N646 C638 1.356 . S
N646 H652 0.984 . S
N646 H653 0.984 . S
N647 C640 1.356 . S
N647 H650 0.984 . S
N647 H651 0.985 . S
H648 N643 0.984 . S
H649 N643 0.985 . S
H650 N647 0.984 . S
H651 N647 0.985 . S
H652 N646 0.984 . S
H653 N646 0.984 . S
H654 N642 0.984 . S
H655 N642 0.985 . S
C656 C657 1.363 . S
C656 C662 1.379 . S
C656 N664 1.356 . S
C657 C656 1.363 . S
C657 C663 1.363 . S
C658 C659 1.363 . S
C658 C663 1.379 . S
C658 N665 1.356 . S
C659 C658 1.363 . S
C659 C662 1.363 . S
N660 C662 1.356 . S
N660 H672 0.984 . S
N660 H673 0.985 . S
N661 C663 1.356 . S
N661 H666 0.984 . S
N661 H667 0.985 . S
C662 C656 1.379 . S
C662 C659 1.363 . S
C662 N660 1.356 . S
C663 C657 1.363 . S
C663 C658 1.379 . S
C663 N661 1.356 . S
N664 C656 1.356 . S
N664 H670 0.984 . S
N664 H671 0.984 . S
N665 C658 1.356 . S
N665 H668 0.984 . S
N665 H669 0.985 . S
H666 N661 0.984 . S
H667 N661 0.985 . S
H668 N665 0.984 . S
H669 N665 0.985 . S
H670 N664 0.984 . S
H671 N664 0.984 . S
H672 N660 0.984 . S
H673 N660 0.985 . S
C674 C675 1.363 . S
C674 C680 1.379 . S
C674 N682 1.356 . S
C675 C674 1.363 . S
C675 C681 1.363 . S
C676 C677 1.363 . S
C676 C681 1.379 . S
C676 N683 1.356 . S
C677 C676 1.363 . S
C677 C680 1.363 . S
N678 C680 1.356 . S
N678 H690 0.984 . S
N678 H691 0.985 . S
N679 C681 1.356 . S
N679 H684 0.984 . S
N679 H685 0.985 . S
C680 C674 1.379 . S
C680 C677 1.363 . S
C680 N678 1.356 . S
C681 C675 1.363 . S
C681 C676 1.379 . S
C681 N679 1.356 . S
N682 C674 1.356 . S
N682 H688 0.984 . S
N682 H689 0.984 . S
N683 C676 1.356 . S
N683 H686 0.984 . S
N683 H687 0.985 . S
H684 N679 0.984 . S
H685 N679 0.985 . S
H686 N683 0.984 . S
H687 N683 0.985 . S
H688 N682 0.984 . S
H689 N682 0.984 . S
H690 N678 0.984 . S
H691 N678 0.985 . S
C692 C693 1.363 . S
C692 C698 1.379 . S
C692 N700 1.356 . S
C693 C692 1.363 . S
C693 C699 1.363 . S
C694 C695 1.363 . S
C694 C699 1.379 . S
C694 N701 1.356 . S
C695 C694 1.363 . S
C695 C698 1.363 . S
N696 C698 1.356 . S
N696 H708 0.984 . S
N696 H709 0.985 . S
N697 C699 1.356 . S
N697 H702 0.984 . S
N697 H703 0.985 . S
C698 C692 1.379 . S
C698 C695 1.363 . S
C698 N696 1.356 . S
C699 C693 1.363 . S
C699 C694 1.379 . S
C699 N697 1.356 . S
N700 C692 1.356 . S
N700 H706 0.984 . S
N700 H707 0.984 . S
N701 C694 1.356 . S
N701 H704 0.984 . S
N701 H705 0.985 . S
H702 N697 0.984 . S
H703 N697 0.985 . S
H704 N701 0.984 . S
H705 N701 0.985 . S
H706 N700 0.984 . S
H707 N700 0.984 . S
H708 N696 0.984 . S
H709 N696 0.985 . S
C710 C711 1.363 . S
C710 C716 1.379 . S
C710 N718 1.356 . S
C711 C710 1.363 . S
C711 C717 1.363 . S
C712 C713 1.363 . S
C712 C717 1.379 . S
C712 N719 1.356 . S
C713 C712 1.363 . S
C713 C716 1.363 . S
N714 C716 1.356 . S
N714 H726 0.984 . S
N714 H727 0.985 . S
N715 C717 1.356 . S
N715 H720 0.984 . S
N715 H721 0.985 . S
C716 C710 1.379 . S
C716 C713 1.363 . S
C716 N714 1.356 . S
C717 C711 1.363 . S
C717 C712 1.379 . S
C717 N715 1.356 . S
N718 C710 1.356 . S
N718 H724 0.984 . S
N718 H725 0.984 . S
N719 C712 1.356 . S
N719 H722 0.984 . S
N719 H723 0.985 . S
H720 N715 0.984 . S
H721 N715 0.985 . S
H722 N719 0.984 . S
H723 N719 0.985 . S
H724 N718 0.984 . S
H725 N718 0.984 . S
H726 N714 0.984 . S
H727 N714 0.985 . S
C728 C729 1.363 . S
C728 C734 1.379 1_554 S
C728 N736 1.356 . S
C729 C728 1.363 . S
C729 C735 1.363 1_545 S
C730 C731 1.363 . S
C730 C735 1.379 1_556 S
C730 N737 1.356 . S
C731 C730 1.363 . S
C731 C734 1.363 1_565 S
N732 C734 1.356 . S
N732 H744 0.984 . S
N732 H745 0.985 . S
N733 C735 1.356 . S
N733 H738 0.984 . S
N733 H739 0.985 . S
C734 C728 1.379 1_556 S
C734 C731 1.363 1_545 S
C734 N732 1.356 . S
C735 C729 1.363 1_565 S
C735 C730 1.379 1_554 S
C735 N733 1.356 . S
N736 C728 1.356 . S
N736 H742 0.984 . S
N736 H743 0.984 . S
N737 C730 1.356 . S
N737 H740 0.984 . S
N737 H741 0.985 . S
H738 N733 0.984 . S
H739 N733 0.985 . S
H740 N737 0.984 . S
H741 N737 0.985 . S
H742 N736 0.984 . S
H743 N736 0.984 . S
H744 N732 0.984 . S
H745 N732 0.985 . S
C746 C747 1.363 . S
C746 C752 1.379 1_556 S
C746 N754 1.356 . S
C747 C746 1.363 . S
C747 C753 1.363 1_455 S
C748 C749 1.363 . S
C748 C753 1.379 1_554 S
C748 N755 1.356 . S
C749 C748 1.363 . S
C749 C752 1.363 1_655 S
N750 C752 1.356 . S
N750 H762 0.984 . S
N750 H763 0.985 . S
N751 C753 1.356 . S
N751 H756 0.984 . S
N751 H757 0.985 . S
C752 C746 1.379 1_554 S
C752 C749 1.363 1_455 S
C752 N750 1.356 . S
C753 C747 1.363 1_655 S
C753 C748 1.379 1_556 S
C753 N751 1.356 . S
N754 C746 1.356 . S
N754 H760 0.984 . S
N754 H761 0.984 . S
N755 C748 1.356 . S
N755 H758 0.984 . S
N755 H759 0.985 . S
H756 N751 0.984 . S
H757 N751 0.985 . S
H758 N755 0.984 . S
H759 N755 0.985 . S
H760 N754 0.984 . S
H761 N754 0.984 . S
H762 N750 0.984 . S
H763 N750 0.985 . S
C764 C765 1.363 . S
C764 C770 1.379 1_556 S
C764 N772 1.356 . S
C765 C764 1.363 . S
C765 C771 1.363 1_545 S
C766 C767 1.363 . S
C766 C771 1.379 1_554 S
C766 N773 1.356 . S
C767 C766 1.363 . S
C767 C770 1.363 1_565 S
N768 C770 1.356 . S
N768 H780 0.984 . S
N768 H781 0.985 . S
N769 C771 1.356 . S
N769 H774 0.984 . S
N769 H775 0.985 . S
C770 C764 1.379 1_554 S
C770 C767 1.363 1_545 S
C770 N768 1.356 . S
C771 C765 1.363 1_565 S
C771 C766 1.379 1_556 S
C771 N769 1.356 . S
N772 C764 1.356 . S
N772 H778 0.984 . S
N772 H779 0.984 . S
N773 C766 1.356 . S
N773 H776 0.984 . S
N773 H777 0.985 . S
H774 N769 0.984 . S
H775 N769 0.985 . S
H776 N773 0.984 . S
H777 N773 0.985 . S
H778 N772 0.984 . S
H779 N772 0.984 . S
H780 N768 0.984 . S
H781 N768 0.985 . S
C782 C783 1.363 1_455 S
C782 C788 1.379 1_556 S
C782 N790 1.356 . S
C783 C782 1.363 1_655 S
C783 C789 1.363 . S
C784 C785 1.363 1_655 S
C784 C789 1.379 1_554 S
C784 N791 1.356 . S
C785 C784 1.363 1_455 S
C785 C788 1.363 . S
N786 C788 1.356 . S
N786 H798 0.984 . S
N786 H799 0.985 . S
N787 C789 1.356 . S
N787 H792 0.984 . S
N787 H793 0.985 . S
C788 C782 1.379 1_554 S
C788 C785 1.363 . S
C788 N786 1.356 . S
C789 C783 1.363 . S
C789 C784 1.379 1_556 S
C789 N787 1.356 . S
N790 C782 1.356 . S
N790 H796 0.984 . S
N790 H797 0.984 . S
N791 C784 1.356 . S
N791 H794 0.984 . S
N791 H795 0.985 . S
H792 N787 0.984 . S
H793 N787 0.985 . S
H794 N791 0.984 . S
H795 N791 0.985 . S
H796 N790 0.984 . S
H797 N790 0.984 . S
H798 N786 0.984 . S
H799 N786 0.985 . S
C225 C6 1.409 . S
C227 C104 1.409 . S
C243 C20 1.409 . S
C245 C62 1.409 . S
C261 C76 1.409 . S
C263 C34 1.409 . S
C279 C48 1.409 . S
C281 C90 1.409 . S
C297 C118 1.409 . S
C299 C216 1.409 . S
C315 C174 1.409 . S
C317 C132 1.409 . S
C333 C188 1.409 . S
C335 C146 1.409 . S
C351 C202 1.409 . S
C353 C160 1.409 . S
C369 C9 1.473 . S
C371 C162 1.515 . S
C387 C23 1.473 . S
C389 C120 1.515 . S
C405 C134 1.515 . S
C407 C37 1.473 . S
C423 C51 1.473 . S
C425 C148 1.515 . S
C441 C65 1.473 . S
C443 C190 1.515 . S
C459 C204 1.515 . S
C461 C79 1.473 . S
C477 C93 1.473 . S
C479 C218 1.515 . S
C495 C176 1.515 . S
C497 C107 1.473 . S
C513 C121 1.473 1_545 S
C515 C50 1.515 . S
C531 C8 1.515 . S
C533 C135 1.473 1_455 S
C549 C149 1.473 1_565 S
C551 C22 1.515 . S
C567 C36 1.515 . S
C569 C163 1.473 1_655 S
C585 C177 1.473 1_565 S
C587 C78 1.515 . S
C603 C92 1.515 . S
C605 C191 1.473 1_655 S
C621 C106 1.515 . S
C623 C205 1.473 1_545 S
C639 C64 1.515 . S
C641 C219 1.473 1_455 S
C657 C63 1.550 . S
C659 C7 1.550 . S
C675 C77 1.550 . S
C677 C21 1.550 . S
C693 C35 1.550 . S
C695 C91 1.550 . S
C711 C105 1.550 . S
C713 C49 1.550 . S
C729 C175 1.550 . S
C731 C119 1.550 . S
C747 C189 1.550 . S
C749 C133 1.550 . S
C765 C147 1.550 . S
C767 C203 1.550 . S
C783 C217 1.550 . S
C785 C161 1.550 . S
