# Generated by pormake.
# Topology kfi, (4)-cn, num edge types: 1
# Building blocks:
#     Node 0, Type 0, BuildingBlock: GALJAG_clean_sbu_0, # of connection points: 4
#     Node 1, Type 0, BuildingBlock: GALJAG_clean_sbu_0, # of connection points: 4
#     Node 2, Type 0, BuildingBlock: GALJAG_clean_sbu_0, # of connection points: 4
#     Node 3, Type 0, BuildingBlock: GALJAG_clean_sbu_0, # of connection points: 4
#     Node 4, Type 0, BuildingBlock: GALJAG_clean_sbu_0, # of connection points: 4
#     Node 5, Type 0, BuildingBlock: GALJAG_clean_sbu_0, # of connection points: 4
#     Node 6, Type 0, BuildingBlock: GALJAG_clean_sbu_0, # of connection points: 4
#     Node 7, Type 0, BuildingBlock: GALJAG_clean_sbu_0, # of connection points: 4
#     Node 8, Type 0, BuildingBlock: GALJAG_clean_sbu_0, # of connection points: 4
#     Node 9, Type 0, BuildingBlock: GALJAG_clean_sbu_0, # of connection points: 4
#     Node 10, Type 0, BuildingBlock: GALJAG_clean_sbu_0, # of connection points: 4
#     Node 11, Type 0, BuildingBlock: GALJAG_clean_sbu_0, # of connection points: 4
#     Node 12, Type 0, BuildingBlock: GALJAG_clean_sbu_0, # of connection points: 4
#     Node 13, Type 0, BuildingBlock: GALJAG_clean_sbu_0, # of connection points: 4
#     Node 14, Type 0, BuildingBlock: GALJAG_clean_sbu_0, # of connection points: 4
#     Node 15, Type 0, BuildingBlock: GALJAG_clean_sbu_0, # of connection points: 4
#     Node 16, Type 0, BuildingBlock: GALJAG_clean_sbu_0, # of connection points: 4
#     Node 17, Type 0, BuildingBlock: GALJAG_clean_sbu_0, # of connection points: 4
#     Node 18, Type 0, BuildingBlock: GALJAG_clean_sbu_0, # of connection points: 4
#     Node 19, Type 0, BuildingBlock: GALJAG_clean_sbu_0, # of connection points: 4
#     Node 20, Type 0, BuildingBlock: GALJAG_clean_sbu_0, # of connection points: 4
#     Node 21, Type 0, BuildingBlock: GALJAG_clean_sbu_0, # of connection points: 4
#     Node 22, Type 0, BuildingBlock: GALJAG_clean_sbu_0, # of connection points: 4
#     Node 23, Type 0, BuildingBlock: GALJAG_clean_sbu_0, # of connection points: 4
#     Node 24, Type 0, BuildingBlock: GALJAG_clean_sbu_0, # of connection points: 4
#     Node 25, Type 0, BuildingBlock: GALJAG_clean_sbu_0, # of connection points: 4
#     Node 26, Type 0, BuildingBlock: GALJAG_clean_sbu_0, # of connection points: 4
#     Node 27, Type 0, BuildingBlock: GALJAG_clean_sbu_0, # of connection points: 4
#     Node 28, Type 0, BuildingBlock: GALJAG_clean_sbu_0, # of connection points: 4
#     Node 29, Type 0, BuildingBlock: GALJAG_clean_sbu_0, # of connection points: 4
#     Node 30, Type 0, BuildingBlock: GALJAG_clean_sbu_0, # of connection points: 4
#     Node 31, Type 0, BuildingBlock: GALJAG_clean_sbu_0, # of connection points: 4
#     Node 32, Type 0, BuildingBlock: GALJAG_clean_sbu_0, # of connection points: 4
#     Node 33, Type 0, BuildingBlock: GALJAG_clean_sbu_0, # of connection points: 4
#     Node 34, Type 0, BuildingBlock: GALJAG_clean_sbu_0, # of connection points: 4
#     Node 35, Type 0, BuildingBlock: GALJAG_clean_sbu_0, # of connection points: 4
#     Node 36, Type 0, BuildingBlock: GALJAG_clean_sbu_0, # of connection points: 4
#     Node 37, Type 0, BuildingBlock: GALJAG_clean_sbu_0, # of connection points: 4
#     Node 38, Type 0, BuildingBlock: GALJAG_clean_sbu_0, # of connection points: 4
#     Node 39, Type 0, BuildingBlock: GALJAG_clean_sbu_0, # of connection points: 4
#     Node 40, Type 0, BuildingBlock: GALJAG_clean_sbu_0, # of connection points: 4
#     Node 41, Type 0, BuildingBlock: GALJAG_clean_sbu_0, # of connection points: 4
#     Node 42, Type 0, BuildingBlock: GALJAG_clean_sbu_0, # of connection points: 4
#     Node 43, Type 0, BuildingBlock: GALJAG_clean_sbu_0, # of connection points: 4
#     Node 44, Type 0, BuildingBlock: GALJAG_clean_sbu_0, # of connection points: 4
#     Node 45, Type 0, BuildingBlock: GALJAG_clean_sbu_0, # of connection points: 4
#     Node 46, Type 0, BuildingBlock: GALJAG_clean_sbu_0, # of connection points: 4
#     Node 47, Type 0, BuildingBlock: GALJAG_clean_sbu_0, # of connection points: 4
#     Node 48, Type 0, BuildingBlock: GALJAG_clean_sbu_0, # of connection points: 4
#     Node 49, Type 0, BuildingBlock: GALJAG_clean_sbu_0, # of connection points: 4
#     Node 50, Type 0, BuildingBlock: GALJAG_clean_sbu_0, # of connection points: 4
#     Node 51, Type 0, BuildingBlock: GALJAG_clean_sbu_0, # of connection points: 4
#     Node 52, Type 0, BuildingBlock: GALJAG_clean_sbu_0, # of connection points: 4
#     Node 53, Type 0, BuildingBlock: GALJAG_clean_sbu_0, # of connection points: 4
#     Node 54, Type 0, BuildingBlock: GALJAG_clean_sbu_0, # of connection points: 4
#     Node 55, Type 0, BuildingBlock: GALJAG_clean_sbu_0, # of connection points: 4
#     Node 56, Type 0, BuildingBlock: GALJAG_clean_sbu_0, # of connection points: 4
#     Node 57, Type 0, BuildingBlock: GALJAG_clean_sbu_0, # of connection points: 4
#     Node 58, Type 0, BuildingBlock: GALJAG_clean_sbu_0, # of connection points: 4
#     Node 59, Type 0, BuildingBlock: GALJAG_clean_sbu_0, # of connection points: 4
#     Node 60, Type 0, BuildingBlock: GALJAG_clean_sbu_0, # of connection points: 4
#     Node 61, Type 0, BuildingBlock: GALJAG_clean_sbu_0, # of connection points: 4
#     Node 62, Type 0, BuildingBlock: GALJAG_clean_sbu_0, # of connection points: 4
#     Node 63, Type 0, BuildingBlock: GALJAG_clean_sbu_0, # of connection points: 4
#     Node 64, Type 0, BuildingBlock: GALJAG_clean_sbu_0, # of connection points: 4
#     Node 65, Type 0, BuildingBlock: GALJAG_clean_sbu_0, # of connection points: 4
#     Node 66, Type 0, BuildingBlock: GALJAG_clean_sbu_0, # of connection points: 4
#     Node 67, Type 0, BuildingBlock: GALJAG_clean_sbu_0, # of connection points: 4
#     Node 68, Type 0, BuildingBlock: GALJAG_clean_sbu_0, # of connection points: 4
#     Node 69, Type 0, BuildingBlock: GALJAG_clean_sbu_0, # of connection points: 4
#     Node 70, Type 0, BuildingBlock: GALJAG_clean_sbu_0, # of connection points: 4
#     Node 71, Type 0, BuildingBlock: GALJAG_clean_sbu_0, # of connection points: 4
#     Node 72, Type 0, BuildingBlock: GALJAG_clean_sbu_0, # of connection points: 4
#     Node 73, Type 0, BuildingBlock: GALJAG_clean_sbu_0, # of connection points: 4
#     Node 74, Type 0, BuildingBlock: GALJAG_clean_sbu_0, # of connection points: 4
#     Node 75, Type 0, BuildingBlock: GALJAG_clean_sbu_0, # of connection points: 4
#     Node 76, Type 0, BuildingBlock: GALJAG_clean_sbu_0, # of connection points: 4
#     Node 77, Type 0, BuildingBlock: GALJAG_clean_sbu_0, # of connection points: 4
#     Node 78, Type 0, BuildingBlock: GALJAG_clean_sbu_0, # of connection points: 4
#     Node 79, Type 0, BuildingBlock: GALJAG_clean_sbu_0, # of connection points: 4
#     Node 80, Type 0, BuildingBlock: GALJAG_clean_sbu_0, # of connection points: 4
#     Node 81, Type 0, BuildingBlock: GALJAG_clean_sbu_0, # of connection points: 4
#     Node 82, Type 0, BuildingBlock: GALJAG_clean_sbu_0, # of connection points: 4
#     Node 83, Type 0, BuildingBlock: GALJAG_clean_sbu_0, # of connection points: 4
#     Node 84, Type 0, BuildingBlock: GALJAG_clean_sbu_0, # of connection points: 4
#     Node 85, Type 0, BuildingBlock: GALJAG_clean_sbu_0, # of connection points: 4
#     Node 86, Type 0, BuildingBlock: GALJAG_clean_sbu_0, # of connection points: 4
#     Node 87, Type 0, BuildingBlock: GALJAG_clean_sbu_0, # of connection points: 4
#     Node 88, Type 0, BuildingBlock: GALJAG_clean_sbu_0, # of connection points: 4
#     Node 89, Type 0, BuildingBlock: GALJAG_clean_sbu_0, # of connection points: 4
#     Node 90, Type 0, BuildingBlock: GALJAG_clean_sbu_0, # of connection points: 4
#     Node 91, Type 0, BuildingBlock: GALJAG_clean_sbu_0, # of connection points: 4
#     Node 92, Type 0, BuildingBlock: GALJAG_clean_sbu_0, # of connection points: 4
#     Node 93, Type 0, BuildingBlock: GALJAG_clean_sbu_0, # of connection points: 4
#     Node 94, Type 0, BuildingBlock: GALJAG_clean_sbu_0, # of connection points: 4
#     Node 95, Type 0, BuildingBlock: GALJAG_clean_sbu_0, # of connection points: 4
#     Edge 96, Type (0, 0), BuildingBlock: OJICUG_clean_linker_0, # of connection points: 2
#     Edge 97, Type (0, 0), BuildingBlock: OJICUG_clean_linker_0, # of connection points: 2
#     Edge 98, Type (0, 0), BuildingBlock: OJICUG_clean_linker_0, # of connection points: 2
#     Edge 99, Type (0, 0), BuildingBlock: OJICUG_clean_linker_0, # of connection points: 2
#     Edge 100, Type (0, 0), BuildingBlock: OJICUG_clean_linker_0, # of connection points: 2
#     Edge 101, Type (0, 0), BuildingBlock: OJICUG_clean_linker_0, # of connection points: 2
#     Edge 102, Type (0, 0), BuildingBlock: OJICUG_clean_linker_0, # of connection points: 2
#     Edge 103, Type (0, 0), BuildingBlock: OJICUG_clean_linker_0, # of connection points: 2
#     Edge 104, Type (0, 0), BuildingBlock: OJICUG_clean_linker_0, # of connection points: 2
#     Edge 105, Type (0, 0), BuildingBlock: OJICUG_clean_linker_0, # of connection points: 2
#     Edge 106, Type (0, 0), BuildingBlock: OJICUG_clean_linker_0, # of connection points: 2
#     Edge 107, Type (0, 0), BuildingBlock: OJICUG_clean_linker_0, # of connection points: 2
#     Edge 108, Type (0, 0), BuildingBlock: OJICUG_clean_linker_0, # of connection points: 2
#     Edge 109, Type (0, 0), BuildingBlock: OJICUG_clean_linker_0, # of connection points: 2
#     Edge 110, Type (0, 0), BuildingBlock: OJICUG_clean_linker_0, # of connection points: 2
#     Edge 111, Type (0, 0), BuildingBlock: OJICUG_clean_linker_0, # of connection points: 2
#     Edge 112, Type (0, 0), BuildingBlock: OJICUG_clean_linker_0, # of connection points: 2
#     Edge 113, Type (0, 0), BuildingBlock: OJICUG_clean_linker_0, # of connection points: 2
#     Edge 114, Type (0, 0), BuildingBlock: OJICUG_clean_linker_0, # of connection points: 2
#     Edge 115, Type (0, 0), BuildingBlock: OJICUG_clean_linker_0, # of connection points: 2
#     Edge 116, Type (0, 0), BuildingBlock: OJICUG_clean_linker_0, # of connection points: 2
#     Edge 117, Type (0, 0), BuildingBlock: OJICUG_clean_linker_0, # of connection points: 2
#     Edge 118, Type (0, 0), BuildingBlock: OJICUG_clean_linker_0, # of connection points: 2
#     Edge 119, Type (0, 0), BuildingBlock: OJICUG_clean_linker_0, # of connection points: 2
#     Edge 120, Type (0, 0), BuildingBlock: OJICUG_clean_linker_0, # of connection points: 2
#     Edge 121, Type (0, 0), BuildingBlock: OJICUG_clean_linker_0, # of connection points: 2
#     Edge 122, Type (0, 0), BuildingBlock: OJICUG_clean_linker_0, # of connection points: 2
#     Edge 123, Type (0, 0), BuildingBlock: OJICUG_clean_linker_0, # of connection points: 2
#     Edge 124, Type (0, 0), BuildingBlock: OJICUG_clean_linker_0, # of connection points: 2
#     Edge 125, Type (0, 0), BuildingBlock: OJICUG_clean_linker_0, # of connection points: 2
#     Edge 126, Type (0, 0), BuildingBlock: OJICUG_clean_linker_0, # of connection points: 2
#     Edge 127, Type (0, 0), BuildingBlock: OJICUG_clean_linker_0, # of connection points: 2
#     Edge 128, Type (0, 0), BuildingBlock: OJICUG_clean_linker_0, # of connection points: 2
#     Edge 129, Type (0, 0), BuildingBlock: OJICUG_clean_linker_0, # of connection points: 2
#     Edge 130, Type (0, 0), BuildingBlock: OJICUG_clean_linker_0, # of connection points: 2
#     Edge 131, Type (0, 0), BuildingBlock: OJICUG_clean_linker_0, # of connection points: 2
#     Edge 132, Type (0, 0), BuildingBlock: OJICUG_clean_linker_0, # of connection points: 2
#     Edge 133, Type (0, 0), BuildingBlock: OJICUG_clean_linker_0, # of connection points: 2
#     Edge 134, Type (0, 0), BuildingBlock: OJICUG_clean_linker_0, # of connection points: 2
#     Edge 135, Type (0, 0), BuildingBlock: OJICUG_clean_linker_0, # of connection points: 2
#     Edge 136, Type (0, 0), BuildingBlock: OJICUG_clean_linker_0, # of connection points: 2
#     Edge 137, Type (0, 0), BuildingBlock: OJICUG_clean_linker_0, # of connection points: 2
#     Edge 138, Type (0, 0), BuildingBlock: OJICUG_clean_linker_0, # of connection points: 2
#     Edge 139, Type (0, 0), BuildingBlock: OJICUG_clean_linker_0, # of connection points: 2
#     Edge 140, Type (0, 0), BuildingBlock: OJICUG_clean_linker_0, # of connection points: 2
#     Edge 141, Type (0, 0), BuildingBlock: OJICUG_clean_linker_0, # of connection points: 2
#     Edge 142, Type (0, 0), BuildingBlock: OJICUG_clean_linker_0, # of connection points: 2
#     Edge 143, Type (0, 0), BuildingBlock: OJICUG_clean_linker_0, # of connection points: 2
#     Edge 144, Type (0, 0), BuildingBlock: OJICUG_clean_linker_0, # of connection points: 2
#     Edge 145, Type (0, 0), BuildingBlock: OJICUG_clean_linker_0, # of connection points: 2
#     Edge 146, Type (0, 0), BuildingBlock: OJICUG_clean_linker_0, # of connection points: 2
#     Edge 147, Type (0, 0), BuildingBlock: OJICUG_clean_linker_0, # of connection points: 2
#     Edge 148, Type (0, 0), BuildingBlock: OJICUG_clean_linker_0, # of connection points: 2
#     Edge 149, Type (0, 0), BuildingBlock: OJICUG_clean_linker_0, # of connection points: 2
#     Edge 150, Type (0, 0), BuildingBlock: OJICUG_clean_linker_0, # of connection points: 2
#     Edge 151, Type (0, 0), BuildingBlock: OJICUG_clean_linker_0, # of connection points: 2
#     Edge 152, Type (0, 0), BuildingBlock: OJICUG_clean_linker_0, # of connection points: 2
#     Edge 153, Type (0, 0), BuildingBlock: OJICUG_clean_linker_0, # of connection points: 2
#     Edge 154, Type (0, 0), BuildingBlock: OJICUG_clean_linker_0, # of connection points: 2
#     Edge 155, Type (0, 0), BuildingBlock: OJICUG_clean_linker_0, # of connection points: 2
#     Edge 156, Type (0, 0), BuildingBlock: OJICUG_clean_linker_0, # of connection points: 2
#     Edge 157, Type (0, 0), BuildingBlock: OJICUG_clean_linker_0, # of connection points: 2
#     Edge 158, Type (0, 0), BuildingBlock: OJICUG_clean_linker_0, # of connection points: 2
#     Edge 159, Type (0, 0), BuildingBlock: OJICUG_clean_linker_0, # of connection points: 2
#     Edge 160, Type (0, 0), BuildingBlock: OJICUG_clean_linker_0, # of connection points: 2
#     Edge 161, Type (0, 0), BuildingBlock: OJICUG_clean_linker_0, # of connection points: 2
#     Edge 162, Type (0, 0), BuildingBlock: OJICUG_clean_linker_0, # of connection points: 2
#     Edge 163, Type (0, 0), BuildingBlock: OJICUG_clean_linker_0, # of connection points: 2
#     Edge 164, Type (0, 0), BuildingBlock: OJICUG_clean_linker_0, # of connection points: 2
#     Edge 165, Type (0, 0), BuildingBlock: OJICUG_clean_linker_0, # of connection points: 2
#     Edge 166, Type (0, 0), BuildingBlock: OJICUG_clean_linker_0, # of connection points: 2
#     Edge 167, Type (0, 0), BuildingBlock: OJICUG_clean_linker_0, # of connection points: 2
#     Edge 168, Type (0, 0), BuildingBlock: OJICUG_clean_linker_0, # of connection points: 2
#     Edge 169, Type (0, 0), BuildingBlock: OJICUG_clean_linker_0, # of connection points: 2
#     Edge 170, Type (0, 0), BuildingBlock: OJICUG_clean_linker_0, # of connection points: 2
#     Edge 171, Type (0, 0), BuildingBlock: OJICUG_clean_linker_0, # of connection points: 2
#     Edge 172, Type (0, 0), BuildingBlock: OJICUG_clean_linker_0, # of connection points: 2
#     Edge 173, Type (0, 0), BuildingBlock: OJICUG_clean_linker_0, # of connection points: 2
#     Edge 174, Type (0, 0), BuildingBlock: OJICUG_clean_linker_0, # of connection points: 2
#     Edge 175, Type (0, 0), BuildingBlock: OJICUG_clean_linker_0, # of connection points: 2
#     Edge 176, Type (0, 0), BuildingBlock: OJICUG_clean_linker_0, # of connection points: 2
#     Edge 177, Type (0, 0), BuildingBlock: OJICUG_clean_linker_0, # of connection points: 2
#     Edge 178, Type (0, 0), BuildingBlock: OJICUG_clean_linker_0, # of connection points: 2
#     Edge 179, Type (0, 0), BuildingBlock: OJICUG_clean_linker_0, # of connection points: 2
#     Edge 180, Type (0, 0), BuildingBlock: OJICUG_clean_linker_0, # of connection points: 2
#     Edge 181, Type (0, 0), BuildingBlock: OJICUG_clean_linker_0, # of connection points: 2
#     Edge 182, Type (0, 0), BuildingBlock: OJICUG_clean_linker_0, # of connection points: 2
#     Edge 183, Type (0, 0), BuildingBlock: OJICUG_clean_linker_0, # of connection points: 2
#     Edge 184, Type (0, 0), BuildingBlock: OJICUG_clean_linker_0, # of connection points: 2
#     Edge 185, Type (0, 0), BuildingBlock: OJICUG_clean_linker_0, # of connection points: 2
#     Edge 186, Type (0, 0), BuildingBlock: OJICUG_clean_linker_0, # of connection points: 2
#     Edge 187, Type (0, 0), BuildingBlock: OJICUG_clean_linker_0, # of connection points: 2
#     Edge 188, Type (0, 0), BuildingBlock: OJICUG_clean_linker_0, # of connection points: 2
#     Edge 189, Type (0, 0), BuildingBlock: OJICUG_clean_linker_0, # of connection points: 2
#     Edge 190, Type (0, 0), BuildingBlock: OJICUG_clean_linker_0, # of connection points: 2
#     Edge 191, Type (0, 0), BuildingBlock: OJICUG_clean_linker_0, # of connection points: 2
#     Edge 192, Type (0, 0), BuildingBlock: OJICUG_clean_linker_0, # of connection points: 2
#     Edge 193, Type (0, 0), BuildingBlock: OJICUG_clean_linker_0, # of connection points: 2
#     Edge 194, Type (0, 0), BuildingBlock: OJICUG_clean_linker_0, # of connection points: 2
#     Edge 195, Type (0, 0), BuildingBlock: OJICUG_clean_linker_0, # of connection points: 2
#     Edge 196, Type (0, 0), BuildingBlock: OJICUG_clean_linker_0, # of connection points: 2
#     Edge 197, Type (0, 0), BuildingBlock: OJICUG_clean_linker_0, # of connection points: 2
#     Edge 198, Type (0, 0), BuildingBlock: OJICUG_clean_linker_0, # of connection points: 2
#     Edge 199, Type (0, 0), BuildingBlock: OJICUG_clean_linker_0, # of connection points: 2
#     Edge 200, Type (0, 0), BuildingBlock: OJICUG_clean_linker_0, # of connection points: 2
#     Edge 201, Type (0, 0), BuildingBlock: OJICUG_clean_linker_0, # of connection points: 2
#     Edge 202, Type (0, 0), BuildingBlock: OJICUG_clean_linker_0, # of connection points: 2
#     Edge 203, Type (0, 0), BuildingBlock: OJICUG_clean_linker_0, # of connection points: 2
#     Edge 204, Type (0, 0), BuildingBlock: OJICUG_clean_linker_0, # of connection points: 2
#     Edge 205, Type (0, 0), BuildingBlock: OJICUG_clean_linker_0, # of connection points: 2
#     Edge 206, Type (0, 0), BuildingBlock: OJICUG_clean_linker_0, # of connection points: 2
#     Edge 207, Type (0, 0), BuildingBlock: OJICUG_clean_linker_0, # of connection points: 2
#     Edge 208, Type (0, 0), BuildingBlock: OJICUG_clean_linker_0, # of connection points: 2
#     Edge 209, Type (0, 0), BuildingBlock: OJICUG_clean_linker_0, # of connection points: 2
#     Edge 210, Type (0, 0), BuildingBlock: OJICUG_clean_linker_0, # of connection points: 2
#     Edge 211, Type (0, 0), BuildingBlock: OJICUG_clean_linker_0, # of connection points: 2
#     Edge 212, Type (0, 0), BuildingBlock: OJICUG_clean_linker_0, # of connection points: 2
#     Edge 213, Type (0, 0), BuildingBlock: OJICUG_clean_linker_0, # of connection points: 2
#     Edge 214, Type (0, 0), BuildingBlock: OJICUG_clean_linker_0, # of connection points: 2
#     Edge 215, Type (0, 0), BuildingBlock: OJICUG_clean_linker_0, # of connection points: 2
#     Edge 216, Type (0, 0), BuildingBlock: OJICUG_clean_linker_0, # of connection points: 2
#     Edge 217, Type (0, 0), BuildingBlock: OJICUG_clean_linker_0, # of connection points: 2
#     Edge 218, Type (0, 0), BuildingBlock: OJICUG_clean_linker_0, # of connection points: 2
#     Edge 219, Type (0, 0), BuildingBlock: OJICUG_clean_linker_0, # of connection points: 2
#     Edge 220, Type (0, 0), BuildingBlock: OJICUG_clean_linker_0, # of connection points: 2
#     Edge 221, Type (0, 0), BuildingBlock: OJICUG_clean_linker_0, # of connection points: 2
#     Edge 222, Type (0, 0), BuildingBlock: OJICUG_clean_linker_0, # of connection points: 2
#     Edge 223, Type (0, 0), BuildingBlock: OJICUG_clean_linker_0, # of connection points: 2
#     Edge 224, Type (0, 0), BuildingBlock: OJICUG_clean_linker_0, # of connection points: 2
#     Edge 225, Type (0, 0), BuildingBlock: OJICUG_clean_linker_0, # of connection points: 2
#     Edge 226, Type (0, 0), BuildingBlock: OJICUG_clean_linker_0, # of connection points: 2
#     Edge 227, Type (0, 0), BuildingBlock: OJICUG_clean_linker_0, # of connection points: 2
#     Edge 228, Type (0, 0), BuildingBlock: OJICUG_clean_linker_0, # of connection points: 2
#     Edge 229, Type (0, 0), BuildingBlock: OJICUG_clean_linker_0, # of connection points: 2
#     Edge 230, Type (0, 0), BuildingBlock: OJICUG_clean_linker_0, # of connection points: 2
#     Edge 231, Type (0, 0), BuildingBlock: OJICUG_clean_linker_0, # of connection points: 2
#     Edge 232, Type (0, 0), BuildingBlock: OJICUG_clean_linker_0, # of connection points: 2
#     Edge 233, Type (0, 0), BuildingBlock: OJICUG_clean_linker_0, # of connection points: 2
#     Edge 234, Type (0, 0), BuildingBlock: OJICUG_clean_linker_0, # of connection points: 2
#     Edge 235, Type (0, 0), BuildingBlock: OJICUG_clean_linker_0, # of connection points: 2
#     Edge 236, Type (0, 0), BuildingBlock: OJICUG_clean_linker_0, # of connection points: 2
#     Edge 237, Type (0, 0), BuildingBlock: OJICUG_clean_linker_0, # of connection points: 2
#     Edge 238, Type (0, 0), BuildingBlock: OJICUG_clean_linker_0, # of connection points: 2
#     Edge 239, Type (0, 0), BuildingBlock: OJICUG_clean_linker_0, # of connection points: 2
#     Edge 240, Type (0, 0), BuildingBlock: OJICUG_clean_linker_0, # of connection points: 2
#     Edge 241, Type (0, 0), BuildingBlock: OJICUG_clean_linker_0, # of connection points: 2
#     Edge 242, Type (0, 0), BuildingBlock: OJICUG_clean_linker_0, # of connection points: 2
#     Edge 243, Type (0, 0), BuildingBlock: OJICUG_clean_linker_0, # of connection points: 2
#     Edge 244, Type (0, 0), BuildingBlock: OJICUG_clean_linker_0, # of connection points: 2
#     Edge 245, Type (0, 0), BuildingBlock: OJICUG_clean_linker_0, # of connection points: 2
#     Edge 246, Type (0, 0), BuildingBlock: OJICUG_clean_linker_0, # of connection points: 2
#     Edge 247, Type (0, 0), BuildingBlock: OJICUG_clean_linker_0, # of connection points: 2
#     Edge 248, Type (0, 0), BuildingBlock: OJICUG_clean_linker_0, # of connection points: 2
#     Edge 249, Type (0, 0), BuildingBlock: OJICUG_clean_linker_0, # of connection points: 2
#     Edge 250, Type (0, 0), BuildingBlock: OJICUG_clean_linker_0, # of connection points: 2
#     Edge 251, Type (0, 0), BuildingBlock: OJICUG_clean_linker_0, # of connection points: 2
#     Edge 252, Type (0, 0), BuildingBlock: OJICUG_clean_linker_0, # of connection points: 2
#     Edge 253, Type (0, 0), BuildingBlock: OJICUG_clean_linker_0, # of connection points: 2
#     Edge 254, Type (0, 0), BuildingBlock: OJICUG_clean_linker_0, # of connection points: 2
#     Edge 255, Type (0, 0), BuildingBlock: OJICUG_clean_linker_0, # of connection points: 2
#     Edge 256, Type (0, 0), BuildingBlock: OJICUG_clean_linker_0, # of connection points: 2
#     Edge 257, Type (0, 0), BuildingBlock: OJICUG_clean_linker_0, # of connection points: 2
#     Edge 258, Type (0, 0), BuildingBlock: OJICUG_clean_linker_0, # of connection points: 2
#     Edge 259, Type (0, 0), BuildingBlock: OJICUG_clean_linker_0, # of connection points: 2
#     Edge 260, Type (0, 0), BuildingBlock: OJICUG_clean_linker_0, # of connection points: 2
#     Edge 261, Type (0, 0), BuildingBlock: OJICUG_clean_linker_0, # of connection points: 2
#     Edge 262, Type (0, 0), BuildingBlock: OJICUG_clean_linker_0, # of connection points: 2
#     Edge 263, Type (0, 0), BuildingBlock: OJICUG_clean_linker_0, # of connection points: 2
#     Edge 264, Type (0, 0), BuildingBlock: OJICUG_clean_linker_0, # of connection points: 2
#     Edge 265, Type (0, 0), BuildingBlock: OJICUG_clean_linker_0, # of connection points: 2
#     Edge 266, Type (0, 0), BuildingBlock: OJICUG_clean_linker_0, # of connection points: 2
#     Edge 267, Type (0, 0), BuildingBlock: OJICUG_clean_linker_0, # of connection points: 2
#     Edge 268, Type (0, 0), BuildingBlock: OJICUG_clean_linker_0, # of connection points: 2
#     Edge 269, Type (0, 0), BuildingBlock: OJICUG_clean_linker_0, # of connection points: 2
#     Edge 270, Type (0, 0), BuildingBlock: OJICUG_clean_linker_0, # of connection points: 2
#     Edge 271, Type (0, 0), BuildingBlock: OJICUG_clean_linker_0, # of connection points: 2
#     Edge 272, Type (0, 0), BuildingBlock: OJICUG_clean_linker_0, # of connection points: 2
#     Edge 273, Type (0, 0), BuildingBlock: OJICUG_clean_linker_0, # of connection points: 2
#     Edge 274, Type (0, 0), BuildingBlock: OJICUG_clean_linker_0, # of connection points: 2
#     Edge 275, Type (0, 0), BuildingBlock: OJICUG_clean_linker_0, # of connection points: 2
#     Edge 276, Type (0, 0), BuildingBlock: OJICUG_clean_linker_0, # of connection points: 2
#     Edge 277, Type (0, 0), BuildingBlock: OJICUG_clean_linker_0, # of connection points: 2
#     Edge 278, Type (0, 0), BuildingBlock: OJICUG_clean_linker_0, # of connection points: 2
#     Edge 279, Type (0, 0), BuildingBlock: OJICUG_clean_linker_0, # of connection points: 2
#     Edge 280, Type (0, 0), BuildingBlock: OJICUG_clean_linker_0, # of connection points: 2
#     Edge 281, Type (0, 0), BuildingBlock: OJICUG_clean_linker_0, # of connection points: 2
#     Edge 282, Type (0, 0), BuildingBlock: OJICUG_clean_linker_0, # of connection points: 2
#     Edge 283, Type (0, 0), BuildingBlock: OJICUG_clean_linker_0, # of connection points: 2
#     Edge 284, Type (0, 0), BuildingBlock: OJICUG_clean_linker_0, # of connection points: 2
#     Edge 285, Type (0, 0), BuildingBlock: OJICUG_clean_linker_0, # of connection points: 2
#     Edge 286, Type (0, 0), BuildingBlock: OJICUG_clean_linker_0, # of connection points: 2
#     Edge 287, Type (0, 0), BuildingBlock: OJICUG_clean_linker_0, # of connection points: 2
# Relax obj value: 0.145
# Max RMSD: 0.099
# Mean RMSD: 0.099
data_MOF--net-kfi--node1-GALJAG_clean_sbu_0--edge1-OJICUG_clean_linker_0
_symmetry_space_group_name_H-M    P1
_symmetry_Int_Tables_number       1
_symmetry_cell_setting            triclinic
loop_
_symmetry_equiv_pos_as_xyz
'x, y, z'
_cell_length_a     65.827281
_cell_length_b     65.825979
_cell_length_c     65.826563
_cell_angle_alpha  89.999557
_cell_angle_beta   90.000835
_cell_angle_gamma 89.999959
loop_
_atom_site_label
_atom_site_type_symbol
_atom_site_fract_x
_atom_site_fract_y
_atom_site_fract_z
_atom_type_partial_charge
In0 In 0.08104 0.19953 0.31865 0.0
O1 O 0.09804 0.17428 0.30221 0.0
O2 O 0.09538 0.17204 0.33427 0.0
C3 C 0.07713 0.22574 0.28736 0.0
C4 C 0.104 0.22295 0.34323 0.0
C5 C 0.04202 0.1885 0.32475 0.0
O6 O 0.08738 0.2096 0.28603 0.0
O7 O 0.0687 0.22849 0.30433 0.0
O8 O 0.05206 0.19855 0.33762 0.0
O9 O 0.05187 0.1835 0.3091 0.0
C10 C 0.10231 0.16446 0.31809 0.0
O11 O 0.0869 0.21615 0.34864 0.0
O12 O 0.10951 0.21772 0.32565 0.0
In13 In 0.79807 0.0812 0.31887 0.0
O14 O 0.78142 0.08718 0.34882 0.0
O15 O 0.78028 0.10991 0.32593 0.0
C16 C 0.80895 0.04213 0.32489 0.0
C17 C 0.83324 0.10229 0.31834 0.0
C18 C 0.7718 0.07741 0.28762 0.0
O19 O 0.79894 0.05217 0.33779 0.0
O20 O 0.81399 0.052 0.30926 0.0
O21 O 0.78809 0.08742 0.28619 0.0
O22 O 0.76893 0.06918 0.30467 0.0
C23 C 0.7749 0.10441 0.34347 0.0
O24 O 0.82332 0.09822 0.30246 0.0
O25 O 0.82571 0.09525 0.33449 0.0
In26 In 0.91678 0.79846 0.3187 0.0
O27 O 0.89973 0.82372 0.30232 0.0
O28 O 0.90248 0.82594 0.33438 0.0
C29 C 0.92069 0.77227 0.28739 0.0
C30 C 0.89378 0.77504 0.34326 0.0
C31 C 0.95579 0.8095 0.32477 0.0
O32 O 0.91041 0.7884 0.28608 0.0
O33 O 0.92914 0.76953 0.30436 0.0
O34 O 0.9458 0.79938 0.33761 0.0
O35 O 0.94591 0.81457 0.30917 0.0
C36 C 0.89551 0.83353 0.31822 0.0
O37 O 0.91088 0.78184 0.34868 0.0
O38 O 0.88829 0.78028 0.32568 0.0
In39 In 0.19993 0.91674 0.31846 0.0
O40 O 0.21652 0.9108 0.34845 0.0
O41 O 0.21776 0.88807 0.32557 0.0
C42 C 0.18905 0.95582 0.32442 0.0
C43 C 0.16476 0.89564 0.31794 0.0
C44 C 0.22627 0.92046 0.28726 0.0
O45 O 0.19903 0.94579 0.33734 0.0
O46 O 0.18404 0.94594 0.30879 0.0
O47 O 0.20998 0.91046 0.28582 0.0
O48 O 0.2291 0.92873 0.3043 0.0
C49 C 0.22309 0.89359 0.34312 0.0
O50 O 0.17468 0.89971 0.30206 0.0
O51 O 0.1723 0.90268 0.33409 0.0
In52 In 0.08149 0.79884 0.67926 0.0
O53 O 0.08734 0.78218 0.64929 0.0
O54 O 0.11002 0.78077 0.67222 0.0
C55 C 0.04247 0.80989 0.67333 0.0
C56 C 0.10273 0.83392 0.67973 0.0
C57 C 0.07754 0.77251 0.71044 0.0
O58 O 0.05247 0.79996 0.66035 0.0
O59 O 0.05234 0.81478 0.689 0.0
O60 O 0.08775 0.78867 0.71187 0.0
O61 O 0.06917 0.76981 0.69342 0.0
C62 C 0.10449 0.77547 0.65467 0.0
O63 O 0.09864 0.82405 0.69563 0.0
O64 O 0.09565 0.82639 0.6636 0.0
In65 In 0.19986 0.08179 0.67876 0.0
O66 O 0.17452 0.09867 0.69518 0.0
O67 O 0.1723 0.09596 0.66312 0.0
C68 C 0.22603 0.07785 0.71008 0.0
C69 C 0.22313 0.10498 0.65424 0.0
C70 C 0.18904 0.04273 0.6726 0.0
O71 O 0.20987 0.08808 0.71142 0.0
O72 O 0.22882 0.06948 0.69308 0.0
O73 O 0.19925 0.05275 0.65986 0.0
O74 O 0.18377 0.05261 0.68815 0.0
C75 C 0.16467 0.10285 0.67929 0.0
O76 O 0.21631 0.08793 0.64873 0.0
O77 O 0.21799 0.11033 0.6719 0.0
In78 In 0.91625 0.19924 0.67868 0.0
O79 O 0.89925 0.17399 0.69511 0.0
O80 O 0.90197 0.17172 0.66306 0.0
C81 C 0.92023 0.22544 0.70997 0.0
C82 C 0.89317 0.22261 0.65416 0.0
C83 C 0.95528 0.18827 0.67259 0.0
O84 O 0.90999 0.20929 0.71133 0.0
O85 O 0.92861 0.2282 0.69297 0.0
O86 O 0.94528 0.19842 0.65977 0.0
O87 O 0.94539 0.18314 0.68817 0.0
C88 C 0.89504 0.16414 0.67923 0.0
O89 O 0.91021 0.21574 0.64866 0.0
O90 O 0.88778 0.21747 0.67179 0.0
In91 In 0.79801 0.91616 0.67874 0.0
O92 O 0.78158 0.91004 0.64869 0.0
O93 O 0.78016 0.88748 0.67173 0.0
C94 C 0.80878 0.95526 0.6727 0.0
C95 C 0.83324 0.89518 0.67944 0.0
C96 C 0.77167 0.91997 0.70994 0.0
O97 O 0.79872 0.94522 0.65985 0.0
O98 O 0.81393 0.94538 0.68829 0.0
O99 O 0.78795 0.90995 0.71139 0.0
O100 O 0.76884 0.92821 0.69288 0.0
C101 C 0.77494 0.89289 0.65412 0.0
O102 O 0.82325 0.89926 0.69527 0.0
O103 O 0.82573 0.90214 0.66324 0.0
In104 In 0.31926 0.08112 0.19928 0.0
O105 O 0.30288 0.09784 0.17385 0.0
O106 O 0.33494 0.09505 0.17161 0.0
C107 C 0.28799 0.07773 0.2256 0.0
C108 C 0.34397 0.10416 0.2225 0.0
C109 C 0.32515 0.04213 0.18811 0.0
O110 O 0.28675 0.08793 0.20943 0.0
O111 O 0.30487 0.0691 0.22834 0.0
O112 O 0.33838 0.05225 0.19758 0.0
O113 O 0.30923 0.05187 0.18378 0.0
C114 C 0.31877 0.10193 0.16396 0.0
O115 O 0.32699 0.11025 0.21606 0.0
O116 O 0.34872 0.0864 0.21702 0.0
In117 In 0.91611 0.31854 0.19922 0.0
O118 O 0.8991 0.30207 0.17401 0.0
O119 O 0.9022 0.33407 0.17147 0.0
C120 C 0.91986 0.28741 0.22565 0.0
C121 C 0.89294 0.34326 0.2223 0.0
C122 C 0.95516 0.32454 0.1883 0.0
O123 O 0.90984 0.28593 0.20937 0.0
O124 O 0.92812 0.30446 0.22842 0.0
O125 O 0.94508 0.33753 0.19813 0.0
O126 O 0.94535 0.30881 0.18346 0.0
C127 C 0.89513 0.3179 0.16399 0.0
O128 O 0.91027 0.34847 0.21595 0.0
O129 O 0.88731 0.32581 0.21679 0.0
In130 In 0.67877 0.91634 0.19952 0.0
O131 O 0.69518 0.89943 0.17422 0.0
O132 O 0.66315 0.90243 0.17182 0.0
C133 C 0.70997 0.92006 0.22587 0.0
C134 C 0.65417 0.89307 0.22262 0.0
C135 C 0.67279 0.9554 0.18861 0.0
O136 O 0.71141 0.91005 0.20958 0.0
O137 O 0.69293 0.92833 0.22869 0.0
O138 O 0.65982 0.94535 0.19851 0.0
O139 O 0.68848 0.94556 0.18372 0.0
C140 C 0.67931 0.89543 0.16426 0.0
O141 O 0.64892 0.91043 0.21637 0.0
O142 O 0.67161 0.88748 0.217 0.0
In143 In 0.08148 0.67895 0.19969 0.0
O144 O 0.09827 0.69532 0.17427 0.0
O145 O 0.09576 0.66323 0.17223 0.0
C146 C 0.07758 0.71041 0.2257 0.0
C147 C 0.1046 0.65448 0.22309 0.0
C148 C 0.04244 0.67269 0.18889 0.0
O149 O 0.08795 0.71159 0.20962 0.0
O150 O 0.06903 0.6935 0.22849 0.0
O151 O 0.05244 0.66006 0.19926 0.0
O152 O 0.05232 0.68818 0.18347 0.0
C153 C 0.10255 0.6794 0.16451 0.0
O154 O 0.08762 0.64891 0.21611 0.0
O155 O 0.10991 0.67217 0.21804 0.0
In156 In 0.31911 0.91633 0.79825 0.0
O157 O 0.30262 0.89931 0.82343 0.0
O158 O 0.33465 0.90217 0.82588 0.0
C159 C 0.2879 0.92033 0.77197 0.0
C160 C 0.34366 0.89316 0.77499 0.0
C161 C 0.32519 0.95534 0.80928 0.0
O162 O 0.28646 0.91017 0.78816 0.0
O163 O 0.30495 0.92861 0.7692 0.0
O164 O 0.33808 0.94532 0.79924 0.0
O165 O 0.30954 0.94548 0.81426 0.0
C166 C 0.31846 0.89518 0.83338 0.0
O167 O 0.34907 0.91032 0.78162 0.0
O168 O 0.32609 0.88769 0.78032 0.0
In169 In 0.08149 0.31872 0.79831 0.0
O170 O 0.08757 0.34882 0.78196 0.0
O171 O 0.10996 0.32565 0.78008 0.0
C172 C 0.04244 0.32483 0.8092 0.0
C173 C 0.10267 0.31808 0.83343 0.0
C174 C 0.0775 0.28744 0.7721 0.0
O175 O 0.05245 0.33761 0.79903 0.0
O176 O 0.05233 0.30927 0.8144 0.0
O177 O 0.08772 0.28607 0.78826 0.0
O178 O 0.06917 0.30446 0.76932 0.0
C179 C 0.1046 0.34333 0.77504 0.0
O180 O 0.09853 0.30224 0.8235 0.0
O181 O 0.09569 0.33427 0.82592 0.0
In182 In 0.67892 0.08129 0.79867 0.0
O183 O 0.64912 0.08703 0.78168 0.0
O184 O 0.67166 0.11012 0.78116 0.0
C185 C 0.67297 0.04225 0.80964 0.0
C186 C 0.67941 0.10228 0.8339 0.0
C187 C 0.71009 0.07754 0.7723 0.0
O188 O 0.65991 0.05234 0.7999 0.0
O189 O 0.68873 0.05206 0.81437 0.0
O190 O 0.71153 0.08764 0.78853 0.0
O191 O 0.69307 0.0692 0.76955 0.0
C192 C 0.65429 0.10442 0.77545 0.0
O193 O 0.6953 0.09826 0.82397 0.0
O194 O 0.66327 0.09525 0.82633 0.0
In195 In 0.91621 0.67882 0.7984 0.0
O196 O 0.91009 0.64877 0.782 0.0
O197 O 0.88766 0.67192 0.78028 0.0
C198 C 0.95527 0.67263 0.80917 0.0
C199 C 0.89513 0.67941 0.83358 0.0
C200 C 0.92013 0.71015 0.77224 0.0
O201 O 0.94523 0.6599 0.79896 0.0
O202 O 0.94541 0.68817 0.81448 0.0
O203 O 0.90995 0.71149 0.78843 0.0
O204 O 0.92845 0.69314 0.76941 0.0
C205 C 0.89303 0.65426 0.77517 0.0
O206 O 0.89928 0.69527 0.82368 0.0
O207 O 0.90206 0.66323 0.82601 0.0
In208 In 0.19954 0.31842 0.08146 0.0
O209 O 0.21628 0.34834 0.0873 0.0
O210 O 0.21721 0.32561 0.1102 0.0
C211 C 0.18863 0.32433 0.04238 0.0
C212 C 0.16434 0.31794 0.10249 0.0
C213 C 0.22593 0.28725 0.07774 0.0
O214 O 0.1985 0.33733 0.05243 0.0
O215 O 0.18376 0.30864 0.05224 0.0
O216 O 0.20964 0.28578 0.08774 0.0
O217 O 0.22873 0.3043 0.06947 0.0
C218 C 0.22269 0.34308 0.1046 0.0
O219 O 0.17427 0.30205 0.0985 0.0
O220 O 0.17188 0.33407 0.09541 0.0
In221 In 0.1991 0.67891 0.91633 0.0
O222 O 0.21585 0.64899 0.91046 0.0
O223 O 0.21692 0.67181 0.88766 0.0
C224 C 0.18813 0.67294 0.95538 0.0
C225 C 0.16396 0.6794 0.89519 0.0
C226 C 0.22542 0.71012 0.92013 0.0
O227 O 0.19804 0.65997 0.94534 0.0
O228 O 0.18324 0.68862 0.94552 0.0
O229 O 0.20918 0.71155 0.91004 0.0
O230 O 0.22821 0.69309 0.92844 0.0
C231 C 0.22236 0.65431 0.89322 0.0
O232 O 0.17383 0.69529 0.89932 0.0
O233 O 0.17153 0.66325 0.9022 0.0
In234 In 0.31919 0.19917 0.91651 0.0
O235 O 0.30278 0.17384 0.89965 0.0
O236 O 0.33483 0.17156 0.90243 0.0
C237 C 0.28793 0.22543 0.9203 0.0
C238 C 0.34374 0.22238 0.8933 0.0
C239 C 0.32528 0.18835 0.95558 0.0
O240 O 0.28655 0.20919 0.91022 0.0
O241 O 0.30496 0.22827 0.9286 0.0
O242 O 0.33816 0.19835 0.94551 0.0
O243 O 0.30964 0.18329 0.94574 0.0
C244 C 0.31866 0.16396 0.89551 0.0
O245 O 0.34911 0.21588 0.91053 0.0
O246 O 0.32622 0.21695 0.88779 0.0
In247 In 0.7983 0.31861 0.91607 0.0
O248 O 0.78157 0.34855 0.91026 0.0
O249 O 0.78058 0.32583 0.88736 0.0
C250 C 0.80929 0.32446 0.95512 0.0
C251 C 0.83346 0.318 0.89497 0.0
C252 C 0.77185 0.28752 0.91988 0.0
O253 O 0.79954 0.33755 0.94508 0.0
O254 O 0.81402 0.30873 0.94527 0.0
O255 O 0.78811 0.286 0.90985 0.0
O256 O 0.76909 0.30458 0.92812 0.0
C257 C 0.77512 0.3433 0.89298 0.0
O258 O 0.82346 0.30216 0.89896 0.0
O259 O 0.826 0.33416 0.90207 0.0
In260 In 0.67857 0.79836 0.91638 0.0
O261 O 0.64874 0.78139 0.91068 0.0
O262 O 0.67117 0.78106 0.88747 0.0
C263 C 0.67275 0.80938 0.95543 0.0
C264 C 0.67922 0.83359 0.89541 0.0
C265 C 0.70968 0.7719 0.92001 0.0
O266 O 0.65961 0.79971 0.94538 0.0
O267 O 0.68852 0.814 0.9456 0.0
O268 O 0.71117 0.78822 0.91007 0.0
O269 O 0.69262 0.76909 0.92827 0.0
C270 C 0.65383 0.77529 0.89322 0.0
O271 O 0.69504 0.82354 0.89936 0.0
O272 O 0.66305 0.82615 0.90251 0.0
In273 In 0.79842 0.67928 0.08147 0.0
O274 O 0.82369 0.69568 0.09848 0.0
O275 O 0.8261 0.66366 0.09541 0.0
C276 C 0.77198 0.7104 0.07777 0.0
C277 C 0.77533 0.6546 0.10465 0.0
C278 C 0.80924 0.67334 0.04238 0.0
O279 O 0.78829 0.71191 0.08773 0.0
O280 O 0.76918 0.69333 0.06954 0.0
O281 O 0.79945 0.66033 0.05247 0.0
O282 O 0.81411 0.68906 0.0522 0.0
C283 C 0.83364 0.6798 0.10248 0.0
O284 O 0.78172 0.64935 0.08734 0.0
O285 O 0.7808 0.67208 0.11025 0.0
In286 In 0.31894 0.79804 0.08123 0.0
O287 O 0.3026 0.82333 0.09822 0.0
O288 O 0.33462 0.82571 0.09513 0.0
C289 C 0.28769 0.77175 0.07751 0.0
C290 C 0.34355 0.77489 0.10444 0.0
C291 C 0.32488 0.80896 0.04217 0.0
O292 O 0.28629 0.78804 0.08753 0.0
O293 O 0.30473 0.7689 0.06923 0.0
O294 O 0.33784 0.79902 0.0522 0.0
O295 O 0.30923 0.8139 0.05205 0.0
C296 C 0.31848 0.83327 0.10219 0.0
O297 O 0.3488 0.78119 0.0871 0.0
O298 O 0.32611 0.78048 0.11005 0.0
In299 In 0.67825 0.19971 0.08161 0.0
O300 O 0.64831 0.2164 0.08754 0.0
O301 O 0.6711 0.21736 0.11038 0.0
C302 C 0.67232 0.18881 0.04254 0.0
C303 C 0.67893 0.16448 0.10258 0.0
C304 C 0.70944 0.22606 0.07784 0.0
O305 O 0.65935 0.19873 0.05256 0.0
O306 O 0.68797 0.18388 0.05241 0.0
O307 O 0.71089 0.20977 0.08784 0.0
O308 O 0.69238 0.2289 0.0696 0.0
C309 C 0.65361 0.22282 0.10482 0.0
O310 O 0.69475 0.1745 0.09857 0.0
O311 O 0.66274 0.17196 0.09557 0.0
In312 In 0.91645 0.79863 0.67933 0.0
O313 O 0.89931 0.82384 0.69567 0.0
O314 O 0.90232 0.82619 0.66365 0.0
C315 C 0.92028 0.7723 0.71052 0.0
C316 C 0.89348 0.77529 0.65467 0.0
C317 C 0.95546 0.80975 0.6734 0.0
O318 O 0.91012 0.78849 0.71194 0.0
O319 O 0.92865 0.76956 0.69352 0.0
O320 O 0.94544 0.79989 0.66038 0.0
O321 O 0.9456 0.81452 0.68912 0.0
C322 C 0.89523 0.83373 0.67978 0.0
O323 O 0.91076 0.78176 0.64944 0.0
O324 O 0.8878 0.7808 0.67211 0.0
In325 In 0.19975 0.91664 0.67877 0.0
O326 O 0.21615 0.91051 0.64871 0.0
O327 O 0.21788 0.8881 0.67187 0.0
C328 C 0.18895 0.95571 0.6726 0.0
C329 C 0.16459 0.89553 0.67943 0.0
C330 C 0.22598 0.92055 0.71004 0.0
O331 O 0.1991 0.94566 0.65983 0.0
O332 O 0.18373 0.94586 0.68818 0.0
O333 O 0.20977 0.91041 0.71142 0.0
O334 O 0.22879 0.92887 0.69301 0.0
C335 C 0.22299 0.89346 0.65421 0.0
O336 O 0.1745 0.89973 0.69527 0.0
O337 O 0.17214 0.90245 0.66323 0.0
In338 In 0.0813 0.19929 0.67891 0.0
O339 O 0.09833 0.17402 0.69528 0.0
O340 O 0.09564 0.17185 0.66322 0.0
C341 C 0.07734 0.22547 0.71022 0.0
C342 C 0.10434 0.22272 0.6544 0.0
C343 C 0.04229 0.1883 0.67273 0.0
O344 O 0.08755 0.2093 0.71157 0.0
O345 O 0.06897 0.22825 0.69322 0.0
O346 O 0.05232 0.19842 0.65993 0.0
O347 O 0.05213 0.18319 0.68835 0.0
C348 C 0.10259 0.16424 0.67938 0.0
O349 O 0.08726 0.21591 0.64894 0.0
O350 O 0.10979 0.21749 0.672 0.0
In351 In 0.79808 0.08137 0.67891 0.0
O352 O 0.78154 0.08744 0.64893 0.0
O353 O 0.78007 0.10998 0.67198 0.0
C354 C 0.80885 0.04229 0.67278 0.0
C355 C 0.83326 0.10245 0.67937 0.0
C356 C 0.77188 0.07754 0.71022 0.0
O357 O 0.79873 0.05235 0.65999 0.0
O358 O 0.81406 0.05215 0.68836 0.0
O359 O 0.78811 0.08766 0.71158 0.0
O360 O 0.76904 0.06922 0.69321 0.0
C361 C 0.77483 0.10456 0.65438 0.0
O362 O 0.82343 0.0983 0.69527 0.0
O363 O 0.82563 0.0955 0.66322 0.0
In364 In 0.91595 0.1993 0.31894 0.0
O365 O 0.89894 0.17405 0.30252 0.0
O366 O 0.90186 0.17167 0.33455 0.0
C367 C 0.91977 0.22559 0.2877 0.0
C368 C 0.89286 0.22255 0.34356 0.0
C369 C 0.95501 0.18839 0.32491 0.0
O370 O 0.90967 0.20936 0.2863 0.0
O371 O 0.92808 0.22839 0.30473 0.0
O372 O 0.94499 0.19838 0.33783 0.0
O373 O 0.94513 0.18338 0.30928 0.0
C374 C 0.89485 0.16413 0.31838 0.0
O375 O 0.91003 0.2159 0.34892 0.0
O376 O 0.88734 0.21724 0.326 0.0
In377 In 0.7983 0.91602 0.31893 0.0
O378 O 0.82357 0.89907 0.30247 0.0
O379 O 0.82598 0.90199 0.3345 0.0
C380 C 0.77194 0.91987 0.28776 0.0
C381 C 0.77516 0.89278 0.34352 0.0
C382 C 0.80912 0.9551 0.32495 0.0
O383 O 0.7882 0.90982 0.28629 0.0
O384 O 0.76915 0.92811 0.30483 0.0
O385 O 0.79914 0.94504 0.33786 0.0
O386 O 0.81416 0.94525 0.30932 0.0
C387 C 0.83352 0.895 0.31833 0.0
O388 O 0.78177 0.90995 0.34893 0.0
O389 O 0.78045 0.88734 0.32594 0.0
In390 In 0.08183 0.79878 0.31866 0.0
O391 O 0.08781 0.78234 0.34872 0.0
O392 O 0.11025 0.78047 0.3256 0.0
C393 C 0.0428 0.80973 0.32478 0.0
C394 C 0.10304 0.83389 0.31806 0.0
C395 C 0.0778 0.77255 0.28741 0.0
O396 O 0.05283 0.79963 0.3376 0.0
O397 O 0.05266 0.81485 0.30918 0.0
O398 O 0.08819 0.78861 0.28607 0.0
O399 O 0.06932 0.7699 0.30437 0.0
C400 C 0.10483 0.77539 0.34325 0.0
O401 O 0.09881 0.82403 0.3022 0.0
O402 O 0.09612 0.82632 0.33425 0.0
In403 In 0.19951 0.08197 0.31853 0.0
O404 O 0.17416 0.09885 0.3021 0.0
O405 O 0.1719 0.09603 0.33414 0.0
C406 C 0.22589 0.07815 0.28737 0.0
C407 C 0.22266 0.10514 0.34317 0.0
C408 C 0.18877 0.04286 0.32449 0.0
O409 O 0.20975 0.08841 0.28597 0.0
O410 O 0.22854 0.06969 0.30435 0.0
O411 O 0.1988 0.0529 0.33737 0.0
O412 O 0.18363 0.05275 0.30891 0.0
C413 C 0.16428 0.10297 0.31798 0.0
O414 O 0.21586 0.08805 0.34862 0.0
O415 O 0.21757 0.11052 0.32551 0.0
In416 In 0.67874 0.9162 0.79842 0.0
O417 O 0.69517 0.89915 0.82362 0.0
O418 O 0.66317 0.90235 0.82618 0.0
C419 C 0.70985 0.91997 0.77198 0.0
C420 C 0.6541 0.89298 0.77532 0.0
C421 C 0.67288 0.95524 0.80945 0.0
O422 O 0.71136 0.90998 0.78827 0.0
O423 O 0.69278 0.9282 0.76919 0.0
O424 O 0.6598 0.94521 0.79968 0.0
O425 O 0.68862 0.94539 0.81415 0.0
C426 C 0.67933 0.89524 0.83365 0.0
O427 O 0.64891 0.91039 0.7815 0.0
O428 O 0.67149 0.88732 0.78101 0.0
In429 In 0.08133 0.67885 0.79812 0.0
O430 O 0.0982 0.69523 0.82348 0.0
O431 O 0.09555 0.66316 0.82563 0.0
C432 C 0.07745 0.71026 0.77205 0.0
C433 C 0.10446 0.65433 0.77478 0.0
C434 C 0.04229 0.67266 0.80896 0.0
O435 O 0.08771 0.71151 0.7882 0.0
O436 O 0.06902 0.6933 0.76922 0.0
O437 O 0.05229 0.65995 0.79869 0.0
O438 O 0.05217 0.68819 0.81426 0.0
C439 C 0.10241 0.67933 0.83329 0.0
O440 O 0.0874 0.64884 0.78161 0.0
O441 O 0.10985 0.67197 0.77994 0.0
In442 In 0.31905 0.08138 0.79846 0.0
O443 O 0.34888 0.08724 0.78156 0.0
O444 O 0.32616 0.11016 0.78079 0.0
C445 C 0.32512 0.04234 0.80937 0.0
C446 C 0.31857 0.10234 0.8337 0.0
C447 C 0.28781 0.07761 0.77216 0.0
O448 O 0.33805 0.05242 0.79946 0.0
O449 O 0.30941 0.05215 0.81429 0.0
O450 O 0.28644 0.08779 0.78835 0.0
O451 O 0.30479 0.06919 0.76942 0.0
C452 C 0.34359 0.10455 0.7752 0.0
O453 O 0.30267 0.09821 0.82385 0.0
O454 O 0.33473 0.09544 0.82605 0.0
In455 In 0.91639 0.31861 0.79816 0.0
O456 O 0.89938 0.30216 0.82338 0.0
O457 O 0.90224 0.3342 0.82576 0.0
C458 C 0.9203 0.28735 0.77192 0.0
C459 C 0.89326 0.34322 0.77491 0.0
C460 C 0.95543 0.32473 0.80908 0.0
O461 O 0.91013 0.28597 0.78811 0.0
O462 O 0.92864 0.30436 0.76913 0.0
O463 O 0.9454 0.33755 0.79896 0.0
O464 O 0.94557 0.30913 0.8142 0.0
C465 C 0.89525 0.31802 0.8333 0.0
O466 O 0.91039 0.34863 0.78164 0.0
O467 O 0.88781 0.32562 0.78012 0.0
In468 In 0.67878 0.08148 0.19926 0.0
O469 O 0.6489 0.08744 0.21603 0.0
O470 O 0.67173 0.11025 0.21695 0.0
C471 C 0.67275 0.04242 0.18837 0.0
C472 C 0.67925 0.10255 0.16408 0.0
C473 C 0.70996 0.07758 0.22559 0.0
O474 O 0.6598 0.05249 0.19828 0.0
O475 O 0.68842 0.05226 0.18341 0.0
O476 O 0.71146 0.08758 0.20931 0.0
O477 O 0.69286 0.06941 0.22842 0.0
C478 C 0.65424 0.10471 0.22245 0.0
O479 O 0.69513 0.09855 0.17402 0.0
O480 O 0.66312 0.09544 0.17161 0.0
In481 In 0.91637 0.67889 0.19946 0.0
O482 O 0.8995 0.69539 0.17417 0.0
O483 O 0.90216 0.66333 0.17186 0.0
C484 C 0.92041 0.71023 0.22559 0.0
C485 C 0.8932 0.65434 0.22273 0.0
C486 C 0.95542 0.67262 0.18868 0.0
O487 O 0.9101 0.71154 0.20948 0.0
O488 O 0.9288 0.69324 0.22835 0.0
O489 O 0.94539 0.65996 0.19897 0.0
O490 O 0.94556 0.68814 0.18329 0.0
C491 C 0.89529 0.67954 0.16428 0.0
O492 O 0.91019 0.6488 0.21577 0.0
O493 O 0.8879 0.67205 0.21772 0.0
In494 In 0.31938 0.91613 0.19899 0.0
O495 O 0.3029 0.89908 0.17385 0.0
O496 O 0.33491 0.90211 0.17129 0.0
C497 C 0.28825 0.92004 0.22538 0.0
C498 C 0.34397 0.89296 0.22221 0.0
C499 C 0.32531 0.95514 0.1879 0.0
O500 O 0.28675 0.90998 0.20913 0.0
O501 O 0.30532 0.92826 0.22816 0.0
O502 O 0.33839 0.94509 0.19766 0.0
O503 O 0.30956 0.9453 0.18322 0.0
C504 C 0.31872 0.89505 0.16383 0.0
O505 O 0.34923 0.9103 0.21589 0.0
O506 O 0.32655 0.88733 0.21659 0.0
In507 In 0.08122 0.31889 0.19916 0.0
O508 O 0.08718 0.34898 0.21558 0.0
O509 O 0.10967 0.3259 0.21739 0.0
C510 C 0.04218 0.32483 0.18817 0.0
C511 C 0.10246 0.31822 0.16407 0.0
C512 C 0.07728 0.28766 0.22543 0.0
O513 O 0.05216 0.33775 0.1982 0.0
O514 O 0.05209 0.30923 0.18315 0.0
O515 O 0.08753 0.28629 0.20929 0.0
O516 O 0.06889 0.30466 0.22816 0.0
C517 C 0.10423 0.34354 0.22248 0.0
O518 O 0.09831 0.30239 0.17402 0.0
O519 O 0.09545 0.33442 0.17155 0.0
In520 In 0.79814 0.67893 0.91626 0.0
O521 O 0.82335 0.69536 0.89919 0.0
O522 O 0.82586 0.66335 0.90235 0.0
C523 C 0.77167 0.71002 0.91996 0.0
C524 C 0.77507 0.65423 0.89308 0.0
C525 C 0.80907 0.67315 0.95534 0.0
O526 O 0.78799 0.71155 0.91 0.0
O527 O 0.76889 0.69295 0.92819 0.0
O528 O 0.79924 0.66009 0.94534 0.0
O529 O 0.8139 0.68882 0.94544 0.0
C530 C 0.83335 0.6795 0.89524 0.0
O531 O 0.78147 0.64897 0.91038 0.0
O532 O 0.78052 0.67172 0.8875 0.0
In533 In 0.79826 0.3187 0.08122 0.0
O534 O 0.7814 0.34859 0.08693 0.0
O535 O 0.78091 0.32612 0.1101 0.0
C536 C 0.80925 0.32447 0.04215 0.0
C537 C 0.83348 0.31798 0.10221 0.0
C538 C 0.77167 0.2877 0.07759 0.0
O539 O 0.79964 0.33764 0.05222 0.0
O540 O 0.81383 0.30869 0.05198 0.0
O541 O 0.788 0.28613 0.08751 0.0
O542 O 0.76893 0.30476 0.06934 0.0
C543 C 0.77523 0.34349 0.10436 0.0
O544 O 0.82339 0.30218 0.09828 0.0
O545 O 0.82607 0.33416 0.09509 0.0
In546 In 0.67871 0.79856 0.08151 0.0
O547 O 0.69513 0.82381 0.09848 0.0
O548 O 0.66311 0.82626 0.09545 0.0
C549 C 0.70989 0.77219 0.07783 0.0
C550 C 0.65403 0.77538 0.10463 0.0
C551 C 0.67281 0.80951 0.04245 0.0
O552 O 0.71133 0.78847 0.08784 0.0
O553 O 0.69286 0.76937 0.06954 0.0
O554 O 0.65972 0.79981 0.05253 0.0
O555 O 0.68857 0.81421 0.05226 0.0
C556 C 0.67928 0.83379 0.10249 0.0
O557 O 0.64889 0.78159 0.08722 0.0
O558 O 0.6714 0.78109 0.11035 0.0
In559 In 0.19919 0.67886 0.08143 0.0
O560 O 0.17397 0.69528 0.09847 0.0
O561 O 0.1716 0.66324 0.09555 0.0
C562 C 0.22559 0.70999 0.07759 0.0
C563 C 0.22241 0.65424 0.10455 0.0
C564 C 0.18816 0.67291 0.04239 0.0
O565 O 0.20934 0.71148 0.08765 0.0
O566 O 0.22835 0.69293 0.06932 0.0
O567 O 0.19803 0.6599 0.05243 0.0
O568 O 0.18334 0.68861 0.05225 0.0
C569 C 0.16407 0.6794 0.10258 0.0
O570 O 0.21597 0.64895 0.08728 0.0
O571 O 0.21693 0.67171 0.11014 0.0
In572 In 0.31922 0.19914 0.08168 0.0
O573 O 0.34912 0.21584 0.08779 0.0
O574 O 0.32625 0.21668 0.11056 0.0
C575 C 0.32528 0.18839 0.0426 0.0
C576 C 0.31871 0.1638 0.10246 0.0
C577 C 0.288 0.22545 0.07791 0.0
O578 O 0.33816 0.19839 0.05266 0.0
O579 O 0.30965 0.18332 0.05244 0.0
O580 O 0.28656 0.20917 0.08793 0.0
O581 O 0.30505 0.22829 0.06967 0.0
C582 C 0.34376 0.22218 0.10508 0.0
O583 O 0.30283 0.17375 0.09848 0.0
O584 O 0.33487 0.17142 0.09551 0.0
In585 In 0.19955 0.31844 0.9163 0.0
O586 O 0.17435 0.30204 0.89919 0.0
O587 O 0.1719 0.33405 0.90227 0.0
C588 C 0.22591 0.28727 0.92015 0.0
C589 C 0.22276 0.34309 0.8932 0.0
C590 C 0.18859 0.32437 0.95535 0.0
O591 O 0.20966 0.2858 0.91008 0.0
O592 O 0.22869 0.30433 0.92841 0.0
O593 O 0.19849 0.33735 0.94532 0.0
O594 O 0.18369 0.3087 0.94549 0.0
C595 C 0.1644 0.3179 0.89517 0.0
O596 O 0.21622 0.3484 0.91044 0.0
O597 O 0.21737 0.32558 0.88763 0.0
In598 In 0.67858 0.19936 0.91641 0.0
O599 O 0.69506 0.17403 0.8996 0.0
O600 O 0.66302 0.17164 0.90245 0.0
C601 C 0.70979 0.2257 0.92008 0.0
C602 C 0.65397 0.22245 0.89314 0.0
C603 C 0.67252 0.18862 0.95551 0.0
O604 O 0.71121 0.2094 0.9101 0.0
O605 O 0.69276 0.22854 0.92837 0.0
O606 O 0.65958 0.19848 0.94539 0.0
O607 O 0.68821 0.18366 0.94571 0.0
C608 C 0.67921 0.16407 0.89553 0.0
O609 O 0.64867 0.21607 0.91044 0.0
O610 O 0.67145 0.21695 0.88759 0.0
In611 In 0.31868 0.79823 0.91611 0.0
O612 O 0.30232 0.82352 0.89911 0.0
O613 O 0.33435 0.82584 0.90209 0.0
C614 C 0.28743 0.77197 0.91999 0.0
C615 C 0.34324 0.77498 0.89296 0.0
C616 C 0.32476 0.80911 0.95516 0.0
O617 O 0.28601 0.78821 0.9099 0.0
O618 O 0.30447 0.76915 0.92826 0.0
O619 O 0.33766 0.79915 0.94509 0.0
O620 O 0.3091 0.81411 0.94534 0.0
C621 C 0.31822 0.83341 0.89506 0.0
O622 O 0.34858 0.78149 0.91019 0.0
O623 O 0.32573 0.78041 0.88742 0.0
In624 In 0.58118 0.6993 0.81902 0.0
O625 O 0.59811 0.67398 0.80261 0.0
O626 O 0.59561 0.67189 0.83469 0.0
C627 C 0.57722 0.72537 0.78762 0.0
C628 C 0.60419 0.72278 0.84351 0.0
C629 C 0.54215 0.68838 0.82515 0.0
O630 O 0.58761 0.70931 0.7864 0.0
O631 O 0.56869 0.72811 0.80455 0.0
O632 O 0.55211 0.69868 0.83787 0.0
O633 O 0.55207 0.68307 0.80965 0.0
C634 C 0.60245 0.66423 0.81851 0.0
O635 O 0.58729 0.71566 0.84911 0.0
O636 O 0.60949 0.71783 0.82579 0.0
In637 In 0.29796 0.5814 0.81889 0.0
O638 O 0.28141 0.58741 0.84889 0.0
O639 O 0.27998 0.61 0.82588 0.0
C640 C 0.30883 0.54233 0.82497 0.0
C641 C 0.33314 0.60247 0.81834 0.0
C642 C 0.27173 0.57757 0.7876 0.0
O643 O 0.29873 0.55236 0.8378 0.0
O644 O 0.31396 0.5522 0.80938 0.0
O645 O 0.28795 0.58771 0.78624 0.0
O646 O 0.26892 0.56923 0.80461 0.0
C647 C 0.27472 0.60455 0.84347 0.0
O648 O 0.32327 0.59832 0.80246 0.0
O649 O 0.32554 0.59555 0.83451 0.0
In650 In 0.41629 0.29828 0.81891 0.0
O651 O 0.39929 0.32354 0.80251 0.0
O652 O 0.40208 0.32581 0.83456 0.0
C653 C 0.42022 0.27206 0.78763 0.0
C654 C 0.39326 0.27491 0.84349 0.0
C655 C 0.45532 0.30926 0.82497 0.0
O656 O 0.40996 0.2882 0.78629 0.0
O657 O 0.42863 0.26932 0.80462 0.0
O658 O 0.44531 0.29918 0.83783 0.0
O659 O 0.44544 0.31432 0.80936 0.0
C660 C 0.39512 0.3334 0.8184 0.0
O661 O 0.41038 0.28167 0.8489 0.0
O662 O 0.38776 0.28017 0.82592 0.0
In663 In 0.6994 0.41627 0.81882 0.0
O664 O 0.71596 0.41023 0.84882 0.0
O665 O 0.71743 0.38769 0.82576 0.0
C666 C 0.68848 0.45532 0.82488 0.0
C667 C 0.66428 0.39511 0.81826 0.0
C668 C 0.72569 0.4202 0.7876 0.0
O669 O 0.69853 0.44529 0.83775 0.0
O670 O 0.68341 0.44545 0.80926 0.0
O671 O 0.70946 0.4101 0.78616 0.0
O672 O 0.72849 0.42846 0.80466 0.0
C673 C 0.72268 0.39311 0.84336 0.0
O674 O 0.67418 0.39924 0.80239 0.0
O675 O 0.67182 0.40211 0.83443 0.0
In676 In 0.58106 0.29875 0.17918 0.0
O677 O 0.59816 0.32404 0.19546 0.0
O678 O 0.5953 0.32621 0.16341 0.0
C679 C 0.57719 0.27254 0.21047 0.0
C680 C 0.60404 0.27532 0.15462 0.0
C681 C 0.54202 0.30971 0.17322 0.0
O682 O 0.5874 0.2887 0.21182 0.0
O683 O 0.56878 0.26978 0.19348 0.0
O684 O 0.55201 0.29965 0.16033 0.0
O685 O 0.55192 0.31478 0.18881 0.0
C686 C 0.60233 0.33383 0.17953 0.0
O687 O 0.58695 0.28213 0.1492 0.0
O688 O 0.60953 0.28056 0.17221 0.0
In689 In 0.69974 0.58156 0.17886 0.0
O690 O 0.7163 0.58765 0.14889 0.0
O691 O 0.71786 0.61012 0.17201 0.0
C692 C 0.6889 0.54252 0.1726 0.0
C693 C 0.66456 0.60264 0.17926 0.0
C694 C 0.72587 0.57765 0.21022 0.0
O695 O 0.69914 0.55257 0.1599 0.0
O696 O 0.68362 0.55237 0.18816 0.0
O697 O 0.70972 0.58791 0.21152 0.0
O698 O 0.72865 0.56923 0.19325 0.0
C699 C 0.72307 0.60473 0.15438 0.0
O700 O 0.6743 0.59839 0.19519 0.0
O701 O 0.67229 0.59581 0.16311 0.0
In702 In 0.4163 0.69919 0.17883 0.0
O703 O 0.39937 0.67387 0.19524 0.0
O704 O 0.40196 0.67172 0.16317 0.0
C705 C 0.42031 0.72533 0.21017 0.0
C706 C 0.39323 0.72256 0.1543 0.0
C707 C 0.45533 0.68828 0.17259 0.0
O708 O 0.40999 0.70923 0.21148 0.0
O709 O 0.42874 0.72807 0.1932 0.0
O710 O 0.4453 0.69852 0.15988 0.0
O711 O 0.44547 0.68301 0.18815 0.0
C712 C 0.39508 0.66409 0.17935 0.0
O713 O 0.41024 0.71563 0.14879 0.0
O714 O 0.38786 0.71749 0.17197 0.0
In715 In 0.29799 0.41618 0.17905 0.0
O716 O 0.32313 0.39915 0.19561 0.0
O717 O 0.32564 0.402 0.16359 0.0
C718 C 0.2716 0.42012 0.21018 0.0
C719 C 0.27486 0.39296 0.15442 0.0
C720 C 0.30885 0.45525 0.17295 0.0
O721 O 0.28787 0.41009 0.2117 0.0
O722 O 0.26882 0.42831 0.19309 0.0
O723 O 0.29879 0.4452 0.16011 0.0
O724 O 0.31396 0.44539 0.18856 0.0
C725 C 0.3331 0.39499 0.17979 0.0
O726 O 0.28164 0.41006 0.14896 0.0
O727 O 0.27997 0.3876 0.17208 0.0
In728 In 0.81886 0.58139 0.69938 0.0
O729 O 0.80261 0.59837 0.674 0.0
O730 O 0.83466 0.59549 0.67187 0.0
C731 C 0.78755 0.57753 0.72557 0.0
C732 C 0.84336 0.6045 0.72273 0.0
C733 C 0.82494 0.54236 0.68843 0.0
O734 O 0.7862 0.5877 0.70937 0.0
O735 O 0.80455 0.56918 0.72837 0.0
O736 O 0.83783 0.55241 0.69843 0.0
O737 O 0.80928 0.5522 0.68344 0.0
C738 C 0.81855 0.60248 0.66421 0.0
O739 O 0.84869 0.58724 0.71628 0.0
O740 O 0.8259 0.61009 0.71719 0.0
In741 In 0.41641 0.81872 0.69933 0.0
O742 O 0.39948 0.80235 0.67399 0.0
O743 O 0.40233 0.83439 0.67173 0.0
C744 C 0.42021 0.78743 0.72555 0.0
C745 C 0.3933 0.84334 0.72258 0.0
C746 C 0.45548 0.82478 0.68847 0.0
O747 O 0.41002 0.7861 0.70937 0.0
O748 O 0.42861 0.80441 0.72834 0.0
O749 O 0.44545 0.83762 0.69855 0.0
O750 O 0.44561 0.80918 0.68336 0.0
C751 C 0.39537 0.81824 0.66412 0.0
O752 O 0.41048 0.8487 0.71595 0.0
O753 O 0.38779 0.82579 0.71726 0.0
In754 In 0.17881 0.41639 0.69946 0.0
O755 O 0.14899 0.41057 0.7164 0.0
O756 O 0.17165 0.38759 0.71706 0.0
C757 C 0.17285 0.45542 0.68844 0.0
C758 C 0.17926 0.39537 0.66426 0.0
C759 C 0.21003 0.42018 0.72577 0.0
O760 O 0.15986 0.44539 0.69833 0.0
O761 O 0.18856 0.44557 0.68362 0.0
O762 O 0.21145 0.41009 0.70953 0.0
O763 O 0.19301 0.42849 0.72857 0.0
C764 C 0.15424 0.39322 0.72269 0.0
O765 O 0.19515 0.3994 0.67416 0.0
O766 O 0.16312 0.4024 0.67185 0.0
In767 In 0.58148 0.17862 0.69961 0.0
O768 O 0.58766 0.14852 0.71592 0.0
O769 O 0.60989 0.17182 0.71798 0.0
C770 C 0.54243 0.17244 0.68875 0.0
C771 C 0.60263 0.17923 0.66448 0.0
C772 C 0.57746 0.20997 0.72573 0.0
O773 O 0.55242 0.15975 0.69906 0.0
O774 O 0.55234 0.18794 0.68341 0.0
O775 O 0.58776 0.21127 0.70961 0.0
O776 O 0.56906 0.19298 0.72851 0.0
C777 C 0.60461 0.1541 0.72295 0.0
O778 O 0.59841 0.19509 0.67436 0.0
O779 O 0.59574 0.16304 0.67206 0.0
In780 In 0.81881 0.41629 0.298 0.0
O781 O 0.84879 0.41021 0.28144 0.0
O782 O 0.82565 0.38777 0.27983 0.0
C783 C 0.82497 0.45531 0.30897 0.0
C784 C 0.8183 0.39516 0.33314 0.0
C785 C 0.7875 0.42031 0.27183 0.0
O786 O 0.83776 0.4453 0.2988 0.0
O787 O 0.80938 0.44544 0.31411 0.0
O788 O 0.78617 0.41002 0.28795 0.0
O789 O 0.80449 0.42872 0.26908 0.0
C790 C 0.84328 0.39314 0.27463 0.0
O791 O 0.80241 0.39934 0.3233 0.0
O792 O 0.83446 0.40208 0.32553 0.0
In793 In 0.58155 0.81846 0.29824 0.0
O794 O 0.58759 0.84856 0.28188 0.0
O795 O 0.60997 0.82539 0.27993 0.0
C796 C 0.54252 0.82463 0.30919 0.0
C797 C 0.60276 0.81781 0.33334 0.0
C798 C 0.57752 0.78717 0.27205 0.0
O799 O 0.55254 0.8374 0.299 0.0
O800 O 0.55239 0.80906 0.31438 0.0
O801 O 0.58785 0.78584 0.28814 0.0
O802 O 0.56908 0.80415 0.26934 0.0
C803 C 0.60459 0.84307 0.27491 0.0
O804 O 0.59855 0.80196 0.32345 0.0
O805 O 0.59583 0.83401 0.3258 0.0
In806 In 0.17891 0.5816 0.29872 0.0
O807 O 0.14909 0.58741 0.28181 0.0
O808 O 0.17169 0.61045 0.28121 0.0
C809 C 0.17285 0.54256 0.30964 0.0
C810 C 0.17949 0.60258 0.33395 0.0
C811 C 0.21006 0.57779 0.27232 0.0
O812 O 0.15983 0.5527 0.2999 0.0
O813 O 0.18863 0.55232 0.3144 0.0
O814 O 0.21153 0.58786 0.28856 0.0
O815 O 0.19301 0.56951 0.26957 0.0
C816 C 0.15429 0.60478 0.27556 0.0
O817 O 0.19535 0.59854 0.32401 0.0
O818 O 0.16333 0.59558 0.32641 0.0
In819 In 0.41645 0.17838 0.29866 0.0
O820 O 0.40994 0.14798 0.28301 0.0
O821 O 0.38855 0.17188 0.27944 0.0
C822 C 0.45552 0.17212 0.30941 0.0
C823 C 0.39506 0.17919 0.33366 0.0
C824 C 0.42052 0.20987 0.27273 0.0
O825 O 0.4456 0.15966 0.29877 0.0
O826 O 0.44554 0.18743 0.31515 0.0
O827 O 0.41001 0.211 0.28872 0.0
O828 O 0.42913 0.19298 0.26998 0.0
C829 C 0.39345 0.15386 0.27518 0.0
O830 O 0.39952 0.195 0.32383 0.0
O831 O 0.40184 0.16293 0.32612 0.0
In832 In 0.69949 0.81826 0.58135 0.0
O833 O 0.67432 0.80184 0.59849 0.0
O834 O 0.67187 0.83386 0.59543 0.0
C835 C 0.72593 0.78716 0.5775 0.0
C836 C 0.72272 0.84293 0.60441 0.0
C837 C 0.68848 0.82414 0.5423 0.0
O838 O 0.70969 0.78565 0.58758 0.0
O839 O 0.72866 0.80421 0.56922 0.0
O840 O 0.69832 0.83717 0.55233 0.0
O841 O 0.68366 0.80845 0.55217 0.0
C842 C 0.66438 0.81771 0.60254 0.0
O843 O 0.71617 0.84822 0.58718 0.0
O844 O 0.71733 0.82542 0.61 0.0
In845 In 0.69952 0.179 0.41635 0.0
O846 O 0.71606 0.14898 0.4104 0.0
O847 O 0.7175 0.17195 0.38776 0.0
C848 C 0.68857 0.17302 0.4554 0.0
C849 C 0.66441 0.17956 0.39516 0.0
C850 C 0.7258 0.21024 0.42023 0.0
O851 O 0.6986 0.16012 0.4454 0.0
O852 O 0.68355 0.18863 0.44551 0.0
O853 O 0.70955 0.21167 0.41016 0.0
O854 O 0.72864 0.19318 0.42847 0.0
C855 C 0.72275 0.15436 0.39324 0.0
O856 O 0.67434 0.19542 0.39924 0.0
O857 O 0.67191 0.1634 0.40223 0.0
In858 In 0.81971 0.69933 0.41634 0.0
O859 O 0.80324 0.67396 0.39958 0.0
O860 O 0.8353 0.67171 0.40222 0.0
C861 C 0.78838 0.72553 0.4201 0.0
C862 C 0.84426 0.72251 0.39309 0.0
C863 C 0.82586 0.68858 0.45542 0.0
O864 O 0.78705 0.7093 0.41 0.0
O865 O 0.80538 0.72839 0.42844 0.0
O866 O 0.83867 0.69866 0.44535 0.0
O867 O 0.81026 0.68341 0.44559 0.0
C868 C 0.8191 0.66408 0.39539 0.0
O869 O 0.84964 0.71599 0.4103 0.0
O870 O 0.82672 0.71712 0.38761 0.0
In871 In 0.29838 0.81908 0.41617 0.0
O872 O 0.32356 0.80258 0.39913 0.0
O873 O 0.32605 0.83461 0.40208 0.0
C874 C 0.27199 0.78794 0.42002 0.0
C875 C 0.27525 0.84374 0.393 0.0
C876 C 0.30931 0.82502 0.45523 0.0
O877 O 0.28825 0.78645 0.40998 0.0
O878 O 0.2692 0.80501 0.42825 0.0
O879 O 0.29937 0.83798 0.44521 0.0
O880 O 0.31426 0.80938 0.44535 0.0
C881 C 0.33353 0.81842 0.39505 0.0
O882 O 0.28185 0.8491 0.41019 0.0
O883 O 0.28053 0.82617 0.38751 0.0
In884 In 0.17801 0.29867 0.41633 0.0
O885 O 0.19444 0.32391 0.39935 0.0
O886 O 0.16242 0.32636 0.40232 0.0
C887 C 0.20926 0.27239 0.4201 0.0
C888 C 0.15344 0.27552 0.39308 0.0
C889 C 0.17202 0.30951 0.45541 0.0
O890 O 0.21071 0.28873 0.41017 0.0
O891 O 0.19218 0.26948 0.42826 0.0
O892 O 0.15911 0.29953 0.44538 0.0
O893 O 0.18764 0.31455 0.44554 0.0
C894 C 0.17859 0.33387 0.3953 0.0
O895 O 0.14809 0.28198 0.41033 0.0
O896 O 0.17096 0.28097 0.38758 0.0
In897 In 0.29849 0.17958 0.58139 0.0
O898 O 0.32371 0.19595 0.5985 0.0
O899 O 0.3262 0.16395 0.59526 0.0
C900 C 0.272 0.21065 0.57766 0.0
C901 C 0.27538 0.15488 0.60452 0.0
C902 C 0.30938 0.17377 0.5423 0.0
O903 O 0.2883 0.2122 0.58763 0.0
O904 O 0.26923 0.19357 0.56944 0.0
O905 O 0.29967 0.16068 0.55237 0.0
O906 O 0.31414 0.1895 0.55215 0.0
C907 C 0.33369 0.18007 0.60242 0.0
O908 O 0.28172 0.14967 0.58718 0.0
O909 O 0.28091 0.17232 0.61017 0.0
In910 In 0.81891 0.29844 0.5814 0.0
O911 O 0.8025 0.32366 0.59844 0.0
O912 O 0.83453 0.32608 0.59545 0.0
C913 C 0.7877 0.27212 0.57761 0.0
C914 C 0.84354 0.2752 0.60451 0.0
C915 C 0.82487 0.30948 0.54237 0.0
O916 O 0.78627 0.28838 0.58765 0.0
O917 O 0.80475 0.2693 0.56934 0.0
O918 O 0.83788 0.29961 0.55241 0.0
O919 O 0.80916 0.31428 0.55221 0.0
C920 C 0.81837 0.3336 0.6025 0.0
O921 O 0.84878 0.28157 0.58719 0.0
O922 O 0.82611 0.28078 0.61015 0.0
In923 In 0.17866 0.69985 0.58161 0.0
O924 O 0.14872 0.71653 0.58759 0.0
O925 O 0.17157 0.71757 0.61036 0.0
C926 C 0.17267 0.689 0.54254 0.0
C927 C 0.17924 0.66459 0.60256 0.0
C928 C 0.20989 0.72615 0.57783 0.0
O929 O 0.15974 0.69896 0.55258 0.0
O930 O 0.18831 0.684 0.5524 0.0
O931 O 0.21129 0.7099 0.5879 0.0
O932 O 0.19285 0.72897 0.56953 0.0
C933 C 0.15406 0.723 0.60484 0.0
O934 O 0.1951 0.67456 0.59853 0.0
O935 O 0.16307 0.67214 0.59557 0.0
In936 In 0.41607 0.29812 0.17969 0.0
O937 O 0.41025 0.28142 0.14974 0.0
O938 O 0.38764 0.27982 0.17271 0.0
C939 C 0.45502 0.30931 0.17353 0.0
C940 C 0.39476 0.33317 0.18013 0.0
C941 C 0.42022 0.27197 0.211 0.0
O942 O 0.44502 0.29919 0.16069 0.0
O943 O 0.44517 0.3143 0.18919 0.0
O944 O 0.40975 0.28798 0.21229 0.0
O945 O 0.42873 0.26933 0.19404 0.0
C946 C 0.39317 0.27458 0.15514 0.0
O947 O 0.39894 0.32335 0.19604 0.0
O948 O 0.40176 0.32557 0.16399 0.0
In949 In 0.69948 0.41643 0.17853 0.0
O950 O 0.67415 0.39959 0.195 0.0
O951 O 0.67194 0.40213 0.16293 0.0
C952 C 0.72562 0.42038 0.20987 0.0
C953 C 0.72282 0.39328 0.15402 0.0
C954 C 0.6887 0.4555 0.17236 0.0
O955 O 0.70951 0.41007 0.21115 0.0
O956 O 0.72837 0.42884 0.1929 0.0
O957 O 0.69897 0.44549 0.15965 0.0
O958 O 0.68335 0.4456 0.18786 0.0
C959 C 0.66432 0.39531 0.17914 0.0
O960 O 0.71577 0.41022 0.14842 0.0
O961 O 0.71786 0.38802 0.17175 0.0
In962 In 0.58136 0.69925 0.17866 0.0
O963 O 0.59828 0.67392 0.19505 0.0
O964 O 0.5958 0.67186 0.16296 0.0
C965 C 0.57737 0.72532 0.21006 0.0
C966 C 0.6044 0.72275 0.15421 0.0
C967 C 0.54234 0.68831 0.17247 0.0
O968 O 0.58772 0.70923 0.2113 0.0
O969 O 0.56888 0.72808 0.19311 0.0
O970 O 0.55232 0.6986 0.15976 0.0
O971 O 0.55224 0.68302 0.188 0.0
C972 C 0.60263 0.66419 0.17913 0.0
O973 O 0.58746 0.71571 0.14862 0.0
O974 O 0.60972 0.7177 0.17191 0.0
In975 In 0.29804 0.58138 0.17892 0.0
O976 O 0.28154 0.5874 0.14889 0.0
O977 O 0.27998 0.60994 0.17194 0.0
C978 C 0.30884 0.54229 0.17289 0.0
C979 C 0.33322 0.60247 0.17939 0.0
C980 C 0.27183 0.57763 0.21022 0.0
O981 O 0.29874 0.55231 0.16006 0.0
O982 O 0.31401 0.55218 0.18846 0.0
O983 O 0.28806 0.58775 0.21156 0.0
O984 O 0.269 0.56926 0.19323 0.0
C985 C 0.27478 0.60451 0.15433 0.0
O986 O 0.32339 0.59831 0.19529 0.0
O987 O 0.3256 0.59554 0.16324 0.0
In988 In 0.41611 0.69925 0.81873 0.0
O989 O 0.39917 0.67392 0.80234 0.0
O990 O 0.40189 0.67173 0.83441 0.0
C991 C 0.42007 0.72546 0.78745 0.0
C992 C 0.39295 0.72255 0.84325 0.0
C993 C 0.45513 0.68835 0.82496 0.0
O994 O 0.40987 0.70929 0.78607 0.0
O995 O 0.42842 0.72823 0.80446 0.0
O996 O 0.44508 0.6985 0.83773 0.0
O997 O 0.44531 0.68318 0.80935 0.0
C998 C 0.39497 0.66411 0.81825 0.0
O999 O 0.41007 0.71583 0.8487 0.0
O1000 O 0.38752 0.7173 0.82565 0.0
In1001 In 0.29823 0.41623 0.81896 0.0
O1002 O 0.3235 0.39926 0.80253 0.0
O1003 O 0.32584 0.40213 0.83457 0.0
C1004 C 0.27195 0.4201 0.78772 0.0
C1005 C 0.27503 0.393 0.84351 0.0
C1006 C 0.30903 0.4553 0.82504 0.0
O1007 O 0.28819 0.41002 0.7863 0.0
O1008 O 0.26913 0.42836 0.80477 0.0
O1009 O 0.29895 0.44526 0.83787 0.0
O1010 O 0.31418 0.44544 0.80945 0.0
C1011 C 0.3334 0.39515 0.81841 0.0
O1012 O 0.28172 0.41014 0.84896 0.0
O1013 O 0.28027 0.3876 0.8259 0.0
In1014 In 0.58134 0.29827 0.81877 0.0
O1015 O 0.5873 0.28171 0.84877 0.0
O1016 O 0.60983 0.28009 0.82571 0.0
C1017 C 0.54232 0.30925 0.82489 0.0
C1018 C 0.60254 0.33337 0.81824 0.0
C1019 C 0.57737 0.27205 0.7875 0.0
O1020 O 0.55235 0.29916 0.83772 0.0
O1021 O 0.55217 0.31433 0.80927 0.0
O1022 O 0.58763 0.28818 0.78614 0.0
O1023 O 0.56896 0.26932 0.80449 0.0
C1024 C 0.60438 0.27489 0.84332 0.0
O1025 O 0.59834 0.32353 0.80235 0.0
O1026 O 0.59559 0.32579 0.83441 0.0
In1027 In 0.69938 0.58139 0.81877 0.0
O1028 O 0.71599 0.58735 0.84874 0.0
O1029 O 0.71749 0.60992 0.82571 0.0
C1030 C 0.68847 0.54234 0.82485 0.0
C1031 C 0.66425 0.60255 0.81835 0.0
C1032 C 0.72558 0.5775 0.78746 0.0
O1033 O 0.69856 0.55237 0.83769 0.0
O1034 O 0.68336 0.55221 0.80925 0.0
O1035 O 0.70941 0.58771 0.78612 0.0
O1036 O 0.72836 0.56912 0.80446 0.0
C1037 C 0.72274 0.60447 0.8433 0.0
O1038 O 0.67404 0.59836 0.80243 0.0
O1039 O 0.6719 0.59561 0.83449 0.0
In1040 In 0.17831 0.41651 0.29828 0.0
O1041 O 0.19464 0.39944 0.32353 0.0
O1042 O 0.16262 0.40256 0.32593 0.0
C1043 C 0.20954 0.42025 0.27198 0.0
C1044 C 0.15372 0.39337 0.27503 0.0
C1045 C 0.1725 0.45555 0.30933 0.0
O1046 O 0.21094 0.4102 0.28825 0.0
O1047 O 0.19251 0.42854 0.26915 0.0
O1048 O 0.15945 0.44557 0.29947 0.0
O1049 O 0.18818 0.44564 0.31412 0.0
C1050 C 0.17875 0.39547 0.33347 0.0
O1051 O 0.14848 0.41071 0.28134 0.0
O1052 O 0.17113 0.38773 0.28068 0.0
In1053 In 0.58153 0.17902 0.29827 0.0
O1054 O 0.58762 0.14902 0.28178 0.0
O1055 O 0.61002 0.17219 0.28001 0.0
C1056 C 0.54253 0.17258 0.30917 0.0
C1057 C 0.60272 0.17954 0.33338 0.0
C1058 C 0.57744 0.21042 0.27221 0.0
O1059 O 0.55259 0.15998 0.29882 0.0
O1060 O 0.55234 0.18814 0.31453 0.0
O1061 O 0.58771 0.21172 0.28834 0.0
O1062 O 0.56909 0.19342 0.2694 0.0
C1063 C 0.60465 0.15453 0.27489 0.0
O1064 O 0.59847 0.19543 0.32357 0.0
O1065 O 0.59584 0.16337 0.32575 0.0
In1066 In 0.81903 0.58139 0.29844 0.0
O1067 O 0.84886 0.58726 0.28154 0.0
O1068 O 0.82612 0.61016 0.28075 0.0
C1069 C 0.82509 0.54232 0.30928 0.0
C1070 C 0.81871 0.60234 0.33369 0.0
C1071 C 0.78774 0.57761 0.27221 0.0
O1072 O 0.83798 0.55239 0.2993 0.0
O1073 O 0.80944 0.55216 0.31432 0.0
O1074 O 0.7864 0.5878 0.2884 0.0
O1075 O 0.80472 0.5692 0.26944 0.0
C1076 C 0.84356 0.60456 0.27517 0.0
O1077 O 0.80277 0.59825 0.32389 0.0
O1078 O 0.83482 0.5954 0.32599 0.0
In1079 In 0.41648 0.81863 0.29822 0.0
O1080 O 0.39946 0.80229 0.32352 0.0
O1081 O 0.40224 0.83435 0.3257 0.0
C1082 C 0.42041 0.78727 0.27209 0.0
C1083 C 0.39348 0.84318 0.27479 0.0
C1084 C 0.45551 0.82472 0.30915 0.0
O1085 O 0.41009 0.786 0.2882 0.0
O1086 O 0.42888 0.80423 0.26933 0.0
O1087 O 0.44553 0.8375 0.29896 0.0
O1088 O 0.44562 0.80917 0.31435 0.0
C1089 C 0.39527 0.8182 0.33332 0.0
O1090 O 0.41051 0.84866 0.2817 0.0
O1091 O 0.38805 0.82555 0.27992 0.0
In1092 In 0.1788 0.58148 0.69914 0.0
O1093 O 0.1489 0.58733 0.71593 0.0
O1094 O 0.17164 0.61022 0.71684 0.0
C1095 C 0.17282 0.54243 0.68818 0.0
C1096 C 0.17935 0.60258 0.66398 0.0
C1097 C 0.20995 0.57764 0.72552 0.0
O1098 O 0.15982 0.5525 0.69803 0.0
O1099 O 0.18852 0.55227 0.68333 0.0
O1100 O 0.21142 0.58772 0.70927 0.0
O1101 O 0.1929 0.56936 0.72828 0.0
C1102 C 0.15418 0.60462 0.72235 0.0
O1103 O 0.19521 0.59852 0.67391 0.0
O1104 O 0.16319 0.59553 0.6715 0.0
In1105 In 0.41636 0.17888 0.69945 0.0
O1106 O 0.39954 0.19545 0.67418 0.0
O1107 O 0.40214 0.16339 0.67182 0.0
C1108 C 0.42028 0.21016 0.72568 0.0
C1109 C 0.39318 0.1543 0.72268 0.0
C1110 C 0.45541 0.17262 0.68867 0.0
O1111 O 0.41004 0.2115 0.70954 0.0
O1112 O 0.4287 0.19317 0.72843 0.0
O1113 O 0.44534 0.1599 0.69886 0.0
O1114 O 0.44559 0.1882 0.68341 0.0
C1115 C 0.39531 0.17962 0.66426 0.0
O1116 O 0.41022 0.14879 0.71579 0.0
O1117 O 0.38783 0.17197 0.71761 0.0
In1118 In 0.81893 0.4163 0.69947 0.0
O1119 O 0.80251 0.3993 0.67423 0.0
O1120 O 0.83454 0.40228 0.67182 0.0
C1121 C 0.7877 0.42017 0.72575 0.0
C1122 C 0.84352 0.39311 0.72266 0.0
C1123 C 0.82497 0.45535 0.68853 0.0
O1124 O 0.78628 0.41009 0.70951 0.0
O1125 O 0.80475 0.42843 0.72857 0.0
O1126 O 0.83787 0.44532 0.69853 0.0
O1127 O 0.80932 0.44549 0.68353 0.0
C1128 C 0.81838 0.39526 0.66428 0.0
O1129 O 0.84886 0.41035 0.71616 0.0
O1130 O 0.826 0.38759 0.71724 0.0
In1131 In 0.58151 0.81855 0.69948 0.0
O1132 O 0.58758 0.84864 0.71584 0.0
O1133 O 0.60989 0.82542 0.71788 0.0
C1134 C 0.54249 0.82472 0.68853 0.0
C1135 C 0.60274 0.81792 0.66438 0.0
C1136 C 0.57745 0.78724 0.72565 0.0
O1137 O 0.5525 0.83748 0.69873 0.0
O1138 O 0.55237 0.80915 0.68332 0.0
O1139 O 0.58783 0.78593 0.70959 0.0
O1140 O 0.56898 0.80421 0.72834 0.0
C1141 C 0.60455 0.84311 0.72287 0.0
O1142 O 0.59851 0.80206 0.67426 0.0
O1143 O 0.59582 0.83411 0.67194 0.0
In1144 In 0.29792 0.17963 0.41624 0.0
O1145 O 0.28103 0.14978 0.41046 0.0
O1146 O 0.28039 0.17239 0.38742 0.0
C1147 C 0.30898 0.17383 0.45527 0.0
C1148 C 0.33307 0.17997 0.39514 0.0
C1149 C 0.27145 0.21071 0.42004 0.0
O1150 O 0.2992 0.16074 0.44527 0.0
O1151 O 0.31369 0.18956 0.4454 0.0
O1152 O 0.28779 0.2123 0.41014 0.0
O1153 O 0.26864 0.19359 0.42816 0.0
C1154 C 0.27477 0.15498 0.39309 0.0
O1155 O 0.32311 0.19588 0.39897 0.0
O1156 O 0.32558 0.1639 0.4024 0.0
In1157 In 0.29848 0.81899 0.58134 0.0
O1158 O 0.32375 0.80252 0.59826 0.0
O1159 O 0.32616 0.83455 0.59538 0.0
C1160 C 0.27203 0.78788 0.57764 0.0
C1161 C 0.27536 0.84367 0.6045 0.0
C1162 C 0.30937 0.82494 0.54226 0.0
O1163 O 0.2883 0.7864 0.58767 0.0
O1164 O 0.26928 0.80491 0.56932 0.0
O1165 O 0.29955 0.83795 0.55234 0.0
O1166 O 0.31421 0.80923 0.55209 0.0
C1167 C 0.33369 0.81837 0.60235 0.0
O1168 O 0.28176 0.84892 0.5872 0.0
O1169 O 0.28085 0.8262 0.61011 0.0
In1170 In 0.17846 0.2985 0.58148 0.0
O1171 O 0.19491 0.32381 0.59836 0.0
O1172 O 0.16286 0.32612 0.59559 0.0
C1173 C 0.20976 0.27228 0.57768 0.0
C1174 C 0.15391 0.27528 0.60468 0.0
C1175 C 0.1723 0.30938 0.54243 0.0
O1176 O 0.21113 0.28854 0.58773 0.0
O1177 O 0.19272 0.26941 0.5694 0.0
O1178 O 0.15943 0.29939 0.55252 0.0
O1179 O 0.18798 0.31439 0.55224 0.0
C1180 C 0.17904 0.3337 0.60251 0.0
O1181 O 0.14857 0.28174 0.58742 0.0
O1182 O 0.1714 0.28076 0.61022 0.0
In1183 In 0.69938 0.17904 0.58149 0.0
O1184 O 0.71606 0.14911 0.58738 0.0
O1185 O 0.71716 0.17193 0.61019 0.0
C1186 C 0.68847 0.17305 0.54243 0.0
C1187 C 0.66423 0.17952 0.60262 0.0
C1188 C 0.72572 0.21023 0.57766 0.0
O1189 O 0.6984 0.16011 0.55248 0.0
O1190 O 0.68351 0.18872 0.55228 0.0
O1191 O 0.70944 0.21171 0.58767 0.0
O1192 O 0.72854 0.19316 0.56945 0.0
C1193 C 0.72257 0.15442 0.60463 0.0
O1194 O 0.67414 0.1954 0.59858 0.0
O1195 O 0.67176 0.16338 0.59553 0.0
In1196 In 0.81959 0.69948 0.58151 0.0
O1197 O 0.80312 0.67415 0.59833 0.0
O1198 O 0.83519 0.6719 0.59573 0.0
C1199 C 0.78823 0.7256 0.57759 0.0
C1200 C 0.84406 0.72275 0.60477 0.0
C1201 C 0.82582 0.68868 0.54245 0.0
O1202 O 0.78691 0.70939 0.58774 0.0
O1203 O 0.80525 0.72847 0.56928 0.0
O1204 O 0.83855 0.69888 0.55249 0.0
O1205 O 0.81026 0.68341 0.5523 0.0
C1206 C 0.81898 0.66429 0.60257 0.0
O1207 O 0.84959 0.71598 0.5877 0.0
O1208 O 0.82641 0.71756 0.6101 0.0
In1209 In 0.69963 0.81819 0.41624 0.0
O1210 O 0.7163 0.84816 0.41041 0.0
O1211 O 0.71746 0.82536 0.38759 0.0
C1212 C 0.68859 0.82409 0.45528 0.0
C1213 C 0.66451 0.81763 0.39507 0.0
C1214 C 0.72609 0.7871 0.42009 0.0
O1215 O 0.69844 0.83712 0.44525 0.0
O1216 O 0.68379 0.80838 0.44542 0.0
O1217 O 0.70986 0.78559 0.41 0.0
O1218 O 0.7288 0.80416 0.42838 0.0
C1219 C 0.72285 0.84287 0.39317 0.0
O1220 O 0.67446 0.80177 0.39912 0.0
O1221 O 0.672 0.83378 0.40217 0.0
In1222 In 0.17881 0.69971 0.41643 0.0
O1223 O 0.14895 0.71653 0.41046 0.0
O1224 O 0.1717 0.71724 0.38757 0.0
C1225 C 0.17276 0.68891 0.45551 0.0
C1226 C 0.17941 0.66443 0.39554 0.0
C1227 C 0.21001 0.72605 0.42017 0.0
O1228 O 0.15981 0.69877 0.44541 0.0
O1229 O 0.18846 0.68398 0.44571 0.0
O1230 O 0.21146 0.70976 0.41017 0.0
O1231 O 0.19296 0.72889 0.42842 0.0
C1232 C 0.15425 0.72283 0.39314 0.0
O1233 O 0.19526 0.67439 0.39957 0.0
O1234 O 0.16323 0.67199 0.4025 0.0
In1235 In 0.81883 0.29857 0.41634 0.0
O1236 O 0.80242 0.32376 0.39925 0.0
O1237 O 0.83446 0.32613 0.40213 0.0
C1238 C 0.78763 0.27226 0.42027 0.0
C1239 C 0.84335 0.27522 0.39324 0.0
C1240 C 0.82487 0.3096 0.45536 0.0
O1241 O 0.78617 0.28851 0.4102 0.0
O1242 O 0.8047 0.26946 0.42851 0.0
O1243 O 0.83783 0.2997 0.44531 0.0
O1244 O 0.80917 0.31447 0.44552 0.0
C1245 C 0.81829 0.33365 0.3951 0.0
O1246 O 0.84873 0.28178 0.41044 0.0
O1247 O 0.82584 0.28066 0.3877 0.0
C1248 C 0.10962 0.24262 0.37537 0.0
C1249 C 0.11653 0.23632 0.35618 0.0
H1250 H 0.11589 0.26011 0.40214 0.0
C1251 C 0.13551 0.24313 0.34923 0.0
H1252 H 0.09502 0.23764 0.38109 0.0
C1253 C 0.14739 0.25594 0.36121 0.0
C1254 C 0.14054 0.26226 0.3804 0.0
H1255 H 0.14122 0.23856 0.33448 0.0
H1256 H 0.16199 0.26087 0.35543 0.0
C1257 C 0.12153 0.25551 0.38738 0.0
C1258 C 0.7426 0.14827 0.36155 0.0
C1259 C 0.73597 0.14137 0.38062 0.0
H1260 H 0.76011 0.14201 0.33493 0.0
C1261 C 0.74233 0.12219 0.3875 0.0
H1262 H 0.73799 0.163 0.35584 0.0
C1263 C 0.7551 0.11014 0.37551 0.0
C1264 C 0.76169 0.11708 0.35642 0.0
H1265 H 0.73748 0.1165 0.40216 0.0
H1266 H 0.75976 0.0954 0.38114 0.0
C1267 C 0.7553 0.13625 0.34958 0.0
C1268 C 0.85034 0.7421 0.36122 0.0
C1269 C 0.85718 0.73577 0.38042 0.0
H1270 H 0.85655 0.75947 0.33449 0.0
C1271 C 0.87619 0.74251 0.38741 0.0
H1272 H 0.83574 0.73718 0.35543 0.0
C1273 C 0.88812 0.75538 0.3754 0.0
C1274 C 0.88124 0.76169 0.3562 0.0
H1275 H 0.88182 0.7379 0.40217 0.0
H1276 H 0.90272 0.76035 0.38113 0.0
C1277 C 0.86225 0.7549 0.34924 0.0
C1278 C 0.2428 0.86182 0.34924 0.0
C1279 C 0.23631 0.88095 0.3561 0.0
H1280 H 0.2602 0.83513 0.35551 0.0
C1281 C 0.2428 0.88788 0.37522 0.0
H1282 H 0.23807 0.85607 0.33456 0.0
C1283 C 0.25558 0.87586 0.38724 0.0
C1284 C 0.26204 0.85672 0.38034 0.0
H1285 H 0.23806 0.90259 0.38087 0.0
H1286 H 0.26035 0.88153 0.40193 0.0
C1287 C 0.25551 0.84983 0.36123 0.0
C1288 C 0.14799 0.74262 0.63668 0.0
C1289 C 0.14113 0.73625 0.6175 0.0
H1290 H 0.14178 0.76002 0.66339 0.0
C1291 C 0.12209 0.74293 0.61053 0.0
H1292 H 0.1626 0.73774 0.64246 0.0
C1293 C 0.11015 0.75579 0.62254 0.0
C1294 C 0.11705 0.76214 0.64172 0.0
H1295 H 0.11645 0.73829 0.59579 0.0
H1296 H 0.09553 0.76072 0.61683 0.0
C1297 C 0.13607 0.75541 0.64866 0.0
C1298 C 0.25536 0.12294 0.61003 0.0
C1299 C 0.26217 0.14188 0.61715 0.0
H1300 H 0.23753 0.09638 0.61619 0.0
C1301 C 0.25599 0.14855 0.63645 0.0
H1302 H 0.25986 0.11744 0.59519 0.0
C1303 C 0.24326 0.13655 0.64841 0.0
C1304 C 0.2364 0.11763 0.64132 0.0
H1305 H 0.26097 0.16308 0.64234 0.0
H1306 H 0.2388 0.14212 0.66324 0.0
C1307 C 0.24256 0.11092 0.62202 0.0
C1308 C 0.84977 0.25572 0.6364 0.0
C1309 C 0.85648 0.26191 0.61712 0.0
H1310 H 0.8561 0.23844 0.66316 0.0
C1311 C 0.87538 0.25502 0.60999 0.0
H1312 H 0.83526 0.26076 0.6423 0.0
C1313 C 0.88734 0.24213 0.62196 0.0
C1314 C 0.88059 0.23596 0.64125 0.0
H1315 H 0.88091 0.25952 0.59516 0.0
H1316 H 0.90186 0.23704 0.61612 0.0
C1317 C 0.8617 0.2429 0.64834 0.0
C1318 C 0.75534 0.88702 0.62198 0.0
C1319 C 0.76174 0.88019 0.64117 0.0
H1320 H 0.73785 0.88058 0.59525 0.0
C1321 C 0.75514 0.86114 0.64814 0.0
H1322 H 0.76017 0.90167 0.61624 0.0
C1323 C 0.74241 0.84913 0.63618 0.0
C1324 C 0.73597 0.85592 0.61701 0.0
H1325 H 0.75979 0.85548 0.66287 0.0
H1326 H 0.73762 0.83449 0.64199 0.0
C1327 C 0.74254 0.87498 0.61 0.0
C1328 C 0.351 0.13671 0.24056 0.0
C1329 C 0.35691 0.11678 0.23578 0.0
H1330 H 0.35792 0.164 0.25674 0.0
C1331 C 0.37499 0.10903 0.24408 0.0
H1332 H 0.33715 0.14311 0.23439 0.0
C1333 C 0.3869 0.12102 0.25699 0.0
C1334 C 0.38093 0.14095 0.26177 0.0
H1335 H 0.37988 0.09369 0.24069 0.0
H1336 H 0.40076 0.11469 0.26321 0.0
C1337 C 0.36289 0.14867 0.25339 0.0
C1338 C 0.86102 0.3496 0.2417 0.0
C1339 C 0.88031 0.35627 0.23551 0.0
H1340 H 0.83425 0.35603 0.25893 0.0
C1341 C 0.88744 0.37521 0.24232 0.0
H1342 H 0.85511 0.33507 0.23672 0.0
C1343 C 0.87547 0.38722 0.25514 0.0
C1344 C 0.85618 0.38051 0.26132 0.0
H1345 H 0.90228 0.3807 0.23781 0.0
H1346 H 0.88131 0.40176 0.26017 0.0
C1347 C 0.84907 0.3616 0.25446 0.0
C1348 C 0.64795 0.86103 0.24186 0.0
C1349 C 0.64124 0.88036 0.23583 0.0
H1350 H 0.64162 0.83414 0.25894 0.0
C1351 C 0.62235 0.88745 0.24279 0.0
H1352 H 0.66245 0.85516 0.23676 0.0
C1353 C 0.6104 0.87539 0.2556 0.0
C1354 C 0.61716 0.85605 0.26162 0.0
H1355 H 0.61682 0.90231 0.23841 0.0
H1356 H 0.59589 0.88119 0.26075 0.0
C1357 C 0.63603 0.849 0.2546 0.0
C1358 C 0.11055 0.62219 0.24241 0.0
C1359 C 0.1172 0.64158 0.23643 0.0
H1360 H 0.11708 0.59531 0.25961 0.0
C1361 C 0.13599 0.64875 0.24353 0.0
H1362 H 0.0961 0.61629 0.23719 0.0
C1363 C 0.14794 0.6368 0.25631 0.0
C1364 C 0.14134 0.61742 0.26231 0.0
H1365 H 0.14151 0.66365 0.23921 0.0
H1366 H 0.16238 0.64276 0.26148 0.0
C1367 C 0.12252 0.61021 0.25527 0.0
C1368 C 0.34965 0.86142 0.75518 0.0
C1369 C 0.35657 0.88051 0.76171 0.0
H1370 H 0.35583 0.83477 0.73768 0.0
C1371 C 0.3757 0.88741 0.75519 0.0
H1372 H 0.33497 0.8557 0.75992 0.0
C1373 C 0.38766 0.87541 0.74235 0.0
C1374 C 0.3807 0.8563 0.73585 0.0
H1375 H 0.38139 0.9021 0.75997 0.0
H1376 H 0.40235 0.88106 0.73757 0.0
C1377 C 0.36159 0.84944 0.74241 0.0
C1378 C 0.12241 0.38766 0.74288 0.0
C1379 C 0.14131 0.38056 0.73595 0.0
H1380 H 0.09593 0.38144 0.76082 0.0
C1381 C 0.14801 0.36124 0.74204 0.0
H1382 H 0.11689 0.40251 0.73845 0.0
C1383 C 0.13607 0.34924 0.75479 0.0
C1384 C 0.11719 0.3563 0.76176 0.0
H1385 H 0.16252 0.35536 0.73696 0.0
H1386 H 0.14167 0.33439 0.75917 0.0
C1387 C 0.11045 0.37563 0.7557 0.0
C1388 C 0.61058 0.12178 0.74222 0.0
C1389 C 0.61721 0.14118 0.73628 0.0
H1390 H 0.61712 0.09489 0.75941 0.0
C1391 C 0.63598 0.14838 0.74342 0.0
H1392 H 0.59615 0.11587 0.73697 0.0
C1393 C 0.64793 0.13643 0.75621 0.0
C1394 C 0.64134 0.11704 0.76218 0.0
H1395 H 0.64148 0.16329 0.73913 0.0
H1396 H 0.66235 0.14241 0.76141 0.0
C1397 C 0.62255 0.10981 0.75509 0.0
C1398 C 0.8872 0.62206 0.75567 0.0
C1399 C 0.88041 0.64131 0.7619 0.0
H1400 H 0.88081 0.59527 0.73827 0.0
C1401 C 0.86145 0.64833 0.75508 0.0
H1402 H 0.90178 0.61628 0.76067 0.0
C1403 C 0.84951 0.63636 0.7423 0.0
C1404 C 0.85627 0.61713 0.73603 0.0
H1405 H 0.85581 0.66312 0.75959 0.0
H1406 H 0.83495 0.64221 0.73734 0.0
C1407 C 0.87524 0.61007 0.74283 0.0
C1408 C 0.2422 0.34932 0.13648 0.0
C1409 C 0.23591 0.35606 0.11724 0.0
H1410 H 0.25944 0.35568 0.16325 0.0
C1411 C 0.24262 0.37506 0.11019 0.0
H1412 H 0.2373 0.33473 0.14231 0.0
C1413 C 0.2554 0.38708 0.1222 0.0
C1414 C 0.26165 0.3803 0.14145 0.0
H1415 H 0.23804 0.38062 0.09539 0.0
H1416 H 0.26034 0.40169 0.11644 0.0
C1417 C 0.25491 0.36131 0.14846 0.0
C1418 C 0.24225 0.62231 0.88759 0.0
C1419 C 0.23563 0.64136 0.8806 0.0
H1420 H 0.25995 0.59568 0.88133 0.0
C1421 C 0.24204 0.64818 0.86143 0.0
H1422 H 0.23758 0.61669 0.90234 0.0
C1423 C 0.2548 0.63622 0.84946 0.0
C1424 C 0.26146 0.61718 0.85642 0.0
H1425 H 0.23721 0.66281 0.85563 0.0
H1426 H 0.25943 0.64191 0.83473 0.0
C1427 C 0.25508 0.61032 0.8756 0.0
C1428 C 0.38761 0.25523 0.87561 0.0
C1429 C 0.3807 0.26158 0.85644 0.0
H1430 H 0.38133 0.2377 0.90236 0.0
C1431 C 0.36169 0.25484 0.84949 0.0
H1432 H 0.40223 0.26016 0.88133 0.0
C1433 C 0.34978 0.24203 0.86147 0.0
C1434 C 0.35665 0.23566 0.88064 0.0
H1435 H 0.35597 0.25945 0.83477 0.0
H1436 H 0.33517 0.23715 0.85569 0.0
C1437 C 0.37568 0.24235 0.88761 0.0
C1438 C 0.7427 0.36149 0.84924 0.0
C1439 C 0.73597 0.38048 0.85627 0.0
H1440 H 0.76036 0.33493 0.85533 0.0
C1441 C 0.74231 0.38728 0.87549 0.0
H1442 H 0.7381 0.35585 0.83448 0.0
C1443 C 0.75516 0.37528 0.88744 0.0
C1444 C 0.76185 0.35628 0.88038 0.0
H1445 H 0.73739 0.40188 0.88126 0.0
H1446 H 0.7598 0.38085 0.90222 0.0
C1447 C 0.75548 0.34952 0.86117 0.0
C1448 C 0.63543 0.74347 0.84915 0.0
C1449 C 0.61675 0.73616 0.85642 0.0
H1450 H 0.66171 0.7616 0.85507 0.0
C1451 C 0.61019 0.74195 0.87589 0.0
H1452 H 0.64087 0.73931 0.83419 0.0
C1453 C 0.62215 0.75482 0.88787 0.0
C1454 C 0.64086 0.76207 0.88058 0.0
H1455 H 0.59583 0.73657 0.88185 0.0
H1456 H 0.61679 0.75902 0.90285 0.0
C1457 C 0.64736 0.75627 0.86111 0.0
C1458 C 0.7554 0.62262 0.11022 0.0
C1459 C 0.76212 0.64161 0.11729 0.0
H1460 H 0.73763 0.59602 0.11642 0.0
C1461 C 0.75586 0.64833 0.13655 0.0
H1462 H 0.75996 0.61708 0.09542 0.0
C1463 C 0.74313 0.63634 0.14851 0.0
C1464 C 0.73635 0.61737 0.14147 0.0
H1465 H 0.76078 0.66291 0.1424 0.0
H1466 H 0.7386 0.64195 0.1633 0.0
C1467 C 0.7426 0.61061 0.12221 0.0
C1468 C 0.34981 0.75558 0.13643 0.0
C1469 C 0.3565 0.76167 0.11711 0.0
H1470 H 0.35617 0.73844 0.16328 0.0
C1471 C 0.37541 0.75476 0.11001 0.0
H1472 H 0.3353 0.76065 0.14232 0.0
C1473 C 0.38738 0.74194 0.12203 0.0
C1474 C 0.38064 0.73587 0.14136 0.0
H1475 H 0.38092 0.75919 0.09515 0.0
H1476 H 0.40189 0.73683 0.11621 0.0
C1477 C 0.36176 0.74283 0.14843 0.0
C1478 C 0.62169 0.24285 0.11045 0.0
C1479 C 0.64067 0.23606 0.11749 0.0
H1480 H 0.59517 0.26073 0.11669 0.0
C1481 C 0.64746 0.24233 0.13671 0.0
H1482 H 0.6161 0.23829 0.09567 0.0
C1483 C 0.63555 0.25513 0.14869 0.0
C1484 C 0.61659 0.26197 0.14169 0.0
H1485 H 0.66203 0.23737 0.14254 0.0
H1486 H 0.64122 0.25966 0.16346 0.0
C1487 C 0.60975 0.25571 0.12245 0.0
C1488 C 0.88809 0.75523 0.62273 0.0
C1489 C 0.88094 0.76197 0.64169 0.0
H1490 H 0.88201 0.7374 0.59614 0.0
C1491 C 0.86171 0.75562 0.64839 0.0
H1492 H 0.90288 0.75986 0.61721 0.0
C1493 C 0.84982 0.74282 0.63639 0.0
C1494 C 0.85692 0.73605 0.61744 0.0
H1495 H 0.8558 0.76053 0.66294 0.0
H1496 H 0.83504 0.73824 0.64198 0.0
C1497 C 0.87618 0.74236 0.61071 0.0
C1498 C 0.24248 0.88758 0.62201 0.0
C1499 C 0.23628 0.88083 0.64129 0.0
H1500 H 0.25985 0.88112 0.59521 0.0
C1501 C 0.24313 0.8619 0.64836 0.0
H1502 H 0.23746 0.90214 0.6162 0.0
C1503 C 0.25589 0.84993 0.6364 0.0
C1504 C 0.26212 0.85664 0.61713 0.0
H1505 H 0.23864 0.8563 0.66316 0.0
H1506 H 0.26087 0.83539 0.64228 0.0
C1507 C 0.25532 0.87559 0.61003 0.0
C1508 C 0.13588 0.24288 0.64849 0.0
C1509 C 0.11691 0.23607 0.64149 0.0
H1510 H 0.16238 0.26062 0.64235 0.0
C1511 C 0.11006 0.24237 0.62227 0.0
H1512 H 0.14155 0.23831 0.66325 0.0
C1513 C 0.122 0.25525 0.61029 0.0
C1514 C 0.14099 0.262 0.61732 0.0
H1515 H 0.09547 0.23738 0.61652 0.0
H1516 H 0.1164 0.25985 0.59552 0.0
C1517 C 0.1478 0.25568 0.63653 0.0
C1518 C 0.75524 0.11039 0.62223 0.0
C1519 C 0.76158 0.11721 0.64144 0.0
H1520 H 0.73779 0.11682 0.59548 0.0
C1521 C 0.7549 0.13623 0.64843 0.0
H1522 H 0.76012 0.09577 0.61649 0.0
C1523 C 0.74217 0.14823 0.63646 0.0
C1524 C 0.7358 0.14144 0.61726 0.0
H1525 H 0.7595 0.14189 0.66318 0.0
H1526 H 0.73733 0.16284 0.64227 0.0
C1527 C 0.74243 0.1224 0.61024 0.0
C1528 C 0.88722 0.24232 0.37564 0.0
C1529 C 0.88029 0.23588 0.3565 0.0
H1530 H 0.88096 0.25996 0.40231 0.0
C1531 C 0.86124 0.24254 0.34957 0.0
H1532 H 0.90186 0.23745 0.38133 0.0
C1533 C 0.84934 0.25538 0.36152 0.0
C1534 C 0.85624 0.26187 0.38064 0.0
H1535 H 0.8555 0.23786 0.33488 0.0
H1536 H 0.83471 0.26022 0.35575 0.0
C1537 C 0.87529 0.25523 0.3876 0.0
C1538 C 0.75547 0.88696 0.37561 0.0
C1539 C 0.76192 0.8801 0.35645 0.0
H1540 H 0.73791 0.88055 0.4023 0.0
C1541 C 0.75535 0.86103 0.34949 0.0
H1542 H 0.76027 0.90162 0.38133 0.0
C1543 C 0.7426 0.84903 0.36143 0.0
C1544 C 0.73611 0.85585 0.38058 0.0
H1545 H 0.76005 0.85535 0.33478 0.0
H1546 H 0.73784 0.83438 0.35564 0.0
C1547 C 0.74265 0.87493 0.38757 0.0
C1548 C 0.12246 0.74306 0.38753 0.0
C1549 C 0.14136 0.73609 0.38045 0.0
H1550 H 0.09605 0.7611 0.3813 0.0
C1551 C 0.1481 0.74219 0.36115 0.0
H1552 H 0.11691 0.73863 0.40237 0.0
C1553 C 0.13622 0.755 0.34915 0.0
C1554 C 0.11736 0.76203 0.3562 0.0
H1555 H 0.16261 0.73709 0.35528 0.0
H1556 H 0.14185 0.7594 0.33432 0.0
C1557 C 0.11056 0.75594 0.3755 0.0
C1558 C 0.24195 0.11106 0.37548 0.0
C1559 C 0.23587 0.11778 0.35615 0.0
H1560 H 0.25915 0.11757 0.40238 0.0
C1561 C 0.24277 0.1367 0.34909 0.0
H1562 H 0.23688 0.09652 0.38129 0.0
C1563 C 0.25546 0.14868 0.3611 0.0
C1564 C 0.26157 0.14201 0.38042 0.0
H1565 H 0.23838 0.14227 0.33425 0.0
H1566 H 0.26049 0.16321 0.35523 0.0
C1567 C 0.25471 0.12308 0.38752 0.0
C1568 C 0.62234 0.88747 0.75501 0.0
C1569 C 0.64117 0.88031 0.76208 0.0
H1570 H 0.59596 0.88131 0.73691 0.0
C1571 C 0.6478 0.86092 0.75613 0.0
H1572 H 0.61687 0.90237 0.75932 0.0
C1573 C 0.63589 0.84893 0.74335 0.0
C1574 C 0.6171 0.85606 0.73621 0.0
H1575 H 0.66225 0.85499 0.76133 0.0
H1576 H 0.64144 0.83404 0.73907 0.0
C1577 C 0.61041 0.87545 0.74215 0.0
C1578 C 0.14795 0.63651 0.74183 0.0
C1579 C 0.14123 0.61725 0.73561 0.0
H1580 H 0.1416 0.66328 0.75909 0.0
C1581 C 0.12228 0.61015 0.74242 0.0
H1582 H 0.16249 0.64239 0.73684 0.0
C1583 C 0.1103 0.62213 0.75527 0.0
C1584 C 0.11707 0.64141 0.76147 0.0
H1585 H 0.11674 0.59533 0.7379 0.0
H1586 H 0.09575 0.61633 0.7603 0.0
C1587 C 0.13599 0.64847 0.7546 0.0
C1588 C 0.37541 0.11008 0.75501 0.0
C1589 C 0.3565 0.11718 0.7619 0.0
H1590 H 0.40189 0.11626 0.73705 0.0
C1591 C 0.34976 0.13645 0.75571 0.0
H1592 H 0.38096 0.09525 0.7595 0.0
C1593 C 0.36168 0.14842 0.74291 0.0
C1594 C 0.38058 0.14135 0.73598 0.0
H1595 H 0.33524 0.14233 0.76075 0.0
H1596 H 0.35607 0.16323 0.73845 0.0
C1597 C 0.38735 0.12207 0.74213 0.0
C1598 C 0.8616 0.34925 0.75498 0.0
C1599 C 0.88064 0.35619 0.76166 0.0
H1600 H 0.83501 0.35548 0.73741 0.0
C1601 C 0.88751 0.37539 0.75533 0.0
H1602 H 0.85591 0.33451 0.75958 0.0
C1603 C 0.87552 0.38741 0.74253 0.0
C1604 C 0.85647 0.38044 0.73589 0.0
H1605 H 0.90215 0.3811 0.76022 0.0
H1606 H 0.88115 0.40216 0.73789 0.0
C1607 C 0.84964 0.36126 0.74225 0.0
C1608 C 0.62236 0.11034 0.24251 0.0
C1609 C 0.64133 0.11738 0.2357 0.0
H1610 H 0.59585 0.11658 0.26038 0.0
C1611 C 0.64811 0.13663 0.24194 0.0
H1612 H 0.61678 0.09554 0.23797 0.0
C1613 C 0.63618 0.14861 0.25472 0.0
C1614 C 0.61723 0.1416 0.26157 0.0
H1615 H 0.66267 0.14246 0.23696 0.0
H1616 H 0.64183 0.1634 0.25922 0.0
C1617 C 0.61042 0.12235 0.25536 0.0
C1618 C 0.88733 0.62208 0.24211 0.0
C1619 C 0.88059 0.6414 0.23602 0.0
H1620 H 0.88089 0.59524 0.25941 0.0
C1621 C 0.86172 0.64849 0.24299 0.0
H1622 H 0.90184 0.61626 0.237 0.0
C1623 C 0.84978 0.63651 0.25577 0.0
C1624 C 0.85648 0.6172 0.26189 0.0
H1625 H 0.85613 0.66333 0.23858 0.0
H1626 H 0.83528 0.6424 0.26084 0.0
C1627 C 0.87537 0.61009 0.25496 0.0
C1628 C 0.37578 0.88742 0.24244 0.0
C1629 C 0.35689 0.88031 0.23549 0.0
H1630 H 0.40221 0.88124 0.26047 0.0
C1631 C 0.35017 0.86101 0.24161 0.0
H1632 H 0.38131 0.90227 0.23799 0.0
C1633 C 0.36207 0.84904 0.25442 0.0
C1634 C 0.38093 0.85612 0.26143 0.0
H1635 H 0.33567 0.85512 0.23652 0.0
H1636 H 0.35646 0.83421 0.25883 0.0
C1637 C 0.3877 0.87542 0.25533 0.0
C1638 C 0.12191 0.38781 0.25481 0.0
C1639 C 0.14082 0.38073 0.26174 0.0
H1640 H 0.09546 0.3816 0.23681 0.0
C1641 C 0.14756 0.36144 0.25559 0.0
H1642 H 0.11635 0.40265 0.25927 0.0
C1643 C 0.13566 0.34946 0.24279 0.0
C1644 C 0.11678 0.35651 0.23581 0.0
H1645 H 0.16207 0.35557 0.26066 0.0
H1646 H 0.14129 0.33464 0.23836 0.0
C1647 C 0.10999 0.3758 0.24193 0.0
C1648 C 0.75555 0.64802 0.86121 0.0
C1649 C 0.76186 0.64125 0.88043 0.0
H1650 H 0.73824 0.64171 0.83446 0.0
C1651 C 0.75515 0.62224 0.88746 0.0
H1652 H 0.76045 0.66261 0.85538 0.0
C1653 C 0.74233 0.61025 0.87546 0.0
C1654 C 0.73605 0.61707 0.85623 0.0
H1655 H 0.75975 0.61666 0.90224 0.0
H1656 H 0.73739 0.59565 0.88122 0.0
C1657 C 0.7428 0.63606 0.84923 0.0
C1658 C 0.75491 0.37526 0.10972 0.0
C1659 C 0.76202 0.35649 0.11699 0.0
H1660 H 0.73678 0.40166 0.11575 0.0
C1661 C 0.7561 0.34996 0.13642 0.0
H1662 H 0.75919 0.38065 0.09477 0.0
C1663 C 0.74333 0.36193 0.14836 0.0
C1664 C 0.73615 0.38067 0.14112 0.0
H1665 H 0.76133 0.33556 0.14243 0.0
H1666 H 0.73908 0.35647 0.16329 0.0
C1667 C 0.74206 0.38725 0.12169 0.0
C1668 C 0.64766 0.75613 0.13663 0.0
C1669 C 0.64108 0.76211 0.11724 0.0
H1670 H 0.64123 0.739 0.16346 0.0
C1671 C 0.62229 0.75501 0.10999 0.0
H1672 H 0.66207 0.76134 0.14262 0.0
C1673 C 0.61034 0.74211 0.12194 0.0
C1674 C 0.61697 0.73614 0.14134 0.0
H1675 H 0.61687 0.75935 0.09507 0.0
H1676 H 0.59592 0.73685 0.11602 0.0
C1677 C 0.63573 0.7433 0.14855 0.0
C1678 C 0.25525 0.61032 0.12213 0.0
C1679 C 0.2615 0.61712 0.14138 0.0
H1680 H 0.23785 0.61673 0.09534 0.0
C1681 C 0.25471 0.63609 0.14839 0.0
H1682 H 0.26023 0.59573 0.11636 0.0
C1683 C 0.24195 0.64805 0.13642 0.0
C1684 C 0.23567 0.64129 0.11719 0.0
H1685 H 0.25924 0.64173 0.16317 0.0
H1686 H 0.23702 0.66262 0.14226 0.0
C1687 C 0.24242 0.6223 0.11014 0.0
C1688 C 0.3498 0.2416 0.13706 0.0
C1689 C 0.35666 0.23537 0.11784 0.0
H1690 H 0.35597 0.25888 0.16386 0.0
C1691 C 0.37567 0.24215 0.11089 0.0
H1692 H 0.33521 0.23664 0.14282 0.0
C1693 C 0.38758 0.25498 0.12296 0.0
C1694 C 0.38067 0.26122 0.14217 0.0
H1695 H 0.38132 0.23761 0.09612 0.0
H1696 H 0.40217 0.26 0.11726 0.0
C1697 C 0.36169 0.25437 0.1491 0.0
C1698 C 0.25541 0.38716 0.87564 0.0
C1699 C 0.26179 0.38033 0.85644 0.0
H1700 H 0.23792 0.38072 0.90236 0.0
C1701 C 0.25516 0.3613 0.84946 0.0
H1702 H 0.26026 0.40179 0.88138 0.0
C1703 C 0.24242 0.34929 0.86141 0.0
C1704 C 0.236 0.35608 0.88059 0.0
H1705 H 0.2598 0.35563 0.83472 0.0
H1706 H 0.23762 0.33466 0.8556 0.0
C1707 C 0.2426 0.37513 0.88761 0.0
C1708 C 0.64781 0.24191 0.86122 0.0
C1709 C 0.64103 0.23568 0.88047 0.0
H1710 H 0.64154 0.25919 0.83445 0.0
C1711 C 0.62207 0.24249 0.88751 0.0
H1712 H 0.66237 0.23693 0.85539 0.0
C1713 C 0.61012 0.25534 0.8755 0.0
C1714 C 0.61695 0.26156 0.85625 0.0
H1715 H 0.61649 0.23795 0.90231 0.0
H1716 H 0.59556 0.26037 0.88127 0.0
C1717 C 0.63589 0.25469 0.84924 0.0
C1718 C 0.34935 0.7553 0.86116 0.0
C1719 C 0.35617 0.7617 0.88033 0.0
H1720 H 0.35562 0.7379 0.83446 0.0
C1721 C 0.37521 0.75506 0.88733 0.0
H1722 H 0.33473 0.76015 0.85536 0.0
C1723 C 0.38719 0.74222 0.87535 0.0
C1724 C 0.38033 0.73584 0.85617 0.0
H1725 H 0.38083 0.75973 0.90208 0.0
H1726 H 0.40182 0.73733 0.88109 0.0
C1727 C 0.36131 0.74253 0.8492 0.0
C1728 C 0.06473 0.25876 0.27342 0.0
C1729 C 0.07598 0.24082 0.27081 0.0
H1730 H 0.05625 0.2876 0.26105 0.0
C1731 C 0.08682 0.23791 0.25265 0.0
H1732 H 0.05618 0.26141 0.28723 0.0
C1733 C 0.08686 0.25294 0.23763 0.0
C1734 C 0.07607 0.27112 0.24052 0.0
H1735 H 0.09561 0.22421 0.25022 0.0
H1736 H 0.09568 0.25048 0.22396 0.0
C1737 C 0.06477 0.27376 0.25843 0.0
C1738 C 0.75978 0.08687 0.25278 0.0
C1739 C 0.75671 0.07629 0.27106 0.0
H1740 H 0.74737 0.09552 0.22395 0.0
C1741 C 0.73862 0.06531 0.27379 0.0
H1742 H 0.7736 0.09545 0.25026 0.0
C1743 C 0.72365 0.06535 0.25878 0.0
C1744 C 0.72646 0.07637 0.24073 0.0
H1745 H 0.73585 0.05697 0.28771 0.0
H1746 H 0.70971 0.05704 0.26149 0.0
C1747 C 0.74478 0.08691 0.23773 0.0
C1748 C 0.93307 0.72425 0.25848 0.0
C1749 C 0.92167 0.72682 0.24062 0.0
H1750 H 0.94177 0.73669 0.28721 0.0
C1751 C 0.91082 0.74497 0.23775 0.0
H1752 H 0.94164 0.71044 0.26109 0.0
C1753 C 0.91089 0.76003 0.25274 0.0
C1754 C 0.92183 0.75718 0.27085 0.0
H1755 H 0.90192 0.74737 0.22412 0.0
H1756 H 0.90205 0.77369 0.25032 0.0
C1757 C 0.93315 0.73928 0.27344 0.0
C1758 C 0.23836 0.91089 0.25249 0.0
C1759 C 0.24141 0.92151 0.27075 0.0
H1760 H 0.25083 0.90214 0.22372 0.0
C1761 C 0.25951 0.93247 0.2735 0.0
H1762 H 0.22454 0.90233 0.24995 0.0
C1763 C 0.27452 0.93236 0.25852 0.0
C1764 C 0.27173 0.92129 0.24049 0.0
H1765 H 0.26226 0.94084 0.2874 0.0
H1766 H 0.28847 0.94065 0.26124 0.0
C1767 C 0.2534 0.91078 0.23748 0.0
C1768 C 0.06502 0.72437 0.73911 0.0
C1769 C 0.07629 0.7269 0.75705 0.0
H1770 H 0.05651 0.73689 0.71036 0.0
C1771 C 0.08712 0.74504 0.76006 0.0
H1772 H 0.05648 0.71057 0.7364 0.0
C1773 C 0.08714 0.76015 0.74511 0.0
C1774 C 0.07633 0.75735 0.72692 0.0
H1775 H 0.09592 0.74741 0.77376 0.0
H1776 H 0.09596 0.77381 0.74763 0.0
C1777 C 0.06504 0.73945 0.7242 0.0
C1778 C 0.25313 0.08734 0.75992 0.0
C1779 C 0.27129 0.0765 0.75704 0.0
H1780 H 0.22447 0.09622 0.74729 0.0
C1781 C 0.27395 0.06528 0.73909 0.0
H1782 H 0.25067 0.09612 0.77362 0.0
C1783 C 0.25899 0.06534 0.72405 0.0
C1784 C 0.24108 0.07663 0.72667 0.0
H1785 H 0.28777 0.05673 0.73647 0.0
H1786 H 0.26165 0.05684 0.71022 0.0
C1787 C 0.23815 0.0874 0.74485 0.0
C1788 C 0.9107 0.25261 0.75975 0.0
C1789 C 0.92148 0.2708 0.75683 0.0
H1790 H 0.9019 0.22389 0.74719 0.0
C1791 C 0.9327 0.27345 0.73888 0.0
H1792 H 0.90193 0.25015 0.77346 0.0
C1793 C 0.93269 0.25845 0.72388 0.0
C1794 C 0.92144 0.24051 0.72653 0.0
H1795 H 0.94121 0.28728 0.73622 0.0
H1796 H 0.94118 0.2611 0.71003 0.0
C1797 C 0.91068 0.23759 0.74473 0.0
C1798 C 0.74464 0.91056 0.75982 0.0
C1799 C 0.72633 0.92111 0.75682 0.0
H1800 H 0.77345 0.90198 0.74731 0.0
C1801 C 0.72351 0.93209 0.73874 0.0
H1802 H 0.74723 0.90198 0.77362 0.0
C1803 C 0.73848 0.93209 0.72372 0.0
C1804 C 0.75657 0.92111 0.72647 0.0
H1805 H 0.70958 0.94041 0.73602 0.0
H1806 H 0.73572 0.94041 0.70979 0.0
C1807 C 0.75964 0.91056 0.74477 0.0
C1808 C 0.25884 0.06548 0.27352 0.0
C1809 C 0.24104 0.07696 0.27089 0.0
H1810 H 0.28759 0.05667 0.2612 0.0
C1811 C 0.23833 0.08791 0.25277 0.0
H1812 H 0.26133 0.05684 0.2873 0.0
C1813 C 0.2534 0.08781 0.23779 0.0
C1814 C 0.27142 0.07675 0.24068 0.0
H1815 H 0.22475 0.09688 0.25033 0.0
H1816 H 0.25109 0.0967 0.22414 0.0
C1817 C 0.27388 0.06538 0.25857 0.0
C1818 C 0.91035 0.25265 0.23783 0.0
C1819 C 0.92097 0.27092 0.24081 0.0
H1820 H 0.90169 0.22387 0.25036 0.0
C1821 C 0.93201 0.2737 0.25886 0.0
H1822 H 0.90173 0.25009 0.22405 0.0
C1823 C 0.93199 0.25873 0.27388 0.0
C1824 C 0.92093 0.24068 0.27116 0.0
H1825 H 0.94038 0.28761 0.26156 0.0
H1826 H 0.94034 0.26147 0.28779 0.0
C1827 C 0.91033 0.23765 0.25288 0.0
C1828 C 0.73877 0.93211 0.27404 0.0
C1829 C 0.75681 0.92106 0.27126 0.0
H1830 H 0.70987 0.94053 0.26181 0.0
C1831 C 0.7598 0.91049 0.25296 0.0
H1832 H 0.73607 0.94045 0.28797 0.0
C1833 C 0.74477 0.91054 0.23794 0.0
C1834 C 0.7265 0.92115 0.24098 0.0
H1835 H 0.77357 0.90186 0.25039 0.0
H1836 H 0.74729 0.90194 0.22414 0.0
C1837 C 0.72377 0.93216 0.25906 0.0
C1838 C 0.06498 0.72462 0.25853 0.0
C1839 C 0.07644 0.72705 0.2407 0.0
H1840 H 0.05637 0.73718 0.28724 0.0
C1841 C 0.08748 0.74508 0.23782 0.0
H1842 H 0.05627 0.7109 0.26115 0.0
C1843 C 0.08754 0.76016 0.25279 0.0
C1844 C 0.07655 0.75744 0.27088 0.0
H1845 H 0.09643 0.74737 0.2242 0.0
H1846 H 0.09652 0.77373 0.25037 0.0
C1847 C 0.06504 0.73966 0.27348 0.0
C1848 C 0.23808 0.91098 0.7448 0.0
C1849 C 0.24107 0.92169 0.72658 0.0
H1850 H 0.25059 0.9022 0.77355 0.0
C1851 C 0.25908 0.93281 0.72391 0.0
H1852 H 0.22433 0.90229 0.74728 0.0
C1853 C 0.27408 0.93275 0.7389 0.0
C1854 C 0.27136 0.92158 0.75688 0.0
H1855 H 0.26179 0.94126 0.71005 0.0
H1856 H 0.28797 0.94116 0.73623 0.0
C1857 C 0.25311 0.91092 0.75982 0.0
C1858 C 0.06495 0.25851 0.72413 0.0
C1859 C 0.07617 0.24055 0.72677 0.0
H1860 H 0.05652 0.28737 0.73646 0.0
C1861 C 0.08697 0.23763 0.74495 0.0
H1862 H 0.05644 0.26116 0.7103 0.0
C1863 C 0.08702 0.25267 0.75996 0.0
C1864 C 0.07627 0.27088 0.75703 0.0
H1865 H 0.09573 0.22392 0.74741 0.0
H1866 H 0.09581 0.25021 0.77365 0.0
C1867 C 0.065 0.27352 0.73911 0.0
C1868 C 0.74482 0.08711 0.76007 0.0
C1869 C 0.72659 0.07639 0.75716 0.0
H1870 H 0.77355 0.09582 0.74747 0.0
C1871 C 0.72387 0.06523 0.73918 0.0
H1872 H 0.74735 0.09582 0.7738 0.0
C1873 C 0.73883 0.06523 0.72415 0.0
C1874 C 0.75682 0.07639 0.7268 0.0
H1875 H 0.70999 0.05678 0.73653 0.0
H1876 H 0.73612 0.05678 0.71029 0.0
C1877 C 0.75981 0.0871 0.74501 0.0
C1878 C 0.9106 0.74495 0.76019 0.0
C1879 C 0.92133 0.72675 0.7572 0.0
H1880 H 0.9019 0.77375 0.74773 0.0
C1881 C 0.93256 0.72413 0.73925 0.0
H1882 H 0.90184 0.74739 0.7739 0.0
C1883 C 0.9326 0.73918 0.72431 0.0
C1884 C 0.92141 0.75715 0.72702 0.0
H1885 H 0.94102 0.71028 0.73655 0.0
H1886 H 0.94109 0.73656 0.71046 0.0
C1887 C 0.91064 0.76003 0.74522 0.0
C1888 C 0.25916 0.27356 0.06566 0.0
C1889 C 0.24109 0.27077 0.07665 0.0
H1890 H 0.28812 0.26135 0.05738 0.0
C1891 C 0.23809 0.25248 0.08725 0.0
H1892 H 0.26188 0.28747 0.0573 0.0
C1893 C 0.25315 0.23749 0.08729 0.0
C1894 C 0.27145 0.24054 0.07674 0.0
H1895 H 0.22429 0.24991 0.09583 0.0
H1896 H 0.25062 0.22371 0.09591 0.0
C1897 C 0.27419 0.2586 0.0657 0.0
C1898 C 0.25857 0.72391 0.93233 0.0
C1899 C 0.24054 0.72664 0.92126 0.0
H1900 H 0.28748 0.73617 0.94068 0.0
C1901 C 0.23757 0.74489 0.91059 0.0
H1902 H 0.26127 0.71002 0.94075 0.0
C1903 C 0.25261 0.75989 0.91055 0.0
C1904 C 0.27087 0.75689 0.92118 0.0
H1905 H 0.2238 0.74741 0.90193 0.0
H1906 H 0.2501 0.77364 0.90187 0.0
C1907 C 0.27359 0.73888 0.9323 0.0
C1908 C 0.23809 0.25249 0.91072 0.0
C1909 C 0.24105 0.27077 0.92134 0.0
H1910 H 0.25064 0.22371 0.90212 0.0
C1911 C 0.25906 0.27354 0.93244 0.0
H1912 H 0.22434 0.24994 0.90206 0.0
C1913 C 0.27407 0.25857 0.93248 0.0
C1914 C 0.27138 0.24052 0.92141 0.0
H1915 H 0.26174 0.28745 0.94081 0.0
H1916 H 0.28796 0.26131 0.94088 0.0
C1917 C 0.25314 0.23749 0.91076 0.0
C1918 C 0.72361 0.2589 0.93213 0.0
C1919 C 0.72633 0.24081 0.92116 0.0
H1920 H 0.73593 0.28782 0.94039 0.0
C1921 C 0.7446 0.23773 0.91057 0.0
H1922 H 0.7097 0.26168 0.94048 0.0
C1923 C 0.75965 0.25272 0.91051 0.0
C1924 C 0.75668 0.27104 0.92106 0.0
H1925 H 0.74712 0.22391 0.90199 0.0
H1926 H 0.77343 0.25012 0.9019 0.0
C1927 C 0.73863 0.27387 0.93208 0.0
C1928 C 0.72339 0.73864 0.93203 0.0
C1929 C 0.72618 0.75676 0.9211 0.0
H1930 H 0.73566 0.70971 0.94029 0.0
C1931 C 0.7445 0.75984 0.91059 0.0
H1932 H 0.70945 0.73586 0.94031 0.0
C1933 C 0.75954 0.74483 0.91058 0.0
C1934 C 0.7565 0.7265 0.92108 0.0
H1935 H 0.74707 0.77367 0.90205 0.0
H1936 H 0.77336 0.74743 0.90203 0.0
C1937 C 0.7384 0.72366 0.93202 0.0
C1938 C 0.73872 0.72405 0.0657 0.0
C1939 C 0.7568 0.72687 0.07667 0.0
H1940 H 0.70976 0.73623 0.0574 0.0
C1941 C 0.75979 0.74517 0.08724 0.0
H1942 H 0.73601 0.71012 0.05737 0.0
C1943 C 0.74473 0.76016 0.08726 0.0
C1944 C 0.72643 0.75708 0.07671 0.0
H1945 H 0.77359 0.74776 0.09581 0.0
H1946 H 0.74726 0.77396 0.09584 0.0
C1947 C 0.72369 0.73901 0.06571 0.0
C1948 C 0.2378 0.74476 0.08701 0.0
C1949 C 0.24076 0.72647 0.07642 0.0
H1950 H 0.25037 0.77354 0.09561 0.0
C1951 C 0.25879 0.72366 0.06537 0.0
H1952 H 0.22403 0.74735 0.09565 0.0
C1953 C 0.27383 0.73861 0.06535 0.0
C1954 C 0.27113 0.75668 0.07639 0.0
H1955 H 0.26147 0.70974 0.05702 0.0
H1956 H 0.28773 0.73585 0.05699 0.0
C1957 C 0.25287 0.75974 0.087 0.0
C1958 C 0.72325 0.25923 0.0657 0.0
C1959 C 0.726 0.24114 0.07667 0.0
H1960 H 0.73562 0.2881 0.05732 0.0
C1961 C 0.74433 0.23802 0.08715 0.0
H1962 H 0.7093 0.26204 0.05743 0.0
C1963 C 0.75942 0.25296 0.08708 0.0
C1964 C 0.75644 0.27128 0.07654 0.0
H1965 H 0.74686 0.2242 0.09571 0.0
H1966 H 0.77325 0.25033 0.0956 0.0
C1967 C 0.73832 0.27415 0.06563 0.0
C1968 C 0.56469 0.77324 0.75851 0.0
C1969 C 0.57618 0.77068 0.74071 0.0
H1970 H 0.55593 0.76084 0.78724 0.0
C1971 C 0.58714 0.75258 0.73794 0.0
H1972 H 0.55604 0.787 0.76104 0.0
C1973 C 0.58709 0.73757 0.75297 0.0
C1974 C 0.57606 0.74041 0.77102 0.0
H1975 H 0.59612 0.75019 0.72435 0.0
H1976 H 0.59602 0.72395 0.75063 0.0
C1977 C 0.56463 0.75825 0.77351 0.0
C1978 C 0.2447 0.58714 0.73774 0.0
C1979 C 0.22645 0.57647 0.74066 0.0
H1980 H 0.27344 0.59581 0.75034 0.0
C1981 C 0.22369 0.56533 0.75865 0.0
H1982 H 0.24724 0.59584 0.72401 0.0
C1983 C 0.23865 0.56531 0.77368 0.0
C1984 C 0.25667 0.57643 0.77103 0.0
H1985 H 0.2098 0.55691 0.7613 0.0
H1986 H 0.23592 0.55688 0.78755 0.0
C1987 C 0.25969 0.58712 0.7528 0.0
C1988 C 0.41061 0.24486 0.73788 0.0
C1989 C 0.42145 0.2267 0.74077 0.0
H1990 H 0.40176 0.27355 0.75047 0.0
C1991 C 0.43274 0.22409 0.75869 0.0
H1992 H 0.40179 0.24729 0.7242 0.0
C1993 C 0.43272 0.23908 0.77369 0.0
C1994 C 0.42141 0.25698 0.77107 0.0
H1995 H 0.44129 0.21027 0.76132 0.0
H1996 H 0.44126 0.23645 0.78751 0.0
C1997 C 0.41059 0.25988 0.75291 0.0
C1998 C 0.75885 0.43244 0.77384 0.0
C1999 C 0.74082 0.42137 0.77109 0.0
H2000 H 0.78776 0.44081 0.7616 0.0
C2001 C 0.73784 0.41074 0.75282 0.0
H2002 H 0.76154 0.44082 0.78774 0.0
C2003 C 0.75288 0.41073 0.73782 0.0
C2004 C 0.77115 0.42135 0.74084 0.0
H2005 H 0.72407 0.40209 0.75028 0.0
H2006 H 0.75037 0.40208 0.72405 0.0
C2007 C 0.77386 0.43243 0.75887 0.0
C2008 C 0.58695 0.24523 0.26014 0.0
C2009 C 0.57617 0.22704 0.2572 0.0
H2010 H 0.59567 0.27399 0.24763 0.0
C2011 C 0.56486 0.22445 0.23929 0.0
H2012 H 0.59578 0.24764 0.27381 0.0
C2013 C 0.56479 0.23949 0.22435 0.0
C2014 C 0.57604 0.25743 0.227 0.0
H2015 H 0.55635 0.21061 0.23663 0.0
H2016 H 0.55624 0.23688 0.21053 0.0
C2017 C 0.58688 0.2603 0.24516 0.0
C2018 C 0.7738 0.56515 0.23922 0.0
C2019 C 0.77119 0.57646 0.25712 0.0
H2020 H 0.76145 0.55659 0.21041 0.0
C2021 C 0.75304 0.58733 0.25999 0.0
H2022 H 0.78761 0.55658 0.23661 0.0
C2023 C 0.73803 0.58733 0.24495 0.0
C2024 C 0.74092 0.57647 0.2268 0.0
H2025 H 0.75061 0.59616 0.27366 0.0
H2026 H 0.72436 0.59618 0.24736 0.0
C2027 C 0.75882 0.56516 0.22421 0.0
C2028 C 0.41062 0.73756 0.24487 0.0
C2029 C 0.42153 0.74039 0.22675 0.0
H2030 H 0.40175 0.7502 0.27353 0.0
C2031 C 0.43294 0.75824 0.22417 0.0
H2032 H 0.40171 0.72393 0.24727 0.0
C2033 C 0.43296 0.77324 0.23917 0.0
C2034 C 0.42158 0.77069 0.25703 0.0
H2035 H 0.44155 0.76082 0.21039 0.0
H2036 H 0.44159 0.78701 0.23657 0.0
C2037 C 0.41064 0.75259 0.25989 0.0
C2038 C 0.25942 0.41076 0.24498 0.0
C2039 C 0.25645 0.42131 0.22667 0.0
H2040 H 0.24688 0.40219 0.27377 0.0
C2041 C 0.2384 0.43234 0.22385 0.0
H2042 H 0.2732 0.40214 0.24757 0.0
C2043 C 0.22337 0.43237 0.23881 0.0
C2044 C 0.22609 0.42137 0.25689 0.0
H2045 H 0.2357 0.44067 0.20991 0.0
H2046 H 0.20946 0.44072 0.23604 0.0
C2047 C 0.24436 0.41078 0.25997 0.0
C2048 C 0.73776 0.58713 0.75273 0.0
C2049 C 0.74067 0.57634 0.77091 0.0
H2050 H 0.75034 0.59592 0.72401 0.0
C2051 C 0.75861 0.5651 0.77356 0.0
H2052 H 0.72406 0.5959 0.75026 0.0
C2053 C 0.77362 0.56511 0.75858 0.0
C2054 C 0.77098 0.57636 0.74064 0.0
H2055 H 0.76126 0.55659 0.7874 0.0
H2056 H 0.78745 0.55661 0.76123 0.0
C2057 C 0.75279 0.58713 0.73771 0.0
C2058 C 0.43258 0.77348 0.75858 0.0
C2059 C 0.42134 0.77086 0.74063 0.0
H2060 H 0.44105 0.7611 0.78741 0.0
C2061 C 0.41053 0.7527 0.7377 0.0
H2062 H 0.4411 0.7873 0.76124 0.0
C2063 C 0.4105 0.73766 0.75271 0.0
C2064 C 0.42128 0.74055 0.7709 0.0
H2065 H 0.40175 0.75026 0.72399 0.0
H2066 H 0.4017 0.72398 0.75024 0.0
C2067 C 0.43254 0.75847 0.77356 0.0
C2068 C 0.23884 0.43239 0.77391 0.0
C2069 C 0.25685 0.42128 0.77118 0.0
H2070 H 0.20996 0.44082 0.76161 0.0
C2071 C 0.25983 0.41063 0.75293 0.0
H2072 H 0.23614 0.44079 0.7878 0.0
C2073 C 0.24481 0.41065 0.7379 0.0
C2074 C 0.22656 0.42131 0.74089 0.0
H2075 H 0.27358 0.40195 0.75041 0.0
H2076 H 0.24732 0.40198 0.72414 0.0
C2077 C 0.22385 0.43241 0.75891 0.0
C2078 C 0.56488 0.23904 0.77361 0.0
C2079 C 0.57618 0.25694 0.77097 0.0
H2080 H 0.55635 0.2102 0.7613 0.0
C2081 C 0.58705 0.25979 0.75282 0.0
H2082 H 0.5563 0.23645 0.78741 0.0
C2083 C 0.58708 0.24472 0.73784 0.0
C2084 C 0.57624 0.22657 0.74076 0.0
H2085 H 0.59588 0.27345 0.75037 0.0
H2086 H 0.59593 0.24712 0.72417 0.0
C2087 C 0.5649 0.224 0.75865 0.0
C2088 C 0.77354 0.4329 0.23889 0.0
C2089 C 0.77094 0.42154 0.25676 0.0
H2090 H 0.76117 0.44152 0.2101 0.0
C2091 C 0.75281 0.41065 0.2596 0.0
H2092 H 0.78734 0.44149 0.2363 0.0
C2093 C 0.73779 0.41066 0.24457 0.0
C2094 C 0.74067 0.42157 0.22645 0.0
H2095 H 0.75038 0.40177 0.27324 0.0
H2096 H 0.72414 0.4018 0.24696 0.0
C2097 C 0.75855 0.43292 0.22388 0.0
C2098 C 0.58719 0.75249 0.25978 0.0
C2099 C 0.57627 0.77062 0.25697 0.0
H2100 H 0.59605 0.72385 0.2471 0.0
C2101 C 0.56484 0.7732 0.23914 0.0
H2102 H 0.59612 0.75008 0.27339 0.0
C2103 C 0.5648 0.75822 0.22413 0.0
C2104 C 0.57619 0.74035 0.22665 0.0
H2105 H 0.55622 0.78698 0.23659 0.0
H2106 H 0.55615 0.76082 0.21038 0.0
C2107 C 0.58715 0.73749 0.24474 0.0
C2108 C 0.23874 0.56541 0.22415 0.0
C2109 C 0.25676 0.57652 0.22679 0.0
H2110 H 0.20989 0.55704 0.23655 0.0
C2111 C 0.25978 0.58724 0.24501 0.0
H2112 H 0.236 0.55696 0.2103 0.0
C2113 C 0.2448 0.58728 0.26007 0.0
C2114 C 0.22654 0.57661 0.25716 0.0
H2115 H 0.27355 0.59592 0.24746 0.0
H2116 H 0.24735 0.596 0.27379 0.0
C2117 C 0.22378 0.56546 0.23919 0.0
C2118 C 0.41054 0.2445 0.26058 0.0
C2119 C 0.42169 0.22652 0.25775 0.0
H2120 H 0.40137 0.27308 0.24797 0.0
C2121 C 0.43325 0.22416 0.23998 0.0
H2122 H 0.40151 0.24674 0.27415 0.0
C2123 C 0.43317 0.2392 0.22502 0.0
C2124 C 0.42153 0.2569 0.22755 0.0
H2125 H 0.44205 0.21049 0.23741 0.0
H2126 H 0.44191 0.23675 0.2113 0.0
C2127 C 0.41046 0.25957 0.2456 0.0
C2128 C 0.77422 0.75862 0.56527 0.0
C2129 C 0.77161 0.74061 0.5764 0.0
H2130 H 0.76175 0.78742 0.55682 0.0
C2131 C 0.75337 0.73752 0.58705 0.0
H2132 H 0.78809 0.76139 0.55686 0.0
C2133 C 0.73826 0.75245 0.58703 0.0
C2134 C 0.74113 0.77071 0.57635 0.0
H2135 H 0.75094 0.72377 0.59574 0.0
H2136 H 0.72452 0.74987 0.5957 0.0
C2137 C 0.75913 0.77352 0.56524 0.0
C2138 C 0.75283 0.26013 0.41086 0.0
C2139 C 0.77112 0.25713 0.42144 0.0
H2140 H 0.72405 0.2476 0.40222 0.0
C2141 C 0.77391 0.23908 0.43247 0.0
H2142 H 0.75027 0.27391 0.40225 0.0
C2143 C 0.75894 0.22406 0.43245 0.0
C2144 C 0.74089 0.22679 0.42141 0.0
H2145 H 0.78783 0.23637 0.44082 0.0
H2146 H 0.76169 0.21014 0.44079 0.0
C2147 C 0.73784 0.24508 0.41084 0.0
C2148 C 0.75354 0.73747 0.41057 0.0
C2149 C 0.77177 0.74056 0.42124 0.0
H2150 H 0.72469 0.74981 0.4019 0.0
C2151 C 0.77438 0.75858 0.43235 0.0
H2152 H 0.75111 0.7237 0.4019 0.0
C2153 C 0.75929 0.77349 0.43235 0.0
C2154 C 0.7413 0.77066 0.42124 0.0
H2155 H 0.78825 0.76136 0.44076 0.0
H2156 H 0.76191 0.78739 0.44076 0.0
C2157 C 0.73843 0.7524 0.41058 0.0
C2158 C 0.22379 0.75925 0.43226 0.0
C2159 C 0.22654 0.74117 0.42127 0.0
H2160 H 0.23608 0.78818 0.44054 0.0
C2161 C 0.24481 0.73812 0.41068 0.0
H2162 H 0.20988 0.76201 0.44061 0.0
C2163 C 0.25985 0.75313 0.41065 0.0
C2164 C 0.25685 0.77144 0.4212 0.0
H2165 H 0.24735 0.72431 0.4021 0.0
H2166 H 0.27363 0.75056 0.40203 0.0
C2167 C 0.2388 0.77424 0.43222 0.0
C2168 C 0.25928 0.24555 0.4108 0.0
C2169 C 0.25625 0.22716 0.4212 0.0
H2170 H 0.24675 0.27439 0.40235 0.0
C2171 C 0.23811 0.22422 0.43205 0.0
H2172 H 0.27312 0.24823 0.40233 0.0
C2173 C 0.22305 0.23915 0.43206 0.0
C2174 C 0.22583 0.25732 0.42122 0.0
H2175 H 0.23537 0.21022 0.44024 0.0
H2176 H 0.20908 0.23629 0.44027 0.0
C2177 C 0.24419 0.26051 0.41081 0.0
C2178 C 0.24463 0.26035 0.5871 0.0
C2179 C 0.22634 0.25723 0.57654 0.0
H2180 H 0.27351 0.24802 0.59569 0.0
C2181 C 0.22366 0.23915 0.56553 0.0
H2182 H 0.24711 0.27416 0.5957 0.0
C2183 C 0.23873 0.22423 0.56553 0.0
C2184 C 0.25679 0.22709 0.57653 0.0
H2185 H 0.20975 0.23634 0.5572 0.0
H2186 H 0.23606 0.21029 0.5572 0.0
C2187 C 0.25973 0.2454 0.5871 0.0
C2188 C 0.75288 0.26005 0.58705 0.0
C2189 C 0.77117 0.257 0.57648 0.0
H2190 H 0.72406 0.24761 0.59567 0.0
C2191 C 0.77392 0.23893 0.56548 0.0
H2192 H 0.75034 0.27385 0.59564 0.0
C2193 C 0.75892 0.22395 0.56549 0.0
C2194 C 0.74086 0.22674 0.5765 0.0
H2195 H 0.78784 0.23618 0.55714 0.0
H2196 H 0.76164 0.21002 0.55716 0.0
C2197 C 0.73785 0.24504 0.58706 0.0
C2198 C 0.25979 0.75316 0.58722 0.0
C2199 C 0.25684 0.77141 0.57656 0.0
H2200 H 0.24721 0.72442 0.59593 0.0
C2201 C 0.2388 0.77419 0.56551 0.0
H2202 H 0.27357 0.75059 0.59584 0.0
C2203 C 0.22375 0.75925 0.56557 0.0
C2204 C 0.22644 0.74123 0.57666 0.0
H2205 H 0.23612 0.78809 0.55711 0.0
H2206 H 0.20985 0.762 0.5572 0.0
C2207 C 0.24472 0.73819 0.58727 0.0
C2208 C 0.00912 0.17578 0.3108 0.0
C2209 C 0.01993 0.1852 0.32661 0.0
H2210 H 0.97997 0.16922 0.29798 0.0
C2211 C 0.00916 0.19336 0.34313 0.0
H2212 H 0.01702 0.16927 0.29791 0.0
C2213 C 0.98793 0.19333 0.34317 0.0
C2214 C 0.97713 0.18514 0.32669 0.0
H2215 H 0.0171 0.20064 0.35557 0.0
H2216 H 0.98002 0.20059 0.35564 0.0
C2217 C 0.9879 0.17575 0.31084 0.0
C2218 C 0.8217 0.98802 0.31091 0.0
C2219 C 0.81231 0.97722 0.32674 0.0
H2220 H 0.82818 0.01716 0.29803 0.0
C2221 C 0.8041 0.988 0.34323 0.0
H2222 H 0.82825 0.98011 0.29806 0.0
C2223 C 0.80405 0.00923 0.34321 0.0
C2224 C 0.81223 0.02003 0.32671 0.0
H2225 H 0.79683 0.98007 0.35568 0.0
H2226 H 0.79676 0.01715 0.35566 0.0
C2227 C 0.82166 0.00924 0.3109 0.0
C2228 C 0.98865 0.82237 0.31084 0.0
C2229 C 0.97789 0.81283 0.32661 0.0
H2230 H 0.01777 0.82905 0.29802 0.0
C2231 C 0.98869 0.8046 0.34306 0.0
H2232 H 0.98072 0.82894 0.29801 0.0
C2233 C 0.00992 0.80466 0.34307 0.0
C2234 C 0.02069 0.81296 0.32662 0.0
H2235 H 0.98079 0.79723 0.35548 0.0
H2236 H 0.01786 0.79734 0.35548 0.0
C2237 C 0.00987 0.82243 0.31085 0.0
C2238 C 0.19385 0.00996 0.34274 0.0
C2239 C 0.18562 0.02073 0.32626 0.0
H2240 H 0.20123 0.98082 0.35516 0.0
C2241 C 0.17625 0.00992 0.31043 0.0
H2242 H 0.2011 0.01789 0.3552 0.0
C2243 C 0.17633 0.9887 0.3104 0.0
C2244 C 0.18577 0.97793 0.32622 0.0
H2245 H 0.16969 0.01783 0.29757 0.0
H2246 H 0.16982 0.98078 0.29753 0.0
C2247 C 0.19393 0.98873 0.34272 0.0
C2248 C 0.00957 0.8052 0.65497 0.0
C2249 C 0.02036 0.81318 0.67156 0.0
H2250 H 0.98042 0.79803 0.64245 0.0
C2251 C 0.00956 0.82236 0.68752 0.0
H2252 H 0.01749 0.7981 0.64241 0.0
C2253 C 0.98834 0.82232 0.68754 0.0
C2254 C 0.97755 0.8131 0.6716 0.0
H2255 H 0.01748 0.82873 0.70046 0.0
H2256 H 0.98043 0.82866 0.7005 0.0
C2257 C 0.98834 0.80516 0.65499 0.0
C2258 C 0.19421 0.00983 0.65438 0.0
C2259 C 0.18579 0.02063 0.67075 0.0
H2260 H 0.20164 0.98067 0.64204 0.0
C2261 C 0.17613 0.00984 0.68643 0.0
H2262 H 0.20168 0.01775 0.64204 0.0
C2263 C 0.17611 0.98863 0.68643 0.0
C2264 C 0.18574 0.97782 0.67075 0.0
H2265 H 0.16942 0.01777 0.69919 0.0
H2266 H 0.16938 0.98072 0.69919 0.0
C2267 C 0.19419 0.9886 0.65438 0.0
C2268 C 0.9882 0.1933 0.65436 0.0
C2269 C 0.97739 0.185 0.67078 0.0
H2270 H 0.01737 0.20067 0.642 0.0
C2271 C 0.98816 0.17547 0.68655 0.0
H2272 H 0.9803 0.20066 0.64194 0.0
C2273 C 0.00938 0.17548 0.68659 0.0
C2274 C 0.02019 0.18501 0.67085 0.0
H2275 H 0.98022 0.16886 0.69936 0.0
H2276 H 0.01727 0.16887 0.69942 0.0
C2277 C 0.00943 0.1933 0.65439 0.0
C2278 C 0.80368 0.00941 0.65451 0.0
C2279 C 0.81205 0.02018 0.67093 0.0
H2280 H 0.79626 0.98028 0.6421 0.0
C2281 C 0.8216 0.00936 0.68666 0.0
H2282 H 0.79629 0.01736 0.64214 0.0
C2283 C 0.82158 0.98814 0.68664 0.0
C2284 C 0.81201 0.97737 0.67089 0.0
H2285 H 0.82826 0.01726 0.69946 0.0
H2286 H 0.82823 0.98021 0.69943 0.0
C2287 C 0.80366 0.98818 0.65449 0.0
C2288 C 0.31099 0.98803 0.17562 0.0
C2289 C 0.32706 0.97724 0.1846 0.0
H2290 H 0.29789 0.01714 0.16951 0.0
C2291 C 0.34374 0.98804 0.19238 0.0
H2292 H 0.29797 0.9801 0.1694 0.0
C2293 C 0.3437 0.00927 0.19243 0.0
C2294 C 0.32697 0.02004 0.18472 0.0
H2295 H 0.35639 0.98012 0.19932 0.0
H2296 H 0.35632 0.01721 0.19941 0.0
C2297 C 0.31094 0.00924 0.17568 0.0
C2298 C 0.98809 0.31055 0.17568 0.0
C2299 C 0.97726 0.3264 0.185 0.0
H2300 H 0.01726 0.29774 0.16919 0.0
C2301 C 0.988 0.34299 0.19305 0.0
H2302 H 0.98021 0.29761 0.16926 0.0
C2303 C 0.00923 0.34306 0.19301 0.0
C2304 C 0.02006 0.32655 0.18492 0.0
H2305 H 0.98005 0.35547 0.20025 0.0
H2306 H 0.01712 0.35559 0.20019 0.0
C2307 C 0.00931 0.31063 0.17564 0.0
C2308 C 0.65444 0.98831 0.19338 0.0
C2309 C 0.67098 0.97751 0.1853 0.0
H2310 H 0.64194 0.01748 0.20051 0.0
C2311 C 0.68683 0.98828 0.17592 0.0
H2312 H 0.64196 0.98039 0.20063 0.0
C2313 C 0.68681 0.0095 0.17585 0.0
C2314 C 0.67095 0.02031 0.18516 0.0
H2315 H 0.69973 0.98035 0.16946 0.0
H2316 H 0.6997 0.0174 0.16935 0.0
C2317 C 0.65443 0.00954 0.19331 0.0
C2318 C 0.00954 0.6545 0.19421 0.0
C2319 C 0.02034 0.67079 0.18562 0.0
H2320 H 0.98038 0.64222 0.20173 0.0
C2321 C 0.00956 0.68634 0.17577 0.0
H2322 H 0.01745 0.64225 0.20184 0.0
C2323 C 0.98834 0.68632 0.17571 0.0
C2324 C 0.97754 0.67075 0.1855 0.0
H2325 H 0.01748 0.69904 0.16892 0.0
H2326 H 0.98043 0.69901 0.16882 0.0
C2327 C 0.98832 0.65448 0.19415 0.0
C2328 C 0.31117 0.9882 0.822 0.0
C2329 C 0.327 0.97744 0.81259 0.0
H2330 H 0.29826 0.01732 0.82854 0.0
C2331 C 0.3435 0.98825 0.80443 0.0
H2332 H 0.2983 0.98027 0.82851 0.0
C2333 C 0.34348 0.00947 0.80446 0.0
C2334 C 0.32696 0.02024 0.81263 0.0
H2335 H 0.35596 0.98034 0.79716 0.0
H2336 H 0.35593 0.01742 0.7972 0.0
C2337 C 0.31115 0.00942 0.82202 0.0
C2338 C 0.00954 0.31089 0.82196 0.0
C2339 C 0.02033 0.32664 0.81243 0.0
H2340 H 0.98041 0.29805 0.82856 0.0
C2341 C 0.00954 0.34305 0.80408 0.0
H2342 H 0.01747 0.29809 0.82861 0.0
C2343 C 0.98831 0.34303 0.80405 0.0
C2344 C 0.97753 0.32659 0.81236 0.0
H2345 H 0.01745 0.35545 0.79671 0.0
H2346 H 0.98038 0.35541 0.79665 0.0
C2347 C 0.98832 0.31087 0.82193 0.0
C2348 C 0.65452 0.00939 0.80496 0.0
C2349 C 0.67117 0.02014 0.81289 0.0
H2350 H 0.64192 0.98026 0.79783 0.0
C2351 C 0.68714 0.00931 0.82201 0.0
H2352 H 0.64196 0.01735 0.79792 0.0
C2353 C 0.68712 0.9881 0.82196 0.0
C2354 C 0.67113 0.97734 0.81279 0.0
H2355 H 0.70012 0.0172 0.82833 0.0
H2356 H 0.70009 0.98016 0.82825 0.0
C2357 C 0.6545 0.98816 0.80491 0.0
C2358 C 0.9882 0.68641 0.82203 0.0
C2359 C 0.97739 0.67077 0.81235 0.0
H2360 H 0.01734 0.69916 0.82873 0.0
C2361 C 0.98816 0.65443 0.80383 0.0
H2362 H 0.98029 0.69915 0.82883 0.0
C2363 C 0.00938 0.65444 0.80377 0.0
C2364 C 0.02019 0.67078 0.81224 0.0
H2365 H 0.98022 0.64212 0.79634 0.0
H2366 H 0.01729 0.64213 0.79624 0.0
C2367 C 0.00941 0.68642 0.82198 0.0
C2368 C 0.1761 0.3102 0.00948 0.0
C2369 C 0.18537 0.32611 0.02027 0.0
H2370 H 0.16967 0.29729 0.98034 0.0
C2371 C 0.19339 0.34269 0.00949 0.0
H2372 H 0.1697 0.29727 0.01739 0.0
C2373 C 0.19337 0.3427 0.98826 0.0
C2374 C 0.18533 0.32614 0.97747 0.0
H2375 H 0.20055 0.35521 0.01741 0.0
H2376 H 0.20053 0.35523 0.98034 0.0
C2377 C 0.17608 0.31022 0.98826 0.0
C2378 C 0.17561 0.68706 0.98829 0.0
C2379 C 0.18485 0.67114 0.97748 0.0
H2380 H 0.16923 0.69999 0.01742 0.0
C2381 C 0.19286 0.65456 0.98826 0.0
H2382 H 0.16922 0.7 0.98038 0.0
C2383 C 0.19287 0.65455 0.00949 0.0
C2384 C 0.18487 0.67113 0.02029 0.0
H2385 H 0.2 0.64203 0.98033 0.0
H2386 H 0.20001 0.64201 0.01741 0.0
C2387 C 0.17562 0.68705 0.0095 0.0
C2388 C 0.31133 0.17567 0.0097 0.0
C2389 C 0.32711 0.18516 0.02049 0.0
H2390 H 0.2985 0.16905 0.98058 0.0
C2391 C 0.34356 0.19342 0.0097 0.0
H2392 H 0.2985 0.16908 0.01762 0.0
C2393 C 0.34356 0.1934 0.98847 0.0
C2394 C 0.32711 0.18512 0.97769 0.0
H2395 H 0.35598 0.20076 0.01762 0.0
H2396 H 0.35598 0.20073 0.98054 0.0
C2397 C 0.31133 0.17565 0.98849 0.0
C2398 C 0.80475 0.34289 0.98802 0.0
C2399 C 0.81257 0.32621 0.97724 0.0
H2400 H 0.79776 0.35551 0.01717 0.0
C2401 C 0.8216 0.31018 0.98804 0.0
H2402 H 0.79778 0.35551 0.98008 0.0
C2403 C 0.82159 0.31018 0.00925 0.0
C2404 C 0.81254 0.32621 0.02004 0.0
H2405 H 0.82784 0.29716 0.98013 0.0
H2406 H 0.82781 0.29716 0.01717 0.0
C2407 C 0.80474 0.34289 0.00925 0.0
C2408 C 0.65436 0.80492 0.00958 0.0
C2409 C 0.67103 0.81277 0.02034 0.0
H2410 H 0.64173 0.79787 0.98044 0.0
C2411 C 0.68704 0.82182 0.00952 0.0
H2412 H 0.64176 0.79793 0.01752 0.0
C2413 C 0.68703 0.82179 0.98831 0.0
C2414 C 0.67101 0.8127 0.97754 0.0
H2415 H 0.70005 0.82809 0.01741 0.0
H2416 H 0.70003 0.82803 0.98037 0.0
C2417 C 0.65434 0.80489 0.98834 0.0
C2418 C 0.82161 0.68746 0.00941 0.0
C2419 C 0.81245 0.67154 0.02026 0.0
H2420 H 0.82792 0.70035 0.98024 0.0
C2421 C 0.80445 0.65492 0.00953 0.0
H2422 H 0.82799 0.70043 0.01729 0.0
C2423 C 0.8044 0.65487 0.9883 0.0
C2424 C 0.81235 0.67144 0.97746 0.0
H2425 H 0.79736 0.64239 0.0175 0.0
H2426 H 0.79728 0.6423 0.98042 0.0
C2427 C 0.82157 0.68741 0.9882 0.0
C2428 C 0.3108 0.82165 0.00932 0.0
C2429 C 0.32666 0.81225 0.02007 0.0
H2430 H 0.29788 0.82821 0.98022 0.0
C2431 C 0.34316 0.80413 0.00925 0.0
H2432 H 0.29793 0.82813 0.01726 0.0
C2433 C 0.34313 0.80417 0.98802 0.0
C2434 C 0.3266 0.81234 0.97727 0.0
H2435 H 0.35564 0.79687 0.01714 0.0
H2436 H 0.35559 0.79694 0.98006 0.0
C2437 C 0.31078 0.82169 0.9881 0.0
C2438 C 0.6865 0.1761 0.98847 0.0
C2439 C 0.67067 0.18543 0.97762 0.0
H2440 H 0.69931 0.16967 0.01765 0.0
C2441 C 0.65412 0.1936 0.98835 0.0
H2442 H 0.6994 0.16959 0.9806 0.0
C2443 C 0.65407 0.19364 0.00958 0.0
C2444 C 0.67057 0.18553 0.02043 0.0
H2445 H 0.64166 0.20081 0.98038 0.0
H2446 H 0.64158 0.2009 0.01747 0.0
C2447 C 0.68645 0.17615 0.00969 0.0
C2448 C 0.48807 0.67547 0.81121 0.0
C2449 C 0.47724 0.6851 0.82687 0.0
H2450 H 0.51723 0.66876 0.79851 0.0
C2451 C 0.48798 0.69352 0.84327 0.0
H2452 H 0.48018 0.66875 0.79842 0.0
C2453 C 0.50921 0.69353 0.84332 0.0
C2454 C 0.52004 0.68512 0.82697 0.0
H2455 H 0.48003 0.70098 0.8556 0.0
H2456 H 0.5171 0.70099 0.85568 0.0
C2457 C 0.50928 0.67547 0.81126 0.0
C2458 C 0.32166 0.50945 0.81107 0.0
C2459 C 0.3121 0.52023 0.82682 0.0
H2460 H 0.32835 0.48032 0.79828 0.0
C2461 C 0.30382 0.50943 0.84326 0.0
H2462 H 0.32826 0.51737 0.79825 0.0
C2463 C 0.30387 0.48821 0.84328 0.0
C2464 C 0.31221 0.47742 0.82685 0.0
H2465 H 0.29643 0.51735 0.85565 0.0
H2466 H 0.29653 0.48027 0.85568 0.0
C2467 C 0.32171 0.48823 0.81109 0.0
C2468 C 0.50941 0.32201 0.81097 0.0
C2469 C 0.52022 0.31254 0.82674 0.0
H2470 H 0.48027 0.32859 0.79816 0.0
C2471 C 0.50945 0.3043 0.84322 0.0
H2472 H 0.51732 0.32858 0.79812 0.0
C2473 C 0.48822 0.3043 0.84324 0.0
C2474 C 0.47742 0.31254 0.82679 0.0
H2475 H 0.51738 0.29697 0.85564 0.0
H2476 H 0.48031 0.29697 0.85568 0.0
C2477 C 0.4882 0.32202 0.81099 0.0
C2478 C 0.67575 0.48821 0.81091 0.0
C2479 C 0.68521 0.47743 0.8267 0.0
H2480 H 0.66917 0.51734 0.79805 0.0
C2481 C 0.69345 0.48822 0.84316 0.0
H2482 H 0.66918 0.48029 0.79807 0.0
C2483 C 0.69345 0.50945 0.84315 0.0
C2484 C 0.68521 0.52023 0.82668 0.0
H2485 H 0.70077 0.4803 0.8556 0.0
H2486 H 0.70077 0.51738 0.85558 0.0
C2487 C 0.67574 0.50943 0.8109 0.0
C2488 C 0.48786 0.3046 0.15509 0.0
C2489 C 0.47709 0.31272 0.17163 0.0
H2490 H 0.51699 0.29747 0.14252 0.0
C2491 C 0.4879 0.32217 0.18742 0.0
H2492 H 0.47992 0.29729 0.14266 0.0
C2493 C 0.50912 0.32228 0.18734 0.0
C2494 C 0.51989 0.31292 0.17147 0.0
H2495 H 0.48 0.32865 0.20032 0.0
H2496 H 0.51705 0.32883 0.20018 0.0
C2497 C 0.50908 0.3047 0.15501 0.0
C2498 C 0.69406 0.48843 0.15425 0.0
C2499 C 0.68552 0.47762 0.17055 0.0
H2500 H 0.70166 0.5176 0.14203 0.0
C2501 C 0.67583 0.48839 0.18621 0.0
H2502 H 0.70156 0.48053 0.14192 0.0
C2503 C 0.67588 0.50961 0.18628 0.0
C2504 C 0.68563 0.52042 0.17068 0.0
H2505 H 0.66903 0.48046 0.19892 0.0
H2506 H 0.66912 0.51751 0.19903 0.0
C2507 C 0.69412 0.50966 0.15431 0.0
C2508 C 0.50942 0.69349 0.15429 0.0
C2509 C 0.52023 0.68504 0.17063 0.0
H2510 H 0.48025 0.70096 0.142 0.0
C2511 C 0.50947 0.67536 0.18631 0.0
H2512 H 0.51732 0.70098 0.14195 0.0
C2513 C 0.48825 0.67535 0.18634 0.0
C2514 C 0.47743 0.68502 0.17069 0.0
H2515 H 0.5174 0.66862 0.19905 0.0
H2516 H 0.48035 0.66861 0.19911 0.0
C2517 C 0.48819 0.69348 0.15432 0.0
C2518 C 0.30377 0.48814 0.15467 0.0
C2519 C 0.31208 0.47736 0.17111 0.0
H2520 H 0.2964 0.51728 0.14225 0.0
C2521 C 0.32159 0.48817 0.18687 0.0
H2522 H 0.29642 0.4802 0.14227 0.0
C2523 C 0.32158 0.50939 0.18685 0.0
C2524 C 0.31206 0.52017 0.17109 0.0
H2525 H 0.32821 0.48026 0.19969 0.0
H2526 H 0.3282 0.51731 0.19967 0.0
C2527 C 0.30376 0.50937 0.15466 0.0
C2528 C 0.81095 0.50944 0.67579 0.0
C2529 C 0.82677 0.52025 0.68518 0.0
H2530 H 0.79808 0.4803 0.6693 0.0
C2531 C 0.84327 0.50948 0.69337 0.0
H2532 H 0.79807 0.51735 0.66926 0.0
C2533 C 0.84328 0.48825 0.69339 0.0
C2534 C 0.82678 0.47745 0.68523 0.0
H2535 H 0.85573 0.51742 0.70063 0.0
H2536 H 0.85574 0.48034 0.70067 0.0
C2537 C 0.81095 0.48823 0.67581 0.0
C2538 C 0.50961 0.843 0.69359 0.0
C2539 C 0.52039 0.82657 0.68526 0.0
H2540 H 0.48046 0.8554 0.70097 0.0
C2541 C 0.50959 0.81085 0.67569 0.0
H2542 H 0.51754 0.85538 0.70099 0.0
C2543 C 0.48837 0.81086 0.67569 0.0
C2544 C 0.47759 0.8266 0.68524 0.0
H2545 H 0.51751 0.79804 0.66905 0.0
H2546 H 0.48045 0.79806 0.66904 0.0
C2547 C 0.48838 0.84301 0.69358 0.0
C2548 C 0.15445 0.50955 0.693 0.0
C2549 C 0.17103 0.52032 0.68495 0.0
H2550 H 0.14194 0.48041 0.70024 0.0
C2551 C 0.18695 0.5095 0.67574 0.0
H2552 H 0.14192 0.51749 0.70012 0.0
C2553 C 0.18696 0.48829 0.67581 0.0
C2554 C 0.17105 0.47752 0.6851 0.0
H2555 H 0.19988 0.5174 0.66932 0.0
H2556 H 0.1999 0.48036 0.66944 0.0
C2557 C 0.15447 0.48832 0.69307 0.0
C2558 C 0.48827 0.15435 0.69399 0.0
C2559 C 0.47752 0.1707 0.68546 0.0
H2560 H 0.51738 0.14199 0.70155 0.0
C2561 C 0.48835 0.18631 0.67574 0.0
H2562 H 0.48031 0.14207 0.70151 0.0
C2563 C 0.50957 0.18626 0.67576 0.0
C2564 C 0.52032 0.17061 0.6855 0.0
H2565 H 0.48047 0.19905 0.66895 0.0
H2566 H 0.51752 0.19897 0.66898 0.0
C2567 C 0.50949 0.15431 0.69401 0.0
C2568 C 0.81109 0.48818 0.32185 0.0
C2569 C 0.82684 0.4774 0.3123 0.0
H2570 H 0.79831 0.51731 0.32857 0.0
C2571 C 0.8433 0.4882 0.30405 0.0
H2572 H 0.79825 0.48026 0.32843 0.0
C2573 C 0.84333 0.50943 0.30414 0.0
C2574 C 0.8269 0.5202 0.31246 0.0
H2575 H 0.85569 0.48028 0.29667 0.0
H2576 H 0.85575 0.51736 0.29681 0.0
C2577 C 0.81112 0.5094 0.32193 0.0
C2578 C 0.50961 0.8108 0.32202 0.0
C2579 C 0.52042 0.8265 0.31245 0.0
H2580 H 0.48046 0.79803 0.32867 0.0
C2581 C 0.50965 0.84292 0.30409 0.0
H2582 H 0.51751 0.79799 0.32869 0.0
C2583 C 0.48843 0.84294 0.30408 0.0
C2584 C 0.47762 0.82655 0.31243 0.0
H2585 H 0.51759 0.85529 0.29668 0.0
H2586 H 0.48052 0.85533 0.29666 0.0
C2587 C 0.48839 0.81082 0.32202 0.0
C2588 C 0.15424 0.48853 0.30478 0.0
C2589 C 0.17081 0.47765 0.31269 0.0
H2590 H 0.1418 0.51776 0.2978 0.0
C2591 C 0.1868 0.48835 0.32192 0.0
H2592 H 0.14165 0.48068 0.29766 0.0
C2593 C 0.18689 0.50956 0.322 0.0
C2594 C 0.17098 0.52045 0.31286 0.0
H2595 H 0.19973 0.48036 0.32823 0.0
H2596 H 0.19988 0.5174 0.32837 0.0
C2597 C 0.15432 0.50976 0.30487 0.0
C2598 C 0.50972 0.15428 0.30376 0.0
C2599 C 0.52045 0.17056 0.31245 0.0
H2600 H 0.48062 0.14192 0.29615 0.0
C2601 C 0.5096 0.186 0.32242 0.0
H2602 H 0.51768 0.14212 0.29605 0.0
C2603 C 0.48838 0.18587 0.3225 0.0
C2604 C 0.47765 0.17032 0.31259 0.0
H2605 H 0.51747 0.19868 0.32935 0.0
H2606 H 0.48042 0.19847 0.32947 0.0
C2607 C 0.4885 0.15417 0.30382 0.0
C2608 C 0.6932 0.84249 0.48817 0.0
C2609 C 0.68528 0.82587 0.47738 0.0
H2610 H 0.70025 0.85507 0.51732 0.0
C2611 C 0.67609 0.80992 0.48817 0.0
H2612 H 0.7003 0.85505 0.48025 0.0
C2613 C 0.67605 0.80993 0.50939 0.0
C2614 C 0.68521 0.8259 0.52019 0.0
H2615 H 0.66976 0.79695 0.48026 0.0
H2616 H 0.66971 0.79697 0.51731 0.0
C2617 C 0.69317 0.84251 0.5094 0.0
C2618 C 0.67592 0.1871 0.48828 0.0
C2619 C 0.68528 0.17123 0.47751 0.0
H2620 H 0.66941 0.2 0.5174 0.0
C2621 C 0.6934 0.15471 0.48832 0.0
H2622 H 0.66945 0.19998 0.48036 0.0
C2623 C 0.69337 0.15472 0.50954 0.0
C2624 C 0.68523 0.17125 0.52031 0.0
H2625 H 0.70063 0.14223 0.48041 0.0
H2626 H 0.70058 0.14224 0.51748 0.0
C2627 C 0.6759 0.18711 0.5095 0.0
C2628 C 0.81202 0.67578 0.50955 0.0
C2629 C 0.82769 0.68544 0.52034 0.0
H2630 H 0.79927 0.66902 0.48042 0.0
C2631 C 0.84406 0.69387 0.50955 0.0
H2632 H 0.79925 0.66906 0.51747 0.0
C2633 C 0.84408 0.69384 0.48832 0.0
C2634 C 0.82771 0.68539 0.47754 0.0
H2635 H 0.8564 0.70134 0.51748 0.0
H2636 H 0.85642 0.70129 0.4804 0.0
C2637 C 0.81203 0.67575 0.48833 0.0
C2638 C 0.30453 0.84334 0.48815 0.0
C2639 C 0.31258 0.82679 0.47735 0.0
H2640 H 0.29737 0.85582 0.51732 0.0
C2641 C 0.32187 0.81088 0.48812 0.0
H2642 H 0.29735 0.85585 0.48024 0.0
C2643 C 0.32188 0.81086 0.50934 0.0
C2644 C 0.31261 0.82675 0.52015 0.0
H2645 H 0.3283 0.79797 0.48019 0.0
H2646 H 0.32831 0.79793 0.51724 0.0
C2647 C 0.30454 0.84332 0.50938 0.0
C2648 C 0.15382 0.30449 0.48836 0.0
C2649 C 0.17026 0.31273 0.47753 0.0
H2650 H 0.14148 0.29713 0.51754 0.0
C2651 C 0.18609 0.32216 0.48829 0.0
H2652 H 0.14136 0.29719 0.48046 0.0
C2653 C 0.18617 0.32213 0.50951 0.0
C2654 C 0.1704 0.31266 0.52033 0.0
H2655 H 0.19892 0.32874 0.48034 0.0
H2656 H 0.19904 0.32868 0.51739 0.0
C2657 C 0.15389 0.30445 0.50959 0.0
C2658 C 0.32157 0.18808 0.50935 0.0
C2659 C 0.31257 0.17205 0.52017 0.0
H2660 H 0.32768 0.20111 0.4802 0.0
C2661 C 0.30468 0.15539 0.50941 0.0
H2662 H 0.32786 0.20108 0.51724 0.0
C2663 C 0.30458 0.15541 0.48818 0.0
C2664 C 0.31235 0.17209 0.47737 0.0
H2665 H 0.29772 0.14277 0.51736 0.0
H2666 H 0.29754 0.14281 0.48028 0.0
C2667 C 0.32147 0.1881 0.48813 0.0
C2668 C 0.84325 0.30485 0.48824 0.0
C2669 C 0.82667 0.31288 0.47746 0.0
H2670 H 0.85578 0.29765 0.51738 0.0
C2671 C 0.81076 0.32212 0.48827 0.0
H2672 H 0.85578 0.29771 0.4803 0.0
C2673 C 0.81076 0.32208 0.50949 0.0
C2674 C 0.82667 0.31281 0.52027 0.0
H2675 H 0.79783 0.32853 0.48037 0.0
H2676 H 0.79783 0.32847 0.51741 0.0
C2677 C 0.84325 0.30481 0.50947 0.0
C2678 C 0.15439 0.6939 0.50961 0.0
C2679 C 0.17088 0.68575 0.52043 0.0
H2680 H 0.14196 0.70113 0.48043 0.0
C2681 C 0.18673 0.67635 0.50966 0.0
H2682 H 0.14192 0.70117 0.51752 0.0
C2683 C 0.18675 0.67633 0.48844 0.0
C2684 C 0.17093 0.6857 0.47762 0.0
H2685 H 0.19959 0.66984 0.51759 0.0
H2686 H 0.19964 0.6698 0.48055 0.0
C2687 C 0.15441 0.69388 0.48838 0.0
C2688 C 0.13738 0.12272 0.33616 0.0
C2689 C 0.14644 0.11655 0.31785 0.0
H2690 H 0.11612 0.14269 0.3506 0.0
C2691 C 0.1394 0.12483 0.29948 0.0
H2692 H 0.14246 0.11655 0.35055 0.0
C2693 C 0.12434 0.13978 0.29951 0.0
C2694 C 0.11603 0.14672 0.3179 0.0
H2695 H 0.14604 0.12032 0.28512 0.0
H2696 H 0.11974 0.1464 0.28517 0.0
C2697 C 0.1223 0.13768 0.33619 0.0
C2698 C 0.87291 0.13937 0.29983 0.0
C2699 C 0.88124 0.1463 0.31821 0.0
H2700 H 0.85127 0.11983 0.28547 0.0
C2701 C 0.87512 0.13716 0.3365 0.0
H2702 H 0.8774 0.14607 0.28549 0.0
C2703 C 0.86013 0.1221 0.33649 0.0
C2704 C 0.85103 0.11595 0.31819 0.0
H2705 H 0.88132 0.14217 0.35089 0.0
H2706 H 0.85513 0.11587 0.35087 0.0
C2707 C 0.85794 0.12433 0.29982 0.0
C2708 C 0.87341 0.8582 0.29973 0.0
C2709 C 0.88178 0.85127 0.31809 0.0
H2710 H 0.85165 0.87765 0.28541 0.0
C2711 C 0.87558 0.86031 0.3364 0.0
H2712 H 0.87795 0.85157 0.28537 0.0
C2713 C 0.8605 0.87527 0.33642 0.0
C2714 C 0.85137 0.88142 0.31814 0.0
H2715 H 0.88181 0.8553 0.35078 0.0
H2716 H 0.85546 0.88143 0.35083 0.0
C2717 C 0.85834 0.87313 0.29975 0.0
C2718 C 0.12288 0.8608 0.33614 0.0
C2719 C 0.1167 0.85168 0.31786 0.0
H2720 H 0.14291 0.88206 0.35049 0.0
C2721 C 0.12503 0.85859 0.29948 0.0
H2722 H 0.11668 0.85581 0.35055 0.0
C2723 C 0.14003 0.8736 0.29945 0.0
C2724 C 0.14697 0.88198 0.3178 0.0
H2725 H 0.1205 0.8519 0.28514 0.0
H2726 H 0.14669 0.8781 0.28509 0.0
C2727 C 0.13789 0.87583 0.33611 0.0
C2728 C 0.13988 0.8736 0.69808 0.0
C2729 C 0.14678 0.88191 0.67967 0.0
H2730 H 0.12037 0.85199 0.71253 0.0
C2731 C 0.13761 0.87573 0.66142 0.0
H2732 H 0.14661 0.87813 0.7124 0.0
C2733 C 0.12255 0.86074 0.66149 0.0
C2734 C 0.11643 0.85168 0.67982 0.0
H2735 H 0.14258 0.8819 0.647 0.0
H2736 H 0.11628 0.85572 0.64713 0.0
C2737 C 0.12485 0.85863 0.69816 0.0
C2738 C 0.13976 0.12463 0.69785 0.0
C2739 C 0.14681 0.11642 0.67946 0.0
H2740 H 0.12006 0.14612 0.71224 0.0
C2741 C 0.13774 0.12262 0.66116 0.0
H2742 H 0.14641 0.12008 0.7122 0.0
C2743 C 0.12263 0.13755 0.66119 0.0
C2744 C 0.11635 0.14652 0.6795 0.0
H2745 H 0.14284 0.11651 0.64676 0.0
H2746 H 0.11644 0.1426 0.6468 0.0
C2747 C 0.12467 0.13954 0.69787 0.0
C2748 C 0.87511 0.1373 0.66113 0.0
C2749 C 0.88137 0.14636 0.67941 0.0
H2750 H 0.855 0.11612 0.64678 0.0
C2751 C 0.8731 0.13938 0.69781 0.0
H2752 H 0.88126 0.14235 0.64672 0.0
C2753 C 0.8581 0.12438 0.69784 0.0
C2754 C 0.85107 0.11608 0.67948 0.0
H2755 H 0.87769 0.14601 0.71215 0.0
H2756 H 0.85149 0.11983 0.71221 0.0
C2757 C 0.86009 0.12229 0.66116 0.0
C2758 C 0.87541 0.86054 0.66153 0.0
C2759 C 0.88152 0.85147 0.67987 0.0
H2760 H 0.85535 0.88167 0.64703 0.0
C2761 C 0.87305 0.85838 0.69819 0.0
H2762 H 0.88171 0.85555 0.64718 0.0
C2763 C 0.85798 0.87332 0.69811 0.0
C2764 C 0.8511 0.88162 0.6797 0.0
H2765 H 0.87752 0.85174 0.71257 0.0
H2766 H 0.85122 0.87781 0.71242 0.0
C2767 C 0.86032 0.87549 0.66145 0.0
C2768 C 0.3002 0.13885 0.12421 0.0
C2769 C 0.31857 0.14589 0.11595 0.0
H2770 H 0.28587 0.11923 0.14579 0.0
C2771 C 0.33688 0.1368 0.12209 0.0
H2772 H 0.28584 0.14551 0.1197 0.0
C2773 C 0.3369 0.12173 0.13706 0.0
C2774 C 0.3186 0.11551 0.14612 0.0
H2775 H 0.35127 0.14188 0.11593 0.0
H2776 H 0.3513 0.11555 0.14209 0.0
C2777 C 0.30022 0.1238 0.13915 0.0
C2778 C 0.87558 0.33599 0.13687 0.0
C2779 C 0.88154 0.31772 0.14615 0.0
H2780 H 0.85572 0.3504 0.11549 0.0
C2781 C 0.87303 0.29937 0.13936 0.0
H2782 H 0.88193 0.35036 0.14176 0.0
C2783 C 0.85804 0.29939 0.12434 0.0
C2784 C 0.85129 0.31776 0.11583 0.0
H2785 H 0.87738 0.28504 0.14617 0.0
H2786 H 0.85122 0.28507 0.11995 0.0
C2787 C 0.86058 0.33601 0.12183 0.0
C2788 C 0.66118 0.87576 0.13726 0.0
C2789 C 0.67947 0.88186 0.14641 0.0
H2790 H 0.64677 0.85578 0.11599 0.0
C2791 C 0.69784 0.87349 0.13948 0.0
H2792 H 0.64679 0.88199 0.14226 0.0
C2793 C 0.69783 0.85851 0.12446 0.0
C2794 C 0.67945 0.85161 0.11609 0.0
H2795 H 0.71218 0.87797 0.14618 0.0
H2796 H 0.71217 0.85181 0.11996 0.0
C2797 C 0.66117 0.86076 0.12222 0.0
C2798 C 0.13731 0.66124 0.12254 0.0
C2799 C 0.14631 0.67955 0.11627 0.0
H2800 H 0.11623 0.64684 0.14272 0.0
C2801 C 0.13932 0.69793 0.12456 0.0
H2802 H 0.14236 0.64684 0.11638 0.0
C2803 C 0.12437 0.69792 0.13961 0.0
C2804 C 0.11614 0.67954 0.14667 0.0
H2805 H 0.14591 0.71229 0.11996 0.0
H2806 H 0.11981 0.71228 0.14624 0.0
C2807 C 0.12235 0.66124 0.13762 0.0
C2808 C 0.33649 0.87535 0.86033 0.0
C2809 C 0.31823 0.88153 0.85117 0.0
H2810 H 0.3508 0.85529 0.88159 0.0
C2811 C 0.29983 0.8732 0.85805 0.0
H2812 H 0.35091 0.88155 0.85536 0.0
C2813 C 0.29977 0.85819 0.87304 0.0
C2814 C 0.31811 0.85123 0.88144 0.0
H2815 H 0.28551 0.87774 0.85134 0.0
H2816 H 0.2854 0.85153 0.87751 0.0
C2817 C 0.33643 0.86032 0.87534 0.0
C2818 C 0.13748 0.33608 0.87543 0.0
C2819 C 0.14661 0.31777 0.88151 0.0
H2820 H 0.11623 0.35053 0.85546 0.0
C2821 C 0.13971 0.29943 0.87307 0.0
H2822 H 0.14247 0.35045 0.88171 0.0
C2823 C 0.12471 0.29947 0.85807 0.0
C2824 C 0.11633 0.31786 0.85122 0.0
H2825 H 0.14641 0.28507 0.87753 0.0
H2826 H 0.12022 0.28515 0.85133 0.0
C2827 C 0.12247 0.33613 0.8604 0.0
C2828 C 0.66117 0.13704 0.87581 0.0
C2829 C 0.67943 0.14621 0.88196 0.0
H2830 H 0.64684 0.11575 0.85579 0.0
C2831 C 0.69783 0.1393 0.87366 0.0
H2832 H 0.64676 0.14203 0.882 0.0
C2833 C 0.69788 0.12428 0.85867 0.0
C2834 C 0.67953 0.11589 0.85172 0.0
H2835 H 0.71216 0.14602 0.87817 0.0
H2836 H 0.71224 0.11979 0.85201 0.0
C2837 C 0.66122 0.122 0.86081 0.0
C2838 C 0.87311 0.69798 0.85826 0.0
C2839 C 0.88149 0.6796 0.85138 0.0
H2840 H 0.8514 0.71236 0.87771 0.0
C2841 C 0.87534 0.66132 0.86053 0.0
H2842 H 0.87762 0.71232 0.85155 0.0
C2843 C 0.86031 0.66135 0.87554 0.0
C2844 C 0.85117 0.67965 0.88163 0.0
H2845 H 0.88158 0.64693 0.85557 0.0
H2846 H 0.85531 0.64697 0.88179 0.0
C2847 C 0.8581 0.69801 0.87324 0.0
C2848 C 0.13956 0.29951 0.12452 0.0
C2849 C 0.14651 0.31784 0.11609 0.0
H2850 H 0.12 0.28526 0.14622 0.0
C2851 C 0.13738 0.33616 0.12214 0.0
H2852 H 0.14625 0.28514 0.12009 0.0
C2853 C 0.12233 0.33623 0.13713 0.0
C2854 C 0.11616 0.31798 0.14631 0.0
H2855 H 0.14241 0.35052 0.11587 0.0
H2856 H 0.1161 0.35065 0.14206 0.0
C2857 C 0.12452 0.29958 0.13948 0.0
C2858 C 0.13719 0.66121 0.87526 0.0
C2859 C 0.14619 0.67953 0.88151 0.0
H2860 H 0.11609 0.64679 0.85512 0.0
C2861 C 0.1392 0.6979 0.8732 0.0
H2862 H 0.14225 0.64683 0.88144 0.0
C2863 C 0.12425 0.69788 0.85816 0.0
C2864 C 0.11601 0.67949 0.85113 0.0
H2865 H 0.1458 0.71226 0.87778 0.0
H2866 H 0.11969 0.71223 0.85151 0.0
C2867 C 0.12222 0.66119 0.86019 0.0
C2868 C 0.33678 0.1371 0.87564 0.0
C2869 C 0.31849 0.14614 0.88189 0.0
H2870 H 0.35115 0.11595 0.85551 0.0
C2871 C 0.3001 0.13915 0.87362 0.0
H2872 H 0.35118 0.14215 0.8818 0.0
C2873 C 0.30008 0.12418 0.85859 0.0
C2874 C 0.31844 0.11591 0.85155 0.0
H2875 H 0.28575 0.14578 0.8782 0.0
H2876 H 0.28571 0.11964 0.85197 0.0
C2877 C 0.33676 0.1221 0.8606 0.0
C2878 C 0.87316 0.29947 0.85794 0.0
C2879 C 0.88158 0.31784 0.85108 0.0
H2880 H 0.85141 0.28512 0.87737 0.0
C2881 C 0.87548 0.33612 0.86026 0.0
H2882 H 0.87763 0.28513 0.8512 0.0
C2883 C 0.86045 0.33611 0.87526 0.0
C2884 C 0.85127 0.31782 0.88134 0.0
H2885 H 0.88175 0.35051 0.85531 0.0
H2886 H 0.85549 0.35049 0.88153 0.0
C2887 C 0.85814 0.29946 0.87292 0.0
C2888 C 0.6612 0.87567 0.86073 0.0
C2889 C 0.67949 0.88166 0.8515 0.0
H2890 H 0.64678 0.85577 0.88207 0.0
C2891 C 0.69784 0.87319 0.85834 0.0
H2892 H 0.64683 0.88199 0.8558 0.0
C2893 C 0.69781 0.85821 0.87336 0.0
C2894 C 0.67943 0.85142 0.88181 0.0
H2895 H 0.71218 0.87758 0.85157 0.0
H2896 H 0.71213 0.85142 0.87778 0.0
C2897 C 0.66118 0.86067 0.87577 0.0
C2898 C 0.86051 0.66158 0.12224 0.0
C2899 C 0.85144 0.67991 0.11612 0.0
H2900 H 0.88169 0.6471 0.14226 0.0
C2901 C 0.85839 0.69825 0.12453 0.0
H2902 H 0.85549 0.64722 0.11598 0.0
C2903 C 0.87337 0.69818 0.13955 0.0
C2904 C 0.88168 0.67977 0.14646 0.0
H2905 H 0.85174 0.71262 0.12005 0.0
H2906 H 0.8779 0.7125 0.14628 0.0
C2907 C 0.87551 0.66152 0.13728 0.0
C2908 C 0.30004 0.85805 0.12419 0.0
C2909 C 0.31837 0.85111 0.11578 0.0
H2910 H 0.28577 0.87757 0.14592 0.0
C2911 C 0.33669 0.86024 0.12183 0.0
H2912 H 0.28567 0.85136 0.11976 0.0
C2913 C 0.33675 0.87528 0.13684 0.0
C2914 C 0.31849 0.88142 0.14603 0.0
H2915 H 0.35106 0.85523 0.11556 0.0
H2916 H 0.35116 0.88151 0.14178 0.0
C2917 C 0.3001 0.87306 0.13918 0.0
C2918 C 0.66094 0.13738 0.12224 0.0
C2919 C 0.67918 0.14662 0.11614 0.0
H2920 H 0.64666 0.11599 0.14219 0.0
C2921 C 0.69759 0.13975 0.12446 0.0
H2922 H 0.64652 0.14233 0.11605 0.0
C2923 C 0.69767 0.12469 0.1394 0.0
C2924 C 0.67934 0.11622 0.1463 0.0
H2925 H 0.7119 0.14652 0.11998 0.0
H2926 H 0.71204 0.12024 0.14607 0.0
C2927 C 0.66102 0.1223 0.1372 0.0
C2928 C 0.62435 0.63944 0.79994 0.0
C2929 C 0.61615 0.64647 0.81834 0.0
H2930 H 0.64592 0.61986 0.78552 0.0
C2931 C 0.62248 0.63748 0.83663 0.0
H2932 H 0.6197 0.64602 0.78559 0.0
C2933 C 0.63751 0.62247 0.83659 0.0
C2934 C 0.64646 0.61621 0.81825 0.0
H2935 H 0.61638 0.64256 0.85105 0.0
H2936 H 0.64264 0.61634 0.85097 0.0
C2937 C 0.63937 0.62445 0.7999 0.0
C2938 C 0.35796 0.62435 0.79978 0.0
C2939 C 0.35096 0.61609 0.81817 0.0
H2940 H 0.37755 0.64593 0.78539 0.0
C2941 C 0.36003 0.62231 0.83646 0.0
H2942 H 0.35131 0.61979 0.78543 0.0
C2943 C 0.37507 0.63731 0.83643 0.0
C2944 C 0.3813 0.64633 0.81812 0.0
H2945 H 0.35497 0.61617 0.85086 0.0
H2946 H 0.38125 0.64237 0.85082 0.0
C2947 C 0.37299 0.63932 0.79975 0.0
C2948 C 0.37315 0.35817 0.79987 0.0
C2949 C 0.38147 0.3512 0.81825 0.0
H2950 H 0.35151 0.37771 0.78552 0.0
C2951 C 0.37528 0.36027 0.83655 0.0
H2952 H 0.37769 0.35151 0.78552 0.0
C2953 C 0.36027 0.3753 0.83655 0.0
C2954 C 0.3512 0.3815 0.81825 0.0
H2955 H 0.38147 0.35524 0.85094 0.0
H2956 H 0.35524 0.38149 0.85094 0.0
C2957 C 0.35816 0.37318 0.79987 0.0
C2958 C 0.62455 0.35811 0.79971 0.0
C2959 C 0.61621 0.35116 0.81808 0.0
H2960 H 0.64622 0.37763 0.78537 0.0
C2961 C 0.62239 0.36024 0.83638 0.0
H2962 H 0.62003 0.35144 0.78536 0.0
C2963 C 0.6374 0.37526 0.83639 0.0
C2964 C 0.6465 0.38144 0.81809 0.0
H2965 H 0.61618 0.35522 0.85077 0.0
H2966 H 0.64242 0.38147 0.85078 0.0
C2967 C 0.63955 0.37311 0.79972 0.0
C2968 C 0.63739 0.37543 0.16111 0.0
C2969 C 0.64648 0.38171 0.17938 0.0
H2970 H 0.61609 0.35538 0.14685 0.0
C2971 C 0.63948 0.37355 0.1978 0.0
H2972 H 0.64245 0.3815 0.14668 0.0
C2973 C 0.62441 0.35861 0.1979 0.0
C2974 C 0.61606 0.35156 0.17957 0.0
H2975 H 0.64614 0.37815 0.21213 0.0
H2976 H 0.61984 0.35208 0.2123 0.0
C2977 C 0.6223 0.36048 0.16121 0.0
C2978 C 0.62275 0.63753 0.16098 0.0
C2979 C 0.61635 0.64644 0.17929 0.0
H2980 H 0.643 0.61649 0.14662 0.0
C2981 C 0.62452 0.63937 0.19769 0.0
H2982 H 0.61667 0.64265 0.14657 0.0
C2983 C 0.63957 0.62442 0.19772 0.0
C2984 C 0.64673 0.61625 0.17935 0.0
H2985 H 0.61983 0.6459 0.21205 0.0
H2986 H 0.6461 0.61979 0.2121 0.0
C2987 C 0.63781 0.62255 0.16101 0.0
C2988 C 0.3751 0.63732 0.1612 0.0
C2989 C 0.38139 0.64632 0.1795 0.0
H2990 H 0.35495 0.6162 0.14681 0.0
C2991 C 0.37313 0.63932 0.19789 0.0
H2992 H 0.38124 0.64239 0.1468 0.0
C2993 C 0.35809 0.62435 0.1979 0.0
C2994 C 0.35104 0.6161 0.17952 0.0
H2995 H 0.37774 0.64591 0.21224 0.0
H2996 H 0.35149 0.61977 0.21226 0.0
C2997 C 0.36005 0.62233 0.16121 0.0
C2998 C 0.375 0.36003 0.16188 0.0
C2999 C 0.38108 0.35094 0.18022 0.0
H3000 H 0.35508 0.38128 0.14738 0.0
C3001 C 0.37266 0.35791 0.19854 0.0
H3002 H 0.38127 0.355 0.14752 0.0
C3003 C 0.35769 0.37294 0.19846 0.0
C3004 C 0.35085 0.38129 0.18005 0.0
H3005 H 0.37711 0.35125 0.21292 0.0
H3006 H 0.35096 0.37749 0.21278 0.0
C3007 C 0.36001 0.37508 0.1618 0.0
C3008 C 0.837 0.63739 0.62249 0.0
C3009 C 0.81874 0.64646 0.61618 0.0
H3010 H 0.85124 0.61616 0.64262 0.0
C3011 C 0.8003 0.63947 0.62434 0.0
H3012 H 0.85143 0.64244 0.61642 0.0
C3013 C 0.8002 0.62445 0.63932 0.0
C3014 C 0.81852 0.61613 0.64641 0.0
H3015 H 0.78598 0.64612 0.6197 0.0
H3016 H 0.7858 0.61989 0.64585 0.0
C3017 C 0.83689 0.62234 0.63748 0.0
C3018 C 0.35843 0.79978 0.6243 0.0
C3019 C 0.3515 0.81817 0.61598 0.0
H3020 H 0.37791 0.78539 0.64598 0.0
C3021 C 0.36062 0.83645 0.62217 0.0
H3022 H 0.35174 0.78544 0.61977 0.0
C3023 C 0.37563 0.83642 0.6372 0.0
C3024 C 0.38176 0.81811 0.6463 0.0
H3025 H 0.35562 0.85085 0.61598 0.0
H3026 H 0.38184 0.8508 0.64224 0.0
C3027 C 0.37342 0.79975 0.63932 0.0
C3028 C 0.16098 0.36062 0.62235 0.0
C3029 C 0.17925 0.35152 0.61613 0.0
H3030 H 0.14666 0.38184 0.64245 0.0
C3031 C 0.19765 0.35845 0.62441 0.0
H3032 H 0.14656 0.35561 0.61618 0.0
C3033 C 0.1977 0.37344 0.63942 0.0
C3034 C 0.17936 0.38177 0.64643 0.0
H3035 H 0.21198 0.35178 0.61985 0.0
H3036 H 0.21208 0.37794 0.64606 0.0
C3037 C 0.16103 0.37563 0.63738 0.0
C3038 C 0.63742 0.16128 0.62245 0.0
C3039 C 0.64646 0.17961 0.6163 0.0
H3040 H 0.61627 0.14679 0.6425 0.0
C3041 C 0.63951 0.19794 0.62471 0.0
H3042 H 0.64245 0.14691 0.61619 0.0
C3043 C 0.62454 0.19787 0.63975 0.0
C3044 C 0.61626 0.17946 0.64667 0.0
H3045 H 0.64614 0.21232 0.62022 0.0
H3046 H 0.62001 0.2122 0.64647 0.0
C3047 C 0.62244 0.16121 0.63751 0.0
C3048 C 0.83644 0.36044 0.37515 0.0
C3049 C 0.81814 0.35139 0.38138 0.0
H3050 H 0.85083 0.38157 0.35502 0.0
C3051 C 0.79977 0.35832 0.37302 0.0
H3052 H 0.85083 0.35543 0.38137 0.0
C3053 C 0.79977 0.37326 0.35796 0.0
C3054 C 0.81814 0.38155 0.35097 0.0
H3055 H 0.78541 0.35168 0.37758 0.0
H3056 H 0.78542 0.37777 0.35129 0.0
C3057 C 0.83644 0.3754 0.36007 0.0
C3058 C 0.63981 0.79915 0.37298 0.0
C3059 C 0.64672 0.8175 0.38141 0.0
H3060 H 0.6203 0.78487 0.35125 0.0
C3061 C 0.6376 0.83581 0.37531 0.0
H3062 H 0.6465 0.78479 0.37744 0.0
C3063 C 0.62259 0.83585 0.36029 0.0
C3064 C 0.61644 0.81759 0.35112 0.0
H3065 H 0.6426 0.85018 0.38159 0.0
H3066 H 0.61636 0.85026 0.35534 0.0
C3067 C 0.62481 0.7992 0.35798 0.0
C3068 C 0.16133 0.63738 0.37588 0.0
C3069 C 0.17961 0.64656 0.38198 0.0
H3070 H 0.14697 0.61607 0.35592 0.0
C3071 C 0.19799 0.63964 0.37364 0.0
H3072 H 0.14693 0.64237 0.3821 0.0
C3073 C 0.19801 0.62461 0.35867 0.0
C3074 C 0.17965 0.61621 0.35177 0.0
H3075 H 0.21232 0.64637 0.37811 0.0
H3076 H 0.21236 0.62012 0.35198 0.0
C3077 C 0.16135 0.62233 0.3609 0.0
C3078 C 0.35996 0.16156 0.37557 0.0
C3079 C 0.3509 0.17995 0.38153 0.0
H3080 H 0.38121 0.14691 0.35576 0.0
C3081 C 0.35792 0.19822 0.37303 0.0
H3082 H 0.35488 0.14725 0.3819 0.0
C3083 C 0.37299 0.19802 0.35809 0.0
C3084 C 0.3813 0.17955 0.35137 0.0
H3085 H 0.35128 0.21263 0.37738 0.0
H3086 H 0.37758 0.21229 0.35131 0.0
C3087 C 0.37503 0.16137 0.36061 0.0
C3088 C 0.63753 0.8359 0.62236 0.0
C3089 C 0.64662 0.81759 0.61624 0.0
H3090 H 0.61633 0.85036 0.64238 0.0
C3091 C 0.63971 0.79925 0.62467 0.0
H3092 H 0.64252 0.85027 0.61608 0.0
C3093 C 0.62474 0.7993 0.6397 0.0
C3094 C 0.6164 0.81769 0.64659 0.0
H3095 H 0.64638 0.78488 0.6202 0.0
H3096 H 0.62024 0.78497 0.64644 0.0
C3097 C 0.62254 0.83596 0.63741 0.0
C3098 C 0.62472 0.19808 0.35811 0.0
C3099 C 0.61638 0.17971 0.35117 0.0
H3100 H 0.64637 0.21244 0.37765 0.0
C3101 C 0.62255 0.16141 0.36027 0.0
H3102 H 0.6202 0.21243 0.35144 0.0
C3103 C 0.63755 0.16142 0.37531 0.0
C3104 C 0.64664 0.17972 0.38148 0.0
H3105 H 0.61635 0.14702 0.35525 0.0
H3106 H 0.64256 0.14703 0.38152 0.0
C3107 C 0.63971 0.19809 0.37313 0.0
C3108 C 0.80034 0.62423 0.35864 0.0
C3109 C 0.81867 0.61595 0.35153 0.0
H3110 H 0.78611 0.64587 0.37828 0.0
C3111 C 0.83703 0.62215 0.36047 0.0
H3112 H 0.78594 0.61968 0.3521 0.0
C3113 C 0.83713 0.63718 0.37548 0.0
C3114 C 0.81887 0.64624 0.3818 0.0
H3115 H 0.85139 0.61598 0.35532 0.0
H3116 H 0.85156 0.64224 0.38155 0.0
C3117 C 0.80044 0.63924 0.37364 0.0
C3118 C 0.37323 0.79975 0.35808 0.0
C3119 C 0.38161 0.8181 0.35111 0.0
H3120 H 0.35153 0.78548 0.37762 0.0
C3121 C 0.37547 0.83642 0.36017 0.0
H3122 H 0.37773 0.78538 0.35144 0.0
C3123 C 0.36045 0.83647 0.37519 0.0
C3124 C 0.35132 0.8182 0.38139 0.0
H3125 H 0.3817 0.85079 0.35513 0.0
H3126 H 0.35546 0.85089 0.38138 0.0
C3127 C 0.35823 0.79981 0.37308 0.0
C3128 C 0.19722 0.37351 0.35828 0.0
C3129 C 0.17887 0.38189 0.35132 0.0
H3130 H 0.21151 0.35184 0.37783 0.0
C3131 C 0.16055 0.3758 0.36044 0.0
H3132 H 0.21158 0.37797 0.35159 0.0
C3133 C 0.16051 0.36081 0.37549 0.0
C3134 C 0.17879 0.35167 0.38166 0.0
H3135 H 0.14618 0.38204 0.35541 0.0
H3136 H 0.14611 0.35585 0.38171 0.0
C3137 C 0.19718 0.35855 0.37331 0.0
C3138 C 0.37556 0.16169 0.63718 0.0
C3139 C 0.38171 0.17991 0.64643 0.0
H3140 H 0.35557 0.14745 0.61581 0.0
C3141 C 0.37339 0.19834 0.63959 0.0
H3142 H 0.38175 0.14726 0.64211 0.0
C3143 C 0.35842 0.19845 0.62456 0.0
C3144 C 0.35149 0.18014 0.61607 0.0
H3145 H 0.3779 0.21264 0.64637 0.0
H3146 H 0.35176 0.21283 0.62013 0.0
C3147 C 0.36057 0.1618 0.62212 0.0
C3148 C 0.8365 0.37554 0.63731 0.0
C3149 C 0.81821 0.38165 0.64646 0.0
H3150 H 0.85088 0.35555 0.61603 0.0
C3151 C 0.79984 0.37328 0.63954 0.0
H3152 H 0.85088 0.38177 0.6423 0.0
C3153 C 0.79984 0.3583 0.62453 0.0
C3154 C 0.8182 0.3514 0.61614 0.0
H3155 H 0.78549 0.37776 0.64625 0.0
H3156 H 0.78549 0.3516 0.62004 0.0
C3157 C 0.83649 0.36053 0.62227 0.0
C3158 C 0.16119 0.62243 0.63712 0.0
C3159 C 0.17949 0.61627 0.64622 0.0
H3160 H 0.14676 0.64253 0.61598 0.0
C3161 C 0.19785 0.6247 0.63934 0.0
H3162 H 0.14681 0.61615 0.64209 0.0
C3163 C 0.19782 0.63977 0.62441 0.0
C3164 C 0.17944 0.64671 0.61609 0.0
H3165 H 0.2122 0.62019 0.646 0.0
H3166 H 0.21216 0.64651 0.61995 0.0
C3167 C 0.16116 0.63752 0.62218 0.0
loop_
_geom_bond_atom_site_label_1
_geom_bond_atom_site_label_2
_geom_bond_distance
_geom_bond_site_symmetry_2
_ccdc_geom_bond_type
In0 O1 2.294 . S
In0 O2 2.326 . S
In0 O6 2.266 . S
In0 O7 2.326 . S
In0 O8 2.266 . S
In0 O9 2.326 . S
In0 O11 2.294 . S
In0 O12 2.326 . S
O1 In0 2.294 . S
O1 C10 1.240 . S
O2 In0 2.326 . S
O2 C10 1.252 . S
C3 O6 1.252 . S
C3 O7 1.260 . S
C4 O11 1.240 . S
C4 O12 1.252 . S
C5 O8 1.252 . S
C5 O9 1.260 . S
O6 In0 2.266 . S
O6 C3 1.252 . S
O7 In0 2.326 . S
O7 C3 1.260 . S
O8 In0 2.266 . S
O8 C5 1.252 . S
O9 In0 2.326 . S
O9 C5 1.260 . S
C10 O1 1.240 . S
C10 O2 1.252 . S
O11 In0 2.294 . S
O11 C4 1.240 . S
O12 In0 2.326 . S
O12 C4 1.252 . S
In13 O14 2.294 . S
In13 O15 2.326 . S
In13 O19 2.266 . S
In13 O20 2.326 . S
In13 O21 2.266 . S
In13 O22 2.326 . S
In13 O24 2.294 . S
In13 O25 2.326 . S
O14 In13 2.294 . S
O14 C23 1.240 . S
O15 In13 2.326 . S
O15 C23 1.252 . S
C16 O19 1.252 . S
C16 O20 1.260 . S
C17 O24 1.240 . S
C17 O25 1.252 . S
C18 O21 1.252 . S
C18 O22 1.260 . S
O19 In13 2.266 . S
O19 C16 1.252 . S
O20 In13 2.326 . S
O20 C16 1.260 . S
O21 In13 2.266 . S
O21 C18 1.252 . S
O22 In13 2.326 . S
O22 C18 1.260 . S
C23 O14 1.240 . S
C23 O15 1.252 . S
O24 In13 2.294 . S
O24 C17 1.240 . S
O25 In13 2.326 . S
O25 C17 1.252 . S
In26 O27 2.294 . S
In26 O28 2.326 . S
In26 O32 2.266 . S
In26 O33 2.326 . S
In26 O34 2.266 . S
In26 O35 2.326 . S
In26 O37 2.294 . S
In26 O38 2.326 . S
O27 In26 2.294 . S
O27 C36 1.240 . S
O28 In26 2.326 . S
O28 C36 1.252 . S
C29 O32 1.252 . S
C29 O33 1.260 . S
C30 O37 1.240 . S
C30 O38 1.252 . S
C31 O34 1.252 . S
C31 O35 1.260 . S
O32 In26 2.266 . S
O32 C29 1.252 . S
O33 In26 2.326 . S
O33 C29 1.260 . S
O34 In26 2.266 . S
O34 C31 1.252 . S
O35 In26 2.326 . S
O35 C31 1.260 . S
C36 O27 1.240 . S
C36 O28 1.252 . S
O37 In26 2.294 . S
O37 C30 1.240 . S
O38 In26 2.326 . S
O38 C30 1.252 . S
In39 O40 2.294 . S
In39 O41 2.326 . S
In39 O45 2.266 . S
In39 O46 2.326 . S
In39 O47 2.266 . S
In39 O48 2.326 . S
In39 O50 2.294 . S
In39 O51 2.326 . S
O40 In39 2.294 . S
O40 C49 1.240 . S
O41 In39 2.326 . S
O41 C49 1.252 . S
C42 O45 1.252 . S
C42 O46 1.260 . S
C43 O50 1.240 . S
C43 O51 1.252 . S
C44 O47 1.252 . S
C44 O48 1.260 . S
O45 In39 2.266 . S
O45 C42 1.252 . S
O46 In39 2.326 . S
O46 C42 1.260 . S
O47 In39 2.266 . S
O47 C44 1.252 . S
O48 In39 2.326 . S
O48 C44 1.260 . S
C49 O40 1.240 . S
C49 O41 1.252 . S
O50 In39 2.294 . S
O50 C43 1.240 . S
O51 In39 2.326 . S
O51 C43 1.252 . S
In52 O53 2.294 . S
In52 O54 2.326 . S
In52 O58 2.266 . S
In52 O59 2.326 . S
In52 O60 2.266 . S
In52 O61 2.326 . S
In52 O63 2.294 . S
In52 O64 2.326 . S
O53 In52 2.294 . S
O53 C62 1.240 . S
O54 In52 2.326 . S
O54 C62 1.252 . S
C55 O58 1.252 . S
C55 O59 1.260 . S
C56 O63 1.240 . S
C56 O64 1.252 . S
C57 O60 1.252 . S
C57 O61 1.260 . S
O58 In52 2.266 . S
O58 C55 1.252 . S
O59 In52 2.326 . S
O59 C55 1.260 . S
O60 In52 2.266 . S
O60 C57 1.252 . S
O61 In52 2.326 . S
O61 C57 1.260 . S
C62 O53 1.240 . S
C62 O54 1.252 . S
O63 In52 2.294 . S
O63 C56 1.240 . S
O64 In52 2.326 . S
O64 C56 1.252 . S
In65 O66 2.294 . S
In65 O67 2.326 . S
In65 O71 2.266 . S
In65 O72 2.326 . S
In65 O73 2.266 . S
In65 O74 2.326 . S
In65 O76 2.294 . S
In65 O77 2.326 . S
O66 In65 2.294 . S
O66 C75 1.240 . S
O67 In65 2.326 . S
O67 C75 1.252 . S
C68 O71 1.252 . S
C68 O72 1.260 . S
C69 O76 1.240 . S
C69 O77 1.252 . S
C70 O73 1.252 . S
C70 O74 1.260 . S
O71 In65 2.266 . S
O71 C68 1.252 . S
O72 In65 2.326 . S
O72 C68 1.260 . S
O73 In65 2.266 . S
O73 C70 1.252 . S
O74 In65 2.326 . S
O74 C70 1.260 . S
C75 O66 1.240 . S
C75 O67 1.252 . S
O76 In65 2.294 . S
O76 C69 1.240 . S
O77 In65 2.326 . S
O77 C69 1.252 . S
In78 O79 2.294 . S
In78 O80 2.326 . S
In78 O84 2.266 . S
In78 O85 2.326 . S
In78 O86 2.266 . S
In78 O87 2.326 . S
In78 O89 2.294 . S
In78 O90 2.326 . S
O79 In78 2.294 . S
O79 C88 1.240 . S
O80 In78 2.326 . S
O80 C88 1.252 . S
C81 O84 1.252 . S
C81 O85 1.260 . S
C82 O89 1.240 . S
C82 O90 1.252 . S
C83 O86 1.252 . S
C83 O87 1.260 . S
O84 In78 2.266 . S
O84 C81 1.252 . S
O85 In78 2.326 . S
O85 C81 1.260 . S
O86 In78 2.266 . S
O86 C83 1.252 . S
O87 In78 2.326 . S
O87 C83 1.260 . S
C88 O79 1.240 . S
C88 O80 1.252 . S
O89 In78 2.294 . S
O89 C82 1.240 . S
O90 In78 2.326 . S
O90 C82 1.252 . S
In91 O92 2.294 . S
In91 O93 2.326 . S
In91 O97 2.266 . S
In91 O98 2.326 . S
In91 O99 2.266 . S
In91 O100 2.326 . S
In91 O102 2.294 . S
In91 O103 2.326 . S
O92 In91 2.294 . S
O92 C101 1.240 . S
O93 In91 2.326 . S
O93 C101 1.252 . S
C94 O97 1.252 . S
C94 O98 1.260 . S
C95 O102 1.240 . S
C95 O103 1.252 . S
C96 O99 1.252 . S
C96 O100 1.260 . S
O97 In91 2.266 . S
O97 C94 1.252 . S
O98 In91 2.326 . S
O98 C94 1.260 . S
O99 In91 2.266 . S
O99 C96 1.252 . S
O100 In91 2.326 . S
O100 C96 1.260 . S
C101 O92 1.240 . S
C101 O93 1.252 . S
O102 In91 2.294 . S
O102 C95 1.240 . S
O103 In91 2.326 . S
O103 C95 1.252 . S
In104 O105 2.294 . S
In104 O106 2.326 . S
In104 O110 2.266 . S
In104 O111 2.326 . S
In104 O112 2.266 . S
In104 O113 2.326 . S
In104 O115 2.294 . S
In104 O116 2.326 . S
O105 In104 2.294 . S
O105 C114 1.240 . S
O106 In104 2.326 . S
O106 C114 1.252 . S
C107 O110 1.252 . S
C107 O111 1.260 . S
C108 O115 1.240 . S
C108 O116 1.252 . S
C109 O112 1.252 . S
C109 O113 1.260 . S
O110 In104 2.266 . S
O110 C107 1.252 . S
O111 In104 2.326 . S
O111 C107 1.260 . S
O112 In104 2.266 . S
O112 C109 1.252 . S
O113 In104 2.326 . S
O113 C109 1.260 . S
C114 O105 1.240 . S
C114 O106 1.252 . S
O115 In104 2.294 . S
O115 C108 1.240 . S
O116 In104 2.326 . S
O116 C108 1.252 . S
In117 O118 2.294 . S
In117 O119 2.326 . S
In117 O123 2.266 . S
In117 O124 2.326 . S
In117 O125 2.266 . S
In117 O126 2.326 . S
In117 O128 2.294 . S
In117 O129 2.326 . S
O118 In117 2.294 . S
O118 C127 1.240 . S
O119 In117 2.326 . S
O119 C127 1.252 . S
C120 O123 1.252 . S
C120 O124 1.260 . S
C121 O128 1.240 . S
C121 O129 1.252 . S
C122 O125 1.252 . S
C122 O126 1.260 . S
O123 In117 2.266 . S
O123 C120 1.252 . S
O124 In117 2.326 . S
O124 C120 1.260 . S
O125 In117 2.266 . S
O125 C122 1.252 . S
O126 In117 2.326 . S
O126 C122 1.260 . S
C127 O118 1.240 . S
C127 O119 1.252 . S
O128 In117 2.294 . S
O128 C121 1.240 . S
O129 In117 2.326 . S
O129 C121 1.252 . S
In130 O131 2.294 . S
In130 O132 2.326 . S
In130 O136 2.266 . S
In130 O137 2.326 . S
In130 O138 2.266 . S
In130 O139 2.326 . S
In130 O141 2.294 . S
In130 O142 2.326 . S
O131 In130 2.294 . S
O131 C140 1.240 . S
O132 In130 2.326 . S
O132 C140 1.252 . S
C133 O136 1.252 . S
C133 O137 1.260 . S
C134 O141 1.240 . S
C134 O142 1.252 . S
C135 O138 1.252 . S
C135 O139 1.260 . S
O136 In130 2.266 . S
O136 C133 1.252 . S
O137 In130 2.326 . S
O137 C133 1.260 . S
O138 In130 2.266 . S
O138 C135 1.252 . S
O139 In130 2.326 . S
O139 C135 1.260 . S
C140 O131 1.240 . S
C140 O132 1.252 . S
O141 In130 2.294 . S
O141 C134 1.240 . S
O142 In130 2.326 . S
O142 C134 1.252 . S
In143 O144 2.294 . S
In143 O145 2.326 . S
In143 O149 2.266 . S
In143 O150 2.326 . S
In143 O151 2.266 . S
In143 O152 2.326 . S
In143 O154 2.294 . S
In143 O155 2.326 . S
O144 In143 2.294 . S
O144 C153 1.240 . S
O145 In143 2.326 . S
O145 C153 1.252 . S
C146 O149 1.252 . S
C146 O150 1.260 . S
C147 O154 1.240 . S
C147 O155 1.252 . S
C148 O151 1.252 . S
C148 O152 1.260 . S
O149 In143 2.266 . S
O149 C146 1.252 . S
O150 In143 2.326 . S
O150 C146 1.260 . S
O151 In143 2.266 . S
O151 C148 1.252 . S
O152 In143 2.326 . S
O152 C148 1.260 . S
C153 O144 1.240 . S
C153 O145 1.252 . S
O154 In143 2.294 . S
O154 C147 1.240 . S
O155 In143 2.326 . S
O155 C147 1.252 . S
In156 O157 2.294 . S
In156 O158 2.326 . S
In156 O162 2.266 . S
In156 O163 2.326 . S
In156 O164 2.266 . S
In156 O165 2.326 . S
In156 O167 2.294 . S
In156 O168 2.326 . S
O157 In156 2.294 . S
O157 C166 1.240 . S
O158 In156 2.326 . S
O158 C166 1.252 . S
C159 O162 1.252 . S
C159 O163 1.260 . S
C160 O167 1.240 . S
C160 O168 1.252 . S
C161 O164 1.252 . S
C161 O165 1.260 . S
O162 In156 2.266 . S
O162 C159 1.252 . S
O163 In156 2.326 . S
O163 C159 1.260 . S
O164 In156 2.266 . S
O164 C161 1.252 . S
O165 In156 2.326 . S
O165 C161 1.260 . S
C166 O157 1.240 . S
C166 O158 1.252 . S
O167 In156 2.294 . S
O167 C160 1.240 . S
O168 In156 2.326 . S
O168 C160 1.252 . S
In169 O170 2.294 . S
In169 O171 2.326 . S
In169 O175 2.266 . S
In169 O176 2.326 . S
In169 O177 2.266 . S
In169 O178 2.326 . S
In169 O180 2.294 . S
In169 O181 2.326 . S
O170 In169 2.294 . S
O170 C179 1.240 . S
O171 In169 2.326 . S
O171 C179 1.252 . S
C172 O175 1.252 . S
C172 O176 1.260 . S
C173 O180 1.240 . S
C173 O181 1.252 . S
C174 O177 1.252 . S
C174 O178 1.260 . S
O175 In169 2.266 . S
O175 C172 1.252 . S
O176 In169 2.326 . S
O176 C172 1.260 . S
O177 In169 2.266 . S
O177 C174 1.252 . S
O178 In169 2.326 . S
O178 C174 1.260 . S
C179 O170 1.240 . S
C179 O171 1.252 . S
O180 In169 2.294 . S
O180 C173 1.240 . S
O181 In169 2.326 . S
O181 C173 1.252 . S
In182 O183 2.294 . S
In182 O184 2.326 . S
In182 O188 2.266 . S
In182 O189 2.326 . S
In182 O190 2.266 . S
In182 O191 2.326 . S
In182 O193 2.294 . S
In182 O194 2.326 . S
O183 In182 2.294 . S
O183 C192 1.240 . S
O184 In182 2.326 . S
O184 C192 1.252 . S
C185 O188 1.252 . S
C185 O189 1.260 . S
C186 O193 1.240 . S
C186 O194 1.252 . S
C187 O190 1.252 . S
C187 O191 1.260 . S
O188 In182 2.266 . S
O188 C185 1.252 . S
O189 In182 2.326 . S
O189 C185 1.260 . S
O190 In182 2.266 . S
O190 C187 1.252 . S
O191 In182 2.326 . S
O191 C187 1.260 . S
C192 O183 1.240 . S
C192 O184 1.252 . S
O193 In182 2.294 . S
O193 C186 1.240 . S
O194 In182 2.326 . S
O194 C186 1.252 . S
In195 O196 2.294 . S
In195 O197 2.326 . S
In195 O201 2.266 . S
In195 O202 2.326 . S
In195 O203 2.266 . S
In195 O204 2.326 . S
In195 O206 2.294 . S
In195 O207 2.326 . S
O196 In195 2.294 . S
O196 C205 1.240 . S
O197 In195 2.326 . S
O197 C205 1.252 . S
C198 O201 1.252 . S
C198 O202 1.260 . S
C199 O206 1.240 . S
C199 O207 1.252 . S
C200 O203 1.252 . S
C200 O204 1.260 . S
O201 In195 2.266 . S
O201 C198 1.252 . S
O202 In195 2.326 . S
O202 C198 1.260 . S
O203 In195 2.266 . S
O203 C200 1.252 . S
O204 In195 2.326 . S
O204 C200 1.260 . S
C205 O196 1.240 . S
C205 O197 1.252 . S
O206 In195 2.294 . S
O206 C199 1.240 . S
O207 In195 2.326 . S
O207 C199 1.252 . S
In208 O209 2.294 . S
In208 O210 2.326 . S
In208 O214 2.266 . S
In208 O215 2.326 . S
In208 O216 2.266 . S
In208 O217 2.326 . S
In208 O219 2.294 . S
In208 O220 2.326 . S
O209 In208 2.294 . S
O209 C218 1.240 . S
O210 In208 2.326 . S
O210 C218 1.252 . S
C211 O214 1.252 . S
C211 O215 1.260 . S
C212 O219 1.240 . S
C212 O220 1.252 . S
C213 O216 1.252 . S
C213 O217 1.260 . S
O214 In208 2.266 . S
O214 C211 1.252 . S
O215 In208 2.326 . S
O215 C211 1.260 . S
O216 In208 2.266 . S
O216 C213 1.252 . S
O217 In208 2.326 . S
O217 C213 1.260 . S
C218 O209 1.240 . S
C218 O210 1.252 . S
O219 In208 2.294 . S
O219 C212 1.240 . S
O220 In208 2.326 . S
O220 C212 1.252 . S
In221 O222 2.294 . S
In221 O223 2.326 . S
In221 O227 2.266 . S
In221 O228 2.326 . S
In221 O229 2.266 . S
In221 O230 2.326 . S
In221 O232 2.294 . S
In221 O233 2.326 . S
O222 In221 2.294 . S
O222 C231 1.240 . S
O223 In221 2.326 . S
O223 C231 1.252 . S
C224 O227 1.252 . S
C224 O228 1.260 . S
C225 O232 1.240 . S
C225 O233 1.252 . S
C226 O229 1.252 . S
C226 O230 1.260 . S
O227 In221 2.266 . S
O227 C224 1.252 . S
O228 In221 2.326 . S
O228 C224 1.260 . S
O229 In221 2.266 . S
O229 C226 1.252 . S
O230 In221 2.326 . S
O230 C226 1.260 . S
C231 O222 1.240 . S
C231 O223 1.252 . S
O232 In221 2.294 . S
O232 C225 1.240 . S
O233 In221 2.326 . S
O233 C225 1.252 . S
In234 O235 2.294 . S
In234 O236 2.326 . S
In234 O240 2.266 . S
In234 O241 2.326 . S
In234 O242 2.266 . S
In234 O243 2.326 . S
In234 O245 2.294 . S
In234 O246 2.326 . S
O235 In234 2.294 . S
O235 C244 1.240 . S
O236 In234 2.326 . S
O236 C244 1.252 . S
C237 O240 1.252 . S
C237 O241 1.260 . S
C238 O245 1.240 . S
C238 O246 1.252 . S
C239 O242 1.252 . S
C239 O243 1.260 . S
O240 In234 2.266 . S
O240 C237 1.252 . S
O241 In234 2.326 . S
O241 C237 1.260 . S
O242 In234 2.266 . S
O242 C239 1.252 . S
O243 In234 2.326 . S
O243 C239 1.260 . S
C244 O235 1.240 . S
C244 O236 1.252 . S
O245 In234 2.294 . S
O245 C238 1.240 . S
O246 In234 2.326 . S
O246 C238 1.252 . S
In247 O248 2.294 . S
In247 O249 2.326 . S
In247 O253 2.266 . S
In247 O254 2.326 . S
In247 O255 2.266 . S
In247 O256 2.326 . S
In247 O258 2.294 . S
In247 O259 2.326 . S
O248 In247 2.294 . S
O248 C257 1.240 . S
O249 In247 2.326 . S
O249 C257 1.252 . S
C250 O253 1.252 . S
C250 O254 1.260 . S
C251 O258 1.240 . S
C251 O259 1.252 . S
C252 O255 1.252 . S
C252 O256 1.260 . S
O253 In247 2.266 . S
O253 C250 1.252 . S
O254 In247 2.326 . S
O254 C250 1.260 . S
O255 In247 2.266 . S
O255 C252 1.252 . S
O256 In247 2.326 . S
O256 C252 1.260 . S
C257 O248 1.240 . S
C257 O249 1.252 . S
O258 In247 2.294 . S
O258 C251 1.240 . S
O259 In247 2.326 . S
O259 C251 1.252 . S
In260 O261 2.294 . S
In260 O262 2.326 . S
In260 O266 2.266 . S
In260 O267 2.326 . S
In260 O268 2.266 . S
In260 O269 2.326 . S
In260 O271 2.294 . S
In260 O272 2.326 . S
O261 In260 2.294 . S
O261 C270 1.240 . S
O262 In260 2.326 . S
O262 C270 1.252 . S
C263 O266 1.252 . S
C263 O267 1.260 . S
C264 O271 1.240 . S
C264 O272 1.252 . S
C265 O268 1.252 . S
C265 O269 1.260 . S
O266 In260 2.266 . S
O266 C263 1.252 . S
O267 In260 2.326 . S
O267 C263 1.260 . S
O268 In260 2.266 . S
O268 C265 1.252 . S
O269 In260 2.326 . S
O269 C265 1.260 . S
C270 O261 1.240 . S
C270 O262 1.252 . S
O271 In260 2.294 . S
O271 C264 1.240 . S
O272 In260 2.326 . S
O272 C264 1.252 . S
In273 O274 2.294 . S
In273 O275 2.326 . S
In273 O279 2.266 . S
In273 O280 2.326 . S
In273 O281 2.266 . S
In273 O282 2.326 . S
In273 O284 2.294 . S
In273 O285 2.326 . S
O274 In273 2.294 . S
O274 C283 1.240 . S
O275 In273 2.326 . S
O275 C283 1.252 . S
C276 O279 1.252 . S
C276 O280 1.260 . S
C277 O284 1.240 . S
C277 O285 1.252 . S
C278 O281 1.252 . S
C278 O282 1.260 . S
O279 In273 2.266 . S
O279 C276 1.252 . S
O280 In273 2.326 . S
O280 C276 1.260 . S
O281 In273 2.266 . S
O281 C278 1.252 . S
O282 In273 2.326 . S
O282 C278 1.260 . S
C283 O274 1.240 . S
C283 O275 1.252 . S
O284 In273 2.294 . S
O284 C277 1.240 . S
O285 In273 2.326 . S
O285 C277 1.252 . S
In286 O287 2.294 . S
In286 O288 2.326 . S
In286 O292 2.266 . S
In286 O293 2.326 . S
In286 O294 2.266 . S
In286 O295 2.326 . S
In286 O297 2.294 . S
In286 O298 2.326 . S
O287 In286 2.294 . S
O287 C296 1.240 . S
O288 In286 2.326 . S
O288 C296 1.252 . S
C289 O292 1.252 . S
C289 O293 1.260 . S
C290 O297 1.240 . S
C290 O298 1.252 . S
C291 O294 1.252 . S
C291 O295 1.260 . S
O292 In286 2.266 . S
O292 C289 1.252 . S
O293 In286 2.326 . S
O293 C289 1.260 . S
O294 In286 2.266 . S
O294 C291 1.252 . S
O295 In286 2.326 . S
O295 C291 1.260 . S
C296 O287 1.240 . S
C296 O288 1.252 . S
O297 In286 2.294 . S
O297 C290 1.240 . S
O298 In286 2.326 . S
O298 C290 1.252 . S
In299 O300 2.294 . S
In299 O301 2.326 . S
In299 O305 2.266 . S
In299 O306 2.326 . S
In299 O307 2.266 . S
In299 O308 2.326 . S
In299 O310 2.294 . S
In299 O311 2.326 . S
O300 In299 2.294 . S
O300 C309 1.240 . S
O301 In299 2.326 . S
O301 C309 1.252 . S
C302 O305 1.252 . S
C302 O306 1.260 . S
C303 O310 1.240 . S
C303 O311 1.252 . S
C304 O307 1.252 . S
C304 O308 1.260 . S
O305 In299 2.266 . S
O305 C302 1.252 . S
O306 In299 2.326 . S
O306 C302 1.260 . S
O307 In299 2.266 . S
O307 C304 1.252 . S
O308 In299 2.326 . S
O308 C304 1.260 . S
C309 O300 1.240 . S
C309 O301 1.252 . S
O310 In299 2.294 . S
O310 C303 1.240 . S
O311 In299 2.326 . S
O311 C303 1.252 . S
In312 O313 2.294 . S
In312 O314 2.326 . S
In312 O318 2.266 . S
In312 O319 2.326 . S
In312 O320 2.266 . S
In312 O321 2.326 . S
In312 O323 2.294 . S
In312 O324 2.326 . S
O313 In312 2.294 . S
O313 C322 1.240 . S
O314 In312 2.326 . S
O314 C322 1.252 . S
C315 O318 1.252 . S
C315 O319 1.260 . S
C316 O323 1.240 . S
C316 O324 1.252 . S
C317 O320 1.252 . S
C317 O321 1.260 . S
O318 In312 2.266 . S
O318 C315 1.252 . S
O319 In312 2.326 . S
O319 C315 1.260 . S
O320 In312 2.266 . S
O320 C317 1.252 . S
O321 In312 2.326 . S
O321 C317 1.260 . S
C322 O313 1.240 . S
C322 O314 1.252 . S
O323 In312 2.294 . S
O323 C316 1.240 . S
O324 In312 2.326 . S
O324 C316 1.252 . S
In325 O326 2.294 . S
In325 O327 2.326 . S
In325 O331 2.266 . S
In325 O332 2.326 . S
In325 O333 2.266 . S
In325 O334 2.326 . S
In325 O336 2.294 . S
In325 O337 2.326 . S
O326 In325 2.294 . S
O326 C335 1.240 . S
O327 In325 2.326 . S
O327 C335 1.252 . S
C328 O331 1.252 . S
C328 O332 1.260 . S
C329 O336 1.240 . S
C329 O337 1.252 . S
C330 O333 1.252 . S
C330 O334 1.260 . S
O331 In325 2.266 . S
O331 C328 1.252 . S
O332 In325 2.326 . S
O332 C328 1.260 . S
O333 In325 2.266 . S
O333 C330 1.252 . S
O334 In325 2.326 . S
O334 C330 1.260 . S
C335 O326 1.240 . S
C335 O327 1.252 . S
O336 In325 2.294 . S
O336 C329 1.240 . S
O337 In325 2.326 . S
O337 C329 1.252 . S
In338 O339 2.294 . S
In338 O340 2.326 . S
In338 O344 2.266 . S
In338 O345 2.326 . S
In338 O346 2.266 . S
In338 O347 2.326 . S
In338 O349 2.294 . S
In338 O350 2.326 . S
O339 In338 2.294 . S
O339 C348 1.240 . S
O340 In338 2.326 . S
O340 C348 1.252 . S
C341 O344 1.252 . S
C341 O345 1.260 . S
C342 O349 1.240 . S
C342 O350 1.252 . S
C343 O346 1.252 . S
C343 O347 1.260 . S
O344 In338 2.266 . S
O344 C341 1.252 . S
O345 In338 2.326 . S
O345 C341 1.260 . S
O346 In338 2.266 . S
O346 C343 1.252 . S
O347 In338 2.326 . S
O347 C343 1.260 . S
C348 O339 1.240 . S
C348 O340 1.252 . S
O349 In338 2.294 . S
O349 C342 1.240 . S
O350 In338 2.326 . S
O350 C342 1.252 . S
In351 O352 2.294 . S
In351 O353 2.326 . S
In351 O357 2.266 . S
In351 O358 2.326 . S
In351 O359 2.266 . S
In351 O360 2.326 . S
In351 O362 2.294 . S
In351 O363 2.326 . S
O352 In351 2.294 . S
O352 C361 1.240 . S
O353 In351 2.326 . S
O353 C361 1.252 . S
C354 O357 1.252 . S
C354 O358 1.260 . S
C355 O362 1.240 . S
C355 O363 1.252 . S
C356 O359 1.252 . S
C356 O360 1.260 . S
O357 In351 2.266 . S
O357 C354 1.252 . S
O358 In351 2.326 . S
O358 C354 1.260 . S
O359 In351 2.266 . S
O359 C356 1.252 . S
O360 In351 2.326 . S
O360 C356 1.260 . S
C361 O352 1.240 . S
C361 O353 1.252 . S
O362 In351 2.294 . S
O362 C355 1.240 . S
O363 In351 2.326 . S
O363 C355 1.252 . S
In364 O365 2.294 . S
In364 O366 2.326 . S
In364 O370 2.266 . S
In364 O371 2.326 . S
In364 O372 2.266 . S
In364 O373 2.326 . S
In364 O375 2.294 . S
In364 O376 2.326 . S
O365 In364 2.294 . S
O365 C374 1.240 . S
O366 In364 2.326 . S
O366 C374 1.252 . S
C367 O370 1.252 . S
C367 O371 1.260 . S
C368 O375 1.240 . S
C368 O376 1.252 . S
C369 O372 1.252 . S
C369 O373 1.260 . S
O370 In364 2.266 . S
O370 C367 1.252 . S
O371 In364 2.326 . S
O371 C367 1.260 . S
O372 In364 2.266 . S
O372 C369 1.252 . S
O373 In364 2.326 . S
O373 C369 1.260 . S
C374 O365 1.240 . S
C374 O366 1.252 . S
O375 In364 2.294 . S
O375 C368 1.240 . S
O376 In364 2.326 . S
O376 C368 1.252 . S
In377 O378 2.294 . S
In377 O379 2.326 . S
In377 O383 2.266 . S
In377 O384 2.326 . S
In377 O385 2.266 . S
In377 O386 2.326 . S
In377 O388 2.294 . S
In377 O389 2.326 . S
O378 In377 2.294 . S
O378 C387 1.240 . S
O379 In377 2.326 . S
O379 C387 1.252 . S
C380 O383 1.252 . S
C380 O384 1.260 . S
C381 O388 1.240 . S
C381 O389 1.252 . S
C382 O385 1.252 . S
C382 O386 1.260 . S
O383 In377 2.266 . S
O383 C380 1.252 . S
O384 In377 2.326 . S
O384 C380 1.260 . S
O385 In377 2.266 . S
O385 C382 1.252 . S
O386 In377 2.326 . S
O386 C382 1.260 . S
C387 O378 1.240 . S
C387 O379 1.252 . S
O388 In377 2.294 . S
O388 C381 1.240 . S
O389 In377 2.326 . S
O389 C381 1.252 . S
In390 O391 2.294 . S
In390 O392 2.326 . S
In390 O396 2.266 . S
In390 O397 2.326 . S
In390 O398 2.266 . S
In390 O399 2.326 . S
In390 O401 2.294 . S
In390 O402 2.326 . S
O391 In390 2.294 . S
O391 C400 1.240 . S
O392 In390 2.326 . S
O392 C400 1.252 . S
C393 O396 1.252 . S
C393 O397 1.260 . S
C394 O401 1.240 . S
C394 O402 1.252 . S
C395 O398 1.252 . S
C395 O399 1.260 . S
O396 In390 2.266 . S
O396 C393 1.252 . S
O397 In390 2.326 . S
O397 C393 1.260 . S
O398 In390 2.266 . S
O398 C395 1.252 . S
O399 In390 2.326 . S
O399 C395 1.260 . S
C400 O391 1.240 . S
C400 O392 1.252 . S
O401 In390 2.294 . S
O401 C394 1.240 . S
O402 In390 2.326 . S
O402 C394 1.252 . S
In403 O404 2.294 . S
In403 O405 2.326 . S
In403 O409 2.266 . S
In403 O410 2.326 . S
In403 O411 2.266 . S
In403 O412 2.326 . S
In403 O414 2.294 . S
In403 O415 2.326 . S
O404 In403 2.294 . S
O404 C413 1.240 . S
O405 In403 2.326 . S
O405 C413 1.252 . S
C406 O409 1.252 . S
C406 O410 1.260 . S
C407 O414 1.240 . S
C407 O415 1.252 . S
C408 O411 1.252 . S
C408 O412 1.260 . S
O409 In403 2.266 . S
O409 C406 1.252 . S
O410 In403 2.326 . S
O410 C406 1.260 . S
O411 In403 2.266 . S
O411 C408 1.252 . S
O412 In403 2.326 . S
O412 C408 1.260 . S
C413 O404 1.240 . S
C413 O405 1.252 . S
O414 In403 2.294 . S
O414 C407 1.240 . S
O415 In403 2.326 . S
O415 C407 1.252 . S
In416 O417 2.294 . S
In416 O418 2.326 . S
In416 O422 2.266 . S
In416 O423 2.326 . S
In416 O424 2.266 . S
In416 O425 2.326 . S
In416 O427 2.294 . S
In416 O428 2.326 . S
O417 In416 2.294 . S
O417 C426 1.240 . S
O418 In416 2.326 . S
O418 C426 1.252 . S
C419 O422 1.252 . S
C419 O423 1.260 . S
C420 O427 1.240 . S
C420 O428 1.252 . S
C421 O424 1.252 . S
C421 O425 1.260 . S
O422 In416 2.266 . S
O422 C419 1.252 . S
O423 In416 2.326 . S
O423 C419 1.260 . S
O424 In416 2.266 . S
O424 C421 1.252 . S
O425 In416 2.326 . S
O425 C421 1.260 . S
C426 O417 1.240 . S
C426 O418 1.252 . S
O427 In416 2.294 . S
O427 C420 1.240 . S
O428 In416 2.326 . S
O428 C420 1.252 . S
In429 O430 2.294 . S
In429 O431 2.326 . S
In429 O435 2.266 . S
In429 O436 2.326 . S
In429 O437 2.266 . S
In429 O438 2.326 . S
In429 O440 2.294 . S
In429 O441 2.326 . S
O430 In429 2.294 . S
O430 C439 1.240 . S
O431 In429 2.326 . S
O431 C439 1.252 . S
C432 O435 1.252 . S
C432 O436 1.260 . S
C433 O440 1.240 . S
C433 O441 1.252 . S
C434 O437 1.252 . S
C434 O438 1.260 . S
O435 In429 2.266 . S
O435 C432 1.252 . S
O436 In429 2.326 . S
O436 C432 1.260 . S
O437 In429 2.266 . S
O437 C434 1.252 . S
O438 In429 2.326 . S
O438 C434 1.260 . S
C439 O430 1.240 . S
C439 O431 1.252 . S
O440 In429 2.294 . S
O440 C433 1.240 . S
O441 In429 2.326 . S
O441 C433 1.252 . S
In442 O443 2.294 . S
In442 O444 2.326 . S
In442 O448 2.266 . S
In442 O449 2.326 . S
In442 O450 2.266 . S
In442 O451 2.326 . S
In442 O453 2.294 . S
In442 O454 2.326 . S
O443 In442 2.294 . S
O443 C452 1.240 . S
O444 In442 2.326 . S
O444 C452 1.252 . S
C445 O448 1.252 . S
C445 O449 1.260 . S
C446 O453 1.240 . S
C446 O454 1.252 . S
C447 O450 1.252 . S
C447 O451 1.260 . S
O448 In442 2.266 . S
O448 C445 1.252 . S
O449 In442 2.326 . S
O449 C445 1.260 . S
O450 In442 2.266 . S
O450 C447 1.252 . S
O451 In442 2.326 . S
O451 C447 1.260 . S
C452 O443 1.240 . S
C452 O444 1.252 . S
O453 In442 2.294 . S
O453 C446 1.240 . S
O454 In442 2.326 . S
O454 C446 1.252 . S
In455 O456 2.294 . S
In455 O457 2.326 . S
In455 O461 2.266 . S
In455 O462 2.326 . S
In455 O463 2.266 . S
In455 O464 2.326 . S
In455 O466 2.294 . S
In455 O467 2.326 . S
O456 In455 2.294 . S
O456 C465 1.240 . S
O457 In455 2.326 . S
O457 C465 1.252 . S
C458 O461 1.252 . S
C458 O462 1.260 . S
C459 O466 1.240 . S
C459 O467 1.252 . S
C460 O463 1.252 . S
C460 O464 1.260 . S
O461 In455 2.266 . S
O461 C458 1.252 . S
O462 In455 2.326 . S
O462 C458 1.260 . S
O463 In455 2.266 . S
O463 C460 1.252 . S
O464 In455 2.326 . S
O464 C460 1.260 . S
C465 O456 1.240 . S
C465 O457 1.252 . S
O466 In455 2.294 . S
O466 C459 1.240 . S
O467 In455 2.326 . S
O467 C459 1.252 . S
In468 O469 2.294 . S
In468 O470 2.326 . S
In468 O474 2.266 . S
In468 O475 2.326 . S
In468 O476 2.266 . S
In468 O477 2.326 . S
In468 O479 2.294 . S
In468 O480 2.326 . S
O469 In468 2.294 . S
O469 C478 1.240 . S
O470 In468 2.326 . S
O470 C478 1.252 . S
C471 O474 1.252 . S
C471 O475 1.260 . S
C472 O479 1.240 . S
C472 O480 1.252 . S
C473 O476 1.252 . S
C473 O477 1.260 . S
O474 In468 2.266 . S
O474 C471 1.252 . S
O475 In468 2.326 . S
O475 C471 1.260 . S
O476 In468 2.266 . S
O476 C473 1.252 . S
O477 In468 2.326 . S
O477 C473 1.260 . S
C478 O469 1.240 . S
C478 O470 1.252 . S
O479 In468 2.294 . S
O479 C472 1.240 . S
O480 In468 2.326 . S
O480 C472 1.252 . S
In481 O482 2.294 . S
In481 O483 2.326 . S
In481 O487 2.266 . S
In481 O488 2.326 . S
In481 O489 2.266 . S
In481 O490 2.326 . S
In481 O492 2.294 . S
In481 O493 2.326 . S
O482 In481 2.294 . S
O482 C491 1.240 . S
O483 In481 2.326 . S
O483 C491 1.252 . S
C484 O487 1.252 . S
C484 O488 1.260 . S
C485 O492 1.240 . S
C485 O493 1.252 . S
C486 O489 1.252 . S
C486 O490 1.260 . S
O487 In481 2.266 . S
O487 C484 1.252 . S
O488 In481 2.326 . S
O488 C484 1.260 . S
O489 In481 2.266 . S
O489 C486 1.252 . S
O490 In481 2.326 . S
O490 C486 1.260 . S
C491 O482 1.240 . S
C491 O483 1.252 . S
O492 In481 2.294 . S
O492 C485 1.240 . S
O493 In481 2.326 . S
O493 C485 1.252 . S
In494 O495 2.294 . S
In494 O496 2.326 . S
In494 O500 2.266 . S
In494 O501 2.326 . S
In494 O502 2.266 . S
In494 O503 2.326 . S
In494 O505 2.294 . S
In494 O506 2.326 . S
O495 In494 2.294 . S
O495 C504 1.240 . S
O496 In494 2.326 . S
O496 C504 1.252 . S
C497 O500 1.252 . S
C497 O501 1.260 . S
C498 O505 1.240 . S
C498 O506 1.252 . S
C499 O502 1.252 . S
C499 O503 1.260 . S
O500 In494 2.266 . S
O500 C497 1.252 . S
O501 In494 2.326 . S
O501 C497 1.260 . S
O502 In494 2.266 . S
O502 C499 1.252 . S
O503 In494 2.326 . S
O503 C499 1.260 . S
C504 O495 1.240 . S
C504 O496 1.252 . S
O505 In494 2.294 . S
O505 C498 1.240 . S
O506 In494 2.326 . S
O506 C498 1.252 . S
In507 O508 2.294 . S
In507 O509 2.326 . S
In507 O513 2.266 . S
In507 O514 2.326 . S
In507 O515 2.266 . S
In507 O516 2.326 . S
In507 O518 2.294 . S
In507 O519 2.326 . S
O508 In507 2.294 . S
O508 C517 1.240 . S
O509 In507 2.326 . S
O509 C517 1.252 . S
C510 O513 1.252 . S
C510 O514 1.260 . S
C511 O518 1.240 . S
C511 O519 1.252 . S
C512 O515 1.252 . S
C512 O516 1.260 . S
O513 In507 2.266 . S
O513 C510 1.252 . S
O514 In507 2.326 . S
O514 C510 1.260 . S
O515 In507 2.266 . S
O515 C512 1.252 . S
O516 In507 2.326 . S
O516 C512 1.260 . S
C517 O508 1.240 . S
C517 O509 1.252 . S
O518 In507 2.294 . S
O518 C511 1.240 . S
O519 In507 2.326 . S
O519 C511 1.252 . S
In520 O521 2.294 . S
In520 O522 2.326 . S
In520 O526 2.266 . S
In520 O527 2.326 . S
In520 O528 2.266 . S
In520 O529 2.326 . S
In520 O531 2.294 . S
In520 O532 2.326 . S
O521 In520 2.294 . S
O521 C530 1.240 . S
O522 In520 2.326 . S
O522 C530 1.252 . S
C523 O526 1.252 . S
C523 O527 1.260 . S
C524 O531 1.240 . S
C524 O532 1.252 . S
C525 O528 1.252 . S
C525 O529 1.260 . S
O526 In520 2.266 . S
O526 C523 1.252 . S
O527 In520 2.326 . S
O527 C523 1.260 . S
O528 In520 2.266 . S
O528 C525 1.252 . S
O529 In520 2.326 . S
O529 C525 1.260 . S
C530 O521 1.240 . S
C530 O522 1.252 . S
O531 In520 2.294 . S
O531 C524 1.240 . S
O532 In520 2.326 . S
O532 C524 1.252 . S
In533 O534 2.294 . S
In533 O535 2.326 . S
In533 O539 2.266 . S
In533 O540 2.326 . S
In533 O541 2.266 . S
In533 O542 2.326 . S
In533 O544 2.294 . S
In533 O545 2.326 . S
O534 In533 2.294 . S
O534 C543 1.240 . S
O535 In533 2.326 . S
O535 C543 1.252 . S
C536 O539 1.252 . S
C536 O540 1.260 . S
C537 O544 1.240 . S
C537 O545 1.252 . S
C538 O541 1.252 . S
C538 O542 1.260 . S
O539 In533 2.266 . S
O539 C536 1.252 . S
O540 In533 2.326 . S
O540 C536 1.260 . S
O541 In533 2.266 . S
O541 C538 1.252 . S
O542 In533 2.326 . S
O542 C538 1.260 . S
C543 O534 1.240 . S
C543 O535 1.252 . S
O544 In533 2.294 . S
O544 C537 1.240 . S
O545 In533 2.326 . S
O545 C537 1.252 . S
In546 O547 2.294 . S
In546 O548 2.326 . S
In546 O552 2.266 . S
In546 O553 2.326 . S
In546 O554 2.266 . S
In546 O555 2.326 . S
In546 O557 2.294 . S
In546 O558 2.326 . S
O547 In546 2.294 . S
O547 C556 1.240 . S
O548 In546 2.326 . S
O548 C556 1.252 . S
C549 O552 1.252 . S
C549 O553 1.260 . S
C550 O557 1.240 . S
C550 O558 1.252 . S
C551 O554 1.252 . S
C551 O555 1.260 . S
O552 In546 2.266 . S
O552 C549 1.252 . S
O553 In546 2.326 . S
O553 C549 1.260 . S
O554 In546 2.266 . S
O554 C551 1.252 . S
O555 In546 2.326 . S
O555 C551 1.260 . S
C556 O547 1.240 . S
C556 O548 1.252 . S
O557 In546 2.294 . S
O557 C550 1.240 . S
O558 In546 2.326 . S
O558 C550 1.252 . S
In559 O560 2.294 . S
In559 O561 2.326 . S
In559 O565 2.266 . S
In559 O566 2.326 . S
In559 O567 2.266 . S
In559 O568 2.326 . S
In559 O570 2.294 . S
In559 O571 2.326 . S
O560 In559 2.294 . S
O560 C569 1.240 . S
O561 In559 2.326 . S
O561 C569 1.252 . S
C562 O565 1.252 . S
C562 O566 1.260 . S
C563 O570 1.240 . S
C563 O571 1.252 . S
C564 O567 1.252 . S
C564 O568 1.260 . S
O565 In559 2.266 . S
O565 C562 1.252 . S
O566 In559 2.326 . S
O566 C562 1.260 . S
O567 In559 2.266 . S
O567 C564 1.252 . S
O568 In559 2.326 . S
O568 C564 1.260 . S
C569 O560 1.240 . S
C569 O561 1.252 . S
O570 In559 2.294 . S
O570 C563 1.240 . S
O571 In559 2.326 . S
O571 C563 1.252 . S
In572 O573 2.294 . S
In572 O574 2.326 . S
In572 O578 2.266 . S
In572 O579 2.326 . S
In572 O580 2.266 . S
In572 O581 2.326 . S
In572 O583 2.294 . S
In572 O584 2.326 . S
O573 In572 2.294 . S
O573 C582 1.240 . S
O574 In572 2.326 . S
O574 C582 1.252 . S
C575 O578 1.252 . S
C575 O579 1.260 . S
C576 O583 1.240 . S
C576 O584 1.252 . S
C577 O580 1.252 . S
C577 O581 1.260 . S
O578 In572 2.266 . S
O578 C575 1.252 . S
O579 In572 2.326 . S
O579 C575 1.260 . S
O580 In572 2.266 . S
O580 C577 1.252 . S
O581 In572 2.326 . S
O581 C577 1.260 . S
C582 O573 1.240 . S
C582 O574 1.252 . S
O583 In572 2.294 . S
O583 C576 1.240 . S
O584 In572 2.326 . S
O584 C576 1.252 . S
In585 O586 2.294 . S
In585 O587 2.326 . S
In585 O591 2.266 . S
In585 O592 2.326 . S
In585 O593 2.266 . S
In585 O594 2.326 . S
In585 O596 2.294 . S
In585 O597 2.326 . S
O586 In585 2.294 . S
O586 C595 1.240 . S
O587 In585 2.326 . S
O587 C595 1.252 . S
C588 O591 1.252 . S
C588 O592 1.260 . S
C589 O596 1.240 . S
C589 O597 1.252 . S
C590 O593 1.252 . S
C590 O594 1.260 . S
O591 In585 2.266 . S
O591 C588 1.252 . S
O592 In585 2.326 . S
O592 C588 1.260 . S
O593 In585 2.266 . S
O593 C590 1.252 . S
O594 In585 2.326 . S
O594 C590 1.260 . S
C595 O586 1.240 . S
C595 O587 1.252 . S
O596 In585 2.294 . S
O596 C589 1.240 . S
O597 In585 2.326 . S
O597 C589 1.252 . S
In598 O599 2.294 . S
In598 O600 2.326 . S
In598 O604 2.266 . S
In598 O605 2.326 . S
In598 O606 2.266 . S
In598 O607 2.326 . S
In598 O609 2.294 . S
In598 O610 2.326 . S
O599 In598 2.294 . S
O599 C608 1.240 . S
O600 In598 2.326 . S
O600 C608 1.252 . S
C601 O604 1.252 . S
C601 O605 1.260 . S
C602 O609 1.240 . S
C602 O610 1.252 . S
C603 O606 1.252 . S
C603 O607 1.260 . S
O604 In598 2.266 . S
O604 C601 1.252 . S
O605 In598 2.326 . S
O605 C601 1.260 . S
O606 In598 2.266 . S
O606 C603 1.252 . S
O607 In598 2.326 . S
O607 C603 1.260 . S
C608 O599 1.240 . S
C608 O600 1.252 . S
O609 In598 2.294 . S
O609 C602 1.240 . S
O610 In598 2.326 . S
O610 C602 1.252 . S
In611 O612 2.294 . S
In611 O613 2.326 . S
In611 O617 2.266 . S
In611 O618 2.326 . S
In611 O619 2.266 . S
In611 O620 2.326 . S
In611 O622 2.294 . S
In611 O623 2.326 . S
O612 In611 2.294 . S
O612 C621 1.240 . S
O613 In611 2.326 . S
O613 C621 1.252 . S
C614 O617 1.252 . S
C614 O618 1.260 . S
C615 O622 1.240 . S
C615 O623 1.252 . S
C616 O619 1.252 . S
C616 O620 1.260 . S
O617 In611 2.266 . S
O617 C614 1.252 . S
O618 In611 2.326 . S
O618 C614 1.260 . S
O619 In611 2.266 . S
O619 C616 1.252 . S
O620 In611 2.326 . S
O620 C616 1.260 . S
C621 O612 1.240 . S
C621 O613 1.252 . S
O622 In611 2.294 . S
O622 C615 1.240 . S
O623 In611 2.326 . S
O623 C615 1.252 . S
In624 O625 2.294 . S
In624 O626 2.326 . S
In624 O630 2.266 . S
In624 O631 2.326 . S
In624 O632 2.266 . S
In624 O633 2.326 . S
In624 O635 2.294 . S
In624 O636 2.326 . S
O625 In624 2.294 . S
O625 C634 1.240 . S
O626 In624 2.326 . S
O626 C634 1.252 . S
C627 O630 1.252 . S
C627 O631 1.260 . S
C628 O635 1.240 . S
C628 O636 1.252 . S
C629 O632 1.252 . S
C629 O633 1.260 . S
O630 In624 2.266 . S
O630 C627 1.252 . S
O631 In624 2.326 . S
O631 C627 1.260 . S
O632 In624 2.266 . S
O632 C629 1.252 . S
O633 In624 2.326 . S
O633 C629 1.260 . S
C634 O625 1.240 . S
C634 O626 1.252 . S
O635 In624 2.294 . S
O635 C628 1.240 . S
O636 In624 2.326 . S
O636 C628 1.252 . S
In637 O638 2.294 . S
In637 O639 2.326 . S
In637 O643 2.266 . S
In637 O644 2.326 . S
In637 O645 2.266 . S
In637 O646 2.326 . S
In637 O648 2.294 . S
In637 O649 2.326 . S
O638 In637 2.294 . S
O638 C647 1.240 . S
O639 In637 2.326 . S
O639 C647 1.252 . S
C640 O643 1.252 . S
C640 O644 1.260 . S
C641 O648 1.240 . S
C641 O649 1.252 . S
C642 O645 1.252 . S
C642 O646 1.260 . S
O643 In637 2.266 . S
O643 C640 1.252 . S
O644 In637 2.326 . S
O644 C640 1.260 . S
O645 In637 2.266 . S
O645 C642 1.252 . S
O646 In637 2.326 . S
O646 C642 1.260 . S
C647 O638 1.240 . S
C647 O639 1.252 . S
O648 In637 2.294 . S
O648 C641 1.240 . S
O649 In637 2.326 . S
O649 C641 1.252 . S
In650 O651 2.294 . S
In650 O652 2.326 . S
In650 O656 2.266 . S
In650 O657 2.326 . S
In650 O658 2.266 . S
In650 O659 2.326 . S
In650 O661 2.294 . S
In650 O662 2.326 . S
O651 In650 2.294 . S
O651 C660 1.240 . S
O652 In650 2.326 . S
O652 C660 1.252 . S
C653 O656 1.252 . S
C653 O657 1.260 . S
C654 O661 1.240 . S
C654 O662 1.252 . S
C655 O658 1.252 . S
C655 O659 1.260 . S
O656 In650 2.266 . S
O656 C653 1.252 . S
O657 In650 2.326 . S
O657 C653 1.260 . S
O658 In650 2.266 . S
O658 C655 1.252 . S
O659 In650 2.326 . S
O659 C655 1.260 . S
C660 O651 1.240 . S
C660 O652 1.252 . S
O661 In650 2.294 . S
O661 C654 1.240 . S
O662 In650 2.326 . S
O662 C654 1.252 . S
In663 O664 2.294 . S
In663 O665 2.326 . S
In663 O669 2.266 . S
In663 O670 2.326 . S
In663 O671 2.266 . S
In663 O672 2.326 . S
In663 O674 2.294 . S
In663 O675 2.326 . S
O664 In663 2.294 . S
O664 C673 1.240 . S
O665 In663 2.326 . S
O665 C673 1.252 . S
C666 O669 1.252 . S
C666 O670 1.260 . S
C667 O674 1.240 . S
C667 O675 1.252 . S
C668 O671 1.252 . S
C668 O672 1.260 . S
O669 In663 2.266 . S
O669 C666 1.252 . S
O670 In663 2.326 . S
O670 C666 1.260 . S
O671 In663 2.266 . S
O671 C668 1.252 . S
O672 In663 2.326 . S
O672 C668 1.260 . S
C673 O664 1.240 . S
C673 O665 1.252 . S
O674 In663 2.294 . S
O674 C667 1.240 . S
O675 In663 2.326 . S
O675 C667 1.252 . S
In676 O677 2.294 . S
In676 O678 2.326 . S
In676 O682 2.266 . S
In676 O683 2.326 . S
In676 O684 2.266 . S
In676 O685 2.326 . S
In676 O687 2.294 . S
In676 O688 2.326 . S
O677 In676 2.294 . S
O677 C686 1.240 . S
O678 In676 2.326 . S
O678 C686 1.252 . S
C679 O682 1.252 . S
C679 O683 1.260 . S
C680 O687 1.240 . S
C680 O688 1.252 . S
C681 O684 1.252 . S
C681 O685 1.260 . S
O682 In676 2.266 . S
O682 C679 1.252 . S
O683 In676 2.326 . S
O683 C679 1.260 . S
O684 In676 2.266 . S
O684 C681 1.252 . S
O685 In676 2.326 . S
O685 C681 1.260 . S
C686 O677 1.240 . S
C686 O678 1.252 . S
O687 In676 2.294 . S
O687 C680 1.240 . S
O688 In676 2.326 . S
O688 C680 1.252 . S
In689 O690 2.294 . S
In689 O691 2.326 . S
In689 O695 2.266 . S
In689 O696 2.326 . S
In689 O697 2.266 . S
In689 O698 2.326 . S
In689 O700 2.294 . S
In689 O701 2.326 . S
O690 In689 2.294 . S
O690 C699 1.240 . S
O691 In689 2.326 . S
O691 C699 1.252 . S
C692 O695 1.252 . S
C692 O696 1.260 . S
C693 O700 1.240 . S
C693 O701 1.252 . S
C694 O697 1.252 . S
C694 O698 1.260 . S
O695 In689 2.266 . S
O695 C692 1.252 . S
O696 In689 2.326 . S
O696 C692 1.260 . S
O697 In689 2.266 . S
O697 C694 1.252 . S
O698 In689 2.326 . S
O698 C694 1.260 . S
C699 O690 1.240 . S
C699 O691 1.252 . S
O700 In689 2.294 . S
O700 C693 1.240 . S
O701 In689 2.326 . S
O701 C693 1.252 . S
In702 O703 2.294 . S
In702 O704 2.326 . S
In702 O708 2.266 . S
In702 O709 2.326 . S
In702 O710 2.266 . S
In702 O711 2.326 . S
In702 O713 2.294 . S
In702 O714 2.326 . S
O703 In702 2.294 . S
O703 C712 1.240 . S
O704 In702 2.326 . S
O704 C712 1.252 . S
C705 O708 1.252 . S
C705 O709 1.260 . S
C706 O713 1.240 . S
C706 O714 1.252 . S
C707 O710 1.252 . S
C707 O711 1.260 . S
O708 In702 2.266 . S
O708 C705 1.252 . S
O709 In702 2.326 . S
O709 C705 1.260 . S
O710 In702 2.266 . S
O710 C707 1.252 . S
O711 In702 2.326 . S
O711 C707 1.260 . S
C712 O703 1.240 . S
C712 O704 1.252 . S
O713 In702 2.294 . S
O713 C706 1.240 . S
O714 In702 2.326 . S
O714 C706 1.252 . S
In715 O716 2.294 . S
In715 O717 2.326 . S
In715 O721 2.266 . S
In715 O722 2.326 . S
In715 O723 2.266 . S
In715 O724 2.326 . S
In715 O726 2.294 . S
In715 O727 2.326 . S
O716 In715 2.294 . S
O716 C725 1.240 . S
O717 In715 2.326 . S
O717 C725 1.252 . S
C718 O721 1.252 . S
C718 O722 1.260 . S
C719 O726 1.240 . S
C719 O727 1.252 . S
C720 O723 1.252 . S
C720 O724 1.260 . S
O721 In715 2.266 . S
O721 C718 1.252 . S
O722 In715 2.326 . S
O722 C718 1.260 . S
O723 In715 2.266 . S
O723 C720 1.252 . S
O724 In715 2.326 . S
O724 C720 1.260 . S
C725 O716 1.240 . S
C725 O717 1.252 . S
O726 In715 2.294 . S
O726 C719 1.240 . S
O727 In715 2.326 . S
O727 C719 1.252 . S
In728 O729 2.294 . S
In728 O730 2.326 . S
In728 O734 2.266 . S
In728 O735 2.326 . S
In728 O736 2.266 . S
In728 O737 2.326 . S
In728 O739 2.294 . S
In728 O740 2.326 . S
O729 In728 2.294 . S
O729 C738 1.240 . S
O730 In728 2.326 . S
O730 C738 1.252 . S
C731 O734 1.252 . S
C731 O735 1.260 . S
C732 O739 1.240 . S
C732 O740 1.252 . S
C733 O736 1.252 . S
C733 O737 1.260 . S
O734 In728 2.266 . S
O734 C731 1.252 . S
O735 In728 2.326 . S
O735 C731 1.260 . S
O736 In728 2.266 . S
O736 C733 1.252 . S
O737 In728 2.326 . S
O737 C733 1.260 . S
C738 O729 1.240 . S
C738 O730 1.252 . S
O739 In728 2.294 . S
O739 C732 1.240 . S
O740 In728 2.326 . S
O740 C732 1.252 . S
In741 O742 2.294 . S
In741 O743 2.326 . S
In741 O747 2.266 . S
In741 O748 2.326 . S
In741 O749 2.266 . S
In741 O750 2.326 . S
In741 O752 2.294 . S
In741 O753 2.326 . S
O742 In741 2.294 . S
O742 C751 1.240 . S
O743 In741 2.326 . S
O743 C751 1.252 . S
C744 O747 1.252 . S
C744 O748 1.260 . S
C745 O752 1.240 . S
C745 O753 1.252 . S
C746 O749 1.252 . S
C746 O750 1.260 . S
O747 In741 2.266 . S
O747 C744 1.252 . S
O748 In741 2.326 . S
O748 C744 1.260 . S
O749 In741 2.266 . S
O749 C746 1.252 . S
O750 In741 2.326 . S
O750 C746 1.260 . S
C751 O742 1.240 . S
C751 O743 1.252 . S
O752 In741 2.294 . S
O752 C745 1.240 . S
O753 In741 2.326 . S
O753 C745 1.252 . S
In754 O755 2.294 . S
In754 O756 2.326 . S
In754 O760 2.266 . S
In754 O761 2.326 . S
In754 O762 2.266 . S
In754 O763 2.326 . S
In754 O765 2.294 . S
In754 O766 2.326 . S
O755 In754 2.294 . S
O755 C764 1.240 . S
O756 In754 2.326 . S
O756 C764 1.252 . S
C757 O760 1.252 . S
C757 O761 1.260 . S
C758 O765 1.240 . S
C758 O766 1.252 . S
C759 O762 1.252 . S
C759 O763 1.260 . S
O760 In754 2.266 . S
O760 C757 1.252 . S
O761 In754 2.326 . S
O761 C757 1.260 . S
O762 In754 2.266 . S
O762 C759 1.252 . S
O763 In754 2.326 . S
O763 C759 1.260 . S
C764 O755 1.240 . S
C764 O756 1.252 . S
O765 In754 2.294 . S
O765 C758 1.240 . S
O766 In754 2.326 . S
O766 C758 1.252 . S
In767 O768 2.294 . S
In767 O769 2.326 . S
In767 O773 2.266 . S
In767 O774 2.326 . S
In767 O775 2.266 . S
In767 O776 2.326 . S
In767 O778 2.294 . S
In767 O779 2.326 . S
O768 In767 2.294 . S
O768 C777 1.240 . S
O769 In767 2.326 . S
O769 C777 1.252 . S
C770 O773 1.252 . S
C770 O774 1.260 . S
C771 O778 1.240 . S
C771 O779 1.252 . S
C772 O775 1.252 . S
C772 O776 1.260 . S
O773 In767 2.266 . S
O773 C770 1.252 . S
O774 In767 2.326 . S
O774 C770 1.260 . S
O775 In767 2.266 . S
O775 C772 1.252 . S
O776 In767 2.326 . S
O776 C772 1.260 . S
C777 O768 1.240 . S
C777 O769 1.252 . S
O778 In767 2.294 . S
O778 C771 1.240 . S
O779 In767 2.326 . S
O779 C771 1.252 . S
In780 O781 2.294 . S
In780 O782 2.326 . S
In780 O786 2.266 . S
In780 O787 2.326 . S
In780 O788 2.266 . S
In780 O789 2.326 . S
In780 O791 2.294 . S
In780 O792 2.326 . S
O781 In780 2.294 . S
O781 C790 1.240 . S
O782 In780 2.326 . S
O782 C790 1.252 . S
C783 O786 1.252 . S
C783 O787 1.260 . S
C784 O791 1.240 . S
C784 O792 1.252 . S
C785 O788 1.252 . S
C785 O789 1.260 . S
O786 In780 2.266 . S
O786 C783 1.252 . S
O787 In780 2.326 . S
O787 C783 1.260 . S
O788 In780 2.266 . S
O788 C785 1.252 . S
O789 In780 2.326 . S
O789 C785 1.260 . S
C790 O781 1.240 . S
C790 O782 1.252 . S
O791 In780 2.294 . S
O791 C784 1.240 . S
O792 In780 2.326 . S
O792 C784 1.252 . S
In793 O794 2.294 . S
In793 O795 2.326 . S
In793 O799 2.266 . S
In793 O800 2.326 . S
In793 O801 2.266 . S
In793 O802 2.326 . S
In793 O804 2.294 . S
In793 O805 2.326 . S
O794 In793 2.294 . S
O794 C803 1.240 . S
O795 In793 2.326 . S
O795 C803 1.252 . S
C796 O799 1.252 . S
C796 O800 1.260 . S
C797 O804 1.240 . S
C797 O805 1.252 . S
C798 O801 1.252 . S
C798 O802 1.260 . S
O799 In793 2.266 . S
O799 C796 1.252 . S
O800 In793 2.326 . S
O800 C796 1.260 . S
O801 In793 2.266 . S
O801 C798 1.252 . S
O802 In793 2.326 . S
O802 C798 1.260 . S
C803 O794 1.240 . S
C803 O795 1.252 . S
O804 In793 2.294 . S
O804 C797 1.240 . S
O805 In793 2.326 . S
O805 C797 1.252 . S
In806 O807 2.294 . S
In806 O808 2.326 . S
In806 O812 2.266 . S
In806 O813 2.326 . S
In806 O814 2.266 . S
In806 O815 2.326 . S
In806 O817 2.294 . S
In806 O818 2.326 . S
O807 In806 2.294 . S
O807 C816 1.240 . S
O808 In806 2.326 . S
O808 C816 1.252 . S
C809 O812 1.252 . S
C809 O813 1.260 . S
C810 O817 1.240 . S
C810 O818 1.252 . S
C811 O814 1.252 . S
C811 O815 1.260 . S
O812 In806 2.266 . S
O812 C809 1.252 . S
O813 In806 2.326 . S
O813 C809 1.260 . S
O814 In806 2.266 . S
O814 C811 1.252 . S
O815 In806 2.326 . S
O815 C811 1.260 . S
C816 O807 1.240 . S
C816 O808 1.252 . S
O817 In806 2.294 . S
O817 C810 1.240 . S
O818 In806 2.326 . S
O818 C810 1.252 . S
In819 O820 2.294 . S
In819 O821 2.326 . S
In819 O825 2.266 . S
In819 O826 2.326 . S
In819 O827 2.266 . S
In819 O828 2.326 . S
In819 O830 2.294 . S
In819 O831 2.326 . S
O820 In819 2.294 . S
O820 C829 1.240 . S
O821 In819 2.326 . S
O821 C829 1.252 . S
C822 O825 1.252 . S
C822 O826 1.260 . S
C823 O830 1.240 . S
C823 O831 1.252 . S
C824 O827 1.252 . S
C824 O828 1.260 . S
O825 In819 2.266 . S
O825 C822 1.252 . S
O826 In819 2.326 . S
O826 C822 1.260 . S
O827 In819 2.266 . S
O827 C824 1.252 . S
O828 In819 2.326 . S
O828 C824 1.260 . S
C829 O820 1.240 . S
C829 O821 1.252 . S
O830 In819 2.294 . S
O830 C823 1.240 . S
O831 In819 2.326 . S
O831 C823 1.252 . S
In832 O833 2.294 . S
In832 O834 2.326 . S
In832 O838 2.266 . S
In832 O839 2.326 . S
In832 O840 2.266 . S
In832 O841 2.326 . S
In832 O843 2.294 . S
In832 O844 2.326 . S
O833 In832 2.294 . S
O833 C842 1.240 . S
O834 In832 2.326 . S
O834 C842 1.252 . S
C835 O838 1.252 . S
C835 O839 1.260 . S
C836 O843 1.240 . S
C836 O844 1.252 . S
C837 O840 1.252 . S
C837 O841 1.260 . S
O838 In832 2.266 . S
O838 C835 1.252 . S
O839 In832 2.326 . S
O839 C835 1.260 . S
O840 In832 2.266 . S
O840 C837 1.252 . S
O841 In832 2.326 . S
O841 C837 1.260 . S
C842 O833 1.240 . S
C842 O834 1.252 . S
O843 In832 2.294 . S
O843 C836 1.240 . S
O844 In832 2.326 . S
O844 C836 1.252 . S
In845 O846 2.294 . S
In845 O847 2.326 . S
In845 O851 2.266 . S
In845 O852 2.326 . S
In845 O853 2.266 . S
In845 O854 2.326 . S
In845 O856 2.294 . S
In845 O857 2.326 . S
O846 In845 2.294 . S
O846 C855 1.240 . S
O847 In845 2.326 . S
O847 C855 1.252 . S
C848 O851 1.252 . S
C848 O852 1.260 . S
C849 O856 1.240 . S
C849 O857 1.252 . S
C850 O853 1.252 . S
C850 O854 1.260 . S
O851 In845 2.266 . S
O851 C848 1.252 . S
O852 In845 2.326 . S
O852 C848 1.260 . S
O853 In845 2.266 . S
O853 C850 1.252 . S
O854 In845 2.326 . S
O854 C850 1.260 . S
C855 O846 1.240 . S
C855 O847 1.252 . S
O856 In845 2.294 . S
O856 C849 1.240 . S
O857 In845 2.326 . S
O857 C849 1.252 . S
In858 O859 2.294 . S
In858 O860 2.326 . S
In858 O864 2.266 . S
In858 O865 2.326 . S
In858 O866 2.266 . S
In858 O867 2.326 . S
In858 O869 2.294 . S
In858 O870 2.326 . S
O859 In858 2.294 . S
O859 C868 1.240 . S
O860 In858 2.326 . S
O860 C868 1.252 . S
C861 O864 1.252 . S
C861 O865 1.260 . S
C862 O869 1.240 . S
C862 O870 1.252 . S
C863 O866 1.252 . S
C863 O867 1.260 . S
O864 In858 2.266 . S
O864 C861 1.252 . S
O865 In858 2.326 . S
O865 C861 1.260 . S
O866 In858 2.266 . S
O866 C863 1.252 . S
O867 In858 2.326 . S
O867 C863 1.260 . S
C868 O859 1.240 . S
C868 O860 1.252 . S
O869 In858 2.294 . S
O869 C862 1.240 . S
O870 In858 2.326 . S
O870 C862 1.252 . S
In871 O872 2.294 . S
In871 O873 2.326 . S
In871 O877 2.266 . S
In871 O878 2.326 . S
In871 O879 2.266 . S
In871 O880 2.326 . S
In871 O882 2.294 . S
In871 O883 2.326 . S
O872 In871 2.294 . S
O872 C881 1.240 . S
O873 In871 2.326 . S
O873 C881 1.252 . S
C874 O877 1.252 . S
C874 O878 1.260 . S
C875 O882 1.240 . S
C875 O883 1.252 . S
C876 O879 1.252 . S
C876 O880 1.260 . S
O877 In871 2.266 . S
O877 C874 1.252 . S
O878 In871 2.326 . S
O878 C874 1.260 . S
O879 In871 2.266 . S
O879 C876 1.252 . S
O880 In871 2.326 . S
O880 C876 1.260 . S
C881 O872 1.240 . S
C881 O873 1.252 . S
O882 In871 2.294 . S
O882 C875 1.240 . S
O883 In871 2.326 . S
O883 C875 1.252 . S
In884 O885 2.294 . S
In884 O886 2.326 . S
In884 O890 2.266 . S
In884 O891 2.326 . S
In884 O892 2.266 . S
In884 O893 2.326 . S
In884 O895 2.294 . S
In884 O896 2.326 . S
O885 In884 2.294 . S
O885 C894 1.240 . S
O886 In884 2.326 . S
O886 C894 1.252 . S
C887 O890 1.252 . S
C887 O891 1.260 . S
C888 O895 1.240 . S
C888 O896 1.252 . S
C889 O892 1.252 . S
C889 O893 1.260 . S
O890 In884 2.266 . S
O890 C887 1.252 . S
O891 In884 2.326 . S
O891 C887 1.260 . S
O892 In884 2.266 . S
O892 C889 1.252 . S
O893 In884 2.326 . S
O893 C889 1.260 . S
C894 O885 1.240 . S
C894 O886 1.252 . S
O895 In884 2.294 . S
O895 C888 1.240 . S
O896 In884 2.326 . S
O896 C888 1.252 . S
In897 O898 2.294 . S
In897 O899 2.326 . S
In897 O903 2.266 . S
In897 O904 2.326 . S
In897 O905 2.266 . S
In897 O906 2.326 . S
In897 O908 2.294 . S
In897 O909 2.326 . S
O898 In897 2.294 . S
O898 C907 1.240 . S
O899 In897 2.326 . S
O899 C907 1.252 . S
C900 O903 1.252 . S
C900 O904 1.260 . S
C901 O908 1.240 . S
C901 O909 1.252 . S
C902 O905 1.252 . S
C902 O906 1.260 . S
O903 In897 2.266 . S
O903 C900 1.252 . S
O904 In897 2.326 . S
O904 C900 1.260 . S
O905 In897 2.266 . S
O905 C902 1.252 . S
O906 In897 2.326 . S
O906 C902 1.260 . S
C907 O898 1.240 . S
C907 O899 1.252 . S
O908 In897 2.294 . S
O908 C901 1.240 . S
O909 In897 2.326 . S
O909 C901 1.252 . S
In910 O911 2.294 . S
In910 O912 2.326 . S
In910 O916 2.266 . S
In910 O917 2.326 . S
In910 O918 2.266 . S
In910 O919 2.326 . S
In910 O921 2.294 . S
In910 O922 2.326 . S
O911 In910 2.294 . S
O911 C920 1.240 . S
O912 In910 2.326 . S
O912 C920 1.252 . S
C913 O916 1.252 . S
C913 O917 1.260 . S
C914 O921 1.240 . S
C914 O922 1.252 . S
C915 O918 1.252 . S
C915 O919 1.260 . S
O916 In910 2.266 . S
O916 C913 1.252 . S
O917 In910 2.326 . S
O917 C913 1.260 . S
O918 In910 2.266 . S
O918 C915 1.252 . S
O919 In910 2.326 . S
O919 C915 1.260 . S
C920 O911 1.240 . S
C920 O912 1.252 . S
O921 In910 2.294 . S
O921 C914 1.240 . S
O922 In910 2.326 . S
O922 C914 1.252 . S
In923 O924 2.294 . S
In923 O925 2.326 . S
In923 O929 2.266 . S
In923 O930 2.326 . S
In923 O931 2.266 . S
In923 O932 2.326 . S
In923 O934 2.294 . S
In923 O935 2.326 . S
O924 In923 2.294 . S
O924 C933 1.240 . S
O925 In923 2.326 . S
O925 C933 1.252 . S
C926 O929 1.252 . S
C926 O930 1.260 . S
C927 O934 1.240 . S
C927 O935 1.252 . S
C928 O931 1.252 . S
C928 O932 1.260 . S
O929 In923 2.266 . S
O929 C926 1.252 . S
O930 In923 2.326 . S
O930 C926 1.260 . S
O931 In923 2.266 . S
O931 C928 1.252 . S
O932 In923 2.326 . S
O932 C928 1.260 . S
C933 O924 1.240 . S
C933 O925 1.252 . S
O934 In923 2.294 . S
O934 C927 1.240 . S
O935 In923 2.326 . S
O935 C927 1.252 . S
In936 O937 2.294 . S
In936 O938 2.326 . S
In936 O942 2.266 . S
In936 O943 2.326 . S
In936 O944 2.266 . S
In936 O945 2.326 . S
In936 O947 2.294 . S
In936 O948 2.326 . S
O937 In936 2.294 . S
O937 C946 1.240 . S
O938 In936 2.326 . S
O938 C946 1.252 . S
C939 O942 1.252 . S
C939 O943 1.260 . S
C940 O947 1.240 . S
C940 O948 1.252 . S
C941 O944 1.252 . S
C941 O945 1.260 . S
O942 In936 2.266 . S
O942 C939 1.252 . S
O943 In936 2.326 . S
O943 C939 1.260 . S
O944 In936 2.266 . S
O944 C941 1.252 . S
O945 In936 2.326 . S
O945 C941 1.260 . S
C946 O937 1.240 . S
C946 O938 1.252 . S
O947 In936 2.294 . S
O947 C940 1.240 . S
O948 In936 2.326 . S
O948 C940 1.252 . S
In949 O950 2.294 . S
In949 O951 2.326 . S
In949 O955 2.266 . S
In949 O956 2.326 . S
In949 O957 2.266 . S
In949 O958 2.326 . S
In949 O960 2.294 . S
In949 O961 2.326 . S
O950 In949 2.294 . S
O950 C959 1.240 . S
O951 In949 2.326 . S
O951 C959 1.252 . S
C952 O955 1.252 . S
C952 O956 1.260 . S
C953 O960 1.240 . S
C953 O961 1.252 . S
C954 O957 1.252 . S
C954 O958 1.260 . S
O955 In949 2.266 . S
O955 C952 1.252 . S
O956 In949 2.326 . S
O956 C952 1.260 . S
O957 In949 2.266 . S
O957 C954 1.252 . S
O958 In949 2.326 . S
O958 C954 1.260 . S
C959 O950 1.240 . S
C959 O951 1.252 . S
O960 In949 2.294 . S
O960 C953 1.240 . S
O961 In949 2.326 . S
O961 C953 1.252 . S
In962 O963 2.294 . S
In962 O964 2.326 . S
In962 O968 2.266 . S
In962 O969 2.326 . S
In962 O970 2.266 . S
In962 O971 2.326 . S
In962 O973 2.294 . S
In962 O974 2.326 . S
O963 In962 2.294 . S
O963 C972 1.240 . S
O964 In962 2.326 . S
O964 C972 1.252 . S
C965 O968 1.252 . S
C965 O969 1.260 . S
C966 O973 1.240 . S
C966 O974 1.252 . S
C967 O970 1.252 . S
C967 O971 1.260 . S
O968 In962 2.266 . S
O968 C965 1.252 . S
O969 In962 2.326 . S
O969 C965 1.260 . S
O970 In962 2.266 . S
O970 C967 1.252 . S
O971 In962 2.326 . S
O971 C967 1.260 . S
C972 O963 1.240 . S
C972 O964 1.252 . S
O973 In962 2.294 . S
O973 C966 1.240 . S
O974 In962 2.326 . S
O974 C966 1.252 . S
In975 O976 2.294 . S
In975 O977 2.326 . S
In975 O981 2.266 . S
In975 O982 2.326 . S
In975 O983 2.266 . S
In975 O984 2.326 . S
In975 O986 2.294 . S
In975 O987 2.326 . S
O976 In975 2.294 . S
O976 C985 1.240 . S
O977 In975 2.326 . S
O977 C985 1.252 . S
C978 O981 1.252 . S
C978 O982 1.260 . S
C979 O986 1.240 . S
C979 O987 1.252 . S
C980 O983 1.252 . S
C980 O984 1.260 . S
O981 In975 2.266 . S
O981 C978 1.252 . S
O982 In975 2.326 . S
O982 C978 1.260 . S
O983 In975 2.266 . S
O983 C980 1.252 . S
O984 In975 2.326 . S
O984 C980 1.260 . S
C985 O976 1.240 . S
C985 O977 1.252 . S
O986 In975 2.294 . S
O986 C979 1.240 . S
O987 In975 2.326 . S
O987 C979 1.252 . S
In988 O989 2.294 . S
In988 O990 2.326 . S
In988 O994 2.266 . S
In988 O995 2.326 . S
In988 O996 2.266 . S
In988 O997 2.326 . S
In988 O999 2.294 . S
In988 O1000 2.326 . S
O989 In988 2.294 . S
O989 C998 1.240 . S
O990 In988 2.326 . S
O990 C998 1.252 . S
C991 O994 1.252 . S
C991 O995 1.260 . S
C992 O999 1.240 . S
C992 O1000 1.252 . S
C993 O996 1.252 . S
C993 O997 1.260 . S
O994 In988 2.266 . S
O994 C991 1.252 . S
O995 In988 2.326 . S
O995 C991 1.260 . S
O996 In988 2.266 . S
O996 C993 1.252 . S
O997 In988 2.326 . S
O997 C993 1.260 . S
C998 O989 1.240 . S
C998 O990 1.252 . S
O999 In988 2.294 . S
O999 C992 1.240 . S
O1000 In988 2.326 . S
O1000 C992 1.252 . S
In1001 O1002 2.294 . S
In1001 O1003 2.326 . S
In1001 O1007 2.266 . S
In1001 O1008 2.326 . S
In1001 O1009 2.266 . S
In1001 O1010 2.326 . S
In1001 O1012 2.294 . S
In1001 O1013 2.326 . S
O1002 In1001 2.294 . S
O1002 C1011 1.240 . S
O1003 In1001 2.326 . S
O1003 C1011 1.252 . S
C1004 O1007 1.252 . S
C1004 O1008 1.260 . S
C1005 O1012 1.240 . S
C1005 O1013 1.252 . S
C1006 O1009 1.252 . S
C1006 O1010 1.260 . S
O1007 In1001 2.266 . S
O1007 C1004 1.252 . S
O1008 In1001 2.326 . S
O1008 C1004 1.260 . S
O1009 In1001 2.266 . S
O1009 C1006 1.252 . S
O1010 In1001 2.326 . S
O1010 C1006 1.260 . S
C1011 O1002 1.240 . S
C1011 O1003 1.252 . S
O1012 In1001 2.294 . S
O1012 C1005 1.240 . S
O1013 In1001 2.326 . S
O1013 C1005 1.252 . S
In1014 O1015 2.294 . S
In1014 O1016 2.326 . S
In1014 O1020 2.266 . S
In1014 O1021 2.326 . S
In1014 O1022 2.266 . S
In1014 O1023 2.326 . S
In1014 O1025 2.294 . S
In1014 O1026 2.326 . S
O1015 In1014 2.294 . S
O1015 C1024 1.240 . S
O1016 In1014 2.326 . S
O1016 C1024 1.252 . S
C1017 O1020 1.252 . S
C1017 O1021 1.260 . S
C1018 O1025 1.240 . S
C1018 O1026 1.252 . S
C1019 O1022 1.252 . S
C1019 O1023 1.260 . S
O1020 In1014 2.266 . S
O1020 C1017 1.252 . S
O1021 In1014 2.326 . S
O1021 C1017 1.260 . S
O1022 In1014 2.266 . S
O1022 C1019 1.252 . S
O1023 In1014 2.326 . S
O1023 C1019 1.260 . S
C1024 O1015 1.240 . S
C1024 O1016 1.252 . S
O1025 In1014 2.294 . S
O1025 C1018 1.240 . S
O1026 In1014 2.326 . S
O1026 C1018 1.252 . S
In1027 O1028 2.294 . S
In1027 O1029 2.326 . S
In1027 O1033 2.266 . S
In1027 O1034 2.326 . S
In1027 O1035 2.266 . S
In1027 O1036 2.326 . S
In1027 O1038 2.294 . S
In1027 O1039 2.326 . S
O1028 In1027 2.294 . S
O1028 C1037 1.240 . S
O1029 In1027 2.326 . S
O1029 C1037 1.252 . S
C1030 O1033 1.252 . S
C1030 O1034 1.260 . S
C1031 O1038 1.240 . S
C1031 O1039 1.252 . S
C1032 O1035 1.252 . S
C1032 O1036 1.260 . S
O1033 In1027 2.266 . S
O1033 C1030 1.252 . S
O1034 In1027 2.326 . S
O1034 C1030 1.260 . S
O1035 In1027 2.266 . S
O1035 C1032 1.252 . S
O1036 In1027 2.326 . S
O1036 C1032 1.260 . S
C1037 O1028 1.240 . S
C1037 O1029 1.252 . S
O1038 In1027 2.294 . S
O1038 C1031 1.240 . S
O1039 In1027 2.326 . S
O1039 C1031 1.252 . S
In1040 O1041 2.294 . S
In1040 O1042 2.326 . S
In1040 O1046 2.266 . S
In1040 O1047 2.326 . S
In1040 O1048 2.266 . S
In1040 O1049 2.326 . S
In1040 O1051 2.294 . S
In1040 O1052 2.326 . S
O1041 In1040 2.294 . S
O1041 C1050 1.240 . S
O1042 In1040 2.326 . S
O1042 C1050 1.252 . S
C1043 O1046 1.252 . S
C1043 O1047 1.260 . S
C1044 O1051 1.240 . S
C1044 O1052 1.252 . S
C1045 O1048 1.252 . S
C1045 O1049 1.260 . S
O1046 In1040 2.266 . S
O1046 C1043 1.252 . S
O1047 In1040 2.326 . S
O1047 C1043 1.260 . S
O1048 In1040 2.266 . S
O1048 C1045 1.252 . S
O1049 In1040 2.326 . S
O1049 C1045 1.260 . S
C1050 O1041 1.240 . S
C1050 O1042 1.252 . S
O1051 In1040 2.294 . S
O1051 C1044 1.240 . S
O1052 In1040 2.326 . S
O1052 C1044 1.252 . S
In1053 O1054 2.294 . S
In1053 O1055 2.326 . S
In1053 O1059 2.266 . S
In1053 O1060 2.326 . S
In1053 O1061 2.266 . S
In1053 O1062 2.326 . S
In1053 O1064 2.294 . S
In1053 O1065 2.326 . S
O1054 In1053 2.294 . S
O1054 C1063 1.240 . S
O1055 In1053 2.326 . S
O1055 C1063 1.252 . S
C1056 O1059 1.252 . S
C1056 O1060 1.260 . S
C1057 O1064 1.240 . S
C1057 O1065 1.252 . S
C1058 O1061 1.252 . S
C1058 O1062 1.260 . S
O1059 In1053 2.266 . S
O1059 C1056 1.252 . S
O1060 In1053 2.326 . S
O1060 C1056 1.260 . S
O1061 In1053 2.266 . S
O1061 C1058 1.252 . S
O1062 In1053 2.326 . S
O1062 C1058 1.260 . S
C1063 O1054 1.240 . S
C1063 O1055 1.252 . S
O1064 In1053 2.294 . S
O1064 C1057 1.240 . S
O1065 In1053 2.326 . S
O1065 C1057 1.252 . S
In1066 O1067 2.294 . S
In1066 O1068 2.326 . S
In1066 O1072 2.266 . S
In1066 O1073 2.326 . S
In1066 O1074 2.266 . S
In1066 O1075 2.326 . S
In1066 O1077 2.294 . S
In1066 O1078 2.326 . S
O1067 In1066 2.294 . S
O1067 C1076 1.240 . S
O1068 In1066 2.326 . S
O1068 C1076 1.252 . S
C1069 O1072 1.252 . S
C1069 O1073 1.260 . S
C1070 O1077 1.240 . S
C1070 O1078 1.252 . S
C1071 O1074 1.252 . S
C1071 O1075 1.260 . S
O1072 In1066 2.266 . S
O1072 C1069 1.252 . S
O1073 In1066 2.326 . S
O1073 C1069 1.260 . S
O1074 In1066 2.266 . S
O1074 C1071 1.252 . S
O1075 In1066 2.326 . S
O1075 C1071 1.260 . S
C1076 O1067 1.240 . S
C1076 O1068 1.252 . S
O1077 In1066 2.294 . S
O1077 C1070 1.240 . S
O1078 In1066 2.326 . S
O1078 C1070 1.252 . S
In1079 O1080 2.294 . S
In1079 O1081 2.326 . S
In1079 O1085 2.266 . S
In1079 O1086 2.326 . S
In1079 O1087 2.266 . S
In1079 O1088 2.326 . S
In1079 O1090 2.294 . S
In1079 O1091 2.326 . S
O1080 In1079 2.294 . S
O1080 C1089 1.240 . S
O1081 In1079 2.326 . S
O1081 C1089 1.252 . S
C1082 O1085 1.252 . S
C1082 O1086 1.260 . S
C1083 O1090 1.240 . S
C1083 O1091 1.252 . S
C1084 O1087 1.252 . S
C1084 O1088 1.260 . S
O1085 In1079 2.266 . S
O1085 C1082 1.252 . S
O1086 In1079 2.326 . S
O1086 C1082 1.260 . S
O1087 In1079 2.266 . S
O1087 C1084 1.252 . S
O1088 In1079 2.326 . S
O1088 C1084 1.260 . S
C1089 O1080 1.240 . S
C1089 O1081 1.252 . S
O1090 In1079 2.294 . S
O1090 C1083 1.240 . S
O1091 In1079 2.326 . S
O1091 C1083 1.252 . S
In1092 O1093 2.294 . S
In1092 O1094 2.326 . S
In1092 O1098 2.266 . S
In1092 O1099 2.326 . S
In1092 O1100 2.266 . S
In1092 O1101 2.326 . S
In1092 O1103 2.294 . S
In1092 O1104 2.326 . S
O1093 In1092 2.294 . S
O1093 C1102 1.240 . S
O1094 In1092 2.326 . S
O1094 C1102 1.252 . S
C1095 O1098 1.252 . S
C1095 O1099 1.260 . S
C1096 O1103 1.240 . S
C1096 O1104 1.252 . S
C1097 O1100 1.252 . S
C1097 O1101 1.260 . S
O1098 In1092 2.266 . S
O1098 C1095 1.252 . S
O1099 In1092 2.326 . S
O1099 C1095 1.260 . S
O1100 In1092 2.266 . S
O1100 C1097 1.252 . S
O1101 In1092 2.326 . S
O1101 C1097 1.260 . S
C1102 O1093 1.240 . S
C1102 O1094 1.252 . S
O1103 In1092 2.294 . S
O1103 C1096 1.240 . S
O1104 In1092 2.326 . S
O1104 C1096 1.252 . S
In1105 O1106 2.294 . S
In1105 O1107 2.326 . S
In1105 O1111 2.266 . S
In1105 O1112 2.326 . S
In1105 O1113 2.266 . S
In1105 O1114 2.326 . S
In1105 O1116 2.294 . S
In1105 O1117 2.326 . S
O1106 In1105 2.294 . S
O1106 C1115 1.240 . S
O1107 In1105 2.326 . S
O1107 C1115 1.252 . S
C1108 O1111 1.252 . S
C1108 O1112 1.260 . S
C1109 O1116 1.240 . S
C1109 O1117 1.252 . S
C1110 O1113 1.252 . S
C1110 O1114 1.260 . S
O1111 In1105 2.266 . S
O1111 C1108 1.252 . S
O1112 In1105 2.326 . S
O1112 C1108 1.260 . S
O1113 In1105 2.266 . S
O1113 C1110 1.252 . S
O1114 In1105 2.326 . S
O1114 C1110 1.260 . S
C1115 O1106 1.240 . S
C1115 O1107 1.252 . S
O1116 In1105 2.294 . S
O1116 C1109 1.240 . S
O1117 In1105 2.326 . S
O1117 C1109 1.252 . S
In1118 O1119 2.294 . S
In1118 O1120 2.326 . S
In1118 O1124 2.266 . S
In1118 O1125 2.326 . S
In1118 O1126 2.266 . S
In1118 O1127 2.326 . S
In1118 O1129 2.294 . S
In1118 O1130 2.326 . S
O1119 In1118 2.294 . S
O1119 C1128 1.240 . S
O1120 In1118 2.326 . S
O1120 C1128 1.252 . S
C1121 O1124 1.252 . S
C1121 O1125 1.260 . S
C1122 O1129 1.240 . S
C1122 O1130 1.252 . S
C1123 O1126 1.252 . S
C1123 O1127 1.260 . S
O1124 In1118 2.266 . S
O1124 C1121 1.252 . S
O1125 In1118 2.326 . S
O1125 C1121 1.260 . S
O1126 In1118 2.266 . S
O1126 C1123 1.252 . S
O1127 In1118 2.326 . S
O1127 C1123 1.260 . S
C1128 O1119 1.240 . S
C1128 O1120 1.252 . S
O1129 In1118 2.294 . S
O1129 C1122 1.240 . S
O1130 In1118 2.326 . S
O1130 C1122 1.252 . S
In1131 O1132 2.294 . S
In1131 O1133 2.326 . S
In1131 O1137 2.266 . S
In1131 O1138 2.326 . S
In1131 O1139 2.266 . S
In1131 O1140 2.326 . S
In1131 O1142 2.294 . S
In1131 O1143 2.326 . S
O1132 In1131 2.294 . S
O1132 C1141 1.240 . S
O1133 In1131 2.326 . S
O1133 C1141 1.252 . S
C1134 O1137 1.252 . S
C1134 O1138 1.260 . S
C1135 O1142 1.240 . S
C1135 O1143 1.252 . S
C1136 O1139 1.252 . S
C1136 O1140 1.260 . S
O1137 In1131 2.266 . S
O1137 C1134 1.252 . S
O1138 In1131 2.326 . S
O1138 C1134 1.260 . S
O1139 In1131 2.266 . S
O1139 C1136 1.252 . S
O1140 In1131 2.326 . S
O1140 C1136 1.260 . S
C1141 O1132 1.240 . S
C1141 O1133 1.252 . S
O1142 In1131 2.294 . S
O1142 C1135 1.240 . S
O1143 In1131 2.326 . S
O1143 C1135 1.252 . S
In1144 O1145 2.294 . S
In1144 O1146 2.326 . S
In1144 O1150 2.266 . S
In1144 O1151 2.326 . S
In1144 O1152 2.266 . S
In1144 O1153 2.326 . S
In1144 O1155 2.294 . S
In1144 O1156 2.326 . S
O1145 In1144 2.294 . S
O1145 C1154 1.240 . S
O1146 In1144 2.326 . S
O1146 C1154 1.252 . S
C1147 O1150 1.252 . S
C1147 O1151 1.260 . S
C1148 O1155 1.240 . S
C1148 O1156 1.252 . S
C1149 O1152 1.252 . S
C1149 O1153 1.260 . S
O1150 In1144 2.266 . S
O1150 C1147 1.252 . S
O1151 In1144 2.326 . S
O1151 C1147 1.260 . S
O1152 In1144 2.266 . S
O1152 C1149 1.252 . S
O1153 In1144 2.326 . S
O1153 C1149 1.260 . S
C1154 O1145 1.240 . S
C1154 O1146 1.252 . S
O1155 In1144 2.294 . S
O1155 C1148 1.240 . S
O1156 In1144 2.326 . S
O1156 C1148 1.252 . S
In1157 O1158 2.294 . S
In1157 O1159 2.326 . S
In1157 O1163 2.266 . S
In1157 O1164 2.326 . S
In1157 O1165 2.266 . S
In1157 O1166 2.326 . S
In1157 O1168 2.294 . S
In1157 O1169 2.326 . S
O1158 In1157 2.294 . S
O1158 C1167 1.240 . S
O1159 In1157 2.326 . S
O1159 C1167 1.252 . S
C1160 O1163 1.252 . S
C1160 O1164 1.260 . S
C1161 O1168 1.240 . S
C1161 O1169 1.252 . S
C1162 O1165 1.252 . S
C1162 O1166 1.260 . S
O1163 In1157 2.266 . S
O1163 C1160 1.252 . S
O1164 In1157 2.326 . S
O1164 C1160 1.260 . S
O1165 In1157 2.266 . S
O1165 C1162 1.252 . S
O1166 In1157 2.326 . S
O1166 C1162 1.260 . S
C1167 O1158 1.240 . S
C1167 O1159 1.252 . S
O1168 In1157 2.294 . S
O1168 C1161 1.240 . S
O1169 In1157 2.326 . S
O1169 C1161 1.252 . S
In1170 O1171 2.294 . S
In1170 O1172 2.326 . S
In1170 O1176 2.266 . S
In1170 O1177 2.326 . S
In1170 O1178 2.266 . S
In1170 O1179 2.326 . S
In1170 O1181 2.294 . S
In1170 O1182 2.326 . S
O1171 In1170 2.294 . S
O1171 C1180 1.240 . S
O1172 In1170 2.326 . S
O1172 C1180 1.252 . S
C1173 O1176 1.252 . S
C1173 O1177 1.260 . S
C1174 O1181 1.240 . S
C1174 O1182 1.252 . S
C1175 O1178 1.252 . S
C1175 O1179 1.260 . S
O1176 In1170 2.266 . S
O1176 C1173 1.252 . S
O1177 In1170 2.326 . S
O1177 C1173 1.260 . S
O1178 In1170 2.266 . S
O1178 C1175 1.252 . S
O1179 In1170 2.326 . S
O1179 C1175 1.260 . S
C1180 O1171 1.240 . S
C1180 O1172 1.252 . S
O1181 In1170 2.294 . S
O1181 C1174 1.240 . S
O1182 In1170 2.326 . S
O1182 C1174 1.252 . S
In1183 O1184 2.294 . S
In1183 O1185 2.326 . S
In1183 O1189 2.266 . S
In1183 O1190 2.326 . S
In1183 O1191 2.266 . S
In1183 O1192 2.326 . S
In1183 O1194 2.294 . S
In1183 O1195 2.326 . S
O1184 In1183 2.294 . S
O1184 C1193 1.240 . S
O1185 In1183 2.326 . S
O1185 C1193 1.252 . S
C1186 O1189 1.252 . S
C1186 O1190 1.260 . S
C1187 O1194 1.240 . S
C1187 O1195 1.252 . S
C1188 O1191 1.252 . S
C1188 O1192 1.260 . S
O1189 In1183 2.266 . S
O1189 C1186 1.252 . S
O1190 In1183 2.326 . S
O1190 C1186 1.260 . S
O1191 In1183 2.266 . S
O1191 C1188 1.252 . S
O1192 In1183 2.326 . S
O1192 C1188 1.260 . S
C1193 O1184 1.240 . S
C1193 O1185 1.252 . S
O1194 In1183 2.294 . S
O1194 C1187 1.240 . S
O1195 In1183 2.326 . S
O1195 C1187 1.252 . S
In1196 O1197 2.294 . S
In1196 O1198 2.326 . S
In1196 O1202 2.266 . S
In1196 O1203 2.326 . S
In1196 O1204 2.266 . S
In1196 O1205 2.326 . S
In1196 O1207 2.294 . S
In1196 O1208 2.326 . S
O1197 In1196 2.294 . S
O1197 C1206 1.240 . S
O1198 In1196 2.326 . S
O1198 C1206 1.252 . S
C1199 O1202 1.252 . S
C1199 O1203 1.260 . S
C1200 O1207 1.240 . S
C1200 O1208 1.252 . S
C1201 O1204 1.252 . S
C1201 O1205 1.260 . S
O1202 In1196 2.266 . S
O1202 C1199 1.252 . S
O1203 In1196 2.326 . S
O1203 C1199 1.260 . S
O1204 In1196 2.266 . S
O1204 C1201 1.252 . S
O1205 In1196 2.326 . S
O1205 C1201 1.260 . S
C1206 O1197 1.240 . S
C1206 O1198 1.252 . S
O1207 In1196 2.294 . S
O1207 C1200 1.240 . S
O1208 In1196 2.326 . S
O1208 C1200 1.252 . S
In1209 O1210 2.294 . S
In1209 O1211 2.326 . S
In1209 O1215 2.266 . S
In1209 O1216 2.326 . S
In1209 O1217 2.266 . S
In1209 O1218 2.326 . S
In1209 O1220 2.294 . S
In1209 O1221 2.326 . S
O1210 In1209 2.294 . S
O1210 C1219 1.240 . S
O1211 In1209 2.326 . S
O1211 C1219 1.252 . S
C1212 O1215 1.252 . S
C1212 O1216 1.260 . S
C1213 O1220 1.240 . S
C1213 O1221 1.252 . S
C1214 O1217 1.252 . S
C1214 O1218 1.260 . S
O1215 In1209 2.266 . S
O1215 C1212 1.252 . S
O1216 In1209 2.326 . S
O1216 C1212 1.260 . S
O1217 In1209 2.266 . S
O1217 C1214 1.252 . S
O1218 In1209 2.326 . S
O1218 C1214 1.260 . S
C1219 O1210 1.240 . S
C1219 O1211 1.252 . S
O1220 In1209 2.294 . S
O1220 C1213 1.240 . S
O1221 In1209 2.326 . S
O1221 C1213 1.252 . S
In1222 O1223 2.294 . S
In1222 O1224 2.326 . S
In1222 O1228 2.266 . S
In1222 O1229 2.326 . S
In1222 O1230 2.266 . S
In1222 O1231 2.326 . S
In1222 O1233 2.294 . S
In1222 O1234 2.326 . S
O1223 In1222 2.294 . S
O1223 C1232 1.240 . S
O1224 In1222 2.326 . S
O1224 C1232 1.252 . S
C1225 O1228 1.252 . S
C1225 O1229 1.260 . S
C1226 O1233 1.240 . S
C1226 O1234 1.252 . S
C1227 O1230 1.252 . S
C1227 O1231 1.260 . S
O1228 In1222 2.266 . S
O1228 C1225 1.252 . S
O1229 In1222 2.326 . S
O1229 C1225 1.260 . S
O1230 In1222 2.266 . S
O1230 C1227 1.252 . S
O1231 In1222 2.326 . S
O1231 C1227 1.260 . S
C1232 O1223 1.240 . S
C1232 O1224 1.252 . S
O1233 In1222 2.294 . S
O1233 C1226 1.240 . S
O1234 In1222 2.326 . S
O1234 C1226 1.252 . S
In1235 O1236 2.294 . S
In1235 O1237 2.326 . S
In1235 O1241 2.266 . S
In1235 O1242 2.326 . S
In1235 O1243 2.266 . S
In1235 O1244 2.326 . S
In1235 O1246 2.294 . S
In1235 O1247 2.326 . S
O1236 In1235 2.294 . S
O1236 C1245 1.240 . S
O1237 In1235 2.326 . S
O1237 C1245 1.252 . S
C1238 O1241 1.252 . S
C1238 O1242 1.260 . S
C1239 O1246 1.240 . S
C1239 O1247 1.252 . S
C1240 O1243 1.252 . S
C1240 O1244 1.260 . S
O1241 In1235 2.266 . S
O1241 C1238 1.252 . S
O1242 In1235 2.326 . S
O1242 C1238 1.260 . S
O1243 In1235 2.266 . S
O1243 C1240 1.252 . S
O1244 In1235 2.326 . S
O1244 C1240 1.260 . S
C1245 O1236 1.240 . S
C1245 O1237 1.252 . S
O1246 In1235 2.294 . S
O1246 C1239 1.240 . S
O1247 In1235 2.326 . S
O1247 C1239 1.252 . S
C1248 C1249 1.387 . S
C1248 H1252 0.950 . S
C1248 C1257 1.390 . S
C1249 C1248 1.387 . S
C1249 C1251 1.387 . S
H1250 C1257 0.950 . S
C1251 C1249 1.387 . S
C1251 C1253 1.390 . S
C1251 H1255 0.950 . S
H1252 C1248 0.950 . S
C1253 C1251 1.390 . S
C1253 C1254 1.387 . S
C1253 H1256 0.950 . S
C1254 C1253 1.387 . S
C1254 C1257 1.387 . S
H1255 C1251 0.950 . S
H1256 C1253 0.950 . S
C1257 C1248 1.390 . S
C1257 H1250 0.950 . S
C1257 C1254 1.387 . S
C1258 C1259 1.387 . S
C1258 H1262 0.950 . S
C1258 C1267 1.390 . S
C1259 C1258 1.387 . S
C1259 C1261 1.387 . S
H1260 C1267 0.950 . S
C1261 C1259 1.387 . S
C1261 C1263 1.390 . S
C1261 H1265 0.950 . S
H1262 C1258 0.950 . S
C1263 C1261 1.390 . S
C1263 C1264 1.387 . S
C1263 H1266 0.950 . S
C1264 C1263 1.387 . S
C1264 C1267 1.387 . S
H1265 C1261 0.950 . S
H1266 C1263 0.950 . S
C1267 C1258 1.390 . S
C1267 H1260 0.950 . S
C1267 C1264 1.387 . S
C1268 C1269 1.387 . S
C1268 H1272 0.950 . S
C1268 C1277 1.390 . S
C1269 C1268 1.387 . S
C1269 C1271 1.387 . S
H1270 C1277 0.950 . S
C1271 C1269 1.387 . S
C1271 C1273 1.390 . S
C1271 H1275 0.950 . S
H1272 C1268 0.950 . S
C1273 C1271 1.390 . S
C1273 C1274 1.387 . S
C1273 H1276 0.950 . S
C1274 C1273 1.387 . S
C1274 C1277 1.387 . S
H1275 C1271 0.950 . S
H1276 C1273 0.950 . S
C1277 C1268 1.390 . S
C1277 H1270 0.950 . S
C1277 C1274 1.387 . S
C1278 C1279 1.387 . S
C1278 H1282 0.950 . S
C1278 C1287 1.390 . S
C1279 C1278 1.387 . S
C1279 C1281 1.387 . S
H1280 C1287 0.950 . S
C1281 C1279 1.387 . S
C1281 C1283 1.390 . S
C1281 H1285 0.950 . S
H1282 C1278 0.950 . S
C1283 C1281 1.390 . S
C1283 C1284 1.387 . S
C1283 H1286 0.950 . S
C1284 C1283 1.387 . S
C1284 C1287 1.387 . S
H1285 C1281 0.950 . S
H1286 C1283 0.950 . S
C1287 C1278 1.390 . S
C1287 H1280 0.950 . S
C1287 C1284 1.387 . S
C1288 C1289 1.387 . S
C1288 H1292 0.950 . S
C1288 C1297 1.390 . S
C1289 C1288 1.387 . S
C1289 C1291 1.387 . S
H1290 C1297 0.950 . S
C1291 C1289 1.387 . S
C1291 C1293 1.390 . S
C1291 H1295 0.950 . S
H1292 C1288 0.950 . S
C1293 C1291 1.390 . S
C1293 C1294 1.387 . S
C1293 H1296 0.950 . S
C1294 C1293 1.387 . S
C1294 C1297 1.387 . S
H1295 C1291 0.950 . S
H1296 C1293 0.950 . S
C1297 C1288 1.390 . S
C1297 H1290 0.950 . S
C1297 C1294 1.387 . S
C1298 C1299 1.387 . S
C1298 H1302 0.950 . S
C1298 C1307 1.390 . S
C1299 C1298 1.387 . S
C1299 C1301 1.387 . S
H1300 C1307 0.950 . S
C1301 C1299 1.387 . S
C1301 C1303 1.390 . S
C1301 H1305 0.950 . S
H1302 C1298 0.950 . S
C1303 C1301 1.390 . S
C1303 C1304 1.387 . S
C1303 H1306 0.950 . S
C1304 C1303 1.387 . S
C1304 C1307 1.387 . S
H1305 C1301 0.950 . S
H1306 C1303 0.950 . S
C1307 C1298 1.390 . S
C1307 H1300 0.950 . S
C1307 C1304 1.387 . S
C1308 C1309 1.387 . S
C1308 H1312 0.950 . S
C1308 C1317 1.390 . S
C1309 C1308 1.387 . S
C1309 C1311 1.387 . S
H1310 C1317 0.950 . S
C1311 C1309 1.387 . S
C1311 C1313 1.390 . S
C1311 H1315 0.950 . S
H1312 C1308 0.950 . S
C1313 C1311 1.390 . S
C1313 C1314 1.387 . S
C1313 H1316 0.950 . S
C1314 C1313 1.387 . S
C1314 C1317 1.387 . S
H1315 C1311 0.950 . S
H1316 C1313 0.950 . S
C1317 C1308 1.390 . S
C1317 H1310 0.950 . S
C1317 C1314 1.387 . S
C1318 C1319 1.387 . S
C1318 H1322 0.950 . S
C1318 C1327 1.390 . S
C1319 C1318 1.387 . S
C1319 C1321 1.387 . S
H1320 C1327 0.950 . S
C1321 C1319 1.387 . S
C1321 C1323 1.390 . S
C1321 H1325 0.950 . S
H1322 C1318 0.950 . S
C1323 C1321 1.390 . S
C1323 C1324 1.387 . S
C1323 H1326 0.950 . S
C1324 C1323 1.387 . S
C1324 C1327 1.387 . S
H1325 C1321 0.950 . S
H1326 C1323 0.950 . S
C1327 C1318 1.390 . S
C1327 H1320 0.950 . S
C1327 C1324 1.387 . S
C1328 C1329 1.387 . S
C1328 H1332 0.950 . S
C1328 C1337 1.390 . S
C1329 C1328 1.387 . S
C1329 C1331 1.387 . S
H1330 C1337 0.950 . S
C1331 C1329 1.387 . S
C1331 C1333 1.390 . S
C1331 H1335 0.950 . S
H1332 C1328 0.950 . S
C1333 C1331 1.390 . S
C1333 C1334 1.387 . S
C1333 H1336 0.950 . S
C1334 C1333 1.387 . S
C1334 C1337 1.387 . S
H1335 C1331 0.950 . S
H1336 C1333 0.950 . S
C1337 C1328 1.390 . S
C1337 H1330 0.950 . S
C1337 C1334 1.387 . S
C1338 C1339 1.387 . S
C1338 H1342 0.950 . S
C1338 C1347 1.390 . S
C1339 C1338 1.387 . S
C1339 C1341 1.387 . S
H1340 C1347 0.950 . S
C1341 C1339 1.387 . S
C1341 C1343 1.390 . S
C1341 H1345 0.950 . S
H1342 C1338 0.950 . S
C1343 C1341 1.390 . S
C1343 C1344 1.387 . S
C1343 H1346 0.950 . S
C1344 C1343 1.387 . S
C1344 C1347 1.387 . S
H1345 C1341 0.950 . S
H1346 C1343 0.950 . S
C1347 C1338 1.390 . S
C1347 H1340 0.950 . S
C1347 C1344 1.387 . S
C1348 C1349 1.387 . S
C1348 H1352 0.950 . S
C1348 C1357 1.390 . S
C1349 C1348 1.387 . S
C1349 C1351 1.387 . S
H1350 C1357 0.950 . S
C1351 C1349 1.387 . S
C1351 C1353 1.390 . S
C1351 H1355 0.950 . S
H1352 C1348 0.950 . S
C1353 C1351 1.390 . S
C1353 C1354 1.387 . S
C1353 H1356 0.950 . S
C1354 C1353 1.387 . S
C1354 C1357 1.387 . S
H1355 C1351 0.950 . S
H1356 C1353 0.950 . S
C1357 C1348 1.390 . S
C1357 H1350 0.950 . S
C1357 C1354 1.387 . S
C1358 C1359 1.387 . S
C1358 H1362 0.950 . S
C1358 C1367 1.390 . S
C1359 C1358 1.387 . S
C1359 C1361 1.387 . S
H1360 C1367 0.950 . S
C1361 C1359 1.387 . S
C1361 C1363 1.390 . S
C1361 H1365 0.950 . S
H1362 C1358 0.950 . S
C1363 C1361 1.390 . S
C1363 C1364 1.387 . S
C1363 H1366 0.950 . S
C1364 C1363 1.387 . S
C1364 C1367 1.387 . S
H1365 C1361 0.950 . S
H1366 C1363 0.950 . S
C1367 C1358 1.390 . S
C1367 H1360 0.950 . S
C1367 C1364 1.387 . S
C1368 C1369 1.387 . S
C1368 H1372 0.950 . S
C1368 C1377 1.390 . S
C1369 C1368 1.387 . S
C1369 C1371 1.387 . S
H1370 C1377 0.950 . S
C1371 C1369 1.387 . S
C1371 C1373 1.390 . S
C1371 H1375 0.950 . S
H1372 C1368 0.950 . S
C1373 C1371 1.390 . S
C1373 C1374 1.387 . S
C1373 H1376 0.950 . S
C1374 C1373 1.387 . S
C1374 C1377 1.387 . S
H1375 C1371 0.950 . S
H1376 C1373 0.950 . S
C1377 C1368 1.390 . S
C1377 H1370 0.950 . S
C1377 C1374 1.387 . S
C1378 C1379 1.387 . S
C1378 H1382 0.950 . S
C1378 C1387 1.390 . S
C1379 C1378 1.387 . S
C1379 C1381 1.387 . S
H1380 C1387 0.950 . S
C1381 C1379 1.387 . S
C1381 C1383 1.390 . S
C1381 H1385 0.950 . S
H1382 C1378 0.950 . S
C1383 C1381 1.390 . S
C1383 C1384 1.387 . S
C1383 H1386 0.950 . S
C1384 C1383 1.387 . S
C1384 C1387 1.387 . S
H1385 C1381 0.950 . S
H1386 C1383 0.950 . S
C1387 C1378 1.390 . S
C1387 H1380 0.950 . S
C1387 C1384 1.387 . S
C1388 C1389 1.387 . S
C1388 H1392 0.950 . S
C1388 C1397 1.390 . S
C1389 C1388 1.387 . S
C1389 C1391 1.387 . S
H1390 C1397 0.950 . S
C1391 C1389 1.387 . S
C1391 C1393 1.390 . S
C1391 H1395 0.950 . S
H1392 C1388 0.950 . S
C1393 C1391 1.390 . S
C1393 C1394 1.387 . S
C1393 H1396 0.950 . S
C1394 C1393 1.387 . S
C1394 C1397 1.387 . S
H1395 C1391 0.950 . S
H1396 C1393 0.950 . S
C1397 C1388 1.390 . S
C1397 H1390 0.950 . S
C1397 C1394 1.387 . S
C1398 C1399 1.387 . S
C1398 H1402 0.950 . S
C1398 C1407 1.390 . S
C1399 C1398 1.387 . S
C1399 C1401 1.387 . S
H1400 C1407 0.950 . S
C1401 C1399 1.387 . S
C1401 C1403 1.390 . S
C1401 H1405 0.950 . S
H1402 C1398 0.950 . S
C1403 C1401 1.390 . S
C1403 C1404 1.387 . S
C1403 H1406 0.950 . S
C1404 C1403 1.387 . S
C1404 C1407 1.387 . S
H1405 C1401 0.950 . S
H1406 C1403 0.950 . S
C1407 C1398 1.390 . S
C1407 H1400 0.950 . S
C1407 C1404 1.387 . S
C1408 C1409 1.387 . S
C1408 H1412 0.950 . S
C1408 C1417 1.390 . S
C1409 C1408 1.387 . S
C1409 C1411 1.387 . S
H1410 C1417 0.950 . S
C1411 C1409 1.387 . S
C1411 C1413 1.390 . S
C1411 H1415 0.950 . S
H1412 C1408 0.950 . S
C1413 C1411 1.390 . S
C1413 C1414 1.387 . S
C1413 H1416 0.950 . S
C1414 C1413 1.387 . S
C1414 C1417 1.387 . S
H1415 C1411 0.950 . S
H1416 C1413 0.950 . S
C1417 C1408 1.390 . S
C1417 H1410 0.950 . S
C1417 C1414 1.387 . S
C1418 C1419 1.387 . S
C1418 H1422 0.950 . S
C1418 C1427 1.390 . S
C1419 C1418 1.387 . S
C1419 C1421 1.387 . S
H1420 C1427 0.950 . S
C1421 C1419 1.387 . S
C1421 C1423 1.390 . S
C1421 H1425 0.950 . S
H1422 C1418 0.950 . S
C1423 C1421 1.390 . S
C1423 C1424 1.387 . S
C1423 H1426 0.950 . S
C1424 C1423 1.387 . S
C1424 C1427 1.387 . S
H1425 C1421 0.950 . S
H1426 C1423 0.950 . S
C1427 C1418 1.390 . S
C1427 H1420 0.950 . S
C1427 C1424 1.387 . S
C1428 C1429 1.387 . S
C1428 H1432 0.950 . S
C1428 C1437 1.390 . S
C1429 C1428 1.387 . S
C1429 C1431 1.387 . S
H1430 C1437 0.950 . S
C1431 C1429 1.387 . S
C1431 C1433 1.390 . S
C1431 H1435 0.950 . S
H1432 C1428 0.950 . S
C1433 C1431 1.390 . S
C1433 C1434 1.387 . S
C1433 H1436 0.950 . S
C1434 C1433 1.387 . S
C1434 C1437 1.387 . S
H1435 C1431 0.950 . S
H1436 C1433 0.950 . S
C1437 C1428 1.390 . S
C1437 H1430 0.950 . S
C1437 C1434 1.387 . S
C1438 C1439 1.387 . S
C1438 H1442 0.950 . S
C1438 C1447 1.390 . S
C1439 C1438 1.387 . S
C1439 C1441 1.387 . S
H1440 C1447 0.950 . S
C1441 C1439 1.387 . S
C1441 C1443 1.390 . S
C1441 H1445 0.950 . S
H1442 C1438 0.950 . S
C1443 C1441 1.390 . S
C1443 C1444 1.387 . S
C1443 H1446 0.950 . S
C1444 C1443 1.387 . S
C1444 C1447 1.387 . S
H1445 C1441 0.950 . S
H1446 C1443 0.950 . S
C1447 C1438 1.390 . S
C1447 H1440 0.950 . S
C1447 C1444 1.387 . S
C1448 C1449 1.387 . S
C1448 H1452 0.950 . S
C1448 C1457 1.390 . S
C1449 C1448 1.387 . S
C1449 C1451 1.387 . S
H1450 C1457 0.950 . S
C1451 C1449 1.387 . S
C1451 C1453 1.390 . S
C1451 H1455 0.950 . S
H1452 C1448 0.950 . S
C1453 C1451 1.390 . S
C1453 C1454 1.387 . S
C1453 H1456 0.950 . S
C1454 C1453 1.387 . S
C1454 C1457 1.387 . S
H1455 C1451 0.950 . S
H1456 C1453 0.950 . S
C1457 C1448 1.390 . S
C1457 H1450 0.950 . S
C1457 C1454 1.387 . S
C1458 C1459 1.387 . S
C1458 H1462 0.950 . S
C1458 C1467 1.390 . S
C1459 C1458 1.387 . S
C1459 C1461 1.387 . S
H1460 C1467 0.950 . S
C1461 C1459 1.387 . S
C1461 C1463 1.390 . S
C1461 H1465 0.950 . S
H1462 C1458 0.950 . S
C1463 C1461 1.390 . S
C1463 C1464 1.387 . S
C1463 H1466 0.950 . S
C1464 C1463 1.387 . S
C1464 C1467 1.387 . S
H1465 C1461 0.950 . S
H1466 C1463 0.950 . S
C1467 C1458 1.390 . S
C1467 H1460 0.950 . S
C1467 C1464 1.387 . S
C1468 C1469 1.387 . S
C1468 H1472 0.950 . S
C1468 C1477 1.390 . S
C1469 C1468 1.387 . S
C1469 C1471 1.387 . S
H1470 C1477 0.950 . S
C1471 C1469 1.387 . S
C1471 C1473 1.390 . S
C1471 H1475 0.950 . S
H1472 C1468 0.950 . S
C1473 C1471 1.390 . S
C1473 C1474 1.387 . S
C1473 H1476 0.950 . S
C1474 C1473 1.387 . S
C1474 C1477 1.387 . S
H1475 C1471 0.950 . S
H1476 C1473 0.950 . S
C1477 C1468 1.390 . S
C1477 H1470 0.950 . S
C1477 C1474 1.387 . S
C1478 C1479 1.387 . S
C1478 H1482 0.950 . S
C1478 C1487 1.390 . S
C1479 C1478 1.387 . S
C1479 C1481 1.387 . S
H1480 C1487 0.950 . S
C1481 C1479 1.387 . S
C1481 C1483 1.390 . S
C1481 H1485 0.950 . S
H1482 C1478 0.950 . S
C1483 C1481 1.390 . S
C1483 C1484 1.387 . S
C1483 H1486 0.950 . S
C1484 C1483 1.387 . S
C1484 C1487 1.387 . S
H1485 C1481 0.950 . S
H1486 C1483 0.950 . S
C1487 C1478 1.390 . S
C1487 H1480 0.950 . S
C1487 C1484 1.387 . S
C1488 C1489 1.387 . S
C1488 H1492 0.950 . S
C1488 C1497 1.390 . S
C1489 C1488 1.387 . S
C1489 C1491 1.387 . S
H1490 C1497 0.950 . S
C1491 C1489 1.387 . S
C1491 C1493 1.390 . S
C1491 H1495 0.950 . S
H1492 C1488 0.950 . S
C1493 C1491 1.390 . S
C1493 C1494 1.387 . S
C1493 H1496 0.950 . S
C1494 C1493 1.387 . S
C1494 C1497 1.387 . S
H1495 C1491 0.950 . S
H1496 C1493 0.950 . S
C1497 C1488 1.390 . S
C1497 H1490 0.950 . S
C1497 C1494 1.387 . S
C1498 C1499 1.387 . S
C1498 H1502 0.950 . S
C1498 C1507 1.390 . S
C1499 C1498 1.387 . S
C1499 C1501 1.387 . S
H1500 C1507 0.950 . S
C1501 C1499 1.387 . S
C1501 C1503 1.390 . S
C1501 H1505 0.950 . S
H1502 C1498 0.950 . S
C1503 C1501 1.390 . S
C1503 C1504 1.387 . S
C1503 H1506 0.950 . S
C1504 C1503 1.387 . S
C1504 C1507 1.387 . S
H1505 C1501 0.950 . S
H1506 C1503 0.950 . S
C1507 C1498 1.390 . S
C1507 H1500 0.950 . S
C1507 C1504 1.387 . S
C1508 C1509 1.387 . S
C1508 H1512 0.950 . S
C1508 C1517 1.390 . S
C1509 C1508 1.387 . S
C1509 C1511 1.387 . S
H1510 C1517 0.950 . S
C1511 C1509 1.387 . S
C1511 C1513 1.390 . S
C1511 H1515 0.950 . S
H1512 C1508 0.950 . S
C1513 C1511 1.390 . S
C1513 C1514 1.387 . S
C1513 H1516 0.950 . S
C1514 C1513 1.387 . S
C1514 C1517 1.387 . S
H1515 C1511 0.950 . S
H1516 C1513 0.950 . S
C1517 C1508 1.390 . S
C1517 H1510 0.950 . S
C1517 C1514 1.387 . S
C1518 C1519 1.387 . S
C1518 H1522 0.950 . S
C1518 C1527 1.390 . S
C1519 C1518 1.387 . S
C1519 C1521 1.387 . S
H1520 C1527 0.950 . S
C1521 C1519 1.387 . S
C1521 C1523 1.390 . S
C1521 H1525 0.950 . S
H1522 C1518 0.950 . S
C1523 C1521 1.390 . S
C1523 C1524 1.387 . S
C1523 H1526 0.950 . S
C1524 C1523 1.387 . S
C1524 C1527 1.387 . S
H1525 C1521 0.950 . S
H1526 C1523 0.950 . S
C1527 C1518 1.390 . S
C1527 H1520 0.950 . S
C1527 C1524 1.387 . S
C1528 C1529 1.387 . S
C1528 H1532 0.950 . S
C1528 C1537 1.390 . S
C1529 C1528 1.387 . S
C1529 C1531 1.387 . S
H1530 C1537 0.950 . S
C1531 C1529 1.387 . S
C1531 C1533 1.390 . S
C1531 H1535 0.950 . S
H1532 C1528 0.950 . S
C1533 C1531 1.390 . S
C1533 C1534 1.387 . S
C1533 H1536 0.950 . S
C1534 C1533 1.387 . S
C1534 C1537 1.387 . S
H1535 C1531 0.950 . S
H1536 C1533 0.950 . S
C1537 C1528 1.390 . S
C1537 H1530 0.950 . S
C1537 C1534 1.387 . S
C1538 C1539 1.387 . S
C1538 H1542 0.950 . S
C1538 C1547 1.390 . S
C1539 C1538 1.387 . S
C1539 C1541 1.387 . S
H1540 C1547 0.950 . S
C1541 C1539 1.387 . S
C1541 C1543 1.390 . S
C1541 H1545 0.950 . S
H1542 C1538 0.950 . S
C1543 C1541 1.390 . S
C1543 C1544 1.387 . S
C1543 H1546 0.950 . S
C1544 C1543 1.387 . S
C1544 C1547 1.387 . S
H1545 C1541 0.950 . S
H1546 C1543 0.950 . S
C1547 C1538 1.390 . S
C1547 H1540 0.950 . S
C1547 C1544 1.387 . S
C1548 C1549 1.387 . S
C1548 H1552 0.950 . S
C1548 C1557 1.390 . S
C1549 C1548 1.387 . S
C1549 C1551 1.387 . S
H1550 C1557 0.950 . S
C1551 C1549 1.387 . S
C1551 C1553 1.390 . S
C1551 H1555 0.950 . S
H1552 C1548 0.950 . S
C1553 C1551 1.390 . S
C1553 C1554 1.387 . S
C1553 H1556 0.950 . S
C1554 C1553 1.387 . S
C1554 C1557 1.387 . S
H1555 C1551 0.950 . S
H1556 C1553 0.950 . S
C1557 C1548 1.390 . S
C1557 H1550 0.950 . S
C1557 C1554 1.387 . S
C1558 C1559 1.387 . S
C1558 H1562 0.950 . S
C1558 C1567 1.390 . S
C1559 C1558 1.387 . S
C1559 C1561 1.387 . S
H1560 C1567 0.950 . S
C1561 C1559 1.387 . S
C1561 C1563 1.390 . S
C1561 H1565 0.950 . S
H1562 C1558 0.950 . S
C1563 C1561 1.390 . S
C1563 C1564 1.387 . S
C1563 H1566 0.950 . S
C1564 C1563 1.387 . S
C1564 C1567 1.387 . S
H1565 C1561 0.950 . S
H1566 C1563 0.950 . S
C1567 C1558 1.390 . S
C1567 H1560 0.950 . S
C1567 C1564 1.387 . S
C1568 C1569 1.387 . S
C1568 H1572 0.950 . S
C1568 C1577 1.390 . S
C1569 C1568 1.387 . S
C1569 C1571 1.387 . S
H1570 C1577 0.950 . S
C1571 C1569 1.387 . S
C1571 C1573 1.390 . S
C1571 H1575 0.950 . S
H1572 C1568 0.950 . S
C1573 C1571 1.390 . S
C1573 C1574 1.387 . S
C1573 H1576 0.950 . S
C1574 C1573 1.387 . S
C1574 C1577 1.387 . S
H1575 C1571 0.950 . S
H1576 C1573 0.950 . S
C1577 C1568 1.390 . S
C1577 H1570 0.950 . S
C1577 C1574 1.387 . S
C1578 C1579 1.387 . S
C1578 H1582 0.950 . S
C1578 C1587 1.390 . S
C1579 C1578 1.387 . S
C1579 C1581 1.387 . S
H1580 C1587 0.950 . S
C1581 C1579 1.387 . S
C1581 C1583 1.390 . S
C1581 H1585 0.950 . S
H1582 C1578 0.950 . S
C1583 C1581 1.390 . S
C1583 C1584 1.387 . S
C1583 H1586 0.950 . S
C1584 C1583 1.387 . S
C1584 C1587 1.387 . S
H1585 C1581 0.950 . S
H1586 C1583 0.950 . S
C1587 C1578 1.390 . S
C1587 H1580 0.950 . S
C1587 C1584 1.387 . S
C1588 C1589 1.387 . S
C1588 H1592 0.950 . S
C1588 C1597 1.390 . S
C1589 C1588 1.387 . S
C1589 C1591 1.387 . S
H1590 C1597 0.950 . S
C1591 C1589 1.387 . S
C1591 C1593 1.390 . S
C1591 H1595 0.950 . S
H1592 C1588 0.950 . S
C1593 C1591 1.390 . S
C1593 C1594 1.387 . S
C1593 H1596 0.950 . S
C1594 C1593 1.387 . S
C1594 C1597 1.387 . S
H1595 C1591 0.950 . S
H1596 C1593 0.950 . S
C1597 C1588 1.390 . S
C1597 H1590 0.950 . S
C1597 C1594 1.387 . S
C1598 C1599 1.387 . S
C1598 H1602 0.950 . S
C1598 C1607 1.390 . S
C1599 C1598 1.387 . S
C1599 C1601 1.387 . S
H1600 C1607 0.950 . S
C1601 C1599 1.387 . S
C1601 C1603 1.390 . S
C1601 H1605 0.950 . S
H1602 C1598 0.950 . S
C1603 C1601 1.390 . S
C1603 C1604 1.387 . S
C1603 H1606 0.950 . S
C1604 C1603 1.387 . S
C1604 C1607 1.387 . S
H1605 C1601 0.950 . S
H1606 C1603 0.950 . S
C1607 C1598 1.390 . S
C1607 H1600 0.950 . S
C1607 C1604 1.387 . S
C1608 C1609 1.387 . S
C1608 H1612 0.950 . S
C1608 C1617 1.390 . S
C1609 C1608 1.387 . S
C1609 C1611 1.387 . S
H1610 C1617 0.950 . S
C1611 C1609 1.387 . S
C1611 C1613 1.390 . S
C1611 H1615 0.950 . S
H1612 C1608 0.950 . S
C1613 C1611 1.390 . S
C1613 C1614 1.387 . S
C1613 H1616 0.950 . S
C1614 C1613 1.387 . S
C1614 C1617 1.387 . S
H1615 C1611 0.950 . S
H1616 C1613 0.950 . S
C1617 C1608 1.390 . S
C1617 H1610 0.950 . S
C1617 C1614 1.387 . S
C1618 C1619 1.387 . S
C1618 H1622 0.950 . S
C1618 C1627 1.390 . S
C1619 C1618 1.387 . S
C1619 C1621 1.387 . S
H1620 C1627 0.950 . S
C1621 C1619 1.387 . S
C1621 C1623 1.390 . S
C1621 H1625 0.950 . S
H1622 C1618 0.950 . S
C1623 C1621 1.390 . S
C1623 C1624 1.387 . S
C1623 H1626 0.950 . S
C1624 C1623 1.387 . S
C1624 C1627 1.387 . S
H1625 C1621 0.950 . S
H1626 C1623 0.950 . S
C1627 C1618 1.390 . S
C1627 H1620 0.950 . S
C1627 C1624 1.387 . S
C1628 C1629 1.387 . S
C1628 H1632 0.950 . S
C1628 C1637 1.390 . S
C1629 C1628 1.387 . S
C1629 C1631 1.387 . S
H1630 C1637 0.950 . S
C1631 C1629 1.387 . S
C1631 C1633 1.390 . S
C1631 H1635 0.950 . S
H1632 C1628 0.950 . S
C1633 C1631 1.390 . S
C1633 C1634 1.387 . S
C1633 H1636 0.950 . S
C1634 C1633 1.387 . S
C1634 C1637 1.387 . S
H1635 C1631 0.950 . S
H1636 C1633 0.950 . S
C1637 C1628 1.390 . S
C1637 H1630 0.950 . S
C1637 C1634 1.387 . S
C1638 C1639 1.387 . S
C1638 H1642 0.950 . S
C1638 C1647 1.390 . S
C1639 C1638 1.387 . S
C1639 C1641 1.387 . S
H1640 C1647 0.950 . S
C1641 C1639 1.387 . S
C1641 C1643 1.390 . S
C1641 H1645 0.950 . S
H1642 C1638 0.950 . S
C1643 C1641 1.390 . S
C1643 C1644 1.387 . S
C1643 H1646 0.950 . S
C1644 C1643 1.387 . S
C1644 C1647 1.387 . S
H1645 C1641 0.950 . S
H1646 C1643 0.950 . S
C1647 C1638 1.390 . S
C1647 H1640 0.950 . S
C1647 C1644 1.387 . S
C1648 C1649 1.387 . S
C1648 H1652 0.950 . S
C1648 C1657 1.390 . S
C1649 C1648 1.387 . S
C1649 C1651 1.387 . S
H1650 C1657 0.950 . S
C1651 C1649 1.387 . S
C1651 C1653 1.390 . S
C1651 H1655 0.950 . S
H1652 C1648 0.950 . S
C1653 C1651 1.390 . S
C1653 C1654 1.387 . S
C1653 H1656 0.950 . S
C1654 C1653 1.387 . S
C1654 C1657 1.387 . S
H1655 C1651 0.950 . S
H1656 C1653 0.950 . S
C1657 C1648 1.390 . S
C1657 H1650 0.950 . S
C1657 C1654 1.387 . S
C1658 C1659 1.387 . S
C1658 H1662 0.950 . S
C1658 C1667 1.390 . S
C1659 C1658 1.387 . S
C1659 C1661 1.387 . S
H1660 C1667 0.950 . S
C1661 C1659 1.387 . S
C1661 C1663 1.390 . S
C1661 H1665 0.950 . S
H1662 C1658 0.950 . S
C1663 C1661 1.390 . S
C1663 C1664 1.387 . S
C1663 H1666 0.950 . S
C1664 C1663 1.387 . S
C1664 C1667 1.387 . S
H1665 C1661 0.950 . S
H1666 C1663 0.950 . S
C1667 C1658 1.390 . S
C1667 H1660 0.950 . S
C1667 C1664 1.387 . S
C1668 C1669 1.387 . S
C1668 H1672 0.950 . S
C1668 C1677 1.390 . S
C1669 C1668 1.387 . S
C1669 C1671 1.387 . S
H1670 C1677 0.950 . S
C1671 C1669 1.387 . S
C1671 C1673 1.390 . S
C1671 H1675 0.950 . S
H1672 C1668 0.950 . S
C1673 C1671 1.390 . S
C1673 C1674 1.387 . S
C1673 H1676 0.950 . S
C1674 C1673 1.387 . S
C1674 C1677 1.387 . S
H1675 C1671 0.950 . S
H1676 C1673 0.950 . S
C1677 C1668 1.390 . S
C1677 H1670 0.950 . S
C1677 C1674 1.387 . S
C1678 C1679 1.387 . S
C1678 H1682 0.950 . S
C1678 C1687 1.390 . S
C1679 C1678 1.387 . S
C1679 C1681 1.387 . S
H1680 C1687 0.950 . S
C1681 C1679 1.387 . S
C1681 C1683 1.390 . S
C1681 H1685 0.950 . S
H1682 C1678 0.950 . S
C1683 C1681 1.390 . S
C1683 C1684 1.387 . S
C1683 H1686 0.950 . S
C1684 C1683 1.387 . S
C1684 C1687 1.387 . S
H1685 C1681 0.950 . S
H1686 C1683 0.950 . S
C1687 C1678 1.390 . S
C1687 H1680 0.950 . S
C1687 C1684 1.387 . S
C1688 C1689 1.387 . S
C1688 H1692 0.950 . S
C1688 C1697 1.390 . S
C1689 C1688 1.387 . S
C1689 C1691 1.387 . S
H1690 C1697 0.950 . S
C1691 C1689 1.387 . S
C1691 C1693 1.390 . S
C1691 H1695 0.950 . S
H1692 C1688 0.950 . S
C1693 C1691 1.390 . S
C1693 C1694 1.387 . S
C1693 H1696 0.950 . S
C1694 C1693 1.387 . S
C1694 C1697 1.387 . S
H1695 C1691 0.950 . S
H1696 C1693 0.950 . S
C1697 C1688 1.390 . S
C1697 H1690 0.950 . S
C1697 C1694 1.387 . S
C1698 C1699 1.387 . S
C1698 H1702 0.950 . S
C1698 C1707 1.390 . S
C1699 C1698 1.387 . S
C1699 C1701 1.387 . S
H1700 C1707 0.950 . S
C1701 C1699 1.387 . S
C1701 C1703 1.390 . S
C1701 H1705 0.950 . S
H1702 C1698 0.950 . S
C1703 C1701 1.390 . S
C1703 C1704 1.387 . S
C1703 H1706 0.950 . S
C1704 C1703 1.387 . S
C1704 C1707 1.387 . S
H1705 C1701 0.950 . S
H1706 C1703 0.950 . S
C1707 C1698 1.390 . S
C1707 H1700 0.950 . S
C1707 C1704 1.387 . S
C1708 C1709 1.387 . S
C1708 H1712 0.950 . S
C1708 C1717 1.390 . S
C1709 C1708 1.387 . S
C1709 C1711 1.387 . S
H1710 C1717 0.950 . S
C1711 C1709 1.387 . S
C1711 C1713 1.390 . S
C1711 H1715 0.950 . S
H1712 C1708 0.950 . S
C1713 C1711 1.390 . S
C1713 C1714 1.387 . S
C1713 H1716 0.950 . S
C1714 C1713 1.387 . S
C1714 C1717 1.387 . S
H1715 C1711 0.950 . S
H1716 C1713 0.950 . S
C1717 C1708 1.390 . S
C1717 H1710 0.950 . S
C1717 C1714 1.387 . S
C1718 C1719 1.387 . S
C1718 H1722 0.950 . S
C1718 C1727 1.390 . S
C1719 C1718 1.387 . S
C1719 C1721 1.387 . S
H1720 C1727 0.950 . S
C1721 C1719 1.387 . S
C1721 C1723 1.390 . S
C1721 H1725 0.950 . S
H1722 C1718 0.950 . S
C1723 C1721 1.390 . S
C1723 C1724 1.387 . S
C1723 H1726 0.950 . S
C1724 C1723 1.387 . S
C1724 C1727 1.387 . S
H1725 C1721 0.950 . S
H1726 C1723 0.950 . S
C1727 C1718 1.390 . S
C1727 H1720 0.950 . S
C1727 C1724 1.387 . S
C1728 C1729 1.387 . S
C1728 H1732 0.950 . S
C1728 C1737 1.390 . S
C1729 C1728 1.387 . S
C1729 C1731 1.387 . S
H1730 C1737 0.950 . S
C1731 C1729 1.387 . S
C1731 C1733 1.390 . S
C1731 H1735 0.950 . S
H1732 C1728 0.950 . S
C1733 C1731 1.390 . S
C1733 C1734 1.387 . S
C1733 H1736 0.950 . S
C1734 C1733 1.387 . S
C1734 C1737 1.387 . S
H1735 C1731 0.950 . S
H1736 C1733 0.950 . S
C1737 C1728 1.390 . S
C1737 H1730 0.950 . S
C1737 C1734 1.387 . S
C1738 C1739 1.387 . S
C1738 H1742 0.950 . S
C1738 C1747 1.390 . S
C1739 C1738 1.387 . S
C1739 C1741 1.387 . S
H1740 C1747 0.950 . S
C1741 C1739 1.387 . S
C1741 C1743 1.390 . S
C1741 H1745 0.950 . S
H1742 C1738 0.950 . S
C1743 C1741 1.390 . S
C1743 C1744 1.387 . S
C1743 H1746 0.950 . S
C1744 C1743 1.387 . S
C1744 C1747 1.387 . S
H1745 C1741 0.950 . S
H1746 C1743 0.950 . S
C1747 C1738 1.390 . S
C1747 H1740 0.950 . S
C1747 C1744 1.387 . S
C1748 C1749 1.387 . S
C1748 H1752 0.950 . S
C1748 C1757 1.390 . S
C1749 C1748 1.387 . S
C1749 C1751 1.387 . S
H1750 C1757 0.950 . S
C1751 C1749 1.387 . S
C1751 C1753 1.390 . S
C1751 H1755 0.950 . S
H1752 C1748 0.950 . S
C1753 C1751 1.390 . S
C1753 C1754 1.387 . S
C1753 H1756 0.950 . S
C1754 C1753 1.387 . S
C1754 C1757 1.387 . S
H1755 C1751 0.950 . S
H1756 C1753 0.950 . S
C1757 C1748 1.390 . S
C1757 H1750 0.950 . S
C1757 C1754 1.387 . S
C1758 C1759 1.387 . S
C1758 H1762 0.950 . S
C1758 C1767 1.390 . S
C1759 C1758 1.387 . S
C1759 C1761 1.387 . S
H1760 C1767 0.950 . S
C1761 C1759 1.387 . S
C1761 C1763 1.390 . S
C1761 H1765 0.950 . S
H1762 C1758 0.950 . S
C1763 C1761 1.390 . S
C1763 C1764 1.387 . S
C1763 H1766 0.950 . S
C1764 C1763 1.387 . S
C1764 C1767 1.387 . S
H1765 C1761 0.950 . S
H1766 C1763 0.950 . S
C1767 C1758 1.390 . S
C1767 H1760 0.950 . S
C1767 C1764 1.387 . S
C1768 C1769 1.387 . S
C1768 H1772 0.950 . S
C1768 C1777 1.390 . S
C1769 C1768 1.387 . S
C1769 C1771 1.387 . S
H1770 C1777 0.950 . S
C1771 C1769 1.387 . S
C1771 C1773 1.390 . S
C1771 H1775 0.950 . S
H1772 C1768 0.950 . S
C1773 C1771 1.390 . S
C1773 C1774 1.387 . S
C1773 H1776 0.950 . S
C1774 C1773 1.387 . S
C1774 C1777 1.387 . S
H1775 C1771 0.950 . S
H1776 C1773 0.950 . S
C1777 C1768 1.390 . S
C1777 H1770 0.950 . S
C1777 C1774 1.387 . S
C1778 C1779 1.387 . S
C1778 H1782 0.950 . S
C1778 C1787 1.390 . S
C1779 C1778 1.387 . S
C1779 C1781 1.387 . S
H1780 C1787 0.950 . S
C1781 C1779 1.387 . S
C1781 C1783 1.390 . S
C1781 H1785 0.950 . S
H1782 C1778 0.950 . S
C1783 C1781 1.390 . S
C1783 C1784 1.387 . S
C1783 H1786 0.950 . S
C1784 C1783 1.387 . S
C1784 C1787 1.387 . S
H1785 C1781 0.950 . S
H1786 C1783 0.950 . S
C1787 C1778 1.390 . S
C1787 H1780 0.950 . S
C1787 C1784 1.387 . S
C1788 C1789 1.387 . S
C1788 H1792 0.950 . S
C1788 C1797 1.390 . S
C1789 C1788 1.387 . S
C1789 C1791 1.387 . S
H1790 C1797 0.950 . S
C1791 C1789 1.387 . S
C1791 C1793 1.390 . S
C1791 H1795 0.950 . S
H1792 C1788 0.950 . S
C1793 C1791 1.390 . S
C1793 C1794 1.387 . S
C1793 H1796 0.950 . S
C1794 C1793 1.387 . S
C1794 C1797 1.387 . S
H1795 C1791 0.950 . S
H1796 C1793 0.950 . S
C1797 C1788 1.390 . S
C1797 H1790 0.950 . S
C1797 C1794 1.387 . S
C1798 C1799 1.387 . S
C1798 H1802 0.950 . S
C1798 C1807 1.390 . S
C1799 C1798 1.387 . S
C1799 C1801 1.387 . S
H1800 C1807 0.950 . S
C1801 C1799 1.387 . S
C1801 C1803 1.390 . S
C1801 H1805 0.950 . S
H1802 C1798 0.950 . S
C1803 C1801 1.390 . S
C1803 C1804 1.387 . S
C1803 H1806 0.950 . S
C1804 C1803 1.387 . S
C1804 C1807 1.387 . S
H1805 C1801 0.950 . S
H1806 C1803 0.950 . S
C1807 C1798 1.390 . S
C1807 H1800 0.950 . S
C1807 C1804 1.387 . S
C1808 C1809 1.387 . S
C1808 H1812 0.950 . S
C1808 C1817 1.390 . S
C1809 C1808 1.387 . S
C1809 C1811 1.387 . S
H1810 C1817 0.950 . S
C1811 C1809 1.387 . S
C1811 C1813 1.390 . S
C1811 H1815 0.950 . S
H1812 C1808 0.950 . S
C1813 C1811 1.390 . S
C1813 C1814 1.387 . S
C1813 H1816 0.950 . S
C1814 C1813 1.387 . S
C1814 C1817 1.387 . S
H1815 C1811 0.950 . S
H1816 C1813 0.950 . S
C1817 C1808 1.390 . S
C1817 H1810 0.950 . S
C1817 C1814 1.387 . S
C1818 C1819 1.387 . S
C1818 H1822 0.950 . S
C1818 C1827 1.390 . S
C1819 C1818 1.387 . S
C1819 C1821 1.387 . S
H1820 C1827 0.950 . S
C1821 C1819 1.387 . S
C1821 C1823 1.390 . S
C1821 H1825 0.950 . S
H1822 C1818 0.950 . S
C1823 C1821 1.390 . S
C1823 C1824 1.387 . S
C1823 H1826 0.950 . S
C1824 C1823 1.387 . S
C1824 C1827 1.387 . S
H1825 C1821 0.950 . S
H1826 C1823 0.950 . S
C1827 C1818 1.390 . S
C1827 H1820 0.950 . S
C1827 C1824 1.387 . S
C1828 C1829 1.387 . S
C1828 H1832 0.950 . S
C1828 C1837 1.390 . S
C1829 C1828 1.387 . S
C1829 C1831 1.387 . S
H1830 C1837 0.950 . S
C1831 C1829 1.387 . S
C1831 C1833 1.390 . S
C1831 H1835 0.950 . S
H1832 C1828 0.950 . S
C1833 C1831 1.390 . S
C1833 C1834 1.387 . S
C1833 H1836 0.950 . S
C1834 C1833 1.387 . S
C1834 C1837 1.387 . S
H1835 C1831 0.950 . S
H1836 C1833 0.950 . S
C1837 C1828 1.390 . S
C1837 H1830 0.950 . S
C1837 C1834 1.387 . S
C1838 C1839 1.387 . S
C1838 H1842 0.950 . S
C1838 C1847 1.390 . S
C1839 C1838 1.387 . S
C1839 C1841 1.387 . S
H1840 C1847 0.950 . S
C1841 C1839 1.387 . S
C1841 C1843 1.390 . S
C1841 H1845 0.950 . S
H1842 C1838 0.950 . S
C1843 C1841 1.390 . S
C1843 C1844 1.387 . S
C1843 H1846 0.950 . S
C1844 C1843 1.387 . S
C1844 C1847 1.387 . S
H1845 C1841 0.950 . S
H1846 C1843 0.950 . S
C1847 C1838 1.390 . S
C1847 H1840 0.950 . S
C1847 C1844 1.387 . S
C1848 C1849 1.387 . S
C1848 H1852 0.950 . S
C1848 C1857 1.390 . S
C1849 C1848 1.387 . S
C1849 C1851 1.387 . S
H1850 C1857 0.950 . S
C1851 C1849 1.387 . S
C1851 C1853 1.390 . S
C1851 H1855 0.950 . S
H1852 C1848 0.950 . S
C1853 C1851 1.390 . S
C1853 C1854 1.387 . S
C1853 H1856 0.950 . S
C1854 C1853 1.387 . S
C1854 C1857 1.387 . S
H1855 C1851 0.950 . S
H1856 C1853 0.950 . S
C1857 C1848 1.390 . S
C1857 H1850 0.950 . S
C1857 C1854 1.387 . S
C1858 C1859 1.387 . S
C1858 H1862 0.950 . S
C1858 C1867 1.390 . S
C1859 C1858 1.387 . S
C1859 C1861 1.387 . S
H1860 C1867 0.950 . S
C1861 C1859 1.387 . S
C1861 C1863 1.390 . S
C1861 H1865 0.950 . S
H1862 C1858 0.950 . S
C1863 C1861 1.390 . S
C1863 C1864 1.387 . S
C1863 H1866 0.950 . S
C1864 C1863 1.387 . S
C1864 C1867 1.387 . S
H1865 C1861 0.950 . S
H1866 C1863 0.950 . S
C1867 C1858 1.390 . S
C1867 H1860 0.950 . S
C1867 C1864 1.387 . S
C1868 C1869 1.387 . S
C1868 H1872 0.950 . S
C1868 C1877 1.390 . S
C1869 C1868 1.387 . S
C1869 C1871 1.387 . S
H1870 C1877 0.950 . S
C1871 C1869 1.387 . S
C1871 C1873 1.390 . S
C1871 H1875 0.950 . S
H1872 C1868 0.950 . S
C1873 C1871 1.390 . S
C1873 C1874 1.387 . S
C1873 H1876 0.950 . S
C1874 C1873 1.387 . S
C1874 C1877 1.387 . S
H1875 C1871 0.950 . S
H1876 C1873 0.950 . S
C1877 C1868 1.390 . S
C1877 H1870 0.950 . S
C1877 C1874 1.387 . S
C1878 C1879 1.387 . S
C1878 H1882 0.950 . S
C1878 C1887 1.390 . S
C1879 C1878 1.387 . S
C1879 C1881 1.387 . S
H1880 C1887 0.950 . S
C1881 C1879 1.387 . S
C1881 C1883 1.390 . S
C1881 H1885 0.950 . S
H1882 C1878 0.950 . S
C1883 C1881 1.390 . S
C1883 C1884 1.387 . S
C1883 H1886 0.950 . S
C1884 C1883 1.387 . S
C1884 C1887 1.387 . S
H1885 C1881 0.950 . S
H1886 C1883 0.950 . S
C1887 C1878 1.390 . S
C1887 H1880 0.950 . S
C1887 C1884 1.387 . S
C1888 C1889 1.387 . S
C1888 H1892 0.950 . S
C1888 C1897 1.390 . S
C1889 C1888 1.387 . S
C1889 C1891 1.387 . S
H1890 C1897 0.950 . S
C1891 C1889 1.387 . S
C1891 C1893 1.390 . S
C1891 H1895 0.950 . S
H1892 C1888 0.950 . S
C1893 C1891 1.390 . S
C1893 C1894 1.387 . S
C1893 H1896 0.950 . S
C1894 C1893 1.387 . S
C1894 C1897 1.387 . S
H1895 C1891 0.950 . S
H1896 C1893 0.950 . S
C1897 C1888 1.390 . S
C1897 H1890 0.950 . S
C1897 C1894 1.387 . S
C1898 C1899 1.387 . S
C1898 H1902 0.950 . S
C1898 C1907 1.390 . S
C1899 C1898 1.387 . S
C1899 C1901 1.387 . S
H1900 C1907 0.950 . S
C1901 C1899 1.387 . S
C1901 C1903 1.390 . S
C1901 H1905 0.950 . S
H1902 C1898 0.950 . S
C1903 C1901 1.390 . S
C1903 C1904 1.387 . S
C1903 H1906 0.950 . S
C1904 C1903 1.387 . S
C1904 C1907 1.387 . S
H1905 C1901 0.950 . S
H1906 C1903 0.950 . S
C1907 C1898 1.390 . S
C1907 H1900 0.950 . S
C1907 C1904 1.387 . S
C1908 C1909 1.387 . S
C1908 H1912 0.950 . S
C1908 C1917 1.390 . S
C1909 C1908 1.387 . S
C1909 C1911 1.387 . S
H1910 C1917 0.950 . S
C1911 C1909 1.387 . S
C1911 C1913 1.390 . S
C1911 H1915 0.950 . S
H1912 C1908 0.950 . S
C1913 C1911 1.390 . S
C1913 C1914 1.387 . S
C1913 H1916 0.950 . S
C1914 C1913 1.387 . S
C1914 C1917 1.387 . S
H1915 C1911 0.950 . S
H1916 C1913 0.950 . S
C1917 C1908 1.390 . S
C1917 H1910 0.950 . S
C1917 C1914 1.387 . S
C1918 C1919 1.387 . S
C1918 H1922 0.950 . S
C1918 C1927 1.390 . S
C1919 C1918 1.387 . S
C1919 C1921 1.387 . S
H1920 C1927 0.950 . S
C1921 C1919 1.387 . S
C1921 C1923 1.390 . S
C1921 H1925 0.950 . S
H1922 C1918 0.950 . S
C1923 C1921 1.390 . S
C1923 C1924 1.387 . S
C1923 H1926 0.950 . S
C1924 C1923 1.387 . S
C1924 C1927 1.387 . S
H1925 C1921 0.950 . S
H1926 C1923 0.950 . S
C1927 C1918 1.390 . S
C1927 H1920 0.950 . S
C1927 C1924 1.387 . S
C1928 C1929 1.387 . S
C1928 H1932 0.950 . S
C1928 C1937 1.390 . S
C1929 C1928 1.387 . S
C1929 C1931 1.387 . S
H1930 C1937 0.950 . S
C1931 C1929 1.387 . S
C1931 C1933 1.390 . S
C1931 H1935 0.950 . S
H1932 C1928 0.950 . S
C1933 C1931 1.390 . S
C1933 C1934 1.387 . S
C1933 H1936 0.950 . S
C1934 C1933 1.387 . S
C1934 C1937 1.387 . S
H1935 C1931 0.950 . S
H1936 C1933 0.950 . S
C1937 C1928 1.390 . S
C1937 H1930 0.950 . S
C1937 C1934 1.387 . S
C1938 C1939 1.387 . S
C1938 H1942 0.950 . S
C1938 C1947 1.390 . S
C1939 C1938 1.387 . S
C1939 C1941 1.387 . S
H1940 C1947 0.950 . S
C1941 C1939 1.387 . S
C1941 C1943 1.390 . S
C1941 H1945 0.950 . S
H1942 C1938 0.950 . S
C1943 C1941 1.390 . S
C1943 C1944 1.387 . S
C1943 H1946 0.950 . S
C1944 C1943 1.387 . S
C1944 C1947 1.387 . S
H1945 C1941 0.950 . S
H1946 C1943 0.950 . S
C1947 C1938 1.390 . S
C1947 H1940 0.950 . S
C1947 C1944 1.387 . S
C1948 C1949 1.387 . S
C1948 H1952 0.950 . S
C1948 C1957 1.390 . S
C1949 C1948 1.387 . S
C1949 C1951 1.387 . S
H1950 C1957 0.950 . S
C1951 C1949 1.387 . S
C1951 C1953 1.390 . S
C1951 H1955 0.950 . S
H1952 C1948 0.950 . S
C1953 C1951 1.390 . S
C1953 C1954 1.387 . S
C1953 H1956 0.950 . S
C1954 C1953 1.387 . S
C1954 C1957 1.387 . S
H1955 C1951 0.950 . S
H1956 C1953 0.950 . S
C1957 C1948 1.390 . S
C1957 H1950 0.950 . S
C1957 C1954 1.387 . S
C1958 C1959 1.387 . S
C1958 H1962 0.950 . S
C1958 C1967 1.390 . S
C1959 C1958 1.387 . S
C1959 C1961 1.387 . S
H1960 C1967 0.950 . S
C1961 C1959 1.387 . S
C1961 C1963 1.390 . S
C1961 H1965 0.950 . S
H1962 C1958 0.950 . S
C1963 C1961 1.390 . S
C1963 C1964 1.387 . S
C1963 H1966 0.950 . S
C1964 C1963 1.387 . S
C1964 C1967 1.387 . S
H1965 C1961 0.950 . S
H1966 C1963 0.950 . S
C1967 C1958 1.390 . S
C1967 H1960 0.950 . S
C1967 C1964 1.387 . S
C1968 C1969 1.387 . S
C1968 H1972 0.950 . S
C1968 C1977 1.390 . S
C1969 C1968 1.387 . S
C1969 C1971 1.387 . S
H1970 C1977 0.950 . S
C1971 C1969 1.387 . S
C1971 C1973 1.390 . S
C1971 H1975 0.950 . S
H1972 C1968 0.950 . S
C1973 C1971 1.390 . S
C1973 C1974 1.387 . S
C1973 H1976 0.950 . S
C1974 C1973 1.387 . S
C1974 C1977 1.387 . S
H1975 C1971 0.950 . S
H1976 C1973 0.950 . S
C1977 C1968 1.390 . S
C1977 H1970 0.950 . S
C1977 C1974 1.387 . S
C1978 C1979 1.387 . S
C1978 H1982 0.950 . S
C1978 C1987 1.390 . S
C1979 C1978 1.387 . S
C1979 C1981 1.387 . S
H1980 C1987 0.950 . S
C1981 C1979 1.387 . S
C1981 C1983 1.390 . S
C1981 H1985 0.950 . S
H1982 C1978 0.950 . S
C1983 C1981 1.390 . S
C1983 C1984 1.387 . S
C1983 H1986 0.950 . S
C1984 C1983 1.387 . S
C1984 C1987 1.387 . S
H1985 C1981 0.950 . S
H1986 C1983 0.950 . S
C1987 C1978 1.390 . S
C1987 H1980 0.950 . S
C1987 C1984 1.387 . S
C1988 C1989 1.387 . S
C1988 H1992 0.950 . S
C1988 C1997 1.390 . S
C1989 C1988 1.387 . S
C1989 C1991 1.387 . S
H1990 C1997 0.950 . S
C1991 C1989 1.387 . S
C1991 C1993 1.390 . S
C1991 H1995 0.950 . S
H1992 C1988 0.950 . S
C1993 C1991 1.390 . S
C1993 C1994 1.387 . S
C1993 H1996 0.950 . S
C1994 C1993 1.387 . S
C1994 C1997 1.387 . S
H1995 C1991 0.950 . S
H1996 C1993 0.950 . S
C1997 C1988 1.390 . S
C1997 H1990 0.950 . S
C1997 C1994 1.387 . S
C1998 C1999 1.387 . S
C1998 H2002 0.950 . S
C1998 C2007 1.390 . S
C1999 C1998 1.387 . S
C1999 C2001 1.387 . S
H2000 C2007 0.950 . S
C2001 C1999 1.387 . S
C2001 C2003 1.390 . S
C2001 H2005 0.950 . S
H2002 C1998 0.950 . S
C2003 C2001 1.390 . S
C2003 C2004 1.387 . S
C2003 H2006 0.950 . S
C2004 C2003 1.387 . S
C2004 C2007 1.387 . S
H2005 C2001 0.950 . S
H2006 C2003 0.950 . S
C2007 C1998 1.390 . S
C2007 H2000 0.950 . S
C2007 C2004 1.387 . S
C2008 C2009 1.387 . S
C2008 H2012 0.950 . S
C2008 C2017 1.390 . S
C2009 C2008 1.387 . S
C2009 C2011 1.387 . S
H2010 C2017 0.950 . S
C2011 C2009 1.387 . S
C2011 C2013 1.390 . S
C2011 H2015 0.950 . S
H2012 C2008 0.950 . S
C2013 C2011 1.390 . S
C2013 C2014 1.387 . S
C2013 H2016 0.950 . S
C2014 C2013 1.387 . S
C2014 C2017 1.387 . S
H2015 C2011 0.950 . S
H2016 C2013 0.950 . S
C2017 C2008 1.390 . S
C2017 H2010 0.950 . S
C2017 C2014 1.387 . S
C2018 C2019 1.387 . S
C2018 H2022 0.950 . S
C2018 C2027 1.390 . S
C2019 C2018 1.387 . S
C2019 C2021 1.387 . S
H2020 C2027 0.950 . S
C2021 C2019 1.387 . S
C2021 C2023 1.390 . S
C2021 H2025 0.950 . S
H2022 C2018 0.950 . S
C2023 C2021 1.390 . S
C2023 C2024 1.387 . S
C2023 H2026 0.950 . S
C2024 C2023 1.387 . S
C2024 C2027 1.387 . S
H2025 C2021 0.950 . S
H2026 C2023 0.950 . S
C2027 C2018 1.390 . S
C2027 H2020 0.950 . S
C2027 C2024 1.387 . S
C2028 C2029 1.387 . S
C2028 H2032 0.950 . S
C2028 C2037 1.390 . S
C2029 C2028 1.387 . S
C2029 C2031 1.387 . S
H2030 C2037 0.950 . S
C2031 C2029 1.387 . S
C2031 C2033 1.390 . S
C2031 H2035 0.950 . S
H2032 C2028 0.950 . S
C2033 C2031 1.390 . S
C2033 C2034 1.387 . S
C2033 H2036 0.950 . S
C2034 C2033 1.387 . S
C2034 C2037 1.387 . S
H2035 C2031 0.950 . S
H2036 C2033 0.950 . S
C2037 C2028 1.390 . S
C2037 H2030 0.950 . S
C2037 C2034 1.387 . S
C2038 C2039 1.387 . S
C2038 H2042 0.950 . S
C2038 C2047 1.390 . S
C2039 C2038 1.387 . S
C2039 C2041 1.387 . S
H2040 C2047 0.950 . S
C2041 C2039 1.387 . S
C2041 C2043 1.390 . S
C2041 H2045 0.950 . S
H2042 C2038 0.950 . S
C2043 C2041 1.390 . S
C2043 C2044 1.387 . S
C2043 H2046 0.950 . S
C2044 C2043 1.387 . S
C2044 C2047 1.387 . S
H2045 C2041 0.950 . S
H2046 C2043 0.950 . S
C2047 C2038 1.390 . S
C2047 H2040 0.950 . S
C2047 C2044 1.387 . S
C2048 C2049 1.387 . S
C2048 H2052 0.950 . S
C2048 C2057 1.390 . S
C2049 C2048 1.387 . S
C2049 C2051 1.387 . S
H2050 C2057 0.950 . S
C2051 C2049 1.387 . S
C2051 C2053 1.390 . S
C2051 H2055 0.950 . S
H2052 C2048 0.950 . S
C2053 C2051 1.390 . S
C2053 C2054 1.387 . S
C2053 H2056 0.950 . S
C2054 C2053 1.387 . S
C2054 C2057 1.387 . S
H2055 C2051 0.950 . S
H2056 C2053 0.950 . S
C2057 C2048 1.390 . S
C2057 H2050 0.950 . S
C2057 C2054 1.387 . S
C2058 C2059 1.387 . S
C2058 H2062 0.950 . S
C2058 C2067 1.390 . S
C2059 C2058 1.387 . S
C2059 C2061 1.387 . S
H2060 C2067 0.950 . S
C2061 C2059 1.387 . S
C2061 C2063 1.390 . S
C2061 H2065 0.950 . S
H2062 C2058 0.950 . S
C2063 C2061 1.390 . S
C2063 C2064 1.387 . S
C2063 H2066 0.950 . S
C2064 C2063 1.387 . S
C2064 C2067 1.387 . S
H2065 C2061 0.950 . S
H2066 C2063 0.950 . S
C2067 C2058 1.390 . S
C2067 H2060 0.950 . S
C2067 C2064 1.387 . S
C2068 C2069 1.387 . S
C2068 H2072 0.950 . S
C2068 C2077 1.390 . S
C2069 C2068 1.387 . S
C2069 C2071 1.387 . S
H2070 C2077 0.950 . S
C2071 C2069 1.387 . S
C2071 C2073 1.390 . S
C2071 H2075 0.950 . S
H2072 C2068 0.950 . S
C2073 C2071 1.390 . S
C2073 C2074 1.387 . S
C2073 H2076 0.950 . S
C2074 C2073 1.387 . S
C2074 C2077 1.387 . S
H2075 C2071 0.950 . S
H2076 C2073 0.950 . S
C2077 C2068 1.390 . S
C2077 H2070 0.950 . S
C2077 C2074 1.387 . S
C2078 C2079 1.387 . S
C2078 H2082 0.950 . S
C2078 C2087 1.390 . S
C2079 C2078 1.387 . S
C2079 C2081 1.387 . S
H2080 C2087 0.950 . S
C2081 C2079 1.387 . S
C2081 C2083 1.390 . S
C2081 H2085 0.950 . S
H2082 C2078 0.950 . S
C2083 C2081 1.390 . S
C2083 C2084 1.387 . S
C2083 H2086 0.950 . S
C2084 C2083 1.387 . S
C2084 C2087 1.387 . S
H2085 C2081 0.950 . S
H2086 C2083 0.950 . S
C2087 C2078 1.390 . S
C2087 H2080 0.950 . S
C2087 C2084 1.387 . S
C2088 C2089 1.387 . S
C2088 H2092 0.950 . S
C2088 C2097 1.390 . S
C2089 C2088 1.387 . S
C2089 C2091 1.387 . S
H2090 C2097 0.950 . S
C2091 C2089 1.387 . S
C2091 C2093 1.390 . S
C2091 H2095 0.950 . S
H2092 C2088 0.950 . S
C2093 C2091 1.390 . S
C2093 C2094 1.387 . S
C2093 H2096 0.950 . S
C2094 C2093 1.387 . S
C2094 C2097 1.387 . S
H2095 C2091 0.950 . S
H2096 C2093 0.950 . S
C2097 C2088 1.390 . S
C2097 H2090 0.950 . S
C2097 C2094 1.387 . S
C2098 C2099 1.387 . S
C2098 H2102 0.950 . S
C2098 C2107 1.390 . S
C2099 C2098 1.387 . S
C2099 C2101 1.387 . S
H2100 C2107 0.950 . S
C2101 C2099 1.387 . S
C2101 C2103 1.390 . S
C2101 H2105 0.950 . S
H2102 C2098 0.950 . S
C2103 C2101 1.390 . S
C2103 C2104 1.387 . S
C2103 H2106 0.950 . S
C2104 C2103 1.387 . S
C2104 C2107 1.387 . S
H2105 C2101 0.950 . S
H2106 C2103 0.950 . S
C2107 C2098 1.390 . S
C2107 H2100 0.950 . S
C2107 C2104 1.387 . S
C2108 C2109 1.387 . S
C2108 H2112 0.950 . S
C2108 C2117 1.390 . S
C2109 C2108 1.387 . S
C2109 C2111 1.387 . S
H2110 C2117 0.950 . S
C2111 C2109 1.387 . S
C2111 C2113 1.390 . S
C2111 H2115 0.950 . S
H2112 C2108 0.950 . S
C2113 C2111 1.390 . S
C2113 C2114 1.387 . S
C2113 H2116 0.950 . S
C2114 C2113 1.387 . S
C2114 C2117 1.387 . S
H2115 C2111 0.950 . S
H2116 C2113 0.950 . S
C2117 C2108 1.390 . S
C2117 H2110 0.950 . S
C2117 C2114 1.387 . S
C2118 C2119 1.387 . S
C2118 H2122 0.950 . S
C2118 C2127 1.390 . S
C2119 C2118 1.387 . S
C2119 C2121 1.387 . S
H2120 C2127 0.950 . S
C2121 C2119 1.387 . S
C2121 C2123 1.390 . S
C2121 H2125 0.950 . S
H2122 C2118 0.950 . S
C2123 C2121 1.390 . S
C2123 C2124 1.387 . S
C2123 H2126 0.950 . S
C2124 C2123 1.387 . S
C2124 C2127 1.387 . S
H2125 C2121 0.950 . S
H2126 C2123 0.950 . S
C2127 C2118 1.390 . S
C2127 H2120 0.950 . S
C2127 C2124 1.387 . S
C2128 C2129 1.387 . S
C2128 H2132 0.950 . S
C2128 C2137 1.390 . S
C2129 C2128 1.387 . S
C2129 C2131 1.387 . S
H2130 C2137 0.950 . S
C2131 C2129 1.387 . S
C2131 C2133 1.390 . S
C2131 H2135 0.950 . S
H2132 C2128 0.950 . S
C2133 C2131 1.390 . S
C2133 C2134 1.387 . S
C2133 H2136 0.950 . S
C2134 C2133 1.387 . S
C2134 C2137 1.387 . S
H2135 C2131 0.950 . S
H2136 C2133 0.950 . S
C2137 C2128 1.390 . S
C2137 H2130 0.950 . S
C2137 C2134 1.387 . S
C2138 C2139 1.387 . S
C2138 H2142 0.950 . S
C2138 C2147 1.390 . S
C2139 C2138 1.387 . S
C2139 C2141 1.387 . S
H2140 C2147 0.950 . S
C2141 C2139 1.387 . S
C2141 C2143 1.390 . S
C2141 H2145 0.950 . S
H2142 C2138 0.950 . S
C2143 C2141 1.390 . S
C2143 C2144 1.387 . S
C2143 H2146 0.950 . S
C2144 C2143 1.387 . S
C2144 C2147 1.387 . S
H2145 C2141 0.950 . S
H2146 C2143 0.950 . S
C2147 C2138 1.390 . S
C2147 H2140 0.950 . S
C2147 C2144 1.387 . S
C2148 C2149 1.387 . S
C2148 H2152 0.950 . S
C2148 C2157 1.390 . S
C2149 C2148 1.387 . S
C2149 C2151 1.387 . S
H2150 C2157 0.950 . S
C2151 C2149 1.387 . S
C2151 C2153 1.390 . S
C2151 H2155 0.950 . S
H2152 C2148 0.950 . S
C2153 C2151 1.390 . S
C2153 C2154 1.387 . S
C2153 H2156 0.950 . S
C2154 C2153 1.387 . S
C2154 C2157 1.387 . S
H2155 C2151 0.950 . S
H2156 C2153 0.950 . S
C2157 C2148 1.390 . S
C2157 H2150 0.950 . S
C2157 C2154 1.387 . S
C2158 C2159 1.387 . S
C2158 H2162 0.950 . S
C2158 C2167 1.390 . S
C2159 C2158 1.387 . S
C2159 C2161 1.387 . S
H2160 C2167 0.950 . S
C2161 C2159 1.387 . S
C2161 C2163 1.390 . S
C2161 H2165 0.950 . S
H2162 C2158 0.950 . S
C2163 C2161 1.390 . S
C2163 C2164 1.387 . S
C2163 H2166 0.950 . S
C2164 C2163 1.387 . S
C2164 C2167 1.387 . S
H2165 C2161 0.950 . S
H2166 C2163 0.950 . S
C2167 C2158 1.390 . S
C2167 H2160 0.950 . S
C2167 C2164 1.387 . S
C2168 C2169 1.387 . S
C2168 H2172 0.950 . S
C2168 C2177 1.390 . S
C2169 C2168 1.387 . S
C2169 C2171 1.387 . S
H2170 C2177 0.950 . S
C2171 C2169 1.387 . S
C2171 C2173 1.390 . S
C2171 H2175 0.950 . S
H2172 C2168 0.950 . S
C2173 C2171 1.390 . S
C2173 C2174 1.387 . S
C2173 H2176 0.950 . S
C2174 C2173 1.387 . S
C2174 C2177 1.387 . S
H2175 C2171 0.950 . S
H2176 C2173 0.950 . S
C2177 C2168 1.390 . S
C2177 H2170 0.950 . S
C2177 C2174 1.387 . S
C2178 C2179 1.387 . S
C2178 H2182 0.950 . S
C2178 C2187 1.390 . S
C2179 C2178 1.387 . S
C2179 C2181 1.387 . S
H2180 C2187 0.950 . S
C2181 C2179 1.387 . S
C2181 C2183 1.390 . S
C2181 H2185 0.950 . S
H2182 C2178 0.950 . S
C2183 C2181 1.390 . S
C2183 C2184 1.387 . S
C2183 H2186 0.950 . S
C2184 C2183 1.387 . S
C2184 C2187 1.387 . S
H2185 C2181 0.950 . S
H2186 C2183 0.950 . S
C2187 C2178 1.390 . S
C2187 H2180 0.950 . S
C2187 C2184 1.387 . S
C2188 C2189 1.387 . S
C2188 H2192 0.950 . S
C2188 C2197 1.390 . S
C2189 C2188 1.387 . S
C2189 C2191 1.387 . S
H2190 C2197 0.950 . S
C2191 C2189 1.387 . S
C2191 C2193 1.390 . S
C2191 H2195 0.950 . S
H2192 C2188 0.950 . S
C2193 C2191 1.390 . S
C2193 C2194 1.387 . S
C2193 H2196 0.950 . S
C2194 C2193 1.387 . S
C2194 C2197 1.387 . S
H2195 C2191 0.950 . S
H2196 C2193 0.950 . S
C2197 C2188 1.390 . S
C2197 H2190 0.950 . S
C2197 C2194 1.387 . S
C2198 C2199 1.387 . S
C2198 H2202 0.950 . S
C2198 C2207 1.390 . S
C2199 C2198 1.387 . S
C2199 C2201 1.387 . S
H2200 C2207 0.950 . S
C2201 C2199 1.387 . S
C2201 C2203 1.390 . S
C2201 H2205 0.950 . S
H2202 C2198 0.950 . S
C2203 C2201 1.390 . S
C2203 C2204 1.387 . S
C2203 H2206 0.950 . S
C2204 C2203 1.387 . S
C2204 C2207 1.387 . S
H2205 C2201 0.950 . S
H2206 C2203 0.950 . S
C2207 C2198 1.390 . S
C2207 H2200 0.950 . S
C2207 C2204 1.387 . S
C2208 C2209 1.387 . S
C2208 H2212 0.950 . S
C2208 C2217 1.390 1_455 S
C2209 C2208 1.387 . S
C2209 C2211 1.387 . S
H2210 C2217 0.950 . S
C2211 C2209 1.387 . S
C2211 C2213 1.390 1_455 S
C2211 H2215 0.950 . S
H2212 C2208 0.950 . S
C2213 C2211 1.390 1_655 S
C2213 C2214 1.387 . S
C2213 H2216 0.950 . S
C2214 C2213 1.387 . S
C2214 C2217 1.387 . S
H2215 C2211 0.950 . S
H2216 C2213 0.950 . S
C2217 C2208 1.390 1_655 S
C2217 H2210 0.950 . S
C2217 C2214 1.387 . S
C2218 C2219 1.387 . S
C2218 H2222 0.950 . S
C2218 C2227 1.390 1_565 S
C2219 C2218 1.387 . S
C2219 C2221 1.387 . S
H2220 C2227 0.950 . S
C2221 C2219 1.387 . S
C2221 C2223 1.390 1_565 S
C2221 H2225 0.950 . S
H2222 C2218 0.950 . S
C2223 C2221 1.390 1_545 S
C2223 C2224 1.387 . S
C2223 H2226 0.950 . S
C2224 C2223 1.387 . S
C2224 C2227 1.387 . S
H2225 C2221 0.950 . S
H2226 C2223 0.950 . S
C2227 C2218 1.390 1_545 S
C2227 H2220 0.950 . S
C2227 C2224 1.387 . S
C2228 C2229 1.387 . S
C2228 H2232 0.950 . S
C2228 C2237 1.390 1_655 S
C2229 C2228 1.387 . S
C2229 C2231 1.387 . S
H2230 C2237 0.950 . S
C2231 C2229 1.387 . S
C2231 C2233 1.390 1_655 S
C2231 H2235 0.950 . S
H2232 C2228 0.950 . S
C2233 C2231 1.390 1_455 S
C2233 C2234 1.387 . S
C2233 H2236 0.950 . S
C2234 C2233 1.387 . S
C2234 C2237 1.387 . S
H2235 C2231 0.950 . S
H2236 C2233 0.950 . S
C2237 C2228 1.390 1_455 S
C2237 H2230 0.950 . S
C2237 C2234 1.387 . S
C2238 C2239 1.387 . S
C2238 H2242 0.950 . S
C2238 C2247 1.390 1_545 S
C2239 C2238 1.387 . S
C2239 C2241 1.387 . S
H2240 C2247 0.950 . S
C2241 C2239 1.387 . S
C2241 C2243 1.390 1_545 S
C2241 H2245 0.950 . S
H2242 C2238 0.950 . S
C2243 C2241 1.390 1_565 S
C2243 C2244 1.387 . S
C2243 H2246 0.950 . S
C2244 C2243 1.387 . S
C2244 C2247 1.387 . S
H2245 C2241 0.950 . S
H2246 C2243 0.950 . S
C2247 C2238 1.390 1_565 S
C2247 H2240 0.950 . S
C2247 C2244 1.387 . S
C2248 C2249 1.387 . S
C2248 H2252 0.950 . S
C2248 C2257 1.390 1_455 S
C2249 C2248 1.387 . S
C2249 C2251 1.387 . S
H2250 C2257 0.950 . S
C2251 C2249 1.387 . S
C2251 C2253 1.390 1_455 S
C2251 H2255 0.950 . S
H2252 C2248 0.950 . S
C2253 C2251 1.390 1_655 S
C2253 C2254 1.387 . S
C2253 H2256 0.950 . S
C2254 C2253 1.387 . S
C2254 C2257 1.387 . S
H2255 C2251 0.950 . S
H2256 C2253 0.950 . S
C2257 C2248 1.390 1_655 S
C2257 H2250 0.950 . S
C2257 C2254 1.387 . S
C2258 C2259 1.387 . S
C2258 H2262 0.950 . S
C2258 C2267 1.390 1_545 S
C2259 C2258 1.387 . S
C2259 C2261 1.387 . S
H2260 C2267 0.950 . S
C2261 C2259 1.387 . S
C2261 C2263 1.390 1_545 S
C2261 H2265 0.950 . S
H2262 C2258 0.950 . S
C2263 C2261 1.390 1_565 S
C2263 C2264 1.387 . S
C2263 H2266 0.950 . S
C2264 C2263 1.387 . S
C2264 C2267 1.387 . S
H2265 C2261 0.950 . S
H2266 C2263 0.950 . S
C2267 C2258 1.390 1_565 S
C2267 H2260 0.950 . S
C2267 C2264 1.387 . S
C2268 C2269 1.387 . S
C2268 H2272 0.950 . S
C2268 C2277 1.390 1_655 S
C2269 C2268 1.387 . S
C2269 C2271 1.387 . S
H2270 C2277 0.950 . S
C2271 C2269 1.387 . S
C2271 C2273 1.390 1_655 S
C2271 H2275 0.950 . S
H2272 C2268 0.950 . S
C2273 C2271 1.390 1_455 S
C2273 C2274 1.387 . S
C2273 H2276 0.950 . S
C2274 C2273 1.387 . S
C2274 C2277 1.387 . S
H2275 C2271 0.950 . S
H2276 C2273 0.950 . S
C2277 C2268 1.390 1_455 S
C2277 H2270 0.950 . S
C2277 C2274 1.387 . S
C2278 C2279 1.387 . S
C2278 H2282 0.950 . S
C2278 C2287 1.390 1_545 S
C2279 C2278 1.387 . S
C2279 C2281 1.387 . S
H2280 C2287 0.950 . S
C2281 C2279 1.387 . S
C2281 C2283 1.390 1_545 S
C2281 H2285 0.950 . S
H2282 C2278 0.950 . S
C2283 C2281 1.390 1_565 S
C2283 C2284 1.387 . S
C2283 H2286 0.950 . S
C2284 C2283 1.387 . S
C2284 C2287 1.387 . S
H2285 C2281 0.950 . S
H2286 C2283 0.950 . S
C2287 C2278 1.390 1_565 S
C2287 H2280 0.950 . S
C2287 C2284 1.387 . S
C2288 C2289 1.387 . S
C2288 H2292 0.950 . S
C2288 C2297 1.390 1_565 S
C2289 C2288 1.387 . S
C2289 C2291 1.387 . S
H2290 C2297 0.950 . S
C2291 C2289 1.387 . S
C2291 C2293 1.390 1_565 S
C2291 H2295 0.950 . S
H2292 C2288 0.950 . S
C2293 C2291 1.390 1_545 S
C2293 C2294 1.387 . S
C2293 H2296 0.950 . S
C2294 C2293 1.387 . S
C2294 C2297 1.387 . S
H2295 C2291 0.950 . S
H2296 C2293 0.950 . S
C2297 C2288 1.390 1_545 S
C2297 H2290 0.950 . S
C2297 C2294 1.387 . S
C2298 C2299 1.387 . S
C2298 H2302 0.950 . S
C2298 C2307 1.390 1_655 S
C2299 C2298 1.387 . S
C2299 C2301 1.387 . S
H2300 C2307 0.950 . S
C2301 C2299 1.387 . S
C2301 C2303 1.390 1_655 S
C2301 H2305 0.950 . S
H2302 C2298 0.950 . S
C2303 C2301 1.390 1_455 S
C2303 C2304 1.387 . S
C2303 H2306 0.950 . S
C2304 C2303 1.387 . S
C2304 C2307 1.387 . S
H2305 C2301 0.950 . S
H2306 C2303 0.950 . S
C2307 C2298 1.390 1_455 S
C2307 H2300 0.950 . S
C2307 C2304 1.387 . S
C2308 C2309 1.387 . S
C2308 H2312 0.950 . S
C2308 C2317 1.390 1_565 S
C2309 C2308 1.387 . S
C2309 C2311 1.387 . S
H2310 C2317 0.950 . S
C2311 C2309 1.387 . S
C2311 C2313 1.390 1_565 S
C2311 H2315 0.950 . S
H2312 C2308 0.950 . S
C2313 C2311 1.390 1_545 S
C2313 C2314 1.387 . S
C2313 H2316 0.950 . S
C2314 C2313 1.387 . S
C2314 C2317 1.387 . S
H2315 C2311 0.950 . S
H2316 C2313 0.950 . S
C2317 C2308 1.390 1_545 S
C2317 H2310 0.950 . S
C2317 C2314 1.387 . S
C2318 C2319 1.387 . S
C2318 H2322 0.950 . S
C2318 C2327 1.390 1_455 S
C2319 C2318 1.387 . S
C2319 C2321 1.387 . S
H2320 C2327 0.950 . S
C2321 C2319 1.387 . S
C2321 C2323 1.390 1_455 S
C2321 H2325 0.950 . S
H2322 C2318 0.950 . S
C2323 C2321 1.390 1_655 S
C2323 C2324 1.387 . S
C2323 H2326 0.950 . S
C2324 C2323 1.387 . S
C2324 C2327 1.387 . S
H2325 C2321 0.950 . S
H2326 C2323 0.950 . S
C2327 C2318 1.390 1_655 S
C2327 H2320 0.950 . S
C2327 C2324 1.387 . S
C2328 C2329 1.387 . S
C2328 H2332 0.950 . S
C2328 C2337 1.390 1_565 S
C2329 C2328 1.387 . S
C2329 C2331 1.387 . S
H2330 C2337 0.950 . S
C2331 C2329 1.387 . S
C2331 C2333 1.390 1_565 S
C2331 H2335 0.950 . S
H2332 C2328 0.950 . S
C2333 C2331 1.390 1_545 S
C2333 C2334 1.387 . S
C2333 H2336 0.950 . S
C2334 C2333 1.387 . S
C2334 C2337 1.387 . S
H2335 C2331 0.950 . S
H2336 C2333 0.950 . S
C2337 C2328 1.390 1_545 S
C2337 H2330 0.950 . S
C2337 C2334 1.387 . S
C2338 C2339 1.387 . S
C2338 H2342 0.950 . S
C2338 C2347 1.390 1_455 S
C2339 C2338 1.387 . S
C2339 C2341 1.387 . S
H2340 C2347 0.950 . S
C2341 C2339 1.387 . S
C2341 C2343 1.390 1_455 S
C2341 H2345 0.950 . S
H2342 C2338 0.950 . S
C2343 C2341 1.390 1_655 S
C2343 C2344 1.387 . S
C2343 H2346 0.950 . S
C2344 C2343 1.387 . S
C2344 C2347 1.387 . S
H2345 C2341 0.950 . S
H2346 C2343 0.950 . S
C2347 C2338 1.390 1_655 S
C2347 H2340 0.950 . S
C2347 C2344 1.387 . S
C2348 C2349 1.387 . S
C2348 H2352 0.950 . S
C2348 C2357 1.390 1_545 S
C2349 C2348 1.387 . S
C2349 C2351 1.387 . S
H2350 C2357 0.950 . S
C2351 C2349 1.387 . S
C2351 C2353 1.390 1_545 S
C2351 H2355 0.950 . S
H2352 C2348 0.950 . S
C2353 C2351 1.390 1_565 S
C2353 C2354 1.387 . S
C2353 H2356 0.950 . S
C2354 C2353 1.387 . S
C2354 C2357 1.387 . S
H2355 C2351 0.950 . S
H2356 C2353 0.950 . S
C2357 C2348 1.390 1_565 S
C2357 H2350 0.950 . S
C2357 C2354 1.387 . S
C2358 C2359 1.387 . S
C2358 H2362 0.950 . S
C2358 C2367 1.390 1_655 S
C2359 C2358 1.387 . S
C2359 C2361 1.387 . S
H2360 C2367 0.950 . S
C2361 C2359 1.387 . S
C2361 C2363 1.390 1_655 S
C2361 H2365 0.950 . S
H2362 C2358 0.950 . S
C2363 C2361 1.390 1_455 S
C2363 C2364 1.387 . S
C2363 H2366 0.950 . S
C2364 C2363 1.387 . S
C2364 C2367 1.387 . S
H2365 C2361 0.950 . S
H2366 C2363 0.950 . S
C2367 C2358 1.390 1_455 S
C2367 H2360 0.950 . S
C2367 C2364 1.387 . S
C2368 C2369 1.387 . S
C2368 H2372 0.950 . S
C2368 C2377 1.390 1_554 S
C2369 C2368 1.387 . S
C2369 C2371 1.387 . S
H2370 C2377 0.950 . S
C2371 C2369 1.387 . S
C2371 C2373 1.390 1_554 S
C2371 H2375 0.950 . S
H2372 C2368 0.950 . S
C2373 C2371 1.390 1_556 S
C2373 C2374 1.387 . S
C2373 H2376 0.950 . S
C2374 C2373 1.387 . S
C2374 C2377 1.387 . S
H2375 C2371 0.950 . S
H2376 C2373 0.950 . S
C2377 C2368 1.390 1_556 S
C2377 H2370 0.950 . S
C2377 C2374 1.387 . S
C2378 C2379 1.387 . S
C2378 H2382 0.950 . S
C2378 C2387 1.390 1_556 S
C2379 C2378 1.387 . S
C2379 C2381 1.387 . S
H2380 C2387 0.950 . S
C2381 C2379 1.387 . S
C2381 C2383 1.390 1_556 S
C2381 H2385 0.950 . S
H2382 C2378 0.950 . S
C2383 C2381 1.390 1_554 S
C2383 C2384 1.387 . S
C2383 H2386 0.950 . S
C2384 C2383 1.387 . S
C2384 C2387 1.387 . S
H2385 C2381 0.950 . S
H2386 C2383 0.950 . S
C2387 C2378 1.390 1_554 S
C2387 H2380 0.950 . S
C2387 C2384 1.387 . S
C2388 C2389 1.387 . S
C2388 H2392 0.950 . S
C2388 C2397 1.390 1_554 S
C2389 C2388 1.387 . S
C2389 C2391 1.387 . S
H2390 C2397 0.950 . S
C2391 C2389 1.387 . S
C2391 C2393 1.390 1_554 S
C2391 H2395 0.950 . S
H2392 C2388 0.950 . S
C2393 C2391 1.390 1_556 S
C2393 C2394 1.387 . S
C2393 H2396 0.950 . S
C2394 C2393 1.387 . S
C2394 C2397 1.387 . S
H2395 C2391 0.950 . S
H2396 C2393 0.950 . S
C2397 C2388 1.390 1_556 S
C2397 H2390 0.950 . S
C2397 C2394 1.387 . S
C2398 C2399 1.387 . S
C2398 H2402 0.950 . S
C2398 C2407 1.390 1_556 S
C2399 C2398 1.387 . S
C2399 C2401 1.387 . S
H2400 C2407 0.950 . S
C2401 C2399 1.387 . S
C2401 C2403 1.390 1_556 S
C2401 H2405 0.950 . S
H2402 C2398 0.950 . S
C2403 C2401 1.390 1_554 S
C2403 C2404 1.387 . S
C2403 H2406 0.950 . S
C2404 C2403 1.387 . S
C2404 C2407 1.387 . S
H2405 C2401 0.950 . S
H2406 C2403 0.950 . S
C2407 C2398 1.390 1_554 S
C2407 H2400 0.950 . S
C2407 C2404 1.387 . S
C2408 C2409 1.387 . S
C2408 H2412 0.950 . S
C2408 C2417 1.390 1_554 S
C2409 C2408 1.387 . S
C2409 C2411 1.387 . S
H2410 C2417 0.950 . S
C2411 C2409 1.387 . S
C2411 C2413 1.390 1_554 S
C2411 H2415 0.950 . S
H2412 C2408 0.950 . S
C2413 C2411 1.390 1_556 S
C2413 C2414 1.387 . S
C2413 H2416 0.950 . S
C2414 C2413 1.387 . S
C2414 C2417 1.387 . S
H2415 C2411 0.950 . S
H2416 C2413 0.950 . S
C2417 C2408 1.390 1_556 S
C2417 H2410 0.950 . S
C2417 C2414 1.387 . S
C2418 C2419 1.387 . S
C2418 H2422 0.950 . S
C2418 C2427 1.390 1_554 S
C2419 C2418 1.387 . S
C2419 C2421 1.387 . S
H2420 C2427 0.950 . S
C2421 C2419 1.387 . S
C2421 C2423 1.390 1_554 S
C2421 H2425 0.950 . S
H2422 C2418 0.950 . S
C2423 C2421 1.390 1_556 S
C2423 C2424 1.387 . S
C2423 H2426 0.950 . S
C2424 C2423 1.387 . S
C2424 C2427 1.387 . S
H2425 C2421 0.950 . S
H2426 C2423 0.950 . S
C2427 C2418 1.390 1_556 S
C2427 H2420 0.950 . S
C2427 C2424 1.387 . S
C2428 C2429 1.387 . S
C2428 H2432 0.950 . S
C2428 C2437 1.390 1_554 S
C2429 C2428 1.387 . S
C2429 C2431 1.387 . S
H2430 C2437 0.950 . S
C2431 C2429 1.387 . S
C2431 C2433 1.390 1_554 S
C2431 H2435 0.950 . S
H2432 C2428 0.950 . S
C2433 C2431 1.390 1_556 S
C2433 C2434 1.387 . S
C2433 H2436 0.950 . S
C2434 C2433 1.387 . S
C2434 C2437 1.387 . S
H2435 C2431 0.950 . S
H2436 C2433 0.950 . S
C2437 C2428 1.390 1_556 S
C2437 H2430 0.950 . S
C2437 C2434 1.387 . S
C2438 C2439 1.387 . S
C2438 H2442 0.950 . S
C2438 C2447 1.390 1_556 S
C2439 C2438 1.387 . S
C2439 C2441 1.387 . S
H2440 C2447 0.950 . S
C2441 C2439 1.387 . S
C2441 C2443 1.390 1_556 S
C2441 H2445 0.950 . S
H2442 C2438 0.950 . S
C2443 C2441 1.390 1_554 S
C2443 C2444 1.387 . S
C2443 H2446 0.950 . S
C2444 C2443 1.387 . S
C2444 C2447 1.387 . S
H2445 C2441 0.950 . S
H2446 C2443 0.950 . S
C2447 C2438 1.390 1_554 S
C2447 H2440 0.950 . S
C2447 C2444 1.387 . S
C2448 C2449 1.387 . S
C2448 H2452 0.950 . S
C2448 C2457 1.390 . S
C2449 C2448 1.387 . S
C2449 C2451 1.387 . S
H2450 C2457 0.950 . S
C2451 C2449 1.387 . S
C2451 C2453 1.390 . S
C2451 H2455 0.950 . S
H2452 C2448 0.950 . S
C2453 C2451 1.390 . S
C2453 C2454 1.387 . S
C2453 H2456 0.950 . S
C2454 C2453 1.387 . S
C2454 C2457 1.387 . S
H2455 C2451 0.950 . S
H2456 C2453 0.950 . S
C2457 C2448 1.390 . S
C2457 H2450 0.950 . S
C2457 C2454 1.387 . S
C2458 C2459 1.387 . S
C2458 H2462 0.950 . S
C2458 C2467 1.390 . S
C2459 C2458 1.387 . S
C2459 C2461 1.387 . S
H2460 C2467 0.950 . S
C2461 C2459 1.387 . S
C2461 C2463 1.390 . S
C2461 H2465 0.950 . S
H2462 C2458 0.950 . S
C2463 C2461 1.390 . S
C2463 C2464 1.387 . S
C2463 H2466 0.950 . S
C2464 C2463 1.387 . S
C2464 C2467 1.387 . S
H2465 C2461 0.950 . S
H2466 C2463 0.950 . S
C2467 C2458 1.390 . S
C2467 H2460 0.950 . S
C2467 C2464 1.387 . S
C2468 C2469 1.387 . S
C2468 H2472 0.950 . S
C2468 C2477 1.390 . S
C2469 C2468 1.387 . S
C2469 C2471 1.387 . S
H2470 C2477 0.950 . S
C2471 C2469 1.387 . S
C2471 C2473 1.390 . S
C2471 H2475 0.950 . S
H2472 C2468 0.950 . S
C2473 C2471 1.390 . S
C2473 C2474 1.387 . S
C2473 H2476 0.950 . S
C2474 C2473 1.387 . S
C2474 C2477 1.387 . S
H2475 C2471 0.950 . S
H2476 C2473 0.950 . S
C2477 C2468 1.390 . S
C2477 H2470 0.950 . S
C2477 C2474 1.387 . S
C2478 C2479 1.387 . S
C2478 H2482 0.950 . S
C2478 C2487 1.390 . S
C2479 C2478 1.387 . S
C2479 C2481 1.387 . S
H2480 C2487 0.950 . S
C2481 C2479 1.387 . S
C2481 C2483 1.390 . S
C2481 H2485 0.950 . S
H2482 C2478 0.950 . S
C2483 C2481 1.390 . S
C2483 C2484 1.387 . S
C2483 H2486 0.950 . S
C2484 C2483 1.387 . S
C2484 C2487 1.387 . S
H2485 C2481 0.950 . S
H2486 C2483 0.950 . S
C2487 C2478 1.390 . S
C2487 H2480 0.950 . S
C2487 C2484 1.387 . S
C2488 C2489 1.387 . S
C2488 H2492 0.950 . S
C2488 C2497 1.390 . S
C2489 C2488 1.387 . S
C2489 C2491 1.387 . S
H2490 C2497 0.950 . S
C2491 C2489 1.387 . S
C2491 C2493 1.390 . S
C2491 H2495 0.950 . S
H2492 C2488 0.950 . S
C2493 C2491 1.390 . S
C2493 C2494 1.387 . S
C2493 H2496 0.950 . S
C2494 C2493 1.387 . S
C2494 C2497 1.387 . S
H2495 C2491 0.950 . S
H2496 C2493 0.950 . S
C2497 C2488 1.390 . S
C2497 H2490 0.950 . S
C2497 C2494 1.387 . S
C2498 C2499 1.387 . S
C2498 H2502 0.950 . S
C2498 C2507 1.390 . S
C2499 C2498 1.387 . S
C2499 C2501 1.387 . S
H2500 C2507 0.950 . S
C2501 C2499 1.387 . S
C2501 C2503 1.390 . S
C2501 H2505 0.950 . S
H2502 C2498 0.950 . S
C2503 C2501 1.390 . S
C2503 C2504 1.387 . S
C2503 H2506 0.950 . S
C2504 C2503 1.387 . S
C2504 C2507 1.387 . S
H2505 C2501 0.950 . S
H2506 C2503 0.950 . S
C2507 C2498 1.390 . S
C2507 H2500 0.950 . S
C2507 C2504 1.387 . S
C2508 C2509 1.387 . S
C2508 H2512 0.950 . S
C2508 C2517 1.390 . S
C2509 C2508 1.387 . S
C2509 C2511 1.387 . S
H2510 C2517 0.950 . S
C2511 C2509 1.387 . S
C2511 C2513 1.390 . S
C2511 H2515 0.950 . S
H2512 C2508 0.950 . S
C2513 C2511 1.390 . S
C2513 C2514 1.387 . S
C2513 H2516 0.950 . S
C2514 C2513 1.387 . S
C2514 C2517 1.387 . S
H2515 C2511 0.950 . S
H2516 C2513 0.950 . S
C2517 C2508 1.390 . S
C2517 H2510 0.950 . S
C2517 C2514 1.387 . S
C2518 C2519 1.387 . S
C2518 H2522 0.950 . S
C2518 C2527 1.390 . S
C2519 C2518 1.387 . S
C2519 C2521 1.387 . S
H2520 C2527 0.950 . S
C2521 C2519 1.387 . S
C2521 C2523 1.390 . S
C2521 H2525 0.950 . S
H2522 C2518 0.950 . S
C2523 C2521 1.390 . S
C2523 C2524 1.387 . S
C2523 H2526 0.950 . S
C2524 C2523 1.387 . S
C2524 C2527 1.387 . S
H2525 C2521 0.950 . S
H2526 C2523 0.950 . S
C2527 C2518 1.390 . S
C2527 H2520 0.950 . S
C2527 C2524 1.387 . S
C2528 C2529 1.387 . S
C2528 H2532 0.950 . S
C2528 C2537 1.390 . S
C2529 C2528 1.387 . S
C2529 C2531 1.387 . S
H2530 C2537 0.950 . S
C2531 C2529 1.387 . S
C2531 C2533 1.390 . S
C2531 H2535 0.950 . S
H2532 C2528 0.950 . S
C2533 C2531 1.390 . S
C2533 C2534 1.387 . S
C2533 H2536 0.950 . S
C2534 C2533 1.387 . S
C2534 C2537 1.387 . S
H2535 C2531 0.950 . S
H2536 C2533 0.950 . S
C2537 C2528 1.390 . S
C2537 H2530 0.950 . S
C2537 C2534 1.387 . S
C2538 C2539 1.387 . S
C2538 H2542 0.950 . S
C2538 C2547 1.390 . S
C2539 C2538 1.387 . S
C2539 C2541 1.387 . S
H2540 C2547 0.950 . S
C2541 C2539 1.387 . S
C2541 C2543 1.390 . S
C2541 H2545 0.950 . S
H2542 C2538 0.950 . S
C2543 C2541 1.390 . S
C2543 C2544 1.387 . S
C2543 H2546 0.950 . S
C2544 C2543 1.387 . S
C2544 C2547 1.387 . S
H2545 C2541 0.950 . S
H2546 C2543 0.950 . S
C2547 C2538 1.390 . S
C2547 H2540 0.950 . S
C2547 C2544 1.387 . S
C2548 C2549 1.387 . S
C2548 H2552 0.950 . S
C2548 C2557 1.390 . S
C2549 C2548 1.387 . S
C2549 C2551 1.387 . S
H2550 C2557 0.950 . S
C2551 C2549 1.387 . S
C2551 C2553 1.390 . S
C2551 H2555 0.950 . S
H2552 C2548 0.950 . S
C2553 C2551 1.390 . S
C2553 C2554 1.387 . S
C2553 H2556 0.950 . S
C2554 C2553 1.387 . S
C2554 C2557 1.387 . S
H2555 C2551 0.950 . S
H2556 C2553 0.950 . S
C2557 C2548 1.390 . S
C2557 H2550 0.950 . S
C2557 C2554 1.387 . S
C2558 C2559 1.387 . S
C2558 H2562 0.950 . S
C2558 C2567 1.390 . S
C2559 C2558 1.387 . S
C2559 C2561 1.387 . S
H2560 C2567 0.950 . S
C2561 C2559 1.387 . S
C2561 C2563 1.390 . S
C2561 H2565 0.950 . S
H2562 C2558 0.950 . S
C2563 C2561 1.390 . S
C2563 C2564 1.387 . S
C2563 H2566 0.950 . S
C2564 C2563 1.387 . S
C2564 C2567 1.387 . S
H2565 C2561 0.950 . S
H2566 C2563 0.950 . S
C2567 C2558 1.390 . S
C2567 H2560 0.950 . S
C2567 C2564 1.387 . S
C2568 C2569 1.387 . S
C2568 H2572 0.950 . S
C2568 C2577 1.390 . S
C2569 C2568 1.387 . S
C2569 C2571 1.387 . S
H2570 C2577 0.950 . S
C2571 C2569 1.387 . S
C2571 C2573 1.390 . S
C2571 H2575 0.950 . S
H2572 C2568 0.950 . S
C2573 C2571 1.390 . S
C2573 C2574 1.387 . S
C2573 H2576 0.950 . S
C2574 C2573 1.387 . S
C2574 C2577 1.387 . S
H2575 C2571 0.950 . S
H2576 C2573 0.950 . S
C2577 C2568 1.390 . S
C2577 H2570 0.950 . S
C2577 C2574 1.387 . S
C2578 C2579 1.387 . S
C2578 H2582 0.950 . S
C2578 C2587 1.390 . S
C2579 C2578 1.387 . S
C2579 C2581 1.387 . S
H2580 C2587 0.950 . S
C2581 C2579 1.387 . S
C2581 C2583 1.390 . S
C2581 H2585 0.950 . S
H2582 C2578 0.950 . S
C2583 C2581 1.390 . S
C2583 C2584 1.387 . S
C2583 H2586 0.950 . S
C2584 C2583 1.387 . S
C2584 C2587 1.387 . S
H2585 C2581 0.950 . S
H2586 C2583 0.950 . S
C2587 C2578 1.390 . S
C2587 H2580 0.950 . S
C2587 C2584 1.387 . S
C2588 C2589 1.387 . S
C2588 H2592 0.950 . S
C2588 C2597 1.390 . S
C2589 C2588 1.387 . S
C2589 C2591 1.387 . S
H2590 C2597 0.950 . S
C2591 C2589 1.387 . S
C2591 C2593 1.390 . S
C2591 H2595 0.950 . S
H2592 C2588 0.950 . S
C2593 C2591 1.390 . S
C2593 C2594 1.387 . S
C2593 H2596 0.950 . S
C2594 C2593 1.387 . S
C2594 C2597 1.387 . S
H2595 C2591 0.950 . S
H2596 C2593 0.950 . S
C2597 C2588 1.390 . S
C2597 H2590 0.950 . S
C2597 C2594 1.387 . S
C2598 C2599 1.387 . S
C2598 H2602 0.950 . S
C2598 C2607 1.390 . S
C2599 C2598 1.387 . S
C2599 C2601 1.387 . S
H2600 C2607 0.950 . S
C2601 C2599 1.387 . S
C2601 C2603 1.390 . S
C2601 H2605 0.950 . S
H2602 C2598 0.950 . S
C2603 C2601 1.390 . S
C2603 C2604 1.387 . S
C2603 H2606 0.950 . S
C2604 C2603 1.387 . S
C2604 C2607 1.387 . S
H2605 C2601 0.950 . S
H2606 C2603 0.950 . S
C2607 C2598 1.390 . S
C2607 H2600 0.950 . S
C2607 C2604 1.387 . S
C2608 C2609 1.387 . S
C2608 H2612 0.950 . S
C2608 C2617 1.390 . S
C2609 C2608 1.387 . S
C2609 C2611 1.387 . S
H2610 C2617 0.950 . S
C2611 C2609 1.387 . S
C2611 C2613 1.390 . S
C2611 H2615 0.950 . S
H2612 C2608 0.950 . S
C2613 C2611 1.390 . S
C2613 C2614 1.387 . S
C2613 H2616 0.950 . S
C2614 C2613 1.387 . S
C2614 C2617 1.387 . S
H2615 C2611 0.950 . S
H2616 C2613 0.950 . S
C2617 C2608 1.390 . S
C2617 H2610 0.950 . S
C2617 C2614 1.387 . S
C2618 C2619 1.387 . S
C2618 H2622 0.950 . S
C2618 C2627 1.390 . S
C2619 C2618 1.387 . S
C2619 C2621 1.387 . S
H2620 C2627 0.950 . S
C2621 C2619 1.387 . S
C2621 C2623 1.390 . S
C2621 H2625 0.950 . S
H2622 C2618 0.950 . S
C2623 C2621 1.390 . S
C2623 C2624 1.387 . S
C2623 H2626 0.950 . S
C2624 C2623 1.387 . S
C2624 C2627 1.387 . S
H2625 C2621 0.950 . S
H2626 C2623 0.950 . S
C2627 C2618 1.390 . S
C2627 H2620 0.950 . S
C2627 C2624 1.387 . S
C2628 C2629 1.387 . S
C2628 H2632 0.950 . S
C2628 C2637 1.390 . S
C2629 C2628 1.387 . S
C2629 C2631 1.387 . S
H2630 C2637 0.950 . S
C2631 C2629 1.387 . S
C2631 C2633 1.390 . S
C2631 H2635 0.950 . S
H2632 C2628 0.950 . S
C2633 C2631 1.390 . S
C2633 C2634 1.387 . S
C2633 H2636 0.950 . S
C2634 C2633 1.387 . S
C2634 C2637 1.387 . S
H2635 C2631 0.950 . S
H2636 C2633 0.950 . S
C2637 C2628 1.390 . S
C2637 H2630 0.950 . S
C2637 C2634 1.387 . S
C2638 C2639 1.387 . S
C2638 H2642 0.950 . S
C2638 C2647 1.390 . S
C2639 C2638 1.387 . S
C2639 C2641 1.387 . S
H2640 C2647 0.950 . S
C2641 C2639 1.387 . S
C2641 C2643 1.390 . S
C2641 H2645 0.950 . S
H2642 C2638 0.950 . S
C2643 C2641 1.390 . S
C2643 C2644 1.387 . S
C2643 H2646 0.950 . S
C2644 C2643 1.387 . S
C2644 C2647 1.387 . S
H2645 C2641 0.950 . S
H2646 C2643 0.950 . S
C2647 C2638 1.390 . S
C2647 H2640 0.950 . S
C2647 C2644 1.387 . S
C2648 C2649 1.387 . S
C2648 H2652 0.950 . S
C2648 C2657 1.390 . S
C2649 C2648 1.387 . S
C2649 C2651 1.387 . S
H2650 C2657 0.950 . S
C2651 C2649 1.387 . S
C2651 C2653 1.390 . S
C2651 H2655 0.950 . S
H2652 C2648 0.950 . S
C2653 C2651 1.390 . S
C2653 C2654 1.387 . S
C2653 H2656 0.950 . S
C2654 C2653 1.387 . S
C2654 C2657 1.387 . S
H2655 C2651 0.950 . S
H2656 C2653 0.950 . S
C2657 C2648 1.390 . S
C2657 H2650 0.950 . S
C2657 C2654 1.387 . S
C2658 C2659 1.387 . S
C2658 H2662 0.950 . S
C2658 C2667 1.390 . S
C2659 C2658 1.387 . S
C2659 C2661 1.387 . S
H2660 C2667 0.950 . S
C2661 C2659 1.387 . S
C2661 C2663 1.390 . S
C2661 H2665 0.950 . S
H2662 C2658 0.950 . S
C2663 C2661 1.390 . S
C2663 C2664 1.387 . S
C2663 H2666 0.950 . S
C2664 C2663 1.387 . S
C2664 C2667 1.387 . S
H2665 C2661 0.950 . S
H2666 C2663 0.950 . S
C2667 C2658 1.390 . S
C2667 H2660 0.950 . S
C2667 C2664 1.387 . S
C2668 C2669 1.387 . S
C2668 H2672 0.950 . S
C2668 C2677 1.390 . S
C2669 C2668 1.387 . S
C2669 C2671 1.387 . S
H2670 C2677 0.950 . S
C2671 C2669 1.387 . S
C2671 C2673 1.390 . S
C2671 H2675 0.950 . S
H2672 C2668 0.950 . S
C2673 C2671 1.390 . S
C2673 C2674 1.387 . S
C2673 H2676 0.950 . S
C2674 C2673 1.387 . S
C2674 C2677 1.387 . S
H2675 C2671 0.950 . S
H2676 C2673 0.950 . S
C2677 C2668 1.390 . S
C2677 H2670 0.950 . S
C2677 C2674 1.387 . S
C2678 C2679 1.387 . S
C2678 H2682 0.950 . S
C2678 C2687 1.390 . S
C2679 C2678 1.387 . S
C2679 C2681 1.387 . S
H2680 C2687 0.950 . S
C2681 C2679 1.387 . S
C2681 C2683 1.390 . S
C2681 H2685 0.950 . S
H2682 C2678 0.950 . S
C2683 C2681 1.390 . S
C2683 C2684 1.387 . S
C2683 H2686 0.950 . S
C2684 C2683 1.387 . S
C2684 C2687 1.387 . S
H2685 C2681 0.950 . S
H2686 C2683 0.950 . S
C2687 C2678 1.390 . S
C2687 H2680 0.950 . S
C2687 C2684 1.387 . S
C2688 C2689 1.387 . S
C2688 H2692 0.950 . S
C2688 C2697 1.390 . S
C2689 C2688 1.387 . S
C2689 C2691 1.387 . S
H2690 C2697 0.950 . S
C2691 C2689 1.387 . S
C2691 C2693 1.390 . S
C2691 H2695 0.950 . S
H2692 C2688 0.950 . S
C2693 C2691 1.390 . S
C2693 C2694 1.387 . S
C2693 H2696 0.950 . S
C2694 C2693 1.387 . S
C2694 C2697 1.387 . S
H2695 C2691 0.950 . S
H2696 C2693 0.950 . S
C2697 C2688 1.390 . S
C2697 H2690 0.950 . S
C2697 C2694 1.387 . S
C2698 C2699 1.387 . S
C2698 H2702 0.950 . S
C2698 C2707 1.390 . S
C2699 C2698 1.387 . S
C2699 C2701 1.387 . S
H2700 C2707 0.950 . S
C2701 C2699 1.387 . S
C2701 C2703 1.390 . S
C2701 H2705 0.950 . S
H2702 C2698 0.950 . S
C2703 C2701 1.390 . S
C2703 C2704 1.387 . S
C2703 H2706 0.950 . S
C2704 C2703 1.387 . S
C2704 C2707 1.387 . S
H2705 C2701 0.950 . S
H2706 C2703 0.950 . S
C2707 C2698 1.390 . S
C2707 H2700 0.950 . S
C2707 C2704 1.387 . S
C2708 C2709 1.387 . S
C2708 H2712 0.950 . S
C2708 C2717 1.390 . S
C2709 C2708 1.387 . S
C2709 C2711 1.387 . S
H2710 C2717 0.950 . S
C2711 C2709 1.387 . S
C2711 C2713 1.390 . S
C2711 H2715 0.950 . S
H2712 C2708 0.950 . S
C2713 C2711 1.390 . S
C2713 C2714 1.387 . S
C2713 H2716 0.950 . S
C2714 C2713 1.387 . S
C2714 C2717 1.387 . S
H2715 C2711 0.950 . S
H2716 C2713 0.950 . S
C2717 C2708 1.390 . S
C2717 H2710 0.950 . S
C2717 C2714 1.387 . S
C2718 C2719 1.387 . S
C2718 H2722 0.950 . S
C2718 C2727 1.390 . S
C2719 C2718 1.387 . S
C2719 C2721 1.387 . S
H2720 C2727 0.950 . S
C2721 C2719 1.387 . S
C2721 C2723 1.390 . S
C2721 H2725 0.950 . S
H2722 C2718 0.950 . S
C2723 C2721 1.390 . S
C2723 C2724 1.387 . S
C2723 H2726 0.950 . S
C2724 C2723 1.387 . S
C2724 C2727 1.387 . S
H2725 C2721 0.950 . S
H2726 C2723 0.950 . S
C2727 C2718 1.390 . S
C2727 H2720 0.950 . S
C2727 C2724 1.387 . S
C2728 C2729 1.387 . S
C2728 H2732 0.950 . S
C2728 C2737 1.390 . S
C2729 C2728 1.387 . S
C2729 C2731 1.387 . S
H2730 C2737 0.950 . S
C2731 C2729 1.387 . S
C2731 C2733 1.390 . S
C2731 H2735 0.950 . S
H2732 C2728 0.950 . S
C2733 C2731 1.390 . S
C2733 C2734 1.387 . S
C2733 H2736 0.950 . S
C2734 C2733 1.387 . S
C2734 C2737 1.387 . S
H2735 C2731 0.950 . S
H2736 C2733 0.950 . S
C2737 C2728 1.390 . S
C2737 H2730 0.950 . S
C2737 C2734 1.387 . S
C2738 C2739 1.387 . S
C2738 H2742 0.950 . S
C2738 C2747 1.390 . S
C2739 C2738 1.387 . S
C2739 C2741 1.387 . S
H2740 C2747 0.950 . S
C2741 C2739 1.387 . S
C2741 C2743 1.390 . S
C2741 H2745 0.950 . S
H2742 C2738 0.950 . S
C2743 C2741 1.390 . S
C2743 C2744 1.387 . S
C2743 H2746 0.950 . S
C2744 C2743 1.387 . S
C2744 C2747 1.387 . S
H2745 C2741 0.950 . S
H2746 C2743 0.950 . S
C2747 C2738 1.390 . S
C2747 H2740 0.950 . S
C2747 C2744 1.387 . S
C2748 C2749 1.387 . S
C2748 H2752 0.950 . S
C2748 C2757 1.390 . S
C2749 C2748 1.387 . S
C2749 C2751 1.387 . S
H2750 C2757 0.950 . S
C2751 C2749 1.387 . S
C2751 C2753 1.390 . S
C2751 H2755 0.950 . S
H2752 C2748 0.950 . S
C2753 C2751 1.390 . S
C2753 C2754 1.387 . S
C2753 H2756 0.950 . S
C2754 C2753 1.387 . S
C2754 C2757 1.387 . S
H2755 C2751 0.950 . S
H2756 C2753 0.950 . S
C2757 C2748 1.390 . S
C2757 H2750 0.950 . S
C2757 C2754 1.387 . S
C2758 C2759 1.387 . S
C2758 H2762 0.950 . S
C2758 C2767 1.390 . S
C2759 C2758 1.387 . S
C2759 C2761 1.387 . S
H2760 C2767 0.950 . S
C2761 C2759 1.387 . S
C2761 C2763 1.390 . S
C2761 H2765 0.950 . S
H2762 C2758 0.950 . S
C2763 C2761 1.390 . S
C2763 C2764 1.387 . S
C2763 H2766 0.950 . S
C2764 C2763 1.387 . S
C2764 C2767 1.387 . S
H2765 C2761 0.950 . S
H2766 C2763 0.950 . S
C2767 C2758 1.390 . S
C2767 H2760 0.950 . S
C2767 C2764 1.387 . S
C2768 C2769 1.387 . S
C2768 H2772 0.950 . S
C2768 C2777 1.390 . S
C2769 C2768 1.387 . S
C2769 C2771 1.387 . S
H2770 C2777 0.950 . S
C2771 C2769 1.387 . S
C2771 C2773 1.390 . S
C2771 H2775 0.950 . S
H2772 C2768 0.950 . S
C2773 C2771 1.390 . S
C2773 C2774 1.387 . S
C2773 H2776 0.950 . S
C2774 C2773 1.387 . S
C2774 C2777 1.387 . S
H2775 C2771 0.950 . S
H2776 C2773 0.950 . S
C2777 C2768 1.390 . S
C2777 H2770 0.950 . S
C2777 C2774 1.387 . S
C2778 C2779 1.387 . S
C2778 H2782 0.950 . S
C2778 C2787 1.390 . S
C2779 C2778 1.387 . S
C2779 C2781 1.387 . S
H2780 C2787 0.950 . S
C2781 C2779 1.387 . S
C2781 C2783 1.390 . S
C2781 H2785 0.950 . S
H2782 C2778 0.950 . S
C2783 C2781 1.390 . S
C2783 C2784 1.387 . S
C2783 H2786 0.950 . S
C2784 C2783 1.387 . S
C2784 C2787 1.387 . S
H2785 C2781 0.950 . S
H2786 C2783 0.950 . S
C2787 C2778 1.390 . S
C2787 H2780 0.950 . S
C2787 C2784 1.387 . S
C2788 C2789 1.387 . S
C2788 H2792 0.950 . S
C2788 C2797 1.390 . S
C2789 C2788 1.387 . S
C2789 C2791 1.387 . S
H2790 C2797 0.950 . S
C2791 C2789 1.387 . S
C2791 C2793 1.390 . S
C2791 H2795 0.950 . S
H2792 C2788 0.950 . S
C2793 C2791 1.390 . S
C2793 C2794 1.387 . S
C2793 H2796 0.950 . S
C2794 C2793 1.387 . S
C2794 C2797 1.387 . S
H2795 C2791 0.950 . S
H2796 C2793 0.950 . S
C2797 C2788 1.390 . S
C2797 H2790 0.950 . S
C2797 C2794 1.387 . S
C2798 C2799 1.387 . S
C2798 H2802 0.950 . S
C2798 C2807 1.390 . S
C2799 C2798 1.387 . S
C2799 C2801 1.387 . S
H2800 C2807 0.950 . S
C2801 C2799 1.387 . S
C2801 C2803 1.390 . S
C2801 H2805 0.950 . S
H2802 C2798 0.950 . S
C2803 C2801 1.390 . S
C2803 C2804 1.387 . S
C2803 H2806 0.950 . S
C2804 C2803 1.387 . S
C2804 C2807 1.387 . S
H2805 C2801 0.950 . S
H2806 C2803 0.950 . S
C2807 C2798 1.390 . S
C2807 H2800 0.950 . S
C2807 C2804 1.387 . S
C2808 C2809 1.387 . S
C2808 H2812 0.950 . S
C2808 C2817 1.390 . S
C2809 C2808 1.387 . S
C2809 C2811 1.387 . S
H2810 C2817 0.950 . S
C2811 C2809 1.387 . S
C2811 C2813 1.390 . S
C2811 H2815 0.950 . S
H2812 C2808 0.950 . S
C2813 C2811 1.390 . S
C2813 C2814 1.387 . S
C2813 H2816 0.950 . S
C2814 C2813 1.387 . S
C2814 C2817 1.387 . S
H2815 C2811 0.950 . S
H2816 C2813 0.950 . S
C2817 C2808 1.390 . S
C2817 H2810 0.950 . S
C2817 C2814 1.387 . S
C2818 C2819 1.387 . S
C2818 H2822 0.950 . S
C2818 C2827 1.390 . S
C2819 C2818 1.387 . S
C2819 C2821 1.387 . S
H2820 C2827 0.950 . S
C2821 C2819 1.387 . S
C2821 C2823 1.390 . S
C2821 H2825 0.950 . S
H2822 C2818 0.950 . S
C2823 C2821 1.390 . S
C2823 C2824 1.387 . S
C2823 H2826 0.950 . S
C2824 C2823 1.387 . S
C2824 C2827 1.387 . S
H2825 C2821 0.950 . S
H2826 C2823 0.950 . S
C2827 C2818 1.390 . S
C2827 H2820 0.950 . S
C2827 C2824 1.387 . S
C2828 C2829 1.387 . S
C2828 H2832 0.950 . S
C2828 C2837 1.390 . S
C2829 C2828 1.387 . S
C2829 C2831 1.387 . S
H2830 C2837 0.950 . S
C2831 C2829 1.387 . S
C2831 C2833 1.390 . S
C2831 H2835 0.950 . S
H2832 C2828 0.950 . S
C2833 C2831 1.390 . S
C2833 C2834 1.387 . S
C2833 H2836 0.950 . S
C2834 C2833 1.387 . S
C2834 C2837 1.387 . S
H2835 C2831 0.950 . S
H2836 C2833 0.950 . S
C2837 C2828 1.390 . S
C2837 H2830 0.950 . S
C2837 C2834 1.387 . S
C2838 C2839 1.387 . S
C2838 H2842 0.950 . S
C2838 C2847 1.390 . S
C2839 C2838 1.387 . S
C2839 C2841 1.387 . S
H2840 C2847 0.950 . S
C2841 C2839 1.387 . S
C2841 C2843 1.390 . S
C2841 H2845 0.950 . S
H2842 C2838 0.950 . S
C2843 C2841 1.390 . S
C2843 C2844 1.387 . S
C2843 H2846 0.950 . S
C2844 C2843 1.387 . S
C2844 C2847 1.387 . S
H2845 C2841 0.950 . S
H2846 C2843 0.950 . S
C2847 C2838 1.390 . S
C2847 H2840 0.950 . S
C2847 C2844 1.387 . S
C2848 C2849 1.387 . S
C2848 H2852 0.950 . S
C2848 C2857 1.390 . S
C2849 C2848 1.387 . S
C2849 C2851 1.387 . S
H2850 C2857 0.950 . S
C2851 C2849 1.387 . S
C2851 C2853 1.390 . S
C2851 H2855 0.950 . S
H2852 C2848 0.950 . S
C2853 C2851 1.390 . S
C2853 C2854 1.387 . S
C2853 H2856 0.950 . S
C2854 C2853 1.387 . S
C2854 C2857 1.387 . S
H2855 C2851 0.950 . S
H2856 C2853 0.950 . S
C2857 C2848 1.390 . S
C2857 H2850 0.950 . S
C2857 C2854 1.387 . S
C2858 C2859 1.387 . S
C2858 H2862 0.950 . S
C2858 C2867 1.390 . S
C2859 C2858 1.387 . S
C2859 C2861 1.387 . S
H2860 C2867 0.950 . S
C2861 C2859 1.387 . S
C2861 C2863 1.390 . S
C2861 H2865 0.950 . S
H2862 C2858 0.950 . S
C2863 C2861 1.390 . S
C2863 C2864 1.387 . S
C2863 H2866 0.950 . S
C2864 C2863 1.387 . S
C2864 C2867 1.387 . S
H2865 C2861 0.950 . S
H2866 C2863 0.950 . S
C2867 C2858 1.390 . S
C2867 H2860 0.950 . S
C2867 C2864 1.387 . S
C2868 C2869 1.387 . S
C2868 H2872 0.950 . S
C2868 C2877 1.390 . S
C2869 C2868 1.387 . S
C2869 C2871 1.387 . S
H2870 C2877 0.950 . S
C2871 C2869 1.387 . S
C2871 C2873 1.390 . S
C2871 H2875 0.950 . S
H2872 C2868 0.950 . S
C2873 C2871 1.390 . S
C2873 C2874 1.387 . S
C2873 H2876 0.950 . S
C2874 C2873 1.387 . S
C2874 C2877 1.387 . S
H2875 C2871 0.950 . S
H2876 C2873 0.950 . S
C2877 C2868 1.390 . S
C2877 H2870 0.950 . S
C2877 C2874 1.387 . S
C2878 C2879 1.387 . S
C2878 H2882 0.950 . S
C2878 C2887 1.390 . S
C2879 C2878 1.387 . S
C2879 C2881 1.387 . S
H2880 C2887 0.950 . S
C2881 C2879 1.387 . S
C2881 C2883 1.390 . S
C2881 H2885 0.950 . S
H2882 C2878 0.950 . S
C2883 C2881 1.390 . S
C2883 C2884 1.387 . S
C2883 H2886 0.950 . S
C2884 C2883 1.387 . S
C2884 C2887 1.387 . S
H2885 C2881 0.950 . S
H2886 C2883 0.950 . S
C2887 C2878 1.390 . S
C2887 H2880 0.950 . S
C2887 C2884 1.387 . S
C2888 C2889 1.387 . S
C2888 H2892 0.950 . S
C2888 C2897 1.390 . S
C2889 C2888 1.387 . S
C2889 C2891 1.387 . S
H2890 C2897 0.950 . S
C2891 C2889 1.387 . S
C2891 C2893 1.390 . S
C2891 H2895 0.950 . S
H2892 C2888 0.950 . S
C2893 C2891 1.390 . S
C2893 C2894 1.387 . S
C2893 H2896 0.950 . S
C2894 C2893 1.387 . S
C2894 C2897 1.387 . S
H2895 C2891 0.950 . S
H2896 C2893 0.950 . S
C2897 C2888 1.390 . S
C2897 H2890 0.950 . S
C2897 C2894 1.387 . S
C2898 C2899 1.387 . S
C2898 H2902 0.950 . S
C2898 C2907 1.390 . S
C2899 C2898 1.387 . S
C2899 C2901 1.387 . S
H2900 C2907 0.950 . S
C2901 C2899 1.387 . S
C2901 C2903 1.390 . S
C2901 H2905 0.950 . S
H2902 C2898 0.950 . S
C2903 C2901 1.390 . S
C2903 C2904 1.387 . S
C2903 H2906 0.950 . S
C2904 C2903 1.387 . S
C2904 C2907 1.387 . S
H2905 C2901 0.950 . S
H2906 C2903 0.950 . S
C2907 C2898 1.390 . S
C2907 H2900 0.950 . S
C2907 C2904 1.387 . S
C2908 C2909 1.387 . S
C2908 H2912 0.950 . S
C2908 C2917 1.390 . S
C2909 C2908 1.387 . S
C2909 C2911 1.387 . S
H2910 C2917 0.950 . S
C2911 C2909 1.387 . S
C2911 C2913 1.390 . S
C2911 H2915 0.950 . S
H2912 C2908 0.950 . S
C2913 C2911 1.390 . S
C2913 C2914 1.387 . S
C2913 H2916 0.950 . S
C2914 C2913 1.387 . S
C2914 C2917 1.387 . S
H2915 C2911 0.950 . S
H2916 C2913 0.950 . S
C2917 C2908 1.390 . S
C2917 H2910 0.950 . S
C2917 C2914 1.387 . S
C2918 C2919 1.387 . S
C2918 H2922 0.950 . S
C2918 C2927 1.390 . S
C2919 C2918 1.387 . S
C2919 C2921 1.387 . S
H2920 C2927 0.950 . S
C2921 C2919 1.387 . S
C2921 C2923 1.390 . S
C2921 H2925 0.950 . S
H2922 C2918 0.950 . S
C2923 C2921 1.390 . S
C2923 C2924 1.387 . S
C2923 H2926 0.950 . S
C2924 C2923 1.387 . S
C2924 C2927 1.387 . S
H2925 C2921 0.950 . S
H2926 C2923 0.950 . S
C2927 C2918 1.390 . S
C2927 H2920 0.950 . S
C2927 C2924 1.387 . S
C2928 C2929 1.387 . S
C2928 H2932 0.950 . S
C2928 C2937 1.390 . S
C2929 C2928 1.387 . S
C2929 C2931 1.387 . S
H2930 C2937 0.950 . S
C2931 C2929 1.387 . S
C2931 C2933 1.390 . S
C2931 H2935 0.950 . S
H2932 C2928 0.950 . S
C2933 C2931 1.390 . S
C2933 C2934 1.387 . S
C2933 H2936 0.950 . S
C2934 C2933 1.387 . S
C2934 C2937 1.387 . S
H2935 C2931 0.950 . S
H2936 C2933 0.950 . S
C2937 C2928 1.390 . S
C2937 H2930 0.950 . S
C2937 C2934 1.387 . S
C2938 C2939 1.387 . S
C2938 H2942 0.950 . S
C2938 C2947 1.390 . S
C2939 C2938 1.387 . S
C2939 C2941 1.387 . S
H2940 C2947 0.950 . S
C2941 C2939 1.387 . S
C2941 C2943 1.390 . S
C2941 H2945 0.950 . S
H2942 C2938 0.950 . S
C2943 C2941 1.390 . S
C2943 C2944 1.387 . S
C2943 H2946 0.950 . S
C2944 C2943 1.387 . S
C2944 C2947 1.387 . S
H2945 C2941 0.950 . S
H2946 C2943 0.950 . S
C2947 C2938 1.390 . S
C2947 H2940 0.950 . S
C2947 C2944 1.387 . S
C2948 C2949 1.387 . S
C2948 H2952 0.950 . S
C2948 C2957 1.390 . S
C2949 C2948 1.387 . S
C2949 C2951 1.387 . S
H2950 C2957 0.950 . S
C2951 C2949 1.387 . S
C2951 C2953 1.390 . S
C2951 H2955 0.950 . S
H2952 C2948 0.950 . S
C2953 C2951 1.390 . S
C2953 C2954 1.387 . S
C2953 H2956 0.950 . S
C2954 C2953 1.387 . S
C2954 C2957 1.387 . S
H2955 C2951 0.950 . S
H2956 C2953 0.950 . S
C2957 C2948 1.390 . S
C2957 H2950 0.950 . S
C2957 C2954 1.387 . S
C2958 C2959 1.387 . S
C2958 H2962 0.950 . S
C2958 C2967 1.390 . S
C2959 C2958 1.387 . S
C2959 C2961 1.387 . S
H2960 C2967 0.950 . S
C2961 C2959 1.387 . S
C2961 C2963 1.390 . S
C2961 H2965 0.950 . S
H2962 C2958 0.950 . S
C2963 C2961 1.390 . S
C2963 C2964 1.387 . S
C2963 H2966 0.950 . S
C2964 C2963 1.387 . S
C2964 C2967 1.387 . S
H2965 C2961 0.950 . S
H2966 C2963 0.950 . S
C2967 C2958 1.390 . S
C2967 H2960 0.950 . S
C2967 C2964 1.387 . S
C2968 C2969 1.387 . S
C2968 H2972 0.950 . S
C2968 C2977 1.390 . S
C2969 C2968 1.387 . S
C2969 C2971 1.387 . S
H2970 C2977 0.950 . S
C2971 C2969 1.387 . S
C2971 C2973 1.390 . S
C2971 H2975 0.950 . S
H2972 C2968 0.950 . S
C2973 C2971 1.390 . S
C2973 C2974 1.387 . S
C2973 H2976 0.950 . S
C2974 C2973 1.387 . S
C2974 C2977 1.387 . S
H2975 C2971 0.950 . S
H2976 C2973 0.950 . S
C2977 C2968 1.390 . S
C2977 H2970 0.950 . S
C2977 C2974 1.387 . S
C2978 C2979 1.387 . S
C2978 H2982 0.950 . S
C2978 C2987 1.390 . S
C2979 C2978 1.387 . S
C2979 C2981 1.387 . S
H2980 C2987 0.950 . S
C2981 C2979 1.387 . S
C2981 C2983 1.390 . S
C2981 H2985 0.950 . S
H2982 C2978 0.950 . S
C2983 C2981 1.390 . S
C2983 C2984 1.387 . S
C2983 H2986 0.950 . S
C2984 C2983 1.387 . S
C2984 C2987 1.387 . S
H2985 C2981 0.950 . S
H2986 C2983 0.950 . S
C2987 C2978 1.390 . S
C2987 H2980 0.950 . S
C2987 C2984 1.387 . S
C2988 C2989 1.387 . S
C2988 H2992 0.950 . S
C2988 C2997 1.390 . S
C2989 C2988 1.387 . S
C2989 C2991 1.387 . S
H2990 C2997 0.950 . S
C2991 C2989 1.387 . S
C2991 C2993 1.390 . S
C2991 H2995 0.950 . S
H2992 C2988 0.950 . S
C2993 C2991 1.390 . S
C2993 C2994 1.387 . S
C2993 H2996 0.950 . S
C2994 C2993 1.387 . S
C2994 C2997 1.387 . S
H2995 C2991 0.950 . S
H2996 C2993 0.950 . S
C2997 C2988 1.390 . S
C2997 H2990 0.950 . S
C2997 C2994 1.387 . S
C2998 C2999 1.387 . S
C2998 H3002 0.950 . S
C2998 C3007 1.390 . S
C2999 C2998 1.387 . S
C2999 C3001 1.387 . S
H3000 C3007 0.950 . S
C3001 C2999 1.387 . S
C3001 C3003 1.390 . S
C3001 H3005 0.950 . S
H3002 C2998 0.950 . S
C3003 C3001 1.390 . S
C3003 C3004 1.387 . S
C3003 H3006 0.950 . S
C3004 C3003 1.387 . S
C3004 C3007 1.387 . S
H3005 C3001 0.950 . S
H3006 C3003 0.950 . S
C3007 C2998 1.390 . S
C3007 H3000 0.950 . S
C3007 C3004 1.387 . S
C3008 C3009 1.387 . S
C3008 H3012 0.950 . S
C3008 C3017 1.390 . S
C3009 C3008 1.387 . S
C3009 C3011 1.387 . S
H3010 C3017 0.950 . S
C3011 C3009 1.387 . S
C3011 C3013 1.390 . S
C3011 H3015 0.950 . S
H3012 C3008 0.950 . S
C3013 C3011 1.390 . S
C3013 C3014 1.387 . S
C3013 H3016 0.950 . S
C3014 C3013 1.387 . S
C3014 C3017 1.387 . S
H3015 C3011 0.950 . S
H3016 C3013 0.950 . S
C3017 C3008 1.390 . S
C3017 H3010 0.950 . S
C3017 C3014 1.387 . S
C3018 C3019 1.387 . S
C3018 H3022 0.950 . S
C3018 C3027 1.390 . S
C3019 C3018 1.387 . S
C3019 C3021 1.387 . S
H3020 C3027 0.950 . S
C3021 C3019 1.387 . S
C3021 C3023 1.390 . S
C3021 H3025 0.950 . S
H3022 C3018 0.950 . S
C3023 C3021 1.390 . S
C3023 C3024 1.387 . S
C3023 H3026 0.950 . S
C3024 C3023 1.387 . S
C3024 C3027 1.387 . S
H3025 C3021 0.950 . S
H3026 C3023 0.950 . S
C3027 C3018 1.390 . S
C3027 H3020 0.950 . S
C3027 C3024 1.387 . S
C3028 C3029 1.387 . S
C3028 H3032 0.950 . S
C3028 C3037 1.390 . S
C3029 C3028 1.387 . S
C3029 C3031 1.387 . S
H3030 C3037 0.950 . S
C3031 C3029 1.387 . S
C3031 C3033 1.390 . S
C3031 H3035 0.950 . S
H3032 C3028 0.950 . S
C3033 C3031 1.390 . S
C3033 C3034 1.387 . S
C3033 H3036 0.950 . S
C3034 C3033 1.387 . S
C3034 C3037 1.387 . S
H3035 C3031 0.950 . S
H3036 C3033 0.950 . S
C3037 C3028 1.390 . S
C3037 H3030 0.950 . S
C3037 C3034 1.387 . S
C3038 C3039 1.387 . S
C3038 H3042 0.950 . S
C3038 C3047 1.390 . S
C3039 C3038 1.387 . S
C3039 C3041 1.387 . S
H3040 C3047 0.950 . S
C3041 C3039 1.387 . S
C3041 C3043 1.390 . S
C3041 H3045 0.950 . S
H3042 C3038 0.950 . S
C3043 C3041 1.390 . S
C3043 C3044 1.387 . S
C3043 H3046 0.950 . S
C3044 C3043 1.387 . S
C3044 C3047 1.387 . S
H3045 C3041 0.950 . S
H3046 C3043 0.950 . S
C3047 C3038 1.390 . S
C3047 H3040 0.950 . S
C3047 C3044 1.387 . S
C3048 C3049 1.387 . S
C3048 H3052 0.950 . S
C3048 C3057 1.390 . S
C3049 C3048 1.387 . S
C3049 C3051 1.387 . S
H3050 C3057 0.950 . S
C3051 C3049 1.387 . S
C3051 C3053 1.390 . S
C3051 H3055 0.950 . S
H3052 C3048 0.950 . S
C3053 C3051 1.390 . S
C3053 C3054 1.387 . S
C3053 H3056 0.950 . S
C3054 C3053 1.387 . S
C3054 C3057 1.387 . S
H3055 C3051 0.950 . S
H3056 C3053 0.950 . S
C3057 C3048 1.390 . S
C3057 H3050 0.950 . S
C3057 C3054 1.387 . S
C3058 C3059 1.387 . S
C3058 H3062 0.950 . S
C3058 C3067 1.390 . S
C3059 C3058 1.387 . S
C3059 C3061 1.387 . S
H3060 C3067 0.950 . S
C3061 C3059 1.387 . S
C3061 C3063 1.390 . S
C3061 H3065 0.950 . S
H3062 C3058 0.950 . S
C3063 C3061 1.390 . S
C3063 C3064 1.387 . S
C3063 H3066 0.950 . S
C3064 C3063 1.387 . S
C3064 C3067 1.387 . S
H3065 C3061 0.950 . S
H3066 C3063 0.950 . S
C3067 C3058 1.390 . S
C3067 H3060 0.950 . S
C3067 C3064 1.387 . S
C3068 C3069 1.387 . S
C3068 H3072 0.950 . S
C3068 C3077 1.390 . S
C3069 C3068 1.387 . S
C3069 C3071 1.387 . S
H3070 C3077 0.950 . S
C3071 C3069 1.387 . S
C3071 C3073 1.390 . S
C3071 H3075 0.950 . S
H3072 C3068 0.950 . S
C3073 C3071 1.390 . S
C3073 C3074 1.387 . S
C3073 H3076 0.950 . S
C3074 C3073 1.387 . S
C3074 C3077 1.387 . S
H3075 C3071 0.950 . S
H3076 C3073 0.950 . S
C3077 C3068 1.390 . S
C3077 H3070 0.950 . S
C3077 C3074 1.387 . S
C3078 C3079 1.387 . S
C3078 H3082 0.950 . S
C3078 C3087 1.390 . S
C3079 C3078 1.387 . S
C3079 C3081 1.387 . S
H3080 C3087 0.950 . S
C3081 C3079 1.387 . S
C3081 C3083 1.390 . S
C3081 H3085 0.950 . S
H3082 C3078 0.950 . S
C3083 C3081 1.390 . S
C3083 C3084 1.387 . S
C3083 H3086 0.950 . S
C3084 C3083 1.387 . S
C3084 C3087 1.387 . S
H3085 C3081 0.950 . S
H3086 C3083 0.950 . S
C3087 C3078 1.390 . S
C3087 H3080 0.950 . S
C3087 C3084 1.387 . S
C3088 C3089 1.387 . S
C3088 H3092 0.950 . S
C3088 C3097 1.390 . S
C3089 C3088 1.387 . S
C3089 C3091 1.387 . S
H3090 C3097 0.950 . S
C3091 C3089 1.387 . S
C3091 C3093 1.390 . S
C3091 H3095 0.950 . S
H3092 C3088 0.950 . S
C3093 C3091 1.390 . S
C3093 C3094 1.387 . S
C3093 H3096 0.950 . S
C3094 C3093 1.387 . S
C3094 C3097 1.387 . S
H3095 C3091 0.950 . S
H3096 C3093 0.950 . S
C3097 C3088 1.390 . S
C3097 H3090 0.950 . S
C3097 C3094 1.387 . S
C3098 C3099 1.387 . S
C3098 H3102 0.950 . S
C3098 C3107 1.390 . S
C3099 C3098 1.387 . S
C3099 C3101 1.387 . S
H3100 C3107 0.950 . S
C3101 C3099 1.387 . S
C3101 C3103 1.390 . S
C3101 H3105 0.950 . S
H3102 C3098 0.950 . S
C3103 C3101 1.390 . S
C3103 C3104 1.387 . S
C3103 H3106 0.950 . S
C3104 C3103 1.387 . S
C3104 C3107 1.387 . S
H3105 C3101 0.950 . S
H3106 C3103 0.950 . S
C3107 C3098 1.390 . S
C3107 H3100 0.950 . S
C3107 C3104 1.387 . S
C3108 C3109 1.387 . S
C3108 H3112 0.950 . S
C3108 C3117 1.390 . S
C3109 C3108 1.387 . S
C3109 C3111 1.387 . S
H3110 C3117 0.950 . S
C3111 C3109 1.387 . S
C3111 C3113 1.390 . S
C3111 H3115 0.950 . S
H3112 C3108 0.950 . S
C3113 C3111 1.390 . S
C3113 C3114 1.387 . S
C3113 H3116 0.950 . S
C3114 C3113 1.387 . S
C3114 C3117 1.387 . S
H3115 C3111 0.950 . S
H3116 C3113 0.950 . S
C3117 C3108 1.390 . S
C3117 H3110 0.950 . S
C3117 C3114 1.387 . S
C3118 C3119 1.387 . S
C3118 H3122 0.950 . S
C3118 C3127 1.390 . S
C3119 C3118 1.387 . S
C3119 C3121 1.387 . S
H3120 C3127 0.950 . S
C3121 C3119 1.387 . S
C3121 C3123 1.390 . S
C3121 H3125 0.950 . S
H3122 C3118 0.950 . S
C3123 C3121 1.390 . S
C3123 C3124 1.387 . S
C3123 H3126 0.950 . S
C3124 C3123 1.387 . S
C3124 C3127 1.387 . S
H3125 C3121 0.950 . S
H3126 C3123 0.950 . S
C3127 C3118 1.390 . S
C3127 H3120 0.950 . S
C3127 C3124 1.387 . S
C3128 C3129 1.387 . S
C3128 H3132 0.950 . S
C3128 C3137 1.390 . S
C3129 C3128 1.387 . S
C3129 C3131 1.387 . S
H3130 C3137 0.950 . S
C3131 C3129 1.387 . S
C3131 C3133 1.390 . S
C3131 H3135 0.950 . S
H3132 C3128 0.950 . S
C3133 C3131 1.390 . S
C3133 C3134 1.387 . S
C3133 H3136 0.950 . S
C3134 C3133 1.387 . S
C3134 C3137 1.387 . S
H3135 C3131 0.950 . S
H3136 C3133 0.950 . S
C3137 C3128 1.390 . S
C3137 H3130 0.950 . S
C3137 C3134 1.387 . S
C3138 C3139 1.387 . S
C3138 H3142 0.950 . S
C3138 C3147 1.390 . S
C3139 C3138 1.387 . S
C3139 C3141 1.387 . S
H3140 C3147 0.950 . S
C3141 C3139 1.387 . S
C3141 C3143 1.390 . S
C3141 H3145 0.950 . S
H3142 C3138 0.950 . S
C3143 C3141 1.390 . S
C3143 C3144 1.387 . S
C3143 H3146 0.950 . S
C3144 C3143 1.387 . S
C3144 C3147 1.387 . S
H3145 C3141 0.950 . S
H3146 C3143 0.950 . S
C3147 C3138 1.390 . S
C3147 H3140 0.950 . S
C3147 C3144 1.387 . S
C3148 C3149 1.387 . S
C3148 H3152 0.950 . S
C3148 C3157 1.390 . S
C3149 C3148 1.387 . S
C3149 C3151 1.387 . S
H3150 C3157 0.950 . S
C3151 C3149 1.387 . S
C3151 C3153 1.390 . S
C3151 H3155 0.950 . S
H3152 C3148 0.950 . S
C3153 C3151 1.390 . S
C3153 C3154 1.387 . S
C3153 H3156 0.950 . S
C3154 C3153 1.387 . S
C3154 C3157 1.387 . S
H3155 C3151 0.950 . S
H3156 C3153 0.950 . S
C3157 C3148 1.390 . S
C3157 H3150 0.950 . S
C3157 C3154 1.387 . S
C3158 C3159 1.387 . S
C3158 H3162 0.950 . S
C3158 C3167 1.390 . S
C3159 C3158 1.387 . S
C3159 C3161 1.387 . S
H3160 C3167 0.950 . S
C3161 C3159 1.387 . S
C3161 C3163 1.390 . S
C3161 H3165 0.950 . S
H3162 C3158 0.950 . S
C3163 C3161 1.390 . S
C3163 C3164 1.387 . S
C3163 H3166 0.950 . S
C3164 C3163 1.387 . S
C3164 C3167 1.387 . S
H3165 C3161 0.950 . S
H3166 C3163 0.950 . S
C3167 C3158 1.390 . S
C3167 H3160 0.950 . S
C3167 C3164 1.387 . S
C1249 C4 1.693 . S
C1254 C888 1.693 . S
C1259 C855 1.694 . S
C1264 C23 1.694 . S
C1269 C862 1.694 . S
C1274 C30 1.694 . S
C1279 C49 1.694 . S
C1284 C875 1.694 . S
C1289 C933 1.694 . S
C1294 C62 1.694 . S
C1299 C901 1.692 . S
C1304 C69 1.692 . S
C1309 C914 1.694 . S
C1314 C82 1.694 . S
C1319 C101 1.692 . S
C1324 C836 1.692 . S
C1329 C108 1.693 . S
C1334 C829 1.693 . S
C1339 C121 1.694 . S
C1344 C790 1.694 . S
C1349 C134 1.694 . S
C1354 C803 1.694 . S
C1359 C147 1.693 . S
C1364 C816 1.693 . S
C1369 C160 1.694 . S
C1374 C745 1.694 . S
C1379 C764 1.693 . S
C1384 C179 1.693 . S
C1389 C777 1.693 . S
C1394 C192 1.693 . S
C1399 C205 1.693 . S
C1404 C732 1.693 . S
C1409 C218 1.694 . S
C1414 C719 1.694 . S
C1419 C231 1.692 . S
C1424 C647 1.692 . S
C1429 C654 1.693 . S
C1434 C238 1.693 . S
C1439 C673 1.694 . S
C1444 C257 1.694 . S
C1449 C628 1.693 . S
C1454 C270 1.693 . S
C1459 C277 1.692 . S
C1464 C699 1.692 . S
C1469 C290 1.694 . S
C1474 C706 1.694 . S
C1479 C309 1.693 . S
C1484 C680 1.693 . S
C1489 C316 1.694 . S
C1494 C1200 1.694 . S
C1499 C335 1.694 . S
C1504 C1161 1.694 . S
C1509 C342 1.693 . S
C1514 C1174 1.693 . S
C1519 C361 1.694 . S
C1524 C1193 1.694 . S
C1529 C368 1.694 . S
C1534 C1239 1.694 . S
C1539 C381 1.694 . S
C1544 C1219 1.694 . S
C1549 C1232 1.694 . S
C1554 C400 1.693 . S
C1559 C407 1.694 . S
C1564 C1154 1.694 . S
C1569 C420 1.694 . S
C1574 C1141 1.694 . S
C1579 C1102 1.693 . S
C1584 C433 1.693 . S
C1589 C452 1.694 . S
C1594 C1109 1.694 . S
C1599 C459 1.692 . S
C1604 C1122 1.692 . S
C1609 C478 1.694 . S
C1614 C1063 1.694 . S
C1619 C485 1.694 . S
C1624 C1076 1.694 . S
C1629 C498 1.694 . S
C1634 C1083 1.694 . S
C1639 C1044 1.694 . S
C1644 C517 1.694 . S
C1649 C524 1.692 . S
C1654 C1037 1.692 . S
C1659 C543 1.694 . S
C1664 C953 1.693 . S
C1669 C550 1.693 . S
C1674 C966 1.693 . S
C1679 C985 1.694 . S
C1684 C563 1.694 . S
C1689 C582 1.693 . S
C1694 C946 1.693 . S
C1699 C1005 1.694 . S
C1704 C589 1.694 . S
C1709 C602 1.693 . S
C1714 C1024 1.693 . S
C1719 C615 1.692 . S
C1724 C992 1.692 . S
C1729 C3 1.454 . S
C1734 C512 1.454 . S
C1739 C18 1.454 . S
C1744 C473 1.454 . S
C1749 C484 1.454 . S
C1754 C29 1.454 . S
C1759 C44 1.454 . S
C1764 C497 1.454 . S
C1769 C432 1.454 . S
C1774 C57 1.454 . S
C1779 C447 1.454 . S
C1784 C68 1.454 . S
C1789 C458 1.454 . S
C1794 C81 1.454 . S
C1799 C419 1.454 . S
C1804 C96 1.454 . S
C1809 C406 1.454 . S
C1814 C107 1.454 . S
C1819 C120 1.454 . S
C1824 C367 1.454 . S
C1829 C380 1.454 . S
C1834 C133 1.454 . S
C1839 C146 1.454 . S
C1844 C395 1.454 . S
C1849 C330 1.454 . S
C1854 C159 1.454 . S
C1859 C341 1.454 . S
C1864 C174 1.454 . S
C1869 C187 1.454 . S
C1874 C356 1.454 . S
C1879 C200 1.454 . S
C1884 C315 1.454 . S
C1889 C213 1.454 . S
C1894 C577 1.454 . S
C1899 C226 1.454 . S
C1904 C614 1.454 . S
C1909 C588 1.454 . S
C1914 C237 1.454 . S
C1919 C601 1.454 . S
C1924 C252 1.454 . S
C1929 C265 1.454 . S
C1934 C523 1.454 . S
C1939 C276 1.454 . S
C1944 C549 1.454 . S
C1949 C562 1.454 . S
C1954 C289 1.454 . S
C1959 C304 1.454 . S
C1964 C538 1.454 . S
C1969 C1136 1.454 . S
C1974 C627 1.454 . S
C1979 C1097 1.454 . S
C1984 C642 1.454 . S
C1989 C1108 1.454 . S
C1994 C653 1.454 . S
C1999 C668 1.454 . S
C2004 C1121 1.454 . S
C2009 C1058 1.454 . S
C2014 C679 1.454 . S
C2019 C1071 1.454 . S
C2024 C694 1.454 . S
C2029 C705 1.454 . S
C2034 C1082 1.454 . S
C2039 C718 1.454 . S
C2044 C1043 1.454 . S
C2049 C1032 1.454 . S
C2054 C731 1.454 . S
C2059 C744 1.454 . S
C2064 C991 1.454 . S
C2069 C1004 1.454 . S
C2074 C759 1.454 . S
C2079 C1019 1.454 . S
C2084 C772 1.454 . S
C2089 C785 1.454 . S
C2094 C952 1.454 . S
C2099 C798 1.454 . S
C2104 C965 1.454 . S
C2109 C980 1.454 . S
C2114 C811 1.454 . S
C2119 C824 1.454 . S
C2124 C941 1.454 . S
C2129 C1199 1.454 . S
C2134 C835 1.454 . S
C2139 C1238 1.454 . S
C2144 C850 1.454 . S
C2149 C861 1.454 . S
C2154 C1214 1.454 . S
C2159 C1227 1.454 . S
C2164 C874 1.454 . S
C2169 C1149 1.454 . S
C2174 C887 1.454 . S
C2179 C1173 1.454 . S
C2184 C900 1.454 . S
C2189 C913 1.454 . S
C2194 C1188 1.454 . S
C2199 C1160 1.454 . S
C2204 C928 1.454 . S
C2209 C5 1.325 . S
C2214 C369 1.327 . S
C2219 C382 1.327 . S
C2224 C16 1.325 . S
C2229 C31 1.325 . S
C2234 C393 1.327 . S
C2239 C408 1.325 . S
C2244 C42 1.327 . S
C2249 C55 1.326 . S
C2254 C317 1.326 . S
C2259 C70 1.327 . S
C2264 C328 1.325 . S
C2269 C83 1.327 . S
C2274 C343 1.325 . S
C2279 C354 1.325 . S
C2284 C94 1.326 . S
C2289 C499 1.326 . S
C2294 C109 1.325 . S
C2299 C122 1.326 . S
C2304 C510 1.326 . S
C2309 C135 1.326 . S
C2314 C471 1.326 . S
C2319 C148 1.326 . S
C2324 C486 1.326 . S
C2329 C161 1.326 . S
C2334 C445 1.326 . S
C2339 C172 1.325 . S
C2344 C460 1.326 . S
C2349 C185 1.326 . S
C2354 C421 1.326 . S
C2359 C198 1.326 . S
C2364 C434 1.326 . S
C2369 C211 1.325 . S
C2374 C590 1.327 . S
C2379 C224 1.325 . S
C2384 C564 1.327 . S
C2389 C575 1.326 . S
C2394 C239 1.326 . S
C2399 C250 1.327 . S
C2404 C536 1.325 . S
C2409 C551 1.325 . S
C2414 C263 1.327 . S
C2419 C278 1.325 . S
C2424 C525 1.327 . S
C2429 C291 1.325 . S
C2434 C616 1.326 . S
C2439 C603 1.326 . S
C2444 C302 1.326 . S
C2449 C993 1.327 . S
C2454 C629 1.325 . S
C2459 C640 1.325 . S
C2464 C1006 1.326 . S
C2469 C1017 1.327 . S
C2474 C655 1.325 . S
C2479 C666 1.325 . S
C2484 C1030 1.327 . S
C2489 C939 1.325 . S
C2494 C681 1.326 . S
C2499 C954 1.326 . S
C2504 C692 1.326 . S
C2509 C967 1.325 . S
C2514 C707 1.327 . S
C2519 C720 1.326 . S
C2524 C978 1.326 . S
C2529 C733 1.326 . S
C2534 C1123 1.326 . S
C2539 C1134 1.326 . S
C2544 C746 1.326 . S
C2549 C1095 1.326 . S
C2554 C757 1.326 . S
C2559 C1110 1.326 . S
C2564 C770 1.326 . S
C2569 C783 1.326 . S
C2574 C1069 1.326 . S
C2579 C796 1.326 . S
C2584 C1084 1.326 . S
C2589 C1045 1.325 . S
C2594 C809 1.327 . S
C2599 C1056 1.325 . S
C2604 C822 1.326 . S
C2609 C1212 1.325 . S
C2614 C837 1.327 . S
C2619 C848 1.325 . S
C2624 C1186 1.327 . S
C2629 C1201 1.326 . S
C2634 C863 1.326 . S
C2639 C876 1.327 . S
C2644 C1162 1.325 . S
C2649 C889 1.326 . S
C2654 C1175 1.326 . S
C2659 C902 1.326 . S
C2664 C1147 1.326 . S
C2669 C1240 1.325 . S
C2674 C915 1.327 . S
C2679 C926 1.326 . S
C2684 C1225 1.326 . S
C2689 C413 1.664 . S
C2694 C10 1.662 . S
C2699 C374 1.662 . S
C2704 C17 1.664 . S
C2709 C36 1.664 . S
C2714 C387 1.662 . S
C2719 C394 1.664 . S
C2724 C43 1.662 . S
C2729 C329 1.662 . S
C2734 C56 1.664 . S
C2739 C75 1.664 . S
C2744 C348 1.662 . S
C2749 C88 1.662 . S
C2754 C355 1.664 . S
C2759 C322 1.664 . S
C2764 C95 1.662 . S
C2769 C576 1.662 . S
C2774 C114 1.664 . S
C2779 C127 1.662 . S
C2784 C537 1.664 . S
C2789 C140 1.662 . S
C2794 C556 1.664 . S
C2799 C569 1.664 . S
C2804 C153 1.662 . S
C2809 C166 1.662 . S
C2814 C621 1.664 . S
C2819 C595 1.664 . S
C2824 C173 1.662 . S
C2829 C608 1.664 . S
C2834 C186 1.662 . S
C2839 C199 1.664 . S
C2844 C530 1.662 . S
C2849 C212 1.664 . S
C2854 C511 1.662 . S
C2859 C225 1.662 . S
C2864 C439 1.664 . S
C2869 C244 1.662 . S
C2874 C446 1.664 . S
C2879 C465 1.662 . S
C2884 C251 1.664 . S
C2889 C426 1.664 . S
C2894 C264 1.662 . S
C2899 C283 1.662 . S
C2904 C491 1.664 . S
C2909 C296 1.664 . S
C2914 C504 1.662 . S
C2919 C303 1.662 . S
C2924 C472 1.664 . S
C2929 C634 1.664 . S
C2934 C1031 1.662 . S
C2939 C641 1.664 . S
C2944 C998 1.662 . S
C2949 C660 1.664 . S
C2954 C1011 1.662 . S
C2959 C1018 1.662 . S
C2964 C667 1.664 . S
C2969 C959 1.664 . S
C2974 C686 1.662 . S
C2979 C972 1.664 . S
C2984 C693 1.662 . S
C2989 C712 1.662 . S
C2994 C979 1.664 . S
C2999 C940 1.664 . S
C3004 C725 1.662 . S
C3009 C1206 1.664 . S
C3014 C738 1.662 . S
C3019 C1167 1.662 . S
C3024 C751 1.664 . S
C3029 C1180 1.664 . S
C3034 C758 1.662 . S
C3039 C1187 1.664 . S
C3044 C771 1.662 . S
C3049 C1245 1.664 . S
C3054 C784 1.662 . S
C3059 C1213 1.662 . S
C3064 C797 1.664 . S
C3069 C1226 1.664 . S
C3074 C810 1.662 . S
C3079 C1148 1.664 . S
C3084 C823 1.662 . S
C3089 C842 1.662 . S
C3094 C1135 1.664 . S
C3099 C1057 1.662 . S
C3104 C849 1.664 . S
C3109 C1070 1.662 . S
C3114 C868 1.664 . S
C3119 C1089 1.662 . S
C3124 C881 1.664 . S
C3129 C1050 1.662 . S
C3134 C894 1.664 . S
C3139 C1115 1.664 . S
C3144 C907 1.662 . S
C3149 C1128 1.664 . S
C3154 C920 1.662 . S
C3159 C1096 1.664 . S
C3164 C927 1.662 . S
