# Generated by pormake.
# Topology uog, (4)-cn, num edge types: 1
# Building blocks:
#     Node 0, Type 0, BuildingBlock: MUDLON_clean_sbu_0, # of connection points: 4
#     Node 1, Type 0, BuildingBlock: MUDLON_clean_sbu_0, # of connection points: 4
#     Node 2, Type 0, BuildingBlock: MUDLON_clean_sbu_0, # of connection points: 4
#     Node 3, Type 0, BuildingBlock: MUDLON_clean_sbu_0, # of connection points: 4
#     Node 4, Type 0, BuildingBlock: MUDLON_clean_sbu_0, # of connection points: 4
#     Node 5, Type 0, BuildingBlock: MUDLON_clean_sbu_0, # of connection points: 4
#     Edge 6, Type (0, 0), BuildingBlock: UVAHIK_clean_linker_0, # of connection points: 2
#     Edge 7, Type (0, 0), BuildingBlock: UVAHIK_clean_linker_0, # of connection points: 2
#     Edge 8, Type (0, 0), BuildingBlock: UVAHIK_clean_linker_0, # of connection points: 2
#     Edge 9, Type (0, 0), BuildingBlock: UVAHIK_clean_linker_0, # of connection points: 2
#     Edge 10, Type (0, 0), BuildingBlock: UVAHIK_clean_linker_0, # of connection points: 2
#     Edge 11, Type (0, 0), BuildingBlock: UVAHIK_clean_linker_0, # of connection points: 2
#     Edge 12, Type (0, 0), BuildingBlock: UVAHIK_clean_linker_0, # of connection points: 2
#     Edge 13, Type (0, 0), BuildingBlock: UVAHIK_clean_linker_0, # of connection points: 2
#     Edge 14, Type (0, 0), BuildingBlock: UVAHIK_clean_linker_0, # of connection points: 2
#     Edge 15, Type (0, 0), BuildingBlock: UVAHIK_clean_linker_0, # of connection points: 2
#     Edge 16, Type (0, 0), BuildingBlock: UVAHIK_clean_linker_0, # of connection points: 2
#     Edge 17, Type (0, 0), BuildingBlock: UVAHIK_clean_linker_0, # of connection points: 2
# Relax obj value: 0.035
# Max RMSD: 0.253
# Mean RMSD: 0.253
data_MOF--net-uog--node1-MUDLON_clean_sbu_0--edge1-UVAHIK_clean_linker_0
_symmetry_space_group_name_H-M    P1
_symmetry_Int_Tables_number       1
_symmetry_cell_setting            triclinic
loop_
_symmetry_equiv_pos_as_xyz
'x, y, z'
_cell_length_a     38.384011
_cell_length_b     38.397641
_cell_length_c     57.550877
_cell_angle_alpha  90.398168
_cell_angle_beta   89.595174
_cell_angle_gamma 120.01391
loop_
_atom_site_label
_atom_site_type_symbol
_atom_site_fract_x
_atom_site_fract_y
_atom_site_fract_z
_atom_type_partial_charge
Mg0 Mg 0.59828 0.29558 0.18042 0.0
C1 C 0.64434 0.34658 0.13808 0.0
O2 O 0.63895 0.37421 0.14831 0.0
C3 C 0.61456 0.28546 0.2292 0.0
O4 O 0.57912 0.25374 0.22539 0.0
C5 C 0.58539 0.21454 0.17572 0.0
O6 O 0.62453 0.23845 0.17409 0.0
O7 O 0.56331 0.23032 0.17836 0.0
O8 O 0.63311 0.3134 0.14838 0.0
O9 O 0.56403 0.32671 0.1823 0.0
C10 C 0.58269 0.36144 0.19164 0.0
O11 O 0.61903 0.37423 0.19977 0.0
O12 O 0.63247 0.30965 0.21253 0.0
Mg13 Mg 0.29614 0.60358 0.52172 0.0
C14 C 0.28801 0.61977 0.47272 0.0
O15 O 0.25754 0.58336 0.47613 0.0
C16 C 0.34593 0.64895 0.5647 0.0
O17 O 0.37475 0.64597 0.5541 0.0
C18 C 0.36261 0.58836 0.51083 0.0
O19 O 0.37548 0.6246 0.50253 0.0
O20 O 0.32773 0.56974 0.52 0.0
O21 O 0.31077 0.63849 0.48981 0.0
O22 O 0.23078 0.56775 0.52291 0.0
C23 C 0.21401 0.58773 0.52917 0.0
O24 O 0.23697 0.62577 0.53486 0.0
O25 O 0.31257 0.6368 0.5544 0.0
Mg26 Mg 0.70242 0.29784 0.85057 0.0
C27 C 0.6998 0.29538 0.80073 0.0
O28 O 0.71841 0.2762 0.80726 0.0
C29 C 0.69977 0.34834 0.89128 0.0
O30 O 0.73242 0.37711 0.88145 0.0
C31 C 0.78463 0.36507 0.84276 0.0
O32 O 0.76171 0.3771 0.83291 0.0
O33 O 0.76793 0.3304 0.85207 0.0
O34 O 0.68726 0.31005 0.81639 0.0
O35 O 0.67325 0.23258 0.85208 0.0
C36 C 0.63646 0.2155 0.84607 0.0
O37 O 0.62154 0.23819 0.83972 0.0
O38 O 0.68019 0.31453 0.88103 0.0
Mg39 Mg 0.41849 0.70573 0.18506 0.0
C40 C 0.41051 0.68747 0.13589 0.0
O41 O 0.44801 0.69909 0.14121 0.0
C42 C 0.40606 0.71245 0.23405 0.0
O43 O 0.44443 0.73727 0.22993 0.0
C44 C 0.43052 0.78651 0.1839 0.0
O45 O 0.39143 0.76244 0.18565 0.0
O46 O 0.45301 0.77095 0.18309 0.0
O47 O 0.38701 0.68619 0.15201 0.0
O48 O 0.45232 0.67442 0.188 0.0
C49 C 0.43027 0.63665 0.18498 0.0
O50 O 0.39178 0.62204 0.18085 0.0
O51 O 0.38369 0.69246 0.21709 0.0
Mg52 Mg 0.70506 0.42154 0.51667 0.0
C53 C 0.70411 0.41108 0.46651 0.0
O54 O 0.7267 0.45001 0.46995 0.0
C55 C 0.70068 0.36621 0.556 0.0
O56 O 0.72858 0.36428 0.54367 0.0
C57 C 0.63766 0.43594 0.5213 0.0
O58 O 0.62241 0.39745 0.52564 0.0
O59 O 0.67507 0.45687 0.51672 0.0
O60 O 0.68868 0.38842 0.48408 0.0
O61 O 0.77065 0.45527 0.51781 0.0
C62 C 0.78793 0.43728 0.509 0.0
O63 O 0.76558 0.40176 0.49942 0.0
O64 O 0.68454 0.38558 0.54808 0.0
Mg65 Mg 0.29424 0.70591 0.85307 0.0
C66 C 0.34422 0.70465 0.81161 0.0
O67 O 0.37268 0.73775 0.82122 0.0
C68 C 0.33151 0.67788 0.89197 0.0
O69 O 0.35589 0.67753 0.87596 0.0
C70 C 0.21206 0.63985 0.85662 0.0
O71 O 0.23489 0.62452 0.86184 0.0
O72 O 0.22902 0.67708 0.85167 0.0
O73 O 0.31068 0.68455 0.82209 0.0
O74 O 0.32692 0.77152 0.85248 0.0
C75 C 0.36164 0.78836 0.86173 0.0
O76 O 0.37406 0.76558 0.87133 0.0
O77 O 0.30547 0.68755 0.88652 0.0
C78 C 0.52692 0.14386 0.17862 0.0
C79 C 0.56832 0.17037 0.17546 0.0
C80 C 0.51162 0.10222 0.17908 0.0
C81 C 0.53657 0.02373 0.16217 0.0
H82 H 0.45597 0.95953 0.20825 0.0
C83 C 0.48863 0.85723 0.18002 0.0
C84 C 0.44721 0.8306 0.18299 0.0
C85 C 0.50367 0.8988 0.17903 0.0
C86 C 0.47821 0.97697 0.19513 0.0
H87 H 0.62605 0.17385 0.17015 0.0
H88 H 0.59953 0.10171 0.1712 0.0
H89 H 0.48062 0.03155 0.20603 0.0
H90 H 0.38915 0.82681 0.18731 0.0
H91 H 0.41529 0.89886 0.18546 0.0
H92 H 0.53424 0.96913 0.15135 0.0
C93 C 0.57872 0.11287 0.17301 0.0
C94 C 0.49226 0.01825 0.19382 0.0
C95 C 0.59396 0.15434 0.17256 0.0
C96 C 0.42126 0.84641 0.18504 0.0
C97 C 0.43625 0.88782 0.18413 0.0
C98 C 0.52256 0.98246 0.16351 0.0
C99 C 0.53741 0.08627 0.17635 0.0
C100 C 0.52164 0.04215 0.17734 0.0
C101 C 0.47761 0.91454 0.18111 0.0
C102 C 0.49319 0.95859 0.17999 0.0
H103 H 0.50638 0.15526 0.18089 0.0
H104 H 0.47956 0.08252 0.18144 0.0
H105 H 0.5588 0.04114 0.14905 0.0
H106 H 0.50941 0.846 0.17842 0.0
H107 H 0.53576 0.91865 0.17691 0.0
C108 C 0.37765 0.53339 0.52045 0.0
C109 C 0.38983 0.57139 0.51092 0.0
C110 C 0.40448 0.51872 0.52142 0.0
C111 C 0.50066 0.53383 0.49639 0.0
H112 H 0.50239 0.47788 0.55179 0.0
C113 C 0.62455 0.4927 0.51306 0.0
C114 C 0.61098 0.45351 0.52116 0.0
C115 C 0.59823 0.50801 0.51212 0.0
C116 C 0.50209 0.49322 0.53613 0.0
H117 H 0.43968 0.62359 0.4947 0.0
H118 H 0.48633 0.59839 0.49669 0.0
H119 H 0.45422 0.50145 0.54895 0.0
H120 H 0.55931 0.39995 0.53498 0.0
H121 H 0.51376 0.42658 0.53333 0.0
H122 H 0.54874 0.52575 0.48366 0.0
C123 C 0.45596 0.57954 0.50312 0.0
C124 C 0.47436 0.50658 0.53445 0.0
C125 C 0.42919 0.59411 0.5021 0.0
C126 C 0.57081 0.43027 0.52863 0.0
C127 C 0.54469 0.44561 0.52783 0.0
C128 C 0.52851 0.52061 0.49811 0.0
C129 C 0.44408 0.54177 0.5129 0.0
C130 C 0.47321 0.52699 0.51454 0.0
C131 C 0.55795 0.48454 0.51944 0.0
C132 C 0.52945 0.50002 0.51797 0.0
H133 H 0.34752 0.51509 0.52735 0.0
H134 H 0.39413 0.48924 0.52877 0.0
H135 H 0.50027 0.54893 0.48065 0.0
H136 H 0.65531 0.51135 0.50718 0.0
H137 H 0.60944 0.53828 0.50576 0.0
C138 C 0.8455 0.43182 0.8349 0.0
C139 C 0.82869 0.39271 0.84392 0.0
C140 C 0.88675 0.45878 0.83646 0.0
C141 C 0.97753 0.47854 0.86911 0.0
H142 H 0.03369 0.55042 0.81782 0.0
C143 C 0.15041 0.57365 0.86413 0.0
C144 C 0.16776 0.61347 0.85617 0.0
C145 C 0.10889 0.54778 0.86319 0.0
C146 C 0.01833 0.53091 0.8324 0.0
H147 H 0.84224 0.35112 0.86145 0.0
H148 H 0.91462 0.39809 0.86384 0.0
H149 H 0.96201 0.50203 0.81455 0.0
H150 H 0.15495 0.65747 0.84117 0.0
H151 H 0.08203 0.61202 0.83949 0.0
H152 H 0.03404 0.50717 0.88683 0.0
C153 C 0.89566 0.40808 0.85588 0.0
C154 C 0.97723 0.50311 0.83054 0.0
C155 C 0.85423 0.38105 0.85438 0.0
C156 C 0.14251 0.62697 0.84742 0.0
C157 C 0.10081 0.60089 0.84634 0.0
C158 C 0.01865 0.50622 0.87093 0.0
C159 C 0.9124 0.44734 0.847 0.0
C160 C 0.9563 0.47654 0.84887 0.0
C161 C 0.08359 0.56096 0.85417 0.0
C162 C 0.03955 0.53267 0.85258 0.0
H163 H 0.82674 0.44193 0.82683 0.0
H164 H 0.89841 0.4889 0.82977 0.0
H165 H 0.96226 0.45908 0.88373 0.0
H166 H 0.16893 0.5622 0.87098 0.0
H167 H 0.09669 0.5171 0.86908 0.0
C168 C 0.14466 0.53204 0.5187 0.0
C169 C 0.16973 0.56993 0.52878 0.0
C170 C 0.10313 0.51695 0.51708 0.0
C171 C 0.01995 0.52882 0.5413 0.0
H172 H 0.9675 0.48118 0.48289 0.0
C173 C 0.85678 0.491 0.5219 0.0
C174 C 0.83203 0.45426 0.51054 0.0
C175 C 0.89815 0.50556 0.52407 0.0
C176 C 0.98155 0.49401 0.49941 0.0
H177 H 0.17071 0.62122 0.54557 0.0
H178 H 0.09866 0.595 0.54271 0.0
H179 H 0.03873 0.50366 0.48761 0.0
H180 H 0.83149 0.40423 0.49238 0.0
H181 H 0.90304 0.42925 0.49641 0.0
H182 H 0.96275 0.51906 0.55314 0.0
C183 C 0.1109 0.57679 0.53617 0.0
C184 C 0.02239 0.50682 0.50212 0.0
C185 C 0.1523 0.59192 0.53768 0.0
C186 C 0.84962 0.43272 0.50118 0.0
C187 C 0.89081 0.44719 0.50337 0.0
C188 C 0.97906 0.5159 0.53862 0.0
C189 C 0.08585 0.53934 0.52564 0.0
C190 C 0.04208 0.52443 0.52308 0.0
C191 C 0.91561 0.48369 0.51492 0.0
C192 C 0.95935 0.49833 0.51763 0.0
H193 H 0.15717 0.51437 0.51168 0.0
H194 H 0.08454 0.48777 0.5091 0.0
H195 H 0.03413 0.54185 0.55776 0.0
H196 H 0.84418 0.50834 0.52927 0.0
H197 H 0.91649 0.53405 0.53282 0.0
C198 C 0.3775 0.85772 0.84969 0.0
C199 C 0.38904 0.83247 0.86063 0.0
C200 C 0.40444 0.89914 0.84806 0.0
C201 C 0.49863 0.98145 0.87368 0.0
H202 H 0.50456 0.03666 0.81638 0.0
C203 C 0.62308 0.1462 0.85637 0.0
C204 C 0.61006 0.17122 0.84668 0.0
C205 C 0.59692 0.10456 0.85767 0.0
C206 C 0.50307 0.02174 0.83256 0.0
H207 H 0.43792 0.83106 0.87854 0.0
H208 H 0.48473 0.90274 0.87543 0.0
H209 H 0.45632 0.965 0.81991 0.0
H210 H 0.55959 0.17199 0.83041 0.0
H211 H 0.51431 0.09985 0.83273 0.0
H212 H 0.5455 0.03823 0.88628 0.0
C213 C 0.45476 0.89084 0.86841 0.0
C214 C 0.4753 0.98068 0.83462 0.0
C215 C 0.4279 0.84959 0.87007 0.0
C216 C 0.57066 0.15366 0.838 0.0
C217 C 0.5447 0.11219 0.83918 0.0
C218 C 0.52648 0.02249 0.87159 0.0
C219 C 0.44349 0.91617 0.85732 0.0
C220 C 0.47266 0.96002 0.85522 0.0
C221 C 0.55737 0.08713 0.84915 0.0
C222 C 0.52893 0.04314 0.85104 0.0
H223 H 0.34777 0.84549 0.84227 0.0
H224 H 0.39459 0.91786 0.83966 0.0
H225 H 0.49704 0.96666 0.88993 0.0
H226 H 0.65325 0.1588 0.86319 0.0
H227 H 0.6077 0.08597 0.86525 0.0
C228 C 0.42244 0.56855 0.17955 0.0
C229 C 0.44685 0.60918 0.1858 0.0
C230 C 0.43722 0.54198 0.18045 0.0
C231 C 0.53169 0.53827 0.18208 0.0
H232 H 0.46089 0.42914 0.20323 0.0
C233 C 0.58883 0.42809 0.20046 0.0
C234 C 0.56562 0.38855 0.19201 0.0
C235 C 0.57405 0.4547 0.19998 0.0
C236 C 0.48088 0.45939 0.19708 0.0
H237 H 0.50609 0.65383 0.19785 0.0
H238 H 0.53185 0.60715 0.19984 0.0
H239 H 0.43644 0.47675 0.20226 0.0
H240 H 0.5083 0.34577 0.17676 0.0
H241 H 0.4823 0.3924 0.17601 0.0
H242 H 0.57625 0.52088 0.17715 0.0
C243 C 0.50136 0.59599 0.1939 0.0
C244 C 0.4669 0.48671 0.19649 0.0
C245 C 0.48657 0.62273 0.19287 0.0
C246 C 0.52691 0.37601 0.18341 0.0
C247 C 0.51199 0.40266 0.18306 0.0
C248 C 0.54574 0.51099 0.1828 0.0
C249 C 0.47677 0.55523 0.18776 0.0
C250 C 0.49207 0.52647 0.1889 0.0
C251 C 0.53559 0.44241 0.19115 0.0
C252 C 0.52047 0.47123 0.19027 0.0
H253 H 0.39177 0.55713 0.17382 0.0
H254 H 0.41768 0.51106 0.17513 0.0
H255 H 0.5517 0.56839 0.17578 0.0
H256 H 0.61875 0.43878 0.20727 0.0
H257 H 0.59272 0.48492 0.20665 0.0
C258 C 0.71021 0.3898 0.92725 0.0
C259 C 0.69061 0.35227 0.91588 0.0
C260 C 0.70604 0.39243 0.9513 0.0
C261 C 0.69134 0.33446 1.00328 0.0
H262 H 0.65919 0.40405 0.03413 0.0
C263 C 0.65074 0.31742 0.10039 0.0
C264 C 0.65715 0.35119 0.11342 0.0
C265 C 0.65798 0.32038 0.07649 0.0
C266 C 0.66904 0.38502 0.02588 0.0
H267 H 0.64993 0.28831 0.92076 0.0
H268 H 0.6434 0.29297 0.96267 0.0
H269 H 0.66405 0.40442 0.99175 0.0
H270 H 0.67805 0.41504 0.11171 0.0
H271 H 0.69238 0.42066 0.07009 0.0
H272 H 0.69758 0.31569 0.03705 0.0
C273 C 0.66188 0.32027 0.95294 0.0
C274 C 0.67149 0.38508 1.00158 0.0
C275 C 0.66545 0.3177 0.92892 0.0
C276 C 0.6726 0.3884 0.10213 0.0
C277 C 0.68044 0.39151 0.07821 0.0
C278 C 0.68963 0.3349 0.02751 0.0
C279 C 0.68277 0.3575 0.9644 0.0
C280 C 0.68195 0.35925 0.9901 0.0
C281 C 0.6725 0.35735 0.06496 0.0
C282 C 0.6777 0.3596 0.03918 0.0
H283 H 0.72975 0.41698 0.91769 0.0
H284 H 0.72241 0.42148 0.95979 0.0
H285 H 0.7002 0.31478 0.9948 0.0
H286 H 0.63852 0.28819 0.10847 0.0
H287 H 0.65074 0.29319 0.06696 0.0
C288 C 0.35157 0.67681 0.26412 0.0
C289 C 0.39066 0.70718 0.25821 0.0
C290 C 0.33882 0.67078 0.28739 0.0
C291 C 0.38048 0.68956 0.34681 0.0
H292 H 0.27279 0.66254 0.36584 0.0
C293 C 0.33455 0.67045 0.44351 0.0
C294 C 0.2975 0.6362 0.44883 0.0
C295 C 0.34485 0.68284 0.42042 0.0
C296 C 0.30293 0.66987 0.36077 0.0
H297 H 0.4464 0.75607 0.272 0.0
H298 H 0.42412 0.74589 0.31219 0.0
H299 H 0.2922 0.67596 0.32491 0.0
H300 H 0.24147 0.58925 0.43418 0.0
H301 H 0.25948 0.61065 0.39412 0.0
H302 H 0.39116 0.68297 0.38249 0.0
C303 C 0.40352 0.72614 0.29904 0.0
C304 C 0.31399 0.67746 0.33732 0.0
C305 C 0.41621 0.73209 0.27592 0.0
C306 C 0.27034 0.61569 0.4307 0.0
C307 C 0.28055 0.62813 0.40769 0.0
C308 C 0.36944 0.682 0.3702 0.0
C309 C 0.36495 0.69503 0.30515 0.0
C310 C 0.35289 0.6873 0.33006 0.0
C311 C 0.31824 0.66136 0.4022 0.0
C312 C 0.33049 0.67188 0.37748 0.0
H313 H 0.33118 0.65712 0.25088 0.0
H314 H 0.30897 0.64638 0.29154 0.0
H315 H 0.41046 0.69632 0.34178 0.0
H316 H 0.35611 0.68694 0.45708 0.0
H317 H 0.37391 0.70893 0.4168 0.0
C318 C 0.71155 0.28521 0.75923 0.0
C319 C 0.69513 0.30031 0.77565 0.0
C320 C 0.70879 0.29047 0.73553 0.0
C321 C 0.65283 0.31102 0.69145 0.0
H322 H 0.74968 0.34488 0.65483 0.0
C323 C 0.66903 0.36083 0.59507 0.0
C324 C 0.69262 0.35155 0.58027 0.0
C325 C 0.66592 0.35186 0.61877 0.0
C326 C 0.72216 0.33479 0.66469 0.0
H327 H 0.66211 0.33212 0.77998 0.0
H328 H 0.65724 0.34138 0.73821 0.0
H329 H 0.75108 0.33589 0.6965 0.0
H330 H 0.7294 0.32334 0.57852 0.0
H331 H 0.72324 0.30688 0.61969 0.0
H332 H 0.62387 0.30978 0.65949 0.0
C333 C 0.67219 0.32535 0.74388 0.0
C334 C 0.72304 0.32983 0.68861 0.0
C335 C 0.67513 0.32022 0.76775 0.0
C336 C 0.71129 0.33123 0.58946 0.0
C337 C 0.70801 0.32209 0.61312 0.0
C338 C 0.65189 0.31584 0.6674 0.0
C339 C 0.68945 0.31091 0.72755 0.0
C340 C 0.68836 0.31763 0.70226 0.0
C341 C 0.68618 0.33325 0.62818 0.0
C342 C 0.68652 0.32754 0.65371 0.0
H343 H 0.72696 0.2695 0.76464 0.0
H344 H 0.7218 0.27841 0.72339 0.0
H345 H 0.62556 0.30128 0.70151 0.0
H346 H 0.65423 0.3765 0.58856 0.0
H347 H 0.64905 0.3611 0.62985 0.0
C348 C 0.30844 0.66927 0.9334 0.0
C349 C 0.33604 0.67051 0.91673 0.0
C350 C 0.31409 0.66563 0.95701 0.0
C351 C 0.3943 0.68657 0.99865 0.0
H352 H 0.3058 0.62388 0.04098 0.0
C353 C 0.4228 0.67436 0.09504 0.0
C354 C 0.39754 0.67828 0.11136 0.0
C355 C 0.41312 0.6691 0.0715 0.0
C356 C 0.33076 0.6418 0.02941 0.0
H357 H 0.39049 0.66745 0.91181 0.0
H358 H 0.40027 0.66085 0.95313 0.0
H359 H 0.2931 0.62151 0.99927 0.0
H360 H 0.34149 0.67838 0.11582 0.0
H361 H 0.32468 0.66971 0.0744 0.0
H362 H 0.43188 0.70742 0.02864 0.0
C363 C 0.37449 0.66321 0.94787 0.0
C364 C 0.32352 0.64038 1.00551 0.0
C365 C 0.36877 0.66674 0.92419 0.0
C366 C 0.36153 0.67543 0.10366 0.0
C367 C 0.35188 0.67033 0.07995 0.0
C368 C 0.40151 0.68803 0.02248 0.0
C369 C 0.34751 0.66321 0.96458 0.0
C370 C 0.35522 0.66286 0.98986 0.0
C371 C 0.37801 0.66788 0.06356 0.0
C372 C 0.36986 0.66571 0.03818 0.0
H373 H 0.2828 0.67197 0.92828 0.0
H374 H 0.29296 0.66614 0.96939 0.0
H375 H 0.41926 0.70492 0.98716 0.0
H376 H 0.45053 0.67588 0.1004 0.0
H377 H 0.43344 0.66636 0.05946 0.0
C378 C 0.67177 0.35349 0.43813 0.0
C379 C 0.69766 0.39462 0.44259 0.0
C380 C 0.66552 0.33867 0.41533 0.0
C381 C 0.70919 0.36343 0.35595 0.0
H382 H 0.59961 0.29124 0.33627 0.0
C383 C 0.6615 0.33327 0.25932 0.0
C384 C 0.6305 0.29466 0.25316 0.0
C385 C 0.67269 0.34293 0.28261 0.0
C386 C 0.6305 0.31084 0.34152 0.0
H387 H 0.7377 0.45229 0.42662 0.0
H388 H 0.72658 0.42656 0.38707 0.0
H389 H 0.61306 0.3121 0.37678 0.0
H390 H 0.58864 0.23522 0.26638 0.0
H391 H 0.60865 0.25178 0.30677 0.0
H392 H 0.72653 0.36257 0.32058 0.0
C393 C 0.71142 0.40564 0.40112 0.0
C394 C 0.63818 0.32281 0.36478 0.0
C395 C 0.71752 0.42043 0.42383 0.0
C396 C 0.61233 0.2654 0.27058 0.0
C397 C 0.62363 0.27495 0.29378 0.0
C398 C 0.70151 0.35139 0.33267 0.0
C399 C 0.68522 0.36465 0.39657 0.0
C400 C 0.67754 0.34961 0.37221 0.0
C401 C 0.65323 0.31409 0.30017 0.0
C402 C 0.66201 0.32525 0.32513 0.0
H403 H 0.65612 0.33281 0.45222 0.0
H404 H 0.64538 0.30685 0.41238 0.0
H405 H 0.73994 0.38368 0.36121 0.0
H406 H 0.67598 0.35651 0.2463 0.0
H407 H 0.69541 0.37345 0.28694 0.0
C408 C 0.38589 0.71474 0.77576 0.0
C409 C 0.34849 0.69468 0.7872 0.0
C410 C 0.38884 0.70886 0.75195 0.0
C411 C 0.33081 0.64288 0.7018 0.0
H412 H 0.40313 0.73628 0.66527 0.0
C413 C 0.31494 0.64988 0.60293 0.0
C414 C 0.34959 0.65979 0.58968 0.0
C415 C 0.31735 0.65508 0.62703 0.0
C416 C 0.38303 0.70993 0.67531 0.0
H417 H 0.28498 0.65191 0.78266 0.0
H418 H 0.28976 0.64265 0.74131 0.0
H419 H 0.40278 0.74167 0.70757 0.0
H420 H 0.41422 0.68475 0.59127 0.0
H421 H 0.41847 0.69494 0.63348 0.0
H422 H 0.30997 0.61178 0.66934 0.0
C423 C 0.31717 0.66219 0.75065 0.0
C424 C 0.38295 0.71284 0.69958 0.0
C425 C 0.31435 0.66765 0.77447 0.0
C426 C 0.38699 0.67678 0.60098 0.0
C427 C 0.38946 0.68264 0.62511 0.0
C428 C 0.33044 0.64022 0.67758 0.0
C429 C 0.35435 0.68315 0.73894 0.0
C430 C 0.35653 0.67943 0.71318 0.0
C431 C 0.3545 0.67094 0.63838 0.0
C432 C 0.35626 0.67378 0.66409 0.0
H433 H 0.41282 0.73562 0.78511 0.0
H434 H 0.41813 0.72487 0.74371 0.0
H435 H 0.31075 0.61621 0.71158 0.0
H436 H 0.28564 0.63666 0.59483 0.0
H437 H 0.29002 0.64626 0.63686 0.0
loop_
_geom_bond_atom_site_label_1
_geom_bond_atom_site_label_2
_geom_bond_distance
_geom_bond_site_symmetry_2
_ccdc_geom_bond_type
Mg0 O7 2.141 . S
Mg0 O8 2.048 . S
Mg0 O9 2.048 . S
Mg0 O12 2.141 . S
C1 O2 1.313 . S
C1 O8 1.195 . S
O2 C1 1.313 . S
C3 O4 1.245 . S
C3 O12 1.289 . S
O4 C3 1.245 . S
C5 O6 1.245 . S
C5 O7 1.289 . S
O6 C5 1.245 . S
O7 Mg0 2.141 . S
O7 C5 1.289 . S
O8 Mg0 2.048 . S
O8 C1 1.195 . S
O9 Mg0 2.048 . S
O9 C10 1.195 . S
C10 O9 1.195 . S
C10 O11 1.313 . S
O11 C10 1.313 . S
O12 Mg0 2.141 . S
O12 C3 1.289 . S
Mg13 O20 2.141 . S
Mg13 O21 2.048 . S
Mg13 O22 2.048 . S
Mg13 O25 2.141 . S
C14 O15 1.313 . S
C14 O21 1.195 . S
O15 C14 1.313 . S
C16 O17 1.245 . S
C16 O25 1.289 . S
O17 C16 1.245 . S
C18 O19 1.245 . S
C18 O20 1.289 . S
O19 C18 1.245 . S
O20 Mg13 2.141 . S
O20 C18 1.289 . S
O21 Mg13 2.048 . S
O21 C14 1.195 . S
O22 Mg13 2.048 . S
O22 C23 1.195 . S
C23 O22 1.195 . S
C23 O24 1.313 . S
O24 C23 1.313 . S
O25 Mg13 2.141 . S
O25 C16 1.289 . S
Mg26 O33 2.141 . S
Mg26 O34 2.048 . S
Mg26 O35 2.048 . S
Mg26 O38 2.141 . S
C27 O28 1.313 . S
C27 O34 1.195 . S
O28 C27 1.313 . S
C29 O30 1.245 . S
C29 O38 1.289 . S
O30 C29 1.245 . S
C31 O32 1.245 . S
C31 O33 1.289 . S
O32 C31 1.245 . S
O33 Mg26 2.141 . S
O33 C31 1.289 . S
O34 Mg26 2.048 . S
O34 C27 1.195 . S
O35 Mg26 2.048 . S
O35 C36 1.195 . S
C36 O35 1.195 . S
C36 O37 1.313 . S
O37 C36 1.313 . S
O38 Mg26 2.141 . S
O38 C29 1.289 . S
Mg39 O46 2.141 . S
Mg39 O47 2.048 . S
Mg39 O48 2.048 . S
Mg39 O51 2.141 . S
C40 O41 1.313 . S
C40 O47 1.195 . S
O41 C40 1.313 . S
C42 O43 1.245 . S
C42 O51 1.289 . S
O43 C42 1.245 . S
C44 O45 1.245 . S
C44 O46 1.289 . S
O45 C44 1.245 . S
O46 Mg39 2.141 . S
O46 C44 1.289 . S
O47 Mg39 2.048 . S
O47 C40 1.195 . S
O48 Mg39 2.048 . S
O48 C49 1.195 . S
C49 O48 1.195 . S
C49 O50 1.313 . S
O50 C49 1.313 . S
O51 Mg39 2.141 . S
O51 C42 1.289 . S
Mg52 O59 2.141 . S
Mg52 O60 2.048 . S
Mg52 O61 2.048 . S
Mg52 O64 2.141 . S
C53 O54 1.313 . S
C53 O60 1.195 . S
O54 C53 1.313 . S
C55 O56 1.245 . S
C55 O64 1.289 . S
O56 C55 1.245 . S
C57 O58 1.245 . S
C57 O59 1.289 . S
O58 C57 1.245 . S
O59 Mg52 2.141 . S
O59 C57 1.289 . S
O60 Mg52 2.048 . S
O60 C53 1.195 . S
O61 Mg52 2.048 . S
O61 C62 1.195 . S
C62 O61 1.195 . S
C62 O63 1.313 . S
O63 C62 1.313 . S
O64 Mg52 2.141 . S
O64 C55 1.289 . S
Mg65 O72 2.141 . S
Mg65 O73 2.048 . S
Mg65 O74 2.048 . S
Mg65 O77 2.141 . S
C66 O67 1.313 . S
C66 O73 1.195 . S
O67 C66 1.313 . S
C68 O69 1.245 . S
C68 O77 1.289 . S
O69 C68 1.245 . S
C70 O71 1.245 . S
C70 O72 1.289 . S
O71 C70 1.245 . S
O72 Mg65 2.141 . S
O72 C70 1.289 . S
O73 Mg65 2.048 . S
O73 C66 1.195 . S
O74 Mg65 2.048 . S
O74 C75 1.195 . S
C75 O74 1.195 . S
C75 O76 1.313 . S
O76 C75 1.313 . S
O77 Mg65 2.141 . S
O77 C68 1.289 . S
C78 C79 1.349 . S
C78 C80 1.327 . S
C78 H103 0.950 . S
C79 C78 1.349 . S
C79 C95 1.349 . S
C80 C78 1.327 . S
C80 C99 1.429 . S
C80 H104 0.950 . S
C81 C98 1.574 1_545 S
C81 C100 1.368 . S
C81 H105 0.949 . S
H82 C86 0.949 . S
C83 C84 1.349 . S
C83 C85 1.327 . S
C83 H106 0.950 . S
C84 C83 1.349 . S
C84 C96 1.349 . S
C85 C83 1.327 . S
C85 C101 1.429 . S
C85 H107 0.950 . S
C86 H82 0.949 . S
C86 C94 1.574 1_565 S
C86 C102 1.368 . S
H87 C95 0.950 . S
H88 C93 0.950 . S
H89 C94 0.949 . S
H90 C96 0.950 . S
H91 C97 0.950 . S
H92 C98 0.949 . S
C93 H88 0.950 . S
C93 C95 1.327 . S
C93 C99 1.429 . S
C94 C86 1.574 1_545 S
C94 H89 0.949 . S
C94 C100 1.368 . S
C95 C79 1.349 . S
C95 H87 0.950 . S
C95 C93 1.327 . S
C96 C84 1.349 . S
C96 H90 0.950 . S
C96 C97 1.327 . S
C97 H91 0.950 . S
C97 C96 1.327 . S
C97 C101 1.429 . S
C98 C81 1.574 1_565 S
C98 H92 0.949 . S
C98 C102 1.368 . S
C99 C80 1.429 . S
C99 C93 1.429 . S
C99 C100 1.523 . S
C100 C81 1.368 . S
C100 C94 1.368 . S
C100 C99 1.523 . S
C101 C85 1.429 . S
C101 C97 1.429 . S
C101 C102 1.523 . S
C102 C86 1.368 . S
C102 C98 1.368 . S
C102 C101 1.523 . S
H103 C78 0.950 . S
H104 C80 0.950 . S
H105 C81 0.949 . S
H106 C83 0.950 . S
H107 C85 0.950 . S
C108 C109 1.349 . S
C108 C110 1.327 . S
C108 H133 0.950 . S
C109 C108 1.349 . S
C109 C125 1.349 . S
C110 C108 1.327 . S
C110 C129 1.429 . S
C110 H134 0.950 . S
C111 C128 1.574 . S
C111 C130 1.368 . S
C111 H135 0.949 . S
H112 C116 0.949 . S
C113 C114 1.349 . S
C113 C115 1.327 . S
C113 H136 0.950 . S
C114 C113 1.349 . S
C114 C126 1.349 . S
C115 C113 1.327 . S
C115 C131 1.429 . S
C115 H137 0.950 . S
C116 H112 0.949 . S
C116 C124 1.574 . S
C116 C132 1.368 . S
H117 C125 0.950 . S
H118 C123 0.950 . S
H119 C124 0.949 . S
H120 C126 0.950 . S
H121 C127 0.950 . S
H122 C128 0.949 . S
C123 H118 0.950 . S
C123 C125 1.327 . S
C123 C129 1.429 . S
C124 C116 1.574 . S
C124 H119 0.949 . S
C124 C130 1.368 . S
C125 C109 1.349 . S
C125 H117 0.950 . S
C125 C123 1.327 . S
C126 C114 1.349 . S
C126 H120 0.950 . S
C126 C127 1.327 . S
C127 H121 0.950 . S
C127 C126 1.327 . S
C127 C131 1.429 . S
C128 C111 1.574 . S
C128 H122 0.949 . S
C128 C132 1.368 . S
C129 C110 1.429 . S
C129 C123 1.429 . S
C129 C130 1.523 . S
C130 C111 1.368 . S
C130 C124 1.368 . S
C130 C129 1.523 . S
C131 C115 1.429 . S
C131 C127 1.429 . S
C131 C132 1.523 . S
C132 C116 1.368 . S
C132 C128 1.368 . S
C132 C131 1.523 . S
H133 C108 0.950 . S
H134 C110 0.950 . S
H135 C111 0.949 . S
H136 C113 0.950 . S
H137 C115 0.950 . S
C138 C139 1.349 . S
C138 C140 1.327 . S
C138 H163 0.950 . S
C139 C138 1.349 . S
C139 C155 1.349 . S
C140 C138 1.327 . S
C140 C159 1.429 . S
C140 H164 0.950 . S
C141 C158 1.574 1_655 S
C141 C160 1.368 . S
C141 H165 0.949 . S
H142 C146 0.949 . S
C143 C144 1.349 . S
C143 C145 1.327 . S
C143 H166 0.950 . S
C144 C143 1.349 . S
C144 C156 1.349 . S
C145 C143 1.327 . S
C145 C161 1.429 . S
C145 H167 0.950 . S
C146 H142 0.949 . S
C146 C154 1.574 1_455 S
C146 C162 1.368 . S
H147 C155 0.950 . S
H148 C153 0.950 . S
H149 C154 0.949 . S
H150 C156 0.950 . S
H151 C157 0.950 . S
H152 C158 0.949 . S
C153 H148 0.950 . S
C153 C155 1.327 . S
C153 C159 1.429 . S
C154 C146 1.574 1_655 S
C154 H149 0.949 . S
C154 C160 1.368 . S
C155 C139 1.349 . S
C155 H147 0.950 . S
C155 C153 1.327 . S
C156 C144 1.349 . S
C156 H150 0.950 . S
C156 C157 1.327 . S
C157 H151 0.950 . S
C157 C156 1.327 . S
C157 C161 1.429 . S
C158 C141 1.574 1_455 S
C158 H152 0.949 . S
C158 C162 1.368 . S
C159 C140 1.429 . S
C159 C153 1.429 . S
C159 C160 1.523 . S
C160 C141 1.368 . S
C160 C154 1.368 . S
C160 C159 1.523 . S
C161 C145 1.429 . S
C161 C157 1.429 . S
C161 C162 1.523 . S
C162 C146 1.368 . S
C162 C158 1.368 . S
C162 C161 1.523 . S
H163 C138 0.950 . S
H164 C140 0.950 . S
H165 C141 0.949 . S
H166 C143 0.950 . S
H167 C145 0.950 . S
C168 C169 1.349 . S
C168 C170 1.327 . S
C168 H193 0.950 . S
C169 C168 1.349 . S
C169 C185 1.349 . S
C170 C168 1.327 . S
C170 C189 1.429 . S
C170 H194 0.950 . S
C171 C188 1.574 1_455 S
C171 C190 1.368 . S
C171 H195 0.949 . S
H172 C176 0.949 . S
C173 C174 1.349 . S
C173 C175 1.327 . S
C173 H196 0.950 . S
C174 C173 1.349 . S
C174 C186 1.349 . S
C175 C173 1.327 . S
C175 C191 1.429 . S
C175 H197 0.950 . S
C176 H172 0.949 . S
C176 C184 1.574 1_655 S
C176 C192 1.368 . S
H177 C185 0.950 . S
H178 C183 0.950 . S
H179 C184 0.949 . S
H180 C186 0.950 . S
H181 C187 0.950 . S
H182 C188 0.949 . S
C183 H178 0.950 . S
C183 C185 1.327 . S
C183 C189 1.429 . S
C184 C176 1.574 1_455 S
C184 H179 0.949 . S
C184 C190 1.368 . S
C185 C169 1.349 . S
C185 H177 0.950 . S
C185 C183 1.327 . S
C186 C174 1.349 . S
C186 H180 0.950 . S
C186 C187 1.327 . S
C187 H181 0.950 . S
C187 C186 1.327 . S
C187 C191 1.429 . S
C188 C171 1.574 1_655 S
C188 H182 0.949 . S
C188 C192 1.368 . S
C189 C170 1.429 . S
C189 C183 1.429 . S
C189 C190 1.523 . S
C190 C171 1.368 . S
C190 C184 1.368 . S
C190 C189 1.523 . S
C191 C175 1.429 . S
C191 C187 1.429 . S
C191 C192 1.523 . S
C192 C176 1.368 . S
C192 C188 1.368 . S
C192 C191 1.523 . S
H193 C168 0.950 . S
H194 C170 0.950 . S
H195 C171 0.949 . S
H196 C173 0.950 . S
H197 C175 0.950 . S
C198 C199 1.349 . S
C198 C200 1.327 . S
C198 H223 0.950 . S
C199 C198 1.349 . S
C199 C215 1.349 . S
C200 C198 1.327 . S
C200 C219 1.429 . S
C200 H224 0.950 . S
C201 C218 1.574 1_565 S
C201 C220 1.368 . S
C201 H225 0.949 . S
H202 C206 0.949 . S
C203 C204 1.349 . S
C203 C205 1.327 . S
C203 H226 0.950 . S
C204 C203 1.349 . S
C204 C216 1.349 . S
C205 C203 1.327 . S
C205 C221 1.429 . S
C205 H227 0.950 . S
C206 H202 0.949 . S
C206 C214 1.574 1_545 S
C206 C222 1.368 . S
H207 C215 0.950 . S
H208 C213 0.950 . S
H209 C214 0.949 . S
H210 C216 0.950 . S
H211 C217 0.950 . S
H212 C218 0.949 . S
C213 H208 0.950 . S
C213 C215 1.327 . S
C213 C219 1.429 . S
C214 C206 1.574 1_565 S
C214 H209 0.949 . S
C214 C220 1.368 . S
C215 C199 1.349 . S
C215 H207 0.950 . S
C215 C213 1.327 . S
C216 C204 1.349 . S
C216 H210 0.950 . S
C216 C217 1.327 . S
C217 H211 0.950 . S
C217 C216 1.327 . S
C217 C221 1.429 . S
C218 C201 1.574 1_545 S
C218 H212 0.949 . S
C218 C222 1.368 . S
C219 C200 1.429 . S
C219 C213 1.429 . S
C219 C220 1.523 . S
C220 C201 1.368 . S
C220 C214 1.368 . S
C220 C219 1.523 . S
C221 C205 1.429 . S
C221 C217 1.429 . S
C221 C222 1.523 . S
C222 C206 1.368 . S
C222 C218 1.368 . S
C222 C221 1.523 . S
H223 C198 0.950 . S
H224 C200 0.950 . S
H225 C201 0.949 . S
H226 C203 0.950 . S
H227 C205 0.950 . S
C228 C229 1.349 . S
C228 C230 1.327 . S
C228 H253 0.950 . S
C229 C228 1.349 . S
C229 C245 1.349 . S
C230 C228 1.327 . S
C230 C249 1.429 . S
C230 H254 0.950 . S
C231 C248 1.574 . S
C231 C250 1.368 . S
C231 H255 0.949 . S
H232 C236 0.949 . S
C233 C234 1.349 . S
C233 C235 1.327 . S
C233 H256 0.950 . S
C234 C233 1.349 . S
C234 C246 1.349 . S
C235 C233 1.327 . S
C235 C251 1.429 . S
C235 H257 0.950 . S
C236 H232 0.949 . S
C236 C244 1.574 . S
C236 C252 1.368 . S
H237 C245 0.950 . S
H238 C243 0.950 . S
H239 C244 0.949 . S
H240 C246 0.950 . S
H241 C247 0.950 . S
H242 C248 0.949 . S
C243 H238 0.950 . S
C243 C245 1.327 . S
C243 C249 1.429 . S
C244 C236 1.574 . S
C244 H239 0.949 . S
C244 C250 1.368 . S
C245 C229 1.349 . S
C245 H237 0.950 . S
C245 C243 1.327 . S
C246 C234 1.349 . S
C246 H240 0.950 . S
C246 C247 1.327 . S
C247 H241 0.950 . S
C247 C246 1.327 . S
C247 C251 1.429 . S
C248 C231 1.574 . S
C248 H242 0.949 . S
C248 C252 1.368 . S
C249 C230 1.429 . S
C249 C243 1.429 . S
C249 C250 1.523 . S
C250 C231 1.368 . S
C250 C244 1.368 . S
C250 C249 1.523 . S
C251 C235 1.429 . S
C251 C247 1.429 . S
C251 C252 1.523 . S
C252 C236 1.368 . S
C252 C248 1.368 . S
C252 C251 1.523 . S
H253 C228 0.950 . S
H254 C230 0.950 . S
H255 C231 0.949 . S
H256 C233 0.950 . S
H257 C235 0.950 . S
C258 C259 1.349 . S
C258 C260 1.327 . S
C258 H283 0.950 . S
C259 C258 1.349 . S
C259 C275 1.349 . S
C260 C258 1.327 . S
C260 C279 1.429 . S
C260 H284 0.950 . S
C261 C278 1.574 1_556 S
C261 C280 1.368 . S
C261 H285 0.949 . S
H262 C266 0.949 . S
C263 C264 1.349 . S
C263 C265 1.327 . S
C263 H286 0.950 . S
C264 C263 1.349 . S
C264 C276 1.349 . S
C265 C263 1.327 . S
C265 C281 1.429 . S
C265 H287 0.950 . S
C266 H262 0.949 . S
C266 C274 1.574 1_554 S
C266 C282 1.368 . S
H267 C275 0.950 . S
H268 C273 0.950 . S
H269 C274 0.949 . S
H270 C276 0.950 . S
H271 C277 0.950 . S
H272 C278 0.949 . S
C273 H268 0.950 . S
C273 C275 1.327 . S
C273 C279 1.429 . S
C274 C266 1.574 1_556 S
C274 H269 0.949 . S
C274 C280 1.368 . S
C275 C259 1.349 . S
C275 H267 0.950 . S
C275 C273 1.327 . S
C276 C264 1.349 . S
C276 H270 0.950 . S
C276 C277 1.327 . S
C277 H271 0.950 . S
C277 C276 1.327 . S
C277 C281 1.429 . S
C278 C261 1.574 1_554 S
C278 H272 0.949 . S
C278 C282 1.368 . S
C279 C260 1.429 . S
C279 C273 1.429 . S
C279 C280 1.523 . S
C280 C261 1.368 . S
C280 C274 1.368 . S
C280 C279 1.523 . S
C281 C265 1.429 . S
C281 C277 1.429 . S
C281 C282 1.523 . S
C282 C266 1.368 . S
C282 C278 1.368 . S
C282 C281 1.523 . S
H283 C258 0.950 . S
H284 C260 0.950 . S
H285 C261 0.949 . S
H286 C263 0.950 . S
H287 C265 0.950 . S
C288 C289 1.349 . S
C288 C290 1.327 . S
C288 H313 0.950 . S
C289 C288 1.349 . S
C289 C305 1.349 . S
C290 C288 1.327 . S
C290 C309 1.429 . S
C290 H314 0.950 . S
C291 C308 1.574 . S
C291 C310 1.368 . S
C291 H315 0.949 . S
H292 C296 0.949 . S
C293 C294 1.349 . S
C293 C295 1.327 . S
C293 H316 0.950 . S
C294 C293 1.349 . S
C294 C306 1.349 . S
C295 C293 1.327 . S
C295 C311 1.429 . S
C295 H317 0.950 . S
C296 H292 0.949 . S
C296 C304 1.574 . S
C296 C312 1.368 . S
H297 C305 0.950 . S
H298 C303 0.950 . S
H299 C304 0.949 . S
H300 C306 0.950 . S
H301 C307 0.950 . S
H302 C308 0.949 . S
C303 H298 0.950 . S
C303 C305 1.327 . S
C303 C309 1.429 . S
C304 C296 1.574 . S
C304 H299 0.949 . S
C304 C310 1.368 . S
C305 C289 1.349 . S
C305 H297 0.950 . S
C305 C303 1.327 . S
C306 C294 1.349 . S
C306 H300 0.950 . S
C306 C307 1.327 . S
C307 H301 0.950 . S
C307 C306 1.327 . S
C307 C311 1.429 . S
C308 C291 1.574 . S
C308 H302 0.949 . S
C308 C312 1.368 . S
C309 C290 1.429 . S
C309 C303 1.429 . S
C309 C310 1.523 . S
C310 C291 1.368 . S
C310 C304 1.368 . S
C310 C309 1.523 . S
C311 C295 1.429 . S
C311 C307 1.429 . S
C311 C312 1.523 . S
C312 C296 1.368 . S
C312 C308 1.368 . S
C312 C311 1.523 . S
H313 C288 0.950 . S
H314 C290 0.950 . S
H315 C291 0.949 . S
H316 C293 0.950 . S
H317 C295 0.950 . S
C318 C319 1.349 . S
C318 C320 1.327 . S
C318 H343 0.950 . S
C319 C318 1.349 . S
C319 C335 1.349 . S
C320 C318 1.327 . S
C320 C339 1.429 . S
C320 H344 0.950 . S
C321 C338 1.574 . S
C321 C340 1.368 . S
C321 H345 0.949 . S
H322 C326 0.949 . S
C323 C324 1.349 . S
C323 C325 1.327 . S
C323 H346 0.950 . S
C324 C323 1.349 . S
C324 C336 1.349 . S
C325 C323 1.327 . S
C325 C341 1.429 . S
C325 H347 0.950 . S
C326 H322 0.949 . S
C326 C334 1.574 . S
C326 C342 1.368 . S
H327 C335 0.950 . S
H328 C333 0.950 . S
H329 C334 0.949 . S
H330 C336 0.950 . S
H331 C337 0.950 . S
H332 C338 0.949 . S
C333 H328 0.950 . S
C333 C335 1.327 . S
C333 C339 1.429 . S
C334 C326 1.574 . S
C334 H329 0.949 . S
C334 C340 1.368 . S
C335 C319 1.349 . S
C335 H327 0.950 . S
C335 C333 1.327 . S
C336 C324 1.349 . S
C336 H330 0.950 . S
C336 C337 1.327 . S
C337 H331 0.950 . S
C337 C336 1.327 . S
C337 C341 1.429 . S
C338 C321 1.574 . S
C338 H332 0.949 . S
C338 C342 1.368 . S
C339 C320 1.429 . S
C339 C333 1.429 . S
C339 C340 1.523 . S
C340 C321 1.368 . S
C340 C334 1.368 . S
C340 C339 1.523 . S
C341 C325 1.429 . S
C341 C337 1.429 . S
C341 C342 1.523 . S
C342 C326 1.368 . S
C342 C338 1.368 . S
C342 C341 1.523 . S
H343 C318 0.950 . S
H344 C320 0.950 . S
H345 C321 0.949 . S
H346 C323 0.950 . S
H347 C325 0.950 . S
C348 C349 1.349 . S
C348 C350 1.327 . S
C348 H373 0.950 . S
C349 C348 1.349 . S
C349 C365 1.349 . S
C350 C348 1.327 . S
C350 C369 1.429 . S
C350 H374 0.950 . S
C351 C368 1.574 1_556 S
C351 C370 1.368 . S
C351 H375 0.949 . S
H352 C356 0.949 . S
C353 C354 1.349 . S
C353 C355 1.327 . S
C353 H376 0.950 . S
C354 C353 1.349 . S
C354 C366 1.349 . S
C355 C353 1.327 . S
C355 C371 1.429 . S
C355 H377 0.950 . S
C356 H352 0.949 . S
C356 C364 1.574 1_554 S
C356 C372 1.368 . S
H357 C365 0.950 . S
H358 C363 0.950 . S
H359 C364 0.949 . S
H360 C366 0.950 . S
H361 C367 0.950 . S
H362 C368 0.949 . S
C363 H358 0.950 . S
C363 C365 1.327 . S
C363 C369 1.429 . S
C364 C356 1.574 1_556 S
C364 H359 0.949 . S
C364 C370 1.368 . S
C365 C349 1.349 . S
C365 H357 0.950 . S
C365 C363 1.327 . S
C366 C354 1.349 . S
C366 H360 0.950 . S
C366 C367 1.327 . S
C367 H361 0.950 . S
C367 C366 1.327 . S
C367 C371 1.429 . S
C368 C351 1.574 1_554 S
C368 H362 0.949 . S
C368 C372 1.368 . S
C369 C350 1.429 . S
C369 C363 1.429 . S
C369 C370 1.523 . S
C370 C351 1.368 . S
C370 C364 1.368 . S
C370 C369 1.523 . S
C371 C355 1.429 . S
C371 C367 1.429 . S
C371 C372 1.523 . S
C372 C356 1.368 . S
C372 C368 1.368 . S
C372 C371 1.523 . S
H373 C348 0.950 . S
H374 C350 0.950 . S
H375 C351 0.949 . S
H376 C353 0.950 . S
H377 C355 0.950 . S
C378 C379 1.349 . S
C378 C380 1.327 . S
C378 H403 0.950 . S
C379 C378 1.349 . S
C379 C395 1.349 . S
C380 C378 1.327 . S
C380 C399 1.429 . S
C380 H404 0.950 . S
C381 C398 1.574 . S
C381 C400 1.368 . S
C381 H405 0.949 . S
H382 C386 0.949 . S
C383 C384 1.349 . S
C383 C385 1.327 . S
C383 H406 0.950 . S
C384 C383 1.349 . S
C384 C396 1.349 . S
C385 C383 1.327 . S
C385 C401 1.429 . S
C385 H407 0.950 . S
C386 H382 0.949 . S
C386 C394 1.574 . S
C386 C402 1.368 . S
H387 C395 0.950 . S
H388 C393 0.950 . S
H389 C394 0.949 . S
H390 C396 0.950 . S
H391 C397 0.950 . S
H392 C398 0.949 . S
C393 H388 0.950 . S
C393 C395 1.327 . S
C393 C399 1.429 . S
C394 C386 1.574 . S
C394 H389 0.949 . S
C394 C400 1.368 . S
C395 C379 1.349 . S
C395 H387 0.950 . S
C395 C393 1.327 . S
C396 C384 1.349 . S
C396 H390 0.950 . S
C396 C397 1.327 . S
C397 H391 0.950 . S
C397 C396 1.327 . S
C397 C401 1.429 . S
C398 C381 1.574 . S
C398 H392 0.949 . S
C398 C402 1.368 . S
C399 C380 1.429 . S
C399 C393 1.429 . S
C399 C400 1.523 . S
C400 C381 1.368 . S
C400 C394 1.368 . S
C400 C399 1.523 . S
C401 C385 1.429 . S
C401 C397 1.429 . S
C401 C402 1.523 . S
C402 C386 1.368 . S
C402 C398 1.368 . S
C402 C401 1.523 . S
H403 C378 0.950 . S
H404 C380 0.950 . S
H405 C381 0.949 . S
H406 C383 0.950 . S
H407 C385 0.950 . S
C408 C409 1.349 . S
C408 C410 1.327 . S
C408 H433 0.950 . S
C409 C408 1.349 . S
C409 C425 1.349 . S
C410 C408 1.327 . S
C410 C429 1.429 . S
C410 H434 0.950 . S
C411 C428 1.574 . S
C411 C430 1.368 . S
C411 H435 0.949 . S
H412 C416 0.949 . S
C413 C414 1.349 . S
C413 C415 1.327 . S
C413 H436 0.950 . S
C414 C413 1.349 . S
C414 C426 1.349 . S
C415 C413 1.327 . S
C415 C431 1.429 . S
C415 H437 0.950 . S
C416 H412 0.949 . S
C416 C424 1.574 . S
C416 C432 1.368 . S
H417 C425 0.950 . S
H418 C423 0.950 . S
H419 C424 0.949 . S
H420 C426 0.950 . S
H421 C427 0.950 . S
H422 C428 0.949 . S
C423 H418 0.950 . S
C423 C425 1.327 . S
C423 C429 1.429 . S
C424 C416 1.574 . S
C424 H419 0.949 . S
C424 C430 1.368 . S
C425 C409 1.349 . S
C425 H417 0.950 . S
C425 C423 1.327 . S
C426 C414 1.349 . S
C426 H420 0.950 . S
C426 C427 1.327 . S
C427 H421 0.950 . S
C427 C426 1.327 . S
C427 C431 1.429 . S
C428 C411 1.574 . S
C428 H422 0.949 . S
C428 C432 1.368 . S
C429 C410 1.429 . S
C429 C423 1.429 . S
C429 C430 1.523 . S
C430 C411 1.368 . S
C430 C424 1.368 . S
C430 C429 1.523 . S
C431 C415 1.429 . S
C431 C427 1.429 . S
C431 C432 1.523 . S
C432 C416 1.368 . S
C432 C428 1.368 . S
C432 C431 1.523 . S
H433 C408 0.950 . S
H434 C410 0.950 . S
H435 C411 0.949 . S
H436 C413 0.950 . S
H437 C415 0.950 . S
C79 C5 1.948 . S
C84 C44 1.948 . S
C109 C18 1.948 . S
C114 C57 1.948 . S
C139 C31 1.948 . S
C144 C70 1.948 . S
C169 C23 2.042 . S
C174 C62 2.042 . S
C199 C75 2.042 . S
C204 C36 2.042 . S
C229 C49 2.042 . S
C234 C10 2.042 . S
C259 C29 1.639 . S
C264 C1 1.651 . S
C289 C42 1.639 . S
C294 C14 1.650 . S
C319 C27 1.651 . S
C324 C55 1.639 . S
C349 C68 1.639 . S
C354 C40 1.650 . S
C379 C53 1.650 . S
C384 C3 1.639 . S
C409 C66 1.650 . S
C414 C16 1.639 . S
