# Generated by pormake.
# Topology rho, (4)-cn, num edge types: 1
# Building blocks:
#     Node 0, Type 0, BuildingBlock: QUQFOY_clean_sbu_3, # of connection points: 4
#     Node 1, Type 0, BuildingBlock: QUQFOY_clean_sbu_3, # of connection points: 4
#     Node 2, Type 0, BuildingBlock: QUQFOY_clean_sbu_3, # of connection points: 4
#     Node 3, Type 0, BuildingBlock: QUQFOY_clean_sbu_3, # of connection points: 4
#     Node 4, Type 0, BuildingBlock: QUQFOY_clean_sbu_3, # of connection points: 4
#     Node 5, Type 0, BuildingBlock: QUQFOY_clean_sbu_3, # of connection points: 4
#     Node 6, Type 0, BuildingBlock: QUQFOY_clean_sbu_3, # of connection points: 4
#     Node 7, Type 0, BuildingBlock: QUQFOY_clean_sbu_3, # of connection points: 4
#     Node 8, Type 0, BuildingBlock: QUQFOY_clean_sbu_3, # of connection points: 4
#     Node 9, Type 0, BuildingBlock: QUQFOY_clean_sbu_3, # of connection points: 4
#     Node 10, Type 0, BuildingBlock: QUQFOY_clean_sbu_3, # of connection points: 4
#     Node 11, Type 0, BuildingBlock: QUQFOY_clean_sbu_3, # of connection points: 4
#     Node 12, Type 0, BuildingBlock: QUQFOY_clean_sbu_3, # of connection points: 4
#     Node 13, Type 0, BuildingBlock: QUQFOY_clean_sbu_3, # of connection points: 4
#     Node 14, Type 0, BuildingBlock: QUQFOY_clean_sbu_3, # of connection points: 4
#     Node 15, Type 0, BuildingBlock: QUQFOY_clean_sbu_3, # of connection points: 4
#     Node 16, Type 0, BuildingBlock: QUQFOY_clean_sbu_3, # of connection points: 4
#     Node 17, Type 0, BuildingBlock: QUQFOY_clean_sbu_3, # of connection points: 4
#     Node 18, Type 0, BuildingBlock: QUQFOY_clean_sbu_3, # of connection points: 4
#     Node 19, Type 0, BuildingBlock: QUQFOY_clean_sbu_3, # of connection points: 4
#     Node 20, Type 0, BuildingBlock: QUQFOY_clean_sbu_3, # of connection points: 4
#     Node 21, Type 0, BuildingBlock: QUQFOY_clean_sbu_3, # of connection points: 4
#     Node 22, Type 0, BuildingBlock: QUQFOY_clean_sbu_3, # of connection points: 4
#     Node 23, Type 0, BuildingBlock: QUQFOY_clean_sbu_3, # of connection points: 4
#     Node 24, Type 0, BuildingBlock: QUQFOY_clean_sbu_3, # of connection points: 4
#     Node 25, Type 0, BuildingBlock: QUQFOY_clean_sbu_3, # of connection points: 4
#     Node 26, Type 0, BuildingBlock: QUQFOY_clean_sbu_3, # of connection points: 4
#     Node 27, Type 0, BuildingBlock: QUQFOY_clean_sbu_3, # of connection points: 4
#     Node 28, Type 0, BuildingBlock: QUQFOY_clean_sbu_3, # of connection points: 4
#     Node 29, Type 0, BuildingBlock: QUQFOY_clean_sbu_3, # of connection points: 4
#     Node 30, Type 0, BuildingBlock: QUQFOY_clean_sbu_3, # of connection points: 4
#     Node 31, Type 0, BuildingBlock: QUQFOY_clean_sbu_3, # of connection points: 4
#     Node 32, Type 0, BuildingBlock: QUQFOY_clean_sbu_3, # of connection points: 4
#     Node 33, Type 0, BuildingBlock: QUQFOY_clean_sbu_3, # of connection points: 4
#     Node 34, Type 0, BuildingBlock: QUQFOY_clean_sbu_3, # of connection points: 4
#     Node 35, Type 0, BuildingBlock: QUQFOY_clean_sbu_3, # of connection points: 4
#     Node 36, Type 0, BuildingBlock: QUQFOY_clean_sbu_3, # of connection points: 4
#     Node 37, Type 0, BuildingBlock: QUQFOY_clean_sbu_3, # of connection points: 4
#     Node 38, Type 0, BuildingBlock: QUQFOY_clean_sbu_3, # of connection points: 4
#     Node 39, Type 0, BuildingBlock: QUQFOY_clean_sbu_3, # of connection points: 4
#     Node 40, Type 0, BuildingBlock: QUQFOY_clean_sbu_3, # of connection points: 4
#     Node 41, Type 0, BuildingBlock: QUQFOY_clean_sbu_3, # of connection points: 4
#     Node 42, Type 0, BuildingBlock: QUQFOY_clean_sbu_3, # of connection points: 4
#     Node 43, Type 0, BuildingBlock: QUQFOY_clean_sbu_3, # of connection points: 4
#     Node 44, Type 0, BuildingBlock: QUQFOY_clean_sbu_3, # of connection points: 4
#     Node 45, Type 0, BuildingBlock: QUQFOY_clean_sbu_3, # of connection points: 4
#     Node 46, Type 0, BuildingBlock: QUQFOY_clean_sbu_3, # of connection points: 4
#     Node 47, Type 0, BuildingBlock: QUQFOY_clean_sbu_3, # of connection points: 4
#     Edge 48, Type (0, 0), BuildingBlock: MIFKUJ_clean_linker_0, # of connection points: 2
#     Edge 49, Type (0, 0), BuildingBlock: MIFKUJ_clean_linker_0, # of connection points: 2
#     Edge 50, Type (0, 0), BuildingBlock: MIFKUJ_clean_linker_0, # of connection points: 2
#     Edge 51, Type (0, 0), BuildingBlock: MIFKUJ_clean_linker_0, # of connection points: 2
#     Edge 52, Type (0, 0), BuildingBlock: MIFKUJ_clean_linker_0, # of connection points: 2
#     Edge 53, Type (0, 0), BuildingBlock: MIFKUJ_clean_linker_0, # of connection points: 2
#     Edge 54, Type (0, 0), BuildingBlock: MIFKUJ_clean_linker_0, # of connection points: 2
#     Edge 55, Type (0, 0), BuildingBlock: MIFKUJ_clean_linker_0, # of connection points: 2
#     Edge 56, Type (0, 0), BuildingBlock: MIFKUJ_clean_linker_0, # of connection points: 2
#     Edge 57, Type (0, 0), BuildingBlock: MIFKUJ_clean_linker_0, # of connection points: 2
#     Edge 58, Type (0, 0), BuildingBlock: MIFKUJ_clean_linker_0, # of connection points: 2
#     Edge 59, Type (0, 0), BuildingBlock: MIFKUJ_clean_linker_0, # of connection points: 2
#     Edge 60, Type (0, 0), BuildingBlock: MIFKUJ_clean_linker_0, # of connection points: 2
#     Edge 61, Type (0, 0), BuildingBlock: MIFKUJ_clean_linker_0, # of connection points: 2
#     Edge 62, Type (0, 0), BuildingBlock: MIFKUJ_clean_linker_0, # of connection points: 2
#     Edge 63, Type (0, 0), BuildingBlock: MIFKUJ_clean_linker_0, # of connection points: 2
#     Edge 64, Type (0, 0), BuildingBlock: MIFKUJ_clean_linker_0, # of connection points: 2
#     Edge 65, Type (0, 0), BuildingBlock: MIFKUJ_clean_linker_0, # of connection points: 2
#     Edge 66, Type (0, 0), BuildingBlock: MIFKUJ_clean_linker_0, # of connection points: 2
#     Edge 67, Type (0, 0), BuildingBlock: MIFKUJ_clean_linker_0, # of connection points: 2
#     Edge 68, Type (0, 0), BuildingBlock: MIFKUJ_clean_linker_0, # of connection points: 2
#     Edge 69, Type (0, 0), BuildingBlock: MIFKUJ_clean_linker_0, # of connection points: 2
#     Edge 70, Type (0, 0), BuildingBlock: MIFKUJ_clean_linker_0, # of connection points: 2
#     Edge 71, Type (0, 0), BuildingBlock: MIFKUJ_clean_linker_0, # of connection points: 2
#     Edge 72, Type (0, 0), BuildingBlock: MIFKUJ_clean_linker_0, # of connection points: 2
#     Edge 73, Type (0, 0), BuildingBlock: MIFKUJ_clean_linker_0, # of connection points: 2
#     Edge 74, Type (0, 0), BuildingBlock: MIFKUJ_clean_linker_0, # of connection points: 2
#     Edge 75, Type (0, 0), BuildingBlock: MIFKUJ_clean_linker_0, # of connection points: 2
#     Edge 76, Type (0, 0), BuildingBlock: MIFKUJ_clean_linker_0, # of connection points: 2
#     Edge 77, Type (0, 0), BuildingBlock: MIFKUJ_clean_linker_0, # of connection points: 2
#     Edge 78, Type (0, 0), BuildingBlock: MIFKUJ_clean_linker_0, # of connection points: 2
#     Edge 79, Type (0, 0), BuildingBlock: MIFKUJ_clean_linker_0, # of connection points: 2
#     Edge 80, Type (0, 0), BuildingBlock: MIFKUJ_clean_linker_0, # of connection points: 2
#     Edge 81, Type (0, 0), BuildingBlock: MIFKUJ_clean_linker_0, # of connection points: 2
#     Edge 82, Type (0, 0), BuildingBlock: MIFKUJ_clean_linker_0, # of connection points: 2
#     Edge 83, Type (0, 0), BuildingBlock: MIFKUJ_clean_linker_0, # of connection points: 2
#     Edge 84, Type (0, 0), BuildingBlock: MIFKUJ_clean_linker_0, # of connection points: 2
#     Edge 85, Type (0, 0), BuildingBlock: MIFKUJ_clean_linker_0, # of connection points: 2
#     Edge 86, Type (0, 0), BuildingBlock: MIFKUJ_clean_linker_0, # of connection points: 2
#     Edge 87, Type (0, 0), BuildingBlock: MIFKUJ_clean_linker_0, # of connection points: 2
#     Edge 88, Type (0, 0), BuildingBlock: MIFKUJ_clean_linker_0, # of connection points: 2
#     Edge 89, Type (0, 0), BuildingBlock: MIFKUJ_clean_linker_0, # of connection points: 2
#     Edge 90, Type (0, 0), BuildingBlock: MIFKUJ_clean_linker_0, # of connection points: 2
#     Edge 91, Type (0, 0), BuildingBlock: MIFKUJ_clean_linker_0, # of connection points: 2
#     Edge 92, Type (0, 0), BuildingBlock: MIFKUJ_clean_linker_0, # of connection points: 2
#     Edge 93, Type (0, 0), BuildingBlock: MIFKUJ_clean_linker_0, # of connection points: 2
#     Edge 94, Type (0, 0), BuildingBlock: MIFKUJ_clean_linker_0, # of connection points: 2
#     Edge 95, Type (0, 0), BuildingBlock: MIFKUJ_clean_linker_0, # of connection points: 2
#     Edge 96, Type (0, 0), BuildingBlock: MIFKUJ_clean_linker_0, # of connection points: 2
#     Edge 97, Type (0, 0), BuildingBlock: MIFKUJ_clean_linker_0, # of connection points: 2
#     Edge 98, Type (0, 0), BuildingBlock: MIFKUJ_clean_linker_0, # of connection points: 2
#     Edge 99, Type (0, 0), BuildingBlock: MIFKUJ_clean_linker_0, # of connection points: 2
#     Edge 100, Type (0, 0), BuildingBlock: MIFKUJ_clean_linker_0, # of connection points: 2
#     Edge 101, Type (0, 0), BuildingBlock: MIFKUJ_clean_linker_0, # of connection points: 2
#     Edge 102, Type (0, 0), BuildingBlock: MIFKUJ_clean_linker_0, # of connection points: 2
#     Edge 103, Type (0, 0), BuildingBlock: MIFKUJ_clean_linker_0, # of connection points: 2
#     Edge 104, Type (0, 0), BuildingBlock: MIFKUJ_clean_linker_0, # of connection points: 2
#     Edge 105, Type (0, 0), BuildingBlock: MIFKUJ_clean_linker_0, # of connection points: 2
#     Edge 106, Type (0, 0), BuildingBlock: MIFKUJ_clean_linker_0, # of connection points: 2
#     Edge 107, Type (0, 0), BuildingBlock: MIFKUJ_clean_linker_0, # of connection points: 2
#     Edge 108, Type (0, 0), BuildingBlock: MIFKUJ_clean_linker_0, # of connection points: 2
#     Edge 109, Type (0, 0), BuildingBlock: MIFKUJ_clean_linker_0, # of connection points: 2
#     Edge 110, Type (0, 0), BuildingBlock: MIFKUJ_clean_linker_0, # of connection points: 2
#     Edge 111, Type (0, 0), BuildingBlock: MIFKUJ_clean_linker_0, # of connection points: 2
#     Edge 112, Type (0, 0), BuildingBlock: MIFKUJ_clean_linker_0, # of connection points: 2
#     Edge 113, Type (0, 0), BuildingBlock: MIFKUJ_clean_linker_0, # of connection points: 2
#     Edge 114, Type (0, 0), BuildingBlock: MIFKUJ_clean_linker_0, # of connection points: 2
#     Edge 115, Type (0, 0), BuildingBlock: MIFKUJ_clean_linker_0, # of connection points: 2
#     Edge 116, Type (0, 0), BuildingBlock: MIFKUJ_clean_linker_0, # of connection points: 2
#     Edge 117, Type (0, 0), BuildingBlock: MIFKUJ_clean_linker_0, # of connection points: 2
#     Edge 118, Type (0, 0), BuildingBlock: MIFKUJ_clean_linker_0, # of connection points: 2
#     Edge 119, Type (0, 0), BuildingBlock: MIFKUJ_clean_linker_0, # of connection points: 2
#     Edge 120, Type (0, 0), BuildingBlock: MIFKUJ_clean_linker_0, # of connection points: 2
#     Edge 121, Type (0, 0), BuildingBlock: MIFKUJ_clean_linker_0, # of connection points: 2
#     Edge 122, Type (0, 0), BuildingBlock: MIFKUJ_clean_linker_0, # of connection points: 2
#     Edge 123, Type (0, 0), BuildingBlock: MIFKUJ_clean_linker_0, # of connection points: 2
#     Edge 124, Type (0, 0), BuildingBlock: MIFKUJ_clean_linker_0, # of connection points: 2
#     Edge 125, Type (0, 0), BuildingBlock: MIFKUJ_clean_linker_0, # of connection points: 2
#     Edge 126, Type (0, 0), BuildingBlock: MIFKUJ_clean_linker_0, # of connection points: 2
#     Edge 127, Type (0, 0), BuildingBlock: MIFKUJ_clean_linker_0, # of connection points: 2
#     Edge 128, Type (0, 0), BuildingBlock: MIFKUJ_clean_linker_0, # of connection points: 2
#     Edge 129, Type (0, 0), BuildingBlock: MIFKUJ_clean_linker_0, # of connection points: 2
#     Edge 130, Type (0, 0), BuildingBlock: MIFKUJ_clean_linker_0, # of connection points: 2
#     Edge 131, Type (0, 0), BuildingBlock: MIFKUJ_clean_linker_0, # of connection points: 2
#     Edge 132, Type (0, 0), BuildingBlock: MIFKUJ_clean_linker_0, # of connection points: 2
#     Edge 133, Type (0, 0), BuildingBlock: MIFKUJ_clean_linker_0, # of connection points: 2
#     Edge 134, Type (0, 0), BuildingBlock: MIFKUJ_clean_linker_0, # of connection points: 2
#     Edge 135, Type (0, 0), BuildingBlock: MIFKUJ_clean_linker_0, # of connection points: 2
#     Edge 136, Type (0, 0), BuildingBlock: MIFKUJ_clean_linker_0, # of connection points: 2
#     Edge 137, Type (0, 0), BuildingBlock: MIFKUJ_clean_linker_0, # of connection points: 2
#     Edge 138, Type (0, 0), BuildingBlock: MIFKUJ_clean_linker_0, # of connection points: 2
#     Edge 139, Type (0, 0), BuildingBlock: MIFKUJ_clean_linker_0, # of connection points: 2
#     Edge 140, Type (0, 0), BuildingBlock: MIFKUJ_clean_linker_0, # of connection points: 2
#     Edge 141, Type (0, 0), BuildingBlock: MIFKUJ_clean_linker_0, # of connection points: 2
#     Edge 142, Type (0, 0), BuildingBlock: MIFKUJ_clean_linker_0, # of connection points: 2
#     Edge 143, Type (0, 0), BuildingBlock: MIFKUJ_clean_linker_0, # of connection points: 2
# Relax obj value: 0.072
# Max RMSD: 0.093
# Mean RMSD: 0.088
data_MOF--net-rho--node1-QUQFOY_clean_sbu_3--edge1-MIFKUJ_clean_linker_0
_symmetry_space_group_name_H-M    P1
_symmetry_Int_Tables_number       1
_symmetry_cell_setting            triclinic
loop_
_symmetry_equiv_pos_as_xyz
'x, y, z'
_cell_length_a     95.061443
_cell_length_b     95.711641
_cell_length_c     95.954584
_cell_angle_alpha  90.169662
_cell_angle_beta   90.285648
_cell_angle_gamma 90.651121
loop_
_atom_site_label
_atom_site_type_symbol
_atom_site_fract_x
_atom_site_fract_y
_atom_site_fract_z
_atom_type_partial_charge
C0 C 0.10298 0.20626 0.37213 0.0
O1 O 0.09113 0.20169 0.37627 0.0
Cd2 Cd 0.07313 0.21625 0.38569 0.0
O3 O 0.10579 0.21931 0.3724 0.0
Cd4 Cd 0.09381 0.24134 0.37876 0.0
C5 C 0.09165 0.23181 0.41252 0.0
O6 O 0.07029 0.23531 0.36994 0.0
O7 O 0.07184 0.25373 0.38285 0.0
O8 O 0.10468 0.25177 0.35827 0.0
C9 C 0.06435 0.24592 0.37506 0.0
O10 O 0.08147 0.22391 0.40867 0.0
C11 C 0.10872 0.2629 0.36438 0.0
O12 O 0.09881 0.23866 0.40361 0.0
O13 O 0.10631 0.26378 0.37736 0.0
C14 C 0.77269 0.10129 0.37921 0.0
O15 O 0.77741 0.08946 0.38278 0.0
Cd16 Cd 0.76305 0.07002 0.38987 0.0
O17 O 0.75949 0.10339 0.37868 0.0
Cd18 Cd 0.73721 0.09025 0.38238 0.0
C19 C 0.74501 0.08607 0.41657 0.0
O20 O 0.74465 0.06774 0.37308 0.0
O21 O 0.72486 0.06783 0.38395 0.0
O22 O 0.72805 0.101 0.36136 0.0
C23 C 0.73378 0.06105 0.37696 0.0
O24 O 0.75376 0.07696 0.41247 0.0
C25 C 0.71667 0.10512 0.36679 0.0
O26 O 0.73802 0.09322 0.40781 0.0
O27 O 0.71507 0.1028 0.37972 0.0
C28 C 0.87648 0.77311 0.37314 0.0
O29 O 0.88843 0.77841 0.37615 0.0
Cd30 Cd 0.90771 0.76496 0.38489 0.0
O31 O 0.87438 0.75997 0.37401 0.0
Cd32 Cd 0.88739 0.73844 0.37975 0.0
C33 C 0.89152 0.74952 0.41309 0.0
O34 O 0.91008 0.74521 0.36979 0.0
O35 O 0.9098 0.72658 0.38238 0.0
O36 O 0.87571 0.72729 0.35997 0.0
C37 C 0.91667 0.73481 0.37458 0.0
O38 O 0.90067 0.7581 0.40841 0.0
C39 C 0.87166 0.7165 0.36656 0.0
O40 O 0.88456 0.74156 0.40485 0.0
O41 O 0.87458 0.71607 0.37948 0.0
C42 C 0.21173 0.87654 0.38018 0.0
O43 O 0.20646 0.88839 0.38277 0.0
Cd44 Cd 0.22015 0.90834 0.38967 0.0
O45 O 0.22502 0.87491 0.38042 0.0
Cd46 Cd 0.247 0.88885 0.38372 0.0
C47 C 0.23865 0.89398 0.4174 0.0
O48 O 0.23852 0.91028 0.37299 0.0
O49 O 0.25825 0.91198 0.38402 0.0
O50 O 0.25463 0.87572 0.36361 0.0
C51 C 0.24898 0.91781 0.37658 0.0
O52 O 0.22942 0.90228 0.41262 0.0
C53 C 0.26695 0.87334 0.36807 0.0
O54 O 0.24637 0.88695 0.40919 0.0
O55 O 0.27004 0.87788 0.38018 0.0
C56 C 0.10074 0.7705 0.60383 0.0
O57 O 0.0886 0.77489 0.60061 0.0
Cd58 Cd 0.06951 0.76017 0.59316 0.0
O59 O 0.10328 0.75745 0.60387 0.0
Cd60 Cd 0.09067 0.73489 0.5999 0.0
C61 C 0.08596 0.74307 0.566 0.0
O62 O 0.06801 0.74162 0.60958 0.0
O63 O 0.0682 0.72211 0.59841 0.0
O64 O 0.10351 0.72677 0.62022 0.0
C65 C 0.06129 0.73085 0.60548 0.0
O66 O 0.07672 0.75154 0.57037 0.0
C67 C 0.10701 0.71512 0.615 0.0
O68 O 0.09334 0.73603 0.57454 0.0
O69 O 0.10318 0.71272 0.6025 0.0
C70 C 0.27707 0.10819 0.60093 0.0
O71 O 0.28156 0.10373 0.58931 0.0
Cd72 Cd 0.26629 0.09438 0.57148 0.0
O73 O 0.26391 0.10841 0.60338 0.0
Cd74 Cd 0.24138 0.10299 0.59149 0.0
C75 C 0.24899 0.0688 0.59021 0.0
O76 O 0.24755 0.11034 0.56807 0.0
O77 O 0.22872 0.09764 0.56979 0.0
O78 O 0.23222 0.12536 0.59805 0.0
C79 C 0.23674 0.10507 0.56222 0.0
O80 O 0.25717 0.07213 0.58025 0.0
C81 C 0.22166 0.12078 0.60473 0.0
O82 O 0.24252 0.0781 0.59712 0.0
O83 O 0.22038 0.10759 0.60584 0.0
C84 C 0.87942 0.21072 0.6039 0.0
O85 O 0.89117 0.20561 0.60042 0.0
Cd86 Cd 0.91087 0.21898 0.59218 0.0
O87 O 0.8776 0.22389 0.60383 0.0
Cd88 Cd 0.89143 0.24552 0.59919 0.0
C89 C 0.89469 0.2367 0.56522 0.0
O90 O 0.91426 0.23789 0.60805 0.0
O91 O 0.91418 0.25711 0.59642 0.0
O92 O 0.88112 0.25575 0.61999 0.0
C93 C 0.92111 0.24831 0.6034 0.0
O94 O 0.90353 0.22771 0.56943 0.0
C95 C 0.87728 0.26695 0.61411 0.0
O96 O 0.888 0.24422 0.57388 0.0
O97 O 0.87963 0.26799 0.60113 0.0
C98 C 0.70812 0.87819 0.60583 0.0
O99 O 0.70363 0.88081 0.59364 0.0
Cd100 Cd 0.71836 0.88856 0.57507 0.0
O101 O 0.72127 0.87861 0.60855 0.0
Cd102 Cd 0.74394 0.88244 0.59622 0.0
C103 C 0.73492 0.91614 0.59229 0.0
O104 O 0.73707 0.87235 0.57386 0.0
O105 O 0.75633 0.88444 0.57396 0.0
O106 O 0.75182 0.86175 0.60822 0.0
C107 C 0.74779 0.87665 0.56727 0.0
O108 O 0.72647 0.91161 0.58292 0.0
C109 C 0.76377 0.86662 0.61181 0.0
O110 O 0.74235 0.90773 0.59942 0.0
O111 O 0.76641 0.87927 0.60865 0.0
C112 C 0.38028 0.10818 0.27114 0.0
O113 O 0.39247 0.10427 0.27481 0.0
Cd114 Cd 0.40991 0.09616 0.25882 0.0
O115 O 0.37684 0.10855 0.2583 0.0
Cd116 Cd 0.38747 0.10399 0.2353 0.0
C117 C 0.39024 0.06987 0.24348 0.0
O118 O 0.41104 0.11287 0.24045 0.0
O119 O 0.40883 0.10097 0.22145 0.0
O120 O 0.37571 0.12486 0.22721 0.0
C121 C 0.41661 0.10839 0.22936 0.0
O122 O 0.40096 0.07344 0.25075 0.0
C123 C 0.37084 0.11937 0.2161 0.0
O124 O 0.38273 0.07901 0.23745 0.0
O125 O 0.37336 0.10651 0.21411 0.0
C126 C 0.88116 0.37584 0.20246 0.0
O127 O 0.89218 0.38189 0.19794 0.0
Cd128 Cd 0.91163 0.38966 0.21211 0.0
O129 O 0.87955 0.37353 0.21544 0.0
Cd130 Cd 0.89243 0.37777 0.2377 0.0
C131 C 0.89383 0.41306 0.23254 0.0
O132 O 0.91554 0.37161 0.22876 0.0
O133 O 0.91503 0.37862 0.2501 0.0
O134 O 0.88203 0.35586 0.24578 0.0
C135 C 0.92222 0.37428 0.23992 0.0
O136 O 0.90286 0.41071 0.22309 0.0
C137 C 0.87778 0.3607 0.25734 0.0
O138 O 0.88796 0.40303 0.23911 0.0
O139 O 0.88007 0.37361 0.25963 0.0
C140 C 0.59947 0.87439 0.2728 0.0
O141 O 0.58787 0.87829 0.27795 0.0
Cd142 Cd 0.56914 0.88841 0.2648 0.0
O143 O 0.60157 0.87508 0.25971 0.0
Cd144 Cd 0.58847 0.88172 0.23831 0.0
C145 C 0.58748 0.91539 0.24899 0.0
O146 O 0.56508 0.87351 0.24523 0.0
O147 O 0.56603 0.88643 0.22691 0.0
O148 O 0.59784 0.86095 0.22716 0.0
C149 C 0.55864 0.87907 0.2351 0.0
O150 O 0.57812 0.91128 0.25756 0.0
C151 C 0.60204 0.86717 0.21625 0.0
O152 O 0.5937 0.90669 0.24112 0.0
O153 O 0.60032 0.8803 0.21578 0.0
C154 C 0.10393 0.61185 0.20541 0.0
O155 O 0.09194 0.60817 0.2007 0.0
Cd156 Cd 0.07355 0.5984 0.21478 0.0
O157 O 0.10662 0.61113 0.21841 0.0
Cd158 Cd 0.09435 0.60472 0.24032 0.0
C159 C 0.09137 0.57107 0.22969 0.0
O160 O 0.071 0.61359 0.23442 0.0
O161 O 0.07242 0.60098 0.25295 0.0
O162 O 0.10567 0.62482 0.25149 0.0
C163 C 0.06496 0.60849 0.24504 0.0
O164 O 0.08174 0.57519 0.22144 0.0
C165 C 0.11006 0.61815 0.26204 0.0
O166 O 0.0982 0.57976 0.23727 0.0
O167 O 0.10752 0.6051 0.26228 0.0
C168 C 0.37737 0.87262 0.70645 0.0
O169 O 0.38892 0.87779 0.70218 0.0
Cd170 Cd 0.4073 0.88625 0.7174 0.0
O171 O 0.37487 0.8717 0.71945 0.0
Cd172 Cd 0.38676 0.8778 0.74168 0.0
C173 C 0.38871 0.91202 0.73344 0.0
O174 O 0.41034 0.86969 0.73579 0.0
O175 O 0.4087 0.88212 0.75446 0.0
O176 O 0.376 0.85685 0.75141 0.0
C177 C 0.41624 0.87465 0.74663 0.0
O178 O 0.39925 0.90881 0.72599 0.0
C179 C 0.37169 0.86266 0.76248 0.0
O180 O 0.38136 0.90261 0.73942 0.0
O181 O 0.37401 0.87571 0.7637 0.0
C182 C 0.09814 0.37675 0.77259 0.0
O183 O 0.08629 0.38015 0.77756 0.0
Cd184 Cd 0.06674 0.388 0.76384 0.0
O185 O 0.10015 0.3767 0.75947 0.0
Cd186 Cd 0.08688 0.38097 0.7377 0.0
C187 C 0.08307 0.41506 0.74616 0.0
O188 O 0.06393 0.37198 0.74499 0.0
O189 O 0.0644 0.38355 0.72576 0.0
O190 O 0.09701 0.36005 0.72762 0.0
C191 C 0.05728 0.37656 0.7345 0.0
O192 O 0.07387 0.41086 0.75488 0.0
C193 C 0.10171 0.36603 0.71678 0.0
O194 O 0.09017 0.40635 0.73909 0.0
O195 O 0.09986 0.37912 0.71584 0.0
C196 C 0.60084 0.10805 0.7057 0.0
O197 O 0.58925 0.10391 0.70038 0.0
Cd198 Cd 0.57018 0.09417 0.71363 0.0
O199 O 0.60274 0.10771 0.71885 0.0
Cd200 Cd 0.58962 0.10138 0.74028 0.0
C201 C 0.58756 0.06745 0.73026 0.0
O202 O 0.56636 0.10945 0.73296 0.0
O203 O 0.56717 0.09735 0.75183 0.0
O204 O 0.60004 0.12197 0.75141 0.0
C205 C 0.55987 0.10428 0.74327 0.0
O206 O 0.57835 0.07133 0.72143 0.0
C207 C 0.60433 0.11562 0.7622 0.0
O208 O 0.59397 0.07636 0.73797 0.0
O209 O 0.602 0.10254 0.76269 0.0
C210 C 0.88015 0.61048 0.77523 0.0
O211 O 0.8921 0.60639 0.77945 0.0
Cd212 Cd 0.91056 0.59847 0.76449 0.0
O213 O 0.87728 0.61083 0.76226 0.0
Cd214 Cd 0.88911 0.60554 0.74 0.0
C215 C 0.89276 0.57152 0.74848 0.0
O216 O 0.91228 0.61498 0.746 0.0
O217 O 0.91115 0.60267 0.72718 0.0
O218 O 0.87815 0.62597 0.72975 0.0
C219 C 0.91842 0.61044 0.73524 0.0
O220 O 0.9032 0.57539 0.75599 0.0
C221 C 0.87332 0.6196 0.7191 0.0
O222 O 0.88501 0.58041 0.74241 0.0
O223 O 0.87542 0.60653 0.71843 0.0
C224 C 0.20515 0.37212 0.10332 0.0
O225 O 0.2 0.37521 0.09151 0.0
Cd226 Cd 0.21385 0.38511 0.07313 0.0
O227 O 0.21833 0.37337 0.10558 0.0
Cd228 Cd 0.24018 0.37977 0.09296 0.0
C229 C 0.22895 0.41301 0.09081 0.0
O230 O 0.2338 0.37043 0.07003 0.0
O231 O 0.25207 0.38399 0.07086 0.0
O232 O 0.25074 0.35939 0.1035 0.0
C233 C 0.24417 0.37591 0.06374 0.0
O234 O 0.22045 0.40849 0.08147 0.0
C235 C 0.26186 0.36557 0.1077 0.0
O236 O 0.237 0.40466 0.0973 0.0
O237 O 0.26278 0.37863 0.10542 0.0
C238 C 0.27533 0.60511 0.88293 0.0
O239 O 0.28036 0.59344 0.88656 0.0
Cd240 Cd 0.26655 0.57306 0.89184 0.0
O241 O 0.2621 0.60661 0.88151 0.0
Cd242 Cd 0.24051 0.5922 0.88391 0.0
C243 C 0.24679 0.58724 0.91818 0.0
O244 O 0.24896 0.57015 0.87425 0.0
O245 O 0.22939 0.56925 0.88548 0.0
O246 O 0.2312 0.60252 0.86272 0.0
C247 C 0.23836 0.563 0.87808 0.0
O248 O 0.25581 0.57835 0.91419 0.0
C249 C 0.2195 0.60599 0.86794 0.0
O250 O 0.24025 0.59474 0.90937 0.0
O251 O 0.2178 0.60359 0.88085 0.0
C252 C 0.37956 0.27766 0.87108 0.0
O253 O 0.3912 0.28279 0.8753 0.0
Cd254 Cd 0.40914 0.26851 0.88545 0.0
O255 O 0.3773 0.26453 0.87156 0.0
Cd256 Cd 0.38941 0.24281 0.87807 0.0
C257 C 0.39032 0.25281 0.9118 0.0
O258 O 0.41303 0.24915 0.87002 0.0
O259 O 0.41123 0.23054 0.88258 0.0
O260 O 0.3793 0.23284 0.85694 0.0
C261 C 0.41886 0.23846 0.87516 0.0
O262 O 0.40001 0.26132 0.90815 0.0
C263 C 0.37478 0.22171 0.8626 0.0
O264 O 0.38401 0.24519 0.90278 0.0
O265 O 0.37667 0.22054 0.87565 0.0
C266 C 0.71032 0.37798 0.87911 0.0
O267 O 0.70521 0.38983 0.882 0.0
Cd268 Cd 0.71921 0.40928 0.88989 0.0
O269 O 0.72357 0.37613 0.87952 0.0
Cd270 Cd 0.74559 0.38959 0.88382 0.0
C271 C 0.73628 0.39329 0.91746 0.0
O272 O 0.7382 0.41182 0.87396 0.0
O273 O 0.75726 0.41238 0.88623 0.0
O274 O 0.75449 0.37843 0.86306 0.0
C275 C 0.74865 0.41883 0.87851 0.0
O276 O 0.72757 0.40224 0.91292 0.0
C277 C 0.76607 0.3746 0.86836 0.0
O278 O 0.74387 0.38634 0.90907 0.0
O279 O 0.76808 0.37743 0.88118 0.0
C280 C 0.60551 0.70845 0.87197 0.0
O281 O 0.59342 0.70347 0.87478 0.0
Cd282 Cd 0.57465 0.71769 0.88322 0.0
O283 O 0.6079 0.72156 0.87282 0.0
Cd284 Cd 0.59548 0.74358 0.87807 0.0
C285 C 0.59159 0.73298 0.91139 0.0
O286 O 0.57281 0.73712 0.86767 0.0
O287 O 0.57319 0.75582 0.88025 0.0
O288 O 0.60846 0.75314 0.85849 0.0
C289 C 0.56633 0.74768 0.87223 0.0
O290 O 0.58214 0.72461 0.90673 0.0
C291 C 0.61182 0.76458 0.86442 0.0
O292 O 0.59864 0.7407 0.90312 0.0
O293 O 0.6079 0.76617 0.87696 0.0
C294 C 0.77125 0.60572 0.10855 0.0
O295 O 0.77613 0.60353 0.09645 0.0
Cd296 Cd 0.76181 0.59636 0.07703 0.0
O297 O 0.75805 0.60498 0.11073 0.0
Cd298 Cd 0.73573 0.601 0.09784 0.0
C299 C 0.74543 0.56773 0.09217 0.0
O300 O 0.74244 0.61192 0.07587 0.0
O301 O 0.72331 0.59961 0.0756 0.0
O302 O 0.72739 0.62071 0.11113 0.0
C303 C 0.73177 0.60754 0.0691 0.0
O304 O 0.75395 0.57281 0.08326 0.0
C305 C 0.71551 0.61538 0.11412 0.0
O306 O 0.73784 0.57568 0.09963 0.0
O307 O 0.71308 0.60298 0.1099 0.0
C308 C 0.38349 0.70624 0.10785 0.0
O309 O 0.39578 0.7022 0.1048 0.0
Cd310 Cd 0.41471 0.71715 0.09753 0.0
O311 O 0.38055 0.71921 0.10781 0.0
Cd312 Cd 0.39291 0.7418 0.10362 0.0
C313 C 0.39831 0.73327 0.06984 0.0
O314 O 0.41583 0.73616 0.1136 0.0
O315 O 0.41495 0.75494 0.10135 0.0
O316 O 0.3814 0.75213 0.12373 0.0
C317 C 0.42211 0.74695 0.10905 0.0
O318 O 0.40789 0.72519 0.07432 0.0
C319 C 0.37671 0.76263 0.11719 0.0
O320 O 0.3906 0.74 0.07829 0.0
O321 O 0.37911 0.76314 0.10419 0.0
C322 C 0.59895 0.2695 0.10436 0.0
O323 O 0.5872 0.27437 0.10044 0.0
Cd324 Cd 0.5683 0.26047 0.09113 0.0
O325 O 0.60106 0.25637 0.10422 0.0
Cd326 Cd 0.58801 0.23431 0.09884 0.0
C327 C 0.58622 0.24357 0.06484 0.0
O328 O 0.56496 0.24165 0.10706 0.0
O329 O 0.56536 0.22224 0.09566 0.0
O330 O 0.59853 0.22458 0.11978 0.0
C331 C 0.55828 0.23106 0.10245 0.0
O332 O 0.57706 0.25242 0.0686 0.0
C333 C 0.60289 0.2135 0.11402 0.0
O334 O 0.59238 0.23593 0.07379 0.0
O335 O 0.60054 0.21217 0.10103 0.0
C336 C 0.86957 0.7049 0.60086 0.0
O337 O 0.87274 0.69975 0.58909 0.0
Cd338 Cd 0.88345 0.71323 0.57093 0.0
O339 O 0.8711 0.71795 0.60318 0.0
Cd340 Cd 0.87803 0.7398 0.59102 0.0
C341 C 0.9113 0.72799 0.58953 0.0
O342 O 0.86934 0.73346 0.56783 0.0
O343 O 0.8826 0.75184 0.5691 0.0
O344 O 0.85733 0.7496 0.60168 0.0
C345 C 0.87509 0.74371 0.56165 0.0
O346 O 0.90668 0.71953 0.58024 0.0
C347 C 0.86321 0.76082 0.60589 0.0
O348 O 0.90303 0.73632 0.59574 0.0
O349 O 0.87628 0.76225 0.60344 0.0
C350 C 0.20401 0.87889 0.60261 0.0
O351 O 0.19885 0.89039 0.59857 0.0
Cd352 Cd 0.21234 0.91039 0.59143 0.0
O353 O 0.21729 0.87743 0.60359 0.0
Cd354 Cd 0.23906 0.8916 0.60032 0.0
C355 C 0.2325 0.89541 0.56569 0.0
O356 O 0.22987 0.91375 0.60892 0.0
O357 O 0.25085 0.9145 0.60048 0.0
O358 O 0.24803 0.88147 0.62172 0.0
C359 C 0.24082 0.92088 0.60622 0.0
O360 O 0.2228 0.9037 0.56937 0.0
C361 C 0.25962 0.87748 0.61663 0.0
O362 O 0.23981 0.88902 0.57479 0.0
O363 O 0.26146 0.87956 0.60369 0.0
C364 C 0.11072 0.2774 0.59984 0.0
O365 O 0.10753 0.28241 0.58801 0.0
Cd366 Cd 0.09883 0.26864 0.56889 0.0
O367 O 0.11004 0.26427 0.60199 0.0
Cd368 Cd 0.10457 0.24229 0.5891 0.0
C369 C 0.07076 0.25237 0.58513 0.0
O370 O 0.11487 0.24973 0.56699 0.0
O371 O 0.10368 0.23008 0.56661 0.0
O372 O 0.12341 0.23282 0.60352 0.0
C373 C 0.11089 0.23911 0.56007 0.0
O374 O 0.07531 0.26111 0.57618 0.0
C375 C 0.1176 0.22092 0.60508 0.0
O376 O 0.07921 0.2446 0.59182 0.0
O377 O 0.10557 0.21908 0.59953 0.0
C378 C 0.77266 0.10632 0.60336 0.0
O379 O 0.77772 0.09449 0.60029 0.0
Cd380 Cd 0.76398 0.07488 0.59254 0.0
O381 O 0.75941 0.10821 0.60311 0.0
Cd382 Cd 0.73757 0.09428 0.59875 0.0
C383 C 0.74628 0.09024 0.56501 0.0
O384 O 0.74526 0.07214 0.60869 0.0
O385 O 0.72643 0.07125 0.59614 0.0
O386 O 0.72811 0.10537 0.61942 0.0
C387 C 0.73499 0.06495 0.60402 0.0
O388 O 0.75512 0.08143 0.56957 0.0
C389 C 0.71633 0.10843 0.61404 0.0
O390 O 0.73884 0.09735 0.57341 0.0
O391 O 0.71454 0.10536 0.60126 0.0
C392 C 0.87609 0.21024 0.37988 0.0
O393 O 0.88846 0.20619 0.38267 0.0
Cd394 Cd 0.90728 0.22159 0.38916 0.0
O395 O 0.87323 0.22323 0.37972 0.0
Cd396 Cd 0.88541 0.2462 0.38265 0.0
C397 C 0.89121 0.23895 0.41651 0.0
O398 O 0.90771 0.23969 0.37221 0.0
O399 O 0.90773 0.25934 0.38318 0.0
O400 O 0.87246 0.25261 0.36192 0.0
C401 C 0.91437 0.25069 0.37574 0.0
O402 O 0.90033 0.23048 0.41187 0.0
C403 C 0.86899 0.26467 0.36608 0.0
O404 O 0.88351 0.24592 0.40819 0.0
O405 O 0.8726 0.26805 0.37842 0.0
C406 C 0.70323 0.87129 0.37772 0.0
O407 O 0.69795 0.87454 0.38939 0.0
Cd408 Cd 0.71156 0.88488 0.40784 0.0
O409 O 0.71643 0.87249 0.37574 0.0
Cd410 Cd 0.73803 0.8789 0.38901 0.0
C411 C 0.72714 0.91218 0.38989 0.0
O412 O 0.7314 0.87034 0.41211 0.0
O413 O 0.74964 0.88393 0.41116 0.0
O414 O 0.74812 0.85782 0.37955 0.0
C415 C 0.74176 0.87604 0.41837 0.0
O416 O 0.71835 0.90786 0.39893 0.0
C417 C 0.75954 0.86347 0.37557 0.0
O418 O 0.73547 0.90373 0.38395 0.0
O419 O 0.76084 0.87658 0.37739 0.0
C420 C 0.10742 0.76942 0.37956 0.0
O421 O 0.09534 0.77425 0.38223 0.0
Cd422 Cd 0.07562 0.76027 0.38918 0.0
O423 O 0.10957 0.7563 0.37985 0.0
Cd424 Cd 0.09612 0.73423 0.38361 0.0
C425 C 0.09056 0.74306 0.41721 0.0
O426 O 0.07411 0.74153 0.37287 0.0
O427 O 0.07328 0.7222 0.3843 0.0
O428 O 0.10831 0.7253 0.3634 0.0
C429 C 0.06699 0.73095 0.37667 0.0
O430 O 0.0818 0.7518 0.41235 0.0
C431 C 0.1119 0.71383 0.36889 0.0
O432 O 0.09794 0.7356 0.40908 0.0
O433 O 0.10855 0.71195 0.38156 0.0
C434 C 0.27459 0.10584 0.37595 0.0
O435 O 0.27861 0.10238 0.38808 0.0
Cd436 Cd 0.26355 0.09332 0.40569 0.0
O437 O 0.26157 0.10539 0.37265 0.0
Cd438 Cd 0.23868 0.09988 0.38414 0.0
C439 C 0.24843 0.0662 0.38676 0.0
O440 O 0.24445 0.10912 0.40705 0.0
O441 O 0.22591 0.09601 0.40603 0.0
O442 O 0.2289 0.1207 0.37356 0.0
C443 C 0.23379 0.10407 0.41318 0.0
O444 O 0.25651 0.0704 0.39659 0.0
C445 C 0.21773 0.11479 0.3691 0.0
O446 O 0.24102 0.07482 0.37989 0.0
O447 O 0.2166 0.1017 0.37105 0.0
C448 C 0.60385 0.88072 0.71256 0.0
O449 O 0.59135 0.88274 0.7084 0.0
Cd450 Cd 0.57295 0.89014 0.72341 0.0
O451 O 0.60699 0.88168 0.72547 0.0
Cd452 Cd 0.59521 0.88567 0.74823 0.0
C453 C 0.58962 0.91892 0.73851 0.0
O454 O 0.57294 0.87425 0.74243 0.0
O455 O 0.57296 0.88659 0.7612 0.0
O456 O 0.60903 0.866 0.75578 0.0
C457 C 0.56633 0.87837 0.75308 0.0
O458 O 0.58024 0.91368 0.73046 0.0
C459 C 0.61251 0.87105 0.76756 0.0
O460 O 0.59731 0.91109 0.74602 0.0
O461 O 0.60833 0.88332 0.7703 0.0
C462 C 0.10657 0.60218 0.77151 0.0
O463 O 0.09423 0.59941 0.77576 0.0
Cd464 Cd 0.07528 0.59235 0.76081 0.0
O465 O 0.10943 0.60177 0.75854 0.0
Cd466 Cd 0.09712 0.59763 0.73589 0.0
C467 C 0.09037 0.56403 0.74422 0.0
O468 O 0.07528 0.60892 0.74238 0.0
O469 O 0.07457 0.59715 0.72324 0.0
O470 O 0.11091 0.61749 0.72794 0.0
C471 C 0.06837 0.6052 0.73166 0.0
O472 O 0.08117 0.56902 0.75241 0.0
C473 C 0.11392 0.61241 0.71612 0.0
O474 O 0.09852 0.57209 0.73734 0.0
O475 O 0.10962 0.60003 0.71361 0.0
C476 C 0.36996 0.10198 0.77669 0.0
O477 O 0.37384 0.09083 0.78268 0.0
Cd478 Cd 0.38274 0.07066 0.77069 0.0
O479 O 0.37017 0.10296 0.76345 0.0
Cd480 Cd 0.37586 0.08872 0.74276 0.0
C481 C 0.41017 0.0861 0.75295 0.0
O482 O 0.36677 0.06656 0.75179 0.0
O483 O 0.37658 0.06586 0.73154 0.0
O484 O 0.35585 0.0992 0.73097 0.0
C485 C 0.37031 0.05943 0.74125 0.0
O486 O 0.406 0.07778 0.76245 0.0
C487 C 0.36269 0.10289 0.72023 0.0
O488 O 0.40138 0.09192 0.74482 0.0
O489 O 0.37577 0.10032 0.72017 0.0
C490 C 0.86888 0.38328 0.70478 0.0
O491 O 0.87275 0.39503 0.69989 0.0
Cd492 Cd 0.88136 0.4147 0.71307 0.0
O493 O 0.86882 0.38112 0.7179 0.0
Cd494 Cd 0.87406 0.39392 0.73993 0.0
C495 C 0.90839 0.39798 0.73017 0.0
O496 O 0.86551 0.41625 0.73201 0.0
O497 O 0.87466 0.41643 0.75254 0.0
O498 O 0.85406 0.38199 0.75055 0.0
C499 C 0.86895 0.4232 0.74275 0.0
O500 O 0.90432 0.40694 0.72127 0.0
C501 C 0.86078 0.37798 0.76128 0.0
O502 O 0.89958 0.39146 0.73781 0.0
O503 O 0.8738 0.38108 0.76186 0.0
C504 C 0.60396 0.10432 0.27133 0.0
O505 O 0.59171 0.10103 0.27551 0.0
Cd506 Cd 0.57374 0.09169 0.26057 0.0
O507 O 0.60707 0.10341 0.25844 0.0
Cd508 Cd 0.59535 0.0974 0.23589 0.0
C509 C 0.5915 0.06388 0.24603 0.0
O510 O 0.57238 0.10711 0.24115 0.0
O511 O 0.57332 0.09408 0.22283 0.0
O512 O 0.60678 0.11808 0.22653 0.0
C513 C 0.56621 0.10218 0.23045 0.0
O514 O 0.58188 0.06848 0.25396 0.0
C515 C 0.61121 0.11234 0.21549 0.0
O516 O 0.59879 0.07221 0.23858 0.0
O517 O 0.6088 0.09931 0.21414 0.0
C518 C 0.87446 0.5977 0.21574 0.0
O519 O 0.88641 0.59441 0.21097 0.0
Cd520 Cd 0.90555 0.58691 0.2251 0.0
O521 O 0.87224 0.59774 0.22884 0.0
Cd522 Cd 0.88556 0.59381 0.25093 0.0
C523 C 0.88939 0.55971 0.24271 0.0
O524 O 0.90762 0.60409 0.24305 0.0
O525 O 0.9087 0.59334 0.26267 0.0
O526 O 0.87376 0.6144 0.25962 0.0
C527 C 0.91489 0.60071 0.25356 0.0
O528 O 0.89815 0.56403 0.23365 0.0
C529 C 0.87011 0.60915 0.27119 0.0
O530 O 0.88274 0.56831 0.25032 0.0
O531 O 0.87328 0.59645 0.27326 0.0
C532 C 0.36979 0.88198 0.20219 0.0
O533 O 0.37349 0.89367 0.19702 0.0
Cd534 Cd 0.38205 0.91339 0.21022 0.0
O535 O 0.36991 0.88009 0.21534 0.0
Cd536 Cd 0.37488 0.89305 0.23727 0.0
C537 C 0.40921 0.89729 0.22787 0.0
O538 O 0.36581 0.91503 0.22886 0.0
O539 O 0.37442 0.91565 0.24964 0.0
O540 O 0.35493 0.88011 0.24663 0.0
C541 C 0.36871 0.92213 0.23966 0.0
O542 O 0.40503 0.90603 0.21878 0.0
C543 C 0.36086 0.87703 0.25809 0.0
O544 O 0.40044 0.89076 0.23554 0.0
O545 O 0.37354 0.88109 0.25972 0.0
C546 C 0.11214 0.38232 0.27872 0.0
O547 O 0.10762 0.39364 0.28388 0.0
Cd548 Cd 0.09854 0.41255 0.27 0.0
O549 O 0.11222 0.38048 0.26558 0.0
Cd550 Cd 0.1057 0.39321 0.24428 0.0
C551 C 0.07154 0.39527 0.25336 0.0
O552 O 0.11391 0.41678 0.25077 0.0
O553 O 0.10069 0.41504 0.2325 0.0
O554 O 0.12655 0.38419 0.23286 0.0
C555 C 0.10822 0.42271 0.2404 0.0
O556 O 0.07536 0.40528 0.26136 0.0
C557 C 0.12003 0.37915 0.22239 0.0
O558 O 0.08056 0.38802 0.24685 0.0
O559 O 0.10673 0.38033 0.22227 0.0
C560 C 0.77712 0.60772 0.88121 0.0
O561 O 0.78205 0.60411 0.89296 0.0
Cd562 Cd 0.76781 0.59411 0.9109 0.0
O563 O 0.76394 0.60692 0.87879 0.0
Cd564 Cd 0.74192 0.60061 0.89115 0.0
C565 C 0.75233 0.56712 0.89216 0.0
O566 O 0.74834 0.60931 0.91429 0.0
O567 O 0.72991 0.59599 0.91315 0.0
O568 O 0.73226 0.62168 0.88118 0.0
C569 C 0.73782 0.60393 0.92041 0.0
O570 O 0.76077 0.57121 0.90173 0.0
C571 C 0.72078 0.61613 0.87705 0.0
O572 O 0.74448 0.57579 0.88586 0.0
O573 O 0.71927 0.60308 0.87902 0.0
C574 C 0.70307 0.37593 0.10515 0.0
O575 O 0.69771 0.38736 0.10124 0.0
Cd576 Cd 0.71082 0.40663 0.09188 0.0
O577 O 0.71636 0.37431 0.10499 0.0
Cd578 Cd 0.73773 0.38836 0.09944 0.0
C579 C 0.72881 0.38991 0.06545 0.0
O580 O 0.73013 0.41145 0.10702 0.0
O581 O 0.7485 0.41092 0.09392 0.0
O582 O 0.74902 0.38281 0.12132 0.0
C583 C 0.74019 0.41806 0.1013 0.0
O584 O 0.71968 0.39868 0.06946 0.0
C585 C 0.75959 0.37679 0.11611 0.0
O586 O 0.73654 0.38361 0.07428 0.0
O587 O 0.75986 0.37558 0.10292 0.0
C588 C 0.61026 0.77782 0.09902 0.0
O589 O 0.60677 0.78253 0.08715 0.0
Cd590 Cd 0.59721 0.76808 0.06896 0.0
O591 O 0.60972 0.76474 0.10146 0.0
Cd592 Cd 0.60416 0.74244 0.08927 0.0
C593 C 0.57035 0.75263 0.08777 0.0
O594 O 0.61275 0.7488 0.06622 0.0
O595 O 0.59997 0.7301 0.06727 0.0
O596 O 0.62481 0.7331 0.10079 0.0
C597 C 0.60746 0.73829 0.05998 0.0
O598 O 0.57421 0.76097 0.07815 0.0
C599 C 0.61891 0.72183 0.10475 0.0
O600 O 0.57925 0.74502 0.09405 0.0
O601 O 0.60598 0.72019 0.10168 0.0
C602 C 0.27601 0.60069 0.10414 0.0
O603 O 0.28011 0.58863 0.10057 0.0
Cd604 Cd 0.26499 0.57002 0.09281 0.0
O605 O 0.26294 0.60351 0.10435 0.0
Cd606 Cd 0.24021 0.59108 0.10005 0.0
C607 C 0.24779 0.58686 0.066 0.0
O608 O 0.24642 0.56818 0.10926 0.0
O609 O 0.22738 0.56894 0.09704 0.0
O610 O 0.23056 0.60168 0.12097 0.0
C611 C 0.23559 0.56185 0.1046 0.0
O612 O 0.25602 0.57725 0.07006 0.0
C613 C 0.2196 0.60636 0.11508 0.0
O614 O 0.24129 0.59438 0.07479 0.0
O615 O 0.21846 0.60437 0.10202 0.0
C616 C 0.36515 0.20712 0.10044 0.0
O617 O 0.36832 0.20117 0.08906 0.0
Cd618 Cd 0.37955 0.2135 0.07034 0.0
O619 O 0.36711 0.22022 0.102 0.0
Cd620 Cd 0.37513 0.24101 0.08887 0.0
C621 C 0.40798 0.22794 0.08808 0.0
O622 O 0.36627 0.23414 0.06586 0.0
O623 O 0.3804 0.25193 0.0666 0.0
O624 O 0.3548 0.2526 0.09842 0.0
C625 C 0.37247 0.24396 0.0594 0.0
O626 O 0.40311 0.21921 0.07918 0.0
C627 C 0.36139 0.26331 0.10291 0.0
O628 O 0.39998 0.23681 0.09385 0.0
O629 O 0.37461 0.26366 0.10105 0.0
C630 C 0.20626 0.3754 0.87511 0.0
O631 O 0.20151 0.37854 0.88705 0.0
Cd632 Cd 0.21585 0.3873 0.90571 0.0
O633 O 0.21943 0.37594 0.87272 0.0
Cd634 Cd 0.24162 0.38098 0.88565 0.0
C635 C 0.23205 0.41465 0.8885 0.0
O636 O 0.23488 0.37141 0.90824 0.0
O637 O 0.25373 0.38414 0.90801 0.0
O638 O 0.2515 0.36065 0.8743 0.0
C639 C 0.24549 0.37623 0.91479 0.0
O640 O 0.22347 0.41045 0.89779 0.0
C641 C 0.26292 0.36664 0.87077 0.0
O642 O 0.23961 0.406 0.88187 0.0
O643 O 0.26424 0.37953 0.87373 0.0
C644 C 0.60782 0.26869 0.87947 0.0
O645 O 0.59561 0.27306 0.88234 0.0
Cd646 Cd 0.57657 0.25839 0.88948 0.0
O647 O 0.61043 0.25564 0.87958 0.0
Cd648 Cd 0.5976 0.2331 0.8833 0.0
C649 C 0.59273 0.24164 0.91709 0.0
O650 O 0.57545 0.24002 0.87277 0.0
O651 O 0.57488 0.2207 0.88418 0.0
O652 O 0.60972 0.22444 0.86291 0.0
C653 C 0.5685 0.22931 0.87648 0.0
O654 O 0.58367 0.25023 0.91251 0.0
C655 C 0.61333 0.21291 0.86826 0.0
O656 O 0.59994 0.23428 0.90873 0.0
O657 O 0.61016 0.21096 0.88096 0.0
C658 C 0.37721 0.71512 0.88495 0.0
O659 O 0.38956 0.71032 0.88603 0.0
Cd660 Cd 0.4094 0.72471 0.89194 0.0
O661 O 0.37504 0.72821 0.88584 0.0
Cd662 Cd 0.38855 0.75048 0.88796 0.0
C663 C 0.39602 0.74166 0.92099 0.0
O664 O 0.40935 0.74316 0.87539 0.0
O665 O 0.41164 0.76236 0.88696 0.0
O666 O 0.3739 0.75769 0.86873 0.0
C667 C 0.41697 0.75363 0.87861 0.0
O668 O 0.40449 0.733 0.91553 0.0
C669 C 0.37139 0.76984 0.87332 0.0
O670 O 0.38817 0.74922 0.91338 0.0
O671 O 0.37648 0.77299 0.88522 0.0
H672 H 0.12322 0.3572 0.27117 0.0
H673 H 0.12751 0.33707 0.28608 0.0
H674 H 0.11495 0.36088 0.32206 0.0
H675 H 0.11076 0.38119 0.30724 0.0
H676 H 0.13738 0.34314 0.32774 0.0
H677 H 0.09132 0.34074 0.30622 0.0
H678 H 0.07474 0.34089 0.28637 0.0
H679 H 0.09512 0.30521 0.26869 0.0
H680 H 0.11196 0.30498 0.28836 0.0
H681 H 0.11185 0.28996 0.37303 0.0
H682 H 0.11741 0.31022 0.35861 0.0
H683 H 0.12445 0.28306 0.32339 0.0
H684 H 0.1184 0.26279 0.33767 0.0
H685 H 0.1069 0.30218 0.31651 0.0
H686 H 0.15156 0.30292 0.33946 0.0
H687 H 0.16807 0.3028 0.35936 0.0
H688 H 0.15071 0.34115 0.37449 0.0
H689 H 0.13396 0.34141 0.35478 0.0
C690 C 0.12155 0.35825 0.28228 0.0
C691 C 0.11644 0.37076 0.28799 0.0
C692 C 0.12402 0.34673 0.29078 0.0
C693 C 0.12134 0.34744 0.30512 0.0
C694 C 0.11706 0.36013 0.311 0.0
C695 C 0.11461 0.3717 0.3025 0.0
C696 C 0.12172 0.33463 0.31373 0.0
C697 C 0.13068 0.33418 0.32538 0.0
C698 C 0.11318 0.32288 0.31044 0.0
C699 C 0.10299 0.32294 0.29867 0.0
C700 C 0.09233 0.33299 0.29805 0.0
C701 C 0.08288 0.33308 0.28684 0.0
C702 C 0.08391 0.32309 0.27626 0.0
C703 C 0.09436 0.31296 0.27688 0.0
C704 C 0.10385 0.31284 0.28806 0.0
C705 C 0.11488 0.28828 0.3623 0.0
C706 C 0.11457 0.2748 0.35644 0.0
C707 C 0.11814 0.29988 0.35406 0.0
C708 C 0.12141 0.29819 0.3399 0.0
C709 C 0.12191 0.28464 0.33427 0.0
C710 C 0.11848 0.27306 0.34245 0.0
C711 C 0.12263 0.31053 0.33062 0.0
C712 C 0.11383 0.31097 0.31884 0.0
C713 C 0.13135 0.32222 0.33383 0.0
C714 C 0.14142 0.32212 0.34569 0.0
C715 C 0.15119 0.31127 0.34709 0.0
C716 C 0.1606 0.31119 0.35832 0.0
C717 C 0.16042 0.32195 0.3682 0.0
C718 C 0.15084 0.33283 0.36684 0.0
C719 C 0.14139 0.33295 0.35562 0.0
H720 H 0.16772 0.32186 0.37689 0.0
H721 H 0.07658 0.32318 0.26759 0.0
H722 H 0.69026 0.1125 0.375 0.0
H723 H 0.67022 0.11771 0.35987 0.0
H724 H 0.69709 0.11554 0.32385 0.0
H725 H 0.71719 0.11052 0.33889 0.0
H726 H 0.67658 0.13553 0.32081 0.0
H727 H 0.68006 0.08694 0.33415 0.0
H728 H 0.68166 0.06759 0.35098 0.0
H729 H 0.64216 0.07936 0.36879 0.0
H730 H 0.64043 0.09893 0.35217 0.0
H731 H 0.6319 0.10977 0.26672 0.0
H732 H 0.65009 0.11493 0.28411 0.0
H733 H 0.61882 0.11411 0.31654 0.0
H734 H 0.6006 0.10871 0.29927 0.0
H735 H 0.64019 0.09802 0.32302 0.0
H736 H 0.63521 0.14481 0.30692 0.0
H737 H 0.63384 0.16373 0.28961 0.0
H738 H 0.67598 0.15521 0.27641 0.0
H739 H 0.67754 0.1361 0.29351 0.0
C740 C 0.69197 0.11347 0.3639 0.0
C741 C 0.70525 0.11088 0.35811 0.0
C742 C 0.68051 0.11643 0.35527 0.0
C743 C 0.68215 0.11676 0.34073 0.0
C744 C 0.69561 0.11529 0.33504 0.0
C745 C 0.70707 0.11236 0.34365 0.0
C746 C 0.66971 0.11688 0.33139 0.0
C747 C 0.66861 0.12734 0.32123 0.0
C748 C 0.65923 0.10629 0.33213 0.0
C749 C 0.6602 0.09449 0.34204 0.0
C750 C 0.67177 0.08546 0.34173 0.0
C751 C 0.67269 0.07445 0.35121 0.0
C752 C 0.66204 0.07228 0.36098 0.0
C753 C 0.65042 0.08108 0.36124 0.0
C754 C 0.64946 0.09213 0.35179 0.0
C755 C 0.62885 0.11086 0.27753 0.0
C756 C 0.61481 0.10872 0.28161 0.0
C757 C 0.63926 0.11391 0.28745 0.0
C758 C 0.63579 0.11501 0.30162 0.0
C759 C 0.62172 0.11331 0.30566 0.0
C760 C 0.61132 0.11021 0.29576 0.0
C761 C 0.647 0.11666 0.31232 0.0
C762 C 0.64794 0.10643 0.32271 0.0
C763 C 0.65732 0.12742 0.31172 0.0
C764 C 0.65645 0.13894 0.30144 0.0
C765 C 0.64415 0.1469 0.30026 0.0
C766 C 0.64335 0.15767 0.29049 0.0
C767 C 0.65481 0.16065 0.28189 0.0
C768 C 0.66711 0.15288 0.28307 0.0
C769 C 0.66797 0.14209 0.29281 0.0
H770 H 0.65416 0.169 0.27434 0.0
H771 H 0.66277 0.06374 0.36831 0.0
H772 H 0.86318 0.71523 0.3394 0.0
H773 H 0.8559 0.6945 0.3263 0.0
H774 H 0.85801 0.66983 0.3638 0.0
H775 H 0.86545 0.69058 0.37701 0.0
H776 H 0.87351 0.6589 0.34355 0.0
H777 H 0.82649 0.67422 0.34718 0.0
H778 H 0.80684 0.69079 0.34641 0.0
H779 H 0.81343 0.69699 0.30262 0.0
H780 H 0.83326 0.68061 0.30314 0.0
H781 H 0.86366 0.6017 0.29799 0.0
H782 H 0.85692 0.61736 0.317 0.0
H783 H 0.85584 0.65192 0.28827 0.0
H784 H 0.8623 0.63636 0.26925 0.0
H785 H 0.83565 0.65448 0.30799 0.0
H786 H 0.88574 0.64447 0.30617 0.0
H787 H 0.90622 0.62887 0.30649 0.0
H788 H 0.89416 0.61366 0.34681 0.0
H789 H 0.87349 0.62906 0.34664 0.0
C790 C 0.86181 0.70546 0.34494 0.0
C791 C 0.86502 0.70451 0.35921 0.0
C792 C 0.85754 0.69363 0.33745 0.0
C793 C 0.85633 0.68062 0.34408 0.0
C794 C 0.85883 0.67977 0.35848 0.0
C795 C 0.86307 0.69164 0.36601 0.0
C796 C 0.85435 0.66777 0.33559 0.0
C797 C 0.86497 0.65772 0.33607 0.0
C798 C 0.84338 0.66637 0.32563 0.0
C799 C 0.83142 0.67621 0.32522 0.0
C800 C 0.82382 0.67919 0.3374 0.0
C801 C 0.81264 0.68854 0.33701 0.0
C802 C 0.8089 0.69495 0.32448 0.0
C803 C 0.81633 0.69201 0.31232 0.0
C804 C 0.82753 0.68267 0.31265 0.0
C805 C 0.86167 0.61257 0.29568 0.0
C806 C 0.86373 0.61785 0.28217 0.0
C807 C 0.85784 0.6215 0.30655 0.0
C808 C 0.85611 0.63585 0.30408 0.0
C809 C 0.85713 0.6409 0.29041 0.0
C810 C 0.86092 0.632 0.27956 0.0
C811 C 0.855 0.64593 0.31577 0.0
C812 C 0.84387 0.65546 0.31581 0.0
C813 C 0.86556 0.64696 0.32618 0.0
C814 C 0.87799 0.63776 0.32631 0.0
C815 C 0.88741 0.63772 0.31505 0.0
C816 C 0.89905 0.62893 0.31521 0.0
C817 C 0.90146 0.62025 0.32664 0.0
C818 C 0.89226 0.62037 0.33795 0.0
C819 C 0.88058 0.62912 0.33783 0.0
H820 H 0.91049 0.61345 0.32675 0.0
H821 H 0.80024 0.70219 0.3242 0.0
H822 H 0.3684 0.87497 0.28552 0.0
H823 H 0.35332 0.86788 0.30485 0.0
H824 H 0.32031 0.85668 0.27572 0.0
H825 H 0.3352 0.86414 0.25639 0.0
H826 H 0.31116 0.87444 0.29396 0.0
H827 H 0.33698 0.83202 0.2968 0.0
H828 H 0.35806 0.81732 0.29831 0.0
H829 H 0.36927 0.83644 0.33741 0.0
H830 H 0.34836 0.85141 0.33604 0.0
H831 H 0.2621 0.85842 0.34433 0.0
H832 H 0.27927 0.85245 0.32652 0.0
H833 H 0.31277 0.8684 0.35278 0.0
H834 H 0.29562 0.87413 0.37085 0.0
H835 H 0.32128 0.84589 0.33584 0.0
H836 H 0.29772 0.89014 0.33128 0.0
H837 H 0.27696 0.90532 0.32998 0.0
H838 H 0.26218 0.88296 0.2938 0.0
H839 H 0.28276 0.8675 0.29503 0.0
C840 C 0.35805 0.87069 0.28322 0.0
C841 C 0.3529 0.87028 0.26946 0.0
C842 C 0.34946 0.86655 0.29428 0.0
C843 C 0.33567 0.86173 0.29175 0.0
C844 C 0.3309 0.86041 0.27793 0.0
C845 C 0.33941 0.86469 0.26689 0.0
C846 C 0.32562 0.86003 0.30342 0.0
C847 C 0.31327 0.8679 0.30294 0.0
C848 C 0.32856 0.85191 0.31539 0.0
C849 C 0.34115 0.84292 0.31625 0.0
C850 C 0.344 0.83318 0.30566 0.0
C851 C 0.35591 0.82478 0.30651 0.0
C852 C 0.36501 0.82596 0.31793 0.0
C853 C 0.36221 0.83554 0.32856 0.0
C854 C 0.35032 0.84397 0.32776 0.0
C855 C 0.27316 0.86031 0.34648 0.0
C856 C 0.27751 0.86698 0.35886 0.0
C857 C 0.28296 0.85687 0.3363 0.0
C858 C 0.29723 0.86026 0.33823 0.0
C859 C 0.30178 0.86573 0.35109 0.0
C860 C 0.29197 0.86905 0.36138 0.0
C861 C 0.30689 0.86015 0.32617 0.0
C862 C 0.31916 0.85215 0.32668 0.0
C863 C 0.30398 0.8682 0.31418 0.0
C864 C 0.29169 0.87758 0.31334 0.0
C865 C 0.28999 0.8884 0.32311 0.0
C866 C 0.27826 0.89706 0.32238 0.0
C867 C 0.26824 0.89508 0.31184 0.0
C868 C 0.26994 0.88446 0.30198 0.0
C869 C 0.28163 0.87575 0.30268 0.0
H870 H 0.25917 0.90179 0.31129 0.0
H871 H 0.37423 0.81945 0.31857 0.0
H872 H 0.11508 0.60743 0.68806 0.0
H873 H 0.12068 0.62451 0.66996 0.0
H874 H 0.13295 0.65449 0.70155 0.0
H875 H 0.1271 0.63758 0.71967 0.0
H876 H 0.11257 0.66415 0.68563 0.0
H877 H 0.15668 0.64213 0.67748 0.0
H878 H 0.1726 0.62255 0.67275 0.0
H879 H 0.15141 0.61451 0.63388 0.0
H880 H 0.13522 0.63392 0.63846 0.0
H881 H 0.12105 0.71908 0.63952 0.0
H882 H 0.12891 0.70109 0.6557 0.0
H883 H 0.11612 0.66907 0.62639 0.0
H884 H 0.10866 0.68707 0.60993 0.0
H885 H 0.13912 0.66097 0.64138 0.0
H886 H 0.0934 0.67999 0.65077 0.0
H887 H 0.07646 0.6988 0.65519 0.0
H888 H 0.09973 0.71129 0.69171 0.0
H889 H 0.11693 0.69266 0.68739 0.0
C890 C 0.11938 0.61751 0.69113 0.0
C891 C 0.12046 0.62125 0.70528 0.0
C892 C 0.12263 0.62726 0.68076 0.0
C893 C 0.12718 0.64081 0.6844 0.0
C894 C 0.12939 0.64412 0.69851 0.0
C895 C 0.12604 0.63444 0.70885 0.0
C896 C 0.12741 0.6521 0.67384 0.0
C897 C 0.11867 0.66358 0.67612 0.0
C898 C 0.13493 0.65111 0.66118 0.0
C899 C 0.14466 0.63943 0.65838 0.0
C900 C 0.15533 0.63612 0.66798 0.0
C901 C 0.16443 0.62506 0.66531 0.0
C902 C 0.163 0.61727 0.65303 0.0
C903 C 0.1525 0.62055 0.64339 0.0
C904 C 0.14337 0.63159 0.64601 0.0
C905 C 0.12021 0.70822 0.63639 0.0
C906 C 0.11402 0.70445 0.62357 0.0
C907 C 0.12471 0.69795 0.64564 0.0
C908 C 0.12279 0.68374 0.64237 0.0
C909 C 0.11765 0.67997 0.62913 0.0
C910 C 0.11333 0.69026 0.61977 0.0
C911 C 0.12442 0.67299 0.65334 0.0
C912 C 0.1333 0.66159 0.65105 0.0
C913 C 0.11692 0.6739 0.666 0.0
C914 C 0.10653 0.68504 0.66867 0.0
C915 C 0.09496 0.68681 0.65969 0.0
C916 C 0.0853 0.69743 0.66218 0.0
C917 C 0.08704 0.70626 0.6737 0.0
C918 C 0.09842 0.70446 0.68278 0.0
C919 C 0.10812 0.69387 0.68031 0.0
H920 H 0.07955 0.71447 0.67561 0.0
H921 H 0.17005 0.60871 0.65099 0.0
H922 H 0.27127 0.11487 0.62798 0.0
H923 H 0.288 0.11913 0.64685 0.0
H924 H 0.32244 0.11541 0.618 0.0
H925 H 0.30573 0.11075 0.59905 0.0
H926 H 0.32667 0.09955 0.63954 0.0
H927 H 0.31434 0.14716 0.63385 0.0
H928 H 0.29864 0.1673 0.63115 0.0
H929 H 0.28106 0.15939 0.67153 0.0
H930 H 0.29651 0.13907 0.6744 0.0
H931 H 0.37432 0.10982 0.69515 0.0
H932 H 0.36184 0.11604 0.67374 0.0
H933 H 0.32246 0.11513 0.69588 0.0
H934 H 0.33485 0.10904 0.71735 0.0
H935 H 0.32354 0.13622 0.67603 0.0
H936 H 0.33297 0.08656 0.67942 0.0
H937 H 0.34836 0.06616 0.6821 0.0
H938 H 0.37126 0.07826 0.64552 0.0
H939 H 0.35612 0.09886 0.64275 0.0
C940 C 0.28239 0.11516 0.62557 0.0
C941 C 0.28716 0.11236 0.61201 0.0
C942 C 0.29196 0.11771 0.63638 0.0
C943 C 0.30649 0.11774 0.63383 0.0
C944 C 0.31127 0.11546 0.6202 0.0
C945 C 0.30171 0.11279 0.60939 0.0
C946 C 0.3166 0.11868 0.64563 0.0
C947 C 0.32622 0.10779 0.64731 0.0
C948 C 0.31583 0.12926 0.65595 0.0
C949 C 0.30654 0.14152 0.6543 0.0
C950 C 0.30706 0.14965 0.64212 0.0
C951 C 0.29821 0.16111 0.64056 0.0
C952 C 0.28884 0.16461 0.65115 0.0
C953 C 0.28832 0.15667 0.66333 0.0
C954 C 0.29714 0.14519 0.66494 0.0
C955 C 0.36304 0.11121 0.69553 0.0
C956 C 0.35553 0.10875 0.70789 0.0
C957 C 0.35593 0.11476 0.68329 0.0
C958 C 0.34122 0.11584 0.68321 0.0
C959 C 0.33382 0.11433 0.69573 0.0
C960 C 0.34091 0.11078 0.70797 0.0
C961 C 0.33337 0.11702 0.66991 0.0
C962 C 0.32417 0.12822 0.66802 0.0
C963 C 0.33449 0.10675 0.65936 0.0
C964 C 0.34354 0.09433 0.66098 0.0
C965 C 0.34136 0.08493 0.67201 0.0
C966 C 0.35003 0.07332 0.67354 0.0
C967 C 0.36081 0.07094 0.66401 0.0
C968 C 0.36293 0.08013 0.65291 0.0
C969 C 0.35431 0.09177 0.65136 0.0
H970 H 0.36751 0.06194 0.6652 0.0
H971 H 0.282 0.17349 0.64992 0.0
H972 H 0.86897 0.26681 0.64131 0.0
H973 H 0.86299 0.28702 0.65567 0.0
H974 H 0.86711 0.31386 0.61986 0.0
H975 H 0.87302 0.2937 0.6054 0.0
H976 H 0.88384 0.3219 0.64229 0.0
H977 H 0.83568 0.30925 0.63366 0.0
H978 H 0.81501 0.29348 0.63272 0.0
H979 H 0.81801 0.28693 0.67688 0.0
H980 H 0.83883 0.30252 0.67806 0.0
H981 H 0.86769 0.38422 0.67634 0.0
H982 H 0.86496 0.36461 0.66024 0.0
H983 H 0.85972 0.33645 0.69487 0.0
H984 H 0.86231 0.35605 0.71114 0.0
H985 H 0.84233 0.32944 0.67245 0.0
H986 H 0.89103 0.33957 0.68122 0.0
H987 H 0.91233 0.35441 0.68304 0.0
H988 H 0.90911 0.36438 0.63954 0.0
H989 H 0.88765 0.34973 0.63752 0.0
C990 C 0.86832 0.27697 0.63643 0.0
C991 C 0.87157 0.27869 0.62226 0.0
C992 C 0.86485 0.2885 0.64464 0.0
C993 C 0.86461 0.30192 0.63881 0.0
C994 C 0.86723 0.30357 0.62453 0.0
C995 C 0.87058 0.29204 0.61629 0.0
C996 C 0.86321 0.31433 0.6479 0.0
C997 C 0.87463 0.3237 0.64866 0.0
C998 C 0.85142 0.31635 0.65659 0.0
C999 C 0.8389 0.30696 0.65592 0.0
C1000 C 0.83201 0.30435 0.64315 0.0
C1001 C 0.82025 0.29546 0.64258 0.0
C1002 C 0.81522 0.28918 0.65473 0.0
C1003 C 0.82193 0.2918 0.66748 0.0
C1004 C 0.8337 0.30067 0.6681 0.0
C1005 C 0.86576 0.3739 0.68057 0.0
C1006 C 0.86542 0.37169 0.69505 0.0
C1007 C 0.86421 0.3627 0.67133 0.0
C1008 C 0.86236 0.34907 0.67638 0.0
C1009 C 0.86117 0.3469 0.69078 0.0
C1010 C 0.86271 0.35812 0.70005 0.0
C1011 C 0.8629 0.33703 0.66669 0.0
C1012 C 0.85143 0.3277 0.66592 0.0
C1013 C 0.87473 0.33488 0.65809 0.0
C1014 C 0.88765 0.34369 0.65926 0.0
C1015 C 0.89479 0.34502 0.67207 0.0
C1016 C 0.9069 0.35338 0.67314 0.0
C1017 C 0.91204 0.36037 0.66142 0.0
C1018 C 0.9051 0.35898 0.64861 0.0
C1019 C 0.89297 0.35065 0.6475 0.0
H1020 H 0.92143 0.36684 0.66226 0.0
H1021 H 0.80611 0.2823 0.65427 0.0
H1022 H 0.71339 0.87566 0.63382 0.0
H1023 H 0.69613 0.87361 0.65253 0.0
H1024 H 0.66256 0.87239 0.6221 0.0
H1025 H 0.67968 0.87467 0.60338 0.0
H1026 H 0.6578 0.89141 0.64175 0.0
H1027 H 0.67185 0.84327 0.64074 0.0
H1028 H 0.68871 0.8239 0.64149 0.0
H1029 H 0.70188 0.83645 0.68257 0.0
H1030 H 0.68522 0.85602 0.68199 0.0
H1031 H 0.60054 0.87614 0.68464 0.0
H1032 H 0.6189 0.87332 0.66725 0.0
H1033 H 0.65064 0.8761 0.69945 0.0
H1034 H 0.63228 0.87873 0.71704 0.0
H1035 H 0.65698 0.85628 0.67968 0.0
H1036 H 0.64349 0.90436 0.68075 0.0
H1037 H 0.62694 0.924 0.68025 0.0
H1038 H 0.6133 0.91194 0.63917 0.0
H1039 H 0.62963 0.89209 0.63951 0.0
C1040 C 0.70235 0.87477 0.6311 0.0
C1041 C 0.69791 0.87543 0.61711 0.0
C1042 C 0.6925 0.87354 0.64181 0.0
C1043 C 0.67806 0.87281 0.6387 0.0
C1044 C 0.67365 0.87299 0.62473 0.0
C1045 C 0.68346 0.87428 0.61404 0.0
C1046 C 0.66746 0.87289 0.64996 0.0
C1047 C 0.6575 0.88359 0.64991 0.0
C1048 C 0.66739 0.86298 0.66088 0.0
C1049 C 0.67738 0.8512 0.66126 0.0
C1050 C 0.67842 0.84197 0.64989 0.0
C1051 C 0.68793 0.83094 0.65029 0.0
C1052 C 0.69639 0.82897 0.66205 0.0
C1053 C 0.69533 0.838 0.67346 0.0
C1054 C 0.68585 0.84906 0.6731 0.0
C1055 C 0.61141 0.87604 0.68808 0.0
C1056 C 0.61495 0.87783 0.70222 0.0
C1057 C 0.62189 0.87444 0.67811 0.0
C1058 C 0.63612 0.87474 0.68205 0.0
C1059 C 0.63971 0.87589 0.69621 0.0
C1060 C 0.6292 0.87744 0.70623 0.0
C1061 C 0.6472 0.87463 0.67126 0.0
C1062 C 0.65729 0.86404 0.67146 0.0
C1063 C 0.64747 0.88468 0.66048 0.0
C1064 C 0.63769 0.89666 0.66021 0.0
C1065 C 0.63689 0.90583 0.67165 0.0
C1066 C 0.62756 0.91701 0.67139 0.0
C1067 C 0.61905 0.9192 0.6597 0.0
C1068 C 0.61988 0.91022 0.64823 0.0
C1069 C 0.62918 0.89901 0.64844 0.0
H1070 H 0.61183 0.92786 0.65952 0.0
H1071 H 0.70375 0.82042 0.66234 0.0
H1072 H 0.38398 0.1089 0.29941 0.0
H1073 H 0.3659 0.11153 0.31716 0.0
H1074 H 0.33451 0.11707 0.28509 0.0
H1075 H 0.35256 0.11466 0.26722 0.0
H1076 H 0.33 0.13425 0.30745 0.0
H1077 H 0.33841 0.0857 0.29913 0.0
H1078 H 0.35275 0.06453 0.29668 0.0
H1079 H 0.36659 0.06867 0.33917 0.0
H1080 H 0.35249 0.09 0.34182 0.0
H1081 H 0.27041 0.11233 0.3484 0.0
H1082 H 0.28845 0.11584 0.33059 0.0
H1083 H 0.32089 0.11106 0.36174 0.0
H1084 H 0.30304 0.10749 0.37955 0.0
H1085 H 0.32451 0.09392 0.33943 0.0
H1086 H 0.31492 0.14251 0.34762 0.0
H1087 H 0.29993 0.16328 0.34953 0.0
H1088 H 0.28728 0.15844 0.30676 0.0
H1089 H 0.30205 0.13751 0.30464 0.0
C1090 C 0.37327 0.11085 0.29611 0.0
C1091 C 0.36969 0.11138 0.28189 0.0
C1092 C 0.36295 0.11234 0.30627 0.0
C1093 C 0.34885 0.11425 0.30241 0.0
C1094 C 0.34534 0.11555 0.28827 0.0
C1095 C 0.35567 0.11411 0.27808 0.0
C1096 C 0.33767 0.11393 0.31309 0.0
C1097 C 0.32868 0.12539 0.31437 0.0
C1098 C 0.33606 0.10239 0.32215 0.0
C1099 C 0.34451 0.08953 0.32062 0.0
C1100 C 0.3446 0.08216 0.30792 0.0
C1101 C 0.35267 0.07012 0.3065 0.0
C1102 C 0.36061 0.06528 0.31775 0.0
C1103 C 0.36045 0.07245 0.33046 0.0
C1104 C 0.35242 0.08451 0.33193 0.0
C1105 C 0.28138 0.11222 0.35149 0.0
C1106 C 0.28528 0.10952 0.36538 0.0
C1107 C 0.29167 0.11427 0.34131 0.0
C1108 C 0.30599 0.11371 0.34487 0.0
C1109 C 0.30989 0.11149 0.35879 0.0
C1110 C 0.29965 0.10947 0.36895 0.0
C1111 C 0.31695 0.11434 0.33399 0.0
C1112 C 0.32585 0.10284 0.33259 0.0
C1113 C 0.31835 0.12577 0.32477 0.0
C1114 C 0.30948 0.13836 0.32602 0.0
C1115 C 0.30884 0.1458 0.33866 0.0
C1116 C 0.30041 0.15762 0.33977 0.0
C1117 C 0.29262 0.16215 0.32829 0.0
C1118 C 0.29329 0.1549 0.31565 0.0
C1119 C 0.30171 0.14307 0.31448 0.0
H1120 H 0.2861 0.1713 0.32917 0.0
H1121 H 0.36685 0.05596 0.31663 0.0
H1122 H 0.85779 0.25924 0.34045 0.0
H1123 H 0.8532 0.27619 0.32209 0.0
H1124 H 0.86208 0.30993 0.3508 0.0
H1125 H 0.86658 0.29299 0.36935 0.0
H1126 H 0.84108 0.31638 0.32996 0.0
H1127 H 0.88828 0.29839 0.33378 0.0
H1128 H 0.90575 0.27961 0.33549 0.0
H1129 H 0.89198 0.26315 0.29597 0.0
H1130 H 0.87426 0.28171 0.29415 0.0
H1131 H 0.87164 0.3672 0.28438 0.0
H1132 H 0.86437 0.3511 0.30277 0.0
H1133 H 0.86223 0.31739 0.27284 0.0
H1134 H 0.86982 0.33336 0.25447 0.0
H1135 H 0.87798 0.31052 0.29406 0.0
H1136 H 0.83238 0.3304 0.28895 0.0
H1137 H 0.81497 0.34923 0.28745 0.0
H1138 H 0.8256 0.3625 0.32901 0.0
H1139 H 0.84323 0.34386 0.33069 0.0
C1140 C 0.85837 0.27027 0.34299 0.0
C1141 C 0.86281 0.27479 0.35626 0.0
C1142 C 0.85571 0.27994 0.33248 0.0
C1143 C 0.85757 0.29428 0.33504 0.0
C1144 C 0.86062 0.29889 0.34863 0.0
C1145 C 0.86323 0.2892 0.3592 0.0
C1146 C 0.85861 0.30409 0.3232 0.0
C1147 C 0.84917 0.3152 0.32212 0.0
C1148 C 0.86906 0.30239 0.31291 0.0
C1149 C 0.87985 0.29134 0.3139 0.0
C1150 C 0.88891 0.2907 0.32551 0.0
C1151 C 0.89886 0.28011 0.32649 0.0
C1152 C 0.89995 0.27017 0.31587 0.0
C1153 C 0.89111 0.27084 0.30421 0.0
C1154 C 0.88111 0.28139 0.30319 0.0
C1155 C 0.86937 0.35641 0.28167 0.0
C1156 C 0.87143 0.35151 0.26801 0.0
C1157 C 0.86513 0.34723 0.29218 0.0
C1158 C 0.8627 0.33303 0.28918 0.0
C1159 C 0.86407 0.32829 0.2754 0.0
C1160 C 0.86841 0.33744 0.26491 0.0
C1161 C 0.86034 0.32285 0.3006 0.0
C1162 C 0.8697 0.31168 0.30171 0.0
C1163 C 0.84983 0.32458 0.31087 0.0
C1164 C 0.83922 0.3358 0.3099 0.0
C1165 C 0.8311 0.3374 0.29773 0.0
C1166 C 0.82117 0.34803 0.29685 0.0
C1167 C 0.8192 0.35707 0.30811 0.0
C1168 C 0.82714 0.35549 0.32029 0.0
C1169 C 0.83709 0.34489 0.32121 0.0
H1170 H 0.8115 0.36529 0.30741 0.0
H1171 H 0.90766 0.26197 0.31665 0.0
H1172 H 0.67473 0.86732 0.3783 0.0
H1173 H 0.65903 0.86277 0.35862 0.0
H1174 H 0.69467 0.86092 0.33104 0.0
H1175 H 0.71051 0.86564 0.3507 0.0
H1176 H 0.67525 0.87831 0.3214 0.0
H1177 H 0.67527 0.83155 0.33763 0.0
H1178 H 0.67367 0.81243 0.35471 0.0
H1179 H 0.63097 0.82335 0.36365 0.0
H1180 H 0.63236 0.84268 0.34677 0.0
H1181 H 0.62651 0.86753 0.26596 0.0
H1182 H 0.6458 0.86207 0.28195 0.0
H1183 H 0.61757 0.86543 0.31683 0.0
H1184 H 0.59823 0.87072 0.30099 0.0
H1185 H 0.63587 0.84385 0.3201 0.0
H1186 H 0.63775 0.89292 0.30729 0.0
H1187 H 0.63933 0.91248 0.29067 0.0
H1188 H 0.67875 0.8971 0.27569 0.0
H1189 H 0.6773 0.87733 0.29211 0.0
C1190 C 0.67928 0.86575 0.3681 0.0
C1191 C 0.69388 0.86694 0.36607 0.0
C1192 C 0.67028 0.86305 0.35686 0.0
C1193 C 0.67569 0.86139 0.34338 0.0
C1194 C 0.69029 0.86212 0.34137 0.0
C1195 C 0.69932 0.86481 0.35263 0.0
C1196 C 0.66596 0.86027 0.3313 0.0
C1197 C 0.66685 0.87054 0.32093 0.0
C1198 C 0.65488 0.85028 0.33081 0.0
C1199 C 0.65395 0.83863 0.34097 0.0
C1200 C 0.66557 0.82995 0.34331 0.0
C1201 C 0.66469 0.81905 0.35295 0.0
C1202 C 0.65223 0.81669 0.36028 0.0
C1203 C 0.64061 0.8252 0.35796 0.0
C1204 C 0.64143 0.83611 0.34834 0.0
C1205 C 0.62436 0.86693 0.27702 0.0
C1206 C 0.61086 0.86972 0.28221 0.0
C1207 C 0.6354 0.86382 0.28613 0.0
C1208 C 0.63313 0.86351 0.30057 0.0
C1209 C 0.61954 0.86562 0.30571 0.0
C1210 C 0.60851 0.86873 0.29664 0.0
C1211 C 0.64501 0.86207 0.31048 0.0
C1212 C 0.64449 0.85137 0.32043 0.0
C1213 C 0.65645 0.87167 0.31062 0.0
C1214 C 0.65733 0.88356 0.30079 0.0
C1215 C 0.6467 0.89365 0.30037 0.0
C1216 C 0.64758 0.90478 0.291 0.0
C1217 C 0.65911 0.906 0.28209 0.0
C1218 C 0.66981 0.89612 0.28257 0.0
C1219 C 0.66896 0.88495 0.2919 0.0
H1220 H 0.65977 0.91463 0.27485 0.0
H1221 H 0.65158 0.80825 0.36774 0.0
H1222 H 0.11884 0.64535 0.26339 0.0
H1223 H 0.12608 0.65839 0.28415 0.0
H1224 H 0.12311 0.62077 0.30865 0.0
H1225 H 0.11583 0.60761 0.28787 0.0
H1226 H 0.10739 0.64166 0.31915 0.0
H1227 H 0.15469 0.63645 0.30492 0.0
H1228 H 0.17478 0.63656 0.28878 0.0
H1229 H 0.17006 0.68066 0.28247 0.0
H1230 H 0.1498 0.68078 0.29841 0.0
H1231 H 0.11736 0.68683 0.37648 0.0
H1232 H 0.12391 0.66761 0.361 0.0
H1233 H 0.12711 0.69642 0.32664 0.0
H1234 H 0.12081 0.71564 0.34202 0.0
H1235 H 0.14658 0.67598 0.32449 0.0
H1236 H 0.09639 0.67963 0.33324 0.0
H1237 H 0.07538 0.6801 0.34821 0.0
H1238 H 0.08502 0.63921 0.36361 0.0
H1239 H 0.10621 0.63859 0.34885 0.0
C1240 C 0.12002 0.63978 0.27313 0.0
C1241 C 0.11665 0.62548 0.27402 0.0
C1242 C 0.12426 0.64723 0.28498 0.0
C1243 C 0.1252 0.64053 0.29794 0.0
C1244 C 0.1225 0.62611 0.29874 0.0
C1245 C 0.11835 0.61862 0.28685 0.0
C1246 C 0.12713 0.64899 0.31078 0.0
C1247 C 0.11619 0.64886 0.32054 0.0
C1248 C 0.13844 0.65859 0.31242 0.0
C1249 C 0.15066 0.6586 0.30283 0.0
C1250 C 0.15786 0.64615 0.30002 0.0
C1251 C 0.1693 0.64618 0.29092 0.0
C1252 C 0.17368 0.6586 0.28459 0.0
C1253 C 0.16665 0.67104 0.28738 0.0
C1254 C 0.1552 0.67107 0.29647 0.0
C1255 C 0.1198 0.68912 0.36571 0.0
C1256 C 0.11835 0.70271 0.36041 0.0
C1257 C 0.12352 0.67812 0.35688 0.0
C1258 C 0.12576 0.68056 0.34263 0.0
C1259 C 0.1254 0.6943 0.33759 0.0
C1260 C 0.12171 0.70527 0.3464 0.0
C1261 C 0.12668 0.66883 0.33257 0.0
C1262 C 0.13806 0.66842 0.32332 0.0
C1263 C 0.1157 0.65879 0.33126 0.0
C1264 C 0.10297 0.65914 0.34011 0.0
C1265 C 0.09408 0.67079 0.33991 0.0
C1266 C 0.08213 0.67108 0.34833 0.0
C1267 C 0.07889 0.65971 0.35689 0.0
C1268 C 0.08757 0.64802 0.35701 0.0
C1269 C 0.09954 0.6477 0.34862 0.0
H1270 H 0.06963 0.65995 0.36341 0.0
H1271 H 0.18254 0.6586 0.27755 0.0
H1272 H 0.37493 0.88118 0.67947 0.0
H1273 H 0.35478 0.87761 0.66386 0.0
H1274 H 0.33454 0.85177 0.69471 0.0
H1275 H 0.35452 0.85553 0.71059 0.0
H1276 H 0.33314 0.84342 0.6623 0.0
H1277 H 0.32294 0.87906 0.69766 0.0
H1278 H 0.32939 0.9002 0.71113 0.0
H1279 H 0.33417 0.92337 0.67315 0.0
H1280 H 0.32796 0.90228 0.65946 0.0
H1281 H 0.25922 0.87462 0.64487 0.0
H1282 H 0.27902 0.86923 0.66016 0.0
H1283 H 0.30542 0.86281 0.62435 0.0
H1284 H 0.28564 0.86827 0.6089 0.0
H1285 H 0.30325 0.88558 0.66033 0.0
H1286 H 0.33124 0.83875 0.63494 0.0
H1287 H 0.3253 0.81755 0.62135 0.0
H1288 H 0.28413 0.81639 0.63954 0.0
H1289 H 0.28989 0.83745 0.65339 0.0
C1290 C 0.36634 0.87449 0.68284 0.0
C1291 C 0.36624 0.86873 0.6963 0.0
C1292 C 0.35487 0.87245 0.6739 0.0
C1293 C 0.34326 0.86443 0.67818 0.0
C1294 C 0.34349 0.85792 0.69124 0.0
C1295 C 0.35485 0.86016 0.7003 0.0
C1296 C 0.33022 0.8644 0.66978 0.0
C1297 C 0.32655 0.85259 0.66183 0.0
C1298 C 0.32167 0.87635 0.66934 0.0
C1299 C 0.32514 0.88908 0.67755 0.0
C1300 C 0.32549 0.88864 0.69219 0.0
C1301 C 0.32907 0.90061 0.69986 0.0
C1302 C 0.33222 0.91311 0.693 0.0
C1303 C 0.33174 0.91367 0.67845 0.0
C1304 C 0.32819 0.90172 0.67073 0.0
C1305 C 0.26916 0.8718 0.64021 0.0
C1306 C 0.27091 0.872 0.62567 0.0
C1307 C 0.28046 0.86875 0.64898 0.0
C1308 C 0.29366 0.86566 0.64338 0.0
C1309 C 0.29527 0.86507 0.62886 0.0
C1310 C 0.28397 0.86823 0.62006 0.0
C1311 C 0.30602 0.86457 0.65273 0.0
C1312 C 0.3097 0.87631 0.66081 0.0
C1313 C 0.3145 0.85252 0.65326 0.0
C1314 C 0.31096 0.83977 0.6451 0.0
C1315 C 0.32094 0.83394 0.63608 0.0
C1316 C 0.3176 0.82195 0.62832 0.0
C1317 C 0.30433 0.81566 0.62955 0.0
C1318 C 0.29439 0.82131 0.63856 0.0
C1319 C 0.29767 0.83329 0.64635 0.0
H1320 H 0.30177 0.80638 0.62353 0.0
H1321 H 0.33501 0.92236 0.69896 0.0
H1322 H 0.11116 0.37573 0.69169 0.0
H1323 H 0.11793 0.36178 0.67145 0.0
H1324 H 0.11272 0.32407 0.69547 0.0
H1325 H 0.10612 0.33792 0.71579 0.0
H1326 H 0.13494 0.32228 0.67721 0.0
H1327 H 0.08596 0.33554 0.67631 0.0
H1328 H 0.06644 0.35229 0.67682 0.0
H1329 H 0.08277 0.37253 0.64034 0.0
H1330 H 0.1025 0.356 0.63974 0.0
H1331 H 0.11404 0.27103 0.62744 0.0
H1332 H 0.11758 0.28729 0.6468 0.0
H1333 H 0.11961 0.32171 0.6179 0.0
H1334 H 0.11574 0.30555 0.59849 0.0
H1335 H 0.10154 0.3269 0.63764 0.0
H1336 H 0.14891 0.31104 0.6367 0.0
H1337 H 0.16795 0.29378 0.63629 0.0
H1338 H 0.15463 0.27791 0.67596 0.0
H1339 H 0.13538 0.29495 0.67653 0.0
C1340 C 0.11172 0.36449 0.69274 0.0
C1341 C 0.10791 0.3579 0.70527 0.0
C1342 C 0.11558 0.35654 0.68117 0.0
C1343 C 0.1156 0.34189 0.68192 0.0
C1344 C 0.11274 0.33536 0.69468 0.0
C1345 C 0.10891 0.34329 0.70625 0.0
C1346 C 0.11707 0.33332 0.66915 0.0
C1347 C 0.12765 0.32323 0.66855 0.0
C1348 C 0.10768 0.33476 0.65778 0.0
C1349 C 0.09579 0.34465 0.65808 0.0
C1350 C 0.08544 0.34363 0.66847 0.0
C1351 C 0.07433 0.35308 0.66876 0.0
C1352 C 0.07339 0.3635 0.65864 0.0
C1353 C 0.08353 0.36447 0.64818 0.0
C1354 C 0.09468 0.35507 0.64786 0.0
C1355 C 0.11545 0.28203 0.62517 0.0
C1356 C 0.11449 0.287 0.61142 0.0
C1357 C 0.11757 0.29132 0.63626 0.0
C1358 C 0.11896 0.30573 0.6338 0.0
C1359 C 0.11855 0.31064 0.62004 0.0
C1360 C 0.11633 0.30138 0.60896 0.0
C1361 C 0.11942 0.31574 0.64562 0.0
C1362 C 0.10908 0.32608 0.64612 0.0
C1363 C 0.12901 0.31446 0.65687 0.0
C1364 C 0.14063 0.30422 0.65661 0.0
C1365 C 0.14997 0.30381 0.6453 0.0
C1366 C 0.16082 0.29407 0.64504 0.0
C1367 C 0.16249 0.28474 0.65608 0.0
C1368 C 0.15333 0.28515 0.66741 0.0
C1369 C 0.14246 0.29486 0.66772 0.0
H1370 H 0.17089 0.2772 0.65586 0.0
H1371 H 0.06478 0.3708 0.65889 0.0
H1372 H 0.71816 0.1185 0.64061 0.0
H1373 H 0.69872 0.12356 0.65631 0.0
H1374 H 0.66904 0.11534 0.62305 0.0
H1375 H 0.68847 0.11056 0.60716 0.0
H1376 H 0.65995 0.13624 0.64027 0.0
H1377 H 0.67796 0.08953 0.64489 0.0
H1378 H 0.69641 0.07201 0.64867 0.0
H1379 H 0.70544 0.08957 0.68901 0.0
H1380 H 0.68716 0.10732 0.68538 0.0
H1381 H 0.60077 0.10957 0.67721 0.0
H1382 H 0.62068 0.11465 0.66202 0.0
H1383 H 0.6472 0.12182 0.69801 0.0
H1384 H 0.62737 0.1166 0.71331 0.0
H1385 H 0.65867 0.10366 0.6804 0.0
H1386 H 0.63809 0.14876 0.67661 0.0
H1387 H 0.61917 0.16569 0.67253 0.0
H1388 H 0.61424 0.15072 0.63055 0.0
H1389 H 0.63301 0.13355 0.63443 0.0
C1390 C 0.70751 0.11805 0.63655 0.0
C1391 C 0.70482 0.11392 0.62271 0.0
C1392 C 0.69641 0.12094 0.64554 0.0
C1393 C 0.68244 0.11953 0.64092 0.0
C1394 C 0.67975 0.11643 0.62684 0.0
C1395 C 0.69087 0.11367 0.61779 0.0
C1396 C 0.67071 0.11976 0.65104 0.0
C1397 C 0.6596 0.12909 0.64901 0.0
C1398 C 0.67039 0.11057 0.66257 0.0
C1399 C 0.68131 0.09984 0.6648 0.0
C1400 C 0.68395 0.08971 0.65453 0.0
C1401 C 0.69437 0.07973 0.65664 0.0
C1402 C 0.70212 0.0797 0.66905 0.0
C1403 C 0.69944 0.08962 0.67939 0.0
C1404 C 0.68905 0.09964 0.67731 0.0
C1405 C 0.61078 0.11241 0.68192 0.0
C1406 C 0.61249 0.11257 0.69649 0.0
C1407 C 0.62214 0.11541 0.6732 0.0
C1408 C 0.63541 0.1187 0.67888 0.0
C1409 C 0.63704 0.11932 0.69342 0.0
C1410 C 0.62569 0.11633 0.70214 0.0
C1411 C 0.64783 0.12015 0.66969 0.0
C1412 C 0.65907 0.11102 0.67182 0.0
C1413 C 0.64817 0.12945 0.65825 0.0
C1414 C 0.63689 0.13979 0.65586 0.0
C1415 C 0.6329 0.149 0.66654 0.0
C1416 C 0.62222 0.15865 0.66426 0.0
C1417 C 0.61549 0.15926 0.6513 0.0
C1418 C 0.61946 0.15023 0.64058 0.0
C1419 C 0.63013 0.14055 0.64282 0.0
H1420 H 0.60722 0.16675 0.64955 0.0
H1421 H 0.71018 0.07197 0.67067 0.0
H1422 H 0.86366 0.67688 0.59935 0.0
H1423 H 0.85834 0.66108 0.61861 0.0
H1424 H 0.86002 0.69582 0.64736 0.0
H1425 H 0.86502 0.71171 0.62816 0.0
H1426 H 0.8754 0.65575 0.6394 0.0
H1427 H 0.84067 0.68926 0.67603 0.0
H1428 H 0.82181 0.70665 0.6742 0.0
H1429 H 0.80989 0.69018 0.63413 0.0
H1430 H 0.82854 0.67256 0.6358 0.0
H1431 H 0.86869 0.64763 0.71731 0.0
H1432 H 0.86239 0.66075 0.69644 0.0
H1433 H 0.85728 0.62219 0.67349 0.0
H1434 H 0.86374 0.60897 0.69429 0.0
H1435 H 0.84066 0.66207 0.67726 0.0
H1436 H 0.87382 0.62659 0.6423 0.0
H1437 H 0.89331 0.60986 0.64424 0.0
H1438 H 0.90879 0.63134 0.68067 0.0
H1439 H 0.88951 0.64828 0.67882 0.0
C1440 C 0.86266 0.6812 0.60973 0.0
C1441 C 0.86486 0.69555 0.61222 0.0
C1442 C 0.85962 0.67215 0.62073 0.0
C1443 C 0.85869 0.67726 0.63442 0.0
C1444 C 0.86041 0.69165 0.63686 0.0
C1445 C 0.86338 0.70072 0.62586 0.0
C1446 C 0.85746 0.66744 0.64629 0.0
C1447 C 0.86756 0.65693 0.64748 0.0
C1448 C 0.84747 0.6692 0.65703 0.0
C1449 C 0.83609 0.67965 0.65601 0.0
C1450 C 0.83398 0.68929 0.66686 0.0
C1451 C 0.82334 0.6992 0.66584 0.0
C1452 C 0.81468 0.69954 0.65404 0.0
C1453 C 0.81663 0.68994 0.64325 0.0
C1454 C 0.82725 0.68 0.64421 0.0
C1455 C 0.86595 0.64191 0.7079 0.0
C1456 C 0.86694 0.62728 0.70737 0.0
C1457 C 0.86228 0.64943 0.696 0.0
C1458 C 0.8596 0.64244 0.68339 0.0
C1459 C 0.85949 0.62777 0.6831 0.0
C1460 C 0.86318 0.62024 0.695 0.0
C1461 C 0.85862 0.65053 0.6703 0.0
C1462 C 0.84824 0.66074 0.66896 0.0
C1463 C 0.86838 0.64858 0.6594 0.0
C1464 C 0.88013 0.63857 0.66052 0.0
C1465 C 0.88141 0.62774 0.6507 0.0
C1466 C 0.89242 0.61823 0.65178 0.0
C1467 C 0.90225 0.6195 0.66261 0.0
C1468 C 0.90113 0.63033 0.67233 0.0
C1469 C 0.89016 0.63988 0.67127 0.0
H1470 H 0.91075 0.61212 0.66344 0.0
H1471 H 0.80645 0.70723 0.65327 0.0
H1472 H 0.26182 0.33814 0.11503 0.0
H1473 H 0.28201 0.32403 0.12127 0.0
H1474 H 0.30882 0.3607 0.12025 0.0
H1475 H 0.28855 0.37494 0.11378 0.0
H1476 H 0.31892 0.34075 0.10424 0.0
H1477 H 0.30397 0.34278 0.15098 0.0
H1478 H 0.28746 0.34209 0.1707 0.0
H1479 H 0.2779 0.299 0.16193 0.0
H1480 H 0.29418 0.29946 0.14203 0.0
H1481 H 0.37183 0.28915 0.11028 0.0
H1482 H 0.35832 0.30942 0.11798 0.0
H1483 H 0.32031 0.28437 0.11723 0.0
H1484 H 0.33367 0.26415 0.10973 0.0
H1485 H 0.32051 0.30265 0.13913 0.0
H1486 H 0.3301 0.30357 0.08904 0.0
H1487 H 0.34585 0.30422 0.06869 0.0
H1488 H 0.36502 0.34214 0.08399 0.0
H1489 H 0.34947 0.34161 0.10452 0.0
C1490 C 0.27195 0.34328 0.11642 0.0
C1491 C 0.27362 0.35763 0.11379 0.0
C1492 C 0.28349 0.3352 0.12011 0.0
C1493 C 0.29694 0.34131 0.12134 0.0
C1494 C 0.29853 0.35578 0.11941 0.0
C1495 C 0.28694 0.3639 0.11573 0.0
C1496 C 0.30939 0.3322 0.12274 0.0
C1497 C 0.31951 0.3327 0.11215 0.0
C1498 C 0.31009 0.32158 0.13295 0.0
C1499 C 0.3003 0.32118 0.14496 0.0
C1500 C 0.29829 0.33318 0.1532 0.0
C1501 C 0.28897 0.33282 0.16442 0.0
C1502 C 0.28163 0.32051 0.16756 0.0
C1503 C 0.2836 0.30852 0.1595 0.0
C1504 C 0.2929 0.30882 0.14826 0.0
C1505 C 0.36063 0.28792 0.112 0.0
C1506 C 0.35377 0.27511 0.10923 0.0
C1507 C 0.35294 0.2995 0.11639 0.0
C1508 C 0.33829 0.29843 0.11803 0.0
C1509 C 0.3316 0.28543 0.11606 0.0
C1510 C 0.33925 0.2739 0.11167 0.0
C1511 C 0.32957 0.31095 0.12034 0.0
C1512 C 0.32017 0.31105 0.13157 0.0
C1513 C 0.32948 0.32213 0.11072 0.0
C1514 C 0.33877 0.32245 0.09838 0.0
C1515 C 0.33775 0.31199 0.0881 0.0
C1516 C 0.34662 0.31234 0.07653 0.0
C1517 C 0.35647 0.32319 0.07507 0.0
C1518 C 0.35742 0.33373 0.08515 0.0
C1519 C 0.34858 0.33341 0.09676 0.0
H1520 H 0.36333 0.32345 0.0661 0.0
H1521 H 0.27442 0.32026 0.17625 0.0
H1522 H 0.37788 0.68842 0.875 0.0
H1523 H 0.35817 0.67191 0.87271 0.0
H1524 H 0.32985 0.70306 0.88835 0.0
H1525 H 0.34948 0.71979 0.89045 0.0
H1526 H 0.32862 0.67615 0.90206 0.0
H1527 H 0.32635 0.69638 0.8566 0.0
H1528 H 0.3358 0.70437 0.83407 0.0
H1529 H 0.34803 0.66246 0.82418 0.0
H1530 H 0.33884 0.65425 0.84675 0.0
H1531 H 0.26955 0.6301 0.87043 0.0
H1532 H 0.28495 0.65078 0.86914 0.0
H1533 H 0.31773 0.62844 0.89047 0.0
H1534 H 0.30258 0.60771 0.89165 0.0
H1535 H 0.3134 0.65383 0.85762 0.0
H1536 H 0.33019 0.65191 0.91545 0.0
H1537 H 0.32069 0.64385 0.93796 0.0
H1538 H 0.27858 0.64999 0.92298 0.0
H1539 H 0.28783 0.65829 0.90047 0.0
C1540 C 0.36744 0.6918 0.87786 0.0
C1541 C 0.36521 0.70538 0.88293 0.0
C1542 C 0.35621 0.68238 0.87649 0.0
C1543 C 0.34261 0.68633 0.88032 0.0
C1544 C 0.3403 0.69988 0.88531 0.0
C1545 C 0.3515 0.70941 0.88646 0.0
C1546 C 0.33098 0.67598 0.87975 0.0
C1547 C 0.32519 0.67135 0.89235 0.0
C1548 C 0.3265 0.66985 0.86704 0.0
C1549 C 0.332 0.67473 0.85343 0.0
C1550 C 0.33116 0.68889 0.84968 0.0
C1551 C 0.33645 0.69345 0.83689 0.0
C1552 C 0.34253 0.68393 0.82771 0.0
C1553 C 0.34332 0.66982 0.8313 0.0
C1554 C 0.33805 0.66521 0.84409 0.0
C1555 C 0.28008 0.62956 0.87474 0.0
C1556 C 0.28484 0.61729 0.88118 0.0
C1557 C 0.28885 0.64135 0.87395 0.0
C1558 C 0.30237 0.64111 0.87982 0.0
C1559 C 0.30726 0.62881 0.88597 0.0
C1560 C 0.29861 0.61697 0.88659 0.0
C1561 C 0.31133 0.65379 0.87995 0.0
C1562 C 0.31668 0.65879 0.8673 0.0
C1563 C 0.31539 0.66031 0.89261 0.0
C1564 C 0.30972 0.65561 0.90623 0.0
C1565 C 0.31891 0.65161 0.91699 0.0
C1566 C 0.31357 0.64699 0.92974 0.0
C1567 C 0.29904 0.64636 0.93188 0.0
C1568 C 0.28983 0.65042 0.92129 0.0
C1569 C 0.29512 0.65507 0.90853 0.0
H1570 H 0.29493 0.64276 0.94176 0.0
H1571 H 0.34662 0.68749 0.81781 0.0
H1572 H 0.26204 0.34 0.86064 0.0
H1573 H 0.28209 0.32519 0.85537 0.0
H1574 H 0.31041 0.35994 0.86301 0.0
H1575 H 0.29036 0.37494 0.86797 0.0
H1576 H 0.32039 0.34271 0.84252 0.0
H1577 H 0.30246 0.33845 0.88911 0.0
H1578 H 0.28419 0.33455 0.90687 0.0
H1579 H 0.2762 0.29338 0.89055 0.0
H1580 H 0.2943 0.29713 0.87255 0.0
H1581 H 0.37998 0.30628 0.86976 0.0
H1582 H 0.36022 0.32157 0.86456 0.0
H1583 H 0.3337 0.28553 0.8566 0.0
H1584 H 0.35331 0.27017 0.86186 0.0
H1585 H 0.32253 0.303 0.87557 0.0
H1586 H 0.34309 0.30699 0.83024 0.0
H1587 H 0.36211 0.31152 0.81341 0.0
H1588 H 0.36626 0.35368 0.82842 0.0
H1589 H 0.34739 0.34935 0.84549 0.0
C1590 C 0.27251 0.34458 0.86088 0.0
C1591 C 0.27466 0.35856 0.86494 0.0
C1592 C 0.28395 0.33611 0.85787 0.0
C1593 C 0.29773 0.34141 0.85912 0.0
C1594 C 0.29986 0.35565 0.86205 0.0
C1595 C 0.28839 0.36418 0.86492 0.0
C1596 C 0.30982 0.33178 0.8591 0.0
C1597 C 0.32093 0.33406 0.84977 0.0
C1598 C 0.31043 0.32045 0.86852 0.0
C1599 C 0.29962 0.31813 0.87939 0.0
C1600 C 0.29673 0.32861 0.88925 0.0
C1601 C 0.28642 0.32642 0.89937 0.0
C1602 C 0.27901 0.31374 0.89982 0.0
C1603 C 0.28193 0.3032 0.89017 0.0
C1604 C 0.29222 0.30535 0.88001 0.0
C1605 C 0.37 0.3016 0.86669 0.0
C1606 C 0.36819 0.28699 0.86636 0.0
C1607 C 0.35874 0.31036 0.86364 0.0
C1608 C 0.34551 0.30467 0.86015 0.0
C1609 C 0.34383 0.29012 0.85927 0.0
C1610 C 0.35506 0.28136 0.86229 0.0
C1611 C 0.3331 0.31378 0.85888 0.0
C1612 C 0.32194 0.31149 0.86813 0.0
C1613 C 0.33258 0.32515 0.84951 0.0
C1614 C 0.3439 0.32781 0.83923 0.0
C1615 C 0.34814 0.3172 0.83003 0.0
C1616 C 0.35887 0.31973 0.82043 0.0
C1617 C 0.36541 0.33287 0.81987 0.0
C1618 C 0.36119 0.3435 0.82888 0.0
C1619 C 0.35047 0.34102 0.83851 0.0
H1620 H 0.37372 0.33481 0.81243 0.0
H1621 H 0.27103 0.31206 0.90766 0.0
H1622 H 0.63573 0.2636 0.87465 0.0
H1623 H 0.65458 0.28086 0.87117 0.0
H1624 H 0.62446 0.31411 0.87408 0.0
H1625 H 0.60559 0.29702 0.8774 0.0
H1626 H 0.64331 0.31898 0.85353 0.0
H1627 H 0.6441 0.30525 0.90201 0.0
H1628 H 0.6456 0.28846 0.92139 0.0
H1629 H 0.68625 0.27556 0.90727 0.0
H1630 H 0.6849 0.29217 0.88768 0.0
H1631 H 0.68165 0.3782 0.8768 0.0
H1632 H 0.66583 0.35825 0.87328 0.0
H1633 H 0.70143 0.33083 0.87058 0.0
H1634 H 0.71738 0.35074 0.87425 0.0
H1635 H 0.68191 0.3211 0.88851 0.0
H1636 H 0.68217 0.33775 0.84173 0.0
H1637 H 0.68037 0.35517 0.82294 0.0
H1638 H 0.63756 0.36315 0.83423 0.0
H1639 H 0.63915 0.34592 0.85322 0.0
C1640 C 0.6331 0.27458 0.87443 0.0
C1641 C 0.61916 0.27893 0.87643 0.0
C1642 C 0.64388 0.28442 0.87247 0.0
C1643 C 0.64092 0.29875 0.87251 0.0
C1644 C 0.62697 0.30309 0.87401 0.0
C1645 C 0.6162 0.29329 0.87597 0.0
C1646 C 0.65234 0.30935 0.8717 0.0
C1647 C 0.65174 0.31949 0.8612 0.0
C1648 C 0.6635 0.30979 0.88152 0.0
C1649 C 0.66433 0.29982 0.89329 0.0
C1650 C 0.65331 0.29875 0.90297 0.0
C1651 C 0.65414 0.28928 0.914 0.0
C1652 C 0.66599 0.28091 0.91553 0.0
C1653 C 0.67706 0.28203 0.90605 0.0
C1654 C 0.67627 0.29147 0.89499 0.0
C1655 C 0.68615 0.36796 0.87532 0.0
C1656 C 0.70079 0.36607 0.87586 0.0
C1657 C 0.67708 0.35657 0.87322 0.0
C1658 C 0.68247 0.34308 0.87155 0.0
C1659 C 0.69707 0.34117 0.87182 0.0
C1660 C 0.70616 0.35257 0.87389 0.0
C1661 C 0.67276 0.33091 0.87048 0.0
C1662 C 0.67366 0.32046 0.88066 0.0
C1663 C 0.66184 0.33026 0.86042 0.0
C1664 C 0.66081 0.3406 0.84896 0.0
C1665 C 0.6724 0.34329 0.84027 0.0
C1666 C 0.67141 0.35312 0.82957 0.0
C1667 C 0.65887 0.36028 0.82741 0.0
C1668 C 0.64727 0.3576 0.83592 0.0
C1669 C 0.6482 0.34779 0.84664 0.0
H1670 H 0.65813 0.36789 0.81912 0.0
H1671 H 0.66662 0.27359 0.92408 0.0
H1672 H 0.7221 0.64364 0.86995 0.0
H1673 H 0.7024 0.65899 0.86493 0.0
H1674 H 0.67368 0.62386 0.86713 0.0
H1675 H 0.69342 0.60833 0.87198 0.0
H1676 H 0.66576 0.64312 0.84693 0.0
H1677 H 0.67868 0.64274 0.89532 0.0
H1678 H 0.69488 0.64461 0.9154 0.0
H1679 H 0.70486 0.68701 0.90439 0.0
H1680 H 0.68886 0.68533 0.8841 0.0
H1681 H 0.60436 0.67998 0.86889 0.0
H1682 H 0.62408 0.66417 0.86561 0.0
H1683 H 0.65268 0.69942 0.86398 0.0
H1684 H 0.63308 0.71532 0.86733 0.0
H1685 H 0.6607 0.68004 0.88293 0.0
H1686 H 0.64591 0.68046 0.83506 0.0
H1687 H 0.62904 0.67806 0.81558 0.0
H1688 H 0.62158 0.63511 0.82633 0.0
H1689 H 0.63827 0.6373 0.84601 0.0
C1690 C 0.71163 0.63911 0.86909 0.0
C1691 C 0.70927 0.62481 0.87157 0.0
C1692 C 0.70039 0.6479 0.86623 0.0
C1693 C 0.68658 0.64259 0.86594 0.0
C1694 C 0.68427 0.62816 0.86737 0.0
C1695 C 0.69555 0.61931 0.87017 0.0
C1696 C 0.67456 0.65228 0.8656 0.0
C1697 C 0.66456 0.65113 0.85484 0.0
C1698 C 0.6731 0.66279 0.87588 0.0
C1699 C 0.68269 0.66386 0.88811 0.0
C1700 C 0.68441 0.65243 0.89711 0.0
C1701 C 0.69355 0.65346 0.90855 0.0
C1702 C 0.70092 0.66591 0.91115 0.0
C1703 C 0.69916 0.67737 0.90235 0.0
C1704 C 0.69005 0.67638 0.89088 0.0
C1705 C 0.61481 0.6844 0.86765 0.0
C1706 C 0.61715 0.69892 0.86848 0.0
C1707 C 0.62606 0.67533 0.8657 0.0
C1708 C 0.63983 0.68063 0.86451 0.0
C1709 C 0.64213 0.69513 0.86488 0.0
C1710 C 0.6309 0.7042 0.86678 0.0
C1711 C 0.65195 0.67106 0.86414 0.0
C1712 C 0.66194 0.67215 0.8749 0.0
C1713 C 0.65327 0.66045 0.85394 0.0
C1714 C 0.64325 0.65909 0.8421 0.0
C1715 C 0.64059 0.67054 0.83335 0.0
C1716 C 0.63107 0.66921 0.82225 0.0
C1717 C 0.62422 0.65645 0.81974 0.0
C1718 C 0.62689 0.64499 0.8283 0.0
C1719 C 0.63638 0.64626 0.83942 0.0
H1720 H 0.61686 0.65544 0.81114 0.0
H1721 H 0.70798 0.66669 0.92002 0.0
H1722 H 0.61171 0.69428 0.10778 0.0
H1723 H 0.62694 0.67546 0.11573 0.0
H1724 H 0.65961 0.70566 0.12551 0.0
H1725 H 0.64462 0.72442 0.11715 0.0
H1726 H 0.66916 0.68663 0.10897 0.0
H1727 H 0.64231 0.68565 0.15108 0.0
H1728 H 0.62083 0.6844 0.16533 0.0
H1729 H 0.61091 0.64395 0.14824 0.0
H1730 H 0.63223 0.64503 0.13372 0.0
H1731 H 0.71914 0.63952 0.12878 0.0
H1732 H 0.70109 0.65668 0.134 0.0
H1733 H 0.66905 0.62827 0.11859 0.0
H1734 H 0.68705 0.61087 0.11364 0.0
H1735 H 0.65924 0.64634 0.13999 0.0
H1736 H 0.68378 0.64873 0.09604 0.0
H1737 H 0.70496 0.64955 0.08131 0.0
H1738 H 0.71847 0.68752 0.10151 0.0
H1739 H 0.69746 0.68679 0.11652 0.0
C1740 C 0.62203 0.69692 0.1119 0.0
C1741 C 0.62706 0.71079 0.11168 0.0
C1742 C 0.6307 0.68616 0.11653 0.0
C1743 C 0.64442 0.68914 0.12125 0.0
C1744 C 0.64908 0.7031 0.12187 0.0
C1745 C 0.64051 0.71382 0.11707 0.0
C1746 C 0.65456 0.67771 0.1237 0.0
C1747 C 0.66708 0.67802 0.11603 0.0
C1748 C 0.65165 0.66617 0.13249 0.0
C1749 C 0.63882 0.66548 0.14122 0.0
C1750 C 0.63549 0.67654 0.15027 0.0
C1751 C 0.62335 0.67584 0.15841 0.0
C1752 C 0.61449 0.66411 0.15767 0.0
C1753 C 0.61778 0.65303 0.1488 0.0
C1754 C 0.6299 0.65367 0.14062 0.0
C1755 C 0.7082 0.63674 0.12692 0.0
C1756 C 0.7045 0.62399 0.12054 0.0
C1757 C 0.69791 0.64654 0.12994 0.0
C1758 C 0.6838 0.64384 0.12638 0.0
C1759 C 0.67989 0.63055 0.12138 0.0
C1760 C 0.6902 0.62065 0.1185 0.0
C1761 C 0.6738 0.65553 0.12547 0.0
C1762 C 0.66132 0.65516 0.1332 0.0
C1763 C 0.67662 0.66705 0.11666 0.0
C1764 C 0.68914 0.66762 0.1075 0.0
C1765 C 0.69132 0.6572 0.0974 0.0
C1766 C 0.70329 0.65765 0.089 0.0
C1767 C 0.71308 0.66856 0.0905 0.0
C1768 C 0.71089 0.67906 0.10038 0.0
C1769 C 0.69896 0.67864 0.10883 0.0
H1770 H 0.72233 0.66889 0.08398 0.0
H1771 H 0.6051 0.6636 0.16399 0.0
H1772 H 0.35539 0.71066 0.11225 0.0
H1773 H 0.33675 0.69298 0.11431 0.0
H1774 H 0.36763 0.6604 0.11176 0.0
H1775 H 0.38628 0.67793 0.10952 0.0
H1776 H 0.34662 0.65627 0.09348 0.0
H1777 H 0.3507 0.66748 0.14224 0.0
H1778 H 0.35114 0.68303 0.16277 0.0
H1779 H 0.3089 0.69579 0.1538 0.0
H1780 H 0.30827 0.68045 0.13309 0.0
H1781 H 0.30442 0.59772 0.10685 0.0
H1782 H 0.32211 0.61609 0.11006 0.0
H1783 H 0.28949 0.647 0.11176 0.0
H1784 H 0.27161 0.6286 0.10876 0.0
H1785 H 0.31066 0.65256 0.13063 0.0
H1786 H 0.30654 0.642 0.08194 0.0
H1787 H 0.3058 0.6268 0.06115 0.0
H1788 H 0.34796 0.61347 0.06963 0.0
H1789 H 0.34887 0.62845 0.0906 0.0
C1790 C 0.35824 0.69974 0.11231 0.0
C1791 C 0.37233 0.69571 0.11062 0.0
C1792 C 0.34757 0.68965 0.11355 0.0
C1793 C 0.35082 0.67538 0.11322 0.0
C1794 C 0.3649 0.67136 0.112 0.0
C1795 C 0.37555 0.68141 0.11074 0.0
C1796 C 0.33951 0.66459 0.11307 0.0
C1797 C 0.3389 0.65533 0.10172 0.0
C1798 C 0.32914 0.6637 0.12358 0.0
C1799 C 0.32949 0.67292 0.13603 0.0
C1800 C 0.34155 0.67369 0.14457 0.0
C1801 C 0.34182 0.68245 0.15626 0.0
C1802 C 0.33007 0.69043 0.15956 0.0
C1803 C 0.31801 0.68963 0.15121 0.0
C1804 C 0.31768 0.68089 0.13951 0.0
C1805 C 0.30096 0.6084 0.10803 0.0
C1806 C 0.28659 0.61171 0.10737 0.0
C1807 C 0.3111 0.61889 0.10985 0.0
C1808 C 0.30711 0.63292 0.1109 0.0
C1809 C 0.29277 0.63623 0.11091 0.0
C1810 C 0.28258 0.62571 0.10915 0.0
C1811 C 0.31798 0.64413 0.11118 0.0
C1812 C 0.31844 0.6535 0.12245 0.0
C1813 C 0.3282 0.64522 0.10056 0.0
C1814 C 0.32772 0.63625 0.08791 0.0
C1815 C 0.31561 0.63575 0.07943 0.0
C1816 C 0.31517 0.62718 0.06761 0.0
C1817 C 0.32681 0.61914 0.06409 0.0
C1818 C 0.33894 0.61969 0.07238 0.0
C1819 C 0.33943 0.62822 0.08423 0.0
H1820 H 0.32645 0.61252 0.05493 0.0
H1821 H 0.33031 0.6972 0.16861 0.0
H1822 H 0.67453 0.37627 0.1082 0.0
H1823 H 0.65882 0.35653 0.11266 0.0
H1824 H 0.69446 0.32917 0.11569 0.0
H1825 H 0.71034 0.34893 0.11108 0.0
H1826 H 0.6747 0.31888 0.09825 0.0
H1827 H 0.67544 0.33655 0.14454 0.0
H1828 H 0.67415 0.35431 0.16314 0.0
H1829 H 0.63135 0.36281 0.15182 0.0
H1830 H 0.63243 0.34525 0.13301 0.0
H1831 H 0.62627 0.26324 0.11094 0.0
H1832 H 0.64565 0.27969 0.11553 0.0
H1833 H 0.61715 0.31419 0.11139 0.0
H1834 H 0.59772 0.2979 0.10695 0.0
H1835 H 0.63589 0.31844 0.13265 0.0
H1836 H 0.63681 0.30399 0.08416 0.0
H1837 H 0.63799 0.28675 0.06506 0.0
H1838 H 0.67782 0.27259 0.08051 0.0
H1839 H 0.67678 0.28965 0.09982 0.0
C1840 C 0.67908 0.36611 0.10998 0.0
C1841 C 0.6937 0.36418 0.10921 0.0
C1842 C 0.67007 0.35483 0.11263 0.0
C1843 C 0.67548 0.3414 0.11464 0.0
C1844 C 0.69009 0.33947 0.11422 0.0
C1845 C 0.69913 0.35078 0.1116 0.0
C1846 C 0.66573 0.32929 0.116 0.0
C1847 C 0.66643 0.3186 0.10601 0.0
C1848 C 0.65479 0.32907 0.12596 0.0
C1849 C 0.65405 0.33962 0.1373 0.0
C1850 C 0.66578 0.34227 0.14595 0.0
C1851 C 0.66508 0.3523 0.15654 0.0
C1852 C 0.65268 0.35969 0.15865 0.0
C1853 C 0.64095 0.35707 0.15017 0.0
C1854 C 0.64159 0.34706 0.13956 0.0
C1855 C 0.62408 0.27432 0.11117 0.0
C1856 C 0.61046 0.27926 0.10843 0.0
C1857 C 0.63518 0.28369 0.11377 0.0
C1858 C 0.63285 0.29815 0.11364 0.0
C1859 C 0.61917 0.30307 0.11154 0.0
C1860 C 0.60809 0.29373 0.10892 0.0
C1861 C 0.64472 0.30826 0.11473 0.0
C1862 C 0.64438 0.31858 0.12514 0.0
C1863 C 0.65598 0.30818 0.10513 0.0
C1864 C 0.65663 0.29796 0.09352 0.0
C1865 C 0.64576 0.29712 0.08354 0.0
C1866 C 0.64642 0.2874 0.07267 0.0
C1867 C 0.65795 0.27854 0.0716 0.0
C1868 C 0.66888 0.27943 0.08137 0.0
C1869 C 0.66826 0.28912 0.09228 0.0
H1870 H 0.65844 0.27102 0.06318 0.0
H1871 H 0.65216 0.36745 0.16685 0.0
H1872 H 0.61426 0.87532 0.79573 0.0
H1873 H 0.62104 0.85809 0.81324 0.0
H1874 H 0.63343 0.82976 0.78059 0.0
H1875 H 0.6264 0.84678 0.76308 0.0
H1876 H 0.61389 0.8185 0.79656 0.0
H1877 H 0.6574 0.84294 0.80453 0.0
H1878 H 0.67267 0.86332 0.80961 0.0
H1879 H 0.65245 0.86873 0.84914 0.0
H1880 H 0.63691 0.84849 0.84422 0.0
H1881 H 0.62604 0.76253 0.83995 0.0
H1882 H 0.63308 0.78169 0.82465 0.0
H1883 H 0.61944 0.81155 0.85537 0.0
H1884 H 0.61279 0.79239 0.87095 0.0
H1885 H 0.64185 0.8218 0.84027 0.0
H1886 H 0.59662 0.80031 0.83123 0.0
H1887 H 0.58033 0.78058 0.82659 0.0
H1888 H 0.6028 0.77077 0.78916 0.0
H1889 H 0.61935 0.79034 0.7937 0.0
C1890 C 0.61883 0.86559 0.79231 0.0
C1891 C 0.6196 0.86229 0.77805 0.0
C1892 C 0.62275 0.85576 0.80233 0.0
C1893 C 0.62769 0.8426 0.79822 0.0
C1894 C 0.62958 0.83981 0.78399 0.0
C1895 C 0.62555 0.84955 0.774 0.0
C1896 C 0.62866 0.83104 0.80843 0.0
C1897 C 0.6203 0.81912 0.80594 0.0
C1898 C 0.63656 0.83207 0.82094 0.0
C1899 C 0.6459 0.84425 0.82394 0.0
C1900 C 0.65612 0.84854 0.81425 0.0
C1901 C 0.66485 0.86006 0.81712 0.0
C1902 C 0.66351 0.86734 0.82968 0.0
C1903 C 0.65347 0.86309 0.83941 0.0
C1904 C 0.64471 0.85158 0.8366 0.0
C1905 C 0.62488 0.77318 0.8436 0.0
C1906 C 0.61864 0.77599 0.85653 0.0
C1907 C 0.62892 0.78411 0.83485 0.0
C1908 C 0.62647 0.79802 0.83875 0.0
C1909 C 0.62137 0.80089 0.85215 0.0
C1910 C 0.61752 0.78993 0.86101 0.0
C1911 C 0.62726 0.80928 0.8282 0.0
C1912 C 0.63573 0.82115 0.83072 0.0
C1913 C 0.61932 0.80836 0.81571 0.0
C1914 C 0.60931 0.79668 0.81289 0.0
C1915 C 0.59814 0.79388 0.82206 0.0
C1916 C 0.58886 0.78274 0.81944 0.0
C1917 C 0.59055 0.7744 0.80761 0.0
C1918 C 0.60151 0.77722 0.79834 0.0
C1919 C 0.61084 0.78834 0.80093 0.0
H1920 H 0.58336 0.76578 0.80559 0.0
H1921 H 0.67028 0.87625 0.83187 0.0
H1922 H 0.22012 0.61119 0.84001 0.0
H1923 H 0.20004 0.6152 0.82468 0.0
H1924 H 0.17251 0.61606 0.86028 0.0
H1925 H 0.19256 0.61184 0.87571 0.0
H1926 H 0.16377 0.59743 0.84143 0.0
H1927 H 0.17795 0.64535 0.84041 0.0
H1928 H 0.19431 0.66533 0.8378 0.0
H1929 H 0.20205 0.6535 0.79535 0.0
H1930 H 0.18589 0.63333 0.79776 0.0
H1931 H 0.1036 0.60673 0.79947 0.0
H1932 H 0.12209 0.61156 0.8166 0.0
H1933 H 0.15326 0.61045 0.78411 0.0
H1934 H 0.13478 0.60589 0.76681 0.0
H1935 H 0.15892 0.63122 0.80264 0.0
H1936 H 0.14735 0.58211 0.80447 0.0
H1937 H 0.13158 0.56163 0.80683 0.0
H1938 H 0.11965 0.5754 0.84769 0.0
H1939 H 0.13523 0.59607 0.84549 0.0
C1940 C 0.20984 0.61255 0.84462 0.0
C1941 C 0.2079 0.61106 0.85906 0.0
C1942 C 0.19837 0.61492 0.83584 0.0
C1943 C 0.18477 0.61596 0.84134 0.0
C1944 C 0.18292 0.61529 0.85583 0.0
C1945 C 0.19439 0.61291 0.86463 0.0
C1946 C 0.1724 0.61596 0.83187 0.0
C1947 C 0.16254 0.60503 0.83315 0.0
C1948 C 0.17104 0.62561 0.82081 0.0
C1949 C 0.18077 0.63775 0.81931 0.0
C1950 C 0.18323 0.64694 0.83055 0.0
C1951 C 0.19245 0.65832 0.8291 0.0
C1952 C 0.19923 0.66067 0.81643 0.0
C1953 C 0.19679 0.65166 0.80516 0.0
C1954 C 0.18758 0.64026 0.80656 0.0
C1955 C 0.11438 0.60758 0.79593 0.0
C1956 C 0.11773 0.60576 0.78178 0.0
C1957 C 0.12493 0.61034 0.80574 0.0
C1958 C 0.13906 0.61116 0.80165 0.0
C1959 C 0.14242 0.60984 0.78748 0.0
C1960 C 0.13184 0.60716 0.77762 0.0
C1961 C 0.1504 0.61267 0.81222 0.0
C1962 C 0.16007 0.6238 0.81108 0.0
C1963 C 0.15167 0.60315 0.8234 0.0
C1964 C 0.14233 0.59071 0.82475 0.0
C1965 C 0.14128 0.58082 0.81391 0.0
C1966 C 0.13239 0.56917 0.81523 0.0
C1967 C 0.12458 0.56724 0.82739 0.0
C1968 C 0.12569 0.57693 0.83827 0.0
C1969 C 0.13455 0.58861 0.837 0.0
H1970 H 0.11771 0.55821 0.82839 0.0
H1971 H 0.20637 0.66949 0.81532 0.0
H1972 H 0.36702 0.10351 0.80505 0.0
H1973 H 0.36289 0.12441 0.81907 0.0
H1974 H 0.35985 0.14907 0.78166 0.0
H1975 H 0.36399 0.12828 0.76753 0.0
H1976 H 0.37895 0.15964 0.80024 0.0
H1977 H 0.33115 0.14362 0.80097 0.0
H1978 H 0.31178 0.12665 0.80444 0.0
H1979 H 0.32293 0.12308 0.8477 0.0
H1980 H 0.3425 0.13988 0.84444 0.0
H1981 H 0.36734 0.22236 0.83514 0.0
H1982 H 0.36155 0.20242 0.82016 0.0
H1983 H 0.3636 0.17493 0.85564 0.0
H1984 H 0.36911 0.1949 0.87078 0.0
H1985 H 0.3432 0.16645 0.83709 0.0
H1986 H 0.39215 0.1798 0.83609 0.0
H1987 H 0.4122 0.19609 0.83317 0.0
H1988 H 0.3996 0.20371 0.79086 0.0
H1989 H 0.37935 0.1876 0.79359 0.0
C1990 C 0.36527 0.11334 0.79978 0.0
C1991 C 0.36595 0.11424 0.78517 0.0
C1992 C 0.36283 0.12526 0.80782 0.0
C1993 C 0.36102 0.13826 0.80139 0.0
C1994 C 0.36121 0.13912 0.7868 0.0
C1995 C 0.36357 0.12721 0.77876 0.0
C1996 C 0.36033 0.15116 0.8099 0.0
C1997 C 0.37095 0.16126 0.80809 0.0
C1998 C 0.35014 0.15303 0.82042 0.0
C1999 C 0.33838 0.14292 0.82243 0.0
C2000 C 0.32955 0.13912 0.8112 0.0
C2001 C 0.31852 0.12956 0.81313 0.0
C2002 C 0.31615 0.12377 0.82627 0.0
C2003 C 0.32478 0.12757 0.83752 0.0
C2004 C 0.33584 0.13712 0.83564 0.0
C2005 C 0.36627 0.21211 0.83981 0.0
C2006 C 0.36889 0.21015 0.85409 0.0
C2007 C 0.36297 0.20074 0.83123 0.0
C2008 C 0.36244 0.18718 0.83676 0.0
C2009 C 0.36401 0.18531 0.85118 0.0
C2010 C 0.36721 0.19672 0.8598 0.0
C2011 C 0.36178 0.1749 0.82735 0.0
C2012 C 0.35104 0.16489 0.82907 0.0
C2013 C 0.37194 0.17299 0.81679 0.0
C2014 C 0.38415 0.18262 0.81509 0.0
C2015 C 0.3936 0.18503 0.82619 0.0
C2016 C 0.40501 0.19422 0.82457 0.0
C2017 C 0.40715 0.20096 0.81185 0.0
C2018 C 0.39791 0.1985 0.80071 0.0
C2019 C 0.38647 0.18934 0.80229 0.0
H2020 H 0.41599 0.20807 0.81061 0.0
H2021 H 0.3076 0.11637 0.82775 0.0
H2022 H 0.8718 0.37105 0.78669 0.0
H2023 H 0.85887 0.36311 0.80724 0.0
H2024 H 0.82044 0.36191 0.78313 0.0
H2025 H 0.83327 0.36969 0.76258 0.0
H2026 H 0.83892 0.37825 0.81912 0.0
H2027 H 0.79717 0.3391 0.79633 0.0
H2028 H 0.79608 0.31985 0.77922 0.0
H2029 H 0.84033 0.31297 0.78456 0.0
H2030 H 0.84167 0.33203 0.80185 0.0
H2031 H 0.76403 0.36723 0.84101 0.0
H2032 H 0.78311 0.3609 0.82547 0.0
H2033 H 0.81215 0.36129 0.86017 0.0
H2034 H 0.79306 0.36794 0.87583 0.0
H2035 H 0.80257 0.34082 0.82238 0.0
H2036 H 0.84245 0.37724 0.84905 0.0
H2037 H 0.84323 0.39736 0.86521 0.0
H2038 H 0.80273 0.41043 0.8505 0.0
H2039 H 0.8018 0.39048 0.83417 0.0
C2040 C 0.86065 0.36878 0.78569 0.0
C2041 C 0.85352 0.37112 0.77305 0.0
C2042 C 0.85329 0.36425 0.79745 0.0
C2043 C 0.83871 0.36184 0.79672 0.0
C2044 C 0.83172 0.36346 0.7839 0.0
C2045 C 0.83906 0.36802 0.77217 0.0
C2046 C 0.83042 0.35955 0.80958 0.0
C2047 C 0.83127 0.36981 0.82003 0.0
C2048 C 0.82027 0.34868 0.81066 0.0
C2049 C 0.81952 0.33707 0.80036 0.0
C2050 C 0.80666 0.33343 0.79393 0.0
C2051 C 0.806 0.32256 0.78418 0.0
C2052 C 0.81814 0.31521 0.78079 0.0
C2053 C 0.83095 0.3187 0.78716 0.0
C2054 C 0.83166 0.32955 0.79693 0.0
C2055 C 0.77442 0.36574 0.84541 0.0
C2056 C 0.7771 0.36833 0.85961 0.0
C2057 C 0.78531 0.36202 0.83651 0.0
C2058 C 0.79909 0.36083 0.84162 0.0
C2059 C 0.80161 0.36234 0.85599 0.0
C2060 C 0.7907 0.36612 0.86492 0.0
C2061 C 0.81083 0.35976 0.83158 0.0
C2062 C 0.81058 0.34895 0.82166 0.0
C2063 C 0.8215 0.37018 0.83089 0.0
C2064 C 0.82198 0.38228 0.84056 0.0
C2065 C 0.83373 0.38442 0.84927 0.0
C2066 C 0.8342 0.3958 0.85845 0.0
C2067 C 0.82301 0.40513 0.85893 0.0
C2068 C 0.81136 0.40316 0.85017 0.0
C2069 C 0.81085 0.39182 0.84096 0.0
H2070 H 0.82339 0.41392 0.86605 0.0
H2071 H 0.81761 0.3068 0.77323 0.0
H2072 H 0.61052 0.21441 0.14142 0.0
H2073 H 0.61873 0.19516 0.15579 0.0
H2074 H 0.61844 0.168 0.11982 0.0
H2075 H 0.61008 0.18727 0.10533 0.0
H2076 H 0.60381 0.15697 0.14095 0.0
H2077 H 0.6495 0.17657 0.13567 0.0
H2078 H 0.66774 0.19507 0.13523 0.0
H2079 H 0.66109 0.2033 0.1787 0.0
H2080 H 0.64265 0.18499 0.17937 0.0
H2081 H 0.61836 0.10379 0.1892 0.0
H2082 H 0.62392 0.11883 0.16931 0.0
H2083 H 0.62292 0.15504 0.19615 0.0
H2084 H 0.61765 0.14013 0.21603 0.0
H2085 H 0.64242 0.15839 0.17593 0.0
H2086 H 0.59335 0.14368 0.1793 0.0
H2087 H 0.57414 0.12616 0.18025 0.0
H2088 H 0.58664 0.10977 0.14054 0.0
H2089 H 0.60605 0.1271 0.13946 0.0
C2090 C 0.61243 0.20441 0.1365 0.0
C2091 C 0.60956 0.20233 0.12226 0.0
C2092 C 0.61723 0.19343 0.14472 0.0
C2093 C 0.61932 0.18016 0.13886 0.0
C2094 C 0.61696 0.17818 0.12453 0.0
C2095 C 0.61219 0.1892 0.11628 0.0
C2096 C 0.62232 0.16813 0.14806 0.0
C2097 C 0.61251 0.15708 0.14832 0.0
C2098 C 0.6335 0.16841 0.15787 0.0
C2099 C 0.64463 0.17942 0.15755 0.0
C2100 C 0.65185 0.18238 0.14512 0.0
C2101 C 0.66224 0.19283 0.14483 0.0
C2102 C 0.66556 0.20036 0.15692 0.0
C2103 C 0.65851 0.19745 0.16934 0.0
C2104 C 0.6481 0.18701 0.16969 0.0
C2105 C 0.6197 0.11491 0.19092 0.0
C2106 C 0.61734 0.12081 0.20413 0.0
C2107 C 0.62284 0.12349 0.17954 0.0
C2108 C 0.62356 0.13807 0.18121 0.0
C2109 C 0.62238 0.14382 0.19461 0.0
C2110 C 0.61928 0.13528 0.20597 0.0
C2111 C 0.62371 0.14751 0.16899 0.0
C2112 C 0.63403 0.15809 0.16823 0.0
C2113 C 0.61292 0.1469 0.15877 0.0
C2114 C 0.60124 0.13654 0.15939 0.0
C2115 C 0.59205 0.13627 0.17083 0.0
C2116 C 0.58113 0.12639 0.17138 0.0
C2117 C 0.5792 0.11683 0.16048 0.0
C2118 C 0.58817 0.11716 0.14899 0.0
C2119 C 0.59913 0.127 0.1484 0.0
H2120 H 0.57073 0.10919 0.16093 0.0
H2121 H 0.6736 0.20845 0.15667 0.0
H2122 H 0.87614 0.60026 0.18748 0.0
H2123 H 0.85721 0.60524 0.17111 0.0
H2124 H 0.82793 0.60838 0.20514 0.0
H2125 H 0.84687 0.60325 0.22171 0.0
H2126 H 0.81783 0.59191 0.18429 0.0
H2127 H 0.838 0.63751 0.18803 0.0
H2128 H 0.85695 0.65532 0.18837 0.0
H2129 H 0.86716 0.64542 0.14597 0.0
H2130 H 0.84841 0.6274 0.14542 0.0
H2131 H 0.76461 0.61049 0.13588 0.0
H2132 H 0.78084 0.61271 0.15562 0.0
H2133 H 0.81608 0.60892 0.12778 0.0
H2134 H 0.79999 0.60689 0.10796 0.0
H2135 H 0.82115 0.62842 0.1478 0.0
H2136 H 0.80359 0.58078 0.14536 0.0
H2137 H 0.78507 0.56252 0.14485 0.0
H2138 H 0.77034 0.57613 0.18483 0.0
H2139 H 0.78868 0.5946 0.18549 0.0
C2140 C 0.86571 0.60209 0.19154 0.0
C2141 C 0.86302 0.60133 0.20592 0.0
C2142 C 0.85491 0.60503 0.18215 0.0
C2143 C 0.84121 0.60735 0.18693 0.0
C2144 C 0.83846 0.60669 0.20127 0.0
C2145 C 0.84929 0.60377 0.2107 0.0
C2146 C 0.82969 0.60964 0.17677 0.0
C2147 C 0.81838 0.6001 0.17651 0.0
C2148 C 0.83057 0.62017 0.16647 0.0
C2149 C 0.84184 0.63103 0.16672 0.0
C2150 C 0.84435 0.63905 0.17881 0.0
C2151 C 0.85505 0.6492 0.17903 0.0
C2152 C 0.86327 0.65148 0.16721 0.0
C2153 C 0.86079 0.64364 0.15512 0.0
C2154 C 0.85011 0.63347 0.15484 0.0
C2155 C 0.77582 0.61028 0.13393 0.0
C2156 C 0.781 0.60836 0.12035 0.0
C2157 C 0.78507 0.61152 0.14523 0.0
C2158 C 0.79964 0.61079 0.14317 0.0
C2159 C 0.80486 0.6095 0.12959 0.0
C2160 C 0.79564 0.60828 0.11828 0.0
C2161 C 0.80949 0.61053 0.15517 0.0
C2162 C 0.82048 0.62042 0.15576 0.0
C2163 C 0.80836 0.6003 0.16575 0.0
C2164 C 0.79739 0.58917 0.16539 0.0
C2165 C 0.79633 0.57994 0.15399 0.0
C2166 C 0.78588 0.56955 0.15368 0.0
C2167 C 0.77651 0.5682 0.16478 0.0
C2168 C 0.77759 0.57721 0.17623 0.0
C2169 C 0.78801 0.58764 0.17658 0.0
H2170 H 0.76842 0.56014 0.16453 0.0
H2171 H 0.87154 0.65934 0.1674 0.0
H2172 H 0.37069 0.76446 0.14492 0.0
H2173 H 0.3639 0.78534 0.15778 0.0
H2174 H 0.36129 0.80835 0.11928 0.0
H2175 H 0.3682 0.78751 0.10632 0.0
H2176 H 0.37876 0.82071 0.13775 0.0
H2177 H 0.33192 0.80235 0.13854 0.0
H2178 H 0.31332 0.78459 0.14221 0.0
H2179 H 0.32408 0.78261 0.18567 0.0
H2180 H 0.34288 0.80021 0.18222 0.0
H2181 H 0.36495 0.88289 0.17407 0.0
H2182 H 0.36085 0.86316 0.15831 0.0
H2183 H 0.36226 0.83479 0.19313 0.0
H2184 H 0.36599 0.85448 0.20902 0.0
H2185 H 0.34278 0.82633 0.17456 0.0
H2186 H 0.39143 0.84113 0.17338 0.0
H2187 H 0.41099 0.85798 0.17036 0.0
H2188 H 0.39773 0.86551 0.12822 0.0
H2189 H 0.37797 0.84883 0.13106 0.0
C2190 C 0.36835 0.77387 0.13915 0.0
C2191 C 0.37012 0.77438 0.12462 0.0
C2192 C 0.3644 0.78579 0.14652 0.0
C2193 C 0.36207 0.79839 0.13948 0.0
C2194 C 0.36304 0.79871 0.1249 0.0
C2195 C 0.36697 0.78679 0.11752 0.0
C2196 C 0.36049 0.81154 0.14748 0.0
C2197 C 0.37066 0.82208 0.14555 0.0
C2198 C 0.35021 0.81311 0.15796 0.0
C2199 C 0.33888 0.80254 0.16009 0.0
C2200 C 0.3304 0.79805 0.14886 0.0
C2201 C 0.3198 0.78803 0.15091 0.0
C2202 C 0.31754 0.78246 0.16416 0.0
C2203 C 0.32585 0.78693 0.1754 0.0
C2204 C 0.33646 0.79694 0.17341 0.0
C2205 C 0.36423 0.87247 0.17841 0.0
C2206 C 0.36598 0.87023 0.19279 0.0
C2207 C 0.36189 0.86121 0.16938 0.0
C2208 C 0.3615 0.84749 0.17452 0.0
C2209 C 0.36255 0.84529 0.18894 0.0
C2210 C 0.36475 0.85656 0.198 0.0
C2211 C 0.3611 0.83539 0.16485 0.0
C2212 C 0.35066 0.82504 0.16653 0.0
C2213 C 0.37124 0.83386 0.15422 0.0
C2214 C 0.38313 0.84387 0.15248 0.0
C2215 C 0.39262 0.84647 0.1635 0.0
C2216 C 0.40376 0.85597 0.16182 0.0
C2217 C 0.40558 0.86285 0.14912 0.0
C2218 C 0.39629 0.8602 0.13806 0.0
C2219 C 0.38512 0.85072 0.1397 0.0
H2220 H 0.4142 0.8702 0.14783 0.0
H2221 H 0.30933 0.7747 0.16572 0.0
H2222 H 0.21195 0.36841 0.13077 0.0
H2223 H 0.19591 0.36432 0.15009 0.0
H2224 H 0.1609 0.36212 0.12134 0.0
H2225 H 0.17686 0.36656 0.10194 0.0
H2226 H 0.15548 0.37953 0.14148 0.0
H2227 H 0.17218 0.33292 0.13969 0.0
H2228 H 0.18974 0.3142 0.13863 0.0
H2229 H 0.20675 0.32734 0.17813 0.0
H2230 H 0.18943 0.34628 0.17935 0.0
H2231 H 0.10902 0.36959 0.19771 0.0
H2232 H 0.12201 0.36303 0.17678 0.0
H2233 H 0.16121 0.36908 0.19893 0.0
H2234 H 0.14833 0.37551 0.21992 0.0
H2235 H 0.16214 0.34663 0.18076 0.0
H2236 H 0.14807 0.39522 0.18025 0.0
H2237 H 0.13087 0.4143 0.18127 0.0
H2238 H 0.10916 0.39718 0.14566 0.0
H2239 H 0.12614 0.37788 0.14455 0.0
C2240 C 0.20087 0.36684 0.12851 0.0
C2241 C 0.19568 0.36793 0.11481 0.0
C2242 C 0.19171 0.3644 0.13958 0.0
C2243 C 0.1772 0.36279 0.13717 0.0
C2244 C 0.17205 0.36332 0.12344 0.0
C2245 C 0.1812 0.36586 0.11237 0.0
C2246 C 0.16732 0.36202 0.14907 0.0
C2247 C 0.15673 0.37209 0.14989 0.0
C2248 C 0.16912 0.35252 0.16021 0.0
C2249 C 0.17954 0.34109 0.15956 0.0
C2250 C 0.17972 0.33189 0.14811 0.0
C2251 C 0.18963 0.32122 0.14748 0.0
C2252 C 0.19937 0.3196 0.15829 0.0
C2253 C 0.1992 0.32862 0.16976 0.0
C2254 C 0.18932 0.33931 0.17044 0.0
C2255 C 0.1204 0.36927 0.1982 0.0
C2256 C 0.12767 0.37324 0.2104 0.0
C2257 C 0.1278 0.36553 0.18623 0.0
C2258 C 0.14257 0.36576 0.18627 0.0
C2259 C 0.14982 0.36885 0.19869 0.0
C2260 C 0.14244 0.37259 0.21065 0.0
C2261 C 0.15051 0.36422 0.17313 0.0
C2262 C 0.16074 0.35381 0.17215 0.0
C2263 C 0.14841 0.3734 0.16181 0.0
C2264 C 0.13825 0.38503 0.16243 0.0
C2265 C 0.13956 0.39547 0.17271 0.0
C2266 C 0.12987 0.40633 0.17329 0.0
C2267 C 0.1189 0.40692 0.16356 0.0
C2268 C 0.11764 0.39668 0.1532 0.0
C2269 C 0.12729 0.38579 0.15259 0.0
H2270 H 0.11141 0.41534 0.16403 0.0
H2271 H 0.20703 0.31133 0.15779 0.0
H2272 H 0.80574 0.61046 0.88266 0.0
H2273 H 0.82192 0.61539 0.86363 0.0
H2274 H 0.78684 0.61989 0.83535 0.0
H2275 H 0.77052 0.61478 0.85433 0.0
H2276 H 0.8059 0.60247 0.82512 0.0
H2277 H 0.80691 0.64822 0.8446 0.0
H2278 H 0.80896 0.6661 0.86306 0.0
H2279 H 0.85129 0.65341 0.87167 0.0
H2280 H 0.84943 0.6353 0.85339 0.0
H2281 H 0.85288 0.61793 0.7701 0.0
H2282 H 0.83432 0.62174 0.78718 0.0
H2283 H 0.86397 0.61495 0.82059 0.0
H2284 H 0.88263 0.61125 0.80364 0.0
H2285 H 0.84581 0.63633 0.82648 0.0
H2286 H 0.84335 0.58866 0.80953 0.0
H2287 H 0.84136 0.57043 0.79139 0.0
H2288 H 0.80155 0.58679 0.77836 0.0
H2289 H 0.80339 0.60525 0.79632 0.0
C2290 C 0.80143 0.61268 0.87244 0.0
C2291 C 0.78683 0.61214 0.87001 0.0
C2292 C 0.8107 0.61558 0.86158 0.0
C2293 C 0.80558 0.61812 0.84809 0.0
C2294 C 0.791 0.61799 0.8457 0.0
C2295 C 0.7817 0.61508 0.85656 0.0
C2296 C 0.81551 0.61967 0.83634 0.0
C2297 C 0.81443 0.6101 0.82526 0.0
C2298 C 0.8268 0.62943 0.83667 0.0
C2299 C 0.82799 0.64033 0.84767 0.0
C2300 C 0.81662 0.64916 0.85049 0.0
C2301 C 0.81775 0.65936 0.86092 0.0
C2302 C 0.83024 0.66087 0.86855 0.0
C2303 C 0.84162 0.65222 0.86575 0.0
C2304 C 0.84054 0.642 0.85534 0.0
C2305 C 0.85551 0.61741 0.78108 0.0
C2306 C 0.86922 0.61413 0.7855 0.0
C2307 C 0.84488 0.61958 0.79082 0.0
C2308 C 0.84775 0.61846 0.80513 0.0
C2309 C 0.86154 0.61585 0.80959 0.0
C2310 C 0.87218 0.61367 0.79987 0.0
C2311 C 0.83627 0.61902 0.81545 0.0
C2312 C 0.8371 0.62891 0.82625 0.0
C2313 C 0.82474 0.60955 0.8149 0.0
C2314 C 0.82359 0.59843 0.80414 0.0
C2315 C 0.83423 0.58844 0.80272 0.0
C2316 C 0.83312 0.57805 0.79248 0.0
C2317 C 0.82136 0.57748 0.7837 0.0
C2318 C 0.81066 0.58726 0.78515 0.0
C2319 C 0.81173 0.59769 0.79536 0.0
H2320 H 0.82052 0.56943 0.77578 0.0
H2321 H 0.83109 0.66877 0.87661 0.0
H2322 H 0.36311 0.83542 0.76162 0.0
H2323 H 0.35681 0.82061 0.78134 0.0
H2324 H 0.36072 0.85606 0.80903 0.0
H2325 H 0.36672 0.87102 0.78927 0.0
H2326 H 0.3748 0.81561 0.80153 0.0
H2327 H 0.34196 0.84956 0.83916 0.0
H2328 H 0.32379 0.86772 0.83807 0.0
H2329 H 0.31029 0.85242 0.79802 0.0
H2330 H 0.32823 0.83405 0.79896 0.0
H2331 H 0.37009 0.79822 0.87709 0.0
H2332 H 0.36399 0.81544 0.85924 0.0
H2333 H 0.35127 0.78217 0.83138 0.0
H2334 H 0.35733 0.76495 0.84903 0.0
H2335 H 0.34027 0.82184 0.83961 0.0
H2336 H 0.37186 0.78675 0.80289 0.0
H2337 H 0.39012 0.76866 0.80419 0.0
H2338 H 0.40614 0.78691 0.84209 0.0
H2339 H 0.38814 0.80522 0.84087 0.0
C2340 C 0.36231 0.84014 0.77186 0.0
C2341 C 0.36556 0.85435 0.77393 0.0
C2342 C 0.35871 0.83166 0.78312 0.0
C2343 C 0.35833 0.83721 0.79667 0.0
C2344 C 0.36077 0.85158 0.79866 0.0
C2345 C 0.36427 0.8601 0.78736 0.0
C2346 C 0.35724 0.82766 0.80877 0.0
C2347 C 0.36705 0.81686 0.80968 0.0
C2348 C 0.34747 0.82958 0.8197 0.0
C2349 C 0.33655 0.84051 0.81908 0.0
C2350 C 0.33508 0.85004 0.83015 0.0
C2351 C 0.32482 0.86038 0.82955 0.0
C2352 C 0.31592 0.86125 0.81796 0.0
C2353 C 0.31723 0.85177 0.80696 0.0
C2354 C 0.32746 0.8414 0.80751 0.0
C2355 C 0.36554 0.7946 0.86734 0.0
C2356 C 0.36446 0.78024 0.86433 0.0
C2357 C 0.36201 0.80446 0.85718 0.0
C2358 C 0.35739 0.80002 0.84397 0.0
C2359 C 0.35492 0.78576 0.8415 0.0
C2360 C 0.35846 0.77594 0.85159 0.0
C2361 C 0.35763 0.80978 0.83207 0.0
C2362 C 0.34785 0.82062 0.8313 0.0
C2363 C 0.36746 0.80801 0.82122 0.0
C2364 C 0.37855 0.79724 0.82187 0.0
C2365 C 0.37932 0.78692 0.81146 0.0
C2366 C 0.38962 0.77663 0.81219 0.0
C2367 C 0.39925 0.7766 0.82324 0.0
C2368 C 0.39864 0.7869 0.83356 0.0
C2369 C 0.38838 0.79723 0.83286 0.0
H2370 H 0.4072 0.76861 0.8238 0.0
H2371 H 0.30799 0.86927 0.81752 0.0
H2372 H 0.17793 0.37081 0.87702 0.0
H2373 H 0.16116 0.36737 0.85799 0.0
H2374 H 0.19506 0.36879 0.82829 0.0
H2375 H 0.21199 0.37232 0.84732 0.0
H2376 H 0.17389 0.38635 0.82141 0.0
H2377 H 0.17803 0.33848 0.83379 0.0
H2378 H 0.17865 0.31813 0.84945 0.0
H2379 H 0.13591 0.32552 0.86145 0.0
H2380 H 0.13509 0.34605 0.846 0.0
H2381 H 0.12578 0.37285 0.76596 0.0
H2382 H 0.14546 0.36927 0.78202 0.0
H2383 H 0.11688 0.36965 0.81678 0.0
H2384 H 0.09712 0.37322 0.80084 0.0
H2385 H 0.13724 0.34907 0.81905 0.0
H2386 H 0.13431 0.39842 0.80918 0.0
H2387 H 0.13358 0.4191 0.79393 0.0
H2388 H 0.17417 0.40895 0.77755 0.0
H2389 H 0.17505 0.38808 0.79257 0.0
C2390 C 0.18187 0.37022 0.86647 0.0
C2391 C 0.1963 0.3719 0.86369 0.0
C2392 C 0.17227 0.36817 0.8556 0.0
C2393 C 0.17688 0.36773 0.84174 0.0
C2394 C 0.1913 0.36907 0.83893 0.0
C2395 C 0.20095 0.37105 0.84982 0.0
C2396 C 0.16649 0.36695 0.83023 0.0
C2397 C 0.16608 0.37802 0.82069 0.0
C2398 C 0.15612 0.35624 0.82951 0.0
C2399 C 0.15654 0.34388 0.8388 0.0
C2400 C 0.1688 0.33584 0.83985 0.0
C2401 C 0.16918 0.32426 0.84867 0.0
C2402 C 0.15734 0.32055 0.85646 0.0
C2403 C 0.14508 0.3284 0.85541 0.0
C2404 C 0.14465 0.34001 0.84661 0.0
C2405 C 0.12365 0.37203 0.77701 0.0
C2406 C 0.10989 0.37344 0.78214 0.0
C2407 C 0.13491 0.37001 0.78615 0.0
C2408 C 0.1326 0.36932 0.80056 0.0
C2409 C 0.11885 0.37015 0.80567 0.0
C2410 C 0.10759 0.37226 0.79655 0.0
C2411 C 0.14458 0.36855 0.81041 0.0
C2412 C 0.14523 0.35723 0.81964 0.0
C2413 C 0.15517 0.37904 0.81088 0.0
C2414 C 0.15467 0.3916 0.80186 0.0
C2415 C 0.14302 0.40053 0.80223 0.0
C2416 C 0.14259 0.4123 0.79365 0.0
C2417 C 0.1538 0.41531 0.78474 0.0
C2418 C 0.16548 0.40658 0.78443 0.0
C2419 C 0.16595 0.39479 0.79298 0.0
H2420 H 0.15345 0.42443 0.77811 0.0
H2421 H 0.15765 0.31157 0.86328 0.0
H2422 H 0.61315 0.14283 0.76279 0.0
H2423 H 0.6212 0.15627 0.78302 0.0
H2424 H 0.61812 0.11937 0.80858 0.0
H2425 H 0.61005 0.1058 0.78833 0.0
H2426 H 0.60358 0.14122 0.8192 0.0
H2427 H 0.64991 0.13361 0.80295 0.0
H2428 H 0.66917 0.13257 0.7859 0.0
H2429 H 0.66602 0.17672 0.77895 0.0
H2430 H 0.64659 0.178 0.79581 0.0
H2431 H 0.61854 0.18584 0.87567 0.0
H2432 H 0.62364 0.16642 0.85989 0.0
H2433 H 0.62623 0.19515 0.82542 0.0
H2434 H 0.62137 0.21458 0.8411 0.0
H2435 H 0.64457 0.17368 0.82221 0.0
H2436 H 0.59527 0.17994 0.83349 0.0
H2437 H 0.57515 0.18164 0.84952 0.0
H2438 H 0.58333 0.14034 0.86469 0.0
H2439 H 0.60363 0.13849 0.84886 0.0
C2440 C 0.61442 0.13751 0.77266 0.0
C2441 C 0.61087 0.12328 0.77399 0.0
C2442 C 0.61912 0.14518 0.78419 0.0
C2443 C 0.62035 0.13879 0.79729 0.0
C2444 C 0.61731 0.12447 0.79855 0.0
C2445 C 0.6127 0.11675 0.78698 0.0
C2446 C 0.62319 0.14748 0.80981 0.0
C2447 C 0.61275 0.14802 0.82007 0.0
C2448 C 0.63501 0.15657 0.81077 0.0
C2449 C 0.64672 0.15588 0.80061 0.0
C2450 C 0.65324 0.14308 0.79772 0.0
C2451 C 0.66421 0.14245 0.78809 0.0
C2452 C 0.66881 0.15457 0.78133 0.0
C2453 C 0.66245 0.16734 0.7842 0.0
C2454 C 0.65147 0.16803 0.79381 0.0
C2455 C 0.62058 0.18806 0.8648 0.0
C2456 C 0.61932 0.2017 0.85957 0.0
C2457 C 0.62347 0.17695 0.8558 0.0
C2458 C 0.62505 0.17932 0.84145 0.0
C2459 C 0.62501 0.19308 0.83645 0.0
C2460 C 0.62215 0.20417 0.84542 0.0
C2461 C 0.62481 0.16757 0.83136 0.0
C2462 C 0.63565 0.16653 0.82154 0.0
C2463 C 0.61329 0.15808 0.83068 0.0
C2464 C 0.60106 0.15915 0.84015 0.0
C2465 C 0.59284 0.17127 0.84032 0.0
C2466 C 0.5814 0.17226 0.84936 0.0
C2467 C 0.578 0.16112 0.85816 0.0
C2468 C 0.586 0.14897 0.8579 0.0
C2469 C 0.59747 0.14794 0.8489 0.0
H2470 H 0.56913 0.1619 0.86514 0.0
H2471 H 0.6773 0.15406 0.77389 0.0
H2472 H 0.87407 0.38965 0.17885 0.0
H2473 H 0.8537 0.38543 0.16383 0.0
H2474 H 0.84247 0.3492 0.1883 0.0
H2475 H 0.86235 0.35408 0.20399 0.0
H2476 H 0.84462 0.36756 0.14714 0.0
H2477 H 0.80757 0.34377 0.18836 0.0
H2478 H 0.80409 0.34395 0.21384 0.0
H2479 H 0.82359 0.38456 0.21655 0.0
H2480 H 0.82704 0.38468 0.19108 0.0
H2481 H 0.78016 0.35771 0.11043 0.0
H2482 H 0.80079 0.35241 0.12487 0.0
H2483 H 0.7869 0.38213 0.1557 0.0
H2484 H 0.766 0.38666 0.14185 0.0
H2485 H 0.79756 0.36261 0.16875 0.0
H2486 H 0.81292 0.38926 0.12871 0.0
H2487 H 0.81615 0.39394 0.10365 0.0
H2488 H 0.83956 0.35607 0.09936 0.0
H2489 H 0.83633 0.3511 0.12439 0.0
C2490 C 0.86728 0.38075 0.18098 0.0
C2491 C 0.86966 0.37228 0.19265 0.0
C2492 C 0.85566 0.37829 0.17235 0.0
C2493 C 0.84634 0.36712 0.17502 0.0
C2494 C 0.84923 0.35813 0.18623 0.0
C2495 C 0.86062 0.36087 0.19514 0.0
C2496 C 0.83331 0.36548 0.16646 0.0
C2497 C 0.83434 0.36641 0.15189 0.0
C2498 C 0.81983 0.36406 0.17257 0.0
C2499 C 0.81772 0.36414 0.18786 0.0
C2500 C 0.81109 0.35274 0.1944 0.0
C2501 C 0.80912 0.35279 0.20884 0.0
C2502 C 0.81367 0.36423 0.21681 0.0
C2503 C 0.82013 0.37568 0.21037 0.0
C2504 C 0.8221 0.37569 0.19594 0.0
C2505 C 0.78147 0.36292 0.1204 0.0
C2506 C 0.77153 0.37262 0.12501 0.0
C2507 C 0.7933 0.35997 0.1286 0.0
C2508 C 0.7956 0.36705 0.1413 0.0
C2509 C 0.78541 0.37644 0.14602 0.0
C2510 C 0.77345 0.37908 0.13804 0.0
C2511 C 0.80882 0.36539 0.14949 0.0
C2512 C 0.80785 0.36361 0.16398 0.0
C2513 C 0.8223 0.36678 0.14338 0.0
C2514 C 0.82423 0.36973 0.12835 0.0
C2515 C 0.81867 0.38189 0.12239 0.0
C2516 C 0.82051 0.3846 0.1082 0.0
C2517 C 0.82801 0.37528 0.09991 0.0
C2518 C 0.83372 0.36326 0.10579 0.0
C2519 C 0.83189 0.36049 0.11997 0.0
H2520 H 0.82943 0.3774 0.08893 0.0
H2521 H 0.81215 0.36425 0.22799 0.0
H2522 H 0.6093 0.83967 0.21535 0.0
H2523 H 0.61519 0.82591 0.19473 0.0
H2524 H 0.61274 0.86291 0.16932 0.0
H2525 H 0.6069 0.87678 0.18992 0.0
H2526 H 0.5958 0.84107 0.15995 0.0
H2527 H 0.64378 0.84818 0.17406 0.0
H2528 H 0.66389 0.84813 0.19039 0.0
H2529 H 0.65926 0.80377 0.1955 0.0
H2530 H 0.63899 0.80357 0.17936 0.0
H2531 H 0.61196 0.80634 0.09774 0.0
H2532 H 0.61469 0.82266 0.11719 0.0
H2533 H 0.61907 0.78814 0.1456 0.0
H2534 H 0.61651 0.77169 0.1262 0.0
H2535 H 0.63654 0.80996 0.1527 0.0
H2536 H 0.58776 0.80258 0.14181 0.0
H2537 H 0.56666 0.80148 0.12676 0.0
H2538 H 0.57171 0.84502 0.11707 0.0
H2539 H 0.59295 0.84633 0.13196 0.0
C2540 C 0.61027 0.84493 0.20542 0.0
C2541 C 0.60755 0.85929 0.20423 0.0
C2542 C 0.6137 0.83707 0.19366 0.0
C2543 C 0.61442 0.84342 0.18052 0.0
C2544 C 0.61225 0.85784 0.17939 0.0
C2545 C 0.60895 0.86574 0.19117 0.0
C2546 C 0.61599 0.83474 0.16784 0.0
C2547 C 0.60486 0.8345 0.1582 0.0
C2548 C 0.62757 0.82581 0.16588 0.0
C2549 C 0.63978 0.82589 0.17558 0.0
C2550 C 0.64697 0.83843 0.17876 0.0
C2551 C 0.65842 0.83844 0.18796 0.0
C2552 C 0.66283 0.82596 0.194 0.0
C2553 C 0.65583 0.81343 0.19082 0.0
C2554 C 0.64436 0.81336 0.18163 0.0
C2555 C 0.61371 0.8022 0.10809 0.0
C2556 C 0.61382 0.7877 0.11044 0.0
C2557 C 0.61525 0.81155 0.11919 0.0
C2558 C 0.61685 0.80659 0.13285 0.0
C2559 C 0.61781 0.79217 0.13514 0.0
C2560 C 0.61629 0.78279 0.12403 0.0
C2561 C 0.61638 0.81637 0.14482 0.0
C2562 C 0.62762 0.81672 0.15436 0.0
C2563 C 0.60477 0.82526 0.14686 0.0
C2564 C 0.59203 0.82451 0.13786 0.0
C2565 C 0.58444 0.81189 0.13637 0.0
C2566 C 0.57244 0.81123 0.1279 0.0
C2567 C 0.56788 0.82316 0.12093 0.0
C2568 C 0.57528 0.83578 0.12246 0.0
C2569 C 0.58729 0.83649 0.13092 0.0
H2570 H 0.55859 0.82264 0.11437 0.0
H2571 H 0.6717 0.82599 0.20112 0.0
H2572 H 0.13184 0.61645 0.21108 0.0
H2573 H 0.15067 0.62076 0.19441 0.0
H2574 H 0.12029 0.62143 0.16087 0.0
H2575 H 0.10141 0.61678 0.17744 0.0
H2576 H 0.14065 0.60442 0.15486 0.0
H2577 H 0.13869 0.65136 0.1713 0.0
H2578 H 0.13814 0.67034 0.18871 0.0
H2579 H 0.17902 0.65875 0.20363 0.0
H2580 H 0.17974 0.63957 0.18643 0.0
H2581 H 0.19405 0.61531 0.10563 0.0
H2582 H 0.17374 0.62169 0.11975 0.0
H2583 H 0.19866 0.61737 0.15714 0.0
H2584 H 0.21905 0.61116 0.14312 0.0
H2585 H 0.17976 0.63896 0.15924 0.0
H2586 H 0.17979 0.59019 0.14547 0.0
H2587 H 0.18043 0.57082 0.12848 0.0
H2588 H 0.14284 0.58593 0.10894 0.0
H2589 H 0.1421 0.60551 0.12572 0.0
C2590 C 0.12912 0.61773 0.20019 0.0
C2591 C 0.11513 0.61615 0.19558 0.0
C2592 C 0.13991 0.62029 0.19067 0.0
C2593 C 0.1369 0.62153 0.17638 0.0
C2594 C 0.12287 0.62051 0.17184 0.0
C2595 C 0.11208 0.61785 0.18133 0.0
C2596 C 0.14848 0.62245 0.1661 0.0
C2597 C 0.14901 0.61221 0.15563 0.0
C2598 C 0.15958 0.63239 0.16729 0.0
C2599 C 0.15922 0.64395 0.17763 0.0
C2600 C 0.14752 0.65279 0.17836 0.0
C2601 C 0.14718 0.6636 0.18818 0.0
C2602 C 0.15852 0.66573 0.19729 0.0
C2603 C 0.17024 0.65708 0.19657 0.0
C2604 C 0.17063 0.64625 0.18677 0.0
C2605 C 0.1953 0.61601 0.11684 0.0
C2606 C 0.20809 0.61253 0.12328 0.0
C2607 C 0.18368 0.61965 0.12488 0.0
C2608 C 0.18466 0.61978 0.13949 0.0
C2609 C 0.19769 0.6173 0.14588 0.0
C2610 C 0.20931 0.61369 0.13785 0.0
C2611 C 0.17187 0.6209 0.14816 0.0
C2612 C 0.17119 0.63142 0.15834 0.0
C2613 C 0.1606 0.6112 0.14676 0.0
C2614 C 0.16099 0.5994 0.13673 0.0
C2615 C 0.17173 0.58944 0.13749 0.0
C2616 C 0.1721 0.57842 0.12791 0.0
C2617 C 0.16171 0.57717 0.11761 0.0
C2618 C 0.1509 0.58693 0.1169 0.0
C2619 C 0.15049 0.59798 0.12644 0.0
H2620 H 0.16201 0.56863 0.1102 0.0
H2621 H 0.15824 0.6741 0.20488 0.0
H2622 H 0.36097 0.17878 0.10149 0.0
H2623 H 0.35578 0.1647 0.12205 0.0
H2624 H 0.35273 0.20217 0.14689 0.0
H2625 H 0.35804 0.21634 0.12644 0.0
H2626 H 0.37112 0.18421 0.15768 0.0
H2627 H 0.32383 0.18172 0.14102 0.0
H2628 H 0.30479 0.17771 0.12389 0.0
H2629 H 0.31677 0.13477 0.11986 0.0
H2630 H 0.33602 0.13857 0.13682 0.0
H2631 H 0.36168 0.14616 0.21867 0.0
H2632 H 0.35444 0.16168 0.19985 0.0
H2633 H 0.35764 0.12773 0.17041 0.0
H2634 H 0.36455 0.11204 0.18924 0.0
H2635 H 0.33649 0.14546 0.1632 0.0
H2636 H 0.38555 0.14877 0.17634 0.0
H2637 H 0.40533 0.15228 0.19276 0.0
H2638 H 0.3906 0.19343 0.20239 0.0
H2639 H 0.37061 0.19007 0.18615 0.0
C2640 C 0.35894 0.18405 0.11126 0.0
C2641 C 0.36008 0.19868 0.11235 0.0
C2642 C 0.35588 0.17598 0.12299 0.0
C2643 C 0.35382 0.18239 0.13599 0.0
C2644 C 0.35428 0.19702 0.13696 0.0
C2645 C 0.35733 0.20509 0.12524 0.0
C2646 C 0.35294 0.17383 0.14879 0.0
C2647 C 0.36331 0.17596 0.15903 0.0
C2648 C 0.34302 0.1628 0.15034 0.0
C2649 C 0.33144 0.16047 0.14013 0.0
C2650 C 0.32248 0.17145 0.1364 0.0
C2651 C 0.31163 0.16921 0.12673 0.0
C2652 C 0.30958 0.156 0.12077 0.0
C2653 C 0.31837 0.145 0.12448 0.0
C2654 C 0.32924 0.14719 0.13414 0.0
C2655 C 0.36052 0.14191 0.20824 0.0
C2656 C 0.36392 0.12795 0.20537 0.0
C2657 C 0.35638 0.1508 0.19751 0.0
C2658 C 0.35581 0.14592 0.1837 0.0
C2659 C 0.35807 0.13171 0.18099 0.0
C2660 C 0.36207 0.12277 0.19175 0.0
C2661 C 0.35467 0.15588 0.17199 0.0
C2662 C 0.34405 0.15392 0.16193 0.0
C2663 C 0.36445 0.16703 0.17048 0.0
C2664 C 0.37651 0.16911 0.18017 0.0
C2665 C 0.38648 0.15852 0.18204 0.0
C2666 C 0.39773 0.16049 0.1913 0.0
C2667 C 0.39919 0.17306 0.19865 0.0
C2668 C 0.38943 0.18369 0.19671 0.0
C2669 C 0.37814 0.18177 0.18748 0.0
H2670 H 0.40791 0.17456 0.20581 0.0
H2671 H 0.30118 0.15429 0.11329 0.0
H2672 H 0.83668 0.75877 0.61616 0.0
H2673 H 0.82127 0.77789 0.62268 0.0
H2674 H 0.85512 0.80749 0.61611 0.0
H2675 H 0.87076 0.78829 0.60978 0.0
H2676 H 0.83689 0.81534 0.63815 0.0
H2677 H 0.83435 0.80169 0.59011 0.0
H2678 H 0.83207 0.78509 0.5705 0.0
H2679 H 0.79109 0.77261 0.58479 0.0
H2680 H 0.79323 0.78899 0.60462 0.0
H2681 H 0.79194 0.87208 0.6154 0.0
H2682 H 0.81025 0.85488 0.62018 0.0
H2683 H 0.77835 0.82309 0.62613 0.0
H2684 H 0.76007 0.84011 0.62133 0.0
H2685 H 0.79664 0.81712 0.60509 0.0
H2686 H 0.79907 0.83266 0.65271 0.0
H2687 H 0.8019 0.84993 0.67166 0.0
H2688 H 0.84344 0.86015 0.65725 0.0
H2689 H 0.84078 0.84308 0.63808 0.0
C2690 C 0.84095 0.76931 0.61639 0.0
C2691 C 0.85485 0.77207 0.61223 0.0
C2692 C 0.83214 0.78022 0.62015 0.0
C2693 C 0.837 0.7941 0.61963 0.0
C2694 C 0.85118 0.79684 0.61655 0.0
C2695 C 0.86008 0.78587 0.61289 0.0
C2696 C 0.82678 0.80564 0.62041 0.0
C2697 C 0.82814 0.81585 0.63088 0.0
C2698 C 0.81538 0.80624 0.61091 0.0
C2699 C 0.81401 0.79646 0.59893 0.0
C2700 C 0.8249 0.79532 0.58913 0.0
C2701 C 0.82363 0.78597 0.57797 0.0
C2702 C 0.81146 0.77777 0.57642 0.0
C2703 C 0.80052 0.77895 0.58601 0.0
C2704 C 0.80175 0.78827 0.59721 0.0
C2705 C 0.78883 0.86152 0.61814 0.0
C2706 C 0.77458 0.85738 0.61777 0.0
C2707 C 0.7993 0.85172 0.6209 0.0
C2708 C 0.79563 0.83771 0.62341 0.0
C2709 C 0.78138 0.83385 0.62415 0.0
C2710 C 0.77095 0.84359 0.62139 0.0
C2711 C 0.80644 0.82669 0.62308 0.0
C2712 C 0.80529 0.81661 0.61249 0.0
C2713 C 0.81805 0.8264 0.63236 0.0
C2714 C 0.81966 0.83669 0.64386 0.0
C2715 C 0.80875 0.83869 0.65349 0.0
C2716 C 0.81034 0.84842 0.6643 0.0
C2717 C 0.82283 0.85616 0.66564 0.0
C2718 C 0.83377 0.85416 0.65619 0.0
C2719 C 0.83223 0.84445 0.64536 0.0
H2720 H 0.82404 0.86369 0.67401 0.0
H2721 H 0.8105 0.77054 0.56777 0.0
H2722 H 0.84877 0.21479 0.37195 0.0
H2723 H 0.83012 0.19729 0.36843 0.0
H2724 H 0.85932 0.16455 0.37834 0.0
H2725 H 0.87803 0.18187 0.38158 0.0
H2726 H 0.84303 0.15711 0.3568 0.0
H2727 H 0.83607 0.17729 0.40261 0.0
H2728 H 0.83215 0.19659 0.41918 0.0
H2729 H 0.79388 0.20701 0.39784 0.0
H2730 H 0.79767 0.18786 0.38104 0.0
H2731 H 0.8014 0.10096 0.38076 0.0
H2732 H 0.81771 0.12047 0.37742 0.0
H2733 H 0.78301 0.14741 0.36749 0.0
H2734 H 0.76652 0.12796 0.37105 0.0
H2735 H 0.80024 0.1594 0.38607 0.0
H2736 H 0.80582 0.13688 0.34209 0.0
H2737 H 0.80978 0.11719 0.32601 0.0
H2738 H 0.85063 0.11082 0.34404 0.0
H2739 H 0.84684 0.13035 0.36037 0.0
C2740 C 0.85124 0.20386 0.3733 0.0
C2741 C 0.86487 0.19974 0.37714 0.0
C2742 C 0.84056 0.19388 0.37132 0.0
C2743 C 0.8433 0.17963 0.37328 0.0
C2744 C 0.85697 0.17548 0.37675 0.0
C2745 C 0.86765 0.18542 0.37866 0.0
C2746 C 0.8319 0.16898 0.37223 0.0
C2747 C 0.8337 0.15756 0.36324 0.0
C2748 C 0.81954 0.16979 0.38035 0.0
C2749 C 0.81724 0.18126 0.39048 0.0
C2750 C 0.82688 0.18376 0.40139 0.0
C2751 C 0.82467 0.19467 0.41083 0.0
C2752 C 0.8128 0.20305 0.40954 0.0
C2753 C 0.80309 0.20052 0.39882 0.0
C2754 C 0.80525 0.18965 0.38934 0.0
C2755 C 0.79721 0.11099 0.37773 0.0
C2756 C 0.78264 0.11289 0.3762 0.0
C2757 C 0.80657 0.12213 0.37575 0.0
C2758 C 0.80159 0.13536 0.37204 0.0
C2759 C 0.78707 0.13727 0.3703 0.0
C2760 C 0.77768 0.12613 0.37232 0.0
C2761 C 0.81152 0.14734 0.37086 0.0
C2762 C 0.80944 0.15903 0.37944 0.0
C2763 C 0.82364 0.14675 0.36239 0.0
C2764 C 0.826 0.13504 0.35252 0.0
C2765 C 0.81561 0.13122 0.3427 0.0
C2766 C 0.81783 0.1201 0.33352 0.0
C2767 C 0.83044 0.11274 0.33402 0.0
C2768 C 0.84087 0.11653 0.34367 0.0
C2769 C 0.8387 0.12764 0.35287 0.0
H2770 H 0.83213 0.10413 0.32691 0.0
H2771 H 0.81111 0.21148 0.41686 0.0
H2772 H 0.75868 0.83584 0.36873 0.0
H2773 H 0.77863 0.8207 0.36419 0.0
H2774 H 0.80683 0.85626 0.36659 0.0
H2775 H 0.78684 0.87158 0.37095 0.0
H2776 H 0.81514 0.83691 0.34667 0.0
H2777 H 0.80186 0.8376 0.39484 0.0
H2778 H 0.78552 0.83568 0.41465 0.0
H2779 H 0.77636 0.793 0.40368 0.0
H2780 H 0.79249 0.79474 0.38366 0.0
H2781 H 0.87705 0.80155 0.36986 0.0
H2782 H 0.85701 0.8169 0.36614 0.0
H2783 H 0.82916 0.78104 0.36434 0.0
H2784 H 0.84908 0.7656 0.36813 0.0
H2785 H 0.82058 0.80049 0.38296 0.0
H2786 H 0.83571 0.79977 0.33537 0.0
H2787 H 0.85265 0.80223 0.31613 0.0
H2788 H 0.85927 0.84543 0.32671 0.0
H2789 H 0.84251 0.84318 0.34614 0.0
C2790 C 0.76909 0.8405 0.36802 0.0
C2791 C 0.77123 0.85487 0.3704 0.0
C2792 C 0.78047 0.83183 0.36544 0.0
C2793 C 0.79421 0.83734 0.36534 0.0
C2794 C 0.7963 0.85182 0.36669 0.0
C2795 C 0.78488 0.86054 0.36921 0.0
C2796 C 0.80638 0.82782 0.36525 0.0
C2797 C 0.81642 0.82901 0.35465 0.0
C2798 C 0.80793 0.81745 0.37561 0.0
C2799 C 0.79826 0.81635 0.38767 0.0
C2800 C 0.79627 0.82784 0.39658 0.0
C2801 C 0.78706 0.82678 0.40786 0.0
C2802 C 0.77988 0.81423 0.4104 0.0
C2803 C 0.78191 0.80271 0.40168 0.0
C2804 C 0.79109 0.80373 0.39038 0.0
C2805 C 0.86669 0.7969 0.36849 0.0
C2806 C 0.86466 0.78234 0.3694 0.0
C2807 C 0.85526 0.80569 0.36629 0.0
C2808 C 0.84162 0.80009 0.36492 0.0
C2809 C 0.83962 0.78556 0.36537 0.0
C2810 C 0.85103 0.77676 0.36752 0.0
C2811 C 0.82931 0.80941 0.36427 0.0
C2812 C 0.81926 0.80827 0.37486 0.0
C2813 C 0.82788 0.81988 0.35399 0.0
C2814 C 0.83795 0.82127 0.34229 0.0
C2815 C 0.84087 0.80976 0.33367 0.0
C2816 C 0.85042 0.81113 0.32271 0.0
C2817 C 0.85706 0.82397 0.32022 0.0
C2818 C 0.85413 0.83549 0.32866 0.0
C2819 C 0.84459 0.83418 0.33964 0.0
H2820 H 0.86445 0.825 0.31173 0.0
H2821 H 0.77276 0.81343 0.41913 0.0
H2822 H 0.13508 0.76317 0.37485 0.0
H2823 H 0.15464 0.7796 0.37129 0.0
H2824 H 0.12596 0.8141 0.37398 0.0
H2825 H 0.10638 0.79783 0.37737 0.0
H2826 H 0.14517 0.81796 0.35336 0.0
H2827 H 0.14507 0.80419 0.40206 0.0
H2828 H 0.146 0.78717 0.42128 0.0
H2829 H 0.18626 0.77318 0.40714 0.0
H2830 H 0.18548 0.79002 0.38771 0.0
H2831 H 0.18312 0.87654 0.3775 0.0
H2832 H 0.16749 0.85654 0.37361 0.0
H2833 H 0.20323 0.82923 0.37194 0.0
H2834 H 0.21903 0.84922 0.37597 0.0
H2835 H 0.18315 0.81923 0.38902 0.0
H2836 H 0.18493 0.83588 0.34252 0.0
H2837 H 0.18405 0.85315 0.32354 0.0
H2838 H 0.14098 0.86185 0.33327 0.0
H2839 H 0.14165 0.84477 0.35245 0.0
C2840 C 0.13292 0.77425 0.37456 0.0
C2841 C 0.11918 0.77919 0.37652 0.0
C2842 C 0.14411 0.78361 0.37255 0.0
C2843 C 0.14175 0.79806 0.37251 0.0
C2844 C 0.128 0.80299 0.37396 0.0
C2845 C 0.11683 0.79366 0.37598 0.0
C2846 C 0.1536 0.80819 0.37172 0.0
C2847 C 0.15347 0.81829 0.36116 0.0
C2848 C 0.16465 0.80831 0.38166 0.0
C2849 C 0.16514 0.79823 0.39335 0.0
C2850 C 0.15407 0.79741 0.40299 0.0
C2851 C 0.15458 0.78781 0.41393 0.0
C2852 C 0.16616 0.77906 0.4154 0.0
C2853 C 0.17728 0.77994 0.40596 0.0
C2854 C 0.17681 0.78951 0.39499 0.0
C2855 C 0.1877 0.86631 0.3762 0.0
C2856 C 0.20233 0.86448 0.37709 0.0
C2857 C 0.17874 0.85489 0.37388 0.0
C2858 C 0.18421 0.84143 0.37232 0.0
C2859 C 0.19881 0.83956 0.37305 0.0
C2860 C 0.20781 0.85099 0.37535 0.0
C2861 C 0.17453 0.82928 0.37087 0.0
C2862 C 0.17506 0.81877 0.38101 0.0
C2863 C 0.16385 0.8288 0.36054 0.0
C2864 C 0.16337 0.83909 0.34899 0.0
C2865 C 0.1753 0.84154 0.34069 0.0
C2866 C 0.17483 0.85129 0.32988 0.0
C2867 C 0.16248 0.85861 0.32722 0.0
C2868 C 0.15055 0.85617 0.33535 0.0
C2869 C 0.15096 0.84644 0.34617 0.0
H2870 H 0.16214 0.86615 0.31884 0.0
H2871 H 0.16654 0.77164 0.42388 0.0
H2872 H 0.21745 0.14277 0.36372 0.0
H2873 H 0.19682 0.15708 0.3592 0.0
H2874 H 0.17069 0.11997 0.35756 0.0
H2875 H 0.19127 0.10556 0.36218 0.0
H2876 H 0.17532 0.15914 0.33957 0.0
H2877 H 0.14168 0.12665 0.37744 0.0
H2878 H 0.14471 0.11037 0.39711 0.0
H2879 H 0.18426 0.12998 0.40748 0.0
H2880 H 0.18137 0.14648 0.388 0.0
H2881 H 0.10009 0.17801 0.36847 0.0
H2882 H 0.11845 0.16132 0.3628 0.0
H2883 H 0.14882 0.19505 0.36023 0.0
H2884 H 0.13048 0.21184 0.3656 0.0
H2885 H 0.14072 0.15584 0.37802 0.0
H2886 H 0.17554 0.18651 0.33872 0.0
H2887 H 0.17269 0.20338 0.31956 0.0
H2888 H 0.13056 0.18831 0.31235 0.0
H2889 H 0.13322 0.17123 0.33133 0.0
C2890 C 0.20737 0.13761 0.36208 0.0
C2891 C 0.20595 0.12305 0.36352 0.0
C2892 C 0.19561 0.14581 0.35944 0.0
C2893 C 0.18222 0.13959 0.35828 0.0
C2894 C 0.18093 0.12497 0.35859 0.0
C2895 C 0.1927 0.11675 0.36121 0.0
C2896 C 0.16957 0.14847 0.35845 0.0
C2897 C 0.16774 0.15848 0.34797 0.0
C2898 C 0.1596 0.14742 0.36931 0.0
C2899 C 0.16139 0.13766 0.38116 0.0
C2900 C 0.15101 0.12749 0.38394 0.0
C2901 C 0.1527 0.11824 0.39506 0.0
C2902 C 0.1647 0.11911 0.4035 0.0
C2903 C 0.175 0.12928 0.40089 0.0
C2904 C 0.17335 0.13857 0.38981 0.0
C2905 C 0.11064 0.18192 0.36652 0.0
C2906 C 0.11383 0.19627 0.36756 0.0
C2907 C 0.12112 0.17235 0.36327 0.0
C2908 C 0.13499 0.17693 0.36099 0.0
C2909 C 0.13814 0.19128 0.36168 0.0
C2910 C 0.12765 0.20087 0.36485 0.0
C2911 C 0.14638 0.16663 0.35913 0.0
C2912 C 0.14807 0.15638 0.36941 0.0
C2913 C 0.1562 0.16753 0.3481 0.0
C2914 C 0.15455 0.17766 0.33654 0.0
C2915 C 0.16569 0.18675 0.33301 0.0
C2916 C 0.16411 0.19636 0.32218 0.0
C2917 C 0.15144 0.19694 0.31477 0.0
C2918 C 0.14035 0.18788 0.31813 0.0
C2919 C 0.14188 0.17825 0.32894 0.0
H2920 H 0.15023 0.20439 0.30639 0.0
H2921 H 0.16599 0.11193 0.4121 0.0
H2922 H 0.20288 0.11712 0.62618 0.0
H2923 H 0.1845 0.13343 0.63348 0.0
H2924 H 0.19724 0.16185 0.60087 0.0
H2925 H 0.21599 0.14623 0.59435 0.0
H2926 H 0.19154 0.17644 0.62114 0.0
H2927 H 0.16743 0.1368 0.59923 0.0
H2928 H 0.16038 0.11199 0.59705 0.0
H2929 H 0.14248 0.11312 0.63803 0.0
H2930 H 0.14955 0.13791 0.6405 0.0
H2931 H 0.11737 0.19392 0.59673 0.0
H2932 H 0.13384 0.17588 0.60365 0.0
H2933 H 0.15093 0.20332 0.63548 0.0
H2934 H 0.13525 0.22188 0.62759 0.0
H2935 H 0.1418 0.16044 0.62273 0.0
H2936 H 0.18531 0.19926 0.63929 0.0
H2937 H 0.1923 0.22396 0.63597 0.0
H2938 H 0.1714 0.22424 0.59619 0.0
H2939 H 0.16442 0.19952 0.59923 0.0
C2940 C 0.20178 0.12696 0.62074 0.0
C2941 C 0.21085 0.13046 0.60974 0.0
C2942 C 0.19124 0.13622 0.62485 0.0
C2943 C 0.18932 0.14886 0.61765 0.0
C2944 C 0.19852 0.15229 0.60674 0.0
C2945 C 0.20924 0.1433 0.60296 0.0
C2946 C 0.1776 0.15852 0.62088 0.0
C2947 C 0.18067 0.17289 0.6216 0.0
C2948 C 0.16338 0.154 0.62157 0.0
C2949 C 0.15918 0.13912 0.62012 0.0
C2950 C 0.16207 0.13171 0.60781 0.0
C2951 C 0.15807 0.11767 0.60651 0.0
C2952 C 0.15104 0.11097 0.61741 0.0
C2953 C 0.14796 0.11831 0.62962 0.0
C2954 C 0.15197 0.13235 0.63097 0.0
C2955 C 0.1245 0.19601 0.60535 0.0
C2956 C 0.12527 0.20931 0.61148 0.0
C2957 C 0.13389 0.18565 0.60938 0.0
C2958 C 0.14397 0.18831 0.61986 0.0
C2959 C 0.14363 0.20115 0.62703 0.0
C2960 C 0.13462 0.21171 0.62261 0.0
C2961 C 0.15573 0.17835 0.62188 0.0
C2962 C 0.15268 0.16396 0.62249 0.0
C2963 C 0.16999 0.18283 0.62154 0.0
C2964 C 0.17419 0.19765 0.61959 0.0
C2965 C 0.18223 0.20461 0.62984 0.0
C2966 C 0.18619 0.2186 0.628 0.0
C2967 C 0.18224 0.22568 0.6159 0.0
C2968 C 0.1744 0.21877 0.60558 0.0
C2969 C 0.17044 0.20477 0.60735 0.0
H2970 H 0.1853 0.23651 0.61451 0.0
H2971 H 0.14794 0.10009 0.61639 0.0
H2972 H 0.80126 0.1056 0.60587 0.0
H2973 H 0.81739 0.12511 0.61004 0.0
H2974 H 0.78235 0.1532 0.6129 0.0
H2975 H 0.76603 0.13367 0.60855 0.0
H2976 H 0.80235 0.16318 0.59578 0.0
H2977 H 0.80118 0.14536 0.64191 0.0
H2978 H 0.80205 0.1275 0.66035 0.0
H2979 H 0.84461 0.11802 0.64934 0.0
H2980 H 0.84395 0.13568 0.63069 0.0
H2981 H 0.85218 0.21761 0.60986 0.0
H2982 H 0.83233 0.20162 0.61377 0.0
H2983 H 0.85996 0.16643 0.60964 0.0
H2984 H 0.87985 0.18226 0.60589 0.0
H2985 H 0.84111 0.16258 0.6306 0.0
H2986 H 0.84056 0.17738 0.58225 0.0
H2987 H 0.83976 0.19483 0.5634 0.0
H2988 H 0.80026 0.2097 0.57866 0.0
H2989 H 0.80092 0.19244 0.59772 0.0
C2990 C 0.79693 0.11589 0.60751 0.0
C2991 C 0.78234 0.11807 0.60684 0.0
C2992 C 0.80618 0.12703 0.60999 0.0
C2993 C 0.80106 0.14059 0.61195 0.0
C2994 C 0.7865 0.14281 0.61148 0.0
C2995 C 0.7772 0.13163 0.60901 0.0
C2996 C 0.81107 0.15247 0.61351 0.0
C2997 C 0.81062 0.16323 0.60362 0.0
C2998 C 0.82199 0.15242 0.62359 0.0
C2999 C 0.82248 0.14181 0.63484 0.0
C3000 C 0.8107 0.1394 0.64335 0.0
C3001 C 0.81116 0.12932 0.65385 0.0
C3002 C 0.82337 0.12162 0.656 0.0
C3003 C 0.83516 0.124 0.64766 0.0
C3004 C 0.83475 0.13406 0.63714 0.0
C3005 C 0.85406 0.20647 0.60993 0.0
C3006 C 0.86759 0.20121 0.60743 0.0
C3007 C 0.8427 0.19736 0.61214 0.0
C3008 C 0.84466 0.18285 0.61184 0.0
C3009 C 0.85823 0.1776 0.60992 0.0
C3010 C 0.86957 0.18667 0.6077 0.0
C3011 C 0.83255 0.17303 0.61268 0.0
C3012 C 0.83264 0.16267 0.62299 0.0
C3013 C 0.8213 0.17343 0.60298 0.0
C3014 C 0.82087 0.18375 0.5915 0.0
C3015 C 0.83176 0.18445 0.58164 0.0
C3016 C 0.83132 0.19429 0.57092 0.0
C3017 C 0.81999 0.2034 0.56986 0.0
C3018 C 0.80904 0.20266 0.57951 0.0
C3019 C 0.80944 0.19285 0.59027 0.0
H3020 H 0.81967 0.21101 0.56155 0.0
H3021 H 0.8237 0.11382 0.66413 0.0
H3022 H 0.17528 0.87871 0.60267 0.0
H3023 H 0.15951 0.85892 0.60675 0.0
H3024 H 0.19516 0.83236 0.61397 0.0
H3025 H 0.21111 0.85214 0.60975 0.0
H3026 H 0.17651 0.82053 0.59609 0.0
H3027 H 0.17449 0.8416 0.64098 0.0
H3028 H 0.17194 0.8607 0.65804 0.0
H3029 H 0.12977 0.86769 0.64366 0.0
H3030 H 0.13213 0.84877 0.62637 0.0
H3031 H 0.12817 0.76516 0.61088 0.0
H3032 H 0.14724 0.78219 0.61449 0.0
H3033 H 0.11829 0.81583 0.60731 0.0
H3034 H 0.09917 0.79897 0.60392 0.0
H3035 H 0.136 0.822 0.62845 0.0
H3036 H 0.13957 0.80372 0.58137 0.0
H3037 H 0.14204 0.78501 0.56384 0.0
H3038 H 0.18136 0.77311 0.58229 0.0
H3039 H 0.17902 0.79166 0.60004 0.0
C3040 C 0.1798 0.8687 0.60523 0.0
C3041 C 0.19447 0.86702 0.60585 0.0
C3042 C 0.17076 0.85741 0.60765 0.0
C3043 C 0.17616 0.8442 0.61083 0.0
C3044 C 0.19078 0.84248 0.61159 0.0
C3045 C 0.19987 0.8538 0.60919 0.0
C3046 C 0.16646 0.8321 0.61249 0.0
C3047 C 0.16784 0.8207 0.6034 0.0
C3048 C 0.15503 0.83244 0.62187 0.0
C3049 C 0.15353 0.8438 0.63231 0.0
C3050 C 0.16471 0.84727 0.64138 0.0
C3051 C 0.16329 0.85806 0.65111 0.0
C3052 C 0.15071 0.86542 0.65192 0.0
C3053 C 0.13951 0.86198 0.64302 0.0
C3054 C 0.14087 0.85121 0.63327 0.0
C3055 C 0.12583 0.77619 0.61019 0.0
C3056 C 0.11215 0.7807 0.60699 0.0
C3057 C 0.13675 0.7859 0.61223 0.0
C3058 C 0.13421 0.80026 0.611 0.0
C3059 C 0.12048 0.80479 0.60831 0.0
C3060 C 0.10957 0.79512 0.60631 0.0
C3061 C 0.14586 0.81065 0.61181 0.0
C3062 C 0.14484 0.82172 0.62136 0.0
C3063 C 0.1576 0.81004 0.60283 0.0
C3064 C 0.15904 0.79895 0.59213 0.0
C3065 C 0.14869 0.79704 0.58175 0.0
C3066 C 0.15007 0.78648 0.57177 0.0
C3067 C 0.16183 0.77785 0.57198 0.0
C3068 C 0.17225 0.77979 0.58216 0.0
C3069 C 0.1709 0.79032 0.59218 0.0
H3070 H 0.16288 0.76968 0.56424 0.0
H3071 H 0.14963 0.87377 0.65946 0.0
H3072 H 0.11593 0.24198 0.42452 0.0
H3073 H 0.12146 0.24371 0.44947 0.0
H3074 H 0.08065 0.22638 0.45929 0.0
H3075 H 0.07509 0.22445 0.43448 0.0
H3076 H 0.08802 0.25058 0.47492 0.0
H3077 H 0.107 0.20588 0.46145 0.0
H3078 H 0.12186 0.19027 0.44747 0.0
H3079 H 0.1588 0.21289 0.4609 0.0
H3080 H 0.14411 0.22876 0.47481 0.0
H3081 H 0.10677 0.21635 0.54338 0.0
H3082 H 0.10636 0.21572 0.51788 0.0
H3083 H 0.11752 0.2595 0.51672 0.0
H3084 H 0.1181 0.2602 0.54225 0.0
H3085 H 0.12615 0.2229 0.49658 0.0
H3086 H 0.09473 0.27344 0.49191 0.0
H3087 H 0.07915 0.28814 0.50615 0.0
H3088 H 0.06571 0.25206 0.52924 0.0
H3089 H 0.08104 0.23714 0.515 0.0
C3090 C 0.10813 0.23856 0.432 0.0
C3091 C 0.09508 0.23305 0.42753 0.0
C3092 C 0.11132 0.23953 0.44622 0.0
C3093 C 0.10146 0.23515 0.45617 0.0
C3094 C 0.08838 0.22983 0.45175 0.0
C3095 C 0.08525 0.22868 0.43757 0.0
C3096 C 0.10471 0.236 0.47124 0.0
C3097 C 0.09643 0.24462 0.47964 0.0
C3098 C 0.11562 0.22815 0.47737 0.0
C3099 C 0.12444 0.2186 0.46904 0.0
C3100 C 0.11827 0.2076 0.46132 0.0
C3101 C 0.12667 0.19869 0.45343 0.0
C3102 C 0.14126 0.20062 0.45326 0.0
C3103 C 0.14749 0.21143 0.46102 0.0
C3104 C 0.13914 0.22038 0.46891 0.0
C3105 C 0.10936 0.22579 0.53769 0.0
C3106 C 0.11236 0.23835 0.54478 0.0
C3107 C 0.10919 0.22539 0.52314 0.0
C3108 C 0.11182 0.23758 0.51547 0.0
C3109 C 0.11542 0.25 0.5225 0.0
C3110 C 0.11576 0.25037 0.53706 0.0
C3111 C 0.1095 0.23752 0.50022 0.0
C3112 C 0.11791 0.22904 0.49181 0.0
C3113 C 0.09864 0.24542 0.49407 0.0
C3114 C 0.08916 0.25422 0.5025 0.0
C3115 C 0.08841 0.26865 0.5 0.0
C3116 C 0.07963 0.27702 0.50807 0.0
C3117 C 0.07149 0.27105 0.51863 0.0
C3118 C 0.07206 0.25668 0.52109 0.0
C3119 C 0.08081 0.24827 0.51304 0.0
H3120 H 0.06472 0.27754 0.52487 0.0
H3121 H 0.14774 0.19371 0.44715 0.0
H3122 H 0.72959 0.10882 0.5508 0.0
H3123 H 0.72769 0.11172 0.52546 0.0
H3124 H 0.75758 0.07868 0.51951 0.0
H3125 H 0.7597 0.07586 0.54458 0.0
H3126 H 0.76385 0.10063 0.50356 0.0
H3127 H 0.72175 0.07362 0.51507 0.0
H3128 H 0.69913 0.06971 0.52702 0.0
H3129 H 0.68253 0.10672 0.50819 0.0
H3130 H 0.70512 0.11094 0.49626 0.0
H3131 H 0.75736 0.07171 0.43773 0.0
H3132 H 0.75574 0.07609 0.46263 0.0
H3133 H 0.72748 0.11019 0.45501 0.0
H3134 H 0.72892 0.10579 0.42983 0.0
H3135 H 0.71918 0.09337 0.47741 0.0
H3136 H 0.76031 0.1181 0.463 0.0
H3137 H 0.78281 0.12148 0.45072 0.0
H3138 H 0.80133 0.08878 0.47498 0.0
H3139 H 0.77888 0.08506 0.48726 0.0
C3140 C 0.73575 0.10218 0.54408 0.0
C3141 C 0.74481 0.09212 0.54974 0.0
C3142 C 0.73462 0.10383 0.52961 0.0
C3143 C 0.74247 0.09538 0.52059 0.0
C3144 C 0.75148 0.08536 0.52626 0.0
C3145 C 0.75264 0.08374 0.54063 0.0
C3146 C 0.74155 0.09682 0.50523 0.0
C3147 C 0.75408 0.09901 0.49785 0.0
C3148 C 0.72873 0.09525 0.49778 0.0
C3149 C 0.71517 0.09269 0.50493 0.0
C3150 C 0.71331 0.08098 0.51358 0.0
C3151 C 0.70049 0.0787 0.52032 0.0
C3152 C 0.68941 0.08799 0.5184 0.0
C3153 C 0.69112 0.09956 0.50969 0.0
C3154 C 0.70393 0.10189 0.50294 0.0
C3155 C 0.75075 0.08014 0.44127 0.0
C3156 C 0.74337 0.08849 0.43174 0.0
C3157 C 0.74987 0.08265 0.45554 0.0
C3158 C 0.74169 0.09362 0.46064 0.0
C3159 C 0.73392 0.10173 0.45125 0.0
C3160 C 0.73479 0.09921 0.43688 0.0
C3161 C 0.74158 0.09655 0.47582 0.0
C3162 C 0.72889 0.09527 0.48313 0.0
C3163 C 0.75427 0.09896 0.48325 0.0
C3164 C 0.76787 0.10126 0.47601 0.0
C3165 C 0.76915 0.11157 0.46566 0.0
C3166 C 0.7819 0.11355 0.4587 0.0
C3167 C 0.79349 0.10534 0.46206 0.0
C3168 C 0.79235 0.09514 0.47239 0.0
C3169 C 0.77962 0.09311 0.47937 0.0
H3170 H 0.80335 0.10688 0.45665 0.0
H3171 H 0.67949 0.0862 0.52363 0.0
H3172 H 0.87413 0.73148 0.42723 0.0
H3173 H 0.87027 0.73039 0.45238 0.0
H3174 H 0.89909 0.76504 0.45847 0.0
H3175 H 0.90322 0.76605 0.43343 0.0
H3176 H 0.90417 0.74508 0.47678 0.0
H3177 H 0.86324 0.76916 0.46042 0.0
H3178 H 0.842 0.77255 0.44602 0.0
H3179 H 0.82348 0.73524 0.46305 0.0
H3180 H 0.84471 0.73153 0.47741 0.0
H3181 H 0.88814 0.76353 0.5458 0.0
H3182 H 0.88961 0.76437 0.52041 0.0
H3183 H 0.86331 0.72746 0.51735 0.0
H3184 H 0.8617 0.72658 0.54281 0.0
H3185 H 0.85658 0.74761 0.49761 0.0
H3186 H 0.89767 0.72408 0.51445 0.0
H3187 H 0.91875 0.72149 0.52927 0.0
H3188 H 0.93692 0.75855 0.5114 0.0
H3189 H 0.91585 0.76149 0.49662 0.0
C3190 C 0.87963 0.73889 0.43392 0.0
C3191 C 0.88898 0.74886 0.4283 0.0
C3192 C 0.87736 0.73829 0.44829 0.0
C3193 C 0.88428 0.74773 0.45729 0.0
C3194 C 0.89364 0.75765 0.45172 0.0
C3195 C 0.89596 0.75822 0.43738 0.0
C3196 C 0.882 0.74717 0.47256 0.0
C3197 C 0.89377 0.7458 0.48132 0.0
C3198 C 0.86841 0.74777 0.47849 0.0
C3199 C 0.85563 0.74999 0.46988 0.0
C3200 C 0.85469 0.76162 0.461 0.0
C3201 C 0.84264 0.76361 0.45287 0.0
C3202 C 0.83142 0.75409 0.45359 0.0
C3203 C 0.8322 0.74259 0.46248 0.0
C3204 C 0.84423 0.74054 0.47063 0.0
C3205 C 0.88256 0.75565 0.53974 0.0
C3206 C 0.87491 0.74491 0.5463 0.0
C3207 C 0.88344 0.75614 0.52524 0.0
C3208 C 0.87674 0.74586 0.51704 0.0
C3209 C 0.86859 0.73546 0.52352 0.0
C3210 C 0.86772 0.73495 0.53805 0.0
C3211 C 0.87875 0.74568 0.50175 0.0
C3212 C 0.86695 0.74686 0.49302 0.0
C3213 C 0.89232 0.74497 0.49583 0.0
C3214 C 0.90512 0.74308 0.50452 0.0
C3215 C 0.90612 0.73173 0.51374 0.0
C3216 C 0.91807 0.73019 0.52213 0.0
C3217 C 0.92914 0.73987 0.5213 0.0
C3218 C 0.92832 0.75108 0.51204 0.0
C3219 C 0.91638 0.75268 0.50365 0.0
H3220 H 0.93836 0.73869 0.52783 0.0
H3221 H 0.8221 0.75565 0.44728 0.0
H3222 H 0.25887 0.87973 0.43214 0.0
H3223 H 0.26152 0.87845 0.45757 0.0
H3224 H 0.22457 0.90373 0.46252 0.0
H3225 H 0.222 0.90526 0.43738 0.0
H3226 H 0.24546 0.91309 0.47864 0.0
H3227 H 0.22427 0.86778 0.46747 0.0
H3228 H 0.22359 0.84473 0.45589 0.0
H3229 H 0.26257 0.83392 0.4757 0.0
H3230 H 0.26356 0.85699 0.48726 0.0
H3231 H 0.2168 0.90495 0.54401 0.0
H3232 H 0.22162 0.90304 0.51924 0.0
H3233 H 0.25918 0.87977 0.52811 0.0
H3234 H 0.25432 0.88147 0.55319 0.0
H3235 H 0.24389 0.8689 0.50553 0.0
H3236 H 0.26288 0.91307 0.51955 0.0
H3237 H 0.26299 0.93596 0.53142 0.0
H3238 H 0.2281 0.949 0.50623 0.0
H3239 H 0.22764 0.92613 0.49434 0.0
C3240 C 0.2513 0.88497 0.43867 0.0
C3241 C 0.24025 0.89264 0.43271 0.0
C3242 C 0.25281 0.8842 0.45319 0.0
C3243 C 0.24323 0.89098 0.46194 0.0
C3244 C 0.23215 0.89849 0.45598 0.0
C3245 C 0.23068 0.89932 0.44156 0.0
C3246 C 0.24463 0.89063 0.47734 0.0
C3247 C 0.24508 0.90342 0.48451 0.0
C3248 C 0.24471 0.87801 0.48501 0.0
C3249 C 0.24408 0.86416 0.47809 0.0
C3250 C 0.23276 0.86053 0.46926 0.0
C3251 C 0.2323 0.84746 0.46272 0.0
C3252 C 0.24306 0.83789 0.46502 0.0
C3253 C 0.25427 0.84136 0.4739 0.0
C3254 C 0.25478 0.85442 0.48046 0.0
C3255 C 0.2261 0.89939 0.54077 0.0
C3256 C 0.23526 0.8935 0.55063 0.0
C3257 C 0.22884 0.89833 0.52658 0.0
C3258 C 0.2409 0.8915 0.52186 0.0
C3259 C 0.24987 0.88517 0.53157 0.0
C3260 C 0.24709 0.88617 0.54588 0.0
C3261 C 0.24404 0.89138 0.50674 0.0
C3262 C 0.24455 0.87855 0.49965 0.0
C3263 C 0.24484 0.90398 0.49909 0.0
C3264 C 0.24519 0.91785 0.50609 0.0
C3265 C 0.25518 0.92079 0.51659 0.0
C3266 C 0.25531 0.93377 0.52332 0.0
C3267 C 0.24555 0.94392 0.51959 0.0
C3268 C 0.23566 0.94113 0.5091 0.0
C3269 C 0.23548 0.92817 0.50234 0.0
H3270 H 0.24567 0.95396 0.52482 0.0
H3271 H 0.24269 0.82777 0.45995 0.0
H3272 H 0.10327 0.72484 0.55219 0.0
H3273 H 0.1058 0.72207 0.52691 0.0
H3274 H 0.0759 0.75498 0.52026 0.0
H3275 H 0.07315 0.75768 0.54529 0.0
H3276 H 0.06996 0.73287 0.50418 0.0
H3277 H 0.11153 0.76024 0.51648 0.0
H3278 H 0.13385 0.76467 0.52904 0.0
H3279 H 0.15135 0.7276 0.51111 0.0
H3280 H 0.12905 0.72285 0.49859 0.0
H3281 H 0.07761 0.75851 0.43718 0.0
H3282 H 0.07873 0.7556 0.46232 0.0
H3283 H 0.10741 0.72137 0.45739 0.0
H3284 H 0.10649 0.72429 0.43198 0.0
H3285 H 0.11509 0.73939 0.47913 0.0
H3286 H 0.07419 0.71388 0.46445 0.0
H3287 H 0.0519 0.70999 0.4517 0.0
H3288 H 0.03304 0.74377 0.47415 0.0
H3289 H 0.05528 0.748 0.4869 0.0
C3290 C 0.09727 0.73151 0.54533 0.0
C3291 C 0.08798 0.74146 0.55078 0.0
C3292 C 0.09876 0.72993 0.5309 0.0
C3293 C 0.09106 0.73835 0.52171 0.0
C3294 C 0.08189 0.74832 0.52715 0.0
C3295 C 0.08036 0.74988 0.5415 0.0
C3296 C 0.09222 0.73678 0.50638 0.0
C3297 C 0.07982 0.73436 0.49871 0.0
C3298 C 0.10517 0.73821 0.49927 0.0
C3299 C 0.11857 0.7411 0.50674 0.0
C3300 C 0.1201 0.75297 0.51531 0.0
C3301 C 0.13275 0.75555 0.5224 0.0
C3302 C 0.144 0.7464 0.52091 0.0
C3303 C 0.14262 0.73467 0.51228 0.0
C3304 C 0.12998 0.73203 0.50518 0.0
C3305 C 0.0842 0.75036 0.44137 0.0
C3306 C 0.09186 0.74154 0.43253 0.0
C3307 C 0.0848 0.7487 0.45577 0.0
C3308 C 0.09296 0.73812 0.4617 0.0
C3309 C 0.10099 0.72955 0.45299 0.0
C3310 C 0.10042 0.73122 0.4385 0.0
C3311 C 0.09274 0.73603 0.47699 0.0
C3312 C 0.10528 0.73767 0.48463 0.0
C3313 C 0.07991 0.7339 0.48413 0.0
C3314 C 0.06644 0.7313 0.47658 0.0
C3315 C 0.06532 0.72053 0.46661 0.0
C3316 C 0.05269 0.71827 0.45939 0.0
C3317 C 0.04107 0.72664 0.46209 0.0
C3318 C 0.04205 0.73729 0.47206 0.0
C3319 C 0.05466 0.73961 0.47931 0.0
H3320 H 0.0313 0.72487 0.45648 0.0
H3321 H 0.15378 0.74841 0.52641 0.0
H3322 H 0.21457 0.091 0.42999 0.0
H3323 H 0.21318 0.0923 0.45542 0.0
H3324 H 0.24745 0.12226 0.45602 0.0
H3325 H 0.24907 0.12082 0.43069 0.0
H3326 H 0.25197 0.1016 0.4739 0.0
H3327 H 0.21335 0.13181 0.46277 0.0
H3328 H 0.19095 0.13798 0.4514 0.0
H3329 H 0.16993 0.10443 0.47276 0.0
H3330 H 0.19225 0.09793 0.4841 0.0
H3331 H 0.25131 0.12149 0.54407 0.0
H3332 H 0.24877 0.12237 0.51877 0.0
H3333 H 0.2149 0.09205 0.52064 0.0
H3334 H 0.21717 0.09134 0.54607 0.0
H3335 H 0.20944 0.11223 0.50159 0.0
H3336 H 0.24762 0.08177 0.5124 0.0
H3337 H 0.2699 0.07497 0.52362 0.0
H3338 H 0.2916 0.10828 0.50254 0.0
H3339 H 0.26939 0.1154 0.49135 0.0
C3340 C 0.2217 0.09797 0.43554 0.0
C3341 C 0.23199 0.10574 0.42836 0.0
C3342 C 0.22086 0.09875 0.45006 0.0
C3343 C 0.23018 0.10743 0.4576 0.0
C3344 C 0.24018 0.11548 0.4504 0.0
C3345 C 0.24108 0.11465 0.43592 0.0
C3346 C 0.23017 0.10749 0.47303 0.0
C3347 C 0.24272 0.10414 0.47995 0.0
C3348 C 0.21797 0.11031 0.4809 0.0
C3349 C 0.20451 0.1143 0.47418 0.0
C3350 C 0.20397 0.12568 0.46496 0.0
C3351 C 0.19129 0.12925 0.45853 0.0
C3352 C 0.17903 0.12158 0.46133 0.0
C3353 C 0.17943 0.11035 0.47059 0.0
C3354 C 0.1921 0.10672 0.47703 0.0
C3355 C 0.24326 0.11507 0.53912 0.0
C3356 C 0.23455 0.10622 0.54703 0.0
C3357 C 0.24183 0.11557 0.52466 0.0
C3358 C 0.23181 0.10709 0.51782 0.0
C3359 C 0.22273 0.09864 0.52572 0.0
C3360 C 0.22408 0.09821 0.54023 0.0
C3361 C 0.23131 0.1066 0.5024 0.0
C3362 C 0.21868 0.10975 0.49551 0.0
C3363 C 0.24342 0.10352 0.4945 0.0
C3364 C 0.25682 0.09919 0.50114 0.0
C3365 C 0.25712 0.0877 0.51023 0.0
C3366 C 0.26974 0.08379 0.51658 0.0
C3367 C 0.28215 0.09121 0.51382 0.0
C3368 C 0.28197 0.10255 0.50468 0.0
C3369 C 0.26938 0.10652 0.49832 0.0
H3370 H 0.29191 0.08817 0.51874 0.0
H3371 H 0.16922 0.12435 0.45633 0.0
H3372 H 0.87933 0.25681 0.55171 0.0
H3373 H 0.87708 0.26023 0.52648 0.0
H3374 H 0.90278 0.22408 0.5193 0.0
H3375 H 0.90527 0.22072 0.5443 0.0
H3376 H 0.91155 0.24566 0.50409 0.0
H3377 H 0.86667 0.22346 0.51479 0.0
H3378 H 0.84382 0.2217 0.52676 0.0
H3379 H 0.83159 0.26111 0.50949 0.0
H3380 H 0.85446 0.26317 0.49755 0.0
H3381 H 0.90225 0.22222 0.43652 0.0
H3382 H 0.90107 0.22502 0.46165 0.0
H3383 H 0.87598 0.26195 0.45659 0.0
H3384 H 0.87686 0.25905 0.43114 0.0
H3385 H 0.86638 0.24526 0.47794 0.0
H3386 H 0.9104 0.26544 0.46444 0.0
H3387 H 0.93324 0.26659 0.45239 0.0
H3388 H 0.94727 0.2307 0.47507 0.0
H3389 H 0.92445 0.22918 0.48708 0.0
C3390 C 0.88443 0.24955 0.54474 0.0
C3391 C 0.89253 0.23852 0.55004 0.0
C3392 C 0.8831 0.2515 0.53033 0.0
C3393 C 0.88975 0.2424 0.52101 0.0
C3394 C 0.89763 0.23129 0.5263 0.0
C3395 C 0.89901 0.22936 0.54062 0.0
C3396 C 0.88898 0.24447 0.50571 0.0
C3397 C 0.90167 0.24551 0.49837 0.0
C3398 C 0.87608 0.24483 0.4983 0.0
C3399 C 0.86233 0.24355 0.50542 0.0
C3400 C 0.85915 0.2318 0.51364 0.0
C3401 C 0.84619 0.23074 0.5204 0.0
C3402 C 0.83628 0.24131 0.51892 0.0
C3403 C 0.83929 0.25294 0.51064 0.0
C3404 C 0.85224 0.25406 0.50388 0.0
C3405 C 0.89645 0.23096 0.44068 0.0
C3406 C 0.88978 0.24052 0.43179 0.0
C3407 C 0.89582 0.23256 0.45508 0.0
C3408 C 0.88871 0.24387 0.46098 0.0
C3409 C 0.88162 0.25321 0.45222 0.0
C3410 C 0.88215 0.25155 0.43771 0.0
C3411 C 0.88898 0.24581 0.47632 0.0
C3412 C 0.87624 0.24564 0.48367 0.0
C3413 C 0.90186 0.24621 0.48379 0.0
C3414 C 0.91567 0.24717 0.47663 0.0
C3415 C 0.91832 0.25774 0.4668 0.0
C3416 C 0.93127 0.25846 0.45998 0.0
C3417 C 0.9417 0.24872 0.46297 0.0
C3418 C 0.93919 0.23824 0.47278 0.0
C3419 C 0.92626 0.23746 0.47961 0.0
H3420 H 0.95173 0.24931 0.45771 0.0
H3421 H 0.82625 0.24047 0.52416 0.0
H3422 H 0.76294 0.88728 0.43424 0.0
H3423 H 0.76604 0.88557 0.45947 0.0
H3424 H 0.72848 0.85999 0.46207 0.0
H3425 H 0.72542 0.86148 0.4368 0.0
H3426 H 0.7491 0.89467 0.47951 0.0
H3427 H 0.73161 0.83724 0.4892 0.0
H3428 H 0.73222 0.81443 0.47718 0.0
H3429 H 0.76832 0.82791 0.45387 0.0
H3430 H 0.76807 0.85071 0.4659 0.0
H3431 H 0.72989 0.86212 0.55008 0.0
H3432 H 0.73084 0.86044 0.52467 0.0
H3433 H 0.7695 0.88449 0.52471 0.0
H3434 H 0.76855 0.88636 0.55012 0.0
H3435 H 0.74986 0.85019 0.50594 0.0
H3436 H 0.76831 0.90704 0.49718 0.0
H3437 H 0.76766 0.92991 0.50909 0.0
H3438 H 0.72977 0.91761 0.53016 0.0
H3439 H 0.73009 0.89475 0.51822 0.0
C3440 C 0.7554 0.8812 0.44016 0.0
C3441 C 0.74392 0.87452 0.43354 0.0
C3442 C 0.75718 0.88025 0.45458 0.0
C3443 C 0.74756 0.87257 0.46263 0.0
C3444 C 0.73616 0.86579 0.45603 0.0
C3445 C 0.73438 0.86671 0.4416 0.0
C3446 C 0.7491 0.87221 0.478 0.0
C3447 C 0.74952 0.88494 0.48527 0.0
C3448 C 0.74934 0.8595 0.48551 0.0
C3449 C 0.74972 0.84574 0.47836 0.0
C3450 C 0.73972 0.83531 0.48156 0.0
C3451 C 0.74 0.82239 0.47473 0.0
C3452 C 0.75028 0.81974 0.46474 0.0
C3453 C 0.76033 0.83 0.46158 0.0
C3454 C 0.76011 0.84293 0.46838 0.0
C3455 C 0.73866 0.86695 0.54469 0.0
C3456 C 0.74906 0.87451 0.55208 0.0
C3457 C 0.73922 0.86593 0.53019 0.0
C3458 C 0.75013 0.87249 0.52282 0.0
C3459 C 0.76087 0.87952 0.53021 0.0
C3460 C 0.76033 0.88055 0.54471 0.0
C3461 C 0.74983 0.87265 0.50739 0.0
C3462 C 0.74958 0.8599 0.50014 0.0
C3463 C 0.74977 0.88534 0.49986 0.0
C3464 C 0.74933 0.89913 0.50693 0.0
C3465 C 0.75982 0.90924 0.50432 0.0
C3466 C 0.75951 0.9222 0.51107 0.0
C3467 C 0.74871 0.92519 0.52041 0.0
C3468 C 0.73816 0.91526 0.52296 0.0
C3469 C 0.73841 0.9023 0.51622 0.0
H3470 H 0.74851 0.93522 0.52564 0.0
H3471 H 0.75047 0.80974 0.45946 0.0
H3472 H 0.43181 0.09769 0.20778 0.0
H3473 H 0.45738 0.09838 0.20497 0.0
H3474 H 0.46148 0.12286 0.24262 0.0
H3475 H 0.43594 0.12234 0.24545 0.0
H3476 H 0.47941 0.13204 0.22224 0.0
H3477 H 0.46603 0.08826 0.24363 0.0
H3478 H 0.45295 0.06592 0.24516 0.0
H3479 H 0.47123 0.05233 0.20667 0.0
H3480 H 0.48428 0.07469 0.20482 0.0
H3481 H 0.54831 0.11791 0.24593 0.0
H3482 H 0.52302 0.12062 0.24254 0.0
H3483 H 0.52459 0.09455 0.20583 0.0
H3484 H 0.54992 0.09164 0.20925 0.0
H3485 H 0.50382 0.08648 0.22288 0.0
H3486 H 0.51931 0.12946 0.20286 0.0
H3487 H 0.5325 0.15174 0.20164 0.0
H3488 H 0.51055 0.16689 0.23754 0.0
H3489 H 0.49736 0.14462 0.2391 0.0
C3490 C 0.43815 0.10335 0.21539 0.0
C3491 C 0.43189 0.10984 0.22692 0.0
C3492 C 0.45274 0.10371 0.21377 0.0
C3493 C 0.46131 0.11052 0.22369 0.0
C3494 C 0.45504 0.11754 0.23487 0.0
C3495 C 0.44046 0.11718 0.23649 0.0
C3496 C 0.47682 0.10967 0.22291 0.0
C3497 C 0.48478 0.1221 0.22246 0.0
C3498 C 0.48377 0.09668 0.22286 0.0
C3499 C 0.476 0.0832 0.224 0.0
C3500 C 0.46717 0.08055 0.23544 0.0
C3501 C 0.45978 0.06788 0.23638 0.0
C3502 C 0.46122 0.05773 0.226 0.0
C3503 C 0.4701 0.06022 0.21469 0.0
C3504 C 0.4775 0.07288 0.21369 0.0
C3505 C 0.5433 0.11284 0.23706 0.0
C3506 C 0.55109 0.10452 0.22788 0.0
C3507 C 0.52886 0.11447 0.23509 0.0
C3508 C 0.52195 0.1079 0.22385 0.0
C3509 C 0.52973 0.09974 0.21455 0.0
C3510 C 0.5442 0.0981 0.21651 0.0
C3511 C 0.50647 0.10887 0.22236 0.0
C3512 C 0.4985 0.09644 0.22243 0.0
C3513 C 0.49953 0.12187 0.22208 0.0
C3514 C 0.50741 0.13531 0.22116 0.0
C3515 C 0.51737 0.1375 0.21056 0.0
C3516 C 0.52484 0.15014 0.20979 0.0
C3517 C 0.52239 0.16072 0.21952 0.0
C3518 C 0.51244 0.15869 0.23002 0.0
C3519 C 0.50495 0.14606 0.23084 0.0
H3520 H 0.52818 0.17049 0.21891 0.0
H3521 H 0.45549 0.04793 0.22674 0.0
H3522 H 0.89576 0.53953 0.22386 0.0
H3523 H 0.89177 0.51444 0.22573 0.0
H3524 H 0.87338 0.52005 0.26632 0.0
H3525 H 0.87719 0.54545 0.26448 0.0
H3526 H 0.89451 0.49811 0.26416 0.0
H3527 H 0.85157 0.51174 0.24317 0.0
H3528 H 0.83625 0.52441 0.22684 0.0
H3529 H 0.85549 0.5036 0.19224 0.0
H3530 H 0.8711 0.49096 0.20835 0.0
H3531 H 0.88137 0.42355 0.2561 0.0
H3532 H 0.87629 0.44816 0.26125 0.0
H3533 H 0.89274 0.46003 0.22113 0.0
H3534 H 0.89795 0.4357 0.216 0.0
H3535 H 0.86707 0.47281 0.22768 0.0
H3536 H 0.91294 0.46357 0.24839 0.0
H3537 H 0.92901 0.45128 0.26433 0.0
H3538 H 0.90425 0.46404 0.29934 0.0
H3539 H 0.88791 0.47625 0.28357 0.0
C3540 C 0.89085 0.53549 0.23321 0.0
C3541 C 0.88679 0.54449 0.24403 0.0
C3542 C 0.88852 0.52114 0.23422 0.0
C3543 C 0.88219 0.51544 0.24611 0.0
C3544 C 0.87823 0.52431 0.25704 0.0
C3545 C 0.88038 0.53878 0.25595 0.0
C3546 C 0.88009 0.50012 0.24692 0.0
C3547 C 0.88818 0.49254 0.25647 0.0
C3548 C 0.87195 0.49291 0.23677 0.0
C3549 C 0.86256 0.50044 0.22699 0.0
C3550 C 0.85261 0.50994 0.23207 0.0
C3551 C 0.84386 0.5171 0.22286 0.0
C3552 C 0.84491 0.51482 0.20851 0.0
C3553 C 0.85469 0.50535 0.20336 0.0
C3554 C 0.86348 0.49817 0.21254 0.0
C3555 C 0.88381 0.43142 0.24837 0.0
C3556 C 0.89013 0.4277 0.23568 0.0
C3557 C 0.88093 0.44544 0.25133 0.0
C3558 C 0.88415 0.45587 0.24156 0.0
C3559 C 0.89013 0.45212 0.22878 0.0
C3560 C 0.89318 0.43821 0.22591 0.0
C3561 C 0.88187 0.47084 0.24459 0.0
C3562 C 0.87299 0.47835 0.2357 0.0
C3563 C 0.88929 0.47796 0.25533 0.0
C3564 C 0.8991 0.47064 0.2648 0.0
C3565 C 0.91085 0.46364 0.25948 0.0
C3566 C 0.92002 0.45671 0.26848 0.0
C3567 C 0.91762 0.45683 0.28283 0.0
C3568 C 0.90607 0.46392 0.28822 0.0
C3569 C 0.89685 0.47085 0.27925 0.0
H3570 H 0.92474 0.45147 0.28979 0.0
H3571 H 0.83812 0.52038 0.20139 0.0
H3572 H 0.54229 0.89204 0.21577 0.0
H3573 H 0.51669 0.8937 0.21544 0.0
H3574 H 0.51421 0.86771 0.25201 0.0
H3575 H 0.53992 0.86593 0.2524 0.0
H3576 H 0.49355 0.86121 0.232 0.0
H3577 H 0.51167 0.90147 0.25623 0.0
H3578 H 0.52704 0.92217 0.25942 0.0
H3579 H 0.50905 0.94099 0.22299 0.0
H3580 H 0.49372 0.9203 0.21945 0.0
H3581 H 0.42245 0.88011 0.24654 0.0
H3582 H 0.4477 0.87582 0.24864 0.0
H3583 H 0.45566 0.90393 0.21445 0.0
H3584 H 0.43057 0.90846 0.21241 0.0
H3585 H 0.47361 0.90881 0.23524 0.0
H3586 H 0.45642 0.86832 0.21021 0.0
H3587 H 0.4414 0.84746 0.20641 0.0
H3588 H 0.45767 0.82905 0.24384 0.0
H3589 H 0.47266 0.8499 0.24796 0.0
C3590 C 0.53632 0.88657 0.22368 0.0
C3591 C 0.54313 0.87896 0.23419 0.0
C3592 C 0.52169 0.88755 0.22349 0.0
C3593 C 0.5136 0.88099 0.23382 0.0
C3594 C 0.5203 0.87288 0.24398 0.0
C3595 C 0.53497 0.87191 0.2442 0.0
C3596 C 0.49823 0.88316 0.2343 0.0
C3597 C 0.48915 0.87158 0.23292 0.0
C3598 C 0.49256 0.89673 0.23531 0.0
C3599 C 0.50163 0.90928 0.23751 0.0
C3600 C 0.51106 0.90998 0.24884 0.0
C3601 C 0.51976 0.92172 0.25072 0.0
C3602 C 0.51904 0.93288 0.2414 0.0
C3603 C 0.5096 0.93234 0.2302 0.0
C3604 C 0.50089 0.92061 0.22826 0.0
C3605 C 0.42957 0.88538 0.23947 0.0
C3606 C 0.42447 0.89462 0.2293 0.0
C3607 C 0.44399 0.88287 0.24065 0.0
C3608 C 0.45355 0.88946 0.23161 0.0
C3609 C 0.44848 0.89874 0.22153 0.0
C3610 C 0.43411 0.90129 0.22037 0.0
C3611 C 0.46886 0.88688 0.23267 0.0
C3612 C 0.47796 0.89841 0.2344 0.0
C3613 C 0.47452 0.87327 0.23194 0.0
C3614 C 0.46554 0.86073 0.22948 0.0
C3615 C 0.45671 0.85987 0.21769 0.0
C3616 C 0.44822 0.84804 0.21547 0.0
C3617 C 0.44855 0.83696 0.2249 0.0
C3618 C 0.45741 0.83766 0.23656 0.0
C3619 C 0.4659 0.84948 0.23884 0.0
H3620 H 0.44197 0.82781 0.22316 0.0
H3621 H 0.52579 0.94195 0.24286 0.0
H3622 H 0.08054 0.54993 0.21356 0.0
H3623 H 0.08496 0.52497 0.21557 0.0
H3624 H 0.11337 0.5329 0.24996 0.0
H3625 H 0.10922 0.55799 0.24786 0.0
H3626 H 0.1238 0.51349 0.23263 0.0
H3627 H 0.08018 0.52104 0.25589 0.0
H3628 H 0.05598 0.52961 0.2586 0.0
H3629 H 0.04223 0.50399 0.22423 0.0
H3630 H 0.0664 0.4954 0.22118 0.0
H3631 H 0.12203 0.44218 0.25657 0.0
H3632 H 0.12081 0.46767 0.25465 0.0
H3633 H 0.09379 0.46331 0.21861 0.0
H3634 H 0.09493 0.43793 0.22046 0.0
H3635 H 0.08313 0.48105 0.23811 0.0
H3636 H 0.12726 0.47385 0.21484 0.0
H3637 H 0.15151 0.46525 0.21265 0.0
H3638 H 0.16429 0.49008 0.24795 0.0
H3639 H 0.14006 0.49868 0.25047 0.0
C3640 C 0.08776 0.5464 0.22154 0.0
C3641 C 0.09445 0.55596 0.23062 0.0
C3642 C 0.09025 0.53211 0.2227 0.0
C3643 C 0.09932 0.52706 0.23306 0.0
C3644 C 0.10629 0.53658 0.24192 0.0
C3645 C 0.10388 0.55091 0.24072 0.0
C3646 C 0.10129 0.51181 0.23475 0.0
C3647 C 0.11494 0.5064 0.23403 0.0
C3648 C 0.0897 0.50256 0.2364 0.0
C3649 C 0.07513 0.50767 0.23823 0.0
C3650 C 0.07202 0.51731 0.24884 0.0
C3651 C 0.0583 0.52216 0.25045 0.0
C3652 C 0.04758 0.51737 0.24157 0.0
C3653 C 0.05055 0.5077 0.23109 0.0
C3654 C 0.06425 0.50283 0.22942 0.0
C3655 C 0.11596 0.44667 0.24816 0.0
C3656 C 0.10852 0.43805 0.23871 0.0
C3657 C 0.1153 0.46122 0.24705 0.0
C3658 C 0.10722 0.46736 0.23647 0.0
C3659 C 0.10005 0.45877 0.22687 0.0
C3660 C 0.10074 0.44427 0.22793 0.0
C3661 C 0.10561 0.48271 0.23576 0.0
C3662 C 0.092 0.48814 0.23673 0.0
C3663 C 0.11724 0.49194 0.23444 0.0
C3664 C 0.13181 0.48679 0.23294 0.0
C3665 C 0.13521 0.47737 0.22222 0.0
C3666 C 0.14896 0.47252 0.2209 0.0
C3667 C 0.15942 0.47708 0.23018 0.0
C3668 C 0.15617 0.48654 0.24078 0.0
C3669 C 0.14243 0.49141 0.24215 0.0
H3670 H 0.17006 0.47332 0.22914 0.0
H3671 H 0.03697 0.52114 0.24284 0.0
H3672 H 0.43516 0.86017 0.73101 0.0
H3673 H 0.46063 0.85903 0.73447 0.0
H3674 H 0.45729 0.88473 0.77129 0.0
H3675 H 0.43184 0.88602 0.76785 0.0
H3676 H 0.47757 0.89419 0.75412 0.0
H3677 H 0.46437 0.85032 0.77418 0.0
H3678 H 0.45263 0.82724 0.77511 0.0
H3679 H 0.47643 0.81362 0.73976 0.0
H3680 H 0.48817 0.83669 0.7385 0.0
H3681 H 0.54897 0.88803 0.77349 0.0
H3682 H 0.52337 0.88552 0.77459 0.0
H3683 H 0.52359 0.86047 0.73715 0.0
H3684 H 0.5492 0.8628 0.73603 0.0
H3685 H 0.50484 0.85034 0.75629 0.0
H3686 H 0.5166 0.89451 0.73516 0.0
H3687 H 0.52835 0.91757 0.73392 0.0
H3688 H 0.50703 0.93058 0.77103 0.0
H3689 H 0.4953 0.9075 0.77259 0.0
C3690 C 0.43984 0.86548 0.73991 0.0
C3691 C 0.43151 0.87322 0.74914 0.0
C3692 C 0.45438 0.86477 0.74191 0.0
C3693 C 0.46083 0.87171 0.7532 0.0
C3694 C 0.45251 0.87928 0.76253 0.0
C3695 C 0.43797 0.87999 0.76055 0.0
C3696 C 0.47634 0.87171 0.75483 0.0
C3697 C 0.48351 0.8846 0.75486 0.0
C3698 C 0.48409 0.85919 0.75545 0.0
C3699 C 0.47706 0.84529 0.75618 0.0
C3700 C 0.46702 0.84245 0.76654 0.0
C3701 C 0.46038 0.82935 0.76713 0.0
C3702 C 0.46376 0.81898 0.75748 0.0
C3703 C 0.47381 0.82167 0.74723 0.0
C3704 C 0.48047 0.83475 0.74658 0.0
C3705 C 0.54358 0.88185 0.76557 0.0
C3706 C 0.55107 0.87573 0.75458 0.0
C3707 C 0.52896 0.88045 0.76621 0.0
C3708 C 0.52159 0.87298 0.75584 0.0
C3709 C 0.52909 0.86631 0.74524 0.0
C3710 C 0.54372 0.86769 0.74458 0.0
C3711 C 0.50601 0.8728 0.75556 0.0
C3712 C 0.49885 0.8599 0.75571 0.0
C3713 C 0.49824 0.88531 0.75506 0.0
C3714 C 0.50519 0.89923 0.75408 0.0
C3715 C 0.5145 0.90225 0.74311 0.0
C3716 C 0.52114 0.91533 0.74234 0.0
C3717 C 0.51847 0.92552 0.75241 0.0
C3718 C 0.50911 0.92267 0.76325 0.0
C3719 C 0.50245 0.90959 0.76408 0.0
H3720 H 0.52362 0.93564 0.7518 0.0
H3721 H 0.45861 0.80885 0.75796 0.0
H3722 H 0.10379 0.4284 0.73119 0.0
H3723 H 0.10707 0.45366 0.72805 0.0
H3724 H 0.07063 0.46123 0.75346 0.0
H3725 H 0.06725 0.43618 0.75663 0.0
H3726 H 0.0705 0.47658 0.7294 0.0
H3727 H 0.10303 0.46536 0.76674 0.0
H3728 H 0.12306 0.45282 0.77705 0.0
H3729 H 0.15038 0.46934 0.74548 0.0
H3730 H 0.13045 0.48182 0.73486 0.0
H3731 H 0.07308 0.54427 0.75556 0.0
H3732 H 0.07405 0.51904 0.75279 0.0
H3733 H 0.11059 0.5234 0.72665 0.0
H3734 H 0.10975 0.54891 0.72939 0.0
H3735 H 0.11297 0.502 0.74664 0.0
H3736 H 0.08087 0.51585 0.71124 0.0
H3737 H 0.06076 0.52842 0.70116 0.0
H3738 H 0.03261 0.50693 0.72886 0.0
H3739 H 0.05258 0.49438 0.73926 0.0
C3740 C 0.09648 0.43546 0.73611 0.0
C3741 C 0.08528 0.43027 0.7442 0.0
C3742 C 0.09839 0.44987 0.73432 0.0
C3743 C 0.08911 0.45929 0.74057 0.0
C3744 C 0.07789 0.45412 0.74854 0.0
C3745 C 0.07602 0.43979 0.75039 0.0
C3746 C 0.09093 0.47459 0.73893 0.0
C3747 C 0.07977 0.48215 0.7332 0.0
C3748 C 0.10323 0.48177 0.74346 0.0
C3749 C 0.11522 0.47437 0.7499 0.0
C3750 C 0.11329 0.46622 0.76193 0.0
C3751 C 0.12462 0.45914 0.76784 0.0
C3752 C 0.13798 0.46024 0.76189 0.0
C3753 C 0.14003 0.46847 0.75005 0.0
C3754 C 0.12872 0.47555 0.74409 0.0
C3755 C 0.08136 0.53994 0.74922 0.0
C3756 C 0.0913 0.54865 0.74264 0.0
C3757 C 0.08186 0.52549 0.74762 0.0
C3758 C 0.09228 0.51938 0.73938 0.0
C3759 C 0.10243 0.52795 0.73301 0.0
C3760 C 0.1019 0.5425 0.73455 0.0
C3761 C 0.09233 0.504 0.73754 0.0
C3762 C 0.10382 0.49642 0.74258 0.0
C3763 C 0.08033 0.49676 0.73236 0.0
C3764 C 0.06825 0.50423 0.72609 0.0
C3765 C 0.0704 0.51387 0.71525 0.0
C3766 C 0.05903 0.52099 0.70947 0.0
C3767 C 0.04542 0.51849 0.71438 0.0
C3768 C 0.04316 0.50885 0.72507 0.0
C3769 C 0.0545 0.50172 0.7309 0.0
H3770 H 0.03663 0.52401 0.70989 0.0
H3771 H 0.14674 0.45475 0.76648 0.0
H3772 H 0.43155 0.07709 0.76965 0.0
H3773 H 0.45668 0.08171 0.76717 0.0
H3774 H 0.44865 0.10601 0.73024 0.0
H3775 H 0.42338 0.10165 0.73278 0.0
H3776 H 0.47411 0.07467 0.74696 0.0
H3777 H 0.47428 0.13166 0.72761 0.0
H3778 H 0.45984 0.15284 0.72934 0.0
H3779 H 0.44377 0.13898 0.76876 0.0
H3780 H 0.45825 0.11781 0.76735 0.0
H3781 H 0.54112 0.11572 0.7249 0.0
H3782 H 0.51537 0.11394 0.72558 0.0
H3783 H 0.51793 0.0915 0.76441 0.0
H3784 H 0.54355 0.09312 0.76377 0.0
H3785 H 0.49518 0.12228 0.74465 0.0
H3786 H 0.49421 0.06486 0.76359 0.0
H3787 H 0.50889 0.04382 0.76208 0.0
H3788 H 0.52662 0.05862 0.72371 0.0
H3789 H 0.5119 0.07964 0.72489 0.0
C3790 C 0.43509 0.08346 0.76101 0.0
C3791 C 0.42543 0.08901 0.75142 0.0
C3792 C 0.44948 0.08607 0.7596 0.0
C3793 C 0.45454 0.09428 0.74859 0.0
C3794 C 0.44496 0.09981 0.73895 0.0
C3795 C 0.43052 0.09726 0.74038 0.0
C3796 C 0.4699 0.09674 0.74713 0.0
C3797 C 0.47871 0.08509 0.74661 0.0
C3798 C 0.47589 0.11033 0.74624 0.0
C3799 C 0.46723 0.12308 0.74728 0.0
C3800 C 0.46769 0.13315 0.73666 0.0
C3801 C 0.4595 0.14516 0.73759 0.0
C3802 C 0.45085 0.14723 0.74913 0.0
C3803 C 0.45042 0.13733 0.75979 0.0
C3804 C 0.45861 0.12532 0.75893 0.0
C3805 C 0.53618 0.11052 0.73364 0.0
C3806 C 0.54436 0.10444 0.74421 0.0
C3807 C 0.52148 0.10954 0.73402 0.0
C3808 C 0.51478 0.1024 0.74493 0.0
C3809 C 0.52292 0.09685 0.75578 0.0
C3810 C 0.53756 0.09782 0.75541 0.0
C3811 C 0.49933 0.10021 0.7448 0.0
C3812 C 0.49054 0.11188 0.74495 0.0
C3813 C 0.49332 0.08663 0.74536 0.0
C3814 C 0.50204 0.07389 0.74441 0.0
C3815 C 0.50119 0.06359 0.7548 0.0
C3816 C 0.50952 0.05168 0.75401 0.0
C3817 C 0.51871 0.04991 0.74283 0.0
C3818 C 0.51954 0.06003 0.73239 0.0
C3819 C 0.51121 0.07195 0.73313 0.0
H3820 H 0.52517 0.04069 0.74225 0.0
H3821 H 0.44451 0.15652 0.74982 0.0
H3822 H 0.91138 0.5502 0.74835 0.0
H3823 H 0.90627 0.52523 0.74611 0.0
H3824 H 0.86181 0.53392 0.74408 0.0
H3825 H 0.86703 0.55898 0.74537 0.0
H3826 H 0.89452 0.508 0.76129 0.0
H3827 H 0.84356 0.50875 0.72743 0.0
H3828 H 0.83312 0.52269 0.70851 0.0
H3829 H 0.87429 0.5366 0.6961 0.0
H3830 H 0.88497 0.52261 0.71483 0.0
H3831 H 0.8663 0.44036 0.76521 0.0
H3832 H 0.86834 0.46586 0.76565 0.0
H3833 H 0.87476 0.46601 0.72112 0.0
H3834 H 0.87167 0.44064 0.72056 0.0
H3835 H 0.86128 0.48745 0.7267 0.0
H3836 H 0.90282 0.46798 0.74648 0.0
H3837 H 0.91685 0.45345 0.7624 0.0
H3838 H 0.90101 0.47615 0.79753 0.0
H3839 H 0.88674 0.49071 0.78182 0.0
C3840 C 0.90053 0.54675 0.74729 0.0
C3841 C 0.8896 0.55648 0.74696 0.0
C3842 C 0.8976 0.53248 0.74606 0.0
C3843 C 0.88364 0.52761 0.74479 0.0
C3844 C 0.87268 0.53736 0.74466 0.0
C3845 C 0.87566 0.55168 0.74549 0.0
C3846 C 0.88063 0.51233 0.74404 0.0
C3847 C 0.88727 0.50354 0.75368 0.0
C3848 C 0.87137 0.50637 0.73398 0.0
C3849 C 0.86504 0.51475 0.72264 0.0
C3850 C 0.85038 0.51475 0.72064 0.0
C3851 C 0.84442 0.52267 0.70995 0.0
C3852 C 0.85303 0.53056 0.70114 0.0
C3853 C 0.86762 0.53052 0.70296 0.0
C3854 C 0.87363 0.52262 0.71363 0.0
C3855 C 0.86794 0.4459 0.75551 0.0
C3856 C 0.86892 0.43859 0.74287 0.0
C3857 C 0.86922 0.46046 0.75577 0.0
C3858 C 0.87212 0.46789 0.74347 0.0
C3859 C 0.87257 0.46057 0.73076 0.0
C3860 C 0.87084 0.44606 0.73045 0.0
C3861 C 0.87524 0.48316 0.74389 0.0
C3862 C 0.86855 0.49193 0.73427 0.0
C3863 C 0.88502 0.48905 0.7535 0.0
C3864 C 0.8936 0.48034 0.76299 0.0
C3865 C 0.90226 0.46981 0.75761 0.0
C3866 C 0.91026 0.46158 0.76659 0.0
C3867 C 0.90979 0.46385 0.78097 0.0
C3868 C 0.90134 0.47439 0.7864 0.0
C3869 C 0.8933 0.48264 0.77746 0.0
H3870 H 0.91599 0.45746 0.78791 0.0
H3871 H 0.8484 0.53669 0.69287 0.0
H3872 H 0.25179 0.54396 0.11975 0.0
H3873 H 0.25024 0.51843 0.12014 0.0
H3874 H 0.21444 0.51961 0.09236 0.0
H3875 H 0.21572 0.54511 0.09218 0.0
H3876 H 0.21066 0.50011 0.11176 0.0
H3877 H 0.24775 0.51343 0.08026 0.0
H3878 H 0.2698 0.52536 0.07349 0.0
H3879 H 0.29244 0.50246 0.10461 0.0
H3880 H 0.27048 0.49052 0.1117 0.0
H3881 H 0.21224 0.43345 0.08011 0.0
H3882 H 0.21316 0.45841 0.0852 0.0
H3883 H 0.24743 0.45196 0.114 0.0
H3884 H 0.24669 0.42688 0.1089 0.0
H3885 H 0.25252 0.47374 0.09643 0.0
H3886 H 0.2151 0.45875 0.12625 0.0
H3887 H 0.19285 0.44673 0.13215 0.0
H3888 H 0.17054 0.47265 0.10326 0.0
H3889 H 0.1927 0.4847 0.09703 0.0
C3890 C 0.24351 0.53878 0.11384 0.0
C3891 C 0.23396 0.54653 0.10583 0.0
C3892 C 0.24267 0.5242 0.11403 0.0
C3893 C 0.23238 0.51711 0.10609 0.0
C3894 C 0.22249 0.52485 0.09854 0.0
C3895 C 0.22326 0.53943 0.09841 0.0
C3896 C 0.23223 0.50164 0.10513 0.0
C3897 C 0.21977 0.49435 0.10831 0.0
C3898 C 0.24423 0.4941 0.10091 0.0
C3899 C 0.25745 0.5012 0.09661 0.0
C3900 C 0.25742 0.51101 0.08573 0.0
C3901 C 0.2699 0.51777 0.08183 0.0
C3902 C 0.28251 0.5147 0.08865 0.0
C3903 C 0.28267 0.50484 0.09936 0.0
C3904 C 0.27021 0.49807 0.10332 0.0
C3905 C 0.21996 0.43729 0.08757 0.0
C3906 C 0.22939 0.42814 0.09411 0.0
C3907 C 0.22041 0.45157 0.09052 0.0
C3908 C 0.23025 0.45701 0.1001 0.0
C3909 C 0.23972 0.44795 0.10661 0.0
C3910 C 0.23926 0.43362 0.1037 0.0
C3911 C 0.2309 0.47223 0.10291 0.0
C3912 C 0.24345 0.47948 0.10005 0.0
C3913 C 0.21896 0.47973 0.10731 0.0
C3914 C 0.20559 0.47256 0.1111 0.0
C3915 C 0.20547 0.46182 0.12107 0.0
C3916 C 0.19287 0.45501 0.12449 0.0
C3917 C 0.1803 0.4589 0.11807 0.0
C3918 C 0.18029 0.46964 0.10823 0.0
C3919 C 0.19287 0.47647 0.10476 0.0
H3920 H 0.17055 0.45362 0.12073 0.0
H3921 H 0.29216 0.51994 0.08561 0.0
H3922 H 0.25668 0.54644 0.8638 0.0
H3923 H 0.25589 0.52093 0.86162 0.0
H3924 H 0.21765 0.51968 0.88566 0.0
H3925 H 0.21819 0.54505 0.88759 0.0
H3926 H 0.25766 0.50204 0.88152 0.0
H3927 H 0.19713 0.49263 0.87678 0.0
H3928 H 0.17656 0.50375 0.86589 0.0
H3929 H 0.20339 0.52342 0.8357 0.0
H3930 H 0.22409 0.51226 0.84627 0.0
H3931 H 0.21536 0.43551 0.89824 0.0
H3932 H 0.21705 0.46042 0.89312 0.0
H3933 H 0.25252 0.45297 0.86636 0.0
H3934 H 0.25096 0.42795 0.87144 0.0
H3935 H 0.2152 0.47447 0.86803 0.0
H3936 H 0.27517 0.48163 0.87069 0.0
H3937 H 0.2959 0.47068 0.88152 0.0
H3938 H 0.27031 0.45592 0.91529 0.0
H3939 H 0.24949 0.46693 0.90476 0.0
C3940 C 0.24801 0.54072 0.86845 0.0
C3941 C 0.2375 0.54774 0.87587 0.0
C3942 C 0.24759 0.52616 0.86722 0.0
C3943 C 0.23664 0.51841 0.87334 0.0
C3944 C 0.22605 0.52544 0.88059 0.0
C3945 C 0.22642 0.53996 0.88176 0.0
C3946 C 0.23666 0.50292 0.87301 0.0
C3947 C 0.24849 0.496 0.87826 0.0
C3948 C 0.22462 0.49505 0.86895 0.0
C3949 C 0.21218 0.50167 0.8624 0.0
C3950 C 0.19864 0.49926 0.86777 0.0
C3951 C 0.18695 0.50559 0.86166 0.0
C3952 C 0.18867 0.51431 0.85013 0.0
C3953 C 0.20208 0.5167 0.84466 0.0
C3954 C 0.21379 0.51039 0.85072 0.0
C3955 C 0.22354 0.43913 0.89126 0.0
C3956 C 0.23307 0.42974 0.88529 0.0
C3957 C 0.22443 0.45337 0.88829 0.0
C3958 C 0.23493 0.45852 0.87941 0.0
C3959 C 0.2444 0.44919 0.87332 0.0
C3960 C 0.24347 0.43491 0.87623 0.0
C3961 C 0.23605 0.47372 0.87682 0.0
C3962 C 0.22444 0.48055 0.87103 0.0
C3963 C 0.2483 0.4815 0.88031 0.0
C3964 C 0.26076 0.47494 0.88683 0.0
C3965 C 0.27399 0.47606 0.88044 0.0
C3966 C 0.28575 0.46985 0.88652 0.0
C3967 C 0.28441 0.46256 0.89905 0.0
C3968 C 0.27132 0.46151 0.90555 0.0
C3969 C 0.25954 0.46772 0.89951 0.0
H3970 H 0.29353 0.45775 0.90374 0.0
H3971 H 0.17962 0.51921 0.84542 0.0
H3972 H 0.43835 0.25503 0.86216 0.0
H3973 H 0.46365 0.25111 0.86034 0.0
H3974 H 0.45886 0.21199 0.88214 0.0
H3975 H 0.43361 0.21596 0.88423 0.0
H3976 H 0.47982 0.22703 0.89289 0.0
H3977 H 0.46563 0.21284 0.8471 0.0
H3978 H 0.45376 0.21508 0.82432 0.0
H3979 H 0.47918 0.2512 0.81499 0.0
H3980 H 0.49106 0.2493 0.83781 0.0
H3981 H 0.55073 0.20797 0.88389 0.0
H3982 H 0.5251 0.20715 0.88142 0.0
H3983 H 0.52612 0.24721 0.86092 0.0
H3984 H 0.55172 0.24799 0.86312 0.0
H3985 H 0.50692 0.22968 0.84889 0.0
H3986 H 0.51938 0.24503 0.89541 0.0
H3987 H 0.53114 0.24305 0.91828 0.0
H3988 H 0.50865 0.20474 0.92617 0.0
H3989 H 0.4969 0.2064 0.90325 0.0
C3990 C 0.44268 0.24555 0.86648 0.0
C3991 C 0.43402 0.23583 0.87338 0.0
C3992 C 0.45712 0.24328 0.86536 0.0
C3993 C 0.46311 0.23119 0.87099 0.0
C3994 C 0.45444 0.22138 0.87771 0.0
C3995 C 0.44002 0.22367 0.87889 0.0
C3996 C 0.47853 0.22915 0.87057 0.0
C3997 C 0.48571 0.22734 0.88323 0.0
C3998 C 0.48623 0.22986 0.85799 0.0
C3999 C 0.47916 0.23099 0.84422 0.0
C4000 C 0.46862 0.22132 0.84024 0.0
C4001 C 0.4619 0.22252 0.82731 0.0
C4002 C 0.4657 0.23329 0.81822 0.0
C4003 C 0.47624 0.24287 0.82204 0.0
C4004 C 0.48298 0.24172 0.83496 0.0
C4005 C 0.54551 0.21652 0.87872 0.0
C4006 C 0.55321 0.22812 0.87385 0.0
C4007 C 0.53087 0.21606 0.87734 0.0
C4008 C 0.52371 0.22723 0.87118 0.0
C4009 C 0.53144 0.2385 0.86573 0.0
C4010 C 0.54607 0.23895 0.86705 0.0
C4011 C 0.50815 0.22764 0.8712 0.0
C4012 C 0.50097 0.2292 0.8585 0.0
C4013 C 0.50041 0.22671 0.88373 0.0
C4014 C 0.50739 0.22576 0.89756 0.0
C4015 C 0.51702 0.23613 0.90198 0.0
C4016 C 0.52367 0.23507 0.91496 0.0
C4017 C 0.52067 0.22375 0.92366 0.0
C4018 C 0.51098 0.21349 0.91941 0.0
C4019 C 0.50432 0.21448 0.90643 0.0
H4020 H 0.52583 0.22295 0.9337 0.0
H4021 H 0.46048 0.2342 0.80822 0.0
H4022 H 0.73468 0.55392 0.87343 0.0
H4023 H 0.7339 0.529 0.86753 0.0
H4024 H 0.76796 0.52155 0.89634 0.0
H4025 H 0.76891 0.54632 0.90221 0.0
H4026 H 0.7716 0.50778 0.8717 0.0
H4027 H 0.73432 0.51458 0.90539 0.0
H4028 H 0.71254 0.52523 0.91412 0.0
H4029 H 0.69006 0.51047 0.87794 0.0
H4030 H 0.71176 0.49988 0.86891 0.0
H4031 H 0.76798 0.4368 0.88996 0.0
H4032 H 0.76844 0.46223 0.8885 0.0
H4033 H 0.73212 0.46097 0.86134 0.0
H4034 H 0.73139 0.43546 0.86304 0.0
H4035 H 0.72861 0.47959 0.88118 0.0
H4036 H 0.76506 0.47001 0.84893 0.0
H4037 H 0.7867 0.45915 0.84018 0.0
H4038 H 0.81068 0.47898 0.87287 0.0
H4039 H 0.78915 0.48981 0.88195 0.0
C4040 C 0.74203 0.54698 0.87848 0.0
C4041 C 0.75181 0.55212 0.88835 0.0
C4042 C 0.74155 0.53275 0.87511 0.0
C4043 C 0.75083 0.52343 0.88156 0.0
C4044 C 0.76073 0.52857 0.89122 0.0
C4045 C 0.7612 0.54274 0.89461 0.0
C4046 C 0.7501 0.50824 0.87862 0.0
C4047 C 0.76223 0.50158 0.87382 0.0
C4048 C 0.73772 0.50025 0.88096 0.0
C4049 C 0.72469 0.50659 0.8864 0.0
C4050 C 0.72475 0.51371 0.89924 0.0
C4051 C 0.71243 0.51971 0.90425 0.0
C4052 C 0.69994 0.51857 0.89657 0.0
C4053 C 0.69975 0.51137 0.88387 0.0
C4054 C 0.71206 0.50537 0.8788 0.0
C4055 C 0.76017 0.44191 0.88356 0.0
C4056 C 0.74962 0.43413 0.87664 0.0
C4057 C 0.7605 0.45646 0.88266 0.0
C4058 C 0.75041 0.46352 0.87467 0.0
C4059 C 0.74002 0.45575 0.86754 0.0
C4060 C 0.73964 0.44118 0.8685 0.0
C4061 C 0.75024 0.47902 0.87457 0.0
C4062 C 0.73793 0.48576 0.8788 0.0
C4063 C 0.76244 0.48708 0.87164 0.0
C4064 C 0.77545 0.48065 0.86617 0.0
C4065 C 0.77493 0.47198 0.85431 0.0
C4066 C 0.78718 0.46584 0.84929 0.0
C4067 C 0.80005 0.46835 0.85598 0.0
C4068 C 0.8007 0.47704 0.8677 0.0
C4069 C 0.78848 0.4832 0.87278 0.0
H4070 H 0.80953 0.46359 0.85208 0.0
H4071 H 0.6904 0.52322 0.90047 0.0
H4072 H 0.43643 0.7736 0.886 0.0
H4073 H 0.46169 0.77347 0.88132 0.0
H4074 H 0.45664 0.7353 0.85769 0.0
H4075 H 0.43142 0.73525 0.86246 0.0
H4076 H 0.4771 0.73316 0.87669 0.0
H4077 H 0.46453 0.766 0.84152 0.0
H4078 H 0.45336 0.78704 0.83193 0.0
H4079 H 0.47862 0.813 0.85898 0.0
H4080 H 0.4898 0.7921 0.86889 0.0
H4081 H 0.54853 0.73078 0.85715 0.0
H4082 H 0.52299 0.73281 0.8548 0.0
H4083 H 0.52417 0.7705 0.87956 0.0
H4084 H 0.5497 0.76866 0.8818 0.0
H4085 H 0.50557 0.7725 0.85787 0.0
H4086 H 0.5162 0.73984 0.89452 0.0
H4087 H 0.52722 0.71896 0.90462 0.0
H4088 H 0.50525 0.69285 0.87505 0.0
H4089 H 0.49424 0.71362 0.86464 0.0
C4090 C 0.44068 0.76526 0.87965 0.0
C4091 C 0.43196 0.75437 0.87467 0.0
C4092 C 0.4551 0.76525 0.87693 0.0
C4093 C 0.46103 0.75442 0.8691 0.0
C4094 C 0.45227 0.74376 0.86376 0.0
C4095 C 0.43786 0.74375 0.86648 0.0
C4096 C 0.47648 0.75362 0.8674 0.0
C4097 C 0.48329 0.74166 0.8723 0.0
C4098 C 0.48458 0.76485 0.86201 0.0
C4099 C 0.47792 0.77746 0.85604 0.0
C4100 C 0.46763 0.77619 0.84551 0.0
C4101 C 0.46131 0.78809 0.84 0.0
C4102 C 0.46526 0.80135 0.84487 0.0
C4103 C 0.47556 0.80272 0.85523 0.0
C4104 C 0.4819 0.79085 0.86079 0.0
C4105 C 0.54337 0.73958 0.86197 0.0
C4106 C 0.5511 0.74948 0.86979 0.0
C4107 C 0.52878 0.74071 0.86063 0.0
C4108 C 0.52168 0.7517 0.86716 0.0
C4109 C 0.52945 0.76193 0.87445 0.0
C4110 C 0.54403 0.76082 0.87578 0.0
C4111 C 0.50611 0.75207 0.86719 0.0
C4112 C 0.49932 0.76396 0.86206 0.0
C4113 C 0.49798 0.74079 0.87241 0.0
C4114 C 0.50453 0.72829 0.8787 0.0
C4115 C 0.51381 0.72966 0.8901 0.0
C4116 C 0.52004 0.71784 0.89589 0.0
C4117 C 0.51697 0.70459 0.89046 0.0
C4118 C 0.50763 0.70312 0.87924 0.0
C4119 C 0.50139 0.71491 0.87339 0.0
H4120 H 0.5218 0.69545 0.89496 0.0
H4121 H 0.46035 0.81055 0.84059 0.0
H4122 H 0.7613 0.548 0.07926 0.0
H4123 H 0.75976 0.52272 0.08176 0.0
H4124 H 0.7259 0.52721 0.11114 0.0
H4125 H 0.72752 0.55267 0.10891 0.0
H4126 H 0.74468 0.50804 0.11979 0.0
H4127 H 0.71908 0.51734 0.07784 0.0
H4128 H 0.71524 0.52752 0.05457 0.0
H4129 H 0.75003 0.50435 0.03849 0.0
H4130 H 0.75423 0.4942 0.06172 0.0
H4131 H 0.72358 0.43605 0.11584 0.0
H4132 H 0.72421 0.46162 0.1152 0.0
H4133 H 0.75916 0.46043 0.08673 0.0
H4134 H 0.75858 0.43491 0.08727 0.0
H4135 H 0.73848 0.47798 0.07793 0.0
H4136 H 0.76457 0.46941 0.12004 0.0
H4137 H 0.76861 0.45945 0.14337 0.0
H4138 H 0.73274 0.48123 0.15908 0.0
H4139 H 0.72837 0.49118 0.13578 0.0
C4140 C 0.7535 0.54366 0.08626 0.0
C4141 C 0.74447 0.55238 0.09383 0.0
C4142 C 0.75261 0.52918 0.08764 0.0
C4143 C 0.74257 0.52309 0.09647 0.0
C4144 C 0.73369 0.53173 0.10422 0.0
C4145 C 0.7346 0.54626 0.1029 0.0
C4146 C 0.74144 0.50768 0.09755 0.0
C4147 C 0.74309 0.50146 0.11067 0.0
C4148 C 0.73963 0.49912 0.0856 0.0
C4149 C 0.73704 0.50509 0.07157 0.0
C4150 C 0.72597 0.51449 0.06937 0.0
C4151 C 0.72372 0.52024 0.05618 0.0
C4152 C 0.7324 0.5166 0.04507 0.0
C4153 C 0.74332 0.50717 0.04711 0.0
C4154 C 0.74563 0.5014 0.06029 0.0
C4155 C 0.73146 0.44124 0.10952 0.0
C4156 C 0.74102 0.43348 0.10158 0.0
C4157 C 0.73183 0.45584 0.10919 0.0
C4158 C 0.74176 0.4629 0.10095 0.0
C4159 C 0.7514 0.45517 0.09314 0.0
C4160 C 0.75108 0.44059 0.0935 0.0
C4161 C 0.74188 0.47834 0.10014 0.0
C4162 C 0.74 0.48456 0.08705 0.0
C4163 C 0.74344 0.48688 0.11211 0.0
C4164 C 0.74605 0.48091 0.12613 0.0
C4165 C 0.75747 0.47198 0.12844 0.0
C4166 C 0.75983 0.46636 0.14166 0.0
C4167 C 0.75091 0.46967 0.15269 0.0
C4168 C 0.73963 0.47865 0.15052 0.0
C4169 C 0.73721 0.48429 0.13731 0.0
H4170 H 0.75277 0.46532 0.16292 0.0
H4171 H 0.73064 0.52107 0.03487 0.0
H4172 H 0.54909 0.76942 0.07884 0.0
H4173 H 0.52443 0.7686 0.08576 0.0
H4174 H 0.53293 0.73379 0.11286 0.0
H4175 H 0.55768 0.73448 0.10597 0.0
H4176 H 0.50932 0.72966 0.09649 0.0
H4177 H 0.52798 0.76493 0.12691 0.0
H4178 H 0.54141 0.78635 0.13279 0.0
H4179 H 0.51349 0.81058 0.10748 0.0
H4180 H 0.50001 0.78926 0.10125 0.0
H4181 H 0.44044 0.7306 0.12357 0.0
H4182 H 0.46615 0.73205 0.12346 0.0
H4183 H 0.46429 0.76844 0.09711 0.0
H4184 H 0.43863 0.76725 0.09742 0.0
H4185 H 0.48523 0.77107 0.11594 0.0
H4186 H 0.46865 0.73603 0.08327 0.0
H4187 H 0.45549 0.71479 0.0762 0.0
H4188 H 0.4798 0.69039 0.10484 0.0
H4189 H 0.49296 0.71155 0.11223 0.0
C4190 C 0.54575 0.76158 0.08628 0.0
C4191 C 0.55537 0.75202 0.09186 0.0
C4192 C 0.53166 0.76118 0.09028 0.0
C4193 C 0.52692 0.75125 0.09994 0.0
C4194 C 0.53642 0.74158 0.10543 0.0
C4195 C 0.55055 0.74201 0.10149 0.0
C4196 C 0.51192 0.75077 0.10398 0.0
C4197 C 0.5041 0.7386 0.10102 0.0
C4198 C 0.50511 0.76256 0.10961 0.0
C4199 C 0.51304 0.77546 0.11353 0.0
C4200 C 0.52475 0.77481 0.12252 0.0
C4201 C 0.53237 0.78693 0.12593 0.0
C4202 C 0.52833 0.79981 0.12049 0.0
C4203 C 0.51662 0.80059 0.11168 0.0
C4204 C 0.50897 0.78849 0.10822 0.0
C4205 C 0.44551 0.73902 0.11792 0.0
C4206 C 0.43752 0.74871 0.11036 0.0
C4207 C 0.46019 0.73982 0.11784 0.0
C4208 C 0.46712 0.75021 0.11008 0.0
C4209 C 0.45916 0.76032 0.10314 0.0
C4210 C 0.44449 0.75958 0.10328 0.0
C4211 C 0.4826 0.75001 0.1083 0.0
C4212 C 0.4905 0.76205 0.11164 0.0
C4213 C 0.4895 0.73813 0.10292 0.0
C4214 C 0.48167 0.72539 0.09841 0.0
C4215 C 0.47111 0.72615 0.08813 0.0
C4216 C 0.46367 0.71413 0.08406 0.0
C4217 C 0.46678 0.70126 0.0901 0.0
C4218 C 0.47738 0.70037 0.10019 0.0
C4219 C 0.48484 0.71238 0.10432 0.0
H4220 H 0.461 0.69196 0.08693 0.0
H4221 H 0.53425 0.80918 0.12313 0.0
H4222 H 0.54011 0.25011 0.11338 0.0
H4223 H 0.51439 0.24921 0.11277 0.0
H4224 H 0.51568 0.2089 0.0926 0.0
H4225 H 0.54137 0.20981 0.09298 0.0
H4226 H 0.49848 0.22619 0.07915 0.0
H4227 H 0.50573 0.21241 0.12683 0.0
H4228 H 0.51513 0.21481 0.15073 0.0
H4229 H 0.49326 0.2535 0.15572 0.0
H4230 H 0.48388 0.25142 0.13177 0.0
H4231 H 0.42702 0.20789 0.08145 0.0
H4232 H 0.4523 0.20825 0.08577 0.0
H4233 H 0.44889 0.24821 0.10631 0.0
H4234 H 0.42341 0.24778 0.10234 0.0
H4235 H 0.4671 0.23186 0.11989 0.0
H4236 H 0.46003 0.24602 0.07255 0.0
H4237 H 0.45065 0.24413 0.04861 0.0
H4238 H 0.47243 0.2055 0.04284 0.0
H4239 H 0.48178 0.20705 0.06683 0.0
C4240 C 0.53491 0.24098 0.10895 0.0
C4241 C 0.54277 0.23005 0.10318 0.0
C4242 C 0.52021 0.24047 0.10866 0.0
C4243 C 0.51311 0.22895 0.10271 0.0
C4244 C 0.52094 0.21789 0.09723 0.0
C4245 C 0.53563 0.21842 0.09748 0.0
C4246 C 0.49755 0.22876 0.10143 0.0
C4247 C 0.49163 0.22721 0.08809 0.0
C4248 C 0.48862 0.23059 0.11304 0.0
C4249 C 0.49422 0.23183 0.12746 0.0
C4250 C 0.50302 0.22149 0.13298 0.0
C4251 C 0.50832 0.22278 0.14654 0.0
C4252 C 0.50482 0.23432 0.15472 0.0
C4253 C 0.49598 0.24458 0.14936 0.0
C4254 C 0.49065 0.24334 0.1358 0.0
C4255 C 0.4316 0.21675 0.08694 0.0
C4256 C 0.42321 0.22788 0.09142 0.0
C4257 C 0.44608 0.21695 0.08937 0.0
C4258 C 0.45253 0.22839 0.09612 0.0
C4259 C 0.44414 0.23931 0.10103 0.0
C4260 C 0.42959 0.23906 0.09872 0.0
C4261 C 0.46806 0.22908 0.09763 0.0
C4262 C 0.47398 0.2308 0.11097 0.0
C4263 C 0.47703 0.2275 0.08601 0.0
C4264 C 0.47151 0.22659 0.07153 0.0
C4265 C 0.46274 0.23707 0.06621 0.0
C4266 C 0.45744 0.23607 0.05263 0.0
C4267 C 0.46091 0.22468 0.04422 0.0
C4268 C 0.46973 0.2143 0.04937 0.0
C4269 C 0.47505 0.21524 0.06296 0.0
H4270 H 0.45679 0.22392 0.0337 0.0
H4271 H 0.50894 0.2353 0.16522 0.0
H4272 H 0.62287 0.75403 0.04173 0.0
H4273 H 0.62243 0.75274 0.01626 0.0
H4274 H 0.5927 0.7184 0.01816 0.0
H4275 H 0.59338 0.71937 0.04359 0.0
H4276 H 0.61135 0.71387 -0.00167 0.0
H4277 H 0.58214 0.75227 0.0121 0.0
H4278 H 0.57688 0.77444 0.02404 0.0
H4279 H 0.60903 0.79539 0.00045 0.0
H4280 H 0.6146 0.77328 0.98849 0.0
H4281 H 0.57934 0.71725 0.93185 0.0
H4282 H 0.58421 0.71801 0.95682 0.0
H4283 H 0.61525 0.75054 0.95039 0.0
H4284 H 0.61037 0.74997 0.92533 0.0
H4285 H 0.59792 0.75635 0.97214 0.0
H4286 H 0.62562 0.71769 0.957 0.0
H4287 H 0.63004 0.69536 0.945 0.0
H4288 H 0.59976 0.67471 0.9711 0.0
H4289 H 0.59501 0.69696 0.98314 0.0
C4290 C 0.61633 0.74612 0.03671 0.0
C4291 C 0.60806 0.73688 0.04465 0.0
C4292 C 0.61605 0.74544 0.02217 0.0
C4293 C 0.60733 0.73564 0.01531 0.0
C4294 C 0.59947 0.72607 0.02323 0.0
C4295 C 0.59984 0.72667 0.03777 0.0
C4296 C 0.60598 0.73562 -0.0001 0.0
C4297 C 0.6083 0.72312 -0.00739 0.0
C4298 C 0.60229 0.74778 -0.00759 0.0
C4299 C 0.59889 0.76109 -0.00049 0.0
C4300 C 0.58815 0.76158 0.00953 0.0
C4301 C 0.58511 0.77414 0.01629 0.0
C4302 C 0.59264 0.78631 0.01304 0.0
C4303 C 0.60321 0.78595 0.00298 0.0
C4304 C 0.60632 0.77341 -0.0038 0.0
C4305 C 0.58722 0.72458 0.9357 0.0
C4306 C 0.59449 0.73353 0.92656 0.0
C4307 C 0.59004 0.72494 0.94999 0.0
C4308 C 0.60022 0.7342 0.95543 0.0
C4309 C 0.60739 0.74327 0.94638 0.0
C4310 C 0.6046 0.74291 0.93207 0.0
C4311 C 0.60314 0.73457 0.97061 0.0
C4312 C 0.6011 0.74713 0.97784 0.0
C4313 C 0.60698 0.72245 0.97806 0.0
C4314 C 0.60988 0.70902 0.9709 0.0
C4315 C 0.61983 0.70841 0.96012 0.0
C4316 C 0.62241 0.69576 0.95332 0.0
C4317 C 0.61516 0.68363 0.95726 0.0
C4318 C 0.60536 0.68412 0.96805 0.0
C4319 C 0.60273 0.69674 0.97487 0.0
H4320 H 0.61717 0.67385 0.95199 0.0
H4321 H 0.59027 0.79602 0.01828 0.0
H4322 H 0.23283 0.60833 0.93166 0.0
H4323 H 0.22935 0.61092 0.95688 0.0
H4324 H 0.25119 0.57229 0.96385 0.0
H4325 H 0.25472 0.56963 0.93889 0.0
H4326 H 0.2267 0.57413 0.97905 0.0
H4327 H 0.26796 0.60261 0.96825 0.0
H4328 H 0.28035 0.62178 0.95613 0.0
H4329 H 0.25184 0.65145 0.97369 0.0
H4330 H 0.23915 0.6324 0.98576 0.0
H4331 H 0.25685 0.57029 0.04481 0.0
H4332 H 0.25286 0.57318 0.01991 0.0
H4333 H 0.22995 0.61101 0.0277 0.0
H4334 H 0.23385 0.60819 0.05286 0.0
H4335 H 0.24983 0.61289 0.0053 0.0
H4336 H 0.21118 0.58438 0.01939 0.0
H4337 H 0.19931 0.56498 0.03162 0.0
H4338 H 0.22287 0.53529 0.00787 0.0
H4339 H 0.23505 0.55452 -0.00435 0.0
C4340 C 0.23682 0.60036 0.93858 0.0
C4341 C 0.24411 0.5888 0.93328 0.0
C4342 C 0.23485 0.60188 0.95296 0.0
C4343 C 0.24005 0.59181 0.9622 0.0
C4344 C 0.24706 0.58015 0.95689 0.0
C4345 C 0.24913 0.5787 0.9426 0.0
C4346 C 0.23861 0.59333 0.97748 0.0
C4347 C 0.23173 0.58262 0.9848 0.0
C4348 C 0.2448 0.60463 0.98491 0.0
C4349 C 0.2525 0.61607 0.97775 0.0
C4350 C 0.26426 0.61321 0.96943 0.0
C4351 C 0.27135 0.62405 0.96259 0.0
C4352 C 0.26686 0.63782 0.9641 0.0
C4353 C 0.25529 0.64078 0.9725 0.0
C4354 C 0.24815 0.62996 0.97935 0.0
C4355 C 0.25098 0.57926 0.0413 0.0
C4356 C 0.24562 0.58898 0.05086 0.0
C4357 C 0.24868 0.58087 0.02705 0.0
C4358 C 0.24099 0.59222 0.02201 0.0
C4359 C 0.23587 0.60215 0.03143 0.0
C4360 C 0.23807 0.60049 0.04577 0.0
C4361 C 0.23836 0.59342 0.00685 0.0
C4362 C 0.24446 0.60461 -0.00045 0.0
C4363 C 0.23145 0.58254 -0.00061 0.0
C4364 C 0.22409 0.57091 0.00665 0.0
C4365 C 0.21391 0.57371 0.01684 0.0
C4366 C 0.20711 0.56275 0.02376 0.0
C4367 C 0.21034 0.54891 0.02054 0.0
C4368 C 0.22037 0.54601 0.01036 0.0
C4369 C 0.22721 0.55695 0.00341 0.0
H4370 H 0.20507 0.54043 0.02591 0.0
H4371 H 0.27235 0.6462 0.95879 0.0
H4372 H 0.35746 0.22759 0.04106 0.0
H4373 H 0.35753 0.22892 0.01557 0.0
H4374 H 0.38623 0.26412 0.01768 0.0
H4375 H 0.38601 0.26303 0.04308 0.0
H4376 H 0.36641 0.26825 -0.00165 0.0
H4377 H 0.39782 0.23099 0.01106 0.0
H4378 H 0.40418 0.20882 0.02236 0.0
H4379 H 0.37267 0.18706 -0.00179 0.0
H4380 H 0.366 0.20916 0.98689 0.0
H4381 H 0.40046 0.26858 0.93347 0.0
H4382 H 0.39441 0.26675 0.95805 0.0
H4383 H 0.3654 0.23302 0.94863 0.0
H4384 H 0.37147 0.23468 0.92391 0.0
H4385 H 0.3822 0.22725 0.97106 0.0
H4386 H 0.35277 0.2646 0.95641 0.0
H4387 H 0.34714 0.28692 0.94501 0.0
H4388 H 0.37549 0.30868 0.97271 0.0
H4389 H 0.38145 0.28647 0.98415 0.0
C4390 C 0.36369 0.23567 0.03608 0.0
C4391 C 0.3718 0.24515 0.04407 0.0
C4392 C 0.36377 0.23638 0.02153 0.0
C4393 C 0.37203 0.24651 0.01473 0.0
C4394 C 0.37979 0.25622 0.02271 0.0
C4395 C 0.37968 0.25555 0.03723 0.0
C4396 C 0.373 0.24682 -0.00068 0.0
C4397 C 0.36994 0.25932 -0.00762 0.0
C4398 C 0.37726 0.23504 -0.00849 0.0
C4399 C 0.3813 0.22175 -0.00174 0.0
C4400 C 0.39218 0.2215 0.00824 0.0
C4401 C 0.39585 0.20894 0.01463 0.0
C4402 C 0.38881 0.19654 0.01103 0.0
C4403 C 0.3781 0.19667 0.001 0.0
C4404 C 0.37437 0.20921 -0.00541 0.0
C4405 C 0.39275 0.26079 0.93657 0.0
C4406 C 0.38643 0.25179 0.92669 0.0
C4407 C 0.38926 0.25981 0.95064 0.0
C4408 C 0.37933 0.24987 0.95513 0.0
C4409 C 0.37304 0.2408 0.94535 0.0
C4410 C 0.37651 0.2418 0.93123 0.0
C4411 C 0.37588 0.24877 0.97013 0.0
C4412 C 0.37847 0.23612 0.97699 0.0
C4413 C 0.37126 0.26043 0.97788 0.0
C4414 C 0.36764 0.27384 0.97108 0.0
C4415 C 0.35789 0.27413 0.96001 0.0
C4416 C 0.35462 0.28677 0.95355 0.0
C4417 C 0.36097 0.2992 0.95811 0.0
C4418 C 0.37058 0.29904 0.96918 0.0
C4419 C 0.3739 0.28643 0.97567 0.0
H4420 H 0.35843 0.30898 0.9531 0.0
H4421 H 0.39167 0.18683 0.01599 0.0
H4422 H 0.74571 0.37077 0.0523 0.0
H4423 H 0.74834 0.36722 0.0271 0.0
H4424 H 0.7186 0.40006 0.01936 0.0
H4425 H 0.7157 0.40345 0.04425 0.0
H4426 H 0.71306 0.3784 0.00313 0.0
H4427 H 0.75509 0.40487 0.01692 0.0
H4428 H 0.77722 0.40842 0.03007 0.0
H4429 H 0.7939 0.37095 0.0122 0.0
H4430 H 0.77179 0.36709 -0.00093 0.0
H4431 H 0.72295 0.40757 0.93803 0.0
H4432 H 0.72324 0.40295 0.96293 0.0
H4433 H 0.75163 0.36872 0.95653 0.0
H4434 H 0.75155 0.37338 0.93138 0.0
H4435 H 0.75894 0.38506 0.97949 0.0
H4436 H 0.71802 0.36124 0.96251 0.0
H4437 H 0.69602 0.35848 0.949 0.0
H4438 H 0.67715 0.39131 0.97281 0.0
H4439 H 0.6991 0.39441 0.98633 0.0
C4440 C 0.73971 0.37719 0.04521 0.0
C4441 C 0.73049 0.38739 0.05031 0.0
C4442 C 0.74126 0.37518 0.03082 0.0
C4443 C 0.73372 0.38343 0.02134 0.0
C4444 C 0.72448 0.39352 0.02646 0.0
C4445 C 0.72286 0.39547 0.04074 0.0
C4446 C 0.73531 0.38185 0.00604 0.0
C4447 C 0.7231 0.37988 -0.00203 0.0
C4448 C 0.74847 0.38325 -0.0007 0.0
C4449 C 0.76174 0.3856 0.00716 0.0
C4450 C 0.76344 0.39733 0.01589 0.0
C4451 C 0.77599 0.39941 0.02332 0.0
C4452 C 0.78694 0.38989 0.02201 0.0
C4453 C 0.78539 0.37829 0.01323 0.0
C4454 C 0.77287 0.37616 0.00579 0.0
C4455 C 0.7293 0.39906 0.94185 0.0
C4456 C 0.73713 0.39076 0.93266 0.0
C4457 C 0.72941 0.39641 0.95611 0.0
C4458 C 0.73724 0.38533 0.96154 0.0
C4459 C 0.74544 0.37726 0.95252 0.0
C4460 C 0.74536 0.37993 0.93817 0.0
C4461 C 0.7366 0.38229 0.97666 0.0
C4462 C 0.74896 0.38329 0.98466 0.0
C4463 C 0.72355 0.38004 0.98338 0.0
C4464 C 0.71024 0.37809 0.9754 0.0
C4465 C 0.7092 0.36792 0.96482 0.0
C4466 C 0.69674 0.36629 0.95716 0.0
C4467 C 0.6852 0.37473 0.96004 0.0
C4468 C 0.68609 0.38478 0.9706 0.0
C4469 C 0.69854 0.38646 0.97828 0.0
H4470 H 0.67556 0.37345 0.9541 0.0
H4471 H 0.79664 0.39152 0.02777 0.0
H4472 H 0.58331 0.25932 0.93716 0.0
H4473 H 0.58654 0.25763 0.96227 0.0
H4474 H 0.61017 0.21981 0.95692 0.0
H4475 H 0.60702 0.22144 0.93154 0.0
H4476 H 0.58926 0.21809 0.97778 0.0
H4477 H 0.62792 0.24732 0.96589 0.0
H4478 H 0.64025 0.26679 0.9542 0.0
H4479 H 0.61468 0.29631 0.97599 0.0
H4480 H 0.60203 0.27701 0.98765 0.0
H4481 H 0.60141 0.22304 0.05192 0.0
H4482 H 0.60644 0.22086 0.02697 0.0
H4483 H 0.58399 0.25895 0.01907 0.0
H4484 H 0.5789 0.26122 0.04384 0.0
H4485 H 0.60933 0.25779 0.00501 0.0
H4486 H 0.56824 0.22838 0.01329 0.0
H4487 H 0.5553 0.20902 0.02452 0.0
H4488 H 0.58561 0.17985 0.00927 0.0
H4489 H 0.59884 0.19909 -0.0019 0.0
C4490 C 0.58922 0.25063 0.94126 0.0
C4491 C 0.59492 0.24051 0.93233 0.0
C4492 C 0.59112 0.24973 0.95563 0.0
C4493 C 0.59872 0.23868 0.96142 0.0
C4494 C 0.60433 0.22845 0.95261 0.0
C4495 C 0.60255 0.22942 0.93814 0.0
C4496 C 0.60031 0.23783 0.97675 0.0
C4497 C 0.59398 0.22659 0.98376 0.0
C4498 C 0.60632 0.24901 0.9845 0.0
C4499 C 0.61397 0.26069 0.97759 0.0
C4500 C 0.62485 0.25796 0.96812 0.0
C4501 C 0.63191 0.26896 0.96151 0.0
C4502 C 0.62824 0.28277 0.96434 0.0
C4503 C 0.61752 0.2856 0.97381 0.0
C4504 C 0.61041 0.27463 0.98044 0.0
C4505 C 0.5976 0.23098 0.04487 0.0
C4506 C 0.58969 0.24227 0.04987 0.0
C4507 C 0.60046 0.2297 0.03063 0.0
C4508 C 0.59554 0.23972 0.0212 0.0
C4509 C 0.58791 0.25113 0.0262 0.0
C4510 C 0.58495 0.25236 0.04036 0.0
C4511 C 0.59788 0.23829 0.00602 0.0
C4512 C 0.60495 0.24912 -0.00096 0.0
C4513 C 0.59256 0.22674 -0.00169 0.0
C4514 C 0.58462 0.21519 0.00503 0.0
C4515 C 0.57221 0.21786 0.01244 0.0
C4516 C 0.56481 0.2069 0.01877 0.0
C4517 C 0.56966 0.19322 0.01765 0.0
C4518 C 0.58189 0.19046 0.01016 0.0
C4519 C 0.58934 0.20138 0.00383 0.0
H4520 H 0.56391 0.18475 0.02255 0.0
H4521 H 0.63371 0.29128 0.9592 0.0
H4522 H 0.71125 0.59724 0.05183 0.0
H4523 H 0.71045 0.59844 0.02641 0.0
H4524 H 0.74851 0.62339 0.02652 0.0
H4525 H 0.74938 0.62231 0.052 0.0
H4526 H 0.72863 0.63244 0.00702 0.0
H4527 H 0.75087 0.58962 0.02103 0.0
H4528 H 0.75239 0.5674 0.03386 0.0
H4529 H 0.71527 0.55212 0.01288 0.0
H4530 H 0.7134 0.57436 8e-05 0.0
H4531 H 0.75355 0.61969 0.93857 0.0
H4532 H 0.75047 0.62191 0.96375 0.0
H4533 H 0.71408 0.59463 0.96161 0.0
H4534 H 0.71716 0.59225 0.93642 0.0
H4535 H 0.73177 0.58706 0.98212 0.0
H4536 H 0.71017 0.62917 0.96697 0.0
H4537 H 0.70842 0.65136 0.95415 0.0
H4538 H 0.74377 0.66799 0.97704 0.0
H4539 H 0.74589 0.6458 0.98985 0.0
C4540 C 0.71937 0.60312 0.04647 0.0
C4541 C 0.73047 0.60955 0.0539 0.0
C4542 C 0.71889 0.60378 0.03195 0.0
C4543 C 0.72952 0.61084 0.02461 0.0
C4544 C 0.74023 0.61787 0.03202 0.0
C4545 C 0.74074 0.6172 0.04656 0.0
C4546 C 0.72996 0.61012 0.00922 0.0
C4547 C 0.72945 0.62255 0.00155 0.0
C4548 C 0.73071 0.59716 0.00214 0.0
C4549 C 0.73191 0.58371 0.00971 0.0
C4550 C 0.74297 0.58157 0.01923 0.0
C4551 C 0.7439 0.56896 0.02649 0.0
C4552 C 0.73391 0.55837 0.02422 0.0
C4553 C 0.72299 0.56034 0.01465 0.0
C4554 C 0.72199 0.57294 0.00738 0.0
C4555 C 0.74484 0.61423 0.94344 0.0
C4556 C 0.73562 0.60577 0.93553 0.0
C4557 C 0.74306 0.61556 0.95782 0.0
C4558 C 0.73198 0.60852 0.96452 0.0
C4559 C 0.72269 0.60016 0.95662 0.0
C4560 C 0.72445 0.59883 0.94224 0.0
C4561 C 0.73047 0.6094 0.97985 0.0
C4562 C 0.73083 0.59697 0.98754 0.0
C4563 C 0.72955 0.62236 0.98692 0.0
C4564 C 0.72827 0.63576 0.97929 0.0
C4565 C 0.71765 0.63751 0.9692 0.0
C4566 C 0.71657 0.6501 0.96194 0.0
C4567 C 0.72599 0.66107 0.96476 0.0
C4568 C 0.73649 0.65948 0.97486 0.0
C4569 C 0.73762 0.6469 0.98213 0.0
H4570 H 0.72515 0.67081 0.95913 0.0
H4571 H 0.73465 0.54863 0.02986 0.0
H4572 H 0.41203 0.72783 0.94001 0.0
H4573 H 0.40966 0.72775 0.96524 0.0
H4574 H 0.3754 0.75677 0.96231 0.0
H4575 H 0.37777 0.75705 0.93686 0.0
H4576 H 0.39381 0.7633 0.98381 0.0
H4577 H 0.36788 0.72336 0.9681 0.0
H4578 H 0.36357 0.70171 0.95467 0.0
H4579 H 0.39782 0.68195 0.97591 0.0
H4580 H 0.40248 0.70354 0.98933 0.0
H4581 H 0.37927 0.74973 0.05612 0.0
H4582 H 0.37627 0.75232 0.03089 0.0
H4583 H 0.40982 0.72317 0.02398 0.0
H4584 H 0.41278 0.72038 0.04904 0.0
H4585 H 0.38759 0.71756 0.00736 0.0
H4586 H 0.41504 0.75847 0.02095 0.0
H4587 H 0.41954 0.78021 0.03417 0.0
H4588 H 0.38213 0.79814 0.0169 0.0
H4589 H 0.37731 0.77642 0.00371 0.0
C4590 C 0.404 0.73426 0.94467 0.0
C4591 C 0.39501 0.74237 0.93638 0.0
C4592 C 0.40264 0.73415 0.95912 0.0
C4593 C 0.39219 0.74205 0.96562 0.0
C4594 C 0.38347 0.75053 0.95747 0.0
C4595 C 0.38484 0.75066 0.94294 0.0
C4596 C 0.39043 0.74119 0.98092 0.0
C4597 C 0.39216 0.75335 0.98898 0.0
C4598 C 0.38841 0.72818 0.98763 0.0
C4599 C 0.38558 0.71511 0.97966 0.0
C4600 C 0.37455 0.71443 0.96984 0.0
C4601 C 0.37204 0.70216 0.96224 0.0
C4602 C 0.38043 0.69047 0.96442 0.0
C4603 C 0.39133 0.69101 0.97423 0.0
C4604 C 0.3939 0.70326 0.98185 0.0
C4605 C 0.38599 0.74386 0.04922 0.0
C4606 C 0.39628 0.73486 0.05461 0.0
C4607 C 0.38429 0.74539 0.03481 0.0
C4608 C 0.39289 0.73801 0.02557 0.0
C4609 C 0.40306 0.72894 0.03093 0.0
C4610 C 0.40475 0.7274 0.04528 0.0
C4611 C 0.39144 0.7396 0.01027 0.0
C4612 C 0.38903 0.72755 0.00221 0.0
C4613 C 0.39282 0.75271 0.00359 0.0
C4614 C 0.39573 0.76577 0.01148 0.0
C4615 C 0.40772 0.76701 0.02007 0.0
C4616 C 0.41033 0.77933 0.02754 0.0
C4617 C 0.4011 0.79054 0.02641 0.0
C4618 C 0.38925 0.78945 0.01778 0.0
C4619 C 0.38658 0.77714 0.0103 0.0
H4620 H 0.40315 0.80007 0.0322 0.0
H4621 H 0.37847 0.68098 0.95852 0.0
H4622 H 0.22803 0.36042 0.04567 0.0
H4623 H 0.23039 0.35884 0.02036 0.0
H4624 H 0.26696 0.38593 0.0222 0.0
H4625 H 0.26457 0.38768 0.0475 0.0
H4626 H 0.24865 0.39437 0.00275 0.0
H4627 H 0.27038 0.35139 0.01522 0.0
H4628 H 0.27241 0.32856 0.02684 0.0
H4629 H 0.23601 0.31337 0.00459 0.0
H4630 H 0.23363 0.33619 -0.00703 0.0
H4631 H 0.26615 0.38695 0.93169 0.0
H4632 H 0.26783 0.38521 0.95705 0.0
H4633 H 0.23023 0.35956 0.9576 0.0
H4634 H 0.22854 0.36113 0.9322 0.0
H4635 H 0.25047 0.35009 0.97581 0.0
H4636 H 0.22803 0.39355 0.96457 0.0
H4637 H 0.22602 0.41637 0.95292 0.0
H4638 H 0.264 0.43061 0.97309 0.0
H4639 H 0.26634 0.40778 0.9847 0.0
C4640 C 0.23664 0.36594 0.0407 0.0
C4641 C 0.24609 0.37421 0.04857 0.0
C4642 C 0.23802 0.36498 0.02624 0.0
C4643 C 0.24892 0.37219 0.01942 0.0
C4644 C 0.25848 0.38027 0.02727 0.0
C4645 C 0.25711 0.38124 0.04172 0.0
C4646 C 0.24984 0.37194 0.00401 0.0
C4647 C 0.24931 0.38469 -0.00313 0.0
C4648 C 0.25036 0.35929 -0.00365 0.0
C4649 C 0.25175 0.34555 0.00332 0.0
C4650 C 0.26273 0.34322 0.01289 0.0
C4651 C 0.26396 0.33027 0.01946 0.0
C4652 C 0.25433 0.31953 0.01648 0.0
C4653 C 0.24346 0.32171 0.0069 0.0
C4654 C 0.24217 0.33464 0.00031 0.0
C4655 C 0.2583 0.38084 0.93719 0.0
C4656 C 0.24713 0.37429 0.92997 0.0
C4657 C 0.25927 0.37988 0.95168 0.0
C4658 C 0.24905 0.37241 0.9592 0.0
C4659 C 0.23821 0.36539 0.95198 0.0
C4660 C 0.23723 0.36635 0.93748 0.0
C4661 C 0.24926 0.3725 0.97462 0.0
C4662 C 0.24995 0.35974 0.98173 0.0
C4663 C 0.24888 0.38514 0.98229 0.0
C4664 C 0.24744 0.39891 0.97539 0.0
C4665 C 0.23601 0.40151 0.96643 0.0
C4666 C 0.2348 0.41445 0.95985 0.0
C4667 C 0.2449 0.42492 0.96223 0.0
C4668 C 0.2562 0.42248 0.97123 0.0
C4669 C 0.25747 0.40955 0.97783 0.0
H4670 H 0.24395 0.43494 0.95712 0.0
H4671 H 0.2553 0.30951 0.02157 0.0
H4672 H 0.05233 0.62097 0.749 0.0
H4673 H 0.02688 0.62411 0.74801 0.0
H4674 H 0.02465 0.59931 0.71044 0.0
H4675 H 0.05018 0.59625 0.71124 0.0
H4676 H 0.00686 0.62189 0.70948 0.0
H4677 H 0.01749 0.58426 0.74062 0.0
H4678 H 0.02946 0.57302 0.76042 0.0
H4679 H 0.01162 0.6029 0.78852 0.0
H4680 H -0.00029 0.61445 0.76884 0.0
H4681 H 0.93464 0.60061 0.71398 0.0
H4682 H 0.96025 0.60214 0.71197 0.0
H4683 H 0.96238 0.62605 0.75013 0.0
H4684 H 0.93681 0.62444 0.75229 0.0
H4685 H 0.9803 0.60449 0.75044 0.0
H4686 H 0.96864 0.64149 0.71896 0.0
H4687 H 0.95659 0.65222 0.69893 0.0
H4688 H 0.97599 0.62296 0.67122 0.0
H4689 H 0.98801 0.61191 0.69112 0.0
C4690 C 0.04645 0.6163 0.74043 0.0
C4691 C 0.05322 0.60821 0.73028 0.0
C4692 C 0.03192 0.6181 0.7399 0.0
C4693 C 0.02388 0.61176 0.72927 0.0
C4694 C 0.03068 0.60425 0.71874 0.0
C4695 C 0.04525 0.60246 0.71925 0.0
C4696 C 0.00833 0.61224 0.72968 0.0
C4697 C 0.00101 0.61797 0.71836 0.0
C4698 C 0.00077 0.6073 0.74137 0.0
C4699 C 0.00783 0.60031 0.75324 0.0
C4700 C 0.01621 0.5885 0.751 0.0
C4701 C 0.02297 0.58206 0.76221 0.0
C4702 C 0.02133 0.58726 0.77572 0.0
C4703 C 0.0129 0.59889 0.77805 0.0
C4704 C 0.00613 0.60539 0.76688 0.0
C4705 C 0.94055 0.60632 0.72187 0.0
C4706 C 0.93373 0.61234 0.73334 0.0
C4707 C 0.95517 0.60724 0.72067 0.0
C4708 C 0.9632 0.61427 0.73087 0.0
C4709 C 0.95637 0.62057 0.74215 0.0
C4710 C 0.94176 0.61966 0.74335 0.0
C4711 C 0.97876 0.61427 0.7303 0.0
C4712 C 0.98611 0.60852 0.74158 0.0
C4713 C 0.98629 0.61912 0.71855 0.0
C4714 C 0.97913 0.62579 0.70656 0.0
C4715 C 0.97025 0.63726 0.70861 0.0
C4716 C 0.96344 0.64342 0.69728 0.0
C4717 C 0.96549 0.63825 0.68382 0.0
C4718 C 0.9744 0.62694 0.68166 0.0
C4719 C 0.98122 0.62074 0.69296 0.0
H4720 H 0.96021 0.64303 0.67506 0.0
H4721 H 0.02657 0.58227 0.78438 0.0
H4722 H 0.36281 0.92284 0.73895 0.0
H4723 H 0.35641 0.94756 0.73974 0.0
H4724 H 0.3998 0.95924 0.73276 0.0
H4725 H 0.40606 0.93466 0.73125 0.0
H4726 H 0.36204 0.96867 0.75504 0.0
H4727 H 0.40334 0.98775 0.71411 0.0
H4728 H 0.41456 0.97893 0.69275 0.0
H4729 H 0.37986 0.95056 0.686 0.0
H4730 H 0.36834 0.95934 0.7072 0.0
H4731 H 0.37403 0.04109 0.76245 0.0
H4732 H 0.37397 0.0156 0.76092 0.0
H4733 H 0.36166 0.01804 0.71757 0.0
H4734 H 0.36296 0.04354 0.71888 0.0
H4735 H 0.37997 0.00071 0.71853 0.0
H4736 H 0.33906 0.00546 0.7459 0.0
H4737 H 0.32409 0.01374 0.76507 0.0
H4738 H 0.35094 -0.00628 0.79488 0.0
H4739 H 0.36619 0.98547 0.77591 0.0
C4740 C 0.37096 0.93071 0.73759 0.0
C4741 C 0.3849 0.92685 0.73488 0.0
C4742 C 0.3673 0.94483 0.73807 0.0
C4743 C 0.37756 0.95529 0.73601 0.0
C4744 C 0.3916 0.95139 0.73394 0.0
C4745 C 0.3952 0.93733 0.73316 0.0
C4746 C 0.3737 0.97029 0.73591 0.0
C4747 C 0.36587 0.97569 0.74703 0.0
C4748 C 0.37822 0.97938 0.72518 0.0
C4749 C 0.38504 0.97414 0.71232 0.0
C4750 C 0.39807 0.97968 0.70803 0.0
C4751 C 0.40449 0.97467 0.69596 0.0
C4752 C 0.39794 0.96416 0.68804 0.0
C4753 C 0.38494 0.95867 0.69216 0.0
C4754 C 0.37847 0.96364 0.70422 0.0
C4755 C 0.37115 0.03612 0.75267 0.0
C4756 C 0.36851 0.04417 0.74078 0.0
C4757 C 0.37099 0.02154 0.7518 0.0
C4758 C 0.3676 0.01476 0.73917 0.0
C4759 C 0.36439 0.02293 0.72743 0.0
C4760 C 0.36506 0.03749 0.72818 0.0
C4761 C 0.36856 -0.00071 0.73787 0.0
C4762 C 0.3759 -0.00625 0.72649 0.0
C4763 C 0.36298 0.99003 0.748 0.0
C4764 C 0.35383 -0.00507 0.75947 0.0
C4765 C 0.34183 0.0029 0.75655 0.0
C4766 C 0.33328 0.00757 0.76738 0.0
C4767 C 0.33658 0.00428 0.78118 0.0
C4768 C 0.3484 -0.00373 0.78418 0.0
C4769 C 0.35699 -0.00843 0.77339 0.0
H4770 H 0.32995 0.00791 0.78956 0.0
H4771 H 0.40293 0.96029 0.6787 0.0
H4772 H 0.04051 0.38741 0.71423 0.0
H4773 H 0.01493 0.38934 0.71442 0.0
H4774 H 0.01327 0.36705 0.75339 0.0
H4775 H 0.03896 0.36502 0.75328 0.0
H4776 H -0.00845 0.35936 0.73443 0.0
H4777 H 0.01192 0.40078 0.75482 0.0
H4778 H 0.02814 0.42105 0.75571 0.0
H4779 H 0.00936 0.43749 0.71851 0.0
H4780 H -0.00682 0.41718 0.71726 0.0
H4781 H 0.92162 0.38153 0.7495 0.0
H4782 H 0.94676 0.37656 0.7512 0.0
H4783 H 0.95457 0.40229 0.71515 0.0
H4784 H 0.92961 0.40756 0.71356 0.0
H4785 H 0.97335 0.40776 0.73471 0.0
H4786 H 0.95392 0.3661 0.71339 0.0
H4787 H 0.93807 0.34558 0.71172 0.0
H4788 H 0.95505 0.32953 0.74992 0.0
H4789 H 0.97089 0.35006 0.75192 0.0
C4790 C 0.03471 0.38277 0.72277 0.0
C4791 C 0.04176 0.3762 0.73383 0.0
C4792 C 0.0201 0.3839 0.72287 0.0
C4793 C 0.01227 0.37853 0.73402 0.0
C4794 C 0.01917 0.37131 0.74471 0.0
C4795 C 0.03383 0.37019 0.74465 0.0
C4796 C -0.00298 0.38124 0.73486 0.0
C4797 C 0.98753 0.36992 0.7347 0.0
C4798 C -0.00815 0.39504 0.73503 0.0
C4799 C 0.00141 0.4074 0.73588 0.0
C4800 C 0.01131 0.40867 0.74677 0.0
C4801 C 0.02049 0.42017 0.74735 0.0
C4802 C 0.0198 0.43054 0.73716 0.0
C4803 C 0.0099 0.42945 0.72639 0.0
C4804 C 0.00071 0.41795 0.72575 0.0
C4805 C 0.92869 0.38614 0.74194 0.0
C4806 C 0.92359 0.39494 0.73139 0.0
C4807 C 0.94305 0.38323 0.74289 0.0
C4808 C 0.95253 0.38894 0.73321 0.0
C4809 C 0.94746 0.39779 0.72274 0.0
C4810 C 0.93316 0.40077 0.72184 0.0
C4811 C 0.96777 0.38588 0.73397 0.0
C4812 C 0.9773 0.39718 0.73451 0.0
C4813 C 0.97295 0.37206 0.73409 0.0
C4814 C 0.96347 0.35969 0.73288 0.0
C4815 C 0.95419 0.35825 0.72149 0.0
C4816 C 0.94523 0.34661 0.72047 0.0
C4817 C 0.94552 0.33628 0.73073 0.0
C4818 C 0.95482 0.33755 0.742 0.0
C4819 C 0.9638 0.34919 0.74308 0.0
H4820 H 0.93857 0.32728 0.72992 0.0
H4821 H 0.02693 0.43944 0.73762 0.0
H4822 H 0.60635 0.93466 0.75616 0.0
H4823 H 0.6096 0.96015 0.75609 0.0
H4824 H 0.58093 0.96322 0.72128 0.0
H4825 H 0.57763 0.93798 0.72124 0.0
H4826 H 0.60508 0.97889 0.71761 0.0
H4827 H 0.57003 0.97062 0.75343 0.0
H4828 H 0.56129 0.96035 0.77533 0.0
H4829 H 0.59503 0.98033 0.798 0.0
H4830 H 0.60407 0.99057 0.77618 0.0
H4831 H 0.57729 0.04597 0.7143 0.0
H4832 H 0.58155 0.02109 0.71701 0.0
H4833 H 0.60889 0.02967 0.75209 0.0
H4834 H 0.60459 0.05474 0.74954 0.0
H4835 H 0.59029 0.00838 0.75743 0.0
H4836 H 0.62318 0.01964 0.72202 0.0
H4837 H 0.63173 0.03009 0.70015 0.0
H4838 H 0.60257 0.00464 0.6767 0.0
H4839 H 0.59369 -0.00583 0.69845 0.0
C4840 C 0.60075 0.94078 0.7485 0.0
C4841 C 0.5917 0.93428 0.73873 0.0
C4842 C 0.6026 0.95532 0.74849 0.0
C4843 C 0.59548 0.96354 0.73869 0.0
C4844 C 0.58657 0.95706 0.72889 0.0
C4845 C 0.58464 0.94261 0.72895 0.0
C4846 C 0.59706 0.97895 0.73855 0.0
C4847 C 0.60182 0.98536 0.72629 0.0
C4848 C 0.59327 0.98734 0.75006 0.0
C4849 C 0.58783 0.9812 0.76316 0.0
C4850 C 0.57565 0.97271 0.76307 0.0
C4851 C 0.57063 0.96692 0.77547 0.0
C4852 C 0.57763 0.96965 0.78804 0.0
C4853 C 0.58964 0.9782 0.78825 0.0
C4854 C 0.59471 0.98401 0.77587 0.0
C4855 C 0.58427 0.04263 0.72257 0.0
C4856 C 0.59061 0.05238 0.73169 0.0
C4857 C 0.58675 0.02838 0.72405 0.0
C4858 C 0.59567 0.02355 0.73464 0.0
C4859 C 0.60202 0.0332 0.74381 0.0
C4860 C 0.59957 0.04752 0.7423 0.0
C4861 C 0.59787 0.00833 0.73629 0.0
C4862 C 0.59384 0.00195 0.74883 0.0
C4863 C 0.60238 -5e-05 0.72504 0.0
C4864 C 0.60771 0.00617 0.71189 0.0
C4865 C 0.61852 0.01634 0.71221 0.0
C4866 C 0.62344 0.02226 0.69983 0.0
C4867 C 0.61768 0.01805 0.68705 0.0
C4868 C 0.60702 0.00789 0.68661 0.0
C4869 C 0.60205 0.00194 0.69896 0.0
H4870 H 0.62151 0.02264 0.67747 0.0
H4871 H 0.57372 0.96516 0.79763 0.0
H4872 H 0.93867 0.37077 0.26286 0.0
H4873 H 0.96429 0.37268 0.26436 0.0
H4874 H 0.9662 0.38055 0.22012 0.0
H4875 H 0.94062 0.37778 0.21848 0.0
H4876 H 0.98754 0.36641 0.22645 0.0
H4877 H 0.96765 0.40755 0.24552 0.0
H4878 H 0.95238 0.42167 0.26061 0.0
H4879 H 0.9729 0.40535 0.29695 0.0
H4880 H 0.98818 0.39098 0.28208 0.0
H4881 H 0.05049 0.41413 0.25291 0.0
H4882 H 0.02543 0.40969 0.2492 0.0
H4883 H 0.03329 0.36539 0.24654 0.0
H4884 H 0.05855 0.36998 0.24925 0.0
H4885 H 0.00691 0.39825 0.26282 0.0
H4886 H 0.00844 0.34824 0.22818 0.0
H4887 H 0.02336 0.33787 0.20999 0.0
H4888 H 0.0392 0.37861 0.19925 0.0
H4889 H 0.02425 0.38924 0.21724 0.0
C4890 C 0.9446 0.37273 0.25344 0.0
C4891 C 0.93771 0.37423 0.24058 0.0
C4892 C 0.95923 0.37391 0.25431 0.0
C4893 C 0.96719 0.37714 0.24242 0.0
C4894 C 0.96032 0.37811 0.22946 0.0
C4895 C 0.94571 0.37655 0.22853 0.0
C4896 C 0.98256 0.38005 0.2436 0.0
C4897 C -0.00822 0.37338 0.2344 0.0
C4898 C 0.98812 0.38946 0.25369 0.0
C4899 C 0.97896 0.39809 0.26269 0.0
C4900 C 0.96884 0.4069 0.25673 0.0
C4901 C 0.96019 0.41495 0.26524 0.0
C4902 C 0.96164 0.41438 0.27973 0.0
C4903 C 0.97177 0.40577 0.28573 0.0
C4904 C 0.98044 0.39767 0.27727 0.0
C4905 C 0.04685 0.40345 0.25144 0.0
C4906 C 0.05641 0.39239 0.25132 0.0
C4907 C 0.03251 0.4009 0.24936 0.0
C4908 C 0.02738 0.3872 0.24744 0.0
C4909 C 0.03695 0.37609 0.24759 0.0
C4910 C 0.05137 0.3787 0.24925 0.0
C4911 C 0.01198 0.38462 0.24567 0.0
C4912 C 0.00272 0.3913 0.25483 0.0
C4913 C 0.00637 0.3758 0.23508 0.0
C4914 C 0.01533 0.36951 0.22416 0.0
C4915 C 0.01508 0.35499 0.2219 0.0
C4916 C 0.02354 0.34906 0.21163 0.0
C4917 C 0.03226 0.35757 0.2035 0.0
C4918 C 0.03248 0.37203 0.20559 0.0
C4919 C 0.02403 0.378 0.21583 0.0
H4920 H 0.03881 0.35296 0.19556 0.0
H4921 H 0.95494 0.42062 0.2863 0.0
H4922 H 0.57989 0.04385 0.26265 0.0
H4923 H 0.58365 0.01876 0.26194 0.0
H4924 H 0.61265 0.02402 0.22789 0.0
H4925 H 0.60889 0.04935 0.22846 0.0
H4926 H 0.59343 0.00251 0.22336 0.0
H4927 H 0.62567 0.0162 0.25895 0.0
H4928 H 0.63382 0.02848 0.28017 0.0
H4929 H 0.60333 0.00598 0.30448 0.0
H4930 H 0.59485 -0.00629 0.28337 0.0
H4931 H 0.60535 0.92871 0.23076 0.0
H4932 H 0.61023 0.95386 0.22914 0.0
H4933 H 0.58222 0.9613 0.26354 0.0
H4934 H 0.5774 0.93634 0.26532 0.0
H4935 H 0.6063 0.97644 0.26611 0.0
H4936 H 0.57165 0.96611 0.22997 0.0
H4937 H 0.56294 0.95413 0.20878 0.0
H4938 H 0.59795 0.97049 0.18561 0.0
H4939 H 0.60696 0.98243 0.20673 0.0
C4940 C 0.58712 0.03974 0.25502 0.0
C4941 C 0.59411 0.04864 0.24562 0.0
C4942 C 0.58931 0.02538 0.25468 0.0
C4943 C 0.59857 0.01955 0.24499 0.0
C4944 C 0.60552 0.02834 0.2355 0.0
C4945 C 0.60338 0.0428 0.23587 0.0
C4946 C 0.6005 0.00421 0.24467 0.0
C4947 C 0.59658 -0.0032 0.2326 0.0
C4948 C 0.60446 -0.00322 0.25677 0.0
C4949 C 0.60958 0.00408 0.26954 0.0
C4950 C 0.62064 0.01393 0.2688 0.0
C4951 C 0.62532 0.02088 0.28082 0.0
C4952 C 0.61908 0.01802 0.29367 0.0
C4953 C 0.60815 0.00818 0.29452 0.0
C4954 C 0.60342 0.00121 0.28254 0.0
C4955 C 0.60029 0.9357 0.23802 0.0
C4956 C 0.59094 0.9305 0.24814 0.0
C4957 C 0.60306 0.95007 0.23705 0.0
C4958 C 0.59652 0.95945 0.24617 0.0
C4959 C 0.58741 0.95424 0.25642 0.0
C4960 C 0.58462 0.93995 0.25738 0.0
C4961 C 0.59874 0.97475 0.24498 0.0
C4962 C 0.60347 0.98215 0.25678 0.0
C4963 C 0.5955 0.98215 0.23264 0.0
C4964 C 0.59007 0.975 0.21996 0.0
C4965 C 0.57755 0.96705 0.22038 0.0
C4966 C 0.57255 0.96029 0.20838 0.0
C4967 C 0.57992 0.9615 0.19587 0.0
C4968 C 0.59228 0.96952 0.19532 0.0
C4969 C 0.59733 0.9763 0.2073 0.0
H4970 H 0.57602 0.95626 0.18659 0.0
H4971 H 0.62272 0.02342 0.30296 0.0
H4972 H 0.04544 0.61946 0.22727 0.0
H4973 H 0.01995 0.62009 0.23041 0.0
H4974 H 0.0245 0.60148 0.27108 0.0
H4975 H 0.04995 0.60048 0.26785 0.0
H4976 H 0.00472 0.58843 0.25685 0.0
H4977 H 0.01579 0.63647 0.26671 0.0
H4978 H 0.02625 0.65973 0.2623 0.0
H4979 H 0.00134 0.66353 0.22508 0.0
H4980 H -0.00914 0.64022 0.22917 0.0
H4981 H 0.93309 0.59504 0.27491 0.0
H4982 H 0.95864 0.59846 0.27519 0.0
H4983 H 0.95675 0.61606 0.23388 0.0
H4984 H 0.93122 0.61296 0.23365 0.0
H4985 H 0.9752 0.63026 0.24981 0.0
H4986 H 0.96549 0.58186 0.23899 0.0
H4987 H 0.95506 0.55852 0.24299 0.0
H4988 H 0.97764 0.55539 0.2817 0.0
H4989 H 0.98806 0.57882 0.27802 0.0
C4990 C 0.04101 0.61563 0.23694 0.0
C4991 C 0.04968 0.60988 0.2473 0.0
C4992 C 0.02645 0.61606 0.23875 0.0
C4993 C 0.02031 0.61095 0.25104 0.0
C4994 C 0.029 0.60547 0.26151 0.0
C4995 C 0.04354 0.60493 0.25965 0.0
C4996 C 0.0048 0.61055 0.25266 0.0
C4997 C -0.0017 0.59765 0.25557 0.0
C4998 C -0.00362 0.62249 0.25063 0.0
C4999 C 0.00262 0.63654 0.24819 0.0
C5000 C 0.01261 0.64222 0.25753 0.0
C5001 C 0.01854 0.65543 0.2551 0.0
C5002 C 0.01449 0.66309 0.2434 0.0
C5003 C 0.00447 0.65758 0.23413 0.0
C5004 C -0.00147 0.64438 0.23651 0.0
C5005 C 0.93811 0.59974 0.26594 0.0
C5006 C 0.93017 0.60361 0.25421 0.0
C5007 C 0.95271 0.60166 0.26609 0.0
C5008 C 0.95962 0.60732 0.25446 0.0
C5009 C 0.95164 0.61165 0.24295 0.0
C5010 C 0.93705 0.60983 0.24282 0.0
C5011 C 0.97519 0.60817 0.25398 0.0
C5012 C 0.98167 0.62111 0.25124 0.0
C5013 C 0.98362 0.59627 0.25612 0.0
C5014 C 0.97744 0.58215 0.2583 0.0
C5015 C 0.96815 0.57624 0.2484 0.0
C5016 C 0.96225 0.56299 0.2506 0.0
C5017 C 0.96565 0.55549 0.26261 0.0
C5018 C 0.97499 0.56122 0.27242 0.0
C5019 C 0.98091 0.57448 0.27028 0.0
H5020 H 0.96107 0.54524 0.2643 0.0
H5021 H 0.01908 0.67331 0.24154 0.0
H5022 H 0.36433 0.05863 0.23753 0.0
H5023 H 0.3575 0.03389 0.23757 0.0
H5024 H 0.40047 0.02275 0.24661 0.0
H5025 H 0.40717 0.04742 0.24722 0.0
H5026 H 0.36315 0.01232 0.2233 0.0
H5027 H 0.40282 -0.00502 0.26663 0.0
H5028 H 0.41344 0.0047 0.28813 0.0
H5029 H 0.37908 0.03313 0.29222 0.0
H5030 H 0.36815 0.02346 0.27088 0.0
H5031 H 0.37372 0.94006 0.21837 0.0
H5032 H 0.37442 0.96553 0.21941 0.0
H5033 H 0.36095 0.96408 0.26234 0.0
H5034 H 0.3615 0.93853 0.26158 0.0
H5035 H 0.37941 0.9817 0.2616 0.0
H5036 H 0.33923 0.97577 0.23294 0.0
H5037 H 0.32459 0.96674 0.21357 0.0
H5038 H 0.35251 0.98587 0.18401 0.0
H5039 H 0.36744 -0.00514 0.2032 0.0
C5040 C 0.3723 0.05088 0.2395 0.0
C5041 C 0.38625 0.05495 0.24251 0.0
C5042 C 0.3684 0.03675 0.23951 0.0
C5043 C 0.3784 0.02645 0.24238 0.0
C5044 C 0.39246 0.03051 0.24479 0.0
C5045 C 0.39631 0.04461 0.24505 0.0
C5046 C 0.37424 0.01145 0.2429 0.0
C5047 C 0.36663 0.00562 0.2317 0.0
C5048 C 0.37826 0.00278 0.25413 0.0
C5049 C 0.38473 0.00856 0.26707 0.0
C5050 C 0.39749 0.00326 0.27215 0.0
C5051 C 0.40358 0.00877 0.28431 0.0
C5052 C 0.39696 0.01955 0.29151 0.0
C5053 C 0.38422 0.02481 0.28661 0.0
C5054 C 0.37808 0.01933 0.27447 0.0
C5055 C 0.37077 0.94523 0.22796 0.0
C5056 C 0.36754 0.93742 0.23989 0.0
C5057 C 0.37104 0.95981 0.22854 0.0
C5058 C 0.36748 0.96686 0.24089 0.0
C5059 C 0.3638 0.95897 0.25269 0.0
C5060 C 0.36403 0.94438 0.25225 0.0
C5061 C 0.36862 0.98238 0.24177 0.0
C5062 C 0.37572 0.98835 0.25325 0.0
C5063 C 0.36347 -0.00875 0.23114 0.0
C5064 C 0.35451 0.98591 0.21953 0.0
C5065 C 0.3423 0.97798 0.22231 0.0
C5066 C 0.33394 0.97288 0.21136 0.0
C5067 C 0.33763 0.97571 0.19757 0.0
C5068 C 0.34967 0.98368 0.1947 0.0
C5069 C 0.35807 0.9888 0.20561 0.0
H5070 H 0.33114 0.97175 0.1891 0.0
H5071 H 0.40169 0.02381 0.30091 0.0
H5072 H 0.71725 0.04653 0.59093 0.0
H5073 H 0.7175 0.02111 0.59212 0.0
H5074 H 0.7514 0.02318 0.62217 0.0
H5075 H 0.75149 0.04872 0.62069 0.0
H5076 H 0.75711 0.00469 0.60298 0.0
H5077 H 0.71737 0.0133 0.63159 0.0
H5078 H 0.69466 0.02357 0.63815 0.0
H5079 H 0.67457 0.00321 0.60332 0.0
H5080 H 0.69719 -0.00704 0.59642 0.0
H5081 H 0.75139 0.93013 0.61154 0.0
H5082 H 0.75173 0.95526 0.6165 0.0
H5083 H 0.7204 0.9616 0.58454 0.0
H5084 H 0.7199 0.93664 0.57958 0.0
H5085 H 0.7141 0.97544 0.60848 0.0
H5086 H 0.75469 0.96928 0.5787 0.0
H5087 H 0.7775 0.95915 0.57226 0.0
H5088 H 0.79597 0.97497 0.61016 0.0
H5089 H 0.7732 0.98504 0.6169 0.0
C5090 C 0.72467 0.0416 0.5979 0.0
C5091 C 0.73436 0.04962 0.6057 0.0
C5092 C 0.72475 0.02704 0.59864 0.0
C5093 C 0.73435 0.02022 0.60738 0.0
C5094 C 0.74388 0.02822 0.61538 0.0
C5095 C 0.7439 0.0428 0.61455 0.0
C5096 C 0.73491 0.00473 0.6075 0.0
C5097 C 0.74775 -0.00171 0.60449 0.0
C5098 C 0.72268 -0.00364 0.60928 0.0
C5099 C 0.70901 0.00243 0.61344 0.0
C5100 C 0.70813 0.01108 0.62527 0.0
C5101 C 0.69527 0.01689 0.62906 0.0
C5102 C 0.68319 0.01406 0.62114 0.0
C5103 C 0.68394 0.00539 0.60944 0.0
C5104 C 0.69677 -0.00044 0.6056 0.0
C5105 C 0.74461 0.93688 0.60554 0.0
C5106 C 0.73563 0.93135 0.59515 0.0
C5107 C 0.74483 0.95123 0.60839 0.0
C5108 C 0.73611 0.96028 0.60086 0.0
C5109 C 0.72716 0.95479 0.59051 0.0
C5110 C 0.72695 0.9405 0.58765 0.0
C5111 C 0.73619 0.97551 0.60365 0.0
C5112 C 0.72347 0.98187 0.60721 0.0
C5113 C 0.74853 0.9838 0.60246 0.0
C5114 C 0.76221 0.97776 0.59838 0.0
C5115 C 0.76359 0.97049 0.58571 0.0
C5116 C 0.77651 0.96479 0.582 0.0
C5117 C 0.78817 0.96638 0.59081 0.0
C5118 C 0.78693 0.97372 0.60335 0.0
C5119 C 0.77402 0.97943 0.60712 0.0
H5120 H 0.79817 0.96195 0.58792 0.0
H5121 H 0.67324 0.01857 0.62409 0.0
H5122 H 0.71132 0.0444 0.38342 0.0
H5123 H 0.7102 0.0189 0.38321 0.0
H5124 H 0.75245 0.01749 0.36709 0.0
H5125 H 0.75357 0.04307 0.36704 0.0
H5126 H 0.73526 -0.00268 0.35523 0.0
H5127 H 0.74731 0.01368 0.40123 0.0
H5128 H 0.74426 0.0279 0.42245 0.0
H5129 H 0.70393 0.00858 0.42942 0.0
H5130 H 0.70665 -0.00562 0.40812 0.0
H5131 H 0.74795 0.92668 0.37625 0.0
H5132 H 0.74916 0.95187 0.37195 0.0
H5133 H 0.70855 0.95674 0.39117 0.0
H5134 H 0.70747 0.93175 0.39586 0.0
H5135 H 0.72606 0.97531 0.40109 0.0
H5136 H 0.71382 0.95897 0.35501 0.0
H5137 H 0.71668 0.94497 0.33361 0.0
H5138 H 0.75712 0.96409 0.3267 0.0
H5139 H 0.75458 0.97807 0.34816 0.0
C5140 C 0.72032 0.03868 0.37968 0.0
C5141 C 0.7326 0.04573 0.37541 0.0
C5142 C 0.71967 0.02411 0.37958 0.0
C5143 C 0.73134 0.01633 0.37537 0.0
C5144 C 0.74335 0.02332 0.37043 0.0
C5145 C 0.74399 0.03792 0.37045 0.0
C5146 C 0.73128 0.00095 0.37701 0.0
C5147 C 0.73341 -0.00753 0.36527 0.0
C5148 C 0.72869 -0.00533 0.39009 0.0
C5149 C 0.72713 0.00305 0.40302 0.0
C5150 C 0.73775 0.01252 0.40724 0.0
C5151 C 0.73609 0.02058 0.41929 0.0
C5152 C 0.7239 0.01917 0.42727 0.0
C5153 C 0.71336 0.00967 0.42323 0.0
C5154 C 0.71496 0.00161 0.41118 0.0
C5155 C 0.73924 0.93312 0.37946 0.0
C5156 C 0.72765 0.92723 0.38646 0.0
C5157 C 0.73991 0.94751 0.37694 0.0
C5158 C 0.72889 0.95619 0.38115 0.0
C5159 C 0.7172 0.95026 0.38787 0.0
C5160 C 0.7166 0.93596 0.39054 0.0
C5161 C 0.72974 0.97156 0.37925 0.0
C5162 C 0.72787 0.98009 0.39101 0.0
C5163 C 0.73254 0.97783 0.36619 0.0
C5164 C 0.73407 0.96946 0.35327 0.0
C5165 C 0.72337 0.9601 0.34898 0.0
C5166 C 0.72492 0.95219 0.33683 0.0
C5167 C 0.73709 0.95361 0.32882 0.0
C5168 C 0.74771 0.96298 0.33293 0.0
C5169 C 0.74621 0.97092 0.34508 0.0
H5170 H 0.73827 0.94747 0.31942 0.0
H5171 H 0.72263 0.02541 0.43659 0.0
H5172 H 0.93291 0.71289 0.38244 0.0
H5173 H 0.95843 0.71095 0.38066 0.0
H5174 H 0.96058 0.75122 0.36066 0.0
H5175 H 0.93497 0.75312 0.36215 0.0
H5176 H 0.97845 0.73305 0.3487 0.0
H5177 H 0.96756 0.74812 0.39518 0.0
H5178 H 0.9557 0.74689 0.41795 0.0
H5179 H 0.97418 0.70691 0.42568 0.0
H5180 H 0.986 0.70781 0.40286 0.0
H5181 H 0.05024 0.74988 0.36354 0.0
H5182 H 0.02465 0.74905 0.3611 0.0
H5183 H 0.02353 0.70892 0.38146 0.0
H5184 H 0.04912 0.70977 0.38414 0.0
H5185 H 0.00509 0.72634 0.39273 0.0
H5186 H 0.01703 0.71199 0.34639 0.0
H5187 H 0.029 0.71372 0.32371 0.0
H5188 H 0.00886 0.75286 0.3158 0.0
H5189 H -0.00309 0.75146 0.33852 0.0
C5190 C 0.9388 0.72129 0.37757 0.0
C5191 C 0.93196 0.73322 0.37256 0.0
C5192 C 0.95338 0.72018 0.37658 0.0
C5193 C 0.96141 0.73105 0.37074 0.0
C5194 C 0.95457 0.74273 0.36524 0.0
C5195 C 0.93995 0.74382 0.36614 0.0
C5196 C 0.97698 0.73049 0.37093 0.0
C5197 C 0.98431 0.73172 0.35833 0.0
C5198 C 0.98458 0.7285 0.38348 0.0
C5199 C 0.97755 0.72797 0.39725 0.0
C5200 C 0.96901 0.73902 0.40169 0.0
C5201 C 0.96231 0.73839 0.41461 0.0
C5202 C 0.96416 0.72681 0.42324 0.0
C5203 C 0.97274 0.71586 0.41898 0.0
C5204 C 0.97945 0.71643 0.40606 0.0
C5205 C 0.04456 0.7408 0.36736 0.0
C5206 C 0.05168 0.72991 0.37409 0.0
C5207 C 0.02994 0.74031 0.36589 0.0
C5208 C 0.02219 0.72887 0.37101 0.0
C5209 C 0.02932 0.71784 0.37744 0.0
C5210 C 0.04393 0.71834 0.37894 0.0
C5211 C 0.00661 0.72883 0.37047 0.0
C5212 C -0.00074 0.72755 0.38306 0.0
C5213 C -0.00097 0.73084 0.35791 0.0
C5214 C 0.00617 0.73168 0.34422 0.0
C5215 C 0.01523 0.72102 0.33986 0.0
C5216 C 0.022 0.72193 0.32699 0.0
C5217 C 0.01972 0.73341 0.31833 0.0
C5218 C 0.01063 0.74398 0.32252 0.0
C5219 C 0.00385 0.74313 0.33539 0.0
H5220 H 0.02497 0.73409 0.30837 0.0
H5221 H 0.95896 0.72634 0.43324 0.0
H5222 H 0.26606 0.04592 0.39599 0.0
H5223 H 0.26543 0.0211 0.39031 0.0
H5224 H 0.22921 0.02733 0.36391 0.0
H5225 H 0.22976 0.05236 0.36952 0.0
H5226 H 0.22633 0.00468 0.38216 0.0
H5227 H 0.25926 0.02147 0.34868 0.0
H5228 H 0.27995 0.0347 0.34032 0.0
H5229 H 0.30693 0.01024 0.36641 0.0
H5230 H 0.28638 -0.003 0.3751 0.0
H5231 H 0.22993 0.9333 0.36199 0.0
H5232 H 0.22934 0.95876 0.35986 0.0
H5233 H 0.2677 0.96219 0.38391 0.0
H5234 H 0.26853 0.93679 0.38582 0.0
H5235 H 0.26791 0.98047 0.36299 0.0
H5236 H 0.23522 0.96631 0.39889 0.0
H5237 H 0.21483 0.95331 0.40825 0.0
H5238 H 0.18772 0.97305 0.37848 0.0
H5239 H 0.20801 0.98603 0.36881 0.0
C5240 C 0.25795 0.04207 0.38896 0.0
C5241 C 0.24795 0.05114 0.38321 0.0
C5242 C 0.25766 0.02787 0.38566 0.0
C5243 C 0.24737 0.02243 0.37658 0.0
C5244 C 0.23728 0.03138 0.37089 0.0
C5245 C 0.23763 0.04566 0.37409 0.0
C5246 C 0.24703 0.00727 0.37347 0.0
C5247 C 0.23528 -0.00061 0.37767 0.0
C5248 C 0.25884 0.00041 0.36786 0.0
C5249 C 0.27125 0.0083 0.36261 0.0
C5250 C 0.26959 0.01898 0.35272 0.0
C5251 C 0.2813 0.02647 0.34791 0.0
C5252 C 0.29474 0.02333 0.35285 0.0
C5253 C 0.29651 0.01267 0.3626 0.0
C5254 C 0.28484 0.00515 0.36745 0.0
C5255 C 0.23832 0.93948 0.36669 0.0
C5256 C 0.24921 0.93305 0.37419 0.0
C5257 C 0.23794 0.95402 0.3655 0.0
C5258 C 0.24836 0.96238 0.37191 0.0
C5259 C 0.25954 0.95594 0.3789 0.0
C5260 C 0.25997 0.94142 0.38003 0.0
C5261 C 0.24734 0.97783 0.37198 0.0
C5262 C 0.25885 0.98576 0.36723 0.0
C5263 C 0.23535 0.98475 0.37718 0.0
C5264 C 0.22315 0.977 0.38302 0.0
C5265 C 0.22493 0.96779 0.39427 0.0
C5266 C 0.21339 0.96045 0.39964 0.0
C5267 C 0.19999 0.96232 0.39393 0.0
C5268 C 0.19811 0.97158 0.38287 0.0
C5269 C 0.20962 0.97894 0.37744 0.0
H5270 H 0.19107 0.95662 0.39811 0.0
H5271 H 0.30379 0.02914 0.34911 0.0
H5272 H 0.04524 0.22932 0.36132 0.0
H5273 H 0.01983 0.23251 0.35962 0.0
H5274 H 0.02358 0.27095 0.38302 0.0
H5275 H 0.04899 0.2677 0.38497 0.0
H5276 H 0.00302 0.25508 0.39302 0.0
H5277 H 0.01646 0.27118 0.34796 0.0
H5278 H 0.02823 0.27029 0.32514 0.0
H5279 H 0.00423 0.23358 0.31415 0.0
H5280 H -0.00756 0.23413 0.33698 0.0
H5281 H 0.93155 0.2724 0.38359 0.0
H5282 H 0.95713 0.27391 0.38145 0.0
H5283 H 0.95726 0.23402 0.36041 0.0
H5284 H 0.93165 0.2325 0.36235 0.0
H5285 H 0.97588 0.25268 0.34875 0.0
H5286 H 0.96394 0.23587 0.39477 0.0
H5287 H 0.95188 0.23727 0.41743 0.0
H5288 H 0.97322 0.27605 0.42644 0.0
H5289 H 0.98526 0.27499 0.40374 0.0
C5290 C 0.04067 0.23851 0.36601 0.0
C5291 C 0.0491 0.24825 0.3733 0.0
C5292 C 0.02615 0.24036 0.36497 0.0
C5293 C 0.01982 0.25204 0.37108 0.0
C5294 C 0.02825 0.26187 0.37822 0.0
C5295 C 0.04276 0.26001 0.3793 0.0
C5296 C 0.00433 0.25361 0.37065 0.0
C5297 C -0.00288 0.25482 0.38332 0.0
C5298 C -0.0034 0.253 0.358 0.0
C5299 C 0.00365 0.25263 0.34424 0.0
C5300 C 0.01377 0.26285 0.34072 0.0
C5301 C 0.02043 0.26242 0.32778 0.0
C5302 C 0.017 0.25187 0.31821 0.0
C5303 C 0.00688 0.24174 0.32157 0.0
C5304 C 0.00019 0.24212 0.33451 0.0
C5305 C 0.937 0.26402 0.37838 0.0
C5306 C 0.92961 0.25226 0.37328 0.0
C5307 C 0.95162 0.2649 0.37718 0.0
C5308 C 0.95909 0.25398 0.37096 0.0
C5309 C 0.95168 0.24253 0.36528 0.0
C5310 C 0.93706 0.24166 0.36645 0.0
C5311 C 0.97466 0.25404 0.37111 0.0
C5312 C 0.98184 0.25309 0.35842 0.0
C5313 C 0.98239 0.25493 0.38372 0.0
C5314 C 0.97538 0.25542 0.3975 0.0
C5315 C 0.966 0.24474 0.40155 0.0
C5316 C 0.95917 0.24547 0.4144 0.0
C5317 C 0.96174 0.25677 0.42334 0.0
C5318 C 0.97122 0.26732 0.41949 0.0
C5319 C 0.97805 0.26666 0.40664 0.0
H5320 H 0.95641 0.25735 0.43325 0.0
H5321 H 0.02217 0.25155 0.30819 0.0
H5322 H 0.2427 0.05743 0.61562 0.0
H5323 H 0.24177 0.03254 0.62163 0.0
H5324 H 0.24962 0.02185 0.57864 0.0
H5325 H 0.25131 0.04656 0.5728 0.0
H5326 H 0.22662 0.01128 0.6156 0.0
H5327 H 0.26856 -0.00629 0.57495 0.0
H5328 H 0.29022 0.00308 0.56423 0.0
H5329 H 0.29647 0.03073 0.59908 0.0
H5330 H 0.27497 0.0214 0.6101 0.0
H5331 H 0.21953 0.93916 0.60229 0.0
H5332 H 0.22106 0.96464 0.60277 0.0
H5333 H 0.26461 0.96231 0.61565 0.0
H5334 H 0.26331 0.93683 0.61399 0.0
H5335 H 0.26388 0.98016 0.59781 0.0
H5336 H 0.23567 0.97397 0.6378 0.0
H5337 H 0.21613 0.96504 0.65218 0.0
H5338 H 0.18635 0.98544 0.62554 0.0
H5339 H 0.2057 -0.00566 0.61089 0.0
C5340 C 0.24421 0.04972 0.60748 0.0
C5341 C 0.24727 0.05389 0.59379 0.0
C5342 C 0.24366 0.03552 0.61091 0.0
C5343 C 0.24597 0.02529 0.60066 0.0
C5344 C 0.24828 0.02951 0.58684 0.0
C5345 C 0.24916 0.04365 0.58349 0.0
C5346 C 0.2461 0.0102 0.60429 0.0
C5347 C 0.2348 0.00446 0.61179 0.0
C5348 C 0.25704 0.00136 0.59981 0.0
C5349 C 0.27008 0.00693 0.59329 0.0
C5350 C 0.2746 0.00174 0.58036 0.0
C5351 C 0.28684 0.00706 0.57422 0.0
C5352 C 0.2947 0.01752 0.58095 0.0
C5353 C 0.29035 0.02266 0.59386 0.0
C5354 C 0.27813 0.01737 0.60005 0.0
C5355 C 0.22936 0.94414 0.60538 0.0
C5356 C 0.24131 0.93612 0.6081 0.0
C5357 C 0.23022 0.95872 0.60577 0.0
C5358 C 0.2429 0.96553 0.60947 0.0
C5359 C 0.25471 0.9574 0.6127 0.0
C5360 C 0.25398 0.94284 0.61182 0.0
C5361 C 0.24418 0.98105 0.60884 0.0
C5362 C 0.25576 0.98691 0.60184 0.0
C5363 C 0.23384 0.99004 0.61439 0.0
C5364 C 0.22214 0.98475 0.62319 0.0
C5365 C 0.22495 0.97648 0.63496 0.0
C5366 C 0.21391 0.97143 0.64316 0.0
C5367 C 0.20001 0.97465 0.63976 0.0
C5368 C 0.19713 0.98295 0.62816 0.0
C5369 C 0.20813 0.98802 0.61991 0.0
H5370 H 0.19147 0.97073 0.64613 0.0
H5371 H 0.30416 0.02163 0.57618 0.0
H5372 H 0.9382 0.26889 0.59327 0.0
H5373 H 0.96382 0.26884 0.59172 0.0
H5374 H 0.96486 0.22909 0.61273 0.0
H5375 H 0.93914 0.22909 0.61444 0.0
H5376 H 0.98625 0.24741 0.6215 0.0
H5377 H 0.96722 0.22935 0.5786 0.0
H5378 H 0.95182 0.22951 0.55784 0.0
H5379 H 0.97145 0.26762 0.54403 0.0
H5380 H 0.98682 0.2678 0.56483 0.0
H5381 H 0.05659 0.23272 0.60055 0.0
H5382 H 0.03129 0.23129 0.60488 0.0
H5383 H 0.02514 0.26861 0.58059 0.0
H5384 H 0.0503 0.2699 0.5759 0.0
H5385 H 0.00615 0.24976 0.57383 0.0
H5386 H 0.02447 0.26854 0.61701 0.0
H5387 H 0.03957 0.26889 0.63798 0.0
H5388 H 0.02133 0.22997 0.65135 0.0
H5389 H 0.00623 0.22929 0.63035 0.0
C5390 C 0.94387 0.2602 0.5977 0.0
C5391 C 0.93665 0.24892 0.60385 0.0
C5392 C 0.9585 0.26018 0.59678 0.0
C5393 C 0.96619 0.24885 0.60191 0.0
C5394 C 0.95909 0.23789 0.60866 0.0
C5395 C 0.94441 0.2379 0.6096 0.0
C5396 C 0.98154 0.24822 0.59955 0.0
C5397 C -0.00936 0.24772 0.61108 0.0
C5398 C 0.9872 0.24883 0.58595 0.0
C5399 C 0.97809 0.24865 0.57334 0.0
C5400 C 0.96819 0.23782 0.57119 0.0
C5401 C 0.95947 0.23784 0.55941 0.0
C5402 C 0.96064 0.24858 0.54964 0.0
C5403 C 0.97055 0.25931 0.55162 0.0
C5404 C 0.97928 0.25935 0.56339 0.0
C5405 C 0.04985 0.24063 0.59614 0.0
C5406 C 0.05547 0.25143 0.58788 0.0
C5407 C 0.0354 0.23983 0.59869 0.0
C5408 C 0.02633 0.24994 0.5932 0.0
C5409 C 0.03193 0.26069 0.58492 0.0
C5410 C 0.04633 0.26142 0.58227 0.0
C5411 C 0.01097 0.24924 0.59579 0.0
C5412 C 0.00182 0.24941 0.58427 0.0
C5413 C 0.0053 0.24838 0.6094 0.0
C5414 C 0.01433 0.24879 0.62204 0.0
C5415 C 0.02376 0.26 0.62437 0.0
C5416 C 0.0323 0.26027 0.63627 0.0
C5417 C 0.03144 0.24944 0.64597 0.0
C5418 C 0.022 0.23834 0.64381 0.0
C5419 C 0.01344 0.23801 0.63192 0.0
H5420 H 0.03806 0.24967 0.65518 0.0
H5421 H 0.95388 0.24859 0.54053 0.0
H5422 H 0.0433 0.74969 0.61709 0.0
H5423 H 0.01756 0.74905 0.61634 0.0
H5424 H 0.01857 0.70921 0.59526 0.0
H5425 H 0.04426 0.70981 0.59586 0.0
H5426 H 0.00209 0.72764 0.5818 0.0
H5427 H 0.00811 0.71163 0.62896 0.0
H5428 H 0.01701 0.7129 0.65312 0.0
H5429 H -0.0046 0.75156 0.65932 0.0
H5430 H 0.98653 0.75062 0.63512 0.0
H5431 H 0.93082 0.70875 0.58204 0.0
H5432 H 0.95604 0.70938 0.58663 0.0
H5433 H 0.95166 0.74827 0.60895 0.0
H5434 H 0.92622 0.74754 0.6047 0.0
H5435 H 0.96982 0.7316 0.62207 0.0
H5436 H 0.96352 0.7477 0.5753 0.0
H5437 H 0.95475 0.74689 0.55107 0.0
H5438 H 0.97718 0.70887 0.54396 0.0
H5439 H 0.98592 0.70933 0.56821 0.0
C5440 C 0.03803 0.74071 0.61247 0.0
C5441 C 0.0458 0.72984 0.60647 0.0
C5442 C 0.02332 0.74034 0.61208 0.0
C5443 C 0.01616 0.72907 0.60576 0.0
C5444 C 0.0239 0.71802 0.60015 0.0
C5445 C 0.03858 0.71837 0.60054 0.0
C5446 C 0.00065 0.72917 0.60414 0.0
C5447 C -0.00497 0.72831 0.59062 0.0
C5448 C -0.00852 0.73056 0.61562 0.0
C5449 C -0.00322 0.73112 0.63018 0.0
C5450 C 0.00536 0.72046 0.63544 0.0
C5451 C 0.01037 0.72111 0.64915 0.0
C5452 C 0.0068 0.73233 0.65774 0.0
C5453 C -0.00183 0.7429 0.65265 0.0
C5454 C -0.00686 0.7423 0.63894 0.0
C5455 C 0.93518 0.71744 0.58796 0.0
C5456 C 0.92651 0.72817 0.59289 0.0
C5457 C 0.94962 0.7178 0.59055 0.0
C5458 C 0.95578 0.72902 0.59789 0.0
C5459 C 0.94713 0.73955 0.6032 0.0
C5460 C 0.93261 0.73913 0.60073 0.0
C5461 C 0.97127 0.72981 0.59973 0.0
C5462 C 0.97689 0.73094 0.61325 0.0
C5463 C 0.98049 0.72876 0.58824 0.0
C5464 C 0.97528 0.72849 0.57362 0.0
C5465 C 0.9665 0.73911 0.5686 0.0
C5466 C 0.96155 0.73872 0.55486 0.0
C5467 C 0.96539 0.72782 0.54599 0.0
C5468 C 0.97421 0.7173 0.55084 0.0
C5469 C 0.97917 0.71763 0.56458 0.0
H5470 H 0.96157 0.72754 0.53535 0.0
H5471 H 0.01069 0.73281 0.66835 0.0
loop_
_geom_bond_atom_site_label_1
_geom_bond_atom_site_label_2
_geom_bond_distance
_geom_bond_site_symmetry_2
_ccdc_geom_bond_type
C0 O1 1.306 . S
C0 O3 1.160 . S
O1 C0 1.306 . S
O1 Cd2 2.228 . S
Cd2 O1 2.228 . S
Cd2 O6 2.273 . S
Cd2 O10 2.277 . S
O3 C0 1.160 . S
O3 Cd4 2.203 . S
Cd4 O3 2.203 . S
Cd4 O6 2.411 . S
Cd4 O7 2.333 . S
Cd4 O8 2.352 . S
Cd4 O12 2.277 . S
Cd4 O13 2.356 . S
C5 O10 1.209 . S
C5 O12 1.226 . S
O6 Cd2 2.273 . S
O6 Cd4 2.411 . S
O6 C9 1.320 . S
O7 Cd4 2.333 . S
O7 C9 1.214 . S
O8 Cd4 2.352 . S
O8 C11 1.258 . S
C9 O6 1.320 . S
C9 O7 1.214 . S
O10 Cd2 2.277 . S
O10 C5 1.209 . S
C11 O8 1.258 . S
C11 O13 1.282 . S
O12 Cd4 2.277 . S
O12 C5 1.226 . S
O13 Cd4 2.356 . S
O13 C11 1.282 . S
C14 O15 1.306 . S
C14 O17 1.160 . S
O15 C14 1.306 . S
O15 Cd16 2.228 . S
Cd16 O15 2.228 . S
Cd16 O20 2.273 . S
Cd16 O24 2.277 . S
O17 C14 1.160 . S
O17 Cd18 2.203 . S
Cd18 O17 2.203 . S
Cd18 O20 2.411 . S
Cd18 O21 2.333 . S
Cd18 O22 2.352 . S
Cd18 O26 2.277 . S
Cd18 O27 2.356 . S
C19 O24 1.209 . S
C19 O26 1.226 . S
O20 Cd16 2.273 . S
O20 Cd18 2.411 . S
O20 C23 1.320 . S
O21 Cd18 2.333 . S
O21 C23 1.214 . S
O22 Cd18 2.352 . S
O22 C25 1.258 . S
C23 O20 1.320 . S
C23 O21 1.214 . S
O24 Cd16 2.277 . S
O24 C19 1.209 . S
C25 O22 1.258 . S
C25 O27 1.282 . S
O26 Cd18 2.277 . S
O26 C19 1.226 . S
O27 Cd18 2.356 . S
O27 C25 1.282 . S
C28 O29 1.306 . S
C28 O31 1.160 . S
O29 C28 1.306 . S
O29 Cd30 2.228 . S
Cd30 O29 2.228 . S
Cd30 O34 2.273 . S
Cd30 O38 2.277 . S
O31 C28 1.160 . S
O31 Cd32 2.203 . S
Cd32 O31 2.203 . S
Cd32 O34 2.411 . S
Cd32 O35 2.333 . S
Cd32 O36 2.352 . S
Cd32 O40 2.277 . S
Cd32 O41 2.356 . S
C33 O38 1.209 . S
C33 O40 1.226 . S
O34 Cd30 2.273 . S
O34 Cd32 2.411 . S
O34 C37 1.320 . S
O35 Cd32 2.333 . S
O35 C37 1.214 . S
O36 Cd32 2.352 . S
O36 C39 1.258 . S
C37 O34 1.320 . S
C37 O35 1.214 . S
O38 Cd30 2.277 . S
O38 C33 1.209 . S
C39 O36 1.258 . S
C39 O41 1.282 . S
O40 Cd32 2.277 . S
O40 C33 1.226 . S
O41 Cd32 2.356 . S
O41 C39 1.282 . S
C42 O43 1.306 . S
C42 O45 1.160 . S
O43 C42 1.306 . S
O43 Cd44 2.228 . S
Cd44 O43 2.228 . S
Cd44 O48 2.273 . S
Cd44 O52 2.277 . S
O45 C42 1.160 . S
O45 Cd46 2.203 . S
Cd46 O45 2.203 . S
Cd46 O48 2.411 . S
Cd46 O49 2.333 . S
Cd46 O50 2.352 . S
Cd46 O54 2.277 . S
Cd46 O55 2.356 . S
C47 O52 1.209 . S
C47 O54 1.226 . S
O48 Cd44 2.273 . S
O48 Cd46 2.411 . S
O48 C51 1.320 . S
O49 Cd46 2.333 . S
O49 C51 1.214 . S
O50 Cd46 2.352 . S
O50 C53 1.258 . S
C51 O48 1.320 . S
C51 O49 1.214 . S
O52 Cd44 2.277 . S
O52 C47 1.209 . S
C53 O50 1.258 . S
C53 O55 1.282 . S
O54 Cd46 2.277 . S
O54 C47 1.226 . S
O55 Cd46 2.356 . S
O55 C53 1.282 . S
C56 O57 1.306 . S
C56 O59 1.160 . S
O57 C56 1.306 . S
O57 Cd58 2.228 . S
Cd58 O57 2.228 . S
Cd58 O62 2.273 . S
Cd58 O66 2.277 . S
O59 C56 1.160 . S
O59 Cd60 2.203 . S
Cd60 O59 2.203 . S
Cd60 O62 2.411 . S
Cd60 O63 2.333 . S
Cd60 O64 2.352 . S
Cd60 O68 2.277 . S
Cd60 O69 2.356 . S
C61 O66 1.209 . S
C61 O68 1.226 . S
O62 Cd58 2.273 . S
O62 Cd60 2.411 . S
O62 C65 1.320 . S
O63 Cd60 2.333 . S
O63 C65 1.214 . S
O64 Cd60 2.352 . S
O64 C67 1.258 . S
C65 O62 1.320 . S
C65 O63 1.214 . S
O66 Cd58 2.277 . S
O66 C61 1.209 . S
C67 O64 1.258 . S
C67 O69 1.282 . S
O68 Cd60 2.277 . S
O68 C61 1.226 . S
O69 Cd60 2.356 . S
O69 C67 1.282 . S
C70 O71 1.306 . S
C70 O73 1.160 . S
O71 C70 1.306 . S
O71 Cd72 2.228 . S
Cd72 O71 2.228 . S
Cd72 O76 2.273 . S
Cd72 O80 2.277 . S
O73 C70 1.160 . S
O73 Cd74 2.203 . S
Cd74 O73 2.203 . S
Cd74 O76 2.411 . S
Cd74 O77 2.333 . S
Cd74 O78 2.352 . S
Cd74 O82 2.277 . S
Cd74 O83 2.356 . S
C75 O80 1.209 . S
C75 O82 1.226 . S
O76 Cd72 2.273 . S
O76 Cd74 2.411 . S
O76 C79 1.320 . S
O77 Cd74 2.333 . S
O77 C79 1.214 . S
O78 Cd74 2.352 . S
O78 C81 1.258 . S
C79 O76 1.320 . S
C79 O77 1.214 . S
O80 Cd72 2.277 . S
O80 C75 1.209 . S
C81 O78 1.258 . S
C81 O83 1.282 . S
O82 Cd74 2.277 . S
O82 C75 1.226 . S
O83 Cd74 2.356 . S
O83 C81 1.282 . S
C84 O85 1.306 . S
C84 O87 1.160 . S
O85 C84 1.306 . S
O85 Cd86 2.228 . S
Cd86 O85 2.228 . S
Cd86 O90 2.273 . S
Cd86 O94 2.277 . S
O87 C84 1.160 . S
O87 Cd88 2.203 . S
Cd88 O87 2.203 . S
Cd88 O90 2.411 . S
Cd88 O91 2.333 . S
Cd88 O92 2.352 . S
Cd88 O96 2.277 . S
Cd88 O97 2.356 . S
C89 O94 1.209 . S
C89 O96 1.226 . S
O90 Cd86 2.273 . S
O90 Cd88 2.411 . S
O90 C93 1.320 . S
O91 Cd88 2.333 . S
O91 C93 1.214 . S
O92 Cd88 2.352 . S
O92 C95 1.258 . S
C93 O90 1.320 . S
C93 O91 1.214 . S
O94 Cd86 2.277 . S
O94 C89 1.209 . S
C95 O92 1.258 . S
C95 O97 1.282 . S
O96 Cd88 2.277 . S
O96 C89 1.226 . S
O97 Cd88 2.356 . S
O97 C95 1.282 . S
C98 O99 1.306 . S
C98 O101 1.160 . S
O99 C98 1.306 . S
O99 Cd100 2.228 . S
Cd100 O99 2.228 . S
Cd100 O104 2.273 . S
Cd100 O108 2.277 . S
O101 C98 1.160 . S
O101 Cd102 2.203 . S
Cd102 O101 2.203 . S
Cd102 O104 2.411 . S
Cd102 O105 2.333 . S
Cd102 O106 2.352 . S
Cd102 O110 2.277 . S
Cd102 O111 2.356 . S
C103 O108 1.209 . S
C103 O110 1.226 . S
O104 Cd100 2.273 . S
O104 Cd102 2.411 . S
O104 C107 1.320 . S
O105 Cd102 2.333 . S
O105 C107 1.214 . S
O106 Cd102 2.352 . S
O106 C109 1.258 . S
C107 O104 1.320 . S
C107 O105 1.214 . S
O108 Cd100 2.277 . S
O108 C103 1.209 . S
C109 O106 1.258 . S
C109 O111 1.282 . S
O110 Cd102 2.277 . S
O110 C103 1.226 . S
O111 Cd102 2.356 . S
O111 C109 1.282 . S
C112 O113 1.306 . S
C112 O115 1.160 . S
O113 C112 1.306 . S
O113 Cd114 2.228 . S
Cd114 O113 2.228 . S
Cd114 O118 2.273 . S
Cd114 O122 2.277 . S
O115 C112 1.160 . S
O115 Cd116 2.203 . S
Cd116 O115 2.203 . S
Cd116 O118 2.411 . S
Cd116 O119 2.333 . S
Cd116 O120 2.352 . S
Cd116 O124 2.277 . S
Cd116 O125 2.356 . S
C117 O122 1.209 . S
C117 O124 1.226 . S
O118 Cd114 2.273 . S
O118 Cd116 2.411 . S
O118 C121 1.320 . S
O119 Cd116 2.333 . S
O119 C121 1.214 . S
O120 Cd116 2.352 . S
O120 C123 1.258 . S
C121 O118 1.320 . S
C121 O119 1.214 . S
O122 Cd114 2.277 . S
O122 C117 1.209 . S
C123 O120 1.258 . S
C123 O125 1.282 . S
O124 Cd116 2.277 . S
O124 C117 1.226 . S
O125 Cd116 2.356 . S
O125 C123 1.282 . S
C126 O127 1.306 . S
C126 O129 1.160 . S
O127 C126 1.306 . S
O127 Cd128 2.228 . S
Cd128 O127 2.228 . S
Cd128 O132 2.273 . S
Cd128 O136 2.277 . S
O129 C126 1.160 . S
O129 Cd130 2.203 . S
Cd130 O129 2.203 . S
Cd130 O132 2.411 . S
Cd130 O133 2.333 . S
Cd130 O134 2.352 . S
Cd130 O138 2.277 . S
Cd130 O139 2.356 . S
C131 O136 1.209 . S
C131 O138 1.226 . S
O132 Cd128 2.273 . S
O132 Cd130 2.411 . S
O132 C135 1.320 . S
O133 Cd130 2.333 . S
O133 C135 1.214 . S
O134 Cd130 2.352 . S
O134 C137 1.258 . S
C135 O132 1.320 . S
C135 O133 1.214 . S
O136 Cd128 2.277 . S
O136 C131 1.209 . S
C137 O134 1.258 . S
C137 O139 1.282 . S
O138 Cd130 2.277 . S
O138 C131 1.226 . S
O139 Cd130 2.356 . S
O139 C137 1.282 . S
C140 O141 1.306 . S
C140 O143 1.160 . S
O141 C140 1.306 . S
O141 Cd142 2.228 . S
Cd142 O141 2.228 . S
Cd142 O146 2.273 . S
Cd142 O150 2.277 . S
O143 C140 1.160 . S
O143 Cd144 2.203 . S
Cd144 O143 2.203 . S
Cd144 O146 2.411 . S
Cd144 O147 2.333 . S
Cd144 O148 2.352 . S
Cd144 O152 2.277 . S
Cd144 O153 2.356 . S
C145 O150 1.209 . S
C145 O152 1.226 . S
O146 Cd142 2.273 . S
O146 Cd144 2.411 . S
O146 C149 1.320 . S
O147 Cd144 2.333 . S
O147 C149 1.214 . S
O148 Cd144 2.352 . S
O148 C151 1.258 . S
C149 O146 1.320 . S
C149 O147 1.214 . S
O150 Cd142 2.277 . S
O150 C145 1.209 . S
C151 O148 1.258 . S
C151 O153 1.282 . S
O152 Cd144 2.277 . S
O152 C145 1.226 . S
O153 Cd144 2.356 . S
O153 C151 1.282 . S
C154 O155 1.306 . S
C154 O157 1.160 . S
O155 C154 1.306 . S
O155 Cd156 2.228 . S
Cd156 O155 2.228 . S
Cd156 O160 2.273 . S
Cd156 O164 2.277 . S
O157 C154 1.160 . S
O157 Cd158 2.203 . S
Cd158 O157 2.203 . S
Cd158 O160 2.411 . S
Cd158 O161 2.333 . S
Cd158 O162 2.352 . S
Cd158 O166 2.277 . S
Cd158 O167 2.356 . S
C159 O164 1.209 . S
C159 O166 1.226 . S
O160 Cd156 2.273 . S
O160 Cd158 2.411 . S
O160 C163 1.320 . S
O161 Cd158 2.333 . S
O161 C163 1.214 . S
O162 Cd158 2.352 . S
O162 C165 1.258 . S
C163 O160 1.320 . S
C163 O161 1.214 . S
O164 Cd156 2.277 . S
O164 C159 1.209 . S
C165 O162 1.258 . S
C165 O167 1.282 . S
O166 Cd158 2.277 . S
O166 C159 1.226 . S
O167 Cd158 2.356 . S
O167 C165 1.282 . S
C168 O169 1.306 . S
C168 O171 1.160 . S
O169 C168 1.306 . S
O169 Cd170 2.228 . S
Cd170 O169 2.228 . S
Cd170 O174 2.273 . S
Cd170 O178 2.277 . S
O171 C168 1.160 . S
O171 Cd172 2.203 . S
Cd172 O171 2.203 . S
Cd172 O174 2.411 . S
Cd172 O175 2.333 . S
Cd172 O176 2.352 . S
Cd172 O180 2.277 . S
Cd172 O181 2.356 . S
C173 O178 1.209 . S
C173 O180 1.226 . S
O174 Cd170 2.273 . S
O174 Cd172 2.411 . S
O174 C177 1.320 . S
O175 Cd172 2.333 . S
O175 C177 1.214 . S
O176 Cd172 2.352 . S
O176 C179 1.258 . S
C177 O174 1.320 . S
C177 O175 1.214 . S
O178 Cd170 2.277 . S
O178 C173 1.209 . S
C179 O176 1.258 . S
C179 O181 1.282 . S
O180 Cd172 2.277 . S
O180 C173 1.226 . S
O181 Cd172 2.356 . S
O181 C179 1.282 . S
C182 O183 1.306 . S
C182 O185 1.160 . S
O183 C182 1.306 . S
O183 Cd184 2.228 . S
Cd184 O183 2.228 . S
Cd184 O188 2.273 . S
Cd184 O192 2.277 . S
O185 C182 1.160 . S
O185 Cd186 2.203 . S
Cd186 O185 2.203 . S
Cd186 O188 2.411 . S
Cd186 O189 2.333 . S
Cd186 O190 2.352 . S
Cd186 O194 2.277 . S
Cd186 O195 2.356 . S
C187 O192 1.209 . S
C187 O194 1.226 . S
O188 Cd184 2.273 . S
O188 Cd186 2.411 . S
O188 C191 1.320 . S
O189 Cd186 2.333 . S
O189 C191 1.214 . S
O190 Cd186 2.352 . S
O190 C193 1.258 . S
C191 O188 1.320 . S
C191 O189 1.214 . S
O192 Cd184 2.277 . S
O192 C187 1.209 . S
C193 O190 1.258 . S
C193 O195 1.282 . S
O194 Cd186 2.277 . S
O194 C187 1.226 . S
O195 Cd186 2.356 . S
O195 C193 1.282 . S
C196 O197 1.306 . S
C196 O199 1.160 . S
O197 C196 1.306 . S
O197 Cd198 2.228 . S
Cd198 O197 2.228 . S
Cd198 O202 2.273 . S
Cd198 O206 2.277 . S
O199 C196 1.160 . S
O199 Cd200 2.203 . S
Cd200 O199 2.203 . S
Cd200 O202 2.411 . S
Cd200 O203 2.333 . S
Cd200 O204 2.352 . S
Cd200 O208 2.277 . S
Cd200 O209 2.356 . S
C201 O206 1.209 . S
C201 O208 1.226 . S
O202 Cd198 2.273 . S
O202 Cd200 2.411 . S
O202 C205 1.320 . S
O203 Cd200 2.333 . S
O203 C205 1.214 . S
O204 Cd200 2.352 . S
O204 C207 1.258 . S
C205 O202 1.320 . S
C205 O203 1.214 . S
O206 Cd198 2.277 . S
O206 C201 1.209 . S
C207 O204 1.258 . S
C207 O209 1.282 . S
O208 Cd200 2.277 . S
O208 C201 1.226 . S
O209 Cd200 2.356 . S
O209 C207 1.282 . S
C210 O211 1.306 . S
C210 O213 1.160 . S
O211 C210 1.306 . S
O211 Cd212 2.228 . S
Cd212 O211 2.228 . S
Cd212 O216 2.273 . S
Cd212 O220 2.277 . S
O213 C210 1.160 . S
O213 Cd214 2.203 . S
Cd214 O213 2.203 . S
Cd214 O216 2.411 . S
Cd214 O217 2.333 . S
Cd214 O218 2.352 . S
Cd214 O222 2.277 . S
Cd214 O223 2.356 . S
C215 O220 1.209 . S
C215 O222 1.226 . S
O216 Cd212 2.273 . S
O216 Cd214 2.411 . S
O216 C219 1.320 . S
O217 Cd214 2.333 . S
O217 C219 1.214 . S
O218 Cd214 2.352 . S
O218 C221 1.258 . S
C219 O216 1.320 . S
C219 O217 1.214 . S
O220 Cd212 2.277 . S
O220 C215 1.209 . S
C221 O218 1.258 . S
C221 O223 1.282 . S
O222 Cd214 2.277 . S
O222 C215 1.226 . S
O223 Cd214 2.356 . S
O223 C221 1.282 . S
C224 O225 1.306 . S
C224 O227 1.160 . S
O225 C224 1.306 . S
O225 Cd226 2.228 . S
Cd226 O225 2.228 . S
Cd226 O230 2.273 . S
Cd226 O234 2.277 . S
O227 C224 1.160 . S
O227 Cd228 2.203 . S
Cd228 O227 2.203 . S
Cd228 O230 2.411 . S
Cd228 O231 2.333 . S
Cd228 O232 2.352 . S
Cd228 O236 2.277 . S
Cd228 O237 2.356 . S
C229 O234 1.209 . S
C229 O236 1.226 . S
O230 Cd226 2.273 . S
O230 Cd228 2.411 . S
O230 C233 1.320 . S
O231 Cd228 2.333 . S
O231 C233 1.214 . S
O232 Cd228 2.352 . S
O232 C235 1.258 . S
C233 O230 1.320 . S
C233 O231 1.214 . S
O234 Cd226 2.277 . S
O234 C229 1.209 . S
C235 O232 1.258 . S
C235 O237 1.282 . S
O236 Cd228 2.277 . S
O236 C229 1.226 . S
O237 Cd228 2.356 . S
O237 C235 1.282 . S
C238 O239 1.306 . S
C238 O241 1.160 . S
O239 C238 1.306 . S
O239 Cd240 2.228 . S
Cd240 O239 2.228 . S
Cd240 O244 2.273 . S
Cd240 O248 2.277 . S
O241 C238 1.160 . S
O241 Cd242 2.203 . S
Cd242 O241 2.203 . S
Cd242 O244 2.411 . S
Cd242 O245 2.333 . S
Cd242 O246 2.352 . S
Cd242 O250 2.277 . S
Cd242 O251 2.356 . S
C243 O248 1.209 . S
C243 O250 1.226 . S
O244 Cd240 2.273 . S
O244 Cd242 2.411 . S
O244 C247 1.320 . S
O245 Cd242 2.333 . S
O245 C247 1.214 . S
O246 Cd242 2.352 . S
O246 C249 1.258 . S
C247 O244 1.320 . S
C247 O245 1.214 . S
O248 Cd240 2.277 . S
O248 C243 1.209 . S
C249 O246 1.258 . S
C249 O251 1.282 . S
O250 Cd242 2.277 . S
O250 C243 1.226 . S
O251 Cd242 2.356 . S
O251 C249 1.282 . S
C252 O253 1.306 . S
C252 O255 1.160 . S
O253 C252 1.306 . S
O253 Cd254 2.228 . S
Cd254 O253 2.228 . S
Cd254 O258 2.273 . S
Cd254 O262 2.277 . S
O255 C252 1.160 . S
O255 Cd256 2.203 . S
Cd256 O255 2.203 . S
Cd256 O258 2.411 . S
Cd256 O259 2.333 . S
Cd256 O260 2.352 . S
Cd256 O264 2.277 . S
Cd256 O265 2.356 . S
C257 O262 1.209 . S
C257 O264 1.226 . S
O258 Cd254 2.273 . S
O258 Cd256 2.411 . S
O258 C261 1.320 . S
O259 Cd256 2.333 . S
O259 C261 1.214 . S
O260 Cd256 2.352 . S
O260 C263 1.258 . S
C261 O258 1.320 . S
C261 O259 1.214 . S
O262 Cd254 2.277 . S
O262 C257 1.209 . S
C263 O260 1.258 . S
C263 O265 1.282 . S
O264 Cd256 2.277 . S
O264 C257 1.226 . S
O265 Cd256 2.356 . S
O265 C263 1.282 . S
C266 O267 1.306 . S
C266 O269 1.160 . S
O267 C266 1.306 . S
O267 Cd268 2.228 . S
Cd268 O267 2.228 . S
Cd268 O272 2.273 . S
Cd268 O276 2.277 . S
O269 C266 1.160 . S
O269 Cd270 2.203 . S
Cd270 O269 2.203 . S
Cd270 O272 2.411 . S
Cd270 O273 2.333 . S
Cd270 O274 2.352 . S
Cd270 O278 2.277 . S
Cd270 O279 2.356 . S
C271 O276 1.209 . S
C271 O278 1.226 . S
O272 Cd268 2.273 . S
O272 Cd270 2.411 . S
O272 C275 1.320 . S
O273 Cd270 2.333 . S
O273 C275 1.214 . S
O274 Cd270 2.352 . S
O274 C277 1.258 . S
C275 O272 1.320 . S
C275 O273 1.214 . S
O276 Cd268 2.277 . S
O276 C271 1.209 . S
C277 O274 1.258 . S
C277 O279 1.282 . S
O278 Cd270 2.277 . S
O278 C271 1.226 . S
O279 Cd270 2.356 . S
O279 C277 1.282 . S
C280 O281 1.306 . S
C280 O283 1.160 . S
O281 C280 1.306 . S
O281 Cd282 2.228 . S
Cd282 O281 2.228 . S
Cd282 O286 2.273 . S
Cd282 O290 2.277 . S
O283 C280 1.160 . S
O283 Cd284 2.203 . S
Cd284 O283 2.203 . S
Cd284 O286 2.411 . S
Cd284 O287 2.333 . S
Cd284 O288 2.352 . S
Cd284 O292 2.277 . S
Cd284 O293 2.356 . S
C285 O290 1.209 . S
C285 O292 1.226 . S
O286 Cd282 2.273 . S
O286 Cd284 2.411 . S
O286 C289 1.320 . S
O287 Cd284 2.333 . S
O287 C289 1.214 . S
O288 Cd284 2.352 . S
O288 C291 1.258 . S
C289 O286 1.320 . S
C289 O287 1.214 . S
O290 Cd282 2.277 . S
O290 C285 1.209 . S
C291 O288 1.258 . S
C291 O293 1.282 . S
O292 Cd284 2.277 . S
O292 C285 1.226 . S
O293 Cd284 2.356 . S
O293 C291 1.282 . S
C294 O295 1.306 . S
C294 O297 1.160 . S
O295 C294 1.306 . S
O295 Cd296 2.228 . S
Cd296 O295 2.228 . S
Cd296 O300 2.273 . S
Cd296 O304 2.277 . S
O297 C294 1.160 . S
O297 Cd298 2.203 . S
Cd298 O297 2.203 . S
Cd298 O300 2.411 . S
Cd298 O301 2.333 . S
Cd298 O302 2.352 . S
Cd298 O306 2.277 . S
Cd298 O307 2.356 . S
C299 O304 1.209 . S
C299 O306 1.226 . S
O300 Cd296 2.273 . S
O300 Cd298 2.411 . S
O300 C303 1.320 . S
O301 Cd298 2.333 . S
O301 C303 1.214 . S
O302 Cd298 2.352 . S
O302 C305 1.258 . S
C303 O300 1.320 . S
C303 O301 1.214 . S
O304 Cd296 2.277 . S
O304 C299 1.209 . S
C305 O302 1.258 . S
C305 O307 1.282 . S
O306 Cd298 2.277 . S
O306 C299 1.226 . S
O307 Cd298 2.356 . S
O307 C305 1.282 . S
C308 O309 1.306 . S
C308 O311 1.160 . S
O309 C308 1.306 . S
O309 Cd310 2.228 . S
Cd310 O309 2.228 . S
Cd310 O314 2.273 . S
Cd310 O318 2.277 . S
O311 C308 1.160 . S
O311 Cd312 2.203 . S
Cd312 O311 2.203 . S
Cd312 O314 2.411 . S
Cd312 O315 2.333 . S
Cd312 O316 2.352 . S
Cd312 O320 2.277 . S
Cd312 O321 2.356 . S
C313 O318 1.209 . S
C313 O320 1.226 . S
O314 Cd310 2.273 . S
O314 Cd312 2.411 . S
O314 C317 1.320 . S
O315 Cd312 2.333 . S
O315 C317 1.214 . S
O316 Cd312 2.352 . S
O316 C319 1.258 . S
C317 O314 1.320 . S
C317 O315 1.214 . S
O318 Cd310 2.277 . S
O318 C313 1.209 . S
C319 O316 1.258 . S
C319 O321 1.282 . S
O320 Cd312 2.277 . S
O320 C313 1.226 . S
O321 Cd312 2.356 . S
O321 C319 1.282 . S
C322 O323 1.306 . S
C322 O325 1.160 . S
O323 C322 1.306 . S
O323 Cd324 2.228 . S
Cd324 O323 2.228 . S
Cd324 O328 2.273 . S
Cd324 O332 2.277 . S
O325 C322 1.160 . S
O325 Cd326 2.203 . S
Cd326 O325 2.203 . S
Cd326 O328 2.411 . S
Cd326 O329 2.333 . S
Cd326 O330 2.352 . S
Cd326 O334 2.277 . S
Cd326 O335 2.356 . S
C327 O332 1.209 . S
C327 O334 1.226 . S
O328 Cd324 2.273 . S
O328 Cd326 2.411 . S
O328 C331 1.320 . S
O329 Cd326 2.333 . S
O329 C331 1.214 . S
O330 Cd326 2.352 . S
O330 C333 1.258 . S
C331 O328 1.320 . S
C331 O329 1.214 . S
O332 Cd324 2.277 . S
O332 C327 1.209 . S
C333 O330 1.258 . S
C333 O335 1.282 . S
O334 Cd326 2.277 . S
O334 C327 1.226 . S
O335 Cd326 2.356 . S
O335 C333 1.282 . S
C336 O337 1.306 . S
C336 O339 1.160 . S
O337 C336 1.306 . S
O337 Cd338 2.228 . S
Cd338 O337 2.228 . S
Cd338 O342 2.273 . S
Cd338 O346 2.277 . S
O339 C336 1.160 . S
O339 Cd340 2.203 . S
Cd340 O339 2.203 . S
Cd340 O342 2.411 . S
Cd340 O343 2.333 . S
Cd340 O344 2.352 . S
Cd340 O348 2.277 . S
Cd340 O349 2.356 . S
C341 O346 1.209 . S
C341 O348 1.226 . S
O342 Cd338 2.273 . S
O342 Cd340 2.411 . S
O342 C345 1.320 . S
O343 Cd340 2.333 . S
O343 C345 1.214 . S
O344 Cd340 2.352 . S
O344 C347 1.258 . S
C345 O342 1.320 . S
C345 O343 1.214 . S
O346 Cd338 2.277 . S
O346 C341 1.209 . S
C347 O344 1.258 . S
C347 O349 1.282 . S
O348 Cd340 2.277 . S
O348 C341 1.226 . S
O349 Cd340 2.356 . S
O349 C347 1.282 . S
C350 O351 1.306 . S
C350 O353 1.160 . S
O351 C350 1.306 . S
O351 Cd352 2.228 . S
Cd352 O351 2.228 . S
Cd352 O356 2.273 . S
Cd352 O360 2.277 . S
O353 C350 1.160 . S
O353 Cd354 2.203 . S
Cd354 O353 2.203 . S
Cd354 O356 2.411 . S
Cd354 O357 2.333 . S
Cd354 O358 2.352 . S
Cd354 O362 2.277 . S
Cd354 O363 2.356 . S
C355 O360 1.209 . S
C355 O362 1.226 . S
O356 Cd352 2.273 . S
O356 Cd354 2.411 . S
O356 C359 1.320 . S
O357 Cd354 2.333 . S
O357 C359 1.214 . S
O358 Cd354 2.352 . S
O358 C361 1.258 . S
C359 O356 1.320 . S
C359 O357 1.214 . S
O360 Cd352 2.277 . S
O360 C355 1.209 . S
C361 O358 1.258 . S
C361 O363 1.282 . S
O362 Cd354 2.277 . S
O362 C355 1.226 . S
O363 Cd354 2.356 . S
O363 C361 1.282 . S
C364 O365 1.306 . S
C364 O367 1.160 . S
O365 C364 1.306 . S
O365 Cd366 2.228 . S
Cd366 O365 2.228 . S
Cd366 O370 2.273 . S
Cd366 O374 2.277 . S
O367 C364 1.160 . S
O367 Cd368 2.203 . S
Cd368 O367 2.203 . S
Cd368 O370 2.411 . S
Cd368 O371 2.333 . S
Cd368 O372 2.352 . S
Cd368 O376 2.277 . S
Cd368 O377 2.356 . S
C369 O374 1.209 . S
C369 O376 1.226 . S
O370 Cd366 2.273 . S
O370 Cd368 2.411 . S
O370 C373 1.320 . S
O371 Cd368 2.333 . S
O371 C373 1.214 . S
O372 Cd368 2.352 . S
O372 C375 1.258 . S
C373 O370 1.320 . S
C373 O371 1.214 . S
O374 Cd366 2.277 . S
O374 C369 1.209 . S
C375 O372 1.258 . S
C375 O377 1.282 . S
O376 Cd368 2.277 . S
O376 C369 1.226 . S
O377 Cd368 2.356 . S
O377 C375 1.282 . S
C378 O379 1.306 . S
C378 O381 1.160 . S
O379 C378 1.306 . S
O379 Cd380 2.228 . S
Cd380 O379 2.228 . S
Cd380 O384 2.273 . S
Cd380 O388 2.277 . S
O381 C378 1.160 . S
O381 Cd382 2.203 . S
Cd382 O381 2.203 . S
Cd382 O384 2.411 . S
Cd382 O385 2.333 . S
Cd382 O386 2.352 . S
Cd382 O390 2.277 . S
Cd382 O391 2.356 . S
C383 O388 1.209 . S
C383 O390 1.226 . S
O384 Cd380 2.273 . S
O384 Cd382 2.411 . S
O384 C387 1.320 . S
O385 Cd382 2.333 . S
O385 C387 1.214 . S
O386 Cd382 2.352 . S
O386 C389 1.258 . S
C387 O384 1.320 . S
C387 O385 1.214 . S
O388 Cd380 2.277 . S
O388 C383 1.209 . S
C389 O386 1.258 . S
C389 O391 1.282 . S
O390 Cd382 2.277 . S
O390 C383 1.226 . S
O391 Cd382 2.356 . S
O391 C389 1.282 . S
C392 O393 1.306 . S
C392 O395 1.160 . S
O393 C392 1.306 . S
O393 Cd394 2.228 . S
Cd394 O393 2.228 . S
Cd394 O398 2.273 . S
Cd394 O402 2.277 . S
O395 C392 1.160 . S
O395 Cd396 2.203 . S
Cd396 O395 2.203 . S
Cd396 O398 2.411 . S
Cd396 O399 2.333 . S
Cd396 O400 2.352 . S
Cd396 O404 2.277 . S
Cd396 O405 2.356 . S
C397 O402 1.209 . S
C397 O404 1.226 . S
O398 Cd394 2.273 . S
O398 Cd396 2.411 . S
O398 C401 1.320 . S
O399 Cd396 2.333 . S
O399 C401 1.214 . S
O400 Cd396 2.352 . S
O400 C403 1.258 . S
C401 O398 1.320 . S
C401 O399 1.214 . S
O402 Cd394 2.277 . S
O402 C397 1.209 . S
C403 O400 1.258 . S
C403 O405 1.282 . S
O404 Cd396 2.277 . S
O404 C397 1.226 . S
O405 Cd396 2.356 . S
O405 C403 1.282 . S
C406 O407 1.306 . S
C406 O409 1.160 . S
O407 C406 1.306 . S
O407 Cd408 2.228 . S
Cd408 O407 2.228 . S
Cd408 O412 2.273 . S
Cd408 O416 2.277 . S
O409 C406 1.160 . S
O409 Cd410 2.203 . S
Cd410 O409 2.203 . S
Cd410 O412 2.411 . S
Cd410 O413 2.333 . S
Cd410 O414 2.352 . S
Cd410 O418 2.277 . S
Cd410 O419 2.356 . S
C411 O416 1.209 . S
C411 O418 1.226 . S
O412 Cd408 2.273 . S
O412 Cd410 2.411 . S
O412 C415 1.320 . S
O413 Cd410 2.333 . S
O413 C415 1.214 . S
O414 Cd410 2.352 . S
O414 C417 1.258 . S
C415 O412 1.320 . S
C415 O413 1.214 . S
O416 Cd408 2.277 . S
O416 C411 1.209 . S
C417 O414 1.258 . S
C417 O419 1.282 . S
O418 Cd410 2.277 . S
O418 C411 1.226 . S
O419 Cd410 2.356 . S
O419 C417 1.282 . S
C420 O421 1.306 . S
C420 O423 1.160 . S
O421 C420 1.306 . S
O421 Cd422 2.228 . S
Cd422 O421 2.228 . S
Cd422 O426 2.273 . S
Cd422 O430 2.277 . S
O423 C420 1.160 . S
O423 Cd424 2.203 . S
Cd424 O423 2.203 . S
Cd424 O426 2.411 . S
Cd424 O427 2.333 . S
Cd424 O428 2.352 . S
Cd424 O432 2.277 . S
Cd424 O433 2.356 . S
C425 O430 1.209 . S
C425 O432 1.226 . S
O426 Cd422 2.273 . S
O426 Cd424 2.411 . S
O426 C429 1.320 . S
O427 Cd424 2.333 . S
O427 C429 1.214 . S
O428 Cd424 2.352 . S
O428 C431 1.258 . S
C429 O426 1.320 . S
C429 O427 1.214 . S
O430 Cd422 2.277 . S
O430 C425 1.209 . S
C431 O428 1.258 . S
C431 O433 1.282 . S
O432 Cd424 2.277 . S
O432 C425 1.226 . S
O433 Cd424 2.356 . S
O433 C431 1.282 . S
C434 O435 1.306 . S
C434 O437 1.160 . S
O435 C434 1.306 . S
O435 Cd436 2.228 . S
Cd436 O435 2.228 . S
Cd436 O440 2.273 . S
Cd436 O444 2.277 . S
O437 C434 1.160 . S
O437 Cd438 2.203 . S
Cd438 O437 2.203 . S
Cd438 O440 2.411 . S
Cd438 O441 2.333 . S
Cd438 O442 2.352 . S
Cd438 O446 2.277 . S
Cd438 O447 2.356 . S
C439 O444 1.209 . S
C439 O446 1.226 . S
O440 Cd436 2.273 . S
O440 Cd438 2.411 . S
O440 C443 1.320 . S
O441 Cd438 2.333 . S
O441 C443 1.214 . S
O442 Cd438 2.352 . S
O442 C445 1.258 . S
C443 O440 1.320 . S
C443 O441 1.214 . S
O444 Cd436 2.277 . S
O444 C439 1.209 . S
C445 O442 1.258 . S
C445 O447 1.282 . S
O446 Cd438 2.277 . S
O446 C439 1.226 . S
O447 Cd438 2.356 . S
O447 C445 1.282 . S
C448 O449 1.306 . S
C448 O451 1.160 . S
O449 C448 1.306 . S
O449 Cd450 2.228 . S
Cd450 O449 2.228 . S
Cd450 O454 2.273 . S
Cd450 O458 2.277 . S
O451 C448 1.160 . S
O451 Cd452 2.203 . S
Cd452 O451 2.203 . S
Cd452 O454 2.411 . S
Cd452 O455 2.333 . S
Cd452 O456 2.352 . S
Cd452 O460 2.277 . S
Cd452 O461 2.356 . S
C453 O458 1.209 . S
C453 O460 1.226 . S
O454 Cd450 2.273 . S
O454 Cd452 2.411 . S
O454 C457 1.320 . S
O455 Cd452 2.333 . S
O455 C457 1.214 . S
O456 Cd452 2.352 . S
O456 C459 1.258 . S
C457 O454 1.320 . S
C457 O455 1.214 . S
O458 Cd450 2.277 . S
O458 C453 1.209 . S
C459 O456 1.258 . S
C459 O461 1.282 . S
O460 Cd452 2.277 . S
O460 C453 1.226 . S
O461 Cd452 2.356 . S
O461 C459 1.282 . S
C462 O463 1.306 . S
C462 O465 1.160 . S
O463 C462 1.306 . S
O463 Cd464 2.228 . S
Cd464 O463 2.228 . S
Cd464 O468 2.273 . S
Cd464 O472 2.277 . S
O465 C462 1.160 . S
O465 Cd466 2.203 . S
Cd466 O465 2.203 . S
Cd466 O468 2.411 . S
Cd466 O469 2.333 . S
Cd466 O470 2.352 . S
Cd466 O474 2.277 . S
Cd466 O475 2.356 . S
C467 O472 1.209 . S
C467 O474 1.226 . S
O468 Cd464 2.273 . S
O468 Cd466 2.411 . S
O468 C471 1.320 . S
O469 Cd466 2.333 . S
O469 C471 1.214 . S
O470 Cd466 2.352 . S
O470 C473 1.258 . S
C471 O468 1.320 . S
C471 O469 1.214 . S
O472 Cd464 2.277 . S
O472 C467 1.209 . S
C473 O470 1.258 . S
C473 O475 1.282 . S
O474 Cd466 2.277 . S
O474 C467 1.226 . S
O475 Cd466 2.356 . S
O475 C473 1.282 . S
C476 O477 1.306 . S
C476 O479 1.160 . S
O477 C476 1.306 . S
O477 Cd478 2.228 . S
Cd478 O477 2.228 . S
Cd478 O482 2.273 . S
Cd478 O486 2.277 . S
O479 C476 1.160 . S
O479 Cd480 2.203 . S
Cd480 O479 2.203 . S
Cd480 O482 2.411 . S
Cd480 O483 2.333 . S
Cd480 O484 2.352 . S
Cd480 O488 2.277 . S
Cd480 O489 2.356 . S
C481 O486 1.209 . S
C481 O488 1.226 . S
O482 Cd478 2.273 . S
O482 Cd480 2.411 . S
O482 C485 1.320 . S
O483 Cd480 2.333 . S
O483 C485 1.214 . S
O484 Cd480 2.352 . S
O484 C487 1.258 . S
C485 O482 1.320 . S
C485 O483 1.214 . S
O486 Cd478 2.277 . S
O486 C481 1.209 . S
C487 O484 1.258 . S
C487 O489 1.282 . S
O488 Cd480 2.277 . S
O488 C481 1.226 . S
O489 Cd480 2.356 . S
O489 C487 1.282 . S
C490 O491 1.306 . S
C490 O493 1.160 . S
O491 C490 1.306 . S
O491 Cd492 2.228 . S
Cd492 O491 2.228 . S
Cd492 O496 2.273 . S
Cd492 O500 2.277 . S
O493 C490 1.160 . S
O493 Cd494 2.203 . S
Cd494 O493 2.203 . S
Cd494 O496 2.411 . S
Cd494 O497 2.333 . S
Cd494 O498 2.352 . S
Cd494 O502 2.277 . S
Cd494 O503 2.356 . S
C495 O500 1.209 . S
C495 O502 1.226 . S
O496 Cd492 2.273 . S
O496 Cd494 2.411 . S
O496 C499 1.320 . S
O497 Cd494 2.333 . S
O497 C499 1.214 . S
O498 Cd494 2.352 . S
O498 C501 1.258 . S
C499 O496 1.320 . S
C499 O497 1.214 . S
O500 Cd492 2.277 . S
O500 C495 1.209 . S
C501 O498 1.258 . S
C501 O503 1.282 . S
O502 Cd494 2.277 . S
O502 C495 1.226 . S
O503 Cd494 2.356 . S
O503 C501 1.282 . S
C504 O505 1.306 . S
C504 O507 1.160 . S
O505 C504 1.306 . S
O505 Cd506 2.228 . S
Cd506 O505 2.228 . S
Cd506 O510 2.273 . S
Cd506 O514 2.277 . S
O507 C504 1.160 . S
O507 Cd508 2.203 . S
Cd508 O507 2.203 . S
Cd508 O510 2.411 . S
Cd508 O511 2.333 . S
Cd508 O512 2.352 . S
Cd508 O516 2.277 . S
Cd508 O517 2.356 . S
C509 O514 1.209 . S
C509 O516 1.226 . S
O510 Cd506 2.273 . S
O510 Cd508 2.411 . S
O510 C513 1.320 . S
O511 Cd508 2.333 . S
O511 C513 1.214 . S
O512 Cd508 2.352 . S
O512 C515 1.258 . S
C513 O510 1.320 . S
C513 O511 1.214 . S
O514 Cd506 2.277 . S
O514 C509 1.209 . S
C515 O512 1.258 . S
C515 O517 1.282 . S
O516 Cd508 2.277 . S
O516 C509 1.226 . S
O517 Cd508 2.356 . S
O517 C515 1.282 . S
C518 O519 1.306 . S
C518 O521 1.160 . S
O519 C518 1.306 . S
O519 Cd520 2.228 . S
Cd520 O519 2.228 . S
Cd520 O524 2.273 . S
Cd520 O528 2.277 . S
O521 C518 1.160 . S
O521 Cd522 2.203 . S
Cd522 O521 2.203 . S
Cd522 O524 2.411 . S
Cd522 O525 2.333 . S
Cd522 O526 2.352 . S
Cd522 O530 2.277 . S
Cd522 O531 2.356 . S
C523 O528 1.209 . S
C523 O530 1.226 . S
O524 Cd520 2.273 . S
O524 Cd522 2.411 . S
O524 C527 1.320 . S
O525 Cd522 2.333 . S
O525 C527 1.214 . S
O526 Cd522 2.352 . S
O526 C529 1.258 . S
C527 O524 1.320 . S
C527 O525 1.214 . S
O528 Cd520 2.277 . S
O528 C523 1.209 . S
C529 O526 1.258 . S
C529 O531 1.282 . S
O530 Cd522 2.277 . S
O530 C523 1.226 . S
O531 Cd522 2.356 . S
O531 C529 1.282 . S
C532 O533 1.306 . S
C532 O535 1.160 . S
O533 C532 1.306 . S
O533 Cd534 2.228 . S
Cd534 O533 2.228 . S
Cd534 O538 2.273 . S
Cd534 O542 2.277 . S
O535 C532 1.160 . S
O535 Cd536 2.203 . S
Cd536 O535 2.203 . S
Cd536 O538 2.411 . S
Cd536 O539 2.333 . S
Cd536 O540 2.352 . S
Cd536 O544 2.277 . S
Cd536 O545 2.356 . S
C537 O542 1.209 . S
C537 O544 1.226 . S
O538 Cd534 2.273 . S
O538 Cd536 2.411 . S
O538 C541 1.320 . S
O539 Cd536 2.333 . S
O539 C541 1.214 . S
O540 Cd536 2.352 . S
O540 C543 1.258 . S
C541 O538 1.320 . S
C541 O539 1.214 . S
O542 Cd534 2.277 . S
O542 C537 1.209 . S
C543 O540 1.258 . S
C543 O545 1.282 . S
O544 Cd536 2.277 . S
O544 C537 1.226 . S
O545 Cd536 2.356 . S
O545 C543 1.282 . S
C546 O547 1.306 . S
C546 O549 1.160 . S
O547 C546 1.306 . S
O547 Cd548 2.228 . S
Cd548 O547 2.228 . S
Cd548 O552 2.273 . S
Cd548 O556 2.277 . S
O549 C546 1.160 . S
O549 Cd550 2.203 . S
Cd550 O549 2.203 . S
Cd550 O552 2.411 . S
Cd550 O553 2.333 . S
Cd550 O554 2.352 . S
Cd550 O558 2.277 . S
Cd550 O559 2.356 . S
C551 O556 1.209 . S
C551 O558 1.226 . S
O552 Cd548 2.273 . S
O552 Cd550 2.411 . S
O552 C555 1.320 . S
O553 Cd550 2.333 . S
O553 C555 1.214 . S
O554 Cd550 2.352 . S
O554 C557 1.258 . S
C555 O552 1.320 . S
C555 O553 1.214 . S
O556 Cd548 2.277 . S
O556 C551 1.209 . S
C557 O554 1.258 . S
C557 O559 1.282 . S
O558 Cd550 2.277 . S
O558 C551 1.226 . S
O559 Cd550 2.356 . S
O559 C557 1.282 . S
C560 O561 1.306 . S
C560 O563 1.160 . S
O561 C560 1.306 . S
O561 Cd562 2.228 . S
Cd562 O561 2.228 . S
Cd562 O566 2.273 . S
Cd562 O570 2.277 . S
O563 C560 1.160 . S
O563 Cd564 2.203 . S
Cd564 O563 2.203 . S
Cd564 O566 2.411 . S
Cd564 O567 2.333 . S
Cd564 O568 2.352 . S
Cd564 O572 2.277 . S
Cd564 O573 2.356 . S
C565 O570 1.209 . S
C565 O572 1.226 . S
O566 Cd562 2.273 . S
O566 Cd564 2.411 . S
O566 C569 1.320 . S
O567 Cd564 2.333 . S
O567 C569 1.214 . S
O568 Cd564 2.352 . S
O568 C571 1.258 . S
C569 O566 1.320 . S
C569 O567 1.214 . S
O570 Cd562 2.277 . S
O570 C565 1.209 . S
C571 O568 1.258 . S
C571 O573 1.282 . S
O572 Cd564 2.277 . S
O572 C565 1.226 . S
O573 Cd564 2.356 . S
O573 C571 1.282 . S
C574 O575 1.306 . S
C574 O577 1.160 . S
O575 C574 1.306 . S
O575 Cd576 2.228 . S
Cd576 O575 2.228 . S
Cd576 O580 2.273 . S
Cd576 O584 2.277 . S
O577 C574 1.160 . S
O577 Cd578 2.203 . S
Cd578 O577 2.203 . S
Cd578 O580 2.411 . S
Cd578 O581 2.333 . S
Cd578 O582 2.352 . S
Cd578 O586 2.277 . S
Cd578 O587 2.356 . S
C579 O584 1.209 . S
C579 O586 1.226 . S
O580 Cd576 2.273 . S
O580 Cd578 2.411 . S
O580 C583 1.320 . S
O581 Cd578 2.333 . S
O581 C583 1.214 . S
O582 Cd578 2.352 . S
O582 C585 1.258 . S
C583 O580 1.320 . S
C583 O581 1.214 . S
O584 Cd576 2.277 . S
O584 C579 1.209 . S
C585 O582 1.258 . S
C585 O587 1.282 . S
O586 Cd578 2.277 . S
O586 C579 1.226 . S
O587 Cd578 2.356 . S
O587 C585 1.282 . S
C588 O589 1.306 . S
C588 O591 1.160 . S
O589 C588 1.306 . S
O589 Cd590 2.228 . S
Cd590 O589 2.228 . S
Cd590 O594 2.273 . S
Cd590 O598 2.277 . S
O591 C588 1.160 . S
O591 Cd592 2.203 . S
Cd592 O591 2.203 . S
Cd592 O594 2.411 . S
Cd592 O595 2.333 . S
Cd592 O596 2.352 . S
Cd592 O600 2.277 . S
Cd592 O601 2.356 . S
C593 O598 1.209 . S
C593 O600 1.226 . S
O594 Cd590 2.273 . S
O594 Cd592 2.411 . S
O594 C597 1.320 . S
O595 Cd592 2.333 . S
O595 C597 1.214 . S
O596 Cd592 2.352 . S
O596 C599 1.258 . S
C597 O594 1.320 . S
C597 O595 1.214 . S
O598 Cd590 2.277 . S
O598 C593 1.209 . S
C599 O596 1.258 . S
C599 O601 1.282 . S
O600 Cd592 2.277 . S
O600 C593 1.226 . S
O601 Cd592 2.356 . S
O601 C599 1.282 . S
C602 O603 1.306 . S
C602 O605 1.160 . S
O603 C602 1.306 . S
O603 Cd604 2.228 . S
Cd604 O603 2.228 . S
Cd604 O608 2.273 . S
Cd604 O612 2.277 . S
O605 C602 1.160 . S
O605 Cd606 2.203 . S
Cd606 O605 2.203 . S
Cd606 O608 2.411 . S
Cd606 O609 2.333 . S
Cd606 O610 2.352 . S
Cd606 O614 2.277 . S
Cd606 O615 2.356 . S
C607 O612 1.209 . S
C607 O614 1.226 . S
O608 Cd604 2.273 . S
O608 Cd606 2.411 . S
O608 C611 1.320 . S
O609 Cd606 2.333 . S
O609 C611 1.214 . S
O610 Cd606 2.352 . S
O610 C613 1.258 . S
C611 O608 1.320 . S
C611 O609 1.214 . S
O612 Cd604 2.277 . S
O612 C607 1.209 . S
C613 O610 1.258 . S
C613 O615 1.282 . S
O614 Cd606 2.277 . S
O614 C607 1.226 . S
O615 Cd606 2.356 . S
O615 C613 1.282 . S
C616 O617 1.306 . S
C616 O619 1.160 . S
O617 C616 1.306 . S
O617 Cd618 2.228 . S
Cd618 O617 2.228 . S
Cd618 O622 2.273 . S
Cd618 O626 2.277 . S
O619 C616 1.160 . S
O619 Cd620 2.203 . S
Cd620 O619 2.203 . S
Cd620 O622 2.411 . S
Cd620 O623 2.333 . S
Cd620 O624 2.352 . S
Cd620 O628 2.277 . S
Cd620 O629 2.356 . S
C621 O626 1.209 . S
C621 O628 1.226 . S
O622 Cd618 2.273 . S
O622 Cd620 2.411 . S
O622 C625 1.320 . S
O623 Cd620 2.333 . S
O623 C625 1.214 . S
O624 Cd620 2.352 . S
O624 C627 1.258 . S
C625 O622 1.320 . S
C625 O623 1.214 . S
O626 Cd618 2.277 . S
O626 C621 1.209 . S
C627 O624 1.258 . S
C627 O629 1.282 . S
O628 Cd620 2.277 . S
O628 C621 1.226 . S
O629 Cd620 2.356 . S
O629 C627 1.282 . S
C630 O631 1.306 . S
C630 O633 1.160 . S
O631 C630 1.306 . S
O631 Cd632 2.228 . S
Cd632 O631 2.228 . S
Cd632 O636 2.273 . S
Cd632 O640 2.277 . S
O633 C630 1.160 . S
O633 Cd634 2.203 . S
Cd634 O633 2.203 . S
Cd634 O636 2.411 . S
Cd634 O637 2.333 . S
Cd634 O638 2.352 . S
Cd634 O642 2.277 . S
Cd634 O643 2.356 . S
C635 O640 1.209 . S
C635 O642 1.226 . S
O636 Cd632 2.273 . S
O636 Cd634 2.411 . S
O636 C639 1.320 . S
O637 Cd634 2.333 . S
O637 C639 1.214 . S
O638 Cd634 2.352 . S
O638 C641 1.258 . S
C639 O636 1.320 . S
C639 O637 1.214 . S
O640 Cd632 2.277 . S
O640 C635 1.209 . S
C641 O638 1.258 . S
C641 O643 1.282 . S
O642 Cd634 2.277 . S
O642 C635 1.226 . S
O643 Cd634 2.356 . S
O643 C641 1.282 . S
C644 O645 1.306 . S
C644 O647 1.160 . S
O645 C644 1.306 . S
O645 Cd646 2.228 . S
Cd646 O645 2.228 . S
Cd646 O650 2.273 . S
Cd646 O654 2.277 . S
O647 C644 1.160 . S
O647 Cd648 2.203 . S
Cd648 O647 2.203 . S
Cd648 O650 2.411 . S
Cd648 O651 2.333 . S
Cd648 O652 2.352 . S
Cd648 O656 2.277 . S
Cd648 O657 2.356 . S
C649 O654 1.209 . S
C649 O656 1.226 . S
O650 Cd646 2.273 . S
O650 Cd648 2.411 . S
O650 C653 1.320 . S
O651 Cd648 2.333 . S
O651 C653 1.214 . S
O652 Cd648 2.352 . S
O652 C655 1.258 . S
C653 O650 1.320 . S
C653 O651 1.214 . S
O654 Cd646 2.277 . S
O654 C649 1.209 . S
C655 O652 1.258 . S
C655 O657 1.282 . S
O656 Cd648 2.277 . S
O656 C649 1.226 . S
O657 Cd648 2.356 . S
O657 C655 1.282 . S
C658 O659 1.306 . S
C658 O661 1.160 . S
O659 C658 1.306 . S
O659 Cd660 2.228 . S
Cd660 O659 2.228 . S
Cd660 O664 2.273 . S
Cd660 O668 2.277 . S
O661 C658 1.160 . S
O661 Cd662 2.203 . S
Cd662 O661 2.203 . S
Cd662 O664 2.411 . S
Cd662 O665 2.333 . S
Cd662 O666 2.352 . S
Cd662 O670 2.277 . S
Cd662 O671 2.356 . S
C663 O668 1.209 . S
C663 O670 1.226 . S
O664 Cd660 2.273 . S
O664 Cd662 2.411 . S
O664 C667 1.320 . S
O665 Cd662 2.333 . S
O665 C667 1.214 . S
O666 Cd662 2.352 . S
O666 C669 1.258 . S
C667 O664 1.320 . S
C667 O665 1.214 . S
O668 Cd660 2.277 . S
O668 C663 1.209 . S
C669 O666 1.258 . S
C669 O671 1.282 . S
O670 Cd662 2.277 . S
O670 C663 1.226 . S
O671 Cd662 2.356 . S
O671 C669 1.282 . S
H672 C690 0.951 . S
H673 C692 0.951 . S
H674 C694 0.950 . S
H675 C695 0.950 . S
H676 C697 0.950 . S
H677 C700 0.950 . S
H678 C701 0.950 . S
H679 C703 0.950 . S
H680 C704 0.950 . S
H681 C705 0.951 . S
H682 C707 0.951 . S
H683 C709 0.950 . S
H684 C710 0.950 . S
H685 C712 0.950 . S
H686 C715 0.950 . S
H687 C716 0.950 . S
H688 C718 0.950 . S
H689 C719 0.950 . S
C690 H672 0.951 . S
C690 C691 1.366 . S
C690 C692 1.388 . S
C691 C690 1.366 . S
C691 C695 1.385 . S
C692 H673 0.951 . S
C692 C690 1.388 . S
C692 C693 1.366 . S
C693 C692 1.366 . S
C693 C694 1.414 . S
C693 C696 1.499 . S
C694 H674 0.950 . S
C694 C693 1.414 . S
C694 C695 1.374 . S
C695 H675 0.950 . S
C695 C691 1.385 . S
C695 C694 1.374 . S
C696 C693 1.499 . S
C696 C697 1.373 . S
C696 C698 1.389 . S
C697 H676 0.950 . S
C697 C696 1.373 . S
C697 C713 1.377 . S
C698 C696 1.389 . S
C698 C699 1.524 . S
C698 C712 1.377 . S
C699 C698 1.524 . S
C699 C700 1.397 . S
C699 C704 1.363 . S
C700 H677 0.950 . S
C700 C699 1.397 . S
C700 C701 1.334 . S
C701 H678 0.950 . S
C701 C700 1.334 . S
C701 C702 1.287 . S
C702 C701 1.287 . S
C702 C703 1.524 . S
C702 H721 0.913 . S
C703 H679 0.950 . S
C703 C702 1.524 . S
C703 C704 1.415 . S
C704 H680 0.950 . S
C704 C699 1.363 . S
C704 C703 1.415 . S
C705 H681 0.951 . S
C705 C706 1.366 . S
C705 C707 1.388 . S
C706 C705 1.366 . S
C706 C710 1.385 . S
C707 H682 0.951 . S
C707 C705 1.388 . S
C707 C708 1.366 . S
C708 C707 1.366 . S
C708 C709 1.414 . S
C708 C711 1.499 . S
C709 H683 0.950 . S
C709 C708 1.414 . S
C709 C710 1.374 . S
C710 H684 0.950 . S
C710 C706 1.385 . S
C710 C709 1.374 . S
C711 C708 1.499 . S
C711 C712 1.373 . S
C711 C713 1.389 . S
C712 H685 0.950 . S
C712 C698 1.377 . S
C712 C711 1.373 . S
C713 C697 1.377 . S
C713 C711 1.389 . S
C713 C714 1.524 . S
C714 C713 1.524 . S
C714 C715 1.397 . S
C714 C719 1.363 . S
C715 H686 0.950 . S
C715 C714 1.397 . S
C715 C716 1.334 . S
C716 H687 0.950 . S
C716 C715 1.334 . S
C716 C717 1.287 . S
C717 C716 1.287 . S
C717 C718 1.524 . S
C717 H720 0.999 . S
C718 H688 0.950 . S
C718 C717 1.524 . S
C718 C719 1.415 . S
C719 H689 0.950 . S
C719 C714 1.363 . S
C719 C718 1.415 . S
H720 C717 0.999 . S
H721 C702 0.913 . S
H722 C740 0.951 . S
H723 C742 0.951 . S
H724 C744 0.950 . S
H725 C745 0.950 . S
H726 C747 0.950 . S
H727 C750 0.950 . S
H728 C751 0.950 . S
H729 C753 0.950 . S
H730 C754 0.950 . S
H731 C755 0.951 . S
H732 C757 0.951 . S
H733 C759 0.950 . S
H734 C760 0.950 . S
H735 C762 0.950 . S
H736 C765 0.950 . S
H737 C766 0.950 . S
H738 C768 0.950 . S
H739 C769 0.950 . S
C740 H722 0.951 . S
C740 C741 1.366 . S
C740 C742 1.388 . S
C741 C740 1.366 . S
C741 C745 1.385 . S
C742 H723 0.951 . S
C742 C740 1.388 . S
C742 C743 1.366 . S
C743 C742 1.366 . S
C743 C744 1.414 . S
C743 C746 1.499 . S
C744 H724 0.950 . S
C744 C743 1.414 . S
C744 C745 1.374 . S
C745 H725 0.950 . S
C745 C741 1.385 . S
C745 C744 1.374 . S
C746 C743 1.499 . S
C746 C747 1.373 . S
C746 C748 1.389 . S
C747 H726 0.950 . S
C747 C746 1.373 . S
C747 C763 1.377 . S
C748 C746 1.389 . S
C748 C749 1.524 . S
C748 C762 1.377 . S
C749 C748 1.524 . S
C749 C750 1.397 . S
C749 C754 1.363 . S
C750 H727 0.950 . S
C750 C749 1.397 . S
C750 C751 1.334 . S
C751 H728 0.950 . S
C751 C750 1.334 . S
C751 C752 1.287 . S
C752 C751 1.287 . S
C752 C753 1.524 . S
C752 H771 0.913 . S
C753 H729 0.950 . S
C753 C752 1.524 . S
C753 C754 1.415 . S
C754 H730 0.950 . S
C754 C749 1.363 . S
C754 C753 1.415 . S
C755 H731 0.951 . S
C755 C756 1.366 . S
C755 C757 1.388 . S
C756 C755 1.366 . S
C756 C760 1.385 . S
C757 H732 0.951 . S
C757 C755 1.388 . S
C757 C758 1.366 . S
C758 C757 1.366 . S
C758 C759 1.414 . S
C758 C761 1.499 . S
C759 H733 0.950 . S
C759 C758 1.414 . S
C759 C760 1.374 . S
C760 H734 0.950 . S
C760 C756 1.385 . S
C760 C759 1.374 . S
C761 C758 1.499 . S
C761 C762 1.373 . S
C761 C763 1.389 . S
C762 H735 0.950 . S
C762 C748 1.377 . S
C762 C761 1.373 . S
C763 C747 1.377 . S
C763 C761 1.389 . S
C763 C764 1.524 . S
C764 C763 1.524 . S
C764 C765 1.397 . S
C764 C769 1.363 . S
C765 H736 0.950 . S
C765 C764 1.397 . S
C765 C766 1.334 . S
C766 H737 0.950 . S
C766 C765 1.334 . S
C766 C767 1.287 . S
C767 C766 1.287 . S
C767 C768 1.524 . S
C767 H770 0.999 . S
C768 H738 0.950 . S
C768 C767 1.524 . S
C768 C769 1.415 . S
C769 H739 0.950 . S
C769 C764 1.363 . S
C769 C768 1.415 . S
H770 C767 0.999 . S
H771 C752 0.913 . S
H772 C790 0.951 . S
H773 C792 0.951 . S
H774 C794 0.950 . S
H775 C795 0.950 . S
H776 C797 0.950 . S
H777 C800 0.950 . S
H778 C801 0.950 . S
H779 C803 0.950 . S
H780 C804 0.950 . S
H781 C805 0.951 . S
H782 C807 0.951 . S
H783 C809 0.950 . S
H784 C810 0.950 . S
H785 C812 0.950 . S
H786 C815 0.950 . S
H787 C816 0.950 . S
H788 C818 0.950 . S
H789 C819 0.950 . S
C790 H772 0.951 . S
C790 C791 1.366 . S
C790 C792 1.388 . S
C791 C790 1.366 . S
C791 C795 1.385 . S
C792 H773 0.951 . S
C792 C790 1.388 . S
C792 C793 1.366 . S
C793 C792 1.366 . S
C793 C794 1.414 . S
C793 C796 1.499 . S
C794 H774 0.950 . S
C794 C793 1.414 . S
C794 C795 1.374 . S
C795 H775 0.950 . S
C795 C791 1.385 . S
C795 C794 1.374 . S
C796 C793 1.499 . S
C796 C797 1.373 . S
C796 C798 1.389 . S
C797 H776 0.950 . S
C797 C796 1.373 . S
C797 C813 1.377 . S
C798 C796 1.389 . S
C798 C799 1.524 . S
C798 C812 1.377 . S
C799 C798 1.524 . S
C799 C800 1.397 . S
C799 C804 1.363 . S
C800 H777 0.950 . S
C800 C799 1.397 . S
C800 C801 1.334 . S
C801 H778 0.950 . S
C801 C800 1.334 . S
C801 C802 1.287 . S
C802 C801 1.287 . S
C802 C803 1.524 . S
C802 H821 0.913 . S
C803 H779 0.950 . S
C803 C802 1.524 . S
C803 C804 1.415 . S
C804 H780 0.950 . S
C804 C799 1.363 . S
C804 C803 1.415 . S
C805 H781 0.951 . S
C805 C806 1.366 . S
C805 C807 1.388 . S
C806 C805 1.366 . S
C806 C810 1.385 . S
C807 H782 0.951 . S
C807 C805 1.388 . S
C807 C808 1.366 . S
C808 C807 1.366 . S
C808 C809 1.414 . S
C808 C811 1.499 . S
C809 H783 0.950 . S
C809 C808 1.414 . S
C809 C810 1.374 . S
C810 H784 0.950 . S
C810 C806 1.385 . S
C810 C809 1.374 . S
C811 C808 1.499 . S
C811 C812 1.373 . S
C811 C813 1.389 . S
C812 H785 0.950 . S
C812 C798 1.377 . S
C812 C811 1.373 . S
C813 C797 1.377 . S
C813 C811 1.389 . S
C813 C814 1.524 . S
C814 C813 1.524 . S
C814 C815 1.397 . S
C814 C819 1.363 . S
C815 H786 0.950 . S
C815 C814 1.397 . S
C815 C816 1.334 . S
C816 H787 0.950 . S
C816 C815 1.334 . S
C816 C817 1.287 . S
C817 C816 1.287 . S
C817 C818 1.524 . S
C817 H820 0.999 . S
C818 H788 0.950 . S
C818 C817 1.524 . S
C818 C819 1.415 . S
C819 H789 0.950 . S
C819 C814 1.363 . S
C819 C818 1.415 . S
H820 C817 0.999 . S
H821 C802 0.913 . S
H822 C840 0.951 . S
H823 C842 0.951 . S
H824 C844 0.950 . S
H825 C845 0.950 . S
H826 C847 0.950 . S
H827 C850 0.950 . S
H828 C851 0.950 . S
H829 C853 0.950 . S
H830 C854 0.950 . S
H831 C855 0.951 . S
H832 C857 0.951 . S
H833 C859 0.950 . S
H834 C860 0.950 . S
H835 C862 0.950 . S
H836 C865 0.950 . S
H837 C866 0.950 . S
H838 C868 0.950 . S
H839 C869 0.950 . S
C840 H822 0.951 . S
C840 C841 1.366 . S
C840 C842 1.388 . S
C841 C840 1.366 . S
C841 C845 1.385 . S
C842 H823 0.951 . S
C842 C840 1.388 . S
C842 C843 1.366 . S
C843 C842 1.366 . S
C843 C844 1.414 . S
C843 C846 1.499 . S
C844 H824 0.950 . S
C844 C843 1.414 . S
C844 C845 1.374 . S
C845 H825 0.950 . S
C845 C841 1.385 . S
C845 C844 1.374 . S
C846 C843 1.499 . S
C846 C847 1.373 . S
C846 C848 1.389 . S
C847 H826 0.950 . S
C847 C846 1.373 . S
C847 C863 1.377 . S
C848 C846 1.389 . S
C848 C849 1.524 . S
C848 C862 1.377 . S
C849 C848 1.524 . S
C849 C850 1.397 . S
C849 C854 1.363 . S
C850 H827 0.950 . S
C850 C849 1.397 . S
C850 C851 1.334 . S
C851 H828 0.950 . S
C851 C850 1.334 . S
C851 C852 1.287 . S
C852 C851 1.287 . S
C852 C853 1.524 . S
C852 H871 0.913 . S
C853 H829 0.950 . S
C853 C852 1.524 . S
C853 C854 1.415 . S
C854 H830 0.950 . S
C854 C849 1.363 . S
C854 C853 1.415 . S
C855 H831 0.951 . S
C855 C856 1.366 . S
C855 C857 1.388 . S
C856 C855 1.366 . S
C856 C860 1.385 . S
C857 H832 0.951 . S
C857 C855 1.388 . S
C857 C858 1.366 . S
C858 C857 1.366 . S
C858 C859 1.414 . S
C858 C861 1.499 . S
C859 H833 0.950 . S
C859 C858 1.414 . S
C859 C860 1.374 . S
C860 H834 0.950 . S
C860 C856 1.385 . S
C860 C859 1.374 . S
C861 C858 1.499 . S
C861 C862 1.373 . S
C861 C863 1.389 . S
C862 H835 0.950 . S
C862 C848 1.377 . S
C862 C861 1.373 . S
C863 C847 1.377 . S
C863 C861 1.389 . S
C863 C864 1.524 . S
C864 C863 1.524 . S
C864 C865 1.397 . S
C864 C869 1.363 . S
C865 H836 0.950 . S
C865 C864 1.397 . S
C865 C866 1.334 . S
C866 H837 0.950 . S
C866 C865 1.334 . S
C866 C867 1.287 . S
C867 C866 1.287 . S
C867 C868 1.524 . S
C867 H870 0.999 . S
C868 H838 0.950 . S
C868 C867 1.524 . S
C868 C869 1.415 . S
C869 H839 0.950 . S
C869 C864 1.363 . S
C869 C868 1.415 . S
H870 C867 0.999 . S
H871 C852 0.913 . S
H872 C890 0.951 . S
H873 C892 0.951 . S
H874 C894 0.950 . S
H875 C895 0.950 . S
H876 C897 0.950 . S
H877 C900 0.950 . S
H878 C901 0.950 . S
H879 C903 0.950 . S
H880 C904 0.950 . S
H881 C905 0.951 . S
H882 C907 0.951 . S
H883 C909 0.950 . S
H884 C910 0.950 . S
H885 C912 0.950 . S
H886 C915 0.950 . S
H887 C916 0.950 . S
H888 C918 0.950 . S
H889 C919 0.950 . S
C890 H872 0.951 . S
C890 C891 1.366 . S
C890 C892 1.388 . S
C891 C890 1.366 . S
C891 C895 1.385 . S
C892 H873 0.951 . S
C892 C890 1.388 . S
C892 C893 1.366 . S
C893 C892 1.366 . S
C893 C894 1.414 . S
C893 C896 1.499 . S
C894 H874 0.950 . S
C894 C893 1.414 . S
C894 C895 1.374 . S
C895 H875 0.950 . S
C895 C891 1.385 . S
C895 C894 1.374 . S
C896 C893 1.499 . S
C896 C897 1.373 . S
C896 C898 1.389 . S
C897 H876 0.950 . S
C897 C896 1.373 . S
C897 C913 1.377 . S
C898 C896 1.389 . S
C898 C899 1.524 . S
C898 C912 1.377 . S
C899 C898 1.524 . S
C899 C900 1.397 . S
C899 C904 1.363 . S
C900 H877 0.950 . S
C900 C899 1.397 . S
C900 C901 1.334 . S
C901 H878 0.950 . S
C901 C900 1.334 . S
C901 C902 1.287 . S
C902 C901 1.287 . S
C902 C903 1.524 . S
C902 H921 0.913 . S
C903 H879 0.950 . S
C903 C902 1.524 . S
C903 C904 1.415 . S
C904 H880 0.950 . S
C904 C899 1.363 . S
C904 C903 1.415 . S
C905 H881 0.951 . S
C905 C906 1.366 . S
C905 C907 1.388 . S
C906 C905 1.366 . S
C906 C910 1.385 . S
C907 H882 0.951 . S
C907 C905 1.388 . S
C907 C908 1.366 . S
C908 C907 1.366 . S
C908 C909 1.414 . S
C908 C911 1.499 . S
C909 H883 0.950 . S
C909 C908 1.414 . S
C909 C910 1.374 . S
C910 H884 0.950 . S
C910 C906 1.385 . S
C910 C909 1.374 . S
C911 C908 1.499 . S
C911 C912 1.373 . S
C911 C913 1.389 . S
C912 H885 0.950 . S
C912 C898 1.377 . S
C912 C911 1.373 . S
C913 C897 1.377 . S
C913 C911 1.389 . S
C913 C914 1.524 . S
C914 C913 1.524 . S
C914 C915 1.397 . S
C914 C919 1.363 . S
C915 H886 0.950 . S
C915 C914 1.397 . S
C915 C916 1.334 . S
C916 H887 0.950 . S
C916 C915 1.334 . S
C916 C917 1.287 . S
C917 C916 1.287 . S
C917 C918 1.524 . S
C917 H920 0.999 . S
C918 H888 0.950 . S
C918 C917 1.524 . S
C918 C919 1.415 . S
C919 H889 0.950 . S
C919 C914 1.363 . S
C919 C918 1.415 . S
H920 C917 0.999 . S
H921 C902 0.913 . S
H922 C940 0.951 . S
H923 C942 0.951 . S
H924 C944 0.950 . S
H925 C945 0.950 . S
H926 C947 0.950 . S
H927 C950 0.950 . S
H928 C951 0.950 . S
H929 C953 0.950 . S
H930 C954 0.950 . S
H931 C955 0.951 . S
H932 C957 0.951 . S
H933 C959 0.950 . S
H934 C960 0.950 . S
H935 C962 0.950 . S
H936 C965 0.950 . S
H937 C966 0.950 . S
H938 C968 0.950 . S
H939 C969 0.950 . S
C940 H922 0.951 . S
C940 C941 1.366 . S
C940 C942 1.388 . S
C941 C940 1.366 . S
C941 C945 1.385 . S
C942 H923 0.951 . S
C942 C940 1.388 . S
C942 C943 1.366 . S
C943 C942 1.366 . S
C943 C944 1.414 . S
C943 C946 1.499 . S
C944 H924 0.950 . S
C944 C943 1.414 . S
C944 C945 1.374 . S
C945 H925 0.950 . S
C945 C941 1.385 . S
C945 C944 1.374 . S
C946 C943 1.499 . S
C946 C947 1.373 . S
C946 C948 1.389 . S
C947 H926 0.950 . S
C947 C946 1.373 . S
C947 C963 1.377 . S
C948 C946 1.389 . S
C948 C949 1.524 . S
C948 C962 1.377 . S
C949 C948 1.524 . S
C949 C950 1.397 . S
C949 C954 1.363 . S
C950 H927 0.950 . S
C950 C949 1.397 . S
C950 C951 1.334 . S
C951 H928 0.950 . S
C951 C950 1.334 . S
C951 C952 1.287 . S
C952 C951 1.287 . S
C952 C953 1.524 . S
C952 H971 0.913 . S
C953 H929 0.950 . S
C953 C952 1.524 . S
C953 C954 1.415 . S
C954 H930 0.950 . S
C954 C949 1.363 . S
C954 C953 1.415 . S
C955 H931 0.951 . S
C955 C956 1.366 . S
C955 C957 1.388 . S
C956 C955 1.366 . S
C956 C960 1.385 . S
C957 H932 0.951 . S
C957 C955 1.388 . S
C957 C958 1.366 . S
C958 C957 1.366 . S
C958 C959 1.414 . S
C958 C961 1.499 . S
C959 H933 0.950 . S
C959 C958 1.414 . S
C959 C960 1.374 . S
C960 H934 0.950 . S
C960 C956 1.385 . S
C960 C959 1.374 . S
C961 C958 1.499 . S
C961 C962 1.373 . S
C961 C963 1.389 . S
C962 H935 0.950 . S
C962 C948 1.377 . S
C962 C961 1.373 . S
C963 C947 1.377 . S
C963 C961 1.389 . S
C963 C964 1.524 . S
C964 C963 1.524 . S
C964 C965 1.397 . S
C964 C969 1.363 . S
C965 H936 0.950 . S
C965 C964 1.397 . S
C965 C966 1.334 . S
C966 H937 0.950 . S
C966 C965 1.334 . S
C966 C967 1.287 . S
C967 C966 1.287 . S
C967 C968 1.524 . S
C967 H970 0.999 . S
C968 H938 0.950 . S
C968 C967 1.524 . S
C968 C969 1.415 . S
C969 H939 0.950 . S
C969 C964 1.363 . S
C969 C968 1.415 . S
H970 C967 0.999 . S
H971 C952 0.913 . S
H972 C990 0.951 . S
H973 C992 0.951 . S
H974 C994 0.950 . S
H975 C995 0.950 . S
H976 C997 0.950 . S
H977 C1000 0.950 . S
H978 C1001 0.950 . S
H979 C1003 0.950 . S
H980 C1004 0.950 . S
H981 C1005 0.951 . S
H982 C1007 0.951 . S
H983 C1009 0.950 . S
H984 C1010 0.950 . S
H985 C1012 0.950 . S
H986 C1015 0.950 . S
H987 C1016 0.950 . S
H988 C1018 0.950 . S
H989 C1019 0.950 . S
C990 H972 0.951 . S
C990 C991 1.366 . S
C990 C992 1.388 . S
C991 C990 1.366 . S
C991 C995 1.385 . S
C992 H973 0.951 . S
C992 C990 1.388 . S
C992 C993 1.366 . S
C993 C992 1.366 . S
C993 C994 1.414 . S
C993 C996 1.499 . S
C994 H974 0.950 . S
C994 C993 1.414 . S
C994 C995 1.374 . S
C995 H975 0.950 . S
C995 C991 1.385 . S
C995 C994 1.374 . S
C996 C993 1.499 . S
C996 C997 1.373 . S
C996 C998 1.389 . S
C997 H976 0.950 . S
C997 C996 1.373 . S
C997 C1013 1.377 . S
C998 C996 1.389 . S
C998 C999 1.524 . S
C998 C1012 1.377 . S
C999 C998 1.524 . S
C999 C1000 1.397 . S
C999 C1004 1.363 . S
C1000 H977 0.950 . S
C1000 C999 1.397 . S
C1000 C1001 1.334 . S
C1001 H978 0.950 . S
C1001 C1000 1.334 . S
C1001 C1002 1.287 . S
C1002 C1001 1.287 . S
C1002 C1003 1.524 . S
C1002 H1021 0.913 . S
C1003 H979 0.950 . S
C1003 C1002 1.524 . S
C1003 C1004 1.415 . S
C1004 H980 0.950 . S
C1004 C999 1.363 . S
C1004 C1003 1.415 . S
C1005 H981 0.951 . S
C1005 C1006 1.366 . S
C1005 C1007 1.388 . S
C1006 C1005 1.366 . S
C1006 C1010 1.385 . S
C1007 H982 0.951 . S
C1007 C1005 1.388 . S
C1007 C1008 1.366 . S
C1008 C1007 1.366 . S
C1008 C1009 1.414 . S
C1008 C1011 1.499 . S
C1009 H983 0.950 . S
C1009 C1008 1.414 . S
C1009 C1010 1.374 . S
C1010 H984 0.950 . S
C1010 C1006 1.385 . S
C1010 C1009 1.374 . S
C1011 C1008 1.499 . S
C1011 C1012 1.373 . S
C1011 C1013 1.389 . S
C1012 H985 0.950 . S
C1012 C998 1.377 . S
C1012 C1011 1.373 . S
C1013 C997 1.377 . S
C1013 C1011 1.389 . S
C1013 C1014 1.524 . S
C1014 C1013 1.524 . S
C1014 C1015 1.397 . S
C1014 C1019 1.363 . S
C1015 H986 0.950 . S
C1015 C1014 1.397 . S
C1015 C1016 1.334 . S
C1016 H987 0.950 . S
C1016 C1015 1.334 . S
C1016 C1017 1.287 . S
C1017 C1016 1.287 . S
C1017 C1018 1.524 . S
C1017 H1020 0.999 . S
C1018 H988 0.950 . S
C1018 C1017 1.524 . S
C1018 C1019 1.415 . S
C1019 H989 0.950 . S
C1019 C1014 1.363 . S
C1019 C1018 1.415 . S
H1020 C1017 0.999 . S
H1021 C1002 0.913 . S
H1022 C1040 0.951 . S
H1023 C1042 0.951 . S
H1024 C1044 0.950 . S
H1025 C1045 0.950 . S
H1026 C1047 0.950 . S
H1027 C1050 0.950 . S
H1028 C1051 0.950 . S
H1029 C1053 0.950 . S
H1030 C1054 0.950 . S
H1031 C1055 0.951 . S
H1032 C1057 0.951 . S
H1033 C1059 0.950 . S
H1034 C1060 0.950 . S
H1035 C1062 0.950 . S
H1036 C1065 0.950 . S
H1037 C1066 0.950 . S
H1038 C1068 0.950 . S
H1039 C1069 0.950 . S
C1040 H1022 0.951 . S
C1040 C1041 1.366 . S
C1040 C1042 1.388 . S
C1041 C1040 1.366 . S
C1041 C1045 1.385 . S
C1042 H1023 0.951 . S
C1042 C1040 1.388 . S
C1042 C1043 1.366 . S
C1043 C1042 1.366 . S
C1043 C1044 1.414 . S
C1043 C1046 1.499 . S
C1044 H1024 0.950 . S
C1044 C1043 1.414 . S
C1044 C1045 1.374 . S
C1045 H1025 0.950 . S
C1045 C1041 1.385 . S
C1045 C1044 1.374 . S
C1046 C1043 1.499 . S
C1046 C1047 1.373 . S
C1046 C1048 1.389 . S
C1047 H1026 0.950 . S
C1047 C1046 1.373 . S
C1047 C1063 1.377 . S
C1048 C1046 1.389 . S
C1048 C1049 1.524 . S
C1048 C1062 1.377 . S
C1049 C1048 1.524 . S
C1049 C1050 1.397 . S
C1049 C1054 1.363 . S
C1050 H1027 0.950 . S
C1050 C1049 1.397 . S
C1050 C1051 1.334 . S
C1051 H1028 0.950 . S
C1051 C1050 1.334 . S
C1051 C1052 1.287 . S
C1052 C1051 1.287 . S
C1052 C1053 1.524 . S
C1052 H1071 0.913 . S
C1053 H1029 0.950 . S
C1053 C1052 1.524 . S
C1053 C1054 1.415 . S
C1054 H1030 0.950 . S
C1054 C1049 1.363 . S
C1054 C1053 1.415 . S
C1055 H1031 0.951 . S
C1055 C1056 1.366 . S
C1055 C1057 1.388 . S
C1056 C1055 1.366 . S
C1056 C1060 1.385 . S
C1057 H1032 0.951 . S
C1057 C1055 1.388 . S
C1057 C1058 1.366 . S
C1058 C1057 1.366 . S
C1058 C1059 1.414 . S
C1058 C1061 1.499 . S
C1059 H1033 0.950 . S
C1059 C1058 1.414 . S
C1059 C1060 1.374 . S
C1060 H1034 0.950 . S
C1060 C1056 1.385 . S
C1060 C1059 1.374 . S
C1061 C1058 1.499 . S
C1061 C1062 1.373 . S
C1061 C1063 1.389 . S
C1062 H1035 0.950 . S
C1062 C1048 1.377 . S
C1062 C1061 1.373 . S
C1063 C1047 1.377 . S
C1063 C1061 1.389 . S
C1063 C1064 1.524 . S
C1064 C1063 1.524 . S
C1064 C1065 1.397 . S
C1064 C1069 1.363 . S
C1065 H1036 0.950 . S
C1065 C1064 1.397 . S
C1065 C1066 1.334 . S
C1066 H1037 0.950 . S
C1066 C1065 1.334 . S
C1066 C1067 1.287 . S
C1067 C1066 1.287 . S
C1067 C1068 1.524 . S
C1067 H1070 0.999 . S
C1068 H1038 0.950 . S
C1068 C1067 1.524 . S
C1068 C1069 1.415 . S
C1069 H1039 0.950 . S
C1069 C1064 1.363 . S
C1069 C1068 1.415 . S
H1070 C1067 0.999 . S
H1071 C1052 0.913 . S
H1072 C1090 0.951 . S
H1073 C1092 0.951 . S
H1074 C1094 0.950 . S
H1075 C1095 0.950 . S
H1076 C1097 0.950 . S
H1077 C1100 0.950 . S
H1078 C1101 0.950 . S
H1079 C1103 0.950 . S
H1080 C1104 0.950 . S
H1081 C1105 0.951 . S
H1082 C1107 0.951 . S
H1083 C1109 0.950 . S
H1084 C1110 0.950 . S
H1085 C1112 0.950 . S
H1086 C1115 0.950 . S
H1087 C1116 0.950 . S
H1088 C1118 0.950 . S
H1089 C1119 0.950 . S
C1090 H1072 0.951 . S
C1090 C1091 1.366 . S
C1090 C1092 1.388 . S
C1091 C1090 1.366 . S
C1091 C1095 1.385 . S
C1092 H1073 0.951 . S
C1092 C1090 1.388 . S
C1092 C1093 1.366 . S
C1093 C1092 1.366 . S
C1093 C1094 1.414 . S
C1093 C1096 1.499 . S
C1094 H1074 0.950 . S
C1094 C1093 1.414 . S
C1094 C1095 1.374 . S
C1095 H1075 0.950 . S
C1095 C1091 1.385 . S
C1095 C1094 1.374 . S
C1096 C1093 1.499 . S
C1096 C1097 1.373 . S
C1096 C1098 1.389 . S
C1097 H1076 0.950 . S
C1097 C1096 1.373 . S
C1097 C1113 1.377 . S
C1098 C1096 1.389 . S
C1098 C1099 1.524 . S
C1098 C1112 1.377 . S
C1099 C1098 1.524 . S
C1099 C1100 1.397 . S
C1099 C1104 1.363 . S
C1100 H1077 0.950 . S
C1100 C1099 1.397 . S
C1100 C1101 1.334 . S
C1101 H1078 0.950 . S
C1101 C1100 1.334 . S
C1101 C1102 1.287 . S
C1102 C1101 1.287 . S
C1102 C1103 1.524 . S
C1102 H1121 0.913 . S
C1103 H1079 0.950 . S
C1103 C1102 1.524 . S
C1103 C1104 1.415 . S
C1104 H1080 0.950 . S
C1104 C1099 1.363 . S
C1104 C1103 1.415 . S
C1105 H1081 0.951 . S
C1105 C1106 1.366 . S
C1105 C1107 1.388 . S
C1106 C1105 1.366 . S
C1106 C1110 1.385 . S
C1107 H1082 0.951 . S
C1107 C1105 1.388 . S
C1107 C1108 1.366 . S
C1108 C1107 1.366 . S
C1108 C1109 1.414 . S
C1108 C1111 1.499 . S
C1109 H1083 0.950 . S
C1109 C1108 1.414 . S
C1109 C1110 1.374 . S
C1110 H1084 0.950 . S
C1110 C1106 1.385 . S
C1110 C1109 1.374 . S
C1111 C1108 1.499 . S
C1111 C1112 1.373 . S
C1111 C1113 1.389 . S
C1112 H1085 0.950 . S
C1112 C1098 1.377 . S
C1112 C1111 1.373 . S
C1113 C1097 1.377 . S
C1113 C1111 1.389 . S
C1113 C1114 1.524 . S
C1114 C1113 1.524 . S
C1114 C1115 1.397 . S
C1114 C1119 1.363 . S
C1115 H1086 0.950 . S
C1115 C1114 1.397 . S
C1115 C1116 1.334 . S
C1116 H1087 0.950 . S
C1116 C1115 1.334 . S
C1116 C1117 1.287 . S
C1117 C1116 1.287 . S
C1117 C1118 1.524 . S
C1117 H1120 0.999 . S
C1118 H1088 0.950 . S
C1118 C1117 1.524 . S
C1118 C1119 1.415 . S
C1119 H1089 0.950 . S
C1119 C1114 1.363 . S
C1119 C1118 1.415 . S
H1120 C1117 0.999 . S
H1121 C1102 0.913 . S
H1122 C1140 0.951 . S
H1123 C1142 0.951 . S
H1124 C1144 0.950 . S
H1125 C1145 0.950 . S
H1126 C1147 0.950 . S
H1127 C1150 0.950 . S
H1128 C1151 0.950 . S
H1129 C1153 0.950 . S
H1130 C1154 0.950 . S
H1131 C1155 0.951 . S
H1132 C1157 0.951 . S
H1133 C1159 0.950 . S
H1134 C1160 0.950 . S
H1135 C1162 0.950 . S
H1136 C1165 0.950 . S
H1137 C1166 0.950 . S
H1138 C1168 0.950 . S
H1139 C1169 0.950 . S
C1140 H1122 0.951 . S
C1140 C1141 1.366 . S
C1140 C1142 1.388 . S
C1141 C1140 1.366 . S
C1141 C1145 1.385 . S
C1142 H1123 0.951 . S
C1142 C1140 1.388 . S
C1142 C1143 1.366 . S
C1143 C1142 1.366 . S
C1143 C1144 1.414 . S
C1143 C1146 1.499 . S
C1144 H1124 0.950 . S
C1144 C1143 1.414 . S
C1144 C1145 1.374 . S
C1145 H1125 0.950 . S
C1145 C1141 1.385 . S
C1145 C1144 1.374 . S
C1146 C1143 1.499 . S
C1146 C1147 1.373 . S
C1146 C1148 1.389 . S
C1147 H1126 0.950 . S
C1147 C1146 1.373 . S
C1147 C1163 1.377 . S
C1148 C1146 1.389 . S
C1148 C1149 1.524 . S
C1148 C1162 1.377 . S
C1149 C1148 1.524 . S
C1149 C1150 1.397 . S
C1149 C1154 1.363 . S
C1150 H1127 0.950 . S
C1150 C1149 1.397 . S
C1150 C1151 1.334 . S
C1151 H1128 0.950 . S
C1151 C1150 1.334 . S
C1151 C1152 1.287 . S
C1152 C1151 1.287 . S
C1152 C1153 1.524 . S
C1152 H1171 0.913 . S
C1153 H1129 0.950 . S
C1153 C1152 1.524 . S
C1153 C1154 1.415 . S
C1154 H1130 0.950 . S
C1154 C1149 1.363 . S
C1154 C1153 1.415 . S
C1155 H1131 0.951 . S
C1155 C1156 1.366 . S
C1155 C1157 1.388 . S
C1156 C1155 1.366 . S
C1156 C1160 1.385 . S
C1157 H1132 0.951 . S
C1157 C1155 1.388 . S
C1157 C1158 1.366 . S
C1158 C1157 1.366 . S
C1158 C1159 1.414 . S
C1158 C1161 1.499 . S
C1159 H1133 0.950 . S
C1159 C1158 1.414 . S
C1159 C1160 1.374 . S
C1160 H1134 0.950 . S
C1160 C1156 1.385 . S
C1160 C1159 1.374 . S
C1161 C1158 1.499 . S
C1161 C1162 1.373 . S
C1161 C1163 1.389 . S
C1162 H1135 0.950 . S
C1162 C1148 1.377 . S
C1162 C1161 1.373 . S
C1163 C1147 1.377 . S
C1163 C1161 1.389 . S
C1163 C1164 1.524 . S
C1164 C1163 1.524 . S
C1164 C1165 1.397 . S
C1164 C1169 1.363 . S
C1165 H1136 0.950 . S
C1165 C1164 1.397 . S
C1165 C1166 1.334 . S
C1166 H1137 0.950 . S
C1166 C1165 1.334 . S
C1166 C1167 1.287 . S
C1167 C1166 1.287 . S
C1167 C1168 1.524 . S
C1167 H1170 0.999 . S
C1168 H1138 0.950 . S
C1168 C1167 1.524 . S
C1168 C1169 1.415 . S
C1169 H1139 0.950 . S
C1169 C1164 1.363 . S
C1169 C1168 1.415 . S
H1170 C1167 0.999 . S
H1171 C1152 0.913 . S
H1172 C1190 0.951 . S
H1173 C1192 0.951 . S
H1174 C1194 0.950 . S
H1175 C1195 0.950 . S
H1176 C1197 0.950 . S
H1177 C1200 0.950 . S
H1178 C1201 0.950 . S
H1179 C1203 0.950 . S
H1180 C1204 0.950 . S
H1181 C1205 0.951 . S
H1182 C1207 0.951 . S
H1183 C1209 0.950 . S
H1184 C1210 0.950 . S
H1185 C1212 0.950 . S
H1186 C1215 0.950 . S
H1187 C1216 0.950 . S
H1188 C1218 0.950 . S
H1189 C1219 0.950 . S
C1190 H1172 0.951 . S
C1190 C1191 1.366 . S
C1190 C1192 1.388 . S
C1191 C1190 1.366 . S
C1191 C1195 1.385 . S
C1192 H1173 0.951 . S
C1192 C1190 1.388 . S
C1192 C1193 1.366 . S
C1193 C1192 1.366 . S
C1193 C1194 1.414 . S
C1193 C1196 1.499 . S
C1194 H1174 0.950 . S
C1194 C1193 1.414 . S
C1194 C1195 1.374 . S
C1195 H1175 0.950 . S
C1195 C1191 1.385 . S
C1195 C1194 1.374 . S
C1196 C1193 1.499 . S
C1196 C1197 1.373 . S
C1196 C1198 1.389 . S
C1197 H1176 0.950 . S
C1197 C1196 1.373 . S
C1197 C1213 1.377 . S
C1198 C1196 1.389 . S
C1198 C1199 1.524 . S
C1198 C1212 1.377 . S
C1199 C1198 1.524 . S
C1199 C1200 1.397 . S
C1199 C1204 1.363 . S
C1200 H1177 0.950 . S
C1200 C1199 1.397 . S
C1200 C1201 1.334 . S
C1201 H1178 0.950 . S
C1201 C1200 1.334 . S
C1201 C1202 1.287 . S
C1202 C1201 1.287 . S
C1202 C1203 1.524 . S
C1202 H1221 0.913 . S
C1203 H1179 0.950 . S
C1203 C1202 1.524 . S
C1203 C1204 1.415 . S
C1204 H1180 0.950 . S
C1204 C1199 1.363 . S
C1204 C1203 1.415 . S
C1205 H1181 0.951 . S
C1205 C1206 1.366 . S
C1205 C1207 1.388 . S
C1206 C1205 1.366 . S
C1206 C1210 1.385 . S
C1207 H1182 0.951 . S
C1207 C1205 1.388 . S
C1207 C1208 1.366 . S
C1208 C1207 1.366 . S
C1208 C1209 1.414 . S
C1208 C1211 1.499 . S
C1209 H1183 0.950 . S
C1209 C1208 1.414 . S
C1209 C1210 1.374 . S
C1210 H1184 0.950 . S
C1210 C1206 1.385 . S
C1210 C1209 1.374 . S
C1211 C1208 1.499 . S
C1211 C1212 1.373 . S
C1211 C1213 1.389 . S
C1212 H1185 0.950 . S
C1212 C1198 1.377 . S
C1212 C1211 1.373 . S
C1213 C1197 1.377 . S
C1213 C1211 1.389 . S
C1213 C1214 1.524 . S
C1214 C1213 1.524 . S
C1214 C1215 1.397 . S
C1214 C1219 1.363 . S
C1215 H1186 0.950 . S
C1215 C1214 1.397 . S
C1215 C1216 1.334 . S
C1216 H1187 0.950 . S
C1216 C1215 1.334 . S
C1216 C1217 1.287 . S
C1217 C1216 1.287 . S
C1217 C1218 1.524 . S
C1217 H1220 0.999 . S
C1218 H1188 0.950 . S
C1218 C1217 1.524 . S
C1218 C1219 1.415 . S
C1219 H1189 0.950 . S
C1219 C1214 1.363 . S
C1219 C1218 1.415 . S
H1220 C1217 0.999 . S
H1221 C1202 0.913 . S
H1222 C1240 0.951 . S
H1223 C1242 0.951 . S
H1224 C1244 0.950 . S
H1225 C1245 0.950 . S
H1226 C1247 0.950 . S
H1227 C1250 0.950 . S
H1228 C1251 0.950 . S
H1229 C1253 0.950 . S
H1230 C1254 0.950 . S
H1231 C1255 0.951 . S
H1232 C1257 0.951 . S
H1233 C1259 0.950 . S
H1234 C1260 0.950 . S
H1235 C1262 0.950 . S
H1236 C1265 0.950 . S
H1237 C1266 0.950 . S
H1238 C1268 0.950 . S
H1239 C1269 0.950 . S
C1240 H1222 0.951 . S
C1240 C1241 1.366 . S
C1240 C1242 1.388 . S
C1241 C1240 1.366 . S
C1241 C1245 1.385 . S
C1242 H1223 0.951 . S
C1242 C1240 1.388 . S
C1242 C1243 1.366 . S
C1243 C1242 1.366 . S
C1243 C1244 1.414 . S
C1243 C1246 1.499 . S
C1244 H1224 0.950 . S
C1244 C1243 1.414 . S
C1244 C1245 1.374 . S
C1245 H1225 0.950 . S
C1245 C1241 1.385 . S
C1245 C1244 1.374 . S
C1246 C1243 1.499 . S
C1246 C1247 1.373 . S
C1246 C1248 1.389 . S
C1247 H1226 0.950 . S
C1247 C1246 1.373 . S
C1247 C1263 1.377 . S
C1248 C1246 1.389 . S
C1248 C1249 1.524 . S
C1248 C1262 1.377 . S
C1249 C1248 1.524 . S
C1249 C1250 1.397 . S
C1249 C1254 1.363 . S
C1250 H1227 0.950 . S
C1250 C1249 1.397 . S
C1250 C1251 1.334 . S
C1251 H1228 0.950 . S
C1251 C1250 1.334 . S
C1251 C1252 1.287 . S
C1252 C1251 1.287 . S
C1252 C1253 1.524 . S
C1252 H1271 0.913 . S
C1253 H1229 0.950 . S
C1253 C1252 1.524 . S
C1253 C1254 1.415 . S
C1254 H1230 0.950 . S
C1254 C1249 1.363 . S
C1254 C1253 1.415 . S
C1255 H1231 0.951 . S
C1255 C1256 1.366 . S
C1255 C1257 1.388 . S
C1256 C1255 1.366 . S
C1256 C1260 1.385 . S
C1257 H1232 0.951 . S
C1257 C1255 1.388 . S
C1257 C1258 1.366 . S
C1258 C1257 1.366 . S
C1258 C1259 1.414 . S
C1258 C1261 1.499 . S
C1259 H1233 0.950 . S
C1259 C1258 1.414 . S
C1259 C1260 1.374 . S
C1260 H1234 0.950 . S
C1260 C1256 1.385 . S
C1260 C1259 1.374 . S
C1261 C1258 1.499 . S
C1261 C1262 1.373 . S
C1261 C1263 1.389 . S
C1262 H1235 0.950 . S
C1262 C1248 1.377 . S
C1262 C1261 1.373 . S
C1263 C1247 1.377 . S
C1263 C1261 1.389 . S
C1263 C1264 1.524 . S
C1264 C1263 1.524 . S
C1264 C1265 1.397 . S
C1264 C1269 1.363 . S
C1265 H1236 0.950 . S
C1265 C1264 1.397 . S
C1265 C1266 1.334 . S
C1266 H1237 0.950 . S
C1266 C1265 1.334 . S
C1266 C1267 1.287 . S
C1267 C1266 1.287 . S
C1267 C1268 1.524 . S
C1267 H1270 0.999 . S
C1268 H1238 0.950 . S
C1268 C1267 1.524 . S
C1268 C1269 1.415 . S
C1269 H1239 0.950 . S
C1269 C1264 1.363 . S
C1269 C1268 1.415 . S
H1270 C1267 0.999 . S
H1271 C1252 0.913 . S
H1272 C1290 0.951 . S
H1273 C1292 0.951 . S
H1274 C1294 0.950 . S
H1275 C1295 0.950 . S
H1276 C1297 0.950 . S
H1277 C1300 0.950 . S
H1278 C1301 0.950 . S
H1279 C1303 0.950 . S
H1280 C1304 0.950 . S
H1281 C1305 0.951 . S
H1282 C1307 0.951 . S
H1283 C1309 0.950 . S
H1284 C1310 0.950 . S
H1285 C1312 0.950 . S
H1286 C1315 0.950 . S
H1287 C1316 0.950 . S
H1288 C1318 0.950 . S
H1289 C1319 0.950 . S
C1290 H1272 0.951 . S
C1290 C1291 1.366 . S
C1290 C1292 1.388 . S
C1291 C1290 1.366 . S
C1291 C1295 1.385 . S
C1292 H1273 0.951 . S
C1292 C1290 1.388 . S
C1292 C1293 1.366 . S
C1293 C1292 1.366 . S
C1293 C1294 1.414 . S
C1293 C1296 1.499 . S
C1294 H1274 0.950 . S
C1294 C1293 1.414 . S
C1294 C1295 1.374 . S
C1295 H1275 0.950 . S
C1295 C1291 1.385 . S
C1295 C1294 1.374 . S
C1296 C1293 1.499 . S
C1296 C1297 1.373 . S
C1296 C1298 1.389 . S
C1297 H1276 0.950 . S
C1297 C1296 1.373 . S
C1297 C1313 1.377 . S
C1298 C1296 1.389 . S
C1298 C1299 1.524 . S
C1298 C1312 1.377 . S
C1299 C1298 1.524 . S
C1299 C1300 1.397 . S
C1299 C1304 1.363 . S
C1300 H1277 0.950 . S
C1300 C1299 1.397 . S
C1300 C1301 1.334 . S
C1301 H1278 0.950 . S
C1301 C1300 1.334 . S
C1301 C1302 1.287 . S
C1302 C1301 1.287 . S
C1302 C1303 1.524 . S
C1302 H1321 0.913 . S
C1303 H1279 0.950 . S
C1303 C1302 1.524 . S
C1303 C1304 1.415 . S
C1304 H1280 0.950 . S
C1304 C1299 1.363 . S
C1304 C1303 1.415 . S
C1305 H1281 0.951 . S
C1305 C1306 1.366 . S
C1305 C1307 1.388 . S
C1306 C1305 1.366 . S
C1306 C1310 1.385 . S
C1307 H1282 0.951 . S
C1307 C1305 1.388 . S
C1307 C1308 1.366 . S
C1308 C1307 1.366 . S
C1308 C1309 1.414 . S
C1308 C1311 1.499 . S
C1309 H1283 0.950 . S
C1309 C1308 1.414 . S
C1309 C1310 1.374 . S
C1310 H1284 0.950 . S
C1310 C1306 1.385 . S
C1310 C1309 1.374 . S
C1311 C1308 1.499 . S
C1311 C1312 1.373 . S
C1311 C1313 1.389 . S
C1312 H1285 0.950 . S
C1312 C1298 1.377 . S
C1312 C1311 1.373 . S
C1313 C1297 1.377 . S
C1313 C1311 1.389 . S
C1313 C1314 1.524 . S
C1314 C1313 1.524 . S
C1314 C1315 1.397 . S
C1314 C1319 1.363 . S
C1315 H1286 0.950 . S
C1315 C1314 1.397 . S
C1315 C1316 1.334 . S
C1316 H1287 0.950 . S
C1316 C1315 1.334 . S
C1316 C1317 1.287 . S
C1317 C1316 1.287 . S
C1317 C1318 1.524 . S
C1317 H1320 0.999 . S
C1318 H1288 0.950 . S
C1318 C1317 1.524 . S
C1318 C1319 1.415 . S
C1319 H1289 0.950 . S
C1319 C1314 1.363 . S
C1319 C1318 1.415 . S
H1320 C1317 0.999 . S
H1321 C1302 0.913 . S
H1322 C1340 0.951 . S
H1323 C1342 0.951 . S
H1324 C1344 0.950 . S
H1325 C1345 0.950 . S
H1326 C1347 0.950 . S
H1327 C1350 0.950 . S
H1328 C1351 0.950 . S
H1329 C1353 0.950 . S
H1330 C1354 0.950 . S
H1331 C1355 0.951 . S
H1332 C1357 0.951 . S
H1333 C1359 0.950 . S
H1334 C1360 0.950 . S
H1335 C1362 0.950 . S
H1336 C1365 0.950 . S
H1337 C1366 0.950 . S
H1338 C1368 0.950 . S
H1339 C1369 0.950 . S
C1340 H1322 0.951 . S
C1340 C1341 1.366 . S
C1340 C1342 1.388 . S
C1341 C1340 1.366 . S
C1341 C1345 1.385 . S
C1342 H1323 0.951 . S
C1342 C1340 1.388 . S
C1342 C1343 1.366 . S
C1343 C1342 1.366 . S
C1343 C1344 1.414 . S
C1343 C1346 1.499 . S
C1344 H1324 0.950 . S
C1344 C1343 1.414 . S
C1344 C1345 1.374 . S
C1345 H1325 0.950 . S
C1345 C1341 1.385 . S
C1345 C1344 1.374 . S
C1346 C1343 1.499 . S
C1346 C1347 1.373 . S
C1346 C1348 1.389 . S
C1347 H1326 0.950 . S
C1347 C1346 1.373 . S
C1347 C1363 1.377 . S
C1348 C1346 1.389 . S
C1348 C1349 1.524 . S
C1348 C1362 1.377 . S
C1349 C1348 1.524 . S
C1349 C1350 1.397 . S
C1349 C1354 1.363 . S
C1350 H1327 0.950 . S
C1350 C1349 1.397 . S
C1350 C1351 1.334 . S
C1351 H1328 0.950 . S
C1351 C1350 1.334 . S
C1351 C1352 1.287 . S
C1352 C1351 1.287 . S
C1352 C1353 1.524 . S
C1352 H1371 0.913 . S
C1353 H1329 0.950 . S
C1353 C1352 1.524 . S
C1353 C1354 1.415 . S
C1354 H1330 0.950 . S
C1354 C1349 1.363 . S
C1354 C1353 1.415 . S
C1355 H1331 0.951 . S
C1355 C1356 1.366 . S
C1355 C1357 1.388 . S
C1356 C1355 1.366 . S
C1356 C1360 1.385 . S
C1357 H1332 0.951 . S
C1357 C1355 1.388 . S
C1357 C1358 1.366 . S
C1358 C1357 1.366 . S
C1358 C1359 1.414 . S
C1358 C1361 1.499 . S
C1359 H1333 0.950 . S
C1359 C1358 1.414 . S
C1359 C1360 1.374 . S
C1360 H1334 0.950 . S
C1360 C1356 1.385 . S
C1360 C1359 1.374 . S
C1361 C1358 1.499 . S
C1361 C1362 1.373 . S
C1361 C1363 1.389 . S
C1362 H1335 0.950 . S
C1362 C1348 1.377 . S
C1362 C1361 1.373 . S
C1363 C1347 1.377 . S
C1363 C1361 1.389 . S
C1363 C1364 1.524 . S
C1364 C1363 1.524 . S
C1364 C1365 1.397 . S
C1364 C1369 1.363 . S
C1365 H1336 0.950 . S
C1365 C1364 1.397 . S
C1365 C1366 1.334 . S
C1366 H1337 0.950 . S
C1366 C1365 1.334 . S
C1366 C1367 1.287 . S
C1367 C1366 1.287 . S
C1367 C1368 1.524 . S
C1367 H1370 0.999 . S
C1368 H1338 0.950 . S
C1368 C1367 1.524 . S
C1368 C1369 1.415 . S
C1369 H1339 0.950 . S
C1369 C1364 1.363 . S
C1369 C1368 1.415 . S
H1370 C1367 0.999 . S
H1371 C1352 0.913 . S
H1372 C1390 0.951 . S
H1373 C1392 0.951 . S
H1374 C1394 0.950 . S
H1375 C1395 0.950 . S
H1376 C1397 0.950 . S
H1377 C1400 0.950 . S
H1378 C1401 0.950 . S
H1379 C1403 0.950 . S
H1380 C1404 0.950 . S
H1381 C1405 0.951 . S
H1382 C1407 0.951 . S
H1383 C1409 0.950 . S
H1384 C1410 0.950 . S
H1385 C1412 0.950 . S
H1386 C1415 0.950 . S
H1387 C1416 0.950 . S
H1388 C1418 0.950 . S
H1389 C1419 0.950 . S
C1390 H1372 0.951 . S
C1390 C1391 1.366 . S
C1390 C1392 1.388 . S
C1391 C1390 1.366 . S
C1391 C1395 1.385 . S
C1392 H1373 0.951 . S
C1392 C1390 1.388 . S
C1392 C1393 1.366 . S
C1393 C1392 1.366 . S
C1393 C1394 1.414 . S
C1393 C1396 1.499 . S
C1394 H1374 0.950 . S
C1394 C1393 1.414 . S
C1394 C1395 1.374 . S
C1395 H1375 0.950 . S
C1395 C1391 1.385 . S
C1395 C1394 1.374 . S
C1396 C1393 1.499 . S
C1396 C1397 1.373 . S
C1396 C1398 1.389 . S
C1397 H1376 0.950 . S
C1397 C1396 1.373 . S
C1397 C1413 1.377 . S
C1398 C1396 1.389 . S
C1398 C1399 1.524 . S
C1398 C1412 1.377 . S
C1399 C1398 1.524 . S
C1399 C1400 1.397 . S
C1399 C1404 1.363 . S
C1400 H1377 0.950 . S
C1400 C1399 1.397 . S
C1400 C1401 1.334 . S
C1401 H1378 0.950 . S
C1401 C1400 1.334 . S
C1401 C1402 1.287 . S
C1402 C1401 1.287 . S
C1402 C1403 1.524 . S
C1402 H1421 0.913 . S
C1403 H1379 0.950 . S
C1403 C1402 1.524 . S
C1403 C1404 1.415 . S
C1404 H1380 0.950 . S
C1404 C1399 1.363 . S
C1404 C1403 1.415 . S
C1405 H1381 0.951 . S
C1405 C1406 1.366 . S
C1405 C1407 1.388 . S
C1406 C1405 1.366 . S
C1406 C1410 1.385 . S
C1407 H1382 0.951 . S
C1407 C1405 1.388 . S
C1407 C1408 1.366 . S
C1408 C1407 1.366 . S
C1408 C1409 1.414 . S
C1408 C1411 1.499 . S
C1409 H1383 0.950 . S
C1409 C1408 1.414 . S
C1409 C1410 1.374 . S
C1410 H1384 0.950 . S
C1410 C1406 1.385 . S
C1410 C1409 1.374 . S
C1411 C1408 1.499 . S
C1411 C1412 1.373 . S
C1411 C1413 1.389 . S
C1412 H1385 0.950 . S
C1412 C1398 1.377 . S
C1412 C1411 1.373 . S
C1413 C1397 1.377 . S
C1413 C1411 1.389 . S
C1413 C1414 1.524 . S
C1414 C1413 1.524 . S
C1414 C1415 1.397 . S
C1414 C1419 1.363 . S
C1415 H1386 0.950 . S
C1415 C1414 1.397 . S
C1415 C1416 1.334 . S
C1416 H1387 0.950 . S
C1416 C1415 1.334 . S
C1416 C1417 1.287 . S
C1417 C1416 1.287 . S
C1417 C1418 1.524 . S
C1417 H1420 0.999 . S
C1418 H1388 0.950 . S
C1418 C1417 1.524 . S
C1418 C1419 1.415 . S
C1419 H1389 0.950 . S
C1419 C1414 1.363 . S
C1419 C1418 1.415 . S
H1420 C1417 0.999 . S
H1421 C1402 0.913 . S
H1422 C1440 0.951 . S
H1423 C1442 0.951 . S
H1424 C1444 0.950 . S
H1425 C1445 0.950 . S
H1426 C1447 0.950 . S
H1427 C1450 0.950 . S
H1428 C1451 0.950 . S
H1429 C1453 0.950 . S
H1430 C1454 0.950 . S
H1431 C1455 0.951 . S
H1432 C1457 0.951 . S
H1433 C1459 0.950 . S
H1434 C1460 0.950 . S
H1435 C1462 0.950 . S
H1436 C1465 0.950 . S
H1437 C1466 0.950 . S
H1438 C1468 0.950 . S
H1439 C1469 0.950 . S
C1440 H1422 0.951 . S
C1440 C1441 1.366 . S
C1440 C1442 1.388 . S
C1441 C1440 1.366 . S
C1441 C1445 1.385 . S
C1442 H1423 0.951 . S
C1442 C1440 1.388 . S
C1442 C1443 1.366 . S
C1443 C1442 1.366 . S
C1443 C1444 1.414 . S
C1443 C1446 1.499 . S
C1444 H1424 0.950 . S
C1444 C1443 1.414 . S
C1444 C1445 1.374 . S
C1445 H1425 0.950 . S
C1445 C1441 1.385 . S
C1445 C1444 1.374 . S
C1446 C1443 1.499 . S
C1446 C1447 1.373 . S
C1446 C1448 1.389 . S
C1447 H1426 0.950 . S
C1447 C1446 1.373 . S
C1447 C1463 1.377 . S
C1448 C1446 1.389 . S
C1448 C1449 1.524 . S
C1448 C1462 1.377 . S
C1449 C1448 1.524 . S
C1449 C1450 1.397 . S
C1449 C1454 1.363 . S
C1450 H1427 0.950 . S
C1450 C1449 1.397 . S
C1450 C1451 1.334 . S
C1451 H1428 0.950 . S
C1451 C1450 1.334 . S
C1451 C1452 1.287 . S
C1452 C1451 1.287 . S
C1452 C1453 1.524 . S
C1452 H1471 0.913 . S
C1453 H1429 0.950 . S
C1453 C1452 1.524 . S
C1453 C1454 1.415 . S
C1454 H1430 0.950 . S
C1454 C1449 1.363 . S
C1454 C1453 1.415 . S
C1455 H1431 0.951 . S
C1455 C1456 1.366 . S
C1455 C1457 1.388 . S
C1456 C1455 1.366 . S
C1456 C1460 1.385 . S
C1457 H1432 0.951 . S
C1457 C1455 1.388 . S
C1457 C1458 1.366 . S
C1458 C1457 1.366 . S
C1458 C1459 1.414 . S
C1458 C1461 1.499 . S
C1459 H1433 0.950 . S
C1459 C1458 1.414 . S
C1459 C1460 1.374 . S
C1460 H1434 0.950 . S
C1460 C1456 1.385 . S
C1460 C1459 1.374 . S
C1461 C1458 1.499 . S
C1461 C1462 1.373 . S
C1461 C1463 1.389 . S
C1462 H1435 0.950 . S
C1462 C1448 1.377 . S
C1462 C1461 1.373 . S
C1463 C1447 1.377 . S
C1463 C1461 1.389 . S
C1463 C1464 1.524 . S
C1464 C1463 1.524 . S
C1464 C1465 1.397 . S
C1464 C1469 1.363 . S
C1465 H1436 0.950 . S
C1465 C1464 1.397 . S
C1465 C1466 1.334 . S
C1466 H1437 0.950 . S
C1466 C1465 1.334 . S
C1466 C1467 1.287 . S
C1467 C1466 1.287 . S
C1467 C1468 1.524 . S
C1467 H1470 0.999 . S
C1468 H1438 0.950 . S
C1468 C1467 1.524 . S
C1468 C1469 1.415 . S
C1469 H1439 0.950 . S
C1469 C1464 1.363 . S
C1469 C1468 1.415 . S
H1470 C1467 0.999 . S
H1471 C1452 0.913 . S
H1472 C1490 0.951 . S
H1473 C1492 0.951 . S
H1474 C1494 0.950 . S
H1475 C1495 0.950 . S
H1476 C1497 0.950 . S
H1477 C1500 0.950 . S
H1478 C1501 0.950 . S
H1479 C1503 0.950 . S
H1480 C1504 0.950 . S
H1481 C1505 0.951 . S
H1482 C1507 0.951 . S
H1483 C1509 0.950 . S
H1484 C1510 0.950 . S
H1485 C1512 0.950 . S
H1486 C1515 0.950 . S
H1487 C1516 0.950 . S
H1488 C1518 0.950 . S
H1489 C1519 0.950 . S
C1490 H1472 0.951 . S
C1490 C1491 1.366 . S
C1490 C1492 1.388 . S
C1491 C1490 1.366 . S
C1491 C1495 1.385 . S
C1492 H1473 0.951 . S
C1492 C1490 1.388 . S
C1492 C1493 1.366 . S
C1493 C1492 1.366 . S
C1493 C1494 1.414 . S
C1493 C1496 1.499 . S
C1494 H1474 0.950 . S
C1494 C1493 1.414 . S
C1494 C1495 1.374 . S
C1495 H1475 0.950 . S
C1495 C1491 1.385 . S
C1495 C1494 1.374 . S
C1496 C1493 1.499 . S
C1496 C1497 1.373 . S
C1496 C1498 1.389 . S
C1497 H1476 0.950 . S
C1497 C1496 1.373 . S
C1497 C1513 1.377 . S
C1498 C1496 1.389 . S
C1498 C1499 1.524 . S
C1498 C1512 1.377 . S
C1499 C1498 1.524 . S
C1499 C1500 1.397 . S
C1499 C1504 1.363 . S
C1500 H1477 0.950 . S
C1500 C1499 1.397 . S
C1500 C1501 1.334 . S
C1501 H1478 0.950 . S
C1501 C1500 1.334 . S
C1501 C1502 1.287 . S
C1502 C1501 1.287 . S
C1502 C1503 1.524 . S
C1502 H1521 0.913 . S
C1503 H1479 0.950 . S
C1503 C1502 1.524 . S
C1503 C1504 1.415 . S
C1504 H1480 0.950 . S
C1504 C1499 1.363 . S
C1504 C1503 1.415 . S
C1505 H1481 0.951 . S
C1505 C1506 1.366 . S
C1505 C1507 1.388 . S
C1506 C1505 1.366 . S
C1506 C1510 1.385 . S
C1507 H1482 0.951 . S
C1507 C1505 1.388 . S
C1507 C1508 1.366 . S
C1508 C1507 1.366 . S
C1508 C1509 1.414 . S
C1508 C1511 1.499 . S
C1509 H1483 0.950 . S
C1509 C1508 1.414 . S
C1509 C1510 1.374 . S
C1510 H1484 0.950 . S
C1510 C1506 1.385 . S
C1510 C1509 1.374 . S
C1511 C1508 1.499 . S
C1511 C1512 1.373 . S
C1511 C1513 1.389 . S
C1512 H1485 0.950 . S
C1512 C1498 1.377 . S
C1512 C1511 1.373 . S
C1513 C1497 1.377 . S
C1513 C1511 1.389 . S
C1513 C1514 1.524 . S
C1514 C1513 1.524 . S
C1514 C1515 1.397 . S
C1514 C1519 1.363 . S
C1515 H1486 0.950 . S
C1515 C1514 1.397 . S
C1515 C1516 1.334 . S
C1516 H1487 0.950 . S
C1516 C1515 1.334 . S
C1516 C1517 1.287 . S
C1517 C1516 1.287 . S
C1517 C1518 1.524 . S
C1517 H1520 0.999 . S
C1518 H1488 0.950 . S
C1518 C1517 1.524 . S
C1518 C1519 1.415 . S
C1519 H1489 0.950 . S
C1519 C1514 1.363 . S
C1519 C1518 1.415 . S
H1520 C1517 0.999 . S
H1521 C1502 0.913 . S
H1522 C1540 0.951 . S
H1523 C1542 0.951 . S
H1524 C1544 0.950 . S
H1525 C1545 0.950 . S
H1526 C1547 0.950 . S
H1527 C1550 0.950 . S
H1528 C1551 0.950 . S
H1529 C1553 0.950 . S
H1530 C1554 0.950 . S
H1531 C1555 0.951 . S
H1532 C1557 0.951 . S
H1533 C1559 0.950 . S
H1534 C1560 0.950 . S
H1535 C1562 0.950 . S
H1536 C1565 0.950 . S
H1537 C1566 0.950 . S
H1538 C1568 0.950 . S
H1539 C1569 0.950 . S
C1540 H1522 0.951 . S
C1540 C1541 1.366 . S
C1540 C1542 1.388 . S
C1541 C1540 1.366 . S
C1541 C1545 1.385 . S
C1542 H1523 0.951 . S
C1542 C1540 1.388 . S
C1542 C1543 1.366 . S
C1543 C1542 1.366 . S
C1543 C1544 1.414 . S
C1543 C1546 1.499 . S
C1544 H1524 0.950 . S
C1544 C1543 1.414 . S
C1544 C1545 1.374 . S
C1545 H1525 0.950 . S
C1545 C1541 1.385 . S
C1545 C1544 1.374 . S
C1546 C1543 1.499 . S
C1546 C1547 1.373 . S
C1546 C1548 1.389 . S
C1547 H1526 0.950 . S
C1547 C1546 1.373 . S
C1547 C1563 1.377 . S
C1548 C1546 1.389 . S
C1548 C1549 1.524 . S
C1548 C1562 1.377 . S
C1549 C1548 1.524 . S
C1549 C1550 1.397 . S
C1549 C1554 1.363 . S
C1550 H1527 0.950 . S
C1550 C1549 1.397 . S
C1550 C1551 1.334 . S
C1551 H1528 0.950 . S
C1551 C1550 1.334 . S
C1551 C1552 1.287 . S
C1552 C1551 1.287 . S
C1552 C1553 1.524 . S
C1552 H1571 0.913 . S
C1553 H1529 0.950 . S
C1553 C1552 1.524 . S
C1553 C1554 1.415 . S
C1554 H1530 0.950 . S
C1554 C1549 1.363 . S
C1554 C1553 1.415 . S
C1555 H1531 0.951 . S
C1555 C1556 1.366 . S
C1555 C1557 1.388 . S
C1556 C1555 1.366 . S
C1556 C1560 1.385 . S
C1557 H1532 0.951 . S
C1557 C1555 1.388 . S
C1557 C1558 1.366 . S
C1558 C1557 1.366 . S
C1558 C1559 1.414 . S
C1558 C1561 1.499 . S
C1559 H1533 0.950 . S
C1559 C1558 1.414 . S
C1559 C1560 1.374 . S
C1560 H1534 0.950 . S
C1560 C1556 1.385 . S
C1560 C1559 1.374 . S
C1561 C1558 1.499 . S
C1561 C1562 1.373 . S
C1561 C1563 1.389 . S
C1562 H1535 0.950 . S
C1562 C1548 1.377 . S
C1562 C1561 1.373 . S
C1563 C1547 1.377 . S
C1563 C1561 1.389 . S
C1563 C1564 1.524 . S
C1564 C1563 1.524 . S
C1564 C1565 1.397 . S
C1564 C1569 1.363 . S
C1565 H1536 0.950 . S
C1565 C1564 1.397 . S
C1565 C1566 1.334 . S
C1566 H1537 0.950 . S
C1566 C1565 1.334 . S
C1566 C1567 1.287 . S
C1567 C1566 1.287 . S
C1567 C1568 1.524 . S
C1567 H1570 0.999 . S
C1568 H1538 0.950 . S
C1568 C1567 1.524 . S
C1568 C1569 1.415 . S
C1569 H1539 0.950 . S
C1569 C1564 1.363 . S
C1569 C1568 1.415 . S
H1570 C1567 0.999 . S
H1571 C1552 0.913 . S
H1572 C1590 0.951 . S
H1573 C1592 0.951 . S
H1574 C1594 0.950 . S
H1575 C1595 0.950 . S
H1576 C1597 0.950 . S
H1577 C1600 0.950 . S
H1578 C1601 0.950 . S
H1579 C1603 0.950 . S
H1580 C1604 0.950 . S
H1581 C1605 0.951 . S
H1582 C1607 0.951 . S
H1583 C1609 0.950 . S
H1584 C1610 0.950 . S
H1585 C1612 0.950 . S
H1586 C1615 0.950 . S
H1587 C1616 0.950 . S
H1588 C1618 0.950 . S
H1589 C1619 0.950 . S
C1590 H1572 0.951 . S
C1590 C1591 1.366 . S
C1590 C1592 1.388 . S
C1591 C1590 1.366 . S
C1591 C1595 1.385 . S
C1592 H1573 0.951 . S
C1592 C1590 1.388 . S
C1592 C1593 1.366 . S
C1593 C1592 1.366 . S
C1593 C1594 1.414 . S
C1593 C1596 1.499 . S
C1594 H1574 0.950 . S
C1594 C1593 1.414 . S
C1594 C1595 1.374 . S
C1595 H1575 0.950 . S
C1595 C1591 1.385 . S
C1595 C1594 1.374 . S
C1596 C1593 1.499 . S
C1596 C1597 1.373 . S
C1596 C1598 1.389 . S
C1597 H1576 0.950 . S
C1597 C1596 1.373 . S
C1597 C1613 1.377 . S
C1598 C1596 1.389 . S
C1598 C1599 1.524 . S
C1598 C1612 1.377 . S
C1599 C1598 1.524 . S
C1599 C1600 1.397 . S
C1599 C1604 1.363 . S
C1600 H1577 0.950 . S
C1600 C1599 1.397 . S
C1600 C1601 1.334 . S
C1601 H1578 0.950 . S
C1601 C1600 1.334 . S
C1601 C1602 1.287 . S
C1602 C1601 1.287 . S
C1602 C1603 1.524 . S
C1602 H1621 0.913 . S
C1603 H1579 0.950 . S
C1603 C1602 1.524 . S
C1603 C1604 1.415 . S
C1604 H1580 0.950 . S
C1604 C1599 1.363 . S
C1604 C1603 1.415 . S
C1605 H1581 0.951 . S
C1605 C1606 1.366 . S
C1605 C1607 1.388 . S
C1606 C1605 1.366 . S
C1606 C1610 1.385 . S
C1607 H1582 0.951 . S
C1607 C1605 1.388 . S
C1607 C1608 1.366 . S
C1608 C1607 1.366 . S
C1608 C1609 1.414 . S
C1608 C1611 1.499 . S
C1609 H1583 0.950 . S
C1609 C1608 1.414 . S
C1609 C1610 1.374 . S
C1610 H1584 0.950 . S
C1610 C1606 1.385 . S
C1610 C1609 1.374 . S
C1611 C1608 1.499 . S
C1611 C1612 1.373 . S
C1611 C1613 1.389 . S
C1612 H1585 0.950 . S
C1612 C1598 1.377 . S
C1612 C1611 1.373 . S
C1613 C1597 1.377 . S
C1613 C1611 1.389 . S
C1613 C1614 1.524 . S
C1614 C1613 1.524 . S
C1614 C1615 1.397 . S
C1614 C1619 1.363 . S
C1615 H1586 0.950 . S
C1615 C1614 1.397 . S
C1615 C1616 1.334 . S
C1616 H1587 0.950 . S
C1616 C1615 1.334 . S
C1616 C1617 1.287 . S
C1617 C1616 1.287 . S
C1617 C1618 1.524 . S
C1617 H1620 0.999 . S
C1618 H1588 0.950 . S
C1618 C1617 1.524 . S
C1618 C1619 1.415 . S
C1619 H1589 0.950 . S
C1619 C1614 1.363 . S
C1619 C1618 1.415 . S
H1620 C1617 0.999 . S
H1621 C1602 0.913 . S
H1622 C1640 0.951 . S
H1623 C1642 0.951 . S
H1624 C1644 0.950 . S
H1625 C1645 0.950 . S
H1626 C1647 0.950 . S
H1627 C1650 0.950 . S
H1628 C1651 0.950 . S
H1629 C1653 0.950 . S
H1630 C1654 0.950 . S
H1631 C1655 0.951 . S
H1632 C1657 0.951 . S
H1633 C1659 0.950 . S
H1634 C1660 0.950 . S
H1635 C1662 0.950 . S
H1636 C1665 0.950 . S
H1637 C1666 0.950 . S
H1638 C1668 0.950 . S
H1639 C1669 0.950 . S
C1640 H1622 0.951 . S
C1640 C1641 1.366 . S
C1640 C1642 1.388 . S
C1641 C1640 1.366 . S
C1641 C1645 1.385 . S
C1642 H1623 0.951 . S
C1642 C1640 1.388 . S
C1642 C1643 1.366 . S
C1643 C1642 1.366 . S
C1643 C1644 1.414 . S
C1643 C1646 1.499 . S
C1644 H1624 0.950 . S
C1644 C1643 1.414 . S
C1644 C1645 1.374 . S
C1645 H1625 0.950 . S
C1645 C1641 1.385 . S
C1645 C1644 1.374 . S
C1646 C1643 1.499 . S
C1646 C1647 1.373 . S
C1646 C1648 1.389 . S
C1647 H1626 0.950 . S
C1647 C1646 1.373 . S
C1647 C1663 1.377 . S
C1648 C1646 1.389 . S
C1648 C1649 1.524 . S
C1648 C1662 1.377 . S
C1649 C1648 1.524 . S
C1649 C1650 1.397 . S
C1649 C1654 1.363 . S
C1650 H1627 0.950 . S
C1650 C1649 1.397 . S
C1650 C1651 1.334 . S
C1651 H1628 0.950 . S
C1651 C1650 1.334 . S
C1651 C1652 1.287 . S
C1652 C1651 1.287 . S
C1652 C1653 1.524 . S
C1652 H1671 0.913 . S
C1653 H1629 0.950 . S
C1653 C1652 1.524 . S
C1653 C1654 1.415 . S
C1654 H1630 0.950 . S
C1654 C1649 1.363 . S
C1654 C1653 1.415 . S
C1655 H1631 0.951 . S
C1655 C1656 1.366 . S
C1655 C1657 1.388 . S
C1656 C1655 1.366 . S
C1656 C1660 1.385 . S
C1657 H1632 0.951 . S
C1657 C1655 1.388 . S
C1657 C1658 1.366 . S
C1658 C1657 1.366 . S
C1658 C1659 1.414 . S
C1658 C1661 1.499 . S
C1659 H1633 0.950 . S
C1659 C1658 1.414 . S
C1659 C1660 1.374 . S
C1660 H1634 0.950 . S
C1660 C1656 1.385 . S
C1660 C1659 1.374 . S
C1661 C1658 1.499 . S
C1661 C1662 1.373 . S
C1661 C1663 1.389 . S
C1662 H1635 0.950 . S
C1662 C1648 1.377 . S
C1662 C1661 1.373 . S
C1663 C1647 1.377 . S
C1663 C1661 1.389 . S
C1663 C1664 1.524 . S
C1664 C1663 1.524 . S
C1664 C1665 1.397 . S
C1664 C1669 1.363 . S
C1665 H1636 0.950 . S
C1665 C1664 1.397 . S
C1665 C1666 1.334 . S
C1666 H1637 0.950 . S
C1666 C1665 1.334 . S
C1666 C1667 1.287 . S
C1667 C1666 1.287 . S
C1667 C1668 1.524 . S
C1667 H1670 0.999 . S
C1668 H1638 0.950 . S
C1668 C1667 1.524 . S
C1668 C1669 1.415 . S
C1669 H1639 0.950 . S
C1669 C1664 1.363 . S
C1669 C1668 1.415 . S
H1670 C1667 0.999 . S
H1671 C1652 0.913 . S
H1672 C1690 0.951 . S
H1673 C1692 0.951 . S
H1674 C1694 0.950 . S
H1675 C1695 0.950 . S
H1676 C1697 0.950 . S
H1677 C1700 0.950 . S
H1678 C1701 0.950 . S
H1679 C1703 0.950 . S
H1680 C1704 0.950 . S
H1681 C1705 0.951 . S
H1682 C1707 0.951 . S
H1683 C1709 0.950 . S
H1684 C1710 0.950 . S
H1685 C1712 0.950 . S
H1686 C1715 0.950 . S
H1687 C1716 0.950 . S
H1688 C1718 0.950 . S
H1689 C1719 0.950 . S
C1690 H1672 0.951 . S
C1690 C1691 1.366 . S
C1690 C1692 1.388 . S
C1691 C1690 1.366 . S
C1691 C1695 1.385 . S
C1692 H1673 0.951 . S
C1692 C1690 1.388 . S
C1692 C1693 1.366 . S
C1693 C1692 1.366 . S
C1693 C1694 1.414 . S
C1693 C1696 1.499 . S
C1694 H1674 0.950 . S
C1694 C1693 1.414 . S
C1694 C1695 1.374 . S
C1695 H1675 0.950 . S
C1695 C1691 1.385 . S
C1695 C1694 1.374 . S
C1696 C1693 1.499 . S
C1696 C1697 1.373 . S
C1696 C1698 1.389 . S
C1697 H1676 0.950 . S
C1697 C1696 1.373 . S
C1697 C1713 1.377 . S
C1698 C1696 1.389 . S
C1698 C1699 1.524 . S
C1698 C1712 1.377 . S
C1699 C1698 1.524 . S
C1699 C1700 1.397 . S
C1699 C1704 1.363 . S
C1700 H1677 0.950 . S
C1700 C1699 1.397 . S
C1700 C1701 1.334 . S
C1701 H1678 0.950 . S
C1701 C1700 1.334 . S
C1701 C1702 1.287 . S
C1702 C1701 1.287 . S
C1702 C1703 1.524 . S
C1702 H1721 0.913 . S
C1703 H1679 0.950 . S
C1703 C1702 1.524 . S
C1703 C1704 1.415 . S
C1704 H1680 0.950 . S
C1704 C1699 1.363 . S
C1704 C1703 1.415 . S
C1705 H1681 0.951 . S
C1705 C1706 1.366 . S
C1705 C1707 1.388 . S
C1706 C1705 1.366 . S
C1706 C1710 1.385 . S
C1707 H1682 0.951 . S
C1707 C1705 1.388 . S
C1707 C1708 1.366 . S
C1708 C1707 1.366 . S
C1708 C1709 1.414 . S
C1708 C1711 1.499 . S
C1709 H1683 0.950 . S
C1709 C1708 1.414 . S
C1709 C1710 1.374 . S
C1710 H1684 0.950 . S
C1710 C1706 1.385 . S
C1710 C1709 1.374 . S
C1711 C1708 1.499 . S
C1711 C1712 1.373 . S
C1711 C1713 1.389 . S
C1712 H1685 0.950 . S
C1712 C1698 1.377 . S
C1712 C1711 1.373 . S
C1713 C1697 1.377 . S
C1713 C1711 1.389 . S
C1713 C1714 1.524 . S
C1714 C1713 1.524 . S
C1714 C1715 1.397 . S
C1714 C1719 1.363 . S
C1715 H1686 0.950 . S
C1715 C1714 1.397 . S
C1715 C1716 1.334 . S
C1716 H1687 0.950 . S
C1716 C1715 1.334 . S
C1716 C1717 1.287 . S
C1717 C1716 1.287 . S
C1717 C1718 1.524 . S
C1717 H1720 0.999 . S
C1718 H1688 0.950 . S
C1718 C1717 1.524 . S
C1718 C1719 1.415 . S
C1719 H1689 0.950 . S
C1719 C1714 1.363 . S
C1719 C1718 1.415 . S
H1720 C1717 0.999 . S
H1721 C1702 0.913 . S
H1722 C1740 0.951 . S
H1723 C1742 0.951 . S
H1724 C1744 0.950 . S
H1725 C1745 0.950 . S
H1726 C1747 0.950 . S
H1727 C1750 0.950 . S
H1728 C1751 0.950 . S
H1729 C1753 0.950 . S
H1730 C1754 0.950 . S
H1731 C1755 0.951 . S
H1732 C1757 0.951 . S
H1733 C1759 0.950 . S
H1734 C1760 0.950 . S
H1735 C1762 0.950 . S
H1736 C1765 0.950 . S
H1737 C1766 0.950 . S
H1738 C1768 0.950 . S
H1739 C1769 0.950 . S
C1740 H1722 0.951 . S
C1740 C1741 1.366 . S
C1740 C1742 1.388 . S
C1741 C1740 1.366 . S
C1741 C1745 1.385 . S
C1742 H1723 0.951 . S
C1742 C1740 1.388 . S
C1742 C1743 1.366 . S
C1743 C1742 1.366 . S
C1743 C1744 1.414 . S
C1743 C1746 1.499 . S
C1744 H1724 0.950 . S
C1744 C1743 1.414 . S
C1744 C1745 1.374 . S
C1745 H1725 0.950 . S
C1745 C1741 1.385 . S
C1745 C1744 1.374 . S
C1746 C1743 1.499 . S
C1746 C1747 1.373 . S
C1746 C1748 1.389 . S
C1747 H1726 0.950 . S
C1747 C1746 1.373 . S
C1747 C1763 1.377 . S
C1748 C1746 1.389 . S
C1748 C1749 1.524 . S
C1748 C1762 1.377 . S
C1749 C1748 1.524 . S
C1749 C1750 1.397 . S
C1749 C1754 1.363 . S
C1750 H1727 0.950 . S
C1750 C1749 1.397 . S
C1750 C1751 1.334 . S
C1751 H1728 0.950 . S
C1751 C1750 1.334 . S
C1751 C1752 1.287 . S
C1752 C1751 1.287 . S
C1752 C1753 1.524 . S
C1752 H1771 0.913 . S
C1753 H1729 0.950 . S
C1753 C1752 1.524 . S
C1753 C1754 1.415 . S
C1754 H1730 0.950 . S
C1754 C1749 1.363 . S
C1754 C1753 1.415 . S
C1755 H1731 0.951 . S
C1755 C1756 1.366 . S
C1755 C1757 1.388 . S
C1756 C1755 1.366 . S
C1756 C1760 1.385 . S
C1757 H1732 0.951 . S
C1757 C1755 1.388 . S
C1757 C1758 1.366 . S
C1758 C1757 1.366 . S
C1758 C1759 1.414 . S
C1758 C1761 1.499 . S
C1759 H1733 0.950 . S
C1759 C1758 1.414 . S
C1759 C1760 1.374 . S
C1760 H1734 0.950 . S
C1760 C1756 1.385 . S
C1760 C1759 1.374 . S
C1761 C1758 1.499 . S
C1761 C1762 1.373 . S
C1761 C1763 1.389 . S
C1762 H1735 0.950 . S
C1762 C1748 1.377 . S
C1762 C1761 1.373 . S
C1763 C1747 1.377 . S
C1763 C1761 1.389 . S
C1763 C1764 1.524 . S
C1764 C1763 1.524 . S
C1764 C1765 1.397 . S
C1764 C1769 1.363 . S
C1765 H1736 0.950 . S
C1765 C1764 1.397 . S
C1765 C1766 1.334 . S
C1766 H1737 0.950 . S
C1766 C1765 1.334 . S
C1766 C1767 1.287 . S
C1767 C1766 1.287 . S
C1767 C1768 1.524 . S
C1767 H1770 0.999 . S
C1768 H1738 0.950 . S
C1768 C1767 1.524 . S
C1768 C1769 1.415 . S
C1769 H1739 0.950 . S
C1769 C1764 1.363 . S
C1769 C1768 1.415 . S
H1770 C1767 0.999 . S
H1771 C1752 0.913 . S
H1772 C1790 0.951 . S
H1773 C1792 0.951 . S
H1774 C1794 0.950 . S
H1775 C1795 0.950 . S
H1776 C1797 0.950 . S
H1777 C1800 0.950 . S
H1778 C1801 0.950 . S
H1779 C1803 0.950 . S
H1780 C1804 0.950 . S
H1781 C1805 0.951 . S
H1782 C1807 0.951 . S
H1783 C1809 0.950 . S
H1784 C1810 0.950 . S
H1785 C1812 0.950 . S
H1786 C1815 0.950 . S
H1787 C1816 0.950 . S
H1788 C1818 0.950 . S
H1789 C1819 0.950 . S
C1790 H1772 0.951 . S
C1790 C1791 1.366 . S
C1790 C1792 1.388 . S
C1791 C1790 1.366 . S
C1791 C1795 1.385 . S
C1792 H1773 0.951 . S
C1792 C1790 1.388 . S
C1792 C1793 1.366 . S
C1793 C1792 1.366 . S
C1793 C1794 1.414 . S
C1793 C1796 1.499 . S
C1794 H1774 0.950 . S
C1794 C1793 1.414 . S
C1794 C1795 1.374 . S
C1795 H1775 0.950 . S
C1795 C1791 1.385 . S
C1795 C1794 1.374 . S
C1796 C1793 1.499 . S
C1796 C1797 1.373 . S
C1796 C1798 1.389 . S
C1797 H1776 0.950 . S
C1797 C1796 1.373 . S
C1797 C1813 1.377 . S
C1798 C1796 1.389 . S
C1798 C1799 1.524 . S
C1798 C1812 1.377 . S
C1799 C1798 1.524 . S
C1799 C1800 1.397 . S
C1799 C1804 1.363 . S
C1800 H1777 0.950 . S
C1800 C1799 1.397 . S
C1800 C1801 1.334 . S
C1801 H1778 0.950 . S
C1801 C1800 1.334 . S
C1801 C1802 1.287 . S
C1802 C1801 1.287 . S
C1802 C1803 1.524 . S
C1802 H1821 0.913 . S
C1803 H1779 0.950 . S
C1803 C1802 1.524 . S
C1803 C1804 1.415 . S
C1804 H1780 0.950 . S
C1804 C1799 1.363 . S
C1804 C1803 1.415 . S
C1805 H1781 0.951 . S
C1805 C1806 1.366 . S
C1805 C1807 1.388 . S
C1806 C1805 1.366 . S
C1806 C1810 1.385 . S
C1807 H1782 0.951 . S
C1807 C1805 1.388 . S
C1807 C1808 1.366 . S
C1808 C1807 1.366 . S
C1808 C1809 1.414 . S
C1808 C1811 1.499 . S
C1809 H1783 0.950 . S
C1809 C1808 1.414 . S
C1809 C1810 1.374 . S
C1810 H1784 0.950 . S
C1810 C1806 1.385 . S
C1810 C1809 1.374 . S
C1811 C1808 1.499 . S
C1811 C1812 1.373 . S
C1811 C1813 1.389 . S
C1812 H1785 0.950 . S
C1812 C1798 1.377 . S
C1812 C1811 1.373 . S
C1813 C1797 1.377 . S
C1813 C1811 1.389 . S
C1813 C1814 1.524 . S
C1814 C1813 1.524 . S
C1814 C1815 1.397 . S
C1814 C1819 1.363 . S
C1815 H1786 0.950 . S
C1815 C1814 1.397 . S
C1815 C1816 1.334 . S
C1816 H1787 0.950 . S
C1816 C1815 1.334 . S
C1816 C1817 1.287 . S
C1817 C1816 1.287 . S
C1817 C1818 1.524 . S
C1817 H1820 0.999 . S
C1818 H1788 0.950 . S
C1818 C1817 1.524 . S
C1818 C1819 1.415 . S
C1819 H1789 0.950 . S
C1819 C1814 1.363 . S
C1819 C1818 1.415 . S
H1820 C1817 0.999 . S
H1821 C1802 0.913 . S
H1822 C1840 0.951 . S
H1823 C1842 0.951 . S
H1824 C1844 0.950 . S
H1825 C1845 0.950 . S
H1826 C1847 0.950 . S
H1827 C1850 0.950 . S
H1828 C1851 0.950 . S
H1829 C1853 0.950 . S
H1830 C1854 0.950 . S
H1831 C1855 0.951 . S
H1832 C1857 0.951 . S
H1833 C1859 0.950 . S
H1834 C1860 0.950 . S
H1835 C1862 0.950 . S
H1836 C1865 0.950 . S
H1837 C1866 0.950 . S
H1838 C1868 0.950 . S
H1839 C1869 0.950 . S
C1840 H1822 0.951 . S
C1840 C1841 1.366 . S
C1840 C1842 1.388 . S
C1841 C1840 1.366 . S
C1841 C1845 1.385 . S
C1842 H1823 0.951 . S
C1842 C1840 1.388 . S
C1842 C1843 1.366 . S
C1843 C1842 1.366 . S
C1843 C1844 1.414 . S
C1843 C1846 1.499 . S
C1844 H1824 0.950 . S
C1844 C1843 1.414 . S
C1844 C1845 1.374 . S
C1845 H1825 0.950 . S
C1845 C1841 1.385 . S
C1845 C1844 1.374 . S
C1846 C1843 1.499 . S
C1846 C1847 1.373 . S
C1846 C1848 1.389 . S
C1847 H1826 0.950 . S
C1847 C1846 1.373 . S
C1847 C1863 1.377 . S
C1848 C1846 1.389 . S
C1848 C1849 1.524 . S
C1848 C1862 1.377 . S
C1849 C1848 1.524 . S
C1849 C1850 1.397 . S
C1849 C1854 1.363 . S
C1850 H1827 0.950 . S
C1850 C1849 1.397 . S
C1850 C1851 1.334 . S
C1851 H1828 0.950 . S
C1851 C1850 1.334 . S
C1851 C1852 1.287 . S
C1852 C1851 1.287 . S
C1852 C1853 1.524 . S
C1852 H1871 0.913 . S
C1853 H1829 0.950 . S
C1853 C1852 1.524 . S
C1853 C1854 1.415 . S
C1854 H1830 0.950 . S
C1854 C1849 1.363 . S
C1854 C1853 1.415 . S
C1855 H1831 0.951 . S
C1855 C1856 1.366 . S
C1855 C1857 1.388 . S
C1856 C1855 1.366 . S
C1856 C1860 1.385 . S
C1857 H1832 0.951 . S
C1857 C1855 1.388 . S
C1857 C1858 1.366 . S
C1858 C1857 1.366 . S
C1858 C1859 1.414 . S
C1858 C1861 1.499 . S
C1859 H1833 0.950 . S
C1859 C1858 1.414 . S
C1859 C1860 1.374 . S
C1860 H1834 0.950 . S
C1860 C1856 1.385 . S
C1860 C1859 1.374 . S
C1861 C1858 1.499 . S
C1861 C1862 1.373 . S
C1861 C1863 1.389 . S
C1862 H1835 0.950 . S
C1862 C1848 1.377 . S
C1862 C1861 1.373 . S
C1863 C1847 1.377 . S
C1863 C1861 1.389 . S
C1863 C1864 1.524 . S
C1864 C1863 1.524 . S
C1864 C1865 1.397 . S
C1864 C1869 1.363 . S
C1865 H1836 0.950 . S
C1865 C1864 1.397 . S
C1865 C1866 1.334 . S
C1866 H1837 0.950 . S
C1866 C1865 1.334 . S
C1866 C1867 1.287 . S
C1867 C1866 1.287 . S
C1867 C1868 1.524 . S
C1867 H1870 0.999 . S
C1868 H1838 0.950 . S
C1868 C1867 1.524 . S
C1868 C1869 1.415 . S
C1869 H1839 0.950 . S
C1869 C1864 1.363 . S
C1869 C1868 1.415 . S
H1870 C1867 0.999 . S
H1871 C1852 0.913 . S
H1872 C1890 0.951 . S
H1873 C1892 0.951 . S
H1874 C1894 0.950 . S
H1875 C1895 0.950 . S
H1876 C1897 0.950 . S
H1877 C1900 0.950 . S
H1878 C1901 0.950 . S
H1879 C1903 0.950 . S
H1880 C1904 0.950 . S
H1881 C1905 0.951 . S
H1882 C1907 0.951 . S
H1883 C1909 0.950 . S
H1884 C1910 0.950 . S
H1885 C1912 0.950 . S
H1886 C1915 0.950 . S
H1887 C1916 0.950 . S
H1888 C1918 0.950 . S
H1889 C1919 0.950 . S
C1890 H1872 0.951 . S
C1890 C1891 1.366 . S
C1890 C1892 1.388 . S
C1891 C1890 1.366 . S
C1891 C1895 1.385 . S
C1892 H1873 0.951 . S
C1892 C1890 1.388 . S
C1892 C1893 1.366 . S
C1893 C1892 1.366 . S
C1893 C1894 1.414 . S
C1893 C1896 1.499 . S
C1894 H1874 0.950 . S
C1894 C1893 1.414 . S
C1894 C1895 1.374 . S
C1895 H1875 0.950 . S
C1895 C1891 1.385 . S
C1895 C1894 1.374 . S
C1896 C1893 1.499 . S
C1896 C1897 1.373 . S
C1896 C1898 1.389 . S
C1897 H1876 0.950 . S
C1897 C1896 1.373 . S
C1897 C1913 1.377 . S
C1898 C1896 1.389 . S
C1898 C1899 1.524 . S
C1898 C1912 1.377 . S
C1899 C1898 1.524 . S
C1899 C1900 1.397 . S
C1899 C1904 1.363 . S
C1900 H1877 0.950 . S
C1900 C1899 1.397 . S
C1900 C1901 1.334 . S
C1901 H1878 0.950 . S
C1901 C1900 1.334 . S
C1901 C1902 1.287 . S
C1902 C1901 1.287 . S
C1902 C1903 1.524 . S
C1902 H1921 0.913 . S
C1903 H1879 0.950 . S
C1903 C1902 1.524 . S
C1903 C1904 1.415 . S
C1904 H1880 0.950 . S
C1904 C1899 1.363 . S
C1904 C1903 1.415 . S
C1905 H1881 0.951 . S
C1905 C1906 1.366 . S
C1905 C1907 1.388 . S
C1906 C1905 1.366 . S
C1906 C1910 1.385 . S
C1907 H1882 0.951 . S
C1907 C1905 1.388 . S
C1907 C1908 1.366 . S
C1908 C1907 1.366 . S
C1908 C1909 1.414 . S
C1908 C1911 1.499 . S
C1909 H1883 0.950 . S
C1909 C1908 1.414 . S
C1909 C1910 1.374 . S
C1910 H1884 0.950 . S
C1910 C1906 1.385 . S
C1910 C1909 1.374 . S
C1911 C1908 1.499 . S
C1911 C1912 1.373 . S
C1911 C1913 1.389 . S
C1912 H1885 0.950 . S
C1912 C1898 1.377 . S
C1912 C1911 1.373 . S
C1913 C1897 1.377 . S
C1913 C1911 1.389 . S
C1913 C1914 1.524 . S
C1914 C1913 1.524 . S
C1914 C1915 1.397 . S
C1914 C1919 1.363 . S
C1915 H1886 0.950 . S
C1915 C1914 1.397 . S
C1915 C1916 1.334 . S
C1916 H1887 0.950 . S
C1916 C1915 1.334 . S
C1916 C1917 1.287 . S
C1917 C1916 1.287 . S
C1917 C1918 1.524 . S
C1917 H1920 0.999 . S
C1918 H1888 0.950 . S
C1918 C1917 1.524 . S
C1918 C1919 1.415 . S
C1919 H1889 0.950 . S
C1919 C1914 1.363 . S
C1919 C1918 1.415 . S
H1920 C1917 0.999 . S
H1921 C1902 0.913 . S
H1922 C1940 0.951 . S
H1923 C1942 0.951 . S
H1924 C1944 0.950 . S
H1925 C1945 0.950 . S
H1926 C1947 0.950 . S
H1927 C1950 0.950 . S
H1928 C1951 0.950 . S
H1929 C1953 0.950 . S
H1930 C1954 0.950 . S
H1931 C1955 0.951 . S
H1932 C1957 0.951 . S
H1933 C1959 0.950 . S
H1934 C1960 0.950 . S
H1935 C1962 0.950 . S
H1936 C1965 0.950 . S
H1937 C1966 0.950 . S
H1938 C1968 0.950 . S
H1939 C1969 0.950 . S
C1940 H1922 0.951 . S
C1940 C1941 1.366 . S
C1940 C1942 1.388 . S
C1941 C1940 1.366 . S
C1941 C1945 1.385 . S
C1942 H1923 0.951 . S
C1942 C1940 1.388 . S
C1942 C1943 1.366 . S
C1943 C1942 1.366 . S
C1943 C1944 1.414 . S
C1943 C1946 1.499 . S
C1944 H1924 0.950 . S
C1944 C1943 1.414 . S
C1944 C1945 1.374 . S
C1945 H1925 0.950 . S
C1945 C1941 1.385 . S
C1945 C1944 1.374 . S
C1946 C1943 1.499 . S
C1946 C1947 1.373 . S
C1946 C1948 1.389 . S
C1947 H1926 0.950 . S
C1947 C1946 1.373 . S
C1947 C1963 1.377 . S
C1948 C1946 1.389 . S
C1948 C1949 1.524 . S
C1948 C1962 1.377 . S
C1949 C1948 1.524 . S
C1949 C1950 1.397 . S
C1949 C1954 1.363 . S
C1950 H1927 0.950 . S
C1950 C1949 1.397 . S
C1950 C1951 1.334 . S
C1951 H1928 0.950 . S
C1951 C1950 1.334 . S
C1951 C1952 1.287 . S
C1952 C1951 1.287 . S
C1952 C1953 1.524 . S
C1952 H1971 0.913 . S
C1953 H1929 0.950 . S
C1953 C1952 1.524 . S
C1953 C1954 1.415 . S
C1954 H1930 0.950 . S
C1954 C1949 1.363 . S
C1954 C1953 1.415 . S
C1955 H1931 0.951 . S
C1955 C1956 1.366 . S
C1955 C1957 1.388 . S
C1956 C1955 1.366 . S
C1956 C1960 1.385 . S
C1957 H1932 0.951 . S
C1957 C1955 1.388 . S
C1957 C1958 1.366 . S
C1958 C1957 1.366 . S
C1958 C1959 1.414 . S
C1958 C1961 1.499 . S
C1959 H1933 0.950 . S
C1959 C1958 1.414 . S
C1959 C1960 1.374 . S
C1960 H1934 0.950 . S
C1960 C1956 1.385 . S
C1960 C1959 1.374 . S
C1961 C1958 1.499 . S
C1961 C1962 1.373 . S
C1961 C1963 1.389 . S
C1962 H1935 0.950 . S
C1962 C1948 1.377 . S
C1962 C1961 1.373 . S
C1963 C1947 1.377 . S
C1963 C1961 1.389 . S
C1963 C1964 1.524 . S
C1964 C1963 1.524 . S
C1964 C1965 1.397 . S
C1964 C1969 1.363 . S
C1965 H1936 0.950 . S
C1965 C1964 1.397 . S
C1965 C1966 1.334 . S
C1966 H1937 0.950 . S
C1966 C1965 1.334 . S
C1966 C1967 1.287 . S
C1967 C1966 1.287 . S
C1967 C1968 1.524 . S
C1967 H1970 0.999 . S
C1968 H1938 0.950 . S
C1968 C1967 1.524 . S
C1968 C1969 1.415 . S
C1969 H1939 0.950 . S
C1969 C1964 1.363 . S
C1969 C1968 1.415 . S
H1970 C1967 0.999 . S
H1971 C1952 0.913 . S
H1972 C1990 0.951 . S
H1973 C1992 0.951 . S
H1974 C1994 0.950 . S
H1975 C1995 0.950 . S
H1976 C1997 0.950 . S
H1977 C2000 0.950 . S
H1978 C2001 0.950 . S
H1979 C2003 0.950 . S
H1980 C2004 0.950 . S
H1981 C2005 0.951 . S
H1982 C2007 0.951 . S
H1983 C2009 0.950 . S
H1984 C2010 0.950 . S
H1985 C2012 0.950 . S
H1986 C2015 0.950 . S
H1987 C2016 0.950 . S
H1988 C2018 0.950 . S
H1989 C2019 0.950 . S
C1990 H1972 0.951 . S
C1990 C1991 1.366 . S
C1990 C1992 1.388 . S
C1991 C1990 1.366 . S
C1991 C1995 1.385 . S
C1992 H1973 0.951 . S
C1992 C1990 1.388 . S
C1992 C1993 1.366 . S
C1993 C1992 1.366 . S
C1993 C1994 1.414 . S
C1993 C1996 1.499 . S
C1994 H1974 0.950 . S
C1994 C1993 1.414 . S
C1994 C1995 1.374 . S
C1995 H1975 0.950 . S
C1995 C1991 1.385 . S
C1995 C1994 1.374 . S
C1996 C1993 1.499 . S
C1996 C1997 1.373 . S
C1996 C1998 1.389 . S
C1997 H1976 0.950 . S
C1997 C1996 1.373 . S
C1997 C2013 1.377 . S
C1998 C1996 1.389 . S
C1998 C1999 1.524 . S
C1998 C2012 1.377 . S
C1999 C1998 1.524 . S
C1999 C2000 1.397 . S
C1999 C2004 1.363 . S
C2000 H1977 0.950 . S
C2000 C1999 1.397 . S
C2000 C2001 1.334 . S
C2001 H1978 0.950 . S
C2001 C2000 1.334 . S
C2001 C2002 1.287 . S
C2002 C2001 1.287 . S
C2002 C2003 1.524 . S
C2002 H2021 0.913 . S
C2003 H1979 0.950 . S
C2003 C2002 1.524 . S
C2003 C2004 1.415 . S
C2004 H1980 0.950 . S
C2004 C1999 1.363 . S
C2004 C2003 1.415 . S
C2005 H1981 0.951 . S
C2005 C2006 1.366 . S
C2005 C2007 1.388 . S
C2006 C2005 1.366 . S
C2006 C2010 1.385 . S
C2007 H1982 0.951 . S
C2007 C2005 1.388 . S
C2007 C2008 1.366 . S
C2008 C2007 1.366 . S
C2008 C2009 1.414 . S
C2008 C2011 1.499 . S
C2009 H1983 0.950 . S
C2009 C2008 1.414 . S
C2009 C2010 1.374 . S
C2010 H1984 0.950 . S
C2010 C2006 1.385 . S
C2010 C2009 1.374 . S
C2011 C2008 1.499 . S
C2011 C2012 1.373 . S
C2011 C2013 1.389 . S
C2012 H1985 0.950 . S
C2012 C1998 1.377 . S
C2012 C2011 1.373 . S
C2013 C1997 1.377 . S
C2013 C2011 1.389 . S
C2013 C2014 1.524 . S
C2014 C2013 1.524 . S
C2014 C2015 1.397 . S
C2014 C2019 1.363 . S
C2015 H1986 0.950 . S
C2015 C2014 1.397 . S
C2015 C2016 1.334 . S
C2016 H1987 0.950 . S
C2016 C2015 1.334 . S
C2016 C2017 1.287 . S
C2017 C2016 1.287 . S
C2017 C2018 1.524 . S
C2017 H2020 0.999 . S
C2018 H1988 0.950 . S
C2018 C2017 1.524 . S
C2018 C2019 1.415 . S
C2019 H1989 0.950 . S
C2019 C2014 1.363 . S
C2019 C2018 1.415 . S
H2020 C2017 0.999 . S
H2021 C2002 0.913 . S
H2022 C2040 0.951 . S
H2023 C2042 0.951 . S
H2024 C2044 0.950 . S
H2025 C2045 0.950 . S
H2026 C2047 0.950 . S
H2027 C2050 0.950 . S
H2028 C2051 0.950 . S
H2029 C2053 0.950 . S
H2030 C2054 0.950 . S
H2031 C2055 0.951 . S
H2032 C2057 0.951 . S
H2033 C2059 0.950 . S
H2034 C2060 0.950 . S
H2035 C2062 0.950 . S
H2036 C2065 0.950 . S
H2037 C2066 0.950 . S
H2038 C2068 0.950 . S
H2039 C2069 0.950 . S
C2040 H2022 0.951 . S
C2040 C2041 1.366 . S
C2040 C2042 1.388 . S
C2041 C2040 1.366 . S
C2041 C2045 1.385 . S
C2042 H2023 0.951 . S
C2042 C2040 1.388 . S
C2042 C2043 1.366 . S
C2043 C2042 1.366 . S
C2043 C2044 1.414 . S
C2043 C2046 1.499 . S
C2044 H2024 0.950 . S
C2044 C2043 1.414 . S
C2044 C2045 1.374 . S
C2045 H2025 0.950 . S
C2045 C2041 1.385 . S
C2045 C2044 1.374 . S
C2046 C2043 1.499 . S
C2046 C2047 1.373 . S
C2046 C2048 1.389 . S
C2047 H2026 0.950 . S
C2047 C2046 1.373 . S
C2047 C2063 1.377 . S
C2048 C2046 1.389 . S
C2048 C2049 1.524 . S
C2048 C2062 1.377 . S
C2049 C2048 1.524 . S
C2049 C2050 1.397 . S
C2049 C2054 1.363 . S
C2050 H2027 0.950 . S
C2050 C2049 1.397 . S
C2050 C2051 1.334 . S
C2051 H2028 0.950 . S
C2051 C2050 1.334 . S
C2051 C2052 1.287 . S
C2052 C2051 1.287 . S
C2052 C2053 1.524 . S
C2052 H2071 0.913 . S
C2053 H2029 0.950 . S
C2053 C2052 1.524 . S
C2053 C2054 1.415 . S
C2054 H2030 0.950 . S
C2054 C2049 1.363 . S
C2054 C2053 1.415 . S
C2055 H2031 0.951 . S
C2055 C2056 1.366 . S
C2055 C2057 1.388 . S
C2056 C2055 1.366 . S
C2056 C2060 1.385 . S
C2057 H2032 0.951 . S
C2057 C2055 1.388 . S
C2057 C2058 1.366 . S
C2058 C2057 1.366 . S
C2058 C2059 1.414 . S
C2058 C2061 1.499 . S
C2059 H2033 0.950 . S
C2059 C2058 1.414 . S
C2059 C2060 1.374 . S
C2060 H2034 0.950 . S
C2060 C2056 1.385 . S
C2060 C2059 1.374 . S
C2061 C2058 1.499 . S
C2061 C2062 1.373 . S
C2061 C2063 1.389 . S
C2062 H2035 0.950 . S
C2062 C2048 1.377 . S
C2062 C2061 1.373 . S
C2063 C2047 1.377 . S
C2063 C2061 1.389 . S
C2063 C2064 1.524 . S
C2064 C2063 1.524 . S
C2064 C2065 1.397 . S
C2064 C2069 1.363 . S
C2065 H2036 0.950 . S
C2065 C2064 1.397 . S
C2065 C2066 1.334 . S
C2066 H2037 0.950 . S
C2066 C2065 1.334 . S
C2066 C2067 1.287 . S
C2067 C2066 1.287 . S
C2067 C2068 1.524 . S
C2067 H2070 0.999 . S
C2068 H2038 0.950 . S
C2068 C2067 1.524 . S
C2068 C2069 1.415 . S
C2069 H2039 0.950 . S
C2069 C2064 1.363 . S
C2069 C2068 1.415 . S
H2070 C2067 0.999 . S
H2071 C2052 0.913 . S
H2072 C2090 0.951 . S
H2073 C2092 0.951 . S
H2074 C2094 0.950 . S
H2075 C2095 0.950 . S
H2076 C2097 0.950 . S
H2077 C2100 0.950 . S
H2078 C2101 0.950 . S
H2079 C2103 0.950 . S
H2080 C2104 0.950 . S
H2081 C2105 0.951 . S
H2082 C2107 0.951 . S
H2083 C2109 0.950 . S
H2084 C2110 0.950 . S
H2085 C2112 0.950 . S
H2086 C2115 0.950 . S
H2087 C2116 0.950 . S
H2088 C2118 0.950 . S
H2089 C2119 0.950 . S
C2090 H2072 0.951 . S
C2090 C2091 1.366 . S
C2090 C2092 1.388 . S
C2091 C2090 1.366 . S
C2091 C2095 1.385 . S
C2092 H2073 0.951 . S
C2092 C2090 1.388 . S
C2092 C2093 1.366 . S
C2093 C2092 1.366 . S
C2093 C2094 1.414 . S
C2093 C2096 1.499 . S
C2094 H2074 0.950 . S
C2094 C2093 1.414 . S
C2094 C2095 1.374 . S
C2095 H2075 0.950 . S
C2095 C2091 1.385 . S
C2095 C2094 1.374 . S
C2096 C2093 1.499 . S
C2096 C2097 1.373 . S
C2096 C2098 1.389 . S
C2097 H2076 0.950 . S
C2097 C2096 1.373 . S
C2097 C2113 1.377 . S
C2098 C2096 1.389 . S
C2098 C2099 1.524 . S
C2098 C2112 1.377 . S
C2099 C2098 1.524 . S
C2099 C2100 1.397 . S
C2099 C2104 1.363 . S
C2100 H2077 0.950 . S
C2100 C2099 1.397 . S
C2100 C2101 1.334 . S
C2101 H2078 0.950 . S
C2101 C2100 1.334 . S
C2101 C2102 1.287 . S
C2102 C2101 1.287 . S
C2102 C2103 1.524 . S
C2102 H2121 0.913 . S
C2103 H2079 0.950 . S
C2103 C2102 1.524 . S
C2103 C2104 1.415 . S
C2104 H2080 0.950 . S
C2104 C2099 1.363 . S
C2104 C2103 1.415 . S
C2105 H2081 0.951 . S
C2105 C2106 1.366 . S
C2105 C2107 1.388 . S
C2106 C2105 1.366 . S
C2106 C2110 1.385 . S
C2107 H2082 0.951 . S
C2107 C2105 1.388 . S
C2107 C2108 1.366 . S
C2108 C2107 1.366 . S
C2108 C2109 1.414 . S
C2108 C2111 1.499 . S
C2109 H2083 0.950 . S
C2109 C2108 1.414 . S
C2109 C2110 1.374 . S
C2110 H2084 0.950 . S
C2110 C2106 1.385 . S
C2110 C2109 1.374 . S
C2111 C2108 1.499 . S
C2111 C2112 1.373 . S
C2111 C2113 1.389 . S
C2112 H2085 0.950 . S
C2112 C2098 1.377 . S
C2112 C2111 1.373 . S
C2113 C2097 1.377 . S
C2113 C2111 1.389 . S
C2113 C2114 1.524 . S
C2114 C2113 1.524 . S
C2114 C2115 1.397 . S
C2114 C2119 1.363 . S
C2115 H2086 0.950 . S
C2115 C2114 1.397 . S
C2115 C2116 1.334 . S
C2116 H2087 0.950 . S
C2116 C2115 1.334 . S
C2116 C2117 1.287 . S
C2117 C2116 1.287 . S
C2117 C2118 1.524 . S
C2117 H2120 0.999 . S
C2118 H2088 0.950 . S
C2118 C2117 1.524 . S
C2118 C2119 1.415 . S
C2119 H2089 0.950 . S
C2119 C2114 1.363 . S
C2119 C2118 1.415 . S
H2120 C2117 0.999 . S
H2121 C2102 0.913 . S
H2122 C2140 0.951 . S
H2123 C2142 0.951 . S
H2124 C2144 0.950 . S
H2125 C2145 0.950 . S
H2126 C2147 0.950 . S
H2127 C2150 0.950 . S
H2128 C2151 0.950 . S
H2129 C2153 0.950 . S
H2130 C2154 0.950 . S
H2131 C2155 0.951 . S
H2132 C2157 0.951 . S
H2133 C2159 0.950 . S
H2134 C2160 0.950 . S
H2135 C2162 0.950 . S
H2136 C2165 0.950 . S
H2137 C2166 0.950 . S
H2138 C2168 0.950 . S
H2139 C2169 0.950 . S
C2140 H2122 0.951 . S
C2140 C2141 1.366 . S
C2140 C2142 1.388 . S
C2141 C2140 1.366 . S
C2141 C2145 1.385 . S
C2142 H2123 0.951 . S
C2142 C2140 1.388 . S
C2142 C2143 1.366 . S
C2143 C2142 1.366 . S
C2143 C2144 1.414 . S
C2143 C2146 1.499 . S
C2144 H2124 0.950 . S
C2144 C2143 1.414 . S
C2144 C2145 1.374 . S
C2145 H2125 0.950 . S
C2145 C2141 1.385 . S
C2145 C2144 1.374 . S
C2146 C2143 1.499 . S
C2146 C2147 1.373 . S
C2146 C2148 1.389 . S
C2147 H2126 0.950 . S
C2147 C2146 1.373 . S
C2147 C2163 1.377 . S
C2148 C2146 1.389 . S
C2148 C2149 1.524 . S
C2148 C2162 1.377 . S
C2149 C2148 1.524 . S
C2149 C2150 1.397 . S
C2149 C2154 1.363 . S
C2150 H2127 0.950 . S
C2150 C2149 1.397 . S
C2150 C2151 1.334 . S
C2151 H2128 0.950 . S
C2151 C2150 1.334 . S
C2151 C2152 1.287 . S
C2152 C2151 1.287 . S
C2152 C2153 1.524 . S
C2152 H2171 0.913 . S
C2153 H2129 0.950 . S
C2153 C2152 1.524 . S
C2153 C2154 1.415 . S
C2154 H2130 0.950 . S
C2154 C2149 1.363 . S
C2154 C2153 1.415 . S
C2155 H2131 0.951 . S
C2155 C2156 1.366 . S
C2155 C2157 1.388 . S
C2156 C2155 1.366 . S
C2156 C2160 1.385 . S
C2157 H2132 0.951 . S
C2157 C2155 1.388 . S
C2157 C2158 1.366 . S
C2158 C2157 1.366 . S
C2158 C2159 1.414 . S
C2158 C2161 1.499 . S
C2159 H2133 0.950 . S
C2159 C2158 1.414 . S
C2159 C2160 1.374 . S
C2160 H2134 0.950 . S
C2160 C2156 1.385 . S
C2160 C2159 1.374 . S
C2161 C2158 1.499 . S
C2161 C2162 1.373 . S
C2161 C2163 1.389 . S
C2162 H2135 0.950 . S
C2162 C2148 1.377 . S
C2162 C2161 1.373 . S
C2163 C2147 1.377 . S
C2163 C2161 1.389 . S
C2163 C2164 1.524 . S
C2164 C2163 1.524 . S
C2164 C2165 1.397 . S
C2164 C2169 1.363 . S
C2165 H2136 0.950 . S
C2165 C2164 1.397 . S
C2165 C2166 1.334 . S
C2166 H2137 0.950 . S
C2166 C2165 1.334 . S
C2166 C2167 1.287 . S
C2167 C2166 1.287 . S
C2167 C2168 1.524 . S
C2167 H2170 0.999 . S
C2168 H2138 0.950 . S
C2168 C2167 1.524 . S
C2168 C2169 1.415 . S
C2169 H2139 0.950 . S
C2169 C2164 1.363 . S
C2169 C2168 1.415 . S
H2170 C2167 0.999 . S
H2171 C2152 0.913 . S
H2172 C2190 0.951 . S
H2173 C2192 0.951 . S
H2174 C2194 0.950 . S
H2175 C2195 0.950 . S
H2176 C2197 0.950 . S
H2177 C2200 0.950 . S
H2178 C2201 0.950 . S
H2179 C2203 0.950 . S
H2180 C2204 0.950 . S
H2181 C2205 0.951 . S
H2182 C2207 0.951 . S
H2183 C2209 0.950 . S
H2184 C2210 0.950 . S
H2185 C2212 0.950 . S
H2186 C2215 0.950 . S
H2187 C2216 0.950 . S
H2188 C2218 0.950 . S
H2189 C2219 0.950 . S
C2190 H2172 0.951 . S
C2190 C2191 1.366 . S
C2190 C2192 1.388 . S
C2191 C2190 1.366 . S
C2191 C2195 1.385 . S
C2192 H2173 0.951 . S
C2192 C2190 1.388 . S
C2192 C2193 1.366 . S
C2193 C2192 1.366 . S
C2193 C2194 1.414 . S
C2193 C2196 1.499 . S
C2194 H2174 0.950 . S
C2194 C2193 1.414 . S
C2194 C2195 1.374 . S
C2195 H2175 0.950 . S
C2195 C2191 1.385 . S
C2195 C2194 1.374 . S
C2196 C2193 1.499 . S
C2196 C2197 1.373 . S
C2196 C2198 1.389 . S
C2197 H2176 0.950 . S
C2197 C2196 1.373 . S
C2197 C2213 1.377 . S
C2198 C2196 1.389 . S
C2198 C2199 1.524 . S
C2198 C2212 1.377 . S
C2199 C2198 1.524 . S
C2199 C2200 1.397 . S
C2199 C2204 1.363 . S
C2200 H2177 0.950 . S
C2200 C2199 1.397 . S
C2200 C2201 1.334 . S
C2201 H2178 0.950 . S
C2201 C2200 1.334 . S
C2201 C2202 1.287 . S
C2202 C2201 1.287 . S
C2202 C2203 1.524 . S
C2202 H2221 0.913 . S
C2203 H2179 0.950 . S
C2203 C2202 1.524 . S
C2203 C2204 1.415 . S
C2204 H2180 0.950 . S
C2204 C2199 1.363 . S
C2204 C2203 1.415 . S
C2205 H2181 0.951 . S
C2205 C2206 1.366 . S
C2205 C2207 1.388 . S
C2206 C2205 1.366 . S
C2206 C2210 1.385 . S
C2207 H2182 0.951 . S
C2207 C2205 1.388 . S
C2207 C2208 1.366 . S
C2208 C2207 1.366 . S
C2208 C2209 1.414 . S
C2208 C2211 1.499 . S
C2209 H2183 0.950 . S
C2209 C2208 1.414 . S
C2209 C2210 1.374 . S
C2210 H2184 0.950 . S
C2210 C2206 1.385 . S
C2210 C2209 1.374 . S
C2211 C2208 1.499 . S
C2211 C2212 1.373 . S
C2211 C2213 1.389 . S
C2212 H2185 0.950 . S
C2212 C2198 1.377 . S
C2212 C2211 1.373 . S
C2213 C2197 1.377 . S
C2213 C2211 1.389 . S
C2213 C2214 1.524 . S
C2214 C2213 1.524 . S
C2214 C2215 1.397 . S
C2214 C2219 1.363 . S
C2215 H2186 0.950 . S
C2215 C2214 1.397 . S
C2215 C2216 1.334 . S
C2216 H2187 0.950 . S
C2216 C2215 1.334 . S
C2216 C2217 1.287 . S
C2217 C2216 1.287 . S
C2217 C2218 1.524 . S
C2217 H2220 0.999 . S
C2218 H2188 0.950 . S
C2218 C2217 1.524 . S
C2218 C2219 1.415 . S
C2219 H2189 0.950 . S
C2219 C2214 1.363 . S
C2219 C2218 1.415 . S
H2220 C2217 0.999 . S
H2221 C2202 0.913 . S
H2222 C2240 0.951 . S
H2223 C2242 0.951 . S
H2224 C2244 0.950 . S
H2225 C2245 0.950 . S
H2226 C2247 0.950 . S
H2227 C2250 0.950 . S
H2228 C2251 0.950 . S
H2229 C2253 0.950 . S
H2230 C2254 0.950 . S
H2231 C2255 0.951 . S
H2232 C2257 0.951 . S
H2233 C2259 0.950 . S
H2234 C2260 0.950 . S
H2235 C2262 0.950 . S
H2236 C2265 0.950 . S
H2237 C2266 0.950 . S
H2238 C2268 0.950 . S
H2239 C2269 0.950 . S
C2240 H2222 0.951 . S
C2240 C2241 1.366 . S
C2240 C2242 1.388 . S
C2241 C2240 1.366 . S
C2241 C2245 1.385 . S
C2242 H2223 0.951 . S
C2242 C2240 1.388 . S
C2242 C2243 1.366 . S
C2243 C2242 1.366 . S
C2243 C2244 1.414 . S
C2243 C2246 1.499 . S
C2244 H2224 0.950 . S
C2244 C2243 1.414 . S
C2244 C2245 1.374 . S
C2245 H2225 0.950 . S
C2245 C2241 1.385 . S
C2245 C2244 1.374 . S
C2246 C2243 1.499 . S
C2246 C2247 1.373 . S
C2246 C2248 1.389 . S
C2247 H2226 0.950 . S
C2247 C2246 1.373 . S
C2247 C2263 1.377 . S
C2248 C2246 1.389 . S
C2248 C2249 1.524 . S
C2248 C2262 1.377 . S
C2249 C2248 1.524 . S
C2249 C2250 1.397 . S
C2249 C2254 1.363 . S
C2250 H2227 0.950 . S
C2250 C2249 1.397 . S
C2250 C2251 1.334 . S
C2251 H2228 0.950 . S
C2251 C2250 1.334 . S
C2251 C2252 1.287 . S
C2252 C2251 1.287 . S
C2252 C2253 1.524 . S
C2252 H2271 0.913 . S
C2253 H2229 0.950 . S
C2253 C2252 1.524 . S
C2253 C2254 1.415 . S
C2254 H2230 0.950 . S
C2254 C2249 1.363 . S
C2254 C2253 1.415 . S
C2255 H2231 0.951 . S
C2255 C2256 1.366 . S
C2255 C2257 1.388 . S
C2256 C2255 1.366 . S
C2256 C2260 1.385 . S
C2257 H2232 0.951 . S
C2257 C2255 1.388 . S
C2257 C2258 1.366 . S
C2258 C2257 1.366 . S
C2258 C2259 1.414 . S
C2258 C2261 1.499 . S
C2259 H2233 0.950 . S
C2259 C2258 1.414 . S
C2259 C2260 1.374 . S
C2260 H2234 0.950 . S
C2260 C2256 1.385 . S
C2260 C2259 1.374 . S
C2261 C2258 1.499 . S
C2261 C2262 1.373 . S
C2261 C2263 1.389 . S
C2262 H2235 0.950 . S
C2262 C2248 1.377 . S
C2262 C2261 1.373 . S
C2263 C2247 1.377 . S
C2263 C2261 1.389 . S
C2263 C2264 1.524 . S
C2264 C2263 1.524 . S
C2264 C2265 1.397 . S
C2264 C2269 1.363 . S
C2265 H2236 0.950 . S
C2265 C2264 1.397 . S
C2265 C2266 1.334 . S
C2266 H2237 0.950 . S
C2266 C2265 1.334 . S
C2266 C2267 1.287 . S
C2267 C2266 1.287 . S
C2267 C2268 1.524 . S
C2267 H2270 0.999 . S
C2268 H2238 0.950 . S
C2268 C2267 1.524 . S
C2268 C2269 1.415 . S
C2269 H2239 0.950 . S
C2269 C2264 1.363 . S
C2269 C2268 1.415 . S
H2270 C2267 0.999 . S
H2271 C2252 0.913 . S
H2272 C2290 0.951 . S
H2273 C2292 0.951 . S
H2274 C2294 0.950 . S
H2275 C2295 0.950 . S
H2276 C2297 0.950 . S
H2277 C2300 0.950 . S
H2278 C2301 0.950 . S
H2279 C2303 0.950 . S
H2280 C2304 0.950 . S
H2281 C2305 0.951 . S
H2282 C2307 0.951 . S
H2283 C2309 0.950 . S
H2284 C2310 0.950 . S
H2285 C2312 0.950 . S
H2286 C2315 0.950 . S
H2287 C2316 0.950 . S
H2288 C2318 0.950 . S
H2289 C2319 0.950 . S
C2290 H2272 0.951 . S
C2290 C2291 1.366 . S
C2290 C2292 1.388 . S
C2291 C2290 1.366 . S
C2291 C2295 1.385 . S
C2292 H2273 0.951 . S
C2292 C2290 1.388 . S
C2292 C2293 1.366 . S
C2293 C2292 1.366 . S
C2293 C2294 1.414 . S
C2293 C2296 1.499 . S
C2294 H2274 0.950 . S
C2294 C2293 1.414 . S
C2294 C2295 1.374 . S
C2295 H2275 0.950 . S
C2295 C2291 1.385 . S
C2295 C2294 1.374 . S
C2296 C2293 1.499 . S
C2296 C2297 1.373 . S
C2296 C2298 1.389 . S
C2297 H2276 0.950 . S
C2297 C2296 1.373 . S
C2297 C2313 1.377 . S
C2298 C2296 1.389 . S
C2298 C2299 1.524 . S
C2298 C2312 1.377 . S
C2299 C2298 1.524 . S
C2299 C2300 1.397 . S
C2299 C2304 1.363 . S
C2300 H2277 0.950 . S
C2300 C2299 1.397 . S
C2300 C2301 1.334 . S
C2301 H2278 0.950 . S
C2301 C2300 1.334 . S
C2301 C2302 1.287 . S
C2302 C2301 1.287 . S
C2302 C2303 1.524 . S
C2302 H2321 0.913 . S
C2303 H2279 0.950 . S
C2303 C2302 1.524 . S
C2303 C2304 1.415 . S
C2304 H2280 0.950 . S
C2304 C2299 1.363 . S
C2304 C2303 1.415 . S
C2305 H2281 0.951 . S
C2305 C2306 1.366 . S
C2305 C2307 1.388 . S
C2306 C2305 1.366 . S
C2306 C2310 1.385 . S
C2307 H2282 0.951 . S
C2307 C2305 1.388 . S
C2307 C2308 1.366 . S
C2308 C2307 1.366 . S
C2308 C2309 1.414 . S
C2308 C2311 1.499 . S
C2309 H2283 0.950 . S
C2309 C2308 1.414 . S
C2309 C2310 1.374 . S
C2310 H2284 0.950 . S
C2310 C2306 1.385 . S
C2310 C2309 1.374 . S
C2311 C2308 1.499 . S
C2311 C2312 1.373 . S
C2311 C2313 1.389 . S
C2312 H2285 0.950 . S
C2312 C2298 1.377 . S
C2312 C2311 1.373 . S
C2313 C2297 1.377 . S
C2313 C2311 1.389 . S
C2313 C2314 1.524 . S
C2314 C2313 1.524 . S
C2314 C2315 1.397 . S
C2314 C2319 1.363 . S
C2315 H2286 0.950 . S
C2315 C2314 1.397 . S
C2315 C2316 1.334 . S
C2316 H2287 0.950 . S
C2316 C2315 1.334 . S
C2316 C2317 1.287 . S
C2317 C2316 1.287 . S
C2317 C2318 1.524 . S
C2317 H2320 0.999 . S
C2318 H2288 0.950 . S
C2318 C2317 1.524 . S
C2318 C2319 1.415 . S
C2319 H2289 0.950 . S
C2319 C2314 1.363 . S
C2319 C2318 1.415 . S
H2320 C2317 0.999 . S
H2321 C2302 0.913 . S
H2322 C2340 0.951 . S
H2323 C2342 0.951 . S
H2324 C2344 0.950 . S
H2325 C2345 0.950 . S
H2326 C2347 0.950 . S
H2327 C2350 0.950 . S
H2328 C2351 0.950 . S
H2329 C2353 0.950 . S
H2330 C2354 0.950 . S
H2331 C2355 0.951 . S
H2332 C2357 0.951 . S
H2333 C2359 0.950 . S
H2334 C2360 0.950 . S
H2335 C2362 0.950 . S
H2336 C2365 0.950 . S
H2337 C2366 0.950 . S
H2338 C2368 0.950 . S
H2339 C2369 0.950 . S
C2340 H2322 0.951 . S
C2340 C2341 1.366 . S
C2340 C2342 1.388 . S
C2341 C2340 1.366 . S
C2341 C2345 1.385 . S
C2342 H2323 0.951 . S
C2342 C2340 1.388 . S
C2342 C2343 1.366 . S
C2343 C2342 1.366 . S
C2343 C2344 1.414 . S
C2343 C2346 1.499 . S
C2344 H2324 0.950 . S
C2344 C2343 1.414 . S
C2344 C2345 1.374 . S
C2345 H2325 0.950 . S
C2345 C2341 1.385 . S
C2345 C2344 1.374 . S
C2346 C2343 1.499 . S
C2346 C2347 1.373 . S
C2346 C2348 1.389 . S
C2347 H2326 0.950 . S
C2347 C2346 1.373 . S
C2347 C2363 1.377 . S
C2348 C2346 1.389 . S
C2348 C2349 1.524 . S
C2348 C2362 1.377 . S
C2349 C2348 1.524 . S
C2349 C2350 1.397 . S
C2349 C2354 1.363 . S
C2350 H2327 0.950 . S
C2350 C2349 1.397 . S
C2350 C2351 1.334 . S
C2351 H2328 0.950 . S
C2351 C2350 1.334 . S
C2351 C2352 1.287 . S
C2352 C2351 1.287 . S
C2352 C2353 1.524 . S
C2352 H2371 0.913 . S
C2353 H2329 0.950 . S
C2353 C2352 1.524 . S
C2353 C2354 1.415 . S
C2354 H2330 0.950 . S
C2354 C2349 1.363 . S
C2354 C2353 1.415 . S
C2355 H2331 0.951 . S
C2355 C2356 1.366 . S
C2355 C2357 1.388 . S
C2356 C2355 1.366 . S
C2356 C2360 1.385 . S
C2357 H2332 0.951 . S
C2357 C2355 1.388 . S
C2357 C2358 1.366 . S
C2358 C2357 1.366 . S
C2358 C2359 1.414 . S
C2358 C2361 1.499 . S
C2359 H2333 0.950 . S
C2359 C2358 1.414 . S
C2359 C2360 1.374 . S
C2360 H2334 0.950 . S
C2360 C2356 1.385 . S
C2360 C2359 1.374 . S
C2361 C2358 1.499 . S
C2361 C2362 1.373 . S
C2361 C2363 1.389 . S
C2362 H2335 0.950 . S
C2362 C2348 1.377 . S
C2362 C2361 1.373 . S
C2363 C2347 1.377 . S
C2363 C2361 1.389 . S
C2363 C2364 1.524 . S
C2364 C2363 1.524 . S
C2364 C2365 1.397 . S
C2364 C2369 1.363 . S
C2365 H2336 0.950 . S
C2365 C2364 1.397 . S
C2365 C2366 1.334 . S
C2366 H2337 0.950 . S
C2366 C2365 1.334 . S
C2366 C2367 1.287 . S
C2367 C2366 1.287 . S
C2367 C2368 1.524 . S
C2367 H2370 0.999 . S
C2368 H2338 0.950 . S
C2368 C2367 1.524 . S
C2368 C2369 1.415 . S
C2369 H2339 0.950 . S
C2369 C2364 1.363 . S
C2369 C2368 1.415 . S
H2370 C2367 0.999 . S
H2371 C2352 0.913 . S
H2372 C2390 0.951 . S
H2373 C2392 0.951 . S
H2374 C2394 0.950 . S
H2375 C2395 0.950 . S
H2376 C2397 0.950 . S
H2377 C2400 0.950 . S
H2378 C2401 0.950 . S
H2379 C2403 0.950 . S
H2380 C2404 0.950 . S
H2381 C2405 0.951 . S
H2382 C2407 0.951 . S
H2383 C2409 0.950 . S
H2384 C2410 0.950 . S
H2385 C2412 0.950 . S
H2386 C2415 0.950 . S
H2387 C2416 0.950 . S
H2388 C2418 0.950 . S
H2389 C2419 0.950 . S
C2390 H2372 0.951 . S
C2390 C2391 1.366 . S
C2390 C2392 1.388 . S
C2391 C2390 1.366 . S
C2391 C2395 1.385 . S
C2392 H2373 0.951 . S
C2392 C2390 1.388 . S
C2392 C2393 1.366 . S
C2393 C2392 1.366 . S
C2393 C2394 1.414 . S
C2393 C2396 1.499 . S
C2394 H2374 0.950 . S
C2394 C2393 1.414 . S
C2394 C2395 1.374 . S
C2395 H2375 0.950 . S
C2395 C2391 1.385 . S
C2395 C2394 1.374 . S
C2396 C2393 1.499 . S
C2396 C2397 1.373 . S
C2396 C2398 1.389 . S
C2397 H2376 0.950 . S
C2397 C2396 1.373 . S
C2397 C2413 1.377 . S
C2398 C2396 1.389 . S
C2398 C2399 1.524 . S
C2398 C2412 1.377 . S
C2399 C2398 1.524 . S
C2399 C2400 1.397 . S
C2399 C2404 1.363 . S
C2400 H2377 0.950 . S
C2400 C2399 1.397 . S
C2400 C2401 1.334 . S
C2401 H2378 0.950 . S
C2401 C2400 1.334 . S
C2401 C2402 1.287 . S
C2402 C2401 1.287 . S
C2402 C2403 1.524 . S
C2402 H2421 0.913 . S
C2403 H2379 0.950 . S
C2403 C2402 1.524 . S
C2403 C2404 1.415 . S
C2404 H2380 0.950 . S
C2404 C2399 1.363 . S
C2404 C2403 1.415 . S
C2405 H2381 0.951 . S
C2405 C2406 1.366 . S
C2405 C2407 1.388 . S
C2406 C2405 1.366 . S
C2406 C2410 1.385 . S
C2407 H2382 0.951 . S
C2407 C2405 1.388 . S
C2407 C2408 1.366 . S
C2408 C2407 1.366 . S
C2408 C2409 1.414 . S
C2408 C2411 1.499 . S
C2409 H2383 0.950 . S
C2409 C2408 1.414 . S
C2409 C2410 1.374 . S
C2410 H2384 0.950 . S
C2410 C2406 1.385 . S
C2410 C2409 1.374 . S
C2411 C2408 1.499 . S
C2411 C2412 1.373 . S
C2411 C2413 1.389 . S
C2412 H2385 0.950 . S
C2412 C2398 1.377 . S
C2412 C2411 1.373 . S
C2413 C2397 1.377 . S
C2413 C2411 1.389 . S
C2413 C2414 1.524 . S
C2414 C2413 1.524 . S
C2414 C2415 1.397 . S
C2414 C2419 1.363 . S
C2415 H2386 0.950 . S
C2415 C2414 1.397 . S
C2415 C2416 1.334 . S
C2416 H2387 0.950 . S
C2416 C2415 1.334 . S
C2416 C2417 1.287 . S
C2417 C2416 1.287 . S
C2417 C2418 1.524 . S
C2417 H2420 0.999 . S
C2418 H2388 0.950 . S
C2418 C2417 1.524 . S
C2418 C2419 1.415 . S
C2419 H2389 0.950 . S
C2419 C2414 1.363 . S
C2419 C2418 1.415 . S
H2420 C2417 0.999 . S
H2421 C2402 0.913 . S
H2422 C2440 0.951 . S
H2423 C2442 0.951 . S
H2424 C2444 0.950 . S
H2425 C2445 0.950 . S
H2426 C2447 0.950 . S
H2427 C2450 0.950 . S
H2428 C2451 0.950 . S
H2429 C2453 0.950 . S
H2430 C2454 0.950 . S
H2431 C2455 0.951 . S
H2432 C2457 0.951 . S
H2433 C2459 0.950 . S
H2434 C2460 0.950 . S
H2435 C2462 0.950 . S
H2436 C2465 0.950 . S
H2437 C2466 0.950 . S
H2438 C2468 0.950 . S
H2439 C2469 0.950 . S
C2440 H2422 0.951 . S
C2440 C2441 1.366 . S
C2440 C2442 1.388 . S
C2441 C2440 1.366 . S
C2441 C2445 1.385 . S
C2442 H2423 0.951 . S
C2442 C2440 1.388 . S
C2442 C2443 1.366 . S
C2443 C2442 1.366 . S
C2443 C2444 1.414 . S
C2443 C2446 1.499 . S
C2444 H2424 0.950 . S
C2444 C2443 1.414 . S
C2444 C2445 1.374 . S
C2445 H2425 0.950 . S
C2445 C2441 1.385 . S
C2445 C2444 1.374 . S
C2446 C2443 1.499 . S
C2446 C2447 1.373 . S
C2446 C2448 1.389 . S
C2447 H2426 0.950 . S
C2447 C2446 1.373 . S
C2447 C2463 1.377 . S
C2448 C2446 1.389 . S
C2448 C2449 1.524 . S
C2448 C2462 1.377 . S
C2449 C2448 1.524 . S
C2449 C2450 1.397 . S
C2449 C2454 1.363 . S
C2450 H2427 0.950 . S
C2450 C2449 1.397 . S
C2450 C2451 1.334 . S
C2451 H2428 0.950 . S
C2451 C2450 1.334 . S
C2451 C2452 1.287 . S
C2452 C2451 1.287 . S
C2452 C2453 1.524 . S
C2452 H2471 0.913 . S
C2453 H2429 0.950 . S
C2453 C2452 1.524 . S
C2453 C2454 1.415 . S
C2454 H2430 0.950 . S
C2454 C2449 1.363 . S
C2454 C2453 1.415 . S
C2455 H2431 0.951 . S
C2455 C2456 1.366 . S
C2455 C2457 1.388 . S
C2456 C2455 1.366 . S
C2456 C2460 1.385 . S
C2457 H2432 0.951 . S
C2457 C2455 1.388 . S
C2457 C2458 1.366 . S
C2458 C2457 1.366 . S
C2458 C2459 1.414 . S
C2458 C2461 1.499 . S
C2459 H2433 0.950 . S
C2459 C2458 1.414 . S
C2459 C2460 1.374 . S
C2460 H2434 0.950 . S
C2460 C2456 1.385 . S
C2460 C2459 1.374 . S
C2461 C2458 1.499 . S
C2461 C2462 1.373 . S
C2461 C2463 1.389 . S
C2462 H2435 0.950 . S
C2462 C2448 1.377 . S
C2462 C2461 1.373 . S
C2463 C2447 1.377 . S
C2463 C2461 1.389 . S
C2463 C2464 1.524 . S
C2464 C2463 1.524 . S
C2464 C2465 1.397 . S
C2464 C2469 1.363 . S
C2465 H2436 0.950 . S
C2465 C2464 1.397 . S
C2465 C2466 1.334 . S
C2466 H2437 0.950 . S
C2466 C2465 1.334 . S
C2466 C2467 1.287 . S
C2467 C2466 1.287 . S
C2467 C2468 1.524 . S
C2467 H2470 0.999 . S
C2468 H2438 0.950 . S
C2468 C2467 1.524 . S
C2468 C2469 1.415 . S
C2469 H2439 0.950 . S
C2469 C2464 1.363 . S
C2469 C2468 1.415 . S
H2470 C2467 0.999 . S
H2471 C2452 0.913 . S
H2472 C2490 0.951 . S
H2473 C2492 0.951 . S
H2474 C2494 0.950 . S
H2475 C2495 0.950 . S
H2476 C2497 0.950 . S
H2477 C2500 0.950 . S
H2478 C2501 0.950 . S
H2479 C2503 0.950 . S
H2480 C2504 0.950 . S
H2481 C2505 0.951 . S
H2482 C2507 0.951 . S
H2483 C2509 0.950 . S
H2484 C2510 0.950 . S
H2485 C2512 0.950 . S
H2486 C2515 0.950 . S
H2487 C2516 0.950 . S
H2488 C2518 0.950 . S
H2489 C2519 0.950 . S
C2490 H2472 0.951 . S
C2490 C2491 1.366 . S
C2490 C2492 1.388 . S
C2491 C2490 1.366 . S
C2491 C2495 1.385 . S
C2492 H2473 0.951 . S
C2492 C2490 1.388 . S
C2492 C2493 1.366 . S
C2493 C2492 1.366 . S
C2493 C2494 1.414 . S
C2493 C2496 1.499 . S
C2494 H2474 0.950 . S
C2494 C2493 1.414 . S
C2494 C2495 1.374 . S
C2495 H2475 0.950 . S
C2495 C2491 1.385 . S
C2495 C2494 1.374 . S
C2496 C2493 1.499 . S
C2496 C2497 1.373 . S
C2496 C2498 1.389 . S
C2497 H2476 0.950 . S
C2497 C2496 1.373 . S
C2497 C2513 1.377 . S
C2498 C2496 1.389 . S
C2498 C2499 1.524 . S
C2498 C2512 1.377 . S
C2499 C2498 1.524 . S
C2499 C2500 1.397 . S
C2499 C2504 1.363 . S
C2500 H2477 0.950 . S
C2500 C2499 1.397 . S
C2500 C2501 1.334 . S
C2501 H2478 0.950 . S
C2501 C2500 1.334 . S
C2501 C2502 1.287 . S
C2502 C2501 1.287 . S
C2502 C2503 1.524 . S
C2502 H2521 0.913 . S
C2503 H2479 0.950 . S
C2503 C2502 1.524 . S
C2503 C2504 1.415 . S
C2504 H2480 0.950 . S
C2504 C2499 1.363 . S
C2504 C2503 1.415 . S
C2505 H2481 0.951 . S
C2505 C2506 1.366 . S
C2505 C2507 1.388 . S
C2506 C2505 1.366 . S
C2506 C2510 1.385 . S
C2507 H2482 0.951 . S
C2507 C2505 1.388 . S
C2507 C2508 1.366 . S
C2508 C2507 1.366 . S
C2508 C2509 1.414 . S
C2508 C2511 1.499 . S
C2509 H2483 0.950 . S
C2509 C2508 1.414 . S
C2509 C2510 1.374 . S
C2510 H2484 0.950 . S
C2510 C2506 1.385 . S
C2510 C2509 1.374 . S
C2511 C2508 1.499 . S
C2511 C2512 1.373 . S
C2511 C2513 1.389 . S
C2512 H2485 0.950 . S
C2512 C2498 1.377 . S
C2512 C2511 1.373 . S
C2513 C2497 1.377 . S
C2513 C2511 1.389 . S
C2513 C2514 1.524 . S
C2514 C2513 1.524 . S
C2514 C2515 1.397 . S
C2514 C2519 1.363 . S
C2515 H2486 0.950 . S
C2515 C2514 1.397 . S
C2515 C2516 1.334 . S
C2516 H2487 0.950 . S
C2516 C2515 1.334 . S
C2516 C2517 1.287 . S
C2517 C2516 1.287 . S
C2517 C2518 1.524 . S
C2517 H2520 0.999 . S
C2518 H2488 0.950 . S
C2518 C2517 1.524 . S
C2518 C2519 1.415 . S
C2519 H2489 0.950 . S
C2519 C2514 1.363 . S
C2519 C2518 1.415 . S
H2520 C2517 0.999 . S
H2521 C2502 0.913 . S
H2522 C2540 0.951 . S
H2523 C2542 0.951 . S
H2524 C2544 0.950 . S
H2525 C2545 0.950 . S
H2526 C2547 0.950 . S
H2527 C2550 0.950 . S
H2528 C2551 0.950 . S
H2529 C2553 0.950 . S
H2530 C2554 0.950 . S
H2531 C2555 0.951 . S
H2532 C2557 0.951 . S
H2533 C2559 0.950 . S
H2534 C2560 0.950 . S
H2535 C2562 0.950 . S
H2536 C2565 0.950 . S
H2537 C2566 0.950 . S
H2538 C2568 0.950 . S
H2539 C2569 0.950 . S
C2540 H2522 0.951 . S
C2540 C2541 1.366 . S
C2540 C2542 1.388 . S
C2541 C2540 1.366 . S
C2541 C2545 1.385 . S
C2542 H2523 0.951 . S
C2542 C2540 1.388 . S
C2542 C2543 1.366 . S
C2543 C2542 1.366 . S
C2543 C2544 1.414 . S
C2543 C2546 1.499 . S
C2544 H2524 0.950 . S
C2544 C2543 1.414 . S
C2544 C2545 1.374 . S
C2545 H2525 0.950 . S
C2545 C2541 1.385 . S
C2545 C2544 1.374 . S
C2546 C2543 1.499 . S
C2546 C2547 1.373 . S
C2546 C2548 1.389 . S
C2547 H2526 0.950 . S
C2547 C2546 1.373 . S
C2547 C2563 1.377 . S
C2548 C2546 1.389 . S
C2548 C2549 1.524 . S
C2548 C2562 1.377 . S
C2549 C2548 1.524 . S
C2549 C2550 1.397 . S
C2549 C2554 1.363 . S
C2550 H2527 0.950 . S
C2550 C2549 1.397 . S
C2550 C2551 1.334 . S
C2551 H2528 0.950 . S
C2551 C2550 1.334 . S
C2551 C2552 1.287 . S
C2552 C2551 1.287 . S
C2552 C2553 1.524 . S
C2552 H2571 0.913 . S
C2553 H2529 0.950 . S
C2553 C2552 1.524 . S
C2553 C2554 1.415 . S
C2554 H2530 0.950 . S
C2554 C2549 1.363 . S
C2554 C2553 1.415 . S
C2555 H2531 0.951 . S
C2555 C2556 1.366 . S
C2555 C2557 1.388 . S
C2556 C2555 1.366 . S
C2556 C2560 1.385 . S
C2557 H2532 0.951 . S
C2557 C2555 1.388 . S
C2557 C2558 1.366 . S
C2558 C2557 1.366 . S
C2558 C2559 1.414 . S
C2558 C2561 1.499 . S
C2559 H2533 0.950 . S
C2559 C2558 1.414 . S
C2559 C2560 1.374 . S
C2560 H2534 0.950 . S
C2560 C2556 1.385 . S
C2560 C2559 1.374 . S
C2561 C2558 1.499 . S
C2561 C2562 1.373 . S
C2561 C2563 1.389 . S
C2562 H2535 0.950 . S
C2562 C2548 1.377 . S
C2562 C2561 1.373 . S
C2563 C2547 1.377 . S
C2563 C2561 1.389 . S
C2563 C2564 1.524 . S
C2564 C2563 1.524 . S
C2564 C2565 1.397 . S
C2564 C2569 1.363 . S
C2565 H2536 0.950 . S
C2565 C2564 1.397 . S
C2565 C2566 1.334 . S
C2566 H2537 0.950 . S
C2566 C2565 1.334 . S
C2566 C2567 1.287 . S
C2567 C2566 1.287 . S
C2567 C2568 1.524 . S
C2567 H2570 0.999 . S
C2568 H2538 0.950 . S
C2568 C2567 1.524 . S
C2568 C2569 1.415 . S
C2569 H2539 0.950 . S
C2569 C2564 1.363 . S
C2569 C2568 1.415 . S
H2570 C2567 0.999 . S
H2571 C2552 0.913 . S
H2572 C2590 0.951 . S
H2573 C2592 0.951 . S
H2574 C2594 0.950 . S
H2575 C2595 0.950 . S
H2576 C2597 0.950 . S
H2577 C2600 0.950 . S
H2578 C2601 0.950 . S
H2579 C2603 0.950 . S
H2580 C2604 0.950 . S
H2581 C2605 0.951 . S
H2582 C2607 0.951 . S
H2583 C2609 0.950 . S
H2584 C2610 0.950 . S
H2585 C2612 0.950 . S
H2586 C2615 0.950 . S
H2587 C2616 0.950 . S
H2588 C2618 0.950 . S
H2589 C2619 0.950 . S
C2590 H2572 0.951 . S
C2590 C2591 1.366 . S
C2590 C2592 1.388 . S
C2591 C2590 1.366 . S
C2591 C2595 1.385 . S
C2592 H2573 0.951 . S
C2592 C2590 1.388 . S
C2592 C2593 1.366 . S
C2593 C2592 1.366 . S
C2593 C2594 1.414 . S
C2593 C2596 1.499 . S
C2594 H2574 0.950 . S
C2594 C2593 1.414 . S
C2594 C2595 1.374 . S
C2595 H2575 0.950 . S
C2595 C2591 1.385 . S
C2595 C2594 1.374 . S
C2596 C2593 1.499 . S
C2596 C2597 1.373 . S
C2596 C2598 1.389 . S
C2597 H2576 0.950 . S
C2597 C2596 1.373 . S
C2597 C2613 1.377 . S
C2598 C2596 1.389 . S
C2598 C2599 1.524 . S
C2598 C2612 1.377 . S
C2599 C2598 1.524 . S
C2599 C2600 1.397 . S
C2599 C2604 1.363 . S
C2600 H2577 0.950 . S
C2600 C2599 1.397 . S
C2600 C2601 1.334 . S
C2601 H2578 0.950 . S
C2601 C2600 1.334 . S
C2601 C2602 1.287 . S
C2602 C2601 1.287 . S
C2602 C2603 1.524 . S
C2602 H2621 0.913 . S
C2603 H2579 0.950 . S
C2603 C2602 1.524 . S
C2603 C2604 1.415 . S
C2604 H2580 0.950 . S
C2604 C2599 1.363 . S
C2604 C2603 1.415 . S
C2605 H2581 0.951 . S
C2605 C2606 1.366 . S
C2605 C2607 1.388 . S
C2606 C2605 1.366 . S
C2606 C2610 1.385 . S
C2607 H2582 0.951 . S
C2607 C2605 1.388 . S
C2607 C2608 1.366 . S
C2608 C2607 1.366 . S
C2608 C2609 1.414 . S
C2608 C2611 1.499 . S
C2609 H2583 0.950 . S
C2609 C2608 1.414 . S
C2609 C2610 1.374 . S
C2610 H2584 0.950 . S
C2610 C2606 1.385 . S
C2610 C2609 1.374 . S
C2611 C2608 1.499 . S
C2611 C2612 1.373 . S
C2611 C2613 1.389 . S
C2612 H2585 0.950 . S
C2612 C2598 1.377 . S
C2612 C2611 1.373 . S
C2613 C2597 1.377 . S
C2613 C2611 1.389 . S
C2613 C2614 1.524 . S
C2614 C2613 1.524 . S
C2614 C2615 1.397 . S
C2614 C2619 1.363 . S
C2615 H2586 0.950 . S
C2615 C2614 1.397 . S
C2615 C2616 1.334 . S
C2616 H2587 0.950 . S
C2616 C2615 1.334 . S
C2616 C2617 1.287 . S
C2617 C2616 1.287 . S
C2617 C2618 1.524 . S
C2617 H2620 0.999 . S
C2618 H2588 0.950 . S
C2618 C2617 1.524 . S
C2618 C2619 1.415 . S
C2619 H2589 0.950 . S
C2619 C2614 1.363 . S
C2619 C2618 1.415 . S
H2620 C2617 0.999 . S
H2621 C2602 0.913 . S
H2622 C2640 0.951 . S
H2623 C2642 0.951 . S
H2624 C2644 0.950 . S
H2625 C2645 0.950 . S
H2626 C2647 0.950 . S
H2627 C2650 0.950 . S
H2628 C2651 0.950 . S
H2629 C2653 0.950 . S
H2630 C2654 0.950 . S
H2631 C2655 0.951 . S
H2632 C2657 0.951 . S
H2633 C2659 0.950 . S
H2634 C2660 0.950 . S
H2635 C2662 0.950 . S
H2636 C2665 0.950 . S
H2637 C2666 0.950 . S
H2638 C2668 0.950 . S
H2639 C2669 0.950 . S
C2640 H2622 0.951 . S
C2640 C2641 1.366 . S
C2640 C2642 1.388 . S
C2641 C2640 1.366 . S
C2641 C2645 1.385 . S
C2642 H2623 0.951 . S
C2642 C2640 1.388 . S
C2642 C2643 1.366 . S
C2643 C2642 1.366 . S
C2643 C2644 1.414 . S
C2643 C2646 1.499 . S
C2644 H2624 0.950 . S
C2644 C2643 1.414 . S
C2644 C2645 1.374 . S
C2645 H2625 0.950 . S
C2645 C2641 1.385 . S
C2645 C2644 1.374 . S
C2646 C2643 1.499 . S
C2646 C2647 1.373 . S
C2646 C2648 1.389 . S
C2647 H2626 0.950 . S
C2647 C2646 1.373 . S
C2647 C2663 1.377 . S
C2648 C2646 1.389 . S
C2648 C2649 1.524 . S
C2648 C2662 1.377 . S
C2649 C2648 1.524 . S
C2649 C2650 1.397 . S
C2649 C2654 1.363 . S
C2650 H2627 0.950 . S
C2650 C2649 1.397 . S
C2650 C2651 1.334 . S
C2651 H2628 0.950 . S
C2651 C2650 1.334 . S
C2651 C2652 1.287 . S
C2652 C2651 1.287 . S
C2652 C2653 1.524 . S
C2652 H2671 0.913 . S
C2653 H2629 0.950 . S
C2653 C2652 1.524 . S
C2653 C2654 1.415 . S
C2654 H2630 0.950 . S
C2654 C2649 1.363 . S
C2654 C2653 1.415 . S
C2655 H2631 0.951 . S
C2655 C2656 1.366 . S
C2655 C2657 1.388 . S
C2656 C2655 1.366 . S
C2656 C2660 1.385 . S
C2657 H2632 0.951 . S
C2657 C2655 1.388 . S
C2657 C2658 1.366 . S
C2658 C2657 1.366 . S
C2658 C2659 1.414 . S
C2658 C2661 1.499 . S
C2659 H2633 0.950 . S
C2659 C2658 1.414 . S
C2659 C2660 1.374 . S
C2660 H2634 0.950 . S
C2660 C2656 1.385 . S
C2660 C2659 1.374 . S
C2661 C2658 1.499 . S
C2661 C2662 1.373 . S
C2661 C2663 1.389 . S
C2662 H2635 0.950 . S
C2662 C2648 1.377 . S
C2662 C2661 1.373 . S
C2663 C2647 1.377 . S
C2663 C2661 1.389 . S
C2663 C2664 1.524 . S
C2664 C2663 1.524 . S
C2664 C2665 1.397 . S
C2664 C2669 1.363 . S
C2665 H2636 0.950 . S
C2665 C2664 1.397 . S
C2665 C2666 1.334 . S
C2666 H2637 0.950 . S
C2666 C2665 1.334 . S
C2666 C2667 1.287 . S
C2667 C2666 1.287 . S
C2667 C2668 1.524 . S
C2667 H2670 0.999 . S
C2668 H2638 0.950 . S
C2668 C2667 1.524 . S
C2668 C2669 1.415 . S
C2669 H2639 0.950 . S
C2669 C2664 1.363 . S
C2669 C2668 1.415 . S
H2670 C2667 0.999 . S
H2671 C2652 0.913 . S
H2672 C2690 0.951 . S
H2673 C2692 0.951 . S
H2674 C2694 0.950 . S
H2675 C2695 0.950 . S
H2676 C2697 0.950 . S
H2677 C2700 0.950 . S
H2678 C2701 0.950 . S
H2679 C2703 0.950 . S
H2680 C2704 0.950 . S
H2681 C2705 0.951 . S
H2682 C2707 0.951 . S
H2683 C2709 0.950 . S
H2684 C2710 0.950 . S
H2685 C2712 0.950 . S
H2686 C2715 0.950 . S
H2687 C2716 0.950 . S
H2688 C2718 0.950 . S
H2689 C2719 0.950 . S
C2690 H2672 0.951 . S
C2690 C2691 1.366 . S
C2690 C2692 1.388 . S
C2691 C2690 1.366 . S
C2691 C2695 1.385 . S
C2692 H2673 0.951 . S
C2692 C2690 1.388 . S
C2692 C2693 1.366 . S
C2693 C2692 1.366 . S
C2693 C2694 1.414 . S
C2693 C2696 1.499 . S
C2694 H2674 0.950 . S
C2694 C2693 1.414 . S
C2694 C2695 1.374 . S
C2695 H2675 0.950 . S
C2695 C2691 1.385 . S
C2695 C2694 1.374 . S
C2696 C2693 1.499 . S
C2696 C2697 1.373 . S
C2696 C2698 1.389 . S
C2697 H2676 0.950 . S
C2697 C2696 1.373 . S
C2697 C2713 1.377 . S
C2698 C2696 1.389 . S
C2698 C2699 1.524 . S
C2698 C2712 1.377 . S
C2699 C2698 1.524 . S
C2699 C2700 1.397 . S
C2699 C2704 1.363 . S
C2700 H2677 0.950 . S
C2700 C2699 1.397 . S
C2700 C2701 1.334 . S
C2701 H2678 0.950 . S
C2701 C2700 1.334 . S
C2701 C2702 1.287 . S
C2702 C2701 1.287 . S
C2702 C2703 1.524 . S
C2702 H2721 0.913 . S
C2703 H2679 0.950 . S
C2703 C2702 1.524 . S
C2703 C2704 1.415 . S
C2704 H2680 0.950 . S
C2704 C2699 1.363 . S
C2704 C2703 1.415 . S
C2705 H2681 0.951 . S
C2705 C2706 1.366 . S
C2705 C2707 1.388 . S
C2706 C2705 1.366 . S
C2706 C2710 1.385 . S
C2707 H2682 0.951 . S
C2707 C2705 1.388 . S
C2707 C2708 1.366 . S
C2708 C2707 1.366 . S
C2708 C2709 1.414 . S
C2708 C2711 1.499 . S
C2709 H2683 0.950 . S
C2709 C2708 1.414 . S
C2709 C2710 1.374 . S
C2710 H2684 0.950 . S
C2710 C2706 1.385 . S
C2710 C2709 1.374 . S
C2711 C2708 1.499 . S
C2711 C2712 1.373 . S
C2711 C2713 1.389 . S
C2712 H2685 0.950 . S
C2712 C2698 1.377 . S
C2712 C2711 1.373 . S
C2713 C2697 1.377 . S
C2713 C2711 1.389 . S
C2713 C2714 1.524 . S
C2714 C2713 1.524 . S
C2714 C2715 1.397 . S
C2714 C2719 1.363 . S
C2715 H2686 0.950 . S
C2715 C2714 1.397 . S
C2715 C2716 1.334 . S
C2716 H2687 0.950 . S
C2716 C2715 1.334 . S
C2716 C2717 1.287 . S
C2717 C2716 1.287 . S
C2717 C2718 1.524 . S
C2717 H2720 0.999 . S
C2718 H2688 0.950 . S
C2718 C2717 1.524 . S
C2718 C2719 1.415 . S
C2719 H2689 0.950 . S
C2719 C2714 1.363 . S
C2719 C2718 1.415 . S
H2720 C2717 0.999 . S
H2721 C2702 0.913 . S
H2722 C2740 0.951 . S
H2723 C2742 0.951 . S
H2724 C2744 0.950 . S
H2725 C2745 0.950 . S
H2726 C2747 0.950 . S
H2727 C2750 0.950 . S
H2728 C2751 0.950 . S
H2729 C2753 0.950 . S
H2730 C2754 0.950 . S
H2731 C2755 0.951 . S
H2732 C2757 0.951 . S
H2733 C2759 0.950 . S
H2734 C2760 0.950 . S
H2735 C2762 0.950 . S
H2736 C2765 0.950 . S
H2737 C2766 0.950 . S
H2738 C2768 0.950 . S
H2739 C2769 0.950 . S
C2740 H2722 0.951 . S
C2740 C2741 1.366 . S
C2740 C2742 1.388 . S
C2741 C2740 1.366 . S
C2741 C2745 1.385 . S
C2742 H2723 0.951 . S
C2742 C2740 1.388 . S
C2742 C2743 1.366 . S
C2743 C2742 1.366 . S
C2743 C2744 1.414 . S
C2743 C2746 1.499 . S
C2744 H2724 0.950 . S
C2744 C2743 1.414 . S
C2744 C2745 1.374 . S
C2745 H2725 0.950 . S
C2745 C2741 1.385 . S
C2745 C2744 1.374 . S
C2746 C2743 1.499 . S
C2746 C2747 1.373 . S
C2746 C2748 1.389 . S
C2747 H2726 0.950 . S
C2747 C2746 1.373 . S
C2747 C2763 1.377 . S
C2748 C2746 1.389 . S
C2748 C2749 1.524 . S
C2748 C2762 1.377 . S
C2749 C2748 1.524 . S
C2749 C2750 1.397 . S
C2749 C2754 1.363 . S
C2750 H2727 0.950 . S
C2750 C2749 1.397 . S
C2750 C2751 1.334 . S
C2751 H2728 0.950 . S
C2751 C2750 1.334 . S
C2751 C2752 1.287 . S
C2752 C2751 1.287 . S
C2752 C2753 1.524 . S
C2752 H2771 0.913 . S
C2753 H2729 0.950 . S
C2753 C2752 1.524 . S
C2753 C2754 1.415 . S
C2754 H2730 0.950 . S
C2754 C2749 1.363 . S
C2754 C2753 1.415 . S
C2755 H2731 0.951 . S
C2755 C2756 1.366 . S
C2755 C2757 1.388 . S
C2756 C2755 1.366 . S
C2756 C2760 1.385 . S
C2757 H2732 0.951 . S
C2757 C2755 1.388 . S
C2757 C2758 1.366 . S
C2758 C2757 1.366 . S
C2758 C2759 1.414 . S
C2758 C2761 1.499 . S
C2759 H2733 0.950 . S
C2759 C2758 1.414 . S
C2759 C2760 1.374 . S
C2760 H2734 0.950 . S
C2760 C2756 1.385 . S
C2760 C2759 1.374 . S
C2761 C2758 1.499 . S
C2761 C2762 1.373 . S
C2761 C2763 1.389 . S
C2762 H2735 0.950 . S
C2762 C2748 1.377 . S
C2762 C2761 1.373 . S
C2763 C2747 1.377 . S
C2763 C2761 1.389 . S
C2763 C2764 1.524 . S
C2764 C2763 1.524 . S
C2764 C2765 1.397 . S
C2764 C2769 1.363 . S
C2765 H2736 0.950 . S
C2765 C2764 1.397 . S
C2765 C2766 1.334 . S
C2766 H2737 0.950 . S
C2766 C2765 1.334 . S
C2766 C2767 1.287 . S
C2767 C2766 1.287 . S
C2767 C2768 1.524 . S
C2767 H2770 0.999 . S
C2768 H2738 0.950 . S
C2768 C2767 1.524 . S
C2768 C2769 1.415 . S
C2769 H2739 0.950 . S
C2769 C2764 1.363 . S
C2769 C2768 1.415 . S
H2770 C2767 0.999 . S
H2771 C2752 0.913 . S
H2772 C2790 0.951 . S
H2773 C2792 0.951 . S
H2774 C2794 0.950 . S
H2775 C2795 0.950 . S
H2776 C2797 0.950 . S
H2777 C2800 0.950 . S
H2778 C2801 0.950 . S
H2779 C2803 0.950 . S
H2780 C2804 0.950 . S
H2781 C2805 0.951 . S
H2782 C2807 0.951 . S
H2783 C2809 0.950 . S
H2784 C2810 0.950 . S
H2785 C2812 0.950 . S
H2786 C2815 0.950 . S
H2787 C2816 0.950 . S
H2788 C2818 0.950 . S
H2789 C2819 0.950 . S
C2790 H2772 0.951 . S
C2790 C2791 1.366 . S
C2790 C2792 1.388 . S
C2791 C2790 1.366 . S
C2791 C2795 1.385 . S
C2792 H2773 0.951 . S
C2792 C2790 1.388 . S
C2792 C2793 1.366 . S
C2793 C2792 1.366 . S
C2793 C2794 1.414 . S
C2793 C2796 1.499 . S
C2794 H2774 0.950 . S
C2794 C2793 1.414 . S
C2794 C2795 1.374 . S
C2795 H2775 0.950 . S
C2795 C2791 1.385 . S
C2795 C2794 1.374 . S
C2796 C2793 1.499 . S
C2796 C2797 1.373 . S
C2796 C2798 1.389 . S
C2797 H2776 0.950 . S
C2797 C2796 1.373 . S
C2797 C2813 1.377 . S
C2798 C2796 1.389 . S
C2798 C2799 1.524 . S
C2798 C2812 1.377 . S
C2799 C2798 1.524 . S
C2799 C2800 1.397 . S
C2799 C2804 1.363 . S
C2800 H2777 0.950 . S
C2800 C2799 1.397 . S
C2800 C2801 1.334 . S
C2801 H2778 0.950 . S
C2801 C2800 1.334 . S
C2801 C2802 1.287 . S
C2802 C2801 1.287 . S
C2802 C2803 1.524 . S
C2802 H2821 0.913 . S
C2803 H2779 0.950 . S
C2803 C2802 1.524 . S
C2803 C2804 1.415 . S
C2804 H2780 0.950 . S
C2804 C2799 1.363 . S
C2804 C2803 1.415 . S
C2805 H2781 0.951 . S
C2805 C2806 1.366 . S
C2805 C2807 1.388 . S
C2806 C2805 1.366 . S
C2806 C2810 1.385 . S
C2807 H2782 0.951 . S
C2807 C2805 1.388 . S
C2807 C2808 1.366 . S
C2808 C2807 1.366 . S
C2808 C2809 1.414 . S
C2808 C2811 1.499 . S
C2809 H2783 0.950 . S
C2809 C2808 1.414 . S
C2809 C2810 1.374 . S
C2810 H2784 0.950 . S
C2810 C2806 1.385 . S
C2810 C2809 1.374 . S
C2811 C2808 1.499 . S
C2811 C2812 1.373 . S
C2811 C2813 1.389 . S
C2812 H2785 0.950 . S
C2812 C2798 1.377 . S
C2812 C2811 1.373 . S
C2813 C2797 1.377 . S
C2813 C2811 1.389 . S
C2813 C2814 1.524 . S
C2814 C2813 1.524 . S
C2814 C2815 1.397 . S
C2814 C2819 1.363 . S
C2815 H2786 0.950 . S
C2815 C2814 1.397 . S
C2815 C2816 1.334 . S
C2816 H2787 0.950 . S
C2816 C2815 1.334 . S
C2816 C2817 1.287 . S
C2817 C2816 1.287 . S
C2817 C2818 1.524 . S
C2817 H2820 0.999 . S
C2818 H2788 0.950 . S
C2818 C2817 1.524 . S
C2818 C2819 1.415 . S
C2819 H2789 0.950 . S
C2819 C2814 1.363 . S
C2819 C2818 1.415 . S
H2820 C2817 0.999 . S
H2821 C2802 0.913 . S
H2822 C2840 0.951 . S
H2823 C2842 0.951 . S
H2824 C2844 0.950 . S
H2825 C2845 0.950 . S
H2826 C2847 0.950 . S
H2827 C2850 0.950 . S
H2828 C2851 0.950 . S
H2829 C2853 0.950 . S
H2830 C2854 0.950 . S
H2831 C2855 0.951 . S
H2832 C2857 0.951 . S
H2833 C2859 0.950 . S
H2834 C2860 0.950 . S
H2835 C2862 0.950 . S
H2836 C2865 0.950 . S
H2837 C2866 0.950 . S
H2838 C2868 0.950 . S
H2839 C2869 0.950 . S
C2840 H2822 0.951 . S
C2840 C2841 1.366 . S
C2840 C2842 1.388 . S
C2841 C2840 1.366 . S
C2841 C2845 1.385 . S
C2842 H2823 0.951 . S
C2842 C2840 1.388 . S
C2842 C2843 1.366 . S
C2843 C2842 1.366 . S
C2843 C2844 1.414 . S
C2843 C2846 1.499 . S
C2844 H2824 0.950 . S
C2844 C2843 1.414 . S
C2844 C2845 1.374 . S
C2845 H2825 0.950 . S
C2845 C2841 1.385 . S
C2845 C2844 1.374 . S
C2846 C2843 1.499 . S
C2846 C2847 1.373 . S
C2846 C2848 1.389 . S
C2847 H2826 0.950 . S
C2847 C2846 1.373 . S
C2847 C2863 1.377 . S
C2848 C2846 1.389 . S
C2848 C2849 1.524 . S
C2848 C2862 1.377 . S
C2849 C2848 1.524 . S
C2849 C2850 1.397 . S
C2849 C2854 1.363 . S
C2850 H2827 0.950 . S
C2850 C2849 1.397 . S
C2850 C2851 1.334 . S
C2851 H2828 0.950 . S
C2851 C2850 1.334 . S
C2851 C2852 1.287 . S
C2852 C2851 1.287 . S
C2852 C2853 1.524 . S
C2852 H2871 0.913 . S
C2853 H2829 0.950 . S
C2853 C2852 1.524 . S
C2853 C2854 1.415 . S
C2854 H2830 0.950 . S
C2854 C2849 1.363 . S
C2854 C2853 1.415 . S
C2855 H2831 0.951 . S
C2855 C2856 1.366 . S
C2855 C2857 1.388 . S
C2856 C2855 1.366 . S
C2856 C2860 1.385 . S
C2857 H2832 0.951 . S
C2857 C2855 1.388 . S
C2857 C2858 1.366 . S
C2858 C2857 1.366 . S
C2858 C2859 1.414 . S
C2858 C2861 1.499 . S
C2859 H2833 0.950 . S
C2859 C2858 1.414 . S
C2859 C2860 1.374 . S
C2860 H2834 0.950 . S
C2860 C2856 1.385 . S
C2860 C2859 1.374 . S
C2861 C2858 1.499 . S
C2861 C2862 1.373 . S
C2861 C2863 1.389 . S
C2862 H2835 0.950 . S
C2862 C2848 1.377 . S
C2862 C2861 1.373 . S
C2863 C2847 1.377 . S
C2863 C2861 1.389 . S
C2863 C2864 1.524 . S
C2864 C2863 1.524 . S
C2864 C2865 1.397 . S
C2864 C2869 1.363 . S
C2865 H2836 0.950 . S
C2865 C2864 1.397 . S
C2865 C2866 1.334 . S
C2866 H2837 0.950 . S
C2866 C2865 1.334 . S
C2866 C2867 1.287 . S
C2867 C2866 1.287 . S
C2867 C2868 1.524 . S
C2867 H2870 0.999 . S
C2868 H2838 0.950 . S
C2868 C2867 1.524 . S
C2868 C2869 1.415 . S
C2869 H2839 0.950 . S
C2869 C2864 1.363 . S
C2869 C2868 1.415 . S
H2870 C2867 0.999 . S
H2871 C2852 0.913 . S
H2872 C2890 0.951 . S
H2873 C2892 0.951 . S
H2874 C2894 0.950 . S
H2875 C2895 0.950 . S
H2876 C2897 0.950 . S
H2877 C2900 0.950 . S
H2878 C2901 0.950 . S
H2879 C2903 0.950 . S
H2880 C2904 0.950 . S
H2881 C2905 0.951 . S
H2882 C2907 0.951 . S
H2883 C2909 0.950 . S
H2884 C2910 0.950 . S
H2885 C2912 0.950 . S
H2886 C2915 0.950 . S
H2887 C2916 0.950 . S
H2888 C2918 0.950 . S
H2889 C2919 0.950 . S
C2890 H2872 0.951 . S
C2890 C2891 1.366 . S
C2890 C2892 1.388 . S
C2891 C2890 1.366 . S
C2891 C2895 1.385 . S
C2892 H2873 0.951 . S
C2892 C2890 1.388 . S
C2892 C2893 1.366 . S
C2893 C2892 1.366 . S
C2893 C2894 1.414 . S
C2893 C2896 1.499 . S
C2894 H2874 0.950 . S
C2894 C2893 1.414 . S
C2894 C2895 1.374 . S
C2895 H2875 0.950 . S
C2895 C2891 1.385 . S
C2895 C2894 1.374 . S
C2896 C2893 1.499 . S
C2896 C2897 1.373 . S
C2896 C2898 1.389 . S
C2897 H2876 0.950 . S
C2897 C2896 1.373 . S
C2897 C2913 1.377 . S
C2898 C2896 1.389 . S
C2898 C2899 1.524 . S
C2898 C2912 1.377 . S
C2899 C2898 1.524 . S
C2899 C2900 1.397 . S
C2899 C2904 1.363 . S
C2900 H2877 0.950 . S
C2900 C2899 1.397 . S
C2900 C2901 1.334 . S
C2901 H2878 0.950 . S
C2901 C2900 1.334 . S
C2901 C2902 1.287 . S
C2902 C2901 1.287 . S
C2902 C2903 1.524 . S
C2902 H2921 0.913 . S
C2903 H2879 0.950 . S
C2903 C2902 1.524 . S
C2903 C2904 1.415 . S
C2904 H2880 0.950 . S
C2904 C2899 1.363 . S
C2904 C2903 1.415 . S
C2905 H2881 0.951 . S
C2905 C2906 1.366 . S
C2905 C2907 1.388 . S
C2906 C2905 1.366 . S
C2906 C2910 1.385 . S
C2907 H2882 0.951 . S
C2907 C2905 1.388 . S
C2907 C2908 1.366 . S
C2908 C2907 1.366 . S
C2908 C2909 1.414 . S
C2908 C2911 1.499 . S
C2909 H2883 0.950 . S
C2909 C2908 1.414 . S
C2909 C2910 1.374 . S
C2910 H2884 0.950 . S
C2910 C2906 1.385 . S
C2910 C2909 1.374 . S
C2911 C2908 1.499 . S
C2911 C2912 1.373 . S
C2911 C2913 1.389 . S
C2912 H2885 0.950 . S
C2912 C2898 1.377 . S
C2912 C2911 1.373 . S
C2913 C2897 1.377 . S
C2913 C2911 1.389 . S
C2913 C2914 1.524 . S
C2914 C2913 1.524 . S
C2914 C2915 1.397 . S
C2914 C2919 1.363 . S
C2915 H2886 0.950 . S
C2915 C2914 1.397 . S
C2915 C2916 1.334 . S
C2916 H2887 0.950 . S
C2916 C2915 1.334 . S
C2916 C2917 1.287 . S
C2917 C2916 1.287 . S
C2917 C2918 1.524 . S
C2917 H2920 0.999 . S
C2918 H2888 0.950 . S
C2918 C2917 1.524 . S
C2918 C2919 1.415 . S
C2919 H2889 0.950 . S
C2919 C2914 1.363 . S
C2919 C2918 1.415 . S
H2920 C2917 0.999 . S
H2921 C2902 0.913 . S
H2922 C2940 0.951 . S
H2923 C2942 0.951 . S
H2924 C2944 0.950 . S
H2925 C2945 0.950 . S
H2926 C2947 0.950 . S
H2927 C2950 0.950 . S
H2928 C2951 0.950 . S
H2929 C2953 0.950 . S
H2930 C2954 0.950 . S
H2931 C2955 0.951 . S
H2932 C2957 0.951 . S
H2933 C2959 0.950 . S
H2934 C2960 0.950 . S
H2935 C2962 0.950 . S
H2936 C2965 0.950 . S
H2937 C2966 0.950 . S
H2938 C2968 0.950 . S
H2939 C2969 0.950 . S
C2940 H2922 0.951 . S
C2940 C2941 1.366 . S
C2940 C2942 1.388 . S
C2941 C2940 1.366 . S
C2941 C2945 1.385 . S
C2942 H2923 0.951 . S
C2942 C2940 1.388 . S
C2942 C2943 1.366 . S
C2943 C2942 1.366 . S
C2943 C2944 1.414 . S
C2943 C2946 1.499 . S
C2944 H2924 0.950 . S
C2944 C2943 1.414 . S
C2944 C2945 1.374 . S
C2945 H2925 0.950 . S
C2945 C2941 1.385 . S
C2945 C2944 1.374 . S
C2946 C2943 1.499 . S
C2946 C2947 1.373 . S
C2946 C2948 1.389 . S
C2947 H2926 0.950 . S
C2947 C2946 1.373 . S
C2947 C2963 1.377 . S
C2948 C2946 1.389 . S
C2948 C2949 1.524 . S
C2948 C2962 1.377 . S
C2949 C2948 1.524 . S
C2949 C2950 1.397 . S
C2949 C2954 1.363 . S
C2950 H2927 0.950 . S
C2950 C2949 1.397 . S
C2950 C2951 1.334 . S
C2951 H2928 0.950 . S
C2951 C2950 1.334 . S
C2951 C2952 1.287 . S
C2952 C2951 1.287 . S
C2952 C2953 1.524 . S
C2952 H2971 0.913 . S
C2953 H2929 0.950 . S
C2953 C2952 1.524 . S
C2953 C2954 1.415 . S
C2954 H2930 0.950 . S
C2954 C2949 1.363 . S
C2954 C2953 1.415 . S
C2955 H2931 0.951 . S
C2955 C2956 1.366 . S
C2955 C2957 1.388 . S
C2956 C2955 1.366 . S
C2956 C2960 1.385 . S
C2957 H2932 0.951 . S
C2957 C2955 1.388 . S
C2957 C2958 1.366 . S
C2958 C2957 1.366 . S
C2958 C2959 1.414 . S
C2958 C2961 1.499 . S
C2959 H2933 0.950 . S
C2959 C2958 1.414 . S
C2959 C2960 1.374 . S
C2960 H2934 0.950 . S
C2960 C2956 1.385 . S
C2960 C2959 1.374 . S
C2961 C2958 1.499 . S
C2961 C2962 1.373 . S
C2961 C2963 1.389 . S
C2962 H2935 0.950 . S
C2962 C2948 1.377 . S
C2962 C2961 1.373 . S
C2963 C2947 1.377 . S
C2963 C2961 1.389 . S
C2963 C2964 1.524 . S
C2964 C2963 1.524 . S
C2964 C2965 1.397 . S
C2964 C2969 1.363 . S
C2965 H2936 0.950 . S
C2965 C2964 1.397 . S
C2965 C2966 1.334 . S
C2966 H2937 0.950 . S
C2966 C2965 1.334 . S
C2966 C2967 1.287 . S
C2967 C2966 1.287 . S
C2967 C2968 1.524 . S
C2967 H2970 0.999 . S
C2968 H2938 0.950 . S
C2968 C2967 1.524 . S
C2968 C2969 1.415 . S
C2969 H2939 0.950 . S
C2969 C2964 1.363 . S
C2969 C2968 1.415 . S
H2970 C2967 0.999 . S
H2971 C2952 0.913 . S
H2972 C2990 0.951 . S
H2973 C2992 0.951 . S
H2974 C2994 0.950 . S
H2975 C2995 0.950 . S
H2976 C2997 0.950 . S
H2977 C3000 0.950 . S
H2978 C3001 0.950 . S
H2979 C3003 0.950 . S
H2980 C3004 0.950 . S
H2981 C3005 0.951 . S
H2982 C3007 0.951 . S
H2983 C3009 0.950 . S
H2984 C3010 0.950 . S
H2985 C3012 0.950 . S
H2986 C3015 0.950 . S
H2987 C3016 0.950 . S
H2988 C3018 0.950 . S
H2989 C3019 0.950 . S
C2990 H2972 0.951 . S
C2990 C2991 1.366 . S
C2990 C2992 1.388 . S
C2991 C2990 1.366 . S
C2991 C2995 1.385 . S
C2992 H2973 0.951 . S
C2992 C2990 1.388 . S
C2992 C2993 1.366 . S
C2993 C2992 1.366 . S
C2993 C2994 1.414 . S
C2993 C2996 1.499 . S
C2994 H2974 0.950 . S
C2994 C2993 1.414 . S
C2994 C2995 1.374 . S
C2995 H2975 0.950 . S
C2995 C2991 1.385 . S
C2995 C2994 1.374 . S
C2996 C2993 1.499 . S
C2996 C2997 1.373 . S
C2996 C2998 1.389 . S
C2997 H2976 0.950 . S
C2997 C2996 1.373 . S
C2997 C3013 1.377 . S
C2998 C2996 1.389 . S
C2998 C2999 1.524 . S
C2998 C3012 1.377 . S
C2999 C2998 1.524 . S
C2999 C3000 1.397 . S
C2999 C3004 1.363 . S
C3000 H2977 0.950 . S
C3000 C2999 1.397 . S
C3000 C3001 1.334 . S
C3001 H2978 0.950 . S
C3001 C3000 1.334 . S
C3001 C3002 1.287 . S
C3002 C3001 1.287 . S
C3002 C3003 1.524 . S
C3002 H3021 0.913 . S
C3003 H2979 0.950 . S
C3003 C3002 1.524 . S
C3003 C3004 1.415 . S
C3004 H2980 0.950 . S
C3004 C2999 1.363 . S
C3004 C3003 1.415 . S
C3005 H2981 0.951 . S
C3005 C3006 1.366 . S
C3005 C3007 1.388 . S
C3006 C3005 1.366 . S
C3006 C3010 1.385 . S
C3007 H2982 0.951 . S
C3007 C3005 1.388 . S
C3007 C3008 1.366 . S
C3008 C3007 1.366 . S
C3008 C3009 1.414 . S
C3008 C3011 1.499 . S
C3009 H2983 0.950 . S
C3009 C3008 1.414 . S
C3009 C3010 1.374 . S
C3010 H2984 0.950 . S
C3010 C3006 1.385 . S
C3010 C3009 1.374 . S
C3011 C3008 1.499 . S
C3011 C3012 1.373 . S
C3011 C3013 1.389 . S
C3012 H2985 0.950 . S
C3012 C2998 1.377 . S
C3012 C3011 1.373 . S
C3013 C2997 1.377 . S
C3013 C3011 1.389 . S
C3013 C3014 1.524 . S
C3014 C3013 1.524 . S
C3014 C3015 1.397 . S
C3014 C3019 1.363 . S
C3015 H2986 0.950 . S
C3015 C3014 1.397 . S
C3015 C3016 1.334 . S
C3016 H2987 0.950 . S
C3016 C3015 1.334 . S
C3016 C3017 1.287 . S
C3017 C3016 1.287 . S
C3017 C3018 1.524 . S
C3017 H3020 0.999 . S
C3018 H2988 0.950 . S
C3018 C3017 1.524 . S
C3018 C3019 1.415 . S
C3019 H2989 0.950 . S
C3019 C3014 1.363 . S
C3019 C3018 1.415 . S
H3020 C3017 0.999 . S
H3021 C3002 0.913 . S
H3022 C3040 0.951 . S
H3023 C3042 0.951 . S
H3024 C3044 0.950 . S
H3025 C3045 0.950 . S
H3026 C3047 0.950 . S
H3027 C3050 0.950 . S
H3028 C3051 0.950 . S
H3029 C3053 0.950 . S
H3030 C3054 0.950 . S
H3031 C3055 0.951 . S
H3032 C3057 0.951 . S
H3033 C3059 0.950 . S
H3034 C3060 0.950 . S
H3035 C3062 0.950 . S
H3036 C3065 0.950 . S
H3037 C3066 0.950 . S
H3038 C3068 0.950 . S
H3039 C3069 0.950 . S
C3040 H3022 0.951 . S
C3040 C3041 1.366 . S
C3040 C3042 1.388 . S
C3041 C3040 1.366 . S
C3041 C3045 1.385 . S
C3042 H3023 0.951 . S
C3042 C3040 1.388 . S
C3042 C3043 1.366 . S
C3043 C3042 1.366 . S
C3043 C3044 1.414 . S
C3043 C3046 1.499 . S
C3044 H3024 0.950 . S
C3044 C3043 1.414 . S
C3044 C3045 1.374 . S
C3045 H3025 0.950 . S
C3045 C3041 1.385 . S
C3045 C3044 1.374 . S
C3046 C3043 1.499 . S
C3046 C3047 1.373 . S
C3046 C3048 1.389 . S
C3047 H3026 0.950 . S
C3047 C3046 1.373 . S
C3047 C3063 1.377 . S
C3048 C3046 1.389 . S
C3048 C3049 1.524 . S
C3048 C3062 1.377 . S
C3049 C3048 1.524 . S
C3049 C3050 1.397 . S
C3049 C3054 1.363 . S
C3050 H3027 0.950 . S
C3050 C3049 1.397 . S
C3050 C3051 1.334 . S
C3051 H3028 0.950 . S
C3051 C3050 1.334 . S
C3051 C3052 1.287 . S
C3052 C3051 1.287 . S
C3052 C3053 1.524 . S
C3052 H3071 0.913 . S
C3053 H3029 0.950 . S
C3053 C3052 1.524 . S
C3053 C3054 1.415 . S
C3054 H3030 0.950 . S
C3054 C3049 1.363 . S
C3054 C3053 1.415 . S
C3055 H3031 0.951 . S
C3055 C3056 1.366 . S
C3055 C3057 1.388 . S
C3056 C3055 1.366 . S
C3056 C3060 1.385 . S
C3057 H3032 0.951 . S
C3057 C3055 1.388 . S
C3057 C3058 1.366 . S
C3058 C3057 1.366 . S
C3058 C3059 1.414 . S
C3058 C3061 1.499 . S
C3059 H3033 0.950 . S
C3059 C3058 1.414 . S
C3059 C3060 1.374 . S
C3060 H3034 0.950 . S
C3060 C3056 1.385 . S
C3060 C3059 1.374 . S
C3061 C3058 1.499 . S
C3061 C3062 1.373 . S
C3061 C3063 1.389 . S
C3062 H3035 0.950 . S
C3062 C3048 1.377 . S
C3062 C3061 1.373 . S
C3063 C3047 1.377 . S
C3063 C3061 1.389 . S
C3063 C3064 1.524 . S
C3064 C3063 1.524 . S
C3064 C3065 1.397 . S
C3064 C3069 1.363 . S
C3065 H3036 0.950 . S
C3065 C3064 1.397 . S
C3065 C3066 1.334 . S
C3066 H3037 0.950 . S
C3066 C3065 1.334 . S
C3066 C3067 1.287 . S
C3067 C3066 1.287 . S
C3067 C3068 1.524 . S
C3067 H3070 0.999 . S
C3068 H3038 0.950 . S
C3068 C3067 1.524 . S
C3068 C3069 1.415 . S
C3069 H3039 0.950 . S
C3069 C3064 1.363 . S
C3069 C3068 1.415 . S
H3070 C3067 0.999 . S
H3071 C3052 0.913 . S
H3072 C3090 0.951 . S
H3073 C3092 0.951 . S
H3074 C3094 0.950 . S
H3075 C3095 0.950 . S
H3076 C3097 0.950 . S
H3077 C3100 0.950 . S
H3078 C3101 0.950 . S
H3079 C3103 0.950 . S
H3080 C3104 0.950 . S
H3081 C3105 0.951 . S
H3082 C3107 0.951 . S
H3083 C3109 0.950 . S
H3084 C3110 0.950 . S
H3085 C3112 0.950 . S
H3086 C3115 0.950 . S
H3087 C3116 0.950 . S
H3088 C3118 0.950 . S
H3089 C3119 0.950 . S
C3090 H3072 0.951 . S
C3090 C3091 1.366 . S
C3090 C3092 1.388 . S
C3091 C3090 1.366 . S
C3091 C3095 1.385 . S
C3092 H3073 0.951 . S
C3092 C3090 1.388 . S
C3092 C3093 1.366 . S
C3093 C3092 1.366 . S
C3093 C3094 1.414 . S
C3093 C3096 1.499 . S
C3094 H3074 0.950 . S
C3094 C3093 1.414 . S
C3094 C3095 1.374 . S
C3095 H3075 0.950 . S
C3095 C3091 1.385 . S
C3095 C3094 1.374 . S
C3096 C3093 1.499 . S
C3096 C3097 1.373 . S
C3096 C3098 1.389 . S
C3097 H3076 0.950 . S
C3097 C3096 1.373 . S
C3097 C3113 1.377 . S
C3098 C3096 1.389 . S
C3098 C3099 1.524 . S
C3098 C3112 1.377 . S
C3099 C3098 1.524 . S
C3099 C3100 1.397 . S
C3099 C3104 1.363 . S
C3100 H3077 0.950 . S
C3100 C3099 1.397 . S
C3100 C3101 1.334 . S
C3101 H3078 0.950 . S
C3101 C3100 1.334 . S
C3101 C3102 1.287 . S
C3102 C3101 1.287 . S
C3102 C3103 1.524 . S
C3102 H3121 0.913 . S
C3103 H3079 0.950 . S
C3103 C3102 1.524 . S
C3103 C3104 1.415 . S
C3104 H3080 0.950 . S
C3104 C3099 1.363 . S
C3104 C3103 1.415 . S
C3105 H3081 0.951 . S
C3105 C3106 1.366 . S
C3105 C3107 1.388 . S
C3106 C3105 1.366 . S
C3106 C3110 1.385 . S
C3107 H3082 0.951 . S
C3107 C3105 1.388 . S
C3107 C3108 1.366 . S
C3108 C3107 1.366 . S
C3108 C3109 1.414 . S
C3108 C3111 1.499 . S
C3109 H3083 0.950 . S
C3109 C3108 1.414 . S
C3109 C3110 1.374 . S
C3110 H3084 0.950 . S
C3110 C3106 1.385 . S
C3110 C3109 1.374 . S
C3111 C3108 1.499 . S
C3111 C3112 1.373 . S
C3111 C3113 1.389 . S
C3112 H3085 0.950 . S
C3112 C3098 1.377 . S
C3112 C3111 1.373 . S
C3113 C3097 1.377 . S
C3113 C3111 1.389 . S
C3113 C3114 1.524 . S
C3114 C3113 1.524 . S
C3114 C3115 1.397 . S
C3114 C3119 1.363 . S
C3115 H3086 0.950 . S
C3115 C3114 1.397 . S
C3115 C3116 1.334 . S
C3116 H3087 0.950 . S
C3116 C3115 1.334 . S
C3116 C3117 1.287 . S
C3117 C3116 1.287 . S
C3117 C3118 1.524 . S
C3117 H3120 0.999 . S
C3118 H3088 0.950 . S
C3118 C3117 1.524 . S
C3118 C3119 1.415 . S
C3119 H3089 0.950 . S
C3119 C3114 1.363 . S
C3119 C3118 1.415 . S
H3120 C3117 0.999 . S
H3121 C3102 0.913 . S
H3122 C3140 0.951 . S
H3123 C3142 0.951 . S
H3124 C3144 0.950 . S
H3125 C3145 0.950 . S
H3126 C3147 0.950 . S
H3127 C3150 0.950 . S
H3128 C3151 0.950 . S
H3129 C3153 0.950 . S
H3130 C3154 0.950 . S
H3131 C3155 0.951 . S
H3132 C3157 0.951 . S
H3133 C3159 0.950 . S
H3134 C3160 0.950 . S
H3135 C3162 0.950 . S
H3136 C3165 0.950 . S
H3137 C3166 0.950 . S
H3138 C3168 0.950 . S
H3139 C3169 0.950 . S
C3140 H3122 0.951 . S
C3140 C3141 1.366 . S
C3140 C3142 1.388 . S
C3141 C3140 1.366 . S
C3141 C3145 1.385 . S
C3142 H3123 0.951 . S
C3142 C3140 1.388 . S
C3142 C3143 1.366 . S
C3143 C3142 1.366 . S
C3143 C3144 1.414 . S
C3143 C3146 1.499 . S
C3144 H3124 0.950 . S
C3144 C3143 1.414 . S
C3144 C3145 1.374 . S
C3145 H3125 0.950 . S
C3145 C3141 1.385 . S
C3145 C3144 1.374 . S
C3146 C3143 1.499 . S
C3146 C3147 1.373 . S
C3146 C3148 1.389 . S
C3147 H3126 0.950 . S
C3147 C3146 1.373 . S
C3147 C3163 1.377 . S
C3148 C3146 1.389 . S
C3148 C3149 1.524 . S
C3148 C3162 1.377 . S
C3149 C3148 1.524 . S
C3149 C3150 1.397 . S
C3149 C3154 1.363 . S
C3150 H3127 0.950 . S
C3150 C3149 1.397 . S
C3150 C3151 1.334 . S
C3151 H3128 0.950 . S
C3151 C3150 1.334 . S
C3151 C3152 1.287 . S
C3152 C3151 1.287 . S
C3152 C3153 1.524 . S
C3152 H3171 0.913 . S
C3153 H3129 0.950 . S
C3153 C3152 1.524 . S
C3153 C3154 1.415 . S
C3154 H3130 0.950 . S
C3154 C3149 1.363 . S
C3154 C3153 1.415 . S
C3155 H3131 0.951 . S
C3155 C3156 1.366 . S
C3155 C3157 1.388 . S
C3156 C3155 1.366 . S
C3156 C3160 1.385 . S
C3157 H3132 0.951 . S
C3157 C3155 1.388 . S
C3157 C3158 1.366 . S
C3158 C3157 1.366 . S
C3158 C3159 1.414 . S
C3158 C3161 1.499 . S
C3159 H3133 0.950 . S
C3159 C3158 1.414 . S
C3159 C3160 1.374 . S
C3160 H3134 0.950 . S
C3160 C3156 1.385 . S
C3160 C3159 1.374 . S
C3161 C3158 1.499 . S
C3161 C3162 1.373 . S
C3161 C3163 1.389 . S
C3162 H3135 0.950 . S
C3162 C3148 1.377 . S
C3162 C3161 1.373 . S
C3163 C3147 1.377 . S
C3163 C3161 1.389 . S
C3163 C3164 1.524 . S
C3164 C3163 1.524 . S
C3164 C3165 1.397 . S
C3164 C3169 1.363 . S
C3165 H3136 0.950 . S
C3165 C3164 1.397 . S
C3165 C3166 1.334 . S
C3166 H3137 0.950 . S
C3166 C3165 1.334 . S
C3166 C3167 1.287 . S
C3167 C3166 1.287 . S
C3167 C3168 1.524 . S
C3167 H3170 0.999 . S
C3168 H3138 0.950 . S
C3168 C3167 1.524 . S
C3168 C3169 1.415 . S
C3169 H3139 0.950 . S
C3169 C3164 1.363 . S
C3169 C3168 1.415 . S
H3170 C3167 0.999 . S
H3171 C3152 0.913 . S
H3172 C3190 0.951 . S
H3173 C3192 0.951 . S
H3174 C3194 0.950 . S
H3175 C3195 0.950 . S
H3176 C3197 0.950 . S
H3177 C3200 0.950 . S
H3178 C3201 0.950 . S
H3179 C3203 0.950 . S
H3180 C3204 0.950 . S
H3181 C3205 0.951 . S
H3182 C3207 0.951 . S
H3183 C3209 0.950 . S
H3184 C3210 0.950 . S
H3185 C3212 0.950 . S
H3186 C3215 0.950 . S
H3187 C3216 0.950 . S
H3188 C3218 0.950 . S
H3189 C3219 0.950 . S
C3190 H3172 0.951 . S
C3190 C3191 1.366 . S
C3190 C3192 1.388 . S
C3191 C3190 1.366 . S
C3191 C3195 1.385 . S
C3192 H3173 0.951 . S
C3192 C3190 1.388 . S
C3192 C3193 1.366 . S
C3193 C3192 1.366 . S
C3193 C3194 1.414 . S
C3193 C3196 1.499 . S
C3194 H3174 0.950 . S
C3194 C3193 1.414 . S
C3194 C3195 1.374 . S
C3195 H3175 0.950 . S
C3195 C3191 1.385 . S
C3195 C3194 1.374 . S
C3196 C3193 1.499 . S
C3196 C3197 1.373 . S
C3196 C3198 1.389 . S
C3197 H3176 0.950 . S
C3197 C3196 1.373 . S
C3197 C3213 1.377 . S
C3198 C3196 1.389 . S
C3198 C3199 1.524 . S
C3198 C3212 1.377 . S
C3199 C3198 1.524 . S
C3199 C3200 1.397 . S
C3199 C3204 1.363 . S
C3200 H3177 0.950 . S
C3200 C3199 1.397 . S
C3200 C3201 1.334 . S
C3201 H3178 0.950 . S
C3201 C3200 1.334 . S
C3201 C3202 1.287 . S
C3202 C3201 1.287 . S
C3202 C3203 1.524 . S
C3202 H3221 0.913 . S
C3203 H3179 0.950 . S
C3203 C3202 1.524 . S
C3203 C3204 1.415 . S
C3204 H3180 0.950 . S
C3204 C3199 1.363 . S
C3204 C3203 1.415 . S
C3205 H3181 0.951 . S
C3205 C3206 1.366 . S
C3205 C3207 1.388 . S
C3206 C3205 1.366 . S
C3206 C3210 1.385 . S
C3207 H3182 0.951 . S
C3207 C3205 1.388 . S
C3207 C3208 1.366 . S
C3208 C3207 1.366 . S
C3208 C3209 1.414 . S
C3208 C3211 1.499 . S
C3209 H3183 0.950 . S
C3209 C3208 1.414 . S
C3209 C3210 1.374 . S
C3210 H3184 0.950 . S
C3210 C3206 1.385 . S
C3210 C3209 1.374 . S
C3211 C3208 1.499 . S
C3211 C3212 1.373 . S
C3211 C3213 1.389 . S
C3212 H3185 0.950 . S
C3212 C3198 1.377 . S
C3212 C3211 1.373 . S
C3213 C3197 1.377 . S
C3213 C3211 1.389 . S
C3213 C3214 1.524 . S
C3214 C3213 1.524 . S
C3214 C3215 1.397 . S
C3214 C3219 1.363 . S
C3215 H3186 0.950 . S
C3215 C3214 1.397 . S
C3215 C3216 1.334 . S
C3216 H3187 0.950 . S
C3216 C3215 1.334 . S
C3216 C3217 1.287 . S
C3217 C3216 1.287 . S
C3217 C3218 1.524 . S
C3217 H3220 0.999 . S
C3218 H3188 0.950 . S
C3218 C3217 1.524 . S
C3218 C3219 1.415 . S
C3219 H3189 0.950 . S
C3219 C3214 1.363 . S
C3219 C3218 1.415 . S
H3220 C3217 0.999 . S
H3221 C3202 0.913 . S
H3222 C3240 0.951 . S
H3223 C3242 0.951 . S
H3224 C3244 0.950 . S
H3225 C3245 0.950 . S
H3226 C3247 0.950 . S
H3227 C3250 0.950 . S
H3228 C3251 0.950 . S
H3229 C3253 0.950 . S
H3230 C3254 0.950 . S
H3231 C3255 0.951 . S
H3232 C3257 0.951 . S
H3233 C3259 0.950 . S
H3234 C3260 0.950 . S
H3235 C3262 0.950 . S
H3236 C3265 0.950 . S
H3237 C3266 0.950 . S
H3238 C3268 0.950 . S
H3239 C3269 0.950 . S
C3240 H3222 0.951 . S
C3240 C3241 1.366 . S
C3240 C3242 1.388 . S
C3241 C3240 1.366 . S
C3241 C3245 1.385 . S
C3242 H3223 0.951 . S
C3242 C3240 1.388 . S
C3242 C3243 1.366 . S
C3243 C3242 1.366 . S
C3243 C3244 1.414 . S
C3243 C3246 1.499 . S
C3244 H3224 0.950 . S
C3244 C3243 1.414 . S
C3244 C3245 1.374 . S
C3245 H3225 0.950 . S
C3245 C3241 1.385 . S
C3245 C3244 1.374 . S
C3246 C3243 1.499 . S
C3246 C3247 1.373 . S
C3246 C3248 1.389 . S
C3247 H3226 0.950 . S
C3247 C3246 1.373 . S
C3247 C3263 1.377 . S
C3248 C3246 1.389 . S
C3248 C3249 1.524 . S
C3248 C3262 1.377 . S
C3249 C3248 1.524 . S
C3249 C3250 1.397 . S
C3249 C3254 1.363 . S
C3250 H3227 0.950 . S
C3250 C3249 1.397 . S
C3250 C3251 1.334 . S
C3251 H3228 0.950 . S
C3251 C3250 1.334 . S
C3251 C3252 1.287 . S
C3252 C3251 1.287 . S
C3252 C3253 1.524 . S
C3252 H3271 0.913 . S
C3253 H3229 0.950 . S
C3253 C3252 1.524 . S
C3253 C3254 1.415 . S
C3254 H3230 0.950 . S
C3254 C3249 1.363 . S
C3254 C3253 1.415 . S
C3255 H3231 0.951 . S
C3255 C3256 1.366 . S
C3255 C3257 1.388 . S
C3256 C3255 1.366 . S
C3256 C3260 1.385 . S
C3257 H3232 0.951 . S
C3257 C3255 1.388 . S
C3257 C3258 1.366 . S
C3258 C3257 1.366 . S
C3258 C3259 1.414 . S
C3258 C3261 1.499 . S
C3259 H3233 0.950 . S
C3259 C3258 1.414 . S
C3259 C3260 1.374 . S
C3260 H3234 0.950 . S
C3260 C3256 1.385 . S
C3260 C3259 1.374 . S
C3261 C3258 1.499 . S
C3261 C3262 1.373 . S
C3261 C3263 1.389 . S
C3262 H3235 0.950 . S
C3262 C3248 1.377 . S
C3262 C3261 1.373 . S
C3263 C3247 1.377 . S
C3263 C3261 1.389 . S
C3263 C3264 1.524 . S
C3264 C3263 1.524 . S
C3264 C3265 1.397 . S
C3264 C3269 1.363 . S
C3265 H3236 0.950 . S
C3265 C3264 1.397 . S
C3265 C3266 1.334 . S
C3266 H3237 0.950 . S
C3266 C3265 1.334 . S
C3266 C3267 1.287 . S
C3267 C3266 1.287 . S
C3267 C3268 1.524 . S
C3267 H3270 0.999 . S
C3268 H3238 0.950 . S
C3268 C3267 1.524 . S
C3268 C3269 1.415 . S
C3269 H3239 0.950 . S
C3269 C3264 1.363 . S
C3269 C3268 1.415 . S
H3270 C3267 0.999 . S
H3271 C3252 0.913 . S
H3272 C3290 0.951 . S
H3273 C3292 0.951 . S
H3274 C3294 0.950 . S
H3275 C3295 0.950 . S
H3276 C3297 0.950 . S
H3277 C3300 0.950 . S
H3278 C3301 0.950 . S
H3279 C3303 0.950 . S
H3280 C3304 0.950 . S
H3281 C3305 0.951 . S
H3282 C3307 0.951 . S
H3283 C3309 0.950 . S
H3284 C3310 0.950 . S
H3285 C3312 0.950 . S
H3286 C3315 0.950 . S
H3287 C3316 0.950 . S
H3288 C3318 0.950 . S
H3289 C3319 0.950 . S
C3290 H3272 0.951 . S
C3290 C3291 1.366 . S
C3290 C3292 1.388 . S
C3291 C3290 1.366 . S
C3291 C3295 1.385 . S
C3292 H3273 0.951 . S
C3292 C3290 1.388 . S
C3292 C3293 1.366 . S
C3293 C3292 1.366 . S
C3293 C3294 1.414 . S
C3293 C3296 1.499 . S
C3294 H3274 0.950 . S
C3294 C3293 1.414 . S
C3294 C3295 1.374 . S
C3295 H3275 0.950 . S
C3295 C3291 1.385 . S
C3295 C3294 1.374 . S
C3296 C3293 1.499 . S
C3296 C3297 1.373 . S
C3296 C3298 1.389 . S
C3297 H3276 0.950 . S
C3297 C3296 1.373 . S
C3297 C3313 1.377 . S
C3298 C3296 1.389 . S
C3298 C3299 1.524 . S
C3298 C3312 1.377 . S
C3299 C3298 1.524 . S
C3299 C3300 1.397 . S
C3299 C3304 1.363 . S
C3300 H3277 0.950 . S
C3300 C3299 1.397 . S
C3300 C3301 1.334 . S
C3301 H3278 0.950 . S
C3301 C3300 1.334 . S
C3301 C3302 1.287 . S
C3302 C3301 1.287 . S
C3302 C3303 1.524 . S
C3302 H3321 0.913 . S
C3303 H3279 0.950 . S
C3303 C3302 1.524 . S
C3303 C3304 1.415 . S
C3304 H3280 0.950 . S
C3304 C3299 1.363 . S
C3304 C3303 1.415 . S
C3305 H3281 0.951 . S
C3305 C3306 1.366 . S
C3305 C3307 1.388 . S
C3306 C3305 1.366 . S
C3306 C3310 1.385 . S
C3307 H3282 0.951 . S
C3307 C3305 1.388 . S
C3307 C3308 1.366 . S
C3308 C3307 1.366 . S
C3308 C3309 1.414 . S
C3308 C3311 1.499 . S
C3309 H3283 0.950 . S
C3309 C3308 1.414 . S
C3309 C3310 1.374 . S
C3310 H3284 0.950 . S
C3310 C3306 1.385 . S
C3310 C3309 1.374 . S
C3311 C3308 1.499 . S
C3311 C3312 1.373 . S
C3311 C3313 1.389 . S
C3312 H3285 0.950 . S
C3312 C3298 1.377 . S
C3312 C3311 1.373 . S
C3313 C3297 1.377 . S
C3313 C3311 1.389 . S
C3313 C3314 1.524 . S
C3314 C3313 1.524 . S
C3314 C3315 1.397 . S
C3314 C3319 1.363 . S
C3315 H3286 0.950 . S
C3315 C3314 1.397 . S
C3315 C3316 1.334 . S
C3316 H3287 0.950 . S
C3316 C3315 1.334 . S
C3316 C3317 1.287 . S
C3317 C3316 1.287 . S
C3317 C3318 1.524 . S
C3317 H3320 0.999 . S
C3318 H3288 0.950 . S
C3318 C3317 1.524 . S
C3318 C3319 1.415 . S
C3319 H3289 0.950 . S
C3319 C3314 1.363 . S
C3319 C3318 1.415 . S
H3320 C3317 0.999 . S
H3321 C3302 0.913 . S
H3322 C3340 0.951 . S
H3323 C3342 0.951 . S
H3324 C3344 0.950 . S
H3325 C3345 0.950 . S
H3326 C3347 0.950 . S
H3327 C3350 0.950 . S
H3328 C3351 0.950 . S
H3329 C3353 0.950 . S
H3330 C3354 0.950 . S
H3331 C3355 0.951 . S
H3332 C3357 0.951 . S
H3333 C3359 0.950 . S
H3334 C3360 0.950 . S
H3335 C3362 0.950 . S
H3336 C3365 0.950 . S
H3337 C3366 0.950 . S
H3338 C3368 0.950 . S
H3339 C3369 0.950 . S
C3340 H3322 0.951 . S
C3340 C3341 1.366 . S
C3340 C3342 1.388 . S
C3341 C3340 1.366 . S
C3341 C3345 1.385 . S
C3342 H3323 0.951 . S
C3342 C3340 1.388 . S
C3342 C3343 1.366 . S
C3343 C3342 1.366 . S
C3343 C3344 1.414 . S
C3343 C3346 1.499 . S
C3344 H3324 0.950 . S
C3344 C3343 1.414 . S
C3344 C3345 1.374 . S
C3345 H3325 0.950 . S
C3345 C3341 1.385 . S
C3345 C3344 1.374 . S
C3346 C3343 1.499 . S
C3346 C3347 1.373 . S
C3346 C3348 1.389 . S
C3347 H3326 0.950 . S
C3347 C3346 1.373 . S
C3347 C3363 1.377 . S
C3348 C3346 1.389 . S
C3348 C3349 1.524 . S
C3348 C3362 1.377 . S
C3349 C3348 1.524 . S
C3349 C3350 1.397 . S
C3349 C3354 1.363 . S
C3350 H3327 0.950 . S
C3350 C3349 1.397 . S
C3350 C3351 1.334 . S
C3351 H3328 0.950 . S
C3351 C3350 1.334 . S
C3351 C3352 1.287 . S
C3352 C3351 1.287 . S
C3352 C3353 1.524 . S
C3352 H3371 0.913 . S
C3353 H3329 0.950 . S
C3353 C3352 1.524 . S
C3353 C3354 1.415 . S
C3354 H3330 0.950 . S
C3354 C3349 1.363 . S
C3354 C3353 1.415 . S
C3355 H3331 0.951 . S
C3355 C3356 1.366 . S
C3355 C3357 1.388 . S
C3356 C3355 1.366 . S
C3356 C3360 1.385 . S
C3357 H3332 0.951 . S
C3357 C3355 1.388 . S
C3357 C3358 1.366 . S
C3358 C3357 1.366 . S
C3358 C3359 1.414 . S
C3358 C3361 1.499 . S
C3359 H3333 0.950 . S
C3359 C3358 1.414 . S
C3359 C3360 1.374 . S
C3360 H3334 0.950 . S
C3360 C3356 1.385 . S
C3360 C3359 1.374 . S
C3361 C3358 1.499 . S
C3361 C3362 1.373 . S
C3361 C3363 1.389 . S
C3362 H3335 0.950 . S
C3362 C3348 1.377 . S
C3362 C3361 1.373 . S
C3363 C3347 1.377 . S
C3363 C3361 1.389 . S
C3363 C3364 1.524 . S
C3364 C3363 1.524 . S
C3364 C3365 1.397 . S
C3364 C3369 1.363 . S
C3365 H3336 0.950 . S
C3365 C3364 1.397 . S
C3365 C3366 1.334 . S
C3366 H3337 0.950 . S
C3366 C3365 1.334 . S
C3366 C3367 1.287 . S
C3367 C3366 1.287 . S
C3367 C3368 1.524 . S
C3367 H3370 0.999 . S
C3368 H3338 0.950 . S
C3368 C3367 1.524 . S
C3368 C3369 1.415 . S
C3369 H3339 0.950 . S
C3369 C3364 1.363 . S
C3369 C3368 1.415 . S
H3370 C3367 0.999 . S
H3371 C3352 0.913 . S
H3372 C3390 0.951 . S
H3373 C3392 0.951 . S
H3374 C3394 0.950 . S
H3375 C3395 0.950 . S
H3376 C3397 0.950 . S
H3377 C3400 0.950 . S
H3378 C3401 0.950 . S
H3379 C3403 0.950 . S
H3380 C3404 0.950 . S
H3381 C3405 0.951 . S
H3382 C3407 0.951 . S
H3383 C3409 0.950 . S
H3384 C3410 0.950 . S
H3385 C3412 0.950 . S
H3386 C3415 0.950 . S
H3387 C3416 0.950 . S
H3388 C3418 0.950 . S
H3389 C3419 0.950 . S
C3390 H3372 0.951 . S
C3390 C3391 1.366 . S
C3390 C3392 1.388 . S
C3391 C3390 1.366 . S
C3391 C3395 1.385 . S
C3392 H3373 0.951 . S
C3392 C3390 1.388 . S
C3392 C3393 1.366 . S
C3393 C3392 1.366 . S
C3393 C3394 1.414 . S
C3393 C3396 1.499 . S
C3394 H3374 0.950 . S
C3394 C3393 1.414 . S
C3394 C3395 1.374 . S
C3395 H3375 0.950 . S
C3395 C3391 1.385 . S
C3395 C3394 1.374 . S
C3396 C3393 1.499 . S
C3396 C3397 1.373 . S
C3396 C3398 1.389 . S
C3397 H3376 0.950 . S
C3397 C3396 1.373 . S
C3397 C3413 1.377 . S
C3398 C3396 1.389 . S
C3398 C3399 1.524 . S
C3398 C3412 1.377 . S
C3399 C3398 1.524 . S
C3399 C3400 1.397 . S
C3399 C3404 1.363 . S
C3400 H3377 0.950 . S
C3400 C3399 1.397 . S
C3400 C3401 1.334 . S
C3401 H3378 0.950 . S
C3401 C3400 1.334 . S
C3401 C3402 1.287 . S
C3402 C3401 1.287 . S
C3402 C3403 1.524 . S
C3402 H3421 0.913 . S
C3403 H3379 0.950 . S
C3403 C3402 1.524 . S
C3403 C3404 1.415 . S
C3404 H3380 0.950 . S
C3404 C3399 1.363 . S
C3404 C3403 1.415 . S
C3405 H3381 0.951 . S
C3405 C3406 1.366 . S
C3405 C3407 1.388 . S
C3406 C3405 1.366 . S
C3406 C3410 1.385 . S
C3407 H3382 0.951 . S
C3407 C3405 1.388 . S
C3407 C3408 1.366 . S
C3408 C3407 1.366 . S
C3408 C3409 1.414 . S
C3408 C3411 1.499 . S
C3409 H3383 0.950 . S
C3409 C3408 1.414 . S
C3409 C3410 1.374 . S
C3410 H3384 0.950 . S
C3410 C3406 1.385 . S
C3410 C3409 1.374 . S
C3411 C3408 1.499 . S
C3411 C3412 1.373 . S
C3411 C3413 1.389 . S
C3412 H3385 0.950 . S
C3412 C3398 1.377 . S
C3412 C3411 1.373 . S
C3413 C3397 1.377 . S
C3413 C3411 1.389 . S
C3413 C3414 1.524 . S
C3414 C3413 1.524 . S
C3414 C3415 1.397 . S
C3414 C3419 1.363 . S
C3415 H3386 0.950 . S
C3415 C3414 1.397 . S
C3415 C3416 1.334 . S
C3416 H3387 0.950 . S
C3416 C3415 1.334 . S
C3416 C3417 1.287 . S
C3417 C3416 1.287 . S
C3417 C3418 1.524 . S
C3417 H3420 0.999 . S
C3418 H3388 0.950 . S
C3418 C3417 1.524 . S
C3418 C3419 1.415 . S
C3419 H3389 0.950 . S
C3419 C3414 1.363 . S
C3419 C3418 1.415 . S
H3420 C3417 0.999 . S
H3421 C3402 0.913 . S
H3422 C3440 0.951 . S
H3423 C3442 0.951 . S
H3424 C3444 0.950 . S
H3425 C3445 0.950 . S
H3426 C3447 0.950 . S
H3427 C3450 0.950 . S
H3428 C3451 0.950 . S
H3429 C3453 0.950 . S
H3430 C3454 0.950 . S
H3431 C3455 0.951 . S
H3432 C3457 0.951 . S
H3433 C3459 0.950 . S
H3434 C3460 0.950 . S
H3435 C3462 0.950 . S
H3436 C3465 0.950 . S
H3437 C3466 0.950 . S
H3438 C3468 0.950 . S
H3439 C3469 0.950 . S
C3440 H3422 0.951 . S
C3440 C3441 1.366 . S
C3440 C3442 1.388 . S
C3441 C3440 1.366 . S
C3441 C3445 1.385 . S
C3442 H3423 0.951 . S
C3442 C3440 1.388 . S
C3442 C3443 1.366 . S
C3443 C3442 1.366 . S
C3443 C3444 1.414 . S
C3443 C3446 1.499 . S
C3444 H3424 0.950 . S
C3444 C3443 1.414 . S
C3444 C3445 1.374 . S
C3445 H3425 0.950 . S
C3445 C3441 1.385 . S
C3445 C3444 1.374 . S
C3446 C3443 1.499 . S
C3446 C3447 1.373 . S
C3446 C3448 1.389 . S
C3447 H3426 0.950 . S
C3447 C3446 1.373 . S
C3447 C3463 1.377 . S
C3448 C3446 1.389 . S
C3448 C3449 1.524 . S
C3448 C3462 1.377 . S
C3449 C3448 1.524 . S
C3449 C3450 1.397 . S
C3449 C3454 1.363 . S
C3450 H3427 0.950 . S
C3450 C3449 1.397 . S
C3450 C3451 1.334 . S
C3451 H3428 0.950 . S
C3451 C3450 1.334 . S
C3451 C3452 1.287 . S
C3452 C3451 1.287 . S
C3452 C3453 1.524 . S
C3452 H3471 0.913 . S
C3453 H3429 0.950 . S
C3453 C3452 1.524 . S
C3453 C3454 1.415 . S
C3454 H3430 0.950 . S
C3454 C3449 1.363 . S
C3454 C3453 1.415 . S
C3455 H3431 0.951 . S
C3455 C3456 1.366 . S
C3455 C3457 1.388 . S
C3456 C3455 1.366 . S
C3456 C3460 1.385 . S
C3457 H3432 0.951 . S
C3457 C3455 1.388 . S
C3457 C3458 1.366 . S
C3458 C3457 1.366 . S
C3458 C3459 1.414 . S
C3458 C3461 1.499 . S
C3459 H3433 0.950 . S
C3459 C3458 1.414 . S
C3459 C3460 1.374 . S
C3460 H3434 0.950 . S
C3460 C3456 1.385 . S
C3460 C3459 1.374 . S
C3461 C3458 1.499 . S
C3461 C3462 1.373 . S
C3461 C3463 1.389 . S
C3462 H3435 0.950 . S
C3462 C3448 1.377 . S
C3462 C3461 1.373 . S
C3463 C3447 1.377 . S
C3463 C3461 1.389 . S
C3463 C3464 1.524 . S
C3464 C3463 1.524 . S
C3464 C3465 1.397 . S
C3464 C3469 1.363 . S
C3465 H3436 0.950 . S
C3465 C3464 1.397 . S
C3465 C3466 1.334 . S
C3466 H3437 0.950 . S
C3466 C3465 1.334 . S
C3466 C3467 1.287 . S
C3467 C3466 1.287 . S
C3467 C3468 1.524 . S
C3467 H3470 0.999 . S
C3468 H3438 0.950 . S
C3468 C3467 1.524 . S
C3468 C3469 1.415 . S
C3469 H3439 0.950 . S
C3469 C3464 1.363 . S
C3469 C3468 1.415 . S
H3470 C3467 0.999 . S
H3471 C3452 0.913 . S
H3472 C3490 0.951 . S
H3473 C3492 0.951 . S
H3474 C3494 0.950 . S
H3475 C3495 0.950 . S
H3476 C3497 0.950 . S
H3477 C3500 0.950 . S
H3478 C3501 0.950 . S
H3479 C3503 0.950 . S
H3480 C3504 0.950 . S
H3481 C3505 0.951 . S
H3482 C3507 0.951 . S
H3483 C3509 0.950 . S
H3484 C3510 0.950 . S
H3485 C3512 0.950 . S
H3486 C3515 0.950 . S
H3487 C3516 0.950 . S
H3488 C3518 0.950 . S
H3489 C3519 0.950 . S
C3490 H3472 0.951 . S
C3490 C3491 1.366 . S
C3490 C3492 1.388 . S
C3491 C3490 1.366 . S
C3491 C3495 1.385 . S
C3492 H3473 0.951 . S
C3492 C3490 1.388 . S
C3492 C3493 1.366 . S
C3493 C3492 1.366 . S
C3493 C3494 1.414 . S
C3493 C3496 1.499 . S
C3494 H3474 0.950 . S
C3494 C3493 1.414 . S
C3494 C3495 1.374 . S
C3495 H3475 0.950 . S
C3495 C3491 1.385 . S
C3495 C3494 1.374 . S
C3496 C3493 1.499 . S
C3496 C3497 1.373 . S
C3496 C3498 1.389 . S
C3497 H3476 0.950 . S
C3497 C3496 1.373 . S
C3497 C3513 1.377 . S
C3498 C3496 1.389 . S
C3498 C3499 1.524 . S
C3498 C3512 1.377 . S
C3499 C3498 1.524 . S
C3499 C3500 1.397 . S
C3499 C3504 1.363 . S
C3500 H3477 0.950 . S
C3500 C3499 1.397 . S
C3500 C3501 1.334 . S
C3501 H3478 0.950 . S
C3501 C3500 1.334 . S
C3501 C3502 1.287 . S
C3502 C3501 1.287 . S
C3502 C3503 1.524 . S
C3502 H3521 0.913 . S
C3503 H3479 0.950 . S
C3503 C3502 1.524 . S
C3503 C3504 1.415 . S
C3504 H3480 0.950 . S
C3504 C3499 1.363 . S
C3504 C3503 1.415 . S
C3505 H3481 0.951 . S
C3505 C3506 1.366 . S
C3505 C3507 1.388 . S
C3506 C3505 1.366 . S
C3506 C3510 1.385 . S
C3507 H3482 0.951 . S
C3507 C3505 1.388 . S
C3507 C3508 1.366 . S
C3508 C3507 1.366 . S
C3508 C3509 1.414 . S
C3508 C3511 1.499 . S
C3509 H3483 0.950 . S
C3509 C3508 1.414 . S
C3509 C3510 1.374 . S
C3510 H3484 0.950 . S
C3510 C3506 1.385 . S
C3510 C3509 1.374 . S
C3511 C3508 1.499 . S
C3511 C3512 1.373 . S
C3511 C3513 1.389 . S
C3512 H3485 0.950 . S
C3512 C3498 1.377 . S
C3512 C3511 1.373 . S
C3513 C3497 1.377 . S
C3513 C3511 1.389 . S
C3513 C3514 1.524 . S
C3514 C3513 1.524 . S
C3514 C3515 1.397 . S
C3514 C3519 1.363 . S
C3515 H3486 0.950 . S
C3515 C3514 1.397 . S
C3515 C3516 1.334 . S
C3516 H3487 0.950 . S
C3516 C3515 1.334 . S
C3516 C3517 1.287 . S
C3517 C3516 1.287 . S
C3517 C3518 1.524 . S
C3517 H3520 0.999 . S
C3518 H3488 0.950 . S
C3518 C3517 1.524 . S
C3518 C3519 1.415 . S
C3519 H3489 0.950 . S
C3519 C3514 1.363 . S
C3519 C3518 1.415 . S
H3520 C3517 0.999 . S
H3521 C3502 0.913 . S
H3522 C3540 0.951 . S
H3523 C3542 0.951 . S
H3524 C3544 0.950 . S
H3525 C3545 0.950 . S
H3526 C3547 0.950 . S
H3527 C3550 0.950 . S
H3528 C3551 0.950 . S
H3529 C3553 0.950 . S
H3530 C3554 0.950 . S
H3531 C3555 0.951 . S
H3532 C3557 0.951 . S
H3533 C3559 0.950 . S
H3534 C3560 0.950 . S
H3535 C3562 0.950 . S
H3536 C3565 0.950 . S
H3537 C3566 0.950 . S
H3538 C3568 0.950 . S
H3539 C3569 0.950 . S
C3540 H3522 0.951 . S
C3540 C3541 1.366 . S
C3540 C3542 1.388 . S
C3541 C3540 1.366 . S
C3541 C3545 1.385 . S
C3542 H3523 0.951 . S
C3542 C3540 1.388 . S
C3542 C3543 1.366 . S
C3543 C3542 1.366 . S
C3543 C3544 1.414 . S
C3543 C3546 1.499 . S
C3544 H3524 0.950 . S
C3544 C3543 1.414 . S
C3544 C3545 1.374 . S
C3545 H3525 0.950 . S
C3545 C3541 1.385 . S
C3545 C3544 1.374 . S
C3546 C3543 1.499 . S
C3546 C3547 1.373 . S
C3546 C3548 1.389 . S
C3547 H3526 0.950 . S
C3547 C3546 1.373 . S
C3547 C3563 1.377 . S
C3548 C3546 1.389 . S
C3548 C3549 1.524 . S
C3548 C3562 1.377 . S
C3549 C3548 1.524 . S
C3549 C3550 1.397 . S
C3549 C3554 1.363 . S
C3550 H3527 0.950 . S
C3550 C3549 1.397 . S
C3550 C3551 1.334 . S
C3551 H3528 0.950 . S
C3551 C3550 1.334 . S
C3551 C3552 1.287 . S
C3552 C3551 1.287 . S
C3552 C3553 1.524 . S
C3552 H3571 0.913 . S
C3553 H3529 0.950 . S
C3553 C3552 1.524 . S
C3553 C3554 1.415 . S
C3554 H3530 0.950 . S
C3554 C3549 1.363 . S
C3554 C3553 1.415 . S
C3555 H3531 0.951 . S
C3555 C3556 1.366 . S
C3555 C3557 1.388 . S
C3556 C3555 1.366 . S
C3556 C3560 1.385 . S
C3557 H3532 0.951 . S
C3557 C3555 1.388 . S
C3557 C3558 1.366 . S
C3558 C3557 1.366 . S
C3558 C3559 1.414 . S
C3558 C3561 1.499 . S
C3559 H3533 0.950 . S
C3559 C3558 1.414 . S
C3559 C3560 1.374 . S
C3560 H3534 0.950 . S
C3560 C3556 1.385 . S
C3560 C3559 1.374 . S
C3561 C3558 1.499 . S
C3561 C3562 1.373 . S
C3561 C3563 1.389 . S
C3562 H3535 0.950 . S
C3562 C3548 1.377 . S
C3562 C3561 1.373 . S
C3563 C3547 1.377 . S
C3563 C3561 1.389 . S
C3563 C3564 1.524 . S
C3564 C3563 1.524 . S
C3564 C3565 1.397 . S
C3564 C3569 1.363 . S
C3565 H3536 0.950 . S
C3565 C3564 1.397 . S
C3565 C3566 1.334 . S
C3566 H3537 0.950 . S
C3566 C3565 1.334 . S
C3566 C3567 1.287 . S
C3567 C3566 1.287 . S
C3567 C3568 1.524 . S
C3567 H3570 0.999 . S
C3568 H3538 0.950 . S
C3568 C3567 1.524 . S
C3568 C3569 1.415 . S
C3569 H3539 0.950 . S
C3569 C3564 1.363 . S
C3569 C3568 1.415 . S
H3570 C3567 0.999 . S
H3571 C3552 0.913 . S
H3572 C3590 0.951 . S
H3573 C3592 0.951 . S
H3574 C3594 0.950 . S
H3575 C3595 0.950 . S
H3576 C3597 0.950 . S
H3577 C3600 0.950 . S
H3578 C3601 0.950 . S
H3579 C3603 0.950 . S
H3580 C3604 0.950 . S
H3581 C3605 0.951 . S
H3582 C3607 0.951 . S
H3583 C3609 0.950 . S
H3584 C3610 0.950 . S
H3585 C3612 0.950 . S
H3586 C3615 0.950 . S
H3587 C3616 0.950 . S
H3588 C3618 0.950 . S
H3589 C3619 0.950 . S
C3590 H3572 0.951 . S
C3590 C3591 1.366 . S
C3590 C3592 1.388 . S
C3591 C3590 1.366 . S
C3591 C3595 1.385 . S
C3592 H3573 0.951 . S
C3592 C3590 1.388 . S
C3592 C3593 1.366 . S
C3593 C3592 1.366 . S
C3593 C3594 1.414 . S
C3593 C3596 1.499 . S
C3594 H3574 0.950 . S
C3594 C3593 1.414 . S
C3594 C3595 1.374 . S
C3595 H3575 0.950 . S
C3595 C3591 1.385 . S
C3595 C3594 1.374 . S
C3596 C3593 1.499 . S
C3596 C3597 1.373 . S
C3596 C3598 1.389 . S
C3597 H3576 0.950 . S
C3597 C3596 1.373 . S
C3597 C3613 1.377 . S
C3598 C3596 1.389 . S
C3598 C3599 1.524 . S
C3598 C3612 1.377 . S
C3599 C3598 1.524 . S
C3599 C3600 1.397 . S
C3599 C3604 1.363 . S
C3600 H3577 0.950 . S
C3600 C3599 1.397 . S
C3600 C3601 1.334 . S
C3601 H3578 0.950 . S
C3601 C3600 1.334 . S
C3601 C3602 1.287 . S
C3602 C3601 1.287 . S
C3602 C3603 1.524 . S
C3602 H3621 0.913 . S
C3603 H3579 0.950 . S
C3603 C3602 1.524 . S
C3603 C3604 1.415 . S
C3604 H3580 0.950 . S
C3604 C3599 1.363 . S
C3604 C3603 1.415 . S
C3605 H3581 0.951 . S
C3605 C3606 1.366 . S
C3605 C3607 1.388 . S
C3606 C3605 1.366 . S
C3606 C3610 1.385 . S
C3607 H3582 0.951 . S
C3607 C3605 1.388 . S
C3607 C3608 1.366 . S
C3608 C3607 1.366 . S
C3608 C3609 1.414 . S
C3608 C3611 1.499 . S
C3609 H3583 0.950 . S
C3609 C3608 1.414 . S
C3609 C3610 1.374 . S
C3610 H3584 0.950 . S
C3610 C3606 1.385 . S
C3610 C3609 1.374 . S
C3611 C3608 1.499 . S
C3611 C3612 1.373 . S
C3611 C3613 1.389 . S
C3612 H3585 0.950 . S
C3612 C3598 1.377 . S
C3612 C3611 1.373 . S
C3613 C3597 1.377 . S
C3613 C3611 1.389 . S
C3613 C3614 1.524 . S
C3614 C3613 1.524 . S
C3614 C3615 1.397 . S
C3614 C3619 1.363 . S
C3615 H3586 0.950 . S
C3615 C3614 1.397 . S
C3615 C3616 1.334 . S
C3616 H3587 0.950 . S
C3616 C3615 1.334 . S
C3616 C3617 1.287 . S
C3617 C3616 1.287 . S
C3617 C3618 1.524 . S
C3617 H3620 0.999 . S
C3618 H3588 0.950 . S
C3618 C3617 1.524 . S
C3618 C3619 1.415 . S
C3619 H3589 0.950 . S
C3619 C3614 1.363 . S
C3619 C3618 1.415 . S
H3620 C3617 0.999 . S
H3621 C3602 0.913 . S
H3622 C3640 0.951 . S
H3623 C3642 0.951 . S
H3624 C3644 0.950 . S
H3625 C3645 0.950 . S
H3626 C3647 0.950 . S
H3627 C3650 0.950 . S
H3628 C3651 0.950 . S
H3629 C3653 0.950 . S
H3630 C3654 0.950 . S
H3631 C3655 0.951 . S
H3632 C3657 0.951 . S
H3633 C3659 0.950 . S
H3634 C3660 0.950 . S
H3635 C3662 0.950 . S
H3636 C3665 0.950 . S
H3637 C3666 0.950 . S
H3638 C3668 0.950 . S
H3639 C3669 0.950 . S
C3640 H3622 0.951 . S
C3640 C3641 1.366 . S
C3640 C3642 1.388 . S
C3641 C3640 1.366 . S
C3641 C3645 1.385 . S
C3642 H3623 0.951 . S
C3642 C3640 1.388 . S
C3642 C3643 1.366 . S
C3643 C3642 1.366 . S
C3643 C3644 1.414 . S
C3643 C3646 1.499 . S
C3644 H3624 0.950 . S
C3644 C3643 1.414 . S
C3644 C3645 1.374 . S
C3645 H3625 0.950 . S
C3645 C3641 1.385 . S
C3645 C3644 1.374 . S
C3646 C3643 1.499 . S
C3646 C3647 1.373 . S
C3646 C3648 1.389 . S
C3647 H3626 0.950 . S
C3647 C3646 1.373 . S
C3647 C3663 1.377 . S
C3648 C3646 1.389 . S
C3648 C3649 1.524 . S
C3648 C3662 1.377 . S
C3649 C3648 1.524 . S
C3649 C3650 1.397 . S
C3649 C3654 1.363 . S
C3650 H3627 0.950 . S
C3650 C3649 1.397 . S
C3650 C3651 1.334 . S
C3651 H3628 0.950 . S
C3651 C3650 1.334 . S
C3651 C3652 1.287 . S
C3652 C3651 1.287 . S
C3652 C3653 1.524 . S
C3652 H3671 0.913 . S
C3653 H3629 0.950 . S
C3653 C3652 1.524 . S
C3653 C3654 1.415 . S
C3654 H3630 0.950 . S
C3654 C3649 1.363 . S
C3654 C3653 1.415 . S
C3655 H3631 0.951 . S
C3655 C3656 1.366 . S
C3655 C3657 1.388 . S
C3656 C3655 1.366 . S
C3656 C3660 1.385 . S
C3657 H3632 0.951 . S
C3657 C3655 1.388 . S
C3657 C3658 1.366 . S
C3658 C3657 1.366 . S
C3658 C3659 1.414 . S
C3658 C3661 1.499 . S
C3659 H3633 0.950 . S
C3659 C3658 1.414 . S
C3659 C3660 1.374 . S
C3660 H3634 0.950 . S
C3660 C3656 1.385 . S
C3660 C3659 1.374 . S
C3661 C3658 1.499 . S
C3661 C3662 1.373 . S
C3661 C3663 1.389 . S
C3662 H3635 0.950 . S
C3662 C3648 1.377 . S
C3662 C3661 1.373 . S
C3663 C3647 1.377 . S
C3663 C3661 1.389 . S
C3663 C3664 1.524 . S
C3664 C3663 1.524 . S
C3664 C3665 1.397 . S
C3664 C3669 1.363 . S
C3665 H3636 0.950 . S
C3665 C3664 1.397 . S
C3665 C3666 1.334 . S
C3666 H3637 0.950 . S
C3666 C3665 1.334 . S
C3666 C3667 1.287 . S
C3667 C3666 1.287 . S
C3667 C3668 1.524 . S
C3667 H3670 0.999 . S
C3668 H3638 0.950 . S
C3668 C3667 1.524 . S
C3668 C3669 1.415 . S
C3669 H3639 0.950 . S
C3669 C3664 1.363 . S
C3669 C3668 1.415 . S
H3670 C3667 0.999 . S
H3671 C3652 0.913 . S
H3672 C3690 0.951 . S
H3673 C3692 0.951 . S
H3674 C3694 0.950 . S
H3675 C3695 0.950 . S
H3676 C3697 0.950 . S
H3677 C3700 0.950 . S
H3678 C3701 0.950 . S
H3679 C3703 0.950 . S
H3680 C3704 0.950 . S
H3681 C3705 0.951 . S
H3682 C3707 0.951 . S
H3683 C3709 0.950 . S
H3684 C3710 0.950 . S
H3685 C3712 0.950 . S
H3686 C3715 0.950 . S
H3687 C3716 0.950 . S
H3688 C3718 0.950 . S
H3689 C3719 0.950 . S
C3690 H3672 0.951 . S
C3690 C3691 1.366 . S
C3690 C3692 1.388 . S
C3691 C3690 1.366 . S
C3691 C3695 1.385 . S
C3692 H3673 0.951 . S
C3692 C3690 1.388 . S
C3692 C3693 1.366 . S
C3693 C3692 1.366 . S
C3693 C3694 1.414 . S
C3693 C3696 1.499 . S
C3694 H3674 0.950 . S
C3694 C3693 1.414 . S
C3694 C3695 1.374 . S
C3695 H3675 0.950 . S
C3695 C3691 1.385 . S
C3695 C3694 1.374 . S
C3696 C3693 1.499 . S
C3696 C3697 1.373 . S
C3696 C3698 1.389 . S
C3697 H3676 0.950 . S
C3697 C3696 1.373 . S
C3697 C3713 1.377 . S
C3698 C3696 1.389 . S
C3698 C3699 1.524 . S
C3698 C3712 1.377 . S
C3699 C3698 1.524 . S
C3699 C3700 1.397 . S
C3699 C3704 1.363 . S
C3700 H3677 0.950 . S
C3700 C3699 1.397 . S
C3700 C3701 1.334 . S
C3701 H3678 0.950 . S
C3701 C3700 1.334 . S
C3701 C3702 1.287 . S
C3702 C3701 1.287 . S
C3702 C3703 1.524 . S
C3702 H3721 0.913 . S
C3703 H3679 0.950 . S
C3703 C3702 1.524 . S
C3703 C3704 1.415 . S
C3704 H3680 0.950 . S
C3704 C3699 1.363 . S
C3704 C3703 1.415 . S
C3705 H3681 0.951 . S
C3705 C3706 1.366 . S
C3705 C3707 1.388 . S
C3706 C3705 1.366 . S
C3706 C3710 1.385 . S
C3707 H3682 0.951 . S
C3707 C3705 1.388 . S
C3707 C3708 1.366 . S
C3708 C3707 1.366 . S
C3708 C3709 1.414 . S
C3708 C3711 1.499 . S
C3709 H3683 0.950 . S
C3709 C3708 1.414 . S
C3709 C3710 1.374 . S
C3710 H3684 0.950 . S
C3710 C3706 1.385 . S
C3710 C3709 1.374 . S
C3711 C3708 1.499 . S
C3711 C3712 1.373 . S
C3711 C3713 1.389 . S
C3712 H3685 0.950 . S
C3712 C3698 1.377 . S
C3712 C3711 1.373 . S
C3713 C3697 1.377 . S
C3713 C3711 1.389 . S
C3713 C3714 1.524 . S
C3714 C3713 1.524 . S
C3714 C3715 1.397 . S
C3714 C3719 1.363 . S
C3715 H3686 0.950 . S
C3715 C3714 1.397 . S
C3715 C3716 1.334 . S
C3716 H3687 0.950 . S
C3716 C3715 1.334 . S
C3716 C3717 1.287 . S
C3717 C3716 1.287 . S
C3717 C3718 1.524 . S
C3717 H3720 0.999 . S
C3718 H3688 0.950 . S
C3718 C3717 1.524 . S
C3718 C3719 1.415 . S
C3719 H3689 0.950 . S
C3719 C3714 1.363 . S
C3719 C3718 1.415 . S
H3720 C3717 0.999 . S
H3721 C3702 0.913 . S
H3722 C3740 0.951 . S
H3723 C3742 0.951 . S
H3724 C3744 0.950 . S
H3725 C3745 0.950 . S
H3726 C3747 0.950 . S
H3727 C3750 0.950 . S
H3728 C3751 0.950 . S
H3729 C3753 0.950 . S
H3730 C3754 0.950 . S
H3731 C3755 0.951 . S
H3732 C3757 0.951 . S
H3733 C3759 0.950 . S
H3734 C3760 0.950 . S
H3735 C3762 0.950 . S
H3736 C3765 0.950 . S
H3737 C3766 0.950 . S
H3738 C3768 0.950 . S
H3739 C3769 0.950 . S
C3740 H3722 0.951 . S
C3740 C3741 1.366 . S
C3740 C3742 1.388 . S
C3741 C3740 1.366 . S
C3741 C3745 1.385 . S
C3742 H3723 0.951 . S
C3742 C3740 1.388 . S
C3742 C3743 1.366 . S
C3743 C3742 1.366 . S
C3743 C3744 1.414 . S
C3743 C3746 1.499 . S
C3744 H3724 0.950 . S
C3744 C3743 1.414 . S
C3744 C3745 1.374 . S
C3745 H3725 0.950 . S
C3745 C3741 1.385 . S
C3745 C3744 1.374 . S
C3746 C3743 1.499 . S
C3746 C3747 1.373 . S
C3746 C3748 1.389 . S
C3747 H3726 0.950 . S
C3747 C3746 1.373 . S
C3747 C3763 1.377 . S
C3748 C3746 1.389 . S
C3748 C3749 1.524 . S
C3748 C3762 1.377 . S
C3749 C3748 1.524 . S
C3749 C3750 1.397 . S
C3749 C3754 1.363 . S
C3750 H3727 0.950 . S
C3750 C3749 1.397 . S
C3750 C3751 1.334 . S
C3751 H3728 0.950 . S
C3751 C3750 1.334 . S
C3751 C3752 1.287 . S
C3752 C3751 1.287 . S
C3752 C3753 1.524 . S
C3752 H3771 0.913 . S
C3753 H3729 0.950 . S
C3753 C3752 1.524 . S
C3753 C3754 1.415 . S
C3754 H3730 0.950 . S
C3754 C3749 1.363 . S
C3754 C3753 1.415 . S
C3755 H3731 0.951 . S
C3755 C3756 1.366 . S
C3755 C3757 1.388 . S
C3756 C3755 1.366 . S
C3756 C3760 1.385 . S
C3757 H3732 0.951 . S
C3757 C3755 1.388 . S
C3757 C3758 1.366 . S
C3758 C3757 1.366 . S
C3758 C3759 1.414 . S
C3758 C3761 1.499 . S
C3759 H3733 0.950 . S
C3759 C3758 1.414 . S
C3759 C3760 1.374 . S
C3760 H3734 0.950 . S
C3760 C3756 1.385 . S
C3760 C3759 1.374 . S
C3761 C3758 1.499 . S
C3761 C3762 1.373 . S
C3761 C3763 1.389 . S
C3762 H3735 0.950 . S
C3762 C3748 1.377 . S
C3762 C3761 1.373 . S
C3763 C3747 1.377 . S
C3763 C3761 1.389 . S
C3763 C3764 1.524 . S
C3764 C3763 1.524 . S
C3764 C3765 1.397 . S
C3764 C3769 1.363 . S
C3765 H3736 0.950 . S
C3765 C3764 1.397 . S
C3765 C3766 1.334 . S
C3766 H3737 0.950 . S
C3766 C3765 1.334 . S
C3766 C3767 1.287 . S
C3767 C3766 1.287 . S
C3767 C3768 1.524 . S
C3767 H3770 0.999 . S
C3768 H3738 0.950 . S
C3768 C3767 1.524 . S
C3768 C3769 1.415 . S
C3769 H3739 0.950 . S
C3769 C3764 1.363 . S
C3769 C3768 1.415 . S
H3770 C3767 0.999 . S
H3771 C3752 0.913 . S
H3772 C3790 0.951 . S
H3773 C3792 0.951 . S
H3774 C3794 0.950 . S
H3775 C3795 0.950 . S
H3776 C3797 0.950 . S
H3777 C3800 0.950 . S
H3778 C3801 0.950 . S
H3779 C3803 0.950 . S
H3780 C3804 0.950 . S
H3781 C3805 0.951 . S
H3782 C3807 0.951 . S
H3783 C3809 0.950 . S
H3784 C3810 0.950 . S
H3785 C3812 0.950 . S
H3786 C3815 0.950 . S
H3787 C3816 0.950 . S
H3788 C3818 0.950 . S
H3789 C3819 0.950 . S
C3790 H3772 0.951 . S
C3790 C3791 1.366 . S
C3790 C3792 1.388 . S
C3791 C3790 1.366 . S
C3791 C3795 1.385 . S
C3792 H3773 0.951 . S
C3792 C3790 1.388 . S
C3792 C3793 1.366 . S
C3793 C3792 1.366 . S
C3793 C3794 1.414 . S
C3793 C3796 1.499 . S
C3794 H3774 0.950 . S
C3794 C3793 1.414 . S
C3794 C3795 1.374 . S
C3795 H3775 0.950 . S
C3795 C3791 1.385 . S
C3795 C3794 1.374 . S
C3796 C3793 1.499 . S
C3796 C3797 1.373 . S
C3796 C3798 1.389 . S
C3797 H3776 0.950 . S
C3797 C3796 1.373 . S
C3797 C3813 1.377 . S
C3798 C3796 1.389 . S
C3798 C3799 1.524 . S
C3798 C3812 1.377 . S
C3799 C3798 1.524 . S
C3799 C3800 1.397 . S
C3799 C3804 1.363 . S
C3800 H3777 0.950 . S
C3800 C3799 1.397 . S
C3800 C3801 1.334 . S
C3801 H3778 0.950 . S
C3801 C3800 1.334 . S
C3801 C3802 1.287 . S
C3802 C3801 1.287 . S
C3802 C3803 1.524 . S
C3802 H3821 0.913 . S
C3803 H3779 0.950 . S
C3803 C3802 1.524 . S
C3803 C3804 1.415 . S
C3804 H3780 0.950 . S
C3804 C3799 1.363 . S
C3804 C3803 1.415 . S
C3805 H3781 0.951 . S
C3805 C3806 1.366 . S
C3805 C3807 1.388 . S
C3806 C3805 1.366 . S
C3806 C3810 1.385 . S
C3807 H3782 0.951 . S
C3807 C3805 1.388 . S
C3807 C3808 1.366 . S
C3808 C3807 1.366 . S
C3808 C3809 1.414 . S
C3808 C3811 1.499 . S
C3809 H3783 0.950 . S
C3809 C3808 1.414 . S
C3809 C3810 1.374 . S
C3810 H3784 0.950 . S
C3810 C3806 1.385 . S
C3810 C3809 1.374 . S
C3811 C3808 1.499 . S
C3811 C3812 1.373 . S
C3811 C3813 1.389 . S
C3812 H3785 0.950 . S
C3812 C3798 1.377 . S
C3812 C3811 1.373 . S
C3813 C3797 1.377 . S
C3813 C3811 1.389 . S
C3813 C3814 1.524 . S
C3814 C3813 1.524 . S
C3814 C3815 1.397 . S
C3814 C3819 1.363 . S
C3815 H3786 0.950 . S
C3815 C3814 1.397 . S
C3815 C3816 1.334 . S
C3816 H3787 0.950 . S
C3816 C3815 1.334 . S
C3816 C3817 1.287 . S
C3817 C3816 1.287 . S
C3817 C3818 1.524 . S
C3817 H3820 0.999 . S
C3818 H3788 0.950 . S
C3818 C3817 1.524 . S
C3818 C3819 1.415 . S
C3819 H3789 0.950 . S
C3819 C3814 1.363 . S
C3819 C3818 1.415 . S
H3820 C3817 0.999 . S
H3821 C3802 0.913 . S
H3822 C3840 0.951 . S
H3823 C3842 0.951 . S
H3824 C3844 0.950 . S
H3825 C3845 0.950 . S
H3826 C3847 0.950 . S
H3827 C3850 0.950 . S
H3828 C3851 0.950 . S
H3829 C3853 0.950 . S
H3830 C3854 0.950 . S
H3831 C3855 0.951 . S
H3832 C3857 0.951 . S
H3833 C3859 0.950 . S
H3834 C3860 0.950 . S
H3835 C3862 0.950 . S
H3836 C3865 0.950 . S
H3837 C3866 0.950 . S
H3838 C3868 0.950 . S
H3839 C3869 0.950 . S
C3840 H3822 0.951 . S
C3840 C3841 1.366 . S
C3840 C3842 1.388 . S
C3841 C3840 1.366 . S
C3841 C3845 1.385 . S
C3842 H3823 0.951 . S
C3842 C3840 1.388 . S
C3842 C3843 1.366 . S
C3843 C3842 1.366 . S
C3843 C3844 1.414 . S
C3843 C3846 1.499 . S
C3844 H3824 0.950 . S
C3844 C3843 1.414 . S
C3844 C3845 1.374 . S
C3845 H3825 0.950 . S
C3845 C3841 1.385 . S
C3845 C3844 1.374 . S
C3846 C3843 1.499 . S
C3846 C3847 1.373 . S
C3846 C3848 1.389 . S
C3847 H3826 0.950 . S
C3847 C3846 1.373 . S
C3847 C3863 1.377 . S
C3848 C3846 1.389 . S
C3848 C3849 1.524 . S
C3848 C3862 1.377 . S
C3849 C3848 1.524 . S
C3849 C3850 1.397 . S
C3849 C3854 1.363 . S
C3850 H3827 0.950 . S
C3850 C3849 1.397 . S
C3850 C3851 1.334 . S
C3851 H3828 0.950 . S
C3851 C3850 1.334 . S
C3851 C3852 1.287 . S
C3852 C3851 1.287 . S
C3852 C3853 1.524 . S
C3852 H3871 0.913 . S
C3853 H3829 0.950 . S
C3853 C3852 1.524 . S
C3853 C3854 1.415 . S
C3854 H3830 0.950 . S
C3854 C3849 1.363 . S
C3854 C3853 1.415 . S
C3855 H3831 0.951 . S
C3855 C3856 1.366 . S
C3855 C3857 1.388 . S
C3856 C3855 1.366 . S
C3856 C3860 1.385 . S
C3857 H3832 0.951 . S
C3857 C3855 1.388 . S
C3857 C3858 1.366 . S
C3858 C3857 1.366 . S
C3858 C3859 1.414 . S
C3858 C3861 1.499 . S
C3859 H3833 0.950 . S
C3859 C3858 1.414 . S
C3859 C3860 1.374 . S
C3860 H3834 0.950 . S
C3860 C3856 1.385 . S
C3860 C3859 1.374 . S
C3861 C3858 1.499 . S
C3861 C3862 1.373 . S
C3861 C3863 1.389 . S
C3862 H3835 0.950 . S
C3862 C3848 1.377 . S
C3862 C3861 1.373 . S
C3863 C3847 1.377 . S
C3863 C3861 1.389 . S
C3863 C3864 1.524 . S
C3864 C3863 1.524 . S
C3864 C3865 1.397 . S
C3864 C3869 1.363 . S
C3865 H3836 0.950 . S
C3865 C3864 1.397 . S
C3865 C3866 1.334 . S
C3866 H3837 0.950 . S
C3866 C3865 1.334 . S
C3866 C3867 1.287 . S
C3867 C3866 1.287 . S
C3867 C3868 1.524 . S
C3867 H3870 0.999 . S
C3868 H3838 0.950 . S
C3868 C3867 1.524 . S
C3868 C3869 1.415 . S
C3869 H3839 0.950 . S
C3869 C3864 1.363 . S
C3869 C3868 1.415 . S
H3870 C3867 0.999 . S
H3871 C3852 0.913 . S
H3872 C3890 0.951 . S
H3873 C3892 0.951 . S
H3874 C3894 0.950 . S
H3875 C3895 0.950 . S
H3876 C3897 0.950 . S
H3877 C3900 0.950 . S
H3878 C3901 0.950 . S
H3879 C3903 0.950 . S
H3880 C3904 0.950 . S
H3881 C3905 0.951 . S
H3882 C3907 0.951 . S
H3883 C3909 0.950 . S
H3884 C3910 0.950 . S
H3885 C3912 0.950 . S
H3886 C3915 0.950 . S
H3887 C3916 0.950 . S
H3888 C3918 0.950 . S
H3889 C3919 0.950 . S
C3890 H3872 0.951 . S
C3890 C3891 1.366 . S
C3890 C3892 1.388 . S
C3891 C3890 1.366 . S
C3891 C3895 1.385 . S
C3892 H3873 0.951 . S
C3892 C3890 1.388 . S
C3892 C3893 1.366 . S
C3893 C3892 1.366 . S
C3893 C3894 1.414 . S
C3893 C3896 1.499 . S
C3894 H3874 0.950 . S
C3894 C3893 1.414 . S
C3894 C3895 1.374 . S
C3895 H3875 0.950 . S
C3895 C3891 1.385 . S
C3895 C3894 1.374 . S
C3896 C3893 1.499 . S
C3896 C3897 1.373 . S
C3896 C3898 1.389 . S
C3897 H3876 0.950 . S
C3897 C3896 1.373 . S
C3897 C3913 1.377 . S
C3898 C3896 1.389 . S
C3898 C3899 1.524 . S
C3898 C3912 1.377 . S
C3899 C3898 1.524 . S
C3899 C3900 1.397 . S
C3899 C3904 1.363 . S
C3900 H3877 0.950 . S
C3900 C3899 1.397 . S
C3900 C3901 1.334 . S
C3901 H3878 0.950 . S
C3901 C3900 1.334 . S
C3901 C3902 1.287 . S
C3902 C3901 1.287 . S
C3902 C3903 1.524 . S
C3902 H3921 0.913 . S
C3903 H3879 0.950 . S
C3903 C3902 1.524 . S
C3903 C3904 1.415 . S
C3904 H3880 0.950 . S
C3904 C3899 1.363 . S
C3904 C3903 1.415 . S
C3905 H3881 0.951 . S
C3905 C3906 1.366 . S
C3905 C3907 1.388 . S
C3906 C3905 1.366 . S
C3906 C3910 1.385 . S
C3907 H3882 0.951 . S
C3907 C3905 1.388 . S
C3907 C3908 1.366 . S
C3908 C3907 1.366 . S
C3908 C3909 1.414 . S
C3908 C3911 1.499 . S
C3909 H3883 0.950 . S
C3909 C3908 1.414 . S
C3909 C3910 1.374 . S
C3910 H3884 0.950 . S
C3910 C3906 1.385 . S
C3910 C3909 1.374 . S
C3911 C3908 1.499 . S
C3911 C3912 1.373 . S
C3911 C3913 1.389 . S
C3912 H3885 0.950 . S
C3912 C3898 1.377 . S
C3912 C3911 1.373 . S
C3913 C3897 1.377 . S
C3913 C3911 1.389 . S
C3913 C3914 1.524 . S
C3914 C3913 1.524 . S
C3914 C3915 1.397 . S
C3914 C3919 1.363 . S
C3915 H3886 0.950 . S
C3915 C3914 1.397 . S
C3915 C3916 1.334 . S
C3916 H3887 0.950 . S
C3916 C3915 1.334 . S
C3916 C3917 1.287 . S
C3917 C3916 1.287 . S
C3917 C3918 1.524 . S
C3917 H3920 0.999 . S
C3918 H3888 0.950 . S
C3918 C3917 1.524 . S
C3918 C3919 1.415 . S
C3919 H3889 0.950 . S
C3919 C3914 1.363 . S
C3919 C3918 1.415 . S
H3920 C3917 0.999 . S
H3921 C3902 0.913 . S
H3922 C3940 0.951 . S
H3923 C3942 0.951 . S
H3924 C3944 0.950 . S
H3925 C3945 0.950 . S
H3926 C3947 0.950 . S
H3927 C3950 0.950 . S
H3928 C3951 0.950 . S
H3929 C3953 0.950 . S
H3930 C3954 0.950 . S
H3931 C3955 0.951 . S
H3932 C3957 0.951 . S
H3933 C3959 0.950 . S
H3934 C3960 0.950 . S
H3935 C3962 0.950 . S
H3936 C3965 0.950 . S
H3937 C3966 0.950 . S
H3938 C3968 0.950 . S
H3939 C3969 0.950 . S
C3940 H3922 0.951 . S
C3940 C3941 1.366 . S
C3940 C3942 1.388 . S
C3941 C3940 1.366 . S
C3941 C3945 1.385 . S
C3942 H3923 0.951 . S
C3942 C3940 1.388 . S
C3942 C3943 1.366 . S
C3943 C3942 1.366 . S
C3943 C3944 1.414 . S
C3943 C3946 1.499 . S
C3944 H3924 0.950 . S
C3944 C3943 1.414 . S
C3944 C3945 1.374 . S
C3945 H3925 0.950 . S
C3945 C3941 1.385 . S
C3945 C3944 1.374 . S
C3946 C3943 1.499 . S
C3946 C3947 1.373 . S
C3946 C3948 1.389 . S
C3947 H3926 0.950 . S
C3947 C3946 1.373 . S
C3947 C3963 1.377 . S
C3948 C3946 1.389 . S
C3948 C3949 1.524 . S
C3948 C3962 1.377 . S
C3949 C3948 1.524 . S
C3949 C3950 1.397 . S
C3949 C3954 1.363 . S
C3950 H3927 0.950 . S
C3950 C3949 1.397 . S
C3950 C3951 1.334 . S
C3951 H3928 0.950 . S
C3951 C3950 1.334 . S
C3951 C3952 1.287 . S
C3952 C3951 1.287 . S
C3952 C3953 1.524 . S
C3952 H3971 0.913 . S
C3953 H3929 0.950 . S
C3953 C3952 1.524 . S
C3953 C3954 1.415 . S
C3954 H3930 0.950 . S
C3954 C3949 1.363 . S
C3954 C3953 1.415 . S
C3955 H3931 0.951 . S
C3955 C3956 1.366 . S
C3955 C3957 1.388 . S
C3956 C3955 1.366 . S
C3956 C3960 1.385 . S
C3957 H3932 0.951 . S
C3957 C3955 1.388 . S
C3957 C3958 1.366 . S
C3958 C3957 1.366 . S
C3958 C3959 1.414 . S
C3958 C3961 1.499 . S
C3959 H3933 0.950 . S
C3959 C3958 1.414 . S
C3959 C3960 1.374 . S
C3960 H3934 0.950 . S
C3960 C3956 1.385 . S
C3960 C3959 1.374 . S
C3961 C3958 1.499 . S
C3961 C3962 1.373 . S
C3961 C3963 1.389 . S
C3962 H3935 0.950 . S
C3962 C3948 1.377 . S
C3962 C3961 1.373 . S
C3963 C3947 1.377 . S
C3963 C3961 1.389 . S
C3963 C3964 1.524 . S
C3964 C3963 1.524 . S
C3964 C3965 1.397 . S
C3964 C3969 1.363 . S
C3965 H3936 0.950 . S
C3965 C3964 1.397 . S
C3965 C3966 1.334 . S
C3966 H3937 0.950 . S
C3966 C3965 1.334 . S
C3966 C3967 1.287 . S
C3967 C3966 1.287 . S
C3967 C3968 1.524 . S
C3967 H3970 0.999 . S
C3968 H3938 0.950 . S
C3968 C3967 1.524 . S
C3968 C3969 1.415 . S
C3969 H3939 0.950 . S
C3969 C3964 1.363 . S
C3969 C3968 1.415 . S
H3970 C3967 0.999 . S
H3971 C3952 0.913 . S
H3972 C3990 0.951 . S
H3973 C3992 0.951 . S
H3974 C3994 0.950 . S
H3975 C3995 0.950 . S
H3976 C3997 0.950 . S
H3977 C4000 0.950 . S
H3978 C4001 0.950 . S
H3979 C4003 0.950 . S
H3980 C4004 0.950 . S
H3981 C4005 0.951 . S
H3982 C4007 0.951 . S
H3983 C4009 0.950 . S
H3984 C4010 0.950 . S
H3985 C4012 0.950 . S
H3986 C4015 0.950 . S
H3987 C4016 0.950 . S
H3988 C4018 0.950 . S
H3989 C4019 0.950 . S
C3990 H3972 0.951 . S
C3990 C3991 1.366 . S
C3990 C3992 1.388 . S
C3991 C3990 1.366 . S
C3991 C3995 1.385 . S
C3992 H3973 0.951 . S
C3992 C3990 1.388 . S
C3992 C3993 1.366 . S
C3993 C3992 1.366 . S
C3993 C3994 1.414 . S
C3993 C3996 1.499 . S
C3994 H3974 0.950 . S
C3994 C3993 1.414 . S
C3994 C3995 1.374 . S
C3995 H3975 0.950 . S
C3995 C3991 1.385 . S
C3995 C3994 1.374 . S
C3996 C3993 1.499 . S
C3996 C3997 1.373 . S
C3996 C3998 1.389 . S
C3997 H3976 0.950 . S
C3997 C3996 1.373 . S
C3997 C4013 1.377 . S
C3998 C3996 1.389 . S
C3998 C3999 1.524 . S
C3998 C4012 1.377 . S
C3999 C3998 1.524 . S
C3999 C4000 1.397 . S
C3999 C4004 1.363 . S
C4000 H3977 0.950 . S
C4000 C3999 1.397 . S
C4000 C4001 1.334 . S
C4001 H3978 0.950 . S
C4001 C4000 1.334 . S
C4001 C4002 1.287 . S
C4002 C4001 1.287 . S
C4002 C4003 1.524 . S
C4002 H4021 0.913 . S
C4003 H3979 0.950 . S
C4003 C4002 1.524 . S
C4003 C4004 1.415 . S
C4004 H3980 0.950 . S
C4004 C3999 1.363 . S
C4004 C4003 1.415 . S
C4005 H3981 0.951 . S
C4005 C4006 1.366 . S
C4005 C4007 1.388 . S
C4006 C4005 1.366 . S
C4006 C4010 1.385 . S
C4007 H3982 0.951 . S
C4007 C4005 1.388 . S
C4007 C4008 1.366 . S
C4008 C4007 1.366 . S
C4008 C4009 1.414 . S
C4008 C4011 1.499 . S
C4009 H3983 0.950 . S
C4009 C4008 1.414 . S
C4009 C4010 1.374 . S
C4010 H3984 0.950 . S
C4010 C4006 1.385 . S
C4010 C4009 1.374 . S
C4011 C4008 1.499 . S
C4011 C4012 1.373 . S
C4011 C4013 1.389 . S
C4012 H3985 0.950 . S
C4012 C3998 1.377 . S
C4012 C4011 1.373 . S
C4013 C3997 1.377 . S
C4013 C4011 1.389 . S
C4013 C4014 1.524 . S
C4014 C4013 1.524 . S
C4014 C4015 1.397 . S
C4014 C4019 1.363 . S
C4015 H3986 0.950 . S
C4015 C4014 1.397 . S
C4015 C4016 1.334 . S
C4016 H3987 0.950 . S
C4016 C4015 1.334 . S
C4016 C4017 1.287 . S
C4017 C4016 1.287 . S
C4017 C4018 1.524 . S
C4017 H4020 0.999 . S
C4018 H3988 0.950 . S
C4018 C4017 1.524 . S
C4018 C4019 1.415 . S
C4019 H3989 0.950 . S
C4019 C4014 1.363 . S
C4019 C4018 1.415 . S
H4020 C4017 0.999 . S
H4021 C4002 0.913 . S
H4022 C4040 0.951 . S
H4023 C4042 0.951 . S
H4024 C4044 0.950 . S
H4025 C4045 0.950 . S
H4026 C4047 0.950 . S
H4027 C4050 0.950 . S
H4028 C4051 0.950 . S
H4029 C4053 0.950 . S
H4030 C4054 0.950 . S
H4031 C4055 0.951 . S
H4032 C4057 0.951 . S
H4033 C4059 0.950 . S
H4034 C4060 0.950 . S
H4035 C4062 0.950 . S
H4036 C4065 0.950 . S
H4037 C4066 0.950 . S
H4038 C4068 0.950 . S
H4039 C4069 0.950 . S
C4040 H4022 0.951 . S
C4040 C4041 1.366 . S
C4040 C4042 1.388 . S
C4041 C4040 1.366 . S
C4041 C4045 1.385 . S
C4042 H4023 0.951 . S
C4042 C4040 1.388 . S
C4042 C4043 1.366 . S
C4043 C4042 1.366 . S
C4043 C4044 1.414 . S
C4043 C4046 1.499 . S
C4044 H4024 0.950 . S
C4044 C4043 1.414 . S
C4044 C4045 1.374 . S
C4045 H4025 0.950 . S
C4045 C4041 1.385 . S
C4045 C4044 1.374 . S
C4046 C4043 1.499 . S
C4046 C4047 1.373 . S
C4046 C4048 1.389 . S
C4047 H4026 0.950 . S
C4047 C4046 1.373 . S
C4047 C4063 1.377 . S
C4048 C4046 1.389 . S
C4048 C4049 1.524 . S
C4048 C4062 1.377 . S
C4049 C4048 1.524 . S
C4049 C4050 1.397 . S
C4049 C4054 1.363 . S
C4050 H4027 0.950 . S
C4050 C4049 1.397 . S
C4050 C4051 1.334 . S
C4051 H4028 0.950 . S
C4051 C4050 1.334 . S
C4051 C4052 1.287 . S
C4052 C4051 1.287 . S
C4052 C4053 1.524 . S
C4052 H4071 0.913 . S
C4053 H4029 0.950 . S
C4053 C4052 1.524 . S
C4053 C4054 1.415 . S
C4054 H4030 0.950 . S
C4054 C4049 1.363 . S
C4054 C4053 1.415 . S
C4055 H4031 0.951 . S
C4055 C4056 1.366 . S
C4055 C4057 1.388 . S
C4056 C4055 1.366 . S
C4056 C4060 1.385 . S
C4057 H4032 0.951 . S
C4057 C4055 1.388 . S
C4057 C4058 1.366 . S
C4058 C4057 1.366 . S
C4058 C4059 1.414 . S
C4058 C4061 1.499 . S
C4059 H4033 0.950 . S
C4059 C4058 1.414 . S
C4059 C4060 1.374 . S
C4060 H4034 0.950 . S
C4060 C4056 1.385 . S
C4060 C4059 1.374 . S
C4061 C4058 1.499 . S
C4061 C4062 1.373 . S
C4061 C4063 1.389 . S
C4062 H4035 0.950 . S
C4062 C4048 1.377 . S
C4062 C4061 1.373 . S
C4063 C4047 1.377 . S
C4063 C4061 1.389 . S
C4063 C4064 1.524 . S
C4064 C4063 1.524 . S
C4064 C4065 1.397 . S
C4064 C4069 1.363 . S
C4065 H4036 0.950 . S
C4065 C4064 1.397 . S
C4065 C4066 1.334 . S
C4066 H4037 0.950 . S
C4066 C4065 1.334 . S
C4066 C4067 1.287 . S
C4067 C4066 1.287 . S
C4067 C4068 1.524 . S
C4067 H4070 0.999 . S
C4068 H4038 0.950 . S
C4068 C4067 1.524 . S
C4068 C4069 1.415 . S
C4069 H4039 0.950 . S
C4069 C4064 1.363 . S
C4069 C4068 1.415 . S
H4070 C4067 0.999 . S
H4071 C4052 0.913 . S
H4072 C4090 0.951 . S
H4073 C4092 0.951 . S
H4074 C4094 0.950 . S
H4075 C4095 0.950 . S
H4076 C4097 0.950 . S
H4077 C4100 0.950 . S
H4078 C4101 0.950 . S
H4079 C4103 0.950 . S
H4080 C4104 0.950 . S
H4081 C4105 0.951 . S
H4082 C4107 0.951 . S
H4083 C4109 0.950 . S
H4084 C4110 0.950 . S
H4085 C4112 0.950 . S
H4086 C4115 0.950 . S
H4087 C4116 0.950 . S
H4088 C4118 0.950 . S
H4089 C4119 0.950 . S
C4090 H4072 0.951 . S
C4090 C4091 1.366 . S
C4090 C4092 1.388 . S
C4091 C4090 1.366 . S
C4091 C4095 1.385 . S
C4092 H4073 0.951 . S
C4092 C4090 1.388 . S
C4092 C4093 1.366 . S
C4093 C4092 1.366 . S
C4093 C4094 1.414 . S
C4093 C4096 1.499 . S
C4094 H4074 0.950 . S
C4094 C4093 1.414 . S
C4094 C4095 1.374 . S
C4095 H4075 0.950 . S
C4095 C4091 1.385 . S
C4095 C4094 1.374 . S
C4096 C4093 1.499 . S
C4096 C4097 1.373 . S
C4096 C4098 1.389 . S
C4097 H4076 0.950 . S
C4097 C4096 1.373 . S
C4097 C4113 1.377 . S
C4098 C4096 1.389 . S
C4098 C4099 1.524 . S
C4098 C4112 1.377 . S
C4099 C4098 1.524 . S
C4099 C4100 1.397 . S
C4099 C4104 1.363 . S
C4100 H4077 0.950 . S
C4100 C4099 1.397 . S
C4100 C4101 1.334 . S
C4101 H4078 0.950 . S
C4101 C4100 1.334 . S
C4101 C4102 1.287 . S
C4102 C4101 1.287 . S
C4102 C4103 1.524 . S
C4102 H4121 0.913 . S
C4103 H4079 0.950 . S
C4103 C4102 1.524 . S
C4103 C4104 1.415 . S
C4104 H4080 0.950 . S
C4104 C4099 1.363 . S
C4104 C4103 1.415 . S
C4105 H4081 0.951 . S
C4105 C4106 1.366 . S
C4105 C4107 1.388 . S
C4106 C4105 1.366 . S
C4106 C4110 1.385 . S
C4107 H4082 0.951 . S
C4107 C4105 1.388 . S
C4107 C4108 1.366 . S
C4108 C4107 1.366 . S
C4108 C4109 1.414 . S
C4108 C4111 1.499 . S
C4109 H4083 0.950 . S
C4109 C4108 1.414 . S
C4109 C4110 1.374 . S
C4110 H4084 0.950 . S
C4110 C4106 1.385 . S
C4110 C4109 1.374 . S
C4111 C4108 1.499 . S
C4111 C4112 1.373 . S
C4111 C4113 1.389 . S
C4112 H4085 0.950 . S
C4112 C4098 1.377 . S
C4112 C4111 1.373 . S
C4113 C4097 1.377 . S
C4113 C4111 1.389 . S
C4113 C4114 1.524 . S
C4114 C4113 1.524 . S
C4114 C4115 1.397 . S
C4114 C4119 1.363 . S
C4115 H4086 0.950 . S
C4115 C4114 1.397 . S
C4115 C4116 1.334 . S
C4116 H4087 0.950 . S
C4116 C4115 1.334 . S
C4116 C4117 1.287 . S
C4117 C4116 1.287 . S
C4117 C4118 1.524 . S
C4117 H4120 0.999 . S
C4118 H4088 0.950 . S
C4118 C4117 1.524 . S
C4118 C4119 1.415 . S
C4119 H4089 0.950 . S
C4119 C4114 1.363 . S
C4119 C4118 1.415 . S
H4120 C4117 0.999 . S
H4121 C4102 0.913 . S
H4122 C4140 0.951 . S
H4123 C4142 0.951 . S
H4124 C4144 0.950 . S
H4125 C4145 0.950 . S
H4126 C4147 0.950 . S
H4127 C4150 0.950 . S
H4128 C4151 0.950 . S
H4129 C4153 0.950 . S
H4130 C4154 0.950 . S
H4131 C4155 0.951 . S
H4132 C4157 0.951 . S
H4133 C4159 0.950 . S
H4134 C4160 0.950 . S
H4135 C4162 0.950 . S
H4136 C4165 0.950 . S
H4137 C4166 0.950 . S
H4138 C4168 0.950 . S
H4139 C4169 0.950 . S
C4140 H4122 0.951 . S
C4140 C4141 1.366 . S
C4140 C4142 1.388 . S
C4141 C4140 1.366 . S
C4141 C4145 1.385 . S
C4142 H4123 0.951 . S
C4142 C4140 1.388 . S
C4142 C4143 1.366 . S
C4143 C4142 1.366 . S
C4143 C4144 1.414 . S
C4143 C4146 1.499 . S
C4144 H4124 0.950 . S
C4144 C4143 1.414 . S
C4144 C4145 1.374 . S
C4145 H4125 0.950 . S
C4145 C4141 1.385 . S
C4145 C4144 1.374 . S
C4146 C4143 1.499 . S
C4146 C4147 1.373 . S
C4146 C4148 1.389 . S
C4147 H4126 0.950 . S
C4147 C4146 1.373 . S
C4147 C4163 1.377 . S
C4148 C4146 1.389 . S
C4148 C4149 1.524 . S
C4148 C4162 1.377 . S
C4149 C4148 1.524 . S
C4149 C4150 1.397 . S
C4149 C4154 1.363 . S
C4150 H4127 0.950 . S
C4150 C4149 1.397 . S
C4150 C4151 1.334 . S
C4151 H4128 0.950 . S
C4151 C4150 1.334 . S
C4151 C4152 1.287 . S
C4152 C4151 1.287 . S
C4152 C4153 1.524 . S
C4152 H4171 0.913 . S
C4153 H4129 0.950 . S
C4153 C4152 1.524 . S
C4153 C4154 1.415 . S
C4154 H4130 0.950 . S
C4154 C4149 1.363 . S
C4154 C4153 1.415 . S
C4155 H4131 0.951 . S
C4155 C4156 1.366 . S
C4155 C4157 1.388 . S
C4156 C4155 1.366 . S
C4156 C4160 1.385 . S
C4157 H4132 0.951 . S
C4157 C4155 1.388 . S
C4157 C4158 1.366 . S
C4158 C4157 1.366 . S
C4158 C4159 1.414 . S
C4158 C4161 1.499 . S
C4159 H4133 0.950 . S
C4159 C4158 1.414 . S
C4159 C4160 1.374 . S
C4160 H4134 0.950 . S
C4160 C4156 1.385 . S
C4160 C4159 1.374 . S
C4161 C4158 1.499 . S
C4161 C4162 1.373 . S
C4161 C4163 1.389 . S
C4162 H4135 0.950 . S
C4162 C4148 1.377 . S
C4162 C4161 1.373 . S
C4163 C4147 1.377 . S
C4163 C4161 1.389 . S
C4163 C4164 1.524 . S
C4164 C4163 1.524 . S
C4164 C4165 1.397 . S
C4164 C4169 1.363 . S
C4165 H4136 0.950 . S
C4165 C4164 1.397 . S
C4165 C4166 1.334 . S
C4166 H4137 0.950 . S
C4166 C4165 1.334 . S
C4166 C4167 1.287 . S
C4167 C4166 1.287 . S
C4167 C4168 1.524 . S
C4167 H4170 0.999 . S
C4168 H4138 0.950 . S
C4168 C4167 1.524 . S
C4168 C4169 1.415 . S
C4169 H4139 0.950 . S
C4169 C4164 1.363 . S
C4169 C4168 1.415 . S
H4170 C4167 0.999 . S
H4171 C4152 0.913 . S
H4172 C4190 0.951 . S
H4173 C4192 0.951 . S
H4174 C4194 0.950 . S
H4175 C4195 0.950 . S
H4176 C4197 0.950 . S
H4177 C4200 0.950 . S
H4178 C4201 0.950 . S
H4179 C4203 0.950 . S
H4180 C4204 0.950 . S
H4181 C4205 0.951 . S
H4182 C4207 0.951 . S
H4183 C4209 0.950 . S
H4184 C4210 0.950 . S
H4185 C4212 0.950 . S
H4186 C4215 0.950 . S
H4187 C4216 0.950 . S
H4188 C4218 0.950 . S
H4189 C4219 0.950 . S
C4190 H4172 0.951 . S
C4190 C4191 1.366 . S
C4190 C4192 1.388 . S
C4191 C4190 1.366 . S
C4191 C4195 1.385 . S
C4192 H4173 0.951 . S
C4192 C4190 1.388 . S
C4192 C4193 1.366 . S
C4193 C4192 1.366 . S
C4193 C4194 1.414 . S
C4193 C4196 1.499 . S
C4194 H4174 0.950 . S
C4194 C4193 1.414 . S
C4194 C4195 1.374 . S
C4195 H4175 0.950 . S
C4195 C4191 1.385 . S
C4195 C4194 1.374 . S
C4196 C4193 1.499 . S
C4196 C4197 1.373 . S
C4196 C4198 1.389 . S
C4197 H4176 0.950 . S
C4197 C4196 1.373 . S
C4197 C4213 1.377 . S
C4198 C4196 1.389 . S
C4198 C4199 1.524 . S
C4198 C4212 1.377 . S
C4199 C4198 1.524 . S
C4199 C4200 1.397 . S
C4199 C4204 1.363 . S
C4200 H4177 0.950 . S
C4200 C4199 1.397 . S
C4200 C4201 1.334 . S
C4201 H4178 0.950 . S
C4201 C4200 1.334 . S
C4201 C4202 1.287 . S
C4202 C4201 1.287 . S
C4202 C4203 1.524 . S
C4202 H4221 0.913 . S
C4203 H4179 0.950 . S
C4203 C4202 1.524 . S
C4203 C4204 1.415 . S
C4204 H4180 0.950 . S
C4204 C4199 1.363 . S
C4204 C4203 1.415 . S
C4205 H4181 0.951 . S
C4205 C4206 1.366 . S
C4205 C4207 1.388 . S
C4206 C4205 1.366 . S
C4206 C4210 1.385 . S
C4207 H4182 0.951 . S
C4207 C4205 1.388 . S
C4207 C4208 1.366 . S
C4208 C4207 1.366 . S
C4208 C4209 1.414 . S
C4208 C4211 1.499 . S
C4209 H4183 0.950 . S
C4209 C4208 1.414 . S
C4209 C4210 1.374 . S
C4210 H4184 0.950 . S
C4210 C4206 1.385 . S
C4210 C4209 1.374 . S
C4211 C4208 1.499 . S
C4211 C4212 1.373 . S
C4211 C4213 1.389 . S
C4212 H4185 0.950 . S
C4212 C4198 1.377 . S
C4212 C4211 1.373 . S
C4213 C4197 1.377 . S
C4213 C4211 1.389 . S
C4213 C4214 1.524 . S
C4214 C4213 1.524 . S
C4214 C4215 1.397 . S
C4214 C4219 1.363 . S
C4215 H4186 0.950 . S
C4215 C4214 1.397 . S
C4215 C4216 1.334 . S
C4216 H4187 0.950 . S
C4216 C4215 1.334 . S
C4216 C4217 1.287 . S
C4217 C4216 1.287 . S
C4217 C4218 1.524 . S
C4217 H4220 0.999 . S
C4218 H4188 0.950 . S
C4218 C4217 1.524 . S
C4218 C4219 1.415 . S
C4219 H4189 0.950 . S
C4219 C4214 1.363 . S
C4219 C4218 1.415 . S
H4220 C4217 0.999 . S
H4221 C4202 0.913 . S
H4222 C4240 0.951 . S
H4223 C4242 0.951 . S
H4224 C4244 0.950 . S
H4225 C4245 0.950 . S
H4226 C4247 0.950 . S
H4227 C4250 0.950 . S
H4228 C4251 0.950 . S
H4229 C4253 0.950 . S
H4230 C4254 0.950 . S
H4231 C4255 0.951 . S
H4232 C4257 0.951 . S
H4233 C4259 0.950 . S
H4234 C4260 0.950 . S
H4235 C4262 0.950 . S
H4236 C4265 0.950 . S
H4237 C4266 0.950 . S
H4238 C4268 0.950 . S
H4239 C4269 0.950 . S
C4240 H4222 0.951 . S
C4240 C4241 1.366 . S
C4240 C4242 1.388 . S
C4241 C4240 1.366 . S
C4241 C4245 1.385 . S
C4242 H4223 0.951 . S
C4242 C4240 1.388 . S
C4242 C4243 1.366 . S
C4243 C4242 1.366 . S
C4243 C4244 1.414 . S
C4243 C4246 1.499 . S
C4244 H4224 0.950 . S
C4244 C4243 1.414 . S
C4244 C4245 1.374 . S
C4245 H4225 0.950 . S
C4245 C4241 1.385 . S
C4245 C4244 1.374 . S
C4246 C4243 1.499 . S
C4246 C4247 1.373 . S
C4246 C4248 1.389 . S
C4247 H4226 0.950 . S
C4247 C4246 1.373 . S
C4247 C4263 1.377 . S
C4248 C4246 1.389 . S
C4248 C4249 1.524 . S
C4248 C4262 1.377 . S
C4249 C4248 1.524 . S
C4249 C4250 1.397 . S
C4249 C4254 1.363 . S
C4250 H4227 0.950 . S
C4250 C4249 1.397 . S
C4250 C4251 1.334 . S
C4251 H4228 0.950 . S
C4251 C4250 1.334 . S
C4251 C4252 1.287 . S
C4252 C4251 1.287 . S
C4252 C4253 1.524 . S
C4252 H4271 0.913 . S
C4253 H4229 0.950 . S
C4253 C4252 1.524 . S
C4253 C4254 1.415 . S
C4254 H4230 0.950 . S
C4254 C4249 1.363 . S
C4254 C4253 1.415 . S
C4255 H4231 0.951 . S
C4255 C4256 1.366 . S
C4255 C4257 1.388 . S
C4256 C4255 1.366 . S
C4256 C4260 1.385 . S
C4257 H4232 0.951 . S
C4257 C4255 1.388 . S
C4257 C4258 1.366 . S
C4258 C4257 1.366 . S
C4258 C4259 1.414 . S
C4258 C4261 1.499 . S
C4259 H4233 0.950 . S
C4259 C4258 1.414 . S
C4259 C4260 1.374 . S
C4260 H4234 0.950 . S
C4260 C4256 1.385 . S
C4260 C4259 1.374 . S
C4261 C4258 1.499 . S
C4261 C4262 1.373 . S
C4261 C4263 1.389 . S
C4262 H4235 0.950 . S
C4262 C4248 1.377 . S
C4262 C4261 1.373 . S
C4263 C4247 1.377 . S
C4263 C4261 1.389 . S
C4263 C4264 1.524 . S
C4264 C4263 1.524 . S
C4264 C4265 1.397 . S
C4264 C4269 1.363 . S
C4265 H4236 0.950 . S
C4265 C4264 1.397 . S
C4265 C4266 1.334 . S
C4266 H4237 0.950 . S
C4266 C4265 1.334 . S
C4266 C4267 1.287 . S
C4267 C4266 1.287 . S
C4267 C4268 1.524 . S
C4267 H4270 0.999 . S
C4268 H4238 0.950 . S
C4268 C4267 1.524 . S
C4268 C4269 1.415 . S
C4269 H4239 0.950 . S
C4269 C4264 1.363 . S
C4269 C4268 1.415 . S
H4270 C4267 0.999 . S
H4271 C4252 0.913 . S
H4272 C4290 0.951 . S
H4273 C4292 0.951 . S
H4274 C4294 0.950 . S
H4275 C4295 0.950 . S
H4276 C4297 0.950 . S
H4277 C4300 0.950 . S
H4278 C4301 0.950 . S
H4279 C4303 0.950 . S
H4280 C4304 0.950 . S
H4281 C4305 0.951 . S
H4282 C4307 0.951 . S
H4283 C4309 0.950 . S
H4284 C4310 0.950 . S
H4285 C4312 0.950 . S
H4286 C4315 0.950 . S
H4287 C4316 0.950 . S
H4288 C4318 0.950 . S
H4289 C4319 0.950 . S
C4290 H4272 0.951 . S
C4290 C4291 1.366 . S
C4290 C4292 1.388 . S
C4291 C4290 1.366 . S
C4291 C4295 1.385 . S
C4292 H4273 0.951 . S
C4292 C4290 1.388 . S
C4292 C4293 1.366 . S
C4293 C4292 1.366 . S
C4293 C4294 1.414 . S
C4293 C4296 1.499 . S
C4294 H4274 0.950 . S
C4294 C4293 1.414 . S
C4294 C4295 1.374 . S
C4295 H4275 0.950 . S
C4295 C4291 1.385 . S
C4295 C4294 1.374 . S
C4296 C4293 1.499 . S
C4296 C4297 1.373 . S
C4296 C4298 1.389 . S
C4297 H4276 0.950 . S
C4297 C4296 1.373 . S
C4297 C4313 1.377 1_554 S
C4298 C4296 1.389 . S
C4298 C4299 1.524 . S
C4298 C4312 1.377 1_554 S
C4299 C4298 1.524 . S
C4299 C4300 1.397 . S
C4299 C4304 1.363 . S
C4300 H4277 0.950 . S
C4300 C4299 1.397 . S
C4300 C4301 1.334 . S
C4301 H4278 0.950 . S
C4301 C4300 1.334 . S
C4301 C4302 1.287 . S
C4302 C4301 1.287 . S
C4302 C4303 1.524 . S
C4302 H4321 0.913 . S
C4303 H4279 0.950 . S
C4303 C4302 1.524 . S
C4303 C4304 1.415 . S
C4304 H4280 0.950 . S
C4304 C4299 1.363 . S
C4304 C4303 1.415 . S
C4305 H4281 0.951 . S
C4305 C4306 1.366 . S
C4305 C4307 1.388 . S
C4306 C4305 1.366 . S
C4306 C4310 1.385 . S
C4307 H4282 0.951 . S
C4307 C4305 1.388 . S
C4307 C4308 1.366 . S
C4308 C4307 1.366 . S
C4308 C4309 1.414 . S
C4308 C4311 1.499 . S
C4309 H4283 0.950 . S
C4309 C4308 1.414 . S
C4309 C4310 1.374 . S
C4310 H4284 0.950 . S
C4310 C4306 1.385 . S
C4310 C4309 1.374 . S
C4311 C4308 1.499 . S
C4311 C4312 1.373 . S
C4311 C4313 1.389 . S
C4312 H4285 0.950 . S
C4312 C4298 1.377 1_556 S
C4312 C4311 1.373 . S
C4313 C4297 1.377 1_556 S
C4313 C4311 1.389 . S
C4313 C4314 1.524 . S
C4314 C4313 1.524 . S
C4314 C4315 1.397 . S
C4314 C4319 1.363 . S
C4315 H4286 0.950 . S
C4315 C4314 1.397 . S
C4315 C4316 1.334 . S
C4316 H4287 0.950 . S
C4316 C4315 1.334 . S
C4316 C4317 1.287 . S
C4317 C4316 1.287 . S
C4317 C4318 1.524 . S
C4317 H4320 0.999 . S
C4318 H4288 0.950 . S
C4318 C4317 1.524 . S
C4318 C4319 1.415 . S
C4319 H4289 0.950 . S
C4319 C4314 1.363 . S
C4319 C4318 1.415 . S
H4320 C4317 0.999 . S
H4321 C4302 0.913 . S
H4322 C4340 0.951 . S
H4323 C4342 0.951 . S
H4324 C4344 0.950 . S
H4325 C4345 0.950 . S
H4326 C4347 0.950 . S
H4327 C4350 0.950 . S
H4328 C4351 0.950 . S
H4329 C4353 0.950 . S
H4330 C4354 0.950 . S
H4331 C4355 0.951 . S
H4332 C4357 0.951 . S
H4333 C4359 0.950 . S
H4334 C4360 0.950 . S
H4335 C4362 0.950 . S
H4336 C4365 0.950 . S
H4337 C4366 0.950 . S
H4338 C4368 0.950 . S
H4339 C4369 0.950 . S
C4340 H4322 0.951 . S
C4340 C4341 1.366 . S
C4340 C4342 1.388 . S
C4341 C4340 1.366 . S
C4341 C4345 1.385 . S
C4342 H4323 0.951 . S
C4342 C4340 1.388 . S
C4342 C4343 1.366 . S
C4343 C4342 1.366 . S
C4343 C4344 1.414 . S
C4343 C4346 1.499 . S
C4344 H4324 0.950 . S
C4344 C4343 1.414 . S
C4344 C4345 1.374 . S
C4345 H4325 0.950 . S
C4345 C4341 1.385 . S
C4345 C4344 1.374 . S
C4346 C4343 1.499 . S
C4346 C4347 1.373 . S
C4346 C4348 1.389 . S
C4347 H4326 0.950 . S
C4347 C4346 1.373 . S
C4347 C4363 1.377 1_556 S
C4348 C4346 1.389 . S
C4348 C4349 1.524 . S
C4348 C4362 1.377 1_556 S
C4349 C4348 1.524 . S
C4349 C4350 1.397 . S
C4349 C4354 1.363 . S
C4350 H4327 0.950 . S
C4350 C4349 1.397 . S
C4350 C4351 1.334 . S
C4351 H4328 0.950 . S
C4351 C4350 1.334 . S
C4351 C4352 1.287 . S
C4352 C4351 1.287 . S
C4352 C4353 1.524 . S
C4352 H4371 0.913 . S
C4353 H4329 0.950 . S
C4353 C4352 1.524 . S
C4353 C4354 1.415 . S
C4354 H4330 0.950 . S
C4354 C4349 1.363 . S
C4354 C4353 1.415 . S
C4355 H4331 0.951 . S
C4355 C4356 1.366 . S
C4355 C4357 1.388 . S
C4356 C4355 1.366 . S
C4356 C4360 1.385 . S
C4357 H4332 0.951 . S
C4357 C4355 1.388 . S
C4357 C4358 1.366 . S
C4358 C4357 1.366 . S
C4358 C4359 1.414 . S
C4358 C4361 1.499 . S
C4359 H4333 0.950 . S
C4359 C4358 1.414 . S
C4359 C4360 1.374 . S
C4360 H4334 0.950 . S
C4360 C4356 1.385 . S
C4360 C4359 1.374 . S
C4361 C4358 1.499 . S
C4361 C4362 1.373 . S
C4361 C4363 1.389 . S
C4362 H4335 0.950 . S
C4362 C4348 1.377 1_554 S
C4362 C4361 1.373 . S
C4363 C4347 1.377 1_554 S
C4363 C4361 1.389 . S
C4363 C4364 1.524 . S
C4364 C4363 1.524 . S
C4364 C4365 1.397 . S
C4364 C4369 1.363 . S
C4365 H4336 0.950 . S
C4365 C4364 1.397 . S
C4365 C4366 1.334 . S
C4366 H4337 0.950 . S
C4366 C4365 1.334 . S
C4366 C4367 1.287 . S
C4367 C4366 1.287 . S
C4367 C4368 1.524 . S
C4367 H4370 0.999 . S
C4368 H4338 0.950 . S
C4368 C4367 1.524 . S
C4368 C4369 1.415 . S
C4369 H4339 0.950 . S
C4369 C4364 1.363 . S
C4369 C4368 1.415 . S
H4370 C4367 0.999 . S
H4371 C4352 0.913 . S
H4372 C4390 0.951 . S
H4373 C4392 0.951 . S
H4374 C4394 0.950 . S
H4375 C4395 0.950 . S
H4376 C4397 0.950 . S
H4377 C4400 0.950 . S
H4378 C4401 0.950 . S
H4379 C4403 0.950 . S
H4380 C4404 0.950 . S
H4381 C4405 0.951 . S
H4382 C4407 0.951 . S
H4383 C4409 0.950 . S
H4384 C4410 0.950 . S
H4385 C4412 0.950 . S
H4386 C4415 0.950 . S
H4387 C4416 0.950 . S
H4388 C4418 0.950 . S
H4389 C4419 0.950 . S
C4390 H4372 0.951 . S
C4390 C4391 1.366 . S
C4390 C4392 1.388 . S
C4391 C4390 1.366 . S
C4391 C4395 1.385 . S
C4392 H4373 0.951 . S
C4392 C4390 1.388 . S
C4392 C4393 1.366 . S
C4393 C4392 1.366 . S
C4393 C4394 1.414 . S
C4393 C4396 1.499 . S
C4394 H4374 0.950 . S
C4394 C4393 1.414 . S
C4394 C4395 1.374 . S
C4395 H4375 0.950 . S
C4395 C4391 1.385 . S
C4395 C4394 1.374 . S
C4396 C4393 1.499 . S
C4396 C4397 1.373 . S
C4396 C4398 1.389 . S
C4397 H4376 0.950 . S
C4397 C4396 1.373 . S
C4397 C4413 1.377 1_554 S
C4398 C4396 1.389 . S
C4398 C4399 1.524 . S
C4398 C4412 1.377 1_554 S
C4399 C4398 1.524 . S
C4399 C4400 1.397 . S
C4399 C4404 1.363 . S
C4400 H4377 0.950 . S
C4400 C4399 1.397 . S
C4400 C4401 1.334 . S
C4401 H4378 0.950 . S
C4401 C4400 1.334 . S
C4401 C4402 1.287 . S
C4402 C4401 1.287 . S
C4402 C4403 1.524 . S
C4402 H4421 0.913 . S
C4403 H4379 0.950 . S
C4403 C4402 1.524 . S
C4403 C4404 1.415 . S
C4404 H4380 0.950 . S
C4404 C4399 1.363 . S
C4404 C4403 1.415 . S
C4405 H4381 0.951 . S
C4405 C4406 1.366 . S
C4405 C4407 1.388 . S
C4406 C4405 1.366 . S
C4406 C4410 1.385 . S
C4407 H4382 0.951 . S
C4407 C4405 1.388 . S
C4407 C4408 1.366 . S
C4408 C4407 1.366 . S
C4408 C4409 1.414 . S
C4408 C4411 1.499 . S
C4409 H4383 0.950 . S
C4409 C4408 1.414 . S
C4409 C4410 1.374 . S
C4410 H4384 0.950 . S
C4410 C4406 1.385 . S
C4410 C4409 1.374 . S
C4411 C4408 1.499 . S
C4411 C4412 1.373 . S
C4411 C4413 1.389 . S
C4412 H4385 0.950 . S
C4412 C4398 1.377 1_556 S
C4412 C4411 1.373 . S
C4413 C4397 1.377 1_556 S
C4413 C4411 1.389 . S
C4413 C4414 1.524 . S
C4414 C4413 1.524 . S
C4414 C4415 1.397 . S
C4414 C4419 1.363 . S
C4415 H4386 0.950 . S
C4415 C4414 1.397 . S
C4415 C4416 1.334 . S
C4416 H4387 0.950 . S
C4416 C4415 1.334 . S
C4416 C4417 1.287 . S
C4417 C4416 1.287 . S
C4417 C4418 1.524 . S
C4417 H4420 0.999 . S
C4418 H4388 0.950 . S
C4418 C4417 1.524 . S
C4418 C4419 1.415 . S
C4419 H4389 0.950 . S
C4419 C4414 1.363 . S
C4419 C4418 1.415 . S
H4420 C4417 0.999 . S
H4421 C4402 0.913 . S
H4422 C4440 0.951 . S
H4423 C4442 0.951 . S
H4424 C4444 0.950 . S
H4425 C4445 0.950 . S
H4426 C4447 0.950 . S
H4427 C4450 0.950 . S
H4428 C4451 0.950 . S
H4429 C4453 0.950 . S
H4430 C4454 0.950 . S
H4431 C4455 0.951 . S
H4432 C4457 0.951 . S
H4433 C4459 0.950 . S
H4434 C4460 0.950 . S
H4435 C4462 0.950 . S
H4436 C4465 0.950 . S
H4437 C4466 0.950 . S
H4438 C4468 0.950 . S
H4439 C4469 0.950 . S
C4440 H4422 0.951 . S
C4440 C4441 1.366 . S
C4440 C4442 1.388 . S
C4441 C4440 1.366 . S
C4441 C4445 1.385 . S
C4442 H4423 0.951 . S
C4442 C4440 1.388 . S
C4442 C4443 1.366 . S
C4443 C4442 1.366 . S
C4443 C4444 1.414 . S
C4443 C4446 1.499 . S
C4444 H4424 0.950 . S
C4444 C4443 1.414 . S
C4444 C4445 1.374 . S
C4445 H4425 0.950 . S
C4445 C4441 1.385 . S
C4445 C4444 1.374 . S
C4446 C4443 1.499 . S
C4446 C4447 1.373 . S
C4446 C4448 1.389 . S
C4447 H4426 0.950 . S
C4447 C4446 1.373 . S
C4447 C4463 1.377 1_554 S
C4448 C4446 1.389 . S
C4448 C4449 1.524 . S
C4448 C4462 1.377 1_554 S
C4449 C4448 1.524 . S
C4449 C4450 1.397 . S
C4449 C4454 1.363 . S
C4450 H4427 0.950 . S
C4450 C4449 1.397 . S
C4450 C4451 1.334 . S
C4451 H4428 0.950 . S
C4451 C4450 1.334 . S
C4451 C4452 1.287 . S
C4452 C4451 1.287 . S
C4452 C4453 1.524 . S
C4452 H4471 0.913 . S
C4453 H4429 0.950 . S
C4453 C4452 1.524 . S
C4453 C4454 1.415 . S
C4454 H4430 0.950 . S
C4454 C4449 1.363 . S
C4454 C4453 1.415 . S
C4455 H4431 0.951 . S
C4455 C4456 1.366 . S
C4455 C4457 1.388 . S
C4456 C4455 1.366 . S
C4456 C4460 1.385 . S
C4457 H4432 0.951 . S
C4457 C4455 1.388 . S
C4457 C4458 1.366 . S
C4458 C4457 1.366 . S
C4458 C4459 1.414 . S
C4458 C4461 1.499 . S
C4459 H4433 0.950 . S
C4459 C4458 1.414 . S
C4459 C4460 1.374 . S
C4460 H4434 0.950 . S
C4460 C4456 1.385 . S
C4460 C4459 1.374 . S
C4461 C4458 1.499 . S
C4461 C4462 1.373 . S
C4461 C4463 1.389 . S
C4462 H4435 0.950 . S
C4462 C4448 1.377 1_556 S
C4462 C4461 1.373 . S
C4463 C4447 1.377 1_556 S
C4463 C4461 1.389 . S
C4463 C4464 1.524 . S
C4464 C4463 1.524 . S
C4464 C4465 1.397 . S
C4464 C4469 1.363 . S
C4465 H4436 0.950 . S
C4465 C4464 1.397 . S
C4465 C4466 1.334 . S
C4466 H4437 0.950 . S
C4466 C4465 1.334 . S
C4466 C4467 1.287 . S
C4467 C4466 1.287 . S
C4467 C4468 1.524 . S
C4467 H4470 0.999 . S
C4468 H4438 0.950 . S
C4468 C4467 1.524 . S
C4468 C4469 1.415 . S
C4469 H4439 0.950 . S
C4469 C4464 1.363 . S
C4469 C4468 1.415 . S
H4470 C4467 0.999 . S
H4471 C4452 0.913 . S
H4472 C4490 0.951 . S
H4473 C4492 0.951 . S
H4474 C4494 0.950 . S
H4475 C4495 0.950 . S
H4476 C4497 0.950 . S
H4477 C4500 0.950 . S
H4478 C4501 0.950 . S
H4479 C4503 0.950 . S
H4480 C4504 0.950 . S
H4481 C4505 0.951 . S
H4482 C4507 0.951 . S
H4483 C4509 0.950 . S
H4484 C4510 0.950 . S
H4485 C4512 0.950 . S
H4486 C4515 0.950 . S
H4487 C4516 0.950 . S
H4488 C4518 0.950 . S
H4489 C4519 0.950 . S
C4490 H4472 0.951 . S
C4490 C4491 1.366 . S
C4490 C4492 1.388 . S
C4491 C4490 1.366 . S
C4491 C4495 1.385 . S
C4492 H4473 0.951 . S
C4492 C4490 1.388 . S
C4492 C4493 1.366 . S
C4493 C4492 1.366 . S
C4493 C4494 1.414 . S
C4493 C4496 1.499 . S
C4494 H4474 0.950 . S
C4494 C4493 1.414 . S
C4494 C4495 1.374 . S
C4495 H4475 0.950 . S
C4495 C4491 1.385 . S
C4495 C4494 1.374 . S
C4496 C4493 1.499 . S
C4496 C4497 1.373 . S
C4496 C4498 1.389 . S
C4497 H4476 0.950 . S
C4497 C4496 1.373 . S
C4497 C4513 1.377 1_556 S
C4498 C4496 1.389 . S
C4498 C4499 1.524 . S
C4498 C4512 1.377 1_556 S
C4499 C4498 1.524 . S
C4499 C4500 1.397 . S
C4499 C4504 1.363 . S
C4500 H4477 0.950 . S
C4500 C4499 1.397 . S
C4500 C4501 1.334 . S
C4501 H4478 0.950 . S
C4501 C4500 1.334 . S
C4501 C4502 1.287 . S
C4502 C4501 1.287 . S
C4502 C4503 1.524 . S
C4502 H4521 0.913 . S
C4503 H4479 0.950 . S
C4503 C4502 1.524 . S
C4503 C4504 1.415 . S
C4504 H4480 0.950 . S
C4504 C4499 1.363 . S
C4504 C4503 1.415 . S
C4505 H4481 0.951 . S
C4505 C4506 1.366 . S
C4505 C4507 1.388 . S
C4506 C4505 1.366 . S
C4506 C4510 1.385 . S
C4507 H4482 0.951 . S
C4507 C4505 1.388 . S
C4507 C4508 1.366 . S
C4508 C4507 1.366 . S
C4508 C4509 1.414 . S
C4508 C4511 1.499 . S
C4509 H4483 0.950 . S
C4509 C4508 1.414 . S
C4509 C4510 1.374 . S
C4510 H4484 0.950 . S
C4510 C4506 1.385 . S
C4510 C4509 1.374 . S
C4511 C4508 1.499 . S
C4511 C4512 1.373 . S
C4511 C4513 1.389 . S
C4512 H4485 0.950 . S
C4512 C4498 1.377 1_554 S
C4512 C4511 1.373 . S
C4513 C4497 1.377 1_554 S
C4513 C4511 1.389 . S
C4513 C4514 1.524 . S
C4514 C4513 1.524 . S
C4514 C4515 1.397 . S
C4514 C4519 1.363 . S
C4515 H4486 0.950 . S
C4515 C4514 1.397 . S
C4515 C4516 1.334 . S
C4516 H4487 0.950 . S
C4516 C4515 1.334 . S
C4516 C4517 1.287 . S
C4517 C4516 1.287 . S
C4517 C4518 1.524 . S
C4517 H4520 0.999 . S
C4518 H4488 0.950 . S
C4518 C4517 1.524 . S
C4518 C4519 1.415 . S
C4519 H4489 0.950 . S
C4519 C4514 1.363 . S
C4519 C4518 1.415 . S
H4520 C4517 0.999 . S
H4521 C4502 0.913 . S
H4522 C4540 0.951 . S
H4523 C4542 0.951 . S
H4524 C4544 0.950 . S
H4525 C4545 0.950 . S
H4526 C4547 0.950 . S
H4527 C4550 0.950 . S
H4528 C4551 0.950 . S
H4529 C4553 0.950 . S
H4530 C4554 0.950 . S
H4531 C4555 0.951 . S
H4532 C4557 0.951 . S
H4533 C4559 0.950 . S
H4534 C4560 0.950 . S
H4535 C4562 0.950 . S
H4536 C4565 0.950 . S
H4537 C4566 0.950 . S
H4538 C4568 0.950 . S
H4539 C4569 0.950 . S
C4540 H4522 0.951 . S
C4540 C4541 1.366 . S
C4540 C4542 1.388 . S
C4541 C4540 1.366 . S
C4541 C4545 1.385 . S
C4542 H4523 0.951 . S
C4542 C4540 1.388 . S
C4542 C4543 1.366 . S
C4543 C4542 1.366 . S
C4543 C4544 1.414 . S
C4543 C4546 1.499 . S
C4544 H4524 0.950 . S
C4544 C4543 1.414 . S
C4544 C4545 1.374 . S
C4545 H4525 0.950 . S
C4545 C4541 1.385 . S
C4545 C4544 1.374 . S
C4546 C4543 1.499 . S
C4546 C4547 1.373 . S
C4546 C4548 1.389 . S
C4547 H4526 0.950 . S
C4547 C4546 1.373 . S
C4547 C4563 1.377 1_554 S
C4548 C4546 1.389 . S
C4548 C4549 1.524 . S
C4548 C4562 1.377 1_554 S
C4549 C4548 1.524 . S
C4549 C4550 1.397 . S
C4549 C4554 1.363 . S
C4550 H4527 0.950 . S
C4550 C4549 1.397 . S
C4550 C4551 1.334 . S
C4551 H4528 0.950 . S
C4551 C4550 1.334 . S
C4551 C4552 1.287 . S
C4552 C4551 1.287 . S
C4552 C4553 1.524 . S
C4552 H4571 0.913 . S
C4553 H4529 0.950 . S
C4553 C4552 1.524 . S
C4553 C4554 1.415 . S
C4554 H4530 0.950 . S
C4554 C4549 1.363 . S
C4554 C4553 1.415 . S
C4555 H4531 0.951 . S
C4555 C4556 1.366 . S
C4555 C4557 1.388 . S
C4556 C4555 1.366 . S
C4556 C4560 1.385 . S
C4557 H4532 0.951 . S
C4557 C4555 1.388 . S
C4557 C4558 1.366 . S
C4558 C4557 1.366 . S
C4558 C4559 1.414 . S
C4558 C4561 1.499 . S
C4559 H4533 0.950 . S
C4559 C4558 1.414 . S
C4559 C4560 1.374 . S
C4560 H4534 0.950 . S
C4560 C4556 1.385 . S
C4560 C4559 1.374 . S
C4561 C4558 1.499 . S
C4561 C4562 1.373 . S
C4561 C4563 1.389 . S
C4562 H4535 0.950 . S
C4562 C4548 1.377 1_556 S
C4562 C4561 1.373 . S
C4563 C4547 1.377 1_556 S
C4563 C4561 1.389 . S
C4563 C4564 1.524 . S
C4564 C4563 1.524 . S
C4564 C4565 1.397 . S
C4564 C4569 1.363 . S
C4565 H4536 0.950 . S
C4565 C4564 1.397 . S
C4565 C4566 1.334 . S
C4566 H4537 0.950 . S
C4566 C4565 1.334 . S
C4566 C4567 1.287 . S
C4567 C4566 1.287 . S
C4567 C4568 1.524 . S
C4567 H4570 0.999 . S
C4568 H4538 0.950 . S
C4568 C4567 1.524 . S
C4568 C4569 1.415 . S
C4569 H4539 0.950 . S
C4569 C4564 1.363 . S
C4569 C4568 1.415 . S
H4570 C4567 0.999 . S
H4571 C4552 0.913 . S
H4572 C4590 0.951 . S
H4573 C4592 0.951 . S
H4574 C4594 0.950 . S
H4575 C4595 0.950 . S
H4576 C4597 0.950 . S
H4577 C4600 0.950 . S
H4578 C4601 0.950 . S
H4579 C4603 0.950 . S
H4580 C4604 0.950 . S
H4581 C4605 0.951 . S
H4582 C4607 0.951 . S
H4583 C4609 0.950 . S
H4584 C4610 0.950 . S
H4585 C4612 0.950 . S
H4586 C4615 0.950 . S
H4587 C4616 0.950 . S
H4588 C4618 0.950 . S
H4589 C4619 0.950 . S
C4590 H4572 0.951 . S
C4590 C4591 1.366 . S
C4590 C4592 1.388 . S
C4591 C4590 1.366 . S
C4591 C4595 1.385 . S
C4592 H4573 0.951 . S
C4592 C4590 1.388 . S
C4592 C4593 1.366 . S
C4593 C4592 1.366 . S
C4593 C4594 1.414 . S
C4593 C4596 1.499 . S
C4594 H4574 0.950 . S
C4594 C4593 1.414 . S
C4594 C4595 1.374 . S
C4595 H4575 0.950 . S
C4595 C4591 1.385 . S
C4595 C4594 1.374 . S
C4596 C4593 1.499 . S
C4596 C4597 1.373 . S
C4596 C4598 1.389 . S
C4597 H4576 0.950 . S
C4597 C4596 1.373 . S
C4597 C4613 1.377 1_556 S
C4598 C4596 1.389 . S
C4598 C4599 1.524 . S
C4598 C4612 1.377 1_556 S
C4599 C4598 1.524 . S
C4599 C4600 1.397 . S
C4599 C4604 1.363 . S
C4600 H4577 0.950 . S
C4600 C4599 1.397 . S
C4600 C4601 1.334 . S
C4601 H4578 0.950 . S
C4601 C4600 1.334 . S
C4601 C4602 1.287 . S
C4602 C4601 1.287 . S
C4602 C4603 1.524 . S
C4602 H4621 0.913 . S
C4603 H4579 0.950 . S
C4603 C4602 1.524 . S
C4603 C4604 1.415 . S
C4604 H4580 0.950 . S
C4604 C4599 1.363 . S
C4604 C4603 1.415 . S
C4605 H4581 0.951 . S
C4605 C4606 1.366 . S
C4605 C4607 1.388 . S
C4606 C4605 1.366 . S
C4606 C4610 1.385 . S
C4607 H4582 0.951 . S
C4607 C4605 1.388 . S
C4607 C4608 1.366 . S
C4608 C4607 1.366 . S
C4608 C4609 1.414 . S
C4608 C4611 1.499 . S
C4609 H4583 0.950 . S
C4609 C4608 1.414 . S
C4609 C4610 1.374 . S
C4610 H4584 0.950 . S
C4610 C4606 1.385 . S
C4610 C4609 1.374 . S
C4611 C4608 1.499 . S
C4611 C4612 1.373 . S
C4611 C4613 1.389 . S
C4612 H4585 0.950 . S
C4612 C4598 1.377 1_554 S
C4612 C4611 1.373 . S
C4613 C4597 1.377 1_554 S
C4613 C4611 1.389 . S
C4613 C4614 1.524 . S
C4614 C4613 1.524 . S
C4614 C4615 1.397 . S
C4614 C4619 1.363 . S
C4615 H4586 0.950 . S
C4615 C4614 1.397 . S
C4615 C4616 1.334 . S
C4616 H4587 0.950 . S
C4616 C4615 1.334 . S
C4616 C4617 1.287 . S
C4617 C4616 1.287 . S
C4617 C4618 1.524 . S
C4617 H4620 0.999 . S
C4618 H4588 0.950 . S
C4618 C4617 1.524 . S
C4618 C4619 1.415 . S
C4619 H4589 0.950 . S
C4619 C4614 1.363 . S
C4619 C4618 1.415 . S
H4620 C4617 0.999 . S
H4621 C4602 0.913 . S
H4622 C4640 0.951 . S
H4623 C4642 0.951 . S
H4624 C4644 0.950 . S
H4625 C4645 0.950 . S
H4626 C4647 0.950 . S
H4627 C4650 0.950 . S
H4628 C4651 0.950 . S
H4629 C4653 0.950 . S
H4630 C4654 0.950 . S
H4631 C4655 0.951 . S
H4632 C4657 0.951 . S
H4633 C4659 0.950 . S
H4634 C4660 0.950 . S
H4635 C4662 0.950 . S
H4636 C4665 0.950 . S
H4637 C4666 0.950 . S
H4638 C4668 0.950 . S
H4639 C4669 0.950 . S
C4640 H4622 0.951 . S
C4640 C4641 1.366 . S
C4640 C4642 1.388 . S
C4641 C4640 1.366 . S
C4641 C4645 1.385 . S
C4642 H4623 0.951 . S
C4642 C4640 1.388 . S
C4642 C4643 1.366 . S
C4643 C4642 1.366 . S
C4643 C4644 1.414 . S
C4643 C4646 1.499 . S
C4644 H4624 0.950 . S
C4644 C4643 1.414 . S
C4644 C4645 1.374 . S
C4645 H4625 0.950 . S
C4645 C4641 1.385 . S
C4645 C4644 1.374 . S
C4646 C4643 1.499 . S
C4646 C4647 1.373 . S
C4646 C4648 1.389 . S
C4647 H4626 0.950 . S
C4647 C4646 1.373 . S
C4647 C4663 1.377 1_554 S
C4648 C4646 1.389 . S
C4648 C4649 1.524 . S
C4648 C4662 1.377 1_554 S
C4649 C4648 1.524 . S
C4649 C4650 1.397 . S
C4649 C4654 1.363 . S
C4650 H4627 0.950 . S
C4650 C4649 1.397 . S
C4650 C4651 1.334 . S
C4651 H4628 0.950 . S
C4651 C4650 1.334 . S
C4651 C4652 1.287 . S
C4652 C4651 1.287 . S
C4652 C4653 1.524 . S
C4652 H4671 0.913 . S
C4653 H4629 0.950 . S
C4653 C4652 1.524 . S
C4653 C4654 1.415 . S
C4654 H4630 0.950 . S
C4654 C4649 1.363 . S
C4654 C4653 1.415 . S
C4655 H4631 0.951 . S
C4655 C4656 1.366 . S
C4655 C4657 1.388 . S
C4656 C4655 1.366 . S
C4656 C4660 1.385 . S
C4657 H4632 0.951 . S
C4657 C4655 1.388 . S
C4657 C4658 1.366 . S
C4658 C4657 1.366 . S
C4658 C4659 1.414 . S
C4658 C4661 1.499 . S
C4659 H4633 0.950 . S
C4659 C4658 1.414 . S
C4659 C4660 1.374 . S
C4660 H4634 0.950 . S
C4660 C4656 1.385 . S
C4660 C4659 1.374 . S
C4661 C4658 1.499 . S
C4661 C4662 1.373 . S
C4661 C4663 1.389 . S
C4662 H4635 0.950 . S
C4662 C4648 1.377 1_556 S
C4662 C4661 1.373 . S
C4663 C4647 1.377 1_556 S
C4663 C4661 1.389 . S
C4663 C4664 1.524 . S
C4664 C4663 1.524 . S
C4664 C4665 1.397 . S
C4664 C4669 1.363 . S
C4665 H4636 0.950 . S
C4665 C4664 1.397 . S
C4665 C4666 1.334 . S
C4666 H4637 0.950 . S
C4666 C4665 1.334 . S
C4666 C4667 1.287 . S
C4667 C4666 1.287 . S
C4667 C4668 1.524 . S
C4667 H4670 0.999 . S
C4668 H4638 0.950 . S
C4668 C4667 1.524 . S
C4668 C4669 1.415 . S
C4669 H4639 0.950 . S
C4669 C4664 1.363 . S
C4669 C4668 1.415 . S
H4670 C4667 0.999 . S
H4671 C4652 0.913 . S
H4672 C4690 0.951 . S
H4673 C4692 0.951 . S
H4674 C4694 0.950 . S
H4675 C4695 0.950 . S
H4676 C4697 0.950 . S
H4677 C4700 0.950 . S
H4678 C4701 0.950 . S
H4679 C4703 0.950 . S
H4680 C4704 0.950 . S
H4681 C4705 0.951 . S
H4682 C4707 0.951 . S
H4683 C4709 0.950 . S
H4684 C4710 0.950 . S
H4685 C4712 0.950 . S
H4686 C4715 0.950 . S
H4687 C4716 0.950 . S
H4688 C4718 0.950 . S
H4689 C4719 0.950 . S
C4690 H4672 0.951 . S
C4690 C4691 1.366 . S
C4690 C4692 1.388 . S
C4691 C4690 1.366 . S
C4691 C4695 1.385 . S
C4692 H4673 0.951 . S
C4692 C4690 1.388 . S
C4692 C4693 1.366 . S
C4693 C4692 1.366 . S
C4693 C4694 1.414 . S
C4693 C4696 1.499 . S
C4694 H4674 0.950 . S
C4694 C4693 1.414 . S
C4694 C4695 1.374 . S
C4695 H4675 0.950 . S
C4695 C4691 1.385 . S
C4695 C4694 1.374 . S
C4696 C4693 1.499 . S
C4696 C4697 1.373 . S
C4696 C4698 1.389 . S
C4697 H4676 0.950 . S
C4697 C4696 1.373 . S
C4697 C4713 1.377 1_455 S
C4698 C4696 1.389 . S
C4698 C4699 1.524 . S
C4698 C4712 1.377 1_455 S
C4699 C4698 1.524 . S
C4699 C4700 1.397 . S
C4699 C4704 1.363 . S
C4700 H4677 0.950 . S
C4700 C4699 1.397 . S
C4700 C4701 1.334 . S
C4701 H4678 0.950 . S
C4701 C4700 1.334 . S
C4701 C4702 1.287 . S
C4702 C4701 1.287 . S
C4702 C4703 1.524 . S
C4702 H4721 0.913 . S
C4703 H4679 0.950 . S
C4703 C4702 1.524 . S
C4703 C4704 1.415 . S
C4704 H4680 0.950 . S
C4704 C4699 1.363 . S
C4704 C4703 1.415 . S
C4705 H4681 0.951 . S
C4705 C4706 1.366 . S
C4705 C4707 1.388 . S
C4706 C4705 1.366 . S
C4706 C4710 1.385 . S
C4707 H4682 0.951 . S
C4707 C4705 1.388 . S
C4707 C4708 1.366 . S
C4708 C4707 1.366 . S
C4708 C4709 1.414 . S
C4708 C4711 1.499 . S
C4709 H4683 0.950 . S
C4709 C4708 1.414 . S
C4709 C4710 1.374 . S
C4710 H4684 0.950 . S
C4710 C4706 1.385 . S
C4710 C4709 1.374 . S
C4711 C4708 1.499 . S
C4711 C4712 1.373 . S
C4711 C4713 1.389 . S
C4712 H4685 0.950 . S
C4712 C4698 1.377 1_655 S
C4712 C4711 1.373 . S
C4713 C4697 1.377 1_655 S
C4713 C4711 1.389 . S
C4713 C4714 1.524 . S
C4714 C4713 1.524 . S
C4714 C4715 1.397 . S
C4714 C4719 1.363 . S
C4715 H4686 0.950 . S
C4715 C4714 1.397 . S
C4715 C4716 1.334 . S
C4716 H4687 0.950 . S
C4716 C4715 1.334 . S
C4716 C4717 1.287 . S
C4717 C4716 1.287 . S
C4717 C4718 1.524 . S
C4717 H4720 0.999 . S
C4718 H4688 0.950 . S
C4718 C4717 1.524 . S
C4718 C4719 1.415 . S
C4719 H4689 0.950 . S
C4719 C4714 1.363 . S
C4719 C4718 1.415 . S
H4720 C4717 0.999 . S
H4721 C4702 0.913 . S
H4722 C4740 0.951 . S
H4723 C4742 0.951 . S
H4724 C4744 0.950 . S
H4725 C4745 0.950 . S
H4726 C4747 0.950 . S
H4727 C4750 0.950 . S
H4728 C4751 0.950 . S
H4729 C4753 0.950 . S
H4730 C4754 0.950 . S
H4731 C4755 0.951 . S
H4732 C4757 0.951 . S
H4733 C4759 0.950 . S
H4734 C4760 0.950 . S
H4735 C4762 0.950 . S
H4736 C4765 0.950 . S
H4737 C4766 0.950 . S
H4738 C4768 0.950 . S
H4739 C4769 0.950 . S
C4740 H4722 0.951 . S
C4740 C4741 1.366 . S
C4740 C4742 1.388 . S
C4741 C4740 1.366 . S
C4741 C4745 1.385 . S
C4742 H4723 0.951 . S
C4742 C4740 1.388 . S
C4742 C4743 1.366 . S
C4743 C4742 1.366 . S
C4743 C4744 1.414 . S
C4743 C4746 1.499 . S
C4744 H4724 0.950 . S
C4744 C4743 1.414 . S
C4744 C4745 1.374 . S
C4745 H4725 0.950 . S
C4745 C4741 1.385 . S
C4745 C4744 1.374 . S
C4746 C4743 1.499 . S
C4746 C4747 1.373 . S
C4746 C4748 1.389 . S
C4747 H4726 0.950 . S
C4747 C4746 1.373 . S
C4747 C4763 1.377 1_565 S
C4748 C4746 1.389 . S
C4748 C4749 1.524 . S
C4748 C4762 1.377 1_565 S
C4749 C4748 1.524 . S
C4749 C4750 1.397 . S
C4749 C4754 1.363 . S
C4750 H4727 0.950 . S
C4750 C4749 1.397 . S
C4750 C4751 1.334 . S
C4751 H4728 0.950 . S
C4751 C4750 1.334 . S
C4751 C4752 1.287 . S
C4752 C4751 1.287 . S
C4752 C4753 1.524 . S
C4752 H4771 0.913 . S
C4753 H4729 0.950 . S
C4753 C4752 1.524 . S
C4753 C4754 1.415 . S
C4754 H4730 0.950 . S
C4754 C4749 1.363 . S
C4754 C4753 1.415 . S
C4755 H4731 0.951 . S
C4755 C4756 1.366 . S
C4755 C4757 1.388 . S
C4756 C4755 1.366 . S
C4756 C4760 1.385 . S
C4757 H4732 0.951 . S
C4757 C4755 1.388 . S
C4757 C4758 1.366 . S
C4758 C4757 1.366 . S
C4758 C4759 1.414 . S
C4758 C4761 1.499 . S
C4759 H4733 0.950 . S
C4759 C4758 1.414 . S
C4759 C4760 1.374 . S
C4760 H4734 0.950 . S
C4760 C4756 1.385 . S
C4760 C4759 1.374 . S
C4761 C4758 1.499 . S
C4761 C4762 1.373 . S
C4761 C4763 1.389 . S
C4762 H4735 0.950 . S
C4762 C4748 1.377 1_545 S
C4762 C4761 1.373 . S
C4763 C4747 1.377 1_545 S
C4763 C4761 1.389 . S
C4763 C4764 1.524 . S
C4764 C4763 1.524 . S
C4764 C4765 1.397 . S
C4764 C4769 1.363 . S
C4765 H4736 0.950 . S
C4765 C4764 1.397 . S
C4765 C4766 1.334 . S
C4766 H4737 0.950 . S
C4766 C4765 1.334 . S
C4766 C4767 1.287 . S
C4767 C4766 1.287 . S
C4767 C4768 1.524 . S
C4767 H4770 0.999 . S
C4768 H4738 0.950 . S
C4768 C4767 1.524 . S
C4768 C4769 1.415 . S
C4769 H4739 0.950 . S
C4769 C4764 1.363 . S
C4769 C4768 1.415 . S
H4770 C4767 0.999 . S
H4771 C4752 0.913 . S
H4772 C4790 0.951 . S
H4773 C4792 0.951 . S
H4774 C4794 0.950 . S
H4775 C4795 0.950 . S
H4776 C4797 0.950 . S
H4777 C4800 0.950 . S
H4778 C4801 0.950 . S
H4779 C4803 0.950 . S
H4780 C4804 0.950 . S
H4781 C4805 0.951 . S
H4782 C4807 0.951 . S
H4783 C4809 0.950 . S
H4784 C4810 0.950 . S
H4785 C4812 0.950 . S
H4786 C4815 0.950 . S
H4787 C4816 0.950 . S
H4788 C4818 0.950 . S
H4789 C4819 0.950 . S
C4790 H4772 0.951 . S
C4790 C4791 1.366 . S
C4790 C4792 1.388 . S
C4791 C4790 1.366 . S
C4791 C4795 1.385 . S
C4792 H4773 0.951 . S
C4792 C4790 1.388 . S
C4792 C4793 1.366 . S
C4793 C4792 1.366 . S
C4793 C4794 1.414 . S
C4793 C4796 1.499 . S
C4794 H4774 0.950 . S
C4794 C4793 1.414 . S
C4794 C4795 1.374 . S
C4795 H4775 0.950 . S
C4795 C4791 1.385 . S
C4795 C4794 1.374 . S
C4796 C4793 1.499 . S
C4796 C4797 1.373 . S
C4796 C4798 1.389 . S
C4797 H4776 0.950 . S
C4797 C4796 1.373 . S
C4797 C4813 1.377 1_455 S
C4798 C4796 1.389 . S
C4798 C4799 1.524 . S
C4798 C4812 1.377 1_455 S
C4799 C4798 1.524 . S
C4799 C4800 1.397 . S
C4799 C4804 1.363 . S
C4800 H4777 0.950 . S
C4800 C4799 1.397 . S
C4800 C4801 1.334 . S
C4801 H4778 0.950 . S
C4801 C4800 1.334 . S
C4801 C4802 1.287 . S
C4802 C4801 1.287 . S
C4802 C4803 1.524 . S
C4802 H4821 0.913 . S
C4803 H4779 0.950 . S
C4803 C4802 1.524 . S
C4803 C4804 1.415 . S
C4804 H4780 0.950 . S
C4804 C4799 1.363 . S
C4804 C4803 1.415 . S
C4805 H4781 0.951 . S
C4805 C4806 1.366 . S
C4805 C4807 1.388 . S
C4806 C4805 1.366 . S
C4806 C4810 1.385 . S
C4807 H4782 0.951 . S
C4807 C4805 1.388 . S
C4807 C4808 1.366 . S
C4808 C4807 1.366 . S
C4808 C4809 1.414 . S
C4808 C4811 1.499 . S
C4809 H4783 0.950 . S
C4809 C4808 1.414 . S
C4809 C4810 1.374 . S
C4810 H4784 0.950 . S
C4810 C4806 1.385 . S
C4810 C4809 1.374 . S
C4811 C4808 1.499 . S
C4811 C4812 1.373 . S
C4811 C4813 1.389 . S
C4812 H4785 0.950 . S
C4812 C4798 1.377 1_655 S
C4812 C4811 1.373 . S
C4813 C4797 1.377 1_655 S
C4813 C4811 1.389 . S
C4813 C4814 1.524 . S
C4814 C4813 1.524 . S
C4814 C4815 1.397 . S
C4814 C4819 1.363 . S
C4815 H4786 0.950 . S
C4815 C4814 1.397 . S
C4815 C4816 1.334 . S
C4816 H4787 0.950 . S
C4816 C4815 1.334 . S
C4816 C4817 1.287 . S
C4817 C4816 1.287 . S
C4817 C4818 1.524 . S
C4817 H4820 0.999 . S
C4818 H4788 0.950 . S
C4818 C4817 1.524 . S
C4818 C4819 1.415 . S
C4819 H4789 0.950 . S
C4819 C4814 1.363 . S
C4819 C4818 1.415 . S
H4820 C4817 0.999 . S
H4821 C4802 0.913 . S
H4822 C4840 0.951 . S
H4823 C4842 0.951 . S
H4824 C4844 0.950 . S
H4825 C4845 0.950 . S
H4826 C4847 0.950 . S
H4827 C4850 0.950 . S
H4828 C4851 0.950 . S
H4829 C4853 0.950 . S
H4830 C4854 0.950 . S
H4831 C4855 0.951 . S
H4832 C4857 0.951 . S
H4833 C4859 0.950 . S
H4834 C4860 0.950 . S
H4835 C4862 0.950 . S
H4836 C4865 0.950 . S
H4837 C4866 0.950 . S
H4838 C4868 0.950 . S
H4839 C4869 0.950 . S
C4840 H4822 0.951 . S
C4840 C4841 1.366 . S
C4840 C4842 1.388 . S
C4841 C4840 1.366 . S
C4841 C4845 1.385 . S
C4842 H4823 0.951 . S
C4842 C4840 1.388 . S
C4842 C4843 1.366 . S
C4843 C4842 1.366 . S
C4843 C4844 1.414 . S
C4843 C4846 1.499 . S
C4844 H4824 0.950 . S
C4844 C4843 1.414 . S
C4844 C4845 1.374 . S
C4845 H4825 0.950 . S
C4845 C4841 1.385 . S
C4845 C4844 1.374 . S
C4846 C4843 1.499 . S
C4846 C4847 1.373 . S
C4846 C4848 1.389 . S
C4847 H4826 0.950 . S
C4847 C4846 1.373 . S
C4847 C4863 1.377 1_565 S
C4848 C4846 1.389 . S
C4848 C4849 1.524 . S
C4848 C4862 1.377 1_565 S
C4849 C4848 1.524 . S
C4849 C4850 1.397 . S
C4849 C4854 1.363 . S
C4850 H4827 0.950 . S
C4850 C4849 1.397 . S
C4850 C4851 1.334 . S
C4851 H4828 0.950 . S
C4851 C4850 1.334 . S
C4851 C4852 1.287 . S
C4852 C4851 1.287 . S
C4852 C4853 1.524 . S
C4852 H4871 0.913 . S
C4853 H4829 0.950 . S
C4853 C4852 1.524 . S
C4853 C4854 1.415 . S
C4854 H4830 0.950 . S
C4854 C4849 1.363 . S
C4854 C4853 1.415 . S
C4855 H4831 0.951 . S
C4855 C4856 1.366 . S
C4855 C4857 1.388 . S
C4856 C4855 1.366 . S
C4856 C4860 1.385 . S
C4857 H4832 0.951 . S
C4857 C4855 1.388 . S
C4857 C4858 1.366 . S
C4858 C4857 1.366 . S
C4858 C4859 1.414 . S
C4858 C4861 1.499 . S
C4859 H4833 0.950 . S
C4859 C4858 1.414 . S
C4859 C4860 1.374 . S
C4860 H4834 0.950 . S
C4860 C4856 1.385 . S
C4860 C4859 1.374 . S
C4861 C4858 1.499 . S
C4861 C4862 1.373 . S
C4861 C4863 1.389 . S
C4862 H4835 0.950 . S
C4862 C4848 1.377 1_545 S
C4862 C4861 1.373 . S
C4863 C4847 1.377 1_545 S
C4863 C4861 1.389 . S
C4863 C4864 1.524 . S
C4864 C4863 1.524 . S
C4864 C4865 1.397 . S
C4864 C4869 1.363 . S
C4865 H4836 0.950 . S
C4865 C4864 1.397 . S
C4865 C4866 1.334 . S
C4866 H4837 0.950 . S
C4866 C4865 1.334 . S
C4866 C4867 1.287 . S
C4867 C4866 1.287 . S
C4867 C4868 1.524 . S
C4867 H4870 0.999 . S
C4868 H4838 0.950 . S
C4868 C4867 1.524 . S
C4868 C4869 1.415 . S
C4869 H4839 0.950 . S
C4869 C4864 1.363 . S
C4869 C4868 1.415 . S
H4870 C4867 0.999 . S
H4871 C4852 0.913 . S
H4872 C4890 0.951 . S
H4873 C4892 0.951 . S
H4874 C4894 0.950 . S
H4875 C4895 0.950 . S
H4876 C4897 0.950 . S
H4877 C4900 0.950 . S
H4878 C4901 0.950 . S
H4879 C4903 0.950 . S
H4880 C4904 0.950 . S
H4881 C4905 0.951 . S
H4882 C4907 0.951 . S
H4883 C4909 0.950 . S
H4884 C4910 0.950 . S
H4885 C4912 0.950 . S
H4886 C4915 0.950 . S
H4887 C4916 0.950 . S
H4888 C4918 0.950 . S
H4889 C4919 0.950 . S
C4890 H4872 0.951 . S
C4890 C4891 1.366 . S
C4890 C4892 1.388 . S
C4891 C4890 1.366 . S
C4891 C4895 1.385 . S
C4892 H4873 0.951 . S
C4892 C4890 1.388 . S
C4892 C4893 1.366 . S
C4893 C4892 1.366 . S
C4893 C4894 1.414 . S
C4893 C4896 1.499 . S
C4894 H4874 0.950 . S
C4894 C4893 1.414 . S
C4894 C4895 1.374 . S
C4895 H4875 0.950 . S
C4895 C4891 1.385 . S
C4895 C4894 1.374 . S
C4896 C4893 1.499 . S
C4896 C4897 1.373 . S
C4896 C4898 1.389 . S
C4897 H4876 0.950 . S
C4897 C4896 1.373 . S
C4897 C4913 1.377 1_655 S
C4898 C4896 1.389 . S
C4898 C4899 1.524 . S
C4898 C4912 1.377 1_655 S
C4899 C4898 1.524 . S
C4899 C4900 1.397 . S
C4899 C4904 1.363 . S
C4900 H4877 0.950 . S
C4900 C4899 1.397 . S
C4900 C4901 1.334 . S
C4901 H4878 0.950 . S
C4901 C4900 1.334 . S
C4901 C4902 1.287 . S
C4902 C4901 1.287 . S
C4902 C4903 1.524 . S
C4902 H4921 0.913 . S
C4903 H4879 0.950 . S
C4903 C4902 1.524 . S
C4903 C4904 1.415 . S
C4904 H4880 0.950 . S
C4904 C4899 1.363 . S
C4904 C4903 1.415 . S
C4905 H4881 0.951 . S
C4905 C4906 1.366 . S
C4905 C4907 1.388 . S
C4906 C4905 1.366 . S
C4906 C4910 1.385 . S
C4907 H4882 0.951 . S
C4907 C4905 1.388 . S
C4907 C4908 1.366 . S
C4908 C4907 1.366 . S
C4908 C4909 1.414 . S
C4908 C4911 1.499 . S
C4909 H4883 0.950 . S
C4909 C4908 1.414 . S
C4909 C4910 1.374 . S
C4910 H4884 0.950 . S
C4910 C4906 1.385 . S
C4910 C4909 1.374 . S
C4911 C4908 1.499 . S
C4911 C4912 1.373 . S
C4911 C4913 1.389 . S
C4912 H4885 0.950 . S
C4912 C4898 1.377 1_455 S
C4912 C4911 1.373 . S
C4913 C4897 1.377 1_455 S
C4913 C4911 1.389 . S
C4913 C4914 1.524 . S
C4914 C4913 1.524 . S
C4914 C4915 1.397 . S
C4914 C4919 1.363 . S
C4915 H4886 0.950 . S
C4915 C4914 1.397 . S
C4915 C4916 1.334 . S
C4916 H4887 0.950 . S
C4916 C4915 1.334 . S
C4916 C4917 1.287 . S
C4917 C4916 1.287 . S
C4917 C4918 1.524 . S
C4917 H4920 0.999 . S
C4918 H4888 0.950 . S
C4918 C4917 1.524 . S
C4918 C4919 1.415 . S
C4919 H4889 0.950 . S
C4919 C4914 1.363 . S
C4919 C4918 1.415 . S
H4920 C4917 0.999 . S
H4921 C4902 0.913 . S
H4922 C4940 0.951 . S
H4923 C4942 0.951 . S
H4924 C4944 0.950 . S
H4925 C4945 0.950 . S
H4926 C4947 0.950 . S
H4927 C4950 0.950 . S
H4928 C4951 0.950 . S
H4929 C4953 0.950 . S
H4930 C4954 0.950 . S
H4931 C4955 0.951 . S
H4932 C4957 0.951 . S
H4933 C4959 0.950 . S
H4934 C4960 0.950 . S
H4935 C4962 0.950 . S
H4936 C4965 0.950 . S
H4937 C4966 0.950 . S
H4938 C4968 0.950 . S
H4939 C4969 0.950 . S
C4940 H4922 0.951 . S
C4940 C4941 1.366 . S
C4940 C4942 1.388 . S
C4941 C4940 1.366 . S
C4941 C4945 1.385 . S
C4942 H4923 0.951 . S
C4942 C4940 1.388 . S
C4942 C4943 1.366 . S
C4943 C4942 1.366 . S
C4943 C4944 1.414 . S
C4943 C4946 1.499 . S
C4944 H4924 0.950 . S
C4944 C4943 1.414 . S
C4944 C4945 1.374 . S
C4945 H4925 0.950 . S
C4945 C4941 1.385 . S
C4945 C4944 1.374 . S
C4946 C4943 1.499 . S
C4946 C4947 1.373 . S
C4946 C4948 1.389 . S
C4947 H4926 0.950 . S
C4947 C4946 1.373 . S
C4947 C4963 1.377 1_545 S
C4948 C4946 1.389 . S
C4948 C4949 1.524 . S
C4948 C4962 1.377 1_545 S
C4949 C4948 1.524 . S
C4949 C4950 1.397 . S
C4949 C4954 1.363 . S
C4950 H4927 0.950 . S
C4950 C4949 1.397 . S
C4950 C4951 1.334 . S
C4951 H4928 0.950 . S
C4951 C4950 1.334 . S
C4951 C4952 1.287 . S
C4952 C4951 1.287 . S
C4952 C4953 1.524 . S
C4952 H4971 0.913 . S
C4953 H4929 0.950 . S
C4953 C4952 1.524 . S
C4953 C4954 1.415 . S
C4954 H4930 0.950 . S
C4954 C4949 1.363 . S
C4954 C4953 1.415 . S
C4955 H4931 0.951 . S
C4955 C4956 1.366 . S
C4955 C4957 1.388 . S
C4956 C4955 1.366 . S
C4956 C4960 1.385 . S
C4957 H4932 0.951 . S
C4957 C4955 1.388 . S
C4957 C4958 1.366 . S
C4958 C4957 1.366 . S
C4958 C4959 1.414 . S
C4958 C4961 1.499 . S
C4959 H4933 0.950 . S
C4959 C4958 1.414 . S
C4959 C4960 1.374 . S
C4960 H4934 0.950 . S
C4960 C4956 1.385 . S
C4960 C4959 1.374 . S
C4961 C4958 1.499 . S
C4961 C4962 1.373 . S
C4961 C4963 1.389 . S
C4962 H4935 0.950 . S
C4962 C4948 1.377 1_565 S
C4962 C4961 1.373 . S
C4963 C4947 1.377 1_565 S
C4963 C4961 1.389 . S
C4963 C4964 1.524 . S
C4964 C4963 1.524 . S
C4964 C4965 1.397 . S
C4964 C4969 1.363 . S
C4965 H4936 0.950 . S
C4965 C4964 1.397 . S
C4965 C4966 1.334 . S
C4966 H4937 0.950 . S
C4966 C4965 1.334 . S
C4966 C4967 1.287 . S
C4967 C4966 1.287 . S
C4967 C4968 1.524 . S
C4967 H4970 0.999 . S
C4968 H4938 0.950 . S
C4968 C4967 1.524 . S
C4968 C4969 1.415 . S
C4969 H4939 0.950 . S
C4969 C4964 1.363 . S
C4969 C4968 1.415 . S
H4970 C4967 0.999 . S
H4971 C4952 0.913 . S
H4972 C4990 0.951 . S
H4973 C4992 0.951 . S
H4974 C4994 0.950 . S
H4975 C4995 0.950 . S
H4976 C4997 0.950 . S
H4977 C5000 0.950 . S
H4978 C5001 0.950 . S
H4979 C5003 0.950 . S
H4980 C5004 0.950 . S
H4981 C5005 0.951 . S
H4982 C5007 0.951 . S
H4983 C5009 0.950 . S
H4984 C5010 0.950 . S
H4985 C5012 0.950 . S
H4986 C5015 0.950 . S
H4987 C5016 0.950 . S
H4988 C5018 0.950 . S
H4989 C5019 0.950 . S
C4990 H4972 0.951 . S
C4990 C4991 1.366 . S
C4990 C4992 1.388 . S
C4991 C4990 1.366 . S
C4991 C4995 1.385 . S
C4992 H4973 0.951 . S
C4992 C4990 1.388 . S
C4992 C4993 1.366 . S
C4993 C4992 1.366 . S
C4993 C4994 1.414 . S
C4993 C4996 1.499 . S
C4994 H4974 0.950 . S
C4994 C4993 1.414 . S
C4994 C4995 1.374 . S
C4995 H4975 0.950 . S
C4995 C4991 1.385 . S
C4995 C4994 1.374 . S
C4996 C4993 1.499 . S
C4996 C4997 1.373 . S
C4996 C4998 1.389 . S
C4997 H4976 0.950 . S
C4997 C4996 1.373 . S
C4997 C5013 1.377 1_455 S
C4998 C4996 1.389 . S
C4998 C4999 1.524 . S
C4998 C5012 1.377 1_455 S
C4999 C4998 1.524 . S
C4999 C5000 1.397 . S
C4999 C5004 1.363 . S
C5000 H4977 0.950 . S
C5000 C4999 1.397 . S
C5000 C5001 1.334 . S
C5001 H4978 0.950 . S
C5001 C5000 1.334 . S
C5001 C5002 1.287 . S
C5002 C5001 1.287 . S
C5002 C5003 1.524 . S
C5002 H5021 0.913 . S
C5003 H4979 0.950 . S
C5003 C5002 1.524 . S
C5003 C5004 1.415 . S
C5004 H4980 0.950 . S
C5004 C4999 1.363 . S
C5004 C5003 1.415 . S
C5005 H4981 0.951 . S
C5005 C5006 1.366 . S
C5005 C5007 1.388 . S
C5006 C5005 1.366 . S
C5006 C5010 1.385 . S
C5007 H4982 0.951 . S
C5007 C5005 1.388 . S
C5007 C5008 1.366 . S
C5008 C5007 1.366 . S
C5008 C5009 1.414 . S
C5008 C5011 1.499 . S
C5009 H4983 0.950 . S
C5009 C5008 1.414 . S
C5009 C5010 1.374 . S
C5010 H4984 0.950 . S
C5010 C5006 1.385 . S
C5010 C5009 1.374 . S
C5011 C5008 1.499 . S
C5011 C5012 1.373 . S
C5011 C5013 1.389 . S
C5012 H4985 0.950 . S
C5012 C4998 1.377 1_655 S
C5012 C5011 1.373 . S
C5013 C4997 1.377 1_655 S
C5013 C5011 1.389 . S
C5013 C5014 1.524 . S
C5014 C5013 1.524 . S
C5014 C5015 1.397 . S
C5014 C5019 1.363 . S
C5015 H4986 0.950 . S
C5015 C5014 1.397 . S
C5015 C5016 1.334 . S
C5016 H4987 0.950 . S
C5016 C5015 1.334 . S
C5016 C5017 1.287 . S
C5017 C5016 1.287 . S
C5017 C5018 1.524 . S
C5017 H5020 0.999 . S
C5018 H4988 0.950 . S
C5018 C5017 1.524 . S
C5018 C5019 1.415 . S
C5019 H4989 0.950 . S
C5019 C5014 1.363 . S
C5019 C5018 1.415 . S
H5020 C5017 0.999 . S
H5021 C5002 0.913 . S
H5022 C5040 0.951 . S
H5023 C5042 0.951 . S
H5024 C5044 0.950 . S
H5025 C5045 0.950 . S
H5026 C5047 0.950 . S
H5027 C5050 0.950 . S
H5028 C5051 0.950 . S
H5029 C5053 0.950 . S
H5030 C5054 0.950 . S
H5031 C5055 0.951 . S
H5032 C5057 0.951 . S
H5033 C5059 0.950 . S
H5034 C5060 0.950 . S
H5035 C5062 0.950 . S
H5036 C5065 0.950 . S
H5037 C5066 0.950 . S
H5038 C5068 0.950 . S
H5039 C5069 0.950 . S
C5040 H5022 0.951 . S
C5040 C5041 1.366 . S
C5040 C5042 1.388 . S
C5041 C5040 1.366 . S
C5041 C5045 1.385 . S
C5042 H5023 0.951 . S
C5042 C5040 1.388 . S
C5042 C5043 1.366 . S
C5043 C5042 1.366 . S
C5043 C5044 1.414 . S
C5043 C5046 1.499 . S
C5044 H5024 0.950 . S
C5044 C5043 1.414 . S
C5044 C5045 1.374 . S
C5045 H5025 0.950 . S
C5045 C5041 1.385 . S
C5045 C5044 1.374 . S
C5046 C5043 1.499 . S
C5046 C5047 1.373 . S
C5046 C5048 1.389 . S
C5047 H5026 0.950 . S
C5047 C5046 1.373 . S
C5047 C5063 1.377 1_545 S
C5048 C5046 1.389 . S
C5048 C5049 1.524 . S
C5048 C5062 1.377 1_545 S
C5049 C5048 1.524 . S
C5049 C5050 1.397 . S
C5049 C5054 1.363 . S
C5050 H5027 0.950 . S
C5050 C5049 1.397 . S
C5050 C5051 1.334 . S
C5051 H5028 0.950 . S
C5051 C5050 1.334 . S
C5051 C5052 1.287 . S
C5052 C5051 1.287 . S
C5052 C5053 1.524 . S
C5052 H5071 0.913 . S
C5053 H5029 0.950 . S
C5053 C5052 1.524 . S
C5053 C5054 1.415 . S
C5054 H5030 0.950 . S
C5054 C5049 1.363 . S
C5054 C5053 1.415 . S
C5055 H5031 0.951 . S
C5055 C5056 1.366 . S
C5055 C5057 1.388 . S
C5056 C5055 1.366 . S
C5056 C5060 1.385 . S
C5057 H5032 0.951 . S
C5057 C5055 1.388 . S
C5057 C5058 1.366 . S
C5058 C5057 1.366 . S
C5058 C5059 1.414 . S
C5058 C5061 1.499 . S
C5059 H5033 0.950 . S
C5059 C5058 1.414 . S
C5059 C5060 1.374 . S
C5060 H5034 0.950 . S
C5060 C5056 1.385 . S
C5060 C5059 1.374 . S
C5061 C5058 1.499 . S
C5061 C5062 1.373 . S
C5061 C5063 1.389 . S
C5062 H5035 0.950 . S
C5062 C5048 1.377 1_565 S
C5062 C5061 1.373 . S
C5063 C5047 1.377 1_565 S
C5063 C5061 1.389 . S
C5063 C5064 1.524 . S
C5064 C5063 1.524 . S
C5064 C5065 1.397 . S
C5064 C5069 1.363 . S
C5065 H5036 0.950 . S
C5065 C5064 1.397 . S
C5065 C5066 1.334 . S
C5066 H5037 0.950 . S
C5066 C5065 1.334 . S
C5066 C5067 1.287 . S
C5067 C5066 1.287 . S
C5067 C5068 1.524 . S
C5067 H5070 0.999 . S
C5068 H5038 0.950 . S
C5068 C5067 1.524 . S
C5068 C5069 1.415 . S
C5069 H5039 0.950 . S
C5069 C5064 1.363 . S
C5069 C5068 1.415 . S
H5070 C5067 0.999 . S
H5071 C5052 0.913 . S
H5072 C5090 0.951 . S
H5073 C5092 0.951 . S
H5074 C5094 0.950 . S
H5075 C5095 0.950 . S
H5076 C5097 0.950 . S
H5077 C5100 0.950 . S
H5078 C5101 0.950 . S
H5079 C5103 0.950 . S
H5080 C5104 0.950 . S
H5081 C5105 0.951 . S
H5082 C5107 0.951 . S
H5083 C5109 0.950 . S
H5084 C5110 0.950 . S
H5085 C5112 0.950 . S
H5086 C5115 0.950 . S
H5087 C5116 0.950 . S
H5088 C5118 0.950 . S
H5089 C5119 0.973 . S
C5090 H5072 0.951 . S
C5090 C5091 1.366 . S
C5090 C5092 1.388 . S
C5091 C5090 1.366 . S
C5091 C5095 1.385 . S
C5092 H5073 0.951 . S
C5092 C5090 1.388 . S
C5092 C5093 1.366 . S
C5093 C5092 1.366 . S
C5093 C5094 1.414 . S
C5093 C5096 1.499 . S
C5094 H5074 0.950 . S
C5094 C5093 1.414 . S
C5094 C5095 1.374 . S
C5095 H5075 0.950 . S
C5095 C5091 1.385 . S
C5095 C5094 1.374 . S
C5096 C5093 1.499 . S
C5096 C5097 1.373 . S
C5096 C5098 1.389 . S
C5097 H5076 0.950 . S
C5097 C5096 1.373 . S
C5097 C5113 1.377 1_545 S
C5098 C5096 1.389 . S
C5098 C5099 1.524 . S
C5098 C5112 1.377 1_545 S
C5099 C5098 1.524 . S
C5099 C5100 1.397 . S
C5099 C5104 1.363 . S
C5100 H5077 0.950 . S
C5100 C5099 1.397 . S
C5100 C5101 1.334 . S
C5101 H5078 0.950 . S
C5101 C5100 1.334 . S
C5101 C5102 1.287 . S
C5102 C5101 1.287 . S
C5102 C5103 1.524 . S
C5102 H5121 0.913 . S
C5103 H5079 0.950 . S
C5103 C5102 1.524 . S
C5103 C5104 1.415 . S
C5104 H5080 0.950 . S
C5104 C5099 1.363 . S
C5104 C5103 1.415 . S
C5105 H5081 0.951 . S
C5105 C5106 1.366 . S
C5105 C5107 1.388 . S
C5106 C5105 1.366 . S
C5106 C5110 1.385 . S
C5107 H5082 0.951 . S
C5107 C5105 1.388 . S
C5107 C5108 1.366 . S
C5108 C5107 1.366 . S
C5108 C5109 1.414 . S
C5108 C5111 1.499 . S
C5109 H5083 0.950 . S
C5109 C5108 1.414 . S
C5109 C5110 1.374 . S
C5110 H5084 0.950 . S
C5110 C5106 1.385 . S
C5110 C5109 1.374 . S
C5111 C5108 1.499 . S
C5111 C5112 1.373 . S
C5111 C5113 1.389 . S
C5112 H5085 0.950 . S
C5112 C5098 1.377 1_565 S
C5112 C5111 1.373 . S
C5113 C5097 1.377 1_565 S
C5113 C5111 1.389 . S
C5113 C5114 1.524 . S
C5114 C5113 1.524 . S
C5114 C5115 1.397 . S
C5114 C5119 1.363 . S
C5115 H5086 0.950 . S
C5115 C5114 1.397 . S
C5115 C5116 1.334 . S
C5116 H5087 0.950 . S
C5116 C5115 1.334 . S
C5116 C5117 1.287 . S
C5117 C5116 1.287 . S
C5117 C5118 1.524 . S
C5117 H5120 0.999 . S
C5118 H5088 0.950 . S
C5118 C5117 1.524 . S
C5118 C5119 1.415 . S
C5119 H5089 0.973 . S
C5119 C5114 1.363 . S
C5119 C5118 1.415 . S
H5120 C5117 0.999 . S
H5121 C5102 0.913 . S
H5122 C5140 0.951 . S
H5123 C5142 0.951 . S
H5124 C5144 0.950 . S
H5125 C5145 0.950 . S
H5126 C5147 0.950 . S
H5127 C5150 0.950 . S
H5128 C5151 0.950 . S
H5129 C5153 0.950 . S
H5130 C5154 0.950 . S
H5131 C5155 0.951 . S
H5132 C5157 0.951 . S
H5133 C5159 0.950 . S
H5134 C5160 0.950 . S
H5135 C5162 0.950 . S
H5136 C5165 0.950 . S
H5137 C5166 0.950 . S
H5138 C5168 0.950 . S
H5139 C5169 0.950 . S
C5140 H5122 0.951 . S
C5140 C5141 1.366 . S
C5140 C5142 1.388 . S
C5141 C5140 1.366 . S
C5141 C5145 1.385 . S
C5142 H5123 0.951 . S
C5142 C5140 1.388 . S
C5142 C5143 1.366 . S
C5143 C5142 1.366 . S
C5143 C5144 1.414 . S
C5143 C5146 1.499 . S
C5144 H5124 0.950 . S
C5144 C5143 1.414 . S
C5144 C5145 1.374 . S
C5145 H5125 0.950 . S
C5145 C5141 1.385 . S
C5145 C5144 1.374 . S
C5146 C5143 1.499 . S
C5146 C5147 1.373 . S
C5146 C5148 1.389 . S
C5147 H5126 0.950 . S
C5147 C5146 1.373 . S
C5147 C5163 1.377 1_545 S
C5148 C5146 1.389 . S
C5148 C5149 1.524 . S
C5148 C5162 1.377 1_545 S
C5149 C5148 1.524 . S
C5149 C5150 1.397 . S
C5149 C5154 1.363 . S
C5150 H5127 0.950 . S
C5150 C5149 1.397 . S
C5150 C5151 1.334 . S
C5151 H5128 0.950 . S
C5151 C5150 1.334 . S
C5151 C5152 1.287 . S
C5152 C5151 1.287 . S
C5152 C5153 1.524 . S
C5152 H5171 0.913 . S
C5153 H5129 0.950 . S
C5153 C5152 1.524 . S
C5153 C5154 1.415 . S
C5154 H5130 0.950 . S
C5154 C5149 1.363 . S
C5154 C5153 1.415 . S
C5155 H5131 0.951 . S
C5155 C5156 1.366 . S
C5155 C5157 1.388 . S
C5156 C5155 1.366 . S
C5156 C5160 1.385 . S
C5157 H5132 0.951 . S
C5157 C5155 1.388 . S
C5157 C5158 1.366 . S
C5158 C5157 1.366 . S
C5158 C5159 1.414 . S
C5158 C5161 1.499 . S
C5159 H5133 0.950 . S
C5159 C5158 1.414 . S
C5159 C5160 1.374 . S
C5160 H5134 0.950 . S
C5160 C5156 1.385 . S
C5160 C5159 1.374 . S
C5161 C5158 1.499 . S
C5161 C5162 1.373 . S
C5161 C5163 1.389 . S
C5162 H5135 0.950 . S
C5162 C5148 1.377 1_565 S
C5162 C5161 1.373 . S
C5163 C5147 1.377 1_565 S
C5163 C5161 1.389 . S
C5163 C5164 1.524 . S
C5164 C5163 1.524 . S
C5164 C5165 1.397 . S
C5164 C5169 1.363 . S
C5165 H5136 0.950 . S
C5165 C5164 1.397 . S
C5165 C5166 1.334 . S
C5166 H5137 0.950 . S
C5166 C5165 1.334 . S
C5166 C5167 1.287 . S
C5167 C5166 1.287 . S
C5167 C5168 1.524 . S
C5167 H5170 0.999 . S
C5168 H5138 0.950 . S
C5168 C5167 1.524 . S
C5168 C5169 1.415 . S
C5169 H5139 0.950 . S
C5169 C5164 1.363 . S
C5169 C5168 1.415 . S
H5170 C5167 0.999 . S
H5171 C5152 0.913 . S
H5172 C5190 0.951 . S
H5173 C5192 0.951 . S
H5174 C5194 0.950 . S
H5175 C5195 0.950 . S
H5176 C5197 0.950 . S
H5177 C5200 0.950 . S
H5178 C5201 0.950 . S
H5179 C5203 0.950 . S
H5180 C5204 0.950 . S
H5181 C5205 0.951 . S
H5182 C5207 0.951 . S
H5183 C5209 0.950 . S
H5184 C5210 0.950 . S
H5185 C5212 0.950 . S
H5186 C5215 0.950 . S
H5187 C5216 0.950 . S
H5188 C5218 0.950 . S
H5189 C5219 0.950 . S
C5190 H5172 0.951 . S
C5190 C5191 1.366 . S
C5190 C5192 1.388 . S
C5191 C5190 1.366 . S
C5191 C5195 1.385 . S
C5192 H5173 0.951 . S
C5192 C5190 1.388 . S
C5192 C5193 1.366 . S
C5193 C5192 1.366 . S
C5193 C5194 1.414 . S
C5193 C5196 1.499 . S
C5194 H5174 0.950 . S
C5194 C5193 1.414 . S
C5194 C5195 1.374 . S
C5195 H5175 0.950 . S
C5195 C5191 1.385 . S
C5195 C5194 1.374 . S
C5196 C5193 1.499 . S
C5196 C5197 1.373 . S
C5196 C5198 1.389 . S
C5197 H5176 0.950 . S
C5197 C5196 1.373 . S
C5197 C5213 1.377 1_655 S
C5198 C5196 1.389 . S
C5198 C5199 1.524 . S
C5198 C5212 1.377 1_655 S
C5199 C5198 1.524 . S
C5199 C5200 1.397 . S
C5199 C5204 1.363 . S
C5200 H5177 0.950 . S
C5200 C5199 1.397 . S
C5200 C5201 1.334 . S
C5201 H5178 0.950 . S
C5201 C5200 1.334 . S
C5201 C5202 1.287 . S
C5202 C5201 1.287 . S
C5202 C5203 1.524 . S
C5202 H5221 0.913 . S
C5203 H5179 0.950 . S
C5203 C5202 1.524 . S
C5203 C5204 1.415 . S
C5204 H5180 0.950 . S
C5204 C5199 1.363 . S
C5204 C5203 1.415 . S
C5205 H5181 0.951 . S
C5205 C5206 1.366 . S
C5205 C5207 1.388 . S
C5206 C5205 1.366 . S
C5206 C5210 1.385 . S
C5207 H5182 0.951 . S
C5207 C5205 1.388 . S
C5207 C5208 1.366 . S
C5208 C5207 1.366 . S
C5208 C5209 1.414 . S
C5208 C5211 1.499 . S
C5209 H5183 0.950 . S
C5209 C5208 1.414 . S
C5209 C5210 1.374 . S
C5210 H5184 0.950 . S
C5210 C5206 1.385 . S
C5210 C5209 1.374 . S
C5211 C5208 1.499 . S
C5211 C5212 1.373 . S
C5211 C5213 1.389 . S
C5212 H5185 0.950 . S
C5212 C5198 1.377 1_455 S
C5212 C5211 1.373 . S
C5213 C5197 1.377 1_455 S
C5213 C5211 1.389 . S
C5213 C5214 1.524 . S
C5214 C5213 1.524 . S
C5214 C5215 1.397 . S
C5214 C5219 1.363 . S
C5215 H5186 0.950 . S
C5215 C5214 1.397 . S
C5215 C5216 1.334 . S
C5216 H5187 0.950 . S
C5216 C5215 1.334 . S
C5216 C5217 1.287 . S
C5217 C5216 1.287 . S
C5217 C5218 1.524 . S
C5217 H5220 0.999 . S
C5218 H5188 0.950 . S
C5218 C5217 1.524 . S
C5218 C5219 1.415 . S
C5219 H5189 0.950 . S
C5219 C5214 1.363 . S
C5219 C5218 1.415 . S
H5220 C5217 0.999 . S
H5221 C5202 0.913 . S
H5222 C5240 0.951 . S
H5223 C5242 0.951 . S
H5224 C5244 0.950 . S
H5225 C5245 0.950 . S
H5226 C5247 0.950 . S
H5227 C5250 0.950 . S
H5228 C5251 0.950 . S
H5229 C5253 0.950 . S
H5230 C5254 0.950 . S
H5231 C5255 0.951 . S
H5232 C5257 0.951 . S
H5233 C5259 0.950 . S
H5234 C5260 0.950 . S
H5235 C5262 0.950 . S
H5236 C5265 0.950 . S
H5237 C5266 0.950 . S
H5238 C5268 0.950 . S
H5239 C5269 0.950 . S
C5240 H5222 0.951 . S
C5240 C5241 1.366 . S
C5240 C5242 1.388 . S
C5241 C5240 1.366 . S
C5241 C5245 1.385 . S
C5242 H5223 0.951 . S
C5242 C5240 1.388 . S
C5242 C5243 1.366 . S
C5243 C5242 1.366 . S
C5243 C5244 1.414 . S
C5243 C5246 1.499 . S
C5244 H5224 0.950 . S
C5244 C5243 1.414 . S
C5244 C5245 1.374 . S
C5245 H5225 0.950 . S
C5245 C5241 1.385 . S
C5245 C5244 1.374 . S
C5246 C5243 1.499 . S
C5246 C5247 1.373 . S
C5246 C5248 1.389 . S
C5247 H5226 0.950 . S
C5247 C5246 1.373 . S
C5247 C5263 1.377 1_545 S
C5248 C5246 1.389 . S
C5248 C5249 1.524 . S
C5248 C5262 1.377 1_545 S
C5249 C5248 1.524 . S
C5249 C5250 1.397 . S
C5249 C5254 1.363 . S
C5250 H5227 0.950 . S
C5250 C5249 1.397 . S
C5250 C5251 1.334 . S
C5251 H5228 0.950 . S
C5251 C5250 1.334 . S
C5251 C5252 1.287 . S
C5252 C5251 1.287 . S
C5252 C5253 1.524 . S
C5252 H5271 0.913 . S
C5253 H5229 0.950 . S
C5253 C5252 1.524 . S
C5253 C5254 1.415 . S
C5254 H5230 0.950 . S
C5254 C5249 1.363 . S
C5254 C5253 1.415 . S
C5255 H5231 0.951 . S
C5255 C5256 1.366 . S
C5255 C5257 1.388 . S
C5256 C5255 1.366 . S
C5256 C5260 1.385 . S
C5257 H5232 0.951 . S
C5257 C5255 1.388 . S
C5257 C5258 1.366 . S
C5258 C5257 1.366 . S
C5258 C5259 1.414 . S
C5258 C5261 1.499 . S
C5259 H5233 0.950 . S
C5259 C5258 1.414 . S
C5259 C5260 1.374 . S
C5260 H5234 0.950 . S
C5260 C5256 1.385 . S
C5260 C5259 1.374 . S
C5261 C5258 1.499 . S
C5261 C5262 1.373 . S
C5261 C5263 1.389 . S
C5262 H5235 0.950 . S
C5262 C5248 1.377 1_565 S
C5262 C5261 1.373 . S
C5263 C5247 1.377 1_565 S
C5263 C5261 1.389 . S
C5263 C5264 1.524 . S
C5264 C5263 1.524 . S
C5264 C5265 1.397 . S
C5264 C5269 1.363 . S
C5265 H5236 0.950 . S
C5265 C5264 1.397 . S
C5265 C5266 1.334 . S
C5266 H5237 0.950 . S
C5266 C5265 1.334 . S
C5266 C5267 1.287 . S
C5267 C5266 1.287 . S
C5267 C5268 1.524 . S
C5267 H5270 0.999 . S
C5268 H5238 0.950 . S
C5268 C5267 1.524 . S
C5268 C5269 1.415 . S
C5269 H5239 0.950 . S
C5269 C5264 1.363 . S
C5269 C5268 1.415 . S
H5270 C5267 0.999 . S
H5271 C5252 0.913 . S
H5272 C5290 0.951 . S
H5273 C5292 0.951 . S
H5274 C5294 0.950 . S
H5275 C5295 0.950 . S
H5276 C5297 0.950 . S
H5277 C5300 0.950 . S
H5278 C5301 0.950 . S
H5279 C5303 0.950 . S
H5280 C5304 0.950 . S
H5281 C5305 0.951 . S
H5282 C5307 0.951 . S
H5283 C5309 0.950 . S
H5284 C5310 0.950 . S
H5285 C5312 0.950 . S
H5286 C5315 0.950 . S
H5287 C5316 0.950 . S
H5288 C5318 0.950 . S
H5289 C5319 0.950 . S
C5290 H5272 0.951 . S
C5290 C5291 1.366 . S
C5290 C5292 1.388 . S
C5291 C5290 1.366 . S
C5291 C5295 1.385 . S
C5292 H5273 0.951 . S
C5292 C5290 1.388 . S
C5292 C5293 1.366 . S
C5293 C5292 1.366 . S
C5293 C5294 1.414 . S
C5293 C5296 1.499 . S
C5294 H5274 0.950 . S
C5294 C5293 1.414 . S
C5294 C5295 1.374 . S
C5295 H5275 0.950 . S
C5295 C5291 1.385 . S
C5295 C5294 1.374 . S
C5296 C5293 1.499 . S
C5296 C5297 1.373 . S
C5296 C5298 1.389 . S
C5297 H5276 0.950 . S
C5297 C5296 1.373 . S
C5297 C5313 1.377 1_455 S
C5298 C5296 1.389 . S
C5298 C5299 1.524 . S
C5298 C5312 1.377 1_455 S
C5299 C5298 1.524 . S
C5299 C5300 1.397 . S
C5299 C5304 1.363 . S
C5300 H5277 0.950 . S
C5300 C5299 1.397 . S
C5300 C5301 1.334 . S
C5301 H5278 0.950 . S
C5301 C5300 1.334 . S
C5301 C5302 1.287 . S
C5302 C5301 1.287 . S
C5302 C5303 1.524 . S
C5302 H5321 0.913 . S
C5303 H5279 0.950 . S
C5303 C5302 1.524 . S
C5303 C5304 1.415 . S
C5304 H5280 0.950 . S
C5304 C5299 1.363 . S
C5304 C5303 1.415 . S
C5305 H5281 0.951 . S
C5305 C5306 1.366 . S
C5305 C5307 1.388 . S
C5306 C5305 1.366 . S
C5306 C5310 1.385 . S
C5307 H5282 0.951 . S
C5307 C5305 1.388 . S
C5307 C5308 1.366 . S
C5308 C5307 1.366 . S
C5308 C5309 1.414 . S
C5308 C5311 1.499 . S
C5309 H5283 0.950 . S
C5309 C5308 1.414 . S
C5309 C5310 1.374 . S
C5310 H5284 0.950 . S
C5310 C5306 1.385 . S
C5310 C5309 1.374 . S
C5311 C5308 1.499 . S
C5311 C5312 1.373 . S
C5311 C5313 1.389 . S
C5312 H5285 0.950 . S
C5312 C5298 1.377 1_655 S
C5312 C5311 1.373 . S
C5313 C5297 1.377 1_655 S
C5313 C5311 1.389 . S
C5313 C5314 1.524 . S
C5314 C5313 1.524 . S
C5314 C5315 1.397 . S
C5314 C5319 1.363 . S
C5315 H5286 0.950 . S
C5315 C5314 1.397 . S
C5315 C5316 1.334 . S
C5316 H5287 0.950 . S
C5316 C5315 1.334 . S
C5316 C5317 1.287 . S
C5317 C5316 1.287 . S
C5317 C5318 1.524 . S
C5317 H5320 0.999 . S
C5318 H5288 0.950 . S
C5318 C5317 1.524 . S
C5318 C5319 1.415 . S
C5319 H5289 0.950 . S
C5319 C5314 1.363 . S
C5319 C5318 1.415 . S
H5320 C5317 0.999 . S
H5321 C5302 0.913 . S
H5322 C5340 0.951 . S
H5323 C5342 0.951 . S
H5324 C5344 0.950 . S
H5325 C5345 0.950 . S
H5326 C5347 0.950 . S
H5327 C5350 0.950 . S
H5328 C5351 0.950 . S
H5329 C5353 0.950 . S
H5330 C5354 0.950 . S
H5331 C5355 0.951 . S
H5332 C5357 0.951 . S
H5333 C5359 0.950 . S
H5334 C5360 0.950 . S
H5335 C5362 0.950 . S
H5336 C5365 0.950 . S
H5337 C5366 0.950 . S
H5338 C5368 0.950 . S
H5339 C5369 0.950 . S
C5340 H5322 0.951 . S
C5340 C5341 1.366 . S
C5340 C5342 1.388 . S
C5341 C5340 1.366 . S
C5341 C5345 1.385 . S
C5342 H5323 0.951 . S
C5342 C5340 1.388 . S
C5342 C5343 1.366 . S
C5343 C5342 1.366 . S
C5343 C5344 1.414 . S
C5343 C5346 1.499 . S
C5344 H5324 0.950 . S
C5344 C5343 1.414 . S
C5344 C5345 1.374 . S
C5345 H5325 0.950 . S
C5345 C5341 1.385 . S
C5345 C5344 1.374 . S
C5346 C5343 1.499 . S
C5346 C5347 1.373 . S
C5346 C5348 1.389 . S
C5347 H5326 0.950 . S
C5347 C5346 1.373 . S
C5347 C5363 1.377 1_545 S
C5348 C5346 1.389 . S
C5348 C5349 1.524 . S
C5348 C5362 1.377 1_545 S
C5349 C5348 1.524 . S
C5349 C5350 1.397 . S
C5349 C5354 1.363 . S
C5350 H5327 0.950 . S
C5350 C5349 1.397 . S
C5350 C5351 1.334 . S
C5351 H5328 0.950 . S
C5351 C5350 1.334 . S
C5351 C5352 1.287 . S
C5352 C5351 1.287 . S
C5352 C5353 1.524 . S
C5352 H5371 0.913 . S
C5353 H5329 0.950 . S
C5353 C5352 1.524 . S
C5353 C5354 1.415 . S
C5354 H5330 0.950 . S
C5354 C5349 1.363 . S
C5354 C5353 1.415 . S
C5355 H5331 0.951 . S
C5355 C5356 1.366 . S
C5355 C5357 1.388 . S
C5356 C5355 1.366 . S
C5356 C5360 1.385 . S
C5357 H5332 0.951 . S
C5357 C5355 1.388 . S
C5357 C5358 1.366 . S
C5358 C5357 1.366 . S
C5358 C5359 1.414 . S
C5358 C5361 1.499 . S
C5359 H5333 0.950 . S
C5359 C5358 1.414 . S
C5359 C5360 1.374 . S
C5360 H5334 0.950 . S
C5360 C5356 1.385 . S
C5360 C5359 1.374 . S
C5361 C5358 1.499 . S
C5361 C5362 1.373 . S
C5361 C5363 1.389 . S
C5362 H5335 0.950 . S
C5362 C5348 1.377 1_565 S
C5362 C5361 1.373 . S
C5363 C5347 1.377 1_565 S
C5363 C5361 1.389 . S
C5363 C5364 1.524 . S
C5364 C5363 1.524 . S
C5364 C5365 1.397 . S
C5364 C5369 1.363 . S
C5365 H5336 0.950 . S
C5365 C5364 1.397 . S
C5365 C5366 1.334 . S
C5366 H5337 0.950 . S
C5366 C5365 1.334 . S
C5366 C5367 1.287 . S
C5367 C5366 1.287 . S
C5367 C5368 1.524 . S
C5367 H5370 0.999 . S
C5368 H5338 0.950 . S
C5368 C5367 1.524 . S
C5368 C5369 1.415 . S
C5369 H5339 0.950 . S
C5369 C5364 1.363 . S
C5369 C5368 1.415 . S
H5370 C5367 0.999 . S
H5371 C5352 0.913 . S
H5372 C5390 0.951 . S
H5373 C5392 0.951 . S
H5374 C5394 0.950 . S
H5375 C5395 0.950 . S
H5376 C5397 0.950 . S
H5377 C5400 0.950 . S
H5378 C5401 0.950 . S
H5379 C5403 0.950 . S
H5380 C5404 0.950 . S
H5381 C5405 0.951 . S
H5382 C5407 0.951 . S
H5383 C5409 0.950 . S
H5384 C5410 0.950 . S
H5385 C5412 0.950 . S
H5386 C5415 0.950 . S
H5387 C5416 0.950 . S
H5388 C5418 0.950 . S
H5389 C5419 0.950 . S
C5390 H5372 0.951 . S
C5390 C5391 1.366 . S
C5390 C5392 1.388 . S
C5391 C5390 1.366 . S
C5391 C5395 1.385 . S
C5392 H5373 0.951 . S
C5392 C5390 1.388 . S
C5392 C5393 1.366 . S
C5393 C5392 1.366 . S
C5393 C5394 1.414 . S
C5393 C5396 1.499 . S
C5394 H5374 0.950 . S
C5394 C5393 1.414 . S
C5394 C5395 1.374 . S
C5395 H5375 0.950 . S
C5395 C5391 1.385 . S
C5395 C5394 1.374 . S
C5396 C5393 1.499 . S
C5396 C5397 1.373 . S
C5396 C5398 1.389 . S
C5397 H5376 0.950 . S
C5397 C5396 1.373 . S
C5397 C5413 1.377 1_655 S
C5398 C5396 1.389 . S
C5398 C5399 1.524 . S
C5398 C5412 1.377 1_655 S
C5399 C5398 1.524 . S
C5399 C5400 1.397 . S
C5399 C5404 1.363 . S
C5400 H5377 0.950 . S
C5400 C5399 1.397 . S
C5400 C5401 1.334 . S
C5401 H5378 0.950 . S
C5401 C5400 1.334 . S
C5401 C5402 1.287 . S
C5402 C5401 1.287 . S
C5402 C5403 1.524 . S
C5402 H5421 0.913 . S
C5403 H5379 0.950 . S
C5403 C5402 1.524 . S
C5403 C5404 1.415 . S
C5404 H5380 0.950 . S
C5404 C5399 1.363 . S
C5404 C5403 1.415 . S
C5405 H5381 0.951 . S
C5405 C5406 1.366 . S
C5405 C5407 1.388 . S
C5406 C5405 1.366 . S
C5406 C5410 1.385 . S
C5407 H5382 0.951 . S
C5407 C5405 1.388 . S
C5407 C5408 1.366 . S
C5408 C5407 1.366 . S
C5408 C5409 1.414 . S
C5408 C5411 1.499 . S
C5409 H5383 0.950 . S
C5409 C5408 1.414 . S
C5409 C5410 1.374 . S
C5410 H5384 0.950 . S
C5410 C5406 1.385 . S
C5410 C5409 1.374 . S
C5411 C5408 1.499 . S
C5411 C5412 1.373 . S
C5411 C5413 1.389 . S
C5412 H5385 0.950 . S
C5412 C5398 1.377 1_455 S
C5412 C5411 1.373 . S
C5413 C5397 1.377 1_455 S
C5413 C5411 1.389 . S
C5413 C5414 1.524 . S
C5414 C5413 1.524 . S
C5414 C5415 1.397 . S
C5414 C5419 1.363 . S
C5415 H5386 0.950 . S
C5415 C5414 1.397 . S
C5415 C5416 1.334 . S
C5416 H5387 0.950 . S
C5416 C5415 1.334 . S
C5416 C5417 1.287 . S
C5417 C5416 1.287 . S
C5417 C5418 1.524 . S
C5417 H5420 0.999 . S
C5418 H5388 0.950 . S
C5418 C5417 1.524 . S
C5418 C5419 1.415 . S
C5419 H5389 0.950 . S
C5419 C5414 1.363 . S
C5419 C5418 1.415 . S
H5420 C5417 0.999 . S
H5421 C5402 0.913 . S
H5422 C5440 0.951 . S
H5423 C5442 0.951 . S
H5424 C5444 0.950 . S
H5425 C5445 0.950 . S
H5426 C5447 0.950 . S
H5427 C5450 0.950 . S
H5428 C5451 0.950 . S
H5429 C5453 0.950 . S
H5430 C5454 0.950 . S
H5431 C5455 0.951 . S
H5432 C5457 0.951 . S
H5433 C5459 0.950 . S
H5434 C5460 0.950 . S
H5435 C5462 0.950 . S
H5436 C5465 0.950 . S
H5437 C5466 0.950 . S
H5438 C5468 0.950 . S
H5439 C5469 0.950 . S
C5440 H5422 0.951 . S
C5440 C5441 1.366 . S
C5440 C5442 1.388 . S
C5441 C5440 1.366 . S
C5441 C5445 1.385 . S
C5442 H5423 0.951 . S
C5442 C5440 1.388 . S
C5442 C5443 1.366 . S
C5443 C5442 1.366 . S
C5443 C5444 1.414 . S
C5443 C5446 1.499 . S
C5444 H5424 0.950 . S
C5444 C5443 1.414 . S
C5444 C5445 1.374 . S
C5445 H5425 0.950 . S
C5445 C5441 1.385 . S
C5445 C5444 1.374 . S
C5446 C5443 1.499 . S
C5446 C5447 1.373 . S
C5446 C5448 1.389 . S
C5447 H5426 0.950 . S
C5447 C5446 1.373 . S
C5447 C5463 1.377 1_455 S
C5448 C5446 1.389 . S
C5448 C5449 1.524 . S
C5448 C5462 1.377 1_455 S
C5449 C5448 1.524 . S
C5449 C5450 1.397 . S
C5449 C5454 1.363 . S
C5450 H5427 0.950 . S
C5450 C5449 1.397 . S
C5450 C5451 1.334 . S
C5451 H5428 0.950 . S
C5451 C5450 1.334 . S
C5451 C5452 1.287 . S
C5452 C5451 1.287 . S
C5452 C5453 1.524 . S
C5452 H5471 0.913 . S
C5453 H5429 0.950 . S
C5453 C5452 1.524 . S
C5453 C5454 1.415 . S
C5454 H5430 0.950 . S
C5454 C5449 1.363 . S
C5454 C5453 1.415 . S
C5455 H5431 0.951 . S
C5455 C5456 1.366 . S
C5455 C5457 1.388 . S
C5456 C5455 1.366 . S
C5456 C5460 1.385 . S
C5457 H5432 0.951 . S
C5457 C5455 1.388 . S
C5457 C5458 1.366 . S
C5458 C5457 1.366 . S
C5458 C5459 1.414 . S
C5458 C5461 1.499 . S
C5459 H5433 0.950 . S
C5459 C5458 1.414 . S
C5459 C5460 1.374 . S
C5460 H5434 0.950 . S
C5460 C5456 1.385 . S
C5460 C5459 1.374 . S
C5461 C5458 1.499 . S
C5461 C5462 1.373 . S
C5461 C5463 1.389 . S
C5462 H5435 0.950 . S
C5462 C5448 1.377 1_655 S
C5462 C5461 1.373 . S
C5463 C5447 1.377 1_655 S
C5463 C5461 1.389 . S
C5463 C5464 1.524 . S
C5464 C5463 1.524 . S
C5464 C5465 1.397 . S
C5464 C5469 1.363 . S
C5465 H5436 0.950 . S
C5465 C5464 1.397 . S
C5465 C5466 1.334 . S
C5466 H5437 0.950 . S
C5466 C5465 1.334 . S
C5466 C5467 1.287 . S
C5467 C5466 1.287 . S
C5467 C5468 1.524 . S
C5467 H5470 0.999 . S
C5468 H5438 0.950 . S
C5468 C5467 1.524 . S
C5468 C5469 1.415 . S
C5469 H5439 0.950 . S
C5469 C5464 1.363 . S
C5469 C5468 1.415 . S
H5470 C5467 0.999 . S
H5471 C5452 0.913 . S
C691 C546 1.266 . S
C706 C11 1.273 . S
C741 C25 1.130 . S
C756 C504 1.125 . S
C791 C39 1.224 . S
C806 C529 1.224 . S
C841 C543 1.080 . S
C856 C53 1.079 . S
C891 C473 1.144 . S
C906 C67 1.143 . S
C941 C70 1.130 . S
C956 C487 1.135 . S
C991 C95 1.195 . S
C1006 C490 1.191 . S
C1041 C98 1.177 . S
C1056 C448 1.176 . S
C1091 C112 1.342 . S
C1106 C434 1.340 . S
C1141 C403 1.132 . S
C1156 C137 1.131 . S
C1191 C406 1.272 . S
C1206 C140 1.271 . S
C1241 C165 1.198 . S
C1256 C431 1.197 . S
C1291 C168 1.151 . S
C1306 C361 1.156 . S
C1341 C193 1.219 . S
C1356 C364 1.213 . S
C1391 C389 1.089 . S
C1406 C196 1.085 . S
C1441 C336 1.281 . S
C1456 C221 1.288 . S
C1491 C235 1.130 . S
C1506 C627 1.129 . S
C1541 C658 1.159 . S
C1556 C238 1.159 . S
C1591 C641 1.288 . S
C1606 C252 1.281 . S
C1641 C644 1.077 . S
C1656 C266 1.075 . S
C1691 C571 1.269 . S
C1706 C280 1.264 . S
C1741 C599 1.146 . S
C1756 C305 1.146 . S
C1791 C308 1.190 . S
C1806 C602 1.191 . S
C1841 C574 1.108 . S
C1856 C322 1.109 . S
C1891 C459 1.237 . S
C1906 C291 1.238 . S
C1941 C249 1.122 . S
C1956 C462 1.119 . S
C1991 C476 1.253 . S
C2006 C263 1.259 . S
C2041 C501 1.086 . S
C2056 C277 1.086 . S
C2091 C333 1.150 . S
C2106 C515 1.151 . S
C2141 C518 1.162 . S
C2156 C294 1.163 . S
C2191 C319 1.187 . S
C2206 C532 1.184 . S
C2241 C224 1.144 . S
C2256 C557 1.148 . S
C2291 C560 1.334 . S
C2306 C210 1.335 . S
C2341 C179 1.211 . S
C2356 C669 1.210 . S
C2391 C630 1.278 . S
C2406 C182 1.278 . S
C2441 C207 1.117 . S
C2456 C655 1.118 . S
C2491 C126 1.069 . S
C2506 C585 1.074 . S
C2541 C151 1.225 . S
C2556 C588 1.221 . S
C2591 C154 1.166 . S
C2606 C613 1.172 . S
C2641 C616 1.274 . S
C2656 C123 1.281 . S
C2691 C347 1.161 . S
C2706 C109 1.162 . S
C2741 C392 1.146 . S
C2756 C14 1.145 . S
C2791 C417 1.255 . S
C2806 C28 1.249 . S
C2841 C420 1.090 . S
C2856 C42 1.089 . S
C2891 C445 1.302 . S
C2906 C0 1.296 . S
C2941 C81 1.115 . S
C2956 C375 1.114 . S
C2991 C378 1.178 . S
C3006 C84 1.178 . S
C3041 C350 1.121 . S
C3056 C56 1.121 . S
C3091 C5 1.492 . S
C3106 C373 1.484 . S
C3141 C383 1.440 . S
C3156 C19 1.441 . S
C3191 C33 1.489 . S
C3206 C345 1.482 . S
C3241 C47 1.436 . S
C3256 C355 1.435 . S
C3291 C61 1.447 . S
C3306 C425 1.447 . S
C3341 C443 1.480 . S
C3356 C79 1.479 . S
C3391 C89 1.451 . S
C3406 C397 1.453 . S
C3441 C415 1.486 . S
C3456 C107 1.485 . S
C3491 C121 1.461 . S
C3506 C513 1.461 . S
C3541 C523 1.448 . S
C3556 C131 1.448 . S
C3591 C149 1.447 . S
C3606 C537 1.455 . S
C3641 C159 1.471 . S
C3656 C555 1.465 . S
C3691 C177 1.436 . S
C3706 C457 1.434 . S
C3741 C187 1.471 . S
C3756 C467 1.472 . S
C3791 C481 1.416 . S
C3806 C205 1.410 . S
C3841 C215 1.485 . S
C3856 C499 1.479 . S
C3891 C611 1.462 . S
C3906 C229 1.470 . S
C3941 C247 1.473 . S
C3956 C635 1.480 . S
C3991 C261 1.433 . S
C4006 C653 1.429 . S
C4041 C565 1.464 . S
C4056 C275 1.455 . S
C4091 C667 1.452 . S
C4106 C289 1.453 . S
C4141 C299 1.449 . S
C4156 C583 1.439 . S
C4191 C593 1.449 . S
C4206 C317 1.442 . S
C4241 C331 1.423 . S
C4256 C621 1.433 . S
C4291 C597 1.485 . S
C4306 C285 1.493 . S
C4341 C243 1.452 . S
C4356 C607 1.450 . S
C4391 C625 1.480 . S
C4406 C257 1.488 . S
C4441 C579 1.424 . S
C4456 C271 1.426 . S
C4491 C649 1.437 . S
C4506 C327 1.436 . S
C4541 C303 1.480 . S
C4556 C569 1.482 . S
C4591 C663 1.463 . S
C4606 C313 1.461 . S
C4641 C233 1.484 . S
C4656 C639 1.484 . S
C4691 C471 1.461 . S
C4706 C219 1.462 . S
C4741 C173 1.465 . S
C4756 C485 1.459 . S
C4791 C191 1.446 . S
C4806 C495 1.454 . S
C4841 C453 1.454 . S
C4856 C201 1.454 . S
C4891 C135 1.416 . S
C4906 C551 1.422 . S
C4941 C509 1.473 . S
C4956 C145 1.471 . S
C4991 C163 1.429 . S
C5006 C527 1.429 . S
C5041 C117 1.486 . S
C5056 C541 1.478 . S
C5091 C387 1.461 . S
C5106 C103 1.470 . S
C5141 C23 1.466 . S
C5156 C411 1.473 . S
C5191 C37 1.432 . S
C5206 C429 1.430 . S
C5241 C439 1.471 . S
C5256 C51 1.462 . S
C5291 C9 1.454 . S
C5306 C401 1.450 . S
C5341 C75 1.449 . S
C5356 C359 1.440 . S
C5391 C93 1.435 . S
C5406 C369 1.443 . S
C5441 C65 1.431 . S
C5456 C341 1.440 . S
