# Generated by pormake.
# Topology ure, (4)-cn, num edge types: 1
# Building blocks:
#     Node 0, Type 0, BuildingBlock: ICAMEG_clean_sbu_1, # of connection points: 4
#     Node 1, Type 0, BuildingBlock: ICAMEG_clean_sbu_1, # of connection points: 4
#     Node 2, Type 0, BuildingBlock: ICAMEG_clean_sbu_1, # of connection points: 4
#     Node 3, Type 0, BuildingBlock: ICAMEG_clean_sbu_1, # of connection points: 4
#     Node 4, Type 0, BuildingBlock: ICAMEG_clean_sbu_1, # of connection points: 4
#     Node 5, Type 0, BuildingBlock: ICAMEG_clean_sbu_1, # of connection points: 4
#     Node 6, Type 0, BuildingBlock: ICAMEG_clean_sbu_1, # of connection points: 4
#     Node 7, Type 0, BuildingBlock: ICAMEG_clean_sbu_1, # of connection points: 4
#     Node 8, Type 0, BuildingBlock: ICAMEG_clean_sbu_1, # of connection points: 4
#     Node 9, Type 0, BuildingBlock: ICAMEG_clean_sbu_1, # of connection points: 4
#     Node 10, Type 0, BuildingBlock: ICAMEG_clean_sbu_1, # of connection points: 4
#     Node 11, Type 0, BuildingBlock: ICAMEG_clean_sbu_1, # of connection points: 4
#     Node 12, Type 0, BuildingBlock: ICAMEG_clean_sbu_1, # of connection points: 4
#     Node 13, Type 0, BuildingBlock: ICAMEG_clean_sbu_1, # of connection points: 4
#     Node 14, Type 0, BuildingBlock: ICAMEG_clean_sbu_1, # of connection points: 4
#     Node 15, Type 0, BuildingBlock: ICAMEG_clean_sbu_1, # of connection points: 4
#     Edge 16, Type (0, 0), BuildingBlock: OJICUG_clean_linker_0, # of connection points: 2
#     Edge 17, Type (0, 0), BuildingBlock: OJICUG_clean_linker_0, # of connection points: 2
#     Edge 18, Type (0, 0), BuildingBlock: OJICUG_clean_linker_0, # of connection points: 2
#     Edge 19, Type (0, 0), BuildingBlock: OJICUG_clean_linker_0, # of connection points: 2
#     Edge 20, Type (0, 0), BuildingBlock: OJICUG_clean_linker_0, # of connection points: 2
#     Edge 21, Type (0, 0), BuildingBlock: OJICUG_clean_linker_0, # of connection points: 2
#     Edge 22, Type (0, 0), BuildingBlock: OJICUG_clean_linker_0, # of connection points: 2
#     Edge 23, Type (0, 0), BuildingBlock: OJICUG_clean_linker_0, # of connection points: 2
#     Edge 24, Type (0, 0), BuildingBlock: OJICUG_clean_linker_0, # of connection points: 2
#     Edge 25, Type (0, 0), BuildingBlock: OJICUG_clean_linker_0, # of connection points: 2
#     Edge 26, Type (0, 0), BuildingBlock: OJICUG_clean_linker_0, # of connection points: 2
#     Edge 27, Type (0, 0), BuildingBlock: OJICUG_clean_linker_0, # of connection points: 2
#     Edge 28, Type (0, 0), BuildingBlock: OJICUG_clean_linker_0, # of connection points: 2
#     Edge 29, Type (0, 0), BuildingBlock: OJICUG_clean_linker_0, # of connection points: 2
#     Edge 30, Type (0, 0), BuildingBlock: OJICUG_clean_linker_0, # of connection points: 2
#     Edge 31, Type (0, 0), BuildingBlock: OJICUG_clean_linker_0, # of connection points: 2
#     Edge 32, Type (0, 0), BuildingBlock: OJICUG_clean_linker_0, # of connection points: 2
#     Edge 33, Type (0, 0), BuildingBlock: OJICUG_clean_linker_0, # of connection points: 2
#     Edge 34, Type (0, 0), BuildingBlock: OJICUG_clean_linker_0, # of connection points: 2
#     Edge 35, Type (0, 0), BuildingBlock: OJICUG_clean_linker_0, # of connection points: 2
#     Edge 36, Type (0, 0), BuildingBlock: OJICUG_clean_linker_0, # of connection points: 2
#     Edge 37, Type (0, 0), BuildingBlock: OJICUG_clean_linker_0, # of connection points: 2
#     Edge 38, Type (0, 0), BuildingBlock: OJICUG_clean_linker_0, # of connection points: 2
#     Edge 39, Type (0, 0), BuildingBlock: OJICUG_clean_linker_0, # of connection points: 2
#     Edge 40, Type (0, 0), BuildingBlock: OJICUG_clean_linker_0, # of connection points: 2
#     Edge 41, Type (0, 0), BuildingBlock: OJICUG_clean_linker_0, # of connection points: 2
#     Edge 42, Type (0, 0), BuildingBlock: OJICUG_clean_linker_0, # of connection points: 2
#     Edge 43, Type (0, 0), BuildingBlock: OJICUG_clean_linker_0, # of connection points: 2
#     Edge 44, Type (0, 0), BuildingBlock: OJICUG_clean_linker_0, # of connection points: 2
#     Edge 45, Type (0, 0), BuildingBlock: OJICUG_clean_linker_0, # of connection points: 2
#     Edge 46, Type (0, 0), BuildingBlock: OJICUG_clean_linker_0, # of connection points: 2
#     Edge 47, Type (0, 0), BuildingBlock: OJICUG_clean_linker_0, # of connection points: 2
# Relax obj value: 0.294
# Max RMSD: 0.317
# Mean RMSD: 0.230
data_MOF--net-ure--node1-ICAMEG_clean_sbu_1--edge1-OJICUG_clean_linker_0
_symmetry_space_group_name_H-M    P1
_symmetry_Int_Tables_number       1
_symmetry_cell_setting            triclinic
loop_
_symmetry_equiv_pos_as_xyz
'x, y, z'
_cell_length_a     24.015839
_cell_length_b     25.827738
_cell_length_c     24.802054
_cell_angle_alpha  93.313367
_cell_angle_beta   93.364324
_cell_angle_gamma 98.180007
loop_
_atom_site_label
_atom_site_type_symbol
_atom_site_fract_x
_atom_site_fract_y
_atom_site_fract_z
_atom_type_partial_charge
Co0 Co 0.32232 0.30257 0.28437 0.0
Co1 Co 0.26764 0.18594 0.30381 0.0
O2 O 0.25681 0.2596 0.30009 0.0
C3 C 0.25943 0.39589 0.31289 0.0
O4 O 0.21119 0.36848 0.29401 0.0
C5 C 0.19616 0.18827 0.2082 0.0
O6 O 0.17317 0.22428 0.23494 0.0
O7 O 0.35089 0.1963 0.28205 0.0
O8 O 0.38034 0.27164 0.32845 0.0
H9 H 0.21955 0.01286 0.37932 0.0
H10 H 0.29719 0.40024 0.2228 0.0
O11 O 0.30336 0.3725 0.31909 0.0
H12 H 0.22987 0.24294 0.10573 0.0
H13 H 0.46587 0.33404 0.15252 0.0
H14 H 0.39939 0.40349 0.32168 0.0
H15 H 0.29335 0.24016 0.18607 0.0
H16 H 0.3891 0.28293 0.19702 0.0
O17 O 0.2386 0.17023 0.2284 0.0
H18 H 0.2441 0.10922 0.38714 0.0
H19 H 0.3067 0.10605 0.23103 0.0
H20 H 0.46228 0.46025 0.27151 0.0
H21 H 0.2321 0.40604 0.14189 0.0
H22 H 0.50154 0.42367 0.18745 0.0
H23 H 0.1929 0.3275 0.08752 0.0
O24 O 0.34303 0.28612 0.36955 0.0
H25 H 0.09821 0.24958 0.37264 0.0
H26 H 0.16766 0.10121 0.27806 0.0
H27 H 0.06578 0.10237 0.27877 0.0
H28 H 0.03112 0.18061 0.31978 0.0
H29 H 0.19921 0.24388 0.37696 0.0
H30 H 0.28815 0.00969 0.22345 0.0
H31 H 0.24142 0.96251 0.29681 0.0
O32 O 0.29441 0.20436 0.37745 0.0
C33 C 0.39177 0.22792 0.30708 0.0
C34 C 0.24084 0.03281 0.34757 0.0
C35 C 0.27876 0.03102 0.25985 0.0
N36 N 0.27488 0.11289 0.30903 0.0
C37 C 0.25473 0.08724 0.35189 0.0
C38 C 0.28963 0.08559 0.26457 0.0
C39 C 0.25272 0.00462 0.3011 0.0
C40 C 0.27752 0.36506 0.20014 0.0
N41 N 0.28672 0.31688 0.21554 0.0
C42 C 0.24258 0.36911 0.15393 0.0
C43 C 0.22143 0.32435 0.12181 0.0
C44 C 0.24063 0.27741 0.13255 0.0
C45 C 0.27554 0.27532 0.17877 0.0
C46 C 0.44797 0.35114 0.18701 0.0
C47 C 0.41008 0.38991 0.28243 0.0
C48 C 0.40568 0.32221 0.21304 0.0
N49 N 0.38851 0.34137 0.26089 0.0
C50 C 0.44817 0.42164 0.25467 0.0
C51 C 0.46825 0.4018 0.20723 0.0
C52 C 0.31874 0.2481 0.39961 0.0
C53 C 0.11297 0.21572 0.3538 0.0
C54 C 0.15284 0.1322 0.30188 0.0
C55 C 0.09488 0.13328 0.30085 0.0
C56 C 0.07528 0.17676 0.32457 0.0
N57 N 0.19007 0.17344 0.32585 0.0
C58 C 0.1704 0.21221 0.35594 0.0
Co59 Co 0.98136 0.06281 0.51219 0.0
Co60 Co 0.96881 0.92831 0.52162 0.0
O61 O 0.9969 -0.00648 0.49155 0.0
C62 C 0.97493 0.11489 0.40179 0.0
O63 O 0.95967 0.10427 0.35015 0.0
C64 C 0.09212 0.92369 0.49907 0.0
O65 O 0.10241 0.97442 0.49611 0.0
O66 O 0.98414 0.9629 0.60012 0.0
O67 O 0.98928 0.05 0.5914 0.0
H68 H 0.81864 0.79683 0.58782 0.0
H69 H 0.06176 0.06264 0.4257 0.0
O70 O 0.97044 0.07603 0.43241 0.0
H71 H 0.18394 0.09812 0.59274 0.0
H72 H 0.01164 0.24072 0.61687 0.0
H73 H 0.89289 0.12415 0.47885 0.0
H74 H 0.08276 0.0909 0.59718 0.0
H75 H 0.03353 0.15306 0.59401 0.0
O76 O 0.04757 0.9043 0.52126 0.0
H77 H 0.86721 0.88596 0.5804 0.0
H78 H 1.00555 0.82026 0.51804 0.0
H79 H 0.87079 0.21205 0.50028 0.0
H80 H 0.16177 0.07241 0.42033 0.0
H81 H 0.93335 0.27258 0.56763 0.0
H82 H 0.22512 0.08747 0.50381 0.0
O83 O 0.89703 0.03629 0.51052 0.0
H84 H 0.02913 0.88536 0.33664 0.0
H85 H 0.88073 0.84594 0.46292 0.0
H86 H 0.89166 0.78178 0.39136 0.0
H87 H 0.9645 0.80063 0.32488 0.0
H88 H 0.02427 0.94467 0.41596 0.0
H89 H 0.96207 0.73332 0.53586 0.0
H90 H 0.86619 0.72019 0.56921 0.0
O91 O 0.88893 0.9489 0.51781 0.0
C92 C 0.9902 0.01104 0.62079 0.0
C93 C 0.86063 0.80261 0.57521 0.0
C94 C 0.94112 0.76672 0.54586 0.0
N95 N 0.94032 0.86042 0.54917 0.0
C96 C 0.88845 0.85315 0.56981 0.0
C97 C 0.9666 0.81736 0.53758 0.0
C98 C 0.88735 0.75932 0.56415 0.0
C99 C 0.08707 0.0751 0.46253 0.0
N100 N 0.06359 0.08273 0.51111 0.0
C101 C 0.14505 0.07899 0.45908 0.0
C102 C 0.18022 0.08714 0.50598 0.0
C103 C 0.15705 0.093 0.55566 0.0
C104 C 0.09866 0.09008 0.55758 0.0
C105 C 0.98682 0.21574 0.58533 0.0
C106 C 0.92008 0.14969 0.50844 0.0
C107 C 0.99918 0.16566 0.57159 0.0
N108 N 0.96675 0.13347 0.53241 0.0
C109 C 0.90723 0.19984 0.52045 0.0
C110 C 0.94148 0.23325 0.55861 0.0
C111 C 0.86688 -0.0086 0.51433 0.0
C112 C 0.99695 0.87601 0.36475 0.0
C113 C 0.91454 0.85445 0.43662 0.0
C114 C 0.91924 0.8182 0.39427 0.0
C115 C 0.96065 0.82879 0.35797 0.0
N116 N 0.95536 0.8967 0.44777 0.0
C117 C 0.9936 0.90978 0.41007 0.0
Co118 Co 0.21467 0.65148 0.79362 0.0
Co119 Co 0.23986 0.78045 0.77823 0.0
O120 O 0.24604 0.70852 0.75629 0.0
C121 C 0.3175 0.60097 0.82586 0.0
O122 O 0.32515 0.63022 0.87114 0.0
C123 C 0.23246 0.82365 0.66602 0.0
O124 O 0.19151 0.85061 0.67658 0.0
O125 O 0.15297 0.76415 0.76861 0.0
O126 O 0.14203 0.68467 0.8036 0.0
H127 H 0.18923 0.93316 0.88678 0.0
H128 H 0.22448 0.5553 0.71291 0.0
O129 O 0.2848 0.6135 0.78645 0.0
H130 H 0.06644 0.63837 0.64397 0.0
H131 H 0.22149 0.47472 0.85273 0.0
H132 H 0.16244 0.64572 0.89521 0.0
H133 H 0.14722 0.68818 0.69929 0.0
H134 H 0.19181 0.52475 0.78201 0.0
O135 O 0.24837 0.79217 0.69956 0.0
H136 H 0.17657 0.84104 0.85288 0.0
H137 H 0.30325 0.87892 0.74342 0.0
H138 H 0.20612 0.60236 0.9666 0.0
H139 H 0.14121 0.50012 0.66378 0.0
H140 H 0.24954 0.52147 0.94041 0.0
H141 H 0.05743 0.54132 0.63668 0.0
O142 O 0.25066 0.68787 0.86319 0.0
H143 H 0.43654 0.75676 0.7317 0.0
H144 H 0.32424 0.83922 0.86333 0.0
H145 H 0.42836 0.85516 0.87453 0.0
H146 H 0.48477 0.81493 0.80864 0.0
H147 H 0.33339 0.74314 0.7198 0.0
H148 H 0.31428 0.97126 0.77498 0.0
H149 H 0.26196 -0.00227 0.85308 0.0
O150 O 0.23362 0.76941 0.85813 0.0
C151 C 0.12113 0.72483 0.7869 0.0
C152 C 0.21448 0.92136 0.85593 0.0
C153 C 0.28407 0.94305 0.79242 0.0
N154 N 0.23846 0.85424 0.79543 0.0
C155 C 0.207 0.86931 0.83571 0.0
C156 C 0.27613 0.89064 0.77335 0.0
C157 C 0.25419 0.95806 0.83537 0.0
C158 C 0.18673 0.57181 0.70275 0.0
N159 N 0.17993 0.62007 0.72361 0.0
C160 C 0.14117 0.54118 0.67345 0.0
C161 C 0.09466 0.56451 0.65689 0.0
C162 C 0.09854 0.61861 0.66274 0.0
C163 C 0.14329 0.64626 0.69548 0.0
C164 C 0.21169 0.51368 0.86196 0.0
C165 C 0.17695 0.60879 0.88539 0.0
C166 C 0.19573 0.54364 0.82132 0.0
N167 N 0.18436 0.59358 0.83319 0.0
C168 C 0.20135 0.58399 0.92631 0.0
C169 C 0.22276 0.53799 0.91295 0.0
C170 C 0.24546 0.73212 0.8859 0.0
C171 C 0.41222 0.77508 0.76071 0.0
C172 C 0.34848 0.82132 0.83401 0.0
C173 C 0.40731 0.83032 0.84101 0.0
C174 C 0.43923 0.80739 0.80396 0.0
N175 N 0.32209 0.79159 0.7899 0.0
C176 C 0.35344 0.76731 0.75453 0.0
Co177 Co 0.60747 0.93329 0.06859 0.0
Co178 Co 0.52967 0.98305 0.9702 0.0
O179 O 0.55994 0.9856 0.04644 0.0
C180 C 0.52908 0.91641 0.16358 0.0
O181 O 0.4861 0.90458 0.1277 0.0
C182 C 0.54357 0.09341 0.93805 0.0
O183 O 0.57547 0.07864 0.90047 0.0
O184 O 0.6105 -0.00972 0.94442 0.0
O185 O 0.63685 0.92838 -0.00569 0.0
H186 H 0.50699 0.91308 0.77605 0.0
H187 H 0.64498 -0.00315 0.10689 0.0
O188 O 0.57833 0.93334 0.14717 0.0
H189 H 0.79589 0.0532 0.05704 0.0
H190 H 0.62215 0.75801 0.1306 0.0
H191 H 0.71645 0.89578 0.02896 0.0
H192 H 0.73162 0.97414 0.03645 0.0
H193 H 0.59851 0.84637 0.14315 0.0
O194 O 0.52984 0.0622 0.97499 0.0
H195 H 0.5526 0.92661 0.86835 0.0
H196 H 0.43821 0.03046 0.9124 0.0
H197 H 0.73297 0.80809 0.01042 0.0
H198 H 0.67935 0.11499 0.15455 0.0
H199 H 0.68686 0.73773 0.06152 0.0
H200 H 0.77012 0.12432 0.11641 0.0
O201 O 0.54641 0.87635 0.04393 0.0
H202 H 0.38641 0.02324 0.10021 0.0
H203 H 0.41999 0.91291 0.94039 0.0
H204 H 0.32806 0.89761 0.98037 0.0
H205 H 0.31139 0.95229 0.06195 0.0
H206 H 0.47769 0.03678 0.05877 0.0
H207 H 0.39443 0.02132 0.81984 0.0
H208 H 0.42644 0.95984 0.75139 0.0
O209 O 0.5237 0.9041 0.96277 0.0
C210 C 0.64564 0.95865 0.95634 0.0
C211 C 0.49232 0.93971 0.80546 0.0
C212 C 0.42876 -3e-05 0.83006 0.0
N213 N 0.49841 0.97954 0.89578 0.0
C214 C 0.51804 0.94755 0.8578 0.0
C215 C 0.45448 0.00576 0.88232 0.0
C216 C 0.44709 0.96585 0.7917 0.0
C217 C 0.65177 0.03502 0.12396 0.0
N218 N 0.6675 -0.00642 0.09107 0.0
C219 C 0.69007 0.08173 0.13152 0.0
C220 C 0.74184 0.08772 0.10901 0.0
C221 C 0.75645 0.04793 0.07566 0.0
C222 C 0.71961 0.00171 0.06512 0.0
C223 C 0.64254 0.7887 0.10833 0.0
C224 C 0.69471 0.86759 0.05237 0.0
C225 C 0.62995 0.83962 0.11562 0.0
N226 N 0.65356 0.87862 0.08571 0.0
C227 C 0.70538 0.81674 0.04155 0.0
C228 C 0.67854 0.77698 0.06942 0.0
C229 C 0.52271 0.86852 -0.00353 0.0
C230 C 0.39332 -0.00109 0.06492 0.0
C231 C 0.41283 0.93703 0.97525 0.0
C232 C 0.36063 0.92835 -0.00221 0.0
C233 C 0.35118 0.95919 0.04334 0.0
N234 N 0.45445 0.97534 -0.00288 0.0
C235 C 0.4449 0.0065 0.0411 0.0
Co236 Co 0.28396 0.66621 0.21375 0.0
Co237 Co 0.31123 0.74151 0.33423 0.0
O238 O 0.27499 0.72822 0.25936 0.0
C239 C 0.25519 0.73556 0.12289 0.0
O240 O 0.22002 0.75785 0.15191 0.0
C241 C 0.20841 0.79717 0.34785 0.0
O242 O 0.21423 0.81381 0.29912 0.0
O243 O 0.28842 0.66545 0.35566 0.0
O244 O 0.28156 0.62429 0.27462 0.0
H245 H 0.4767 0.79138 0.46526 0.0
H246 H 0.18915 0.66987 0.28621 0.0
O247 O 0.28559 0.70387 0.14428 0.0
H248 H 0.09816 0.61641 0.10444 0.0
H249 H 0.39268 0.53106 0.14134 0.0
H250 H 0.21264 0.56219 0.20559 0.0
H251 H 0.20147 0.63287 0.11874 0.0
H252 H 0.37413 0.62131 0.15558 0.0
O253 O 0.23851 0.76302 0.364 0.0
H254 H 0.42574 0.78876 0.37751 0.0
H255 H 0.27277 0.73265 0.44644 0.0
H256 H 0.2348 0.47523 0.19812 0.0
H257 H 0.08564 0.65436 0.27366 0.0
H258 H 0.32593 0.45815 0.16181 0.0
H259 H 0.03915 0.62769 0.1822 0.0
O260 O 0.37186 0.68381 0.22581 0.0
H261 H 0.36515 0.87305 0.19982 0.0
H262 H 0.31702 0.85017 0.38861 0.0
H263 H 0.32561 0.9377 0.35269 0.0
H264 H 0.34711 0.94928 0.2578 0.0
H265 H 0.35698 0.78659 0.23605 0.0
H266 H 0.31958 0.75197 0.53747 0.0
H267 H 0.42395 0.77367 0.54766 0.0
O268 O 0.38589 0.72261 0.30942 0.0
C269 C 0.28106 0.62322 0.32451 0.0
C270 C 0.43195 0.78004 0.46227 0.0
C271 C 0.34371 0.75733 0.50219 0.0
N272 N 0.34708 0.75735 0.406 0.0
C273 C 0.40305 0.77655 0.41189 0.0
C274 C 0.31711 0.74803 0.45046 0.0
C275 C 0.40217 0.77 0.5079 0.0
C276 C 0.16954 0.65828 0.24623 0.0
N277 N 0.2017 0.6526 0.20315 0.0
C278 C 0.11072 0.6495 0.2394 0.0
C279 C 0.08468 0.63462 0.18807 0.0
C280 C 0.11763 0.62853 0.14441 0.0
C281 C 0.17624 0.63802 0.15268 0.0
C282 C 0.35332 0.53886 0.15405 0.0
C283 C 0.25089 0.55713 0.18666 0.0
C284 C 0.34111 0.58984 0.16018 0.0
N285 N 0.29006 0.59916 0.1763 0.0
C286 C 0.26335 0.5063 0.18329 0.0
C287 C 0.31472 0.49705 0.16562 0.0
C288 C 0.40564 0.70423 0.26663 0.0
C289 C 0.35447 0.86837 0.24124 0.0
C290 C 0.32859 0.85501 0.34753 0.0
C291 C 0.3326 0.90462 0.32745 0.0
C292 C 0.34394 0.91098 0.27367 0.0
N293 N 0.33447 0.81259 0.3141 0.0
C294 C 0.35041 0.81943 0.26251 0.0
Co295 Co 0.50303 0.03224 0.46959 0.0
Co296 Co 0.53071 0.9163 0.51769 0.0
O297 O 0.50428 0.98402 0.5245 0.0
C298 C 0.52395 0.1269 0.56536 0.0
O299 O 0.54084 0.10704 0.60979 0.0
C300 C 0.40658 0.88946 0.52199 0.0
O301 O 0.39827 0.91027 0.47589 0.0
O302 O 0.50911 0.89942 0.43618 0.0
O303 O 0.49091 0.97573 0.411 0.0
H304 H 0.62355 0.77355 0.43348 0.0
H305 H 0.43714 0.0449 0.56398 0.0
O306 O 0.51341 0.09783 0.52125 0.0
H307 H 0.29358 0.98181 0.41788 0.0
H308 H 0.38313 0.13648 0.373 0.0
H309 H 0.54424 0.04021 0.35954 0.0
H310 H 0.39422 0.00133 0.39746 0.0
H311 H 0.43687 0.11745 0.45292 0.0
O312 O 0.45608 0.88268 0.53891 0.0
H313 H 0.60087 0.86325 0.44403 0.0
H314 H 0.52142 0.82754 0.58868 0.0
H315 H 0.49143 0.06047 0.27569 0.0
H316 H 0.33753 0.03241 0.58323 0.0
H317 H 0.4087 0.10451 0.2825 0.0
H318 H 0.2647 -0.00024 0.50941 0.0
O319 O 0.5913 0.03208 0.46847 0.0
H320 H 0.51442 -0.0122 0.70733 0.0
H321 H 0.63749 0.91127 0.58301 0.0
H322 H 0.67324 0.93822 0.67733 0.0
H323 H 0.61115 0.97699 0.74013 0.0
H324 H 0.47842 0.95556 0.6152 0.0
H325 H 0.5448 0.73836 0.58071 0.0
H326 H 0.59564 0.71012 0.50076 0.0
O327 O 0.60287 0.95179 0.49875 0.0
C328 C 0.49766 0.92919 0.39897 0.0
C329 C 0.60199 0.7853 0.46802 0.0
C330 C 0.5581 0.76533 0.55071 0.0
N331 N 0.55893 0.85009 0.51638 0.0
C332 C 0.589 0.83601 0.47428 0.0
C333 C 0.54498 0.81613 0.55526 0.0
C334 C 0.58619 0.74966 0.50624 0.0
C335 C 0.40599 0.034 0.53066 0.0
N336 N 0.422 0.02577 0.47904 0.0
C337 C 0.34942 0.02604 0.54221 0.0
C338 C 0.30868 0.00787 0.50091 0.0
C339 C 0.32501 -0.00143 0.44883 0.0
C340 C 0.382 0.00866 0.43805 0.0
C341 C 0.42021 0.11755 0.36904 0.0
C342 C 0.51232 0.06528 0.362 0.0
C343 C 0.45311 0.10914 0.41483 0.0
N344 N 0.49512 0.07877 0.4115 0.0
C345 C 0.48195 0.07534 0.3148 0.0
C346 C 0.43423 0.09941 0.31863 0.0
C347 C 0.62255 -0.00359 0.48346 0.0
C348 C 0.54089 0.96885 0.68123 0.0
C349 C 0.6097 0.92606 0.61086 0.0
C350 C 0.63029 0.94162 0.66403 0.0
C351 C 0.59557 0.96342 0.69928 0.0
N352 N 0.55558 0.93073 0.59373 0.0
C353 C 0.52097 0.95096 0.6286 0.0
Co354 Co 0.27732 0.29876 0.72031 0.0
Co355 Co 0.27201 0.26131 0.85107 0.0
O356 O 0.29459 0.25201 0.77579 0.0
C357 C 0.30742 0.224 0.63246 0.0
O358 O 0.32085 0.17886 0.64665 0.0
C359 C 0.39441 0.23814 0.86455 0.0
O360 O 0.40592 0.25974 0.81949 0.0
O361 O 0.30419 0.34075 0.85946 0.0
O362 O 0.28792 0.35781 0.77423 0.0
H363 H 0.15695 0.32577 -0.00715 0.0
H364 H 0.37069 0.23285 0.72159 0.0
O365 O 0.26807 0.24187 0.65796 0.0
H366 H 0.46892 0.40715 0.69175 0.0
H367 H 0.33721 0.43295 0.59524 0.0
H368 H 0.19313 0.36981 0.71766 0.0
H369 H 0.37007 0.39537 0.70981 0.0
H370 H 0.32219 0.34089 0.61638 0.0
O371 O 0.34592 0.23965 0.88294 0.0
H372 H 0.21327 0.33614 0.91331 0.0
H373 H 0.28119 0.19702 0.94553 0.0
H374 H 0.20633 0.46032 0.699 0.0
H375 H 0.46979 0.24283 0.70195 0.0
H376 H 0.28434 0.49523 0.64521 0.0
H377 H 0.52006 0.33064 0.68555 0.0
O378 O 0.19147 0.28203 0.73437 0.0
H379 H 0.27638 0.07106 0.80103 0.0
H380 H 0.16229 0.19913 0.87482 0.0
H381 H 0.12501 0.10568 0.87062 0.0
H382 H 0.1825 0.0403 0.83469 0.0
H383 H 0.31311 0.16484 0.80842 0.0
H384 H 0.222 0.183 0.02153 0.0
H385 H 0.15418 0.24429 0.0418 0.0
O386 O 0.19473 0.27856 0.82462 0.0
C387 C 0.30282 0.37372 0.8225 0.0
C388 C 0.18315 0.29685 0.98178 0.0
C389 C 0.22029 0.21709 -0.00136 0.0
N390 N 0.24871 0.2662 0.92377 0.0
C391 C 0.21646 0.30341 0.93804 0.0
C392 C 0.2548 0.22606 0.9562 0.0
C393 C 0.1824 0.25158 0.00983 0.0
C394 C 0.39039 0.27098 0.71193 0.0
N395 N 0.36027 0.31232 0.71066 0.0
C396 C 0.44755 0.27647 0.70204 0.0
C397 C 0.47578 0.32558 0.69328 0.0
C398 C 0.44699 0.36844 0.69649 0.0
C399 C 0.3899 0.36128 0.70688 0.0
C400 C 0.30448 0.41883 0.62118 0.0
C401 C 0.22198 0.38155 0.68756 0.0
C402 C 0.29471 0.36603 0.63176 0.0
N403 N 0.25918 0.34977 0.67016 0.0
C404 C 0.22946 0.43414 0.67737 0.0
C405 C 0.27416 0.45351 0.6478 0.0
C406 C 0.16619 0.27951 0.77938 0.0
C407 C 0.25132 0.09874 0.8181 0.0
C408 C 0.1875 0.17127 0.85865 0.0
C409 C 0.16628 0.11816 0.8567 0.0
C410 C 0.19863 0.08166 0.83657 0.0
N411 N 0.24047 0.1876 0.84311 0.0
C412 C 0.27186 0.15211 0.82214 0.0
Co413 Co 0.01042 0.93509 0.91557 0.0
Co414 Co 0.96777 0.04535 0.96999 0.0
O415 O 1.0004 0.98101 0.97475 0.0
C416 C 0.99817 0.85154 0.00508 0.0
O417 O 0.99038 0.88357 0.04611 0.0
C418 C 0.07972 0.07344 0.02829 0.0
O419 O 0.08323 0.02369 0.03271 0.0
O420 O 0.99623 0.06726 0.89642 0.0
O421 O 0.01603 -0.00866 0.86445 0.0
H422 H 0.80926 0.12714 0.90869 0.0
H423 H 0.10087 0.02931 0.91663 0.0
O424 O 1.00311 0.86847 0.95766 0.0
H425 H 0.19299 0.89871 0.01045 0.0
H426 H 0.13046 0.90686 0.76238 0.0
H427 H 0.96297 0.83368 0.85457 0.0
H428 H 0.10003 0.87366 0.96421 0.0
H429 H 0.10031 0.95342 0.84022 0.0
O430 O 0.03546 0.08795 0.00716 0.0
H431 H 0.90077 0.09954 0.89005 0.0
H432 H 0.95258 0.12395 0.05688 0.0
H433 H 0.98324 0.79875 0.76504 0.0
H434 H 0.19716 0.05338 0.95554 0.0
H435 H 0.07291 0.82442 0.72517 0.0
H436 H 0.24291 -0.01063 0.00628 0.0
O437 O 0.91975 0.92425 0.90011 0.0
H438 H 0.9793 -0.01212 0.16179 0.0
H439 H 0.85222 0.00592 0.00445 0.0
H440 H 0.82133 0.94397 0.06964 0.0
H441 H 0.88619 0.93234 0.14816 0.0
H442 H 0.01024 0.04551 0.0926 0.0
H443 H 0.86079 0.14712 0.07738 0.0
H444 H 0.78479 0.13865 0.00303 0.0
O445 O 0.90285 0.00486 0.92938 0.0
C446 C 0.01113 0.03835 0.85764 0.0
C447 C 0.84127 0.1277 0.94095 0.0
C448 C 0.86967 0.1383 0.03586 0.0
N449 N 0.92985 0.10623 0.9731 0.0
C450 C 0.89372 0.11341 0.9307 0.0
C451 C 0.92232 0.12654 0.02371 0.0
C452 C 0.82761 0.13479 -0.00579 0.0
C453 C 0.12072 -0.00052 0.93486 0.0
N454 N 0.09187 0.95013 0.93866 0.0
C455 C 0.1755 0.01399 0.95826 0.0
C456 C 0.20103 0.97816 0.98712 0.0
C457 C 0.17277 0.92754 0.98976 0.0
C458 C 0.11883 0.91381 0.96394 0.0
C459 C 0.09489 0.8894 0.7833 0.0
C460 C 1.00047 0.84879 0.83557 0.0
C461 C 0.07744 0.91523 0.82849 0.0
N462 N 0.03071 0.89471 0.85436 0.0
C463 C 0.01394 0.82568 0.78714 0.0
C464 C 0.0632 0.84315 0.76295 0.0
C465 C 0.88487 0.95889 0.90933 0.0
C466 C 0.95199 -0.00986 0.12596 0.0
C467 C 0.88205 -0.00018 0.03641 0.0
C468 C 0.86338 0.96568 0.07479 0.0
C469 C 0.8994 0.95966 0.119 0.0
N470 N 0.93684 0.02345 0.03849 0.0
C471 C 0.96991 0.02235 0.08529 0.0
Co472 Co 0.80929 0.22493 0.71644 0.0
Co473 Co 0.79937 0.26224 0.84609 0.0
O474 O 0.77446 0.26557 0.77002 0.0
C475 C 0.8237 0.29545 0.62564 0.0
O476 O 0.87762 0.30575 0.64059 0.0
C477 C 0.69406 0.31164 0.85173 0.0
O478 O 0.70285 0.32796 0.80337 0.0
O479 O 0.77373 0.1822 0.83764 0.0
O480 O 0.82631 0.17261 0.76973 0.0
H481 H 0.9347 0.27644 0.00875 0.0
H482 H 0.69045 0.24569 0.70777 0.0
O483 O 0.78996 0.27245 0.6578 0.0
H484 H 0.67852 0.05362 0.68385 0.0
H485 H 0.81694 0.11021 0.55137 0.0
H486 H 0.91698 0.18483 0.7216 0.0
H487 H 0.76973 0.10942 0.68739 0.0
H488 H 0.78289 0.18263 0.60175 0.0
O489 O 0.72103 0.27547 0.86871 0.0
H490 H 0.908 0.287 0.91493 0.0
H491 H 0.73807 0.22611 0.9415 0.0
H492 H 0.95385 0.11755 0.67082 0.0
H493 H 0.59844 0.19018 0.71061 0.0
H494 H 0.89277 0.06724 0.59729 0.0
H495 H 0.59239 0.09322 0.70046 0.0
O496 O 0.88445 0.2688 0.73826 0.0
H497 H 0.82425 0.43874 0.77158 0.0
H498 H 0.8027 0.34528 0.93771 0.0
H499 H 0.79752 0.43854 0.94055 0.0
H500 H 0.8049 0.48516 0.85732 0.0
H501 H 0.83302 0.34576 0.77006 0.0
H502 H 0.76262 0.22829 0.03885 0.0
H503 H 0.8637 0.24587 0.07166 0.0
O504 O 0.883 0.25516 0.82603 0.0
C505 C 0.79288 0.15186 0.80274 0.0
C506 C 0.89162 0.26719 -0.00532 0.0
C507 C 0.79467 0.24077 0.0115 0.0
N508 N 0.82141 0.25632 0.92143 0.0
C509 C 0.87606 0.27115 0.94063 0.0
C510 C 0.78102 0.24023 0.95611 0.0
C511 C 0.85103 0.25147 0.03015 0.0
C512 C 0.68823 0.20359 0.70264 0.0
N513 N 0.73623 0.18131 0.69826 0.0
C514 C 0.63588 0.17234 0.70421 0.0
C515 C 0.63233 0.11802 0.69807 0.0
C516 C 0.68058 0.09571 0.68902 0.0
C517 C 0.73237 0.12796 0.68992 0.0
C518 C 0.83741 0.12537 0.58994 0.0
C519 C 0.89514 0.17006 0.6837 0.0
C520 C 0.82032 0.16813 0.61674 0.0
N521 N 0.84601 0.18606 0.66579 0.0
C522 C 0.91451 0.12911 0.65694 0.0
C523 C 0.88196 0.10325 0.61325 0.0
C524 C 0.91134 0.26635 0.784 0.0
C525 C 0.82091 0.41842 0.80847 0.0
C526 C 0.81144 0.36521 0.90157 0.0
C527 C 0.80692 0.41842 0.9035 0.0
C528 C 0.81052 0.44465 0.85645 0.0
N529 N 0.81937 0.3385 0.85378 0.0
C530 C 0.82576 0.36526 0.80802 0.0
Co531 Co 0.02707 0.53083 0.93569 0.0
Co532 Co 0.01375 0.41832 0.00227 0.0
O533 O 0.99429 0.49006 -0.00748 0.0
C534 C 0.01449 0.62682 0.0189 0.0
O535 O 0.99169 0.59916 0.0569 0.0
C536 C 0.88943 0.4109 0.0304 0.0
O537 O 0.88325 0.45704 0.01332 0.0
O538 O 0.99075 0.39309 0.92123 0.0
O539 O 0.0309 0.4658 0.89131 0.0
H540 H 0.05986 0.24062 0.94353 0.0
H541 H 0.9243 0.57499 0.97083 0.0
O542 O 0.02866 0.60346 0.97571 0.0
H543 H 0.8908 0.52637 0.77586 0.0
H544 H 0.97576 0.62717 0.79117 0.0
H545 H 0.10071 0.50678 0.84771 0.0
H546 H 0.96186 0.49039 0.82938 0.0
H547 H 0.00818 0.62967 0.88607 0.0
O548 O 0.93549 0.39218 0.02488 0.0
H549 H 0.0579 0.3351 0.93497 0.0
H550 H 1.00698 0.34919 0.09599 0.0
H551 H 0.07755 0.51228 0.75201 0.0
H552 H 0.86182 0.62085 0.91608 0.0
H553 H 0.01028 0.57152 0.72302 0.0
H554 H 0.8456 0.59771 0.81687 0.0
O555 O 0.10496 0.52669 0.97224 0.0
H556 H 1.00361 0.52667 0.17604 0.0
H557 H 0.11273 0.40811 0.07845 0.0
H558 H 0.14688 0.4455 0.16946 0.0
H559 H 0.09473 0.50825 0.21769 0.0
H560 H 0.96762 0.48446 0.08728 0.0
H561 H 0.01757 0.25735 0.10783 0.0
H562 H 0.0387 0.20174 0.02807 0.0
O563 O 0.09461 0.44053 0.98432 0.0
C564 C 0.01311 0.41816 0.8827 0.0
C565 C 0.04931 0.26504 0.97703 0.0
C566 C 0.02646 0.2743 0.0698 0.0
N567 N 0.0315 0.34835 0.01454 0.0
C568 C 0.04725 0.31835 0.97251 0.0
C569 C 0.02164 0.32685 0.06302 0.0
C570 C 0.03839 0.24305 0.02562 0.0
C571 C 0.9181 0.56475 0.92812 0.0
N572 N 0.95096 0.533 0.90326 0.0
C573 C 0.88098 0.58989 0.89737 0.0
C574 C 0.87203 0.57704 0.84197 0.0
C575 C 0.8978 0.53725 0.81878 0.0
C576 C 0.93702 0.51512 0.85038 0.0
C577 C 0.00964 0.60682 0.80284 0.0
C578 C 0.07736 0.53714 0.83572 0.0
C579 C 0.02808 0.60669 0.85733 0.0
N580 N 0.05565 0.56716 0.87402 0.0
C581 C 0.06376 0.53955 0.78079 0.0
C582 C 0.02738 0.57323 0.76445 0.0
C583 C 0.12457 0.48596 0.98945 0.0
C584 C 0.02755 0.50028 0.15507 0.0
C585 C 0.08796 0.43333 0.09991 0.0
C586 C 0.10842 0.45543 0.15112 0.0
C587 C 0.07874 0.49015 0.1783 0.0
N588 N 0.03753 0.44325 0.07717 0.0
C589 C 1.00709 0.47574 0.10472 0.0
Co590 Co 0.76404 0.80406 0.21699 0.0
Co591 Co 0.77323 0.72897 0.32174 0.0
O592 O 0.79143 0.74221 0.24603 0.0
C593 C 0.81028 0.75468 0.11387 0.0
O594 O 0.82246 0.71282 0.13699 0.0
C595 C 0.89026 0.69095 0.31539 0.0
O596 O 0.89057 0.69257 0.26265 0.0
O597 O 0.80547 0.8061 0.34742 0.0
O598 O 0.74752 0.82994 0.289 0.0
H599 H 0.71295 0.78084 0.50513 0.0
H600 H 0.878 0.77292 0.20384 0.0
O601 O 0.78034 0.78534 0.13799 0.0
H602 H 0.92062 0.95954 0.26347 0.0
H603 H 0.79186 0.9822 0.15244 0.0
H604 H 0.66435 0.85368 0.24101 0.0
H605 H 0.82302 0.91649 0.25203 0.0
H606 H 0.799 0.88748 0.1412 0.0
O607 O 0.85024 0.7071 0.34059 0.0
H608 H 0.72132 0.7875 0.40695 0.0
H609 H 0.79598 0.64794 0.39914 0.0
H610 H 0.65012 0.94527 0.24631 0.0
H611 H 0.97541 0.81575 0.20967 0.0
H612 H 0.71932 0.01158 0.20864 0.0
H613 H 0.99802 0.91003 0.23999 0.0
O614 O 0.68389 0.7622 0.21567 0.0
H615 H 0.76255 0.55604 0.21157 0.0
H616 H 0.67982 0.65243 0.35601 0.0
H617 H 0.65465 0.55812 0.3436 0.0
H618 H 0.69133 0.5088 0.26689 0.0
H619 H 0.7963 0.64937 0.23378 0.0
H620 H 0.78478 0.6382 0.49604 0.0
H621 H 0.743 0.70478 0.54984 0.0
O622 O 0.69067 0.74388 0.30408 0.0
C623 C 0.78308 0.84294 0.32742 0.0
C624 C 0.72982 0.75085 0.4818 0.0
C625 C 0.77059 0.67103 0.47684 0.0
N626 N 0.75802 0.71777 0.39685 0.0
C627 C 0.73486 0.75452 0.42623 0.0
C628 C 0.77667 0.67682 0.42182 0.0
C629 C 0.74707 0.70843 0.50699 0.0
C630 C 0.8859 0.81411 0.21492 0.0
N631 N 0.84257 0.84168 0.22535 0.0
C632 C 0.942 0.8382 0.21897 0.0
C633 C 0.95473 0.89088 0.23629 0.0
C634 C 0.91138 0.91853 0.24959 0.0
C635 C 0.85559 0.89348 0.2431 0.0
C636 C 0.76166 0.95357 0.16903 0.0
C637 C 0.69044 0.88102 0.21867 0.0
C638 C 0.76542 0.90006 0.1626 0.0
N639 N 0.73458 0.8657 0.19275 0.0
C640 C 0.68258 0.93333 0.22248 0.0
C641 C 0.72098 0.97026 0.20072 0.0
C642 C 0.66023 0.74634 0.25916 0.0
C643 C 0.74551 0.57675 0.2445 0.0
C644 C 0.70017 0.63141 0.32581 0.0
C645 C 0.68365 0.57774 0.31719 0.0
C646 C 0.7054 0.55031 0.27534 0.0
N647 N 0.74337 0.6563 0.29914 0.0
C648 C 0.76469 0.6299 0.25753 0.0
Co649 Co 0.09994 0.41091 0.54221 0.0
Co650 Co 0.0397 0.44428 0.42415 0.0
O651 O 0.05113 0.45554 0.50368 0.0
C652 C 0.02491 0.40684 0.64304 0.0
O653 O 0.98221 0.38069 0.61283 0.0
C654 C 0.03211 0.56363 0.43415 0.0
O655 O 0.03762 0.56805 0.4872 0.0
O656 O 0.12531 0.45275 0.41788 0.0
O657 O 0.13541 0.39216 0.47328 0.0
H658 H 0.06932 0.34567 0.25059 0.0
H659 H 0.0906 0.52331 0.55786 0.0
O660 O 0.06974 0.42562 0.61948 0.0
H661 H 0.29379 0.52713 0.5516 0.0
H662 H 0.10598 0.24536 0.63228 0.0
H663 H 0.21177 0.36943 0.52295 0.0
H664 H 0.23242 0.44451 0.54795 0.0
H665 H 0.07612 0.33133 0.62112 0.0
O666 O 0.04113 0.52151 0.40836 0.0
H667 H 0.08679 0.37345 0.34756 0.0
H668 H 0.9709 0.48254 0.33252 0.0
H669 H 0.2363 0.28613 0.52731 0.0
H670 H 0.15003 0.60648 0.55391 0.0
H671 H 0.18275 0.22011 0.58245 0.0
H672 H 0.25315 0.60992 0.55385 0.0
O673 O 0.04107 0.35007 0.52168 0.0
H674 H 0.86733 0.50783 0.49314 0.0
H675 H 0.93654 0.37636 0.37301 0.0
H676 H 0.83489 0.3834 0.3698 0.0
H677 H 0.80153 0.45374 0.42401 0.0
H678 H 0.96691 0.49695 0.4981 0.0
H679 H 0.9512 0.45481 0.23582 0.0
H680 H 0.99888 0.38458 0.19467 0.0
O681 O 0.03244 0.36592 0.4332 0.0
C682 C 0.15664 0.42282 0.43992 0.0
C683 C 0.04752 0.37571 0.26828 0.0
C684 C 0.98113 0.43689 0.26006 0.0
N685 N 0.02927 0.42899 0.3461 0.0
C686 C 0.05748 0.39187 0.32314 0.0
C687 C 0.99306 0.45291 0.31476 0.0
C688 C 0.00802 0.39754 0.23695 0.0
C689 C 0.1347 0.52221 0.55517 0.0
N690 N 0.15614 0.47567 0.5554 0.0
C691 C 0.16863 0.57068 0.55379 0.0
C692 C 0.22633 0.57272 0.55386 0.0
C693 C 0.24882 0.52632 0.55321 0.0
C694 C 0.21298 0.47832 0.55239 0.0
C695 C 0.13026 0.27453 0.61033 0.0
C696 C 0.18944 0.34613 0.55024 0.0
C697 C 0.11535 0.32477 0.60583 0.0
N698 N 0.14414 0.36069 0.57512 0.0
C699 C 0.20369 0.29617 0.55189 0.0
C700 C 0.17379 0.25987 0.58206 0.0
C701 C 0.0262 0.33524 0.47212 0.0
C702 C 0.88219 0.4791 0.46616 0.0
C703 C 0.92154 0.40521 0.39905 0.0
C704 C 0.86425 0.4094 0.39655 0.0
C705 C 0.84506 0.44815 0.42843 0.0
N706 N 0.95883 0.4396 0.43164 0.0
C707 C 0.93906 0.47332 0.46801 0.0
Co708 Co 0.48269 0.59469 0.04769 0.0
Co709 Co 0.47827 0.46052 0.03498 0.0
O710 O 0.5041 0.53055 0.0176 0.0
C711 C 0.44479 0.64969 0.95629 0.0
O712 O 0.39138 0.63511 0.9637 0.0
C713 C 0.59619 0.45543 -0.00014 0.0
O714 O 0.60423 0.50522 0.99006 0.0
O715 O 0.49536 0.48474 0.11628 0.0
O716 O 0.48367 0.57025 0.12253 0.0
H717 H 0.33169 0.32201 0.09351 0.0
H718 H 0.57494 0.61516 0.97294 0.0
O719 O 0.48046 0.62115 0.97308 0.0
H720 H 0.67284 0.63538 0.15435 0.0
H721 H 0.53106 0.78893 0.10212 0.0
H722 H 0.37713 0.64421 0.06863 0.0
H723 H 0.57066 0.61742 0.14465 0.0
H724 H 0.55193 0.70309 0.07544 0.0
O725 O 0.55712 0.43881 0.03043 0.0
H726 H 0.38101 0.41102 0.09381 0.0
H727 H 0.51423 0.35307 0.01392 0.0
H728 H 0.35943 0.7335 0.09257 0.0
H729 H 0.67399 0.64515 0.9826 0.0
H730 H 0.43499 0.80477 0.11314 0.0
H731 H 0.72701 0.6492 0.07304 0.0
O732 O 0.39841 0.56467 0.03695 0.0
H733 H 0.51708 0.47464 0.83738 0.0
H734 H 0.39977 0.37632 0.96401 0.0
H735 H 0.40287 0.3408 0.87183 0.0
H736 H 0.46047 0.38909 0.80694 0.0
H737 H 0.52034 0.50637 0.93107 0.0
H738 H 0.46958 0.26338 0.02131 0.0
H739 H 0.37543 0.24664 0.05856 0.0
O740 O 0.39833 0.47761 0.03506 0.0
C741 C 0.49506 0.52897 0.14424 0.0
C742 C 0.37217 0.32846 0.07719 0.0
C743 C 0.44982 0.29569 0.03707 0.0
N744 N 0.4507 0.38888 0.05297 0.0
C745 C 0.40041 0.37941 0.07633 0.0
C746 C 0.47604 0.34732 0.03472 0.0
C747 C 0.39697 0.28632 0.05761 0.0
C748 C 0.59473 0.62206 0.01328 0.0
N749 N 0.56438 0.61654 0.05793 0.0
C750 C 0.65272 0.63602 0.01826 0.0
C751 C 0.68162 0.63901 0.06888 0.0
C752 C 0.65127 0.63169 0.11443 0.0
C753 C 0.59255 0.6209 0.10826 0.0
C754 C 0.49831 0.7564 0.09786 0.0
C755 C 0.41242 0.67411 0.07864 0.0
C756 C 0.50919 0.70604 0.08328 0.0
N757 N 0.46662 0.66415 0.07543 0.0
C758 C 0.40099 0.7246 0.09241 0.0
C759 C 0.444 0.76561 0.10323 0.0
C760 C 0.37192 0.5173 0.03395 0.0
C761 C 0.49261 0.45202 0.86554 0.0
C762 C 0.42845 0.39701 0.93811 0.0
C763 C 0.4284 0.37702 0.8848 0.0
C764 C 0.46078 0.40437 0.84836 0.0
N765 N 0.46467 0.44086 0.95677 0.0
C766 C 0.49405 0.46973 0.91986 0.0
Co767 Co 0.8274 0.82284 0.77448 0.0
Co768 Co 0.75809 0.71701 0.83163 0.0
O769 O 0.75901 0.78356 0.79503 0.0
C770 C 0.75962 0.91814 0.78671 0.0
O771 O 0.71178 0.889 0.76975 0.0
C772 C 0.68792 0.69131 0.7326 0.0
O773 O 0.66535 0.73349 0.74524 0.0
O774 O 0.83895 0.70538 0.81704 0.0
O775 O 0.85474 0.75514 0.75006 0.0
H776 H 0.76807 0.6099 -0.00437 0.0
H777 H 0.82331 0.90977 0.69836 0.0
O778 O 0.80426 0.89604 0.79627 0.0
H779 H 0.69738 0.75813 0.61041 0.0
H780 H 0.97817 0.83855 0.64446 0.0
H781 H 0.90789 0.92263 0.80448 0.0
H782 H 0.76318 0.74796 0.68923 0.0
H783 H 0.89089 0.80029 0.68062 0.0
O784 O 0.72705 0.67805 0.76312 0.0
H785 H 0.76704 0.69055 0.94818 0.0
H786 H 0.73505 0.59982 0.79786 0.0
H787 H 0.99845 0.95696 0.77046 0.0
H788 H 0.76311 0.92128 0.61781 0.0
H789 H 0.03014 0.9212 0.68618 0.0
H790 H 0.69694 0.84542 0.57509 0.0
O791 O 0.86073 0.81544 0.85552 0.0
H792 H 0.54943 0.66018 0.83876 0.0
H793 H 0.70466 0.80735 0.86975 0.0
H794 H 0.60637 0.82464 0.87223 0.0
H795 H 0.52806 0.75076 0.85292 0.0
H796 H 0.64755 0.64514 0.83511 0.0
H797 H 0.72087 0.52017 0.84532 0.0
H798 H 0.74055 0.52369 0.94495 0.0
O799 O 0.79243 0.76043 0.89399 0.0
C800 C 0.87143 0.72255 0.78127 0.0
C801 C 0.75954 0.6078 0.95221 0.0
C802 C 0.73344 0.55744 0.86807 0.0
N803 N 0.7535 0.65178 0.86944 0.0
C804 C 0.76114 0.65376 0.9246 0.0
C805 C 0.7406 0.60375 0.8413 0.0
C806 C 0.74414 0.55942 0.92385 0.0
C807 C 0.7951 0.87631 0.68011 0.0
N808 N 0.79163 0.8287 0.70244 0.0
C809 C 0.76099 0.88323 0.63431 0.0
C810 C 0.72379 0.84079 0.6105 0.0
C811 C 0.72351 0.79169 0.63092 0.0
C812 C 0.7596 0.78613 0.67598 0.0
C813 C 0.96145 0.85848 0.67777 0.0
C814 C 0.92263 0.90402 0.7695 0.0
C815 C 0.91326 0.83587 0.70066 0.0
N816 N 0.89576 0.85733 0.74767 0.0
C817 C 0.97191 0.92627 0.74821 0.0
C818 C 0.99055 0.90474 0.70131 0.0
C819 C 0.83957 0.79084 0.89701 0.0
C820 C 0.58332 0.69274 0.84587 0.0
C821 C 0.67082 0.77502 0.86396 0.0
C822 C 0.61526 0.78504 0.86455 0.0
C823 C 0.57136 0.74368 0.85368 0.0
N824 N 0.68233 0.72566 0.85137 0.0
C825 C 0.63938 0.68433 0.84521 0.0
Co826 Co 0.71008 0.15351 0.34068 0.0
Co827 Co 0.75357 0.26334 0.2775 0.0
O828 O 0.74288 0.185 0.2769 0.0
C829 C 0.79526 0.07143 0.35178 0.0
O830 O 0.83505 0.10329 0.38033 0.0
C831 C 0.73026 0.29761 0.16719 0.0
O832 O 0.69041 0.32264 0.18521 0.0
O833 O 0.66767 0.26044 0.27889 0.0
O834 O 0.66364 0.21297 0.34996 0.0
H835 H 0.7175 0.44155 0.34646 0.0
H836 H 0.64648 0.04834 0.34236 0.0
O837 O 0.75103 0.08876 0.3324 0.0
H838 H 0.57479 0.1156 0.17443 0.0
H839 H 0.7273 0.12631 0.53532 0.0
H840 H 0.59711 0.1441 0.3801 0.0
H841 H 0.64742 0.16966 0.23426 0.0
H842 H 0.75617 0.11357 0.4428 0.0
O843 O 0.74744 0.26188 0.19519 0.0
H844 H 0.70078 0.34486 0.33509 0.0
H845 H 0.83628 0.34794 0.23275 0.0
H846 H 0.56992 0.16303 0.47058 0.0
H847 H 0.58366 -0.01 0.27883 0.0
H848 H 0.6353 0.1517 0.55085 0.0
H849 H 0.54557 0.02338 0.19305 0.0
O850 O 0.7725 0.1945 0.3884 0.0
H851 H 0.91485 0.19402 0.19355 0.0
H852 H 0.86389 0.31167 0.33979 0.0
H853 H 0.96493 0.30942 0.3242 0.0
H854 H 0.99048 0.25022 0.25133 0.0
H855 H 0.81575 0.20024 0.20778 0.0
H856 H 0.85109 0.44377 0.23951 0.0
H857 H 0.79317 0.49138 0.29859 0.0
O858 O 0.7632 0.27256 0.3597 0.0
C859 C 0.63843 0.23561 0.31367 0.0
C860 C 0.74206 0.42105 0.31958 0.0
C861 C 0.81748 0.4224 0.25998 0.0
N862 N 0.76533 0.34004 0.2806 0.0
C863 C 0.7328 0.36628 0.31281 0.0
C864 C 0.80798 0.36772 0.25529 0.0
C865 C 0.78457 0.44914 0.29275 0.0
C866 C 0.63255 0.06292 0.30482 0.0
N867 N 0.65001 0.1133 0.29366 0.0
C868 C 0.59629 0.02945 0.26846 0.0
C869 C 0.57508 0.04829 0.2212 0.0
C870 C 0.59073 0.10039 0.21111 0.0
C871 C 0.63076 0.13163 0.2465 0.0
C872 C 0.69798 0.12811 0.50129 0.0
C873 C 0.62495 0.13754 0.41385 0.0
C874 C 0.71355 0.12004 0.4485 0.0
N875 N 0.67816 0.12783 0.40554 0.0
C876 C 0.60915 0.14822 0.46575 0.0
C877 C 0.64578 0.1428 0.51 0.0
C878 C 0.77726 0.24397 0.39685 0.0
C879 C 0.90429 0.22079 0.22528 0.0
C880 C 0.87504 0.28742 0.30692 0.0
C881 C 0.932 0.28569 0.29864 0.0
C882 C 0.94658 0.25221 0.25761 0.0
N883 N 0.8338 0.25918 0.27285 0.0
C884 C 0.84804 0.22461 0.23374 0.0
Co885 Co 0.53217 0.42437 0.43513 0.0
Co886 Co 0.49225 0.53281 0.49888 0.0
O887 O 0.52928 0.46973 0.49892 0.0
C888 C 0.53159 0.34822 0.52388 0.0
O889 O 0.56238 0.38577 0.55502 0.0
C890 C 0.61144 0.57125 0.53944 0.0
O891 O 0.62242 0.52334 0.54045 0.0
O892 O 0.50129 0.54607 0.41783 0.0
O893 O 0.55068 0.48512 0.39106 0.0
H894 H 0.33168 0.62524 0.45016 0.0
H895 H 0.63774 0.50572 0.44506 0.0
O896 O 0.51332 0.35795 0.4762 0.0
H897 H 0.70161 0.33996 0.48918 0.0
H898 H 0.63457 0.39638 0.26907 0.0
H899 H 0.46543 0.33576 0.3651 0.0
H900 H 0.60578 0.34066 0.45041 0.0
H901 H 0.62165 0.43343 0.35824 0.0
O902 O 0.56393 0.58045 0.51985 0.0
H903 H 0.40875 0.576 0.42665 0.0
H904 H 0.49399 0.62302 0.57976 0.0
H905 H 0.47932 0.29988 0.27264 0.0
H906 H 0.73501 0.50654 0.48224 0.0
H907 H 0.56328 0.32605 0.22592 0.0
H908 H 0.76616 0.42328 0.50936 0.0
O909 O 0.44313 0.42328 0.41999 0.0
H910 H 0.5421 0.49798 0.69519 0.0
H911 H 0.39213 0.53167 0.56387 0.0
H912 H 0.37521 0.5323 0.66057 0.0
H913 H 0.4502 0.51552 0.72729 0.0
H914 H 0.55731 0.498 0.59937 0.0
H915 H 0.42003 0.67437 0.60405 0.0
H916 H 0.33348 0.66677 0.54335 0.0
O917 O 0.4219 0.48751 0.47814 0.0
C918 C 0.52724 0.52433 0.38106 0.0
C919 C 0.36798 0.62586 0.47828 0.0
C920 C 0.41762 0.65362 0.56459 0.0
N921 N 0.45378 0.59396 0.50311 0.0
C922 C 0.41189 0.5985 0.46499 0.0
C923 C 0.46049 0.62583 0.54972 0.0
C924 C 0.36941 0.65021 0.53001 0.0
C925 C 0.65072 0.46932 0.45644 0.0
N926 N 0.61294 0.42417 0.45365 0.0
C927 C 0.70624 0.47006 0.47711 0.0
C928 C 0.72387 0.42345 0.49179 0.0
C929 C 0.68761 0.37664 0.48111 0.0
C930 C 0.63265 0.37757 0.46037 0.0
C931 C 0.59874 0.381 0.29067 0.0
C932 C 0.50343 0.34754 0.34508 0.0
C933 C 0.59058 0.40154 0.34206 0.0
N934 N 0.54296 0.38523 0.36875 0.0
C935 C 0.51108 0.32662 0.2934 0.0
C936 C 0.55871 0.34238 0.26634 0.0
C937 C 0.4066 0.44814 0.44503 0.0
C938 C 0.50939 0.50688 0.66677 0.0
C939 C 0.42565 0.52498 0.59236 0.0
C940 C 0.41539 0.52484 0.6472 0.0
C941 C 0.45775 0.51616 0.68471 0.0
N942 N 0.47818 0.52082 0.57525 0.0
C943 C 0.51843 0.50833 0.61171 0.0
C944 C 0.19842 0.13231 0.12482 0.0
C945 C 0.17051 0.1657 0.15681 0.0
H946 H 0.19066 0.07676 0.0568 0.0
C947 C 0.11554 0.17334 0.1422 0.0
H948 H 0.24129 0.12632 0.13568 0.0
C949 C 0.08701 0.14467 0.09822 0.0
C950 C 0.11386 0.11011 0.06687 0.0
H951 H 0.09302 0.19828 0.16689 0.0
H952 H 0.04254 0.14644 0.09183 0.0
C953 C 0.16989 0.10435 0.0798 0.0
C954 C 0.14501 0.91009 0.41581 0.0
C955 C 0.12286 0.88962 0.46284 0.0
H956 H 0.18642 0.89733 0.34321 0.0
C957 C 0.12821 0.83691 0.47165 0.0
H958 H 0.14108 0.94993 0.40657 0.0
C959 C 0.15605 0.80648 0.4351 0.0
C960 C 0.17714 0.82719 0.38752 0.0
H961 H 0.11167 0.81944 0.50713 0.0
H962 H 0.16045 0.7666 0.44377 0.0
C963 C 0.1707 0.87945 0.37875 0.0
C964 C 0.37293 0.85759 0.60771 0.0
C965 C 0.35943 0.874 0.55646 0.0
H966 H 0.34473 0.83049 0.68062 0.0
C967 C 0.30221 0.87531 0.5405 0.0
H968 H 0.41622 0.85682 0.62231 0.0
C969 C 0.25961 0.85947 0.57562 0.0
C970 C 0.274 0.84141 0.62634 0.0
H971 H 0.29045 0.88804 0.50112 0.0
H972 H 0.21592 0.86063 0.56301 0.0
C973 C 0.33122 0.84153 0.64151 0.0
C974 C 0.45989 0.14192 0.95252 0.0
C975 C 0.51062 0.13765 0.92767 0.0
H976 H 0.38342 0.17652 0.95248 0.0
C977 C 0.52517 0.17134 0.88646 0.0
H978 H 0.4469 0.11662 0.98422 0.0
C979 C 0.4888 0.20571 0.86835 0.0
C980 C 0.43631 0.2075 0.89053 0.0
H981 H 0.56377 0.16961 0.86635 0.0
H982 H 0.50102 0.22939 0.83516 0.0
C983 C 0.42316 0.1762 0.93407 0.0
C984 C 0.6577 0.3962 0.87614 0.0
C985 C 0.66631 0.34573 0.89049 0.0
H986 H 0.63108 0.46947 0.89885 0.0
C987 C 0.65251 0.33159 0.94279 0.0
H988 H 0.66832 0.40949 0.8369 0.0
C989 C 0.62993 0.36664 0.97884 0.0
C990 C 0.62224 0.41736 0.96421 0.0
H991 H 0.65912 0.29352 0.95586 0.0
H992 H 0.61915 0.35427 0.01835 0.0
C993 C 0.63683 0.43131 0.91231 0.0
C994 C 0.7888 0.38763 0.05914 0.0
C995 C 0.84656 0.38255 0.06379 0.0
H996 H 0.70636 0.36465 0.08792 0.0
C997 C 0.86444 0.34944 0.10203 0.0
H998 H 0.77346 0.41368 0.03099 0.0
C999 C 0.82587 0.31913 0.13156 0.0
C1000 C 0.76829 0.32369 0.12766 0.0
H1001 H 0.90851 0.34528 0.10813 0.0
H1002 H 0.84208 0.29287 0.15863 0.0
C1003 C 0.7502 0.35898 0.09129 0.0
C1004 C 0.97223 0.63691 0.43153 0.0
C1005 C 1.00334 0.60254 0.40403 0.0
H1006 H 0.9126 0.69129 0.42579 0.0
C1007 C 1.00074 0.60151 0.34701 0.0
H1008 H 0.97261 0.63882 0.47528 0.0
C1009 C 0.9664 0.63208 0.31844 0.0
C1010 C 0.93293 0.66426 0.34589 0.0
H1011 H 0.02406 0.57583 0.32419 0.0
H1012 H 0.96438 0.62873 0.27462 0.0
C1013 C 0.93738 0.66699 0.40297 0.0
C1014 C 0.68848 0.59789 0.61098 0.0
C1015 C 0.64197 0.60993 0.57981 0.0
H1016 H 0.73929 0.61415 0.68531 0.0
C1017 C 0.61584 0.65258 0.59651 0.0
H1018 H 0.70984 0.56531 0.59877 0.0
C1019 C 0.63046 0.67859 0.64649 0.0
C1020 C 0.6739 0.66417 0.67956 0.0
H1021 H 0.58047 0.66274 0.57321 0.0
H1022 H 0.60694 0.70938 0.65944 0.0
C1023 C 0.7045 0.62505 0.66081 0.0
C1024 C 0.28214 0.2066 0.48141 0.0
C1025 C 0.32002 0.24704 0.46072 0.0
H1026 H 0.25028 0.16887 0.54992 0.0
C1027 C 0.35561 0.2806 0.49894 0.0
H1028 H 0.25204 0.1799 0.45528 0.0
C1029 C 0.35435 0.27216 0.55502 0.0
C1030 C 0.31372 0.23346 0.57419 0.0
H1031 H 0.38559 0.31189 0.48585 0.0
H1032 H 0.38499 0.29607 0.5832 0.0
C1033 C 0.28005 0.19968 0.53633 0.0
C1034 C 0.05772 0.04698 0.76719 0.0
C1035 C 0.011 0.05211 0.79861 0.0
H1036 H 0.08869 0.03094 0.68845 0.0
C1037 C 0.95848 0.04598 0.76944 0.0
H1038 H 0.09839 0.04653 0.7872 0.0
C1039 C 0.95141 0.03139 0.71288 0.0
C1040 C 0.9978 0.02466 0.68196 0.0
H1041 H 0.92256 0.04486 0.79311 0.0
H1042 H 0.90928 0.0238 0.69342 0.0
C1043 C 0.05154 0.03516 0.71006 0.0
C1044 C 0.27146 0.69851 0.97502 0.0
C1045 C 0.25044 0.73782 0.94674 0.0
H1046 H 0.28568 0.66574 0.05001 0.0
C1047 C 0.23114 0.77874 0.97748 0.0
H1048 H 0.28757 0.66676 0.95393 0.0
C1049 C 0.23246 0.77913 0.03484 0.0
C1050 C 0.25291 0.73852 0.06236 0.0
H1051 H 0.2142 0.80977 0.95733 0.0
H1052 H 0.21739 0.81087 0.05743 0.0
C1053 C 0.27102 0.69807 0.03097 0.0
C1054 C 0.47002 0.94397 0.30156 0.0
C1055 C 0.49832 0.91501 0.3382 0.0
H1056 H 0.45593 0.96635 0.22017 0.0
C1057 C 0.53475 0.88253 0.31533 0.0
H1058 H 0.44192 0.96974 0.31666 0.0
C1059 C 0.54394 0.88156 0.25883 0.0
C1060 C 0.51786 0.91351 0.22338 0.0
H1061 H 0.5582 0.85982 0.34131 0.0
H1062 H 0.57167 0.85597 0.24292 0.0
C1063 C 0.47846 0.94244 0.24566 0.0
C1064 C 0.48013 0.20482 0.26312 0.0
C1065 C 0.45245 0.21681 0.31017 0.0
H1066 H 0.55939 0.20764 0.22577 0.0
C1067 C 0.48663 0.2289 0.35884 0.0
H1068 H 0.4558 0.19535 0.22479 0.0
C1069 C 0.54613 0.23376 0.35986 0.0
C1070 C 0.57427 0.22901 0.31179 0.0
H1071 H 0.4672 0.23744 0.39585 0.0
H1072 H 0.57032 0.24422 0.39815 0.0
C1073 C 0.54003 0.21276 0.26361 0.0
C1074 C 0.04885 0.24423 0.47261 0.0
C1075 C 0.01196 0.27875 0.45699 0.0
H1076 H 0.06909 0.16744 0.46559 0.0
C1077 C 0.96486 0.25973 0.42197 0.0
H1078 H 0.08709 0.25854 0.49733 0.0
C1079 C 0.95394 0.20679 0.40357 0.0
C1080 C 0.98952 0.17131 0.42096 0.0
H1081 H 0.93628 0.2859 0.40936 0.0
H1082 H 0.91665 0.1933 0.37699 0.0
C1083 C 0.03813 0.1913 0.45435 0.0
C1084 C 0.96177 0.70714 0.73402 0.0
C1085 C 0.93311 0.71298 0.78226 0.0
H1086 H 0.0418 0.70938 0.6972 0.0
C1087 C 0.96751 0.71999 0.83146 0.0
H1088 H 0.93793 0.70258 0.69519 0.0
C1089 C 0.02755 0.72414 0.8321 0.0
C1090 C 0.05649 0.72145 0.7843 0.0
H1091 H 0.94839 0.72516 0.86948 0.0
H1092 H 0.05216 0.73056 0.87002 0.0
C1093 C 0.02208 0.71174 0.73512 0.0
C1094 C 0.52261 0.72556 0.96263 0.0
C1095 C 0.46477 0.70653 0.95402 0.0
H1096 H 0.58585 0.79194 0.98363 0.0
C1097 C 0.42629 0.74286 0.95306 0.0
H1098 H 0.55371 0.69935 0.96258 0.0
C1099 C 0.44502 0.79631 0.96514 0.0
C1100 C 0.50251 0.81417 0.97718 0.0
H1101 H 0.38152 0.72981 0.94621 0.0
H1102 H 0.41434 0.82308 0.96765 0.0
C1103 C 0.54121 0.7787 0.97473 0.0
C1104 C 0.55878 0.71126 0.21557 0.0
C1105 C 0.59491 0.73447 0.26029 0.0
H1106 H 0.4738 0.68074 0.18276 0.0
C1107 C 0.56738 0.74412 0.30792 0.0
H1108 H 0.57715 0.70081 0.17894 0.0
C1109 C 0.50762 0.73318 0.31004 0.0
C1110 C 0.47106 0.71159 0.26461 0.0
H1111 H 0.59223 0.76116 0.34393 0.0
H1112 H 0.49036 0.74163 0.34816 0.0
C1113 C 0.49879 0.69961 0.21779 0.0
C1114 C 0.47995 0.20217 0.5298 0.0
C1115 C 0.52154 0.1848 0.56348 0.0
H1116 H 0.45612 0.26401 0.48428 0.0
C1117 C 0.56415 0.22325 0.58865 0.0
H1118 H 0.44339 0.17565 0.51415 0.0
C1119 C 0.56605 0.27667 0.57813 0.0
C1120 C 0.52695 0.29267 0.54006 0.0
H1121 H 0.59759 0.21195 0.61421 0.0
H1122 H 0.60001 0.3049 0.59753 0.0
C1123 C 0.48492 0.25415 0.51542 0.0
C1124 C 0.07221 0.26645 0.82902 0.0
C1125 C 0.10077 0.27652 0.78117 0.0
H1126 H 0.99308 0.25509 0.86847 0.0
C1127 C 0.06526 0.28389 0.73602 0.0
H1128 H 0.09682 0.26121 0.86555 0.0
C1129 C 1.00553 0.28001 0.73715 0.0
C1130 C 0.97679 0.27007 0.78473 0.0
H1131 H 0.08414 0.29518 0.7001 0.0
H1132 H 0.98178 0.28618 0.70022 0.0
C1133 C 0.01206 0.26319 0.83083 0.0
C1134 C 0.03489 0.76798 0.97568 0.0
C1135 C 1.00605 0.79523 0.01323 0.0
H1136 H 0.06365 0.69593 0.95048 0.0
C1137 C 0.98545 0.7677 0.05726 0.0
H1138 H 0.05354 0.78803 0.94262 0.0
C1139 C 0.98924 0.71355 0.06051 0.0
C1140 C 0.01556 0.68578 0.02083 0.0
H1141 H 0.96403 0.78731 0.08788 0.0
H1142 H 0.97019 0.69321 0.09332 0.0
C1143 C 0.04039 0.7148 0.97996 0.0
C1144 C 0.31747 0.4876 0.32444 0.0
C1145 C 0.26456 0.45542 0.31964 0.0
H1146 H 0.36387 0.56517 0.3359 0.0
C1147 C 0.21651 0.48133 0.32128 0.0
H1148 H 0.35563 0.47102 0.3204 0.0
C1149 C 0.22172 0.53644 0.33179 0.0
C1150 C 0.27504 0.56802 0.3406 0.0
H1151 H 0.17471 0.45897 0.31509 0.0
H1152 H 0.18388 0.55481 0.3298 0.0
C1153 C 0.3225 0.54226 0.33538 0.0
C1154 C 0.82005 0.06329 0.77638 0.0
C1155 C 0.78086 0.09184 0.79984 0.0
H1156 H 0.84555 -0.01188 0.75639 0.0
C1157 C 0.7294 0.06215 0.81179 0.0
H1158 H 0.85676 0.08456 0.76044 0.0
C1159 C 0.72023 0.00613 0.80367 0.0
C1160 C 0.76388 0.97787 0.7879 0.0
H1161 H 0.69596 0.08203 0.82652 0.0
H1162 H 0.68055 0.98486 0.81397 0.0
C1163 C 0.81289 0.00791 0.77252 0.0
C1164 C 0.27432 0.54582 0.04506 0.0
C1165 C 0.30731 0.50665 0.03101 0.0
H1166 H 0.19141 0.56851 0.04886 0.0
C1167 C 0.27716 0.45653 0.01401 0.0
H1168 H 0.29477 0.58404 0.05978 0.0
C1169 C 0.21756 0.44857 0.00414 0.0
C1170 C 0.18553 0.48992 0.01254 0.0
H1171 H 0.29981 0.42412 0.00462 0.0
H1172 H 0.19723 0.41133 0.98567 0.0
C1173 C 0.21458 0.53679 0.03862 0.0
C1174 C 0.74498 0.97905 0.33803 0.0
C1175 C 0.79592 0.01272 0.3493 0.0
H1176 H 0.70045 0.90142 0.33113 0.0
C1177 C 0.84458 -0.01104 0.361 0.0
H1178 H 0.70639 -0.00567 0.32962 0.0
C1179 C 0.84175 0.9333 0.35896 0.0
C1180 C 0.78971 0.90002 0.34726 0.0
H1181 H 0.88503 0.01312 0.36989 0.0
H1182 H 0.88038 0.91678 0.36265 0.0
C1183 C 0.74168 0.92471 0.33887 0.0
C1184 C 0.7936 -0.0011 0.9074 0.0
C1185 C 0.819 0.95216 0.90566 0.0
H1186 H 0.72378 0.03952 0.92651 0.0
C1187 C 0.7811 0.90663 0.91307 0.0
H1188 H 0.81771 0.03459 0.89739 0.0
C1189 C 0.7238 0.90858 0.92435 0.0
C1190 C 0.70119 0.95629 0.93006 0.0
H1191 H 0.79491 0.86951 0.91132 0.0
H1192 H 0.69768 0.87261 0.93235 0.0
C1193 C 0.73787 0.0016 0.92174 0.0
C1194 C 0.34071 0.52102 0.87643 0.0
C1195 C 0.33185 0.54597 0.82731 0.0
H1196 H 0.33459 0.4474 0.91579 0.0
C1197 C 0.32589 0.51456 0.7797 0.0
H1198 H 0.34709 0.5441 0.91461 0.0
C1199 C 0.32138 0.46046 0.78097 0.0
C1200 C 0.32031 0.43337 0.82902 0.0
H1201 H 0.32093 0.5315 0.74112 0.0
H1202 H 0.31499 0.43971 0.74277 0.0
C1203 C 0.33327 0.46513 0.87747 0.0
C1204 C 0.2529 0.47589 0.43915 0.0
C1205 C 0.21958 0.42679 0.43357 0.0
H1206 H 0.33392 0.51994 0.44881 0.0
C1207 C 0.24871 0.38253 0.4314 0.0
H1208 H 0.23313 0.51099 0.44264 0.0
C1209 C 0.30884 0.3882 0.43328 0.0
C1210 C 0.34209 0.43771 0.43659 0.0
H1211 H 0.225 0.34342 0.42902 0.0
H1212 H 0.32932 0.35428 0.43323 0.0
C1213 C 0.31198 0.48092 0.44251 0.0
C1214 C 0.85728 0.83248 -0.008 0.0
C1215 C 0.86659 0.79286 0.95357 0.0
H1216 H 0.83197 0.8517 0.07108 0.0
C1217 C 0.87092 0.74331 0.97387 0.0
H1218 H 0.85793 0.87225 0.98085 0.0
C1219 C 0.85366 0.73089 0.02572 0.0
C1220 C 0.83475 0.76863 0.06059 0.0
H1221 H 0.87945 0.71164 0.94652 0.0
H1222 H 0.85229 0.6909 0.0371 0.0
C1223 C 0.84166 0.82051 0.0444 0.0
C1224 C 0.48619 0.56584 0.29765 0.0
C1225 C 0.52682 0.53861 0.32205 0.0
H1226 H 0.44427 0.58432 0.22349 0.0
C1227 C 0.56132 0.51485 0.28627 0.0
H1228 H 0.45953 0.58596 0.32265 0.0
C1229 C 0.55276 0.5138 0.22958 0.0
C1230 C 0.5075 0.53464 0.20533 0.0
H1231 H 0.59348 0.49376 0.3018 0.0
H1232 H 0.57989 0.4939 0.20474 0.0
C1233 C 0.47693 0.56408 0.24025 0.0
C1234 C 0.83278 0.30209 0.4733 0.0
C1235 C 0.78519 0.26656 0.45389 0.0
H1236 H 0.88175 0.34115 0.54305 0.0
C1237 C 0.74449 0.25125 0.49024 0.0
H1238 H 0.86365 0.31649 0.44598 0.0
C1239 C 0.75434 0.26478 0.54592 0.0
C1240 C 0.80556 0.29463 0.56662 0.0
H1241 H 0.70479 0.22893 0.47513 0.0
H1242 H 0.72304 0.24936 0.57282 0.0
C1243 C 0.84289 0.31618 0.52911 0.0
C1244 C 0.07148 0.40917 0.74105 0.0
C1245 C 0.02284 0.40636 0.70527 0.0
H1246 H 0.10685 0.41158 0.82363 0.0
C1247 C 0.97074 0.39841 0.72985 0.0
H1248 H 0.11259 0.41486 0.72503 0.0
C1249 C 0.96769 0.39552 0.78684 0.0
C1250 C 0.01566 0.39926 0.82297 0.0
H1251 H 0.9317 0.39586 0.70505 0.0
H1252 H 0.92783 0.3946 0.80371 0.0
C1253 C 0.06796 0.40592 0.79821 0.0
C1254 C 0.7733 0.01485 0.54862 0.0
C1255 C 0.8028 -0.01122 0.51063 0.0
H1256 H 0.69478 0.04022 0.56909 0.0
C1257 C 0.76926 0.96003 0.46816 0.0
H1258 H 0.79345 0.02788 0.58795 0.0
C1259 C 0.71241 0.96707 0.45668 0.0
C1260 C 0.6861 0.00247 0.48816 0.0
H1261 H 0.78678 0.9304 0.44574 0.0
H1262 H 0.68712 0.9419 0.42539 0.0
C1263 C 0.71617 0.02165 0.5377 0.0
loop_
_geom_bond_atom_site_label_1
_geom_bond_atom_site_label_2
_geom_bond_distance
_geom_bond_site_symmetry_2
_ccdc_geom_bond_type
Co0 O2 2.143 . S
Co0 O8 2.074 . S
Co0 O11 2.093 . S
Co0 O24 2.097 . S
Co0 N41 2.151 . S
Co0 N49 2.214 . S
Co1 O2 2.160 . S
Co1 O7 2.058 . S
Co1 O17 2.057 . S
Co1 O32 2.037 . S
Co1 N36 2.145 . S
Co1 N57 2.257 . S
O2 Co0 2.143 . S
O2 Co1 2.160 . S
C3 O4 1.278 . S
C3 O11 1.224 . S
O4 C3 1.278 . S
C5 O6 1.245 . S
C5 O17 1.232 . S
O6 C5 1.245 . S
O7 Co1 2.058 . S
O7 C33 1.269 . S
O8 Co0 2.074 . S
O8 C33 1.257 . S
H9 C34 0.930 . S
H10 C40 0.930 . S
O11 Co0 2.093 . S
O11 C3 1.224 . S
H12 C44 0.929 . S
H13 C46 0.930 . S
H14 C47 0.930 . S
H15 C45 0.929 . S
H16 C48 0.928 . S
O17 Co1 2.057 . S
O17 C5 1.232 . S
H18 C37 0.929 . S
H19 C38 0.929 . S
H20 C50 0.931 . S
H21 C42 0.929 . S
H22 C51 0.930 . S
H23 C43 0.931 . S
O24 Co0 2.097 . S
O24 C52 1.214 . S
H25 C53 0.929 . S
H26 C54 0.929 . S
H27 C55 0.930 . S
H28 C56 0.929 . S
H29 C58 0.930 . S
H30 C35 0.930 . S
H31 C39 0.930 . S
O32 Co1 2.037 . S
O32 C52 1.234 . S
C33 O7 1.269 . S
C33 O8 1.257 . S
C34 H9 0.930 . S
C34 C37 1.388 . S
C34 C39 1.418 . S
C35 H30 0.930 . S
C35 C38 1.404 . S
C35 C39 1.353 . S
N36 Co1 2.145 . S
N36 C37 1.397 . S
N36 C38 1.334 . S
C37 H18 0.929 . S
C37 C34 1.388 . S
C37 N36 1.397 . S
C38 H19 0.929 . S
C38 C35 1.404 . S
C38 N36 1.334 . S
C39 H31 0.930 . S
C39 C34 1.418 . S
C39 C35 1.353 . S
C40 H10 0.930 . S
C40 N41 1.330 . S
C40 C42 1.446 . S
N41 Co0 2.151 . S
N41 C40 1.330 . S
N41 C45 1.418 . S
C42 H21 0.929 . S
C42 C40 1.446 . S
C42 C43 1.332 . S
C43 H23 0.931 . S
C43 C42 1.332 . S
C43 C44 1.267 . S
C44 H12 0.929 . S
C44 C43 1.267 . S
C44 C45 1.251 . S
C45 H15 0.929 . S
C45 N41 1.418 . S
C45 C44 1.251 . S
C46 H13 0.930 . S
C46 C48 1.406 . S
C46 C51 1.261 . S
C47 H14 0.930 . S
C47 N49 1.325 . S
C47 C50 1.357 . S
C48 H16 0.928 . S
C48 C46 1.406 . S
C48 N49 1.261 . S
N49 Co0 2.214 . S
N49 C47 1.325 . S
N49 C48 1.261 . S
C50 H20 0.931 . S
C50 C47 1.357 . S
C50 C51 1.312 . S
C51 H22 0.930 . S
C51 C46 1.261 . S
C51 C50 1.312 . S
C52 O24 1.214 . S
C52 O32 1.234 . S
C53 H25 0.929 . S
C53 C56 1.391 . S
C53 C58 1.391 . S
C54 H26 0.929 . S
C54 C55 1.390 . S
C54 N57 1.391 . S
C55 H27 0.930 . S
C55 C54 1.390 . S
C55 C56 1.392 . S
C56 H28 0.929 . S
C56 C53 1.391 . S
C56 C55 1.392 . S
N57 Co1 2.257 . S
N57 C54 1.391 . S
N57 C58 1.388 . S
C58 H29 0.930 . S
C58 C53 1.391 . S
C58 N57 1.388 . S
Co59 O61 2.143 . S
Co59 O67 2.074 . S
Co59 O70 2.093 . S
Co59 O83 2.097 . S
Co59 N100 2.151 1_655 S
Co59 N108 2.214 . S
Co60 O61 2.160 1_565 S
Co60 O66 2.058 . S
Co60 O76 2.057 1_655 S
Co60 O91 2.037 . S
Co60 N95 2.145 . S
Co60 N116 2.257 . S
O61 Co59 2.143 . S
O61 Co60 2.160 1_545 S
C62 O63 1.278 . S
C62 O70 1.224 . S
O63 C62 1.278 . S
C64 O65 1.245 1_565 S
C64 O76 1.232 . S
O65 C64 1.245 1_545 S
O66 Co60 2.058 . S
O66 C92 1.269 . S
O67 Co59 2.074 . S
O67 C92 1.257 1_545 S
H68 C93 0.930 . S
H69 C99 0.930 . S
O70 Co59 2.093 . S
O70 C62 1.224 . S
H71 C103 0.929 . S
H72 C105 0.930 . S
H73 C106 0.930 . S
H74 C104 0.929 . S
H75 C107 0.928 . S
O76 Co60 2.057 1_455 S
O76 C64 1.232 . S
H77 C96 0.929 . S
H78 C97 0.929 . S
H79 C109 0.931 . S
H80 C101 0.929 . S
H81 C110 0.930 . S
H82 C102 0.931 . S
O83 Co59 2.097 . S
O83 C111 1.214 . S
H84 C112 0.929 . S
H85 C113 0.929 . S
H86 C114 0.930 . S
H87 C115 0.929 . S
H88 C117 0.911 1_445 S
H89 C94 0.930 . S
H90 C98 0.930 . S
O91 Co60 2.037 . S
O91 C111 1.234 1_565 S
C92 O66 1.269 . S
C92 O67 1.257 1_565 S
C93 H68 0.930 . S
C93 C96 1.388 . S
C93 C98 1.418 . S
C94 H89 0.930 . S
C94 C97 1.404 . S
C94 C98 1.353 . S
N95 Co60 2.145 . S
N95 C96 1.397 . S
N95 C97 1.334 . S
C96 H77 0.929 . S
C96 C93 1.388 . S
C96 N95 1.397 . S
C97 H78 0.929 . S
C97 C94 1.404 . S
C97 N95 1.334 . S
C98 H90 0.930 . S
C98 C93 1.418 . S
C98 C94 1.353 . S
C99 H69 0.930 . S
C99 N100 1.330 . S
C99 C101 1.446 . S
N100 Co59 2.151 1_455 S
N100 C99 1.330 . S
N100 C104 1.418 . S
C101 H80 0.929 . S
C101 C99 1.446 . S
C101 C102 1.332 . S
C102 H82 0.931 . S
C102 C101 1.332 . S
C102 C103 1.267 . S
C103 H71 0.929 . S
C103 C102 1.267 . S
C103 C104 1.251 . S
C104 H74 0.929 . S
C104 N100 1.418 . S
C104 C103 1.251 . S
C105 H72 0.930 . S
C105 C107 1.406 . S
C105 C110 1.261 . S
C106 H73 0.930 . S
C106 N108 1.325 . S
C106 C109 1.357 . S
C107 H75 0.928 . S
C107 C105 1.406 . S
C107 N108 1.261 . S
N108 Co59 2.214 . S
N108 C106 1.325 . S
N108 C107 1.261 . S
C109 H79 0.931 . S
C109 C106 1.357 . S
C109 C110 1.312 . S
C110 H81 0.930 . S
C110 C105 1.261 . S
C110 C109 1.312 . S
C111 O83 1.214 . S
C111 O91 1.234 1_545 S
C112 H84 0.929 . S
C112 C115 1.391 1_545 S
C112 C117 1.391 1_545 S
C113 H85 0.929 . S
C113 C114 1.390 . S
C113 N116 1.391 . S
C114 H86 0.930 . S
C114 C113 1.390 . S
C114 C115 1.392 . S
C115 H87 0.929 . S
C115 C112 1.391 1_565 S
C115 C114 1.392 . S
N116 Co60 2.257 . S
N116 C113 1.391 . S
N116 C117 1.388 . S
C117 H88 0.911 1_665 S
C117 C112 1.391 1_565 S
C117 N116 1.388 . S
Co118 O120 2.143 . S
Co118 O126 2.074 . S
Co118 O129 2.093 . S
Co118 O142 2.097 . S
Co118 N159 2.151 . S
Co118 N167 2.214 . S
Co119 O120 2.160 . S
Co119 O125 2.058 . S
Co119 O135 2.057 . S
Co119 O150 2.037 . S
Co119 N154 2.145 . S
Co119 N175 2.257 . S
O120 Co118 2.143 . S
O120 Co119 2.160 . S
C121 O122 1.278 . S
C121 O129 1.224 . S
O122 C121 1.278 . S
C123 O124 1.245 . S
C123 O135 1.232 . S
O124 C123 1.245 . S
O125 Co119 2.058 . S
O125 C151 1.269 . S
O126 Co118 2.074 . S
O126 C151 1.257 . S
H127 C152 0.930 . S
H128 C158 0.930 . S
O129 Co118 2.093 . S
O129 C121 1.224 . S
H130 C162 0.929 . S
H131 C164 0.930 . S
H132 C165 0.930 . S
H133 C163 0.929 . S
H134 C166 0.928 . S
O135 Co119 2.057 . S
O135 C123 1.232 . S
H136 C155 0.929 . S
H137 C156 0.929 . S
H138 C168 0.931 . S
H139 C160 0.929 . S
H140 C169 0.930 . S
H141 C161 0.931 . S
O142 Co118 2.097 . S
O142 C170 1.214 . S
H143 C171 0.929 . S
H144 C172 0.929 . S
H145 C173 0.930 . S
H146 C174 0.929 . S
H147 C176 0.930 . S
H148 C153 0.930 . S
H149 C157 0.930 1_545 S
O150 Co119 2.037 . S
O150 C170 1.234 . S
C151 O125 1.269 . S
C151 O126 1.257 . S
C152 H127 0.930 . S
C152 C155 1.388 . S
C152 C157 1.418 . S
C153 H148 0.930 . S
C153 C156 1.404 . S
C153 C157 1.353 . S
N154 Co119 2.145 . S
N154 C155 1.397 . S
N154 C156 1.334 . S
C155 H136 0.929 . S
C155 C152 1.388 . S
C155 N154 1.397 . S
C156 H137 0.929 . S
C156 C153 1.404 . S
C156 N154 1.334 . S
C157 H149 0.930 1_565 S
C157 C152 1.418 . S
C157 C153 1.353 . S
C158 H128 0.930 . S
C158 N159 1.330 . S
C158 C160 1.446 . S
N159 Co118 2.151 . S
N159 C158 1.330 . S
N159 C163 1.418 . S
C160 H139 0.929 . S
C160 C158 1.446 . S
C160 C161 1.332 . S
C161 H141 0.931 . S
C161 C160 1.332 . S
C161 C162 1.267 . S
C162 H130 0.929 . S
C162 C161 1.267 . S
C162 C163 1.251 . S
C163 H133 0.929 . S
C163 N159 1.418 . S
C163 C162 1.251 . S
C164 H131 0.930 . S
C164 C166 1.406 . S
C164 C169 1.261 . S
C165 H132 0.930 . S
C165 N167 1.325 . S
C165 C168 1.357 . S
C166 H134 0.928 . S
C166 C164 1.406 . S
C166 N167 1.261 . S
N167 Co118 2.214 . S
N167 C165 1.325 . S
N167 C166 1.261 . S
C168 H138 0.931 . S
C168 C165 1.357 . S
C168 C169 1.312 . S
C169 H140 0.930 . S
C169 C164 1.261 . S
C169 C168 1.312 . S
C170 O142 1.214 . S
C170 O150 1.234 . S
C171 H143 0.929 . S
C171 C174 1.391 . S
C171 C176 1.391 . S
C172 H144 0.929 . S
C172 C173 1.390 . S
C172 N175 1.391 . S
C173 H145 0.930 . S
C173 C172 1.390 . S
C173 C174 1.392 . S
C174 H146 0.929 . S
C174 C171 1.391 . S
C174 C173 1.392 . S
N175 Co119 2.257 . S
N175 C172 1.391 . S
N175 C176 1.388 . S
C176 H147 0.930 . S
C176 C171 1.391 . S
C176 N175 1.388 . S
Co177 O179 2.143 . S
Co177 O185 2.074 1_554 S
Co177 O188 2.093 . S
Co177 O201 2.097 . S
Co177 N218 2.151 1_565 S
Co177 N226 2.214 . S
Co178 O179 2.160 1_556 S
Co178 O184 2.058 . S
Co178 O194 2.057 . S
Co178 O209 2.037 . S
Co178 N213 2.145 . S
Co178 N234 2.257 . S
O179 Co177 2.143 . S
O179 Co178 2.160 1_554 S
C180 O181 1.278 . S
C180 O188 1.224 . S
O181 C180 1.278 . S
C182 O183 1.245 . S
C182 O194 1.232 1_545 S
O183 C182 1.245 . S
O184 Co178 2.058 . S
O184 C210 1.269 . S
O185 Co177 2.074 1_556 S
O185 C210 1.257 . S
H186 C211 0.930 . S
H187 C217 0.930 . S
O188 Co177 2.093 . S
O188 C180 1.224 . S
H189 C221 0.929 . S
H190 C223 0.930 . S
H191 C224 0.930 . S
H192 C222 0.929 1_565 S
H193 C225 0.928 . S
O194 Co178 2.057 . S
O194 C182 1.232 1_565 S
H195 C214 0.929 . S
H196 C215 0.929 . S
H197 C227 0.931 . S
H198 C219 0.929 . S
H199 C228 0.930 . S
H200 C220 0.931 . S
O201 Co177 2.097 . S
O201 C229 1.214 1_554 S
H202 C230 0.929 . S
H203 C231 0.929 . S
H204 C232 0.930 . S
H205 C233 0.929 . S
H206 C235 0.930 . S
H207 C212 0.930 . S
H208 C216 0.930 . S
O209 Co178 2.037 . S
O209 C229 1.234 . S
C210 O184 1.269 . S
C210 O185 1.257 . S
C211 H186 0.930 . S
C211 C214 1.388 . S
C211 C216 1.418 . S
C212 H207 0.930 . S
C212 C215 1.404 . S
C212 C216 1.353 . S
N213 Co178 2.145 . S
N213 C214 1.397 . S
N213 C215 1.334 . S
C214 H195 0.929 . S
C214 C211 1.388 . S
C214 N213 1.397 . S
C215 H196 0.929 . S
C215 C212 1.404 . S
C215 N213 1.334 . S
C216 H208 0.930 . S
C216 C211 1.418 . S
C216 C212 1.353 . S
C217 H187 0.930 . S
C217 N218 1.330 . S
C217 C219 1.446 . S
N218 Co177 2.151 1_545 S
N218 C217 1.330 . S
N218 C222 1.418 . S
C219 H198 0.929 . S
C219 C217 1.446 . S
C219 C220 1.332 . S
C220 H200 0.931 . S
C220 C219 1.332 . S
C220 C221 1.267 . S
C221 H189 0.929 . S
C221 C220 1.267 . S
C221 C222 1.251 . S
C222 H192 0.929 1_545 S
C222 N218 1.418 . S
C222 C221 1.251 . S
C223 H190 0.930 . S
C223 C225 1.406 . S
C223 C228 1.261 . S
C224 H191 0.930 . S
C224 N226 1.325 . S
C224 C227 1.357 . S
C225 H193 0.928 . S
C225 C223 1.406 . S
C225 N226 1.261 . S
N226 Co177 2.214 . S
N226 C224 1.325 . S
N226 C225 1.261 . S
C227 H197 0.931 . S
C227 C224 1.357 . S
C227 C228 1.312 . S
C228 H199 0.930 . S
C228 C223 1.261 . S
C228 C227 1.312 . S
C229 O201 1.214 1_556 S
C229 O209 1.234 . S
C230 H202 0.929 . S
C230 C233 1.391 . S
C230 C235 1.391 . S
C231 H203 0.929 . S
C231 C232 1.390 . S
C231 N234 1.391 . S
C232 H204 0.930 . S
C232 C231 1.390 . S
C232 C233 1.392 . S
C233 H205 0.929 . S
C233 C230 1.391 . S
C233 C232 1.392 . S
N234 Co178 2.257 . S
N234 C231 1.391 . S
N234 C235 1.388 . S
C235 H206 0.930 . S
C235 C230 1.391 . S
C235 N234 1.388 . S
Co236 O238 2.143 . S
Co236 O244 2.074 . S
Co236 O247 2.093 . S
Co236 O260 2.097 . S
Co236 N277 2.151 . S
Co236 N285 2.214 . S
Co237 O238 2.160 . S
Co237 O243 2.058 . S
Co237 O253 2.057 . S
Co237 O268 2.037 . S
Co237 N272 2.145 . S
Co237 N293 2.257 . S
O238 Co236 2.143 . S
O238 Co237 2.160 . S
C239 O240 1.278 . S
C239 O247 1.224 . S
O240 C239 1.278 . S
C241 O242 1.245 . S
C241 O253 1.232 . S
O242 C241 1.245 . S
O243 Co237 2.058 . S
O243 C269 1.269 . S
O244 Co236 2.074 . S
O244 C269 1.257 . S
H245 C270 0.930 . S
H246 C276 0.930 . S
O247 Co236 2.093 . S
O247 C239 1.224 . S
H248 C280 0.929 . S
H249 C282 0.930 . S
H250 C283 0.930 . S
H251 C281 0.929 . S
H252 C284 0.928 . S
O253 Co237 2.057 . S
O253 C241 1.232 . S
H254 C273 0.929 . S
H255 C274 0.929 . S
H256 C286 0.931 . S
H257 C278 0.929 . S
H258 C287 0.930 . S
H259 C279 0.931 . S
O260 Co236 2.097 . S
O260 C288 1.214 . S
H261 C289 0.929 . S
H262 C290 0.929 . S
H263 C291 0.930 . S
H264 C292 0.929 1_545 S
H265 C294 0.930 . S
H266 C271 0.930 . S
H267 C275 0.930 . S
O268 Co237 2.037 . S
O268 C288 1.234 . S
C269 O243 1.269 . S
C269 O244 1.257 . S
C270 H245 0.930 . S
C270 C273 1.388 . S
C270 C275 1.418 . S
C271 H266 0.930 . S
C271 C274 1.404 . S
C271 C275 1.353 . S
N272 Co237 2.145 . S
N272 C273 1.397 . S
N272 C274 1.334 . S
C273 H254 0.929 . S
C273 C270 1.388 . S
C273 N272 1.397 . S
C274 H255 0.929 . S
C274 C271 1.404 . S
C274 N272 1.334 . S
C275 H267 0.930 . S
C275 C270 1.418 . S
C275 C271 1.353 . S
C276 H246 0.930 . S
C276 N277 1.330 . S
C276 C278 1.446 . S
N277 Co236 2.151 . S
N277 C276 1.330 . S
N277 C281 1.418 . S
C278 H257 0.929 . S
C278 C276 1.446 . S
C278 C279 1.332 . S
C279 H259 0.931 . S
C279 C278 1.332 . S
C279 C280 1.267 . S
C280 H248 0.929 . S
C280 C279 1.267 . S
C280 C281 1.251 . S
C281 H251 0.929 . S
C281 N277 1.418 . S
C281 C280 1.251 . S
C282 H249 0.930 . S
C282 C284 1.406 . S
C282 C287 1.261 . S
C283 H250 0.930 . S
C283 N285 1.325 . S
C283 C286 1.357 . S
C284 H252 0.928 . S
C284 C282 1.406 . S
C284 N285 1.261 . S
N285 Co236 2.214 . S
N285 C283 1.325 . S
N285 C284 1.261 . S
C286 H256 0.931 . S
C286 C283 1.357 . S
C286 C287 1.312 . S
C287 H258 0.930 . S
C287 C282 1.261 . S
C287 C286 1.312 . S
C288 O260 1.214 . S
C288 O268 1.234 . S
C289 H261 0.929 . S
C289 C292 1.391 . S
C289 C294 1.391 . S
C290 H262 0.929 . S
C290 C291 1.390 . S
C290 N293 1.391 . S
C291 H263 0.930 . S
C291 C290 1.390 . S
C291 C292 1.392 . S
C292 H264 0.929 1_565 S
C292 C289 1.391 . S
C292 C291 1.392 . S
N293 Co237 2.257 . S
N293 C290 1.391 . S
N293 C294 1.388 . S
C294 H265 0.930 . S
C294 C289 1.391 . S
C294 N293 1.388 . S
Co295 O297 2.143 . S
Co295 O303 2.074 1_545 S
Co295 O306 2.093 . S
Co295 O319 2.097 . S
Co295 N336 2.151 . S
Co295 N344 2.214 . S
Co296 O297 2.160 1_565 S
Co296 O302 2.058 . S
Co296 O312 2.057 . S
Co296 O327 2.037 . S
Co296 N331 2.145 . S
Co296 N352 2.257 . S
O297 Co295 2.143 . S
O297 Co296 2.160 1_545 S
C298 O299 1.278 . S
C298 O306 1.224 . S
O299 C298 1.278 . S
C300 O301 1.245 . S
C300 O312 1.232 . S
O301 C300 1.245 . S
O302 Co296 2.058 . S
O302 C328 1.269 . S
O303 Co295 2.074 1_565 S
O303 C328 1.257 . S
H304 C329 0.930 . S
H305 C335 0.930 . S
O306 Co295 2.093 . S
O306 C298 1.224 . S
H307 C339 0.929 . S
H308 C341 0.930 . S
H309 C342 0.930 . S
H310 C340 0.929 . S
H311 C343 0.928 . S
O312 Co296 2.057 . S
O312 C300 1.232 . S
H313 C332 0.929 . S
H314 C333 0.929 . S
H315 C345 0.931 . S
H316 C337 0.929 . S
H317 C346 0.930 . S
H318 C338 0.931 . S
O319 Co295 2.097 . S
O319 C347 1.214 . S
H320 C348 0.929 . S
H321 C349 0.929 . S
H322 C350 0.930 . S
H323 C351 0.929 . S
H324 C353 0.929 . S
H325 C330 0.930 . S
H326 C334 0.930 . S
O327 Co296 2.037 . S
O327 C347 1.234 1_565 S
C328 O302 1.269 . S
C328 O303 1.257 . S
C329 H304 0.930 . S
C329 C332 1.388 . S
C329 C334 1.418 . S
C330 H325 0.930 . S
C330 C333 1.404 . S
C330 C334 1.353 . S
N331 Co296 2.145 . S
N331 C332 1.397 . S
N331 C333 1.334 . S
C332 H313 0.929 . S
C332 C329 1.388 . S
C332 N331 1.397 . S
C333 H314 0.929 . S
C333 C330 1.404 . S
C333 N331 1.334 . S
C334 H326 0.930 . S
C334 C329 1.418 . S
C334 C330 1.353 . S
C335 H305 0.930 . S
C335 N336 1.330 . S
C335 C337 1.446 . S
N336 Co295 2.151 . S
N336 C335 1.330 . S
N336 C340 1.418 . S
C337 H316 0.929 . S
C337 C335 1.446 . S
C337 C338 1.332 . S
C338 H318 0.931 . S
C338 C337 1.332 . S
C338 C339 1.267 . S
C339 H307 0.929 . S
C339 C338 1.267 . S
C339 C340 1.251 . S
C340 H310 0.929 . S
C340 N336 1.418 . S
C340 C339 1.251 . S
C341 H308 0.930 . S
C341 C343 1.406 . S
C341 C346 1.261 . S
C342 H309 0.930 . S
C342 N344 1.325 . S
C342 C345 1.357 . S
C343 H311 0.928 . S
C343 C341 1.406 . S
C343 N344 1.261 . S
N344 Co295 2.214 . S
N344 C342 1.325 . S
N344 C343 1.261 . S
C345 H315 0.931 . S
C345 C342 1.357 . S
C345 C346 1.312 . S
C346 H317 0.930 . S
C346 C341 1.261 . S
C346 C345 1.312 . S
C347 O319 1.214 . S
C347 O327 1.234 1_545 S
C348 H320 0.929 . S
C348 C351 1.391 . S
C348 C353 1.391 . S
C349 H321 0.929 . S
C349 C350 1.390 1_565 S
C349 N352 1.391 . S
C350 H322 0.930 . S
C350 C349 1.390 1_545 S
C350 C351 1.392 . S
C351 H323 0.929 . S
C351 C348 1.391 . S
C351 C350 1.392 . S
N352 Co296 2.257 . S
N352 C349 1.391 . S
N352 C353 1.388 1_565 S
C353 H324 0.929 . S
C353 C348 1.391 . S
C353 N352 1.388 1_545 S
Co354 O356 2.143 . S
Co354 O362 2.074 . S
Co354 O365 2.093 . S
Co354 O378 2.097 . S
Co354 N395 2.151 . S
Co354 N403 2.214 . S
Co355 O356 2.160 . S
Co355 O361 2.058 . S
Co355 O371 2.057 . S
Co355 O386 2.037 . S
Co355 N390 2.145 . S
Co355 N411 2.257 . S
O356 Co354 2.143 . S
O356 Co355 2.160 . S
C357 O358 1.278 . S
C357 O365 1.224 . S
O358 C357 1.278 . S
C359 O360 1.245 . S
C359 O371 1.232 . S
O360 C359 1.245 . S
O361 Co355 2.058 . S
O361 C387 1.269 . S
O362 Co354 2.074 . S
O362 C387 1.257 . S
H363 C388 0.930 . S
H364 C394 0.930 . S
O365 Co354 2.093 . S
O365 C357 1.224 . S
H366 C398 0.929 . S
H367 C400 0.930 . S
H368 C401 0.930 . S
H369 C399 0.929 . S
H370 C402 0.928 . S
O371 Co355 2.057 . S
O371 C359 1.232 . S
H372 C391 0.929 . S
H373 C392 0.929 . S
H374 C404 0.931 . S
H375 C396 0.929 . S
H376 C405 0.930 . S
H377 C397 0.931 . S
O378 Co354 2.097 . S
O378 C406 1.214 . S
H379 C407 0.929 . S
H380 C408 0.929 . S
H381 C409 0.930 . S
H382 C410 0.929 . S
H383 C412 0.930 . S
H384 C389 0.930 1_554 S
H385 C393 0.930 . S
O386 Co355 2.037 . S
O386 C406 1.234 . S
C387 O361 1.269 . S
C387 O362 1.257 . S
C388 H363 0.930 . S
C388 C391 1.388 . S
C388 C393 1.418 1_556 S
C389 H384 0.930 1_556 S
C389 C392 1.404 . S
C389 C393 1.353 1_556 S
N390 Co355 2.145 . S
N390 C391 1.397 . S
N390 C392 1.334 . S
C391 H372 0.929 . S
C391 C388 1.388 . S
C391 N390 1.397 . S
C392 H373 0.929 . S
C392 C389 1.404 . S
C392 N390 1.334 . S
C393 H385 0.930 . S
C393 C388 1.418 1_554 S
C393 C389 1.353 1_554 S
C394 H364 0.930 . S
C394 N395 1.330 . S
C394 C396 1.446 . S
N395 Co354 2.151 . S
N395 C394 1.330 . S
N395 C399 1.418 . S
C396 H375 0.929 . S
C396 C394 1.446 . S
C396 C397 1.332 . S
C397 H377 0.931 . S
C397 C396 1.332 . S
C397 C398 1.267 . S
C398 H366 0.929 . S
C398 C397 1.267 . S
C398 C399 1.251 . S
C399 H369 0.929 . S
C399 N395 1.418 . S
C399 C398 1.251 . S
C400 H367 0.930 . S
C400 C402 1.406 . S
C400 C405 1.261 . S
C401 H368 0.930 . S
C401 N403 1.325 . S
C401 C404 1.357 . S
C402 H370 0.928 . S
C402 C400 1.406 . S
C402 N403 1.261 . S
N403 Co354 2.214 . S
N403 C401 1.325 . S
N403 C402 1.261 . S
C404 H374 0.931 . S
C404 C401 1.357 . S
C404 C405 1.312 . S
C405 H376 0.930 . S
C405 C400 1.261 . S
C405 C404 1.312 . S
C406 O378 1.214 . S
C406 O386 1.234 . S
C407 H379 0.929 . S
C407 C410 1.391 . S
C407 C412 1.391 . S
C408 H380 0.929 . S
C408 C409 1.390 . S
C408 N411 1.391 . S
C409 H381 0.930 . S
C409 C408 1.390 . S
C409 C410 1.392 . S
C410 H382 0.929 . S
C410 C407 1.391 . S
C410 C409 1.392 . S
N411 Co355 2.257 . S
N411 C408 1.391 . S
N411 C412 1.388 . S
C412 H383 0.930 . S
C412 C407 1.391 . S
C412 N411 1.388 . S
Co413 O415 2.143 . S
Co413 O421 2.074 . S
Co413 O424 2.093 . S
Co413 O437 2.097 . S
Co413 N454 2.151 1_655 S
Co413 N462 2.214 . S
Co414 O415 2.160 1_545 S
Co414 O420 2.058 . S
Co414 O430 2.057 1_656 S
Co414 O445 2.037 1_545 S
Co414 N449 2.145 1_556 S
Co414 N470 2.257 1_556 S
O415 Co413 2.143 . S
O415 Co414 2.160 1_565 S
C416 O417 1.278 . S
C416 O424 1.224 1_554 S
O417 C416 1.278 . S
C418 O419 1.245 . S
C418 O430 1.232 . S
O419 C418 1.245 . S
O420 Co414 2.058 . S
O420 C446 1.269 . S
O421 Co413 2.074 . S
O421 C446 1.257 1_565 S
H422 C447 0.930 . S
H423 C453 0.930 . S
O424 Co413 2.093 . S
O424 C416 1.224 1_556 S
H425 C457 0.929 . S
H426 C459 0.930 . S
H427 C460 0.930 . S
H428 C458 0.929 . S
H429 C461 0.928 . S
O430 Co414 2.057 1_454 S
O430 C418 1.232 . S
H431 C450 0.929 . S
H432 C451 0.913 1_455 S
H433 C463 0.931 . S
H434 C455 0.929 . S
H435 C464 0.930 . S
H436 C456 0.931 . S
O437 Co413 2.097 . S
O437 C465 1.214 . S
H438 C466 0.929 . S
H439 C467 0.929 . S
H440 C468 0.930 . S
H441 C469 0.929 . S
H442 C471 0.930 1_455 S
H443 C448 0.930 . S
H444 C452 0.930 . S
O445 Co414 2.037 1_565 S
O445 C465 1.234 . S
C446 O420 1.269 . S
C446 O421 1.257 1_545 S
C447 H422 0.930 . S
C447 C450 1.388 . S
C447 C452 1.418 1_556 S
C448 H443 0.930 . S
C448 C451 1.404 . S
C448 C452 1.353 . S
N449 Co414 2.145 1_554 S
N449 C450 1.397 1_554 S
N449 C451 1.334 . S
C450 H431 0.929 . S
C450 C447 1.388 . S
C450 N449 1.397 1_556 S
C451 H432 0.913 1_655 S
C451 C448 1.404 . S
C451 N449 1.334 . S
C452 H444 0.930 . S
C452 C447 1.418 1_554 S
C452 C448 1.353 . S
C453 H423 0.930 . S
C453 N454 1.330 . S
C453 C455 1.446 . S
N454 Co413 2.151 1_455 S
N454 C453 1.330 . S
N454 C458 1.418 . S
C455 H434 0.929 . S
C455 C453 1.446 . S
C455 C456 1.332 . S
C456 H436 0.931 . S
C456 C455 1.332 . S
C456 C457 1.267 . S
C457 H425 0.929 . S
C457 C456 1.267 . S
C457 C458 1.251 . S
C458 H428 0.929 . S
C458 N454 1.418 . S
C458 C457 1.251 . S
C459 H426 0.930 . S
C459 C461 1.406 . S
C459 C464 1.261 . S
C460 H427 0.930 . S
C460 N462 1.325 . S
C460 C463 1.357 . S
C461 H429 0.928 . S
C461 C459 1.406 . S
C461 N462 1.261 . S
N462 Co413 2.214 . S
N462 C460 1.325 . S
N462 C461 1.261 . S
C463 H433 0.931 . S
C463 C460 1.357 . S
C463 C464 1.312 . S
C464 H435 0.930 . S
C464 C459 1.261 . S
C464 C463 1.312 . S
C465 O437 1.214 . S
C465 O445 1.234 . S
C466 H438 0.929 . S
C466 C469 1.391 . S
C466 C471 1.391 . S
C467 H439 0.929 . S
C467 C468 1.390 1_545 S
C467 N470 1.391 . S
C468 H440 0.930 . S
C468 C467 1.390 1_565 S
C468 C469 1.392 . S
C469 H441 0.929 . S
C469 C466 1.391 . S
C469 C468 1.392 . S
N470 Co414 2.257 1_554 S
N470 C467 1.391 . S
N470 C471 1.388 1_545 S
C471 H442 0.930 1_655 S
C471 C466 1.391 . S
C471 N470 1.388 1_565 S
Co472 O474 2.143 . S
Co472 O480 2.074 . S
Co472 O483 2.093 . S
Co472 O496 2.097 . S
Co472 N513 2.151 . S
Co472 N521 2.214 . S
Co473 O474 2.160 . S
Co473 O479 2.058 . S
Co473 O489 2.057 . S
Co473 O504 2.037 . S
Co473 N508 2.145 . S
Co473 N529 2.257 . S
O474 Co472 2.143 . S
O474 Co473 2.160 . S
C475 O476 1.278 . S
C475 O483 1.224 . S
O476 C475 1.278 . S
C477 O478 1.245 . S
C477 O489 1.232 . S
O478 C477 1.245 . S
O479 Co473 2.058 . S
O479 C505 1.269 . S
O480 Co472 2.074 . S
O480 C505 1.257 . S
H481 C506 0.930 1_554 S
H482 C512 0.930 . S
O483 Co472 2.093 . S
O483 C475 1.224 . S
H484 C516 0.929 . S
H485 C518 0.930 . S
H486 C519 0.930 . S
H487 C517 0.929 . S
H488 C520 0.928 . S
O489 Co473 2.057 . S
O489 C477 1.232 . S
H490 C509 0.929 . S
H491 C510 0.929 . S
H492 C522 0.931 . S
H493 C514 0.929 . S
H494 C523 0.930 . S
H495 C515 0.931 . S
O496 Co472 2.097 . S
O496 C524 1.214 . S
H497 C525 0.929 . S
H498 C526 0.929 . S
H499 C527 0.930 . S
H500 C528 0.929 . S
H501 C530 0.930 . S
H502 C507 0.930 . S
H503 C511 0.930 . S
O504 Co473 2.037 . S
O504 C524 1.234 . S
C505 O479 1.269 . S
C505 O480 1.257 . S
C506 H481 0.930 1_556 S
C506 C509 1.388 . S
C506 C511 1.418 1_556 S
C507 H502 0.930 . S
C507 C510 1.404 1_554 S
C507 C511 1.353 . S
N508 Co473 2.145 . S
N508 C509 1.397 . S
N508 C510 1.334 . S
C509 H490 0.929 . S
C509 C506 1.388 . S
C509 N508 1.397 . S
C510 H491 0.929 . S
C510 C507 1.404 1_556 S
C510 N508 1.334 . S
C511 H503 0.930 . S
C511 C506 1.418 1_554 S
C511 C507 1.353 . S
C512 H482 0.930 . S
C512 N513 1.330 . S
C512 C514 1.446 . S
N513 Co472 2.151 . S
N513 C512 1.330 . S
N513 C517 1.418 . S
C514 H493 0.929 . S
C514 C512 1.446 . S
C514 C515 1.332 . S
C515 H495 0.931 . S
C515 C514 1.332 . S
C515 C516 1.267 . S
C516 H484 0.929 . S
C516 C515 1.267 . S
C516 C517 1.251 . S
C517 H487 0.929 . S
C517 N513 1.418 . S
C517 C516 1.251 . S
C518 H485 0.930 . S
C518 C520 1.406 . S
C518 C523 1.261 . S
C519 H486 0.930 . S
C519 N521 1.325 . S
C519 C522 1.357 . S
C520 H488 0.928 . S
C520 C518 1.406 . S
C520 N521 1.261 . S
N521 Co472 2.214 . S
N521 C519 1.325 . S
N521 C520 1.261 . S
C522 H492 0.931 . S
C522 C519 1.357 . S
C522 C523 1.312 . S
C523 H494 0.930 . S
C523 C518 1.261 . S
C523 C522 1.312 . S
C524 O496 1.214 . S
C524 O504 1.234 . S
C525 H497 0.929 . S
C525 C528 1.391 . S
C525 C530 1.391 . S
C526 H498 0.929 . S
C526 C527 1.390 . S
C526 N529 1.391 . S
C527 H499 0.930 . S
C527 C526 1.390 . S
C527 C528 1.392 . S
C528 H500 0.929 . S
C528 C525 1.391 . S
C528 C527 1.392 . S
N529 Co473 2.257 . S
N529 C526 1.391 . S
N529 C530 1.388 . S
C530 H501 0.930 . S
C530 C525 1.391 . S
C530 N529 1.388 . S
Co531 O533 2.143 1_456 S
Co531 O539 2.074 . S
Co531 O542 2.093 . S
Co531 O555 2.097 . S
Co531 N572 2.151 1_455 S
Co531 N580 2.214 . S
Co532 O533 2.160 1_455 S
Co532 O538 2.058 1_454 S
Co532 O548 2.057 1_455 S
Co532 O563 2.037 . S
Co532 N567 2.145 . S
Co532 N588 2.257 . S
O533 Co531 2.143 1_654 S
O533 Co532 2.160 1_655 S
C534 O535 1.278 . S
C534 O542 1.224 1_654 S
O535 C534 1.278 . S
C536 O537 1.245 . S
C536 O548 1.232 . S
O537 C536 1.245 . S
O538 Co532 2.058 1_656 S
O538 C564 1.269 . S
O539 Co531 2.074 . S
O539 C564 1.257 1_455 S
H540 C565 0.930 . S
H541 C571 0.930 . S
O542 Co531 2.093 . S
O542 C534 1.224 1_456 S
H543 C575 0.929 . S
H544 C577 0.930 . S
H545 C578 0.930 . S
H546 C576 0.929 . S
H547 C579 0.928 . S
O548 Co532 2.057 1_655 S
O548 C536 1.232 . S
H549 C568 0.929 1_556 S
H550 C569 0.929 1_655 S
H551 C581 0.931 . S
H552 C573 0.929 . S
H553 C582 0.930 . S
H554 C574 0.931 . S
O555 Co531 2.097 . S
O555 C583 1.214 . S
H556 C584 0.929 . S
H557 C585 0.929 . S
H558 C586 0.930 . S
H559 C587 0.929 . S
H560 C589 0.930 1_655 S
H561 C566 0.930 . S
H562 C570 0.930 . S
O563 Co532 2.037 . S
O563 C583 1.234 1_554 S
C564 O538 1.269 . S
C564 O539 1.257 1_655 S
C565 H540 0.930 . S
C565 C568 1.388 . S
C565 C570 1.418 . S
C566 H561 0.930 . S
C566 C569 1.404 . S
C566 C570 1.353 . S
N567 Co532 2.145 . S
N567 C568 1.397 . S
N567 C569 1.334 . S
C568 H549 0.929 1_554 S
C568 C565 1.388 . S
C568 N567 1.397 . S
C569 H550 0.929 1_455 S
C569 C566 1.404 . S
C569 N567 1.334 . S
C570 H562 0.930 . S
C570 C565 1.418 . S
C570 C566 1.353 . S
C571 H541 0.930 . S
C571 N572 1.330 . S
C571 C573 1.446 . S
N572 Co531 2.151 1_655 S
N572 C571 1.330 . S
N572 C576 1.418 . S
C573 H552 0.929 . S
C573 C571 1.446 . S
C573 C574 1.332 . S
C574 H554 0.931 . S
C574 C573 1.332 . S
C574 C575 1.267 . S
C575 H543 0.929 . S
C575 C574 1.267 . S
C575 C576 1.251 . S
C576 H546 0.929 . S
C576 N572 1.418 . S
C576 C575 1.251 . S
C577 H544 0.930 . S
C577 C579 1.406 . S
C577 C582 1.261 . S
C578 H545 0.930 . S
C578 N580 1.325 . S
C578 C581 1.357 . S
C579 H547 0.928 . S
C579 C577 1.406 . S
C579 N580 1.261 . S
N580 Co531 2.214 . S
N580 C578 1.325 . S
N580 C579 1.261 . S
C581 H551 0.931 . S
C581 C578 1.357 . S
C581 C582 1.312 . S
C582 H553 0.930 . S
C582 C577 1.261 . S
C582 C581 1.312 . S
C583 O555 1.214 . S
C583 O563 1.234 1_556 S
C584 H556 0.929 . S
C584 C587 1.391 . S
C584 C589 1.391 . S
C585 H557 0.929 . S
C585 C586 1.390 . S
C585 N588 1.391 . S
C586 H558 0.930 . S
C586 C585 1.390 . S
C586 C587 1.392 . S
C587 H559 0.929 . S
C587 C584 1.391 . S
C587 C586 1.392 . S
N588 Co532 2.257 . S
N588 C585 1.391 . S
N588 C589 1.388 . S
C589 H560 0.930 1_455 S
C589 C584 1.391 . S
C589 N588 1.388 . S
Co590 O592 2.143 . S
Co590 O598 2.074 . S
Co590 O601 2.093 . S
Co590 O614 2.097 . S
Co590 N631 2.151 . S
Co590 N639 2.214 . S
Co591 O592 2.160 . S
Co591 O597 2.058 . S
Co591 O607 2.057 . S
Co591 O622 2.037 . S
Co591 N626 2.145 . S
Co591 N647 2.257 . S
O592 Co590 2.143 . S
O592 Co591 2.160 . S
C593 O594 1.278 . S
C593 O601 1.224 . S
O594 C593 1.278 . S
C595 O596 1.245 . S
C595 O607 1.232 . S
O596 C595 1.245 . S
O597 Co591 2.058 . S
O597 C623 1.269 . S
O598 Co590 2.074 . S
O598 C623 1.257 . S
H599 C624 0.930 . S
H600 C630 0.930 . S
O601 Co590 2.093 . S
O601 C593 1.224 . S
H602 C634 0.929 1_545 S
H603 C636 0.930 . S
H604 C637 0.930 . S
H605 C635 0.929 . S
H606 C638 0.928 . S
O607 Co591 2.057 . S
O607 C595 1.232 . S
H608 C627 0.929 . S
H609 C628 0.929 . S
H610 C640 0.931 . S
H611 C632 0.929 . S
H612 C641 0.930 1_545 S
H613 C633 0.939 . S
O614 Co590 2.097 . S
O614 C642 1.214 . S
H615 C643 0.929 . S
H616 C644 0.929 . S
H617 C645 0.930 . S
H618 C646 0.929 . S
H619 C648 0.930 . S
H620 C625 0.930 . S
H621 C629 0.930 . S
O622 Co591 2.037 . S
O622 C642 1.234 . S
C623 O597 1.269 . S
C623 O598 1.257 . S
C624 H599 0.930 . S
C624 C627 1.388 . S
C624 C629 1.418 . S
C625 H620 0.930 . S
C625 C628 1.404 . S
C625 C629 1.353 . S
N626 Co591 2.145 . S
N626 C627 1.397 . S
N626 C628 1.334 . S
C627 H608 0.929 . S
C627 C624 1.388 . S
C627 N626 1.397 . S
C628 H609 0.929 . S
C628 C625 1.404 . S
C628 N626 1.334 . S
C629 H621 0.930 . S
C629 C624 1.418 . S
C629 C625 1.353 . S
C630 H600 0.930 . S
C630 N631 1.330 . S
C630 C632 1.446 . S
N631 Co590 2.151 . S
N631 C630 1.330 . S
N631 C635 1.418 . S
C632 H611 0.929 . S
C632 C630 1.446 . S
C632 C633 1.332 . S
C633 H613 0.939 . S
C633 C632 1.332 . S
C633 C634 1.267 . S
C634 H602 0.929 1_565 S
C634 C633 1.267 . S
C634 C635 1.251 . S
C635 H605 0.929 . S
C635 N631 1.418 . S
C635 C634 1.251 . S
C636 H603 0.930 . S
C636 C638 1.406 . S
C636 C641 1.261 . S
C637 H604 0.930 . S
C637 N639 1.325 . S
C637 C640 1.357 . S
C638 H606 0.928 . S
C638 C636 1.406 . S
C638 N639 1.261 . S
N639 Co590 2.214 . S
N639 C637 1.325 . S
N639 C638 1.261 . S
C640 H610 0.931 . S
C640 C637 1.357 . S
C640 C641 1.312 . S
C641 H612 0.930 1_565 S
C641 C636 1.261 . S
C641 C640 1.312 . S
C642 O614 1.214 . S
C642 O622 1.234 . S
C643 H615 0.929 . S
C643 C646 1.391 . S
C643 C648 1.391 . S
C644 H616 0.929 . S
C644 C645 1.390 . S
C644 N647 1.391 . S
C645 H617 0.930 . S
C645 C644 1.390 . S
C645 C646 1.392 . S
C646 H618 0.929 . S
C646 C643 1.391 . S
C646 C645 1.392 . S
N647 Co591 2.257 . S
N647 C644 1.391 . S
N647 C648 1.388 . S
C648 H619 0.930 . S
C648 C643 1.391 . S
C648 N647 1.388 . S
Co649 O651 2.143 . S
Co649 O657 2.074 . S
Co649 O660 2.093 . S
Co649 O673 2.097 . S
Co649 N690 2.151 . S
Co649 N698 2.214 . S
Co650 O651 2.160 1_655 S
Co650 O656 2.058 1_655 S
Co650 O666 2.057 . S
Co650 O681 2.037 1_655 S
Co650 N685 2.145 . S
Co650 N706 2.257 . S
O651 Co649 2.143 . S
O651 Co650 2.160 1_455 S
C652 O653 1.278 . S
C652 O660 1.224 1_655 S
O653 C652 1.278 . S
C654 O655 1.245 1_655 S
C654 O666 1.232 . S
O655 C654 1.245 1_455 S
O656 Co650 2.058 1_455 S
O656 C682 1.269 . S
O657 Co649 2.074 . S
O657 C682 1.257 . S
H658 C683 0.930 . S
H659 C689 0.930 . S
O660 Co649 2.093 . S
O660 C652 1.224 1_455 S
H661 C693 0.929 . S
H662 C695 0.930 . S
H663 C696 0.930 . S
H664 C694 0.929 . S
H665 C697 0.928 . S
O666 Co650 2.057 . S
O666 C654 1.232 . S
H667 C686 0.929 1_455 S
H668 C687 0.929 . S
H669 C699 0.931 . S
H670 C691 0.929 . S
H671 C700 0.930 . S
H672 C692 0.931 . S
O673 Co649 2.097 . S
O673 C701 1.214 . S
H674 C702 0.929 . S
H675 C703 0.929 . S
H676 C704 0.930 . S
H677 C705 0.929 . S
H678 C707 0.930 . S
H679 C684 0.930 . S
H680 C688 0.930 . S
O681 Co650 2.037 1_455 S
O681 C701 1.234 . S
C682 O656 1.269 . S
C682 O657 1.257 . S
C683 H658 0.930 . S
C683 C686 1.388 . S
C683 C688 1.418 . S
C684 H679 0.930 . S
C684 C687 1.404 . S
C684 C688 1.353 . S
N685 Co650 2.145 . S
N685 C686 1.397 . S
N685 C687 1.334 . S
C686 H667 0.929 1_655 S
C686 C683 1.388 . S
C686 N685 1.397 . S
C687 H668 0.929 . S
C687 C684 1.404 . S
C687 N685 1.334 . S
C688 H680 0.930 . S
C688 C683 1.418 . S
C688 C684 1.353 . S
C689 H659 0.930 . S
C689 N690 1.330 . S
C689 C691 1.446 . S
N690 Co649 2.151 . S
N690 C689 1.330 . S
N690 C694 1.418 . S
C691 H670 0.929 . S
C691 C689 1.446 . S
C691 C692 1.332 . S
C692 H672 0.931 . S
C692 C691 1.332 . S
C692 C693 1.267 . S
C693 H661 0.929 . S
C693 C692 1.267 . S
C693 C694 1.251 . S
C694 H664 0.929 . S
C694 N690 1.418 . S
C694 C693 1.251 . S
C695 H662 0.930 . S
C695 C697 1.406 . S
C695 C700 1.261 . S
C696 H663 0.930 . S
C696 N698 1.325 . S
C696 C699 1.357 . S
C697 H665 0.928 . S
C697 C695 1.406 . S
C697 N698 1.261 . S
N698 Co649 2.214 . S
N698 C696 1.325 . S
N698 C697 1.261 . S
C699 H669 0.931 . S
C699 C696 1.357 . S
C699 C700 1.312 . S
C700 H671 0.930 . S
C700 C695 1.261 . S
C700 C699 1.312 . S
C701 O673 1.214 . S
C701 O681 1.234 . S
C702 H674 0.929 . S
C702 C705 1.391 . S
C702 C707 1.391 . S
C703 H675 0.929 . S
C703 C704 1.390 . S
C703 N706 1.391 . S
C704 H676 0.930 . S
C704 C703 1.390 . S
C704 C705 1.392 . S
C705 H677 0.929 . S
C705 C702 1.391 . S
C705 C704 1.392 . S
N706 Co650 2.257 . S
N706 C703 1.391 . S
N706 C707 1.388 . S
C707 H678 0.930 . S
C707 C702 1.391 . S
C707 N706 1.388 . S
Co708 O710 2.143 . S
Co708 O716 2.074 . S
Co708 O719 2.093 . S
Co708 O732 2.097 . S
Co708 N749 2.151 . S
Co708 N757 2.214 . S
Co709 O710 2.160 1_556 S
Co709 O715 2.058 1_556 S
Co709 O725 2.057 . S
Co709 O740 2.037 1_556 S
Co709 N744 2.145 . S
Co709 N765 2.257 . S
O710 Co708 2.143 . S
O710 Co709 2.160 1_554 S
C711 O712 1.278 . S
C711 O719 1.224 1_556 S
O712 C711 1.278 . S
C713 O714 1.245 . S
C713 O725 1.232 . S
O714 C713 1.245 . S
O715 Co709 2.058 1_554 S
O715 C741 1.269 . S
O716 Co708 2.074 . S
O716 C741 1.257 . S
H717 C742 0.930 1_554 S
H718 C748 0.930 . S
O719 Co708 2.093 . S
O719 C711 1.224 1_554 S
H720 C752 0.929 . S
H721 C754 0.930 . S
H722 C755 0.930 . S
H723 C753 0.929 . S
H724 C756 0.928 . S
O725 Co709 2.057 . S
O725 C713 1.232 . S
H726 C745 0.929 1_554 S
H727 C746 0.929 . S
H728 C758 0.931 . S
H729 C750 0.929 . S
H730 C759 0.930 . S
H731 C751 0.931 . S
O732 Co708 2.097 . S
O732 C760 1.214 . S
H733 C761 0.929 . S
H734 C762 0.929 . S
H735 C763 0.930 . S
H736 C764 0.929 . S
H737 C766 0.930 . S
H738 C743 0.930 . S
H739 C747 0.930 . S
O740 Co709 2.037 1_554 S
O740 C760 1.234 . S
C741 O715 1.269 . S
C741 O716 1.257 . S
C742 H717 0.930 1_556 S
C742 C745 1.388 . S
C742 C747 1.418 . S
C743 H738 0.930 . S
C743 C746 1.404 . S
C743 C747 1.353 . S
N744 Co709 2.145 . S
N744 C745 1.397 . S
N744 C746 1.334 . S
C745 H726 0.929 1_556 S
C745 C742 1.388 . S
C745 N744 1.397 . S
C746 H727 0.929 . S
C746 C743 1.404 . S
C746 N744 1.334 . S
C747 H739 0.930 . S
C747 C742 1.418 . S
C747 C743 1.353 . S
C748 H718 0.930 . S
C748 N749 1.330 . S
C748 C750 1.446 . S
N749 Co708 2.151 . S
N749 C748 1.330 . S
N749 C753 1.418 . S
C750 H729 0.929 . S
C750 C748 1.446 . S
C750 C751 1.332 . S
C751 H731 0.931 . S
C751 C750 1.332 . S
C751 C752 1.267 . S
C752 H720 0.929 . S
C752 C751 1.267 . S
C752 C753 1.251 . S
C753 H723 0.929 . S
C753 N749 1.418 . S
C753 C752 1.251 . S
C754 H721 0.930 . S
C754 C756 1.406 . S
C754 C759 1.261 . S
C755 H722 0.930 . S
C755 N757 1.325 . S
C755 C758 1.357 . S
C756 H724 0.928 . S
C756 C754 1.406 . S
C756 N757 1.261 . S
N757 Co708 2.214 . S
N757 C755 1.325 . S
N757 C756 1.261 . S
C758 H728 0.931 . S
C758 C755 1.357 . S
C758 C759 1.312 . S
C759 H730 0.930 . S
C759 C754 1.261 . S
C759 C758 1.312 . S
C760 O732 1.214 . S
C760 O740 1.234 . S
C761 H733 0.929 . S
C761 C764 1.391 . S
C761 C766 1.391 . S
C762 H734 0.929 . S
C762 C763 1.390 . S
C762 N765 1.391 . S
C763 H735 0.930 . S
C763 C762 1.390 . S
C763 C764 1.392 . S
C764 H736 0.929 . S
C764 C761 1.391 . S
C764 C763 1.392 . S
N765 Co709 2.257 . S
N765 C762 1.391 . S
N765 C766 1.388 . S
C766 H737 0.930 . S
C766 C761 1.391 . S
C766 N765 1.388 . S
Co767 O769 2.143 . S
Co767 O775 2.074 . S
Co767 O778 2.093 . S
Co767 O791 2.097 . S
Co767 N808 2.151 . S
Co767 N816 2.214 . S
Co768 O769 2.160 . S
Co768 O774 2.058 . S
Co768 O784 2.057 . S
Co768 O799 2.037 . S
Co768 N803 2.145 . S
Co768 N824 2.257 . S
O769 Co767 2.143 . S
O769 Co768 2.160 . S
C770 O771 1.278 . S
C770 O778 1.224 . S
O771 C770 1.278 . S
C772 O773 1.245 . S
C772 O784 1.232 . S
O773 C772 1.245 . S
O774 Co768 2.058 . S
O774 C800 1.269 . S
O775 Co767 2.074 . S
O775 C800 1.257 . S
H776 C801 0.930 . S
H777 C807 0.930 . S
O778 Co767 2.093 . S
O778 C770 1.224 . S
H779 C811 0.929 1_455 S
H780 C813 0.930 1_545 S
H781 C814 0.930 . S
H782 C812 0.929 . S
H783 C815 0.928 . S
O784 Co768 2.057 . S
O784 C772 1.232 . S
H785 C804 0.929 . S
H786 C805 0.929 . S
H787 C817 0.931 . S
H788 C809 0.929 . S
H789 C818 0.930 . S
H790 C810 0.931 . S
O791 Co767 2.097 . S
O791 C819 1.214 . S
H792 C820 0.929 . S
H793 C821 0.929 . S
H794 C822 0.930 . S
H795 C823 0.929 . S
H796 C825 0.930 . S
H797 C802 0.930 . S
H798 C806 0.930 . S
O799 Co768 2.037 . S
O799 C819 1.234 . S
C800 O774 1.269 . S
C800 O775 1.257 . S
C801 H776 0.930 . S
C801 C804 1.388 . S
C801 C806 1.418 . S
C802 H797 0.930 . S
C802 C805 1.404 . S
C802 C806 1.353 . S
N803 Co768 2.145 . S
N803 C804 1.397 . S
N803 C805 1.334 . S
C804 H785 0.929 . S
C804 C801 1.388 . S
C804 N803 1.397 . S
C805 H786 0.929 . S
C805 C802 1.404 . S
C805 N803 1.334 . S
C806 H798 0.930 . S
C806 C801 1.418 . S
C806 C802 1.353 . S
C807 H777 0.930 . S
C807 N808 1.330 . S
C807 C809 1.446 . S
N808 Co767 2.151 . S
N808 C807 1.330 . S
N808 C812 1.418 . S
C809 H788 0.929 . S
C809 C807 1.446 . S
C809 C810 1.332 . S
C810 H790 0.931 . S
C810 C809 1.332 . S
C810 C811 1.267 . S
C811 H779 0.929 1_655 S
C811 C810 1.267 . S
C811 C812 1.251 . S
C812 H782 0.929 . S
C812 N808 1.418 . S
C812 C811 1.251 . S
C813 H780 0.930 1_565 S
C813 C815 1.406 1_455 S
C813 C818 1.261 . S
C814 H781 0.930 . S
C814 N816 1.325 . S
C814 C817 1.357 1_655 S
C815 H783 0.928 . S
C815 C813 1.406 1_655 S
C815 N816 1.261 . S
N816 Co767 2.214 . S
N816 C814 1.325 . S
N816 C815 1.261 . S
C817 H787 0.931 . S
C817 C814 1.357 1_455 S
C817 C818 1.312 . S
C818 H789 0.930 . S
C818 C813 1.261 . S
C818 C817 1.312 . S
C819 O791 1.214 . S
C819 O799 1.234 . S
C820 H792 0.929 . S
C820 C823 1.391 . S
C820 C825 1.391 . S
C821 H793 0.929 . S
C821 C822 1.390 . S
C821 N824 1.391 . S
C822 H794 0.930 . S
C822 C821 1.390 . S
C822 C823 1.392 . S
C823 H795 0.929 . S
C823 C820 1.391 . S
C823 C822 1.392 . S
N824 Co768 2.257 . S
N824 C821 1.391 . S
N824 C825 1.388 . S
C825 H796 0.930 . S
C825 C820 1.391 . S
C825 N824 1.388 . S
Co826 O828 2.143 . S
Co826 O834 2.074 . S
Co826 O837 2.093 . S
Co826 O850 2.097 . S
Co826 N867 2.151 . S
Co826 N875 2.214 . S
Co827 O828 2.160 . S
Co827 O833 2.058 . S
Co827 O843 2.057 . S
Co827 O858 2.037 . S
Co827 N862 2.145 . S
Co827 N883 2.257 . S
O828 Co826 2.143 . S
O828 Co827 2.160 . S
C829 O830 1.278 . S
C829 O837 1.224 . S
O830 C829 1.278 . S
C831 O832 1.245 . S
C831 O843 1.232 . S
O832 C831 1.245 . S
O833 Co827 2.058 . S
O833 C859 1.269 . S
O834 Co826 2.074 . S
O834 C859 1.257 . S
H835 C860 0.930 . S
H836 C866 0.930 . S
O837 Co826 2.093 . S
O837 C829 1.224 . S
H838 C870 0.929 . S
H839 C872 0.930 1_565 S
H840 C873 0.930 . S
H841 C871 0.929 . S
H842 C874 0.928 . S
O843 Co827 2.057 . S
O843 C831 1.232 . S
H844 C863 0.929 . S
H845 C864 0.929 . S
H846 C876 0.931 . S
H847 C868 0.929 . S
H848 C877 0.930 . S
H849 C869 0.931 . S
O850 Co826 2.097 . S
O850 C878 1.214 . S
H851 C879 0.929 . S
H852 C880 0.929 . S
H853 C881 0.930 . S
H854 C882 0.929 . S
H855 C884 0.930 . S
H856 C861 0.930 . S
H857 C865 0.930 . S
O858 Co827 2.037 . S
O858 C878 1.234 . S
C859 O833 1.269 . S
C859 O834 1.257 . S
C860 H835 0.930 . S
C860 C863 1.388 . S
C860 C865 1.418 . S
C861 H856 0.930 . S
C861 C864 1.404 . S
C861 C865 1.353 . S
N862 Co827 2.145 . S
N862 C863 1.397 . S
N862 C864 1.334 . S
C863 H844 0.929 . S
C863 C860 1.388 . S
C863 N862 1.397 . S
C864 H845 0.929 . S
C864 C861 1.404 . S
C864 N862 1.334 . S
C865 H857 0.930 . S
C865 C860 1.418 . S
C865 C861 1.353 . S
C866 H836 0.930 . S
C866 N867 1.330 . S
C866 C868 1.446 . S
N867 Co826 2.151 . S
N867 C866 1.330 . S
N867 C871 1.418 . S
C868 H847 0.929 . S
C868 C866 1.446 . S
C868 C869 1.332 . S
C869 H849 0.931 . S
C869 C868 1.332 . S
C869 C870 1.267 . S
C870 H838 0.929 . S
C870 C869 1.267 . S
C870 C871 1.251 . S
C871 H841 0.929 . S
C871 N867 1.418 . S
C871 C870 1.251 . S
C872 H839 0.930 1_545 S
C872 C874 1.406 . S
C872 C877 1.261 . S
C873 H840 0.930 . S
C873 N875 1.325 . S
C873 C876 1.357 . S
C874 H842 0.928 . S
C874 C872 1.406 . S
C874 N875 1.261 . S
N875 Co826 2.214 . S
N875 C873 1.325 . S
N875 C874 1.261 . S
C876 H846 0.931 . S
C876 C873 1.357 . S
C876 C877 1.312 . S
C877 H848 0.930 . S
C877 C872 1.261 . S
C877 C876 1.312 . S
C878 O850 1.214 . S
C878 O858 1.234 . S
C879 H851 0.929 . S
C879 C882 1.391 . S
C879 C884 1.391 . S
C880 H852 0.929 . S
C880 C881 1.390 . S
C880 N883 1.391 . S
C881 H853 0.930 . S
C881 C880 1.390 . S
C881 C882 1.392 . S
C882 H854 0.929 . S
C882 C879 1.391 . S
C882 C881 1.392 . S
N883 Co827 2.257 . S
N883 C880 1.391 . S
N883 C884 1.388 . S
C884 H855 0.930 . S
C884 C879 1.391 . S
C884 N883 1.388 . S
Co885 O887 2.143 . S
Co885 O893 2.074 . S
Co885 O896 2.093 . S
Co885 O909 2.097 . S
Co885 N926 2.151 . S
Co885 N934 2.214 . S
Co886 O887 2.160 . S
Co886 O892 2.058 . S
Co886 O902 2.057 . S
Co886 O917 2.037 . S
Co886 N921 2.145 . S
Co886 N942 2.257 . S
O887 Co885 2.143 . S
O887 Co886 2.160 . S
C888 O889 1.278 . S
C888 O896 1.224 . S
O889 C888 1.278 . S
C890 O891 1.245 . S
C890 O902 1.232 . S
O891 C890 1.245 . S
O892 Co886 2.058 . S
O892 C918 1.269 . S
O893 Co885 2.074 . S
O893 C918 1.257 . S
H894 C919 0.930 . S
H895 C925 0.930 . S
O896 Co885 2.093 . S
O896 C888 1.224 . S
H897 C929 0.929 . S
H898 C931 0.930 . S
H899 C932 0.930 . S
H900 C930 0.929 . S
H901 C933 0.928 . S
O902 Co886 2.057 . S
O902 C890 1.232 . S
H903 C922 0.929 . S
H904 C923 0.929 . S
H905 C935 0.931 . S
H906 C927 0.929 . S
H907 C936 0.930 . S
H908 C928 0.931 . S
O909 Co885 2.097 . S
O909 C937 1.214 . S
H910 C938 0.929 . S
H911 C939 0.929 . S
H912 C940 0.930 . S
H913 C941 0.929 . S
H914 C943 0.930 . S
H915 C920 0.930 . S
H916 C924 0.930 . S
O917 Co886 2.037 . S
O917 C937 1.234 . S
C918 O892 1.269 . S
C918 O893 1.257 . S
C919 H894 0.930 . S
C919 C922 1.388 . S
C919 C924 1.418 . S
C920 H915 0.930 . S
C920 C923 1.404 . S
C920 C924 1.353 . S
N921 Co886 2.145 . S
N921 C922 1.397 . S
N921 C923 1.334 . S
C922 H903 0.929 . S
C922 C919 1.388 . S
C922 N921 1.397 . S
C923 H904 0.929 . S
C923 C920 1.404 . S
C923 N921 1.334 . S
C924 H916 0.930 . S
C924 C919 1.418 . S
C924 C920 1.353 . S
C925 H895 0.930 . S
C925 N926 1.330 . S
C925 C927 1.446 . S
N926 Co885 2.151 . S
N926 C925 1.330 . S
N926 C930 1.418 . S
C927 H906 0.929 . S
C927 C925 1.446 . S
C927 C928 1.332 . S
C928 H908 0.931 . S
C928 C927 1.332 . S
C928 C929 1.267 . S
C929 H897 0.929 . S
C929 C928 1.267 . S
C929 C930 1.251 . S
C930 H900 0.929 . S
C930 N926 1.418 . S
C930 C929 1.251 . S
C931 H898 0.930 . S
C931 C933 1.406 . S
C931 C936 1.261 . S
C932 H899 0.930 . S
C932 N934 1.325 . S
C932 C935 1.357 . S
C933 H901 0.928 . S
C933 C931 1.406 . S
C933 N934 1.261 . S
N934 Co885 2.214 . S
N934 C932 1.325 . S
N934 C933 1.261 . S
C935 H905 0.931 . S
C935 C932 1.357 . S
C935 C936 1.312 . S
C936 H907 0.930 . S
C936 C931 1.261 . S
C936 C935 1.312 . S
C937 O909 1.214 . S
C937 O917 1.234 . S
C938 H910 0.929 . S
C938 C941 1.391 . S
C938 C943 1.391 . S
C939 H911 0.929 . S
C939 C940 1.390 . S
C939 N942 1.391 . S
C940 H912 0.930 . S
C940 C939 1.390 . S
C940 C941 1.392 . S
C941 H913 0.929 . S
C941 C938 1.391 . S
C941 C940 1.392 . S
N942 Co886 2.257 . S
N942 C939 1.391 . S
N942 C943 1.388 . S
C943 H914 0.930 . S
C943 C938 1.391 . S
C943 N942 1.388 . S
C944 C945 1.387 . S
C944 H948 0.950 . S
C944 C953 1.390 . S
C945 C944 1.387 . S
C945 C947 1.387 . S
H946 C953 0.950 . S
C947 C945 1.387 . S
C947 C949 1.390 . S
C947 H951 0.950 . S
H948 C944 0.950 . S
C949 C947 1.390 . S
C949 C950 1.387 . S
C949 H952 0.950 . S
C950 C949 1.387 . S
C950 C953 1.387 . S
H951 C947 0.950 . S
H952 C949 0.950 . S
C953 C944 1.390 . S
C953 H946 0.950 . S
C953 C950 1.387 . S
C954 C955 1.387 . S
C954 H958 0.950 . S
C954 C963 1.390 . S
C955 C954 1.387 . S
C955 C957 1.387 . S
H956 C963 0.950 . S
C957 C955 1.387 . S
C957 C959 1.390 . S
C957 H961 0.950 . S
H958 C954 0.950 . S
C959 C957 1.390 . S
C959 C960 1.387 . S
C959 H962 0.950 . S
C960 C959 1.387 . S
C960 C963 1.387 . S
H961 C957 0.950 . S
H962 C959 0.950 . S
C963 C954 1.390 . S
C963 H956 0.950 . S
C963 C960 1.387 . S
C964 C965 1.387 . S
C964 H968 0.950 . S
C964 C973 1.390 . S
C965 C964 1.387 . S
C965 C967 1.387 . S
H966 C973 0.950 . S
C967 C965 1.387 . S
C967 C969 1.390 . S
C967 H971 0.950 . S
H968 C964 0.950 . S
C969 C967 1.390 . S
C969 C970 1.387 . S
C969 H972 0.950 . S
C970 C969 1.387 . S
C970 C973 1.387 . S
H971 C967 0.950 . S
H972 C969 0.950 . S
C973 C964 1.390 . S
C973 H966 0.950 . S
C973 C970 1.387 . S
C974 C975 1.387 . S
C974 H978 0.950 . S
C974 C983 1.390 . S
C975 C974 1.387 . S
C975 C977 1.387 . S
H976 C983 0.950 . S
C977 C975 1.387 . S
C977 C979 1.390 . S
C977 H981 0.950 . S
H978 C974 0.950 . S
C979 C977 1.390 . S
C979 C980 1.387 . S
C979 H982 0.950 . S
C980 C979 1.387 . S
C980 C983 1.387 . S
H981 C977 0.950 . S
H982 C979 0.950 . S
C983 C974 1.390 . S
C983 H976 0.950 . S
C983 C980 1.387 . S
C984 C985 1.387 . S
C984 H988 0.950 . S
C984 C993 1.390 . S
C985 C984 1.387 . S
C985 C987 1.387 . S
H986 C993 0.950 . S
C987 C985 1.387 . S
C987 C989 1.390 . S
C987 H991 0.950 . S
H988 C984 0.950 . S
C989 C987 1.390 . S
C989 C990 1.387 . S
C989 H992 0.950 . S
C990 C989 1.387 . S
C990 C993 1.387 . S
H991 C987 0.950 . S
H992 C989 0.950 . S
C993 C984 1.390 . S
C993 H986 0.950 . S
C993 C990 1.387 . S
C994 C995 1.387 . S
C994 H998 0.950 . S
C994 C1003 1.390 . S
C995 C994 1.387 . S
C995 C997 1.387 . S
H996 C1003 0.950 . S
C997 C995 1.387 . S
C997 C999 1.390 . S
C997 H1001 0.950 . S
H998 C994 0.950 . S
C999 C997 1.390 . S
C999 C1000 1.387 . S
C999 H1002 0.950 . S
C1000 C999 1.387 . S
C1000 C1003 1.387 . S
H1001 C997 0.950 . S
H1002 C999 0.950 . S
C1003 C994 1.390 . S
C1003 H996 0.950 . S
C1003 C1000 1.387 . S
C1004 C1005 1.387 . S
C1004 H1008 0.950 . S
C1004 C1013 1.390 . S
C1005 C1004 1.387 . S
C1005 C1007 1.387 . S
H1006 C1013 0.950 . S
C1007 C1005 1.387 . S
C1007 C1009 1.390 . S
C1007 H1011 0.950 . S
H1008 C1004 0.950 . S
C1009 C1007 1.390 . S
C1009 C1010 1.387 . S
C1009 H1012 0.950 . S
C1010 C1009 1.387 . S
C1010 C1013 1.387 . S
H1011 C1007 0.950 . S
H1012 C1009 0.950 . S
C1013 C1004 1.390 . S
C1013 H1006 0.950 . S
C1013 C1010 1.387 . S
C1014 C1015 1.387 . S
C1014 H1018 0.950 . S
C1014 C1023 1.390 . S
C1015 C1014 1.387 . S
C1015 C1017 1.387 . S
H1016 C1023 0.950 . S
C1017 C1015 1.387 . S
C1017 C1019 1.390 . S
C1017 H1021 0.950 . S
H1018 C1014 0.950 . S
C1019 C1017 1.390 . S
C1019 C1020 1.387 . S
C1019 H1022 0.950 . S
C1020 C1019 1.387 . S
C1020 C1023 1.387 . S
H1021 C1017 0.950 . S
H1022 C1019 0.950 . S
C1023 C1014 1.390 . S
C1023 H1016 0.950 . S
C1023 C1020 1.387 . S
C1024 C1025 1.387 . S
C1024 H1028 0.950 . S
C1024 C1033 1.390 . S
C1025 C1024 1.387 . S
C1025 C1027 1.387 . S
H1026 C1033 0.950 . S
C1027 C1025 1.387 . S
C1027 C1029 1.390 . S
C1027 H1031 0.950 . S
H1028 C1024 0.950 . S
C1029 C1027 1.390 . S
C1029 C1030 1.387 . S
C1029 H1032 0.950 . S
C1030 C1029 1.387 . S
C1030 C1033 1.387 . S
H1031 C1027 0.950 . S
H1032 C1029 0.950 . S
C1033 C1024 1.390 . S
C1033 H1026 0.950 . S
C1033 C1030 1.387 . S
C1034 C1035 1.387 1_455 S
C1034 H1038 0.950 . S
C1034 C1043 1.390 . S
C1035 C1034 1.387 1_655 S
C1035 C1037 1.387 1_545 S
H1036 C1043 0.950 . S
C1037 C1035 1.387 1_565 S
C1037 C1039 1.390 . S
C1037 H1041 0.950 . S
H1038 C1034 0.950 . S
C1039 C1037 1.390 . S
C1039 C1040 1.387 . S
C1039 H1042 0.950 . S
C1040 C1039 1.387 . S
C1040 C1043 1.387 1_665 S
H1041 C1037 0.950 . S
H1042 C1039 0.950 . S
C1043 C1034 1.390 . S
C1043 H1036 0.950 . S
C1043 C1040 1.387 1_445 S
C1044 C1045 1.387 1_554 S
C1044 H1048 0.950 1_554 S
C1044 C1053 1.390 . S
C1045 C1044 1.387 1_556 S
C1045 C1047 1.387 1_556 S
H1046 C1053 0.950 . S
C1047 C1045 1.387 1_554 S
C1047 C1049 1.390 . S
C1047 H1051 0.950 . S
H1048 C1044 0.950 1_556 S
C1049 C1047 1.390 . S
C1049 C1050 1.387 . S
C1049 H1052 0.950 . S
C1050 C1049 1.387 . S
C1050 C1053 1.387 . S
H1051 C1047 0.950 . S
H1052 C1049 0.950 . S
C1053 C1044 1.390 . S
C1053 H1046 0.950 . S
C1053 C1050 1.387 . S
C1054 C1055 1.387 . S
C1054 H1058 0.950 . S
C1054 C1063 1.390 . S
C1055 C1054 1.387 . S
C1055 C1057 1.387 . S
H1056 C1063 0.950 . S
C1057 C1055 1.387 . S
C1057 C1059 1.390 . S
C1057 H1061 0.950 . S
H1058 C1054 0.950 . S
C1059 C1057 1.390 . S
C1059 C1060 1.387 . S
C1059 H1062 0.950 . S
C1060 C1059 1.387 . S
C1060 C1063 1.387 . S
H1061 C1057 0.950 . S
H1062 C1059 0.950 . S
C1063 C1054 1.390 . S
C1063 H1056 0.950 . S
C1063 C1060 1.387 . S
C1064 C1065 1.387 . S
C1064 H1068 0.950 . S
C1064 C1073 1.390 . S
C1065 C1064 1.387 . S
C1065 C1067 1.387 . S
H1066 C1073 0.950 . S
C1067 C1065 1.387 . S
C1067 C1069 1.390 . S
C1067 H1071 0.950 . S
H1068 C1064 0.950 . S
C1069 C1067 1.390 . S
C1069 C1070 1.387 . S
C1069 H1072 0.950 . S
C1070 C1069 1.387 . S
C1070 C1073 1.387 . S
H1071 C1067 0.950 . S
H1072 C1069 0.950 . S
C1073 C1064 1.390 . S
C1073 H1066 0.950 . S
C1073 C1070 1.387 . S
C1074 C1075 1.387 . S
C1074 H1078 0.950 . S
C1074 C1083 1.390 . S
C1075 C1074 1.387 . S
C1075 C1077 1.387 1_455 S
H1076 C1083 0.950 . S
C1077 C1075 1.387 1_655 S
C1077 C1079 1.390 . S
C1077 H1081 0.950 . S
H1078 C1074 0.950 . S
C1079 C1077 1.390 . S
C1079 C1080 1.387 1_655 S
C1079 H1082 0.950 . S
C1080 C1079 1.387 1_455 S
C1080 C1083 1.387 . S
H1081 C1077 0.950 . S
H1082 C1079 0.950 . S
C1083 C1074 1.390 . S
C1083 H1076 0.950 . S
C1083 C1080 1.387 . S
C1084 C1085 1.387 . S
C1084 H1088 0.950 . S
C1084 C1093 1.390 1_655 S
C1085 C1084 1.387 . S
C1085 C1087 1.387 . S
H1086 C1093 0.950 . S
C1087 C1085 1.387 . S
C1087 C1089 1.390 1_655 S
C1087 H1091 0.950 . S
H1088 C1084 0.950 . S
C1089 C1087 1.390 1_455 S
C1089 C1090 1.387 . S
C1089 H1092 0.950 . S
C1090 C1089 1.387 . S
C1090 C1093 1.387 . S
H1091 C1087 0.950 . S
H1092 C1089 0.950 . S
C1093 C1084 1.390 1_455 S
C1093 H1086 0.950 . S
C1093 C1090 1.387 . S
C1094 C1095 1.387 . S
C1094 H1098 0.950 . S
C1094 C1103 1.390 . S
C1095 C1094 1.387 . S
C1095 C1097 1.387 . S
H1096 C1103 0.950 . S
C1097 C1095 1.387 . S
C1097 C1099 1.390 . S
C1097 H1101 0.950 . S
H1098 C1094 0.950 . S
C1099 C1097 1.390 . S
C1099 C1100 1.387 . S
C1099 H1102 0.946 1_556 S
C1100 C1099 1.387 . S
C1100 C1103 1.387 . S
H1101 C1097 0.950 . S
H1102 C1099 0.946 1_554 S
C1103 C1094 1.390 . S
C1103 H1096 0.950 . S
C1103 C1100 1.387 . S
C1104 C1105 1.387 . S
C1104 H1108 0.950 . S
C1104 C1113 1.390 . S
C1105 C1104 1.387 . S
C1105 C1107 1.387 . S
H1106 C1113 0.950 . S
C1107 C1105 1.387 . S
C1107 C1109 1.390 . S
C1107 H1111 0.950 . S
H1108 C1104 0.950 . S
C1109 C1107 1.390 . S
C1109 C1110 1.387 . S
C1109 H1112 0.950 . S
C1110 C1109 1.387 . S
C1110 C1113 1.387 . S
H1111 C1107 0.950 . S
H1112 C1109 0.950 . S
C1113 C1104 1.390 . S
C1113 H1106 0.950 . S
C1113 C1110 1.387 . S
C1114 C1115 1.387 . S
C1114 H1118 0.950 . S
C1114 C1123 1.390 . S
C1115 C1114 1.387 . S
C1115 C1117 1.387 . S
H1116 C1123 0.950 . S
C1117 C1115 1.387 . S
C1117 C1119 1.390 . S
C1117 H1121 0.950 . S
H1118 C1114 0.950 . S
C1119 C1117 1.390 . S
C1119 C1120 1.387 . S
C1119 H1122 0.950 . S
C1120 C1119 1.387 . S
C1120 C1123 1.387 . S
H1121 C1117 0.950 . S
H1122 C1119 0.950 . S
C1123 C1114 1.390 . S
C1123 H1116 0.950 . S
C1123 C1120 1.387 . S
C1124 C1125 1.387 . S
C1124 H1128 0.950 . S
C1124 C1133 1.390 . S
C1125 C1124 1.387 . S
C1125 C1127 1.387 . S
H1126 C1133 0.950 . S
C1127 C1125 1.387 . S
C1127 C1129 1.390 . S
C1127 H1131 0.950 . S
H1128 C1124 0.950 . S
C1129 C1127 1.390 . S
C1129 C1130 1.387 1_455 S
C1129 H1132 0.950 1_455 S
C1130 C1129 1.387 1_655 S
C1130 C1133 1.387 1_655 S
H1131 C1127 0.950 . S
H1132 C1129 0.950 1_655 S
C1133 C1124 1.390 . S
C1133 H1126 0.950 . S
C1133 C1130 1.387 1_455 S
C1134 C1135 1.387 1_455 S
C1134 H1138 0.950 . S
C1134 C1143 1.390 . S
C1135 C1134 1.387 1_655 S
C1135 C1137 1.387 . S
H1136 C1143 0.950 . S
C1137 C1135 1.387 . S
C1137 C1139 1.390 . S
C1137 H1141 0.950 . S
H1138 C1134 0.950 . S
C1139 C1137 1.390 . S
C1139 C1140 1.387 . S
C1139 H1142 0.950 . S
C1140 C1139 1.387 . S
C1140 C1143 1.387 1_655 S
H1141 C1137 0.950 . S
H1142 C1139 0.950 . S
C1143 C1134 1.390 . S
C1143 H1136 0.950 . S
C1143 C1140 1.387 1_455 S
C1144 C1145 1.387 . S
C1144 H1148 0.950 . S
C1144 C1153 1.390 . S
C1145 C1144 1.387 . S
C1145 C1147 1.387 . S
H1146 C1153 0.950 . S
C1147 C1145 1.387 . S
C1147 C1149 1.390 . S
C1147 H1151 0.950 . S
H1148 C1144 0.950 . S
C1149 C1147 1.390 . S
C1149 C1150 1.387 . S
C1149 H1152 0.950 . S
C1150 C1149 1.387 . S
C1150 C1153 1.387 . S
H1151 C1147 0.950 . S
H1152 C1149 0.950 . S
C1153 C1144 1.390 . S
C1153 H1146 0.950 . S
C1153 C1150 1.387 . S
C1154 C1155 1.387 . S
C1154 H1158 0.950 . S
C1154 C1163 1.390 . S
C1155 C1154 1.387 . S
C1155 C1157 1.387 . S
H1156 C1163 0.950 1_565 S
C1157 C1155 1.387 . S
C1157 C1159 1.390 . S
C1157 H1161 0.950 . S
H1158 C1154 0.950 . S
C1159 C1157 1.390 . S
C1159 C1160 1.387 1_545 S
C1159 H1162 0.950 1_545 S
C1160 C1159 1.387 1_565 S
C1160 C1163 1.387 1_565 S
H1161 C1157 0.950 . S
H1162 C1159 0.950 1_565 S
C1163 C1154 1.390 . S
C1163 H1156 0.950 1_545 S
C1163 C1160 1.387 1_545 S
C1164 C1165 1.387 . S
C1164 H1168 0.950 . S
C1164 C1173 1.390 . S
C1165 C1164 1.387 . S
C1165 C1167 1.387 1_554 S
H1166 C1173 0.950 . S
C1167 C1165 1.387 1_556 S
C1167 C1169 1.390 . S
C1167 H1171 0.950 . S
H1168 C1164 0.950 . S
C1169 C1167 1.390 . S
C1169 C1170 1.387 . S
C1169 H1172 0.950 . S
C1170 C1169 1.387 . S
C1170 C1173 1.387 1_556 S
H1171 C1167 0.950 . S
H1172 C1169 0.950 . S
C1173 C1164 1.390 . S
C1173 H1166 0.950 . S
C1173 C1170 1.387 1_554 S
C1174 C1175 1.387 . S
C1174 H1178 0.950 . S
C1174 C1183 1.390 1_545 S
C1175 C1174 1.387 . S
C1175 C1177 1.387 . S
H1176 C1183 0.950 . S
C1177 C1175 1.387 . S
C1177 C1179 1.390 1_545 S
C1177 H1181 0.950 . S
H1178 C1174 0.950 . S
C1179 C1177 1.390 1_565 S
C1179 C1180 1.387 . S
C1179 H1182 0.950 . S
C1180 C1179 1.387 . S
C1180 C1183 1.387 . S
H1181 C1177 0.950 . S
H1182 C1179 0.950 . S
C1183 C1174 1.390 1_565 S
C1183 H1176 0.950 . S
C1183 C1180 1.387 . S
C1184 C1185 1.387 . S
C1184 H1188 0.950 1_556 S
C1184 C1193 1.390 . S
C1185 C1184 1.387 . S
C1185 C1187 1.387 . S
H1186 C1193 0.950 1_554 S
C1187 C1185 1.387 . S
C1187 C1189 1.390 . S
C1187 H1191 0.950 . S
H1188 C1184 0.950 1_554 S
C1189 C1187 1.390 . S
C1189 C1190 1.387 . S
C1189 H1192 0.950 . S
C1190 C1189 1.387 . S
C1190 C1193 1.387 . S
H1191 C1187 0.950 . S
H1192 C1189 0.950 . S
C1193 C1184 1.390 . S
C1193 H1186 0.950 1_556 S
C1193 C1190 1.387 . S
C1194 C1195 1.387 . S
C1194 H1198 0.950 . S
C1194 C1203 1.390 . S
C1195 C1194 1.387 . S
C1195 C1197 1.387 . S
H1196 C1203 0.950 . S
C1197 C1195 1.387 . S
C1197 C1199 1.390 . S
C1197 H1201 0.950 . S
H1198 C1194 0.950 . S
C1199 C1197 1.390 . S
C1199 C1200 1.387 . S
C1199 H1202 0.950 . S
C1200 C1199 1.387 . S
C1200 C1203 1.387 . S
H1201 C1197 0.950 . S
H1202 C1199 0.950 . S
C1203 C1194 1.390 . S
C1203 H1196 0.950 . S
C1203 C1200 1.387 . S
C1204 C1205 1.387 . S
C1204 H1208 0.950 . S
C1204 C1213 1.390 . S
C1205 C1204 1.387 . S
C1205 C1207 1.387 . S
H1206 C1213 0.950 . S
C1207 C1205 1.387 . S
C1207 C1209 1.390 . S
C1207 H1211 0.950 . S
H1208 C1204 0.950 . S
C1209 C1207 1.390 . S
C1209 C1210 1.387 . S
C1209 H1212 0.950 . S
C1210 C1209 1.387 . S
C1210 C1213 1.387 . S
H1211 C1207 0.950 . S
H1212 C1209 0.950 . S
C1213 C1204 1.390 . S
C1213 H1206 0.950 . S
C1213 C1210 1.387 . S
C1214 C1215 1.387 1_554 S
C1214 H1218 0.957 . S
C1214 C1223 1.390 . S
C1215 C1214 1.387 1_556 S
C1215 C1217 1.387 1_556 S
H1216 C1223 0.950 . S
C1217 C1215 1.387 1_554 S
C1217 C1219 1.390 . S
C1217 H1221 0.950 1_554 S
H1218 C1214 0.957 . S
C1219 C1217 1.390 . S
C1219 C1220 1.387 . S
C1219 H1222 0.950 . S
C1220 C1219 1.387 . S
C1220 C1223 1.387 . S
H1221 C1217 0.950 1_556 S
H1222 C1219 0.950 . S
C1223 C1214 1.390 . S
C1223 H1216 0.950 . S
C1223 C1220 1.387 . S
C1224 C1225 1.387 . S
C1224 H1228 0.950 . S
C1224 C1233 1.390 . S
C1225 C1224 1.387 . S
C1225 C1227 1.387 . S
H1226 C1233 0.950 . S
C1227 C1225 1.387 . S
C1227 C1229 1.390 . S
C1227 H1231 0.950 . S
H1228 C1224 0.950 . S
C1229 C1227 1.390 . S
C1229 C1230 1.387 . S
C1229 H1232 0.950 . S
C1230 C1229 1.387 . S
C1230 C1233 1.387 . S
H1231 C1227 0.950 . S
H1232 C1229 0.950 . S
C1233 C1224 1.390 . S
C1233 H1226 0.950 . S
C1233 C1230 1.387 . S
C1234 C1235 1.387 . S
C1234 H1238 0.950 . S
C1234 C1243 1.390 . S
C1235 C1234 1.387 . S
C1235 C1237 1.387 . S
H1236 C1243 0.950 . S
C1237 C1235 1.387 . S
C1237 C1239 1.390 . S
C1237 H1241 0.950 . S
H1238 C1234 0.950 . S
C1239 C1237 1.390 . S
C1239 C1240 1.387 . S
C1239 H1242 0.950 . S
C1240 C1239 1.387 . S
C1240 C1243 1.387 . S
H1241 C1237 0.950 . S
H1242 C1239 0.950 . S
C1243 C1234 1.390 . S
C1243 H1236 0.950 . S
C1243 C1240 1.387 . S
C1244 C1245 1.387 1_455 S
C1244 H1248 0.950 . S
C1244 C1253 1.390 . S
C1245 C1244 1.387 1_655 S
C1245 C1247 1.387 . S
H1246 C1253 0.950 . S
C1247 C1245 1.387 . S
C1247 C1249 1.390 . S
C1247 H1251 0.950 . S
H1248 C1244 0.950 . S
C1249 C1247 1.390 . S
C1249 C1250 1.387 . S
C1249 H1252 0.950 . S
C1250 C1249 1.387 . S
C1250 C1253 1.387 1_655 S
H1251 C1247 0.950 . S
H1252 C1249 0.950 . S
C1253 C1244 1.390 . S
C1253 H1246 0.950 . S
C1253 C1250 1.387 1_455 S
C1254 C1255 1.387 . S
C1254 H1258 0.950 . S
C1254 C1263 1.390 . S
C1255 C1254 1.387 . S
C1255 C1257 1.387 1_545 S
H1256 C1263 0.950 . S
C1257 C1255 1.387 1_565 S
C1257 C1259 1.390 . S
C1257 H1261 0.950 . S
H1258 C1254 0.950 . S
C1259 C1257 1.390 . S
C1259 C1260 1.387 1_565 S
C1259 H1262 0.950 . S
C1260 C1259 1.387 1_545 S
C1260 C1263 1.387 . S
H1261 C1257 0.950 . S
H1262 C1259 0.950 . S
C1263 C1254 1.390 . S
C1263 H1256 0.950 . S
C1263 C1260 1.387 . S
C945 C5 1.736 . S
C950 C418 1.724 . S
C955 C64 1.805 . S
C960 C241 1.806 . S
C965 C300 1.683 . S
C970 C123 1.712 . S
C975 C182 1.897 . S
C980 C359 1.850 . S
C985 C477 1.806 . S
C990 C713 1.805 . S
C995 C536 1.682 . S
C1000 C831 1.713 . S
C1005 C654 1.898 . S
C1010 C595 1.849 . S
C1015 C890 1.724 . S
C1020 C772 1.737 . S
C1025 C52 1.272 . S
C1030 C357 1.220 . S
C1035 C446 1.755 . S
C1040 C92 1.769 . S
C1045 C170 1.224 . S
C1050 C239 1.164 . S
C1055 C328 1.841 . S
C1060 C180 1.844 . S
C1065 C33 1.417 . S
C1070 C859 1.429 . S
C1075 C701 0.919 . S
C1080 C62 0.883 1_455 S
C1085 C800 1.417 . S
C1090 C151 1.429 . S
C1095 C711 0.881 . S
C1100 C229 0.919 . S
C1105 C642 1.875 . S
C1110 C288 1.878 . S
C1115 C298 1.168 . S
C1120 C888 1.209 . S
C1125 C406 1.874 . S
C1130 C524 1.877 . S
C1135 C416 1.207 . S
C1140 C534 1.171 . S
C1145 C3 1.672 . S
C1150 C269 1.679 . S
C1155 C505 1.680 . S
C1160 C770 1.672 . S
C1165 C760 1.604 . S
C1170 C583 1.602 . S
C1175 C829 1.444 . S
C1180 C623 1.380 . S
C1185 C465 1.529 . S
C1190 C210 1.489 . S
C1195 C121 1.447 . S
C1200 C387 1.382 . S
C1205 C682 1.488 . S
C1210 C937 1.529 . S
C1215 C819 1.274 . S
C1220 C593 1.220 . S
C1225 C918 1.753 . S
C1230 C741 1.767 . S
C1235 C878 1.224 . S
C1240 C475 1.164 . S
C1245 C652 1.845 . S
C1250 C564 1.838 . S
C1255 C111 1.604 . S
C1260 C347 1.604 . S
