# Generated by pormake.
# Topology umx, (4)-cn, num edge types: 1
# Building blocks:
#     Node 0, Type 0, BuildingBlock: KUFVIS_clean_sbu_0, # of connection points: 4
#     Node 1, Type 0, BuildingBlock: KUFVIS_clean_sbu_0, # of connection points: 4
#     Node 2, Type 0, BuildingBlock: KUFVIS_clean_sbu_0, # of connection points: 4
#     Node 3, Type 0, BuildingBlock: KUFVIS_clean_sbu_0, # of connection points: 4
#     Node 4, Type 0, BuildingBlock: KUFVIS_clean_sbu_0, # of connection points: 4
#     Node 5, Type 0, BuildingBlock: KUFVIS_clean_sbu_0, # of connection points: 4
#     Node 6, Type 0, BuildingBlock: KUFVIS_clean_sbu_0, # of connection points: 4
#     Node 7, Type 0, BuildingBlock: KUFVIS_clean_sbu_0, # of connection points: 4
#     Edge 8, Type (0, 0), BuildingBlock: ZUJKAS_clean_linker_0, # of connection points: 2
#     Edge 9, Type (0, 0), BuildingBlock: ZUJKAS_clean_linker_0, # of connection points: 2
#     Edge 10, Type (0, 0), BuildingBlock: ZUJKAS_clean_linker_0, # of connection points: 2
#     Edge 11, Type (0, 0), BuildingBlock: ZUJKAS_clean_linker_0, # of connection points: 2
#     Edge 12, Type (0, 0), BuildingBlock: ZUJKAS_clean_linker_0, # of connection points: 2
#     Edge 13, Type (0, 0), BuildingBlock: ZUJKAS_clean_linker_0, # of connection points: 2
#     Edge 14, Type (0, 0), BuildingBlock: ZUJKAS_clean_linker_0, # of connection points: 2
#     Edge 15, Type (0, 0), BuildingBlock: ZUJKAS_clean_linker_0, # of connection points: 2
#     Edge 16, Type (0, 0), BuildingBlock: ZUJKAS_clean_linker_0, # of connection points: 2
#     Edge 17, Type (0, 0), BuildingBlock: ZUJKAS_clean_linker_0, # of connection points: 2
#     Edge 18, Type (0, 0), BuildingBlock: ZUJKAS_clean_linker_0, # of connection points: 2
#     Edge 19, Type (0, 0), BuildingBlock: ZUJKAS_clean_linker_0, # of connection points: 2
#     Edge 20, Type (0, 0), BuildingBlock: ZUJKAS_clean_linker_0, # of connection points: 2
#     Edge 21, Type (0, 0), BuildingBlock: ZUJKAS_clean_linker_0, # of connection points: 2
#     Edge 22, Type (0, 0), BuildingBlock: ZUJKAS_clean_linker_0, # of connection points: 2
#     Edge 23, Type (0, 0), BuildingBlock: ZUJKAS_clean_linker_0, # of connection points: 2
# Relax obj value: 0.122
# Max RMSD: 0.266
# Mean RMSD: 0.231
data_MOF--net-umx--node1-KUFVIS_clean_sbu_0--edge1-ZUJKAS_clean_linker_0
_symmetry_space_group_name_H-M    P1
_symmetry_Int_Tables_number       1
_symmetry_cell_setting            triclinic
loop_
_symmetry_equiv_pos_as_xyz
'x, y, z'
_cell_length_a     44.875862
_cell_length_b     53.943895
_cell_length_c     36.626112
_cell_angle_alpha  89.96846
_cell_angle_beta   89.983774
_cell_angle_gamma 90.026992
loop_
_atom_site_label
_atom_site_type_symbol
_atom_site_fract_x
_atom_site_fract_y
_atom_site_fract_z
_atom_type_partial_charge
Mn0 Mn 0.2066 0.45216 0.00606 0.0
Mn1 Mn 0.16294 0.41556 0.9541 0.0
C2 C 0.15933 0.46512 0.99061 0.0
C3 C 0.22397 0.46202 0.06435 0.0
C4 C 0.21405 0.4464 0.92378 0.0
O5 O 0.22728 0.41873 0.00772 0.0
O6 O 0.19356 0.39489 0.97871 0.0
C7 C 0.13373 0.3866 0.01273 0.0
N8 N 0.13166 0.40191 0.98327 0.0
C9 C 0.0781 0.4017 0.9864 0.0
C10 C 0.07965 0.38581 0.01664 0.0
C11 C 0.10759 0.3783 0.02994 0.0
C12 C 0.1049 0.40946 0.97049 0.0
H13 H 0.15517 0.38079 0.02304 0.0
C14 C 0.21763 0.3977 0.99704 0.0
O15 O 0.23929 0.46775 0.0354 0.0
O16 O 0.19898 0.45052 0.05923 0.0
N17 N 0.13204 0.43305 0.92892 0.0
C18 C 0.13441 0.44883 0.89997 0.0
C19 C 0.10846 0.45829 0.8837 0.0
C20 C 0.08037 0.4512 0.89702 0.0
C21 C 0.07848 0.43462 0.92642 0.0
C22 C 0.1051 0.42576 0.94149 0.0
H23 H 0.15591 0.45422 0.8894 0.0
O24 O 0.17894 0.48106 0.00186 0.0
O25 O 0.1678 0.44212 0.98982 0.0
O26 O 0.22084 0.45755 0.95343 0.0
O27 O 0.19401 0.42957 0.92177 0.0
C28 C 0.05123 0.42662 0.94145 0.0
C29 C 0.05104 0.4103 0.97158 0.0
H30 H 0.05953 0.37935 0.02997 0.0
H31 H 0.10897 0.36611 0.05336 0.0
H32 H 0.11011 0.47101 0.86093 0.0
H33 H 0.0604 0.45863 0.88451 0.0
H34 H 0.03029 0.43314 0.93033 0.0
H35 H 0.02994 0.40458 0.98323 0.0
Mn36 Mn 0.51069 0.18147 0.5021 0.0
Mn37 Mn 0.47677 0.23716 0.50789 0.0
C38 C 0.50147 0.19823 0.55828 0.0
C39 C 0.50625 0.1388 0.49477 0.0
C40 C 0.54238 0.23104 0.49064 0.0
O41 O 0.49502 0.18717 0.45137 0.0
O42 O 0.47054 0.22329 0.458 0.0
C43 C 0.41452 0.21934 0.50318 0.0
N44 N 0.43617 0.23188 0.52154 0.0
C45 C 0.40251 0.24147 0.57069 0.0
C46 C 0.37977 0.22881 0.55219 0.0
C47 C 0.38583 0.21766 0.51832 0.0
C48 C 0.43064 0.24254 0.55424 0.0
H49 H 0.41917 0.21064 0.47725 0.0
C50 C 0.47918 0.20476 0.43887 0.0
O51 O 0.53063 0.15034 0.48579 0.0
O52 O 0.4847 0.15208 0.50789 0.0
N53 N 0.48087 0.25318 0.55419 0.0
C54 C 0.5053 0.26463 0.5685 0.0
C55 C 0.50303 0.27675 0.6023 0.0
C56 C 0.47562 0.27723 0.6208 0.0
C57 C 0.45068 0.26565 0.60526 0.0
C58 C 0.45422 0.25409 0.57132 0.0
H59 H 0.5264 0.26443 0.55431 0.0
O60 O 0.52075 0.18048 0.55466 0.0
O61 O 0.48699 0.20485 0.52901 0.0
O62 O 0.5434 0.20742 0.49332 0.0
O63 O 0.5186 0.24378 0.49488 0.0
C64 C 0.42248 0.26502 0.62217 0.0
C65 C 0.39844 0.25286 0.60496 0.0
H66 H 0.35763 0.22743 0.5638 0.0
H67 H 0.36844 0.20776 0.50396 0.0
H68 H 0.52234 0.28572 0.61406 0.0
H69 H 0.47396 0.28666 0.6468 0.0
H70 H 0.41909 0.27371 0.6485 0.0
H71 H 0.37693 0.25234 0.61836 0.0
Mn72 Mn 0.80529 0.54904 0.01736 0.0
Mn73 Mn 0.84454 0.58728 0.96261 0.0
C74 C 0.85245 0.53792 -0.0011 0.0
C75 C 0.79088 0.53856 0.07657 0.0
C76 C 0.79425 0.55424 0.93558 0.0
O77 O 0.78285 0.58157 0.02032 0.0
O78 O 0.81352 0.60672 0.98874 0.0
C79 C 0.87396 0.61766 0.01942 0.0
N80 N 0.87594 0.60234 0.98997 0.0
C81 C 0.9295 0.60451 0.99061 0.0
C82 C 0.92803 0.62043 0.02081 0.0
C83 C 0.90014 0.62697 0.03533 0.0
C84 C 0.90266 0.59577 0.97597 0.0
H85 H 0.85256 0.62268 0.03071 0.0
C86 C 0.79053 0.60292 0.00872 0.0
O87 O 0.7747 0.53228 0.0486 0.0
O88 O 0.81501 0.55096 0.06996 0.0
N89 N 0.87557 0.57106 0.93584 0.0
C90 C 0.87316 0.55512 0.90712 0.0
C91 C 0.89907 0.54658 0.8897 0.0
C92 C 0.92715 0.5547 0.90169 0.0
C93 C 0.92904 0.57143 0.93089 0.0
C94 C 0.90246 0.5794 0.94708 0.0
H95 H 0.85166 0.5489 0.89762 0.0
O96 O 0.83424 0.52126 0.01138 0.0
O97 O 0.84275 0.5606 -0.00133 0.0
O98 O 0.78921 0.54306 0.96573 0.0
O99 O 0.81324 0.5718 0.93213 0.0
C100 C 0.95629 0.58039 0.94469 0.0
C101 C 0.95653 0.59679 0.97468 0.0
H102 H 0.94817 0.62764 0.03318 0.0
H103 H 0.89883 0.63916 0.05873 0.0
H104 H 0.89741 0.53374 0.8671 0.0
H105 H 0.94709 0.54795 0.88834 0.0
H106 H 0.97721 0.57456 0.93268 0.0
H107 H 0.97765 0.60326 0.98537 0.0
Mn108 Mn 0.47333 0.83288 0.51808 0.0
Mn109 Mn 0.50434 0.77668 0.53212 0.0
C110 C 0.48475 0.8207 0.57617 0.0
C111 C 0.47801 0.87473 0.5038 0.0
C112 C 0.43841 0.78378 0.52393 0.0
O113 O 0.48611 0.82315 0.46758 0.0
O114 O 0.50159 0.78439 0.47886 0.0
C115 C 0.56421 0.79189 0.50644 0.0
N116 N 0.54647 0.78204 0.53292 0.0
C117 C 0.58845 0.7761 0.57283 0.0
C118 C 0.60719 0.78605 0.54591 0.0
C119 C 0.59499 0.79404 0.5126 0.0
C120 C 0.55794 0.77456 0.5652 0.0
H121 H 0.55497 0.79809 0.48082 0.0
C122 C 0.49525 0.80211 0.45693 0.0
O123 O 0.45316 0.86293 0.49821 0.0
O124 O 0.50003 0.8621 0.51717 0.0
N125 N 0.50899 0.76554 0.58144 0.0
C126 C 0.48809 0.75543 0.60398 0.0
C127 C 0.49667 0.74624 0.63828 0.0
C128 C 0.52677 0.74696 0.64871 0.0
C129 C 0.54806 0.75659 0.62452 0.0
C130 C 0.53816 0.7654 0.59064 0.0
H131 H 0.465 0.75465 0.596 0.0
O132 O 0.46568 0.83832 0.57046 0.0
O133 O 0.49789 0.8112 0.54757 0.0
O134 O 0.43956 0.80686 0.5158 0.0
O135 O 0.46112 0.77069 0.53258 0.0
C136 C 0.57868 0.75786 0.63274 0.0
C137 C 0.59885 0.76771 0.60697 0.0
H138 H 0.63095 0.78769 0.55053 0.0
H139 H 0.60929 0.80181 0.49172 0.0
H140 H 0.48013 0.73864 0.65665 0.0
H141 H 0.53328 0.74001 0.67529 0.0
H142 H 0.58696 0.75136 0.65882 0.0
H143 H 0.62234 0.76867 0.61365 0.0
Mn144 Mn 0.20647 0.54353 0.48979 0.0
Mn145 Mn 0.16222 0.57682 0.54591 0.0
C146 C 0.15965 0.52897 0.50393 0.0
C147 C 0.2241 0.53646 0.43075 0.0
C148 C 0.21421 0.5456 0.57243 0.0
O149 O 0.22622 0.57737 0.49136 0.0
O150 O 0.19254 0.59914 0.52384 0.0
C151 C 0.13219 0.60846 0.49111 0.0
N152 N 0.13054 0.5917 0.51884 0.0
C153 C 0.07694 0.59189 0.5169 0.0
C154 C 0.07805 0.60929 0.48846 0.0
C155 C 0.10579 0.61755 0.47545 0.0
C156 C 0.10397 0.58354 0.53147 0.0
H157 H 0.15349 0.6148 0.48102 0.0
C158 C 0.21651 0.59757 0.50497 0.0
O159 O 0.23954 0.52988 0.45917 0.0
O160 O 0.19883 0.54732 0.43679 0.0
N161 N 0.13175 0.55769 0.56926 0.0
C162 C 0.1346 0.54001 0.59562 0.0
C163 C 0.10892 0.5295 0.61116 0.0
C164 C 0.08062 0.5374 0.59967 0.0
C165 C 0.07824 0.5557 0.57263 0.0
C166 C 0.10461 0.56569 0.55841 0.0
H167 H 0.15628 0.53396 0.60474 0.0
O168 O 0.17975 0.51402 0.49116 0.0
O169 O 0.16736 0.55212 0.50714 0.0
O170 O 0.2211 0.53585 0.54178 0.0
O171 O 0.19365 0.56176 0.57633 0.0
C172 C 0.05075 0.56416 0.55886 0.0
C173 C 0.0501 0.58219 0.53093 0.0
H174 H 0.05775 0.61627 0.47622 0.0
H175 H 0.10682 0.63088 0.45339 0.0
H176 H 0.11094 0.51536 0.63199 0.0
H177 H 0.06088 0.52926 0.61175 0.0
H178 H 0.02999 0.55666 0.56918 0.0
H179 H 0.02885 0.58829 0.5202 0.0
Mn180 Mn 0.46946 0.16446 0.99548 0.0
Mn181 Mn 0.50343 0.21971 0.98236 0.0
C182 C 0.47451 0.17951 0.93752 0.0
C183 C 0.47316 0.12198 0.00519 0.0
C184 C 0.43893 0.21504 0.00493 0.0
O185 O 0.48861 0.17123 0.04407 0.0
O186 O 0.51039 0.20799 0.03325 0.0
C187 C 0.56509 0.20052 0.98667 0.0
N188 N 0.54354 0.21295 0.96798 0.0
C189 C 0.57665 0.22025 0.91742 0.0
C190 C 0.59928 0.20766 0.93623 0.0
C191 C 0.59344 0.1977 0.97096 0.0
C192 C 0.54882 0.22238 0.93441 0.0
H193 H 0.56063 0.19277 0.01331 0.0
C194 C 0.50366 0.18991 0.05433 0.0
O195 O 0.44991 0.13434 0.01595 0.0
O196 O 0.49411 0.13434 0.98893 0.0
N197 N 0.499 0.23427 0.93505 0.0
C198 C 0.475 0.2465 0.92105 0.0
C199 C 0.47719 0.25775 0.88656 0.0
C200 C 0.50419 0.25677 0.86719 0.0
C201 C 0.52885 0.24478 0.88267 0.0
C202 C 0.52538 0.23403 0.91723 0.0
H203 H 0.45428 0.24749 0.93598 0.0
O204 O 0.45548 0.16205 0.94451 0.0
O205 O 0.49149 0.1868 0.96441 0.0
O206 O 0.4381 0.19133 0.00603 0.0
O207 O 0.46211 0.22752 0.99611 0.0
C208 C 0.55671 0.243 0.86514 0.0
C209 C 0.58056 0.23064 0.88244 0.0
H210 H 0.62118 0.20547 0.92421 0.0
H211 H 0.61075 0.18788 0.98558 0.0
H212 H 0.45813 0.26715 0.87493 0.0
H213 H 0.50578 0.26542 0.84057 0.0
H214 H 0.56001 0.25098 0.83829 0.0
H215 H 0.60184 0.22928 0.86861 0.0
Mn216 Mn 0.80398 0.45347 0.50681 0.0
Mn217 Mn 0.83809 0.41293 0.56281 0.0
C218 C 0.85256 0.46069 0.52432 0.0
C219 C 0.79021 0.46404 0.44743 0.0
C220 C 0.79146 0.45003 0.58804 0.0
O221 O 0.77756 0.42293 0.50552 0.0
O222 O 0.80594 0.39535 0.53595 0.0
C223 C 0.86601 0.37945 0.50873 0.0
N224 N 0.86862 0.39513 0.53767 0.0
C225 C 0.92157 0.38846 0.54079 0.0
C226 C 0.91944 0.37213 0.51112 0.0
C227 C 0.89155 0.36766 0.49497 0.0
C228 C 0.89535 0.39963 0.55334 0.0
H229 H 0.8446 0.376 0.49625 0.0
C230 C 0.7831 0.40099 0.51666 0.0
O231 O 0.77531 0.47215 0.47541 0.0
O232 O 0.81281 0.44978 0.45409 0.0
N233 N 0.86982 0.42757 0.59024 0.0
C234 C 0.86826 0.44484 0.61731 0.0
C235 C 0.89427 0.45162 0.63608 0.0
C236 C 0.92156 0.44052 0.62694 0.0
C237 C 0.92268 0.42297 0.59875 0.0
C238 C 0.89596 0.4167 0.58134 0.0
H239 H 0.84734 0.45329 0.62474 0.0
O240 O 0.8364 0.47861 0.51137 0.0
O241 O 0.83994 0.43902 0.52567 0.0
O242 O 0.78904 0.46199 0.55813 0.0
O243 O 0.8076 0.43067 0.59171 0.0
C244 C 0.94927 0.41159 0.58704 0.0
C245 C 0.94874 0.39443 0.55797 0.0
H246 H 0.9391 0.36307 0.50033 0.0
H247 H 0.88975 0.35517 0.47197 0.0
H248 H 0.89327 0.46527 0.6577 0.0
H249 H 0.94151 0.44568 0.64174 0.0
H250 H 0.97031 0.41613 0.5999 0.0
H251 H 0.96939 0.38608 0.54887 0.0
Mn252 Mn 0.51686 0.81636 0.01481 0.0
Mn253 Mn 0.49044 0.75844 0.00156 0.0
C254 C 0.51508 0.80053 0.95688 0.0
C255 C 0.50777 0.85842 0.02303 0.0
C256 C 0.55325 0.76905 0.02713 0.0
O257 O 0.49719 0.80826 0.06277 0.0
O258 O 0.47944 0.77007 0.05142 0.0
C259 C 0.42638 0.77143 0.00117 0.0
N260 N 0.45037 0.76102 0.98438 0.0
C261 C 0.42074 0.74926 0.93247 0.0
C262 C 0.39564 0.75971 0.9493 0.0
C263 C 0.39851 0.77092 0.98375 0.0
C264 C 0.44794 0.75043 0.95108 0.0
H265 H 0.42852 0.78007 0.02764 0.0
C266 C 0.48339 0.78875 0.07243 0.0
O267 O 0.53206 0.84819 0.03511 0.0
O268 O 0.48879 0.84415 0.00657 0.0
N269 N 0.49913 0.74414 0.95501 0.0
C270 C 0.52555 0.73507 0.94245 0.0
C271 C 0.52655 0.72321 0.90836 0.0
C272 C 0.50032 0.72043 0.88786 0.0
C273 C 0.47334 0.72966 0.90152 0.0
C274 C 0.47368 0.74118 0.93575 0.0
H275 H 0.54571 0.7369 0.95831 0.0
O276 O 0.5318 0.81949 0.96429 0.0
O277 O 0.49847 0.79206 0.98335 0.0
O278 O 0.55121 0.79268 0.02708 0.0
O279 O 0.53188 0.75456 0.01825 0.0
C280 C 0.44611 0.72788 0.88255 0.0
C281 C 0.41987 0.73783 0.89789 0.0
H282 H 0.3741 0.75933 0.93597 0.0
H283 H 0.37927 0.77911 0.99685 0.0
H284 H 0.54745 0.71607 0.89803 0.0
H285 H 0.50114 0.71101 0.86178 0.0
H286 H 0.44513 0.71903 0.85604 0.0
H287 H 0.39913 0.73656 0.88289 0.0
H288 H 0.27355 0.48852 0.08529 0.0
H289 H 0.28732 0.50091 0.14765 0.0
H290 H 0.20949 0.4635 0.18946 0.0
H291 H 0.19597 0.45084 0.12799 0.0
H292 H 0.25573 0.52994 0.19444 0.0
H293 H 0.27295 0.43848 0.25823 0.0
H294 H 0.27169 0.44258 0.2093 0.0
H295 H 0.23774 0.43941 0.2352 0.0
C296 C 0.25965 0.48268 0.1079 0.0
C297 C 0.23372 0.46865 0.10171 0.0
C298 C 0.26754 0.48976 0.14346 0.0
C299 C 0.24977 0.4827 0.17332 0.0
C300 C 0.22403 0.46857 0.16705 0.0
H301 H 0.19534 0.54833 0.36783 0.0
H302 H 0.2088 0.53695 0.30573 0.0
C303 C 0.21618 0.46153 0.13174 0.0
C304 C 0.25631 0.49157 0.21084 0.0
H305 H 0.25802 0.47172 0.2993 0.0
C306 C 0.25693 0.51721 0.21733 0.0
C307 C 0.25859 0.47503 0.24073 0.0
C308 C 0.26055 0.44735 0.23545 0.0
C309 C 0.25727 0.52668 0.25303 0.0
C310 C 0.25629 0.51008 0.28295 0.0
C311 C 0.25823 0.48449 0.27642 0.0
C312 C 0.24994 0.51863 0.3207 0.0
C313 C 0.25785 0.55441 0.25827 0.0
C314 C 0.26826 0.51169 0.3501 0.0
C315 C 0.26039 0.51797 0.38597 0.0
C316 C 0.23394 0.53112 0.39298 0.0
C317 C 0.21594 0.53831 0.36342 0.0
C318 C 0.22376 0.53201 0.32776 0.0
H319 H 0.26959 0.5637 0.23531 0.0
H320 H 0.23466 0.56152 0.25879 0.0
H321 H 0.26896 0.5596 0.28425 0.0
H322 H 0.2884 0.50112 0.34532 0.0
H323 H 0.27466 0.51211 0.40819 0.0
H324 H 0.44786 0.19542 0.59193 0.0
H325 H 0.43848 0.20074 0.65757 0.0
H326 H 0.52993 0.22296 0.67318 0.0
H327 H 0.53933 0.21749 0.60774 0.0
H328 H 0.47988 0.17028 0.70587 0.0
H329 H 0.47703 0.27095 0.74025 0.0
H330 H 0.46054 0.25891 0.69887 0.0
H331 H 0.50029 0.26046 0.70315 0.0
C332 C 0.46552 0.20239 0.60928 0.0
C333 C 0.49407 0.20671 0.59506 0.0
C334 C 0.46021 0.20536 0.64659 0.0
C335 C 0.48343 0.21261 0.6699 0.0
C336 C 0.51162 0.2179 0.65539 0.0
H337 H 0.52339 0.17813 0.89397 0.0
H338 H 0.52539 0.18825 0.8285 0.0
C339 C 0.517 0.21468 0.61822 0.0
C340 C 0.48006 0.21011 0.70968 0.0
H341 H 0.4788 0.24264 0.7895 0.0
C342 C 0.47942 0.18608 0.7242 0.0
C343 C 0.47962 0.23081 0.73321 0.0
C344 C 0.47933 0.25684 0.71834 0.0
C345 C 0.47897 0.18216 0.76194 0.0
C346 C 0.47929 0.20283 0.78554 0.0
C347 C 0.47911 0.22691 0.7711 0.0
C348 C 0.47914 0.19944 0.82537 0.0
C349 C 0.47822 0.15597 0.77647 0.0
C350 C 0.45259 0.20266 0.84485 0.0
C351 C 0.45145 0.19684 0.8819 0.0
C352 C 0.47707 0.18845 0.90002 0.0
C353 C 0.50371 0.18539 0.8806 0.0
C354 C 0.5048 0.19102 0.8434 0.0
H355 H 0.47385 0.14217 0.7546 0.0
H356 H 0.5 0.15155 0.78926 0.0
H357 H 0.46078 0.15411 0.79781 0.0
H358 H 0.43254 0.20884 0.83111 0.0
H359 H 0.43052 0.19868 0.89642 0.0
H360 H 0.82115 0.45294 0.38577 0.0
H361 H 0.81041 0.46578 0.32339 0.0
H362 H 0.73084 0.50303 0.36014 0.0
H363 H 0.74193 0.49072 0.42324 0.0
H364 H 0.76319 0.4569 0.27849 0.0
H365 H 0.77438 0.55791 0.30621 0.0
H366 H 0.78554 0.5347 0.33889 0.0
H367 H 0.74676 0.54183 0.33268 0.0
C368 C 0.80132 0.46384 0.38069 0.0
C369 C 0.78253 0.47101 0.40951 0.0
C370 C 0.79515 0.4711 0.34494 0.0
C371 C 0.77003 0.48562 0.33711 0.0
C372 C 0.75067 0.49224 0.36565 0.0
H373 H 0.74068 0.5144 0.10114 0.0
H374 H 0.72937 0.50213 0.16429 0.0
C375 C 0.75696 0.48511 0.40164 0.0
C376 C 0.7651 0.49422 0.29909 0.0
H377 H 0.76625 0.54601 0.24548 0.0
C378 C 0.76344 0.47639 0.27122 0.0
C379 C 0.76557 0.51968 0.28974 0.0
C380 C 0.76838 0.5397 0.31833 0.0
C381 C 0.76372 0.48325 0.23422 0.0
C382 C 0.765 0.50868 0.22488 0.0
C383 C 0.76514 0.52654 0.25276 0.0
C384 C 0.77022 0.51705 0.1868 0.0
C385 C 0.76448 0.46317 0.20554 0.0
C386 C 0.79643 0.53011 0.17871 0.0
C387 C 0.80275 0.5373 0.14299 0.0
C388 C 0.783 0.53158 0.11443 0.0
C389 C 0.75641 0.51891 0.12255 0.0
C390 C 0.75 0.5118 0.15855 0.0
H391 H 0.76894 0.44461 0.21751 0.0
H392 H 0.74262 0.46241 0.19144 0.0
H393 H 0.78186 0.46717 0.18477 0.0
H394 H 0.81238 0.53435 0.20003 0.0
H395 H 0.82341 0.54707 0.13776 0.0
H396 H 0.46527 0.79678 0.9152 0.0
H397 H 0.46362 0.79205 0.84856 0.0
H398 H 0.55926 0.7844 0.84611 0.0
H399 H 0.56086 0.78865 0.91274 0.0
H400 H 0.53035 0.82676 0.806 0.0
H401 H 0.48247 0.73423 0.77224 0.0
H402 H 0.46912 0.75038 0.81212 0.0
H403 H 0.50666 0.73899 0.81104 0.0
C404 C 0.4857 0.79294 0.90049 0.0
C405 C 0.51309 0.79231 0.91887 0.0
C406 C 0.48479 0.79036 0.86256 0.0
C407 C 0.51131 0.78757 0.84266 0.0
C408 C 0.53857 0.78615 0.86115 0.0
H409 H 0.53881 0.81963 0.6098 0.0
H410 H 0.54853 0.81009 0.67438 0.0
C411 C 0.53946 0.78859 0.89903 0.0
C412 C 0.51102 0.79033 0.80263 0.0
H413 H 0.48819 0.76265 0.72385 0.0
C414 C 0.52145 0.81269 0.78787 0.0
C415 C 0.49926 0.77193 0.77943 0.0
C416 C 0.48875 0.7474 0.79425 0.0
C417 C 0.51934 0.81759 0.7504 0.0
C418 C 0.50714 0.7993 0.72713 0.0
C419 C 0.49751 0.77661 0.74183 0.0
C420 C 0.50208 0.80405 0.68792 0.0
C421 C 0.52888 0.84269 0.73639 0.0
C422 C 0.47293 0.80332 0.67418 0.0
C423 C 0.46753 0.80834 0.63749 0.0
C424 C 0.49125 0.81363 0.61385 0.0
C425 C 0.52038 0.81477 0.62753 0.0
C426 C 0.52584 0.80969 0.66435 0.0
H427 H 0.53114 0.85644 0.75881 0.0
H428 H 0.55086 0.84097 0.72276 0.0
H429 H 0.51267 0.84995 0.71614 0.0
H430 H 0.45429 0.79921 0.69201 0.0
H431 H 0.44481 0.80797 0.62746 0.0
H432 H 0.78136 0.49864 0.60484 0.0
H433 H 0.76947 0.51546 0.66524 0.0
H434 H 0.75844 0.44125 0.70701 0.0
H435 H 0.77145 0.42434 0.64716 0.0
H436 H 0.72451 0.51272 0.71665 0.0
H437 H 0.82735 0.46681 0.76716 0.0
H438 H 0.81815 0.4684 0.71933 0.0
H439 H 0.80061 0.4457 0.74827 0.0
C440 C 0.77572 0.48595 0.6267 0.0
C441 C 0.77776 0.46019 0.6215 0.0
C442 C 0.76898 0.49557 0.66121 0.0
C443 C 0.76389 0.47958 0.69084 0.0
C444 C 0.76314 0.4539 0.68477 0.0
H445 H 0.76724 0.50926 0.92473 0.0
H446 H 0.75305 0.49095 0.86613 0.0
C447 C 0.77041 0.44428 0.65054 0.0
C448 C 0.76241 0.48959 0.72852 0.0
H449 H 0.79858 0.48823 0.81051 0.0
C450 C 0.74057 0.50728 0.73726 0.0
C451 C 0.78362 0.48264 0.7553 0.0
C452 C 0.80893 0.46505 0.74705 0.0
C453 C 0.73943 0.5182 0.7721 0.0
C454 C 0.76065 0.51123 0.79867 0.0
C455 C 0.78208 0.49325 0.79016 0.0
C456 C 0.76308 0.52376 0.83448 0.0
C457 C 0.71572 0.53719 0.78026 0.0
C458 C 0.7728 0.54844 0.8361 0.0
C459 C 0.78116 0.5589 0.86944 0.0
C460 C 0.77995 0.54485 0.90182 0.0
C461 C 0.76835 0.52064 0.90039 0.0
C462 C 0.76024 0.51012 0.86693 0.0
H463 H 0.69697 0.53612 0.76052 0.0
H464 H 0.70686 0.53472 0.80834 0.0
H465 H 0.72561 0.55601 0.77844 0.0
H466 H 0.77563 0.55915 0.81131 0.0
H467 H 0.78991 0.57762 0.86955 0.0
H468 H 0.47747 0.82618 0.12194 0.0
H469 H 0.4734 0.82207 0.18807 0.0
H470 H 0.46605 0.74272 0.17733 0.0
H471 H 0.47022 0.74655 0.11088 0.0
H472 H 0.42991 0.79696 0.23646 0.0
H473 H 0.54425 0.75644 0.23787 0.0
H474 H 0.52988 0.77295 0.19878 0.0
H475 H 0.51674 0.7423 0.20881 0.0
C476 C 0.47441 0.80786 0.1335 0.0
C477 C 0.4746 0.78665 0.11119 0.0
C478 C 0.47203 0.80557 0.17128 0.0
C479 C 0.46996 0.78208 0.18741 0.0
C480 C 0.468 0.76097 0.16523 0.0
H481 H 0.49932 0.75731 0.42186 0.0
H482 H 0.49193 0.74943 0.35661 0.0
C483 C 0.4702 0.76324 0.1273 0.0
C484 C 0.4726 0.77991 0.2274 0.0
H485 H 0.52275 0.76611 0.29445 0.0
C486 C 0.44998 0.78989 0.24925 0.0
C487 C 0.49884 0.77059 0.24382 0.0
C488 C 0.52398 0.76004 0.22128 0.0
C489 C 0.45329 0.79151 0.28722 0.0
C490 C 0.48023 0.78348 0.30344 0.0
C491 C 0.50224 0.77238 0.28179 0.0
C492 C 0.48672 0.78811 0.34237 0.0
C493 C 0.4281 0.80214 0.30956 0.0
C494 C 0.48756 0.8125 0.35548 0.0
C495 C 0.49182 0.81709 0.39254 0.0
C496 C 0.49558 0.79733 0.41719 0.0
C497 C 0.49647 0.77294 0.40362 0.0
C498 C 0.49209 0.76837 0.36642 0.0
H499 H 0.40638 0.80019 0.29527 0.0
H500 H 0.42651 0.79295 0.33662 0.0
H501 H 0.43215 0.82221 0.31403 0.0
H502 H 0.48435 0.82801 0.3371 0.0
H503 H 0.49136 0.83611 0.40196 0.0
H504 H 0.24411 0.48982 0.91061 0.0
H505 H 0.25699 0.50721 0.85084 0.0
H506 H 0.22676 0.44028 0.79845 0.0
H507 H 0.21371 0.42271 0.85781 0.0
H508 H 0.28495 0.46861 0.7692 0.0
H509 H 0.17856 0.52116 0.78327 0.0
H510 H 0.20412 0.52097 0.82118 0.0
H511 H 0.1854 0.49293 0.8084 0.0
C512 C 0.24095 0.4785 0.8865 0.0
C513 C 0.22752 0.45497 0.889 0.0
C514 C 0.24834 0.48848 0.8524 0.0
C515 C 0.24268 0.47502 0.82038 0.0
C516 C 0.23137 0.45088 0.82292 0.0
H517 H 0.23263 0.49845 0.58802 0.0
H518 H 0.24525 0.48205 0.64843 0.0
C519 C 0.22379 0.44095 0.8569 0.0
C520 C 0.24437 0.48721 0.78429 0.0
H521 H 0.20488 0.52569 0.72864 0.0
C522 C 0.26768 0.4813 0.76029 0.0
C523 C 0.2217 0.50362 0.7729 0.0
C524 C 0.19587 0.51008 0.79755 0.0
C525 C 0.2689 0.49153 0.72494 0.0
C526 C 0.24578 0.50754 0.71322 0.0
C527 C 0.22272 0.51357 0.7376 0.0
C528 C 0.24397 0.51772 0.67555 0.0
C529 C 0.295 0.48528 0.70072 0.0
C530 C 0.23938 0.54324 0.67046 0.0
C531 C 0.23156 0.55251 0.63621 0.0
C532 C 0.22854 0.53651 0.60618 0.0
C533 C 0.2352 0.51124 0.6106 0.0
C534 C 0.24254 0.50187 0.64514 0.0
H535 H 0.31485 0.47996 0.71707 0.0
H536 H 0.28903 0.46926 0.68319 0.0
H537 H 0.30103 0.50111 0.68281 0.0
H538 H 0.24037 0.55585 0.69344 0.0
H539 H 0.22663 0.57209 0.63354 0.0
H540 H 0.47855 0.16514 0.39292 0.0
H541 H 0.48095 0.16626 0.32633 0.0
H542 H 0.47128 0.24576 0.32818 0.0
H543 H 0.46877 0.24489 0.39504 0.0
H544 H 0.4405 0.19043 0.27011 0.0
H545 H 0.55585 0.22836 0.28016 0.0
H546 H 0.53811 0.21266 0.31793 0.0
H547 H 0.52666 0.24338 0.30566 0.0
C548 C 0.47627 0.18283 0.37916 0.0
C549 C 0.47377 0.20496 0.39917 0.0
C550 C 0.47765 0.18341 0.34118 0.0
C551 C 0.47679 0.20611 0.32267 0.0
C552 C 0.47226 0.22811 0.34225 0.0
H553 H 0.51434 0.23248 0.09265 0.0
H554 H 0.50977 0.23764 0.15874 0.0
C555 C 0.4706 0.22754 0.38035 0.0
C556 C 0.48296 0.20664 0.2832 0.0
H557 H 0.5382 0.21845 0.2215 0.0
C558 C 0.46172 0.19674 0.25934 0.0
C559 C 0.5107 0.21493 0.26954 0.0
C560 C 0.53433 0.22536 0.29451 0.0
C561 C 0.46763 0.19463 0.22193 0.0
C562 C 0.49585 0.202 0.20841 0.0
C563 C 0.51676 0.2126 0.23214 0.0
C564 C 0.50389 0.19854 0.16968 0.0
C565 C 0.44356 0.18461 0.19719 0.0
C566 C 0.50401 0.1747 0.15445 0.0
C567 C 0.50653 0.17166 0.1168 0.0
C568 C 0.5093 0.19244 0.09384 0.0
C569 C 0.51219 0.2161 0.10958 0.0
C570 C 0.50941 0.21913 0.14731 0.0
H571 H 0.42113 0.18632 0.2098 0.0
H572 H 0.44343 0.19446 0.17056 0.0
H573 H 0.44777 0.16466 0.19197 0.0
H574 H 0.50061 0.15854 0.17153 0.0
H575 H 0.50463 0.15316 0.10552 0.0
H576 H 0.87653 0.50511 0.95113 0.0
H577 H 0.92924 0.49369 0.94561 0.0
H578 H 0.95073 0.54338 0.03429 0.0
H579 H 0.89849 0.55609 0.03764 0.0
H580 H 0.99144 0.54695 0.98753 0.0
H581 H 0.97216 0.44671 0.00811 0.0
H582 H 0.95315 0.45763 0.96828 0.0
H583 H 0.94273 0.46916 0.01272 0.0
C584 C 0.89274 0.51368 0.96904 0.0
C585 C 0.88394 0.53176 0.99423 0.0
C586 C 0.92271 0.50695 0.96627 0.0
C587 C 0.94395 0.51719 0.99015 0.0
C588 C 0.93487 0.53518 0.01555 0.0
H589 H 0.11464 0.44876 0.03321 0.0
H590 H 0.06279 0.46262 0.03313 0.0
C591 C 0.9051 0.54245 0.01749 0.0
C592 C 0.9756 0.50926 0.98889 0.0
H593 H 0.02072 0.45851 0.98988 0.0
C594 C 0.99782 0.52759 0.98783 0.0
C595 C 0.98409 0.48401 0.99055 0.0
C596 C 0.96177 0.4633 0.99541 0.0
C597 C 0.02818 0.52147 0.98816 0.0
C598 C 0.03664 0.49617 0.98782 0.0
C599 C 0.01439 0.47786 0.98915 0.0
C600 C 0.06831 0.48814 0.98782 0.0
C601 C 0.05061 0.54228 0.99055 0.0
C602 C 0.0888 0.49772 0.96238 0.0
C603 C 0.11865 0.4904 0.96335 0.0
C604 C 0.12798 0.47234 0.9883 0.0
C605 C 0.10758 0.4624 0.01327 0.0
C606 C 0.07803 0.47032 0.01317 0.0
H607 H 0.04066 0.55916 0.00296 0.0
H608 H 0.07033 0.53687 0.007 0.0
H609 H 0.05811 0.5473 0.96264 0.0
H610 H 0.08175 0.51078 0.94168 0.0
H611 H 0.13429 0.49838 0.9441 0.0
H612 H 0.52671 0.90358 0.51629 0.0
H613 H 0.53087 0.94849 0.50957 0.0
H614 H 0.44074 0.95177 0.4692 0.0
H615 H 0.43624 0.90662 0.47592 0.0
H616 H 0.48951 0.98194 0.42964 0.0
H617 H 0.48061 0.99592 0.57983 0.0
H618 H 0.50663 0.97274 0.56461 0.0
H619 H 0.46746 0.96815 0.55747 0.0
C620 C 0.50781 0.91377 0.50569 0.0
C621 C 0.48104 0.90159 0.49689 0.0
C622 C 0.51026 0.93941 0.50189 0.0
C623 C 0.48605 0.95332 0.48917 0.0
C624 C 0.45963 0.94123 0.47909 0.0
H625 H 0.45841 0.11067 0.51394 0.0
H626 H 0.45314 0.06574 0.50961 0.0
C627 C 0.45709 0.91551 0.48302 0.0
C628 C 0.48798 0.98063 0.48834 0.0
H629 H 0.49183 0.03114 0.54409 0.0
C630 C 0.48995 0.99279 0.45456 0.0
C631 C 0.48832 0.99456 0.52098 0.0
C632 C 0.48544 0.9823 0.55786 0.0
C633 C 0.49273 0.0187 0.45266 0.0
C634 C 0.4937 0.03258 0.48538 0.0
C635 C 0.49127 0.02038 0.51908 0.0
C636 C 0.49656 0.05988 0.48551 0.0
C637 C 0.49423 0.0311 0.41579 0.0
C638 C 0.52281 0.07142 0.4734 0.0
C639 C 0.52598 0.09717 0.47596 0.0
C640 C 0.50294 0.11169 0.49076 0.0
C641 C 0.47658 0.10002 0.50243 0.0
C642 C 0.47349 0.07436 0.49996 0.0
H643 H 0.48711 0.01846 0.3935 0.0
H644 H 0.47998 0.04793 0.41525 0.0
H645 H 0.51752 0.03695 0.41033 0.0
H646 H 0.54105 0.06047 0.4627 0.0
H647 H 0.54655 0.10564 0.46679 0.0
H648 H 0.13957 0.4891 0.54169 0.0
H649 H 0.08797 0.47412 0.54562 0.0
H650 H 0.05943 0.53448 0.4765 0.0
H651 H 0.11109 0.5487 0.47143 0.0
H652 H 0.04027 0.4961 0.57332 0.0
H653 H 0.02002 0.4772 0.42707 0.0
H654 H 0.05674 0.48346 0.44484 0.0
H655 H 0.03168 0.50858 0.43451 0.0
C656 C 0.12215 0.49901 0.52734 0.0
C657 C 0.1288 0.52045 0.50731 0.0
C658 C 0.0928 0.49051 0.52955 0.0
C659 C 0.06988 0.50306 0.5111 0.0
C660 C 0.07678 0.5242 0.49038 0.0
H661 H 0.88108 0.49754 0.56067 0.0
H662 H 0.9346 0.50669 0.55957 0.0
C663 C 0.10612 0.53259 0.48804 0.0
C664 C 0.03862 0.4946 0.51463 0.0
H665 H 0.97692 0.4791 0.46536 0.0
C666 C 0.02644 0.49227 0.54974 0.0
C667 C 0.02079 0.48906 0.48386 0.0
C668 C 0.03308 0.48944 0.44549 0.0
C669 C 0.99669 0.48518 0.55496 0.0
C670 C 0.9784 0.4808 0.52415 0.0
C671 C 0.99082 0.48262 0.48903 0.0
C672 C 0.94634 0.47442 0.52739 0.0
C673 C 0.98544 0.48199 0.59343 0.0
C674 C 0.93498 0.45367 0.50891 0.0
C675 C 0.90443 0.44886 0.50883 0.0
C676 C 0.88483 0.46424 0.52813 0.0
C677 C 0.89604 0.48499 0.54663 0.0
C678 C 0.92658 0.49007 0.54623 0.0
H679 H 0.97432 0.49932 0.60239 0.0
H680 H 0.96916 0.46662 0.59499 0.0
H681 H 0.00392 0.47812 0.61279 0.0
H682 H 0.94968 0.44149 0.4938 0.0
H683 H 0.89604 0.43344 0.49291 0.0
H684 H 0.54438 0.89362 0.05287 0.0
H685 H 0.53621 0.9385 0.0546 0.0
H686 H 0.4506 0.92874 0.00305 0.0
H687 H 0.45869 0.88401 0.00083 0.0
H688 H 0.48639 0.96363 0.96889 0.0
H689 H 0.48037 0.98081 0.11816 0.0
H690 H 0.51266 0.96374 0.10373 0.0
H691 H 0.47627 0.95028 0.09855 0.0
C692 C 0.52368 0.90102 0.0423 0.0
C693 C 0.50221 0.8853 0.02664 0.0
C694 C 0.51897 0.92663 0.04351 0.0
C695 C 0.49265 0.93688 0.02932 0.0
C696 C 0.471 0.92117 0.01429 0.0
H697 H 0.43338 0.09079 0.0386 0.0
H698 H 0.43744 0.04566 0.0454 0.0
C699 C 0.47568 0.89561 0.01304 0.0
C700 C 0.48855 0.96407 0.02762 0.0
H701 H 0.48398 0.01638 0.07979 0.0
C702 C 0.48571 0.97515 0.99314 0.0
C703 C 0.48739 0.97898 0.05934 0.0
C704 C 0.48906 0.96788 0.09709 0.0
C705 C 0.48231 0.00085 0.98944 0.0
C706 C 0.48218 0.01585 0.02106 0.0
C707 C 0.48435 0.00477 0.05562 0.0
C708 C 0.48026 0.04315 0.01851 0.0
C709 C 0.47874 0.01173 0.95171 0.0
C710 C 0.50324 0.05659 0.00175 0.0
C711 C 0.50099 0.08224 -0.00219 0.0
C712 C 0.47574 0.09494 0.01068 0.0
C713 C 0.45303 0.0815 0.02825 0.0
C714 C 0.45534 0.05577 0.03224 0.0
H715 H 0.472 0.99746 0.93145 0.0
H716 H 0.46187 0.02678 0.95171 0.0
H717 H 0.50031 0.01974 0.94275 0.0
H718 H 0.52285 0.04718 0.99149 0.0
H719 H 0.51897 0.09207 0.98436 0.0
H720 H 0.20127 0.34915 0.98828 0.0
H721 H 0.23131 0.31228 0.00015 0.0
H722 H 0.30377 0.3585 0.03696 0.0
H723 H 0.27381 0.39542 0.02593 0.0
H724 H 0.28266 0.30095 0.9668 0.0
H725 H 0.30255 0.30599 0.11539 0.0
H726 H 0.27397 0.32402 0.09301 0.0
H727 H 0.31206 0.33462 0.0934 0.0
C728 C 0.22349 0.3515 -0.00071 0.0
C729 C 0.23518 0.37529 0.006 0.0
C730 C 0.24056 0.33038 0.00619 0.0
C731 C 0.26956 0.33262 0.02003 0.0
C732 C 0.28113 0.35629 0.02726 0.0
H733 H 0.43455 0.2643 0.02011 0.0
H734 H 0.38937 0.28864 0.02821 0.0
C735 C 0.26405 0.37742 0.02058 0.0
C736 C 0.28892 0.31055 0.02336 0.0
H737 H 0.33872 0.28245 0.0803 0.0
C738 C 0.29437 0.29646 0.99184 0.0
C739 C 0.30402 0.30467 0.05614 0.0
C740 C 0.29759 0.31798 0.09147 0.0
C741 C 0.31615 0.27786 0.99152 0.0
C742 C 0.33264 0.27317 0.02363 0.0
C743 C 0.32601 0.28621 0.05572 0.0
C744 C 0.35947 0.25742 0.02283 0.0
C745 C 0.32278 0.26446 0.95626 0.0
C746 C 0.3575 0.23169 0.01789 0.0
C747 C 0.3834 0.21759 0.01323 0.0
C748 C 0.41152 0.22915 0.01321 0.0
C749 C 0.41326 0.25482 0.01957 0.0
C750 C 0.38749 0.26878 0.02443 0.0
H751 H 0.30979 0.27197 0.93293 0.0
H752 H 0.34689 0.26585 0.94969 0.0
H753 H 0.31727 0.24452 0.95937 0.0
H754 H 0.33596 0.22265 0.01679 0.0
H755 H 0.38132 0.19786 0.00848 0.0
H756 H 0.78845 0.35117 0.53004 0.0
H757 H 0.75115 0.31894 0.51926 0.0
H758 H 0.69206 0.37323 0.47222 0.0
H759 H 0.729 0.40565 0.48288 0.0
H760 H 0.66914 0.34354 0.53304 0.0
H761 H 0.71926 0.28671 0.42195 0.0
H762 H 0.74283 0.29492 0.45985 0.0
H763 H 0.72963 0.31867 0.42964 0.0
C764 C 0.76766 0.35626 0.51704 0.0
C765 C 0.76164 0.38108 0.5076 0.0
C766 C 0.7465 0.33776 0.51066 0.0
C767 C 0.71907 0.34375 0.49469 0.0
C768 C 0.71326 0.3683 0.48438 0.0
H769 H 0.54803 0.27771 0.46347 0.0
H770 H 0.59286 0.30323 0.46202 0.0
C771 C 0.73439 0.38679 0.49058 0.0
C772 C 0.69523 0.32502 0.49199 0.0
H773 H 0.6737 0.27255 0.44704 0.0
C774 C 0.67011 0.32802 0.51424 0.0
C775 C 0.69691 0.30468 0.46779 0.0
C776 C 0.72349 0.30097 0.4432 0.0
C777 C 0.64633 0.31129 0.51275 0.0
C778 C 0.64748 0.29137 0.4877 0.0
C779 C 0.67292 0.28797 0.466 0.0
C780 C 0.6218 0.27457 0.48317 0.0
C781 C 0.62021 0.315 0.53817 0.0
C782 C 0.62368 0.24962 0.49372 0.0
C783 C 0.59804 0.23483 0.49432 0.0
C784 C 0.57028 0.24494 0.48452 0.0
C785 C 0.569 0.2695 0.47176 0.0
C786 C 0.59456 0.28411 0.47089 0.0
H787 H 0.6262 0.32684 0.56188 0.0
H788 H 0.6019 0.32431 0.52312 0.0
H789 H 0.61172 0.29697 0.5485 0.0
H790 H 0.64463 0.24195 0.50311 0.0
H791 H 0.59971 0.21596 0.50423 0.0
H792 H 0.80157 0.65211 0.99554 0.0
H793 H 0.76912 0.68731 0.00901 0.0
H794 H 0.70442 0.63774 0.05661 0.0
H795 H 0.73678 0.60256 0.04397 0.0
H796 H 0.71438 0.69423 0.98126 0.0
H797 H 0.7064 0.69242 0.13166 0.0
H798 H 0.73492 0.67573 0.10704 0.0
H799 H 0.69828 0.66257 0.11261 0.0
C800 C 0.78059 0.6487 0.00928 0.0
C801 C 0.77173 0.62446 0.01854 0.0
C802 C 0.76215 0.66887 0.01708 0.0
C803 C 0.73463 0.6652 0.03441 0.0
C804 C 0.72594 0.6411 0.04417 0.0
H805 H 0.56353 0.72107 0.04646 0.0
H806 H 0.61157 0.70048 0.05284 0.0
C807 C 0.74438 0.62094 0.03655 0.0
C808 C 0.71346 0.686 0.03881 0.0
H809 H 0.66515 0.71204 0.09968 0.0
C810 C 0.70416 0.69863 0.0073 0.0
C811 C 0.70027 0.69176 0.07285 0.0
C812 C 0.71074 0.68007 0.10799 0.0
C813 C 0.68046 0.71551 0.00847 0.0
C814 C 0.66596 0.71996 0.04208 0.0
C815 C 0.67637 0.70848 0.07397 0.0
C816 C 0.63756 0.73364 0.04343 0.0
C817 C 0.66975 0.72723 0.97341 0.0
C818 C 0.63643 0.75925 0.03704 0.0
C819 C 0.6089 0.77117 0.03342 0.0
C820 C 0.58224 0.75752 0.03585 0.0
C821 C 0.58363 0.73208 0.04405 0.0
C822 C 0.61104 0.72028 0.04792 0.0
H823 H 0.68186 0.7201 0.94913 0.0
H824 H 0.64556 0.7237 0.96968 0.0
H825 H 0.67302 0.7476 0.97479 0.0
H826 H 0.65678 0.76981 0.03366 0.0
H827 H 0.60856 0.79079 0.02714 0.0
H828 H 0.39576 0.78766 0.47108 0.0
H829 H 0.35288 0.75994 0.46242 0.0
H830 H 0.37374 0.72315 0.56391 0.0
H831 H 0.41687 0.75005 0.57183 0.0
H832 H 0.37016 0.69126 0.50857 0.0
H833 H 0.27084 0.75267 0.50769 0.0
H834 H 0.29954 0.76117 0.47585 0.0
H835 H 0.30677 0.76285 0.52404 0.0
C836 C 0.39062 0.77404 0.4919 0.0
C837 C 0.40963 0.77079 0.52198 0.0
C838 C 0.36613 0.75827 0.487 0.0
C839 C 0.36008 0.73951 0.51258 0.0
C840 C 0.37808 0.73741 0.54374 0.0
H841 H 0.21534 0.63946 0.54666 0.0
H842 H 0.249 0.67492 0.54318 0.0
C843 C 0.40272 0.75277 0.54826 0.0
C844 C 0.33727 0.72024 0.5055 0.0
H845 H 0.26279 0.71032 0.49344 0.0
C846 C 0.34667 0.69543 0.5052 0.0
C847 C 0.3067 0.72577 0.50112 0.0
C848 C 0.29522 0.75203 0.50248 0.0
C849 C 0.32631 0.67591 0.50185 0.0
C850 C 0.29571 0.68137 0.49721 0.0
C851 C 0.28631 0.70622 0.49663 0.0
C852 C 0.27303 0.66142 0.49596 0.0
C853 C 0.33775 0.64966 0.50507 0.0
C854 C 0.27473 0.64244 0.46984 0.0
C855 C 0.25591 0.62187 0.47219 0.0
C856 C 0.23457 0.62025 0.50021 0.0
C857 C 0.23161 0.6401 0.52484 0.0
C858 C 0.25078 0.66043 0.52282 0.0
H859 H 0.36022 0.64896 0.51776 0.0
H860 H 0.32241 0.63805 0.52163 0.0
H861 H 0.33948 0.64138 0.47743 0.0
H862 H 0.29123 0.64318 0.44827 0.0
H863 H 0.25835 0.60708 0.45243 0.0
loop_
_geom_bond_atom_site_label_1
_geom_bond_atom_site_label_2
_geom_bond_distance
_geom_bond_site_symmetry_2
_ccdc_geom_bond_type
Mn0 O5 2.095 . S
Mn0 O15 2.162 . S
Mn0 O16 2.297 . S
Mn0 O24 2.385 . S
Mn0 O25 2.209 . S
Mn0 O26 2.094 1_554 S
Mn1 O6 2.121 . S
Mn1 N8 2.257 . S
Mn1 N17 2.282 . S
Mn1 O25 2.215 1_556 S
Mn1 O27 2.117 . S
C2 O24 1.234 . S
C2 O25 1.283 . S
C3 O15 1.281 . S
C3 O16 1.236 . S
C4 O26 1.240 . S
C4 O27 1.264 . S
O5 Mn0 2.095 . S
O5 C14 1.250 1_554 S
O6 Mn1 2.121 . S
O6 C14 1.257 . S
C7 N8 1.326 . S
C7 C11 1.460 . S
C7 H13 0.929 . S
N8 Mn1 2.257 . S
N8 C7 1.326 . S
N8 C12 1.362 . S
C9 C10 1.258 . S
C9 C12 1.431 . S
C9 C29 1.449 . S
C10 C9 1.258 . S
C10 C11 1.477 . S
C10 H30 0.931 . S
C11 C7 1.460 . S
C11 C10 1.477 . S
C11 H31 0.930 . S
C12 N8 1.362 . S
C12 C9 1.431 . S
C12 C22 1.476 . S
H13 C7 0.929 . S
C14 O5 1.250 1_556 S
C14 O6 1.257 . S
O15 Mn0 2.162 . S
O15 C3 1.281 . S
O16 Mn0 2.297 . S
O16 C3 1.236 . S
N17 Mn1 2.282 . S
N17 C18 1.328 . S
N17 C22 1.318 . S
C18 N17 1.328 . S
C18 C19 1.457 . S
C18 H23 0.929 . S
C19 C18 1.457 . S
C19 C20 1.291 . S
C19 H32 0.931 . S
C20 C19 1.291 . S
C20 C21 1.373 . S
C20 H33 0.929 . S
C21 C20 1.373 . S
C21 C22 1.396 . S
C21 C28 1.403 . S
C22 C12 1.476 . S
C22 N17 1.318 . S
C22 C21 1.396 . S
H23 C18 0.929 . S
O24 Mn0 2.385 . S
O24 C2 1.234 . S
O25 Mn0 2.209 . S
O25 Mn1 2.215 1_554 S
O25 C2 1.283 . S
O26 Mn0 2.094 1_556 S
O26 C4 1.240 . S
O27 Mn1 2.117 . S
O27 C4 1.264 . S
C28 C21 1.403 . S
C28 C29 1.399 . S
C28 H34 0.929 . S
C29 C9 1.449 . S
C29 C28 1.399 . S
C29 H35 0.930 . S
H30 C10 0.931 . S
H31 C11 0.930 . S
H32 C19 0.931 . S
H33 C20 0.929 . S
H34 C28 0.929 . S
H35 C29 0.930 . S
Mn36 O41 2.095 . S
Mn36 O51 2.162 . S
Mn36 O52 2.297 . S
Mn36 O60 2.385 . S
Mn36 O61 2.209 . S
Mn36 O62 2.094 . S
Mn37 O42 2.121 . S
Mn37 N44 2.257 . S
Mn37 N53 2.282 . S
Mn37 O61 2.215 . S
Mn37 O63 2.117 . S
C38 O60 1.234 . S
C38 O61 1.283 . S
C39 O51 1.281 . S
C39 O52 1.236 . S
C40 O62 1.240 . S
C40 O63 1.264 . S
O41 Mn36 2.095 . S
O41 C50 1.250 . S
O42 Mn37 2.121 . S
O42 C50 1.258 . S
C43 N44 1.326 . S
C43 C47 1.460 . S
C43 H49 0.929 . S
N44 Mn37 2.257 . S
N44 C43 1.326 . S
N44 C48 1.362 . S
C45 C46 1.258 . S
C45 C48 1.431 . S
C45 C65 1.449 . S
C46 C45 1.258 . S
C46 C47 1.477 . S
C46 H66 0.931 . S
C47 C43 1.460 . S
C47 C46 1.477 . S
C47 H67 0.930 . S
C48 N44 1.362 . S
C48 C45 1.431 . S
C48 C58 1.476 . S
H49 C43 0.929 . S
C50 O41 1.250 . S
C50 O42 1.258 . S
O51 Mn36 2.162 . S
O51 C39 1.281 . S
O52 Mn36 2.297 . S
O52 C39 1.236 . S
N53 Mn37 2.282 . S
N53 C54 1.328 . S
N53 C58 1.318 . S
C54 N53 1.328 . S
C54 C55 1.457 . S
C54 H59 0.929 . S
C55 C54 1.457 . S
C55 C56 1.291 . S
C55 H68 0.931 . S
C56 C55 1.291 . S
C56 C57 1.373 . S
C56 H69 0.929 . S
C57 C56 1.373 . S
C57 C58 1.396 . S
C57 C64 1.403 . S
C58 C48 1.476 . S
C58 N53 1.318 . S
C58 C57 1.396 . S
H59 C54 0.929 . S
O60 Mn36 2.385 . S
O60 C38 1.234 . S
O61 Mn36 2.209 . S
O61 Mn37 2.215 . S
O61 C38 1.283 . S
O62 Mn36 2.094 . S
O62 C40 1.240 . S
O63 Mn37 2.117 . S
O63 C40 1.264 . S
C64 C57 1.403 . S
C64 C65 1.399 . S
C64 H70 0.929 . S
C65 C45 1.449 . S
C65 C64 1.399 . S
C65 H71 0.930 . S
H66 C46 0.931 . S
H67 C47 0.930 . S
H68 C55 0.931 . S
H69 C56 0.929 . S
H70 C64 0.929 . S
H71 C65 0.930 . S
Mn72 O77 2.095 . S
Mn72 O87 2.162 . S
Mn72 O88 2.297 . S
Mn72 O96 2.385 . S
Mn72 O97 2.209 . S
Mn72 O98 2.094 1_554 S
Mn73 O78 2.121 . S
Mn73 N80 2.257 . S
Mn73 N89 2.282 . S
Mn73 O97 2.215 1_556 S
Mn73 O99 2.117 . S
C74 O96 1.234 . S
C74 O97 1.283 . S
C75 O87 1.281 . S
C75 O88 1.236 . S
C76 O98 1.240 . S
C76 O99 1.264 . S
O77 Mn72 2.095 . S
O77 C86 1.250 1_554 S
O78 Mn73 2.121 . S
O78 C86 1.257 . S
C79 N80 1.326 . S
C79 C83 1.460 . S
C79 H85 0.929 . S
N80 Mn73 2.257 . S
N80 C79 1.326 . S
N80 C84 1.362 . S
C81 C82 1.258 . S
C81 C84 1.431 . S
C81 C101 1.449 . S
C82 C81 1.258 . S
C82 C83 1.477 . S
C82 H102 0.931 . S
C83 C79 1.460 . S
C83 C82 1.477 . S
C83 H103 0.930 . S
C84 N80 1.362 . S
C84 C81 1.431 . S
C84 C94 1.476 . S
H85 C79 0.929 . S
C86 O77 1.250 1_556 S
C86 O78 1.257 . S
O87 Mn72 2.162 . S
O87 C75 1.281 . S
O88 Mn72 2.297 . S
O88 C75 1.236 . S
N89 Mn73 2.282 . S
N89 C90 1.328 . S
N89 C94 1.318 . S
C90 N89 1.328 . S
C90 C91 1.457 . S
C90 H95 0.929 . S
C91 C90 1.457 . S
C91 C92 1.291 . S
C91 H104 0.931 . S
C92 C91 1.291 . S
C92 C93 1.373 . S
C92 H105 0.929 . S
C93 C92 1.373 . S
C93 C94 1.396 . S
C93 C100 1.403 . S
C94 C84 1.476 . S
C94 N89 1.318 . S
C94 C93 1.396 . S
H95 C90 0.929 . S
O96 Mn72 2.385 . S
O96 C74 1.234 . S
O97 Mn72 2.209 . S
O97 Mn73 2.215 1_554 S
O97 C74 1.283 . S
O98 Mn72 2.094 1_556 S
O98 C76 1.240 . S
O99 Mn73 2.117 . S
O99 C76 1.264 . S
C100 C93 1.403 . S
C100 C101 1.399 . S
C100 H106 0.929 . S
C101 C81 1.449 . S
C101 C100 1.399 . S
C101 H107 0.930 . S
H102 C82 0.931 . S
H103 C83 0.930 . S
H104 C91 0.931 . S
H105 C92 0.929 . S
H106 C100 0.929 . S
H107 C101 0.930 . S
Mn108 O113 2.095 . S
Mn108 O123 2.162 . S
Mn108 O124 2.297 . S
Mn108 O132 2.385 . S
Mn108 O133 2.209 . S
Mn108 O134 2.094 . S
Mn109 O114 2.121 . S
Mn109 N116 2.257 . S
Mn109 N125 2.282 . S
Mn109 O133 2.215 . S
Mn109 O135 2.117 . S
C110 O132 1.234 . S
C110 O133 1.283 . S
C111 O123 1.281 . S
C111 O124 1.236 . S
C112 O134 1.240 . S
C112 O135 1.264 . S
O113 Mn108 2.095 . S
O113 C122 1.250 . S
O114 Mn109 2.121 . S
O114 C122 1.258 . S
C115 N116 1.326 . S
C115 C119 1.460 . S
C115 H121 0.929 . S
N116 Mn109 2.257 . S
N116 C115 1.326 . S
N116 C120 1.362 . S
C117 C118 1.258 . S
C117 C120 1.431 . S
C117 C137 1.449 . S
C118 C117 1.258 . S
C118 C119 1.477 . S
C118 H138 0.931 . S
C119 C115 1.460 . S
C119 C118 1.477 . S
C119 H139 0.930 . S
C120 N116 1.362 . S
C120 C117 1.431 . S
C120 C130 1.476 . S
H121 C115 0.929 . S
C122 O113 1.250 . S
C122 O114 1.258 . S
O123 Mn108 2.162 . S
O123 C111 1.281 . S
O124 Mn108 2.297 . S
O124 C111 1.236 . S
N125 Mn109 2.282 . S
N125 C126 1.328 . S
N125 C130 1.318 . S
C126 N125 1.328 . S
C126 C127 1.457 . S
C126 H131 0.929 . S
C127 C126 1.457 . S
C127 C128 1.291 . S
C127 H140 0.931 . S
C128 C127 1.291 . S
C128 C129 1.373 . S
C128 H141 0.929 . S
C129 C128 1.373 . S
C129 C130 1.396 . S
C129 C136 1.403 . S
C130 C120 1.476 . S
C130 N125 1.318 . S
C130 C129 1.396 . S
H131 C126 0.929 . S
O132 Mn108 2.385 . S
O132 C110 1.234 . S
O133 Mn108 2.209 . S
O133 Mn109 2.215 . S
O133 C110 1.283 . S
O134 Mn108 2.094 . S
O134 C112 1.240 . S
O135 Mn109 2.117 . S
O135 C112 1.264 . S
C136 C129 1.403 . S
C136 C137 1.399 . S
C136 H142 0.929 . S
C137 C117 1.449 . S
C137 C136 1.399 . S
C137 H143 0.930 . S
H138 C118 0.931 . S
H139 C119 0.930 . S
H140 C127 0.931 . S
H141 C128 0.929 . S
H142 C136 0.929 . S
H143 C137 0.930 . S
Mn144 O149 2.095 . S
Mn144 O159 2.162 . S
Mn144 O160 2.297 . S
Mn144 O168 2.385 . S
Mn144 O169 2.209 . S
Mn144 O170 2.094 . S
Mn145 O150 2.121 . S
Mn145 N152 2.257 . S
Mn145 N161 2.282 . S
Mn145 O169 2.215 . S
Mn145 O171 2.117 . S
C146 O168 1.234 . S
C146 O169 1.283 . S
C147 O159 1.281 . S
C147 O160 1.236 . S
C148 O170 1.240 . S
C148 O171 1.264 . S
O149 Mn144 2.095 . S
O149 C158 1.250 . S
O150 Mn145 2.121 . S
O150 C158 1.258 . S
C151 N152 1.326 . S
C151 C155 1.460 . S
C151 H157 0.929 . S
N152 Mn145 2.257 . S
N152 C151 1.326 . S
N152 C156 1.362 . S
C153 C154 1.258 . S
C153 C156 1.431 . S
C153 C173 1.449 . S
C154 C153 1.258 . S
C154 C155 1.477 . S
C154 H174 0.931 . S
C155 C151 1.460 . S
C155 C154 1.477 . S
C155 H175 0.930 . S
C156 N152 1.362 . S
C156 C153 1.431 . S
C156 C166 1.476 . S
H157 C151 0.929 . S
C158 O149 1.250 . S
C158 O150 1.258 . S
O159 Mn144 2.162 . S
O159 C147 1.281 . S
O160 Mn144 2.297 . S
O160 C147 1.236 . S
N161 Mn145 2.282 . S
N161 C162 1.328 . S
N161 C166 1.318 . S
C162 N161 1.328 . S
C162 C163 1.457 . S
C162 H167 0.929 . S
C163 C162 1.457 . S
C163 C164 1.291 . S
C163 H176 0.931 . S
C164 C163 1.291 . S
C164 C165 1.373 . S
C164 H177 0.929 . S
C165 C164 1.373 . S
C165 C166 1.396 . S
C165 C172 1.403 . S
C166 C156 1.476 . S
C166 N161 1.318 . S
C166 C165 1.396 . S
H167 C162 0.929 . S
O168 Mn144 2.385 . S
O168 C146 1.234 . S
O169 Mn144 2.209 . S
O169 Mn145 2.215 . S
O169 C146 1.283 . S
O170 Mn144 2.094 . S
O170 C148 1.240 . S
O171 Mn145 2.117 . S
O171 C148 1.264 . S
C172 C165 1.403 . S
C172 C173 1.399 . S
C172 H178 0.929 . S
C173 C153 1.449 . S
C173 C172 1.399 . S
C173 H179 0.930 . S
H174 C154 0.931 . S
H175 C155 0.930 . S
H176 C163 0.931 . S
H177 C164 0.929 . S
H178 C172 0.929 . S
H179 C173 0.930 . S
Mn180 O185 2.095 . S
Mn180 O195 2.162 . S
Mn180 O196 2.297 . S
Mn180 O204 2.385 1_554 S
Mn180 O205 2.209 1_554 S
Mn180 O206 2.094 . S
Mn181 O186 2.121 . S
Mn181 N188 2.257 1_554 S
Mn181 N197 2.282 1_554 S
Mn181 O205 2.215 1_554 S
Mn181 O207 2.117 . S
C182 O204 1.234 . S
C182 O205 1.283 . S
C183 O195 1.281 . S
C183 O196 1.236 . S
C184 O206 1.240 . S
C184 O207 1.264 . S
O185 Mn180 2.095 . S
O185 C194 1.250 . S
O186 Mn181 2.121 . S
O186 C194 1.258 . S
C187 N188 1.326 1_554 S
C187 C191 1.460 1_554 S
C187 H193 0.929 . S
N188 Mn181 2.257 1_556 S
N188 C187 1.326 1_556 S
N188 C192 1.362 . S
C189 C190 1.258 . S
C189 C192 1.431 . S
C189 C209 1.449 . S
C190 C189 1.258 . S
C190 C191 1.477 . S
C190 H210 0.931 . S
C191 C187 1.460 1_556 S
C191 C190 1.477 . S
C191 H211 0.930 1_556 S
C192 N188 1.362 . S
C192 C189 1.431 . S
C192 C202 1.476 . S
H193 C187 0.929 . S
C194 O185 1.250 . S
C194 O186 1.258 . S
O195 Mn180 2.162 . S
O195 C183 1.281 . S
O196 Mn180 2.297 . S
O196 C183 1.236 . S
N197 Mn181 2.282 1_556 S
N197 C198 1.328 . S
N197 C202 1.318 . S
C198 N197 1.328 . S
C198 C199 1.457 . S
C198 H203 0.929 . S
C199 C198 1.457 . S
C199 C200 1.291 . S
C199 H212 0.931 . S
C200 C199 1.291 . S
C200 C201 1.373 . S
C200 H213 0.929 . S
C201 C200 1.373 . S
C201 C202 1.396 . S
C201 C208 1.403 . S
C202 C192 1.476 . S
C202 N197 1.318 . S
C202 C201 1.396 . S
H203 C198 0.929 . S
O204 Mn180 2.385 1_556 S
O204 C182 1.234 . S
O205 Mn180 2.209 1_556 S
O205 Mn181 2.215 1_556 S
O205 C182 1.283 . S
O206 Mn180 2.094 . S
O206 C184 1.240 . S
O207 Mn181 2.117 . S
O207 C184 1.264 . S
C208 C201 1.403 . S
C208 C209 1.399 . S
C208 H214 0.929 . S
C209 C189 1.449 . S
C209 C208 1.399 . S
C209 H215 0.930 . S
H210 C190 0.931 . S
H211 C191 0.930 1_554 S
H212 C199 0.931 . S
H213 C200 0.929 . S
H214 C208 0.929 . S
H215 C209 0.930 . S
Mn216 O221 2.095 . S
Mn216 O231 2.162 . S
Mn216 O232 2.297 . S
Mn216 O240 2.385 . S
Mn216 O241 2.209 . S
Mn216 O242 2.094 . S
Mn217 O222 2.121 . S
Mn217 N224 2.257 . S
Mn217 N233 2.282 . S
Mn217 O241 2.215 . S
Mn217 O243 2.117 . S
C218 O240 1.234 . S
C218 O241 1.283 . S
C219 O231 1.281 . S
C219 O232 1.236 . S
C220 O242 1.240 . S
C220 O243 1.264 . S
O221 Mn216 2.095 . S
O221 C230 1.250 . S
O222 Mn217 2.121 . S
O222 C230 1.258 . S
C223 N224 1.326 . S
C223 C227 1.460 . S
C223 H229 0.929 . S
N224 Mn217 2.257 . S
N224 C223 1.326 . S
N224 C228 1.362 . S
C225 C226 1.258 . S
C225 C228 1.431 . S
C225 C245 1.449 . S
C226 C225 1.258 . S
C226 C227 1.477 . S
C226 H246 0.931 . S
C227 C223 1.460 . S
C227 C226 1.477 . S
C227 H247 0.930 . S
C228 N224 1.362 . S
C228 C225 1.431 . S
C228 C238 1.476 . S
H229 C223 0.929 . S
C230 O221 1.250 . S
C230 O222 1.258 . S
O231 Mn216 2.162 . S
O231 C219 1.281 . S
O232 Mn216 2.297 . S
O232 C219 1.236 . S
N233 Mn217 2.282 . S
N233 C234 1.328 . S
N233 C238 1.318 . S
C234 N233 1.328 . S
C234 C235 1.457 . S
C234 H239 0.929 . S
C235 C234 1.457 . S
C235 C236 1.291 . S
C235 H248 0.931 . S
C236 C235 1.291 . S
C236 C237 1.373 . S
C236 H249 0.929 . S
C237 C236 1.373 . S
C237 C238 1.396 . S
C237 C244 1.403 . S
C238 C228 1.476 . S
C238 N233 1.318 . S
C238 C237 1.396 . S
H239 C234 0.929 . S
O240 Mn216 2.385 . S
O240 C218 1.234 . S
O241 Mn216 2.209 . S
O241 Mn217 2.215 . S
O241 C218 1.283 . S
O242 Mn216 2.094 . S
O242 C220 1.240 . S
O243 Mn217 2.117 . S
O243 C220 1.264 . S
C244 C237 1.403 . S
C244 C245 1.399 . S
C244 H250 0.929 . S
C245 C225 1.449 . S
C245 C244 1.399 . S
C245 H251 0.930 . S
H246 C226 0.931 . S
H247 C227 0.930 . S
H248 C235 0.931 . S
H249 C236 0.929 . S
H250 C244 0.929 . S
H251 C245 0.930 . S
Mn252 O257 2.095 . S
Mn252 O267 2.162 . S
Mn252 O268 2.297 . S
Mn252 O276 2.385 1_554 S
Mn252 O277 2.209 1_554 S
Mn252 O278 2.094 . S
Mn253 O258 2.121 . S
Mn253 N260 2.257 1_554 S
Mn253 N269 2.282 1_554 S
Mn253 O277 2.215 1_554 S
Mn253 O279 2.117 . S
C254 O276 1.234 . S
C254 O277 1.283 . S
C255 O267 1.281 . S
C255 O268 1.236 . S
C256 O278 1.240 . S
C256 O279 1.264 . S
O257 Mn252 2.095 . S
O257 C266 1.250 . S
O258 Mn253 2.121 . S
O258 C266 1.258 . S
C259 N260 1.326 1_554 S
C259 C263 1.460 1_554 S
C259 H265 0.929 . S
N260 Mn253 2.257 1_556 S
N260 C259 1.326 1_556 S
N260 C264 1.362 . S
C261 C262 1.258 . S
C261 C264 1.431 . S
C261 C281 1.449 . S
C262 C261 1.258 . S
C262 C263 1.477 . S
C262 H282 0.931 . S
C263 C259 1.460 1_556 S
C263 C262 1.477 . S
C263 H283 0.930 1_556 S
C264 N260 1.362 . S
C264 C261 1.431 . S
C264 C274 1.476 . S
H265 C259 0.929 . S
C266 O257 1.250 . S
C266 O258 1.258 . S
O267 Mn252 2.162 . S
O267 C255 1.281 . S
O268 Mn252 2.297 . S
O268 C255 1.236 . S
N269 Mn253 2.282 1_556 S
N269 C270 1.328 . S
N269 C274 1.318 . S
C270 N269 1.328 . S
C270 C271 1.457 . S
C270 H275 0.929 . S
C271 C270 1.457 . S
C271 C272 1.291 . S
C271 H284 0.931 . S
C272 C271 1.291 . S
C272 C273 1.373 . S
C272 H285 0.929 . S
C273 C272 1.373 . S
C273 C274 1.396 . S
C273 C280 1.403 . S
C274 C264 1.476 . S
C274 N269 1.318 . S
C274 C273 1.396 . S
H275 C270 0.929 . S
O276 Mn252 2.385 1_556 S
O276 C254 1.234 . S
O277 Mn252 2.209 1_556 S
O277 Mn253 2.215 1_556 S
O277 C254 1.283 . S
O278 Mn252 2.094 . S
O278 C256 1.240 . S
O279 Mn253 2.117 . S
O279 C256 1.264 . S
C280 C273 1.403 . S
C280 C281 1.399 . S
C280 H286 0.929 . S
C281 C261 1.449 . S
C281 C280 1.399 . S
C281 H287 0.930 . S
H282 C262 0.931 . S
H283 C263 0.930 1_554 S
H284 C271 0.931 . S
H285 C272 0.929 . S
H286 C280 0.929 . S
H287 C281 0.930 . S
H288 C296 0.929 . S
H289 C298 0.930 . S
H290 C300 0.930 . S
H291 C303 0.929 . S
H292 C306 0.930 . S
H293 C308 0.960 . S
H294 C308 0.960 . S
H295 C308 0.960 . S
C296 H288 0.929 . S
C296 C297 1.377 . S
C296 C298 1.384 . S
C297 C296 1.377 . S
C297 C303 1.390 . S
C298 H289 0.930 . S
C298 C296 1.384 . S
C298 C299 1.372 . S
C299 C298 1.372 . S
C299 C300 1.400 . S
C299 C304 1.490 . S
C300 H290 0.930 . S
C300 C299 1.400 . S
C300 C303 1.386 . S
H301 C317 0.930 . S
H302 C318 0.931 . S
C303 H291 0.929 . S
C303 C297 1.390 . S
C303 C300 1.386 . S
C304 C299 1.490 . S
C304 C306 1.395 . S
C304 C307 1.403 . S
H305 C311 0.930 . S
C306 H292 0.930 . S
C306 C304 1.395 . S
C306 C309 1.403 . S
C307 C304 1.403 . S
C307 C308 1.524 . S
C307 C311 1.400 . S
C308 H293 0.960 . S
C308 H294 0.960 . S
C308 H295 0.960 . S
C308 C307 1.524 . S
C309 C306 1.403 . S
C309 C310 1.392 . S
C309 C313 1.495 . S
C310 C309 1.392 . S
C310 C311 1.385 . S
C310 C312 1.478 . S
C311 H305 0.930 . S
C311 C307 1.400 . S
C311 C310 1.385 . S
C312 C310 1.478 . S
C312 C314 1.381 . S
C312 C318 1.383 . S
C313 C309 1.495 . S
C313 H319 0.959 . S
C313 H320 0.961 . S
C313 H321 0.960 . S
C314 C312 1.381 . S
C314 C315 1.394 . S
C314 H322 0.930 . S
C315 C314 1.394 . S
C315 C316 1.383 . S
C315 H323 0.929 . S
C316 C315 1.383 . S
C316 C317 1.377 . S
C317 H301 0.930 . S
C317 C316 1.377 . S
C317 C318 1.379 . S
C318 H302 0.931 . S
C318 C312 1.383 . S
C318 C317 1.379 . S
H319 C313 0.959 . S
H320 C313 0.961 . S
H321 C313 0.960 . S
H322 C314 0.930 . S
H323 C315 0.929 . S
H324 C332 0.929 . S
H325 C334 0.930 . S
H326 C336 0.930 . S
H327 C339 0.929 . S
H328 C342 0.930 . S
H329 C344 0.960 . S
H330 C344 0.960 . S
H331 C344 0.960 . S
C332 H324 0.929 . S
C332 C333 1.377 . S
C332 C334 1.384 . S
C333 C332 1.377 . S
C333 C339 1.390 . S
C334 H325 0.930 . S
C334 C332 1.384 . S
C334 C335 1.372 . S
C335 C334 1.372 . S
C335 C336 1.400 . S
C335 C340 1.490 . S
C336 H326 0.930 . S
C336 C335 1.400 . S
C336 C339 1.386 . S
H337 C353 0.930 . S
H338 C354 0.931 . S
C339 H327 0.929 . S
C339 C333 1.390 . S
C339 C336 1.386 . S
C340 C335 1.490 . S
C340 C342 1.395 . S
C340 C343 1.403 . S
H341 C347 0.930 . S
C342 H328 0.930 . S
C342 C340 1.395 . S
C342 C345 1.403 . S
C343 C340 1.403 . S
C343 C344 1.524 . S
C343 C347 1.400 . S
C344 H329 0.960 . S
C344 H330 0.960 . S
C344 H331 0.960 . S
C344 C343 1.524 . S
C345 C342 1.403 . S
C345 C346 1.392 . S
C345 C349 1.495 . S
C346 C345 1.392 . S
C346 C347 1.385 . S
C346 C348 1.478 . S
C347 H341 0.930 . S
C347 C343 1.400 . S
C347 C346 1.385 . S
C348 C346 1.478 . S
C348 C350 1.381 . S
C348 C354 1.383 . S
C349 C345 1.495 . S
C349 H355 0.959 . S
C349 H356 0.961 . S
C349 H357 0.960 . S
C350 C348 1.381 . S
C350 C351 1.394 . S
C350 H358 0.930 . S
C351 C350 1.394 . S
C351 C352 1.383 . S
C351 H359 0.929 . S
C352 C351 1.383 . S
C352 C353 1.377 . S
C353 H337 0.930 . S
C353 C352 1.377 . S
C353 C354 1.379 . S
C354 H338 0.931 . S
C354 C348 1.383 . S
C354 C353 1.379 . S
H355 C349 0.959 . S
H356 C349 0.961 . S
H357 C349 0.960 . S
H358 C350 0.930 . S
H359 C351 0.929 . S
H360 C368 0.929 . S
H361 C370 0.930 . S
H362 C372 0.930 . S
H363 C375 0.929 . S
H364 C378 0.930 . S
H365 C380 0.960 . S
H366 C380 0.960 . S
H367 C380 0.960 . S
C368 H360 0.929 . S
C368 C369 1.377 . S
C368 C370 1.384 . S
C369 C368 1.377 . S
C369 C375 1.390 . S
C370 H361 0.930 . S
C370 C368 1.384 . S
C370 C371 1.372 . S
C371 C370 1.372 . S
C371 C372 1.400 . S
C371 C376 1.490 . S
C372 H362 0.930 . S
C372 C371 1.400 . S
C372 C375 1.386 . S
H373 C389 0.930 . S
H374 C390 0.931 . S
C375 H363 0.929 . S
C375 C369 1.390 . S
C375 C372 1.386 . S
C376 C371 1.490 . S
C376 C378 1.395 . S
C376 C379 1.403 . S
H377 C383 0.930 . S
C378 H364 0.930 . S
C378 C376 1.395 . S
C378 C381 1.403 . S
C379 C376 1.403 . S
C379 C380 1.524 . S
C379 C383 1.400 . S
C380 H365 0.960 . S
C380 H366 0.960 . S
C380 H367 0.960 . S
C380 C379 1.524 . S
C381 C378 1.403 . S
C381 C382 1.392 . S
C381 C385 1.495 . S
C382 C381 1.392 . S
C382 C383 1.385 . S
C382 C384 1.478 . S
C383 H377 0.930 . S
C383 C379 1.400 . S
C383 C382 1.385 . S
C384 C382 1.478 . S
C384 C386 1.381 . S
C384 C390 1.383 . S
C385 C381 1.495 . S
C385 H391 0.959 . S
C385 H392 0.961 . S
C385 H393 0.960 . S
C386 C384 1.381 . S
C386 C387 1.394 . S
C386 H394 0.930 . S
C387 C386 1.394 . S
C387 C388 1.383 . S
C387 H395 0.929 . S
C388 C387 1.383 . S
C388 C389 1.377 . S
C389 H373 0.930 . S
C389 C388 1.377 . S
C389 C390 1.379 . S
C390 H374 0.931 . S
C390 C384 1.383 . S
C390 C389 1.379 . S
H391 C385 0.959 . S
H392 C385 0.961 . S
H393 C385 0.960 . S
H394 C386 0.930 . S
H395 C387 0.929 . S
H396 C404 0.929 . S
H397 C406 0.930 . S
H398 C408 0.930 . S
H399 C411 0.929 . S
H400 C414 0.930 . S
H401 C416 0.960 . S
H402 C416 0.960 . S
H403 C416 0.960 . S
C404 H396 0.929 . S
C404 C405 1.377 . S
C404 C406 1.384 . S
C405 C404 1.377 . S
C405 C411 1.390 . S
C406 H397 0.930 . S
C406 C404 1.384 . S
C406 C407 1.372 . S
C407 C406 1.372 . S
C407 C408 1.400 . S
C407 C412 1.490 . S
C408 H398 0.930 . S
C408 C407 1.400 . S
C408 C411 1.386 . S
H409 C425 0.930 . S
H410 C426 0.931 . S
C411 H399 0.929 . S
C411 C405 1.390 . S
C411 C408 1.386 . S
C412 C407 1.490 . S
C412 C414 1.395 . S
C412 C415 1.403 . S
H413 C419 0.930 . S
C414 H400 0.930 . S
C414 C412 1.395 . S
C414 C417 1.403 . S
C415 C412 1.403 . S
C415 C416 1.524 . S
C415 C419 1.400 . S
C416 H401 0.960 . S
C416 H402 0.960 . S
C416 H403 0.960 . S
C416 C415 1.524 . S
C417 C414 1.403 . S
C417 C418 1.392 . S
C417 C421 1.495 . S
C418 C417 1.392 . S
C418 C419 1.385 . S
C418 C420 1.478 . S
C419 H413 0.930 . S
C419 C415 1.400 . S
C419 C418 1.385 . S
C420 C418 1.478 . S
C420 C422 1.381 . S
C420 C426 1.383 . S
C421 C417 1.495 . S
C421 H427 0.959 . S
C421 H428 0.961 . S
C421 H429 0.960 . S
C422 C420 1.381 . S
C422 C423 1.394 . S
C422 H430 0.930 . S
C423 C422 1.394 . S
C423 C424 1.383 . S
C423 H431 0.929 . S
C424 C423 1.383 . S
C424 C425 1.377 . S
C425 H409 0.930 . S
C425 C424 1.377 . S
C425 C426 1.379 . S
C426 H410 0.931 . S
C426 C420 1.383 . S
C426 C425 1.379 . S
H427 C421 0.959 . S
H428 C421 0.961 . S
H429 C421 0.960 . S
H430 C422 0.930 . S
H431 C423 0.929 . S
H432 C440 0.929 . S
H433 C442 0.930 . S
H434 C444 0.930 . S
H435 C447 0.929 . S
H436 C450 0.930 . S
H437 C452 0.960 . S
H438 C452 0.960 . S
H439 C452 0.960 . S
C440 H432 0.929 . S
C440 C441 1.377 . S
C440 C442 1.384 . S
C441 C440 1.377 . S
C441 C447 1.390 . S
C442 H433 0.930 . S
C442 C440 1.384 . S
C442 C443 1.372 . S
C443 C442 1.372 . S
C443 C444 1.400 . S
C443 C448 1.490 . S
C444 H434 0.930 . S
C444 C443 1.400 . S
C444 C447 1.386 . S
H445 C461 0.930 . S
H446 C462 0.931 . S
C447 H435 0.929 . S
C447 C441 1.390 . S
C447 C444 1.386 . S
C448 C443 1.490 . S
C448 C450 1.395 . S
C448 C451 1.403 . S
H449 C455 0.930 . S
C450 H436 0.930 . S
C450 C448 1.395 . S
C450 C453 1.403 . S
C451 C448 1.403 . S
C451 C452 1.524 . S
C451 C455 1.400 . S
C452 H437 0.960 . S
C452 H438 0.960 . S
C452 H439 0.960 . S
C452 C451 1.524 . S
C453 C450 1.403 . S
C453 C454 1.392 . S
C453 C457 1.495 . S
C454 C453 1.392 . S
C454 C455 1.385 . S
C454 C456 1.478 . S
C455 H449 0.930 . S
C455 C451 1.400 . S
C455 C454 1.385 . S
C456 C454 1.478 . S
C456 C458 1.381 . S
C456 C462 1.383 . S
C457 C453 1.495 . S
C457 H463 0.959 . S
C457 H464 0.961 . S
C457 H465 0.960 . S
C458 C456 1.381 . S
C458 C459 1.394 . S
C458 H466 0.930 . S
C459 C458 1.394 . S
C459 C460 1.383 . S
C459 H467 0.929 . S
C460 C459 1.383 . S
C460 C461 1.377 . S
C461 H445 0.930 . S
C461 C460 1.377 . S
C461 C462 1.379 . S
C462 H446 0.931 . S
C462 C456 1.383 . S
C462 C461 1.379 . S
H463 C457 0.959 . S
H464 C457 0.961 . S
H465 C457 0.960 . S
H466 C458 0.930 . S
H467 C459 0.929 . S
H468 C476 0.929 . S
H469 C478 0.930 . S
H470 C480 0.930 . S
H471 C483 0.929 . S
H472 C486 0.930 . S
H473 C488 0.960 . S
H474 C488 0.960 . S
H475 C488 0.960 . S
C476 H468 0.929 . S
C476 C477 1.377 . S
C476 C478 1.384 . S
C477 C476 1.377 . S
C477 C483 1.390 . S
C478 H469 0.930 . S
C478 C476 1.384 . S
C478 C479 1.372 . S
C479 C478 1.372 . S
C479 C480 1.400 . S
C479 C484 1.490 . S
C480 H470 0.930 . S
C480 C479 1.400 . S
C480 C483 1.386 . S
H481 C497 0.930 . S
H482 C498 0.931 . S
C483 H471 0.929 . S
C483 C477 1.390 . S
C483 C480 1.386 . S
C484 C479 1.490 . S
C484 C486 1.395 . S
C484 C487 1.403 . S
H485 C491 0.930 . S
C486 H472 0.930 . S
C486 C484 1.395 . S
C486 C489 1.403 . S
C487 C484 1.403 . S
C487 C488 1.524 . S
C487 C491 1.400 . S
C488 H473 0.960 . S
C488 H474 0.960 . S
C488 H475 0.960 . S
C488 C487 1.524 . S
C489 C486 1.403 . S
C489 C490 1.392 . S
C489 C493 1.495 . S
C490 C489 1.392 . S
C490 C491 1.385 . S
C490 C492 1.478 . S
C491 H485 0.930 . S
C491 C487 1.400 . S
C491 C490 1.385 . S
C492 C490 1.478 . S
C492 C494 1.381 . S
C492 C498 1.383 . S
C493 C489 1.495 . S
C493 H499 0.959 . S
C493 H500 0.961 . S
C493 H501 0.960 . S
C494 C492 1.381 . S
C494 C495 1.394 . S
C494 H502 0.930 . S
C495 C494 1.394 . S
C495 C496 1.383 . S
C495 H503 0.929 . S
C496 C495 1.383 . S
C496 C497 1.377 . S
C497 H481 0.930 . S
C497 C496 1.377 . S
C497 C498 1.379 . S
C498 H482 0.931 . S
C498 C492 1.383 . S
C498 C497 1.379 . S
H499 C493 0.959 . S
H500 C493 0.961 . S
H501 C493 0.960 . S
H502 C494 0.930 . S
H503 C495 0.929 . S
H504 C512 0.929 . S
H505 C514 0.930 . S
H506 C516 0.930 . S
H507 C519 0.929 . S
H508 C522 0.930 . S
H509 C524 0.960 . S
H510 C524 0.960 . S
H511 C524 0.960 . S
C512 H504 0.929 . S
C512 C513 1.377 . S
C512 C514 1.384 . S
C513 C512 1.377 . S
C513 C519 1.390 . S
C514 H505 0.930 . S
C514 C512 1.384 . S
C514 C515 1.372 . S
C515 C514 1.372 . S
C515 C516 1.400 . S
C515 C520 1.490 . S
C516 H506 0.930 . S
C516 C515 1.400 . S
C516 C519 1.386 . S
H517 C533 0.930 . S
H518 C534 0.931 . S
C519 H507 0.929 . S
C519 C513 1.390 . S
C519 C516 1.386 . S
C520 C515 1.490 . S
C520 C522 1.395 . S
C520 C523 1.403 . S
H521 C527 0.930 . S
C522 H508 0.930 . S
C522 C520 1.395 . S
C522 C525 1.403 . S
C523 C520 1.403 . S
C523 C524 1.524 . S
C523 C527 1.400 . S
C524 H509 0.960 . S
C524 H510 0.960 . S
C524 H511 0.960 . S
C524 C523 1.524 . S
C525 C522 1.403 . S
C525 C526 1.392 . S
C525 C529 1.495 . S
C526 C525 1.392 . S
C526 C527 1.385 . S
C526 C528 1.478 . S
C527 H521 0.930 . S
C527 C523 1.400 . S
C527 C526 1.385 . S
C528 C526 1.478 . S
C528 C530 1.381 . S
C528 C534 1.383 . S
C529 C525 1.495 . S
C529 H535 0.959 . S
C529 H536 0.961 . S
C529 H537 0.960 . S
C530 C528 1.381 . S
C530 C531 1.394 . S
C530 H538 0.930 . S
C531 C530 1.394 . S
C531 C532 1.383 . S
C531 H539 0.929 . S
C532 C531 1.383 . S
C532 C533 1.377 . S
C533 H517 0.930 . S
C533 C532 1.377 . S
C533 C534 1.379 . S
C534 H518 0.931 . S
C534 C528 1.383 . S
C534 C533 1.379 . S
H535 C529 0.959 . S
H536 C529 0.961 . S
H537 C529 0.960 . S
H538 C530 0.930 . S
H539 C531 0.929 . S
H540 C548 0.929 . S
H541 C550 0.930 . S
H542 C552 0.930 . S
H543 C555 0.929 . S
H544 C558 0.930 . S
H545 C560 0.960 . S
H546 C560 0.960 . S
H547 C560 0.960 . S
C548 H540 0.929 . S
C548 C549 1.377 . S
C548 C550 1.384 . S
C549 C548 1.377 . S
C549 C555 1.390 . S
C550 H541 0.930 . S
C550 C548 1.384 . S
C550 C551 1.372 . S
C551 C550 1.372 . S
C551 C552 1.400 . S
C551 C556 1.490 . S
C552 H542 0.930 . S
C552 C551 1.400 . S
C552 C555 1.386 . S
H553 C569 0.930 . S
H554 C570 0.931 . S
C555 H543 0.929 . S
C555 C549 1.390 . S
C555 C552 1.386 . S
C556 C551 1.490 . S
C556 C558 1.395 . S
C556 C559 1.403 . S
H557 C563 0.930 . S
C558 H544 0.930 . S
C558 C556 1.395 . S
C558 C561 1.403 . S
C559 C556 1.403 . S
C559 C560 1.524 . S
C559 C563 1.400 . S
C560 H545 0.960 . S
C560 H546 0.960 . S
C560 H547 0.960 . S
C560 C559 1.524 . S
C561 C558 1.403 . S
C561 C562 1.392 . S
C561 C565 1.495 . S
C562 C561 1.392 . S
C562 C563 1.385 . S
C562 C564 1.478 . S
C563 H557 0.930 . S
C563 C559 1.400 . S
C563 C562 1.385 . S
C564 C562 1.478 . S
C564 C566 1.381 . S
C564 C570 1.383 . S
C565 C561 1.495 . S
C565 H571 0.959 . S
C565 H572 0.961 . S
C565 H573 0.960 . S
C566 C564 1.381 . S
C566 C567 1.394 . S
C566 H574 0.930 . S
C567 C566 1.394 . S
C567 C568 1.383 . S
C567 H575 0.929 . S
C568 C567 1.383 . S
C568 C569 1.377 . S
C569 H553 0.930 . S
C569 C568 1.377 . S
C569 C570 1.379 . S
C570 H554 0.931 . S
C570 C564 1.383 . S
C570 C569 1.379 . S
H571 C565 0.959 . S
H572 C565 0.961 . S
H573 C565 0.960 . S
H574 C566 0.930 . S
H575 C567 0.929 . S
H576 C584 0.929 . S
H577 C586 0.930 . S
H578 C588 0.930 . S
H579 C591 0.929 . S
H580 C594 0.930 . S
H581 C596 0.960 . S
H582 C596 0.960 . S
H583 C596 0.960 . S
C584 H576 0.929 . S
C584 C585 1.377 1_556 S
C584 C586 1.384 . S
C585 C584 1.377 1_554 S
C585 C591 1.390 . S
C586 H577 0.930 . S
C586 C584 1.384 . S
C586 C587 1.372 1_556 S
C587 C586 1.372 1_554 S
C587 C588 1.400 . S
C587 C592 1.490 . S
C588 H578 0.930 . S
C588 C587 1.400 . S
C588 C591 1.386 . S
H589 C605 0.930 . S
H590 C606 0.931 . S
C591 H579 0.929 . S
C591 C585 1.390 . S
C591 C588 1.386 . S
C592 C587 1.490 . S
C592 C594 1.395 1_554 S
C592 C595 1.403 . S
H593 C599 0.930 . S
C594 H580 0.930 . S
C594 C592 1.395 1_556 S
C594 C597 1.403 1_655 S
C595 C592 1.403 . S
C595 C596 1.524 . S
C595 C599 1.400 1_655 S
C596 H581 0.960 . S
C596 H582 0.960 . S
C596 H583 0.960 . S
C596 C595 1.524 . S
C597 C594 1.403 1_455 S
C597 C598 1.392 1_556 S
C597 C601 1.495 . S
C598 C597 1.392 1_554 S
C598 C599 1.385 . S
C598 C600 1.478 . S
C599 H593 0.930 . S
C599 C595 1.400 1_455 S
C599 C598 1.385 . S
C600 C598 1.478 . S
C600 C602 1.381 1_554 S
C600 C606 1.383 . S
C601 C597 1.495 . S
C601 H607 0.959 . S
C601 H608 0.961 1_556 S
C601 H609 0.960 . S
C602 C600 1.381 1_556 S
C602 C603 1.394 . S
C602 H610 0.930 . S
C603 C602 1.394 . S
C603 C604 1.383 1_556 S
C603 H611 0.929 . S
C604 C603 1.383 1_554 S
C604 C605 1.377 . S
C605 H589 0.930 . S
C605 C604 1.377 . S
C605 C606 1.379 . S
C606 H590 0.931 . S
C606 C600 1.383 . S
C606 C605 1.379 . S
H607 C601 0.959 . S
H608 C601 0.961 1_554 S
H609 C601 0.960 . S
H610 C602 0.930 . S
H611 C603 0.929 . S
H612 C620 0.929 . S
H613 C622 0.930 . S
H614 C624 0.930 . S
H615 C627 0.929 . S
H616 C630 0.930 . S
H617 C632 0.960 . S
H618 C632 0.960 . S
H619 C632 0.960 . S
C620 H612 0.929 . S
C620 C621 1.377 . S
C620 C622 1.384 . S
C621 C620 1.377 . S
C621 C627 1.390 . S
C622 H613 0.930 . S
C622 C620 1.384 . S
C622 C623 1.372 . S
C623 C622 1.372 . S
C623 C624 1.400 . S
C623 C628 1.490 . S
C624 H614 0.930 . S
C624 C623 1.400 . S
C624 C627 1.386 . S
H625 C641 0.930 . S
H626 C642 0.931 . S
C627 H615 0.929 . S
C627 C621 1.390 . S
C627 C624 1.386 . S
C628 C623 1.490 . S
C628 C630 1.395 . S
C628 C631 1.403 . S
H629 C635 0.930 . S
C630 H616 0.930 . S
C630 C628 1.395 . S
C630 C633 1.403 1_565 S
C631 C628 1.403 . S
C631 C632 1.524 . S
C631 C635 1.400 1_565 S
C632 H617 0.960 . S
C632 H618 0.960 . S
C632 H619 0.960 . S
C632 C631 1.524 . S
C633 C630 1.403 1_545 S
C633 C634 1.392 . S
C633 C637 1.495 . S
C634 C633 1.392 . S
C634 C635 1.385 . S
C634 C636 1.478 . S
C635 H629 0.930 . S
C635 C631 1.400 1_545 S
C635 C634 1.385 . S
C636 C634 1.478 . S
C636 C638 1.381 . S
C636 C642 1.383 . S
C637 C633 1.495 . S
C637 H643 0.959 . S
C637 H644 0.961 . S
C637 H645 0.960 . S
C638 C636 1.381 . S
C638 C639 1.394 . S
C638 H646 0.930 . S
C639 C638 1.394 . S
C639 C640 1.383 . S
C639 H647 0.929 . S
C640 C639 1.383 . S
C640 C641 1.377 . S
C641 H625 0.930 . S
C641 C640 1.377 . S
C641 C642 1.379 . S
C642 H626 0.931 . S
C642 C636 1.383 . S
C642 C641 1.379 . S
H643 C637 0.959 . S
H644 C637 0.961 . S
H645 C637 0.960 . S
H646 C638 0.930 . S
H647 C639 0.929 . S
H648 C656 0.929 . S
H649 C658 0.930 . S
H650 C660 0.930 . S
H651 C663 0.929 . S
H652 C666 0.930 . S
H653 C668 0.960 . S
H654 C668 0.960 . S
H655 C668 0.960 . S
C656 H648 0.929 . S
C656 C657 1.377 . S
C656 C658 1.384 . S
C657 C656 1.377 . S
C657 C663 1.390 . S
C658 H649 0.930 . S
C658 C656 1.384 . S
C658 C659 1.372 . S
C659 C658 1.372 . S
C659 C660 1.400 . S
C659 C664 1.490 . S
C660 H650 0.930 . S
C660 C659 1.400 . S
C660 C663 1.386 . S
H661 C677 0.930 . S
H662 C678 0.931 . S
C663 H651 0.929 . S
C663 C657 1.390 . S
C663 C660 1.386 . S
C664 C659 1.490 . S
C664 C666 1.395 . S
C664 C667 1.403 . S
H665 C671 0.930 . S
C666 H652 0.930 . S
C666 C664 1.395 . S
C666 C669 1.403 1_455 S
C667 C664 1.403 . S
C667 C668 1.524 . S
C667 C671 1.400 1_455 S
C668 H653 0.960 . S
C668 H654 0.960 . S
C668 H655 0.960 . S
C668 C667 1.524 . S
C669 C666 1.403 1_655 S
C669 C670 1.392 . S
C669 C673 1.495 . S
C670 C669 1.392 . S
C670 C671 1.385 . S
C670 C672 1.478 . S
C671 H665 0.930 . S
C671 C667 1.400 1_655 S
C671 C670 1.385 . S
C672 C670 1.478 . S
C672 C674 1.381 . S
C672 C678 1.383 . S
C673 C669 1.495 . S
C673 H679 0.959 . S
C673 H680 0.961 . S
C673 H681 0.960 . S
C674 C672 1.381 . S
C674 C675 1.394 . S
C674 H682 0.930 . S
C675 C674 1.394 . S
C675 C676 1.383 . S
C675 H683 0.929 . S
C676 C675 1.383 . S
C676 C677 1.377 . S
C677 H661 0.930 . S
C677 C676 1.377 . S
C677 C678 1.379 . S
C678 H662 0.931 . S
C678 C672 1.383 . S
C678 C677 1.379 . S
H679 C673 0.959 . S
H680 C673 0.961 . S
H681 C673 0.960 . S
H682 C674 0.930 . S
H683 C675 0.929 . S
H684 C692 0.929 . S
H685 C694 0.930 . S
H686 C696 0.930 . S
H687 C699 0.929 . S
H688 C702 0.930 . S
H689 C704 0.960 . S
H690 C704 0.960 . S
H691 C704 0.960 . S
C692 H684 0.929 . S
C692 C693 1.377 1_556 S
C692 C694 1.384 . S
C693 C692 1.377 1_554 S
C693 C699 1.390 . S
C694 H685 0.930 . S
C694 C692 1.384 . S
C694 C695 1.372 1_556 S
C695 C694 1.372 1_554 S
C695 C696 1.400 . S
C695 C700 1.490 . S
C696 H686 0.930 . S
C696 C695 1.400 . S
C696 C699 1.386 . S
H697 C713 0.930 . S
H698 C714 0.931 . S
C699 H687 0.929 . S
C699 C693 1.390 . S
C699 C696 1.386 . S
C700 C695 1.490 . S
C700 C702 1.395 1_554 S
C700 C703 1.403 . S
H701 C707 0.930 . S
C702 H688 0.930 . S
C702 C700 1.395 1_556 S
C702 C705 1.403 1_565 S
C703 C700 1.403 . S
C703 C704 1.524 . S
C703 C707 1.400 1_565 S
C704 H689 0.960 . S
C704 H690 0.960 . S
C704 H691 0.960 . S
C704 C703 1.524 . S
C705 C702 1.403 1_545 S
C705 C706 1.392 . S
C705 C709 1.495 . S
C706 C705 1.392 . S
C706 C707 1.385 1_556 S
C706 C708 1.478 . S
C707 H701 0.930 . S
C707 C703 1.400 1_545 S
C707 C706 1.385 1_554 S
C708 C706 1.478 . S
C708 C710 1.381 . S
C708 C714 1.383 1_556 S
C709 C705 1.495 . S
C709 H715 0.959 . S
C709 H716 0.961 . S
C709 H717 0.960 . S
C710 C708 1.381 . S
C710 C711 1.394 . S
C710 H718 0.930 . S
C711 C710 1.394 . S
C711 C712 1.379 1_556 S
C711 H719 0.929 . S
C712 C711 1.379 1_554 S
C712 C713 1.380 . S
C713 H697 0.930 . S
C713 C712 1.380 . S
C713 C714 1.379 . S
C714 H698 0.931 . S
C714 C708 1.383 1_554 S
C714 C713 1.379 . S
H715 C709 0.959 . S
H716 C709 0.961 . S
H717 C709 0.960 . S
H718 C710 0.930 . S
H719 C711 0.929 . S
H720 C728 0.929 . S
H721 C730 0.930 . S
H722 C732 0.930 . S
H723 C735 0.929 . S
H724 C738 0.930 . S
H725 C740 0.960 . S
H726 C740 0.960 . S
H727 C740 0.960 1_556 S
C728 H720 0.929 . S
C728 C729 1.377 . S
C728 C730 1.384 . S
C729 C728 1.377 . S
C729 C735 1.390 1_554 S
C730 H721 0.930 . S
C730 C728 1.384 . S
C730 C731 1.372 . S
C731 C730 1.372 . S
C731 C732 1.400 1_554 S
C731 C736 1.490 . S
C732 H722 0.930 . S
C732 C731 1.400 1_556 S
C732 C735 1.386 . S
H733 C749 0.930 . S
H734 C750 0.931 . S
C735 H723 0.929 . S
C735 C729 1.390 1_556 S
C735 C732 1.386 . S
C736 C731 1.490 . S
C736 C738 1.395 . S
C736 C739 1.403 . S
H737 C743 0.930 . S
C738 H724 0.930 . S
C738 C736 1.395 . S
C738 C741 1.403 . S
C739 C736 1.403 . S
C739 C740 1.524 . S
C739 C743 1.400 . S
C740 H725 0.960 . S
C740 H726 0.960 . S
C740 H727 0.960 1_554 S
C740 C739 1.524 . S
C741 C738 1.403 . S
C741 C742 1.392 . S
C741 C745 1.495 . S
C742 C741 1.392 . S
C742 C743 1.385 . S
C742 C744 1.478 . S
C743 H737 0.930 . S
C743 C739 1.400 . S
C743 C742 1.385 . S
C744 C742 1.478 . S
C744 C746 1.381 . S
C744 C750 1.383 1_554 S
C745 C741 1.495 . S
C745 H751 0.959 . S
C745 H752 0.961 1_554 S
C745 H753 0.960 . S
C746 C744 1.381 . S
C746 C747 1.394 . S
C746 H754 0.930 . S
C747 C746 1.394 . S
C747 C748 1.383 . S
C747 H755 0.929 . S
C748 C747 1.383 . S
C748 C749 1.377 1_554 S
C749 H733 0.930 . S
C749 C748 1.377 1_556 S
C749 C750 1.379 . S
C750 H734 0.931 . S
C750 C744 1.383 1_556 S
C750 C749 1.379 . S
H751 C745 0.959 . S
H752 C745 0.961 1_556 S
H753 C745 0.960 . S
H754 C746 0.930 . S
H755 C747 0.929 . S
H756 C764 0.929 . S
H757 C766 0.930 . S
H758 C768 0.930 . S
H759 C771 0.929 . S
H760 C774 0.930 . S
H761 C776 0.960 . S
H762 C776 0.960 . S
H763 C776 0.960 . S
C764 H756 0.929 . S
C764 C765 1.377 . S
C764 C766 1.384 . S
C765 C764 1.377 . S
C765 C771 1.390 . S
C766 H757 0.930 . S
C766 C764 1.384 . S
C766 C767 1.372 . S
C767 C766 1.372 . S
C767 C768 1.400 . S
C767 C772 1.490 . S
C768 H758 0.930 . S
C768 C767 1.400 . S
C768 C771 1.386 . S
H769 C785 0.930 . S
H770 C786 0.931 . S
C771 H759 0.929 . S
C771 C765 1.390 . S
C771 C768 1.386 . S
C772 C767 1.490 . S
C772 C774 1.395 . S
C772 C775 1.403 . S
H773 C779 0.930 . S
C774 H760 0.930 . S
C774 C772 1.395 . S
C774 C777 1.403 . S
C775 C772 1.403 . S
C775 C776 1.524 . S
C775 C779 1.400 . S
C776 H761 0.960 . S
C776 H762 0.960 . S
C776 H763 0.960 . S
C776 C775 1.524 . S
C777 C774 1.403 . S
C777 C778 1.392 . S
C777 C781 1.495 . S
C778 C777 1.392 . S
C778 C779 1.385 . S
C778 C780 1.478 . S
C779 H773 0.930 . S
C779 C775 1.400 . S
C779 C778 1.385 . S
C780 C778 1.478 . S
C780 C782 1.381 . S
C780 C786 1.383 . S
C781 C777 1.495 . S
C781 H787 0.959 . S
C781 H788 0.961 . S
C781 H789 0.960 . S
C782 C780 1.381 . S
C782 C783 1.394 . S
C782 H790 0.930 . S
C783 C782 1.394 . S
C783 C784 1.383 . S
C783 H791 0.929 . S
C784 C783 1.383 . S
C784 C785 1.377 . S
C785 H769 0.930 . S
C785 C784 1.377 . S
C785 C786 1.379 . S
C786 H770 0.931 . S
C786 C780 1.383 . S
C786 C785 1.379 . S
H787 C781 0.959 . S
H788 C781 0.961 . S
H789 C781 0.960 . S
H790 C782 0.930 . S
H791 C783 0.929 . S
H792 C800 0.929 . S
H793 C802 0.930 . S
H794 C804 0.930 . S
H795 C807 0.929 . S
H796 C810 0.930 . S
H797 C812 0.960 . S
H798 C812 0.960 . S
H799 C812 0.960 . S
C800 H792 0.929 . S
C800 C801 1.377 1_556 S
C800 C802 1.384 . S
C801 C800 1.377 1_554 S
C801 C807 1.390 . S
C802 H793 0.930 . S
C802 C800 1.384 . S
C802 C803 1.372 1_556 S
C803 C802 1.372 1_554 S
C803 C804 1.400 . S
C803 C808 1.490 . S
C804 H794 0.930 . S
C804 C803 1.400 . S
C804 C807 1.386 . S
H805 C821 0.930 . S
H806 C822 0.931 . S
C807 H795 0.929 . S
C807 C801 1.390 . S
C807 C804 1.386 . S
C808 C803 1.490 . S
C808 C810 1.395 1_554 S
C808 C811 1.403 . S
H809 C815 0.930 . S
C810 H796 0.930 . S
C810 C808 1.395 1_556 S
C810 C813 1.403 . S
C811 C808 1.403 . S
C811 C812 1.524 . S
C811 C815 1.400 . S
C812 H797 0.960 . S
C812 H798 0.960 . S
C812 H799 0.960 . S
C812 C811 1.524 . S
C813 C810 1.403 . S
C813 C814 1.392 1_556 S
C813 C817 1.495 . S
C814 C813 1.392 1_554 S
C814 C815 1.385 . S
C814 C816 1.478 . S
C815 H809 0.930 . S
C815 C811 1.400 . S
C815 C814 1.385 . S
C816 C814 1.478 . S
C816 C818 1.381 1_554 S
C816 C822 1.383 . S
C817 C813 1.495 . S
C817 H823 0.959 . S
C817 H824 0.961 1_556 S
C817 H825 0.960 . S
C818 C816 1.381 1_556 S
C818 C819 1.394 . S
C818 H826 0.930 . S
C819 C818 1.394 . S
C819 C820 1.383 1_556 S
C819 H827 0.929 . S
C820 C819 1.383 1_554 S
C820 C821 1.377 . S
C821 H805 0.930 . S
C821 C820 1.377 . S
C821 C822 1.379 . S
C822 H806 0.931 . S
C822 C816 1.383 . S
C822 C821 1.379 . S
H823 C817 0.959 . S
H824 C817 0.961 1_554 S
H825 C817 0.960 . S
H826 C818 0.930 . S
H827 C819 0.929 . S
H828 C836 0.929 . S
H829 C838 0.930 . S
H830 C840 0.930 . S
H831 C843 0.929 . S
H832 C846 0.930 . S
H833 C848 0.960 . S
H834 C848 0.960 . S
H835 C848 0.960 . S
C836 H828 0.929 . S
C836 C837 1.377 . S
C836 C838 1.384 . S
C837 C836 1.377 . S
C837 C843 1.390 . S
C838 H829 0.930 . S
C838 C836 1.384 . S
C838 C839 1.372 . S
C839 C838 1.372 . S
C839 C840 1.400 . S
C839 C844 1.490 . S
C840 H830 0.930 . S
C840 C839 1.400 . S
C840 C843 1.386 . S
H841 C857 0.930 . S
H842 C858 0.931 . S
C843 H831 0.929 . S
C843 C837 1.390 . S
C843 C840 1.386 . S
C844 C839 1.490 . S
C844 C846 1.395 . S
C844 C847 1.403 . S
H845 C851 0.930 . S
C846 H832 0.930 . S
C846 C844 1.395 . S
C846 C849 1.403 . S
C847 C844 1.403 . S
C847 C848 1.524 . S
C847 C851 1.400 . S
C848 H833 0.960 . S
C848 H834 0.960 . S
C848 H835 0.960 . S
C848 C847 1.524 . S
C849 C846 1.403 . S
C849 C850 1.392 . S
C849 C853 1.495 . S
C850 C849 1.392 . S
C850 C851 1.385 . S
C850 C852 1.478 . S
C851 H845 0.930 . S
C851 C847 1.400 . S
C851 C850 1.385 . S
C852 C850 1.478 . S
C852 C854 1.381 . S
C852 C858 1.383 . S
C853 C849 1.495 . S
C853 H859 0.959 . S
C853 H860 0.961 . S
C853 H861 0.960 . S
C854 C852 1.381 . S
C854 C855 1.394 . S
C854 H862 0.930 . S
C855 C854 1.394 . S
C855 C856 1.383 . S
C855 H863 0.929 . S
C856 C855 1.383 . S
C856 C857 1.377 . S
C857 H841 0.930 . S
C857 C856 1.377 . S
C857 C858 1.379 . S
C858 H842 0.931 . S
C858 C852 1.383 . S
C858 C857 1.379 . S
H859 C853 0.959 . S
H860 C853 0.961 . S
H861 C853 0.960 . S
H862 C854 0.930 . S
H863 C855 0.929 . S
C297 C3 0.891 . S
C316 C147 0.894 . S
C333 C38 1.245 . S
C352 C182 1.207 . S
C369 C219 0.897 . S
C388 C75 0.915 . S
C405 C254 1.245 . S
C424 C110 1.251 . S
C441 C220 0.915 . S
C460 C76 0.886 . S
C477 C266 1.362 . S
C496 C122 1.335 . S
C513 C4 0.930 . S
C532 C148 0.962 . S
C549 C50 1.356 . S
C568 C194 1.362 . S
C585 C74 1.279 . S
C604 C2 1.254 . S
C621 C111 1.236 . S
C640 C39 1.230 . S
C657 C146 1.278 . S
C676 C218 1.274 . S
C693 C255 1.245 . S
C712 C183 1.246 . S
C729 C14 1.198 1_554 S
C748 C184 1.222 . S
C765 C230 1.186 . S
C784 C40 1.174 . S
C801 C86 1.186 1_554 S
C820 C256 1.171 . S
C837 C112 1.205 . S
C856 C158 1.218 . S
