# Generated by pormake.
# Topology uog, (4)-cn, num edge types: 1
# Building blocks:
#     Node 0, Type 0, BuildingBlock: KOZSID_clean_sbu_0, # of connection points: 4
#     Node 1, Type 0, BuildingBlock: KOZSID_clean_sbu_0, # of connection points: 4
#     Node 2, Type 0, BuildingBlock: KOZSID_clean_sbu_0, # of connection points: 4
#     Node 3, Type 0, BuildingBlock: KOZSID_clean_sbu_0, # of connection points: 4
#     Node 4, Type 0, BuildingBlock: KOZSID_clean_sbu_0, # of connection points: 4
#     Node 5, Type 0, BuildingBlock: KOZSID_clean_sbu_0, # of connection points: 4
#     Edge 6, Type (0, 0), BuildingBlock: ZUJKAS_clean_linker_0, # of connection points: 2
#     Edge 7, Type (0, 0), BuildingBlock: ZUJKAS_clean_linker_0, # of connection points: 2
#     Edge 8, Type (0, 0), BuildingBlock: ZUJKAS_clean_linker_0, # of connection points: 2
#     Edge 9, Type (0, 0), BuildingBlock: ZUJKAS_clean_linker_0, # of connection points: 2
#     Edge 10, Type (0, 0), BuildingBlock: ZUJKAS_clean_linker_0, # of connection points: 2
#     Edge 11, Type (0, 0), BuildingBlock: ZUJKAS_clean_linker_0, # of connection points: 2
#     Edge 12, Type (0, 0), BuildingBlock: ZUJKAS_clean_linker_0, # of connection points: 2
#     Edge 13, Type (0, 0), BuildingBlock: ZUJKAS_clean_linker_0, # of connection points: 2
#     Edge 14, Type (0, 0), BuildingBlock: ZUJKAS_clean_linker_0, # of connection points: 2
#     Edge 15, Type (0, 0), BuildingBlock: ZUJKAS_clean_linker_0, # of connection points: 2
#     Edge 16, Type (0, 0), BuildingBlock: ZUJKAS_clean_linker_0, # of connection points: 2
#     Edge 17, Type (0, 0), BuildingBlock: ZUJKAS_clean_linker_0, # of connection points: 2
# Relax obj value: 0.023
# Max RMSD: 0.251
# Mean RMSD: 0.251
data_MOF--net-uog--node1-KOZSID_clean_sbu_0--edge1-ZUJKAS_clean_linker_0
_symmetry_space_group_name_H-M    P1
_symmetry_Int_Tables_number       1
_symmetry_cell_setting            triclinic
loop_
_symmetry_equiv_pos_as_xyz
'x, y, z'
_cell_length_a     47.319438
_cell_length_b     47.309933
_cell_length_c     59.382408
_cell_angle_alpha  90.130667
_cell_angle_beta   90.071954
_cell_angle_gamma 120.27861
loop_
_atom_site_label
_atom_site_type_symbol
_atom_site_fract_x
_atom_site_fract_y
_atom_site_fract_z
_atom_type_partial_charge
C0 C 0.56128 0.29414 0.21949 0.0
C1 C 0.53104 0.28155 0.22973 0.0
C2 C 0.50806 0.26685 0.21305 0.0
C3 C 0.52553 0.27135 0.19361 0.0
N4 N 0.55812 0.2878 0.19685 0.0
Co5 Co 0.59211 0.30133 0.1726 0.0
N6 N 0.55868 0.28141 0.14786 0.0
C7 C 0.52602 0.26508 0.15063 0.0
C8 C 0.50896 0.25255 0.1309 0.0
C9 C 0.53229 0.26133 0.11454 0.0
C10 C 0.56232 0.27879 0.12524 0.0
N11 N 0.62662 0.31629 0.14859 0.0
C12 C 0.62412 0.31325 0.12579 0.0
C13 C 0.65469 0.3287 0.11559 0.0
C14 C 0.67723 0.34153 0.13245 0.0
C15 C 0.65927 0.33334 0.15186 0.0
N16 N 0.62598 0.32019 0.19718 0.0
C17 C 0.65862 0.33434 0.19456 0.0
C18 C 0.67597 0.34316 0.21432 0.0
C19 C 0.653 0.33429 0.23073 0.0
C20 C 0.62287 0.32071 0.21991 0.0
N21 N 0.5906 0.25815 0.17548 0.0
C22 C 0.57531 0.19137 0.17773 0.0
C23 C 0.58523 0.20924 0.15758 0.0
C24 C 0.5928 0.24211 0.15686 0.0
C25 C 0.57517 0.20863 0.19703 0.0
C26 C 0.58317 0.24169 0.19561 0.0
N27 N 0.5916 0.3435 0.1696 0.0
C28 C 0.58508 0.38649 0.18715 0.0
C29 C 0.57676 0.39517 0.16659 0.0
C30 C 0.57829 0.37853 0.14735 0.0
C31 C 0.58586 0.35328 0.14918 0.0
C32 C 0.59265 0.36126 0.1882 0.0
H33 H 0.58616 0.34131 0.1339 0.0
H34 H 0.59833 0.35583 0.20441 0.0
H35 H 0.59944 0.25383 0.14084 0.0
H36 H 0.58248 0.25343 0.21093 0.0
C37 C 0.51241 0.26149 0.17202 0.0
C38 C 0.59248 0.31147 0.23192 0.0
C39 C 0.59375 0.29324 0.1132 0.0
C40 C 0.6724 0.34022 0.17334 0.0
H41 H 0.5262 0.28284 0.2474 0.0
H42 H 0.48174 0.25463 0.21486 0.0
H43 H 0.48267 0.23849 0.12869 0.0
H44 H 0.52782 0.2557 0.09676 0.0
H45 H 0.66023 0.32974 0.09783 0.0
H46 H 0.70361 0.35467 0.13079 0.0
H47 H 0.70223 0.35514 0.21651 0.0
H48 H 0.65794 0.33814 0.24862 0.0
H49 H 0.58607 0.19766 0.14204 0.0
H50 H 0.56879 0.19669 0.21328 0.0
H51 H 0.58467 0.3982 0.20271 0.0
H52 H 0.57345 0.38469 0.1308 0.0
C53 C 0.2867 0.5544 0.55124 0.0
C54 C 0.27414 0.52463 0.56218 0.0
C55 C 0.27526 0.50319 0.54701 0.0
C56 C 0.28833 0.52097 0.52766 0.0
N57 N 0.29543 0.55217 0.52973 0.0
Co58 Co 0.31359 0.5859 0.50557 0.0
N59 N 0.30306 0.55287 0.48121 0.0
C60 C 0.29562 0.5217 0.48464 0.0
C61 C 0.29276 0.50513 0.46496 0.0
C62 C 0.29952 0.5274 0.44808 0.0
C63 C 0.30613 0.55644 0.4584 0.0
N64 N 0.33119 0.62027 0.48174 0.0
C65 C 0.32874 0.6177 0.45896 0.0
C66 C 0.34389 0.64843 0.44893 0.0
C67 C 0.35745 0.6709 0.46587 0.0
C68 C 0.34954 0.65283 0.48522 0.0
N69 N 0.32537 0.61926 0.52973 0.0
C70 C 0.34684 0.65155 0.52793 0.0
C71 C 0.35114 0.66856 0.54757 0.0
C72 C 0.331 0.64563 0.56277 0.0
C73 C 0.31534 0.61583 0.55139 0.0
N74 N 0.35704 0.58876 0.50888 0.0
C75 C 0.4095 0.57535 0.51143 0.0
C76 C 0.40113 0.58472 0.49114 0.0
C77 C 0.37518 0.59119 0.49024 0.0
C78 C 0.39238 0.57566 0.53078 0.0
C79 C 0.36684 0.58284 0.5292 0.0
N80 N 0.2693 0.5809 0.50238 0.0
C81 C 0.23148 0.60157 0.50289 0.0
C82 C 0.20407 0.56959 0.50163 0.0
C83 C 0.2106 0.54385 0.50007 0.0
C84 C 0.2428 0.54992 0.50043 0.0
C85 C 0.26375 0.60667 0.50334 0.0
H86 H 0.24597 0.52902 0.49957 0.0
H87 H 0.28412 0.63137 0.50483 0.0
H88 H 0.36905 0.59673 0.47408 0.0
H89 H 0.35396 0.58192 0.54441 0.0
C90 C 0.28974 0.50852 0.50647 0.0
C91 C 0.29183 0.58484 0.56193 0.0
C92 C 0.31839 0.58751 0.4461 0.0
C93 C 0.35733 0.66575 0.50689 0.0
H94 H 0.2652 0.51905 0.57929 0.0
H95 H 0.26644 0.47742 0.54955 0.0
H96 H 0.28666 0.47991 0.46309 0.0
H97 H 0.30045 0.52312 0.43026 0.0
H98 H 0.34644 0.65402 0.43113 0.0
H99 H 0.37156 0.69727 0.46425 0.0
H100 H 0.36587 0.69472 0.55024 0.0
H101 H 0.32801 0.65042 0.58017 0.0
H102 H 0.41406 0.58654 0.47571 0.0
H103 H 0.39754 0.56906 0.54707 0.0
H104 H 0.22807 0.62249 0.50412 0.0
H105 H 0.1908 0.51877 0.49852 0.0
C106 C 0.74471 0.27772 0.88594 0.0
C107 C 0.75127 0.2553 0.89614 0.0
C108 C 0.7574 0.2394 0.87917 0.0
C109 C 0.75427 0.25291 0.85956 0.0
N110 N 0.74724 0.27686 0.8631 0.0
Co111 Co 0.73718 0.29969 0.83888 0.0
N112 N 0.7552 0.28412 0.81467 0.0
C113 C 0.76176 0.25971 0.81658 0.0
C114 C 0.77436 0.25466 0.79712 0.0
C115 C 0.77571 0.27731 0.78202 0.0
C116 C 0.76383 0.29496 0.79313 0.0
N117 N 0.72599 0.32169 0.81481 0.0
C118 C 0.73651 0.3288 0.79326 0.0
C119 C 0.72186 0.34394 0.78212 0.0
C120 C 0.70156 0.34647 0.79726 0.0
C121 C 0.7049 0.33279 0.81667 0.0
N122 N 0.71953 0.31624 0.86281 0.0
C123 C 0.70087 0.32994 0.85934 0.0
C124 C 0.69199 0.33911 0.87872 0.0
C125 C 0.70527 0.33013 0.89567 0.0
C126 C 0.72147 0.31568 0.88562 0.0
N127 N 0.78158 0.33903 0.84239 0.0
C128 C 0.84683 0.39299 0.84471 0.0
C129 C 0.81994 0.39767 0.84137 0.0
C130 C 0.78758 0.37048 0.84053 0.0
C131 C 0.83994 0.36066 0.84687 0.0
C132 C 0.80771 0.33444 0.84546 0.0
N133 N 0.69361 0.25914 0.8353 0.0
C134 C 0.65003 0.20993 0.85253 0.0
C135 C 0.64058 0.19341 0.83172 0.0
C136 C 0.65709 0.21184 0.81253 0.0
C137 C 0.68315 0.24444 0.81465 0.0
C138 C 0.67602 0.24245 0.8539 0.0
H139 H 0.69575 0.25722 0.79956 0.0
H140 H 0.68283 0.25331 0.87035 0.0
H141 H 0.76752 0.37491 0.83812 0.0
H142 H 0.80429 0.31026 0.84644 0.0
C143 C 0.76005 0.24561 0.83768 0.0
C144 C 0.73296 0.29683 0.8984 0.0
C145 C 0.75917 0.32046 0.7825 0.0
C146 C 0.69379 0.3357 0.83769 0.0
H147 H 0.75077 0.25035 0.91397 0.0
H148 H 0.7634 0.22026 0.88095 0.0
H149 H 0.78259 0.23733 0.79443 0.0
H150 H 0.78429 0.28043 0.76482 0.0
H151 H 0.72556 0.35247 0.7649 0.0
H152 H 0.68733 0.35833 0.79474 0.0
H153 H 0.67743 0.35077 0.88035 0.0
H154 H 0.70193 0.33255 0.91344 0.0
H155 H 0.8238 0.42215 0.83966 0.0
H156 H 0.85956 0.3554 0.84905 0.0
H157 H 0.63854 0.19748 0.86803 0.0
H158 H 0.65038 0.20108 0.79588 0.0
C159 C 0.48665 0.73958 0.21805 0.0
C160 C 0.51594 0.74618 0.2279 0.0
C161 C 0.53758 0.75241 0.21067 0.0
C162 C 0.5204 0.74925 0.19127 0.0
N163 N 0.48944 0.74217 0.19516 0.0
Co164 Co 0.45559 0.73126 0.1713 0.0
N165 N 0.48843 0.74797 0.14651 0.0
C166 C 0.51951 0.75455 0.14814 0.0
C167 C 0.53654 0.76605 0.12834 0.0
C168 C 0.51472 0.76664 0.11329 0.0
C169 C 0.48554 0.75544 0.12478 0.0
N170 N 0.42142 0.71936 0.14765 0.0
C171 C 0.42421 0.72865 0.12582 0.0
C172 C 0.39385 0.71402 0.11521 0.0
C173 C 0.37127 0.69511 0.13098 0.0
C174 C 0.38898 0.69917 0.1502 0.0
N175 N 0.42213 0.71494 0.19578 0.0
C176 C 0.3894 0.69755 0.19294 0.0
C177 C 0.37214 0.69077 0.21261 0.0
C178 C 0.39533 0.70404 0.22911 0.0
C179 C 0.42559 0.71784 0.21851 0.0
N180 N 0.46149 0.77601 0.17409 0.0
C181 C 0.47356 0.84155 0.17511 0.0
C182 C 0.44142 0.81434 0.17483 0.0
C183 C 0.43593 0.78192 0.1742 0.0
C184 C 0.49914 0.83469 0.17544 0.0
C185 C 0.49269 0.80233 0.175 0.0
N186 N 0.45184 0.68733 0.16838 0.0
C187 C 0.45784 0.64464 0.18648 0.0
C188 C 0.46516 0.6349 0.16597 0.0
C189 C 0.46274 0.65038 0.14641 0.0
C190 C 0.45589 0.6762 0.14796 0.0
C191 C 0.45102 0.67034 0.18726 0.0
H192 H 0.45558 0.68821 0.13262 0.0
H193 H 0.44674 0.67739 0.20348 0.0
H194 H 0.41106 0.76174 0.17351 0.0
H195 H 0.51343 0.79886 0.17506 0.0
C196 C 0.53266 0.75396 0.16921 0.0
C197 C 0.45596 0.72731 0.23085 0.0
C198 C 0.45501 0.75032 0.11434 0.0
C199 C 0.37558 0.68974 0.17154 0.0
H200 H 0.52076 0.74543 0.24565 0.0
H201 H 0.56274 0.75815 0.21213 0.0
H202 H 0.56205 0.77407 0.12537 0.0
H203 H 0.51963 0.77427 0.09588 0.0
H204 H 0.38847 0.71694 0.09794 0.0
H205 H 0.34493 0.68142 0.12896 0.0
H206 H 0.34584 0.67761 0.21472 0.0
H207 H 0.3905 0.70221 0.24702 0.0
H208 H 0.42061 0.81799 0.17454 0.0
H209 H 0.52438 0.85434 0.17618 0.0
H210 H 0.45798 0.63293 0.20208 0.0
H211 H 0.46762 0.64376 0.13002 0.0
C212 C 0.76881 0.48083 0.55366 0.0
C213 C 0.78716 0.51116 0.56387 0.0
C214 C 0.79562 0.53403 0.54722 0.0
C215 C 0.78201 0.51644 0.52783 0.0
N216 N 0.76526 0.48387 0.53109 0.0
Co217 Co 0.74447 0.44972 0.50687 0.0
N218 N 0.75659 0.48297 0.48231 0.0
C219 C 0.77333 0.51566 0.48506 0.0
C220 C 0.77625 0.53249 0.46557 0.0
C221 C 0.76016 0.50897 0.44939 0.0
C222 C 0.74841 0.47906 0.45996 0.0
N223 N 0.72553 0.41522 0.48271 0.0
C224 C 0.72412 0.41781 0.45999 0.0
C225 C 0.71173 0.38766 0.44937 0.0
C226 C 0.70452 0.36517 0.46592 0.0
C227 C 0.7131 0.38284 0.48556 0.0
N228 N 0.73043 0.41592 0.53124 0.0
C229 C 0.71434 0.38319 0.52828 0.0
C230 C 0.70661 0.36572 0.54788 0.0
C231 C 0.71882 0.38869 0.56452 0.0
C232 C 0.73347 0.41906 0.55402 0.0
N233 N 0.70207 0.44984 0.51031 0.0
C234 C 0.65019 0.46461 0.51223 0.0
C235 C 0.65566 0.45054 0.49302 0.0
C236 C 0.68125 0.44345 0.49243 0.0
C237 C 0.67001 0.46853 0.53105 0.0
C238 C 0.69499 0.46053 0.52987 0.0
N239 N 0.78772 0.45164 0.50351 0.0
C240 C 0.83664 0.45654 0.52093 0.0
C241 C 0.85452 0.4674 0.50082 0.0
C242 C 0.83729 0.46826 0.48175 0.0
C243 C 0.80417 0.45996 0.48336 0.0
C244 C 0.80376 0.44881 0.52188 0.0
H245 H 0.79237 0.46116 0.46822 0.0
H246 H 0.79204 0.44158 0.53791 0.0
H247 H 0.68412 0.43337 0.47712 0.0
H248 H 0.70895 0.46407 0.54492 0.0
C249 C 0.78461 0.52944 0.50634 0.0
C250 C 0.75386 0.44979 0.5662 0.0
C251 C 0.73069 0.44748 0.44803 0.0
C252 C 0.70797 0.36955 0.50692 0.0
H253 H 0.79348 0.51613 0.58153 0.0
H254 H 0.81008 0.56037 0.54905 0.0
H255 H 0.78827 0.55875 0.46341 0.0
H256 H 0.75752 0.51326 0.43183 0.0
H257 H 0.70741 0.38237 0.43154 0.0
H258 H 0.69358 0.33896 0.46392 0.0
H259 H 0.69433 0.3394 0.54982 0.0
H260 H 0.71821 0.38353 0.5823 0.0
H261 H 0.64047 0.44508 0.47818 0.0
H262 H 0.66725 0.47875 0.54663 0.0
H263 H 0.84827 0.45515 0.53627 0.0
H264 H 0.84932 0.47544 0.46555 0.0
C265 C 0.30014 0.75442 0.88524 0.0
C266 C 0.28781 0.77213 0.89567 0.0
C267 C 0.2735 0.78084 0.87911 0.0
C268 C 0.2779 0.76801 0.85954 0.0
N269 N 0.2939 0.75153 0.86259 0.0
Co270 Co 0.30731 0.73133 0.83811 0.0
N271 N 0.28707 0.74465 0.8136 0.0
C272 C 0.27125 0.76132 0.81657 0.0
C273 C 0.25832 0.76559 0.79701 0.0
C274 C 0.26629 0.75051 0.78054 0.0
C275 C 0.28375 0.73794 0.791 0.0
N276 N 0.32226 0.71227 0.81378 0.0
C277 C 0.31859 0.71144 0.79102 0.0
C278 C 0.33533 0.69809 0.78039 0.0
C279 C 0.34957 0.68964 0.79696 0.0
C280 C 0.34095 0.6985 0.81661 0.0
N281 N 0.32664 0.71664 0.8624 0.0
C282 C 0.34243 0.69987 0.85935 0.0
C283 C 0.35231 0.69209 0.87887 0.0
C284 C 0.34252 0.70493 0.89558 0.0
C285 C 0.32718 0.71994 0.8852 0.0
N286 N 0.26429 0.68925 0.84109 0.0
C287 C 0.19719 0.63842 0.8434 0.0
C288 C 0.21483 0.64629 0.82317 0.0
C289 C 0.24793 0.67112 0.82247 0.0
C290 C 0.2149 0.65504 0.86281 0.0
C291 C 0.24811 0.67996 0.86133 0.0
N292 N 0.34926 0.77434 0.83514 0.0
C293 C 0.39223 0.82389 0.85292 0.0
C294 C 0.40061 0.84112 0.83251 0.0
C295 C 0.38407 0.82318 0.81314 0.0
C296 C 0.35885 0.79013 0.8148 0.0
C297 C 0.36711 0.79092 0.8538 0.0
H298 H 0.34659 0.77795 0.7995 0.0
H299 H 0.36187 0.77953 0.86994 0.0
H300 H 0.25961 0.67586 0.8065 0.0
H301 H 0.26009 0.69222 0.87666 0.0
C302 C 0.26809 0.77148 0.83804 0.0
C303 C 0.31689 0.74005 0.89757 0.0
C304 C 0.2972 0.72018 0.77885 0.0
C305 C 0.34886 0.69297 0.83794 0.0
H306 H 0.28901 0.77801 0.9134 0.0
H307 H 0.26153 0.79507 0.88109 0.0
H308 H 0.2444 0.77787 0.795 0.0
H309 H 0.26006 0.74892 0.76286 0.0
H310 H 0.33644 0.69413 0.76253 0.0
H311 H 0.36402 0.67792 0.79494 0.0
H312 H 0.36576 0.6793 0.88071 0.0
H313 H 0.34722 0.70427 0.91335 0.0
H314 H 0.20309 0.63352 0.80773 0.0
H315 H 0.20295 0.64982 0.87905 0.0
H316 H 0.40484 0.83586 0.86836 0.0
H317 H 0.3896 0.83486 0.79681 0.0
H318 H 0.5267 0.14169 0.2034 0.0
H319 H 0.50885 0.08321 0.20364 0.0
H320 H 0.5808 0.09942 0.15324 0.0
H321 H 0.59933 0.1579 0.15328 0.0
H322 H 0.48269 0.03592 0.16997 0.0
H323 H 0.59919 0.04761 0.19931 0.0
H324 H 0.59131 0.08113 0.20078 0.0
H325 H 0.60366 0.07133 0.17464 0.0
C326 C 0.53919 0.13307 0.19257 0.0
C327 C 0.56478 0.1552 0.1784 0.0
C328 C 0.52867 0.0993 0.19259 0.0
C329 C 0.54358 0.08639 0.17869 0.0
C330 C 0.56906 0.10837 0.1645 0.0
H331 H 0.52276 0.89427 0.15248 0.0
H332 H 0.53762 0.9517 0.15365 0.0
C333 C 0.57947 0.14207 0.16437 0.0
C334 C 0.53223 0.0501 0.17871 0.0
H335 H 0.55873 0.99521 0.18608 0.0
C336 C 0.49934 0.02708 0.17364 0.0
C337 C 0.55364 0.038 0.18344 0.0
C338 C 0.58884 0.06073 0.19006 0.0
C339 C 0.48769 0.99296 0.17251 0.0
C340 C 0.50915 0.98084 0.17714 0.0
C341 C 0.54197 1.00392 0.18243 0.0
C342 C 0.49862 0.9447 0.17606 0.0
C343 C 0.45264 0.9704 0.16549 0.0
C344 C 0.47148 0.92062 0.1882 0.0
C345 C 0.46271 0.88726 0.18747 0.0
C346 C 0.4811 0.87683 0.17488 0.0
C347 C 0.5081 0.90098 0.16268 0.0
C348 C 0.51668 0.93415 0.16329 0.0
H349 H 0.4426 0.9837 0.15611 0.0
H350 H 0.45031 0.95009 0.15474 0.0
H351 H 0.43742 0.95973 0.18075 0.0
H352 H 0.45738 0.92765 0.19874 0.0
H353 H 0.44207 0.86978 0.19737 0.0
H354 H 0.42754 0.54683 0.47753 0.0
H355 H 0.46815 0.52957 0.47848 0.0
H356 H 0.48947 0.55955 0.54781 0.0
H357 H 0.44999 0.57851 0.5469 0.0
H358 H 0.54042 0.5706 0.49233 0.0
H359 H 0.46746 0.45988 0.54474 0.0
H360 H 0.44861 0.47825 0.52847 0.0
H361 H 0.47039 0.49761 0.55387 0.0
C362 C 0.44109 0.55053 0.49299 0.0
C363 C 0.43497 0.56458 0.51211 0.0
C364 C 0.46432 0.5402 0.49352 0.0
C365 C 0.48197 0.54289 0.51324 0.0
C366 C 0.47606 0.55675 0.53239 0.0
H367 H 0.6165 0.47154 0.5486 0.0
H368 H 0.57818 0.49166 0.54875 0.0
C369 C 0.4531 0.56751 0.53183 0.0
C370 C 0.50664 0.5315 0.51365 0.0
H371 H 0.52021 0.47163 0.53425 0.0
C372 C 0.53597 0.54894 0.50149 0.0
C373 C 0.5013 0.50343 0.52573 0.0
C374 C 0.47022 0.48343 0.5389 0.0
C375 C 0.56004 0.53949 0.50134 0.0
C376 C 0.5544 0.51078 0.51295 0.0
C377 C 0.52499 0.49348 0.52521 0.0
C378 C 0.57851 0.49842 0.5127 0.0
C379 C 0.59181 0.56133 0.48932 0.0
C380 C 0.59178 0.49465 0.49244 0.0
C381 C 0.61468 0.48389 0.49231 0.0
C382 C 0.62475 0.47548 0.51243 0.0
C383 C 0.61054 0.47828 0.53266 0.0
C384 C 0.58801 0.48957 0.53277 0.0
H385 H 0.59688 0.58693 0.4884 0.0
H386 H 0.61279 0.5615 0.49783 0.0
H387 H 0.59009 0.55242 0.47179 0.0
H388 H 0.58441 0.49998 0.4765 0.0
H389 H 0.62479 0.48272 0.47625 0.0
H390 H 0.87889 0.44747 0.81716 0.0
H391 H 0.93743 0.48918 0.81696 0.0
H392 H 0.95284 0.44388 0.87491 0.0
H393 H 0.89495 0.40186 0.8747 0.0
H394 H 0.9793 0.53555 0.84408 0.0
H395 H 1.02236 0.44703 0.83636 0.0
H396 H 0.97977 0.4348 0.83361 0.0
H397 H 0.99795 0.43947 0.86108 0.0
C398 C 0.89472 0.4465 0.82994 0.0
C399 C 0.88195 0.42083 0.84576 0.0
C400 C 0.92841 0.47039 0.82977 0.0
C401 C 0.95038 0.4695 0.84548 0.0
C402 C 0.9372 0.44478 0.86196 0.0
H403 H 0.16097 0.59245 0.87619 0.0
H404 H 0.10196 0.55292 0.87668 0.0
C405 C 0.90377 0.42074 0.86194 0.0
C406 C 0.98678 0.49429 0.84483 0.0
H407 H 0.06297 0.50185 0.84558 0.0
C408 C 0.99746 0.52801 0.84424 0.0
C409 C 1.01112 0.48504 0.84494 0.0
C410 C 1.00224 0.44963 0.84379 0.0
C411 C 0.03113 0.55225 0.84435 0.0
C412 C 0.05534 0.54293 0.8449 0.0
C413 C 0.04473 0.5093 0.84538 0.0
C414 C 0.09165 0.56757 0.84466 0.0
C415 C 0.04052 0.58781 0.84438 0.0
C416 C 0.10618 0.58908 0.82643 0.0
C417 C 0.14007 0.61171 0.82606 0.0
C418 C 0.16077 0.61376 0.84394 0.0
C419 C 0.14613 0.59212 0.86219 0.0
C420 C 0.11221 0.56924 0.86244 0.0
H421 H 1.01984 0.59111 0.84965 0.0
H422 H 0.06162 0.60236 0.85579 0.0
H423 H 0.04778 0.59774 0.8271 0.0
H424 H 0.09131 0.5882 0.81228 0.0
H425 H 0.14997 0.62798 0.81177 0.0
H426 H 0.15103 0.51902 0.52305 0.0
H427 H 0.09363 0.50437 0.52204 0.0
H428 H 0.11877 0.58883 0.4811 0.0
H429 H 0.17653 0.60336 0.48164 0.0
H430 H 0.06184 0.53607 0.53649 0.0
H431 H 0.04464 0.51705 0.44417 0.0
H432 H 0.08009 0.52095 0.45853 0.0
H433 H 0.07732 0.5567 0.45253 0.0
C434 C 0.14454 0.53449 0.5136 0.0
C435 C 0.1689 0.56228 0.50215 0.0
C436 C 0.11143 0.52608 0.51316 0.0
C437 C 0.10118 0.54493 0.50112 0.0
C438 C 0.1255 0.57323 0.49013 0.0
H439 H 0.90423 0.5181 0.47656 0.0
H440 H 0.96295 0.53716 0.47681 0.0
C441 C 0.1588 0.58181 0.49068 0.0
C442 C 0.06525 0.53489 0.50043 0.0
H443 H 0.99985 0.51228 0.46488 0.0
C444 C 0.04838 0.53087 0.52078 0.0
C445 C 0.04718 0.52809 0.48004 0.0
C446 C 0.06305 0.5306 0.45756 0.0
C447 C 1.01464 0.52078 0.52134 0.0
C448 C 0.99636 0.51335 0.50097 0.0
C449 C 1.01334 0.51772 0.48059 0.0
C450 C 0.95982 0.50097 0.50046 0.0
C451 C 0.99924 0.51912 0.54389 0.0
C452 C 0.93756 0.47359 0.51319 0.0
C453 C 0.90376 0.46262 0.51313 0.0
C454 C 0.89071 0.47827 0.50005 0.0
C455 C 0.9129 0.50506 0.48676 0.0
C456 C 0.94678 0.51617 0.48696 0.0
H457 H 1.01782 0.53534 0.55647 0.0
H458 H 0.98025 0.52623 0.54257 0.0
H459 H 0.98762 0.4937 0.55035 0.0
H460 H 0.94627 0.4604 0.52317 0.0
H461 H 0.88776 0.44153 0.52324 0.0
H462 H 0.44697 0.87638 0.79966 0.0
H463 H 0.48736 0.9351 0.79897 0.0
H464 H 0.45093 0.94759 0.86244 0.0
H465 H 0.41099 0.88913 0.86339 0.0
H466 H 0.48379 0.98926 0.79752 0.0
H467 H 0.54572 0.99378 0.87751 0.0
H468 H 0.51642 0.95564 0.86443 0.0
H469 H 0.5028 0.97805 0.88146 0.0
C470 C 0.44748 0.89154 0.81352 0.0
C471 C 0.42565 0.87742 0.83174 0.0
C472 C 0.4708 0.92534 0.81313 0.0
C473 C 0.47315 0.94624 0.83092 0.0
C474 C 0.45083 0.93229 0.84882 0.0
H475 H 0.58626 0.15726 0.85901 0.0
H476 H 0.54698 0.09855 0.85815 0.0
C477 C 0.42773 0.89855 0.84931 0.0
C478 C 0.49824 0.98252 0.83054 0.0
H479 H 0.55819 0.04526 0.86198 0.0
C480 C 0.50019 1.00132 0.81159 0.0
C481 C 0.52005 0.99887 0.84877 0.0
C482 C 0.52143 0.9805 0.86908 0.0
C483 C 0.52232 0.03552 0.81062 0.0
C484 C 0.54364 0.05186 0.82901 0.0
C485 C 0.54188 0.0331 0.84788 0.0
C486 C 0.5678 0.08828 0.82908 0.0
C487 C 0.52207 0.05408 0.79009 0.0
C488 C 0.59317 0.10273 0.81313 0.0
C489 C 0.61621 0.13657 0.81373 0.0
C490 C 0.61474 0.15727 0.83032 0.0
C491 C 0.58901 0.14261 0.84614 0.0
C492 C 0.56617 0.10876 0.84561 0.0
H493 H 0.49936 0.03988 0.77998 0.0
H494 H 0.52438 0.07785 0.79493 0.0
H495 H 0.54321 0.05922 0.77924 0.0
H496 H 0.59564 0.08768 0.80041 0.0
H497 H 0.63574 0.14625 0.80147 0.0
H498 H 0.45235 0.58676 0.13388 0.0
H499 H 0.47047 0.54644 0.13353 0.0
H500 H 0.52251 0.58628 0.19579 0.0
H501 H 0.50428 0.62617 0.1964 0.0
H502 H 0.52815 0.54977 0.13132 0.0
H503 H 0.47427 0.49244 0.21302 0.0
H504 H 0.46494 0.52093 0.1996 0.0
H505 H 0.50192 0.53557 0.2159 0.0
C506 C 0.46762 0.58702 0.14756 0.0
C507 C 0.47624 0.6098 0.16536 0.0
C508 C 0.478 0.56372 0.14736 0.0
C509 C 0.49737 0.56232 0.16493 0.0
C510 C 0.50667 0.5856 0.18238 0.0
H511 H 0.595 0.44976 0.19391 0.0
H512 H 0.57572 0.4889 0.19292 0.0
C513 C 0.49616 0.60868 0.18267 0.0
C514 C 0.50843 0.53721 0.16482 0.0
H515 H 0.51238 0.4791 0.19717 0.0
C516 C 0.52438 0.53419 0.1457 0.0
C517 C 0.50376 0.51646 0.18346 0.0
C518 C 0.485 0.51622 0.20405 0.0
C519 C 0.53633 0.51206 0.14495 0.0
C520 C 0.53209 0.49174 0.16372 0.0
C521 C 0.516 0.4946 0.18276 0.0
C522 C 0.54412 0.46748 0.16399 0.0
C523 C 0.55428 0.51133 0.12419 0.0
C524 C 0.53283 0.4417 0.14822 0.0
C525 C 0.54357 0.41875 0.1489 0.0
C526 C 0.56608 0.42064 0.16538 0.0
C527 C 0.57738 0.44665 0.1811 0.0
C528 C 0.56645 0.46944 0.18049 0.0
H529 H 0.56289 0.53375 0.11387 0.0
H530 H 0.57569 0.50884 0.12876 0.0
H531 H 0.53752 0.48995 0.11365 0.0
H532 H 0.51509 0.43886 0.13557 0.0
H533 H 0.53346 0.39899 0.13672 0.0
H534 H 0.76 0.33426 0.93619 0.0
H535 H 0.73354 0.32763 0.9729 0.0
H536 H 0.6518 0.23587 0.9506 0.0
H537 H 0.67818 0.24278 0.91383 0.0
H538 H 0.63159 0.27592 0.96807 0.0
H539 H 0.71905 0.27074 0.02752 0.0
H540 H 0.73785 0.30576 0.00938 0.0
H541 H 0.72068 0.26534 0.99754 0.0
C542 C 0.737 0.3121 0.9395 0.0
C543 C 0.72149 0.28871 0.92233 0.0
C544 C 0.72174 0.30835 0.96046 0.0
C545 C 0.69062 0.28108 0.96477 0.0
C546 C 0.67577 0.25707 0.94786 0.0
H547 H 0.59972 0.2419 0.09858 0.0
H548 H 0.61991 0.23613 0.06178 0.0
C549 C 0.69105 0.2608 0.92692 0.0
C550 C 0.67253 0.27886 0.98608 0.0
H551 H 0.67825 0.28006 0.04362 0.0
C552 C 0.64175 0.27659 0.98458 0.0
C553 C 0.68539 0.2794 0.00775 0.0
C554 C 0.7174 0.28012 0.01073 0.0
C555 C 0.624 0.27561 1.00395 0.0
C556 C 0.63744 0.27741 0.02561 0.0
C557 C 0.66786 0.2789 0.02711 0.0
C558 C 0.62078 0.27829 0.04692 0.0
C559 C 0.59079 0.27227 1.00098 0.0
C560 C 0.61352 0.30333 0.05086 0.0
C561 C 0.60153 0.30633 0.07185 0.0
C562 C 0.59657 0.28442 0.08939 0.0
C563 C 0.60248 0.2586 0.08519 0.0
C564 C 0.61446 0.25559 0.06422 0.0
H565 H 0.5799 0.26143 0.98434 0.0
H566 H 0.57366 0.25683 0.0144 0.0
H567 H 0.59335 0.29689 1.0019 0.0
H568 H 0.61879 0.32166 0.03812 0.0
H569 H 0.59821 0.32706 0.07487 0.0
H570 H 0.46641 0.75867 0.27167 0.0
H571 H 0.44762 0.73299 0.3088 0.0
H572 H 0.41362 0.6381 0.27869 0.0
H573 H 0.43384 0.66386 0.2422 0.0
H574 H 0.38917 0.69485 0.32226 0.0
H575 H 0.45187 0.62429 0.33325 0.0
H576 H 0.46334 0.65452 0.31142 0.0
H577 H 0.42972 0.61338 0.3072 0.0
C578 C 0.45623 0.7325 0.27327 0.0
C579 C 0.45234 0.71341 0.2541 0.0
C580 C 0.44503 0.71768 0.29445 0.0
C581 C 0.42939 0.68338 0.29692 0.0
C582 C 0.42644 0.66454 0.27774 0.0
H583 H 0.28727 0.58368 0.40616 0.0
H584 H 0.31312 0.60421 0.36931 0.0
C585 C 0.43806 0.67935 0.25674 0.0
C586 C 0.41365 0.66711 0.31886 0.0
H587 H 0.40379 0.60719 0.35579 0.0
C588 C 0.39271 0.67591 0.32964 0.0
C589 C 0.41824 0.6425 0.32894 0.0
C590 C 0.4423 0.63341 0.31971 0.0
C591 C 0.37608 0.66074 0.34971 0.0
C592 C 0.37918 0.63482 0.35907 0.0
C593 C 0.4006 0.62643 0.34854 0.0
C594 C 0.36197 0.61752 0.38039 0.0
C595 C 0.35615 0.67352 0.361 0.0
C596 C 0.37994 0.61542 0.39856 0.0
C597 C 0.36487 0.60256 0.41935 0.0
C598 C 0.33144 0.59151 0.42257 0.0
C599 C 0.31295 0.59164 0.40409 0.0
C600 C 0.32796 0.60407 0.38314 0.0
H601 H 0.36431 0.69906 0.35584 0.0
H602 H 0.33011 0.65811 0.35598 0.0
H603 H 0.35786 0.67294 0.37963 0.0
H604 H 0.40607 0.62527 0.39706 0.0
H605 H 0.37986 0.60327 0.43337 0.0
H606 H 0.73113 0.28906 0.74297 0.0
H607 H 0.73716 0.31459 0.70606 0.0
H608 H 0.81503 0.40591 0.73247 0.0
H609 H 0.80813 0.38045 0.76955 0.0
H610 H 0.7724 0.41645 0.71184 0.0
H611 H 0.79901 0.34076 0.65446 0.0
H612 H 0.76233 0.31634 0.67024 0.0
H613 H 0.80107 0.33825 0.68468 0.0
C614 C 0.7505 0.31416 0.74057 0.0
C615 C 0.76982 0.3325 0.75898 0.0
C616 C 0.75387 0.3289 0.71944 0.0
C617 C 0.77686 0.36229 0.71613 0.0
C618 C 0.79719 0.38015 0.73436 0.0
H619 H 0.80866 0.4503 0.58119 0.0
H620 H 0.81711 0.43269 0.61824 0.0
C621 C 0.79362 0.36548 0.75551 0.0
C622 C 0.77765 0.37929 0.69453 0.0
H623 H 0.78084 0.37453 0.63709 0.0
C624 C 0.77459 0.40738 0.69553 0.0
C625 C 0.78084 0.36799 0.67306 0.0
C626 C 0.78634 0.33939 0.67052 0.0
C627 C 0.77384 0.42381 0.67592 0.0
C628 C 0.7754 0.41155 0.65443 0.0
C629 C 0.77932 0.38397 0.65342 0.0
C630 C 0.77237 0.42639 0.63281 0.0
C631 C 0.77184 0.45447 0.67854 0.0
C632 C 0.74488 0.4297 0.62856 0.0
C633 C 0.74039 0.44036 0.60749 0.0
C634 C 0.76311 0.4477 0.59005 0.0
C635 C 0.79117 0.44558 0.59448 0.0
C636 C 0.79575 0.43506 0.61559 0.0
H637 H 0.78171 0.46643 0.6951 0.0
H638 H 0.78551 0.47238 0.66502 0.0
H639 H 0.74582 0.44798 0.67768 0.0
H640 H 0.72596 0.42245 0.64115 0.0
H641 H 0.71808 0.44083 0.60431 0.0
H642 H 0.29005 0.70493 0.93596 0.0
H643 H 0.31672 0.71318 0.97278 0.0
H644 H 0.39885 0.80336 0.94915 0.0
H645 H 0.3723 0.79461 0.91217 0.0
H646 H 0.41976 0.76639 0.96843 0.0
H647 H 0.33054 0.77086 0.02614 0.0
H648 H 0.31212 0.73465 0.00898 0.0
H649 H 0.32833 0.7742 0.996 0.0
C650 C 0.31321 0.72711 0.93896 0.0
C651 C 0.32875 0.74949 0.92136 0.0
C652 C 0.3286 0.73181 0.96002 0.0
C653 C 0.35985 0.75914 0.96407 0.0
C654 C 0.37478 0.78214 0.94666 0.0
H655 H 0.44484 0.79917 0.10025 0.0
H656 H 0.42549 0.80464 0.06303 0.0
C657 C 0.35941 0.77738 0.92558 0.0
C658 C 0.37791 0.76241 0.98571 0.0
H659 H 0.37102 0.76162 0.04314 0.0
C660 C 0.40915 0.76564 0.98475 0.0
C661 C 0.36455 0.76185 0.00717 0.0
C662 C 0.3322 0.76055 0.00969 0.0
C663 C 0.42684 0.7675 1.00442 0.0
C664 C 0.41281 0.7654 0.0259 0.0
C665 C 0.38192 0.76298 0.02684 0.0
C666 C 0.42929 0.76519 0.04758 0.0
C667 C 0.46067 0.77221 1.0019 0.0
C668 C 0.43899 0.74191 0.05142 0.0
C669 C 0.4508 0.73933 0.07262 0.0
C670 C 0.45295 0.75977 0.09057 0.0
C671 C 0.44441 0.78379 0.08655 0.0
C672 C 0.43285 0.78655 0.06533 0.0
H673 H 0.47189 0.78404 0.98561 0.0
H674 H 0.47709 0.78739 0.01579 0.0
H675 H 0.45899 0.74796 1.00219 0.0
H676 H 0.43575 0.72444 0.03842 0.0
H677 H 0.45601 0.7198 0.07546 0.0
H678 H 0.76103 0.46127 0.40682 0.0
H679 H 0.73468 0.44221 0.36976 0.0
H680 H 0.63991 0.40168 0.40103 0.0
H681 H 0.66623 0.42151 0.43766 0.0
H682 H 0.69702 0.38121 0.35648 0.0
H683 H 0.62393 0.44182 0.34726 0.0
H684 H 0.65537 0.45412 0.36844 0.0
H685 H 0.61503 0.41965 0.37319 0.0
C686 C 0.73464 0.4495 0.40555 0.0
C687 C 0.71576 0.44363 0.42508 0.0
C688 C 0.71949 0.43819 0.38441 0.0
C689 C 0.68509 0.42069 0.3823 0.0
C690 C 0.66636 0.41581 0.40182 0.0
H691 H 0.58437 0.27977 0.27209 0.0
H692 H 0.60419 0.30536 0.30925 0.0
C693 C 0.68148 0.42724 0.42286 0.0
C694 C 0.66881 0.40511 0.36026 0.0
H695 H 0.60899 0.39562 0.32317 0.0
C696 C 0.67793 0.38461 0.34918 0.0
C697 C 0.64398 0.40952 0.35037 0.0
C698 C 0.63424 0.43274 0.36031 0.0
C699 C 0.6628 0.36819 0.32895 0.0
C700 C 0.63694 0.37142 0.3196 0.0
C701 C 0.62824 0.39243 0.33042 0.0
C702 C 0.62003 0.35467 0.29801 0.0
C703 C 0.67538 0.3482 0.31748 0.0
C704 C 0.61996 0.37321 0.27954 0.0
C705 C 0.60787 0.35841 0.25848 0.0
C706 C 0.5953 0.32465 0.25534 0.0
C707 C 0.59335 0.30569 0.27409 0.0
C708 C 0.60531 0.32049 0.29524 0.0
H709 H 0.70056 0.35552 0.32314 0.0
H710 H 0.65924 0.322 0.32173 0.0
H711 H 0.67556 0.3508 0.2989 0.0
H712 H 0.63091 0.3995 0.28107 0.0
H713 H 0.61031 0.37376 0.24425 0.0
H714 H 0.31641 0.75139 0.73805 0.0
H715 H 0.3082 0.72562 0.70071 0.0
H716 H 0.24813 0.6307 0.73073 0.0
H717 H 0.25558 0.65649 0.76764 0.0
H718 H 0.32818 0.68552 0.68734 0.0
H719 H 0.19397 0.61935 0.67638 0.0
H720 H 0.21433 0.65001 0.69797 0.0
H721 H 0.20549 0.60866 0.70236 0.0
C722 C 0.30038 0.72518 0.73644 0.0
C723 C 0.286 0.70607 0.75569 0.0
C724 C 0.29599 0.71034 0.71514 0.0
C725 C 0.27714 0.67603 0.7126 0.0
C726 C 0.26197 0.65714 0.73185 0.0
H727 H 0.31152 0.57245 0.60243 0.0
H728 H 0.30562 0.5917 0.63963 0.0
C729 C 0.26622 0.67196 0.75304 0.0
C730 C 0.27572 0.65983 0.69044 0.0
H731 H 0.22351 0.60236 0.65247 0.0
C732 C 0.30522 0.6675 0.6797 0.0
C733 C 0.24587 0.63642 0.68011 0.0
C734 C 0.21314 0.62837 0.68968 0.0
C735 C 0.30577 0.65226 0.65938 0.0
C736 C 0.27598 0.62775 0.6496 0.0
C737 C 0.24643 0.62054 0.66006 0.0
C738 C 0.2751 0.61075 0.62794 0.0
C739 C 0.33839 0.6633 0.64831 0.0
C740 C 0.25793 0.61258 0.60917 0.0
C741 C 0.26059 0.60074 0.58804 0.0
C742 C 0.28029 0.58655 0.58514 0.0
C743 C 0.29558 0.58256 0.6042 0.0
C744 C 0.29277 0.59427 0.6254 0.0
H745 H 0.35739 0.68794 0.65431 0.0
H746 H 0.34675 0.64585 0.65252 0.0
H747 H 0.33649 0.66408 0.6297 0.0
H748 H 0.24397 0.62494 0.61054 0.0
H749 H 0.24913 0.60481 0.57357 0.0
loop_
_geom_bond_atom_site_label_1
_geom_bond_atom_site_label_2
_geom_bond_distance
_geom_bond_site_symmetry_2
_ccdc_geom_bond_type
C0 C1 1.443 . S
C0 N4 1.376 . S
C0 C38 1.389 . S
C1 C0 1.443 . S
C1 C2 1.340 . S
C1 H41 0.951 . S
C2 C1 1.340 . S
C2 C3 1.439 . S
C2 H42 0.950 . S
C3 C2 1.439 . S
C3 N4 1.374 . S
C3 C37 1.395 . S
N4 C0 1.376 . S
N4 C3 1.374 . S
N4 Co5 2.008 . S
Co5 N4 2.008 . S
Co5 N6 1.995 . S
Co5 N11 2.008 . S
Co5 N16 1.995 . S
Co5 N21 2.282 . S
Co5 N27 2.282 . S
N6 Co5 1.995 . S
N6 C7 1.376 . S
N6 C10 1.383 . S
C7 N6 1.376 . S
C7 C8 1.446 . S
C7 C37 1.391 . S
C8 C7 1.446 . S
C8 C9 1.339 . S
C8 H43 0.949 . S
C9 C8 1.339 . S
C9 C10 1.439 . S
C9 H44 0.950 . S
C10 N6 1.383 . S
C10 C9 1.439 . S
C10 C39 1.392 . S
N11 Co5 2.008 . S
N11 C12 1.376 . S
N11 C15 1.374 . S
C12 N11 1.376 . S
C12 C13 1.443 . S
C12 C39 1.389 . S
C13 C12 1.443 . S
C13 C14 1.340 . S
C13 H45 0.951 . S
C14 C13 1.340 . S
C14 C15 1.439 . S
C14 H46 0.950 . S
C15 N11 1.374 . S
C15 C14 1.439 . S
C15 C40 1.395 . S
N16 Co5 1.995 . S
N16 C17 1.376 . S
N16 C20 1.383 . S
C17 N16 1.376 . S
C17 C18 1.446 . S
C17 C40 1.391 . S
C18 C17 1.446 . S
C18 C19 1.339 . S
C18 H47 0.949 . S
C19 C18 1.339 . S
C19 C20 1.439 . S
C19 H48 0.950 . S
C20 N16 1.383 . S
C20 C19 1.439 . S
C20 C38 1.392 . S
N21 Co5 2.282 . S
N21 C24 1.332 . S
N21 C26 1.332 . S
C22 C23 1.386 . S
C22 C25 1.388 . S
C23 C22 1.386 . S
C23 C24 1.382 . S
C23 H49 0.950 . S
C24 N21 1.332 . S
C24 C23 1.382 . S
C24 H35 0.952 . S
C25 C22 1.388 . S
C25 C26 1.382 . S
C25 H50 0.950 . S
C26 N21 1.332 . S
C26 C25 1.382 . S
C26 H36 0.948 . S
N27 Co5 2.282 . S
N27 C31 1.332 . S
N27 C32 1.332 . S
C28 C29 1.388 . S
C28 C32 1.382 . S
C28 H51 0.950 . S
C29 C28 1.388 . S
C29 C30 1.386 . S
C30 C29 1.386 . S
C30 C31 1.382 . S
C30 H52 0.950 . S
C31 N27 1.332 . S
C31 C30 1.382 . S
C31 H33 0.952 . S
C32 N27 1.332 . S
C32 C28 1.382 . S
C32 H34 0.948 . S
H33 C31 0.952 . S
H34 C32 0.948 . S
H35 C24 0.952 . S
H36 C26 0.948 . S
C37 C3 1.395 . S
C37 C7 1.391 . S
C38 C0 1.389 . S
C38 C20 1.392 . S
C39 C10 1.392 . S
C39 C12 1.389 . S
C40 C15 1.395 . S
C40 C17 1.391 . S
H41 C1 0.951 . S
H42 C2 0.950 . S
H43 C8 0.949 . S
H44 C9 0.950 . S
H45 C13 0.951 . S
H46 C14 0.950 . S
H47 C18 0.949 . S
H48 C19 0.950 . S
H49 C23 0.950 . S
H50 C25 0.950 . S
H51 C28 0.950 . S
H52 C30 0.950 . S
C53 C54 1.443 . S
C53 N57 1.376 . S
C53 C91 1.389 . S
C54 C53 1.443 . S
C54 C55 1.340 . S
C54 H94 0.951 . S
C55 C54 1.340 . S
C55 C56 1.439 . S
C55 H95 0.950 . S
C56 C55 1.439 . S
C56 N57 1.374 . S
C56 C90 1.395 . S
N57 C53 1.376 . S
N57 C56 1.374 . S
N57 Co58 2.008 . S
Co58 N57 2.008 . S
Co58 N59 1.995 . S
Co58 N64 2.008 . S
Co58 N69 1.995 . S
Co58 N74 2.282 . S
Co58 N80 2.282 . S
N59 Co58 1.995 . S
N59 C60 1.376 . S
N59 C63 1.383 . S
C60 N59 1.376 . S
C60 C61 1.446 . S
C60 C90 1.391 . S
C61 C60 1.446 . S
C61 C62 1.339 . S
C61 H96 0.949 . S
C62 C61 1.339 . S
C62 C63 1.439 . S
C62 H97 0.950 . S
C63 N59 1.383 . S
C63 C62 1.439 . S
C63 C92 1.392 . S
N64 Co58 2.008 . S
N64 C65 1.376 . S
N64 C68 1.374 . S
C65 N64 1.376 . S
C65 C66 1.443 . S
C65 C92 1.389 . S
C66 C65 1.443 . S
C66 C67 1.340 . S
C66 H98 0.951 . S
C67 C66 1.340 . S
C67 C68 1.439 . S
C67 H99 0.950 . S
C68 N64 1.374 . S
C68 C67 1.439 . S
C68 C93 1.395 . S
N69 Co58 1.995 . S
N69 C70 1.376 . S
N69 C73 1.383 . S
C70 N69 1.376 . S
C70 C71 1.446 . S
C70 C93 1.391 . S
C71 C70 1.446 . S
C71 C72 1.339 . S
C71 H100 0.949 . S
C72 C71 1.339 . S
C72 C73 1.439 . S
C72 H101 0.950 . S
C73 N69 1.383 . S
C73 C72 1.439 . S
C73 C91 1.392 . S
N74 Co58 2.282 . S
N74 C77 1.332 . S
N74 C79 1.332 . S
C75 C76 1.386 . S
C75 C78 1.388 . S
C76 C75 1.386 . S
C76 C77 1.382 . S
C76 H102 0.950 . S
C77 N74 1.332 . S
C77 C76 1.382 . S
C77 H88 0.952 . S
C78 C75 1.388 . S
C78 C79 1.382 . S
C78 H103 0.950 . S
C79 N74 1.332 . S
C79 C78 1.382 . S
C79 H89 0.948 . S
N80 Co58 2.282 . S
N80 C84 1.332 . S
N80 C85 1.332 . S
C81 C82 1.388 . S
C81 C85 1.382 . S
C81 H104 0.950 . S
C82 C81 1.388 . S
C82 C83 1.386 . S
C83 C82 1.386 . S
C83 C84 1.382 . S
C83 H105 0.950 . S
C84 N80 1.332 . S
C84 C83 1.382 . S
C84 H86 0.952 . S
C85 N80 1.332 . S
C85 C81 1.382 . S
C85 H87 0.948 . S
H86 C84 0.952 . S
H87 C85 0.948 . S
H88 C77 0.952 . S
H89 C79 0.948 . S
C90 C56 1.395 . S
C90 C60 1.391 . S
C91 C53 1.389 . S
C91 C73 1.392 . S
C92 C63 1.392 . S
C92 C65 1.389 . S
C93 C68 1.395 . S
C93 C70 1.391 . S
H94 C54 0.951 . S
H95 C55 0.950 . S
H96 C61 0.949 . S
H97 C62 0.950 . S
H98 C66 0.951 . S
H99 C67 0.950 . S
H100 C71 0.949 . S
H101 C72 0.950 . S
H102 C76 0.950 . S
H103 C78 0.950 . S
H104 C81 0.950 . S
H105 C83 0.950 . S
C106 C107 1.443 . S
C106 N110 1.376 . S
C106 C144 1.389 . S
C107 C106 1.443 . S
C107 C108 1.340 . S
C107 H147 0.951 . S
C108 C107 1.340 . S
C108 C109 1.439 . S
C108 H148 0.950 . S
C109 C108 1.439 . S
C109 N110 1.374 . S
C109 C143 1.395 . S
N110 C106 1.376 . S
N110 C109 1.374 . S
N110 Co111 2.008 . S
Co111 N110 2.008 . S
Co111 N112 1.995 . S
Co111 N117 2.008 . S
Co111 N122 1.995 . S
Co111 N127 2.282 . S
Co111 N133 2.282 . S
N112 Co111 1.995 . S
N112 C113 1.376 . S
N112 C116 1.383 . S
C113 N112 1.376 . S
C113 C114 1.446 . S
C113 C143 1.391 . S
C114 C113 1.446 . S
C114 C115 1.339 . S
C114 H149 0.949 . S
C115 C114 1.339 . S
C115 C116 1.439 . S
C115 H150 0.950 . S
C116 N112 1.383 . S
C116 C115 1.439 . S
C116 C145 1.392 . S
N117 Co111 2.008 . S
N117 C118 1.376 . S
N117 C121 1.374 . S
C118 N117 1.376 . S
C118 C119 1.443 . S
C118 C145 1.389 . S
C119 C118 1.443 . S
C119 C120 1.340 . S
C119 H151 0.951 . S
C120 C119 1.340 . S
C120 C121 1.439 . S
C120 H152 0.950 . S
C121 N117 1.374 . S
C121 C120 1.439 . S
C121 C146 1.395 . S
N122 Co111 1.995 . S
N122 C123 1.376 . S
N122 C126 1.383 . S
C123 N122 1.376 . S
C123 C124 1.446 . S
C123 C146 1.391 . S
C124 C123 1.446 . S
C124 C125 1.339 . S
C124 H153 0.949 . S
C125 C124 1.339 . S
C125 C126 1.439 . S
C125 H154 0.950 . S
C126 N122 1.383 . S
C126 C125 1.439 . S
C126 C144 1.392 . S
N127 Co111 2.282 . S
N127 C130 1.332 . S
N127 C132 1.332 . S
C128 C129 1.386 . S
C128 C131 1.388 . S
C129 C128 1.386 . S
C129 C130 1.382 . S
C129 H155 0.950 . S
C130 N127 1.332 . S
C130 C129 1.382 . S
C130 H141 0.952 . S
C131 C128 1.388 . S
C131 C132 1.382 . S
C131 H156 0.950 . S
C132 N127 1.332 . S
C132 C131 1.382 . S
C132 H142 0.948 . S
N133 Co111 2.282 . S
N133 C137 1.332 . S
N133 C138 1.332 . S
C134 C135 1.388 . S
C134 C138 1.382 . S
C134 H157 0.950 . S
C135 C134 1.388 . S
C135 C136 1.386 . S
C136 C135 1.386 . S
C136 C137 1.382 . S
C136 H158 0.950 . S
C137 N133 1.332 . S
C137 C136 1.382 . S
C137 H139 0.952 . S
C138 N133 1.332 . S
C138 C134 1.382 . S
C138 H140 0.948 . S
H139 C137 0.952 . S
H140 C138 0.948 . S
H141 C130 0.952 . S
H142 C132 0.948 . S
C143 C109 1.395 . S
C143 C113 1.391 . S
C144 C106 1.389 . S
C144 C126 1.392 . S
C145 C116 1.392 . S
C145 C118 1.389 . S
C146 C121 1.395 . S
C146 C123 1.391 . S
H147 C107 0.951 . S
H148 C108 0.950 . S
H149 C114 0.949 . S
H150 C115 0.950 . S
H151 C119 0.951 . S
H152 C120 0.950 . S
H153 C124 0.949 . S
H154 C125 0.950 . S
H155 C129 0.950 . S
H156 C131 0.950 . S
H157 C134 0.950 . S
H158 C136 0.950 . S
C159 C160 1.443 . S
C159 N163 1.376 . S
C159 C197 1.389 . S
C160 C159 1.443 . S
C160 C161 1.340 . S
C160 H200 0.951 . S
C161 C160 1.340 . S
C161 C162 1.439 . S
C161 H201 0.950 . S
C162 C161 1.439 . S
C162 N163 1.374 . S
C162 C196 1.395 . S
N163 C159 1.376 . S
N163 C162 1.374 . S
N163 Co164 2.008 . S
Co164 N163 2.008 . S
Co164 N165 1.995 . S
Co164 N170 2.008 . S
Co164 N175 1.995 . S
Co164 N180 2.282 . S
Co164 N186 2.282 . S
N165 Co164 1.995 . S
N165 C166 1.376 . S
N165 C169 1.383 . S
C166 N165 1.376 . S
C166 C167 1.446 . S
C166 C196 1.391 . S
C167 C166 1.446 . S
C167 C168 1.339 . S
C167 H202 0.949 . S
C168 C167 1.339 . S
C168 C169 1.439 . S
C168 H203 0.950 . S
C169 N165 1.383 . S
C169 C168 1.439 . S
C169 C198 1.392 . S
N170 Co164 2.008 . S
N170 C171 1.376 . S
N170 C174 1.374 . S
C171 N170 1.376 . S
C171 C172 1.443 . S
C171 C198 1.389 . S
C172 C171 1.443 . S
C172 C173 1.340 . S
C172 H204 0.951 . S
C173 C172 1.340 . S
C173 C174 1.439 . S
C173 H205 0.950 . S
C174 N170 1.374 . S
C174 C173 1.439 . S
C174 C199 1.395 . S
N175 Co164 1.995 . S
N175 C176 1.376 . S
N175 C179 1.383 . S
C176 N175 1.376 . S
C176 C177 1.446 . S
C176 C199 1.391 . S
C177 C176 1.446 . S
C177 C178 1.339 . S
C177 H206 0.949 . S
C178 C177 1.339 . S
C178 C179 1.439 . S
C178 H207 0.950 . S
C179 N175 1.383 . S
C179 C178 1.439 . S
C179 C197 1.392 . S
N180 Co164 2.282 . S
N180 C183 1.332 . S
N180 C185 1.332 . S
C181 C182 1.386 . S
C181 C184 1.388 . S
C182 C181 1.386 . S
C182 C183 1.382 . S
C182 H208 0.950 . S
C183 N180 1.332 . S
C183 C182 1.382 . S
C183 H194 0.952 . S
C184 C181 1.388 . S
C184 C185 1.382 . S
C184 H209 0.950 . S
C185 N180 1.332 . S
C185 C184 1.382 . S
C185 H195 0.948 . S
N186 Co164 2.282 . S
N186 C190 1.332 . S
N186 C191 1.332 . S
C187 C188 1.388 . S
C187 C191 1.382 . S
C187 H210 0.950 . S
C188 C187 1.388 . S
C188 C189 1.386 . S
C189 C188 1.386 . S
C189 C190 1.382 . S
C189 H211 0.950 . S
C190 N186 1.332 . S
C190 C189 1.382 . S
C190 H192 0.952 . S
C191 N186 1.332 . S
C191 C187 1.382 . S
C191 H193 0.948 . S
H192 C190 0.952 . S
H193 C191 0.948 . S
H194 C183 0.952 . S
H195 C185 0.948 . S
C196 C162 1.395 . S
C196 C166 1.391 . S
C197 C159 1.389 . S
C197 C179 1.392 . S
C198 C169 1.392 . S
C198 C171 1.389 . S
C199 C174 1.395 . S
C199 C176 1.391 . S
H200 C160 0.951 . S
H201 C161 0.950 . S
H202 C167 0.949 . S
H203 C168 0.950 . S
H204 C172 0.951 . S
H205 C173 0.950 . S
H206 C177 0.949 . S
H207 C178 0.950 . S
H208 C182 0.950 . S
H209 C184 0.950 . S
H210 C187 0.950 . S
H211 C189 0.950 . S
C212 C213 1.443 . S
C212 N216 1.376 . S
C212 C250 1.389 . S
C213 C212 1.443 . S
C213 C214 1.340 . S
C213 H253 0.951 . S
C214 C213 1.340 . S
C214 C215 1.439 . S
C214 H254 0.950 . S
C215 C214 1.439 . S
C215 N216 1.374 . S
C215 C249 1.395 . S
N216 C212 1.376 . S
N216 C215 1.374 . S
N216 Co217 2.008 . S
Co217 N216 2.008 . S
Co217 N218 1.995 . S
Co217 N223 2.008 . S
Co217 N228 1.995 . S
Co217 N233 2.282 . S
Co217 N239 2.282 . S
N218 Co217 1.995 . S
N218 C219 1.376 . S
N218 C222 1.383 . S
C219 N218 1.376 . S
C219 C220 1.446 . S
C219 C249 1.391 . S
C220 C219 1.446 . S
C220 C221 1.339 . S
C220 H255 0.949 . S
C221 C220 1.339 . S
C221 C222 1.439 . S
C221 H256 0.950 . S
C222 N218 1.383 . S
C222 C221 1.439 . S
C222 C251 1.392 . S
N223 Co217 2.008 . S
N223 C224 1.376 . S
N223 C227 1.374 . S
C224 N223 1.376 . S
C224 C225 1.443 . S
C224 C251 1.389 . S
C225 C224 1.443 . S
C225 C226 1.340 . S
C225 H257 0.951 . S
C226 C225 1.340 . S
C226 C227 1.439 . S
C226 H258 0.950 . S
C227 N223 1.374 . S
C227 C226 1.439 . S
C227 C252 1.395 . S
N228 Co217 1.995 . S
N228 C229 1.376 . S
N228 C232 1.383 . S
C229 N228 1.376 . S
C229 C230 1.446 . S
C229 C252 1.391 . S
C230 C229 1.446 . S
C230 C231 1.339 . S
C230 H259 0.949 . S
C231 C230 1.339 . S
C231 C232 1.439 . S
C231 H260 0.950 . S
C232 N228 1.383 . S
C232 C231 1.439 . S
C232 C250 1.392 . S
N233 Co217 2.282 . S
N233 C236 1.332 . S
N233 C238 1.332 . S
C234 C235 1.386 . S
C234 C237 1.388 . S
C235 C234 1.386 . S
C235 C236 1.382 . S
C235 H261 0.950 . S
C236 N233 1.332 . S
C236 C235 1.382 . S
C236 H247 0.952 . S
C237 C234 1.388 . S
C237 C238 1.382 . S
C237 H262 0.950 . S
C238 N233 1.332 . S
C238 C237 1.382 . S
C238 H248 0.948 . S
N239 Co217 2.282 . S
N239 C243 1.332 . S
N239 C244 1.332 . S
C240 C241 1.388 . S
C240 C244 1.382 . S
C240 H263 0.950 . S
C241 C240 1.388 . S
C241 C242 1.386 . S
C242 C241 1.386 . S
C242 C243 1.382 . S
C242 H264 0.950 . S
C243 N239 1.332 . S
C243 C242 1.382 . S
C243 H245 0.952 . S
C244 N239 1.332 . S
C244 C240 1.382 . S
C244 H246 0.948 . S
H245 C243 0.952 . S
H246 C244 0.948 . S
H247 C236 0.952 . S
H248 C238 0.948 . S
C249 C215 1.395 . S
C249 C219 1.391 . S
C250 C212 1.389 . S
C250 C232 1.392 . S
C251 C222 1.392 . S
C251 C224 1.389 . S
C252 C227 1.395 . S
C252 C229 1.391 . S
H253 C213 0.951 . S
H254 C214 0.950 . S
H255 C220 0.949 . S
H256 C221 0.950 . S
H257 C225 0.951 . S
H258 C226 0.950 . S
H259 C230 0.949 . S
H260 C231 0.950 . S
H261 C235 0.950 . S
H262 C237 0.950 . S
H263 C240 0.950 . S
H264 C242 0.950 . S
C265 C266 1.443 . S
C265 N269 1.376 . S
C265 C303 1.389 . S
C266 C265 1.443 . S
C266 C267 1.340 . S
C266 H306 0.951 . S
C267 C266 1.340 . S
C267 C268 1.439 . S
C267 H307 0.950 . S
C268 C267 1.439 . S
C268 N269 1.374 . S
C268 C302 1.395 . S
N269 C265 1.376 . S
N269 C268 1.374 . S
N269 Co270 2.008 . S
Co270 N269 2.008 . S
Co270 N271 1.995 . S
Co270 N276 2.008 . S
Co270 N281 1.995 . S
Co270 N286 2.282 . S
Co270 N292 2.282 . S
N271 Co270 1.995 . S
N271 C272 1.376 . S
N271 C275 1.383 . S
C272 N271 1.376 . S
C272 C273 1.446 . S
C272 C302 1.391 . S
C273 C272 1.446 . S
C273 C274 1.339 . S
C273 H308 0.949 . S
C274 C273 1.339 . S
C274 C275 1.439 . S
C274 H309 0.950 . S
C275 N271 1.383 . S
C275 C274 1.439 . S
C275 C304 1.392 . S
N276 Co270 2.008 . S
N276 C277 1.376 . S
N276 C280 1.374 . S
C277 N276 1.376 . S
C277 C278 1.443 . S
C277 C304 1.389 . S
C278 C277 1.443 . S
C278 C279 1.340 . S
C278 H310 0.951 . S
C279 C278 1.340 . S
C279 C280 1.439 . S
C279 H311 0.950 . S
C280 N276 1.374 . S
C280 C279 1.439 . S
C280 C305 1.395 . S
N281 Co270 1.995 . S
N281 C282 1.376 . S
N281 C285 1.383 . S
C282 N281 1.376 . S
C282 C283 1.446 . S
C282 C305 1.391 . S
C283 C282 1.446 . S
C283 C284 1.339 . S
C283 H312 0.949 . S
C284 C283 1.339 . S
C284 C285 1.439 . S
C284 H313 0.950 . S
C285 N281 1.383 . S
C285 C284 1.439 . S
C285 C303 1.392 . S
N286 Co270 2.282 . S
N286 C289 1.332 . S
N286 C291 1.332 . S
C287 C288 1.386 . S
C287 C290 1.388 . S
C288 C287 1.386 . S
C288 C289 1.382 . S
C288 H314 0.950 . S
C289 N286 1.332 . S
C289 C288 1.382 . S
C289 H300 0.952 . S
C290 C287 1.388 . S
C290 C291 1.382 . S
C290 H315 0.950 . S
C291 N286 1.332 . S
C291 C290 1.382 . S
C291 H301 0.948 . S
N292 Co270 2.282 . S
N292 C296 1.332 . S
N292 C297 1.332 . S
C293 C294 1.388 . S
C293 C297 1.382 . S
C293 H316 0.950 . S
C294 C293 1.388 . S
C294 C295 1.386 . S
C295 C294 1.386 . S
C295 C296 1.382 . S
C295 H317 0.950 . S
C296 N292 1.332 . S
C296 C295 1.382 . S
C296 H298 0.952 . S
C297 N292 1.332 . S
C297 C293 1.382 . S
C297 H299 0.948 . S
H298 C296 0.952 . S
H299 C297 0.948 . S
H300 C289 0.952 . S
H301 C291 0.948 . S
C302 C268 1.395 . S
C302 C272 1.391 . S
C303 C265 1.389 . S
C303 C285 1.392 . S
C304 C275 1.392 . S
C304 C277 1.389 . S
C305 C280 1.395 . S
C305 C282 1.391 . S
H306 C266 0.951 . S
H307 C267 0.950 . S
H308 C273 0.949 . S
H309 C274 0.950 . S
H310 C278 0.951 . S
H311 C279 0.950 . S
H312 C283 0.949 . S
H313 C284 0.950 . S
H314 C288 0.950 . S
H315 C290 0.950 . S
H316 C293 0.950 . S
H317 C295 0.950 . S
H318 C326 0.929 . S
H319 C328 0.930 . S
H320 C330 0.930 . S
H321 C333 0.929 . S
H322 C336 0.930 . S
H323 C338 0.960 . S
H324 C338 0.960 . S
H325 C338 0.960 . S
C326 H318 0.929 . S
C326 C327 1.377 . S
C326 C328 1.384 . S
C327 C326 1.377 . S
C327 C333 1.390 . S
C328 H319 0.930 . S
C328 C326 1.384 . S
C328 C329 1.372 . S
C329 C328 1.372 . S
C329 C330 1.400 . S
C329 C334 1.490 . S
C330 H320 0.930 . S
C330 C329 1.400 . S
C330 C333 1.386 . S
H331 C347 0.930 . S
H332 C348 0.931 . S
C333 H321 0.929 . S
C333 C327 1.390 . S
C333 C330 1.386 . S
C334 C329 1.490 . S
C334 C336 1.395 . S
C334 C337 1.403 . S
H335 C341 0.930 . S
C336 H322 0.930 . S
C336 C334 1.395 . S
C336 C339 1.403 1_545 S
C337 C334 1.403 . S
C337 C338 1.524 . S
C337 C341 1.400 1_545 S
C338 H323 0.960 . S
C338 H324 0.960 . S
C338 H325 0.960 . S
C338 C337 1.524 . S
C339 C336 1.403 1_565 S
C339 C340 1.392 . S
C339 C343 1.495 . S
C340 C339 1.392 . S
C340 C341 1.385 . S
C340 C342 1.478 . S
C341 H335 0.930 . S
C341 C337 1.400 1_565 S
C341 C340 1.385 . S
C342 C340 1.478 . S
C342 C344 1.381 . S
C342 C348 1.383 . S
C343 C339 1.495 . S
C343 H349 0.959 . S
C343 H350 0.961 . S
C343 H351 0.960 . S
C344 C342 1.381 . S
C344 C345 1.394 . S
C344 H352 0.930 . S
C345 C344 1.394 . S
C345 C346 1.383 . S
C345 H353 0.929 . S
C346 C345 1.383 . S
C346 C347 1.377 . S
C347 H331 0.930 . S
C347 C346 1.377 . S
C347 C348 1.379 . S
C348 H332 0.931 . S
C348 C342 1.383 . S
C348 C347 1.379 . S
H349 C343 0.959 . S
H350 C343 0.961 . S
H351 C343 0.960 . S
H352 C344 0.930 . S
H353 C345 0.929 . S
H354 C362 0.929 . S
H355 C364 0.930 . S
H356 C366 0.930 . S
H357 C369 0.929 . S
H358 C372 0.930 . S
H359 C374 0.960 . S
H360 C374 0.960 . S
H361 C374 0.960 . S
C362 H354 0.929 . S
C362 C363 1.377 . S
C362 C364 1.384 . S
C363 C362 1.377 . S
C363 C369 1.390 . S
C364 H355 0.930 . S
C364 C362 1.384 . S
C364 C365 1.372 . S
C365 C364 1.372 . S
C365 C366 1.400 . S
C365 C370 1.490 . S
C366 H356 0.930 . S
C366 C365 1.400 . S
C366 C369 1.386 . S
H367 C383 0.930 . S
H368 C384 0.931 . S
C369 H357 0.929 . S
C369 C363 1.390 . S
C369 C366 1.386 . S
C370 C365 1.490 . S
C370 C372 1.395 . S
C370 C373 1.403 . S
H371 C377 0.930 . S
C372 H358 0.930 . S
C372 C370 1.395 . S
C372 C375 1.403 . S
C373 C370 1.403 . S
C373 C374 1.524 . S
C373 C377 1.400 . S
C374 H359 0.960 . S
C374 H360 0.960 . S
C374 H361 0.960 . S
C374 C373 1.524 . S
C375 C372 1.403 . S
C375 C376 1.392 . S
C375 C379 1.495 . S
C376 C375 1.392 . S
C376 C377 1.385 . S
C376 C378 1.478 . S
C377 H371 0.930 . S
C377 C373 1.400 . S
C377 C376 1.385 . S
C378 C376 1.478 . S
C378 C380 1.381 . S
C378 C384 1.383 . S
C379 C375 1.495 . S
C379 H385 0.959 . S
C379 H386 0.961 . S
C379 H387 0.960 . S
C380 C378 1.381 . S
C380 C381 1.394 . S
C380 H388 0.930 . S
C381 C380 1.394 . S
C381 C382 1.383 . S
C381 H389 0.929 . S
C382 C381 1.383 . S
C382 C383 1.377 . S
C383 H367 0.930 . S
C383 C382 1.377 . S
C383 C384 1.379 . S
C384 H368 0.931 . S
C384 C378 1.383 . S
C384 C383 1.379 . S
H385 C379 0.959 . S
H386 C379 0.961 . S
H387 C379 0.960 . S
H388 C380 0.930 . S
H389 C381 0.929 . S
H390 C398 0.929 . S
H391 C400 0.930 . S
H392 C402 0.930 . S
H393 C405 0.929 . S
H394 C408 0.930 . S
H395 C410 0.960 1_455 S
H396 C410 0.960 . S
H397 C410 0.960 . S
C398 H390 0.929 . S
C398 C399 1.377 . S
C398 C400 1.384 . S
C399 C398 1.377 . S
C399 C405 1.390 . S
C400 H391 0.930 . S
C400 C398 1.384 . S
C400 C401 1.372 . S
C401 C400 1.372 . S
C401 C402 1.400 . S
C401 C406 1.490 . S
C402 H392 0.930 . S
C402 C401 1.400 . S
C402 C405 1.386 . S
H403 C419 0.930 . S
H404 C420 0.931 . S
C405 H393 0.929 . S
C405 C399 1.390 . S
C405 C402 1.386 . S
C406 C401 1.490 . S
C406 C408 1.395 . S
C406 C409 1.403 . S
H407 C413 0.930 . S
C408 H394 0.930 . S
C408 C406 1.395 . S
C408 C411 1.403 1_655 S
C409 C406 1.403 . S
C409 C410 1.524 . S
C409 C413 1.400 1_655 S
C410 H395 0.960 1_655 S
C410 H396 0.960 . S
C410 H397 0.960 . S
C410 C409 1.524 . S
C411 C408 1.403 1_455 S
C411 C412 1.392 . S
C411 C415 1.495 . S
C412 C411 1.392 . S
C412 C413 1.385 . S
C412 C414 1.478 . S
C413 H407 0.930 . S
C413 C409 1.400 1_455 S
C413 C412 1.385 . S
C414 C412 1.478 . S
C414 C416 1.381 . S
C414 C420 1.383 . S
C415 C411 1.495 . S
C415 H421 0.959 1_455 S
C415 H422 0.961 . S
C415 H423 0.960 . S
C416 C414 1.381 . S
C416 C417 1.394 . S
C416 H424 0.930 . S
C417 C416 1.394 . S
C417 C418 1.383 . S
C417 H425 0.929 . S
C418 C417 1.383 . S
C418 C419 1.377 . S
C419 H403 0.930 . S
C419 C418 1.377 . S
C419 C420 1.379 . S
C420 H404 0.931 . S
C420 C414 1.383 . S
C420 C419 1.379 . S
H421 C415 0.959 1_655 S
H422 C415 0.961 . S
H423 C415 0.960 . S
H424 C416 0.930 . S
H425 C417 0.929 . S
H426 C434 0.929 . S
H427 C436 0.930 . S
H428 C438 0.930 . S
H429 C441 0.929 . S
H430 C444 0.930 . S
H431 C446 0.960 . S
H432 C446 0.960 . S
H433 C446 0.960 . S
C434 H426 0.929 . S
C434 C435 1.377 . S
C434 C436 1.384 . S
C435 C434 1.377 . S
C435 C441 1.390 . S
C436 H427 0.930 . S
C436 C434 1.384 . S
C436 C437 1.372 . S
C437 C436 1.372 . S
C437 C438 1.400 . S
C437 C442 1.490 . S
C438 H428 0.930 . S
C438 C437 1.400 . S
C438 C441 1.386 . S
H439 C455 0.930 . S
H440 C456 0.931 . S
C441 H429 0.929 . S
C441 C435 1.390 . S
C441 C438 1.386 . S
C442 C437 1.490 . S
C442 C444 1.395 . S
C442 C445 1.403 . S
H443 C449 0.930 . S
C444 H430 0.930 . S
C444 C442 1.395 . S
C444 C447 1.403 1_455 S
C445 C442 1.403 . S
C445 C446 1.524 . S
C445 C449 1.400 1_455 S
C446 H431 0.960 . S
C446 H432 0.960 . S
C446 H433 0.960 . S
C446 C445 1.524 . S
C447 C444 1.403 1_655 S
C447 C448 1.392 . S
C447 C451 1.495 . S
C448 C447 1.392 . S
C448 C449 1.385 . S
C448 C450 1.478 . S
C449 H443 0.930 . S
C449 C445 1.400 1_655 S
C449 C448 1.385 . S
C450 C448 1.478 . S
C450 C452 1.381 . S
C450 C456 1.383 . S
C451 C447 1.495 . S
C451 H457 0.959 . S
C451 H458 0.961 . S
C451 H459 0.960 . S
C452 C450 1.381 . S
C452 C453 1.394 . S
C452 H460 0.930 . S
C453 C452 1.394 . S
C453 C454 1.383 . S
C453 H461 0.929 . S
C454 C453 1.383 . S
C454 C455 1.377 . S
C455 H439 0.930 . S
C455 C454 1.377 . S
C455 C456 1.379 . S
C456 H440 0.931 . S
C456 C450 1.383 . S
C456 C455 1.379 . S
H457 C451 0.959 . S
H458 C451 0.961 . S
H459 C451 0.960 . S
H460 C452 0.930 . S
H461 C453 0.929 . S
H462 C470 0.929 . S
H463 C472 0.930 . S
H464 C474 0.930 . S
H465 C477 0.929 . S
H466 C480 0.930 . S
H467 C482 0.960 . S
H468 C482 0.960 . S
H469 C482 0.960 . S
C470 H462 0.929 . S
C470 C471 1.377 . S
C470 C472 1.384 . S
C471 C470 1.377 . S
C471 C477 1.390 . S
C472 H463 0.930 . S
C472 C470 1.384 . S
C472 C473 1.372 . S
C473 C472 1.372 . S
C473 C474 1.400 . S
C473 C478 1.490 . S
C474 H464 0.930 . S
C474 C473 1.400 . S
C474 C477 1.386 . S
H475 C491 0.930 . S
H476 C492 0.931 . S
C477 H465 0.929 . S
C477 C471 1.390 . S
C477 C474 1.386 . S
C478 C473 1.490 . S
C478 C480 1.395 . S
C478 C481 1.403 . S
H479 C485 0.930 . S
C480 H466 0.930 . S
C480 C478 1.395 . S
C480 C483 1.403 1_565 S
C481 C478 1.403 . S
C481 C482 1.524 . S
C481 C485 1.400 1_565 S
C482 H467 0.960 . S
C482 H468 0.960 . S
C482 H469 0.960 . S
C482 C481 1.524 . S
C483 C480 1.403 1_545 S
C483 C484 1.392 . S
C483 C487 1.495 . S
C484 C483 1.392 . S
C484 C485 1.385 . S
C484 C486 1.478 . S
C485 H479 0.930 . S
C485 C481 1.400 1_545 S
C485 C484 1.385 . S
C486 C484 1.478 . S
C486 C488 1.381 . S
C486 C492 1.383 . S
C487 C483 1.495 . S
C487 H493 0.959 . S
C487 H494 0.961 . S
C487 H495 0.960 . S
C488 C486 1.381 . S
C488 C489 1.394 . S
C488 H496 0.930 . S
C489 C488 1.394 . S
C489 C490 1.383 . S
C489 H497 0.929 . S
C490 C489 1.383 . S
C490 C491 1.377 . S
C491 H475 0.930 . S
C491 C490 1.377 . S
C491 C492 1.379 . S
C492 H476 0.931 . S
C492 C486 1.383 . S
C492 C491 1.379 . S
H493 C487 0.959 . S
H494 C487 0.961 . S
H495 C487 0.960 . S
H496 C488 0.930 . S
H497 C489 0.929 . S
H498 C506 0.929 . S
H499 C508 0.930 . S
H500 C510 0.930 . S
H501 C513 0.929 . S
H502 C516 0.930 . S
H503 C518 0.960 . S
H504 C518 0.960 . S
H505 C518 0.960 . S
C506 H498 0.929 . S
C506 C507 1.377 . S
C506 C508 1.384 . S
C507 C506 1.377 . S
C507 C513 1.390 . S
C508 H499 0.930 . S
C508 C506 1.384 . S
C508 C509 1.372 . S
C509 C508 1.372 . S
C509 C510 1.400 . S
C509 C514 1.490 . S
C510 H500 0.930 . S
C510 C509 1.400 . S
C510 C513 1.386 . S
H511 C527 0.930 . S
H512 C528 0.931 . S
C513 H501 0.929 . S
C513 C507 1.390 . S
C513 C510 1.386 . S
C514 C509 1.490 . S
C514 C516 1.395 . S
C514 C517 1.403 . S
H515 C521 0.930 . S
C516 H502 0.930 . S
C516 C514 1.395 . S
C516 C519 1.403 . S
C517 C514 1.403 . S
C517 C518 1.524 . S
C517 C521 1.400 . S
C518 H503 0.960 . S
C518 H504 0.960 . S
C518 H505 0.960 . S
C518 C517 1.524 . S
C519 C516 1.403 . S
C519 C520 1.392 . S
C519 C523 1.495 . S
C520 C519 1.392 . S
C520 C521 1.385 . S
C520 C522 1.478 . S
C521 H515 0.930 . S
C521 C517 1.400 . S
C521 C520 1.385 . S
C522 C520 1.478 . S
C522 C524 1.381 . S
C522 C528 1.383 . S
C523 C519 1.495 . S
C523 H529 0.959 . S
C523 H530 0.961 . S
C523 H531 0.960 . S
C524 C522 1.381 . S
C524 C525 1.394 . S
C524 H532 0.930 . S
C525 C524 1.394 . S
C525 C526 1.383 . S
C525 H533 0.929 . S
C526 C525 1.383 . S
C526 C527 1.377 . S
C527 H511 0.930 . S
C527 C526 1.377 . S
C527 C528 1.379 . S
C528 H512 0.931 . S
C528 C522 1.383 . S
C528 C527 1.379 . S
H529 C523 0.959 . S
H530 C523 0.961 . S
H531 C523 0.960 . S
H532 C524 0.930 . S
H533 C525 0.929 . S
H534 C542 0.929 . S
H535 C544 0.930 . S
H536 C546 0.930 . S
H537 C549 0.929 . S
H538 C552 0.930 . S
H539 C554 0.960 . S
H540 C554 0.960 . S
H541 C554 0.960 1_556 S
C542 H534 0.929 . S
C542 C543 1.377 . S
C542 C544 1.384 . S
C543 C542 1.377 . S
C543 C549 1.390 . S
C544 H535 0.930 . S
C544 C542 1.384 . S
C544 C545 1.372 . S
C545 C544 1.372 . S
C545 C546 1.400 . S
C545 C550 1.490 . S
C546 H536 0.930 . S
C546 C545 1.400 . S
C546 C549 1.386 . S
H547 C563 0.930 . S
H548 C564 0.931 . S
C549 H537 0.929 . S
C549 C543 1.390 . S
C549 C546 1.386 . S
C550 C545 1.490 . S
C550 C552 1.395 . S
C550 C553 1.403 1_556 S
H551 C557 0.930 . S
C552 H538 0.930 . S
C552 C550 1.395 . S
C552 C555 1.403 . S
C553 C550 1.403 1_554 S
C553 C554 1.524 . S
C553 C557 1.400 . S
C554 H539 0.960 . S
C554 H540 0.960 . S
C554 H541 0.960 1_554 S
C554 C553 1.524 . S
C555 C552 1.403 . S
C555 C556 1.392 1_556 S
C555 C559 1.495 . S
C556 C555 1.392 1_554 S
C556 C557 1.385 . S
C556 C558 1.478 . S
C557 H551 0.930 . S
C557 C553 1.400 . S
C557 C556 1.385 . S
C558 C556 1.478 . S
C558 C560 1.381 . S
C558 C564 1.383 . S
C559 C555 1.495 . S
C559 H565 0.959 . S
C559 H566 0.961 . S
C559 H567 0.960 1_556 S
C560 C558 1.381 . S
C560 C561 1.394 . S
C560 H568 0.930 . S
C561 C560 1.394 . S
C561 C562 1.383 . S
C561 H569 0.929 . S
C562 C561 1.383 . S
C562 C563 1.377 . S
C563 H547 0.930 . S
C563 C562 1.377 . S
C563 C564 1.379 . S
C564 H548 0.931 . S
C564 C558 1.383 . S
C564 C563 1.379 . S
H565 C559 0.959 . S
H566 C559 0.961 . S
H567 C559 0.960 1_554 S
H568 C560 0.930 . S
H569 C561 0.929 . S
H570 C578 0.929 . S
H571 C580 0.930 . S
H572 C582 0.930 . S
H573 C585 0.929 . S
H574 C588 0.930 . S
H575 C590 0.960 . S
H576 C590 0.960 . S
H577 C590 0.960 . S
C578 H570 0.929 . S
C578 C579 1.377 . S
C578 C580 1.384 . S
C579 C578 1.377 . S
C579 C585 1.390 . S
C580 H571 0.930 . S
C580 C578 1.384 . S
C580 C581 1.372 . S
C581 C580 1.372 . S
C581 C582 1.400 . S
C581 C586 1.490 . S
C582 H572 0.930 . S
C582 C581 1.400 . S
C582 C585 1.386 . S
H583 C599 0.930 . S
H584 C600 0.931 . S
C585 H573 0.929 . S
C585 C579 1.390 . S
C585 C582 1.386 . S
C586 C581 1.490 . S
C586 C588 1.395 . S
C586 C589 1.403 . S
H587 C593 0.930 . S
C588 H574 0.930 . S
C588 C586 1.395 . S
C588 C591 1.403 . S
C589 C586 1.403 . S
C589 C590 1.524 . S
C589 C593 1.400 . S
C590 H575 0.960 . S
C590 H576 0.960 . S
C590 H577 0.960 . S
C590 C589 1.524 . S
C591 C588 1.403 . S
C591 C592 1.392 . S
C591 C595 1.495 . S
C592 C591 1.392 . S
C592 C593 1.385 . S
C592 C594 1.478 . S
C593 H587 0.930 . S
C593 C589 1.400 . S
C593 C592 1.385 . S
C594 C592 1.478 . S
C594 C596 1.381 . S
C594 C600 1.383 . S
C595 C591 1.495 . S
C595 H601 0.959 . S
C595 H602 0.961 . S
C595 H603 0.960 . S
C596 C594 1.381 . S
C596 C597 1.394 . S
C596 H604 0.930 . S
C597 C596 1.394 . S
C597 C598 1.383 . S
C597 H605 0.929 . S
C598 C597 1.383 . S
C598 C599 1.377 . S
C599 H583 0.930 . S
C599 C598 1.377 . S
C599 C600 1.379 . S
C600 H584 0.931 . S
C600 C594 1.383 . S
C600 C599 1.379 . S
H601 C595 0.959 . S
H602 C595 0.961 . S
H603 C595 0.960 . S
H604 C596 0.930 . S
H605 C597 0.929 . S
H606 C614 0.929 . S
H607 C616 0.930 . S
H608 C618 0.930 . S
H609 C621 0.929 . S
H610 C624 0.930 . S
H611 C626 0.960 . S
H612 C626 0.960 . S
H613 C626 0.960 . S
C614 H606 0.929 . S
C614 C615 1.377 . S
C614 C616 1.384 . S
C615 C614 1.377 . S
C615 C621 1.390 . S
C616 H607 0.930 . S
C616 C614 1.384 . S
C616 C617 1.372 . S
C617 C616 1.372 . S
C617 C618 1.400 . S
C617 C622 1.490 . S
C618 H608 0.930 . S
C618 C617 1.400 . S
C618 C621 1.386 . S
H619 C635 0.930 . S
H620 C636 0.931 . S
C621 H609 0.929 . S
C621 C615 1.390 . S
C621 C618 1.386 . S
C622 C617 1.490 . S
C622 C624 1.395 . S
C622 C625 1.403 . S
H623 C629 0.930 . S
C624 H610 0.930 . S
C624 C622 1.395 . S
C624 C627 1.403 . S
C625 C622 1.403 . S
C625 C626 1.524 . S
C625 C629 1.400 . S
C626 H611 0.960 . S
C626 H612 0.960 . S
C626 H613 0.960 . S
C626 C625 1.524 . S
C627 C624 1.403 . S
C627 C628 1.392 . S
C627 C631 1.495 . S
C628 C627 1.392 . S
C628 C629 1.385 . S
C628 C630 1.478 . S
C629 H623 0.930 . S
C629 C625 1.400 . S
C629 C628 1.385 . S
C630 C628 1.478 . S
C630 C632 1.381 . S
C630 C636 1.383 . S
C631 C627 1.495 . S
C631 H637 0.959 . S
C631 H638 0.961 . S
C631 H639 0.960 . S
C632 C630 1.381 . S
C632 C633 1.394 . S
C632 H640 0.930 . S
C633 C632 1.394 . S
C633 C634 1.383 . S
C633 H641 0.929 . S
C634 C633 1.383 . S
C634 C635 1.377 . S
C635 H619 0.930 . S
C635 C634 1.377 . S
C635 C636 1.379 . S
C636 H620 0.931 . S
C636 C630 1.383 . S
C636 C635 1.379 . S
H637 C631 0.959 . S
H638 C631 0.961 . S
H639 C631 0.960 . S
H640 C632 0.930 . S
H641 C633 0.929 . S
H642 C650 0.929 . S
H643 C652 0.930 . S
H644 C654 0.930 . S
H645 C657 0.929 . S
H646 C660 0.930 . S
H647 C662 0.960 . S
H648 C662 0.963 . S
H649 C662 0.960 1_556 S
C650 H642 0.929 . S
C650 C651 1.377 . S
C650 C652 1.384 . S
C651 C650 1.377 . S
C651 C657 1.390 . S
C652 H643 0.930 . S
C652 C650 1.384 . S
C652 C653 1.372 . S
C653 C652 1.372 . S
C653 C654 1.400 . S
C653 C658 1.490 . S
C654 H644 0.930 . S
C654 C653 1.400 . S
C654 C657 1.386 . S
H655 C671 0.930 . S
H656 C672 0.931 . S
C657 H645 0.929 . S
C657 C651 1.390 . S
C657 C654 1.386 . S
C658 C653 1.490 . S
C658 C660 1.395 . S
C658 C661 1.407 . S
H659 C665 0.930 . S
C660 H646 0.930 . S
C660 C658 1.395 . S
C660 C663 1.433 . S
C661 C658 1.407 . S
C661 C662 1.523 1_556 S
C661 C665 1.396 1_556 S
C662 H647 0.960 . S
C662 H648 0.963 . S
C662 H649 0.960 1_554 S
C662 C661 1.523 1_554 S
C663 C660 1.433 . S
C663 C664 1.363 1_556 S
C663 C667 1.497 . S
C664 C663 1.363 1_554 S
C664 C665 1.385 . S
C664 C666 1.478 . S
C665 H659 0.930 . S
C665 C661 1.396 1_554 S
C665 C664 1.385 . S
C666 C664 1.478 . S
C666 C668 1.381 . S
C666 C672 1.383 . S
C667 C663 1.497 . S
C667 H673 0.959 . S
C667 H674 0.965 . S
C667 H675 0.960 1_556 S
C668 C666 1.381 . S
C668 C669 1.394 . S
C668 H676 0.930 . S
C669 C668 1.394 . S
C669 C670 1.383 . S
C669 H677 0.929 . S
C670 C669 1.383 . S
C670 C671 1.377 . S
C671 H655 0.930 . S
C671 C670 1.377 . S
C671 C672 1.379 . S
C672 H656 0.931 . S
C672 C666 1.383 . S
C672 C671 1.379 . S
H673 C667 0.959 . S
H674 C667 0.965 . S
H675 C667 0.960 1_554 S
H676 C668 0.930 . S
H677 C669 0.929 . S
H678 C686 0.929 . S
H679 C688 0.930 . S
H680 C690 0.930 . S
H681 C693 0.929 . S
H682 C696 0.930 . S
H683 C698 0.960 . S
H684 C698 0.960 . S
H685 C698 0.960 . S
C686 H678 0.929 . S
C686 C687 1.377 . S
C686 C688 1.384 . S
C687 C686 1.377 . S
C687 C693 1.390 . S
C688 H679 0.930 . S
C688 C686 1.384 . S
C688 C689 1.372 . S
C689 C688 1.372 . S
C689 C690 1.400 . S
C689 C694 1.490 . S
C690 H680 0.930 . S
C690 C689 1.400 . S
C690 C693 1.386 . S
H691 C707 0.930 . S
H692 C708 0.931 . S
C693 H681 0.929 . S
C693 C687 1.390 . S
C693 C690 1.386 . S
C694 C689 1.490 . S
C694 C696 1.395 . S
C694 C697 1.403 . S
H695 C701 0.930 . S
C696 H682 0.930 . S
C696 C694 1.395 . S
C696 C699 1.403 . S
C697 C694 1.403 . S
C697 C698 1.524 . S
C697 C701 1.400 . S
C698 H683 0.960 . S
C698 H684 0.960 . S
C698 H685 0.960 . S
C698 C697 1.524 . S
C699 C696 1.403 . S
C699 C700 1.392 . S
C699 C703 1.495 . S
C700 C699 1.392 . S
C700 C701 1.385 . S
C700 C702 1.478 . S
C701 H695 0.930 . S
C701 C697 1.400 . S
C701 C700 1.385 . S
C702 C700 1.478 . S
C702 C704 1.381 . S
C702 C708 1.383 . S
C703 C699 1.495 . S
C703 H709 0.959 . S
C703 H710 0.961 . S
C703 H711 0.960 . S
C704 C702 1.381 . S
C704 C705 1.394 . S
C704 H712 0.930 . S
C705 C704 1.394 . S
C705 C706 1.383 . S
C705 H713 0.929 . S
C706 C705 1.383 . S
C706 C707 1.377 . S
C707 H691 0.930 . S
C707 C706 1.377 . S
C707 C708 1.379 . S
C708 H692 0.931 . S
C708 C702 1.383 . S
C708 C707 1.379 . S
H709 C703 0.959 . S
H710 C703 0.961 . S
H711 C703 0.960 . S
H712 C704 0.930 . S
H713 C705 0.929 . S
H714 C722 0.929 . S
H715 C724 0.930 . S
H716 C726 0.930 . S
H717 C729 0.929 . S
H718 C732 0.930 . S
H719 C734 0.960 . S
H720 C734 0.960 . S
H721 C734 0.960 . S
C722 H714 0.929 . S
C722 C723 1.377 . S
C722 C724 1.384 . S
C723 C722 1.377 . S
C723 C729 1.390 . S
C724 H715 0.930 . S
C724 C722 1.384 . S
C724 C725 1.372 . S
C725 C724 1.372 . S
C725 C726 1.400 . S
C725 C730 1.490 . S
C726 H716 0.930 . S
C726 C725 1.400 . S
C726 C729 1.386 . S
H727 C743 0.930 . S
H728 C744 0.931 . S
C729 H717 0.929 . S
C729 C723 1.390 . S
C729 C726 1.386 . S
C730 C725 1.490 . S
C730 C732 1.395 . S
C730 C733 1.403 . S
H731 C737 0.930 . S
C732 H718 0.930 . S
C732 C730 1.395 . S
C732 C735 1.403 . S
C733 C730 1.403 . S
C733 C734 1.524 . S
C733 C737 1.400 . S
C734 H719 0.960 . S
C734 H720 0.960 . S
C734 H721 0.960 . S
C734 C733 1.524 . S
C735 C732 1.403 . S
C735 C736 1.392 . S
C735 C739 1.495 . S
C736 C735 1.392 . S
C736 C737 1.385 . S
C736 C738 1.478 . S
C737 H731 0.930 . S
C737 C733 1.400 . S
C737 C736 1.385 . S
C738 C736 1.478 . S
C738 C740 1.381 . S
C738 C744 1.383 . S
C739 C735 1.495 . S
C739 H745 0.959 . S
C739 H746 0.961 . S
C739 H747 0.960 . S
C740 C738 1.381 . S
C740 C741 1.394 . S
C740 H748 0.930 . S
C741 C740 1.394 . S
C741 C742 1.383 . S
C741 H749 0.929 . S
C742 C741 1.383 . S
C742 C743 1.377 . S
C743 H727 0.930 . S
C743 C742 1.377 . S
C743 C744 1.379 . S
C744 H728 0.931 . S
C744 C738 1.383 . S
C744 C743 1.379 . S
H745 C739 0.959 . S
H746 C739 0.961 . S
H747 C739 0.960 . S
H748 C740 0.930 . S
H749 C741 0.929 . S
C327 C22 1.645 . S
C346 C181 1.650 . S
C363 C75 1.642 . S
C382 C234 1.631 . S
C399 C128 1.642 . S
C418 C287 1.629 . S
C435 C82 1.645 . S
C454 C241 1.642 . S
C471 C294 1.649 . S
C490 C135 1.646 . S
C507 C188 1.649 . S
C526 C29 1.642 . S
C543 C144 2.371 . S
C562 C39 2.366 . S
C579 C197 2.373 . S
C598 C92 2.338 . S
C615 C145 2.359 . S
C634 C250 2.378 . S
C651 C303 2.372 . S
C670 C198 2.360 . S
C687 C251 2.362 . S
C706 C38 2.352 . S
C723 C304 2.361 . S
C742 C91 2.351 . S
