# Generated by pormake.
# Topology vcl, (7)-cn, num edge types: 1
# Building blocks:
#     Node 0, Type 0, BuildingBlock: NUHQUE_clean_sbu_2, # of connection points: 7
#     Node 1, Type 0, BuildingBlock: NUHQUE_clean_sbu_2, # of connection points: 7
#     Node 2, Type 0, BuildingBlock: NUHQUE_clean_sbu_2, # of connection points: 7
#     Node 3, Type 0, BuildingBlock: NUHQUE_clean_sbu_2, # of connection points: 7
#     Node 4, Type 0, BuildingBlock: NUHQUE_clean_sbu_2, # of connection points: 7
#     Node 5, Type 0, BuildingBlock: NUHQUE_clean_sbu_2, # of connection points: 7
#     Node 6, Type 0, BuildingBlock: NUHQUE_clean_sbu_2, # of connection points: 7
#     Node 7, Type 0, BuildingBlock: NUHQUE_clean_sbu_2, # of connection points: 7
#     Node 8, Type 0, BuildingBlock: NUHQUE_clean_sbu_2, # of connection points: 7
#     Node 9, Type 0, BuildingBlock: NUHQUE_clean_sbu_2, # of connection points: 7
#     Node 10, Type 0, BuildingBlock: NUHQUE_clean_sbu_2, # of connection points: 7
#     Node 11, Type 0, BuildingBlock: NUHQUE_clean_sbu_2, # of connection points: 7
#     Node 12, Type 0, BuildingBlock: NUHQUE_clean_sbu_2, # of connection points: 7
#     Node 13, Type 0, BuildingBlock: NUHQUE_clean_sbu_2, # of connection points: 7
#     Node 14, Type 0, BuildingBlock: NUHQUE_clean_sbu_2, # of connection points: 7
#     Node 15, Type 0, BuildingBlock: NUHQUE_clean_sbu_2, # of connection points: 7
#     Edge 16, Type (0, 0), BuildingBlock: UVAHIK_clean_linker_0, # of connection points: 2
#     Edge 17, Type (0, 0), BuildingBlock: UVAHIK_clean_linker_0, # of connection points: 2
#     Edge 18, Type (0, 0), BuildingBlock: UVAHIK_clean_linker_0, # of connection points: 2
#     Edge 19, Type (0, 0), BuildingBlock: UVAHIK_clean_linker_0, # of connection points: 2
#     Edge 20, Type (0, 0), BuildingBlock: UVAHIK_clean_linker_0, # of connection points: 2
#     Edge 21, Type (0, 0), BuildingBlock: UVAHIK_clean_linker_0, # of connection points: 2
#     Edge 22, Type (0, 0), BuildingBlock: UVAHIK_clean_linker_0, # of connection points: 2
#     Edge 23, Type (0, 0), BuildingBlock: UVAHIK_clean_linker_0, # of connection points: 2
#     Edge 24, Type (0, 0), BuildingBlock: UVAHIK_clean_linker_0, # of connection points: 2
#     Edge 25, Type (0, 0), BuildingBlock: UVAHIK_clean_linker_0, # of connection points: 2
#     Edge 26, Type (0, 0), BuildingBlock: UVAHIK_clean_linker_0, # of connection points: 2
#     Edge 27, Type (0, 0), BuildingBlock: UVAHIK_clean_linker_0, # of connection points: 2
#     Edge 28, Type (0, 0), BuildingBlock: UVAHIK_clean_linker_0, # of connection points: 2
#     Edge 29, Type (0, 0), BuildingBlock: UVAHIK_clean_linker_0, # of connection points: 2
#     Edge 30, Type (0, 0), BuildingBlock: UVAHIK_clean_linker_0, # of connection points: 2
#     Edge 31, Type (0, 0), BuildingBlock: UVAHIK_clean_linker_0, # of connection points: 2
#     Edge 32, Type (0, 0), BuildingBlock: UVAHIK_clean_linker_0, # of connection points: 2
#     Edge 33, Type (0, 0), BuildingBlock: UVAHIK_clean_linker_0, # of connection points: 2
#     Edge 34, Type (0, 0), BuildingBlock: UVAHIK_clean_linker_0, # of connection points: 2
#     Edge 35, Type (0, 0), BuildingBlock: UVAHIK_clean_linker_0, # of connection points: 2
#     Edge 36, Type (0, 0), BuildingBlock: UVAHIK_clean_linker_0, # of connection points: 2
#     Edge 37, Type (0, 0), BuildingBlock: UVAHIK_clean_linker_0, # of connection points: 2
#     Edge 38, Type (0, 0), BuildingBlock: UVAHIK_clean_linker_0, # of connection points: 2
#     Edge 39, Type (0, 0), BuildingBlock: UVAHIK_clean_linker_0, # of connection points: 2
#     Edge 40, Type (0, 0), BuildingBlock: UVAHIK_clean_linker_0, # of connection points: 2
#     Edge 41, Type (0, 0), BuildingBlock: UVAHIK_clean_linker_0, # of connection points: 2
#     Edge 42, Type (0, 0), BuildingBlock: UVAHIK_clean_linker_0, # of connection points: 2
#     Edge 43, Type (0, 0), BuildingBlock: UVAHIK_clean_linker_0, # of connection points: 2
#     Edge 44, Type (0, 0), BuildingBlock: UVAHIK_clean_linker_0, # of connection points: 2
#     Edge 45, Type (0, 0), BuildingBlock: UVAHIK_clean_linker_0, # of connection points: 2
#     Edge 46, Type (0, 0), BuildingBlock: UVAHIK_clean_linker_0, # of connection points: 2
#     Edge 47, Type (0, 0), BuildingBlock: UVAHIK_clean_linker_0, # of connection points: 2
#     Edge 48, Type (0, 0), BuildingBlock: UVAHIK_clean_linker_0, # of connection points: 2
#     Edge 49, Type (0, 0), BuildingBlock: UVAHIK_clean_linker_0, # of connection points: 2
#     Edge 50, Type (0, 0), BuildingBlock: UVAHIK_clean_linker_0, # of connection points: 2
#     Edge 51, Type (0, 0), BuildingBlock: UVAHIK_clean_linker_0, # of connection points: 2
#     Edge 52, Type (0, 0), BuildingBlock: UVAHIK_clean_linker_0, # of connection points: 2
#     Edge 53, Type (0, 0), BuildingBlock: UVAHIK_clean_linker_0, # of connection points: 2
#     Edge 54, Type (0, 0), BuildingBlock: UVAHIK_clean_linker_0, # of connection points: 2
#     Edge 55, Type (0, 0), BuildingBlock: UVAHIK_clean_linker_0, # of connection points: 2
#     Edge 56, Type (0, 0), BuildingBlock: UVAHIK_clean_linker_0, # of connection points: 2
#     Edge 57, Type (0, 0), BuildingBlock: UVAHIK_clean_linker_0, # of connection points: 2
#     Edge 58, Type (0, 0), BuildingBlock: UVAHIK_clean_linker_0, # of connection points: 2
#     Edge 59, Type (0, 0), BuildingBlock: UVAHIK_clean_linker_0, # of connection points: 2
#     Edge 60, Type (0, 0), BuildingBlock: UVAHIK_clean_linker_0, # of connection points: 2
#     Edge 61, Type (0, 0), BuildingBlock: UVAHIK_clean_linker_0, # of connection points: 2
#     Edge 62, Type (0, 0), BuildingBlock: UVAHIK_clean_linker_0, # of connection points: 2
#     Edge 63, Type (0, 0), BuildingBlock: UVAHIK_clean_linker_0, # of connection points: 2
#     Edge 64, Type (0, 0), BuildingBlock: UVAHIK_clean_linker_0, # of connection points: 2
#     Edge 65, Type (0, 0), BuildingBlock: UVAHIK_clean_linker_0, # of connection points: 2
#     Edge 66, Type (0, 0), BuildingBlock: UVAHIK_clean_linker_0, # of connection points: 2
#     Edge 67, Type (0, 0), BuildingBlock: UVAHIK_clean_linker_0, # of connection points: 2
#     Edge 68, Type (0, 0), BuildingBlock: UVAHIK_clean_linker_0, # of connection points: 2
#     Edge 69, Type (0, 0), BuildingBlock: UVAHIK_clean_linker_0, # of connection points: 2
#     Edge 70, Type (0, 0), BuildingBlock: UVAHIK_clean_linker_0, # of connection points: 2
#     Edge 71, Type (0, 0), BuildingBlock: UVAHIK_clean_linker_0, # of connection points: 2
# Relax obj value: 0.202
# Max RMSD: 0.250
# Mean RMSD: 0.250
data_MOF--net-vcl--node1-NUHQUE_clean_sbu_2--edge1-UVAHIK_clean_linker_0
_symmetry_space_group_name_H-M    P1
_symmetry_Int_Tables_number       1
_symmetry_cell_setting            triclinic
loop_
_symmetry_equiv_pos_as_xyz
'x, y, z'
_cell_length_a     74.530303
_cell_length_b     60.947088
_cell_length_c     40.019478
_cell_angle_alpha  90.040124
_cell_angle_beta   89.768547
_cell_angle_gamma 90.131234
loop_
_atom_site_label
_atom_site_type_symbol
_atom_site_fract_x
_atom_site_fract_y
_atom_site_fract_z
_atom_type_partial_charge
O0 O 0.32868 0.03657 0.08782 0.0
Tb1 Tb 0.31531 0.06824 0.08282 0.0
Eu2 Eu 0.27689 0.10815 1.01904 0.0
C3 C 0.32491 0.0239 0.11357 0.0
O4 O 0.31263 0.03027 0.13503 0.0
C5 C 0.27436 0.07845 0.08107 0.0
O6 O 0.26545 0.14251 1.01581 0.0
C7 C 0.27136 0.08355 0.96679 0.0
C8 C 0.27514 0.15906 0.02703 0.0
O9 O 0.291 0.15486 0.03971 0.0
C10 C 0.319 0.09835 0.02347 0.0
C11 C 0.25788 0.08112 0.94021 0.0
C12 C 0.26148 0.06814 0.91178 0.0
C13 C 0.24784 0.06394 0.88836 0.0
C14 C 0.23082 0.07314 0.89345 0.0
C15 C 0.22719 0.08651 0.92121 0.0
C16 C 0.24082 0.09045 0.94451 0.0
O17 O 0.28801 0.07039 0.06413 0.0
O18 O 0.26488 0.09387 0.06639 0.0
O19 O 0.31331 0.07631 0.13622 0.0
O20 O 0.32692 0.09805 0.10327 0.0
C21 C 0.32205 0.09477 0.13403 0.0
O22 O 0.30498 0.1062 0.03946 0.0
O23 O 0.32772 0.08228 0.03823 0.0
O24 O 0.26564 0.07873 0.99701 0.0
O25 O 0.28149 0.10124 0.966 0.0
H26 H 0.27459 0.06076 0.90851 0.0
H27 H 0.22027 0.0697 0.87563 0.0
H28 H 0.23817 0.10064 0.96619 0.0
O29 O 0.65105 1.00662 0.0523 0.0
Tb30 Tb 0.66599 0.97579 0.04912 0.0
Eu31 Eu 0.70156 0.94054 1.01877 0.0
C32 C 0.65892 0.02567 0.0579 0.0
O33 O 0.67648 0.02695 0.05639 0.0
C34 C 0.70338 0.9743 0.07958 0.0
O35 O 0.71843 0.90966 1.01669 0.0
C36 C 0.71036 0.96766 0.97083 0.0
C37 C 0.71228 0.89292 0.99926 0.0
O38 O 0.69731 0.89551 0.98255 0.0
C39 C 0.66089 0.93926 0.9969 0.0
C40 C 0.72547 0.9705 0.94736 0.0
C41 C 0.7235 0.98342 0.91838 0.0
C42 C 0.73783 0.98563 0.8955 0.0
C43 C 0.75387 0.9743 0.90166 0.0
C44 C 0.75586 0.9613 0.93024 0.0
C45 C 0.74172 0.9596 0.95322 0.0
O46 O 0.69296 0.98679 0.06119 0.0
O47 O 0.70598 0.95361 0.0712 0.0
O48 O 0.64772 0.9703 0.09091 0.0
O49 O 0.66701 0.94587 0.07947 0.0
C50 C 0.65399 0.9513 0.09952 0.0
O51 O 0.67302 0.92865 1.01428 0.0
O52 O 0.65804 0.96037 1.00202 0.0
O53 O 0.71381 0.97128 1.00247 0.0
O54 O 0.70053 0.95008 0.96628 0.0
H55 H 0.71095 0.99183 0.91381 0.0
H56 H 0.76484 0.97533 0.88384 0.0
H57 H 0.74317 0.94929 0.97513 0.0
O58 O 0.91799 0.28938 0.31285 0.0
Tb59 Tb 0.92867 0.3226 0.30738 0.0
Eu60 Eu 0.95726 0.36185 0.27806 0.0
C61 C 0.92219 0.27822 0.33993 0.0
O62 O 0.93317 0.28727 0.36156 0.0
C63 C 0.96784 0.32611 0.33228 0.0
O64 O 0.96947 0.39586 0.28208 0.0
C65 C 0.96741 0.3415 0.22383 0.0
C66 C 0.96212 0.41203 0.26512 0.0
O67 O 0.94836 0.40755 0.24582 0.0
C68 C 0.9168 0.35829 0.25974 0.0
C69 C 0.9834 0.33103 0.20896 0.0
C70 C 0.98164 0.31749 0.18058 0.0
C71 C -0.00304 0.30918 0.16416 0.0
C72 C 0.01399 0.31483 0.17649 0.0
C73 C 0.01597 0.32853 0.20447 0.0
C74 C 0.00056 0.33627 0.22094 0.0
O75 O 0.95644 0.31317 0.31655 0.0
O76 O 0.96878 0.34718 0.32505 0.0
O77 O 0.90869 0.32786 0.34643 0.0
O78 O 0.92981 0.35102 0.34107 0.0
C79 C 0.91543 0.34598 0.35799 0.0
O80 O 0.92808 0.37068 0.2763 0.0
O81 O 0.91828 0.33676 0.2611 0.0
O82 O 0.95964 0.33147 0.24911 0.0
O83 O 0.96843 0.36285 0.22795 0.0
H84 H 0.96839 0.3138 0.17098 0.0
H85 H 0.02584 0.30973 0.16278 0.0
H86 H 0.0019 0.34707 0.24234 0.0
O87 O 0.07464 0.75475 0.29852 0.0
Tb88 Tb 0.0606 0.72306 0.29763 0.0
Eu89 Eu 0.02784 0.68696 0.27016 0.0
C90 C 0.06639 0.77334 0.30564 0.0
O91 O 0.04879 0.77366 0.30665 0.0
C92 C 0.02212 0.72162 0.32848 0.0
O93 O 0.01376 0.65404 0.27311 0.0
C94 C 0.01857 0.7093 0.21739 0.0
C95 C 0.02102 0.63823 0.29095 0.0
O96 O 0.03558 0.64264 0.30811 0.0
C97 C 0.06784 0.68566 0.24745 0.0
C98 C 0.00379 0.72212 0.20266 0.0
C99 C 0.00716 0.73543 0.17453 0.0
C100 C 0.99295 0.74592 0.15778 0.0
C101 C 0.9754 0.74303 0.16998 0.0
C102 C 0.97168 0.72895 0.197 0.0
C103 C 0.98608 0.71897 0.21372 0.0
O104 O 0.0336 0.73387 0.31155 0.0
O105 O 0.0189 0.70121 0.31942 0.0
O106 O 0.07961 0.72016 0.33849 0.0
O107 O 0.06171 0.69374 0.32943 0.0
C108 C 0.07473 0.70075 0.34824 0.0
O109 O 0.05605 0.67497 0.26559 0.0
O110 O 0.06947 0.70716 0.25093 0.0
O111 O 0.02744 0.718 0.24248 0.0
O112 O 0.01557 0.6882 0.22119 0.0
H113 H 0.02076 0.73713 0.16519 0.0
H114 H 0.96438 0.75077 0.157 0.0
H115 H 0.98352 0.70759 0.23399 0.0
O116 O 0.32999 0.53259 0.59314 0.0
Tb117 Tb 0.32326 0.56702 0.58557 0.0
Eu118 Eu 0.28031 0.60796 0.52852 0.0
C119 C 0.33295 0.52612 0.62403 0.0
O120 O 0.33044 0.54029 0.64835 0.0
C121 C 0.2821 0.57814 0.59059 0.0
O122 O 0.26879 0.64229 0.52494 0.0
C123 C 0.27293 0.58324 0.47721 0.0
C124 C 0.2774 0.65891 0.53863 0.0
O125 O 0.29241 0.65498 0.55465 0.0
C126 C 0.32259 0.59871 0.52684 0.0
C127 C 0.26015 0.58249 0.44915 0.0
C128 C 0.26323 0.5684 0.4217 0.0
C129 C 0.25015 0.56613 0.39665 0.0
C130 C 0.2343 0.57831 0.39898 0.0
C131 C 0.23116 0.59263 0.4258 0.0
C132 C 0.24415 0.59464 0.4509 0.0
O133 O 0.29536 0.57152 0.57133 0.0
O134 O 0.2712 0.5928 0.5776 0.0
O135 O 0.34621 0.58174 0.61006 0.0
O136 O 0.32023 0.58674 0.63127 0.0
C137 C 0.33733 0.59084 0.63438 0.0
O138 O 0.3092 0.60589 0.54532 0.0
O139 O 0.33226 0.58246 0.53905 0.0
O140 O 0.26584 0.5805 0.50707 0.0
O141 O 0.28528 0.59871 0.47645 0.0
H142 H 0.27541 0.55874 0.42044 0.0
H143 H 0.22411 0.57623 0.37994 0.0
H144 H 0.24176 0.60546 0.47196 0.0
O145 O 0.67268 0.51071 0.55027 0.0
Tb146 Tb 0.68545 0.47836 0.54716 0.0
Eu147 Eu 0.71574 0.43981 0.51462 0.0
C148 C 0.67836 0.52448 0.57348 0.0
O149 O 0.6921 0.51862 0.59182 0.0
C150 C 0.72539 0.47634 0.56813 0.0
O151 O 0.72837 0.40603 0.51897 0.0
C152 C 0.72481 0.45978 0.45935 0.0
C153 C 0.72073 0.3894 0.50333 0.0
O154 O 0.70657 0.39336 0.48484 0.0
C155 C 0.67384 0.44046 0.50151 0.0
C156 C 0.74027 0.47102 0.44348 0.0
C157 C 0.73743 0.48602 0.41715 0.0
C158 C 0.7521 0.49554 0.40011 0.0
C159 C 0.76954 0.48971 0.40963 0.0
C160 C 0.77261 0.47384 0.43437 0.0
C161 C 0.75791 0.46506 0.45194 0.0
O162 O 0.71348 0.48841 0.55225 0.0
O163 O 0.72722 0.45537 0.56099 0.0
O164 O 0.66975 0.4768 0.59308 0.0
O165 O 0.68503 0.44901 0.57909 0.0
C166 C 0.67405 0.45696 0.60136 0.0
O167 O 0.68687 0.42943 0.51566 0.0
O168 O 0.67341 0.46212 0.50354 0.0
O169 O 0.71673 0.46977 0.48433 0.0
O170 O 0.7266 0.43859 0.46428 0.0
H171 H 0.72386 0.48994 0.40954 0.0
H172 H 0.78086 0.49661 0.39615 0.0
H173 H 0.76008 0.45259 0.47079 0.0
O174 O 0.9055 0.79458 0.8099 0.0
Tb175 Tb 0.92093 0.82512 0.80559 0.0
Eu176 Eu 0.95295 0.86231 0.77088 0.0
C177 C 0.91335 0.77562 0.81598 0.0
O178 O 0.93091 0.77448 0.81434 0.0
C179 C 0.96018 0.82762 0.8289 0.0
O180 O 0.96495 0.89647 0.77528 0.0
C181 C 0.9636 0.84204 0.71692 0.0
C182 C 0.95847 0.91243 0.75665 0.0
O183 O 0.94566 0.90773 0.73534 0.0
C184 C 0.912 0.85964 0.75136 0.0
C185 C 0.97831 0.83009 0.69997 0.0
C186 C 0.9742 0.81587 0.6732 0.0
C187 C 0.98798 0.80621 0.65405 0.0
C188 C 0.00586 0.81096 0.66211 0.0
C189 C 0.01022 0.82613 0.68726 0.0
C190 C -0.00363 0.83516 0.70683 0.0
O191 O 0.94872 0.81517 0.81252 0.0
O192 O 0.96291 0.84811 0.81963 0.0
O193 O 0.90717 0.82844 0.85342 0.0
O194 O 0.91878 0.85677 0.83155 0.0
C195 C 0.9097 0.84936 0.85701 0.0
O196 O 0.92409 0.87211 0.76582 0.0
O197 O 0.9105 0.83857 0.7587 0.0
O198 O 0.95466 0.83214 0.74101 0.0
O199 O 0.96627 0.86302 0.72268 0.0
H200 H 0.9603 0.81284 0.66668 0.0
H201 H 0.01651 0.80393 0.64704 0.0
H202 H -0.00049 0.84721 0.72587 0.0
O203 O 0.07842 0.25448 0.80446 0.0
Tb204 Tb 0.06456 0.22274 0.80354 0.0
Eu205 Eu 0.02849 0.18625 0.77604 0.0
C206 C 0.07002 0.27315 0.81035 0.0
O207 O 0.05242 0.27346 0.81029 0.0
C208 C 0.02764 0.22028 0.83611 0.0
O209 O 0.01281 0.15443 0.77252 0.0
C210 C 0.02024 0.21434 0.72929 0.0
C211 C 0.01872 0.13783 0.7905 0.0
O212 O 0.0325 0.14129 0.81023 0.0
C213 C 0.06915 0.18475 0.75361 0.0
C214 C 0.00693 0.21749 0.70254 0.0
C215 C 0.01123 0.23059 0.67457 0.0
C216 C -0.00173 0.2347 0.6499 0.0
C217 C 0.98121 0.22524 0.6532 0.0
C218 C 0.97687 0.21166 0.68037 0.0
C219 C 0.98978 0.20796 0.70516 0.0
O220 O 0.03739 0.23266 0.81611 0.0
O221 O 0.02485 0.1995 0.82855 0.0
O222 O 0.08369 0.21866 0.84408 0.0
O223 O 0.06413 0.19389 0.83627 0.0
C224 C 0.07757 0.19997 0.8547 0.0
O225 O 0.05714 0.17478 0.77239 0.0
O226 O 0.07216 0.206 0.75719 0.0
O227 O 0.0142 0.21549 0.76008 0.0
O228 O 0.03189 0.19851 0.72503 0.0
H229 H 0.02445 0.23793 0.67242 0.0
H230 H 0.9712 0.22843 0.63423 0.0
H231 H 0.98658 0.19752 0.7263 0.0
O232 O 0.82206 0.04131 0.55806 0.0
Tb233 Tb 0.81155 0.07445 0.55072 0.0
Eu234 Eu 0.78191 0.11281 0.51846 0.0
C235 C 0.81726 0.0306 0.58533 0.0
O236 O 0.80586 0.04001 0.60592 0.0
C237 C 0.77255 0.07863 0.57583 0.0
O238 O 0.7692 0.14659 0.52078 0.0
C239 C 0.77094 0.0908 0.46641 0.0
C240 C 0.77756 0.16273 0.53626 0.0
O241 O 0.79266 0.1584 0.55172 0.0
C242 C 0.8223 0.10843 0.49765 0.0
C243 C 0.75452 0.08061 0.45297 0.0
C244 C 0.75527 0.06825 0.42325 0.0
C245 C 0.73939 0.06065 0.40797 0.0
C246 C 0.72281 0.06575 0.42301 0.0
C247 C 0.7219 0.07833 0.45243 0.0
C248 C 0.73787 0.0853 0.46761 0.0
O249 O 0.78363 0.06548 0.55975 0.0
O250 O 0.77144 0.09951 0.56755 0.0
O251 O 0.83056 0.07972 0.59106 0.0
O252 O 0.81117 0.10437 0.58134 0.0
C253 C 0.82461 0.0988 0.6002 0.0
O254 O 0.81101 0.12151 0.51302 0.0
O255 O 0.82211 0.08709 0.50336 0.0
O256 O 0.77838 0.08146 0.49248 0.0
O257 O 0.77063 0.11229 0.4686 0.0
H258 H 0.76817 0.06499 0.41171 0.0
H259 H 0.71048 0.06124 0.41045 0.0
H260 H 0.73735 0.09526 0.49007 0.0
O261 O 0.15935 1.0019 0.55608 0.0
Tb262 Tb 0.17085 0.96912 0.54927 0.0
Eu263 Eu 0.20319 0.93155 0.51841 0.0
C264 C 0.16414 1.01338 0.58261 0.0
O265 O 0.17606 1.00499 0.60296 0.0
C266 C 0.21024 0.96728 0.57505 0.0
O267 O 0.2171 0.89856 0.52355 0.0
C268 C 0.21417 0.95294 0.46568 0.0
C269 C 0.20859 0.88069 0.51376 0.0
O270 O 0.19237 0.88275 0.50148 0.0
C271 C 0.16327 0.93424 0.4957 0.0
C272 C 0.23024 0.96353 0.45114 0.0
C273 C 0.22838 0.9778 0.42366 0.0
C274 C 0.24363 0.98657 0.40751 0.0
C275 C 0.26069 0.98077 0.4193 0.0
C276 C 0.26278 0.96595 0.44588 0.0
C277 C 0.24746 0.95777 0.46223 0.0
O278 O 0.1984 0.9796 0.55939 0.0
O279 O 0.21249 0.94649 0.56694 0.0
O280 O 0.15046 0.96323 0.58724 0.0
O281 O 0.17164 0.94021 0.58206 0.0
C282 C 0.15708 0.94504 0.59861 0.0
O283 O 0.1742 0.92229 0.5137 0.0
O284 O 0.16201 0.95555 0.50124 0.0
O285 O 0.20653 0.96255 0.49144 0.0
O286 O 0.21479 0.93149 0.46859 0.0
H287 H 0.2151 0.98173 0.41452 0.0
H288 H 0.27251 0.98699 0.40657 0.0
H289 H 0.24886 0.94598 0.48231 0.0
O290 O 0.41038 0.27944 0.82632 0.0
Tb291 Tb 0.42168 0.31222 0.81969 0.0
Eu292 Eu 0.46548 0.35453 0.76717 0.0
C293 C 0.41234 0.26958 0.85535 0.0
O294 O 0.42136 0.27955 0.87903 0.0
C295 C 0.46273 0.32214 0.82645 0.0
O296 O 0.47598 0.38948 0.76597 0.0
C297 C 0.47531 0.33211 0.7149 0.0
C298 C 0.46718 0.40533 0.7813 0.0
O299 O 0.45253 0.40035 0.79804 0.0
C300 C 0.42362 0.34358 0.76152 0.0
C301 C 0.4887 0.33441 0.68788 0.0
C302 C 0.4866 0.32308 0.65741 0.0
C303 C 0.49964 0.32507 0.63192 0.0
C304 C 0.51477 0.33831 0.6376 0.0
C305 C 0.51708 0.3494 0.66796 0.0
C306 C 0.50398 0.34749 0.69296 0.0
O307 O 0.44994 0.31552 0.80623 0.0
O308 O 0.47344 0.33785 0.81554 0.0
O309 O 0.42262 0.32696 0.86992 0.0
O310 O 0.40314 0.3377 0.83469 0.0
C311 C 0.4093 0.34038 0.86469 0.0
O312 O 0.43633 0.35056 0.78159 0.0
O313 O 0.41384 0.32689 0.77216 0.0
O314 O 0.48194 0.32908 0.74496 0.0
O315 O 0.46179 0.34595 0.71457 0.0
H316 H 0.47488 0.31285 0.65356 0.0
H317 H 0.52521 0.33941 0.61872 0.0
H318 H 0.50571 0.35617 0.7164 0.0
O319 O 0.57355 0.75272 0.80298 0.0
Tb320 Tb 0.56226 0.71977 0.79589 0.0
Eu321 Eu 0.5313 0.68215 0.766 0.0
C322 C 0.56918 0.76349 0.8305 0.0
O323 O 0.55787 0.75419 0.85142 0.0
C324 C 0.52343 0.71693 0.82303 0.0
O325 O 0.51898 0.64814 0.77081 0.0
C326 C 0.51866 0.70402 0.71542 0.0
C327 C 0.52547 0.6319 0.75264 0.0
O328 O 0.53856 0.63618 0.73158 0.0
C329 C 0.57159 0.68542 0.74149 0.0
C330 C 0.50299 0.71705 0.70485 0.0
C331 C 0.50491 0.73234 0.67873 0.0
C332 C 0.4899 0.74364 0.66631 0.0
C333 C 0.47299 0.73953 0.68064 0.0
C334 C 0.47064 0.72342 0.70542 0.0
C335 C 0.48586 0.71266 0.71804 0.0
O336 O 0.53469 0.72969 0.80656 0.0
O337 O 0.52206 0.69597 0.81543 0.0
O338 O 0.58139 0.71463 0.83594 0.0
O339 O 0.56207 0.68977 0.82632 0.0
C340 C 0.57553 0.69549 0.84509 0.0
O341 O 0.55996 0.67257 0.75667 0.0
O342 O 0.5723 0.70667 0.74822 0.0
O343 O 0.52941 0.71279 0.73773 0.0
O344 O 0.51589 0.68294 0.72015 0.0
H345 H 0.518 0.73503 0.66753 0.0
H346 H 0.46137 0.74796 0.67081 0.0
H347 H 0.48433 0.69987 0.73664 0.0
O348 O 0.82788 0.54374 0.08279 0.0
Tb349 Tb 0.82349 0.57869 0.07397 0.0
Eu350 Eu 0.78298 0.62013 1.01378 0.0
C351 C 0.82922 0.53723 0.1141 0.0
O352 O 0.82715 0.55192 0.13784 0.0
C353 C 0.78241 0.59101 0.07619 0.0
O354 O 0.77145 0.65433 1.00892 0.0
C355 C 0.77701 0.59473 0.96261 0.0
C356 C 0.77903 0.67061 0.02538 0.0
O357 O 0.79283 0.66626 0.04458 0.0
C358 C 0.82518 0.61103 1.01594 0.0
C359 C 0.7642 0.59231 0.9348 0.0
C360 C 0.76879 0.5797 0.90643 0.0
C361 C 0.75586 0.57529 0.88172 0.0
C362 C 0.73858 0.58401 0.88538 0.0
C363 C 0.73391 0.59687 0.91313 0.0
C364 C 0.7468 0.60097 0.93781 0.0
O365 O 0.79596 0.58391 0.05799 0.0
O366 O 0.77212 0.60588 0.06213 0.0
O367 O 0.84589 0.59114 0.10284 0.0
O368 O 0.81933 0.59926 0.11844 0.0
C369 C 0.83636 0.60155 0.12499 0.0
O370 O 0.81136 0.61819 0.03326 0.0
O371 O 0.83421 0.59435 0.02861 0.0
O372 O 0.77033 0.59131 0.9926 0.0
O373 O 0.78821 0.61145 0.9615 0.0
H374 H 0.78209 0.57268 0.90423 0.0
H375 H 0.72856 0.58044 0.86655 0.0
H376 H 0.74327 0.61071 0.95954 0.0
O377 O 0.15778 0.50311 0.05626 0.0
Tb378 Tb 0.17175 0.47161 0.05124 0.0
Eu379 Eu 0.20518 0.43351 0.02389 0.0
C380 C 0.16606 0.52198 0.06134 0.0
O381 O 0.1836 0.52293 0.05843 0.0
C382 C 0.21002 0.46964 0.08113 0.0
O383 O 0.2185 0.40023 0.03025 0.0
C384 C 0.21833 0.45396 0.97197 0.0
C385 C 0.20882 0.38247 0.02452 0.0
O386 O 0.19189 0.38494 1.01646 0.0
C387 C 0.16572 0.43671 0.9974 0.0
C388 C 0.23581 0.46154 0.95893 0.0
C389 C 0.23657 0.47545 0.93082 0.0
C390 C 0.25322 0.4813 0.91636 0.0
C391 C 0.26902 0.47312 0.93086 0.0
C392 C 0.26839 0.45905 0.9586 0.0
C393 C 0.25176 0.45338 0.97261 0.0
O394 O 0.19903 0.48185 0.06327 0.0
O395 O 0.2129 0.44888 0.07334 0.0
O396 O 0.15232 0.46578 0.09108 0.0
O397 O 0.17208 0.44156 0.08159 0.0
C398 C 0.15837 0.44677 0.10016 0.0
O399 O 0.17611 0.4251 1.01692 0.0
O400 O 0.1638 0.45792 1.00283 0.0
O401 O 0.21179 0.46421 0.99819 0.0
O402 O 0.21629 0.4326 0.97371 0.0
H403 H 0.2242 0.48137 0.91997 0.0
H404 H 0.2819 0.47655 0.91928 0.0
H405 H 0.2512 0.44213 0.99359 0.0
O406 O 0.39881 0.7897 0.34335 0.0
Tb407 Tb 0.41218 0.82154 0.34161 0.0
Eu408 Eu 0.45444 0.85244 0.27022 0.0
C409 C 0.40765 0.7711 0.34585 0.0
O410 O 0.42524 0.77131 0.34361 0.0
C411 C 0.45385 0.82664 0.3393 0.0
O412 O 0.46545 0.88712 0.26552 0.0
C413 C 0.46308 0.82673 0.22084 0.0
C414 C 0.4562 0.9042 0.27615 0.0
O415 O 0.44029 0.90092 0.28953 0.0
C416 C 0.4098 0.84961 0.28183 0.0
C417 C 0.47616 0.82555 0.1931 0.0
C418 C 0.47251 0.81272 0.16453 0.0
C419 C 0.48583 0.80969 0.1399 0.0
C420 C 0.50256 0.81989 0.14391 0.0
C421 C 0.50623 0.83309 0.17178 0.0
C422 C 0.49293 0.8359 0.19627 0.0
O423 O 0.43998 0.81694 0.32515 0.0
O424 O 0.46401 0.83992 0.32092 0.0
O425 O 0.40178 0.82335 0.39269 0.0
O426 O 0.416 0.85053 0.37323 0.0
C427 C 0.40733 0.84311 0.3991 0.0
O428 O 0.42664 0.84627 0.28936 0.0
O429 O 0.39855 0.83949 0.30192 0.0
O430 O 0.4699 0.82516 0.25104 0.0
O431 O 0.45031 0.84156 0.21866 0.0
H432 H 0.45966 0.80454 0.16207 0.0
H433 H 0.5129 0.81729 0.12518 0.0
H434 H 0.49566 0.84599 0.218 0.0
O435 O 0.57653 0.25808 0.32454 0.0
Tb436 Tb 0.57208 0.2229 0.31742 0.0
Eu437 Eu 0.53137 0.17698 0.26578 0.0
C438 C 0.57517 0.26606 0.35508 0.0
O439 O 0.57039 0.25276 0.37936 0.0
C440 C 0.53142 0.21 0.32337 0.0
O441 O 0.51889 0.14292 0.26731 0.0
C442 C 0.52205 0.19876 0.21272 0.0
C443 C 0.52874 0.12548 0.2737 0.0
O444 O 0.54585 0.12819 0.2803 0.0
C445 C 0.57326 0.18892 0.26164 0.0
C446 C 0.50657 0.19804 0.19006 0.0
C447 C 0.50704 0.20862 0.15879 0.0
C448 C 0.4919 0.20814 0.13774 0.0
C449 C 0.47636 0.19707 0.14867 0.0
C450 C 0.47574 0.18685 0.18003 0.0
C451 C 0.49089 0.18726 0.20048 0.0
O452 O 0.54438 0.21655 0.30327 0.0
O453 O 0.52139 0.19364 0.31277 0.0
O454 O 0.5946 0.21146 0.34691 0.0
O455 O 0.56808 0.20303 0.36256 0.0
C456 C 0.5851 0.20122 0.36932 0.0
O457 O 0.56038 0.18131 0.28104 0.0
O458 O 0.58215 0.20638 0.27234 0.0
O459 O 0.51827 0.20504 0.24335 0.0
O460 O 0.53292 0.1818 0.21169 0.0
H461 H 0.51914 0.21709 0.1509 0.0
H462 H 0.46442 0.19707 0.13328 0.0
H463 H 0.49046 0.17922 0.22465 0.0
C464 C 0.41529 0.87661 0.23498 0.0
C465 C 0.40342 0.86405 0.25454 0.0
C466 C 0.4087 0.89192 0.21189 0.0
C467 C 0.36665 0.90868 0.16791 0.0
H468 H 0.38799 0.96676 0.16839 0.0
C469 C 0.32714 0.98708 0.14024 0.0
C470 C 0.33494 1.00342 0.12012 0.0
C471 C 0.33691 0.96855 0.14944 0.0
C472 C 0.38207 0.95052 0.1675 0.0
H473 H 0.37533 0.85715 0.26433 0.0
H474 H 0.36392 0.88365 0.22478 0.0
H475 H 0.40285 0.93673 0.19775 0.0
H476 H 0.35906 1.01303 0.09345 0.0
H477 H 0.37642 0.98063 0.11035 0.0
H478 H 0.34538 0.9228 0.13925 0.0
C479 C 0.37832 0.88167 0.22668 0.0
C480 C 0.3906 0.93327 0.18427 0.0
C481 C 0.38489 0.86651 0.24965 0.0
C482 C 0.35267 1.00061 0.1088 0.0
C483 C 0.36262 0.98218 0.11861 0.0
C484 C 0.35807 0.92593 0.1515 0.0
C485 C 0.39009 0.89483 0.20776 0.0
C486 C 0.3827 0.91227 0.18556 0.0
C487 C 0.35484 0.96604 0.13923 0.0
C488 C 0.36542 0.94716 0.1519 0.0
H489 H 0.42963 0.87506 0.23808 0.0
H490 H 0.41817 0.90162 0.19754 0.0
H491 H 0.3604 0.89263 0.1676 0.0
H492 H 0.3135 0.98876 0.14935 0.0
H493 H 0.3306 0.95652 0.16562 0.0
C494 C 0.59666 0.17974 0.21815 0.0
C495 C 0.57978 0.17566 0.23278 0.0
C496 C 0.60398 0.16505 0.19474 0.0
C497 C 0.60015 0.10652 0.1692 0.0
H498 H 0.63128 0.12411 0.09614 0.0
C499 C 0.63 0.04246 0.07824 0.0
C500 C 0.64836 0.04468 0.07065 0.0
C501 C 0.62065 0.05945 0.09425 0.0
C502 C 0.62269 0.11891 0.11655 0.0
H503 H 0.557 0.15356 0.23257 0.0
H504 H 0.56937 0.12847 0.19138 0.0
H505 H 0.61672 0.15209 0.13053 0.0
H506 H 0.67104 0.067 0.07282 0.0
H507 H 0.65478 0.0965 0.10066 0.0
H508 H 0.6062 0.0734 0.15552 0.0
C509 C 0.57727 0.14262 0.1986 0.0
C510 C 0.61434 0.13498 0.13634 0.0
C511 C 0.57006 0.15717 0.2221 0.0
C512 C 0.65692 0.06468 0.07822 0.0
C513 C 0.64755 0.08169 0.09412 0.0
C514 C 0.60842 0.0905 0.14939 0.0
C515 C 0.59455 0.14597 0.18524 0.0
C516 C 0.603 0.12902 0.16308 0.0
C517 C 0.62938 0.07915 0.103 0.0
C518 C 0.61989 0.09643 0.12289 0.0
H519 H 0.60459 0.19374 0.22589 0.0
H520 H 0.61736 0.16819 0.18524 0.0
H521 H 0.59187 0.10117 0.18995 0.0
H522 H 0.62294 0.02734 0.07278 0.0
H523 H 0.60659 0.05703 0.10019 0.0
C524 C 0.92063 0.24379 0.37393 0.0
C525 C 0.91361 0.25684 0.34813 0.0
C526 C 0.91174 0.22475 0.38444 0.0
C527 C 0.86656 0.20117 0.38903 0.0
H528 H 0.89125 0.14796 0.41513 0.0
C529 C 0.82676 0.12936 0.44529 0.0
C530 C 0.83435 0.11848 0.47265 0.0
C531 C 0.83715 0.1433 0.4253 0.0
C532 C 0.88414 0.16274 0.40825 0.0
H533 H 0.89198 0.25967 0.31242 0.0
H534 H 0.8763 0.22642 0.33099 0.0
H535 H 0.90804 0.17785 0.38883 0.0
H536 H 0.85875 0.11323 0.50045 0.0
H537 H 0.87701 0.13801 0.46606 0.0
H538 H 0.84285 0.18671 0.4095 0.0
C539 C 0.88872 0.23101 0.34313 0.0
C540 C 0.89377 0.17986 0.39303 0.0
C541 C 0.89775 0.24998 0.33232 0.0
C542 C 0.85272 0.12109 0.47899 0.0
C543 C 0.86313 0.13536 0.45926 0.0
C544 C 0.85698 0.18419 0.40447 0.0
C545 C 0.89548 0.21834 0.36967 0.0
C546 C 0.88512 0.19937 0.38345 0.0
C547 C 0.85534 0.1472 0.43272 0.0
C548 C 0.86561 0.16473 0.41453 0.0
H549 H 0.93286 0.24854 0.3866 0.0
H550 H 0.91726 0.21553 0.4051 0.0
H551 H 0.85952 0.21609 0.38258 0.0
H552 H 0.81255 0.12775 0.44015 0.0
H553 H 0.83072 0.15158 0.40465 0.0
C554 C 0.13474 0.92587 0.46397 0.0
C555 C 0.15325 0.92293 0.46874 0.0
C556 C 0.12518 0.91182 0.4424 0.0
C557 C 0.12878 0.85559 0.40752 0.0
H558 H 0.08982 0.8727 0.34936 0.0
C559 C 0.09548 0.79224 0.32017 0.0
C560 C 0.07669 0.79283 0.31753 0.0
C561 C 0.10487 0.80953 0.33535 0.0
C562 C 0.10058 0.86759 0.36568 0.0
H563 H 0.17649 0.90447 0.45258 0.0
H564 H 0.16009 0.8804 0.41505 0.0
H565 H 0.10562 0.90064 0.38202 0.0
H566 H 0.05314 0.81264 0.32783 0.0
H567 H 0.0694 0.84249 0.35453 0.0
H568 H 0.12369 0.82262 0.39192 0.0
C569 C 0.15272 0.8929 0.42856 0.0
C570 C 0.10963 0.88365 0.38442 0.0
C571 C 0.16216 0.90676 0.45002 0.0
C572 C 0.06762 0.81157 0.32931 0.0
C573 C 0.07699 0.82882 0.34457 0.0
C574 C 0.11974 0.83959 0.38895 0.0
C575 C 0.13402 0.89469 0.42525 0.0
C576 C 0.12395 0.87787 0.40545 0.0
C577 C 0.09572 0.82788 0.34847 0.0
C578 C 0.10554 0.8453 0.36761 0.0
H579 H 0.12754 0.93816 0.47822 0.0
H580 H 0.11079 0.91371 0.44043 0.0
H581 H 0.13943 0.85038 0.42401 0.0
H582 H 0.10294 0.77814 0.31132 0.0
H583 H 0.11932 0.80836 0.33721 0.0
C584 C 0.34761 0.49055 0.60659 0.0
C585 C 0.34075 0.50434 0.63178 0.0
C586 C 0.35692 0.47131 0.61497 0.0
C587 C 0.38353 0.44905 0.68422 0.0
H588 H 0.37732 0.39221 0.6422 0.0
C589 C 0.40014 0.35473 0.72004 0.0
C590 C 0.4172 0.35797 0.73414 0.0
C591 C 0.39218 0.37119 0.70068 0.0
C592 C 0.37923 0.40801 0.6541 0.0
H593 H 0.33735 0.50799 0.68539 0.0
H594 H 0.35337 0.4747 0.69979 0.0
H595 H 0.3596 0.42364 0.62294 0.0
H596 H 0.43995 0.38017 0.73619 0.0
H597 H 0.42633 0.40847 0.70189 0.0
H598 H 0.40265 0.43365 0.71596 0.0
C599 C 0.35192 0.47888 0.67363 0.0
C600 C 0.36917 0.42601 0.64293 0.0
C601 C 0.34265 0.49795 0.66532 0.0
C602 C 0.42674 0.37716 0.72598 0.0
C603 C 0.41885 0.39351 0.70652 0.0
C604 C 0.3936 0.43121 0.69518 0.0
C605 C 0.35958 0.46562 0.64867 0.0
C606 C 0.37098 0.44664 0.65835 0.0
C607 C 0.40115 0.39118 0.69493 0.0
C608 C 0.39146 0.41037 0.6806 0.0
H609 H 0.34636 0.49501 0.58051 0.0
H610 H 0.36265 0.46139 0.59518 0.0
H611 H 0.38545 0.46478 0.69631 0.0
H612 H 0.3924 0.34015 0.72583 0.0
H613 H 0.37853 0.36882 0.69222 0.0
C614 C 0.57657 0.65939 0.69448 0.0
C615 C 0.58372 0.67497 0.71667 0.0
C616 C 0.58777 0.64646 0.67448 0.0
C617 C 0.63314 0.62311 0.67354 0.0
H618 H 0.6206 0.60511 0.58362 0.0
C619 C 0.67719 0.5611 0.6017 0.0
C620 C 0.66856 0.54497 0.58237 0.0
C621 C 0.66772 0.57911 0.61433 0.0
C622 C 0.62424 0.60975 0.60881 0.0
H623 H 0.60828 0.68978 0.73452 0.0
H624 H 0.62809 0.66701 0.69948 0.0
H625 H 0.60291 0.63326 0.61192 0.0
H626 H 0.64321 0.53557 0.56031 0.0
H627 H 0.62649 0.56681 0.5829 0.0
H628 H 0.65404 0.59919 0.67111 0.0
C629 C 0.61371 0.66481 0.69764 0.0
C630 C 0.61412 0.62602 0.62503 0.0
C631 C 0.6024 0.67802 0.71744 0.0
C632 C 0.6503 0.54777 0.57489 0.0
C633 C 0.64072 0.56576 0.58789 0.0
C634 C 0.64318 0.60675 0.65745 0.0
C635 C 0.60653 0.64856 0.67632 0.0
C636 C 0.61832 0.63279 0.65775 0.0
C637 C 0.64922 0.58148 0.60843 0.0
C638 C 0.63883 0.59966 0.6249 0.0
H639 H 0.56222 0.6568 0.69317 0.0
H640 H 0.58171 0.63409 0.65868 0.0
H641 H 0.6366 0.62757 0.69891 0.0
H642 H 0.69129 0.5596 0.60771 0.0
H643 H 0.67494 0.59106 0.62916 0.0
C644 C 0.82335 0.64325 0.97687 0.0
C645 C 0.83241 0.62429 0.98759 0.0
C646 C 0.83131 0.65774 0.954 0.0
C647 C 0.87622 0.67507 0.92392 0.0
H648 H 0.84922 0.70762 0.85792 0.0
C649 C 0.91151 0.73642 0.83527 0.0
C650 C 0.9029 0.75653 0.8291 0.0
C651 C 0.90243 0.71917 0.85118 0.0
C652 C 0.85696 0.69883 0.87641 0.0
H653 H 0.85673 0.60529 0.98127 0.0
H654 H 0.87055 0.6304 0.94108 0.0
H655 H 0.8343 0.67924 0.89102 0.0
H656 H 0.87769 0.77391 0.83414 0.0
H657 H 0.86188 0.74391 0.86215 0.0
H658 H 0.89879 0.69482 0.90988 0.0
C659 C 0.85735 0.63426 0.9508 0.0
C660 C 0.84838 0.68249 0.89541 0.0
C661 C 0.84934 0.61971 0.97364 0.0
C662 C 0.88474 0.75864 0.83829 0.0
C663 C 0.87565 0.74136 0.85433 0.0
C664 C 0.88478 0.6914 0.905 0.0
C665 C 0.84862 0.65375 0.94121 0.0
C666 C 0.85787 0.67042 0.91957 0.0
C667 C 0.88446 0.72149 0.86158 0.0
C668 C 0.87528 0.70361 0.88102 0.0
H669 H 0.81032 0.64738 0.98707 0.0
H670 H 0.82419 0.6726 0.94752 0.0
H671 H 0.88393 0.66651 0.9427 0.0
H672 H 0.92545 0.7341 0.82843 0.0
H673 H 0.9096 0.70402 0.8556 0.0
C674 C 0.09888 0.29203 0.82613 0.0
C675 C 0.08017 0.29282 0.82196 0.0
C676 C 0.1081 0.30951 0.84112 0.0
C677 C 0.10429 0.36828 0.86722 0.0
H678 H 0.14057 0.35134 0.93122 0.0
C679 C 0.13786 0.42871 0.96334 0.0
C680 C 0.15599 0.42477 0.97069 0.0
C681 C 0.12837 0.41433 0.94216 0.0
C682 C 0.13067 0.35648 0.91312 0.0
H683 H 0.05663 0.3132 0.82916 0.0
H684 H 0.07266 0.34353 0.8554 0.0
H685 H 0.12498 0.32327 0.89955 0.0
H686 H 0.17874 0.40395 0.9595 0.0
H687 H 0.16254 0.37947 0.92243 0.0
H688 H 0.11 0.40162 0.88132 0.0
C689 C 0.08026 0.32946 0.84689 0.0
C690 C 0.12171 0.34029 0.89484 0.0
C691 C 0.07105 0.31197 0.8319 0.0
C692 C 0.16468 0.40715 0.95486 0.0
C693 C 0.15534 0.39301 0.93371 0.0
C694 C 0.11332 0.38457 0.8856 0.0
C695 C 0.09887 0.32828 0.85241 0.0
C696 C 0.10847 0.3459 0.87145 0.0
C697 C 0.13691 0.39588 0.92791 0.0
C698 C 0.12675 0.37887 0.90861 0.0
H699 H 0.10639 0.27762 0.81871 0.0
H700 H 0.12247 0.30816 0.8443 0.0
H701 H 0.09423 0.37326 0.84933 0.0
H702 H 0.1308 0.44212 0.97532 0.0
H703 H 0.11418 0.41708 0.93822 0.0
C704 C 0.84164 1.00204 0.58042 0.0
C705 C 0.82551 1.00931 0.59494 0.0
C706 C 0.85023 0.98317 0.59254 0.0
C707 C 0.84336 0.93286 0.64402 0.0
H708 H 0.89414 0.93871 0.66227 0.0
C709 C 0.88205 0.8734 0.7321 0.0
C710 C 0.90044 0.87028 0.72628 0.0
C711 C 0.87221 0.888 0.7121 0.0
C712 C 0.88004 0.93646 0.65679 0.0
H713 H 0.80538 1.00186 0.6326 0.0
H714 H 0.8202 0.96906 0.65335 0.0
H715 H 0.87847 0.96813 0.63383 0.0
H716 H 0.9228 0.87892 0.69429 0.0
H717 H 0.90564 0.90332 0.65845 0.0
H718 H 0.84491 0.90118 0.66711 0.0
C719 C 0.82627 0.97785 0.63268 0.0
C720 C 0.87103 0.95347 0.64046 0.0
C721 C 0.81782 0.99679 0.62086 0.0
C722 C 0.90859 0.881 0.69915 0.0
C723 C 0.89877 0.89525 0.67893 0.0
C724 C 0.85242 0.91571 0.66013 0.0
C725 C 0.84276 0.971 0.61914 0.0
C726 C 0.85254 0.95202 0.63415 0.0
C727 C 0.88058 0.89964 0.68578 0.0
C728 C 0.87089 0.91731 0.66703 0.0
H729 H 0.84794 1.01132 0.56048 0.0
H730 H 0.86284 0.97823 0.58132 0.0
H731 H 0.82913 0.9311 0.63928 0.0
H732 H 0.87557 0.86566 0.75333 0.0
H733 H 0.8583 0.891 0.71847 0.0
C734 C 0.13723 0.03833 0.58556 0.0
C735 C 0.15548 0.03449 0.5918 0.0
C736 C 0.12864 0.05687 0.59905 0.0
C737 C 0.13498 0.09948 0.66633 0.0
H738 H 0.09207 0.12428 0.62737 0.0
C739 C 0.09782 0.17535 0.72273 0.0
C740 C 0.07963 0.17115 0.72968 0.0
C741 C 0.1078 0.16073 0.70278 0.0
C742 C 0.1041 0.11757 0.63847 0.0
H743 H 0.17928 0.04771 0.61527 0.0
H744 H 0.16481 0.08051 0.63678 0.0
H745 H 0.10825 0.09544 0.59764 0.0
H746 H 0.05748 0.14896 0.71998 0.0
H747 H 0.07466 0.12406 0.68446 0.0
H748 H 0.13086 0.12205 0.70684 0.0
C749 C 0.15672 0.06887 0.62301 0.0
C750 C 0.11334 0.10082 0.62158 0.0
C751 C 0.16515 0.05012 0.61026 0.0
C752 C 0.07149 0.15262 0.71518 0.0
C753 C 0.0813 0.13839 0.69468 0.0
C754 C 0.12595 0.11652 0.68282 0.0
C755 C 0.13818 0.07229 0.61856 0.0
C756 C 0.12882 0.09122 0.63544 0.0
C757 C 0.09965 0.14201 0.6887 0.0
C758 C 0.11025 0.12554 0.66936 0.0
H759 H 0.12938 0.02644 0.57174 0.0
H760 H 0.11435 0.05854 0.59521 0.0
H761 H 0.14652 0.09239 0.67854 0.0
H762 H 0.10448 0.18941 0.7337 0.0
H763 H 0.12193 0.16395 0.69855 0.0
C764 C 0.41264 0.23297 0.88272 0.0
C765 C 0.40367 0.24832 0.86283 0.0
C766 C 0.40385 0.21407 0.89395 0.0
C767 C 0.36078 0.18164 0.88695 0.0
H768 H 0.37524 0.16191 0.97489 0.0
C769 C 0.31846 0.1287 0.98091 0.0
C770 C 0.32749 0.11104 0.99591 0.0
C771 C 0.32753 0.14303 0.95926 0.0
C772 C 0.37116 0.16709 0.95017 0.0
H773 H 0.37862 0.25587 0.83838 0.0
H774 H 0.3628 0.22356 0.8595 0.0
H775 H 0.39143 0.1917 0.94827 0.0
H776 H 0.35299 0.09402 0.99853 0.0
H777 H 0.36888 0.11938 0.96151 0.0
H778 H 0.33965 0.15762 0.89053 0.0
C779 C 0.37685 0.2255 0.86556 0.0
C780 C 0.38055 0.18413 0.9346 0.0
C781 C 0.38587 0.24412 0.85345 0.0
C782 C 0.34558 0.10741 0.98743 0.0
C783 C 0.35473 0.12197 0.96633 0.0
C784 C 0.3511 0.16487 0.90299 0.0
C785 C 0.38559 0.21039 0.88666 0.0
C786 C 0.37561 0.19168 0.90264 0.0
C787 C 0.34591 0.14021 0.95269 0.0
C788 C 0.35628 0.15739 0.9347 0.0
H789 H 0.42645 0.23575 0.89005 0.0
H790 H 0.41139 0.20258 0.90895 0.0
H791 H 0.35661 0.18663 0.86223 0.0
H792 H 0.30457 0.13202 0.98693 0.0
H793 H 0.32044 0.15704 0.9492 0.0
C794 C 0.59426 0.79147 0.82682 0.0
C795 C 0.5776 0.7848 0.83996 0.0
C796 C 0.6029 0.81034 0.83921 0.0
C797 C 0.59539 0.86178 0.88781 0.0
H798 H 0.64534 0.85552 0.91224 0.0
C799 C 0.6317 0.92367 0.97607 0.0
C800 C 0.65029 0.9265 0.97237 0.0
C801 C 0.62248 0.90822 0.95637 0.0
C802 C 0.63149 0.85788 0.90505 0.0
H803 H 0.55663 0.7933 0.87538 0.0
H804 H 0.57146 0.82611 0.89642 0.0
H805 H 0.63018 0.82577 0.88325 0.0
H806 H 0.67363 0.91654 0.94402 0.0
H807 H 0.65766 0.89044 0.90884 0.0
H808 H 0.59666 0.8939 0.90952 0.0
C809 C 0.57795 0.81684 0.8767 0.0
C810 C 0.62277 0.84067 0.8884 0.0
C811 C 0.56947 0.7979 0.86471 0.0
C812 C 0.65932 0.91449 0.94758 0.0
C813 C 0.65013 0.89934 0.92762 0.0
C814 C 0.60416 0.87912 0.90418 0.0
C815 C 0.59493 0.82313 0.86461 0.0
C816 C 0.60454 0.84226 0.87986 0.0
C817 C 0.63166 0.89542 0.93231 0.0
C818 C 0.62234 0.87739 0.91338 0.0
H819 H 0.60092 0.78172 0.80787 0.0
H820 H 0.61591 0.81481 0.82914 0.0
H821 H 0.58138 0.86367 0.88133 0.0
H822 H 0.62449 0.93251 0.99537 0.0
H823 H 0.60833 0.90565 0.96111 0.0
C824 C 0.83296 0.50794 0.15706 0.0
C825 C 0.83375 0.51428 0.12332 0.0
C826 C 0.83849 0.48709 0.16701 0.0
C827 C 0.86812 0.44157 0.14175 0.0
H828 H 0.84611 0.4137 0.21883 0.0
C829 C 0.89918 0.36521 0.20738 0.0
C830 C 0.9022 0.36929 0.24144 0.0
C831 C 0.8879 0.37909 0.1889 0.0
C832 C 0.85234 0.42118 0.19713 0.0
H833 H 0.84053 0.5033 0.07335 0.0
H834 H 0.85017 0.46657 0.09077 0.0
H835 H 0.83156 0.44515 0.19295 0.0
H836 H 0.89534 0.39022 0.28326 0.0
H837 H 0.87526 0.41379 0.25159 0.0
H838 H 0.88911 0.41772 0.1466 0.0
C839 C 0.84539 0.47794 0.10957 0.0
C840 C 0.84406 0.4393 0.18237 0.0
C841 C 0.83976 0.49894 0.09954 0.0
C842 C 0.89308 0.38662 0.25708 0.0
C843 C 0.88157 0.4001 0.23893 0.0
C844 C 0.87633 0.42326 0.15639 0.0
C845 C 0.84498 0.47183 0.14355 0.0
C846 C 0.85217 0.45028 0.15527 0.0
C847 C 0.87919 0.3969 0.20445 0.0
C848 C 0.86883 0.41335 0.18496 0.0
H849 H 0.82837 0.51927 0.17612 0.0
H850 H 0.83825 0.48326 0.19343 0.0
H851 H 0.87483 0.44962 0.12107 0.0
H852 H 0.90631 0.35215 0.19468 0.0
H853 H 0.8863 0.37624 0.16236 0.0
C854 C 0.07097 0.65292 0.21087 0.0
C855 C 0.07843 0.67261 0.22289 0.0
C856 C 0.08095 0.63865 0.19092 0.0
C857 C 0.12177 0.63254 0.13824 0.0
H858 H 0.11453 0.57104 0.1594 0.0
C859 C 0.16491 0.56107 0.08214 0.0
C860 C 0.15597 0.5413 0.07451 0.0
C861 C 0.15585 0.57838 0.09802 0.0
C862 C 0.11658 0.58809 0.15277 0.0
H863 H 0.10213 0.69318 0.22198 0.0
H864 H 0.11992 0.66784 0.18708 0.0
H865 H 0.09874 0.59889 0.19125 0.0
H866 H 0.13022 0.52473 0.07661 0.0
H867 H 0.11446 0.55485 0.10396 0.0
H868 H 0.13987 0.62145 0.09983 0.0
C869 C 0.10617 0.66361 0.19313 0.0
C870 C 0.1075 0.60416 0.17113 0.0
C871 C 0.09601 0.67815 0.2131 0.0
C872 C 0.13759 0.53963 0.08214 0.0
C873 C 0.12856 0.55688 0.09811 0.0
C874 C 0.13097 0.61636 0.11984 0.0
C875 C 0.09886 0.64338 0.18251 0.0
C876 C 0.10969 0.62662 0.16385 0.0
C877 C 0.13764 0.57635 0.10689 0.0
C878 C 0.12828 0.59388 0.12658 0.0
H879 H 0.05735 0.64827 0.21732 0.0
H880 H 0.0746 0.62366 0.18242 0.0
H881 H 0.12377 0.64963 0.13181 0.0
H882 H 0.17907 0.56298 0.0767 0.0
H883 H 0.16332 0.59303 0.1045 0.0
C884 C 0.31996 0.6308 0.48785 0.0
C885 C 0.32911 0.61176 0.49785 0.0
C886 C 0.32773 0.64541 0.46499 0.0
C887 C 0.37246 0.6632 0.43666 0.0
H888 H 0.3458 0.6975 0.37227 0.0
C889 C 0.40733 0.73071 0.3587 0.0
C890 C 0.39801 0.75061 0.35524 0.0
C891 C 0.39864 0.71196 0.37099 0.0
C892 C 0.35344 0.68817 0.3903 0.0
H893 H 0.35317 0.59248 0.48984 0.0
H894 H 0.36664 0.61784 0.44973 0.0
H895 H 0.33089 0.66764 0.40223 0.0
H896 H 0.37201 0.76612 0.36102 0.0
H897 H 0.35697 0.73365 0.38289 0.0
H898 H 0.39483 0.68401 0.42564 0.0
C899 C 0.35356 0.62167 0.46005 0.0
C900 C 0.34488 0.671 0.40743 0.0
C901 C 0.34575 0.60702 0.48285 0.0
C902 C 0.37962 0.75107 0.36326 0.0
C903 C 0.37095 0.73236 0.37569 0.0
C904 C 0.38098 0.68038 0.41966 0.0
C905 C 0.34489 0.64138 0.45159 0.0
C906 C 0.35423 0.65844 0.43111 0.0
C907 C 0.3804 0.71263 0.38031 0.0
C908 C 0.37156 0.69329 0.3965 0.0
H909 H 0.30711 0.63496 0.4988 0.0
H910 H 0.32067 0.66045 0.45923 0.0
H911 H 0.38002 0.65417 0.45514 0.0
H912 H 0.42148 0.7297 0.35259 0.0
H913 H 0.4063 0.69699 0.37357 0.0
C914 C 0.65696 0.40543 0.49618 0.0
C915 C 0.65921 0.42734 0.48596 0.0
C916 C 0.64481 0.39158 0.48026 0.0
C917 C 0.62125 0.38223 0.40098 0.0
H918 H 0.5967 0.33854 0.45471 0.0
C919 C 0.59444 0.29967 0.34668 0.0
C920 C 0.58033 0.28895 0.36343 0.0
C921 C 0.60127 0.31965 0.35886 0.0
C922 C 0.60308 0.35076 0.43904 0.0
H923 H 0.65006 0.45199 0.45107 0.0
H924 H 0.62845 0.42751 0.42286 0.0
H925 H 0.61261 0.36815 0.48182 0.0
H926 H 0.56133 0.29159 0.40429 0.0
H927 H 0.57241 0.32673 0.42432 0.0
H928 H 0.61154 0.36475 0.35808 0.0
C929 C 0.63633 0.42116 0.44337 0.0
C930 C 0.61249 0.36769 0.45476 0.0
C931 C 0.64855 0.43524 0.45968 0.0
C932 C 0.57238 0.29932 0.39109 0.0
C933 C 0.5789 0.31943 0.40278 0.0
C934 C 0.61167 0.36527 0.38511 0.0
C935 C 0.63439 0.39909 0.45345 0.0
C936 C 0.62213 0.38332 0.43607 0.0
C937 C 0.59392 0.32952 0.38775 0.0
C938 C 0.60273 0.34899 0.40395 0.0
H939 H 0.66486 0.39869 0.51637 0.0
H940 H 0.644 0.37467 0.48846 0.0
H941 H 0.62856 0.39394 0.38576 0.0
H942 H 0.6009 0.29199 0.32541 0.0
H943 H 0.61289 0.32671 0.34659 0.0
C944 C 0.23455 0.3561 0.03393 0.0
C945 C 0.21646 0.35993 0.026 0.0
C946 C 0.24136 0.33459 0.03461 0.0
C947 C 0.2264 0.27608 0.03973 0.0
H948 H 0.27381 0.26343 1.00469 0.0
C949 C 0.25086 0.187 1.0164 0.0
C950 C 0.26854 0.18208 0.02593 0.0
C951 C 0.24474 0.20877 1.01638 0.0
C952 C 0.26059 0.26669 1.01485 0.0
H953 H 0.19144 0.34402 1.01234 0.0
H954 H 0.20324 0.30706 1.01305 0.0
H955 H 0.26306 0.30125 1.00581 0.0
H956 H 0.29369 0.19636 0.04247 0.0
H957 H 0.28305 0.23409 0.04241 0.0
H958 H 0.22386 0.24153 0.04849 0.0
C959 C 0.21218 0.32045 1.01941 0.0
C960 C 0.25444 0.28843 1.01559 0.0
C961 C 0.20542 0.3418 1.01878 0.0
C962 C 0.27998 0.19949 0.035 0.0
C963 C 0.27392 0.2212 0.03477 0.0
C964 C 0.23251 0.25437 0.03885 0.0
C965 C 0.23022 0.31645 0.02742 0.0
C966 C 0.23721 0.29343 0.02788 0.0
C967 C 0.25619 0.22617 0.02564 0.0
C968 C 0.24966 0.24935 0.0263 0.0
H969 H 0.24344 0.36967 0.03959 0.0
H970 H 0.2553 0.33217 0.04115 0.0
H971 H 0.2132 0.27925 0.05001 0.0
H972 H 0.2417 0.17403 1.00921 0.0
H973 H 0.23106 0.212 1.00884 0.0
C974 C 0.75803 0.69886 1.00127 0.0
C975 C 0.77251 0.69359 1.02218 0.0
C976 C 0.75218 0.72064 0.99823 0.0
C977 C 0.75387 0.77488 0.04096 0.0
H978 H 0.73973 0.79722 0.95437 0.0
C979 C 0.73588 0.8667 1.02046 0.0
C980 C 0.72096 0.87095 1.0001 0.0
C981 C 0.74309 0.84546 1.02246 0.0
C982 C 0.74347 0.79123 0.97883 0.0
H983 H 0.7922 0.70723 0.05623 0.0
H984 H 0.78213 0.745 0.05074 0.0
H985 H 0.74989 0.7594 0.95949 0.0
H986 H 0.70214 0.85614 0.96545 0.0
H987 H 0.71449 0.81943 0.96916 0.0
H988 H 0.74732 0.80666 0.06036 0.0
C989 C 0.77511 0.73233 0.03698 0.0
C990 C 0.74928 0.76947 0.98176 0.0
C991 C 0.78095 0.71062 0.03998 0.0
C992 C 0.71366 0.85356 0.98135 0.0
C993 C 0.72084 0.83243 0.98332 0.0
C994 C 0.74803 0.79664 0.03804 0.0
C995 C 0.76065 0.73769 1.01606 0.0
C996 C 0.7545 0.76094 1.01289 0.0
C997 C 0.73558 0.82799 1.00406 0.0
C998 C 0.74265 0.8051 1.00696 0.0
H999 H 0.7512 0.68617 0.98723 0.0
H1000 H 0.74087 0.72407 0.98219 0.0
H1001 H 0.75754 0.76884 0.06544 0.0
H1002 H 0.74184 0.87969 0.03521 0.0
H1003 H 0.75458 0.84274 0.03839 0.0
C1004 C 0.96031 0.45182 0.24959 0.0
C1005 C 0.96864 0.43507 0.26804 0.0
C1006 C 0.96595 0.47364 0.2525 0.0
C1007 C 0.99058 0.51178 0.30829 0.0
H1008 H 0.99212 0.54868 0.22942 0.0
C1009 C 0.02205 0.59884 0.30917 0.0
C1010 C 0.01388 0.6154 0.29007 0.0
C1011 C 0.01618 0.57705 0.30717 0.0
C1012 C 0.99154 0.53873 0.2518 0.0
H1013 H 0.98956 0.42826 0.30398 0.0
H1014 H -0.00044 0.46642 0.30887 0.0
H1015 H 0.98326 0.51033 0.22432 0.0
H1016 H 0.99282 0.62193 0.25425 0.0
H1017 H 0.98242 0.5839 0.25099 0.0
H1018 H -0.0011 0.54021 0.33575 0.0
C1019 C 0.98849 0.46265 0.29237 0.0
C1020 C 0.98648 0.51666 0.24887 0.0
C1021 C 0.98284 0.44073 0.28942 0.0
C1022 C -0.00055 0.60962 0.26929 0.0
C1023 C 0.99358 0.58776 0.26724 0.0
C1024 C -0.00435 0.53387 0.31122 0.0
C1025 C 0.9801 0.47942 0.27394 0.0
C1026 C 0.9859 0.50286 0.27707 0.0
C1027 C 0.00195 0.57114 0.28598 0.0
C1028 C -0.00381 0.54767 0.28301 0.0
H1029 H 0.94928 0.44815 0.23296 0.0
H1030 H 0.95896 0.48607 0.2383 0.0
H1031 H 0.99003 0.5018 0.33064 0.0
H1032 H 0.03324 0.60263 0.32541 0.0
H1033 H 0.02312 0.56474 0.32167 0.0
C1034 C 0.25429 0.68646 0.51993 0.0
C1035 C 0.27063 0.68182 0.53583 0.0
C1036 C 0.24811 0.70813 0.51736 0.0
C1037 C 0.2541 0.764 0.55411 0.0
H1038 H 0.23004 0.78279 0.47343 0.0
C1039 C 0.23369 0.85507 0.53055 0.0
C1040 C 0.21672 0.85844 0.51622 0.0
C1041 C 0.24094 0.83384 0.53276 0.0
C1042 C 0.2366 0.77779 0.49629 0.0
H1043 H 0.29333 0.6965 0.56132 0.0
H1044 H 0.28274 0.73409 0.55646 0.0
H1045 H 0.241 0.74528 0.47772 0.0
H1046 H 0.19411 0.84196 0.49299 0.0
H1047 H 0.2066 0.80533 0.49701 0.0
H1048 H 0.24967 0.79659 0.57262 0.0
C1049 C 0.27449 0.72102 0.54643 0.0
C1050 C 0.24286 0.7562 0.49878 0.0
C1051 C 0.28063 0.69939 0.54905 0.0
C1052 C 0.20724 0.8401 0.50411 0.0
C1053 C 0.21448 0.819 0.5062 0.0
C1054 C 0.24786 0.78563 0.55158 0.0
C1055 C 0.25813 0.72575 0.53058 0.0
C1056 C 0.25161 0.74892 0.52781 0.0
C1057 C 0.23143 0.81552 0.52051 0.0
C1058 C 0.23889 0.79279 0.52273 0.0
H1059 H 0.24622 0.67335 0.50953 0.0
H1060 H 0.23534 0.71103 0.50537 0.0
H1061 H 0.26055 0.75898 0.57705 0.0
H1062 H 0.24136 0.86881 0.5401 0.0
H1063 H 0.2541 0.83181 0.54371 0.0
C1064 C 0.75587 0.19138 0.5154 0.0
C1065 C 0.77089 0.18577 0.53472 0.0
C1066 C 0.75035 0.21333 0.51268 0.0
C1067 C 0.75493 0.26837 0.55291 0.0
H1068 H 0.73972 0.28977 0.46641 0.0
C1069 C 0.74198 0.36118 0.52733 0.0
C1070 C 0.72725 0.3664 0.507 0.0
C1071 C 0.74758 0.33929 0.531 0.0
C1072 C 0.74373 0.28407 0.49088 0.0
H1073 H 0.7917 0.19898 0.56677 0.0
H1074 H 0.78219 0.23701 0.56193 0.0
H1075 H 0.7482 0.25144 0.47277 0.0
H1076 H 0.70686 0.3525 0.47464 0.0
H1077 H 0.71641 0.31472 0.48125 0.0
H1078 H 0.75042 0.30103 0.57102 0.0
C1079 C 0.77452 0.22451 0.54907 0.0
C1080 C 0.74859 0.26199 0.49454 0.0
C1081 C 0.78005 0.20262 0.5517 0.0
C1082 C 0.71833 0.34921 0.49038 0.0
C1083 C 0.72389 0.32743 0.49402 0.0
C1084 C 0.75004 0.29046 0.54927 0.0
C1085 C 0.75968 0.23024 0.52931 0.0
C1086 C 0.75424 0.25378 0.52561 0.0
C1087 C 0.73859 0.32208 0.51436 0.0
C1088 C 0.74432 0.29864 0.5182 0.0
H1089 H 0.74847 0.17886 0.502 0.0
H1090 H 0.73872 0.21703 0.4976 0.0
H1091 H 0.75898 0.26264 0.57734 0.0
H1092 H 0.74917 0.37398 0.5405 0.0
H1093 H 0.75907 0.33588 0.54661 0.0
C1094 C 0.95747 0.95208 0.73979 0.0
C1095 C 0.96487 0.93552 0.75995 0.0
C1096 C 0.96296 0.97396 0.74308 0.0
C1097 C 0.98487 1.01254 0.80212 0.0
H1098 H 0.99033 0.04907 0.72341 0.0
C1099 C 0.01783 0.09835 0.80788 0.0
C1100 C 0.01106 0.1153 0.78769 0.0
C1101 C 0.01154 0.07683 0.80469 0.0
C1102 C 0.98863 0.03923 0.74572 0.0
H1103 H 0.98404 0.92912 0.79932 0.0
H1104 H 0.99376 0.96732 0.8049 0.0
H1105 H 0.98136 1.01078 0.71731 0.0
H1106 H 0.99209 0.12276 0.74844 0.0
H1107 H 0.98091 0.08506 0.74303 0.0
H1108 H 0.99217 0.04095 0.83053 0.0
C1109 C 0.98351 0.96339 0.78674 0.0
C1110 C 0.98351 1.01719 0.74222 0.0
C1111 C 0.97802 0.94143 0.78341 0.0
C1112 C -0.00239 0.11014 0.7644 0.0
C1113 C 0.9913 0.08848 0.76116 0.0
C1114 C 0.98998 0.03457 0.80562 0.0
C1115 C 0.97602 0.97998 0.76665 0.0
C1116 C 0.98161 1.00349 0.77037 0.0
C1117 C -0.00175 0.07149 0.78121 0.0
C1118 C 0.99202 0.04823 0.77746 0.0
H1119 H 0.94726 0.94822 0.7215 0.0
H1120 H 0.95667 0.98623 0.72749 0.0
H1121 H 0.98322 1.00268 0.82443 0.0
H1122 H 0.02825 0.10162 0.82603 0.0
H1123 H 0.01745 0.06424 0.82021 0.0
C1124 C 0.5268 0.59199 0.73755 0.0
C1125 C 0.51868 0.60898 0.75599 0.0
C1126 C 0.52085 0.5703 0.74058 0.0
C1127 C 0.495 0.53277 0.79617 0.0
H1128 H 0.49475 0.49545 0.71765 0.0
C1129 C 0.46413 0.44516 0.79672 0.0
C1130 C 0.47328 0.42859 0.7791 0.0
C1131 C 0.46953 0.46715 0.79428 0.0
C1132 C 0.49492 0.50554 0.73992 0.0
H1133 H 0.4978 0.61631 0.7921 0.0
H1134 H 0.48719 0.57839 0.79708 0.0
H1135 H 0.50376 0.53373 0.71254 0.0
H1136 H 0.49541 0.42228 0.74513 0.0
H1137 H 0.50487 0.46061 0.74094 0.0
H1138 H 0.48603 0.50451 0.82347 0.0
C1139 C 0.49837 0.58186 0.78055 0.0
C1140 C 0.5001 0.52758 0.73701 0.0
C1141 C 0.50438 0.60366 0.77756 0.0
C1142 C 0.48803 0.43458 0.75904 0.0
C1143 C 0.49339 0.45662 0.75647 0.0
C1144 C 0.48974 0.51073 0.79905 0.0
C1145 C 0.50653 0.56485 0.76206 0.0
C1146 C 0.50034 0.54151 0.76512 0.0
C1147 C 0.48419 0.47322 0.77402 0.0
C1148 C 0.48972 0.49677 0.77099 0.0
H1149 H 0.53792 0.59538 0.72082 0.0
H1150 H 0.52773 0.55772 0.72639 0.0
H1151 H 0.49524 0.54283 0.81848 0.0
H1152 H 0.45268 0.44121 0.81236 0.0
H1153 H 0.46198 0.47945 0.80784 0.0
C1154 C 0.48189 0.9306 0.26707 0.0
C1155 C 0.46359 0.92689 0.2737 0.0
C1156 C 0.48885 0.95202 0.26614 0.0
C1157 C 0.47607 1.01018 0.2545 0.0
H1158 H 0.51996 1.02268 0.3025 0.0
C1159 C 0.50228 0.0995 0.2721 0.0
C1160 C 0.52093 0.10294 0.27289 0.0
C1161 C 0.49514 0.07814 0.27175 0.0
C1162 C 0.50785 1.01954 0.28843 0.0
H1163 H 0.43819 0.94294 0.28377 0.0
H1164 H 0.45026 0.98019 0.28167 0.0
H1165 H 0.50817 0.98541 0.30147 0.0
H1166 H 0.5467 0.08649 0.27308 0.0
H1167 H 0.53442 0.04958 0.27134 0.0
H1168 H 0.47586 0.04415 0.24084 0.0
C1169 C 0.45927 0.96655 0.27732 0.0
C1170 C 0.50106 0.99807 0.28797 0.0
C1171 C 0.45237 0.94515 0.27871 0.0
C1172 C 0.53225 0.08451 0.27286 0.0
C1173 C 0.52516 0.06322 0.2721 0.0
C1174 C 0.48298 0.03163 0.2546 0.0
C1175 C 0.47763 0.97028 0.27132 0.0
C1176 C 0.48505 0.9931 0.27109 0.0
C1177 C 0.50648 0.05962 0.27179 0.0
C1178 C 0.49899 0.03669 0.27163 0.0
H1179 H 0.49092 0.91693 0.26309 0.0
H1180 H 0.50303 0.95431 0.26116 0.0
H1181 H 0.4638 1.0069 0.24096 0.0
H1182 H 0.49315 0.11331 0.2722 0.0
H1183 H 0.4807 0.0762 0.272 0.0
C1184 C 0.23097 0.99358 0.3501 0.0
C1185 C 0.2423 1.00002 0.37638 0.0
C1186 C 0.2321 1.00387 0.3188 0.0
C1187 C 0.25174 0.05242 0.27393 0.0
H1188 H 0.25019 1.01346 0.19744 0.0
C1189 C 0.26017 0.08412 0.13759 0.0
C1190 C 0.27005 0.0709 0.11541 0.0
C1191 C 0.25556 0.07641 0.16953 0.0
C1192 C 0.25081 0.02459 0.21849 0.0
H1193 H 0.2628 0.0234 0.3909 0.0
H1194 H 0.26503 0.04097 0.33652 0.0
H1195 H 0.24383 0.99909 0.25289 0.0
H1196 H 0.28207 0.03899 0.10864 0.0
H1197 H 0.27473 0.02575 0.16458 0.0
H1198 H 0.25945 0.07773 0.23961 0.0
C1199 C 0.25518 0.02807 0.33989 0.0
C1200 C 0.24686 1.01639 0.25038 0.0
C1201 C 0.25401 1.01784 0.37112 0.0
C1202 C 0.27498 0.04977 0.12564 0.0
C1203 C 0.27043 0.04206 0.15752 0.0
C1204 C 0.25576 0.06062 0.24203 0.0
C1205 C 0.24459 1.02087 0.31297 0.0
C1206 C 0.24743 0.03012 0.27866 0.0
C1207 C 0.26058 0.05522 0.17994 0.0
C1208 C 0.25556 0.04676 0.21386 0.0
H1209 H 0.22186 0.97985 0.35317 0.0
H1210 H 0.22347 0.99813 0.29892 0.0
H1211 H 0.25212 0.0636 0.29496 0.0
H1212 H 0.25598 0.10041 0.13024 0.0
H1213 H 0.24775 0.08693 0.1858 0.0
C1214 C 0.70616 1.00424 0.12262 0.0
C1215 C 0.71054 0.98295 0.11175 0.0
C1216 C 0.71172 1.01188 0.15394 0.0
C1217 C 0.72653 0.99203 0.23711 0.0
H1218 H 0.73823 0.05337 0.2508 0.0
C1219 C 0.75096 0.05626 0.34887 0.0
C1220 C 0.73967 0.0491 0.37496 0.0
C1221 C 0.74962 0.04708 0.31679 0.0
C1222 C 0.73525 0.03612 0.24748 0.0
H1223 H 0.72469 0.95322 0.12529 0.0
H1224 H 0.73463 0.96666 0.17964 0.0
H1225 H 0.73233 0.03995 0.19459 0.0
H1226 H 0.71874 0.02582 0.38793 0.0
H1227 H 0.71616 1.01019 0.3322 0.0
H1228 H 0.72964 0.98815 0.28996 0.0
C1229 C 0.7266 0.97735 0.16415 0.0
C1230 C 0.7316 0.02846 0.21517 0.0
C1231 C 0.721 0.96968 0.1328 0.0
C1232 C 0.72752 0.03193 0.3684 0.0
C1233 C 0.72617 1.02278 0.3364 0.0
C1234 C 0.7302 0.99968 0.26942 0.0
C1235 C 0.72188 0.9985 0.17535 0.0
C1236 C 0.72695 1.00636 0.20953 0.0
C1237 C 0.73697 0.03048 0.30993 0.0
C1238 C 0.73439 1.02191 0.27517 0.0
H1239 H 0.69808 1.01493 0.10728 0.0
H1240 H 0.70756 0.02811 0.16173 0.0
H1241 H 0.72286 0.97496 0.23395 0.0
H1242 H 0.76038 0.06955 0.35284 0.0
H1243 H 0.75837 0.05322 0.29725 0.0
C1244 C 0.98773 0.33149 0.38229 0.0
C1245 C 0.97799 0.31733 0.36128 0.0
C1246 C -0.00511 0.32387 0.41243 0.0
C1247 C 0.00404 0.27295 0.46216 0.0
H1248 H -0.00371 0.31175 0.5376 0.0
C1249 C 0.01607 0.24363 0.598 0.0
C1250 C 0.00199 0.24862 0.62015 0.0
C1251 C 0.0172 0.25403 0.56674 0.0
C1252 C -0.00143 0.30068 0.51685 0.0
H1253 H 0.96933 0.28362 0.35456 0.0
H1254 H 0.9813 0.27053 0.40727 0.0
H1255 H 0.99067 0.32493 0.48134 0.0
H1256 H 0.97878 0.26933 0.62797 0.0
H1257 H 0.98065 0.28733 0.57392 0.0
H1258 H 0.01093 0.2483 0.49798 0.0
C1259 C 0.98359 0.2875 0.40048 0.0
C1260 C -0.00444 0.30834 0.48441 0.0
C1261 C 0.97654 0.29508 0.37025 0.0
C1262 C 0.98977 0.26513 0.61135 0.0
C1263 C 0.99092 0.27555 0.58035 0.0
C1264 C 0.00698 0.26525 0.49467 0.0
C1265 C 0.99246 0.30191 0.42246 0.0
C1266 C -0.00216 0.29445 0.4566 0.0
C1267 C 0.00434 0.26974 0.55719 0.0
C1268 C 0.00385 0.27885 0.52252 0.0
H1269 H 0.98926 0.34869 0.37611 0.0
H1270 H 0.00199 0.33537 0.42827 0.0
H1271 H 0.00624 0.26186 0.44141 0.0
H1272 H 0.0256 0.23086 0.60408 0.0
H1273 H 0.02786 0.24935 0.54972 0.0
C1274 C 0.97327 0.80219 0.59782 0.0
C1275 C 0.98437 0.79352 0.62285 0.0
C1276 C 0.97322 0.79306 0.56559 0.0
C1277 C 0.98718 0.78224 0.49571 0.0
H1278 H -0.00453 0.72051 0.47835 0.0
C1279 C 0.01855 0.75121 0.37194 0.0
C1280 C 0.01348 0.73058 0.35928 0.0
C1281 C 0.012 0.75864 0.4028 0.0
C1282 C 0.99292 0.73778 0.48254 0.0
H1283 H 0.00308 0.76748 0.63431 0.0
H1284 H 0.00313 0.7517 0.57846 0.0
H1285 H 0.98824 0.73262 0.5348 0.0
H1286 H -0.00306 0.70193 0.36898 0.0
H1287 H 0.98529 0.71504 0.42241 0.0
H1288 H 0.99179 0.78739 0.44344 0.0
C1289 C -0.00563 0.76548 0.58344 0.0
C1290 C 0.98896 0.74478 0.51512 0.0
C1291 C -0.00558 0.77459 0.61555 0.0
C1292 C 0.0012 0.71789 0.37788 0.0
C1293 C -0.00539 0.72535 0.40874 0.0
C1294 C 0.99109 0.77523 0.46311 0.0
C1295 C 0.98424 0.775 0.55765 0.0
C1296 C 0.98637 0.76717 0.52234 0.0
C1297 C 0.00014 0.74569 0.42194 0.0
C1298 C -0.00565 0.75294 0.45612 0.0
H1299 H 0.96548 0.81686 0.60252 0.0
H1300 H 0.96498 0.80061 0.54659 0.0
H1301 H 0.98545 0.79963 0.50017 0.0
H1302 H 0.02806 0.76141 0.35859 0.0
H1303 H 0.01681 0.77424 0.41218 0.0
C1304 C 0.26797 0.58083 0.64765 0.0
C1305 C 0.27967 0.5701 0.62539 0.0
C1306 C 0.26487 0.57244 0.67979 0.0
C1307 C 0.28388 0.53532 0.7438 0.0
H1308 H 0.23523 0.53379 0.77857 0.0
C1309 C 0.26855 0.5095 0.87988 0.0
C1310 C 0.25441 0.49445 0.8848 0.0
C1311 C 0.27107 0.51986 0.849 0.0
C1312 C 0.24888 0.53404 0.7692 0.0
H1313 H 0.29674 0.54179 0.61906 0.0
H1314 H 0.29177 0.52737 0.67531 0.0
H1315 H 0.24109 0.54937 0.72328 0.0
H1316 H 0.23147 0.4792 0.8609 0.0
H1317 H 0.23569 0.49762 0.80722 0.0
H1318 H 0.29166 0.5198 0.78951 0.0
C1319 C 0.28519 0.54248 0.6682 0.0
C1320 C 0.25227 0.54316 0.73762 0.0
C1321 C 0.28816 0.5508 0.63601 0.0
C1322 C 0.24238 0.49084 0.8583 0.0
C1323 C 0.24485 0.50136 0.8274 0.0
C1324 C 0.28051 0.52639 0.77547 0.0
C1325 C 0.2734 0.55311 0.69047 0.0
C1326 C 0.26981 0.54384 0.72444 0.0
C1327 C 0.25945 0.51565 0.82215 0.0
C1328 C 0.26296 0.52557 0.78859 0.0
H1329 H 0.26111 0.59568 0.64019 0.0
H1330 H 0.25583 0.58116 0.69634 0.0
H1331 H 0.29756 0.5357 0.73457 0.0
H1332 H 0.27788 0.51307 0.89984 0.0
H1333 H 0.28224 0.53111 0.84609 0.0
C1334 C 0.77331 0.56623 0.82938 0.0
C1335 C 0.75958 0.5611 0.85224 0.0
C1336 C 0.77435 0.55528 0.7985 0.0
C1337 C 0.75608 0.50693 0.75136 0.0
H1338 H 0.76314 0.54403 0.67379 0.0
C1339 C 0.74495 0.47245 0.61886 0.0
C1340 C 0.73539 0.48599 0.59676 0.0
C1341 C 0.75206 0.48095 0.64856 0.0
C1342 C 0.76107 0.53341 0.69514 0.0
H1343 H 0.73693 0.53965 0.86171 0.0
H1344 H 0.73859 0.5208 0.80835 0.0
H1345 H 0.76784 0.55905 0.72952 0.0
H1346 H 0.72719 0.51951 0.5874 0.0
H1347 H 0.73884 0.53412 0.63952 0.0
H1348 H 0.74823 0.48169 0.71735 0.0
C1349 C 0.74868 0.53306 0.8139 0.0
C1350 C 0.76404 0.54197 0.72719 0.0
C1351 C 0.74764 0.54398 0.84452 0.0
C1352 C 0.7341 0.50849 0.60415 0.0
C1353 C 0.74104 0.51695 0.63399 0.0
C1354 C 0.75299 0.49843 0.7194 0.0
C1355 C 0.76175 0.53891 0.79003 0.0
C1356 C 0.76116 0.529 0.75582 0.0
C1357 C 0.74972 0.50319 0.65709 0.0
C1358 C 0.75505 0.51166 0.6908 0.0
H1359 H 0.78263 0.57944 0.83463 0.0
H1360 H 0.78475 0.56002 0.78094 0.0
H1361 H 0.75401 0.4963 0.7727 0.0
H1362 H 0.7464 0.45508 0.61389 0.0
H1363 H 0.75904 0.46991 0.66519 0.0
C1364 C 0.00661 0.74876 0.10008 0.0
C1365 C -0.00429 0.75775 0.12537 0.0
C1366 C 0.0066 0.75763 0.06771 0.0
C1367 C 0.99088 0.80581 1.01705 0.0
H1368 H 0.99001 0.76317 0.94519 0.0
C1369 C 0.98005 0.83241 0.87935 0.0
C1370 C 0.96858 0.81913 0.86009 0.0
C1371 C 0.98629 0.82525 0.91054 0.0
C1372 C 0.99013 0.77534 0.96491 0.0
H1373 H 0.97725 0.78417 0.13683 0.0
H1374 H 0.97683 0.79919 0.08063 0.0
H1375 H -0.00448 0.75106 1.00207 0.0
H1376 H 0.95517 0.78754 0.85851 0.0
H1377 H 0.96569 0.77528 0.91262 0.0
H1378 H 0.98453 0.82992 0.9801 0.0
C1379 C 0.98554 0.7854 0.08558 0.0
C1380 C 0.99359 0.76841 0.99764 0.0
C1381 C 0.98564 0.77662 0.1179 0.0
C1382 C 0.964 0.79824 0.87242 0.0
C1383 C 0.97016 0.79112 0.90358 0.0
C1384 C 0.98731 0.81272 0.98433 0.0
C1385 C -0.00436 0.77569 0.05972 0.0
C1386 C 0.99373 0.78348 0.02434 0.0
C1387 C 0.9812 0.80462 0.92339 0.0
C1388 C 0.98658 0.79754 0.95781 0.0
H1389 H 0.01447 0.73417 0.10477 0.0
H1390 H 0.01485 0.74994 0.04874 0.0
H1391 H 0.99115 0.818 0.03672 0.0
H1392 H 0.98391 0.84859 0.87071 0.0
H1393 H -0.005 0.836 0.92469 0.0
C1394 C 0.9843 0.30263 0.10643 0.0
C1395 C -0.00422 0.29621 0.13251 0.0
C1396 C 0.98557 0.29271 0.0748 0.0
C1397 C 0.01933 0.26606 1.02186 0.0
H1398 H 0.97962 0.24951 0.96476 0.0
C1399 C 0.02931 0.24857 0.8816 0.0
C1400 C 0.02167 0.22915 0.86898 0.0
C1401 C 0.0248 0.25625 0.91348 0.0
C1402 C 0.99083 0.254 0.9805 0.0
H1403 H 0.01651 0.27308 0.14641 0.0
H1404 H 0.01882 0.25606 0.09145 0.0
H1405 H 0.97368 0.26286 1.02169 0.0
H1406 H 0.00288 0.20289 0.87989 0.0
H1407 H -0.00523 0.21656 0.93559 0.0
H1408 H 0.03648 0.25751 0.98086 0.0
C1409 C 0.00907 0.26899 0.09521 0.0
C1410 C 0.98743 0.26176 1.01298 0.0
C1411 C 0.00772 0.27875 0.12674 0.0
C1412 C 0.00902 0.2179 0.88882 0.0
C1413 C 0.00431 0.22577 0.92066 0.0
C1414 C 0.0227 0.25863 0.98939 0.0
C1415 C -0.0016 0.27626 0.06857 0.0
C1416 C 0.00167 0.2678 0.03408 0.0
C1417 C 0.01238 0.24486 0.93355 0.0
C1418 C 0.00852 0.25252 0.96825 0.0
H1419 H 0.97505 0.31611 0.10987 0.0
H1420 H 0.97718 0.29871 0.05477 0.0
H1421 H 0.0306 0.2708 0.03729 0.0
H1422 H 0.0392 0.2576 0.86726 0.0
H1423 H 0.03113 0.27112 0.92253 0.0
C1424 C 0.72192 0.99684 0.84264 0.0
C1425 C 0.73643 0.99922 0.86469 0.0
C1426 C 0.72208 1.00744 0.81147 0.0
C1427 C 0.74525 0.05158 0.76282 0.0
H1428 H 0.73258 1.01624 0.68585 0.0
C1429 C 0.75488 0.0848 0.62874 0.0
C1430 C 0.76297 0.07026 0.60595 0.0
C1431 C 0.74818 0.0772 0.65942 0.0
C1432 C 0.73619 0.02635 0.70705 0.0
H1433 H 0.76196 1.01553 0.87216 0.0
H1434 H 0.76232 0.03381 0.81818 0.0
H1435 H 0.72751 1.00186 0.742 0.0
H1436 H 0.76927 0.03604 0.59679 0.0
H1437 H 0.75795 1.02291 0.65025 0.0
H1438 H 0.75471 0.07564 0.72804 0.0
C1439 C 0.75076 0.02388 0.8247 0.0
C1440 C 0.73307 1.0182 0.73932 0.0
C1441 C 0.75064 1.01324 0.85561 0.0
C1442 C 0.76331 0.04777 0.61384 0.0
C1443 C 0.75665 0.04019 0.6445 0.0
C1444 C 0.74837 0.05972 0.73061 0.0
C1445 C 0.73667 1.0208 0.80188 0.0
C1446 C 0.73792 0.03052 0.76765 0.0
C1447 C 0.74937 0.05486 0.66807 0.0
C1448 C 0.74422 0.04706 0.70224 0.0
H1449 H 0.71083 0.98606 0.84887 0.0
H1450 H 0.71091 1.00489 0.79468 0.0
H1451 H 0.74894 0.06167 0.78401 0.0
H1452 H 0.75432 0.10221 0.62348 0.0
H1453 H 0.74238 0.08894 0.67664 0.0
C1454 C 0.23828 0.03296 0.8516 0.0
C1455 C 0.25065 0.04978 0.85852 0.0
C1456 C 0.23845 1.0222 0.82079 0.0
C1457 C 0.25164 0.0315 0.7331 0.0
H1458 H 0.23542 0.97137 0.72353 0.0
C1459 C 0.21875 0.99899 0.61211 0.0
C1460 C 0.2203 0.97665 0.60381 0.0
C1461 C 0.22618 1.0072 0.64169 0.0
C1462 C 0.24026 0.98808 0.7255 0.0
H1463 H 0.27351 0.06774 0.83925 0.0
H1464 H 0.27406 0.04863 0.7852 0.0
H1465 H 0.24259 0.98554 0.77863 0.0
H1466 H 0.23206 0.94575 0.61918 0.0
H1467 H 0.24545 0.96015 0.67013 0.0
H1468 H 0.24937 0.03399 0.67989 0.0
C1469 C 0.26404 0.04399 0.80355 0.0
C1470 C 0.24416 0.99632 0.75731 0.0
C1471 C 0.26389 0.05475 0.83462 0.0
C1472 C 0.23043 0.96301 0.62486 0.0
C1473 C 0.23798 0.97125 0.65433 0.0
C1474 C 0.24782 0.02322 0.70121 0.0
C1475 C 0.25101 0.02794 0.79594 0.0
C1476 C 0.24946 1.01831 0.76169 0.0
C1477 C 0.23556 0.99333 0.66365 0.0
C1478 C 0.24166 1.00153 0.69702 0.0
H1479 H 0.22792 0.02878 0.86959 0.0
H1480 H 0.22808 1.01017 0.8159 0.0
H1481 H 0.25557 0.04855 0.73541 0.0
H1482 H 0.21134 1.0101 0.59625 0.0
H1483 H 0.22388 0.02425 0.64795 0.0
C1484 C 0.49824 0.24124 0.10162 0.0
C1485 C 0.49171 0.21967 0.10487 0.0
C1486 C 0.49598 0.25286 0.07166 0.0
C1487 C 0.46678 0.25353 0.99695 0.0
H1488 H 0.5029 0.29235 0.95961 0.0
C1489 C 0.45991 0.29009 0.86485 0.0
C1490 C 0.46544 0.31182 0.85953 0.0
C1491 C 0.46332 0.27959 0.89523 0.0
C1492 C 0.49257 0.2818 0.96993 0.0
H1493 H 0.47876 0.19295 0.07846 0.0
H1494 H 0.47497 0.21303 0.02641 0.0
H1495 H 0.50914 0.27241 1.01123 0.0
H1496 H 0.47922 0.33956 0.88159 0.0
H1497 H 0.48492 0.32139 0.93508 0.0
H1498 H 0.4502 0.26284 0.95586 0.0
C1499 C 0.4814 0.22124 0.04719 0.0
C1500 C 0.49617 0.27033 0.99952 0.0
C1501 C 0.48363 0.20968 0.07702 0.0
C1502 C 0.47464 0.32284 0.88514 0.0
C1503 C 0.47802 0.31236 0.91567 0.0
C1504 C 0.46318 0.26498 0.96748 0.0
C1505 C 0.48716 0.24315 0.0443 0.0
C1506 C 0.48338 0.25587 1.01324 0.0
C1507 C 0.47239 0.29057 0.92111 0.0
C1508 C 0.47607 0.27913 0.95336 0.0
H1509 H 0.5044 0.24946 0.12266 0.0
H1510 H 0.50053 0.26973 0.07038 0.0
H1511 H 0.45643 0.24295 1.00716 0.0
H1512 H 0.45329 0.28096 0.84518 0.0
H1513 H 0.45913 0.26267 0.89814 0.0
C1514 C 0.46975 0.80049 0.08644 0.0
C1515 C 0.48309 0.79564 0.10996 0.0
C1516 C 0.46974 0.79006 0.05509 0.0
C1517 C 0.49026 0.74348 1.00725 0.0
H1518 H 0.48439 0.78181 0.93087 0.0
C1519 C 0.50366 0.71178 0.87356 0.0
C1520 C 0.51352 0.72581 0.85245 0.0
C1521 C 0.49624 0.71958 0.90351 0.0
C1522 C 0.48612 0.77086 0.95189 0.0
H1523 H 0.5062 0.77527 0.12003 0.0
H1524 H 0.50625 0.75719 0.0659 0.0
H1525 H 0.47813 0.79564 0.98689 0.0
H1526 H 0.52223 0.75948 0.84542 0.0
H1527 H 0.50987 0.77288 0.89791 0.0
H1528 H 0.49921 0.71909 0.97265 0.0
C1529 C 0.49568 0.76885 0.0713 0.0
C1530 C 0.48227 0.77872 0.98407 0.0
C1531 C 0.49572 0.77929 0.10237 0.0
C1532 C 0.51497 0.74809 0.86125 0.0
C1533 C 0.50767 0.75586 0.89131 0.0
C1534 C 0.49418 0.73566 0.97516 0.0
C1535 C 0.48301 0.77449 0.04683 0.0
C1536 C 0.48467 0.76528 1.01229 0.0
C1537 C 0.49854 0.74161 0.91327 0.0
C1538 C 0.49252 0.74936 0.94703 0.0
H1539 H 0.45995 0.81316 0.09157 0.0
H1540 H 0.45963 0.79462 0.03703 0.0
H1541 H 0.49202 0.73252 0.02827 0.0
H1542 H 0.5021 0.69456 0.8675 0.0
H1543 H 0.48896 0.70819 0.91932 0.0
C1544 C 0.7677 0.59514 0.13248 0.0
C1545 C 0.77889 0.58318 0.11078 0.0
C1546 C 0.76335 0.587 0.16427 0.0
C1547 C 0.76166 0.53499 0.21309 0.0
H1548 H 0.75779 0.57407 0.28921 0.0
C1549 C 0.73958 0.50233 0.34269 0.0
C1550 C 0.74993 0.50957 0.36984 0.0
C1551 C 0.74089 0.5128 0.31151 0.0
C1552 C 0.75884 0.56288 0.26828 0.0
H1553 H 0.7938 0.55307 0.10508 0.0
H1554 H 0.78687 0.53913 0.16089 0.0
H1555 H 0.76579 0.58886 0.23457 0.0
H1556 H 0.7688 0.5344 0.38615 0.0
H1557 H 0.77115 0.55256 0.33215 0.0
H1558 H 0.7553 0.50891 0.24698 0.0
C1559 C 0.78131 0.55477 0.15341 0.0
C1560 C 0.76328 0.57142 0.23677 0.0
C1561 C 0.78561 0.56292 0.12161 0.0
C1562 C 0.76067 0.5284 0.36569 0.0
C1563 C 0.76196 0.53886 0.33466 0.0
C1564 C 0.75723 0.52645 0.24459 0.0
C1565 C 0.76999 0.5666 0.17515 0.0
C1566 C 0.76491 0.55758 0.20873 0.0
C1567 C 0.75254 0.53081 0.3068 0.0
C1568 C 0.75589 0.54024 0.27274 0.0
H1569 H 0.76213 0.61072 0.12476 0.0
H1570 H 0.7544 0.59648 0.17999 0.0
H1571 H 0.76249 0.52381 0.1921 0.0
H1572 H 0.7313 0.48777 0.34496 0.0
H1573 H 0.73317 0.50636 0.29084 0.0
C1574 C 0.26408 0.55472 0.34201 0.0
C1575 C 0.25196 0.55059 0.36826 0.0
C1576 C 0.26237 0.54354 0.31142 0.0
C1577 C 0.22639 0.51906 0.26159 0.0
H1578 H 0.26408 0.49772 0.20301 0.0
C1579 C 0.21242 0.49968 0.12384 0.0
C1580 C 0.21821 0.47918 0.11181 0.0
C1581 C 0.21847 0.50778 0.15448 0.0
C1582 C 0.25342 0.50356 0.21919 0.0
H1583 H 0.22945 0.53063 0.38412 0.0
H1584 H 0.22666 0.51093 0.33129 0.0
H1585 H 0.27166 0.51148 0.25901 0.0
H1586 H 0.23561 0.45156 0.1223 0.0
H1587 H 0.24635 0.46592 0.17588 0.0
H1588 H 0.20818 0.51145 0.22207 0.0
C1589 C 0.23729 0.52295 0.3339 0.0
C1590 C 0.25777 0.51153 0.25114 0.0
C1591 C 0.23899 0.53405 0.36427 0.0
C1592 C 0.23084 0.4674 0.13075 0.0
C1593 C 0.23705 0.47565 0.1614 0.0
C1594 C 0.22211 0.5114 0.22971 0.0
C1595 C 0.24845 0.52818 0.30664 0.0
C1596 C 0.24426 0.51929 0.27277 0.0
C1597 C 0.2306 0.49572 0.17396 0.0
C1598 C 0.23553 0.5036 0.20803 0.0
H1599 H 0.27402 0.56761 0.34433 0.0
H1600 H 0.27116 0.54798 0.29089 0.0
H1601 H 0.21567 0.5252 0.27735 0.0
H1602 H 0.20271 0.50926 0.11016 0.0
H1603 H 0.21341 0.52343 0.16321 0.0
C1604 C 0.47437 0.83012 0.38886 0.0
C1605 C 0.45829 0.82229 0.37489 0.0
C1606 C 0.47912 0.82463 0.42168 0.0
C1607 C 0.46026 0.80373 0.50168 0.0
H1608 H 0.5091 0.78536 0.5193 0.0
C1609 C 0.48125 0.77722 0.63371 0.0
C1610 C 0.491 0.75754 0.63572 0.0
C1611 C 0.47921 0.78804 0.60313 0.0
C1612 C 0.49541 0.79043 0.51481 0.0
H1613 H 0.43443 0.803 0.38497 0.0
H1614 H 0.44262 0.79347 0.44185 0.0
H1615 H 0.50101 0.79844 0.46365 0.0
H1616 H 0.50707 0.73447 0.60736 0.0
H1617 H 0.50356 0.75332 0.55401 0.0
H1618 H 0.45445 0.79508 0.55235 0.0
C1619 C 0.45157 0.80394 0.42761 0.0
C1620 C 0.4908 0.79815 0.48298 0.0
C1621 C 0.4469 0.80931 0.3948 0.0
C1622 C 0.49964 0.74972 0.60678 0.0
C1623 C 0.49757 0.76052 0.57612 0.0
C1624 C 0.46486 0.79611 0.53347 0.0
C1625 C 0.46783 0.81132 0.4414 0.0
C1626 C 0.4731 0.80461 0.47587 0.0
C1627 C 0.48683 0.77944 0.5737 0.0
C1628 C 0.48245 0.78911 0.54042 0.0
H1629 H 0.48348 0.84016 0.37426 0.0
H1630 H 0.49165 0.83082 0.43162 0.0
H1631 H 0.44656 0.8088 0.49726 0.0
H1632 H 0.47461 0.78383 0.65563 0.0
H1633 H 0.47121 0.80284 0.60239 0.0
C1634 C 0.50305 0.32341 0.56959 0.0
C1635 C 0.49827 0.31294 0.59964 0.0
C1636 C 0.50454 0.31155 0.53983 0.0
C1637 C 0.51233 0.25503 0.50902 0.0
H1638 H 0.50226 0.2816 0.42313 0.0
C1639 C 0.51988 0.20875 0.38232 0.0
C1640 C 0.52804 0.2205 0.35613 0.0
C1641 C 0.51547 0.21924 0.41242 0.0
C1642 C 0.50527 0.274 0.44691 0.0
H1643 H 0.49041 0.28186 0.62155 0.0
H1644 H 0.49253 0.26113 0.56925 0.0
H1645 H 0.4944 0.30106 0.47429 0.0
H1646 H 0.53753 0.25246 0.34048 0.0
H1647 H 0.52994 0.27081 0.39298 0.0
H1648 H 0.52314 0.2279 0.48137 0.0
C1649 C 0.49553 0.27852 0.56891 0.0
C1650 C 0.50076 0.28516 0.47631 0.0
C1651 C 0.49406 0.29044 0.59882 0.0
C1652 C 0.53161 0.24292 0.36053 0.0
C1653 C 0.52703 0.25347 0.39043 0.0
C1654 C 0.51672 0.24378 0.47955 0.0
C1655 C 0.50117 0.28884 0.53913 0.0
C1656 C 0.50447 0.27601 0.50783 0.0
C1657 C 0.51881 0.2418 0.4167 0.0
C1658 C 0.51348 0.25327 0.44813 0.0
H1659 H 0.50619 0.34078 0.56926 0.0
H1660 H 0.50907 0.32012 0.51765 0.0
H1661 H 0.51565 0.24755 0.53273 0.0
H1662 H 0.51681 0.19147 0.37945 0.0
H1663 H 0.50901 0.20982 0.43202 0.0
C1664 C 0.10166 0.1945 0.89641 0.0
C1665 C 0.08648 0.18636 0.87993 0.0
C1666 C 0.1125 0.18047 0.91492 0.0
C1667 C 0.12605 0.12389 0.90812 0.0
H1668 H 0.16028 0.1421 0.97549 0.0
C1669 C 0.19965 0.10386 0.89779 0.0
C1670 C 0.209 0.09594 0.92567 0.0
C1671 C 0.18211 0.11133 0.90106 0.0
C1672 C 0.15063 0.13652 0.95717 0.0
H1673 H 0.06949 0.15789 0.87266 0.0
H1674 H 0.08843 0.13321 0.90529 0.0
H1675 H 0.13192 0.16189 0.96977 0.0
H1676 H 0.20739 0.09025 0.97914 0.0
H1677 H 0.17665 0.10416 0.98497 0.0
H1678 H 0.14512 0.09931 0.89438 0.0
C1679 C 0.09214 0.15037 0.90347 0.0
C1680 C 0.13446 0.1479 0.95374 0.0
C1681 C 0.08129 0.16446 0.88487 0.0
C1682 C 0.20057 0.09638 0.95722 0.0
C1683 C 0.18299 0.10416 0.96056 0.0
C1684 C 0.14216 0.1126 0.91153 0.0
C1685 C 0.10833 0.158 0.91727 0.0
C1686 C 0.12245 0.14241 0.92798 0.0
C1687 C 0.17354 0.11132 0.93234 0.0
C1688 C 0.15497 0.11956 0.93487 0.0
H1689 H 0.10583 0.21142 0.89322 0.0
H1690 H 0.12491 0.18693 0.92492 0.0
H1691 H 0.11721 0.11923 0.8879 0.0
H1692 H 0.20589 0.1043 0.8733 0.0
H1693 H 0.17529 0.11736 0.87906 0.0
C1694 C 0.77771 0.9335 0.91032 0.0
C1695 C 0.7725 0.94866 0.93483 0.0
C1696 C 0.79391 0.92234 0.91315 0.0
C1697 C 0.83887 0.92788 0.94384 0.0
H1698 H 0.84109 0.86566 0.92411 0.0
C1699 C 0.89712 0.88522 0.87578 0.0
C1700 C 0.89992 0.86279 0.88157 0.0
C1701 C 0.884 0.89656 0.89392 0.0
C1702 C 0.84081 0.88294 0.93042 0.0
H1703 H 0.77981 0.96407 0.9816 0.0
H1704 H 0.80871 0.94476 0.98618 0.0
H1705 H 0.81216 0.88289 0.93379 0.0
H1706 H 0.89292 0.83521 0.91318 0.0
H1707 H 0.87031 0.85507 0.94531 0.0
H1708 H 0.86755 0.9281 0.93876 0.0
C1709 C 0.80008 0.94142 0.96505 0.0
C1710 C 0.8242 0.89281 0.93567 0.0
C1711 C 0.78362 0.95233 0.96252 0.0
C1712 C 0.89083 0.85246 0.90801 0.0
C1713 C 0.87784 0.8638 0.92628 0.0
C1714 C 0.85557 0.91801 0.9383 0.0
C1715 C 0.80535 0.92637 0.9403 0.0
C1716 C 0.82303 0.91546 0.94133 0.0
C1717 C 0.8736 0.88561 0.91819 0.0
C1718 C 0.85665 0.89554 0.93054 0.0
H1719 H 0.76929 0.93046 0.88879 0.0
H1720 H 0.79777 0.91101 0.89353 0.0
H1721 H 0.83828 0.94543 0.94806 0.0
H1722 H 0.90399 0.89353 0.8555 0.0
H1723 H 0.88103 0.91332 0.88697 0.0
C1724 C 0.03671 0.35955 0.21848 0.0
C1725 C 0.03409 0.33698 0.21313 0.0
C1726 C 0.05401 0.36838 0.21917 0.0
C1727 C 0.09698 0.35739 0.1798 0.0
H1728 H 0.11101 0.41072 0.2257 0.0
C1729 C 0.15457 0.41056 0.12895 0.0
C1730 C 0.14958 0.4326 0.12515 0.0
C1731 C 0.14445 0.39659 0.1495 0.0
C1732 C 0.10735 0.39576 0.21278 0.0
H1733 H 0.04757 0.30568 0.20785 0.0
H1734 H 0.07784 0.32115 0.20892 0.0
H1735 H 0.08528 0.38963 0.24601 0.0
H1736 H 0.13093 0.45774 0.14122 0.0
H1737 H 0.11323 0.43353 0.17655 0.0
H1738 H 0.11826 0.36411 0.1454 0.0
C1739 C 0.06649 0.33204 0.212 0.0
C1740 C 0.09263 0.38368 0.22444 0.0
C1741 C 0.04917 0.3232 0.21138 0.0
C1742 C 0.13502 0.44077 0.14363 0.0
C1743 C 0.12498 0.4269 0.16416 0.0
C1744 C 0.11164 0.36948 0.1681 0.0
C1745 C 0.06907 0.35483 0.2145 0.0
C1746 C 0.08686 0.36484 0.20726 0.0
C1747 C 0.12925 0.40451 0.16665 0.0
C1748 C 0.11653 0.38929 0.18361 0.0
H1749 H 0.02541 0.37067 0.21959 0.0
H1750 H 0.05548 0.38603 0.22081 0.0
H1751 H 0.0928 0.34309 0.16574 0.0
H1752 H 0.16581 0.40391 0.11503 0.0
H1753 H 0.14819 0.37947 0.15116 0.0
C1754 C 0.94056 0.71958 0.17812 0.0
C1755 C 0.95278 0.72236 0.2045 0.0
C1756 C 0.92345 0.71122 0.18395 0.0
C1757 C 0.90134 0.67198 0.23646 0.0
H1758 H 0.8611 0.68811 0.18054 0.0
C1759 C 0.86207 0.61106 0.16106 0.0
C1760 C 0.84423 0.61487 0.15186 0.0
C1761 C 0.87094 0.62554 0.18226 0.0
C1762 C 0.87189 0.68356 0.19718 0.0
H1763 H 0.95609 0.71915 0.25816 0.0
H1764 H 0.9262 0.70353 0.26807 0.0
H1765 H 0.88513 0.71443 0.19023 0.0
H1766 H 0.82115 0.63584 0.15922 0.0
H1767 H 0.83689 0.66177 0.19603 0.0
H1768 H 0.88866 0.6406 0.24161 0.0
C1769 C 0.92999 0.70825 0.24293 0.0
C1770 C 0.88575 0.69861 0.20249 0.0
C1771 C 0.94714 0.71703 0.23716 0.0
C1772 C 0.83496 0.63264 0.16598 0.0
C1773 C 0.84396 0.64744 0.18694 0.0
C1774 C 0.88746 0.65692 0.23117 0.0
C1775 C 0.91808 0.70499 0.21623 0.0
C1776 C 0.90114 0.69244 0.22034 0.0
C1777 C 0.86223 0.64436 0.19445 0.0
C1778 C 0.87319 0.66209 0.20967 0.0
H1779 H 0.94443 0.72274 0.15247 0.0
H1780 H 0.91481 0.70836 0.16267 0.0
H1781 H 0.91299 0.66676 0.25044 0.0
H1782 H 0.86947 0.59735 0.15065 0.0
H1783 H 0.88505 0.62278 0.18705 0.0
C1784 C 0.20365 0.60494 0.45725 0.0
C1785 C 0.21386 0.60455 0.42761 0.0
C1786 C 0.18623 0.61354 0.45726 0.0
C1787 C 0.149 0.62233 0.39957 0.0
H1788 H 0.13178 0.66653 0.46148 0.0
C1789 C 0.08275 0.66467 0.37369 0.0
C1790 C 0.08498 0.68751 0.3722 0.0
C1791 C 0.09529 0.65178 0.39061 0.0
C1792 C 0.13633 0.65399 0.44426 0.0
H1793 H 0.21441 0.61431 0.37553 0.0
H1794 H 0.18412 0.6291 0.37551 0.0
H1795 H 0.16135 0.64995 0.46995 0.0
H1796 H 0.10078 0.71503 0.3898 0.0
H1797 H 0.12267 0.69269 0.41889 0.0
H1798 H 0.12466 0.62703 0.37274 0.0
C1799 C 0.18937 0.62235 0.39851 0.0
C1800 C 0.15319 0.64447 0.4492 0.0
C1801 C 0.20672 0.61394 0.39855 0.0
C1802 C 0.09886 0.69741 0.39039 0.0
C1803 C 0.11134 0.68458 0.40732 0.0
C1804 C 0.13219 0.63171 0.39472 0.0
C1805 C 0.17878 0.62171 0.42759 0.0
C1806 C 0.15993 0.6292 0.42609 0.0
C1807 C 0.11018 0.66157 0.40628 0.0
C1808 C 0.12593 0.64825 0.41627 0.0
H1809 H 0.2088 0.59771 0.47999 0.0
H1810 H 0.17834 0.61299 0.48004 0.0
H1811 H 0.15378 0.61029 0.38171 0.0
H1812 H 0.07206 0.65668 0.35999 0.0
H1813 H 0.0939 0.63409 0.38981 0.0
C1814 C 0.91298 0.38114 0.39003 0.0
C1815 C 0.90638 0.36013 0.38265 0.0
C1816 C 0.90263 0.39578 0.40893 0.0
C1817 C 0.8594 0.40063 0.45728 0.0
H1818 H 0.85619 0.45606 0.41035 0.0
C1819 C 0.79783 0.4587 0.46976 0.0
C1820 C 0.79095 0.46459 0.43831 0.0
C1821 C 0.81489 0.44915 0.47235 0.0
C1822 C 0.85702 0.44076 0.42402 0.0
H1823 H 0.88455 0.33725 0.39119 0.0
H1824 H 0.86635 0.36272 0.4231 0.0
H1825 H 0.88151 0.43211 0.3998 0.0
H1826 H 0.79644 0.46426 0.38494 0.0
H1827 H 0.82587 0.44819 0.38952 0.0
H1828 H 0.83396 0.40866 0.4792 0.0
C1829 C 0.87955 0.36803 0.41504 0.0
C1830 C 0.87169 0.42708 0.41828 0.0
C1831 C 0.88992 0.35342 0.39639 0.0
C1832 C 0.80148 0.46071 0.4097 0.0
C1833 C 0.81843 0.45144 0.4123 0.0
C1834 C 0.84462 0.4143 0.46283 0.0
C1835 C 0.88546 0.38967 0.42053 0.0
C1836 C 0.87261 0.40634 0.43354 0.0
C1837 C 0.82536 0.44549 0.44356 0.0
C1838 C 0.84286 0.43396 0.44489 0.0
H1839 H 0.92572 0.38662 0.37991 0.0
H1840 H 0.90774 0.41219 0.41317 0.0
H1841 H 0.85991 0.385 0.47008 0.0
H1842 H 0.79004 0.46146 0.49228 0.0
H1843 H 0.81987 0.44459 0.49676 0.0
C1844 C 0.03718 0.83933 0.72017 0.0
C1845 C 0.02894 0.83457 0.6894 0.0
C1846 C 0.05473 0.84775 0.72106 0.0
C1847 C 0.0955 0.85383 0.66818 0.0
H1848 H 0.10311 0.90861 0.71522 0.0
C1849 C 0.15367 0.90957 0.62973 0.0
C1850 C 0.14792 0.93107 0.62341 0.0
C1851 C 0.1431 0.89544 0.64922 0.0
C1852 C 0.10129 0.89321 0.70214 0.0
H1853 H 0.0325 0.83599 0.63551 0.0
H1854 H 0.06277 0.85003 0.63716 0.0
H1855 H 0.07621 0.88691 0.72682 0.0
H1856 H 0.12746 0.95525 0.6344 0.0
H1857 H 0.10893 0.93075 0.66749 0.0
H1858 H 0.11962 0.86084 0.6414 0.0
C1859 C 0.056 0.84672 0.66064 0.0
C1860 C 0.08596 0.88067 0.70908 0.0
C1861 C 0.03857 0.83861 0.65973 0.0
C1862 C 0.13216 0.93868 0.63872 0.0
C1863 C 0.12161 0.92464 0.65806 0.0
C1864 C 0.11072 0.86637 0.66111 0.0
C1865 C 0.06433 0.85137 0.69121 0.0
C1866 C 0.08248 0.86144 0.69086 0.0
C1867 C 0.1266 0.90261 0.66263 0.0
C1868 C 0.11333 0.88679 0.67675 0.0
H1869 H 0.0301 0.83647 0.74345 0.0
H1870 H 0.0608 0.85137 0.74499 0.0
H1871 H 0.09331 0.83883 0.6542 0.0
H1872 H 0.16587 0.90337 0.61836 0.0
H1873 H 0.14747 0.87866 0.65263 0.0
C1874 C 0.83014 0.13559 0.62593 0.0
C1875 C 0.83385 0.11306 0.62433 0.0
C1876 C 0.84154 0.14964 0.64365 0.0
C1877 C 0.88199 0.15097 0.69914 0.0
H1878 H 0.89752 0.19659 0.63802 0.0
C1879 C 0.94881 0.20113 0.71199 0.0
C1880 C 0.95881 0.20143 0.68209 0.0
C1881 C 0.93116 0.19312 0.71229 0.0
C1882 C 0.89322 0.18408 0.65556 0.0
H1883 H 0.85114 0.08716 0.64237 0.0
H1884 H 0.87109 0.11149 0.67272 0.0
H1885 H 0.86924 0.17784 0.62831 0.0
H1886 H 0.95857 0.19229 0.62968 0.0
H1887 H 0.92794 0.17867 0.63016 0.0
H1888 H 0.9068 0.15638 0.72496 0.0
C1889 C 0.85943 0.1185 0.66072 0.0
C1890 C 0.87689 0.1735 0.65027 0.0
C1891 C 0.84809 0.10453 0.64302 0.0
C1892 C 0.95107 0.19284 0.65291 0.0
C1893 C 0.93351 0.18508 0.65316 0.0
C1894 C 0.89838 0.16163 0.70446 0.0
C1895 C 0.85678 0.14132 0.66001 0.0
C1896 C 0.87146 0.15613 0.67109 0.0
C1897 C 0.92326 0.18548 0.68264 0.0
C1898 C 0.90449 0.17755 0.68176 0.0
H1899 H 0.81913 0.14252 0.61185 0.0
H1900 H 0.83899 0.16713 0.64304 0.0
H1901 H 0.87803 0.13786 0.7159 0.0
H1902 H 0.95442 0.2077 0.73485 0.0
H1903 H 0.92354 0.19343 0.73539 0.0
C1904 C 0.70246 0.10919 0.47184 0.0
C1905 C 0.70431 0.08681 0.46422 0.0
C1906 C 0.68552 0.1183 0.47691 0.0
C1907 C 0.63966 0.1091 0.44834 0.0
H1908 H 0.63244 0.16432 0.4946 0.0
C1909 C 0.58453 0.16898 0.40795 0.0
C1910 C 0.59295 0.18816 0.39636 0.0
C1911 C 0.59378 0.15458 0.42899 0.0
C1912 C 0.63408 0.14869 0.48204 0.0
H1913 H 0.68998 0.05605 0.45882 0.0
H1914 H 0.66027 0.07194 0.46806 0.0
H1915 H 0.65752 0.14078 0.5102 0.0
H1916 H 0.61681 0.20837 0.39947 0.0
H1917 H 0.63272 0.1837 0.43682 0.0
H1918 H 0.61669 0.11757 0.41917 0.0
C1919 C 0.67192 0.08254 0.46944 0.0
C1920 C 0.6485 0.13528 0.49075 0.0
C1921 C 0.68892 0.07342 0.46417 0.0
C1922 C 0.61009 0.19362 0.40806 0.0
C1923 C 0.61912 0.17958 0.42964 0.0
C1924 C 0.62511 0.12239 0.43995 0.0
C1925 C 0.66997 0.10525 0.47462 0.0
C1926 C 0.65208 0.11598 0.47261 0.0
C1927 C 0.61134 0.15955 0.43935 0.0
C1928 C 0.62281 0.14286 0.45544 0.0
H1929 H 0.71399 0.12005 0.4716 0.0
H1930 H 0.68463 0.13589 0.48023 0.0
H1931 H 0.64198 0.09445 0.43365 0.0
H1932 H 0.57131 0.16446 0.39906 0.0
H1933 H 0.58755 0.13918 0.43605 0.0
C1934 C 0.28661 0.95376 0.4867 0.0
C1935 C 0.28093 0.95727 0.45364 0.0
C1936 C 0.30373 0.94519 0.4931 0.0
C1937 C 0.34787 0.9362 0.45182 0.0
H1938 H 0.35176 0.8853 0.50919 0.0
C1939 C 0.40567 0.87885 0.42935 0.0
C1940 C 0.3999 0.85706 0.42582 0.0
C1941 C 0.39525 0.89389 0.4473 0.0
C1942 C 0.35097 0.89955 0.49315 0.0
H1943 H 0.28848 0.95361 0.40148 0.0
H1944 H 0.31797 0.93901 0.41251 0.0
H1945 H 0.32442 0.90724 0.5103 0.0
H1946 H 0.37999 0.83319 0.4414 0.0
H1947 H 0.36144 0.85931 0.47106 0.0
H1948 H 0.37342 0.92767 0.43215 0.0
C1949 C 0.30957 0.94345 0.43361 0.0
C1950 C 0.33535 0.91229 0.49412 0.0
C1951 C 0.2926 0.95184 0.42727 0.0
C1952 C 0.38468 0.84997 0.44353 0.0
C1953 C 0.37406 0.86506 0.46082 0.0
C1954 C 0.36331 0.92339 0.45051 0.0
C1955 C 0.31542 0.94009 0.46653 0.0
C1956 C 0.3333 0.93005 0.47212 0.0
C1957 C 0.37863 0.8875 0.46121 0.0
C1958 C 0.36472 0.90419 0.46988 0.0
H1959 H 0.2779 0.95776 0.50754 0.0
H1960 H 0.30784 0.94266 0.51873 0.0
H1961 H 0.34685 0.95015 0.43517 0.0
H1962 H 0.41754 0.88462 0.41632 0.0
H1963 H 0.39959 0.91084 0.44812 0.0
C1964 C 0.54457 0.35833 0.70117 0.0
C1965 C 0.53354 0.36243 0.67348 0.0
C1966 C 0.5611 0.36908 0.70428 0.0
C1967 C 0.58645 0.41725 0.67503 0.0
H1968 H 0.62882 0.38082 0.68322 0.0
C1969 C 0.66124 0.42168 0.62201 0.0
C1970 C 0.66404 0.44425 0.62646 0.0
C1971 C 0.64745 0.41102 0.63948 0.0
C1972 C 0.61712 0.39123 0.68126 0.0
H1973 H 0.53064 0.38143 0.62814 0.0
H1974 H 0.55931 0.40045 0.63377 0.0
H1975 H 0.599 0.3645 0.69059 0.0
H1976 H 0.65641 0.47284 0.65529 0.0
H1977 H 0.6328 0.45412 0.68663 0.0
H1978 H 0.60422 0.44368 0.66382 0.0
C1979 C 0.55528 0.38894 0.65302 0.0
C1980 C 0.60008 0.38194 0.68572 0.0
C1981 C 0.53894 0.378 0.64967 0.0
C1982 C 0.65433 0.45544 0.65124 0.0
C1983 C 0.64075 0.44475 0.66898 0.0
C1984 C 0.6034 0.42653 0.67076 0.0
C1985 C 0.56664 0.38436 0.68006 0.0
C1986 C 0.58459 0.39475 0.6815 0.0
C1987 C 0.63643 0.42279 0.66181 0.0
C1988 C 0.61893 0.41352 0.67279 0.0
H1989 H 0.5407 0.34625 0.7197 0.0
H1990 H 0.56961 0.36531 0.72538 0.0
H1991 H 0.57472 0.42751 0.67193 0.0
H1992 H 0.66853 0.41275 0.6029 0.0
H1993 H 0.64447 0.3941 0.63328 0.0
C1994 C 0.36429 0.6014 0.66633 0.0
C1995 C 0.34589 0.60409 0.66061 0.0
C1996 C 0.37344 0.6156 0.68753 0.0
C1997 C 0.3904 0.64512 0.7385 0.0
H1998 H 0.38436 0.70456 0.70625 0.0
C1999 C 0.44801 0.70773 0.74643 0.0
C2000 C 0.45221 0.71567 0.71428 0.0
C2001 C 0.43136 0.69777 0.75284 0.0
C2002 C 0.38605 0.68814 0.71607 0.0
H2003 H 0.32229 0.62286 0.67382 0.0
H2004 H 0.33851 0.64841 0.71064 0.0
H2005 H 0.36113 0.67731 0.69546 0.0
H2006 H 0.44177 0.71962 0.66395 0.0
H2007 H 0.41305 0.70308 0.67532 0.0
H2008 H 0.4161 0.65543 0.75628 0.0
C2009 C 0.34578 0.6351 0.69886 0.0
C2010 C 0.37266 0.67255 0.71015 0.0
C2011 C 0.33651 0.62053 0.6779 0.0
C2012 C 0.43902 0.71437 0.6893 0.0
C2013 C 0.42241 0.70478 0.6958 0.0
C2014 C 0.40381 0.66069 0.74437 0.0
C2015 C 0.36445 0.63305 0.70324 0.0
C2016 C 0.37524 0.65056 0.71943 0.0
C2017 C 0.41852 0.69586 0.72734 0.0
C2018 C 0.40225 0.68199 0.7313 0.0
H2019 H 0.3718 0.58874 0.65342 0.0
H2020 H 0.38784 0.61373 0.68983 0.0
H2021 H 0.39259 0.62835 0.74647 0.0
H2022 H 0.45774 0.70867 0.76641 0.0
H2023 H 0.42872 0.69104 0.77741 0.0
C2024 C 0.59865 0.69051 0.88861 0.0
C2025 C 0.58501 0.68138 0.86894 0.0
C2026 C 0.61063 0.67702 0.90551 0.0
C2027 C 0.63122 0.62445 0.88991 0.0
H2028 H 0.6607 0.64209 0.96501 0.0
C2029 C 0.70654 0.61356 0.88803 0.0
C2030 C 0.71529 0.6052 0.91628 0.0
C2031 C 0.68848 0.6192 0.88954 0.0
C2032 C 0.65245 0.63666 0.94436 0.0
H2033 H 0.5719 0.65119 0.85412 0.0
H2034 H 0.59291 0.62737 0.88387 0.0
H2035 H 0.63061 0.65749 0.95873 0.0
H2036 H 0.71211 0.59699 0.96871 0.0
H2037 H 0.68035 0.60749 0.97153 0.0
H2038 H 0.65327 0.60436 0.87479 0.0
C2039 C 0.59449 0.64499 0.88588 0.0
C2040 C 0.63527 0.64554 0.94065 0.0
C2041 C 0.58242 0.65858 0.86899 0.0
C2042 C 0.70573 0.60351 0.94658 0.0
C2043 C 0.68758 0.60936 0.94816 0.0
C2044 C 0.64832 0.61563 0.89362 0.0
C2045 C 0.60924 0.65407 0.90297 0.0
C2046 C 0.62483 0.64032 0.91248 0.0
C2047 C 0.67872 0.61679 0.9194 0.0
C2048 C 0.65942 0.62247 0.91993 0.0
H2049 H 0.60081 0.7081 0.88919 0.0
H2050 H 0.62185 0.68464 0.91815 0.0
H2051 H 0.62365 0.62012 0.86782 0.0
H2052 H 0.71364 0.61551 0.86453 0.0
H2053 H 0.68212 0.6255 0.86723 0.0
C2054 C 0.39251 0.37438 0.87578 0.0
C2055 C 0.40148 0.35606 0.88852 0.0
C2056 C 0.38256 0.3879 0.89678 0.0
C2057 C 0.35521 0.38473 0.97117 0.0
H2058 H 0.34895 0.4463 0.95026 0.0
C2059 C 0.28651 0.42541 0.96878 0.0
C2060 C 0.28507 0.44834 0.96995 0.0
C2061 C 0.30319 0.41533 0.97255 0.0
C2062 C 0.35061 0.4293 0.95741 0.0
H2063 H 0.40782 0.3378 0.9333 0.0
H2064 H 0.38988 0.36146 0.97055 0.0
H2065 H 0.37577 0.42753 0.93177 0.0
H2066 H 0.2994 0.47863 0.97906 0.0
H2067 H 0.32846 0.46105 0.98735 0.0
H2068 H 0.32982 0.38638 0.99626 0.0
C2069 C 0.39075 0.3654 0.94421 0.0
C2070 C 0.366 0.41847 0.94641 0.0
C2071 C 0.40105 0.35197 0.92304 0.0
C2072 C 0.30027 0.46091 0.97775 0.0
C2073 C 0.31691 0.45081 0.98222 0.0
C2074 C 0.33984 0.39565 0.98258 0.0
C2075 C 0.38114 0.38329 0.93109 0.0
C2076 C 0.36796 0.3958 0.95143 0.0
C2077 C 0.31877 0.42796 0.97805 0.0
C2078 C 0.33687 0.41779 0.97418 0.0
H2079 H 0.39266 0.37787 0.84922 0.0
H2080 H 0.37511 0.40127 0.88568 0.0
H2081 H 0.35635 0.36726 0.97558 0.0
H2082 H 0.27497 0.41539 0.96254 0.0
H2083 H 0.30397 0.39778 0.9687 0.0
C2084 C 0.53328 0.84339 0.20598 0.0
C2085 C 0.52418 0.84336 0.17521 0.0
C2086 C 0.55078 0.85166 0.20814 0.0
C2087 C 0.59031 0.86205 0.15574 0.0
H2088 H 0.60188 0.90964 0.2163 0.0
C2089 C 0.65073 0.91485 0.12734 0.0
C2090 C 0.64556 0.93688 0.12448 0.0
C2091 C 0.64021 0.90019 0.14584 0.0
C2092 C 0.59896 0.89613 0.19957 0.0
H2093 H 0.52594 0.85303 0.12313 0.0
H2094 H 0.55641 0.86703 0.12681 0.0
H2095 H 0.57364 0.88952 0.22325 0.0
H2096 H 0.62663 0.96149 0.1413 0.0
H2097 H 0.60811 0.93603 0.17282 0.0
H2098 H 0.61473 0.86951 0.13036 0.0
C2099 C 0.55018 0.86028 0.14907 0.0
C2100 C 0.58287 0.88457 0.20368 0.0
C2101 C 0.53273 0.8523 0.14699 0.0
C2102 C 0.63078 0.94449 0.14286 0.0
C2103 C 0.62027 0.92989 0.16126 0.0
C2104 C 0.60634 0.87353 0.15164 0.0
C2105 C 0.55947 0.85975 0.17949 0.0
C2106 C 0.57804 0.86822 0.18068 0.0
C2107 C 0.62436 0.90738 0.1616 0.0
C2108 C 0.61041 0.89146 0.17242 0.0
H2109 H 0.52708 0.83648 0.22812 0.0
H2110 H 0.55768 0.85124 0.23191 0.0
H2111 H 0.58697 0.84924 0.13803 0.0
H2112 H 0.66223 0.90868 0.11364 0.0
H2113 H 0.64387 0.883 0.1461 0.0
C2114 C 0.45076 0.16017 0.17195 0.0
C2115 C 0.45908 0.17618 0.19173 0.0
C2116 C 0.4346 0.15071 0.18219 0.0
C2117 C 0.39395 0.16366 0.22518 0.0
H2118 H 0.3846 0.10165 0.21207 0.0
C2119 C 0.33498 0.09644 0.19121 0.0
C2120 C 0.32961 0.10726 0.162 0.0
C2121 C 0.34772 0.10616 0.21219 0.0
C2122 C 0.38692 0.11891 0.21695 0.0
H2123 H 0.45731 0.19483 0.23773 0.0
H2124 H 0.42852 0.17868 0.25523 0.0
H2125 H 0.41541 0.11479 0.21465 0.0
H2126 H 0.33111 0.13757 0.13402 0.0
H2127 H 0.35294 0.15467 0.17064 0.0
H2128 H 0.36542 0.168 0.22467 0.0
C2129 C 0.43472 0.17323 0.23215 0.0
C2130 C 0.40459 0.12643 0.21805 0.0
C2131 C 0.45112 0.1824 0.22219 0.0
C2132 C 0.33517 0.12892 0.1564 0.0
C2133 C 0.34762 0.13875 0.17755 0.0
C2134 C 0.37622 0.15615 0.22377 0.0
C2135 C 0.42632 0.15736 0.21215 0.0
C2136 C 0.40822 0.14897 0.22038 0.0
C2137 C 0.35495 0.12688 0.20432 0.0
C2138 C 0.37257 0.13385 0.21776 0.0
H2139 H 0.45671 0.1551 0.14844 0.0
H2140 H 0.42824 0.13875 0.16605 0.0
H2141 H 0.39643 0.18113 0.22705 0.0
H2142 H 0.33083 0.07967 0.19595 0.0
H2143 H 0.35304 0.09674 0.23283 0.0
loop_
_geom_bond_atom_site_label_1
_geom_bond_atom_site_label_2
_geom_bond_distance
_geom_bond_site_symmetry_2
_ccdc_geom_bond_type
O0 Tb1 2.292 . S
O0 C3 1.255 . S
Tb1 O0 2.292 . S
Tb1 O17 2.326 . S
Tb1 O19 2.500 . S
Tb1 O20 2.473 . S
Tb1 O23 2.324 1_554 S
Eu2 O6 2.292 . S
Eu2 C7 2.852 1_554 S
Eu2 O18 2.324 . S
Eu2 O22 2.326 1_554 S
Eu2 O24 2.500 1_554 S
Eu2 O25 2.491 . S
C3 O0 1.255 . S
C3 O4 1.247 . S
O4 C3 1.247 . S
C5 O17 1.242 . S
C5 O18 1.258 . S
O6 Eu2 2.292 . S
O6 C8 1.255 . S
C7 Eu2 2.852 1_556 S
C7 C11 1.503 . S
C7 O24 1.273 . S
C7 O25 1.235 1_556 S
C8 O6 1.255 . S
C8 O9 1.247 . S
O9 C8 1.247 . S
C10 O22 1.242 . S
C10 O23 1.258 . S
C11 C7 1.503 . S
C11 C12 1.379 . S
C11 C16 1.392 . S
C12 C11 1.379 . S
C12 C13 1.404 . S
C12 H26 0.929 . S
C13 C12 1.404 . S
C13 C14 1.389 . S
C14 C13 1.389 . S
C14 C15 1.399 . S
C14 H27 0.931 . S
C15 C14 1.399 . S
C15 C16 1.390 . S
C16 C11 1.392 . S
C16 C15 1.390 . S
C16 H28 0.929 . S
O17 Tb1 2.326 . S
O17 C5 1.242 . S
O18 Eu2 2.324 . S
O18 C5 1.258 . S
O19 Tb1 2.500 . S
O19 C21 1.273 . S
O20 Tb1 2.473 . S
O20 C21 1.257 . S
C21 O19 1.273 . S
C21 O20 1.257 . S
O22 Eu2 2.326 1_556 S
O22 C10 1.242 . S
O23 Tb1 2.324 1_556 S
O23 C10 1.258 . S
O24 Eu2 2.500 1_556 S
O24 C7 1.273 . S
O25 Eu2 2.491 . S
O25 C7 1.235 1_554 S
H26 C12 0.929 . S
H27 C14 0.931 . S
H28 C16 0.929 . S
O29 Tb30 2.292 . S
O29 C32 1.255 . S
Tb30 O29 2.292 . S
Tb30 O46 2.326 . S
Tb30 O48 2.500 . S
Tb30 O49 2.473 . S
Tb30 O52 2.324 1_554 S
Eu31 O35 2.292 . S
Eu31 C36 2.852 1_554 S
Eu31 O47 2.324 . S
Eu31 O51 2.326 1_554 S
Eu31 O53 2.500 1_554 S
Eu31 O54 2.491 . S
C32 O29 1.255 . S
C32 O33 1.247 . S
O33 C32 1.247 . S
C34 O46 1.242 . S
C34 O47 1.258 . S
O35 Eu31 2.292 . S
O35 C37 1.255 . S
C36 Eu31 2.852 1_556 S
C36 C40 1.503 . S
C36 O53 1.273 . S
C36 O54 1.235 1_556 S
C37 O35 1.255 . S
C37 O38 1.247 . S
O38 C37 1.247 . S
C39 O51 1.242 . S
C39 O52 1.258 . S
C40 C36 1.503 . S
C40 C41 1.379 . S
C40 C45 1.392 . S
C41 C40 1.379 . S
C41 C42 1.404 . S
C41 H55 0.929 . S
C42 C41 1.404 . S
C42 C43 1.389 . S
C43 C42 1.389 . S
C43 C44 1.399 . S
C43 H56 0.931 . S
C44 C43 1.399 . S
C44 C45 1.390 . S
C45 C40 1.392 . S
C45 C44 1.390 . S
C45 H57 0.929 . S
O46 Tb30 2.326 . S
O46 C34 1.242 . S
O47 Eu31 2.324 . S
O47 C34 1.258 . S
O48 Tb30 2.500 . S
O48 C50 1.273 . S
O49 Tb30 2.473 . S
O49 C50 1.257 . S
C50 O48 1.273 . S
C50 O49 1.257 . S
O51 Eu31 2.326 1_556 S
O51 C39 1.242 . S
O52 Tb30 2.324 1_556 S
O52 C39 1.258 . S
O53 Eu31 2.500 1_556 S
O53 C36 1.273 . S
O54 Eu31 2.491 . S
O54 C36 1.235 1_554 S
H55 C41 0.929 . S
H56 C43 0.931 . S
H57 C45 0.929 . S
O58 Tb59 2.292 . S
O58 C61 1.255 . S
Tb59 O58 2.292 . S
Tb59 O75 2.326 . S
Tb59 O77 2.500 . S
Tb59 O78 2.473 . S
Tb59 O81 2.324 . S
Eu60 O64 2.292 . S
Eu60 C65 2.852 . S
Eu60 O76 2.324 . S
Eu60 O80 2.326 . S
Eu60 O82 2.500 . S
Eu60 O83 2.473 . S
C61 O58 1.255 . S
C61 O62 1.247 . S
O62 C61 1.247 . S
C63 O75 1.242 . S
C63 O76 1.258 . S
O64 Eu60 2.292 . S
O64 C66 1.255 . S
C65 Eu60 2.852 . S
C65 C69 1.503 . S
C65 O82 1.273 . S
C65 O83 1.257 . S
C66 O64 1.255 . S
C66 O67 1.247 . S
O67 C66 1.247 . S
C68 O80 1.242 . S
C68 O81 1.258 . S
C69 C65 1.503 . S
C69 C70 1.379 . S
C69 C74 1.392 1_655 S
C70 C69 1.379 . S
C70 C71 1.404 . S
C70 H84 0.929 . S
C71 C70 1.404 . S
C71 C72 1.389 1_655 S
C72 C71 1.389 1_455 S
C72 C73 1.399 . S
C72 H85 0.931 . S
C73 C72 1.399 . S
C73 C74 1.390 . S
C74 C69 1.392 1_455 S
C74 C73 1.390 . S
C74 H86 0.929 . S
O75 Tb59 2.326 . S
O75 C63 1.242 . S
O76 Eu60 2.324 . S
O76 C63 1.258 . S
O77 Tb59 2.500 . S
O77 C79 1.273 . S
O78 Tb59 2.473 . S
O78 C79 1.257 . S
C79 O77 1.273 . S
C79 O78 1.257 . S
O80 Eu60 2.326 . S
O80 C68 1.242 . S
O81 Tb59 2.324 . S
O81 C68 1.258 . S
O82 Eu60 2.500 . S
O82 C65 1.273 . S
O83 Eu60 2.473 . S
O83 C65 1.257 . S
H84 C70 0.929 . S
H85 C72 0.931 . S
H86 C74 0.929 . S
O87 Tb88 2.292 . S
O87 C90 1.255 . S
Tb88 O87 2.292 . S
Tb88 O104 2.326 . S
Tb88 O106 2.500 . S
Tb88 O107 2.473 . S
Tb88 O110 2.324 . S
Eu89 O93 2.292 . S
Eu89 C94 2.852 . S
Eu89 O105 2.324 . S
Eu89 O109 2.326 . S
Eu89 O111 2.500 . S
Eu89 O112 2.473 . S
C90 O87 1.255 . S
C90 O91 1.247 . S
O91 C90 1.247 . S
C92 O104 1.242 . S
C92 O105 1.258 . S
O93 Eu89 2.292 . S
O93 C95 1.255 . S
C94 Eu89 2.852 . S
C94 C98 1.503 . S
C94 O111 1.273 . S
C94 O112 1.257 . S
C95 O93 1.255 . S
C95 O96 1.247 . S
O96 C95 1.247 . S
C97 O109 1.242 . S
C97 O110 1.258 . S
C98 C94 1.503 . S
C98 C99 1.379 . S
C98 C103 1.392 1_455 S
C99 C98 1.379 . S
C99 C100 1.404 . S
C99 H113 0.929 . S
C100 C99 1.404 . S
C100 C101 1.389 1_455 S
C101 C100 1.389 1_655 S
C101 C102 1.399 . S
C101 H114 0.931 . S
C102 C101 1.399 . S
C102 C103 1.390 . S
C103 C98 1.392 1_655 S
C103 C102 1.390 . S
C103 H115 0.929 . S
O104 Tb88 2.326 . S
O104 C92 1.242 . S
O105 Eu89 2.324 . S
O105 C92 1.258 . S
O106 Tb88 2.500 . S
O106 C108 1.273 . S
O107 Tb88 2.473 . S
O107 C108 1.257 . S
C108 O106 1.273 . S
C108 O107 1.257 . S
O109 Eu89 2.326 . S
O109 C97 1.242 . S
O110 Tb88 2.324 . S
O110 C97 1.258 . S
O111 Eu89 2.500 . S
O111 C94 1.273 . S
O112 Eu89 2.473 . S
O112 C94 1.257 . S
H113 C99 0.929 . S
H114 C101 0.931 . S
H115 C103 0.929 . S
O116 Tb117 2.292 . S
O116 C119 1.255 . S
Tb117 O116 2.292 . S
Tb117 O133 2.326 . S
Tb117 O135 2.500 . S
Tb117 O136 2.473 . S
Tb117 O139 2.324 . S
Eu118 O122 2.292 . S
Eu118 C123 2.852 . S
Eu118 O134 2.324 . S
Eu118 O138 2.326 . S
Eu118 O140 2.500 . S
Eu118 O141 2.473 . S
C119 O116 1.255 . S
C119 O120 1.247 . S
O120 C119 1.247 . S
C121 O133 1.242 . S
C121 O134 1.258 . S
O122 Eu118 2.292 . S
O122 C124 1.255 . S
C123 Eu118 2.852 . S
C123 C127 1.503 . S
C123 O140 1.273 . S
C123 O141 1.257 . S
C124 O122 1.255 . S
C124 O125 1.247 . S
O125 C124 1.247 . S
C126 O138 1.242 . S
C126 O139 1.258 . S
C127 C123 1.503 . S
C127 C128 1.379 . S
C127 C132 1.392 . S
C128 C127 1.379 . S
C128 C129 1.404 . S
C128 H142 0.929 . S
C129 C128 1.404 . S
C129 C130 1.389 . S
C130 C129 1.389 . S
C130 C131 1.399 . S
C130 H143 0.931 . S
C131 C130 1.399 . S
C131 C132 1.390 . S
C132 C127 1.392 . S
C132 C131 1.390 . S
C132 H144 0.929 . S
O133 Tb117 2.326 . S
O133 C121 1.242 . S
O134 Eu118 2.324 . S
O134 C121 1.258 . S
O135 Tb117 2.500 . S
O135 C137 1.273 . S
O136 Tb117 2.473 . S
O136 C137 1.257 . S
C137 O135 1.273 . S
C137 O136 1.257 . S
O138 Eu118 2.326 . S
O138 C126 1.242 . S
O139 Tb117 2.324 . S
O139 C126 1.258 . S
O140 Eu118 2.500 . S
O140 C123 1.273 . S
O141 Eu118 2.473 . S
O141 C123 1.257 . S
H142 C128 0.929 . S
H143 C130 0.931 . S
H144 C132 0.929 . S
O145 Tb146 2.292 . S
O145 C148 1.255 . S
Tb146 O145 2.292 . S
Tb146 O162 2.326 . S
Tb146 O164 2.500 . S
Tb146 O165 2.473 . S
Tb146 O168 2.324 . S
Eu147 O151 2.292 . S
Eu147 C152 2.852 . S
Eu147 O163 2.324 . S
Eu147 O167 2.326 . S
Eu147 O169 2.500 . S
Eu147 O170 2.473 . S
C148 O145 1.255 . S
C148 O149 1.247 . S
O149 C148 1.247 . S
C150 O162 1.242 . S
C150 O163 1.258 . S
O151 Eu147 2.292 . S
O151 C153 1.255 . S
C152 Eu147 2.852 . S
C152 C156 1.503 . S
C152 O169 1.273 . S
C152 O170 1.257 . S
C153 O151 1.255 . S
C153 O154 1.247 . S
O154 C153 1.247 . S
C155 O167 1.242 . S
C155 O168 1.258 . S
C156 C152 1.503 . S
C156 C157 1.379 . S
C156 C161 1.392 . S
C157 C156 1.379 . S
C157 C158 1.404 . S
C157 H171 0.929 . S
C158 C157 1.404 . S
C158 C159 1.389 . S
C159 C158 1.389 . S
C159 C160 1.399 . S
C159 H172 0.931 . S
C160 C159 1.399 . S
C160 C161 1.390 . S
C161 C156 1.392 . S
C161 C160 1.390 . S
C161 H173 0.929 . S
O162 Tb146 2.326 . S
O162 C150 1.242 . S
O163 Eu147 2.324 . S
O163 C150 1.258 . S
O164 Tb146 2.500 . S
O164 C166 1.273 . S
O165 Tb146 2.473 . S
O165 C166 1.257 . S
C166 O164 1.273 . S
C166 O165 1.257 . S
O167 Eu147 2.326 . S
O167 C155 1.242 . S
O168 Tb146 2.324 . S
O168 C155 1.258 . S
O169 Eu147 2.500 . S
O169 C152 1.273 . S
O170 Eu147 2.473 . S
O170 C152 1.257 . S
H171 C157 0.929 . S
H172 C159 0.931 . S
H173 C161 0.929 . S
O174 Tb175 2.292 . S
O174 C177 1.255 . S
Tb175 O174 2.292 . S
Tb175 O191 2.326 . S
Tb175 O193 2.500 . S
Tb175 O194 2.473 . S
Tb175 O197 2.324 . S
Eu176 O180 2.292 . S
Eu176 C181 2.852 . S
Eu176 O192 2.324 . S
Eu176 O196 2.326 . S
Eu176 O198 2.500 . S
Eu176 O199 2.473 . S
C177 O174 1.255 . S
C177 O178 1.247 . S
O178 C177 1.247 . S
C179 O191 1.242 . S
C179 O192 1.258 . S
O180 Eu176 2.292 . S
O180 C182 1.255 . S
C181 Eu176 2.852 . S
C181 C185 1.503 . S
C181 O198 1.273 . S
C181 O199 1.257 . S
C182 O180 1.255 . S
C182 O183 1.247 . S
O183 C182 1.247 . S
C184 O196 1.242 . S
C184 O197 1.258 . S
C185 C181 1.503 . S
C185 C186 1.379 . S
C185 C190 1.392 1_655 S
C186 C185 1.379 . S
C186 C187 1.404 . S
C186 H200 0.929 . S
C187 C186 1.404 . S
C187 C188 1.389 1_655 S
C188 C187 1.389 1_455 S
C188 C189 1.399 . S
C188 H201 0.931 . S
C189 C188 1.399 . S
C189 C190 1.390 . S
C190 C185 1.392 1_455 S
C190 C189 1.390 . S
C190 H202 0.929 . S
O191 Tb175 2.326 . S
O191 C179 1.242 . S
O192 Eu176 2.324 . S
O192 C179 1.258 . S
O193 Tb175 2.500 . S
O193 C195 1.273 . S
O194 Tb175 2.473 . S
O194 C195 1.257 . S
C195 O193 1.273 . S
C195 O194 1.257 . S
O196 Eu176 2.326 . S
O196 C184 1.242 . S
O197 Tb175 2.324 . S
O197 C184 1.258 . S
O198 Eu176 2.500 . S
O198 C181 1.273 . S
O199 Eu176 2.473 . S
O199 C181 1.257 . S
H200 C186 0.929 . S
H201 C188 0.931 . S
H202 C190 0.929 . S
O203 Tb204 2.292 . S
O203 C206 1.255 . S
Tb204 O203 2.292 . S
Tb204 O220 2.326 . S
Tb204 O222 2.500 . S
Tb204 O223 2.473 . S
Tb204 O226 2.324 . S
Eu205 O209 2.292 . S
Eu205 C210 2.852 . S
Eu205 O221 2.324 . S
Eu205 O225 2.326 . S
Eu205 O227 2.500 . S
Eu205 O228 2.473 . S
C206 O203 1.255 . S
C206 O207 1.247 . S
O207 C206 1.247 . S
C208 O220 1.242 . S
C208 O221 1.258 . S
O209 Eu205 2.292 . S
O209 C211 1.255 . S
C210 Eu205 2.852 . S
C210 C214 1.503 . S
C210 O227 1.273 . S
C210 O228 1.257 . S
C211 O209 1.255 . S
C211 O212 1.247 . S
O212 C211 1.247 . S
C213 O225 1.242 . S
C213 O226 1.258 . S
C214 C210 1.503 . S
C214 C215 1.379 . S
C214 C219 1.392 1_455 S
C215 C214 1.379 . S
C215 C216 1.404 . S
C215 H229 0.929 . S
C216 C215 1.404 . S
C216 C217 1.389 1_455 S
C217 C216 1.389 1_655 S
C217 C218 1.399 . S
C217 H230 0.931 . S
C218 C217 1.399 . S
C218 C219 1.390 . S
C219 C214 1.392 1_655 S
C219 C218 1.390 . S
C219 H231 0.929 . S
O220 Tb204 2.326 . S
O220 C208 1.242 . S
O221 Eu205 2.324 . S
O221 C208 1.258 . S
O222 Tb204 2.500 . S
O222 C224 1.273 . S
O223 Tb204 2.473 . S
O223 C224 1.257 . S
C224 O222 1.273 . S
C224 O223 1.257 . S
O225 Eu205 2.326 . S
O225 C213 1.242 . S
O226 Tb204 2.324 . S
O226 C213 1.258 . S
O227 Eu205 2.500 . S
O227 C210 1.273 . S
O228 Eu205 2.473 . S
O228 C210 1.257 . S
H229 C215 0.929 . S
H230 C217 0.931 . S
H231 C219 0.929 . S
O232 Tb233 2.292 . S
O232 C235 1.255 . S
Tb233 O232 2.292 . S
Tb233 O249 2.326 . S
Tb233 O251 2.500 . S
Tb233 O252 2.473 . S
Tb233 O255 2.324 . S
Eu234 O238 2.292 . S
Eu234 C239 2.852 . S
Eu234 O250 2.324 . S
Eu234 O254 2.326 . S
Eu234 O256 2.500 . S
Eu234 O257 2.473 . S
C235 O232 1.255 . S
C235 O236 1.247 . S
O236 C235 1.247 . S
C237 O249 1.242 . S
C237 O250 1.258 . S
O238 Eu234 2.292 . S
O238 C240 1.255 . S
C239 Eu234 2.852 . S
C239 C243 1.503 . S
C239 O256 1.273 . S
C239 O257 1.257 . S
C240 O238 1.255 . S
C240 O241 1.247 . S
O241 C240 1.247 . S
C242 O254 1.242 . S
C242 O255 1.258 . S
C243 C239 1.503 . S
C243 C244 1.379 . S
C243 C248 1.392 . S
C244 C243 1.379 . S
C244 C245 1.404 . S
C244 H258 0.929 . S
C245 C244 1.404 . S
C245 C246 1.389 . S
C246 C245 1.389 . S
C246 C247 1.399 . S
C246 H259 0.931 . S
C247 C246 1.399 . S
C247 C248 1.390 . S
C248 C243 1.392 . S
C248 C247 1.390 . S
C248 H260 0.929 . S
O249 Tb233 2.326 . S
O249 C237 1.242 . S
O250 Eu234 2.324 . S
O250 C237 1.258 . S
O251 Tb233 2.500 . S
O251 C253 1.273 . S
O252 Tb233 2.473 . S
O252 C253 1.257 . S
C253 O251 1.273 . S
C253 O252 1.257 . S
O254 Eu234 2.326 . S
O254 C242 1.242 . S
O255 Tb233 2.324 . S
O255 C242 1.258 . S
O256 Eu234 2.500 . S
O256 C239 1.273 . S
O257 Eu234 2.473 . S
O257 C239 1.257 . S
H258 C244 0.929 . S
H259 C246 0.931 . S
H260 C248 0.929 . S
O261 Tb262 2.292 . S
O261 C264 1.255 . S
Tb262 O261 2.292 . S
Tb262 O278 2.326 . S
Tb262 O280 2.500 . S
Tb262 O281 2.473 . S
Tb262 O284 2.324 . S
Eu263 O267 2.292 . S
Eu263 C268 2.852 . S
Eu263 O279 2.324 . S
Eu263 O283 2.326 . S
Eu263 O285 2.500 . S
Eu263 O286 2.473 . S
C264 O261 1.255 . S
C264 O265 1.247 . S
O265 C264 1.247 . S
C266 O278 1.242 . S
C266 O279 1.258 . S
O267 Eu263 2.292 . S
O267 C269 1.255 . S
C268 Eu263 2.852 . S
C268 C272 1.503 . S
C268 O285 1.273 . S
C268 O286 1.257 . S
C269 O267 1.255 . S
C269 O270 1.247 . S
O270 C269 1.247 . S
C271 O283 1.242 . S
C271 O284 1.258 . S
C272 C268 1.503 . S
C272 C273 1.379 . S
C272 C277 1.392 . S
C273 C272 1.379 . S
C273 C274 1.404 . S
C273 H287 0.929 . S
C274 C273 1.404 . S
C274 C275 1.389 . S
C275 C274 1.389 . S
C275 C276 1.399 . S
C275 H288 0.931 . S
C276 C275 1.399 . S
C276 C277 1.390 . S
C277 C272 1.392 . S
C277 C276 1.390 . S
C277 H289 0.929 . S
O278 Tb262 2.326 . S
O278 C266 1.242 . S
O279 Eu263 2.324 . S
O279 C266 1.258 . S
O280 Tb262 2.500 . S
O280 C282 1.273 . S
O281 Tb262 2.473 . S
O281 C282 1.257 . S
C282 O280 1.273 . S
C282 O281 1.257 . S
O283 Eu263 2.326 . S
O283 C271 1.242 . S
O284 Tb262 2.324 . S
O284 C271 1.258 . S
O285 Eu263 2.500 . S
O285 C268 1.273 . S
O286 Eu263 2.473 . S
O286 C268 1.257 . S
H287 C273 0.929 . S
H288 C275 0.931 . S
H289 C277 0.929 . S
O290 Tb291 2.292 . S
O290 C293 1.255 . S
Tb291 O290 2.292 . S
Tb291 O307 2.326 . S
Tb291 O309 2.500 . S
Tb291 O310 2.473 . S
Tb291 O313 2.324 . S
Eu292 O296 2.292 . S
Eu292 C297 2.852 . S
Eu292 O308 2.324 . S
Eu292 O312 2.326 . S
Eu292 O314 2.500 . S
Eu292 O315 2.473 . S
C293 O290 1.255 . S
C293 O294 1.247 . S
O294 C293 1.247 . S
C295 O307 1.242 . S
C295 O308 1.258 . S
O296 Eu292 2.292 . S
O296 C298 1.255 . S
C297 Eu292 2.852 . S
C297 C301 1.503 . S
C297 O314 1.273 . S
C297 O315 1.257 . S
C298 O296 1.255 . S
C298 O299 1.247 . S
O299 C298 1.247 . S
C300 O312 1.242 . S
C300 O313 1.258 . S
C301 C297 1.503 . S
C301 C302 1.379 . S
C301 C306 1.392 . S
C302 C301 1.379 . S
C302 C303 1.404 . S
C302 H316 0.929 . S
C303 C302 1.404 . S
C303 C304 1.389 . S
C304 C303 1.389 . S
C304 C305 1.399 . S
C304 H317 0.931 . S
C305 C304 1.399 . S
C305 C306 1.390 . S
C306 C301 1.392 . S
C306 C305 1.390 . S
C306 H318 0.929 . S
O307 Tb291 2.326 . S
O307 C295 1.242 . S
O308 Eu292 2.324 . S
O308 C295 1.258 . S
O309 Tb291 2.500 . S
O309 C311 1.273 . S
O310 Tb291 2.473 . S
O310 C311 1.257 . S
C311 O309 1.273 . S
C311 O310 1.257 . S
O312 Eu292 2.326 . S
O312 C300 1.242 . S
O313 Tb291 2.324 . S
O313 C300 1.258 . S
O314 Eu292 2.500 . S
O314 C297 1.273 . S
O315 Eu292 2.473 . S
O315 C297 1.257 . S
H316 C302 0.929 . S
H317 C304 0.931 . S
H318 C306 0.929 . S
O319 Tb320 2.292 . S
O319 C322 1.255 . S
Tb320 O319 2.292 . S
Tb320 O336 2.326 . S
Tb320 O338 2.500 . S
Tb320 O339 2.473 . S
Tb320 O342 2.324 . S
Eu321 O325 2.292 . S
Eu321 C326 2.852 . S
Eu321 O337 2.324 . S
Eu321 O341 2.326 . S
Eu321 O343 2.500 . S
Eu321 O344 2.473 . S
C322 O319 1.255 . S
C322 O323 1.247 . S
O323 C322 1.247 . S
C324 O336 1.242 . S
C324 O337 1.258 . S
O325 Eu321 2.292 . S
O325 C327 1.255 . S
C326 Eu321 2.852 . S
C326 C330 1.503 . S
C326 O343 1.273 . S
C326 O344 1.257 . S
C327 O325 1.255 . S
C327 O328 1.247 . S
O328 C327 1.247 . S
C329 O341 1.242 . S
C329 O342 1.258 . S
C330 C326 1.503 . S
C330 C331 1.379 . S
C330 C335 1.392 . S
C331 C330 1.379 . S
C331 C332 1.404 . S
C331 H345 0.929 . S
C332 C331 1.404 . S
C332 C333 1.389 . S
C333 C332 1.389 . S
C333 C334 1.399 . S
C333 H346 0.931 . S
C334 C333 1.399 . S
C334 C335 1.390 . S
C335 C330 1.392 . S
C335 C334 1.390 . S
C335 H347 0.929 . S
O336 Tb320 2.326 . S
O336 C324 1.242 . S
O337 Eu321 2.324 . S
O337 C324 1.258 . S
O338 Tb320 2.500 . S
O338 C340 1.273 . S
O339 Tb320 2.473 . S
O339 C340 1.257 . S
C340 O338 1.273 . S
C340 O339 1.257 . S
O341 Eu321 2.326 . S
O341 C329 1.242 . S
O342 Tb320 2.324 . S
O342 C329 1.258 . S
O343 Eu321 2.500 . S
O343 C326 1.273 . S
O344 Eu321 2.473 . S
O344 C326 1.257 . S
H345 C331 0.929 . S
H346 C333 0.931 . S
H347 C335 0.929 . S
O348 Tb349 2.292 . S
O348 C351 1.255 . S
Tb349 O348 2.292 . S
Tb349 O365 2.326 . S
Tb349 O367 2.500 . S
Tb349 O368 2.473 . S
Tb349 O371 2.324 1_554 S
Eu350 O354 2.292 . S
Eu350 C355 2.852 1_554 S
Eu350 O366 2.324 . S
Eu350 O370 2.326 1_554 S
Eu350 O372 2.500 1_554 S
Eu350 O373 2.491 . S
C351 O348 1.255 . S
C351 O352 1.247 . S
O352 C351 1.247 . S
C353 O365 1.242 . S
C353 O366 1.258 . S
O354 Eu350 2.292 . S
O354 C356 1.255 . S
C355 Eu350 2.852 1_556 S
C355 C359 1.503 . S
C355 O372 1.273 . S
C355 O373 1.235 1_556 S
C356 O354 1.255 . S
C356 O357 1.247 . S
O357 C356 1.247 . S
C358 O370 1.242 . S
C358 O371 1.258 . S
C359 C355 1.503 . S
C359 C360 1.379 . S
C359 C364 1.392 . S
C360 C359 1.379 . S
C360 C361 1.404 . S
C360 H374 0.929 . S
C361 C360 1.404 . S
C361 C362 1.389 . S
C362 C361 1.389 . S
C362 C363 1.399 . S
C362 H375 0.931 . S
C363 C362 1.399 . S
C363 C364 1.390 . S
C364 C359 1.392 . S
C364 C363 1.390 . S
C364 H376 0.929 . S
O365 Tb349 2.326 . S
O365 C353 1.242 . S
O366 Eu350 2.324 . S
O366 C353 1.258 . S
O367 Tb349 2.500 . S
O367 C369 1.273 . S
O368 Tb349 2.473 . S
O368 C369 1.257 . S
C369 O367 1.273 . S
C369 O368 1.257 . S
O370 Eu350 2.326 1_556 S
O370 C358 1.242 . S
O371 Tb349 2.324 1_556 S
O371 C358 1.258 . S
O372 Eu350 2.500 1_556 S
O372 C355 1.273 . S
O373 Eu350 2.491 . S
O373 C355 1.235 1_554 S
H374 C360 0.929 . S
H375 C362 0.931 . S
H376 C364 0.929 . S
O377 Tb378 2.292 . S
O377 C380 1.255 . S
Tb378 O377 2.292 . S
Tb378 O394 2.326 . S
Tb378 O396 2.500 . S
Tb378 O397 2.473 . S
Tb378 O400 2.324 1_554 S
Eu379 O383 2.292 . S
Eu379 C384 2.852 1_554 S
Eu379 O395 2.324 . S
Eu379 O399 2.326 1_554 S
Eu379 O401 2.500 1_554 S
Eu379 O402 2.491 . S
C380 O377 1.255 . S
C380 O381 1.247 . S
O381 C380 1.247 . S
C382 O394 1.242 . S
C382 O395 1.258 . S
O383 Eu379 2.292 . S
O383 C385 1.255 . S
C384 Eu379 2.852 1_556 S
C384 C388 1.503 . S
C384 O401 1.273 . S
C384 O402 1.235 1_556 S
C385 O383 1.255 . S
C385 O386 1.247 . S
O386 C385 1.247 . S
C387 O399 1.242 . S
C387 O400 1.258 . S
C388 C384 1.503 . S
C388 C389 1.379 . S
C388 C393 1.392 . S
C389 C388 1.379 . S
C389 C390 1.404 . S
C389 H403 0.929 . S
C390 C389 1.404 . S
C390 C391 1.389 . S
C391 C390 1.389 . S
C391 C392 1.399 . S
C391 H404 0.931 . S
C392 C391 1.399 . S
C392 C393 1.390 . S
C393 C388 1.392 . S
C393 C392 1.390 . S
C393 H405 0.929 . S
O394 Tb378 2.326 . S
O394 C382 1.242 . S
O395 Eu379 2.324 . S
O395 C382 1.258 . S
O396 Tb378 2.500 . S
O396 C398 1.273 . S
O397 Tb378 2.473 . S
O397 C398 1.257 . S
C398 O396 1.273 . S
C398 O397 1.257 . S
O399 Eu379 2.326 1_556 S
O399 C387 1.242 . S
O400 Tb378 2.324 1_556 S
O400 C387 1.258 . S
O401 Eu379 2.500 1_556 S
O401 C384 1.273 . S
O402 Eu379 2.491 . S
O402 C384 1.235 1_554 S
H403 C389 0.929 . S
H404 C391 0.931 . S
H405 C393 0.929 . S
O406 Tb407 2.292 . S
O406 C409 1.255 . S
Tb407 O406 2.292 . S
Tb407 O423 2.326 . S
Tb407 O425 2.500 . S
Tb407 O426 2.473 . S
Tb407 O429 2.324 . S
Eu408 O412 2.292 . S
Eu408 C413 2.852 . S
Eu408 O424 2.324 . S
Eu408 O428 2.326 . S
Eu408 O430 2.500 . S
Eu408 O431 2.473 . S
C409 O406 1.255 . S
C409 O410 1.247 . S
O410 C409 1.247 . S
C411 O423 1.242 . S
C411 O424 1.258 . S
O412 Eu408 2.292 . S
O412 C414 1.255 . S
C413 Eu408 2.852 . S
C413 C417 1.503 . S
C413 O430 1.273 . S
C413 O431 1.257 . S
C414 O412 1.255 . S
C414 O415 1.247 . S
O415 C414 1.247 . S
C416 O428 1.242 . S
C416 O429 1.258 . S
C417 C413 1.503 . S
C417 C418 1.379 . S
C417 C422 1.392 . S
C418 C417 1.379 . S
C418 C419 1.404 . S
C418 H432 0.929 . S
C419 C418 1.404 . S
C419 C420 1.389 . S
C420 C419 1.389 . S
C420 C421 1.399 . S
C420 H433 0.931 . S
C421 C420 1.399 . S
C421 C422 1.390 . S
C422 C417 1.392 . S
C422 C421 1.390 . S
C422 H434 0.929 . S
O423 Tb407 2.326 . S
O423 C411 1.242 . S
O424 Eu408 2.324 . S
O424 C411 1.258 . S
O425 Tb407 2.500 . S
O425 C427 1.273 . S
O426 Tb407 2.473 . S
O426 C427 1.257 . S
C427 O425 1.273 . S
C427 O426 1.257 . S
O428 Eu408 2.326 . S
O428 C416 1.242 . S
O429 Tb407 2.324 . S
O429 C416 1.258 . S
O430 Eu408 2.500 . S
O430 C413 1.273 . S
O431 Eu408 2.473 . S
O431 C413 1.257 . S
H432 C418 0.929 . S
H433 C420 0.931 . S
H434 C422 0.929 . S
O435 Tb436 2.292 . S
O435 C438 1.255 . S
Tb436 O435 2.292 . S
Tb436 O452 2.326 . S
Tb436 O454 2.500 . S
Tb436 O455 2.473 . S
Tb436 O458 2.324 . S
Eu437 O441 2.292 . S
Eu437 C442 2.852 . S
Eu437 O453 2.324 . S
Eu437 O457 2.326 . S
Eu437 O459 2.500 . S
Eu437 O460 2.473 . S
C438 O435 1.255 . S
C438 O439 1.247 . S
O439 C438 1.247 . S
C440 O452 1.242 . S
C440 O453 1.258 . S
O441 Eu437 2.292 . S
O441 C443 1.255 . S
C442 Eu437 2.852 . S
C442 C446 1.503 . S
C442 O459 1.273 . S
C442 O460 1.257 . S
C443 O441 1.255 . S
C443 O444 1.247 . S
O444 C443 1.247 . S
C445 O457 1.242 . S
C445 O458 1.258 . S
C446 C442 1.503 . S
C446 C447 1.379 . S
C446 C451 1.392 . S
C447 C446 1.379 . S
C447 C448 1.404 . S
C447 H461 0.929 . S
C448 C447 1.404 . S
C448 C449 1.389 . S
C449 C448 1.389 . S
C449 C450 1.399 . S
C449 H462 0.931 . S
C450 C449 1.399 . S
C450 C451 1.390 . S
C451 C446 1.392 . S
C451 C450 1.390 . S
C451 H463 0.929 . S
O452 Tb436 2.326 . S
O452 C440 1.242 . S
O453 Eu437 2.324 . S
O453 C440 1.258 . S
O454 Tb436 2.500 . S
O454 C456 1.273 . S
O455 Tb436 2.473 . S
O455 C456 1.257 . S
C456 O454 1.273 . S
C456 O455 1.257 . S
O457 Eu437 2.326 . S
O457 C445 1.242 . S
O458 Tb436 2.324 . S
O458 C445 1.258 . S
O459 Eu437 2.500 . S
O459 C442 1.273 . S
O460 Eu437 2.473 . S
O460 C442 1.257 . S
H461 C447 0.929 . S
H462 C449 0.931 . S
H463 C451 0.929 . S
C464 C465 1.349 . S
C464 C466 1.327 . S
C464 H489 0.950 . S
C465 C464 1.349 . S
C465 C481 1.349 . S
C466 C464 1.327 . S
C466 C485 1.429 . S
C466 H490 0.950 . S
C467 C484 1.574 . S
C467 C486 1.368 . S
C467 H491 0.949 . S
H468 C472 0.949 . S
C469 C470 1.349 . S
C469 C471 1.327 . S
C469 H492 0.950 . S
C470 C469 1.349 . S
C470 C482 1.344 1_565 S
C471 C469 1.327 . S
C471 C487 1.429 . S
C471 H493 0.950 . S
C472 H468 0.949 . S
C472 C480 1.574 . S
C472 C488 1.368 . S
H473 C481 0.950 . S
H474 C479 0.950 . S
H475 C480 0.949 . S
H476 C482 0.963 . S
H477 C483 0.950 . S
H478 C484 0.949 . S
C479 H474 0.950 . S
C479 C481 1.327 . S
C479 C485 1.429 . S
C480 C472 1.574 . S
C480 H475 0.949 . S
C480 C486 1.368 . S
C481 C465 1.349 . S
C481 H473 0.950 . S
C481 C479 1.327 . S
C482 C470 1.344 1_545 S
C482 H476 0.963 . S
C482 C483 1.319 1_545 S
C483 H477 0.950 . S
C483 C482 1.319 1_565 S
C483 C487 1.429 . S
C484 C467 1.574 . S
C484 H478 0.949 . S
C484 C488 1.368 . S
C485 C466 1.429 . S
C485 C479 1.429 . S
C485 C486 1.523 . S
C486 C467 1.368 . S
C486 C480 1.368 . S
C486 C485 1.523 . S
C487 C471 1.429 . S
C487 C483 1.429 . S
C487 C488 1.523 . S
C488 C472 1.368 . S
C488 C484 1.368 . S
C488 C487 1.523 . S
H489 C464 0.950 . S
H490 C466 0.950 . S
H491 C467 0.949 . S
H492 C469 0.950 . S
H493 C471 0.950 . S
C494 C495 1.349 . S
C494 C496 1.327 . S
C494 H519 0.950 . S
C495 C494 1.349 . S
C495 C511 1.349 . S
C496 C494 1.327 . S
C496 C515 1.429 . S
C496 H520 0.950 . S
C497 C514 1.574 . S
C497 C516 1.368 . S
C497 H521 0.949 . S
H498 C502 0.949 . S
C499 C500 1.344 1_565 S
C499 C501 1.319 1_565 S
C499 H522 0.963 . S
C500 C499 1.344 1_545 S
C500 C512 1.349 . S
C501 C499 1.319 1_545 S
C501 C517 1.429 . S
C501 H523 0.950 . S
C502 H498 0.949 . S
C502 C510 1.574 . S
C502 C518 1.368 . S
H503 C511 0.950 . S
H504 C509 0.950 . S
H505 C510 0.949 . S
H506 C512 0.950 . S
H507 C513 0.950 . S
H508 C514 0.949 . S
C509 H504 0.950 . S
C509 C511 1.327 . S
C509 C515 1.429 . S
C510 C502 1.574 . S
C510 H505 0.949 . S
C510 C516 1.368 . S
C511 C495 1.349 . S
C511 H503 0.950 . S
C511 C509 1.327 . S
C512 C500 1.349 . S
C512 H506 0.950 . S
C512 C513 1.327 . S
C513 H507 0.950 . S
C513 C512 1.327 . S
C513 C517 1.429 . S
C514 C497 1.574 . S
C514 H508 0.949 . S
C514 C518 1.368 . S
C515 C496 1.429 . S
C515 C509 1.429 . S
C515 C516 1.523 . S
C516 C497 1.368 . S
C516 C510 1.368 . S
C516 C515 1.523 . S
C517 C501 1.429 . S
C517 C513 1.429 . S
C517 C518 1.523 . S
C518 C502 1.368 . S
C518 C514 1.368 . S
C518 C517 1.523 . S
H519 C494 0.950 . S
H520 C496 0.950 . S
H521 C497 0.949 . S
H522 C499 0.963 . S
H523 C501 0.950 . S
C524 C525 1.349 . S
C524 C526 1.327 . S
C524 H549 0.950 . S
C525 C524 1.349 . S
C525 C541 1.349 . S
C526 C524 1.327 . S
C526 C545 1.429 . S
C526 H550 0.950 . S
C527 C544 1.574 . S
C527 C546 1.368 . S
C527 H551 0.949 . S
H528 C532 0.949 . S
C529 C530 1.349 . S
C529 C531 1.327 . S
C529 H552 0.950 . S
C530 C529 1.349 . S
C530 C542 1.349 . S
C531 C529 1.327 . S
C531 C547 1.429 . S
C531 H553 0.950 . S
C532 H528 0.949 . S
C532 C540 1.574 . S
C532 C548 1.368 . S
H533 C541 0.950 . S
H534 C539 0.950 . S
H535 C540 0.949 . S
H536 C542 0.950 . S
H537 C543 0.950 . S
H538 C544 0.949 . S
C539 H534 0.950 . S
C539 C541 1.327 . S
C539 C545 1.429 . S
C540 C532 1.574 . S
C540 H535 0.949 . S
C540 C546 1.368 . S
C541 C525 1.349 . S
C541 H533 0.950 . S
C541 C539 1.327 . S
C542 C530 1.349 . S
C542 H536 0.950 . S
C542 C543 1.327 . S
C543 H537 0.950 . S
C543 C542 1.327 . S
C543 C547 1.429 . S
C544 C527 1.574 . S
C544 H538 0.949 . S
C544 C548 1.368 . S
C545 C526 1.429 . S
C545 C539 1.429 . S
C545 C546 1.523 . S
C546 C527 1.368 . S
C546 C540 1.368 . S
C546 C545 1.523 . S
C547 C531 1.429 . S
C547 C543 1.429 . S
C547 C548 1.523 . S
C548 C532 1.368 . S
C548 C544 1.368 . S
C548 C547 1.523 . S
H549 C524 0.950 . S
H550 C526 0.950 . S
H551 C527 0.949 . S
H552 C529 0.950 . S
H553 C531 0.950 . S
C554 C555 1.349 . S
C554 C556 1.327 . S
C554 H579 0.950 . S
C555 C554 1.349 . S
C555 C571 1.349 . S
C556 C554 1.327 . S
C556 C575 1.429 . S
C556 H580 0.950 . S
C557 C574 1.574 . S
C557 C576 1.368 . S
C557 H581 0.949 . S
H558 C562 0.949 . S
C559 C560 1.349 . S
C559 C561 1.327 . S
C559 H582 0.950 . S
C560 C559 1.349 . S
C560 C572 1.349 . S
C561 C559 1.327 . S
C561 C577 1.429 . S
C561 H583 0.950 . S
C562 H558 0.949 . S
C562 C570 1.574 . S
C562 C578 1.368 . S
H563 C571 0.950 . S
H564 C569 0.950 . S
H565 C570 0.949 . S
H566 C572 0.950 . S
H567 C573 0.950 . S
H568 C574 0.949 . S
C569 H564 0.950 . S
C569 C571 1.327 . S
C569 C575 1.429 . S
C570 C562 1.574 . S
C570 H565 0.949 . S
C570 C576 1.368 . S
C571 C555 1.349 . S
C571 H563 0.950 . S
C571 C569 1.327 . S
C572 C560 1.349 . S
C572 H566 0.950 . S
C572 C573 1.327 . S
C573 H567 0.950 . S
C573 C572 1.327 . S
C573 C577 1.429 . S
C574 C557 1.574 . S
C574 H568 0.949 . S
C574 C578 1.368 . S
C575 C556 1.429 . S
C575 C569 1.429 . S
C575 C576 1.523 . S
C576 C557 1.368 . S
C576 C570 1.368 . S
C576 C575 1.523 . S
C577 C561 1.429 . S
C577 C573 1.429 . S
C577 C578 1.523 . S
C578 C562 1.368 . S
C578 C574 1.368 . S
C578 C577 1.523 . S
H579 C554 0.950 . S
H580 C556 0.950 . S
H581 C557 0.949 . S
H582 C559 0.950 . S
H583 C561 0.950 . S
C584 C585 1.349 . S
C584 C586 1.327 . S
C584 H609 0.950 . S
C585 C584 1.349 . S
C585 C601 1.349 . S
C586 C584 1.327 . S
C586 C605 1.429 . S
C586 H610 0.950 . S
C587 C604 1.574 . S
C587 C606 1.368 . S
C587 H611 0.949 . S
H588 C592 0.949 . S
C589 C590 1.349 . S
C589 C591 1.327 . S
C589 H612 0.950 . S
C590 C589 1.349 . S
C590 C602 1.349 . S
C591 C589 1.327 . S
C591 C607 1.429 . S
C591 H613 0.950 . S
C592 H588 0.949 . S
C592 C600 1.574 . S
C592 C608 1.368 . S
H593 C601 0.950 . S
H594 C599 0.950 . S
H595 C600 0.949 . S
H596 C602 0.950 . S
H597 C603 0.950 . S
H598 C604 0.949 . S
C599 H594 0.950 . S
C599 C601 1.327 . S
C599 C605 1.429 . S
C600 C592 1.574 . S
C600 H595 0.949 . S
C600 C606 1.368 . S
C601 C585 1.349 . S
C601 H593 0.950 . S
C601 C599 1.327 . S
C602 C590 1.349 . S
C602 H596 0.950 . S
C602 C603 1.327 . S
C603 H597 0.950 . S
C603 C602 1.327 . S
C603 C607 1.429 . S
C604 C587 1.574 . S
C604 H598 0.949 . S
C604 C608 1.368 . S
C605 C586 1.429 . S
C605 C599 1.429 . S
C605 C606 1.523 . S
C606 C587 1.368 . S
C606 C600 1.368 . S
C606 C605 1.523 . S
C607 C591 1.429 . S
C607 C603 1.429 . S
C607 C608 1.523 . S
C608 C592 1.368 . S
C608 C604 1.368 . S
C608 C607 1.523 . S
H609 C584 0.950 . S
H610 C586 0.950 . S
H611 C587 0.949 . S
H612 C589 0.950 . S
H613 C591 0.950 . S
C614 C615 1.349 . S
C614 C616 1.327 . S
C614 H639 0.950 . S
C615 C614 1.349 . S
C615 C631 1.349 . S
C616 C614 1.327 . S
C616 C635 1.429 . S
C616 H640 0.950 . S
C617 C634 1.574 . S
C617 C636 1.368 . S
C617 H641 0.949 . S
H618 C622 0.949 . S
C619 C620 1.349 . S
C619 C621 1.327 . S
C619 H642 0.950 . S
C620 C619 1.349 . S
C620 C632 1.349 . S
C621 C619 1.327 . S
C621 C637 1.429 . S
C621 H643 0.950 . S
C622 H618 0.949 . S
C622 C630 1.574 . S
C622 C638 1.368 . S
H623 C631 0.950 . S
H624 C629 0.950 . S
H625 C630 0.949 . S
H626 C632 0.950 . S
H627 C633 0.950 . S
H628 C634 0.949 . S
C629 H624 0.950 . S
C629 C631 1.327 . S
C629 C635 1.429 . S
C630 C622 1.574 . S
C630 H625 0.949 . S
C630 C636 1.368 . S
C631 C615 1.349 . S
C631 H623 0.950 . S
C631 C629 1.327 . S
C632 C620 1.349 . S
C632 H626 0.950 . S
C632 C633 1.327 . S
C633 H627 0.950 . S
C633 C632 1.327 . S
C633 C637 1.429 . S
C634 C617 1.574 . S
C634 H628 0.949 . S
C634 C638 1.368 . S
C635 C616 1.429 . S
C635 C629 1.429 . S
C635 C636 1.523 . S
C636 C617 1.368 . S
C636 C630 1.368 . S
C636 C635 1.523 . S
C637 C621 1.429 . S
C637 C633 1.429 . S
C637 C638 1.523 . S
C638 C622 1.368 . S
C638 C634 1.368 . S
C638 C637 1.523 . S
H639 C614 0.950 . S
H640 C616 0.950 . S
H641 C617 0.949 . S
H642 C619 0.950 . S
H643 C621 0.950 . S
C644 C645 1.349 . S
C644 C646 1.327 . S
C644 H669 0.950 . S
C645 C644 1.349 . S
C645 C661 1.349 . S
C646 C644 1.327 . S
C646 C665 1.429 . S
C646 H670 0.950 . S
C647 C664 1.574 . S
C647 C666 1.368 . S
C647 H671 0.949 . S
H648 C652 0.949 . S
C649 C650 1.349 . S
C649 C651 1.327 . S
C649 H672 0.950 . S
C650 C649 1.349 . S
C650 C662 1.349 . S
C651 C649 1.327 . S
C651 C667 1.429 . S
C651 H673 0.950 . S
C652 H648 0.949 . S
C652 C660 1.574 . S
C652 C668 1.368 . S
H653 C661 0.950 . S
H654 C659 0.950 . S
H655 C660 0.949 . S
H656 C662 0.950 . S
H657 C663 0.950 . S
H658 C664 0.949 . S
C659 H654 0.950 . S
C659 C661 1.327 . S
C659 C665 1.429 . S
C660 C652 1.574 . S
C660 H655 0.949 . S
C660 C666 1.368 . S
C661 C645 1.349 . S
C661 H653 0.950 . S
C661 C659 1.327 . S
C662 C650 1.349 . S
C662 H656 0.950 . S
C662 C663 1.327 . S
C663 H657 0.950 . S
C663 C662 1.327 . S
C663 C667 1.429 . S
C664 C647 1.574 . S
C664 H658 0.949 . S
C664 C668 1.368 . S
C665 C646 1.429 . S
C665 C659 1.429 . S
C665 C666 1.523 . S
C666 C647 1.368 . S
C666 C660 1.368 . S
C666 C665 1.523 . S
C667 C651 1.429 . S
C667 C663 1.429 . S
C667 C668 1.523 . S
C668 C652 1.368 . S
C668 C664 1.368 . S
C668 C667 1.523 . S
H669 C644 0.950 . S
H670 C646 0.950 . S
H671 C647 0.949 . S
H672 C649 0.950 . S
H673 C651 0.950 . S
C674 C675 1.349 . S
C674 C676 1.327 . S
C674 H699 0.950 . S
C675 C674 1.349 . S
C675 C691 1.349 . S
C676 C674 1.327 . S
C676 C695 1.429 . S
C676 H700 0.950 . S
C677 C694 1.574 . S
C677 C696 1.368 . S
C677 H701 0.949 . S
H678 C682 0.949 . S
C679 C680 1.349 . S
C679 C681 1.327 . S
C679 H702 0.950 . S
C680 C679 1.349 . S
C680 C692 1.349 . S
C681 C679 1.327 . S
C681 C697 1.429 . S
C681 H703 0.950 . S
C682 H678 0.949 . S
C682 C690 1.574 . S
C682 C698 1.368 . S
H683 C691 0.950 . S
H684 C689 0.950 . S
H685 C690 0.949 . S
H686 C692 0.950 . S
H687 C693 0.950 . S
H688 C694 0.949 . S
C689 H684 0.950 . S
C689 C691 1.327 . S
C689 C695 1.429 . S
C690 C682 1.574 . S
C690 H685 0.949 . S
C690 C696 1.368 . S
C691 C675 1.349 . S
C691 H683 0.950 . S
C691 C689 1.327 . S
C692 C680 1.349 . S
C692 H686 0.950 . S
C692 C693 1.327 . S
C693 H687 0.950 . S
C693 C692 1.327 . S
C693 C697 1.429 . S
C694 C677 1.574 . S
C694 H688 0.949 . S
C694 C698 1.368 . S
C695 C676 1.429 . S
C695 C689 1.429 . S
C695 C696 1.523 . S
C696 C677 1.368 . S
C696 C690 1.368 . S
C696 C695 1.523 . S
C697 C681 1.429 . S
C697 C693 1.429 . S
C697 C698 1.523 . S
C698 C682 1.368 . S
C698 C694 1.368 . S
C698 C697 1.523 . S
H699 C674 0.950 . S
H700 C676 0.950 . S
H701 C677 0.949 . S
H702 C679 0.950 . S
H703 C681 0.950 . S
C704 C705 1.350 . S
C704 C706 1.330 . S
C704 H729 0.945 1_565 S
C705 C704 1.350 . S
C705 C721 1.349 . S
C706 C704 1.330 . S
C706 C725 1.429 . S
C706 H730 0.950 . S
C707 C724 1.574 . S
C707 C726 1.368 . S
C707 H731 0.949 . S
H708 C712 0.949 . S
C709 C710 1.349 . S
C709 C711 1.327 . S
C709 H732 0.950 . S
C710 C709 1.349 . S
C710 C722 1.349 . S
C711 C709 1.327 . S
C711 C727 1.429 . S
C711 H733 0.950 . S
C712 H708 0.949 . S
C712 C720 1.574 . S
C712 C728 1.368 . S
H713 C721 0.950 . S
H714 C719 0.950 . S
H715 C720 0.949 . S
H716 C722 0.950 . S
H717 C723 0.950 . S
H718 C724 0.949 . S
C719 H714 0.950 . S
C719 C721 1.327 . S
C719 C725 1.429 . S
C720 C712 1.574 . S
C720 H715 0.949 . S
C720 C726 1.368 . S
C721 C705 1.349 . S
C721 H713 0.950 . S
C721 C719 1.327 . S
C722 C710 1.349 . S
C722 H716 0.950 . S
C722 C723 1.327 . S
C723 H717 0.950 . S
C723 C722 1.327 . S
C723 C727 1.429 . S
C724 C707 1.574 . S
C724 H718 0.949 . S
C724 C728 1.368 . S
C725 C706 1.429 . S
C725 C719 1.429 . S
C725 C726 1.523 . S
C726 C707 1.368 . S
C726 C720 1.368 . S
C726 C725 1.523 . S
C727 C711 1.429 . S
C727 C723 1.429 . S
C727 C728 1.523 . S
C728 C712 1.368 . S
C728 C724 1.368 . S
C728 C727 1.523 . S
H729 C704 0.945 1_545 S
H730 C706 0.950 . S
H731 C707 0.949 . S
H732 C709 0.950 . S
H733 C711 0.950 . S
C734 C735 1.349 . S
C734 C736 1.327 . S
C734 H759 0.970 . S
C735 C734 1.349 . S
C735 C751 1.349 . S
C736 C734 1.327 . S
C736 C755 1.429 . S
C736 H760 0.950 . S
C737 C754 1.574 . S
C737 C756 1.368 . S
C737 H761 0.949 . S
H738 C742 0.949 . S
C739 C740 1.349 . S
C739 C741 1.327 . S
C739 H762 0.950 . S
C740 C739 1.349 . S
C740 C752 1.349 . S
C741 C739 1.327 . S
C741 C757 1.429 . S
C741 H763 0.950 . S
C742 H738 0.949 . S
C742 C750 1.574 . S
C742 C758 1.368 . S
H743 C751 0.950 . S
H744 C749 0.950 . S
H745 C750 0.949 . S
H746 C752 0.950 . S
H747 C753 0.950 . S
H748 C754 0.949 . S
C749 H744 0.950 . S
C749 C751 1.327 . S
C749 C755 1.429 . S
C750 C742 1.574 . S
C750 H745 0.949 . S
C750 C756 1.368 . S
C751 C735 1.349 . S
C751 H743 0.950 . S
C751 C749 1.327 . S
C752 C740 1.349 . S
C752 H746 0.950 . S
C752 C753 1.327 . S
C753 H747 0.950 . S
C753 C752 1.327 . S
C753 C757 1.429 . S
C754 C737 1.574 . S
C754 H748 0.949 . S
C754 C758 1.368 . S
C755 C736 1.429 . S
C755 C749 1.429 . S
C755 C756 1.523 . S
C756 C737 1.368 . S
C756 C750 1.368 . S
C756 C755 1.523 . S
C757 C741 1.429 . S
C757 C753 1.429 . S
C757 C758 1.523 . S
C758 C742 1.368 . S
C758 C754 1.368 . S
C758 C757 1.523 . S
H759 C734 0.970 . S
H760 C736 0.950 . S
H761 C737 0.949 . S
H762 C739 0.950 . S
H763 C741 0.950 . S
C764 C765 1.349 . S
C764 C766 1.327 . S
C764 H789 0.950 . S
C765 C764 1.349 . S
C765 C781 1.349 . S
C766 C764 1.327 . S
C766 C785 1.429 . S
C766 H790 0.950 . S
C767 C784 1.574 . S
C767 C786 1.368 . S
C767 H791 0.949 . S
H768 C772 0.949 . S
C769 C770 1.349 . S
C769 C771 1.327 . S
C769 H792 0.950 . S
C770 C769 1.349 . S
C770 C782 1.349 . S
C771 C769 1.327 . S
C771 C787 1.429 . S
C771 H793 0.950 . S
C772 H768 0.949 . S
C772 C780 1.574 . S
C772 C788 1.368 . S
H773 C781 0.950 . S
H774 C779 0.950 . S
H775 C780 0.949 . S
H776 C782 0.950 . S
H777 C783 0.950 . S
H778 C784 0.949 . S
C779 H774 0.950 . S
C779 C781 1.327 . S
C779 C785 1.429 . S
C780 C772 1.574 . S
C780 H775 0.949 . S
C780 C786 1.368 . S
C781 C765 1.349 . S
C781 H773 0.950 . S
C781 C779 1.327 . S
C782 C770 1.349 . S
C782 H776 0.950 . S
C782 C783 1.327 . S
C783 H777 0.950 . S
C783 C782 1.327 . S
C783 C787 1.429 . S
C784 C767 1.574 . S
C784 H778 0.949 . S
C784 C788 1.368 . S
C785 C766 1.429 . S
C785 C779 1.429 . S
C785 C786 1.523 . S
C786 C767 1.368 . S
C786 C780 1.368 . S
C786 C785 1.523 . S
C787 C771 1.429 . S
C787 C783 1.429 . S
C787 C788 1.523 . S
C788 C772 1.368 . S
C788 C784 1.368 . S
C788 C787 1.523 . S
H789 C764 0.950 . S
H790 C766 0.950 . S
H791 C767 0.949 . S
H792 C769 0.950 . S
H793 C771 0.950 . S
C794 C795 1.349 . S
C794 C796 1.327 . S
C794 H819 0.950 . S
C795 C794 1.349 . S
C795 C811 1.349 . S
C796 C794 1.327 . S
C796 C815 1.429 . S
C796 H820 0.950 . S
C797 C814 1.574 . S
C797 C816 1.368 . S
C797 H821 0.949 . S
H798 C802 0.949 . S
C799 C800 1.349 . S
C799 C801 1.327 . S
C799 H822 0.950 . S
C800 C799 1.349 . S
C800 C812 1.349 . S
C801 C799 1.327 . S
C801 C817 1.429 . S
C801 H823 0.950 . S
C802 H798 0.949 . S
C802 C810 1.574 . S
C802 C818 1.368 . S
H803 C811 0.950 . S
H804 C809 0.950 . S
H805 C810 0.949 . S
H806 C812 0.950 . S
H807 C813 0.950 . S
H808 C814 0.949 . S
C809 H804 0.950 . S
C809 C811 1.327 . S
C809 C815 1.429 . S
C810 C802 1.574 . S
C810 H805 0.949 . S
C810 C816 1.368 . S
C811 C795 1.349 . S
C811 H803 0.950 . S
C811 C809 1.327 . S
C812 C800 1.349 . S
C812 H806 0.950 . S
C812 C813 1.327 . S
C813 H807 0.950 . S
C813 C812 1.327 . S
C813 C817 1.429 . S
C814 C797 1.574 . S
C814 H808 0.949 . S
C814 C818 1.368 . S
C815 C796 1.429 . S
C815 C809 1.429 . S
C815 C816 1.523 . S
C816 C797 1.368 . S
C816 C810 1.368 . S
C816 C815 1.523 . S
C817 C801 1.429 . S
C817 C813 1.429 . S
C817 C818 1.523 . S
C818 C802 1.368 . S
C818 C814 1.368 . S
C818 C817 1.523 . S
H819 C794 0.950 . S
H820 C796 0.950 . S
H821 C797 0.949 . S
H822 C799 0.950 . S
H823 C801 0.950 . S
C824 C825 1.349 . S
C824 C826 1.327 . S
C824 H849 0.950 . S
C825 C824 1.349 . S
C825 C841 1.349 . S
C826 C824 1.327 . S
C826 C845 1.429 . S
C826 H850 0.950 . S
C827 C844 1.574 . S
C827 C846 1.368 . S
C827 H851 0.949 . S
H828 C832 0.949 . S
C829 C830 1.349 . S
C829 C831 1.327 . S
C829 H852 0.950 . S
C830 C829 1.349 . S
C830 C842 1.349 . S
C831 C829 1.327 . S
C831 C847 1.429 . S
C831 H853 0.950 . S
C832 H828 0.949 . S
C832 C840 1.574 . S
C832 C848 1.368 . S
H833 C841 0.950 . S
H834 C839 0.950 . S
H835 C840 0.949 . S
H836 C842 0.950 . S
H837 C843 0.950 . S
H838 C844 0.949 . S
C839 H834 0.950 . S
C839 C841 1.327 . S
C839 C845 1.429 . S
C840 C832 1.574 . S
C840 H835 0.949 . S
C840 C846 1.368 . S
C841 C825 1.349 . S
C841 H833 0.950 . S
C841 C839 1.327 . S
C842 C830 1.349 . S
C842 H836 0.950 . S
C842 C843 1.327 . S
C843 H837 0.950 . S
C843 C842 1.327 . S
C843 C847 1.429 . S
C844 C827 1.574 . S
C844 H838 0.949 . S
C844 C848 1.368 . S
C845 C826 1.429 . S
C845 C839 1.429 . S
C845 C846 1.523 . S
C846 C827 1.368 . S
C846 C840 1.368 . S
C846 C845 1.523 . S
C847 C831 1.429 . S
C847 C843 1.429 . S
C847 C848 1.523 . S
C848 C832 1.368 . S
C848 C844 1.368 . S
C848 C847 1.523 . S
H849 C824 0.950 . S
H850 C826 0.950 . S
H851 C827 0.949 . S
H852 C829 0.950 . S
H853 C831 0.950 . S
C854 C855 1.349 . S
C854 C856 1.327 . S
C854 H879 0.950 . S
C855 C854 1.349 . S
C855 C871 1.349 . S
C856 C854 1.327 . S
C856 C875 1.429 . S
C856 H880 0.950 . S
C857 C874 1.574 . S
C857 C876 1.368 . S
C857 H881 0.949 . S
H858 C862 0.949 . S
C859 C860 1.349 . S
C859 C861 1.327 . S
C859 H882 0.950 . S
C860 C859 1.349 . S
C860 C872 1.349 . S
C861 C859 1.327 . S
C861 C877 1.429 . S
C861 H883 0.950 . S
C862 H858 0.949 . S
C862 C870 1.574 . S
C862 C878 1.368 . S
H863 C871 0.950 . S
H864 C869 0.950 . S
H865 C870 0.949 . S
H866 C872 0.950 . S
H867 C873 0.950 . S
H868 C874 0.949 . S
C869 H864 0.950 . S
C869 C871 1.327 . S
C869 C875 1.429 . S
C870 C862 1.574 . S
C870 H865 0.949 . S
C870 C876 1.368 . S
C871 C855 1.349 . S
C871 H863 0.950 . S
C871 C869 1.327 . S
C872 C860 1.349 . S
C872 H866 0.950 . S
C872 C873 1.327 . S
C873 H867 0.950 . S
C873 C872 1.327 . S
C873 C877 1.429 . S
C874 C857 1.574 . S
C874 H868 0.949 . S
C874 C878 1.368 . S
C875 C856 1.429 . S
C875 C869 1.429 . S
C875 C876 1.523 . S
C876 C857 1.368 . S
C876 C870 1.368 . S
C876 C875 1.523 . S
C877 C861 1.429 . S
C877 C873 1.429 . S
C877 C878 1.523 . S
C878 C862 1.368 . S
C878 C874 1.368 . S
C878 C877 1.523 . S
H879 C854 0.950 . S
H880 C856 0.950 . S
H881 C857 0.949 . S
H882 C859 0.950 . S
H883 C861 0.950 . S
C884 C885 1.349 . S
C884 C886 1.327 . S
C884 H909 0.950 . S
C885 C884 1.349 . S
C885 C901 1.349 . S
C886 C884 1.327 . S
C886 C905 1.429 . S
C886 H910 0.950 . S
C887 C904 1.574 . S
C887 C906 1.368 . S
C887 H911 0.949 . S
H888 C892 0.949 . S
C889 C890 1.349 . S
C889 C891 1.327 . S
C889 H912 0.950 . S
C890 C889 1.349 . S
C890 C902 1.349 . S
C891 C889 1.327 . S
C891 C907 1.429 . S
C891 H913 0.950 . S
C892 H888 0.949 . S
C892 C900 1.574 . S
C892 C908 1.368 . S
H893 C901 0.950 . S
H894 C899 0.950 . S
H895 C900 0.949 . S
H896 C902 0.950 . S
H897 C903 0.950 . S
H898 C904 0.949 . S
C899 H894 0.950 . S
C899 C901 1.327 . S
C899 C905 1.429 . S
C900 C892 1.574 . S
C900 H895 0.949 . S
C900 C906 1.368 . S
C901 C885 1.349 . S
C901 H893 0.950 . S
C901 C899 1.327 . S
C902 C890 1.349 . S
C902 H896 0.950 . S
C902 C903 1.327 . S
C903 H897 0.950 . S
C903 C902 1.327 . S
C903 C907 1.429 . S
C904 C887 1.574 . S
C904 H898 0.949 . S
C904 C908 1.368 . S
C905 C886 1.429 . S
C905 C899 1.429 . S
C905 C906 1.523 . S
C906 C887 1.368 . S
C906 C900 1.368 . S
C906 C905 1.523 . S
C907 C891 1.429 . S
C907 C903 1.429 . S
C907 C908 1.523 . S
C908 C892 1.368 . S
C908 C904 1.368 . S
C908 C907 1.523 . S
H909 C884 0.950 . S
H910 C886 0.950 . S
H911 C887 0.949 . S
H912 C889 0.950 . S
H913 C891 0.950 . S
C914 C915 1.349 . S
C914 C916 1.327 . S
C914 H939 0.950 . S
C915 C914 1.349 . S
C915 C931 1.349 . S
C916 C914 1.327 . S
C916 C935 1.429 . S
C916 H940 0.950 . S
C917 C934 1.574 . S
C917 C936 1.368 . S
C917 H941 0.949 . S
H918 C922 0.949 . S
C919 C920 1.349 . S
C919 C921 1.327 . S
C919 H942 0.950 . S
C920 C919 1.349 . S
C920 C932 1.349 . S
C921 C919 1.327 . S
C921 C937 1.429 . S
C921 H943 0.950 . S
C922 H918 0.949 . S
C922 C930 1.574 . S
C922 C938 1.368 . S
H923 C931 0.950 . S
H924 C929 0.950 . S
H925 C930 0.949 . S
H926 C932 0.950 . S
H927 C933 0.950 . S
H928 C934 0.949 . S
C929 H924 0.950 . S
C929 C931 1.327 . S
C929 C935 1.429 . S
C930 C922 1.574 . S
C930 H925 0.949 . S
C930 C936 1.368 . S
C931 C915 1.349 . S
C931 H923 0.950 . S
C931 C929 1.327 . S
C932 C920 1.349 . S
C932 H926 0.950 . S
C932 C933 1.327 . S
C933 H927 0.950 . S
C933 C932 1.327 . S
C933 C937 1.429 . S
C934 C917 1.574 . S
C934 H928 0.949 . S
C934 C938 1.368 . S
C935 C916 1.429 . S
C935 C929 1.429 . S
C935 C936 1.523 . S
C936 C917 1.368 . S
C936 C930 1.368 . S
C936 C935 1.523 . S
C937 C921 1.429 . S
C937 C933 1.429 . S
C937 C938 1.523 . S
C938 C922 1.368 . S
C938 C934 1.368 . S
C938 C937 1.523 . S
H939 C914 0.950 . S
H940 C916 0.950 . S
H941 C917 0.949 . S
H942 C919 0.950 . S
H943 C921 0.950 . S
C944 C945 1.349 1_556 S
C944 C946 1.327 . S
C944 H969 0.950 . S
C945 C944 1.349 1_554 S
C945 C961 1.349 . S
C946 C944 1.327 . S
C946 C965 1.429 1_556 S
C946 H970 0.950 . S
C947 C964 1.574 . S
C947 C966 1.368 . S
C947 H971 0.949 . S
H948 C952 0.949 . S
C949 C950 1.349 . S
C949 C951 1.327 . S
C949 H972 0.950 . S
C950 C949 1.349 . S
C950 C962 1.349 1_554 S
C951 C949 1.327 . S
C951 C967 1.429 . S
C951 H973 0.950 . S
C952 H948 0.949 . S
C952 C960 1.574 . S
C952 C968 1.368 1_556 S
H953 C961 0.950 . S
H954 C959 0.950 . S
H955 C960 0.949 . S
H956 C962 0.950 . S
H957 C963 0.950 . S
H958 C964 0.949 . S
C959 H954 0.950 . S
C959 C961 1.327 . S
C959 C965 1.429 . S
C960 C952 1.574 . S
C960 H955 0.949 . S
C960 C966 1.368 1_556 S
C961 C945 1.349 . S
C961 H953 0.950 . S
C961 C959 1.327 . S
C962 C950 1.349 1_556 S
C962 H956 0.950 . S
C962 C963 1.327 . S
C963 H957 0.950 . S
C963 C962 1.327 . S
C963 C967 1.429 1_556 S
C964 C947 1.574 . S
C964 H958 0.949 . S
C964 C968 1.368 . S
C965 C946 1.429 1_554 S
C965 C959 1.429 . S
C965 C966 1.523 . S
C966 C947 1.368 . S
C966 C960 1.368 1_554 S
C966 C965 1.523 . S
C967 C951 1.429 . S
C967 C963 1.429 1_554 S
C967 C968 1.523 . S
C968 C952 1.368 1_554 S
C968 C964 1.368 . S
C968 C967 1.523 . S
H969 C944 0.950 . S
H970 C946 0.950 . S
H971 C947 0.949 . S
H972 C949 0.950 . S
H973 C951 0.950 . S
C974 C975 1.349 1_556 S
C974 C976 1.327 . S
C974 H999 0.950 . S
C975 C974 1.349 1_554 S
C975 C991 1.349 . S
C976 C974 1.327 . S
C976 C995 1.429 1_556 S
C976 H1000 0.950 . S
C977 C994 1.574 . S
C977 C996 1.368 . S
C977 H1001 0.949 . S
H978 C982 0.949 . S
C979 C980 1.349 . S
C979 C981 1.327 . S
C979 H1002 0.950 . S
C980 C979 1.349 . S
C980 C992 1.349 1_554 S
C981 C979 1.327 . S
C981 C997 1.429 . S
C981 H1003 0.950 . S
C982 H978 0.949 . S
C982 C990 1.574 . S
C982 C998 1.368 1_556 S
H983 C991 0.950 . S
H984 C989 0.950 . S
H985 C990 0.949 . S
H986 C992 0.950 . S
H987 C993 0.950 . S
H988 C994 0.949 . S
C989 H984 0.950 . S
C989 C991 1.327 . S
C989 C995 1.429 . S
C990 C982 1.574 . S
C990 H985 0.949 . S
C990 C996 1.368 1_556 S
C991 C975 1.349 . S
C991 H983 0.950 . S
C991 C989 1.327 . S
C992 C980 1.349 1_556 S
C992 H986 0.950 . S
C992 C993 1.327 . S
C993 H987 0.950 . S
C993 C992 1.327 . S
C993 C997 1.429 1_556 S
C994 C977 1.574 . S
C994 H988 0.949 . S
C994 C998 1.368 . S
C995 C976 1.429 1_554 S
C995 C989 1.429 . S
C995 C996 1.523 . S
C996 C977 1.368 . S
C996 C990 1.368 1_554 S
C996 C995 1.523 . S
C997 C981 1.429 . S
C997 C993 1.429 1_554 S
C997 C998 1.523 . S
C998 C982 1.368 1_554 S
C998 C994 1.368 . S
C998 C997 1.523 . S
H999 C974 0.950 . S
H1000 C976 0.950 . S
H1001 C977 0.949 . S
H1002 C979 0.950 . S
H1003 C981 0.950 . S
C1004 C1005 1.349 . S
C1004 C1006 1.327 . S
C1004 H1029 0.950 . S
C1005 C1004 1.349 . S
C1005 C1021 1.349 . S
C1006 C1004 1.327 . S
C1006 C1025 1.429 . S
C1006 H1030 0.950 . S
C1007 C1024 1.574 . S
C1007 C1026 1.368 1_455 S
C1007 H1031 0.949 . S
H1008 C1012 0.949 . S
C1009 C1010 1.349 . S
C1009 C1011 1.327 . S
C1009 H1032 0.950 . S
C1010 C1009 1.349 . S
C1010 C1022 1.349 . S
C1011 C1009 1.327 . S
C1011 C1027 1.429 . S
C1011 H1033 0.950 . S
C1012 H1008 0.949 . S
C1012 C1020 1.574 . S
C1012 C1028 1.368 1_655 S
H1013 C1021 0.950 . S
H1014 C1019 0.929 1_455 S
H1015 C1020 0.949 . S
H1016 C1022 0.950 . S
H1017 C1023 0.929 1_655 S
H1018 C1024 0.949 . S
C1019 H1014 0.929 1_655 S
C1019 C1021 1.327 . S
C1019 C1025 1.429 . S
C1020 C1012 1.574 . S
C1020 H1015 0.949 . S
C1020 C1026 1.368 . S
C1021 C1005 1.349 . S
C1021 H1013 0.950 . S
C1021 C1019 1.327 . S
C1022 C1010 1.349 . S
C1022 H1016 0.950 . S
C1022 C1023 1.327 . S
C1023 H1017 0.929 1_455 S
C1023 C1022 1.327 . S
C1023 C1027 1.429 . S
C1024 C1007 1.574 . S
C1024 H1018 0.949 . S
C1024 C1028 1.368 . S
C1025 C1006 1.429 . S
C1025 C1019 1.429 . S
C1025 C1026 1.523 . S
C1026 C1007 1.368 1_655 S
C1026 C1020 1.368 . S
C1026 C1025 1.523 . S
C1027 C1011 1.429 . S
C1027 C1023 1.429 . S
C1027 C1028 1.523 . S
C1028 C1012 1.368 1_455 S
C1028 C1024 1.368 . S
C1028 C1027 1.523 . S
H1029 C1004 0.950 . S
H1030 C1006 0.950 . S
H1031 C1007 0.949 . S
H1032 C1009 0.950 . S
H1033 C1011 0.950 . S
C1034 C1035 1.349 . S
C1034 C1036 1.327 . S
C1034 H1059 0.950 . S
C1035 C1034 1.349 . S
C1035 C1051 1.349 . S
C1036 C1034 1.327 . S
C1036 C1055 1.429 . S
C1036 H1060 0.950 . S
C1037 C1054 1.574 . S
C1037 C1056 1.368 . S
C1037 H1061 0.949 . S
H1038 C1042 0.949 . S
C1039 C1040 1.349 . S
C1039 C1041 1.327 . S
C1039 H1062 0.950 . S
C1040 C1039 1.349 . S
C1040 C1052 1.349 . S
C1041 C1039 1.327 . S
C1041 C1057 1.429 . S
C1041 H1063 0.950 . S
C1042 H1038 0.949 . S
C1042 C1050 1.574 . S
C1042 C1058 1.368 . S
H1043 C1051 0.950 . S
H1044 C1049 0.950 . S
H1045 C1050 0.949 . S
H1046 C1052 0.950 . S
H1047 C1053 0.950 . S
H1048 C1054 0.949 . S
C1049 H1044 0.950 . S
C1049 C1051 1.327 . S
C1049 C1055 1.429 . S
C1050 C1042 1.574 . S
C1050 H1045 0.949 . S
C1050 C1056 1.368 . S
C1051 C1035 1.349 . S
C1051 H1043 0.950 . S
C1051 C1049 1.327 . S
C1052 C1040 1.349 . S
C1052 H1046 0.950 . S
C1052 C1053 1.327 . S
C1053 H1047 0.950 . S
C1053 C1052 1.327 . S
C1053 C1057 1.429 . S
C1054 C1037 1.574 . S
C1054 H1048 0.949 . S
C1054 C1058 1.368 . S
C1055 C1036 1.429 . S
C1055 C1049 1.429 . S
C1055 C1056 1.523 . S
C1056 C1037 1.368 . S
C1056 C1050 1.368 . S
C1056 C1055 1.523 . S
C1057 C1041 1.429 . S
C1057 C1053 1.429 . S
C1057 C1058 1.523 . S
C1058 C1042 1.368 . S
C1058 C1054 1.368 . S
C1058 C1057 1.523 . S
H1059 C1034 0.950 . S
H1060 C1036 0.950 . S
H1061 C1037 0.949 . S
H1062 C1039 0.950 . S
H1063 C1041 0.950 . S
C1064 C1065 1.349 . S
C1064 C1066 1.327 . S
C1064 H1089 0.950 . S
C1065 C1064 1.349 . S
C1065 C1081 1.349 . S
C1066 C1064 1.327 . S
C1066 C1085 1.429 . S
C1066 H1090 0.950 . S
C1067 C1084 1.574 . S
C1067 C1086 1.368 . S
C1067 H1091 0.949 . S
H1068 C1072 0.949 . S
C1069 C1070 1.349 . S
C1069 C1071 1.327 . S
C1069 H1092 0.950 . S
C1070 C1069 1.349 . S
C1070 C1082 1.349 . S
C1071 C1069 1.327 . S
C1071 C1087 1.429 . S
C1071 H1093 0.950 . S
C1072 H1068 0.949 . S
C1072 C1080 1.574 . S
C1072 C1088 1.368 . S
H1073 C1081 0.950 . S
H1074 C1079 0.950 . S
H1075 C1080 0.949 . S
H1076 C1082 0.950 . S
H1077 C1083 0.950 . S
H1078 C1084 0.949 . S
C1079 H1074 0.950 . S
C1079 C1081 1.327 . S
C1079 C1085 1.429 . S
C1080 C1072 1.574 . S
C1080 H1075 0.949 . S
C1080 C1086 1.368 . S
C1081 C1065 1.349 . S
C1081 H1073 0.950 . S
C1081 C1079 1.327 . S
C1082 C1070 1.349 . S
C1082 H1076 0.950 . S
C1082 C1083 1.327 . S
C1083 H1077 0.950 . S
C1083 C1082 1.327 . S
C1083 C1087 1.429 . S
C1084 C1067 1.574 . S
C1084 H1078 0.949 . S
C1084 C1088 1.368 . S
C1085 C1066 1.429 . S
C1085 C1079 1.429 . S
C1085 C1086 1.523 . S
C1086 C1067 1.368 . S
C1086 C1080 1.368 . S
C1086 C1085 1.523 . S
C1087 C1071 1.429 . S
C1087 C1083 1.429 . S
C1087 C1088 1.523 . S
C1088 C1072 1.368 . S
C1088 C1084 1.368 . S
C1088 C1087 1.523 . S
H1089 C1064 0.950 . S
H1090 C1066 0.950 . S
H1091 C1067 0.949 . S
H1092 C1069 0.950 . S
H1093 C1071 0.950 . S
C1094 C1095 1.349 . S
C1094 C1096 1.327 . S
C1094 H1119 0.950 . S
C1095 C1094 1.349 . S
C1095 C1111 1.349 . S
C1096 C1094 1.327 . S
C1096 C1115 1.429 . S
C1096 H1120 0.950 . S
C1097 C1114 1.574 1_565 S
C1097 C1116 1.368 1_455 S
C1097 H1121 0.949 . S
H1098 C1102 0.949 . S
C1099 C1100 1.349 . S
C1099 C1101 1.327 . S
C1099 H1122 0.950 . S
C1100 C1099 1.349 . S
C1100 C1112 1.349 . S
C1101 C1099 1.327 . S
C1101 C1117 1.429 . S
C1101 H1123 0.950 . S
C1102 H1098 0.949 . S
C1102 C1110 1.574 1_545 S
C1102 C1118 1.368 1_655 S
H1103 C1111 0.950 . S
H1104 C1109 0.929 1_455 S
H1105 C1110 0.949 . S
H1106 C1112 0.950 . S
H1107 C1113 0.929 1_655 S
H1108 C1114 0.949 . S
C1109 H1104 0.929 1_655 S
C1109 C1111 1.327 . S
C1109 C1115 1.429 . S
C1110 C1102 1.574 1_565 S
C1110 H1105 0.949 . S
C1110 C1116 1.368 . S
C1111 C1095 1.349 . S
C1111 H1103 0.950 . S
C1111 C1109 1.327 . S
C1112 C1100 1.349 . S
C1112 H1106 0.950 . S
C1112 C1113 1.327 . S
C1113 H1107 0.929 1_455 S
C1113 C1112 1.327 . S
C1113 C1117 1.429 . S
C1114 C1097 1.574 1_545 S
C1114 H1108 0.949 . S
C1114 C1118 1.368 . S
C1115 C1096 1.429 . S
C1115 C1109 1.429 . S
C1115 C1116 1.523 . S
C1116 C1097 1.368 1_655 S
C1116 C1110 1.368 . S
C1116 C1115 1.523 . S
C1117 C1101 1.429 . S
C1117 C1113 1.429 . S
C1117 C1118 1.523 . S
C1118 C1102 1.368 1_455 S
C1118 C1114 1.368 . S
C1118 C1117 1.523 . S
H1119 C1094 0.950 . S
H1120 C1096 0.950 . S
H1121 C1097 0.949 . S
H1122 C1099 0.950 . S
H1123 C1101 0.950 . S
C1124 C1125 1.349 . S
C1124 C1126 1.327 . S
C1124 H1149 0.950 . S
C1125 C1124 1.349 . S
C1125 C1141 1.349 . S
C1126 C1124 1.327 . S
C1126 C1145 1.429 . S
C1126 H1150 0.950 . S
C1127 C1144 1.574 . S
C1127 C1146 1.368 . S
C1127 H1151 0.949 . S
H1128 C1132 0.949 . S
C1129 C1130 1.349 . S
C1129 C1131 1.327 . S
C1129 H1152 0.950 . S
C1130 C1129 1.349 . S
C1130 C1142 1.349 . S
C1131 C1129 1.327 . S
C1131 C1147 1.429 . S
C1131 H1153 0.950 . S
C1132 H1128 0.949 . S
C1132 C1140 1.574 . S
C1132 C1148 1.368 . S
H1133 C1141 0.950 . S
H1134 C1139 0.950 . S
H1135 C1140 0.949 . S
H1136 C1142 0.950 . S
H1137 C1143 0.950 . S
H1138 C1144 0.949 . S
C1139 H1134 0.950 . S
C1139 C1141 1.327 . S
C1139 C1145 1.429 . S
C1140 C1132 1.574 . S
C1140 H1135 0.949 . S
C1140 C1146 1.368 . S
C1141 C1125 1.349 . S
C1141 H1133 0.950 . S
C1141 C1139 1.327 . S
C1142 C1130 1.349 . S
C1142 H1136 0.950 . S
C1142 C1143 1.327 . S
C1143 H1137 0.950 . S
C1143 C1142 1.327 . S
C1143 C1147 1.429 . S
C1144 C1127 1.574 . S
C1144 H1138 0.949 . S
C1144 C1148 1.368 . S
C1145 C1126 1.429 . S
C1145 C1139 1.429 . S
C1145 C1146 1.523 . S
C1146 C1127 1.368 . S
C1146 C1140 1.368 . S
C1146 C1145 1.523 . S
C1147 C1131 1.429 . S
C1147 C1143 1.429 . S
C1147 C1148 1.523 . S
C1148 C1132 1.368 . S
C1148 C1144 1.368 . S
C1148 C1147 1.523 . S
H1149 C1124 0.950 . S
H1150 C1126 0.950 . S
H1151 C1127 0.949 . S
H1152 C1129 0.950 . S
H1153 C1131 0.950 . S
C1154 C1155 1.349 . S
C1154 C1156 1.327 . S
C1154 H1179 0.950 . S
C1155 C1154 1.349 . S
C1155 C1171 1.349 . S
C1156 C1154 1.327 . S
C1156 C1175 1.429 . S
C1156 H1180 0.950 . S
C1157 C1174 1.574 1_565 S
C1157 C1176 1.368 . S
C1157 H1181 0.949 . S
H1158 C1162 0.949 . S
C1159 C1160 1.349 . S
C1159 C1161 1.327 . S
C1159 H1182 0.950 . S
C1160 C1159 1.349 . S
C1160 C1172 1.349 . S
C1161 C1159 1.327 . S
C1161 C1177 1.429 . S
C1161 H1183 0.950 . S
C1162 H1158 0.949 . S
C1162 C1170 1.574 1_545 S
C1162 C1178 1.368 . S
H1163 C1171 0.950 . S
H1164 C1169 0.950 . S
H1165 C1170 0.949 . S
H1166 C1172 0.950 . S
H1167 C1173 0.950 . S
H1168 C1174 0.949 . S
C1169 H1164 0.950 . S
C1169 C1171 1.327 . S
C1169 C1175 1.429 . S
C1170 C1162 1.574 1_565 S
C1170 H1165 0.949 . S
C1170 C1176 1.368 . S
C1171 C1155 1.349 . S
C1171 H1163 0.950 . S
C1171 C1169 1.327 . S
C1172 C1160 1.349 . S
C1172 H1166 0.950 . S
C1172 C1173 1.327 . S
C1173 H1167 0.950 . S
C1173 C1172 1.327 . S
C1173 C1177 1.429 . S
C1174 C1157 1.574 1_545 S
C1174 H1168 0.949 . S
C1174 C1178 1.368 . S
C1175 C1156 1.429 . S
C1175 C1169 1.429 . S
C1175 C1176 1.523 . S
C1176 C1157 1.368 . S
C1176 C1170 1.368 . S
C1176 C1175 1.523 . S
C1177 C1161 1.429 . S
C1177 C1173 1.429 . S
C1177 C1178 1.523 . S
C1178 C1162 1.368 . S
C1178 C1174 1.368 . S
C1178 C1177 1.523 . S
H1179 C1154 0.950 . S
H1180 C1156 0.950 . S
H1181 C1157 0.949 . S
H1182 C1159 0.950 . S
H1183 C1161 0.950 . S
C1184 C1185 1.349 . S
C1184 C1186 1.327 . S
C1184 H1209 0.950 . S
C1185 C1184 1.349 . S
C1185 C1201 1.349 . S
C1186 C1184 1.327 . S
C1186 C1205 1.429 . S
C1186 H1210 0.950 . S
C1187 C1204 1.574 . S
C1187 C1206 1.368 . S
C1187 H1211 0.949 . S
H1188 C1192 0.948 1_565 S
C1189 C1190 1.349 . S
C1189 C1191 1.327 . S
C1189 H1212 0.950 . S
C1190 C1189 1.349 . S
C1190 C1202 1.349 . S
C1191 C1189 1.327 . S
C1191 C1207 1.429 . S
C1191 H1213 0.950 . S
C1192 H1188 0.948 1_545 S
C1192 C1200 1.572 1_545 S
C1192 C1208 1.371 . S
H1193 C1201 0.950 1_545 S
H1194 C1199 0.950 . S
H1195 C1200 0.949 . S
H1196 C1202 0.950 . S
H1197 C1203 0.950 . S
H1198 C1204 0.949 . S
C1199 H1194 0.950 . S
C1199 C1201 1.327 1_545 S
C1199 C1205 1.429 1_545 S
C1200 C1192 1.572 1_565 S
C1200 H1195 0.949 . S
C1200 C1206 1.368 1_565 S
C1201 C1185 1.349 . S
C1201 H1193 0.950 1_565 S
C1201 C1199 1.327 1_565 S
C1202 C1190 1.349 . S
C1202 H1196 0.950 . S
C1202 C1203 1.327 . S
C1203 H1197 0.950 . S
C1203 C1202 1.327 . S
C1203 C1207 1.429 . S
C1204 C1187 1.574 . S
C1204 H1198 0.949 . S
C1204 C1208 1.368 . S
C1205 C1186 1.429 . S
C1205 C1199 1.429 1_565 S
C1205 C1206 1.523 1_565 S
C1206 C1187 1.368 . S
C1206 C1200 1.368 1_545 S
C1206 C1205 1.523 1_545 S
C1207 C1191 1.429 . S
C1207 C1203 1.429 . S
C1207 C1208 1.523 . S
C1208 C1192 1.371 . S
C1208 C1204 1.368 . S
C1208 C1207 1.523 . S
H1209 C1184 0.950 . S
H1210 C1186 0.950 . S
H1211 C1187 0.949 . S
H1212 C1189 0.950 . S
H1213 C1191 0.950 . S
C1214 C1215 1.349 . S
C1214 C1216 1.327 . S
C1214 H1239 0.950 . S
C1215 C1214 1.349 . S
C1215 C1231 1.349 . S
C1216 C1214 1.327 . S
C1216 C1235 1.429 . S
C1216 H1240 0.950 . S
C1217 C1234 1.574 . S
C1217 C1236 1.368 . S
C1217 H1241 0.949 . S
H1218 C1222 0.949 . S
C1219 C1220 1.349 . S
C1219 C1221 1.327 1_545 S
C1219 H1242 0.950 1_545 S
C1220 C1219 1.349 . S
C1220 C1232 1.349 . S
C1221 C1219 1.327 1_565 S
C1221 C1237 1.429 1_565 S
C1221 H1243 0.950 . S
C1222 H1218 0.949 . S
C1222 C1230 1.574 1_545 S
C1222 C1238 1.368 1_545 S
H1223 C1231 0.950 . S
H1224 C1229 0.950 . S
H1225 C1230 0.949 1_545 S
H1226 C1232 0.950 . S
H1227 C1233 0.950 . S
H1228 C1234 0.949 . S
C1229 H1224 0.950 . S
C1229 C1231 1.327 . S
C1229 C1235 1.429 . S
C1230 C1222 1.574 1_565 S
C1230 H1225 0.949 1_565 S
C1230 C1236 1.368 . S
C1231 C1215 1.349 . S
C1231 H1223 0.950 . S
C1231 C1229 1.327 . S
C1232 C1220 1.349 . S
C1232 H1226 0.950 . S
C1232 C1233 1.327 . S
C1233 H1227 0.950 . S
C1233 C1232 1.327 . S
C1233 C1237 1.429 . S
C1234 C1217 1.574 . S
C1234 H1228 0.949 . S
C1234 C1238 1.368 . S
C1235 C1216 1.429 . S
C1235 C1229 1.429 . S
C1235 C1236 1.523 . S
C1236 C1217 1.368 . S
C1236 C1230 1.368 . S
C1236 C1235 1.523 . S
C1237 C1221 1.429 1_545 S
C1237 C1233 1.429 . S
C1237 C1238 1.523 1_545 S
C1238 C1222 1.368 1_565 S
C1238 C1234 1.368 . S
C1238 C1237 1.523 1_565 S
H1239 C1214 0.950 . S
H1240 C1216 0.950 . S
H1241 C1217 0.949 . S
H1242 C1219 0.950 1_565 S
H1243 C1221 0.950 . S
C1244 C1245 1.349 . S
C1244 C1246 1.327 . S
C1244 H1269 0.950 . S
C1245 C1244 1.349 . S
C1245 C1261 1.349 . S
C1246 C1244 1.327 . S
C1246 C1265 1.429 . S
C1246 H1270 0.950 . S
C1247 C1264 1.574 . S
C1247 C1266 1.368 . S
C1247 H1271 0.949 . S
H1248 C1252 0.949 . S
C1249 C1250 1.342 1_455 S
C1249 C1251 1.327 . S
C1249 H1272 0.950 . S
C1250 C1249 1.342 1_655 S
C1250 C1262 1.359 . S
C1251 C1249 1.327 . S
C1251 C1267 1.429 1_455 S
C1251 H1273 0.950 . S
C1252 H1248 0.949 . S
C1252 C1260 1.574 . S
C1252 C1268 1.368 . S
H1253 C1261 0.950 . S
H1254 C1259 0.950 . S
H1255 C1260 0.949 . S
H1256 C1262 0.950 . S
H1257 C1263 0.950 . S
H1258 C1264 0.949 1_455 S
C1259 H1254 0.950 . S
C1259 C1261 1.327 . S
C1259 C1265 1.429 . S
C1260 C1252 1.574 . S
C1260 H1255 0.949 . S
C1260 C1266 1.368 . S
C1261 C1245 1.349 . S
C1261 H1253 0.950 . S
C1261 C1259 1.327 . S
C1262 C1250 1.359 . S
C1262 H1256 0.950 . S
C1262 C1263 1.327 . S
C1263 H1257 0.950 . S
C1263 C1262 1.327 . S
C1263 C1267 1.429 . S
C1264 C1247 1.574 . S
C1264 H1258 0.949 1_655 S
C1264 C1268 1.368 . S
C1265 C1246 1.429 . S
C1265 C1259 1.429 . S
C1265 C1266 1.523 . S
C1266 C1247 1.368 . S
C1266 C1260 1.368 . S
C1266 C1265 1.523 . S
C1267 C1251 1.429 1_655 S
C1267 C1263 1.429 . S
C1267 C1268 1.523 . S
C1268 C1252 1.368 . S
C1268 C1264 1.368 . S
C1268 C1267 1.523 . S
H1269 C1244 0.950 . S
H1270 C1246 0.950 . S
H1271 C1247 0.949 . S
H1272 C1249 0.950 . S
H1273 C1251 0.950 . S
C1274 C1275 1.344 1_655 S
C1274 C1276 1.327 . S
C1274 H1299 0.950 . S
C1275 C1274 1.344 1_455 S
C1275 C1291 1.357 . S
C1276 C1274 1.327 . S
C1276 C1295 1.429 1_655 S
C1276 H1300 0.950 . S
C1277 C1294 1.574 . S
C1277 C1296 1.368 . S
C1277 H1301 0.949 . S
H1278 C1282 0.949 . S
C1279 C1280 1.349 . S
C1279 C1281 1.327 . S
C1279 H1302 0.950 . S
C1280 C1279 1.349 . S
C1280 C1292 1.349 . S
C1281 C1279 1.327 . S
C1281 C1297 1.429 . S
C1281 H1303 0.950 . S
C1282 H1278 0.949 . S
C1282 C1290 1.574 . S
C1282 C1298 1.368 . S
H1283 C1291 0.950 . S
H1284 C1289 0.950 . S
H1285 C1290 0.949 1_655 S
H1286 C1292 0.950 . S
H1287 C1293 0.950 . S
H1288 C1294 0.949 . S
C1289 H1284 0.950 . S
C1289 C1291 1.327 . S
C1289 C1295 1.429 . S
C1290 C1282 1.574 . S
C1290 H1285 0.949 1_455 S
C1290 C1296 1.368 . S
C1291 C1275 1.357 . S
C1291 H1283 0.950 . S
C1291 C1289 1.327 . S
C1292 C1280 1.349 . S
C1292 H1286 0.950 . S
C1292 C1293 1.327 . S
C1293 H1287 0.950 . S
C1293 C1292 1.327 . S
C1293 C1297 1.429 . S
C1294 C1277 1.574 . S
C1294 H1288 0.949 . S
C1294 C1298 1.368 . S
C1295 C1276 1.429 1_455 S
C1295 C1289 1.429 . S
C1295 C1296 1.523 . S
C1296 C1277 1.368 . S
C1296 C1290 1.368 . S
C1296 C1295 1.523 . S
C1297 C1281 1.429 . S
C1297 C1293 1.429 . S
C1297 C1298 1.523 . S
C1298 C1282 1.368 . S
C1298 C1294 1.368 . S
C1298 C1297 1.523 . S
H1299 C1274 0.950 . S
H1300 C1276 0.950 . S
H1301 C1277 0.949 . S
H1302 C1279 0.950 . S
H1303 C1281 0.950 . S
C1304 C1305 1.349 . S
C1304 C1306 1.327 . S
C1304 H1329 0.950 . S
C1305 C1304 1.349 . S
C1305 C1321 1.349 . S
C1306 C1304 1.327 . S
C1306 C1325 1.429 . S
C1306 H1330 0.950 . S
C1307 C1324 1.574 . S
C1307 C1326 1.368 . S
C1307 H1331 0.949 . S
H1308 C1312 0.949 . S
C1309 C1310 1.349 . S
C1309 C1311 1.327 . S
C1309 H1332 0.950 . S
C1310 C1309 1.349 . S
C1310 C1322 1.349 . S
C1311 C1309 1.327 . S
C1311 C1327 1.429 . S
C1311 H1333 0.950 . S
C1312 H1308 0.949 . S
C1312 C1320 1.574 . S
C1312 C1328 1.368 . S
H1313 C1321 0.950 . S
H1314 C1319 0.950 . S
H1315 C1320 0.949 . S
H1316 C1322 0.950 . S
H1317 C1323 0.950 . S
H1318 C1324 0.949 . S
C1319 H1314 0.950 . S
C1319 C1321 1.327 . S
C1319 C1325 1.429 . S
C1320 C1312 1.574 . S
C1320 H1315 0.949 . S
C1320 C1326 1.368 . S
C1321 C1305 1.349 . S
C1321 H1313 0.950 . S
C1321 C1319 1.327 . S
C1322 C1310 1.349 . S
C1322 H1316 0.950 . S
C1322 C1323 1.327 . S
C1323 H1317 0.950 . S
C1323 C1322 1.327 . S
C1323 C1327 1.429 . S
C1324 C1307 1.574 . S
C1324 H1318 0.949 . S
C1324 C1328 1.368 . S
C1325 C1306 1.429 . S
C1325 C1319 1.429 . S
C1325 C1326 1.523 . S
C1326 C1307 1.368 . S
C1326 C1320 1.368 . S
C1326 C1325 1.523 . S
C1327 C1311 1.429 . S
C1327 C1323 1.429 . S
C1327 C1328 1.523 . S
C1328 C1312 1.368 . S
C1328 C1324 1.368 . S
C1328 C1327 1.523 . S
H1329 C1304 0.950 . S
H1330 C1306 0.950 . S
H1331 C1307 0.949 . S
H1332 C1309 0.950 . S
H1333 C1311 0.950 . S
C1334 C1335 1.349 . S
C1334 C1336 1.327 . S
C1334 H1359 0.950 . S
C1335 C1334 1.349 . S
C1335 C1351 1.349 . S
C1336 C1334 1.327 . S
C1336 C1355 1.429 . S
C1336 H1360 0.950 . S
C1337 C1354 1.574 . S
C1337 C1356 1.368 . S
C1337 H1361 0.949 . S
H1338 C1342 0.949 . S
C1339 C1340 1.349 . S
C1339 C1341 1.327 . S
C1339 H1362 0.950 . S
C1340 C1339 1.349 . S
C1340 C1352 1.349 . S
C1341 C1339 1.327 . S
C1341 C1357 1.429 . S
C1341 H1363 0.950 . S
C1342 H1338 0.949 . S
C1342 C1350 1.574 . S
C1342 C1358 1.368 . S
H1343 C1351 0.950 . S
H1344 C1349 0.950 . S
H1345 C1350 0.949 . S
H1346 C1352 0.950 . S
H1347 C1353 0.950 . S
H1348 C1354 0.949 . S
C1349 H1344 0.950 . S
C1349 C1351 1.327 . S
C1349 C1355 1.429 . S
C1350 C1342 1.574 . S
C1350 H1345 0.949 . S
C1350 C1356 1.368 . S
C1351 C1335 1.349 . S
C1351 H1343 0.950 . S
C1351 C1349 1.327 . S
C1352 C1340 1.349 . S
C1352 H1346 0.950 . S
C1352 C1353 1.327 . S
C1353 H1347 0.950 . S
C1353 C1352 1.327 . S
C1353 C1357 1.429 . S
C1354 C1337 1.574 . S
C1354 H1348 0.949 . S
C1354 C1358 1.368 . S
C1355 C1336 1.429 . S
C1355 C1349 1.429 . S
C1355 C1356 1.523 . S
C1356 C1337 1.368 . S
C1356 C1350 1.368 . S
C1356 C1355 1.523 . S
C1357 C1341 1.429 . S
C1357 C1353 1.429 . S
C1357 C1358 1.523 . S
C1358 C1342 1.368 . S
C1358 C1354 1.368 . S
C1358 C1357 1.523 . S
H1359 C1334 0.950 . S
H1360 C1336 0.950 . S
H1361 C1337 0.949 . S
H1362 C1339 0.950 . S
H1363 C1341 0.950 . S
C1364 C1365 1.345 1_455 S
C1364 C1366 1.327 . S
C1364 H1389 0.950 . S
C1365 C1364 1.345 1_655 S
C1365 C1381 1.357 . S
C1366 C1364 1.327 . S
C1366 C1385 1.429 1_455 S
C1366 H1390 0.950 . S
C1367 C1384 1.574 1_554 S
C1367 C1386 1.368 . S
C1367 H1391 0.949 . S
H1368 C1372 0.949 . S
C1369 C1370 1.349 . S
C1369 C1371 1.327 . S
C1369 H1392 0.950 . S
C1370 C1369 1.349 . S
C1370 C1382 1.349 . S
C1371 C1369 1.327 . S
C1371 C1387 1.429 . S
C1371 H1393 0.950 . S
C1372 H1368 0.949 . S
C1372 C1380 1.543 1_556 S
C1372 C1388 1.368 . S
H1373 C1381 0.950 . S
H1374 C1379 0.950 . S
H1375 C1380 0.953 . S
H1376 C1382 0.950 . S
H1377 C1383 0.950 . S
H1378 C1384 0.949 . S
C1379 H1374 0.950 . S
C1379 C1381 1.327 . S
C1379 C1385 1.429 . S
C1380 C1372 1.543 1_554 S
C1380 H1375 0.953 . S
C1380 C1386 1.395 . S
C1381 C1365 1.357 . S
C1381 H1373 0.950 . S
C1381 C1379 1.327 . S
C1382 C1370 1.349 . S
C1382 H1376 0.950 . S
C1382 C1383 1.327 . S
C1383 H1377 0.950 . S
C1383 C1382 1.327 . S
C1383 C1387 1.429 . S
C1384 C1367 1.574 1_556 S
C1384 H1378 0.949 . S
C1384 C1388 1.368 . S
C1385 C1366 1.429 1_655 S
C1385 C1379 1.429 . S
C1385 C1386 1.523 . S
C1386 C1367 1.368 . S
C1386 C1380 1.395 . S
C1386 C1385 1.523 . S
C1387 C1371 1.429 . S
C1387 C1383 1.429 . S
C1387 C1388 1.523 . S
C1388 C1372 1.368 . S
C1388 C1384 1.368 . S
C1388 C1387 1.523 . S
H1389 C1364 0.950 . S
H1390 C1366 0.950 . S
H1391 C1367 0.949 . S
H1392 C1369 0.950 . S
H1393 C1371 0.950 . S
C1394 C1395 1.340 1_655 S
C1394 C1396 1.327 . S
C1394 H1419 0.950 . S
C1395 C1394 1.340 1_455 S
C1395 C1411 1.361 . S
C1396 C1394 1.327 . S
C1396 C1415 1.429 1_655 S
C1396 H1420 0.950 . S
C1397 C1414 1.574 1_554 S
C1397 C1416 1.368 . S
C1397 H1421 0.949 . S
H1398 C1402 0.949 1_655 S
C1399 C1400 1.349 . S
C1399 C1401 1.327 . S
C1399 H1422 0.950 . S
C1400 C1399 1.349 . S
C1400 C1412 1.349 . S
C1401 C1399 1.327 . S
C1401 C1417 1.429 . S
C1401 H1423 0.950 . S
C1402 H1398 0.949 1_455 S
C1402 C1410 1.590 1_556 S
C1402 C1418 1.368 . S
H1403 C1411 0.950 . S
H1404 C1409 0.950 . S
H1405 C1410 0.896 1_655 S
H1406 C1412 0.950 . S
H1407 C1413 0.950 . S
H1408 C1414 0.949 . S
C1409 H1404 0.950 . S
C1409 C1411 1.327 . S
C1409 C1415 1.429 . S
C1410 C1402 1.590 1_554 S
C1410 H1405 0.896 1_455 S
C1410 C1416 1.414 . S
C1411 C1395 1.361 . S
C1411 H1403 0.950 . S
C1411 C1409 1.327 . S
C1412 C1400 1.349 . S
C1412 H1406 0.950 . S
C1412 C1413 1.327 . S
C1413 H1407 0.950 . S
C1413 C1412 1.327 . S
C1413 C1417 1.429 . S
C1414 C1397 1.574 1_556 S
C1414 H1408 0.949 . S
C1414 C1418 1.368 . S
C1415 C1396 1.429 1_455 S
C1415 C1409 1.429 . S
C1415 C1416 1.523 . S
C1416 C1397 1.368 . S
C1416 C1410 1.414 . S
C1416 C1415 1.523 . S
C1417 C1401 1.429 . S
C1417 C1413 1.429 . S
C1417 C1418 1.523 . S
C1418 C1402 1.368 . S
C1418 C1414 1.368 . S
C1418 C1417 1.523 . S
H1419 C1394 0.950 . S
H1420 C1396 0.950 . S
H1421 C1397 0.949 . S
H1422 C1399 0.950 . S
H1423 C1401 0.950 . S
C1424 C1425 1.349 . S
C1424 C1426 1.327 . S
C1424 H1449 0.950 . S
C1425 C1424 1.349 . S
C1425 C1441 1.349 . S
C1426 C1424 1.327 . S
C1426 C1445 1.429 . S
C1426 H1450 0.950 . S
C1427 C1444 1.574 . S
C1427 C1446 1.368 . S
C1427 H1451 0.949 . S
H1428 C1432 0.948 1_565 S
C1429 C1430 1.349 . S
C1429 C1431 1.327 . S
C1429 H1452 0.950 . S
C1430 C1429 1.349 . S
C1430 C1442 1.349 . S
C1431 C1429 1.327 . S
C1431 C1447 1.429 . S
C1431 H1453 0.950 . S
C1432 H1428 0.948 1_545 S
C1432 C1440 1.573 1_545 S
C1432 C1448 1.371 . S
H1433 C1441 0.950 1_545 S
H1434 C1439 0.950 . S
H1435 C1440 0.949 . S
H1436 C1442 0.950 . S
H1437 C1443 0.950 . S
H1438 C1444 0.949 . S
C1439 H1434 0.950 . S
C1439 C1441 1.327 1_545 S
C1439 C1445 1.429 1_545 S
C1440 C1432 1.573 1_565 S
C1440 H1435 0.949 . S
C1440 C1446 1.368 1_565 S
C1441 C1425 1.349 . S
C1441 H1433 0.950 1_565 S
C1441 C1439 1.327 1_565 S
C1442 C1430 1.349 . S
C1442 H1436 0.950 . S
C1442 C1443 1.327 . S
C1443 H1437 0.950 . S
C1443 C1442 1.327 . S
C1443 C1447 1.429 . S
C1444 C1427 1.574 . S
C1444 H1438 0.949 . S
C1444 C1448 1.368 . S
C1445 C1426 1.429 . S
C1445 C1439 1.429 1_565 S
C1445 C1446 1.523 1_565 S
C1446 C1427 1.368 . S
C1446 C1440 1.368 1_545 S
C1446 C1445 1.523 1_545 S
C1447 C1431 1.429 . S
C1447 C1443 1.429 . S
C1447 C1448 1.523 . S
C1448 C1432 1.371 . S
C1448 C1444 1.368 . S
C1448 C1447 1.523 . S
H1449 C1424 0.950 . S
H1450 C1426 0.950 . S
H1451 C1427 0.949 . S
H1452 C1429 0.950 . S
H1453 C1431 0.950 . S
C1454 C1455 1.349 . S
C1454 C1456 1.327 1_545 S
C1454 H1479 0.950 . S
C1455 C1454 1.349 . S
C1455 C1471 1.349 . S
C1456 C1454 1.327 1_565 S
C1456 C1475 1.429 1_565 S
C1456 H1480 0.950 . S
C1457 C1474 1.574 1_545 S
C1457 C1476 1.368 1_545 S
C1457 H1481 0.949 . S
H1458 C1462 0.949 . S
C1459 C1460 1.349 . S
C1459 C1461 1.327 . S
C1459 H1482 0.950 . S
C1460 C1459 1.349 . S
C1460 C1472 1.349 . S
C1461 C1459 1.327 . S
C1461 C1477 1.429 . S
C1461 H1483 0.950 . S
C1462 H1458 0.949 . S
C1462 C1470 1.574 . S
C1462 C1478 1.368 . S
H1463 C1471 0.950 . S
H1464 C1469 0.950 . S
H1465 C1470 0.949 . S
H1466 C1472 0.950 . S
H1467 C1473 0.950 . S
H1468 C1474 0.938 1_545 S
C1469 H1464 0.950 . S
C1469 C1471 1.327 . S
C1469 C1475 1.429 . S
C1470 C1462 1.574 . S
C1470 H1465 0.949 . S
C1470 C1476 1.368 . S
C1471 C1455 1.349 . S
C1471 H1463 0.950 . S
C1471 C1469 1.327 . S
C1472 C1460 1.349 . S
C1472 H1466 0.950 . S
C1472 C1473 1.327 . S
C1473 H1467 0.950 . S
C1473 C1472 1.327 . S
C1473 C1477 1.429 . S
C1474 C1457 1.574 1_565 S
C1474 H1468 0.938 1_565 S
C1474 C1478 1.368 . S
C1475 C1456 1.429 1_545 S
C1475 C1469 1.429 . S
C1475 C1476 1.523 1_545 S
C1476 C1457 1.368 1_565 S
C1476 C1470 1.368 . S
C1476 C1475 1.523 1_565 S
C1477 C1461 1.429 . S
C1477 C1473 1.429 . S
C1477 C1478 1.523 . S
C1478 C1462 1.368 . S
C1478 C1474 1.368 . S
C1478 C1477 1.523 . S
H1479 C1454 0.950 . S
H1480 C1456 0.950 . S
H1481 C1457 0.949 . S
H1482 C1459 0.950 . S
H1483 C1461 0.950 . S
C1484 C1485 1.349 . S
C1484 C1486 1.327 . S
C1484 H1509 0.950 . S
C1485 C1484 1.349 . S
C1485 C1501 1.349 . S
C1486 C1484 1.327 . S
C1486 C1505 1.429 . S
C1486 H1510 0.950 . S
C1487 C1504 1.574 1_554 S
C1487 C1506 1.368 . S
C1487 H1511 0.949 . S
H1488 C1492 0.949 . S
C1489 C1490 1.349 . S
C1489 C1491 1.327 . S
C1489 H1512 0.950 . S
C1490 C1489 1.349 . S
C1490 C1502 1.349 . S
C1491 C1489 1.327 . S
C1491 C1507 1.429 . S
C1491 H1513 0.950 . S
C1492 H1488 0.949 . S
C1492 C1500 1.574 1_556 S
C1492 C1508 1.368 . S
H1493 C1501 0.950 . S
H1494 C1499 0.950 . S
H1495 C1500 0.949 . S
H1496 C1502 0.950 . S
H1497 C1503 0.950 . S
H1498 C1504 0.949 . S
C1499 H1494 0.950 . S
C1499 C1501 1.327 . S
C1499 C1505 1.429 . S
C1500 C1492 1.574 1_554 S
C1500 H1495 0.949 . S
C1500 C1506 1.368 . S
C1501 C1485 1.349 . S
C1501 H1493 0.950 . S
C1501 C1499 1.327 . S
C1502 C1490 1.349 . S
C1502 H1496 0.950 . S
C1502 C1503 1.327 . S
C1503 H1497 0.950 . S
C1503 C1502 1.327 . S
C1503 C1507 1.429 . S
C1504 C1487 1.574 1_556 S
C1504 H1498 0.949 . S
C1504 C1508 1.368 . S
C1505 C1486 1.429 . S
C1505 C1499 1.429 . S
C1505 C1506 1.523 . S
C1506 C1487 1.368 . S
C1506 C1500 1.368 . S
C1506 C1505 1.523 . S
C1507 C1491 1.429 . S
C1507 C1503 1.429 . S
C1507 C1508 1.523 . S
C1508 C1492 1.368 . S
C1508 C1504 1.368 . S
C1508 C1507 1.523 . S
H1509 C1484 0.950 . S
H1510 C1486 0.950 . S
H1511 C1487 0.949 . S
H1512 C1489 0.950 . S
H1513 C1491 0.950 . S
C1514 C1515 1.349 . S
C1514 C1516 1.327 . S
C1514 H1539 0.950 . S
C1515 C1514 1.349 . S
C1515 C1531 1.349 . S
C1516 C1514 1.327 . S
C1516 C1535 1.429 . S
C1516 H1540 0.950 . S
C1517 C1534 1.574 1_554 S
C1517 C1536 1.368 . S
C1517 H1541 0.949 . S
H1518 C1522 0.949 . S
C1519 C1520 1.349 . S
C1519 C1521 1.327 . S
C1519 H1542 0.950 . S
C1520 C1519 1.349 . S
C1520 C1532 1.349 . S
C1521 C1519 1.327 . S
C1521 C1537 1.429 . S
C1521 H1543 0.950 . S
C1522 H1518 0.949 . S
C1522 C1530 1.543 1_556 S
C1522 C1538 1.368 . S
H1523 C1531 0.950 . S
H1524 C1529 0.950 . S
H1525 C1530 0.953 . S
H1526 C1532 0.950 . S
H1527 C1533 0.950 . S
H1528 C1534 0.949 . S
C1529 H1524 0.950 . S
C1529 C1531 1.327 . S
C1529 C1535 1.429 . S
C1530 C1522 1.543 1_554 S
C1530 H1525 0.953 . S
C1530 C1536 1.395 . S
C1531 C1515 1.349 . S
C1531 H1523 0.950 . S
C1531 C1529 1.327 . S
C1532 C1520 1.349 . S
C1532 H1526 0.950 . S
C1532 C1533 1.327 . S
C1533 H1527 0.950 . S
C1533 C1532 1.327 . S
C1533 C1537 1.429 . S
C1534 C1517 1.574 1_556 S
C1534 H1528 0.949 . S
C1534 C1538 1.368 . S
C1535 C1516 1.429 . S
C1535 C1529 1.429 . S
C1535 C1536 1.523 . S
C1536 C1517 1.368 . S
C1536 C1530 1.395 . S
C1536 C1535 1.523 . S
C1537 C1521 1.429 . S
C1537 C1533 1.429 . S
C1537 C1538 1.523 . S
C1538 C1522 1.368 . S
C1538 C1534 1.368 . S
C1538 C1537 1.523 . S
H1539 C1514 0.950 . S
H1540 C1516 0.950 . S
H1541 C1517 0.949 . S
H1542 C1519 0.950 . S
H1543 C1521 0.950 . S
C1544 C1545 1.349 . S
C1544 C1546 1.327 . S
C1544 H1569 0.950 . S
C1545 C1544 1.349 . S
C1545 C1561 1.349 . S
C1546 C1544 1.327 . S
C1546 C1565 1.429 . S
C1546 H1570 0.950 . S
C1547 C1564 1.574 . S
C1547 C1566 1.368 . S
C1547 H1571 0.949 . S
H1548 C1552 0.949 . S
C1549 C1550 1.349 . S
C1549 C1551 1.327 . S
C1549 H1572 0.950 . S
C1550 C1549 1.349 . S
C1550 C1562 1.349 . S
C1551 C1549 1.327 . S
C1551 C1567 1.429 . S
C1551 H1573 0.950 . S
C1552 H1548 0.949 . S
C1552 C1560 1.574 . S
C1552 C1568 1.368 . S
H1553 C1561 0.950 . S
H1554 C1559 0.950 . S
H1555 C1560 0.949 . S
H1556 C1562 0.950 . S
H1557 C1563 0.950 . S
H1558 C1564 0.949 . S
C1559 H1554 0.950 . S
C1559 C1561 1.327 . S
C1559 C1565 1.429 . S
C1560 C1552 1.574 . S
C1560 H1555 0.949 . S
C1560 C1566 1.368 . S
C1561 C1545 1.349 . S
C1561 H1553 0.950 . S
C1561 C1559 1.327 . S
C1562 C1550 1.349 . S
C1562 H1556 0.950 . S
C1562 C1563 1.327 . S
C1563 H1557 0.950 . S
C1563 C1562 1.327 . S
C1563 C1567 1.429 . S
C1564 C1547 1.574 . S
C1564 H1558 0.949 . S
C1564 C1568 1.368 . S
C1565 C1546 1.429 . S
C1565 C1559 1.429 . S
C1565 C1566 1.523 . S
C1566 C1547 1.368 . S
C1566 C1560 1.368 . S
C1566 C1565 1.523 . S
C1567 C1551 1.429 . S
C1567 C1563 1.429 . S
C1567 C1568 1.523 . S
C1568 C1552 1.368 . S
C1568 C1564 1.368 . S
C1568 C1567 1.523 . S
H1569 C1544 0.950 . S
H1570 C1546 0.950 . S
H1571 C1547 0.949 . S
H1572 C1549 0.950 . S
H1573 C1551 0.950 . S
C1574 C1575 1.349 . S
C1574 C1576 1.327 . S
C1574 H1599 0.950 . S
C1575 C1574 1.349 . S
C1575 C1591 1.349 . S
C1576 C1574 1.327 . S
C1576 C1595 1.429 . S
C1576 H1600 0.950 . S
C1577 C1594 1.574 . S
C1577 C1596 1.368 . S
C1577 H1601 0.949 . S
H1578 C1582 0.949 . S
C1579 C1580 1.349 . S
C1579 C1581 1.327 . S
C1579 H1602 0.950 . S
C1580 C1579 1.349 . S
C1580 C1592 1.349 . S
C1581 C1579 1.327 . S
C1581 C1597 1.429 . S
C1581 H1603 0.950 . S
C1582 H1578 0.949 . S
C1582 C1590 1.574 . S
C1582 C1598 1.368 . S
H1583 C1591 0.950 . S
H1584 C1589 0.950 . S
H1585 C1590 0.949 . S
H1586 C1592 0.950 . S
H1587 C1593 0.950 . S
H1588 C1594 0.949 . S
C1589 H1584 0.950 . S
C1589 C1591 1.327 . S
C1589 C1595 1.429 . S
C1590 C1582 1.574 . S
C1590 H1585 0.949 . S
C1590 C1596 1.368 . S
C1591 C1575 1.349 . S
C1591 H1583 0.950 . S
C1591 C1589 1.327 . S
C1592 C1580 1.349 . S
C1592 H1586 0.950 . S
C1592 C1593 1.327 . S
C1593 H1587 0.950 . S
C1593 C1592 1.327 . S
C1593 C1597 1.429 . S
C1594 C1577 1.574 . S
C1594 H1588 0.949 . S
C1594 C1598 1.368 . S
C1595 C1576 1.429 . S
C1595 C1589 1.429 . S
C1595 C1596 1.523 . S
C1596 C1577 1.368 . S
C1596 C1590 1.368 . S
C1596 C1595 1.523 . S
C1597 C1581 1.429 . S
C1597 C1593 1.429 . S
C1597 C1598 1.523 . S
C1598 C1582 1.368 . S
C1598 C1594 1.368 . S
C1598 C1597 1.523 . S
H1599 C1574 0.950 . S
H1600 C1576 0.950 . S
H1601 C1577 0.949 . S
H1602 C1579 0.950 . S
H1603 C1581 0.950 . S
C1604 C1605 1.349 . S
C1604 C1606 1.327 . S
C1604 H1629 0.950 . S
C1605 C1604 1.349 . S
C1605 C1621 1.349 . S
C1606 C1604 1.327 . S
C1606 C1625 1.429 . S
C1606 H1630 0.950 . S
C1607 C1624 1.574 . S
C1607 C1626 1.368 . S
C1607 H1631 0.949 . S
H1608 C1612 0.949 . S
C1609 C1610 1.349 . S
C1609 C1611 1.327 . S
C1609 H1632 0.950 . S
C1610 C1609 1.349 . S
C1610 C1622 1.349 . S
C1611 C1609 1.327 . S
C1611 C1627 1.429 . S
C1611 H1633 0.950 . S
C1612 H1608 0.949 . S
C1612 C1620 1.574 . S
C1612 C1628 1.368 . S
H1613 C1621 0.950 . S
H1614 C1619 0.950 . S
H1615 C1620 0.949 . S
H1616 C1622 0.950 . S
H1617 C1623 0.950 . S
H1618 C1624 0.949 . S
C1619 H1614 0.950 . S
C1619 C1621 1.327 . S
C1619 C1625 1.429 . S
C1620 C1612 1.574 . S
C1620 H1615 0.949 . S
C1620 C1626 1.368 . S
C1621 C1605 1.349 . S
C1621 H1613 0.950 . S
C1621 C1619 1.327 . S
C1622 C1610 1.349 . S
C1622 H1616 0.950 . S
C1622 C1623 1.327 . S
C1623 H1617 0.950 . S
C1623 C1622 1.327 . S
C1623 C1627 1.429 . S
C1624 C1607 1.574 . S
C1624 H1618 0.949 . S
C1624 C1628 1.368 . S
C1625 C1606 1.429 . S
C1625 C1619 1.429 . S
C1625 C1626 1.523 . S
C1626 C1607 1.368 . S
C1626 C1620 1.368 . S
C1626 C1625 1.523 . S
C1627 C1611 1.429 . S
C1627 C1623 1.429 . S
C1627 C1628 1.523 . S
C1628 C1612 1.368 . S
C1628 C1624 1.368 . S
C1628 C1627 1.523 . S
H1629 C1604 0.950 . S
H1630 C1606 0.950 . S
H1631 C1607 0.949 . S
H1632 C1609 0.950 . S
H1633 C1611 0.950 . S
C1634 C1635 1.349 . S
C1634 C1636 1.327 . S
C1634 H1659 0.950 . S
C1635 C1634 1.349 . S
C1635 C1651 1.349 . S
C1636 C1634 1.327 . S
C1636 C1655 1.429 . S
C1636 H1660 0.950 . S
C1637 C1654 1.574 . S
C1637 C1656 1.368 . S
C1637 H1661 0.949 . S
H1638 C1642 0.949 . S
C1639 C1640 1.349 . S
C1639 C1641 1.327 . S
C1639 H1662 0.950 . S
C1640 C1639 1.349 . S
C1640 C1652 1.349 . S
C1641 C1639 1.327 . S
C1641 C1657 1.429 . S
C1641 H1663 0.950 . S
C1642 H1638 0.949 . S
C1642 C1650 1.574 . S
C1642 C1658 1.368 . S
H1643 C1651 0.950 . S
H1644 C1649 0.950 . S
H1645 C1650 0.949 . S
H1646 C1652 0.950 . S
H1647 C1653 0.950 . S
H1648 C1654 0.949 . S
C1649 H1644 0.950 . S
C1649 C1651 1.327 . S
C1649 C1655 1.429 . S
C1650 C1642 1.574 . S
C1650 H1645 0.949 . S
C1650 C1656 1.368 . S
C1651 C1635 1.349 . S
C1651 H1643 0.950 . S
C1651 C1649 1.327 . S
C1652 C1640 1.349 . S
C1652 H1646 0.950 . S
C1652 C1653 1.327 . S
C1653 H1647 0.950 . S
C1653 C1652 1.327 . S
C1653 C1657 1.429 . S
C1654 C1637 1.574 . S
C1654 H1648 0.949 . S
C1654 C1658 1.368 . S
C1655 C1636 1.429 . S
C1655 C1649 1.429 . S
C1655 C1656 1.523 . S
C1656 C1637 1.368 . S
C1656 C1650 1.368 . S
C1656 C1655 1.523 . S
C1657 C1641 1.429 . S
C1657 C1653 1.429 . S
C1657 C1658 1.523 . S
C1658 C1642 1.368 . S
C1658 C1654 1.368 . S
C1658 C1657 1.523 . S
H1659 C1634 0.950 . S
H1660 C1636 0.950 . S
H1661 C1637 0.949 . S
H1662 C1639 0.950 . S
H1663 C1641 0.950 . S
C1664 C1665 1.349 . S
C1664 C1666 1.327 . S
C1664 H1689 0.950 . S
C1665 C1664 1.349 . S
C1665 C1681 1.349 . S
C1666 C1664 1.327 . S
C1666 C1685 1.429 . S
C1666 H1690 0.950 . S
C1667 C1684 1.574 . S
C1667 C1686 1.368 . S
C1667 H1691 0.949 . S
H1668 C1672 0.949 . S
C1669 C1670 1.349 . S
C1669 C1671 1.327 . S
C1669 H1692 0.950 . S
C1670 C1669 1.349 . S
C1670 C1682 1.349 . S
C1671 C1669 1.327 . S
C1671 C1687 1.429 . S
C1671 H1693 0.950 . S
C1672 H1668 0.949 . S
C1672 C1680 1.574 . S
C1672 C1688 1.368 . S
H1673 C1681 0.950 . S
H1674 C1679 0.950 . S
H1675 C1680 0.949 . S
H1676 C1682 0.950 . S
H1677 C1683 0.950 . S
H1678 C1684 0.949 . S
C1679 H1674 0.950 . S
C1679 C1681 1.327 . S
C1679 C1685 1.429 . S
C1680 C1672 1.574 . S
C1680 H1675 0.949 . S
C1680 C1686 1.368 . S
C1681 C1665 1.349 . S
C1681 H1673 0.950 . S
C1681 C1679 1.327 . S
C1682 C1670 1.349 . S
C1682 H1676 0.950 . S
C1682 C1683 1.327 . S
C1683 H1677 0.950 . S
C1683 C1682 1.327 . S
C1683 C1687 1.429 . S
C1684 C1667 1.574 . S
C1684 H1678 0.949 . S
C1684 C1688 1.368 . S
C1685 C1666 1.429 . S
C1685 C1679 1.429 . S
C1685 C1686 1.523 . S
C1686 C1667 1.368 . S
C1686 C1680 1.368 . S
C1686 C1685 1.523 . S
C1687 C1671 1.429 . S
C1687 C1683 1.429 . S
C1687 C1688 1.523 . S
C1688 C1672 1.368 . S
C1688 C1684 1.368 . S
C1688 C1687 1.523 . S
H1689 C1664 0.950 . S
H1690 C1666 0.950 . S
H1691 C1667 0.949 . S
H1692 C1669 0.950 . S
H1693 C1671 0.950 . S
C1694 C1695 1.349 . S
C1694 C1696 1.327 . S
C1694 H1719 0.950 . S
C1695 C1694 1.349 . S
C1695 C1711 1.349 . S
C1696 C1694 1.327 . S
C1696 C1715 1.429 . S
C1696 H1720 0.950 . S
C1697 C1714 1.574 . S
C1697 C1716 1.368 . S
C1697 H1721 0.949 . S
H1698 C1702 0.949 . S
C1699 C1700 1.349 . S
C1699 C1701 1.327 . S
C1699 H1722 0.950 . S
C1700 C1699 1.349 . S
C1700 C1712 1.349 . S
C1701 C1699 1.327 . S
C1701 C1717 1.429 . S
C1701 H1723 0.950 . S
C1702 H1698 0.949 . S
C1702 C1710 1.574 . S
C1702 C1718 1.368 . S
H1703 C1711 0.950 . S
H1704 C1709 0.950 . S
H1705 C1710 0.949 . S
H1706 C1712 0.950 . S
H1707 C1713 0.950 . S
H1708 C1714 0.949 . S
C1709 H1704 0.950 . S
C1709 C1711 1.327 . S
C1709 C1715 1.429 . S
C1710 C1702 1.574 . S
C1710 H1705 0.949 . S
C1710 C1716 1.368 . S
C1711 C1695 1.349 . S
C1711 H1703 0.950 . S
C1711 C1709 1.327 . S
C1712 C1700 1.349 . S
C1712 H1706 0.950 . S
C1712 C1713 1.327 . S
C1713 H1707 0.950 . S
C1713 C1712 1.327 . S
C1713 C1717 1.429 . S
C1714 C1697 1.574 . S
C1714 H1708 0.949 . S
C1714 C1718 1.368 . S
C1715 C1696 1.429 . S
C1715 C1709 1.429 . S
C1715 C1716 1.523 . S
C1716 C1697 1.368 . S
C1716 C1710 1.368 . S
C1716 C1715 1.523 . S
C1717 C1701 1.429 . S
C1717 C1713 1.429 . S
C1717 C1718 1.523 . S
C1718 C1702 1.368 . S
C1718 C1714 1.368 . S
C1718 C1717 1.523 . S
H1719 C1694 0.950 . S
H1720 C1696 0.950 . S
H1721 C1697 0.949 . S
H1722 C1699 0.950 . S
H1723 C1701 0.950 . S
C1724 C1725 1.349 . S
C1724 C1726 1.327 . S
C1724 H1749 0.950 . S
C1725 C1724 1.349 . S
C1725 C1741 1.349 . S
C1726 C1724 1.327 . S
C1726 C1745 1.429 . S
C1726 H1750 0.950 . S
C1727 C1744 1.574 . S
C1727 C1746 1.368 . S
C1727 H1751 0.949 . S
H1728 C1732 0.949 . S
C1729 C1730 1.349 . S
C1729 C1731 1.327 . S
C1729 H1752 0.950 . S
C1730 C1729 1.349 . S
C1730 C1742 1.349 . S
C1731 C1729 1.327 . S
C1731 C1747 1.429 . S
C1731 H1753 0.950 . S
C1732 H1728 0.949 . S
C1732 C1740 1.574 . S
C1732 C1748 1.368 . S
H1733 C1741 0.950 . S
H1734 C1739 0.950 . S
H1735 C1740 0.949 . S
H1736 C1742 0.950 . S
H1737 C1743 0.950 . S
H1738 C1744 0.949 . S
C1739 H1734 0.950 . S
C1739 C1741 1.327 . S
C1739 C1745 1.429 . S
C1740 C1732 1.574 . S
C1740 H1735 0.949 . S
C1740 C1746 1.368 . S
C1741 C1725 1.349 . S
C1741 H1733 0.950 . S
C1741 C1739 1.327 . S
C1742 C1730 1.349 . S
C1742 H1736 0.950 . S
C1742 C1743 1.327 . S
C1743 H1737 0.950 . S
C1743 C1742 1.327 . S
C1743 C1747 1.429 . S
C1744 C1727 1.574 . S
C1744 H1738 0.949 . S
C1744 C1748 1.368 . S
C1745 C1726 1.429 . S
C1745 C1739 1.429 . S
C1745 C1746 1.523 . S
C1746 C1727 1.368 . S
C1746 C1740 1.368 . S
C1746 C1745 1.523 . S
C1747 C1731 1.429 . S
C1747 C1743 1.429 . S
C1747 C1748 1.523 . S
C1748 C1732 1.368 . S
C1748 C1744 1.368 . S
C1748 C1747 1.523 . S
H1749 C1724 0.950 . S
H1750 C1726 0.950 . S
H1751 C1727 0.949 . S
H1752 C1729 0.950 . S
H1753 C1731 0.950 . S
C1754 C1755 1.349 . S
C1754 C1756 1.327 . S
C1754 H1779 0.950 . S
C1755 C1754 1.349 . S
C1755 C1771 1.349 . S
C1756 C1754 1.327 . S
C1756 C1775 1.429 . S
C1756 H1780 0.950 . S
C1757 C1774 1.574 . S
C1757 C1776 1.368 . S
C1757 H1781 0.949 . S
H1758 C1762 0.949 . S
C1759 C1760 1.349 . S
C1759 C1761 1.327 . S
C1759 H1782 0.950 . S
C1760 C1759 1.349 . S
C1760 C1772 1.349 . S
C1761 C1759 1.327 . S
C1761 C1777 1.429 . S
C1761 H1783 0.950 . S
C1762 H1758 0.949 . S
C1762 C1770 1.574 . S
C1762 C1778 1.368 . S
H1763 C1771 0.950 . S
H1764 C1769 0.950 . S
H1765 C1770 0.949 . S
H1766 C1772 0.950 . S
H1767 C1773 0.950 . S
H1768 C1774 0.949 . S
C1769 H1764 0.950 . S
C1769 C1771 1.327 . S
C1769 C1775 1.429 . S
C1770 C1762 1.574 . S
C1770 H1765 0.949 . S
C1770 C1776 1.368 . S
C1771 C1755 1.349 . S
C1771 H1763 0.950 . S
C1771 C1769 1.327 . S
C1772 C1760 1.349 . S
C1772 H1766 0.950 . S
C1772 C1773 1.327 . S
C1773 H1767 0.950 . S
C1773 C1772 1.327 . S
C1773 C1777 1.429 . S
C1774 C1757 1.574 . S
C1774 H1768 0.949 . S
C1774 C1778 1.368 . S
C1775 C1756 1.429 . S
C1775 C1769 1.429 . S
C1775 C1776 1.523 . S
C1776 C1757 1.368 . S
C1776 C1770 1.368 . S
C1776 C1775 1.523 . S
C1777 C1761 1.429 . S
C1777 C1773 1.429 . S
C1777 C1778 1.523 . S
C1778 C1762 1.368 . S
C1778 C1774 1.368 . S
C1778 C1777 1.523 . S
H1779 C1754 0.950 . S
H1780 C1756 0.950 . S
H1781 C1757 0.949 . S
H1782 C1759 0.950 . S
H1783 C1761 0.950 . S
C1784 C1785 1.349 . S
C1784 C1786 1.327 . S
C1784 H1809 0.950 . S
C1785 C1784 1.349 . S
C1785 C1801 1.349 . S
C1786 C1784 1.327 . S
C1786 C1805 1.429 . S
C1786 H1810 0.950 . S
C1787 C1804 1.574 . S
C1787 C1806 1.368 . S
C1787 H1811 0.949 . S
H1788 C1792 0.949 . S
C1789 C1790 1.349 . S
C1789 C1791 1.327 . S
C1789 H1812 0.950 . S
C1790 C1789 1.349 . S
C1790 C1802 1.349 . S
C1791 C1789 1.327 . S
C1791 C1807 1.429 . S
C1791 H1813 0.950 . S
C1792 H1788 0.949 . S
C1792 C1800 1.574 . S
C1792 C1808 1.368 . S
H1793 C1801 0.950 . S
H1794 C1799 0.950 . S
H1795 C1800 0.949 . S
H1796 C1802 0.950 . S
H1797 C1803 0.950 . S
H1798 C1804 0.949 . S
C1799 H1794 0.950 . S
C1799 C1801 1.327 . S
C1799 C1805 1.429 . S
C1800 C1792 1.574 . S
C1800 H1795 0.949 . S
C1800 C1806 1.368 . S
C1801 C1785 1.349 . S
C1801 H1793 0.950 . S
C1801 C1799 1.327 . S
C1802 C1790 1.349 . S
C1802 H1796 0.950 . S
C1802 C1803 1.327 . S
C1803 H1797 0.950 . S
C1803 C1802 1.327 . S
C1803 C1807 1.429 . S
C1804 C1787 1.574 . S
C1804 H1798 0.949 . S
C1804 C1808 1.368 . S
C1805 C1786 1.429 . S
C1805 C1799 1.429 . S
C1805 C1806 1.523 . S
C1806 C1787 1.368 . S
C1806 C1800 1.368 . S
C1806 C1805 1.523 . S
C1807 C1791 1.429 . S
C1807 C1803 1.429 . S
C1807 C1808 1.523 . S
C1808 C1792 1.368 . S
C1808 C1804 1.368 . S
C1808 C1807 1.523 . S
H1809 C1784 0.950 . S
H1810 C1786 0.950 . S
H1811 C1787 0.949 . S
H1812 C1789 0.950 . S
H1813 C1791 0.950 . S
C1814 C1815 1.349 . S
C1814 C1816 1.327 . S
C1814 H1839 0.950 . S
C1815 C1814 1.349 . S
C1815 C1831 1.349 . S
C1816 C1814 1.327 . S
C1816 C1835 1.429 . S
C1816 H1840 0.950 . S
C1817 C1834 1.574 . S
C1817 C1836 1.368 . S
C1817 H1841 0.949 . S
H1818 C1822 0.949 . S
C1819 C1820 1.349 . S
C1819 C1821 1.327 . S
C1819 H1842 0.950 . S
C1820 C1819 1.349 . S
C1820 C1832 1.349 . S
C1821 C1819 1.327 . S
C1821 C1837 1.429 . S
C1821 H1843 0.950 . S
C1822 H1818 0.949 . S
C1822 C1830 1.574 . S
C1822 C1838 1.368 . S
H1823 C1831 0.950 . S
H1824 C1829 0.950 . S
H1825 C1830 0.949 . S
H1826 C1832 0.950 . S
H1827 C1833 0.950 . S
H1828 C1834 0.949 . S
C1829 H1824 0.950 . S
C1829 C1831 1.327 . S
C1829 C1835 1.429 . S
C1830 C1822 1.574 . S
C1830 H1825 0.949 . S
C1830 C1836 1.368 . S
C1831 C1815 1.349 . S
C1831 H1823 0.950 . S
C1831 C1829 1.327 . S
C1832 C1820 1.349 . S
C1832 H1826 0.950 . S
C1832 C1833 1.327 . S
C1833 H1827 0.950 . S
C1833 C1832 1.327 . S
C1833 C1837 1.429 . S
C1834 C1817 1.574 . S
C1834 H1828 0.949 . S
C1834 C1838 1.368 . S
C1835 C1816 1.429 . S
C1835 C1829 1.429 . S
C1835 C1836 1.523 . S
C1836 C1817 1.368 . S
C1836 C1830 1.368 . S
C1836 C1835 1.523 . S
C1837 C1821 1.429 . S
C1837 C1833 1.429 . S
C1837 C1838 1.523 . S
C1838 C1822 1.368 . S
C1838 C1834 1.368 . S
C1838 C1837 1.523 . S
H1839 C1814 0.950 . S
H1840 C1816 0.950 . S
H1841 C1817 0.949 . S
H1842 C1819 0.950 . S
H1843 C1821 0.950 . S
C1844 C1845 1.349 . S
C1844 C1846 1.327 . S
C1844 H1869 0.950 . S
C1845 C1844 1.349 . S
C1845 C1861 1.349 . S
C1846 C1844 1.327 . S
C1846 C1865 1.429 . S
C1846 H1870 0.950 . S
C1847 C1864 1.574 . S
C1847 C1866 1.368 . S
C1847 H1871 0.949 . S
H1848 C1852 0.949 . S
C1849 C1850 1.349 . S
C1849 C1851 1.327 . S
C1849 H1872 0.950 . S
C1850 C1849 1.349 . S
C1850 C1862 1.349 . S
C1851 C1849 1.327 . S
C1851 C1867 1.429 . S
C1851 H1873 0.950 . S
C1852 H1848 0.949 . S
C1852 C1860 1.574 . S
C1852 C1868 1.368 . S
H1853 C1861 0.950 . S
H1854 C1859 0.950 . S
H1855 C1860 0.949 . S
H1856 C1862 0.950 . S
H1857 C1863 0.950 . S
H1858 C1864 0.949 . S
C1859 H1854 0.950 . S
C1859 C1861 1.327 . S
C1859 C1865 1.429 . S
C1860 C1852 1.574 . S
C1860 H1855 0.949 . S
C1860 C1866 1.368 . S
C1861 C1845 1.349 . S
C1861 H1853 0.950 . S
C1861 C1859 1.327 . S
C1862 C1850 1.349 . S
C1862 H1856 0.950 . S
C1862 C1863 1.327 . S
C1863 H1857 0.950 . S
C1863 C1862 1.327 . S
C1863 C1867 1.429 . S
C1864 C1847 1.574 . S
C1864 H1858 0.949 . S
C1864 C1868 1.368 . S
C1865 C1846 1.429 . S
C1865 C1859 1.429 . S
C1865 C1866 1.523 . S
C1866 C1847 1.368 . S
C1866 C1860 1.368 . S
C1866 C1865 1.523 . S
C1867 C1851 1.429 . S
C1867 C1863 1.429 . S
C1867 C1868 1.523 . S
C1868 C1852 1.368 . S
C1868 C1864 1.368 . S
C1868 C1867 1.523 . S
H1869 C1844 0.950 . S
H1870 C1846 0.950 . S
H1871 C1847 0.949 . S
H1872 C1849 0.950 . S
H1873 C1851 0.950 . S
C1874 C1875 1.349 . S
C1874 C1876 1.327 . S
C1874 H1899 0.950 . S
C1875 C1874 1.349 . S
C1875 C1891 1.349 . S
C1876 C1874 1.327 . S
C1876 C1895 1.429 . S
C1876 H1900 0.950 . S
C1877 C1894 1.574 . S
C1877 C1896 1.368 . S
C1877 H1901 0.949 . S
H1878 C1882 0.949 . S
C1879 C1880 1.349 . S
C1879 C1881 1.327 . S
C1879 H1902 0.950 . S
C1880 C1879 1.349 . S
C1880 C1892 1.349 . S
C1881 C1879 1.327 . S
C1881 C1897 1.429 . S
C1881 H1903 0.950 . S
C1882 H1878 0.949 . S
C1882 C1890 1.574 . S
C1882 C1898 1.368 . S
H1883 C1891 0.950 . S
H1884 C1889 0.950 . S
H1885 C1890 0.949 . S
H1886 C1892 0.950 . S
H1887 C1893 0.950 . S
H1888 C1894 0.949 . S
C1889 H1884 0.950 . S
C1889 C1891 1.327 . S
C1889 C1895 1.429 . S
C1890 C1882 1.574 . S
C1890 H1885 0.949 . S
C1890 C1896 1.368 . S
C1891 C1875 1.349 . S
C1891 H1883 0.950 . S
C1891 C1889 1.327 . S
C1892 C1880 1.349 . S
C1892 H1886 0.950 . S
C1892 C1893 1.327 . S
C1893 H1887 0.950 . S
C1893 C1892 1.327 . S
C1893 C1897 1.429 . S
C1894 C1877 1.574 . S
C1894 H1888 0.949 . S
C1894 C1898 1.368 . S
C1895 C1876 1.429 . S
C1895 C1889 1.429 . S
C1895 C1896 1.523 . S
C1896 C1877 1.368 . S
C1896 C1890 1.368 . S
C1896 C1895 1.523 . S
C1897 C1881 1.429 . S
C1897 C1893 1.429 . S
C1897 C1898 1.523 . S
C1898 C1882 1.368 . S
C1898 C1894 1.368 . S
C1898 C1897 1.523 . S
H1899 C1874 0.950 . S
H1900 C1876 0.950 . S
H1901 C1877 0.949 . S
H1902 C1879 0.950 . S
H1903 C1881 0.950 . S
C1904 C1905 1.349 . S
C1904 C1906 1.327 . S
C1904 H1929 0.950 . S
C1905 C1904 1.349 . S
C1905 C1921 1.349 . S
C1906 C1904 1.327 . S
C1906 C1925 1.429 . S
C1906 H1930 0.950 . S
C1907 C1924 1.574 . S
C1907 C1926 1.368 . S
C1907 H1931 0.949 . S
H1908 C1912 0.949 . S
C1909 C1910 1.349 . S
C1909 C1911 1.327 . S
C1909 H1932 0.950 . S
C1910 C1909 1.349 . S
C1910 C1922 1.349 . S
C1911 C1909 1.327 . S
C1911 C1927 1.429 . S
C1911 H1933 0.950 . S
C1912 H1908 0.949 . S
C1912 C1920 1.574 . S
C1912 C1928 1.368 . S
H1913 C1921 0.950 . S
H1914 C1919 0.950 . S
H1915 C1920 0.949 . S
H1916 C1922 0.950 . S
H1917 C1923 0.950 . S
H1918 C1924 0.949 . S
C1919 H1914 0.950 . S
C1919 C1921 1.327 . S
C1919 C1925 1.429 . S
C1920 C1912 1.574 . S
C1920 H1915 0.949 . S
C1920 C1926 1.368 . S
C1921 C1905 1.349 . S
C1921 H1913 0.950 . S
C1921 C1919 1.327 . S
C1922 C1910 1.349 . S
C1922 H1916 0.950 . S
C1922 C1923 1.327 . S
C1923 H1917 0.950 . S
C1923 C1922 1.327 . S
C1923 C1927 1.429 . S
C1924 C1907 1.574 . S
C1924 H1918 0.949 . S
C1924 C1928 1.368 . S
C1925 C1906 1.429 . S
C1925 C1919 1.429 . S
C1925 C1926 1.523 . S
C1926 C1907 1.368 . S
C1926 C1920 1.368 . S
C1926 C1925 1.523 . S
C1927 C1911 1.429 . S
C1927 C1923 1.429 . S
C1927 C1928 1.523 . S
C1928 C1912 1.368 . S
C1928 C1924 1.368 . S
C1928 C1927 1.523 . S
H1929 C1904 0.950 . S
H1930 C1906 0.950 . S
H1931 C1907 0.949 . S
H1932 C1909 0.950 . S
H1933 C1911 0.950 . S
C1934 C1935 1.349 . S
C1934 C1936 1.327 . S
C1934 H1959 0.950 . S
C1935 C1934 1.349 . S
C1935 C1951 1.349 . S
C1936 C1934 1.327 . S
C1936 C1955 1.429 . S
C1936 H1960 0.950 . S
C1937 C1954 1.574 . S
C1937 C1956 1.368 . S
C1937 H1961 0.949 . S
H1938 C1942 0.949 . S
C1939 C1940 1.349 . S
C1939 C1941 1.327 . S
C1939 H1962 0.950 . S
C1940 C1939 1.349 . S
C1940 C1952 1.349 . S
C1941 C1939 1.327 . S
C1941 C1957 1.429 . S
C1941 H1963 0.950 . S
C1942 H1938 0.949 . S
C1942 C1950 1.574 . S
C1942 C1958 1.368 . S
H1943 C1951 0.950 . S
H1944 C1949 0.950 . S
H1945 C1950 0.949 . S
H1946 C1952 0.950 . S
H1947 C1953 0.950 . S
H1948 C1954 0.949 . S
C1949 H1944 0.950 . S
C1949 C1951 1.327 . S
C1949 C1955 1.429 . S
C1950 C1942 1.574 . S
C1950 H1945 0.949 . S
C1950 C1956 1.368 . S
C1951 C1935 1.349 . S
C1951 H1943 0.950 . S
C1951 C1949 1.327 . S
C1952 C1940 1.349 . S
C1952 H1946 0.950 . S
C1952 C1953 1.327 . S
C1953 H1947 0.950 . S
C1953 C1952 1.327 . S
C1953 C1957 1.429 . S
C1954 C1937 1.574 . S
C1954 H1948 0.949 . S
C1954 C1958 1.368 . S
C1955 C1936 1.429 . S
C1955 C1949 1.429 . S
C1955 C1956 1.523 . S
C1956 C1937 1.368 . S
C1956 C1950 1.368 . S
C1956 C1955 1.523 . S
C1957 C1941 1.429 . S
C1957 C1953 1.429 . S
C1957 C1958 1.523 . S
C1958 C1942 1.368 . S
C1958 C1954 1.368 . S
C1958 C1957 1.523 . S
H1959 C1934 0.950 . S
H1960 C1936 0.950 . S
H1961 C1937 0.949 . S
H1962 C1939 0.950 . S
H1963 C1941 0.950 . S
C1964 C1965 1.349 . S
C1964 C1966 1.327 . S
C1964 H1989 0.950 . S
C1965 C1964 1.349 . S
C1965 C1981 1.349 . S
C1966 C1964 1.327 . S
C1966 C1985 1.429 . S
C1966 H1990 0.950 . S
C1967 C1984 1.574 . S
C1967 C1986 1.368 . S
C1967 H1991 0.949 . S
H1968 C1972 0.949 . S
C1969 C1970 1.349 . S
C1969 C1971 1.327 . S
C1969 H1992 0.950 . S
C1970 C1969 1.349 . S
C1970 C1982 1.349 . S
C1971 C1969 1.327 . S
C1971 C1987 1.429 . S
C1971 H1993 0.950 . S
C1972 H1968 0.949 . S
C1972 C1980 1.574 . S
C1972 C1988 1.368 . S
H1973 C1981 0.950 . S
H1974 C1979 0.950 . S
H1975 C1980 0.949 . S
H1976 C1982 0.950 . S
H1977 C1983 0.950 . S
H1978 C1984 0.949 . S
C1979 H1974 0.950 . S
C1979 C1981 1.327 . S
C1979 C1985 1.429 . S
C1980 C1972 1.574 . S
C1980 H1975 0.949 . S
C1980 C1986 1.368 . S
C1981 C1965 1.349 . S
C1981 H1973 0.950 . S
C1981 C1979 1.327 . S
C1982 C1970 1.349 . S
C1982 H1976 0.950 . S
C1982 C1983 1.327 . S
C1983 H1977 0.950 . S
C1983 C1982 1.327 . S
C1983 C1987 1.429 . S
C1984 C1967 1.574 . S
C1984 H1978 0.949 . S
C1984 C1988 1.368 . S
C1985 C1966 1.429 . S
C1985 C1979 1.429 . S
C1985 C1986 1.523 . S
C1986 C1967 1.368 . S
C1986 C1980 1.368 . S
C1986 C1985 1.523 . S
C1987 C1971 1.429 . S
C1987 C1983 1.429 . S
C1987 C1988 1.523 . S
C1988 C1972 1.368 . S
C1988 C1984 1.368 . S
C1988 C1987 1.523 . S
H1989 C1964 0.950 . S
H1990 C1966 0.950 . S
H1991 C1967 0.949 . S
H1992 C1969 0.950 . S
H1993 C1971 0.950 . S
C1994 C1995 1.349 . S
C1994 C1996 1.327 . S
C1994 H2019 0.950 . S
C1995 C1994 1.349 . S
C1995 C2011 1.349 . S
C1996 C1994 1.327 . S
C1996 C2015 1.429 . S
C1996 H2020 0.950 . S
C1997 C2014 1.574 . S
C1997 C2016 1.368 . S
C1997 H2021 0.949 . S
H1998 C2002 0.949 . S
C1999 C2000 1.349 . S
C1999 C2001 1.327 . S
C1999 H2022 0.950 . S
C2000 C1999 1.349 . S
C2000 C2012 1.349 . S
C2001 C1999 1.327 . S
C2001 C2017 1.429 . S
C2001 H2023 0.950 . S
C2002 H1998 0.949 . S
C2002 C2010 1.574 . S
C2002 C2018 1.368 . S
H2003 C2011 0.950 . S
H2004 C2009 0.950 . S
H2005 C2010 0.949 . S
H2006 C2012 0.950 . S
H2007 C2013 0.950 . S
H2008 C2014 0.949 . S
C2009 H2004 0.950 . S
C2009 C2011 1.327 . S
C2009 C2015 1.429 . S
C2010 C2002 1.574 . S
C2010 H2005 0.949 . S
C2010 C2016 1.368 . S
C2011 C1995 1.349 . S
C2011 H2003 0.950 . S
C2011 C2009 1.327 . S
C2012 C2000 1.349 . S
C2012 H2006 0.950 . S
C2012 C2013 1.327 . S
C2013 H2007 0.950 . S
C2013 C2012 1.327 . S
C2013 C2017 1.429 . S
C2014 C1997 1.574 . S
C2014 H2008 0.949 . S
C2014 C2018 1.368 . S
C2015 C1996 1.429 . S
C2015 C2009 1.429 . S
C2015 C2016 1.523 . S
C2016 C1997 1.368 . S
C2016 C2010 1.368 . S
C2016 C2015 1.523 . S
C2017 C2001 1.429 . S
C2017 C2013 1.429 . S
C2017 C2018 1.523 . S
C2018 C2002 1.368 . S
C2018 C2014 1.368 . S
C2018 C2017 1.523 . S
H2019 C1994 0.950 . S
H2020 C1996 0.950 . S
H2021 C1997 0.949 . S
H2022 C1999 0.950 . S
H2023 C2001 0.950 . S
C2024 C2025 1.349 . S
C2024 C2026 1.327 . S
C2024 H2049 0.950 . S
C2025 C2024 1.349 . S
C2025 C2041 1.349 . S
C2026 C2024 1.327 . S
C2026 C2045 1.429 . S
C2026 H2050 0.950 . S
C2027 C2044 1.574 . S
C2027 C2046 1.368 . S
C2027 H2051 0.949 . S
H2028 C2032 0.949 . S
C2029 C2030 1.349 . S
C2029 C2031 1.327 . S
C2029 H2052 0.950 . S
C2030 C2029 1.349 . S
C2030 C2042 1.349 . S
C2031 C2029 1.327 . S
C2031 C2047 1.429 . S
C2031 H2053 0.950 . S
C2032 H2028 0.949 . S
C2032 C2040 1.574 . S
C2032 C2048 1.368 . S
H2033 C2041 0.950 . S
H2034 C2039 0.950 . S
H2035 C2040 0.949 . S
H2036 C2042 0.950 . S
H2037 C2043 0.950 . S
H2038 C2044 0.949 . S
C2039 H2034 0.950 . S
C2039 C2041 1.327 . S
C2039 C2045 1.429 . S
C2040 C2032 1.574 . S
C2040 H2035 0.949 . S
C2040 C2046 1.368 . S
C2041 C2025 1.349 . S
C2041 H2033 0.950 . S
C2041 C2039 1.327 . S
C2042 C2030 1.349 . S
C2042 H2036 0.950 . S
C2042 C2043 1.327 . S
C2043 H2037 0.950 . S
C2043 C2042 1.327 . S
C2043 C2047 1.429 . S
C2044 C2027 1.574 . S
C2044 H2038 0.949 . S
C2044 C2048 1.368 . S
C2045 C2026 1.429 . S
C2045 C2039 1.429 . S
C2045 C2046 1.523 . S
C2046 C2027 1.368 . S
C2046 C2040 1.368 . S
C2046 C2045 1.523 . S
C2047 C2031 1.429 . S
C2047 C2043 1.429 . S
C2047 C2048 1.523 . S
C2048 C2032 1.368 . S
C2048 C2044 1.368 . S
C2048 C2047 1.523 . S
H2049 C2024 0.950 . S
H2050 C2026 0.950 . S
H2051 C2027 0.949 . S
H2052 C2029 0.950 . S
H2053 C2031 0.950 . S
C2054 C2055 1.349 . S
C2054 C2056 1.327 . S
C2054 H2079 0.950 . S
C2055 C2054 1.349 . S
C2055 C2071 1.349 . S
C2056 C2054 1.327 . S
C2056 C2075 1.429 . S
C2056 H2080 0.950 . S
C2057 C2074 1.574 . S
C2057 C2076 1.368 . S
C2057 H2081 0.949 . S
H2058 C2062 0.949 . S
C2059 C2060 1.349 . S
C2059 C2061 1.327 . S
C2059 H2082 0.950 . S
C2060 C2059 1.349 . S
C2060 C2072 1.349 . S
C2061 C2059 1.327 . S
C2061 C2077 1.429 . S
C2061 H2083 0.950 . S
C2062 H2058 0.949 . S
C2062 C2070 1.574 . S
C2062 C2078 1.368 . S
H2063 C2071 0.950 . S
H2064 C2069 0.950 . S
H2065 C2070 0.949 . S
H2066 C2072 0.950 . S
H2067 C2073 0.950 . S
H2068 C2074 0.949 . S
C2069 H2064 0.950 . S
C2069 C2071 1.327 . S
C2069 C2075 1.429 . S
C2070 C2062 1.574 . S
C2070 H2065 0.949 . S
C2070 C2076 1.368 . S
C2071 C2055 1.349 . S
C2071 H2063 0.950 . S
C2071 C2069 1.327 . S
C2072 C2060 1.349 . S
C2072 H2066 0.950 . S
C2072 C2073 1.327 . S
C2073 H2067 0.950 . S
C2073 C2072 1.327 . S
C2073 C2077 1.429 . S
C2074 C2057 1.574 . S
C2074 H2068 0.949 . S
C2074 C2078 1.368 . S
C2075 C2056 1.429 . S
C2075 C2069 1.429 . S
C2075 C2076 1.523 . S
C2076 C2057 1.368 . S
C2076 C2070 1.368 . S
C2076 C2075 1.523 . S
C2077 C2061 1.429 . S
C2077 C2073 1.429 . S
C2077 C2078 1.523 . S
C2078 C2062 1.368 . S
C2078 C2074 1.368 . S
C2078 C2077 1.523 . S
H2079 C2054 0.950 . S
H2080 C2056 0.950 . S
H2081 C2057 0.949 . S
H2082 C2059 0.950 . S
H2083 C2061 0.950 . S
C2084 C2085 1.349 . S
C2084 C2086 1.327 . S
C2084 H2109 0.950 . S
C2085 C2084 1.349 . S
C2085 C2101 1.349 . S
C2086 C2084 1.327 . S
C2086 C2105 1.429 . S
C2086 H2110 0.950 . S
C2087 C2104 1.574 . S
C2087 C2106 1.368 . S
C2087 H2111 0.949 . S
H2088 C2092 0.949 . S
C2089 C2090 1.349 . S
C2089 C2091 1.327 . S
C2089 H2112 0.950 . S
C2090 C2089 1.349 . S
C2090 C2102 1.349 . S
C2091 C2089 1.327 . S
C2091 C2107 1.429 . S
C2091 H2113 0.950 . S
C2092 H2088 0.949 . S
C2092 C2100 1.574 . S
C2092 C2108 1.368 . S
H2093 C2101 0.950 . S
H2094 C2099 0.950 . S
H2095 C2100 0.949 . S
H2096 C2102 0.950 . S
H2097 C2103 0.950 . S
H2098 C2104 0.949 . S
C2099 H2094 0.950 . S
C2099 C2101 1.327 . S
C2099 C2105 1.429 . S
C2100 C2092 1.574 . S
C2100 H2095 0.949 . S
C2100 C2106 1.368 . S
C2101 C2085 1.349 . S
C2101 H2093 0.950 . S
C2101 C2099 1.327 . S
C2102 C2090 1.349 . S
C2102 H2096 0.950 . S
C2102 C2103 1.327 . S
C2103 H2097 0.950 . S
C2103 C2102 1.327 . S
C2103 C2107 1.429 . S
C2104 C2087 1.574 . S
C2104 H2098 0.949 . S
C2104 C2108 1.368 . S
C2105 C2086 1.429 . S
C2105 C2099 1.429 . S
C2105 C2106 1.523 . S
C2106 C2087 1.368 . S
C2106 C2100 1.368 . S
C2106 C2105 1.523 . S
C2107 C2091 1.429 . S
C2107 C2103 1.429 . S
C2107 C2108 1.523 . S
C2108 C2092 1.368 . S
C2108 C2104 1.368 . S
C2108 C2107 1.523 . S
H2109 C2084 0.950 . S
H2110 C2086 0.950 . S
H2111 C2087 0.949 . S
H2112 C2089 0.950 . S
H2113 C2091 0.950 . S
C2114 C2115 1.349 . S
C2114 C2116 1.327 . S
C2114 H2139 0.950 . S
C2115 C2114 1.349 . S
C2115 C2131 1.349 . S
C2116 C2114 1.327 . S
C2116 C2135 1.429 . S
C2116 H2140 0.950 . S
C2117 C2134 1.574 . S
C2117 C2136 1.368 . S
C2117 H2141 0.949 . S
H2118 C2122 0.949 . S
C2119 C2120 1.349 . S
C2119 C2121 1.327 . S
C2119 H2142 0.950 . S
C2120 C2119 1.349 . S
C2120 C2132 1.349 . S
C2121 C2119 1.327 . S
C2121 C2137 1.429 . S
C2121 H2143 0.950 . S
C2122 H2118 0.949 . S
C2122 C2130 1.574 . S
C2122 C2138 1.368 . S
H2123 C2131 0.950 . S
H2124 C2129 0.950 . S
H2125 C2130 0.949 . S
H2126 C2132 0.950 . S
H2127 C2133 0.950 . S
H2128 C2134 0.949 . S
C2129 H2124 0.950 . S
C2129 C2131 1.327 . S
C2129 C2135 1.429 . S
C2130 C2122 1.574 . S
C2130 H2125 0.949 . S
C2130 C2136 1.368 . S
C2131 C2115 1.349 . S
C2131 H2123 0.950 . S
C2131 C2129 1.327 . S
C2132 C2120 1.349 . S
C2132 H2126 0.950 . S
C2132 C2133 1.327 . S
C2133 H2127 0.950 . S
C2133 C2132 1.327 . S
C2133 C2137 1.429 . S
C2134 C2117 1.574 . S
C2134 H2128 0.949 . S
C2134 C2138 1.368 . S
C2135 C2116 1.429 . S
C2135 C2129 1.429 . S
C2135 C2136 1.523 . S
C2136 C2117 1.368 . S
C2136 C2130 1.368 . S
C2136 C2135 1.523 . S
C2137 C2121 1.429 . S
C2137 C2133 1.429 . S
C2137 C2138 1.523 . S
C2138 C2122 1.368 . S
C2138 C2134 1.368 . S
C2138 C2137 1.523 . S
H2139 C2114 0.950 . S
H2140 C2116 0.950 . S
H2141 C2117 0.949 . S
H2142 C2119 0.950 . S
H2143 C2121 0.950 . S
C465 C416 2.249 . S
C470 C3 2.314 1_565 S
C495 C445 2.249 . S
C500 C32 2.314 1_545 S
C525 C61 2.316 . S
C530 C242 2.249 . S
C555 C271 2.249 . S
C560 C90 2.316 . S
C585 C119 2.316 . S
C590 C300 2.249 . S
C615 C329 2.249 . S
C620 C148 2.316 . S
C645 C358 2.249 . S
C650 C177 2.318 . S
C675 C206 2.316 . S
C680 C387 2.251 . S
C705 C235 2.316 1_565 S
C710 C184 2.249 . S
C735 C264 2.316 1_545 S
C740 C213 2.249 . S
C765 C293 2.316 . S
C770 C10 2.251 . S
C795 C322 2.316 . S
C800 C39 2.251 . S
C825 C351 2.316 . S
C830 C68 2.246 . S
C855 C97 2.249 . S
C860 C380 2.314 . S
C885 C126 2.249 . S
C890 C409 2.316 . S
C915 C155 2.249 . S
C920 C438 2.316 . S
C945 C385 0.677 . S
C950 C8 0.677 . S
C975 C356 0.677 . S
C980 C37 0.677 . S
C1005 C66 0.677 . S
C1010 C95 0.677 . S
C1035 C124 0.677 . S
C1040 C269 0.677 . S
C1065 C240 0.677 . S
C1070 C153 0.677 . S
C1095 C182 0.677 . S
C1100 C211 0.677 . S
C1125 C327 0.677 . S
C1130 C298 0.677 . S
C1155 C414 0.677 . S
C1160 C443 0.677 . S
C1185 C274 2.475 . S
C1190 C5 2.721 . S
C1215 C34 2.725 . S
C1220 C245 2.472 . S
C1245 C63 2.725 . S
C1250 C216 2.474 1_655 S
C1275 C187 2.474 1_455 S
C1280 C92 2.725 . S
C1305 C121 2.725 . S
C1310 C390 2.478 . S
C1335 C361 2.475 . S
C1340 C150 2.728 . S
C1365 C100 2.474 1_655 S
C1370 C179 2.725 . S
C1395 C71 2.474 1_455 S
C1400 C208 2.725 . S
C1425 C42 2.475 . S
C1430 C237 2.728 . S
C1455 C13 2.475 . S
C1460 C266 2.728 . S
C1485 C448 2.475 . S
C1490 C295 2.725 . S
C1515 C419 2.475 . S
C1520 C324 2.725 . S
C1545 C353 2.725 . S
C1550 C158 2.472 . S
C1575 C129 2.475 . S
C1580 C382 2.721 . S
C1605 C411 2.725 . S
C1610 C332 2.475 . S
C1635 C303 2.475 . S
C1640 C440 2.725 . S
C1665 C224 0.740 . S
C1670 C15 0.739 . S
C1695 C44 0.736 . S
C1700 C195 0.743 . S
C1725 C73 0.736 . S
C1730 C398 0.736 . S
C1755 C102 0.736 . S
C1760 C369 0.736 . S
C1785 C131 0.736 . S
C1790 C108 0.740 . S
C1815 C79 0.740 . S
C1820 C160 0.736 . S
C1845 C189 0.736 . S
C1850 C282 0.740 . S
C1875 C253 0.740 . S
C1880 C218 0.736 . S
C1905 C247 0.736 . S
C1910 C456 0.740 . S
C1935 C276 0.736 . S
C1940 C427 0.740 . S
C1965 C305 0.736 . S
C1970 C166 0.740 . S
C1995 C137 0.740 . S
C2000 C334 0.736 . S
C2025 C340 0.740 . S
C2030 C363 0.739 . S
C2055 C311 0.740 . S
C2060 C392 0.739 . S
C2085 C421 0.736 . S
C2090 C50 0.736 . S
C2115 C450 0.736 . S
C2120 C21 0.736 . S
