# Generated by pormake.
# Topology uog, (4)-cn, num edge types: 1
# Building blocks:
#     Node 0, Type 0, BuildingBlock: KOZSID_clean_sbu_0, # of connection points: 4
#     Node 1, Type 0, BuildingBlock: KOZSID_clean_sbu_0, # of connection points: 4
#     Node 2, Type 0, BuildingBlock: KOZSID_clean_sbu_0, # of connection points: 4
#     Node 3, Type 0, BuildingBlock: KOZSID_clean_sbu_0, # of connection points: 4
#     Node 4, Type 0, BuildingBlock: KOZSID_clean_sbu_0, # of connection points: 4
#     Node 5, Type 0, BuildingBlock: KOZSID_clean_sbu_0, # of connection points: 4
#     Edge 6, Type (0, 0), BuildingBlock: TEMPAE_clean_linker_10, # of connection points: 2
#     Edge 7, Type (0, 0), BuildingBlock: TEMPAE_clean_linker_10, # of connection points: 2
#     Edge 8, Type (0, 0), BuildingBlock: TEMPAE_clean_linker_10, # of connection points: 2
#     Edge 9, Type (0, 0), BuildingBlock: TEMPAE_clean_linker_10, # of connection points: 2
#     Edge 10, Type (0, 0), BuildingBlock: TEMPAE_clean_linker_10, # of connection points: 2
#     Edge 11, Type (0, 0), BuildingBlock: TEMPAE_clean_linker_10, # of connection points: 2
#     Edge 12, Type (0, 0), BuildingBlock: TEMPAE_clean_linker_10, # of connection points: 2
#     Edge 13, Type (0, 0), BuildingBlock: TEMPAE_clean_linker_10, # of connection points: 2
#     Edge 14, Type (0, 0), BuildingBlock: TEMPAE_clean_linker_10, # of connection points: 2
#     Edge 15, Type (0, 0), BuildingBlock: TEMPAE_clean_linker_10, # of connection points: 2
#     Edge 16, Type (0, 0), BuildingBlock: TEMPAE_clean_linker_10, # of connection points: 2
#     Edge 17, Type (0, 0), BuildingBlock: TEMPAE_clean_linker_10, # of connection points: 2
# Relax obj value: 0.022
# Max RMSD: 0.256
# Mean RMSD: 0.256
data_MOF--net-uog--node1-KOZSID_clean_sbu_0--edge1-TEMPAE_clean_linker_10
_symmetry_space_group_name_H-M    P1
_symmetry_Int_Tables_number       1
_symmetry_cell_setting            triclinic
loop_
_symmetry_equiv_pos_as_xyz
'x, y, z'
_cell_length_a     38.55929
_cell_length_b     38.514647
_cell_length_c     47.084732
_cell_angle_alpha  90.058516
_cell_angle_beta   89.932431
_cell_angle_gamma 119.96887
loop_
_atom_site_label
_atom_site_type_symbol
_atom_site_fract_x
_atom_site_fract_y
_atom_site_fract_z
_atom_type_partial_charge
C0 C 0.56869 0.31138 0.23402 0.0
C1 C 0.53308 0.30539 0.2457 0.0
C2 C 0.50646 0.29548 0.2237 0.0
C3 C 0.52716 0.29598 0.19981 0.0
N4 N 0.56493 0.30456 0.20543 0.0
Co5 Co 0.60602 0.31425 0.17585 0.0
N6 N 0.56574 0.29059 0.14479 0.0
C7 C 0.52759 0.28241 0.1462 0.0
C8 C 0.50655 0.26496 0.12173 0.0
C9 C 0.53323 0.26198 0.10386 0.0
C10 C 0.56915 0.27783 0.11844 0.0
N11 N 0.64765 0.32608 0.14642 0.0
C12 C 0.64418 0.31179 0.11968 0.0
C13 C 0.68117 0.32888 0.10614 0.0
C14 C 0.70878 0.35442 0.1252 0.0
C15 C 0.68724 0.35159 0.14912 0.0
N16 N 0.6472 0.33684 0.20663 0.0
C17 C 0.6872 0.35791 0.20277 0.0
C18 C 0.70865 0.36958 0.22749 0.0
C19 C 0.68061 0.35593 0.2485 0.0
C20 C 0.64331 0.33685 0.23532 0.0
N21 N 0.59845 0.25947 0.18212 0.0
C22 C 0.58076 0.17787 0.18344 0.0
C23 C 0.62024 0.21003 0.1795 0.0
C24 C 0.62844 0.25039 0.17903 0.0
C25 C 0.55119 0.18838 0.18794 0.0
C26 C 0.56038 0.22845 0.18692 0.0
N27 N 0.61047 0.36772 0.16929 0.0
C28 C 0.60362 0.42206 0.18958 0.0
C29 C 0.59152 0.43023 0.16347 0.0
C30 C 0.59272 0.40835 0.13981 0.0
C31 C 0.60265 0.37783 0.14309 0.0
C32 C 0.61329 0.39145 0.19191 0.0
H33 H 0.60198 0.36109 0.1245 0.0
H34 H 0.62069 0.38572 0.21263 0.0
H35 H 0.65883 0.27404 0.17539 0.0
H36 H 0.53574 0.23374 0.18914 0.0
C37 C 0.51179 0.28658 0.17203 0.0
C38 C 0.60621 0.32727 0.2504 0.0
C39 C 0.6066 0.28254 0.10632 0.0
C40 C 0.70381 0.36541 0.17573 0.0
H41 H 0.52741 0.30904 0.26771 0.0
H42 H 0.47578 0.28905 0.22498 0.0
H43 H 0.47521 0.25439 0.11768 0.0
H44 H 0.52708 0.2497 0.08258 0.0
H45 H 0.68773 0.32304 0.0849 0.0
H46 H 0.74095 0.37119 0.12249 0.0
H47 H 0.74085 0.38666 0.22995 0.0
H48 H 0.68716 0.36175 0.2709 0.0
H49 H 0.6446 0.2042 0.17596 0.0
H50 H 0.52046 0.16567 0.19206 0.0
H51 H 0.60373 0.43772 0.2087 0.0
H52 H 0.58527 0.4141 0.11884 0.0
C53 C 0.28678 0.55136 0.56272 0.0
C54 C 0.2561 0.51607 0.57397 0.0
C55 C 0.2382 0.49045 0.55156 0.0
C56 C 0.25881 0.5114 0.52787 0.0
N57 N 0.28933 0.54834 0.53394 0.0
Co58 Co 0.32181 0.58994 0.50488 0.0
N59 N 0.30225 0.55077 0.47281 0.0
C60 C 0.27068 0.51339 0.47382 0.0
C61 C 0.26445 0.49312 0.44857 0.0
C62 C 0.29392 0.51953 0.43052 0.0
C63 C 0.31654 0.55455 0.44578 0.0
N64 N 0.35324 0.63225 0.47615 0.0
C65 C 0.36203 0.62924 0.44872 0.0
C66 C 0.38352 0.66681 0.43608 0.0
C67 C 0.38881 0.69427 0.45637 0.0
C68 C 0.37021 0.67211 0.48005 0.0
N69 N 0.34287 0.62992 0.53663 0.0
C70 C 0.36432 0.67011 0.53372 0.0
C71 C 0.37566 0.69052 0.5589 0.0
C72 C 0.35969 0.66167 0.57927 0.0
C73 C 0.33902 0.62501 0.56526 0.0
N74 N 0.36679 0.57856 0.50977 0.0
C75 C 0.42776 0.55687 0.50982 0.0
C76 C 0.43729 0.59741 0.51009 0.0
C77 C 0.4065 0.60758 0.50984 0.0
C78 C 0.38701 0.528 0.51057 0.0
C79 C 0.35757 0.53925 0.51077 0.0
N80 N 0.27482 0.59808 0.49946 0.0
C81 C 0.21415 0.59171 0.52024 0.0
C82 C 0.19433 0.58181 0.49389 0.0
C83 C 0.21755 0.58434 0.47002 0.0
C84 C 0.25757 0.59307 0.47318 0.0
C85 C 0.25405 0.60007 0.52246 0.0
H86 H 0.27367 0.59342 0.45434 0.0
H87 H 0.26697 0.60568 0.54325 0.0
H88 H 0.41484 0.63883 0.50912 0.0
H89 H 0.32701 0.51545 0.5109 0.0
C90 C 0.25122 0.49726 0.49973 0.0
C91 C 0.30994 0.58814 0.57977 0.0
C92 C 0.34968 0.59167 0.4336 0.0
C93 C 0.3744 0.68782 0.50711 0.0
H94 H 0.24683 0.51006 0.59597 0.0
H95 H 0.21274 0.46036 0.55243 0.0
H96 H 0.24189 0.46245 0.44402 0.0
H97 H 0.29813 0.51386 0.40863 0.0
H98 H 0.39456 0.67383 0.41451 0.0
H99 H 0.40578 0.72659 0.45443 0.0
H100 H 0.3929 0.72263 0.56207 0.0
H101 H 0.36118 0.66737 0.60186 0.0
H102 H 0.46828 0.62112 0.50959 0.0
H103 H 0.37763 0.49639 0.51096 0.0
H104 H 0.19843 0.59094 0.5395 0.0
H105 H 0.20471 0.57872 0.44893 0.0
C106 C 0.74304 0.26288 0.90244 0.0
C107 C 0.74782 0.23101 0.91071 0.0
C108 C 0.75425 0.2154 0.88641 0.0
C109 C 0.75312 0.23857 0.86468 0.0
N110 N 0.74723 0.26844 0.87367 0.0
Co111 Co 0.73806 0.30475 0.84821 0.0
N112 N 0.7533 0.28637 0.8128 0.0
C113 C 0.75734 0.25367 0.81107 0.0
C114 C 0.76362 0.24521 0.78388 0.0
C115 C 0.76317 0.27416 0.76722 0.0
C116 C 0.75712 0.2992 0.78524 0.0
N117 N 0.72894 0.34151 0.8233 0.0
C118 C 0.74323 0.3551 0.79686 0.0
C119 C 0.74192 0.38972 0.79063 0.0
C120 C 0.72276 0.39587 0.8126 0.0
C121 C 0.7153 0.36609 0.83161 0.0
N122 N 0.72262 0.32387 0.88319 0.0
C123 C 0.7069 0.34828 0.88379 0.0
C124 C 0.69951 0.35707 0.91046 0.0
C125 C 0.71048 0.33647 0.92818 0.0
C126 C 0.72394 0.31599 0.91117 0.0
N127 N 0.79553 0.34781 0.85283 0.0
C128 C 0.87889 0.40824 0.8545 0.0
C129 C 0.84813 0.41701 0.86067 0.0
C130 C 0.80714 0.38679 0.85958 0.0
C131 C 0.86599 0.36789 0.84796 0.0
C132 C 0.82507 0.33867 0.84772 0.0
N133 N 0.68145 0.25942 0.84323 0.0
C134 C 0.62945 0.19695 0.8639 0.0
C135 C 0.61809 0.17812 0.83723 0.0
C136 C 0.63635 0.20292 0.81345 0.0
C137 C 0.667 0.24337 0.81689 0.0
C138 C 0.66034 0.2372 0.86634 0.0
H139 H 0.68047 0.26072 0.79802 0.0
H140 H 0.66868 0.24908 0.88732 0.0
H141 H 0.78505 0.39532 0.86407 0.0
H142 H 0.81763 0.3085 0.84281 0.0
C143 C 0.75648 0.23278 0.83565 0.0
C144 C 0.73084 0.28448 0.92233 0.0
C145 C 0.75174 0.33271 0.77533 0.0
C146 C 0.70388 0.36635 0.85937 0.0
H147 H 0.74541 0.21943 0.932 0.0
H148 H 0.75822 0.18957 0.88474 0.0
H149 H 0.76767 0.22068 0.77691 0.0
H150 H 0.76585 0.27574 0.74435 0.0
H151 H 0.75263 0.40805 0.77171 0.0
H152 H 0.71715 0.42058 0.81517 0.0
H153 H 0.68793 0.37655 0.91633 0.0
H154 H 0.70736 0.33566 0.95102 0.0
H155 H 0.8553 0.44703 0.8665 0.0
H156 H 0.88712 0.35835 0.84235 0.0
H157 H 0.61625 0.1802 0.88318 0.0
H158 H 0.6277 0.19103 0.79217 0.0
C159 C 0.49771 0.74202 0.23062 0.0
C160 C 0.53486 0.75564 0.24296 0.0
C161 C 0.56269 0.77512 0.22201 0.0
C162 C 0.541 0.77223 0.1981 0.0
N163 N 0.50122 0.75245 0.20254 0.0
Co164 Co 0.45915 0.73826 0.17264 0.0
N165 N 0.49936 0.7638 0.14125 0.0
C166 C 0.53938 0.78347 0.14438 0.0
C167 C 0.55968 0.80049 0.11962 0.0
C168 C 0.53066 0.79128 0.0995 0.0
C169 C 0.49423 0.76905 0.11315 0.0
N170 N 0.41631 0.72153 0.14297 0.0
C171 C 0.41881 0.72599 0.11427 0.0
C172 C 0.38117 0.70721 0.1017 0.0
C173 C 0.354 0.69106 0.12315 0.0
C174 C 0.37646 0.70063 0.14742 0.0
N175 N 0.41836 0.71472 0.20396 0.0
C176 C 0.37844 0.69851 0.2012 0.0
C177 C 0.35782 0.68707 0.22633 0.0
C178 C 0.3863 0.69621 0.24655 0.0
C179 C 0.42279 0.71263 0.23244 0.0
N180 N 0.46201 0.79154 0.17817 0.0
C181 C 0.48555 0.87473 0.18192 0.0
C182 C 0.46952 0.85257 0.15689 0.0
C183 C 0.45771 0.81158 0.15559 0.0
C184 C 0.48637 0.85307 0.20574 0.0
C185 C 0.47434 0.8119 0.2035 0.0
N186 N 0.45925 0.68641 0.16691 0.0
C187 C 0.46562 0.63195 0.18771 0.0
C188 C 0.48042 0.62508 0.16231 0.0
C189 C 0.48101 0.64765 0.13863 0.0
C190 C 0.46998 0.67744 0.14127 0.0
C191 C 0.45486 0.6619 0.18939 0.0
H192 H 0.47139 0.69377 0.12243 0.0
H193 H 0.44426 0.66563 0.20939 0.0
H194 H 0.4463 0.79693 0.13574 0.0
H195 H 0.47647 0.79719 0.22227 0.0
C196 C 0.55655 0.78599 0.17098 0.0
C197 C 0.45982 0.72063 0.24654 0.0
C198 C 0.4554 0.7522 0.09847 0.0
C199 C 0.36095 0.69197 0.17465 0.0
H200 H 0.54107 0.75198 0.26482 0.0
H201 H 0.59489 0.78922 0.22392 0.0
H202 H 0.59176 0.81783 0.11659 0.0
H203 H 0.53561 0.79968 0.07731 0.0
H204 H 0.37397 0.70662 0.07943 0.0
H205 H 0.3217 0.67513 0.12132 0.0
H206 H 0.32577 0.67266 0.22947 0.0
H207 H 0.38061 0.68996 0.26901 0.0
H208 H 0.46634 0.86683 0.13804 0.0
H209 H 0.49772 0.86806 0.22589 0.0
H210 H 0.4637 0.61543 0.20679 0.0
H211 H 0.49032 0.64276 0.11803 0.0
C212 C 0.7725 0.47801 0.5636 0.0
C213 C 0.79366 0.51329 0.57898 0.0
C214 C 0.81438 0.54354 0.55965 0.0
C215 C 0.80439 0.52556 0.53342 0.0
N216 N 0.77788 0.48601 0.53516 0.0
Co217 Co 0.75441 0.44979 0.50186 0.0
N218 N 0.77051 0.49445 0.47455 0.0
C219 C 0.79817 0.53289 0.47928 0.0
C220 C 0.8017 0.55714 0.45668 0.0
C221 C 0.77453 0.53216 0.43665 0.0
C222 C 0.75578 0.49397 0.44814 0.0
N223 N 0.73167 0.41299 0.46899 0.0
C224 C 0.72084 0.41917 0.44309 0.0
C225 C 0.70732 0.38531 0.42605 0.0
C226 C 0.70999 0.3571 0.44193 0.0
C227 C 0.72488 0.37523 0.46759 0.0
N228 N 0.73783 0.40385 0.52832 0.0
C229 C 0.73109 0.36727 0.52039 0.0
C230 C 0.7286 0.34328 0.54252 0.0
C231 C 0.73471 0.36607 0.56607 0.0
C232 C 0.73961 0.40279 0.55706 0.0
N233 N 0.70323 0.45066 0.50739 0.0
C234 C 0.63558 0.46234 0.50703 0.0
C235 C 0.63129 0.42404 0.50247 0.0
C236 C 0.66553 0.41889 0.50253 0.0
C237 C 0.67407 0.4936 0.51288 0.0
C238 C 0.70671 0.48725 0.51312 0.0
N239 N 0.80727 0.45271 0.49629 0.0
C240 C 0.86897 0.46215 0.51732 0.0
C241 C 0.88954 0.47436 0.49132 0.0
C242 C 0.86688 0.47333 0.4675 0.0
C243 C 0.82605 0.46218 0.47037 0.0
C244 C 0.82845 0.45154 0.51932 0.0
H245 H 0.81015 0.46283 0.4517 0.0
H246 H 0.81509 0.44441 0.54009 0.0
H247 H 0.66169 0.38968 0.49785 0.0
H248 H 0.73526 0.51325 0.51672 0.0
C249 C 0.81358 0.54539 0.5069 0.0
C250 C 0.75093 0.4371 0.57629 0.0
C251 C 0.72546 0.45729 0.4334 0.0
C252 C 0.72644 0.35591 0.49198 0.0
H253 H 0.79429 0.51711 0.60175 0.0
H254 H 0.83327 0.57513 0.56422 0.0
H255 H 0.82028 0.5894 0.45542 0.0
H256 H 0.76893 0.54097 0.41611 0.0
H257 H 0.69686 0.38137 0.40437 0.0
H258 H 0.70074 0.32657 0.43584 0.0
H259 H 0.72414 0.31323 0.54159 0.0
H260 H 0.73759 0.35702 0.58725 0.0
H261 H 0.60207 0.39865 0.49789 0.0
H262 H 0.67929 0.52355 0.51688 0.0
H263 H 0.88448 0.4625 0.53656 0.0
H264 H 0.88064 0.48154 0.44671 0.0
C265 C 0.31235 0.76819 0.89605 0.0
C266 C 0.29829 0.79166 0.90801 0.0
C267 C 0.27909 0.79978 0.88674 0.0
C268 C 0.28256 0.78091 0.86301 0.0
N269 N 0.30244 0.76109 0.86791 0.0
Co270 Co 0.31787 0.73365 0.8384 0.0
N271 N 0.29144 0.74658 0.80671 0.0
C272 C 0.27133 0.76659 0.80941 0.0
C273 C 0.25372 0.76853 0.78455 0.0
C274 C 0.26304 0.74819 0.76484 0.0
C275 C 0.28592 0.73503 0.7788 0.0
N276 N 0.33632 0.70854 0.80901 0.0
C277 C 0.33156 0.70567 0.78035 0.0
C278 C 0.35222 0.68858 0.76792 0.0
C279 C 0.36995 0.67963 0.78944 0.0
C280 C 0.35938 0.69192 0.8136 0.0
N281 N 0.34208 0.71765 0.86992 0.0
C282 C 0.3602 0.69559 0.86733 0.0
C283 C 0.3712 0.6864 0.8926 0.0
C284 C 0.35977 0.70402 0.91274 0.0
C285 C 0.34261 0.72327 0.89843 0.0
N286 N 0.26537 0.68217 0.84406 0.0
C287 C 0.1828 0.61943 0.84815 0.0
C288 C 0.20654 0.62419 0.824 0.0
C289 C 0.24694 0.65526 0.82238 0.0
C290 C 0.20317 0.64556 0.87095 0.0
C291 C 0.24389 0.6755 0.86873 0.0
N292 N 0.3688 0.78675 0.83295 0.0
C293 C 0.42247 0.8476 0.85454 0.0
C294 C 0.42807 0.8704 0.82989 0.0
C295 C 0.40518 0.84909 0.80609 0.0
C296 C 0.37651 0.80771 0.80792 0.0
C297 C 0.39344 0.80646 0.85551 0.0
H298 H 0.35995 0.79335 0.78899 0.0
H299 H 0.39044 0.79149 0.87519 0.0
H300 H 0.26253 0.65748 0.80308 0.0
H301 H 0.25722 0.69388 0.88713 0.0
C302 C 0.26875 0.78195 0.83575 0.0
C303 C 0.33319 0.75148 0.91239 0.0
C304 C 0.30352 0.71335 0.76452 0.0
C305 C 0.36838 0.68578 0.84088 0.0
H306 H 0.30137 0.80152 0.92987 0.0
H307 H 0.26465 0.81764 0.88835 0.0
H308 H 0.23591 0.78273 0.78118 0.0
H309 H 0.25436 0.74378 0.7427 0.0
H310 H 0.35302 0.68168 0.74572 0.0
H311 H 0.38742 0.66478 0.78777 0.0
H312 H 0.38673 0.66984 0.89593 0.0
H313 H 0.36519 0.70421 0.9353 0.0
H314 H 0.19433 0.60434 0.80596 0.0
H315 H 0.1879 0.64422 0.89051 0.0
H316 H 0.43924 0.86165 0.87365 0.0
H317 H 0.40902 0.86428 0.78601 0.0
C318 C 0.53144 0.1043 0.1725 0.0
C319 C 0.56941 0.13378 0.18254 0.0
C320 C 0.5189 0.06293 0.17286 0.0
C321 C 0.54491 0.0496 0.18297 0.0
C322 C 0.58368 0.07905 0.19242 0.0
C323 C 0.59533 0.12041 0.19219 0.0
C324 C 0.47738 0.0333 0.16248 0.0
C325 C 0.61289 0.06679 0.20304 0.0
C326 C 0.49725 0.93893 0.20686 0.0
C327 C 0.50165 0.91979 0.18272 0.0
C328 C 0.5116 0.98082 0.2074 0.0
C329 C 0.5314 1.00502 0.18335 0.0
C330 C 0.53655 0.98603 0.15913 0.0
C331 C 0.5217 0.94412 0.15909 0.0
C332 C 0.50481 0.99911 0.23366 0.0
C333 C 0.55763 1.01003 0.13301 0.0
H334 H 0.51115 0.11347 0.16407 0.0
H335 H 0.62462 0.14219 0.20015 0.0
H336 H 0.47929 1.01614 0.14419 0.0
H337 H 0.46039 1.0114 0.1795 0.0
H338 H 0.46028 0.0481 0.15581 0.0
H339 H 0.64226 0.09299 0.20884 0.0
H340 H 0.60032 0.04723 0.22195 0.0
H341 H 0.61778 0.04912 0.18651 0.0
H342 H 0.48168 0.92099 0.22525 0.0
H343 H 0.52627 0.93042 0.14042 0.0
H344 H 0.48563 1.01213 0.22838 0.0
H345 H 0.53374 0.02392 0.24156 0.0
H346 H 0.49026 0.97686 0.25098 0.0
H347 H 0.5407 0.02375 0.12401 0.0
H348 H 0.56084 0.99142 0.11632 0.0
H349 H 0.58783 0.03487 0.13873 0.0
C350 C 0.49323 0.56076 0.52565 0.0
C351 C 0.45897 0.54374 0.50826 0.0
C352 C 0.5207 0.54626 0.52554 0.0
C353 C 0.51469 0.51428 0.5072 0.0
C354 C 0.48062 0.49767 0.48917 0.0
C355 C 0.45334 0.5122 0.49009 0.0
C356 C 0.55603 0.5649 0.54544 0.0
C357 C 0.47298 0.46446 0.46866 0.0
C358 C 0.60644 0.50377 0.48785 0.0
C359 C 0.60184 0.47178 0.50501 0.0
C360 C 0.5783 0.51722 0.48802 0.0
C361 C 0.54441 0.499 0.50622 0.0
C362 C 0.53918 0.46617 0.52329 0.0
C363 C 0.56759 0.45283 0.52233 0.0
C364 C 0.58527 0.55153 0.46888 0.0
C365 C 0.50404 0.4458 0.54327 0.0
H366 H 0.49802 0.58479 0.53998 0.0
H367 H 0.42744 0.4989 0.47624 0.0
H368 H 0.55559 0.54149 0.55941 0.0
H369 H 0.58432 0.57813 0.5331 0.0
H370 H 0.55622 0.58867 0.55892 0.0
H371 H 0.44557 0.45494 0.45577 0.0
H372 H 0.49889 0.47445 0.45409 0.0
H373 H 0.46977 0.43808 0.48045 0.0
H374 H 0.63267 0.5188 0.47437 0.0
H375 H 0.56381 0.42858 0.53602 0.0
H376 H 0.5896 0.57743 0.48188 0.0
H377 H 0.55866 0.54263 0.45526 0.0
H378 H 0.61189 0.56137 0.45501 0.0
H379 H 0.50504 0.46787 0.55891 0.0
H380 H 0.50369 0.42059 0.55495 0.0
H381 H 0.47561 0.43417 0.5313 0.0
C382 C 0.93695 0.4813 0.85045 0.0
C383 C 0.92358 0.44016 0.85456 0.0
C384 C 0.97831 0.51078 0.84997 0.0
C385 C 1.0081 0.49954 0.85284 0.0
C386 C 0.99504 0.4583 0.85688 0.0
C387 C 0.9536 0.42966 0.85821 0.0
C388 C 0.99015 0.55424 0.84635 0.0
C389 C 1.02503 0.44415 0.85955 0.0
C390 C 0.11503 0.57114 0.82451 0.0
C391 C 0.13781 0.58825 0.84942 0.0
C392 C 0.07353 0.54236 0.82534 0.0
C393 C 0.05271 0.53061 0.85162 0.0
C394 C 0.07496 0.54807 0.87679 0.0
C395 C 0.11674 0.57568 0.87546 0.0
C396 C 0.05193 0.52422 0.79784 0.0
C397 C 0.05452 0.53764 0.90539 0.0
H398 H 0.91518 0.49081 0.84718 0.0
H399 H 0.94506 0.39879 0.86233 0.0
H400 H 1.01057 0.57242 0.86376 0.0
H401 H 1.00667 0.56585 0.8261 0.0
H402 H 0.96384 0.55873 0.84626 0.0
H403 H 1.01044 0.41101 0.8611 0.0
H404 H 0.04537 0.45427 0.8409 0.0
H405 H 0.0438 0.45751 0.87869 0.0
H406 H 0.12928 0.58031 0.80397 0.0
H407 H 0.13266 0.58703 0.89523 0.0
H408 H 1.02809 0.5319 0.79445 0.0
H409 H 0.03717 0.49105 0.7989 0.0
H410 H 0.07236 0.53479 0.77922 0.0
H411 H 1.02837 0.54234 0.90515 0.0
H412 H 0.07493 0.55585 0.92282 0.0
H413 H 0.04309 0.50552 0.91011 0.0
C414 C 0.12511 0.53738 0.47222 0.0
C415 C 0.1498 0.56757 0.49165 0.0
C416 C 0.0832 0.52218 0.47094 0.0
C417 C 0.06467 0.53724 0.48945 0.0
C418 C 0.08941 0.56807 0.50881 0.0
C419 C 0.13122 0.58269 0.50969 0.0
C420 C 0.05856 0.4893 0.44999 0.0
C421 C 0.07158 0.58548 0.52893 0.0
C422 C 0.95971 0.52124 0.47174 0.0
C423 C 0.93423 0.48919 0.48963 0.0
C424 C 1.00174 0.53683 0.47128 0.0
C425 C 1.01952 0.52022 0.48906 0.0
C426 C 0.99395 0.48748 0.5068 0.0
C427 C 0.95209 0.47252 0.50686 0.0
C428 C 1.0273 0.57168 0.452 0.0
C429 C 1.01092 0.46831 0.52602 0.0
H430 H 0.13837 0.52468 0.45839 0.0
H431 H 0.14945 0.6063 0.52457 0.0
H432 H 0.03655 0.46199 0.46154 0.0
H433 H 0.04135 0.49855 0.43612 0.0
H434 H 0.07729 0.48155 0.4364 0.0
H435 H 0.09465 0.60986 0.54228 0.0
H436 H 0.05527 0.59753 0.51679 0.0
H437 H 0.04953 0.56161 0.54308 0.0
H438 H 0.94695 0.53503 0.45853 0.0
H439 H 0.93323 0.44742 0.52049 0.0
H440 H 0.04519 0.56384 0.43765 0.0
H441 H 0.04872 0.59781 0.46487 0.0
H442 H 1.00917 0.5807 0.4389 0.0
H443 H 1.02783 0.45743 0.51331 0.0
H444 H 0.98728 0.44273 0.53822 0.0
H445 H 0.03227 0.49084 0.54125 0.0
C446 C 0.49231 0.93378 0.84546 0.0
C447 C 0.45668 0.9157 0.82937 0.0
C448 C 0.51829 0.97596 0.84609 0.0
C449 C 0.50901 1.00175 0.83034 0.0
C450 C 0.47337 0.98378 0.81384 0.0
C451 C 0.44797 0.94147 0.81352 0.0
C452 C 0.5558 0.99301 0.86386 0.0
C453 C 0.46165 1.00941 0.79674 0.0
C454 C 0.55681 0.11275 0.8538 0.0
C455 C 0.58877 0.13317 0.83453 0.0
C456 C 0.53074 0.07062 0.85249 0.0
C457 C 0.5362 0.04728 0.83144 0.0
C458 C 0.56808 0.06766 0.81174 0.0
C459 C 0.59363 0.10987 0.81345 0.0
C460 C 0.49732 0.05097 0.87393 0.0
C461 C 0.57569 0.04467 0.78898 0.0
H462 H 0.50028 0.91487 0.85754 0.0
H463 H 0.42056 0.92866 0.80126 0.0
H464 H 0.58246 1.01109 0.85033 0.0
H465 H 0.55517 1.01337 0.88028 0.0
H466 H 0.55938 0.96931 0.87457 0.0
H467 H 0.43359 0.99124 0.78455 0.0
H468 H 0.45744 0.02989 0.81109 0.0
H469 H 0.48595 0.02837 0.78167 0.0
H470 H 0.55186 0.12978 0.87001 0.0
H471 H 0.61825 0.12451 0.79859 0.0
H472 H 0.50108 0.0288 0.88661 0.0
H473 H 0.46811 0.03439 0.86284 0.0
H474 H 0.49632 0.073 0.88866 0.0
H475 H 0.58259 0.02271 0.79893 0.0
H476 H 0.60094 0.06461 0.77482 0.0
H477 H 0.54843 0.02745 0.77585 0.0
C478 C 0.52809 0.60254 0.14301 0.0
C479 C 0.49579 0.59553 0.16081 0.0
C480 C 0.54386 0.57623 0.14227 0.0
C481 C 0.5274 0.54165 0.15984 0.0
C482 C 0.49461 0.53413 0.17765 0.0
C483 C 0.47928 0.56079 0.17786 0.0
C484 C 0.57866 0.58583 0.12284 0.0
C485 C 0.47578 0.49788 0.1968 0.0
C486 C 0.54573 0.45397 0.14243 0.0
C487 C 0.57653 0.46004 0.16142 0.0
C488 C 0.52994 0.48025 0.14146 0.0
C489 C 0.54481 0.51381 0.15999 0.0
C490 C 0.57615 0.52042 0.17895 0.0
C491 C 0.59158 0.49386 0.17935 0.0
C492 C 0.49675 0.47168 0.12076 0.0
C493 C 0.59326 0.55554 0.19916 0.0
H494 H 0.5419 0.62927 0.12998 0.0
H495 H 0.454 0.55411 0.19142 0.0
H496 H 0.60493 0.59076 0.13558 0.0
H497 H 0.571 0.56015 0.10847 0.0
H498 H 0.58734 0.61295 0.10975 0.0
H499 H 0.45037 0.49585 0.20928 0.0
H500 H 0.46481 0.47016 0.18399 0.0
H501 H 0.49852 0.49898 0.21176 0.0
H502 H 0.53307 0.42795 0.12867 0.0
H503 H 0.61574 0.49985 0.19384 0.0
H504 H 0.50548 0.49816 0.107 0.0
H505 H 0.46945 0.46595 0.13253 0.0
H506 H 0.48928 0.44537 0.10706 0.0
H507 H 0.60521 0.58397 0.18708 0.0
H508 H 0.61763 0.5569 0.21253 0.0
H509 H 0.56928 0.55354 0.21329 0.0
C510 C 0.7321 0.28924 0.97559 0.0
C511 C 0.71278 0.2678 0.95095 0.0
C512 C 0.71061 0.28439 1.00099 0.0
C513 C 0.66874 0.25705 1.00201 0.0
C514 C 0.64999 0.23262 0.97794 0.0
C515 C 0.67215 0.23835 0.95276 0.0
C516 C 0.73215 0.31109 0.02597 0.0
C517 C 0.6058 0.20249 0.97802 0.0
C518 C 0.62252 0.23849 0.07647 0.0
C519 C 0.60958 0.26667 0.07786 0.0
C520 C 0.63947 0.23308 0.05142 0.0
C521 C 0.64439 0.25697 0.02718 0.0
C522 C 0.62893 0.2836 0.02797 0.0
C523 C 0.61168 0.28804 0.05321 0.0
C524 C 0.65474 0.20387 0.05166 0.0
C525 C 0.63345 0.30984 1.00283 0.0
H526 H 0.76326 0.31253 0.97421 0.0
H527 H 0.65688 0.22182 0.93382 0.0
H528 H 0.72165 0.33293 0.02907 0.0
H529 H 0.72527 0.29314 0.04572 0.0
H530 H 0.76512 0.32797 0.02289 0.0
H531 H 0.59698 0.18178 0.95957 0.0
H532 H 0.59716 0.18461 0.99788 0.0
H533 H 0.58859 0.21851 0.97714 0.0
H534 H 0.62197 0.22267 0.09566 0.0
H535 H 0.6029 0.31072 0.05439 0.0
H536 H 0.68791 0.22065 0.05276 0.0
H537 H 0.64617 0.18589 0.03184 0.0
H538 H 0.64312 0.1832 0.07013 0.0
H539 H 0.66557 0.3323 0.99983 0.0
H540 H 0.61655 0.32598 1.00569 0.0
H541 H 0.62295 0.29169 0.98313 0.0
C542 C 0.44419 0.65991 0.27566 0.0
C543 C 0.4561 0.70082 0.27474 0.0
C544 C 0.42864 0.63718 0.30071 0.0
C545 C 0.42466 0.65565 0.32562 0.0
C546 C 0.4389 0.69754 0.3252 0.0
C547 C 0.45426 0.71951 0.2998 0.0
C548 C 0.41414 0.59284 0.29996 0.0
C549 C 0.43574 0.71877 0.35118 0.0
C550 C 0.34292 0.59791 0.38109 0.0
C551 C 0.36493 0.59512 0.40379 0.0
C552 C 0.36156 0.61553 0.35502 0.0
C553 C 0.40336 0.63105 0.35149 0.0
C554 C 0.42502 0.62563 0.37371 0.0
C555 C 0.40561 0.60787 0.39952 0.0
C556 C 0.337 0.62016 0.33198 0.0
C557 C 0.4694 0.64134 0.37109 0.0
H558 H 0.44479 0.64503 0.2563 0.0
H559 H 0.46248 0.75084 0.29905 0.0
H560 H 0.42574 0.58403 0.3185 0.0
H561 H 0.38097 0.57585 0.30128 0.0
H562 H 0.42339 0.58386 0.2802 0.0
H563 H 0.45072 0.75174 0.34813 0.0
H564 H 0.40374 0.70744 0.35625 0.0
H565 H 0.44932 0.71242 0.36978 0.0
H566 H 0.31181 0.58921 0.3845 0.0
H567 H 0.423 0.60679 0.41723 0.0
H568 H 0.34234 0.60981 0.31129 0.0
H569 H 0.34625 0.65231 0.32962 0.0
H570 H 0.30443 0.60312 0.33673 0.0
H571 H 0.47653 0.63263 0.35037 0.0
H572 H 0.48081 0.63016 0.38841 0.0
H573 H 0.48559 0.67457 0.37197 0.0
C574 C 0.77625 0.34767 0.72374 0.0
C575 C 0.74706 0.34051 0.74431 0.0
C576 C 0.77439 0.36154 0.69622 0.0
C577 C 0.74578 0.3738 0.6901 0.0
C578 C 0.71647 0.36662 0.71114 0.0
C579 C 0.71533 0.34658 0.73637 0.0
C580 C 0.80371 0.36308 0.67432 0.0
C581 C 0.68706 0.38155 0.70855 0.0
C582 C 0.78124 0.44576 0.62592 0.0
C583 C 0.74777 0.4283 0.60788 0.0
C584 C 0.77978 0.43064 0.65353 0.0
C585 C 0.7461 0.39356 0.66212 0.0
C586 C 0.71243 0.3757 0.64359 0.0
C587 C 0.71255 0.39532 0.61833 0.0
C588 C 0.8152 0.45462 0.67273 0.0
C589 C 0.67675 0.33456 0.6487 0.0
H590 H 0.80096 0.34305 0.72911 0.0
H591 H 0.69138 0.33957 0.75141 0.0
H592 H 0.7955 0.36634 0.65232 0.0
H593 H 0.83401 0.38832 0.67929 0.0
H594 H 0.80561 0.33527 0.6754 0.0
H595 H 0.68479 0.3945 0.7291 0.0
H596 H 0.69534 0.40481 0.69198 0.0
H597 H 0.65683 0.35588 0.70401 0.0
H598 H 0.80926 0.47042 0.61836 0.0
H599 H 0.68635 0.38141 0.60473 0.0
H600 H 0.84068 0.45106 0.66563 0.0
H601 H 0.80863 0.44588 0.69538 0.0
H602 H 0.82512 0.48703 0.67095 0.0
H603 H 0.66822 0.317 0.62864 0.0
H604 H 0.65069 0.33761 0.65507 0.0
H605 H 0.68219 0.31705 0.66496 0.0
C606 C 0.39201 0.79436 0.94344 0.0
C607 C 0.351 0.76633 0.94123 0.0
C608 C 0.41332 0.79882 0.9688 0.0
C609 C 0.39325 0.77462 0.99267 0.0
C610 C 0.3512 0.74834 0.99112 0.0
C611 C 0.33067 0.74442 0.96543 0.0
C612 C 0.45791 0.82733 0.96929 0.0
C613 C 0.3283 0.72217 0.01599 0.0
C614 C 0.4469 0.74215 0.0457 0.0
C615 C 0.45065 0.76558 0.06954 0.0
C616 C 0.43012 0.7462 0.02014 0.0
C617 C 0.41636 0.77416 0.01836 0.0
C618 C 0.42235 0.79953 0.04192 0.0
C619 C 0.43929 0.79487 0.06717 0.0
C620 C 0.42478 0.7187 0.99561 0.0
C621 C 0.40843 0.82982 0.04117 0.0
H622 H 0.4081 0.81074 0.92465 0.0
H623 H 0.29925 0.722 0.96363 0.0
H624 H 0.46673 0.8457 0.98893 0.0
H625 H 0.47375 0.80993 0.96927 0.0
H626 H 0.46815 0.84766 0.95061 0.0
H627 H 0.29543 0.7064 0.01249 0.0
H628 H 0.33748 0.69941 0.01952 0.0
H629 H 0.33534 0.74036 0.03565 0.0
H630 H 0.45466 0.7188 0.04766 0.0
H631 H 0.44126 0.81243 0.08572 0.0
H632 H 0.43651 0.7362 0.97573 0.0
H633 H 0.39241 0.6974 0.99234 0.0
H634 H 0.44017 0.70124 0.99931 0.0
H635 H 0.41862 0.84779 0.02138 0.0
H636 H 0.41952 0.85046 0.05968 0.0
H637 H 0.37522 0.81394 0.04128 0.0
C638 C 0.72772 0.45966 0.38026 0.0
C639 C 0.70665 0.45638 0.40536 0.0
C640 C 0.70736 0.44153 0.35477 0.0
C641 C 0.66483 0.4198 0.3542 0.0
C642 C 0.64364 0.41991 0.37881 0.0
C643 C 0.66474 0.43793 0.40405 0.0
C644 C 0.73143 0.44247 0.32919 0.0
C645 C 0.5985 0.3979 0.37932 0.0
C646 C 0.61627 0.38541 0.28078 0.0
C647 C 0.61084 0.3466 0.27899 0.0
C648 C 0.63199 0.40896 0.30551 0.0
C649 C 0.64292 0.39356 0.32907 0.0
C650 C 0.6351 0.35339 0.3279 0.0
C651 C 0.61916 0.33049 0.30296 0.0
C652 C 0.63906 0.45117 0.30574 0.0
C653 C 0.64602 0.33535 0.35231 0.0
H654 H 0.75996 0.47277 0.38129 0.0
H655 H 0.64822 0.43438 0.42352 0.0
H656 H 0.72748 0.4122 0.32571 0.0
H657 H 0.72065 0.45053 0.30983 0.0
H658 H 0.76387 0.46412 0.33186 0.0
H659 H 0.58675 0.4063 0.39808 0.0
H660 H 0.58651 0.40408 0.35975 0.0
H661 H 0.58707 0.36515 0.38013 0.0
H662 H 0.61042 0.39827 0.2622 0.0
H663 H 0.61575 0.30085 0.30149 0.0
H664 H 0.67168 0.47272 0.30472 0.0
H665 H 0.6277 0.45711 0.32576 0.0
H666 H 0.62441 0.45697 0.28749 0.0
H667 H 0.67908 0.35092 0.35449 0.0
H668 H 0.63481 0.30285 0.34921 0.0
H669 H 0.63367 0.33948 0.37251 0.0
C670 C 0.31318 0.71444 0.71161 0.0
C671 C 0.29072 0.69431 0.7357 0.0
C672 C 0.31053 0.69355 0.68626 0.0
C673 C 0.28499 0.6513 0.68487 0.0
C674 C 0.26052 0.63129 0.70868 0.0
C675 C 0.26376 0.65295 0.73372 0.0
C676 C 0.33702 0.71641 0.66151 0.0
C677 C 0.23278 0.58652 0.70841 0.0
C678 C 0.26627 0.60397 0.61061 0.0
C679 C 0.29607 0.59325 0.60861 0.0
C680 C 0.26107 0.62122 0.6356 0.0
C681 C 0.28624 0.62802 0.65939 0.0
C682 C 0.31461 0.61474 0.65806 0.0
C683 C 0.31923 0.59769 0.63275 0.0
C684 C 0.23032 0.63453 0.63584 0.0
C685 C 0.34192 0.62087 0.68282 0.0
H686 H 0.33484 0.74614 0.71324 0.0
H687 H 0.24704 0.63701 0.75245 0.0
H688 H 0.36002 0.70748 0.65836 0.0
H689 H 0.31918 0.70902 0.64169 0.0
H690 H 0.35245 0.74935 0.66487 0.0
H691 H 0.21234 0.57613 0.72704 0.0
H692 H 0.21457 0.57713 0.68872 0.0
H693 H 0.25072 0.57125 0.70869 0.0
H694 H 0.24865 0.60127 0.59197 0.0
H695 H 0.34286 0.59031 0.63118 0.0
H696 H 0.24575 0.66776 0.63572 0.0
H697 H 0.21198 0.62415 0.65546 0.0
H698 H 0.21011 0.62313 0.61714 0.0
H699 H 0.36276 0.65341 0.68595 0.0
H700 H 0.35983 0.60586 0.67949 0.0
H701 H 0.32426 0.60919 0.70264 0.0
loop_
_geom_bond_atom_site_label_1
_geom_bond_atom_site_label_2
_geom_bond_distance
_geom_bond_site_symmetry_2
_ccdc_geom_bond_type
C0 C1 1.443 . S
C0 N4 1.376 . S
C0 C38 1.389 . S
C1 C0 1.443 . S
C1 C2 1.340 . S
C1 H41 0.951 . S
C2 C1 1.340 . S
C2 C3 1.439 . S
C2 H42 0.950 . S
C3 C2 1.439 . S
C3 N4 1.374 . S
C3 C37 1.395 . S
N4 C0 1.376 . S
N4 C3 1.374 . S
N4 Co5 2.008 . S
Co5 N4 2.008 . S
Co5 N6 1.995 . S
Co5 N11 2.008 . S
Co5 N16 1.995 . S
Co5 N21 2.282 . S
Co5 N27 2.282 . S
N6 Co5 1.995 . S
N6 C7 1.376 . S
N6 C10 1.383 . S
C7 N6 1.376 . S
C7 C8 1.446 . S
C7 C37 1.391 . S
C8 C7 1.446 . S
C8 C9 1.339 . S
C8 H43 0.949 . S
C9 C8 1.339 . S
C9 C10 1.439 . S
C9 H44 0.950 . S
C10 N6 1.383 . S
C10 C9 1.439 . S
C10 C39 1.392 . S
N11 Co5 2.008 . S
N11 C12 1.376 . S
N11 C15 1.374 . S
C12 N11 1.376 . S
C12 C13 1.443 . S
C12 C39 1.389 . S
C13 C12 1.443 . S
C13 C14 1.340 . S
C13 H45 0.951 . S
C14 C13 1.340 . S
C14 C15 1.439 . S
C14 H46 0.950 . S
C15 N11 1.374 . S
C15 C14 1.439 . S
C15 C40 1.395 . S
N16 Co5 1.995 . S
N16 C17 1.376 . S
N16 C20 1.383 . S
C17 N16 1.376 . S
C17 C18 1.446 . S
C17 C40 1.391 . S
C18 C17 1.446 . S
C18 C19 1.339 . S
C18 H47 0.949 . S
C19 C18 1.339 . S
C19 C20 1.439 . S
C19 H48 0.950 . S
C20 N16 1.383 . S
C20 C19 1.439 . S
C20 C38 1.392 . S
N21 Co5 2.282 . S
N21 C24 1.332 . S
N21 C26 1.332 . S
C22 C23 1.386 . S
C22 C25 1.388 . S
C23 C22 1.386 . S
C23 C24 1.382 . S
C23 H49 0.950 . S
C24 N21 1.332 . S
C24 C23 1.382 . S
C24 H35 0.952 . S
C25 C22 1.388 . S
C25 C26 1.382 . S
C25 H50 0.950 . S
C26 N21 1.332 . S
C26 C25 1.382 . S
C26 H36 0.948 . S
N27 Co5 2.282 . S
N27 C31 1.332 . S
N27 C32 1.332 . S
C28 C29 1.388 . S
C28 C32 1.382 . S
C28 H51 0.950 . S
C29 C28 1.388 . S
C29 C30 1.386 . S
C30 C29 1.386 . S
C30 C31 1.382 . S
C30 H52 0.950 . S
C31 N27 1.332 . S
C31 C30 1.382 . S
C31 H33 0.952 . S
C32 N27 1.332 . S
C32 C28 1.382 . S
C32 H34 0.948 . S
H33 C31 0.952 . S
H34 C32 0.948 . S
H35 C24 0.952 . S
H36 C26 0.948 . S
C37 C3 1.395 . S
C37 C7 1.391 . S
C38 C0 1.389 . S
C38 C20 1.392 . S
C39 C10 1.392 . S
C39 C12 1.389 . S
C40 C15 1.395 . S
C40 C17 1.391 . S
H41 C1 0.951 . S
H42 C2 0.950 . S
H43 C8 0.949 . S
H44 C9 0.950 . S
H45 C13 0.951 . S
H46 C14 0.950 . S
H47 C18 0.949 . S
H48 C19 0.950 . S
H49 C23 0.950 . S
H50 C25 0.950 . S
H51 C28 0.950 . S
H52 C30 0.950 . S
C53 C54 1.443 . S
C53 N57 1.376 . S
C53 C91 1.389 . S
C54 C53 1.443 . S
C54 C55 1.340 . S
C54 H94 0.951 . S
C55 C54 1.340 . S
C55 C56 1.439 . S
C55 H95 0.950 . S
C56 C55 1.439 . S
C56 N57 1.374 . S
C56 C90 1.395 . S
N57 C53 1.376 . S
N57 C56 1.374 . S
N57 Co58 2.008 . S
Co58 N57 2.008 . S
Co58 N59 1.995 . S
Co58 N64 2.008 . S
Co58 N69 1.995 . S
Co58 N74 2.282 . S
Co58 N80 2.282 . S
N59 Co58 1.995 . S
N59 C60 1.376 . S
N59 C63 1.383 . S
C60 N59 1.376 . S
C60 C61 1.446 . S
C60 C90 1.391 . S
C61 C60 1.446 . S
C61 C62 1.339 . S
C61 H96 0.949 . S
C62 C61 1.339 . S
C62 C63 1.439 . S
C62 H97 0.950 . S
C63 N59 1.383 . S
C63 C62 1.439 . S
C63 C92 1.392 . S
N64 Co58 2.008 . S
N64 C65 1.376 . S
N64 C68 1.374 . S
C65 N64 1.376 . S
C65 C66 1.443 . S
C65 C92 1.389 . S
C66 C65 1.443 . S
C66 C67 1.340 . S
C66 H98 0.951 . S
C67 C66 1.340 . S
C67 C68 1.439 . S
C67 H99 0.950 . S
C68 N64 1.374 . S
C68 C67 1.439 . S
C68 C93 1.395 . S
N69 Co58 1.995 . S
N69 C70 1.376 . S
N69 C73 1.383 . S
C70 N69 1.376 . S
C70 C71 1.446 . S
C70 C93 1.391 . S
C71 C70 1.446 . S
C71 C72 1.339 . S
C71 H100 0.949 . S
C72 C71 1.339 . S
C72 C73 1.439 . S
C72 H101 0.950 . S
C73 N69 1.383 . S
C73 C72 1.439 . S
C73 C91 1.392 . S
N74 Co58 2.282 . S
N74 C77 1.332 . S
N74 C79 1.332 . S
C75 C76 1.386 . S
C75 C78 1.388 . S
C76 C75 1.386 . S
C76 C77 1.382 . S
C76 H102 0.950 . S
C77 N74 1.332 . S
C77 C76 1.382 . S
C77 H88 0.952 . S
C78 C75 1.388 . S
C78 C79 1.382 . S
C78 H103 0.950 . S
C79 N74 1.332 . S
C79 C78 1.382 . S
C79 H89 0.948 . S
N80 Co58 2.282 . S
N80 C84 1.332 . S
N80 C85 1.332 . S
C81 C82 1.388 . S
C81 C85 1.382 . S
C81 H104 0.950 . S
C82 C81 1.388 . S
C82 C83 1.386 . S
C83 C82 1.386 . S
C83 C84 1.382 . S
C83 H105 0.950 . S
C84 N80 1.332 . S
C84 C83 1.382 . S
C84 H86 0.952 . S
C85 N80 1.332 . S
C85 C81 1.382 . S
C85 H87 0.948 . S
H86 C84 0.952 . S
H87 C85 0.948 . S
H88 C77 0.952 . S
H89 C79 0.948 . S
C90 C56 1.395 . S
C90 C60 1.391 . S
C91 C53 1.389 . S
C91 C73 1.392 . S
C92 C63 1.392 . S
C92 C65 1.389 . S
C93 C68 1.395 . S
C93 C70 1.391 . S
H94 C54 0.951 . S
H95 C55 0.950 . S
H96 C61 0.949 . S
H97 C62 0.950 . S
H98 C66 0.951 . S
H99 C67 0.950 . S
H100 C71 0.949 . S
H101 C72 0.950 . S
H102 C76 0.950 . S
H103 C78 0.950 . S
H104 C81 0.950 . S
H105 C83 0.950 . S
C106 C107 1.443 . S
C106 N110 1.376 . S
C106 C144 1.389 . S
C107 C106 1.443 . S
C107 C108 1.340 . S
C107 H147 0.951 . S
C108 C107 1.340 . S
C108 C109 1.439 . S
C108 H148 0.950 . S
C109 C108 1.439 . S
C109 N110 1.374 . S
C109 C143 1.395 . S
N110 C106 1.376 . S
N110 C109 1.374 . S
N110 Co111 2.008 . S
Co111 N110 2.008 . S
Co111 N112 1.995 . S
Co111 N117 2.008 . S
Co111 N122 1.995 . S
Co111 N127 2.282 . S
Co111 N133 2.282 . S
N112 Co111 1.995 . S
N112 C113 1.376 . S
N112 C116 1.383 . S
C113 N112 1.376 . S
C113 C114 1.446 . S
C113 C143 1.391 . S
C114 C113 1.446 . S
C114 C115 1.339 . S
C114 H149 0.949 . S
C115 C114 1.339 . S
C115 C116 1.439 . S
C115 H150 0.950 . S
C116 N112 1.383 . S
C116 C115 1.439 . S
C116 C145 1.392 . S
N117 Co111 2.008 . S
N117 C118 1.376 . S
N117 C121 1.374 . S
C118 N117 1.376 . S
C118 C119 1.443 . S
C118 C145 1.389 . S
C119 C118 1.443 . S
C119 C120 1.340 . S
C119 H151 0.951 . S
C120 C119 1.340 . S
C120 C121 1.439 . S
C120 H152 0.950 . S
C121 N117 1.374 . S
C121 C120 1.439 . S
C121 C146 1.395 . S
N122 Co111 1.995 . S
N122 C123 1.376 . S
N122 C126 1.383 . S
C123 N122 1.376 . S
C123 C124 1.446 . S
C123 C146 1.391 . S
C124 C123 1.446 . S
C124 C125 1.339 . S
C124 H153 0.949 . S
C125 C124 1.339 . S
C125 C126 1.439 . S
C125 H154 0.950 . S
C126 N122 1.383 . S
C126 C125 1.439 . S
C126 C144 1.392 . S
N127 Co111 2.282 . S
N127 C130 1.332 . S
N127 C132 1.332 . S
C128 C129 1.386 . S
C128 C131 1.388 . S
C129 C128 1.386 . S
C129 C130 1.382 . S
C129 H155 0.950 . S
C130 N127 1.332 . S
C130 C129 1.382 . S
C130 H141 0.952 . S
C131 C128 1.388 . S
C131 C132 1.382 . S
C131 H156 0.950 . S
C132 N127 1.332 . S
C132 C131 1.382 . S
C132 H142 0.948 . S
N133 Co111 2.282 . S
N133 C137 1.332 . S
N133 C138 1.332 . S
C134 C135 1.388 . S
C134 C138 1.382 . S
C134 H157 0.950 . S
C135 C134 1.388 . S
C135 C136 1.386 . S
C136 C135 1.386 . S
C136 C137 1.382 . S
C136 H158 0.950 . S
C137 N133 1.332 . S
C137 C136 1.382 . S
C137 H139 0.952 . S
C138 N133 1.332 . S
C138 C134 1.382 . S
C138 H140 0.948 . S
H139 C137 0.952 . S
H140 C138 0.948 . S
H141 C130 0.952 . S
H142 C132 0.948 . S
C143 C109 1.395 . S
C143 C113 1.391 . S
C144 C106 1.389 . S
C144 C126 1.392 . S
C145 C116 1.392 . S
C145 C118 1.389 . S
C146 C121 1.395 . S
C146 C123 1.391 . S
H147 C107 0.951 . S
H148 C108 0.950 . S
H149 C114 0.949 . S
H150 C115 0.950 . S
H151 C119 0.951 . S
H152 C120 0.950 . S
H153 C124 0.949 . S
H154 C125 0.950 . S
H155 C129 0.950 . S
H156 C131 0.950 . S
H157 C134 0.950 . S
H158 C136 0.950 . S
C159 C160 1.443 . S
C159 N163 1.376 . S
C159 C197 1.389 . S
C160 C159 1.443 . S
C160 C161 1.340 . S
C160 H200 0.951 . S
C161 C160 1.340 . S
C161 C162 1.439 . S
C161 H201 0.950 . S
C162 C161 1.439 . S
C162 N163 1.374 . S
C162 C196 1.395 . S
N163 C159 1.376 . S
N163 C162 1.374 . S
N163 Co164 2.008 . S
Co164 N163 2.008 . S
Co164 N165 1.995 . S
Co164 N170 2.008 . S
Co164 N175 1.995 . S
Co164 N180 2.282 . S
Co164 N186 2.282 . S
N165 Co164 1.995 . S
N165 C166 1.376 . S
N165 C169 1.383 . S
C166 N165 1.376 . S
C166 C167 1.446 . S
C166 C196 1.391 . S
C167 C166 1.446 . S
C167 C168 1.339 . S
C167 H202 0.949 . S
C168 C167 1.339 . S
C168 C169 1.439 . S
C168 H203 0.950 . S
C169 N165 1.383 . S
C169 C168 1.439 . S
C169 C198 1.392 . S
N170 Co164 2.008 . S
N170 C171 1.376 . S
N170 C174 1.374 . S
C171 N170 1.376 . S
C171 C172 1.443 . S
C171 C198 1.389 . S
C172 C171 1.443 . S
C172 C173 1.340 . S
C172 H204 0.951 . S
C173 C172 1.340 . S
C173 C174 1.439 . S
C173 H205 0.950 . S
C174 N170 1.374 . S
C174 C173 1.439 . S
C174 C199 1.395 . S
N175 Co164 1.995 . S
N175 C176 1.376 . S
N175 C179 1.383 . S
C176 N175 1.376 . S
C176 C177 1.446 . S
C176 C199 1.391 . S
C177 C176 1.446 . S
C177 C178 1.339 . S
C177 H206 0.949 . S
C178 C177 1.339 . S
C178 C179 1.439 . S
C178 H207 0.950 . S
C179 N175 1.383 . S
C179 C178 1.439 . S
C179 C197 1.392 . S
N180 Co164 2.282 . S
N180 C183 1.332 . S
N180 C185 1.332 . S
C181 C182 1.386 . S
C181 C184 1.388 . S
C182 C181 1.386 . S
C182 C183 1.382 . S
C182 H208 0.950 . S
C183 N180 1.332 . S
C183 C182 1.382 . S
C183 H194 0.952 . S
C184 C181 1.388 . S
C184 C185 1.382 . S
C184 H209 0.950 . S
C185 N180 1.332 . S
C185 C184 1.382 . S
C185 H195 0.948 . S
N186 Co164 2.282 . S
N186 C190 1.332 . S
N186 C191 1.332 . S
C187 C188 1.388 . S
C187 C191 1.382 . S
C187 H210 0.950 . S
C188 C187 1.388 . S
C188 C189 1.386 . S
C189 C188 1.386 . S
C189 C190 1.382 . S
C189 H211 0.950 . S
C190 N186 1.332 . S
C190 C189 1.382 . S
C190 H192 0.952 . S
C191 N186 1.332 . S
C191 C187 1.382 . S
C191 H193 0.948 . S
H192 C190 0.952 . S
H193 C191 0.948 . S
H194 C183 0.952 . S
H195 C185 0.948 . S
C196 C162 1.395 . S
C196 C166 1.391 . S
C197 C159 1.389 . S
C197 C179 1.392 . S
C198 C169 1.392 . S
C198 C171 1.389 . S
C199 C174 1.395 . S
C199 C176 1.391 . S
H200 C160 0.951 . S
H201 C161 0.950 . S
H202 C167 0.949 . S
H203 C168 0.950 . S
H204 C172 0.951 . S
H205 C173 0.950 . S
H206 C177 0.949 . S
H207 C178 0.950 . S
H208 C182 0.950 . S
H209 C184 0.950 . S
H210 C187 0.950 . S
H211 C189 0.950 . S
C212 C213 1.443 . S
C212 N216 1.376 . S
C212 C250 1.389 . S
C213 C212 1.443 . S
C213 C214 1.340 . S
C213 H253 0.951 . S
C214 C213 1.340 . S
C214 C215 1.439 . S
C214 H254 0.950 . S
C215 C214 1.439 . S
C215 N216 1.374 . S
C215 C249 1.395 . S
N216 C212 1.376 . S
N216 C215 1.374 . S
N216 Co217 2.008 . S
Co217 N216 2.008 . S
Co217 N218 1.995 . S
Co217 N223 2.008 . S
Co217 N228 1.995 . S
Co217 N233 2.282 . S
Co217 N239 2.282 . S
N218 Co217 1.995 . S
N218 C219 1.376 . S
N218 C222 1.383 . S
C219 N218 1.376 . S
C219 C220 1.446 . S
C219 C249 1.391 . S
C220 C219 1.446 . S
C220 C221 1.339 . S
C220 H255 0.949 . S
C221 C220 1.339 . S
C221 C222 1.439 . S
C221 H256 0.950 . S
C222 N218 1.383 . S
C222 C221 1.439 . S
C222 C251 1.392 . S
N223 Co217 2.008 . S
N223 C224 1.376 . S
N223 C227 1.374 . S
C224 N223 1.376 . S
C224 C225 1.443 . S
C224 C251 1.389 . S
C225 C224 1.443 . S
C225 C226 1.340 . S
C225 H257 0.951 . S
C226 C225 1.340 . S
C226 C227 1.439 . S
C226 H258 0.950 . S
C227 N223 1.374 . S
C227 C226 1.439 . S
C227 C252 1.395 . S
N228 Co217 1.995 . S
N228 C229 1.376 . S
N228 C232 1.383 . S
C229 N228 1.376 . S
C229 C230 1.446 . S
C229 C252 1.391 . S
C230 C229 1.446 . S
C230 C231 1.339 . S
C230 H259 0.949 . S
C231 C230 1.339 . S
C231 C232 1.439 . S
C231 H260 0.950 . S
C232 N228 1.383 . S
C232 C231 1.439 . S
C232 C250 1.392 . S
N233 Co217 2.282 . S
N233 C236 1.332 . S
N233 C238 1.332 . S
C234 C235 1.386 . S
C234 C237 1.388 . S
C235 C234 1.386 . S
C235 C236 1.382 . S
C235 H261 0.950 . S
C236 N233 1.332 . S
C236 C235 1.382 . S
C236 H247 0.952 . S
C237 C234 1.388 . S
C237 C238 1.382 . S
C237 H262 0.950 . S
C238 N233 1.332 . S
C238 C237 1.382 . S
C238 H248 0.948 . S
N239 Co217 2.282 . S
N239 C243 1.332 . S
N239 C244 1.332 . S
C240 C241 1.388 . S
C240 C244 1.382 . S
C240 H263 0.950 . S
C241 C240 1.388 . S
C241 C242 1.386 . S
C242 C241 1.386 . S
C242 C243 1.382 . S
C242 H264 0.950 . S
C243 N239 1.332 . S
C243 C242 1.382 . S
C243 H245 0.952 . S
C244 N239 1.332 . S
C244 C240 1.382 . S
C244 H246 0.948 . S
H245 C243 0.952 . S
H246 C244 0.948 . S
H247 C236 0.952 . S
H248 C238 0.948 . S
C249 C215 1.395 . S
C249 C219 1.391 . S
C250 C212 1.389 . S
C250 C232 1.392 . S
C251 C222 1.392 . S
C251 C224 1.389 . S
C252 C227 1.395 . S
C252 C229 1.391 . S
H253 C213 0.951 . S
H254 C214 0.950 . S
H255 C220 0.949 . S
H256 C221 0.950 . S
H257 C225 0.951 . S
H258 C226 0.950 . S
H259 C230 0.949 . S
H260 C231 0.950 . S
H261 C235 0.950 . S
H262 C237 0.950 . S
H263 C240 0.950 . S
H264 C242 0.950 . S
C265 C266 1.443 . S
C265 N269 1.376 . S
C265 C303 1.389 . S
C266 C265 1.443 . S
C266 C267 1.340 . S
C266 H306 0.951 . S
C267 C266 1.340 . S
C267 C268 1.439 . S
C267 H307 0.950 . S
C268 C267 1.439 . S
C268 N269 1.374 . S
C268 C302 1.395 . S
N269 C265 1.376 . S
N269 C268 1.374 . S
N269 Co270 2.008 . S
Co270 N269 2.008 . S
Co270 N271 1.995 . S
Co270 N276 2.008 . S
Co270 N281 1.995 . S
Co270 N286 2.282 . S
Co270 N292 2.282 . S
N271 Co270 1.995 . S
N271 C272 1.376 . S
N271 C275 1.383 . S
C272 N271 1.376 . S
C272 C273 1.446 . S
C272 C302 1.391 . S
C273 C272 1.446 . S
C273 C274 1.339 . S
C273 H308 0.949 . S
C274 C273 1.339 . S
C274 C275 1.439 . S
C274 H309 0.950 . S
C275 N271 1.383 . S
C275 C274 1.439 . S
C275 C304 1.392 . S
N276 Co270 2.008 . S
N276 C277 1.376 . S
N276 C280 1.374 . S
C277 N276 1.376 . S
C277 C278 1.443 . S
C277 C304 1.389 . S
C278 C277 1.443 . S
C278 C279 1.340 . S
C278 H310 0.951 . S
C279 C278 1.340 . S
C279 C280 1.439 . S
C279 H311 0.950 . S
C280 N276 1.374 . S
C280 C279 1.439 . S
C280 C305 1.395 . S
N281 Co270 1.995 . S
N281 C282 1.376 . S
N281 C285 1.383 . S
C282 N281 1.376 . S
C282 C283 1.446 . S
C282 C305 1.391 . S
C283 C282 1.446 . S
C283 C284 1.339 . S
C283 H312 0.949 . S
C284 C283 1.339 . S
C284 C285 1.439 . S
C284 H313 0.950 . S
C285 N281 1.383 . S
C285 C284 1.439 . S
C285 C303 1.392 . S
N286 Co270 2.282 . S
N286 C289 1.332 . S
N286 C291 1.332 . S
C287 C288 1.386 . S
C287 C290 1.388 . S
C288 C287 1.386 . S
C288 C289 1.382 . S
C288 H314 0.950 . S
C289 N286 1.332 . S
C289 C288 1.382 . S
C289 H300 0.952 . S
C290 C287 1.388 . S
C290 C291 1.382 . S
C290 H315 0.950 . S
C291 N286 1.332 . S
C291 C290 1.382 . S
C291 H301 0.948 . S
N292 Co270 2.282 . S
N292 C296 1.332 . S
N292 C297 1.332 . S
C293 C294 1.388 . S
C293 C297 1.382 . S
C293 H316 0.950 . S
C294 C293 1.388 . S
C294 C295 1.386 . S
C295 C294 1.386 . S
C295 C296 1.382 . S
C295 H317 0.950 . S
C296 N292 1.332 . S
C296 C295 1.382 . S
C296 H298 0.952 . S
C297 N292 1.332 . S
C297 C293 1.382 . S
C297 H299 0.948 . S
H298 C296 0.952 . S
H299 C297 0.948 . S
H300 C289 0.952 . S
H301 C291 0.948 . S
C302 C268 1.395 . S
C302 C272 1.391 . S
C303 C265 1.389 . S
C303 C285 1.392 . S
C304 C275 1.392 . S
C304 C277 1.389 . S
C305 C280 1.395 . S
C305 C282 1.391 . S
H306 C266 0.951 . S
H307 C267 0.950 . S
H308 C273 0.949 . S
H309 C274 0.950 . S
H310 C278 0.951 . S
H311 C279 0.950 . S
H312 C283 0.949 . S
H313 C284 0.950 . S
H314 C288 0.950 . S
H315 C290 0.950 . S
H316 C293 0.950 . S
H317 C295 0.950 . S
C318 C319 1.391 . S
C318 C320 1.394 . S
C318 H334 0.931 . S
C319 C318 1.391 . S
C319 C323 1.376 . S
C320 C318 1.394 . S
C320 C321 1.369 . S
C320 C324 1.531 . S
C321 C320 1.369 . S
C321 C322 1.410 . S
C321 C329 1.503 1_545 S
C322 C321 1.410 . S
C322 C323 1.392 . S
C322 C325 1.511 . S
C323 C319 1.376 . S
C323 C322 1.392 . S
C323 H335 0.929 . S
C324 C320 1.531 . S
C324 H336 0.960 1_545 S
C324 H337 0.962 1_545 S
C324 H338 0.960 . S
C325 C322 1.511 . S
C325 H339 0.961 . S
C325 H340 0.961 . S
C325 H341 0.961 . S
C326 C327 1.370 . S
C326 C328 1.363 . S
C326 H342 0.931 . S
C327 C326 1.370 . S
C327 C331 1.408 . S
C328 C326 1.363 . S
C328 C329 1.370 . S
C328 C332 1.524 . S
C329 C321 1.503 1_565 S
C329 C328 1.370 . S
C329 C330 1.403 . S
C330 C329 1.403 . S
C330 C331 1.404 . S
C330 C333 1.539 . S
C331 C327 1.408 . S
C331 C330 1.404 . S
C331 H343 0.930 . S
C332 C328 1.524 . S
C332 H344 0.956 . S
C332 H345 0.961 1_565 S
C332 H346 0.961 . S
C333 C330 1.539 . S
C333 H347 0.958 . S
C333 H348 0.961 . S
C333 H349 0.960 1_565 S
H334 C318 0.931 . S
H335 C323 0.929 . S
H336 C324 0.960 1_565 S
H337 C324 0.962 1_565 S
H338 C324 0.960 . S
H339 C325 0.961 . S
H340 C325 0.961 . S
H341 C325 0.961 . S
H342 C326 0.931 . S
H343 C331 0.930 . S
H344 C332 0.956 . S
H345 C332 0.961 1_545 S
H346 C332 0.961 . S
H347 C333 0.958 . S
H348 C333 0.961 . S
H349 C333 0.960 1_545 S
C350 C351 1.391 . S
C350 C352 1.394 . S
C350 H366 0.931 . S
C351 C350 1.391 . S
C351 C355 1.376 . S
C352 C350 1.394 . S
C352 C353 1.369 . S
C352 C356 1.531 . S
C353 C352 1.369 . S
C353 C354 1.410 . S
C353 C361 1.503 . S
C354 C353 1.410 . S
C354 C355 1.392 . S
C354 C357 1.511 . S
C355 C351 1.376 . S
C355 C354 1.392 . S
C355 H367 0.929 . S
C356 C352 1.531 . S
C356 H368 0.960 . S
C356 H369 0.962 . S
C356 H370 0.960 . S
C357 C354 1.511 . S
C357 H371 0.961 . S
C357 H372 0.961 . S
C357 H373 0.961 . S
C358 C359 1.370 . S
C358 C360 1.363 . S
C358 H374 0.931 . S
C359 C358 1.370 . S
C359 C363 1.408 . S
C360 C358 1.363 . S
C360 C361 1.370 . S
C360 C364 1.524 . S
C361 C353 1.503 . S
C361 C360 1.370 . S
C361 C362 1.403 . S
C362 C361 1.403 . S
C362 C363 1.404 . S
C362 C365 1.539 . S
C363 C359 1.408 . S
C363 C362 1.404 . S
C363 H375 0.930 . S
C364 C360 1.524 . S
C364 H376 0.956 . S
C364 H377 0.961 . S
C364 H378 0.961 . S
C365 C362 1.539 . S
C365 H379 0.958 . S
C365 H380 0.961 . S
C365 H381 0.960 . S
H366 C350 0.931 . S
H367 C355 0.929 . S
H368 C356 0.960 . S
H369 C356 0.962 . S
H370 C356 0.960 . S
H371 C357 0.961 . S
H372 C357 0.961 . S
H373 C357 0.961 . S
H374 C358 0.931 . S
H375 C363 0.930 . S
H376 C364 0.956 . S
H377 C364 0.961 . S
H378 C364 0.961 . S
H379 C365 0.958 . S
H380 C365 0.961 . S
H381 C365 0.960 . S
C382 C383 1.391 . S
C382 C384 1.394 . S
C382 H398 0.931 . S
C383 C382 1.391 . S
C383 C387 1.376 . S
C384 C382 1.394 . S
C384 C385 1.369 . S
C384 C388 1.531 . S
C385 C384 1.369 . S
C385 C386 1.410 . S
C385 C393 1.503 1_655 S
C386 C385 1.410 . S
C386 C387 1.392 . S
C386 C389 1.511 . S
C387 C383 1.376 . S
C387 C386 1.392 . S
C387 H399 0.929 . S
C388 C384 1.531 . S
C388 H400 0.960 . S
C388 H401 0.962 . S
C388 H402 0.960 . S
C389 C386 1.511 . S
C389 H403 0.961 . S
C389 H404 0.961 1_655 S
C389 H405 0.956 1_655 S
C390 C391 1.370 . S
C390 C392 1.363 . S
C390 H406 0.931 . S
C391 C390 1.370 . S
C391 C395 1.408 . S
C392 C390 1.363 . S
C392 C393 1.370 . S
C392 C396 1.524 . S
C393 C385 1.503 1_455 S
C393 C392 1.370 . S
C393 C394 1.403 . S
C394 C393 1.403 . S
C394 C395 1.404 . S
C394 C397 1.539 . S
C395 C391 1.408 . S
C395 C394 1.404 . S
C395 H407 0.930 . S
C396 C392 1.524 . S
C396 H408 0.956 1_455 S
C396 H409 0.961 . S
C396 H410 0.961 . S
C397 C394 1.539 . S
C397 H411 0.958 . S
C397 H412 0.961 . S
C397 H413 0.960 . S
H398 C382 0.931 . S
H399 C387 0.929 . S
H400 C388 0.960 . S
H401 C388 0.962 . S
H402 C388 0.960 . S
H403 C389 0.961 . S
H404 C389 0.961 1_455 S
H405 C389 0.956 1_455 S
H406 C390 0.931 . S
H407 C395 0.930 . S
H408 C396 0.956 1_655 S
H409 C396 0.961 . S
H410 C396 0.961 . S
H411 C397 0.958 . S
H412 C397 0.961 . S
H413 C397 0.960 . S
C414 C415 1.391 . S
C414 C416 1.394 . S
C414 H430 0.931 . S
C415 C414 1.391 . S
C415 C419 1.376 . S
C416 C414 1.394 . S
C416 C417 1.369 . S
C416 C420 1.531 . S
C417 C416 1.369 . S
C417 C418 1.410 . S
C417 C425 1.503 1_455 S
C418 C417 1.410 . S
C418 C419 1.392 . S
C418 C421 1.511 . S
C419 C415 1.376 . S
C419 C418 1.392 . S
C419 H431 0.929 . S
C420 C416 1.531 . S
C420 H432 0.960 1_455 S
C420 H433 0.962 1_455 S
C420 H434 0.960 . S
C421 C418 1.511 . S
C421 H435 0.961 . S
C421 H436 0.961 . S
C421 H437 0.961 . S
C422 C423 1.370 . S
C422 C424 1.363 . S
C422 H438 0.931 . S
C423 C422 1.370 . S
C423 C427 1.408 . S
C424 C422 1.363 . S
C424 C425 1.370 . S
C424 C428 1.524 . S
C425 C417 1.503 1_655 S
C425 C424 1.370 . S
C425 C426 1.403 . S
C426 C425 1.403 . S
C426 C427 1.404 . S
C426 C429 1.539 . S
C427 C423 1.408 . S
C427 C426 1.404 . S
C427 H439 0.930 . S
C428 C424 1.524 . S
C428 H440 0.956 . S
C428 H441 0.961 1_655 S
C428 H442 0.961 . S
C429 C426 1.539 . S
C429 H443 0.958 . S
C429 H444 0.961 . S
C429 H445 0.960 1_655 S
H430 C414 0.931 . S
H431 C419 0.929 . S
H432 C420 0.960 1_655 S
H433 C420 0.962 1_655 S
H434 C420 0.960 . S
H435 C421 0.961 . S
H436 C421 0.961 . S
H437 C421 0.961 . S
H438 C422 0.931 . S
H439 C427 0.930 . S
H440 C428 0.956 . S
H441 C428 0.961 1_455 S
H442 C428 0.961 . S
H443 C429 0.958 . S
H444 C429 0.961 . S
H445 C429 0.960 1_455 S
C446 C447 1.391 . S
C446 C448 1.394 . S
C446 H462 0.931 . S
C447 C446 1.391 . S
C447 C451 1.376 . S
C448 C446 1.394 . S
C448 C449 1.369 . S
C448 C452 1.531 . S
C449 C448 1.369 . S
C449 C450 1.410 . S
C449 C457 1.503 1_565 S
C450 C449 1.410 . S
C450 C451 1.392 . S
C450 C453 1.511 . S
C451 C447 1.376 . S
C451 C450 1.392 . S
C451 H463 0.929 . S
C452 C448 1.531 . S
C452 H464 0.960 . S
C452 H465 0.962 . S
C452 H466 0.960 . S
C453 C450 1.511 . S
C453 H467 0.961 . S
C453 H468 0.961 1_565 S
C453 H469 0.961 . S
C454 C455 1.370 . S
C454 C456 1.363 . S
C454 H470 0.931 . S
C455 C454 1.370 . S
C455 C459 1.408 . S
C456 C454 1.363 . S
C456 C457 1.370 . S
C456 C460 1.524 . S
C457 C449 1.503 1_545 S
C457 C456 1.370 . S
C457 C458 1.403 . S
C458 C457 1.403 . S
C458 C459 1.404 . S
C458 C461 1.539 . S
C459 C455 1.408 . S
C459 C458 1.404 . S
C459 H471 0.930 . S
C460 C456 1.524 . S
C460 H472 0.956 . S
C460 H473 0.961 . S
C460 H474 0.961 . S
C461 C458 1.539 . S
C461 H475 0.958 . S
C461 H476 0.961 . S
C461 H477 0.960 1_545 S
H462 C446 0.931 . S
H463 C451 0.929 . S
H464 C452 0.960 . S
H465 C452 0.962 . S
H466 C452 0.960 . S
H467 C453 0.961 . S
H468 C453 0.961 1_545 S
H469 C453 0.961 . S
H470 C454 0.931 . S
H471 C459 0.930 . S
H472 C460 0.956 . S
H473 C460 0.961 . S
H474 C460 0.961 . S
H475 C461 0.958 . S
H476 C461 0.961 . S
H477 C461 0.960 1_565 S
C478 C479 1.391 . S
C478 C480 1.394 . S
C478 H494 0.931 . S
C479 C478 1.391 . S
C479 C483 1.376 . S
C480 C478 1.394 . S
C480 C481 1.369 . S
C480 C484 1.531 . S
C481 C480 1.369 . S
C481 C482 1.410 . S
C481 C489 1.503 . S
C482 C481 1.410 . S
C482 C483 1.392 . S
C482 C485 1.511 . S
C483 C479 1.376 . S
C483 C482 1.392 . S
C483 H495 0.929 . S
C484 C480 1.531 . S
C484 H496 0.960 . S
C484 H497 0.962 . S
C484 H498 0.960 . S
C485 C482 1.511 . S
C485 H499 0.961 . S
C485 H500 0.961 . S
C485 H501 0.961 . S
C486 C487 1.370 . S
C486 C488 1.363 . S
C486 H502 0.931 . S
C487 C486 1.370 . S
C487 C491 1.408 . S
C488 C486 1.363 . S
C488 C489 1.370 . S
C488 C492 1.524 . S
C489 C481 1.503 . S
C489 C488 1.370 . S
C489 C490 1.403 . S
C490 C489 1.403 . S
C490 C491 1.404 . S
C490 C493 1.539 . S
C491 C487 1.408 . S
C491 C490 1.404 . S
C491 H503 0.930 . S
C492 C488 1.524 . S
C492 H504 0.956 . S
C492 H505 0.961 . S
C492 H506 0.961 . S
C493 C490 1.539 . S
C493 H507 0.958 . S
C493 H508 0.961 . S
C493 H509 0.960 . S
H494 C478 0.931 . S
H495 C483 0.929 . S
H496 C484 0.960 . S
H497 C484 0.962 . S
H498 C484 0.960 . S
H499 C485 0.961 . S
H500 C485 0.961 . S
H501 C485 0.961 . S
H502 C486 0.931 . S
H503 C491 0.930 . S
H504 C492 0.956 . S
H505 C492 0.961 . S
H506 C492 0.961 . S
H507 C493 0.958 . S
H508 C493 0.961 . S
H509 C493 0.960 . S
C510 C511 1.391 . S
C510 C512 1.394 . S
C510 H526 0.931 . S
C511 C510 1.391 . S
C511 C515 1.376 . S
C512 C510 1.394 . S
C512 C513 1.369 . S
C512 C516 1.531 1_556 S
C513 C512 1.369 . S
C513 C514 1.410 . S
C513 C521 1.503 1_556 S
C514 C513 1.410 . S
C514 C515 1.392 . S
C514 C517 1.511 . S
C515 C511 1.376 . S
C515 C514 1.392 . S
C515 H527 0.929 . S
C516 C512 1.531 1_554 S
C516 H528 0.960 . S
C516 H529 0.962 . S
C516 H530 0.960 1_554 S
C517 C514 1.511 . S
C517 H531 0.961 . S
C517 H532 0.961 . S
C517 H533 0.961 . S
C518 C519 1.370 . S
C518 C520 1.363 . S
C518 H534 0.931 . S
C519 C518 1.370 . S
C519 C523 1.408 . S
C520 C518 1.363 . S
C520 C521 1.370 . S
C520 C524 1.524 . S
C521 C513 1.503 1_554 S
C521 C520 1.370 . S
C521 C522 1.403 . S
C522 C521 1.403 . S
C522 C523 1.404 . S
C522 C525 1.539 1_554 S
C523 C519 1.408 . S
C523 C522 1.404 . S
C523 H535 0.930 . S
C524 C520 1.524 . S
C524 H536 0.956 . S
C524 H537 0.961 . S
C524 H538 0.961 . S
C525 C522 1.539 1_556 S
C525 H539 0.958 . S
C525 H540 0.961 . S
C525 H541 0.960 . S
H526 C510 0.931 . S
H527 C515 0.929 . S
H528 C516 0.960 . S
H529 C516 0.962 . S
H530 C516 0.960 1_556 S
H531 C517 0.961 . S
H532 C517 0.961 . S
H533 C517 0.961 . S
H534 C518 0.931 . S
H535 C523 0.930 . S
H536 C524 0.956 . S
H537 C524 0.961 . S
H538 C524 0.961 . S
H539 C525 0.958 . S
H540 C525 0.961 . S
H541 C525 0.960 . S
C542 C543 1.391 . S
C542 C544 1.394 . S
C542 H558 0.931 . S
C543 C542 1.391 . S
C543 C547 1.376 . S
C544 C542 1.394 . S
C544 C545 1.369 . S
C544 C548 1.531 . S
C545 C544 1.369 . S
C545 C546 1.410 . S
C545 C553 1.503 . S
C546 C545 1.410 . S
C546 C547 1.392 . S
C546 C549 1.511 . S
C547 C543 1.376 . S
C547 C546 1.392 . S
C547 H559 0.929 . S
C548 C544 1.531 . S
C548 H560 0.960 . S
C548 H561 0.962 . S
C548 H562 0.960 . S
C549 C546 1.511 . S
C549 H563 0.961 . S
C549 H564 0.961 . S
C549 H565 0.961 . S
C550 C551 1.370 . S
C550 C552 1.363 . S
C550 H566 0.931 . S
C551 C550 1.370 . S
C551 C555 1.408 . S
C552 C550 1.363 . S
C552 C553 1.370 . S
C552 C556 1.524 . S
C553 C545 1.503 . S
C553 C552 1.370 . S
C553 C554 1.403 . S
C554 C553 1.403 . S
C554 C555 1.404 . S
C554 C557 1.539 . S
C555 C551 1.408 . S
C555 C554 1.404 . S
C555 H567 0.930 . S
C556 C552 1.524 . S
C556 H568 0.956 . S
C556 H569 0.961 . S
C556 H570 0.961 . S
C557 C554 1.539 . S
C557 H571 0.958 . S
C557 H572 0.961 . S
C557 H573 0.960 . S
H558 C542 0.931 . S
H559 C547 0.929 . S
H560 C548 0.960 . S
H561 C548 0.962 . S
H562 C548 0.960 . S
H563 C549 0.961 . S
H564 C549 0.961 . S
H565 C549 0.961 . S
H566 C550 0.931 . S
H567 C555 0.930 . S
H568 C556 0.956 . S
H569 C556 0.961 . S
H570 C556 0.961 . S
H571 C557 0.958 . S
H572 C557 0.961 . S
H573 C557 0.960 . S
C574 C575 1.391 . S
C574 C576 1.394 . S
C574 H590 0.931 . S
C575 C574 1.391 . S
C575 C579 1.376 . S
C576 C574 1.394 . S
C576 C577 1.369 . S
C576 C580 1.531 . S
C577 C576 1.369 . S
C577 C578 1.410 . S
C577 C585 1.503 . S
C578 C577 1.410 . S
C578 C579 1.392 . S
C578 C581 1.511 . S
C579 C575 1.376 . S
C579 C578 1.392 . S
C579 H591 0.929 . S
C580 C576 1.531 . S
C580 H592 0.960 . S
C580 H593 0.962 . S
C580 H594 0.960 . S
C581 C578 1.511 . S
C581 H595 0.961 . S
C581 H596 0.961 . S
C581 H597 0.961 . S
C582 C583 1.370 . S
C582 C584 1.363 . S
C582 H598 0.931 . S
C583 C582 1.370 . S
C583 C587 1.408 . S
C584 C582 1.363 . S
C584 C585 1.370 . S
C584 C588 1.524 . S
C585 C577 1.503 . S
C585 C584 1.370 . S
C585 C586 1.403 . S
C586 C585 1.403 . S
C586 C587 1.404 . S
C586 C589 1.539 . S
C587 C583 1.408 . S
C587 C586 1.404 . S
C587 H599 0.930 . S
C588 C584 1.524 . S
C588 H600 0.956 . S
C588 H601 0.961 . S
C588 H602 0.961 . S
C589 C586 1.539 . S
C589 H603 0.958 . S
C589 H604 0.961 . S
C589 H605 0.960 . S
H590 C574 0.931 . S
H591 C579 0.929 . S
H592 C580 0.960 . S
H593 C580 0.962 . S
H594 C580 0.960 . S
H595 C581 0.961 . S
H596 C581 0.961 . S
H597 C581 0.961 . S
H598 C582 0.931 . S
H599 C587 0.930 . S
H600 C588 0.956 . S
H601 C588 0.961 . S
H602 C588 0.961 . S
H603 C589 0.958 . S
H604 C589 0.961 . S
H605 C589 0.960 . S
C606 C607 1.391 . S
C606 C608 1.394 . S
C606 H622 0.931 . S
C607 C606 1.391 . S
C607 C611 1.376 . S
C608 C606 1.394 . S
C608 C609 1.369 . S
C608 C612 1.531 . S
C609 C608 1.369 . S
C609 C610 1.410 . S
C609 C617 1.503 1_556 S
C610 C609 1.410 . S
C610 C611 1.392 . S
C610 C613 1.511 1_556 S
C611 C607 1.376 . S
C611 C610 1.392 . S
C611 H623 0.929 . S
C612 C608 1.531 . S
C612 H624 0.960 . S
C612 H625 0.962 . S
C612 H626 0.960 . S
C613 C610 1.511 1_554 S
C613 H627 0.961 . S
C613 H628 0.961 . S
C613 H629 0.961 . S
C614 C615 1.370 . S
C614 C616 1.363 . S
C614 H630 0.931 . S
C615 C614 1.370 . S
C615 C619 1.408 . S
C616 C614 1.363 . S
C616 C617 1.370 . S
C616 C620 1.524 . S
C617 C609 1.503 1_554 S
C617 C616 1.370 . S
C617 C618 1.403 . S
C618 C617 1.403 . S
C618 C619 1.404 . S
C618 C621 1.539 . S
C619 C615 1.408 . S
C619 C618 1.404 . S
C619 H631 0.930 . S
C620 C616 1.524 . S
C620 H632 0.956 1_554 S
C620 H633 0.961 . S
C620 H634 0.961 . S
C621 C618 1.539 . S
C621 H635 0.958 . S
C621 H636 0.961 . S
C621 H637 0.960 . S
H622 C606 0.931 . S
H623 C611 0.929 . S
H624 C612 0.960 . S
H625 C612 0.962 . S
H626 C612 0.960 . S
H627 C613 0.961 . S
H628 C613 0.961 . S
H629 C613 0.961 . S
H630 C614 0.931 . S
H631 C619 0.930 . S
H632 C620 0.956 1_556 S
H633 C620 0.961 . S
H634 C620 0.961 . S
H635 C621 0.958 . S
H636 C621 0.961 . S
H637 C621 0.960 . S
C638 C639 1.391 . S
C638 C640 1.394 . S
C638 H654 0.931 . S
C639 C638 1.391 . S
C639 C643 1.376 . S
C640 C638 1.394 . S
C640 C641 1.369 . S
C640 C644 1.531 . S
C641 C640 1.369 . S
C641 C642 1.410 . S
C641 C649 1.503 . S
C642 C641 1.410 . S
C642 C643 1.392 . S
C642 C645 1.511 . S
C643 C639 1.376 . S
C643 C642 1.392 . S
C643 H655 0.929 . S
C644 C640 1.531 . S
C644 H656 0.960 . S
C644 H657 0.962 . S
C644 H658 0.960 . S
C645 C642 1.511 . S
C645 H659 0.961 . S
C645 H660 0.961 . S
C645 H661 0.961 . S
C646 C647 1.370 . S
C646 C648 1.363 . S
C646 H662 0.931 . S
C647 C646 1.370 . S
C647 C651 1.408 . S
C648 C646 1.363 . S
C648 C649 1.370 . S
C648 C652 1.524 . S
C649 C641 1.503 . S
C649 C648 1.370 . S
C649 C650 1.403 . S
C650 C649 1.403 . S
C650 C651 1.404 . S
C650 C653 1.539 . S
C651 C647 1.408 . S
C651 C650 1.404 . S
C651 H663 0.930 . S
C652 C648 1.524 . S
C652 H664 0.956 . S
C652 H665 0.961 . S
C652 H666 0.961 . S
C653 C650 1.539 . S
C653 H667 0.958 . S
C653 H668 0.961 . S
C653 H669 0.960 . S
H654 C638 0.931 . S
H655 C643 0.929 . S
H656 C644 0.960 . S
H657 C644 0.962 . S
H658 C644 0.960 . S
H659 C645 0.961 . S
H660 C645 0.961 . S
H661 C645 0.961 . S
H662 C646 0.931 . S
H663 C651 0.930 . S
H664 C652 0.956 . S
H665 C652 0.961 . S
H666 C652 0.961 . S
H667 C653 0.958 . S
H668 C653 0.961 . S
H669 C653 0.960 . S
C670 C671 1.391 . S
C670 C672 1.394 . S
C670 H686 0.931 . S
C671 C670 1.391 . S
C671 C675 1.376 . S
C672 C670 1.394 . S
C672 C673 1.369 . S
C672 C676 1.531 . S
C673 C672 1.369 . S
C673 C674 1.410 . S
C673 C681 1.503 . S
C674 C673 1.410 . S
C674 C675 1.392 . S
C674 C677 1.511 . S
C675 C671 1.376 . S
C675 C674 1.392 . S
C675 H687 0.929 . S
C676 C672 1.531 . S
C676 H688 0.960 . S
C676 H689 0.962 . S
C676 H690 0.960 . S
C677 C674 1.511 . S
C677 H691 0.961 . S
C677 H692 0.961 . S
C677 H693 0.961 . S
C678 C679 1.370 . S
C678 C680 1.363 . S
C678 H694 0.931 . S
C679 C678 1.370 . S
C679 C683 1.408 . S
C680 C678 1.363 . S
C680 C681 1.370 . S
C680 C684 1.524 . S
C681 C673 1.503 . S
C681 C680 1.370 . S
C681 C682 1.403 . S
C682 C681 1.403 . S
C682 C683 1.404 . S
C682 C685 1.539 . S
C683 C679 1.408 . S
C683 C682 1.404 . S
C683 H695 0.930 . S
C684 C680 1.524 . S
C684 H696 0.956 . S
C684 H697 0.961 . S
C684 H698 0.961 . S
C685 C682 1.539 . S
C685 H699 0.958 . S
C685 H700 0.961 . S
C685 H701 0.960 . S
H686 C670 0.931 . S
H687 C675 0.929 . S
H688 C676 0.960 . S
H689 C676 0.962 . S
H690 C676 0.960 . S
H691 C677 0.961 . S
H692 C677 0.961 . S
H693 C677 0.961 . S
H694 C678 0.931 . S
H695 C683 0.930 . S
H696 C684 0.956 . S
H697 C684 0.961 . S
H698 C684 0.961 . S
H699 C685 0.958 . S
H700 C685 0.961 . S
H701 C685 0.960 . S
C319 C22 1.658 . S
C327 C181 1.652 . S
C351 C75 1.632 . S
C359 C234 1.660 . S
C383 C128 1.646 . S
C391 C287 1.653 . S
C415 C82 1.659 . S
C423 C241 1.658 . S
C447 C294 1.664 . S
C455 C135 1.653 . S
C479 C188 1.658 . S
C487 C29 1.658 . S
C511 C144 2.291 . S
C519 C39 2.310 . S
C543 C197 2.311 . S
C551 C92 2.312 . S
C575 C145 2.300 . S
C583 C250 2.310 . S
C607 C303 2.325 . S
C615 C198 2.306 . S
C639 C251 2.289 . S
C647 C38 2.314 . S
C671 C304 2.287 . S
C679 C91 2.315 . S
