# Generated by pormake.
# Topology wld, (5)-cn, num edge types: 1
# Building blocks:
#     Node 0, Type 0, BuildingBlock: XOMCOT_clean_sbu_0, # of connection points: 5
#     Node 1, Type 0, BuildingBlock: XOMCOT_clean_sbu_0, # of connection points: 5
#     Node 2, Type 0, BuildingBlock: XOMCOT_clean_sbu_0, # of connection points: 5
#     Node 3, Type 0, BuildingBlock: XOMCOT_clean_sbu_0, # of connection points: 5
#     Node 4, Type 0, BuildingBlock: XOMCOT_clean_sbu_0, # of connection points: 5
#     Node 5, Type 0, BuildingBlock: XOMCOT_clean_sbu_0, # of connection points: 5
#     Node 6, Type 0, BuildingBlock: XOMCOT_clean_sbu_0, # of connection points: 5
#     Node 7, Type 0, BuildingBlock: XOMCOT_clean_sbu_0, # of connection points: 5
#     Node 8, Type 0, BuildingBlock: XOMCOT_clean_sbu_0, # of connection points: 5
#     Node 9, Type 0, BuildingBlock: XOMCOT_clean_sbu_0, # of connection points: 5
#     Node 10, Type 0, BuildingBlock: XOMCOT_clean_sbu_0, # of connection points: 5
#     Node 11, Type 0, BuildingBlock: XOMCOT_clean_sbu_0, # of connection points: 5
#     Edge 12, Type (0, 0), BuildingBlock: TEMPAE_clean_linker_10, # of connection points: 2
#     Edge 13, Type (0, 0), BuildingBlock: TEMPAE_clean_linker_10, # of connection points: 2
#     Edge 14, Type (0, 0), BuildingBlock: TEMPAE_clean_linker_10, # of connection points: 2
#     Edge 15, Type (0, 0), BuildingBlock: TEMPAE_clean_linker_10, # of connection points: 2
#     Edge 16, Type (0, 0), BuildingBlock: TEMPAE_clean_linker_10, # of connection points: 2
#     Edge 17, Type (0, 0), BuildingBlock: TEMPAE_clean_linker_10, # of connection points: 2
#     Edge 18, Type (0, 0), BuildingBlock: TEMPAE_clean_linker_10, # of connection points: 2
#     Edge 19, Type (0, 0), BuildingBlock: TEMPAE_clean_linker_10, # of connection points: 2
#     Edge 20, Type (0, 0), BuildingBlock: TEMPAE_clean_linker_10, # of connection points: 2
#     Edge 21, Type (0, 0), BuildingBlock: TEMPAE_clean_linker_10, # of connection points: 2
#     Edge 22, Type (0, 0), BuildingBlock: TEMPAE_clean_linker_10, # of connection points: 2
#     Edge 23, Type (0, 0), BuildingBlock: TEMPAE_clean_linker_10, # of connection points: 2
#     Edge 24, Type (0, 0), BuildingBlock: TEMPAE_clean_linker_10, # of connection points: 2
#     Edge 25, Type (0, 0), BuildingBlock: TEMPAE_clean_linker_10, # of connection points: 2
#     Edge 26, Type (0, 0), BuildingBlock: TEMPAE_clean_linker_10, # of connection points: 2
#     Edge 27, Type (0, 0), BuildingBlock: TEMPAE_clean_linker_10, # of connection points: 2
#     Edge 28, Type (0, 0), BuildingBlock: TEMPAE_clean_linker_10, # of connection points: 2
#     Edge 29, Type (0, 0), BuildingBlock: TEMPAE_clean_linker_10, # of connection points: 2
#     Edge 30, Type (0, 0), BuildingBlock: TEMPAE_clean_linker_10, # of connection points: 2
#     Edge 31, Type (0, 0), BuildingBlock: TEMPAE_clean_linker_10, # of connection points: 2
#     Edge 32, Type (0, 0), BuildingBlock: TEMPAE_clean_linker_10, # of connection points: 2
#     Edge 33, Type (0, 0), BuildingBlock: TEMPAE_clean_linker_10, # of connection points: 2
#     Edge 34, Type (0, 0), BuildingBlock: TEMPAE_clean_linker_10, # of connection points: 2
#     Edge 35, Type (0, 0), BuildingBlock: TEMPAE_clean_linker_10, # of connection points: 2
#     Edge 36, Type (0, 0), BuildingBlock: TEMPAE_clean_linker_10, # of connection points: 2
#     Edge 37, Type (0, 0), BuildingBlock: TEMPAE_clean_linker_10, # of connection points: 2
#     Edge 38, Type (0, 0), BuildingBlock: TEMPAE_clean_linker_10, # of connection points: 2
#     Edge 39, Type (0, 0), BuildingBlock: TEMPAE_clean_linker_10, # of connection points: 2
#     Edge 40, Type (0, 0), BuildingBlock: TEMPAE_clean_linker_10, # of connection points: 2
#     Edge 41, Type (0, 0), BuildingBlock: TEMPAE_clean_linker_10, # of connection points: 2
# Relax obj value: 0.214
# Max RMSD: 0.221
# Mean RMSD: 0.221
data_MOF--net-wld--node1-XOMCOT_clean_sbu_0--edge1-TEMPAE_clean_linker_10
_symmetry_space_group_name_H-M    P1
_symmetry_Int_Tables_number       1
_symmetry_cell_setting            triclinic
loop_
_symmetry_equiv_pos_as_xyz
'x, y, z'
_cell_length_a     38.309117
_cell_length_b     38.306261
_cell_length_c     51.947247
_cell_angle_alpha  90.026728
_cell_angle_beta   90.010982
_cell_angle_gamma 119.98469
loop_
_atom_site_label
_atom_site_type_symbol
_atom_site_fract_x
_atom_site_fract_y
_atom_site_fract_z
_atom_type_partial_charge
Co0 Co 0.39135 0.25499 0.08614 0.0
C1 C 0.34305 0.28703 0.06087 0.0
C2 C 0.40657 0.32692 0.05714 0.0
C3 C 0.38707 0.34244 0.04321 0.0
N4 N 0.3791 0.29274 0.06899 0.0
N5 N 0.34711 0.31728 0.0455 0.0
H6 H 0.31462 0.25986 0.0641 0.0
H7 H 0.43875 0.33872 0.05716 0.0
C8 C 0.455 0.33405 0.10686 0.0
O9 O 0.42632 0.34132 0.11397 0.0
N10 N 0.40433 0.21744 0.10198 0.0
C11 C 0.37812 0.18092 0.11172 0.0
C12 C 0.39872 0.16085 0.1171 0.0
C13 C 0.44039 0.21939 0.10174 0.0
N14 N 0.43774 0.18527 0.11093 0.0
C15 C 0.32946 0.25031 0.12037 0.0
C16 C 0.3755 0.26845 0.16458 0.0
C17 C 0.33638 0.26242 0.16635 0.0
C18 C 0.313 0.25262 0.14389 0.0
C19 C 0.39063 0.26578 0.14077 0.0
N20 N 0.3685 0.25886 0.11878 0.0
H21 H 0.31036 0.24061 0.10368 0.0
H22 H 0.4206 0.26977 0.13999 0.0
H23 H 0.34602 0.16908 0.11363 0.0
H24 H 0.46746 0.24413 0.09356 0.0
O25 O 0.34424 0.21012 0.07106 0.0
O26 O 0.40496 0.24214 0.05318 0.0
O27 O 0.44632 0.30092 0.09569 0.0
C28 C 0.36775 0.21285 0.05211 0.0
H29 H 0.4013 0.36946 0.03156 0.0
H30 H 0.38597 0.13035 0.12426 0.0
H31 H 0.39466 0.27588 0.18139 0.0
H32 H 0.28209 0.24619 0.14455 0.0
Co33 Co 0.73951 0.136 0.07966 0.0
C34 C 0.70976 0.05617 0.05407 0.0
C35 C 0.66957 0.07923 0.04903 0.0
C36 C 0.65502 0.04423 0.03514 0.0
N37 N 0.70328 0.08626 0.06166 0.0
N38 N 0.68037 0.02977 0.03826 0.0
H39 H 0.73686 0.05515 0.05808 0.0
H40 H 0.65734 0.09925 0.04866 0.0
C41 C 0.6589 0.11878 0.09865 0.0
O42 O 0.65147 0.08259 0.10528 0.0
N43 N 0.77558 0.18621 0.09646 0.0
C44 C 0.8118 0.19686 0.10687 0.0
C45 C 0.8301 0.23684 0.11395 0.0
C46 C 0.77205 0.21942 0.09749 0.0
N47 N 0.80488 0.25066 0.10815 0.0
C48 C 0.74491 0.07921 0.11377 0.0
C49 C 0.72159 0.10323 0.15756 0.0
C50 C 0.72904 0.07107 0.1592 0.0
C51 C 0.74179 0.05967 0.13709 0.0
C52 C 0.72533 0.122 0.13397 0.0
N53 N 0.73456 0.10844 0.11209 0.0
H54 H 0.75659 0.0714 0.09733 0.0
H55 H 0.72054 0.14748 0.13329 0.0
H56 H 0.82451 0.17729 0.1084 0.0
H57 H 0.74695 0.22132 0.08951 0.0
O58 O 0.7855 0.13497 0.06543 0.0
O59 O 0.75358 0.16345 0.04705 0.0
O60 O 0.69253 0.14385 0.08833 0.0
C61 C 0.78316 0.1559 0.04643 0.0
H62 H 0.62842 0.03111 0.02308 0.0
H63 H 0.85983 0.25461 0.12227 0.0
H64 H 0.71327 0.11406 0.17443 0.0
H65 H 0.74893 0.03566 0.13772 0.0
Co66 Co 0.85687 0.60367 0.08746 0.0
C67 C 0.93993 0.64869 0.06549 0.0
C68 C 0.91318 0.58483 0.06121 0.0
C69 C 0.94959 0.60292 0.04872 0.0
N70 N 0.90745 0.61337 0.07248 0.0
N71 N 0.96633 0.64306 0.05143 0.0
H72 H 0.94279 0.6779 0.0684 0.0
H73 H 0.89134 0.55302 0.06057 0.0
C74 C 0.86625 0.53699 0.10983 0.0
O75 O 0.90199 0.56417 0.11831 0.0
N76 N 0.8058 0.59302 0.10125 0.0
C77 C 0.79558 0.62023 0.10923 0.0
C78 C 0.755 0.60018 0.11495 0.0
C79 C 0.77175 0.557 0.10236 0.0
N80 N 0.74042 0.56055 0.11076 0.0
C81 C 0.91257 0.66418 0.12289 0.0
C82 C 0.88056 0.61839 0.1668 0.0
C83 C 0.91475 0.65669 0.16902 0.0
C84 C 0.93032 0.68003 0.14673 0.0
C85 C 0.86393 0.60372 0.14261 0.0
N86 N 0.88127 0.62562 0.12082 0.0
H87 H 0.92348 0.68338 0.10629 0.0
H88 H 0.83725 0.5743 0.14138 0.0
H89 H 0.81594 0.65242 0.11013 0.0
H90 H 0.76944 0.52895 0.09613 0.0
O91 O 0.86318 0.65205 0.07152 0.0
O92 O 0.83338 0.59134 0.05358 0.0
O93 O 0.8442 0.54765 0.09752 0.0
C94 C 0.84363 0.6292 0.05201 0.0
H95 H 0.96203 0.58775 0.03766 0.0
H96 H 0.73745 0.61358 0.12136 0.0
H97 H 0.86721 0.59945 0.18354 0.0
H98 H 0.95571 0.71045 0.14774 0.0
Co99 Co 0.2641 0.39399 0.41802 0.0
C100 C 0.29199 0.34275 0.44395 0.0
C101 C 0.33198 0.4057 0.4503 0.0
C102 C 0.3455 0.38455 0.4644 0.0
N103 N 0.29911 0.37966 0.43673 0.0
N104 N 0.32024 0.34491 0.46048 0.0
H105 H 0.26509 0.31491 0.4391 0.0
H106 H 0.34424 0.43792 0.4512 0.0
C107 C 0.34582 0.45904 0.40176 0.0
O108 O 0.3543 0.43094 0.39528 0.0
N109 N 0.22919 0.40894 0.40057 0.0
C110 C 0.19901 0.38659 0.38405 0.0
C111 C 0.17979 0.40775 0.37783 0.0
C112 C 0.22765 0.44282 0.40456 0.0
N113 N 0.19776 0.44289 0.3909 0.0
C114 C 0.26086 0.3336 0.38324 0.0
C115 C 0.28746 0.38289 0.34038 0.0
C116 C 0.27868 0.3429 0.3381 0.0
C117 C 0.26456 0.3179 0.35978 0.0
C118 C 0.28303 0.3972 0.3641 0.0
N119 N 0.27178 0.37327 0.38552 0.0
H120 H 0.24797 0.31342 0.39926 0.0
H121 H 0.28824 0.42761 0.36514 0.0
H122 H 0.19102 0.35671 0.37747 0.0
H123 H 0.24762 0.4666 0.41753 0.0
O124 O 0.21702 0.34614 0.43044 0.0
O125 O 0.2475 0.40527 0.45045 0.0
O126 O 0.31132 0.44954 0.41112 0.0
C127 C 0.2179 0.36818 0.44981 0.0
H128 H 0.37128 0.39747 0.47716 0.0
H129 H 0.15373 0.39749 0.36545 0.0
H130 H 0.29693 0.40277 0.32385 0.0
H131 H 0.2565 0.28651 0.35865 0.0
Co132 Co 0.60599 0.86559 0.40864 0.0
C133 C 0.65427 0.94634 0.43349 0.0
C134 C 0.59077 0.92119 0.43877 0.0
C135 C 0.6103 0.95627 0.45267 0.0
N136 N 0.61816 0.91542 0.42598 0.0
N137 N 0.65025 0.972 0.44941 0.0
H138 H 0.68285 0.94839 0.4295 0.0
H139 H 0.55872 0.9002 0.4392 0.0
C140 C 0.54367 0.88289 0.38815 0.0
O141 O 0.57288 0.91985 0.38365 0.0
N142 N 0.59303 0.81515 0.39267 0.0
C143 C 0.61927 0.80493 0.38286 0.0
C144 C 0.59901 0.76402 0.37827 0.0
C145 C 0.55728 0.78074 0.39374 0.0
N146 N 0.56017 0.74915 0.38502 0.0
C147 C 0.66969 0.9213 0.37502 0.0
C148 C 0.62409 0.89696 0.33051 0.0
C149 C 0.66414 0.92836 0.32914 0.0
C150 C 0.68725 0.94012 0.35173 0.0
C151 C 0.60785 0.87904 0.35412 0.0
N152 N 0.62988 0.89264 0.37628 0.0
H153 H 0.68857 0.92893 0.39177 0.0
H154 H 0.57736 0.85395 0.35453 0.0
H155 H 0.65127 0.82538 0.3806 0.0
H156 H 0.53046 0.77832 0.4024 0.0
O157 O 0.65256 0.86748 0.42409 0.0
O158 O 0.59156 0.83882 0.44159 0.0
O159 O 0.55152 0.85708 0.39816 0.0
C160 C 0.62881 0.84685 0.44294 0.0
H161 H 0.59613 0.96846 0.46492 0.0
H162 H 0.61199 0.74628 0.37144 0.0
H163 H 0.60514 0.88654 0.31354 0.0
H164 H 0.7188 0.96311 0.35134 0.0
Co165 Co 0.14436 0.74299 0.41078 0.0
C166 C 0.06868 0.71625 0.44145 0.0
C167 C 0.10192 0.68742 0.45265 0.0
C168 C 0.06959 0.67469 0.46887 0.0
N169 N 0.10094 0.7127 0.43498 0.0
N170 N 0.04874 0.69293 0.4619 0.0
H171 H 0.06104 0.73697 0.43264 0.0
H172 H 0.12529 0.67951 0.45406 0.0
C173 C 0.12104 0.65728 0.4014 0.0
O174 O 0.08314 0.64831 0.40165 0.0
N175 N 0.18911 0.77302 0.38795 0.0
C176 C 0.19358 0.79891 0.36896 0.0
C177 C 0.23285 0.81683 0.36013 0.0
C178 C 0.22523 0.77567 0.39061 0.0
N179 N 0.25252 0.80231 0.37405 0.0
C180 C 0.08277 0.74653 0.38078 0.0
C181 C 0.08707 0.70396 0.33914 0.0
C182 C 0.05939 0.71768 0.33846 0.0
C183 C 0.05779 0.73978 0.3595 0.0
C184 C 0.1114 0.71143 0.36069 0.0
N185 N 0.10769 0.73066 0.38179 0.0
H186 H 0.08315 0.76592 0.39592 0.0
H187 H 0.1343 0.70291 0.35989 0.0
H188 H 0.17053 0.80545 0.36268 0.0
H189 H 0.23179 0.75945 0.4051 0.0
O190 O 0.14798 0.79266 0.42245 0.0
O191 O 0.18086 0.76408 0.43943 0.0
O192 O 0.14924 0.69376 0.40429 0.0
C193 C 0.1736 0.79379 0.43937 0.0
H194 H 0.06231 0.65384 0.48471 0.0
H195 H 0.24644 0.84022 0.34568 0.0
H196 H 0.0909 0.68867 0.32276 0.0
H197 H 0.03774 0.75207 0.35944 0.0
Co198 Co 0.60383 0.73664 0.91102 0.0
C199 C 0.6589 0.71074 0.93448 0.0
C200 C 0.59696 0.67347 0.94515 0.0
C201 C 0.61939 0.66112 0.95879 0.0
N202 N 0.62134 0.70393 0.92936 0.0
N203 N 0.65838 0.68473 0.9523 0.0
H204 H 0.68622 0.73589 0.92706 0.0
H205 H 0.56512 0.66234 0.9478 0.0
C206 C 0.54111 0.65245 0.89739 0.0
O207 O 0.57014 0.64531 0.89096 0.0
N208 N 0.58535 0.76897 0.89393 0.0
C209 C 0.60728 0.80265 0.88007 0.0
C210 C 0.58307 0.81847 0.87373 0.0
C211 C 0.5484 0.76465 0.89591 0.0
N212 N 0.54593 0.79457 0.88375 0.0
C213 C 0.66426 0.74627 0.87398 0.0
C214 C 0.61136 0.71117 0.83341 0.0
C215 C 0.65269 0.72687 0.82878 0.0
C216 C 0.6793 0.74519 0.84959 0.0
C217 C 0.59799 0.71465 0.85764 0.0
N218 N 0.62387 0.72986 0.87801 0.0
H219 H 0.68533 0.76203 0.88927 0.0
H220 H 0.56655 0.70548 0.8598 0.0
H221 H 0.63892 0.81543 0.87558 0.0
H222 H 0.52426 0.74035 0.90653 0.0
O223 O 0.65088 0.78531 0.92271 0.0
O224 O 0.59278 0.75285 0.94368 0.0
O225 O 0.54929 0.68728 0.90542 0.0
C226 C 0.62919 0.78359 0.94249 0.0
H227 H 0.60792 0.63742 0.97309 0.0
H228 H 0.5928 0.84627 0.86333 0.0
H229 H 0.58894 0.69629 0.81856 0.0
H230 H 0.7116 0.7596 0.84713 0.0
Co231 Co 0.25531 0.8587 0.92002 0.0
C232 C 0.28689 0.93788 0.94504 0.0
C233 C 0.32351 0.91119 0.95301 0.0
C234 C 0.33958 0.94745 0.96576 0.0
N235 N 0.29061 0.90538 0.94006 0.0
N236 N 0.31648 0.96413 0.9608 0.0
H237 H 0.26243 0.9416 0.93786 0.0
H238 H 0.3347 0.89029 0.95346 0.0
C239 C 0.30897 0.83935 0.88886 0.0
O240 O 0.284 0.83036 0.86941 0.0
N241 N 0.21979 0.81042 0.90049 0.0
C242 C 0.19494 0.8042 0.88036 0.0
C243 C 0.17691 0.76425 0.87316 0.0
C244 C 0.21588 0.77405 0.90536 0.0
N245 N 0.19011 0.7455 0.889 0.0
C246 C 0.23207 0.90004 0.88404 0.0
C247 C 0.30501 0.94085 0.8587 0.0
C248 C 0.27231 0.94414 0.84956 0.0
C249 C 0.23582 0.92435 0.86305 0.0
C250 C 0.29995 0.91641 0.87987 0.0
N251 N 0.26301 0.89405 0.89109 0.0
H252 H 0.20366 0.88493 0.89413 0.0
H253 H 0.32595 0.91572 0.88716 0.0
H254 H 0.18991 0.82639 0.8711 0.0
H255 H 0.23255 0.76884 0.92023 0.0
O256 O 0.20895 0.8574 0.93553 0.0
O257 O 0.24025 0.82636 0.95088 0.0
O258 O 0.30271 0.85244 0.90999 0.0
C259 C 0.21085 0.83398 0.9529 0.0
H260 H 0.36623 0.96045 0.97778 0.0
H261 H 0.15548 0.75003 0.85766 0.0
H262 H 0.33408 0.95621 0.84926 0.0
H263 H 0.21023 0.9273 0.85732 0.0
Co264 Co 0.13703 0.39204 0.9106 0.0
C265 C 0.05609 0.34414 0.93544 0.0
C266 C 0.08465 0.40714 0.94403 0.0
C267 C 0.04934 0.38771 0.95768 0.0
N268 N 0.08846 0.38011 0.9294 0.0
N269 N 0.03144 0.34805 0.95232 0.0
H270 H 0.05198 0.31539 0.9295 0.0
H271 H 0.10691 0.43878 0.94556 0.0
C272 C 0.11912 0.45556 0.89352 0.0
O273 O 0.08185 0.42664 0.88949 0.0
N274 N 0.18619 0.40463 0.89309 0.0
C275 C 0.19516 0.37815 0.88215 0.0
C276 C 0.23568 0.39799 0.87637 0.0
C277 C 0.22091 0.44011 0.89363 0.0
N278 N 0.25147 0.43681 0.88348 0.0
C279 C 0.08041 0.32888 0.87695 0.0
C280 C 0.10134 0.37619 0.83324 0.0
C281 C 0.07087 0.33579 0.83159 0.0
C282 C 0.06068 0.31185 0.85376 0.0
C283 C 0.11999 0.39193 0.85676 0.0
N284 N 0.10807 0.36898 0.87861 0.0
H285 H 0.07453 0.30935 0.89319 0.0
H286 H 0.14461 0.42266 0.85726 0.0
H287 H 0.17422 0.34625 0.87992 0.0
H288 H 0.22438 0.46699 0.90289 0.0
O289 O 0.13558 0.34496 0.92514 0.0
O290 O 0.16573 0.40591 0.94279 0.0
O291 O 0.14555 0.44703 0.90152 0.0
C292 C 0.15742 0.36857 0.94377 0.0
H293 H 0.03828 0.40165 0.97102 0.0
H294 H 0.25259 0.38474 0.86852 0.0
H295 H 0.11062 0.39564 0.8165 0.0
H296 H 0.03846 0.28006 0.85301 0.0
Co297 Co 0.73692 0.60152 0.57738 0.0
C298 C 0.70572 0.65234 0.55363 0.0
C299 C 0.69696 0.6024 0.53026 0.0
C300 C 0.68216 0.62326 0.51722 0.0
N301 N 0.71166 0.62041 0.55312 0.0
N302 N 0.6874 0.65461 0.5319 0.0
H303 H 0.71421 0.67329 0.56942 0.0
H304 H 0.69708 0.57576 0.52349 0.0
C305 C 0.64923 0.53937 0.57763 0.0
O306 O 0.6406 0.56845 0.57599 0.0
N307 N 0.76218 0.58157 0.60053 0.0
C308 C 0.78542 0.59969 0.62128 0.0
C309 C 0.80186 0.57679 0.62959 0.0
C310 C 0.76492 0.54838 0.59639 0.0
N311 N 0.78918 0.54485 0.6137 0.0
C312 C 0.74471 0.66308 0.61227 0.0
C313 C 0.68845 0.61245 0.64764 0.0
C314 C 0.71217 0.6535 0.65394 0.0
C315 C 0.74056 0.6789 0.63561 0.0
C316 C 0.69513 0.59764 0.62481 0.0
N317 N 0.72213 0.62287 0.60697 0.0
H318 H 0.76748 0.68314 0.59889 0.0
H319 H 0.67976 0.56545 0.62247 0.0
H320 H 0.79161 0.62839 0.62907 0.0
H321 H 0.75068 0.52809 0.58034 0.0
O322 O 0.78912 0.64761 0.5696 0.0
O323 O 0.76119 0.58929 0.54885 0.0
O324 O 0.6859 0.54768 0.57918 0.0
C325 C 0.79176 0.62545 0.55157 0.0
H326 H 0.66943 0.61625 0.49805 0.0
H327 H 0.82332 0.58429 0.64511 0.0
H328 H 0.66539 0.59112 0.66042 0.0
H329 H 0.7607 0.71055 0.63936 0.0
Co330 Co 0.38807 0.13225 0.59425 0.0
C331 C 0.34197 0.05679 0.56401 0.0
C332 C 0.38917 0.0566 0.58613 0.0
C333 C 0.36834 0.02029 0.57351 0.0
N334 N 0.37246 0.07944 0.58038 0.0
N335 N 0.33893 0.02071 0.55963 0.0
H336 H 0.32191 0.06591 0.55567 0.0
H337 H 0.41476 0.06539 0.59862 0.0
C338 C 0.4697 0.16338 0.61819 0.0
O339 O 0.46014 0.18135 0.6361 0.0
N340 N 0.40378 0.18538 0.6077 0.0
C341 C 0.3874 0.1964 0.62683 0.0
C342 C 0.40737 0.23785 0.62825 0.0
C343 C 0.4329 0.22026 0.59756 0.0
N344 N 0.43578 0.25265 0.60974 0.0
C345 C 0.32961 0.09912 0.63491 0.0
C346 C 0.37196 0.07528 0.66635 0.0
C347 C 0.33432 0.06857 0.67453 0.0
C348 C 0.31288 0.08053 0.65842 0.0
C349 C 0.3875 0.09385 0.64281 0.0
N350 N 0.36719 0.10701 0.62769 0.0
H351 H 0.31247 0.10789 0.62274 0.0
H352 H 0.41554 0.09649 0.63693 0.0
H353 H 0.3625 0.17636 0.63887 0.0
H354 H 0.452 0.22182 0.58173 0.0
O355 O 0.34028 0.13024 0.58018 0.0
O356 O 0.39883 0.15455 0.56004 0.0
O357 O 0.44389 0.14141 0.60116 0.0
C358 C 0.36224 0.14836 0.56008 0.0
H359 H 0.37467 0.99573 0.57409 0.0
H360 H 0.40095 0.25572 0.64152 0.0
H361 H 0.38956 0.06636 0.67809 0.0
H362 H 0.28327 0.07516 0.66377 0.0
Co363 Co 0.8621 0.25957 0.58201 0.0
C364 C 0.9425 0.28861 0.55721 0.0
C365 C 0.91831 0.32733 0.54994 0.0
C366 C 0.95379 0.34186 0.53663 0.0
N367 N 0.91174 0.29471 0.56365 0.0
N368 N 0.969 0.31741 0.54111 0.0
H369 H 0.94405 0.26217 0.56237 0.0
H370 H 0.89785 0.33899 0.5487 0.0
C371 C 0.88034 0.34169 0.59903 0.0
O372 O 0.91766 0.3507 0.60367 0.0
N373 N 0.81187 0.22488 0.59906 0.0
C374 C 0.80123 0.19104 0.61254 0.0
C375 C 0.76133 0.17446 0.61959 0.0
C376 C 0.77874 0.22843 0.5979 0.0
N377 N 0.74723 0.19803 0.61028 0.0
C378 C 0.91771 0.25309 0.61657 0.0
C379 C 0.89704 0.2814 0.65952 0.0
C380 C 0.92779 0.27191 0.66158 0.0
C381 C 0.93751 0.25673 0.63987 0.0
C382 C 0.87807 0.27722 0.63594 0.0
N383 N 0.88999 0.26539 0.61444 0.0
H384 H 0.92397 0.23934 0.60055 0.0
H385 H 0.85335 0.28317 0.6351 0.0
H386 H 0.82084 0.17893 0.6165 0.0
H387 H 0.77788 0.25277 0.58797 0.0
O388 O 0.86211 0.21266 0.56845 0.0
O389 O 0.83434 0.24481 0.5495 0.0
O390 O 0.85481 0.30699 0.59022 0.0
C391 C 0.84132 0.21486 0.54931 0.0
H392 H 0.96677 0.36797 0.52417 0.0
H393 H 0.74386 0.1466 0.63008 0.0
H394 H 0.88729 0.29146 0.6761 0.0
H395 H 0.96032 0.24795 0.64081 0.0
C396 C 0.62447 0.15592 0.08428 0.0
C397 C 0.6274 0.12977 0.10184 0.0
C398 C 0.59337 0.16502 0.08622 0.0
C399 C 0.56539 0.14855 0.10671 0.0
C400 C 0.56898 0.12306 0.12495 0.0
C401 C 0.59962 0.11343 0.12204 0.0
C402 C 0.58989 0.19144 0.066 0.0
C403 C 0.54046 0.10596 0.14749 0.0
C404 C 0.50649 0.20152 0.12197 0.0
C405 C 0.4691 0.17528 0.11085 0.0
C406 C 0.53784 0.19262 0.12145 0.0
C407 C 0.53186 0.15735 0.10869 0.0
C408 C 0.49407 0.13092 0.09724 0.0
C409 C 0.46289 0.13994 0.09884 0.0
C410 C 0.5773 0.22093 0.13447 0.0
C411 C 0.4869 0.0937 0.08278 0.0
H412 H 0.64581 0.1683 0.06852 0.0
H413 H 0.60215 0.09347 0.13576 0.0
H414 H 0.56007 0.17482 0.05639 0.0
H415 H 0.59182 0.21854 0.07511 0.0
H416 H 0.6138 0.20138 0.05112 0.0
H417 H 0.54882 0.08859 0.16077 0.0
H418 H 0.54015 0.13067 0.15847 0.0
H419 H 0.50934 0.08579 0.14047 0.0
H420 H 0.51088 0.22876 0.13127 0.0
H421 H 0.43396 0.12011 0.08998 0.0
H422 H 0.60182 0.23434 0.12 0.0
H423 H 0.58527 0.20407 0.14841 0.0
H424 H 0.5762 0.24574 0.14484 0.0
H425 H 0.50903 0.10229 0.06687 0.0
H426 H 0.45603 0.07679 0.07455 0.0
H427 H 0.49144 0.07334 0.09576 0.0
C428 C 0.84928 0.32319 0.10136 0.0
C429 C 0.81287 0.29129 0.11038 0.0
C430 C 0.85673 0.36293 0.10215 0.0
C431 C 0.82747 0.37089 0.11298 0.0
C432 C 0.79103 0.33874 0.12277 0.0
C433 C 0.78388 0.29914 0.12092 0.0
C434 C 0.89541 0.3962 0.09081 0.0
C435 C 0.75966 0.34617 0.13512 0.0
C436 C 0.86676 0.47981 0.13243 0.0
C437 C 0.85358 0.49389 0.11186 0.0
C438 C 0.85697 0.4393 0.13364 0.0
C439 C 0.83469 0.41278 0.11333 0.0
C440 C 0.82093 0.42683 0.09266 0.0
C441 C 0.83002 0.46712 0.09239 0.0
C442 C 0.87105 0.42507 0.15639 0.0
C443 C 0.79803 0.39979 0.0703 0.0
H444 H 0.87134 0.31675 0.09294 0.0
H445 H 0.75585 0.27421 0.12798 0.0
H446 H 0.88847 0.41168 0.07527 0.0
H447 H 0.91286 0.41906 0.10574 0.0
H448 H 0.91467 0.38477 0.08272 0.0
H449 H 0.73404 0.31816 0.1431 0.0
H450 H 0.77349 0.36858 0.15087 0.0
H451 H 0.74771 0.35898 0.12077 0.0
H452 H 0.88473 0.50049 0.14759 0.0
H453 H 0.82012 0.47811 0.07634 0.0
H454 H 0.89367 0.41689 0.15001 0.0
H455 H 0.84538 0.39762 0.16482 0.0
H456 H 0.88483 0.44846 0.17163 0.0
H457 H 0.81704 0.38947 0.06053 0.0
H458 H 0.78893 0.41523 0.05594 0.0
H459 H 0.77059 0.37254 0.07727 0.0
C460 C 0.69026 0.49232 0.12453 0.0
C461 C 0.69938 0.52871 0.11268 0.0
C462 C 0.65046 0.46018 0.12554 0.0
C463 C 0.61945 0.46428 0.11364 0.0
C464 C 0.62863 0.50114 0.10168 0.0
C465 C 0.66851 0.53319 0.1017 0.0
C466 C 0.64169 0.42177 0.13909 0.0
C467 C 0.59659 0.50629 0.08817 0.0
C468 C 0.526 0.36912 0.09146 0.0
C469 C 0.49746 0.36583 0.10959 0.0
C470 C 0.56588 0.40105 0.09258 0.0
C471 C 0.57766 0.42956 0.11279 0.0
C472 C 0.54925 0.42549 0.1317 0.0
C473 C 0.50923 0.39397 0.12963 0.0
C474 C 0.59506 0.40493 0.07171 0.0
C475 C 0.56104 0.4546 0.15396 0.0
H476 H 0.71438 0.48924 0.1331 0.0
H477 H 0.67595 0.56131 0.09228 0.0
H478 H 0.61744 0.41342 0.15353 0.0
H479 H 0.63076 0.3967 0.12501 0.0
H480 H 0.66871 0.42455 0.14895 0.0
H481 H 0.60876 0.53691 0.07983 0.0
H482 H 0.58298 0.48379 0.07245 0.0
H483 H 0.57207 0.50076 0.10179 0.0
H484 H 0.51679 0.34753 0.07582 0.0
H485 H 0.48716 0.39119 0.14377 0.0
H486 H 0.62146 0.4047 0.08026 0.0
H487 H 0.60648 0.43418 0.06162 0.0
H488 H 0.58103 0.38027 0.05729 0.0
H489 H 0.5874 0.45657 0.16419 0.0
H490 H 0.53606 0.4456 0.16796 0.0
H491 H 0.57013 0.4852 0.1467 0.0
C492 C 0.18861 0.49339 0.41451 0.0
C493 C 0.18588 0.47301 0.39154 0.0
C494 C 0.17713 0.52283 0.41552 0.0
C495 C 0.16308 0.53242 0.39291 0.0
C496 C 0.16026 0.51194 0.36962 0.0
C497 C 0.17144 0.48219 0.36928 0.0
C498 C 0.17998 0.54359 0.44081 0.0
C499 C 0.14589 0.52176 0.34507 0.0
C500 C 0.10177 0.58461 0.40128 0.0
C501 C 0.13127 0.62516 0.39799 0.0
C502 C 0.11159 0.55399 0.39935 0.0
C503 C 0.15173 0.56422 0.39367 0.0
C504 C 0.18142 0.60502 0.38969 0.0
C505 C 0.17088 0.63505 0.39206 0.0
C506 C 0.07925 0.51082 0.404 0.0
C507 C 0.22445 0.61702 0.38331 0.0
H508 H 0.19913 0.48579 0.43183 0.0
H509 H 0.16965 0.4666 0.35149 0.0
H510 H 0.201 0.57647 0.43891 0.0
H511 H 0.15007 0.53942 0.44608 0.0
H512 H 0.19067 0.53195 0.45674 0.0
H513 H 0.14538 0.50299 0.3286 0.0
H514 H 0.11512 0.51707 0.34778 0.0
H515 H 0.16586 0.55397 0.34011 0.0
H516 H 0.07114 0.57681 0.40596 0.0
H517 H 0.19377 0.66634 0.3893 0.0
H518 H 0.0874 0.49867 0.42092 0.0
H519 H 0.07688 0.49186 0.38721 0.0
H520 H 0.04926 0.50781 0.40753 0.0
H521 H 0.23798 0.60902 0.39952 0.0
H522 H 0.24338 0.64983 0.37947 0.0
H523 H 0.22528 0.6002 0.36614 0.0
C524 C 0.53717 0.68002 0.39936 0.0
C525 C 0.52953 0.70757 0.38648 0.0
C526 C 0.50692 0.63959 0.40202 0.0
C527 C 0.46859 0.62633 0.39079 0.0
C528 C 0.46105 0.65408 0.37736 0.0
C529 C 0.49151 0.69464 0.37577 0.0
C530 C 0.51575 0.61128 0.41722 0.0
C531 C 0.42097 0.64091 0.36456 0.0
C532 C 0.40457 0.51383 0.37853 0.0
C533 C 0.37656 0.50184 0.39863 0.0
C534 C 0.4341 0.55446 0.37536 0.0
C535 C 0.43638 0.58345 0.39324 0.0
C536 C 0.40828 0.57137 0.41371 0.0
C537 C 0.37825 0.53073 0.41591 0.0
C538 C 0.46275 0.56638 0.35286 0.0
C539 C 0.41044 0.60118 0.43358 0.0
H540 H 0.56655 0.69052 0.40795 0.0
H541 H 0.48597 0.71629 0.36585 0.0
H542 H 0.49382 0.59771 0.43323 0.0
H543 H 0.51226 0.58624 0.40474 0.0
H544 H 0.5467 0.62673 0.42539 0.0
H545 H 0.42052 0.66596 0.35409 0.0
H546 H 0.414 0.61615 0.35075 0.0
H547 H 0.3966 0.62896 0.37916 0.0
H548 H 0.40298 0.49149 0.36503 0.0
H549 H 0.35673 0.52136 0.43158 0.0
H550 H 0.49409 0.57896 0.35993 0.0
H551 H 0.46167 0.59032 0.34147 0.0
H552 H 0.4556 0.54051 0.33995 0.0
H553 H 0.44038 0.61581 0.44312 0.0
H554 H 0.38675 0.58675 0.44856 0.0
H555 H 0.40712 0.62533 0.42416 0.0
C556 C 0.49108 0.90162 0.37925 0.0
C557 C 0.50149 0.87166 0.38267 0.0
C558 C 0.45079 0.8915 0.3758 0.0
C559 C 0.42031 0.85043 0.37539 0.0
C560 C 0.43084 0.82001 0.37777 0.0
C561 C 0.47131 0.831 0.38159 0.0
C562 C 0.44067 0.92478 0.37371 0.0
C563 C 0.39923 0.77586 0.37706 0.0
C564 C 0.31526 0.82212 0.39746 0.0
C565 C 0.29488 0.81596 0.37404 0.0
C566 C 0.35624 0.83405 0.3981 0.0
C567 C 0.37721 0.83931 0.3747 0.0
C568 C 0.35687 0.83352 0.35092 0.0
C569 C 0.31588 0.82227 0.35088 0.0
C570 C 0.37699 0.84074 0.42386 0.0
C571 C 0.37819 0.83839 0.32562 0.0
H572 H 0.51429 0.93311 0.38011 0.0
H573 H 0.47927 0.80771 0.38394 0.0
H574 H 0.42194 0.92032 0.35639 0.0
H575 H 0.42273 0.92395 0.3907 0.0
H576 H 0.46805 0.95509 0.37264 0.0
H577 H 0.41272 0.75606 0.37676 0.0
H578 H 0.37954 0.76819 0.39424 0.0
H579 H 0.37978 0.76924 0.35983 0.0
H580 H 0.29905 0.81788 0.41534 0.0
H581 H 0.29987 0.81729 0.33283 0.0
H582 H 0.40366 0.87151 0.42474 0.0
H583 H 0.38796 0.81908 0.42632 0.0
H584 H 0.35671 0.83703 0.44021 0.0
H585 H 0.4049 0.86904 0.32423 0.0
H586 H 0.35825 0.83345 0.30883 0.0
H587 H 0.38924 0.81661 0.32453 0.0
C588 C 0.37806 0.85601 0.90251 0.0
C589 C 0.34472 0.83456 0.88631 0.0
C590 C 0.41165 0.85068 0.90094 0.0
C591 C 0.41149 0.82265 0.88309 0.0
C592 C 0.37803 0.80117 0.86653 0.0
C593 C 0.34516 0.80768 0.86818 0.0
C594 C 0.44707 0.87463 0.91862 0.0
C595 C 0.37647 0.77049 0.8476 0.0
C596 C 0.51112 0.82933 0.86616 0.0
C597 C 0.51168 0.80089 0.88301 0.0
C598 C 0.47872 0.83671 0.86592 0.0
C599 C 0.44562 0.81462 0.88256 0.0
C600 C 0.44541 0.78531 0.89919 0.0
C601 C 0.47849 0.77909 0.89939 0.0
C602 C 0.48011 0.8685 0.84808 0.0
C603 C 0.41037 0.76077 0.91702 0.0
H604 H 0.37796 0.87708 0.9164 0.0
H605 H 0.31929 0.79084 0.85576 0.0
H606 H 0.45078 0.85395 0.93182 0.0
H607 H 0.47523 0.89097 0.90723 0.0
H608 H 0.44339 0.89683 0.93037 0.0
H609 H 0.3488 0.75723 0.83555 0.0
H610 H 0.40314 0.78455 0.83475 0.0
H611 H 0.37742 0.74579 0.85814 0.0
H612 H 0.53596 0.84603 0.85309 0.0
H613 H 0.47824 0.75739 0.91276 0.0
H614 H 0.47835 0.89211 0.85944 0.0
H615 H 0.45374 0.85494 0.83495 0.0
H616 H 0.50803 0.88306 0.83629 0.0
H617 H 0.40739 0.78092 0.93108 0.0
H618 H 0.41391 0.7377 0.92781 0.0
H619 H 0.38186 0.74534 0.90588 0.0
C620 C 0.1703 0.52879 0.88962 0.0
C621 C 0.12981 0.49812 0.89043 0.0
C622 C 0.18071 0.56945 0.88802 0.0
C623 C 0.14989 0.5796 0.88761 0.0
C624 C 0.10898 0.54873 0.88803 0.0
C625 C 0.09943 0.50833 0.88924 0.0
C626 C 0.22468 0.60154 0.88722 0.0
C627 C 0.07528 0.5584 0.88794 0.0
C628 C 0.17594 0.6834 0.91162 0.0
C629 C 0.17955 0.70383 0.88854 0.0
C630 C 0.16613 0.64291 0.91158 0.0
C631 C 0.16038 0.62256 0.88783 0.0
C632 C 0.16417 0.64312 0.86443 0.0
C633 C 0.17341 0.68349 0.86508 0.0
C634 C 0.16168 0.62184 0.93695 0.0
C635 C 0.15879 0.62256 0.83875 0.0
H636 H 0.1939 0.52105 0.89035 0.0
H637 H 0.06808 0.48479 0.88998 0.0
H638 H 0.23058 0.62159 0.87041 0.0
H639 H 0.23253 0.62057 0.90475 0.0
H640 H 0.24486 0.58853 0.88606 0.0
H641 H 0.04504 0.53085 0.88761 0.0
H642 H 0.07747 0.57622 0.90533 0.0
H643 H 0.07802 0.57713 0.87094 0.0
H644 H 0.18022 0.69903 0.92975 0.0
H645 H 0.17667 0.69947 0.84724 0.0
H646 H 0.18355 0.61091 0.93804 0.0
H647 H 0.13106 0.59508 0.93846 0.0
H648 H 0.16666 0.64184 0.9537 0.0
H649 H 0.18049 0.61151 0.83696 0.0
H650 H 0.16332 0.64296 0.82232 0.0
H651 H 0.12808 0.59592 0.83738 0.0
C652 C 0.48715 0.59136 0.87545 0.0
C653 C 0.49873 0.6204 0.8949 0.0
C654 C 0.44669 0.56121 0.87256 0.0
C655 C 0.41754 0.55943 0.89009 0.0
C656 C 0.42929 0.58839 0.91002 0.0
C657 C 0.46971 0.61897 0.91192 0.0
C658 C 0.43507 0.53159 0.85061 0.0
C659 C 0.39929 0.5868 0.92952 0.0
C660 C 0.30644 0.50435 0.87265 0.0
C661 C 0.29323 0.46688 0.88421 0.0
C662 C 0.34714 0.53448 0.87379 0.0
C663 C 0.37472 0.5272 0.88767 0.0
C664 C 0.36121 0.48937 0.89965 0.0
C665 C 0.32062 0.45937 0.89741 0.0
C666 C 0.3606 0.57402 0.86019 0.0
C667 C 0.38935 0.48091 0.91534 0.0
H668 H 0.50961 0.59277 0.86212 0.0
H669 H 0.47879 0.64134 0.92707 0.0
H670 H 0.42206 0.50052 0.85823 0.0
H671 H 0.41151 0.53244 0.83863 0.0
H672 H 0.46115 0.53801 0.83812 0.0
H673 H 0.41363 0.61074 0.94438 0.0
H674 H 0.37545 0.59022 0.91973 0.0
H675 H 0.38429 0.55703 0.93926 0.0
H676 H 0.28485 0.50974 0.86251 0.0
H677 H 0.30984 0.43038 0.90662 0.0
H678 H 0.38578 0.58057 0.84685 0.0
H679 H 0.37202 0.59893 0.87441 0.0
H680 H 0.33581 0.57396 0.84905 0.0
H681 H 0.41439 0.48385 0.9031 0.0
H682 H 0.37376 0.45026 0.92395 0.0
H683 H 0.40295 0.5034 0.93107 0.0
C684 C 0.81052 0.50168 0.63585 0.0
C685 C 0.80294 0.51615 0.613 0.0
C686 C 0.82361 0.47335 0.63526 0.0
C687 C 0.82977 0.45977 0.61124 0.0
C688 C 0.82278 0.47485 0.58812 0.0
C689 C 0.80926 0.50269 0.5893 0.0
C690 C 0.83036 0.45759 0.66029 0.0
C691 C 0.82956 0.46158 0.56211 0.0
C692 C 0.89636 0.41273 0.60627 0.0
C693 C 0.86764 0.37178 0.60364 0.0
C694 C 0.88447 0.44172 0.60931 0.0
C695 C 0.84292 0.42931 0.61007 0.0
C696 C 0.81382 0.38786 0.60824 0.0
C697 C 0.82654 0.35962 0.60488 0.0
C698 C 0.91634 0.48571 0.61089 0.0
C699 C 0.76923 0.3734 0.60926 0.0
H700 H 0.80548 0.51202 0.65415 0.0
H701 H 0.80424 0.5145 0.57161 0.0
H702 H 0.81022 0.42444 0.66129 0.0
H703 H 0.8618 0.46355 0.66128 0.0
H704 H 0.8246 0.47152 0.67733 0.0
H705 H 0.82383 0.47712 0.54599 0.0
H706 H 0.86102 0.46771 0.56064 0.0
H707 H 0.80942 0.42861 0.55981 0.0
H708 H 0.92815 0.42229 0.60528 0.0
H709 H 0.80418 0.32794 0.60315 0.0
H710 H 0.91193 0.49953 0.62845 0.0
H711 H 0.91359 0.50209 0.59411 0.0
H712 H 0.94733 0.49023 0.61118 0.0
H713 H 0.76205 0.38512 0.62681 0.0
H714 H 0.7506 0.33998 0.60923 0.0
H715 H 0.76052 0.38518 0.59243 0.0
C716 C 0.62565 0.46654 0.58541 0.0
C717 C 0.61647 0.4971 0.58057 0.0
C718 C 0.59505 0.4266 0.58936 0.0
C719 C 0.55427 0.41694 0.58834 0.0
C720 C 0.54472 0.44743 0.58298 0.0
C721 C 0.57597 0.48721 0.5792 0.0
C722 C 0.6064 0.39486 0.59503 0.0
C723 C 0.50153 0.43814 0.58162 0.0
C724 C 0.47662 0.30659 0.57885 0.0
C725 C 0.46378 0.29427 0.60418 0.0
C726 C 0.50533 0.34671 0.57328 0.0
C727 C 0.52173 0.37504 0.59359 0.0
C728 C 0.50823 0.36296 0.61914 0.0
C729 C 0.47927 0.3227 0.62411 0.0
C730 C 0.51864 0.35857 0.54575 0.0
C731 C 0.52513 0.39231 0.64131 0.0
H732 H 0.65685 0.47385 0.58649 0.0
H733 H 0.56861 0.5106 0.57536 0.0
H734 H 0.59494 0.38157 0.6143 0.0
H735 H 0.59216 0.37006 0.58077 0.0
H736 H 0.63952 0.40719 0.59463 0.0
H737 H 0.49917 0.46495 0.57626 0.0
H738 H 0.48454 0.41391 0.56734 0.0
H739 H 0.48672 0.42692 0.60056 0.0
H740 H 0.4641 0.28478 0.56336 0.0
H741 H 0.46959 0.31314 0.64371 0.0
H742 H 0.55105 0.36811 0.54387 0.0
H743 H 0.51521 0.38464 0.54016 0.0
H744 H 0.50119 0.33347 0.53205 0.0
H745 H 0.55789 0.40348 0.64324 0.0
H746 H 0.51023 0.37848 0.65987 0.0
H747 H 0.52153 0.41884 0.63756 0.0
C748 C 0.68086 0.16772 0.63194 0.0
C749 C 0.70687 0.19172 0.61224 0.0
C750 C 0.64165 0.16164 0.63403 0.0
C751 C 0.6283 0.18034 0.61616 0.0
C752 C 0.65434 0.20465 0.59631 0.0
C753 C 0.6931 0.20976 0.59447 0.0
C754 C 0.61453 0.13528 0.65536 0.0
C755 C 0.64126 0.22528 0.57695 0.0
C756 C 0.51689 0.13974 0.60425 0.0
C757 C 0.50979 0.1666 0.61861 0.0
C758 C 0.55506 0.14312 0.60393 0.0
C759 C 0.587 0.17445 0.618 0.0
C760 C 0.57993 0.20138 0.63276 0.0
C761 C 0.5413 0.19696 0.63302 0.0
C762 C 0.56137 0.11357 0.58819 0.0
C763 C 0.61341 0.2355 0.64773 0.0
H764 H 0.69122 0.154 0.64593 0.0
H765 H 0.7124 0.22765 0.57884 0.0
H766 H 0.60565 0.15299 0.66789 0.0
H767 H 0.58645 0.11018 0.6471 0.0
H768 H 0.62923 0.12237 0.66744 0.0
H769 H 0.66553 0.24399 0.56305 0.0
H770 H 0.61473 0.20245 0.56603 0.0
H771 H 0.63198 0.24488 0.58703 0.0
H772 H 0.4926 0.11603 0.59321 0.0
H773 H 0.53604 0.21791 0.64406 0.0
H774 H 0.57453 0.09926 0.60036 0.0
H775 H 0.58308 0.12971 0.57243 0.0
H776 H 0.53287 0.08953 0.57958 0.0
H777 H 0.62755 0.22362 0.66111 0.0
H778 H 0.6026 0.25288 0.65901 0.0
H779 H 0.63723 0.25639 0.63429 0.0
C780 C 0.38217 0.18226 0.01412 0.0
C781 C 0.35482 0.18049 0.03272 0.0
C782 C 0.37365 0.14837 0.99922 0.0
C783 C 0.33696 0.11194 0.00309 0.0
C784 C 0.30792 0.11096 0.02038 0.0
C785 C 0.31719 0.14534 0.03498 0.0
C786 C 0.40526 0.15074 0.98081 0.0
C787 C 0.26836 0.07274 0.02495 0.0
C788 C 0.30767 0.02369 0.95762 0.0
C789 C 0.32144 0.00123 0.9712 0.0
C790 C 0.31246 0.05989 0.96767 0.0
C791 C 0.3314 0.07381 0.99187 0.0
C792 C 0.34529 0.05125 0.00566 0.0
C793 C 0.3401 0.01527 0.99517 0.0
C794 C 0.2975 0.08332 0.9524 0.0
C795 C 0.36558 0.06503 0.0316 0.0
H796 H 0.41122 0.20945 0.01215 0.0
H797 H 0.29583 0.14382 0.04925 0.0
H798 H 0.41944 0.13405 0.98899 0.0
H799 H 0.39143 0.13642 0.96215 0.0
H800 H 0.42928 0.18234 0.97721 0.0
H801 H 0.24696 0.07835 0.03618 0.0
H802 H 0.25402 0.05831 0.00642 0.0
H803 H 0.27393 0.05102 0.03578 0.0
H804 H 0.29365 0.01324 0.93896 0.0
H805 H 0.35017 0.99779 0.00599 0.0
H806 H 0.32294 0.11387 0.94806 0.0
H807 H 0.27532 0.08727 0.96391 0.0
H808 H 0.2831 0.06819 0.93399 0.0
H809 H 0.39284 0.09526 0.02985 0.0
H810 H 0.37467 0.04397 0.0398 0.0
H811 H 0.34494 0.06777 0.04537 0.0
C812 C 0.84976 0.17058 0.02885 0.0
C813 C 0.81572 0.17514 0.0272 0.0
C814 C 0.88419 0.19462 0.01403 0.0
C815 C 0.88447 0.22387 0.99725 0.0
C816 C 0.84914 0.22647 0.99412 0.0
C817 C 0.81512 0.202 0.00914 0.0
C818 C 0.92118 0.1907 0.01773 0.0
C819 C 0.8482 0.25717 0.97634 0.0
C820 C 0.98329 0.32115 0.98837 0.0
C821 C 0.9951 0.31627 0.96371 0.0
C822 C 0.94754 0.2911 -0.0005 0.0
C823 C 0.92296 0.25511 0.98568 0.0
C824 C 0.93489 0.24963 0.96093 0.0
C825 C 0.97087 0.28034 0.95021 0.0
C826 C 0.93593 0.29805 0.02603 0.0
C827 C 0.9094 0.21164 0.94566 0.0
H828 H 0.85031 0.14967 0.04267 0.0
H829 H 0.78881 0.20551 0.00766 0.0
H830 H 0.93455 0.19026 0.99888 0.0
H831 H 0.94424 0.21718 0.02859 0.0
H832 H 0.91436 0.16299 0.02855 0.0
H833 H 0.81715 0.25183 0.97356 0.0
H834 H 0.86705 0.28778 0.98455 0.0
H835 H 0.86098 0.25673 0.95727 0.0
H836 H 0.00219 0.34842 0.99913 0.0
H837 H 0.97965 0.27656 0.93106 0.0
H838 H 0.93243 0.2738 0.03929 0.0
H839 H 0.90647 0.29697 0.02518 0.0
H840 H 0.95861 0.32755 0.03429 0.0
H841 H 0.90389 0.18486 0.95705 0.0
H842 H 0.92372 0.21138 0.92712 0.0
H843 H 0.87958 0.2086 0.94155 0.0
C844 C 0.83653 0.68402 0.03098 0.0
C845 C 0.82846 0.64404 0.03098 0.0
C846 C 0.81537 0.69613 0.01461 0.0
C847 C 0.78528 0.66746 0.9981 0.0
C848 C 0.77974 0.62811 0.99637 0.0
C849 C 0.80152 0.61691 0.01279 0.0
C850 C 0.82273 0.73858 0.01668 0.0
C851 C 0.74805 0.59661 0.97898 0.0
C852 C 0.68922 0.6712 0.98967 0.0
C853 C 0.6921 0.68409 0.96411 0.0
C854 C 0.71987 0.66676 0.00103 0.0
C855 C 0.75471 0.67586 0.98657 0.0
C856 C 0.75879 0.69066 0.96111 0.0
C857 C 0.7273 0.69456 0.95012 0.0
C858 C 0.71429 0.6511 0.02831 0.0
C859 C 0.79569 0.70105 0.94523 0.0
H860 H 0.85769 0.70531 0.04479 0.0
H861 H 0.7954 0.58605 0.0125 0.0
H862 H 0.82255 0.75088 0.99739 0.0
H863 H 0.79821 0.73843 0.02814 0.0
H864 H 0.85189 0.75901 0.02628 0.0
H865 H 0.75164 0.5697 0.97695 0.0
H866 H 0.71774 0.58678 0.98712 0.0
H867 H 0.74918 0.60921 0.95958 0.0
H868 H 0.66265 0.66418 0.00085 0.0
H869 H 0.72963 0.70451 0.93036 0.0
H870 H 0.73987 0.67249 0.04052 0.0
H871 H 0.71388 0.62193 0.02857 0.0
H872 H 0.68585 0.64648 0.0371 0.0
H873 H 0.82349 0.72022 0.95645 0.0
H874 H 0.79661 0.717 0.92716 0.0
H875 H 0.79588 0.67302 0.94012 0.0
C876 C 0.02503 0.3027 0.5419 0.0
C877 C 0.0048 0.32032 0.52981 0.0
C878 C 0.06048 0.30634 0.53134 0.0
C879 C 0.0762 0.32839 0.5083 0.0
C880 C 0.05579 0.34594 0.49591 0.0
C881 C 0.0203 0.34146 0.50671 0.0
C882 C 0.08138 0.28707 0.54498 0.0
C883 C 0.07163 0.3698 0.4713 0.0
C884 C 0.18574 0.37848 0.48858 0.0
C885 C 0.18402 0.35377 0.46814 0.0
C886 C 0.15131 0.36897 0.50317 0.0
C887 C 0.11433 0.33403 0.49704 0.0
C888 C 0.11315 0.30745 0.47767 0.0
C889 C 0.14811 0.31761 0.46346 0.0
C890 C 0.15391 0.39792 0.52383 0.0
C891 C 0.07432 0.26984 0.47062 0.0
H892 H 0.0136 0.28668 0.55987 0.0
H893 H 0.00462 0.35448 0.49688 0.0
H894 H 0.08521 0.26658 0.53166 0.0
H895 H 0.11195 0.31064 0.55111 0.0
H896 H 0.06446 0.26965 0.5622 0.0
H897 H 0.05206 0.3814 0.46404 0.0
H898 H 0.10232 0.3958 0.47452 0.0
H899 H 0.07404 0.35071 0.45614 0.0
H900 H 0.21352 0.40632 0.49243 0.0
H901 H 0.14662 0.29829 0.44774 0.0
H902 H 0.13833 0.38141 0.54158 0.0
H903 H 0.1386 0.41433 0.51707 0.0
H904 H 0.18561 0.42038 0.5287 0.0
H905 H 0.05833 0.25287 0.48816 0.0
H906 H 0.07951 0.24964 0.45781 0.0
H907 H 0.05417 0.27838 0.46052 0.0
C908 C 0.61763 0.80892 0.48411 0.0
C909 C 0.6419 0.82814 0.46266 0.0
C910 C 0.62604 0.78462 0.50023 0.0
C911 C 0.65878 0.77871 0.49425 0.0
C912 C 0.68491 0.80029 0.47365 0.0
C913 C 0.67638 0.82512 0.45828 0.0
C914 C 0.59832 0.76318 0.52255 0.0
C915 C 0.71983 0.79444 0.46639 0.0
C916 C 0.69631 0.72312 0.53626 0.0
C917 C 0.67697 0.68473 0.52483 0.0
C918 C 0.68891 0.75359 0.5276 0.0
C919 C 0.6623 0.7457 0.50668 0.0
C920 C 0.64137 0.70659 0.49586 0.0
C921 C 0.64851 0.67655 0.50533 0.0
C922 C 0.71082 0.79462 0.54011 0.0
C923 C 0.61281 0.69687 0.4734 0.0
H924 H 0.59116 0.81154 0.48771 0.0
H925 H 0.69527 0.83994 0.44173 0.0
H926 H 0.57772 0.73119 0.51735 0.0
H927 H 0.61578 0.7636 0.53972 0.0
H928 H 0.57974 0.77698 0.52772 0.0
H929 H 0.73942 0.81624 0.45148 0.0
H930 H 0.7385 0.79771 0.48351 0.0
H931 H 0.7081 0.76346 0.45878 0.0
H932 H 0.71825 0.72993 0.55136 0.0
H933 H 0.63227 0.64674 0.49695 0.0
H934 H 0.68995 0.80636 0.54351 0.0
H935 H 0.735 0.81611 0.52711 0.0
H936 H 0.72476 0.79394 0.55872 0.0
H937 H 0.58894 0.70408 0.47829 0.0
H938 H 0.59816 0.66466 0.46765 0.0
H939 H 0.62947 0.71564 0.45655 0.0
C940 C 0.29028 0.94952 0.55147 0.0
C941 C 0.31108 0.98944 0.54288 0.0
C942 C 0.26481 0.91821 0.53486 0.0
C943 C 0.2613 0.92708 0.50885 0.0
C944 C 0.28183 0.96757 0.50021 0.0
C945 C 0.30606 0.99842 0.51753 0.0
C946 C 0.24251 0.87557 0.54498 0.0
C947 C 0.27981 0.9781 0.47246 0.0
C948 C 0.23616 0.84177 0.46216 0.0
C949 C 0.19562 0.8283 0.4567 0.0
C950 C 0.25817 0.87474 0.47848 0.0
C951 C 0.23866 0.89368 0.49032 0.0
C952 C 0.19755 0.87999 0.48494 0.0
C953 C 0.17663 0.84778 0.46773 0.0
C954 C 0.30229 0.88922 0.48306 0.0
C955 C 0.17549 0.89869 0.4978 0.0
H956 H 0.29412 0.94295 0.57122 0.0
H957 H 0.32259 0.02942 0.51102 0.0
H958 H 0.21011 0.86098 0.53978 0.0
H959 H 0.25475 0.85764 0.536 0.0
H960 H 0.24512 0.87435 0.56622 0.0
H961 H 0.29589 0.01118 0.46917 0.0
H962 H 0.29351 0.96462 0.45999 0.0
H963 H 0.24801 0.96529 0.46629 0.0
H964 H 0.25087 0.8269 0.45326 0.0
H965 H 0.14516 0.83707 0.46348 0.0
H966 H 0.30721 0.88473 0.50354 0.0
H967 H 0.32058 0.92198 0.47899 0.0
H968 H 0.31352 0.87307 0.47087 0.0
H969 H 0.17615 0.89545 0.519 0.0
H970 H 0.14358 0.88459 0.49147 0.0
H971 H 0.19073 0.93141 0.49357 0.0
C972 C 0.65846 0.98186 0.002 0.0
C973 C 0.67789 0.99494 0.02584 0.0
C974 C 0.65415 0.94709 0.99014 0.0
C975 C 0.66979 0.92479 0.00236 0.0
C976 C 0.69026 0.93822 0.02615 0.0
C977 C 0.69407 0.97319 0.03764 0.0
C978 C 0.63227 0.93387 0.96467 0.0
C979 C 0.70735 0.91521 0.03971 0.0
C980 C 0.61752 0.81595 0.98064 0.0
C981 C 0.64314 0.81739 0.96089 0.0
C982 C 0.62711 0.8502 0.99546 0.0
C983 C 0.66319 0.8867 0.99039 0.0
C984 C 0.69047 0.88758 0.97168 0.0
C985 C 0.68009 0.85285 0.9571 0.0
C986 C 0.59729 0.84798 0.01533 0.0
C987 C 0.72938 0.92585 0.96585 0.0
H988 H 0.64665 0.99893 0.99249 0.0
H989 H 0.70884 0.98297 0.05615 0.0
H990 H 0.65193 0.93134 0.95 0.0
H991 H 0.60511 0.90363 0.96671 0.0
H992 H 0.62272 0.95512 0.95744 0.0
H993 H 0.7245 0.93095 0.05731 0.0
H994 H 0.68253 0.88492 0.04524 0.0
H995 H 0.72756 0.91065 0.02657 0.0
H996 H 0.58901 0.78856 0.98378 0.0
H997 H 0.70012 0.85411 0.94194 0.0
H998 H 0.58309 0.86543 0.00851 0.0
H999 H 0.61279 0.86164 0.03374 0.0
H1000 H 0.5731 0.81648 0.01905 0.0
H1001 H 0.72262 0.9474 0.95586 0.0
H1002 H 0.74964 0.92026 0.95339 0.0
H1003 H 0.74556 0.94049 0.98391 0.0
C1004 C 0.0143 0.66638 0.01535 0.0
C1005 C 0.00268 0.67356 0.03944 0.0
C1006 C 0.04963 0.69564 0.00338 0.0
C1007 C 0.07412 0.73292 0.01592 0.0
C1008 C 0.06266 0.7404 0.04029 0.0
C1009 C 0.02685 0.71063 0.05172 0.0
C1010 C 0.06061 0.6867 0.97722 0.0
C1011 C 0.08831 0.77965 0.05431 0.0
C1012 C 0.18082 0.78748 0.99028 0.0
C1013 C 0.17854 0.81327 0.97209 0.0
C1014 C 0.14772 0.76287 0.00597 0.0
C1015 C 0.1115 0.76391 0.00315 0.0
C1016 C 0.10985 0.79161 0.98588 0.0
C1017 C 0.14351 0.81612 0.97061 0.0
C1018 C 0.15075 0.73404 0.02441 0.0
C1019 C 0.0717 0.79348 0.98226 0.0
H1020 H 0.99535 0.63804 0.00562 0.0
H1021 H 0.01802 0.71602 0.07045 0.0
H1022 H 0.06304 0.70951 0.96307 0.0
H1023 H 0.09044 0.68859 0.97811 0.0
H1024 H 0.03809 0.65631 0.97002 0.0
H1025 H 0.07521 0.78065 0.07318 0.0
H1026 H 0.11892 0.78415 0.05756 0.0
H1027 H 0.09184 0.80523 0.04239 0.0
H1028 H 0.20794 0.78536 0.99161 0.0
H1029 H 0.14162 0.8361 0.95662 0.0
H1030 H 0.13239 0.70278 0.01708 0.0
H1031 H 0.13859 0.73527 0.04356 0.0
H1032 H 0.18231 0.74069 0.0268 0.0
H1033 H 0.04856 0.7654 0.97277 0.0
H1034 H 0.07666 0.81954 0.97023 0.0
H1035 H 0.05933 0.79554 0.00113 0.0
C1036 C 0.20014 0.38154 0.98276 0.0
C1037 C 0.17638 0.35518 0.96316 0.0
C1038 C 0.22405 0.37224 0.99855 0.0
C1039 C 0.22429 0.33581 0.99452 0.0
C1040 C 0.19834 0.3079 0.9759 0.0
C1041 C 0.17457 0.31789 0.96045 0.0
C1042 C 0.25106 0.40263 0.01837 0.0
C1043 C 0.19773 0.26873 0.97105 0.0
C1044 C 0.3232 0.33979 0.00849 0.0
C1045 C 0.31565 0.32044 0.03243 0.0
C1046 C 0.29349 0.34444 0.99587 0.0
C1047 C 0.25518 0.32936 0.00747 0.0
C1048 C 0.24704 0.30921 0.03143 0.0
C1049 C 0.27742 0.30492 0.04363 0.0
C1050 C 0.30329 0.36591 0.97021 0.0
C1051 C 0.20658 0.29291 0.04437 0.0
H1052 H 0.20144 0.41029 0.98506 0.0
H1053 H 0.15618 0.29734 0.94536 0.0
H1054 H 0.24868 0.38767 0.03708 0.0
H1055 H 0.28289 0.41666 0.01197 0.0
H1056 H 0.24362 0.4269 0.02135 0.0
H1057 H 0.17234 0.24817 0.95836 0.0
H1058 H 0.22638 0.27509 0.96172 0.0
H1059 H 0.1954 0.25304 0.98945 0.0
H1060 H 0.35238 0.35112 -0.00051 0.0
H1061 H 0.27159 0.29023 0.06221 0.0
H1062 H 0.30046 0.39329 0.97164 0.0
H1063 H 0.28154 0.3461 0.95538 0.0
H1064 H 0.33426 0.37504 0.96357 0.0
H1065 H 0.20107 0.31805 0.04893 0.0
H1066 H 0.20453 0.27654 0.06247 0.0
H1067 H 0.18219 0.27216 0.03119 0.0
C1068 C 0.98527 0.69499 0.46036 0.0
C1069 C 0.01314 0.6888 0.47424 0.0
C1070 C 0.94925 0.68841 0.47179 0.0
C1071 C 0.94085 0.67503 0.49763 0.0
C1072 C 0.96937 0.66991 0.51196 0.0
C1073 C 0.00522 0.67708 0.50014 0.0
C1074 C 0.91963 0.69449 0.456 0.0
C1075 C 0.96149 0.65561 0.53957 0.0
C1076 C 0.86003 0.6795 0.5374 0.0
C1077 C 0.82857 0.63943 0.53598 0.0
C1078 C 0.89629 0.69208 0.52408 0.0
C1079 C 0.90122 0.66374 0.50934 0.0
C1080 C 0.86909 0.62354 0.50729 0.0
C1081 C 0.83308 0.61193 0.52053 0.0
C1082 C 0.92976 0.73531 0.52646 0.0
C1083 C 0.87331 0.59231 0.49197 0.0
H1084 H 0.99098 0.70378 0.44031 0.0
H1085 H 0.02694 0.67316 0.51122 0.0
H1086 H 0.89199 0.66501 0.45269 0.0
H1087 H 0.91051 0.71385 0.46654 0.0
H1088 H 0.93224 0.70848 0.43702 0.0
H1089 H 0.98748 0.65469 0.54833 0.0
H1090 H 0.95474 0.67567 0.55134 0.0
H1091 H 0.93471 0.62492 0.54049 0.0
H1092 H 0.85656 0.70089 0.54922 0.0
H1093 H 0.80889 0.58088 0.51941 0.0
H1094 H 0.94111 0.74832 0.50711 0.0
H1095 H 0.95539 0.73655 0.53721 0.0
H1096 H 0.91986 0.75437 0.53665 0.0
H1097 H 0.88307 0.60309 0.47202 0.0
H1098 H 0.84474 0.56295 0.49115 0.0
H1099 H 0.89687 0.58736 0.50079 0.0
C1100 C 0.37517 0.18952 0.52044 0.0
C1101 C 0.34875 0.16658 0.54023 0.0
C1102 C 0.36687 0.21425 0.50477 0.0
C1103 C 0.33126 0.21596 0.509 0.0
C1104 C 0.30292 0.19037 0.52754 0.0
C1105 C 0.31203 0.16593 0.54299 0.0
C1106 C 0.39782 0.24097 0.48515 0.0
C1107 C 0.26447 0.19112 0.53247 0.0
C1108 C 0.34019 0.31756 0.497 0.0
C1109 C 0.32155 0.31194 0.47292 0.0
C1110 C 0.34306 0.28636 0.50899 0.0
C1111 C 0.3266 0.24838 0.49671 0.0
C1112 C 0.30706 0.24213 0.47263 0.0
C1113 C 0.30482 0.27405 0.46098 0.0
C1114 C 0.36422 0.29428 0.53471 0.0
C1115 C 0.28926 0.20204 0.45899 0.0
H1116 H 0.40351 0.18998 0.5181 0.0
H1117 H 0.29141 0.14811 0.55819 0.0
H1118 H 0.38315 0.24038 0.46662 0.0
H1119 H 0.41354 0.27256 0.49219 0.0
H1120 H 0.42074 0.23184 0.4816 0.0
H1121 H 0.24306 0.1654 0.54461 0.0
H1122 H 0.27169 0.21955 0.54249 0.0
H1123 H 0.24941 0.19038 0.51407 0.0
H1124 H 0.35245 0.34638 0.50663 0.0
H1125 H 0.29072 0.2696 0.44227 0.0
H1126 H 0.39075 0.29004 0.53305 0.0
H1127 H 0.34369 0.27243 0.54923 0.0
H1128 H 0.37465 0.32527 0.5419 0.0
H1129 H 0.31355 0.19547 0.45399 0.0
H1130 H 0.27314 0.2014 0.44106 0.0
H1131 H 0.26795 0.17753 0.47187 0.0
C1132 C 0.82448 0.14701 0.53269 0.0
C1133 C 0.82206 0.18217 0.53011 0.0
C1134 C 0.80063 0.113 0.51743 0.0
C1135 C 0.77384 0.11434 0.49921 0.0
C1136 C 0.77338 0.15067 0.49532 0.0
C1137 C 0.79751 0.18418 0.51084 0.0
C1138 C 0.80213 0.07486 0.52204 0.0
C1139 C 0.74537 0.15336 0.47599 0.0
C1140 C 0.71967 0.02998 0.4504 0.0
C1141 C 0.68193 0.00692 0.46215 0.0
C1142 C 0.75028 0.0648 0.46234 0.0
C1143 C 0.74286 0.07668 0.48658 0.0
C1144 C 0.70507 0.0531 0.49873 0.0
C1145 C 0.67514 0.01854 0.48638 0.0
C1146 C 0.79022 0.08925 0.44885 0.0
C1147 C 0.69603 0.0646 0.52469 0.0
H1148 H 0.84354 0.14532 0.54749 0.0
H1149 H 0.7957 0.21137 0.50863 0.0
H1150 H 0.77403 0.05239 0.5318 0.0
H1151 H 0.80398 0.06145 0.50352 0.0
H1152 H 0.82817 0.08026 0.53426 0.0
H1153 H 0.75209 0.18487 0.47311 0.0
H1154 H 0.74744 0.14089 0.45714 0.0
H1155 H 0.7138 0.13509 0.48278 0.0
H1156 H 0.72495 0.02128 0.43159 0.0
H1157 H 0.64639 0.00044 0.49583 0.0
H1158 H 0.8152 0.09343 0.46165 0.0
H1159 H 0.79511 0.11967 0.44431 0.0
H1160 H 0.79188 0.07485 0.43067 0.0
H1161 H 0.71843 0.06683 0.53909 0.0
H1162 H 0.6654 0.04253 0.53173 0.0
H1163 H 0.69845 0.09466 0.52349 0.0
C1164 C 0.25382 0.29038 0.30339 0.0
C1165 C 0.2839 0.32754 0.31307 0.0
C1166 C 0.25835 0.27619 0.27941 0.0
C1167 C 0.29394 0.29962 0.26498 0.0
C1168 C 0.3245 0.337 0.2748 0.0
C1169 C 0.31904 0.35054 0.29869 0.0
C1170 C 0.22503 0.23637 0.26942 0.0
C1171 C 0.36308 0.36267 0.26009 0.0
C1172 C 0.32957 0.25358 0.2142 0.0
C1173 C 0.32079 0.26736 0.19143 0.0
C1174 C 0.31942 0.2624 0.23831 0.0
C1175 C 0.29973 0.28526 0.23966 0.0
C1176 C 0.28878 0.29735 0.21672 0.0
C1177 C 0.29955 0.28835 0.19286 0.0
C1178 C 0.33153 0.24891 0.26235 0.0
C1179 C 0.26749 0.32153 0.21741 0.0
H1180 H 0.22642 0.27276 0.31438 0.0
H1181 H 0.34254 0.37905 0.30629 0.0
H1182 H 0.21383 0.24092 0.25073 0.0
H1183 H 0.23674 0.21552 0.26587 0.0
H1184 H 0.19928 0.22178 0.28302 0.0
H1185 H 0.3839 0.3909 0.27049 0.0
H1186 H 0.37883 0.34543 0.25662 0.0
H1187 H 0.35615 0.37073 0.24101 0.0
H1188 H 0.34521 0.2366 0.2132 0.0
H1189 H 0.29289 0.29931 0.17536 0.0
H1190 H 0.30536 0.23299 0.27546 0.0
H1191 H 0.35494 0.27565 0.27284 0.0
H1192 H 0.3437 0.22863 0.25799 0.0
H1193 H 0.24097 0.30708 0.23038 0.0
H1194 H 0.25728 0.32484 0.19801 0.0
H1195 H 0.28817 0.35204 0.2252 0.0
C1196 C 0.68835 0.03851 0.19846 0.0
C1197 C 0.72315 0.04959 0.18392 0.0
C1198 C 0.68213 0.01864 0.22206 0.0
C1199 C 0.71155 0.00977 0.23141 0.0
C1200 C 0.74674 0.02075 0.21681 0.0
C1201 C 0.75207 0.04045 0.19311 0.0
C1202 C 0.64399 0.00706 0.23696 0.0
C1203 C 0.77882 0.01199 0.22632 0.0
C1204 C 0.70455 0.99114 0.30329 0.0
C1205 C 0.68114 0.949 0.30429 0.0
C1206 C 0.71669 0.01135 0.27963 0.0
C1207 C 0.70493 0.98882 0.25648 0.0
C1208 C 0.68316 0.94621 0.25741 0.0
C1209 C 0.67164 0.92681 0.28132 0.0
C1210 C 0.74014 0.05685 0.27939 0.0
C1211 C 0.67017 0.92116 0.23313 0.0
H1212 H 0.66569 0.04506 0.19121 0.0
H1213 H 0.77917 0.04933 0.18199 0.0
H1214 H 0.62695 0.97398 0.24006 0.0
H1215 H 0.65161 0.02157 0.2562 0.0
H1216 H 0.62408 0.01602 0.2269 0.0
H1217 H 0.8043 0.02227 0.21257 0.0
H1218 H 0.79075 0.02716 0.24509 0.0
H1219 H 0.76566 0.97916 0.22954 0.0
H1220 H 0.71182 0.00849 0.32095 0.0
H1221 H 0.65431 0.89418 0.28201 0.0
H1222 H 0.72068 0.06843 0.27199 0.0
H1223 H 0.76647 0.06793 0.26632 0.0
H1224 H 0.75097 0.06965 0.29889 0.0
H1225 H 0.64739 0.92581 0.2229 0.0
H1226 H 0.65685 0.88847 0.23716 0.0
H1227 H 0.69614 0.93075 0.21993 0.0
C1228 C 0.97668 0.68957 0.19636 0.0
C1229 C 0.93469 0.67147 0.19434 0.0
C1230 C 0.99577 0.69989 0.22044 0.0
C1231 C 0.97227 0.69201 0.24301 0.0
C1232 C 0.93006 0.67543 0.24102 0.0
C1233 C 0.91174 0.66525 0.21668 0.0
C1234 C 0.04087 0.71741 0.22179 0.0
C1235 C 0.90409 0.667 0.26464 0.0
C1236 C 0.01629 0.67278 0.30299 0.0
C1237 C 0.03399 0.71039 0.31528 0.0
C1238 C 0.99524 0.66617 0.2798 0.0
C1239 C 0.99157 0.69791 0.26867 0.0
C1240 C 0.00804 0.73552 0.28143 0.0
C1241 C 0.02916 0.74135 0.30461 0.0
C1242 C 0.97796 0.62555 0.26682 0.0
C1243 C 0.00453 0.76996 0.27017 0.0
H1244 H 0.99451 0.69411 0.17918 0.0
H1245 H 0.87931 0.65183 0.21515 0.0
H1246 H 0.05484 0.74532 0.23355 0.0
H1247 H 0.04774 0.69561 0.2313 0.0
H1248 H 0.05508 0.72455 0.20243 0.0
H1249 H 0.8724 0.65767 0.25968 0.0
H1250 H 0.90422 0.6426 0.27605 0.0
H1251 H 0.91642 0.69411 0.27712 0.0
H1252 H 0.01937 0.64855 0.31139 0.0
H1253 H 0.04307 0.7706 0.3139 0.0
H1254 H 0.99276 0.62901 0.24789 0.0
H1255 H 0.94529 0.61289 0.26315 0.0
H1256 H 0.9821 0.60361 0.27852 0.0
H1257 H 0.02196 0.7801 0.25198 0.0
H1258 H 0.01597 0.79608 0.28351 0.0
H1259 H 0.97266 0.75993 0.26539 0.0
C1260 C 0.71984 0.70977 0.68346 0.0
C1261 C 0.70831 0.66898 0.67975 0.0
C1262 C 0.71648 0.72428 0.70766 0.0
C1263 C 0.69864 0.69697 0.72834 0.0
C1264 C 0.68665 0.65588 0.72483 0.0
C1265 C 0.69305 0.64282 0.70103 0.0
C1266 C 0.73146 0.76876 0.71069 0.0
C1267 C 0.66586 0.62526 0.746 0.0
C1268 C 0.70343 0.72332 0.79918 0.0
C1269 C 0.66735 0.72407 0.80249 0.0
C1270 C 0.71567 0.71782 0.77473 0.0
C1271 C 0.69011 0.71033 0.75328 0.0
C1272 C 0.65442 0.71222 0.7562 0.0
C1273 C 0.64434 0.72055 0.78047 0.0
C1274 C 0.75554 0.71912 0.772 0.0
C1275 C 0.62588 0.70378 0.73394 0.0
H1276 H 0.73117 0.7307 0.66752 0.0
H1277 H 0.68568 0.61175 0.69933 0.0
H1278 H 0.70664 0.77479 0.70629 0.0
H1279 H 0.74219 0.77938 0.73056 0.0
H1280 H 0.75645 0.7868 0.69706 0.0
H1281 H 0.65546 0.59395 0.73946 0.0
H1282 H 0.68663 0.63195 0.76248 0.0
H1283 H 0.63937 0.62685 0.75314 0.0
H1284 H 0.72188 0.72597 0.81565 0.0
H1285 H 0.61772 0.72338 0.78205 0.0
H1286 H 0.77175 0.73654 0.75462 0.0
H1287 H 0.75038 0.68812 0.76968 0.0
H1288 H 0.77515 0.73292 0.78909 0.0
H1289 H 0.64069 0.72742 0.71905 0.0
H1290 H 0.59764 0.70294 0.73996 0.0
H1291 H 0.61787 0.67445 0.72489 0.0
C1292 C 0.3116 0.00204 0.81954 0.0
C1293 C 0.27583 0.96639 0.82541 0.0
C1294 C 0.31735 0.02019 0.79531 0.0
C1295 C 0.28637 0.00248 0.77663 0.0
C1296 C 0.24919 0.96807 0.783 0.0
C1297 C 0.24444 0.95026 0.80728 0.0
C1298 C 0.35745 0.05693 0.78921 0.0
C1299 C 0.2153 0.94864 0.76368 0.0
C1300 C 0.30002 0.06435 0.71649 0.0
C1301 C 0.318 0.04918 0.69976 0.0
C1302 C 0.28816 0.04854 0.74139 0.0
C1303 C 0.29478 0.01713 0.74967 0.0
C1304 C 0.3115 0.00072 0.73251 0.0
C1305 C 0.32264 0.01676 0.70772 0.0
C1306 C 0.26987 0.06633 0.75909 0.0
C1307 C 0.31894 0.96709 0.7406 0.0
H1308 H 0.33562 0.01519 0.83366 0.0
H1309 H 0.21679 0.92255 0.81155 0.0
H1310 H 0.37351 0.04899 0.77463 0.0
H1311 H 0.35296 0.08103 0.78086 0.0
H1312 H 0.37698 0.06906 0.8065 0.0
H1313 H 0.18658 0.92588 0.77275 0.0
H1314 H 0.21044 0.97172 0.75406 0.0
H1315 H 0.22335 0.93347 0.74854 0.0
H1316 H 0.29653 0.08952 0.71046 0.0
H1317 H 0.33567 0.00433 0.69465 0.0
H1318 H 0.29107 0.08265 0.77507 0.0
H1319 H 0.24172 0.04209 0.76783 0.0
H1320 H 0.26298 0.08769 0.74892 0.0
H1321 H 0.34077 0.97739 0.75678 0.0
H1322 H 0.33104 0.95692 0.72464 0.0
H1323 H 0.29055 0.94089 0.74755 0.0
C1324 C 0.07205 0.32858 0.78381 0.0
C1325 C 0.04998 0.31917 0.80679 0.0
C1326 C 0.0525 0.31717 0.75992 0.0
C1327 C 0.00989 0.29594 0.75905 0.0
C1328 C 0.98746 0.28452 0.78223 0.0
C1329 C 0.00783 0.29624 0.80588 0.0
C1330 C 0.07746 0.3296 0.73562 0.0
C1331 C 0.94196 0.26187 0.78204 0.0
C1332 C 0.96124 0.31307 0.70064 0.0
C1333 C 0.94927 0.27781 0.68636 0.0
C1334 C 0.98093 0.31919 0.72432 0.0
C1335 C 0.98891 0.28933 0.73397 0.0
C1336 C 0.97715 0.25374 0.71961 0.0
C1337 C 0.95747 0.2484 0.69589 0.0
C1338 C 0.99324 0.35771 0.73899 0.0
C1339 C 0.98516 0.22128 0.72936 0.0
H1340 H 0.10469 0.34568 0.7845 0.0
H1341 H 0.99069 0.28908 0.82361 0.0
H1342 H 0.06739 0.30344 0.7225 0.0
H1343 H 0.07327 0.35261 0.72531 0.0
H1344 H 0.1101 0.34243 0.73963 0.0
H1345 H 0.92913 0.25166 0.80159 0.0
H1346 H 0.93095 0.28166 0.77436 0.0
H1347 H 0.93035 0.23521 0.76921 0.0
H1348 H 0.95551 0.33614 0.69314 0.0
H1349 H 0.9479 0.22093 0.68502 0.0
H1350 H 0.02636 0.37439 0.74193 0.0
H1351 H 0.97901 0.35061 0.75832 0.0
H1352 H 0.98456 0.37777 0.72886 0.0
H1353 H 0.01793 0.23395 0.73261 0.0
H1354 H 0.97444 0.19556 0.71575 0.0
H1355 H 0.96995 0.2098 0.74816 0.0
loop_
_geom_bond_atom_site_label_1
_geom_bond_atom_site_label_2
_geom_bond_distance
_geom_bond_site_symmetry_2
_ccdc_geom_bond_type
Co0 N4 2.148 . S
Co0 N10 2.128 . S
Co0 N20 2.194 . S
Co0 O25 2.351 . S
Co0 O26 2.155 . S
Co0 O27 2.096 . S
C1 N4 1.301 . S
C1 N5 1.328 . S
C1 H6 0.930 . S
C2 C3 1.333 . S
C2 N4 1.317 . S
C2 H7 0.930 . S
C3 C2 1.333 . S
C3 N5 1.350 . S
C3 H29 0.931 . S
N4 Co0 2.148 . S
N4 C1 1.301 . S
N4 C2 1.317 . S
N5 C1 1.328 . S
N5 C3 1.350 . S
H6 C1 0.930 . S
H7 C2 0.930 . S
C8 O9 1.224 . S
C8 O27 1.247 . S
O9 C8 1.224 . S
N10 Co0 2.128 . S
N10 C11 1.355 . S
N10 C13 1.311 . S
C11 N10 1.355 . S
C11 C12 1.363 . S
C11 H23 0.929 . S
C12 C11 1.363 . S
C12 N14 1.375 . S
C12 H30 0.931 . S
C13 N10 1.311 . S
C13 N14 1.347 . S
C13 H24 0.929 . S
N14 C12 1.375 . S
N14 C13 1.347 . S
C15 C18 1.365 . S
C15 N20 1.328 . S
C15 H21 0.929 . S
C16 C17 1.362 . S
C16 C19 1.378 . S
C16 H31 0.929 . S
C17 C16 1.362 . S
C17 C18 1.366 . S
C18 C15 1.365 . S
C18 C17 1.366 . S
C18 H32 0.930 . S
C19 C16 1.378 . S
C19 N20 1.315 . S
C19 H22 0.930 . S
N20 Co0 2.194 . S
N20 C15 1.328 . S
N20 C19 1.315 . S
H21 C15 0.929 . S
H22 C19 0.930 . S
H23 C11 0.929 . S
H24 C13 0.929 . S
O25 Co0 2.351 . S
O25 C28 1.244 . S
O26 Co0 2.155 . S
O26 C28 1.240 . S
O27 Co0 2.096 . S
O27 C8 1.247 . S
C28 O25 1.244 . S
C28 O26 1.240 . S
H29 C3 0.931 . S
H30 C12 0.931 . S
H31 C16 0.929 . S
H32 C18 0.930 . S
Co33 N37 2.148 . S
Co33 N43 2.128 . S
Co33 N53 2.194 . S
Co33 O58 2.351 . S
Co33 O59 2.155 . S
Co33 O60 2.096 . S
C34 N37 1.301 . S
C34 N38 1.328 . S
C34 H39 0.930 . S
C35 C36 1.333 . S
C35 N37 1.317 . S
C35 H40 0.930 . S
C36 C35 1.333 . S
C36 N38 1.350 . S
C36 H62 0.931 . S
N37 Co33 2.148 . S
N37 C34 1.301 . S
N37 C35 1.317 . S
N38 C34 1.328 . S
N38 C36 1.350 . S
H39 C34 0.930 . S
H40 C35 0.930 . S
C41 O42 1.224 . S
C41 O60 1.247 . S
O42 C41 1.224 . S
N43 Co33 2.128 . S
N43 C44 1.355 . S
N43 C46 1.311 . S
C44 N43 1.355 . S
C44 C45 1.363 . S
C44 H56 0.929 . S
C45 C44 1.363 . S
C45 N47 1.375 . S
C45 H63 0.931 . S
C46 N43 1.311 . S
C46 N47 1.347 . S
C46 H57 0.929 . S
N47 C45 1.375 . S
N47 C46 1.347 . S
C48 C51 1.365 . S
C48 N53 1.328 . S
C48 H54 0.929 . S
C49 C50 1.362 . S
C49 C52 1.378 . S
C49 H64 0.929 . S
C50 C49 1.362 . S
C50 C51 1.366 . S
C51 C48 1.365 . S
C51 C50 1.366 . S
C51 H65 0.930 . S
C52 C49 1.378 . S
C52 N53 1.315 . S
C52 H55 0.930 . S
N53 Co33 2.194 . S
N53 C48 1.328 . S
N53 C52 1.315 . S
H54 C48 0.929 . S
H55 C52 0.930 . S
H56 C44 0.929 . S
H57 C46 0.929 . S
O58 Co33 2.351 . S
O58 C61 1.244 . S
O59 Co33 2.155 . S
O59 C61 1.240 . S
O60 Co33 2.096 . S
O60 C41 1.247 . S
C61 O58 1.244 . S
C61 O59 1.240 . S
H62 C36 0.931 . S
H63 C45 0.931 . S
H64 C49 0.929 . S
H65 C51 0.930 . S
Co66 N70 2.148 . S
Co66 N76 2.128 . S
Co66 N86 2.194 . S
Co66 O91 2.351 . S
Co66 O92 2.155 . S
Co66 O93 2.096 . S
C67 N70 1.301 . S
C67 N71 1.328 . S
C67 H72 0.930 . S
C68 C69 1.333 . S
C68 N70 1.317 . S
C68 H73 0.930 . S
C69 C68 1.333 . S
C69 N71 1.350 . S
C69 H95 0.931 . S
N70 Co66 2.148 . S
N70 C67 1.301 . S
N70 C68 1.317 . S
N71 C67 1.328 . S
N71 C69 1.350 . S
H72 C67 0.930 . S
H73 C68 0.930 . S
C74 O75 1.224 . S
C74 O93 1.247 . S
O75 C74 1.224 . S
N76 Co66 2.128 . S
N76 C77 1.355 . S
N76 C79 1.311 . S
C77 N76 1.355 . S
C77 C78 1.363 . S
C77 H89 0.929 . S
C78 C77 1.363 . S
C78 N80 1.375 . S
C78 H96 0.931 . S
C79 N76 1.311 . S
C79 N80 1.347 . S
C79 H90 0.929 . S
N80 C78 1.375 . S
N80 C79 1.347 . S
C81 C84 1.365 . S
C81 N86 1.328 . S
C81 H87 0.929 . S
C82 C83 1.362 . S
C82 C85 1.378 . S
C82 H97 0.929 . S
C83 C82 1.362 . S
C83 C84 1.366 . S
C84 C81 1.365 . S
C84 C83 1.366 . S
C84 H98 0.930 . S
C85 C82 1.378 . S
C85 N86 1.315 . S
C85 H88 0.930 . S
N86 Co66 2.194 . S
N86 C81 1.328 . S
N86 C85 1.315 . S
H87 C81 0.929 . S
H88 C85 0.930 . S
H89 C77 0.929 . S
H90 C79 0.929 . S
O91 Co66 2.351 . S
O91 C94 1.244 . S
O92 Co66 2.155 . S
O92 C94 1.240 . S
O93 Co66 2.096 . S
O93 C74 1.247 . S
C94 O91 1.244 . S
C94 O92 1.240 . S
H95 C69 0.931 . S
H96 C78 0.931 . S
H97 C82 0.929 . S
H98 C84 0.930 . S
Co99 N103 2.148 . S
Co99 N109 2.128 . S
Co99 N119 2.194 . S
Co99 O124 2.351 . S
Co99 O125 2.155 . S
Co99 O126 2.096 . S
C100 N103 1.301 . S
C100 N104 1.328 . S
C100 H105 0.930 . S
C101 C102 1.333 . S
C101 N103 1.317 . S
C101 H106 0.930 . S
C102 C101 1.333 . S
C102 N104 1.350 . S
C102 H128 0.931 . S
N103 Co99 2.148 . S
N103 C100 1.301 . S
N103 C101 1.317 . S
N104 C100 1.328 . S
N104 C102 1.350 . S
H105 C100 0.930 . S
H106 C101 0.930 . S
C107 O108 1.224 . S
C107 O126 1.247 . S
O108 C107 1.224 . S
N109 Co99 2.128 . S
N109 C110 1.355 . S
N109 C112 1.311 . S
C110 N109 1.355 . S
C110 C111 1.363 . S
C110 H122 0.929 . S
C111 C110 1.363 . S
C111 N113 1.375 . S
C111 H129 0.931 . S
C112 N109 1.311 . S
C112 N113 1.347 . S
C112 H123 0.929 . S
N113 C111 1.375 . S
N113 C112 1.347 . S
C114 C117 1.365 . S
C114 N119 1.328 . S
C114 H120 0.929 . S
C115 C116 1.362 . S
C115 C118 1.378 . S
C115 H130 0.929 . S
C116 C115 1.362 . S
C116 C117 1.366 . S
C117 C114 1.365 . S
C117 C116 1.366 . S
C117 H131 0.930 . S
C118 C115 1.378 . S
C118 N119 1.315 . S
C118 H121 0.930 . S
N119 Co99 2.194 . S
N119 C114 1.328 . S
N119 C118 1.315 . S
H120 C114 0.929 . S
H121 C118 0.930 . S
H122 C110 0.929 . S
H123 C112 0.929 . S
O124 Co99 2.351 . S
O124 C127 1.244 . S
O125 Co99 2.155 . S
O125 C127 1.240 . S
O126 Co99 2.096 . S
O126 C107 1.247 . S
C127 O124 1.244 . S
C127 O125 1.240 . S
H128 C102 0.931 . S
H129 C111 0.931 . S
H130 C115 0.929 . S
H131 C117 0.930 . S
Co132 N136 2.148 . S
Co132 N142 2.128 . S
Co132 N152 2.194 . S
Co132 O157 2.351 . S
Co132 O158 2.155 . S
Co132 O159 2.096 . S
C133 N136 1.301 . S
C133 N137 1.328 . S
C133 H138 0.930 . S
C134 C135 1.333 . S
C134 N136 1.317 . S
C134 H139 0.930 . S
C135 C134 1.333 . S
C135 N137 1.350 . S
C135 H161 0.931 . S
N136 Co132 2.148 . S
N136 C133 1.301 . S
N136 C134 1.317 . S
N137 C133 1.328 . S
N137 C135 1.350 . S
H138 C133 0.930 . S
H139 C134 0.930 . S
C140 O141 1.224 . S
C140 O159 1.247 . S
O141 C140 1.224 . S
N142 Co132 2.128 . S
N142 C143 1.355 . S
N142 C145 1.311 . S
C143 N142 1.355 . S
C143 C144 1.363 . S
C143 H155 0.929 . S
C144 C143 1.363 . S
C144 N146 1.375 . S
C144 H162 0.931 . S
C145 N142 1.311 . S
C145 N146 1.347 . S
C145 H156 0.929 . S
N146 C144 1.375 . S
N146 C145 1.347 . S
C147 C150 1.365 . S
C147 N152 1.328 . S
C147 H153 0.929 . S
C148 C149 1.362 . S
C148 C151 1.378 . S
C148 H163 0.929 . S
C149 C148 1.362 . S
C149 C150 1.366 . S
C150 C147 1.365 . S
C150 C149 1.366 . S
C150 H164 0.930 . S
C151 C148 1.378 . S
C151 N152 1.315 . S
C151 H154 0.930 . S
N152 Co132 2.194 . S
N152 C147 1.328 . S
N152 C151 1.315 . S
H153 C147 0.929 . S
H154 C151 0.930 . S
H155 C143 0.929 . S
H156 C145 0.929 . S
O157 Co132 2.351 . S
O157 C160 1.244 . S
O158 Co132 2.155 . S
O158 C160 1.240 . S
O159 Co132 2.096 . S
O159 C140 1.247 . S
C160 O157 1.244 . S
C160 O158 1.240 . S
H161 C135 0.931 . S
H162 C144 0.931 . S
H163 C148 0.929 . S
H164 C150 0.930 . S
Co165 N169 2.148 . S
Co165 N175 2.128 . S
Co165 N185 2.194 . S
Co165 O190 2.351 . S
Co165 O191 2.155 . S
Co165 O192 2.096 . S
C166 N169 1.301 . S
C166 N170 1.328 . S
C166 H171 0.930 . S
C167 C168 1.333 . S
C167 N169 1.317 . S
C167 H172 0.930 . S
C168 C167 1.333 . S
C168 N170 1.350 . S
C168 H194 0.931 . S
N169 Co165 2.148 . S
N169 C166 1.301 . S
N169 C167 1.317 . S
N170 C166 1.328 . S
N170 C168 1.350 . S
H171 C166 0.930 . S
H172 C167 0.930 . S
C173 O174 1.224 . S
C173 O192 1.247 . S
O174 C173 1.224 . S
N175 Co165 2.128 . S
N175 C176 1.355 . S
N175 C178 1.311 . S
C176 N175 1.355 . S
C176 C177 1.363 . S
C176 H188 0.929 . S
C177 C176 1.363 . S
C177 N179 1.375 . S
C177 H195 0.931 . S
C178 N175 1.311 . S
C178 N179 1.347 . S
C178 H189 0.929 . S
N179 C177 1.375 . S
N179 C178 1.347 . S
C180 C183 1.365 . S
C180 N185 1.328 . S
C180 H186 0.929 . S
C181 C182 1.362 . S
C181 C184 1.378 . S
C181 H196 0.929 . S
C182 C181 1.362 . S
C182 C183 1.366 . S
C183 C180 1.365 . S
C183 C182 1.366 . S
C183 H197 0.930 . S
C184 C181 1.378 . S
C184 N185 1.315 . S
C184 H187 0.930 . S
N185 Co165 2.194 . S
N185 C180 1.328 . S
N185 C184 1.315 . S
H186 C180 0.929 . S
H187 C184 0.930 . S
H188 C176 0.929 . S
H189 C178 0.929 . S
O190 Co165 2.351 . S
O190 C193 1.244 . S
O191 Co165 2.155 . S
O191 C193 1.240 . S
O192 Co165 2.096 . S
O192 C173 1.247 . S
C193 O190 1.244 . S
C193 O191 1.240 . S
H194 C168 0.931 . S
H195 C177 0.931 . S
H196 C181 0.929 . S
H197 C183 0.930 . S
Co198 N202 2.148 . S
Co198 N208 2.128 . S
Co198 N218 2.194 . S
Co198 O223 2.351 . S
Co198 O224 2.155 . S
Co198 O225 2.096 . S
C199 N202 1.301 . S
C199 N203 1.328 . S
C199 H204 0.930 . S
C200 C201 1.333 . S
C200 N202 1.317 . S
C200 H205 0.930 . S
C201 C200 1.333 . S
C201 N203 1.350 . S
C201 H227 0.931 . S
N202 Co198 2.148 . S
N202 C199 1.301 . S
N202 C200 1.317 . S
N203 C199 1.328 . S
N203 C201 1.350 . S
H204 C199 0.930 . S
H205 C200 0.930 . S
C206 O207 1.224 . S
C206 O225 1.247 . S
O207 C206 1.224 . S
N208 Co198 2.128 . S
N208 C209 1.355 . S
N208 C211 1.311 . S
C209 N208 1.355 . S
C209 C210 1.363 . S
C209 H221 0.929 . S
C210 C209 1.363 . S
C210 N212 1.375 . S
C210 H228 0.931 . S
C211 N208 1.311 . S
C211 N212 1.347 . S
C211 H222 0.929 . S
N212 C210 1.375 . S
N212 C211 1.347 . S
C213 C216 1.365 . S
C213 N218 1.328 . S
C213 H219 0.929 . S
C214 C215 1.362 . S
C214 C217 1.378 . S
C214 H229 0.929 . S
C215 C214 1.362 . S
C215 C216 1.366 . S
C216 C213 1.365 . S
C216 C215 1.366 . S
C216 H230 0.930 . S
C217 C214 1.378 . S
C217 N218 1.315 . S
C217 H220 0.930 . S
N218 Co198 2.194 . S
N218 C213 1.328 . S
N218 C217 1.315 . S
H219 C213 0.929 . S
H220 C217 0.930 . S
H221 C209 0.929 . S
H222 C211 0.929 . S
O223 Co198 2.351 . S
O223 C226 1.244 . S
O224 Co198 2.155 . S
O224 C226 1.240 . S
O225 Co198 2.096 . S
O225 C206 1.247 . S
C226 O223 1.244 . S
C226 O224 1.240 . S
H227 C201 0.931 . S
H228 C210 0.931 . S
H229 C214 0.929 . S
H230 C216 0.930 . S
Co231 N235 2.148 . S
Co231 N241 2.128 . S
Co231 N251 2.194 . S
Co231 O256 2.351 . S
Co231 O257 2.155 . S
Co231 O258 2.096 . S
C232 N235 1.301 . S
C232 N236 1.328 . S
C232 H237 0.930 . S
C233 C234 1.333 . S
C233 N235 1.317 . S
C233 H238 0.930 . S
C234 C233 1.333 . S
C234 N236 1.350 . S
C234 H260 0.931 . S
N235 Co231 2.148 . S
N235 C232 1.301 . S
N235 C233 1.317 . S
N236 C232 1.328 . S
N236 C234 1.350 . S
H237 C232 0.930 . S
H238 C233 0.930 . S
C239 O240 1.224 . S
C239 O258 1.247 . S
O240 C239 1.224 . S
N241 Co231 2.128 . S
N241 C242 1.355 . S
N241 C244 1.311 . S
C242 N241 1.355 . S
C242 C243 1.363 . S
C242 H254 0.929 . S
C243 C242 1.363 . S
C243 N245 1.375 . S
C243 H261 0.931 . S
C244 N241 1.311 . S
C244 N245 1.347 . S
C244 H255 0.929 . S
N245 C243 1.375 . S
N245 C244 1.347 . S
C246 C249 1.365 . S
C246 N251 1.328 . S
C246 H252 0.929 . S
C247 C248 1.362 . S
C247 C250 1.378 . S
C247 H262 0.929 . S
C248 C247 1.362 . S
C248 C249 1.366 . S
C249 C246 1.365 . S
C249 C248 1.366 . S
C249 H263 0.930 . S
C250 C247 1.378 . S
C250 N251 1.315 . S
C250 H253 0.930 . S
N251 Co231 2.194 . S
N251 C246 1.328 . S
N251 C250 1.315 . S
H252 C246 0.929 . S
H253 C250 0.930 . S
H254 C242 0.929 . S
H255 C244 0.929 . S
O256 Co231 2.351 . S
O256 C259 1.244 . S
O257 Co231 2.155 . S
O257 C259 1.240 . S
O258 Co231 2.096 . S
O258 C239 1.247 . S
C259 O256 1.244 . S
C259 O257 1.240 . S
H260 C234 0.931 . S
H261 C243 0.931 . S
H262 C247 0.929 . S
H263 C249 0.930 . S
Co264 N268 2.148 . S
Co264 N274 2.128 . S
Co264 N284 2.194 . S
Co264 O289 2.351 . S
Co264 O290 2.155 . S
Co264 O291 2.096 . S
C265 N268 1.301 . S
C265 N269 1.328 . S
C265 H270 0.930 . S
C266 C267 1.333 . S
C266 N268 1.317 . S
C266 H271 0.930 . S
C267 C266 1.333 . S
C267 N269 1.350 . S
C267 H293 0.931 . S
N268 Co264 2.148 . S
N268 C265 1.301 . S
N268 C266 1.317 . S
N269 C265 1.328 . S
N269 C267 1.350 . S
H270 C265 0.930 . S
H271 C266 0.930 . S
C272 O273 1.224 . S
C272 O291 1.247 . S
O273 C272 1.224 . S
N274 Co264 2.128 . S
N274 C275 1.355 . S
N274 C277 1.311 . S
C275 N274 1.355 . S
C275 C276 1.363 . S
C275 H287 0.929 . S
C276 C275 1.363 . S
C276 N278 1.375 . S
C276 H294 0.931 . S
C277 N274 1.311 . S
C277 N278 1.347 . S
C277 H288 0.929 . S
N278 C276 1.375 . S
N278 C277 1.347 . S
C279 C282 1.365 . S
C279 N284 1.328 . S
C279 H285 0.929 . S
C280 C281 1.362 . S
C280 C283 1.378 . S
C280 H295 0.929 . S
C281 C280 1.362 . S
C281 C282 1.366 . S
C282 C279 1.365 . S
C282 C281 1.366 . S
C282 H296 0.930 . S
C283 C280 1.378 . S
C283 N284 1.315 . S
C283 H286 0.930 . S
N284 Co264 2.194 . S
N284 C279 1.328 . S
N284 C283 1.315 . S
H285 C279 0.929 . S
H286 C283 0.930 . S
H287 C275 0.929 . S
H288 C277 0.929 . S
O289 Co264 2.351 . S
O289 C292 1.244 . S
O290 Co264 2.155 . S
O290 C292 1.240 . S
O291 Co264 2.096 . S
O291 C272 1.247 . S
C292 O289 1.244 . S
C292 O290 1.240 . S
H293 C267 0.931 . S
H294 C276 0.931 . S
H295 C280 0.929 . S
H296 C282 0.930 . S
Co297 N301 2.148 . S
Co297 N307 2.128 . S
Co297 N317 2.194 . S
Co297 O322 2.351 . S
Co297 O323 2.155 . S
Co297 O324 2.096 . S
C298 N301 1.301 . S
C298 N302 1.328 . S
C298 H303 0.930 . S
C299 C300 1.333 . S
C299 N301 1.317 . S
C299 H304 0.930 . S
C300 C299 1.333 . S
C300 N302 1.350 . S
C300 H326 0.931 . S
N301 Co297 2.148 . S
N301 C298 1.301 . S
N301 C299 1.317 . S
N302 C298 1.328 . S
N302 C300 1.350 . S
H303 C298 0.930 . S
H304 C299 0.930 . S
C305 O306 1.224 . S
C305 O324 1.247 . S
O306 C305 1.224 . S
N307 Co297 2.128 . S
N307 C308 1.355 . S
N307 C310 1.311 . S
C308 N307 1.355 . S
C308 C309 1.363 . S
C308 H320 0.929 . S
C309 C308 1.363 . S
C309 N311 1.375 . S
C309 H327 0.931 . S
C310 N307 1.311 . S
C310 N311 1.347 . S
C310 H321 0.929 . S
N311 C309 1.375 . S
N311 C310 1.347 . S
C312 C315 1.365 . S
C312 N317 1.328 . S
C312 H318 0.929 . S
C313 C314 1.362 . S
C313 C316 1.378 . S
C313 H328 0.929 . S
C314 C313 1.362 . S
C314 C315 1.366 . S
C315 C312 1.365 . S
C315 C314 1.366 . S
C315 H329 0.930 . S
C316 C313 1.378 . S
C316 N317 1.315 . S
C316 H319 0.930 . S
N317 Co297 2.194 . S
N317 C312 1.328 . S
N317 C316 1.315 . S
H318 C312 0.929 . S
H319 C316 0.930 . S
H320 C308 0.929 . S
H321 C310 0.929 . S
O322 Co297 2.351 . S
O322 C325 1.244 . S
O323 Co297 2.155 . S
O323 C325 1.240 . S
O324 Co297 2.096 . S
O324 C305 1.247 . S
C325 O322 1.244 . S
C325 O323 1.240 . S
H326 C300 0.931 . S
H327 C309 0.931 . S
H328 C313 0.929 . S
H329 C315 0.930 . S
Co330 N334 2.148 . S
Co330 N340 2.128 . S
Co330 N350 2.194 . S
Co330 O355 2.351 . S
Co330 O356 2.155 . S
Co330 O357 2.096 . S
C331 N334 1.301 . S
C331 N335 1.328 . S
C331 H336 0.930 . S
C332 C333 1.333 . S
C332 N334 1.317 . S
C332 H337 0.930 . S
C333 C332 1.333 . S
C333 N335 1.350 . S
C333 H359 0.931 . S
N334 Co330 2.148 . S
N334 C331 1.301 . S
N334 C332 1.317 . S
N335 C331 1.328 . S
N335 C333 1.350 . S
H336 C331 0.930 . S
H337 C332 0.930 . S
C338 O339 1.224 . S
C338 O357 1.247 . S
O339 C338 1.224 . S
N340 Co330 2.128 . S
N340 C341 1.355 . S
N340 C343 1.311 . S
C341 N340 1.355 . S
C341 C342 1.363 . S
C341 H353 0.929 . S
C342 C341 1.363 . S
C342 N344 1.375 . S
C342 H360 0.931 . S
C343 N340 1.311 . S
C343 N344 1.347 . S
C343 H354 0.929 . S
N344 C342 1.375 . S
N344 C343 1.347 . S
C345 C348 1.365 . S
C345 N350 1.328 . S
C345 H351 0.929 . S
C346 C347 1.362 . S
C346 C349 1.378 . S
C346 H361 0.929 . S
C347 C346 1.362 . S
C347 C348 1.366 . S
C348 C345 1.365 . S
C348 C347 1.366 . S
C348 H362 0.930 . S
C349 C346 1.378 . S
C349 N350 1.315 . S
C349 H352 0.930 . S
N350 Co330 2.194 . S
N350 C345 1.328 . S
N350 C349 1.315 . S
H351 C345 0.929 . S
H352 C349 0.930 . S
H353 C341 0.929 . S
H354 C343 0.929 . S
O355 Co330 2.351 . S
O355 C358 1.244 . S
O356 Co330 2.155 . S
O356 C358 1.240 . S
O357 Co330 2.096 . S
O357 C338 1.247 . S
C358 O355 1.244 . S
C358 O356 1.240 . S
H359 C333 0.931 . S
H360 C342 0.931 . S
H361 C346 0.929 . S
H362 C348 0.930 . S
Co363 N367 2.148 . S
Co363 N373 2.128 . S
Co363 N383 2.194 . S
Co363 O388 2.351 . S
Co363 O389 2.155 . S
Co363 O390 2.096 . S
C364 N367 1.301 . S
C364 N368 1.328 . S
C364 H369 0.930 . S
C365 C366 1.333 . S
C365 N367 1.317 . S
C365 H370 0.930 . S
C366 C365 1.333 . S
C366 N368 1.350 . S
C366 H392 0.931 . S
N367 Co363 2.148 . S
N367 C364 1.301 . S
N367 C365 1.317 . S
N368 C364 1.328 . S
N368 C366 1.350 . S
H369 C364 0.930 . S
H370 C365 0.930 . S
C371 O372 1.224 . S
C371 O390 1.247 . S
O372 C371 1.224 . S
N373 Co363 2.128 . S
N373 C374 1.355 . S
N373 C376 1.311 . S
C374 N373 1.355 . S
C374 C375 1.363 . S
C374 H386 0.929 . S
C375 C374 1.363 . S
C375 N377 1.375 . S
C375 H393 0.931 . S
C376 N373 1.311 . S
C376 N377 1.347 . S
C376 H387 0.929 . S
N377 C375 1.375 . S
N377 C376 1.347 . S
C378 C381 1.365 . S
C378 N383 1.328 . S
C378 H384 0.929 . S
C379 C380 1.362 . S
C379 C382 1.378 . S
C379 H394 0.929 . S
C380 C379 1.362 . S
C380 C381 1.366 . S
C381 C378 1.365 . S
C381 C380 1.366 . S
C381 H395 0.930 . S
C382 C379 1.378 . S
C382 N383 1.315 . S
C382 H385 0.930 . S
N383 Co363 2.194 . S
N383 C378 1.328 . S
N383 C382 1.315 . S
H384 C378 0.929 . S
H385 C382 0.930 . S
H386 C374 0.929 . S
H387 C376 0.929 . S
O388 Co363 2.351 . S
O388 C391 1.244 . S
O389 Co363 2.155 . S
O389 C391 1.240 . S
O390 Co363 2.096 . S
O390 C371 1.247 . S
C391 O388 1.244 . S
C391 O389 1.240 . S
H392 C366 0.931 . S
H393 C375 0.931 . S
H394 C379 0.929 . S
H395 C381 0.930 . S
C396 C397 1.391 . S
C396 C398 1.394 . S
C396 H412 0.931 . S
C397 C396 1.391 . S
C397 C401 1.376 . S
C398 C396 1.394 . S
C398 C399 1.369 . S
C398 C402 1.531 . S
C399 C398 1.369 . S
C399 C400 1.410 . S
C399 C407 1.503 . S
C400 C399 1.410 . S
C400 C401 1.392 . S
C400 C403 1.511 . S
C401 C397 1.376 . S
C401 C400 1.392 . S
C401 H413 0.929 . S
C402 C398 1.531 . S
C402 H414 0.960 . S
C402 H415 0.962 . S
C402 H416 0.960 . S
C403 C400 1.511 . S
C403 H417 0.961 . S
C403 H418 0.961 . S
C403 H419 0.961 . S
C404 C405 1.370 . S
C404 C406 1.363 . S
C404 H420 0.931 . S
C405 C404 1.370 . S
C405 C409 1.408 . S
C406 C404 1.363 . S
C406 C407 1.370 . S
C406 C410 1.524 . S
C407 C399 1.503 . S
C407 C406 1.370 . S
C407 C408 1.403 . S
C408 C407 1.403 . S
C408 C409 1.404 . S
C408 C411 1.539 . S
C409 C405 1.408 . S
C409 C408 1.404 . S
C409 H421 0.930 . S
C410 C406 1.524 . S
C410 H422 0.956 . S
C410 H423 0.961 . S
C410 H424 0.961 . S
C411 C408 1.539 . S
C411 H425 0.958 . S
C411 H426 0.961 . S
C411 H427 0.960 . S
H412 C396 0.931 . S
H413 C401 0.929 . S
H414 C402 0.960 . S
H415 C402 0.962 . S
H416 C402 0.960 . S
H417 C403 0.961 . S
H418 C403 0.961 . S
H419 C403 0.961 . S
H420 C404 0.931 . S
H421 C409 0.930 . S
H422 C410 0.956 . S
H423 C410 0.961 . S
H424 C410 0.961 . S
H425 C411 0.958 . S
H426 C411 0.961 . S
H427 C411 0.960 . S
C428 C429 1.391 . S
C428 C430 1.394 . S
C428 H444 0.931 . S
C429 C428 1.391 . S
C429 C433 1.376 . S
C430 C428 1.394 . S
C430 C431 1.369 . S
C430 C434 1.531 . S
C431 C430 1.369 . S
C431 C432 1.410 . S
C431 C439 1.503 . S
C432 C431 1.410 . S
C432 C433 1.392 . S
C432 C435 1.511 . S
C433 C429 1.376 . S
C433 C432 1.392 . S
C433 H445 0.929 . S
C434 C430 1.531 . S
C434 H446 0.960 . S
C434 H447 0.962 . S
C434 H448 0.960 . S
C435 C432 1.511 . S
C435 H449 0.961 . S
C435 H450 0.961 . S
C435 H451 0.961 . S
C436 C437 1.370 . S
C436 C438 1.363 . S
C436 H452 0.931 . S
C437 C436 1.370 . S
C437 C441 1.408 . S
C438 C436 1.363 . S
C438 C439 1.370 . S
C438 C442 1.524 . S
C439 C431 1.503 . S
C439 C438 1.370 . S
C439 C440 1.403 . S
C440 C439 1.403 . S
C440 C441 1.404 . S
C440 C443 1.539 . S
C441 C437 1.408 . S
C441 C440 1.404 . S
C441 H453 0.930 . S
C442 C438 1.524 . S
C442 H454 0.956 . S
C442 H455 0.961 . S
C442 H456 0.961 . S
C443 C440 1.539 . S
C443 H457 0.958 . S
C443 H458 0.961 . S
C443 H459 0.960 . S
H444 C428 0.931 . S
H445 C433 0.929 . S
H446 C434 0.960 . S
H447 C434 0.962 . S
H448 C434 0.960 . S
H449 C435 0.961 . S
H450 C435 0.961 . S
H451 C435 0.961 . S
H452 C436 0.931 . S
H453 C441 0.930 . S
H454 C442 0.956 . S
H455 C442 0.961 . S
H456 C442 0.961 . S
H457 C443 0.958 . S
H458 C443 0.961 . S
H459 C443 0.960 . S
C460 C461 1.391 . S
C460 C462 1.394 . S
C460 H476 0.931 . S
C461 C460 1.391 . S
C461 C465 1.376 . S
C462 C460 1.394 . S
C462 C463 1.369 . S
C462 C466 1.531 . S
C463 C462 1.369 . S
C463 C464 1.410 . S
C463 C471 1.503 . S
C464 C463 1.410 . S
C464 C465 1.392 . S
C464 C467 1.511 . S
C465 C461 1.376 . S
C465 C464 1.392 . S
C465 H477 0.929 . S
C466 C462 1.531 . S
C466 H478 0.960 . S
C466 H479 0.962 . S
C466 H480 0.960 . S
C467 C464 1.511 . S
C467 H481 0.961 . S
C467 H482 0.961 . S
C467 H483 0.961 . S
C468 C469 1.370 . S
C468 C470 1.363 . S
C468 H484 0.931 . S
C469 C468 1.370 . S
C469 C473 1.408 . S
C470 C468 1.363 . S
C470 C471 1.370 . S
C470 C474 1.524 . S
C471 C463 1.503 . S
C471 C470 1.370 . S
C471 C472 1.403 . S
C472 C471 1.403 . S
C472 C473 1.404 . S
C472 C475 1.539 . S
C473 C469 1.408 . S
C473 C472 1.404 . S
C473 H485 0.930 . S
C474 C470 1.524 . S
C474 H486 0.956 . S
C474 H487 0.961 . S
C474 H488 0.961 . S
C475 C472 1.539 . S
C475 H489 0.958 . S
C475 H490 0.961 . S
C475 H491 0.960 . S
H476 C460 0.931 . S
H477 C465 0.929 . S
H478 C466 0.960 . S
H479 C466 0.962 . S
H480 C466 0.960 . S
H481 C467 0.961 . S
H482 C467 0.961 . S
H483 C467 0.961 . S
H484 C468 0.931 . S
H485 C473 0.930 . S
H486 C474 0.956 . S
H487 C474 0.961 . S
H488 C474 0.961 . S
H489 C475 0.958 . S
H490 C475 0.961 . S
H491 C475 0.960 . S
C492 C493 1.391 . S
C492 C494 1.394 . S
C492 H508 0.931 . S
C493 C492 1.391 . S
C493 C497 1.376 . S
C494 C492 1.394 . S
C494 C495 1.369 . S
C494 C498 1.531 . S
C495 C494 1.369 . S
C495 C496 1.410 . S
C495 C503 1.503 . S
C496 C495 1.410 . S
C496 C497 1.392 . S
C496 C499 1.511 . S
C497 C493 1.376 . S
C497 C496 1.392 . S
C497 H509 0.929 . S
C498 C494 1.531 . S
C498 H510 0.960 . S
C498 H511 0.962 . S
C498 H512 0.960 . S
C499 C496 1.511 . S
C499 H513 0.961 . S
C499 H514 0.961 . S
C499 H515 0.961 . S
C500 C501 1.370 . S
C500 C502 1.363 . S
C500 H516 0.931 . S
C501 C500 1.370 . S
C501 C505 1.408 . S
C502 C500 1.363 . S
C502 C503 1.370 . S
C502 C506 1.524 . S
C503 C495 1.503 . S
C503 C502 1.370 . S
C503 C504 1.403 . S
C504 C503 1.403 . S
C504 C505 1.404 . S
C504 C507 1.539 . S
C505 C501 1.408 . S
C505 C504 1.404 . S
C505 H517 0.930 . S
C506 C502 1.524 . S
C506 H518 0.956 . S
C506 H519 0.961 . S
C506 H520 0.961 . S
C507 C504 1.539 . S
C507 H521 0.958 . S
C507 H522 0.961 . S
C507 H523 0.960 . S
H508 C492 0.931 . S
H509 C497 0.929 . S
H510 C498 0.960 . S
H511 C498 0.962 . S
H512 C498 0.960 . S
H513 C499 0.961 . S
H514 C499 0.961 . S
H515 C499 0.961 . S
H516 C500 0.931 . S
H517 C505 0.930 . S
H518 C506 0.956 . S
H519 C506 0.961 . S
H520 C506 0.961 . S
H521 C507 0.958 . S
H522 C507 0.961 . S
H523 C507 0.960 . S
C524 C525 1.391 . S
C524 C526 1.394 . S
C524 H540 0.931 . S
C525 C524 1.391 . S
C525 C529 1.376 . S
C526 C524 1.394 . S
C526 C527 1.369 . S
C526 C530 1.531 . S
C527 C526 1.369 . S
C527 C528 1.410 . S
C527 C535 1.503 . S
C528 C527 1.410 . S
C528 C529 1.392 . S
C528 C531 1.511 . S
C529 C525 1.376 . S
C529 C528 1.392 . S
C529 H541 0.929 . S
C530 C526 1.531 . S
C530 H542 0.960 . S
C530 H543 0.962 . S
C530 H544 0.960 . S
C531 C528 1.511 . S
C531 H545 0.961 . S
C531 H546 0.961 . S
C531 H547 0.961 . S
C532 C533 1.370 . S
C532 C534 1.363 . S
C532 H548 0.931 . S
C533 C532 1.370 . S
C533 C537 1.408 . S
C534 C532 1.363 . S
C534 C535 1.370 . S
C534 C538 1.524 . S
C535 C527 1.503 . S
C535 C534 1.370 . S
C535 C536 1.403 . S
C536 C535 1.403 . S
C536 C537 1.404 . S
C536 C539 1.539 . S
C537 C533 1.408 . S
C537 C536 1.404 . S
C537 H549 0.930 . S
C538 C534 1.524 . S
C538 H550 0.956 . S
C538 H551 0.961 . S
C538 H552 0.961 . S
C539 C536 1.539 . S
C539 H553 0.958 . S
C539 H554 0.961 . S
C539 H555 0.960 . S
H540 C524 0.931 . S
H541 C529 0.929 . S
H542 C530 0.960 . S
H543 C530 0.962 . S
H544 C530 0.960 . S
H545 C531 0.961 . S
H546 C531 0.961 . S
H547 C531 0.961 . S
H548 C532 0.931 . S
H549 C537 0.930 . S
H550 C538 0.956 . S
H551 C538 0.961 . S
H552 C538 0.961 . S
H553 C539 0.958 . S
H554 C539 0.961 . S
H555 C539 0.960 . S
C556 C557 1.391 . S
C556 C558 1.394 . S
C556 H572 0.931 . S
C557 C556 1.391 . S
C557 C561 1.376 . S
C558 C556 1.394 . S
C558 C559 1.369 . S
C558 C562 1.531 . S
C559 C558 1.369 . S
C559 C560 1.410 . S
C559 C567 1.503 . S
C560 C559 1.410 . S
C560 C561 1.392 . S
C560 C563 1.511 . S
C561 C557 1.376 . S
C561 C560 1.392 . S
C561 H573 0.929 . S
C562 C558 1.531 . S
C562 H574 0.960 . S
C562 H575 0.962 . S
C562 H576 0.960 . S
C563 C560 1.511 . S
C563 H577 0.961 . S
C563 H578 0.961 . S
C563 H579 0.961 . S
C564 C565 1.370 . S
C564 C566 1.363 . S
C564 H580 0.931 . S
C565 C564 1.370 . S
C565 C569 1.408 . S
C566 C564 1.363 . S
C566 C567 1.370 . S
C566 C570 1.524 . S
C567 C559 1.503 . S
C567 C566 1.370 . S
C567 C568 1.403 . S
C568 C567 1.403 . S
C568 C569 1.404 . S
C568 C571 1.539 . S
C569 C565 1.408 . S
C569 C568 1.404 . S
C569 H581 0.930 . S
C570 C566 1.524 . S
C570 H582 0.956 . S
C570 H583 0.961 . S
C570 H584 0.961 . S
C571 C568 1.539 . S
C571 H585 0.958 . S
C571 H586 0.961 . S
C571 H587 0.960 . S
H572 C556 0.931 . S
H573 C561 0.929 . S
H574 C562 0.960 . S
H575 C562 0.962 . S
H576 C562 0.960 . S
H577 C563 0.961 . S
H578 C563 0.961 . S
H579 C563 0.961 . S
H580 C564 0.931 . S
H581 C569 0.930 . S
H582 C570 0.956 . S
H583 C570 0.961 . S
H584 C570 0.961 . S
H585 C571 0.958 . S
H586 C571 0.961 . S
H587 C571 0.960 . S
C588 C589 1.391 . S
C588 C590 1.394 . S
C588 H604 0.931 . S
C589 C588 1.391 . S
C589 C593 1.376 . S
C590 C588 1.394 . S
C590 C591 1.369 . S
C590 C594 1.531 . S
C591 C590 1.369 . S
C591 C592 1.410 . S
C591 C599 1.503 . S
C592 C591 1.410 . S
C592 C593 1.392 . S
C592 C595 1.511 . S
C593 C589 1.376 . S
C593 C592 1.392 . S
C593 H605 0.929 . S
C594 C590 1.531 . S
C594 H606 0.960 . S
C594 H607 0.962 . S
C594 H608 0.960 . S
C595 C592 1.511 . S
C595 H609 0.961 . S
C595 H610 0.961 . S
C595 H611 0.961 . S
C596 C597 1.370 . S
C596 C598 1.363 . S
C596 H612 0.931 . S
C597 C596 1.370 . S
C597 C601 1.408 . S
C598 C596 1.363 . S
C598 C599 1.370 . S
C598 C602 1.524 . S
C599 C591 1.503 . S
C599 C598 1.370 . S
C599 C600 1.403 . S
C600 C599 1.403 . S
C600 C601 1.404 . S
C600 C603 1.539 . S
C601 C597 1.408 . S
C601 C600 1.404 . S
C601 H613 0.930 . S
C602 C598 1.524 . S
C602 H614 0.956 . S
C602 H615 0.961 . S
C602 H616 0.961 . S
C603 C600 1.539 . S
C603 H617 0.958 . S
C603 H618 0.961 . S
C603 H619 0.960 . S
H604 C588 0.931 . S
H605 C593 0.929 . S
H606 C594 0.960 . S
H607 C594 0.962 . S
H608 C594 0.960 . S
H609 C595 0.961 . S
H610 C595 0.961 . S
H611 C595 0.961 . S
H612 C596 0.931 . S
H613 C601 0.930 . S
H614 C602 0.956 . S
H615 C602 0.961 . S
H616 C602 0.961 . S
H617 C603 0.958 . S
H618 C603 0.961 . S
H619 C603 0.960 . S
C620 C621 1.391 . S
C620 C622 1.394 . S
C620 H636 0.931 . S
C621 C620 1.391 . S
C621 C625 1.376 . S
C622 C620 1.394 . S
C622 C623 1.369 . S
C622 C626 1.531 . S
C623 C622 1.369 . S
C623 C624 1.410 . S
C623 C631 1.503 . S
C624 C623 1.410 . S
C624 C625 1.392 . S
C624 C627 1.511 . S
C625 C621 1.376 . S
C625 C624 1.392 . S
C625 H637 0.929 . S
C626 C622 1.531 . S
C626 H638 0.960 . S
C626 H639 0.962 . S
C626 H640 0.960 . S
C627 C624 1.511 . S
C627 H641 0.961 . S
C627 H642 0.961 . S
C627 H643 0.961 . S
C628 C629 1.370 . S
C628 C630 1.363 . S
C628 H644 0.931 . S
C629 C628 1.370 . S
C629 C633 1.408 . S
C630 C628 1.363 . S
C630 C631 1.370 . S
C630 C634 1.524 . S
C631 C623 1.503 . S
C631 C630 1.370 . S
C631 C632 1.403 . S
C632 C631 1.403 . S
C632 C633 1.404 . S
C632 C635 1.539 . S
C633 C629 1.408 . S
C633 C632 1.404 . S
C633 H645 0.930 . S
C634 C630 1.524 . S
C634 H646 0.956 . S
C634 H647 0.961 . S
C634 H648 0.961 . S
C635 C632 1.539 . S
C635 H649 0.958 . S
C635 H650 0.961 . S
C635 H651 0.960 . S
H636 C620 0.931 . S
H637 C625 0.929 . S
H638 C626 0.960 . S
H639 C626 0.962 . S
H640 C626 0.960 . S
H641 C627 0.961 . S
H642 C627 0.961 . S
H643 C627 0.961 . S
H644 C628 0.931 . S
H645 C633 0.930 . S
H646 C634 0.956 . S
H647 C634 0.961 . S
H648 C634 0.961 . S
H649 C635 0.958 . S
H650 C635 0.961 . S
H651 C635 0.960 . S
C652 C653 1.391 . S
C652 C654 1.394 . S
C652 H668 0.931 . S
C653 C652 1.391 . S
C653 C657 1.376 . S
C654 C652 1.394 . S
C654 C655 1.369 . S
C654 C658 1.531 . S
C655 C654 1.369 . S
C655 C656 1.410 . S
C655 C663 1.503 . S
C656 C655 1.410 . S
C656 C657 1.392 . S
C656 C659 1.511 . S
C657 C653 1.376 . S
C657 C656 1.392 . S
C657 H669 0.929 . S
C658 C654 1.531 . S
C658 H670 0.960 . S
C658 H671 0.962 . S
C658 H672 0.960 . S
C659 C656 1.511 . S
C659 H673 0.961 . S
C659 H674 0.961 . S
C659 H675 0.961 . S
C660 C661 1.370 . S
C660 C662 1.363 . S
C660 H676 0.931 . S
C661 C660 1.370 . S
C661 C665 1.408 . S
C662 C660 1.363 . S
C662 C663 1.370 . S
C662 C666 1.524 . S
C663 C655 1.503 . S
C663 C662 1.370 . S
C663 C664 1.403 . S
C664 C663 1.403 . S
C664 C665 1.404 . S
C664 C667 1.539 . S
C665 C661 1.408 . S
C665 C664 1.404 . S
C665 H677 0.930 . S
C666 C662 1.524 . S
C666 H678 0.956 . S
C666 H679 0.961 . S
C666 H680 0.961 . S
C667 C664 1.539 . S
C667 H681 0.958 . S
C667 H682 0.961 . S
C667 H683 0.960 . S
H668 C652 0.931 . S
H669 C657 0.929 . S
H670 C658 0.960 . S
H671 C658 0.962 . S
H672 C658 0.960 . S
H673 C659 0.961 . S
H674 C659 0.961 . S
H675 C659 0.961 . S
H676 C660 0.931 . S
H677 C665 0.930 . S
H678 C666 0.956 . S
H679 C666 0.961 . S
H680 C666 0.961 . S
H681 C667 0.958 . S
H682 C667 0.961 . S
H683 C667 0.960 . S
C684 C685 1.391 . S
C684 C686 1.394 . S
C684 H700 0.931 . S
C685 C684 1.391 . S
C685 C689 1.376 . S
C686 C684 1.394 . S
C686 C687 1.369 . S
C686 C690 1.531 . S
C687 C686 1.369 . S
C687 C688 1.410 . S
C687 C695 1.503 . S
C688 C687 1.410 . S
C688 C689 1.392 . S
C688 C691 1.511 . S
C689 C685 1.376 . S
C689 C688 1.392 . S
C689 H701 0.929 . S
C690 C686 1.531 . S
C690 H702 0.960 . S
C690 H703 0.962 . S
C690 H704 0.960 . S
C691 C688 1.511 . S
C691 H705 0.961 . S
C691 H706 0.961 . S
C691 H707 0.961 . S
C692 C693 1.370 . S
C692 C694 1.363 . S
C692 H708 0.931 . S
C693 C692 1.370 . S
C693 C697 1.408 . S
C694 C692 1.363 . S
C694 C695 1.370 . S
C694 C698 1.524 . S
C695 C687 1.503 . S
C695 C694 1.370 . S
C695 C696 1.403 . S
C696 C695 1.403 . S
C696 C697 1.404 . S
C696 C699 1.539 . S
C697 C693 1.408 . S
C697 C696 1.404 . S
C697 H709 0.930 . S
C698 C694 1.524 . S
C698 H710 0.956 . S
C698 H711 0.961 . S
C698 H712 0.961 . S
C699 C696 1.539 . S
C699 H713 0.958 . S
C699 H714 0.961 . S
C699 H715 0.960 . S
H700 C684 0.931 . S
H701 C689 0.929 . S
H702 C690 0.960 . S
H703 C690 0.962 . S
H704 C690 0.960 . S
H705 C691 0.961 . S
H706 C691 0.961 . S
H707 C691 0.961 . S
H708 C692 0.931 . S
H709 C697 0.930 . S
H710 C698 0.956 . S
H711 C698 0.961 . S
H712 C698 0.961 . S
H713 C699 0.958 . S
H714 C699 0.961 . S
H715 C699 0.960 . S
C716 C717 1.391 . S
C716 C718 1.394 . S
C716 H732 0.931 . S
C717 C716 1.391 . S
C717 C721 1.376 . S
C718 C716 1.394 . S
C718 C719 1.369 . S
C718 C722 1.531 . S
C719 C718 1.369 . S
C719 C720 1.410 . S
C719 C727 1.503 . S
C720 C719 1.410 . S
C720 C721 1.392 . S
C720 C723 1.511 . S
C721 C717 1.376 . S
C721 C720 1.392 . S
C721 H733 0.929 . S
C722 C718 1.531 . S
C722 H734 0.960 . S
C722 H735 0.962 . S
C722 H736 0.960 . S
C723 C720 1.511 . S
C723 H737 0.961 . S
C723 H738 0.961 . S
C723 H739 0.961 . S
C724 C725 1.370 . S
C724 C726 1.363 . S
C724 H740 0.931 . S
C725 C724 1.370 . S
C725 C729 1.408 . S
C726 C724 1.363 . S
C726 C727 1.370 . S
C726 C730 1.524 . S
C727 C719 1.503 . S
C727 C726 1.370 . S
C727 C728 1.403 . S
C728 C727 1.403 . S
C728 C729 1.404 . S
C728 C731 1.539 . S
C729 C725 1.408 . S
C729 C728 1.404 . S
C729 H741 0.930 . S
C730 C726 1.524 . S
C730 H742 0.956 . S
C730 H743 0.961 . S
C730 H744 0.961 . S
C731 C728 1.539 . S
C731 H745 0.958 . S
C731 H746 0.961 . S
C731 H747 0.960 . S
H732 C716 0.931 . S
H733 C721 0.929 . S
H734 C722 0.960 . S
H735 C722 0.962 . S
H736 C722 0.960 . S
H737 C723 0.961 . S
H738 C723 0.961 . S
H739 C723 0.961 . S
H740 C724 0.931 . S
H741 C729 0.930 . S
H742 C730 0.956 . S
H743 C730 0.961 . S
H744 C730 0.961 . S
H745 C731 0.958 . S
H746 C731 0.961 . S
H747 C731 0.960 . S
C748 C749 1.391 . S
C748 C750 1.394 . S
C748 H764 0.931 . S
C749 C748 1.391 . S
C749 C753 1.376 . S
C750 C748 1.394 . S
C750 C751 1.369 . S
C750 C754 1.531 . S
C751 C750 1.369 . S
C751 C752 1.410 . S
C751 C759 1.503 . S
C752 C751 1.410 . S
C752 C753 1.392 . S
C752 C755 1.511 . S
C753 C749 1.376 . S
C753 C752 1.392 . S
C753 H765 0.929 . S
C754 C750 1.531 . S
C754 H766 0.960 . S
C754 H767 0.962 . S
C754 H768 0.960 . S
C755 C752 1.511 . S
C755 H769 0.961 . S
C755 H770 0.961 . S
C755 H771 0.961 . S
C756 C757 1.370 . S
C756 C758 1.363 . S
C756 H772 0.931 . S
C757 C756 1.370 . S
C757 C761 1.408 . S
C758 C756 1.363 . S
C758 C759 1.370 . S
C758 C762 1.524 . S
C759 C751 1.503 . S
C759 C758 1.370 . S
C759 C760 1.403 . S
C760 C759 1.403 . S
C760 C761 1.404 . S
C760 C763 1.539 . S
C761 C757 1.408 . S
C761 C760 1.404 . S
C761 H773 0.930 . S
C762 C758 1.524 . S
C762 H774 0.956 . S
C762 H775 0.961 . S
C762 H776 0.961 . S
C763 C760 1.539 . S
C763 H777 0.958 . S
C763 H778 0.961 . S
C763 H779 0.960 . S
H764 C748 0.931 . S
H765 C753 0.929 . S
H766 C754 0.960 . S
H767 C754 0.962 . S
H768 C754 0.960 . S
H769 C755 0.961 . S
H770 C755 0.961 . S
H771 C755 0.961 . S
H772 C756 0.931 . S
H773 C761 0.930 . S
H774 C762 0.956 . S
H775 C762 0.961 . S
H776 C762 0.961 . S
H777 C763 0.958 . S
H778 C763 0.961 . S
H779 C763 0.960 . S
C780 C781 1.391 . S
C780 C782 1.394 . S
C780 H796 0.931 . S
C781 C780 1.391 . S
C781 C785 1.376 . S
C782 C780 1.394 . S
C782 C783 1.369 . S
C782 C786 1.531 1_554 S
C783 C782 1.369 . S
C783 C784 1.410 . S
C783 C791 1.503 1_554 S
C784 C783 1.410 . S
C784 C785 1.392 . S
C784 C787 1.511 . S
C785 C781 1.376 . S
C785 C784 1.392 . S
C785 H797 0.929 . S
C786 C782 1.531 1_556 S
C786 H798 0.960 . S
C786 H799 0.962 . S
C786 H800 0.960 . S
C787 C784 1.511 . S
C787 H801 0.961 . S
C787 H802 0.961 . S
C787 H803 0.961 . S
C788 C789 1.370 . S
C788 C790 1.363 1_565 S
C788 H804 0.931 . S
C789 C788 1.370 . S
C789 C793 1.408 1_565 S
C790 C788 1.363 1_545 S
C790 C791 1.370 . S
C790 C794 1.524 1_556 S
C791 C783 1.503 1_556 S
C791 C790 1.370 . S
C791 C792 1.403 . S
C792 C791 1.403 . S
C792 C793 1.404 . S
C792 C795 1.539 . S
C793 C789 1.408 1_545 S
C793 C792 1.404 . S
C793 H805 0.930 . S
C794 C790 1.524 1_554 S
C794 H806 0.956 1_554 S
C794 H807 0.961 . S
C794 H808 0.961 1_554 S
C795 C792 1.539 . S
C795 H809 0.958 . S
C795 H810 0.961 . S
C795 H811 0.960 1_556 S
H796 C780 0.931 . S
H797 C785 0.929 . S
H798 C786 0.960 . S
H799 C786 0.962 . S
H800 C786 0.960 . S
H801 C787 0.961 . S
H802 C787 0.961 . S
H803 C787 0.961 . S
H804 C788 0.931 . S
H805 C793 0.930 . S
H806 C794 0.956 1_556 S
H807 C794 0.961 . S
H808 C794 0.961 1_556 S
H809 C795 0.958 . S
H810 C795 0.961 . S
H811 C795 0.960 1_554 S
C812 C813 1.391 . S
C812 C814 1.394 . S
C812 H828 0.931 . S
C813 C812 1.391 . S
C813 C817 1.376 . S
C814 C812 1.394 . S
C814 C815 1.369 . S
C814 C818 1.531 . S
C815 C814 1.369 . S
C815 C816 1.410 . S
C815 C823 1.503 1_554 S
C816 C815 1.410 . S
C816 C817 1.392 . S
C816 C819 1.511 1_554 S
C817 C813 1.376 . S
C817 C816 1.392 . S
C817 H829 0.929 . S
C818 C814 1.531 . S
C818 H830 0.960 . S
C818 H831 0.962 . S
C818 H832 0.960 . S
C819 C816 1.511 1_556 S
C819 H833 0.961 . S
C819 H834 0.961 . S
C819 H835 0.961 . S
C820 C821 1.370 . S
C820 C822 1.363 1_455 S
C820 H836 0.931 . S
C821 C820 1.370 . S
C821 C825 1.408 1_455 S
C822 C820 1.363 1_655 S
C822 C823 1.370 . S
C822 C826 1.524 1_556 S
C823 C815 1.503 1_556 S
C823 C822 1.370 . S
C823 C824 1.403 . S
C824 C823 1.403 . S
C824 C825 1.404 . S
C824 C827 1.539 . S
C825 C821 1.408 1_655 S
C825 C824 1.404 . S
C825 H837 0.930 . S
C826 C822 1.524 1_554 S
C826 H838 0.956 . S
C826 H839 0.961 . S
C826 H840 0.953 1_655 S
C827 C824 1.539 . S
C827 H841 0.958 . S
C827 H842 0.961 . S
C827 H843 0.960 . S
H828 C812 0.931 . S
H829 C817 0.929 . S
H830 C818 0.960 . S
H831 C818 0.962 . S
H832 C818 0.960 . S
H833 C819 0.961 . S
H834 C819 0.961 . S
H835 C819 0.961 . S
H836 C820 0.931 . S
H837 C825 0.930 . S
H838 C826 0.956 . S
H839 C826 0.961 . S
H840 C826 0.953 1_455 S
H841 C827 0.958 . S
H842 C827 0.961 . S
H843 C827 0.960 . S
C844 C845 1.391 . S
C844 C846 1.394 . S
C844 H860 0.931 . S
C845 C844 1.391 . S
C845 C849 1.376 . S
C846 C844 1.394 . S
C846 C847 1.369 . S
C846 C850 1.531 1_554 S
C847 C846 1.369 . S
C847 C848 1.410 . S
C847 C855 1.503 1_554 S
C848 C847 1.410 . S
C848 C849 1.392 . S
C848 C851 1.511 . S
C849 C845 1.376 . S
C849 C848 1.392 . S
C849 H861 0.929 . S
C850 C846 1.531 1_556 S
C850 H862 0.960 . S
C850 H863 0.969 . S
C850 H864 0.960 . S
C851 C848 1.511 . S
C851 H865 0.961 . S
C851 H866 0.961 . S
C851 H867 0.961 . S
C852 C853 1.370 . S
C852 C854 1.363 . S
C852 H868 0.931 . S
C853 C852 1.370 . S
C853 C857 1.408 . S
C854 C852 1.363 . S
C854 C855 1.370 . S
C854 C858 1.524 1_556 S
C855 C847 1.503 1_556 S
C855 C854 1.370 . S
C855 C856 1.403 . S
C856 C855 1.403 . S
C856 C857 1.404 . S
C856 C859 1.539 . S
C857 C853 1.408 . S
C857 C856 1.404 . S
C857 H869 0.930 . S
C858 C854 1.524 1_554 S
C858 H870 0.956 . S
C858 H871 0.961 . S
C858 H872 0.961 . S
C859 C856 1.539 . S
C859 H873 0.958 . S
C859 H874 0.961 . S
C859 H875 0.960 . S
H860 C844 0.931 . S
H861 C849 0.929 . S
H862 C850 0.960 . S
H863 C850 0.969 . S
H864 C850 0.960 . S
H865 C851 0.961 . S
H866 C851 0.961 . S
H867 C851 0.961 . S
H868 C852 0.931 . S
H869 C857 0.930 . S
H870 C858 0.956 . S
H871 C858 0.961 . S
H872 C858 0.961 . S
H873 C859 0.958 . S
H874 C859 0.961 . S
H875 C859 0.960 . S
C876 C877 1.391 . S
C876 C878 1.394 1_655 S
C876 H892 0.931 . S
C877 C876 1.391 . S
C877 C881 1.376 1_655 S
C878 C876 1.394 1_455 S
C878 C879 1.369 . S
C878 C882 1.531 . S
C879 C878 1.369 . S
C879 C880 1.410 . S
C879 C887 1.503 . S
C880 C879 1.410 . S
C880 C881 1.392 . S
C880 C883 1.511 . S
C881 C877 1.376 1_455 S
C881 C880 1.392 . S
C881 H893 0.929 . S
C882 C878 1.531 . S
C882 H894 0.960 . S
C882 H895 0.962 . S
C882 H896 0.960 1_455 S
C883 C880 1.511 . S
C883 H897 0.961 . S
C883 H898 0.961 . S
C883 H899 0.961 . S
C884 C885 1.370 . S
C884 C886 1.363 . S
C884 H900 0.931 . S
C885 C884 1.370 . S
C885 C889 1.408 . S
C886 C884 1.363 . S
C886 C887 1.370 . S
C886 C890 1.524 . S
C887 C879 1.503 . S
C887 C886 1.370 . S
C887 C888 1.403 . S
C888 C887 1.403 . S
C888 C889 1.404 . S
C888 C891 1.539 . S
C889 C885 1.408 . S
C889 C888 1.404 . S
C889 H901 0.930 . S
C890 C886 1.524 . S
C890 H902 0.956 . S
C890 H903 0.961 . S
C890 H904 0.961 . S
C891 C888 1.539 . S
C891 H905 0.958 . S
C891 H906 0.961 . S
C891 H907 0.960 . S
H892 C876 0.931 . S
H893 C881 0.929 . S
H894 C882 0.960 . S
H895 C882 0.962 . S
H896 C882 0.960 1_655 S
H897 C883 0.961 . S
H898 C883 0.961 . S
H899 C883 0.961 . S
H900 C884 0.931 . S
H901 C889 0.930 . S
H902 C890 0.956 . S
H903 C890 0.961 . S
H904 C890 0.961 . S
H905 C891 0.958 . S
H906 C891 0.961 . S
H907 C891 0.960 . S
C908 C909 1.391 . S
C908 C910 1.394 . S
C908 H924 0.931 . S
C909 C908 1.391 . S
C909 C913 1.376 . S
C910 C908 1.394 . S
C910 C911 1.369 . S
C910 C914 1.531 . S
C911 C910 1.369 . S
C911 C912 1.410 . S
C911 C919 1.503 . S
C912 C911 1.410 . S
C912 C913 1.392 . S
C912 C915 1.511 . S
C913 C909 1.376 . S
C913 C912 1.392 . S
C913 H925 0.929 . S
C914 C910 1.531 . S
C914 H926 0.960 . S
C914 H927 0.962 . S
C914 H928 0.960 . S
C915 C912 1.511 . S
C915 H929 0.961 . S
C915 H930 0.961 . S
C915 H931 0.961 . S
C916 C917 1.370 . S
C916 C918 1.363 . S
C916 H932 0.931 . S
C917 C916 1.370 . S
C917 C921 1.408 . S
C918 C916 1.363 . S
C918 C919 1.370 . S
C918 C922 1.524 . S
C919 C911 1.503 . S
C919 C918 1.370 . S
C919 C920 1.403 . S
C920 C919 1.403 . S
C920 C921 1.404 . S
C920 C923 1.539 . S
C921 C917 1.408 . S
C921 C920 1.404 . S
C921 H933 0.930 . S
C922 C918 1.524 . S
C922 H934 0.956 . S
C922 H935 0.961 . S
C922 H936 0.961 . S
C923 C920 1.539 . S
C923 H937 0.958 . S
C923 H938 0.961 . S
C923 H939 0.960 . S
H924 C908 0.931 . S
H925 C913 0.929 . S
H926 C914 0.960 . S
H927 C914 0.962 . S
H928 C914 0.960 . S
H929 C915 0.961 . S
H930 C915 0.961 . S
H931 C915 0.961 . S
H932 C916 0.931 . S
H933 C921 0.930 . S
H934 C922 0.956 . S
H935 C922 0.961 . S
H936 C922 0.961 . S
H937 C923 0.958 . S
H938 C923 0.961 . S
H939 C923 0.960 . S
C940 C941 1.391 1_565 S
C940 C942 1.394 . S
C940 H956 0.931 . S
C941 C940 1.391 1_545 S
C941 C945 1.376 . S
C942 C940 1.394 . S
C942 C943 1.369 . S
C942 C946 1.531 . S
C943 C942 1.369 . S
C943 C944 1.410 . S
C943 C951 1.503 . S
C944 C943 1.410 . S
C944 C945 1.392 1_565 S
C944 C947 1.511 . S
C945 C941 1.376 . S
C945 C944 1.392 1_545 S
C945 H957 0.929 . S
C946 C942 1.531 . S
C946 H958 0.960 . S
C946 H959 0.962 . S
C946 H960 0.960 . S
C947 C944 1.511 . S
C947 H961 0.961 1_565 S
C947 H962 0.961 . S
C947 H963 0.961 . S
C948 C949 1.370 . S
C948 C950 1.363 . S
C948 H964 0.931 . S
C949 C948 1.370 . S
C949 C953 1.408 . S
C950 C948 1.363 . S
C950 C951 1.370 . S
C950 C954 1.524 . S
C951 C943 1.503 . S
C951 C950 1.370 . S
C951 C952 1.403 . S
C952 C951 1.403 . S
C952 C953 1.404 . S
C952 C955 1.539 . S
C953 C949 1.408 . S
C953 C952 1.404 . S
C953 H965 0.930 . S
C954 C950 1.524 . S
C954 H966 0.956 . S
C954 H967 0.961 . S
C954 H968 0.961 . S
C955 C952 1.539 . S
C955 H969 0.958 . S
C955 H970 0.961 . S
C955 H971 0.960 . S
H956 C940 0.931 . S
H957 C945 0.929 . S
H958 C946 0.960 . S
H959 C946 0.962 . S
H960 C946 0.960 . S
H961 C947 0.961 1_545 S
H962 C947 0.961 . S
H963 C947 0.961 . S
H964 C948 0.931 . S
H965 C953 0.930 . S
H966 C954 0.956 . S
H967 C954 0.961 . S
H968 C954 0.961 . S
H969 C955 0.958 . S
H970 C955 0.961 . S
H971 C955 0.960 . S
C972 C973 1.391 . S
C972 C974 1.394 1_545 S
C972 H988 0.931 . S
C973 C972 1.391 . S
C973 C977 1.381 . S
C974 C972 1.394 1_565 S
C974 C975 1.369 . S
C974 C978 1.531 1_554 S
C975 C974 1.369 . S
C975 C976 1.410 . S
C975 C983 1.503 1_554 S
C976 C975 1.410 . S
C976 C977 1.388 1_565 S
C976 C979 1.511 . S
C977 C973 1.381 . S
C977 C976 1.388 1_545 S
C977 H989 0.928 . S
C978 C974 1.531 1_556 S
C978 H990 0.960 . S
C978 H991 0.961 . S
C978 H992 0.960 . S
C979 C976 1.511 . S
C979 H993 0.961 . S
C979 H994 0.961 . S
C979 H995 0.938 1_554 S
C980 C981 1.370 . S
C980 C982 1.363 . S
C980 H996 0.931 . S
C981 C980 1.370 . S
C981 C985 1.408 . S
C982 C980 1.363 . S
C982 C983 1.370 . S
C982 C986 1.524 1_556 S
C983 C975 1.503 1_556 S
C983 C982 1.370 . S
C983 C984 1.403 . S
C984 C983 1.403 . S
C984 C985 1.404 . S
C984 C987 1.539 . S
C985 C981 1.408 . S
C985 C984 1.404 . S
C985 H997 0.930 . S
C986 C982 1.524 1_554 S
C986 H998 0.956 . S
C986 H999 0.961 . S
C986 H1000 0.961 . S
C987 C984 1.539 . S
C987 H1001 0.958 . S
C987 H1002 0.961 . S
C987 H1003 0.960 . S
H988 C972 0.931 . S
H989 C977 0.928 . S
H990 C978 0.960 . S
H991 C978 0.961 . S
H992 C978 0.960 . S
H993 C979 0.961 . S
H994 C979 0.961 . S
H995 C979 0.938 1_556 S
H996 C980 0.931 . S
H997 C985 0.930 . S
H998 C986 0.956 . S
H999 C986 0.961 . S
H1000 C986 0.961 . S
H1001 C987 0.958 . S
H1002 C987 0.961 . S
H1003 C987 0.960 . S
C1004 C1005 1.391 . S
C1004 C1006 1.394 1_655 S
C1004 H1020 0.931 . S
C1005 C1004 1.391 . S
C1005 C1009 1.376 1_655 S
C1006 C1004 1.394 1_455 S
C1006 C1007 1.369 . S
C1006 C1010 1.531 1_554 S
C1007 C1006 1.369 . S
C1007 C1008 1.410 . S
C1007 C1015 1.503 1_554 S
C1008 C1007 1.410 . S
C1008 C1009 1.392 . S
C1008 C1011 1.511 . S
C1009 C1005 1.376 1_455 S
C1009 C1008 1.392 . S
C1009 H1021 0.929 1_455 S
C1010 C1006 1.531 1_556 S
C1010 H1022 0.960 . S
C1010 H1023 0.962 . S
C1010 H1024 0.960 . S
C1011 C1008 1.511 . S
C1011 H1025 0.961 . S
C1011 H1026 0.961 . S
C1011 H1027 0.961 . S
C1012 C1013 1.370 . S
C1012 C1014 1.363 . S
C1012 H1028 0.931 . S
C1013 C1012 1.370 . S
C1013 C1017 1.408 . S
C1014 C1012 1.363 . S
C1014 C1015 1.370 . S
C1014 C1018 1.524 1_556 S
C1015 C1007 1.503 1_556 S
C1015 C1014 1.370 . S
C1015 C1016 1.403 . S
C1016 C1015 1.403 . S
C1016 C1017 1.404 . S
C1016 C1019 1.539 . S
C1017 C1013 1.408 . S
C1017 C1016 1.404 . S
C1017 H1029 0.930 . S
C1018 C1014 1.524 1_554 S
C1018 H1030 0.956 . S
C1018 H1031 0.961 . S
C1018 H1032 0.961 . S
C1019 C1016 1.539 . S
C1019 H1033 0.958 . S
C1019 H1034 0.961 . S
C1019 H1035 0.960 . S
H1020 C1004 0.931 . S
H1021 C1009 0.929 1_655 S
H1022 C1010 0.960 . S
H1023 C1010 0.962 . S
H1024 C1010 0.960 . S
H1025 C1011 0.961 . S
H1026 C1011 0.961 . S
H1027 C1011 0.961 . S
H1028 C1012 0.931 . S
H1029 C1017 0.930 . S
H1030 C1018 0.956 . S
H1031 C1018 0.961 . S
H1032 C1018 0.961 . S
H1033 C1019 0.958 . S
H1034 C1019 0.961 . S
H1035 C1019 0.960 . S
C1036 C1037 1.391 . S
C1036 C1038 1.394 . S
C1036 H1052 0.931 . S
C1037 C1036 1.391 . S
C1037 C1041 1.376 . S
C1038 C1036 1.394 . S
C1038 C1039 1.369 . S
C1038 C1042 1.531 1_556 S
C1039 C1038 1.369 . S
C1039 C1040 1.410 . S
C1039 C1047 1.503 1_556 S
C1040 C1039 1.410 . S
C1040 C1041 1.392 . S
C1040 C1043 1.511 . S
C1041 C1037 1.376 . S
C1041 C1040 1.392 . S
C1041 H1053 0.929 . S
C1042 C1038 1.531 1_554 S
C1042 H1054 0.960 . S
C1042 H1055 0.962 . S
C1042 H1056 0.960 . S
C1043 C1040 1.511 . S
C1043 H1057 0.961 . S
C1043 H1058 0.961 . S
C1043 H1059 0.961 . S
C1044 C1045 1.370 . S
C1044 C1046 1.363 . S
C1044 H1060 0.931 . S
C1045 C1044 1.370 . S
C1045 C1049 1.408 . S
C1046 C1044 1.363 . S
C1046 C1047 1.370 . S
C1046 C1050 1.524 . S
C1047 C1039 1.503 1_554 S
C1047 C1046 1.370 . S
C1047 C1048 1.403 . S
C1048 C1047 1.403 . S
C1048 C1049 1.404 . S
C1048 C1051 1.539 1_554 S
C1049 C1045 1.408 . S
C1049 C1048 1.404 . S
C1049 H1061 0.930 . S
C1050 C1046 1.524 . S
C1050 H1062 0.956 . S
C1050 H1063 0.981 . S
C1050 H1064 0.961 . S
C1051 C1048 1.539 1_556 S
C1051 H1065 0.958 . S
C1051 H1066 0.961 . S
C1051 H1067 0.960 . S
H1052 C1036 0.931 . S
H1053 C1041 0.929 . S
H1054 C1042 0.960 . S
H1055 C1042 0.962 . S
H1056 C1042 0.960 . S
H1057 C1043 0.961 . S
H1058 C1043 0.961 . S
H1059 C1043 0.961 . S
H1060 C1044 0.931 . S
H1061 C1049 0.930 . S
H1062 C1050 0.956 . S
H1063 C1050 0.981 . S
H1064 C1050 0.961 . S
H1065 C1051 0.958 . S
H1066 C1051 0.961 . S
H1067 C1051 0.960 . S
C1068 C1069 1.391 1_655 S
C1068 C1070 1.394 . S
C1068 H1084 0.931 . S
C1069 C1068 1.391 1_455 S
C1069 C1073 1.376 . S
C1070 C1068 1.394 . S
C1070 C1071 1.369 . S
C1070 C1074 1.531 . S
C1071 C1070 1.369 . S
C1071 C1072 1.410 . S
C1071 C1079 1.503 . S
C1072 C1071 1.410 . S
C1072 C1073 1.392 1_655 S
C1072 C1075 1.511 1_655 S
C1073 C1069 1.376 . S
C1073 C1072 1.392 1_455 S
C1073 H1085 0.929 . S
C1074 C1070 1.531 . S
C1074 H1086 0.960 . S
C1074 H1087 0.962 . S
C1074 H1088 0.960 . S
C1075 C1072 1.511 1_455 S
C1075 H1089 0.961 . S
C1075 H1090 0.961 1_455 S
C1075 H1091 0.961 . S
C1076 C1077 1.370 . S
C1076 C1078 1.363 . S
C1076 H1092 0.931 . S
C1077 C1076 1.370 . S
C1077 C1081 1.408 . S
C1078 C1076 1.363 . S
C1078 C1079 1.370 . S
C1078 C1082 1.524 . S
C1079 C1071 1.503 . S
C1079 C1078 1.370 . S
C1079 C1080 1.403 . S
C1080 C1079 1.403 . S
C1080 C1081 1.404 . S
C1080 C1083 1.539 . S
C1081 C1077 1.408 . S
C1081 C1080 1.404 . S
C1081 H1093 0.930 . S
C1082 C1078 1.524 . S
C1082 H1094 0.956 . S
C1082 H1095 0.961 . S
C1082 H1096 0.961 . S
C1083 C1080 1.539 . S
C1083 H1097 0.958 . S
C1083 H1098 0.961 . S
C1083 H1099 0.960 . S
H1084 C1068 0.931 . S
H1085 C1073 0.929 . S
H1086 C1074 0.960 . S
H1087 C1074 0.962 . S
H1088 C1074 0.960 . S
H1089 C1075 0.961 . S
H1090 C1075 0.961 1_655 S
H1091 C1075 0.961 . S
H1092 C1076 0.931 . S
H1093 C1081 0.930 . S
H1094 C1082 0.956 . S
H1095 C1082 0.961 . S
H1096 C1082 0.961 . S
H1097 C1083 0.958 . S
H1098 C1083 0.961 . S
H1099 C1083 0.960 . S
C1100 C1101 1.391 . S
C1100 C1102 1.394 . S
C1100 H1116 0.931 . S
C1101 C1100 1.391 . S
C1101 C1105 1.376 . S
C1102 C1100 1.394 . S
C1102 C1103 1.369 . S
C1102 C1106 1.531 . S
C1103 C1102 1.369 . S
C1103 C1104 1.410 . S
C1103 C1111 1.503 . S
C1104 C1103 1.410 . S
C1104 C1105 1.392 . S
C1104 C1107 1.511 . S
C1105 C1101 1.376 . S
C1105 C1104 1.392 . S
C1105 H1117 0.929 . S
C1106 C1102 1.531 . S
C1106 H1118 0.960 . S
C1106 H1119 0.962 . S
C1106 H1120 0.960 . S
C1107 C1104 1.511 . S
C1107 H1121 0.961 . S
C1107 H1122 0.961 . S
C1107 H1123 0.961 . S
C1108 C1109 1.370 . S
C1108 C1110 1.363 . S
C1108 H1124 0.931 . S
C1109 C1108 1.370 . S
C1109 C1113 1.408 . S
C1110 C1108 1.363 . S
C1110 C1111 1.370 . S
C1110 C1114 1.524 . S
C1111 C1103 1.503 . S
C1111 C1110 1.370 . S
C1111 C1112 1.403 . S
C1112 C1111 1.403 . S
C1112 C1113 1.404 . S
C1112 C1115 1.539 . S
C1113 C1109 1.408 . S
C1113 C1112 1.404 . S
C1113 H1125 0.930 . S
C1114 C1110 1.524 . S
C1114 H1126 0.956 . S
C1114 H1127 0.961 . S
C1114 H1128 0.961 . S
C1115 C1112 1.539 . S
C1115 H1129 0.958 . S
C1115 H1130 0.961 . S
C1115 H1131 0.960 . S
H1116 C1100 0.931 . S
H1117 C1105 0.929 . S
H1118 C1106 0.960 . S
H1119 C1106 0.962 . S
H1120 C1106 0.960 . S
H1121 C1107 0.961 . S
H1122 C1107 0.961 . S
H1123 C1107 0.961 . S
H1124 C1108 0.931 . S
H1125 C1113 0.930 . S
H1126 C1114 0.956 . S
H1127 C1114 0.961 . S
H1128 C1114 0.961 . S
H1129 C1115 0.958 . S
H1130 C1115 0.961 . S
H1131 C1115 0.960 . S
C1132 C1133 1.391 . S
C1132 C1134 1.394 . S
C1132 H1148 0.931 . S
C1133 C1132 1.391 . S
C1133 C1137 1.376 . S
C1134 C1132 1.394 . S
C1134 C1135 1.369 . S
C1134 C1138 1.531 . S
C1135 C1134 1.369 . S
C1135 C1136 1.410 . S
C1135 C1143 1.503 . S
C1136 C1135 1.410 . S
C1136 C1137 1.392 . S
C1136 C1139 1.511 . S
C1137 C1133 1.376 . S
C1137 C1136 1.392 . S
C1137 H1149 0.929 . S
C1138 C1134 1.531 . S
C1138 H1150 0.960 . S
C1138 H1151 0.962 . S
C1138 H1152 0.960 . S
C1139 C1136 1.511 . S
C1139 H1153 0.961 . S
C1139 H1154 0.961 . S
C1139 H1155 0.961 . S
C1140 C1141 1.370 1_545 S
C1140 C1142 1.363 . S
C1140 H1156 0.931 . S
C1141 C1140 1.370 1_565 S
C1141 C1145 1.408 . S
C1142 C1140 1.363 . S
C1142 C1143 1.370 . S
C1142 C1146 1.524 . S
C1143 C1135 1.503 . S
C1143 C1142 1.370 . S
C1143 C1144 1.403 . S
C1144 C1143 1.403 . S
C1144 C1145 1.404 1_545 S
C1144 C1147 1.539 . S
C1145 C1141 1.408 . S
C1145 C1144 1.404 1_565 S
C1145 H1157 0.930 . S
C1146 C1142 1.524 . S
C1146 H1158 0.956 . S
C1146 H1159 0.961 . S
C1146 H1160 0.961 . S
C1147 C1144 1.539 . S
C1147 H1161 0.958 1_545 S
C1147 H1162 0.961 1_545 S
C1147 H1163 0.960 . S
H1148 C1132 0.931 . S
H1149 C1137 0.929 . S
H1150 C1138 0.960 . S
H1151 C1138 0.962 . S
H1152 C1138 0.960 . S
H1153 C1139 0.961 . S
H1154 C1139 0.961 . S
H1155 C1139 0.961 . S
H1156 C1140 0.931 . S
H1157 C1145 0.930 . S
H1158 C1146 0.956 . S
H1159 C1146 0.961 . S
H1160 C1146 0.961 . S
H1161 C1147 0.958 1_565 S
H1162 C1147 0.961 1_565 S
H1163 C1147 0.960 . S
C1164 C1165 1.391 . S
C1164 C1166 1.394 . S
C1164 H1180 0.931 . S
C1165 C1164 1.391 . S
C1165 C1169 1.376 . S
C1166 C1164 1.394 . S
C1166 C1167 1.369 . S
C1166 C1170 1.531 . S
C1167 C1166 1.369 . S
C1167 C1168 1.410 . S
C1167 C1175 1.503 . S
C1168 C1167 1.410 . S
C1168 C1169 1.392 . S
C1168 C1171 1.511 . S
C1169 C1165 1.376 . S
C1169 C1168 1.392 . S
C1169 H1181 0.929 . S
C1170 C1166 1.531 . S
C1170 H1182 0.960 . S
C1170 H1183 0.962 . S
C1170 H1184 0.960 . S
C1171 C1168 1.511 . S
C1171 H1185 0.961 . S
C1171 H1186 0.961 . S
C1171 H1187 0.961 . S
C1172 C1173 1.370 . S
C1172 C1174 1.363 . S
C1172 H1188 0.931 . S
C1173 C1172 1.370 . S
C1173 C1177 1.408 . S
C1174 C1172 1.363 . S
C1174 C1175 1.370 . S
C1174 C1178 1.524 . S
C1175 C1167 1.503 . S
C1175 C1174 1.370 . S
C1175 C1176 1.403 . S
C1176 C1175 1.403 . S
C1176 C1177 1.404 . S
C1176 C1179 1.539 . S
C1177 C1173 1.408 . S
C1177 C1176 1.404 . S
C1177 H1189 0.930 . S
C1178 C1174 1.524 . S
C1178 H1190 0.956 . S
C1178 H1191 0.961 . S
C1178 H1192 0.961 . S
C1179 C1176 1.539 . S
C1179 H1193 0.958 . S
C1179 H1194 0.961 . S
C1179 H1195 0.960 . S
H1180 C1164 0.931 . S
H1181 C1169 0.929 . S
H1182 C1170 0.960 . S
H1183 C1170 0.962 . S
H1184 C1170 0.960 . S
H1185 C1171 0.961 . S
H1186 C1171 0.961 . S
H1187 C1171 0.961 . S
H1188 C1172 0.931 . S
H1189 C1177 0.930 . S
H1190 C1178 0.956 . S
H1191 C1178 0.961 . S
H1192 C1178 0.961 . S
H1193 C1179 0.958 . S
H1194 C1179 0.961 . S
H1195 C1179 0.960 . S
C1196 C1197 1.391 . S
C1196 C1198 1.394 . S
C1196 H1212 0.931 . S
C1197 C1196 1.391 . S
C1197 C1201 1.376 . S
C1198 C1196 1.394 . S
C1198 C1199 1.369 . S
C1198 C1202 1.531 1_545 S
C1199 C1198 1.369 . S
C1199 C1200 1.410 . S
C1199 C1207 1.503 1_545 S
C1200 C1199 1.410 . S
C1200 C1201 1.392 . S
C1200 C1203 1.511 . S
C1201 C1197 1.376 . S
C1201 C1200 1.392 . S
C1201 H1213 0.929 . S
C1202 C1198 1.531 1_565 S
C1202 H1214 0.960 . S
C1202 H1215 0.962 . S
C1202 H1216 0.960 . S
C1203 C1200 1.511 . S
C1203 H1217 0.961 . S
C1203 H1218 0.961 . S
C1203 H1219 0.961 . S
C1204 C1205 1.370 . S
C1204 C1206 1.363 . S
C1204 H1220 0.931 . S
C1205 C1204 1.370 . S
C1205 C1209 1.408 . S
C1206 C1204 1.363 . S
C1206 C1207 1.370 . S
C1206 C1210 1.524 1_565 S
C1207 C1199 1.503 1_565 S
C1207 C1206 1.370 . S
C1207 C1208 1.403 . S
C1208 C1207 1.403 . S
C1208 C1209 1.404 . S
C1208 C1211 1.539 . S
C1209 C1205 1.408 . S
C1209 C1208 1.404 . S
C1209 H1221 0.930 . S
C1210 C1206 1.524 1_545 S
C1210 H1222 0.956 . S
C1210 H1223 0.961 . S
C1210 H1224 0.961 . S
C1211 C1208 1.539 . S
C1211 H1225 0.958 . S
C1211 H1226 0.961 . S
C1211 H1227 0.960 . S
H1212 C1196 0.931 . S
H1213 C1201 0.929 . S
H1214 C1202 0.960 . S
H1215 C1202 0.962 . S
H1216 C1202 0.960 . S
H1217 C1203 0.961 . S
H1218 C1203 0.961 . S
H1219 C1203 0.961 . S
H1220 C1204 0.931 . S
H1221 C1209 0.930 . S
H1222 C1210 0.956 . S
H1223 C1210 0.961 . S
H1224 C1210 0.961 . S
H1225 C1211 0.958 . S
H1226 C1211 0.961 . S
H1227 C1211 0.960 . S
C1228 C1229 1.391 . S
C1228 C1230 1.394 . S
C1228 H1244 0.931 . S
C1229 C1228 1.391 . S
C1229 C1233 1.376 . S
C1230 C1228 1.394 . S
C1230 C1231 1.369 . S
C1230 C1234 1.531 1_655 S
C1231 C1230 1.369 . S
C1231 C1232 1.410 . S
C1231 C1239 1.503 1_655 S
C1232 C1231 1.410 . S
C1232 C1233 1.392 . S
C1232 C1235 1.511 . S
C1233 C1229 1.376 . S
C1233 C1232 1.392 . S
C1233 H1245 0.929 . S
C1234 C1230 1.531 1_455 S
C1234 H1246 0.960 . S
C1234 H1247 0.962 . S
C1234 H1248 0.960 . S
C1235 C1232 1.511 . S
C1235 H1249 0.961 . S
C1235 H1250 0.961 . S
C1235 H1251 0.961 . S
C1236 C1237 1.370 . S
C1236 C1238 1.363 . S
C1236 H1252 0.931 . S
C1237 C1236 1.370 . S
C1237 C1241 1.408 . S
C1238 C1236 1.363 . S
C1238 C1239 1.370 . S
C1238 C1242 1.524 . S
C1239 C1231 1.503 1_455 S
C1239 C1238 1.370 . S
C1239 C1240 1.403 . S
C1240 C1239 1.403 . S
C1240 C1241 1.404 . S
C1240 C1243 1.539 1_455 S
C1241 C1237 1.408 . S
C1241 C1240 1.404 . S
C1241 H1253 0.930 . S
C1242 C1238 1.524 . S
C1242 H1254 0.956 . S
C1242 H1255 0.943 1_455 S
C1242 H1256 0.961 . S
C1243 C1240 1.539 1_655 S
C1243 H1257 0.958 1_655 S
C1243 H1258 0.961 . S
C1243 H1259 0.960 . S
H1244 C1228 0.931 . S
H1245 C1233 0.929 . S
H1246 C1234 0.960 . S
H1247 C1234 0.962 . S
H1248 C1234 0.960 . S
H1249 C1235 0.961 . S
H1250 C1235 0.961 . S
H1251 C1235 0.961 . S
H1252 C1236 0.931 . S
H1253 C1241 0.930 . S
H1254 C1242 0.956 . S
H1255 C1242 0.943 1_655 S
H1256 C1242 0.961 . S
H1257 C1243 0.958 1_455 S
H1258 C1243 0.961 . S
H1259 C1243 0.960 . S
C1260 C1261 1.391 . S
C1260 C1262 1.394 . S
C1260 H1276 0.931 . S
C1261 C1260 1.391 . S
C1261 C1265 1.376 . S
C1262 C1260 1.394 . S
C1262 C1263 1.369 . S
C1262 C1266 1.531 . S
C1263 C1262 1.369 . S
C1263 C1264 1.410 . S
C1263 C1271 1.503 . S
C1264 C1263 1.410 . S
C1264 C1265 1.392 . S
C1264 C1267 1.511 . S
C1265 C1261 1.376 . S
C1265 C1264 1.392 . S
C1265 H1277 0.929 . S
C1266 C1262 1.531 . S
C1266 H1278 0.960 . S
C1266 H1279 0.962 . S
C1266 H1280 0.960 . S
C1267 C1264 1.511 . S
C1267 H1281 0.961 . S
C1267 H1282 0.961 . S
C1267 H1283 0.961 . S
C1268 C1269 1.370 . S
C1268 C1270 1.363 . S
C1268 H1284 0.931 . S
C1269 C1268 1.370 . S
C1269 C1273 1.408 . S
C1270 C1268 1.363 . S
C1270 C1271 1.370 . S
C1270 C1274 1.524 . S
C1271 C1263 1.503 . S
C1271 C1270 1.370 . S
C1271 C1272 1.403 . S
C1272 C1271 1.403 . S
C1272 C1273 1.404 . S
C1272 C1275 1.539 . S
C1273 C1269 1.408 . S
C1273 C1272 1.404 . S
C1273 H1285 0.930 . S
C1274 C1270 1.524 . S
C1274 H1286 0.956 . S
C1274 H1287 0.961 . S
C1274 H1288 0.961 . S
C1275 C1272 1.539 . S
C1275 H1289 0.958 . S
C1275 H1290 0.961 . S
C1275 H1291 0.960 . S
H1276 C1260 0.931 . S
H1277 C1265 0.929 . S
H1278 C1266 0.960 . S
H1279 C1266 0.962 . S
H1280 C1266 0.960 . S
H1281 C1267 0.961 . S
H1282 C1267 0.961 . S
H1283 C1267 0.961 . S
H1284 C1268 0.931 . S
H1285 C1273 0.930 . S
H1286 C1274 0.956 . S
H1287 C1274 0.961 . S
H1288 C1274 0.961 . S
H1289 C1275 0.958 . S
H1290 C1275 0.961 . S
H1291 C1275 0.960 . S
C1292 C1293 1.391 . S
C1292 C1294 1.394 . S
C1292 H1308 0.931 . S
C1293 C1292 1.391 . S
C1293 C1297 1.376 . S
C1294 C1292 1.394 . S
C1294 C1295 1.369 . S
C1294 C1298 1.531 1_565 S
C1295 C1294 1.369 . S
C1295 C1296 1.410 . S
C1295 C1303 1.503 1_565 S
C1296 C1295 1.410 . S
C1296 C1297 1.392 . S
C1296 C1299 1.511 . S
C1297 C1293 1.376 . S
C1297 C1296 1.392 . S
C1297 H1309 0.929 . S
C1298 C1294 1.531 1_545 S
C1298 H1310 0.960 . S
C1298 H1311 0.962 . S
C1298 H1312 0.960 . S
C1299 C1296 1.511 . S
C1299 H1313 0.961 . S
C1299 H1314 0.961 . S
C1299 H1315 0.961 . S
C1300 C1301 1.370 . S
C1300 C1302 1.363 . S
C1300 H1316 0.931 . S
C1301 C1300 1.370 . S
C1301 C1305 1.408 . S
C1302 C1300 1.363 . S
C1302 C1303 1.370 . S
C1302 C1306 1.524 . S
C1303 C1295 1.503 1_545 S
C1303 C1302 1.370 . S
C1303 C1304 1.403 . S
C1304 C1303 1.403 . S
C1304 C1305 1.404 . S
C1304 C1307 1.539 1_545 S
C1305 C1301 1.408 . S
C1305 C1304 1.404 . S
C1305 H1317 0.930 . S
C1306 C1302 1.524 . S
C1306 H1318 0.956 . S
C1306 H1319 0.961 1_545 S
C1306 H1320 0.961 . S
C1307 C1304 1.539 1_565 S
C1307 H1321 0.958 1_565 S
C1307 H1322 0.961 . S
C1307 H1323 0.960 . S
H1308 C1292 0.931 . S
H1309 C1297 0.929 . S
H1310 C1298 0.960 . S
H1311 C1298 0.962 . S
H1312 C1298 0.960 . S
H1313 C1299 0.961 . S
H1314 C1299 0.961 . S
H1315 C1299 0.961 . S
H1316 C1300 0.931 . S
H1317 C1305 0.930 . S
H1318 C1306 0.956 . S
H1319 C1306 0.961 1_565 S
H1320 C1306 0.961 . S
H1321 C1307 0.958 1_545 S
H1322 C1307 0.961 . S
H1323 C1307 0.960 . S
C1324 C1325 1.391 . S
C1324 C1326 1.394 . S
C1324 H1340 0.931 . S
C1325 C1324 1.391 . S
C1325 C1329 1.376 . S
C1326 C1324 1.394 . S
C1326 C1327 1.369 . S
C1326 C1330 1.531 . S
C1327 C1326 1.369 . S
C1327 C1328 1.410 . S
C1327 C1335 1.503 1_455 S
C1328 C1327 1.410 . S
C1328 C1329 1.392 . S
C1328 C1331 1.511 1_455 S
C1329 C1325 1.376 . S
C1329 C1328 1.392 . S
C1329 H1341 0.929 . S
C1330 C1326 1.531 . S
C1330 H1342 0.960 . S
C1330 H1343 0.962 . S
C1330 H1344 0.960 . S
C1331 C1328 1.511 1_655 S
C1331 H1345 0.961 . S
C1331 H1346 0.961 . S
C1331 H1347 0.961 . S
C1332 C1333 1.370 . S
C1332 C1334 1.363 . S
C1332 H1348 0.931 . S
C1333 C1332 1.370 . S
C1333 C1337 1.408 . S
C1334 C1332 1.363 . S
C1334 C1335 1.370 . S
C1334 C1338 1.524 1_655 S
C1335 C1327 1.503 1_655 S
C1335 C1334 1.370 . S
C1335 C1336 1.403 . S
C1336 C1335 1.403 . S
C1336 C1337 1.404 . S
C1336 C1339 1.539 . S
C1337 C1333 1.408 . S
C1337 C1336 1.404 . S
C1337 H1349 0.930 . S
C1338 C1334 1.524 1_455 S
C1338 H1350 0.956 . S
C1338 H1351 0.961 . S
C1338 H1352 0.961 . S
C1339 C1336 1.539 . S
C1339 H1353 0.958 . S
C1339 H1354 0.961 . S
C1339 H1355 0.960 . S
H1340 C1324 0.931 . S
H1341 C1329 0.929 . S
H1342 C1330 0.960 . S
H1343 C1330 0.962 . S
H1344 C1330 0.960 . S
H1345 C1331 0.961 . S
H1346 C1331 0.961 . S
H1347 C1331 0.961 . S
H1348 C1332 0.931 . S
H1349 C1337 0.930 . S
H1350 C1338 0.956 . S
H1351 C1338 0.961 . S
H1352 C1338 0.961 . S
H1353 C1339 0.958 . S
H1354 C1339 0.961 . S
H1355 C1339 0.960 . S
C397 C41 1.612 . S
C405 N14 1.579 . S
C429 N47 1.552 . S
C437 C74 1.618 . S
C461 N80 1.610 . S
C469 C8 1.594 . S
C493 N113 1.616 . S
C501 C173 1.594 . S
C525 N146 1.557 . S
C533 C107 1.617 . S
C557 C140 1.573 . S
C565 N179 1.599 . S
C589 C239 1.628 . S
C597 N212 1.573 . S
C621 C272 1.587 . S
C629 N245 1.587 . S
C653 C206 1.612 . S
C661 N278 1.576 . S
C685 N311 1.612 . S
C693 C371 1.600 . S
C717 C305 1.572 . S
C725 N344 1.598 . S
C749 N377 1.587 . S
C757 C338 1.611 . S
C781 C28 1.306 . S
C789 N236 1.280 . S
C813 C61 1.335 . S
C821 N269 1.306 . S
C845 C94 1.314 . S
C853 N203 1.294 . S
C877 N368 1.253 . S
C885 C127 1.326 . S
C909 C160 1.308 . S
C917 N302 1.277 . S
C941 N335 1.326 . S
C949 C193 1.336 . S
C973 N38 1.274 . S
C981 C226 1.335 . S
C1005 N71 1.276 . S
C1013 C259 1.335 . S
C1037 C292 1.346 . S
C1045 N5 1.295 . S
C1069 N170 1.253 . S
C1077 C325 1.324 . S
C1101 C358 1.345 . S
C1109 N104 1.304 . S
C1133 C391 1.320 . S
C1141 N137 1.276 . S
C1165 C116 1.318 . S
C1173 C17 1.293 . S
C1197 C50 1.286 . S
C1205 C149 1.317 . S
C1229 C83 1.325 . S
C1237 C182 1.306 . S
C1261 C314 1.274 . S
C1269 C215 1.305 . S
C1293 C248 1.294 . S
C1301 C347 1.295 . S
C1325 C281 1.300 . S
C1333 C380 1.317 . S
