# Generated by pormake.
# Topology ume, (4)-cn, num edge types: 1
# Building blocks:
#     Node 0, Type 0, BuildingBlock: CEKHIL_clean_sbu_0, # of connection points: 4
#     Node 1, Type 0, BuildingBlock: CEKHIL_clean_sbu_0, # of connection points: 4
#     Node 2, Type 0, BuildingBlock: CEKHIL_clean_sbu_0, # of connection points: 4
#     Node 3, Type 0, BuildingBlock: CEKHIL_clean_sbu_0, # of connection points: 4
#     Node 4, Type 0, BuildingBlock: CEKHIL_clean_sbu_0, # of connection points: 4
#     Node 5, Type 0, BuildingBlock: CEKHIL_clean_sbu_0, # of connection points: 4
#     Node 6, Type 0, BuildingBlock: CEKHIL_clean_sbu_0, # of connection points: 4
#     Node 7, Type 0, BuildingBlock: CEKHIL_clean_sbu_0, # of connection points: 4
#     Node 8, Type 0, BuildingBlock: CEKHIL_clean_sbu_0, # of connection points: 4
#     Node 9, Type 0, BuildingBlock: CEKHIL_clean_sbu_0, # of connection points: 4
#     Node 10, Type 0, BuildingBlock: CEKHIL_clean_sbu_0, # of connection points: 4
#     Node 11, Type 0, BuildingBlock: CEKHIL_clean_sbu_0, # of connection points: 4
#     Node 12, Type 0, BuildingBlock: CEKHIL_clean_sbu_0, # of connection points: 4
#     Node 13, Type 0, BuildingBlock: CEKHIL_clean_sbu_0, # of connection points: 4
#     Node 14, Type 0, BuildingBlock: CEKHIL_clean_sbu_0, # of connection points: 4
#     Node 15, Type 0, BuildingBlock: CEKHIL_clean_sbu_0, # of connection points: 4
#     Edge 16, Type (0, 0), BuildingBlock: AJUNOK_clean_linker_0, # of connection points: 2
#     Edge 17, Type (0, 0), BuildingBlock: AJUNOK_clean_linker_0, # of connection points: 2
#     Edge 18, Type (0, 0), BuildingBlock: AJUNOK_clean_linker_0, # of connection points: 2
#     Edge 19, Type (0, 0), BuildingBlock: AJUNOK_clean_linker_0, # of connection points: 2
#     Edge 20, Type (0, 0), BuildingBlock: AJUNOK_clean_linker_0, # of connection points: 2
#     Edge 21, Type (0, 0), BuildingBlock: AJUNOK_clean_linker_0, # of connection points: 2
#     Edge 22, Type (0, 0), BuildingBlock: AJUNOK_clean_linker_0, # of connection points: 2
#     Edge 23, Type (0, 0), BuildingBlock: AJUNOK_clean_linker_0, # of connection points: 2
#     Edge 24, Type (0, 0), BuildingBlock: AJUNOK_clean_linker_0, # of connection points: 2
#     Edge 25, Type (0, 0), BuildingBlock: AJUNOK_clean_linker_0, # of connection points: 2
#     Edge 26, Type (0, 0), BuildingBlock: AJUNOK_clean_linker_0, # of connection points: 2
#     Edge 27, Type (0, 0), BuildingBlock: AJUNOK_clean_linker_0, # of connection points: 2
#     Edge 28, Type (0, 0), BuildingBlock: AJUNOK_clean_linker_0, # of connection points: 2
#     Edge 29, Type (0, 0), BuildingBlock: AJUNOK_clean_linker_0, # of connection points: 2
#     Edge 30, Type (0, 0), BuildingBlock: AJUNOK_clean_linker_0, # of connection points: 2
#     Edge 31, Type (0, 0), BuildingBlock: AJUNOK_clean_linker_0, # of connection points: 2
#     Edge 32, Type (0, 0), BuildingBlock: AJUNOK_clean_linker_0, # of connection points: 2
#     Edge 33, Type (0, 0), BuildingBlock: AJUNOK_clean_linker_0, # of connection points: 2
#     Edge 34, Type (0, 0), BuildingBlock: AJUNOK_clean_linker_0, # of connection points: 2
#     Edge 35, Type (0, 0), BuildingBlock: AJUNOK_clean_linker_0, # of connection points: 2
#     Edge 36, Type (0, 0), BuildingBlock: AJUNOK_clean_linker_0, # of connection points: 2
#     Edge 37, Type (0, 0), BuildingBlock: AJUNOK_clean_linker_0, # of connection points: 2
#     Edge 38, Type (0, 0), BuildingBlock: AJUNOK_clean_linker_0, # of connection points: 2
#     Edge 39, Type (0, 0), BuildingBlock: AJUNOK_clean_linker_0, # of connection points: 2
#     Edge 40, Type (0, 0), BuildingBlock: AJUNOK_clean_linker_0, # of connection points: 2
#     Edge 41, Type (0, 0), BuildingBlock: AJUNOK_clean_linker_0, # of connection points: 2
#     Edge 42, Type (0, 0), BuildingBlock: AJUNOK_clean_linker_0, # of connection points: 2
#     Edge 43, Type (0, 0), BuildingBlock: AJUNOK_clean_linker_0, # of connection points: 2
#     Edge 44, Type (0, 0), BuildingBlock: AJUNOK_clean_linker_0, # of connection points: 2
#     Edge 45, Type (0, 0), BuildingBlock: AJUNOK_clean_linker_0, # of connection points: 2
#     Edge 46, Type (0, 0), BuildingBlock: AJUNOK_clean_linker_0, # of connection points: 2
#     Edge 47, Type (0, 0), BuildingBlock: AJUNOK_clean_linker_0, # of connection points: 2
# Relax obj value: 0.096
# Max RMSD: 0.134
# Mean RMSD: 0.134
data_MOF--net-ume--node1-CEKHIL_clean_sbu_0--edge1-AJUNOK_clean_linker_0
_symmetry_space_group_name_H-M    P1
_symmetry_Int_Tables_number       1
_symmetry_cell_setting            triclinic
loop_
_symmetry_equiv_pos_as_xyz
'x, y, z'
_cell_length_a     20.412964
_cell_length_b     20.41344
_cell_length_c     79.688907
_cell_angle_alpha  90.001088
_cell_angle_beta   90.002591
_cell_angle_gamma 89.986061
loop_
_atom_site_label
_atom_site_type_symbol
_atom_site_fract_x
_atom_site_fract_y
_atom_site_fract_z
_atom_type_partial_charge
Co0 Co 0.23607 0.10359 0.30741 0.0
O1 O 0.14251 0.1173 0.30765 0.0
O2 O 0.19055 0.02321 0.31346 0.0
C3 C 0.25573 0.15305 0.28258 0.0
O4 O 0.33171 0.07157 0.30778 0.0
Co5 Co 0.32799 0.22384 0.3092 0.0
O6 O 0.39799 0.1588 0.30477 0.0
C7 C 0.2614 0.18066 0.33975 0.0
C8 C 0.1363 0.05618 0.31174 0.0
C9 C 0.38931 0.09717 0.30592 0.0
O10 O 0.24156 0.12954 0.33179 0.0
O11 O 0.29204 0.2277 0.33263 0.0
O12 O 0.23477 0.09305 0.28312 0.0
O13 O 0.25687 0.18329 0.29686 0.0
Co14 Co 0.89998 0.73663 0.55746 0.0
O15 O 0.88061 0.64419 0.55767 0.0
O16 O 0.97769 0.68641 0.56329 0.0
C17 C 0.85122 0.7593 0.53274 0.0
O18 O 0.93785 0.82991 0.55778 0.0
Co19 Co 0.78617 0.83622 0.55944 0.0
O20 O 0.85526 0.90173 0.55454 0.0
C21 C 0.82542 0.76645 0.58993 0.0
C22 C 0.9414 0.63431 0.56161 0.0
C23 C 0.91622 0.88892 0.55567 0.0
O24 O 0.87506 0.74345 0.58191 0.0
O25 O 0.78042 0.80028 0.58287 0.0
O26 O 0.90989 0.73483 0.53319 0.0
O27 O 0.82138 0.76235 0.54706 0.0
Co28 Co 0.26719 0.4066 0.80728 0.0
O29 O 0.35993 0.38981 0.80768 0.0
O30 O 0.31524 0.48611 0.81293 0.0
C31 C 0.24652 0.35572 0.78273 0.0
O32 O 0.17238 0.44095 0.80744 0.0
Co33 Co 0.17347 0.28785 0.80982 0.0
O34 O 0.10522 0.35414 0.80485 0.0
C35 C 0.23885 0.33399 0.84021 0.0
C36 C 0.36823 0.45085 0.81154 0.0
C37 C 0.11455 0.41577 0.80572 0.0
O38 O 0.26076 0.38302 0.83179 0.0
O39 O 0.2076 0.28648 0.83346 0.0
O40 O 0.26898 0.4152 0.78296 0.0
O41 O 0.24464 0.32666 0.79716 0.0
Co42 Co 0.60274 0.7713 0.05786 0.0
O43 O 0.6222 0.86378 0.05804 0.0
O44 O 0.52514 0.82152 0.06372 0.0
C45 C 0.65163 0.74859 0.03318 0.0
O46 O 0.56448 0.67789 0.05825 0.0
Co47 Co 0.71576 0.67059 0.05975 0.0
O48 O 0.64671 0.60569 0.05475 0.0
C49 C 0.67442 0.73753 0.0905 0.0
C50 C 0.56151 0.87359 0.06209 0.0
C51 C 0.58593 0.61883 0.05605 0.0
O52 O 0.62799 0.76533 0.08226 0.0
O53 O 0.71697 0.69981 0.08377 0.0
O54 O 0.59285 0.77284 0.03361 0.0
O55 O 0.68141 0.74537 0.04751 0.0
Co56 Co 0.23655 0.40768 0.94556 0.0
O57 O 0.14343 0.39204 0.94539 0.0
O58 O 0.18965 0.48696 0.9394 0.0
C59 C 0.25791 0.35981 0.97025 0.0
O60 O 0.33113 0.44165 0.94518 0.0
Co61 Co 0.33127 0.28973 0.94375 0.0
O62 O 0.40006 0.35628 0.94813 0.0
C63 C 0.2667 0.33385 0.91295 0.0
C64 C 0.13609 0.45288 0.94114 0.0
C65 C 0.38926 0.41766 0.94714 0.0
O66 O 0.24251 0.38205 0.92125 0.0
O67 O 0.29943 0.28763 0.91984 0.0
O68 O 0.23599 0.41943 0.96971 0.0
O69 O 0.25884 0.32833 0.95614 0.0
Co70 Co 0.60236 0.73635 0.19494 0.0
O71 O 0.62183 0.64374 0.19475 0.0
O72 O 0.52504 0.68595 0.18886 0.0
C73 C 0.65045 0.75891 0.21978 0.0
O74 O 0.56384 0.82973 0.19452 0.0
Co75 Co 0.71461 0.83813 0.19364 0.0
O76 O 0.64503 0.90191 0.19912 0.0
C77 C 0.67405 0.77301 0.16252 0.0
C78 C 0.56126 0.63383 0.19057 0.0
C79 C 0.58449 0.88873 0.19728 0.0
O80 O 0.62848 0.74302 0.17057 0.0
O81 O 0.71561 0.81123 0.16945 0.0
O82 O 0.59178 0.73446 0.2192 0.0
O83 O 0.6806 0.76245 0.20551 0.0
Co84 Co 0.26726 0.1014 0.4442 0.0
O85 O 0.36029 0.118 0.44343 0.0
O86 O 0.31436 0.02291 0.43753 0.0
C87 C 0.24921 0.14865 0.46928 0.0
O88 O 0.17303 0.06619 0.44427 0.0
Co89 Co 0.16963 0.21775 0.44387 0.0
O90 O 0.1027 0.1495 0.44834 0.0
C91 C 0.23391 0.17854 0.41244 0.0
C92 C 0.3678 0.0572 0.43914 0.0
C93 C 0.11447 0.08851 0.44667 0.0
O94 O 0.25816 0.12855 0.42004 0.0
O95 O 0.2014 0.22337 0.41999 0.0
O96 O 0.27168 0.08928 0.46836 0.0
O97 O 0.24474 0.17971 0.45516 0.0
Co98 Co 0.90245 0.76704 0.69456 0.0
O99 O 0.88733 0.86014 0.69362 0.0
O100 O 0.98207 0.81287 0.68804 0.0
C101 C 0.85424 0.75073 0.71961 0.0
O102 O 0.93531 0.67175 0.69497 0.0
Co103 Co 0.78237 0.67405 0.69394 0.0
O104 O 0.84849 0.60588 0.69918 0.0
C105 C 0.82511 0.73627 0.66261 0.0
C106 C 0.94836 0.8668 0.68952 0.0
C107 C 0.91004 0.61455 0.69771 0.0
O108 O 0.87595 0.75807 0.67032 0.0
O109 O 0.77852 0.70602 0.67006 0.0
O110 O 0.91407 0.77186 0.71873 0.0
O111 O 0.82336 0.74693 0.70545 0.0
Co112 Co 0.73338 0.60486 0.80785 0.0
O113 O 0.64028 0.62179 0.80822 0.0
O114 O 0.68559 0.52614 0.81386 0.0
C115 C 0.75408 0.65385 0.78306 0.0
O116 O 0.82734 0.56881 0.808 0.0
Co117 Co 0.83151 0.71978 0.80946 0.0
O118 O 0.89828 0.65187 0.80451 0.0
C119 C 0.76368 0.67987 0.84019 0.0
C120 C 0.63235 0.56067 0.81216 0.0
C121 C 0.88608 0.59083 0.80575 0.0
O122 O 0.74054 0.63014 0.83225 0.0
O123 O 0.79691 0.72506 0.83303 0.0
O124 O 0.73096 0.59466 0.7836 0.0
O125 O 0.75716 0.68391 0.79735 0.0
Co126 Co 0.40563 0.23779 0.05766 0.0
O127 O 0.39202 0.14447 0.05739 0.0
O128 O 0.48523 0.192 0.06433 0.0
C129 C 0.36046 0.25836 0.03254 0.0
O130 O 0.43697 0.33336 0.05861 0.0
Co131 Co 0.28464 0.32904 0.05833 0.0
O132 O 0.35015 0.39883 0.05403 0.0
C133 C 0.32534 0.2641 0.08948 0.0
C134 C 0.45246 0.13792 0.06203 0.0
C135 C 0.41155 0.39056 0.056 0.0
O136 O 0.37618 0.24213 0.08178 0.0
O137 O 0.27966 0.29587 0.08207 0.0
O138 O 0.42067 0.23851 0.03357 0.0
O139 O 0.32732 0.25813 0.04638 0.0
Co140 Co 0.77002 0.90425 0.30838 0.0
O141 O 0.8626 0.88484 0.30862 0.0
O142 O 0.82023 0.98109 0.31499 0.0
C143 C 0.74918 0.85878 0.2832 0.0
O144 O 0.67653 0.94254 0.30878 0.0
Co145 Co 0.66838 0.79123 0.30847 0.0
O146 O 0.60471 0.86156 0.30348 0.0
C147 C 0.73246 0.82868 0.34013 0.0
C148 C 0.87242 0.94516 0.31301 0.0
C149 C 0.61769 0.92195 0.30574 0.0
O150 O 0.76245 0.87545 0.33253 0.0
O151 O 0.69472 0.78778 0.33275 0.0
O152 O 0.77306 0.91753 0.28425 0.0
O153 O 0.74459 0.82709 0.29722 0.0
Co154 Co 0.09829 0.27012 0.55691 0.0
O155 O 0.11269 0.36346 0.55707 0.0
O156 O 0.0179 0.31618 0.56259 0.0
C157 C 0.14886 0.24939 0.53234 0.0
O158 O 0.06565 0.17483 0.55729 0.0
Co159 Co 0.21809 0.17798 0.55951 0.0
O160 O 0.15298 0.10833 0.55478 0.0
C161 C 0.17145 0.2434 0.58985 0.0
C162 C 0.05137 0.37013 0.56092 0.0
C163 C 0.09129 0.11719 0.55564 0.0
O164 O 0.12235 0.26492 0.58139 0.0
O165 O 0.21912 0.21223 0.58315 0.0
O166 O 0.08905 0.27096 0.53264 0.0
O167 O 0.17853 0.24854 0.54671 0.0
Co168 Co 0.73268 0.90429 0.44409 0.0
O169 O 0.63986 0.8875 0.44391 0.0
O170 O 0.68475 0.98248 0.43734 0.0
C171 C 0.75253 0.85875 0.46931 0.0
O172 O 0.82759 0.9389 0.44351 0.0
Co173 Co 0.82837 0.78619 0.44367 0.0
O174 O 0.89508 0.8538 0.44843 0.0
C175 C 0.76495 0.82655 0.41225 0.0
C176 C 0.63172 0.94769 0.43922 0.0
C177 C 0.88537 0.91479 0.44619 0.0
O178 O 0.73855 0.87501 0.42 0.0
O179 O 0.80076 0.78349 0.41946 0.0
O180 O 0.73057 0.91825 0.4682 0.0
O181 O 0.75536 0.82655 0.45533 0.0
Co182 Co 0.09817 0.23296 0.69508 0.0
O183 O 0.11766 0.14071 0.69399 0.0
O184 O 0.02042 0.18347 0.68884 0.0
C185 C 0.14709 0.25188 0.7199 0.0
O186 O 0.06084 0.32647 0.6956 0.0
Co187 Co 0.21359 0.33164 0.69381 0.0
O188 O 0.14458 0.39728 0.69874 0.0
C189 C 0.17026 0.269 0.66264 0.0
C190 C 0.0569 0.13124 0.69 0.0
C191 C 0.08343 0.38512 0.69776 0.0
O192 O 0.12234 0.24337 0.67077 0.0
O193 O 0.21616 0.30149 0.66975 0.0
O194 O 0.0884 0.22762 0.71928 0.0
O195 O 0.17691 0.25703 0.70561 0.0
Co196 Co 0.77005 0.60255 0.94484 0.0
O197 O 0.86238 0.6211 0.94388 0.0
O198 O 0.81884 0.52457 0.93831 0.0
C199 C 0.75209 0.64993 0.96991 0.0
O200 O 0.67587 0.56668 0.94525 0.0
Co201 Co 0.67379 0.72032 0.94429 0.0
O202 O 0.60807 0.65197 0.94964 0.0
C203 C 0.73698 0.67936 0.91293 0.0
C204 C 0.87138 0.56047 0.93973 0.0
C205 C 0.61823 0.59063 0.94816 0.0
O206 O 0.76008 0.62897 0.92061 0.0
O207 O 0.70567 0.72517 0.92042 0.0
O208 O 0.77528 0.59088 0.969 0.0
O209 O 0.74742 0.68076 0.95577 0.0
Co210 Co 0.40325 0.27016 0.19428 0.0
O211 O 0.38921 0.36361 0.19369 0.0
O212 O 0.48329 0.31562 0.18785 0.0
C213 C 0.35534 0.25286 0.21935 0.0
O214 O 0.4353 0.17458 0.19428 0.0
Co215 Co 0.28238 0.17786 0.19364 0.0
O216 O 0.34819 0.10851 0.19802 0.0
C217 C 0.32501 0.24074 0.16235 0.0
C218 C 0.45031 0.36986 0.1896 0.0
C219 C 0.40972 0.11717 0.19649 0.0
O220 O 0.37599 0.26253 0.17004 0.0
O221 O 0.27857 0.21033 0.16982 0.0
O222 O 0.41533 0.27356 0.21847 0.0
O223 O 0.3242 0.25007 0.20522 0.0
C224 C 0.95039 0.04029 0.31395 0.0
C225 C 0.94004 0.97222 0.31446 0.0
C226 C 0.01394 0.0667 0.31347 0.0
C227 C 0.07002 0.02628 0.31366 0.0
H228 H 0.90909 0.07354 0.31336 0.0
H229 H 0.01897 0.11942 0.31266 0.0
S230 S 0.06993 0.8448 0.31643 0.0
N231 N 0.99158 0.86487 0.31616 0.0
N232 N 0.11064 0.91456 0.31541 0.0
C233 C 0.06042 0.95821 0.31487 0.0
C234 C 0.99563 0.93123 0.31522 0.0
C235 C 0.03627 0.55609 0.56237 0.0
C236 C 0.96828 0.5667 0.56307 0.0
C237 C 0.06243 0.49245 0.56207 0.0
C238 C 0.0218 0.43658 0.56262 0.0
H239 H 0.06964 0.59722 0.56152 0.0
H240 H 0.1151 0.48717 0.56111 0.0
S241 S 0.8405 0.43751 0.56604 0.0
N242 N 0.86083 0.51574 0.56536 0.0
N243 N 0.91007 0.39648 0.56493 0.0
C244 C 0.95384 0.44649 0.56401 0.0
C245 C 0.92711 0.51136 0.56419 0.0
C246 C 0.50978 0.57244 0.81214 0.0
C247 C 0.56548 0.5319 0.81367 0.0
C248 C 0.44603 0.54632 0.8121 0.0
C249 C 0.43533 0.4785 0.81344 0.0
H250 H 0.51533 0.62486 0.81061 0.0
H251 H 0.40504 0.5794 0.81045 0.0
S252 S 0.56379 0.35137 0.81923 0.0
N253 N 0.60501 0.42065 0.8177 0.0
N254 N 0.48578 0.37161 0.81753 0.0
C255 C 0.49042 0.43761 0.8156 0.0
C256 C 0.55526 0.46425 0.81575 0.0
C257 C 0.44109 0.01571 0.06254 0.0
C258 C 0.48177 0.07138 0.06378 0.0
C259 C 0.46698 0.95199 0.06265 0.0
C260 C 0.53479 0.9411 0.06384 0.0
H261 H 0.3886 0.02121 0.06114 0.0
H262 H 0.43364 0.91109 0.06123 0.0
S263 S 0.66242 0.06936 0.06893 0.0
N264 N 0.5932 0.11083 0.06742 0.0
N265 N 0.64199 0.9913 0.06752 0.0
C266 C 0.57595 0.99611 0.06573 0.0
C267 C 0.54946 0.06111 0.06574 0.0
C268 C 0.01385 0.44031 0.94011 0.0
C269 C 0.06936 0.48133 0.93905 0.0
C270 C 0.94994 0.46581 0.93954 0.0
C271 C 0.93881 0.53349 0.93804 0.0
H272 H 0.01963 0.38796 0.94175 0.0
H273 H 0.90909 0.43239 0.94092 0.0
S274 S 0.06677 0.66166 0.93321 0.0
N275 N 0.10844 0.59278 0.9352 0.0
N276 N 0.98875 0.64077 0.93424 0.0
C277 C 0.99376 0.57485 0.93628 0.0
C278 C 0.05884 0.5488 0.93675 0.0
C279 C 0.43998 0.49226 0.18834 0.0
C280 C 0.48041 0.4362 0.18811 0.0
C281 C 0.46641 0.55582 0.18855 0.0
C282 C 0.5345 0.56621 0.18871 0.0
H283 H 0.38718 0.48718 0.18867 0.0
H284 H 0.43304 0.59703 0.1891 0.0
S285 S 0.66216 0.43645 0.18701 0.0
N286 N 0.5923 0.3957 0.18711 0.0
N287 N 0.64204 0.51476 0.18763 0.0
C288 C 0.5756 0.51068 0.18793 0.0
C289 C 0.5486 0.44589 0.18758 0.0
C290 C 0.49025 0.06906 0.43884 0.0
C291 C 0.43459 0.02854 0.43723 0.0
C292 C 0.55401 0.04304 0.43872 0.0
C293 C 0.56477 0.97533 0.43714 0.0
H294 H 0.48467 0.12137 0.44062 0.0
H295 H 0.59497 0.07604 0.44052 0.0
S296 S 0.43668 0.84849 0.43073 0.0
N297 N 0.39524 0.91755 0.43264 0.0
N298 N 0.51467 0.8687 0.43252 0.0
C299 C 0.50981 0.93452 0.43479 0.0
C300 C 0.44491 0.96107 0.43479 0.0
C301 C 0.96241 0.05279 0.68838 0.0
C302 C 0.03036 0.06373 0.68795 0.0
C303 C 0.93659 0.98901 0.68833 0.0
C304 C 0.97754 0.93336 0.68772 0.0
H305 H 0.9288 0.0937 0.68933 0.0
H306 H 0.88392 0.98344 0.68917 0.0
S307 S 0.15893 0.93527 0.68478 0.0
N308 N 0.13816 0.01336 0.68569 0.0
N309 N 0.08953 0.89387 0.68553 0.0
C310 C 0.04547 0.94364 0.68651 0.0
C311 C 0.07185 0.00864 0.68666 0.0
C312 C 0.49643 0.94391 0.30509 0.0
C313 C 0.56112 0.9686 0.30547 0.0
C314 C 0.44166 0.9855 0.30517 0.0
C315 C 0.44863 0.05398 0.30552 0.0
H316 H 0.48753 0.89163 0.3049 0.0
H317 H 0.39339 0.96347 0.30497 0.0
S318 S 0.60722 0.1444 0.30626 0.0
N319 N 0.62871 0.06649 0.30598 0.0
N320 N 0.52639 0.14484 0.30607 0.0
C321 C 0.51315 0.07959 0.30574 0.0
C322 C 0.56902 0.03699 0.30574 0.0
C323 C 0.9382 0.01008 0.55374 0.0
C324 C 0.96275 0.94555 0.55512 0.0
C325 C 0.97978 0.06486 0.55382 0.0
C326 C 0.0481 0.05796 0.55518 0.0
H327 H 0.88602 0.01885 0.55274 0.0
H328 H 0.95792 0.11306 0.55282 0.0
S329 S 0.13822 0.89986 0.5589 0.0
N330 N 0.06049 0.87827 0.55772 0.0
N331 N 0.13867 0.98057 0.55783 0.0
C332 C 0.07359 0.99362 0.55638 0.0
C333 C 0.03106 0.93777 0.55636 0.0
C334 C 0.06225 0.52745 0.80366 0.0
C335 C 0.05544 0.45919 0.80526 0.0
C336 C 0.00738 0.56905 0.80358 0.0
C337 C 0.94293 0.54453 0.8052 0.0
H338 H 0.11042 0.5492 0.80248 0.0
H339 H 0.01598 0.62119 0.80238 0.0
S340 S 0.89753 0.36926 0.80976 0.0
N341 N 0.97818 0.3688 0.80847 0.0
N342 N 0.87587 0.44689 0.80833 0.0
C343 C 0.93529 0.47628 0.80669 0.0
C344 C 0.99115 0.43379 0.80672 0.0
C345 C 0.56348 0.49857 0.05905 0.0
C346 C 0.53971 0.56223 0.05573 0.0
C347 C 0.52206 0.44375 0.05899 0.0
C348 C 0.45477 0.44973 0.05553 0.0
H349 H 0.61473 0.49077 0.06195 0.0
H350 H 0.54319 0.39634 0.06181 0.0
S351 S 0.36826 0.60509 0.04496 0.0
N352 N 0.44481 0.62767 0.04825 0.0
N353 N 0.3667 0.52511 0.04796 0.0
C354 C 0.43039 0.51312 0.05189 0.0
C355 C 0.47276 0.5691 0.05206 0.0
C356 C 0.50982 0.43911 0.94378 0.0
C357 C 0.44685 0.46236 0.94803 0.0
C358 C 0.56503 0.48021 0.9442 0.0
C359 C 0.55989 0.54636 0.94899 0.0
H360 H 0.51652 0.38886 0.93977 0.0
H361 H 0.61187 0.46007 0.94043 0.0
S362 S 0.40692 0.62959 0.96305 0.0
N363 N 0.38334 0.55459 0.95826 0.0
N364 N 0.48639 0.63176 0.9593 0.0
C365 C 0.4973 0.56962 0.95382 0.0
C366 C 0.4411 0.52778 0.95326 0.0
C367 C 0.56207 0.00965 0.1996 0.0
C368 C 0.53778 0.94526 0.19755 0.0
C369 C 0.52067 0.06454 0.19924 0.0
C370 C 0.45276 0.0579 0.19695 0.0
H371 H 0.61396 0.01826 0.20137 0.0
H372 H 0.54228 0.1126 0.20084 0.0
S373 S 0.36341 0.90054 0.19095 0.0
N374 N 0.44072 0.87852 0.19314 0.0
N375 N 0.36282 0.98114 0.1925 0.0
C376 C 0.42748 0.99378 0.195 0.0
C377 C 0.46985 0.93779 0.1953 0.0
C378 C 0.93795 0.02606 0.44894 0.0
C379 C 0.94423 0.95831 0.44627 0.0
C380 C 0.99315 0.06722 0.44928 0.0
C381 C 0.05726 0.04266 0.44685 0.0
H382 H 0.89005 0.04755 0.45092 0.0
H383 H 0.98513 0.119 0.45141 0.0
S384 S 0.10052 0.86882 0.43869 0.0
N385 N 0.02009 0.86856 0.4407 0.0
N386 N 0.12306 0.94569 0.44136 0.0
C387 C 0.06417 0.97495 0.44408 0.0
C388 C 0.00802 0.93298 0.44378 0.0
C389 C 0.06252 0.50637 0.69617 0.0
C390 C 0.03781 0.44232 0.69841 0.0
C391 C 0.02131 0.56144 0.69619 0.0
C392 C 0.9533 0.55535 0.69854 0.0
H393 H 0.11434 0.51431 0.69408 0.0
H394 H 0.04315 0.60914 0.69415 0.0
S395 S 0.86386 0.39884 0.70601 0.0
N396 N 0.94099 0.37642 0.70372 0.0
N397 N 0.86338 0.47926 0.7039 0.0
C398 C 0.92797 0.49155 0.70117 0.0
C399 C 0.97011 0.43538 0.70105 0.0
C400 C 0.25052 0.12336 0.36724 0.0
C401 C 0.25245 0.1825 0.3582 0.0
C402 C 0.2454 0.12292 0.38475 0.0
C403 C 0.24072 0.18158 0.39395 0.0
H404 H 0.25426 0.0768 0.36078 0.0
H405 H 0.24433 0.076 0.3911 0.0
S406 S 0.2419 0.34975 0.37628 0.0
N407 N 0.24876 0.30147 0.35974 0.0
N408 N 0.23769 0.30058 0.3927 0.0
C409 C 0.24164 0.24116 0.38508 0.0
C410 C 0.24799 0.24164 0.36721 0.0
C411 C 0.88178 0.75129 0.61745 0.0
C412 C 0.82294 0.75696 0.60837 0.0
C413 C 0.88171 0.74541 0.63495 0.0
C414 C 0.82277 0.74362 0.6441 0.0
H415 H 0.92854 0.75267 0.61102 0.0
H416 H 0.9284 0.7415 0.64134 0.0
S417 S 0.65516 0.75499 0.62631 0.0
N418 N 0.70395 0.75986 0.60982 0.0
N419 N 0.70381 0.7473 0.64275 0.0
C420 C 0.76345 0.74824 0.63519 0.0
C421 C 0.76355 0.7554 0.61733 0.0
C422 C 0.25063 0.27544 0.86777 0.0
C423 C 0.24708 0.33453 0.85869 0.0
C424 C 0.25745 0.27535 0.88531 0.0
C425 C 0.25934 0.33433 0.89444 0.0
H426 H 0.24875 0.22889 0.86126 0.0
H427 H 0.2604 0.22876 0.89178 0.0
S428 S 0.25133 0.50237 0.87666 0.0
N429 N 0.24599 0.45359 0.8602 0.0
N430 N 0.2578 0.45344 0.89305 0.0
C431 C 0.25549 0.39371 0.88551 0.0
C432 C 0.24969 0.39381 0.86768 0.0
C433 C 0.68505 0.69419 0.11964 0.0
C434 C 0.67718 0.74796 0.10878 0.0
C435 C 0.68371 0.70252 0.13711 0.0
C436 C 0.67668 0.76512 0.1442 0.0
H437 H 0.69045 0.6452 0.11459 0.0
H438 H 0.68852 0.6599 0.14512 0.0
S439 S 0.65597 0.9216 0.12124 0.0
N440 N 0.66195 0.86564 0.10633 0.0
N441 N 0.66246 0.88162 0.13919 0.0
C442 C 0.67017 0.81934 0.1335 0.0
C443 C 0.66961 0.81066 0.11576 0.0
C444 C 0.7508 0.62319 0.86773 0.0
C445 C 0.75524 0.68215 0.85866 0.0
C446 C 0.74584 0.62306 0.88525 0.0
C447 C 0.74376 0.68191 0.89443 0.0
H448 H 0.7524 0.57649 0.86127 0.0
H449 H 0.74278 0.57628 0.89162 0.0
S450 S 0.75231 0.84976 0.87669 0.0
N451 N 0.7569 0.80115 0.86016 0.0
N452 N 0.74601 0.80091 0.89314 0.0
C453 C 0.74726 0.74134 0.88553 0.0
C454 C 0.75351 0.74146 0.86766 0.0
C455 C 0.38153 0.24918 0.13467 0.0
C456 C 0.32261 0.24737 0.14382 0.0
C457 C 0.38156 0.25307 0.11714 0.0
C458 C 0.32269 0.25657 0.10798 0.0
H459 H 0.42826 0.24663 0.14108 0.0
H460 H 0.42836 0.25452 0.11073 0.0
S461 S 0.15489 0.2541 0.1259 0.0
N462 N 0.20358 0.24906 0.14241 0.0
N463 N 0.20367 0.25787 0.1094 0.0
C464 C 0.2633 0.25521 0.11695 0.0
C465 C 0.26325 0.25011 0.13485 0.0
C466 C 0.80189 0.81724 0.36573 0.0
C467 C 0.73953 0.824 0.35847 0.0
C468 C 0.80953 0.81528 0.38323 0.0
C469 C 0.75525 0.8223 0.39396 0.0
H470 H 0.84493 0.81347 0.35783 0.0
H471 H 0.85839 0.81055 0.38841 0.0
S472 S 0.58192 0.84202 0.38108 0.0
N473 N 0.62266 0.83658 0.36321 0.0
N474 N 0.63734 0.83606 0.39611 0.0
C475 C 0.69275 0.8292 0.38682 0.0
C476 C 0.68479 0.82922 0.36904 0.0
C477 C 0.22928 0.26131 0.63505 0.0
C478 C 0.17012 0.26311 0.64411 0.0
C479 C 0.22952 0.25493 0.6175 0.0
C480 C 0.1706 0.25175 0.60834 0.0
H481 H 0.27574 0.26376 0.64159 0.0
H482 H 0.27619 0.25292 0.61105 0.0
S483 S 0.00241 0.25645 0.6261 0.0
N484 N 0.05106 0.26227 0.64257 0.0
N485 N 0.05148 0.25129 0.6097 0.0
C486 C 0.11114 0.25454 0.61725 0.0
C487 C 0.11091 0.25989 0.63509 0.0
C488 C 0.25835 0.1553 0.25126 0.0
C489 C 0.27832 0.18283 0.26665 0.0
C490 C 0.28141 0.17981 0.23591 0.0
C491 C 0.32657 0.23161 0.23544 0.0
H492 H 0.22486 0.11415 0.25105 0.0
H493 H 0.2654 0.15659 0.2244 0.0
S494 S 0.39179 0.32332 0.27198 0.0
N495 N 0.34305 0.26752 0.28027 0.0
N496 N 0.3883 0.31177 0.2515 0.0
C497 C 0.34603 0.26042 0.25066 0.0
C498 C 0.32136 0.23654 0.26626 0.0
C499 C 0.82456 0.7844 0.48605 0.0
C500 C 0.77413 0.83112 0.48551 0.0
C501 C 0.84872 0.76128 0.50142 0.0
C502 C 0.82224 0.78279 0.51679 0.0
H503 H 0.84682 0.76694 0.47455 0.0
H504 H 0.88865 0.72631 0.50123 0.0
S505 S 0.68586 0.90125 0.52204 0.0
N506 N 0.69657 0.89633 0.50154 0.0
N507 N 0.74035 0.85115 0.53038 0.0
C508 C 0.77012 0.82774 0.51637 0.0
C509 C 0.74653 0.85239 0.50073 0.0
C510 C 0.22004 0.32683 0.73618 0.0
C511 C 0.17574 0.27428 0.7359 0.0
C512 C 0.24305 0.35228 0.75142 0.0
C513 C 0.22378 0.32513 0.76692 0.0
H514 H 0.23544 0.34985 0.72459 0.0
H515 H 0.27596 0.39388 0.75104 0.0
S516 S 0.11257 0.18323 0.77281 0.0
N517 N 0.1156 0.19383 0.75229 0.0
N518 N 0.16052 0.24021 0.78088 0.0
C519 C 0.18151 0.27083 0.76674 0.0
C520 C 0.15701 0.24582 0.75124 0.0
C521 C 0.67852 0.72317 0.98652 0.0
C522 C 0.73027 0.67792 0.98604 0.0
C523 C 0.65382 0.74595 0.00187 0.0
C524 C 0.68098 0.72549 0.01726 0.0
H525 H 0.65564 0.73966 0.97501 0.0
H526 H 0.6129 0.77974 0.00165 0.0
S527 S 0.82085 0.61123 0.02262 0.0
N528 N 0.80985 0.6154 0.00212 0.0
N529 N 0.76496 0.65988 0.03091 0.0
C530 C 0.73441 0.68209 0.01688 0.0
C531 C 0.75862 0.65784 0.00128 0.0
C532 C 0.28201 0.25332 0.00861 0.0
C533 C 0.3342 0.28481 0.0168 0.0
C534 C 0.25867 0.27653 0.99313 0.0
C535 C 0.28562 0.33296 0.98577 0.0
H536 H 0.25993 0.21003 0.01407 0.0
H537 H 0.21846 0.2512 0.98708 0.0
S538 S 0.42235 0.43313 0.00239 0.0
N539 N 0.41308 0.37383 0.01629 0.0
N540 N 0.36627 0.42004 0.98782 0.0
C541 C 0.33716 0.36519 0.99397 0.0
C542 C 0.36232 0.34034 0.00936 0.0
C543 C 0.67524 0.78625 0.26647 0.0
C544 C 0.72709 0.83139 0.26701 0.0
C545 C 0.65112 0.76299 0.25111 0.0
C546 C 0.67899 0.78279 0.23575 0.0
H547 H 0.65197 0.77005 0.27796 0.0
H548 H 0.61019 0.72923 0.2513 0.0
S549 S 0.81929 0.89667 0.23055 0.0
N550 N 0.80734 0.8933 0.25102 0.0
N551 N 0.76371 0.84782 0.22221 0.0
C552 C 0.73242 0.82622 0.23619 0.0
C553 C 0.75598 0.85102 0.25181 0.0
C554 C 0.17658 0.22302 0.48579 0.0
C555 C 0.22768 0.17702 0.4854 0.0
C556 C 0.15213 0.24658 0.50107 0.0
C557 C 0.17894 0.22625 0.51651 0.0
H558 H 0.15392 0.23945 0.47424 0.0
H559 H 0.11157 0.28079 0.50077 0.0
S560 S 0.31717 0.11027 0.52215 0.0
N561 N 0.30634 0.11391 0.50163 0.0
N562 N 0.26197 0.16001 0.53033 0.0
C563 C 0.23185 0.18222 0.51624 0.0
C564 C 0.25575 0.15708 0.50069 0.0
C565 C 0.77973 0.67893 0.73634 0.0
C566 C 0.82534 0.73031 0.73575 0.0
C567 C 0.75653 0.65514 0.75174 0.0
C568 C 0.77689 0.68292 0.76707 0.0
H569 H 0.76345 0.65549 0.72488 0.0
H570 H 0.72265 0.61431 0.75161 0.0
S571 S 0.89146 0.82265 0.77209 0.0
N572 N 0.88775 0.81053 0.75163 0.0
N573 N 0.84239 0.76745 0.78051 0.0
C574 C 0.82038 0.73623 0.76656 0.0
C575 C 0.84511 0.75946 0.75091 0.0
loop_
_geom_bond_atom_site_label_1
_geom_bond_atom_site_label_2
_geom_bond_distance
_geom_bond_site_symmetry_2
_ccdc_geom_bond_type
Co0 O1 2.216 . S
Co0 O2 2.091 . S
Co0 O4 2.004 . S
Co0 O10 2.021 . S
Co0 O12 2.137 . S
Co0 O13 2.244 . S
O1 Co0 2.216 . S
O1 C8 1.247 . S
O2 Co0 2.091 . S
O2 C8 1.261 . S
C3 O12 1.247 . S
C3 O13 1.272 . S
O4 Co0 2.004 . S
O4 C9 1.259 . S
Co5 O6 2.061 . S
Co5 O11 2.052 . S
Co5 O13 2.135 . S
O6 Co5 2.061 . S
O6 C9 1.235 . S
C7 O10 1.238 . S
C7 O11 1.241 . S
C8 O1 1.247 . S
C8 O2 1.261 . S
C9 O4 1.259 . S
C9 O6 1.235 . S
O10 Co0 2.021 . S
O10 C7 1.238 . S
O11 Co5 2.052 . S
O11 C7 1.241 . S
O12 Co0 2.137 . S
O12 C3 1.247 . S
O13 Co0 2.244 . S
O13 C3 1.272 . S
O13 Co5 2.135 . S
Co14 O15 2.216 . S
Co14 O16 2.091 . S
Co14 O18 2.004 . S
Co14 O24 2.021 . S
Co14 O26 2.137 . S
Co14 O27 2.244 . S
O15 Co14 2.216 . S
O15 C22 1.247 . S
O16 Co14 2.091 . S
O16 C22 1.261 . S
C17 O26 1.247 . S
C17 O27 1.272 . S
O18 Co14 2.004 . S
O18 C23 1.259 . S
Co19 O20 2.061 . S
Co19 O25 2.052 . S
Co19 O27 2.135 . S
O20 Co19 2.061 . S
O20 C23 1.235 . S
C21 O24 1.238 . S
C21 O25 1.241 . S
C22 O15 1.247 . S
C22 O16 1.261 . S
C23 O18 1.259 . S
C23 O20 1.235 . S
O24 Co14 2.021 . S
O24 C21 1.238 . S
O25 Co19 2.052 . S
O25 C21 1.241 . S
O26 Co14 2.137 . S
O26 C17 1.247 . S
O27 Co14 2.244 . S
O27 C17 1.272 . S
O27 Co19 2.135 . S
Co28 O29 2.216 . S
Co28 O30 2.091 . S
Co28 O32 2.004 . S
Co28 O38 2.021 . S
Co28 O40 2.137 . S
Co28 O41 2.244 . S
O29 Co28 2.216 . S
O29 C36 1.247 . S
O30 Co28 2.091 . S
O30 C36 1.261 . S
C31 O40 1.247 . S
C31 O41 1.272 . S
O32 Co28 2.004 . S
O32 C37 1.259 . S
Co33 O34 2.061 . S
Co33 O39 2.052 . S
Co33 O41 2.135 . S
O34 Co33 2.061 . S
O34 C37 1.235 . S
C35 O38 1.238 . S
C35 O39 1.241 . S
C36 O29 1.247 . S
C36 O30 1.261 . S
C37 O32 1.259 . S
C37 O34 1.235 . S
O38 Co28 2.021 . S
O38 C35 1.238 . S
O39 Co33 2.052 . S
O39 C35 1.241 . S
O40 Co28 2.137 . S
O40 C31 1.247 . S
O41 Co28 2.244 . S
O41 C31 1.272 . S
O41 Co33 2.135 . S
Co42 O43 2.216 . S
Co42 O44 2.091 . S
Co42 O46 2.004 . S
Co42 O52 2.021 . S
Co42 O54 2.137 . S
Co42 O55 2.244 . S
O43 Co42 2.216 . S
O43 C50 1.247 . S
O44 Co42 2.091 . S
O44 C50 1.261 . S
C45 O54 1.247 . S
C45 O55 1.272 . S
O46 Co42 2.004 . S
O46 C51 1.259 . S
Co47 O48 2.061 . S
Co47 O53 2.052 . S
Co47 O55 2.135 . S
O48 Co47 2.061 . S
O48 C51 1.235 . S
C49 O52 1.238 . S
C49 O53 1.241 . S
C50 O43 1.247 . S
C50 O44 1.261 . S
C51 O46 1.259 . S
C51 O48 1.235 . S
O52 Co42 2.021 . S
O52 C49 1.238 . S
O53 Co47 2.052 . S
O53 C49 1.241 . S
O54 Co42 2.137 . S
O54 C45 1.247 . S
O55 Co42 2.244 . S
O55 C45 1.272 . S
O55 Co47 2.135 . S
Co56 O57 2.216 . S
Co56 O58 2.091 . S
Co56 O60 2.004 . S
Co56 O66 2.021 . S
Co56 O68 2.137 . S
Co56 O69 2.244 . S
O57 Co56 2.216 . S
O57 C64 1.247 . S
O58 Co56 2.091 . S
O58 C64 1.261 . S
C59 O68 1.247 . S
C59 O69 1.272 . S
O60 Co56 2.004 . S
O60 C65 1.259 . S
Co61 O62 2.061 . S
Co61 O67 2.052 . S
Co61 O69 2.135 . S
O62 Co61 2.061 . S
O62 C65 1.235 . S
C63 O66 1.238 . S
C63 O67 1.241 . S
C64 O57 1.247 . S
C64 O58 1.261 . S
C65 O60 1.259 . S
C65 O62 1.235 . S
O66 Co56 2.021 . S
O66 C63 1.238 . S
O67 Co61 2.052 . S
O67 C63 1.241 . S
O68 Co56 2.137 . S
O68 C59 1.247 . S
O69 Co56 2.244 . S
O69 C59 1.272 . S
O69 Co61 2.135 . S
Co70 O71 2.216 . S
Co70 O72 2.091 . S
Co70 O74 2.004 . S
Co70 O80 2.021 . S
Co70 O82 2.137 . S
Co70 O83 2.244 . S
O71 Co70 2.216 . S
O71 C78 1.247 . S
O72 Co70 2.091 . S
O72 C78 1.261 . S
C73 O82 1.247 . S
C73 O83 1.272 . S
O74 Co70 2.004 . S
O74 C79 1.259 . S
Co75 O76 2.061 . S
Co75 O81 2.052 . S
Co75 O83 2.135 . S
O76 Co75 2.061 . S
O76 C79 1.235 . S
C77 O80 1.238 . S
C77 O81 1.241 . S
C78 O71 1.247 . S
C78 O72 1.261 . S
C79 O74 1.259 . S
C79 O76 1.235 . S
O80 Co70 2.021 . S
O80 C77 1.238 . S
O81 Co75 2.052 . S
O81 C77 1.241 . S
O82 Co70 2.137 . S
O82 C73 1.247 . S
O83 Co70 2.244 . S
O83 C73 1.272 . S
O83 Co75 2.135 . S
Co84 O85 2.216 . S
Co84 O86 2.091 . S
Co84 O88 2.004 . S
Co84 O94 2.021 . S
Co84 O96 2.137 . S
Co84 O97 2.244 . S
O85 Co84 2.216 . S
O85 C92 1.247 . S
O86 Co84 2.091 . S
O86 C92 1.261 . S
C87 O96 1.247 . S
C87 O97 1.272 . S
O88 Co84 2.004 . S
O88 C93 1.259 . S
Co89 O90 2.061 . S
Co89 O95 2.052 . S
Co89 O97 2.135 . S
O90 Co89 2.061 . S
O90 C93 1.235 . S
C91 O94 1.238 . S
C91 O95 1.241 . S
C92 O85 1.247 . S
C92 O86 1.261 . S
C93 O88 1.259 . S
C93 O90 1.235 . S
O94 Co84 2.021 . S
O94 C91 1.238 . S
O95 Co89 2.052 . S
O95 C91 1.241 . S
O96 Co84 2.137 . S
O96 C87 1.247 . S
O97 Co84 2.244 . S
O97 C87 1.272 . S
O97 Co89 2.135 . S
Co98 O99 2.216 . S
Co98 O100 2.091 . S
Co98 O102 2.004 . S
Co98 O108 2.021 . S
Co98 O110 2.137 . S
Co98 O111 2.244 . S
O99 Co98 2.216 . S
O99 C106 1.247 . S
O100 Co98 2.091 . S
O100 C106 1.261 . S
C101 O110 1.247 . S
C101 O111 1.272 . S
O102 Co98 2.004 . S
O102 C107 1.259 . S
Co103 O104 2.061 . S
Co103 O109 2.052 . S
Co103 O111 2.135 . S
O104 Co103 2.061 . S
O104 C107 1.235 . S
C105 O108 1.238 . S
C105 O109 1.241 . S
C106 O99 1.247 . S
C106 O100 1.261 . S
C107 O102 1.259 . S
C107 O104 1.235 . S
O108 Co98 2.021 . S
O108 C105 1.238 . S
O109 Co103 2.052 . S
O109 C105 1.241 . S
O110 Co98 2.137 . S
O110 C101 1.247 . S
O111 Co98 2.244 . S
O111 C101 1.272 . S
O111 Co103 2.135 . S
Co112 O113 2.216 . S
Co112 O114 2.091 . S
Co112 O116 2.004 . S
Co112 O122 2.021 . S
Co112 O124 2.137 . S
Co112 O125 2.244 . S
O113 Co112 2.216 . S
O113 C120 1.247 . S
O114 Co112 2.091 . S
O114 C120 1.261 . S
C115 O124 1.247 . S
C115 O125 1.272 . S
O116 Co112 2.004 . S
O116 C121 1.259 . S
Co117 O118 2.061 . S
Co117 O123 2.052 . S
Co117 O125 2.135 . S
O118 Co117 2.061 . S
O118 C121 1.235 . S
C119 O122 1.238 . S
C119 O123 1.241 . S
C120 O113 1.247 . S
C120 O114 1.261 . S
C121 O116 1.259 . S
C121 O118 1.235 . S
O122 Co112 2.021 . S
O122 C119 1.238 . S
O123 Co117 2.052 . S
O123 C119 1.241 . S
O124 Co112 2.137 . S
O124 C115 1.247 . S
O125 Co112 2.244 . S
O125 C115 1.272 . S
O125 Co117 2.135 . S
Co126 O127 2.216 . S
Co126 O128 2.091 . S
Co126 O130 2.004 . S
Co126 O136 2.021 . S
Co126 O138 2.137 . S
Co126 O139 2.244 . S
O127 Co126 2.216 . S
O127 C134 1.247 . S
O128 Co126 2.091 . S
O128 C134 1.261 . S
C129 O138 1.247 . S
C129 O139 1.272 . S
O130 Co126 2.004 . S
O130 C135 1.259 . S
Co131 O132 2.061 . S
Co131 O137 2.052 . S
Co131 O139 2.135 . S
O132 Co131 2.061 . S
O132 C135 1.235 . S
C133 O136 1.238 . S
C133 O137 1.241 . S
C134 O127 1.247 . S
C134 O128 1.261 . S
C135 O130 1.259 . S
C135 O132 1.235 . S
O136 Co126 2.021 . S
O136 C133 1.238 . S
O137 Co131 2.052 . S
O137 C133 1.241 . S
O138 Co126 2.137 . S
O138 C129 1.247 . S
O139 Co126 2.244 . S
O139 C129 1.272 . S
O139 Co131 2.135 . S
Co140 O141 2.216 . S
Co140 O142 2.091 . S
Co140 O144 2.004 . S
Co140 O150 2.021 . S
Co140 O152 2.137 . S
Co140 O153 2.244 . S
O141 Co140 2.216 . S
O141 C148 1.247 . S
O142 Co140 2.091 . S
O142 C148 1.261 . S
C143 O152 1.247 . S
C143 O153 1.272 . S
O144 Co140 2.004 . S
O144 C149 1.259 . S
Co145 O146 2.061 . S
Co145 O151 2.052 . S
Co145 O153 2.135 . S
O146 Co145 2.061 . S
O146 C149 1.235 . S
C147 O150 1.238 . S
C147 O151 1.241 . S
C148 O141 1.247 . S
C148 O142 1.261 . S
C149 O144 1.259 . S
C149 O146 1.235 . S
O150 Co140 2.021 . S
O150 C147 1.238 . S
O151 Co145 2.052 . S
O151 C147 1.241 . S
O152 Co140 2.137 . S
O152 C143 1.247 . S
O153 Co140 2.244 . S
O153 C143 1.272 . S
O153 Co145 2.135 . S
Co154 O155 2.216 . S
Co154 O156 2.091 . S
Co154 O158 2.004 . S
Co154 O164 2.021 . S
Co154 O166 2.137 . S
Co154 O167 2.244 . S
O155 Co154 2.216 . S
O155 C162 1.247 . S
O156 Co154 2.091 . S
O156 C162 1.261 . S
C157 O166 1.247 . S
C157 O167 1.272 . S
O158 Co154 2.004 . S
O158 C163 1.259 . S
Co159 O160 2.061 . S
Co159 O165 2.052 . S
Co159 O167 2.135 . S
O160 Co159 2.061 . S
O160 C163 1.235 . S
C161 O164 1.238 . S
C161 O165 1.241 . S
C162 O155 1.247 . S
C162 O156 1.261 . S
C163 O158 1.259 . S
C163 O160 1.235 . S
O164 Co154 2.021 . S
O164 C161 1.238 . S
O165 Co159 2.052 . S
O165 C161 1.241 . S
O166 Co154 2.137 . S
O166 C157 1.247 . S
O167 Co154 2.244 . S
O167 C157 1.272 . S
O167 Co159 2.135 . S
Co168 O169 2.216 . S
Co168 O170 2.091 . S
Co168 O172 2.004 . S
Co168 O178 2.021 . S
Co168 O180 2.137 . S
Co168 O181 2.244 . S
O169 Co168 2.216 . S
O169 C176 1.247 . S
O170 Co168 2.091 . S
O170 C176 1.261 . S
C171 O180 1.247 . S
C171 O181 1.272 . S
O172 Co168 2.004 . S
O172 C177 1.259 . S
Co173 O174 2.061 . S
Co173 O179 2.052 . S
Co173 O181 2.135 . S
O174 Co173 2.061 . S
O174 C177 1.235 . S
C175 O178 1.238 . S
C175 O179 1.241 . S
C176 O169 1.247 . S
C176 O170 1.261 . S
C177 O172 1.259 . S
C177 O174 1.235 . S
O178 Co168 2.021 . S
O178 C175 1.238 . S
O179 Co173 2.052 . S
O179 C175 1.241 . S
O180 Co168 2.137 . S
O180 C171 1.247 . S
O181 Co168 2.244 . S
O181 C171 1.272 . S
O181 Co173 2.135 . S
Co182 O183 2.216 . S
Co182 O184 2.091 . S
Co182 O186 2.004 . S
Co182 O192 2.021 . S
Co182 O194 2.137 . S
Co182 O195 2.244 . S
O183 Co182 2.216 . S
O183 C190 1.247 . S
O184 Co182 2.091 . S
O184 C190 1.261 . S
C185 O194 1.247 . S
C185 O195 1.272 . S
O186 Co182 2.004 . S
O186 C191 1.259 . S
Co187 O188 2.061 . S
Co187 O193 2.052 . S
Co187 O195 2.135 . S
O188 Co187 2.061 . S
O188 C191 1.235 . S
C189 O192 1.238 . S
C189 O193 1.241 . S
C190 O183 1.247 . S
C190 O184 1.261 . S
C191 O186 1.259 . S
C191 O188 1.235 . S
O192 Co182 2.021 . S
O192 C189 1.238 . S
O193 Co187 2.052 . S
O193 C189 1.241 . S
O194 Co182 2.137 . S
O194 C185 1.247 . S
O195 Co182 2.244 . S
O195 C185 1.272 . S
O195 Co187 2.135 . S
Co196 O197 2.216 . S
Co196 O198 2.091 . S
Co196 O200 2.004 . S
Co196 O206 2.021 . S
Co196 O208 2.137 . S
Co196 O209 2.244 . S
O197 Co196 2.216 . S
O197 C204 1.247 . S
O198 Co196 2.091 . S
O198 C204 1.261 . S
C199 O208 1.247 . S
C199 O209 1.272 . S
O200 Co196 2.004 . S
O200 C205 1.259 . S
Co201 O202 2.061 . S
Co201 O207 2.052 . S
Co201 O209 2.135 . S
O202 Co201 2.061 . S
O202 C205 1.235 . S
C203 O206 1.238 . S
C203 O207 1.241 . S
C204 O197 1.247 . S
C204 O198 1.261 . S
C205 O200 1.259 . S
C205 O202 1.235 . S
O206 Co196 2.021 . S
O206 C203 1.238 . S
O207 Co201 2.052 . S
O207 C203 1.241 . S
O208 Co196 2.137 . S
O208 C199 1.247 . S
O209 Co196 2.244 . S
O209 C199 1.272 . S
O209 Co201 2.135 . S
Co210 O211 2.216 . S
Co210 O212 2.091 . S
Co210 O214 2.004 . S
Co210 O220 2.021 . S
Co210 O222 2.137 . S
Co210 O223 2.244 . S
O211 Co210 2.216 . S
O211 C218 1.247 . S
O212 Co210 2.091 . S
O212 C218 1.261 . S
C213 O222 1.247 . S
C213 O223 1.272 . S
O214 Co210 2.004 . S
O214 C219 1.259 . S
Co215 O216 2.061 . S
Co215 O221 2.052 . S
Co215 O223 2.135 . S
O216 Co215 2.061 . S
O216 C219 1.235 . S
C217 O220 1.238 . S
C217 O221 1.241 . S
C218 O211 1.247 . S
C218 O212 1.261 . S
C219 O214 1.259 . S
C219 O216 1.235 . S
O220 Co210 2.021 . S
O220 C217 1.238 . S
O221 Co215 2.052 . S
O221 C217 1.241 . S
O222 Co210 2.137 . S
O222 C213 1.247 . S
O223 Co210 2.244 . S
O223 C213 1.272 . S
O223 Co215 2.135 . S
C224 C225 1.369 1_545 S
C224 C226 1.419 1_655 S
C224 H228 0.930 . S
C225 C224 1.369 1_565 S
C225 C234 1.418 1_655 S
C226 C224 1.419 1_455 S
C226 C227 1.363 . S
C226 H229 0.929 1_455 S
C227 C226 1.363 . S
C227 C233 1.428 1_545 S
H228 C224 0.930 . S
H229 C226 0.929 1_655 S
S230 N231 1.613 . S
S230 N232 1.610 . S
N231 S230 1.613 . S
N231 C234 1.351 . S
N232 S230 1.610 . S
N232 C233 1.351 . S
C233 C227 1.428 1_565 S
C233 N232 1.351 . S
C233 C234 1.445 . S
C234 C225 1.418 1_455 S
C234 N231 1.351 . S
C234 C233 1.445 . S
C235 C236 1.369 . S
C235 C237 1.419 1_655 S
C235 H239 0.930 . S
C236 C235 1.369 . S
C236 C245 1.429 . S
C237 C235 1.419 1_455 S
C237 C238 1.363 . S
C237 H240 0.929 . S
C238 C237 1.363 . S
C238 C244 1.428 . S
H239 C235 0.930 . S
H240 C237 0.929 . S
S241 N242 1.613 . S
S241 N243 1.610 1_655 S
N242 S241 1.613 . S
N242 C245 1.350 . S
N243 S241 1.610 1_455 S
N243 C244 1.351 . S
C244 C238 1.428 . S
C244 N243 1.351 . S
C244 C245 1.434 1_455 S
C245 C236 1.429 . S
C245 N242 1.350 . S
C245 C244 1.434 1_655 S
C246 C247 1.369 . S
C246 C248 1.419 . S
C246 H250 0.930 . S
C247 C246 1.369 . S
C247 C256 1.429 . S
C248 C246 1.419 . S
C248 C249 1.363 . S
C248 H251 0.929 . S
C249 C248 1.363 . S
C249 C255 1.428 . S
H250 C246 0.930 . S
H251 C248 0.929 . S
S252 N253 1.613 . S
S252 N254 1.610 . S
N253 S252 1.613 . S
N253 C256 1.350 . S
N254 S252 1.610 . S
N254 C255 1.351 . S
C255 C249 1.428 . S
C255 N254 1.351 . S
C255 C256 1.434 . S
C256 C247 1.429 . S
C256 N253 1.350 . S
C256 C255 1.434 . S
C257 C258 1.369 . S
C257 C259 1.419 1_545 S
C257 H261 0.930 . S
C258 C257 1.369 . S
C258 C267 1.429 . S
C259 C257 1.419 1_565 S
C259 C260 1.363 . S
C259 H262 0.929 . S
C260 C259 1.363 . S
C260 C266 1.428 . S
H261 C257 0.930 . S
H262 C259 0.929 . S
S263 N264 1.613 . S
S263 N265 1.610 1_545 S
N264 S263 1.613 . S
N264 C267 1.350 . S
N265 S263 1.610 1_565 S
N265 C266 1.351 . S
C266 C260 1.428 . S
C266 N265 1.351 . S
C266 C267 1.434 1_565 S
C267 C258 1.429 . S
C267 N264 1.350 . S
C267 C266 1.434 1_545 S
C268 C269 1.369 1_655 S
C268 C270 1.419 . S
C268 H272 0.930 . S
C269 C268 1.369 1_455 S
C269 C278 1.429 . S
C270 C268 1.419 . S
C270 C271 1.363 . S
C270 H273 0.929 . S
C271 C270 1.363 . S
C271 C277 1.428 1_655 S
H272 C268 0.930 . S
H273 C270 0.929 . S
S274 N275 1.613 . S
S274 N276 1.610 . S
N275 S274 1.613 . S
N275 C278 1.350 . S
N276 S274 1.610 . S
N276 C277 1.351 . S
C277 C271 1.428 1_455 S
C277 N276 1.351 . S
C277 C278 1.434 . S
C278 C269 1.429 . S
C278 N275 1.350 . S
C278 C277 1.434 . S
C279 C280 1.369 . S
C279 C281 1.419 . S
C279 H283 0.930 . S
C280 C279 1.369 . S
C280 C289 1.429 . S
C281 C279 1.419 . S
C281 C282 1.363 . S
C281 H284 0.929 . S
C282 C281 1.363 . S
C282 C288 1.428 . S
H283 C279 0.930 . S
H284 C281 0.929 . S
S285 N286 1.613 . S
S285 N287 1.610 . S
N286 S285 1.613 . S
N286 C289 1.350 . S
N287 S285 1.610 . S
N287 C288 1.351 . S
C288 C282 1.428 . S
C288 N287 1.351 . S
C288 C289 1.434 . S
C289 C280 1.429 . S
C289 N286 1.350 . S
C289 C288 1.434 . S
C290 C291 1.369 . S
C290 C292 1.419 . S
C290 H294 0.930 . S
C291 C290 1.369 . S
C291 C300 1.429 1_545 S
C292 C290 1.419 . S
C292 C293 1.363 1_545 S
C292 H295 0.929 . S
C293 C292 1.363 1_565 S
C293 C299 1.428 . S
H294 C290 0.930 . S
H295 C292 0.929 . S
S296 N297 1.613 . S
S296 N298 1.610 . S
N297 S296 1.613 . S
N297 C300 1.350 . S
N298 S296 1.610 . S
N298 C299 1.351 . S
C299 C293 1.428 . S
C299 N298 1.351 . S
C299 C300 1.434 . S
C300 C291 1.429 1_565 S
C300 N297 1.350 . S
C300 C299 1.434 . S
C301 C302 1.369 1_655 S
C301 C303 1.419 1_545 S
C301 H305 0.930 . S
C302 C301 1.369 1_455 S
C302 C311 1.419 1_545 S
C303 C301 1.419 1_565 S
C303 C304 1.363 . S
C303 H306 0.929 . S
C304 C303 1.363 . S
C304 C310 1.428 1_655 S
H305 C301 0.930 . S
H306 C303 0.929 . S
S307 N308 1.613 . S
S307 N309 1.610 . S
N308 S307 1.613 . S
N308 C311 1.351 . S
N309 S307 1.610 . S
N309 C310 1.351 . S
C310 C304 1.428 1_455 S
C310 N309 1.351 . S
C310 C311 1.443 . S
C311 C302 1.419 1_565 S
C311 N308 1.351 . S
C311 C310 1.443 . S
C312 C313 1.369 . S
C312 C314 1.419 . S
C312 H316 0.930 . S
C313 C312 1.369 . S
C313 C322 1.429 1_565 S
C314 C312 1.419 . S
C314 C315 1.363 1_565 S
C314 H317 0.929 . S
C315 C314 1.363 1_545 S
C315 C321 1.428 . S
H316 C312 0.930 . S
H317 C314 0.929 . S
S318 N319 1.613 . S
S318 N320 1.610 . S
N319 S318 1.613 . S
N319 C322 1.350 . S
N320 S318 1.610 . S
N320 C321 1.351 . S
C321 C315 1.428 . S
C321 N320 1.351 . S
C321 C322 1.434 . S
C322 C313 1.429 1_545 S
C322 N319 1.350 . S
C322 C321 1.434 . S
C323 C324 1.369 . S
C323 C325 1.419 1_565 S
C323 H327 0.930 . S
C324 C323 1.369 . S
C324 C333 1.429 1_655 S
C325 C323 1.419 1_545 S
C325 C326 1.363 1_655 S
C325 H328 0.929 . S
C326 C325 1.363 1_455 S
C326 C332 1.428 . S
H327 C323 0.930 . S
H328 C325 0.929 . S
S329 N330 1.613 . S
S329 N331 1.610 1_565 S
N330 S329 1.613 . S
N330 C333 1.350 . S
N331 S329 1.610 1_545 S
N331 C332 1.351 . S
C332 C326 1.428 . S
C332 N331 1.351 . S
C332 C333 1.434 1_545 S
C333 C324 1.429 1_455 S
C333 N330 1.350 . S
C333 C332 1.434 1_565 S
C334 C335 1.369 . S
C334 C336 1.419 1_455 S
C334 H338 0.930 . S
C335 C334 1.369 . S
C335 C344 1.429 . S
C336 C334 1.419 1_655 S
C336 C337 1.363 . S
C336 H339 0.929 . S
C337 C336 1.363 . S
C337 C343 1.428 . S
H338 C334 0.930 . S
H339 C336 0.929 . S
S340 N341 1.613 1_655 S
S340 N342 1.610 . S
N341 S340 1.613 1_455 S
N341 C344 1.350 . S
N342 S340 1.610 . S
N342 C343 1.351 . S
C343 C337 1.428 . S
C343 N342 1.351 . S
C343 C344 1.434 1_655 S
C344 C335 1.429 . S
C344 N341 1.350 . S
C344 C343 1.434 1_455 S
C345 C346 1.369 . S
C345 C347 1.419 . S
C345 H349 0.930 . S
C346 C345 1.369 . S
C346 C355 1.429 . S
C347 C345 1.419 . S
C347 C348 1.363 . S
C347 H350 0.929 . S
C348 C347 1.363 . S
C348 C354 1.428 . S
H349 C345 0.930 . S
H350 C347 0.929 . S
S351 N352 1.613 . S
S351 N353 1.610 . S
N352 S351 1.613 . S
N352 C355 1.350 . S
N353 S351 1.610 . S
N353 C354 1.351 . S
C354 C348 1.428 . S
C354 N353 1.351 . S
C354 C355 1.434 . S
C355 C346 1.429 . S
C355 N352 1.350 . S
C355 C354 1.434 . S
C356 C357 1.369 . S
C356 C358 1.419 . S
C356 H360 0.930 . S
C357 C356 1.369 . S
C357 C366 1.429 . S
C358 C356 1.419 . S
C358 C359 1.363 . S
C358 H361 0.929 . S
C359 C358 1.363 . S
C359 C365 1.428 . S
H360 C356 0.930 . S
H361 C358 0.929 . S
S362 N363 1.613 . S
S362 N364 1.610 . S
N363 S362 1.613 . S
N363 C366 1.350 . S
N364 S362 1.610 . S
N364 C365 1.351 . S
C365 C359 1.428 . S
C365 N364 1.351 . S
C365 C366 1.434 . S
C366 C357 1.429 . S
C366 N363 1.350 . S
C366 C365 1.434 . S
C367 C368 1.369 . S
C367 C369 1.419 1_565 S
C367 H371 0.930 . S
C368 C367 1.369 . S
C368 C377 1.429 . S
C369 C367 1.419 1_545 S
C369 C370 1.363 . S
C369 H372 0.929 . S
C370 C369 1.363 . S
C370 C376 1.428 . S
H371 C367 0.930 . S
H372 C369 0.929 . S
S373 N374 1.613 . S
S373 N375 1.610 1_565 S
N374 S373 1.613 . S
N374 C377 1.350 . S
N375 S373 1.610 1_545 S
N375 C376 1.351 . S
C376 C370 1.428 . S
C376 N375 1.351 . S
C376 C377 1.434 1_545 S
C377 C368 1.429 . S
C377 N374 1.350 . S
C377 C376 1.434 1_565 S
C378 C379 1.369 . S
C378 C380 1.419 1_665 S
C378 H382 0.930 . S
C379 C378 1.369 . S
C379 C388 1.429 . S
C380 C378 1.419 1_445 S
C380 C381 1.363 . S
C380 H383 0.929 . S
C381 C380 1.363 . S
C381 C387 1.428 . S
H382 C378 0.930 . S
H383 C380 0.929 . S
S384 N385 1.613 1_455 S
S384 N386 1.610 1_565 S
N385 S384 1.613 1_655 S
N385 C388 1.350 . S
N386 S384 1.610 1_545 S
N386 C387 1.351 . S
C387 C381 1.428 . S
C387 N386 1.351 . S
C387 C388 1.434 1_445 S
C388 C379 1.429 . S
C388 N385 1.350 . S
C388 C387 1.434 1_665 S
C389 C390 1.369 . S
C389 C391 1.419 . S
C389 H393 0.930 . S
C390 C389 1.369 . S
C390 C399 1.429 1_455 S
C391 C389 1.419 . S
C391 C392 1.363 1_455 S
C391 H394 0.929 . S
C392 C391 1.363 1_655 S
C392 C398 1.428 . S
H393 C389 0.930 . S
H394 C391 0.929 . S
S395 N396 1.613 . S
S395 N397 1.610 . S
N396 S395 1.613 . S
N396 C399 1.350 . S
N397 S395 1.610 . S
N397 C398 1.351 . S
C398 C392 1.428 . S
C398 N397 1.351 . S
C398 C399 1.434 . S
C399 C390 1.429 1_655 S
C399 N396 1.350 . S
C399 C398 1.434 . S
C400 C401 1.369 . S
C400 C402 1.419 . S
C400 H404 0.930 . S
C401 C400 1.369 . S
C401 C410 1.429 . S
C402 C400 1.419 . S
C402 C403 1.363 . S
C402 H405 0.929 . S
C403 C402 1.363 . S
C403 C409 1.428 . S
H404 C400 0.930 . S
H405 C402 0.929 . S
S406 N407 1.613 . S
S406 N408 1.610 . S
N407 S406 1.613 . S
N407 C410 1.350 . S
N408 S406 1.610 . S
N408 C409 1.351 . S
C409 C403 1.428 . S
C409 N408 1.351 . S
C409 C410 1.434 . S
C410 C401 1.429 . S
C410 N407 1.350 . S
C410 C409 1.434 . S
C411 C412 1.369 . S
C411 C413 1.419 . S
C411 H415 0.930 . S
C412 C411 1.369 . S
C412 C421 1.429 . S
C413 C411 1.419 . S
C413 C414 1.363 . S
C413 H416 0.929 . S
C414 C413 1.363 . S
C414 C420 1.428 . S
H415 C411 0.930 . S
H416 C413 0.929 . S
S417 N418 1.613 . S
S417 N419 1.610 . S
N418 S417 1.613 . S
N418 C421 1.350 . S
N419 S417 1.610 . S
N419 C420 1.351 . S
C420 C414 1.428 . S
C420 N419 1.351 . S
C420 C421 1.434 . S
C421 C412 1.429 . S
C421 N418 1.350 . S
C421 C420 1.434 . S
C422 C423 1.369 . S
C422 C424 1.419 . S
C422 H426 0.930 . S
C423 C422 1.369 . S
C423 C432 1.429 . S
C424 C422 1.419 . S
C424 C425 1.363 . S
C424 H427 0.929 . S
C425 C424 1.363 . S
C425 C431 1.428 . S
H426 C422 0.930 . S
H427 C424 0.929 . S
S428 N429 1.613 . S
S428 N430 1.610 . S
N429 S428 1.613 . S
N429 C432 1.350 . S
N430 S428 1.610 . S
N430 C431 1.351 . S
C431 C425 1.428 . S
C431 N430 1.351 . S
C431 C432 1.434 . S
C432 C423 1.429 . S
C432 N429 1.350 . S
C432 C431 1.434 . S
C433 C434 1.369 . S
C433 C435 1.419 . S
C433 H437 0.930 . S
C434 C433 1.369 . S
C434 C443 1.429 . S
C435 C433 1.419 . S
C435 C436 1.363 . S
C435 H438 0.929 . S
C436 C435 1.363 . S
C436 C442 1.428 . S
H437 C433 0.930 . S
H438 C435 0.929 . S
S439 N440 1.613 . S
S439 N441 1.610 . S
N440 S439 1.613 . S
N440 C443 1.350 . S
N441 S439 1.610 . S
N441 C442 1.351 . S
C442 C436 1.428 . S
C442 N441 1.351 . S
C442 C443 1.434 . S
C443 C434 1.429 . S
C443 N440 1.350 . S
C443 C442 1.434 . S
C444 C445 1.369 . S
C444 C446 1.419 . S
C444 H448 0.930 . S
C445 C444 1.369 . S
C445 C454 1.429 . S
C446 C444 1.419 . S
C446 C447 1.363 . S
C446 H449 0.929 . S
C447 C446 1.363 . S
C447 C453 1.428 . S
H448 C444 0.930 . S
H449 C446 0.929 . S
S450 N451 1.613 . S
S450 N452 1.610 . S
N451 S450 1.613 . S
N451 C454 1.350 . S
N452 S450 1.610 . S
N452 C453 1.351 . S
C453 C447 1.428 . S
C453 N452 1.351 . S
C453 C454 1.434 . S
C454 C445 1.429 . S
C454 N451 1.350 . S
C454 C453 1.434 . S
C455 C456 1.369 . S
C455 C457 1.419 . S
C455 H459 0.930 . S
C456 C455 1.369 . S
C456 C465 1.429 . S
C457 C455 1.419 . S
C457 C458 1.363 . S
C457 H460 0.929 . S
C458 C457 1.363 . S
C458 C464 1.428 . S
H459 C455 0.930 . S
H460 C457 0.929 . S
S461 N462 1.613 . S
S461 N463 1.610 . S
N462 S461 1.613 . S
N462 C465 1.350 . S
N463 S461 1.610 . S
N463 C464 1.351 . S
C464 C458 1.428 . S
C464 N463 1.351 . S
C464 C465 1.434 . S
C465 C456 1.429 . S
C465 N462 1.350 . S
C465 C464 1.434 . S
C466 C467 1.369 . S
C466 C468 1.419 . S
C466 H470 0.930 . S
C467 C466 1.369 . S
C467 C476 1.429 . S
C468 C466 1.419 . S
C468 C469 1.363 . S
C468 H471 0.929 . S
C469 C468 1.363 . S
C469 C475 1.428 . S
H470 C466 0.930 . S
H471 C468 0.929 . S
S472 N473 1.613 . S
S472 N474 1.610 . S
N473 S472 1.613 . S
N473 C476 1.350 . S
N474 S472 1.610 . S
N474 C475 1.351 . S
C475 C469 1.428 . S
C475 N474 1.351 . S
C475 C476 1.434 . S
C476 C467 1.429 . S
C476 N473 1.350 . S
C476 C475 1.434 . S
C477 C478 1.369 . S
C477 C479 1.419 . S
C477 H481 0.930 . S
C478 C477 1.369 . S
C478 C487 1.429 . S
C479 C477 1.419 . S
C479 C480 1.363 . S
C479 H482 0.929 . S
C480 C479 1.363 . S
C480 C486 1.428 . S
H481 C477 0.930 . S
H482 C479 0.929 . S
S483 N484 1.613 . S
S483 N485 1.610 . S
N484 S483 1.613 . S
N484 C487 1.350 . S
N485 S483 1.610 . S
N485 C486 1.351 . S
C486 C480 1.428 . S
C486 N485 1.351 . S
C486 C487 1.434 . S
C487 C478 1.429 . S
C487 N484 1.350 . S
C487 C486 1.434 . S
C488 C489 1.369 . S
C488 C490 1.419 . S
C488 H492 0.930 . S
C489 C488 1.369 . S
C489 C498 1.429 . S
C490 C488 1.419 . S
C490 C491 1.363 . S
C490 H493 0.929 . S
C491 C490 1.363 . S
C491 C497 1.428 . S
H492 C488 0.930 . S
H493 C490 0.929 . S
S494 N495 1.613 . S
S494 N496 1.610 . S
N495 S494 1.613 . S
N495 C498 1.350 . S
N496 S494 1.610 . S
N496 C497 1.351 . S
C497 C491 1.428 . S
C497 N496 1.351 . S
C497 C498 1.434 . S
C498 C489 1.429 . S
C498 N495 1.350 . S
C498 C497 1.434 . S
C499 C500 1.369 . S
C499 C501 1.419 . S
C499 H503 0.930 . S
C500 C499 1.369 . S
C500 C509 1.429 . S
C501 C499 1.419 . S
C501 C502 1.363 . S
C501 H504 0.929 . S
C502 C501 1.363 . S
C502 C508 1.428 . S
H503 C499 0.930 . S
H504 C501 0.929 . S
S505 N506 1.613 . S
S505 N507 1.610 . S
N506 S505 1.613 . S
N506 C509 1.350 . S
N507 S505 1.610 . S
N507 C508 1.351 . S
C508 C502 1.428 . S
C508 N507 1.351 . S
C508 C509 1.434 . S
C509 C500 1.429 . S
C509 N506 1.350 . S
C509 C508 1.434 . S
C510 C511 1.369 . S
C510 C512 1.419 . S
C510 H514 0.930 . S
C511 C510 1.369 . S
C511 C520 1.429 . S
C512 C510 1.419 . S
C512 C513 1.363 . S
C512 H515 0.929 . S
C513 C512 1.363 . S
C513 C519 1.428 . S
H514 C510 0.930 . S
H515 C512 0.929 . S
S516 N517 1.613 . S
S516 N518 1.610 . S
N517 S516 1.613 . S
N517 C520 1.350 . S
N518 S516 1.610 . S
N518 C519 1.351 . S
C519 C513 1.428 . S
C519 N518 1.351 . S
C519 C520 1.434 . S
C520 C511 1.429 . S
C520 N517 1.350 . S
C520 C519 1.434 . S
C521 C522 1.369 . S
C521 C523 1.419 1_556 S
C521 H525 0.930 . S
C522 C521 1.369 . S
C522 C531 1.429 . S
C523 C521 1.419 1_554 S
C523 C524 1.363 . S
C523 H526 0.929 . S
C524 C523 1.363 . S
C524 C530 1.428 . S
H525 C521 0.930 . S
H526 C523 0.929 . S
S527 N528 1.613 1_554 S
S527 N529 1.610 . S
N528 S527 1.613 1_556 S
N528 C531 1.350 . S
N529 S527 1.610 . S
N529 C530 1.351 . S
C530 C524 1.428 . S
C530 N529 1.351 . S
C530 C531 1.434 1_554 S
C531 C522 1.429 . S
C531 N528 1.350 . S
C531 C530 1.434 1_556 S
C532 C533 1.369 . S
C532 C534 1.419 1_554 S
C532 H536 0.930 . S
C533 C532 1.369 . S
C533 C542 1.429 . S
C534 C532 1.419 1_556 S
C534 C535 1.363 . S
C534 H537 0.929 . S
C535 C534 1.363 . S
C535 C541 1.428 . S
H536 C532 0.930 . S
H537 C534 0.929 . S
S538 N539 1.586 1_556 S
S538 N540 1.637 . S
N539 S538 1.586 1_554 S
N539 C542 1.350 . S
N540 S538 1.637 . S
N540 C541 1.351 . S
C541 C535 1.428 . S
C541 N540 1.351 . S
C541 C542 1.434 1_556 S
C542 C533 1.429 . S
C542 N539 1.350 . S
C542 C541 1.434 1_554 S
C543 C544 1.369 . S
C543 C545 1.419 . S
C543 H547 0.930 . S
C544 C543 1.369 . S
C544 C553 1.429 . S
C545 C543 1.419 . S
C545 C546 1.363 . S
C545 H548 0.929 . S
C546 C545 1.363 . S
C546 C552 1.428 . S
H547 C543 0.930 . S
H548 C545 0.929 . S
S549 N550 1.613 . S
S549 N551 1.610 . S
N550 S549 1.613 . S
N550 C553 1.350 . S
N551 S549 1.610 . S
N551 C552 1.351 . S
C552 C546 1.428 . S
C552 N551 1.351 . S
C552 C553 1.434 . S
C553 C544 1.429 . S
C553 N550 1.350 . S
C553 C552 1.434 . S
C554 C555 1.369 . S
C554 C556 1.419 . S
C554 H558 0.930 . S
C555 C554 1.369 . S
C555 C564 1.429 . S
C556 C554 1.419 . S
C556 C557 1.363 . S
C556 H559 0.929 . S
C557 C556 1.363 . S
C557 C563 1.428 . S
H558 C554 0.930 . S
H559 C556 0.929 . S
S560 N561 1.613 . S
S560 N562 1.610 . S
N561 S560 1.613 . S
N561 C564 1.350 . S
N562 S560 1.610 . S
N562 C563 1.351 . S
C563 C557 1.428 . S
C563 N562 1.351 . S
C563 C564 1.434 . S
C564 C555 1.429 . S
C564 N561 1.350 . S
C564 C563 1.434 . S
C565 C566 1.369 . S
C565 C567 1.419 . S
C565 H569 0.930 . S
C566 C565 1.369 . S
C566 C575 1.429 . S
C567 C565 1.419 . S
C567 C568 1.363 . S
C567 H570 0.929 . S
C568 C567 1.363 . S
C568 C574 1.428 . S
H569 C565 0.930 . S
H570 C567 0.929 . S
S571 N572 1.613 . S
S571 N573 1.610 . S
N572 S571 1.613 . S
N572 C575 1.350 . S
N573 S571 1.610 . S
N573 C574 1.351 . S
C574 C568 1.428 . S
C574 N573 1.351 . S
C574 C575 1.434 . S
C575 C566 1.429 . S
C575 N572 1.350 . S
C575 C574 1.434 . S
C225 C148 1.581 . S
C227 C8 1.579 . S
C236 C22 1.579 . S
C238 C162 1.580 . S
C247 C120 1.577 . S
C249 C36 1.582 . S
C258 C134 1.578 . S
C260 C50 1.581 . S
C269 C64 1.578 . S
C271 C204 1.581 . S
C280 C218 1.581 . S
C282 C78 1.580 . S
C291 C92 1.577 . S
C293 C176 1.581 . S
C302 C190 1.582 . S
C304 C106 1.578 . S
C313 C149 1.495 . S
C315 C9 1.492 . S
C324 C23 1.493 . S
C326 C163 1.493 . S
C335 C37 1.492 . S
C337 C121 1.494 . S
C346 C51 1.495 . S
C348 C135 1.492 . S
C357 C65 1.495 . S
C359 C205 1.492 . S
C368 C79 1.493 . S
C370 C219 1.493 . S
C379 C177 1.492 . S
C381 C93 1.494 . S
C390 C191 1.495 . S
C392 C107 1.492 . S
C401 C7 1.373 . S
C403 C91 1.374 . S
C412 C21 1.370 . S
C414 C105 1.375 . S
C423 C35 1.373 . S
C425 C63 1.371 . S
C434 C49 1.376 . S
C436 C77 1.371 . S
C445 C119 1.374 . S
C447 C203 1.373 . S
C456 C217 1.372 . S
C458 C133 1.375 . S
C467 C147 1.369 . S
C469 C175 1.375 . S
C478 C189 1.375 . S
C480 C161 1.370 . S
C489 C3 1.351 . S
C491 C213 1.344 . S
C500 C171 1.343 . S
C502 C17 1.350 . S
C511 C185 1.342 . S
C513 C31 1.348 . S
C522 C199 1.342 . S
C524 C45 1.348 . S
C533 C129 1.345 . S
C535 C59 1.344 . S
C544 C143 1.342 . S
C546 C73 1.348 . S
C555 C87 1.342 . S
C557 C157 1.350 . S
C566 C101 1.346 . S
C568 C115 1.351 . S
