# Generated by pormake.
# Topology wjs, (5)-cn, num edge types: 1
# Building blocks:
#     Node 0, Type 0, BuildingBlock: XOMCOT_clean_sbu_1, # of connection points: 5
#     Node 1, Type 0, BuildingBlock: XOMCOT_clean_sbu_1, # of connection points: 5
#     Node 2, Type 0, BuildingBlock: XOMCOT_clean_sbu_1, # of connection points: 5
#     Node 3, Type 0, BuildingBlock: XOMCOT_clean_sbu_1, # of connection points: 5
#     Node 4, Type 0, BuildingBlock: XOMCOT_clean_sbu_1, # of connection points: 5
#     Node 5, Type 0, BuildingBlock: XOMCOT_clean_sbu_1, # of connection points: 5
#     Node 6, Type 0, BuildingBlock: XOMCOT_clean_sbu_1, # of connection points: 5
#     Node 7, Type 0, BuildingBlock: XOMCOT_clean_sbu_1, # of connection points: 5
#     Node 8, Type 0, BuildingBlock: XOMCOT_clean_sbu_1, # of connection points: 5
#     Node 9, Type 0, BuildingBlock: XOMCOT_clean_sbu_1, # of connection points: 5
#     Node 10, Type 0, BuildingBlock: XOMCOT_clean_sbu_1, # of connection points: 5
#     Node 11, Type 0, BuildingBlock: XOMCOT_clean_sbu_1, # of connection points: 5
#     Edge 12, Type (0, 0), BuildingBlock: XUDNAN_clean_linker_2, # of connection points: 2
#     Edge 13, Type (0, 0), BuildingBlock: XUDNAN_clean_linker_2, # of connection points: 2
#     Edge 14, Type (0, 0), BuildingBlock: XUDNAN_clean_linker_2, # of connection points: 2
#     Edge 15, Type (0, 0), BuildingBlock: XUDNAN_clean_linker_2, # of connection points: 2
#     Edge 16, Type (0, 0), BuildingBlock: XUDNAN_clean_linker_2, # of connection points: 2
#     Edge 17, Type (0, 0), BuildingBlock: XUDNAN_clean_linker_2, # of connection points: 2
#     Edge 18, Type (0, 0), BuildingBlock: XUDNAN_clean_linker_2, # of connection points: 2
#     Edge 19, Type (0, 0), BuildingBlock: XUDNAN_clean_linker_2, # of connection points: 2
#     Edge 20, Type (0, 0), BuildingBlock: XUDNAN_clean_linker_2, # of connection points: 2
#     Edge 21, Type (0, 0), BuildingBlock: XUDNAN_clean_linker_2, # of connection points: 2
#     Edge 22, Type (0, 0), BuildingBlock: XUDNAN_clean_linker_2, # of connection points: 2
#     Edge 23, Type (0, 0), BuildingBlock: XUDNAN_clean_linker_2, # of connection points: 2
#     Edge 24, Type (0, 0), BuildingBlock: XUDNAN_clean_linker_2, # of connection points: 2
#     Edge 25, Type (0, 0), BuildingBlock: XUDNAN_clean_linker_2, # of connection points: 2
#     Edge 26, Type (0, 0), BuildingBlock: XUDNAN_clean_linker_2, # of connection points: 2
#     Edge 27, Type (0, 0), BuildingBlock: XUDNAN_clean_linker_2, # of connection points: 2
#     Edge 28, Type (0, 0), BuildingBlock: XUDNAN_clean_linker_2, # of connection points: 2
#     Edge 29, Type (0, 0), BuildingBlock: XUDNAN_clean_linker_2, # of connection points: 2
#     Edge 30, Type (0, 0), BuildingBlock: XUDNAN_clean_linker_2, # of connection points: 2
#     Edge 31, Type (0, 0), BuildingBlock: XUDNAN_clean_linker_2, # of connection points: 2
#     Edge 32, Type (0, 0), BuildingBlock: XUDNAN_clean_linker_2, # of connection points: 2
#     Edge 33, Type (0, 0), BuildingBlock: XUDNAN_clean_linker_2, # of connection points: 2
#     Edge 34, Type (0, 0), BuildingBlock: XUDNAN_clean_linker_2, # of connection points: 2
#     Edge 35, Type (0, 0), BuildingBlock: XUDNAN_clean_linker_2, # of connection points: 2
#     Edge 36, Type (0, 0), BuildingBlock: XUDNAN_clean_linker_2, # of connection points: 2
#     Edge 37, Type (0, 0), BuildingBlock: XUDNAN_clean_linker_2, # of connection points: 2
#     Edge 38, Type (0, 0), BuildingBlock: XUDNAN_clean_linker_2, # of connection points: 2
#     Edge 39, Type (0, 0), BuildingBlock: XUDNAN_clean_linker_2, # of connection points: 2
#     Edge 40, Type (0, 0), BuildingBlock: XUDNAN_clean_linker_2, # of connection points: 2
#     Edge 41, Type (0, 0), BuildingBlock: XUDNAN_clean_linker_2, # of connection points: 2
# Relax obj value: 0.371
# Max RMSD: 0.267
# Mean RMSD: 0.267
data_MOF--net-wjs--node1-XOMCOT_clean_sbu_1--edge1-XUDNAN_clean_linker_2
_symmetry_space_group_name_H-M    P1
_symmetry_Int_Tables_number       1
_symmetry_cell_setting            triclinic
loop_
_symmetry_equiv_pos_as_xyz
'x, y, z'
_cell_length_a     31.109146
_cell_length_b     31.12414
_cell_length_c     67.230304
_cell_angle_alpha  89.881221
_cell_angle_beta   90.120252
_cell_angle_gamma 119.99245
loop_
_atom_site_label
_atom_site_type_symbol
_atom_site_fract_x
_atom_site_fract_y
_atom_site_fract_z
_atom_type_partial_charge
C0 C 0.2793 0.36915 0.05851 0.0
C1 C 0.29275 0.34434 0.0718 0.0
N2 N 0.26877 0.296 0.06679 0.0
N3 N 0.24692 0.33651 0.04527 0.0
C4 C 0.24131 0.29218 0.05062 0.0
H5 H 0.29092 0.4082 0.05887 0.0
Co6 Co 0.21286 0.35192 0.02661 0.0
C7 C 0.1694 0.26415 1.00002 0.0
O8 O 0.12459 0.25729 1.00276 0.0
N9 N 0.17858 0.36849 0.00813 0.0
C10 C 0.15135 0.38345 0.97986 0.0
C11 C 0.18412 0.37108 0.98819 0.0
C12 C 0.14302 0.38043 0.01163 0.0
N13 N 0.1255 0.3893 0.99462 0.0
O14 O 0.15201 0.30734 0.04017 0.0
H15 H 0.21014 0.36408 0.98019 0.0
H16 H 0.12954 0.38165 0.02631 0.0
O17 O 0.20612 0.29899 0.00926 0.0
C18 C 0.14788 0.32467 0.05675 0.0
O19 O 0.17982 0.37121 0.06095 0.0
N20 N 0.27385 0.39664 0.01464 0.0
C21 C 0.37302 0.46623 0.00678 0.0
C22 C 0.35503 0.41546 1.00393 0.0
C23 C 0.3056 0.38132 0.00815 0.0
C24 C 0.28972 0.44597 0.01639 0.0
C25 C 0.33929 0.48151 0.01252 0.0
H26 H 0.29445 0.34255 0.0079 0.0
H27 H 0.26468 0.45765 0.02208 0.0
H28 H 0.21565 0.25749 0.04349 0.0
H29 H 0.31754 0.36038 0.08437 0.0
H30 H 0.14716 0.38818 0.96416 0.0
H31 H 0.37978 0.40173 1.00007 0.0
H32 H 0.35158 0.52037 0.01489 0.0
C33 C 0.91916 0.26834 0.21806 0.0
C34 C 0.96196 0.28759 0.22913 0.0
N35 N 0.9863 0.26366 0.22403 0.0
N36 N 0.91694 0.23296 0.20588 0.0
C37 C 0.95811 0.23041 0.21002 0.0
H38 H 0.89208 0.28045 0.21834 0.0
Co39 Co 0.86812 0.20199 0.1868 0.0
C40 C 0.90464 0.15047 0.15951 0.0
O41 O 0.86036 0.11354 0.15508 0.0
N42 N 0.81736 0.17131 0.1677 0.0
C43 C 0.77539 0.14936 0.13918 0.0
C44 C 0.82068 0.17993 0.1479 0.0
C45 C 0.76934 0.13616 0.17065 0.0
N46 N 0.7431 0.12177 0.15352 0.0
O47 O 0.84114 0.14179 0.20204 0.0
H48 H 0.85419 0.20609 0.1402 0.0
H49 H 0.75388 0.12056 0.18501 0.0
O50 O 0.9097 0.1833 0.17207 0.0
C51 C 0.8144 0.13963 0.21675 0.0
O52 O 0.80398 0.17528 0.21925 0.0
N53 N 0.89572 0.26288 0.17284 0.0
C54 C 0.94112 0.36056 0.15893 0.0
C55 C 0.9643 0.33223 0.15676 0.0
C56 C 0.94149 0.28391 0.16406 0.0
C57 C 0.87166 0.28923 0.17449 0.0
C58 C 0.89388 0.33841 0.16773 0.0
H59 H 0.96254 0.26503 0.16351 0.0
H60 H 0.8361 0.27276 0.18191 0.0
H61 H 0.96846 0.20643 0.20234 0.0
H62 H 0.97476 0.31749 0.23982 0.0
H63 H 0.76689 0.14776 0.12348 0.0
H64 H 1.00126 0.34826 0.15054 0.0
H65 H 0.87489 0.35925 0.16978 0.0
C66 C 0.64345 0.95039 0.39606 0.0
C67 C 0.67108 0.99653 0.40431 0.0
N68 N 0.71729 0.01717 0.39687 0.0
N69 N 0.67183 0.94223 0.38319 0.0
C70 C 0.71709 0.98344 0.38421 0.0
H71 H 0.60487 0.9243 0.39916 0.0
Co72 Co 0.64676 0.88369 0.36871 0.0
C73 C 0.72902 0.93744 0.33729 0.0
O74 O 0.76713 0.93891 0.34639 0.0
N75 N 0.62073 0.82441 0.35462 0.0
C76 C 0.58736 0.76732 0.33094 0.0
C77 C 0.60499 0.81632 0.33556 0.0
C78 C 0.61239 0.77989 0.36128 0.0
N79 N 0.59209 0.74442 0.34713 0.0
O80 O 0.6975 0.87223 0.37971 0.0
H81 H 0.60567 0.8441 0.32571 0.0
H82 H 0.62016 0.7734 0.37634 0.0
O83 O 0.68681 0.91776 0.34577 0.0
C84 C 0.69258 0.86212 0.39826 0.0
O85 O 0.6545 0.85973 0.4077 0.0
N86 N 0.59624 0.89489 0.35895 0.0
C87 C 0.52329 0.92109 0.35307 0.0
C88 C 0.57196 0.95186 0.34634 0.0
C89 C 0.60783 0.93832 0.34952 0.0
C90 C 0.54861 0.86305 0.36467 0.0
C91 C 0.51143 0.87537 0.36181 0.0
H92 H 0.64579 0.96501 0.34583 0.0
H93 H 0.54005 0.82934 0.37253 0.0
H94 H 0.74897 0.98895 0.37574 0.0
H95 H 0.65845 0.01346 0.41514 0.0
H96 H 0.57254 0.74998 0.3167 0.0
H97 H 0.58343 0.98804 0.34002 0.0
H98 H 0.47428 0.85028 0.36714 0.0
C99 C 0.72586 0.63397 0.54864 0.0
C100 C 0.70412 0.65558 0.55929 0.0
N101 N 0.7266 0.70387 0.5543 0.0
N102 N 0.76143 0.66825 0.53677 0.0
C103 C 0.76132 0.71074 0.5407 0.0
H104 H 0.71666 0.59563 0.54962 0.0
Co105 Co 0.79957 0.653 0.5202 0.0
C106 C 0.83889 0.75345 0.5002 0.0
O107 O 0.86756 0.78109 0.51473 0.0
N108 N 0.83738 0.63642 0.50393 0.0
C109 C 0.87274 0.6251 0.47734 0.0
C110 C 0.8372 0.63566 0.48387 0.0
C111 C 0.87272 0.62543 0.50929 0.0
N112 N 0.8952 0.61885 0.49335 0.0
O113 O 0.85756 0.69624 0.53555 0.0
H114 H 0.81332 0.64317 0.47456 0.0
H115 H 0.88298 0.62397 0.52455 0.0
O116 O 0.81301 0.70655 0.50203 0.0
C117 C 0.86181 0.68126 0.5527 0.0
O118 O 0.82824 0.63642 0.55839 0.0
N119 N 0.7412 0.60964 0.50595 0.0
C120 C 0.6446 0.5445 0.49293 0.0
C121 C 0.66925 0.59429 0.48706 0.0
C122 C 0.71707 0.62639 0.49394 0.0
C123 C 0.71889 0.56062 0.51093 0.0
C124 C 0.67014 0.52739 0.5048 0.0
H125 H 0.73279 0.66513 0.49038 0.0
H126 H 0.73781 0.54794 0.52078 0.0
H127 H 0.78572 0.74596 0.53376 0.0
H128 H 0.67481 0.63749 0.57018 0.0
H129 H 0.8815 0.62242 0.46199 0.0
H130 H 0.65049 0.60916 0.47823 0.0
H131 H 0.65214 0.48914 0.50972 0.0
C132 C 0.07565 0.70959 0.7179 0.0
C133 C 0.03739 0.70328 0.73012 0.0
N134 N 0.0285 0.74074 0.72658 0.0
N135 N 0.08987 0.75033 0.70657 0.0
C136 C 0.06065 0.76854 0.71226 0.0
H137 H 0.09237 0.68636 0.71742 0.0
Co138 Co 0.14089 0.7788 0.68822 0.0
C139 C 0.10593 0.82938 0.66036 0.0
O140 O 0.1475 0.87188 0.66214 0.0
N141 N 0.19273 0.80801 0.66984 0.0
C142 C 0.23502 0.83262 0.64153 0.0
C143 C 0.1898 0.80077 0.64998 0.0
C144 C 0.24025 0.84365 0.67316 0.0
N145 N 0.26663 0.85967 0.65616 0.0
O146 O 0.16505 0.84136 0.70178 0.0
H147 H 0.15643 0.77503 0.64206 0.0
H148 H 0.25483 0.85912 0.68765 0.0
O149 O 0.09949 0.79204 0.67056 0.0
C150 C 0.18765 0.84232 0.71777 0.0
O151 O 0.19539 0.80515 0.72126 0.0
N152 N 0.11737 0.71634 0.67624 0.0
C153 C 0.07922 0.61742 0.66534 0.0
C154 C 0.04942 0.63935 0.66464 0.0
C155 C 0.06909 0.68872 0.67021 0.0
C156 C 0.14751 0.69619 0.67641 0.0
C157 C 0.12926 0.64673 0.67078 0.0
H158 H 0.04434 0.70349 0.671 0.0
H159 H 0.18527 0.71796 0.68172 0.0
H160 H 0.06319 0.80188 0.70607 0.0
H161 H 0.01854 0.67432 0.7411 0.0
H162 H 0.24379 0.83601 0.62583 0.0
H163 H 0.01059 0.61794 0.66053 0.0
H164 H 0.15327 0.63088 0.67171 0.0
C165 C 0.36681 0.09248 0.89811 0.0
C166 C 0.34085 0.05463 0.91133 0.0
N167 N 0.29539 0.02502 0.90377 0.0
N168 N 0.33892 0.0861 0.88173 0.0
C169 C 0.29481 0.04535 0.88609 0.0
H170 H 0.40142 0.12545 0.90159 0.0
Co171 Co 0.35149 0.13579 0.86272 0.0
C172 C 0.29641 0.04448 0.83913 0.0
O173 O 0.32297 0.02851 0.84844 0.0
N174 N 0.36375 0.18729 0.8455 0.0
C175 C 0.35842 0.23823 0.82371 0.0
C176 C 0.34217 0.18923 0.82834 0.0
C177 C 0.39266 0.23499 0.85095 0.0
N178 N 0.38966 0.26682 0.83816 0.0
O179 O 0.30217 0.14534 0.87602 0.0
H180 H 0.31433 0.15734 0.82031 0.0
H181 H 0.41369 0.24597 0.86466 0.0
O182 O 0.3012 0.08651 0.84406 0.0
C183 C 0.31846 0.17205 0.89161 0.0
O184 O 0.36581 0.19177 0.89597 0.0
N185 N 0.40225 0.12805 0.84989 0.0
C186 C 0.4597 0.09054 0.83385 0.0
C187 C 0.46697 0.10809 0.85353 0.0
C188 C 0.43921 0.12849 0.86094 0.0
C189 C 0.40116 0.11991 0.82985 0.0
C190 C 0.42917 0.10064 0.82157 0.0
H191 H 0.44626 0.14267 0.87582 0.0
H192 H 0.37549 0.1241 0.82034 0.0
H193 H 0.26147 0.0334 0.87737 0.0
H194 H 0.35341 0.05118 0.92595 0.0
H195 H 0.34557 0.2515 0.81145 0.0
H196 H 0.49156 0.10382 0.86368 0.0
H197 H 0.42477 0.09148 0.80591 0.0
C198 C 0.66066 0.71372 0.78437 0.0
C199 C 0.69652 0.70598 0.77593 0.0
N200 N 0.74122 0.74248 0.78204 0.0
N201 N 0.68281 0.75455 0.79593 0.0
C202 C 0.7318 0.77123 0.79414 0.0
H203 H 0.62123 0.69197 0.7816 0.0
Co204 Co 0.65485 0.78628 0.80954 0.0
C205 C 0.73431 0.83882 0.84072 0.0
O206 O 0.74033 0.88312 0.83744 0.0
N207 N 0.62678 0.81829 0.82295 0.0
C208 C 0.60235 0.85309 0.84577 0.0
C209 C 0.62331 0.82376 0.8427 0.0
C210 C 0.60644 0.84317 0.81436 0.0
N211 N 0.59177 0.86507 0.82789 0.0
O212 O 0.69897 0.8468 0.79569 0.0
H213 H 0.6357 0.80797 0.85415 0.0
H214 H 0.60351 0.84623 0.79844 0.0
O215 O 0.70299 0.80188 0.83051 0.0
C216 C 0.68591 0.84808 0.7778 0.0
O217 O 0.64422 0.81044 0.77127 0.0
N218 N 0.61004 0.72598 0.82199 0.0
C219 C 0.54489 0.62807 0.83324 0.0
C220 C 0.58795 0.65782 0.84431 0.0
C221 C 0.62008 0.70662 0.83845 0.0
C222 C 0.56659 0.69882 0.8119 0.0
C223 C 0.53367 0.64946 0.81712 0.0
H224 H 0.65356 0.72755 0.84693 0.0
H225 H 0.55893 0.71471 0.79898 0.0
H226 H 0.76012 0.80465 0.80125 0.0
H227 H 0.69029 0.67716 0.76539 0.0
H228 H 0.59512 0.86446 0.85999 0.0
H229 H 0.59818 0.64283 0.85683 0.0
H230 H 0.50044 0.62793 0.80833 0.0
C231 C 0.92543 0.65819 0.94466 0.0
C232 C 0.97078 0.69117 0.93645 0.0
N233 N 0.99051 0.73338 0.94713 0.0
N234 N 0.9169 0.67983 0.96033 0.0
C235 C 0.95696 0.72565 0.96135 0.0
H236 H 0.90042 0.62074 0.93967 0.0
Co237 Co 0.86179 0.65221 0.97675 0.0
C238 C 0.89304 0.72814 0.00863 0.0
O239 O 0.85293 0.73163 0.00637 0.0
N240 N 0.80589 0.62434 0.99322 0.0
C241 C 0.75832 0.5995 0.0202 0.0
C242 C 0.80475 0.61387 0.01278 0.0
C243 C 0.75941 0.61478 0.98897 0.0
N244 N 0.72997 0.60015 1.00519 0.0
O245 O 0.84302 0.69756 0.96562 0.0
H246 H 0.83628 0.61834 0.02129 0.0
H247 H 0.74791 0.6207 0.97452 0.0
O248 O 0.89981 0.69865 0.99768 0.0
C249 C 0.82339 0.68414 0.94843 0.0
O250 O 0.81454 0.64087 0.94166 0.0
N251 N 0.8805 0.60693 0.98622 0.0
C252 C 0.91387 0.53905 0.991 0.0
C253 C 0.94367 0.58882 0.99669 0.0
C254 C 0.92641 0.62217 0.99412 0.0
C255 C 0.84994 0.55833 0.98151 0.0
C256 C 0.8657 0.52367 0.98395 0.0
H257 H 0.95163 0.66089 0.99709 0.0
H258 H 0.81412 0.54689 0.97486 0.0
H259 H 0.96138 0.7532 0.9722 0.0
H260 H 0.9883 0.68433 0.92391 0.0
H261 H 0.74653 0.59024 0.03552 0.0
H262 H 0.98139 0.60287 1.00181 0.0
H263 H 0.84103 0.48556 0.97959 0.0
C264 C 0.28262 0.93771 0.11114 0.0
C265 C 0.29603 0.98395 0.10364 0.0
N266 N 0.27409 0.00346 0.11478 0.0
N267 N 0.25233 0.92836 0.12685 0.0
C268 C 0.24781 0.96905 0.12871 0.0
H269 H 0.2929 0.91184 0.10518 0.0
Co270 Co 0.21825 0.86863 0.14024 0.0
C271 C 0.21576 0.89569 0.18205 0.0
O272 O 0.22637 0.8613 0.18723 0.0
N273 N 0.18061 0.80629 0.15292 0.0
C274 C 0.11354 0.74486 0.16741 0.0
C275 C 0.14082 0.79499 0.16451 0.0
C276 C 0.17473 0.76133 0.14811 0.0
N277 N 0.13455 0.72336 0.157 0.0
O278 O 0.15774 0.85903 0.12859 0.0
H279 H 0.12933 0.82096 0.16913 0.0
H280 H 0.19668 0.75605 0.13703 0.0
O281 O 0.21062 0.90295 0.16363 0.0
C282 C 0.1507 0.83841 0.11161 0.0
O283 O 0.18325 0.82636 0.1053 0.0
N284 N 0.28025 0.87886 0.15008 0.0
C285 C 0.38159 0.90884 0.15312 0.0
C286 C 0.36302 0.93788 0.16108 0.0
C287 C 0.31273 0.92272 0.15916 0.0
C288 C 0.29737 0.84929 0.14284 0.0
C289 C 0.34759 0.86312 0.14448 0.0
H290 H 0.30137 0.94903 0.16328 0.0
H291 H 0.27338 0.81711 0.13411 0.0
H292 H 0.2237 0.97241 0.1394 0.0
H293 H 0.31937 0.00152 0.09083 0.0
H294 H 0.07831 0.72556 0.17509 0.0
H295 H 0.3877 0.97424 0.16723 0.0
H296 H 0.36006 0.83944 0.13798 0.0
C297 C 0.36326 0.29229 0.28053 0.0
C298 C 0.3381 0.30853 0.26872 0.0
N299 N 0.2893 0.28044 0.27267 0.0
N300 N 0.33045 0.2546 0.29202 0.0
C301 C 0.28557 0.24775 0.28672 0.0
H302 H 0.40305 0.30777 0.28113 0.0
Co303 Co 0.34759 0.22383 0.31161 0.0
C304 C 0.25948 0.17737 0.33877 0.0
O305 O 0.263 0.13776 0.34239 0.0
N306 N 0.36586 0.19313 0.33115 0.0
C307 C 0.3819 0.16941 0.36009 0.0
C308 C 0.37051 0.20201 0.35091 0.0
C309 C 0.37564 0.15578 0.32863 0.0
N310 N 0.38498 0.14026 0.34604 0.0
O311 O 0.30995 0.16173 0.2979 0.0
H312 H 0.36468 0.22958 0.35826 0.0
H313 H 0.37451 0.13926 0.31435 0.0
O314 O 0.28961 0.21082 0.32689 0.0
C315 C 0.3255 0.15754 0.28089 0.0
O316 O 0.36732 0.19443 0.27409 0.0
N317 N 0.38514 0.28583 0.32426 0.0
C318 C 0.44416 0.38412 0.33653 0.0
C319 C 0.39234 0.36168 0.33632 0.0
C320 C 0.36354 0.31273 0.33006 0.0
C321 C 0.43547 0.30637 0.32496 0.0
C322 C 0.46579 0.35553 0.33125 0.0
H323 H 0.32398 0.29773 0.32882 0.0
H324 H 0.45224 0.28517 0.31988 0.0
H325 H 0.25103 0.22065 0.29356 0.0
H326 H 0.35442 0.33902 0.25824 0.0
H327 H 0.38741 0.16729 0.37588 0.0
H328 H 0.37415 0.38235 0.34036 0.0
H329 H 0.50574 0.37169 0.33103 0.0
C330 C 0.0801 0.37938 0.45319 0.0
C331 C 0.035 0.35711 0.44372 0.0
N332 N 0.0131 0.30788 0.44683 0.0
N333 N 0.08649 0.34454 0.46252 0.0
C334 C 0.04514 0.30116 0.45818 0.0
H335 H 0.10715 0.41855 0.45295 0.0
Co336 Co 0.14506 0.35918 0.47582 0.0
C337 C 0.08793 0.26242 0.49808 0.0
O338 O 0.08534 0.23384 0.48325 0.0
N339 N 0.20439 0.37494 0.48853 0.0
C340 C 0.26374 0.39239 0.51074 0.0
C341 C 0.21444 0.37814 0.50814 0.0
C342 C 0.24785 0.38748 0.47954 0.0
N343 N 0.28497 0.39828 0.49268 0.0
O344 O 0.15161 0.31286 0.45889 0.0
H345 H 0.18788 0.37143 0.51979 0.0
H346 H 0.25186 0.38869 0.46357 0.0
O347 O 0.10944 0.3093 0.49597 0.0
C348 C 0.16348 0.33006 0.44129 0.0
O349 O 0.1729 0.37555 0.43783 0.0
N350 N 0.13869 0.40626 0.49113 0.0
C351 C 0.11397 0.4791 0.49957 0.0
C352 C 0.08245 0.42952 0.50525 0.0
C353 C 0.0956 0.3937 0.50101 0.0
C354 C 0.17226 0.45476 0.48745 0.0
C355 C 0.16089 0.49192 0.4918 0.0
H356 H 0.06817 0.35526 0.50348 0.0
H357 H 0.20592 0.46424 0.47939 0.0
H358 H 0.03873 0.26534 0.46297 0.0
H359 H 0.02019 0.37557 0.43471 0.0
H360 H 0.28238 0.39885 0.52493 0.0
H361 H 0.04573 0.41726 0.5111 0.0
H362 H 0.18722 0.52981 0.4877 0.0
C363 C 0.70868 0.05577 0.6098 0.0
C364 C 0.68958 0.01031 0.60082 0.0
N365 N 0.71712 0.99013 0.60647 0.0
N366 N 0.74756 0.06377 0.62131 0.0
C367 C 0.75228 0.02331 0.6188 0.0
H368 H 0.69489 0.08133 0.60819 0.0
Co369 Co 0.78329 0.11991 0.63685 0.0
C370 C 0.82903 0.08733 0.66785 0.0
O371 O 0.87296 0.12642 0.66486 0.0
N372 N 0.81867 0.17694 0.65208 0.0
C373 C 0.84551 0.23259 0.67641 0.0
C374 C 0.8131 0.18389 0.6715 0.0
C375 C 0.85448 0.22163 0.6455 0.0
N376 N 0.87157 0.25614 0.66002 0.0
O377 O 0.84368 0.13305 0.62361 0.0
H378 H 0.78685 0.15546 0.6814 0.0
H379 H 0.8669 0.22906 0.63021 0.0
O380 O 0.79225 0.08083 0.65724 0.0
C381 C 0.84648 0.14414 0.60519 0.0
O382 O 0.8093 0.14606 0.59679 0.0
N383 N 0.72348 0.10758 0.6487 0.0
C384 C 0.62454 0.08035 0.65533 0.0
C385 C 0.64289 0.04936 0.66137 0.0
C386 C 0.69239 0.06355 0.65787 0.0
C387 C 0.7075 0.13994 0.6441 0.0
C388 C 0.65814 0.12718 0.6474 0.0
H389 H 0.70401 0.03682 0.6608 0.0
H390 H 0.7322 0.17426 0.63652 0.0
H391 H 0.78027 0.01789 0.6261 0.0
H392 H 0.6582 0.99351 0.59075 0.0
H393 H 0.84973 0.24933 0.69091 0.0
H394 H 0.61843 0.01254 0.66717 0.0
H395 H 0.64581 0.15259 0.64275 0.0
H396 H 0.2673 0.2153 0.05102 0.0
H397 H 0.27189 0.28741 0.10668 0.0
H398 H 0.27405 0.21981 0.12524 0.0
H399 H 0.18999 0.08912 0.06777 0.0
H400 H 0.22296 0.06551 0.05369 0.0
H401 H 0.22064 0.11902 0.04491 0.0
H402 H 0.31672 0.16925 0.04373 0.0
H403 H 0.31938 0.11597 0.05259 0.0
H404 H 0.3518 0.17397 0.06581 0.0
H405 H 0.27371 0.1435 0.13767 0.0
H406 H 0.27473 0.0653 0.14306 0.0
H407 H 0.27405 0.04484 0.07929 0.0
C408 C 0.26843 0.2165 0.06711 0.0
C409 C 0.26946 0.25636 0.07748 0.0
C410 C 0.27159 0.25731 0.09853 0.0
C411 C 0.27258 0.21905 0.10916 0.0
C412 C 0.27191 0.18041 0.09849 0.0
C413 C 0.27019 0.17897 0.07793 0.0
C414 C 0.27108 0.13388 0.07007 0.0
C415 C 0.22332 0.09987 0.05843 0.0
C416 C 0.31752 0.14921 0.0573 0.0
C417 C 0.2734 0.11012 0.08941 0.0
C418 C 0.27344 0.13733 0.10564 0.0
C419 C 0.27398 0.12202 0.12509 0.0
C420 C 0.27441 0.07762 0.12802 0.0
C421 C 0.27488 0.04949 0.11159 0.0
C422 C 0.27459 0.06618 0.09208 0.0
H423 H 0.19557 0.20861 0.26339 0.0
H424 H 0.29449 0.36784 0.26462 0.0
H425 H 0.22709 0.38056 0.25196 0.0
H426 H 0.13251 0.2069 0.2177 0.0
H427 H 0.07278 0.1579 0.22588 0.0
H428 H 0.12868 0.16117 0.23521 0.0
H429 H 0.10037 0.1621 0.27136 0.0
H430 H 0.04442 0.15886 0.26214 0.0
H431 H 0.08493 0.20852 0.27856 0.0
H432 H 0.14871 0.3763 0.24078 0.0
H433 H 0.0648 0.35512 0.22938 0.0
H434 H 0.01714 0.19863 0.23352 0.0
C435 C 0.20279 0.24605 0.261 0.0
C436 C 0.25008 0.28732 0.26494 0.0
C437 C 0.2586 0.33583 0.26147 0.0
C438 C 0.22054 0.34338 0.2544 0.0
C439 C 0.17434 0.30197 0.25065 0.0
C440 C 0.16534 0.25422 0.25362 0.0
C441 C 0.11249 0.21624 0.248 0.0
C442 C 0.11159 0.18364 0.23067 0.0
C443 C 0.08387 0.18457 0.2661 0.0
C444 C 0.09314 0.25019 0.24161 0.0
C445 C 0.12939 0.29948 0.24343 0.0
C446 C 0.12009 0.33787 0.23915 0.0
C447 C 0.07241 0.32556 0.2328 0.0
C448 C 0.0349 0.27538 0.23057 0.0
C449 C 0.04552 0.23725 0.23491 0.0
H450 H 0.98616 0.21314 0.43633 0.0
H451 H 0.9334 0.31831 0.43952 0.0
H452 H 0.85321 0.2559 0.4252 0.0
H453 H 0.92634 0.15654 0.38978 0.0
H454 H 0.91107 0.09483 0.39721 0.0
H455 H 0.96497 0.14789 0.40749 0.0
H456 H 0.9321 0.11771 0.44315 0.0
H457 H 0.87833 0.0644 0.43299 0.0
H458 H 0.87078 0.10526 0.44976 0.0
H459 H 0.77835 0.18227 0.41192 0.0
H460 H 0.71199 0.1003 0.40042 0.0
H461 H 0.81264 0.04245 0.40489 0.0
C462 C 0.95758 0.22284 0.43413 0.0
C463 C 0.96601 0.27064 0.43898 0.0
C464 C 0.92793 0.28217 0.43566 0.0
C465 C 0.88225 0.24694 0.4276 0.0
C466 C 0.87529 0.20041 0.42282 0.0
C467 C 0.91177 0.18815 0.42594 0.0
C468 C 0.89424 0.13514 0.41965 0.0
C469 C 0.92605 0.13353 0.40251 0.0
C470 C 0.89383 0.10378 0.43745 0.0
C471 C 0.84203 0.11947 0.41271 0.0
C472 C 0.83204 0.15783 0.4147 0.0
C473 C 0.78578 0.15203 0.41015 0.0
C474 C 0.74839 0.1055 0.40368 0.0
C475 C 0.75756 0.06556 0.40169 0.0
C476 C 0.80519 0.07282 0.40596 0.0
H477 H 0.79255 0.80042 0.56232 0.0
H478 H 0.63632 0.6893 0.56425 0.0
H479 H 0.61726 0.75081 0.57868 0.0
H480 H 0.79503 0.85878 0.60882 0.0
H481 H 0.8381 0.92065 0.60032 0.0
H482 H 0.83958 0.86827 0.58974 0.0
H483 H 0.82873 0.89515 0.55443 0.0
H484 H 0.82754 0.94778 0.56489 0.0
H485 H 0.777 0.90446 0.54943 0.0
H486 H 0.61478 0.82426 0.59182 0.0
H487 H 0.62941 0.90548 0.60394 0.0
H488 H 0.78753 0.96835 0.59509 0.0
C489 C 0.75435 0.78933 0.56564 0.0
C490 C 0.71578 0.74027 0.56217 0.0
C491 C 0.6663 0.72667 0.56697 0.0
C492 C 0.65516 0.76132 0.57509 0.0
C493 C 0.69404 0.80926 0.5785 0.0
C494 C 0.74267 0.82334 0.57402 0.0
C495 C 0.77751 0.87709 0.57949 0.0
C496 C 0.81475 0.88143 0.59555 0.0
C497 C 0.80426 0.90793 0.56095 0.0
C498 C 0.74076 0.89104 0.58761 0.0
C499 C 0.6928 0.85138 0.58678 0.0
C500 C 0.65216 0.85551 0.59269 0.0
C501 C 0.66073 0.9016 0.59949 0.0
C502 C 0.7095 0.94263 0.60053 0.0
C503 C 0.75004 0.93713 0.59473 0.0
H504 H 0.93624 0.67285 0.73899 0.0
H505 H 0.0412 0.83066 0.73599 0.0
H506 H 0.97946 0.8481 0.75135 0.0
H507 H 0.83004 0.68095 0.72615 0.0
H508 H 0.78842 0.632 0.74261 0.0
H509 H 0.84195 0.63164 0.73269 0.0
H510 H 0.8713 0.62775 0.76842 0.0
H511 H 0.8177 0.62787 0.77846 0.0
H512 H 0.87907 0.67412 0.78634 0.0
H513 H 0.906 0.84851 0.76583 0.0
H514 H 0.82436 0.83218 0.77781 0.0
H515 H 0.76637 0.67394 0.7712 0.0
C516 C 0.94631 0.71095 0.74189 0.0
C517 C 0.9933 0.75046 0.73637 0.0
C518 C 0.00512 0.79998 0.73998 0.0
C519 C 0.97048 0.81019 0.74879 0.0
C520 C 0.9242 0.77042 0.75382 0.0
C521 C 0.91196 0.72179 0.7505 0.0
C522 C 0.85879 0.68607 0.75641 0.0
C523 C 0.828 0.6559 0.73839 0.0
C524 C 0.85661 0.65195 0.77342 0.0
C525 C 0.84297 0.72229 0.76338 0.0
C526 C 0.88143 0.7707 0.76194 0.0
C527 C 0.87567 0.81075 0.7672 0.0
C528 C 0.82924 0.80107 0.77409 0.0
C529 C 0.78912 0.75176 0.77555 0.0
C530 C 0.7963 0.71197 0.77014 0.0
H531 H 0.21782 0.94456 0.88669 0.0
H532 H 0.27874 0.01464 0.94355 0.0
H533 H 0.2079 0.94592 0.96078 0.0
H534 H 0.08996 0.89989 0.89892 0.0
H535 H 0.06712 0.84241 0.88552 0.0
H536 H 0.1233 0.89674 0.87758 0.0
H537 H 0.17067 0.84816 0.88014 0.0
H538 H 0.11467 0.7937 0.88814 0.0
H539 H 0.1699 0.81824 0.90324 0.0
H540 H 0.13006 0.87134 0.97186 0.0
H541 H 0.04976 0.79431 0.97615 0.0
H542 H 0.03858 0.7719 0.91226 0.0
C543 C 0.21608 0.94541 0.90275 0.0
C544 C 0.25397 0.98476 0.91378 0.0
C545 C 0.25067 0.98449 0.9348 0.0
C546 C 0.21041 0.94576 0.94473 0.0
C547 C 0.17382 0.9075 0.93344 0.0
C548 C 0.17621 0.90687 0.91293 0.0
C549 C 0.13169 0.86133 0.90437 0.0
C550 C 0.10122 0.87598 0.8908 0.0
C551 C 0.14771 0.82841 0.89332 0.0
C552 C 0.10383 0.83669 0.9233 0.0
C553 C 0.12882 0.86406 0.93987 0.0
C554 C 0.11011 0.84953 0.95901 0.0
C555 C 0.0644 0.80593 0.96129 0.0
C556 C 0.03801 0.77732 0.94452 0.0
C557 C 0.05828 0.79281 0.92532 0.0
H558 H 0.65307 0.54718 0.98 0.0
H559 H 0.69484 0.6339 0.03417 0.0
H560 H 0.6089 0.61765 0.03791 0.0
H561 H 0.55998 0.57955 0.96217 0.0
H562 H 0.51835 0.51762 0.95335 0.0
H563 H 0.58438 0.54123 0.95348 0.0
H564 H 0.57143 0.46599 0.97465 0.0
H565 H 0.50549 0.44213 0.9745 0.0
H566 H 0.53801 0.45283 0.99781 0.0
H567 H 0.51807 0.58778 0.03703 0.0
H568 H 0.42709 0.53985 0.03355 0.0
H569 H 0.44256 0.46998 0.98034 0.0
C570 C 0.64406 0.56342 0.99239 0.0
C571 C 0.68036 0.59206 0.00675 0.0
C572 C 0.66733 0.6118 0.02308 0.0
C573 C 0.61881 0.60309 0.02522 0.0
C574 C 0.58362 0.57425 0.01095 0.0
C575 C 0.59545 0.55431 0.99493 0.0
C576 C 0.54955 0.52053 0.98286 0.0
C577 C 0.5533 0.54097 0.96171 0.0
C578 C 0.5406 0.46723 0.98244 0.0
C579 C 0.51 0.52375 0.99485 0.0
C580 C 0.53065 0.55575 0.01075 0.0
C581 C 0.50148 0.56309 0.02449 0.0
C582 C 0.44974 0.53593 0.0223 0.0
C583 C 0.42753 0.50137 0.00659 0.0
C584 C 0.45836 0.49623 0.99246 0.0
H585 H 0.95382 0.43867 0.1818 0.0
H586 H 0.99282 0.40316 0.12472 0.0
H587 H 0.04775 0.49265 0.1179 0.0
H588 H 0.95447 0.55158 0.16617 0.0
H589 H 0.981 0.58292 0.18931 0.0
H590 H 0.94248 0.51638 0.18885 0.0
H591 H 0.01344 0.50811 0.2053 0.0
H592 H 0.05241 0.57456 0.20555 0.0
H593 H 0.07362 0.53671 0.19363 0.0
H594 H 0.10113 0.58663 0.11804 0.0
H595 H 0.145 0.67688 0.12442 0.0
H596 H 0.07318 0.64958 0.18203 0.0
C597 C 0.97297 0.44979 0.16766 0.0
C598 C 0.96874 0.41407 0.15369 0.0
C599 C 0.99551 0.43003 0.13559 0.0
C600 C 0.0268 0.48072 0.13161 0.0
C601 C 0.03111 0.51498 0.14593 0.0
C602 C 0.00468 0.50015 0.16354 0.0
C603 C 0.01718 0.54414 0.17679 0.0
C604 C 0.97104 0.54904 0.18049 0.0
C605 C 0.04055 0.54065 0.19648 0.0
C606 C 0.05473 0.586 0.1639 0.0
C607 C 0.06234 0.56859 0.14616 0.0
C608 C 0.09542 0.60067 0.1319 0.0
C609 C 0.12059 0.65194 0.13574 0.0
C610 C 0.11258 0.67063 0.15372 0.0
C611 C 0.07973 0.63678 0.16802 0.0
H612 H 0.43295 0.10949 0.3211 0.0
H613 H 0.35875 0.07976 0.37818 0.0
H614 H 0.37771 0.01278 0.38436 0.0
H615 H 0.39613 0.9795 0.30906 0.0
H616 H 0.45532 0.99685 0.29796 0.0
H617 H 0.43145 0.03901 0.29707 0.0
H618 H 0.51198 0.10726 0.31371 0.0
H619 H 0.53607 0.06543 0.31458 0.0
H620 H 0.5317 0.09434 0.3371 0.0
H621 H 0.41012 0.95368 0.38552 0.0
H622 H 0.45804 0.91055 0.38258 0.0
H623 H 0.51008 0.97701 0.32437 0.0
C624 C 0.41983 0.08817 0.3347 0.0
C625 C 0.39429 0.09978 0.34915 0.0
C626 C 0.37875 0.07182 0.36699 0.0
C627 C 0.38894 0.03338 0.37055 0.0
C628 C 0.41463 0.02321 0.3561 0.0
C629 C 0.42999 0.04984 0.33854 0.0
C630 C 0.46042 0.03405 0.32618 0.0
C631 C 0.43425 0.01097 0.30639 0.0
C632 C 0.51316 0.07787 0.3227 0.0
C633 C 0.46086 0.99536 0.33978 0.0
C634 C 0.43358 0.98913 0.35681 0.0
C635 C 0.43097 0.95764 0.37211 0.0
C636 C 0.45807 0.93292 0.37022 0.0
C637 C 0.48772 0.94 0.35319 0.0
C638 C 0.48786 0.97072 0.33759 0.0
H639 H 0.35742 0.40819 0.51882 0.0
H640 H 0.33164 0.4261 0.45651 0.0
H641 H 0.41918 0.45566 0.44937 0.0
H642 H 0.47275 0.51807 0.52227 0.0
H643 H 0.50005 0.49277 0.53888 0.0
H644 H 0.43394 0.46785 0.53883 0.0
H645 H 0.42071 0.38008 0.53211 0.0
H646 H 0.48692 0.40488 0.53199 0.0
H647 H 0.4501 0.37019 0.51091 0.0
H648 H 0.51107 0.49035 0.44917 0.0
H649 H 0.60084 0.53014 0.45647 0.0
H650 H 0.56795 0.49071 0.51868 0.0
C651 C 0.36965 0.41794 0.50362 0.0
C652 C 0.3365 0.41424 0.48831 0.0
C653 C 0.35517 0.42762 0.46863 0.0
C654 C 0.40525 0.44463 0.46434 0.0
C655 C 0.43664 0.44811 0.47981 0.0
C656 C 0.41963 0.43522 0.49906 0.0
C657 C 0.46182 0.44558 0.5132 0.0
C658 C 0.46746 0.48332 0.52923 0.0
C659 C 0.45443 0.3973 0.52261 0.0
C660 C 0.50538 0.46745 0.49894 0.0
C661 C 0.4899 0.46805 0.4797 0.0
C662 C 0.52357 0.48944 0.46412 0.0
C663 C 0.57442 0.5119 0.46838 0.0
C664 C 0.59119 0.51282 0.48806 0.0
C665 C 0.55608 0.4893 0.50342 0.0
H666 H 0.87358 0.33343 0.67929 0.0
H667 H 0.95334 0.29556 0.63653 0.0
H668 H 0.01717 0.3844 0.63348 0.0
H669 H 0.8949 0.44482 0.65512 0.0
H670 H 0.90107 0.4775 0.67801 0.0
H671 H 0.863 0.41097 0.67719 0.0
H672 H 0.91361 0.4032 0.70626 0.0
H673 H 0.9518 0.46973 0.70718 0.0
H674 H 0.98009 0.43183 0.70407 0.0
H675 H 0.07323 0.47823 0.63578 0.0
H676 H 0.11329 0.56897 0.64159 0.0
H677 H 0.99445 0.54394 0.68195 0.0
C678 C 0.90475 0.34381 0.66945 0.0
C679 C 0.90878 0.30771 0.65824 0.0
C680 C 0.94952 0.32278 0.64517 0.0
C681 C 0.98602 0.37304 0.64343 0.0
C682 C 0.9809 0.40775 0.65472 0.0
C683 C 0.94102 0.39373 0.66736 0.0
C684 C 0.94302 0.43817 0.67735 0.0
C685 C 0.89782 0.44315 0.67156 0.0
C686 C 0.94741 0.43556 0.70006 0.0
C687 C 0.9903 0.47947 0.66842 0.0
C688 C 0.01197 0.46133 0.65553 0.0
C689 C 0.05643 0.49282 0.64578 0.0
C690 C 0.079 0.54416 0.64919 0.0
C691 C 0.05664 0.56332 0.66203 0.0
C692 C 0.01193 0.53035 0.6718 0.0
H693 H 0.61389 0.9507 0.84647 0.0
H694 H 0.52142 0.84868 0.80058 0.0
H695 H 0.48176 0.8997 0.79482 0.0
H696 H 0.52526 0.97602 0.8671 0.0
H697 H 0.56784 0.04095 0.87146 0.0
H698 H 0.59026 0.99771 0.87113 0.0
H699 H 0.65377 0.04977 0.84375 0.0
H700 H 0.63146 0.09321 0.84398 0.0
H701 H 0.63225 0.06372 0.82105 0.0
H702 H 0.44611 0.95654 0.79705 0.0
H703 H 0.41999 0.01658 0.80547 0.0
H704 H 0.54339 0.08814 0.84707 0.0
C705 C 0.58545 0.93941 0.83517 0.0
C706 C 0.57029 0.89577 0.82402 0.0
C707 C 0.53347 0.88218 0.80917 0.0
C708 C 0.51084 0.91087 0.80583 0.0
C709 C 0.5264 0.95362 0.81718 0.0
C710 C 0.56339 0.96826 0.83134 0.0
C711 C 0.57295 0.01544 0.84165 0.0
C712 C 0.56349 0.007 0.86416 0.0
C713 C 0.62575 0.05806 0.83734 0.0
C714 C 0.53432 0.0241 0.8316 0.0
C715 C 0.50786 0.98805 0.81755 0.0
C716 C 0.46747 0.98578 0.80763 0.0
C717 C 0.45322 0.02071 0.81243 0.0
C718 C 0.47965 0.05819 0.82689 0.0
C719 C 0.52165 0.06023 0.83612 0.0
H720 H 0.41884 0.33843 0.80975 0.0
H721 H 0.40367 0.31373 0.8735 0.0
H722 H 0.43661 0.40305 0.87898 0.0
H723 H 0.53335 0.45305 0.81158 0.0
H724 H 0.51823 0.48111 0.79129 0.0
H725 H 0.49125 0.41477 0.79232 0.0
H726 H 0.40332 0.40434 0.79036 0.0
H727 H 0.43008 0.47074 0.78946 0.0
H728 H 0.38516 0.43513 0.80836 0.0
H729 H 0.4733 0.49499 0.87775 0.0
H730 H 0.51515 0.58444 0.86986 0.0
H731 H 0.50717 0.55032 0.80694 0.0
C732 C 0.42209 0.35188 0.82482 0.0
C733 C 0.40898 0.31914 0.84119 0.0
C734 C 0.41427 0.33816 0.86074 0.0
C735 C 0.43248 0.3888 0.86401 0.0
C736 C 0.44525 0.42008 0.84757 0.0
C737 C 0.44053 0.40251 0.82836 0.0
C738 C 0.45906 0.44453 0.81339 0.0
C739 C 0.50309 0.4486 0.80145 0.0
C740 C 0.41688 0.4383 0.79958 0.0
C741 C 0.4753 0.48841 0.82722 0.0
C742 C 0.46663 0.47339 0.84687 0.0
C743 C 0.48009 0.50724 0.86242 0.0
C744 C 0.50393 0.55793 0.8578 0.0
C745 C 0.51423 0.57433 0.8378 0.0
C746 C 0.49892 0.5389 0.82234 0.0
H747 H 0.97923 0.53293 0.0174 0.0
H748 H 0.89834 0.47004 0.96245 0.0
H749 H 0.93924 0.42028 0.95906 0.0
H750 H 0.09273 0.54691 1.00094 0.0
H751 H 0.10965 0.53117 0.02437 0.0
H752 H 0.06999 0.55788 0.02391 0.0
H753 H 0.00327 0.48315 0.04397 0.0
H754 H 0.04285 0.45625 0.04456 0.0
H755 H 0.98067 0.42107 0.03483 0.0
H756 H 0.99445 0.38368 0.95957 0.0
H757 H 0.05847 0.36006 0.96478 0.0
H758 H 0.10488 0.44633 0.01915 0.0
C759 C 0.96964 0.50828 1.00476 0.0
C760 C 0.93495 0.50521 0.99031 0.0
C761 C 0.92368 0.47237 0.97402 0.0
C762 C 0.94707 0.44412 0.97185 0.0
C763 C 0.98166 0.44881 0.98612 0.0
C764 C 0.99272 0.47973 1.00235 0.0
C765 C 0.03329 0.47973 0.01496 0.0
C766 C 0.07912 0.53202 0.0161 0.0
C767 C 0.01384 0.45879 0.03582 0.0
C768 C 0.04402 0.44484 1.003 0.0
C769 C 0.01361 0.42734 0.98647 0.0
C770 C 0.01811 0.39671 0.97257 0.0
C771 C 0.05479 0.38376 0.97558 0.0
C772 C 0.08655 0.40126 0.99237 0.0
C773 C 0.08059 0.43177 0.00636 0.0
H774 H 0.45527 0.96712 0.18012 0.0
H775 H 0.43259 0.9 0.12163 0.0
H776 H 0.52293 0.94277 0.11659 0.0
H777 H 0.55165 0.08449 0.16612 0.0
H778 H 0.58685 0.09657 0.1888 0.0
H779 H 0.52062 0.05595 0.1891 0.0
H780 H 0.53209 0.986 0.20452 0.0
H781 H 0.59846 0.02652 0.20438 0.0
H782 H 0.57136 0.96703 0.19223 0.0
H783 H 0.61493 0.99931 0.1162 0.0
H784 H 0.70277 0.06263 0.12133 0.0
H785 H 0.66687 0.09484 0.17972 0.0
C786 C 0.46925 0.9608 0.16636 0.0
C787 C 0.43637 0.92956 0.15138 0.0
C788 C 0.45657 0.92257 0.13359 0.0
C789 C 0.50802 0.94712 0.13048 0.0
C790 C 0.53913 0.97854 0.14531 0.0
C791 C 0.52062 0.98512 0.16299 0.0
C792 C 0.56211 0.02312 0.17603 0.0
C793 C 0.55486 0.06766 0.18025 0.0
C794 C 0.56624 0.99923 0.19544 0.0
C795 C 0.60662 0.03769 0.16269 0.0
C796 C 0.59248 0.01132 0.14509 0.0
C797 C 0.62651 0.01983 0.13001 0.0
C798 C 0.67629 0.05619 0.133 0.0
C799 C 0.69183 0.08377 0.15091 0.0
C800 C 0.65636 0.07393 0.16599 0.0
H801 H 0.51635 0.66737 0.32783 0.0
H802 H 0.63486 0.70421 0.37027 0.0
H803 H 0.61104 0.61548 0.37222 0.0
H804 H 0.42739 0.5525 0.35042 0.0
H805 H 0.40203 0.52223 0.327 0.0
H806 H 0.42891 0.58842 0.32909 0.0
H807 H 0.48853 0.6011 0.29991 0.0
H808 H 0.46187 0.53494 0.29775 0.0
H809 H 0.52781 0.57392 0.30133 0.0
H810 H 0.57469 0.52162 0.36845 0.0
H811 H 0.526 0.43152 0.36097 0.0
H812 H 0.43173 0.4584 0.32137 0.0
C813 C 0.53756 0.6569 0.33744 0.0
C814 C 0.57765 0.69273 0.34882 0.0
C815 C 0.6038 0.6773 0.36153 0.0
C816 C 0.59071 0.62706 0.36263 0.0
C817 C 0.55115 0.59274 0.35104 0.0
C818 C 0.52479 0.60711 0.33881 0.0
C819 C 0.48331 0.56327 0.3281 0.0
C820 C 0.43241 0.5562 0.33402 0.0
C821 C 0.49086 0.56864 0.30543 0.0
C822 C 0.49042 0.52185 0.33612 0.0
C823 C 0.52985 0.53936 0.34925 0.0
C824 C 0.54361 0.50756 0.35827 0.0
C825 C 0.51597 0.45656 0.35388 0.0
C826 C 0.47484 0.438 0.34077 0.0
C827 C 0.46243 0.47136 0.33173 0.0
H828 H 0.91456 0.56433 0.51992 0.0
H829 H 0.96898 0.65268 0.4662 0.0
H830 H 0.0371 0.63402 0.46442 0.0
H831 H 0.03788 0.59582 0.54054 0.0
H832 H 0.01575 0.53395 0.5499 0.0
H833 H 0.97415 0.55841 0.54827 0.0
H834 H 0.91346 0.48301 0.52688 0.0
H835 H 0.95478 0.45836 0.52846 0.0
H836 H 0.93573 0.46894 0.50448 0.0
H837 H 0.09423 0.60032 0.46656 0.0
H838 H 0.1349 0.55106 0.4715 0.0
H839 H 0.04661 0.48581 0.52474 0.0
C840 C 0.94148 0.58052 0.50805 0.0
C841 C 0.93647 0.60997 0.49318 0.0
C842 C 0.97179 0.62964 0.47762 0.0
C843 C 0.01089 0.61962 0.47659 0.0
C844 C 0.01439 0.58991 0.49127 0.0
C845 C 0.98073 0.57058 0.50673 0.0
C846 C 0.99095 0.53662 0.51967 0.0
C847 C 0.00556 0.55746 0.54085 0.0
C848 C 0.94607 0.4836 0.51987 0.0
C849 C 0.03469 0.53889 0.50872 0.0
C850 C 0.04793 0.57042 0.49256 0.0
C851 C 0.08492 0.57626 0.4794 0.0
C852 C 0.10828 0.54827 0.4825 0.0
C853 C 0.09476 0.51461 0.4987 0.0
C854 C 0.05811 0.511 0.51221 0.0
H855 H 0.34328 0.88608 0.68191 0.0
H856 H 0.30379 0.92385 0.62526 0.0
H857 H 0.39024 0.99148 0.62087 0.0
H858 H 0.43499 0.01374 0.69706 0.0
H859 H 0.47608 0.99508 0.708 0.0
H860 H 0.41008 0.95261 0.70765 0.0
H861 H 0.42428 0.88718 0.68966 0.0
H862 H 0.49019 0.92931 0.69004 0.0
H863 H 0.45905 0.90369 0.66676 0.0
H864 H 0.48129 0.0509 0.6215 0.0
H865 H 0.57189 0.0942 0.62583 0.0
H866 H 0.55323 0.01936 0.68244 0.0
C867 C 0.35275 0.9092 0.66877 0.0
C868 C 0.31686 0.89981 0.65392 0.0
C869 C 0.3308 0.93011 0.63671 0.0
C870 C 0.37968 0.96891 0.63419 0.0
C871 C 0.41424 0.97699 0.64902 0.0
C872 C 0.40153 0.9479 0.66595 0.0
C873 C 0.44665 0.96203 0.67888 0.0
C874 C 0.44164 0.98206 0.6991 0.0
C875 C 0.45556 0.91794 0.68147 0.0
C876 C 0.48685 0.00275 0.66632 0.0
C877 C 0.46717 0.01129 0.64933 0.0
C878 C 0.49712 0.04513 0.63489 0.0
C879 C 0.54868 0.06993 0.63759 0.0
C880 C 0.56998 0.06067 0.65458 0.0
C881 C 0.53828 0.02741 0.66931 0.0
H882 H 0.34445 0.22168 0.92686 0.0
H883 H 0.2175 0.13621 0.88843 0.0
H884 H 0.16341 0.14601 0.91292 0.0
H885 H 0.2816 0.17258 0.97325 0.0
H886 H 0.316 0.23093 0.98609 0.0
H887 H 0.34393 0.21671 0.96558 0.0
H888 H 0.36096 0.29769 0.94774 0.0
H889 H 0.3334 0.31229 0.96824 0.0
H890 H 0.31029 0.30903 0.94336 0.0
H891 H 0.124 0.16807 0.94192 0.0
H892 H 0.10404 0.20173 0.97162 0.0
H893 H 0.25737 0.26878 0.99087 0.0
C894 C 0.30528 0.20494 0.92348 0.0
C895 C 0.28524 0.17826 0.90565 0.0
C896 C 0.23371 0.15694 0.90195 0.0
C897 C 0.20273 0.1622 0.91581 0.0
C898 C 0.22385 0.18858 0.93332 0.0
C899 C 0.27404 0.20955 0.93712 0.0
C900 C 0.28818 0.23658 0.95682 0.0
C901 C 0.30862 0.21276 0.97129 0.0
C902 C 0.32539 0.29218 0.95385 0.0
C903 C 0.23821 0.2281 0.96353 0.0
C904 C 0.20141 0.20032 0.94988 0.0
C905 C 0.15259 0.18958 0.95273 0.0
C906 C 0.14154 0.2087 0.96971 0.0
C907 C 0.17916 0.23824 0.98361 0.0
C908 C 0.22774 0.2468 0.98057 0.0
H909 H 0.04794 0.25415 0.0577 0.0
H910 H 0.18268 0.32152 0.093 0.0
H911 H 0.13571 0.27272 0.12218 0.0
H912 H 0.97234 0.25924 0.09485 0.0
H913 H 0.91771 0.20116 0.08883 0.0
H914 H 0.96282 0.23522 0.06986 0.0
H915 H 0.97138 0.15806 0.06263 0.0
H916 H 0.92639 0.12386 0.08173 0.0
H917 H 0.98693 0.12951 0.08262 0.0
H918 H 0.07417 0.22681 0.14844 0.0
H919 H 1.00081 0.18732 0.17038 0.0
H920 H 0.90435 0.14747 0.1189 0.0
C921 C 0.06745 0.25744 0.07148 0.0
C922 C 0.11884 0.29129 0.07318 0.0
C923 C 0.14323 0.2958 0.09149 0.0
C924 C 0.11695 0.26799 0.1081 0.0
C925 C 0.06612 0.23577 0.10621 0.0
C926 C 0.04144 0.23022 0.0884 0.0
C927 C 0.98583 0.19694 0.0911 0.0
C928 C 0.95806 0.22482 0.08586 0.0
C929 C 0.9665 0.14925 0.07879 0.0
C930 C 0.9832 0.18599 0.11325 0.0
C931 C 0.0301 0.20834 0.12158 0.0
C932 C 0.03729 0.20803 0.14205 0.0
C933 C 0.99548 0.18544 0.15441 0.0
C934 C 0.94712 0.16313 0.14628 0.0
C935 C 0.94095 0.16239 0.1254 0.0
H936 H 0.81461 0.99815 0.3157 0.0
H937 H 0.65376 0.92541 0.31288 0.0
H938 H 0.65902 0.96206 0.2801 0.0
H939 H 0.83676 0.11102 0.29412 0.0
H940 H 0.89075 0.12205 0.28015 0.0
H941 H 0.87491 0.08621 0.30273 0.0
H942 H 0.87377 0.01354 0.28355 0.0
H943 H 0.88942 0.04922 0.26088 0.0
H944 H 0.83479 0.98856 0.26189 0.0
H945 H 0.68017 0.01192 0.24937 0.0
H946 H 0.71737 0.07389 0.22239 0.0
H947 H 0.86448 0.11425 0.24348 0.0
C948 C 0.78054 0.98931 0.30802 0.0
C949 C 0.73372 0.95848 0.31698 0.0
C950 C 0.6901 0.94862 0.3065 0.0
C951 C 0.69261 0.96918 0.28773 0.0
C952 C 0.73907 0.99966 0.27943 0.0
C953 C 0.78236 0.00983 0.28914 0.0
C954 C 0.82746 0.04663 0.27726 0.0
C955 C 0.85933 0.0943 0.28928 0.0
C956 C 0.85817 0.02306 0.27049 0.0
C957 C 0.80254 0.05619 0.25968 0.0
C958 C 0.75147 0.02828 0.26122 0.0
C959 C 0.72009 0.03325 0.24774 0.0
C960 C 0.74142 0.06836 0.23247 0.0
C961 C 0.79349 0.09754 0.23066 0.0
C962 C 0.8245 0.09094 0.24423 0.0
H963 H 0.71544 0.8787 0.43755 0.0
H964 H 0.74721 0.82126 0.38432 0.0
H965 H 0.79665 0.7945 0.40446 0.0
H966 H 0.83821 0.9229 0.46177 0.0
H967 H 0.81083 0.90622 0.48619 0.0
H968 H 0.7826 0.92505 0.4672 0.0
H969 H 0.69942 0.84296 0.47203 0.0
H970 H 0.72739 0.82388 0.49093 0.0
H971 H 0.69814 0.78463 0.46969 0.0
H972 H 0.83095 0.76269 0.43134 0.0
H973 H 0.85361 0.73492 0.46218 0.0
H974 H 0.80503 0.81888 0.49748 0.0
C975 C 0.73363 0.86133 0.43007 0.0
C976 C 0.72759 0.85195 0.4094 0.0
C977 C 0.75182 0.82915 0.40011 0.0
C978 C 0.77981 0.81377 0.41145 0.0
C979 C 0.78406 0.82258 0.43194 0.0
C980 C 0.76236 0.84671 0.44108 0.0
C981 C 0.77064 0.84998 0.46339 0.0
C982 C 0.80247 0.90427 0.47002 0.0
C983 C 0.72095 0.82379 0.47466 0.0
C984 C 0.79879 0.8222 0.46556 0.0
C985 C 0.8062 0.80668 0.44724 0.0
C986 C 0.82665 0.77588 0.44567 0.0
C987 C 0.83936 0.76026 0.46321 0.0
C988 C 0.83235 0.77607 0.48203 0.0
C989 C 0.81251 0.80798 0.48319 0.0
H990 H 0.87701 0.65963 0.59059 0.0
H991 H 0.93802 0.77684 0.5463 0.0
H992 H 0.00436 0.83078 0.56996 0.0
H993 H 0.9009 0.73843 0.63343 0.0
H994 H 0.91628 0.70123 0.64926 0.0
H995 H 0.87321 0.67275 0.62901 0.0
H996 H 0.92732 0.63799 0.61496 0.0
H997 H 0.97029 0.66607 0.63523 0.0
H998 H 0.9921 0.67995 0.60994 0.0
H999 H 0.06629 0.8707 0.59861 0.0
H1000 H 0.11905 0.89106 0.62867 0.0
H1001 H 0.0143 0.74812 0.65404 0.0
C1002 C 0.90419 0.69667 0.5858 0.0
C1003 C 0.90229 0.71396 0.56654 0.0
C1004 C 0.93872 0.76273 0.56096 0.0
C1005 C 0.97644 0.79368 0.57433 0.0
C1006 C 0.97704 0.77541 0.59325 0.0
C1007 C 0.94179 0.72794 0.59893 0.0
C1008 C 0.95104 0.71641 0.61986 0.0
C1009 C 0.90778 0.70664 0.6337 0.0
C1010 C 0.96077 0.67252 0.61999 0.0
C1011 C 0.99741 0.76454 0.62505 0.0
C1012 C 0.01188 0.79832 0.60961 0.0
C1013 C 0.055 0.84459 0.61082 0.0
C1014 C 0.08464 0.85596 0.62802 0.0
C1015 C 0.07106 0.82113 0.64374 0.0
C1016 C 0.02611 0.77548 0.6423 0.0
H1017 H 0.23731 0.85156 0.7522 0.0
H1018 H 0.16675 0.9191 0.71893 0.0
H1019 H 0.18423 0.9781 0.74676 0.0
H1020 H 0.19046 0.85675 0.79948 0.0
H1021 H 0.24625 0.86954 0.81257 0.0
H1022 H 0.23001 0.8349 0.78971 0.0
H1023 H 0.3154 0.89811 0.77452 0.0
H1024 H 0.33207 0.93226 0.7975 0.0
H1025 H 0.3346 0.96319 0.77448 0.0
H1026 H 0.21043 0.02995 0.77953 0.0
H1027 H 0.24381 0.06902 0.81239 0.0
H1028 H 0.29256 0.9625 0.82318 0.0
C1029 C 0.22574 0.87892 0.75058 0.0
C1030 C 0.20082 0.8808 0.73331 0.0
C1031 C 0.18626 0.9172 0.73196 0.0
C1032 C 0.19585 0.95068 0.74774 0.0
C1033 C 0.21988 0.94711 0.76474 0.0
C1034 C 0.23471 0.91209 0.76609 0.0
C1035 C 0.25921 0.91472 0.78582 0.0
C1036 C 0.2297 0.86609 0.79758 0.0
C1037 C 0.31352 0.92787 0.78289 0.0
C1038 C 0.25598 0.9567 0.79552 0.0
C1039 C 0.23344 0.97533 0.78326 0.0
C1040 C 0.22794 0.01536 0.78921 0.0
C1041 C 0.24681 0.03722 0.80793 0.0
C1042 C 0.27063 0.0188 0.82049 0.0
C1043 C 0.27428 0.97749 0.81414 0.0
H1044 H 0.74152 0.7563 0.84756 0.0
H1045 H 0.77924 0.89852 0.87338 0.0
H1046 H 0.80801 0.87589 0.90402 0.0
H1047 H 0.69085 0.68617 0.89111 0.0
H1048 H 0.71321 0.64382 0.88621 0.0
H1049 H 0.70044 0.67346 0.86586 0.0
H1050 H 0.79013 0.70853 0.85273 0.0
H1051 H 0.8031 0.67849 0.87288 0.0
H1052 H 0.84189 0.74435 0.8691 0.0
H1053 H 0.82832 0.83393 0.93292 0.0
H1054 H 0.84085 0.77889 0.95609 0.0
H1055 H 0.78541 0.66416 0.91088 0.0
C1056 C 0.75606 0.78297 0.85958 0.0
C1057 C 0.75778 0.82908 0.8581 0.0
C1058 C 0.77776 0.86304 0.87412 0.0
C1059 C 0.79392 0.85037 0.89163 0.0
C1060 C 0.7899 0.80367 0.89283 0.0
C1061 C 0.77171 0.77076 0.8771 0.0
C1062 C 0.76909 0.72217 0.88213 0.0
C1063 C 0.7152 0.67887 0.88128 0.0
C1064 C 0.80309 0.71286 0.8684 0.0
C1065 C 0.78851 0.73255 0.90323 0.0
C1066 C 0.80055 0.77971 0.90923 0.0
C1067 C 0.81908 0.79701 0.92829 0.0
C1068 C 0.82592 0.76546 0.94139 0.0
C1069 C 0.81403 0.71714 0.93536 0.0
C1070 C 0.79483 0.70078 0.91605 0.0
H1071 H 0.98511 0.73923 0.01403 0.0
H1072 H 0.88004 0.77468 0.04097 0.0
H1073 H 0.93578 0.81019 0.07009 0.0
H1074 H 0.01689 0.69965 0.05776 0.0
H1075 H 0.08123 0.72504 0.05115 0.0
H1076 H 0.03491 0.70648 0.03196 0.0
H1077 H 0.08255 0.79447 0.01643 0.0
H1078 H 0.12925 0.81328 0.03552 0.0
H1079 H 0.09758 0.84779 0.03165 0.0
H1080 H 1.00214 0.83728 0.09745 0.0
H1081 H 0.07303 0.85497 0.11961 0.0
H1082 H 0.13194 0.79971 0.0742 0.0
C1083 C 0.97377 0.75466 0.02597 0.0
C1084 C 0.92802 0.75389 0.02524 0.0
C1085 C 0.91501 0.77502 0.04114 0.0
C1086 C 0.94639 0.79514 0.05777 0.0
C1087 C 0.99073 0.79413 0.0582 0.0
C1088 C 0.00444 0.7747 0.04259 0.0
C1089 C 0.05298 0.77631 0.04676 0.0
C1090 C 0.04606 0.72375 0.04692 0.0
C1091 C 0.09295 0.80997 0.0317 0.0
C1092 C 0.06423 0.79892 0.06734 0.0
C1093 C 0.02822 0.80931 0.07373 0.0
C1094 C 0.03066 0.82953 0.09252 0.0
C1095 C 0.07097 0.83938 0.10502 0.0
C1096 C 0.10805 0.82873 0.09869 0.0
C1097 C 0.10434 0.80836 0.07956 0.0
H1098 H 0.26342 0.99694 0.18185 0.0
H1099 H 0.17034 0.86784 0.21789 0.0
H1100 H 0.18103 0.92211 0.24652 0.0
H1101 H 0.35109 0.05744 0.21843 0.0
H1102 H 0.36507 0.11937 0.21203 0.0
H1103 H 0.34221 0.07182 0.19329 0.0
H1104 H 0.26966 0.08751 0.18548 0.0
H1105 H 0.29259 0.13565 0.20406 0.0
H1106 H 0.22953 0.08501 0.20531 0.0
H1107 H 0.20837 0.9897 0.27208 0.0
H1108 H 0.25298 0.06505 0.29289 0.0
H1109 H 0.33337 0.14921 0.2408 0.0
C1110 C 0.24383 0.98042 0.19557 0.0
C1111 C 0.21509 0.92846 0.19765 0.0
C1112 C 0.19178 0.90773 0.21602 0.0
C1113 C 0.19765 0.93824 0.23232 0.0
C1114 C 0.22758 0.98938 0.23007 0.0
C1115 C 0.25037 0.01037 0.21215 0.0
C1116 C 0.28553 0.06562 0.21433 0.0
C1117 C 0.33913 0.07933 0.20923 0.0
C1118 C 0.26828 0.09519 0.20154 0.0
C1119 C 0.27981 0.07216 0.23632 0.0
C1120 C 0.24548 0.02798 0.24506 0.0
C1121 C 0.23504 0.02462 0.26537 0.0
C1122 C 0.26056 0.06752 0.27708 0.0
C1123 C 0.29674 0.11283 0.26849 0.0
C1124 C 0.30605 0.11503 0.24782 0.0
H1125 H 0.19094 0.25806 0.44029 0.0
H1126 H 0.13533 0.33488 0.40383 0.0
H1127 H 0.14192 0.2929 0.37402 0.0
H1128 H 0.28167 0.27066 0.40715 0.0
H1129 H 0.27594 0.2109 0.41165 0.0
H1130 H 0.25896 0.23999 0.43075 0.0
H1131 H 0.17129 0.16224 0.43267 0.0
H1132 H 0.18808 0.13286 0.41352 0.0
H1133 H 0.13416 0.13959 0.41043 0.0
H1134 H 0.16617 0.25435 0.34782 0.0
H1135 H 0.20648 0.22009 0.32662 0.0
H1136 H 0.2453 0.16537 0.37902 0.0
C1137 C 0.1788 0.26469 0.42609 0.0
C1138 C 0.1624 0.29947 0.42433 0.0
C1139 C 0.1481 0.30843 0.40547 0.0
C1140 C 0.15138 0.28451 0.38845 0.0
C1141 C 0.16904 0.25157 0.39047 0.0
C1142 C 0.18236 0.24131 0.40877 0.0
C1143 C 0.20513 0.20837 0.40634 0.0
C1144 C 0.25859 0.23403 0.41445 0.0
C1145 C 0.17272 0.15775 0.41633 0.0
C1146 C 0.20414 0.20341 0.38383 0.0
C1147 C 0.18254 0.22819 0.37505 0.0
C1148 C 0.18194 0.23363 0.35448 0.0
C1149 C 0.20488 0.2141 0.34255 0.0
C1150 C 0.22768 0.18904 0.35118 0.0
C1151 C 0.22635 0.18268 0.37205 0.0
H1152 H 0.84894 0.12527 0.56593 0.0
H1153 H 0.94382 0.19263 0.61718 0.0
H1154 H 0.01799 0.22395 0.59549 0.0
H1155 H 0.93253 0.08926 0.54025 0.0
H1156 H 0.91615 0.1018 0.51606 0.0
H1157 H 0.87152 0.08077 0.536 0.0
H1158 H 0.86111 0.15766 0.531 0.0
H1159 H 0.90583 0.17904 0.51118 0.0
H1160 H 0.91502 0.21883 0.53212 0.0
H1161 H 0.08001 0.25906 0.56727 0.0
H1162 H 0.1257 0.28777 0.53543 0.0
H1163 H 0.99093 0.19137 0.50301 0.0
C1164 C 0.88542 0.14572 0.57263 0.0
C1165 C 0.89091 0.15661 0.59318 0.0
C1166 C 0.93903 0.18351 0.60149 0.0
C1167 C 0.98123 0.20152 0.58927 0.0
C1168 C 0.97449 0.19114 0.56892 0.0
C1169 C 0.92775 0.16291 0.56075 0.0
C1170 C 0.93026 0.15847 0.53839 0.0
C1171 C 0.91151 0.10436 0.53232 0.0
C1172 C 0.90136 0.17979 0.52755 0.0
C1173 C 0.98561 0.19033 0.53506 0.0
C1174 C 0.01052 0.20893 0.55285 0.0
C1175 C 0.06112 0.24357 0.55334 0.0
C1176 C 0.08674 0.25976 0.53523 0.0
C1177 C 0.06196 0.2407 0.51693 0.0
C1178 C 0.01097 0.20504 0.51688 0.0
H1179 H 0.74578 0.99842 0.67605 0.0
H1180 H 0.89117 0.10282 0.69961 0.0
H1181 H 0.87155 0.05281 0.73043 0.0
H1182 H 0.67984 0.97865 0.72099 0.0
H1183 H 0.63758 0.91376 0.7164 0.0
H1184 H 0.66468 0.95601 0.69583 0.0
H1185 H 0.69909 0.90182 0.68159 0.0
H1186 H 0.67177 0.85919 0.70204 0.0
H1187 H 0.73724 0.88694 0.69708 0.0
H1188 H 0.83294 0.99268 0.7598 0.0
H1189 H 0.78096 0.92613 0.7838 0.0
H1190 H 0.66147 0.86326 0.74049 0.0
C1191 C 0.77371 0.01078 0.6876 0.0
C1192 C 0.81996 0.05477 0.68539 0.0
C1193 C 0.85555 0.06915 0.70087 0.0
C1194 C 0.84464 0.04108 0.71849 0.0
C1195 C 0.79807 0.9986 0.72037 0.0
C1196 C 0.76342 0.98338 0.70521 0.0
C1197 C 0.71568 0.93714 0.71093 0.0
C1198 C 0.67187 0.947 0.71105 0.0
C1199 C 0.70536 0.89371 0.69709 0.0
C1200 C 0.72858 0.92875 0.73175 0.0
C1201 C 0.7762 0.96447 0.73701 0.0
C1202 C 0.79569 0.96442 0.75575 0.0
C1203 C 0.76586 0.92662 0.76932 0.0
C1204 C 0.71716 0.88943 0.76406 0.0
C1205 C 0.69857 0.89095 0.74502 0.0
loop_
_geom_bond_atom_site_label_1
_geom_bond_atom_site_label_2
_geom_bond_distance
_geom_bond_site_symmetry_2
_ccdc_geom_bond_type
C0 C1 1.351 . S
C0 N3 1.368 . S
C0 H5 0.931 . S
C1 C0 1.351 . S
C1 N2 1.373 . S
C1 H29 0.930 . S
N2 C1 1.373 . S
N2 C4 1.340 . S
N3 C0 1.368 . S
N3 C4 1.321 . S
N3 Co6 2.135 . S
C4 N2 1.340 . S
C4 N3 1.321 . S
C4 H28 0.930 . S
H5 C0 0.931 . S
Co6 N3 2.135 . S
Co6 N9 2.121 1_554 S
Co6 O14 2.055 . S
Co6 O17 2.039 1_554 S
Co6 N20 2.140 . S
C7 O8 1.227 . S
C7 O17 1.265 . S
O8 C7 1.227 . S
N9 Co6 2.121 1_556 S
N9 C11 1.375 . S
N9 C12 1.313 . S
C10 C11 1.338 . S
C10 N13 1.377 . S
C10 H30 0.930 . S
C11 N9 1.375 . S
C11 C10 1.338 . S
C11 H15 0.931 . S
C12 N9 1.313 . S
C12 N13 1.344 . S
C12 H16 0.930 1_556 S
N13 C10 1.377 . S
N13 C12 1.344 . S
O14 Co6 2.055 . S
O14 C18 1.253 . S
H15 C11 0.931 . S
H16 C12 0.930 1_554 S
O17 Co6 2.039 1_556 S
O17 C7 1.265 . S
C18 O14 1.253 . S
C18 O19 1.227 . S
O19 C18 1.227 . S
N20 Co6 2.140 . S
N20 C23 1.346 . S
N20 C24 1.345 . S
C21 C22 1.387 . S
C21 C25 1.391 . S
C22 C21 1.387 . S
C22 C23 1.369 . S
C22 H31 0.929 . S
C23 N20 1.346 . S
C23 C22 1.369 . S
C23 H26 0.928 . S
C24 N20 1.345 . S
C24 C25 1.371 . S
C24 H27 0.931 . S
C25 C21 1.391 . S
C25 C24 1.371 . S
C25 H32 0.930 . S
H26 C23 0.928 . S
H27 C24 0.931 . S
H28 C4 0.930 . S
H29 C1 0.930 . S
H30 C10 0.930 . S
H31 C22 0.929 . S
H32 C25 0.930 . S
C33 C34 1.351 1_655 S
C33 N36 1.368 . S
C33 H38 0.931 . S
C34 C33 1.351 1_455 S
C34 N35 1.373 . S
C34 H62 0.930 . S
N35 C34 1.373 . S
N35 C37 1.340 . S
N36 C33 1.368 . S
N36 C37 1.321 1_655 S
N36 Co39 2.135 . S
C37 N35 1.340 . S
C37 N36 1.321 1_455 S
C37 H61 0.930 . S
H38 C33 0.931 . S
Co39 N36 2.135 . S
Co39 N42 2.121 . S
Co39 O47 2.055 . S
Co39 O50 2.039 . S
Co39 N53 2.140 . S
C40 O41 1.227 . S
C40 O50 1.265 . S
O41 C40 1.227 . S
N42 Co39 2.121 . S
N42 C44 1.375 . S
N42 C45 1.313 . S
C43 C44 1.338 . S
C43 N46 1.377 . S
C43 H63 0.930 . S
C44 N42 1.375 . S
C44 C43 1.338 . S
C44 H48 0.931 . S
C45 N42 1.313 . S
C45 N46 1.344 . S
C45 H49 0.930 . S
N46 C43 1.377 . S
N46 C45 1.344 . S
O47 Co39 2.055 . S
O47 C51 1.253 . S
H48 C44 0.931 . S
H49 C45 0.930 . S
O50 Co39 2.039 . S
O50 C40 1.265 . S
C51 O47 1.253 . S
C51 O52 1.227 . S
O52 C51 1.227 . S
N53 Co39 2.140 . S
N53 C56 1.346 . S
N53 C57 1.345 . S
C54 C55 1.387 . S
C54 C58 1.391 . S
C55 C54 1.387 . S
C55 C56 1.369 . S
C55 H64 0.929 1_655 S
C56 N53 1.346 . S
C56 C55 1.369 . S
C56 H59 0.928 . S
C57 N53 1.345 . S
C57 C58 1.371 . S
C57 H60 0.931 . S
C58 C54 1.391 . S
C58 C57 1.371 . S
C58 H65 0.930 . S
H59 C56 0.928 . S
H60 C57 0.931 . S
H61 C37 0.930 . S
H62 C34 0.930 . S
H63 C43 0.930 . S
H64 C55 0.929 1_455 S
H65 C58 0.930 . S
C66 C67 1.351 1_565 S
C66 N69 1.368 . S
C66 H71 0.931 . S
C67 C66 1.351 1_545 S
C67 N68 1.373 . S
C67 H95 0.930 . S
N68 C67 1.373 . S
N68 C70 1.340 . S
N69 C66 1.368 . S
N69 C70 1.321 1_565 S
N69 Co72 2.135 . S
C70 N68 1.340 . S
C70 N69 1.321 1_545 S
C70 H94 0.930 . S
H71 C66 0.931 . S
Co72 N69 2.135 . S
Co72 N75 2.121 . S
Co72 O80 2.055 . S
Co72 O83 2.039 . S
Co72 N86 2.140 . S
C73 O74 1.227 . S
C73 O83 1.265 . S
O74 C73 1.227 . S
N75 Co72 2.121 . S
N75 C77 1.375 . S
N75 C78 1.313 . S
C76 C77 1.338 . S
C76 N79 1.377 . S
C76 H96 0.930 . S
C77 N75 1.375 . S
C77 C76 1.338 . S
C77 H81 0.931 . S
C78 N75 1.313 . S
C78 N79 1.344 . S
C78 H82 0.930 . S
N79 C76 1.377 . S
N79 C78 1.344 . S
O80 Co72 2.055 . S
O80 C84 1.253 . S
H81 C77 0.931 . S
H82 C78 0.930 . S
O83 Co72 2.039 . S
O83 C73 1.265 . S
C84 O80 1.253 . S
C84 O85 1.227 . S
O85 C84 1.227 . S
N86 Co72 2.140 . S
N86 C89 1.346 . S
N86 C90 1.345 . S
C87 C88 1.387 . S
C87 C91 1.391 . S
C88 C87 1.387 . S
C88 C89 1.369 . S
C88 H97 0.929 1_565 S
C89 N86 1.346 . S
C89 C88 1.369 . S
C89 H92 0.928 . S
C90 N86 1.345 . S
C90 C91 1.371 . S
C90 H93 0.931 . S
C91 C87 1.391 . S
C91 C90 1.371 . S
C91 H98 0.930 . S
H92 C89 0.928 . S
H93 C90 0.931 . S
H94 C70 0.930 . S
H95 C67 0.930 . S
H96 C76 0.930 . S
H97 C88 0.929 1_545 S
H98 C91 0.930 . S
C99 C100 1.351 . S
C99 N102 1.368 . S
C99 H104 0.931 . S
C100 C99 1.351 . S
C100 N101 1.373 . S
C100 H128 0.930 . S
N101 C100 1.373 . S
N101 C103 1.340 . S
N102 C99 1.368 . S
N102 C103 1.321 . S
N102 Co105 2.135 . S
C103 N101 1.340 . S
C103 N102 1.321 . S
C103 H127 0.930 . S
H104 C99 0.931 . S
Co105 N102 2.135 . S
Co105 N108 2.121 . S
Co105 O113 2.055 . S
Co105 O116 2.039 . S
Co105 N119 2.140 . S
C106 O107 1.227 . S
C106 O116 1.265 . S
O107 C106 1.227 . S
N108 Co105 2.121 . S
N108 C110 1.375 . S
N108 C111 1.313 . S
C109 C110 1.338 . S
C109 N112 1.377 . S
C109 H129 0.930 . S
C110 N108 1.375 . S
C110 C109 1.338 . S
C110 H114 0.931 . S
C111 N108 1.313 . S
C111 N112 1.344 . S
C111 H115 0.930 . S
N112 C109 1.377 . S
N112 C111 1.344 . S
O113 Co105 2.055 . S
O113 C117 1.253 . S
H114 C110 0.931 . S
H115 C111 0.930 . S
O116 Co105 2.039 . S
O116 C106 1.265 . S
C117 O113 1.253 . S
C117 O118 1.227 . S
O118 C117 1.227 . S
N119 Co105 2.140 . S
N119 C122 1.346 . S
N119 C123 1.345 . S
C120 C121 1.387 . S
C120 C124 1.391 . S
C121 C120 1.387 . S
C121 C122 1.369 . S
C121 H130 0.929 . S
C122 N119 1.346 . S
C122 C121 1.369 . S
C122 H125 0.928 . S
C123 N119 1.345 . S
C123 C124 1.371 . S
C123 H126 0.931 . S
C124 C120 1.391 . S
C124 C123 1.371 . S
C124 H131 0.930 . S
H125 C122 0.928 . S
H126 C123 0.931 . S
H127 C103 0.930 . S
H128 C100 0.930 . S
H129 C109 0.930 . S
H130 C121 0.929 . S
H131 C124 0.930 . S
C132 C133 1.351 1_455 S
C132 N135 1.368 . S
C132 H137 0.931 . S
C133 C132 1.351 1_655 S
C133 N134 1.373 . S
C133 H161 0.930 . S
N134 C133 1.373 . S
N134 C136 1.340 . S
N135 C132 1.368 . S
N135 C136 1.321 1_455 S
N135 Co138 2.135 . S
C136 N134 1.340 . S
C136 N135 1.321 1_655 S
C136 H160 0.930 . S
H137 C132 0.931 . S
Co138 N135 2.135 . S
Co138 N141 2.121 . S
Co138 O146 2.055 . S
Co138 O149 2.039 . S
Co138 N152 2.140 . S
C139 O140 1.227 . S
C139 O149 1.265 . S
O140 C139 1.227 . S
N141 Co138 2.121 . S
N141 C143 1.375 . S
N141 C144 1.313 . S
C142 C143 1.338 . S
C142 N145 1.377 . S
C142 H162 0.930 . S
C143 N141 1.375 . S
C143 C142 1.338 . S
C143 H147 0.931 . S
C144 N141 1.313 . S
C144 N145 1.344 . S
C144 H148 0.930 . S
N145 C142 1.377 . S
N145 C144 1.344 . S
O146 Co138 2.055 . S
O146 C150 1.253 . S
H147 C143 0.931 . S
H148 C144 0.930 . S
O149 Co138 2.039 . S
O149 C139 1.265 . S
C150 O146 1.253 . S
C150 O151 1.227 . S
O151 C150 1.227 . S
N152 Co138 2.140 . S
N152 C155 1.346 . S
N152 C156 1.345 . S
C153 C154 1.387 . S
C153 C157 1.391 . S
C154 C153 1.387 . S
C154 C155 1.369 . S
C154 H163 0.929 1_455 S
C155 N152 1.346 . S
C155 C154 1.369 . S
C155 H158 0.928 . S
C156 N152 1.345 . S
C156 C157 1.371 . S
C156 H159 0.931 . S
C157 C153 1.391 . S
C157 C156 1.371 . S
C157 H164 0.930 . S
H158 C155 0.928 . S
H159 C156 0.931 . S
H160 C136 0.930 . S
H161 C133 0.930 . S
H162 C142 0.930 . S
H163 C154 0.929 1_655 S
H164 C157 0.930 . S
C165 C166 1.351 1_545 S
C165 N168 1.368 . S
C165 H170 0.931 . S
C166 C165 1.351 1_565 S
C166 N167 1.373 . S
C166 H194 0.930 . S
N167 C166 1.373 . S
N167 C169 1.340 . S
N168 C165 1.368 . S
N168 C169 1.321 1_545 S
N168 Co171 2.135 . S
C169 N167 1.340 . S
C169 N168 1.321 1_565 S
C169 H193 0.930 . S
H170 C165 0.931 . S
Co171 N168 2.135 . S
Co171 N174 2.121 . S
Co171 O179 2.055 . S
Co171 O182 2.039 . S
Co171 N185 2.140 . S
C172 O173 1.227 . S
C172 O182 1.265 . S
O173 C172 1.227 . S
N174 Co171 2.121 . S
N174 C176 1.375 . S
N174 C177 1.313 . S
C175 C176 1.338 . S
C175 N178 1.377 . S
C175 H195 0.930 . S
C176 N174 1.375 . S
C176 C175 1.338 . S
C176 H180 0.931 . S
C177 N174 1.313 . S
C177 N178 1.344 . S
C177 H181 0.930 . S
N178 C175 1.377 . S
N178 C177 1.344 . S
O179 Co171 2.055 . S
O179 C183 1.253 . S
H180 C176 0.931 . S
H181 C177 0.930 . S
O182 Co171 2.039 . S
O182 C172 1.265 . S
C183 O179 1.253 . S
C183 O184 1.227 . S
O184 C183 1.227 . S
N185 Co171 2.140 . S
N185 C188 1.346 . S
N185 C189 1.345 . S
C186 C187 1.387 . S
C186 C190 1.391 . S
C187 C186 1.387 . S
C187 C188 1.369 . S
C187 H196 0.929 1_545 S
C188 N185 1.346 . S
C188 C187 1.369 . S
C188 H191 0.928 . S
C189 N185 1.345 . S
C189 C190 1.371 . S
C189 H192 0.931 . S
C190 C186 1.391 . S
C190 C189 1.371 . S
C190 H197 0.930 . S
H191 C188 0.928 . S
H192 C189 0.931 . S
H193 C169 0.930 . S
H194 C166 0.930 . S
H195 C175 0.930 . S
H196 C187 0.929 1_565 S
H197 C190 0.930 . S
C198 C199 1.351 . S
C198 N201 1.368 . S
C198 H203 0.931 . S
C199 C198 1.351 . S
C199 N200 1.373 . S
C199 H227 0.930 . S
N200 C199 1.373 . S
N200 C202 1.340 . S
N201 C198 1.368 . S
N201 C202 1.321 . S
N201 Co204 2.135 . S
C202 N200 1.340 . S
C202 N201 1.321 . S
C202 H226 0.930 . S
H203 C198 0.931 . S
Co204 N201 2.135 . S
Co204 N207 2.121 . S
Co204 O212 2.055 . S
Co204 O215 2.039 . S
Co204 N218 2.140 . S
C205 O206 1.227 . S
C205 O215 1.265 . S
O206 C205 1.227 . S
N207 Co204 2.121 . S
N207 C209 1.375 . S
N207 C210 1.313 . S
C208 C209 1.338 . S
C208 N211 1.377 . S
C208 H228 0.930 . S
C209 N207 1.375 . S
C209 C208 1.338 . S
C209 H213 0.931 . S
C210 N207 1.313 . S
C210 N211 1.344 . S
C210 H214 0.930 . S
N211 C208 1.377 . S
N211 C210 1.344 . S
O212 Co204 2.055 . S
O212 C216 1.253 . S
H213 C209 0.931 . S
H214 C210 0.930 . S
O215 Co204 2.039 . S
O215 C205 1.265 . S
C216 O212 1.253 . S
C216 O217 1.227 . S
O217 C216 1.227 . S
N218 Co204 2.140 . S
N218 C221 1.346 . S
N218 C222 1.345 . S
C219 C220 1.387 . S
C219 C223 1.391 . S
C220 C219 1.387 . S
C220 C221 1.369 . S
C220 H229 0.929 . S
C221 N218 1.346 . S
C221 C220 1.369 . S
C221 H224 0.928 . S
C222 N218 1.345 . S
C222 C223 1.371 . S
C222 H225 0.931 . S
C223 C219 1.391 . S
C223 C222 1.371 . S
C223 H230 0.930 . S
H224 C221 0.928 . S
H225 C222 0.931 . S
H226 C202 0.930 . S
H227 C199 0.930 . S
H228 C208 0.930 . S
H229 C220 0.929 . S
H230 C223 0.930 . S
C231 C232 1.351 1_655 S
C231 N234 1.368 . S
C231 H236 0.931 . S
C232 C231 1.351 1_455 S
C232 N233 1.373 . S
C232 H260 0.930 . S
N233 C232 1.373 . S
N233 C235 1.340 . S
N234 C231 1.368 . S
N234 C235 1.321 1_655 S
N234 Co237 2.135 . S
C235 N233 1.340 . S
C235 N234 1.321 1_455 S
C235 H259 0.930 . S
H236 C231 0.931 . S
Co237 N234 2.135 . S
Co237 N240 2.121 . S
Co237 O245 2.055 . S
Co237 O248 2.039 1_556 S
Co237 N251 2.140 . S
C238 O239 1.227 . S
C238 O248 1.265 . S
O239 C238 1.227 . S
N240 Co237 2.121 . S
N240 C242 1.375 1_556 S
N240 C243 1.313 . S
C241 C242 1.338 . S
C241 N244 1.377 . S
C241 H261 0.930 . S
C242 N240 1.375 1_554 S
C242 C241 1.338 . S
C242 H246 0.931 . S
C243 N240 1.313 . S
C243 N244 1.344 1_556 S
C243 H247 0.930 . S
N244 C241 1.377 . S
N244 C243 1.344 1_554 S
O245 Co237 2.055 . S
O245 C249 1.253 . S
H246 C242 0.931 . S
H247 C243 0.930 . S
O248 Co237 2.039 1_554 S
O248 C238 1.265 . S
C249 O245 1.253 . S
C249 O250 1.227 . S
O250 C249 1.227 . S
N251 Co237 2.140 . S
N251 C254 1.346 . S
N251 C255 1.345 . S
C252 C253 1.387 . S
C252 C256 1.391 . S
C253 C252 1.387 . S
C253 C254 1.369 . S
C253 H262 0.929 1_655 S
C254 N251 1.346 . S
C254 C253 1.369 . S
C254 H257 0.928 . S
C255 N251 1.345 . S
C255 C256 1.371 . S
C255 H258 0.931 . S
C256 C252 1.391 . S
C256 C255 1.371 . S
C256 H263 0.930 . S
H257 C254 0.928 . S
H258 C255 0.931 . S
H259 C235 0.930 . S
H260 C232 0.930 . S
H261 C241 0.930 . S
H262 C253 0.929 1_455 S
H263 C256 0.930 . S
C264 C265 1.351 1_565 S
C264 N267 1.368 . S
C264 H269 0.931 . S
C265 C264 1.351 1_545 S
C265 N266 1.373 . S
C265 H293 0.930 . S
N266 C265 1.373 . S
N266 C268 1.340 . S
N267 C264 1.368 . S
N267 C268 1.321 1_565 S
N267 Co270 2.135 . S
C268 N266 1.340 . S
C268 N267 1.321 1_545 S
C268 H292 0.930 . S
H269 C264 0.931 . S
Co270 N267 2.135 . S
Co270 N273 2.121 . S
Co270 O278 2.055 . S
Co270 O281 2.039 . S
Co270 N284 2.140 . S
C271 O272 1.227 . S
C271 O281 1.265 . S
O272 C271 1.227 . S
N273 Co270 2.121 . S
N273 C275 1.375 . S
N273 C276 1.313 . S
C274 C275 1.338 . S
C274 N277 1.377 . S
C274 H294 0.930 . S
C275 N273 1.375 . S
C275 C274 1.338 . S
C275 H279 0.931 . S
C276 N273 1.313 . S
C276 N277 1.344 . S
C276 H280 0.930 . S
N277 C274 1.377 . S
N277 C276 1.344 . S
O278 Co270 2.055 . S
O278 C282 1.253 . S
H279 C275 0.931 . S
H280 C276 0.930 . S
O281 Co270 2.039 . S
O281 C271 1.265 . S
C282 O278 1.253 . S
C282 O283 1.227 . S
O283 C282 1.227 . S
N284 Co270 2.140 . S
N284 C287 1.346 . S
N284 C288 1.345 . S
C285 C286 1.387 . S
C285 C289 1.391 . S
C286 C285 1.387 . S
C286 C287 1.369 . S
C286 H295 0.929 1_565 S
C287 N284 1.346 . S
C287 C286 1.369 . S
C287 H290 0.928 . S
C288 N284 1.345 . S
C288 C289 1.371 . S
C288 H291 0.931 . S
C289 C285 1.391 . S
C289 C288 1.371 . S
C289 H296 0.930 . S
H290 C287 0.928 . S
H291 C288 0.931 . S
H292 C268 0.930 . S
H293 C265 0.930 . S
H294 C274 0.930 . S
H295 C286 0.929 1_545 S
H296 C289 0.930 . S
C297 C298 1.351 . S
C297 N300 1.368 . S
C297 H302 0.931 . S
C298 C297 1.351 . S
C298 N299 1.373 . S
C298 H326 0.930 . S
N299 C298 1.373 . S
N299 C301 1.340 . S
N300 C297 1.368 . S
N300 C301 1.321 . S
N300 Co303 2.135 . S
C301 N299 1.340 . S
C301 N300 1.321 . S
C301 H325 0.930 . S
H302 C297 0.931 . S
Co303 N300 2.135 . S
Co303 N306 2.121 . S
Co303 O311 2.055 . S
Co303 O314 2.039 . S
Co303 N317 2.140 . S
C304 O305 1.227 . S
C304 O314 1.265 . S
O305 C304 1.227 . S
N306 Co303 2.121 . S
N306 C308 1.375 . S
N306 C309 1.313 . S
C307 C308 1.338 . S
C307 N310 1.377 . S
C307 H327 0.930 . S
C308 N306 1.375 . S
C308 C307 1.338 . S
C308 H312 0.931 . S
C309 N306 1.313 . S
C309 N310 1.344 . S
C309 H313 0.930 . S
N310 C307 1.377 . S
N310 C309 1.344 . S
O311 Co303 2.055 . S
O311 C315 1.253 . S
H312 C308 0.931 . S
H313 C309 0.930 . S
O314 Co303 2.039 . S
O314 C304 1.265 . S
C315 O311 1.253 . S
C315 O316 1.227 . S
O316 C315 1.227 . S
N317 Co303 2.140 . S
N317 C320 1.346 . S
N317 C321 1.345 . S
C318 C319 1.387 . S
C318 C322 1.391 . S
C319 C318 1.387 . S
C319 C320 1.369 . S
C319 H328 0.929 . S
C320 N317 1.346 . S
C320 C319 1.369 . S
C320 H323 0.928 . S
C321 N317 1.345 . S
C321 C322 1.371 . S
C321 H324 0.931 . S
C322 C318 1.391 . S
C322 C321 1.371 . S
C322 H329 0.930 . S
H323 C320 0.928 . S
H324 C321 0.931 . S
H325 C301 0.930 . S
H326 C298 0.930 . S
H327 C307 0.930 . S
H328 C319 0.929 . S
H329 C322 0.930 . S
C330 C331 1.351 1_455 S
C330 N333 1.368 . S
C330 H335 0.931 . S
C331 C330 1.351 1_655 S
C331 N332 1.373 . S
C331 H359 0.930 . S
N332 C331 1.373 . S
N332 C334 1.340 . S
N333 C330 1.368 . S
N333 C334 1.321 1_455 S
N333 Co336 2.135 . S
C334 N332 1.340 . S
C334 N333 1.321 1_655 S
C334 H358 0.930 . S
H335 C330 0.931 . S
Co336 N333 2.135 . S
Co336 N339 2.121 . S
Co336 O344 2.055 . S
Co336 O347 2.039 . S
Co336 N350 2.140 . S
C337 O338 1.227 . S
C337 O347 1.265 . S
O338 C337 1.227 . S
N339 Co336 2.121 . S
N339 C341 1.375 . S
N339 C342 1.313 . S
C340 C341 1.338 . S
C340 N343 1.377 . S
C340 H360 0.930 . S
C341 N339 1.375 . S
C341 C340 1.338 . S
C341 H345 0.931 . S
C342 N339 1.313 . S
C342 N343 1.344 . S
C342 H346 0.930 . S
N343 C340 1.377 . S
N343 C342 1.344 . S
O344 Co336 2.055 . S
O344 C348 1.253 . S
H345 C341 0.931 . S
H346 C342 0.930 . S
O347 Co336 2.039 . S
O347 C337 1.265 . S
C348 O344 1.253 . S
C348 O349 1.227 . S
O349 C348 1.227 . S
N350 Co336 2.140 . S
N350 C353 1.346 . S
N350 C354 1.345 . S
C351 C352 1.387 . S
C351 C355 1.391 . S
C352 C351 1.387 . S
C352 C353 1.369 . S
C352 H361 0.929 1_455 S
C353 N350 1.346 . S
C353 C352 1.369 . S
C353 H356 0.928 . S
C354 N350 1.345 . S
C354 C355 1.371 . S
C354 H357 0.931 . S
C355 C351 1.391 . S
C355 C354 1.371 . S
C355 H362 0.930 . S
H356 C353 0.928 . S
H357 C354 0.931 . S
H358 C334 0.930 . S
H359 C331 0.930 . S
H360 C340 0.930 . S
H361 C352 0.929 1_655 S
H362 C355 0.930 . S
C363 C364 1.351 1_545 S
C363 N366 1.368 . S
C363 H368 0.931 . S
C364 C363 1.351 1_565 S
C364 N365 1.373 . S
C364 H392 0.930 . S
N365 C364 1.373 . S
N365 C367 1.340 . S
N366 C363 1.368 . S
N366 C367 1.321 1_545 S
N366 Co369 2.135 . S
C367 N365 1.340 . S
C367 N366 1.321 1_565 S
C367 H391 0.930 . S
H368 C363 0.931 . S
Co369 N366 2.135 . S
Co369 N372 2.121 . S
Co369 O377 2.055 . S
Co369 O380 2.039 . S
Co369 N383 2.140 . S
C370 O371 1.227 . S
C370 O380 1.265 . S
O371 C370 1.227 . S
N372 Co369 2.121 . S
N372 C374 1.375 . S
N372 C375 1.313 . S
C373 C374 1.338 . S
C373 N376 1.377 . S
C373 H393 0.930 . S
C374 N372 1.375 . S
C374 C373 1.338 . S
C374 H378 0.931 . S
C375 N372 1.313 . S
C375 N376 1.344 . S
C375 H379 0.930 . S
N376 C373 1.377 . S
N376 C375 1.344 . S
O377 Co369 2.055 . S
O377 C381 1.253 . S
H378 C374 0.931 . S
H379 C375 0.930 . S
O380 Co369 2.039 . S
O380 C370 1.265 . S
C381 O377 1.253 . S
C381 O382 1.227 . S
O382 C381 1.227 . S
N383 Co369 2.140 . S
N383 C386 1.346 . S
N383 C387 1.345 . S
C384 C385 1.387 . S
C384 C388 1.391 . S
C385 C384 1.387 . S
C385 C386 1.369 . S
C385 H394 0.929 1_545 S
C386 N383 1.346 . S
C386 C385 1.369 . S
C386 H389 0.928 . S
C387 N383 1.345 . S
C387 C388 1.371 . S
C387 H390 0.931 . S
C388 C384 1.391 . S
C388 C387 1.371 . S
C388 H395 0.930 . S
H389 C386 0.928 . S
H390 C387 0.931 . S
H391 C367 0.930 . S
H392 C364 0.930 . S
H393 C373 0.930 . S
H394 C385 0.929 1_565 S
H395 C388 0.930 . S
H396 C408 0.930 . S
H397 C410 0.930 . S
H398 C411 0.930 . S
H399 C415 0.959 . S
H400 C415 0.959 . S
H401 C415 0.961 . S
H402 C416 0.960 . S
H403 C416 0.961 . S
H404 C416 0.959 . S
H405 C419 0.929 . S
H406 C420 0.931 . S
H407 C422 0.930 . S
C408 H396 0.930 . S
C408 C409 1.399 . S
C408 C413 1.399 . S
C409 C408 1.399 . S
C409 C410 1.376 . S
C410 H397 0.930 . S
C410 C409 1.376 . S
C410 C411 1.388 . S
C411 H398 0.930 . S
C411 C410 1.388 . S
C411 C412 1.390 . S
C412 C411 1.390 . S
C412 C413 1.394 . S
C412 C418 1.465 . S
C413 C408 1.399 . S
C413 C412 1.394 . S
C413 C414 1.516 . S
C414 C413 1.516 . S
C414 C415 1.502 . S
C414 C416 1.561 . S
C414 C417 1.526 . S
C415 H399 0.959 . S
C415 H400 0.959 . S
C415 H401 0.961 . S
C415 C414 1.502 . S
C416 H402 0.960 . S
C416 H403 0.961 . S
C416 H404 0.959 . S
C416 C414 1.561 . S
C417 C414 1.526 . S
C417 C418 1.396 . S
C417 C422 1.390 . S
C418 C412 1.465 . S
C418 C417 1.396 . S
C418 C419 1.399 . S
C419 H405 0.929 . S
C419 C418 1.399 . S
C419 C420 1.385 . S
C420 H406 0.931 . S
C420 C419 1.385 . S
C420 C421 1.389 . S
C421 C420 1.389 . S
C421 C422 1.387 . S
C422 H407 0.930 . S
C422 C417 1.390 . S
C422 C421 1.387 . S
H423 C435 0.930 . S
H424 C437 0.930 . S
H425 C438 0.930 . S
H426 C442 0.959 . S
H427 C442 0.959 . S
H428 C442 0.961 . S
H429 C443 0.960 . S
H430 C443 0.961 . S
H431 C443 0.959 . S
H432 C446 0.929 . S
H433 C447 0.931 . S
H434 C449 0.930 . S
C435 H423 0.930 . S
C435 C436 1.399 . S
C435 C440 1.399 . S
C436 C435 1.399 . S
C436 C437 1.376 . S
C437 H424 0.930 . S
C437 C436 1.376 . S
C437 C438 1.388 . S
C438 H425 0.930 . S
C438 C437 1.388 . S
C438 C439 1.390 . S
C439 C438 1.390 . S
C439 C440 1.394 . S
C439 C445 1.465 . S
C440 C435 1.399 . S
C440 C439 1.394 . S
C440 C441 1.516 . S
C441 C440 1.516 . S
C441 C442 1.502 . S
C441 C443 1.561 . S
C441 C444 1.526 . S
C442 H426 0.959 . S
C442 H427 0.959 . S
C442 H428 0.961 . S
C442 C441 1.502 . S
C443 H429 0.960 . S
C443 H430 0.961 . S
C443 H431 0.959 . S
C443 C441 1.561 . S
C444 C441 1.526 . S
C444 C445 1.396 . S
C444 C449 1.390 . S
C445 C439 1.465 . S
C445 C444 1.396 . S
C445 C446 1.399 . S
C446 H432 0.929 . S
C446 C445 1.399 . S
C446 C447 1.385 . S
C447 H433 0.931 . S
C447 C446 1.385 . S
C447 C448 1.389 . S
C448 C447 1.389 . S
C448 C449 1.387 . S
C449 H434 0.930 . S
C449 C444 1.390 . S
C449 C448 1.387 . S
H450 C462 0.930 . S
H451 C464 0.930 . S
H452 C465 0.930 . S
H453 C469 0.959 . S
H454 C469 0.959 . S
H455 C469 0.961 . S
H456 C470 0.960 . S
H457 C470 0.961 . S
H458 C470 0.959 . S
H459 C473 0.929 . S
H460 C474 0.931 . S
H461 C476 0.930 . S
C462 H450 0.930 . S
C462 C463 1.399 . S
C462 C467 1.399 . S
C463 C462 1.399 . S
C463 C464 1.376 . S
C464 H451 0.930 . S
C464 C463 1.376 . S
C464 C465 1.388 . S
C465 H452 0.930 . S
C465 C464 1.388 . S
C465 C466 1.390 . S
C466 C465 1.390 . S
C466 C467 1.394 . S
C466 C472 1.465 . S
C467 C462 1.399 . S
C467 C466 1.394 . S
C467 C468 1.516 . S
C468 C467 1.516 . S
C468 C469 1.502 . S
C468 C470 1.561 . S
C468 C471 1.526 . S
C469 H453 0.959 . S
C469 H454 0.959 . S
C469 H455 0.961 . S
C469 C468 1.502 . S
C470 H456 0.960 . S
C470 H457 0.961 . S
C470 H458 0.959 . S
C470 C468 1.561 . S
C471 C468 1.526 . S
C471 C472 1.396 . S
C471 C476 1.390 . S
C472 C466 1.465 . S
C472 C471 1.396 . S
C472 C473 1.399 . S
C473 H459 0.929 . S
C473 C472 1.399 . S
C473 C474 1.385 . S
C474 H460 0.931 . S
C474 C473 1.385 . S
C474 C475 1.389 . S
C475 C474 1.389 . S
C475 C476 1.387 . S
C476 H461 0.930 . S
C476 C471 1.390 . S
C476 C475 1.387 . S
H477 C489 0.930 . S
H478 C491 0.930 . S
H479 C492 0.930 . S
H480 C496 0.959 . S
H481 C496 0.959 . S
H482 C496 0.961 . S
H483 C497 0.960 . S
H484 C497 0.961 . S
H485 C497 0.959 . S
H486 C500 0.929 . S
H487 C501 0.931 . S
H488 C503 0.930 . S
C489 H477 0.930 . S
C489 C490 1.399 . S
C489 C494 1.399 . S
C490 C489 1.399 . S
C490 C491 1.376 . S
C491 H478 0.930 . S
C491 C490 1.376 . S
C491 C492 1.388 . S
C492 H479 0.930 . S
C492 C491 1.388 . S
C492 C493 1.390 . S
C493 C492 1.390 . S
C493 C494 1.394 . S
C493 C499 1.465 . S
C494 C489 1.399 . S
C494 C493 1.394 . S
C494 C495 1.516 . S
C495 C494 1.516 . S
C495 C496 1.502 . S
C495 C497 1.561 . S
C495 C498 1.526 . S
C496 H480 0.959 . S
C496 H481 0.959 . S
C496 H482 0.961 . S
C496 C495 1.502 . S
C497 H483 0.960 . S
C497 H484 0.961 . S
C497 H485 0.959 . S
C497 C495 1.561 . S
C498 C495 1.526 . S
C498 C499 1.396 . S
C498 C503 1.390 . S
C499 C493 1.465 . S
C499 C498 1.396 . S
C499 C500 1.399 . S
C500 H486 0.929 . S
C500 C499 1.399 . S
C500 C501 1.385 . S
C501 H487 0.931 . S
C501 C500 1.385 . S
C501 C502 1.389 . S
C502 C501 1.389 . S
C502 C503 1.387 . S
C503 H488 0.930 . S
C503 C498 1.390 . S
C503 C502 1.387 . S
H504 C516 0.930 . S
H505 C518 0.930 . S
H506 C519 0.930 . S
H507 C523 0.959 . S
H508 C523 0.959 . S
H509 C523 0.961 . S
H510 C524 0.960 . S
H511 C524 0.961 . S
H512 C524 0.959 . S
H513 C527 0.929 . S
H514 C528 0.931 . S
H515 C530 0.930 . S
C516 H504 0.930 . S
C516 C517 1.399 . S
C516 C521 1.399 . S
C517 C516 1.399 . S
C517 C518 1.376 . S
C518 H505 0.930 . S
C518 C517 1.376 . S
C518 C519 1.388 . S
C519 H506 0.930 . S
C519 C518 1.388 . S
C519 C520 1.390 . S
C520 C519 1.390 . S
C520 C521 1.394 . S
C520 C526 1.465 . S
C521 C516 1.399 . S
C521 C520 1.394 . S
C521 C522 1.516 . S
C522 C521 1.516 . S
C522 C523 1.502 . S
C522 C524 1.561 . S
C522 C525 1.526 . S
C523 H507 0.959 . S
C523 H508 0.959 . S
C523 H509 0.961 . S
C523 C522 1.502 . S
C524 H510 0.960 . S
C524 H511 0.961 . S
C524 H512 0.959 . S
C524 C522 1.561 . S
C525 C522 1.526 . S
C525 C526 1.396 . S
C525 C530 1.390 . S
C526 C520 1.465 . S
C526 C525 1.396 . S
C526 C527 1.399 . S
C527 H513 0.929 . S
C527 C526 1.399 . S
C527 C528 1.385 . S
C528 H514 0.931 . S
C528 C527 1.385 . S
C528 C529 1.389 . S
C529 C528 1.389 . S
C529 C530 1.387 . S
C530 H515 0.930 . S
C530 C525 1.390 . S
C530 C529 1.387 . S
H531 C543 0.930 . S
H532 C545 0.930 . S
H533 C546 0.930 . S
H534 C550 0.959 . S
H535 C550 0.959 . S
H536 C550 0.961 . S
H537 C551 0.960 . S
H538 C551 0.961 . S
H539 C551 0.959 . S
H540 C554 0.929 . S
H541 C555 0.931 . S
H542 C557 0.930 . S
C543 H531 0.930 . S
C543 C544 1.399 . S
C543 C548 1.399 . S
C544 C543 1.399 . S
C544 C545 1.376 . S
C545 H532 0.930 . S
C545 C544 1.376 . S
C545 C546 1.388 . S
C546 H533 0.930 . S
C546 C545 1.388 . S
C546 C547 1.390 . S
C547 C546 1.390 . S
C547 C548 1.394 . S
C547 C553 1.465 . S
C548 C543 1.399 . S
C548 C547 1.394 . S
C548 C549 1.516 . S
C549 C548 1.516 . S
C549 C550 1.502 . S
C549 C551 1.561 . S
C549 C552 1.526 . S
C550 H534 0.959 . S
C550 H535 0.959 . S
C550 H536 0.961 . S
C550 C549 1.502 . S
C551 H537 0.960 . S
C551 H538 0.961 . S
C551 H539 0.959 . S
C551 C549 1.561 . S
C552 C549 1.526 . S
C552 C553 1.396 . S
C552 C557 1.390 . S
C553 C547 1.465 . S
C553 C552 1.396 . S
C553 C554 1.399 . S
C554 H540 0.929 . S
C554 C553 1.399 . S
C554 C555 1.385 . S
C555 H541 0.931 . S
C555 C554 1.385 . S
C555 C556 1.389 . S
C556 C555 1.389 . S
C556 C557 1.387 . S
C557 H542 0.930 . S
C557 C552 1.390 . S
C557 C556 1.387 . S
H558 C570 0.930 . S
H559 C572 0.930 . S
H560 C573 0.930 . S
H561 C577 0.959 . S
H562 C577 0.959 . S
H563 C577 0.961 . S
H564 C578 0.960 . S
H565 C578 0.961 . S
H566 C578 0.959 . S
H567 C581 0.929 . S
H568 C582 0.931 . S
H569 C584 0.930 . S
C570 H558 0.930 . S
C570 C571 1.399 1_556 S
C570 C575 1.403 . S
C571 C570 1.399 1_554 S
C571 C572 1.376 . S
C572 H559 0.930 . S
C572 C571 1.376 . S
C572 C573 1.388 . S
C573 H560 0.930 . S
C573 C572 1.388 . S
C573 C574 1.390 . S
C574 C573 1.390 . S
C574 C575 1.379 1_554 S
C574 C580 1.465 . S
C575 C570 1.403 . S
C575 C574 1.379 1_556 S
C575 C576 1.525 . S
C576 C575 1.525 . S
C576 C577 1.502 . S
C576 C578 1.561 . S
C576 C579 1.526 1_556 S
C577 H561 0.959 . S
C577 H562 0.959 . S
C577 H563 0.961 . S
C577 C576 1.502 . S
C578 H564 0.960 . S
C578 H565 0.961 . S
C578 H566 0.959 . S
C578 C576 1.561 . S
C579 C576 1.526 1_554 S
C579 C580 1.396 . S
C579 C584 1.390 1_554 S
C580 C574 1.465 . S
C580 C579 1.396 . S
C580 C581 1.399 . S
C581 H567 0.929 . S
C581 C580 1.399 . S
C581 C582 1.385 . S
C582 H568 0.931 . S
C582 C581 1.385 . S
C582 C583 1.389 . S
C583 C582 1.389 . S
C583 C584 1.387 1_554 S
C584 H569 0.930 . S
C584 C579 1.390 1_556 S
C584 C583 1.387 1_556 S
H585 C597 0.930 . S
H586 C599 0.930 . S
H587 C600 0.930 . S
H588 C604 0.959 1_655 S
H589 C604 0.959 . S
H590 C604 0.961 1_655 S
H591 C605 0.960 . S
H592 C605 0.961 . S
H593 C605 0.959 . S
H594 C608 0.929 . S
H595 C609 0.931 . S
H596 C611 0.930 . S
C597 H585 0.930 . S
C597 C598 1.399 . S
C597 C602 1.399 1_655 S
C598 C597 1.399 . S
C598 C599 1.376 1_655 S
C599 H586 0.930 . S
C599 C598 1.376 1_455 S
C599 C600 1.388 . S
C600 H587 0.930 . S
C600 C599 1.388 . S
C600 C601 1.390 . S
C601 C600 1.390 . S
C601 C602 1.394 . S
C601 C607 1.465 . S
C602 C597 1.399 1_455 S
C602 C601 1.394 . S
C602 C603 1.516 . S
C603 C602 1.516 . S
C603 C604 1.502 . S
C603 C605 1.561 . S
C603 C606 1.526 . S
C604 H588 0.959 1_455 S
C604 H589 0.959 . S
C604 H590 0.961 1_455 S
C604 C603 1.502 . S
C605 H591 0.960 . S
C605 H592 0.961 . S
C605 H593 0.959 . S
C605 C603 1.561 . S
C606 C603 1.526 . S
C606 C607 1.396 . S
C606 C611 1.390 . S
C607 C601 1.465 . S
C607 C606 1.396 . S
C607 C608 1.399 . S
C608 H594 0.929 . S
C608 C607 1.399 . S
C608 C609 1.385 . S
C609 H595 0.931 . S
C609 C608 1.385 . S
C609 C610 1.389 . S
C610 C609 1.389 . S
C610 C611 1.387 . S
C611 H596 0.930 . S
C611 C606 1.390 . S
C611 C610 1.387 . S
H612 C624 0.930 . S
H613 C626 0.930 . S
H614 C627 0.930 . S
H615 C631 0.959 1_565 S
H616 C631 0.959 1_565 S
H617 C631 0.961 . S
H618 C632 0.960 . S
H619 C632 0.961 . S
H620 C632 0.959 . S
H621 C635 0.929 . S
H622 C636 0.931 . S
H623 C638 0.930 . S
C624 H612 0.930 . S
C624 C625 1.399 . S
C624 C629 1.399 . S
C625 C624 1.399 . S
C625 C626 1.376 . S
C626 H613 0.930 . S
C626 C625 1.376 . S
C626 C627 1.388 . S
C627 H614 0.930 . S
C627 C626 1.388 . S
C627 C628 1.390 . S
C628 C627 1.390 . S
C628 C629 1.394 . S
C628 C634 1.465 . S
C629 C624 1.399 . S
C629 C628 1.394 . S
C629 C630 1.516 . S
C630 C629 1.516 . S
C630 C631 1.502 . S
C630 C632 1.561 . S
C630 C633 1.526 . S
C631 H615 0.959 1_545 S
C631 H616 0.959 1_545 S
C631 H617 0.961 . S
C631 C630 1.502 . S
C632 H618 0.960 . S
C632 H619 0.961 . S
C632 H620 0.959 . S
C632 C630 1.561 . S
C633 C630 1.526 . S
C633 C634 1.396 . S
C633 C638 1.390 1_545 S
C634 C628 1.465 . S
C634 C633 1.396 . S
C634 C635 1.399 . S
C635 H621 0.929 . S
C635 C634 1.399 . S
C635 C636 1.385 . S
C636 H622 0.931 . S
C636 C635 1.385 . S
C636 C637 1.389 1_545 S
C637 C636 1.389 1_565 S
C637 C638 1.387 . S
C638 H623 0.930 . S
C638 C633 1.390 1_565 S
C638 C637 1.387 . S
H639 C651 0.930 . S
H640 C653 0.930 . S
H641 C654 0.930 . S
H642 C658 0.959 . S
H643 C658 0.959 . S
H644 C658 0.961 . S
H645 C659 0.960 . S
H646 C659 0.961 . S
H647 C659 0.959 . S
H648 C662 0.929 . S
H649 C663 0.931 . S
H650 C665 0.930 . S
C651 H639 0.930 . S
C651 C652 1.399 . S
C651 C656 1.399 . S
C652 C651 1.399 . S
C652 C653 1.376 . S
C653 H640 0.930 . S
C653 C652 1.376 . S
C653 C654 1.388 . S
C654 H641 0.930 . S
C654 C653 1.388 . S
C654 C655 1.390 . S
C655 C654 1.390 . S
C655 C656 1.394 . S
C655 C661 1.465 . S
C656 C651 1.399 . S
C656 C655 1.394 . S
C656 C657 1.516 . S
C657 C656 1.516 . S
C657 C658 1.502 . S
C657 C659 1.561 . S
C657 C660 1.526 . S
C658 H642 0.959 . S
C658 H643 0.959 . S
C658 H644 0.961 . S
C658 C657 1.502 . S
C659 H645 0.960 . S
C659 H646 0.961 . S
C659 H647 0.959 . S
C659 C657 1.561 . S
C660 C657 1.526 . S
C660 C661 1.396 . S
C660 C665 1.390 . S
C661 C655 1.465 . S
C661 C660 1.396 . S
C661 C662 1.399 . S
C662 H648 0.929 . S
C662 C661 1.399 . S
C662 C663 1.385 . S
C663 H649 0.931 . S
C663 C662 1.385 . S
C663 C664 1.389 . S
C664 C663 1.389 . S
C664 C665 1.387 . S
C665 H650 0.930 . S
C665 C660 1.390 . S
C665 C664 1.387 . S
H666 C678 0.930 . S
H667 C680 0.930 . S
H668 C681 0.930 . S
H669 C685 0.959 . S
H670 C685 0.959 . S
H671 C685 0.961 . S
H672 C686 0.960 . S
H673 C686 0.961 . S
H674 C686 0.959 . S
H675 C689 0.929 . S
H676 C690 0.931 . S
H677 C692 0.930 . S
C678 H666 0.930 . S
C678 C679 1.399 . S
C678 C683 1.399 . S
C679 C678 1.399 . S
C679 C680 1.376 . S
C680 H667 0.930 . S
C680 C679 1.376 . S
C680 C681 1.388 . S
C681 H668 0.930 . S
C681 C680 1.388 . S
C681 C682 1.390 . S
C682 C681 1.390 . S
C682 C683 1.394 . S
C682 C688 1.465 . S
C683 C678 1.399 . S
C683 C682 1.394 . S
C683 C684 1.516 . S
C684 C683 1.516 . S
C684 C685 1.502 . S
C684 C686 1.561 . S
C684 C687 1.526 . S
C685 H669 0.959 . S
C685 H670 0.959 . S
C685 H671 0.961 . S
C685 C684 1.502 . S
C686 H672 0.960 . S
C686 H673 0.961 . S
C686 H674 0.959 . S
C686 C684 1.561 . S
C687 C684 1.526 . S
C687 C688 1.396 . S
C687 C692 1.390 . S
C688 C682 1.465 . S
C688 C687 1.396 . S
C688 C689 1.399 1_655 S
C689 H675 0.929 . S
C689 C688 1.399 1_455 S
C689 C690 1.385 . S
C690 H676 0.931 . S
C690 C689 1.385 . S
C690 C691 1.389 . S
C691 C690 1.389 . S
C691 C692 1.387 1_455 S
C692 H677 0.930 . S
C692 C687 1.390 . S
C692 C691 1.387 1_655 S
H693 C705 0.930 . S
H694 C707 0.930 . S
H695 C708 0.930 . S
H696 C712 0.959 . S
H697 C712 0.959 . S
H698 C712 0.961 . S
H699 C713 0.960 . S
H700 C713 0.961 1_545 S
H701 C713 0.959 1_545 S
H702 C716 0.929 . S
H703 C717 0.931 1_545 S
H704 C719 0.933 . S
C705 H693 0.930 . S
C705 C706 1.399 . S
C705 C710 1.399 . S
C706 C705 1.399 . S
C706 C707 1.376 . S
C707 H694 0.930 . S
C707 C706 1.376 . S
C707 C708 1.388 . S
C708 H695 0.930 . S
C708 C707 1.388 . S
C708 C709 1.390 . S
C709 C708 1.390 . S
C709 C710 1.394 . S
C709 C715 1.465 . S
C710 C705 1.399 . S
C710 C709 1.394 . S
C710 C711 1.516 . S
C711 C710 1.516 . S
C711 C712 1.502 . S
C711 C713 1.561 . S
C711 C714 1.526 . S
C712 H696 0.959 . S
C712 H697 0.959 . S
C712 H698 0.961 . S
C712 C711 1.502 . S
C713 H699 0.960 . S
C713 H700 0.961 1_565 S
C713 H701 0.959 1_565 S
C713 C711 1.561 . S
C714 C711 1.526 . S
C714 C715 1.396 . S
C714 C719 1.380 1_565 S
C715 C709 1.465 . S
C715 C714 1.396 . S
C715 C716 1.399 . S
C716 H702 0.929 . S
C716 C715 1.399 . S
C716 C717 1.385 . S
C717 H703 0.931 1_565 S
C717 C716 1.385 . S
C717 C718 1.389 1_565 S
C718 C717 1.389 1_545 S
C718 C719 1.392 . S
C719 H704 0.933 . S
C719 C714 1.380 1_545 S
C719 C718 1.392 . S
H720 C732 0.930 . S
H721 C734 0.930 . S
H722 C735 0.930 . S
H723 C739 0.959 . S
H724 C739 0.959 . S
H725 C739 0.961 . S
H726 C740 0.960 . S
H727 C740 0.961 . S
H728 C740 0.959 . S
H729 C743 0.929 . S
H730 C744 0.931 . S
H731 C746 0.930 . S
C732 H720 0.930 . S
C732 C733 1.399 . S
C732 C737 1.399 . S
C733 C732 1.399 . S
C733 C734 1.376 . S
C734 H721 0.930 . S
C734 C733 1.376 . S
C734 C735 1.388 . S
C735 H722 0.930 . S
C735 C734 1.388 . S
C735 C736 1.390 . S
C736 C735 1.390 . S
C736 C737 1.394 . S
C736 C742 1.465 . S
C737 C732 1.399 . S
C737 C736 1.394 . S
C737 C738 1.516 . S
C738 C737 1.516 . S
C738 C739 1.502 . S
C738 C740 1.561 . S
C738 C741 1.526 . S
C739 H723 0.959 . S
C739 H724 0.959 . S
C739 H725 0.961 . S
C739 C738 1.502 . S
C740 H726 0.960 . S
C740 H727 0.961 . S
C740 H728 0.959 . S
C740 C738 1.561 . S
C741 C738 1.526 . S
C741 C742 1.396 . S
C741 C746 1.390 . S
C742 C736 1.465 . S
C742 C741 1.396 . S
C742 C743 1.399 . S
C743 H729 0.929 . S
C743 C742 1.399 . S
C743 C744 1.385 . S
C744 H730 0.931 . S
C744 C743 1.385 . S
C744 C745 1.389 . S
C745 C744 1.389 . S
C745 C746 1.387 . S
C746 H731 0.930 . S
C746 C741 1.390 . S
C746 C745 1.387 . S
H747 C759 0.930 1_554 S
H748 C761 0.930 . S
H749 C762 0.930 . S
H750 C766 0.959 . S
H751 C766 0.959 . S
H752 C766 0.961 . S
H753 C767 0.960 . S
H754 C767 0.961 . S
H755 C767 0.959 . S
H756 C770 0.929 . S
H757 C771 0.931 . S
H758 C773 0.930 1_554 S
C759 H747 0.930 1_556 S
C759 C760 1.399 1_455 S
C759 C764 1.399 . S
C760 C759 1.399 1_655 S
C760 C761 1.376 . S
C761 H748 0.930 . S
C761 C760 1.376 . S
C761 C762 1.388 1_655 S
C762 H749 0.930 . S
C762 C761 1.388 1_455 S
C762 C763 1.390 . S
C763 C762 1.390 . S
C763 C764 1.394 . S
C763 C769 1.465 . S
C764 C759 1.399 . S
C764 C763 1.394 . S
C764 C765 1.516 1_556 S
C765 C764 1.516 1_554 S
C765 C766 1.502 . S
C765 C767 1.561 . S
C765 C768 1.526 1_554 S
C766 H750 0.959 . S
C766 H751 0.959 . S
C766 H752 0.961 . S
C766 C765 1.502 . S
C767 H753 0.960 . S
C767 H754 0.961 . S
C767 H755 0.959 . S
C767 C765 1.561 . S
C768 C765 1.526 1_556 S
C768 C769 1.396 . S
C768 C773 1.390 . S
C769 C763 1.465 . S
C769 C768 1.396 . S
C769 C770 1.399 . S
C770 H756 0.929 . S
C770 C769 1.399 . S
C770 C771 1.385 . S
C771 H757 0.931 . S
C771 C770 1.385 . S
C771 C772 1.389 . S
C772 C771 1.389 . S
C772 C773 1.387 . S
C773 H758 0.930 1_556 S
C773 C768 1.390 . S
C773 C772 1.387 . S
H774 C786 0.930 . S
H775 C788 0.930 . S
H776 C789 0.930 . S
H777 C793 0.959 . S
H778 C793 0.959 . S
H779 C793 0.961 . S
H780 C794 0.960 . S
H781 C794 0.961 . S
H782 C794 0.959 . S
H783 C797 0.929 . S
H784 C798 0.931 . S
H785 C800 0.930 . S
C786 H774 0.930 . S
C786 C787 1.399 . S
C786 C791 1.399 1_565 S
C787 C786 1.399 . S
C787 C788 1.376 1_565 S
C788 H775 0.930 . S
C788 C787 1.376 1_545 S
C788 C789 1.388 . S
C789 H776 0.930 . S
C789 C788 1.388 . S
C789 C790 1.390 . S
C790 C789 1.390 . S
C790 C791 1.394 . S
C790 C796 1.465 . S
C791 C786 1.399 1_545 S
C791 C790 1.394 . S
C791 C792 1.516 . S
C792 C791 1.516 . S
C792 C793 1.502 . S
C792 C794 1.561 1_545 S
C792 C795 1.526 . S
C793 H777 0.959 . S
C793 H778 0.959 . S
C793 H779 0.961 . S
C793 C792 1.502 . S
C794 H780 0.960 . S
C794 H781 0.961 . S
C794 H782 0.959 . S
C794 C792 1.561 1_565 S
C795 C792 1.526 . S
C795 C796 1.396 . S
C795 C800 1.390 . S
C796 C790 1.465 . S
C796 C795 1.396 . S
C796 C797 1.399 . S
C797 H783 0.929 . S
C797 C796 1.399 . S
C797 C798 1.385 . S
C798 H784 0.931 . S
C798 C797 1.385 . S
C798 C799 1.389 . S
C799 C798 1.389 . S
C799 C800 1.387 . S
C800 H785 0.930 . S
C800 C795 1.390 . S
C800 C799 1.387 . S
H801 C813 0.930 . S
H802 C815 0.930 . S
H803 C816 0.930 . S
H804 C820 0.959 . S
H805 C820 0.959 . S
H806 C820 0.961 . S
H807 C821 0.960 . S
H808 C821 0.961 . S
H809 C821 0.959 . S
H810 C824 0.929 . S
H811 C825 0.931 . S
H812 C827 0.930 . S
C813 H801 0.930 . S
C813 C814 1.399 . S
C813 C818 1.399 . S
C814 C813 1.399 . S
C814 C815 1.376 . S
C815 H802 0.930 . S
C815 C814 1.376 . S
C815 C816 1.388 . S
C816 H803 0.930 . S
C816 C815 1.388 . S
C816 C817 1.390 . S
C817 C816 1.390 . S
C817 C818 1.394 . S
C817 C823 1.465 . S
C818 C813 1.399 . S
C818 C817 1.394 . S
C818 C819 1.516 . S
C819 C818 1.516 . S
C819 C820 1.502 . S
C819 C821 1.561 . S
C819 C822 1.526 . S
C820 H804 0.959 . S
C820 H805 0.959 . S
C820 H806 0.961 . S
C820 C819 1.502 . S
C821 H807 0.960 . S
C821 H808 0.961 . S
C821 H809 0.959 . S
C821 C819 1.561 . S
C822 C819 1.526 . S
C822 C823 1.396 . S
C822 C827 1.390 . S
C823 C817 1.465 . S
C823 C822 1.396 . S
C823 C824 1.399 . S
C824 H810 0.929 . S
C824 C823 1.399 . S
C824 C825 1.385 . S
C825 H811 0.931 . S
C825 C824 1.385 . S
C825 C826 1.389 . S
C826 C825 1.389 . S
C826 C827 1.387 . S
C827 H812 0.930 . S
C827 C822 1.390 . S
C827 C826 1.387 . S
H828 C840 0.930 . S
H829 C842 0.930 . S
H830 C843 0.930 . S
H831 C847 0.959 1_455 S
H832 C847 0.959 1_455 S
H833 C847 0.961 . S
H834 C848 0.960 . S
H835 C848 0.961 . S
H836 C848 0.959 . S
H837 C851 0.929 . S
H838 C852 0.931 . S
H839 C854 0.940 . S
C840 H828 0.930 . S
C840 C841 1.399 . S
C840 C845 1.399 . S
C841 C840 1.399 . S
C841 C842 1.376 . S
C842 H829 0.930 . S
C842 C841 1.376 . S
C842 C843 1.388 . S
C843 H830 0.930 . S
C843 C842 1.388 . S
C843 C844 1.390 . S
C844 C843 1.390 . S
C844 C845 1.394 . S
C844 C850 1.465 . S
C845 C840 1.399 . S
C845 C844 1.394 . S
C845 C846 1.516 . S
C846 C845 1.516 . S
C846 C847 1.502 . S
C846 C848 1.561 . S
C846 C849 1.526 . S
C847 H831 0.959 1_655 S
C847 H832 0.959 1_655 S
C847 H833 0.961 . S
C847 C846 1.502 . S
C848 H834 0.960 . S
C848 H835 0.961 . S
C848 H836 0.959 . S
C848 C846 1.561 . S
C849 C846 1.526 . S
C849 C850 1.396 . S
C849 C854 1.370 1_655 S
C850 C844 1.465 . S
C850 C849 1.396 . S
C850 C851 1.399 . S
C851 H837 0.929 . S
C851 C850 1.399 . S
C851 C852 1.385 . S
C852 H838 0.931 . S
C852 C851 1.385 . S
C852 C853 1.389 1_655 S
C853 C852 1.389 1_455 S
C853 C854 1.397 . S
C854 H839 0.940 . S
C854 C849 1.370 1_455 S
C854 C853 1.397 . S
H855 C867 0.930 . S
H856 C869 0.930 . S
H857 C870 0.930 . S
H858 C874 0.959 1_545 S
H859 C874 0.959 1_545 S
H860 C874 0.961 . S
H861 C875 0.960 . S
H862 C875 0.961 . S
H863 C875 0.959 . S
H864 C878 0.929 . S
H865 C879 0.931 . S
H866 C881 0.930 . S
C867 H855 0.930 . S
C867 C868 1.399 . S
C867 C872 1.399 . S
C868 C867 1.399 . S
C868 C869 1.376 . S
C869 H856 0.930 . S
C869 C868 1.376 . S
C869 C870 1.388 . S
C870 H857 0.930 . S
C870 C869 1.388 . S
C870 C871 1.390 . S
C871 C870 1.390 . S
C871 C872 1.394 . S
C871 C877 1.465 . S
C872 C867 1.399 . S
C872 C871 1.394 . S
C872 C873 1.516 . S
C873 C872 1.516 . S
C873 C874 1.502 . S
C873 C875 1.561 . S
C873 C876 1.526 . S
C874 H858 0.959 1_565 S
C874 H859 0.959 1_565 S
C874 H860 0.961 . S
C874 C873 1.502 . S
C875 H861 0.960 . S
C875 H862 0.961 . S
C875 H863 0.959 . S
C875 C873 1.561 . S
C876 C873 1.526 . S
C876 C877 1.396 . S
C876 C881 1.390 1_565 S
C877 C871 1.465 . S
C877 C876 1.396 . S
C877 C878 1.399 . S
C878 H864 0.929 . S
C878 C877 1.399 . S
C878 C879 1.385 . S
C879 H865 0.931 . S
C879 C878 1.385 . S
C879 C880 1.389 1_565 S
C880 C879 1.389 1_545 S
C880 C881 1.387 . S
C881 H866 0.930 . S
C881 C876 1.390 1_545 S
C881 C880 1.387 . S
H882 C894 0.930 . S
H883 C896 0.930 . S
H884 C897 0.930 . S
H885 C901 0.959 . S
H886 C901 0.959 . S
H887 C901 0.961 . S
H888 C902 0.960 . S
H889 C902 0.961 . S
H890 C902 0.959 . S
H891 C905 0.929 . S
H892 C906 0.931 . S
H893 C908 0.930 . S
C894 H882 0.930 . S
C894 C895 1.399 . S
C894 C899 1.399 . S
C895 C894 1.399 . S
C895 C896 1.376 . S
C896 H883 0.930 . S
C896 C895 1.376 . S
C896 C897 1.388 . S
C897 H884 0.930 . S
C897 C896 1.388 . S
C897 C898 1.390 . S
C898 C897 1.390 . S
C898 C899 1.394 . S
C898 C904 1.465 . S
C899 C894 1.399 . S
C899 C898 1.394 . S
C899 C900 1.516 . S
C900 C899 1.516 . S
C900 C901 1.502 . S
C900 C902 1.561 . S
C900 C903 1.526 . S
C901 H885 0.959 . S
C901 H886 0.959 . S
C901 H887 0.961 . S
C901 C900 1.502 . S
C902 H888 0.960 . S
C902 H889 0.961 . S
C902 H890 0.959 . S
C902 C900 1.561 . S
C903 C900 1.526 . S
C903 C904 1.396 . S
C903 C908 1.390 . S
C904 C898 1.465 . S
C904 C903 1.396 . S
C904 C905 1.399 . S
C905 H891 0.929 . S
C905 C904 1.399 . S
C905 C906 1.385 . S
C906 H892 0.931 . S
C906 C905 1.385 . S
C906 C907 1.389 . S
C907 C906 1.389 . S
C907 C908 1.387 . S
C908 H893 0.930 . S
C908 C903 1.390 . S
C908 C907 1.387 . S
H909 C921 0.930 . S
H910 C923 0.930 . S
H911 C924 0.930 . S
H912 C928 0.959 . S
H913 C928 0.959 . S
H914 C928 0.961 . S
H915 C929 0.960 1_455 S
H916 C929 0.961 . S
H917 C929 0.959 1_455 S
H918 C932 0.929 . S
H919 C933 0.931 . S
H920 C935 0.930 . S
C921 H909 0.930 . S
C921 C922 1.399 . S
C921 C926 1.399 . S
C922 C921 1.399 . S
C922 C923 1.376 . S
C923 H910 0.930 . S
C923 C922 1.376 . S
C923 C924 1.388 . S
C924 H911 0.930 . S
C924 C923 1.388 . S
C924 C925 1.390 . S
C925 C924 1.390 . S
C925 C926 1.394 . S
C925 C931 1.465 . S
C926 C921 1.399 . S
C926 C925 1.394 . S
C926 C927 1.516 . S
C927 C926 1.516 . S
C927 C928 1.502 1_455 S
C927 C929 1.561 1_455 S
C927 C930 1.526 . S
C928 H912 0.959 . S
C928 H913 0.959 . S
C928 H914 0.961 . S
C928 C927 1.502 1_655 S
C929 H915 0.960 1_655 S
C929 H916 0.961 . S
C929 H917 0.959 1_655 S
C929 C927 1.561 1_655 S
C930 C927 1.526 . S
C930 C931 1.396 . S
C930 C935 1.390 1_455 S
C931 C925 1.465 . S
C931 C930 1.396 . S
C931 C932 1.399 . S
C932 H918 0.929 . S
C932 C931 1.399 . S
C932 C933 1.385 . S
C933 H919 0.931 . S
C933 C932 1.385 . S
C933 C934 1.389 1_455 S
C934 C933 1.389 1_655 S
C934 C935 1.387 . S
C935 H920 0.930 . S
C935 C930 1.390 1_655 S
C935 C934 1.387 . S
H936 C948 0.930 . S
H937 C950 0.930 . S
H938 C951 0.916 1_545 S
H939 C955 0.959 . S
H940 C955 0.959 . S
H941 C955 0.961 . S
H942 C956 0.960 1_565 S
H943 C956 0.961 . S
H944 C956 0.959 1_565 S
H945 C959 0.929 . S
H946 C960 0.931 . S
H947 C962 0.930 . S
C948 H936 0.930 . S
C948 C949 1.399 . S
C948 C953 1.399 1_565 S
C949 C948 1.399 . S
C949 C950 1.376 . S
C950 H937 0.930 . S
C950 C949 1.376 . S
C950 C951 1.388 . S
C951 H938 0.916 1_565 S
C951 C950 1.388 . S
C951 C952 1.390 1_565 S
C952 C951 1.390 1_545 S
C952 C953 1.394 . S
C952 C958 1.465 . S
C953 C948 1.399 1_545 S
C953 C952 1.394 . S
C953 C954 1.516 . S
C954 C953 1.516 . S
C954 C955 1.502 . S
C954 C956 1.561 . S
C954 C957 1.526 . S
C955 H939 0.959 . S
C955 H940 0.959 . S
C955 H941 0.961 . S
C955 C954 1.502 . S
C956 H942 0.960 1_545 S
C956 H943 0.961 . S
C956 H944 0.959 1_545 S
C956 C954 1.561 . S
C957 C954 1.526 . S
C957 C958 1.396 . S
C957 C962 1.390 . S
C958 C952 1.465 . S
C958 C957 1.396 . S
C958 C959 1.399 . S
C959 H945 0.929 . S
C959 C958 1.399 . S
C959 C960 1.385 . S
C960 H946 0.931 . S
C960 C959 1.385 . S
C960 C961 1.389 . S
C961 C960 1.389 . S
C961 C962 1.387 . S
C962 H947 0.930 . S
C962 C957 1.390 . S
C962 C961 1.387 . S
H963 C975 0.930 . S
H964 C977 0.930 . S
H965 C978 0.930 . S
H966 C982 0.959 . S
H967 C982 0.959 . S
H968 C982 0.961 . S
H969 C983 0.960 . S
H970 C983 0.961 . S
H971 C983 0.959 . S
H972 C986 0.929 . S
H973 C987 0.931 . S
H974 C989 0.930 . S
C975 H963 0.930 . S
C975 C976 1.399 . S
C975 C980 1.399 . S
C976 C975 1.399 . S
C976 C977 1.376 . S
C977 H964 0.930 . S
C977 C976 1.376 . S
C977 C978 1.388 . S
C978 H965 0.930 . S
C978 C977 1.388 . S
C978 C979 1.390 . S
C979 C978 1.390 . S
C979 C980 1.394 . S
C979 C985 1.465 . S
C980 C975 1.399 . S
C980 C979 1.394 . S
C980 C981 1.516 . S
C981 C980 1.516 . S
C981 C982 1.502 . S
C981 C983 1.561 . S
C981 C984 1.526 . S
C982 H966 0.959 . S
C982 H967 0.959 . S
C982 H968 0.961 . S
C982 C981 1.502 . S
C983 H969 0.960 . S
C983 H970 0.961 . S
C983 H971 0.959 . S
C983 C981 1.561 . S
C984 C981 1.526 . S
C984 C985 1.396 . S
C984 C989 1.390 . S
C985 C979 1.465 . S
C985 C984 1.396 . S
C985 C986 1.399 . S
C986 H972 0.929 . S
C986 C985 1.399 . S
C986 C987 1.385 . S
C987 H973 0.931 . S
C987 C986 1.385 . S
C987 C988 1.389 . S
C988 C987 1.389 . S
C988 C989 1.387 . S
C989 H974 0.930 . S
C989 C984 1.390 . S
C989 C988 1.387 . S
H990 C1002 0.930 . S
H991 C1004 0.930 . S
H992 C1005 0.930 . S
H993 C1009 0.959 . S
H994 C1009 0.959 . S
H995 C1009 0.961 . S
H996 C1010 0.960 . S
H997 C1010 0.961 . S
H998 C1010 0.959 . S
H999 C1013 0.929 . S
H1000 C1014 0.931 . S
H1001 C1016 0.930 . S
C1002 H990 0.930 . S
C1002 C1003 1.399 . S
C1002 C1007 1.399 . S
C1003 C1002 1.399 . S
C1003 C1004 1.376 . S
C1004 H991 0.930 . S
C1004 C1003 1.376 . S
C1004 C1005 1.388 . S
C1005 H992 0.930 . S
C1005 C1004 1.388 . S
C1005 C1006 1.390 . S
C1006 C1005 1.390 . S
C1006 C1007 1.394 . S
C1006 C1012 1.465 . S
C1007 C1002 1.399 . S
C1007 C1006 1.394 . S
C1007 C1008 1.516 . S
C1008 C1007 1.516 . S
C1008 C1009 1.502 . S
C1008 C1010 1.561 . S
C1008 C1011 1.526 . S
C1009 H993 0.959 . S
C1009 H994 0.959 . S
C1009 H995 0.961 . S
C1009 C1008 1.502 . S
C1010 H996 0.960 . S
C1010 H997 0.961 . S
C1010 H998 0.959 . S
C1010 C1008 1.561 . S
C1011 C1008 1.526 . S
C1011 C1012 1.396 . S
C1011 C1016 1.390 . S
C1012 C1006 1.465 . S
C1012 C1011 1.396 . S
C1012 C1013 1.399 1_655 S
C1013 H999 0.929 . S
C1013 C1012 1.399 1_455 S
C1013 C1014 1.385 . S
C1014 H1000 0.931 . S
C1014 C1013 1.385 . S
C1014 C1015 1.389 . S
C1015 C1014 1.389 . S
C1015 C1016 1.387 1_455 S
C1016 H1001 0.930 . S
C1016 C1011 1.390 . S
C1016 C1015 1.387 1_655 S
H1017 C1029 0.930 . S
H1018 C1031 0.930 . S
H1019 C1032 0.930 . S
H1020 C1036 0.959 . S
H1021 C1036 0.959 . S
H1022 C1036 0.961 . S
H1023 C1037 0.960 . S
H1024 C1037 0.961 1_545 S
H1025 C1037 0.959 1_545 S
H1026 C1040 0.929 . S
H1027 C1041 0.931 . S
H1028 C1043 0.930 . S
C1029 H1017 0.930 . S
C1029 C1030 1.399 . S
C1029 C1034 1.399 . S
C1030 C1029 1.399 . S
C1030 C1031 1.376 . S
C1031 H1018 0.930 . S
C1031 C1030 1.376 . S
C1031 C1032 1.388 . S
C1032 H1019 0.930 . S
C1032 C1031 1.388 . S
C1032 C1033 1.390 . S
C1033 C1032 1.390 . S
C1033 C1034 1.394 . S
C1033 C1039 1.465 . S
C1034 C1029 1.399 . S
C1034 C1033 1.394 . S
C1034 C1035 1.516 . S
C1035 C1034 1.516 . S
C1035 C1036 1.502 . S
C1035 C1037 1.561 . S
C1035 C1038 1.526 . S
C1036 H1020 0.959 . S
C1036 H1021 0.959 . S
C1036 H1022 0.961 . S
C1036 C1035 1.502 . S
C1037 H1023 0.960 . S
C1037 H1024 0.961 1_565 S
C1037 H1025 0.959 1_565 S
C1037 C1035 1.561 . S
C1038 C1035 1.526 . S
C1038 C1039 1.396 . S
C1038 C1043 1.390 1_565 S
C1039 C1033 1.465 . S
C1039 C1038 1.396 . S
C1039 C1040 1.399 . S
C1040 H1026 0.929 . S
C1040 C1039 1.399 . S
C1040 C1041 1.385 1_565 S
C1041 H1027 0.931 . S
C1041 C1040 1.385 1_545 S
C1041 C1042 1.389 . S
C1042 C1041 1.389 . S
C1042 C1043 1.387 . S
C1043 H1028 0.930 . S
C1043 C1038 1.390 1_545 S
C1043 C1042 1.387 . S
H1044 C1056 0.930 . S
H1045 C1058 0.930 . S
H1046 C1059 0.930 . S
H1047 C1063 0.959 . S
H1048 C1063 0.959 . S
H1049 C1063 0.961 . S
H1050 C1064 0.960 . S
H1051 C1064 0.961 . S
H1052 C1064 0.959 . S
H1053 C1067 0.929 . S
H1054 C1068 0.931 . S
H1055 C1070 0.930 . S
C1056 H1044 0.930 . S
C1056 C1057 1.399 . S
C1056 C1061 1.399 . S
C1057 C1056 1.399 . S
C1057 C1058 1.376 . S
C1058 H1045 0.930 . S
C1058 C1057 1.376 . S
C1058 C1059 1.388 . S
C1059 H1046 0.930 . S
C1059 C1058 1.388 . S
C1059 C1060 1.390 . S
C1060 C1059 1.390 . S
C1060 C1061 1.394 . S
C1060 C1066 1.465 . S
C1061 C1056 1.399 . S
C1061 C1060 1.394 . S
C1061 C1062 1.516 . S
C1062 C1061 1.516 . S
C1062 C1063 1.502 . S
C1062 C1064 1.561 . S
C1062 C1065 1.526 . S
C1063 H1047 0.959 . S
C1063 H1048 0.959 . S
C1063 H1049 0.961 . S
C1063 C1062 1.502 . S
C1064 H1050 0.960 . S
C1064 H1051 0.961 . S
C1064 H1052 0.959 . S
C1064 C1062 1.561 . S
C1065 C1062 1.526 . S
C1065 C1066 1.396 . S
C1065 C1070 1.390 . S
C1066 C1060 1.465 . S
C1066 C1065 1.396 . S
C1066 C1067 1.399 . S
C1067 H1053 0.929 . S
C1067 C1066 1.399 . S
C1067 C1068 1.385 . S
C1068 H1054 0.931 . S
C1068 C1067 1.385 . S
C1068 C1069 1.389 . S
C1069 C1068 1.389 . S
C1069 C1070 1.387 . S
C1070 H1055 0.930 . S
C1070 C1065 1.390 . S
C1070 C1069 1.387 . S
H1071 C1083 0.930 . S
H1072 C1085 0.930 . S
H1073 C1086 0.930 . S
H1074 C1090 0.959 . S
H1075 C1090 0.959 . S
H1076 C1090 0.961 . S
H1077 C1091 0.960 . S
H1078 C1091 0.961 . S
H1079 C1091 0.959 . S
H1080 C1094 0.929 . S
H1081 C1095 0.931 . S
H1082 C1097 0.930 . S
C1083 H1071 0.930 . S
C1083 C1084 1.399 1_455 S
C1083 C1088 1.399 . S
C1084 C1083 1.399 1_655 S
C1084 C1085 1.376 . S
C1085 H1072 0.930 . S
C1085 C1084 1.376 . S
C1085 C1086 1.388 . S
C1086 H1073 0.930 . S
C1086 C1085 1.388 . S
C1086 C1087 1.390 1_655 S
C1087 C1086 1.390 1_455 S
C1087 C1088 1.394 . S
C1087 C1093 1.465 . S
C1088 C1083 1.399 . S
C1088 C1087 1.394 . S
C1088 C1089 1.516 . S
C1089 C1088 1.516 . S
C1089 C1090 1.502 . S
C1089 C1091 1.561 . S
C1089 C1092 1.526 . S
C1090 H1074 0.959 . S
C1090 H1075 0.959 . S
C1090 H1076 0.961 . S
C1090 C1089 1.502 . S
C1091 H1077 0.960 . S
C1091 H1078 0.961 . S
C1091 H1079 0.959 . S
C1091 C1089 1.561 . S
C1092 C1089 1.526 . S
C1092 C1093 1.396 . S
C1092 C1097 1.390 . S
C1093 C1087 1.465 . S
C1093 C1092 1.396 . S
C1093 C1094 1.399 . S
C1094 H1080 0.929 . S
C1094 C1093 1.399 . S
C1094 C1095 1.385 . S
C1095 H1081 0.931 . S
C1095 C1094 1.385 . S
C1095 C1096 1.389 . S
C1096 C1095 1.389 . S
C1096 C1097 1.387 . S
C1097 H1082 0.930 . S
C1097 C1092 1.390 . S
C1097 C1096 1.387 . S
H1098 C1110 0.930 . S
H1099 C1112 0.930 . S
H1100 C1113 0.930 . S
H1101 C1117 0.959 . S
H1102 C1117 0.959 . S
H1103 C1117 0.961 . S
H1104 C1118 0.960 . S
H1105 C1118 0.961 . S
H1106 C1118 0.959 . S
H1107 C1121 0.929 . S
H1108 C1122 0.931 . S
H1109 C1124 0.930 . S
C1110 H1098 0.930 . S
C1110 C1111 1.399 1_545 S
C1110 C1115 1.399 . S
C1111 C1110 1.399 1_565 S
C1111 C1112 1.376 . S
C1112 H1099 0.930 . S
C1112 C1111 1.376 . S
C1112 C1113 1.388 . S
C1113 H1100 0.930 . S
C1113 C1112 1.388 . S
C1113 C1114 1.390 1_565 S
C1114 C1113 1.390 1_545 S
C1114 C1115 1.394 . S
C1114 C1120 1.465 . S
C1115 C1110 1.399 . S
C1115 C1114 1.394 . S
C1115 C1116 1.516 . S
C1116 C1115 1.516 . S
C1116 C1117 1.502 . S
C1116 C1118 1.561 . S
C1116 C1119 1.526 . S
C1117 H1101 0.959 . S
C1117 H1102 0.959 . S
C1117 H1103 0.961 . S
C1117 C1116 1.502 . S
C1118 H1104 0.960 . S
C1118 H1105 0.961 . S
C1118 H1106 0.959 . S
C1118 C1116 1.561 . S
C1119 C1116 1.526 . S
C1119 C1120 1.396 . S
C1119 C1124 1.390 . S
C1120 C1114 1.465 . S
C1120 C1119 1.396 . S
C1120 C1121 1.399 . S
C1121 H1107 0.929 . S
C1121 C1120 1.399 . S
C1121 C1122 1.385 . S
C1122 H1108 0.931 . S
C1122 C1121 1.385 . S
C1122 C1123 1.389 . S
C1123 C1122 1.389 . S
C1123 C1124 1.387 . S
C1124 H1109 0.930 . S
C1124 C1119 1.390 . S
C1124 C1123 1.387 . S
H1125 C1137 0.930 . S
H1126 C1139 0.930 . S
H1127 C1140 0.930 . S
H1128 C1144 0.959 . S
H1129 C1144 0.959 . S
H1130 C1144 0.961 . S
H1131 C1145 0.960 . S
H1132 C1145 0.961 . S
H1133 C1145 0.959 . S
H1134 C1148 0.929 . S
H1135 C1149 0.931 . S
H1136 C1151 0.930 . S
C1137 H1125 0.930 . S
C1137 C1138 1.399 . S
C1137 C1142 1.399 . S
C1138 C1137 1.399 . S
C1138 C1139 1.376 . S
C1139 H1126 0.930 . S
C1139 C1138 1.376 . S
C1139 C1140 1.388 . S
C1140 H1127 0.930 . S
C1140 C1139 1.388 . S
C1140 C1141 1.390 . S
C1141 C1140 1.390 . S
C1141 C1142 1.394 . S
C1141 C1147 1.465 . S
C1142 C1137 1.399 . S
C1142 C1141 1.394 . S
C1142 C1143 1.516 . S
C1143 C1142 1.516 . S
C1143 C1144 1.502 . S
C1143 C1145 1.561 . S
C1143 C1146 1.526 . S
C1144 H1128 0.959 . S
C1144 H1129 0.959 . S
C1144 H1130 0.961 . S
C1144 C1143 1.502 . S
C1145 H1131 0.960 . S
C1145 H1132 0.961 . S
C1145 H1133 0.959 . S
C1145 C1143 1.561 . S
C1146 C1143 1.526 . S
C1146 C1147 1.396 . S
C1146 C1151 1.390 . S
C1147 C1141 1.465 . S
C1147 C1146 1.396 . S
C1147 C1148 1.399 . S
C1148 H1134 0.929 . S
C1148 C1147 1.399 . S
C1148 C1149 1.385 . S
C1149 H1135 0.931 . S
C1149 C1148 1.385 . S
C1149 C1150 1.389 . S
C1150 C1149 1.389 . S
C1150 C1151 1.387 . S
C1151 H1136 0.930 . S
C1151 C1146 1.390 . S
C1151 C1150 1.387 . S
H1152 C1164 0.930 . S
H1153 C1166 0.930 . S
H1154 C1167 0.930 . S
H1155 C1171 0.959 . S
H1156 C1171 0.959 . S
H1157 C1171 0.961 . S
H1158 C1172 0.960 . S
H1159 C1172 0.961 . S
H1160 C1172 0.959 . S
H1161 C1175 0.929 . S
H1162 C1176 0.931 . S
H1163 C1178 0.930 . S
C1164 H1152 0.930 . S
C1164 C1165 1.399 . S
C1164 C1169 1.399 . S
C1165 C1164 1.399 . S
C1165 C1166 1.376 . S
C1166 H1153 0.930 . S
C1166 C1165 1.376 . S
C1166 C1167 1.388 . S
C1167 H1154 0.930 . S
C1167 C1166 1.388 . S
C1167 C1168 1.390 . S
C1168 C1167 1.390 . S
C1168 C1169 1.394 . S
C1168 C1174 1.465 . S
C1169 C1164 1.399 . S
C1169 C1168 1.394 . S
C1169 C1170 1.516 . S
C1170 C1169 1.516 . S
C1170 C1171 1.502 . S
C1170 C1172 1.561 . S
C1170 C1173 1.526 . S
C1171 H1155 0.959 . S
C1171 H1156 0.959 . S
C1171 H1157 0.961 . S
C1171 C1170 1.502 . S
C1172 H1158 0.960 . S
C1172 H1159 0.961 . S
C1172 H1160 0.959 . S
C1172 C1170 1.561 . S
C1173 C1170 1.526 . S
C1173 C1174 1.396 . S
C1173 C1178 1.390 1_655 S
C1174 C1168 1.465 . S
C1174 C1173 1.396 . S
C1174 C1175 1.399 . S
C1175 H1161 0.929 . S
C1175 C1174 1.399 . S
C1175 C1176 1.385 1_655 S
C1176 H1162 0.931 . S
C1176 C1175 1.385 1_455 S
C1176 C1177 1.389 . S
C1177 C1176 1.389 . S
C1177 C1178 1.387 . S
C1178 H1163 0.930 . S
C1178 C1173 1.390 1_455 S
C1178 C1177 1.387 . S
H1179 C1191 0.930 . S
H1180 C1193 0.930 . S
H1181 C1194 0.930 . S
H1182 C1198 0.959 . S
H1183 C1198 0.959 . S
H1184 C1198 0.961 . S
H1185 C1199 0.960 . S
H1186 C1199 0.961 . S
H1187 C1199 0.959 . S
H1188 C1202 0.929 . S
H1189 C1203 0.931 . S
H1190 C1205 0.930 . S
C1191 H1179 0.930 . S
C1191 C1192 1.399 . S
C1191 C1196 1.399 1_545 S
C1192 C1191 1.399 . S
C1192 C1193 1.376 . S
C1193 H1180 0.930 . S
C1193 C1192 1.376 . S
C1193 C1194 1.388 1_545 S
C1194 H1181 0.930 . S
C1194 C1193 1.388 1_565 S
C1194 C1195 1.390 . S
C1195 C1194 1.390 . S
C1195 C1196 1.394 . S
C1195 C1201 1.465 . S
C1196 C1191 1.399 1_565 S
C1196 C1195 1.394 . S
C1196 C1197 1.516 . S
C1197 C1196 1.516 . S
C1197 C1198 1.502 . S
C1197 C1199 1.561 . S
C1197 C1200 1.526 . S
C1198 H1182 0.959 . S
C1198 H1183 0.959 . S
C1198 H1184 0.961 . S
C1198 C1197 1.502 . S
C1199 H1185 0.960 . S
C1199 H1186 0.961 . S
C1199 H1187 0.959 . S
C1199 C1197 1.561 . S
C1200 C1197 1.526 . S
C1200 C1201 1.396 . S
C1200 C1205 1.390 . S
C1201 C1195 1.465 . S
C1201 C1200 1.396 . S
C1201 C1202 1.399 . S
C1202 H1188 0.929 . S
C1202 C1201 1.399 . S
C1202 C1203 1.385 . S
C1203 H1189 0.931 . S
C1203 C1202 1.385 . S
C1203 C1204 1.389 . S
C1204 C1203 1.389 . S
C1204 C1205 1.387 . S
C1205 H1190 0.930 . S
C1205 C1200 1.390 . S
C1205 C1204 1.387 . S
C409 N2 0.612 . S
C421 N266 0.825 . S
C436 N299 0.823 . S
C448 N35 0.692 . S
C463 N332 0.804 . S
C475 N68 0.735 . S
C490 N101 0.700 . S
C502 N365 0.818 . S
C517 N134 0.555 . S
C529 N200 0.708 . S
C544 N167 0.572 . S
C556 N233 0.810 . S
C571 N244 1.858 . S
C583 C21 1.834 . S
C598 C54 1.813 . S
C610 N277 1.865 . S
C625 N310 1.858 . S
C637 C87 1.833 . S
C652 N343 1.851 . S
C664 C120 1.830 . S
C679 N376 1.840 . S
C691 C153 1.848 . S
C706 N211 1.855 . S
C718 C186 1.825 . S
C733 N178 1.846 . S
C745 C219 1.838 . S
C760 C252 1.856 . S
C772 N13 1.841 . S
C787 C285 1.841 . S
C799 N46 1.853 . S
C814 N79 1.843 . S
C826 C318 1.843 . S
C841 N112 1.858 . S
C853 C351 1.834 . S
C868 N145 1.858 . S
C880 C384 1.833 . S
C895 C183 1.001 . S
C907 C7 1.047 . S
C922 C18 1.015 . S
C934 C40 0.935 . S
C949 C73 0.948 . S
C961 C51 1.063 . S
C976 C84 1.059 . S
C988 C106 0.914 . S
C1003 C117 1.063 . S
C1015 C139 0.935 . S
C1030 C150 1.005 . S
C1042 C172 1.052 . S
C1057 C205 1.056 . S
C1069 C249 1.009 . S
C1084 C238 0.986 . S
C1096 C282 1.059 . S
C1111 C271 1.057 . S
C1123 C315 1.011 . S
C1138 C348 1.036 . S
C1150 C304 0.906 . S
C1165 C381 1.059 . S
C1177 C337 0.916 . S
C1192 C370 1.031 . S
C1204 C216 0.997 . S
