# Generated by pormake.
# Topology qtz-x, (6)-cn, num edge types: 1
# Building blocks:
#     Node 0, Type 0, BuildingBlock: CUWYAW_clean_sbu_0, # of connection points: 6
#     Node 1, Type 0, BuildingBlock: CUWYAW_clean_sbu_0, # of connection points: 6
#     Node 2, Type 0, BuildingBlock: CUWYAW_clean_sbu_0, # of connection points: 6
#     Edge 3, Type (0, 0), BuildingBlock: TEMPAE_clean_linker_10, # of connection points: 2
#     Edge 4, Type (0, 0), BuildingBlock: TEMPAE_clean_linker_10, # of connection points: 2
#     Edge 5, Type (0, 0), BuildingBlock: TEMPAE_clean_linker_10, # of connection points: 2
#     Edge 6, Type (0, 0), BuildingBlock: TEMPAE_clean_linker_10, # of connection points: 2
#     Edge 7, Type (0, 0), BuildingBlock: TEMPAE_clean_linker_10, # of connection points: 2
#     Edge 8, Type (0, 0), BuildingBlock: TEMPAE_clean_linker_10, # of connection points: 2
#     Edge 9, Type (0, 0), BuildingBlock: TEMPAE_clean_linker_10, # of connection points: 2
#     Edge 10, Type (0, 0), BuildingBlock: TEMPAE_clean_linker_10, # of connection points: 2
#     Edge 11, Type (0, 0), BuildingBlock: TEMPAE_clean_linker_10, # of connection points: 2
# Relax obj value: 0.256
# Max RMSD: 0.269
# Mean RMSD: 0.252
data_MOF--net-qtz-x--node1-CUWYAW_clean_sbu_0--edge1-TEMPAE_clean_linker_10
_symmetry_space_group_name_H-M    P1
_symmetry_Int_Tables_number       1
_symmetry_cell_setting            triclinic
loop_
_symmetry_equiv_pos_as_xyz
'x, y, z'
_cell_length_a     14.844893
_cell_length_b     14.859079
_cell_length_c     53.579586
_cell_angle_alpha  68.51998
_cell_angle_beta   113.9505
_cell_angle_gamma 121.60517
loop_
_atom_site_label
_atom_site_type_symbol
_atom_site_fract_x
_atom_site_fract_y
_atom_site_fract_z
_atom_type_partial_charge
C0 C 0.4277 0.94578 0.16153 0.0
Eu1 Eu 0.26327 0.7993 0.18183 0.0
C2 C 0.45649 0.94319 0.13872 0.0
C3 C 0.40687 0.84536 0.13002 0.0
C4 C 0.42567 0.84153 0.10708 0.0
C5 C 0.49363 0.93573 0.09212 0.0
C6 C 0.5455 0.03347 0.10128 0.0
C7 C 0.52676 0.03716 0.12443 0.0
C8 C 0.21161 0.58579 0.19284 0.0
C9 C 1.0447 0.72467 0.12866 0.0
C10 C 0.88531 0.46051 0.21268 0.0
Eu11 Eu 1.03289 0.6384 0.19231 0.0
C12 C 0.85378 0.42245 0.23905 0.0
C13 C 0.80019 0.46631 0.24416 0.0
C14 C 0.78133 0.43668 0.27027 0.0
C15 C 0.81659 0.36352 0.29187 0.0
C16 C 0.86697 0.31733 0.28644 0.0
C17 C 0.88468 0.34591 0.26033 0.0
C18 C 0.0762 0.8427 0.19168 0.0
C19 C 0.24732 0.73769 0.24314 0.0
O20 O 0.33526 0.95189 0.1542 0.0
O21 O 0.43692 0.87311 0.18411 0.0
O22 O 0.30845 0.65942 0.202 0.0
O23 O 0.14771 0.62858 0.17783 0.0
O24 O 0.1502 0.78823 0.13792 0.0
O25 O 0.98131 0.65365 0.14544 0.0
O26 O 0.98329 0.47351 0.21558 0.0
O27 O 0.86224 0.53775 0.19399 0.0
O28 O 0.9856 0.75781 0.19498 0.0
O29 O 0.13638 0.8142 0.18843 0.0
O30 O 0.15488 0.65307 0.2352 0.0
O31 O 0.29814 0.81797 0.22496 0.0
H32 H 0.35179 0.77194 0.14073 0.0
H33 H 0.38585 0.76474 0.10087 0.0
H34 H 0.59753 0.10754 0.09002 0.0
H35 H 0.56499 0.11344 0.13077 0.0
H36 H 0.77522 0.52548 0.22826 0.0
H37 H 0.74252 0.47376 0.27386 0.0
H38 H 0.89351 0.25947 0.30252 0.0
H39 H 0.92533 0.31004 0.257 0.0
C40 C 0.7482 0.79504 0.5329 0.0
Eu41 Eu 0.77753 0.95866 0.5473 0.0
C42 C 0.68192 0.75892 0.50608 0.0
C43 C 0.57811 0.75817 0.49306 0.0
C44 C 0.52521 0.74612 0.46536 0.0
C45 C 0.57536 0.73586 0.44988 0.0
C46 C 0.67723 0.7321 0.46332 0.0
C47 C 0.72988 0.74349 0.49114 0.0
C48 C 0.61485 0.00773 0.54176 0.0
C49 C 0.78149 0.15033 0.49074 0.0
C50 C 0.94486 0.37745 0.56616 0.0
Eu51 Eu 0.88083 0.20013 0.55152 0.0
C52 C 0.95974 0.40219 0.59215 0.0
C53 C 1.05272 0.49334 0.60143 0.0
C54 C 0.07577 0.51156 0.62762 0.0
C55 C 1.00581 0.43906 0.64491 0.0
C56 C 0.91114 0.34906 0.6353 0.0
C57 C 0.88859 0.33037 0.60919 0.0
C58 C 1.01392 0.1396 0.54565 0.0
C59 C 0.85412 0.00596 0.60794 0.0
O60 O 0.83426 0.88862 0.53101 0.0
O61 O 0.69479 0.7851 0.54894 0.0
O62 O 0.59724 0.91382 0.5407 0.0
O63 O 0.7161 0.06842 0.54509 0.0
O64 O 0.77542 0.05285 0.50298 0.0
O65 O 0.80768 0.2206 0.50507 0.0
O66 O 0.8438 0.3229 0.55229 0.0
O67 O 1.0127 0.34335 0.56778 0.0
O68 O 1.01108 0.23179 0.53362 0.0
O69 O 0.94817 0.08414 0.5609 0.0
O70 O 0.87027 0.10645 0.59541 0.0
O71 O 0.82701 0.93318 0.59421 0.0
H72 H 0.53962 0.77159 0.50386 0.0
H73 H 0.44607 0.74756 0.45586 0.0
H74 H 0.71893 0.72559 0.45198 0.0
H75 H 0.81076 0.74585 0.50054 0.0
H76 H 0.10901 0.54909 0.58868 0.0
H77 H 0.14858 0.58221 0.63441 0.0
H78 H 0.85642 0.29151 0.64834 0.0
H79 H 0.81724 0.25842 0.60266 0.0
C80 C 0.14611 0.74668 0.88372 0.0
Eu81 Eu 0.98481 0.78225 0.8783 0.0
C82 C 0.15859 0.6989 0.86626 0.0
C83 C 0.07657 0.59914 0.859 0.0
C84 C 0.07895 0.56301 0.83873 0.0
C85 C 0.16323 0.62577 0.82526 0.0
C86 C 0.24831 0.7229 0.83357 0.0
C87 C 0.24572 0.75926 0.85382 0.0
C88 C 0.77551 0.62851 0.87605 0.0
C89 C 0.87341 0.84641 0.81048 0.0
C90 C 0.61168 0.8489 0.85109 0.0
Eu91 Eu 0.79989 0.86169 0.85718 0.0
C92 C 0.57484 0.86627 0.87 0.0
C93 C 0.62276 0.9683 0.87643 0.0
C94 C 0.60585 0.97906 0.89879 0.0
C95 C 0.54134 0.88803 0.9152 0.0
C96 C 0.48778 0.78728 0.90764 0.0
C97 C 0.50401 0.77661 0.88518 0.0
C98 C 1.00524 0.0312 0.86725 0.0
C99 C 0.9272 0.81822 0.92359 0.0
O100 O 0.14411 0.84006 0.87192 0.0
O101 O 0.07164 0.6821 0.89745 0.0
O102 O 0.86009 0.62019 0.89545 0.0
O103 O 0.80566 0.71443 0.85837 0.0
O104 O 0.94723 0.81684 0.83089 0.0
O105 O 0.80318 0.86363 0.81524 0.0
O106 O 0.63287 0.76532 0.86078 0.0
O107 O 0.6855 0.93355 0.83915 0.0
O108 O 0.91499 0.04173 0.85813 0.0
O109 O 0.97902 0.93324 0.87048 0.0
O110 O 0.83416 0.81342 0.90451 0.0
O111 O 1.00972 0.82771 0.91725 0.0
H112 H 1.00746 0.55113 0.86794 0.0
H113 H 1.01151 0.48852 0.8326 0.0
H114 H 0.3151 0.77242 0.8238 0.0
H115 H 0.30938 0.83677 0.85893 0.0
H116 H 0.67807 0.03902 0.86523 0.0
H117 H 0.64831 0.05771 0.90418 0.0
H118 H 0.43565 0.71617 0.91957 0.0
H119 H 0.46546 0.69711 0.88055 0.0
C120 C 1.04186 0.96577 0.20424 0.0
C121 C 0.10152 0.9531 0.19216 0.0
C122 C 0.06129 0.06848 0.20478 0.0
C123 C 0.14047 0.16173 0.19222 0.0
C124 C 0.20081 0.14945 0.17983 0.0
C125 C 0.18171 0.04523 0.18029 0.0
C126 C 0.9971 0.07707 0.21891 0.0
C127 C 0.28416 0.24639 0.16566 0.0
C128 C 0.10799 0.42044 0.17192 0.0
C129 C 0.19049 0.47603 0.19309 0.0
C130 C 0.09276 0.31966 0.17096 0.0
C131 C 0.15947 0.27155 0.19214 0.0
C132 C 0.2416 0.3268 0.21385 0.0
C133 C 0.25707 0.42883 0.21382 0.0
C134 C 1.00585 0.26511 0.1471 0.0
C135 C 0.31247 0.27761 0.2373 0.0
H136 H 0.98021 0.89479 0.21361 0.0
H137 H 0.22758 0.03583 0.1708 0.0
H138 H 1.05433 0.12639 0.23517 0.0
H139 H 0.94651 0.11839 0.20355 0.0
H140 H 0.942 -0.00302 0.22876 0.0
H141 H 0.3226 0.22346 0.15652 0.0
H142 H 0.2442 0.29538 0.14884 0.0
H143 H 0.34979 0.29837 0.18076 0.0
H144 H 0.05705 0.45704 0.15566 0.0
H145 H 0.3209 0.4715 0.23024 0.0
H146 H 0.94184 0.18794 0.1551 0.0
H147 H 1.0428 0.24565 0.13665 0.0
H148 H 0.96569 0.31599 0.13139 0.0
H149 H 0.25987 0.1986 0.24811 0.0
H150 H 0.37153 0.33005 0.25282 0.0
H151 H 0.3593 0.26249 0.22888 0.0
C152 C 0.55557 0.11493 0.55367 0.0
C153 C 0.52903 0.03207 0.54152 0.0
C154 C 0.47245 0.13122 0.55524 0.0
C155 C 0.36004 0.06466 0.54381 0.0
C156 C 0.33348 0.98229 0.53105 0.0
C157 C 0.41791 0.96627 0.5304 0.0
C158 C 0.50491 0.21865 0.5695 0.0
C159 C 0.21559 0.91107 0.51794 0.0
C160 C 0.131 0.0396 0.56607 0.0
C161 C 0.09786 0.1147 0.54493 0.0
C162 C 0.21725 0.02368 0.56627 0.0
C163 C 0.27008 0.0824 0.54447 0.0
C164 C 0.2346 0.15626 0.52275 0.0
C165 C 0.15017 0.17223 0.52342 0.0
C166 C 0.25298 0.94515 0.59003 0.0
C167 C 0.28563 0.21844 0.49866 0.0
H168 H 0.64111 0.16497 0.56267 0.0
H169 H 0.39676 0.90197 0.52098 0.0
H170 H 0.47545 0.27871 0.55456 0.0
H171 H 0.46532 0.18348 0.58669 0.0
H172 H 0.59529 0.26101 0.57815 0.0
H173 H 0.20866 0.85251 0.50821 0.0
H174 H 0.16908 0.86566 0.53388 0.0
H175 H 0.17569 0.96127 0.50175 0.0
H176 H 0.09154 -0.0046 0.58286 0.0
H177 H 0.12472 0.2301 0.50693 0.0
H178 H 0.34187 -0.01323 0.60035 0.0
H179 H 0.24124 0.87967 0.58201 0.0
H180 H 0.20647 0.9085 0.60585 0.0
H181 H 0.37462 0.26978 0.50641 0.0
H182 H 0.24691 0.27067 0.48304 0.0
H183 H 0.27769 0.16176 0.48813 0.0
C184 C 0.13705 0.22399 0.87072 0.0
C185 C 0.1177 0.12139 0.87022 0.0
C186 C 0.24268 0.31125 0.87262 0.0
C187 C 0.33019 0.29633 0.87314 0.0
C188 C 0.31101 0.19258 0.87289 0.0
C189 C 0.20537 0.10643 0.87167 0.0
C190 C 0.26119 0.4189 0.87449 0.0
C191 C 0.40218 0.17272 0.87375 0.0
C192 C 0.57931 0.53406 0.84981 0.0
C193 C 0.66008 0.54908 0.87527 0.0
C194 C 0.47093 0.45363 0.84885 0.0
C195 C 0.44217 0.38847 0.87399 0.0
C196 C 0.52255 0.40772 0.89981 0.0
C197 C 0.63083 0.4867 0.9001 0.0
C198 C 0.38781 0.43673 0.8209 0.0
C199 C 0.49461 0.34729 0.92726 0.0
H200 H 0.06965 0.2359 0.86983 0.0
H201 H 0.1909 0.02781 0.87124 0.0
H202 H 0.32255 0.44157 0.89436 0.0
H203 H 0.29527 0.48256 0.85738 0.0
H204 H 0.18448 0.41781 0.87351 0.0
H205 H 0.37502 0.08672 0.87443 0.0
H206 H 0.43301 0.22246 0.85509 0.0
H207 H 0.472 0.19768 0.89232 0.0
H208 H 0.60175 0.58299 0.8306 0.0
H209 H 0.69262 0.5004 0.91984 0.0
H210 H 0.31474 0.44188 0.82005 0.0
H211 H 0.35949 0.35485 0.81797 0.0
H212 H 0.42189 0.49696 0.80338 0.0
H213 H 0.46166 0.3883 0.9324 0.0
H214 H 0.56845 0.3467 0.94445 0.0
H215 H 0.43096 0.26305 0.92642 0.0
C216 C 0.54992 0.82238 0.96586 0.0
C217 C 0.53608 0.89704 0.94116 0.0
C218 C 0.54772 0.83096 0.99079 0.0
C219 C 0.53213 0.91677 0.99104 0.0
C220 C 0.5199 -0.00667 0.96626 0.0
C221 C 0.52147 0.98215 0.94159 0.0
C222 C 0.56293 0.74862 1.01686 0.0
C223 C 0.50226 0.08576 0.96534 0.0
C224 C 0.41245 0.87172 0.04733 0.0
C225 C 0.50515 0.93196 0.06629 0.0
C226 C 0.4199 0.86771 1.02258 0.0
C227 C 0.52335 0.92314 1.01692 0.0
C228 C 0.61781 0.98322 0.03607 0.0
C229 C 0.60743 -0.01214 0.06045 0.0
C230 C 0.31692 0.8044 1.00243 0.0
C231 C 0.72944 0.04303 1.03067 0.0
H232 H 0.56391 0.75787 0.96577 0.0
H233 H 0.51027 0.03962 0.92252 0.0
H234 H 0.6435 0.78757 1.03161 0.0
H235 H 0.49837 0.71664 1.02743 0.0
H236 H 0.56021 0.67976 1.01241 0.0
H237 H 0.52869 0.15315 0.94789 0.0
H238 H 0.41347 0.05776 0.96204 0.0
H239 H 0.54783 0.1168 0.985 0.0
H240 H 0.33338 0.82827 0.05173 0.0
H241 H 0.67958 0.03362 0.07517 0.0
H242 H 0.32725 0.74306 0.99821 0.0
H243 H 0.30192 0.85945 0.9823 0.0
H244 H 0.24331 0.76293 1.01037 0.0
H245 H 0.74859 -0.01281 1.02684 0.0
H246 H 0.79569 0.08107 0.04831 0.0
H247 H 0.72905 0.10678 1.01162 0.0
C248 C 0.79419 0.29078 0.44638 0.0
C249 C 0.7686 0.18322 0.46015 0.0
C250 C 0.79506 0.32406 0.41821 0.0
C251 C 0.77015 0.24816 0.40348 0.0
C252 C 0.74033 0.13884 0.41696 0.0
C253 C 0.73913 0.10766 0.44497 0.0
C254 C 0.82701 0.44132 0.40455 0.0
C255 C 0.71293 0.05509 0.40207 0.0
C256 C 0.70482 0.31086 0.32417 0.0
C257 C 0.80469 0.33781 0.32028 0.0
C258 C 0.69253 0.28303 0.35109 0.0
C259 C 0.78273 0.28373 0.37465 0.0
C260 C 0.88444 0.31345 0.37075 0.0
C261 C 0.89386 0.33927 0.34369 0.0
C262 C 0.58238 0.25043 0.35434 0.0
C263 C 0.98292 0.31574 0.39522 0.0
H264 H 0.81702 0.34985 0.45782 0.0
H265 H 0.71802 0.02401 0.4552 0.0
H266 H 0.90644 0.4772 0.39969 0.0
H267 H 0.76485 0.44915 0.38456 0.0
H268 H 0.83553 0.48851 0.41805 0.0
H269 H 0.69964 0.97534 0.41615 0.0
H270 H 0.63757 0.04587 0.38458 0.0
H271 H 0.78015 0.081 0.39305 0.0
H272 H 0.63545 0.30889 0.30615 0.0
H273 H 0.9715 0.36098 0.34081 0.0
H274 H 0.59199 0.29771 0.36794 0.0
H275 H 0.54719 0.16419 0.36454 0.0
H276 H 0.5231 0.26211 0.33401 0.0
H277 H 1.00068 0.36744 0.40881 0.0
H278 H 0.05764 0.34639 0.38861 0.0
H279 H 0.96499 0.23327 0.40797 0.0
C280 C 0.7832 0.87486 0.7589 0.0
C281 C 0.86959 0.86017 0.7811 0.0
C282 C 0.78061 0.89137 0.73106 0.0
C283 C 0.86726 0.89497 0.72508 0.0
C284 C 0.95404 0.87887 0.74738 0.0
C285 C 0.9536 0.86067 0.77505 0.0
C286 C 0.68573 0.90668 0.70798 0.0
C287 C 1.0484 0.8824 0.74209 0.0
C288 C 0.8203 0.86733 0.652 0.0
C289 C 0.86414 0.9756 0.63841 0.0
C290 C 0.82215 0.83956 0.68031 0.0
C291 C 0.86994 0.92192 0.69549 0.0
C292 C 0.91756 0.03119 0.68209 0.0
C293 C 0.91355 0.05652 0.65382 0.0
C294 C 0.77026 0.72215 0.69375 0.0
C295 C 0.97141 0.12184 0.6975 0.0
H296 H 0.71734 0.87376 0.76322 0.0
H297 H 1.02067 0.84903 0.79195 0.0
H298 H 0.7159 -0.01062 0.6953 0.0
H299 H 0.64814 0.84958 0.69389 0.0
H300 H 0.62116 0.8943 0.71606 0.0
H301 H 0.11567 0.88171 0.76142 0.0
H302 H 1.01869 0.81156 0.73333 0.0
H303 H 0.08247 0.95569 0.72661 0.0
H304 H 0.78175 0.8042 0.64033 0.0
H305 H 0.94885 0.14049 0.64372 0.0
H306 H 0.70198 0.70582 0.70103 0.0
H307 H 0.83129 0.70234 0.71231 0.0
H308 H 0.73764 0.66773 0.67927 0.0
H309 H 0.9087 0.12349 0.70333 0.0
H310 H 1.01286 0.20185 0.68482 0.0
H311 H 1.03298 0.10864 0.71706 0.0
C312 C 0.84127 0.74607 0.96278 0.0
C313 C 0.93581 0.80678 0.95311 0.0
C314 C 0.84785 0.7301 0.99092 0.0
C315 C 0.95118 0.77783 1.00983 0.0
C316 C 1.0463 0.84259 0.99989 0.0
C317 C 1.03778 0.85486 0.9718 0.0
C318 C 0.74457 0.65969 1.00054 0.0
C319 C 0.15698 0.90044 1.01886 0.0
C320 C 0.97693 0.81182 0.08011 0.0
C321 C 1.00195 0.72746 0.09838 0.0
C322 C 0.95526 0.82654 0.05109 0.0
C323 C 0.96117 0.75649 0.04021 0.0
C324 C 0.98377 0.66944 0.05871 0.0
C325 C 1.00362 0.6559 0.08756 0.0
C326 C 0.92941 0.91897 1.03217 0.0
C327 C 0.99288 0.59401 0.04817 0.0
H328 H 0.76211 0.70825 0.94848 0.0
H329 H 0.11086 0.90333 0.96437 0.0
H330 H 0.74768 0.58375 1.01413 0.0
H331 H 0.73848 0.70026 1.0131 0.0
H332 H 0.66936 0.63908 0.98284 0.0
H333 H 0.22483 0.93594 1.00912 0.0
H334 H 0.15741 0.96649 1.02402 0.0
H335 H 0.17287 0.8449 0.03875 0.0
H336 H 0.97742 0.86807 0.0886 0.0
H337 H 1.02555 0.5922 0.10181 0.0
H338 H 0.8479 0.88781 1.01695 0.0
H339 H 0.99094 0.97352 1.02009 0.0
H340 H 0.92873 0.96655 0.04391 0.0
H341 H 0.9188 0.56093 1.03114 0.0
H342 H 1.00291 0.52589 0.06488 0.0
H343 H 0.06479 0.63923 0.03945 0.0
C344 C 0.40367 0.81384 0.2835 0.0
C345 C 0.29471 0.74088 0.27328 0.0
C346 C 0.44998 0.81484 0.31214 0.0
C347 C 0.38536 0.74206 0.33098 0.0
C348 C 0.27459 0.66995 0.32071 0.0
C349 C 0.23098 0.66959 0.29205 0.0
C350 C 0.56857 0.89266 0.3223 0.0
C351 C 0.20214 0.59247 0.33998 0.0
C352 C 0.52807 0.66881 0.40722 0.0
C353 C 0.52457 0.73531 0.4195 0.0
C354 C 0.4835 0.67054 0.37845 0.0
C355 C 0.43389 0.74022 0.36149 0.0
C356 C 0.42989 0.80742 0.37373 0.0
C357 C 0.47512 0.80409 0.40252 0.0
C358 C 0.48977 0.59793 0.36617 0.0
C359 C 0.37831 0.88331 0.35639 0.0
H360 H 0.45357 0.86904 0.26917 0.0
H361 H 0.1464 0.6135 0.28436 0.0
H362 H 0.57476 0.9445 0.33403 0.0
H363 H 0.61628 0.84726 0.33683 0.0
H364 H 0.60716 0.94522 0.30495 0.0
H365 H 0.11538 0.54901 0.3284 0.0
H366 H 0.23294 0.53224 0.35395 0.0
H367 H 0.20455 0.63614 0.35335 0.0
H368 H 0.56498 0.61463 0.42016 0.0
H369 H 0.47405 0.85756 0.41164 0.0
H370 H 0.53314 0.64673 0.34961 0.0
H371 H 0.40576 0.54144 0.35634 0.0
H372 H 0.53319 0.55022 0.38206 0.0
H373 H 0.42247 0.94208 0.34045 0.0
H374 H 0.3799 0.9287 0.36919 0.0
H375 H 0.29178 0.83749 0.34517 0.0
C376 C 0.17472 0.67287 0.77652 0.0
C377 C 0.15568 0.59498 0.8008 0.0
C378 C 0.15496 0.64391 0.75202 0.0
C379 C 0.11666 0.53445 0.75189 0.0
C380 C 0.10196 0.45598 0.77666 0.0
C381 C 0.12039 0.48703 0.80074 0.0
C382 C 0.17083 0.72996 0.72597 0.0
C383 C 0.06329 0.33875 0.77754 0.0
C384 C 0.95242 0.45223 0.68165 0.0
C385 C 1.03244 0.45722 0.67298 0.0
C386 C 0.97826 0.475 0.70759 0.0
C387 C 0.08636 0.50206 0.72537 0.0
C388 C 0.16658 0.50399 0.71706 0.0
C389 C 0.13872 0.48192 0.69089 0.0
C390 C 0.89078 0.47329 0.7156 0.0
C391 C 0.28207 0.53065 0.73567 0.0
H392 H 0.20046 0.75613 0.77627 0.0
H393 H 0.10566 0.42639 0.81943 0.0
H394 H 0.22481 0.72784 0.71693 0.0
H395 H 0.09041 0.71441 0.71012 0.0
H396 H 0.20737 0.81211 0.73 0.0
H397 H 0.0676 0.29025 0.79909 0.0
H398 H 0.97701 0.30457 0.76468 0.0
H399 H 0.11353 0.33049 0.76859 0.0
H400 H 0.87039 0.43364 0.66775 0.0
H401 H 0.20016 0.48402 0.68437 0.0
H402 H 0.91551 0.55515 0.71784 0.0
H403 H 0.88164 0.41871 0.73604 0.0
H404 H 0.8097 0.44646 0.69993 0.0
H405 H 0.32008 0.61138 0.74064 0.0
H406 H 0.3351 0.52989 0.72599 0.0
H407 H 0.27996 0.47144 0.75565 0.0
loop_
_geom_bond_atom_site_label_1
_geom_bond_atom_site_label_2
_geom_bond_distance
_geom_bond_site_symmetry_2
_ccdc_geom_bond_type
C0 Eu1 2.835 . S
C0 C2 1.500 . S
C0 O20 1.257 . S
C0 O21 1.260 . S
Eu1 C0 2.835 . S
Eu1 O20 2.473 . S
Eu1 O21 2.480 . S
Eu1 O22 2.430 . S
Eu1 O23 2.670 1_455 S
Eu1 O24 2.394 1_455 S
Eu1 O29 2.355 . S
Eu1 O31 2.374 . S
C2 C0 1.500 . S
C2 C3 1.377 . S
C2 C7 1.377 . S
C3 C2 1.377 . S
C3 C4 1.395 . S
C3 H32 0.931 . S
C4 C3 1.395 . S
C4 C5 1.383 1_565 S
C4 H33 0.931 . S
C5 C4 1.383 1_545 S
C5 C6 1.394 . S
C6 C5 1.394 . S
C6 C7 1.378 1_545 S
C6 H34 0.931 . S
C7 C2 1.377 . S
C7 C6 1.378 1_565 S
C7 H35 0.931 1_565 S
C8 O22 1.259 . S
C8 O23 1.270 1_455 S
C9 O24 1.251 . S
C9 O25 1.251 . S
C10 Eu11 2.835 . S
C10 C12 1.500 . S
C10 O26 1.257 . S
C10 O27 1.260 . S
Eu11 C10 2.835 . S
Eu11 O23 2.355 . S
Eu11 O25 2.374 . S
Eu11 O26 2.473 . S
Eu11 O27 2.480 . S
Eu11 O28 2.430 . S
Eu11 O29 2.670 1_655 S
Eu11 O30 2.394 1_655 S
C12 C10 1.500 . S
C12 C13 1.377 . S
C12 C17 1.377 . S
C13 C12 1.377 . S
C13 C14 1.395 . S
C13 H36 0.931 . S
C14 C13 1.395 . S
C14 C15 1.383 . S
C14 H37 0.931 . S
C15 C14 1.383 . S
C15 C16 1.394 . S
C16 C15 1.394 . S
C16 C17 1.378 . S
C16 H38 0.931 . S
C17 C12 1.377 . S
C17 C16 1.378 . S
C17 H39 0.931 . S
C18 O28 1.259 . S
C18 O29 1.270 1_655 S
C19 O30 1.251 . S
C19 O31 1.251 . S
O20 C0 1.257 . S
O20 Eu1 2.473 . S
O21 C0 1.260 . S
O21 Eu1 2.480 . S
O22 Eu1 2.430 . S
O22 C8 1.259 . S
O23 Eu1 2.670 1_655 S
O23 C8 1.270 1_655 S
O23 Eu11 2.355 . S
O24 Eu1 2.394 1_655 S
O24 C9 1.251 . S
O25 C9 1.251 . S
O25 Eu11 2.374 . S
O26 C10 1.257 . S
O26 Eu11 2.473 . S
O27 C10 1.260 . S
O27 Eu11 2.480 . S
O28 Eu11 2.430 . S
O28 C18 1.259 . S
O29 Eu1 2.355 . S
O29 Eu11 2.670 1_455 S
O29 C18 1.270 1_455 S
O30 Eu11 2.394 1_455 S
O30 C19 1.251 . S
O31 Eu1 2.374 . S
O31 C19 1.251 . S
H32 C3 0.931 . S
H33 C4 0.931 . S
H34 C6 0.931 . S
H35 C7 0.931 1_545 S
H36 C13 0.931 . S
H37 C14 0.931 . S
H38 C16 0.931 . S
H39 C17 0.931 . S
C40 Eu41 2.835 . S
C40 C42 1.500 . S
C40 O60 1.257 . S
C40 O61 1.260 . S
Eu41 C40 2.835 . S
Eu41 O60 2.473 . S
Eu41 O61 2.480 . S
Eu41 O62 2.430 . S
Eu41 O63 2.670 1_565 S
Eu41 O64 2.394 1_565 S
Eu41 O69 2.355 . S
Eu41 O71 2.374 . S
C42 C40 1.500 . S
C42 C43 1.377 . S
C42 C47 1.377 . S
C43 C42 1.377 . S
C43 C44 1.395 . S
C43 H72 0.931 . S
C44 C43 1.395 . S
C44 C45 1.383 . S
C44 H73 0.931 . S
C45 C44 1.383 . S
C45 C46 1.394 . S
C46 C45 1.394 . S
C46 C47 1.378 . S
C46 H74 0.931 . S
C47 C42 1.377 . S
C47 C46 1.378 . S
C47 H75 0.931 . S
C48 O62 1.259 . S
C48 O63 1.270 1_565 S
C49 O64 1.251 . S
C49 O65 1.251 . S
C50 Eu51 2.835 . S
C50 C52 1.500 . S
C50 O66 1.257 . S
C50 O67 1.260 . S
Eu51 C50 2.835 . S
Eu51 O63 2.355 . S
Eu51 O65 2.374 . S
Eu51 O66 2.473 . S
Eu51 O67 2.480 . S
Eu51 O68 2.430 . S
Eu51 O69 2.670 1_545 S
Eu51 O70 2.394 . S
C52 C50 1.500 . S
C52 C53 1.377 1_655 S
C52 C57 1.377 . S
C53 C52 1.377 1_455 S
C53 C54 1.395 . S
C53 H76 0.931 . S
C54 C53 1.395 . S
C54 C55 1.383 1_455 S
C54 H77 0.931 . S
C55 C54 1.383 1_655 S
C55 C56 1.394 . S
C56 C55 1.394 . S
C56 C57 1.378 . S
C56 H78 0.931 . S
C57 C52 1.377 . S
C57 C56 1.378 . S
C57 H79 0.931 . S
C58 O68 1.259 . S
C58 O69 1.270 1_545 S
C59 O70 1.251 1_565 S
C59 O71 1.251 . S
O60 C40 1.257 . S
O60 Eu41 2.473 . S
O61 C40 1.260 . S
O61 Eu41 2.480 . S
O62 Eu41 2.430 . S
O62 C48 1.259 . S
O63 Eu41 2.670 1_545 S
O63 C48 1.270 1_545 S
O63 Eu51 2.355 . S
O64 Eu41 2.394 1_545 S
O64 C49 1.251 . S
O65 C49 1.251 . S
O65 Eu51 2.374 . S
O66 C50 1.257 . S
O66 Eu51 2.473 . S
O67 C50 1.260 . S
O67 Eu51 2.480 . S
O68 Eu51 2.430 . S
O68 C58 1.259 . S
O69 Eu41 2.355 . S
O69 Eu51 2.670 1_565 S
O69 C58 1.270 1_565 S
O70 Eu51 2.394 . S
O70 C59 1.251 1_545 S
O71 Eu41 2.374 . S
O71 C59 1.251 . S
H72 C43 0.931 . S
H73 C44 0.931 . S
H74 C46 0.931 . S
H75 C47 0.931 . S
H76 C53 0.931 . S
H77 C54 0.931 . S
H78 C56 0.931 . S
H79 C57 0.931 . S
C80 Eu81 2.835 1_455 S
C80 C82 1.500 . S
C80 O100 1.257 . S
C80 O101 1.260 1_455 S
Eu81 C80 2.835 1_655 S
Eu81 O100 2.473 1_655 S
Eu81 O101 2.480 . S
Eu81 O102 2.430 . S
Eu81 O103 2.670 . S
Eu81 O104 2.394 . S
Eu81 O109 2.355 1_665 S
Eu81 O111 2.374 . S
C82 C80 1.500 . S
C82 C83 1.377 . S
C82 C87 1.377 . S
C83 C82 1.377 . S
C83 C84 1.395 . S
C83 H112 0.931 1_455 S
C84 C83 1.395 . S
C84 C85 1.383 . S
C84 H113 0.931 . S
C85 C84 1.383 . S
C85 C86 1.394 . S
C86 C85 1.394 . S
C86 C87 1.378 . S
C86 H114 0.931 . S
C87 C82 1.377 . S
C87 C86 1.378 . S
C87 H115 0.931 . S
C88 O102 1.259 . S
C88 O103 1.270 . S
C89 O104 1.251 . S
C89 O105 1.251 . S
C90 Eu91 2.835 . S
C90 C92 1.500 . S
C90 O106 1.257 1_545 S
C90 O107 1.260 . S
Eu91 C90 2.835 . S
Eu91 O103 2.355 1_545 S
Eu91 O105 2.374 1_545 S
Eu91 O106 2.473 1_545 S
Eu91 O107 2.480 . S
Eu91 O108 2.430 1_655 S
Eu91 O109 2.670 1_655 S
Eu91 O110 2.394 1_545 S
C92 C90 1.500 . S
C92 C93 1.377 . S
C92 C97 1.377 1_545 S
C93 C92 1.377 . S
C93 C94 1.395 . S
C93 H116 0.931 . S
C94 C93 1.395 . S
C94 C95 1.383 . S
C94 H117 0.931 . S
C95 C94 1.383 . S
C95 C96 1.394 1_545 S
C96 C95 1.394 1_565 S
C96 C97 1.378 . S
C96 H118 0.931 . S
C97 C92 1.377 1_565 S
C97 C96 1.378 . S
C97 H119 0.931 . S
C98 O108 1.259 . S
C98 O109 1.270 . S
C99 O110 1.251 . S
C99 O111 1.251 . S
O100 C80 1.257 . S
O100 Eu81 2.473 1_455 S
O101 C80 1.260 1_655 S
O101 Eu81 2.480 . S
O102 Eu81 2.430 . S
O102 C88 1.259 . S
O103 Eu81 2.670 . S
O103 C88 1.270 . S
O103 Eu91 2.355 1_565 S
O104 Eu81 2.394 . S
O104 C89 1.251 . S
O105 C89 1.251 . S
O105 Eu91 2.374 1_565 S
O106 C90 1.257 1_565 S
O106 Eu91 2.473 1_565 S
O107 C90 1.260 . S
O107 Eu91 2.480 . S
O108 Eu91 2.430 1_455 S
O108 C98 1.259 . S
O109 Eu81 2.355 1_445 S
O109 Eu91 2.670 1_455 S
O109 C98 1.270 . S
O110 Eu91 2.394 1_565 S
O110 C99 1.251 . S
O111 Eu81 2.374 . S
O111 C99 1.251 . S
H112 C83 0.931 1_655 S
H113 C84 0.931 . S
H114 C86 0.931 . S
H115 C87 0.931 . S
H116 C93 0.931 . S
H117 C94 0.931 . S
H118 C96 0.931 . S
H119 C97 0.931 . S
C120 C121 1.391 1_655 S
C120 C122 1.394 1_565 S
C120 H136 0.931 . S
C121 C120 1.391 1_455 S
C121 C125 1.376 1_565 S
C122 C120 1.394 1_545 S
C122 C123 1.369 1_655 S
C122 C126 1.531 . S
C123 C122 1.369 1_455 S
C123 C124 1.410 . S
C123 C131 1.503 . S
C124 C123 1.410 . S
C124 C125 1.392 . S
C124 C127 1.511 . S
C125 C121 1.376 1_545 S
C125 C124 1.392 . S
C125 H137 0.929 . S
C126 C122 1.531 . S
C126 H138 0.960 . S
C126 H139 0.962 . S
C126 H140 0.960 1_545 S
C127 C124 1.511 . S
C127 H141 0.961 . S
C127 H142 0.961 . S
C127 H143 0.961 . S
C128 C129 1.370 . S
C128 C130 1.363 . S
C128 H144 0.931 . S
C129 C128 1.370 . S
C129 C133 1.408 1_655 S
C130 C128 1.363 . S
C130 C131 1.370 1_655 S
C130 C134 1.524 . S
C131 C123 1.503 . S
C131 C130 1.370 1_455 S
C131 C132 1.403 . S
C132 C131 1.403 . S
C132 C133 1.404 . S
C132 C135 1.539 . S
C133 C129 1.408 1_455 S
C133 C132 1.404 . S
C133 H145 0.930 . S
C134 C130 1.524 . S
C134 H146 0.956 . S
C134 H147 0.961 . S
C134 H148 0.961 . S
C135 C132 1.539 . S
C135 H149 0.958 . S
C135 H150 0.961 . S
C135 H151 0.960 . S
H136 C120 0.931 . S
H137 C125 0.929 . S
H138 C126 0.960 . S
H139 C126 0.962 . S
H140 C126 0.960 1_565 S
H141 C127 0.961 . S
H142 C127 0.961 . S
H143 C127 0.961 . S
H144 C128 0.931 . S
H145 C133 0.930 . S
H146 C134 0.956 . S
H147 C134 0.961 . S
H148 C134 0.961 . S
H149 C135 0.958 . S
H150 C135 0.961 . S
H151 C135 0.960 . S
C152 C153 1.391 . S
C152 C154 1.394 . S
C152 H168 0.931 . S
C153 C152 1.391 . S
C153 C157 1.376 1_545 S
C154 C152 1.394 . S
C154 C155 1.369 . S
C154 C158 1.531 . S
C155 C154 1.369 . S
C155 C156 1.410 1_545 S
C155 C163 1.503 . S
C156 C155 1.410 1_565 S
C156 C157 1.392 . S
C156 C159 1.511 . S
C157 C153 1.376 1_565 S
C157 C156 1.392 . S
C157 H169 0.929 . S
C158 C154 1.531 . S
C158 H170 0.960 . S
C158 H171 0.962 . S
C158 H172 0.960 . S
C159 C156 1.511 . S
C159 H173 0.961 . S
C159 H174 0.961 . S
C159 H175 0.961 . S
C160 C161 1.370 1_565 S
C160 C162 1.363 . S
C160 H176 0.931 . S
C161 C160 1.370 1_545 S
C161 C165 1.408 . S
C162 C160 1.363 . S
C162 C163 1.370 1_565 S
C162 C166 1.524 . S
C163 C155 1.503 . S
C163 C162 1.370 1_545 S
C163 C164 1.403 . S
C164 C163 1.403 . S
C164 C165 1.404 . S
C164 C167 1.539 . S
C165 C161 1.408 . S
C165 C164 1.404 . S
C165 H177 0.930 . S
C166 C162 1.524 . S
C166 H178 0.956 . S
C166 H179 0.961 . S
C166 H180 0.961 . S
C167 C164 1.539 . S
C167 H181 0.958 . S
C167 H182 0.961 . S
C167 H183 0.960 . S
H168 C152 0.931 . S
H169 C157 0.929 . S
H170 C158 0.960 . S
H171 C158 0.962 . S
H172 C158 0.960 . S
H173 C159 0.961 . S
H174 C159 0.961 . S
H175 C159 0.961 . S
H176 C160 0.931 . S
H177 C165 0.930 . S
H178 C166 0.956 . S
H179 C166 0.961 . S
H180 C166 0.961 . S
H181 C167 0.958 . S
H182 C167 0.961 . S
H183 C167 0.960 . S
C184 C185 1.391 . S
C184 C186 1.394 . S
C184 H200 0.931 . S
C185 C184 1.391 . S
C185 C189 1.376 . S
C186 C184 1.394 . S
C186 C187 1.369 . S
C186 C190 1.531 . S
C187 C186 1.369 . S
C187 C188 1.410 . S
C187 C195 1.503 . S
C188 C187 1.410 . S
C188 C189 1.392 . S
C188 C191 1.511 . S
C189 C185 1.376 . S
C189 C188 1.392 . S
C189 H201 0.929 . S
C190 C186 1.531 . S
C190 H202 0.960 . S
C190 H203 0.962 . S
C190 H204 0.960 . S
C191 C188 1.511 . S
C191 H205 0.961 . S
C191 H206 0.961 . S
C191 H207 0.961 . S
C192 C193 1.370 . S
C192 C194 1.363 . S
C192 H208 0.931 . S
C193 C192 1.370 . S
C193 C197 1.408 . S
C194 C192 1.363 . S
C194 C195 1.370 . S
C194 C198 1.524 . S
C195 C187 1.503 . S
C195 C194 1.370 . S
C195 C196 1.403 . S
C196 C195 1.403 . S
C196 C197 1.404 . S
C196 C199 1.539 . S
C197 C193 1.408 . S
C197 C196 1.404 . S
C197 H209 0.930 . S
C198 C194 1.524 . S
C198 H210 0.956 . S
C198 H211 0.961 . S
C198 H212 0.961 . S
C199 C196 1.539 . S
C199 H213 0.958 . S
C199 H214 0.961 . S
C199 H215 0.960 . S
H200 C184 0.931 . S
H201 C189 0.929 . S
H202 C190 0.960 . S
H203 C190 0.962 . S
H204 C190 0.960 . S
H205 C191 0.961 . S
H206 C191 0.961 . S
H207 C191 0.961 . S
H208 C192 0.931 . S
H209 C197 0.930 . S
H210 C198 0.956 . S
H211 C198 0.961 . S
H212 C198 0.961 . S
H213 C199 0.958 . S
H214 C199 0.961 . S
H215 C199 0.960 . S
C216 C217 1.391 . S
C216 C218 1.394 1_545 S
C216 H232 0.931 1_545 S
C217 C216 1.391 . S
C217 C221 1.376 . S
C218 C216 1.394 1_565 S
C218 C219 1.369 1_565 S
C218 C222 1.531 . S
C219 C218 1.369 1_545 S
C219 C220 1.410 . S
C219 C227 1.503 . S
C220 C219 1.410 . S
C220 C221 1.392 . S
C220 C223 1.511 . S
C221 C217 1.376 . S
C221 C220 1.392 . S
C221 H233 0.929 . S
C222 C218 1.531 . S
C222 H234 0.960 1_556 S
C222 H235 0.962 . S
C222 H236 0.960 . S
C223 C220 1.511 . S
C223 H237 0.961 . S
C223 H238 0.961 . S
C223 H239 0.961 . S
C224 C225 1.370 1_566 S
C224 C226 1.363 1_565 S
C224 H240 0.931 . S
C225 C224 1.370 1_544 S
C225 C229 1.408 . S
C226 C224 1.363 1_545 S
C226 C227 1.370 . S
C226 C230 1.524 1_545 S
C227 C219 1.503 . S
C227 C226 1.370 . S
C227 C228 1.403 1_556 S
C228 C227 1.403 1_554 S
C228 C229 1.404 . S
C228 C231 1.539 . S
C229 C225 1.408 . S
C229 C228 1.404 . S
C229 H241 0.930 . S
C230 C226 1.524 1_565 S
C230 H242 0.956 . S
C230 H243 0.961 1_565 S
C230 H244 0.961 . S
C231 C228 1.539 . S
C231 H245 0.958 . S
C231 H246 0.961 . S
C231 H247 0.960 . S
H232 C216 0.931 1_565 S
H233 C221 0.929 . S
H234 C222 0.960 1_554 S
H235 C222 0.962 . S
H236 C222 0.960 . S
H237 C223 0.961 . S
H238 C223 0.961 . S
H239 C223 0.961 . S
H240 C224 0.931 . S
H241 C229 0.930 . S
H242 C230 0.956 . S
H243 C230 0.961 1_545 S
H244 C230 0.961 . S
H245 C231 0.958 . S
H246 C231 0.961 . S
H247 C231 0.960 . S
C248 C249 1.391 . S
C248 C250 1.394 . S
C248 H264 0.931 . S
C249 C248 1.391 . S
C249 C253 1.376 . S
C250 C248 1.394 . S
C250 C251 1.369 . S
C250 C254 1.531 . S
C251 C250 1.369 . S
C251 C252 1.410 . S
C251 C259 1.503 . S
C252 C251 1.410 . S
C252 C253 1.392 . S
C252 C255 1.511 . S
C253 C249 1.376 . S
C253 C252 1.392 . S
C253 H265 0.929 . S
C254 C250 1.531 . S
C254 H266 0.960 . S
C254 H267 0.962 . S
C254 H268 0.960 . S
C255 C252 1.511 . S
C255 H269 0.961 1_545 S
C255 H270 0.961 . S
C255 H271 0.961 . S
C256 C257 1.370 . S
C256 C258 1.363 . S
C256 H272 0.931 . S
C257 C256 1.370 . S
C257 C261 1.408 . S
C258 C256 1.363 . S
C258 C259 1.370 . S
C258 C262 1.524 . S
C259 C251 1.503 . S
C259 C258 1.370 . S
C259 C260 1.403 . S
C260 C259 1.403 . S
C260 C261 1.404 . S
C260 C263 1.539 . S
C261 C257 1.408 . S
C261 C260 1.404 . S
C261 H273 0.930 . S
C262 C258 1.524 . S
C262 H274 0.956 . S
C262 H275 0.961 . S
C262 H276 0.961 . S
C263 C260 1.539 . S
C263 H277 0.958 . S
C263 H278 0.961 . S
C263 H279 0.960 . S
H264 C248 0.931 . S
H265 C253 0.929 . S
H266 C254 0.960 . S
H267 C254 0.962 . S
H268 C254 0.960 . S
H269 C255 0.961 1_565 S
H270 C255 0.961 . S
H271 C255 0.961 . S
H272 C256 0.931 . S
H273 C261 0.930 . S
H274 C262 0.956 . S
H275 C262 0.961 . S
H276 C262 0.961 . S
H277 C263 0.958 . S
H278 C263 0.961 . S
H279 C263 0.960 . S
C280 C281 1.391 1_545 S
C280 C282 1.394 . S
C280 H296 0.931 . S
C281 C280 1.391 1_565 S
C281 C285 1.376 . S
C282 C280 1.394 . S
C282 C283 1.369 1_545 S
C282 C286 1.531 . S
C283 C282 1.369 1_565 S
C283 C284 1.410 . S
C283 C291 1.503 . S
C284 C283 1.410 . S
C284 C285 1.392 . S
C284 C287 1.511 . S
C285 C281 1.376 . S
C285 C284 1.392 . S
C285 H297 0.929 . S
C286 C282 1.531 . S
C286 H298 0.960 . S
C286 H299 0.962 . S
C286 H300 0.960 . S
C287 C284 1.511 . S
C287 H301 0.961 . S
C287 H302 0.961 . S
C287 H303 0.961 . S
C288 C289 1.370 . S
C288 C290 1.363 . S
C288 H304 0.931 . S
C289 C288 1.370 . S
C289 C293 1.408 . S
C290 C288 1.363 . S
C290 C291 1.370 . S
C290 C294 1.524 . S
C291 C283 1.503 . S
C291 C290 1.370 . S
C291 C292 1.403 . S
C292 C291 1.403 . S
C292 C293 1.404 . S
C292 C295 1.539 1_665 S
C293 C289 1.408 . S
C293 C292 1.404 . S
C293 H305 0.930 1_565 S
C294 C290 1.524 . S
C294 H306 0.956 . S
C294 H307 0.961 . S
C294 H308 0.961 . S
C295 C292 1.539 1_445 S
C295 H309 0.958 . S
C295 H310 0.961 . S
C295 H311 0.960 . S
H296 C280 0.931 . S
H297 C285 0.929 . S
H298 C286 0.960 . S
H299 C286 0.962 . S
H300 C286 0.960 . S
H301 C287 0.961 . S
H302 C287 0.961 . S
H303 C287 0.961 . S
H304 C288 0.931 . S
H305 C293 0.930 1_545 S
H306 C294 0.956 . S
H307 C294 0.961 . S
H308 C294 0.961 . S
H309 C295 0.958 . S
H310 C295 0.961 . S
H311 C295 0.960 . S
C312 C313 1.391 . S
C312 C314 1.394 . S
C312 H328 0.931 . S
C313 C312 1.391 . S
C313 C317 1.376 1_655 S
C314 C312 1.394 . S
C314 C315 1.369 . S
C314 C318 1.531 . S
C315 C314 1.369 . S
C315 C316 1.410 1_655 S
C315 C323 1.503 1_556 S
C316 C315 1.410 1_455 S
C316 C317 1.392 . S
C316 C319 1.511 . S
C317 C313 1.376 1_455 S
C317 C316 1.392 . S
C317 H329 0.929 . S
C318 C314 1.531 . S
C318 H330 0.960 . S
C318 H331 0.962 . S
C318 H332 0.960 . S
C319 C316 1.511 . S
C319 H333 0.961 . S
C319 H334 0.961 1_556 S
C319 H335 0.961 1_556 S
C320 C321 1.370 . S
C320 C322 1.363 . S
C320 H336 0.931 . S
C321 C320 1.370 . S
C321 C325 1.408 . S
C322 C320 1.363 . S
C322 C323 1.370 . S
C322 C326 1.524 1_554 S
C323 C315 1.503 1_554 S
C323 C322 1.370 . S
C323 C324 1.403 . S
C324 C323 1.403 . S
C324 C325 1.404 . S
C324 C327 1.539 . S
C325 C321 1.408 . S
C325 C324 1.404 . S
C325 H337 0.930 . S
C326 C322 1.524 1_556 S
C326 H338 0.956 . S
C326 H339 0.961 . S
C326 H340 0.961 . S
C327 C324 1.539 . S
C327 H341 0.958 . S
C327 H342 0.961 1_655 S
C327 H343 0.960 1_655 S
H328 C312 0.931 . S
H329 C317 0.929 . S
H330 C318 0.960 . S
H331 C318 0.962 . S
H332 C318 0.960 . S
H333 C319 0.961 . S
H334 C319 0.961 1_554 S
H335 C319 0.961 1_554 S
H336 C320 0.931 . S
H337 C325 0.930 . S
H338 C326 0.956 . S
H339 C326 0.961 . S
H340 C326 0.961 . S
H341 C327 0.958 . S
H342 C327 0.961 1_455 S
H343 C327 0.960 1_455 S
C344 C345 1.391 . S
C344 C346 1.394 . S
C344 H360 0.931 . S
C345 C344 1.391 . S
C345 C349 1.376 . S
C346 C344 1.394 . S
C346 C347 1.369 . S
C346 C350 1.531 . S
C347 C346 1.369 . S
C347 C348 1.410 . S
C347 C355 1.503 . S
C348 C347 1.410 . S
C348 C349 1.392 . S
C348 C351 1.511 . S
C349 C345 1.376 . S
C349 C348 1.392 . S
C349 H361 0.929 . S
C350 C346 1.531 . S
C350 H362 0.960 . S
C350 H363 0.962 . S
C350 H364 0.960 . S
C351 C348 1.511 . S
C351 H365 0.961 . S
C351 H366 0.961 . S
C351 H367 0.961 . S
C352 C353 1.370 . S
C352 C354 1.363 . S
C352 H368 0.931 . S
C353 C352 1.370 . S
C353 C357 1.408 . S
C354 C352 1.363 . S
C354 C355 1.370 . S
C354 C358 1.524 . S
C355 C347 1.503 . S
C355 C354 1.370 . S
C355 C356 1.403 . S
C356 C355 1.403 . S
C356 C357 1.404 . S
C356 C359 1.539 . S
C357 C353 1.408 . S
C357 C356 1.404 . S
C357 H369 0.930 . S
C358 C354 1.524 . S
C358 H370 0.956 . S
C358 H371 0.961 . S
C358 H372 0.961 . S
C359 C356 1.539 . S
C359 H373 0.958 . S
C359 H374 0.961 . S
C359 H375 0.960 . S
H360 C344 0.931 . S
H361 C349 0.929 . S
H362 C350 0.960 . S
H363 C350 0.962 . S
H364 C350 0.960 . S
H365 C351 0.961 . S
H366 C351 0.961 . S
H367 C351 0.961 . S
H368 C352 0.931 . S
H369 C357 0.930 . S
H370 C358 0.956 . S
H371 C358 0.961 . S
H372 C358 0.961 . S
H373 C359 0.958 . S
H374 C359 0.961 . S
H375 C359 0.960 . S
C376 C377 1.391 . S
C376 C378 1.394 . S
C376 H392 0.931 . S
C377 C376 1.391 . S
C377 C381 1.376 . S
C378 C376 1.394 . S
C378 C379 1.369 . S
C378 C382 1.531 . S
C379 C378 1.369 . S
C379 C380 1.410 . S
C379 C387 1.503 . S
C380 C379 1.410 . S
C380 C381 1.392 . S
C380 C383 1.511 1_455 S
C381 C377 1.376 . S
C381 C380 1.392 . S
C381 H393 0.929 . S
C382 C378 1.531 . S
C382 H394 0.960 . S
C382 H395 0.962 . S
C382 H396 0.960 . S
C383 C380 1.511 1_655 S
C383 H397 0.961 . S
C383 H398 0.961 . S
C383 H399 0.961 1_655 S
C384 C385 1.370 1_655 S
C384 C386 1.363 . S
C384 H400 0.931 . S
C385 C384 1.370 1_455 S
C385 C389 1.408 . S
C386 C384 1.363 . S
C386 C387 1.370 1_655 S
C386 C390 1.524 . S
C387 C379 1.503 . S
C387 C386 1.370 1_455 S
C387 C388 1.403 . S
C388 C387 1.403 . S
C388 C389 1.404 . S
C388 C391 1.539 . S
C389 C385 1.408 . S
C389 C388 1.404 . S
C389 H401 0.930 . S
C390 C386 1.524 . S
C390 H402 0.956 . S
C390 H403 0.961 . S
C390 H404 0.961 . S
C391 C388 1.539 . S
C391 H405 0.958 . S
C391 H406 0.961 . S
C391 H407 0.960 . S
H392 C376 0.931 . S
H393 C381 0.929 . S
H394 C382 0.960 . S
H395 C382 0.962 . S
H396 C382 0.960 . S
H397 C383 0.961 . S
H398 C383 0.961 . S
H399 C383 0.961 1_455 S
H400 C384 0.931 . S
H401 C389 0.930 . S
H402 C390 0.956 . S
H403 C390 0.961 . S
H404 C390 0.961 . S
H405 C391 0.958 . S
H406 C391 0.961 . S
H407 C391 0.960 . S
C121 C18 1.599 1_455 S
C129 C8 1.614 1_655 S
C153 C48 1.698 1_545 S
C161 C58 1.668 1_455 S
C185 C98 1.396 . S
C193 C88 1.398 . S
C217 C95 0.962 . S
C225 C5 0.951 . S
C249 C49 1.875 . S
C257 C15 1.783 . S
C281 C89 2.379 . S
C289 C59 2.372 . S
C313 C99 2.341 . S
C321 C9 2.273 . S
C345 C19 1.875 . S
C353 C45 1.705 . S
C377 C85 1.014 . S
C385 C55 1.034 1_455 S
