# Generated by pormake.
# Topology uoq, (4)-cn, num edge types: 1
# Building blocks:
#     Node 0, Type 0, BuildingBlock: QUQFOY_clean_sbu_1, # of connection points: 4
#     Node 1, Type 0, BuildingBlock: QUQFOY_clean_sbu_1, # of connection points: 4
#     Node 2, Type 0, BuildingBlock: QUQFOY_clean_sbu_1, # of connection points: 4
#     Node 3, Type 0, BuildingBlock: QUQFOY_clean_sbu_1, # of connection points: 4
#     Node 4, Type 0, BuildingBlock: QUQFOY_clean_sbu_1, # of connection points: 4
#     Node 5, Type 0, BuildingBlock: QUQFOY_clean_sbu_1, # of connection points: 4
#     Node 6, Type 0, BuildingBlock: QUQFOY_clean_sbu_1, # of connection points: 4
#     Node 7, Type 0, BuildingBlock: QUQFOY_clean_sbu_1, # of connection points: 4
#     Node 8, Type 0, BuildingBlock: QUQFOY_clean_sbu_1, # of connection points: 4
#     Node 9, Type 0, BuildingBlock: QUQFOY_clean_sbu_1, # of connection points: 4
#     Node 10, Type 0, BuildingBlock: QUQFOY_clean_sbu_1, # of connection points: 4
#     Node 11, Type 0, BuildingBlock: QUQFOY_clean_sbu_1, # of connection points: 4
#     Edge 12, Type (0, 0), BuildingBlock: AJUNOK_clean_linker_0, # of connection points: 2
#     Edge 13, Type (0, 0), BuildingBlock: AJUNOK_clean_linker_0, # of connection points: 2
#     Edge 14, Type (0, 0), BuildingBlock: AJUNOK_clean_linker_0, # of connection points: 2
#     Edge 15, Type (0, 0), BuildingBlock: AJUNOK_clean_linker_0, # of connection points: 2
#     Edge 16, Type (0, 0), BuildingBlock: AJUNOK_clean_linker_0, # of connection points: 2
#     Edge 17, Type (0, 0), BuildingBlock: AJUNOK_clean_linker_0, # of connection points: 2
#     Edge 18, Type (0, 0), BuildingBlock: AJUNOK_clean_linker_0, # of connection points: 2
#     Edge 19, Type (0, 0), BuildingBlock: AJUNOK_clean_linker_0, # of connection points: 2
#     Edge 20, Type (0, 0), BuildingBlock: AJUNOK_clean_linker_0, # of connection points: 2
#     Edge 21, Type (0, 0), BuildingBlock: AJUNOK_clean_linker_0, # of connection points: 2
#     Edge 22, Type (0, 0), BuildingBlock: AJUNOK_clean_linker_0, # of connection points: 2
#     Edge 23, Type (0, 0), BuildingBlock: AJUNOK_clean_linker_0, # of connection points: 2
#     Edge 24, Type (0, 0), BuildingBlock: AJUNOK_clean_linker_0, # of connection points: 2
#     Edge 25, Type (0, 0), BuildingBlock: AJUNOK_clean_linker_0, # of connection points: 2
#     Edge 26, Type (0, 0), BuildingBlock: AJUNOK_clean_linker_0, # of connection points: 2
#     Edge 27, Type (0, 0), BuildingBlock: AJUNOK_clean_linker_0, # of connection points: 2
#     Edge 28, Type (0, 0), BuildingBlock: AJUNOK_clean_linker_0, # of connection points: 2
#     Edge 29, Type (0, 0), BuildingBlock: AJUNOK_clean_linker_0, # of connection points: 2
#     Edge 30, Type (0, 0), BuildingBlock: AJUNOK_clean_linker_0, # of connection points: 2
#     Edge 31, Type (0, 0), BuildingBlock: AJUNOK_clean_linker_0, # of connection points: 2
#     Edge 32, Type (0, 0), BuildingBlock: AJUNOK_clean_linker_0, # of connection points: 2
#     Edge 33, Type (0, 0), BuildingBlock: AJUNOK_clean_linker_0, # of connection points: 2
#     Edge 34, Type (0, 0), BuildingBlock: AJUNOK_clean_linker_0, # of connection points: 2
#     Edge 35, Type (0, 0), BuildingBlock: AJUNOK_clean_linker_0, # of connection points: 2
# Relax obj value: 0.139
# Max RMSD: 0.202
# Mean RMSD: 0.202
data_MOF--net-uoq--node1-QUQFOY_clean_sbu_1--edge1-AJUNOK_clean_linker_0
_symmetry_space_group_name_H-M    P1
_symmetry_Int_Tables_number       1
_symmetry_cell_setting            triclinic
loop_
_symmetry_equiv_pos_as_xyz
'x, y, z'
_cell_length_a     48.479436
_cell_length_b     48.51726
_cell_length_c     17.723761
_cell_angle_alpha  90.165823
_cell_angle_beta   89.858573
_cell_angle_gamma 119.92713
loop_
_atom_site_label
_atom_site_type_symbol
_atom_site_fract_x
_atom_site_fract_y
_atom_site_fract_z
_atom_type_partial_charge
O0 O 0.27088 0.46752 0.33648 0.0
Cd1 Cd 0.29682 0.47364 0.23954 0.0
Cd2 Cd 0.31635 0.43969 0.33782 0.0
O3 O 0.27454 0.42864 0.39123 0.0
O4 O 0.28169 0.49736 0.17602 0.0
O5 O 0.2732 0.44977 0.14508 0.0
C6 C 0.26937 0.47367 0.13013 0.0
C7 C 0.3319 0.40117 0.33169 0.0
C8 C 0.26227 0.44635 0.38716 0.0
C9 C 0.36277 0.50796 0.29956 0.0
O10 O 0.35376 0.4858 0.34783 0.0
O11 O 0.34503 0.50545 0.24424 0.0
O12 O 0.33208 0.41479 0.39427 0.0
O13 O 0.32178 0.40872 0.27226 0.0
O14 O 0.7976 0.26816 0.64025 0.0
Cd15 Cd 0.8165 0.29911 0.55076 0.0
Cd16 Cd 0.87087 0.32107 0.65878 0.0
O17 O 0.839 0.28093 0.71412 0.0
O18 O 0.7775 0.2841 0.48758 0.0
O19 O 0.81868 0.27999 0.45024 0.0
C20 C 0.79023 0.27469 0.4376 0.0
C21 C 0.92435 0.33433 0.66261 0.0
C22 C 0.80976 0.26342 0.69867 0.0
C23 C 0.84608 0.36536 0.61906 0.0
O24 O 0.86251 0.35855 0.66277 0.0
O25 O 0.82897 0.34633 0.56722 0.0
O26 O 0.90988 0.33635 0.72145 0.0
O27 O 0.90825 0.32439 0.60077 0.0
O28 O 0.53401 0.80218 -0.00098 0.0
Cd29 Cd 0.51689 0.8157 0.90956 0.0
Cd30 Cd 0.54956 0.87508 -0.00119 0.0
O31 O 0.5582 0.84627 0.067 0.0
O32 O 0.49474 0.77514 0.85114 0.0
O33 O 0.53649 0.81824 0.80683 0.0
C34 C 0.51516 0.78873 0.79796 0.0
C35 C 0.58934 0.92829 0.99076 0.0
C36 C 0.54968 0.81722 0.05694 0.0
C37 C 0.47919 0.84613 0.96824 0.0
O38 O 0.50429 0.86826 -0.00193 0.0
O39 O 0.47969 0.82406 0.93045 0.0
O40 O 0.57333 0.91654 0.05176 0.0
O41 O 0.5833 0.9094 0.93396 0.0
O42 O 0.72979 0.53716 0.34093 0.0
Cd43 Cd 0.69832 0.5151 0.25448 0.0
Cd44 Cd 0.66947 0.54796 0.3366 0.0
O45 O 0.70691 0.55892 0.40707 0.0
O46 O 0.72175 0.49746 0.19811 0.0
O47 O 0.71017 0.53224 0.14848 0.0
C48 C 0.72387 0.51534 0.14238 0.0
C49 C 0.65427 0.58653 0.33016 0.0
C50 C 0.72927 0.5529 0.39761 0.0
C51 C 0.63045 0.47641 0.31074 0.0
O52 O 0.63223 0.50206 0.33367 0.0
O53 O 0.65405 0.47639 0.27919 0.0
O54 O 0.64968 0.56975 0.38979 0.0
O55 O 0.66796 0.5816 0.27331 0.0
O56 O 0.19078 0.7108 0.65199 0.0
Cd57 Cd 0.16638 0.68364 0.56031 0.0
Cd58 Cd 0.11841 0.67274 0.65983 0.0
O59 O 0.15195 0.71577 0.70252 0.0
O60 O 0.20155 0.69588 0.48639 0.0
O61 O 0.163 0.70692 0.4695 0.0
C62 C 0.18949 0.70944 0.4468 0.0
C63 C 0.0653 0.66003 0.66057 0.0
C64 C 0.18116 0.724 0.6988 0.0
C65 C 0.13408 0.62098 0.63173 0.0
O66 O 0.12428 0.63397 0.67877 0.0
O67 O 0.14741 0.63519 0.57082 0.0
O68 O 0.08022 0.66193 0.72203 0.0
O69 O 0.08108 0.6666 0.59804 0.0
O70 O 0.4605 0.18474 0.00046 0.0
Cd71 Cd 0.46373 0.16245 0.90493 0.0
Cd72 Cd 0.4299 0.11297 0.00668 0.0
O73 O 0.41856 0.14467 0.05365 0.0
O74 O 0.48781 0.19989 0.83777 0.0
O75 O 0.43873 0.16214 0.81305 0.0
C76 C 0.46311 0.18911 0.79529 0.0
C77 C 0.39141 0.05909 0.00372 0.0
C78 C 0.43845 0.17412 0.04938 0.0
C79 C 0.49769 0.13255 0.97052 0.0
O80 O 0.47614 0.12212 0.02087 0.0
O81 O 0.49426 0.14453 0.91011 0.0
O82 O 0.40438 0.07336 0.06597 0.0
O83 O 0.39972 0.0758 0.9426 0.0
O84 O 0.5284 0.72478 0.33392 0.0
Cd85 Cd 0.51511 0.69253 0.42107 0.0
Cd86 Cd 0.54926 0.67246 0.31934 0.0
O87 O 0.56069 0.71417 0.26785 0.0
O88 O 0.49166 0.70717 0.48746 0.0
O89 O 0.53695 0.71031 0.52112 0.0
C90 C 0.51411 0.71586 0.5362 0.0
C91 C 0.58818 0.65779 0.32204 0.0
C92 C 0.54807 0.73117 0.28026 0.0
C93 C 0.47987 0.6272 0.34937 0.0
O94 O 0.50378 0.63517 0.30692 0.0
O95 O 0.48088 0.64525 0.40278 0.0
O96 O 0.57434 0.6578 0.26023 0.0
O97 O 0.58031 0.66686 0.38298 0.0
O98 O 0.80235 0.53816 0.67527 0.0
Cd99 Cd 0.81779 0.51945 0.75826 0.0
Cd100 Cd 0.87354 0.55295 0.65713 0.0
O101 O 0.84494 0.56657 0.60511 0.0
O102 O 0.77795 0.49869 0.81961 0.0
O103 O 0.82364 0.53691 0.86445 0.0
C104 C 0.7936 0.5176 0.87405 0.0
C105 C 0.92767 0.59053 0.66125 0.0
C106 C 0.81601 0.55687 0.62041 0.0
C107 C 0.84426 0.48189 0.6801 0.0
O108 O 0.863 0.50666 0.64314 0.0
O109 O 0.82629 0.48263 0.73157 0.0
O110 O 0.9138 0.57677 0.5993 0.0
O111 O 0.91051 0.58313 0.72168 0.0
O112 O 0.2682 0.79401 0.98774 0.0
Cd113 Cd 0.29369 0.81235 0.08427 0.0
Cd114 Cd 0.31541 0.86855 0.99139 0.0
O115 O 0.27754 0.83737 0.92592 0.0
O116 O 0.27626 0.77318 0.14718 0.0
O117 O 0.27085 0.81421 0.17854 0.0
C118 C 0.2649 0.78568 0.19273 0.0
C119 C 0.32743 0.92163 -0.00441 0.0
C120 C 0.26344 0.80733 0.93183 0.0
C121 C 0.36107 0.84471 0.03066 0.0
O122 O 0.35505 0.86309 0.99198 0.0
O123 O 0.34065 0.82464 0.076 0.0
O124 O 0.33153 0.90924 0.93537 0.0
O125 O 0.31544 0.90344 0.05369 0.0
O126 O 0.46236 0.2658 0.33741 0.0
Cd127 Cd 0.47222 0.29454 0.42926 0.0
Cd128 Cd 0.44078 0.3179 0.3284 0.0
O129 O 0.43167 0.27766 0.26899 0.0
O130 O 0.49219 0.27642 0.49597 0.0
O131 O 0.44726 0.27493 0.52525 0.0
C132 C 0.46854 0.26733 0.54143 0.0
C133 C 0.40178 0.33298 0.32687 0.0
C134 C 0.44504 0.26123 0.28003 0.0
C135 C 0.51096 0.3606 0.36804 0.0
O136 O 0.48704 0.35554 0.32845 0.0
O137 O 0.50915 0.34026 0.41573 0.0
O138 O 0.41811 0.335 0.26771 0.0
O139 O 0.40713 0.32164 0.38743 0.0
O140 O 0.18896 0.46729 0.66735 0.0
Cd141 Cd 0.16732 0.47231 0.76243 0.0
Cd142 Cd 0.11576 0.43591 0.66365 0.0
O143 O 0.14804 0.42562 0.61535 0.0
O144 O 0.20488 0.49694 0.82929 0.0
O145 O 0.16679 0.44843 0.85683 0.0
C146 C 0.19376 0.47295 0.87407 0.0
C147 C 0.06193 0.39699 0.66633 0.0
C148 C 0.1777 0.44501 0.6189 0.0
C149 C 0.13394 0.50364 0.69709 0.0
O150 O 0.12269 0.48116 0.64915 0.0
O151 O 0.14876 0.50231 0.75475 0.0
O152 O 0.07626 0.40993 0.60415 0.0
O153 O 0.07872 0.40514 0.72733 0.0
O154 O 0.71719 0.19169 0.97679 0.0
Cd155 Cd 0.68804 0.1739 0.07016 0.0
Cd156 Cd 0.66598 0.11744 0.97193 0.0
O157 O 0.704 0.14848 0.90926 0.0
O158 O 0.70393 0.21313 0.13304 0.0
O159 O 0.70915 0.17235 0.1675 0.0
C160 C 0.71447 0.20076 0.18093 0.0
C161 C 0.65512 0.06497 0.97541 0.0
C162 C 0.72103 0.17818 0.91946 0.0
C163 C 0.61961 0.13935 0.01394 0.0
O164 O 0.6265 0.12254 0.97151 0.0
O165 O 0.63983 0.1591 0.06046 0.0
O166 O 0.65107 0.07718 0.91507 0.0
O167 O 0.666 0.08291 0.03441 0.0
C168 C 0.35411 0.37063 0.3958 0.0
C169 C 0.34529 0.37954 0.3284 0.0
C170 C 0.37086 0.35399 0.39486 0.0
C171 C 0.37971 0.34583 0.32648 0.0
H172 H 0.34899 0.37745 0.45001 0.0
H173 H 0.37817 0.34884 0.44821 0.0
S174 S 0.35895 0.35992 0.13428 0.0
N175 N 0.34404 0.37615 0.19135 0.0
N176 N 0.37566 0.34506 0.18953 0.0
C177 C 0.36946 0.35293 0.25868 0.0
C178 C 0.3522 0.3697 0.25965 0.0
C179 C 0.97654 0.35308 0.59775 0.0
C180 C 0.9589 0.34544 0.66508 0.0
C181 C 0.00983 0.36818 0.59888 0.0
C182 C 0.02683 0.37609 0.66737 0.0
H183 H 0.96471 0.34878 0.54366 0.0
H184 H 0.02234 0.37482 0.54541 0.0
S185 S 0.99148 0.35665 0.85933 0.0
N186 N 0.96061 0.34357 0.80216 0.0
N187 N 0.02317 0.37187 0.80421 0.0
C188 C 0.00935 0.36652 0.73505 0.0
C189 C 0.97541 0.35126 0.73391 0.0
C190 C 0.61992 0.98158 0.05157 0.0
C191 C 0.61167 0.96292 0.98551 0.0
C192 C 0.6361 0.01482 0.04812 0.0
C193 C 0.64435 0.03063 0.97843 0.0
H194 H 0.61263 0.97046 0.10647 0.0
H195 H 0.64042 0.02805 0.10026 0.0
S196 S 0.63292 0.99311 0.78962 0.0
N197 N 0.61654 0.96289 0.84886 0.0
N198 N 0.6468 0.02543 0.84229 0.0
C199 C 0.63845 0.0124 0.91226 0.0
C200 C 0.62217 0.97851 0.91581 0.0
C201 C 0.63128 0.61636 0.39384 0.0
C202 C 0.64225 0.60916 0.32709 0.0
C203 C 0.61554 0.6339 0.39223 0.0
C204 C 0.60993 0.6447 0.3237 0.0
H205 H 0.63384 0.60743 0.44779 0.0
H206 H 0.60631 0.63756 0.44472 0.0
S207 S 0.63778 0.6362 0.13423 0.0
N208 N 0.64942 0.61719 0.19145 0.0
N209 N 0.61967 0.65009 0.18825 0.0
C210 C 0.6226 0.63952 0.25706 0.0
C211 C 0.63884 0.62179 0.25878 0.0
C212 C 0.97986 0.61944 0.59444 0.0
C213 C 0.96253 0.61248 0.66241 0.0
C214 C 0.01315 0.63657 0.59394 0.0
C215 C 0.03048 0.64734 0.66143 0.0
H216 H 0.96771 0.61063 0.54107 0.0
H217 H 0.02531 0.64003 0.54047 0.0
S218 S -0.00342 0.63952 0.85363 0.0
N219 N 0.96522 0.62073 0.79827 0.0
N220 N 0.02786 0.65296 0.79747 0.0
C221 C 0.01349 0.64241 0.72938 0.0
C222 C 0.97951 0.62499 0.72985 0.0
C223 C 0.34969 0.97431 0.93175 0.0
C224 C 0.33869 0.95621 -0.00163 0.0
C225 C 0.36502 0.00758 0.93344 0.0
C226 C 0.37018 0.02411 0.0019 0.0
H227 H 0.34755 0.96281 0.87788 0.0
H228 H 0.37427 0.02039 0.88103 0.0
S229 S 0.34202 0.98793 0.19101 0.0
N230 N 0.331 0.95728 0.13382 0.0
N231 N 0.35994 0.01983 0.13712 0.0
C232 C 0.35746 0.0063 0.06837 0.0
C233 C 0.34166 0.97235 0.06657 0.0
C234 C 0.20847 0.44487 0.9711 0.0
C235 C 0.21232 0.4734 0.94099 0.0
C236 C 0.22748 0.44509 0.03117 0.0
C237 C 0.25063 0.47382 0.06417 0.0
H238 H 0.19107 0.42221 0.94719 0.0
H239 H 0.22371 0.42256 0.05251 0.0
S240 S 0.26965 0.55504 0.00702 0.0
N241 N 0.24091 0.53114 0.94921 0.0
N242 N 0.27616 0.53156 0.06225 0.0
C243 C 0.25445 0.50248 0.03498 0.0
C244 C 0.23543 0.50227 0.9734 0.0
C245 C 0.77597 0.23272 0.33846 0.0
C246 C 0.77183 0.25704 0.37018 0.0
C247 C 0.75673 0.21397 0.27853 0.0
C248 C 0.7332 0.21937 0.24717 0.0
H249 H 0.79367 0.22764 0.36122 0.0
H250 H 0.76068 0.19546 0.25585 0.0
S251 S 0.71348 0.28072 0.30883 0.0
N252 N 0.74258 0.28564 0.36549 0.0
N253 N 0.7071 0.25109 0.25206 0.0
C254 C 0.72917 0.24392 0.27782 0.0
C255 C 0.74831 0.26257 0.33951 0.0
C256 C 0.54303 0.77667 0.69486 0.0
C257 C 0.51452 0.77039 0.73053 0.0
C258 C 0.54288 0.7581 0.63365 0.0
C259 C 0.51414 0.73319 0.60496 0.0
H260 H 0.56564 0.79568 0.71519 0.0
H261 H 0.56532 0.7638 0.60749 0.0
S262 S 0.43306 0.70739 0.6778 0.0
N263 N 0.45687 0.73735 0.73303 0.0
N264 N 0.45653 0.70324 0.61677 0.0
C265 C 0.48551 0.72687 0.63983 0.0
C266 C 0.48571 0.74526 0.70295 0.0
C267 C 0.72958 0.51464 0.00249 0.0
C268 C 0.74234 0.51694 0.07473 0.0
C269 C 0.74634 0.51459 0.93789 0.0
C270 C 0.77684 0.51793 0.94337 0.0
H271 H 0.7062 0.5121 -0.00402 0.0
H272 H 0.73548 0.51225 0.88314 0.0
S273 S 0.82126 0.5263 0.11966 0.0
N274 N 0.7873 0.52304 0.14835 0.0
N275 N 0.81942 0.52446 0.02657 0.0
C276 C 0.7902 0.52113 0.01519 0.0
C277 C 0.77274 0.5202 0.08103 0.0
C278 C 0.22908 0.72227 0.34385 0.0
C279 C 0.20681 0.72841 0.37978 0.0
C280 C 0.24769 0.74103 0.28379 0.0
C281 C 0.24525 0.76711 0.25789 0.0
H282 H 0.23226 0.70276 0.36231 0.0
H283 H 0.2644 0.73516 0.25799 0.0
S284 S 0.19054 0.79343 0.33262 0.0
N285 N 0.18311 0.7623 0.3848 0.0
N286 N 0.21854 0.79798 0.27231 0.0
C287 C 0.22308 0.77361 0.2932 0.0
C288 C 0.20369 0.75411 0.35387 0.0
C289 C 0.49238 0.23033 0.69749 0.0
C290 C 0.46314 0.20798 0.72974 0.0
C291 C 0.49374 0.24962 0.63745 0.0
C292 C 0.46598 0.24785 0.60807 0.0
H293 H 0.5145 0.23282 0.71837 0.0
H294 H 0.51685 0.26616 0.61402 0.0
S295 S 0.38341 0.19374 0.6734 0.0
N296 N 0.40567 0.18527 0.72828 0.0
N297 N 0.40829 0.22207 0.61594 0.0
C298 C 0.43655 0.2259 0.64028 0.0
C299 C 0.43511 0.20577 0.70082 0.0
C300 C 0.22316 0.4729 0.53129 0.0
C301 C 0.19903 0.4441 0.56122 0.0
C302 C 0.24309 0.47319 0.47397 0.0
C303 C 0.24015 0.44473 0.44604 0.0
H304 H 0.22626 0.49541 0.55123 0.0
H305 H 0.26128 0.49594 0.45216 0.0
S306 S 0.18127 0.36307 0.5068 0.0
N307 N 0.17312 0.38639 0.55902 0.0
N308 N 0.2117 0.387 0.45277 0.0
C309 C 0.21649 0.41575 0.47623 0.0
C310 C 0.19557 0.41541 0.5334 0.0
C311 C 0.7947 0.24546 0.83099 0.0
C312 C 0.7888 0.2393 0.75341 0.0
C313 C 0.77285 0.22516 0.88459 0.0
C314 C 0.74482 0.19767 0.86236 0.0
H315 H 0.81562 0.26685 0.85044 0.0
H316 H 0.77775 0.23125 0.9438 0.0
S317 S 0.71962 0.16969 0.66617 0.0
N318 N 0.7538 0.20317 0.65687 0.0
N319 N 0.71302 0.16441 0.75787 0.0
C320 C 0.73936 0.19044 0.78506 0.0
C321 C 0.76129 0.21146 0.73045 0.0
C322 C 0.55954 0.77388 0.09586 0.0
C323 C 0.55512 0.79941 0.1162 0.0
C324 C 0.55923 0.753 0.15033 0.0
C325 C 0.55373 0.75654 0.22672 0.0
H326 H 0.56216 0.76937 0.03709 0.0
H327 H 0.5615 0.73292 0.13179 0.0
S328 S 0.54381 0.82129 0.3098 0.0
N329 N 0.54779 0.82876 0.21835 0.0
N330 N 0.54646 0.78891 0.32096 0.0
C331 C 0.55091 0.78291 0.24833 0.0
C332 C 0.55186 0.80457 0.19294 0.0
C333 C 0.78378 0.56652 0.43592 0.0
C334 C 0.75353 0.56127 0.45638 0.0
C335 C 0.80515 0.56788 0.49051 0.0
C336 C 0.79667 0.56337 0.56726 0.0
H337 H 0.79043 0.56807 0.37699 0.0
H338 H 0.82748 0.57017 0.47172 0.0
S339 S 0.72204 0.55345 0.65084 0.0
N340 N 0.71755 0.55535 0.55901 0.0
N341 N 0.75761 0.55732 0.66192 0.0
C342 C 0.76747 0.56057 0.58897 0.0
C343 C 0.74589 0.5597 0.53336 0.0
C344 C 0.20036 0.77221 0.78018 0.0
C345 C 0.20344 0.74639 0.75462 0.0
C346 C 0.22054 0.7927 0.83639 0.0
C347 C 0.24354 0.7872 0.86999 0.0
H348 H 0.18228 0.77656 0.75661 0.0
H349 H 0.21754 0.81232 0.85516 0.0
S350 S 0.26125 0.72313 0.82256 0.0
N351 N 0.23171 0.71693 0.76593 0.0
N352 N 0.26893 0.75484 0.87291 0.0
C353 C 0.24696 0.76164 0.84453 0.0
C354 C 0.22705 0.74135 0.78638 0.0
C355 C 0.41316 0.19921 0.12445 0.0
C356 C 0.43955 0.19552 0.10894 0.0
C357 C 0.41498 0.22075 0.17995 0.0
C358 C 0.44289 0.2383 0.22264 0.0
H359 H 0.39136 0.18592 0.09254 0.0
H360 H 0.39442 0.2235 0.18993 0.0
S361 S 0.51793 0.23578 0.20423 0.0
N362 N 0.49394 0.21039 0.14028 0.0
N363 N 0.49725 0.25014 0.24583 0.0
C364 C 0.46913 0.23414 0.20824 0.0
C365 C 0.46747 0.21289 0.15095 0.0
C366 C 0.40331 0.54961 0.38414 0.0
C367 C 0.39323 0.53778 0.31071 0.0
C368 C 0.4312 0.57877 0.39627 0.0
C369 C 0.45042 0.59666 0.33548 0.0
H370 H 0.38915 0.53661 0.43257 0.0
H371 H 0.43793 0.5872 0.45364 0.0
S372 S 0.43493 0.57568 0.13246 0.0
N373 N 0.40464 0.54605 0.17651 0.0
N374 N 0.45761 0.60034 0.19925 0.0
C375 C 0.44089 0.5848 0.26186 0.0
C376 C 0.41213 0.5555 0.24947 0.0
C377 C 0.84322 0.43237 0.72207 0.0
C378 C 0.84381 0.45191 0.66306 0.0
C379 C 0.84446 0.40463 0.70707 0.0
C380 C 0.84535 0.39501 0.63253 0.0
H381 H 0.84252 0.43895 0.78023 0.0
H382 H 0.84429 0.39037 0.75421 0.0
S383 S 0.84614 0.43734 0.45818 0.0
N384 N 0.84518 0.45974 0.52736 0.0
N385 N 0.84616 0.40681 0.4992 0.0
C386 C 0.84526 0.41397 0.57302 0.0
C387 C 0.84488 0.44266 0.58831 0.0
C388 C 0.44785 0.87371 0.98704 0.0
C389 C 0.44872 0.84521 0.98206 0.0
C390 C 0.41938 0.87344 0.0031 0.0
C391 C 0.39111 0.84475 0.01721 0.0
H392 H 0.46925 0.89636 0.9777 0.0
H393 H 0.41955 0.89585 0.00521 0.0
S394 S 0.38091 0.76372 0.01199 0.0
N395 N 0.4189 0.78757 0.9922 0.0
N396 N 0.36562 0.78712 0.02465 0.0
C397 C 0.39176 0.81613 0.01319 0.0
C398 C 0.42051 0.81634 0.99494 0.0
C399 C 0.57126 0.44602 0.32048 0.0
C400 C 0.60041 0.44629 0.32317 0.0
C401 C 0.54241 0.41818 0.33506 0.0
C402 C 0.54175 0.38985 0.35501 0.0
H403 H 0.57071 0.46745 0.3064 0.0
H404 H 0.5205 0.41895 0.33156 0.0
S405 S 0.6115 0.37804 0.37031 0.0
N406 N 0.62686 0.41578 0.34646 0.0
N407 N 0.57267 0.36359 0.37597 0.0
C408 C 0.57074 0.38982 0.35839 0.0
C409 C 0.60006 0.418 0.34179 0.0
C410 C 0.13111 0.57009 0.59177 0.0
C411 C 0.13178 0.59014 0.65003 0.0
C412 C 0.13072 0.54163 0.60772 0.0
C413 C 0.13174 0.5325 0.68254 0.0
H414 H 0.13103 0.5765 0.53327 0.0
H415 H 0.13062 0.52717 0.56093 0.0
S416 S 0.13289 0.57617 0.85568 0.0
N417 N 0.13247 0.59837 0.78576 0.0
N418 N 0.13248 0.54522 0.8155 0.0
C419 C 0.132 0.55209 0.74137 0.0
C420 C 0.13179 0.58079 0.72521 0.0
C421 C 0.57312 0.12944 0.93458 0.0
C422 C 0.58805 0.13678 0.00569 0.0
C423 C 0.54377 0.1279 0.92378 0.0
C424 C 0.52782 0.13274 0.98411 0.0
H425 H 0.58456 0.12559 0.88634 0.0
H426 H 0.53345 0.12281 0.86778 0.0
S427 S 0.55626 0.15192 0.18182 0.0
N428 N 0.58458 0.14878 0.13745 0.0
N429 N 0.52887 0.14492 0.11765 0.0
C430 C 0.54212 0.13946 0.05586 0.0
C431 C 0.57239 0.14177 0.0665 0.0
loop_
_geom_bond_atom_site_label_1
_geom_bond_atom_site_label_2
_geom_bond_distance
_geom_bond_site_symmetry_2
_ccdc_geom_bond_type
O0 Cd1 2.223 . S
O0 C8 1.315 . S
Cd1 O0 2.223 . S
Cd1 O4 2.297 . S
Cd1 O5 2.439 . S
Cd1 O11 2.240 . S
Cd2 O3 2.240 . S
Cd2 O10 2.223 . S
Cd2 O12 2.297 . S
Cd2 O13 2.439 . S
O3 Cd2 2.240 . S
O3 C8 1.279 . S
O4 Cd1 2.297 . S
O4 C6 1.247 . S
O5 Cd1 2.439 . S
O5 C6 1.208 . S
C6 O4 1.247 . S
C6 O5 1.208 . S
C7 O12 1.247 . S
C7 O13 1.208 . S
C8 O0 1.315 . S
C8 O3 1.279 . S
C9 O10 1.315 . S
C9 O11 1.279 . S
O10 Cd2 2.223 . S
O10 C9 1.315 . S
O11 Cd1 2.240 . S
O11 C9 1.279 . S
O12 Cd2 2.297 . S
O12 C7 1.247 . S
O13 Cd2 2.439 . S
O13 C7 1.208 . S
O14 Cd15 2.223 . S
O14 C22 1.315 . S
Cd15 O14 2.223 . S
Cd15 O18 2.297 . S
Cd15 O19 2.439 . S
Cd15 O25 2.240 . S
Cd16 O17 2.240 . S
Cd16 O24 2.223 . S
Cd16 O26 2.297 . S
Cd16 O27 2.439 . S
O17 Cd16 2.240 . S
O17 C22 1.279 . S
O18 Cd15 2.297 . S
O18 C20 1.247 . S
O19 Cd15 2.439 . S
O19 C20 1.208 . S
C20 O18 1.247 . S
C20 O19 1.208 . S
C21 O26 1.247 . S
C21 O27 1.208 . S
C22 O14 1.315 . S
C22 O17 1.279 . S
C23 O24 1.315 . S
C23 O25 1.279 . S
O24 Cd16 2.223 . S
O24 C23 1.315 . S
O25 Cd15 2.240 . S
O25 C23 1.279 . S
O26 Cd16 2.297 . S
O26 C21 1.247 . S
O27 Cd16 2.439 . S
O27 C21 1.208 . S
O28 Cd29 2.223 . S
O28 C36 1.315 1_556 S
Cd29 O28 2.223 . S
Cd29 O32 2.297 . S
Cd29 O33 2.439 . S
Cd29 O39 2.240 . S
Cd30 O31 2.240 . S
Cd30 O38 2.223 . S
Cd30 O40 2.297 . S
Cd30 O41 2.439 1_554 S
O31 Cd30 2.240 . S
O31 C36 1.279 . S
O32 Cd29 2.297 . S
O32 C34 1.247 . S
O33 Cd29 2.439 . S
O33 C34 1.208 . S
C34 O32 1.247 . S
C34 O33 1.208 . S
C35 O40 1.247 1_556 S
C35 O41 1.208 . S
C36 O28 1.315 1_554 S
C36 O31 1.279 . S
C37 O38 1.315 . S
C37 O39 1.279 1_554 S
O38 Cd30 2.223 . S
O38 C37 1.315 . S
O39 Cd29 2.240 . S
O39 C37 1.279 1_556 S
O40 Cd30 2.297 . S
O40 C35 1.247 1_554 S
O41 Cd30 2.439 1_556 S
O41 C35 1.208 . S
O42 Cd43 2.223 . S
O42 C50 1.315 . S
Cd43 O42 2.223 . S
Cd43 O46 2.297 . S
Cd43 O47 2.439 . S
Cd43 O53 2.240 . S
Cd44 O45 2.240 . S
Cd44 O52 2.223 . S
Cd44 O54 2.297 . S
Cd44 O55 2.439 . S
O45 Cd44 2.240 . S
O45 C50 1.279 . S
O46 Cd43 2.297 . S
O46 C48 1.247 . S
O47 Cd43 2.439 . S
O47 C48 1.208 . S
C48 O46 1.247 . S
C48 O47 1.208 . S
C49 O54 1.247 . S
C49 O55 1.208 . S
C50 O42 1.315 . S
C50 O45 1.279 . S
C51 O52 1.315 . S
C51 O53 1.279 . S
O52 Cd44 2.223 . S
O52 C51 1.315 . S
O53 Cd43 2.240 . S
O53 C51 1.279 . S
O54 Cd44 2.297 . S
O54 C49 1.247 . S
O55 Cd44 2.439 . S
O55 C49 1.208 . S
O56 Cd57 2.223 . S
O56 C64 1.315 . S
Cd57 O56 2.223 . S
Cd57 O60 2.297 . S
Cd57 O61 2.439 . S
Cd57 O67 2.240 . S
Cd58 O59 2.240 . S
Cd58 O66 2.223 . S
Cd58 O68 2.297 . S
Cd58 O69 2.439 . S
O59 Cd58 2.240 . S
O59 C64 1.279 . S
O60 Cd57 2.297 . S
O60 C62 1.247 . S
O61 Cd57 2.439 . S
O61 C62 1.208 . S
C62 O60 1.247 . S
C62 O61 1.208 . S
C63 O68 1.247 . S
C63 O69 1.208 . S
C64 O56 1.315 . S
C64 O59 1.279 . S
C65 O66 1.315 . S
C65 O67 1.279 . S
O66 Cd58 2.223 . S
O66 C65 1.315 . S
O67 Cd57 2.240 . S
O67 C65 1.279 . S
O68 Cd58 2.297 . S
O68 C63 1.247 . S
O69 Cd58 2.439 . S
O69 C63 1.208 . S
O70 Cd71 2.223 . S
O70 C78 1.315 1_556 S
Cd71 O70 2.223 . S
Cd71 O74 2.297 . S
Cd71 O75 2.439 . S
Cd71 O81 2.240 . S
Cd72 O73 2.240 . S
Cd72 O80 2.223 . S
Cd72 O82 2.297 . S
Cd72 O83 2.439 1_554 S
O73 Cd72 2.240 . S
O73 C78 1.279 . S
O74 Cd71 2.297 . S
O74 C76 1.247 . S
O75 Cd71 2.439 . S
O75 C76 1.208 . S
C76 O74 1.247 . S
C76 O75 1.208 . S
C77 O82 1.247 1_556 S
C77 O83 1.208 . S
C78 O70 1.315 1_554 S
C78 O73 1.279 . S
C79 O80 1.315 . S
C79 O81 1.279 1_554 S
O80 Cd72 2.223 . S
O80 C79 1.315 . S
O81 Cd71 2.240 . S
O81 C79 1.279 1_556 S
O82 Cd72 2.297 . S
O82 C77 1.247 1_554 S
O83 Cd72 2.439 1_556 S
O83 C77 1.208 . S
O84 Cd85 2.223 . S
O84 C92 1.315 . S
Cd85 O84 2.223 . S
Cd85 O88 2.297 . S
Cd85 O89 2.439 . S
Cd85 O95 2.240 . S
Cd86 O87 2.240 . S
Cd86 O94 2.223 . S
Cd86 O96 2.297 . S
Cd86 O97 2.439 . S
O87 Cd86 2.240 . S
O87 C92 1.279 . S
O88 Cd85 2.297 . S
O88 C90 1.247 . S
O89 Cd85 2.439 . S
O89 C90 1.208 . S
C90 O88 1.247 . S
C90 O89 1.208 . S
C91 O96 1.247 . S
C91 O97 1.208 . S
C92 O84 1.315 . S
C92 O87 1.279 . S
C93 O94 1.315 . S
C93 O95 1.279 . S
O94 Cd86 2.223 . S
O94 C93 1.315 . S
O95 Cd85 2.240 . S
O95 C93 1.279 . S
O96 Cd86 2.297 . S
O96 C91 1.247 . S
O97 Cd86 2.439 . S
O97 C91 1.208 . S
O98 Cd99 2.223 . S
O98 C106 1.315 . S
Cd99 O98 2.223 . S
Cd99 O102 2.297 . S
Cd99 O103 2.439 . S
Cd99 O109 2.240 . S
Cd100 O101 2.240 . S
Cd100 O108 2.223 . S
Cd100 O110 2.297 . S
Cd100 O111 2.439 . S
O101 Cd100 2.240 . S
O101 C106 1.279 . S
O102 Cd99 2.297 . S
O102 C104 1.247 . S
O103 Cd99 2.439 . S
O103 C104 1.208 . S
C104 O102 1.247 . S
C104 O103 1.208 . S
C105 O110 1.247 . S
C105 O111 1.208 . S
C106 O98 1.315 . S
C106 O101 1.279 . S
C107 O108 1.315 . S
C107 O109 1.279 . S
O108 Cd100 2.223 . S
O108 C107 1.315 . S
O109 Cd99 2.240 . S
O109 C107 1.279 . S
O110 Cd100 2.297 . S
O110 C105 1.247 . S
O111 Cd100 2.439 . S
O111 C105 1.208 . S
O112 Cd113 2.223 . S
O112 C120 1.315 1_554 S
Cd113 O112 2.223 . S
Cd113 O116 2.297 . S
Cd113 O117 2.439 . S
Cd113 O123 2.240 . S
Cd114 O115 2.240 . S
Cd114 O122 2.223 . S
Cd114 O124 2.297 . S
Cd114 O125 2.439 1_556 S
O115 Cd114 2.240 . S
O115 C120 1.279 . S
O116 Cd113 2.297 . S
O116 C118 1.247 . S
O117 Cd113 2.439 . S
O117 C118 1.208 . S
C118 O116 1.247 . S
C118 O117 1.208 . S
C119 O124 1.247 1_554 S
C119 O125 1.208 . S
C120 O112 1.315 1_556 S
C120 O115 1.279 . S
C121 O122 1.315 . S
C121 O123 1.279 1_556 S
O122 Cd114 2.223 . S
O122 C121 1.315 . S
O123 Cd113 2.240 . S
O123 C121 1.279 1_554 S
O124 Cd114 2.297 . S
O124 C119 1.247 1_556 S
O125 Cd114 2.439 1_554 S
O125 C119 1.208 . S
O126 Cd127 2.223 . S
O126 C134 1.315 . S
Cd127 O126 2.223 . S
Cd127 O130 2.297 . S
Cd127 O131 2.439 . S
Cd127 O137 2.240 . S
Cd128 O129 2.240 . S
Cd128 O136 2.223 . S
Cd128 O138 2.297 . S
Cd128 O139 2.439 . S
O129 Cd128 2.240 . S
O129 C134 1.279 . S
O130 Cd127 2.297 . S
O130 C132 1.247 . S
O131 Cd127 2.439 . S
O131 C132 1.208 . S
C132 O130 1.247 . S
C132 O131 1.208 . S
C133 O138 1.247 . S
C133 O139 1.208 . S
C134 O126 1.315 . S
C134 O129 1.279 . S
C135 O136 1.315 . S
C135 O137 1.279 . S
O136 Cd128 2.223 . S
O136 C135 1.315 . S
O137 Cd127 2.240 . S
O137 C135 1.279 . S
O138 Cd128 2.297 . S
O138 C133 1.247 . S
O139 Cd128 2.439 . S
O139 C133 1.208 . S
O140 Cd141 2.223 . S
O140 C148 1.315 . S
Cd141 O140 2.223 . S
Cd141 O144 2.297 . S
Cd141 O145 2.439 . S
Cd141 O151 2.240 . S
Cd142 O143 2.240 . S
Cd142 O150 2.223 . S
Cd142 O152 2.297 . S
Cd142 O153 2.439 . S
O143 Cd142 2.240 . S
O143 C148 1.279 . S
O144 Cd141 2.297 . S
O144 C146 1.247 . S
O145 Cd141 2.439 . S
O145 C146 1.208 . S
C146 O144 1.247 . S
C146 O145 1.208 . S
C147 O152 1.247 . S
C147 O153 1.208 . S
C148 O140 1.315 . S
C148 O143 1.279 . S
C149 O150 1.315 . S
C149 O151 1.279 . S
O150 Cd142 2.223 . S
O150 C149 1.315 . S
O151 Cd141 2.240 . S
O151 C149 1.279 . S
O152 Cd142 2.297 . S
O152 C147 1.247 . S
O153 Cd142 2.439 . S
O153 C147 1.208 . S
O154 Cd155 2.223 . S
O154 C162 1.315 1_554 S
Cd155 O154 2.223 . S
Cd155 O158 2.297 . S
Cd155 O159 2.439 . S
Cd155 O165 2.240 . S
Cd156 O157 2.240 . S
Cd156 O164 2.223 . S
Cd156 O166 2.297 . S
Cd156 O167 2.439 1_556 S
O157 Cd156 2.240 . S
O157 C162 1.279 . S
O158 Cd155 2.297 . S
O158 C160 1.247 . S
O159 Cd155 2.439 . S
O159 C160 1.208 . S
C160 O158 1.247 . S
C160 O159 1.208 . S
C161 O166 1.247 1_554 S
C161 O167 1.208 . S
C162 O154 1.315 1_556 S
C162 O157 1.279 . S
C163 O164 1.315 . S
C163 O165 1.279 1_556 S
O164 Cd156 2.223 . S
O164 C163 1.315 . S
O165 Cd155 2.240 . S
O165 C163 1.279 1_554 S
O166 Cd156 2.297 . S
O166 C161 1.247 1_556 S
O167 Cd156 2.439 1_554 S
O167 C161 1.208 . S
C168 C169 1.369 . S
C168 C170 1.419 . S
C168 H172 0.930 . S
C169 C168 1.369 . S
C169 C178 1.429 . S
C170 C168 1.419 . S
C170 C171 1.363 . S
C170 H173 0.929 . S
C171 C170 1.363 . S
C171 C177 1.428 . S
H172 C168 0.930 . S
H173 C170 0.929 . S
S174 N175 1.613 . S
S174 N176 1.610 . S
N175 S174 1.613 . S
N175 C178 1.350 . S
N176 S174 1.610 . S
N176 C177 1.351 . S
C177 C171 1.428 . S
C177 N176 1.351 . S
C177 C178 1.434 . S
C178 C169 1.429 . S
C178 N175 1.350 . S
C178 C177 1.434 . S
C179 C180 1.369 . S
C179 C181 1.419 1_655 S
C179 H183 0.930 . S
C180 C179 1.369 . S
C180 C189 1.429 . S
C181 C179 1.419 1_455 S
C181 C182 1.363 . S
C181 H184 0.929 . S
C182 C181 1.363 . S
C182 C188 1.428 . S
H183 C179 0.930 . S
H184 C181 0.929 . S
S185 N186 1.613 . S
S185 N187 1.610 1_655 S
N186 S185 1.613 . S
N186 C189 1.350 . S
N187 S185 1.610 1_455 S
N187 C188 1.351 . S
C188 C182 1.428 . S
C188 N187 1.351 . S
C188 C189 1.434 1_455 S
C189 C180 1.429 . S
C189 N186 1.350 . S
C189 C188 1.434 1_655 S
C190 C191 1.369 1_554 S
C190 C192 1.419 1_565 S
C190 H194 0.930 . S
C191 C190 1.369 1_556 S
C191 C200 1.429 . S
C192 C190 1.419 1_545 S
C192 C193 1.363 . S
C192 H195 0.929 . S
C193 C192 1.363 . S
C193 C199 1.428 1_554 S
H194 C190 0.930 . S
H195 C192 0.929 . S
S196 N197 1.613 1_545 S
S196 N198 1.610 . S
N197 S196 1.613 1_565 S
N197 C200 1.350 . S
N198 S196 1.610 . S
N198 C199 1.351 . S
C199 C193 1.428 1_556 S
C199 N198 1.351 . S
C199 C200 1.434 1_545 S
C200 C191 1.429 . S
C200 N197 1.350 . S
C200 C199 1.434 1_565 S
C201 C202 1.369 . S
C201 C203 1.419 . S
C201 H205 0.930 . S
C202 C201 1.369 . S
C202 C211 1.429 . S
C203 C201 1.419 . S
C203 C204 1.363 . S
C203 H206 0.929 . S
C204 C203 1.363 . S
C204 C210 1.428 . S
H205 C201 0.930 . S
H206 C203 0.929 . S
S207 N208 1.613 . S
S207 N209 1.610 . S
N208 S207 1.613 . S
N208 C211 1.350 . S
N209 S207 1.610 . S
N209 C210 1.351 . S
C210 C204 1.428 . S
C210 N209 1.351 . S
C210 C211 1.434 . S
C211 C202 1.429 . S
C211 N208 1.350 . S
C211 C210 1.434 . S
C212 C213 1.369 . S
C212 C214 1.419 1_655 S
C212 H216 0.930 . S
C213 C212 1.369 . S
C213 C222 1.429 . S
C214 C212 1.419 1_455 S
C214 C215 1.363 . S
C214 H217 0.929 . S
C215 C214 1.363 . S
C215 C221 1.428 . S
H216 C212 0.930 . S
H217 C214 0.929 . S
S218 N219 1.613 1_455 S
S218 N220 1.610 . S
N219 S218 1.613 1_655 S
N219 C222 1.350 . S
N220 S218 1.610 . S
N220 C221 1.351 . S
C221 C215 1.428 . S
C221 N220 1.351 . S
C221 C222 1.434 1_455 S
C222 C213 1.429 . S
C222 N219 1.350 . S
C222 C221 1.434 1_655 S
C223 C224 1.369 1_556 S
C223 C225 1.419 1_565 S
C223 H227 0.930 . S
C224 C223 1.369 1_554 S
C224 C233 1.429 . S
C225 C223 1.419 1_545 S
C225 C226 1.363 . S
C225 H228 0.929 . S
C226 C225 1.363 . S
C226 C232 1.428 1_556 S
H227 C223 0.930 . S
H228 C225 0.929 . S
S229 N230 1.613 1_545 S
S229 N231 1.610 . S
N230 S229 1.613 1_565 S
N230 C233 1.350 . S
N231 S229 1.610 . S
N231 C232 1.351 . S
C232 C226 1.428 1_554 S
C232 N231 1.351 . S
C232 C233 1.434 1_545 S
C233 C224 1.429 . S
C233 N230 1.350 . S
C233 C232 1.434 1_565 S
C234 C235 1.369 . S
C234 C236 1.419 1_556 S
C234 H238 0.930 . S
C235 C234 1.369 . S
C235 C244 1.429 . S
C236 C234 1.419 1_554 S
C236 C237 1.363 . S
C236 H239 0.929 . S
C237 C236 1.363 . S
C237 C243 1.428 . S
H238 C234 0.930 . S
H239 C236 0.929 . S
S240 N241 1.613 1_554 S
S240 N242 1.610 . S
N241 S240 1.613 1_556 S
N241 C244 1.350 . S
N242 S240 1.610 . S
N242 C243 1.351 . S
C243 C237 1.428 . S
C243 N242 1.351 . S
C243 C244 1.434 1_554 S
C244 C235 1.429 . S
C244 N241 1.350 . S
C244 C243 1.434 1_556 S
C245 C246 1.369 . S
C245 C247 1.419 . S
C245 H249 0.930 . S
C246 C245 1.369 . S
C246 C255 1.429 . S
C247 C245 1.419 . S
C247 C248 1.363 . S
C247 H250 0.929 . S
C248 C247 1.363 . S
C248 C254 1.428 . S
H249 C245 0.930 . S
H250 C247 0.929 . S
S251 N252 1.613 . S
S251 N253 1.610 . S
N252 S251 1.613 . S
N252 C255 1.350 . S
N253 S251 1.610 . S
N253 C254 1.351 . S
C254 C248 1.428 . S
C254 N253 1.351 . S
C254 C255 1.434 . S
C255 C246 1.429 . S
C255 N252 1.350 . S
C255 C254 1.434 . S
C256 C257 1.369 . S
C256 C258 1.419 . S
C256 H260 0.930 . S
C257 C256 1.369 . S
C257 C266 1.429 . S
C258 C256 1.419 . S
C258 C259 1.363 . S
C258 H261 0.929 . S
C259 C258 1.363 . S
C259 C265 1.428 . S
H260 C256 0.930 . S
H261 C258 0.929 . S
S262 N263 1.613 . S
S262 N264 1.610 . S
N263 S262 1.613 . S
N263 C266 1.350 . S
N264 S262 1.610 . S
N264 C265 1.351 . S
C265 C259 1.428 . S
C265 N264 1.351 . S
C265 C266 1.434 . S
C266 C257 1.429 . S
C266 N263 1.350 . S
C266 C265 1.434 . S
C267 C268 1.369 1_556 S
C267 C269 1.419 . S
C267 H271 0.930 . S
C268 C267 1.369 1_554 S
C268 C277 1.429 . S
C269 C267 1.419 . S
C269 C270 1.363 . S
C269 H272 0.929 . S
C270 C269 1.363 . S
C270 C276 1.428 1_556 S
H271 C267 0.930 . S
H272 C269 0.929 . S
S273 N274 1.613 . S
S273 N275 1.610 . S
N274 S273 1.613 . S
N274 C277 1.350 . S
N275 S273 1.610 . S
N275 C276 1.351 . S
C276 C270 1.428 1_554 S
C276 N275 1.351 . S
C276 C277 1.434 . S
C277 C268 1.429 . S
C277 N274 1.350 . S
C277 C276 1.434 . S
C278 C279 1.369 . S
C278 C280 1.419 . S
C278 H282 0.930 . S
C279 C278 1.369 . S
C279 C288 1.429 . S
C280 C278 1.419 . S
C280 C281 1.363 . S
C280 H283 0.929 . S
C281 C280 1.363 . S
C281 C287 1.428 . S
H282 C278 0.930 . S
H283 C280 0.929 . S
S284 N285 1.613 . S
S284 N286 1.610 . S
N285 S284 1.613 . S
N285 C288 1.350 . S
N286 S284 1.610 . S
N286 C287 1.351 . S
C287 C281 1.428 . S
C287 N286 1.351 . S
C287 C288 1.434 . S
C288 C279 1.429 . S
C288 N285 1.350 . S
C288 C287 1.434 . S
C289 C290 1.369 . S
C289 C291 1.419 . S
C289 H293 0.930 . S
C290 C289 1.369 . S
C290 C299 1.429 . S
C291 C289 1.419 . S
C291 C292 1.363 . S
C291 H294 0.929 . S
C292 C291 1.363 . S
C292 C298 1.428 . S
H293 C289 0.930 . S
H294 C291 0.929 . S
S295 N296 1.613 . S
S295 N297 1.610 . S
N296 S295 1.613 . S
N296 C299 1.350 . S
N297 S295 1.610 . S
N297 C298 1.351 . S
C298 C292 1.428 . S
C298 N297 1.351 . S
C298 C299 1.434 . S
C299 C290 1.429 . S
C299 N296 1.350 . S
C299 C298 1.434 . S
C300 C301 1.369 . S
C300 C302 1.419 . S
C300 H304 0.930 . S
C301 C300 1.369 . S
C301 C310 1.429 . S
C302 C300 1.419 . S
C302 C303 1.363 . S
C302 H305 0.929 . S
C303 C302 1.363 . S
C303 C309 1.428 . S
H304 C300 0.930 . S
H305 C302 0.929 . S
S306 N307 1.613 . S
S306 N308 1.610 . S
N307 S306 1.613 . S
N307 C310 1.350 . S
N308 S306 1.610 . S
N308 C309 1.351 . S
C309 C303 1.428 . S
C309 N308 1.351 . S
C309 C310 1.434 . S
C310 C301 1.429 . S
C310 N307 1.350 . S
C310 C309 1.434 . S
C311 C312 1.369 . S
C311 C313 1.419 . S
C311 H315 0.930 . S
C312 C311 1.369 . S
C312 C321 1.429 . S
C313 C311 1.419 . S
C313 C314 1.363 . S
C313 H316 0.929 . S
C314 C313 1.363 . S
C314 C320 1.428 . S
H315 C311 0.930 . S
H316 C313 0.929 . S
S317 N318 1.613 . S
S317 N319 1.610 . S
N318 S317 1.613 . S
N318 C321 1.350 . S
N319 S317 1.610 . S
N319 C320 1.351 . S
C320 C314 1.428 . S
C320 N319 1.351 . S
C320 C321 1.434 . S
C321 C312 1.429 . S
C321 N318 1.350 . S
C321 C320 1.434 . S
C322 C323 1.369 . S
C322 C324 1.419 . S
C322 H326 0.930 . S
C323 C322 1.369 . S
C323 C332 1.429 . S
C324 C322 1.419 . S
C324 C325 1.363 . S
C324 H327 0.929 . S
C325 C324 1.363 . S
C325 C331 1.428 . S
H326 C322 0.930 . S
H327 C324 0.929 . S
S328 N329 1.613 . S
S328 N330 1.610 . S
N329 S328 1.613 . S
N329 C332 1.350 . S
N330 S328 1.610 . S
N330 C331 1.351 . S
C331 C325 1.428 . S
C331 N330 1.351 . S
C331 C332 1.434 . S
C332 C323 1.429 . S
C332 N329 1.350 . S
C332 C331 1.434 . S
C333 C334 1.369 . S
C333 C335 1.419 . S
C333 H337 0.930 . S
C334 C333 1.369 . S
C334 C343 1.429 . S
C335 C333 1.419 . S
C335 C336 1.363 . S
C335 H338 0.929 . S
C336 C335 1.363 . S
C336 C342 1.428 . S
H337 C333 0.930 . S
H338 C335 0.929 . S
S339 N340 1.613 . S
S339 N341 1.610 . S
N340 S339 1.613 . S
N340 C343 1.350 . S
N341 S339 1.610 . S
N341 C342 1.351 . S
C342 C336 1.428 . S
C342 N341 1.351 . S
C342 C343 1.434 . S
C343 C334 1.429 . S
C343 N340 1.350 . S
C343 C342 1.434 . S
C344 C345 1.369 . S
C344 C346 1.419 . S
C344 H348 0.930 . S
C345 C344 1.369 . S
C345 C354 1.429 . S
C346 C344 1.419 . S
C346 C347 1.363 . S
C346 H349 0.929 . S
C347 C346 1.363 . S
C347 C353 1.428 . S
H348 C344 0.930 . S
H349 C346 0.929 . S
S350 N351 1.613 . S
S350 N352 1.610 . S
N351 S350 1.613 . S
N351 C354 1.350 . S
N352 S350 1.610 . S
N352 C353 1.351 . S
C353 C347 1.428 . S
C353 N352 1.351 . S
C353 C354 1.434 . S
C354 C345 1.429 . S
C354 N351 1.350 . S
C354 C353 1.434 . S
C355 C356 1.369 . S
C355 C357 1.419 . S
C355 H359 0.930 . S
C356 C355 1.369 . S
C356 C365 1.429 . S
C357 C355 1.419 . S
C357 C358 1.363 . S
C357 H360 0.929 . S
C358 C357 1.363 . S
C358 C364 1.428 . S
H359 C355 0.930 . S
H360 C357 0.929 . S
S361 N362 1.613 . S
S361 N363 1.610 . S
N362 S361 1.613 . S
N362 C365 1.350 . S
N363 S361 1.610 . S
N363 C364 1.351 . S
C364 C358 1.428 . S
C364 N363 1.351 . S
C364 C365 1.434 . S
C365 C356 1.429 . S
C365 N362 1.350 . S
C365 C364 1.434 . S
C366 C367 1.369 . S
C366 C368 1.419 . S
C366 H370 0.930 . S
C367 C366 1.369 . S
C367 C376 1.429 . S
C368 C366 1.419 . S
C368 C369 1.363 . S
C368 H371 0.929 . S
C369 C368 1.363 . S
C369 C375 1.428 . S
H370 C366 0.930 . S
H371 C368 0.929 . S
S372 N373 1.613 . S
S372 N374 1.610 . S
N373 S372 1.613 . S
N373 C376 1.350 . S
N374 S372 1.610 . S
N374 C375 1.351 . S
C375 C369 1.428 . S
C375 N374 1.351 . S
C375 C376 1.434 . S
C376 C367 1.429 . S
C376 N373 1.350 . S
C376 C375 1.434 . S
C377 C378 1.369 . S
C377 C379 1.419 . S
C377 H381 0.930 . S
C378 C377 1.369 . S
C378 C387 1.429 . S
C379 C377 1.419 . S
C379 C380 1.363 . S
C379 H382 0.929 . S
C380 C379 1.363 . S
C380 C386 1.428 . S
H381 C377 0.930 . S
H382 C379 0.929 . S
S383 N384 1.613 . S
S383 N385 1.610 . S
N384 S383 1.613 . S
N384 C387 1.350 . S
N385 S383 1.610 . S
N385 C386 1.351 . S
C386 C380 1.428 . S
C386 N385 1.351 . S
C386 C387 1.434 . S
C387 C378 1.429 . S
C387 N384 1.350 . S
C387 C386 1.434 . S
C388 C389 1.369 . S
C388 C390 1.419 . S
C388 H392 0.930 . S
C389 C388 1.369 . S
C389 C398 1.429 1_554 S
C390 C388 1.419 . S
C390 C391 1.363 1_554 S
C390 H393 0.929 . S
C391 C390 1.363 1_556 S
C391 C397 1.428 . S
H392 C388 0.930 . S
H393 C390 0.929 . S
S394 N395 1.613 . S
S394 N396 1.610 . S
N395 S394 1.613 . S
N395 C398 1.350 . S
N396 S394 1.610 . S
N396 C397 1.351 . S
C397 C391 1.428 . S
C397 N396 1.351 . S
C397 C398 1.434 . S
C398 C389 1.429 1_556 S
C398 N395 1.350 . S
C398 C397 1.434 . S
C399 C400 1.369 . S
C399 C401 1.419 . S
C399 H403 0.930 . S
C400 C399 1.369 . S
C400 C409 1.429 . S
C401 C399 1.419 . S
C401 C402 1.363 . S
C401 H404 0.929 . S
C402 C401 1.363 . S
C402 C408 1.428 . S
H403 C399 0.930 . S
H404 C401 0.929 . S
S405 N406 1.613 . S
S405 N407 1.610 . S
N406 S405 1.613 . S
N406 C409 1.350 . S
N407 S405 1.610 . S
N407 C408 1.351 . S
C408 C402 1.428 . S
C408 N407 1.351 . S
C408 C409 1.434 . S
C409 C400 1.429 . S
C409 N406 1.350 . S
C409 C408 1.434 . S
C410 C411 1.369 . S
C410 C412 1.419 . S
C410 H414 0.930 . S
C411 C410 1.369 . S
C411 C420 1.429 . S
C412 C410 1.419 . S
C412 C413 1.363 . S
C412 H415 0.929 . S
C413 C412 1.363 . S
C413 C419 1.428 . S
H414 C410 0.930 . S
H415 C412 0.929 . S
S416 N417 1.613 . S
S416 N418 1.610 . S
N417 S416 1.613 . S
N417 C420 1.350 . S
N418 S416 1.610 . S
N418 C419 1.351 . S
C419 C413 1.428 . S
C419 N418 1.351 . S
C419 C420 1.434 . S
C420 C411 1.429 . S
C420 N417 1.350 . S
C420 C419 1.434 . S
C421 C422 1.369 . S
C421 C423 1.419 . S
C421 H425 0.930 . S
C422 C421 1.369 . S
C422 C431 1.429 1_556 S
C423 C421 1.419 . S
C423 C424 1.363 1_556 S
C423 H426 0.929 . S
C424 C423 1.363 1_554 S
C424 C430 1.428 . S
H425 C421 0.930 . S
H426 C423 0.929 . S
S427 N428 1.613 . S
S427 N429 1.610 . S
N428 S427 1.613 . S
N428 C431 1.350 . S
N429 S427 1.610 . S
N429 C430 1.351 . S
C430 C424 1.428 . S
C430 N429 1.351 . S
C430 C431 1.434 . S
C431 C422 1.429 1_554 S
C431 N428 1.350 . S
C431 C430 1.434 . S
C169 C7 1.471 . S
C171 C133 1.465 . S
C180 C21 1.462 . S
C182 C147 1.472 . S
C191 C35 1.474 . S
C193 C161 1.463 . S
C202 C49 1.474 . S
C204 C91 1.463 . S
C213 C105 1.472 . S
C215 C63 1.464 . S
C224 C119 1.474 . S
C226 C77 1.463 . S
C235 C146 1.489 . S
C237 C6 1.490 . S
C246 C20 1.490 . S
C248 C160 1.491 . S
C257 C34 1.489 . S
C259 C90 1.490 . S
C268 C48 1.496 . S
C270 C104 1.495 . S
C279 C62 1.495 . S
C281 C118 1.495 . S
C290 C76 1.496 . S
C292 C132 1.496 . S
C301 C148 1.550 . S
C303 C8 1.552 . S
C312 C22 1.550 . S
C314 C162 1.552 . S
C323 C36 1.553 . S
C325 C92 1.550 . S
C334 C50 1.552 . S
C336 C106 1.550 . S
C345 C64 1.552 . S
C347 C120 1.550 . S
C356 C78 1.553 . S
C358 C134 1.550 . S
C367 C9 1.694 . S
C369 C93 1.696 . S
C378 C107 1.699 . S
C380 C23 1.696 . S
C389 C37 1.697 . S
C391 C121 1.699 . S
C400 C51 1.697 . S
C402 C135 1.699 . S
C411 C65 1.697 . S
C413 C149 1.694 . S
C422 C163 1.693 . S
C424 C79 1.697 . S
