# Generated by pormake.
# Topology unl, (4)-cn, num edge types: 1
# Building blocks:
#     Node 0, Type 0, BuildingBlock: QUQFOY_clean_sbu_1, # of connection points: 4
#     Node 1, Type 0, BuildingBlock: QUQFOY_clean_sbu_1, # of connection points: 4
#     Node 2, Type 0, BuildingBlock: QUQFOY_clean_sbu_1, # of connection points: 4
#     Node 3, Type 0, BuildingBlock: QUQFOY_clean_sbu_1, # of connection points: 4
#     Node 4, Type 0, BuildingBlock: QUQFOY_clean_sbu_1, # of connection points: 4
#     Node 5, Type 0, BuildingBlock: QUQFOY_clean_sbu_1, # of connection points: 4
#     Node 6, Type 0, BuildingBlock: QUQFOY_clean_sbu_1, # of connection points: 4
#     Node 7, Type 0, BuildingBlock: QUQFOY_clean_sbu_1, # of connection points: 4
#     Node 8, Type 0, BuildingBlock: QUQFOY_clean_sbu_1, # of connection points: 4
#     Node 9, Type 0, BuildingBlock: QUQFOY_clean_sbu_1, # of connection points: 4
#     Node 10, Type 0, BuildingBlock: QUQFOY_clean_sbu_1, # of connection points: 4
#     Node 11, Type 0, BuildingBlock: QUQFOY_clean_sbu_1, # of connection points: 4
#     Node 12, Type 0, BuildingBlock: QUQFOY_clean_sbu_1, # of connection points: 4
#     Node 13, Type 0, BuildingBlock: QUQFOY_clean_sbu_1, # of connection points: 4
#     Node 14, Type 0, BuildingBlock: QUQFOY_clean_sbu_1, # of connection points: 4
#     Node 15, Type 0, BuildingBlock: QUQFOY_clean_sbu_1, # of connection points: 4
#     Node 16, Type 0, BuildingBlock: QUQFOY_clean_sbu_1, # of connection points: 4
#     Node 17, Type 0, BuildingBlock: QUQFOY_clean_sbu_1, # of connection points: 4
#     Node 18, Type 0, BuildingBlock: QUQFOY_clean_sbu_1, # of connection points: 4
#     Node 19, Type 0, BuildingBlock: QUQFOY_clean_sbu_1, # of connection points: 4
#     Node 20, Type 0, BuildingBlock: QUQFOY_clean_sbu_1, # of connection points: 4
#     Node 21, Type 0, BuildingBlock: QUQFOY_clean_sbu_1, # of connection points: 4
#     Node 22, Type 0, BuildingBlock: QUQFOY_clean_sbu_1, # of connection points: 4
#     Node 23, Type 0, BuildingBlock: QUQFOY_clean_sbu_1, # of connection points: 4
#     Node 24, Type 0, BuildingBlock: QUQFOY_clean_sbu_1, # of connection points: 4
#     Node 25, Type 0, BuildingBlock: QUQFOY_clean_sbu_1, # of connection points: 4
#     Node 26, Type 0, BuildingBlock: QUQFOY_clean_sbu_1, # of connection points: 4
#     Node 27, Type 0, BuildingBlock: QUQFOY_clean_sbu_1, # of connection points: 4
#     Node 28, Type 0, BuildingBlock: QUQFOY_clean_sbu_1, # of connection points: 4
#     Node 29, Type 0, BuildingBlock: QUQFOY_clean_sbu_1, # of connection points: 4
#     Node 30, Type 0, BuildingBlock: QUQFOY_clean_sbu_1, # of connection points: 4
#     Node 31, Type 0, BuildingBlock: QUQFOY_clean_sbu_1, # of connection points: 4
#     Node 32, Type 0, BuildingBlock: QUQFOY_clean_sbu_1, # of connection points: 4
#     Node 33, Type 0, BuildingBlock: QUQFOY_clean_sbu_1, # of connection points: 4
#     Node 34, Type 0, BuildingBlock: QUQFOY_clean_sbu_1, # of connection points: 4
#     Node 35, Type 0, BuildingBlock: QUQFOY_clean_sbu_1, # of connection points: 4
#     Edge 36, Type (0, 0), None
#     Edge 37, Type (0, 0), None
#     Edge 38, Type (0, 0), None
#     Edge 39, Type (0, 0), None
#     Edge 40, Type (0, 0), None
#     Edge 41, Type (0, 0), None
#     Edge 42, Type (0, 0), None
#     Edge 43, Type (0, 0), None
#     Edge 44, Type (0, 0), None
#     Edge 45, Type (0, 0), None
#     Edge 46, Type (0, 0), None
#     Edge 47, Type (0, 0), None
#     Edge 48, Type (0, 0), None
#     Edge 49, Type (0, 0), None
#     Edge 50, Type (0, 0), None
#     Edge 51, Type (0, 0), None
#     Edge 52, Type (0, 0), None
#     Edge 53, Type (0, 0), None
#     Edge 54, Type (0, 0), None
#     Edge 55, Type (0, 0), None
#     Edge 56, Type (0, 0), None
#     Edge 57, Type (0, 0), None
#     Edge 58, Type (0, 0), None
#     Edge 59, Type (0, 0), None
#     Edge 60, Type (0, 0), None
#     Edge 61, Type (0, 0), None
#     Edge 62, Type (0, 0), None
#     Edge 63, Type (0, 0), None
#     Edge 64, Type (0, 0), None
#     Edge 65, Type (0, 0), None
#     Edge 66, Type (0, 0), None
#     Edge 67, Type (0, 0), None
#     Edge 68, Type (0, 0), None
#     Edge 69, Type (0, 0), None
#     Edge 70, Type (0, 0), None
#     Edge 71, Type (0, 0), None
#     Edge 72, Type (0, 0), None
#     Edge 73, Type (0, 0), None
#     Edge 74, Type (0, 0), None
#     Edge 75, Type (0, 0), None
#     Edge 76, Type (0, 0), None
#     Edge 77, Type (0, 0), None
#     Edge 78, Type (0, 0), None
#     Edge 79, Type (0, 0), None
#     Edge 80, Type (0, 0), None
#     Edge 81, Type (0, 0), None
#     Edge 82, Type (0, 0), None
#     Edge 83, Type (0, 0), None
#     Edge 84, Type (0, 0), None
#     Edge 85, Type (0, 0), None
#     Edge 86, Type (0, 0), None
#     Edge 87, Type (0, 0), None
#     Edge 88, Type (0, 0), None
#     Edge 89, Type (0, 0), None
#     Edge 90, Type (0, 0), None
#     Edge 91, Type (0, 0), None
#     Edge 92, Type (0, 0), None
#     Edge 93, Type (0, 0), None
#     Edge 94, Type (0, 0), None
#     Edge 95, Type (0, 0), None
#     Edge 96, Type (0, 0), None
#     Edge 97, Type (0, 0), None
#     Edge 98, Type (0, 0), None
#     Edge 99, Type (0, 0), None
#     Edge 100, Type (0, 0), None
#     Edge 101, Type (0, 0), None
#     Edge 102, Type (0, 0), None
#     Edge 103, Type (0, 0), None
#     Edge 104, Type (0, 0), None
#     Edge 105, Type (0, 0), None
#     Edge 106, Type (0, 0), None
#     Edge 107, Type (0, 0), None
# Relax obj value: 0.030
# Max RMSD: 0.070
# Mean RMSD: 0.070
data_MOF--net-unl--node1-QUQFOY_clean_sbu_1--edge1-none
_symmetry_space_group_name_H-M    P1
_symmetry_Int_Tables_number       1
_symmetry_cell_setting            triclinic
loop_
_symmetry_equiv_pos_as_xyz
'x, y, z'
_cell_length_a     30.928789
_cell_length_b     30.930427
_cell_length_c     18.616116
_cell_angle_alpha  90.000395
_cell_angle_beta   90.00067
_cell_angle_gamma 120.00594
loop_
_atom_site_label
_atom_site_type_symbol
_atom_site_fract_x
_atom_site_fract_y
_atom_site_fract_z
_atom_type_partial_charge
O0 O 0.27298 0.22718 0.18755 0.0
Cd1 Cd 0.31252 0.21532 0.1098 0.0
Cd2 Cd 0.23574 0.12475 0.11417 0.0
O3 O 0.21635 0.14827 0.20789 0.0
O4 O 0.38511 0.25563 0.13468 0.0
O5 O 0.34098 0.17289 0.14136 0.0
C6 C 0.38232 0.21394 0.15281 0.0
C7 C 0.22276 0.04703 0.07962 0.0
C8 C 0.23558 0.19457 0.22251 0.0
C9 C 0.24851 0.18941 0.98408 0.0
O10 O 0.22128 0.15199 0.0232 0.0
O11 O 0.29225 0.22151 0.00476 0.0
O12 O 0.18642 0.05329 0.09993 0.0
O13 O 0.26764 0.08269 0.09181 0.0
O14 O 0.8901 0.06924 0.18758 0.0
Cd15 Cd 0.90197 0.12064 0.10982 0.0
Cd16 Cd 0.99254 0.13443 0.11421 0.0
O17 O 0.96902 0.09153 0.20793 0.0
O18 O 0.86166 0.1529 0.13468 0.0
O19 O 0.94439 0.19153 0.14137 0.0
C20 C 0.90334 0.19181 0.15281 0.0
C21 C 1.07026 0.19919 0.07966 0.0
C22 C 0.92271 0.06445 0.22254 0.0
C23 C 0.92789 0.08254 0.98411 0.0
O24 O 0.96531 0.09274 0.02324 0.0
O25 O 0.89579 0.09418 0.00478 0.0
O26 O 1.064 0.15658 0.09998 0.0
O27 O 1.03461 0.2084 0.09185 0.0
O28 O 1.04806 0.8443 0.18753 0.0
Cd29 Cd 0.99665 0.80475 0.10978 0.0
Cd30 Cd 0.98285 0.88152 0.11417 0.0
O31 O 1.02576 0.90091 0.20789 0.0
O32 O 0.96437 0.73218 0.13466 0.0
O33 O 0.92576 0.77629 0.14135 0.0
C34 C 0.92547 0.73496 0.1528 0.0
C35 C 0.9181 0.8945 0.07964 0.0
C36 C 1.05284 0.88169 0.2225 0.0
C37 C 1.03472 0.86876 0.98406 0.0
O38 O 1.02454 0.89598 0.02319 0.0
O39 O 1.02309 0.82502 0.00474 0.0
O40 O 0.96072 0.93084 0.09995 0.0
O41 O 0.90887 0.84962 0.09182 0.0
O42 O 0.25065 0.24951 0.31791 0.0
Cd43 Cd 0.23878 0.28905 0.39566 0.0
Cd44 Cd 0.14821 0.21226 0.39128 0.0
O45 O 0.17173 0.19287 0.29756 0.0
O46 O 0.2791 0.36163 0.37079 0.0
O47 O 0.19636 0.31751 0.36411 0.0
C48 C 0.23741 0.35884 0.35266 0.0
C49 C 0.07049 0.19929 0.42584 0.0
C50 C 0.21804 0.21211 0.28295 0.0
C51 C 0.21287 0.22503 0.52138 0.0
O52 O 0.17545 0.1978 0.48225 0.0
O53 O 0.24497 0.26877 0.5007 0.0
O54 O 0.07675 0.16294 0.40552 0.0
O55 O 0.10615 0.24417 0.41365 0.0
O56 O 0.86777 1.02459 0.31795 0.0
Cd57 Cd 0.82823 0.97318 0.39569 0.0
Cd58 Cd 0.905 0.95938 0.39131 0.0
O59 O 0.92439 1.0023 0.29759 0.0
O60 O 0.75564 0.9409 0.3708 0.0
O61 O 0.79977 0.90229 0.36412 0.0
C62 C 0.75843 0.902 0.35267 0.0
C63 C 0.91798 0.89464 0.42585 0.0
C64 C 0.90517 1.02938 0.28299 0.0
C65 C 0.89223 1.01126 0.52142 0.0
O66 O 0.91946 1.00107 0.48229 0.0
O67 O 0.84849 0.99962 0.50073 0.0
O68 O 0.95432 0.93726 0.40554 0.0
O69 O 0.8731 0.88541 0.41366 0.0
O70 O 0.0927 0.86662 0.31792 0.0
Cd71 Cd 0.14411 0.87849 0.39567 0.0
Cd72 Cd 0.1579 0.96906 0.39127 0.0
O73 O 0.11499 0.94553 0.29755 0.0
O74 O 0.17638 0.83818 0.3708 0.0
O75 O 0.215 0.92092 0.36411 0.0
C76 C 0.21528 0.87987 0.35266 0.0
C77 C 0.22266 1.04679 0.42581 0.0
C78 C 0.08792 0.89923 0.28295 0.0
C79 C 0.10602 0.90442 0.52138 0.0
O80 O 0.11621 0.94183 0.48225 0.0
O81 O 0.11765 0.87232 0.50071 0.0
O82 O 0.18004 1.04051 0.4055 0.0
O83 O 0.23188 1.01113 0.41363 0.0
O84 O 0.86777 0.86663 0.81792 0.0
Cd85 Cd 0.82823 0.87849 0.89566 0.0
Cd86 Cd 0.90502 0.96907 0.8913 0.0
O87 O 0.92441 0.94555 0.79758 0.0
O88 O 0.75564 0.83819 0.87078 0.0
O89 O 0.79977 0.92092 0.86411 0.0
C90 C 0.75843 0.87987 0.85265 0.0
C91 C 0.91799 1.04677 0.92584 0.0
C92 C 0.90518 0.89924 0.78296 0.0
C93 C 0.89223 0.90441 0.02139 0.0
O94 O 0.91947 0.94184 0.98227 0.0
O95 O 0.84849 0.87231 1.0007 0.0
O96 O 0.95435 1.04053 0.90554 0.0
O97 O 0.8731 1.01112 0.91365 0.0
O98 O 0.25064 1.02457 0.81789 0.0
Cd99 Cd 0.23878 0.97317 0.89564 0.0
Cd100 Cd 0.1482 0.95938 0.89126 0.0
O101 O 0.17173 1.00229 0.79754 0.0
O102 O 0.27909 0.9409 0.87078 0.0
O103 O 0.19635 0.90227 0.86409 0.0
C104 C 0.23741 0.902 0.85265 0.0
C105 C 0.07049 0.89463 0.92579 0.0
C106 C 0.21804 1.02936 0.78293 0.0
C107 C 0.21285 1.01125 0.02136 0.0
O108 O 0.17543 1.00106 0.98224 0.0
O109 O 0.24496 0.99962 1.00068 0.0
O110 O 0.07674 0.93723 0.90549 0.0
O111 O 0.10614 0.8854 0.91361 0.0
O112 O 0.0927 0.24951 0.81794 0.0
Cd113 Cd 0.14411 0.28906 0.89568 0.0
Cd114 Cd 0.15791 0.21228 0.8913 0.0
O115 O 0.11499 0.19289 0.79758 0.0
O116 O 0.17639 0.36164 0.8708 0.0
O117 O 0.215 0.31752 0.86411 0.0
C118 C 0.21528 0.35885 0.85266 0.0
C119 C 0.22264 0.19931 0.92582 0.0
C120 C 0.08791 0.21212 0.78297 0.0
C121 C 0.10604 0.22506 0.02141 0.0
O122 O 0.11622 0.19782 0.98228 0.0
O123 O 0.11767 0.26879 1.00072 0.0
O124 O 0.18003 0.16295 0.90552 0.0
O125 O 0.23189 0.24419 0.91364 0.0
O126 O 0.89011 0.8443 0.68757 0.0
Cd127 Cd 0.90197 0.80476 0.60982 0.0
Cd128 Cd 0.99255 0.88156 0.6142 0.0
O129 O 0.96903 0.90094 0.70791 0.0
O130 O 0.86166 0.73218 0.63469 0.0
O131 O 0.9444 0.7763 0.64138 0.0
C132 C 0.90334 0.73496 0.65282 0.0
C133 C 1.07025 0.89452 0.57965 0.0
C134 C 0.92272 0.8817 0.72253 0.0
C135 C 0.92789 0.86877 0.4841 0.0
O136 O 0.96532 0.89601 0.52322 0.0
O137 O 0.89579 0.82503 0.50478 0.0
O138 O 1.06401 0.93088 0.59996 0.0
O139 O 1.0346 0.84964 0.59184 0.0
O140 O 0.27298 0.06923 0.68753 0.0
Cd141 Cd 0.31253 0.12064 0.60979 0.0
Cd142 Cd 0.23574 0.13443 0.61417 0.0
O143 O 0.21635 0.09151 0.70788 0.0
O144 O 0.38511 0.15292 0.63468 0.0
O145 O 0.34099 0.19152 0.64136 0.0
C146 C 0.38232 0.19181 0.65282 0.0
C147 C 0.22277 0.19916 0.57964 0.0
C148 C 0.23558 0.06444 0.72249 0.0
C149 C 0.24853 0.08257 0.48406 0.0
O150 O 0.22129 0.09275 0.52318 0.0
O151 O 0.29226 0.09419 0.50475 0.0
O152 O 0.18641 0.15655 0.59993 0.0
O153 O 0.26766 0.20841 0.59182 0.0
O154 O 1.04805 0.22718 0.68756 0.0
Cd155 Cd 0.99664 0.21531 0.60982 0.0
Cd156 Cd 0.98285 0.12474 0.6142 0.0
O157 O 1.02576 0.14827 0.70792 0.0
O158 O 0.96437 0.25562 0.63469 0.0
O159 O 0.92574 0.17289 0.64138 0.0
C160 C 0.92547 0.21394 0.65282 0.0
C161 C 0.9181 0.04703 0.57968 0.0
C162 C 1.05283 0.19458 0.72253 0.0
C163 C 1.03471 0.18938 0.4841 0.0
O164 O 1.02453 0.15196 0.52322 0.0
O165 O 1.02309 0.22149 0.50478 0.0
O166 O 0.96071 0.05328 0.59998 0.0
O167 O 0.90886 0.08268 0.59186 0.0
O168 O 0.93965 0.56052 0.52088 0.0
Cd169 Cd 0.97919 0.54865 0.44313 0.0
Cd170 Cd 0.90241 0.45809 0.44751 0.0
O171 O 0.88301 0.4816 0.54123 0.0
O172 O 1.05177 0.58896 0.46801 0.0
O173 O 1.00765 0.50623 0.47469 0.0
C174 C 1.04898 0.54728 0.48614 0.0
C175 C 0.88943 0.38036 0.41295 0.0
C176 C 0.90225 0.52791 0.55584 0.0
C177 C 0.91518 0.52274 0.31741 0.0
O178 O 0.88795 0.48532 0.35654 0.0
O179 O 0.95892 0.55484 0.3381 0.0
O180 O 0.85308 0.38663 0.43326 0.0
O181 O 0.93431 0.41602 0.42514 0.0
O182 O 0.55677 0.40257 0.52091 0.0
Cd183 Cd 0.56864 0.45397 0.44315 0.0
Cd184 Cd 0.6592 0.46776 0.44754 0.0
O185 O 0.63569 0.42486 0.54127 0.0
O186 O 0.52832 0.48624 0.46801 0.0
O187 O 0.61106 0.52487 0.47471 0.0
C188 C 0.57001 0.52514 0.48615 0.0
C189 C 0.73693 0.53252 0.413 0.0
C190 C 0.58938 0.39778 0.55588 0.0
C191 C 0.59456 0.41588 0.31744 0.0
O192 O 0.63198 0.42607 0.35657 0.0
O193 O 0.56246 0.42751 0.33812 0.0
O194 O 0.73067 0.48991 0.43331 0.0
O195 O 0.70127 0.54174 0.42518 0.0
O196 O 0.71472 0.17763 0.52086 0.0
Cd197 Cd 0.66331 0.13809 0.44312 0.0
Cd198 Cd 0.64952 0.21485 0.44751 0.0
O199 O 0.69243 0.23424 0.54123 0.0
O200 O 0.63103 0.06551 0.468 0.0
O201 O 0.59242 0.10962 0.47469 0.0
C202 C 0.59214 0.0683 0.48614 0.0
C203 C 0.58477 0.22783 0.41297 0.0
C204 C 0.71951 0.21502 0.55583 0.0
C205 C 0.70139 0.20209 0.31739 0.0
O206 O 0.6912 0.22932 0.35653 0.0
O207 O 0.68976 0.15836 0.33808 0.0
O208 O 0.62738 0.26417 0.43328 0.0
O209 O 0.57554 0.18295 0.42515 0.0
O210 O 0.91731 0.58284 0.65124 0.0
Cd211 Cd 0.90545 0.62238 0.72899 0.0
Cd212 Cd 0.81488 0.5456 0.72461 0.0
O213 O 0.8384 0.52621 0.63089 0.0
O214 O 0.94576 0.69497 0.70413 0.0
O215 O 0.86303 0.65085 0.69744 0.0
C216 C 0.90408 0.69218 0.68599 0.0
C217 C 0.73716 0.53262 0.75917 0.0
C218 C 0.88471 0.54544 0.61628 0.0
C219 C 0.87953 0.55837 0.85471 0.0
O220 O 0.84211 0.53114 0.81558 0.0
O221 O 0.91163 0.60211 0.83403 0.0
O222 O 0.74342 0.49628 0.73886 0.0
O223 O 0.77282 0.5775 0.74698 0.0
O224 O 0.53444 0.35792 0.65128 0.0
Cd225 Cd 0.49489 0.30651 0.72902 0.0
Cd226 Cd 0.57166 0.29272 0.72464 0.0
O227 O 0.59106 0.33563 0.63093 0.0
O228 O 0.42231 0.27423 0.70414 0.0
O229 O 0.46643 0.23562 0.69746 0.0
C230 C 0.4251 0.23534 0.686 0.0
C231 C 0.58465 0.22797 0.75919 0.0
C232 C 0.57183 0.36271 0.61632 0.0
C233 C 0.55889 0.34459 0.85475 0.0
O234 O 0.58612 0.3344 0.81562 0.0
O235 O 0.51516 0.33296 0.83406 0.0
O236 O 0.62099 0.27059 0.73888 0.0
O237 O 0.53976 0.21874 0.747 0.0
O238 O 0.75937 0.19995 0.65125 0.0
Cd239 Cd 0.81077 0.21183 0.729 0.0
Cd240 Cd 0.82457 0.30239 0.72461 0.0
O241 O 0.78166 0.27887 0.63089 0.0
O242 O 0.84304 0.17152 0.70413 0.0
O243 O 0.88167 0.25425 0.69744 0.0
C244 C 0.88195 0.2132 0.686 0.0
C245 C 0.88932 0.38012 0.75914 0.0
C246 C 0.75458 0.23256 0.61628 0.0
C247 C 0.77269 0.23775 0.85472 0.0
O248 O 0.78288 0.27517 0.81558 0.0
O249 O 0.78432 0.20565 0.83404 0.0
O250 O 0.84671 0.37385 0.73883 0.0
O251 O 0.89855 0.34447 0.74696 0.0
O252 O 0.53444 0.19997 0.15125 0.0
Cd253 Cd 0.4949 0.21183 0.229 0.0
Cd254 Cd 0.57169 0.30241 0.22463 0.0
O255 O 0.59108 0.27888 0.13091 0.0
O256 O 0.42231 0.17152 0.20411 0.0
O257 O 0.46644 0.25425 0.19744 0.0
C258 C 0.4251 0.2132 0.18598 0.0
C259 C 0.58466 0.3801 0.25918 0.0
C260 C 0.57184 0.23258 0.1163 0.0
C261 C 0.5589 0.23775 0.35472 0.0
O262 O 0.58614 0.27517 0.31561 0.0
O263 O 0.51516 0.20564 0.33403 0.0
O264 O 0.62102 0.37386 0.23887 0.0
O265 O 0.53977 0.34446 0.24699 0.0
O266 O 0.91731 0.3579 0.15122 0.0
Cd267 Cd 0.90544 0.3065 0.22898 0.0
Cd268 Cd 0.81486 0.29271 0.22459 0.0
O269 O 0.83839 0.33562 0.13087 0.0
O270 O 0.94576 0.27423 0.20411 0.0
O271 O 0.86302 0.2356 0.19742 0.0
C272 C 0.90407 0.23533 0.18598 0.0
C273 C 0.73716 0.22796 0.25913 0.0
C274 C 0.8847 0.36269 0.11626 0.0
C275 C 0.87952 0.34458 0.35469 0.0
O276 O 0.8421 0.3344 0.31557 0.0
O277 O 0.91162 0.33296 0.33401 0.0
O278 O 0.7434 0.27056 0.23882 0.0
O279 O 0.77281 0.21873 0.24694 0.0
O280 O 0.75936 0.58284 0.15128 0.0
Cd281 Cd 0.81078 0.62239 0.22901 0.0
Cd282 Cd 0.82457 0.54561 0.22463 0.0
O283 O 0.78166 0.52623 0.13091 0.0
O284 O 0.84305 0.69497 0.20413 0.0
O285 O 0.88167 0.65085 0.19744 0.0
C286 C 0.88195 0.69218 0.18599 0.0
C287 C 0.88931 0.53264 0.25915 0.0
C288 C 0.75458 0.54545 0.11631 0.0
C289 C 0.77271 0.55839 0.35474 0.0
O290 O 0.78289 0.53116 0.31562 0.0
O291 O 0.78433 0.60212 0.33406 0.0
O292 O 0.8467 0.49629 0.23885 0.0
O293 O 0.89855 0.57753 0.24698 0.0
O294 O 0.55678 0.17763 0.0209 0.0
Cd295 Cd 0.56864 0.13809 0.94315 0.0
Cd296 Cd 0.65922 0.21489 0.94753 0.0
O297 O 0.63569 0.23428 0.04125 0.0
O298 O 0.52832 0.06551 0.96803 0.0
O299 O 0.61106 0.10963 0.97471 0.0
C300 C 0.57001 0.0683 0.98616 0.0
C301 C 0.73692 0.22785 0.91298 0.0
C302 C 0.58938 0.21504 0.05586 0.0
C303 C 0.59456 0.2021 0.81744 0.0
O304 O 0.63198 0.22934 0.85655 0.0
O305 O 0.56245 0.15837 0.83812 0.0
O306 O 0.73068 0.26422 0.93329 0.0
O307 O 0.70127 0.18297 0.92517 0.0
O308 O 0.93964 0.40256 0.02086 0.0
Cd309 Cd 0.97919 0.45397 0.94313 0.0
Cd310 Cd 0.90241 0.46776 0.9475 0.0
O311 O 0.88302 0.42485 0.04121 0.0
O312 O 1.05178 0.48625 0.96801 0.0
O313 O 1.00765 0.52486 0.97469 0.0
C314 C 1.04898 0.52515 0.98615 0.0
C315 C 0.88944 0.5325 0.91297 0.0
C316 C 0.90224 0.39777 0.05582 0.0
C317 C 0.9152 0.4159 0.8174 0.0
O318 O 0.88796 0.42608 0.85651 0.0
O319 O 0.95893 0.42753 0.83808 0.0
O320 O 0.85308 0.48989 0.93327 0.0
O321 O 0.93432 0.54174 0.92515 0.0
O322 O 0.71471 0.56051 0.0209 0.0
Cd323 Cd 0.66331 0.54865 0.94315 0.0
Cd324 Cd 0.64951 0.45807 0.94754 0.0
O325 O 0.69242 0.4816 0.04125 0.0
O326 O 0.63104 0.58896 0.96802 0.0
O327 O 0.59241 0.50622 0.97471 0.0
C328 C 0.59213 0.54727 0.98616 0.0
C329 C 0.58477 0.38037 0.91301 0.0
C330 C 0.7195 0.52791 0.05586 0.0
C331 C 0.70138 0.52271 0.81743 0.0
O332 O 0.69119 0.4853 0.85655 0.0
O333 O 0.68976 0.55482 0.83811 0.0
O334 O 0.62737 0.38661 0.93332 0.0
O335 O 0.57553 0.41601 0.92519 0.0
O336 O 0.60631 0.89385 0.85421 0.0
Cd337 Cd 0.64585 0.88199 0.77647 0.0
Cd338 Cd 0.56907 0.79142 0.78084 0.0
O339 O 0.54968 0.81493 0.87456 0.0
O340 O 0.71844 0.9223 0.80135 0.0
O341 O 0.67431 0.83956 0.80802 0.0
C342 C 0.71565 0.88061 0.81948 0.0
C343 C 0.55609 0.7137 0.74628 0.0
C344 C 0.56891 0.86124 0.88917 0.0
C345 C 0.58185 0.85607 0.65074 0.0
O346 O 0.55461 0.81865 0.68987 0.0
O347 O 0.62559 0.88817 0.67143 0.0
O348 O 0.51975 0.71996 0.76659 0.0
O349 O 0.60097 0.74935 0.75848 0.0
O350 O 0.22344 0.73591 0.85424 0.0
Cd351 Cd 0.2353 0.78731 0.77649 0.0
Cd352 Cd 0.32587 0.8011 0.78088 0.0
O353 O 0.30235 0.75819 0.8746 0.0
O354 O 0.19499 0.81957 0.80135 0.0
O355 O 0.27773 0.8582 0.80804 0.0
C356 C 0.23667 0.85848 0.81948 0.0
C357 C 0.4036 0.86585 0.74633 0.0
C358 C 0.25604 0.73112 0.88921 0.0
C359 C 0.26123 0.74921 0.65077 0.0
O360 O 0.29864 0.7594 0.68991 0.0
O361 O 0.22912 0.76085 0.67145 0.0
O362 O 0.39733 0.82325 0.76665 0.0
O363 O 0.36794 0.87507 0.75852 0.0
O364 O 0.38139 0.51096 0.85419 0.0
Cd365 Cd 0.32998 0.47142 0.77645 0.0
Cd366 Cd 0.31618 0.54819 0.78084 0.0
O367 O 0.35909 0.56758 0.87456 0.0
O368 O 0.2977 0.39884 0.80133 0.0
O369 O 0.25909 0.44296 0.80802 0.0
C370 C 0.25881 0.40163 0.81947 0.0
C371 C 0.25143 0.56117 0.7463 0.0
C372 C 0.38617 0.54835 0.88916 0.0
C373 C 0.36806 0.53542 0.65073 0.0
O374 O 0.35787 0.56265 0.68986 0.0
O375 O 0.35642 0.49169 0.67141 0.0
O376 O 0.29405 0.59751 0.76662 0.0
O377 O 0.2422 0.51629 0.75849 0.0
O378 O 0.58398 0.91618 0.98458 0.0
Cd379 Cd 0.57212 0.95571 0.06233 0.0
Cd380 Cd 0.48155 0.87893 0.05795 0.0
O381 O 0.50506 0.85954 0.96422 0.0
O382 O 0.61243 1.0283 0.03746 0.0
O383 O 0.52969 0.98418 0.03077 0.0
C384 C 0.57074 1.02551 0.01933 0.0
C385 C 0.40382 0.86596 0.0925 0.0
C386 C 0.55137 0.87878 0.94962 0.0
C387 C 0.5462 0.8917 0.18804 0.0
O388 O 0.50878 0.86447 0.14892 0.0
O389 O 0.5783 0.93544 0.16736 0.0
O390 O 0.41008 0.82961 0.07219 0.0
O391 O 0.43948 0.91083 0.08031 0.0
O392 O 0.20111 0.69125 0.98462 0.0
Cd393 Cd 0.16156 0.63984 0.06236 0.0
Cd394 Cd 0.23833 0.62605 0.05798 0.0
O395 O 0.25773 0.66896 0.96426 0.0
O396 O 0.08898 0.60756 0.03747 0.0
O397 O 0.1331 0.56896 0.03079 0.0
C398 C 0.09177 0.56867 0.01933 0.0
C399 C 0.25131 0.56131 0.09252 0.0
C400 C 0.2385 0.69604 0.94965 0.0
C401 C 0.22556 0.67792 0.18808 0.0
O402 O 0.25279 0.66774 0.14896 0.0
O403 O 0.18182 0.66629 0.1674 0.0
O404 O 0.28766 0.60392 0.07221 0.0
O405 O 0.20643 0.55207 0.08033 0.0
O406 O 0.42603 0.53329 0.98458 0.0
Cd407 Cd 0.47744 0.54516 0.06233 0.0
Cd408 Cd 0.49124 0.63572 0.05794 0.0
O409 O 0.44833 0.6122 0.96422 0.0
O410 O 0.50971 0.50485 0.03747 0.0
O411 O 0.54834 0.58758 0.03077 0.0
C412 C 0.54861 0.54654 0.01933 0.0
C413 C 0.55599 0.71345 0.09248 0.0
C414 C 0.42125 0.56589 0.94961 0.0
C415 C 0.43936 0.57109 0.18805 0.0
O416 O 0.44955 0.6085 0.14892 0.0
O417 O 0.45099 0.53898 0.16737 0.0
O418 O 0.51338 0.70718 0.07216 0.0
O419 O 0.56521 0.6778 0.08029 0.0
O420 O 0.20111 0.5333 0.48459 0.0
Cd421 Cd 0.16156 0.54516 0.56233 0.0
Cd422 Cd 0.23836 0.63574 0.55796 0.0
O423 O 0.25775 0.61222 0.46425 0.0
O424 O 0.08898 0.50485 0.53745 0.0
O425 O 0.1331 0.58759 0.53077 0.0
C426 C 0.09177 0.54654 0.51932 0.0
C427 C 0.25132 0.71344 0.59251 0.0
C428 C 0.23851 0.56591 0.44963 0.0
C429 C 0.22556 0.57108 0.68806 0.0
O430 O 0.25281 0.6085 0.64894 0.0
O431 O 0.18183 0.53897 0.66737 0.0
O432 O 0.28769 0.7072 0.57221 0.0
O433 O 0.20644 0.67779 0.58032 0.0
O434 O 0.58397 0.69123 0.48456 0.0
Cd435 Cd 0.57211 0.63983 0.56231 0.0
Cd436 Cd 0.48153 0.62604 0.55793 0.0
O437 O 0.50506 0.66895 0.46421 0.0
O438 O 0.61242 0.60757 0.53745 0.0
O439 O 0.52969 0.56894 0.53076 0.0
C440 C 0.57074 0.56866 0.51931 0.0
C441 C 0.40383 0.5613 0.59246 0.0
C442 C 0.55137 0.69602 0.44959 0.0
C443 C 0.54618 0.67792 0.68803 0.0
O444 O 0.50876 0.66773 0.6489 0.0
O445 O 0.57829 0.66629 0.66735 0.0
O446 O 0.41007 0.6039 0.57215 0.0
O447 O 0.43948 0.55207 0.58028 0.0
O448 O 0.42603 0.91618 0.48461 0.0
Cd449 Cd 0.47744 0.95572 0.56235 0.0
Cd450 Cd 0.49124 0.87894 0.55796 0.0
O451 O 0.44832 0.85956 0.46425 0.0
O452 O 0.50972 1.0283 0.53746 0.0
O453 O 0.54833 0.98419 0.53078 0.0
C454 C 0.54862 1.02551 0.51932 0.0
C455 C 0.55598 0.86598 0.59249 0.0
C456 C 0.42124 0.87878 0.44964 0.0
C457 C 0.43938 0.89173 0.68807 0.0
O458 O 0.44956 0.86449 0.64895 0.0
O459 O 0.451 0.93546 0.66739 0.0
O460 O 0.51336 0.82962 0.57218 0.0
O461 O 0.56522 0.91086 0.58031 0.0
O462 O 0.22344 0.51097 0.35423 0.0
Cd463 Cd 0.23531 0.47143 0.27649 0.0
Cd464 Cd 0.32589 0.54823 0.28086 0.0
O465 O 0.30236 0.56761 0.37458 0.0
O466 O 0.19499 0.39884 0.30136 0.0
O467 O 0.27773 0.44296 0.30804 0.0
C468 C 0.23668 0.40163 0.31949 0.0
C469 C 0.40359 0.56119 0.24632 0.0
C470 C 0.25605 0.54837 0.38919 0.0
C471 C 0.26123 0.53544 0.15077 0.0
O472 O 0.29865 0.56268 0.18989 0.0
O473 O 0.22912 0.4917 0.17145 0.0
O474 O 0.39735 0.59755 0.26662 0.0
O475 O 0.36794 0.5163 0.25851 0.0
O476 O 0.60631 0.73589 0.35419 0.0
Cd477 Cd 0.64586 0.78731 0.27646 0.0
Cd478 Cd 0.56907 0.8011 0.28083 0.0
O479 O 0.54968 0.75818 0.37455 0.0
O480 O 0.71844 0.81959 0.30135 0.0
O481 O 0.67432 0.85819 0.30803 0.0
C482 C 0.71565 0.85848 0.31948 0.0
C483 C 0.5561 0.86583 0.2463 0.0
C484 C 0.56891 0.7311 0.38915 0.0
C485 C 0.58186 0.74924 0.15073 0.0
O486 O 0.55462 0.75942 0.18985 0.0
O487 O 0.6256 0.76086 0.17142 0.0
O488 O 0.51974 0.82322 0.2666 0.0
O489 O 0.60099 0.87507 0.25849 0.0
O490 O 0.38138 0.89385 0.35423 0.0
Cd491 Cd 0.32997 0.88198 0.27648 0.0
Cd492 Cd 0.31618 0.7914 0.28087 0.0
O493 O 0.35909 0.81494 0.37459 0.0
O494 O 0.2977 0.92229 0.30135 0.0
O495 O 0.25908 0.83956 0.30804 0.0
C496 C 0.2588 0.8806 0.31949 0.0
C497 C 0.25143 0.7137 0.24635 0.0
C498 C 0.38617 0.86124 0.3892 0.0
C499 C 0.36805 0.85605 0.15076 0.0
O500 O 0.35786 0.81863 0.18989 0.0
O501 O 0.35642 0.88816 0.17144 0.0
O502 O 0.29404 0.71995 0.26665 0.0
O503 O 0.2422 0.74934 0.25852 0.0
loop_
_geom_bond_atom_site_label_1
_geom_bond_atom_site_label_2
_geom_bond_distance
_geom_bond_site_symmetry_2
_ccdc_geom_bond_type
O0 Cd1 2.223 . S
O0 C8 1.315 . S
Cd1 O0 2.223 . S
Cd1 O4 2.297 . S
Cd1 O5 2.439 . S
Cd1 O11 2.240 . S
Cd2 O3 2.240 . S
Cd2 O10 2.223 . S
Cd2 O12 2.297 . S
Cd2 O13 2.439 . S
O3 Cd2 2.240 . S
O3 C8 1.279 . S
O4 Cd1 2.297 . S
O4 C6 1.247 . S
O5 Cd1 2.439 . S
O5 C6 1.208 . S
C6 O4 1.247 . S
C6 O5 1.208 . S
C7 O12 1.247 . S
C7 O13 1.208 . S
C8 O0 1.315 . S
C8 O3 1.279 . S
C9 O10 1.315 . S
C9 O11 1.279 . S
O10 Cd2 2.223 . S
O10 C9 1.315 . S
O11 Cd1 2.240 . S
O11 C9 1.279 . S
O12 Cd2 2.297 . S
O12 C7 1.247 . S
O13 Cd2 2.439 . S
O13 C7 1.208 . S
O14 Cd15 2.223 . S
O14 C22 1.315 . S
Cd15 O14 2.223 . S
Cd15 O18 2.297 . S
Cd15 O19 2.439 . S
Cd15 O25 2.240 . S
Cd16 O17 2.240 . S
Cd16 O24 2.223 . S
Cd16 O26 2.297 . S
Cd16 O27 2.439 . S
O17 Cd16 2.240 . S
O17 C22 1.279 . S
O18 Cd15 2.297 . S
O18 C20 1.247 . S
O19 Cd15 2.439 . S
O19 C20 1.208 . S
C20 O18 1.247 . S
C20 O19 1.208 . S
C21 O26 1.247 . S
C21 O27 1.208 . S
C22 O14 1.315 . S
C22 O17 1.279 . S
C23 O24 1.315 . S
C23 O25 1.279 . S
O24 Cd16 2.223 . S
O24 C23 1.315 . S
O25 Cd15 2.240 . S
O25 C23 1.279 . S
O26 Cd16 2.297 . S
O26 C21 1.247 . S
O27 Cd16 2.439 . S
O27 C21 1.208 . S
O28 Cd29 2.223 . S
O28 C36 1.315 . S
Cd29 O28 2.223 . S
Cd29 O32 2.297 . S
Cd29 O33 2.439 . S
Cd29 O39 2.240 . S
Cd30 O31 2.240 . S
Cd30 O38 2.223 . S
Cd30 O40 2.297 . S
Cd30 O41 2.439 . S
O31 Cd30 2.240 . S
O31 C36 1.279 . S
O32 Cd29 2.297 . S
O32 C34 1.247 . S
O33 Cd29 2.439 . S
O33 C34 1.208 . S
C34 O32 1.247 . S
C34 O33 1.208 . S
C35 O40 1.247 . S
C35 O41 1.208 . S
C36 O28 1.315 . S
C36 O31 1.279 . S
C37 O38 1.315 . S
C37 O39 1.279 . S
O38 Cd30 2.223 . S
O38 C37 1.315 . S
O39 Cd29 2.240 . S
O39 C37 1.279 . S
O40 Cd30 2.297 . S
O40 C35 1.247 . S
O41 Cd30 2.439 . S
O41 C35 1.208 . S
O42 Cd43 2.223 . S
O42 C50 1.315 . S
Cd43 O42 2.223 . S
Cd43 O46 2.297 . S
Cd43 O47 2.439 . S
Cd43 O53 2.240 . S
Cd44 O45 2.240 . S
Cd44 O52 2.223 . S
Cd44 O54 2.297 . S
Cd44 O55 2.439 . S
O45 Cd44 2.240 . S
O45 C50 1.279 . S
O46 Cd43 2.297 . S
O46 C48 1.247 . S
O47 Cd43 2.439 . S
O47 C48 1.208 . S
C48 O46 1.247 . S
C48 O47 1.208 . S
C49 O54 1.247 . S
C49 O55 1.208 . S
C50 O42 1.315 . S
C50 O45 1.279 . S
C51 O52 1.315 . S
C51 O53 1.279 . S
O52 Cd44 2.223 . S
O52 C51 1.315 . S
O53 Cd43 2.240 . S
O53 C51 1.279 . S
O54 Cd44 2.297 . S
O54 C49 1.247 . S
O55 Cd44 2.439 . S
O55 C49 1.208 . S
O56 Cd57 2.223 . S
O56 C64 1.315 . S
Cd57 O56 2.223 . S
Cd57 O60 2.297 . S
Cd57 O61 2.439 . S
Cd57 O67 2.240 . S
Cd58 O59 2.240 . S
Cd58 O66 2.223 . S
Cd58 O68 2.297 . S
Cd58 O69 2.439 . S
O59 Cd58 2.240 . S
O59 C64 1.279 . S
O60 Cd57 2.297 . S
O60 C62 1.247 . S
O61 Cd57 2.439 . S
O61 C62 1.208 . S
C62 O60 1.247 . S
C62 O61 1.208 . S
C63 O68 1.247 . S
C63 O69 1.208 . S
C64 O56 1.315 . S
C64 O59 1.279 . S
C65 O66 1.315 . S
C65 O67 1.279 . S
O66 Cd58 2.223 . S
O66 C65 1.315 . S
O67 Cd57 2.240 . S
O67 C65 1.279 . S
O68 Cd58 2.297 . S
O68 C63 1.247 . S
O69 Cd58 2.439 . S
O69 C63 1.208 . S
O70 Cd71 2.223 . S
O70 C78 1.315 . S
Cd71 O70 2.223 . S
Cd71 O74 2.297 . S
Cd71 O75 2.439 . S
Cd71 O81 2.240 . S
Cd72 O73 2.240 . S
Cd72 O80 2.223 . S
Cd72 O82 2.297 . S
Cd72 O83 2.439 . S
O73 Cd72 2.240 . S
O73 C78 1.279 . S
O74 Cd71 2.297 . S
O74 C76 1.247 . S
O75 Cd71 2.439 . S
O75 C76 1.208 . S
C76 O74 1.247 . S
C76 O75 1.208 . S
C77 O82 1.247 . S
C77 O83 1.208 . S
C78 O70 1.315 . S
C78 O73 1.279 . S
C79 O80 1.315 . S
C79 O81 1.279 . S
O80 Cd72 2.223 . S
O80 C79 1.315 . S
O81 Cd71 2.240 . S
O81 C79 1.279 . S
O82 Cd72 2.297 . S
O82 C77 1.247 . S
O83 Cd72 2.439 . S
O83 C77 1.208 . S
O84 Cd85 2.223 . S
O84 C92 1.315 . S
Cd85 O84 2.223 . S
Cd85 O88 2.297 . S
Cd85 O89 2.439 . S
Cd85 O95 2.240 . S
Cd86 O87 2.240 . S
Cd86 O94 2.223 . S
Cd86 O96 2.297 . S
Cd86 O97 2.439 . S
O87 Cd86 2.240 . S
O87 C92 1.279 . S
O88 Cd85 2.297 . S
O88 C90 1.247 . S
O89 Cd85 2.439 . S
O89 C90 1.208 . S
C90 O88 1.247 . S
C90 O89 1.208 . S
C91 O96 1.247 . S
C91 O97 1.208 . S
C92 O84 1.315 . S
C92 O87 1.279 . S
C93 O94 1.315 . S
C93 O95 1.279 . S
O94 Cd86 2.223 . S
O94 C93 1.315 . S
O95 Cd85 2.240 . S
O95 C93 1.279 . S
O96 Cd86 2.297 . S
O96 C91 1.247 . S
O97 Cd86 2.439 . S
O97 C91 1.208 . S
O98 Cd99 2.223 . S
O98 C106 1.315 . S
Cd99 O98 2.223 . S
Cd99 O102 2.297 . S
Cd99 O103 2.439 . S
Cd99 O109 2.240 . S
Cd100 O101 2.240 . S
Cd100 O108 2.223 . S
Cd100 O110 2.297 . S
Cd100 O111 2.439 . S
O101 Cd100 2.240 . S
O101 C106 1.279 . S
O102 Cd99 2.297 . S
O102 C104 1.247 . S
O103 Cd99 2.439 . S
O103 C104 1.208 . S
C104 O102 1.247 . S
C104 O103 1.208 . S
C105 O110 1.247 . S
C105 O111 1.208 . S
C106 O98 1.315 . S
C106 O101 1.279 . S
C107 O108 1.315 . S
C107 O109 1.279 . S
O108 Cd100 2.223 . S
O108 C107 1.315 . S
O109 Cd99 2.240 . S
O109 C107 1.279 . S
O110 Cd100 2.297 . S
O110 C105 1.247 . S
O111 Cd100 2.439 . S
O111 C105 1.208 . S
O112 Cd113 2.223 . S
O112 C120 1.315 . S
Cd113 O112 2.223 . S
Cd113 O116 2.297 . S
Cd113 O117 2.439 . S
Cd113 O123 2.240 . S
Cd114 O115 2.240 . S
Cd114 O122 2.223 . S
Cd114 O124 2.297 . S
Cd114 O125 2.439 . S
O115 Cd114 2.240 . S
O115 C120 1.279 . S
O116 Cd113 2.297 . S
O116 C118 1.247 . S
O117 Cd113 2.439 . S
O117 C118 1.208 . S
C118 O116 1.247 . S
C118 O117 1.208 . S
C119 O124 1.247 . S
C119 O125 1.208 . S
C120 O112 1.315 . S
C120 O115 1.279 . S
C121 O122 1.315 . S
C121 O123 1.279 . S
O122 Cd114 2.223 . S
O122 C121 1.315 . S
O123 Cd113 2.240 . S
O123 C121 1.279 . S
O124 Cd114 2.297 . S
O124 C119 1.247 . S
O125 Cd114 2.439 . S
O125 C119 1.208 . S
O126 Cd127 2.223 . S
O126 C134 1.315 . S
Cd127 O126 2.223 . S
Cd127 O130 2.297 . S
Cd127 O131 2.439 . S
Cd127 O137 2.240 . S
Cd128 O129 2.240 . S
Cd128 O136 2.223 . S
Cd128 O138 2.297 . S
Cd128 O139 2.439 . S
O129 Cd128 2.240 . S
O129 C134 1.279 . S
O130 Cd127 2.297 . S
O130 C132 1.247 . S
O131 Cd127 2.439 . S
O131 C132 1.208 . S
C132 O130 1.247 . S
C132 O131 1.208 . S
C133 O138 1.247 . S
C133 O139 1.208 . S
C134 O126 1.315 . S
C134 O129 1.279 . S
C135 O136 1.315 . S
C135 O137 1.279 . S
O136 Cd128 2.223 . S
O136 C135 1.315 . S
O137 Cd127 2.240 . S
O137 C135 1.279 . S
O138 Cd128 2.297 . S
O138 C133 1.247 . S
O139 Cd128 2.439 . S
O139 C133 1.208 . S
O140 Cd141 2.223 . S
O140 C148 1.315 . S
Cd141 O140 2.223 . S
Cd141 O144 2.297 . S
Cd141 O145 2.439 . S
Cd141 O151 2.240 . S
Cd142 O143 2.240 . S
Cd142 O150 2.223 . S
Cd142 O152 2.297 . S
Cd142 O153 2.439 . S
O143 Cd142 2.240 . S
O143 C148 1.279 . S
O144 Cd141 2.297 . S
O144 C146 1.247 . S
O145 Cd141 2.439 . S
O145 C146 1.208 . S
C146 O144 1.247 . S
C146 O145 1.208 . S
C147 O152 1.247 . S
C147 O153 1.208 . S
C148 O140 1.315 . S
C148 O143 1.279 . S
C149 O150 1.315 . S
C149 O151 1.279 . S
O150 Cd142 2.223 . S
O150 C149 1.315 . S
O151 Cd141 2.240 . S
O151 C149 1.279 . S
O152 Cd142 2.297 . S
O152 C147 1.247 . S
O153 Cd142 2.439 . S
O153 C147 1.208 . S
O154 Cd155 2.223 . S
O154 C162 1.315 . S
Cd155 O154 2.223 . S
Cd155 O158 2.297 . S
Cd155 O159 2.439 . S
Cd155 O165 2.240 . S
Cd156 O157 2.240 . S
Cd156 O164 2.223 . S
Cd156 O166 2.297 . S
Cd156 O167 2.439 . S
O157 Cd156 2.240 . S
O157 C162 1.279 . S
O158 Cd155 2.297 . S
O158 C160 1.247 . S
O159 Cd155 2.439 . S
O159 C160 1.208 . S
C160 O158 1.247 . S
C160 O159 1.208 . S
C161 O166 1.247 . S
C161 O167 1.208 . S
C162 O154 1.315 . S
C162 O157 1.279 . S
C163 O164 1.315 . S
C163 O165 1.279 . S
O164 Cd156 2.223 . S
O164 C163 1.315 . S
O165 Cd155 2.240 . S
O165 C163 1.279 . S
O166 Cd156 2.297 . S
O166 C161 1.247 . S
O167 Cd156 2.439 . S
O167 C161 1.208 . S
O168 Cd169 2.223 . S
O168 C176 1.315 . S
Cd169 O168 2.223 . S
Cd169 O172 2.297 . S
Cd169 O173 2.439 . S
Cd169 O179 2.240 . S
Cd170 O171 2.240 . S
Cd170 O178 2.223 . S
Cd170 O180 2.297 . S
Cd170 O181 2.439 . S
O171 Cd170 2.240 . S
O171 C176 1.279 . S
O172 Cd169 2.297 . S
O172 C174 1.247 . S
O173 Cd169 2.439 . S
O173 C174 1.208 . S
C174 O172 1.247 . S
C174 O173 1.208 . S
C175 O180 1.247 . S
C175 O181 1.208 . S
C176 O168 1.315 . S
C176 O171 1.279 . S
C177 O178 1.315 . S
C177 O179 1.279 . S
O178 Cd170 2.223 . S
O178 C177 1.315 . S
O179 Cd169 2.240 . S
O179 C177 1.279 . S
O180 Cd170 2.297 . S
O180 C175 1.247 . S
O181 Cd170 2.439 . S
O181 C175 1.208 . S
O182 Cd183 2.223 . S
O182 C190 1.315 . S
Cd183 O182 2.223 . S
Cd183 O186 2.297 . S
Cd183 O187 2.439 . S
Cd183 O193 2.240 . S
Cd184 O185 2.240 . S
Cd184 O192 2.223 . S
Cd184 O194 2.297 . S
Cd184 O195 2.439 . S
O185 Cd184 2.240 . S
O185 C190 1.279 . S
O186 Cd183 2.297 . S
O186 C188 1.247 . S
O187 Cd183 2.439 . S
O187 C188 1.208 . S
C188 O186 1.247 . S
C188 O187 1.208 . S
C189 O194 1.247 . S
C189 O195 1.208 . S
C190 O182 1.315 . S
C190 O185 1.279 . S
C191 O192 1.315 . S
C191 O193 1.279 . S
O192 Cd184 2.223 . S
O192 C191 1.315 . S
O193 Cd183 2.240 . S
O193 C191 1.279 . S
O194 Cd184 2.297 . S
O194 C189 1.247 . S
O195 Cd184 2.439 . S
O195 C189 1.208 . S
O196 Cd197 2.223 . S
O196 C204 1.315 . S
Cd197 O196 2.223 . S
Cd197 O200 2.297 . S
Cd197 O201 2.439 . S
Cd197 O207 2.240 . S
Cd198 O199 2.240 . S
Cd198 O206 2.223 . S
Cd198 O208 2.297 . S
Cd198 O209 2.439 . S
O199 Cd198 2.240 . S
O199 C204 1.279 . S
O200 Cd197 2.297 . S
O200 C202 1.247 . S
O201 Cd197 2.439 . S
O201 C202 1.208 . S
C202 O200 1.247 . S
C202 O201 1.208 . S
C203 O208 1.247 . S
C203 O209 1.208 . S
C204 O196 1.315 . S
C204 O199 1.279 . S
C205 O206 1.315 . S
C205 O207 1.279 . S
O206 Cd198 2.223 . S
O206 C205 1.315 . S
O207 Cd197 2.240 . S
O207 C205 1.279 . S
O208 Cd198 2.297 . S
O208 C203 1.247 . S
O209 Cd198 2.439 . S
O209 C203 1.208 . S
O210 Cd211 2.223 . S
O210 C218 1.315 . S
Cd211 O210 2.223 . S
Cd211 O214 2.297 . S
Cd211 O215 2.439 . S
Cd211 O221 2.240 . S
Cd212 O213 2.240 . S
Cd212 O220 2.223 . S
Cd212 O222 2.297 . S
Cd212 O223 2.439 . S
O213 Cd212 2.240 . S
O213 C218 1.279 . S
O214 Cd211 2.297 . S
O214 C216 1.247 . S
O215 Cd211 2.439 . S
O215 C216 1.208 . S
C216 O214 1.247 . S
C216 O215 1.208 . S
C217 O222 1.247 . S
C217 O223 1.208 . S
C218 O210 1.315 . S
C218 O213 1.279 . S
C219 O220 1.315 . S
C219 O221 1.279 . S
O220 Cd212 2.223 . S
O220 C219 1.315 . S
O221 Cd211 2.240 . S
O221 C219 1.279 . S
O222 Cd212 2.297 . S
O222 C217 1.247 . S
O223 Cd212 2.439 . S
O223 C217 1.208 . S
O224 Cd225 2.223 . S
O224 C232 1.315 . S
Cd225 O224 2.223 . S
Cd225 O228 2.297 . S
Cd225 O229 2.439 . S
Cd225 O235 2.240 . S
Cd226 O227 2.240 . S
Cd226 O234 2.223 . S
Cd226 O236 2.297 . S
Cd226 O237 2.439 . S
O227 Cd226 2.240 . S
O227 C232 1.279 . S
O228 Cd225 2.297 . S
O228 C230 1.247 . S
O229 Cd225 2.439 . S
O229 C230 1.208 . S
C230 O228 1.247 . S
C230 O229 1.208 . S
C231 O236 1.247 . S
C231 O237 1.208 . S
C232 O224 1.315 . S
C232 O227 1.279 . S
C233 O234 1.315 . S
C233 O235 1.279 . S
O234 Cd226 2.223 . S
O234 C233 1.315 . S
O235 Cd225 2.240 . S
O235 C233 1.279 . S
O236 Cd226 2.297 . S
O236 C231 1.247 . S
O237 Cd226 2.439 . S
O237 C231 1.208 . S
O238 Cd239 2.223 . S
O238 C246 1.315 . S
Cd239 O238 2.223 . S
Cd239 O242 2.297 . S
Cd239 O243 2.439 . S
Cd239 O249 2.240 . S
Cd240 O241 2.240 . S
Cd240 O248 2.223 . S
Cd240 O250 2.297 . S
Cd240 O251 2.439 . S
O241 Cd240 2.240 . S
O241 C246 1.279 . S
O242 Cd239 2.297 . S
O242 C244 1.247 . S
O243 Cd239 2.439 . S
O243 C244 1.208 . S
C244 O242 1.247 . S
C244 O243 1.208 . S
C245 O250 1.247 . S
C245 O251 1.208 . S
C246 O238 1.315 . S
C246 O241 1.279 . S
C247 O248 1.315 . S
C247 O249 1.279 . S
O248 Cd240 2.223 . S
O248 C247 1.315 . S
O249 Cd239 2.240 . S
O249 C247 1.279 . S
O250 Cd240 2.297 . S
O250 C245 1.247 . S
O251 Cd240 2.439 . S
O251 C245 1.208 . S
O252 Cd253 2.223 . S
O252 C260 1.315 . S
Cd253 O252 2.223 . S
Cd253 O256 2.297 . S
Cd253 O257 2.439 . S
Cd253 O263 2.240 . S
Cd254 O255 2.240 . S
Cd254 O262 2.223 . S
Cd254 O264 2.297 . S
Cd254 O265 2.439 . S
O255 Cd254 2.240 . S
O255 C260 1.279 . S
O256 Cd253 2.297 . S
O256 C258 1.247 . S
O257 Cd253 2.439 . S
O257 C258 1.208 . S
C258 O256 1.247 . S
C258 O257 1.208 . S
C259 O264 1.247 . S
C259 O265 1.208 . S
C260 O252 1.315 . S
C260 O255 1.279 . S
C261 O262 1.315 . S
C261 O263 1.279 . S
O262 Cd254 2.223 . S
O262 C261 1.315 . S
O263 Cd253 2.240 . S
O263 C261 1.279 . S
O264 Cd254 2.297 . S
O264 C259 1.247 . S
O265 Cd254 2.439 . S
O265 C259 1.208 . S
O266 Cd267 2.223 . S
O266 C274 1.315 . S
Cd267 O266 2.223 . S
Cd267 O270 2.297 . S
Cd267 O271 2.439 . S
Cd267 O277 2.240 . S
Cd268 O269 2.240 . S
Cd268 O276 2.223 . S
Cd268 O278 2.297 . S
Cd268 O279 2.439 . S
O269 Cd268 2.240 . S
O269 C274 1.279 . S
O270 Cd267 2.297 . S
O270 C272 1.247 . S
O271 Cd267 2.439 . S
O271 C272 1.208 . S
C272 O270 1.247 . S
C272 O271 1.208 . S
C273 O278 1.247 . S
C273 O279 1.208 . S
C274 O266 1.315 . S
C274 O269 1.279 . S
C275 O276 1.315 . S
C275 O277 1.279 . S
O276 Cd268 2.223 . S
O276 C275 1.315 . S
O277 Cd267 2.240 . S
O277 C275 1.279 . S
O278 Cd268 2.297 . S
O278 C273 1.247 . S
O279 Cd268 2.439 . S
O279 C273 1.208 . S
O280 Cd281 2.223 . S
O280 C288 1.315 . S
Cd281 O280 2.223 . S
Cd281 O284 2.297 . S
Cd281 O285 2.439 . S
Cd281 O291 2.240 . S
Cd282 O283 2.240 . S
Cd282 O290 2.223 . S
Cd282 O292 2.297 . S
Cd282 O293 2.439 . S
O283 Cd282 2.240 . S
O283 C288 1.279 . S
O284 Cd281 2.297 . S
O284 C286 1.247 . S
O285 Cd281 2.439 . S
O285 C286 1.208 . S
C286 O284 1.247 . S
C286 O285 1.208 . S
C287 O292 1.247 . S
C287 O293 1.208 . S
C288 O280 1.315 . S
C288 O283 1.279 . S
C289 O290 1.315 . S
C289 O291 1.279 . S
O290 Cd282 2.223 . S
O290 C289 1.315 . S
O291 Cd281 2.240 . S
O291 C289 1.279 . S
O292 Cd282 2.297 . S
O292 C287 1.247 . S
O293 Cd282 2.439 . S
O293 C287 1.208 . S
O294 Cd295 2.223 1_554 S
O294 C302 1.315 . S
Cd295 O294 2.223 1_556 S
Cd295 O298 2.297 1_556 S
Cd295 O299 2.439 . S
Cd295 O305 2.240 . S
Cd296 O297 2.240 1_556 S
Cd296 O304 2.223 . S
Cd296 O306 2.297 . S
Cd296 O307 2.439 . S
O297 Cd296 2.240 1_554 S
O297 C302 1.279 . S
O298 Cd295 2.297 1_554 S
O298 C300 1.247 . S
O299 Cd295 2.439 . S
O299 C300 1.208 1_556 S
C300 O298 1.247 . S
C300 O299 1.208 1_554 S
C301 O306 1.247 . S
C301 O307 1.208 . S
C302 O294 1.315 . S
C302 O297 1.279 . S
C303 O304 1.315 . S
C303 O305 1.279 . S
O304 Cd296 2.223 . S
O304 C303 1.315 . S
O305 Cd295 2.240 . S
O305 C303 1.279 . S
O306 Cd296 2.297 . S
O306 C301 1.247 . S
O307 Cd296 2.439 . S
O307 C301 1.208 . S
O308 Cd309 2.223 1_554 S
O308 C316 1.315 . S
Cd309 O308 2.223 1_556 S
Cd309 O312 2.297 1_556 S
Cd309 O313 2.439 . S
Cd309 O319 2.240 . S
Cd310 O311 2.240 1_556 S
Cd310 O318 2.223 . S
Cd310 O320 2.297 . S
Cd310 O321 2.439 . S
O311 Cd310 2.240 1_554 S
O311 C316 1.279 . S
O312 Cd309 2.297 1_554 S
O312 C314 1.247 . S
O313 Cd309 2.439 . S
O313 C314 1.208 1_556 S
C314 O312 1.247 . S
C314 O313 1.208 1_554 S
C315 O320 1.247 . S
C315 O321 1.208 . S
C316 O308 1.315 . S
C316 O311 1.279 . S
C317 O318 1.315 . S
C317 O319 1.279 . S
O318 Cd310 2.223 . S
O318 C317 1.315 . S
O319 Cd309 2.240 . S
O319 C317 1.279 . S
O320 Cd310 2.297 . S
O320 C315 1.247 . S
O321 Cd310 2.439 . S
O321 C315 1.208 . S
O322 Cd323 2.223 1_554 S
O322 C330 1.315 . S
Cd323 O322 2.223 1_556 S
Cd323 O326 2.297 1_556 S
Cd323 O327 2.439 . S
Cd323 O333 2.240 . S
Cd324 O325 2.240 1_556 S
Cd324 O332 2.223 . S
Cd324 O334 2.297 . S
Cd324 O335 2.439 . S
O325 Cd324 2.240 1_554 S
O325 C330 1.279 . S
O326 Cd323 2.297 1_554 S
O326 C328 1.247 . S
O327 Cd323 2.439 . S
O327 C328 1.208 1_556 S
C328 O326 1.247 . S
C328 O327 1.208 1_554 S
C329 O334 1.247 . S
C329 O335 1.208 . S
C330 O322 1.315 . S
C330 O325 1.279 . S
C331 O332 1.315 . S
C331 O333 1.279 . S
O332 Cd324 2.223 . S
O332 C331 1.315 . S
O333 Cd323 2.240 . S
O333 C331 1.279 . S
O334 Cd324 2.297 . S
O334 C329 1.247 . S
O335 Cd324 2.439 . S
O335 C329 1.208 . S
O336 Cd337 2.223 . S
O336 C344 1.315 . S
Cd337 O336 2.223 . S
Cd337 O340 2.297 . S
Cd337 O341 2.439 . S
Cd337 O347 2.240 . S
Cd338 O339 2.240 . S
Cd338 O346 2.223 . S
Cd338 O348 2.297 . S
Cd338 O349 2.439 . S
O339 Cd338 2.240 . S
O339 C344 1.279 . S
O340 Cd337 2.297 . S
O340 C342 1.247 . S
O341 Cd337 2.439 . S
O341 C342 1.208 . S
C342 O340 1.247 . S
C342 O341 1.208 . S
C343 O348 1.247 . S
C343 O349 1.208 . S
C344 O336 1.315 . S
C344 O339 1.279 . S
C345 O346 1.315 . S
C345 O347 1.279 . S
O346 Cd338 2.223 . S
O346 C345 1.315 . S
O347 Cd337 2.240 . S
O347 C345 1.279 . S
O348 Cd338 2.297 . S
O348 C343 1.247 . S
O349 Cd338 2.439 . S
O349 C343 1.208 . S
O350 Cd351 2.223 . S
O350 C358 1.315 . S
Cd351 O350 2.223 . S
Cd351 O354 2.297 . S
Cd351 O355 2.439 . S
Cd351 O361 2.240 . S
Cd352 O353 2.240 . S
Cd352 O360 2.223 . S
Cd352 O362 2.297 . S
Cd352 O363 2.439 . S
O353 Cd352 2.240 . S
O353 C358 1.279 . S
O354 Cd351 2.297 . S
O354 C356 1.247 . S
O355 Cd351 2.439 . S
O355 C356 1.208 . S
C356 O354 1.247 . S
C356 O355 1.208 . S
C357 O362 1.247 . S
C357 O363 1.208 . S
C358 O350 1.315 . S
C358 O353 1.279 . S
C359 O360 1.315 . S
C359 O361 1.279 . S
O360 Cd352 2.223 . S
O360 C359 1.315 . S
O361 Cd351 2.240 . S
O361 C359 1.279 . S
O362 Cd352 2.297 . S
O362 C357 1.247 . S
O363 Cd352 2.439 . S
O363 C357 1.208 . S
O364 Cd365 2.223 . S
O364 C372 1.315 . S
Cd365 O364 2.223 . S
Cd365 O368 2.297 . S
Cd365 O369 2.439 . S
Cd365 O375 2.240 . S
Cd366 O367 2.240 . S
Cd366 O374 2.223 . S
Cd366 O376 2.297 . S
Cd366 O377 2.439 . S
O367 Cd366 2.240 . S
O367 C372 1.279 . S
O368 Cd365 2.297 . S
O368 C370 1.247 . S
O369 Cd365 2.439 . S
O369 C370 1.208 . S
C370 O368 1.247 . S
C370 O369 1.208 . S
C371 O376 1.247 . S
C371 O377 1.208 . S
C372 O364 1.315 . S
C372 O367 1.279 . S
C373 O374 1.315 . S
C373 O375 1.279 . S
O374 Cd366 2.223 . S
O374 C373 1.315 . S
O375 Cd365 2.240 . S
O375 C373 1.279 . S
O376 Cd366 2.297 . S
O376 C371 1.247 . S
O377 Cd366 2.439 . S
O377 C371 1.208 . S
O378 Cd379 2.223 1_556 S
O378 C386 1.315 . S
Cd379 O378 2.223 1_554 S
Cd379 O382 2.297 1_554 S
Cd379 O383 2.439 . S
Cd379 O389 2.240 . S
Cd380 O381 2.240 1_554 S
Cd380 O388 2.223 . S
Cd380 O390 2.297 . S
Cd380 O391 2.439 . S
O381 Cd380 2.240 1_556 S
O381 C386 1.279 . S
O382 Cd379 2.297 1_556 S
O382 C384 1.247 . S
O383 Cd379 2.439 . S
O383 C384 1.208 1_554 S
C384 O382 1.247 . S
C384 O383 1.208 1_556 S
C385 O390 1.247 . S
C385 O391 1.208 . S
C386 O378 1.315 . S
C386 O381 1.279 . S
C387 O388 1.315 . S
C387 O389 1.279 . S
O388 Cd380 2.223 . S
O388 C387 1.315 . S
O389 Cd379 2.240 . S
O389 C387 1.279 . S
O390 Cd380 2.297 . S
O390 C385 1.247 . S
O391 Cd380 2.439 . S
O391 C385 1.208 . S
O392 Cd393 2.223 1_556 S
O392 C400 1.315 . S
Cd393 O392 2.223 1_554 S
Cd393 O396 2.297 1_554 S
Cd393 O397 2.439 . S
Cd393 O403 2.240 . S
Cd394 O395 2.240 1_554 S
Cd394 O402 2.223 . S
Cd394 O404 2.297 . S
Cd394 O405 2.439 . S
O395 Cd394 2.240 1_556 S
O395 C400 1.279 . S
O396 Cd393 2.297 1_556 S
O396 C398 1.247 . S
O397 Cd393 2.439 . S
O397 C398 1.208 1_554 S
C398 O396 1.247 . S
C398 O397 1.208 1_556 S
C399 O404 1.247 . S
C399 O405 1.208 . S
C400 O392 1.315 . S
C400 O395 1.279 . S
C401 O402 1.315 . S
C401 O403 1.279 . S
O402 Cd394 2.223 . S
O402 C401 1.315 . S
O403 Cd393 2.240 . S
O403 C401 1.279 . S
O404 Cd394 2.297 . S
O404 C399 1.247 . S
O405 Cd394 2.439 . S
O405 C399 1.208 . S
O406 Cd407 2.223 1_556 S
O406 C414 1.315 . S
Cd407 O406 2.223 1_554 S
Cd407 O410 2.297 1_554 S
Cd407 O411 2.439 . S
Cd407 O417 2.240 . S
Cd408 O409 2.240 1_554 S
Cd408 O416 2.223 . S
Cd408 O418 2.297 . S
Cd408 O419 2.439 . S
O409 Cd408 2.240 1_556 S
O409 C414 1.279 . S
O410 Cd407 2.297 1_556 S
O410 C412 1.247 . S
O411 Cd407 2.439 . S
O411 C412 1.208 1_554 S
C412 O410 1.247 . S
C412 O411 1.208 1_556 S
C413 O418 1.247 . S
C413 O419 1.208 . S
C414 O406 1.315 . S
C414 O409 1.279 . S
C415 O416 1.315 . S
C415 O417 1.279 . S
O416 Cd408 2.223 . S
O416 C415 1.315 . S
O417 Cd407 2.240 . S
O417 C415 1.279 . S
O418 Cd408 2.297 . S
O418 C413 1.247 . S
O419 Cd408 2.439 . S
O419 C413 1.208 . S
O420 Cd421 2.223 . S
O420 C428 1.315 . S
Cd421 O420 2.223 . S
Cd421 O424 2.297 . S
Cd421 O425 2.439 . S
Cd421 O431 2.240 . S
Cd422 O423 2.240 . S
Cd422 O430 2.223 . S
Cd422 O432 2.297 . S
Cd422 O433 2.439 . S
O423 Cd422 2.240 . S
O423 C428 1.279 . S
O424 Cd421 2.297 . S
O424 C426 1.247 . S
O425 Cd421 2.439 . S
O425 C426 1.208 . S
C426 O424 1.247 . S
C426 O425 1.208 . S
C427 O432 1.247 . S
C427 O433 1.208 . S
C428 O420 1.315 . S
C428 O423 1.279 . S
C429 O430 1.315 . S
C429 O431 1.279 . S
O430 Cd422 2.223 . S
O430 C429 1.315 . S
O431 Cd421 2.240 . S
O431 C429 1.279 . S
O432 Cd422 2.297 . S
O432 C427 1.247 . S
O433 Cd422 2.439 . S
O433 C427 1.208 . S
O434 Cd435 2.223 . S
O434 C442 1.315 . S
Cd435 O434 2.223 . S
Cd435 O438 2.297 . S
Cd435 O439 2.439 . S
Cd435 O445 2.240 . S
Cd436 O437 2.240 . S
Cd436 O444 2.223 . S
Cd436 O446 2.297 . S
Cd436 O447 2.439 . S
O437 Cd436 2.240 . S
O437 C442 1.279 . S
O438 Cd435 2.297 . S
O438 C440 1.247 . S
O439 Cd435 2.439 . S
O439 C440 1.208 . S
C440 O438 1.247 . S
C440 O439 1.208 . S
C441 O446 1.247 . S
C441 O447 1.208 . S
C442 O434 1.315 . S
C442 O437 1.279 . S
C443 O444 1.315 . S
C443 O445 1.279 . S
O444 Cd436 2.223 . S
O444 C443 1.315 . S
O445 Cd435 2.240 . S
O445 C443 1.279 . S
O446 Cd436 2.297 . S
O446 C441 1.247 . S
O447 Cd436 2.439 . S
O447 C441 1.208 . S
O448 Cd449 2.223 . S
O448 C456 1.315 . S
Cd449 O448 2.223 . S
Cd449 O452 2.297 . S
Cd449 O453 2.439 . S
Cd449 O459 2.240 . S
Cd450 O451 2.240 . S
Cd450 O458 2.223 . S
Cd450 O460 2.297 . S
Cd450 O461 2.439 . S
O451 Cd450 2.240 . S
O451 C456 1.279 . S
O452 Cd449 2.297 . S
O452 C454 1.247 . S
O453 Cd449 2.439 . S
O453 C454 1.208 . S
C454 O452 1.247 . S
C454 O453 1.208 . S
C455 O460 1.247 . S
C455 O461 1.208 . S
C456 O448 1.315 . S
C456 O451 1.279 . S
C457 O458 1.315 . S
C457 O459 1.279 . S
O458 Cd450 2.223 . S
O458 C457 1.315 . S
O459 Cd449 2.240 . S
O459 C457 1.279 . S
O460 Cd450 2.297 . S
O460 C455 1.247 . S
O461 Cd450 2.439 . S
O461 C455 1.208 . S
O462 Cd463 2.223 . S
O462 C470 1.315 . S
Cd463 O462 2.223 . S
Cd463 O466 2.297 . S
Cd463 O467 2.439 . S
Cd463 O473 2.240 . S
Cd464 O465 2.240 . S
Cd464 O472 2.223 . S
Cd464 O474 2.297 . S
Cd464 O475 2.439 . S
O465 Cd464 2.240 . S
O465 C470 1.279 . S
O466 Cd463 2.297 . S
O466 C468 1.247 . S
O467 Cd463 2.439 . S
O467 C468 1.208 . S
C468 O466 1.247 . S
C468 O467 1.208 . S
C469 O474 1.247 . S
C469 O475 1.208 . S
C470 O462 1.315 . S
C470 O465 1.279 . S
C471 O472 1.315 . S
C471 O473 1.279 . S
O472 Cd464 2.223 . S
O472 C471 1.315 . S
O473 Cd463 2.240 . S
O473 C471 1.279 . S
O474 Cd464 2.297 . S
O474 C469 1.247 . S
O475 Cd464 2.439 . S
O475 C469 1.208 . S
O476 Cd477 2.223 . S
O476 C484 1.315 . S
Cd477 O476 2.223 . S
Cd477 O480 2.297 . S
Cd477 O481 2.439 . S
Cd477 O487 2.240 . S
Cd478 O479 2.240 . S
Cd478 O486 2.223 . S
Cd478 O488 2.297 . S
Cd478 O489 2.439 . S
O479 Cd478 2.240 . S
O479 C484 1.279 . S
O480 Cd477 2.297 . S
O480 C482 1.247 . S
O481 Cd477 2.439 . S
O481 C482 1.208 . S
C482 O480 1.247 . S
C482 O481 1.208 . S
C483 O488 1.247 . S
C483 O489 1.208 . S
C484 O476 1.315 . S
C484 O479 1.279 . S
C485 O486 1.315 . S
C485 O487 1.279 . S
O486 Cd478 2.223 . S
O486 C485 1.315 . S
O487 Cd477 2.240 . S
O487 C485 1.279 . S
O488 Cd478 2.297 . S
O488 C483 1.247 . S
O489 Cd478 2.439 . S
O489 C483 1.208 . S
O490 Cd491 2.223 . S
O490 C498 1.315 . S
Cd491 O490 2.223 . S
Cd491 O494 2.297 . S
Cd491 O495 2.439 . S
Cd491 O501 2.240 . S
Cd492 O493 2.240 . S
Cd492 O500 2.223 . S
Cd492 O502 2.297 . S
Cd492 O503 2.439 . S
O493 Cd492 2.240 . S
O493 C498 1.279 . S
O494 Cd491 2.297 . S
O494 C496 1.247 . S
O495 Cd491 2.439 . S
O495 C496 1.208 . S
C496 O494 1.247 . S
C496 O495 1.208 . S
C497 O502 1.247 . S
C497 O503 1.208 . S
C498 O490 1.315 . S
C498 O493 1.279 . S
C499 O500 1.315 . S
C499 O501 1.279 . S
O500 Cd492 2.223 . S
O500 C499 1.315 . S
O501 Cd491 2.240 . S
O501 C499 1.279 . S
O502 Cd492 2.297 . S
O502 C497 1.247 . S
O503 Cd492 2.439 . S
O503 C497 1.208 . S
C7 C107 1.277 1_544 S
C21 C121 1.276 1_654 S
C93 C35 1.276 1_556 S
C163 C49 1.277 1_655 S
C63 C135 1.276 . S
C77 C149 1.276 1_565 S
C23 C91 1.277 1_544 S
C37 C105 1.276 1_654 S
C119 C9 1.276 1_556 S
C133 C79 1.277 1_655 S
C51 C147 1.276 . S
C161 C65 1.276 1_545 S
C275 C175 1.276 . S
C189 C289 1.276 . S
C203 C261 1.276 . S
C331 C217 1.277 . S
C231 C303 1.276 . S
C317 C245 1.276 . S
C191 C259 1.277 . S
C273 C205 1.276 . S
C177 C287 1.276 . S
C301 C247 1.277 . S
C315 C219 1.276 . S
C329 C233 1.276 . S
C443 C343 1.277 . S
C457 C357 1.276 . S
C429 C371 1.276 . S
C385 C499 1.277 . S
C399 C471 1.276 . S
C485 C413 1.276 . S
C427 C359 1.276 . S
C373 C441 1.276 . S
C345 C455 1.276 . S
C469 C415 1.277 . S
C483 C387 1.276 . S
C497 C401 1.276 . S
C50 C8 1.841 . S
C64 C22 1.840 1_565 S
C36 C78 1.840 1_655 S
C134 C92 1.841 . S
C148 C106 1.840 1_545 S
C162 C120 1.840 1_655 S
C218 C176 1.841 . S
C232 C190 1.840 . S
C204 C246 1.840 . S
C302 C260 1.841 . S
C316 C274 1.840 . S
C330 C288 1.840 . S
C386 C344 1.841 . S
C358 C400 1.840 . S
C414 C372 1.840 . S
C428 C470 1.841 . S
C442 C484 1.840 . S
C456 C498 1.840 . S
C6 C258 1.817 . S
C272 C20 1.817 . S
C286 C34 1.817 . S
C468 C48 1.817 . S
C482 C62 1.817 . S
C496 C76 1.817 . S
C90 C342 1.817 . S
C356 C104 1.817 . S
C370 C118 1.817 . S
C132 C216 1.817 . S
C146 C230 1.817 . S
C160 C244 1.817 . S
C426 C174 1.817 1_455 S
C440 C188 1.817 . S
C202 C454 1.817 1_545 S
C300 C384 1.817 1_544 S
C314 C398 1.817 1_654 S
C328 C412 1.817 1_554 S
