# Generated by pormake.
# Topology pcl, (4)-cn, num edge types: 1
# Building blocks:
#     Node 0, Type 0, BuildingBlock: UXUYUI_clean_sbu_0, # of connection points: 4
#     Node 1, Type 0, BuildingBlock: UXUYUI_clean_sbu_0, # of connection points: 4
#     Node 2, Type 0, BuildingBlock: UXUYUI_clean_sbu_0, # of connection points: 4
#     Node 3, Type 0, BuildingBlock: UXUYUI_clean_sbu_0, # of connection points: 4
#     Node 4, Type 0, BuildingBlock: UXUYUI_clean_sbu_0, # of connection points: 4
#     Node 5, Type 0, BuildingBlock: UXUYUI_clean_sbu_0, # of connection points: 4
#     Node 6, Type 0, BuildingBlock: UXUYUI_clean_sbu_0, # of connection points: 4
#     Node 7, Type 0, BuildingBlock: UXUYUI_clean_sbu_0, # of connection points: 4
#     Node 8, Type 0, BuildingBlock: UXUYUI_clean_sbu_0, # of connection points: 4
#     Node 9, Type 0, BuildingBlock: UXUYUI_clean_sbu_0, # of connection points: 4
#     Node 10, Type 0, BuildingBlock: UXUYUI_clean_sbu_0, # of connection points: 4
#     Node 11, Type 0, BuildingBlock: UXUYUI_clean_sbu_0, # of connection points: 4
#     Node 12, Type 0, BuildingBlock: UXUYUI_clean_sbu_0, # of connection points: 4
#     Node 13, Type 0, BuildingBlock: UXUYUI_clean_sbu_0, # of connection points: 4
#     Node 14, Type 0, BuildingBlock: UXUYUI_clean_sbu_0, # of connection points: 4
#     Node 15, Type 0, BuildingBlock: UXUYUI_clean_sbu_0, # of connection points: 4
#     Edge 16, Type (0, 0), BuildingBlock: MIFKUJ_clean_linker_0, # of connection points: 2
#     Edge 17, Type (0, 0), BuildingBlock: MIFKUJ_clean_linker_0, # of connection points: 2
#     Edge 18, Type (0, 0), BuildingBlock: MIFKUJ_clean_linker_0, # of connection points: 2
#     Edge 19, Type (0, 0), BuildingBlock: MIFKUJ_clean_linker_0, # of connection points: 2
#     Edge 20, Type (0, 0), BuildingBlock: MIFKUJ_clean_linker_0, # of connection points: 2
#     Edge 21, Type (0, 0), BuildingBlock: MIFKUJ_clean_linker_0, # of connection points: 2
#     Edge 22, Type (0, 0), BuildingBlock: MIFKUJ_clean_linker_0, # of connection points: 2
#     Edge 23, Type (0, 0), BuildingBlock: MIFKUJ_clean_linker_0, # of connection points: 2
#     Edge 24, Type (0, 0), BuildingBlock: MIFKUJ_clean_linker_0, # of connection points: 2
#     Edge 25, Type (0, 0), BuildingBlock: MIFKUJ_clean_linker_0, # of connection points: 2
#     Edge 26, Type (0, 0), BuildingBlock: MIFKUJ_clean_linker_0, # of connection points: 2
#     Edge 27, Type (0, 0), BuildingBlock: MIFKUJ_clean_linker_0, # of connection points: 2
#     Edge 28, Type (0, 0), BuildingBlock: MIFKUJ_clean_linker_0, # of connection points: 2
#     Edge 29, Type (0, 0), BuildingBlock: MIFKUJ_clean_linker_0, # of connection points: 2
#     Edge 30, Type (0, 0), BuildingBlock: MIFKUJ_clean_linker_0, # of connection points: 2
#     Edge 31, Type (0, 0), BuildingBlock: MIFKUJ_clean_linker_0, # of connection points: 2
#     Edge 32, Type (0, 0), BuildingBlock: MIFKUJ_clean_linker_0, # of connection points: 2
#     Edge 33, Type (0, 0), BuildingBlock: MIFKUJ_clean_linker_0, # of connection points: 2
#     Edge 34, Type (0, 0), BuildingBlock: MIFKUJ_clean_linker_0, # of connection points: 2
#     Edge 35, Type (0, 0), BuildingBlock: MIFKUJ_clean_linker_0, # of connection points: 2
#     Edge 36, Type (0, 0), BuildingBlock: MIFKUJ_clean_linker_0, # of connection points: 2
#     Edge 37, Type (0, 0), BuildingBlock: MIFKUJ_clean_linker_0, # of connection points: 2
#     Edge 38, Type (0, 0), BuildingBlock: MIFKUJ_clean_linker_0, # of connection points: 2
#     Edge 39, Type (0, 0), BuildingBlock: MIFKUJ_clean_linker_0, # of connection points: 2
#     Edge 40, Type (0, 0), BuildingBlock: MIFKUJ_clean_linker_0, # of connection points: 2
#     Edge 41, Type (0, 0), BuildingBlock: MIFKUJ_clean_linker_0, # of connection points: 2
#     Edge 42, Type (0, 0), BuildingBlock: MIFKUJ_clean_linker_0, # of connection points: 2
#     Edge 43, Type (0, 0), BuildingBlock: MIFKUJ_clean_linker_0, # of connection points: 2
#     Edge 44, Type (0, 0), BuildingBlock: MIFKUJ_clean_linker_0, # of connection points: 2
#     Edge 45, Type (0, 0), BuildingBlock: MIFKUJ_clean_linker_0, # of connection points: 2
#     Edge 46, Type (0, 0), BuildingBlock: MIFKUJ_clean_linker_0, # of connection points: 2
#     Edge 47, Type (0, 0), BuildingBlock: MIFKUJ_clean_linker_0, # of connection points: 2
# Relax obj value: 0.133
# Max RMSD: 0.100
# Mean RMSD: 0.099
data_MOF--net-pcl--node1-UXUYUI_clean_sbu_0--edge1-MIFKUJ_clean_linker_0
_symmetry_space_group_name_H-M    P1
_symmetry_Int_Tables_number       1
_symmetry_cell_setting            triclinic
loop_
_symmetry_equiv_pos_as_xyz
'x, y, z'
_cell_length_a     75.737061
_cell_length_b     88.100848
_cell_length_c     77.858382
_cell_angle_alpha  90.001979
_cell_angle_beta   90.001337
_cell_angle_gamma 90.002958
loop_
_atom_site_label
_atom_site_type_symbol
_atom_site_fract_x
_atom_site_fract_y
_atom_site_fract_z
_atom_type_partial_charge
Li0 Li 0.18353 0.36686 0.09893 0.0
Li1 Li 0.18631 0.35479 0.07196 0.0
Li2 Li 0.18409 0.38335 0.07382 0.0
Li3 Li 0.1585 0.36579 0.07971 0.0
C4 C 0.21758 0.37225 0.09232 0.0
N5 N 0.24669 0.3775 0.11289 0.0
C6 C 0.22471 0.3605 0.10221 0.0
C7 C 0.22533 0.38665 0.09284 0.0
C8 C 0.2394 0.36339 0.11255 0.0
C9 C 0.24003 0.38907 0.10332 0.0
C10 C 0.17272 0.33341 0.08979 0.0
C11 C 0.16567 0.30951 0.07629 0.0
N12 N 0.17814 0.30255 0.08608 0.0
C13 C 0.18545 0.326 0.09975 0.0
C14 C 0.16271 0.32509 0.07801 0.0
C15 C 0.18798 0.3104 0.09769 0.0
C16 C 0.18135 0.35541 0.1326 0.0
N17 N 0.18904 0.36649 0.12304 0.0
C18 C 0.20213 0.37729 0.1482 0.0
C19 C 0.19911 0.37745 0.13051 0.0
C20 C 0.19452 0.36585 0.15836 0.0
C21 C 0.184 0.35482 0.15032 0.0
H22 H 0.17279 0.3472 0.12653 0.0
H23 H 0.20456 0.3865 0.1228 0.0
C24 C 0.19052 0.33524 0.04336 0.0
N25 N 0.19717 0.33883 0.05906 0.0
C26 C 0.19768 0.32328 0.0339 0.0
C27 C 0.21866 0.31907 0.05679 0.0
C28 C 0.21112 0.33115 0.06576 0.0
C29 C 0.2119 0.31494 0.04064 0.0
H30 H 0.17961 0.34165 0.03818 0.0
H31 H 0.21622 0.33421 0.07822 0.0
C32 C 0.16236 0.38941 0.10829 0.0
N33 N 0.15397 0.40027 0.14055 0.0
C34 C 0.1496 0.38205 0.11822 0.0
C35 C 0.17079 0.40234 0.11469 0.0
C36 C 0.14557 0.38771 0.13452 0.0
C37 C 0.16637 0.40764 0.13105 0.0
C38 C 0.1587 0.37099 0.046 0.0
C39 C 0.15589 0.38533 0.0388 0.0
C40 C 0.14782 0.35888 0.04121 0.0
C41 C 0.14211 0.38735 0.02708 0.0
C42 C 0.13417 0.36137 0.02948 0.0
N43 N 0.13162 0.37543 0.02272 0.0
C44 C 0.20407 0.40266 0.05247 0.0
C45 C 0.18112 0.41477 0.06801 0.0
C46 C 0.20833 0.41627 0.04426 0.0
N47 N 0.19064 0.40219 0.06403 0.0
C48 C 0.18492 0.42861 0.06011 0.0
C49 C 0.1986 0.42947 0.04795 0.0
H50 H 0.21131 0.39241 0.0495 0.0
H51 H 0.17027 0.41396 0.07699 0.0
C52 C 0.12502 0.35222 0.08492 0.0
N53 N 0.13342 0.36464 0.07857 0.0
C54 C 0.10663 0.35127 0.08437 0.0
C55 C 0.10587 0.376 0.07092 0.0
C56 C 0.12426 0.37655 0.07194 0.0
C57 C 0.09685 0.36323 0.0772 0.0
H58 H 0.13259 0.34309 0.09055 0.0
H59 H 0.13125 0.38648 0.06745 0.0
O60 O 0.20325 0.36966 0.08202 0.0
O61 O 0.17034 0.34875 0.09132 0.0
O62 O 0.16686 0.38378 0.09253 0.0
O63 O 0.17202 0.36884 0.05765 0.0
H64 H 0.21875 0.34937 0.1022 0.0
H65 H 0.21999 0.39589 0.08532 0.0
H66 H 0.24495 0.35444 0.12038 0.0
H67 H 0.24612 0.40017 0.10389 0.0
H68 H 0.15808 0.30296 0.06714 0.0
H69 H 0.19348 0.33224 0.10879 0.0
H70 H 0.15288 0.33061 0.07013 0.0
H71 H 0.19785 0.30454 0.10524 0.0
H72 H 0.21033 0.38604 0.15384 0.0
H73 H 0.17748 0.34603 0.1577 0.0
H74 H 0.19224 0.32068 0.02138 0.0
H75 H 0.22946 0.31286 0.06259 0.0
H76 H 0.14306 0.37197 0.11349 0.0
H77 H 0.18084 0.40806 0.10723 0.0
H78 H 0.1358 0.38208 0.1424 0.0
H79 H 0.17287 0.41757 0.13623 0.0
H80 H 0.16419 0.39483 0.04224 0.0
H81 H 0.14972 0.34773 0.04668 0.0
H82 H 0.13976 0.3984 0.02147 0.0
H83 H 0.12557 0.35212 0.02579 0.0
H84 H 0.21907 0.41645 0.03508 0.0
H85 H 0.17686 0.43841 0.0631 0.0
H86 H 0.10014 0.34125 0.08937 0.0
H87 H 0.09877 0.38557 0.06558 0.0
Li88 Li 0.81705 0.62894 0.5979 0.0
Li89 Li 0.81285 0.64419 0.57179 0.0
Li90 Li 0.81708 0.61625 0.57061 0.0
Li91 Li 0.84226 0.63266 0.57696 0.0
C92 C 0.7825 0.6276 0.5909 0.0
N93 N 0.75277 0.62725 0.61146 0.0
C94 C 0.77152 0.64033 0.59172 0.0
C95 C 0.77828 0.61465 0.60042 0.0
C96 C 0.75656 0.63994 0.60221 0.0
C97 C 0.76322 0.61471 0.61078 0.0
C98 C 0.83335 0.66229 0.59631 0.0
C99 C 0.85094 0.68507 0.59424 0.0
N100 N 0.84152 0.69131 0.60732 0.0
C101 C 0.824 0.66888 0.60988 0.0
C102 C 0.84708 0.6704 0.58855 0.0
C103 C 0.82825 0.68358 0.61519 0.0
C104 C 0.82244 0.61759 0.63105 0.0
N105 N 0.81213 0.62728 0.6219 0.0
C106 C 0.79711 0.63503 0.64747 0.0
C107 C 0.79957 0.63589 0.62971 0.0
C108 C 0.80781 0.62531 0.65728 0.0
C109 C 0.82048 0.6164 0.64882 0.0
H110 H 0.83245 0.61097 0.62459 0.0
H111 H 0.79169 0.64369 0.62225 0.0
C112 C 0.796 0.6593 0.54475 0.0
N113 N 0.80105 0.66097 0.56139 0.0
C114 C 0.78814 0.67134 0.53596 0.0
C115 C 0.7902 0.68644 0.5618 0.0
C116 C 0.79807 0.67411 0.57007 0.0
C117 C 0.7853 0.6852 0.54445 0.0
H118 H 0.79827 0.64864 0.53823 0.0
H119 H 0.80182 0.67509 0.58337 0.0
C120 C 0.83848 0.59899 0.58838 0.0
N121 N 0.84554 0.56835 0.58531 0.0
C122 C 0.85364 0.5941 0.57977 0.0
C123 C 0.82702 0.58833 0.5956 0.0
C124 C 0.85695 0.57855 0.57832 0.0
C125 C 0.83078 0.57288 0.59385 0.0
C126 C 0.83539 0.63935 0.54203 0.0
C127 C 0.83857 0.63157 0.52669 0.0
C128 C 0.83978 0.65471 0.54328 0.0
C129 C 0.84632 0.63927 0.51292 0.0
C130 C 0.84748 0.66202 0.52923 0.0
N131 N 0.85059 0.6542 0.51448 0.0
C132 C 0.7955 0.59101 0.56119 0.0
C133 C 0.82353 0.59246 0.54776 0.0
C134 C 0.79182 0.5774 0.55269 0.0
N135 N 0.81119 0.59815 0.55865 0.0
C136 C 0.82043 0.57891 0.53901 0.0
C137 C 0.8044 0.57116 0.54145 0.0
H138 H 0.78587 0.59585 0.56984 0.0
H139 H 0.83595 0.59834 0.5461 0.0
C140 C 0.87577 0.63959 0.58971 0.0
N141 N 0.86711 0.63511 0.57529 0.0
C142 C 0.8941 0.6412 0.5896 0.0
C143 C 0.89429 0.63344 0.55981 0.0
C144 C 0.87595 0.63192 0.56053 0.0
C145 C 0.9036 0.63808 0.57451 0.0
H146 H 0.86839 0.64188 0.60133 0.0
H147 H 0.86884 0.62794 0.54939 0.0
O148 O 0.7972 0.62779 0.58071 0.0
O149 O 0.8295 0.64781 0.59111 0.0
O150 O 0.83478 0.61414 0.58956 0.0
O151 O 0.82787 0.63193 0.55563 0.0
H152 H 0.77453 0.65042 0.58437 0.0
H153 H 0.78665 0.60471 0.59996 0.0
H154 H 0.74797 0.64972 0.60301 0.0
H155 H 0.75987 0.6048 0.61831 0.0
H156 H 0.8615 0.69147 0.5883 0.0
H157 H 0.81343 0.6628 0.61612 0.0
H158 H 0.85481 0.66543 0.57834 0.0
H159 H 0.82101 0.68883 0.62558 0.0
H160 H 0.78735 0.64226 0.6535 0.0
H161 H 0.82889 0.60865 0.65586 0.0
H162 H 0.78428 0.6698 0.52268 0.0
H163 H 0.78831 0.69693 0.56882 0.0
H164 H 0.86264 0.60222 0.5741 0.0
H165 H 0.81526 0.59194 0.60234 0.0
H166 H 0.86857 0.57459 0.57159 0.0
H167 H 0.82196 0.56449 0.59926 0.0
H168 H 0.83512 0.61971 0.52542 0.0
H169 H 0.83704 0.66098 0.55488 0.0
H170 H 0.84892 0.63337 0.501 0.0
H171 H 0.85092 0.67391 0.53005 0.0
H172 H 0.77922 0.57189 0.55479 0.0
H173 H 0.83062 0.57441 0.5307 0.0
H174 H 0.90075 0.64491 0.60117 0.0
H175 H 0.90114 0.63065 0.54802 0.0
Li176 Li 0.18446 0.61597 0.92986 0.0
Li177 Li 0.15817 0.6328 0.92395 0.0
Li178 Li 0.18285 0.63154 0.90408 0.0
Li179 Li 0.18606 0.64488 0.93067 0.0
C180 C 0.16294 0.60814 0.89601 0.0
N181 N 0.15604 0.59592 0.86404 0.0
C182 C 0.14799 0.6127 0.88684 0.0
C183 C 0.17433 0.59731 0.88899 0.0
C184 C 0.14474 0.60639 0.87068 0.0
C185 C 0.17062 0.59129 0.87279 0.0
C186 C 0.16017 0.62956 0.95836 0.0
C187 C 0.1383 0.64082 0.97691 0.0
N188 N 0.13509 0.62696 0.98395 0.0
C189 C 0.15675 0.61544 0.96586 0.0
C190 C 0.15098 0.64238 0.964 0.0
C191 C 0.14398 0.61436 0.97875 0.0
C192 C 0.20375 0.5976 0.95304 0.0
N193 N 0.19169 0.59754 0.94011 0.0
C194 C 0.18786 0.57074 0.94278 0.0
C195 C 0.18377 0.5845 0.93487 0.0
C196 C 0.20007 0.57044 0.95635 0.0
C197 C 0.20814 0.58409 0.96142 0.0
H198 H 0.20971 0.6082 0.957 0.0
H199 H 0.17396 0.58485 0.92479 0.0
C200 C 0.12457 0.64565 0.91817 0.0
N201 N 0.13315 0.63394 0.92586 0.0
C202 C 0.10618 0.64659 0.91887 0.0
C203 C 0.10579 0.62335 0.93536 0.0
C204 C 0.12416 0.62277 0.93414 0.0
C205 C 0.09649 0.63537 0.92762 0.0
H206 H 0.13197 0.65413 0.9112 0.0
H207 H 0.13126 0.61334 0.9397 0.0
C208 C 0.21824 0.62957 0.91171 0.0
N209 N 0.24954 0.62895 0.89354 0.0
C210 C 0.22361 0.64228 0.90233 0.0
C211 C 0.22879 0.61656 0.91191 0.0
C212 C 0.23947 0.64173 0.89319 0.0
C213 C 0.24458 0.61647 0.90264 0.0
C214 C 0.1698 0.66502 0.91068 0.0
C215 C 0.17936 0.67236 0.89776 0.0
C216 C 0.16056 0.67361 0.9228 0.0
C217 C 0.17964 0.68822 0.89729 0.0
C218 C 0.16121 0.68944 0.92192 0.0
N219 N 0.17066 0.69635 0.90929 0.0
C220 C 0.17582 0.6392 0.87011 0.0
C221 C 0.20109 0.62353 0.87252 0.0
C222 C 0.17728 0.63928 0.85226 0.0
N223 N 0.18769 0.6315 0.87987 0.0
C224 C 0.20326 0.62354 0.8547 0.0
C225 C 0.19122 0.63145 0.84426 0.0
H226 H 0.16493 0.64502 0.87621 0.0
H227 H 0.20993 0.61691 0.88039 0.0
C228 C 0.19507 0.66188 0.96009 0.0
N229 N 0.19674 0.66143 0.94271 0.0
C230 C 0.20232 0.67388 0.96947 0.0
C231 C 0.21297 0.68471 0.94291 0.0
C232 C 0.20574 0.67241 0.93409 0.0
C233 C 0.21125 0.68556 0.96083 0.0
H234 H 0.18809 0.65292 0.9667 0.0
H235 H 0.20724 0.67171 0.92035 0.0
O236 O 0.16663 0.61453 0.9116 0.0
O237 O 0.17253 0.63082 0.94563 0.0
O238 O 0.2028 0.62985 0.92079 0.0
O239 O 0.16943 0.64951 0.91142 0.0
H240 H 0.1391 0.62114 0.89207 0.0
H241 H 0.18606 0.5938 0.89586 0.0
H242 H 0.13328 0.60987 0.86339 0.0
H243 H 0.17939 0.58298 0.86713 0.0
H244 H 0.13102 0.65063 0.98134 0.0
H245 H 0.16376 0.60541 0.96168 0.0
H246 H 0.15358 0.6534 0.95845 0.0
H247 H 0.14113 0.6035 0.98461 0.0
H248 H 0.1811 0.56053 0.93868 0.0
H249 H 0.21768 0.58431 0.97179 0.0
H250 H 0.09964 0.65584 0.9123 0.0
H251 H 0.09897 0.61449 0.94236 0.0
H252 H 0.21545 0.65232 0.90181 0.0
H253 H 0.2248 0.60664 0.91914 0.0
H254 H 0.24374 0.65144 0.88577 0.0
H255 H 0.25288 0.60648 0.90265 0.0
H256 H 0.18668 0.66591 0.88833 0.0
H257 H 0.15303 0.66812 0.93282 0.0
H258 H 0.18707 0.69405 0.88743 0.0
H259 H 0.15419 0.69623 0.93127 0.0
H260 H 0.16731 0.64515 0.84484 0.0
H261 H 0.21427 0.61737 0.84923 0.0
H262 H 0.20068 0.67416 0.98329 0.0
H263 H 0.22 0.69339 0.93581 0.0
Li264 Li 0.81718 0.38272 0.4264 0.0
Li265 Li 0.84194 0.36579 0.42005 0.0
Li266 Li 0.8171 0.3682 0.39963 0.0
Li267 Li 0.8133 0.35477 0.42652 0.0
C268 C 0.83172 0.39691 0.39751 0.0
N269 N 0.82654 0.42269 0.37795 0.0
C270 C 0.84606 0.40408 0.38968 0.0
C271 C 0.81474 0.40284 0.39541 0.0
C272 C 0.84318 0.41711 0.37984 0.0
C273 C 0.8124 0.41588 0.38547 0.0
C274 C 0.83849 0.36615 0.45578 0.0
C275 C 0.85357 0.35071 0.47674 0.0
N276 N 0.85962 0.3635 0.48456 0.0
C277 C 0.84463 0.37914 0.46419 0.0
C278 C 0.84279 0.35182 0.46223 0.0
C279 C 0.85539 0.37756 0.47865 0.0
C280 C 0.7954 0.40349 0.44458 0.0
N281 N 0.81149 0.40133 0.43724 0.0
C282 C 0.82077 0.42616 0.44556 0.0
C283 C 0.82411 0.41228 0.4376 0.0
C284 C 0.80429 0.42877 0.45329 0.0
C285 C 0.7915 0.41721 0.45276 0.0
H286 H 0.78566 0.39452 0.44414 0.0
H287 H 0.83687 0.41015 0.43184 0.0
C288 C 0.87558 0.35333 0.41239 0.0
N289 N 0.86694 0.36399 0.42182 0.0
C290 C 0.89396 0.35228 0.41309 0.0
C291 C 0.89426 0.37336 0.43294 0.0
C292 C 0.87589 0.37407 0.43176 0.0
C293 C 0.90353 0.36237 0.42349 0.0
H294 H 0.86825 0.34579 0.4041 0.0
H295 H 0.8688 0.38289 0.43848 0.0
C296 C 0.78203 0.36393 0.41085 0.0
N297 N 0.75117 0.35028 0.3999 0.0
C298 C 0.78268 0.35111 0.40031 0.0
C299 C 0.76568 0.36982 0.41581 0.0
C300 C 0.76694 0.34437 0.39491 0.0
C301 C 0.75022 0.36276 0.41014 0.0
C302 C 0.83268 0.33449 0.40605 0.0
C303 C 0.82655 0.32627 0.39188 0.0
C304 C 0.84209 0.32703 0.41897 0.0
C305 C 0.82971 0.31067 0.39104 0.0
C306 C 0.84499 0.31142 0.41766 0.0
N307 N 0.83876 0.30362 0.40385 0.0
C308 C 0.82397 0.36248 0.36516 0.0
C309 C 0.7968 0.37525 0.36963 0.0
C310 C 0.82123 0.36242 0.34745 0.0
N311 N 0.81179 0.36875 0.37581 0.0
C312 C 0.79352 0.37546 0.35197 0.0
C313 C 0.80581 0.36893 0.34063 0.0
H314 H 0.83586 0.35756 0.37047 0.0
H315 H 0.7874 0.38028 0.37839 0.0
C316 C 0.79793 0.34055 0.45503 0.0
N317 N 0.8016 0.33853 0.43809 0.0
C318 C 0.7899 0.32899 0.4645 0.0
C319 C 0.78929 0.31356 0.43884 0.0
C320 C 0.79717 0.32546 0.42985 0.0
C321 C 0.78568 0.31521 0.45642 0.0
H322 H 0.80141 0.35112 0.46124 0.0
H323 H 0.79972 0.32421 0.41631 0.0
O324 O 0.83438 0.38411 0.40712 0.0
O325 O 0.82789 0.3675 0.44163 0.0
O326 O 0.79726 0.37071 0.41637 0.0
O327 O 0.82954 0.34975 0.40715 0.0
H328 H 0.85929 0.39961 0.39119 0.0
H329 H 0.80347 0.39745 0.40138 0.0
H330 H 0.85416 0.42278 0.37369 0.0
H331 H 0.79933 0.42059 0.38372 0.0
H332 H 0.85706 0.33968 0.48183 0.0
H333 H 0.84125 0.39032 0.45951 0.0
H334 H 0.83772 0.34165 0.45624 0.0
H335 H 0.86036 0.38752 0.48518 0.0
H336 H 0.83112 0.43464 0.44594 0.0
H337 H 0.7786 0.4188 0.45848 0.0
H338 H 0.90061 0.34366 0.40557 0.0
H339 H 0.90117 0.38159 0.44079 0.0
H340 H 0.79519 0.34643 0.3963 0.0
H341 H 0.76494 0.37976 0.42396 0.0
H342 H 0.76727 0.33443 0.38675 0.0
H343 H 0.73748 0.3672 0.41389 0.0
H344 H 0.81932 0.33186 0.3817 0.0
H345 H 0.84724 0.33327 0.42981 0.0
H346 H 0.82495 0.30415 0.38021 0.0
H347 H 0.85222 0.30551 0.4276 0.0
H348 H 0.83121 0.35751 0.33919 0.0
H349 H 0.78141 0.3805 0.34727 0.0
H350 H 0.78737 0.33068 0.47806 0.0
H351 H 0.78595 0.3032 0.43209 0.0
Li352 Li 0.81564 0.64487 0.92846 0.0
Li353 Li 0.81955 0.6172 0.92665 0.0
Li354 Li 0.84503 0.63486 0.92 0.0
Li355 Li 0.82006 0.63176 0.90058 0.0
C356 C 0.83625 0.63465 0.95859 0.0
N357 N 0.84513 0.64002 0.99251 0.0
C358 C 0.82705 0.62741 0.97182 0.0
C359 C 0.85015 0.64447 0.96264 0.0
C360 C 0.83168 0.63032 0.98888 0.0
C361 C 0.85439 0.64708 0.97985 0.0
C362 C 0.78506 0.62229 0.92143 0.0
C363 C 0.76545 0.60086 0.91861 0.0
N364 N 0.75485 0.60686 0.93097 0.0
C365 C 0.77393 0.62829 0.93404 0.0
C366 C 0.78075 0.60851 0.91357 0.0
C367 C 0.75873 0.6203 0.9387 0.0
C368 C 0.79712 0.67238 0.92958 0.0
N369 N 0.80364 0.66111 0.93968 0.0
C370 C 0.7932 0.67366 0.96491 0.0
C371 C 0.8017 0.66146 0.95702 0.0
C372 C 0.78648 0.68558 0.95484 0.0
C373 C 0.78846 0.68478 0.93691 0.0
H374 H 0.79872 0.67173 0.91579 0.0
H375 H 0.80672 0.65232 0.96479 0.0
C376 C 0.82459 0.58619 0.93278 0.0
N377 N 0.81425 0.59817 0.9372 0.0
C378 C 0.82243 0.57218 0.94088 0.0
C379 C 0.79876 0.58298 0.95772 0.0
C380 C 0.80144 0.59681 0.94934 0.0
C381 C 0.80951 0.5705 0.95368 0.0
H382 H 0.8348 0.58759 0.92322 0.0
H383 H 0.79359 0.60655 0.95289 0.0
C384 C 0.83855 0.66511 0.90953 0.0
N385 N 0.85391 0.69352 0.91137 0.0
C386 C 0.84235 0.67316 0.89451 0.0
C387 C 0.8424 0.67159 0.92547 0.0
C388 C 0.85018 0.68749 0.8957 0.0
C389 C 0.85019 0.68594 0.92614 0.0
C390 C 0.84106 0.60928 0.89272 0.0
C391 C 0.8561 0.61347 0.88348 0.0
C392 C 0.82958 0.59837 0.886 0.0
C393 C 0.85929 0.6068 0.8675 0.0
C394 C 0.83322 0.59198 0.86997 0.0
N395 N 0.84787 0.5963 0.86112 0.0
C396 C 0.87826 0.62785 0.93329 0.0
C397 C 0.8791 0.64662 0.91149 0.0
C398 C 0.8966 0.62831 0.93491 0.0
N399 N 0.86992 0.63697 0.92179 0.0
C400 C 0.89748 0.64746 0.91269 0.0
C401 C 0.90647 0.63817 0.92447 0.0
H402 H 0.87061 0.62016 0.94117 0.0
H403 H 0.87223 0.65343 0.90211 0.0
C404 C 0.79903 0.62607 0.87076 0.0
N405 N 0.81445 0.6319 0.87679 0.0
C406 C 0.79571 0.62571 0.85311 0.0
C407 C 0.82408 0.63757 0.84831 0.0
C408 C 0.82684 0.63768 0.86601 0.0
C409 C 0.80837 0.63148 0.84163 0.0
H410 H 0.78937 0.62161 0.87963 0.0
H411 H 0.83905 0.6421 0.87118 0.0
O412 O 0.83199 0.63178 0.94179 0.0
O413 O 0.79999 0.62994 0.9167 0.0
O414 O 0.83094 0.65105 0.90854 0.0
O415 O 0.83744 0.616 0.90815 0.0
H416 H 0.81631 0.61976 0.969 0.0
H417 H 0.85772 0.64996 0.95265 0.0
H418 H 0.82457 0.62486 0.99923 0.0
H419 H 0.86509 0.65468 0.98314 0.0
H420 H 0.76201 0.59014 0.91273 0.0
H421 H 0.77701 0.63897 0.9402 0.0
H422 H 0.78924 0.60368 0.90383 0.0
H423 H 0.75002 0.62478 0.94849 0.0
H424 H 0.79217 0.67385 0.97878 0.0
H425 H 0.78326 0.69357 0.92861 0.0
H426 H 0.8309 0.5628 0.93727 0.0
H427 H 0.78881 0.58224 0.96768 0.0
H428 H 0.83933 0.66839 0.88205 0.0
H429 H 0.8392 0.66569 0.9372 0.0
H430 H 0.85326 0.69381 0.88418 0.0
H431 H 0.85323 0.69107 0.93842 0.0
H432 H 0.8651 0.62192 0.8885 0.0
H433 H 0.8179 0.59499 0.89303 0.0
H434 H 0.87082 0.61 0.86014 0.0
H435 H 0.82438 0.58361 0.86454 0.0
H436 H 0.90297 0.62104 0.94426 0.0
H437 H 0.90459 0.65502 0.90418 0.0
H438 H 0.78336 0.62104 0.8485 0.0
H439 H 0.83433 0.64189 0.83993 0.0
Li440 Li 0.18097 0.3827 0.42785 0.0
Li441 Li 0.18355 0.35607 0.42938 0.0
Li442 Li 0.18119 0.36854 0.40119 0.0
Li443 Li 0.15504 0.36718 0.42227 0.0
C444 C 0.21647 0.37635 0.41582 0.0
N445 N 0.24946 0.38903 0.41084 0.0
C446 C 0.23015 0.37335 0.42739 0.0
C447 C 0.21967 0.38558 0.40155 0.0
C448 C 0.2467 0.37994 0.4247 0.0
C449 C 0.23641 0.39193 0.3993 0.0
C450 C 0.17432 0.3701 0.46034 0.0
C451 C 0.1691 0.37034 0.49089 0.0
N452 N 0.18668 0.37236 0.49362 0.0
C453 C 0.19232 0.3722 0.46344 0.0
C454 C 0.16259 0.36918 0.47415 0.0
C455 C 0.19832 0.37331 0.48036 0.0
C456 C 0.17367 0.40736 0.44877 0.0
N457 N 0.18672 0.40172 0.43861 0.0
C458 C 0.20467 0.42351 0.4442 0.0
C459 C 0.20208 0.40946 0.43627 0.0
C460 C 0.19125 0.4297 0.45448 0.0
C461 C 0.17562 0.4214 0.45678 0.0
H462 H 0.16158 0.40099 0.45044 0.0
H463 H 0.21228 0.40493 0.42813 0.0
C464 C 0.20947 0.33352 0.43437 0.0
N465 N 0.19419 0.33929 0.44077 0.0
C466 C 0.21733 0.32091 0.44209 0.0
C467 C 0.19369 0.32059 0.46296 0.0
C468 C 0.18619 0.33308 0.45473 0.0
C469 C 0.20944 0.31433 0.45661 0.0
H470 H 0.21545 0.33864 0.42316 0.0
H471 H 0.17385 0.33772 0.45934 0.0
C472 C 0.16141 0.39984 0.40755 0.0
N473 N 0.15677 0.43094 0.40709 0.0
C474 C 0.14662 0.40634 0.41537 0.0
C475 C 0.1737 0.40914 0.39928 0.0
C476 C 0.14454 0.42209 0.41505 0.0
C477 C 0.17117 0.42484 0.39925 0.0
C478 C 0.16773 0.33518 0.41129 0.0
C479 C 0.17995 0.32662 0.40196 0.0
C480 C 0.15621 0.32794 0.42266 0.0
C481 C 0.18052 0.3109 0.40427 0.0
C482 C 0.15719 0.3122 0.4246 0.0
N483 N 0.16923 0.30408 0.41546 0.0
C484 C 0.2005 0.35955 0.37154 0.0
C485 C 0.17682 0.37667 0.36681 0.0
C486 C 0.20422 0.35917 0.35395 0.0
N487 N 0.18694 0.36816 0.37753 0.0
C488 C 0.18013 0.37669 0.34919 0.0
C489 C 0.19394 0.36781 0.34254 0.0
H490 H 0.20837 0.35297 0.38042 0.0
H491 H 0.16606 0.38333 0.37195 0.0
C492 C 0.12139 0.37274 0.43645 0.0
N493 N 0.13025 0.36532 0.42381 0.0
C494 C 0.10299 0.37193 0.43729 0.0
C495 C 0.10331 0.35551 0.4124 0.0
C496 C 0.12167 0.35676 0.41195 0.0
C497 C 0.09367 0.36329 0.42509 0.0
H498 H 0.12862 0.37949 0.44568 0.0
H499 H 0.12913 0.35094 0.40209 0.0
O500 O 0.20027 0.36979 0.41814 0.0
O501 O 0.16809 0.369 0.44389 0.0
O502 O 0.16393 0.38447 0.40817 0.0
O503 O 0.16738 0.35063 0.40967 0.0
H504 H 0.22805 0.36597 0.4383 0.0
H505 H 0.20937 0.38787 0.39233 0.0
H506 H 0.25738 0.37777 0.4336 0.0
H507 H 0.23903 0.39917 0.38836 0.0
H508 H 0.16017 0.36963 0.50171 0.0
H509 H 0.20152 0.37303 0.45291 0.0
H510 H 0.1486 0.36757 0.47194 0.0
H511 H 0.21222 0.37495 0.48294 0.0
H512 H 0.21687 0.42963 0.44201 0.0
H513 H 0.16503 0.4257 0.46477 0.0
H514 H 0.22952 0.31644 0.43686 0.0
H515 H 0.18708 0.31569 0.47398 0.0
H516 H 0.13695 0.39932 0.42178 0.0
H517 H 0.18514 0.4043 0.39305 0.0
H518 H 0.13324 0.42729 0.42118 0.0
H519 H 0.18065 0.43218 0.39302 0.0
H520 H 0.18901 0.33208 0.39318 0.0
H521 H 0.14679 0.33444 0.43009 0.0
H522 H 0.18997 0.30414 0.39722 0.0
H523 H 0.14843 0.30645 0.43344 0.0
H524 H 0.21507 0.35227 0.34936 0.0
H525 H 0.17171 0.38334 0.34083 0.0
H526 H 0.09616 0.3783 0.44715 0.0
H527 H 0.09677 0.34849 0.40293 0.0
Li528 Li 0.81951 0.36749 0.09824 0.0
Li529 Li 0.84519 0.36492 0.07947 0.0
Li530 Li 0.81978 0.38257 0.07259 0.0
Li531 Li 0.81614 0.35498 0.06984 0.0
C532 C 0.84042 0.38968 0.10741 0.0
N533 N 0.8467 0.40166 0.13962 0.0
C534 C 0.85538 0.38529 0.11666 0.0
C535 C 0.82875 0.40028 0.11445 0.0
C536 C 0.85831 0.39146 0.13295 0.0
C537 C 0.83213 0.40616 0.13078 0.0
C538 C 0.83843 0.33441 0.08921 0.0
C539 C 0.85108 0.31386 0.07285 0.0
N540 N 0.85374 0.30597 0.08763 0.0
C541 C 0.84116 0.32604 0.10423 0.0
C542 C 0.84333 0.32823 0.07338 0.0
C543 C 0.84897 0.3117 0.10317 0.0
C544 C 0.79752 0.37244 0.12755 0.0
N545 N 0.81317 0.36682 0.12184 0.0
C546 C 0.82202 0.36078 0.15047 0.0
C547 C 0.8253 0.36096 0.13285 0.0
C548 C 0.80607 0.36667 0.15683 0.0
C549 C 0.79369 0.37251 0.14511 0.0
H550 H 0.78808 0.37697 0.1185 0.0
H551 H 0.8377 0.35672 0.12794 0.0
C552 C 0.87892 0.3727 0.06796 0.0
N553 N 0.87015 0.36291 0.0784 0.0
C554 C 0.89731 0.37224 0.0669 0.0
C555 C 0.89732 0.35166 0.08742 0.0
C556 C 0.87893 0.35257 0.08815 0.0
C557 C 0.90678 0.36162 0.07673 0.0
H558 H 0.87158 0.38096 0.06056 0.0
H559 H 0.87173 0.34515 0.09667 0.0
C560 C 0.78528 0.37743 0.07657 0.0
N561 N 0.75562 0.39336 0.06649 0.0
C562 C 0.77457 0.37186 0.06338 0.0
C563 C 0.78083 0.39103 0.08474 0.0
C564 C 0.75964 0.3801 0.05845 0.0
C565 C 0.76581 0.39895 0.07942 0.0
C566 C 0.83747 0.36564 0.04066 0.0
C567 C 0.82838 0.37275 0.02726 0.0
C568 C 0.85173 0.35612 0.03687 0.0
C569 C 0.83343 0.36995 0.0103 0.0
C570 C 0.85639 0.35362 0.01974 0.0
N571 N 0.84721 0.36051 0.00692 0.0
C572 C 0.82432 0.41386 0.0682 0.0
C573 C 0.80254 0.40346 0.04981 0.0
C574 C 0.82214 0.42816 0.0608 0.0
N575 N 0.81465 0.40186 0.06258 0.0
C576 C 0.7999 0.41757 0.04205 0.0
C577 C 0.80993 0.43012 0.0474 0.0
H578 H 0.83398 0.41229 0.07826 0.0
H579 H 0.79515 0.39373 0.04538 0.0
C580 C 0.79972 0.32657 0.06723 0.0
N581 N 0.80483 0.3388 0.05782 0.0
C582 C 0.79207 0.31402 0.05922 0.0
C583 C 0.79444 0.32709 0.03203 0.0
C584 C 0.80212 0.33937 0.04057 0.0
C585 C 0.78946 0.31413 0.04136 0.0
H586 H 0.80175 0.32652 0.08098 0.0
H587 H 0.8059 0.34931 0.0334 0.0
O588 O 0.83706 0.38345 0.09166 0.0
O589 O 0.83083 0.34848 0.09007 0.0
O590 O 0.79995 0.36953 0.08155 0.0
O591 O 0.83284 0.36845 0.05738 0.0
H592 H 0.86453 0.37708 0.11141 0.0
H593 H 0.81712 0.40381 0.10743 0.0
H594 H 0.86977 0.38809 0.14031 0.0
H595 H 0.82314 0.41429 0.13645 0.0
H596 H 0.85491 0.30895 0.06067 0.0
H597 H 0.8373 0.33057 0.11659 0.0
H598 H 0.84092 0.33437 0.06163 0.0
H599 H 0.85123 0.30513 0.1147 0.0
H600 H 0.83206 0.35641 0.15904 0.0
H601 H 0.78116 0.37702 0.14946 0.0
H602 H 0.90402 0.38034 0.05873 0.0
H603 H 0.90402 0.34321 0.09513 0.0
H604 H 0.77776 0.36131 0.05699 0.0
H605 H 0.789 0.39553 0.09493 0.0
H606 H 0.75126 0.37595 0.04822 0.0
H607 H 0.76228 0.40954 0.08554 0.0
H608 H 0.81741 0.3802 0.02989 0.0
H609 H 0.85926 0.3508 0.04699 0.0
H610 H 0.8264 0.37528 0.99982 0.0
H611 H 0.86736 0.34625 0.01665 0.0
H612 H 0.83002 0.43756 0.06545 0.0
H613 H 0.79051 0.41853 0.03161 0.0
H614 H 0.78813 0.30437 0.06695 0.0
H615 H 0.79273 0.32764 0.01824 0.0
Li616 Li 0.17902 0.63113 0.60034 0.0
Li617 Li 0.15491 0.63496 0.57991 0.0
Li618 Li 0.1805 0.61783 0.5725 0.0
Li619 Li 0.18358 0.64551 0.57268 0.0
C620 C 0.15927 0.60449 0.60255 0.0
N621 N 0.15268 0.58162 0.62602 0.0
C622 C 0.14402 0.60486 0.61266 0.0
C623 C 0.17096 0.59229 0.60412 0.0
C624 C 0.14099 0.59326 0.62453 0.0
C625 C 0.16745 0.58089 0.61612 0.0
C626 C 0.1562 0.6616 0.59668 0.0
C627 C 0.13483 0.68035 0.58782 0.0
N628 N 0.13107 0.68327 0.60458 0.0
C629 C 0.15226 0.66492 0.61381 0.0
C630 C 0.14755 0.6695 0.58358 0.0
C631 C 0.13947 0.67586 0.61754 0.0
C632 C 0.20023 0.62988 0.63096 0.0
N633 N 0.1836 0.63015 0.62436 0.0
C634 C 0.17113 0.63022 0.65253 0.0
C635 C 0.16919 0.63034 0.63474 0.0
C636 C 0.1881 0.62984 0.65973 0.0
C637 C 0.2028 0.62954 0.64875 0.0
H638 H 0.21151 0.63017 0.62247 0.0
H639 H 0.15614 0.63093 0.62916 0.0
C640 C 0.12185 0.63583 0.56292 0.0
N641 N 0.12999 0.6372 0.57839 0.0
C642 C 0.10349 0.637 0.56174 0.0
C643 C 0.10233 0.6411 0.59243 0.0
C644 C 0.12066 0.63976 0.59301 0.0
C645 C 0.09346 0.6396 0.57666 0.0
H646 H 0.12959 0.6336 0.55152 0.0
H647 H 0.12747 0.64072 0.60516 0.0
C648 C 0.21494 0.62244 0.58454 0.0
N649 N 0.24643 0.60661 0.58562 0.0
C650 C 0.22923 0.62709 0.57446 0.0
C651 C 0.21677 0.60988 0.59535 0.0
C652 C 0.24502 0.6189 0.57514 0.0
C653 C 0.23276 0.60199 0.59567 0.0
C654 C 0.17052 0.63812 0.54154 0.0
C655 C 0.18273 0.63098 0.53079 0.0
C656 C 0.16101 0.65063 0.53548 0.0
C657 C 0.18548 0.63665 0.51424 0.0
C658 C 0.16416 0.65597 0.51887 0.0
N659 N 0.17624 0.64893 0.50869 0.0
C660 C 0.17224 0.58949 0.55941 0.0
C661 C 0.20214 0.596 0.55432 0.0
C662 C 0.17435 0.57579 0.55067 0.0
N663 N 0.18602 0.59925 0.5611 0.0
C664 C 0.20486 0.58239 0.54548 0.0
C665 C 0.19081 0.57213 0.54346 0.0
H666 H 0.15951 0.59243 0.56476 0.0
H667 H 0.21278 0.60409 0.55535 0.0
C668 C 0.19137 0.67659 0.56747 0.0
N669 N 0.19514 0.6623 0.56198 0.0
C670 C 0.19885 0.68915 0.55933 0.0
C671 C 0.21449 0.67209 0.54039 0.0
C672 C 0.20663 0.65986 0.54886 0.0
C673 C 0.21051 0.68701 0.5455 0.0
H674 H 0.18245 0.67828 0.57809 0.0
H675 H 0.20963 0.64841 0.54488 0.0
O676 O 0.16245 0.61578 0.59085 0.0
O677 O 0.1685 0.65074 0.59275 0.0
O678 O 0.19933 0.63026 0.58391 0.0
O679 O 0.16778 0.63282 0.55785 0.0
H680 H 0.13467 0.61406 0.61144 0.0
H681 H 0.18252 0.59151 0.59605 0.0
H682 H 0.12932 0.5935 0.63254 0.0
H683 H 0.17644 0.57142 0.6175 0.0
H684 H 0.12796 0.68646 0.57779 0.0
H685 H 0.15905 0.65917 0.62414 0.0
H686 H 0.15057 0.6672 0.57028 0.0
H687 H 0.13625 0.67848 0.63075 0.0
H688 H 0.15946 0.63041 0.66058 0.0
H689 H 0.2161 0.62944 0.65386 0.0
H690 H 0.09721 0.63555 0.54936 0.0
H691 H 0.09519 0.64331 0.60421 0.0
H692 H 0.22816 0.63689 0.56619 0.0
H693 H 0.20604 0.60637 0.60356 0.0
H694 H 0.25615 0.62233 0.56734 0.0
H695 H 0.23433 0.59223 0.60395 0.0
H696 H 0.19018 0.62129 0.53522 0.0
H697 H 0.15128 0.65614 0.54348 0.0
H698 H 0.195 0.6313 0.50584 0.0
H699 H 0.15696 0.66568 0.51406 0.0
H700 H 0.16321 0.56815 0.5496 0.0
H701 H 0.21768 0.58012 0.53988 0.0
H702 H 0.19525 0.70042 0.56364 0.0
H703 H 0.22366 0.66986 0.53002 0.0
Li704 Li 0.68401 0.86849 0.09866 0.0
Li705 Li 0.68605 0.85498 0.07215 0.0
Li706 Li 0.68516 0.88384 0.07272 0.0
Li707 Li 0.65876 0.86753 0.07954 0.0
C708 C 0.719 0.87109 0.09019 0.0
N709 N 0.75053 0.87387 0.10774 0.0
C710 C 0.72555 0.85889 0.09973 0.0
C711 C 0.7285 0.88468 0.08949 0.0
C712 C 0.7415 0.86054 0.10855 0.0
C713 C 0.74442 0.88586 0.09847 0.0
C714 C 0.67084 0.83514 0.09251 0.0
C715 C 0.66245 0.81058 0.08152 0.0
N716 N 0.67291 0.80384 0.09349 0.0
C717 C 0.68147 0.82797 0.10475 0.0
C718 C 0.66119 0.82639 0.08085 0.0
C719 C 0.68234 0.81213 0.10503 0.0
C720 C 0.67859 0.86045 0.13291 0.0
N721 N 0.68967 0.8686 0.12274 0.0
C722 C 0.70572 0.87721 0.14735 0.0
C723 C 0.70289 0.8771 0.12962 0.0
C724 C 0.69456 0.86878 0.15818 0.0
C725 C 0.68078 0.86039 0.15069 0.0
H726 H 0.66776 0.85424 0.12721 0.0
H727 H 0.71103 0.88409 0.12146 0.0
C728 C 0.69268 0.83685 0.04292 0.0
N729 N 0.69609 0.83821 0.06 0.0
C730 C 0.69949 0.82462 0.03361 0.0
C731 C 0.7133 0.81547 0.0596 0.0
C732 C 0.70643 0.82796 0.06834 0.0
C733 C 0.70981 0.81368 0.04201 0.0
H734 H 0.68468 0.84526 0.0365 0.0
H735 H 0.70928 0.82941 0.0818 0.0
C736 C 0.66426 0.89178 0.10732 0.0
N737 N 0.65737 0.90322 0.13967 0.0
C738 C 0.64952 0.88677 0.1165 0.0
C739 C 0.67546 0.90266 0.11455 0.0
C740 C 0.64626 0.89268 0.13285 0.0
C741 C 0.67176 0.90828 0.13093 0.0
C742 C 0.65941 0.8706 0.04533 0.0
C743 C 0.65603 0.88475 0.0379 0.0
C744 C 0.64941 0.858 0.04038 0.0
C745 C 0.64255 0.88608 0.02574 0.0
C746 C 0.63603 0.85981 0.02821 0.0
N747 N 0.6329 0.87369 0.0212 0.0
C748 C 0.70241 0.90089 0.04719 0.0
C749 C 0.68716 0.91549 0.06804 0.0
C750 C 0.70676 0.91399 0.03801 0.0
N751 N 0.69264 0.90189 0.06178 0.0
C752 C 0.69139 0.92888 0.0594 0.0
C753 C 0.70109 0.92821 0.04405 0.0
H754 H 0.70642 0.88987 0.04246 0.0
H755 H 0.67907 0.91591 0.07945 0.0
C756 C 0.62496 0.85485 0.08521 0.0
N757 N 0.63367 0.8668 0.07812 0.0
C758 C 0.60657 0.8541 0.08448 0.0
C759 C 0.60642 0.87799 0.0692 0.0
C760 C 0.62481 0.8784 0.07048 0.0
C761 C 0.5971 0.86573 0.07628 0.0
H762 H 0.63229 0.84597 0.09159 0.0
H763 H 0.63201 0.888 0.06545 0.0
O764 O 0.70349 0.86972 0.08136 0.0
O765 O 0.66993 0.85065 0.09192 0.0
O766 O 0.66796 0.88577 0.09153 0.0
O767 O 0.67241 0.8691 0.05741 0.0
H768 H 0.71825 0.84839 0.1006 0.0
H769 H 0.72362 0.89421 0.08212 0.0
H770 H 0.74667 0.85124 0.1161 0.0
H771 H 0.75191 0.89631 0.09807 0.0
H772 H 0.65512 0.80368 0.07251 0.0
H773 H 0.6892 0.83454 0.11376 0.0
H774 H 0.65289 0.83174 0.07132 0.0
H775 H 0.69059 0.80643 0.11436 0.0
H776 H 0.71653 0.88386 0.15246 0.0
H777 H 0.67148 0.85409 0.15848 0.0
H778 H 0.69648 0.82362 0.02006 0.0
H779 H 0.72144 0.80738 0.06647 0.0
H780 H 0.64079 0.87827 0.11115 0.0
H781 H 0.6871 0.90647 0.10774 0.0
H782 H 0.63496 0.88885 0.14014 0.0
H783 H 0.68039 0.9166 0.13675 0.0
H784 H 0.66359 0.89463 0.04159 0.0
H785 H 0.65189 0.84697 0.04595 0.0
H786 H 0.63972 0.89697 0.01995 0.0
H787 H 0.62812 0.85017 0.02433 0.0
H788 H 0.71429 0.91303 0.02624 0.0
H789 H 0.68652 0.9396 0.06431 0.0
H790 H 0.59981 0.84448 0.09012 0.0
H791 H 0.59955 0.8873 0.06304 0.0
Li792 Li 0.31406 0.1439 0.56841 0.0
Li793 Li 0.31699 0.13212 0.59649 0.0
Li794 Li 0.34268 0.13403 0.57599 0.0
Li795 Li 0.31843 0.11578 0.57054 0.0
C796 C 0.32635 0.1656 0.58827 0.0
N797 N 0.31911 0.19632 0.58844 0.0
C798 C 0.31413 0.17154 0.59992 0.0
C799 C 0.33504 0.17529 0.57684 0.0
C800 C 0.31063 0.18711 0.59978 0.0
C801 C 0.33114 0.19078 0.57708 0.0
C802 C 0.2833 0.12166 0.58536 0.0
C803 C 0.26852 0.09997 0.59766 0.0
N804 N 0.25319 0.108 0.59817 0.0
C805 C 0.26735 0.12963 0.58583 0.0
C806 C 0.28385 0.10666 0.59118 0.0
C807 C 0.25229 0.12256 0.59242 0.0
C808 C 0.30759 0.16375 0.54042 0.0
N809 N 0.30217 0.15974 0.55642 0.0
C810 C 0.28042 0.1794 0.55637 0.0
C811 C 0.28875 0.16717 0.5644 0.0
C812 C 0.28593 0.184 0.53994 0.0
C813 C 0.29965 0.17592 0.53191 0.0
H814 H 0.31821 0.15762 0.53431 0.0
H815 H 0.28472 0.16374 0.57714 0.0
C816 C 0.32551 0.13213 0.63105 0.0
N817 N 0.31141 0.13299 0.6203 0.0
C818 C 0.32312 0.13278 0.64879 0.0
C819 C 0.29172 0.13546 0.64415 0.0
C820 C 0.29473 0.13474 0.62644 0.0
C821 C 0.30605 0.13449 0.65557 0.0
H822 H 0.33864 0.13088 0.62579 0.0
H823 H 0.28377 0.13578 0.61767 0.0
C824 C 0.34192 0.12986 0.54176 0.0
N825 N 0.36789 0.12838 0.51689 0.0
C826 C 0.34545 0.11614 0.53343 0.0
C827 C 0.35149 0.14286 0.53734 0.0
C828 C 0.35865 0.11562 0.52091 0.0
C829 C 0.36461 0.14186 0.52477 0.0
C830 C 0.34021 0.10473 0.60009 0.0
C831 C 0.3575 0.09927 0.59889 0.0
C832 C 0.3285 0.09801 0.61171 0.0
C833 C 0.36272 0.08707 0.60916 0.0
C834 C 0.33423 0.08585 0.62178 0.0
N835 N 0.35107 0.08066 0.62029 0.0
C836 C 0.37521 0.14833 0.58328 0.0
C837 C 0.37758 0.12621 0.56609 0.0
C838 C 0.39354 0.15017 0.58313 0.0
N839 N 0.36765 0.1365 0.57482 0.0
C840 C 0.39589 0.12777 0.56534 0.0
C841 C 0.40406 0.13982 0.57402 0.0
H842 H 0.36702 0.15624 0.5903 0.0
H843 H 0.37131 0.11665 0.55989 0.0
C844 C 0.29924 0.09476 0.55027 0.0
N845 N 0.31335 0.0964 0.5609 0.0
C846 C 0.29591 0.08079 0.54236 0.0
C847 C 0.3215 0.07048 0.55676 0.0
C848 C 0.32441 0.08463 0.56423 0.0
C849 C 0.30722 0.06842 0.54546 0.0
H850 H 0.29076 0.10438 0.54772 0.0
H851 H 0.33571 0.08626 0.57245 0.0
O852 O 0.32965 0.15035 0.58794 0.0
O853 O 0.29814 0.12846 0.57894 0.0
O854 O 0.32911 0.13056 0.55413 0.0
O855 O 0.33495 0.11672 0.59013 0.0
H856 H 0.30729 0.16418 0.60883 0.0
H857 H 0.34458 0.17086 0.5678 0.0
H858 H 0.30111 0.19186 0.60864 0.0
H859 H 0.33766 0.19841 0.56823 0.0
H860 H 0.26879 0.08838 0.60224 0.0
H861 H 0.26661 0.1412 0.58122 0.0
H862 H 0.29593 0.10019 0.59056 0.0
H863 H 0.23989 0.12863 0.59295 0.0
H864 H 0.26975 0.18514 0.56296 0.0
H865 H 0.30447 0.17915 0.51934 0.0
H866 H 0.33453 0.1318 0.6571 0.0
H867 H 0.27837 0.13702 0.64882 0.0
H868 H 0.33813 0.10599 0.53662 0.0
H869 H 0.34899 0.15355 0.54371 0.0
H870 H 0.36157 0.10506 0.51439 0.0
H871 H 0.3722 0.1518 0.52132 0.0
H872 H 0.36679 0.10435 0.59006 0.0
H873 H 0.31521 0.10225 0.61318 0.0
H874 H 0.37604 0.0827 0.60828 0.0
H875 H 0.3253 0.08057 0.63083 0.0
H876 H 0.39942 0.1596 0.59 0.0
H877 H 0.40363 0.11943 0.55842 0.0
H878 H 0.28488 0.07983 0.53358 0.0
H879 H 0.33043 0.06126 0.55979 0.0
Li880 Li 0.67986 0.11603 0.92874 0.0
Li881 Li 0.65622 0.13394 0.92271 0.0
Li882 Li 0.68079 0.13015 0.9022 0.0
Li883 Li 0.68589 0.14371 0.92903 0.0
C884 C 0.65844 0.1009 0.9056 0.0
N885 N 0.65038 0.07104 0.898 0.0
C886 C 0.64127 0.09546 0.90798 0.0
C887 C 0.67145 0.09119 0.89918 0.0
C888 C 0.63747 0.08032 0.90411 0.0
C889 C 0.66714 0.07613 0.89546 0.0
C890 C 0.66066 0.12498 0.95752 0.0
C891 C 0.65562 0.12065 0.98773 0.0
N892 N 0.64231 0.1109 0.98376 0.0
C893 C 0.64691 0.11494 0.95377 0.0
C894 C 0.66504 0.12789 0.97465 0.0
C895 C 0.6378 0.10792 0.96719 0.0
C896 C 0.70255 0.09481 0.94483 0.0
N897 N 0.68564 0.09713 0.93953 0.0
C898 C 0.67729 0.0724 0.94918 0.0
C899 C 0.67302 0.08633 0.94183 0.0
C900 C 0.69464 0.06962 0.95457 0.0
C901 C 0.70736 0.08107 0.95254 0.0
H902 H 0.71231 0.10363 0.94302 0.0
H903 H 0.65959 0.08844 0.93794 0.0
C904 C 0.62176 0.13468 0.91002 0.0
N905 N 0.6316 0.138 0.9241 0.0
C906 C 0.60347 0.13658 0.91034 0.0
C907 C 0.60585 0.14571 0.93954 0.0
C908 C 0.62411 0.14368 0.93862 0.0
C909 C 0.59527 0.14199 0.92532 0.0
H910 H 0.62812 0.13026 0.89862 0.0
H911 H 0.63228 0.14643 0.94957 0.0
C912 C 0.71534 0.12567 0.90967 0.0
N913 N 0.74573 0.12274 0.89032 0.0
C914 C 0.72581 0.13837 0.90622 0.0
C915 C 0.72051 0.11143 0.90356 0.0
C916 C 0.74108 0.13667 0.89633 0.0
C917 C 0.73587 0.11019 0.89373 0.0
C918 C 0.6626 0.16356 0.9125 0.0
C919 C 0.65944 0.17323 0.89862 0.0
C920 C 0.65811 0.1682 0.92911 0.0
C921 C 0.65182 0.18743 0.90159 0.0
C922 C 0.65052 0.18248 0.93155 0.0
N923 N 0.64755 0.19172 0.91785 0.0
C924 C 0.6774 0.11998 0.86805 0.0
C925 C 0.69782 0.14012 0.87152 0.0
C926 C 0.68019 0.1199 0.85036 0.0
N927 N 0.68628 0.12989 0.87826 0.0
C928 C 0.70107 0.14041 0.85384 0.0
C929 C 0.69205 0.13028 0.84301 0.0
H930 H 0.66781 0.11235 0.87352 0.0
H931 H 0.70417 0.1483 0.8798 0.0
C932 C 0.70249 0.15909 0.95644 0.0
N933 N 0.69858 0.15986 0.93944 0.0
C934 C 0.71076 0.17128 0.96462 0.0
C935 C 0.71118 0.18466 0.93751 0.0
C936 C 0.7029 0.17222 0.92988 0.0
C937 C 0.71506 0.18436 0.95516 0.0
H938 H 0.69896 0.14908 0.96369 0.0
H939 H 0.69973 0.17248 0.91633 0.0
O940 O 0.66245 0.11565 0.90951 0.0
O941 O 0.66981 0.13195 0.94457 0.0
O942 O 0.70032 0.12713 0.91928 0.0
O943 O 0.67005 0.14962 0.90975 0.0
H944 H 0.631 0.10279 0.9129 0.0
H945 H 0.68472 0.09525 0.89707 0.0
H946 H 0.62427 0.07594 0.90598 0.0
H947 H 0.67711 0.06848 0.89055 0.0
H948 H 0.65889 0.12279 0.00103 0.0
H949 H 0.64332 0.11256 0.94062 0.0
H950 H 0.6756 0.13565 0.97783 0.0
H951 H 0.62715 0.10011 0.96443 0.0
H952 H 0.66704 0.06394 0.95084 0.0
H953 H 0.72088 0.07931 0.95661 0.0
H954 H 0.59581 0.13344 0.89915 0.0
H955 H 0.60008 0.15012 0.95124 0.0
H956 H 0.7221 0.14945 0.91097 0.0
H957 H 0.71283 0.10142 0.9065 0.0
H958 H 0.74922 0.14643 0.89342 0.0
H959 H 0.73998 0.09925 0.88885 0.0
H960 H 0.66285 0.16979 0.88569 0.0
H961 H 0.6605 0.16089 0.94002 0.0
H962 H 0.6493 0.19504 0.89097 0.0
H963 H 0.64699 0.18622 0.94433 0.0
H964 H 0.673 0.11186 0.8425 0.0
H965 H 0.71007 0.14878 0.84865 0.0
H966 H 0.71335 0.1706 0.97828 0.0
H967 H 0.71452 0.1944 0.92967 0.0
Li968 Li 0.34265 0.86444 0.41884 0.0
Li969 Li 0.3161 0.88132 0.42658 0.0
Li970 Li 0.31382 0.85388 0.42597 0.0
Li971 Li 0.31689 0.86715 0.39972 0.0
C972 C 0.3279 0.85883 0.45608 0.0
N973 N 0.32364 0.84262 0.48616 0.0
C974 C 0.31518 0.86328 0.46807 0.0
C975 C 0.33859 0.84625 0.45946 0.0
C976 C 0.3132 0.8549 0.48319 0.0
C977 C 0.33619 0.83817 0.47472 0.0
C978 C 0.3346 0.89192 0.39311 0.0
C979 C 0.32217 0.91076 0.3742 0.0
N980 N 0.3357 0.90845 0.363 0.0
C981 C 0.34843 0.88978 0.38149 0.0
C982 C 0.32139 0.90252 0.38951 0.0
C983 C 0.34873 0.89824 0.36631 0.0
C984 C 0.3768 0.85813 0.40624 0.0
N985 N 0.36749 0.86289 0.42015 0.0
C986 C 0.39401 0.86618 0.43631 0.0
C987 C 0.37564 0.86686 0.43503 0.0
C988 C 0.40402 0.86134 0.42214 0.0
C989 C 0.39519 0.8572 0.40697 0.0
H990 H 0.36991 0.85511 0.39455 0.0
H991 H 0.36786 0.87063 0.44587 0.0
C992 C 0.29559 0.90117 0.44755 0.0
N993 N 0.3103 0.89976 0.43767 0.0
C994 C 0.29246 0.91462 0.45662 0.0
C995 C 0.31936 0.92495 0.44465 0.0
C996 C 0.32202 0.91131 0.43596 0.0
C997 C 0.30459 0.92668 0.45541 0.0
H998 H 0.28652 0.89173 0.44869 0.0
H999 H 0.33361 0.90984 0.42802 0.0
C1000 C 0.33498 0.83441 0.40259 0.0
N1001 N 0.34624 0.80546 0.39433 0.0
C1002 C 0.32678 0.82634 0.38934 0.0
C1003 C 0.34904 0.82779 0.41151 0.0
C1004 C 0.33262 0.81171 0.3854 0.0
C1005 C 0.3545 0.81314 0.40718 0.0
C1006 C 0.28205 0.86257 0.40983 0.0
C1007 C 0.28283 0.84819 0.40229 0.0
C1008 C 0.26592 0.87022 0.41069 0.0
C1009 C 0.26743 0.8417 0.3957 0.0
C1010 C 0.2508 0.86336 0.40394 0.0
N1011 N 0.25187 0.84936 0.39665 0.0
C1012 C 0.28744 0.84064 0.44676 0.0
C1013 C 0.30866 0.82297 0.43678 0.0
C1014 C 0.27858 0.82921 0.45575 0.0
N1015 N 0.30221 0.83736 0.43753 0.0
C1016 C 0.3001 0.81119 0.44533 0.0
C1017 C 0.28488 0.81425 0.45497 0.0
H1018 H 0.28262 0.85219 0.44725 0.0
H1019 H 0.32052 0.82056 0.42975 0.0
C1020 C 0.32357 0.86116 0.36538 0.0
N1021 N 0.31147 0.86774 0.37588 0.0
C1022 C 0.32132 0.86151 0.34764 0.0
C1023 C 0.29412 0.87541 0.35174 0.0
C1024 C 0.29691 0.87478 0.36949 0.0
C1025 C 0.30651 0.8688 0.34056 0.0
H1026 H 0.33513 0.85581 0.37083 0.0
H1027 H 0.28764 0.88014 0.37814 0.0
O1028 O 0.32965 0.86659 0.44097 0.0
O1029 O 0.33371 0.88338 0.40774 0.0
O1030 O 0.32963 0.84887 0.40642 0.0
O1031 O 0.29693 0.86922 0.41633 0.0
H1032 H 0.30678 0.87297 0.46563 0.0
H1033 H 0.34852 0.8427 0.45033 0.0
H1034 H 0.30332 0.85814 0.49253 0.0
H1035 H 0.34428 0.82835 0.47745 0.0
H1036 H 0.31198 0.91894 0.37117 0.0
H1037 H 0.3587 0.88156 0.38407 0.0
H1038 H 0.31052 0.90421 0.39833 0.0
H1039 H 0.35929 0.89664 0.35713 0.0
H1040 H 0.40029 0.86932 0.44829 0.0
H1041 H 0.40242 0.85358 0.3957 0.0
H1042 H 0.28099 0.91538 0.46487 0.0
H1043 H 0.32888 0.93401 0.44303 0.0
H1044 H 0.31605 0.83132 0.3821 0.0
H1045 H 0.35555 0.83381 0.4218 0.0
H1046 H 0.32636 0.80533 0.3752 0.0
H1047 H 0.36529 0.80786 0.41404 0.0
H1048 H 0.29515 0.84209 0.40164 0.0
H1049 H 0.26511 0.88137 0.4165 0.0
H1050 H 0.26786 0.83057 0.38985 0.0
H1051 H 0.23823 0.86915 0.40451 0.0
H1052 H 0.26686 0.83199 0.46307 0.0
H1053 H 0.30552 0.79982 0.44465 0.0
H1054 H 0.33108 0.85607 0.33954 0.0
H1055 H 0.28263 0.8813 0.34682 0.0
Li1056 Li 0.31664 0.14636 0.92546 0.0
Li1057 Li 0.31955 0.11864 0.92499 0.0
Li1058 Li 0.34412 0.13526 0.91859 0.0
Li1059 Li 0.31942 0.13328 0.89832 0.0
C1060 C 0.34459 0.13372 0.95222 0.0
N1061 N 0.37261 0.13427 0.97498 0.0
C1062 C 0.34878 0.12082 0.96184 0.0
C1063 C 0.35448 0.14699 0.95442 0.0
C1064 C 0.36303 0.12131 0.97323 0.0
C1065 C 0.36865 0.14701 0.9659 0.0
C1066 C 0.28483 0.13005 0.92469 0.0
C1067 C 0.25343 0.12587 0.92683 0.0
N1068 N 0.25438 0.12795 0.94411 0.0
C1069 C 0.28549 0.13214 0.9425 0.0
C1070 C 0.26867 0.12692 0.91679 0.0
C1071 C 0.26995 0.13104 0.95208 0.0
C1072 C 0.29179 0.1703 0.92844 0.0
N1073 N 0.30536 0.16311 0.93649 0.0
C1074 C 0.30324 0.17997 0.96042 0.0
C1075 C 0.31103 0.16757 0.95225 0.0
C1076 C 0.28944 0.18784 0.9523 0.0
C1077 C 0.28365 0.1828 0.93612 0.0
H1078 H 0.28741 0.16638 0.91599 0.0
H1079 H 0.32153 0.16146 0.95855 0.0
C1080 C 0.32892 0.09011 0.93667 0.0
N1081 N 0.31454 0.09922 0.93503 0.0
C1082 C 0.32751 0.07596 0.94459 0.0
C1083 C 0.29635 0.08056 0.94865 0.0
C1084 C 0.29834 0.09457 0.94046 0.0
C1085 C 0.31112 0.07111 0.95104 0.0
H1086 H 0.34162 0.09398 0.93208 0.0
H1087 H 0.28694 0.10169 0.9387 0.0
C1088 C 0.32847 0.16668 0.90378 0.0
N1089 N 0.31986 0.19701 0.90026 0.0
C1090 C 0.31637 0.17126 0.89125 0.0
C1091 C 0.33633 0.17755 0.9144 0.0
C1092 C 0.31217 0.18664 0.88969 0.0
C1093 C 0.33175 0.19282 0.91247 0.0
C1094 C 0.33305 0.10426 0.89631 0.0
C1095 C 0.34711 0.09561 0.89008 0.0
C1096 C 0.3157 0.09966 0.89306 0.0
C1097 C 0.34358 0.08245 0.88066 0.0
C1098 C 0.31272 0.08644 0.88359 0.0
N1099 N 0.3266 0.07818 0.87764 0.0
C1100 C 0.37845 0.12479 0.92598 0.0
C1101 C 0.3772 0.14978 0.91473 0.0
C1102 C 0.39679 0.12568 0.92742 0.0
N1103 N 0.3691 0.1368 0.91987 0.0
C1104 C 0.39553 0.15113 0.91584 0.0
C1105 C 0.40556 0.139 0.9223 0.0
H1106 H 0.37162 0.11455 0.92982 0.0
H1107 H 0.36943 0.1591 0.9098 0.0
C1108 C 0.29701 0.134 0.8688 0.0
N1109 N 0.31388 0.13295 0.87463 0.0
C1110 C 0.29364 0.13431 0.85114 0.0
C1111 C 0.32503 0.13219 0.84599 0.0
C1112 C 0.32778 0.13196 0.86368 0.0
C1113 C 0.30779 0.13353 0.83948 0.0
H1114 H 0.28623 0.13486 0.87786 0.0
H1115 H 0.34104 0.13108 0.86876 0.0
O1116 O 0.33085 0.13339 0.94079 0.0
O1117 O 0.29974 0.13144 0.9149 0.0
O1118 O 0.33248 0.15163 0.90573 0.0
O1119 O 0.33637 0.11715 0.90558 0.0
H1120 H 0.34108 0.11056 0.96062 0.0
H1121 H 0.35143 0.15708 0.94711 0.0
H1122 H 0.36645 0.11138 0.98069 0.0
H1123 H 0.37653 0.15715 0.96756 0.0
H1124 H 0.24084 0.12344 0.92087 0.0
H1125 H 0.29784 0.13448 0.94892 0.0
H1126 H 0.26791 0.12531 0.90302 0.0
H1127 H 0.27027 0.13261 0.96585 0.0
H1128 H 0.30787 0.18323 0.97305 0.0
H1129 H 0.27313 0.18858 0.92934 0.0
H1130 H 0.33919 0.06896 0.94571 0.0
H1131 H 0.28346 0.07737 0.95344 0.0
H1132 H 0.31013 0.16304 0.88293 0.0
H1133 H 0.34571 0.17424 0.92416 0.0
H1134 H 0.30276 0.19033 0.88012 0.0
H1135 H 0.33762 0.20133 0.9207 0.0
H1136 H 0.36061 0.09902 0.89252 0.0
H1137 H 0.30463 0.10619 0.8978 0.0
H1138 H 0.35434 0.07564 0.87576 0.0
H1139 H 0.29936 0.08275 0.88098 0.0
H1140 H 0.40406 0.11599 0.93224 0.0
H1141 H 0.40176 0.16163 0.91187 0.0
H1142 H 0.28016 0.13549 0.84669 0.0
H1143 H 0.33631 0.13129 0.83749 0.0
Li1144 Li 0.68487 0.85597 0.42966 0.0
Li1145 Li 0.68127 0.8836 0.42765 0.0
Li1146 Li 0.65556 0.86608 0.42138 0.0
Li1147 Li 0.68026 0.86901 0.40151 0.0
C1148 C 0.66575 0.86531 0.45992 0.0
N1149 N 0.65949 0.85761 0.49383 0.0
C1150 C 0.6749 0.87262 0.47314 0.0
C1151 C 0.65312 0.85431 0.46402 0.0
C1152 C 0.67164 0.8685 0.49018 0.0
C1153 C 0.65022 0.85051 0.48121 0.0
C1154 C 0.71564 0.87836 0.42178 0.0
C1155 C 0.73538 0.89959 0.41802 0.0
N1156 N 0.74609 0.89386 0.43045 0.0
C1157 C 0.72692 0.87261 0.43442 0.0
C1158 C 0.71997 0.89189 0.41341 0.0
C1159 C 0.74222 0.88064 0.43865 0.0
C1160 C 0.70001 0.82684 0.43194 0.0
N1161 N 0.69666 0.83967 0.44108 0.0
C1162 C 0.70923 0.82862 0.46631 0.0
C1163 C 0.7014 0.84086 0.45786 0.0
C1164 C 0.71233 0.81503 0.45735 0.0
C1165 C 0.70778 0.8143 0.43988 0.0
H1166 H 0.69638 0.82626 0.41853 0.0
H1167 H 0.69924 0.85134 0.4647 0.0
C1168 C 0.6775 0.91493 0.43291 0.0
N1169 N 0.68714 0.90267 0.43782 0.0
C1170 C 0.68046 0.92909 0.44041 0.0
C1171 C 0.70328 0.91779 0.45794 0.0
C1172 C 0.69989 0.90385 0.45005 0.0
C1173 C 0.69341 0.93063 0.45321 0.0
H1174 H 0.66722 0.91367 0.42339 0.0
H1175 H 0.70726 0.89393 0.45391 0.0
C1176 C 0.66058 0.83627 0.40963 0.0
N1177 N 0.64259 0.80896 0.40905 0.0
C1178 C 0.65535 0.82989 0.394 0.0
C1179 C 0.65689 0.82862 0.42493 0.0
C1180 C 0.64619 0.81612 0.39398 0.0
C1181 C 0.64774 0.81487 0.42439 0.0
C1182 C 0.65963 0.89213 0.39415 0.0
C1183 C 0.64407 0.88901 0.38517 0.0
C1184 C 0.67166 0.90262 0.38748 0.0
C1185 C 0.64094 0.89626 0.36951 0.0
C1186 C 0.66807 0.90962 0.37177 0.0
N1187 N 0.65292 0.90631 0.36317 0.0
C1188 C 0.62215 0.86988 0.43674 0.0
C1189 C 0.62172 0.85654 0.41032 0.0
C1190 C 0.60381 0.86883 0.43806 0.0
N1191 N 0.63069 0.86369 0.42309 0.0
C1192 C 0.60336 0.85534 0.41103 0.0
C1193 C 0.59412 0.86157 0.42502 0.0
H1194 H 0.62958 0.87576 0.44656 0.0
H1195 H 0.62877 0.85214 0.39934 0.0
C1196 C 0.70152 0.87344 0.37159 0.0
N1197 N 0.68555 0.86884 0.37763 0.0
C1198 C 0.7048 0.87364 0.35392 0.0
C1199 C 0.67525 0.86416 0.34914 0.0
C1200 C 0.67251 0.86426 0.36684 0.0
C1201 C 0.69156 0.86892 0.34247 0.0
H1202 H 0.71169 0.87697 0.38047 0.0
H1203 H 0.65986 0.86089 0.372 0.0
O1204 O 0.66874 0.8693 0.44315 0.0
O1205 O 0.70057 0.87067 0.41751 0.0
O1206 O 0.66944 0.84984 0.40988 0.0
O1207 O 0.66314 0.88487 0.40931 0.0
H1208 H 0.68456 0.88127 0.47031 0.0
H1209 H 0.64543 0.84888 0.45409 0.0
H1210 H 0.67877 0.87398 0.5005 0.0
H1211 H 0.64053 0.84198 0.48452 0.0
H1212 H 0.73881 0.91013 0.41173 0.0
H1213 H 0.72388 0.8621 0.44092 0.0
H1214 H 0.71146 0.89647 0.40355 0.0
H1215 H 0.75103 0.87636 0.44846 0.0
H1216 H 0.71292 0.82983 0.47967 0.0
H1217 H 0.70985 0.80404 0.43248 0.0
H1218 H 0.67234 0.93862 0.43658 0.0
H1219 H 0.71346 0.91849 0.46767 0.0
H1220 H 0.65828 0.8355 0.38199 0.0
H1221 H 0.66129 0.83312 0.43708 0.0
H1222 H 0.64198 0.81111 0.38197 0.0
H1223 H 0.64481 0.80885 0.43616 0.0
H1224 H 0.63458 0.88098 0.39016 0.0
H1225 H 0.68369 0.90526 0.39433 0.0
H1226 H 0.629 0.89388 0.36237 0.0
H1227 H 0.67733 0.91768 0.36641 0.0
H1228 H 0.59731 0.87367 0.44916 0.0
H1229 H 0.59647 0.84997 0.40047 0.0
H1230 H 0.7176 0.87729 0.34928 0.0
H1231 H 0.6646 0.86067 0.34073 0.0
Li1232 Li 0.31966 0.8708 0.09768 0.0
Li1233 Li 0.34556 0.86692 0.0779 0.0
Li1234 Li 0.3214 0.88307 0.07023 0.0
Li1235 Li 0.31638 0.8565 0.07034 0.0
C1236 C 0.33962 0.9008 0.09026 0.0
N1237 N 0.34233 0.93206 0.08924 0.0
C1238 C 0.35434 0.90766 0.08271 0.0
C1239 C 0.32635 0.90983 0.09742 0.0
C1240 C 0.35544 0.92349 0.08228 0.0
C1241 C 0.32796 0.92562 0.09675 0.0
C1242 C 0.33777 0.8409 0.10128 0.0
C1243 C 0.34483 0.81488 0.10808 0.0
N1244 N 0.35112 0.81939 0.12363 0.0
C1245 C 0.34436 0.84528 0.11731 0.0
C1246 C 0.33802 0.82558 0.09661 0.0
C1247 C 0.35102 0.83423 0.12843 0.0
C1248 C 0.301 0.862 0.12773 0.0
N1249 N 0.31321 0.87173 0.1212 0.0
C1250 C 0.31924 0.88167 0.14911 0.0
C1251 C 0.32217 0.88155 0.13145 0.0
C1252 C 0.30708 0.87148 0.15637 0.0
C1253 C 0.29767 0.86171 0.1454 0.0
H1254 H 0.29425 0.85418 0.11927 0.0
H1255 H 0.33202 0.88898 0.12597 0.0
C1256 C 0.37914 0.87262 0.06438 0.0
N1257 N 0.37058 0.86427 0.07647 0.0
C1258 C 0.39753 0.87207 0.0631 0.0
C1259 C 0.39793 0.85395 0.08638 0.0
C1260 C 0.37956 0.85488 0.08722 0.0
C1261 C 0.4072 0.86278 0.07435 0.0
H1262 H 0.37167 0.87995 0.05592 0.0
H1263 H 0.37259 0.84821 0.0966 0.0
C1264 C 0.28595 0.87369 0.07004 0.0
N1265 N 0.25631 0.87582 0.04948 0.0
C1266 C 0.28769 0.87461 0.05219 0.0
C1267 C 0.26914 0.87386 0.07743 0.0
C1268 C 0.27255 0.87568 0.04202 0.0
C1269 C 0.25431 0.87494 0.06681 0.0
C1270 C 0.34124 0.85835 0.04408 0.0
C1271 C 0.34325 0.8626 0.02691 0.0
C1272 C 0.34746 0.84422 0.04957 0.0
C1273 C 0.35141 0.8526 0.01546 0.0
C1274 C 0.35556 0.83454 0.03774 0.0
N1275 N 0.35735 0.8389 0.02107 0.0
C1276 C 0.32888 0.90612 0.04677 0.0
C1277 C 0.3021 0.91011 0.06191 0.0
C1278 C 0.32699 0.91996 0.0383 0.0
N1279 N 0.31662 0.90157 0.05842 0.0
C1280 C 0.29958 0.92399 0.05358 0.0
C1281 C 0.31224 0.92913 0.04174 0.0
H1282 H 0.34032 0.89909 0.04434 0.0
H1283 H 0.29266 0.90629 0.07139 0.0
C1284 C 0.298 0.82873 0.07057 0.0
N1285 N 0.30442 0.83978 0.06012 0.0
C1286 C 0.28952 0.81607 0.0636 0.0
C1287 C 0.29397 0.82663 0.03528 0.0
C1288 C 0.30241 0.83904 0.04279 0.0
C1289 C 0.28749 0.81487 0.04571 0.0
H1290 H 0.29955 0.82974 0.08434 0.0
H1291 H 0.30743 0.84806 0.03475 0.0
O1292 O 0.33802 0.88533 0.09034 0.0
O1293 O 0.33092 0.85148 0.09028 0.0
O1294 O 0.30053 0.87256 0.08033 0.0
O1295 O 0.33319 0.86806 0.05534 0.0
H1296 H 0.36472 0.90085 0.07712 0.0
H1297 H 0.31479 0.9047 0.10317 0.0
H1298 H 0.3667 0.92895 0.07638 0.0
H1299 H 0.31772 0.93275 0.10212 0.0
H1300 H 0.34511 0.80299 0.10462 0.0
H1301 H 0.34462 0.85709 0.12102 0.0
H1302 H 0.33307 0.82198 0.08423 0.0
H1303 H 0.3562 0.83747 0.14086 0.0
H1304 H 0.32662 0.88953 0.15704 0.0
H1305 H 0.28833 0.85355 0.15048 0.0
H1306 H 0.4041 0.87917 0.05372 0.0
H1307 H 0.4048 0.84641 0.09509 0.0
H1308 H 0.30058 0.87453 0.04623 0.0
H1309 H 0.26757 0.87313 0.09123 0.0
H1310 H 0.27371 0.8764 0.0282 0.0
H1311 H 0.24122 0.87508 0.07236 0.0
H1312 H 0.33849 0.8735 0.02247 0.0
H1313 H 0.34609 0.84073 0.06279 0.0
H1314 H 0.35303 0.85573 0.00212 0.0
H1315 H 0.36043 0.82358 0.04182 0.0
H1316 H 0.33695 0.92346 0.02914 0.0
H1317 H 0.28812 0.93081 0.05669 0.0
H1318 H 0.28448 0.80737 0.07213 0.0
H1319 H 0.29283 0.82612 0.02142 0.0
Li1320 Li 0.65576 0.13446 0.5798 0.0
Li1321 Li 0.68155 0.13068 0.6002 0.0
Li1322 Li 0.68443 0.14543 0.57204 0.0
Li1323 Li 0.68073 0.11858 0.57232 0.0
C1324 C 0.65934 0.16081 0.59993 0.0
N1325 N 0.63786 0.18253 0.61473 0.0
C1326 C 0.65604 0.16052 0.61759 0.0
C1327 C 0.65191 0.17226 0.58984 0.0
C1328 C 0.64509 0.17157 0.62482 0.0
C1329 C 0.64102 0.1831 0.59754 0.0
C1330 C 0.66051 0.1008 0.59088 0.0
C1331 C 0.66714 0.07495 0.59875 0.0
N1332 N 0.65454 0.07001 0.58762 0.0
C1333 C 0.64757 0.09549 0.5796 0.0
C1334 C 0.67035 0.09048 0.60059 0.0
C1335 C 0.64477 0.07987 0.5781 0.0
C1336 C 0.62214 0.13269 0.56423 0.0
N1337 N 0.6307 0.13655 0.57894 0.0
C1338 C 0.60331 0.14241 0.59266 0.0
C1339 C 0.62166 0.14109 0.59311 0.0
C1340 C 0.59402 0.13855 0.57763 0.0
C1341 C 0.60375 0.13357 0.56329 0.0
H1342 H 0.62959 0.12868 0.55329 0.0
H1343 H 0.62863 0.14354 0.60486 0.0
C1344 C 0.70091 0.13825 0.63029 0.0
N1345 N 0.68753 0.12975 0.62375 0.0
C1346 C 0.70409 0.13838 0.64799 0.0
C1347 C 0.67987 0.12078 0.65168 0.0
C1348 C 0.67713 0.12106 0.63399 0.0
C1349 C 0.69332 0.12971 0.65896 0.0
H1350 H 0.70882 0.1452 0.6218 0.0
H1351 H 0.66643 0.11458 0.62844 0.0
C1352 C 0.66574 0.14123 0.5428 0.0
N1353 N 0.66126 0.15781 0.51299 0.0
C1354 C 0.67487 0.13719 0.52787 0.0
C1355 C 0.65421 0.1536 0.54251 0.0
C1356 C 0.67246 0.14575 0.51295 0.0
C1357 C 0.65215 0.16187 0.52733 0.0
C1358 C 0.71543 0.12211 0.57917 0.0
C1359 C 0.72153 0.12095 0.56229 0.0
C1360 C 0.7246 0.11487 0.59242 0.0
C1361 C 0.73665 0.11238 0.55889 0.0
C1362 C 0.7397 0.10644 0.5885 0.0
N1363 N 0.74534 0.10536 0.57196 0.0
C1364 C 0.69501 0.17614 0.56995 0.0
C1365 C 0.70422 0.16097 0.5465 0.0
C1366 C 0.70265 0.18899 0.56254 0.0
N1367 N 0.69568 0.16253 0.56175 0.0
C1368 C 0.71191 0.17352 0.53855 0.0
C1369 C 0.71112 0.18782 0.54652 0.0
H1370 H 0.68859 0.17702 0.5823 0.0
H1371 H 0.70497 0.14999 0.54041 0.0
C1372 C 0.6777 0.09748 0.54554 0.0
N1373 N 0.68627 0.09999 0.5606 0.0
C1374 C 0.68036 0.08402 0.53647 0.0
C1375 C 0.70043 0.07578 0.5587 0.0
C1376 C 0.69733 0.08939 0.56738 0.0
C1377 C 0.6919 0.07295 0.543 0.0
H1378 H 0.66845 0.10579 0.54074 0.0
H1379 H 0.70353 0.09136 0.57966 0.0
O1380 O 0.67 0.15004 0.59264 0.0
O1381 O 0.66379 0.11602 0.59213 0.0
O1382 O 0.66807 0.13306 0.55759 0.0
O1383 O 0.70067 0.13043 0.5828 0.0
H1384 H 0.66173 0.1518 0.62563 0.0
H1385 H 0.65459 0.17286 0.57622 0.0
H1386 H 0.64234 0.17143 0.63845 0.0
H1387 H 0.63514 0.192 0.58987 0.0
H1388 H 0.67473 0.06683 0.60608 0.0
H1389 H 0.63993 0.10333 0.57191 0.0
H1390 H 0.68057 0.09441 0.60924 0.0
H1391 H 0.63488 0.07558 0.56933 0.0
H1392 H 0.59652 0.14644 0.60401 0.0
H1393 H 0.59725 0.13008 0.55156 0.0
H1394 H 0.71447 0.14554 0.65306 0.0
H1395 H 0.67143 0.11374 0.65958 0.0
H1396 H 0.68394 0.1277 0.52788 0.0
H1397 H 0.64688 0.15676 0.55385 0.0
H1398 H 0.67954 0.14282 0.50134 0.0
H1399 H 0.6433 0.1715 0.52695 0.0
H1400 H 0.71449 0.12638 0.55189 0.0
H1401 H 0.72005 0.1157 0.60557 0.0
H1402 H 0.74145 0.11127 0.54587 0.0
H1403 H 0.7469 0.10072 0.59861 0.0
H1404 H 0.70206 0.19969 0.56936 0.0
H1405 H 0.71816 0.17205 0.52616 0.0
H1406 H 0.67312 0.08217 0.52466 0.0
H1407 H 0.70943 0.06757 0.56424 0.0
H1408 H 0.07542 0.36986 0.05003 0.0
H1409 H 0.04314 0.36893 0.04904 0.0
H1410 H 0.04198 0.35437 0.10197 0.0
H1411 H 0.07426 0.35493 0.10284 0.0
H1412 H 0.01912 0.33866 0.08432 0.0
H1413 H 0.03266 0.3917 0.08948 0.0
H1414 H 0.04694 0.41586 0.08155 0.0
H1415 H 0.02156 0.4146 0.03225 0.0
H1416 H 0.00731 0.39031 0.03981 0.0
H1417 H 0.92981 0.3569 0.10337 0.0
H1418 H 0.96202 0.35629 0.10233 0.0
H1419 H 0.96057 0.36514 0.04788 0.0
H1420 H 0.92829 0.3654 0.04868 0.0
H1421 H 0.98448 0.3834 0.06527 0.0
H1422 H 0.96998 0.33045 0.06127 0.0
H1423 H 0.95543 0.30668 0.07019 0.0
H1424 H 0.98238 0.30838 0.11867 0.0
H1425 H 0.99692 0.33228 0.11014 0.0
C1426 C 0.06824 0.36651 0.06145 0.0
C1427 C 0.07731 0.36253 0.07653 0.0
C1428 C 0.04981 0.36601 0.06089 0.0
C1429 C 0.04009 0.3618 0.07552 0.0
C1430 C 0.04917 0.35764 0.09052 0.0
C1431 C 0.0676 0.35796 0.09102 0.0
C1432 C 0.02048 0.36173 0.07522 0.0
C1433 C 0.01156 0.34851 0.08035 0.0
C1434 C 0.01057 0.37448 0.06969 0.0
C1435 C 0.01906 0.38911 0.06515 0.0
C1436 C 0.03023 0.39652 0.0769 0.0
C1437 C 0.0383 0.41025 0.07248 0.0
C1438 C 0.0352 0.41674 0.05639 0.0
C1439 C 0.02397 0.40954 0.0447 0.0
C1440 C 0.01588 0.3958 0.04905 0.0
C1441 C 0.93629 0.35849 0.0911 0.0
C1442 C 0.92641 0.36114 0.07609 0.0
C1443 C 0.95472 0.3582 0.09056 0.0
C1444 C 0.96365 0.36056 0.075 0.0
C1445 C 0.9539 0.36332 0.06002 0.0
C1446 C 0.93545 0.36353 0.06052 0.0
C1447 C 0.98321 0.36038 0.07447 0.0
C1448 C 0.99208 0.37355 0.06918 0.0
C1449 C 0.99306 0.34765 0.08 0.0
C1450 C 0.98442 0.33323 0.08512 0.0
C1451 C 0.9727 0.32582 0.07389 0.0
C1452 C 0.96447 0.31231 0.07886 0.0
C1453 C 0.96794 0.30604 0.095 0.0
C1454 C 0.97969 0.31325 0.10618 0.0
C1455 C 0.98794 0.32677 0.10127 0.0
H1456 H 0.96156 0.29559 0.09882 0.0
H1457 H 0.04146 0.42737 0.05299 0.0
H1458 H 0.92688 0.62838 0.59893 0.0
H1459 H 0.95905 0.63021 0.59846 0.0
H1460 H 0.95673 0.65227 0.54903 0.0
H1461 H 0.92446 0.65038 0.54938 0.0
H1462 H 0.98182 0.6312 0.54926 0.0
H1463 H 0.96565 0.67249 0.58567 0.0
H1464 H 0.95057 0.68519 0.60978 0.0
H1465 H 0.97802 0.65666 0.64565 0.0
H1466 H 0.99308 0.64364 0.62173 0.0
H1467 H 0.07281 0.6531 0.55204 0.0
H1468 H 0.04053 0.65402 0.5508 0.0
H1469 H 0.03755 0.62903 0.59834 0.0
H1470 H 0.06972 0.62781 0.59954 0.0
H1471 H 0.01521 0.6535 0.59794 0.0
H1472 H 0.03006 0.61142 0.56094 0.0
H1473 H 0.04514 0.59907 0.5366 0.0
H1474 H 0.02016 0.62994 0.50151 0.0
H1475 H 0.0051 0.64262 0.52569 0.0
C1476 C 0.93321 0.63377 0.58804 0.0
C1477 C 0.92314 0.63932 0.57424 0.0
C1478 C 0.95159 0.63481 0.58778 0.0
C1479 C 0.96029 0.64158 0.57382 0.0
C1480 C 0.95029 0.64702 0.55994 0.0
C1481 C 0.93188 0.64591 0.56015 0.0
C1482 C 0.97984 0.64269 0.57362 0.0
C1483 C 0.98911 0.63632 0.55977 0.0
C1484 C 0.98937 0.64916 0.58745 0.0
C1485 C 0.98039 0.657 0.60189 0.0
C1486 C 0.96838 0.66885 0.59869 0.0
C1487 C 0.95985 0.67612 0.61232 0.0
C1488 C 0.96331 0.67171 0.62923 0.0
C1489 C 0.97534 0.66005 0.63254 0.0
C1490 C 0.98389 0.65274 0.61895 0.0
C1491 C 0.06528 0.64768 0.56215 0.0
C1492 C 0.07387 0.64038 0.57589 0.0
C1493 C 0.04685 0.64826 0.56145 0.0
C1494 C 0.03667 0.64152 0.57444 0.0
C1495 C 0.04517 0.63436 0.58823 0.0
C1496 C 0.06357 0.63373 0.58892 0.0
C1497 C 0.01712 0.64185 0.57371 0.0
C1498 C 0.00788 0.6485 0.58739 0.0
C1499 C 0.00762 0.63572 0.55968 0.0
C1500 C 0.01661 0.62807 0.54514 0.0
C1501 C 0.0279 0.61566 0.54805 0.0
C1502 C 0.03642 0.60858 0.53428 0.0
C1503 C 0.03365 0.61375 0.51752 0.0
C1504 C 0.02231 0.62597 0.5145 0.0
C1505 C 0.01377 0.6331 0.52823 0.0
H1506 H 0.04026 0.60825 0.50688 0.0
H1507 H 0.95669 0.67736 0.63977 0.0
H1508 H 0.92893 0.61403 0.92751 0.0
H1509 H 0.96111 0.61446 0.92921 0.0
H1510 H 0.96059 0.66331 0.92547 0.0
H1511 H 0.92831 0.66297 0.92375 0.0
H1512 H 0.98529 0.65158 0.90502 0.0
H1513 H 0.9687 0.64581 0.96373 0.0
H1514 H 0.95319 0.63456 0.98848 0.0
H1515 H 0.97933 0.59203 0.97963 0.0
H1516 H 0.99482 0.60296 0.95465 0.0
H1517 H 0.07535 0.66059 0.93046 0.0
H1518 H 0.04312 0.66165 0.93044 0.0
H1519 H 0.04076 0.61286 0.92701 0.0
H1520 H 0.07296 0.61166 0.9263 0.0
H1521 H 0.01771 0.62564 0.95199 0.0
H1522 H 0.03344 0.63183 0.89242 0.0
H1523 H 0.04908 0.64368 0.8681 0.0
H1524 H 0.02457 0.68646 0.8795 0.0
H1525 H 0.00897 0.6749 0.90407 0.0
C1526 C 0.93564 0.62489 0.92725 0.0
C1527 C 0.92605 0.63848 0.9256 0.0
C1528 C 0.95404 0.62511 0.92821 0.0
C1529 C 0.96325 0.63893 0.9277 0.0
C1530 C 0.95375 0.65252 0.9259 0.0
C1531 C 0.93531 0.6523 0.92488 0.0
C1532 C 0.98282 0.63913 0.92872 0.0
C1533 C 0.99236 0.64613 0.91544 0.0
C1534 C 0.99207 0.63179 0.94218 0.0
C1535 C 0.9828 0.62517 0.95721 0.0
C1536 C 0.97104 0.63402 0.96697 0.0
C1537 C 0.96227 0.62771 0.98106 0.0
C1538 C 0.96524 0.61258 0.9856 0.0
C1539 C 0.97703 0.60374 0.97608 0.0
C1540 C 0.98582 0.60999 0.96196 0.0
C1541 C 0.06803 0.65007 0.92949 0.0
C1542 C 0.07685 0.63604 0.9283 0.0
C1543 C 0.0496 0.65071 0.9296 0.0
C1544 C 0.03961 0.63734 0.92865 0.0
C1545 C 0.04828 0.62331 0.92783 0.0
C1546 C 0.06671 0.62265 0.92752 0.0
C1547 C 0.02008 0.63799 0.92826 0.0
C1548 C 0.01058 0.63116 0.94164 0.0
C1549 C 0.01087 0.64558 0.91499 0.0
C1550 C 0.0202 0.65254 0.9002 0.0
C1551 C 0.03151 0.6438 0.88984 0.0
C1552 C 0.04035 0.65045 0.87599 0.0
C1553 C 0.03787 0.66582 0.87229 0.0
C1554 C 0.02651 0.67456 0.88241 0.0
C1555 C 0.01766 0.66796 0.89629 0.0
H1556 H 0.04471 0.67095 0.86156 0.0
H1557 H 0.95844 0.60772 0.99652 0.0
H1558 H 0.07106 0.36296 0.3976 0.0
H1559 H 0.03891 0.36212 0.39797 0.0
H1560 H 0.03942 0.36226 0.45338 0.0
H1561 H 0.07168 0.36221 0.45314 0.0
H1562 H 0.01555 0.34297 0.44225 0.0
H1563 H 0.02992 0.39467 0.42978 0.0
H1564 H 0.04445 0.41571 0.4144 0.0
H1565 H 0.01847 0.40261 0.36767 0.0
H1566 H 0.00397 0.38136 0.38273 0.0
H1567 H 0.92495 0.36436 0.45169 0.0
H1568 H 0.95729 0.36406 0.45241 0.0
H1569 H 0.95858 0.35875 0.39735 0.0
H1570 H 0.92628 0.35924 0.39651 0.0
H1571 H 0.98135 0.38097 0.40901 0.0
H1572 H 0.96703 0.32902 0.4223 0.0
H1573 H 0.95231 0.30853 0.43844 0.0
H1574 H 0.97798 0.32308 0.48478 0.0
H1575 H 0.99267 0.3438 0.46895 0.0
C1576 C 0.06439 0.36257 0.40989 0.0
C1577 C 0.07402 0.36268 0.42535 0.0
C1578 C 0.04596 0.3623 0.41007 0.0
C1579 C 0.03672 0.36241 0.4257 0.0
C1580 C 0.04626 0.36227 0.44116 0.0
C1581 C 0.06472 0.3624 0.44099 0.0
C1582 C 0.01712 0.36265 0.42589 0.0
C1583 C 0.00808 0.35142 0.43518 0.0
C1584 C 0.00734 0.37353 0.41644 0.0
C1585 C 0.01599 0.38634 0.40735 0.0
C1586 C 0.02741 0.39621 0.4162 0.0
C1587 C 0.03562 0.40818 0.40754 0.0
C1588 C 0.03242 0.41047 0.39006 0.0
C1589 C 0.02096 0.40081 0.38121 0.0
C1590 C 0.01272 0.38881 0.3898 0.0
C1591 C 0.93214 0.36316 0.43974 0.0
C1592 C 0.92309 0.36179 0.42405 0.0
C1593 C 0.95059 0.36289 0.44018 0.0
C1594 C 0.9603 0.36128 0.42494 0.0
C1595 C 0.95131 0.35996 0.40925 0.0
C1596 C 0.93288 0.36013 0.40881 0.0
C1597 C 0.97985 0.36126 0.42527 0.0
C1598 C 0.98886 0.37256 0.41609 0.0
C1599 C 0.98957 0.35054 0.43495 0.0
C1600 C 0.98081 0.33805 0.44447 0.0
C1601 C 0.96942 0.32793 0.43596 0.0
C1602 C 0.96111 0.31626 0.44504 0.0
C1603 C 0.96417 0.31453 0.46263 0.0
C1604 C 0.9756 0.32445 0.47116 0.0
C1605 C 0.98393 0.33615 0.46213 0.0
H1606 H 0.95772 0.30549 0.46965 0.0
H1607 H 0.03879 0.41975 0.38338 0.0
H1608 H 0.42897 0.86321 0.04616 0.0
H1609 H 0.46125 0.86369 0.04576 0.0
H1610 H 0.4621 0.86209 0.10114 0.0
H1611 H 0.42988 0.86222 0.10167 0.0
H1612 H 0.48476 0.88255 0.08989 0.0
H1613 H 0.47167 0.83069 0.07672 0.0
H1614 H 0.45774 0.80955 0.06102 0.0
H1615 H 0.48345 0.82364 0.01453 0.0
H1616 H 0.49736 0.84502 0.02991 0.0
H1617 H 0.57408 0.86014 0.10242 0.0
H1618 H 0.54175 0.85969 0.10109 0.0
H1619 H 0.54381 0.86956 0.04687 0.0
H1620 H 0.5762 0.87015 0.04816 0.0
H1621 H 0.52 0.84527 0.0566 0.0
H1622 H 0.53362 0.89705 0.07095 0.0
H1623 H 0.5479 0.91741 0.08766 0.0
H1624 H 0.52128 0.90231 0.13326 0.0
H1625 H 0.50704 0.8817 0.11686 0.0
C1626 C 0.43602 0.86306 0.05826 0.0
C1627 C 0.42682 0.86262 0.07395 0.0
C1628 C 0.45448 0.86318 0.058 0.0
C1629 C 0.4641 0.86276 0.07342 0.0
C1630 C 0.45496 0.86238 0.08908 0.0
C1631 C 0.43653 0.86229 0.08935 0.0
C1632 C 0.4837 0.86298 0.07329 0.0
C1633 C 0.49244 0.87428 0.08276 0.0
C1634 C 0.49376 0.85238 0.06373 0.0
C1635 C 0.4854 0.83956 0.05443 0.0
C1636 C 0.47423 0.82937 0.06311 0.0
C1637 C 0.46636 0.81732 0.05428 0.0
C1638 C 0.46966 0.81528 0.03678 0.0
C1639 C 0.48088 0.82526 0.02808 0.0
C1640 C 0.48877 0.83733 0.03685 0.0
C1641 C 0.56762 0.86213 0.09021 0.0
C1642 C 0.57759 0.8652 0.07539 0.0
C1643 C 0.5492 0.86193 0.08948 0.0
C1644 C 0.54045 0.86465 0.07389 0.0
C1645 C 0.55036 0.86745 0.05901 0.0
C1646 C 0.5688 0.86787 0.05978 0.0
C1647 C 0.52093 0.86475 0.07325 0.0
C1648 C 0.51225 0.85354 0.06365 0.0
C1649 C 0.51092 0.87532 0.08283 0.0
C1650 C 0.51941 0.88774 0.09271 0.0
C1651 C 0.53094 0.89798 0.08457 0.0
C1652 C 0.539 0.90958 0.09398 0.0
C1653 C 0.53554 0.91113 0.11152 0.0
C1654 C 0.52397 0.90109 0.11968 0.0
C1655 C 0.51589 0.88945 0.11033 0.0
H1656 H 0.54179 0.92012 0.11879 0.0
H1657 H 0.46356 0.80594 0.02996 0.0
H1658 H 0.57279 0.14613 0.55024 0.0
H1659 H 0.54067 0.1468 0.54923 0.0
H1660 H 0.53843 0.13471 0.6029 0.0
H1661 H 0.57045 0.13276 0.60367 0.0
H1662 H 0.51482 0.1197 0.58732 0.0
H1663 H 0.53089 0.17219 0.58704 0.0
H1664 H 0.54626 0.19525 0.57712 0.0
H1665 H 0.52123 0.19133 0.52783 0.0
H1666 H 0.50588 0.16812 0.53738 0.0
H1667 H 0.42575 0.14303 0.60168 0.0
H1668 H 0.45814 0.1437 0.60181 0.0
H1669 H 0.45856 0.14053 0.54655 0.0
H1670 H 0.42615 0.13958 0.54636 0.0
H1671 H 0.48251 0.16359 0.56266 0.0
H1672 H 0.46648 0.11037 0.56465 0.0
H1673 H 0.45055 0.08832 0.57649 0.0
H1674 H 0.4754 0.09528 0.62544 0.0
H1675 H 0.49127 0.11754 0.61394 0.0
C1676 C 0.56551 0.14339 0.56179 0.0
C1677 C 0.57436 0.13943 0.57706 0.0
C1678 C 0.54708 0.14403 0.56126 0.0
C1679 C 0.53706 0.1411 0.57608 0.0
C1680 C 0.54583 0.13711 0.59131 0.0
C1681 C 0.56423 0.1362 0.59177 0.0
C1682 C 0.51744 0.1418 0.57566 0.0
C1683 C 0.50782 0.12942 0.58213 0.0
C1684 C 0.50818 0.15436 0.56866 0.0
C1685 C 0.51737 0.16833 0.56288 0.0
C1686 C 0.52876 0.17618 0.57404 0.0
C1687 C 0.53746 0.18929 0.56849 0.0
C1688 C 0.53477 0.19473 0.55184 0.0
C1689 C 0.52333 0.18709 0.54072 0.0
C1690 C 0.51461 0.17396 0.5462 0.0
C1691 C 0.43277 0.14263 0.58957 0.0
C1692 C 0.42353 0.14122 0.57401 0.0
C1693 C 0.45121 0.14297 0.58966 0.0
C1694 C 0.46066 0.14212 0.57419 0.0
C1695 C 0.45145 0.14121 0.5586 0.0
C1696 C 0.43301 0.14059 0.55851 0.0
C1697 C 0.48016 0.14158 0.57437 0.0
C1698 C 0.48966 0.15395 0.56785 0.0
C1699 C 0.48933 0.12916 0.58161 0.0
C1700 C 0.47991 0.11571 0.58849 0.0
C1701 C 0.46842 0.10728 0.57798 0.0
C1702 C 0.45943 0.09473 0.58462 0.0
C1703 C 0.46192 0.09043 0.60172 0.0
C1704 C 0.47346 0.09864 0.6122 0.0
C1705 C 0.48246 0.11122 0.60563 0.0
H1706 H 0.45495 0.0807 0.60684 0.0
H1707 H 0.54151 0.20488 0.54756 0.0
H1708 H 0.57269 0.15287 0.90079 0.0
H1709 H 0.54042 0.15344 0.90173 0.0
H1710 H 0.54144 0.13465 0.95289 0.0
H1711 H 0.57371 0.13371 0.95188 0.0
H1712 H 0.51814 0.11995 0.93245 0.0
H1713 H 0.53133 0.1716 0.94678 0.0
H1714 H 0.54528 0.19667 0.94305 0.0
H1715 H 0.51876 0.20224 0.89472 0.0
H1716 H 0.50484 0.1771 0.89804 0.0
H1717 H 0.42675 0.13007 0.94888 0.0
H1718 H 0.45895 0.1316 0.95062 0.0
H1719 H 0.46059 0.15202 0.90027 0.0
H1720 H 0.4284 0.15061 0.89851 0.0
H1721 H 0.4826 0.16627 0.92156 0.0
H1722 H 0.47058 0.1144 0.90638 0.0
H1723 H 0.45678 0.08921 0.90962 0.0
H1724 H 0.48134 0.08393 0.95897 0.0
H1725 H 0.49509 0.1092 0.95613 0.0
C1726 C 0.56604 0.14886 0.91224 0.0
C1727 C 0.57575 0.14324 0.92626 0.0
C1728 C 0.54761 0.14931 0.91282 0.0
C1729 C 0.53854 0.1442 0.92744 0.0
C1730 C 0.54819 0.1387 0.94151 0.0
C1731 C 0.56662 0.13828 0.94096 0.0
C1732 C 0.51897 0.14404 0.92777 0.0
C1733 C 0.51036 0.13012 0.93036 0.0
C1734 C 0.50885 0.15725 0.92461 0.0
C1735 C 0.51717 0.1724 0.92259 0.0
C1736 C 0.52858 0.17811 0.93529 0.0
C1737 C 0.53647 0.19235 0.93326 0.0
C1738 C 0.53294 0.20103 0.91864 0.0
C1739 C 0.52149 0.1955 0.90603 0.0
C1740 C 0.51359 0.18126 0.90799 0.0
C1741 C 0.43399 0.13481 0.93815 0.0
C1742 C 0.42506 0.14015 0.92352 0.0
C1743 C 0.45238 0.13569 0.93916 0.0
C1744 C 0.4622 0.14176 0.92548 0.0
C1745 C 0.45328 0.14732 0.91099 0.0
C1746 C 0.43489 0.14652 0.91001 0.0
C1747 C 0.48177 0.14217 0.92617 0.0
C1748 C 0.49039 0.15612 0.92375 0.0
C1749 C 0.49191 0.12898 0.92942 0.0
C1750 C 0.48371 0.11376 0.93112 0.0
C1751 C 0.47292 0.10792 0.91798 0.0
C1752 C 0.46513 0.09362 0.91973 0.0
C1753 C 0.46814 0.08499 0.93451 0.0
C1754 C 0.47899 0.09064 0.94754 0.0
C1755 C 0.4868 0.10494 0.94586 0.0
H1756 H 0.46209 0.07392 0.93584 0.0
H1757 H 0.53905 0.21205 0.91709 0.0
H1758 H 0.42616 0.83917 0.41017 0.0
H1759 H 0.45846 0.83876 0.41126 0.0
H1760 H 0.45835 0.88191 0.43747 0.0
H1761 H 0.42609 0.88254 0.43611 0.0
H1762 H 0.48218 0.88109 0.41117 0.0
H1763 H 0.46633 0.84982 0.45945 0.0
H1764 H 0.45125 0.82859 0.47397 0.0
H1765 H 0.4784 0.79674 0.44165 0.0
H1766 H 0.49346 0.8178 0.42676 0.0
H1767 H 0.57131 0.8835 0.43652 0.0
H1768 H 0.53915 0.88272 0.43695 0.0
H1769 H 0.54013 0.83792 0.4146 0.0
H1770 H 0.57238 0.83824 0.41502 0.0
H1771 H 0.51572 0.83928 0.4387 0.0
H1772 H 0.5314 0.86994 0.39022 0.0
H1773 H 0.54636 0.89084 0.37499 0.0
H1774 H 0.51941 0.9234 0.40655 0.0
H1775 H 0.50446 0.90268 0.42214 0.0
C1776 C 0.43303 0.8486 0.41609 0.0
C1777 C 0.42359 0.86088 0.42308 0.0
C1778 C 0.45146 0.84829 0.41684 0.0
C1779 C 0.46078 0.86024 0.42458 0.0
C1780 C 0.4514 0.87255 0.43149 0.0
C1781 C 0.43297 0.87283 0.43081 0.0
C1782 C 0.48033 0.8601 0.4252 0.0
C1783 C 0.48953 0.87206 0.41739 0.0
C1784 C 0.48987 0.84808 0.43289 0.0
C1785 C 0.48089 0.8354 0.44188 0.0
C1786 C 0.46897 0.8383 0.45534 0.0
C1787 C 0.46045 0.82629 0.46366 0.0
C1788 C 0.46383 0.81133 0.45871 0.0
C1789 C 0.47578 0.80833 0.44546 0.0
C1790 C 0.48432 0.8203 0.43709 0.0
C1791 C 0.56474 0.87336 0.43196 0.0
C1792 C 0.57449 0.86095 0.42568 0.0
C1793 C 0.54631 0.87302 0.43201 0.0
C1794 C 0.53721 0.86038 0.4255 0.0
C1795 C 0.54687 0.84784 0.41957 0.0
C1796 C 0.56532 0.84811 0.41967 0.0
C1797 C 0.51762 0.86033 0.42473 0.0
C1798 C 0.5084 0.84832 0.43248 0.0
C1799 C 0.50804 0.87226 0.41686 0.0
C1800 C 0.51694 0.88475 0.40745 0.0
C1801 C 0.52876 0.88155 0.39399 0.0
C1802 C 0.53722 0.89337 0.38528 0.0
C1803 C 0.53387 0.90844 0.38983 0.0
C1804 C 0.52201 0.91172 0.40306 0.0
C1805 C 0.51352 0.89995 0.41183 0.0
H1806 H 0.54044 0.91757 0.38307 0.0
H1807 H 0.45722 0.80205 0.46517 0.0
H1808 H 0.19444 0.39002 0.18048 0.0
H1809 H 0.19746 0.38954 0.21171 0.0
H1810 H 0.20295 0.34082 0.2104 0.0
H1811 H 0.20013 0.34121 0.17911 0.0
H1812 H 0.17947 0.34956 0.23435 0.0
H1813 H 0.23837 0.36313 0.21863 0.0
H1814 H 0.26152 0.37786 0.20387 0.0
H1815 H 0.24502 0.41821 0.2303 0.0
H1816 H 0.22159 0.40377 0.24505 0.0
H1817 H 0.20089 0.34292 0.32264 0.0
H1818 H 0.20399 0.34194 0.29136 0.0
H1819 H 0.19687 0.39046 0.28866 0.0
H1820 H 0.19415 0.39157 0.31994 0.0
H1821 H 0.2228 0.38061 0.26677 0.0
H1822 H 0.16279 0.36744 0.28082 0.0
H1823 H 0.1394 0.35288 0.29544 0.0
H1824 H 0.15802 0.31182 0.27189 0.0
H1825 H 0.1817 0.32612 0.2573 0.0
C1826 C 0.19659 0.37922 0.18679 0.0
C1827 C 0.19707 0.36565 0.17729 0.0
C1828 C 0.19828 0.37897 0.20466 0.0
C1829 C 0.20058 0.36516 0.21337 0.0
C1830 C 0.20117 0.3516 0.20393 0.0
C1831 C 0.19949 0.35185 0.18606 0.0
C1832 C 0.20162 0.36482 0.2324 0.0
C1833 C 0.18916 0.35614 0.24143 0.0
C1834 C 0.21401 0.37366 0.24163 0.0
C1835 C 0.22812 0.38239 0.23283 0.0
C1836 C 0.23958 0.37517 0.22119 0.0
C1837 C 0.25277 0.38346 0.21285 0.0
C1838 C 0.25471 0.39897 0.21611 0.0
C1839 C 0.24349 0.4062 0.22777 0.0
C1840 C 0.23026 0.39797 0.23614 0.0
C1841 C 0.20028 0.35341 0.3154 0.0
C1842 C 0.19715 0.36731 0.32374 0.0
C1843 C 0.20193 0.35282 0.29753 0.0
C1844 C 0.20044 0.36611 0.28768 0.0
C1845 C 0.198 0.38007 0.29601 0.0
C1846 C 0.1963 0.38066 0.31387 0.0
C1847 C 0.20062 0.36542 0.26866 0.0
C1848 C 0.21325 0.37393 0.25966 0.0
C1849 C 0.18839 0.35643 0.25942 0.0
C1850 C 0.17413 0.34782 0.26813 0.0
C1851 C 0.16199 0.35529 0.27887 0.0
C1852 C 0.14867 0.34709 0.28713 0.0
C1853 C 0.14726 0.33143 0.28464 0.0
C1854 C 0.15915 0.32395 0.27383 0.0
C1855 C 0.17252 0.33209 0.26556 0.0
H1856 H 0.13693 0.3251 0.29104 0.0
H1857 H 0.26494 0.40537 0.20964 0.0
H1858 H 0.77771 0.62521 0.67689 0.0
H1859 H 0.7756 0.62552 0.70829 0.0
H1860 H 0.83244 0.62513 0.71194 0.0
H1861 H 0.83464 0.6248 0.68068 0.0
H1862 H 0.81867 0.60624 0.73474 0.0
H1863 H 0.8087 0.65793 0.71708 0.0
H1864 H 0.79386 0.67843 0.70106 0.0
H1865 H 0.74474 0.6675 0.72567 0.0
H1866 H 0.75926 0.64678 0.74167 0.0
H1867 H 0.81582 0.65346 0.81793 0.0
H1868 H 0.81343 0.65171 0.7867 0.0
H1869 H 0.79159 0.60668 0.7914 0.0
H1870 H 0.79446 0.60816 0.82267 0.0
H1871 H 0.78666 0.64775 0.76451 0.0
H1872 H 0.808 0.58512 0.75838 0.0
H1873 H 0.82537 0.5661 0.77438 0.0
H1874 H 0.85626 0.60163 0.79726 0.0
H1875 H 0.83925 0.62083 0.78121 0.0
C1876 C 0.78975 0.62523 0.6844 0.0
C1877 C 0.80634 0.62498 0.6763 0.0
C1878 C 0.78852 0.62539 0.70233 0.0
C1879 C 0.80387 0.62547 0.71246 0.0
C1880 C 0.82042 0.62499 0.70439 0.0
C1881 C 0.82166 0.62477 0.68651 0.0
C1882 C 0.80282 0.62634 0.73147 0.0
C1883 C 0.81156 0.61526 0.74123 0.0
C1884 C 0.79375 0.63822 0.73997 0.0
C1885 C 0.78502 0.65071 0.73043 0.0
C1886 C 0.79471 0.65982 0.71898 0.0
C1887 C 0.78636 0.67149 0.70992 0.0
C1888 C 0.76835 0.67424 0.71231 0.0
C1889 C 0.75867 0.66534 0.72381 0.0
C1890 C 0.76696 0.65364 0.73288 0.0
C1891 C 0.81054 0.64317 0.81232 0.0
C1892 C 0.8055 0.63089 0.82277 0.0
C1893 C 0.80902 0.64225 0.79448 0.0
C1894 C 0.8025 0.62901 0.78672 0.0
C1895 C 0.79683 0.61694 0.79713 0.0
C1896 C 0.79836 0.61785 0.81499 0.0
C1897 C 0.80248 0.62764 0.76774 0.0
C1898 C 0.79355 0.63862 0.75799 0.0
C1899 C 0.8117 0.61585 0.75923 0.0
C1900 C 0.8222 0.6044 0.76875 0.0
C1901 C 0.81854 0.58886 0.76678 0.0
C1902 C 0.82832 0.57805 0.77586 0.0
C1903 C 0.84187 0.58266 0.78688 0.0
C1904 C 0.84572 0.59808 0.78878 0.0
C1905 C 0.836 0.60893 0.7797 0.0
H1906 H 0.84941 0.57428 0.79391 0.0
H1907 H 0.76191 0.68328 0.70529 0.0
H1908 H 0.20305 0.60828 0.82345 0.0
H1909 H 0.20482 0.60799 0.79211 0.0
H1910 H 0.1839 0.65342 0.79025 0.0
H1911 H 0.18308 0.65429 0.82156 0.0
H1912 H 0.16608 0.62887 0.76907 0.0
H1913 H 0.22257 0.65232 0.7817 0.0
H1914 H 0.25173 0.65349 0.79572 0.0
H1915 H 0.26667 0.61167 0.77141 0.0
H1916 H 0.23747 0.61013 0.75745 0.0
H1917 H 0.17232 0.64895 0.68246 0.0
H1918 H 0.17466 0.64877 0.71373 0.0
H1919 H 0.21086 0.61101 0.711 0.0
H1920 H 0.20892 0.61146 0.67953 0.0
H1921 H 0.2214 0.62991 0.73491 0.0
H1922 H 0.1669 0.60591 0.72154 0.0
H1923 H 0.13778 0.6028 0.70783 0.0
H1924 H 0.11875 0.64253 0.73388 0.0
H1925 H 0.14786 0.64601 0.74755 0.0
C1926 C 0.1992 0.61837 0.81647 0.0
C1927 C 0.19286 0.6313 0.82517 0.0
C1928 C 0.2001 0.61811 0.79853 0.0
C1929 C 0.19445 0.63067 0.78896 0.0
C1930 C 0.18822 0.6436 0.79749 0.0
C1931 C 0.18763 0.644 0.8154 0.0
C1932 C 0.19442 0.63016 0.77 0.0
C1933 C 0.17813 0.62927 0.76154 0.0
C1934 C 0.21021 0.63008 0.76035 0.0
C1935 C 0.22776 0.63101 0.76871 0.0
C1936 C 0.232 0.64328 0.7795 0.0
C1937 C 0.24855 0.64404 0.7874 0.0
C1938 C 0.26103 0.63263 0.78451 0.0
C1939 C 0.25699 0.62048 0.77367 0.0
C1940 C 0.24044 0.61966 0.76575 0.0
C1941 C 0.18078 0.64061 0.68854 0.0
C1942 C 0.19029 0.63011 0.67862 0.0
C1943 C 0.18208 0.64049 0.70641 0.0
C1944 C 0.19263 0.62965 0.71476 0.0
C1945 C 0.20258 0.61943 0.70485 0.0
C1946 C 0.20147 0.61969 0.68691 0.0
C1947 C 0.19296 0.62891 0.73381 0.0
C1948 C 0.2093 0.62946 0.74235 0.0
C1949 C 0.17719 0.62838 0.74359 0.0
C1950 C 0.15962 0.6263 0.73545 0.0
C1951 C 0.15654 0.61405 0.72425 0.0
C1952 C 0.14003 0.61221 0.7165 0.0
C1953 C 0.12643 0.62248 0.71995 0.0
C1954 C 0.12931 0.63459 0.7312 0.0
C1955 C 0.1458 0.6365 0.73897 0.0
H1956 H 0.11366 0.62103 0.71394 0.0
H1957 H 0.27384 0.63324 0.79063 0.0
H1958 H 0.79144 0.38962 0.17582 0.0
H1959 H 0.7875 0.39058 0.20701 0.0
H1960 H 0.80952 0.34559 0.21146 0.0
H1961 H 0.81299 0.34437 0.18029 0.0
H1962 H 0.78134 0.34923 0.23251 0.0
H1963 H 0.8347 0.37676 0.21868 0.0
H1964 H 0.85206 0.39652 0.20392 0.0
H1965 H 0.81981 0.43115 0.22677 0.0
H1966 H 0.80208 0.41156 0.24148 0.0
H1967 H 0.81228 0.346 0.31781 0.0
H1968 H 0.80872 0.34646 0.28667 0.0
H1969 H 0.78835 0.39212 0.28959 0.0
H1970 H 0.79248 0.39194 0.32078 0.0
H1971 H 0.81251 0.38973 0.2648 0.0
H1972 H 0.76094 0.36219 0.28102 0.0
H1973 H 0.74376 0.34236 0.29586 0.0
H1974 H 0.77242 0.3078 0.26877 0.0
H1975 H 0.78996 0.32741 0.25393 0.0
C1976 C 0.79517 0.37984 0.18342 0.0
C1977 C 0.80265 0.36696 0.1756 0.0
C1978 C 0.79304 0.38045 0.20124 0.0
C1979 C 0.79843 0.36823 0.21156 0.0
C1980 C 0.80533 0.35517 0.20374 0.0
C1981 C 0.80745 0.35454 0.18595 0.0
C1982 C 0.7976 0.3692 0.23056 0.0
C1983 C 0.78824 0.35802 0.2396 0.0
C1984 C 0.80622 0.38092 0.23976 0.0
C1985 C 0.81694 0.39269 0.23102 0.0
C1986 C 0.83122 0.38858 0.22045 0.0
C1987 C 0.84115 0.39975 0.21211 0.0
C1988 C 0.83701 0.41508 0.21437 0.0
C1989 C 0.82297 0.41927 0.22501 0.0
C1990 C 0.81299 0.40814 0.23336 0.0
C1991 C 0.8071 0.35617 0.31184 0.0
C1992 C 0.80271 0.36895 0.32178 0.0
C1993 C 0.80487 0.35635 0.29405 0.0
C1994 C 0.79806 0.36926 0.28581 0.0
C1995 C 0.79354 0.38201 0.29569 0.0
C1996 C 0.79579 0.38185 0.31352 0.0
C1997 C 0.79645 0.36962 0.26682 0.0
C1998 C 0.80538 0.38105 0.25776 0.0
C1999 C 0.78743 0.35813 0.25761 0.0
C2000 C 0.77686 0.34628 0.26645 0.0
C2001 C 0.76367 0.35036 0.27831 0.0
C2002 C 0.75386 0.33916 0.28671 0.0
C2003 C 0.75702 0.32383 0.28328 0.0
C2004 C 0.76999 0.31968 0.27142 0.0
C2005 C 0.77986 0.33083 0.26299 0.0
H2006 H 0.74941 0.31518 0.2898 0.0
H2007 H 0.84471 0.42371 0.2079 0.0
H2008 H 0.68312 0.8468 0.31936 0.0
H2009 H 0.68674 0.84746 0.28815 0.0
H2010 H 0.71038 0.89189 0.29182 0.0
H2011 H 0.70662 0.89136 0.32311 0.0
H2012 H 0.6841 0.89011 0.26704 0.0
H2013 H 0.73602 0.86239 0.28313 0.0
H2014 H 0.75272 0.84217 0.29782 0.0
H2015 H 0.72377 0.8083 0.26991 0.0
H2016 H 0.70672 0.82831 0.25522 0.0
H2017 H 0.70494 0.89267 0.17857 0.0
H2018 H 0.70787 0.89311 0.20975 0.0
H2019 H 0.69132 0.8463 0.2122 0.0
H2020 H 0.68958 0.84542 0.18097 0.0
H2021 H 0.71637 0.85057 0.23426 0.0
H2022 H 0.66269 0.87709 0.22031 0.0
H2023 H 0.64456 0.89657 0.20593 0.0
H2024 H 0.67489 0.93175 0.23014 0.0
H2025 H 0.69337 0.91247 0.24448 0.0
C2026 C 0.6891 0.8567 0.31351 0.0
C2027 C 0.69457 0.86904 0.32365 0.0
C2028 C 0.69128 0.85702 0.29571 0.0
C2029 C 0.69895 0.86967 0.28771 0.0
C2030 C 0.70449 0.88199 0.29778 0.0
C2031 C 0.70244 0.88164 0.31563 0.0
C2032 C 0.70051 0.87022 0.26875 0.0
C2033 C 0.69142 0.88164 0.25985 0.0
C2034 C 0.70968 0.85892 0.25943 0.0
C2035 C 0.72 0.84686 0.26817 0.0
C2036 C 0.73312 0.85063 0.28021 0.0
C2037 C 0.74267 0.8392 0.28853 0.0
C2038 C 0.73928 0.82396 0.28483 0.0
C2039 C 0.72637 0.82011 0.27277 0.0
C2040 C 0.71678 0.83149 0.26443 0.0
C2041 C 0.70225 0.88236 0.18567 0.0
C2042 C 0.69689 0.86903 0.17718 0.0
C2043 C 0.70371 0.8827 0.20357 0.0
C2044 C 0.69947 0.86983 0.21338 0.0
C2045 C 0.69456 0.85641 0.20493 0.0
C2046 C 0.69335 0.85599 0.18704 0.0
C2047 C 0.69975 0.87037 0.23246 0.0
C2048 C 0.70917 0.85915 0.24141 0.0
C2049 C 0.69068 0.88174 0.24185 0.0
C2050 C 0.67952 0.89334 0.23332 0.0
C2051 C 0.66557 0.88898 0.22247 0.0
C2052 C 0.65522 0.89998 0.21434 0.0
C2053 C 0.6586 0.91539 0.21708 0.0
C2054 C 0.67231 0.91982 0.228 0.0
C2055 C 0.68271 0.90886 0.23614 0.0
H2056 H 0.65058 0.92389 0.21077 0.0
H2057 H 0.74668 0.81513 0.29128 0.0
H2058 H 0.32718 0.14908 0.8157 0.0
H2059 H 0.32309 0.14973 0.78466 0.0
H2060 H 0.27717 0.12105 0.78945 0.0
H2061 H 0.28159 0.1199 0.82061 0.0
H2062 H 0.29823 0.11149 0.76398 0.0
H2063 H 0.27273 0.15878 0.78036 0.0
H2064 H 0.27118 0.18353 0.79505 0.0
H2065 H 0.31642 0.19902 0.76681 0.0
H2066 H 0.3184 0.17428 0.75211 0.0
H2067 H 0.27987 0.1212 0.67475 0.0
H2068 H 0.27629 0.12188 0.706 0.0
H2069 H 0.32274 0.14997 0.7103 0.0
H2070 H 0.32605 0.14977 0.67912 0.0
H2071 H 0.29704 0.15983 0.73129 0.0
H2072 H 0.3244 0.11168 0.71761 0.0
H2073 H 0.32636 0.08684 0.70312 0.0
H2074 H 0.27759 0.07305 0.72653 0.0
H2075 H 0.27523 0.09791 0.74098 0.0
C2076 C 0.31626 0.14283 0.81017 0.0
C2077 C 0.30475 0.13438 0.82064 0.0
C2078 C 0.31381 0.14336 0.79243 0.0
C2079 C 0.29968 0.13561 0.78474 0.0
C2080 C 0.28811 0.12719 0.79513 0.0
C2081 C 0.29057 0.12663 0.81293 0.0
C2082 C 0.29751 0.13588 0.7658 0.0
C2083 C 0.29759 0.12206 0.75685 0.0
C2084 C 0.29698 0.14967 0.75647 0.0
C2085 C 0.29578 0.16462 0.76521 0.0
C2086 C 0.28242 0.16742 0.77736 0.0
C2087 C 0.28146 0.18146 0.78568 0.0
C2088 C 0.29371 0.19283 0.78189 0.0
C2089 C 0.30694 0.1902 0.76973 0.0
C2090 C 0.30797 0.17618 0.76139 0.0
C2091 C 0.28918 0.12769 0.68234 0.0
C2092 C 0.30334 0.13533 0.67445 0.0
C2093 C 0.2872 0.12796 0.7002 0.0
C2094 C 0.29938 0.13582 0.71049 0.0
C2095 C 0.31322 0.14379 0.70262 0.0
C2096 C 0.31519 0.14354 0.6848 0.0
C2097 C 0.29813 0.13546 0.72951 0.0
C2098 C 0.29741 0.14927 0.73846 0.0
C2099 C 0.29808 0.12166 0.73883 0.0
C2100 C 0.29954 0.1067 0.73021 0.0
C2101 C 0.31403 0.10339 0.71956 0.0
C2102 C 0.31522 0.08931 0.71137 0.0
C2103 C 0.30208 0.07839 0.71386 0.0
C2104 C 0.28774 0.08153 0.72459 0.0
C2105 C 0.28647 0.09561 0.73278 0.0
H2106 H 0.30303 0.06749 0.70751 0.0
H2107 H 0.29295 0.20369 0.78835 0.0
H2108 H 0.72286 0.13312 0.82471 0.0
H2109 H 0.72636 0.13311 0.79337 0.0
H2110 H 0.66994 0.12878 0.78744 0.0
H2111 H 0.66638 0.12877 0.81856 0.0
H2112 H 0.68679 0.10903 0.76746 0.0
H2113 H 0.69162 0.16255 0.7805 0.0
H2114 H 0.70443 0.185 0.79476 0.0
H2115 H 0.75483 0.17537 0.77196 0.0
H2116 H 0.74236 0.15274 0.75774 0.0
H2117 H 0.66744 0.13063 0.68332 0.0
H2118 H 0.6708 0.13042 0.71444 0.0
H2119 H 0.72745 0.13048 0.70891 0.0
H2120 H 0.72422 0.13038 0.67754 0.0
H2121 H 0.71496 0.15067 0.73443 0.0
H2122 H 0.70895 0.09846 0.71907 0.0
H2123 H 0.6956 0.07644 0.70446 0.0
H2124 H 0.64701 0.08381 0.73163 0.0
H2125 H 0.65999 0.10602 0.74621 0.0
C2126 C 0.71121 0.13231 0.81668 0.0
C2127 C 0.69436 0.13083 0.82409 0.0
C2128 C 0.71323 0.13229 0.79881 0.0
C2129 C 0.6984 0.13096 0.78807 0.0
C2130 C 0.68158 0.12969 0.79547 0.0
C2131 C 0.67957 0.12965 0.81327 0.0
C2132 C 0.70019 0.13055 0.7691 0.0
C2133 C 0.69285 0.11819 0.76025 0.0
C2134 C 0.70863 0.14225 0.75971 0.0
C2135 C 0.71611 0.15586 0.76823 0.0
C2136 C 0.70547 0.16515 0.77865 0.0
C2137 C 0.71266 0.17792 0.7867 0.0
C2138 C 0.73045 0.18158 0.78431 0.0
C2139 C 0.74106 0.1725 0.77382 0.0
C2140 C 0.73394 0.15971 0.76576 0.0
C2141 C 0.68064 0.13043 0.68866 0.0
C2142 C 0.69556 0.13028 0.67792 0.0
C2143 C 0.68253 0.1304 0.70647 0.0
C2144 C 0.69936 0.13023 0.71395 0.0
C2145 C 0.71434 0.13058 0.70335 0.0
C2146 C 0.71246 0.13055 0.68545 0.0
C2147 C 0.70107 0.12939 0.73288 0.0
C2148 C 0.70912 0.14143 0.74169 0.0
C2149 C 0.69324 0.11742 0.74229 0.0
C2150 C 0.68542 0.10398 0.73365 0.0
C2151 C 0.69538 0.09545 0.72184 0.0
C2152 C 0.68788 0.08292 0.71358 0.0
C2153 C 0.67046 0.07874 0.71709 0.0
C2154 C 0.66051 0.08706 0.72891 0.0
C2155 C 0.66793 0.09961 0.7372 0.0
H2156 H 0.66468 0.06904 0.71068 0.0
H2157 H 0.73599 0.19147 0.79055 0.0
H2158 H 0.27649 0.86802 0.17499 0.0
H2159 H 0.27347 0.86658 0.20631 0.0
H2160 H 0.32983 0.87183 0.21176 0.0
H2161 H 0.333 0.87273 0.18064 0.0
H2162 H 0.31797 0.84994 0.23221 0.0
H2163 H 0.30107 0.90149 0.21859 0.0
H2164 H 0.28341 0.92123 0.20414 0.0
H2165 H 0.2362 0.90358 0.22725 0.0
H2166 H 0.25358 0.88359 0.24167 0.0
H2167 H 0.3319 0.87433 0.31649 0.0
H2168 H 0.32888 0.87383 0.28532 0.0
H2169 H 0.27313 0.86492 0.29039 0.0
H2170 H 0.27609 0.86516 0.32177 0.0
H2171 H 0.28101 0.88641 0.26488 0.0
H2172 H 0.29882 0.83633 0.28079 0.0
H2173 H 0.31698 0.81718 0.29565 0.0
H2174 H 0.3629 0.8324 0.26827 0.0
H2175 H 0.34506 0.85182 0.25344 0.0
C2176 C 0.28824 0.86875 0.18288 0.0
C2177 C 0.30497 0.87062 0.17532 0.0
C2178 C 0.28648 0.86806 0.20077 0.0
C2179 C 0.30141 0.86926 0.21138 0.0
C2180 C 0.31812 0.87092 0.20384 0.0
C2181 C 0.31989 0.87159 0.18603 0.0
C2182 C 0.29988 0.86874 0.23038 0.0
C2183 C 0.30997 0.85799 0.23934 0.0
C2184 C 0.28903 0.87893 0.23968 0.0
C2185 C 0.27859 0.89094 0.23104 0.0
C2186 C 0.2869 0.90174 0.22047 0.0
C2187 C 0.27695 0.91299 0.21231 0.0
C2188 C 0.25868 0.91363 0.21473 0.0
C2189 C 0.25034 0.90305 0.22536 0.0
C2190 C 0.26024 0.89176 0.23354 0.0
C2191 C 0.319 0.87216 0.31102 0.0
C2192 C 0.30428 0.86956 0.32162 0.0
C2193 C 0.31728 0.87195 0.29319 0.0
C2194 C 0.30083 0.8691 0.28557 0.0
C2195 C 0.28595 0.86708 0.29605 0.0
C2196 C 0.28766 0.86727 0.31396 0.0
C2197 C 0.29948 0.8679 0.26663 0.0
C2198 C 0.28882 0.87826 0.25771 0.0
C2199 C 0.30985 0.85738 0.25733 0.0
C2200 C 0.32061 0.8456 0.26609 0.0
C2201 C 0.31281 0.83567 0.27802 0.0
C2202 C 0.32305 0.82475 0.28643 0.0
C2203 C 0.34109 0.82359 0.28293 0.0
C2204 C 0.34892 0.83332 0.27098 0.0
C2205 C 0.33875 0.84427 0.26255 0.0
H2206 H 0.349 0.81514 0.28945 0.0
H2207 H 0.251 0.92235 0.20841 0.0
H2208 H 0.25434 0.19542 0.95339 0.0
H2209 H 0.24084 0.21724 0.9677 0.0
H2210 H 0.29218 0.23212 0.98476 0.0
H2211 H 0.30582 0.21047 0.97032 0.0
H2212 H 0.26814 0.23276 0.01057 0.0
H2213 H 0.27176 0.25001 0.95217 0.0
H2214 H 0.26695 0.24858 0.92089 0.0
H2215 H 0.21085 0.24773 0.9288 0.0
H2216 H 0.21533 0.24893 0.96017 0.0
H2217 H 0.24677 0.30726 0.03739 0.0
H2218 H 0.25929 0.28559 0.02207 0.0
H2219 H 0.20708 0.27177 0.00642 0.0
H2220 H 0.1944 0.29331 0.02193 0.0
H2221 H 0.23082 0.2703 0.97993 0.0
H2222 H 0.22713 0.25333 0.03825 0.0
H2223 H 0.23185 0.25475 0.06953 0.0
H2224 H 0.28798 0.25494 0.0618 0.0
H2225 H 0.28359 0.25375 0.03043 0.0
C2226 C 0.26279 0.20344 0.96001 0.0
C2227 C 0.28117 0.2012 0.96072 0.0
C2228 C 0.25504 0.21588 0.96821 0.0
C2229 C 0.26553 0.22634 0.97721 0.0
C2230 C 0.28385 0.22414 0.97795 0.0
C2231 C 0.29161 0.21173 0.96973 0.0
C2232 C 0.2574 0.23947 0.98611 0.0
C2233 C 0.26017 0.24108 0.00384 0.0
C2234 C 0.24662 0.25008 0.97738 0.0
C2235 C 0.24389 0.2494 0.95853 0.0
C2236 C 0.2584 0.24939 0.94725 0.0
C2237 C 0.25574 0.24864 0.9295 0.0
C2238 C 0.23861 0.24802 0.92287 0.0
C2239 C 0.22411 0.24819 0.93397 0.0
C2240 C 0.22671 0.24891 0.95173 0.0
C2241 C 0.23792 0.29955 0.03082 0.0
C2242 C 0.21957 0.30198 0.03097 0.0
C2243 C 0.24511 0.28719 0.02203 0.0
C2244 C 0.23409 0.277 0.01326 0.0
C2245 C 0.21581 0.27952 0.01309 0.0
C2246 C 0.2086 0.29187 0.02192 0.0
C2247 C 0.24168 0.26364 0.00436 0.0
C2248 C 0.23878 0.26197 0.98666 0.0
C2249 C 0.25233 0.25294 0.01311 0.0
C2250 C 0.25502 0.2536 0.03198 0.0
C2251 C 0.24048 0.2538 0.04321 0.0
C2252 C 0.24309 0.25454 0.06096 0.0
C2253 C 0.2602 0.25498 0.06765 0.0
C2254 C 0.27474 0.25463 0.0566 0.0
C2255 C 0.27219 0.25391 0.03883 0.0
H2256 H 0.2622 0.25554 0.0814 0.0
H2257 H 0.23658 0.24745 0.90912 0.0
H2258 H 0.7605 0.70531 0.55619 0.0
H2259 H 0.7482 0.72722 0.54108 0.0
H2260 H 0.77986 0.71654 0.49663 0.0
H2261 H 0.79261 0.69487 0.51184 0.0
H2262 H 0.78108 0.74644 0.50401 0.0
H2263 H 0.73613 0.7086 0.49709 0.0
H2264 H 0.7149 0.68914 0.50666 0.0
H2265 H 0.68763 0.72241 0.537 0.0
H2266 H 0.70885 0.74204 0.52779 0.0
H2267 H 0.73718 0.79513 0.44515 0.0
H2268 H 0.74939 0.7729 0.4597 0.0
H2269 H 0.71758 0.78267 0.50431 0.0
H2270 H 0.70484 0.80461 0.48963 0.0
H2271 H 0.71648 0.75305 0.49653 0.0
H2272 H 0.7616 0.79083 0.50368 0.0
H2273 H 0.78285 0.81028 0.49415 0.0
H2274 H 0.80982 0.77712 0.4634 0.0
H2275 H 0.78857 0.7575 0.47258 0.0
C2276 C 0.76493 0.70768 0.54324 0.0
C2277 C 0.7775 0.69832 0.5352 0.0
C2278 C 0.75777 0.72012 0.53456 0.0
C2279 C 0.76298 0.72341 0.51766 0.0
C2280 C 0.77561 0.71417 0.50964 0.0
C2281 C 0.78276 0.70171 0.5183 0.0
C2282 C 0.75543 0.73662 0.50842 0.0
C2283 C 0.76697 0.74779 0.50216 0.0
C2284 C 0.737 0.73853 0.50636 0.0
C2285 C 0.72419 0.72676 0.51188 0.0
C2286 C 0.72569 0.71174 0.50591 0.0
C2287 C 0.71364 0.70069 0.51125 0.0
C2288 C 0.69995 0.70453 0.52247 0.0
C2289 C 0.69825 0.71945 0.52833 0.0
C2290 C 0.71028 0.73055 0.52304 0.0
C2291 C 0.73268 0.79249 0.45801 0.0
C2292 C 0.72007 0.80168 0.46625 0.0
C2293 C 0.7398 0.77986 0.46637 0.0
C2294 C 0.73454 0.77623 0.48317 0.0
C2295 C 0.72187 0.7853 0.49138 0.0
C2296 C 0.71473 0.79792 0.48302 0.0
C2297 C 0.74212 0.76289 0.49215 0.0
C2298 C 0.73059 0.7517 0.49837 0.0
C2299 C 0.76056 0.76096 0.49418 0.0
C2300 C 0.77339 0.77273 0.48869 0.0
C2301 C 0.77198 0.78771 0.49478 0.0
C2302 C 0.78404 0.79876 0.48946 0.0
C2303 C 0.79765 0.79495 0.47814 0.0
C2304 C 0.79926 0.78006 0.47215 0.0
C2305 C 0.78722 0.76897 0.47742 0.0
H2306 H 0.80698 0.80352 0.47404 0.0
H2307 H 0.69063 0.69595 0.52659 0.0
H2308 H 0.29177 0.78505 0.05458 0.0
H2309 H 0.27822 0.7628 0.04118 0.0
H2310 H 0.25062 0.79187 0.00558 0.0
H2311 H 0.26375 0.81419 0.01922 0.0
H2312 H 0.22929 0.76975 0.01771 0.0
H2313 H 0.28715 0.77309 0.99311 0.0
H2314 H 0.31964 0.7749 0.99334 0.0
H2315 H 0.32295 0.73228 0.01989 0.0
H2316 H 0.29045 0.73032 0.02004 0.0
H2317 H 0.2082 0.71564 0.9531 0.0
H2318 H 0.22069 0.73722 0.96877 0.0
H2319 H 0.2436 0.70656 0.00577 0.0
H2320 H 0.23114 0.68489 0.99011 0.0
H2321 H 0.26716 0.72892 0.99379 0.0
H2322 H 0.20881 0.72546 0.01729 0.0
H2323 H 0.17634 0.72383 0.01621 0.0
H2324 H 0.17401 0.767 0.99072 0.0
H2325 H 0.20651 0.76878 0.99141 0.0
C2326 C 0.28265 0.78671 0.04403 0.0
C2327 C 0.27888 0.80138 0.03792 0.0
C2328 C 0.27504 0.77399 0.03629 0.0
C2329 C 0.26358 0.77568 0.02225 0.0
C2330 C 0.25948 0.79031 0.01636 0.0
C2331 C 0.26711 0.80304 0.02407 0.0
C2332 C 0.256 0.76218 0.01357 0.0
C2333 C 0.23757 0.76091 0.01231 0.0
C2334 C 0.26681 0.7505 0.00683 0.0
C2335 C 0.28636 0.75164 0.00676 0.0
C2336 C 0.2948 0.76417 0.99913 0.0
C2337 C 0.31322 0.76521 0.99917 0.0
C2338 C 0.32335 0.75373 0.00667 0.0
C2339 C 0.31508 0.74117 0.01411 0.0
C2340 C 0.29666 0.74008 0.01413 0.0
C2341 C 0.21595 0.71351 0.96454 0.0
C2342 C 0.21871 0.69861 0.97041 0.0
C2343 C 0.22297 0.72583 0.97353 0.0
C2344 C 0.23296 0.72346 0.98847 0.0
C2345 C 0.23588 0.7086 0.99428 0.0
C2346 C 0.22869 0.69627 0.9854 0.0
C2347 C 0.24049 0.73654 0.99791 0.0
C2348 C 0.25889 0.73774 0.99927 0.0
C2349 C 0.22967 0.74819 0.00465 0.0
C2350 C 0.21011 0.74718 0.00425 0.0
C2351 C 0.20139 0.73454 0.01131 0.0
C2352 C 0.18297 0.7336 0.0108 0.0
C2353 C 0.17312 0.74529 0.00336 0.0
C2354 C 0.18166 0.75795 0.99646 0.0
C2355 C 0.20008 0.75894 0.99692 0.0
H2356 H 0.15886 0.74454 0.00298 0.0
H2357 H 0.33761 0.75456 0.00667 0.0
H2358 H 0.69819 0.21691 0.54603 0.0
H2359 H 0.71091 0.23909 0.53192 0.0
H2360 H 0.75397 0.21165 0.51315 0.0
H2361 H 0.74187 0.18959 0.52801 0.0
H2362 H 0.76611 0.23782 0.52381 0.0
H2363 H 0.71858 0.22204 0.48725 0.0
H2364 H 0.68794 0.21503 0.48004 0.0
H2365 H 0.67012 0.25925 0.49544 0.0
H2366 H 0.70064 0.26646 0.50297 0.0
H2367 H 0.7953 0.2854 0.45583 0.0
H2368 H 0.7824 0.26442 0.47219 0.0
H2369 H 0.74546 0.29537 0.49567 0.0
H2370 H 0.75829 0.31644 0.47927 0.0
H2371 H 0.72995 0.26827 0.48333 0.0
H2372 H 0.77864 0.28396 0.51869 0.0
H2373 H 0.8097 0.29047 0.52468 0.0
H2374 H 0.82575 0.24558 0.50995 0.0
H2375 H 0.79479 0.23886 0.50362 0.0
C2376 C 0.71051 0.21561 0.53912 0.0
C2377 C 0.71895 0.20141 0.53811 0.0
C2378 C 0.71765 0.22829 0.53087 0.0
C2379 C 0.73324 0.22699 0.52122 0.0
C2380 C 0.74187 0.21291 0.52043 0.0
C2381 C 0.73482 0.20026 0.5288 0.0
C2382 C 0.74057 0.24028 0.5119 0.0
C2383 C 0.75824 0.24436 0.51481 0.0
C2384 C 0.73023 0.24902 0.5004 0.0
C2385 C 0.71187 0.24473 0.49585 0.0
C2386 C 0.70811 0.23023 0.48923 0.0
C2387 C 0.69077 0.22623 0.48506 0.0
C2388 C 0.67709 0.23667 0.48733 0.0
C2389 C 0.68073 0.25116 0.49372 0.0
C2390 C 0.69804 0.25521 0.49793 0.0
C2391 C 0.78437 0.28771 0.46441 0.0
C2392 C 0.77779 0.30254 0.4663 0.0
C2393 C 0.77709 0.27575 0.47382 0.0
C2394 C 0.76307 0.27839 0.4852 0.0
C2395 C 0.75631 0.29314 0.48696 0.0
C2396 C 0.76371 0.30515 0.47769 0.0
C2397 C 0.75544 0.26569 0.4952 0.0
C2398 C 0.73774 0.26174 0.4924 0.0
C2399 C 0.7658 0.25697 0.50664 0.0
C2400 C 0.78441 0.26096 0.51053 0.0
C2401 C 0.78881 0.27552 0.51659 0.0
C2402 C 0.80639 0.27924 0.52007 0.0
C2403 C 0.81969 0.26846 0.51766 0.0
C2404 C 0.81543 0.25392 0.51179 0.0
C2405 C 0.79787 0.25015 0.50827 0.0
H2406 H 0.8333 0.27136 0.52036 0.0
H2407 H 0.66367 0.23355 0.4841 0.0
H2408 H 0.72663 0.81367 0.01099 0.0
H2409 H 0.73896 0.79189 0.99563 0.0
H2410 H 0.72117 0.76211 0.03611 0.0
H2411 H 0.70922 0.78393 0.0517 0.0
H2412 H 0.75316 0.75484 0.02751 0.0
H2413 H 0.69993 0.76455 0.99613 0.0
H2414 H 0.67846 0.7799 0.97985 0.0
H2415 H 0.71758 0.78882 0.94124 0.0
H2416 H 0.73937 0.77369 0.95741 0.0
H2417 H 0.76393 0.68549 0.98239 0.0
H2418 H 0.75049 0.70732 0.99663 0.0
H2419 H 0.77502 0.73735 0.95998 0.0
H2420 H 0.7889 0.71561 0.94587 0.0
H2421 H 0.73958 0.74433 0.9663 0.0
H2422 H 0.79267 0.73425 0.9984 0.0
H2423 H 0.8134 0.71824 0.01478 0.0
H2424 H 0.77318 0.70927 0.05229 0.0
H2425 H 0.75211 0.72505 0.03599 0.0
C2426 C 0.72525 0.80245 0.01652 0.0
C2427 C 0.71696 0.80047 0.03251 0.0
C2428 C 0.73226 0.79001 0.00773 0.0
C2429 C 0.73078 0.77531 0.01459 0.0
C2430 C 0.72248 0.77333 0.03056 0.0
C2431 C 0.71568 0.78579 0.03946 0.0
C2432 C 0.73827 0.76203 0.00535 0.0
C2433 C 0.74996 0.75244 0.0142 0.0
C2434 C 0.73442 0.75904 0.98786 0.0
C2435 C 0.72133 0.7681 0.97807 0.0
C2436 C 0.70399 0.76988 0.98424 0.0
C2437 C 0.69176 0.77852 0.97501 0.0
C2438 C 0.69666 0.78536 0.95954 0.0
C2439 C 0.7138 0.78353 0.95323 0.0
C2440 C 0.7261 0.77491 0.96242 0.0
C2441 C 0.76661 0.69673 0.97742 0.0
C2442 C 0.77762 0.69879 0.96304 0.0
C2443 C 0.75884 0.70919 0.98553 0.0
C2444 C 0.7619 0.72394 0.97944 0.0
C2445 C 0.77249 0.72604 0.96485 0.0
C2446 C 0.78035 0.71359 0.95677 0.0
C2447 C 0.75433 0.7372 0.98851 0.0
C2448 C 0.74269 0.74677 0.97962 0.0
C2449 C 0.75808 0.74011 0.006 0.0
C2450 C 0.77077 0.73071 0.01589 0.0
C2451 C 0.7882 0.72877 0.01007 0.0
C2452 C 0.80002 0.71975 0.01935 0.0
C2453 C 0.7946 0.71271 0.03454 0.0
C2454 C 0.77736 0.71471 0.04051 0.0
C2455 C 0.76548 0.7237 0.03127 0.0
H2456 H 0.80377 0.70574 0.04171 0.0
H2457 H 0.68717 0.79205 0.95242 0.0
H2458 H 0.27736 0.18712 0.50591 0.0
H2459 H 0.26444 0.20922 0.49169 0.0
H2460 H 0.26251 0.23288 0.54014 0.0
H2461 H 0.2757 0.21093 0.55444 0.0
H2462 H 0.23169 0.23578 0.52178 0.0
H2463 H 0.29409 0.24133 0.51168 0.0
H2464 H 0.3235 0.23299 0.50189 0.0
H2465 H 0.3036 0.22724 0.45066 0.0
H2466 H 0.27399 0.23534 0.4602 0.0
H2467 H 0.21496 0.30985 0.49087 0.0
H2468 H 0.22788 0.28761 0.50484 0.0
H2469 H 0.23467 0.26622 0.4554 0.0
H2470 H 0.22211 0.28862 0.44136 0.0
H2471 H 0.26287 0.26181 0.4741 0.0
H2472 H 0.20073 0.25611 0.48355 0.0
H2473 H 0.17097 0.26392 0.49288 0.0
H2474 H 0.18967 0.2692 0.5446 0.0
H2475 H 0.21961 0.26163 0.53553 0.0
C2476 C 0.27434 0.19707 0.51353 0.0
C2477 C 0.27763 0.19726 0.53132 0.0
C2478 C 0.2669 0.20967 0.50538 0.0
C2479 C 0.26266 0.22273 0.51484 0.0
C2480 C 0.26565 0.22289 0.53262 0.0
C2481 C 0.27313 0.21031 0.54078 0.0
C2482 C 0.25515 0.23626 0.50619 0.0
C2483 C 0.23859 0.24161 0.5115 0.0
C2484 C 0.26397 0.24357 0.49247 0.0
C2485 C 0.28179 0.2388 0.48669 0.0
C2486 C 0.29595 0.23817 0.49835 0.0
C2487 C 0.31266 0.23351 0.49284 0.0
C2488 C 0.3154 0.22955 0.47567 0.0
C2489 C 0.30145 0.23029 0.46396 0.0
C2490 C 0.28471 0.23492 0.46941 0.0
C2491 C 0.21915 0.30037 0.483 0.0
C2492 C 0.21747 0.30092 0.46504 0.0
C2493 C 0.22649 0.28765 0.49099 0.0
C2494 C 0.23198 0.27511 0.4812 0.0
C2495 C 0.23052 0.27574 0.46323 0.0
C2496 C 0.22337 0.28854 0.45522 0.0
C2497 C 0.23936 0.2614 0.48968 0.0
C2498 C 0.25592 0.256 0.48435 0.0
C2499 C 0.23047 0.25396 0.5033 0.0
C2500 C 0.21245 0.25844 0.50882 0.0
C2501 C 0.19852 0.25904 0.49689 0.0
C2502 C 0.18162 0.26341 0.50214 0.0
C2503 C 0.17844 0.26709 0.51932 0.0
C2504 C 0.19216 0.26637 0.5313 0.0
C2505 C 0.20909 0.26202 0.52611 0.0
H2506 H 0.16535 0.27048 0.52336 0.0
H2507 H 0.32835 0.22594 0.47143 0.0
H2508 H 0.76484 0.31384 0.0156 0.0
H2509 H 0.75248 0.29175 0.00086 0.0
H2510 H 0.784 0.26209 0.03254 0.0
H2511 H 0.79679 0.28415 0.04701 0.0
H2512 H 0.78502 0.25367 0.99908 0.0
H2513 H 0.74048 0.26651 0.04049 0.0
H2514 H 0.71948 0.28336 0.0554 0.0
H2515 H 0.6919 0.29111 0.00802 0.0
H2516 H 0.71289 0.27446 0.99278 0.0
H2517 H 0.74075 0.18464 0.97998 0.0
H2518 H 0.75339 0.2067 0.99453 0.0
H2519 H 0.72071 0.23638 0.96402 0.0
H2520 H 0.70753 0.21438 0.94987 0.0
H2521 H 0.72036 0.24481 0.99691 0.0
H2522 H 0.76477 0.23207 0.95542 0.0
H2523 H 0.78579 0.21535 0.94036 0.0
H2524 H 0.81364 0.20758 0.98759 0.0
H2525 H 0.79263 0.2241 0.00299 0.0
C2526 C 0.76923 0.30262 0.01934 0.0
C2527 C 0.78175 0.30074 0.03251 0.0
C2528 C 0.76205 0.29001 0.01101 0.0
C2529 C 0.76719 0.27527 0.01573 0.0
C2530 C 0.77981 0.27336 0.02874 0.0
C2531 C 0.78698 0.28597 0.0371 0.0
C2532 C 0.75949 0.26185 0.00702 0.0
C2533 C 0.7709 0.25161 0.99879 0.0
C2534 C 0.74104 0.25938 0.00632 0.0
C2535 C 0.72837 0.26935 0.01546 0.0
C2536 C 0.73002 0.2719 0.03323 0.0
C2537 C 0.71811 0.2814 0.04174 0.0
C2538 C 0.70439 0.28833 0.03265 0.0
C2539 C 0.70254 0.28575 0.01504 0.0
C2540 C 0.71444 0.27627 0.00646 0.0
C2541 C 0.73616 0.19586 0.97644 0.0
C2542 C 0.72316 0.19774 0.96372 0.0
C2543 C 0.74353 0.20846 0.98466 0.0
C2544 C 0.73815 0.2232 0.98022 0.0
C2545 C 0.72512 0.22512 0.9676 0.0
C2546 C 0.71772 0.21253 0.95941 0.0
C2547 C 0.74588 0.23663 0.98893 0.0
C2548 C 0.73448 0.24686 0.99718 0.0
C2549 C 0.76433 0.23911 0.98962 0.0
C2550 C 0.77702 0.2292 0.98039 0.0
C2551 C 0.77529 0.2267 0.96262 0.0
C2552 C 0.78722 0.21728 0.95402 0.0
C2553 C 0.80102 0.21037 0.96302 0.0
C2554 C 0.80294 0.21292 0.98064 0.0
C2555 C 0.79103 0.22232 0.98931 0.0
H2556 H 0.81024 0.20308 0.95634 0.0
H2557 H 0.69518 0.29568 0.03927 0.0
H2558 H 0.2222 0.71385 0.55931 0.0
H2559 H 0.23411 0.73585 0.54409 0.0
H2560 H 0.22875 0.71213 0.49593 0.0
H2561 H 0.2164 0.69021 0.51095 0.0
H2562 H 0.2613 0.72632 0.49975 0.0
H2563 H 0.19961 0.73865 0.50605 0.0
H2564 H 0.17202 0.74254 0.52228 0.0
H2565 H 0.19687 0.77757 0.55206 0.0
H2566 H 0.2247 0.77373 0.53617 0.0
H2567 H 0.27524 0.78666 0.44236 0.0
H2568 H 0.26195 0.7655 0.45801 0.0
H2569 H 0.2614 0.79246 0.50431 0.0
H2570 H 0.27424 0.81384 0.48849 0.0
H2571 H 0.23212 0.77671 0.50224 0.0
H2572 H 0.2935 0.76498 0.4967 0.0
H2573 H 0.32172 0.76121 0.48149 0.0
H2574 H 0.29864 0.72524 0.4518 0.0
H2575 H 0.2702 0.72894 0.46668 0.0
C2576 C 0.22336 0.71335 0.54546 0.0
C2577 C 0.21827 0.70025 0.53636 0.0
C2578 C 0.23024 0.72591 0.5368 0.0
C2579 C 0.23217 0.72564 0.51889 0.0
C2580 C 0.22738 0.71254 0.50978 0.0
C2581 C 0.22041 0.69999 0.51841 0.0
C2582 C 0.23924 0.739 0.50962 0.0
C2583 C 0.25482 0.7373 0.5001 0.0
C2584 C 0.23104 0.75341 0.51055 0.0
C2585 C 0.21429 0.75579 0.52004 0.0
C2586 C 0.19923 0.7471 0.51616 0.0
C2587 C 0.18354 0.74931 0.52528 0.0
C2588 C 0.1827 0.76027 0.53822 0.0
C2589 C 0.19754 0.76907 0.54205 0.0
C2590 C 0.21327 0.76689 0.53298 0.0
C2591 C 0.27222 0.78806 0.45587 0.0
C2592 C 0.27587 0.80181 0.46427 0.0
C2593 C 0.26469 0.77596 0.46482 0.0
C2594 C 0.26103 0.77726 0.48244 0.0
C2595 C 0.26417 0.79117 0.49074 0.0
C2596 C 0.27149 0.80336 0.48171 0.0
C2597 C 0.25418 0.76404 0.49222 0.0
C2598 C 0.23865 0.76575 0.50188 0.0
C2599 C 0.26255 0.74966 0.49158 0.0
C2600 C 0.27967 0.74733 0.4827 0.0
C2601 C 0.29441 0.75633 0.48685 0.0
C2602 C 0.31045 0.7542 0.4783 0.0
C2603 C 0.31196 0.74301 0.46566 0.0
C2604 C 0.29744 0.73391 0.46158 0.0
C2605 C 0.28137 0.73601 0.47008 0.0
H2606 H 0.32439 0.74138 0.45905 0.0
H2607 H 0.17054 0.76196 0.54527 0.0
H2608 H 0.20212 0.56594 0.99102 0.0
H2609 H 0.20535 0.54183 0.00623 0.0
H2610 H 0.20922 0.51826 0.95778 0.0
H2611 H 0.20581 0.54235 0.94251 0.0
H2612 H 0.18627 0.50469 0.97782 0.0
H2613 H 0.24537 0.52283 0.98476 0.0
H2614 H 0.26865 0.54113 0.99261 0.0
H2615 H 0.25086 0.5407 0.04497 0.0
H2616 H 0.22731 0.52255 0.03739 0.0
H2617 H 0.20599 0.43319 0.0138 0.0
H2618 H 0.20975 0.45699 0.99812 0.0
H2619 H 0.20226 0.48217 0.04507 0.0
H2620 H 0.19903 0.45837 0.06097 0.0
H2621 H 0.22844 0.49446 0.02519 0.0
H2622 H 0.16844 0.47753 0.01771 0.0
H2623 H 0.14516 0.45922 0.00988 0.0
H2624 H 0.16493 0.45751 0.95823 0.0
H2625 H 0.1885 0.47566 0.96583 0.0
C2626 C 0.20399 0.55565 0.98362 0.0
C2627 C 0.20368 0.55602 0.96557 0.0
C2628 C 0.20585 0.54187 0.99233 0.0
C2629 C 0.20767 0.52823 0.98316 0.0
C2630 C 0.2078 0.52863 0.96513 0.0
C2631 C 0.20582 0.54239 0.95642 0.0
C2632 C 0.20827 0.51345 0.99232 0.0
C2633 C 0.19572 0.50237 0.98796 0.0
C2634 C 0.22029 0.51054 0.00586 0.0
C2635 C 0.23447 0.52143 0.01047 0.0
C2636 C 0.24633 0.52673 0.99792 0.0
C2637 C 0.25959 0.53706 0.00233 0.0
C2638 C 0.26121 0.5421 0.01927 0.0
C2639 C 0.24959 0.5368 0.03185 0.0
C2640 C 0.23629 0.52647 0.02751 0.0
C2641 C 0.20547 0.44377 0.02086 0.0
C2642 C 0.2021 0.44388 0.03863 0.0
C2643 C 0.20748 0.45737 0.01185 0.0
C2644 C 0.20604 0.47134 0.02039 0.0
C2645 C 0.20335 0.4715 0.03822 0.0
C2646 C 0.20135 0.4579 0.04725 0.0
C2647 C 0.20649 0.48579 0.01062 0.0
C2648 C 0.21914 0.49679 0.01493 0.0
C2649 C 0.19457 0.48865 0.997 0.0
C2650 C 0.18034 0.47783 0.99238 0.0
C2651 C 0.1679 0.47316 0.00472 0.0
C2652 C 0.15464 0.46283 0.00031 0.0
C2653 C 0.1536 0.45718 0.98358 0.0
C2654 C 0.16578 0.46188 0.97119 0.0
C2655 C 0.17908 0.4722 0.97554 0.0
H2656 H 0.14332 0.44918 0.98019 0.0
H2657 H 0.27148 0.5501 0.02266 0.0
H2658 H 0.8122 0.56393 0.50815 0.0
H2659 H 0.8083 0.53953 0.49381 0.0
H2660 H 0.7847 0.5211 0.53973 0.0
H2661 H 0.78913 0.54539 0.55439 0.0
H2662 H 0.80893 0.5022 0.52701 0.0
H2663 H 0.75945 0.52906 0.50446 0.0
H2664 H 0.74372 0.55034 0.49072 0.0
H2665 H 0.77465 0.54451 0.44497 0.0
H2666 H 0.79075 0.52332 0.45853 0.0
H2667 H 0.78776 0.43327 0.48418 0.0
H2668 H 0.78371 0.4573 0.49948 0.0
H2669 H 0.80914 0.4812 0.45793 0.0
H2670 H 0.8128 0.45732 0.44238 0.0
H2671 H 0.7806 0.49665 0.46988 0.0
H2672 H 0.83196 0.47175 0.49363 0.0
H2673 H 0.84802 0.45064 0.50738 0.0
H2674 H 0.81339 0.45303 0.55097 0.0
H2675 H 0.79697 0.47403 0.53736 0.0
C2676 C 0.80621 0.55468 0.51522 0.0
C2677 C 0.80102 0.55659 0.53243 0.0
C2678 C 0.80381 0.54078 0.50695 0.0
C2679 C 0.79601 0.52853 0.51563 0.0
C2680 C 0.79066 0.53043 0.53276 0.0
C2681 C 0.79308 0.54434 0.54107 0.0
C2682 C 0.79431 0.51357 0.50704 0.0
C2683 C 0.80241 0.50093 0.51468 0.0
C2684 C 0.7861 0.51196 0.49081 0.0
C2685 C 0.7764 0.52467 0.48257 0.0
C2686 C 0.76299 0.53239 0.49152 0.0
C2687 C 0.75399 0.54442 0.48375 0.0
C2688 C 0.7582 0.54879 0.467 0.0
C2689 C 0.7714 0.54111 0.45796 0.0
C2690 C 0.78045 0.52908 0.46567 0.0
C2691 C 0.79223 0.44368 0.47818 0.0
C2692 C 0.80073 0.44339 0.46213 0.0
C2693 C 0.79002 0.45737 0.487 0.0
C2694 C 0.79633 0.471 0.47993 0.0
C2695 C 0.80423 0.47081 0.46364 0.0
C2696 C 0.80645 0.45714 0.45484 0.0
C2697 C 0.79542 0.4854 0.48975 0.0
C2698 C 0.78688 0.49792 0.48233 0.0
C2699 C 0.80322 0.48691 0.50618 0.0
C2700 C 0.81312 0.47433 0.5144 0.0
C2701 C 0.82768 0.46769 0.50609 0.0
C2702 C 0.83686 0.45576 0.51386 0.0
C2703 C 0.83169 0.45046 0.53002 0.0
C2704 C 0.81736 0.45712 0.53845 0.0
C2705 C 0.80812 0.46904 0.53071 0.0
H2706 H 0.83882 0.44123 0.53602 0.0
H2707 H 0.75122 0.55811 0.46101 0.0
H2708 H 0.77969 0.44449 0.0368 0.0
H2709 H 0.77728 0.46875 0.02161 0.0
H2710 H 0.83396 0.47352 0.02282 0.0
H2711 H 0.83646 0.44935 0.03792 0.0
H2712 H 0.81822 0.49965 0.03106 0.0
H2713 H 0.81219 0.46187 0.98652 0.0
H2714 H 0.79885 0.43955 0.97248 0.0
H2715 H 0.74895 0.46257 0.96987 0.0
H2716 H 0.76195 0.48496 0.98411 0.0
H2717 H 0.83614 0.55289 0.96628 0.0
H2718 H 0.83367 0.52949 0.98288 0.0
H2719 H 0.77688 0.53216 0.98008 0.0
H2720 H 0.77926 0.55554 0.9631 0.0
H2721 H 0.78951 0.50315 0.9739 0.0
H2722 H 0.79643 0.54181 0.01635 0.0
H2723 H 0.81013 0.56416 0.02998 0.0
H2724 H 0.85858 0.53949 0.03637 0.0
H2725 H 0.84526 0.51705 0.02253 0.0
C2726 C 0.79163 0.45069 0.03375 0.0
C2727 C 0.80826 0.445 0.03858 0.0
C2728 C 0.79024 0.46455 0.02509 0.0
C2729 C 0.80546 0.47289 0.02096 0.0
C2730 C 0.82204 0.46731 0.02594 0.0
C2731 C 0.82344 0.45351 0.03463 0.0
C2732 C 0.80428 0.48739 0.01134 0.0
C2733 C 0.81207 0.50038 0.0185 0.0
C2734 C 0.7958 0.48845 0.99517 0.0
C2735 C 0.78799 0.47502 0.98656 0.0
C2736 C 0.79834 0.46212 0.98308 0.0
C2737 C 0.79085 0.44947 0.97506 0.0
C2738 C 0.77305 0.44963 0.97033 0.0
C2739 C 0.76272 0.46246 0.97357 0.0
C2740 C 0.77015 0.47513 0.9816 0.0
C2741 C 0.82312 0.54842 0.96901 0.0
C2742 C 0.80789 0.55605 0.96336 0.0
C2743 C 0.82173 0.53512 0.97864 0.0
C2744 C 0.80509 0.5292 0.98288 0.0
C2745 C 0.78984 0.5366 0.977 0.0
C2746 C 0.79122 0.54998 0.96741 0.0
C2747 C 0.80378 0.51529 0.99349 0.0
C2748 C 0.7955 0.50244 0.98654 0.0
C2749 C 0.81184 0.51434 0.00985 0.0
C2750 C 0.81988 0.52778 0.01827 0.0
C2751 C 0.81005 0.54118 0.02054 0.0
C2752 C 0.81774 0.55386 0.02832 0.0
C2753 C 0.83523 0.55325 0.034 0.0
C2754 C 0.84505 0.53995 0.03195 0.0
C2755 C 0.83742 0.52724 0.02415 0.0
H2756 H 0.84116 0.56308 0.04003 0.0
H2757 H 0.76727 0.43982 0.96413 0.0
H2758 H 0.21989 0.44067 0.47196 0.0
H2759 H 0.22277 0.46539 0.48621 0.0
H2760 H 0.17024 0.47739 0.46966 0.0
H2761 H 0.16735 0.45282 0.45529 0.0
H2762 H 0.19434 0.50075 0.46517 0.0
H2763 H 0.17651 0.46553 0.5095 0.0
H2764 H 0.17926 0.44237 0.52709 0.0
H2765 H 0.22998 0.45723 0.54514 0.0
H2766 H 0.22763 0.48039 0.52744 0.0
H2767 H 0.16793 0.55964 0.52032 0.0
H2768 H 0.17117 0.53591 0.5045 0.0
H2769 H 0.22217 0.52874 0.52779 0.0
H2770 H 0.21879 0.55235 0.54412 0.0
H2771 H 0.2026 0.50317 0.52834 0.0
H2772 H 0.21937 0.53956 0.48623 0.0
H2773 H 0.21679 0.56276 0.4687 0.0
H2774 H 0.16882 0.54591 0.44631 0.0
H2775 H 0.17097 0.5227 0.4639 0.0
C2776 C 0.20904 0.44865 0.47124 0.0
C2777 C 0.19335 0.4448 0.46262 0.0
C2778 C 0.21066 0.46271 0.47945 0.0
C2779 C 0.19666 0.47315 0.47908 0.0
C2780 C 0.18118 0.46947 0.47011 0.0
C2781 C 0.1795 0.4554 0.46203 0.0
C2782 C 0.19787 0.4878 0.48836 0.0
C2783 C 0.19602 0.5013 0.479 0.0
C2784 C 0.2006 0.48848 0.50632 0.0
C2785 C 0.20199 0.47459 0.51699 0.0
C2786 C 0.18832 0.46379 0.5171 0.0
C2787 C 0.18979 0.45068 0.52711 0.0
C2788 C 0.20481 0.44831 0.53718 0.0
C2789 C 0.21837 0.45907 0.5373 0.0
C2790 C 0.21697 0.47219 0.52729 0.0
C2791 C 0.1798 0.55298 0.52218 0.0
C2792 C 0.19308 0.55786 0.53353 0.0
C2793 C 0.18172 0.53949 0.51298 0.0
C2794 C 0.19701 0.53064 0.5148 0.0
C2795 C 0.2103 0.53544 0.52613 0.0
C2796 C 0.2084 0.54897 0.53536 0.0
C2797 C 0.19876 0.51617 0.5052 0.0
C2798 C 0.20115 0.50268 0.51449 0.0
C2799 C 0.1966 0.5155 0.48715 0.0
C2800 C 0.19526 0.52943 0.4765 0.0
C2801 C 0.20819 0.54085 0.47767 0.0
C2802 C 0.20682 0.55399 0.4677 0.0
C2803 C 0.19263 0.55582 0.45642 0.0
C2804 C 0.1798 0.54448 0.45506 0.0
C2805 C 0.1811 0.53132 0.46502 0.0
H2806 H 0.19159 0.566 0.44872 0.0
H2807 H 0.20592 0.43815 0.54493 0.0
H2808 H 0.68752 0.04153 0.94196 0.0
H2809 H 0.69213 0.0171 0.95615 0.0
H2810 H 0.71598 0.03997 0.99934 0.0
H2811 H 0.71186 0.06446 0.98486 0.0
H2812 H 0.73257 0.01391 0.99341 0.0
H2813 H 0.67239 0.02925 0.0 0.0
H2814 H 0.64308 0.03802 0.99045 0.0
H2815 H 0.63676 0.99759 0.96027 0.0
H2816 H 0.66618 0.98868 0.96944 0.0
H2817 H 0.71281 0.95575 0.05558 0.0
H2818 H 0.7152 0.97942 0.03916 0.0
H2819 H 0.69845 0.9559 0.99338 0.0
H2820 H 0.69602 0.93224 0.00971 0.0
H2821 H 0.67896 0.98217 0.00078 0.0
H2822 H 0.73966 0.96669 0.99605 0.0
H2823 H 0.76863 0.95845 0.00708 0.0
H2824 H 0.77323 0.99974 0.03603 0.0
H2825 H 0.74416 0.00815 0.02536 0.0
C2826 C 0.6939 0.0413 0.95441 0.0
C2827 C 0.69916 0.05484 0.96243 0.0
C2828 C 0.6965 0.02736 0.96252 0.0
C2829 C 0.70402 0.02673 0.97899 0.0
C2830 C 0.71008 0.04019 0.98667 0.0
C2831 C 0.70772 0.05415 0.97842 0.0
C2832 C 0.70464 0.01214 0.98851 0.0
C2833 C 0.72081 0.00705 0.99518 0.0
C2834 C 0.68933 0.0031 0.99071 0.0
C2835 C 0.67156 0.00837 0.98528 0.0
C2836 C 0.6648 0.02228 0.99123 0.0
C2837 C 0.64817 0.02727 0.9859 0.0
C2838 C 0.63808 0.01839 0.97473 0.0
C2839 C 0.6446 0.00447 0.9689 0.0
C2840 C 0.66125 0.99944 0.97417 0.0
C2841 C 0.70981 0.95563 0.04198 0.0
C2842 C 0.70423 0.94218 0.03391 0.0
C2843 C 0.71128 0.9691 0.03261 0.0
C2844 C 0.70706 0.96936 0.01506 0.0
C2845 C 0.70182 0.9559 0.00691 0.0
C2846 C 0.70054 0.94239 0.01622 0.0
C2847 C 0.70689 0.98388 0.00548 0.0
C2848 C 0.69073 0.989 0.99891 0.0
C2849 C 0.72215 0.993 0.00364 0.0
C2850 C 0.73964 0.98798 0.01004 0.0
C2851 C 0.74677 0.97396 0.00489 0.0
C2852 C 0.76323 0.96927 0.01105 0.0
C2853 C 0.77275 0.97855 0.02228 0.0
C2854 C 0.76584 0.99256 0.02734 0.0
C2855 C 0.74938 0.9973 0.02123 0.0
H2856 H 0.78549 0.9749 0.02703 0.0
H2857 H 0.6252 0.02227 0.97061 0.0
H2858 H 0.33023 0.9431 0.47166 0.0
H2859 H 0.32696 0.96646 0.48796 0.0
H2860 H 0.27062 0.96531 0.47985 0.0
H2861 H 0.2739 0.94216 0.46266 0.0
H2862 H 0.28274 0.99328 0.47534 0.0
H2863 H 0.28838 0.95619 0.51914 0.0
H2864 H 0.30102 0.93419 0.53436 0.0
H2865 H 0.3497 0.95836 0.54148 0.0
H2866 H 0.33746 0.98044 0.52609 0.0
H2867 H 0.27591 0.054 0.53785 0.0
H2868 H 0.27196 0.02946 0.52352 0.0
H2869 H 0.32843 0.02462 0.51926 0.0
H2870 H 0.33253 0.04922 0.53294 0.0
H2871 H 0.31136 0.99873 0.53234 0.0
H2872 H 0.30573 0.03462 0.48525 0.0
H2873 H 0.2923 0.05648 0.47039 0.0
H2874 H 0.24196 0.03405 0.47061 0.0
H2875 H 0.25506 0.01213 0.4857 0.0
C2876 C 0.31713 0.94786 0.47313 0.0
C2877 C 0.30234 0.94076 0.46574 0.0
C2878 C 0.31526 0.96114 0.48269 0.0
C2879 C 0.29851 0.96752 0.48539 0.0
C2880 C 0.28367 0.96052 0.47802 0.0
C2881 C 0.28555 0.94723 0.46832 0.0
C2882 C 0.29678 0.9817 0.49556 0.0
C2883 C 0.28867 0.99437 0.48797 0.0
C2884 C 0.30459 0.98319 0.51201 0.0
C2885 C 0.31202 0.96995 0.52136 0.0
C2886 C 0.30183 0.95679 0.52385 0.0
C2887 C 0.30892 0.9443 0.53252 0.0
C2888 C 0.32616 0.94487 0.53886 0.0
C2889 C 0.33634 0.95794 0.53657 0.0
C2890 C 0.32932 0.97045 0.52789 0.0
C2891 C 0.28749 0.0478 0.53369 0.0
C2892 C 0.30455 0.05359 0.53668 0.0
C2893 C 0.28519 0.03375 0.52558 0.0
C2894 C 0.29991 0.02524 0.52039 0.0
C2895 C 0.31691 0.03097 0.52332 0.0
C2896 C 0.31921 0.04502 0.53125 0.0
C2897 C 0.29783 0.01031 0.51188 0.0
C2898 C 0.30519 0.99751 0.51984 0.0
C2899 C 0.28917 0.00869 0.4959 0.0
C2900 C 0.28132 0.02183 0.48679 0.0
C2901 C 0.29176 0.03441 0.48227 0.0
C2902 C 0.28422 0.0468 0.47378 0.0
C2903 C 0.26627 0.04667 0.46961 0.0
C2904 C 0.25585 0.03414 0.47388 0.0
C2905 C 0.26333 0.02174 0.4824 0.0
H2906 H 0.26045 0.05627 0.46303 0.0
H2907 H 0.33163 0.93519 0.54557 0.0
H2908 H 0.28273 0.94112 0.02665 0.0
H2909 H 0.28003 0.96565 0.01194 0.0
H2910 H 0.33471 0.97529 0.02296 0.0
H2911 H 0.33744 0.95091 0.03775 0.0
H2912 H 0.31227 0.99981 0.02936 0.0
H2913 H 0.32362 0.96308 0.98426 0.0
H2914 H 0.3174 0.93985 0.96765 0.0
H2915 H 0.26624 0.95717 0.95421 0.0
H2916 H 0.27206 0.98043 0.97095 0.0
H2917 H 0.33515 0.05851 0.97314 0.0
H2918 H 0.33289 0.03468 0.98874 0.0
H2919 H 0.28104 0.02718 0.96741 0.0
H2920 H 0.28367 0.05062 0.9508 0.0
H2921 H 0.29857 0.00179 0.96707 0.0
H2922 H 0.28723 0.03915 0.00979 0.0
H2923 H 0.29228 0.06241 0.02671 0.0
H2924 H 0.34127 0.04425 0.04538 0.0
H2925 H 0.33664 0.02096 0.02838 0.0
C2926 C 0.29411 0.94854 0.02603 0.0
C2927 C 0.31033 0.94409 0.03323 0.0
C2928 C 0.29258 0.96249 0.01757 0.0
C2929 C 0.30721 0.97221 0.01627 0.0
C2930 C 0.32328 0.96793 0.0238 0.0
C2931 C 0.32486 0.95396 0.03212 0.0
C2932 C 0.30598 0.98676 0.00682 0.0
C2933 C 0.30941 0.00028 0.01571 0.0
C2934 C 0.30165 0.98734 0.98916 0.0
C2935 C 0.2982 0.97341 0.97901 0.0
C2936 C 0.31099 0.96188 0.97788 0.0
C2937 C 0.30754 0.94872 0.96842 0.0
C2938 C 0.29141 0.94702 0.95993 0.0
C2939 C 0.27871 0.95849 0.96083 0.0
C2940 C 0.28208 0.97167 0.97029 0.0
C2941 C 0.32335 0.05172 0.97151 0.0
C2942 C 0.3096 0.05654 0.96064 0.0
C2943 C 0.32196 0.03818 0.98069 0.0
C2944 C 0.30664 0.02926 0.97955 0.0
C2945 C 0.29294 0.03393 0.96861 0.0
C2946 C 0.2944 0.04742 0.95924 0.0
C2947 C 0.30519 0.01494 0.98953 0.0
C2948 C 0.30124 0.00143 0.98076 0.0
C2949 C 0.30883 0.01439 0.00737 0.0
C2950 C 0.31164 0.02835 0.0177 0.0
C2951 C 0.29914 0.04016 0.01741 0.0
C2952 C 0.30192 0.05334 0.02703 0.0
C2953 C 0.3171 0.05482 0.03709 0.0
C2954 C 0.32952 0.0431 0.03757 0.0
C2955 C 0.32681 0.02989 0.02796 0.0
H2956 H 0.31923 0.06504 0.04452 0.0
H2957 H 0.28877 0.93682 0.95261 0.0
H2958 H 0.69522 0.06868 0.50833 0.0
H2959 H 0.69765 0.04463 0.49286 0.0
H2960 H 0.69733 0.02031 0.54092 0.0
H2961 H 0.69459 0.0443 0.55652 0.0
H2962 H 0.72214 0.00904 0.51793 0.0
H2963 H 0.66052 0.02224 0.51834 0.0
H2964 H 0.63488 0.03896 0.51354 0.0
H2965 H 0.64682 0.04083 0.45966 0.0
H2966 H 0.67271 0.0243 0.46419 0.0
H2967 H 0.69817 0.9357 0.48755 0.0
H2968 H 0.70056 0.9601 0.50227 0.0
H2969 H 0.69667 0.98338 0.45367 0.0
H2970 H 0.69426 0.95898 0.43885 0.0
H2971 H 0.67487 0.99553 0.47653 0.0
H2972 H 0.73587 0.98152 0.47575 0.0
H2973 H 0.76162 0.96492 0.48048 0.0
H2974 H 0.75116 0.96455 0.53468 0.0
H2975 H 0.72518 0.98099 0.53025 0.0
C2976 C 0.6956 0.05822 0.51562 0.0
C2977 C 0.69456 0.05841 0.53366 0.0
C2978 C 0.69707 0.0445 0.50676 0.0
C2979 C 0.69749 0.0307 0.51575 0.0
C2980 C 0.69705 0.03085 0.53376 0.0
C2981 C 0.69554 0.04458 0.54265 0.0
C2982 C 0.69769 0.01609 0.50631 0.0
C2983 C 0.71173 0.00599 0.50901 0.0
C2984 C 0.68428 0.0123 0.49441 0.0
C2985 C 0.66866 0.02217 0.49163 0.0
C2986 C 0.65777 0.02632 0.50549 0.0
C2987 C 0.64317 0.03574 0.50282 0.0
C2988 C 0.63925 0.04099 0.48631 0.0
C2989 C 0.64989 0.03678 0.47244 0.0
C2990 C 0.66452 0.02738 0.47505 0.0
C2991 C 0.69814 0.946 0.47996 0.0
C2992 C 0.69603 0.94541 0.46203 0.0
C2993 C 0.69949 0.95995 0.4884 0.0
C2994 C 0.69894 0.97357 0.47906 0.0
C2995 C 0.6971 0.97301 0.46113 0.0
C2996 C 0.69568 0.95907 0.45269 0.0
C2997 C 0.69937 0.98842 0.48807 0.0
C2998 C 0.68538 0.99858 0.48535 0.0
C2999 C 0.71284 0.99224 0.49992 0.0
C3000 C 0.72848 0.98238 0.50264 0.0
C3001 C 0.73897 0.97781 0.48866 0.0
C3002 C 0.75363 0.96844 0.49129 0.0
C3003 C 0.758 0.96365 0.50786 0.0
C3004 C 0.74774 0.96826 0.52185 0.0
C3005 C 0.73306 0.97761 0.51929 0.0
H3006 H 0.76935 0.95641 0.50988 0.0
H3007 H 0.62795 0.04828 0.48427 0.0
loop_
_geom_bond_atom_site_label_1
_geom_bond_atom_site_label_2
_geom_bond_distance
_geom_bond_site_symmetry_2
_ccdc_geom_bond_type
Li0 N17 1.990 . S
Li0 O60 1.956 . S
Li0 O61 1.970 . S
Li0 O62 1.961 . S
Li1 N25 1.990 . S
Li1 O60 1.970 . S
Li1 O61 1.956 . S
Li1 O63 1.961 . S
Li2 N47 1.990 . S
Li2 O60 1.961 . S
Li2 O62 1.956 . S
Li2 O63 1.970 . S
Li3 N53 1.990 . S
Li3 O61 1.961 . S
Li3 O62 1.970 . S
Li3 O63 1.956 . S
C4 C6 1.348 . S
C4 C7 1.356 . S
C4 O60 1.325 . S
N5 C8 1.314 . S
N5 C9 1.279 . S
C6 C4 1.348 . S
C6 C8 1.353 . S
C6 H64 0.929 . S
C7 C4 1.356 . S
C7 C9 1.358 . S
C7 H65 0.930 . S
C8 N5 1.314 . S
C8 C6 1.353 . S
C8 H66 0.930 . S
C9 N5 1.279 . S
C9 C7 1.358 . S
C9 H67 0.930 . S
C10 C13 1.348 . S
C10 C14 1.356 . S
C10 O61 1.325 . S
C11 N12 1.279 . S
C11 C14 1.358 . S
C11 H68 0.930 . S
N12 C11 1.279 . S
N12 C15 1.314 . S
C13 C10 1.348 . S
C13 C15 1.353 . S
C13 H69 0.929 . S
C14 C10 1.356 . S
C14 C11 1.358 . S
C14 H70 0.930 . S
C15 N12 1.314 . S
C15 C13 1.353 . S
C15 H71 0.930 . S
C16 N17 1.314 . S
C16 C21 1.353 . S
C16 H22 0.930 . S
N17 Li0 1.990 . S
N17 C16 1.314 . S
N17 C19 1.279 . S
C18 C19 1.358 . S
C18 C20 1.356 . S
C18 H72 0.930 . S
C19 N17 1.279 . S
C19 C18 1.358 . S
C19 H23 0.930 . S
C20 C18 1.356 . S
C20 C21 1.348 . S
C21 C16 1.353 . S
C21 C20 1.348 . S
C21 H73 0.929 . S
H22 C16 0.930 . S
H23 C19 0.930 . S
C24 N25 1.314 . S
C24 C26 1.353 . S
C24 H30 0.930 . S
N25 Li1 1.990 . S
N25 C24 1.314 . S
N25 C28 1.279 . S
C26 C24 1.353 . S
C26 C29 1.348 . S
C26 H74 0.929 . S
C27 C28 1.358 . S
C27 C29 1.356 . S
C27 H75 0.930 . S
C28 N25 1.279 . S
C28 C27 1.358 . S
C28 H31 0.930 . S
C29 C26 1.348 . S
C29 C27 1.356 . S
H30 C24 0.930 . S
H31 C28 0.930 . S
C32 C34 1.348 . S
C32 C35 1.356 . S
C32 O62 1.325 . S
N33 C36 1.314 . S
N33 C37 1.279 . S
C34 C32 1.348 . S
C34 C36 1.353 . S
C34 H76 0.929 . S
C35 C32 1.356 . S
C35 C37 1.358 . S
C35 H77 0.930 . S
C36 N33 1.314 . S
C36 C34 1.353 . S
C36 H78 0.930 . S
C37 N33 1.279 . S
C37 C35 1.358 . S
C37 H79 0.930 . S
C38 C39 1.348 . S
C38 C40 1.356 . S
C38 O63 1.325 . S
C39 C38 1.348 . S
C39 C41 1.353 . S
C39 H80 0.929 . S
C40 C38 1.356 . S
C40 C42 1.358 . S
C40 H81 0.930 . S
C41 C39 1.353 . S
C41 N43 1.314 . S
C41 H82 0.930 . S
C42 C40 1.358 . S
C42 N43 1.279 . S
C42 H83 0.930 . S
N43 C41 1.314 . S
N43 C42 1.279 . S
C44 C46 1.353 . S
C44 N47 1.314 . S
C44 H50 0.930 . S
C45 N47 1.279 . S
C45 C48 1.358 . S
C45 H51 0.930 . S
C46 C44 1.353 . S
C46 C49 1.348 . S
C46 H84 0.929 . S
N47 Li2 1.990 . S
N47 C44 1.314 . S
N47 C45 1.279 . S
C48 C45 1.358 . S
C48 C49 1.356 . S
C48 H85 0.930 . S
C49 C46 1.348 . S
C49 C48 1.356 . S
H50 C44 0.930 . S
H51 C45 0.930 . S
C52 N53 1.314 . S
C52 C54 1.353 . S
C52 H58 0.930 . S
N53 Li3 1.990 . S
N53 C52 1.314 . S
N53 C56 1.279 . S
C54 C52 1.353 . S
C54 C57 1.348 . S
C54 H86 0.929 . S
C55 C56 1.358 . S
C55 C57 1.356 . S
C55 H87 0.930 . S
C56 N53 1.279 . S
C56 C55 1.358 . S
C56 H59 0.930 . S
C57 C54 1.348 . S
C57 C55 1.356 . S
H58 C52 0.930 . S
H59 C56 0.930 . S
O60 Li0 1.956 . S
O60 Li1 1.970 . S
O60 Li2 1.961 . S
O60 C4 1.325 . S
O61 Li0 1.970 . S
O61 Li1 1.956 . S
O61 Li3 1.961 . S
O61 C10 1.325 . S
O62 Li0 1.961 . S
O62 Li2 1.956 . S
O62 Li3 1.970 . S
O62 C32 1.325 . S
O63 Li1 1.961 . S
O63 Li2 1.970 . S
O63 Li3 1.956 . S
O63 C38 1.325 . S
H64 C6 0.929 . S
H65 C7 0.930 . S
H66 C8 0.930 . S
H67 C9 0.930 . S
H68 C11 0.930 . S
H69 C13 0.929 . S
H70 C14 0.930 . S
H71 C15 0.930 . S
H72 C18 0.930 . S
H73 C21 0.929 . S
H74 C26 0.929 . S
H75 C27 0.930 . S
H76 C34 0.929 . S
H77 C35 0.930 . S
H78 C36 0.930 . S
H79 C37 0.930 . S
H80 C39 0.929 . S
H81 C40 0.930 . S
H82 C41 0.930 . S
H83 C42 0.930 . S
H84 C46 0.929 . S
H85 C48 0.930 . S
H86 C54 0.929 . S
H87 C55 0.930 . S
Li88 N105 1.990 . S
Li88 O148 1.956 . S
Li88 O149 1.970 . S
Li88 O150 1.961 . S
Li89 N113 1.990 . S
Li89 O148 1.970 . S
Li89 O149 1.956 . S
Li89 O151 1.961 . S
Li90 N135 1.990 . S
Li90 O148 1.961 . S
Li90 O150 1.956 . S
Li90 O151 1.970 . S
Li91 N141 1.990 . S
Li91 O149 1.961 . S
Li91 O150 1.970 . S
Li91 O151 1.956 . S
C92 C94 1.348 . S
C92 C95 1.356 . S
C92 O148 1.325 . S
N93 C96 1.314 . S
N93 C97 1.279 . S
C94 C92 1.348 . S
C94 C96 1.353 . S
C94 H152 0.929 . S
C95 C92 1.356 . S
C95 C97 1.358 . S
C95 H153 0.930 . S
C96 N93 1.314 . S
C96 C94 1.353 . S
C96 H154 0.930 . S
C97 N93 1.279 . S
C97 C95 1.358 . S
C97 H155 0.930 . S
C98 C101 1.348 . S
C98 C102 1.356 . S
C98 O149 1.325 . S
C99 N100 1.279 . S
C99 C102 1.358 . S
C99 H156 0.930 . S
N100 C99 1.279 . S
N100 C103 1.314 . S
C101 C98 1.348 . S
C101 C103 1.353 . S
C101 H157 0.929 . S
C102 C98 1.356 . S
C102 C99 1.358 . S
C102 H158 0.930 . S
C103 N100 1.314 . S
C103 C101 1.353 . S
C103 H159 0.930 . S
C104 N105 1.314 . S
C104 C109 1.353 . S
C104 H110 0.930 . S
N105 Li88 1.990 . S
N105 C104 1.314 . S
N105 C107 1.279 . S
C106 C107 1.358 . S
C106 C108 1.356 . S
C106 H160 0.930 . S
C107 N105 1.279 . S
C107 C106 1.358 . S
C107 H111 0.930 . S
C108 C106 1.356 . S
C108 C109 1.348 . S
C109 C104 1.353 . S
C109 C108 1.348 . S
C109 H161 0.929 . S
H110 C104 0.930 . S
H111 C107 0.930 . S
C112 N113 1.314 . S
C112 C114 1.353 . S
C112 H118 0.930 . S
N113 Li89 1.990 . S
N113 C112 1.314 . S
N113 C116 1.279 . S
C114 C112 1.353 . S
C114 C117 1.348 . S
C114 H162 0.929 . S
C115 C116 1.358 . S
C115 C117 1.356 . S
C115 H163 0.930 . S
C116 N113 1.279 . S
C116 C115 1.358 . S
C116 H119 0.930 . S
C117 C114 1.348 . S
C117 C115 1.356 . S
H118 C112 0.930 . S
H119 C116 0.930 . S
C120 C122 1.348 . S
C120 C123 1.356 . S
C120 O150 1.325 . S
N121 C124 1.314 . S
N121 C125 1.279 . S
C122 C120 1.348 . S
C122 C124 1.353 . S
C122 H164 0.929 . S
C123 C120 1.356 . S
C123 C125 1.358 . S
C123 H165 0.930 . S
C124 N121 1.314 . S
C124 C122 1.353 . S
C124 H166 0.930 . S
C125 N121 1.279 . S
C125 C123 1.358 . S
C125 H167 0.930 . S
C126 C127 1.348 . S
C126 C128 1.356 . S
C126 O151 1.325 . S
C127 C126 1.348 . S
C127 C129 1.353 . S
C127 H168 0.929 . S
C128 C126 1.356 . S
C128 C130 1.358 . S
C128 H169 0.930 . S
C129 C127 1.353 . S
C129 N131 1.314 . S
C129 H170 0.930 . S
C130 C128 1.358 . S
C130 N131 1.279 . S
C130 H171 0.930 . S
N131 C129 1.314 . S
N131 C130 1.279 . S
C132 C134 1.353 . S
C132 N135 1.314 . S
C132 H138 0.930 . S
C133 N135 1.279 . S
C133 C136 1.358 . S
C133 H139 0.930 . S
C134 C132 1.353 . S
C134 C137 1.348 . S
C134 H172 0.929 . S
N135 Li90 1.990 . S
N135 C132 1.314 . S
N135 C133 1.279 . S
C136 C133 1.358 . S
C136 C137 1.356 . S
C136 H173 0.930 . S
C137 C134 1.348 . S
C137 C136 1.356 . S
H138 C132 0.930 . S
H139 C133 0.930 . S
C140 N141 1.314 . S
C140 C142 1.353 . S
C140 H146 0.930 . S
N141 Li91 1.990 . S
N141 C140 1.314 . S
N141 C144 1.279 . S
C142 C140 1.353 . S
C142 C145 1.348 . S
C142 H174 0.929 . S
C143 C144 1.358 . S
C143 C145 1.356 . S
C143 H175 0.930 . S
C144 N141 1.279 . S
C144 C143 1.358 . S
C144 H147 0.930 . S
C145 C142 1.348 . S
C145 C143 1.356 . S
H146 C140 0.930 . S
H147 C144 0.930 . S
O148 Li88 1.956 . S
O148 Li89 1.970 . S
O148 Li90 1.961 . S
O148 C92 1.325 . S
O149 Li88 1.970 . S
O149 Li89 1.956 . S
O149 Li91 1.961 . S
O149 C98 1.325 . S
O150 Li88 1.961 . S
O150 Li90 1.956 . S
O150 Li91 1.970 . S
O150 C120 1.325 . S
O151 Li89 1.961 . S
O151 Li90 1.970 . S
O151 Li91 1.956 . S
O151 C126 1.325 . S
H152 C94 0.929 . S
H153 C95 0.930 . S
H154 C96 0.930 . S
H155 C97 0.930 . S
H156 C99 0.930 . S
H157 C101 0.929 . S
H158 C102 0.930 . S
H159 C103 0.930 . S
H160 C106 0.930 . S
H161 C109 0.929 . S
H162 C114 0.929 . S
H163 C115 0.930 . S
H164 C122 0.929 . S
H165 C123 0.930 . S
H166 C124 0.930 . S
H167 C125 0.930 . S
H168 C127 0.929 . S
H169 C128 0.930 . S
H170 C129 0.930 . S
H171 C130 0.930 . S
H172 C134 0.929 . S
H173 C136 0.930 . S
H174 C142 0.929 . S
H175 C143 0.930 . S
Li176 N193 1.990 . S
Li176 O236 1.956 . S
Li176 O237 1.970 . S
Li176 O238 1.961 . S
Li177 N201 1.990 . S
Li177 O236 1.970 . S
Li177 O237 1.956 . S
Li177 O239 1.961 . S
Li178 N223 1.990 . S
Li178 O236 1.961 . S
Li178 O238 1.956 . S
Li178 O239 1.970 . S
Li179 N229 1.990 . S
Li179 O237 1.961 . S
Li179 O238 1.970 . S
Li179 O239 1.956 . S
C180 C182 1.348 . S
C180 C183 1.356 . S
C180 O236 1.325 . S
N181 C184 1.314 . S
N181 C185 1.279 . S
C182 C180 1.348 . S
C182 C184 1.353 . S
C182 H240 0.929 . S
C183 C180 1.356 . S
C183 C185 1.358 . S
C183 H241 0.930 . S
C184 N181 1.314 . S
C184 C182 1.353 . S
C184 H242 0.930 . S
C185 N181 1.279 . S
C185 C183 1.358 . S
C185 H243 0.930 . S
C186 C189 1.348 . S
C186 C190 1.356 . S
C186 O237 1.325 . S
C187 N188 1.279 . S
C187 C190 1.358 . S
C187 H244 0.930 . S
N188 C187 1.279 . S
N188 C191 1.314 . S
C189 C186 1.348 . S
C189 C191 1.353 . S
C189 H245 0.929 . S
C190 C186 1.356 . S
C190 C187 1.358 . S
C190 H246 0.930 . S
C191 N188 1.314 . S
C191 C189 1.353 . S
C191 H247 0.930 . S
C192 N193 1.314 . S
C192 C197 1.353 . S
C192 H198 0.930 . S
N193 Li176 1.990 . S
N193 C192 1.314 . S
N193 C195 1.279 . S
C194 C195 1.358 . S
C194 C196 1.356 . S
C194 H248 0.930 . S
C195 N193 1.279 . S
C195 C194 1.358 . S
C195 H199 0.930 . S
C196 C194 1.356 . S
C196 C197 1.348 . S
C197 C192 1.353 . S
C197 C196 1.348 . S
C197 H249 0.929 . S
H198 C192 0.930 . S
H199 C195 0.930 . S
C200 N201 1.314 . S
C200 C202 1.353 . S
C200 H206 0.930 . S
N201 Li177 1.990 . S
N201 C200 1.314 . S
N201 C204 1.279 . S
C202 C200 1.353 . S
C202 C205 1.348 . S
C202 H250 0.929 . S
C203 C204 1.358 . S
C203 C205 1.356 . S
C203 H251 0.930 . S
C204 N201 1.279 . S
C204 C203 1.358 . S
C204 H207 0.930 . S
C205 C202 1.348 . S
C205 C203 1.356 . S
H206 C200 0.930 . S
H207 C204 0.930 . S
C208 C210 1.348 . S
C208 C211 1.356 . S
C208 O238 1.325 . S
N209 C212 1.314 . S
N209 C213 1.279 . S
C210 C208 1.348 . S
C210 C212 1.353 . S
C210 H252 0.929 . S
C211 C208 1.356 . S
C211 C213 1.358 . S
C211 H253 0.930 . S
C212 N209 1.314 . S
C212 C210 1.353 . S
C212 H254 0.930 . S
C213 N209 1.279 . S
C213 C211 1.358 . S
C213 H255 0.930 . S
C214 C215 1.348 . S
C214 C216 1.356 . S
C214 O239 1.325 . S
C215 C214 1.348 . S
C215 C217 1.353 . S
C215 H256 0.929 . S
C216 C214 1.356 . S
C216 C218 1.358 . S
C216 H257 0.930 . S
C217 C215 1.353 . S
C217 N219 1.314 . S
C217 H258 0.930 . S
C218 C216 1.358 . S
C218 N219 1.279 . S
C218 H259 0.930 . S
N219 C217 1.314 . S
N219 C218 1.279 . S
C220 C222 1.353 . S
C220 N223 1.314 . S
C220 H226 0.930 . S
C221 N223 1.279 . S
C221 C224 1.358 . S
C221 H227 0.930 . S
C222 C220 1.353 . S
C222 C225 1.348 . S
C222 H260 0.929 . S
N223 Li178 1.990 . S
N223 C220 1.314 . S
N223 C221 1.279 . S
C224 C221 1.358 . S
C224 C225 1.356 . S
C224 H261 0.930 . S
C225 C222 1.348 . S
C225 C224 1.356 . S
H226 C220 0.930 . S
H227 C221 0.930 . S
C228 N229 1.314 . S
C228 C230 1.353 . S
C228 H234 0.930 . S
N229 Li179 1.990 . S
N229 C228 1.314 . S
N229 C232 1.279 . S
C230 C228 1.353 . S
C230 C233 1.348 . S
C230 H262 0.929 . S
C231 C232 1.358 . S
C231 C233 1.356 . S
C231 H263 0.930 . S
C232 N229 1.279 . S
C232 C231 1.358 . S
C232 H235 0.930 . S
C233 C230 1.348 . S
C233 C231 1.356 . S
H234 C228 0.930 . S
H235 C232 0.930 . S
O236 Li176 1.956 . S
O236 Li177 1.970 . S
O236 Li178 1.961 . S
O236 C180 1.325 . S
O237 Li176 1.970 . S
O237 Li177 1.956 . S
O237 Li179 1.961 . S
O237 C186 1.325 . S
O238 Li176 1.961 . S
O238 Li178 1.956 . S
O238 Li179 1.970 . S
O238 C208 1.325 . S
O239 Li177 1.961 . S
O239 Li178 1.970 . S
O239 Li179 1.956 . S
O239 C214 1.325 . S
H240 C182 0.929 . S
H241 C183 0.930 . S
H242 C184 0.930 . S
H243 C185 0.930 . S
H244 C187 0.930 . S
H245 C189 0.929 . S
H246 C190 0.930 . S
H247 C191 0.930 . S
H248 C194 0.930 . S
H249 C197 0.929 . S
H250 C202 0.929 . S
H251 C203 0.930 . S
H252 C210 0.929 . S
H253 C211 0.930 . S
H254 C212 0.930 . S
H255 C213 0.930 . S
H256 C215 0.929 . S
H257 C216 0.930 . S
H258 C217 0.930 . S
H259 C218 0.930 . S
H260 C222 0.929 . S
H261 C224 0.930 . S
H262 C230 0.929 . S
H263 C231 0.930 . S
Li264 N281 1.990 . S
Li264 O324 1.956 . S
Li264 O325 1.970 . S
Li264 O326 1.961 . S
Li265 N289 1.990 . S
Li265 O324 1.970 . S
Li265 O325 1.956 . S
Li265 O327 1.961 . S
Li266 N311 1.990 . S
Li266 O324 1.961 . S
Li266 O326 1.956 . S
Li266 O327 1.970 . S
Li267 N317 1.990 . S
Li267 O325 1.961 . S
Li267 O326 1.970 . S
Li267 O327 1.956 . S
C268 C270 1.348 . S
C268 C271 1.356 . S
C268 O324 1.325 . S
N269 C272 1.314 . S
N269 C273 1.279 . S
C270 C268 1.348 . S
C270 C272 1.353 . S
C270 H328 0.929 . S
C271 C268 1.356 . S
C271 C273 1.358 . S
C271 H329 0.930 . S
C272 N269 1.314 . S
C272 C270 1.353 . S
C272 H330 0.930 . S
C273 N269 1.279 . S
C273 C271 1.358 . S
C273 H331 0.930 . S
C274 C277 1.348 . S
C274 C278 1.356 . S
C274 O325 1.325 . S
C275 N276 1.279 . S
C275 C278 1.358 . S
C275 H332 0.930 . S
N276 C275 1.279 . S
N276 C279 1.314 . S
C277 C274 1.348 . S
C277 C279 1.353 . S
C277 H333 0.929 . S
C278 C274 1.356 . S
C278 C275 1.358 . S
C278 H334 0.930 . S
C279 N276 1.314 . S
C279 C277 1.353 . S
C279 H335 0.930 . S
C280 N281 1.314 . S
C280 C285 1.353 . S
C280 H286 0.930 . S
N281 Li264 1.990 . S
N281 C280 1.314 . S
N281 C283 1.279 . S
C282 C283 1.358 . S
C282 C284 1.356 . S
C282 H336 0.930 . S
C283 N281 1.279 . S
C283 C282 1.358 . S
C283 H287 0.930 . S
C284 C282 1.356 . S
C284 C285 1.348 . S
C285 C280 1.353 . S
C285 C284 1.348 . S
C285 H337 0.929 . S
H286 C280 0.930 . S
H287 C283 0.930 . S
C288 N289 1.314 . S
C288 C290 1.353 . S
C288 H294 0.930 . S
N289 Li265 1.990 . S
N289 C288 1.314 . S
N289 C292 1.279 . S
C290 C288 1.353 . S
C290 C293 1.348 . S
C290 H338 0.929 . S
C291 C292 1.358 . S
C291 C293 1.356 . S
C291 H339 0.930 . S
C292 N289 1.279 . S
C292 C291 1.358 . S
C292 H295 0.930 . S
C293 C290 1.348 . S
C293 C291 1.356 . S
H294 C288 0.930 . S
H295 C292 0.930 . S
C296 C298 1.348 . S
C296 C299 1.356 . S
C296 O326 1.325 . S
N297 C300 1.314 . S
N297 C301 1.279 . S
C298 C296 1.348 . S
C298 C300 1.353 . S
C298 H340 0.929 . S
C299 C296 1.356 . S
C299 C301 1.358 . S
C299 H341 0.930 . S
C300 N297 1.314 . S
C300 C298 1.353 . S
C300 H342 0.930 . S
C301 N297 1.279 . S
C301 C299 1.358 . S
C301 H343 0.930 . S
C302 C303 1.348 . S
C302 C304 1.356 . S
C302 O327 1.325 . S
C303 C302 1.348 . S
C303 C305 1.353 . S
C303 H344 0.929 . S
C304 C302 1.356 . S
C304 C306 1.358 . S
C304 H345 0.930 . S
C305 C303 1.353 . S
C305 N307 1.314 . S
C305 H346 0.930 . S
C306 C304 1.358 . S
C306 N307 1.279 . S
C306 H347 0.930 . S
N307 C305 1.314 . S
N307 C306 1.279 . S
C308 C310 1.353 . S
C308 N311 1.314 . S
C308 H314 0.930 . S
C309 N311 1.279 . S
C309 C312 1.358 . S
C309 H315 0.930 . S
C310 C308 1.353 . S
C310 C313 1.348 . S
C310 H348 0.929 . S
N311 Li266 1.990 . S
N311 C308 1.314 . S
N311 C309 1.279 . S
C312 C309 1.358 . S
C312 C313 1.356 . S
C312 H349 0.930 . S
C313 C310 1.348 . S
C313 C312 1.356 . S
H314 C308 0.930 . S
H315 C309 0.930 . S
C316 N317 1.314 . S
C316 C318 1.353 . S
C316 H322 0.930 . S
N317 Li267 1.990 . S
N317 C316 1.314 . S
N317 C320 1.279 . S
C318 C316 1.353 . S
C318 C321 1.348 . S
C318 H350 0.929 . S
C319 C320 1.358 . S
C319 C321 1.356 . S
C319 H351 0.930 . S
C320 N317 1.279 . S
C320 C319 1.358 . S
C320 H323 0.930 . S
C321 C318 1.348 . S
C321 C319 1.356 . S
H322 C316 0.930 . S
H323 C320 0.930 . S
O324 Li264 1.956 . S
O324 Li265 1.970 . S
O324 Li266 1.961 . S
O324 C268 1.325 . S
O325 Li264 1.970 . S
O325 Li265 1.956 . S
O325 Li267 1.961 . S
O325 C274 1.325 . S
O326 Li264 1.961 . S
O326 Li266 1.956 . S
O326 Li267 1.970 . S
O326 C296 1.325 . S
O327 Li265 1.961 . S
O327 Li266 1.970 . S
O327 Li267 1.956 . S
O327 C302 1.325 . S
H328 C270 0.929 . S
H329 C271 0.930 . S
H330 C272 0.930 . S
H331 C273 0.930 . S
H332 C275 0.930 . S
H333 C277 0.929 . S
H334 C278 0.930 . S
H335 C279 0.930 . S
H336 C282 0.930 . S
H337 C285 0.929 . S
H338 C290 0.929 . S
H339 C291 0.930 . S
H340 C298 0.929 . S
H341 C299 0.930 . S
H342 C300 0.930 . S
H343 C301 0.930 . S
H344 C303 0.929 . S
H345 C304 0.930 . S
H346 C305 0.930 . S
H347 C306 0.930 . S
H348 C310 0.929 . S
H349 C312 0.930 . S
H350 C318 0.929 . S
H351 C319 0.930 . S
Li352 N369 1.990 . S
Li352 O412 1.956 . S
Li352 O413 1.970 . S
Li352 O414 1.961 . S
Li353 N377 1.990 . S
Li353 O412 1.970 . S
Li353 O413 1.956 . S
Li353 O415 1.961 . S
Li354 N399 1.990 . S
Li354 O412 1.961 . S
Li354 O414 1.956 . S
Li354 O415 1.970 . S
Li355 N405 1.990 . S
Li355 O413 1.961 . S
Li355 O414 1.970 . S
Li355 O415 1.956 . S
C356 C358 1.348 . S
C356 C359 1.356 . S
C356 O412 1.325 . S
N357 C360 1.314 . S
N357 C361 1.279 . S
C358 C356 1.348 . S
C358 C360 1.353 . S
C358 H416 0.929 . S
C359 C356 1.356 . S
C359 C361 1.358 . S
C359 H417 0.930 . S
C360 N357 1.314 . S
C360 C358 1.353 . S
C360 H418 0.930 . S
C361 N357 1.279 . S
C361 C359 1.358 . S
C361 H419 0.930 . S
C362 C365 1.348 . S
C362 C366 1.356 . S
C362 O413 1.325 . S
C363 N364 1.279 . S
C363 C366 1.358 . S
C363 H420 0.930 . S
N364 C363 1.279 . S
N364 C367 1.314 . S
C365 C362 1.348 . S
C365 C367 1.353 . S
C365 H421 0.929 . S
C366 C362 1.356 . S
C366 C363 1.358 . S
C366 H422 0.930 . S
C367 N364 1.314 . S
C367 C365 1.353 . S
C367 H423 0.930 . S
C368 N369 1.314 . S
C368 C373 1.353 . S
C368 H374 0.930 . S
N369 Li352 1.990 . S
N369 C368 1.314 . S
N369 C371 1.279 . S
C370 C371 1.358 . S
C370 C372 1.356 . S
C370 H424 0.930 . S
C371 N369 1.279 . S
C371 C370 1.358 . S
C371 H375 0.930 . S
C372 C370 1.356 . S
C372 C373 1.348 . S
C373 C368 1.353 . S
C373 C372 1.348 . S
C373 H425 0.929 . S
H374 C368 0.930 . S
H375 C371 0.930 . S
C376 N377 1.314 . S
C376 C378 1.353 . S
C376 H382 0.930 . S
N377 Li353 1.990 . S
N377 C376 1.314 . S
N377 C380 1.279 . S
C378 C376 1.353 . S
C378 C381 1.348 . S
C378 H426 0.929 . S
C379 C380 1.358 . S
C379 C381 1.356 . S
C379 H427 0.930 . S
C380 N377 1.279 . S
C380 C379 1.358 . S
C380 H383 0.930 . S
C381 C378 1.348 . S
C381 C379 1.356 . S
H382 C376 0.930 . S
H383 C380 0.930 . S
C384 C386 1.348 . S
C384 C387 1.356 . S
C384 O414 1.325 . S
N385 C388 1.314 . S
N385 C389 1.279 . S
C386 C384 1.348 . S
C386 C388 1.353 . S
C386 H428 0.929 . S
C387 C384 1.356 . S
C387 C389 1.358 . S
C387 H429 0.930 . S
C388 N385 1.314 . S
C388 C386 1.353 . S
C388 H430 0.930 . S
C389 N385 1.279 . S
C389 C387 1.358 . S
C389 H431 0.930 . S
C390 C391 1.348 . S
C390 C392 1.356 . S
C390 O415 1.325 . S
C391 C390 1.348 . S
C391 C393 1.353 . S
C391 H432 0.929 . S
C392 C390 1.356 . S
C392 C394 1.358 . S
C392 H433 0.930 . S
C393 C391 1.353 . S
C393 N395 1.314 . S
C393 H434 0.930 . S
C394 C392 1.358 . S
C394 N395 1.279 . S
C394 H435 0.930 . S
N395 C393 1.314 . S
N395 C394 1.279 . S
C396 C398 1.353 . S
C396 N399 1.314 . S
C396 H402 0.930 . S
C397 N399 1.279 . S
C397 C400 1.358 . S
C397 H403 0.930 . S
C398 C396 1.353 . S
C398 C401 1.348 . S
C398 H436 0.929 . S
N399 Li354 1.990 . S
N399 C396 1.314 . S
N399 C397 1.279 . S
C400 C397 1.358 . S
C400 C401 1.356 . S
C400 H437 0.930 . S
C401 C398 1.348 . S
C401 C400 1.356 . S
H402 C396 0.930 . S
H403 C397 0.930 . S
C404 N405 1.314 . S
C404 C406 1.353 . S
C404 H410 0.930 . S
N405 Li355 1.990 . S
N405 C404 1.314 . S
N405 C408 1.279 . S
C406 C404 1.353 . S
C406 C409 1.348 . S
C406 H438 0.929 . S
C407 C408 1.358 . S
C407 C409 1.356 . S
C407 H439 0.930 . S
C408 N405 1.279 . S
C408 C407 1.358 . S
C408 H411 0.930 . S
C409 C406 1.348 . S
C409 C407 1.356 . S
H410 C404 0.930 . S
H411 C408 0.930 . S
O412 Li352 1.956 . S
O412 Li353 1.970 . S
O412 Li354 1.961 . S
O412 C356 1.325 . S
O413 Li352 1.970 . S
O413 Li353 1.956 . S
O413 Li355 1.961 . S
O413 C362 1.325 . S
O414 Li352 1.961 . S
O414 Li354 1.956 . S
O414 Li355 1.970 . S
O414 C384 1.325 . S
O415 Li353 1.961 . S
O415 Li354 1.970 . S
O415 Li355 1.956 . S
O415 C390 1.325 . S
H416 C358 0.929 . S
H417 C359 0.930 . S
H418 C360 0.930 . S
H419 C361 0.930 . S
H420 C363 0.930 . S
H421 C365 0.929 . S
H422 C366 0.930 . S
H423 C367 0.930 . S
H424 C370 0.930 . S
H425 C373 0.929 . S
H426 C378 0.929 . S
H427 C379 0.930 . S
H428 C386 0.929 . S
H429 C387 0.930 . S
H430 C388 0.930 . S
H431 C389 0.930 . S
H432 C391 0.929 . S
H433 C392 0.930 . S
H434 C393 0.930 . S
H435 C394 0.930 . S
H436 C398 0.929 . S
H437 C400 0.930 . S
H438 C406 0.929 . S
H439 C407 0.930 . S
Li440 N457 1.990 . S
Li440 O500 1.956 . S
Li440 O501 1.970 . S
Li440 O502 1.961 . S
Li441 N465 1.990 . S
Li441 O500 1.970 . S
Li441 O501 1.956 . S
Li441 O503 1.961 . S
Li442 N487 1.990 . S
Li442 O500 1.961 . S
Li442 O502 1.956 . S
Li442 O503 1.970 . S
Li443 N493 1.990 . S
Li443 O501 1.961 . S
Li443 O502 1.970 . S
Li443 O503 1.956 . S
C444 C446 1.348 . S
C444 C447 1.356 . S
C444 O500 1.325 . S
N445 C448 1.314 . S
N445 C449 1.279 . S
C446 C444 1.348 . S
C446 C448 1.353 . S
C446 H504 0.929 . S
C447 C444 1.356 . S
C447 C449 1.358 . S
C447 H505 0.930 . S
C448 N445 1.314 . S
C448 C446 1.353 . S
C448 H506 0.930 . S
C449 N445 1.279 . S
C449 C447 1.358 . S
C449 H507 0.930 . S
C450 C453 1.348 . S
C450 C454 1.356 . S
C450 O501 1.325 . S
C451 N452 1.279 . S
C451 C454 1.358 . S
C451 H508 0.930 . S
N452 C451 1.279 . S
N452 C455 1.314 . S
C453 C450 1.348 . S
C453 C455 1.353 . S
C453 H509 0.929 . S
C454 C450 1.356 . S
C454 C451 1.358 . S
C454 H510 0.930 . S
C455 N452 1.314 . S
C455 C453 1.353 . S
C455 H511 0.930 . S
C456 N457 1.314 . S
C456 C461 1.353 . S
C456 H462 0.930 . S
N457 Li440 1.990 . S
N457 C456 1.314 . S
N457 C459 1.279 . S
C458 C459 1.358 . S
C458 C460 1.356 . S
C458 H512 0.930 . S
C459 N457 1.279 . S
C459 C458 1.358 . S
C459 H463 0.930 . S
C460 C458 1.356 . S
C460 C461 1.348 . S
C461 C456 1.353 . S
C461 C460 1.348 . S
C461 H513 0.929 . S
H462 C456 0.930 . S
H463 C459 0.930 . S
C464 N465 1.314 . S
C464 C466 1.353 . S
C464 H470 0.930 . S
N465 Li441 1.990 . S
N465 C464 1.314 . S
N465 C468 1.279 . S
C466 C464 1.353 . S
C466 C469 1.348 . S
C466 H514 0.929 . S
C467 C468 1.358 . S
C467 C469 1.356 . S
C467 H515 0.930 . S
C468 N465 1.279 . S
C468 C467 1.358 . S
C468 H471 0.930 . S
C469 C466 1.348 . S
C469 C467 1.356 . S
H470 C464 0.930 . S
H471 C468 0.930 . S
C472 C474 1.348 . S
C472 C475 1.356 . S
C472 O502 1.325 . S
N473 C476 1.314 . S
N473 C477 1.279 . S
C474 C472 1.348 . S
C474 C476 1.353 . S
C474 H516 0.929 . S
C475 C472 1.356 . S
C475 C477 1.358 . S
C475 H517 0.930 . S
C476 N473 1.314 . S
C476 C474 1.353 . S
C476 H518 0.930 . S
C477 N473 1.279 . S
C477 C475 1.358 . S
C477 H519 0.930 . S
C478 C479 1.348 . S
C478 C480 1.356 . S
C478 O503 1.325 . S
C479 C478 1.348 . S
C479 C481 1.353 . S
C479 H520 0.929 . S
C480 C478 1.356 . S
C480 C482 1.358 . S
C480 H521 0.930 . S
C481 C479 1.353 . S
C481 N483 1.314 . S
C481 H522 0.930 . S
C482 C480 1.358 . S
C482 N483 1.279 . S
C482 H523 0.930 . S
N483 C481 1.314 . S
N483 C482 1.279 . S
C484 C486 1.353 . S
C484 N487 1.314 . S
C484 H490 0.930 . S
C485 N487 1.279 . S
C485 C488 1.358 . S
C485 H491 0.930 . S
C486 C484 1.353 . S
C486 C489 1.348 . S
C486 H524 0.929 . S
N487 Li442 1.990 . S
N487 C484 1.314 . S
N487 C485 1.279 . S
C488 C485 1.358 . S
C488 C489 1.356 . S
C488 H525 0.930 . S
C489 C486 1.348 . S
C489 C488 1.356 . S
H490 C484 0.930 . S
H491 C485 0.930 . S
C492 N493 1.314 . S
C492 C494 1.353 . S
C492 H498 0.930 . S
N493 Li443 1.990 . S
N493 C492 1.314 . S
N493 C496 1.279 . S
C494 C492 1.353 . S
C494 C497 1.348 . S
C494 H526 0.929 . S
C495 C496 1.358 . S
C495 C497 1.356 . S
C495 H527 0.930 . S
C496 N493 1.279 . S
C496 C495 1.358 . S
C496 H499 0.930 . S
C497 C494 1.348 . S
C497 C495 1.356 . S
H498 C492 0.930 . S
H499 C496 0.930 . S
O500 Li440 1.956 . S
O500 Li441 1.970 . S
O500 Li442 1.961 . S
O500 C444 1.325 . S
O501 Li440 1.970 . S
O501 Li441 1.956 . S
O501 Li443 1.961 . S
O501 C450 1.325 . S
O502 Li440 1.961 . S
O502 Li442 1.956 . S
O502 Li443 1.970 . S
O502 C472 1.325 . S
O503 Li441 1.961 . S
O503 Li442 1.970 . S
O503 Li443 1.956 . S
O503 C478 1.325 . S
H504 C446 0.929 . S
H505 C447 0.930 . S
H506 C448 0.930 . S
H507 C449 0.930 . S
H508 C451 0.930 . S
H509 C453 0.929 . S
H510 C454 0.930 . S
H511 C455 0.930 . S
H512 C458 0.930 . S
H513 C461 0.929 . S
H514 C466 0.929 . S
H515 C467 0.930 . S
H516 C474 0.929 . S
H517 C475 0.930 . S
H518 C476 0.930 . S
H519 C477 0.930 . S
H520 C479 0.929 . S
H521 C480 0.930 . S
H522 C481 0.930 . S
H523 C482 0.930 . S
H524 C486 0.929 . S
H525 C488 0.930 . S
H526 C494 0.929 . S
H527 C495 0.930 . S
Li528 N545 1.990 . S
Li528 O588 1.956 . S
Li528 O589 1.970 . S
Li528 O590 1.961 . S
Li529 N553 1.990 . S
Li529 O588 1.970 . S
Li529 O589 1.956 . S
Li529 O591 1.961 . S
Li530 N575 1.990 . S
Li530 O588 1.961 . S
Li530 O590 1.956 . S
Li530 O591 1.970 . S
Li531 N581 1.990 . S
Li531 O589 1.961 . S
Li531 O590 1.970 . S
Li531 O591 1.956 . S
C532 C534 1.348 . S
C532 C535 1.356 . S
C532 O588 1.325 . S
N533 C536 1.314 . S
N533 C537 1.279 . S
C534 C532 1.348 . S
C534 C536 1.353 . S
C534 H592 0.929 . S
C535 C532 1.356 . S
C535 C537 1.358 . S
C535 H593 0.930 . S
C536 N533 1.314 . S
C536 C534 1.353 . S
C536 H594 0.930 . S
C537 N533 1.279 . S
C537 C535 1.358 . S
C537 H595 0.930 . S
C538 C541 1.348 . S
C538 C542 1.356 . S
C538 O589 1.325 . S
C539 N540 1.279 . S
C539 C542 1.358 . S
C539 H596 0.930 . S
N540 C539 1.279 . S
N540 C543 1.314 . S
C541 C538 1.348 . S
C541 C543 1.353 . S
C541 H597 0.929 . S
C542 C538 1.356 . S
C542 C539 1.358 . S
C542 H598 0.930 . S
C543 N540 1.314 . S
C543 C541 1.353 . S
C543 H599 0.930 . S
C544 N545 1.314 . S
C544 C549 1.353 . S
C544 H550 0.930 . S
N545 Li528 1.990 . S
N545 C544 1.314 . S
N545 C547 1.279 . S
C546 C547 1.358 . S
C546 C548 1.356 . S
C546 H600 0.930 . S
C547 N545 1.279 . S
C547 C546 1.358 . S
C547 H551 0.930 . S
C548 C546 1.356 . S
C548 C549 1.348 . S
C549 C544 1.353 . S
C549 C548 1.348 . S
C549 H601 0.929 . S
H550 C544 0.930 . S
H551 C547 0.930 . S
C552 N553 1.314 . S
C552 C554 1.353 . S
C552 H558 0.930 . S
N553 Li529 1.990 . S
N553 C552 1.314 . S
N553 C556 1.279 . S
C554 C552 1.353 . S
C554 C557 1.348 . S
C554 H602 0.929 . S
C555 C556 1.358 . S
C555 C557 1.356 . S
C555 H603 0.930 . S
C556 N553 1.279 . S
C556 C555 1.358 . S
C556 H559 0.930 . S
C557 C554 1.348 . S
C557 C555 1.356 . S
H558 C552 0.930 . S
H559 C556 0.930 . S
C560 C562 1.348 . S
C560 C563 1.356 . S
C560 O590 1.325 . S
N561 C564 1.314 . S
N561 C565 1.279 . S
C562 C560 1.348 . S
C562 C564 1.353 . S
C562 H604 0.929 . S
C563 C560 1.356 . S
C563 C565 1.358 . S
C563 H605 0.930 . S
C564 N561 1.314 . S
C564 C562 1.353 . S
C564 H606 0.930 . S
C565 N561 1.279 . S
C565 C563 1.358 . S
C565 H607 0.930 . S
C566 C567 1.348 . S
C566 C568 1.356 . S
C566 O591 1.325 . S
C567 C566 1.348 . S
C567 C569 1.353 . S
C567 H608 0.929 . S
C568 C566 1.356 . S
C568 C570 1.358 . S
C568 H609 0.930 . S
C569 C567 1.353 . S
C569 N571 1.314 . S
C569 H610 0.930 . S
C570 C568 1.358 . S
C570 N571 1.279 . S
C570 H611 0.930 . S
N571 C569 1.314 . S
N571 C570 1.279 . S
C572 C574 1.353 . S
C572 N575 1.314 . S
C572 H578 0.930 . S
C573 N575 1.279 . S
C573 C576 1.358 . S
C573 H579 0.930 . S
C574 C572 1.353 . S
C574 C577 1.348 . S
C574 H612 0.929 . S
N575 Li530 1.990 . S
N575 C572 1.314 . S
N575 C573 1.279 . S
C576 C573 1.358 . S
C576 C577 1.356 . S
C576 H613 0.930 . S
C577 C574 1.348 . S
C577 C576 1.356 . S
H578 C572 0.930 . S
H579 C573 0.930 . S
C580 N581 1.314 . S
C580 C582 1.353 . S
C580 H586 0.930 . S
N581 Li531 1.990 . S
N581 C580 1.314 . S
N581 C584 1.279 . S
C582 C580 1.353 . S
C582 C585 1.348 . S
C582 H614 0.929 . S
C583 C584 1.358 . S
C583 C585 1.356 . S
C583 H615 0.930 . S
C584 N581 1.279 . S
C584 C583 1.358 . S
C584 H587 0.930 . S
C585 C582 1.348 . S
C585 C583 1.356 . S
H586 C580 0.930 . S
H587 C584 0.930 . S
O588 Li528 1.956 . S
O588 Li529 1.970 . S
O588 Li530 1.961 . S
O588 C532 1.325 . S
O589 Li528 1.970 . S
O589 Li529 1.956 . S
O589 Li531 1.961 . S
O589 C538 1.325 . S
O590 Li528 1.961 . S
O590 Li530 1.956 . S
O590 Li531 1.970 . S
O590 C560 1.325 . S
O591 Li529 1.961 . S
O591 Li530 1.970 . S
O591 Li531 1.956 . S
O591 C566 1.325 . S
H592 C534 0.929 . S
H593 C535 0.930 . S
H594 C536 0.930 . S
H595 C537 0.930 . S
H596 C539 0.930 . S
H597 C541 0.929 . S
H598 C542 0.930 . S
H599 C543 0.930 . S
H600 C546 0.930 . S
H601 C549 0.929 . S
H602 C554 0.929 . S
H603 C555 0.930 . S
H604 C562 0.929 . S
H605 C563 0.930 . S
H606 C564 0.930 . S
H607 C565 0.930 . S
H608 C567 0.929 . S
H609 C568 0.930 . S
H610 C569 0.930 . S
H611 C570 0.930 . S
H612 C574 0.929 . S
H613 C576 0.930 . S
H614 C582 0.929 . S
H615 C583 0.930 . S
Li616 N633 1.990 . S
Li616 O676 1.956 . S
Li616 O677 1.970 . S
Li616 O678 1.961 . S
Li617 N641 1.990 . S
Li617 O676 1.970 . S
Li617 O677 1.956 . S
Li617 O679 1.961 . S
Li618 N663 1.990 . S
Li618 O676 1.961 . S
Li618 O678 1.956 . S
Li618 O679 1.970 . S
Li619 N669 1.990 . S
Li619 O677 1.961 . S
Li619 O678 1.970 . S
Li619 O679 1.956 . S
C620 C622 1.348 . S
C620 C623 1.356 . S
C620 O676 1.325 . S
N621 C624 1.314 . S
N621 C625 1.279 . S
C622 C620 1.348 . S
C622 C624 1.353 . S
C622 H680 0.929 . S
C623 C620 1.356 . S
C623 C625 1.358 . S
C623 H681 0.930 . S
C624 N621 1.314 . S
C624 C622 1.353 . S
C624 H682 0.930 . S
C625 N621 1.279 . S
C625 C623 1.358 . S
C625 H683 0.930 . S
C626 C629 1.348 . S
C626 C630 1.356 . S
C626 O677 1.325 . S
C627 N628 1.279 . S
C627 C630 1.358 . S
C627 H684 0.930 . S
N628 C627 1.279 . S
N628 C631 1.314 . S
C629 C626 1.348 . S
C629 C631 1.353 . S
C629 H685 0.929 . S
C630 C626 1.356 . S
C630 C627 1.358 . S
C630 H686 0.930 . S
C631 N628 1.314 . S
C631 C629 1.353 . S
C631 H687 0.930 . S
C632 N633 1.314 . S
C632 C637 1.353 . S
C632 H638 0.930 . S
N633 Li616 1.990 . S
N633 C632 1.314 . S
N633 C635 1.279 . S
C634 C635 1.358 . S
C634 C636 1.356 . S
C634 H688 0.930 . S
C635 N633 1.279 . S
C635 C634 1.358 . S
C635 H639 0.930 . S
C636 C634 1.356 . S
C636 C637 1.348 . S
C637 C632 1.353 . S
C637 C636 1.348 . S
C637 H689 0.929 . S
H638 C632 0.930 . S
H639 C635 0.930 . S
C640 N641 1.314 . S
C640 C642 1.353 . S
C640 H646 0.930 . S
N641 Li617 1.990 . S
N641 C640 1.314 . S
N641 C644 1.279 . S
C642 C640 1.353 . S
C642 C645 1.348 . S
C642 H690 0.929 . S
C643 C644 1.358 . S
C643 C645 1.356 . S
C643 H691 0.930 . S
C644 N641 1.279 . S
C644 C643 1.358 . S
C644 H647 0.930 . S
C645 C642 1.348 . S
C645 C643 1.356 . S
H646 C640 0.930 . S
H647 C644 0.930 . S
C648 C650 1.348 . S
C648 C651 1.356 . S
C648 O678 1.325 . S
N649 C652 1.314 . S
N649 C653 1.279 . S
C650 C648 1.348 . S
C650 C652 1.353 . S
C650 H692 0.929 . S
C651 C648 1.356 . S
C651 C653 1.358 . S
C651 H693 0.930 . S
C652 N649 1.314 . S
C652 C650 1.353 . S
C652 H694 0.930 . S
C653 N649 1.279 . S
C653 C651 1.358 . S
C653 H695 0.930 . S
C654 C655 1.348 . S
C654 C656 1.356 . S
C654 O679 1.325 . S
C655 C654 1.348 . S
C655 C657 1.353 . S
C655 H696 0.929 . S
C656 C654 1.356 . S
C656 C658 1.358 . S
C656 H697 0.930 . S
C657 C655 1.353 . S
C657 N659 1.314 . S
C657 H698 0.930 . S
C658 C656 1.358 . S
C658 N659 1.279 . S
C658 H699 0.930 . S
N659 C657 1.314 . S
N659 C658 1.279 . S
C660 C662 1.353 . S
C660 N663 1.314 . S
C660 H666 0.930 . S
C661 N663 1.279 . S
C661 C664 1.358 . S
C661 H667 0.930 . S
C662 C660 1.353 . S
C662 C665 1.348 . S
C662 H700 0.929 . S
N663 Li618 1.990 . S
N663 C660 1.314 . S
N663 C661 1.279 . S
C664 C661 1.358 . S
C664 C665 1.356 . S
C664 H701 0.930 . S
C665 C662 1.348 . S
C665 C664 1.356 . S
H666 C660 0.930 . S
H667 C661 0.930 . S
C668 N669 1.314 . S
C668 C670 1.353 . S
C668 H674 0.930 . S
N669 Li619 1.990 . S
N669 C668 1.314 . S
N669 C672 1.279 . S
C670 C668 1.353 . S
C670 C673 1.348 . S
C670 H702 0.929 . S
C671 C672 1.358 . S
C671 C673 1.356 . S
C671 H703 0.930 . S
C672 N669 1.279 . S
C672 C671 1.358 . S
C672 H675 0.930 . S
C673 C670 1.348 . S
C673 C671 1.356 . S
H674 C668 0.930 . S
H675 C672 0.930 . S
O676 Li616 1.956 . S
O676 Li617 1.970 . S
O676 Li618 1.961 . S
O676 C620 1.325 . S
O677 Li616 1.970 . S
O677 Li617 1.956 . S
O677 Li619 1.961 . S
O677 C626 1.325 . S
O678 Li616 1.961 . S
O678 Li618 1.956 . S
O678 Li619 1.970 . S
O678 C648 1.325 . S
O679 Li617 1.961 . S
O679 Li618 1.970 . S
O679 Li619 1.956 . S
O679 C654 1.325 . S
H680 C622 0.929 . S
H681 C623 0.930 . S
H682 C624 0.930 . S
H683 C625 0.930 . S
H684 C627 0.930 . S
H685 C629 0.929 . S
H686 C630 0.930 . S
H687 C631 0.930 . S
H688 C634 0.930 . S
H689 C637 0.929 . S
H690 C642 0.929 . S
H691 C643 0.930 . S
H692 C650 0.929 . S
H693 C651 0.930 . S
H694 C652 0.930 . S
H695 C653 0.930 . S
H696 C655 0.929 . S
H697 C656 0.930 . S
H698 C657 0.930 . S
H699 C658 0.930 . S
H700 C662 0.929 . S
H701 C664 0.930 . S
H702 C670 0.929 . S
H703 C671 0.930 . S
Li704 N721 1.990 . S
Li704 O764 1.956 . S
Li704 O765 1.970 . S
Li704 O766 1.961 . S
Li705 N729 1.990 . S
Li705 O764 1.970 . S
Li705 O765 1.956 . S
Li705 O767 1.961 . S
Li706 N751 1.990 . S
Li706 O764 1.961 . S
Li706 O766 1.956 . S
Li706 O767 1.970 . S
Li707 N757 1.990 . S
Li707 O765 1.961 . S
Li707 O766 1.970 . S
Li707 O767 1.956 . S
C708 C710 1.348 . S
C708 C711 1.356 . S
C708 O764 1.325 . S
N709 C712 1.314 . S
N709 C713 1.279 . S
C710 C708 1.348 . S
C710 C712 1.353 . S
C710 H768 0.929 . S
C711 C708 1.356 . S
C711 C713 1.358 . S
C711 H769 0.930 . S
C712 N709 1.314 . S
C712 C710 1.353 . S
C712 H770 0.930 . S
C713 N709 1.279 . S
C713 C711 1.358 . S
C713 H771 0.930 . S
C714 C717 1.348 . S
C714 C718 1.356 . S
C714 O765 1.325 . S
C715 N716 1.279 . S
C715 C718 1.358 . S
C715 H772 0.930 . S
N716 C715 1.279 . S
N716 C719 1.314 . S
C717 C714 1.348 . S
C717 C719 1.353 . S
C717 H773 0.929 . S
C718 C714 1.356 . S
C718 C715 1.358 . S
C718 H774 0.930 . S
C719 N716 1.314 . S
C719 C717 1.353 . S
C719 H775 0.930 . S
C720 N721 1.314 . S
C720 C725 1.353 . S
C720 H726 0.930 . S
N721 Li704 1.990 . S
N721 C720 1.314 . S
N721 C723 1.279 . S
C722 C723 1.358 . S
C722 C724 1.356 . S
C722 H776 0.930 . S
C723 N721 1.279 . S
C723 C722 1.358 . S
C723 H727 0.930 . S
C724 C722 1.356 . S
C724 C725 1.348 . S
C725 C720 1.353 . S
C725 C724 1.348 . S
C725 H777 0.929 . S
H726 C720 0.930 . S
H727 C723 0.930 . S
C728 N729 1.314 . S
C728 C730 1.353 . S
C728 H734 0.930 . S
N729 Li705 1.990 . S
N729 C728 1.314 . S
N729 C732 1.279 . S
C730 C728 1.353 . S
C730 C733 1.348 . S
C730 H778 0.929 . S
C731 C732 1.358 . S
C731 C733 1.356 . S
C731 H779 0.930 . S
C732 N729 1.279 . S
C732 C731 1.358 . S
C732 H735 0.930 . S
C733 C730 1.348 . S
C733 C731 1.356 . S
H734 C728 0.930 . S
H735 C732 0.930 . S
C736 C738 1.348 . S
C736 C739 1.356 . S
C736 O766 1.325 . S
N737 C740 1.314 . S
N737 C741 1.279 . S
C738 C736 1.348 . S
C738 C740 1.353 . S
C738 H780 0.929 . S
C739 C736 1.356 . S
C739 C741 1.358 . S
C739 H781 0.930 . S
C740 N737 1.314 . S
C740 C738 1.353 . S
C740 H782 0.930 . S
C741 N737 1.279 . S
C741 C739 1.358 . S
C741 H783 0.930 . S
C742 C743 1.348 . S
C742 C744 1.356 . S
C742 O767 1.325 . S
C743 C742 1.348 . S
C743 C745 1.353 . S
C743 H784 0.929 . S
C744 C742 1.356 . S
C744 C746 1.358 . S
C744 H785 0.930 . S
C745 C743 1.353 . S
C745 N747 1.314 . S
C745 H786 0.930 . S
C746 C744 1.358 . S
C746 N747 1.279 . S
C746 H787 0.930 . S
N747 C745 1.314 . S
N747 C746 1.279 . S
C748 C750 1.353 . S
C748 N751 1.314 . S
C748 H754 0.930 . S
C749 N751 1.279 . S
C749 C752 1.358 . S
C749 H755 0.930 . S
C750 C748 1.353 . S
C750 C753 1.348 . S
C750 H788 0.929 . S
N751 Li706 1.990 . S
N751 C748 1.314 . S
N751 C749 1.279 . S
C752 C749 1.358 . S
C752 C753 1.356 . S
C752 H789 0.930 . S
C753 C750 1.348 . S
C753 C752 1.356 . S
H754 C748 0.930 . S
H755 C749 0.930 . S
C756 N757 1.314 . S
C756 C758 1.353 . S
C756 H762 0.930 . S
N757 Li707 1.990 . S
N757 C756 1.314 . S
N757 C760 1.279 . S
C758 C756 1.353 . S
C758 C761 1.348 . S
C758 H790 0.929 . S
C759 C760 1.358 . S
C759 C761 1.356 . S
C759 H791 0.930 . S
C760 N757 1.279 . S
C760 C759 1.358 . S
C760 H763 0.930 . S
C761 C758 1.348 . S
C761 C759 1.356 . S
H762 C756 0.930 . S
H763 C760 0.930 . S
O764 Li704 1.956 . S
O764 Li705 1.970 . S
O764 Li706 1.961 . S
O764 C708 1.325 . S
O765 Li704 1.970 . S
O765 Li705 1.956 . S
O765 Li707 1.961 . S
O765 C714 1.325 . S
O766 Li704 1.961 . S
O766 Li706 1.956 . S
O766 Li707 1.970 . S
O766 C736 1.325 . S
O767 Li705 1.961 . S
O767 Li706 1.970 . S
O767 Li707 1.956 . S
O767 C742 1.325 . S
H768 C710 0.929 . S
H769 C711 0.930 . S
H770 C712 0.930 . S
H771 C713 0.930 . S
H772 C715 0.930 . S
H773 C717 0.929 . S
H774 C718 0.930 . S
H775 C719 0.930 . S
H776 C722 0.930 . S
H777 C725 0.929 . S
H778 C730 0.929 . S
H779 C731 0.930 . S
H780 C738 0.929 . S
H781 C739 0.930 . S
H782 C740 0.930 . S
H783 C741 0.930 . S
H784 C743 0.929 . S
H785 C744 0.930 . S
H786 C745 0.930 . S
H787 C746 0.930 . S
H788 C750 0.929 . S
H789 C752 0.930 . S
H790 C758 0.929 . S
H791 C759 0.930 . S
Li792 N809 1.990 . S
Li792 O852 1.956 . S
Li792 O853 1.970 . S
Li792 O854 1.961 . S
Li793 N817 1.990 . S
Li793 O852 1.970 . S
Li793 O853 1.956 . S
Li793 O855 1.961 . S
Li794 N839 1.990 . S
Li794 O852 1.961 . S
Li794 O854 1.956 . S
Li794 O855 1.970 . S
Li795 N845 1.990 . S
Li795 O853 1.961 . S
Li795 O854 1.970 . S
Li795 O855 1.956 . S
C796 C798 1.348 . S
C796 C799 1.356 . S
C796 O852 1.325 . S
N797 C800 1.314 . S
N797 C801 1.279 . S
C798 C796 1.348 . S
C798 C800 1.353 . S
C798 H856 0.929 . S
C799 C796 1.356 . S
C799 C801 1.358 . S
C799 H857 0.930 . S
C800 N797 1.314 . S
C800 C798 1.353 . S
C800 H858 0.930 . S
C801 N797 1.279 . S
C801 C799 1.358 . S
C801 H859 0.930 . S
C802 C805 1.348 . S
C802 C806 1.356 . S
C802 O853 1.325 . S
C803 N804 1.279 . S
C803 C806 1.358 . S
C803 H860 0.930 . S
N804 C803 1.279 . S
N804 C807 1.314 . S
C805 C802 1.348 . S
C805 C807 1.353 . S
C805 H861 0.929 . S
C806 C802 1.356 . S
C806 C803 1.358 . S
C806 H862 0.930 . S
C807 N804 1.314 . S
C807 C805 1.353 . S
C807 H863 0.930 . S
C808 N809 1.314 . S
C808 C813 1.353 . S
C808 H814 0.930 . S
N809 Li792 1.990 . S
N809 C808 1.314 . S
N809 C811 1.279 . S
C810 C811 1.358 . S
C810 C812 1.356 . S
C810 H864 0.930 . S
C811 N809 1.279 . S
C811 C810 1.358 . S
C811 H815 0.930 . S
C812 C810 1.356 . S
C812 C813 1.348 . S
C813 C808 1.353 . S
C813 C812 1.348 . S
C813 H865 0.929 . S
H814 C808 0.930 . S
H815 C811 0.930 . S
C816 N817 1.314 . S
C816 C818 1.353 . S
C816 H822 0.930 . S
N817 Li793 1.990 . S
N817 C816 1.314 . S
N817 C820 1.279 . S
C818 C816 1.353 . S
C818 C821 1.348 . S
C818 H866 0.929 . S
C819 C820 1.358 . S
C819 C821 1.356 . S
C819 H867 0.930 . S
C820 N817 1.279 . S
C820 C819 1.358 . S
C820 H823 0.930 . S
C821 C818 1.348 . S
C821 C819 1.356 . S
H822 C816 0.930 . S
H823 C820 0.930 . S
C824 C826 1.348 . S
C824 C827 1.356 . S
C824 O854 1.325 . S
N825 C828 1.314 . S
N825 C829 1.279 . S
C826 C824 1.348 . S
C826 C828 1.353 . S
C826 H868 0.929 . S
C827 C824 1.356 . S
C827 C829 1.358 . S
C827 H869 0.930 . S
C828 N825 1.314 . S
C828 C826 1.353 . S
C828 H870 0.930 . S
C829 N825 1.279 . S
C829 C827 1.358 . S
C829 H871 0.930 . S
C830 C831 1.348 . S
C830 C832 1.356 . S
C830 O855 1.325 . S
C831 C830 1.348 . S
C831 C833 1.353 . S
C831 H872 0.929 . S
C832 C830 1.356 . S
C832 C834 1.358 . S
C832 H873 0.930 . S
C833 C831 1.353 . S
C833 N835 1.314 . S
C833 H874 0.930 . S
C834 C832 1.358 . S
C834 N835 1.279 . S
C834 H875 0.930 . S
N835 C833 1.314 . S
N835 C834 1.279 . S
C836 C838 1.353 . S
C836 N839 1.314 . S
C836 H842 0.930 . S
C837 N839 1.279 . S
C837 C840 1.358 . S
C837 H843 0.930 . S
C838 C836 1.353 . S
C838 C841 1.348 . S
C838 H876 0.929 . S
N839 Li794 1.990 . S
N839 C836 1.314 . S
N839 C837 1.279 . S
C840 C837 1.358 . S
C840 C841 1.356 . S
C840 H877 0.930 . S
C841 C838 1.348 . S
C841 C840 1.356 . S
H842 C836 0.930 . S
H843 C837 0.930 . S
C844 N845 1.314 . S
C844 C846 1.353 . S
C844 H850 0.930 . S
N845 Li795 1.990 . S
N845 C844 1.314 . S
N845 C848 1.279 . S
C846 C844 1.353 . S
C846 C849 1.348 . S
C846 H878 0.929 . S
C847 C848 1.358 . S
C847 C849 1.356 . S
C847 H879 0.930 . S
C848 N845 1.279 . S
C848 C847 1.358 . S
C848 H851 0.930 . S
C849 C846 1.348 . S
C849 C847 1.356 . S
H850 C844 0.930 . S
H851 C848 0.930 . S
O852 Li792 1.956 . S
O852 Li793 1.970 . S
O852 Li794 1.961 . S
O852 C796 1.325 . S
O853 Li792 1.970 . S
O853 Li793 1.956 . S
O853 Li795 1.961 . S
O853 C802 1.325 . S
O854 Li792 1.961 . S
O854 Li794 1.956 . S
O854 Li795 1.970 . S
O854 C824 1.325 . S
O855 Li793 1.961 . S
O855 Li794 1.970 . S
O855 Li795 1.956 . S
O855 C830 1.325 . S
H856 C798 0.929 . S
H857 C799 0.930 . S
H858 C800 0.930 . S
H859 C801 0.930 . S
H860 C803 0.930 . S
H861 C805 0.929 . S
H862 C806 0.930 . S
H863 C807 0.930 . S
H864 C810 0.930 . S
H865 C813 0.929 . S
H866 C818 0.929 . S
H867 C819 0.930 . S
H868 C826 0.929 . S
H869 C827 0.930 . S
H870 C828 0.930 . S
H871 C829 0.930 . S
H872 C831 0.929 . S
H873 C832 0.930 . S
H874 C833 0.930 . S
H875 C834 0.930 . S
H876 C838 0.929 . S
H877 C840 0.930 . S
H878 C846 0.929 . S
H879 C847 0.930 . S
Li880 N897 1.990 . S
Li880 O940 1.956 . S
Li880 O941 1.970 . S
Li880 O942 1.961 . S
Li881 N905 1.990 . S
Li881 O940 1.970 . S
Li881 O941 1.956 . S
Li881 O943 1.961 . S
Li882 N927 1.990 . S
Li882 O940 1.961 . S
Li882 O942 1.956 . S
Li882 O943 1.970 . S
Li883 N933 1.990 . S
Li883 O941 1.961 . S
Li883 O942 1.970 . S
Li883 O943 1.956 . S
C884 C886 1.348 . S
C884 C887 1.356 . S
C884 O940 1.325 . S
N885 C888 1.314 . S
N885 C889 1.279 . S
C886 C884 1.348 . S
C886 C888 1.353 . S
C886 H944 0.929 . S
C887 C884 1.356 . S
C887 C889 1.358 . S
C887 H945 0.930 . S
C888 N885 1.314 . S
C888 C886 1.353 . S
C888 H946 0.930 . S
C889 N885 1.279 . S
C889 C887 1.358 . S
C889 H947 0.930 . S
C890 C893 1.348 . S
C890 C894 1.356 . S
C890 O941 1.325 . S
C891 N892 1.279 . S
C891 C894 1.358 . S
C891 H948 0.930 . S
N892 C891 1.279 . S
N892 C895 1.314 . S
C893 C890 1.348 . S
C893 C895 1.353 . S
C893 H949 0.929 . S
C894 C890 1.356 . S
C894 C891 1.358 . S
C894 H950 0.930 . S
C895 N892 1.314 . S
C895 C893 1.353 . S
C895 H951 0.930 . S
C896 N897 1.314 . S
C896 C901 1.353 . S
C896 H902 0.930 . S
N897 Li880 1.990 . S
N897 C896 1.314 . S
N897 C899 1.279 . S
C898 C899 1.358 . S
C898 C900 1.356 . S
C898 H952 0.930 . S
C899 N897 1.279 . S
C899 C898 1.358 . S
C899 H903 0.930 . S
C900 C898 1.356 . S
C900 C901 1.348 . S
C901 C896 1.353 . S
C901 C900 1.348 . S
C901 H953 0.929 . S
H902 C896 0.930 . S
H903 C899 0.930 . S
C904 N905 1.314 . S
C904 C906 1.353 . S
C904 H910 0.930 . S
N905 Li881 1.990 . S
N905 C904 1.314 . S
N905 C908 1.279 . S
C906 C904 1.353 . S
C906 C909 1.348 . S
C906 H954 0.929 . S
C907 C908 1.358 . S
C907 C909 1.356 . S
C907 H955 0.930 . S
C908 N905 1.279 . S
C908 C907 1.358 . S
C908 H911 0.930 . S
C909 C906 1.348 . S
C909 C907 1.356 . S
H910 C904 0.930 . S
H911 C908 0.930 . S
C912 C914 1.348 . S
C912 C915 1.356 . S
C912 O942 1.325 . S
N913 C916 1.314 . S
N913 C917 1.279 . S
C914 C912 1.348 . S
C914 C916 1.353 . S
C914 H956 0.929 . S
C915 C912 1.356 . S
C915 C917 1.358 . S
C915 H957 0.930 . S
C916 N913 1.314 . S
C916 C914 1.353 . S
C916 H958 0.930 . S
C917 N913 1.279 . S
C917 C915 1.358 . S
C917 H959 0.930 . S
C918 C919 1.348 . S
C918 C920 1.356 . S
C918 O943 1.325 . S
C919 C918 1.348 . S
C919 C921 1.353 . S
C919 H960 0.929 . S
C920 C918 1.356 . S
C920 C922 1.358 . S
C920 H961 0.930 . S
C921 C919 1.353 . S
C921 N923 1.314 . S
C921 H962 0.930 . S
C922 C920 1.358 . S
C922 N923 1.279 . S
C922 H963 0.930 . S
N923 C921 1.314 . S
N923 C922 1.279 . S
C924 C926 1.353 . S
C924 N927 1.314 . S
C924 H930 0.930 . S
C925 N927 1.279 . S
C925 C928 1.358 . S
C925 H931 0.930 . S
C926 C924 1.353 . S
C926 C929 1.348 . S
C926 H964 0.929 . S
N927 Li882 1.990 . S
N927 C924 1.314 . S
N927 C925 1.279 . S
C928 C925 1.358 . S
C928 C929 1.356 . S
C928 H965 0.930 . S
C929 C926 1.348 . S
C929 C928 1.356 . S
H930 C924 0.930 . S
H931 C925 0.930 . S
C932 N933 1.314 . S
C932 C934 1.353 . S
C932 H938 0.930 . S
N933 Li883 1.990 . S
N933 C932 1.314 . S
N933 C936 1.279 . S
C934 C932 1.353 . S
C934 C937 1.348 . S
C934 H966 0.929 . S
C935 C936 1.358 . S
C935 C937 1.356 . S
C935 H967 0.930 . S
C936 N933 1.279 . S
C936 C935 1.358 . S
C936 H939 0.930 . S
C937 C934 1.348 . S
C937 C935 1.356 . S
H938 C932 0.930 . S
H939 C936 0.930 . S
O940 Li880 1.956 . S
O940 Li881 1.970 . S
O940 Li882 1.961 . S
O940 C884 1.325 . S
O941 Li880 1.970 . S
O941 Li881 1.956 . S
O941 Li883 1.961 . S
O941 C890 1.325 . S
O942 Li880 1.961 . S
O942 Li882 1.956 . S
O942 Li883 1.970 . S
O942 C912 1.325 . S
O943 Li881 1.961 . S
O943 Li882 1.970 . S
O943 Li883 1.956 . S
O943 C918 1.325 . S
H944 C886 0.929 . S
H945 C887 0.930 . S
H946 C888 0.930 . S
H947 C889 0.930 . S
H948 C891 0.930 . S
H949 C893 0.929 . S
H950 C894 0.930 . S
H951 C895 0.930 . S
H952 C898 0.930 . S
H953 C901 0.929 . S
H954 C906 0.929 . S
H955 C907 0.930 . S
H956 C914 0.929 . S
H957 C915 0.930 . S
H958 C916 0.930 . S
H959 C917 0.930 . S
H960 C919 0.929 . S
H961 C920 0.930 . S
H962 C921 0.930 . S
H963 C922 0.930 . S
H964 C926 0.929 . S
H965 C928 0.930 . S
H966 C934 0.929 . S
H967 C935 0.930 . S
Li968 N985 1.990 . S
Li968 O1028 1.956 . S
Li968 O1029 1.970 . S
Li968 O1030 1.961 . S
Li969 N993 1.990 . S
Li969 O1028 1.970 . S
Li969 O1029 1.956 . S
Li969 O1031 1.961 . S
Li970 N1015 1.990 . S
Li970 O1028 1.961 . S
Li970 O1030 1.956 . S
Li970 O1031 1.970 . S
Li971 N1021 1.990 . S
Li971 O1029 1.961 . S
Li971 O1030 1.970 . S
Li971 O1031 1.956 . S
C972 C974 1.348 . S
C972 C975 1.356 . S
C972 O1028 1.325 . S
N973 C976 1.314 . S
N973 C977 1.279 . S
C974 C972 1.348 . S
C974 C976 1.353 . S
C974 H1032 0.929 . S
C975 C972 1.356 . S
C975 C977 1.358 . S
C975 H1033 0.930 . S
C976 N973 1.314 . S
C976 C974 1.353 . S
C976 H1034 0.930 . S
C977 N973 1.279 . S
C977 C975 1.358 . S
C977 H1035 0.930 . S
C978 C981 1.348 . S
C978 C982 1.356 . S
C978 O1029 1.325 . S
C979 N980 1.279 . S
C979 C982 1.358 . S
C979 H1036 0.930 . S
N980 C979 1.279 . S
N980 C983 1.314 . S
C981 C978 1.348 . S
C981 C983 1.353 . S
C981 H1037 0.929 . S
C982 C978 1.356 . S
C982 C979 1.358 . S
C982 H1038 0.930 . S
C983 N980 1.314 . S
C983 C981 1.353 . S
C983 H1039 0.930 . S
C984 N985 1.314 . S
C984 C989 1.353 . S
C984 H990 0.930 . S
N985 Li968 1.990 . S
N985 C984 1.314 . S
N985 C987 1.279 . S
C986 C987 1.358 . S
C986 C988 1.356 . S
C986 H1040 0.930 . S
C987 N985 1.279 . S
C987 C986 1.358 . S
C987 H991 0.930 . S
C988 C986 1.356 . S
C988 C989 1.348 . S
C989 C984 1.353 . S
C989 C988 1.348 . S
C989 H1041 0.929 . S
H990 C984 0.930 . S
H991 C987 0.930 . S
C992 N993 1.314 . S
C992 C994 1.353 . S
C992 H998 0.930 . S
N993 Li969 1.990 . S
N993 C992 1.314 . S
N993 C996 1.279 . S
C994 C992 1.353 . S
C994 C997 1.348 . S
C994 H1042 0.929 . S
C995 C996 1.358 . S
C995 C997 1.356 . S
C995 H1043 0.930 . S
C996 N993 1.279 . S
C996 C995 1.358 . S
C996 H999 0.930 . S
C997 C994 1.348 . S
C997 C995 1.356 . S
H998 C992 0.930 . S
H999 C996 0.930 . S
C1000 C1002 1.348 . S
C1000 C1003 1.356 . S
C1000 O1030 1.325 . S
N1001 C1004 1.314 . S
N1001 C1005 1.279 . S
C1002 C1000 1.348 . S
C1002 C1004 1.353 . S
C1002 H1044 0.929 . S
C1003 C1000 1.356 . S
C1003 C1005 1.358 . S
C1003 H1045 0.930 . S
C1004 N1001 1.314 . S
C1004 C1002 1.353 . S
C1004 H1046 0.930 . S
C1005 N1001 1.279 . S
C1005 C1003 1.358 . S
C1005 H1047 0.930 . S
C1006 C1007 1.348 . S
C1006 C1008 1.356 . S
C1006 O1031 1.325 . S
C1007 C1006 1.348 . S
C1007 C1009 1.353 . S
C1007 H1048 0.929 . S
C1008 C1006 1.356 . S
C1008 C1010 1.358 . S
C1008 H1049 0.930 . S
C1009 C1007 1.353 . S
C1009 N1011 1.314 . S
C1009 H1050 0.930 . S
C1010 C1008 1.358 . S
C1010 N1011 1.279 . S
C1010 H1051 0.930 . S
N1011 C1009 1.314 . S
N1011 C1010 1.279 . S
C1012 C1014 1.353 . S
C1012 N1015 1.314 . S
C1012 H1018 0.930 . S
C1013 N1015 1.279 . S
C1013 C1016 1.358 . S
C1013 H1019 0.930 . S
C1014 C1012 1.353 . S
C1014 C1017 1.348 . S
C1014 H1052 0.929 . S
N1015 Li970 1.990 . S
N1015 C1012 1.314 . S
N1015 C1013 1.279 . S
C1016 C1013 1.358 . S
C1016 C1017 1.356 . S
C1016 H1053 0.930 . S
C1017 C1014 1.348 . S
C1017 C1016 1.356 . S
H1018 C1012 0.930 . S
H1019 C1013 0.930 . S
C1020 N1021 1.314 . S
C1020 C1022 1.353 . S
C1020 H1026 0.930 . S
N1021 Li971 1.990 . S
N1021 C1020 1.314 . S
N1021 C1024 1.279 . S
C1022 C1020 1.353 . S
C1022 C1025 1.348 . S
C1022 H1054 0.929 . S
C1023 C1024 1.358 . S
C1023 C1025 1.356 . S
C1023 H1055 0.930 . S
C1024 N1021 1.279 . S
C1024 C1023 1.358 . S
C1024 H1027 0.930 . S
C1025 C1022 1.348 . S
C1025 C1023 1.356 . S
H1026 C1020 0.930 . S
H1027 C1024 0.930 . S
O1028 Li968 1.956 . S
O1028 Li969 1.970 . S
O1028 Li970 1.961 . S
O1028 C972 1.325 . S
O1029 Li968 1.970 . S
O1029 Li969 1.956 . S
O1029 Li971 1.961 . S
O1029 C978 1.325 . S
O1030 Li968 1.961 . S
O1030 Li970 1.956 . S
O1030 Li971 1.970 . S
O1030 C1000 1.325 . S
O1031 Li969 1.961 . S
O1031 Li970 1.970 . S
O1031 Li971 1.956 . S
O1031 C1006 1.325 . S
H1032 C974 0.929 . S
H1033 C975 0.930 . S
H1034 C976 0.930 . S
H1035 C977 0.930 . S
H1036 C979 0.930 . S
H1037 C981 0.929 . S
H1038 C982 0.930 . S
H1039 C983 0.930 . S
H1040 C986 0.930 . S
H1041 C989 0.929 . S
H1042 C994 0.929 . S
H1043 C995 0.930 . S
H1044 C1002 0.929 . S
H1045 C1003 0.930 . S
H1046 C1004 0.930 . S
H1047 C1005 0.930 . S
H1048 C1007 0.929 . S
H1049 C1008 0.930 . S
H1050 C1009 0.930 . S
H1051 C1010 0.930 . S
H1052 C1014 0.929 . S
H1053 C1016 0.930 . S
H1054 C1022 0.929 . S
H1055 C1023 0.930 . S
Li1056 N1073 1.990 . S
Li1056 O1116 1.956 . S
Li1056 O1117 1.970 . S
Li1056 O1118 1.961 . S
Li1057 N1081 1.990 . S
Li1057 O1116 1.970 . S
Li1057 O1117 1.956 . S
Li1057 O1119 1.961 . S
Li1058 N1103 1.990 . S
Li1058 O1116 1.961 . S
Li1058 O1118 1.956 . S
Li1058 O1119 1.970 . S
Li1059 N1109 1.990 . S
Li1059 O1117 1.961 . S
Li1059 O1118 1.970 . S
Li1059 O1119 1.956 . S
C1060 C1062 1.348 . S
C1060 C1063 1.356 . S
C1060 O1116 1.325 . S
N1061 C1064 1.314 . S
N1061 C1065 1.279 . S
C1062 C1060 1.348 . S
C1062 C1064 1.353 . S
C1062 H1120 0.929 . S
C1063 C1060 1.356 . S
C1063 C1065 1.358 . S
C1063 H1121 0.930 . S
C1064 N1061 1.314 . S
C1064 C1062 1.353 . S
C1064 H1122 0.930 . S
C1065 N1061 1.279 . S
C1065 C1063 1.358 . S
C1065 H1123 0.930 . S
C1066 C1069 1.348 . S
C1066 C1070 1.356 . S
C1066 O1117 1.325 . S
C1067 N1068 1.279 . S
C1067 C1070 1.358 . S
C1067 H1124 0.930 . S
N1068 C1067 1.279 . S
N1068 C1071 1.314 . S
C1069 C1066 1.348 . S
C1069 C1071 1.353 . S
C1069 H1125 0.929 . S
C1070 C1066 1.356 . S
C1070 C1067 1.358 . S
C1070 H1126 0.930 . S
C1071 N1068 1.314 . S
C1071 C1069 1.353 . S
C1071 H1127 0.930 . S
C1072 N1073 1.314 . S
C1072 C1077 1.353 . S
C1072 H1078 0.930 . S
N1073 Li1056 1.990 . S
N1073 C1072 1.314 . S
N1073 C1075 1.279 . S
C1074 C1075 1.358 . S
C1074 C1076 1.356 . S
C1074 H1128 0.930 . S
C1075 N1073 1.279 . S
C1075 C1074 1.358 . S
C1075 H1079 0.930 . S
C1076 C1074 1.356 . S
C1076 C1077 1.348 . S
C1077 C1072 1.353 . S
C1077 C1076 1.348 . S
C1077 H1129 0.929 . S
H1078 C1072 0.930 . S
H1079 C1075 0.930 . S
C1080 N1081 1.314 . S
C1080 C1082 1.353 . S
C1080 H1086 0.930 . S
N1081 Li1057 1.990 . S
N1081 C1080 1.314 . S
N1081 C1084 1.279 . S
C1082 C1080 1.353 . S
C1082 C1085 1.348 . S
C1082 H1130 0.929 . S
C1083 C1084 1.358 . S
C1083 C1085 1.356 . S
C1083 H1131 0.930 . S
C1084 N1081 1.279 . S
C1084 C1083 1.358 . S
C1084 H1087 0.930 . S
C1085 C1082 1.348 . S
C1085 C1083 1.356 . S
H1086 C1080 0.930 . S
H1087 C1084 0.930 . S
C1088 C1090 1.348 . S
C1088 C1091 1.356 . S
C1088 O1118 1.325 . S
N1089 C1092 1.314 . S
N1089 C1093 1.279 . S
C1090 C1088 1.348 . S
C1090 C1092 1.353 . S
C1090 H1132 0.929 . S
C1091 C1088 1.356 . S
C1091 C1093 1.358 . S
C1091 H1133 0.930 . S
C1092 N1089 1.314 . S
C1092 C1090 1.353 . S
C1092 H1134 0.930 . S
C1093 N1089 1.279 . S
C1093 C1091 1.358 . S
C1093 H1135 0.930 . S
C1094 C1095 1.348 . S
C1094 C1096 1.356 . S
C1094 O1119 1.325 . S
C1095 C1094 1.348 . S
C1095 C1097 1.353 . S
C1095 H1136 0.929 . S
C1096 C1094 1.356 . S
C1096 C1098 1.358 . S
C1096 H1137 0.930 . S
C1097 C1095 1.353 . S
C1097 N1099 1.314 . S
C1097 H1138 0.930 . S
C1098 C1096 1.358 . S
C1098 N1099 1.279 . S
C1098 H1139 0.930 . S
N1099 C1097 1.314 . S
N1099 C1098 1.279 . S
C1100 C1102 1.353 . S
C1100 N1103 1.314 . S
C1100 H1106 0.930 . S
C1101 N1103 1.279 . S
C1101 C1104 1.358 . S
C1101 H1107 0.930 . S
C1102 C1100 1.353 . S
C1102 C1105 1.348 . S
C1102 H1140 0.929 . S
N1103 Li1058 1.990 . S
N1103 C1100 1.314 . S
N1103 C1101 1.279 . S
C1104 C1101 1.358 . S
C1104 C1105 1.356 . S
C1104 H1141 0.930 . S
C1105 C1102 1.348 . S
C1105 C1104 1.356 . S
H1106 C1100 0.930 . S
H1107 C1101 0.930 . S
C1108 N1109 1.314 . S
C1108 C1110 1.353 . S
C1108 H1114 0.930 . S
N1109 Li1059 1.990 . S
N1109 C1108 1.314 . S
N1109 C1112 1.279 . S
C1110 C1108 1.353 . S
C1110 C1113 1.348 . S
C1110 H1142 0.929 . S
C1111 C1112 1.358 . S
C1111 C1113 1.356 . S
C1111 H1143 0.930 . S
C1112 N1109 1.279 . S
C1112 C1111 1.358 . S
C1112 H1115 0.930 . S
C1113 C1110 1.348 . S
C1113 C1111 1.356 . S
H1114 C1108 0.930 . S
H1115 C1112 0.930 . S
O1116 Li1056 1.956 . S
O1116 Li1057 1.970 . S
O1116 Li1058 1.961 . S
O1116 C1060 1.325 . S
O1117 Li1056 1.970 . S
O1117 Li1057 1.956 . S
O1117 Li1059 1.961 . S
O1117 C1066 1.325 . S
O1118 Li1056 1.961 . S
O1118 Li1058 1.956 . S
O1118 Li1059 1.970 . S
O1118 C1088 1.325 . S
O1119 Li1057 1.961 . S
O1119 Li1058 1.970 . S
O1119 Li1059 1.956 . S
O1119 C1094 1.325 . S
H1120 C1062 0.929 . S
H1121 C1063 0.930 . S
H1122 C1064 0.930 . S
H1123 C1065 0.930 . S
H1124 C1067 0.930 . S
H1125 C1069 0.929 . S
H1126 C1070 0.930 . S
H1127 C1071 0.930 . S
H1128 C1074 0.930 . S
H1129 C1077 0.929 . S
H1130 C1082 0.929 . S
H1131 C1083 0.930 . S
H1132 C1090 0.929 . S
H1133 C1091 0.930 . S
H1134 C1092 0.930 . S
H1135 C1093 0.930 . S
H1136 C1095 0.929 . S
H1137 C1096 0.930 . S
H1138 C1097 0.930 . S
H1139 C1098 0.930 . S
H1140 C1102 0.929 . S
H1141 C1104 0.930 . S
H1142 C1110 0.929 . S
H1143 C1111 0.930 . S
Li1144 N1161 1.990 . S
Li1144 O1204 1.956 . S
Li1144 O1205 1.970 . S
Li1144 O1206 1.961 . S
Li1145 N1169 1.990 . S
Li1145 O1204 1.970 . S
Li1145 O1205 1.956 . S
Li1145 O1207 1.961 . S
Li1146 N1191 1.990 . S
Li1146 O1204 1.961 . S
Li1146 O1206 1.956 . S
Li1146 O1207 1.970 . S
Li1147 N1197 1.990 . S
Li1147 O1205 1.961 . S
Li1147 O1206 1.970 . S
Li1147 O1207 1.956 . S
C1148 C1150 1.348 . S
C1148 C1151 1.356 . S
C1148 O1204 1.325 . S
N1149 C1152 1.314 . S
N1149 C1153 1.279 . S
C1150 C1148 1.348 . S
C1150 C1152 1.353 . S
C1150 H1208 0.929 . S
C1151 C1148 1.356 . S
C1151 C1153 1.358 . S
C1151 H1209 0.930 . S
C1152 N1149 1.314 . S
C1152 C1150 1.353 . S
C1152 H1210 0.930 . S
C1153 N1149 1.279 . S
C1153 C1151 1.358 . S
C1153 H1211 0.930 . S
C1154 C1157 1.348 . S
C1154 C1158 1.356 . S
C1154 O1205 1.325 . S
C1155 N1156 1.279 . S
C1155 C1158 1.358 . S
C1155 H1212 0.930 . S
N1156 C1155 1.279 . S
N1156 C1159 1.314 . S
C1157 C1154 1.348 . S
C1157 C1159 1.353 . S
C1157 H1213 0.929 . S
C1158 C1154 1.356 . S
C1158 C1155 1.358 . S
C1158 H1214 0.930 . S
C1159 N1156 1.314 . S
C1159 C1157 1.353 . S
C1159 H1215 0.930 . S
C1160 N1161 1.314 . S
C1160 C1165 1.353 . S
C1160 H1166 0.930 . S
N1161 Li1144 1.990 . S
N1161 C1160 1.314 . S
N1161 C1163 1.279 . S
C1162 C1163 1.358 . S
C1162 C1164 1.356 . S
C1162 H1216 0.930 . S
C1163 N1161 1.279 . S
C1163 C1162 1.358 . S
C1163 H1167 0.930 . S
C1164 C1162 1.356 . S
C1164 C1165 1.348 . S
C1165 C1160 1.353 . S
C1165 C1164 1.348 . S
C1165 H1217 0.929 . S
H1166 C1160 0.930 . S
H1167 C1163 0.930 . S
C1168 N1169 1.314 . S
C1168 C1170 1.353 . S
C1168 H1174 0.930 . S
N1169 Li1145 1.990 . S
N1169 C1168 1.314 . S
N1169 C1172 1.279 . S
C1170 C1168 1.353 . S
C1170 C1173 1.348 . S
C1170 H1218 0.929 . S
C1171 C1172 1.358 . S
C1171 C1173 1.356 . S
C1171 H1219 0.930 . S
C1172 N1169 1.279 . S
C1172 C1171 1.358 . S
C1172 H1175 0.930 . S
C1173 C1170 1.348 . S
C1173 C1171 1.356 . S
H1174 C1168 0.930 . S
H1175 C1172 0.930 . S
C1176 C1178 1.348 . S
C1176 C1179 1.356 . S
C1176 O1206 1.325 . S
N1177 C1180 1.314 . S
N1177 C1181 1.279 . S
C1178 C1176 1.348 . S
C1178 C1180 1.353 . S
C1178 H1220 0.929 . S
C1179 C1176 1.356 . S
C1179 C1181 1.358 . S
C1179 H1221 0.930 . S
C1180 N1177 1.314 . S
C1180 C1178 1.353 . S
C1180 H1222 0.930 . S
C1181 N1177 1.279 . S
C1181 C1179 1.358 . S
C1181 H1223 0.930 . S
C1182 C1183 1.348 . S
C1182 C1184 1.356 . S
C1182 O1207 1.325 . S
C1183 C1182 1.348 . S
C1183 C1185 1.353 . S
C1183 H1224 0.929 . S
C1184 C1182 1.356 . S
C1184 C1186 1.358 . S
C1184 H1225 0.930 . S
C1185 C1183 1.353 . S
C1185 N1187 1.314 . S
C1185 H1226 0.930 . S
C1186 C1184 1.358 . S
C1186 N1187 1.279 . S
C1186 H1227 0.930 . S
N1187 C1185 1.314 . S
N1187 C1186 1.279 . S
C1188 C1190 1.353 . S
C1188 N1191 1.314 . S
C1188 H1194 0.930 . S
C1189 N1191 1.279 . S
C1189 C1192 1.358 . S
C1189 H1195 0.930 . S
C1190 C1188 1.353 . S
C1190 C1193 1.348 . S
C1190 H1228 0.929 . S
N1191 Li1146 1.990 . S
N1191 C1188 1.314 . S
N1191 C1189 1.279 . S
C1192 C1189 1.358 . S
C1192 C1193 1.356 . S
C1192 H1229 0.930 . S
C1193 C1190 1.348 . S
C1193 C1192 1.356 . S
H1194 C1188 0.930 . S
H1195 C1189 0.930 . S
C1196 N1197 1.314 . S
C1196 C1198 1.353 . S
C1196 H1202 0.930 . S
N1197 Li1147 1.990 . S
N1197 C1196 1.314 . S
N1197 C1200 1.279 . S
C1198 C1196 1.353 . S
C1198 C1201 1.348 . S
C1198 H1230 0.929 . S
C1199 C1200 1.358 . S
C1199 C1201 1.356 . S
C1199 H1231 0.930 . S
C1200 N1197 1.279 . S
C1200 C1199 1.358 . S
C1200 H1203 0.930 . S
C1201 C1198 1.348 . S
C1201 C1199 1.356 . S
H1202 C1196 0.930 . S
H1203 C1200 0.930 . S
O1204 Li1144 1.956 . S
O1204 Li1145 1.970 . S
O1204 Li1146 1.961 . S
O1204 C1148 1.325 . S
O1205 Li1144 1.970 . S
O1205 Li1145 1.956 . S
O1205 Li1147 1.961 . S
O1205 C1154 1.325 . S
O1206 Li1144 1.961 . S
O1206 Li1146 1.956 . S
O1206 Li1147 1.970 . S
O1206 C1176 1.325 . S
O1207 Li1145 1.961 . S
O1207 Li1146 1.970 . S
O1207 Li1147 1.956 . S
O1207 C1182 1.325 . S
H1208 C1150 0.929 . S
H1209 C1151 0.930 . S
H1210 C1152 0.930 . S
H1211 C1153 0.930 . S
H1212 C1155 0.930 . S
H1213 C1157 0.929 . S
H1214 C1158 0.930 . S
H1215 C1159 0.930 . S
H1216 C1162 0.930 . S
H1217 C1165 0.929 . S
H1218 C1170 0.929 . S
H1219 C1171 0.930 . S
H1220 C1178 0.929 . S
H1221 C1179 0.930 . S
H1222 C1180 0.930 . S
H1223 C1181 0.930 . S
H1224 C1183 0.929 . S
H1225 C1184 0.930 . S
H1226 C1185 0.930 . S
H1227 C1186 0.930 . S
H1228 C1190 0.929 . S
H1229 C1192 0.930 . S
H1230 C1198 0.929 . S
H1231 C1199 0.930 . S
Li1232 N1249 1.990 . S
Li1232 O1292 1.956 . S
Li1232 O1293 1.970 . S
Li1232 O1294 1.961 . S
Li1233 N1257 1.990 . S
Li1233 O1292 1.970 . S
Li1233 O1293 1.956 . S
Li1233 O1295 1.961 . S
Li1234 N1279 1.990 . S
Li1234 O1292 1.961 . S
Li1234 O1294 1.956 . S
Li1234 O1295 1.970 . S
Li1235 N1285 1.990 . S
Li1235 O1293 1.961 . S
Li1235 O1294 1.970 . S
Li1235 O1295 1.956 . S
C1236 C1238 1.348 . S
C1236 C1239 1.356 . S
C1236 O1292 1.325 . S
N1237 C1240 1.314 . S
N1237 C1241 1.279 . S
C1238 C1236 1.348 . S
C1238 C1240 1.353 . S
C1238 H1296 0.929 . S
C1239 C1236 1.356 . S
C1239 C1241 1.358 . S
C1239 H1297 0.930 . S
C1240 N1237 1.314 . S
C1240 C1238 1.353 . S
C1240 H1298 0.930 . S
C1241 N1237 1.279 . S
C1241 C1239 1.358 . S
C1241 H1299 0.930 . S
C1242 C1245 1.348 . S
C1242 C1246 1.356 . S
C1242 O1293 1.325 . S
C1243 N1244 1.279 . S
C1243 C1246 1.358 . S
C1243 H1300 0.930 . S
N1244 C1243 1.279 . S
N1244 C1247 1.314 . S
C1245 C1242 1.348 . S
C1245 C1247 1.353 . S
C1245 H1301 0.929 . S
C1246 C1242 1.356 . S
C1246 C1243 1.358 . S
C1246 H1302 0.930 . S
C1247 N1244 1.314 . S
C1247 C1245 1.353 . S
C1247 H1303 0.930 . S
C1248 N1249 1.314 . S
C1248 C1253 1.353 . S
C1248 H1254 0.930 . S
N1249 Li1232 1.990 . S
N1249 C1248 1.314 . S
N1249 C1251 1.279 . S
C1250 C1251 1.358 . S
C1250 C1252 1.356 . S
C1250 H1304 0.930 . S
C1251 N1249 1.279 . S
C1251 C1250 1.358 . S
C1251 H1255 0.930 . S
C1252 C1250 1.356 . S
C1252 C1253 1.348 . S
C1253 C1248 1.353 . S
C1253 C1252 1.348 . S
C1253 H1305 0.929 . S
H1254 C1248 0.930 . S
H1255 C1251 0.930 . S
C1256 N1257 1.314 . S
C1256 C1258 1.353 . S
C1256 H1262 0.930 . S
N1257 Li1233 1.990 . S
N1257 C1256 1.314 . S
N1257 C1260 1.279 . S
C1258 C1256 1.353 . S
C1258 C1261 1.348 . S
C1258 H1306 0.929 . S
C1259 C1260 1.358 . S
C1259 C1261 1.356 . S
C1259 H1307 0.930 . S
C1260 N1257 1.279 . S
C1260 C1259 1.358 . S
C1260 H1263 0.930 . S
C1261 C1258 1.348 . S
C1261 C1259 1.356 . S
H1262 C1256 0.930 . S
H1263 C1260 0.930 . S
C1264 C1266 1.348 . S
C1264 C1267 1.356 . S
C1264 O1294 1.325 . S
N1265 C1268 1.314 . S
N1265 C1269 1.279 . S
C1266 C1264 1.348 . S
C1266 C1268 1.353 . S
C1266 H1308 0.929 . S
C1267 C1264 1.356 . S
C1267 C1269 1.358 . S
C1267 H1309 0.930 . S
C1268 N1265 1.314 . S
C1268 C1266 1.353 . S
C1268 H1310 0.930 . S
C1269 N1265 1.279 . S
C1269 C1267 1.358 . S
C1269 H1311 0.930 . S
C1270 C1271 1.348 . S
C1270 C1272 1.356 . S
C1270 O1295 1.325 . S
C1271 C1270 1.348 . S
C1271 C1273 1.353 . S
C1271 H1312 0.929 . S
C1272 C1270 1.356 . S
C1272 C1274 1.358 . S
C1272 H1313 0.930 . S
C1273 C1271 1.353 . S
C1273 N1275 1.314 . S
C1273 H1314 0.930 . S
C1274 C1272 1.358 . S
C1274 N1275 1.279 . S
C1274 H1315 0.930 . S
N1275 C1273 1.314 . S
N1275 C1274 1.279 . S
C1276 C1278 1.353 . S
C1276 N1279 1.314 . S
C1276 H1282 0.930 . S
C1277 N1279 1.279 . S
C1277 C1280 1.358 . S
C1277 H1283 0.930 . S
C1278 C1276 1.353 . S
C1278 C1281 1.348 . S
C1278 H1316 0.929 . S
N1279 Li1234 1.990 . S
N1279 C1276 1.314 . S
N1279 C1277 1.279 . S
C1280 C1277 1.358 . S
C1280 C1281 1.356 . S
C1280 H1317 0.930 . S
C1281 C1278 1.348 . S
C1281 C1280 1.356 . S
H1282 C1276 0.930 . S
H1283 C1277 0.930 . S
C1284 N1285 1.314 . S
C1284 C1286 1.353 . S
C1284 H1290 0.930 . S
N1285 Li1235 1.990 . S
N1285 C1284 1.314 . S
N1285 C1288 1.279 . S
C1286 C1284 1.353 . S
C1286 C1289 1.348 . S
C1286 H1318 0.929 . S
C1287 C1288 1.358 . S
C1287 C1289 1.356 . S
C1287 H1319 0.930 . S
C1288 N1285 1.279 . S
C1288 C1287 1.358 . S
C1288 H1291 0.930 . S
C1289 C1286 1.348 . S
C1289 C1287 1.356 . S
H1290 C1284 0.930 . S
H1291 C1288 0.930 . S
O1292 Li1232 1.956 . S
O1292 Li1233 1.970 . S
O1292 Li1234 1.961 . S
O1292 C1236 1.325 . S
O1293 Li1232 1.970 . S
O1293 Li1233 1.956 . S
O1293 Li1235 1.961 . S
O1293 C1242 1.325 . S
O1294 Li1232 1.961 . S
O1294 Li1234 1.956 . S
O1294 Li1235 1.970 . S
O1294 C1264 1.325 . S
O1295 Li1233 1.961 . S
O1295 Li1234 1.970 . S
O1295 Li1235 1.956 . S
O1295 C1270 1.325 . S
H1296 C1238 0.929 . S
H1297 C1239 0.930 . S
H1298 C1240 0.930 . S
H1299 C1241 0.930 . S
H1300 C1243 0.930 . S
H1301 C1245 0.929 . S
H1302 C1246 0.930 . S
H1303 C1247 0.930 . S
H1304 C1250 0.930 . S
H1305 C1253 0.929 . S
H1306 C1258 0.929 . S
H1307 C1259 0.930 . S
H1308 C1266 0.929 . S
H1309 C1267 0.930 . S
H1310 C1268 0.930 . S
H1311 C1269 0.930 . S
H1312 C1271 0.929 . S
H1313 C1272 0.930 . S
H1314 C1273 0.930 . S
H1315 C1274 0.930 . S
H1316 C1278 0.929 . S
H1317 C1280 0.930 . S
H1318 C1286 0.929 . S
H1319 C1287 0.930 . S
Li1320 N1337 1.990 . S
Li1320 O1380 1.956 . S
Li1320 O1381 1.970 . S
Li1320 O1382 1.961 . S
Li1321 N1345 1.990 . S
Li1321 O1380 1.970 . S
Li1321 O1381 1.956 . S
Li1321 O1383 1.961 . S
Li1322 N1367 1.990 . S
Li1322 O1380 1.961 . S
Li1322 O1382 1.956 . S
Li1322 O1383 1.970 . S
Li1323 N1373 1.990 . S
Li1323 O1381 1.961 . S
Li1323 O1382 1.970 . S
Li1323 O1383 1.956 . S
C1324 C1326 1.348 . S
C1324 C1327 1.356 . S
C1324 O1380 1.325 . S
N1325 C1328 1.314 . S
N1325 C1329 1.279 . S
C1326 C1324 1.348 . S
C1326 C1328 1.353 . S
C1326 H1384 0.929 . S
C1327 C1324 1.356 . S
C1327 C1329 1.358 . S
C1327 H1385 0.930 . S
C1328 N1325 1.314 . S
C1328 C1326 1.353 . S
C1328 H1386 0.930 . S
C1329 N1325 1.279 . S
C1329 C1327 1.358 . S
C1329 H1387 0.930 . S
C1330 C1333 1.348 . S
C1330 C1334 1.356 . S
C1330 O1381 1.325 . S
C1331 N1332 1.279 . S
C1331 C1334 1.358 . S
C1331 H1388 0.930 . S
N1332 C1331 1.279 . S
N1332 C1335 1.314 . S
C1333 C1330 1.348 . S
C1333 C1335 1.353 . S
C1333 H1389 0.929 . S
C1334 C1330 1.356 . S
C1334 C1331 1.358 . S
C1334 H1390 0.930 . S
C1335 N1332 1.314 . S
C1335 C1333 1.353 . S
C1335 H1391 0.930 . S
C1336 N1337 1.314 . S
C1336 C1341 1.353 . S
C1336 H1342 0.930 . S
N1337 Li1320 1.990 . S
N1337 C1336 1.314 . S
N1337 C1339 1.279 . S
C1338 C1339 1.358 . S
C1338 C1340 1.356 . S
C1338 H1392 0.930 . S
C1339 N1337 1.279 . S
C1339 C1338 1.358 . S
C1339 H1343 0.930 . S
C1340 C1338 1.356 . S
C1340 C1341 1.348 . S
C1341 C1336 1.353 . S
C1341 C1340 1.348 . S
C1341 H1393 0.929 . S
H1342 C1336 0.930 . S
H1343 C1339 0.930 . S
C1344 N1345 1.314 . S
C1344 C1346 1.353 . S
C1344 H1350 0.930 . S
N1345 Li1321 1.990 . S
N1345 C1344 1.314 . S
N1345 C1348 1.279 . S
C1346 C1344 1.353 . S
C1346 C1349 1.348 . S
C1346 H1394 0.929 . S
C1347 C1348 1.358 . S
C1347 C1349 1.356 . S
C1347 H1395 0.930 . S
C1348 N1345 1.279 . S
C1348 C1347 1.358 . S
C1348 H1351 0.930 . S
C1349 C1346 1.348 . S
C1349 C1347 1.356 . S
H1350 C1344 0.930 . S
H1351 C1348 0.930 . S
C1352 C1354 1.348 . S
C1352 C1355 1.356 . S
C1352 O1382 1.325 . S
N1353 C1356 1.314 . S
N1353 C1357 1.279 . S
C1354 C1352 1.348 . S
C1354 C1356 1.353 . S
C1354 H1396 0.929 . S
C1355 C1352 1.356 . S
C1355 C1357 1.358 . S
C1355 H1397 0.930 . S
C1356 N1353 1.314 . S
C1356 C1354 1.353 . S
C1356 H1398 0.930 . S
C1357 N1353 1.279 . S
C1357 C1355 1.358 . S
C1357 H1399 0.930 . S
C1358 C1359 1.348 . S
C1358 C1360 1.356 . S
C1358 O1383 1.325 . S
C1359 C1358 1.348 . S
C1359 C1361 1.353 . S
C1359 H1400 0.929 . S
C1360 C1358 1.356 . S
C1360 C1362 1.358 . S
C1360 H1401 0.930 . S
C1361 C1359 1.353 . S
C1361 N1363 1.314 . S
C1361 H1402 0.930 . S
C1362 C1360 1.358 . S
C1362 N1363 1.279 . S
C1362 H1403 0.930 . S
N1363 C1361 1.314 . S
N1363 C1362 1.279 . S
C1364 C1366 1.353 . S
C1364 N1367 1.314 . S
C1364 H1370 0.930 . S
C1365 N1367 1.279 . S
C1365 C1368 1.358 . S
C1365 H1371 0.930 . S
C1366 C1364 1.353 . S
C1366 C1369 1.348 . S
C1366 H1404 0.929 . S
N1367 Li1322 1.990 . S
N1367 C1364 1.314 . S
N1367 C1365 1.279 . S
C1368 C1365 1.358 . S
C1368 C1369 1.356 . S
C1368 H1405 0.930 . S
C1369 C1366 1.348 . S
C1369 C1368 1.356 . S
H1370 C1364 0.930 . S
H1371 C1365 0.930 . S
C1372 N1373 1.314 . S
C1372 C1374 1.353 . S
C1372 H1378 0.930 . S
N1373 Li1323 1.990 . S
N1373 C1372 1.314 . S
N1373 C1376 1.279 . S
C1374 C1372 1.353 . S
C1374 C1377 1.348 . S
C1374 H1406 0.929 . S
C1375 C1376 1.358 . S
C1375 C1377 1.356 . S
C1375 H1407 0.930 . S
C1376 N1373 1.279 . S
C1376 C1375 1.358 . S
C1376 H1379 0.930 . S
C1377 C1374 1.348 . S
C1377 C1375 1.356 . S
H1378 C1372 0.930 . S
H1379 C1376 0.930 . S
O1380 Li1320 1.956 . S
O1380 Li1321 1.970 . S
O1380 Li1322 1.961 . S
O1380 C1324 1.325 . S
O1381 Li1320 1.970 . S
O1381 Li1321 1.956 . S
O1381 Li1323 1.961 . S
O1381 C1330 1.325 . S
O1382 Li1320 1.961 . S
O1382 Li1322 1.956 . S
O1382 Li1323 1.970 . S
O1382 C1352 1.325 . S
O1383 Li1321 1.961 . S
O1383 Li1322 1.970 . S
O1383 Li1323 1.956 . S
O1383 C1358 1.325 . S
H1384 C1326 0.929 . S
H1385 C1327 0.930 . S
H1386 C1328 0.930 . S
H1387 C1329 0.930 . S
H1388 C1331 0.930 . S
H1389 C1333 0.929 . S
H1390 C1334 0.930 . S
H1391 C1335 0.930 . S
H1392 C1338 0.930 . S
H1393 C1341 0.929 . S
H1394 C1346 0.929 . S
H1395 C1347 0.930 . S
H1396 C1354 0.929 . S
H1397 C1355 0.930 . S
H1398 C1356 0.930 . S
H1399 C1357 0.930 . S
H1400 C1359 0.929 . S
H1401 C1360 0.930 . S
H1402 C1361 0.930 . S
H1403 C1362 0.930 . S
H1404 C1366 0.929 . S
H1405 C1368 0.930 . S
H1406 C1374 0.929 . S
H1407 C1375 0.930 . S
H1408 C1426 0.951 . S
H1409 C1428 0.951 . S
H1410 C1430 0.950 . S
H1411 C1431 0.950 . S
H1412 C1433 0.950 . S
H1413 C1436 0.950 . S
H1414 C1437 0.950 . S
H1415 C1439 0.950 . S
H1416 C1440 0.950 . S
H1417 C1441 0.951 . S
H1418 C1443 0.951 . S
H1419 C1445 0.950 . S
H1420 C1446 0.950 . S
H1421 C1448 0.950 . S
H1422 C1451 0.950 . S
H1423 C1452 0.950 . S
H1424 C1454 0.950 . S
H1425 C1455 0.950 . S
C1426 H1408 0.951 . S
C1426 C1427 1.366 . S
C1426 C1428 1.388 . S
C1427 C1426 1.366 . S
C1427 C1431 1.385 . S
C1428 H1409 0.951 . S
C1428 C1426 1.388 . S
C1428 C1429 1.366 . S
C1429 C1428 1.366 . S
C1429 C1430 1.414 . S
C1429 C1432 1.499 . S
C1430 H1410 0.950 . S
C1430 C1429 1.414 . S
C1430 C1431 1.374 . S
C1431 H1411 0.950 . S
C1431 C1427 1.385 . S
C1431 C1430 1.374 . S
C1432 C1429 1.499 . S
C1432 C1433 1.373 . S
C1432 C1434 1.389 . S
C1433 H1412 0.950 . S
C1433 C1432 1.373 . S
C1433 C1449 1.377 1_455 S
C1434 C1432 1.389 . S
C1434 C1435 1.524 . S
C1434 C1448 1.377 1_455 S
C1435 C1434 1.524 . S
C1435 C1436 1.397 . S
C1435 C1440 1.363 . S
C1436 H1413 0.950 . S
C1436 C1435 1.397 . S
C1436 C1437 1.334 . S
C1437 H1414 0.950 . S
C1437 C1436 1.334 . S
C1437 C1438 1.287 . S
C1438 C1437 1.287 . S
C1438 C1439 1.524 . S
C1438 H1457 0.913 . S
C1439 H1415 0.950 . S
C1439 C1438 1.524 . S
C1439 C1440 1.415 . S
C1440 H1416 0.950 . S
C1440 C1435 1.363 . S
C1440 C1439 1.415 . S
C1441 H1417 0.951 . S
C1441 C1442 1.366 . S
C1441 C1443 1.388 . S
C1442 C1441 1.366 . S
C1442 C1446 1.385 . S
C1443 H1418 0.951 . S
C1443 C1441 1.388 . S
C1443 C1444 1.366 . S
C1444 C1443 1.366 . S
C1444 C1445 1.414 . S
C1444 C1447 1.499 . S
C1445 H1419 0.950 . S
C1445 C1444 1.414 . S
C1445 C1446 1.374 . S
C1446 H1420 0.950 . S
C1446 C1442 1.385 . S
C1446 C1445 1.374 . S
C1447 C1444 1.499 . S
C1447 C1448 1.373 . S
C1447 C1449 1.389 . S
C1448 H1421 0.950 . S
C1448 C1434 1.377 1_655 S
C1448 C1447 1.373 . S
C1449 C1433 1.377 1_655 S
C1449 C1447 1.389 . S
C1449 C1450 1.524 . S
C1450 C1449 1.524 . S
C1450 C1451 1.397 . S
C1450 C1455 1.363 . S
C1451 H1422 0.950 . S
C1451 C1450 1.397 . S
C1451 C1452 1.334 . S
C1452 H1423 0.950 . S
C1452 C1451 1.334 . S
C1452 C1453 1.287 . S
C1453 C1452 1.287 . S
C1453 C1454 1.524 . S
C1453 H1456 0.999 . S
C1454 H1424 0.950 . S
C1454 C1453 1.524 . S
C1454 C1455 1.415 . S
C1455 H1425 0.950 . S
C1455 C1450 1.363 . S
C1455 C1454 1.415 . S
H1456 C1453 0.999 . S
H1457 C1438 0.913 . S
H1458 C1476 0.951 . S
H1459 C1478 0.951 . S
H1460 C1480 0.950 . S
H1461 C1481 0.950 . S
H1462 C1483 0.950 . S
H1463 C1486 0.950 . S
H1464 C1487 0.950 . S
H1465 C1489 0.950 . S
H1466 C1490 0.950 . S
H1467 C1491 0.951 . S
H1468 C1493 0.951 . S
H1469 C1495 0.950 . S
H1470 C1496 0.950 . S
H1471 C1498 0.950 . S
H1472 C1501 0.950 . S
H1473 C1502 0.950 . S
H1474 C1504 0.950 . S
H1475 C1505 0.950 . S
C1476 H1458 0.951 . S
C1476 C1477 1.366 . S
C1476 C1478 1.388 . S
C1477 C1476 1.366 . S
C1477 C1481 1.385 . S
C1478 H1459 0.951 . S
C1478 C1476 1.388 . S
C1478 C1479 1.366 . S
C1479 C1478 1.366 . S
C1479 C1480 1.414 . S
C1479 C1482 1.499 . S
C1480 H1460 0.950 . S
C1480 C1479 1.414 . S
C1480 C1481 1.374 . S
C1481 H1461 0.950 . S
C1481 C1477 1.385 . S
C1481 C1480 1.374 . S
C1482 C1479 1.499 . S
C1482 C1483 1.373 . S
C1482 C1484 1.389 . S
C1483 H1462 0.950 . S
C1483 C1482 1.373 . S
C1483 C1499 1.377 1_655 S
C1484 C1482 1.389 . S
C1484 C1485 1.524 . S
C1484 C1498 1.377 1_655 S
C1485 C1484 1.524 . S
C1485 C1486 1.397 . S
C1485 C1490 1.363 . S
C1486 H1463 0.950 . S
C1486 C1485 1.397 . S
C1486 C1487 1.334 . S
C1487 H1464 0.950 . S
C1487 C1486 1.334 . S
C1487 C1488 1.287 . S
C1488 C1487 1.287 . S
C1488 C1489 1.524 . S
C1488 H1507 0.913 . S
C1489 H1465 0.950 . S
C1489 C1488 1.524 . S
C1489 C1490 1.415 . S
C1490 H1466 0.950 . S
C1490 C1485 1.363 . S
C1490 C1489 1.415 . S
C1491 H1467 0.951 . S
C1491 C1492 1.366 . S
C1491 C1493 1.388 . S
C1492 C1491 1.366 . S
C1492 C1496 1.385 . S
C1493 H1468 0.951 . S
C1493 C1491 1.388 . S
C1493 C1494 1.366 . S
C1494 C1493 1.366 . S
C1494 C1495 1.414 . S
C1494 C1497 1.499 . S
C1495 H1469 0.950 . S
C1495 C1494 1.414 . S
C1495 C1496 1.374 . S
C1496 H1470 0.950 . S
C1496 C1492 1.385 . S
C1496 C1495 1.374 . S
C1497 C1494 1.499 . S
C1497 C1498 1.373 . S
C1497 C1499 1.389 . S
C1498 H1471 0.950 . S
C1498 C1484 1.377 1_455 S
C1498 C1497 1.373 . S
C1499 C1483 1.377 1_455 S
C1499 C1497 1.389 . S
C1499 C1500 1.524 . S
C1500 C1499 1.524 . S
C1500 C1501 1.397 . S
C1500 C1505 1.363 . S
C1501 H1472 0.950 . S
C1501 C1500 1.397 . S
C1501 C1502 1.334 . S
C1502 H1473 0.950 . S
C1502 C1501 1.334 . S
C1502 C1503 1.287 . S
C1503 C1502 1.287 . S
C1503 C1504 1.524 . S
C1503 H1506 0.999 . S
C1504 H1474 0.950 . S
C1504 C1503 1.524 . S
C1504 C1505 1.415 . S
C1505 H1475 0.950 . S
C1505 C1500 1.363 . S
C1505 C1504 1.415 . S
H1506 C1503 0.999 . S
H1507 C1488 0.913 . S
H1508 C1526 0.951 . S
H1509 C1528 0.951 . S
H1510 C1530 0.950 . S
H1511 C1531 0.950 . S
H1512 C1533 0.950 . S
H1513 C1536 0.950 . S
H1514 C1537 0.950 . S
H1515 C1539 0.950 . S
H1516 C1540 0.950 . S
H1517 C1541 0.951 . S
H1518 C1543 0.951 . S
H1519 C1545 0.950 . S
H1520 C1546 0.950 . S
H1521 C1548 0.950 . S
H1522 C1551 0.950 . S
H1523 C1552 0.950 . S
H1524 C1554 0.950 . S
H1525 C1555 0.950 . S
C1526 H1508 0.951 . S
C1526 C1527 1.366 . S
C1526 C1528 1.388 . S
C1527 C1526 1.366 . S
C1527 C1531 1.385 . S
C1528 H1509 0.951 . S
C1528 C1526 1.388 . S
C1528 C1529 1.366 . S
C1529 C1528 1.366 . S
C1529 C1530 1.414 . S
C1529 C1532 1.499 . S
C1530 H1510 0.950 . S
C1530 C1529 1.414 . S
C1530 C1531 1.374 . S
C1531 H1511 0.950 . S
C1531 C1527 1.385 . S
C1531 C1530 1.374 . S
C1532 C1529 1.499 . S
C1532 C1533 1.373 . S
C1532 C1534 1.389 . S
C1533 H1512 0.950 . S
C1533 C1532 1.373 . S
C1533 C1549 1.377 1_655 S
C1534 C1532 1.389 . S
C1534 C1535 1.524 . S
C1534 C1548 1.377 1_655 S
C1535 C1534 1.524 . S
C1535 C1536 1.397 . S
C1535 C1540 1.363 . S
C1536 H1513 0.950 . S
C1536 C1535 1.397 . S
C1536 C1537 1.334 . S
C1537 H1514 0.950 . S
C1537 C1536 1.334 . S
C1537 C1538 1.287 . S
C1538 C1537 1.287 . S
C1538 C1539 1.524 . S
C1538 H1557 0.913 1_556 S
C1539 H1515 0.950 . S
C1539 C1538 1.524 . S
C1539 C1540 1.415 . S
C1540 H1516 0.950 . S
C1540 C1535 1.363 . S
C1540 C1539 1.415 . S
C1541 H1517 0.951 . S
C1541 C1542 1.366 . S
C1541 C1543 1.388 . S
C1542 C1541 1.366 . S
C1542 C1546 1.385 . S
C1543 H1518 0.951 . S
C1543 C1541 1.388 . S
C1543 C1544 1.366 . S
C1544 C1543 1.366 . S
C1544 C1545 1.414 . S
C1544 C1547 1.499 . S
C1545 H1519 0.950 . S
C1545 C1544 1.414 . S
C1545 C1546 1.374 . S
C1546 H1520 0.950 . S
C1546 C1542 1.385 . S
C1546 C1545 1.374 . S
C1547 C1544 1.499 . S
C1547 C1548 1.373 . S
C1547 C1549 1.389 . S
C1548 H1521 0.950 . S
C1548 C1534 1.377 1_455 S
C1548 C1547 1.373 . S
C1549 C1533 1.377 1_455 S
C1549 C1547 1.389 . S
C1549 C1550 1.524 . S
C1550 C1549 1.524 . S
C1550 C1551 1.397 . S
C1550 C1555 1.363 . S
C1551 H1522 0.950 . S
C1551 C1550 1.397 . S
C1551 C1552 1.334 . S
C1552 H1523 0.950 . S
C1552 C1551 1.334 . S
C1552 C1553 1.287 . S
C1553 C1552 1.287 . S
C1553 C1554 1.524 . S
C1553 H1556 0.999 . S
C1554 H1524 0.950 . S
C1554 C1553 1.524 . S
C1554 C1555 1.415 . S
C1555 H1525 0.950 . S
C1555 C1550 1.363 . S
C1555 C1554 1.415 . S
H1556 C1553 0.999 . S
H1557 C1538 0.913 1_554 S
H1558 C1576 0.951 . S
H1559 C1578 0.951 . S
H1560 C1580 0.950 . S
H1561 C1581 0.950 . S
H1562 C1583 0.950 . S
H1563 C1586 0.950 . S
H1564 C1587 0.950 . S
H1565 C1589 0.950 . S
H1566 C1590 0.950 . S
H1567 C1591 0.951 . S
H1568 C1593 0.951 . S
H1569 C1595 0.950 . S
H1570 C1596 0.950 . S
H1571 C1598 0.950 . S
H1572 C1601 0.950 . S
H1573 C1602 0.950 . S
H1574 C1604 0.950 . S
H1575 C1605 0.950 . S
C1576 H1558 0.951 . S
C1576 C1577 1.366 . S
C1576 C1578 1.388 . S
C1577 C1576 1.366 . S
C1577 C1581 1.385 . S
C1578 H1559 0.951 . S
C1578 C1576 1.388 . S
C1578 C1579 1.366 . S
C1579 C1578 1.366 . S
C1579 C1580 1.414 . S
C1579 C1582 1.499 . S
C1580 H1560 0.950 . S
C1580 C1579 1.414 . S
C1580 C1581 1.374 . S
C1581 H1561 0.950 . S
C1581 C1577 1.385 . S
C1581 C1580 1.374 . S
C1582 C1579 1.499 . S
C1582 C1583 1.373 . S
C1582 C1584 1.389 . S
C1583 H1562 0.950 . S
C1583 C1582 1.373 . S
C1583 C1599 1.377 1_455 S
C1584 C1582 1.389 . S
C1584 C1585 1.524 . S
C1584 C1598 1.377 1_455 S
C1585 C1584 1.524 . S
C1585 C1586 1.397 . S
C1585 C1590 1.363 . S
C1586 H1563 0.950 . S
C1586 C1585 1.397 . S
C1586 C1587 1.334 . S
C1587 H1564 0.950 . S
C1587 C1586 1.334 . S
C1587 C1588 1.287 . S
C1588 C1587 1.287 . S
C1588 C1589 1.524 . S
C1588 H1607 0.913 . S
C1589 H1565 0.950 . S
C1589 C1588 1.524 . S
C1589 C1590 1.415 . S
C1590 H1566 0.950 . S
C1590 C1585 1.363 . S
C1590 C1589 1.415 . S
C1591 H1567 0.951 . S
C1591 C1592 1.366 . S
C1591 C1593 1.388 . S
C1592 C1591 1.366 . S
C1592 C1596 1.385 . S
C1593 H1568 0.951 . S
C1593 C1591 1.388 . S
C1593 C1594 1.366 . S
C1594 C1593 1.366 . S
C1594 C1595 1.414 . S
C1594 C1597 1.499 . S
C1595 H1569 0.950 . S
C1595 C1594 1.414 . S
C1595 C1596 1.374 . S
C1596 H1570 0.950 . S
C1596 C1592 1.385 . S
C1596 C1595 1.374 . S
C1597 C1594 1.499 . S
C1597 C1598 1.373 . S
C1597 C1599 1.389 . S
C1598 H1571 0.950 . S
C1598 C1584 1.377 1_655 S
C1598 C1597 1.373 . S
C1599 C1583 1.377 1_655 S
C1599 C1597 1.389 . S
C1599 C1600 1.524 . S
C1600 C1599 1.524 . S
C1600 C1601 1.397 . S
C1600 C1605 1.363 . S
C1601 H1572 0.950 . S
C1601 C1600 1.397 . S
C1601 C1602 1.334 . S
C1602 H1573 0.950 . S
C1602 C1601 1.334 . S
C1602 C1603 1.287 . S
C1603 C1602 1.287 . S
C1603 C1604 1.524 . S
C1603 H1606 0.999 . S
C1604 H1574 0.950 . S
C1604 C1603 1.524 . S
C1604 C1605 1.415 . S
C1605 H1575 0.950 . S
C1605 C1600 1.363 . S
C1605 C1604 1.415 . S
H1606 C1603 0.999 . S
H1607 C1588 0.913 . S
H1608 C1626 0.951 . S
H1609 C1628 0.951 . S
H1610 C1630 0.950 . S
H1611 C1631 0.950 . S
H1612 C1633 0.950 . S
H1613 C1636 0.950 . S
H1614 C1637 0.950 . S
H1615 C1639 0.950 . S
H1616 C1640 0.950 . S
H1617 C1641 0.951 . S
H1618 C1643 0.951 . S
H1619 C1645 0.950 . S
H1620 C1646 0.950 . S
H1621 C1648 0.950 . S
H1622 C1651 0.950 . S
H1623 C1652 0.950 . S
H1624 C1654 0.950 . S
H1625 C1655 0.950 . S
C1626 H1608 0.951 . S
C1626 C1627 1.366 . S
C1626 C1628 1.388 . S
C1627 C1626 1.366 . S
C1627 C1631 1.385 . S
C1628 H1609 0.951 . S
C1628 C1626 1.388 . S
C1628 C1629 1.366 . S
C1629 C1628 1.366 . S
C1629 C1630 1.414 . S
C1629 C1632 1.499 . S
C1630 H1610 0.950 . S
C1630 C1629 1.414 . S
C1630 C1631 1.374 . S
C1631 H1611 0.950 . S
C1631 C1627 1.385 . S
C1631 C1630 1.374 . S
C1632 C1629 1.499 . S
C1632 C1633 1.373 . S
C1632 C1634 1.389 . S
C1633 H1612 0.950 . S
C1633 C1632 1.373 . S
C1633 C1649 1.377 . S
C1634 C1632 1.389 . S
C1634 C1635 1.524 . S
C1634 C1648 1.377 . S
C1635 C1634 1.524 . S
C1635 C1636 1.397 . S
C1635 C1640 1.363 . S
C1636 H1613 0.950 . S
C1636 C1635 1.397 . S
C1636 C1637 1.334 . S
C1637 H1614 0.950 . S
C1637 C1636 1.334 . S
C1637 C1638 1.287 . S
C1638 C1637 1.287 . S
C1638 C1639 1.524 . S
C1638 H1657 0.913 . S
C1639 H1615 0.950 . S
C1639 C1638 1.524 . S
C1639 C1640 1.415 . S
C1640 H1616 0.950 . S
C1640 C1635 1.363 . S
C1640 C1639 1.415 . S
C1641 H1617 0.951 . S
C1641 C1642 1.366 . S
C1641 C1643 1.388 . S
C1642 C1641 1.366 . S
C1642 C1646 1.385 . S
C1643 H1618 0.951 . S
C1643 C1641 1.388 . S
C1643 C1644 1.366 . S
C1644 C1643 1.366 . S
C1644 C1645 1.414 . S
C1644 C1647 1.499 . S
C1645 H1619 0.950 . S
C1645 C1644 1.414 . S
C1645 C1646 1.374 . S
C1646 H1620 0.950 . S
C1646 C1642 1.385 . S
C1646 C1645 1.374 . S
C1647 C1644 1.499 . S
C1647 C1648 1.373 . S
C1647 C1649 1.389 . S
C1648 H1621 0.950 . S
C1648 C1634 1.377 . S
C1648 C1647 1.373 . S
C1649 C1633 1.377 . S
C1649 C1647 1.389 . S
C1649 C1650 1.524 . S
C1650 C1649 1.524 . S
C1650 C1651 1.397 . S
C1650 C1655 1.363 . S
C1651 H1622 0.950 . S
C1651 C1650 1.397 . S
C1651 C1652 1.334 . S
C1652 H1623 0.950 . S
C1652 C1651 1.334 . S
C1652 C1653 1.287 . S
C1653 C1652 1.287 . S
C1653 C1654 1.524 . S
C1653 H1656 0.999 . S
C1654 H1624 0.950 . S
C1654 C1653 1.524 . S
C1654 C1655 1.415 . S
C1655 H1625 0.950 . S
C1655 C1650 1.363 . S
C1655 C1654 1.415 . S
H1656 C1653 0.999 . S
H1657 C1638 0.913 . S
H1658 C1676 0.951 . S
H1659 C1678 0.951 . S
H1660 C1680 0.950 . S
H1661 C1681 0.950 . S
H1662 C1683 0.950 . S
H1663 C1686 0.950 . S
H1664 C1687 0.950 . S
H1665 C1689 0.950 . S
H1666 C1690 0.950 . S
H1667 C1691 0.951 . S
H1668 C1693 0.951 . S
H1669 C1695 0.950 . S
H1670 C1696 0.950 . S
H1671 C1698 0.950 . S
H1672 C1701 0.950 . S
H1673 C1702 0.950 . S
H1674 C1704 0.950 . S
H1675 C1705 0.950 . S
C1676 H1658 0.951 . S
C1676 C1677 1.366 . S
C1676 C1678 1.388 . S
C1677 C1676 1.366 . S
C1677 C1681 1.385 . S
C1678 H1659 0.951 . S
C1678 C1676 1.388 . S
C1678 C1679 1.366 . S
C1679 C1678 1.366 . S
C1679 C1680 1.414 . S
C1679 C1682 1.499 . S
C1680 H1660 0.950 . S
C1680 C1679 1.414 . S
C1680 C1681 1.374 . S
C1681 H1661 0.950 . S
C1681 C1677 1.385 . S
C1681 C1680 1.374 . S
C1682 C1679 1.499 . S
C1682 C1683 1.373 . S
C1682 C1684 1.389 . S
C1683 H1662 0.950 . S
C1683 C1682 1.373 . S
C1683 C1699 1.377 . S
C1684 C1682 1.389 . S
C1684 C1685 1.524 . S
C1684 C1698 1.377 . S
C1685 C1684 1.524 . S
C1685 C1686 1.397 . S
C1685 C1690 1.363 . S
C1686 H1663 0.950 . S
C1686 C1685 1.397 . S
C1686 C1687 1.334 . S
C1687 H1664 0.950 . S
C1687 C1686 1.334 . S
C1687 C1688 1.287 . S
C1688 C1687 1.287 . S
C1688 C1689 1.524 . S
C1688 H1707 0.913 . S
C1689 H1665 0.950 . S
C1689 C1688 1.524 . S
C1689 C1690 1.415 . S
C1690 H1666 0.950 . S
C1690 C1685 1.363 . S
C1690 C1689 1.415 . S
C1691 H1667 0.951 . S
C1691 C1692 1.366 . S
C1691 C1693 1.388 . S
C1692 C1691 1.366 . S
C1692 C1696 1.385 . S
C1693 H1668 0.951 . S
C1693 C1691 1.388 . S
C1693 C1694 1.366 . S
C1694 C1693 1.366 . S
C1694 C1695 1.414 . S
C1694 C1697 1.499 . S
C1695 H1669 0.950 . S
C1695 C1694 1.414 . S
C1695 C1696 1.374 . S
C1696 H1670 0.950 . S
C1696 C1692 1.385 . S
C1696 C1695 1.374 . S
C1697 C1694 1.499 . S
C1697 C1698 1.373 . S
C1697 C1699 1.389 . S
C1698 H1671 0.950 . S
C1698 C1684 1.377 . S
C1698 C1697 1.373 . S
C1699 C1683 1.377 . S
C1699 C1697 1.389 . S
C1699 C1700 1.524 . S
C1700 C1699 1.524 . S
C1700 C1701 1.397 . S
C1700 C1705 1.363 . S
C1701 H1672 0.950 . S
C1701 C1700 1.397 . S
C1701 C1702 1.334 . S
C1702 H1673 0.950 . S
C1702 C1701 1.334 . S
C1702 C1703 1.287 . S
C1703 C1702 1.287 . S
C1703 C1704 1.524 . S
C1703 H1706 0.999 . S
C1704 H1674 0.950 . S
C1704 C1703 1.524 . S
C1704 C1705 1.415 . S
C1705 H1675 0.950 . S
C1705 C1700 1.363 . S
C1705 C1704 1.415 . S
H1706 C1703 0.999 . S
H1707 C1688 0.913 . S
H1708 C1726 0.951 . S
H1709 C1728 0.951 . S
H1710 C1730 0.950 . S
H1711 C1731 0.950 . S
H1712 C1733 0.950 . S
H1713 C1736 0.950 . S
H1714 C1737 0.950 . S
H1715 C1739 0.950 . S
H1716 C1740 0.950 . S
H1717 C1741 0.951 . S
H1718 C1743 0.951 . S
H1719 C1745 0.950 . S
H1720 C1746 0.950 . S
H1721 C1748 0.950 . S
H1722 C1751 0.950 . S
H1723 C1752 0.950 . S
H1724 C1754 0.950 . S
H1725 C1755 0.950 . S
C1726 H1708 0.951 . S
C1726 C1727 1.366 . S
C1726 C1728 1.388 . S
C1727 C1726 1.366 . S
C1727 C1731 1.385 . S
C1728 H1709 0.951 . S
C1728 C1726 1.388 . S
C1728 C1729 1.366 . S
C1729 C1728 1.366 . S
C1729 C1730 1.414 . S
C1729 C1732 1.499 . S
C1730 H1710 0.950 . S
C1730 C1729 1.414 . S
C1730 C1731 1.374 . S
C1731 H1711 0.950 . S
C1731 C1727 1.385 . S
C1731 C1730 1.374 . S
C1732 C1729 1.499 . S
C1732 C1733 1.373 . S
C1732 C1734 1.389 . S
C1733 H1712 0.950 . S
C1733 C1732 1.373 . S
C1733 C1749 1.377 . S
C1734 C1732 1.389 . S
C1734 C1735 1.524 . S
C1734 C1748 1.377 . S
C1735 C1734 1.524 . S
C1735 C1736 1.397 . S
C1735 C1740 1.363 . S
C1736 H1713 0.950 . S
C1736 C1735 1.397 . S
C1736 C1737 1.334 . S
C1737 H1714 0.950 . S
C1737 C1736 1.334 . S
C1737 C1738 1.287 . S
C1738 C1737 1.287 . S
C1738 C1739 1.524 . S
C1738 H1757 0.913 . S
C1739 H1715 0.950 . S
C1739 C1738 1.524 . S
C1739 C1740 1.415 . S
C1740 H1716 0.950 . S
C1740 C1735 1.363 . S
C1740 C1739 1.415 . S
C1741 H1717 0.951 . S
C1741 C1742 1.366 . S
C1741 C1743 1.388 . S
C1742 C1741 1.366 . S
C1742 C1746 1.385 . S
C1743 H1718 0.951 . S
C1743 C1741 1.388 . S
C1743 C1744 1.366 . S
C1744 C1743 1.366 . S
C1744 C1745 1.414 . S
C1744 C1747 1.499 . S
C1745 H1719 0.950 . S
C1745 C1744 1.414 . S
C1745 C1746 1.374 . S
C1746 H1720 0.950 . S
C1746 C1742 1.385 . S
C1746 C1745 1.374 . S
C1747 C1744 1.499 . S
C1747 C1748 1.373 . S
C1747 C1749 1.389 . S
C1748 H1721 0.950 . S
C1748 C1734 1.377 . S
C1748 C1747 1.373 . S
C1749 C1733 1.377 . S
C1749 C1747 1.389 . S
C1749 C1750 1.524 . S
C1750 C1749 1.524 . S
C1750 C1751 1.397 . S
C1750 C1755 1.363 . S
C1751 H1722 0.950 . S
C1751 C1750 1.397 . S
C1751 C1752 1.334 . S
C1752 H1723 0.950 . S
C1752 C1751 1.334 . S
C1752 C1753 1.287 . S
C1753 C1752 1.287 . S
C1753 C1754 1.524 . S
C1753 H1756 0.999 . S
C1754 H1724 0.950 . S
C1754 C1753 1.524 . S
C1754 C1755 1.415 . S
C1755 H1725 0.950 . S
C1755 C1750 1.363 . S
C1755 C1754 1.415 . S
H1756 C1753 0.999 . S
H1757 C1738 0.913 . S
H1758 C1776 0.951 . S
H1759 C1778 0.951 . S
H1760 C1780 0.950 . S
H1761 C1781 0.950 . S
H1762 C1783 0.950 . S
H1763 C1786 0.950 . S
H1764 C1787 0.950 . S
H1765 C1789 0.950 . S
H1766 C1790 0.950 . S
H1767 C1791 0.951 . S
H1768 C1793 0.951 . S
H1769 C1795 0.950 . S
H1770 C1796 0.950 . S
H1771 C1798 0.950 . S
H1772 C1801 0.950 . S
H1773 C1802 0.950 . S
H1774 C1804 0.950 . S
H1775 C1805 0.950 . S
C1776 H1758 0.951 . S
C1776 C1777 1.366 . S
C1776 C1778 1.388 . S
C1777 C1776 1.366 . S
C1777 C1781 1.385 . S
C1778 H1759 0.951 . S
C1778 C1776 1.388 . S
C1778 C1779 1.366 . S
C1779 C1778 1.366 . S
C1779 C1780 1.414 . S
C1779 C1782 1.499 . S
C1780 H1760 0.950 . S
C1780 C1779 1.414 . S
C1780 C1781 1.374 . S
C1781 H1761 0.950 . S
C1781 C1777 1.385 . S
C1781 C1780 1.374 . S
C1782 C1779 1.499 . S
C1782 C1783 1.373 . S
C1782 C1784 1.389 . S
C1783 H1762 0.950 . S
C1783 C1782 1.373 . S
C1783 C1799 1.377 . S
C1784 C1782 1.389 . S
C1784 C1785 1.524 . S
C1784 C1798 1.377 . S
C1785 C1784 1.524 . S
C1785 C1786 1.397 . S
C1785 C1790 1.363 . S
C1786 H1763 0.950 . S
C1786 C1785 1.397 . S
C1786 C1787 1.334 . S
C1787 H1764 0.950 . S
C1787 C1786 1.334 . S
C1787 C1788 1.287 . S
C1788 C1787 1.287 . S
C1788 C1789 1.524 . S
C1788 H1807 0.913 . S
C1789 H1765 0.950 . S
C1789 C1788 1.524 . S
C1789 C1790 1.415 . S
C1790 H1766 0.950 . S
C1790 C1785 1.363 . S
C1790 C1789 1.415 . S
C1791 H1767 0.951 . S
C1791 C1792 1.366 . S
C1791 C1793 1.388 . S
C1792 C1791 1.366 . S
C1792 C1796 1.385 . S
C1793 H1768 0.951 . S
C1793 C1791 1.388 . S
C1793 C1794 1.366 . S
C1794 C1793 1.366 . S
C1794 C1795 1.414 . S
C1794 C1797 1.499 . S
C1795 H1769 0.950 . S
C1795 C1794 1.414 . S
C1795 C1796 1.374 . S
C1796 H1770 0.950 . S
C1796 C1792 1.385 . S
C1796 C1795 1.374 . S
C1797 C1794 1.499 . S
C1797 C1798 1.373 . S
C1797 C1799 1.389 . S
C1798 H1771 0.950 . S
C1798 C1784 1.377 . S
C1798 C1797 1.373 . S
C1799 C1783 1.377 . S
C1799 C1797 1.389 . S
C1799 C1800 1.524 . S
C1800 C1799 1.524 . S
C1800 C1801 1.397 . S
C1800 C1805 1.363 . S
C1801 H1772 0.950 . S
C1801 C1800 1.397 . S
C1801 C1802 1.334 . S
C1802 H1773 0.950 . S
C1802 C1801 1.334 . S
C1802 C1803 1.287 . S
C1803 C1802 1.287 . S
C1803 C1804 1.524 . S
C1803 H1806 0.999 . S
C1804 H1774 0.950 . S
C1804 C1803 1.524 . S
C1804 C1805 1.415 . S
C1805 H1775 0.950 . S
C1805 C1800 1.363 . S
C1805 C1804 1.415 . S
H1806 C1803 0.999 . S
H1807 C1788 0.913 . S
H1808 C1826 0.951 . S
H1809 C1828 0.951 . S
H1810 C1830 0.950 . S
H1811 C1831 0.950 . S
H1812 C1833 0.950 . S
H1813 C1836 0.950 . S
H1814 C1837 0.950 . S
H1815 C1839 0.950 . S
H1816 C1840 0.950 . S
H1817 C1841 0.951 . S
H1818 C1843 0.951 . S
H1819 C1845 0.950 . S
H1820 C1846 0.950 . S
H1821 C1848 0.950 . S
H1822 C1851 0.950 . S
H1823 C1852 0.950 . S
H1824 C1854 0.950 . S
H1825 C1855 0.950 . S
C1826 H1808 0.951 . S
C1826 C1827 1.366 . S
C1826 C1828 1.388 . S
C1827 C1826 1.366 . S
C1827 C1831 1.385 . S
C1828 H1809 0.951 . S
C1828 C1826 1.388 . S
C1828 C1829 1.366 . S
C1829 C1828 1.366 . S
C1829 C1830 1.414 . S
C1829 C1832 1.499 . S
C1830 H1810 0.950 . S
C1830 C1829 1.414 . S
C1830 C1831 1.374 . S
C1831 H1811 0.950 . S
C1831 C1827 1.385 . S
C1831 C1830 1.374 . S
C1832 C1829 1.499 . S
C1832 C1833 1.373 . S
C1832 C1834 1.389 . S
C1833 H1812 0.950 . S
C1833 C1832 1.373 . S
C1833 C1849 1.377 . S
C1834 C1832 1.389 . S
C1834 C1835 1.524 . S
C1834 C1848 1.377 . S
C1835 C1834 1.524 . S
C1835 C1836 1.397 . S
C1835 C1840 1.363 . S
C1836 H1813 0.950 . S
C1836 C1835 1.397 . S
C1836 C1837 1.334 . S
C1837 H1814 0.950 . S
C1837 C1836 1.334 . S
C1837 C1838 1.287 . S
C1838 C1837 1.287 . S
C1838 C1839 1.524 . S
C1838 H1857 0.913 . S
C1839 H1815 0.950 . S
C1839 C1838 1.524 . S
C1839 C1840 1.415 . S
C1840 H1816 0.950 . S
C1840 C1835 1.363 . S
C1840 C1839 1.415 . S
C1841 H1817 0.951 . S
C1841 C1842 1.366 . S
C1841 C1843 1.388 . S
C1842 C1841 1.366 . S
C1842 C1846 1.385 . S
C1843 H1818 0.951 . S
C1843 C1841 1.388 . S
C1843 C1844 1.366 . S
C1844 C1843 1.366 . S
C1844 C1845 1.414 . S
C1844 C1847 1.499 . S
C1845 H1819 0.950 . S
C1845 C1844 1.414 . S
C1845 C1846 1.374 . S
C1846 H1820 0.950 . S
C1846 C1842 1.385 . S
C1846 C1845 1.374 . S
C1847 C1844 1.499 . S
C1847 C1848 1.373 . S
C1847 C1849 1.389 . S
C1848 H1821 0.950 . S
C1848 C1834 1.377 . S
C1848 C1847 1.373 . S
C1849 C1833 1.377 . S
C1849 C1847 1.389 . S
C1849 C1850 1.524 . S
C1850 C1849 1.524 . S
C1850 C1851 1.397 . S
C1850 C1855 1.363 . S
C1851 H1822 0.950 . S
C1851 C1850 1.397 . S
C1851 C1852 1.334 . S
C1852 H1823 0.950 . S
C1852 C1851 1.334 . S
C1852 C1853 1.287 . S
C1853 C1852 1.287 . S
C1853 C1854 1.524 . S
C1853 H1856 0.999 . S
C1854 H1824 0.950 . S
C1854 C1853 1.524 . S
C1854 C1855 1.415 . S
C1855 H1825 0.950 . S
C1855 C1850 1.363 . S
C1855 C1854 1.415 . S
H1856 C1853 0.999 . S
H1857 C1838 0.913 . S
H1858 C1876 0.951 . S
H1859 C1878 0.951 . S
H1860 C1880 0.950 . S
H1861 C1881 0.950 . S
H1862 C1883 0.950 . S
H1863 C1886 0.950 . S
H1864 C1887 0.950 . S
H1865 C1889 0.950 . S
H1866 C1890 0.950 . S
H1867 C1891 0.951 . S
H1868 C1893 0.951 . S
H1869 C1895 0.950 . S
H1870 C1896 0.950 . S
H1871 C1898 0.950 . S
H1872 C1901 0.950 . S
H1873 C1902 0.950 . S
H1874 C1904 0.950 . S
H1875 C1905 0.950 . S
C1876 H1858 0.951 . S
C1876 C1877 1.366 . S
C1876 C1878 1.388 . S
C1877 C1876 1.366 . S
C1877 C1881 1.385 . S
C1878 H1859 0.951 . S
C1878 C1876 1.388 . S
C1878 C1879 1.366 . S
C1879 C1878 1.366 . S
C1879 C1880 1.414 . S
C1879 C1882 1.499 . S
C1880 H1860 0.950 . S
C1880 C1879 1.414 . S
C1880 C1881 1.374 . S
C1881 H1861 0.950 . S
C1881 C1877 1.385 . S
C1881 C1880 1.374 . S
C1882 C1879 1.499 . S
C1882 C1883 1.373 . S
C1882 C1884 1.389 . S
C1883 H1862 0.950 . S
C1883 C1882 1.373 . S
C1883 C1899 1.377 . S
C1884 C1882 1.389 . S
C1884 C1885 1.524 . S
C1884 C1898 1.377 . S
C1885 C1884 1.524 . S
C1885 C1886 1.397 . S
C1885 C1890 1.363 . S
C1886 H1863 0.950 . S
C1886 C1885 1.397 . S
C1886 C1887 1.334 . S
C1887 H1864 0.950 . S
C1887 C1886 1.334 . S
C1887 C1888 1.287 . S
C1888 C1887 1.287 . S
C1888 C1889 1.524 . S
C1888 H1907 0.913 . S
C1889 H1865 0.950 . S
C1889 C1888 1.524 . S
C1889 C1890 1.415 . S
C1890 H1866 0.950 . S
C1890 C1885 1.363 . S
C1890 C1889 1.415 . S
C1891 H1867 0.951 . S
C1891 C1892 1.366 . S
C1891 C1893 1.388 . S
C1892 C1891 1.366 . S
C1892 C1896 1.385 . S
C1893 H1868 0.951 . S
C1893 C1891 1.388 . S
C1893 C1894 1.366 . S
C1894 C1893 1.366 . S
C1894 C1895 1.414 . S
C1894 C1897 1.499 . S
C1895 H1869 0.950 . S
C1895 C1894 1.414 . S
C1895 C1896 1.374 . S
C1896 H1870 0.950 . S
C1896 C1892 1.385 . S
C1896 C1895 1.374 . S
C1897 C1894 1.499 . S
C1897 C1898 1.373 . S
C1897 C1899 1.389 . S
C1898 H1871 0.950 . S
C1898 C1884 1.377 . S
C1898 C1897 1.373 . S
C1899 C1883 1.377 . S
C1899 C1897 1.389 . S
C1899 C1900 1.524 . S
C1900 C1899 1.524 . S
C1900 C1901 1.397 . S
C1900 C1905 1.363 . S
C1901 H1872 0.950 . S
C1901 C1900 1.397 . S
C1901 C1902 1.334 . S
C1902 H1873 0.950 . S
C1902 C1901 1.334 . S
C1902 C1903 1.287 . S
C1903 C1902 1.287 . S
C1903 C1904 1.524 . S
C1903 H1906 0.999 . S
C1904 H1874 0.950 . S
C1904 C1903 1.524 . S
C1904 C1905 1.415 . S
C1905 H1875 0.950 . S
C1905 C1900 1.363 . S
C1905 C1904 1.415 . S
H1906 C1903 0.999 . S
H1907 C1888 0.913 . S
H1908 C1926 0.951 . S
H1909 C1928 0.951 . S
H1910 C1930 0.950 . S
H1911 C1931 0.950 . S
H1912 C1933 0.950 . S
H1913 C1936 0.950 . S
H1914 C1937 0.950 . S
H1915 C1939 0.950 . S
H1916 C1940 0.950 . S
H1917 C1941 0.951 . S
H1918 C1943 0.951 . S
H1919 C1945 0.950 . S
H1920 C1946 0.950 . S
H1921 C1948 0.950 . S
H1922 C1951 0.950 . S
H1923 C1952 0.950 . S
H1924 C1954 0.950 . S
H1925 C1955 0.950 . S
C1926 H1908 0.951 . S
C1926 C1927 1.366 . S
C1926 C1928 1.388 . S
C1927 C1926 1.366 . S
C1927 C1931 1.385 . S
C1928 H1909 0.951 . S
C1928 C1926 1.388 . S
C1928 C1929 1.366 . S
C1929 C1928 1.366 . S
C1929 C1930 1.414 . S
C1929 C1932 1.499 . S
C1930 H1910 0.950 . S
C1930 C1929 1.414 . S
C1930 C1931 1.374 . S
C1931 H1911 0.950 . S
C1931 C1927 1.385 . S
C1931 C1930 1.374 . S
C1932 C1929 1.499 . S
C1932 C1933 1.373 . S
C1932 C1934 1.389 . S
C1933 H1912 0.950 . S
C1933 C1932 1.373 . S
C1933 C1949 1.377 . S
C1934 C1932 1.389 . S
C1934 C1935 1.524 . S
C1934 C1948 1.377 . S
C1935 C1934 1.524 . S
C1935 C1936 1.397 . S
C1935 C1940 1.363 . S
C1936 H1913 0.950 . S
C1936 C1935 1.397 . S
C1936 C1937 1.334 . S
C1937 H1914 0.950 . S
C1937 C1936 1.334 . S
C1937 C1938 1.287 . S
C1938 C1937 1.287 . S
C1938 C1939 1.524 . S
C1938 H1957 0.913 . S
C1939 H1915 0.950 . S
C1939 C1938 1.524 . S
C1939 C1940 1.415 . S
C1940 H1916 0.950 . S
C1940 C1935 1.363 . S
C1940 C1939 1.415 . S
C1941 H1917 0.951 . S
C1941 C1942 1.366 . S
C1941 C1943 1.388 . S
C1942 C1941 1.366 . S
C1942 C1946 1.385 . S
C1943 H1918 0.951 . S
C1943 C1941 1.388 . S
C1943 C1944 1.366 . S
C1944 C1943 1.366 . S
C1944 C1945 1.414 . S
C1944 C1947 1.499 . S
C1945 H1919 0.950 . S
C1945 C1944 1.414 . S
C1945 C1946 1.374 . S
C1946 H1920 0.950 . S
C1946 C1942 1.385 . S
C1946 C1945 1.374 . S
C1947 C1944 1.499 . S
C1947 C1948 1.373 . S
C1947 C1949 1.389 . S
C1948 H1921 0.950 . S
C1948 C1934 1.377 . S
C1948 C1947 1.373 . S
C1949 C1933 1.377 . S
C1949 C1947 1.389 . S
C1949 C1950 1.524 . S
C1950 C1949 1.524 . S
C1950 C1951 1.397 . S
C1950 C1955 1.363 . S
C1951 H1922 0.950 . S
C1951 C1950 1.397 . S
C1951 C1952 1.334 . S
C1952 H1923 0.950 . S
C1952 C1951 1.334 . S
C1952 C1953 1.287 . S
C1953 C1952 1.287 . S
C1953 C1954 1.524 . S
C1953 H1956 0.999 . S
C1954 H1924 0.950 . S
C1954 C1953 1.524 . S
C1954 C1955 1.415 . S
C1955 H1925 0.950 . S
C1955 C1950 1.363 . S
C1955 C1954 1.415 . S
H1956 C1953 0.999 . S
H1957 C1938 0.913 . S
H1958 C1976 0.951 . S
H1959 C1978 0.951 . S
H1960 C1980 0.950 . S
H1961 C1981 0.950 . S
H1962 C1983 0.950 . S
H1963 C1986 0.950 . S
H1964 C1987 0.950 . S
H1965 C1989 0.950 . S
H1966 C1990 0.950 . S
H1967 C1991 0.951 . S
H1968 C1993 0.951 . S
H1969 C1995 0.950 . S
H1970 C1996 0.950 . S
H1971 C1998 0.950 . S
H1972 C2001 0.950 . S
H1973 C2002 0.950 . S
H1974 C2004 0.950 . S
H1975 C2005 0.950 . S
C1976 H1958 0.951 . S
C1976 C1977 1.366 . S
C1976 C1978 1.388 . S
C1977 C1976 1.366 . S
C1977 C1981 1.385 . S
C1978 H1959 0.951 . S
C1978 C1976 1.388 . S
C1978 C1979 1.366 . S
C1979 C1978 1.366 . S
C1979 C1980 1.414 . S
C1979 C1982 1.499 . S
C1980 H1960 0.950 . S
C1980 C1979 1.414 . S
C1980 C1981 1.374 . S
C1981 H1961 0.950 . S
C1981 C1977 1.385 . S
C1981 C1980 1.374 . S
C1982 C1979 1.499 . S
C1982 C1983 1.373 . S
C1982 C1984 1.389 . S
C1983 H1962 0.950 . S
C1983 C1982 1.373 . S
C1983 C1999 1.377 . S
C1984 C1982 1.389 . S
C1984 C1985 1.524 . S
C1984 C1998 1.377 . S
C1985 C1984 1.524 . S
C1985 C1986 1.397 . S
C1985 C1990 1.363 . S
C1986 H1963 0.950 . S
C1986 C1985 1.397 . S
C1986 C1987 1.334 . S
C1987 H1964 0.950 . S
C1987 C1986 1.334 . S
C1987 C1988 1.287 . S
C1988 C1987 1.287 . S
C1988 C1989 1.524 . S
C1988 H2007 0.913 . S
C1989 H1965 0.950 . S
C1989 C1988 1.524 . S
C1989 C1990 1.415 . S
C1990 H1966 0.950 . S
C1990 C1985 1.363 . S
C1990 C1989 1.415 . S
C1991 H1967 0.951 . S
C1991 C1992 1.366 . S
C1991 C1993 1.388 . S
C1992 C1991 1.366 . S
C1992 C1996 1.385 . S
C1993 H1968 0.951 . S
C1993 C1991 1.388 . S
C1993 C1994 1.366 . S
C1994 C1993 1.366 . S
C1994 C1995 1.414 . S
C1994 C1997 1.499 . S
C1995 H1969 0.950 . S
C1995 C1994 1.414 . S
C1995 C1996 1.374 . S
C1996 H1970 0.950 . S
C1996 C1992 1.385 . S
C1996 C1995 1.374 . S
C1997 C1994 1.499 . S
C1997 C1998 1.373 . S
C1997 C1999 1.389 . S
C1998 H1971 0.950 . S
C1998 C1984 1.377 . S
C1998 C1997 1.373 . S
C1999 C1983 1.377 . S
C1999 C1997 1.389 . S
C1999 C2000 1.524 . S
C2000 C1999 1.524 . S
C2000 C2001 1.397 . S
C2000 C2005 1.363 . S
C2001 H1972 0.950 . S
C2001 C2000 1.397 . S
C2001 C2002 1.334 . S
C2002 H1973 0.950 . S
C2002 C2001 1.334 . S
C2002 C2003 1.287 . S
C2003 C2002 1.287 . S
C2003 C2004 1.524 . S
C2003 H2006 0.999 . S
C2004 H1974 0.950 . S
C2004 C2003 1.524 . S
C2004 C2005 1.415 . S
C2005 H1975 0.950 . S
C2005 C2000 1.363 . S
C2005 C2004 1.415 . S
H2006 C2003 0.999 . S
H2007 C1988 0.913 . S
H2008 C2026 0.951 . S
H2009 C2028 0.951 . S
H2010 C2030 0.950 . S
H2011 C2031 0.950 . S
H2012 C2033 0.950 . S
H2013 C2036 0.950 . S
H2014 C2037 0.950 . S
H2015 C2039 0.950 . S
H2016 C2040 0.950 . S
H2017 C2041 0.951 . S
H2018 C2043 0.951 . S
H2019 C2045 0.950 . S
H2020 C2046 0.950 . S
H2021 C2048 0.950 . S
H2022 C2051 0.950 . S
H2023 C2052 0.950 . S
H2024 C2054 0.950 . S
H2025 C2055 0.950 . S
C2026 H2008 0.951 . S
C2026 C2027 1.366 . S
C2026 C2028 1.388 . S
C2027 C2026 1.366 . S
C2027 C2031 1.385 . S
C2028 H2009 0.951 . S
C2028 C2026 1.388 . S
C2028 C2029 1.366 . S
C2029 C2028 1.366 . S
C2029 C2030 1.414 . S
C2029 C2032 1.499 . S
C2030 H2010 0.950 . S
C2030 C2029 1.414 . S
C2030 C2031 1.374 . S
C2031 H2011 0.950 . S
C2031 C2027 1.385 . S
C2031 C2030 1.374 . S
C2032 C2029 1.499 . S
C2032 C2033 1.373 . S
C2032 C2034 1.389 . S
C2033 H2012 0.950 . S
C2033 C2032 1.373 . S
C2033 C2049 1.377 . S
C2034 C2032 1.389 . S
C2034 C2035 1.524 . S
C2034 C2048 1.377 . S
C2035 C2034 1.524 . S
C2035 C2036 1.397 . S
C2035 C2040 1.363 . S
C2036 H2013 0.950 . S
C2036 C2035 1.397 . S
C2036 C2037 1.334 . S
C2037 H2014 0.950 . S
C2037 C2036 1.334 . S
C2037 C2038 1.287 . S
C2038 C2037 1.287 . S
C2038 C2039 1.524 . S
C2038 H2057 0.913 . S
C2039 H2015 0.950 . S
C2039 C2038 1.524 . S
C2039 C2040 1.415 . S
C2040 H2016 0.950 . S
C2040 C2035 1.363 . S
C2040 C2039 1.415 . S
C2041 H2017 0.951 . S
C2041 C2042 1.366 . S
C2041 C2043 1.388 . S
C2042 C2041 1.366 . S
C2042 C2046 1.385 . S
C2043 H2018 0.951 . S
C2043 C2041 1.388 . S
C2043 C2044 1.366 . S
C2044 C2043 1.366 . S
C2044 C2045 1.414 . S
C2044 C2047 1.499 . S
C2045 H2019 0.950 . S
C2045 C2044 1.414 . S
C2045 C2046 1.374 . S
C2046 H2020 0.950 . S
C2046 C2042 1.385 . S
C2046 C2045 1.374 . S
C2047 C2044 1.499 . S
C2047 C2048 1.373 . S
C2047 C2049 1.389 . S
C2048 H2021 0.950 . S
C2048 C2034 1.377 . S
C2048 C2047 1.373 . S
C2049 C2033 1.377 . S
C2049 C2047 1.389 . S
C2049 C2050 1.524 . S
C2050 C2049 1.524 . S
C2050 C2051 1.397 . S
C2050 C2055 1.363 . S
C2051 H2022 0.950 . S
C2051 C2050 1.397 . S
C2051 C2052 1.334 . S
C2052 H2023 0.950 . S
C2052 C2051 1.334 . S
C2052 C2053 1.287 . S
C2053 C2052 1.287 . S
C2053 C2054 1.524 . S
C2053 H2056 0.999 . S
C2054 H2024 0.950 . S
C2054 C2053 1.524 . S
C2054 C2055 1.415 . S
C2055 H2025 0.950 . S
C2055 C2050 1.363 . S
C2055 C2054 1.415 . S
H2056 C2053 0.999 . S
H2057 C2038 0.913 . S
H2058 C2076 0.951 . S
H2059 C2078 0.951 . S
H2060 C2080 0.950 . S
H2061 C2081 0.950 . S
H2062 C2083 0.950 . S
H2063 C2086 0.950 . S
H2064 C2087 0.950 . S
H2065 C2089 0.950 . S
H2066 C2090 0.950 . S
H2067 C2091 0.951 . S
H2068 C2093 0.951 . S
H2069 C2095 0.950 . S
H2070 C2096 0.950 . S
H2071 C2098 0.950 . S
H2072 C2101 0.950 . S
H2073 C2102 0.950 . S
H2074 C2104 0.950 . S
H2075 C2105 0.950 . S
C2076 H2058 0.951 . S
C2076 C2077 1.366 . S
C2076 C2078 1.388 . S
C2077 C2076 1.366 . S
C2077 C2081 1.385 . S
C2078 H2059 0.951 . S
C2078 C2076 1.388 . S
C2078 C2079 1.366 . S
C2079 C2078 1.366 . S
C2079 C2080 1.414 . S
C2079 C2082 1.499 . S
C2080 H2060 0.950 . S
C2080 C2079 1.414 . S
C2080 C2081 1.374 . S
C2081 H2061 0.950 . S
C2081 C2077 1.385 . S
C2081 C2080 1.374 . S
C2082 C2079 1.499 . S
C2082 C2083 1.373 . S
C2082 C2084 1.389 . S
C2083 H2062 0.950 . S
C2083 C2082 1.373 . S
C2083 C2099 1.377 . S
C2084 C2082 1.389 . S
C2084 C2085 1.524 . S
C2084 C2098 1.377 . S
C2085 C2084 1.524 . S
C2085 C2086 1.397 . S
C2085 C2090 1.363 . S
C2086 H2063 0.950 . S
C2086 C2085 1.397 . S
C2086 C2087 1.334 . S
C2087 H2064 0.950 . S
C2087 C2086 1.334 . S
C2087 C2088 1.287 . S
C2088 C2087 1.287 . S
C2088 C2089 1.524 . S
C2088 H2107 0.913 . S
C2089 H2065 0.950 . S
C2089 C2088 1.524 . S
C2089 C2090 1.415 . S
C2090 H2066 0.950 . S
C2090 C2085 1.363 . S
C2090 C2089 1.415 . S
C2091 H2067 0.951 . S
C2091 C2092 1.366 . S
C2091 C2093 1.388 . S
C2092 C2091 1.366 . S
C2092 C2096 1.385 . S
C2093 H2068 0.951 . S
C2093 C2091 1.388 . S
C2093 C2094 1.366 . S
C2094 C2093 1.366 . S
C2094 C2095 1.414 . S
C2094 C2097 1.499 . S
C2095 H2069 0.950 . S
C2095 C2094 1.414 . S
C2095 C2096 1.374 . S
C2096 H2070 0.950 . S
C2096 C2092 1.385 . S
C2096 C2095 1.374 . S
C2097 C2094 1.499 . S
C2097 C2098 1.373 . S
C2097 C2099 1.389 . S
C2098 H2071 0.950 . S
C2098 C2084 1.377 . S
C2098 C2097 1.373 . S
C2099 C2083 1.377 . S
C2099 C2097 1.389 . S
C2099 C2100 1.524 . S
C2100 C2099 1.524 . S
C2100 C2101 1.397 . S
C2100 C2105 1.363 . S
C2101 H2072 0.950 . S
C2101 C2100 1.397 . S
C2101 C2102 1.334 . S
C2102 H2073 0.950 . S
C2102 C2101 1.334 . S
C2102 C2103 1.287 . S
C2103 C2102 1.287 . S
C2103 C2104 1.524 . S
C2103 H2106 0.999 . S
C2104 H2074 0.950 . S
C2104 C2103 1.524 . S
C2104 C2105 1.415 . S
C2105 H2075 0.950 . S
C2105 C2100 1.363 . S
C2105 C2104 1.415 . S
H2106 C2103 0.999 . S
H2107 C2088 0.913 . S
H2108 C2126 0.951 . S
H2109 C2128 0.951 . S
H2110 C2130 0.950 . S
H2111 C2131 0.950 . S
H2112 C2133 0.950 . S
H2113 C2136 0.950 . S
H2114 C2137 0.950 . S
H2115 C2139 0.950 . S
H2116 C2140 0.950 . S
H2117 C2141 0.951 . S
H2118 C2143 0.951 . S
H2119 C2145 0.950 . S
H2120 C2146 0.950 . S
H2121 C2148 0.950 . S
H2122 C2151 0.950 . S
H2123 C2152 0.950 . S
H2124 C2154 0.950 . S
H2125 C2155 0.950 . S
C2126 H2108 0.951 . S
C2126 C2127 1.366 . S
C2126 C2128 1.388 . S
C2127 C2126 1.366 . S
C2127 C2131 1.385 . S
C2128 H2109 0.951 . S
C2128 C2126 1.388 . S
C2128 C2129 1.366 . S
C2129 C2128 1.366 . S
C2129 C2130 1.414 . S
C2129 C2132 1.499 . S
C2130 H2110 0.950 . S
C2130 C2129 1.414 . S
C2130 C2131 1.374 . S
C2131 H2111 0.950 . S
C2131 C2127 1.385 . S
C2131 C2130 1.374 . S
C2132 C2129 1.499 . S
C2132 C2133 1.373 . S
C2132 C2134 1.389 . S
C2133 H2112 0.950 . S
C2133 C2132 1.373 . S
C2133 C2149 1.377 . S
C2134 C2132 1.389 . S
C2134 C2135 1.524 . S
C2134 C2148 1.377 . S
C2135 C2134 1.524 . S
C2135 C2136 1.397 . S
C2135 C2140 1.363 . S
C2136 H2113 0.950 . S
C2136 C2135 1.397 . S
C2136 C2137 1.334 . S
C2137 H2114 0.950 . S
C2137 C2136 1.334 . S
C2137 C2138 1.287 . S
C2138 C2137 1.287 . S
C2138 C2139 1.524 . S
C2138 H2157 0.913 . S
C2139 H2115 0.950 . S
C2139 C2138 1.524 . S
C2139 C2140 1.415 . S
C2140 H2116 0.950 . S
C2140 C2135 1.363 . S
C2140 C2139 1.415 . S
C2141 H2117 0.951 . S
C2141 C2142 1.366 . S
C2141 C2143 1.388 . S
C2142 C2141 1.366 . S
C2142 C2146 1.385 . S
C2143 H2118 0.951 . S
C2143 C2141 1.388 . S
C2143 C2144 1.366 . S
C2144 C2143 1.366 . S
C2144 C2145 1.414 . S
C2144 C2147 1.499 . S
C2145 H2119 0.950 . S
C2145 C2144 1.414 . S
C2145 C2146 1.374 . S
C2146 H2120 0.950 . S
C2146 C2142 1.385 . S
C2146 C2145 1.374 . S
C2147 C2144 1.499 . S
C2147 C2148 1.373 . S
C2147 C2149 1.389 . S
C2148 H2121 0.950 . S
C2148 C2134 1.377 . S
C2148 C2147 1.373 . S
C2149 C2133 1.377 . S
C2149 C2147 1.389 . S
C2149 C2150 1.524 . S
C2150 C2149 1.524 . S
C2150 C2151 1.397 . S
C2150 C2155 1.363 . S
C2151 H2122 0.950 . S
C2151 C2150 1.397 . S
C2151 C2152 1.334 . S
C2152 H2123 0.950 . S
C2152 C2151 1.334 . S
C2152 C2153 1.287 . S
C2153 C2152 1.287 . S
C2153 C2154 1.524 . S
C2153 H2156 0.999 . S
C2154 H2124 0.950 . S
C2154 C2153 1.524 . S
C2154 C2155 1.415 . S
C2155 H2125 0.950 . S
C2155 C2150 1.363 . S
C2155 C2154 1.415 . S
H2156 C2153 0.999 . S
H2157 C2138 0.913 . S
H2158 C2176 0.951 . S
H2159 C2178 0.951 . S
H2160 C2180 0.950 . S
H2161 C2181 0.950 . S
H2162 C2183 0.950 . S
H2163 C2186 0.950 . S
H2164 C2187 0.950 . S
H2165 C2189 0.950 . S
H2166 C2190 0.950 . S
H2167 C2191 0.951 . S
H2168 C2193 0.951 . S
H2169 C2195 0.950 . S
H2170 C2196 0.950 . S
H2171 C2198 0.950 . S
H2172 C2201 0.950 . S
H2173 C2202 0.950 . S
H2174 C2204 0.950 . S
H2175 C2205 0.950 . S
C2176 H2158 0.951 . S
C2176 C2177 1.366 . S
C2176 C2178 1.388 . S
C2177 C2176 1.366 . S
C2177 C2181 1.385 . S
C2178 H2159 0.951 . S
C2178 C2176 1.388 . S
C2178 C2179 1.366 . S
C2179 C2178 1.366 . S
C2179 C2180 1.414 . S
C2179 C2182 1.499 . S
C2180 H2160 0.950 . S
C2180 C2179 1.414 . S
C2180 C2181 1.374 . S
C2181 H2161 0.950 . S
C2181 C2177 1.385 . S
C2181 C2180 1.374 . S
C2182 C2179 1.499 . S
C2182 C2183 1.373 . S
C2182 C2184 1.389 . S
C2183 H2162 0.950 . S
C2183 C2182 1.373 . S
C2183 C2199 1.377 . S
C2184 C2182 1.389 . S
C2184 C2185 1.524 . S
C2184 C2198 1.377 . S
C2185 C2184 1.524 . S
C2185 C2186 1.397 . S
C2185 C2190 1.363 . S
C2186 H2163 0.950 . S
C2186 C2185 1.397 . S
C2186 C2187 1.334 . S
C2187 H2164 0.950 . S
C2187 C2186 1.334 . S
C2187 C2188 1.287 . S
C2188 C2187 1.287 . S
C2188 C2189 1.524 . S
C2188 H2207 0.913 . S
C2189 H2165 0.950 . S
C2189 C2188 1.524 . S
C2189 C2190 1.415 . S
C2190 H2166 0.950 . S
C2190 C2185 1.363 . S
C2190 C2189 1.415 . S
C2191 H2167 0.951 . S
C2191 C2192 1.366 . S
C2191 C2193 1.388 . S
C2192 C2191 1.366 . S
C2192 C2196 1.385 . S
C2193 H2168 0.951 . S
C2193 C2191 1.388 . S
C2193 C2194 1.366 . S
C2194 C2193 1.366 . S
C2194 C2195 1.414 . S
C2194 C2197 1.499 . S
C2195 H2169 0.950 . S
C2195 C2194 1.414 . S
C2195 C2196 1.374 . S
C2196 H2170 0.950 . S
C2196 C2192 1.385 . S
C2196 C2195 1.374 . S
C2197 C2194 1.499 . S
C2197 C2198 1.373 . S
C2197 C2199 1.389 . S
C2198 H2171 0.950 . S
C2198 C2184 1.377 . S
C2198 C2197 1.373 . S
C2199 C2183 1.377 . S
C2199 C2197 1.389 . S
C2199 C2200 1.524 . S
C2200 C2199 1.524 . S
C2200 C2201 1.397 . S
C2200 C2205 1.363 . S
C2201 H2172 0.950 . S
C2201 C2200 1.397 . S
C2201 C2202 1.334 . S
C2202 H2173 0.950 . S
C2202 C2201 1.334 . S
C2202 C2203 1.287 . S
C2203 C2202 1.287 . S
C2203 C2204 1.524 . S
C2203 H2206 0.999 . S
C2204 H2174 0.950 . S
C2204 C2203 1.524 . S
C2204 C2205 1.415 . S
C2205 H2175 0.950 . S
C2205 C2200 1.363 . S
C2205 C2204 1.415 . S
H2206 C2203 0.999 . S
H2207 C2188 0.913 . S
H2208 C2226 0.951 . S
H2209 C2228 0.951 . S
H2210 C2230 0.950 . S
H2211 C2231 0.950 . S
H2212 C2233 0.950 . S
H2213 C2236 0.950 . S
H2214 C2237 0.950 . S
H2215 C2239 0.950 . S
H2216 C2240 0.950 . S
H2217 C2241 0.951 . S
H2218 C2243 0.951 . S
H2219 C2245 0.950 . S
H2220 C2246 0.950 . S
H2221 C2248 0.950 . S
H2222 C2251 0.950 . S
H2223 C2252 0.950 . S
H2224 C2254 0.950 . S
H2225 C2255 0.950 . S
C2226 H2208 0.951 . S
C2226 C2227 1.366 . S
C2226 C2228 1.388 . S
C2227 C2226 1.366 . S
C2227 C2231 1.385 . S
C2228 H2209 0.951 . S
C2228 C2226 1.388 . S
C2228 C2229 1.366 . S
C2229 C2228 1.366 . S
C2229 C2230 1.414 . S
C2229 C2232 1.499 . S
C2230 H2210 0.950 . S
C2230 C2229 1.414 . S
C2230 C2231 1.374 . S
C2231 H2211 0.950 . S
C2231 C2227 1.385 . S
C2231 C2230 1.374 . S
C2232 C2229 1.499 . S
C2232 C2233 1.373 1_556 S
C2232 C2234 1.389 . S
C2233 H2212 0.950 . S
C2233 C2232 1.373 1_554 S
C2233 C2249 1.377 . S
C2234 C2232 1.389 . S
C2234 C2235 1.524 . S
C2234 C2248 1.377 . S
C2235 C2234 1.524 . S
C2235 C2236 1.397 . S
C2235 C2240 1.363 . S
C2236 H2213 0.950 . S
C2236 C2235 1.397 . S
C2236 C2237 1.334 . S
C2237 H2214 0.950 . S
C2237 C2236 1.334 . S
C2237 C2238 1.287 . S
C2238 C2237 1.287 . S
C2238 C2239 1.524 . S
C2238 H2257 0.913 . S
C2239 H2215 0.950 . S
C2239 C2238 1.524 . S
C2239 C2240 1.415 . S
C2240 H2216 0.950 . S
C2240 C2235 1.363 . S
C2240 C2239 1.415 . S
C2241 H2217 0.951 . S
C2241 C2242 1.366 . S
C2241 C2243 1.388 . S
C2242 C2241 1.366 . S
C2242 C2246 1.385 . S
C2243 H2218 0.951 . S
C2243 C2241 1.388 . S
C2243 C2244 1.366 . S
C2244 C2243 1.366 . S
C2244 C2245 1.414 . S
C2244 C2247 1.499 . S
C2245 H2219 0.950 . S
C2245 C2244 1.414 . S
C2245 C2246 1.374 . S
C2246 H2220 0.950 . S
C2246 C2242 1.385 . S
C2246 C2245 1.374 . S
C2247 C2244 1.499 . S
C2247 C2248 1.373 1_554 S
C2247 C2249 1.389 . S
C2248 H2221 0.950 . S
C2248 C2234 1.377 . S
C2248 C2247 1.373 1_556 S
C2249 C2233 1.377 . S
C2249 C2247 1.389 . S
C2249 C2250 1.524 . S
C2250 C2249 1.524 . S
C2250 C2251 1.397 . S
C2250 C2255 1.363 . S
C2251 H2222 0.950 . S
C2251 C2250 1.397 . S
C2251 C2252 1.334 . S
C2252 H2223 0.950 . S
C2252 C2251 1.334 . S
C2252 C2253 1.287 . S
C2253 C2252 1.287 . S
C2253 C2254 1.524 . S
C2253 H2256 0.999 . S
C2254 H2224 0.950 . S
C2254 C2253 1.524 . S
C2254 C2255 1.415 . S
C2255 H2225 0.950 . S
C2255 C2250 1.363 . S
C2255 C2254 1.415 . S
H2256 C2253 0.999 . S
H2257 C2238 0.913 . S
H2258 C2276 0.951 . S
H2259 C2278 0.951 . S
H2260 C2280 0.950 . S
H2261 C2281 0.950 . S
H2262 C2283 0.950 . S
H2263 C2286 0.950 . S
H2264 C2287 0.950 . S
H2265 C2289 0.950 . S
H2266 C2290 0.950 . S
H2267 C2291 0.951 . S
H2268 C2293 0.951 . S
H2269 C2295 0.950 . S
H2270 C2296 0.950 . S
H2271 C2298 0.950 . S
H2272 C2301 0.950 . S
H2273 C2302 0.950 . S
H2274 C2304 0.950 . S
H2275 C2305 0.950 . S
C2276 H2258 0.951 . S
C2276 C2277 1.366 . S
C2276 C2278 1.388 . S
C2277 C2276 1.366 . S
C2277 C2281 1.385 . S
C2278 H2259 0.951 . S
C2278 C2276 1.388 . S
C2278 C2279 1.366 . S
C2279 C2278 1.366 . S
C2279 C2280 1.414 . S
C2279 C2282 1.499 . S
C2280 H2260 0.950 . S
C2280 C2279 1.414 . S
C2280 C2281 1.374 . S
C2281 H2261 0.950 . S
C2281 C2277 1.385 . S
C2281 C2280 1.374 . S
C2282 C2279 1.499 . S
C2282 C2283 1.373 . S
C2282 C2284 1.389 . S
C2283 H2262 0.950 . S
C2283 C2282 1.373 . S
C2283 C2299 1.377 . S
C2284 C2282 1.389 . S
C2284 C2285 1.524 . S
C2284 C2298 1.377 . S
C2285 C2284 1.524 . S
C2285 C2286 1.397 . S
C2285 C2290 1.363 . S
C2286 H2263 0.950 . S
C2286 C2285 1.397 . S
C2286 C2287 1.334 . S
C2287 H2264 0.950 . S
C2287 C2286 1.334 . S
C2287 C2288 1.287 . S
C2288 C2287 1.287 . S
C2288 C2289 1.524 . S
C2288 H2307 0.913 . S
C2289 H2265 0.950 . S
C2289 C2288 1.524 . S
C2289 C2290 1.415 . S
C2290 H2266 0.950 . S
C2290 C2285 1.363 . S
C2290 C2289 1.415 . S
C2291 H2267 0.951 . S
C2291 C2292 1.366 . S
C2291 C2293 1.388 . S
C2292 C2291 1.366 . S
C2292 C2296 1.385 . S
C2293 H2268 0.951 . S
C2293 C2291 1.388 . S
C2293 C2294 1.366 . S
C2294 C2293 1.366 . S
C2294 C2295 1.414 . S
C2294 C2297 1.499 . S
C2295 H2269 0.950 . S
C2295 C2294 1.414 . S
C2295 C2296 1.374 . S
C2296 H2270 0.950 . S
C2296 C2292 1.385 . S
C2296 C2295 1.374 . S
C2297 C2294 1.499 . S
C2297 C2298 1.373 . S
C2297 C2299 1.389 . S
C2298 H2271 0.950 . S
C2298 C2284 1.377 . S
C2298 C2297 1.373 . S
C2299 C2283 1.377 . S
C2299 C2297 1.389 . S
C2299 C2300 1.524 . S
C2300 C2299 1.524 . S
C2300 C2301 1.397 . S
C2300 C2305 1.363 . S
C2301 H2272 0.950 . S
C2301 C2300 1.397 . S
C2301 C2302 1.334 . S
C2302 H2273 0.950 . S
C2302 C2301 1.334 . S
C2302 C2303 1.287 . S
C2303 C2302 1.287 . S
C2303 C2304 1.524 . S
C2303 H2306 0.999 . S
C2304 H2274 0.950 . S
C2304 C2303 1.524 . S
C2304 C2305 1.415 . S
C2305 H2275 0.950 . S
C2305 C2300 1.363 . S
C2305 C2304 1.415 . S
H2306 C2303 0.999 . S
H2307 C2288 0.913 . S
H2308 C2326 0.951 . S
H2309 C2328 0.951 . S
H2310 C2330 0.950 . S
H2311 C2331 0.950 . S
H2312 C2333 0.950 . S
H2313 C2336 0.950 . S
H2314 C2337 0.950 . S
H2315 C2339 0.950 . S
H2316 C2340 0.950 . S
H2317 C2341 0.951 . S
H2318 C2343 0.951 . S
H2319 C2345 0.950 . S
H2320 C2346 0.950 . S
H2321 C2348 0.950 . S
H2322 C2351 0.950 . S
H2323 C2352 0.950 . S
H2324 C2354 0.950 . S
H2325 C2355 0.950 . S
C2326 H2308 0.951 . S
C2326 C2327 1.366 . S
C2326 C2328 1.388 . S
C2327 C2326 1.366 . S
C2327 C2331 1.385 . S
C2328 H2309 0.951 . S
C2328 C2326 1.388 . S
C2328 C2329 1.366 . S
C2329 C2328 1.366 . S
C2329 C2330 1.414 . S
C2329 C2332 1.499 . S
C2330 H2310 0.950 . S
C2330 C2329 1.414 . S
C2330 C2331 1.374 . S
C2331 H2311 0.950 . S
C2331 C2327 1.385 . S
C2331 C2330 1.374 . S
C2332 C2329 1.499 . S
C2332 C2333 1.373 . S
C2332 C2334 1.389 1_554 S
C2333 H2312 0.950 . S
C2333 C2332 1.373 . S
C2333 C2349 1.377 . S
C2334 C2332 1.389 1_556 S
C2334 C2335 1.524 . S
C2334 C2348 1.377 . S
C2335 C2334 1.524 . S
C2335 C2336 1.397 . S
C2335 C2340 1.363 . S
C2336 H2313 0.950 . S
C2336 C2335 1.397 . S
C2336 C2337 1.334 . S
C2337 H2314 0.950 . S
C2337 C2336 1.334 . S
C2337 C2338 1.287 . S
C2338 C2337 1.287 . S
C2338 C2339 1.524 . S
C2338 H2357 0.913 . S
C2339 H2315 0.950 . S
C2339 C2338 1.524 . S
C2339 C2340 1.415 . S
C2340 H2316 0.950 . S
C2340 C2335 1.363 . S
C2340 C2339 1.415 . S
C2341 H2317 0.951 . S
C2341 C2342 1.366 . S
C2341 C2343 1.388 . S
C2342 C2341 1.366 . S
C2342 C2346 1.385 . S
C2343 H2318 0.951 . S
C2343 C2341 1.388 . S
C2343 C2344 1.366 . S
C2344 C2343 1.366 . S
C2344 C2345 1.414 . S
C2344 C2347 1.499 . S
C2345 H2319 0.950 . S
C2345 C2344 1.414 . S
C2345 C2346 1.374 . S
C2346 H2320 0.950 . S
C2346 C2342 1.385 . S
C2346 C2345 1.374 . S
C2347 C2344 1.499 . S
C2347 C2348 1.373 . S
C2347 C2349 1.389 1_556 S
C2348 H2321 0.950 . S
C2348 C2334 1.377 . S
C2348 C2347 1.373 . S
C2349 C2333 1.377 . S
C2349 C2347 1.389 1_554 S
C2349 C2350 1.524 . S
C2350 C2349 1.524 . S
C2350 C2351 1.397 . S
C2350 C2355 1.363 . S
C2351 H2322 0.950 . S
C2351 C2350 1.397 . S
C2351 C2352 1.334 . S
C2352 H2323 0.950 . S
C2352 C2351 1.334 . S
C2352 C2353 1.287 . S
C2353 C2352 1.287 . S
C2353 C2354 1.524 . S
C2353 H2356 0.999 . S
C2354 H2324 0.950 . S
C2354 C2353 1.524 . S
C2354 C2355 1.415 . S
C2355 H2325 0.950 . S
C2355 C2350 1.363 . S
C2355 C2354 1.415 . S
H2356 C2353 0.999 . S
H2357 C2338 0.913 . S
H2358 C2376 0.951 . S
H2359 C2378 0.951 . S
H2360 C2380 0.950 . S
H2361 C2381 0.950 . S
H2362 C2383 0.950 . S
H2363 C2386 0.950 . S
H2364 C2387 0.950 . S
H2365 C2389 0.950 . S
H2366 C2390 0.950 . S
H2367 C2391 0.951 . S
H2368 C2393 0.951 . S
H2369 C2395 0.950 . S
H2370 C2396 0.950 . S
H2371 C2398 0.950 . S
H2372 C2401 0.950 . S
H2373 C2402 0.950 . S
H2374 C2404 0.950 . S
H2375 C2405 0.950 . S
C2376 H2358 0.951 . S
C2376 C2377 1.366 . S
C2376 C2378 1.388 . S
C2377 C2376 1.366 . S
C2377 C2381 1.385 . S
C2378 H2359 0.951 . S
C2378 C2376 1.388 . S
C2378 C2379 1.366 . S
C2379 C2378 1.366 . S
C2379 C2380 1.414 . S
C2379 C2382 1.499 . S
C2380 H2360 0.950 . S
C2380 C2379 1.414 . S
C2380 C2381 1.374 . S
C2381 H2361 0.950 . S
C2381 C2377 1.385 . S
C2381 C2380 1.374 . S
C2382 C2379 1.499 . S
C2382 C2383 1.373 . S
C2382 C2384 1.389 . S
C2383 H2362 0.950 . S
C2383 C2382 1.373 . S
C2383 C2399 1.377 . S
C2384 C2382 1.389 . S
C2384 C2385 1.524 . S
C2384 C2398 1.377 . S
C2385 C2384 1.524 . S
C2385 C2386 1.397 . S
C2385 C2390 1.363 . S
C2386 H2363 0.950 . S
C2386 C2385 1.397 . S
C2386 C2387 1.334 . S
C2387 H2364 0.950 . S
C2387 C2386 1.334 . S
C2387 C2388 1.287 . S
C2388 C2387 1.287 . S
C2388 C2389 1.524 . S
C2388 H2407 0.913 . S
C2389 H2365 0.950 . S
C2389 C2388 1.524 . S
C2389 C2390 1.415 . S
C2390 H2366 0.950 . S
C2390 C2385 1.363 . S
C2390 C2389 1.415 . S
C2391 H2367 0.951 . S
C2391 C2392 1.366 . S
C2391 C2393 1.388 . S
C2392 C2391 1.366 . S
C2392 C2396 1.385 . S
C2393 H2368 0.951 . S
C2393 C2391 1.388 . S
C2393 C2394 1.366 . S
C2394 C2393 1.366 . S
C2394 C2395 1.414 . S
C2394 C2397 1.499 . S
C2395 H2369 0.950 . S
C2395 C2394 1.414 . S
C2395 C2396 1.374 . S
C2396 H2370 0.950 . S
C2396 C2392 1.385 . S
C2396 C2395 1.374 . S
C2397 C2394 1.499 . S
C2397 C2398 1.373 . S
C2397 C2399 1.389 . S
C2398 H2371 0.950 . S
C2398 C2384 1.377 . S
C2398 C2397 1.373 . S
C2399 C2383 1.377 . S
C2399 C2397 1.389 . S
C2399 C2400 1.524 . S
C2400 C2399 1.524 . S
C2400 C2401 1.397 . S
C2400 C2405 1.363 . S
C2401 H2372 0.950 . S
C2401 C2400 1.397 . S
C2401 C2402 1.334 . S
C2402 H2373 0.950 . S
C2402 C2401 1.334 . S
C2402 C2403 1.287 . S
C2403 C2402 1.287 . S
C2403 C2404 1.524 . S
C2403 H2406 0.999 . S
C2404 H2374 0.950 . S
C2404 C2403 1.524 . S
C2404 C2405 1.415 . S
C2405 H2375 0.950 . S
C2405 C2400 1.363 . S
C2405 C2404 1.415 . S
H2406 C2403 0.999 . S
H2407 C2388 0.913 . S
H2408 C2426 0.951 . S
H2409 C2428 0.951 . S
H2410 C2430 0.950 . S
H2411 C2431 0.950 . S
H2412 C2433 0.950 . S
H2413 C2436 0.950 . S
H2414 C2437 0.950 . S
H2415 C2439 0.950 . S
H2416 C2440 0.950 . S
H2417 C2441 0.951 . S
H2418 C2443 0.951 . S
H2419 C2445 0.950 . S
H2420 C2446 0.950 . S
H2421 C2448 0.950 . S
H2422 C2451 0.950 . S
H2423 C2452 0.950 . S
H2424 C2454 0.950 . S
H2425 C2455 0.950 . S
C2426 H2408 0.951 . S
C2426 C2427 1.366 . S
C2426 C2428 1.388 . S
C2427 C2426 1.366 . S
C2427 C2431 1.385 . S
C2428 H2409 0.951 . S
C2428 C2426 1.388 . S
C2428 C2429 1.366 . S
C2429 C2428 1.366 . S
C2429 C2430 1.414 . S
C2429 C2432 1.499 . S
C2430 H2410 0.950 . S
C2430 C2429 1.414 . S
C2430 C2431 1.374 . S
C2431 H2411 0.950 . S
C2431 C2427 1.385 . S
C2431 C2430 1.374 . S
C2432 C2429 1.499 . S
C2432 C2433 1.373 . S
C2432 C2434 1.389 1_554 S
C2433 H2412 0.950 . S
C2433 C2432 1.373 . S
C2433 C2449 1.377 . S
C2434 C2432 1.389 1_556 S
C2434 C2435 1.524 . S
C2434 C2448 1.377 . S
C2435 C2434 1.524 . S
C2435 C2436 1.397 . S
C2435 C2440 1.363 . S
C2436 H2413 0.950 . S
C2436 C2435 1.397 . S
C2436 C2437 1.334 . S
C2437 H2414 0.950 . S
C2437 C2436 1.334 . S
C2437 C2438 1.287 . S
C2438 C2437 1.287 . S
C2438 C2439 1.524 . S
C2438 H2457 0.913 . S
C2439 H2415 0.950 . S
C2439 C2438 1.524 . S
C2439 C2440 1.415 . S
C2440 H2416 0.950 . S
C2440 C2435 1.363 . S
C2440 C2439 1.415 . S
C2441 H2417 0.951 . S
C2441 C2442 1.366 . S
C2441 C2443 1.388 . S
C2442 C2441 1.366 . S
C2442 C2446 1.385 . S
C2443 H2418 0.951 . S
C2443 C2441 1.388 . S
C2443 C2444 1.366 . S
C2444 C2443 1.366 . S
C2444 C2445 1.414 . S
C2444 C2447 1.499 . S
C2445 H2419 0.950 . S
C2445 C2444 1.414 . S
C2445 C2446 1.374 . S
C2446 H2420 0.950 . S
C2446 C2442 1.385 . S
C2446 C2445 1.374 . S
C2447 C2444 1.499 . S
C2447 C2448 1.373 . S
C2447 C2449 1.389 1_556 S
C2448 H2421 0.950 . S
C2448 C2434 1.377 . S
C2448 C2447 1.373 . S
C2449 C2433 1.377 . S
C2449 C2447 1.389 1_554 S
C2449 C2450 1.524 . S
C2450 C2449 1.524 . S
C2450 C2451 1.397 . S
C2450 C2455 1.363 . S
C2451 H2422 0.950 . S
C2451 C2450 1.397 . S
C2451 C2452 1.334 . S
C2452 H2423 0.950 . S
C2452 C2451 1.334 . S
C2452 C2453 1.287 . S
C2453 C2452 1.287 . S
C2453 C2454 1.524 . S
C2453 H2456 0.999 . S
C2454 H2424 0.950 . S
C2454 C2453 1.524 . S
C2454 C2455 1.415 . S
C2455 H2425 0.950 . S
C2455 C2450 1.363 . S
C2455 C2454 1.415 . S
H2456 C2453 0.999 . S
H2457 C2438 0.913 . S
H2458 C2476 0.951 . S
H2459 C2478 0.951 . S
H2460 C2480 0.950 . S
H2461 C2481 0.950 . S
H2462 C2483 0.950 . S
H2463 C2486 0.950 . S
H2464 C2487 0.950 . S
H2465 C2489 0.950 . S
H2466 C2490 0.950 . S
H2467 C2491 0.951 . S
H2468 C2493 0.951 . S
H2469 C2495 0.950 . S
H2470 C2496 0.950 . S
H2471 C2498 0.950 . S
H2472 C2501 0.950 . S
H2473 C2502 0.950 . S
H2474 C2504 0.950 . S
H2475 C2505 0.950 . S
C2476 H2458 0.951 . S
C2476 C2477 1.366 . S
C2476 C2478 1.388 . S
C2477 C2476 1.366 . S
C2477 C2481 1.385 . S
C2478 H2459 0.951 . S
C2478 C2476 1.388 . S
C2478 C2479 1.366 . S
C2479 C2478 1.366 . S
C2479 C2480 1.414 . S
C2479 C2482 1.499 . S
C2480 H2460 0.950 . S
C2480 C2479 1.414 . S
C2480 C2481 1.374 . S
C2481 H2461 0.950 . S
C2481 C2477 1.385 . S
C2481 C2480 1.374 . S
C2482 C2479 1.499 . S
C2482 C2483 1.373 . S
C2482 C2484 1.389 . S
C2483 H2462 0.950 . S
C2483 C2482 1.373 . S
C2483 C2499 1.377 . S
C2484 C2482 1.389 . S
C2484 C2485 1.524 . S
C2484 C2498 1.377 . S
C2485 C2484 1.524 . S
C2485 C2486 1.397 . S
C2485 C2490 1.363 . S
C2486 H2463 0.950 . S
C2486 C2485 1.397 . S
C2486 C2487 1.334 . S
C2487 H2464 0.950 . S
C2487 C2486 1.334 . S
C2487 C2488 1.287 . S
C2488 C2487 1.287 . S
C2488 C2489 1.524 . S
C2488 H2507 0.913 . S
C2489 H2465 0.950 . S
C2489 C2488 1.524 . S
C2489 C2490 1.415 . S
C2490 H2466 0.950 . S
C2490 C2485 1.363 . S
C2490 C2489 1.415 . S
C2491 H2467 0.951 . S
C2491 C2492 1.366 . S
C2491 C2493 1.388 . S
C2492 C2491 1.366 . S
C2492 C2496 1.385 . S
C2493 H2468 0.951 . S
C2493 C2491 1.388 . S
C2493 C2494 1.366 . S
C2494 C2493 1.366 . S
C2494 C2495 1.414 . S
C2494 C2497 1.499 . S
C2495 H2469 0.950 . S
C2495 C2494 1.414 . S
C2495 C2496 1.374 . S
C2496 H2470 0.950 . S
C2496 C2492 1.385 . S
C2496 C2495 1.374 . S
C2497 C2494 1.499 . S
C2497 C2498 1.373 . S
C2497 C2499 1.389 . S
C2498 H2471 0.950 . S
C2498 C2484 1.377 . S
C2498 C2497 1.373 . S
C2499 C2483 1.377 . S
C2499 C2497 1.389 . S
C2499 C2500 1.524 . S
C2500 C2499 1.524 . S
C2500 C2501 1.397 . S
C2500 C2505 1.363 . S
C2501 H2472 0.950 . S
C2501 C2500 1.397 . S
C2501 C2502 1.334 . S
C2502 H2473 0.950 . S
C2502 C2501 1.334 . S
C2502 C2503 1.287 . S
C2503 C2502 1.287 . S
C2503 C2504 1.524 . S
C2503 H2506 0.999 . S
C2504 H2474 0.950 . S
C2504 C2503 1.524 . S
C2504 C2505 1.415 . S
C2505 H2475 0.950 . S
C2505 C2500 1.363 . S
C2505 C2504 1.415 . S
H2506 C2503 0.999 . S
H2507 C2488 0.913 . S
H2508 C2526 0.951 . S
H2509 C2528 0.934 1_556 S
H2510 C2530 0.950 . S
H2511 C2531 0.950 . S
H2512 C2533 0.950 . S
H2513 C2536 0.950 . S
H2514 C2537 0.950 . S
H2515 C2539 0.950 . S
H2516 C2540 0.950 . S
H2517 C2541 0.951 . S
H2518 C2543 0.935 1_554 S
H2519 C2545 0.950 . S
H2520 C2546 0.950 . S
H2521 C2548 0.950 . S
H2522 C2551 0.950 . S
H2523 C2552 0.950 . S
H2524 C2554 0.950 . S
H2525 C2555 0.950 . S
C2526 H2508 0.951 . S
C2526 C2527 1.366 . S
C2526 C2528 1.388 . S
C2527 C2526 1.366 . S
C2527 C2531 1.385 . S
C2528 H2509 0.934 1_554 S
C2528 C2526 1.388 . S
C2528 C2529 1.366 . S
C2529 C2528 1.366 . S
C2529 C2530 1.414 . S
C2529 C2532 1.499 . S
C2530 H2510 0.950 . S
C2530 C2529 1.414 . S
C2530 C2531 1.374 . S
C2531 H2511 0.950 . S
C2531 C2527 1.385 . S
C2531 C2530 1.374 . S
C2532 C2529 1.499 . S
C2532 C2533 1.373 . S
C2532 C2534 1.389 . S
C2533 H2512 0.950 . S
C2533 C2532 1.373 . S
C2533 C2549 1.377 1_554 S
C2534 C2532 1.389 . S
C2534 C2535 1.524 . S
C2534 C2548 1.377 1_554 S
C2535 C2534 1.524 . S
C2535 C2536 1.397 . S
C2535 C2540 1.363 1_554 S
C2536 H2513 0.950 . S
C2536 C2535 1.397 . S
C2536 C2537 1.334 . S
C2537 H2514 0.950 . S
C2537 C2536 1.334 . S
C2537 C2538 1.287 . S
C2538 C2537 1.287 . S
C2538 C2539 1.524 1_554 S
C2538 H2557 0.913 . S
C2539 H2515 0.950 . S
C2539 C2538 1.524 1_556 S
C2539 C2540 1.415 . S
C2540 H2516 0.950 . S
C2540 C2535 1.363 1_556 S
C2540 C2539 1.415 . S
C2541 H2517 0.951 . S
C2541 C2542 1.366 . S
C2541 C2543 1.388 . S
C2542 C2541 1.366 . S
C2542 C2546 1.385 . S
C2543 H2518 0.935 1_556 S
C2543 C2541 1.388 . S
C2543 C2544 1.366 . S
C2544 C2543 1.366 . S
C2544 C2545 1.414 . S
C2544 C2547 1.499 . S
C2545 H2519 0.950 . S
C2545 C2544 1.414 . S
C2545 C2546 1.374 . S
C2546 H2520 0.950 . S
C2546 C2542 1.385 . S
C2546 C2545 1.374 . S
C2547 C2544 1.499 . S
C2547 C2548 1.373 . S
C2547 C2549 1.389 . S
C2548 H2521 0.950 . S
C2548 C2534 1.377 1_556 S
C2548 C2547 1.373 . S
C2549 C2533 1.377 1_556 S
C2549 C2547 1.389 . S
C2549 C2550 1.524 . S
C2550 C2549 1.524 . S
C2550 C2551 1.397 . S
C2550 C2555 1.363 1_556 S
C2551 H2522 0.950 . S
C2551 C2550 1.397 . S
C2551 C2552 1.334 . S
C2552 H2523 0.950 . S
C2552 C2551 1.334 . S
C2552 C2553 1.287 . S
C2553 C2552 1.287 . S
C2553 C2554 1.524 1_556 S
C2553 H2556 0.999 . S
C2554 H2524 0.950 . S
C2554 C2553 1.524 1_554 S
C2554 C2555 1.415 . S
C2555 H2525 0.950 . S
C2555 C2550 1.363 1_554 S
C2555 C2554 1.415 . S
H2556 C2553 0.999 . S
H2557 C2538 0.913 . S
H2558 C2576 0.951 . S
H2559 C2578 0.951 . S
H2560 C2580 0.950 . S
H2561 C2581 0.950 . S
H2562 C2583 0.950 . S
H2563 C2586 0.950 . S
H2564 C2587 0.950 . S
H2565 C2589 0.950 . S
H2566 C2590 0.950 . S
H2567 C2591 0.951 . S
H2568 C2593 0.951 . S
H2569 C2595 0.950 . S
H2570 C2596 0.950 . S
H2571 C2598 0.950 . S
H2572 C2601 0.950 . S
H2573 C2602 0.950 . S
H2574 C2604 0.950 . S
H2575 C2605 0.950 . S
C2576 H2558 0.951 . S
C2576 C2577 1.366 . S
C2576 C2578 1.388 . S
C2577 C2576 1.366 . S
C2577 C2581 1.385 . S
C2578 H2559 0.951 . S
C2578 C2576 1.388 . S
C2578 C2579 1.366 . S
C2579 C2578 1.366 . S
C2579 C2580 1.414 . S
C2579 C2582 1.499 . S
C2580 H2560 0.950 . S
C2580 C2579 1.414 . S
C2580 C2581 1.374 . S
C2581 H2561 0.950 . S
C2581 C2577 1.385 . S
C2581 C2580 1.374 . S
C2582 C2579 1.499 . S
C2582 C2583 1.373 . S
C2582 C2584 1.389 . S
C2583 H2562 0.950 . S
C2583 C2582 1.373 . S
C2583 C2599 1.377 . S
C2584 C2582 1.389 . S
C2584 C2585 1.524 . S
C2584 C2598 1.377 . S
C2585 C2584 1.524 . S
C2585 C2586 1.397 . S
C2585 C2590 1.363 . S
C2586 H2563 0.950 . S
C2586 C2585 1.397 . S
C2586 C2587 1.334 . S
C2587 H2564 0.950 . S
C2587 C2586 1.334 . S
C2587 C2588 1.287 . S
C2588 C2587 1.287 . S
C2588 C2589 1.524 . S
C2588 H2607 0.913 . S
C2589 H2565 0.950 . S
C2589 C2588 1.524 . S
C2589 C2590 1.415 . S
C2590 H2566 0.950 . S
C2590 C2585 1.363 . S
C2590 C2589 1.415 . S
C2591 H2567 0.951 . S
C2591 C2592 1.366 . S
C2591 C2593 1.388 . S
C2592 C2591 1.366 . S
C2592 C2596 1.385 . S
C2593 H2568 0.951 . S
C2593 C2591 1.388 . S
C2593 C2594 1.366 . S
C2594 C2593 1.366 . S
C2594 C2595 1.414 . S
C2594 C2597 1.499 . S
C2595 H2569 0.950 . S
C2595 C2594 1.414 . S
C2595 C2596 1.374 . S
C2596 H2570 0.950 . S
C2596 C2592 1.385 . S
C2596 C2595 1.374 . S
C2597 C2594 1.499 . S
C2597 C2598 1.373 . S
C2597 C2599 1.389 . S
C2598 H2571 0.950 . S
C2598 C2584 1.377 . S
C2598 C2597 1.373 . S
C2599 C2583 1.377 . S
C2599 C2597 1.389 . S
C2599 C2600 1.524 . S
C2600 C2599 1.524 . S
C2600 C2601 1.397 . S
C2600 C2605 1.363 . S
C2601 H2572 0.950 . S
C2601 C2600 1.397 . S
C2601 C2602 1.334 . S
C2602 H2573 0.950 . S
C2602 C2601 1.334 . S
C2602 C2603 1.287 . S
C2603 C2602 1.287 . S
C2603 C2604 1.524 . S
C2603 H2606 0.999 . S
C2604 H2574 0.950 . S
C2604 C2603 1.524 . S
C2604 C2605 1.415 . S
C2605 H2575 0.950 . S
C2605 C2600 1.363 . S
C2605 C2604 1.415 . S
H2606 C2603 0.999 . S
H2607 C2588 0.913 . S
H2608 C2626 0.951 . S
H2609 C2628 0.951 1_554 S
H2610 C2630 0.950 . S
H2611 C2631 0.950 . S
H2612 C2633 0.950 . S
H2613 C2636 0.950 1_556 S
H2614 C2637 0.950 . S
H2615 C2639 0.950 . S
H2616 C2640 0.950 . S
H2617 C2641 0.951 . S
H2618 C2643 0.951 1_556 S
H2619 C2645 0.950 . S
H2620 C2646 0.950 . S
H2621 C2648 0.950 . S
H2622 C2651 0.950 1_554 S
H2623 C2652 0.950 . S
H2624 C2654 0.950 . S
H2625 C2655 0.950 . S
C2626 H2608 0.951 . S
C2626 C2627 1.366 . S
C2626 C2628 1.388 . S
C2627 C2626 1.366 . S
C2627 C2631 1.385 . S
C2628 H2609 0.951 1_556 S
C2628 C2626 1.388 . S
C2628 C2629 1.366 . S
C2629 C2628 1.366 . S
C2629 C2630 1.414 . S
C2629 C2632 1.499 . S
C2630 H2610 0.950 . S
C2630 C2629 1.414 . S
C2630 C2631 1.374 . S
C2631 H2611 0.950 . S
C2631 C2627 1.385 . S
C2631 C2630 1.374 . S
C2632 C2629 1.499 . S
C2632 C2633 1.373 . S
C2632 C2634 1.389 1_556 S
C2633 H2612 0.950 . S
C2633 C2632 1.373 . S
C2633 C2649 1.377 . S
C2634 C2632 1.389 1_554 S
C2634 C2635 1.524 . S
C2634 C2648 1.377 . S
C2635 C2634 1.524 . S
C2635 C2636 1.397 . S
C2635 C2640 1.363 . S
C2636 H2613 0.950 1_554 S
C2636 C2635 1.397 . S
C2636 C2637 1.334 . S
C2637 H2614 0.950 . S
C2637 C2636 1.334 . S
C2637 C2638 1.287 . S
C2638 C2637 1.287 . S
C2638 C2639 1.524 . S
C2638 H2657 0.913 . S
C2639 H2615 0.950 . S
C2639 C2638 1.524 . S
C2639 C2640 1.415 . S
C2640 H2616 0.950 . S
C2640 C2635 1.363 . S
C2640 C2639 1.415 . S
C2641 H2617 0.951 . S
C2641 C2642 1.366 . S
C2641 C2643 1.388 . S
C2642 C2641 1.366 . S
C2642 C2646 1.385 . S
C2643 H2618 0.951 1_554 S
C2643 C2641 1.388 . S
C2643 C2644 1.366 . S
C2644 C2643 1.366 . S
C2644 C2645 1.414 . S
C2644 C2647 1.499 . S
C2645 H2619 0.950 . S
C2645 C2644 1.414 . S
C2645 C2646 1.374 . S
C2646 H2620 0.950 . S
C2646 C2642 1.385 . S
C2646 C2645 1.374 . S
C2647 C2644 1.499 . S
C2647 C2648 1.373 . S
C2647 C2649 1.389 1_554 S
C2648 H2621 0.950 . S
C2648 C2634 1.377 . S
C2648 C2647 1.373 . S
C2649 C2633 1.377 . S
C2649 C2647 1.389 1_556 S
C2649 C2650 1.524 . S
C2650 C2649 1.524 . S
C2650 C2651 1.397 . S
C2650 C2655 1.363 . S
C2651 H2622 0.950 1_556 S
C2651 C2650 1.397 . S
C2651 C2652 1.334 . S
C2652 H2623 0.950 . S
C2652 C2651 1.334 . S
C2652 C2653 1.287 . S
C2653 C2652 1.287 . S
C2653 C2654 1.524 . S
C2653 H2656 0.999 . S
C2654 H2624 0.950 . S
C2654 C2653 1.524 . S
C2654 C2655 1.415 . S
C2655 H2625 0.950 . S
C2655 C2650 1.363 . S
C2655 C2654 1.415 . S
H2656 C2653 0.999 . S
H2657 C2638 0.913 . S
H2658 C2676 0.951 . S
H2659 C2678 0.951 . S
H2660 C2680 0.950 . S
H2661 C2681 0.950 . S
H2662 C2683 0.950 . S
H2663 C2686 0.950 . S
H2664 C2687 0.950 . S
H2665 C2689 0.950 . S
H2666 C2690 0.950 . S
H2667 C2691 0.951 . S
H2668 C2693 0.951 . S
H2669 C2695 0.950 . S
H2670 C2696 0.950 . S
H2671 C2698 0.950 . S
H2672 C2701 0.950 . S
H2673 C2702 0.950 . S
H2674 C2704 0.950 . S
H2675 C2705 0.950 . S
C2676 H2658 0.951 . S
C2676 C2677 1.366 . S
C2676 C2678 1.388 . S
C2677 C2676 1.366 . S
C2677 C2681 1.385 . S
C2678 H2659 0.951 . S
C2678 C2676 1.388 . S
C2678 C2679 1.366 . S
C2679 C2678 1.366 . S
C2679 C2680 1.414 . S
C2679 C2682 1.499 . S
C2680 H2660 0.950 . S
C2680 C2679 1.414 . S
C2680 C2681 1.374 . S
C2681 H2661 0.950 . S
C2681 C2677 1.385 . S
C2681 C2680 1.374 . S
C2682 C2679 1.499 . S
C2682 C2683 1.373 . S
C2682 C2684 1.389 . S
C2683 H2662 0.950 . S
C2683 C2682 1.373 . S
C2683 C2699 1.377 . S
C2684 C2682 1.389 . S
C2684 C2685 1.524 . S
C2684 C2698 1.377 . S
C2685 C2684 1.524 . S
C2685 C2686 1.397 . S
C2685 C2690 1.363 . S
C2686 H2663 0.950 . S
C2686 C2685 1.397 . S
C2686 C2687 1.334 . S
C2687 H2664 0.950 . S
C2687 C2686 1.334 . S
C2687 C2688 1.287 . S
C2688 C2687 1.287 . S
C2688 C2689 1.524 . S
C2688 H2707 0.913 . S
C2689 H2665 0.950 . S
C2689 C2688 1.524 . S
C2689 C2690 1.415 . S
C2690 H2666 0.950 . S
C2690 C2685 1.363 . S
C2690 C2689 1.415 . S
C2691 H2667 0.951 . S
C2691 C2692 1.366 . S
C2691 C2693 1.388 . S
C2692 C2691 1.366 . S
C2692 C2696 1.385 . S
C2693 H2668 0.951 . S
C2693 C2691 1.388 . S
C2693 C2694 1.366 . S
C2694 C2693 1.366 . S
C2694 C2695 1.414 . S
C2694 C2697 1.499 . S
C2695 H2669 0.950 . S
C2695 C2694 1.414 . S
C2695 C2696 1.374 . S
C2696 H2670 0.950 . S
C2696 C2692 1.385 . S
C2696 C2695 1.374 . S
C2697 C2694 1.499 . S
C2697 C2698 1.373 . S
C2697 C2699 1.389 . S
C2698 H2671 0.950 . S
C2698 C2684 1.377 . S
C2698 C2697 1.373 . S
C2699 C2683 1.377 . S
C2699 C2697 1.389 . S
C2699 C2700 1.524 . S
C2700 C2699 1.524 . S
C2700 C2701 1.397 . S
C2700 C2705 1.363 . S
C2701 H2672 0.950 . S
C2701 C2700 1.397 . S
C2701 C2702 1.334 . S
C2702 H2673 0.950 . S
C2702 C2701 1.334 . S
C2702 C2703 1.287 . S
C2703 C2702 1.287 . S
C2703 C2704 1.524 . S
C2703 H2706 0.999 . S
C2704 H2674 0.950 . S
C2704 C2703 1.524 . S
C2704 C2705 1.415 . S
C2705 H2675 0.950 . S
C2705 C2700 1.363 . S
C2705 C2704 1.415 . S
H2706 C2703 0.999 . S
H2707 C2688 0.913 . S
H2708 C2726 0.951 . S
H2709 C2728 0.951 . S
H2710 C2730 0.950 . S
H2711 C2731 0.950 . S
H2712 C2733 0.950 . S
H2713 C2736 0.950 . S
H2714 C2737 0.950 . S
H2715 C2739 0.950 . S
H2716 C2740 0.950 . S
H2717 C2741 0.951 . S
H2718 C2743 0.951 . S
H2719 C2745 0.950 . S
H2720 C2746 0.950 . S
H2721 C2748 0.950 . S
H2722 C2751 0.950 . S
H2723 C2752 0.950 . S
H2724 C2754 0.950 . S
H2725 C2755 0.950 . S
C2726 H2708 0.951 . S
C2726 C2727 1.366 . S
C2726 C2728 1.388 . S
C2727 C2726 1.366 . S
C2727 C2731 1.385 . S
C2728 H2709 0.951 . S
C2728 C2726 1.388 . S
C2728 C2729 1.366 . S
C2729 C2728 1.366 . S
C2729 C2730 1.414 . S
C2729 C2732 1.499 . S
C2730 H2710 0.950 . S
C2730 C2729 1.414 . S
C2730 C2731 1.374 . S
C2731 H2711 0.950 . S
C2731 C2727 1.385 . S
C2731 C2730 1.374 . S
C2732 C2729 1.499 . S
C2732 C2733 1.373 . S
C2732 C2734 1.389 1_554 S
C2733 H2712 0.950 . S
C2733 C2732 1.373 . S
C2733 C2749 1.377 . S
C2734 C2732 1.389 1_556 S
C2734 C2735 1.524 . S
C2734 C2748 1.377 . S
C2735 C2734 1.524 . S
C2735 C2736 1.397 . S
C2735 C2740 1.363 . S
C2736 H2713 0.950 . S
C2736 C2735 1.397 . S
C2736 C2737 1.334 . S
C2737 H2714 0.950 . S
C2737 C2736 1.334 . S
C2737 C2738 1.287 . S
C2738 C2737 1.287 . S
C2738 C2739 1.524 . S
C2738 H2757 0.913 . S
C2739 H2715 0.950 . S
C2739 C2738 1.524 . S
C2739 C2740 1.415 . S
C2740 H2716 0.950 . S
C2740 C2735 1.363 . S
C2740 C2739 1.415 . S
C2741 H2717 0.951 . S
C2741 C2742 1.366 . S
C2741 C2743 1.388 . S
C2742 C2741 1.366 . S
C2742 C2746 1.385 . S
C2743 H2718 0.951 . S
C2743 C2741 1.388 . S
C2743 C2744 1.366 . S
C2744 C2743 1.366 . S
C2744 C2745 1.414 . S
C2744 C2747 1.499 . S
C2745 H2719 0.950 . S
C2745 C2744 1.414 . S
C2745 C2746 1.374 . S
C2746 H2720 0.950 . S
C2746 C2742 1.385 . S
C2746 C2745 1.374 . S
C2747 C2744 1.499 . S
C2747 C2748 1.373 . S
C2747 C2749 1.389 1_556 S
C2748 H2721 0.950 . S
C2748 C2734 1.377 . S
C2748 C2747 1.373 . S
C2749 C2733 1.377 . S
C2749 C2747 1.389 1_554 S
C2749 C2750 1.524 . S
C2750 C2749 1.524 . S
C2750 C2751 1.397 . S
C2750 C2755 1.363 . S
C2751 H2722 0.950 . S
C2751 C2750 1.397 . S
C2751 C2752 1.334 . S
C2752 H2723 0.950 . S
C2752 C2751 1.334 . S
C2752 C2753 1.287 . S
C2753 C2752 1.287 . S
C2753 C2754 1.524 . S
C2753 H2756 0.999 . S
C2754 H2724 0.950 . S
C2754 C2753 1.524 . S
C2754 C2755 1.415 . S
C2755 H2725 0.950 . S
C2755 C2750 1.363 . S
C2755 C2754 1.415 . S
H2756 C2753 0.999 . S
H2757 C2738 0.913 . S
H2758 C2776 0.951 . S
H2759 C2778 0.951 . S
H2760 C2780 0.950 . S
H2761 C2781 0.950 . S
H2762 C2783 0.950 . S
H2763 C2786 0.950 . S
H2764 C2787 0.950 . S
H2765 C2789 0.950 . S
H2766 C2790 0.950 . S
H2767 C2791 0.951 . S
H2768 C2793 0.951 . S
H2769 C2795 0.950 . S
H2770 C2796 0.950 . S
H2771 C2798 0.950 . S
H2772 C2801 0.950 . S
H2773 C2802 0.950 . S
H2774 C2804 0.950 . S
H2775 C2805 0.950 . S
C2776 H2758 0.951 . S
C2776 C2777 1.366 . S
C2776 C2778 1.388 . S
C2777 C2776 1.366 . S
C2777 C2781 1.385 . S
C2778 H2759 0.951 . S
C2778 C2776 1.388 . S
C2778 C2779 1.366 . S
C2779 C2778 1.366 . S
C2779 C2780 1.414 . S
C2779 C2782 1.499 . S
C2780 H2760 0.950 . S
C2780 C2779 1.414 . S
C2780 C2781 1.374 . S
C2781 H2761 0.950 . S
C2781 C2777 1.385 . S
C2781 C2780 1.374 . S
C2782 C2779 1.499 . S
C2782 C2783 1.373 . S
C2782 C2784 1.389 . S
C2783 H2762 0.950 . S
C2783 C2782 1.373 . S
C2783 C2799 1.377 . S
C2784 C2782 1.389 . S
C2784 C2785 1.524 . S
C2784 C2798 1.377 . S
C2785 C2784 1.524 . S
C2785 C2786 1.397 . S
C2785 C2790 1.363 . S
C2786 H2763 0.950 . S
C2786 C2785 1.397 . S
C2786 C2787 1.334 . S
C2787 H2764 0.950 . S
C2787 C2786 1.334 . S
C2787 C2788 1.287 . S
C2788 C2787 1.287 . S
C2788 C2789 1.524 . S
C2788 H2807 0.913 . S
C2789 H2765 0.950 . S
C2789 C2788 1.524 . S
C2789 C2790 1.415 . S
C2790 H2766 0.950 . S
C2790 C2785 1.363 . S
C2790 C2789 1.415 . S
C2791 H2767 0.951 . S
C2791 C2792 1.366 . S
C2791 C2793 1.388 . S
C2792 C2791 1.366 . S
C2792 C2796 1.385 . S
C2793 H2768 0.951 . S
C2793 C2791 1.388 . S
C2793 C2794 1.366 . S
C2794 C2793 1.366 . S
C2794 C2795 1.414 . S
C2794 C2797 1.499 . S
C2795 H2769 0.950 . S
C2795 C2794 1.414 . S
C2795 C2796 1.374 . S
C2796 H2770 0.950 . S
C2796 C2792 1.385 . S
C2796 C2795 1.374 . S
C2797 C2794 1.499 . S
C2797 C2798 1.373 . S
C2797 C2799 1.389 . S
C2798 H2771 0.950 . S
C2798 C2784 1.377 . S
C2798 C2797 1.373 . S
C2799 C2783 1.377 . S
C2799 C2797 1.389 . S
C2799 C2800 1.524 . S
C2800 C2799 1.524 . S
C2800 C2801 1.397 . S
C2800 C2805 1.363 . S
C2801 H2772 0.950 . S
C2801 C2800 1.397 . S
C2801 C2802 1.334 . S
C2802 H2773 0.950 . S
C2802 C2801 1.334 . S
C2802 C2803 1.287 . S
C2803 C2802 1.287 . S
C2803 C2804 1.524 . S
C2803 H2806 0.999 . S
C2804 H2774 0.950 . S
C2804 C2803 1.524 . S
C2804 C2805 1.415 . S
C2805 H2775 0.950 . S
C2805 C2800 1.363 . S
C2805 C2804 1.415 . S
H2806 C2803 0.999 . S
H2807 C2788 0.913 . S
H2808 C2826 0.951 . S
H2809 C2828 0.951 . S
H2810 C2830 0.921 1_554 S
H2811 C2831 0.950 . S
H2812 C2833 0.950 . S
H2813 C2836 0.950 1_554 S
H2814 C2837 0.950 . S
H2815 C2839 0.991 . S
H2816 C2840 0.950 1_565 S
H2817 C2841 0.951 . S
H2818 C2843 0.951 . S
H2819 C2845 0.921 1_556 S
H2820 C2846 0.950 . S
H2821 C2848 0.950 . S
H2822 C2851 0.950 1_556 S
H2823 C2852 0.950 . S
H2824 C2854 0.991 . S
H2825 C2855 0.950 1_545 S
C2826 H2808 0.951 . S
C2826 C2827 1.366 . S
C2826 C2828 1.388 . S
C2827 C2826 1.366 . S
C2827 C2831 1.385 . S
C2828 H2809 0.951 . S
C2828 C2826 1.388 . S
C2828 C2829 1.366 . S
C2829 C2828 1.366 . S
C2829 C2830 1.414 . S
C2829 C2832 1.499 . S
C2830 H2810 0.921 1_556 S
C2830 C2829 1.414 . S
C2830 C2831 1.374 . S
C2831 H2811 0.950 . S
C2831 C2827 1.385 . S
C2831 C2830 1.374 . S
C2832 C2829 1.499 . S
C2832 C2833 1.373 . S
C2832 C2834 1.389 . S
C2833 H2812 0.950 . S
C2833 C2832 1.373 . S
C2833 C2849 1.377 1_546 S
C2834 C2832 1.389 . S
C2834 C2835 1.524 . S
C2834 C2848 1.377 1_546 S
C2835 C2834 1.524 . S
C2835 C2836 1.397 . S
C2835 C2840 1.363 . S
C2836 H2813 0.950 1_556 S
C2836 C2835 1.397 . S
C2836 C2837 1.334 . S
C2837 H2814 0.950 . S
C2837 C2836 1.334 . S
C2837 C2838 1.287 . S
C2838 C2837 1.287 . S
C2838 C2839 1.524 . S
C2838 H2857 0.913 . S
C2839 H2815 0.991 . S
C2839 C2838 1.524 . S
C2839 C2840 1.415 . S
C2840 H2816 0.950 1_545 S
C2840 C2835 1.363 . S
C2840 C2839 1.415 . S
C2841 H2817 0.951 . S
C2841 C2842 1.366 . S
C2841 C2843 1.388 . S
C2842 C2841 1.366 . S
C2842 C2846 1.385 . S
C2843 H2818 0.951 . S
C2843 C2841 1.388 . S
C2843 C2844 1.366 . S
C2844 C2843 1.366 . S
C2844 C2845 1.414 . S
C2844 C2847 1.499 . S
C2845 H2819 0.921 1_554 S
C2845 C2844 1.414 . S
C2845 C2846 1.374 . S
C2846 H2820 0.950 . S
C2846 C2842 1.385 . S
C2846 C2845 1.374 . S
C2847 C2844 1.499 . S
C2847 C2848 1.373 . S
C2847 C2849 1.389 . S
C2848 H2821 0.950 . S
C2848 C2834 1.377 1_564 S
C2848 C2847 1.373 . S
C2849 C2833 1.377 1_564 S
C2849 C2847 1.389 . S
C2849 C2850 1.524 . S
C2850 C2849 1.524 . S
C2850 C2851 1.397 . S
C2850 C2855 1.363 . S
C2851 H2822 0.950 1_554 S
C2851 C2850 1.397 . S
C2851 C2852 1.334 . S
C2852 H2823 0.950 . S
C2852 C2851 1.334 . S
C2852 C2853 1.287 . S
C2853 C2852 1.287 . S
C2853 C2854 1.524 . S
C2853 H2856 0.999 . S
C2854 H2824 0.991 . S
C2854 C2853 1.524 . S
C2854 C2855 1.415 . S
C2855 H2825 0.950 1_565 S
C2855 C2850 1.363 . S
C2855 C2854 1.415 . S
H2856 C2853 0.999 . S
H2857 C2838 0.913 . S
H2858 C2876 0.951 . S
H2859 C2878 0.951 . S
H2860 C2880 0.950 . S
H2861 C2881 0.950 . S
H2862 C2883 0.950 . S
H2863 C2886 0.950 . S
H2864 C2887 0.950 . S
H2865 C2889 0.950 . S
H2866 C2890 0.950 . S
H2867 C2891 0.951 . S
H2868 C2893 0.951 . S
H2869 C2895 0.950 . S
H2870 C2896 0.950 . S
H2871 C2898 0.950 . S
H2872 C2901 0.950 . S
H2873 C2902 0.950 . S
H2874 C2904 0.950 . S
H2875 C2905 0.950 . S
C2876 H2858 0.951 . S
C2876 C2877 1.366 . S
C2876 C2878 1.388 . S
C2877 C2876 1.366 . S
C2877 C2881 1.385 . S
C2878 H2859 0.951 . S
C2878 C2876 1.388 . S
C2878 C2879 1.366 . S
C2879 C2878 1.366 . S
C2879 C2880 1.414 . S
C2879 C2882 1.499 . S
C2880 H2860 0.950 . S
C2880 C2879 1.414 . S
C2880 C2881 1.374 . S
C2881 H2861 0.950 . S
C2881 C2877 1.385 . S
C2881 C2880 1.374 . S
C2882 C2879 1.499 . S
C2882 C2883 1.373 . S
C2882 C2884 1.389 . S
C2883 H2862 0.950 . S
C2883 C2882 1.373 . S
C2883 C2899 1.377 1_565 S
C2884 C2882 1.389 . S
C2884 C2885 1.524 . S
C2884 C2898 1.377 1_565 S
C2885 C2884 1.524 . S
C2885 C2886 1.397 . S
C2885 C2890 1.363 . S
C2886 H2863 0.950 . S
C2886 C2885 1.397 . S
C2886 C2887 1.334 . S
C2887 H2864 0.950 . S
C2887 C2886 1.334 . S
C2887 C2888 1.287 . S
C2888 C2887 1.287 . S
C2888 C2889 1.524 . S
C2888 H2907 0.913 . S
C2889 H2865 0.950 . S
C2889 C2888 1.524 . S
C2889 C2890 1.415 . S
C2890 H2866 0.950 . S
C2890 C2885 1.363 . S
C2890 C2889 1.415 . S
C2891 H2867 0.951 . S
C2891 C2892 1.366 . S
C2891 C2893 1.388 . S
C2892 C2891 1.366 . S
C2892 C2896 1.385 . S
C2893 H2868 0.951 . S
C2893 C2891 1.388 . S
C2893 C2894 1.366 . S
C2894 C2893 1.366 . S
C2894 C2895 1.414 . S
C2894 C2897 1.499 . S
C2895 H2869 0.950 . S
C2895 C2894 1.414 . S
C2895 C2896 1.374 . S
C2896 H2870 0.950 . S
C2896 C2892 1.385 . S
C2896 C2895 1.374 . S
C2897 C2894 1.499 . S
C2897 C2898 1.373 . S
C2897 C2899 1.389 . S
C2898 H2871 0.950 . S
C2898 C2884 1.377 1_545 S
C2898 C2897 1.373 . S
C2899 C2883 1.377 1_545 S
C2899 C2897 1.389 . S
C2899 C2900 1.524 . S
C2900 C2899 1.524 . S
C2900 C2901 1.397 . S
C2900 C2905 1.363 . S
C2901 H2872 0.950 . S
C2901 C2900 1.397 . S
C2901 C2902 1.334 . S
C2902 H2873 0.950 . S
C2902 C2901 1.334 . S
C2902 C2903 1.287 . S
C2903 C2902 1.287 . S
C2903 C2904 1.524 . S
C2903 H2906 0.999 . S
C2904 H2874 0.950 . S
C2904 C2903 1.524 . S
C2904 C2905 1.415 . S
C2905 H2875 0.950 . S
C2905 C2900 1.363 . S
C2905 C2904 1.415 . S
H2906 C2903 0.999 . S
H2907 C2888 0.913 . S
H2908 C2926 0.951 . S
H2909 C2928 0.951 . S
H2910 C2930 0.950 . S
H2911 C2931 0.950 . S
H2912 C2933 0.950 . S
H2913 C2936 0.950 . S
H2914 C2937 0.950 . S
H2915 C2939 0.950 . S
H2916 C2940 0.950 . S
H2917 C2941 0.951 . S
H2918 C2943 0.951 . S
H2919 C2945 0.950 . S
H2920 C2946 0.950 . S
H2921 C2948 0.950 . S
H2922 C2951 0.950 . S
H2923 C2952 0.950 . S
H2924 C2954 0.950 . S
H2925 C2955 0.950 . S
C2926 H2908 0.951 . S
C2926 C2927 1.366 . S
C2926 C2928 1.388 . S
C2927 C2926 1.366 . S
C2927 C2931 1.385 . S
C2928 H2909 0.951 . S
C2928 C2926 1.388 . S
C2928 C2929 1.366 . S
C2929 C2928 1.366 . S
C2929 C2930 1.414 . S
C2929 C2932 1.499 . S
C2930 H2910 0.950 . S
C2930 C2929 1.414 . S
C2930 C2931 1.374 . S
C2931 H2911 0.950 . S
C2931 C2927 1.385 . S
C2931 C2930 1.374 . S
C2932 C2929 1.499 . S
C2932 C2933 1.373 . S
C2932 C2934 1.389 1_554 S
C2933 H2912 0.950 . S
C2933 C2932 1.373 . S
C2933 C2949 1.377 1_565 S
C2934 C2932 1.389 1_556 S
C2934 C2935 1.524 . S
C2934 C2948 1.377 1_565 S
C2935 C2934 1.524 . S
C2935 C2936 1.397 . S
C2935 C2940 1.363 . S
C2936 H2913 0.950 . S
C2936 C2935 1.397 . S
C2936 C2937 1.334 . S
C2937 H2914 0.950 . S
C2937 C2936 1.334 . S
C2937 C2938 1.287 . S
C2938 C2937 1.287 . S
C2938 C2939 1.524 . S
C2938 H2957 0.913 . S
C2939 H2915 0.950 . S
C2939 C2938 1.524 . S
C2939 C2940 1.415 . S
C2940 H2916 0.950 . S
C2940 C2935 1.363 . S
C2940 C2939 1.415 . S
C2941 H2917 0.951 . S
C2941 C2942 1.366 . S
C2941 C2943 1.388 . S
C2942 C2941 1.366 . S
C2942 C2946 1.385 . S
C2943 H2918 0.951 . S
C2943 C2941 1.388 . S
C2943 C2944 1.366 . S
C2944 C2943 1.366 . S
C2944 C2945 1.414 . S
C2944 C2947 1.499 . S
C2945 H2919 0.950 . S
C2945 C2944 1.414 . S
C2945 C2946 1.374 . S
C2946 H2920 0.950 . S
C2946 C2942 1.385 . S
C2946 C2945 1.374 . S
C2947 C2944 1.499 . S
C2947 C2948 1.373 . S
C2947 C2949 1.389 1_556 S
C2948 H2921 0.950 . S
C2948 C2934 1.377 1_545 S
C2948 C2947 1.373 . S
C2949 C2933 1.377 1_545 S
C2949 C2947 1.389 1_554 S
C2949 C2950 1.524 . S
C2950 C2949 1.524 . S
C2950 C2951 1.397 . S
C2950 C2955 1.363 . S
C2951 H2922 0.950 . S
C2951 C2950 1.397 . S
C2951 C2952 1.334 . S
C2952 H2923 0.950 . S
C2952 C2951 1.334 . S
C2952 C2953 1.287 . S
C2953 C2952 1.287 . S
C2953 C2954 1.524 . S
C2953 H2956 0.999 . S
C2954 H2924 0.950 . S
C2954 C2953 1.524 . S
C2954 C2955 1.415 . S
C2955 H2925 0.950 . S
C2955 C2950 1.363 . S
C2955 C2954 1.415 . S
H2956 C2953 0.999 . S
H2957 C2938 0.913 . S
H2958 C2976 0.951 . S
H2959 C2978 0.951 . S
H2960 C2980 0.950 . S
H2961 C2981 0.950 . S
H2962 C2983 0.950 . S
H2963 C2986 0.950 . S
H2964 C2987 0.950 . S
H2965 C2989 0.950 . S
H2966 C2990 0.950 . S
H2967 C2991 0.951 . S
H2968 C2993 0.951 . S
H2969 C2995 0.950 . S
H2970 C2996 0.950 . S
H2971 C2998 0.950 . S
H2972 C3001 0.950 . S
H2973 C3002 0.950 . S
H2974 C3004 0.950 . S
H2975 C3005 0.950 . S
C2976 H2958 0.951 . S
C2976 C2977 1.366 . S
C2976 C2978 1.388 . S
C2977 C2976 1.366 . S
C2977 C2981 1.385 . S
C2978 H2959 0.951 . S
C2978 C2976 1.388 . S
C2978 C2979 1.366 . S
C2979 C2978 1.366 . S
C2979 C2980 1.414 . S
C2979 C2982 1.499 . S
C2980 H2960 0.950 . S
C2980 C2979 1.414 . S
C2980 C2981 1.374 . S
C2981 H2961 0.950 . S
C2981 C2977 1.385 . S
C2981 C2980 1.374 . S
C2982 C2979 1.499 . S
C2982 C2983 1.373 . S
C2982 C2984 1.389 . S
C2983 H2962 0.950 . S
C2983 C2982 1.373 . S
C2983 C2999 1.377 1_545 S
C2984 C2982 1.389 . S
C2984 C2985 1.524 . S
C2984 C2998 1.377 1_545 S
C2985 C2984 1.524 . S
C2985 C2986 1.397 . S
C2985 C2990 1.363 . S
C2986 H2963 0.950 . S
C2986 C2985 1.397 . S
C2986 C2987 1.334 . S
C2987 H2964 0.950 . S
C2987 C2986 1.334 . S
C2987 C2988 1.287 . S
C2988 C2987 1.287 . S
C2988 C2989 1.524 . S
C2988 H3007 0.913 . S
C2989 H2965 0.950 . S
C2989 C2988 1.524 . S
C2989 C2990 1.415 . S
C2990 H2966 0.950 . S
C2990 C2985 1.363 . S
C2990 C2989 1.415 . S
C2991 H2967 0.951 . S
C2991 C2992 1.366 . S
C2991 C2993 1.388 . S
C2992 C2991 1.366 . S
C2992 C2996 1.385 . S
C2993 H2968 0.951 . S
C2993 C2991 1.388 . S
C2993 C2994 1.366 . S
C2994 C2993 1.366 . S
C2994 C2995 1.414 . S
C2994 C2997 1.499 . S
C2995 H2969 0.950 . S
C2995 C2994 1.414 . S
C2995 C2996 1.374 . S
C2996 H2970 0.950 . S
C2996 C2992 1.385 . S
C2996 C2995 1.374 . S
C2997 C2994 1.499 . S
C2997 C2998 1.373 . S
C2997 C2999 1.389 . S
C2998 H2971 0.950 . S
C2998 C2984 1.377 1_565 S
C2998 C2997 1.373 . S
C2999 C2983 1.377 1_565 S
C2999 C2997 1.389 . S
C2999 C3000 1.524 . S
C3000 C2999 1.524 . S
C3000 C3001 1.397 . S
C3000 C3005 1.363 . S
C3001 H2972 0.950 . S
C3001 C3000 1.397 . S
C3001 C3002 1.334 . S
C3002 H2973 0.950 . S
C3002 C3001 1.334 . S
C3002 C3003 1.287 . S
C3003 C3002 1.287 . S
C3003 C3004 1.524 . S
C3003 H3006 0.999 . S
C3004 H2974 0.950 . S
C3004 C3003 1.524 . S
C3004 C3005 1.415 . S
C3005 H2975 0.950 . S
C3005 C3000 1.363 . S
C3005 C3004 1.415 . S
H3006 C3003 0.999 . S
H3007 C2988 0.913 . S
C1427 C57 1.514 . S
C1442 C557 1.514 . S
C1477 C145 1.514 . S
C1492 C645 1.514 . S
C1527 C401 1.514 . S
C1542 C205 1.514 . S
C1577 C497 1.514 . S
C1592 C293 1.514 . S
C1627 C1261 1.514 . S
C1642 C761 1.514 . S
C1677 C1340 1.514 . S
C1692 C841 1.514 . S
C1727 C909 1.514 . S
C1742 C1105 1.514 . S
C1777 C988 1.514 . S
C1792 C1193 1.514 . S
C1827 C20 1.376 . S
C1842 C489 1.375 . S
C1877 C108 1.377 . S
C1892 C409 1.375 . S
C1927 C225 1.376 . S
C1942 C636 1.375 . S
C1977 C548 1.375 . S
C1992 C313 1.376 . S
C2027 C1201 1.375 . S
C2042 C724 1.377 . S
C2077 C1113 1.375 . S
C2092 C821 1.377 . S
C2127 C929 1.377 . S
C2142 C1349 1.375 . S
C2177 C1252 1.375 . S
C2192 C1025 1.377 . S
C2227 C1076 1.095 . S
C2242 C29 1.095 . S
C2277 C117 1.094 . S
C2292 C1164 1.094 . S
C2327 C1289 1.095 . S
C2342 C233 1.095 . S
C2377 C1369 1.095 . S
C2392 C321 1.095 . S
C2427 C733 1.095 . S
C2442 C372 1.095 . S
C2477 C812 1.095 . S
C2492 C469 1.095 . S
C2527 C585 1.094 . S
C2542 C937 1.094 . S
C2577 C673 1.095 . S
C2592 C1017 1.095 . S
C2627 C196 1.375 . S
C2642 C49 1.376 . S
C2677 C137 1.375 . S
C2692 C284 1.376 . S
C2727 C577 1.378 . S
C2742 C381 1.378 . S
C2777 C460 1.378 . S
C2792 C665 1.378 . S
C2827 C900 1.376 . S
C2842 C753 1.375 . S
C2877 C997 1.376 . S
C2892 C849 1.376 . S
C2927 C1281 1.378 . S
C2942 C1085 1.378 . S
C2977 C1377 1.378 . S
C2992 C1173 1.377 . S
