# Generated by pormake.
# Topology lhb, (8)-cn, num edge types: 1
# Building blocks:
#     Node 0, Type 0, BuildingBlock: OLANAS_clean_sbu_2, # of connection points: 8
#     Node 1, Type 0, BuildingBlock: OLANAS_clean_sbu_2, # of connection points: 8
#     Node 2, Type 0, BuildingBlock: OLANAS_clean_sbu_2, # of connection points: 8
#     Node 3, Type 0, BuildingBlock: OLANAS_clean_sbu_2, # of connection points: 8
#     Node 4, Type 0, BuildingBlock: OLANAS_clean_sbu_2, # of connection points: 8
#     Node 5, Type 0, BuildingBlock: OLANAS_clean_sbu_2, # of connection points: 8
#     Node 6, Type 0, BuildingBlock: OLANAS_clean_sbu_2, # of connection points: 8
#     Node 7, Type 0, BuildingBlock: OLANAS_clean_sbu_2, # of connection points: 8
#     Edge 8, Type (0, 0), BuildingBlock: CIFDUS_clean_linker_0, # of connection points: 2
#     Edge 9, Type (0, 0), BuildingBlock: CIFDUS_clean_linker_0, # of connection points: 2
#     Edge 10, Type (0, 0), BuildingBlock: CIFDUS_clean_linker_0, # of connection points: 2
#     Edge 11, Type (0, 0), BuildingBlock: CIFDUS_clean_linker_0, # of connection points: 2
#     Edge 12, Type (0, 0), BuildingBlock: CIFDUS_clean_linker_0, # of connection points: 2
#     Edge 13, Type (0, 0), BuildingBlock: CIFDUS_clean_linker_0, # of connection points: 2
#     Edge 14, Type (0, 0), BuildingBlock: CIFDUS_clean_linker_0, # of connection points: 2
#     Edge 15, Type (0, 0), BuildingBlock: CIFDUS_clean_linker_0, # of connection points: 2
#     Edge 16, Type (0, 0), BuildingBlock: CIFDUS_clean_linker_0, # of connection points: 2
#     Edge 17, Type (0, 0), BuildingBlock: CIFDUS_clean_linker_0, # of connection points: 2
#     Edge 18, Type (0, 0), BuildingBlock: CIFDUS_clean_linker_0, # of connection points: 2
#     Edge 19, Type (0, 0), BuildingBlock: CIFDUS_clean_linker_0, # of connection points: 2
#     Edge 20, Type (0, 0), BuildingBlock: CIFDUS_clean_linker_0, # of connection points: 2
#     Edge 21, Type (0, 0), BuildingBlock: CIFDUS_clean_linker_0, # of connection points: 2
#     Edge 22, Type (0, 0), BuildingBlock: CIFDUS_clean_linker_0, # of connection points: 2
#     Edge 23, Type (0, 0), BuildingBlock: CIFDUS_clean_linker_0, # of connection points: 2
#     Edge 24, Type (0, 0), BuildingBlock: CIFDUS_clean_linker_0, # of connection points: 2
#     Edge 25, Type (0, 0), BuildingBlock: CIFDUS_clean_linker_0, # of connection points: 2
#     Edge 26, Type (0, 0), BuildingBlock: CIFDUS_clean_linker_0, # of connection points: 2
#     Edge 27, Type (0, 0), BuildingBlock: CIFDUS_clean_linker_0, # of connection points: 2
#     Edge 28, Type (0, 0), BuildingBlock: CIFDUS_clean_linker_0, # of connection points: 2
#     Edge 29, Type (0, 0), BuildingBlock: CIFDUS_clean_linker_0, # of connection points: 2
#     Edge 30, Type (0, 0), BuildingBlock: CIFDUS_clean_linker_0, # of connection points: 2
#     Edge 31, Type (0, 0), BuildingBlock: CIFDUS_clean_linker_0, # of connection points: 2
#     Edge 32, Type (0, 0), BuildingBlock: CIFDUS_clean_linker_0, # of connection points: 2
#     Edge 33, Type (0, 0), BuildingBlock: CIFDUS_clean_linker_0, # of connection points: 2
#     Edge 34, Type (0, 0), BuildingBlock: CIFDUS_clean_linker_0, # of connection points: 2
#     Edge 35, Type (0, 0), BuildingBlock: CIFDUS_clean_linker_0, # of connection points: 2
#     Edge 36, Type (0, 0), BuildingBlock: CIFDUS_clean_linker_0, # of connection points: 2
#     Edge 37, Type (0, 0), BuildingBlock: CIFDUS_clean_linker_0, # of connection points: 2
#     Edge 38, Type (0, 0), BuildingBlock: CIFDUS_clean_linker_0, # of connection points: 2
#     Edge 39, Type (0, 0), BuildingBlock: CIFDUS_clean_linker_0, # of connection points: 2
# Relax obj value: 0.220
# Max RMSD: 0.285
# Mean RMSD: 0.285
data_MOF--net-lhb--node1-OLANAS_clean_sbu_2--edge1-CIFDUS_clean_linker_0
_symmetry_space_group_name_H-M    P1
_symmetry_Int_Tables_number       1
_symmetry_cell_setting            triclinic
loop_
_symmetry_equiv_pos_as_xyz
'x, y, z'
_cell_length_a     27.724445
_cell_length_b     17.281323
_cell_length_c     58.961478
_cell_angle_alpha  90.096505
_cell_angle_beta   90.008662
_cell_angle_gamma 89.991449
loop_
_atom_site_label
_atom_site_type_symbol
_atom_site_fract_x
_atom_site_fract_y
_atom_site_fract_z
_atom_type_partial_charge
C0 C 0.0322 0.90197 0.01236 0.0
O1 O 0.03509 0.84806 0.02801 0.0
C2 C 0.07501 0.93302 0.00065 0.0
C3 C 0.12337 0.91088 0.00256 0.0
C4 C 0.15751 0.94809 0.98839 0.0
C5 C 0.14287 1.00533 0.97265 0.0
C6 C 0.09381 0.02401 0.9716 0.0
N7 N 0.0638 0.98842 0.98585 0.0
N8 N 0.99959 0.09219 0.00619 0.0
Co9 Co 0.99973 1.01182 0.98286 0.0
N10 N 0.93564 0.03454 0.97937 0.0
C11 C 0.86907 0.10983 -0.0099 0.0
C12 C 0.84168 0.0694 0.97362 0.0
C13 C 0.86317 1.01129 0.95998 0.0
C14 C 0.91209 0.99514 0.96336 0.0
C15 C 0.91776 0.0903 -0.00747 0.0
N16 N 0.98968 0.93417 0.95936 0.0
N17 N 0.98903 0.93258 0.00555 0.0
N18 N 0.02036 0.08848 0.9607 0.0
C19 C 0.95415 0.123 0.00803 0.0
O20 O 0.94363 0.17749 0.02281 0.0
C21 C 0.06912 0.08212 0.95736 0.0
O22 O 0.09289 0.12958 0.94402 0.0
C23 C 0.99254 0.15354 0.9527 0.0
C24 C 0.97417 0.29242 0.95234 0.0
C25 C 0.99984 0.22898 0.96143 0.0
C26 C 0.96 0.1423 0.93488 0.0
C27 C 0.93594 0.20512 0.92473 0.0
C28 C 0.94332 0.2795 0.9338 0.0
C29 C 0.94297 0.9377 0.95184 0.0
O30 O 0.92599 0.88937 0.93656 0.0
C31 C 0.02207 0.87276 0.95285 0.0
C32 C 0.05433 0.88601 0.9351 0.0
C33 C 0.07978 0.82463 0.92496 0.0
C34 C 0.07536 0.75023 0.93432 0.0
C35 C 0.04479 0.7354 0.95283 0.0
C36 C 0.01714 0.79714 0.96174 0.0
C37 C 0.94366 0.91425 0.0158 0.0
C38 C 0.90818 0.87302 0.00379 0.0
C39 C 0.86199 0.86341 0.01312 0.0
C40 C 0.85195 0.89475 0.03455 0.0
C41 C 0.88822 0.93104 0.04713 0.0
C42 C 0.93426 0.93914 0.03792 0.0
C43 C 0.03731 0.1073 0.02233 0.0
C44 C 0.11355 0.11578 0.05325 0.0
C45 C 0.06721 0.09811 0.06093 0.0
C46 C 0.02904 0.09446 0.04554 0.0
C47 C 0.08325 0.13124 0.01509 0.0
C48 C 0.12194 0.13235 0.03038 0.0
H49 H 0.13444 0.86636 0.01435 0.0
H50 H 0.19521 0.9324 -0.01044 0.0
H51 H 0.16892 0.03371 0.96182 0.0
H52 H 0.85273 0.15446 0.00046 0.0
H53 H 0.8039 0.08316 0.97138 0.0
H54 H 0.8423 0.98042 0.94737 0.0
H55 H 0.02512 0.2379 0.9752 0.0
H56 H 0.95512 0.08413 0.92857 0.0
H57 H 0.92709 0.32919 0.92567 0.0
H58 H 0.05707 0.94409 0.92839 0.0
H59 H 0.093 0.70183 0.9261 0.0
H60 H 0.99151 0.78642 0.97521 0.0
H61 H 0.91639 0.84809 0.98742 0.0
H62 H 0.81666 0.88646 0.04214 0.0
H63 H 0.96264 0.96494 0.04786 0.0
H64 H 0.14339 0.11618 0.06517 0.0
H65 H 0.99336 0.08034 0.05156 0.0
H66 H 0.08922 0.14747 -0.00233 0.0
C67 C 0.2034 0.18209 0.258 0.0
O68 O 0.19338 0.12918 0.27329 0.0
C69 C 0.16555 0.22204 0.24502 0.0
C70 C 0.11558 0.21081 0.24541 0.0
C71 C 0.087 0.25509 0.23033 0.0
C72 C 0.10858 0.30835 0.21519 0.0
C73 C 0.15883 0.31579 0.21565 0.0
N74 N 0.18353 0.27405 0.23069 0.0
N75 N 0.2529 0.3621 0.25324 0.0
Co76 Co 0.24939 0.28298 0.22973 0.0
N77 N 0.31522 0.29214 0.22827 0.0
C78 C 0.38517 0.35702 0.24014 0.0
C79 C 0.41099 0.31444 0.22357 0.0
C80 C 0.38695 0.26143 0.20914 0.0
C81 C 0.33714 0.25237 0.21186 0.0
C82 C 0.3355 0.34416 0.24198 0.0
N83 N 0.25647 0.20458 0.20618 0.0
N84 N 0.24984 0.20313 0.25289 0.0
N85 N 0.23845 0.36199 0.2068 0.0
C86 C 0.30003 0.38328 0.25657 0.0
O87 O 0.31259 0.43648 0.27141 0.0
C88 C 0.19018 0.36614 0.2019 0.0
O89 O 0.17252 0.41848 0.18802 0.0
C90 C 0.27128 0.42375 0.20148 0.0
C91 C 0.29479 0.55951 0.20504 0.0
C92 C 0.26396 0.49793 0.21057 0.0
C93 C 0.30803 0.41208 0.18564 0.0
C94 C 0.33995 0.47246 0.17993 0.0
C95 C 0.33486 0.54415 0.19108 0.0
C96 C 0.30363 0.20238 0.19914 0.0
O97 O 0.31901 0.15175 0.18412 0.0
C98 C 0.22443 0.14002 0.20274 0.0
C99 C 0.18248 0.14901 0.18983 0.0
C100 C 0.15309 0.08478 0.18444 0.0
C101 C 0.16604 1.01158 0.1931 0.0
C102 C 0.21003 1.00106 0.20433 0.0
C103 C 0.23836 0.0655 0.20957 0.0
C104 C 0.29063 0.17661 0.26563 0.0
C105 C 0.32733 0.13392 0.25507 0.0
C106 C 0.36523 0.10356 0.26786 0.0
C107 C 0.3669 0.11661 0.29125 0.0
C108 C 0.33057 0.15919 0.30194 0.0
C109 C 0.29228 0.1886 0.28918 0.0
C110 C 0.21442 0.39039 0.26726 0.0
C111 C 0.14441 0.45769 0.29525 0.0
C112 C 0.18066 0.41212 0.30485 0.0
C113 C 0.21596 0.37911 0.29087 0.0
C114 C 0.17738 0.43528 0.25786 0.0
C115 C 0.14269 0.46926 0.27181 0.0
H116 H 0.09921 0.16921 0.25674 0.0
H117 H 0.04824 0.24777 0.23026 0.0
H118 H 0.08682 0.34182 0.20354 0.0
H119 H 0.40331 0.3988 0.25084 0.0
H120 H 0.44945 0.32313 0.22175 0.0
H121 H 0.40652 0.22953 0.19629 0.0
H122 H 0.23271 0.50833 0.22098 0.0
H123 H 0.30947 0.35706 0.17691 0.0
H124 H 0.36045 0.58997 0.18772 0.0
H125 H 0.17556 0.20507 0.18242 0.0
H126 H 0.14478 0.96084 0.1891 0.0
H127 H 0.27309 0.05643 0.21737 0.0
H128 H 0.32612 0.12224 0.23717 0.0
H129 H 0.39649 0.09331 0.30117 0.0
H130 H 0.26344 0.21945 0.29758 0.0
H131 H 0.11674 0.48286 0.306 0.0
H132 H 0.2449 0.34601 0.29836 0.0
H133 H 0.17598 0.44618 0.23994 0.0
C134 C 0.71817 0.64658 0.26078 0.0
O135 O 0.71554 0.59227 0.27631 0.0
C136 C 0.67662 0.66874 0.24658 0.0
C137 C 0.62986 0.63835 0.2462 0.0
C138 C 0.59671 0.66946 0.23035 0.0
C139 C 0.61071 0.72924 0.2153 0.0
C140 C 0.65815 0.75638 0.21661 0.0
N141 N 0.68735 0.7253 0.23209 0.0
N142 N 0.73619 0.83973 0.25574 0.0
Co143 Co 0.74934 0.76212 0.23285 0.0
N144 N 0.81133 0.79899 0.23336 0.0
C145 C 0.86729 0.88669 0.2485 0.0
C146 C 0.90196 0.85517 0.23342 0.0
C147 C 0.88946 0.79497 0.21816 0.0
C148 C 0.84195 0.76774 0.21851 0.0
C149 C 0.82058 0.85613 0.24793 0.0
N150 N 0.77216 0.6907 0.21003 0.0
N151 N 0.76007 0.68566 0.25634 0.0
N152 N 0.72892 0.83243 0.20937 0.0
C153 C 0.7776 0.87892 0.26108 0.0
O154 O 0.77852 0.93438 0.27636 0.0
C155 C 0.68201 0.818 0.20345 0.0
O156 O 0.65882 0.86054 0.18855 0.0
C157 C 0.75532 0.89864 0.2019 0.0
C158 C 0.77065 0.03712 0.20376 0.0
C159 C 0.74735 0.97089 0.212 0.0
C160 C 0.78722 0.8919 0.1837 0.0
C161 C 0.811 0.95742 0.1753 0.0
C162 C 0.80301 0.02962 0.18555 0.0
C163 C 0.81951 0.70538 0.20502 0.0
O164 O 0.84424 0.66224 0.19079 0.0
C165 C 0.74689 0.6234 0.20243 0.0
C166 C 0.71469 0.62885 0.18428 0.0
C167 C 0.69104 0.56263 0.17613 0.0
C168 C 0.6996 0.49113 0.18665 0.0
C169 C 0.73277 0.48471 0.20455 0.0
C170 C 0.75595 0.55152 0.21251 0.0
C171 C 0.80379 0.67544 0.26887 0.0
C172 C 0.84456 0.64366 0.25829 0.0
C173 C 0.88872 0.64113 0.26971 0.0
C174 C 0.89143 0.66809 0.29207 0.0
C175 C 0.85037 0.69583 0.30314 0.0
C176 C 0.80642 0.69917 0.29159 0.0
C177 C 0.69094 0.85201 0.26681 0.0
C178 C 0.60135 0.86866 0.2879 0.0
C179 C 0.64013 0.83739 0.29992 0.0
C180 C 0.685 0.82951 0.28944 0.0
C181 C 0.65256 0.88717 0.25521 0.0
C182 C 0.60756 0.89515 0.26567 0.0
H183 H 0.61928 0.59234 0.2576 0.0
H184 H 0.56026 0.64718 0.22969 0.0
H185 H 0.58542 0.75302 0.20319 0.0
H186 H 0.8767 0.93312 0.26001 0.0
H187 H 0.93842 0.8775 0.23352 0.0
H188 H 0.9159 0.77088 0.20665 0.0
H189 H 0.72229 0.97593 0.22593 0.0
H190 H 0.7915 0.83631 0.17541 0.0
H191 H 0.81991 0.08064 0.17842 0.0
H192 H 0.70989 0.68409 0.17592 0.0
H193 H 0.68241 0.43957 0.17997 0.0
H194 H 0.78164 0.54735 0.22624 0.0
H195 H 0.84231 0.62143 0.24124 0.0
H196 H 0.92528 0.6647 0.30127 0.0
H197 H 0.77472 0.72061 0.30016 0.0
H198 H 0.56699 0.87673 0.2964 0.0
H199 H 0.71507 0.80634 0.29885 0.0
H200 H 0.65746 0.90901 0.23826 0.0
C201 C 0.05126 0.38215 0.50914 0.0
O202 O 0.05601 0.32796 0.5246 0.0
C203 C 0.0915 0.40683 0.49447 0.0
C204 C 0.13858 0.37801 0.49318 0.0
C205 C 0.16972 0.40962 0.47653 0.0
C206 C 0.15338 0.46805 0.46154 0.0
C207 C 0.10573 0.49354 0.46377 0.0
N208 N 0.07867 0.46271 0.48013 0.0
N209 N 0.02674 0.57356 0.50404 0.0
Co210 Co 0.01565 0.49432 0.48125 0.0
N211 N 0.95252 0.52563 0.48206 0.0
C212 C 0.89391 0.60822 0.49743 0.0
C213 C 0.85995 0.57297 0.48271 0.0
C214 C 0.87413 0.51354 0.46753 0.0
C215 C 0.92258 0.49092 0.46756 0.0
C216 C 0.94165 0.58216 0.49658 0.0
N217 N 0.99479 0.42036 0.45867 0.0
N218 N 0.00809 0.41798 0.50502 0.0
N219 N 0.03283 0.56535 0.45735 0.0
C220 C 0.98406 0.60911 0.50945 0.0
O221 O 0.98142 0.66481 0.52461 0.0
C222 C 0.07951 0.55288 0.45067 0.0
O223 O 0.1009 0.59667 0.43548 0.0
C224 C 0.00577 0.63265 0.45128 0.0
C225 C 0.99203 0.77109 0.45481 0.0
C226 C 0.01645 0.70391 0.46137 0.0
C227 C 0.97019 0.62801 0.43455 0.0
C228 C 0.94465 0.69452 0.4279 0.0
C229 C 0.9551 0.76544 0.43857 0.0
C230 C 0.9468 0.43043 0.45404 0.0
O231 O 0.92313 0.3845 0.44016 0.0
C232 C 0.02189 0.35466 0.45115 0.0
C233 C 0.05185 0.36028 0.43215 0.0
C234 C 0.07674 0.29489 0.424 0.0
C235 C 0.07069 0.2238 0.43526 0.0
C236 C 0.03902 0.21702 0.45378 0.0
C237 C 0.01592 0.28346 0.46197 0.0
C238 C 0.96512 0.40386 0.51784 0.0
C239 C 0.9261 0.36496 0.50784 0.0
C240 C 0.88353 0.35375 0.52002 0.0
C241 C 0.88025 0.37982 0.54241 0.0
C242 C 0.91938 0.41661 0.55276 0.0
C243 C 0.96188 0.4288 0.54047 0.0
C244 C 0.07147 0.58938 0.51533 0.0
C245 C 0.15941 0.61749 0.53707 0.0
C246 C 0.12018 0.58979 0.54959 0.0
C247 C 0.07606 0.57631 0.53872 0.0
C248 C 0.11032 0.62096 0.50327 0.0
C249 C 0.15428 0.63493 0.51405 0.0
H250 H 0.15079 0.33246 0.50437 0.0
H251 H 0.20633 0.38845 0.47513 0.0
H252 H 0.17701 0.49181 0.44871 0.0
H253 H 0.88316 0.65397 0.50893 0.0
H254 H 0.82272 0.59176 0.48304 0.0
H255 H 0.84822 0.48656 0.4563 0.0
H256 H 0.04448 0.70754 0.474 0.0
H257 H 0.96425 0.57319 0.42608 0.0
H258 H 0.93642 0.81729 0.43318 0.0
H259 H 0.05392 0.41499 0.42328 0.0
H260 H 0.08855 0.17262 0.42879 0.0
H261 H 0.99205 0.27924 0.47637 0.0
H262 H 0.92849 0.34342 0.49071 0.0
H263 H 0.84727 0.37044 0.55194 0.0
H264 H 0.99222 0.457 0.54845 0.0
H265 H 0.19312 0.63051 0.54562 0.0
H266 H 0.04556 0.55587 0.54841 0.0
H267 H 0.10645 0.63685 0.48574 0.0
C268 C 0.21871 0.64744 0.75612 0.0
O269 O 0.21011 0.59255 0.77099 0.0
C270 C 0.18291 0.67121 0.73904 0.0
C271 C 0.13791 0.63873 0.73406 0.0
C272 C 0.11192 0.66886 0.71536 0.0
C273 C 0.13137 0.72924 0.70196 0.0
C274 C 0.17672 0.75838 0.70791 0.0
N275 N 0.19858 0.72933 0.72617 0.0
N276 N 0.2422 0.84075 0.75369 0.0
Co277 Co 0.26035 0.76298 0.7314 0.0
N278 N 0.3223 0.79663 0.73601 0.0
C279 C 0.37501 0.88186 0.75458 0.0
C280 C 0.4129 0.85023 0.74138 0.0
C281 C 0.40364 0.79161 0.72513 0.0
C282 C 0.35606 0.76603 0.72261 0.0
C283 C 0.32846 0.8527 0.75126 0.0
N284 N 0.28838 0.69059 0.71003 0.0
N285 N 0.26206 0.68537 0.75512 0.0
N286 N 0.249 0.83463 0.70688 0.0
C287 C 0.28274 0.87703 0.76178 0.0
O288 O 0.28061 0.93353 0.77671 0.0
C289 C 0.20562 0.81906 0.69676 0.0
O290 O 0.18856 0.86153 0.68011 0.0
C291 C 0.27676 0.90249 0.70216 0.0
C292 C 0.29184 0.03987 0.7083 0.0
C293 C 0.26805 0.97116 0.71421 0.0
C294 C 0.30867 0.90257 0.68384 0.0
C295 C 0.33166 0.97126 0.67731 0.0
C296 C 0.32439 0.03883 0.69006 0.0
C297 C 0.33674 0.70473 0.70774 0.0
O298 O 0.3649 0.66001 0.69547 0.0
C299 C 0.26645 0.61981 0.70273 0.0
C300 C 0.24041 0.61763 0.68239 0.0
C301 C 0.22218 0.54718 0.67427 0.0
C302 C 0.22844 0.47982 0.68709 0.0
C303 C 0.25487 0.48101 0.70737 0.0
C304 C 0.27415 0.55137 0.71503 0.0
C305 C 0.29907 0.67738 0.77186 0.0
C306 C 0.34572 0.65446 0.76549 0.0
C307 C 0.38338 0.6556 0.7813 0.0
C308 C 0.3731 0.67433 0.80391 0.0
C309 C 0.3261 0.69273 0.81064 0.0
C310 C 0.28912 0.69523 0.7946 0.0
C311 C 0.19455 0.85729 0.76185 0.0
C312 C 0.10232 0.89149 0.77791 0.0
C313 C 0.13858 0.87194 0.79352 0.0
C314 C 0.18444 0.8522 0.78517 0.0
C315 C 0.15935 0.88645 0.74705 0.0
C316 C 0.11294 0.90222 0.75495 0.0
H317 H 0.12365 0.59119 0.74393 0.0
H318 H 0.07708 0.64472 0.71106 0.0
H319 H 0.11193 0.7514 0.68744 0.0
H320 H 0.38192 0.92746 0.76676 0.0
H321 H 0.44932 0.87133 0.74366 0.0
H322 H 0.43255 0.76736 0.71504 0.0
H323 H 0.24141 0.97195 0.72758 0.0
H324 H 0.31264 0.85047 0.67375 0.0
H325 H 0.3409 0.09233 0.68443 0.0
H326 H 0.23692 0.66977 0.67234 0.0
H327 H 0.21553 0.42516 0.68035 0.0
H328 H 0.2959 0.55266 0.73026 0.0
H329 H 0.35298 0.63704 0.74826 0.0
H330 H 0.40169 0.67341 0.81648 0.0
H331 H 0.25299 0.71163 0.79968 0.0
H332 H 0.06616 0.90436 0.78381 0.0
H333 H 0.2131 0.83644 0.79672 0.0
H334 H 0.16823 0.90016 0.72975 0.0
C335 C 0.71097 0.15768 0.76191 0.0
O336 O 0.70762 0.1002 0.7764 0.0
C337 C 0.66849 0.18994 0.75018 0.0
C338 C 0.62019 0.16689 0.75146 0.0
C339 C 0.58644 0.20455 0.7372 0.0
C340 C 0.60136 0.26328 0.722 0.0
C341 C 0.65024 0.28322 0.72169 0.0
N342 N 0.68002 0.24642 0.7358 0.0
N343 N 0.74399 0.34707 0.75688 0.0
Co344 Co 0.74425 0.26912 0.73305 0.0
N345 N 0.80845 0.29185 0.72999 0.0
C346 C 0.87503 0.36495 0.74193 0.0
C347 C 0.90258 0.32682 0.72504 0.0
C348 C 0.88112 0.27119 0.71054 0.0
C349 C 0.832 0.25544 0.71339 0.0
C350 C 0.82629 0.34524 0.74398 0.0
N351 N 0.7546 0.19442 0.70884 0.0
N352 N 0.75447 0.18867 0.75568 0.0
N353 N 0.72408 0.34621 0.71099 0.0
C354 C 0.78954 0.3765 0.75955 0.0
O355 O 0.79942 0.43079 0.7745 0.0
C356 C 0.67537 0.34082 0.70749 0.0
O357 O 0.65219 0.38782 0.69378 0.0
C358 C 0.75325 0.40826 0.70231 0.0
C359 C 0.77564 0.54511 0.70159 0.0
C360 C 0.74709 0.48447 0.71022 0.0
C361 C 0.78606 0.39354 0.68483 0.0
C362 C 0.81625 0.45235 0.67652 0.0
C363 C 0.81234 0.52681 0.68596 0.0
C364 C 0.80095 0.20046 0.70093 0.0
O365 O 0.81789 0.15468 0.68498 0.0
C366 C 0.7227 0.13265 0.70232 0.0
C367 C 0.6858 0.14741 0.68672 0.0
C368 C 0.65825 0.08654 0.6776 0.0
C369 C 0.66701 1.01072 0.68512 0.0
C370 C 0.70611 0.99433 0.69935 0.0
C371 C 0.73315 0.05562 0.70838 0.0
C372 C 0.79993 0.16259 0.76459 0.0
C373 C 0.8332 0.12563 0.7503 0.0
C374 C 0.87852 0.10448 0.75828 0.0
C375 C 0.88961 0.11539 0.78112 0.0
C376 C 0.85464 0.14194 0.79651 0.0
C377 C 0.81015 0.16862 0.78795 0.0
C378 C 0.70406 0.3703 0.77083 0.0
C379 C 0.62994 0.42565 0.79869 0.0
C380 C 0.66796 0.38385 0.80822 0.0
C381 C 0.70499 0.35561 0.7943 0.0
C382 C 0.66551 0.4125 0.7615 0.0
C383 C 0.62821 0.4395 0.77538 0.0
H384 H 0.60895 0.12105 0.76277 0.0
H385 H 0.54886 0.18778 0.73777 0.0
H386 H 0.57569 0.29152 0.71094 0.0
H387 H 0.89129 0.40799 0.75288 0.0
H388 H 0.94045 0.34051 0.72314 0.0
H389 H 0.90216 0.24194 0.69766 0.0
H390 H 0.71893 0.49662 0.72237 0.0
H391 H 0.78649 0.33661 0.67722 0.0
H392 H 0.83671 0.57181 0.68037 0.0
H393 H 0.68171 0.20558 0.68023 0.0
H394 H 0.64689 0.96287 0.67789 0.0
H395 H 0.76433 0.04268 0.71865 0.0
H396 H 0.82405 0.11154 0.73315 0.0
H397 H 0.92501 0.09814 0.78708 0.0
H398 H 0.78293 0.19145 0.7993 0.0
H399 H 0.60067 0.44565 0.80944 0.0
H400 H 0.73439 0.32269 0.8016 0.0
H401 H 0.66487 0.42642 0.74373 0.0
C402 C 0.51612 0.95935 0.50797 0.0
O403 O 0.51653 0.90541 0.52366 0.0
C404 C 0.55986 0.98231 0.49544 0.0
C405 C 0.60684 0.95329 0.49704 0.0
C406 C 0.6424 0.98495 0.48249 0.0
C407 C 0.63052 0.04382 0.46675 0.0
C408 C 0.5827 0.06958 0.46606 0.0
N409 N 0.5512 0.03822 0.48044 0.0
N410 N 0.49726 0.15165 0.5021 0.0
Co411 Co 0.48901 0.07365 0.47874 0.0
N412 N 0.42688 0.10917 0.47671 0.0
C413 C 0.36804 0.19719 0.489 0.0
C414 C 0.33679 0.1656 0.47235 0.0
C415 C 0.35248 0.10522 0.45782 0.0
C416 C 0.39964 0.07792 0.46046 0.0
C417 C 0.41459 0.16653 0.49071 0.0
N418 N 0.47112 1.00146 0.45517 0.0
N419 N 0.47471 0.99705 0.50173 0.0
N420 N 0.51294 0.1445 0.45608 0.0
C421 C 0.45468 0.18996 0.50568 0.0
O422 O 0.45035 0.24501 0.52095 0.0
C423 C 0.5608 0.13079 0.45199 0.0
O424 O 0.58638 0.1745 0.4383 0.0
C425 C 0.488 0.21204 0.44842 0.0
C426 C 0.47051 0.34949 0.45211 0.0
C427 C 0.49413 0.28263 0.4597 0.0
C428 C 0.45819 0.20775 0.42939 0.0
C429 C 0.43346 0.27364 0.42164 0.0
C430 C 0.43922 0.34393 0.4334 0.0
C431 C 0.42494 1.01571 0.44806 0.0
O432 O 0.40308 0.97149 0.43309 0.0
C433 C 0.497 0.93224 0.44974 0.0
C434 C 0.53177 0.93331 0.43261 0.0
C435 C 0.55591 0.86504 0.42644 0.0
C436 C 0.5459 0.79645 0.43825 0.0
C437 C 0.51007 0.79412 0.45506 0.0
C438 C 0.48598 0.86269 0.46082 0.0
C439 C 0.42917 0.98679 0.51274 0.0
C440 C 0.38975 0.95609 0.50087 0.0
C441 C 0.34468 0.94983 0.51137 0.0
C442 C 0.33914 0.97504 0.53381 0.0
C443 C 0.37901 1.00141 0.54614 0.0
C444 C 0.42406 1.00611 0.53566 0.0
C445 C 0.53973 0.1629 0.5155 0.0
C446 C 0.62554 0.16908 0.54029 0.0
C447 C 0.58364 0.14042 0.55042 0.0
C448 C 0.5406 0.13836 0.53813 0.0
C449 C 0.58129 0.19519 0.50582 0.0
C450 C 0.62439 0.1977 0.51811 0.0
H451 H 0.61582 0.90797 0.50896 0.0
H452 H 0.6791 0.96385 0.4834 0.0
H453 H 0.65767 0.06815 0.45567 0.0
H454 H 0.35626 0.24393 0.4999 0.0
H455 H 0.30055 0.18811 0.47065 0.0
H456 H 0.32869 0.08122 0.44507 0.0
H457 H 0.51781 0.28576 0.47421 0.0
H458 H 0.45583 0.15339 0.4203 0.0
H459 H 0.4212 0.39536 0.42725 0.0
H460 H 0.53796 0.98652 0.42336 0.0
H461 H 0.56375 0.74342 0.43314 0.0
H462 H 0.45817 0.86154 0.47363 0.0
H463 H 0.39406 0.93493 0.48379 0.0
H464 H 0.30469 0.96802 0.5423 0.0
H465 H 0.45503 0.02407 0.54538 0.0
H466 H 0.65884 0.17102 0.54995 0.0
H467 H 0.5083 0.11653 0.546 0.0
H468 H 0.58057 0.21753 0.48876 0.0
C469 C 0.54016 0.37415 0.0077 0.0
O470 O 0.55263 0.31727 0.02127 0.0
C471 C 0.57462 0.41011 -0.00812 0.0
C472 C 0.62318 0.39227 0.98809 0.0
C473 C 0.6481 0.43445 0.97116 0.0
C474 C 0.62433 0.49244 0.9584 0.0
C475 C 0.57564 0.50664 0.96306 0.0
N476 N 0.55457 0.46589 0.9795 0.0
N477 N 0.50066 0.56102 0.00763 0.0
Co478 Co 0.49033 0.48422 0.9842 0.0
N479 N 0.42595 0.50315 0.98823 0.0
C480 C 0.36667 0.58363 0.00407 0.0
C481 C 0.33314 0.54963 -0.0111 0.0
C482 C 0.34799 0.49278 0.97303 0.0
C483 C 0.39658 0.47093 0.97296 0.0
C484 C 0.41461 0.55856 0.00308 0.0
N485 N 0.47042 0.40902 0.96133 0.0
N486 N 0.49382 0.40191 0.00671 0.0
N487 N 0.49707 0.5655 0.96141 0.0
C488 C 0.45731 0.58983 0.01487 0.0
O489 O 0.45423 0.64323 0.03071 0.0
C490 C 0.54287 0.56395 0.95272 0.0
O491 O 0.55797 0.61544 0.93795 0.0
C492 C 0.46438 0.62939 0.95768 0.0
C493 C 0.43997 0.76516 0.96344 0.0
C494 C 0.47156 0.70265 0.96806 0.0
C495 C 0.42741 0.6205 0.94181 0.0
C496 C 0.3961 0.68195 0.93667 0.0
C497 C 0.40137 0.75223 0.94841 0.0
C498 C 0.42177 0.41594 0.95779 0.0
O499 O 0.39826 0.36961 0.94396 0.0
C500 C 0.49774 0.34227 0.95392 0.0
C501 C 0.52756 0.34889 0.93484 0.0
C502 C 0.55195 0.28397 0.92622 0.0
C503 C 0.548 0.21294 0.93749 0.0
C504 C 0.51826 0.20365 0.95656 0.0
C505 C 0.49246 0.26896 0.96455 0.0
C506 C 0.45629 0.37591 0.02173 0.0
C507 C 0.41363 0.3432 0.01312 0.0
C508 C 0.37832 0.31448 0.02781 0.0
C509 C 0.38605 0.31694 0.05123 0.0
C510 C 0.42817 0.34972 0.06011 0.0
C511 C 0.46322 0.37913 0.04535 0.0
C512 C 0.54605 0.57946 0.01787 0.0
C513 C 0.637 0.60463 0.03692 0.0
C514 C 0.60138 0.56654 0.04942 0.0
C515 C 0.55584 0.55432 0.03995 0.0
C516 C 0.58103 0.62168 0.00587 0.0
C517 C 0.62686 0.63369 0.01528 0.0
H518 H 0.64118 0.3474 -0.00233 0.0
H519 H 0.68571 0.42201 0.96787 0.0
H520 H 0.64331 0.52458 0.94544 0.0
H521 H 0.35568 0.62895 0.01566 0.0
H522 H 0.29587 0.56819 -0.0108 0.0
H523 H 0.32259 0.46792 0.96114 0.0
H524 H 0.50164 0.71101 0.97946 0.0
H525 H 0.42524 0.56647 0.93255 0.0
H526 H 0.37708 0.79933 0.94448 0.0
H527 H 0.52967 0.40386 0.92609 0.0
H528 H 0.56684 0.16323 0.9306 0.0
H529 H 0.46866 0.26275 0.97892 0.0
H530 H 0.40812 0.33752 -0.00485 0.0
H531 H 0.35811 0.29652 0.06264 0.0
H532 H 0.49587 0.40406 0.05223 0.0
H533 H 0.67193 0.61545 0.04462 0.0
H534 H 0.52815 0.52538 0.04966 0.0
H535 H 0.57278 0.64547 -0.01059 0.0
H536 H 0.04826 0.19209 0.09655 0.0
H537 H 0.07687 0.95527 0.07815 0.0
H538 H 0.09806 0.92521 0.11739 0.0
H539 H 0.12671 0.97446 0.1533 0.0
H540 H 0.09567 0.21027 0.17328 0.0
H541 H 0.05703 0.23269 0.13673 0.0
C542 C 0.05705 0.13331 0.10149 0.0
C543 C 0.0614 0.07581 0.08477 0.0
C544 C 0.07016 0.11701 0.12399 0.0
C545 C 0.0732 0.99992 0.09098 0.0
C546 C 0.0858 0.9831 0.1133 0.0
C547 C 0.10978 0.03004 0.15048 0.0
C548 C 0.11619 0.09144 0.166 0.0
C549 C 0.08714 0.04236 0.12958 0.0
C550 C 0.09352 0.1627 0.16136 0.0
C551 C 0.07106 0.17558 0.14047 0.0
H552 H 0.92033 0.86614 0.08573 0.0
H553 H 0.83181 0.05085 0.05988 0.0
H554 H 0.80466 0.08198 0.09837 0.0
H555 H 0.79907 0.04643 0.13837 0.0
H556 H 0.88217 0.85481 0.1641 0.0
H557 H 0.9189 0.83611 0.12665 0.0
C558 C 0.89588 0.91409 0.08875 0.0
C559 C 0.87796 0.95659 0.07035 0.0
C560 C 0.87925 0.92956 0.11075 0.0
C561 C 0.84586 0.01792 0.07404 0.0
C562 C 0.83032 0.03536 0.09594 0.0
C563 C 0.82612 1.00183 0.13589 0.0
C564 C 0.83819 0.9522 0.15384 0.0
C565 C 0.84575 0.99018 0.1143 0.0
C566 C 0.87242 0.89346 0.15039 0.0
C567 C 0.89328 0.8828 0.12904 0.0
H568 H 0.13298 0.41358 0.40838 0.0
H569 H 0.08171 0.18538 0.39038 0.0
H570 H 0.11895 0.19645 0.35332 0.0
H571 H 0.15551 0.27754 0.32391 0.0
H572 H 0.19728 0.51126 0.3398 0.0
H573 H 0.17449 0.49187 0.37959 0.0
C574 C 0.13002 0.36617 0.39639 0.0
C575 C 0.10433 0.29889 0.40234 0.0
C576 C 0.14972 0.37413 0.37456 0.0
C577 C 0.10183 0.23747 0.38663 0.0
C578 C 0.12274 0.24394 0.36522 0.0
C579 C 0.16088 0.32318 0.33633 0.0
C580 C 0.17835 0.39525 0.32927 0.0
C581 C 0.14547 0.31275 0.35877 0.0
C582 C 0.18431 0.45504 0.34515 0.0
C583 C 0.17089 0.44412 0.36777 0.0
H584 H 0.82788 0.61063 0.33981 0.0
H585 H 0.8863 0.83021 0.31906 0.0
H586 H 0.91586 0.85399 0.35756 0.0
H587 H 0.93693 0.80184 0.39452 0.0
H588 H 0.88041 0.58062 0.41573 0.0
H589 H 0.8385 0.56721 0.37943 0.0
C590 C 0.84554 0.66475 0.34408 0.0
C591 C 0.85481 0.71909 0.32698 0.0
C592 C 0.86378 0.67658 0.36602 0.0
C593 C 0.87852 0.7884 0.33224 0.0
C594 C 0.89578 0.80145 0.35411 0.0
C595 C 0.91412 0.75182 0.39167 0.0
C596 C 0.91228 0.69196 0.40781 0.0
C597 C 0.89037 0.74446 0.37084 0.0
C598 C 0.88325 0.62687 0.40343 0.0
C599 C 0.8591 0.61932 0.38272 0.0
H600 H 0.18204 0.49474 0.57058 0.0
H601 H 0.07189 0.66496 0.58327 0.0
H602 H 0.09259 0.66612 0.62378 0.0
H603 H 0.14755 0.62612 0.6549 0.0
H604 H 0.25641 0.45376 0.64142 0.0
H605 H 0.23091 0.44576 0.60192 0.0
C606 C 0.16208 0.53085 0.58238 0.0
C607 C 0.12575 0.57971 0.57423 0.0
C608 C 0.1744 0.53147 0.60538 0.0
C609 C 0.09982 0.62647 0.58942 0.0
C610 C 0.11195 0.62764 0.61246 0.0
C611 C 0.16524 0.58662 0.64325 0.0
C612 C 0.20377 0.54078 0.65087 0.0
C613 C 0.15006 0.58176 0.62053 0.0
C614 C 0.22645 0.48924 0.63583 0.0
C615 C 0.21201 0.48473 0.61327 0.0
H616 H 0.83872 0.55314 0.64236 0.0
H617 H 0.86466 0.31883 0.66484 0.0
H618 H 0.90515 0.28995 0.62922 0.0
H619 H 0.92409 0.32686 0.58986 0.0
H620 H 0.89984 0.56107 0.56789 0.0
H621 H 0.86953 0.59556 0.60564 0.0
C622 C 0.85457 0.49638 0.63999 0.0
C623 C 0.84789 0.4381 0.65643 0.0
C624 C 0.87825 0.48024 0.6195 0.0
C625 C 0.86812 0.36457 0.65248 0.0
C626 C 0.89159 0.34798 0.63209 0.0
C627 C 0.91361 0.38595 0.5937 0.0
C628 C 0.91421 0.44172 0.57645 0.0
C629 C 0.89554 0.40468 0.61524 0.0
C630 C 0.90005 0.51786 0.58119 0.0
C631 C 0.88231 0.53716 0.60263 0.0
H632 H 0.17656 0.78656 0.82885 0.0
H633 H 0.08066 0.978 0.81458 0.0
H634 H 0.05625 0.98241 0.85389 0.0
H635 H 0.05573 0.92477 0.89112 0.0
H636 H 0.15975 0.7475 0.90797 0.0
H637 H 0.18783 0.74619 0.86874 0.0
C638 C 0.15096 0.83016 0.83432 0.0
C639 C 0.12878 0.87909 0.8183 0.0
C640 C 0.13831 0.83504 0.8574 0.0
C641 C 0.09632 0.93613 0.82606 0.0
C642 C 0.08276 0.93977 0.84871 0.0
C643 C 0.08574 0.8875 0.88673 0.0
C644 C 0.10455 0.83504 0.90266 0.0
C645 C 0.10259 0.88827 0.86438 0.0
C646 C 0.14312 0.78679 0.89602 0.0
C647 C 0.15947 0.78617 0.87356 0.0
H648 H 0.8268 0.24028 0.83115 0.0
H649 H 0.90372 0.0271 0.81815 0.0
H650 H 0.93415 0.02656 0.85659 0.0
H651 H 0.94692 0.09367 0.89195 0.0
H652 H 0.85934 0.29317 0.90855 0.0
H653 H 0.82538 0.29146 0.8705 0.0
C654 C 0.84941 0.19293 0.83681 0.0
C655 C 0.86501 0.1363 0.82125 0.0
C656 C 0.86556 0.19084 0.85947 0.0
C657 C 0.89335 0.07427 0.82924 0.0
C658 C 0.91044 0.07317 0.85138 0.0
C659 C 0.91922 0.13559 0.88793 0.0
C660 C 0.90747 0.1951 0.90329 0.0
C661 C 0.89806 0.13249 0.8664 0.0
C662 C 0.8714 0.24863 0.89695 0.0
C663 C 0.85133 0.24735 0.87517 0.0
H664 H 0.6528 0.99416 0.64048 0.0
H665 H 0.59901 0.20996 0.66756 0.0
H666 H 0.5648 0.24198 0.63045 0.0
H667 H 0.56021 0.21545 0.58914 0.0
H668 H 0.61554 1.00013 0.56303 0.0
H669 H 0.63766 0.95931 0.60135 0.0
C670 C 0.63198 0.04691 0.63872 0.0
C671 C 0.62869 0.09966 0.65689 0.0
C672 C 0.61287 0.065 0.61745 0.0
C673 C 0.60266 0.16874 0.65381 0.0
C674 C 0.58305 0.18703 0.63261 0.0
C675 C 0.57583 0.1588 0.59211 0.0
C676 C 0.58637 0.11041 0.57363 0.0
C677 C 0.58943 0.13673 0.61412 0.0
C678 C 0.6071 0.0376 0.57725 0.0
C679 C 0.61995 1.01468 0.59906 0.0
H680 H 0.42049 0.92228 0.58025 0.0
H681 H 0.32486 0.11265 0.56601 0.0
H682 H 0.30707 0.12662 0.6065 0.0
H683 H 0.31135 0.07465 0.64483 0.0
H684 H 0.40098 0.87671 0.6591 0.0
H685 H 0.42895 0.8753 0.61959 0.0
C686 C 0.39658 0.96769 0.58622 0.0
C687 C 0.37397 1.0167 0.57051 0.0
C688 C 0.38525 0.97325 0.60934 0.0
C689 C 0.34249 0.07468 0.57805 0.0
C690 C 0.3323 0.08239 0.60108 0.0
C691 C 0.33803 0.03252 0.63944 0.0
C692 C 0.35453 0.97625 0.65476 0.0
C693 C 0.35245 0.03065 0.61674 0.0
C694 C 0.38801 0.92058 0.64749 0.0
C695 C 0.40382 0.91974 0.62497 0.0
H696 H 0.61505 0.39424 0.911 0.0
H697 H 0.54545 0.18055 0.89168 0.0
H698 H 0.58406 0.18508 0.85472 0.0
H699 H 0.63007 0.25644 0.8263 0.0
H700 H 0.69455 0.47498 0.84367 0.0
H701 H 0.66665 0.46153 0.88299 0.0
C702 C 0.60862 0.34867 0.89869 0.0
C703 C 0.57759 0.28707 0.90415 0.0
C704 C 0.63041 0.35218 0.87716 0.0
C705 C 0.56975 0.22805 0.88808 0.0
C706 C 0.59166 0.23064 0.86687 0.0
C707 C 0.63942 0.29947 0.83899 0.0
C708 C 0.66497 0.36562 0.8325 0.0
C709 C 0.62134 0.29296 0.86109 0.0
C710 C 0.67578 0.42273 0.84866 0.0
C711 C 0.65922 0.41554 0.87097 0.0
H712 H 0.37402 0.797 0.9068 0.0
H713 H 0.34543 0.55568 0.92062 0.0
H714 H 0.31087 0.54096 0.88276 0.0
H715 H 0.3043 0.59145 0.84365 0.0
H716 H 0.33292 0.83226 0.8308 0.0
H717 H 0.34945 0.85368 0.87108 0.0
C718 C 0.35841 0.74172 0.90219 0.0
C719 C 0.36367 0.67703 0.91652 0.0
C720 C 0.33847 0.73375 0.88052 0.0
C721 C 0.34351 0.60594 0.9097 0.0
C722 C 0.32344 0.59752 0.88809 0.0
C723 C 0.31207 0.64911 0.84999 0.0
C724 C 0.3176 0.71038 0.83462 0.0
C725 C 0.32303 0.66016 0.87299 0.0
C726 C 0.32824 0.7848 0.84259 0.0
C727 C 0.33824 0.79665 0.8655 0.0
H728 H 0.5762 0.6441 0.08711 0.0
H729 H 0.65211 0.44209 0.06348 0.0
H730 H 0.68285 0.41831 0.10182 0.0
H731 H 0.69576 0.46441 0.1405 0.0
H732 H 0.62331 0.67038 0.16408 0.0
H733 H 0.58355 0.68399 0.1272 0.0
C734 C 0.5985 0.59394 0.09065 0.0
C735 C 0.61183 0.54431 0.07289 0.0
C736 C 0.61714 0.58237 0.1125 0.0
C737 C 0.64133 0.48022 0.07719 0.0
C738 C 0.65905 0.46711 0.09898 0.0
C739 C 0.6703 0.51116 0.1378 0.0
C740 C 0.66241 0.56632 0.15496 0.0
C741 C 0.6483 0.51909 0.11657 0.0
C742 C 0.6302 0.62761 0.15102 0.0
C743 C 0.60744 0.63527 0.13 0.0
H744 H 0.38547 0.34203 0.16359 0.0
H745 H 0.36745 0.58641 0.15002 0.0
H746 H 0.40559 0.57085 0.11352 0.0
H747 H 0.42791 0.48521 0.08219 0.0
H748 H 0.43256 0.23898 0.09283 0.0
H749 H 0.41537 0.25744 0.13327 0.0
C750 C 0.3899 0.39211 0.15276 0.0
C751 C 0.37254 0.46499 0.15981 0.0
C752 C 0.40896 0.38216 0.13087 0.0
C753 C 0.38057 0.5294 0.14561 0.0
C754 C 0.40193 0.52059 0.12437 0.0
C755 C 0.42677 0.43603 0.09361 0.0
C756 C 0.43157 0.36107 0.08482 0.0
C757 C 0.41404 0.44686 0.11641 0.0
C758 C 0.42918 0.29724 0.09947 0.0
C759 C 0.41897 0.30782 0.12248 0.0
H760 H 0.55326 0.75562 0.39374 0.0
H761 H 0.62353 0.96983 0.41189 0.0
H762 H 0.66267 0.9736 0.37464 0.0
H763 H 0.66837 0.92363 0.33544 0.0
H764 H 0.5943 0.71335 0.31741 0.0
H765 H 0.56636 0.69837 0.35656 0.0
C766 C 0.57833 0.80196 0.3899 0.0
C767 C 0.58549 0.86243 0.40554 0.0
C768 C 0.59996 0.80416 0.36851 0.0
C769 C 0.61711 0.92305 0.40001 0.0
C770 C 0.63953 0.9251 0.37878 0.0
C771 C 0.64735 0.87349 0.34042 0.0
C772 C 0.63349 0.81915 0.32397 0.0
C773 C 0.63006 0.8671 0.36268 0.0
C774 C 0.60552 0.75507 0.33009 0.0
C775 C 0.58932 0.74702 0.35233 0.0
H776 H 0.37711 0.15594 0.40563 0.0
H777 H 0.42886 0.38443 0.38852 0.0
H778 H 0.39292 0.37366 0.3511 0.0
H779 H 0.3573 0.29267 0.32128 0.0
H780 H 0.31504 0.05882 0.33649 0.0
H781 H 0.33695 0.0777 0.37644 0.0
C782 C 0.38048 0.20347 0.39375 0.0
C783 C 0.406 0.27063 0.39998 0.0
C784 C 0.36171 0.19558 0.37177 0.0
C785 C 0.40893 0.33236 0.38448 0.0
C786 C 0.38881 0.32603 0.36289 0.0
C787 C 0.35188 0.24681 0.33358 0.0
C788 C 0.33449 0.17486 0.32634 0.0
C789 C 0.36651 0.2571 0.35612 0.0
C790 C 0.32816 0.11482 0.34202 0.0
C791 C 0.34093 0.12551 0.36472 0.0
H792 H 0.96164 0.6542 0.96183 0.0
H793 H 0.11642 0.63039 0.96069 0.0
H794 H 0.10897 0.49005 0.96355 0.0
H795 H 0.05819 0.37271 0.96026 0.0
H796 H 0.90351 0.39678 0.96203 0.0
H797 H 0.91124 0.53697 0.96552 0.0
C798 C 0.99375 0.61857 0.96292 0.0
C799 C 0.03949 0.65314 0.96056 0.0
C800 C 0.98925 0.53718 0.96436 0.0
C801 C 0.08067 0.60547 0.962 0.0
C802 C 0.07648 0.52493 0.9636 0.0
C803 C 0.02627 0.40842 0.96212 0.0
C804 C 0.98034 0.37406 0.96046 0.0
C805 C 0.03092 0.48977 0.96385 0.0
C806 C 0.93934 0.42165 0.96287 0.0
C807 C 0.94369 0.50207 0.9648 0.0
H808 H 0.30929 0.68782 0.17931 0.0
H809 H 0.24754 0.61597 0.24318 0.0
H810 H 0.21571 0.74648 0.24904 0.0
H811 H 0.20208 0.88097 0.23478 0.0
H812 H 0.26877 0.94974 0.17194 0.0
H813 H 0.30339 0.82094 0.16732 0.0
C814 C 0.29038 0.70047 0.19496 0.0
C815 C 0.28113 0.64115 0.21072 0.0
C816 C 0.27286 0.77557 0.1984 0.0
C817 C 0.25486 0.65964 0.23049 0.0
C818 C 0.23672 0.73456 0.23393 0.0
C819 C 0.22463 0.8674 0.22028 0.0
C820 C 0.23294 0.92401 0.20364 0.0
C821 C 0.24482 0.79284 0.21779 0.0
C822 C 0.26212 0.90657 0.18489 0.0
C823 C 0.2818 0.83308 0.18224 0.0
H824 H 0.82931 0.1598 0.21257 0.0
H825 H 0.67981 0.09015 0.21253 0.0
H826 H 0.65484 0.22436 0.21727 0.0
H827 H 0.67501 0.36231 0.21454 0.0
H828 H 0.82428 0.43224 0.21176 0.0
H829 H 0.84974 0.29778 0.21547 0.0
C830 C 0.79131 0.17404 0.21395 0.0
C831 C 0.75653 0.11531 0.21177 0.0
C832 C 0.7771 0.25163 0.21596 0.0
C833 C 0.70742 0.13417 0.21414 0.0
C834 C 0.69303 0.21109 0.21664 0.0
C835 C 0.7131 0.34807 0.21514 0.0
C836 C 0.74764 0.40687 0.21244 0.0
C837 C 0.72748 0.27044 0.21651 0.0
C838 C 0.79691 0.38807 0.21379 0.0
C839 C 0.81153 0.31105 0.21567 0.0
H840 H 0.9382 0.89682 0.46648 0.0
H841 H 0.08546 0.81919 0.45944 0.0
H842 H 0.11407 0.95182 0.46299 0.0
H843 H 0.09633 0.09092 0.46114 0.0
H844 H 0.9483 0.16799 0.46455 0.0
H845 H 0.9213 0.03545 0.46977 0.0
C846 C 0.97658 0.90891 0.466 0.0
C847 C 0.00943 0.84835 0.46221 0.0
C848 C 0.99276 0.98565 0.46716 0.0
C849 C 0.0592 0.86458 0.46231 0.0
C850 C 0.07567 0.94066 0.4641 0.0
C851 C 0.05823 0.07873 0.46331 0.0
C852 C 0.02447 0.13928 0.46203 0.0
C853 C 0.04262 1.00186 0.46543 0.0
C854 C 0.97528 0.12278 0.4655 0.0
C855 C 0.95963 0.04671 0.46825 0.0
H856 H 0.34926 0.15983 0.7213 0.0
H857 H 0.20015 0.09041 0.71618 0.0
H858 H 0.17453 0.22425 0.72097 0.0
H859 H 0.19526 0.36198 0.71787 0.0
H860 H 0.34444 0.43207 0.71991 0.0
H861 H 0.36923 0.29784 0.72556 0.0
C862 C 0.31115 0.17397 0.7218 0.0
C863 C 0.27676 0.11553 0.71792 0.0
C864 C 0.29669 0.25155 0.72368 0.0
C865 C 0.22744 0.13416 0.7191 0.0
C866 C 0.21273 0.21096 0.72158 0.0
C867 C 0.23308 0.34788 0.72022 0.0
C868 C 0.26803 0.40632 0.71801 0.0
C869 C 0.24712 0.27035 0.72258 0.0
C870 C 0.31686 0.38799 0.72147 0.0
C871 C 0.33108 0.31109 0.72444 0.0
H872 H 0.78215 0.66633 0.67261 0.0
H873 H 0.74128 0.61168 0.7414 0.0
H874 H 0.71765 0.74686 0.74754 0.0
H875 H 0.70598 0.88125 0.73246 0.0
H876 H 0.75076 0.93071 0.66398 0.0
H877 H 0.77738 0.79747 0.65897 0.0
C878 C 0.76953 0.68365 0.68926 0.0
C879 C 0.76415 0.62818 0.70655 0.0
C880 C 0.75682 0.76115 0.69275 0.0
C881 C 0.74563 0.65251 0.72765 0.0
C882 C 0.73232 0.73008 0.73122 0.0
C883 C 0.72222 0.86258 0.71665 0.0
C884 C 0.72639 0.91519 0.69855 0.0
C885 C 0.73735 0.78499 0.7138 0.0
C886 C 0.74722 0.89083 0.67806 0.0
C887 C 0.76227 0.81473 0.67517 0.0
H888 H 0.56518 0.6722 0.46834 0.0
H889 H 0.41713 0.74429 0.4604 0.0
H890 H 0.39043 0.61028 0.46348 0.0
H891 H 0.41068 0.47202 0.46051 0.0
H892 H 0.55983 0.40113 0.46447 0.0
H893 H 0.58425 0.53426 0.47122 0.0
C894 C 0.527 0.65861 0.4677 0.0
C895 C 0.49339 0.71786 0.46358 0.0
C896 C 0.51207 0.58116 0.4684 0.0
C897 C 0.4439 0.69984 0.46346 0.0
C898 C 0.42859 0.62298 0.46494 0.0
C899 C 0.44845 0.48564 0.46315 0.0
C900 C 0.48335 0.42674 0.46147 0.0
C901 C 0.46259 0.56299 0.46612 0.0
C902 C 0.53204 0.445 0.46563 0.0
C903 C 0.5462 0.52145 0.46928 0.0
H904 H 0.52652 0.84266 0.96752 0.0
H905 H 0.37353 0.87381 0.97729 0.0
H906 H 0.38421 1.01372 0.97857 0.0
H907 H 0.43538 0.12821 0.97039 0.0
H908 H 0.58916 0.09666 0.96427 0.0
H909 H 0.57971 0.95734 0.96863 0.0
C910 C 0.49563 0.87958 0.97069 0.0
C911 C 0.44901 0.84691 0.97138 0.0
C912 C 0.50199 0.96083 0.97169 0.0
C913 C 0.40973 0.89679 0.97578 0.0
C914 C 0.41575 0.97727 0.97656 0.0
C915 C 0.467 0.0913 0.97073 0.0
C916 C 0.51275 0.12336 0.96613 0.0
C917 C 0.46146 1.0103 0.97347 0.0
C918 C 0.55322 0.07384 0.96696 0.0
C919 C 0.54792 0.99376 0.96947 0.0
H920 H 0.34514 0.16816 0.02935 0.0
H921 H 0.30671 0.39865 0.0087 0.0
H922 H 0.22265 0.35868 0.0034 0.0
H923 H 0.15826 0.26322 0.01139 0.0
H924 H 0.19735 0.03447 0.03378 0.0
H925 H 0.28286 0.06738 0.03122 0.0
C926 C 0.31846 0.20869 0.02302 0.0
C927 C 0.33161 0.28591 0.0193 0.0
C928 C 0.27023 0.18559 0.02062 0.0
C929 C 0.29714 0.33863 0.01128 0.0
C930 C 0.24908 0.31592 0.00853 0.0
C931 C 0.1857 0.22019 0.01498 0.0
C932 C 0.17197 0.14704 0.02301 0.0
C933 C 0.23484 0.24032 0.01406 0.0
C934 C 0.20749 0.09141 0.02776 0.0
C935 C 0.25626 0.11029 0.02641 0.0
H936 H 0.77063 0.90214 0.00155 0.0
H937 H 0.87103 0.71188 0.00198 0.0
H938 H 0.8045 0.62 -0.00223 0.0
H939 H 0.71772 0.59445 0.00314 0.0
H940 H 0.61732 0.78468 0.00371 0.0
H941 H 0.68351 0.87617 -0.00216 0.0
C942 C 0.77784 0.84068 -0.00016 0.0
C943 C 0.82527 0.81333 0.00242 0.0
C944 C 0.73932 0.78833 -0.00199 0.0
C945 C 0.83467 0.73394 5e-05 0.0
C946 C 0.7966 0.68143 -0.00209 0.0
C947 C 0.7104 0.65575 0.00113 0.0
C948 C 0.66316 0.68335 0.00418 0.0
C949 C 0.74872 0.70787 -0.00175 0.0
C950 C 0.65357 0.76251 0.00144 0.0
C951 C 0.69144 0.81478 -0.00169 0.0
H952 H 0.05996 0.41856 0.25319 0.0
H953 H 0.13826 0.62512 0.27094 0.0
H954 H 0.065 0.70271 0.26651 0.0
H955 H 0.97669 0.7056 0.26585 0.0
H956 H 0.89708 0.4974 0.25114 0.0
H957 H 0.97261 0.42657 0.24531 0.0
C958 C 0.061 0.48097 0.2552 0.0
C959 C 0.10371 0.51675 0.26244 0.0
C960 C 0.01842 0.52438 0.25347 0.0
C961 C 0.10535 0.59718 0.26533 0.0
C962 C 0.06352 0.64119 0.26296 0.0
C963 C 0.97611 0.64526 0.26071 0.0
C964 C 0.93191 0.606 0.25937 0.0
C965 C 0.01947 0.60465 0.25828 0.0
C966 C 0.93097 0.52836 0.25237 0.0
C967 C 0.97409 0.4878 0.24927 0.0
H968 H 0.34838 0.8007 0.49911 0.0
H969 H 0.25337 0.9977 0.50173 0.0
H970 H 0.18338 0.91306 0.49641 0.0
H971 H 0.14968 0.78248 0.50049 0.0
H972 H 0.24493 0.58602 0.50391 0.0
H973 H 0.31455 0.66988 0.49681 0.0
C974 C 0.31242 0.82502 0.49759 0.0
C975 C 0.30554 0.9047 0.50089 0.0
C976 C 0.2725 0.77562 0.49602 0.0
C977 C 0.25905 0.93623 0.49925 0.0
C978 C 0.21919 0.88783 0.49641 0.0
C979 C 0.18558 0.75808 0.49878 0.0
C980 C 0.19274 0.6789 0.50274 0.0
C981 C 0.22538 0.80724 0.49617 0.0
C982 C 0.2391 0.64714 0.50087 0.0
C983 C 0.27875 0.6951 0.49702 0.0
H984 H 0.79977 0.41533 0.50585 0.0
H985 H 0.87535 0.1994 0.51374 0.0
H986 H 0.7996 0.12789 0.5094 0.0
H987 H 0.71089 0.13012 0.51146 0.0
H988 H 0.63513 0.34642 0.50455 0.0
H989 H 0.71176 0.415 0.4998 0.0
C990 C 0.79955 0.35253 0.50575 0.0
C991 C 0.84234 0.31211 0.51024 0.0
C992 C 0.75586 0.31233 0.50375 0.0
C993 C 0.84243 0.23103 0.51022 0.0
C994 C 0.79918 0.1904 0.50796 0.0
C995 C 0.7114 0.19191 0.5082 0.0
C996 C 0.66806 0.23382 0.50871 0.0
C997 C 0.75547 0.23076 0.50594 0.0
C998 C 0.6684 0.31352 0.50428 0.0
C999 C 0.71213 0.35265 0.50176 0.0
H1000 H 0.96406 0.1535 0.74184 0.0
H1001 H 0.87003 0.95566 0.74503 0.0
H1002 H 0.93798 0.86935 0.73734 0.0
H1003 H 0.02567 0.85097 0.74118 0.0
H1004 H 0.11988 0.04883 0.73964 0.0
H1005 H 0.05079 0.13467 0.73432 0.0
C1006 C 0.95835 0.09179 0.73968 0.0
C1007 C 0.91275 0.06031 0.74425 0.0
C1008 C 0.99785 0.04263 0.73594 0.0
C1009 C 0.90511 0.98061 0.74154 0.0
C1010 C 0.94404 0.93131 0.73742 0.0
C1011 C 0.031 0.91245 0.73842 0.0
C1012 C 0.07727 0.9441 0.74111 0.0
C1013 C 0.99094 0.96146 0.73623 0.0
C1014 C 0.08436 0.02359 0.73759 0.0
C1015 C 0.04478 0.07273 0.73491 0.0
H1016 H 0.60431 0.58843 0.78189 0.0
H1017 H 0.55603 0.37814 0.75004 0.0
H1018 H 0.47502 0.43261 0.74541 0.0
H1019 H 0.41518 0.53069 0.75732 0.0
H1020 H 0.4639 0.73848 0.79082 0.0
H1021 H 0.54748 0.69535 0.78773 0.0
C1022 C 0.57635 0.55597 0.77319 0.0
C1023 C 0.5857 0.47987 0.7662 0.0
C1024 C 0.52974 0.58672 0.77138 0.0
C1025 C 0.5495 0.43736 0.75519 0.0
C1026 C 0.50309 0.46815 0.75286 0.0
C1027 C 0.44428 0.56728 0.76335 0.0
C1028 C 0.43356 0.63662 0.77479 0.0
C1029 C 0.49227 0.54136 0.76189 0.0
C1030 C 0.47144 0.68391 0.78246 0.0
C1031 C 0.51916 0.65939 0.78067 0.0
H1032 H 0.51693 0.84551 0.25776 0.0
H1033 H 0.61001 0.04355 0.25075 0.0
H1034 H 0.53983 0.12784 0.24586 0.0
H1035 H 0.45273 0.14733 0.2527 0.0
H1036 H 0.36033 0.94943 0.26144 0.0
H1037 H 0.42905 0.86232 0.25614 0.0
C1038 C 0.52163 0.90673 0.25433 0.0
C1039 C 0.56805 0.93893 0.25498 0.0
C1040 C 0.48119 0.95477 0.25224 0.0
C1041 C 0.57434 0.01793 0.25036 0.0
C1042 C 0.53425 0.06614 0.24782 0.0
C1043 C 0.4477 0.08505 0.25254 0.0
C1044 C 0.40222 0.05407 0.25756 0.0
C1045 C 0.48757 0.03573 0.25008 0.0
C1046 C 0.39538 0.97374 0.25753 0.0
C1047 C 0.43463 0.92419 0.25469 0.0
loop_
_geom_bond_atom_site_label_1
_geom_bond_atom_site_label_2
_geom_bond_distance
_geom_bond_site_symmetry_2
_ccdc_geom_bond_type
C0 O1 1.201 . S
C0 C2 1.493 . S
C0 N17 1.318 1_455 S
O1 C0 1.201 . S
C2 C0 1.493 . S
C2 C3 1.381 . S
C2 N7 1.335 1_554 S
C3 C2 1.381 . S
C3 C4 1.411 1_554 S
C3 H49 0.931 . S
C4 C3 1.411 1_556 S
C4 C5 1.384 . S
C4 H50 0.930 . S
C5 C4 1.384 . S
C5 C6 1.376 . S
C5 H51 0.929 . S
C6 C5 1.376 . S
C6 N7 1.330 . S
C6 C21 1.484 1_565 S
N7 C2 1.335 1_556 S
N7 C6 1.330 . S
N7 Co9 1.859 1_565 S
N8 Co9 1.962 1_554 S
N8 C19 1.318 1_455 S
N8 C43 1.421 . S
Co9 N7 1.859 1_545 S
Co9 N8 1.962 1_556 S
Co9 N10 1.859 1_455 S
Co9 N16 1.958 1_445 S
Co9 N17 1.962 1_446 S
Co9 N18 1.958 . S
N10 Co9 1.859 1_655 S
N10 C14 1.330 . S
N10 C15 1.335 1_556 S
C11 C12 1.411 1_554 S
C11 C15 1.381 . S
C11 H52 0.931 . S
C12 C11 1.411 1_556 S
C12 C13 1.384 . S
C12 H53 0.930 . S
C13 C12 1.384 . S
C13 C14 1.376 . S
C13 H54 0.929 . S
C14 N10 1.330 . S
C14 C13 1.376 . S
C14 C29 1.484 1_545 S
C15 N10 1.335 1_554 S
C15 C11 1.381 . S
C15 C19 1.493 . S
N16 Co9 1.958 1_665 S
N16 C29 1.344 . S
N16 C31 1.433 . S
N17 C0 1.318 1_655 S
N17 Co9 1.962 1_664 S
N17 C37 1.421 . S
N18 Co9 1.958 . S
N18 C21 1.344 . S
N18 C23 1.436 . S
C19 N8 1.318 1_655 S
C19 C15 1.493 . S
C19 O20 1.201 . S
O20 C19 1.201 . S
C21 C6 1.484 1_545 S
C21 N18 1.344 . S
C21 O22 1.268 . S
O22 C21 1.268 . S
C23 N18 1.436 . S
C23 C25 1.395 . S
C23 C26 1.353 1_455 S
C24 C25 1.382 1_655 S
C24 C28 1.386 . S
C25 C23 1.395 . S
C25 C24 1.382 1_455 S
C25 H55 0.928 . S
C26 C23 1.353 1_655 S
C26 C27 1.367 . S
C26 H56 0.930 . S
C27 C26 1.367 . S
C27 C28 1.369 . S
C28 C24 1.386 . S
C28 C27 1.369 . S
C28 H57 0.930 . S
C29 C14 1.484 1_565 S
C29 N16 1.344 . S
C29 O30 1.268 . S
O30 C29 1.268 . S
C31 N16 1.433 . S
C31 C32 1.357 1_655 S
C31 C36 1.394 . S
C32 C31 1.357 1_455 S
C32 C33 1.367 . S
C32 H58 0.930 . S
C33 C32 1.367 . S
C33 C34 1.369 . S
C34 C33 1.369 . S
C34 C35 1.386 . S
C34 H59 0.930 . S
C35 C34 1.386 . S
C35 C36 1.382 1_455 S
C36 C31 1.394 . S
C36 C35 1.382 1_655 S
C36 H60 0.928 . S
C37 N17 1.421 . S
C37 C38 1.371 . S
C37 C42 1.385 . S
C38 C37 1.371 . S
C38 C39 1.367 . S
C38 H61 0.931 . S
C39 C38 1.367 . S
C39 C40 1.401 . S
C40 C39 1.401 . S
C40 C41 1.385 . S
C40 H62 0.930 . S
C41 C40 1.385 . S
C41 C42 1.402 . S
C42 C37 1.385 . S
C42 C41 1.402 . S
C42 H63 0.929 . S
C43 N8 1.421 . S
C43 C46 1.385 . S
C43 C47 1.371 . S
C44 C45 1.385 . S
C44 C48 1.401 . S
C44 H64 0.930 . S
C45 C44 1.385 . S
C45 C46 1.402 . S
C46 C43 1.385 . S
C46 C45 1.402 . S
C46 H65 0.929 . S
C47 C43 1.371 . S
C47 C48 1.367 . S
C47 H66 0.931 . S
C48 C44 1.401 . S
C48 C47 1.367 . S
H49 C3 0.931 . S
H50 C4 0.930 . S
H51 C5 0.929 . S
H52 C11 0.931 . S
H53 C12 0.930 . S
H54 C13 0.929 . S
H55 C25 0.928 . S
H56 C26 0.930 . S
H57 C28 0.930 . S
H58 C32 0.930 . S
H59 C34 0.930 . S
H60 C36 0.928 . S
H61 C38 0.931 . S
H62 C40 0.930 . S
H63 C42 0.929 . S
H64 C44 0.930 . S
H65 C46 0.929 . S
H66 C47 0.931 . S
C67 O68 1.201 . S
C67 C69 1.493 . S
C67 N84 1.318 . S
O68 C67 1.201 . S
C69 C67 1.493 . S
C69 C70 1.381 . S
C69 N74 1.335 . S
C70 C69 1.381 . S
C70 C71 1.411 . S
C70 H116 0.931 . S
C71 C70 1.411 . S
C71 C72 1.384 . S
C71 H117 0.930 . S
C72 C71 1.384 . S
C72 C73 1.376 . S
C72 H118 0.929 . S
C73 C72 1.376 . S
C73 N74 1.330 . S
C73 C88 1.484 . S
N74 C69 1.335 . S
N74 C73 1.330 . S
N74 Co76 1.859 . S
N75 Co76 1.962 . S
N75 C86 1.318 . S
N75 C110 1.421 . S
Co76 N74 1.859 . S
Co76 N75 1.962 . S
Co76 N77 1.859 . S
Co76 N83 1.958 . S
Co76 N84 1.962 . S
Co76 N85 1.958 . S
N77 Co76 1.859 . S
N77 C81 1.330 . S
N77 C82 1.335 . S
C78 C79 1.411 . S
C78 C82 1.381 . S
C78 H119 0.931 . S
C79 C78 1.411 . S
C79 C80 1.384 . S
C79 H120 0.930 . S
C80 C79 1.384 . S
C80 C81 1.376 . S
C80 H121 0.929 . S
C81 N77 1.330 . S
C81 C80 1.376 . S
C81 C96 1.484 . S
C82 N77 1.335 . S
C82 C78 1.381 . S
C82 C86 1.493 . S
N83 Co76 1.958 . S
N83 C96 1.344 . S
N83 C98 1.425 . S
N84 C67 1.318 . S
N84 Co76 1.962 . S
N84 C104 1.421 . S
N85 Co76 1.958 . S
N85 C88 1.344 . S
N85 C90 1.425 . S
C86 N75 1.318 . S
C86 C82 1.493 . S
C86 O87 1.201 . S
O87 C86 1.201 . S
C88 C73 1.484 . S
C88 N85 1.344 . S
C88 O89 1.268 . S
O89 C88 1.268 . S
C90 N85 1.425 . S
C90 C92 1.392 . S
C90 C93 1.368 . S
C91 C92 1.382 . S
C91 C95 1.386 . S
C92 C90 1.392 . S
C92 C91 1.382 . S
C92 H122 0.928 . S
C93 C90 1.368 . S
C93 C94 1.367 . S
C93 H123 0.930 . S
C94 C93 1.367 . S
C94 C95 1.369 . S
C95 C91 1.386 . S
C95 C94 1.369 . S
C95 H124 0.930 . S
C96 C81 1.484 . S
C96 N83 1.344 . S
C96 O97 1.268 . S
O97 C96 1.268 . S
C98 N83 1.425 . S
C98 C99 1.368 . S
C98 C103 1.392 . S
C99 C98 1.368 . S
C99 C100 1.367 . S
C99 H125 0.930 . S
C100 C99 1.367 . S
C100 C101 1.369 . S
C101 C100 1.369 . S
C101 C102 1.386 1_545 S
C101 H126 0.930 1_545 S
C102 C101 1.386 1_565 S
C102 C103 1.382 1_565 S
C103 C98 1.392 . S
C103 C102 1.382 1_545 S
C103 H127 0.928 . S
C104 N84 1.421 . S
C104 C105 1.371 . S
C104 C109 1.385 . S
C105 C104 1.371 . S
C105 C106 1.367 . S
C105 H128 0.931 . S
C106 C105 1.367 . S
C106 C107 1.401 . S
C107 C106 1.401 . S
C107 C108 1.385 . S
C107 H129 0.930 . S
C108 C107 1.385 . S
C108 C109 1.402 . S
C109 C104 1.385 . S
C109 C108 1.402 . S
C109 H130 0.929 . S
C110 N75 1.421 . S
C110 C113 1.385 . S
C110 C114 1.371 . S
C111 C112 1.385 . S
C111 C115 1.401 . S
C111 H131 0.930 . S
C112 C111 1.385 . S
C112 C113 1.402 . S
C113 C110 1.385 . S
C113 C112 1.402 . S
C113 H132 0.929 . S
C114 C110 1.371 . S
C114 C115 1.367 . S
C114 H133 0.931 . S
C115 C111 1.401 . S
C115 C114 1.367 . S
H116 C70 0.931 . S
H117 C71 0.930 . S
H118 C72 0.929 . S
H119 C78 0.931 . S
H120 C79 0.930 . S
H121 C80 0.929 . S
H122 C92 0.928 . S
H123 C93 0.930 . S
H124 C95 0.930 . S
H125 C99 0.930 . S
H126 C101 0.930 1_565 S
H127 C103 0.928 . S
H128 C105 0.931 . S
H129 C107 0.930 . S
H130 C109 0.929 . S
H131 C111 0.930 . S
H132 C113 0.929 . S
H133 C114 0.931 . S
C134 O135 1.201 . S
C134 C136 1.493 . S
C134 N151 1.318 . S
O135 C134 1.201 . S
C136 C134 1.493 . S
C136 C137 1.381 . S
C136 N141 1.335 . S
C137 C136 1.381 . S
C137 C138 1.411 . S
C137 H183 0.931 . S
C138 C137 1.411 . S
C138 C139 1.384 . S
C138 H184 0.930 . S
C139 C138 1.384 . S
C139 C140 1.376 . S
C139 H185 0.929 . S
C140 C139 1.376 . S
C140 N141 1.330 . S
C140 C155 1.484 . S
N141 C136 1.335 . S
N141 C140 1.330 . S
N141 Co143 1.859 . S
N142 Co143 1.962 . S
N142 C153 1.318 . S
N142 C177 1.421 . S
Co143 N141 1.859 . S
Co143 N142 1.962 . S
Co143 N144 1.859 . S
Co143 N150 1.958 . S
Co143 N151 1.962 . S
Co143 N152 1.958 . S
N144 Co143 1.859 . S
N144 C148 1.330 . S
N144 C149 1.335 . S
C145 C146 1.411 . S
C145 C149 1.381 . S
C145 H186 0.931 . S
C146 C145 1.411 . S
C146 C147 1.384 . S
C146 H187 0.930 . S
C147 C146 1.384 . S
C147 C148 1.376 . S
C147 H188 0.929 . S
C148 N144 1.330 . S
C148 C147 1.376 . S
C148 C163 1.484 . S
C149 N144 1.335 . S
C149 C145 1.381 . S
C149 C153 1.493 . S
N150 Co143 1.958 . S
N150 C163 1.344 . S
N150 C165 1.425 . S
N151 C134 1.318 . S
N151 Co143 1.962 . S
N151 C171 1.421 . S
N152 Co143 1.958 . S
N152 C155 1.344 . S
N152 C157 1.425 . S
C153 N142 1.318 . S
C153 C149 1.493 . S
C153 O154 1.201 . S
O154 C153 1.201 . S
C155 C140 1.484 . S
C155 N152 1.344 . S
C155 O156 1.268 . S
O156 C155 1.268 . S
C157 N152 1.425 . S
C157 C159 1.392 . S
C157 C160 1.368 . S
C158 C159 1.382 1_545 S
C158 C162 1.386 1_545 S
C159 C157 1.392 . S
C159 C158 1.382 1_565 S
C159 H189 0.928 . S
C160 C157 1.368 . S
C160 C161 1.367 . S
C160 H190 0.930 . S
C161 C160 1.367 . S
C161 C162 1.369 . S
C162 C158 1.386 1_565 S
C162 C161 1.369 . S
C162 H191 0.930 1_565 S
C163 C148 1.484 . S
C163 N150 1.344 . S
C163 O164 1.268 . S
O164 C163 1.268 . S
C165 N150 1.425 . S
C165 C166 1.368 . S
C165 C170 1.392 . S
C166 C165 1.368 . S
C166 C167 1.367 . S
C166 H192 0.930 . S
C167 C166 1.367 . S
C167 C168 1.369 . S
C168 C167 1.369 . S
C168 C169 1.386 . S
C168 H193 0.930 . S
C169 C168 1.386 . S
C169 C170 1.382 . S
C170 C165 1.392 . S
C170 C169 1.382 . S
C170 H194 0.928 . S
C171 N151 1.421 . S
C171 C172 1.371 . S
C171 C176 1.385 . S
C172 C171 1.371 . S
C172 C173 1.367 . S
C172 H195 0.931 . S
C173 C172 1.367 . S
C173 C174 1.401 . S
C174 C173 1.401 . S
C174 C175 1.385 . S
C174 H196 0.930 . S
C175 C174 1.385 . S
C175 C176 1.402 . S
C176 C171 1.385 . S
C176 C175 1.402 . S
C176 H197 0.929 . S
C177 N142 1.421 . S
C177 C180 1.385 . S
C177 C181 1.371 . S
C178 C179 1.385 . S
C178 C182 1.401 . S
C178 H198 0.930 . S
C179 C178 1.385 . S
C179 C180 1.402 . S
C180 C177 1.385 . S
C180 C179 1.402 . S
C180 H199 0.929 . S
C181 C177 1.371 . S
C181 C182 1.367 . S
C181 H200 0.931 . S
C182 C178 1.401 . S
C182 C181 1.367 . S
H183 C137 0.931 . S
H184 C138 0.930 . S
H185 C139 0.929 . S
H186 C145 0.931 . S
H187 C146 0.930 . S
H188 C147 0.929 . S
H189 C159 0.928 . S
H190 C160 0.930 . S
H191 C162 0.930 1_545 S
H192 C166 0.930 . S
H193 C168 0.930 . S
H194 C170 0.928 . S
H195 C172 0.931 . S
H196 C174 0.930 . S
H197 C176 0.929 . S
H198 C178 0.930 . S
H199 C180 0.929 . S
H200 C181 0.931 . S
C201 O202 1.201 . S
C201 C203 1.493 . S
C201 N218 1.318 1_455 S
O202 C201 1.201 . S
C203 C201 1.493 . S
C203 C204 1.381 . S
C203 N208 1.335 . S
C204 C203 1.381 . S
C204 C205 1.411 . S
C204 H250 0.931 . S
C205 C204 1.411 . S
C205 C206 1.384 . S
C205 H251 0.930 . S
C206 C205 1.384 . S
C206 C207 1.376 . S
C206 H252 0.929 . S
C207 C206 1.376 . S
C207 N208 1.330 . S
C207 C222 1.484 . S
N208 C203 1.335 . S
N208 C207 1.330 . S
N208 Co210 1.859 . S
N209 Co210 1.962 . S
N209 C220 1.318 1_455 S
N209 C244 1.421 . S
Co210 N208 1.859 . S
Co210 N209 1.962 . S
Co210 N211 1.859 1_455 S
Co210 N217 1.958 1_455 S
Co210 N218 1.962 1_455 S
Co210 N219 1.958 . S
N211 Co210 1.859 1_655 S
N211 C215 1.330 . S
N211 C216 1.335 . S
C212 C213 1.411 . S
C212 C216 1.381 . S
C212 H253 0.931 . S
C213 C212 1.411 . S
C213 C214 1.384 . S
C213 H254 0.930 . S
C214 C213 1.384 . S
C214 C215 1.376 . S
C214 H255 0.929 . S
C215 N211 1.330 . S
C215 C214 1.376 . S
C215 C230 1.484 . S
C216 N211 1.335 . S
C216 C212 1.381 . S
C216 C220 1.493 . S
N217 Co210 1.958 1_655 S
N217 C230 1.344 . S
N217 C232 1.433 . S
N218 C201 1.318 1_655 S
N218 Co210 1.962 1_655 S
N218 C238 1.421 . S
N219 Co210 1.958 . S
N219 C222 1.344 . S
N219 C224 1.436 . S
C220 N209 1.318 1_655 S
C220 C216 1.493 . S
C220 O221 1.201 . S
O221 C220 1.201 . S
C222 C207 1.484 . S
C222 N219 1.344 . S
C222 O223 1.268 . S
O223 C222 1.268 . S
C224 N219 1.436 . S
C224 C226 1.395 . S
C224 C227 1.353 1_455 S
C225 C226 1.382 1_655 S
C225 C229 1.386 . S
C226 C224 1.395 . S
C226 C225 1.382 1_455 S
C226 H256 0.928 . S
C227 C224 1.353 1_655 S
C227 C228 1.367 . S
C227 H257 0.930 . S
C228 C227 1.367 . S
C228 C229 1.369 . S
C229 C225 1.386 . S
C229 C228 1.369 . S
C229 H258 0.930 . S
C230 C215 1.484 . S
C230 N217 1.344 . S
C230 O231 1.268 . S
O231 C230 1.268 . S
C232 N217 1.433 . S
C232 C233 1.357 1_655 S
C232 C237 1.394 . S
C233 C232 1.357 1_455 S
C233 C234 1.367 . S
C233 H259 0.930 . S
C234 C233 1.367 . S
C234 C235 1.369 . S
C235 C234 1.369 . S
C235 C236 1.386 . S
C235 H260 0.930 . S
C236 C235 1.386 . S
C236 C237 1.382 1_455 S
C237 C232 1.394 . S
C237 C236 1.382 1_655 S
C237 H261 0.928 . S
C238 N218 1.421 . S
C238 C239 1.371 . S
C238 C243 1.385 . S
C239 C238 1.371 . S
C239 C240 1.367 . S
C239 H262 0.931 . S
C240 C239 1.367 . S
C240 C241 1.401 . S
C241 C240 1.401 . S
C241 C242 1.385 . S
C241 H263 0.930 . S
C242 C241 1.385 . S
C242 C243 1.402 . S
C243 C238 1.385 . S
C243 C242 1.402 . S
C243 H264 0.929 . S
C244 N209 1.421 . S
C244 C247 1.385 . S
C244 C248 1.371 . S
C245 C246 1.385 . S
C245 C249 1.401 . S
C245 H265 0.930 . S
C246 C245 1.385 . S
C246 C247 1.402 . S
C247 C244 1.385 . S
C247 C246 1.402 . S
C247 H266 0.929 . S
C248 C244 1.371 . S
C248 C249 1.367 . S
C248 H267 0.931 . S
C249 C245 1.401 . S
C249 C248 1.367 . S
H250 C204 0.931 . S
H251 C205 0.930 . S
H252 C206 0.929 . S
H253 C212 0.931 . S
H254 C213 0.930 . S
H255 C214 0.929 . S
H256 C226 0.928 . S
H257 C227 0.930 . S
H258 C229 0.930 . S
H259 C233 0.930 . S
H260 C235 0.930 . S
H261 C237 0.928 . S
H262 C239 0.931 . S
H263 C241 0.930 . S
H264 C243 0.929 . S
H265 C245 0.930 . S
H266 C247 0.929 . S
H267 C248 0.931 . S
C268 O269 1.201 . S
C268 C270 1.493 . S
C268 N285 1.318 . S
O269 C268 1.201 . S
C270 C268 1.493 . S
C270 C271 1.381 . S
C270 N275 1.335 . S
C271 C270 1.381 . S
C271 C272 1.411 . S
C271 H317 0.931 . S
C272 C271 1.411 . S
C272 C273 1.384 . S
C272 H318 0.930 . S
C273 C272 1.384 . S
C273 C274 1.376 . S
C273 H319 0.929 . S
C274 C273 1.376 . S
C274 N275 1.330 . S
C274 C289 1.484 . S
N275 C270 1.335 . S
N275 C274 1.330 . S
N275 Co277 1.859 . S
N276 Co277 1.962 . S
N276 C287 1.318 . S
N276 C311 1.421 . S
Co277 N275 1.859 . S
Co277 N276 1.962 . S
Co277 N278 1.859 . S
Co277 N284 1.958 . S
Co277 N285 1.962 . S
Co277 N286 1.958 . S
N278 Co277 1.859 . S
N278 C282 1.330 . S
N278 C283 1.335 . S
C279 C280 1.411 . S
C279 C283 1.381 . S
C279 H320 0.931 . S
C280 C279 1.411 . S
C280 C281 1.384 . S
C280 H321 0.930 . S
C281 C280 1.384 . S
C281 C282 1.376 . S
C281 H322 0.929 . S
C282 N278 1.330 . S
C282 C281 1.376 . S
C282 C297 1.484 . S
C283 N278 1.335 . S
C283 C279 1.381 . S
C283 C287 1.493 . S
N284 Co277 1.958 . S
N284 C297 1.344 . S
N284 C299 1.425 . S
N285 C268 1.318 . S
N285 Co277 1.962 . S
N285 C305 1.421 . S
N286 Co277 1.958 . S
N286 C289 1.344 . S
N286 C291 1.425 . S
C287 N276 1.318 . S
C287 C283 1.493 . S
C287 O288 1.201 . S
O288 C287 1.201 . S
C289 C274 1.484 . S
C289 N286 1.344 . S
C289 O290 1.268 . S
O290 C289 1.268 . S
C291 N286 1.425 . S
C291 C293 1.392 . S
C291 C294 1.368 . S
C292 C293 1.382 1_545 S
C292 C296 1.386 1_545 S
C293 C291 1.392 . S
C293 C292 1.382 1_565 S
C293 H323 0.928 . S
C294 C291 1.368 . S
C294 C295 1.367 . S
C294 H324 0.930 . S
C295 C294 1.367 . S
C295 C296 1.369 . S
C296 C292 1.386 1_565 S
C296 C295 1.369 . S
C296 H325 0.930 1_565 S
C297 C282 1.484 . S
C297 N284 1.344 . S
C297 O298 1.268 . S
O298 C297 1.268 . S
C299 N284 1.425 . S
C299 C300 1.368 . S
C299 C304 1.392 . S
C300 C299 1.368 . S
C300 C301 1.367 . S
C300 H326 0.930 . S
C301 C300 1.367 . S
C301 C302 1.369 . S
C302 C301 1.369 . S
C302 C303 1.386 . S
C302 H327 0.930 . S
C303 C302 1.386 . S
C303 C304 1.382 . S
C304 C299 1.392 . S
C304 C303 1.382 . S
C304 H328 0.928 . S
C305 N285 1.421 . S
C305 C306 1.371 . S
C305 C310 1.385 . S
C306 C305 1.371 . S
C306 C307 1.367 . S
C306 H329 0.931 . S
C307 C306 1.367 . S
C307 C308 1.401 . S
C308 C307 1.401 . S
C308 C309 1.385 . S
C308 H330 0.930 . S
C309 C308 1.385 . S
C309 C310 1.402 . S
C310 C305 1.385 . S
C310 C309 1.402 . S
C310 H331 0.929 . S
C311 N276 1.421 . S
C311 C314 1.385 . S
C311 C315 1.371 . S
C312 C313 1.385 . S
C312 C316 1.401 . S
C312 H332 0.930 . S
C313 C312 1.385 . S
C313 C314 1.402 . S
C314 C311 1.385 . S
C314 C313 1.402 . S
C314 H333 0.929 . S
C315 C311 1.371 . S
C315 C316 1.367 . S
C315 H334 0.931 . S
C316 C312 1.401 . S
C316 C315 1.367 . S
H317 C271 0.931 . S
H318 C272 0.930 . S
H319 C273 0.929 . S
H320 C279 0.931 . S
H321 C280 0.930 . S
H322 C281 0.929 . S
H323 C293 0.928 . S
H324 C294 0.930 . S
H325 C296 0.930 1_545 S
H326 C300 0.930 . S
H327 C302 0.930 . S
H328 C304 0.928 . S
H329 C306 0.931 . S
H330 C308 0.930 . S
H331 C310 0.929 . S
H332 C312 0.930 . S
H333 C314 0.929 . S
H334 C315 0.931 . S
C335 O336 1.201 . S
C335 C337 1.493 . S
C335 N352 1.318 . S
O336 C335 1.201 . S
C337 C335 1.493 . S
C337 C338 1.381 . S
C337 N342 1.335 . S
C338 C337 1.381 . S
C338 C339 1.411 . S
C338 H384 0.931 . S
C339 C338 1.411 . S
C339 C340 1.384 . S
C339 H385 0.930 . S
C340 C339 1.384 . S
C340 C341 1.376 . S
C340 H386 0.929 . S
C341 C340 1.376 . S
C341 N342 1.330 . S
C341 C356 1.484 . S
N342 C337 1.335 . S
N342 C341 1.330 . S
N342 Co344 1.859 . S
N343 Co344 1.962 . S
N343 C354 1.318 . S
N343 C378 1.421 . S
Co344 N342 1.859 . S
Co344 N343 1.962 . S
Co344 N345 1.859 . S
Co344 N351 1.958 . S
Co344 N352 1.962 . S
Co344 N353 1.958 . S
N345 Co344 1.859 . S
N345 C349 1.330 . S
N345 C350 1.335 . S
C346 C347 1.411 . S
C346 C350 1.381 . S
C346 H387 0.931 . S
C347 C346 1.411 . S
C347 C348 1.384 . S
C347 H388 0.930 . S
C348 C347 1.384 . S
C348 C349 1.376 . S
C348 H389 0.929 . S
C349 N345 1.330 . S
C349 C348 1.376 . S
C349 C364 1.484 . S
C350 N345 1.335 . S
C350 C346 1.381 . S
C350 C354 1.493 . S
N351 Co344 1.958 . S
N351 C364 1.344 . S
N351 C366 1.425 . S
N352 C335 1.318 . S
N352 Co344 1.962 . S
N352 C372 1.421 . S
N353 Co344 1.958 . S
N353 C356 1.344 . S
N353 C358 1.425 . S
C354 N343 1.318 . S
C354 C350 1.493 . S
C354 O355 1.201 . S
O355 C354 1.201 . S
C356 C341 1.484 . S
C356 N353 1.344 . S
C356 O357 1.268 . S
O357 C356 1.268 . S
C358 N353 1.425 . S
C358 C360 1.392 . S
C358 C361 1.368 . S
C359 C360 1.382 . S
C359 C363 1.386 . S
C360 C358 1.392 . S
C360 C359 1.382 . S
C360 H390 0.928 . S
C361 C358 1.368 . S
C361 C362 1.367 . S
C361 H391 0.930 . S
C362 C361 1.367 . S
C362 C363 1.369 . S
C363 C359 1.386 . S
C363 C362 1.369 . S
C363 H392 0.930 . S
C364 C349 1.484 . S
C364 N351 1.344 . S
C364 O365 1.268 . S
O365 C364 1.268 . S
C366 N351 1.425 . S
C366 C367 1.368 . S
C366 C371 1.392 . S
C367 C366 1.368 . S
C367 C368 1.367 . S
C367 H393 0.930 . S
C368 C367 1.367 . S
C368 C369 1.369 . S
C369 C368 1.369 . S
C369 C370 1.386 1_545 S
C369 H394 0.930 1_545 S
C370 C369 1.386 1_565 S
C370 C371 1.382 1_565 S
C371 C366 1.392 . S
C371 C370 1.382 1_545 S
C371 H395 0.928 . S
C372 N352 1.421 . S
C372 C373 1.371 . S
C372 C377 1.385 . S
C373 C372 1.371 . S
C373 C374 1.367 . S
C373 H396 0.931 . S
C374 C373 1.367 . S
C374 C375 1.401 . S
C375 C374 1.401 . S
C375 C376 1.385 . S
C375 H397 0.930 . S
C376 C375 1.385 . S
C376 C377 1.402 . S
C377 C372 1.385 . S
C377 C376 1.402 . S
C377 H398 0.929 . S
C378 N343 1.421 . S
C378 C381 1.385 . S
C378 C382 1.371 . S
C379 C380 1.385 . S
C379 C383 1.401 . S
C379 H399 0.930 . S
C380 C379 1.385 . S
C380 C381 1.402 . S
C381 C378 1.385 . S
C381 C380 1.402 . S
C381 H400 0.929 . S
C382 C378 1.371 . S
C382 C383 1.367 . S
C382 H401 0.931 . S
C383 C379 1.401 . S
C383 C382 1.367 . S
H384 C338 0.931 . S
H385 C339 0.930 . S
H386 C340 0.929 . S
H387 C346 0.931 . S
H388 C347 0.930 . S
H389 C348 0.929 . S
H390 C360 0.928 . S
H391 C361 0.930 . S
H392 C363 0.930 . S
H393 C367 0.930 . S
H394 C369 0.930 1_565 S
H395 C371 0.928 . S
H396 C373 0.931 . S
H397 C375 0.930 . S
H398 C377 0.929 . S
H399 C379 0.930 . S
H400 C381 0.929 . S
H401 C382 0.931 . S
C402 O403 1.201 . S
C402 C404 1.493 . S
C402 N419 1.318 . S
O403 C402 1.201 . S
C404 C402 1.493 . S
C404 C405 1.381 . S
C404 N409 1.335 . S
C405 C404 1.381 . S
C405 C406 1.411 . S
C405 H451 0.931 . S
C406 C405 1.411 . S
C406 C407 1.384 . S
C406 H452 0.930 . S
C407 C406 1.384 . S
C407 C408 1.376 . S
C407 H453 0.929 . S
C408 C407 1.376 . S
C408 N409 1.330 . S
C408 C423 1.484 1_565 S
N409 C404 1.335 . S
N409 C408 1.330 . S
N409 Co411 1.859 1_565 S
N410 Co411 1.962 . S
N410 C421 1.318 . S
N410 C445 1.421 . S
Co411 N409 1.859 1_545 S
Co411 N410 1.962 . S
Co411 N412 1.859 . S
Co411 N418 1.958 1_545 S
Co411 N419 1.962 1_545 S
Co411 N420 1.958 . S
N412 Co411 1.859 . S
N412 C416 1.330 . S
N412 C417 1.335 . S
C413 C414 1.411 . S
C413 C417 1.381 . S
C413 H454 0.931 . S
C414 C413 1.411 . S
C414 C415 1.384 . S
C414 H455 0.930 . S
C415 C414 1.384 . S
C415 C416 1.376 . S
C415 H456 0.929 . S
C416 N412 1.330 . S
C416 C415 1.376 . S
C416 C431 1.484 1_545 S
C417 N412 1.335 . S
C417 C413 1.381 . S
C417 C421 1.493 . S
N418 Co411 1.958 1_565 S
N418 C431 1.344 . S
N418 C433 1.425 . S
N419 C402 1.318 . S
N419 Co411 1.962 1_565 S
N419 C439 1.421 . S
N420 Co411 1.958 . S
N420 C423 1.344 . S
N420 C425 1.425 . S
C421 N410 1.318 . S
C421 C417 1.493 . S
C421 O422 1.201 . S
O422 C421 1.201 . S
C423 C408 1.484 1_545 S
C423 N420 1.344 . S
C423 O424 1.268 . S
O424 C423 1.268 . S
C425 N420 1.425 . S
C425 C427 1.392 . S
C425 C428 1.368 . S
C426 C427 1.382 . S
C426 C430 1.386 . S
C427 C425 1.392 . S
C427 C426 1.382 . S
C427 H457 0.928 . S
C428 C425 1.368 . S
C428 C429 1.367 . S
C428 H458 0.930 . S
C429 C428 1.367 . S
C429 C430 1.369 . S
C430 C426 1.386 . S
C430 C429 1.369 . S
C430 H459 0.930 . S
C431 C416 1.484 1_565 S
C431 N418 1.344 . S
C431 O432 1.268 . S
O432 C431 1.268 . S
C433 N418 1.425 . S
C433 C434 1.368 . S
C433 C438 1.392 . S
C434 C433 1.368 . S
C434 C435 1.367 . S
C434 H460 0.930 . S
C435 C434 1.367 . S
C435 C436 1.369 . S
C436 C435 1.369 . S
C436 C437 1.386 . S
C436 H461 0.930 . S
C437 C436 1.386 . S
C437 C438 1.382 . S
C438 C433 1.392 . S
C438 C437 1.382 . S
C438 H462 0.928 . S
C439 N419 1.421 . S
C439 C440 1.371 . S
C439 C444 1.385 . S
C440 C439 1.371 . S
C440 C441 1.367 . S
C440 H463 0.931 . S
C441 C440 1.367 . S
C441 C442 1.401 . S
C442 C441 1.401 . S
C442 C443 1.385 . S
C442 H464 0.930 . S
C443 C442 1.385 . S
C443 C444 1.402 . S
C444 C439 1.385 . S
C444 C443 1.402 . S
C444 H465 0.929 . S
C445 N410 1.421 . S
C445 C448 1.385 . S
C445 C449 1.371 . S
C446 C447 1.385 . S
C446 C450 1.401 . S
C446 H466 0.930 . S
C447 C446 1.385 . S
C447 C448 1.402 . S
C448 C445 1.385 . S
C448 C447 1.402 . S
C448 H467 0.929 . S
C449 C445 1.371 . S
C449 C450 1.367 . S
C449 H468 0.931 . S
C450 C446 1.401 . S
C450 C449 1.367 . S
H451 C405 0.931 . S
H452 C406 0.930 . S
H453 C407 0.929 . S
H454 C413 0.931 . S
H455 C414 0.930 . S
H456 C415 0.929 . S
H457 C427 0.928 . S
H458 C428 0.930 . S
H459 C430 0.930 . S
H460 C434 0.930 . S
H461 C436 0.930 . S
H462 C438 0.928 . S
H463 C440 0.931 . S
H464 C442 0.930 . S
H465 C444 0.929 . S
H466 C446 0.930 . S
H467 C448 0.929 . S
H468 C449 0.931 . S
C469 O470 1.201 . S
C469 C471 1.493 . S
C469 N486 1.318 . S
O470 C469 1.201 . S
C471 C469 1.493 . S
C471 C472 1.381 . S
C471 N476 1.335 1_554 S
C472 C471 1.381 . S
C472 C473 1.411 1_554 S
C472 H518 0.931 . S
C473 C472 1.411 1_556 S
C473 C474 1.384 . S
C473 H519 0.930 . S
C474 C473 1.384 . S
C474 C475 1.376 . S
C474 H520 0.929 . S
C475 C474 1.376 . S
C475 N476 1.330 . S
C475 C490 1.484 . S
N476 C471 1.335 1_556 S
N476 C475 1.330 . S
N476 Co478 1.859 . S
N477 Co478 1.962 1_554 S
N477 C488 1.318 . S
N477 C512 1.421 . S
Co478 N476 1.859 . S
Co478 N477 1.962 1_556 S
Co478 N479 1.859 . S
Co478 N485 1.958 . S
Co478 N486 1.962 1_556 S
Co478 N487 1.958 . S
N479 Co478 1.859 . S
N479 C483 1.330 . S
N479 C484 1.335 1_556 S
C480 C481 1.411 1_554 S
C480 C484 1.381 . S
C480 H521 0.931 . S
C481 C480 1.411 1_556 S
C481 C482 1.384 . S
C481 H522 0.930 . S
C482 C481 1.384 . S
C482 C483 1.376 . S
C482 H523 0.929 . S
C483 N479 1.330 . S
C483 C482 1.376 . S
C483 C498 1.484 . S
C484 N479 1.335 1_554 S
C484 C480 1.381 . S
C484 C488 1.493 . S
N485 Co478 1.958 . S
N485 C498 1.344 . S
N485 C500 1.425 . S
N486 C469 1.318 . S
N486 Co478 1.962 1_554 S
N486 C506 1.421 . S
N487 Co478 1.958 . S
N487 C490 1.344 . S
N487 C492 1.425 . S
C488 N477 1.318 . S
C488 C484 1.493 . S
C488 O489 1.201 . S
O489 C488 1.201 . S
C490 C475 1.484 . S
C490 N487 1.344 . S
C490 O491 1.268 . S
O491 C490 1.268 . S
C492 N487 1.425 . S
C492 C494 1.392 . S
C492 C495 1.368 . S
C493 C494 1.382 . S
C493 C497 1.386 . S
C494 C492 1.392 . S
C494 C493 1.382 . S
C494 H524 0.928 . S
C495 C492 1.368 . S
C495 C496 1.367 . S
C495 H525 0.930 . S
C496 C495 1.367 . S
C496 C497 1.369 . S
C497 C493 1.386 . S
C497 C496 1.369 . S
C497 H526 0.930 . S
C498 C483 1.484 . S
C498 N485 1.344 . S
C498 O499 1.268 . S
O499 C498 1.268 . S
C500 N485 1.425 . S
C500 C501 1.368 . S
C500 C505 1.392 . S
C501 C500 1.368 . S
C501 C502 1.367 . S
C501 H527 0.930 . S
C502 C501 1.367 . S
C502 C503 1.369 . S
C503 C502 1.369 . S
C503 C504 1.386 . S
C503 H528 0.930 . S
C504 C503 1.386 . S
C504 C505 1.382 . S
C505 C500 1.392 . S
C505 C504 1.382 . S
C505 H529 0.928 . S
C506 N486 1.421 . S
C506 C507 1.371 . S
C506 C511 1.385 . S
C507 C506 1.371 . S
C507 C508 1.367 . S
C507 H530 0.931 . S
C508 C507 1.367 . S
C508 C509 1.401 . S
C509 C508 1.401 . S
C509 C510 1.385 . S
C509 H531 0.930 . S
C510 C509 1.385 . S
C510 C511 1.402 . S
C511 C506 1.385 . S
C511 C510 1.402 . S
C511 H532 0.929 . S
C512 N477 1.421 . S
C512 C515 1.385 . S
C512 C516 1.371 . S
C513 C514 1.385 . S
C513 C517 1.401 . S
C513 H533 0.930 . S
C514 C513 1.385 . S
C514 C515 1.402 . S
C515 C512 1.385 . S
C515 C514 1.402 . S
C515 H534 0.929 . S
C516 C512 1.371 . S
C516 C517 1.367 . S
C516 H535 0.931 . S
C517 C513 1.401 . S
C517 C516 1.367 . S
H518 C472 0.931 . S
H519 C473 0.930 . S
H520 C474 0.929 . S
H521 C480 0.931 . S
H522 C481 0.930 . S
H523 C482 0.929 . S
H524 C494 0.928 . S
H525 C495 0.930 . S
H526 C497 0.930 . S
H527 C501 0.930 . S
H528 C503 0.930 . S
H529 C505 0.928 . S
H530 C507 0.931 . S
H531 C509 0.930 . S
H532 C511 0.929 . S
H533 C513 0.930 . S
H534 C515 0.929 . S
H535 C516 0.931 . S
H536 C542 0.930 . S
H537 C545 0.930 . S
H538 C546 0.930 1_565 S
H539 C547 0.930 . S
H540 C550 0.930 . S
H541 C551 0.930 . S
C542 H536 0.930 . S
C542 C543 1.355 . S
C542 C544 1.415 . S
C543 C542 1.355 . S
C543 C545 1.419 . S
C544 C542 1.415 . S
C544 C549 1.425 . S
C544 C551 1.409 . S
C545 H537 0.930 . S
C545 C543 1.419 . S
C545 C546 1.362 . S
C546 H538 0.930 1_545 S
C546 C545 1.362 . S
C546 C549 1.409 . S
C547 H539 0.930 . S
C547 C548 1.355 . S
C547 C549 1.415 . S
C548 C547 1.355 . S
C548 C550 1.419 . S
C549 C544 1.425 . S
C549 C546 1.409 . S
C549 C547 1.415 . S
C550 H540 0.930 . S
C550 C548 1.419 . S
C550 C551 1.362 . S
C551 H541 0.930 . S
C551 C544 1.409 . S
C551 C550 1.362 . S
H552 C558 0.930 . S
H553 C561 0.930 . S
H554 C562 0.930 . S
H555 C563 0.930 . S
H556 C566 0.930 . S
H557 C567 0.930 . S
C558 H552 0.930 . S
C558 C559 1.355 . S
C558 C560 1.415 . S
C559 C558 1.355 . S
C559 C561 1.419 . S
C560 C558 1.415 . S
C560 C565 1.425 . S
C560 C567 1.409 . S
C561 H553 0.930 . S
C561 C559 1.419 . S
C561 C562 1.362 . S
C562 H554 0.930 . S
C562 C561 1.362 . S
C562 C565 1.409 . S
C563 H555 0.930 . S
C563 C564 1.355 . S
C563 C565 1.415 . S
C564 C563 1.355 . S
C564 C566 1.419 . S
C565 C560 1.425 . S
C565 C562 1.409 . S
C565 C563 1.415 . S
C566 H556 0.930 . S
C566 C564 1.419 . S
C566 C567 1.362 . S
C567 H557 0.930 . S
C567 C560 1.409 . S
C567 C566 1.362 . S
H568 C574 0.930 . S
H569 C577 0.930 . S
H570 C578 0.930 . S
H571 C579 0.930 . S
H572 C582 0.930 . S
H573 C583 0.930 . S
C574 H568 0.930 . S
C574 C575 1.355 . S
C574 C576 1.415 . S
C575 C574 1.355 . S
C575 C577 1.419 . S
C576 C574 1.415 . S
C576 C581 1.425 . S
C576 C583 1.409 . S
C577 H569 0.930 . S
C577 C575 1.419 . S
C577 C578 1.362 . S
C578 H570 0.930 . S
C578 C577 1.362 . S
C578 C581 1.409 . S
C579 H571 0.930 . S
C579 C580 1.355 . S
C579 C581 1.415 . S
C580 C579 1.355 . S
C580 C582 1.419 . S
C581 C576 1.425 . S
C581 C578 1.409 . S
C581 C579 1.415 . S
C582 H572 0.930 . S
C582 C580 1.419 . S
C582 C583 1.362 . S
C583 H573 0.930 . S
C583 C576 1.409 . S
C583 C582 1.362 . S
H584 C590 0.930 . S
H585 C593 0.930 . S
H586 C594 0.930 . S
H587 C595 0.930 . S
H588 C598 0.930 . S
H589 C599 0.930 . S
C590 H584 0.930 . S
C590 C591 1.355 . S
C590 C592 1.415 . S
C591 C590 1.355 . S
C591 C593 1.419 . S
C592 C590 1.415 . S
C592 C597 1.425 . S
C592 C599 1.409 . S
C593 H585 0.930 . S
C593 C591 1.419 . S
C593 C594 1.362 . S
C594 H586 0.930 . S
C594 C593 1.362 . S
C594 C597 1.409 . S
C595 H587 0.930 . S
C595 C596 1.355 . S
C595 C597 1.415 . S
C596 C595 1.355 . S
C596 C598 1.419 . S
C597 C592 1.425 . S
C597 C594 1.409 . S
C597 C595 1.415 . S
C598 H588 0.930 . S
C598 C596 1.419 . S
C598 C599 1.362 . S
C599 H589 0.930 . S
C599 C592 1.409 . S
C599 C598 1.362 . S
H600 C606 0.930 . S
H601 C609 0.930 . S
H602 C610 0.930 . S
H603 C611 0.930 . S
H604 C614 0.930 . S
H605 C615 0.930 . S
C606 H600 0.930 . S
C606 C607 1.355 . S
C606 C608 1.415 . S
C607 C606 1.355 . S
C607 C609 1.419 . S
C608 C606 1.415 . S
C608 C613 1.425 . S
C608 C615 1.409 . S
C609 H601 0.930 . S
C609 C607 1.419 . S
C609 C610 1.362 . S
C610 H602 0.930 . S
C610 C609 1.362 . S
C610 C613 1.409 . S
C611 H603 0.930 . S
C611 C612 1.355 . S
C611 C613 1.415 . S
C612 C611 1.355 . S
C612 C614 1.419 . S
C613 C608 1.425 . S
C613 C610 1.409 . S
C613 C611 1.415 . S
C614 H604 0.930 . S
C614 C612 1.419 . S
C614 C615 1.362 . S
C615 H605 0.930 . S
C615 C608 1.409 . S
C615 C614 1.362 . S
H616 C622 0.930 . S
H617 C625 0.930 . S
H618 C626 0.930 . S
H619 C627 0.930 . S
H620 C630 0.930 . S
H621 C631 0.930 . S
C622 H616 0.930 . S
C622 C623 1.355 . S
C622 C624 1.415 . S
C623 C622 1.355 . S
C623 C625 1.419 . S
C624 C622 1.415 . S
C624 C629 1.425 . S
C624 C631 1.409 . S
C625 H617 0.930 . S
C625 C623 1.419 . S
C625 C626 1.362 . S
C626 H618 0.930 . S
C626 C625 1.362 . S
C626 C629 1.409 . S
C627 H619 0.930 . S
C627 C628 1.355 . S
C627 C629 1.415 . S
C628 C627 1.355 . S
C628 C630 1.419 . S
C629 C624 1.425 . S
C629 C626 1.409 . S
C629 C627 1.415 . S
C630 H620 0.930 . S
C630 C628 1.419 . S
C630 C631 1.362 . S
C631 H621 0.930 . S
C631 C624 1.409 . S
C631 C630 1.362 . S
H632 C638 0.930 . S
H633 C641 0.930 . S
H634 C642 0.930 . S
H635 C643 0.930 . S
H636 C646 0.930 . S
H637 C647 0.930 . S
C638 H632 0.930 . S
C638 C639 1.355 . S
C638 C640 1.415 . S
C639 C638 1.355 . S
C639 C641 1.419 . S
C640 C638 1.415 . S
C640 C645 1.425 . S
C640 C647 1.409 . S
C641 H633 0.930 . S
C641 C639 1.419 . S
C641 C642 1.362 . S
C642 H634 0.930 . S
C642 C641 1.362 . S
C642 C645 1.409 . S
C643 H635 0.930 . S
C643 C644 1.355 . S
C643 C645 1.415 . S
C644 C643 1.355 . S
C644 C646 1.419 . S
C645 C640 1.425 . S
C645 C642 1.409 . S
C645 C643 1.415 . S
C646 H636 0.930 . S
C646 C644 1.419 . S
C646 C647 1.362 . S
C647 H637 0.930 . S
C647 C640 1.409 . S
C647 C646 1.362 . S
H648 C654 0.930 . S
H649 C657 0.930 . S
H650 C658 0.930 . S
H651 C659 0.930 . S
H652 C662 0.930 . S
H653 C663 0.930 . S
C654 H648 0.930 . S
C654 C655 1.355 . S
C654 C656 1.415 . S
C655 C654 1.355 . S
C655 C657 1.419 . S
C656 C654 1.415 . S
C656 C661 1.425 . S
C656 C663 1.409 . S
C657 H649 0.930 . S
C657 C655 1.419 . S
C657 C658 1.362 . S
C658 H650 0.930 . S
C658 C657 1.362 . S
C658 C661 1.409 . S
C659 H651 0.930 . S
C659 C660 1.355 . S
C659 C661 1.415 . S
C660 C659 1.355 . S
C660 C662 1.419 . S
C661 C656 1.425 . S
C661 C658 1.409 . S
C661 C659 1.415 . S
C662 H652 0.930 . S
C662 C660 1.419 . S
C662 C663 1.362 . S
C663 H653 0.930 . S
C663 C656 1.409 . S
C663 C662 1.362 . S
H664 C670 0.930 . S
H665 C673 0.930 . S
H666 C674 0.930 . S
H667 C675 0.930 . S
H668 C678 0.930 1_565 S
H669 C679 0.930 1_565 S
C670 H664 0.930 . S
C670 C671 1.355 . S
C670 C672 1.415 . S
C671 C670 1.355 . S
C671 C673 1.419 . S
C672 C670 1.415 . S
C672 C677 1.425 . S
C672 C679 1.409 . S
C673 H665 0.930 . S
C673 C671 1.419 . S
C673 C674 1.362 . S
C674 H666 0.930 . S
C674 C673 1.362 . S
C674 C677 1.409 . S
C675 H667 0.930 . S
C675 C676 1.355 . S
C675 C677 1.415 . S
C676 C675 1.355 . S
C676 C678 1.419 . S
C677 C672 1.425 . S
C677 C674 1.409 . S
C677 C675 1.415 . S
C678 H668 0.930 1_545 S
C678 C676 1.419 . S
C678 C679 1.362 . S
C679 H669 0.930 1_545 S
C679 C672 1.409 . S
C679 C678 1.362 . S
H680 C686 0.930 . S
H681 C689 0.930 . S
H682 C690 0.930 1_545 S
H683 C691 0.930 . S
H684 C694 0.930 . S
H685 C695 0.930 . S
C686 H680 0.930 . S
C686 C687 1.355 . S
C686 C688 1.415 . S
C687 C686 1.355 . S
C687 C689 1.419 . S
C688 C686 1.415 . S
C688 C693 1.425 . S
C688 C695 1.409 . S
C689 H681 0.930 . S
C689 C687 1.419 . S
C689 C690 1.362 . S
C690 H682 0.930 1_565 S
C690 C689 1.362 . S
C690 C693 1.409 . S
C691 H683 0.930 . S
C691 C692 1.355 . S
C691 C693 1.415 . S
C692 C691 1.355 . S
C692 C694 1.419 . S
C693 C688 1.425 . S
C693 C690 1.409 . S
C693 C691 1.415 . S
C694 H684 0.930 . S
C694 C692 1.419 . S
C694 C695 1.362 . S
C695 H685 0.930 . S
C695 C688 1.409 . S
C695 C694 1.362 . S
H696 C702 0.930 . S
H697 C705 0.930 . S
H698 C706 0.930 . S
H699 C707 0.930 . S
H700 C710 0.930 . S
H701 C711 0.930 . S
C702 H696 0.930 . S
C702 C703 1.355 . S
C702 C704 1.415 . S
C703 C702 1.355 . S
C703 C705 1.419 . S
C704 C702 1.415 . S
C704 C709 1.425 . S
C704 C711 1.409 . S
C705 H697 0.930 . S
C705 C703 1.419 . S
C705 C706 1.362 . S
C706 H698 0.930 . S
C706 C705 1.362 . S
C706 C709 1.409 . S
C707 H699 0.930 . S
C707 C708 1.355 . S
C707 C709 1.415 . S
C708 C707 1.355 . S
C708 C710 1.419 . S
C709 C704 1.425 . S
C709 C706 1.409 . S
C709 C707 1.415 . S
C710 H700 0.930 . S
C710 C708 1.419 . S
C710 C711 1.362 . S
C711 H701 0.930 . S
C711 C704 1.409 . S
C711 C710 1.362 . S
H712 C718 0.930 . S
H713 C721 0.930 . S
H714 C722 0.930 . S
H715 C723 0.930 . S
H716 C726 0.930 . S
H717 C727 0.930 . S
C718 H712 0.930 . S
C718 C719 1.355 . S
C718 C720 1.415 . S
C719 C718 1.355 . S
C719 C721 1.419 . S
C720 C718 1.415 . S
C720 C725 1.425 . S
C720 C727 1.409 . S
C721 H713 0.930 . S
C721 C719 1.419 . S
C721 C722 1.362 . S
C722 H714 0.930 . S
C722 C721 1.362 . S
C722 C725 1.409 . S
C723 H715 0.930 . S
C723 C724 1.355 . S
C723 C725 1.415 . S
C724 C723 1.355 . S
C724 C726 1.419 . S
C725 C720 1.425 . S
C725 C722 1.409 . S
C725 C723 1.415 . S
C726 H716 0.930 . S
C726 C724 1.419 . S
C726 C727 1.362 . S
C727 H717 0.930 . S
C727 C720 1.409 . S
C727 C726 1.362 . S
H728 C734 0.930 . S
H729 C737 0.930 . S
H730 C738 0.930 . S
H731 C739 0.930 . S
H732 C742 0.930 . S
H733 C743 0.930 . S
C734 H728 0.930 . S
C734 C735 1.355 . S
C734 C736 1.415 . S
C735 C734 1.355 . S
C735 C737 1.419 . S
C736 C734 1.415 . S
C736 C741 1.425 . S
C736 C743 1.409 . S
C737 H729 0.930 . S
C737 C735 1.419 . S
C737 C738 1.362 . S
C738 H730 0.930 . S
C738 C737 1.362 . S
C738 C741 1.409 . S
C739 H731 0.930 . S
C739 C740 1.355 . S
C739 C741 1.415 . S
C740 C739 1.355 . S
C740 C742 1.419 . S
C741 C736 1.425 . S
C741 C738 1.409 . S
C741 C739 1.415 . S
C742 H732 0.930 . S
C742 C740 1.419 . S
C742 C743 1.362 . S
C743 H733 0.930 . S
C743 C736 1.409 . S
C743 C742 1.362 . S
H744 C750 0.930 . S
H745 C753 0.930 . S
H746 C754 0.930 . S
H747 C755 0.930 . S
H748 C758 0.930 . S
H749 C759 0.930 . S
C750 H744 0.930 . S
C750 C751 1.355 . S
C750 C752 1.415 . S
C751 C750 1.355 . S
C751 C753 1.419 . S
C752 C750 1.415 . S
C752 C757 1.425 . S
C752 C759 1.409 . S
C753 H745 0.930 . S
C753 C751 1.419 . S
C753 C754 1.362 . S
C754 H746 0.930 . S
C754 C753 1.362 . S
C754 C757 1.409 . S
C755 H747 0.930 . S
C755 C756 1.355 . S
C755 C757 1.415 . S
C756 C755 1.355 . S
C756 C758 1.419 . S
C757 C752 1.425 . S
C757 C754 1.409 . S
C757 C755 1.415 . S
C758 H748 0.930 . S
C758 C756 1.419 . S
C758 C759 1.362 . S
C759 H749 0.930 . S
C759 C752 1.409 . S
C759 C758 1.362 . S
H760 C766 0.930 . S
H761 C769 0.930 . S
H762 C770 0.930 . S
H763 C771 0.930 . S
H764 C774 0.930 . S
H765 C775 0.930 . S
C766 H760 0.930 . S
C766 C767 1.355 . S
C766 C768 1.415 . S
C767 C766 1.355 . S
C767 C769 1.419 . S
C768 C766 1.415 . S
C768 C773 1.425 . S
C768 C775 1.409 . S
C769 H761 0.930 . S
C769 C767 1.419 . S
C769 C770 1.362 . S
C770 H762 0.930 . S
C770 C769 1.362 . S
C770 C773 1.409 . S
C771 H763 0.930 . S
C771 C772 1.355 . S
C771 C773 1.415 . S
C772 C771 1.355 . S
C772 C774 1.419 . S
C773 C768 1.425 . S
C773 C770 1.409 . S
C773 C771 1.415 . S
C774 H764 0.930 . S
C774 C772 1.419 . S
C774 C775 1.362 . S
C775 H765 0.930 . S
C775 C768 1.409 . S
C775 C774 1.362 . S
H776 C782 0.930 . S
H777 C785 0.930 . S
H778 C786 0.930 . S
H779 C787 0.930 . S
H780 C790 0.930 . S
H781 C791 0.930 . S
C782 H776 0.930 . S
C782 C783 1.355 . S
C782 C784 1.415 . S
C783 C782 1.355 . S
C783 C785 1.419 . S
C784 C782 1.415 . S
C784 C789 1.425 . S
C784 C791 1.409 . S
C785 H777 0.930 . S
C785 C783 1.419 . S
C785 C786 1.362 . S
C786 H778 0.930 . S
C786 C785 1.362 . S
C786 C789 1.409 . S
C787 H779 0.930 . S
C787 C788 1.355 . S
C787 C789 1.415 . S
C788 C787 1.355 . S
C788 C790 1.419 . S
C789 C784 1.425 . S
C789 C786 1.409 . S
C789 C787 1.415 . S
C790 H780 0.930 . S
C790 C788 1.419 . S
C790 C791 1.362 . S
C791 H781 0.930 . S
C791 C784 1.409 . S
C791 C790 1.362 . S
H792 C798 0.930 . S
H793 C801 0.930 . S
H794 C802 0.930 . S
H795 C803 0.930 . S
H796 C806 0.930 . S
H797 C807 0.930 . S
C798 H792 0.930 . S
C798 C799 1.355 1_655 S
C798 C800 1.415 . S
C799 C798 1.355 1_455 S
C799 C801 1.419 . S
C800 C798 1.415 . S
C800 C805 1.425 1_655 S
C800 C807 1.409 . S
C801 H793 0.930 . S
C801 C799 1.419 . S
C801 C802 1.362 . S
C802 H794 0.930 . S
C802 C801 1.362 . S
C802 C805 1.409 . S
C803 H795 0.930 . S
C803 C804 1.355 1_455 S
C803 C805 1.415 . S
C804 C803 1.355 1_655 S
C804 C806 1.419 . S
C805 C800 1.425 1_455 S
C805 C802 1.409 . S
C805 C803 1.415 . S
C806 H796 0.930 . S
C806 C804 1.419 . S
C806 C807 1.362 . S
C807 H797 0.930 . S
C807 C800 1.409 . S
C807 C806 1.362 . S
H808 C814 0.930 . S
H809 C817 0.930 . S
H810 C818 0.930 . S
H811 C819 0.930 . S
H812 C822 0.930 . S
H813 C823 0.930 . S
C814 H808 0.930 . S
C814 C815 1.355 . S
C814 C816 1.415 . S
C815 C814 1.355 . S
C815 C817 1.419 . S
C816 C814 1.415 . S
C816 C821 1.425 . S
C816 C823 1.409 . S
C817 H809 0.930 . S
C817 C815 1.419 . S
C817 C818 1.362 . S
C818 H810 0.930 . S
C818 C817 1.362 . S
C818 C821 1.409 . S
C819 H811 0.930 . S
C819 C820 1.355 . S
C819 C821 1.415 . S
C820 C819 1.355 . S
C820 C822 1.419 . S
C821 C816 1.425 . S
C821 C818 1.409 . S
C821 C819 1.415 . S
C822 H812 0.930 . S
C822 C820 1.419 . S
C822 C823 1.362 . S
C823 H813 0.930 . S
C823 C816 1.409 . S
C823 C822 1.362 . S
H824 C830 0.930 . S
H825 C833 0.930 . S
H826 C834 0.930 . S
H827 C835 0.930 . S
H828 C838 0.930 . S
H829 C839 0.930 . S
C830 H824 0.930 . S
C830 C831 1.355 . S
C830 C832 1.415 . S
C831 C830 1.355 . S
C831 C833 1.419 . S
C832 C830 1.415 . S
C832 C837 1.425 . S
C832 C839 1.409 . S
C833 H825 0.930 . S
C833 C831 1.419 . S
C833 C834 1.362 . S
C834 H826 0.930 . S
C834 C833 1.362 . S
C834 C837 1.409 . S
C835 H827 0.930 . S
C835 C836 1.355 . S
C835 C837 1.415 . S
C836 C835 1.355 . S
C836 C838 1.419 . S
C837 C832 1.425 . S
C837 C834 1.409 . S
C837 C835 1.415 . S
C838 H828 0.930 . S
C838 C836 1.419 . S
C838 C839 1.362 . S
C839 H829 0.930 . S
C839 C832 1.409 . S
C839 C838 1.362 . S
H840 C846 0.930 . S
H841 C849 0.930 . S
H842 C850 0.930 . S
H843 C851 0.930 . S
H844 C854 0.930 . S
H845 C855 0.930 . S
C846 H840 0.930 . S
C846 C847 1.355 . S
C846 C848 1.415 . S
C847 C846 1.355 . S
C847 C849 1.419 1_655 S
C848 C846 1.415 . S
C848 C853 1.425 1_665 S
C848 C855 1.409 1_565 S
C849 H841 0.930 . S
C849 C847 1.419 1_455 S
C849 C850 1.362 . S
C850 H842 0.930 . S
C850 C849 1.362 . S
C850 C853 1.409 1_565 S
C851 H843 0.930 . S
C851 C852 1.355 . S
C851 C853 1.415 . S
C852 C851 1.355 . S
C852 C854 1.419 1_455 S
C853 C848 1.425 1_445 S
C853 C850 1.409 1_545 S
C853 C851 1.415 . S
C854 H844 0.930 . S
C854 C852 1.419 1_655 S
C854 C855 1.362 . S
C855 H845 0.930 . S
C855 C848 1.409 1_545 S
C855 C854 1.362 . S
H856 C862 0.930 . S
H857 C865 0.930 . S
H858 C866 0.930 . S
H859 C867 0.930 . S
H860 C870 0.930 . S
H861 C871 0.930 . S
C862 H856 0.930 . S
C862 C863 1.355 . S
C862 C864 1.415 . S
C863 C862 1.355 . S
C863 C865 1.419 . S
C864 C862 1.415 . S
C864 C869 1.425 . S
C864 C871 1.409 . S
C865 H857 0.930 . S
C865 C863 1.419 . S
C865 C866 1.362 . S
C866 H858 0.930 . S
C866 C865 1.362 . S
C866 C869 1.409 . S
C867 H859 0.930 . S
C867 C868 1.355 . S
C867 C869 1.415 . S
C868 C867 1.355 . S
C868 C870 1.419 . S
C869 C864 1.425 . S
C869 C866 1.409 . S
C869 C867 1.415 . S
C870 H860 0.930 . S
C870 C868 1.419 . S
C870 C871 1.362 . S
C871 H861 0.930 . S
C871 C864 1.409 . S
C871 C870 1.362 . S
H872 C878 0.930 . S
H873 C881 0.930 . S
H874 C882 0.930 . S
H875 C883 0.930 . S
H876 C886 0.930 . S
H877 C887 0.930 . S
C878 H872 0.930 . S
C878 C879 1.355 . S
C878 C880 1.415 . S
C879 C878 1.355 . S
C879 C881 1.419 . S
C880 C878 1.415 . S
C880 C885 1.425 . S
C880 C887 1.409 . S
C881 H873 0.930 . S
C881 C879 1.419 . S
C881 C882 1.362 . S
C882 H874 0.930 . S
C882 C881 1.362 . S
C882 C885 1.409 . S
C883 H875 0.930 . S
C883 C884 1.355 . S
C883 C885 1.415 . S
C884 C883 1.355 . S
C884 C886 1.419 . S
C885 C880 1.425 . S
C885 C882 1.409 . S
C885 C883 1.415 . S
C886 H876 0.930 . S
C886 C884 1.419 . S
C886 C887 1.362 . S
C887 H877 0.930 . S
C887 C880 1.409 . S
C887 C886 1.362 . S
H888 C894 0.930 . S
H889 C897 0.930 . S
H890 C898 0.930 . S
H891 C899 0.930 . S
H892 C902 0.930 . S
H893 C903 0.930 . S
C894 H888 0.930 . S
C894 C895 1.355 . S
C894 C896 1.415 . S
C895 C894 1.355 . S
C895 C897 1.419 . S
C896 C894 1.415 . S
C896 C901 1.425 . S
C896 C903 1.409 . S
C897 H889 0.930 . S
C897 C895 1.419 . S
C897 C898 1.362 . S
C898 H890 0.930 . S
C898 C897 1.362 . S
C898 C901 1.409 . S
C899 H891 0.930 . S
C899 C900 1.355 . S
C899 C901 1.415 . S
C900 C899 1.355 . S
C900 C902 1.419 . S
C901 C896 1.425 . S
C901 C898 1.409 . S
C901 C899 1.415 . S
C902 H892 0.930 . S
C902 C900 1.419 . S
C902 C903 1.362 . S
C903 H893 0.930 . S
C903 C896 1.409 . S
C903 C902 1.362 . S
H904 C910 0.930 . S
H905 C913 0.930 . S
H906 C914 0.930 . S
H907 C915 0.930 . S
H908 C918 0.930 . S
H909 C919 0.930 . S
C910 H904 0.930 . S
C910 C911 1.355 . S
C910 C912 1.415 . S
C911 C910 1.355 . S
C911 C913 1.419 . S
C912 C910 1.415 . S
C912 C917 1.425 1_565 S
C912 C919 1.409 1_565 S
C913 H905 0.930 . S
C913 C911 1.419 . S
C913 C914 1.362 . S
C914 H906 0.930 . S
C914 C913 1.362 . S
C914 C917 1.409 1_565 S
C915 H907 0.930 . S
C915 C916 1.355 . S
C915 C917 1.415 . S
C916 C915 1.355 . S
C916 C918 1.419 . S
C917 C912 1.425 1_545 S
C917 C914 1.409 1_545 S
C917 C915 1.415 . S
C918 H908 0.930 . S
C918 C916 1.419 . S
C918 C919 1.362 . S
C919 H909 0.930 . S
C919 C912 1.409 1_545 S
C919 C918 1.362 . S
H920 C926 0.930 . S
H921 C929 0.930 . S
H922 C930 0.930 . S
H923 C931 0.930 . S
H924 C934 0.930 . S
H925 C935 0.930 . S
C926 H920 0.930 . S
C926 C927 1.355 . S
C926 C928 1.415 . S
C927 C926 1.355 . S
C927 C929 1.419 . S
C928 C926 1.415 . S
C928 C933 1.425 . S
C928 C935 1.409 . S
C929 H921 0.930 . S
C929 C927 1.419 . S
C929 C930 1.362 . S
C930 H922 0.930 . S
C930 C929 1.362 . S
C930 C933 1.409 . S
C931 H923 0.930 . S
C931 C932 1.355 . S
C931 C933 1.415 . S
C932 C931 1.355 . S
C932 C934 1.419 . S
C933 C928 1.425 . S
C933 C930 1.409 . S
C933 C931 1.415 . S
C934 H924 0.930 . S
C934 C932 1.419 . S
C934 C935 1.362 . S
C935 H925 0.930 . S
C935 C928 1.409 . S
C935 C934 1.362 . S
H936 C942 0.930 . S
H937 C945 0.930 . S
H938 C946 0.930 . S
H939 C947 0.930 . S
H940 C950 0.930 . S
H941 C951 0.930 . S
C942 H936 0.930 . S
C942 C943 1.355 . S
C942 C944 1.415 . S
C943 C942 1.355 . S
C943 C945 1.419 . S
C944 C942 1.415 . S
C944 C949 1.425 . S
C944 C951 1.409 . S
C945 H937 0.930 . S
C945 C943 1.419 . S
C945 C946 1.362 . S
C946 H938 0.930 . S
C946 C945 1.362 . S
C946 C949 1.409 . S
C947 H939 0.930 . S
C947 C948 1.355 . S
C947 C949 1.415 . S
C948 C947 1.355 . S
C948 C950 1.419 . S
C949 C944 1.425 . S
C949 C946 1.409 . S
C949 C947 1.415 . S
C950 H940 0.930 . S
C950 C948 1.419 . S
C950 C951 1.362 . S
C951 H941 0.930 . S
C951 C944 1.409 . S
C951 C950 1.362 . S
H952 C958 0.930 . S
H953 C961 0.930 . S
H954 C962 0.930 . S
H955 C963 0.930 . S
H956 C966 0.930 . S
H957 C967 0.930 . S
C958 H952 0.930 . S
C958 C959 1.355 . S
C958 C960 1.397 1_455 S
C959 C958 1.355 . S
C959 C961 1.419 . S
C960 C958 1.397 1_655 S
C960 C965 1.424 1_655 S
C960 C967 1.428 . S
C961 H953 0.930 . S
C961 C959 1.419 . S
C961 C962 1.362 . S
C962 H954 0.930 . S
C962 C961 1.362 . S
C962 C965 1.428 . S
C963 H955 0.930 . S
C963 C964 1.355 . S
C963 C965 1.397 1_655 S
C964 C963 1.355 . S
C964 C966 1.419 . S
C965 C960 1.424 1_455 S
C965 C962 1.428 . S
C965 C963 1.397 1_455 S
C966 H956 0.930 . S
C966 C964 1.419 . S
C966 C967 1.362 . S
C967 H957 0.930 . S
C967 C960 1.428 . S
C967 C966 1.362 . S
H968 C974 0.930 . S
H969 C977 0.930 . S
H970 C978 0.930 . S
H971 C979 0.930 . S
H972 C982 0.930 . S
H973 C983 0.930 . S
C974 H968 0.930 . S
C974 C975 1.355 . S
C974 C976 1.415 . S
C975 C974 1.355 . S
C975 C977 1.419 . S
C976 C974 1.415 . S
C976 C981 1.425 . S
C976 C983 1.409 . S
C977 H969 0.930 . S
C977 C975 1.419 . S
C977 C978 1.362 . S
C978 H970 0.930 . S
C978 C977 1.362 . S
C978 C981 1.409 . S
C979 H971 0.930 . S
C979 C980 1.355 . S
C979 C981 1.415 . S
C980 C979 1.355 . S
C980 C982 1.419 . S
C981 C976 1.425 . S
C981 C978 1.409 . S
C981 C979 1.415 . S
C982 H972 0.930 . S
C982 C980 1.419 . S
C982 C983 1.362 . S
C983 H973 0.930 . S
C983 C976 1.409 . S
C983 C982 1.362 . S
H984 C990 0.930 . S
H985 C993 0.930 . S
H986 C994 0.930 . S
H987 C995 0.930 . S
H988 C998 0.930 . S
H989 C999 0.930 . S
C990 H984 0.930 . S
C990 C991 1.355 . S
C990 C992 1.415 . S
C991 C990 1.355 . S
C991 C993 1.419 . S
C992 C990 1.415 . S
C992 C997 1.425 . S
C992 C999 1.409 . S
C993 H985 0.930 . S
C993 C991 1.419 . S
C993 C994 1.362 . S
C994 H986 0.930 . S
C994 C993 1.362 . S
C994 C997 1.409 . S
C995 H987 0.930 . S
C995 C996 1.355 . S
C995 C997 1.415 . S
C996 C995 1.355 . S
C996 C998 1.419 . S
C997 C992 1.425 . S
C997 C994 1.409 . S
C997 C995 1.415 . S
C998 H988 0.930 . S
C998 C996 1.419 . S
C998 C999 1.362 . S
C999 H989 0.930 . S
C999 C992 1.409 . S
C999 C998 1.362 . S
H1000 C1006 0.930 . S
H1001 C1009 0.930 . S
H1002 C1010 0.930 . S
H1003 C1011 0.930 . S
H1004 C1014 0.930 . S
H1005 C1015 0.930 . S
C1006 H1000 0.930 . S
C1006 C1007 1.355 . S
C1006 C1008 1.415 . S
C1007 C1006 1.355 . S
C1007 C1009 1.419 . S
C1008 C1006 1.415 . S
C1008 C1013 1.425 1_645 S
C1008 C1015 1.409 1_655 S
C1009 H1001 0.930 . S
C1009 C1007 1.419 . S
C1009 C1010 1.362 1_545 S
C1010 H1002 0.930 . S
C1010 C1009 1.362 1_565 S
C1010 C1013 1.409 1_655 S
C1011 H1003 0.930 . S
C1011 C1012 1.355 . S
C1011 C1013 1.415 . S
C1012 C1011 1.355 . S
C1012 C1014 1.419 . S
C1013 C1008 1.425 1_465 S
C1013 C1010 1.409 1_455 S
C1013 C1011 1.415 . S
C1014 H1004 0.930 . S
C1014 C1012 1.419 . S
C1014 C1015 1.362 1_565 S
C1015 H1005 0.930 . S
C1015 C1008 1.409 1_455 S
C1015 C1014 1.362 1_545 S
H1016 C1022 0.930 . S
H1017 C1025 0.930 . S
H1018 C1026 0.930 . S
H1019 C1027 0.930 . S
H1020 C1030 0.930 . S
H1021 C1031 0.930 . S
C1022 H1016 0.930 . S
C1022 C1023 1.355 . S
C1022 C1024 1.415 . S
C1023 C1022 1.355 . S
C1023 C1025 1.419 . S
C1024 C1022 1.415 . S
C1024 C1029 1.425 . S
C1024 C1031 1.409 . S
C1025 H1017 0.930 . S
C1025 C1023 1.419 . S
C1025 C1026 1.362 . S
C1026 H1018 0.930 . S
C1026 C1025 1.362 . S
C1026 C1029 1.409 . S
C1027 H1019 0.930 . S
C1027 C1028 1.355 . S
C1027 C1029 1.415 . S
C1028 C1027 1.355 . S
C1028 C1030 1.419 . S
C1029 C1024 1.425 . S
C1029 C1026 1.409 . S
C1029 C1027 1.415 . S
C1030 H1020 0.930 . S
C1030 C1028 1.419 . S
C1030 C1031 1.362 . S
C1031 H1021 0.930 . S
C1031 C1024 1.409 . S
C1031 C1030 1.362 . S
H1032 C1038 0.930 . S
H1033 C1041 0.930 1_545 S
H1034 C1042 0.930 . S
H1035 C1043 0.930 . S
H1036 C1046 0.930 1_565 S
H1037 C1047 0.930 . S
C1038 H1032 0.930 . S
C1038 C1039 1.355 . S
C1038 C1040 1.415 . S
C1039 C1038 1.355 . S
C1039 C1041 1.419 . S
C1040 C1038 1.415 . S
C1040 C1045 1.425 1_565 S
C1040 C1047 1.409 . S
C1041 H1033 0.930 1_565 S
C1041 C1039 1.419 . S
C1041 C1042 1.362 1_565 S
C1042 H1034 0.930 . S
C1042 C1041 1.362 1_545 S
C1042 C1045 1.409 . S
C1043 H1035 0.930 . S
C1043 C1044 1.355 . S
C1043 C1045 1.415 . S
C1044 C1043 1.355 . S
C1044 C1046 1.419 . S
C1045 C1040 1.425 1_545 S
C1045 C1042 1.409 . S
C1045 C1043 1.415 . S
C1046 H1036 0.930 1_545 S
C1046 C1044 1.419 . S
C1046 C1047 1.362 1_545 S
C1047 H1037 0.930 . S
C1047 C1040 1.409 . S
C1047 C1046 1.362 1_565 S
C543 C45 1.157 . S
C548 C100 1.204 . S
C559 C41 1.144 . S
C564 C161 1.202 . S
C575 C234 1.156 . S
C580 C112 1.139 . S
C591 C175 1.209 . S
C596 C228 1.166 . S
C607 C246 1.197 . S
C612 C301 1.128 . S
C623 C362 1.207 . S
C628 C242 1.154 . S
C639 C313 1.134 . S
C644 C33 1.173 . S
C655 C376 1.134 . S
C660 C27 1.189 . S
C671 C368 1.142 . S
C676 C447 1.208 . S
C687 C443 1.157 . S
C692 C295 1.207 . S
C703 C502 1.153 . S
C708 C380 1.211 . S
C719 C496 1.186 . S
C724 C309 1.136 . S
C735 C514 1.153 . S
C740 C167 1.205 . S
C751 C94 1.188 . S
C756 C510 1.133 . S
C767 C435 1.199 . S
C772 C179 1.140 . S
C783 C429 1.128 . S
C788 C108 1.170 . S
C799 C35 1.883 . S
C804 C24 1.891 . S
C815 C91 1.900 . S
C820 C102 1.874 . S
C831 C158 1.903 . S
C836 C169 1.870 . S
C847 C225 1.870 . S
C852 C236 1.903 . S
C863 C292 1.892 . S
C868 C303 1.882 . S
C879 C359 1.903 . S
C884 C370 1.870 . S
C895 C437 1.876 . S
C900 C426 1.897 . S
C911 C493 1.892 . S
C916 C504 1.882 . S
C927 C508 1.386 . S
C932 C48 1.334 . S
C943 C39 1.366 . S
C948 C517 1.368 . S
C959 C115 1.393 . S
C964 C173 1.336 . S
C975 C441 1.390 . S
C980 C249 1.332 . S
C991 C240 1.334 . S
C996 C450 1.395 . S
C1007 C374 1.345 . S
C1012 C316 1.385 . S
C1023 C383 1.356 . S
C1028 C307 1.367 . S
C1039 C182 1.392 . S
C1044 C106 1.336 . S
