# Generated by pormake.
# Topology ech, (8)-cn, num edge types: 1
# Building blocks:
#     Node 0, Type 0, BuildingBlock: VETTIZ_charged_sbu_0, # of connection points: 8
#     Node 1, Type 0, BuildingBlock: VETTIZ_charged_sbu_0, # of connection points: 8
#     Node 2, Type 0, BuildingBlock: VETTIZ_charged_sbu_0, # of connection points: 8
#     Node 3, Type 0, BuildingBlock: VETTIZ_charged_sbu_0, # of connection points: 8
#     Node 4, Type 0, BuildingBlock: VETTIZ_charged_sbu_0, # of connection points: 8
#     Node 5, Type 0, BuildingBlock: VETTIZ_charged_sbu_0, # of connection points: 8
#     Node 6, Type 0, BuildingBlock: VETTIZ_charged_sbu_0, # of connection points: 8
#     Node 7, Type 0, BuildingBlock: VETTIZ_charged_sbu_0, # of connection points: 8
#     Node 8, Type 0, BuildingBlock: VETTIZ_charged_sbu_0, # of connection points: 8
#     Node 9, Type 0, BuildingBlock: VETTIZ_charged_sbu_0, # of connection points: 8
#     Node 10, Type 0, BuildingBlock: VETTIZ_charged_sbu_0, # of connection points: 8
#     Node 11, Type 0, BuildingBlock: VETTIZ_charged_sbu_0, # of connection points: 8
#     Node 12, Type 0, BuildingBlock: VETTIZ_charged_sbu_0, # of connection points: 8
#     Node 13, Type 0, BuildingBlock: VETTIZ_charged_sbu_0, # of connection points: 8
#     Node 14, Type 0, BuildingBlock: VETTIZ_charged_sbu_0, # of connection points: 8
#     Node 15, Type 0, BuildingBlock: VETTIZ_charged_sbu_0, # of connection points: 8
#     Node 16, Type 0, BuildingBlock: VETTIZ_charged_sbu_0, # of connection points: 8
#     Node 17, Type 0, BuildingBlock: VETTIZ_charged_sbu_0, # of connection points: 8
#     Node 18, Type 0, BuildingBlock: VETTIZ_charged_sbu_0, # of connection points: 8
#     Node 19, Type 0, BuildingBlock: VETTIZ_charged_sbu_0, # of connection points: 8
#     Node 20, Type 0, BuildingBlock: VETTIZ_charged_sbu_0, # of connection points: 8
#     Node 21, Type 0, BuildingBlock: VETTIZ_charged_sbu_0, # of connection points: 8
#     Node 22, Type 0, BuildingBlock: VETTIZ_charged_sbu_0, # of connection points: 8
#     Node 23, Type 0, BuildingBlock: VETTIZ_charged_sbu_0, # of connection points: 8
#     Edge 24, Type (0, 0), BuildingBlock: KIFKEQ_clean_linker_1, # of connection points: 2
#     Edge 25, Type (0, 0), BuildingBlock: KIFKEQ_clean_linker_1, # of connection points: 2
#     Edge 26, Type (0, 0), BuildingBlock: KIFKEQ_clean_linker_1, # of connection points: 2
#     Edge 27, Type (0, 0), BuildingBlock: KIFKEQ_clean_linker_1, # of connection points: 2
#     Edge 28, Type (0, 0), BuildingBlock: KIFKEQ_clean_linker_1, # of connection points: 2
#     Edge 29, Type (0, 0), BuildingBlock: KIFKEQ_clean_linker_1, # of connection points: 2
#     Edge 30, Type (0, 0), BuildingBlock: KIFKEQ_clean_linker_1, # of connection points: 2
#     Edge 31, Type (0, 0), BuildingBlock: KIFKEQ_clean_linker_1, # of connection points: 2
#     Edge 32, Type (0, 0), BuildingBlock: KIFKEQ_clean_linker_1, # of connection points: 2
#     Edge 33, Type (0, 0), BuildingBlock: KIFKEQ_clean_linker_1, # of connection points: 2
#     Edge 34, Type (0, 0), BuildingBlock: KIFKEQ_clean_linker_1, # of connection points: 2
#     Edge 35, Type (0, 0), BuildingBlock: KIFKEQ_clean_linker_1, # of connection points: 2
#     Edge 36, Type (0, 0), BuildingBlock: KIFKEQ_clean_linker_1, # of connection points: 2
#     Edge 37, Type (0, 0), BuildingBlock: KIFKEQ_clean_linker_1, # of connection points: 2
#     Edge 38, Type (0, 0), BuildingBlock: KIFKEQ_clean_linker_1, # of connection points: 2
#     Edge 39, Type (0, 0), BuildingBlock: KIFKEQ_clean_linker_1, # of connection points: 2
#     Edge 40, Type (0, 0), BuildingBlock: KIFKEQ_clean_linker_1, # of connection points: 2
#     Edge 41, Type (0, 0), BuildingBlock: KIFKEQ_clean_linker_1, # of connection points: 2
#     Edge 42, Type (0, 0), BuildingBlock: KIFKEQ_clean_linker_1, # of connection points: 2
#     Edge 43, Type (0, 0), BuildingBlock: KIFKEQ_clean_linker_1, # of connection points: 2
#     Edge 44, Type (0, 0), BuildingBlock: KIFKEQ_clean_linker_1, # of connection points: 2
#     Edge 45, Type (0, 0), BuildingBlock: KIFKEQ_clean_linker_1, # of connection points: 2
#     Edge 46, Type (0, 0), BuildingBlock: KIFKEQ_clean_linker_1, # of connection points: 2
#     Edge 47, Type (0, 0), BuildingBlock: KIFKEQ_clean_linker_1, # of connection points: 2
#     Edge 48, Type (0, 0), BuildingBlock: KIFKEQ_clean_linker_1, # of connection points: 2
#     Edge 49, Type (0, 0), BuildingBlock: KIFKEQ_clean_linker_1, # of connection points: 2
#     Edge 50, Type (0, 0), BuildingBlock: KIFKEQ_clean_linker_1, # of connection points: 2
#     Edge 51, Type (0, 0), BuildingBlock: KIFKEQ_clean_linker_1, # of connection points: 2
#     Edge 52, Type (0, 0), BuildingBlock: KIFKEQ_clean_linker_1, # of connection points: 2
#     Edge 53, Type (0, 0), BuildingBlock: KIFKEQ_clean_linker_1, # of connection points: 2
#     Edge 54, Type (0, 0), BuildingBlock: KIFKEQ_clean_linker_1, # of connection points: 2
#     Edge 55, Type (0, 0), BuildingBlock: KIFKEQ_clean_linker_1, # of connection points: 2
#     Edge 56, Type (0, 0), BuildingBlock: KIFKEQ_clean_linker_1, # of connection points: 2
#     Edge 57, Type (0, 0), BuildingBlock: KIFKEQ_clean_linker_1, # of connection points: 2
#     Edge 58, Type (0, 0), BuildingBlock: KIFKEQ_clean_linker_1, # of connection points: 2
#     Edge 59, Type (0, 0), BuildingBlock: KIFKEQ_clean_linker_1, # of connection points: 2
#     Edge 60, Type (0, 0), BuildingBlock: KIFKEQ_clean_linker_1, # of connection points: 2
#     Edge 61, Type (0, 0), BuildingBlock: KIFKEQ_clean_linker_1, # of connection points: 2
#     Edge 62, Type (0, 0), BuildingBlock: KIFKEQ_clean_linker_1, # of connection points: 2
#     Edge 63, Type (0, 0), BuildingBlock: KIFKEQ_clean_linker_1, # of connection points: 2
#     Edge 64, Type (0, 0), BuildingBlock: KIFKEQ_clean_linker_1, # of connection points: 2
#     Edge 65, Type (0, 0), BuildingBlock: KIFKEQ_clean_linker_1, # of connection points: 2
#     Edge 66, Type (0, 0), BuildingBlock: KIFKEQ_clean_linker_1, # of connection points: 2
#     Edge 67, Type (0, 0), BuildingBlock: KIFKEQ_clean_linker_1, # of connection points: 2
#     Edge 68, Type (0, 0), BuildingBlock: KIFKEQ_clean_linker_1, # of connection points: 2
#     Edge 69, Type (0, 0), BuildingBlock: KIFKEQ_clean_linker_1, # of connection points: 2
#     Edge 70, Type (0, 0), BuildingBlock: KIFKEQ_clean_linker_1, # of connection points: 2
#     Edge 71, Type (0, 0), BuildingBlock: KIFKEQ_clean_linker_1, # of connection points: 2
#     Edge 72, Type (0, 0), BuildingBlock: KIFKEQ_clean_linker_1, # of connection points: 2
#     Edge 73, Type (0, 0), BuildingBlock: KIFKEQ_clean_linker_1, # of connection points: 2
#     Edge 74, Type (0, 0), BuildingBlock: KIFKEQ_clean_linker_1, # of connection points: 2
#     Edge 75, Type (0, 0), BuildingBlock: KIFKEQ_clean_linker_1, # of connection points: 2
#     Edge 76, Type (0, 0), BuildingBlock: KIFKEQ_clean_linker_1, # of connection points: 2
#     Edge 77, Type (0, 0), BuildingBlock: KIFKEQ_clean_linker_1, # of connection points: 2
#     Edge 78, Type (0, 0), BuildingBlock: KIFKEQ_clean_linker_1, # of connection points: 2
#     Edge 79, Type (0, 0), BuildingBlock: KIFKEQ_clean_linker_1, # of connection points: 2
#     Edge 80, Type (0, 0), BuildingBlock: KIFKEQ_clean_linker_1, # of connection points: 2
#     Edge 81, Type (0, 0), BuildingBlock: KIFKEQ_clean_linker_1, # of connection points: 2
#     Edge 82, Type (0, 0), BuildingBlock: KIFKEQ_clean_linker_1, # of connection points: 2
#     Edge 83, Type (0, 0), BuildingBlock: KIFKEQ_clean_linker_1, # of connection points: 2
#     Edge 84, Type (0, 0), BuildingBlock: KIFKEQ_clean_linker_1, # of connection points: 2
#     Edge 85, Type (0, 0), BuildingBlock: KIFKEQ_clean_linker_1, # of connection points: 2
#     Edge 86, Type (0, 0), BuildingBlock: KIFKEQ_clean_linker_1, # of connection points: 2
#     Edge 87, Type (0, 0), BuildingBlock: KIFKEQ_clean_linker_1, # of connection points: 2
#     Edge 88, Type (0, 0), BuildingBlock: KIFKEQ_clean_linker_1, # of connection points: 2
#     Edge 89, Type (0, 0), BuildingBlock: KIFKEQ_clean_linker_1, # of connection points: 2
#     Edge 90, Type (0, 0), BuildingBlock: KIFKEQ_clean_linker_1, # of connection points: 2
#     Edge 91, Type (0, 0), BuildingBlock: KIFKEQ_clean_linker_1, # of connection points: 2
#     Edge 92, Type (0, 0), BuildingBlock: KIFKEQ_clean_linker_1, # of connection points: 2
#     Edge 93, Type (0, 0), BuildingBlock: KIFKEQ_clean_linker_1, # of connection points: 2
#     Edge 94, Type (0, 0), BuildingBlock: KIFKEQ_clean_linker_1, # of connection points: 2
#     Edge 95, Type (0, 0), BuildingBlock: KIFKEQ_clean_linker_1, # of connection points: 2
#     Edge 96, Type (0, 0), BuildingBlock: KIFKEQ_clean_linker_1, # of connection points: 2
#     Edge 97, Type (0, 0), BuildingBlock: KIFKEQ_clean_linker_1, # of connection points: 2
#     Edge 98, Type (0, 0), BuildingBlock: KIFKEQ_clean_linker_1, # of connection points: 2
#     Edge 99, Type (0, 0), BuildingBlock: KIFKEQ_clean_linker_1, # of connection points: 2
#     Edge 100, Type (0, 0), BuildingBlock: KIFKEQ_clean_linker_1, # of connection points: 2
#     Edge 101, Type (0, 0), BuildingBlock: KIFKEQ_clean_linker_1, # of connection points: 2
#     Edge 102, Type (0, 0), BuildingBlock: KIFKEQ_clean_linker_1, # of connection points: 2
#     Edge 103, Type (0, 0), BuildingBlock: KIFKEQ_clean_linker_1, # of connection points: 2
#     Edge 104, Type (0, 0), BuildingBlock: KIFKEQ_clean_linker_1, # of connection points: 2
#     Edge 105, Type (0, 0), BuildingBlock: KIFKEQ_clean_linker_1, # of connection points: 2
#     Edge 106, Type (0, 0), BuildingBlock: KIFKEQ_clean_linker_1, # of connection points: 2
#     Edge 107, Type (0, 0), BuildingBlock: KIFKEQ_clean_linker_1, # of connection points: 2
#     Edge 108, Type (0, 0), BuildingBlock: KIFKEQ_clean_linker_1, # of connection points: 2
#     Edge 109, Type (0, 0), BuildingBlock: KIFKEQ_clean_linker_1, # of connection points: 2
#     Edge 110, Type (0, 0), BuildingBlock: KIFKEQ_clean_linker_1, # of connection points: 2
#     Edge 111, Type (0, 0), BuildingBlock: KIFKEQ_clean_linker_1, # of connection points: 2
#     Edge 112, Type (0, 0), BuildingBlock: KIFKEQ_clean_linker_1, # of connection points: 2
#     Edge 113, Type (0, 0), BuildingBlock: KIFKEQ_clean_linker_1, # of connection points: 2
#     Edge 114, Type (0, 0), BuildingBlock: KIFKEQ_clean_linker_1, # of connection points: 2
#     Edge 115, Type (0, 0), BuildingBlock: KIFKEQ_clean_linker_1, # of connection points: 2
#     Edge 116, Type (0, 0), BuildingBlock: KIFKEQ_clean_linker_1, # of connection points: 2
#     Edge 117, Type (0, 0), BuildingBlock: KIFKEQ_clean_linker_1, # of connection points: 2
#     Edge 118, Type (0, 0), BuildingBlock: KIFKEQ_clean_linker_1, # of connection points: 2
#     Edge 119, Type (0, 0), BuildingBlock: KIFKEQ_clean_linker_1, # of connection points: 2
# Relax obj value: 0.279
# Max RMSD: 0.287
# Mean RMSD: 0.287
data_MOF--net-ech--node1-VETTIZ_charged_sbu_0--edge1-KIFKEQ_clean_linker_1
_symmetry_space_group_name_H-M    P1
_symmetry_Int_Tables_number       1
_symmetry_cell_setting            triclinic
loop_
_symmetry_equiv_pos_as_xyz
'x, y, z'
_cell_length_a     46.886624
_cell_length_b     46.864478
_cell_length_c     46.799717
_cell_angle_alpha  89.534927
_cell_angle_beta   89.425265
_cell_angle_gamma 89.800068
loop_
_atom_site_label
_atom_site_type_symbol
_atom_site_fract_x
_atom_site_fract_y
_atom_site_fract_z
_atom_type_partial_charge
Fe0 Fe 0.12661 0.34629 0.45108 0.0
O1 O 0.11101 0.31767 0.42414 0.0
Fe2 Fe 0.1831 0.30911 0.48271 0.0
Fe3 Fe 0.09018 0.32811 0.39001 0.0
O4 O 0.16204 0.32226 0.44849 0.0
O5 O 0.16216 0.31868 0.4481 0.0
O6 O 0.11076 0.31422 0.42432 0.0
Fe7 Fe 0.14524 0.28902 0.42276 0.0
C8 C 0.06255 0.35819 0.43976 0.0
O9 O 0.1405 0.37354 0.41807 0.0
O10 O 0.10177 0.36968 0.39137 0.0
O11 O 0.18463 0.26762 0.42329 0.0
O12 O 0.21377 0.29492 0.45195 0.0
O13 O 0.19235 0.35229 0.48523 0.0
O14 O 0.14786 0.37278 0.48032 0.0
O15 O 0.12392 0.32134 0.36133 0.0
O16 O 0.16129 0.31261 0.38899 0.0
C17 C 0.17413 0.37291 0.48937 0.0
O18 O 0.13108 0.26427 0.45769 0.0
O19 O 0.17113 0.26746 0.48266 0.0
O20 O 0.0865 0.36664 0.45077 0.0
O21 O 0.05991 0.33942 0.41969 0.0
C22 C 0.12426 0.38273 0.39814 0.0
C23 C 0.15068 0.32251 0.36609 0.0
C24 C 0.0949 0.26302 0.38762 0.0
O25 O 0.07983 0.28606 0.3875 0.0
O26 O 0.12153 0.26108 0.39581 0.0
C27 C 0.20964 0.2755 0.43226 0.0
O28 O 0.14908 0.31807 0.51196 0.0
O29 O 0.11115 0.32128 0.48381 0.0
C30 C 0.14746 0.2557 0.47777 0.0
C31 C 0.12192 0.31785 0.50833 0.0
Fe32 Fe 0.36303 0.74991 0.92235 0.0
O33 O 0.35018 0.71834 0.94838 0.0
Fe34 Fe 0.41598 0.71724 0.88125 0.0
Fe35 Fe 0.33238 0.72541 0.98558 0.0
O36 O 0.3987 0.72696 0.91847 0.0
O37 O 0.39902 0.72423 0.91879 0.0
O38 O 0.35068 0.71546 0.9489 0.0
Fe39 Fe 0.38722 0.69358 0.9463 0.0
C40 C 0.36678 0.7795 0.97833 0.0
O41 O 0.32353 0.76932 0.92912 0.0
O42 O 0.29879 0.73894 0.9597 0.0
O43 O 0.37096 0.66866 0.91471 0.0
O44 O 0.40458 0.67494 0.88113 0.0
O45 O 0.37996 0.72661 0.85782 0.0
O46 O 0.34469 0.72753 0.88968 0.0
O47 O 0.32507 0.68189 0.98689 0.0
O48 O 0.37008 0.66441 0.97661 0.0
C49 C 0.35424 0.72135 0.865 0.0
O50 O 0.42772 0.67489 0.93968 0.0
O51 O 0.44964 0.70412 0.90584 0.0
O52 O 0.38049 0.77249 0.95581 0.0
O53 O 0.34356 0.76761 0.9858 0.0
C54 C 0.30017 0.75942 0.94065 0.0
C55 C 0.34467 0.6622 0.98817 0.0
C56 C 0.39504 0.71725 1.00378 0.0
O57 O 0.36842 0.71609 1.00993 0.0
O58 O 0.40411 0.71711 0.97818 0.0
C59 C 0.38479 0.66033 0.89281 0.0
O60 O 0.42459 0.7602 0.88091 0.0
O61 O 0.38165 0.78065 0.89443 0.0
C62 C 0.44982 0.6841 0.9252 0.0
C63 C 0.40759 0.78182 0.88408 0.0
Fe64 Fe 0.62676 0.18949 0.57004 0.0
O65 O 0.61355 0.21827 0.59847 0.0
Fe66 Fe 0.68709 0.22136 0.53957 0.0
Fe67 Fe 0.59199 0.20909 0.63313 0.0
O68 O 0.66435 0.20909 0.57313 0.0
O69 O 0.66495 0.2118 0.57395 0.0
O70 O 0.61397 0.22092 0.59903 0.0
Fe71 Fe 0.65084 0.2417 0.60087 0.0
C72 C 0.56195 0.18246 0.58321 0.0
O73 O 0.63787 0.16061 0.60123 0.0
O74 O 0.6008 0.16624 0.63103 0.0
O75 O 0.69179 0.2585 0.6004 0.0
O76 O 0.7181 0.22959 0.57017 0.0
O77 O 0.69233 0.17803 0.53557 0.0
O78 O 0.6459 0.16201 0.53981 0.0
O79 O 0.62557 0.21288 0.66137 0.0
O80 O 0.66432 0.21564 0.63381 0.0
C81 C 0.67227 0.15969 0.53076 0.0
O82 O 0.63836 0.26816 0.56718 0.0
O83 O 0.67856 0.26418 0.54192 0.0
O84 O 0.58507 0.17293 0.57076 0.0
O85 O 0.56092 0.20104 0.60366 0.0
C86 C 0.62106 0.15131 0.62066 0.0
C87 C 0.65199 0.2079 0.65688 0.0
C88 C 0.60412 0.2731 0.63639 0.0
O89 O 0.58586 0.25244 0.6361 0.0
O90 O 0.63093 0.27107 0.62889 0.0
C91 C 0.71553 0.24666 0.59197 0.0
O92 O 0.65354 0.21621 0.51054 0.0
O93 O 0.61472 0.21696 0.53832 0.0
C94 C 0.65504 0.27657 0.54716 0.0
C95 C 0.62644 0.21803 0.51381 0.0
Fe96 Fe 0.86015 0.7862 0.10207 0.0
O97 O 0.87739 0.79417 0.06371 0.0
Fe98 Fe 0.89103 0.83754 0.14486 0.0
Fe99 Fe 0.85665 0.7847 0.02877 0.0
O100 O 0.87157 0.8267 0.10954 0.0
O101 O 0.87287 0.82957 0.1079 0.0
O102 O 0.87894 0.7965 0.06232 0.0
Fe103 Fe 0.89289 0.8362 0.07045 0.0
C104 C 0.8603 0.73118 0.06359 0.0
O105 O 0.82116 0.80023 0.08857 0.0
O106 O 0.81758 0.77441 0.05012 0.0
O107 O 0.90408 0.87739 0.08522 0.0
O108 O 0.8844 0.87864 0.13082 0.0
O109 O 0.85156 0.82987 0.16121 0.0
O110 O 0.84094 0.78526 0.14349 0.0
O111 O 0.84323 0.82527 0.01852 0.0
O112 O 0.85696 0.85553 0.05239 0.0
C113 C 0.83604 0.80717 0.16007 0.0
O114 O 0.93146 0.82034 0.08637 0.0
O115 O 0.93115 0.84229 0.12835 0.0
O116 O 0.85171 0.74342 0.08742 0.0
O117 O 0.86876 0.74493 0.04101 0.0
C118 C 0.8065 0.78382 0.07331 0.0
C119 C 0.84383 0.85016 0.02917 0.0
C120 C 0.91251 0.81651 1.01023 0.0
O121 O 0.89455 0.79559 1.00813 0.0
O122 O 0.91251 0.83592 0.03007 0.0
C123 C 0.89556 0.89071 0.10829 0.0
O124 O 0.90144 0.79598 0.15608 0.0
O125 O 0.89928 0.7716 0.11587 0.0
C126 C 0.94448 0.83034 0.108 0.0
C127 C 0.91131 0.77687 0.13947 0.0
Fe128 Fe 0.44108 0.13367 0.33303 0.0
O129 O 0.44061 0.17032 0.31097 0.0
Fe130 Fe 0.37598 0.10291 0.31497 0.0
Fe131 Fe 0.47569 0.19012 0.29885 0.0
O132 O 0.41231 0.12092 0.3046 0.0
O133 O 0.41176 0.12125 0.3019 0.0
O134 O 0.43976 0.17092 0.30833 0.0
Fe135 Fe 0.41217 0.15734 0.27909 0.0
C136 C 0.48152 0.17795 0.36189 0.0
O137 O 0.47258 0.11795 0.30719 0.0
O138 O 0.50267 0.15449 0.30708 0.0
O139 O 0.38318 0.13769 0.25062 0.0
O140 O 0.37302 0.09432 0.27217 0.0
O141 O 0.4028 0.06998 0.3261 0.0
O142 O 0.43762 0.09296 0.35219 0.0
O143 O 0.47461 0.17941 0.25696 0.0
O144 O 0.4451 0.14235 0.25244 0.0
C145 C 0.42342 0.07045 0.34445 0.0
O146 O 0.37991 0.17447 0.30492 0.0
O147 O 0.3499 0.13821 0.30806 0.0
O148 O 0.47175 0.15194 0.36015 0.0
O149 O 0.47839 0.19751 0.34228 0.0
C150 C 0.49786 0.1275 0.30684 0.0
C151 C 0.46632 0.15743 0.24389 0.0
C152 C 0.4261 0.22073 0.2682 0.0
O153 O 0.44726 0.22303 0.28617 0.0
O154 O 0.41524 0.19685 0.2597 0.0
C155 C 0.37411 0.11133 0.25026 0.0
O156 O 0.37841 0.11397 0.35708 0.0
O157 O 0.41033 0.14887 0.36032 0.0
C158 C 0.35585 0.16427 0.3126 0.0
C159 C 0.39027 0.13385 0.37086 0.0
Fe160 Fe 0.12535 0.8544 0.76077 0.0
O161 O 0.10078 0.86643 0.79184 0.0
Fe162 Fe 0.10999 0.90568 0.81431 0.0
Fe163 Fe 0.0596 0.85839 0.79824 0.0
O164 O 0.10003 0.87659 0.78506 0.0
O165 O 0.07229 0.8915 0.82803 0.0
O166 O 0.06562 0.89499 0.81963 0.0
Fe167 Fe 0.04445 0.91073 0.85161 0.0
C168 C 0.06551 0.86704 0.73398 0.0
O169 O 0.1101 0.81505 0.77181 0.0
O170 O 0.06199 0.81799 0.77811 0.0
O171 O 0.079 0.91823 0.87766 0.0
O172 O 0.11777 0.92959 0.85037 0.0
O173 O 0.13488 0.87295 0.83155 0.0
O174 O 0.1555 0.85073 0.79322 0.0
O175 O 0.06164 0.83863 0.83895 0.0
O176 O 0.03931 0.87074 0.86864 0.0
C177 C 0.15348 0.85594 0.82031 0.0
O178 O 0.05337 0.94994 0.83305 0.0
O179 O 0.08702 0.94104 0.79887 0.0
O180 O 0.09148 0.85754 0.73143 0.0
O181 O 0.05499 0.87653 0.75765 0.0
C182 C 0.08524 0.80393 0.77232 0.0
C183 C 0.04952 0.84584 0.86289 0.0
C184 C 1.00085 0.88186 0.81075 0.0
O185 O 0.01552 0.85979 0.80308 0.0
O186 O 0.01048 0.9029 0.82522 0.0
C187 C 0.10432 0.9284 0.87449 0.0
O188 O 0.14492 0.9201 0.79145 0.0
O189 O 0.14034 0.89445 0.75057 0.0
C190 C 0.07166 0.95841 0.81403 0.0
C191 C 0.14898 0.91621 0.7645 0.0
Fe192 Fe 0.94758 0.38271 0.69167 0.0
O193 O 0.90879 0.37706 0.7105 0.0
Fe194 Fe 0.98804 0.33059 0.72945 0.0
Fe195 Fe 0.87677 0.40347 0.70655 0.0
O196 O 0.95869 0.36138 0.72671 0.0
O197 O 0.94602 0.34491 0.72479 0.0
O198 O 0.91036 0.37963 0.71933 0.0
Fe199 Fe 0.91011 0.35064 0.75307 0.0
C200 C 0.92891 0.44324 0.70763 0.0
O201 O 0.93142 0.40213 0.65537 0.0
O202 O 0.88386 0.39774 0.66353 0.0
O203 O 0.9341 0.3195 0.73463 0.0
O204 O 0.96804 0.29129 0.74075 0.0
O205 O 0.98868 0.32139 0.68669 0.0
O206 O 0.95048 0.34437 0.66842 0.0
O207 O 0.85123 0.36834 0.70816 0.0
O208 O 0.87765 0.3328 0.72809 0.0
C209 C 0.97295 0.32843 0.66559 0.0
O210 O 0.94344 0.36538 0.78036 0.0
O211 O 0.98592 0.34167 0.77145 0.0
O212 O 0.94798 0.4235 0.7101 0.0
O213 O 0.90248 0.43821 0.70434 0.0
C214 C 0.90533 0.40361 0.64732 0.0
C215 C 0.85655 0.34196 0.71316 0.0
C216 C 0.87113 0.39961 0.77353 0.0
O217 O 0.87005 0.41149 0.74898 0.0
O218 O 0.88115 0.37444 0.77754 0.0
C219 C 0.94164 0.29508 0.74407 0.0
O220 O 0.01035 0.36835 0.71861 0.0
O221 O 0.98897 0.38883 0.68024 0.0
C222 C 0.96928 0.35737 0.78679 0.0
C223 C 0.00979 0.38656 0.69767 0.0
Fe224 Fe 0.61287 0.66333 0.23706 0.0
O225 O 0.58338 0.6768 0.20924 0.0
Fe226 Fe 0.64489 0.60651 0.20063 0.0
Fe227 Fe 0.54774 0.69604 0.22079 0.0
O228 O 0.61125 0.62687 0.21564 0.0
O229 O 0.61023 0.62623 0.21342 0.0
O230 O 0.5821 0.67595 0.20675 0.0
Fe231 Fe 0.5792 0.63843 0.18705 0.0
C232 C 0.5601 0.66287 0.27501 0.0
O233 O 0.6113 0.70343 0.25543 0.0
O234 O 0.57657 0.72881 0.23096 0.0
O235 O 0.60782 0.65134 0.15622 0.0
O236 O 0.63792 0.61464 0.15833 0.0
O237 O 0.67201 0.6416 0.20104 0.0
O238 O 0.64407 0.67931 0.20884 0.0
O239 O 0.54249 0.70295 0.1777 0.0
O240 O 0.54723 0.65678 0.16135 0.0
C241 C 0.66654 0.66815 0.19788 0.0
O242 O 0.57972 0.5968 0.1708 0.0
O243 O 0.61595 0.57414 0.19574 0.0
O244 O 0.58145 0.64852 0.26568 0.0
O245 O 0.55136 0.68543 0.26284 0.0
C246 C 0.59875 0.72696 0.24767 0.0
C247 C 0.53825 0.68311 0.15894 0.0
C248 C 0.52427 0.63407 0.21657 0.0
O249 O 0.51989 0.66103 0.21456 0.0
O250 O 0.54949 0.62427 0.2163 0.0
C251 C 0.62559 0.63447 0.1445 0.0
O252 O 0.65236 0.60029 0.24347 0.0
O253 O 0.6432 0.64387 0.26438 0.0
C254 C 0.59297 0.57419 0.18034 0.0
C255 C 0.65253 0.61759 0.26487 0.0
Fe256 Fe 0.31274 0.3904 0.0945 0.0
O257 O 0.30652 0.42388 0.11809 0.0
Fe258 Fe 0.28294 0.42117 0.15577 0.0
Fe259 Fe 0.33772 0.44929 0.13142 0.0
O260 O 0.30336 0.42398 0.11827 0.0
O261 O 0.31512 0.44496 0.17019 0.0
O262 O 0.31872 0.44495 0.16986 0.0
Fe263 Fe 0.30936 0.47795 0.19467 0.0
C264 C 0.37208 0.39628 0.12105 0.0
O265 O 0.32112 0.42108 0.0643 0.0
O266 O 0.35236 0.45067 0.08824 0.0
O267 O 0.26655 0.48011 0.18704 0.0
O268 O 0.25783 0.45683 0.14658 0.0
O269 O 0.25167 0.39531 0.13577 0.0
O270 O 0.26917 0.38932 0.09002 0.0
O271 O 0.31181 0.48322 0.12238 0.0
O272 O 0.31633 0.50857 0.16214 0.0
C273 C 0.24895 0.38828 0.10897 0.0
O274 O 0.29671 0.44608 0.22511 0.0
O275 O 0.26637 0.41997 0.19688 0.0
O276 O 0.35579 0.39002 0.10056 0.0
O277 O 0.36525 0.4152 0.13946 0.0
C278 C 0.34073 0.44056 0.06509 0.0
C279 C 0.31237 0.50697 0.13515 0.0
C280 C 0.37161 0.48455 0.17748 0.0
O281 O 0.36763 0.47704 0.15088 0.0
O282 O 0.3538 0.47882 0.1984 0.0
C283 C 0.25184 0.47619 0.16481 0.0
O284 O 0.30741 0.3869 0.16679 0.0
O285 O 0.3092 0.36051 0.12755 0.0
C286 C 0.27659 0.42696 0.22153 0.0
C287 C 0.31477 0.3644 0.15386 0.0
Fe288 Fe 0.793 0.03608 0.82512 0.0
O289 O 0.80825 0.06995 0.84429 0.0
Fe290 Fe 0.83667 0.06294 0.87813 0.0
Fe291 Fe 0.78269 0.09763 0.86479 0.0
O292 O 0.81093 0.0686 0.84465 0.0
O293 O 0.81298 0.09324 0.8963 0.0
O294 O 0.81022 0.09352 0.89667 0.0
Fe295 Fe 0.8277 0.12611 0.91626 0.0
C296 C 0.76244 0.08949 0.80212 0.0
O297 O 0.75276 0.04141 0.84058 0.0
O298 O 0.7572 0.06431 0.88154 0.0
O299 O 0.84104 0.09528 0.94473 0.0
O300 O 0.86067 0.06052 0.91566 0.0
O301 O 0.80953 0.03374 0.89577 0.0
O302 O 0.80184 1.00597 0.85844 0.0
O303 O 0.75864 0.12522 0.89204 0.0
O304 O 0.78714 0.12973 0.93178 0.0
C305 C 0.80459 1.00936 0.88552 0.0
O306 O 0.86725 0.12238 0.89798 0.0
O307 O 0.8656 0.09163 0.86164 0.0
O308 O 0.7794 0.06796 0.79585 0.0
O309 O 0.75811 0.09918 0.82788 0.0
C310 C 0.74482 0.04585 0.86598 0.0
C311 C 0.76268 0.13014 0.91924 0.0
C312 C 0.81801 0.15304 0.85826 0.0
O313 O 0.80748 0.13074 0.84692 0.0
O314 O 0.81741 0.15622 0.88526 0.0
C315 C 0.85687 0.07298 0.94014 0.0
O316 O 0.8576 0.03087 0.85517 0.0
O317 O 0.83468 0.02839 0.81201 0.0
C318 C 0.8781 0.1109 0.87584 0.0
C319 C 0.85529 0.02152 0.82917 0.0
Fe320 Fe 0.71532 0.88565 0.42372 0.0
O321 O 0.72194 0.9204 0.40179 0.0
Fe322 Fe 0.74689 0.92031 0.36417 0.0
Fe323 Fe 0.68982 0.9445 0.38758 0.0
O324 O 0.72575 0.92076 0.40163 0.0
O325 O 0.7147 0.94503 0.35089 0.0
O326 O 0.71245 0.94579 0.35149 0.0
Fe327 Fe 0.71906 0.97937 0.32768 0.0
C328 C 0.65211 0.90549 0.4187 0.0
O329 O 0.70949 0.91458 0.45611 0.0
O330 O 0.67996 0.94733 0.43361 0.0
O331 O 0.76158 0.98197 0.33518 0.0
O332 O 0.77205 0.95571 0.37402 0.0
O333 O 0.77826 0.89349 0.38356 0.0
O334 O 0.75893 0.88297 0.42794 0.0
O335 O 0.70908 0.98025 0.40141 0.0
O336 O 0.71172 1.00768 0.3618 0.0
C337 C 0.77993 0.88397 0.40986 0.0
O338 O 0.73048 0.94857 0.29688 0.0
O339 O 0.76306 0.92197 0.32287 0.0
O340 O 0.67127 0.88616 0.41714 0.0
O341 O 0.65876 0.93209 0.41652 0.0
C342 C 0.69294 0.93681 0.45653 0.0
C343 C 0.71171 1.00442 0.38915 0.0
C344 C 0.65599 0.98174 0.34285 0.0
O345 O 0.65876 0.97167 0.36877 0.0
O346 O 0.67515 0.97877 0.32287 0.0
C347 C 0.77757 0.97593 0.35613 0.0
O348 O 0.72329 0.88615 0.35119 0.0
O349 O 0.71786 0.85801 0.3894 0.0
C350 C 0.75031 0.92891 0.29925 0.0
C351 C 0.71525 0.86292 0.36272 0.0
Fe352 Fe 0.24269 0.61113 0.6671 0.0
O353 O 0.21325 0.58246 0.67907 0.0
Fe354 Fe 0.21003 0.64752 0.61077 0.0
Fe355 Fe 0.22289 0.54592 0.69743 0.0
O356 O 0.22232 0.61218 0.63 0.0
O357 O 0.22011 0.61148 0.62941 0.0
O358 O 0.21076 0.58163 0.67837 0.0
Fe359 Fe 0.19178 0.58167 0.6404 0.0
C360 C 0.27788 0.55747 0.66514 0.0
O361 O 0.26007 0.60695 0.70762 0.0
O362 O 0.2326 0.57314 0.73148 0.0
O363 O 0.16278 0.61141 0.6541 0.0
O364 O 0.16727 0.64305 0.61864 0.0
O365 O 0.2127 0.67266 0.64686 0.0
O366 O 0.21541 0.64219 0.68334 0.0
O367 O 0.17918 0.54121 0.70281 0.0
O368 O 0.16439 0.55018 0.65669 0.0
C369 C 0.20631 0.6655 0.67248 0.0
O370 O 0.17593 0.58493 0.5989 0.0
O371 O 0.20295 0.62044 0.57711 0.0
O372 O 0.26951 0.5794 0.65128 0.0
O373 O 0.26558 0.54897 0.68793 0.0
C374 C 0.25069 0.59432 0.73066 0.0
C375 C 0.16094 0.53903 0.68211 0.0
C376 C 0.21874 0.5258 0.63451 0.0
O377 O 0.21703 0.52005 0.66126 0.0
O378 O 0.21941 0.5514 0.6257 0.0
C379 C 0.15242 0.6305 0.63777 0.0
O380 O 0.25334 0.65226 0.60532 0.0
O381 O 0.27184 0.64102 0.64959 0.0
C382 C 0.18564 0.59877 0.57662 0.0
C383 C 0.27394 0.65091 0.62352 0.0
Fe384 Fe 0.9268 0.69314 0.63426 0.0
O385 O 0.90568 0.70548 0.59993 0.0
Fe386 Fe 0.8919 0.67351 0.57206 0.0
Fe387 Fe 0.8701 0.72902 0.60144 0.0
O388 O 0.9058 0.70234 0.59978 0.0
O389 O 0.8553 0.69579 0.57468 0.0
O390 O 0.85481 0.69913 0.57536 0.0
Fe391 Fe 0.83418 0.70875 0.54037 0.0
C392 C 0.86668 0.696 0.65848 0.0
O393 O 0.93549 0.73596 0.63577 0.0
O394 O 0.89194 0.75789 0.62856 0.0
O395 O 0.86875 0.70152 0.5114 0.0
O396 O 0.90639 0.69961 0.53986 0.0
O397 O 0.93283 0.65479 0.57279 0.0
O398 O 0.9577 0.6824 0.60493 0.0
O399 O 0.88391 0.75465 0.56682 0.0
O400 O 0.84442 0.7509 0.54122 0.0
C401 C 0.95616 0.6636 0.58478 0.0
O402 O 0.82677 0.66539 0.53713 0.0
O403 O 0.87205 0.64663 0.54212 0.0
O404 O 0.89322 0.69995 0.66257 0.0
O405 O 0.85481 0.70429 0.63545 0.0
C406 C 0.91888 0.75805 0.63564 0.0
C407 C 0.8678 0.76305 0.54644 0.0
C408 C 0.80569 0.74041 0.59071 0.0
O409 O 0.83012 0.74887 0.60052 0.0
O410 O 0.80256 0.72121 0.57068 0.0
C411 C 0.89588 0.70216 0.5151 0.0
O412 O 0.87931 0.6451 0.60416 0.0
O413 O 0.91605 0.65078 0.63365 0.0
C414 C 0.84589 0.64567 0.53276 0.0
C415 C 0.89558 0.63607 0.6241 0.0
Fe416 Fe 0.65796 0.27871 0.106 0.0
O417 O 0.64199 0.31608 0.11887 0.0
Fe418 Fe 0.66222 0.28534 0.03312 0.0
Fe419 Fe 0.62136 0.31991 0.15524 0.0
O420 O 0.63971 0.28864 0.06892 0.0
O421 O 0.63899 0.29139 0.06768 0.0
O422 O 0.64127 0.3188 0.11772 0.0
Fe423 Fe 0.62324 0.32902 0.08036 0.0
C424 C 0.61118 0.25692 0.14428 0.0
O425 O 0.67783 0.2756 0.14654 0.0
O426 O 0.66147 0.31555 0.17053 0.0
O427 O 0.65903 0.35204 0.06608 0.0
O428 O 0.67251 0.32723 0.0277 0.0
O429 O 0.70162 0.27669 0.05373 0.0
O430 O 0.69389 0.30005 0.09315 0.0
O431 O 0.6218 0.36323 0.14639 0.0
O432 O 0.60853 0.36653 0.09888 0.0
C433 C 0.71113 0.28742 0.07678 0.0
O434 O 0.60628 0.33414 0.04005 0.0
O435 O 0.62377 0.29633 0.01359 0.0
O436 O 0.62161 0.25726 0.11913 0.0
O437 O 0.61719 0.27629 0.16213 0.0
C438 C 0.68015 0.29572 0.16567 0.0
C439 C 0.61172 0.37687 0.12433 0.0
C440 C 0.57025 0.31452 0.11501 0.0
O441 O 0.58154 0.32121 0.13854 0.0
O442 O 0.58497 0.30975 0.09239 0.0
C443 C 0.67185 0.35021 0.04182 0.0
O444 O 0.6536 0.24375 0.04083 0.0
O445 O 0.671 0.23902 0.08656 0.0
C446 C 0.60624 0.31756 0.01794 0.0
C447 C 0.66254 0.22848 0.06209 0.0
Fe448 Fe 0.37085 0.7765 0.42098 0.0
O449 O 0.40715 0.79831 0.42304 0.0
Fe450 Fe 0.33184 0.79743 0.48013 0.0
Fe451 Fe 0.42942 0.81123 0.38935 0.0
O452 O 0.35542 0.80678 0.4468 0.0
O453 O 0.35577 0.80984 0.44738 0.0
O454 O 0.40739 0.80101 0.42351 0.0
Fe455 Fe 0.39321 0.82924 0.45205 0.0
C456 C 0.41867 0.74643 0.38534 0.0
O457 O 0.35739 0.80136 0.38757 0.0
O458 O 0.39583 0.80903 0.3604 0.0
O459 O 0.37308 0.85659 0.48174 0.0
O460 O 0.32642 0.84099 0.48411 0.0
O461 O 0.30229 0.78907 0.44755 0.0
O462 O 0.3304 0.75864 0.42091 0.0
O463 O 0.42113 0.85396 0.39267 0.0
O464 O 0.38308 0.8587 0.42115 0.0
C465 C 0.30645 0.77174 0.42608 0.0
O466 O 0.40379 0.80122 0.48378 0.0
O467 O 0.3644 0.80283 0.51063 0.0
O468 O 0.39205 0.74713 0.39377 0.0
O469 O 0.43589 0.76796 0.38508 0.0
C470 C 0.36896 0.81097 0.36488 0.0
C471 C 0.40048 0.86854 0.4026 0.0
C472 C 0.4586 0.83508 0.44171 0.0
O473 O 0.45998 0.81827 0.4197 0.0
O474 O 0.4352 0.84494 0.45345 0.0
C475 C 0.34631 0.85948 0.48931 0.0
O476 O 0.34085 0.75461 0.47816 0.0
O477 O 0.38269 0.75099 0.45565 0.0
C478 C 0.39162 0.80094 0.50808 0.0
C479 C 0.36494 0.74261 0.47477 0.0
Fe480 Fe 0.09718 0.20509 0.88504 0.0
O481 O 0.11719 0.21335 0.92115 0.0
Fe482 Fe 0.1311 0.17845 0.94585 0.0
Fe483 Fe 0.15282 0.23646 0.92235 0.0
O484 O 0.11734 0.21006 0.92068 0.0
O485 O 0.16772 0.2005 0.94554 0.0
O486 O 0.16792 0.20393 0.94558 0.0
Fe487 Fe 0.18937 0.2101 0.98035 0.0
C488 C 0.15742 0.20995 0.86312 0.0
O489 O 0.08817 0.24792 0.88797 0.0
O490 O 0.13183 0.26809 0.89766 0.0
O491 O 0.15459 0.20212 1.00861 0.0
O492 O 0.1167 0.20141 0.97995 0.0
O493 O 0.09031 0.16001 0.94256 0.0
O494 O 0.06579 0.19074 0.91241 0.0
O495 O 0.13925 0.25874 0.95868 0.0
O496 O 0.17972 0.25261 0.98237 0.0
C497 C 0.06718 0.1696 0.93045 0.0
O498 O 0.1958 0.16603 0.9809 0.0
O499 O 0.1503 0.14886 0.97392 0.0
O500 O 0.13126 0.21533 0.85826 0.0
O501 O 0.16828 0.21515 0.88723 0.0
C502 C 0.10502 0.26955 0.89058 0.0
C503 C 0.15616 0.26541 0.97884 0.0
C504 C 0.21699 0.24424 0.93081 0.0
O505 O 0.1924 0.25549 0.92485 0.0
O506 O 0.2208 0.2239 0.94998 0.0
C507 C 0.12751 0.20382 1.0046 0.0
O508 O 0.1441 0.15326 0.9117 0.0
O509 O 0.10882 0.16299 0.88118 0.0
C510 C 0.1762 0.14653 0.98374 0.0
C511 C 0.12897 0.14706 0.89001 0.0
Fe512 Fe 0.64352 0.91583 0.70923 0.0
O513 O 0.60791 0.8967 0.7211 0.0
Fe514 Fe 0.57842 0.88563 0.68953 0.0
Fe515 Fe 0.60707 0.86038 0.7436 0.0
O516 O 0.6072 0.89728 0.71849 0.0
O517 O 0.57908 0.84825 0.71057 0.0
O518 O 0.57995 0.84751 0.71353 0.0
Fe519 Fe 0.54389 0.82837 0.72278 0.0
C520 C 0.66349 0.85393 0.71049 0.0
O521 O 0.64633 0.92296 0.75252 0.0
O522 O 0.63554 0.87929 0.77297 0.0
O523 O 0.51689 0.86394 0.71512 0.0
O524 O 0.54671 0.90062 0.71578 0.0
O525 O 0.58191 0.92711 0.67199 0.0
O526 O 0.61652 0.94911 0.69926 0.0
O527 O 0.57382 0.87605 0.76901 0.0
O528 O 0.54498 0.83861 0.76511 0.0
C529 C 0.59604 0.94933 0.68071 0.0
O530 O 0.54096 0.82193 0.67914 0.0
O531 O 0.54755 0.86786 0.66198 0.0
O532 O 0.66948 0.88011 0.71461 0.0
O533 O 0.63964 0.84356 0.71853 0.0
C534 C 0.64494 0.90546 0.77404 0.0
C535 C 0.55214 0.86161 0.77713 0.0
C536 C 0.59242 0.7966 0.75384 0.0
O537 O 0.60358 0.8202 0.76287 0.0
O538 O 0.57214 0.79506 0.73483 0.0
C539 C 0.52146 0.89091 0.71584 0.0
O540 O 0.60935 0.87195 0.6612 0.0
O541 O 0.64137 0.90657 0.66667 0.0
C542 C 0.53759 0.84189 0.65992 0.0
C543 C 0.6297 0.88743 0.65177 0.0
Fe544 Fe 0.94623 0.13995 0.18032 0.0
O545 O 0.95094 0.15503 0.21979 0.0
Fe546 Fe 0.87298 0.12954 0.17577 0.0
Fe547 Fe 0.98299 0.17887 0.23117 0.0
O548 O 0.90598 0.15352 0.18511 0.0
O549 O 0.90443 0.15496 0.18724 0.0
O550 O 0.94911 0.15535 0.22249 0.0
Fe551 Fe 0.90906 0.16995 0.22706 0.0
C552 C 1.00641 0.12544 0.20074 0.0
O553 O 0.95851 0.17816 0.16139 0.0
O554 O 0.99405 0.19043 0.19 0.0
O555 O 0.86555 0.18499 0.22227 0.0
O556 O 0.8507 0.16656 0.17911 0.0
O557 O 0.88839 0.13525 0.13443 0.0
O558 O 0.93619 0.12513 0.13992 0.0
O559 O 0.95931 0.21685 0.23768 0.0
O560 O 0.92168 0.20887 0.21143 0.0
C561 C 0.91328 0.12742 0.12481 0.0
O562 O 0.89665 0.13162 0.24491 0.0
O563 O 0.86013 0.11992 0.21741 0.0
O564 O 0.98821 0.12718 0.18022 0.0
O565 O 1.00616 0.1415 0.22329 0.0
C566 C 0.98245 0.19036 0.16552 0.0
C567 C 0.93535 0.2253 0.22781 0.0
C568 C 0.94595 0.1769 0.28333 0.0
O569 O 0.96938 0.16838 0.27125 0.0
O570 O 0.92196 0.18237 0.26974 0.0
C571 C 0.84892 0.18467 0.19974 0.0
O572 O 0.89547 0.09225 0.17517 0.0
O573 O 0.93678 0.09998 0.1968 0.0
C574 C 0.87454 0.11686 0.24022 0.0
C575 C 0.91806 0.08325 0.18688 0.0
Fe576 Fe 0.15347 0.63514 0.32974 0.0
O577 O 0.11764 0.65512 0.3216 0.0
Fe578 Fe 0.0787 0.63525 0.33202 0.0
Fe579 Fe 0.10819 0.66887 0.28226 0.0
O580 O 0.11627 0.65414 0.32422 0.0
O581 O 0.0688 0.6504 0.29309 0.0
O582 O 0.07018 0.65135 0.29057 0.0
Fe583 Fe 0.03454 0.67309 0.28406 0.0
C584 C 0.16731 0.69138 0.30265 0.0
O585 O 0.16385 0.62871 0.28691 0.0
O586 O 0.1224 0.63126 0.26453 0.0
O587 O 0.01466 0.63458 0.29468 0.0
O588 O 0.03845 0.61754 0.33442 0.0
O589 O 0.09286 0.59651 0.31483 0.0
O590 O 0.1372 0.5953 0.33166 0.0
O591 O 0.09098 0.68018 0.24089 0.0
O592 O 0.04495 0.66337 0.24284 0.0
C593 C 0.1153 0.58282 0.32238 0.0
O594 O 0.02588 0.68405 0.32574 0.0
O595 O 0.06254 0.6711 0.35303 0.0
O596 O 0.16927 0.67496 0.32482 0.0
O597 O 0.14987 0.68756 0.28138 0.0
C598 C 0.14759 0.62142 0.26656 0.0
C599 C 0.06647 0.67411 0.22908 0.0
C600 C 0.07911 0.72256 0.28374 0.0
O601 O 0.09433 0.70652 0.29919 0.0
O602 O 0.05538 0.71268 0.27488 0.0
C603 C 0.01771 0.61709 0.31624 0.0
O604 O 0.09425 0.62158 0.37138 0.0
O605 O 0.14086 0.63768 0.37196 0.0
C606 C 0.03813 0.68301 0.34987 0.0
C607 C 0.11836 0.62641 0.38386 0.0
Fe608 Fe 0.46653 0.33643 0.80088 0.0
O609 O 0.43098 0.35797 0.80831 0.0
Fe610 Fe 0.40627 0.36725 0.77218 0.0
Fe611 Fe 0.43029 0.39715 0.82494 0.0
O612 O 0.43089 0.35734 0.80524 0.0
O613 O 0.40326 0.40546 0.79054 0.0
O614 O 0.4037 0.40622 0.79309 0.0
Fe615 Fe 0.3667 0.42485 0.79921 0.0
C616 C 0.46632 0.35572 0.86241 0.0
O617 O 0.49311 0.37174 0.80628 0.0
O618 O 0.4642 0.40898 0.79958 0.0
O619 O 0.36441 0.42627 0.75538 0.0
O620 O 0.37975 0.38238 0.7393 0.0
O621 O 0.44111 0.38049 0.74763 0.0
O622 O 0.46879 0.34292 0.75757 0.0
O623 O 0.42582 0.4404 0.83682 0.0
O624 O 0.39318 0.45933 0.80464 0.0
C625 C 0.46304 0.36497 0.74273 0.0
O626 O 0.34179 0.38791 0.79965 0.0
O627 O 0.37292 0.35214 0.79648 0.0
O628 O 0.46545 0.33434 0.84484 0.0
O629 O 0.45811 0.38176 0.85648 0.0
C630 C 0.48914 0.39841 0.80158 0.0
C631 C 0.4127 0.46165 0.82413 0.0
C632 C 0.37927 0.40502 0.86052 0.0
O633 O 0.39746 0.38641 0.85264 0.0
O634 O 0.36836 0.42222 0.84265 0.0
C635 C 0.36836 0.40747 0.73566 0.0
O636 O 0.41127 0.32607 0.75768 0.0
O637 O 0.4387 0.30285 0.79128 0.0
C638 C 0.34898 0.36201 0.80451 0.0
C639 C 0.41946 0.30335 0.77131 0.0
Fe640 Fe 0.6793 0.5671 0.88823 0.0
O641 O 0.70642 0.56754 0.85496 0.0
Fe642 Fe 0.69641 0.62959 0.92388 0.0
Fe643 Fe 0.71997 0.53261 0.83585 0.0
O644 O 0.70705 0.59378 0.90575 0.0
O645 O 0.71008 0.59374 0.90609 0.0
O646 O 0.70934 0.5683 0.85471 0.0
Fe647 Fe 0.73803 0.59332 0.87362 0.0
C648 C 0.70504 0.50952 0.89737 0.0
O649 O 0.65371 0.53845 0.86591 0.0
O650 O 0.67751 0.5302 0.82342 0.0
O651 O 0.71691 0.62768 0.85471 0.0
O652 O 0.71117 0.65617 0.89163 0.0
O653 O 0.65683 0.63074 0.90593 0.0
O654 O 0.65595 0.59949 0.87024 0.0
O655 O 0.73706 0.56212 0.80539 0.0
O656 O 0.76245 0.59088 0.83607 0.0
C657 C 0.64525 0.62032 0.88393 0.0
O658 O 0.76494 0.61922 0.8996 0.0
O659 O 0.73682 0.62859 0.93934 0.0
O660 O 0.701 0.53445 0.90689 0.0
O661 O 0.70796 0.50489 0.87039 0.0
C662 C 0.65508 0.52861 0.83999 0.0
C663 C 0.75621 0.58189 0.81055 0.0
C664 C 0.7689 0.53699 0.87595 0.0
O665 O 0.76044 0.53298 0.85076 0.0
O666 O 0.75979 0.55795 0.89089 0.0
C667 C 0.70883 0.65141 0.86507 0.0
O668 O 0.67851 0.60252 0.95348 0.0
O669 O 0.65436 0.56999 0.92577 0.0
C670 C 0.76128 0.62601 0.92657 0.0
C671 C 0.65948 0.58293 0.94969 0.0
Fe672 Fe 0.18868 0.93444 0.13264 0.0
O673 O 0.20572 0.93295 0.17179 0.0
Fe674 Fe 0.21281 0.87193 0.10179 0.0
Fe675 Fe 0.21425 0.96817 0.19343 0.0
O676 O 0.21959 0.90727 0.12221 0.0
O677 O 0.22225 0.90708 0.12279 0.0
O678 O 0.20906 0.93299 0.17235 0.0
Fe679 Fe 0.24145 0.90783 0.16078 0.0
C680 C 0.2124 0.99226 0.13188 0.0
O681 O 0.15843 0.96306 0.14944 0.0
O682 O 0.1704 0.96791 0.19702 0.0
O683 O 0.21651 0.8746 0.17505 0.0
O684 O 0.21277 0.84552 0.13786 0.0
O685 O 0.16923 0.87391 0.10568 0.0
O686 O 0.15991 0.90201 0.14257 0.0
O687 O 0.22603 0.93975 0.22662 0.0
O688 O 0.25736 0.91067 0.20185 0.0
C689 C 0.15234 0.88279 0.12505 0.0
O690 O 0.27318 0.88089 0.14412 0.0
O691 O 0.25673 0.86883 0.09951 0.0
O692 O 0.21528 0.96745 0.1216 0.0
O693 O 0.20727 0.99585 0.15852 0.0
C694 C 0.15306 0.97109 0.17565 0.0
C695 C 0.2467 0.92094 0.22528 0.0
C696 C 0.27198 0.96408 0.1636 0.0
O697 O 0.25716 0.97018 0.18553 0.0
O698 O 0.26662 0.94251 0.14798 0.0
C699 C 0.20738 0.85181 0.16392 0.0
O700 O 0.20718 0.90024 0.06839 0.0
O701 O 0.17664 0.93332 0.08913 0.0
C702 C 0.27655 0.87103 0.11844 0.0
C703 C 0.18904 0.92135 0.067 0.0
Fe704 Fe 0.31175 0.14003 0.60255 0.0
O705 O 0.29974 0.10429 0.62134 0.0
Fe706 Fe 0.33136 0.075 0.63416 0.0
Fe707 Fe 0.27653 0.10373 0.65714 0.0
O708 O 0.30242 0.10361 0.62099 0.0
O709 O 0.30907 0.07521 0.67071 0.0
O710 O 0.30608 0.07593 0.67107 0.0
Fe711 Fe 0.29654 0.03984 0.69008 0.0
C712 C 0.3084 0.15903 0.66383 0.0
O713 O 0.2689 0.14265 0.59363 0.0
O714 O 0.24795 0.13319 0.63747 0.0
O715 O 0.30535 0.01346 0.65505 0.0
O716 O 0.30604 0.04379 0.61836 0.0
O717 O 0.35059 0.07872 0.59345 0.0
O718 O 0.32362 0.1132 0.57002 0.0
O719 O 0.25116 0.07213 0.64115 0.0
O720 O 0.25491 0.04172 0.67792 0.0
C721 C 0.34234 0.09269 0.57074 0.0
O722 O 0.33997 0.03587 0.69805 0.0
O723 O 0.35894 0.04413 0.65302 0.0
O724 O 0.30395 0.1656 0.63778 0.0
O725 O 0.30124 0.135 0.6741 0.0
C726 C 0.24718 0.14208 0.61093 0.0
C727 C 0.24226 0.05103 0.65582 0.0
C728 C 0.26443 0.0883 0.72063 0.0
O729 O 0.25635 0.10011 0.69681 0.0
O730 O 0.28338 0.06781 0.72287 0.0
C731 C 0.30498 0.01854 0.62816 0.0
O732 O 0.35801 0.10587 0.64908 0.0
O733 O 0.35373 0.13803 0.61393 0.0
C734 C 0.36016 0.03322 0.67885 0.0
C735 C 0.36779 0.12632 0.63396 0.0
Fe736 Fe 0.77631 0.40813 0.35744 0.0
O737 O 0.79443 0.40664 0.39593 0.0
Fe738 Fe 0.80298 0.46945 0.32532 0.0
Fe739 Fe 0.80505 0.37058 0.4159 0.0
O740 O 0.80827 0.43411 0.34672 0.0
O741 O 0.81088 0.43444 0.34734 0.0
O742 O 0.79709 0.40691 0.39649 0.0
Fe743 Fe 0.82783 0.43446 0.38617 0.0
C744 C 0.74144 0.36971 0.39958 0.0
O745 O 0.80239 0.37562 0.34357 0.0
O746 O 0.80469 0.3449 0.37977 0.0
O747 O 0.85838 0.46318 0.37049 0.0
O748 O 0.84687 0.47029 0.32314 0.0
O749 O 0.79524 0.4403 0.29243 0.0
O750 O 0.76238 0.41136 0.31553 0.0
O751 O 0.84848 0.37355 0.41142 0.0
O752 O 0.85514 0.40254 0.37448 0.0
C753 C 0.77676 0.4195 0.29304 0.0
O754 O 0.80162 0.4671 0.39779 0.0
O755 O 0.80754 0.4967 0.36081 0.0
O756 O 0.74464 0.38033 0.37389 0.0
O757 O 0.76134 0.36704 0.41844 0.0
C758 C 0.81076 0.35207 0.35408 0.0
C759 C 0.8646 0.3847 0.39253 0.0
C760 C 0.82996 0.41804 0.45101 0.0
O761 O 0.8111 0.39769 0.44984 0.0
O762 O 0.84115 0.43121 0.42891 0.0
C763 C 0.86422 0.47179 0.34456 0.0
O764 O 0.75968 0.46962 0.33104 0.0
O765 O 0.75038 0.44263 0.3695 0.0
C766 C 0.80411 0.49219 0.38774 0.0
C767 C 0.74509 0.4642 0.35339 0.0
H768 H 0.16231 0.54927 0.32028 0.0
H769 H 0.07088 0.54513 0.33207 0.0
H770 H 0.16707 0.50062 0.33823 0.0
H771 H 0.07579 0.49546 0.34894 0.0
H772 H 0.1018 0.39848 0.34745 0.0
H773 H 0.09886 0.44581 0.32651 0.0
H774 H 0.15339 0.47817 0.39232 0.0
H775 H 0.15539 0.43031 0.4147 0.0
C776 C 0.14309 0.53772 0.32606 0.0
C777 C 0.11615 0.55123 0.32492 0.0
C778 C 0.14597 0.50997 0.33662 0.0
C779 C 0.12194 0.49464 0.3456 0.0
C780 C 0.09471 0.5071 0.3424 0.0
C781 C 0.09182 0.53531 0.33233 0.0
C782 C 0.11334 0.41552 0.35767 0.0
C783 C 0.12849 0.41057 0.3832 0.0
C784 C 0.11147 0.44268 0.34557 0.0
C785 C 0.12536 0.46564 0.35808 0.0
C786 C 0.14223 0.46067 0.38245 0.0
C787 C 0.14363 0.43332 0.3951 0.0
H788 H 0.36846 0.63713 0.84264 0.0
H789 H 0.40178 0.61664 0.9258 0.0
H790 H 0.3771 0.5882 0.82732 0.0
H791 H 0.41293 0.5685 0.91019 0.0
H792 H 0.40857 0.4763 0.87969 0.0
H793 H 0.39869 0.5238 0.89785 0.0
H794 H 0.41395 0.55913 0.81327 0.0
H795 H 0.42121 0.51112 0.79499 0.0
C796 C 0.37722 0.62186 0.8577 0.0
C797 C 0.38394 0.63016 0.88544 0.0
C798 C 0.38283 0.59401 0.84885 0.0
C799 C 0.39637 0.57432 0.86728 0.0
C800 C 0.40219 0.5827 0.89544 0.0
C801 C 0.39572 0.61027 0.90449 0.0
C802 C 0.41042 0.4944 0.86524 0.0
C803 C 0.41562 0.49027 0.83603 0.0
C804 C 0.40468 0.5217 0.87558 0.0
C805 C 0.40483 0.54549 0.85696 0.0
C806 C 0.41248 0.54134 0.8281 0.0
C807 C 0.4173 0.51395 0.81766 0.0
H808 H 0.56127 0.99383 0.69418 0.0
H809 H 0.62587 0.96575 0.63452 0.0
H810 H 0.56709 0.04293 0.67701 0.0
H811 H 0.63311 0.0147 0.61832 0.0
H812 H 0.62897 0.10651 0.58486 0.0
H813 H 0.61815 0.05655 0.59523 0.0
H814 H 0.60208 0.07784 0.68376 0.0
H815 H 0.61144 0.12782 0.67282 0.0
C816 C 0.57607 0.99819 0.67677 0.0
C817 C 0.59284 0.97631 0.66527 0.0
C818 C 0.57991 0.0263 0.6673 0.0
C819 C 0.60113 0.03295 0.64675 0.0
C820 C 0.61649 0.0105 0.634 0.0
C821 C 0.6123 0.98242 0.64316 0.0
C822 C 0.62372 0.10026 0.60662 0.0
C823 C 0.62116 0.12082 0.62812 0.0
C824 C 0.6173 0.07169 0.61257 0.0
C825 C 0.60863 0.06315 0.64024 0.0
C826 C 0.60768 0.0837 0.662 0.0
C827 C 0.61357 0.11225 0.65592 0.0
H828 H 0.94756 0.91635 0.10779 0.0
H829 H 0.85769 0.93252 0.11965 0.0
H830 H 0.95848 0.96218 0.13016 0.0
H831 H 0.86824 0.97846 0.14098 0.0
H832 H 0.88934 0.0382 0.20874 0.0
H833 H 0.88675 0.99133 0.18671 0.0
H834 H 0.95544 0.01452 0.1289 0.0
H835 H 0.95847 0.0611 0.15185 0.0
C836 C 0.93016 0.93035 0.114 0.0
C837 C 0.90178 0.9212 0.11177 0.0
C838 C 0.93639 0.9564 0.12713 0.0
C839 C 0.91427 0.97358 0.13822 0.0
C840 C 0.88585 0.96532 0.13364 0.0
C841 C 0.87971 0.93932 0.12084 0.0
C842 C 0.90481 0.03266 0.19232 0.0
C843 C 0.92448 0.05294 0.18237 0.0
C844 C 0.90293 1.0061 0.17919 0.0
C845 C 0.92027 0.99951 0.15537 0.0
C846 C 0.94175 0.01887 0.14713 0.0
C847 C 0.94384 0.04539 0.16058 0.0
H848 H 0.39164 0.11783 0.55642 0.0
H849 H 0.32629 0.06217 0.52494 0.0
H850 H 0.4059 0.12981 0.50757 0.0
H851 H 0.3414 0.07267 0.4759 0.0
H852 H 0.33984 0.12918 0.39883 0.0
H853 H 0.3331 0.1146 0.44847 0.0
H854 H 0.42421 0.11919 0.46135 0.0
H855 H 0.43058 0.13516 0.41192 0.0
C856 C 0.38149 0.10691 0.5389 0.0
C857 C 0.35809 0.08901 0.54408 0.0
C858 C 0.38944 0.11395 0.51093 0.0
C859 C 0.37414 0.10292 0.48784 0.0
C860 C 0.35292 0.08232 0.49326 0.0
C861 C 0.34467 0.07572 0.52124 0.0
C862 C 0.35823 0.12795 0.41264 0.0
C863 C 0.38562 0.13349 0.40182 0.0
C864 C 0.35454 0.11896 0.44085 0.0
C865 C 0.37825 0.11475 0.45861 0.0
C866 C 0.40552 0.12209 0.44823 0.0
C867 C 0.40916 0.13157 0.42005 0.0
H868 H 0.14925 0.96199 0.05166 0.0
H869 H 0.21003 0.90213 0.01592 0.0
H870 H 0.13188 0.9725 1.00368 0.0
H871 H 0.19215 0.91189 0.96861 0.0
H872 H 0.16177 0.93643 0.88293 0.0
H873 H 0.18551 0.94319 0.92865 0.0
H874 H 0.10342 0.94591 0.97143 0.0
H875 H 0.07992 0.9402 0.92608 0.0
C876 C 0.15911 0.95127 0.03366 0.0
C877 C 0.18066 0.93077 0.03786 0.0
C878 C 0.14909 0.95724 1.00614 0.0
C879 C 0.16037 0.94281 0.98224 0.0
C880 C 0.1831 0.92367 0.98635 0.0
C881 C 0.19315 0.9178 0.01372 0.0
C882 C 0.14883 0.9392 0.90202 0.0
C883 C 0.11897 0.93727 0.90088 0.0
C884 C 0.16242 0.94288 0.92826 0.0
C885 C 0.14641 0.94472 0.95384 0.0
C886 C 0.11651 0.94482 0.95227 0.0
C887 C 0.103 0.94119 0.92617 0.0
H888 H 0.80353 0.41123 0.50244 0.0
H889 H 0.88339 0.43731 0.4636 0.0
H890 H 0.82494 0.41348 0.54936 0.0
H891 H 0.90493 0.43985 0.51102 0.0
H892 H 0.93482 0.39293 0.59739 0.0
H893 H 0.91812 0.40308 0.54872 0.0
H894 H 0.84466 0.44706 0.58362 0.0
H895 H 0.86081 0.43635 0.63169 0.0
C896 C 0.82554 0.41797 0.50401 0.0
C897 C 0.84177 0.42406 0.47939 0.0
C898 C 0.8378 0.41942 0.5309 0.0
C899 C 0.86664 0.42686 0.53385 0.0
C900 C 0.8827 0.43393 0.50932 0.0
C901 C 0.87029 0.43276 0.48228 0.0
C902 C 0.91541 0.40518 0.59448 0.0
C903 C 0.89868 0.41323 0.61812 0.0
C904 C 0.90592 0.41111 0.56673 0.0
C905 C 0.87979 0.4254 0.56246 0.0
C906 C 0.86449 0.43542 0.58626 0.0
C907 C 0.87373 0.42926 0.61375 0.0
H908 H 0.61135 0.61182 0.96117 0.0
H909 H 0.66789 0.5471 0.99422 0.0
H910 H 0.5982 0.62548 1.00973 0.0
H911 H 0.65402 0.55982 0.04288 0.0
H912 H 0.67182 0.62327 0.11184 0.0
H913 H 0.67162 0.60427 0.06363 0.0
H914 H 0.58051 0.61779 0.0594 0.0
H915 H 0.58097 0.63748 0.10778 0.0
C916 C 0.6194 0.59921 0.97889 0.0
C917 C 0.64065 0.57855 0.97424 0.0
C918 C 0.61215 0.60726 1.0067 0.0
C919 C 0.626 0.59447 0.02999 0.0
C920 C 0.64376 0.57066 0.0252 0.0
C921 C 0.65123 0.56288 0.99741 0.0
C922 C 0.65193 0.62295 0.10024 0.0
C923 C 0.62648 0.63194 0.11331 0.0
C924 C 0.65164 0.61148 0.07294 0.0
C925 C 0.62583 0.60848 0.05823 0.0
C926 C 0.60062 0.61949 0.07043 0.0
C927 C 0.60096 0.63118 0.09785 0.0
H928 H 0.41491 0.39855 0.16154 0.0
H929 H 0.39335 0.36032 0.08078 0.0
H930 H 0.46156 0.37457 0.15942 0.0
H931 H 0.43904 0.33656 0.07903 0.0
H932 H 0.53768 0.33076 0.06927 0.0
H933 H 0.48893 0.34931 0.07159 0.0
H934 H 0.48362 0.32625 0.16103 0.0
H935 H 0.53224 0.30782 0.15872 0.0
C936 C 0.41997 0.38507 0.14349 0.0
C937 C 0.40031 0.38163 0.12135 0.0
C938 C 0.44659 0.37117 0.14231 0.0
C939 C 0.45406 0.35374 0.11891 0.0
C940 C 0.43422 0.35011 0.09711 0.0
C941 C 0.40781 0.36374 0.09832 0.0
C942 C 0.52577 0.32876 0.08914 0.0
C943 C 0.53886 0.31788 0.11379 0.0
C944 C 0.49791 0.33965 0.0906 0.0
C945 C 0.48261 0.33982 0.11672 0.0
C946 C 0.49506 0.32713 0.14082 0.0
C947 C 0.52278 0.3162 0.13934 0.0
H948 H 0.01563 0.18591 0.95058 0.0
H949 H 0.06049 0.11657 0.90986 0.0
H950 H 0.97056 0.16776 0.9328 0.0
H951 H 0.01551 0.09884 0.89094 0.0
H952 H 0.91898 0.07058 0.8804 0.0
H953 H 0.96686 0.08001 0.89819 0.0
H954 H 0.95357 0.17029 0.88387 0.0
H955 H 0.90546 0.16077 0.86724 0.0
C956 C 0.01558 0.16603 0.93889 0.0
C957 C 0.04127 0.15244 0.93175 0.0
C958 C 0.98996 0.15602 0.92807 0.0
C959 C 0.98973 0.1326 0.90945 0.0
C960 C 0.01508 0.11712 0.90496 0.0
C961 C 0.04075 0.12698 0.91616 0.0
C962 C 0.92696 0.09226 0.8797 0.0
C963 C 0.9088 0.11501 0.8724 0.0
C964 C 0.95417 0.0977 0.89033 0.0
C965 C 0.96347 0.12595 0.89348 0.0
C966 C 0.94651 0.14835 0.88272 0.0
C967 C 0.91929 0.14293 0.8725 0.0
H968 H 0.60154 0.93273 0.41009 0.0
H969 H 0.63967 0.86128 0.4545 0.0
H970 H 0.5544 0.91746 0.42663 0.0
H971 H 0.59292 0.84677 0.4722 0.0
H972 H 0.50774 0.80524 0.44458 0.0
H973 H 0.55527 0.82477 0.44746 0.0
H974 H 0.51966 0.90832 0.4643 0.0
H975 H 0.47155 0.8885 0.46059 0.0
C976 C 0.59979 0.91402 0.42374 0.0
C977 C 0.62395 0.89761 0.43025 0.0
C978 C 0.5729 0.9055 0.43359 0.0
C979 C 0.56989 0.88069 0.4505 0.0
C980 C 0.59446 0.86558 0.45868 0.0
C981 C 0.62118 0.87377 0.4484 0.0
C982 C 0.51007 0.82762 0.4497 0.0
C983 C 0.48614 0.8455 0.45187 0.0
C984 C 0.53736 0.83885 0.45158 0.0
C985 C 0.54128 0.86825 0.45568 0.0
C986 C 0.51725 0.88567 0.46063 0.0
C987 C 0.48977 0.87432 0.45884 0.0
H988 H 0.97102 0.61436 0.6097 0.0
H989 H 1.00148 0.68045 0.55277 0.0
H990 H 0.01957 0.60265 0.62279 0.0
H991 H 0.05059 0.66814 0.56486 0.0
H992 H 0.12108 0.67803 0.62853 0.0
H993 H 0.07327 0.67982 0.60874 0.0
H994 H 0.06776 0.58786 0.61529 0.0
H995 H 0.11522 0.5864 0.63627 0.0
C996 C 0.98827 0.62496 0.59842 0.0
C997 C 0.9827 0.64804 0.58005 0.0
C998 C 0.01618 0.61856 0.60626 0.0
C999 C 0.03886 0.63515 0.59563 0.0
C1000 C 0.03341 0.65563 0.57415 0.0
C1001 C 1.00543 0.66227 0.56665 0.0
C1002 C 0.10918 0.65836 0.62653 0.0
C1003 C 0.1215 0.63218 0.63419 0.0
C1004 C 0.08214 0.65923 0.61455 0.0
C1005 C 0.06711 0.63386 0.60951 0.0
C1006 C 0.07884 0.60776 0.61874 0.0
C1007 C 0.1058 0.60694 0.63115 0.0
H1008 H 0.92025 0.49191 0.73809 0.0
H1009 H 0.95048 0.46041 0.65717 0.0
H1010 H 0.91211 0.53873 0.71679 0.0
H1011 H 0.93957 0.50559 0.63478 0.0
H1012 H 0.92565 0.59422 0.59911 0.0
H1013 H 0.94134 0.55028 0.62142 0.0
H1014 H 0.88191 0.56487 0.69142 0.0
H1015 H 0.86919 0.61072 0.67007 0.0
C1016 C 0.92623 0.49542 0.71591 0.0
C1017 C 0.93678 0.47268 0.69953 0.0
C1018 C 0.92051 0.52207 0.70323 0.0
C1019 C 0.92396 0.5264 0.67346 0.0
C1020 C 0.93659 0.504 0.65766 0.0
C1021 C 0.94332 0.4778 0.67062 0.0
C1022 C 0.91562 0.58761 0.61903 0.0
C1023 C 0.89596 0.60567 0.63265 0.0
C1024 C 0.92462 0.56217 0.63207 0.0
C1025 C 0.91349 0.5534 0.65888 0.0
C1026 C 0.8921 0.57082 0.67144 0.0
C1027 C 0.88395 0.59688 0.65879 0.0
H1028 H 0.59178 0.52692 0.21312 0.0
H1029 H 0.57196 0.5583 0.12861 0.0
H1030 H 0.58719 0.47837 0.19695 0.0
H1031 H 0.56653 0.50906 0.11214 0.0
H1032 H 0.57768 0.39243 0.16805 0.0
H1033 H 0.56029 0.44013 0.17912 0.0
H1034 H 0.60298 0.47305 0.10344 0.0
H1035 H 0.61883 0.42474 0.09157 0.0
C1036 C 0.58553 0.52328 0.19121 0.0
C1037 C 0.5827 0.54609 0.17194 0.0
C1038 C 0.58261 0.49544 0.18193 0.0
C1039 C 0.57679 0.48982 0.15312 0.0
C1040 C 0.57142 0.5128 0.13437 0.0
C1041 C 0.57425 0.54088 0.14379 0.0
C1042 C 0.58306 0.40992 0.15372 0.0
C1043 C 0.60028 0.40541 0.12953 0.0
C1044 C 0.57299 0.43713 0.15991 0.0
C1045 C 0.58071 0.46044 0.14248 0.0
C1046 C 0.59646 0.45552 0.1172 0.0
C1047 C 0.60593 0.42804 0.1106 0.0
H1048 H 0.39168 0.05362 0.38912 0.0
H1049 H 0.46103 0.02747 0.33405 0.0
H1050 H 0.38537 1.00458 0.40548 0.0
H1051 H 0.45598 0.97834 0.3514 0.0
H1052 H 0.41225 0.89293 0.35139 0.0
H1053 H 0.42146 0.94315 0.3417 0.0
H1054 H 0.40068 0.96294 0.42964 0.0
H1055 H 0.39019 0.91263 0.4388 0.0
C1056 C 0.40643 0.0374 0.3816 0.0
C1057 C 0.42695 0.044 0.36062 0.0
C1058 C 0.40279 1.00929 0.39086 0.0
C1059 C 0.41973 0.98738 0.37928 0.0
C1060 C 0.44203 0.99461 0.36013 0.0
C1061 C 0.44538 0.02273 0.35059 0.0
C1062 C 0.40911 0.9082 0.36843 0.0
C1063 C 0.40035 0.89911 0.39573 0.0
C1064 C 0.4149 0.93687 0.36308 0.0
C1065 C 0.41258 0.95703 0.38509 0.0
C1066 C 0.40268 0.94802 0.41219 0.0
C1067 C 0.39642 0.91929 0.41741 0.0
H1068 H 0.1247 0.09529 0.91636 0.0
H1069 H 0.13398 0.13507 0.83344 0.0
H1070 H 0.11199 0.0502 0.89339 0.0
H1071 H 0.12238 0.08972 0.81047 0.0
H1072 H 0.12293 0.98272 0.79784 0.0
H1073 H 0.14208 0.02829 0.81413 0.0
H1074 H 0.06197 0.04717 0.8558 0.0
H1075 H 0.04216 1.00255 0.83844 0.0
C1076 C 0.12541 0.09402 0.89325 0.0
C1077 C 0.13085 0.11855 0.87668 0.0
C1078 C 0.11778 0.06837 0.88012 0.0
C1079 C 0.11608 0.0666 0.85017 0.0
C1080 C 0.12365 0.09049 0.83355 0.0
C1081 C 0.13054 0.11634 0.84669 0.0
C1082 C 0.10886 0.99712 0.80921 0.0
C1083 C 0.08077 0.98884 0.81643 0.0
C1084 C 0.12008 0.02301 0.81901 0.0
C1085 C 0.10366 0.04088 0.8367 0.0
C1086 C 0.0752 0.03353 0.84254 0.0
C1087 C 0.06381 1.00805 0.8323 0.0
H1088 H 0.63697 0.93874 0.47219 0.0
H1089 H 0.72203 0.9455 0.50546 0.0
H1090 H 0.61932 0.92422 0.51896 0.0
H1091 H 0.70417 0.93376 0.55309 0.0
H1092 H 0.6782 0.87405 0.62288 0.0
H1093 H 0.69166 0.89168 0.5755 0.0
H1094 H 0.60772 0.92929 0.56641 0.0
H1095 H 0.594 0.90953 0.6128 0.0
C1096 C 0.65166 0.93853 0.48986 0.0
C1097 C 0.68097 0.94265 0.4851 0.0
C1098 C 0.64155 0.93004 0.51684 0.0
C1099 C 0.6605 0.92651 0.53979 0.0
C1100 C 0.68914 0.93474 0.53571 0.0
C1101 C 0.69932 0.94234 0.50857 0.0
C1102 C 0.66239 0.885 0.61005 0.0
C1103 C 0.63491 0.88978 0.62095 0.0
C1104 C 0.67024 0.89589 0.58323 0.0
C1105 C 0.65108 0.91276 0.56721 0.0
C1106 C 0.62308 0.91633 0.57779 0.0
C1107 C 0.61505 0.90475 0.60429 0.0
H1108 H 0.9097 0.07143 0.11499 0.0
H1109 H 0.91801 0.15297 0.07247 0.0
H1110 H 0.90549 0.04778 0.06879 0.0
H1111 H 0.91387 0.12945 0.02603 0.0
H1112 H 0.91268 0.08405 0.94563 0.0
H1113 H 0.93568 0.09176 0.99163 0.0
H1114 H 0.86312 0.05395 0.03489 0.0
H1115 H 0.84009 0.04688 0.989 0.0
C1116 C 0.91126 0.0841 0.09559 0.0
C1117 C 0.914 0.11385 0.09688 0.0
C1118 C 0.90892 0.07062 0.06929 0.0
C1119 C 0.90954 0.08677 0.04393 0.0
C1120 C 0.91383 0.11647 0.04529 0.0
C1121 C 0.91587 0.12998 0.07169 0.0
C1122 C 0.90252 0.0759 0.96492 0.0
C1123 C 0.87482 0.06476 0.96408 0.0
C1124 C 0.91548 0.08063 0.99118 0.0
C1125 C 0.90093 0.07385 0.0167 0.0
C1126 C 0.87484 0.05924 0.01551 0.0
C1127 C 0.8617 0.05501 0.9893 0.0
H1128 H 0.13167 0.5817 0.5644 0.0
H1129 H 0.2139 0.60004 0.52617 0.0
H1130 H 0.11065 0.5793 0.51671 0.0
H1131 H 0.19318 0.59779 0.47899 0.0
H1132 H 0.1569 0.58634 0.39629 0.0
H1133 H 0.16963 0.56822 0.44344 0.0
H1134 H 0.10256 0.61947 0.48129 0.0
H1135 H 0.08912 0.6367 0.43356 0.0
C1136 C 0.14535 0.58433 0.54576 0.0
C1137 C 0.17428 0.59132 0.54869 0.0
C1138 C 0.13332 0.58315 0.51862 0.0
C1139 C 0.15026 0.58846 0.49426 0.0
C1140 C 0.17963 0.59326 0.49735 0.0
C1141 C 0.1915 0.59479 0.52433 0.0
C1142 C 0.14462 0.59326 0.41474 0.0
C1143 C 0.12268 0.61341 0.41184 0.0
C1144 C 0.15176 0.58282 0.44157 0.0
C1145 C 0.13742 0.59286 0.46595 0.0
C1146 C 0.11386 0.6113 0.46277 0.0
C1147 C 0.10637 0.62141 0.43567 0.0
H1148 H 0.31198 0.4631 0.02111 0.0
H1149 H 0.39452 0.43085 0.04533 0.0
H1150 H 0.32375 0.45587 0.9712 0.0
H1151 H 0.40715 0.42431 0.99481 0.0
H1152 H 0.39822 0.3757 0.90845 0.0
H1153 H 0.39345 0.39075 0.95839 0.0
H1154 H 0.35009 0.46753 0.9307 0.0
H1155 H 0.35301 0.45192 0.88201 0.0
C1156 C 0.33331 0.45594 0.0155 0.0
C1157 C 0.3525 0.44796 0.03689 0.0
C1158 C 0.34009 0.45152 0.98685 0.0
C1159 C 0.36633 0.43907 0.97887 0.0
C1160 C 0.38656 0.43342 1.00024 0.0
C1161 C 0.37967 0.43785 0.02909 0.0
C1162 C 0.38729 0.39553 0.91322 0.0
C1163 C 0.3755 0.41218 0.89117 0.0
C1164 C 0.38498 0.40444 0.94175 0.0
C1165 C 0.37125 0.43037 0.94866 0.0
C1166 C 0.36018 0.44716 0.92643 0.0
C1167 C 0.36188 0.43805 0.8983 0.0
H1168 H 0.62202 0.67298 0.87917 0.0
H1169 H 0.60119 0.58349 0.88369 0.0
H1170 H 0.57281 0.68518 0.89124 0.0
H1171 H 0.5523 0.59538 0.8974 0.0
H1172 H 0.46022 0.63275 0.90222 0.0
H1173 H 0.50716 0.61554 0.88714 0.0
H1174 H 0.54651 0.68359 0.9345 0.0
H1175 H 0.49939 0.70148 0.948 0.0
C1176 C 0.60656 0.65599 0.88185 0.0
C1177 C 0.61512 0.6274 0.88029 0.0
C1178 C 0.57858 0.66286 0.88947 0.0
C1179 C 0.55887 0.64122 0.89639 0.0
C1180 C 0.56691 0.61258 0.89236 0.0
C1181 C 0.59481 0.60574 0.88415 0.0
C1182 C 0.47906 0.6432 0.91028 0.0
C1183 C 0.47651 0.66812 0.9265 0.0
C1184 C 0.50593 0.63359 0.9014 0.0
C1185 C 0.53059 0.64872 0.90886 0.0
C1186 C 0.52791 0.67207 0.92747 0.0
C1187 C 0.50105 0.68193 0.93587 0.0
H1188 H 0.98447 0.83526 0.06457 0.0
H1189 H 0.97595 0.8283 0.1562 0.0
H1190 H 0.03536 0.84571 0.06977 0.0
H1191 H 0.02638 0.8388 0.16147 0.0
H1192 H 0.10612 0.89787 0.15916 0.0
H1193 H 0.05672 0.88154 0.1549 0.0
H1194 H 0.08177 0.8263 0.08564 0.0
H1195 H 0.13066 0.84235 0.08976 0.0
C1196 C 0.9936 0.83501 0.08569 0.0
C1197 C 0.97613 0.83074 0.10986 0.0
C1198 C 0.02272 0.8413 0.08878 0.0
C1199 C 0.03491 0.84359 0.11613 0.0
C1200 C 0.01765 0.83787 0.14015 0.0
C1201 C 0.98875 0.83153 0.13705 0.0
C1202 C 0.10113 0.88206 0.14323 0.0
C1203 C 0.12252 0.87165 0.12477 0.0
C1204 C 0.07282 0.87263 0.14078 0.0
C1205 C 0.0652 0.85272 0.11972 0.0
C1206 C 0.08671 0.84194 0.10176 0.0
C1207 C 0.11489 0.85113 0.10432 0.0
H1208 H 0.40913 0.08677 0.62693 0.0
H1209 H 0.39449 0.17715 0.63608 0.0
H1210 H 0.45685 0.09614 0.60788 0.0
H1211 H 0.4427 0.18673 0.61874 0.0
H1212 H 0.51318 0.2032 0.56071 0.0
H1213 H 0.46575 0.18607 0.57386 0.0
H1214 H 0.50369 0.1125 0.61527 0.0
H1215 H 0.55078 0.12892 0.60028 0.0
C1216 C 0.41676 0.10858 0.62615 0.0
C1217 C 0.39849 0.13131 0.63313 0.0
C1218 C 0.44392 0.11399 0.6149 0.0
C1219 C 0.45329 0.14223 0.61089 0.0
C1220 C 0.43575 0.16476 0.62042 0.0
C1221 C 0.40845 0.15936 0.63106 0.0
C1222 C 0.51108 0.18259 0.57119 0.0
C1223 C 0.53531 0.16717 0.57931 0.0
C1224 C 0.48407 0.17311 0.57943 0.0
C1225 C 0.48103 0.14854 0.59671 0.0
C1226 C 0.5052 0.13157 0.60214 0.0
C1227 C 0.53218 0.14077 0.59327 0.0
H1228 H 0.9013 0.42933 0.39108 0.0
H1229 H 0.89585 0.33908 0.40924 0.0
H1230 H 0.94875 0.43056 0.41171 0.0
H1231 H 0.94391 0.33969 0.42831 0.0
H1232 H 0.02027 0.34294 0.47641 0.0
H1233 H 0.97023 0.3544 0.46791 0.0
H1234 H 0.99603 0.41666 0.404 0.0
H1235 H 0.04568 0.40636 0.41415 0.0
C1236 C 0.91073 0.40956 0.3986 0.0
C1237 C 0.89523 0.38399 0.39827 0.0
C1238 C 0.93778 0.41031 0.41073 0.0
C1239 C 0.94999 0.38537 0.42229 0.0
C1240 C 0.93483 0.35955 0.42063 0.0
C1241 C 0.90759 0.35896 0.40907 0.0
C1242 C 0.01504 0.36034 0.46198 0.0
C1243 C 0.03647 0.37391 0.44596 0.0
C1244 C 0.98647 0.36645 0.45651 0.0
C1245 C 0.97913 0.38553 0.43434 0.0
C1246 C 1.00078 0.40175 0.4211 0.0
C1247 C 0.02931 0.39607 0.42708 0.0
H1248 H 0.25309 0.37437 0.22011 0.0
H1249 H 0.26833 0.44346 0.27851 0.0
H1250 H 0.22304 0.35087 0.25535 0.0
H1251 H 0.23832 0.41885 0.31474 0.0
H1252 H 0.20416 0.34315 0.37641 0.0
H1253 H 0.23595 0.36959 0.34415 0.0
H1254 H 0.17375 0.3636 0.27725 0.0
H1255 H 0.14151 0.33757 0.30968 0.0
C1256 C 0.25027 0.38457 0.24065 0.0
C1257 C 0.26298 0.41123 0.24614 0.0
C1258 C 0.23282 0.37098 0.26086 0.0
C1259 C 0.22769 0.38319 0.28765 0.0
C1260 C 0.2417 0.40898 0.29414 0.0
C1261 C 0.25907 0.42299 0.2735 0.0
C1262 C 0.19717 0.34733 0.35478 0.0
C1263 C 0.17026 0.33773 0.34559 0.0
C1264 C 0.21538 0.36282 0.33641 0.0
C1265 C 0.20748 0.36875 0.30812 0.0
C1266 C 0.18057 0.35927 0.29891 0.0
C1267 C 0.16209 0.34426 0.31746 0.0
H1268 H 0.36798 0.70096 0.81187 0.0
H1269 H 0.2999 0.70166 0.87482 0.0
H1270 H 0.3412 0.66736 0.78337 0.0
H1271 H 0.27334 0.66753 0.84646 0.0
H1272 H 0.22414 0.63029 0.76759 0.0
H1273 H 0.24788 0.66165 0.80152 0.0
H1274 H 0.32754 0.61766 0.78551 0.0
H1275 H 0.30377 0.58705 0.75114 0.0
C1276 C 0.34718 0.69422 0.81953 0.0
C1277 C 0.33619 0.70413 0.8457 0.0
C1278 C 0.33195 0.67459 0.80335 0.0
C1279 C 0.30531 0.66426 0.81286 0.0
C1280 C 0.29378 0.67498 0.83848 0.0
C1281 C 0.30904 0.69464 0.85471 0.0
C1282 C 0.24644 0.62665 0.77233 0.0
C1283 C 0.26206 0.60593 0.75732 0.0
C1284 C 0.26014 0.64477 0.79153 0.0
C1285 C 0.28977 0.64256 0.79585 0.0
C1286 C 0.30486 0.62041 0.78221 0.0
C1287 C 0.29119 0.60248 0.76297 0.0
H1288 H 0.70958 0.19616 0.65707 0.0
H1289 H 0.63171 0.17956 0.70433 0.0
H1290 H 0.7359 0.1658 0.69037 0.0
H1291 H 0.65779 0.1487 0.737 0.0
H1292 H 0.71671 0.12469 0.80935 0.0
H1293 H 0.69126 0.15243 0.77428 0.0
H1294 H 0.74379 0.11664 0.70716 0.0
H1295 H 0.77036 0.08889 0.74301 0.0
C1296 C 0.69804 0.18618 0.67462 0.0
C1297 C 0.66849 0.19083 0.67821 0.0
C1298 C 0.71314 0.16842 0.69353 0.0
C1299 C 0.69911 0.15472 0.71653 0.0
C1300 C 0.66953 0.15923 0.71992 0.0
C1301 C 0.65449 0.17705 0.70114 0.0
C1302 C 0.72307 0.12248 0.78716 0.0
C1303 C 0.7459 0.10444 0.77921 0.0
C1304 C 0.70811 0.13837 0.76688 0.0
C1305 C 0.71522 0.13685 0.73772 0.0
C1306 C 0.73783 0.11857 0.72947 0.0
C1307 C 0.75293 0.10244 0.74998 0.0
H1308 H 0.7906 0.83816 0.14572 0.0
H1309 H 0.82549 0.78697 0.21382 0.0
H1310 H 0.76199 0.86466 0.17967 0.0
H1311 H 0.79736 0.81439 0.2484 0.0
H1312 H 0.80138 0.90408 0.28887 0.0
H1313 H 0.81205 0.86569 0.25606 0.0
H1314 H 0.72712 0.872 0.22173 0.0
H1315 H 0.71608 0.91073 0.25541 0.0
C1316 C 0.79021 0.83078 0.16771 0.0
C1317 C 0.80958 0.80969 0.17692 0.0
C1318 C 0.77424 0.84658 0.18736 0.0
C1319 C 0.7779 0.84206 0.21671 0.0
C1320 C 0.79441 0.81853 0.22582 0.0
C1321 C 0.81015 0.80244 0.20602 0.0
C1322 C 0.78495 0.89753 0.2742 0.0
C1323 C 0.75789 0.91054 0.27471 0.0
C1324 C 0.79093 0.87512 0.25574 0.0
C1325 C 0.77011 0.86511 0.23701 0.0
C1326 C 0.74341 0.87899 0.23632 0.0
C1327 C 0.73728 0.90147 0.25516 0.0
H1328 H 0.29886 0.1545 0.32306 0.0
H1329 H 0.36526 0.21527 0.34007 0.0
H1330 H 0.26572 0.18187 0.35224 0.0
H1331 H 0.33252 0.24211 0.37069 0.0
H1332 H 0.25867 0.29783 0.40738 0.0
H1333 H 0.29392 0.27249 0.37782 0.0
H1334 H 0.25144 0.19284 0.39731 0.0
H1335 H 0.2158 0.21845 0.42514 0.0
C1336 C 0.30648 0.17374 0.33308 0.0
C1337 C 0.3349 0.18253 0.32892 0.0
C1338 C 0.28743 0.18944 0.35032 0.0
C1339 C 0.29612 0.21434 0.36467 0.0
C1340 C 0.32453 0.22339 0.36007 0.0
C1341 C 0.3435 0.20786 0.34241 0.0
C1342 C 0.25727 0.27484 0.40566 0.0
C1343 C 0.23442 0.26021 0.41879 0.0
C1344 C 0.2775 0.26015 0.38856 0.0
C1345 C 0.27567 0.23031 0.38434 0.0
C1346 C 0.25345 0.21576 0.39883 0.0
C1347 C 0.23309 0.23045 0.41535 0.0
H1348 H 0.16572 0.87028 0.87524 0.0
H1349 H 0.18492 0.80739 0.81066 0.0
H1350 H 0.19704 0.84545 0.90846 0.0
H1351 H 0.21638 0.78259 0.84414 0.0
H1352 H 0.25328 0.73265 0.91981 0.0
H1353 H 0.21478 0.75515 0.89224 0.0
H1354 H 0.25045 0.83811 0.9091 0.0
H1355 H 0.28879 0.81566 0.93613 0.0
C1356 C 0.17655 0.85112 0.86812 0.0
C1357 C 0.17298 0.84094 0.84017 0.0
C1358 C 0.19447 0.83692 0.8872 0.0
C1359 C 0.209 0.81204 0.87892 0.0
C1360 C 0.20513 0.80154 0.85118 0.0
C1361 C 0.18742 0.81594 0.83192 0.0
C1362 C 0.25224 0.75571 0.91828 0.0
C1363 C 0.27371 0.77253 0.93018 0.0
C1364 C 0.23052 0.76854 0.90226 0.0
C1365 C 0.22977 0.79834 0.89842 0.0
C1366 C 0.25035 0.81513 0.91186 0.0
C1367 C 0.27225 0.80233 0.92735 0.0
H1368 H 0.77158 0.25325 0.57526 0.0
H1369 H 0.71582 0.25265 0.64926 0.0
H1370 H 0.81101 0.26923 0.60537 0.0
H1371 H 0.7549 0.26816 0.6791 0.0
H1372 H 0.83513 0.28906 0.72866 0.0
H1373 H 0.8053 0.25804 0.69891 0.0
H1374 H 0.81344 0.31809 0.62882 0.0
H1375 H 0.84227 0.34879 0.65821 0.0
C1376 C 0.76795 0.25594 0.59797 0.0
C1377 C 0.74059 0.25239 0.60983 0.0
C1378 C 0.79042 0.26499 0.61519 0.0
C1379 C 0.78593 0.27 0.64456 0.0
C1380 C 0.75908 0.26426 0.65666 0.0
C1381 C 0.73662 0.25577 0.63945 0.0
C1382 C 0.8306 0.29532 0.70684 0.0
C1383 C 0.8403 0.32157 0.69593 0.0
C1384 C 0.81374 0.27764 0.68982 0.0
C1385 C 0.80723 0.28565 0.66151 0.0
C1386 C 0.81837 0.31114 0.65035 0.0
C1387 C 0.83451 0.32894 0.66739 0.0
H1388 H 0.71283 0.65085 0.16532 0.0
H1389 H 0.66473 0.72637 0.18707 0.0
H1390 H 0.74313 0.67914 0.13331 0.0
H1391 H 0.69504 0.7547 0.15501 0.0
H1392 H 0.77543 0.80119 0.11965 0.0
H1393 H 0.74195 0.7741 0.14917 0.0
H1394 H 0.74546 0.70555 0.08819 0.0
H1395 H 0.77941 0.73314 0.05884 0.0
C1396 C 0.70876 0.67355 0.16356 0.0
C1397 C 0.68632 0.68616 0.17944 0.0
C1398 C 0.72607 0.68983 0.14477 0.0
C1399 C 0.72181 0.71946 0.1412 0.0
C1400 C 0.69945 0.7321 0.1572 0.0
C1401 C 0.68195 0.71576 0.17578 0.0
C1402 C 0.76908 0.78042 0.11252 0.0
C1403 C 0.78115 0.76922 0.0873 0.0
C1404 C 0.74953 0.76479 0.12939 0.0
C1405 C 0.74106 0.73711 0.12166 0.0
C1406 C 0.75183 0.72643 0.09547 0.0
C1407 C 0.77127 0.74237 0.07842 0.0
H1408 H 0.36974 0.22716 0.26129 0.0
H1409 H 0.44953 0.27096 0.24682 0.0
H1410 H 0.34514 0.26212 0.23187 0.0
H1411 H 0.4243 0.30695 0.21751 0.0
H1412 H 0.35248 0.37721 0.19519 0.0
H1413 H 0.38194 0.3448 0.22341 0.0
H1414 H 0.34861 0.27335 0.17691 0.0
H1415 H 0.31928 0.306 0.14804 0.0
C1416 C 0.38198 0.24464 0.25216 0.0
C1417 C 0.41165 0.24621 0.25619 0.0
C1418 C 0.36787 0.26448 0.23508 0.0
C1419 C 0.38291 0.28676 0.22182 0.0
C1420 C 0.41228 0.2897 0.22733 0.0
C1421 C 0.42665 0.26941 0.24432 0.0
C1422 C 0.35141 0.35455 0.19091 0.0
C1423 C 0.33309 0.34403 0.16975 0.0
C1424 C 0.36857 0.3361 0.20689 0.0
C1425 C 0.36744 0.30662 0.20248 0.0
C1426 C 0.3497 0.29606 0.18084 0.0
C1427 C 0.33293 0.31465 0.16435 0.0
H1428 H 0.83976 0.14784 0.80343 0.0
H1429 H 0.83213 0.20825 0.87215 0.0
H1430 H 0.86885 0.18206 0.77616 0.0
H1431 H 0.86089 0.24249 0.8448 0.0
H1432 H 0.89247 0.30706 0.77521 0.0
H1433 H 0.86137 0.27372 0.80126 0.0
H1434 H 0.91728 0.20415 0.77824 0.0
H1435 H 0.94827 0.23754 0.75215 0.0
C1436 C 0.84386 0.16855 0.81261 0.0
C1437 C 0.83323 0.17512 0.84009 0.0
C1438 C 0.86086 0.18816 0.79703 0.0
C1439 C 0.86748 0.21525 0.80813 0.0
C1440 C 0.8562 0.22207 0.83528 0.0
C1441 C 0.83964 0.2023 0.85106 0.0
C1442 C 0.89805 0.28466 0.77545 0.0
C1443 C 0.92288 0.27512 0.7612 0.0
C1444 C 0.88028 0.26546 0.79069 0.0
C1445 C 0.8865 0.23597 0.79187 0.0
C1446 C 0.91141 0.22651 0.77763 0.0
C1447 C 0.92939 0.24577 0.76281 0.0
H1448 H 0.57908 0.7609 0.29064 0.0
H1449 H 0.64963 0.7489 0.23229 0.0
H1450 H 0.6076 0.79474 0.31807 0.0
H1451 H 0.67822 0.78239 0.25941 0.0
H1452 H 0.71451 0.86075 0.30434 0.0
H1453 H 0.68412 0.83175 0.27436 0.0
H1454 H 0.64951 0.79 0.34959 0.0
H1455 H 0.67974 0.81934 0.37974 0.0
C1456 C 0.60029 0.7664 0.2831 0.0
C1457 C 0.61195 0.75297 0.25896 0.0
C1458 C 0.61684 0.7853 0.29905 0.0
C1459 C 0.64534 0.79109 0.29112 0.0
C1460 C 0.65633 0.7787 0.26603 0.0
C1461 C 0.6399 0.75968 0.25032 0.0
C1462 C 0.70065 0.84519 0.31455 0.0
C1463 C 0.69972 0.84234 0.34453 0.0
C1464 C 0.68316 0.82857 0.2973 0.0
C1465 C 0.66407 0.80875 0.30954 0.0
C1466 C 0.66357 0.80543 0.33948 0.0
C1467 C 0.68125 0.82193 0.35676 0.0
H1468 H 0.0697 0.78423 0.72031 0.0
H1469 H 0.10665 0.7581 0.80017 0.0
H1470 H 0.09671 0.747 0.69566 0.0
H1471 H 0.13432 0.72158 0.77586 0.0
H1472 H 0.18158 0.654 0.72494 0.0
H1473 H 0.14388 0.68044 0.74943 0.0
H1474 H 0.14509 0.74373 0.6818 0.0
H1475 H 0.18203 0.7168 0.65694 0.0
C1476 C 0.08228 0.76944 0.7329 0.0
C1477 C 0.0857 0.77404 0.76231 0.0
C1478 C 0.09859 0.74858 0.71863 0.0
C1479 C 0.11873 0.73173 0.73345 0.0
C1480 C 0.11928 0.73396 0.76345 0.0
C1481 C 0.1029 0.75471 0.77764 0.0
C1482 C 0.17399 0.67368 0.71535 0.0
C1483 C 0.1853 0.6833 0.68898 0.0
C1484 C 0.15217 0.6889 0.72944 0.0
C1485 C 0.14094 0.71433 0.7177 0.0
C1486 C 0.15246 0.72399 0.6914 0.0
C1487 C 0.17415 0.70871 0.67727 0.0
H1488 H 0.74662 0.58115 0.75161 0.0
H1489 H 0.80295 0.61602 0.81483 0.0
H1490 H 0.77262 0.60792 0.71418 0.0
H1491 H 0.82771 0.6429 0.77834 0.0
H1492 H 0.88622 0.6687 0.70649 0.0
H1493 H 0.86008 0.63913 0.74041 0.0
H1494 H 0.78211 0.65547 0.69464 0.0
H1495 H 0.80872 0.68459 0.65985 0.0
C1496 C 0.76453 0.59427 0.7576 0.0
C1497 C 0.77249 0.59613 0.78649 0.0
C1498 C 0.77932 0.60991 0.73614 0.0
C1499 C 0.80255 0.6277 0.74297 0.0
C1500 C 0.81046 0.62919 0.77182 0.0
C1501 C 0.79588 0.61373 0.79301 0.0
C1502 C 0.86346 0.66635 0.70367 0.0
C1503 C 0.84969 0.6796 0.68047 0.0
C1504 C 0.84831 0.64925 0.72329 0.0
C1505 C 0.8187 0.64488 0.7207 0.0
C1506 C 0.80486 0.65799 0.69738 0.0
C1507 C 0.82013 0.67504 0.67754 0.0
H1508 H 0.70117 0.27929 0.21742 0.0
H1509 H 0.71768 0.3316 0.14323 0.0
H1510 H 0.73361 0.30866 0.24501 0.0
H1511 H 0.75145 0.35994 0.16981 0.0
H1512 H 0.7546 0.4311 0.24001 0.0
H1513 H 0.74041 0.39551 0.20483 0.0
H1514 H 0.77883 0.32897 0.25629 0.0
H1515 H 0.79154 0.3643 0.29151 0.0
C1516 C 0.71341 0.29571 0.20649 0.0
C1517 C 0.70801 0.30231 0.17782 0.0
C1518 C 0.73183 0.31284 0.22231 0.0
C1519 C 0.74492 0.33702 0.20969 0.0
C1520 C 0.74155 0.34177 0.1803 0.0
C1521 C 0.72299 0.32485 0.16471 0.0
C1522 C 0.76071 0.409 0.24319 0.0
C1523 C 0.7743 0.40041 0.26833 0.0
C1524 C 0.75266 0.38852 0.2231 0.0
C1525 C 0.75826 0.35919 0.22786 0.0
C1526 C 0.77375 0.35117 0.2521 0.0
C1527 C 0.78138 0.3715 0.27217 0.0
H1528 H 0.29901 0.93534 0.24367 0.0
H1529 H 0.22779 0.88055 0.26316 0.0
H1530 H 0.3284 0.90903 0.27781 0.0
H1531 H 0.25719 0.8535 0.29687 0.0
H1532 H 0.31236 0.82386 0.37149 0.0
H1533 H 0.28199 0.85238 0.34092 0.0
H1534 H 0.35206 0.86391 0.28138 0.0
H1535 H 0.38288 0.83537 0.31246 0.0
C1536 C 0.2894 0.91819 0.25606 0.0
C1537 C 0.26086 0.91057 0.25149 0.0
C1538 C 0.30641 0.90266 0.27518 0.0
C1539 C 0.29545 0.87876 0.28997 0.0
C1540 C 0.26642 0.8719 0.28621 0.0
C1541 C 0.24937 0.88757 0.2671 0.0
C1542 C 0.32137 0.83197 0.35166 0.0
C1543 C 0.35019 0.82675 0.34438 0.0
C1544 C 0.30378 0.84852 0.33406 0.0
C1545 C 0.31437 0.86067 0.30856 0.0
C1546 C 0.34315 0.85533 0.30106 0.0
C1547 C 0.36083 0.83865 0.31874 0.0
H1548 H 0.21055 0.1869 0.87054 0.0
H1549 H 0.14376 0.19505 0.80806 0.0
H1550 H 0.23651 0.15476 0.83922 0.0
H1551 H 0.17042 0.16372 0.77604 0.0
H1552 H 0.20838 0.0865 0.73435 0.0
H1553 H 0.1832 0.11575 0.76943 0.0
H1554 H 0.26385 0.14968 0.7973 0.0
H1555 H 0.28884 0.1192 0.76294 0.0
C1556 C 0.20159 0.18231 0.84984 0.0
C1557 C 0.17491 0.19369 0.84193 0.0
C1558 C 0.21661 0.16378 0.83177 0.0
C1559 C 0.20561 0.15619 0.80505 0.0
C1560 C 0.17938 0.1684 0.7967 0.0
C1561 C 0.1642 0.18677 0.81492 0.0
C1562 C 0.22068 0.09951 0.74873 0.0
C1563 C 0.25055 0.10012 0.74644 0.0
C1564 C 0.20626 0.11677 0.76847 0.0
C1565 C 0.2213 0.13568 0.78601 0.0
C1566 C 0.25141 0.1353 0.78447 0.0
C1567 C 0.26585 0.11767 0.76493 0.0
H1568 H 0.79386 0.79687 0.5888 0.0
H1569 H 0.76208 0.71754 0.62324 0.0
H1570 H 0.75884 0.82322 0.61701 0.0
H1571 H 0.72761 0.74382 0.65284 0.0
H1572 H 0.65509 0.79984 0.68954 0.0
H1573 H 0.68647 0.77203 0.65853 0.0
H1574 H 0.75024 0.83811 0.66323 0.0
H1575 H 0.7184 0.8663 0.69317 0.0
C1576 C 0.77892 0.78504 0.60212 0.0
C1577 C 0.78037 0.7551 0.60334 0.0
C1578 C 0.7591 0.80019 0.61882 0.0
C1579 C 0.74044 0.78595 0.63794 0.0
C1580 C 0.74126 0.75577 0.63835 0.0
C1581 C 0.76095 0.74056 0.62123 0.0
C1582 C 0.67591 0.80839 0.68414 0.0
C1583 C 0.68405 0.83549 0.69405 0.0
C1584 C 0.69405 0.7923 0.66627 0.0
C1585 C 0.72107 0.80267 0.65778 0.0
C1586 C 0.72944 0.82946 0.66842 0.0
C1587 C 0.71122 0.84563 0.68605 0.0
H1588 H 0.74965 0.31659 0.109 0.0
H1589 H 0.73291 0.23328 0.07591 0.0
H1590 H 0.78188 0.29578 0.14468 0.0
H1591 H 0.76493 0.21203 0.11134 0.0
H1592 H 0.79193 0.17775 0.19613 0.0
H1593 H 0.76126 0.20514 0.1642 0.0
H1594 H 0.82726 0.26838 0.15384 0.0
H1595 H 0.85802 0.24068 0.186 0.0
C1596 C 0.75304 0.29375 0.10928 0.0
C1597 C 0.73765 0.27635 0.09054 0.0
C1598 C 0.77159 0.28181 0.12965 0.0
C1599 C 0.77518 0.25204 0.13181 0.0
C1600 C 0.76187 0.23495 0.11116 0.0
C1601 C 0.74368 0.24703 0.09061 0.0
C1602 C 0.79934 0.19828 0.1883 0.0
C1603 C 0.82729 0.20721 0.19415 0.0
C1604 C 0.78203 0.21365 0.16931 0.0
C1605 C 0.79206 0.23855 0.15559 0.0
C1606 C 0.81885 0.24919 0.16377 0.0
C1607 C 0.83632 0.2336 0.18273 0.0
H1608 H 0.22323 0.69223 0.28964 0.0
H1609 H 0.15447 0.74389 0.32245 0.0
H1610 H 0.25701 0.71895 0.31743 0.0
H1611 H 0.18839 0.77164 0.35015 0.0
H1612 H 0.24735 0.77096 0.43128 0.0
H1613 H 0.21323 0.76065 0.39327 0.0
H1614 H 0.28259 0.75811 0.33175 0.0
H1615 H 0.31617 0.76599 0.36956 0.0
C1616 C 0.21564 0.71071 0.30127 0.0
C1617 C 0.18632 0.71613 0.30367 0.0
C1618 C 0.23499 0.72594 0.31771 0.0
C1619 C 0.22546 0.74714 0.33684 0.0
C1620 C 0.19646 0.755 0.33631 0.0
C1621 C 0.17708 0.73964 0.31979 0.0
C1622 C 0.25511 0.76828 0.40959 0.0
C1623 C 0.2845 0.76862 0.40364 0.0
C1624 C 0.23559 0.76268 0.38766 0.0
C1625 C 0.24511 0.75803 0.35928 0.0
C1626 C 0.27437 0.76059 0.3533 0.0
C1627 C 0.29371 0.76525 0.37514 0.0
H1628 H 0.27296 0.25906 0.94477 0.0
H1629 H 0.21393 0.25592 0.87468 0.0
H1630 H 0.30629 0.28686 0.91418 0.0
H1631 H 0.24627 0.28389 0.84507 0.0
H1632 H 0.29168 0.36795 0.81799 0.0
H1633 H 0.26257 0.33707 0.84914 0.0
H1634 H 0.3354 0.28277 0.86417 0.0
H1635 H 0.36434 0.31301 0.83265 0.0
C1636 C 0.26736 0.26369 0.92282 0.0
C1637 C 0.24065 0.25543 0.91233 0.0
C1638 C 0.28626 0.27982 0.90538 0.0
C1639 C 0.27855 0.28819 0.87739 0.0
C1640 C 0.2526 0.27847 0.86665 0.0
C1641 C 0.23414 0.26222 0.8837 0.0
C1642 C 0.30145 0.34934 0.82773 0.0
C1643 C 0.33031 0.34292 0.82237 0.0
C1644 C 0.28482 0.33167 0.84566 0.0
C1645 C 0.29673 0.30749 0.85926 0.0
C1646 C 0.32564 0.3013 0.85427 0.0
C1647 C 0.3421 0.31857 0.83588 0.0
H1648 H 0.58424 0.77776 0.80815 0.0
H1649 H 0.62965 0.75814 0.73032 0.0
H1650 H 0.6119 0.74169 0.83379 0.0
H1651 H 0.65836 0.72261 0.756 0.0
H1652 H 0.69304 0.64622 0.80872 0.0
H1653 H 0.66257 0.67808 0.78081 0.0
H1654 H 0.65818 0.73624 0.85184 0.0
H1655 H 0.68788 0.70415 0.87984 0.0
C1656 C 0.59972 0.76513 0.79638 0.0
C1657 C 0.60424 0.77024 0.76709 0.0
C1658 C 0.61605 0.74478 0.81118 0.0
C1659 C 0.63793 0.72932 0.79726 0.0
C1660 C 0.64164 0.73373 0.76756 0.0
C1661 C 0.62505 0.75399 0.7527 0.0
C1662 C 0.68584 0.66596 0.81831 0.0
C1663 C 0.69317 0.6725 0.84665 0.0
C1664 C 0.66826 0.68432 0.80223 0.0
C1665 C 0.65739 0.7098 0.81398 0.0
C1666 C 0.66539 0.7166 0.84208 0.0
C1667 C 0.68287 0.69827 0.85813 0.0
H1668 H 0.18777 0.86119 0.21867 0.0
H1669 H 0.17973 0.80259 0.1484 0.0
H1670 H 0.15253 0.83382 0.24618 0.0
H1671 H 0.14461 0.77532 0.1761 0.0
H1672 H 0.12531 0.71403 0.24918 0.0
H1673 H 0.15282 0.74636 0.22136 0.0
H1674 H 0.09708 0.81518 0.24663 0.0
H1675 H 0.06855 0.78117 0.2761 0.0
C1676 C 0.17864 0.84242 0.20904 0.0
C1677 C 0.18727 0.83381 0.18136 0.0
C1678 C 0.15803 0.82705 0.22474 0.0
C1679 C 0.14557 0.80252 0.21333 0.0
C1680 C 0.15381 0.79415 0.18555 0.0
C1681 C 0.17424 0.80961 0.16976 0.0
C1682 C 0.11872 0.73574 0.24984 0.0
C1683 C 0.09468 0.74443 0.26579 0.0
C1684 C 0.13449 0.75455 0.23302 0.0
C1685 C 0.12719 0.78337 0.2314 0.0
C1686 C 0.10325 0.7929 0.24737 0.0
C1687 C 0.08688 0.77347 0.26417 0.0
H1688 H 0.33799 0.14564 0.71197 0.0
H1689 H 0.31555 0.21674 0.65714 0.0
H1690 H 0.36609 0.17747 0.74171 0.0
H1691 H 0.34326 0.24856 0.68736 0.0
H1692 H 0.36283 0.29914 0.76703 0.0
H1693 H 0.33613 0.26243 0.74257 0.0
H1694 H 0.41303 0.21246 0.73277 0.0
H1695 H 0.44029 0.24998 0.75713 0.0
C1696 C 0.33881 0.16811 0.70641 0.0
C1697 C 0.32423 0.17879 0.68236 0.0
C1698 C 0.35513 0.18617 0.72331 0.0
C1699 C 0.35674 0.21534 0.7168 0.0
C1700 C 0.34218 0.22608 0.69285 0.0
C1701 C 0.32632 0.20794 0.6756 0.0
C1702 C 0.374 0.28004 0.76022 0.0
C1703 C 0.40365 0.27742 0.76372 0.0
C1704 C 0.35872 0.25917 0.74607 0.0
C1705 C 0.37266 0.23502 0.73533 0.0
C1706 C 0.40191 0.23108 0.74083 0.0
C1707 C 0.41742 0.25231 0.75491 0.0
H1708 H 0.82464 0.29507 0.36092 0.0
H1709 H 0.8424 0.36845 0.30736 0.0
H1710 H 0.85717 0.26644 0.3315 0.0
H1711 H 0.87446 0.33979 0.27783 0.0
H1712 H 0.94948 0.28038 0.24489 0.0
H1713 H 0.9213 0.31206 0.27649 0.0
H1714 H 0.8559 0.24777 0.28316 0.0
H1715 H 0.88396 0.21698 0.25347 0.0
C1716 C 0.8353 0.30508 0.34283 0.0
C1717 C 0.83017 0.33392 0.33619 0.0
C1718 C 0.85401 0.28869 0.32591 0.0
C1719 C 0.8684 0.30073 0.30205 0.0
C1720 C 0.86396 0.32979 0.29601 0.0
C1721 C 0.84513 0.3461 0.31278 0.0
C1722 C 0.92891 0.27331 0.25287 0.0
C1723 C 0.91847 0.24629 0.24531 0.0
C1724 C 0.91276 0.29139 0.27102 0.0
C1725 C 0.8862 0.28247 0.28253 0.0
C1726 C 0.87618 0.25549 0.27501 0.0
C1727 C 0.89203 0.23791 0.25694 0.0
H1728 H 0.22001 0.37405 0.52524 0.0
H1729 H 0.14819 0.42505 0.49784 0.0
H1730 H 0.23222 0.41036 0.56003 0.0
H1731 H 0.16069 0.46149 0.53264 0.0
H1732 H 0.20964 0.53271 0.57732 0.0
H1733 H 0.20012 0.4965 0.54189 0.0
H1734 H 0.21091 0.43066 0.6059 0.0
H1735 H 0.22027 0.46718 0.64191 0.0
C1736 C 0.20698 0.39315 0.5263 0.0
C1737 C 0.1831 0.39656 0.50848 0.0
C1738 C 0.21388 0.41384 0.54653 0.0
C1739 C 0.19739 0.43876 0.54926 0.0
C1740 C 0.17395 0.44259 0.531 0.0
C1741 C 0.16676 0.42167 0.51103 0.0
C1742 C 0.21028 0.51054 0.58402 0.0
C1743 C 0.21575 0.50296 0.61268 0.0
C1744 C 0.20456 0.48976 0.5636 0.0
C1745 C 0.20452 0.46069 0.57104 0.0
C1746 C 0.21087 0.45291 0.59945 0.0
C1747 C 0.21621 0.47382 0.6201 0.0
H1748 H 0.34462 0.55524 0.14075 0.0
H1749 H 0.28207 0.51587 0.08689 0.0
H1750 H 0.35198 0.59275 0.10449 0.0
H1751 H 0.28923 0.55319 0.05091 0.0
H1752 H 0.29275 0.64116 1.00516 0.0
H1753 H 0.28299 0.60574 0.0425 0.0
H1754 H 0.37339 0.59325 0.05407 0.0
H1755 H 0.38326 0.62867 0.01663 0.0
C1756 C 0.33188 0.55508 0.12156 0.0
C1757 C 0.31263 0.53278 0.11671 0.0
C1758 C 0.33639 0.57626 0.10062 0.0
C1759 C 0.32138 0.57577 0.07469 0.0
C1760 C 0.30105 0.55427 0.07064 0.0
C1761 C 0.29691 0.53292 0.09128 0.0
C1762 C 0.31058 0.6306 0.01537 0.0
C1763 C 0.3388 0.63768 1.00772 0.0
C1764 C 0.30496 0.61035 0.03684 0.0
C1765 C 0.32741 0.59695 0.0515 0.0
C1766 C 0.35563 0.60354 0.04347 0.0
C1767 C 0.36127 0.62352 0.0217 0.0
H1768 H 0.64805 0.1067 0.52595 0.0
H1769 H 0.71188 0.16208 0.48814 0.0
H1770 H 0.65955 0.07036 0.49008 0.0
H1771 H 0.72278 0.12612 0.45229 0.0
H1772 H 0.70283 0.06134 0.37582 0.0
H1773 H 0.69361 0.09999 0.40999 0.0
H1774 H 0.70825 0.04166 0.48013 0.0
H1775 H 0.71828 1.00365 0.44675 0.0
C1776 C 0.66448 0.11107 0.51008 0.0
C1777 C 0.67935 0.13699 0.51015 0.0
C1778 C 0.671 0.0904 0.48959 0.0
C1779 C 0.69197 0.09566 0.46848 0.0
C1780 C 0.70644 0.12171 0.46824 0.0
C1781 C 0.70038 0.14207 0.48901 0.0
C1782 C 0.7047 0.05698 0.39849 0.0
C1783 C 0.71098 0.02932 0.40845 0.0
C1784 C 0.69923 0.07898 0.41798 0.0
C1785 C 0.69962 0.07343 0.44757 0.0
C1786 C 0.70721 0.04624 0.45742 0.0
C1787 C 0.71311 0.02455 0.43815 0.0
H1788 H 0.80983 0.84626 0.98192 0.0
H1789 H 0.85207 0.90831 0.03429 0.0
H1790 H 0.79751 0.88352 0.94765 0.0
H1791 H 0.84008 0.94562 0.99969 0.0
H1792 H 0.81206 0.95137 0.87548 0.0
H1793 H 0.81851 0.91333 0.91121 0.0
H1794 H 0.8039 0.9741 0.9787 0.0
H1795 H 0.798 0.01173 0.94339 0.0
C1796 C 0.81622 0.86794 0.98642 0.0
C1797 C 0.83198 0.87406 0.01118 0.0
C1798 C 0.80938 0.88936 0.96643 0.0
C1799 C 0.81798 0.91777 0.97043 0.0
C1800 C 0.83276 0.92414 0.99577 0.0
C1801 C 0.83962 0.90266 0.01582 0.0
C1802 C 0.80979 0.95647 0.89792 0.0
C1803 C 0.80464 0.98479 0.90633 0.0
C1804 C 0.81352 0.93463 0.91854 0.0
C1805 C 0.81214 0.94049 0.94815 0.0
C1806 C 0.80586 0.96864 0.95633 0.0
C1807 C 0.80221 0.99031 0.93587 0.0
H1808 H 0.57355 0.24145 0.50948 0.0
H1809 H 0.63517 0.19095 0.46278 0.0
H1810 H 0.53811 0.23268 0.47273 0.0
H1811 H 0.59939 0.18178 0.42606 0.0
H1812 H 0.51498 0.14124 0.39268 0.0
H1813 H 0.55151 0.15341 0.42747 0.0
H1814 H 0.52914 0.24247 0.41929 0.0
H1815 H 0.49285 0.23044 0.38423 0.0
C1816 C 0.57967 0.22892 0.49104 0.0
C1817 C 0.60721 0.21706 0.4889 0.0
C1818 C 0.55935 0.22386 0.47004 0.0
C1819 C 0.56589 0.20632 0.44669 0.0
C1820 C 0.59371 0.19518 0.444 0.0
C1821 C 0.61428 0.20073 0.46479 0.0
C1822 C 0.51754 0.16338 0.39861 0.0
C1823 C 0.50086 0.18486 0.38579 0.0
C1824 C 0.53874 0.17037 0.41822 0.0
C1825 C 0.54339 0.19892 0.42584 0.0
C1826 C 0.52607 0.22029 0.41379 0.0
C1827 C 0.50525 0.21338 0.39378 0.0
H1828 H 0.90973 0.81445 0.95241 0.0
H1829 H 0.96868 0.8149 0.02234 0.0
H1830 H 0.9493 0.80997 0.91862 0.0
H1831 H 1.00852 0.80858 0.98906 0.0
H1832 H 0.06641 0.84751 0.91749 0.0
H1833 H 0.03478 0.83396 0.95625 0.0
H1834 H 0.98556 0.78311 0.89791 0.0
H1835 H 0.01672 0.79849 0.85868 0.0
C1836 C 0.93132 0.81361 0.96044 0.0
C1837 C 0.93643 0.81607 0.98974 0.0
C1838 C 0.95405 0.81038 0.9412 0.0
C1839 C 0.98238 0.80868 0.95095 0.0
C1840 C 0.9872 0.81034 0.98055 0.0
C1841 C 0.96447 0.81427 0.99968 0.0
C1842 C 0.04981 0.83208 0.91332 0.0
C1843 C 0.04361 0.82445 0.88513 0.0
C1844 C 0.03133 0.82445 0.93558 0.0
C1845 C 1.00665 0.80849 0.93006 0.0
C1846 C 1.00361 0.79654 0.90269 0.0
C1847 C 0.02194 0.80462 0.88028 0.0
H1848 H 0.07577 0.28302 0.51275 0.0
H1849 H 0.11964 0.34926 0.55788 0.0
H1850 H 0.03687 0.28434 0.54815 0.0
H1851 H 0.08 0.3514 0.59282 0.0
H1852 H 0.98539 0.36871 0.62475 0.0
H1853 H 0.02259 0.36508 0.58761 0.0
H1854 H 0.03157 0.27525 0.60583 0.0
H1855 H 0.9954 0.27916 0.64386 0.0
C1856 C 0.07733 0.29754 0.53056 0.0
C1857 C 0.1012 0.31558 0.53279 0.0
C1858 C 0.0549 0.29844 0.55073 0.0
C1859 C 0.05508 0.31816 0.5732 0.0
C1860 C 0.07906 0.33608 0.57566 0.0
C1861 C 0.10199 0.33458 0.5559 0.0
C1862 C 0.99454 0.34797 0.62018 0.0
C1863 C 0.98683 0.32409 0.63701 0.0
C1864 C 0.01629 0.34601 0.59923 0.0
C1865 C 0.03041 0.31994 0.59396 0.0
C1866 C 0.02124 0.29566 0.60933 0.0
C1867 C 1.00015 0.2978 0.63085 0.0
H1868 H 0.50326 0.72961 0.15378 0.0
H1869 H 0.52923 0.65257 0.11017 0.0
H1870 H 0.46875 0.73953 0.11642 0.0
H1871 H 0.49473 0.66283 0.0727 0.0
H1872 H 0.45214 0.70828 0.99736 0.0
H1873 H 0.48739 0.70147 0.03443 0.0
H1874 H 0.42261 0.71518 0.09911 0.0
H1875 H 0.38681 0.72194 0.06183 0.0
C1876 C 0.50191 0.71495 0.13609 0.0
C1877 C 0.51916 0.6903 0.13493 0.0
C1878 C 0.48193 0.72056 0.11486 0.0
C1879 C 0.47906 0.7019 0.09183 0.0
C1880 C 0.49669 0.67764 0.09022 0.0
C1881 C 0.51642 0.67178 0.11167 0.0
C1882 C 0.44527 0.71012 0.01944 0.0
C1883 C 0.41654 0.71556 0.02665 0.0
C1884 C 0.46552 0.70601 0.04064 0.0
C1885 C 0.45764 0.70758 0.06953 0.0
C1886 C 0.42918 0.71394 0.07689 0.0
C1887 C 0.40872 0.71771 0.05561 0.0
H1888 H 0.52262 0.57882 0.23606 0.0
H1889 H 0.47204 0.64113 0.19073 0.0
H1890 H 0.48647 0.54247 0.2273 0.0
H1891 H 0.43603 0.60451 0.18149 0.0
H1892 H 0.39839 0.52207 0.14074 0.0
H1893 H 0.43367 0.5586 0.15182 0.0
H1894 H 0.43456 0.52993 0.23958 0.0
H1895 H 0.39879 0.49367 0.22867 0.0
C1896 C 0.50359 0.5849 0.22454 0.0
C1897 C 0.50024 0.61311 0.21437 0.0
C1898 C 0.48282 0.56397 0.21949 0.0
C1899 C 0.4583 0.57036 0.20351 0.0
C1900 C 0.45471 0.59869 0.19367 0.0
C1901 C 0.47523 0.61981 0.19927 0.0
C1902 C 0.40635 0.5232 0.16234 0.0
C1903 C 0.39578 0.50452 0.18371 0.0
C1904 C 0.42638 0.54447 0.16878 0.0
C1905 C 0.43696 0.54747 0.19666 0.0
C1906 C 0.42702 0.52829 0.21786 0.0
C1907 C 0.4065 0.50741 0.21157 0.0
H1908 H 0.85971 0.99448 0.77704 0.0
H1909 H 0.89395 0.99377 0.86258 0.0
H1910 H 0.88745 0.95137 0.76606 0.0
H1911 H 0.92095 0.95114 0.85162 0.0
H1912 H 0.9533 0.86801 0.84062 0.0
H1913 H 0.91133 0.89899 0.84061 0.0
H1914 H 0.94135 0.93925 0.76275 0.0
H1915 H 0.98313 0.90839 0.76302 0.0
C1916 C 0.8732 0.98535 0.79342 0.0
C1917 C 0.87457 0.99776 0.8207 0.0
C1918 C 0.88883 0.96054 0.78717 0.0
C1919 C 0.90565 0.94744 0.80825 0.0
C1920 C 0.90744 0.9602 0.83521 0.0
C1921 C 0.89227 0.98504 0.84131 0.0
C1922 C 0.94983 0.88202 0.82243 0.0
C1923 C 0.97128 0.88563 0.80165 0.0
C1924 C 0.92609 0.90013 0.82267 0.0
C1925 C 0.92358 0.92205 0.80211 0.0
C1926 C 0.94271 0.92258 0.77886 0.0
C1927 C 0.96649 0.90451 0.77872 0.0
H1928 H 0.55643 0.13487 0.30084 0.0
H1929 H 0.49289 0.07123 0.32146 0.0
H1930 H 0.59408 0.09917 0.30917 0.0
H1931 H 0.53012 0.03618 0.32996 0.0
H1932 H 0.60662 0.99112 0.37447 0.0
H1933 H 0.56911 0.0265 0.36531 0.0
H1934 H 0.61258 0.05288 0.28791 0.0
H1935 H 0.64973 0.01758 0.29668 0.0
C1936 C 0.55043 0.11338 0.30699 0.0
C1937 C 0.52148 0.10611 0.31026 0.0
C1938 C 0.572 0.09286 0.31175 0.0
C1939 C 0.56517 0.06475 0.32043 0.0
C1940 C 0.53627 0.0576 0.32365 0.0
C1941 C 0.51484 0.07782 0.31847 0.0
C1942 C 0.60804 1.00419 0.35531 0.0
C1943 C 0.63129 1.0011 0.33629 0.0
C1944 C 0.58653 0.02456 0.35007 0.0
C1945 C 0.58789 0.04278 0.32594 0.0
C1946 C 0.61097 0.03954 0.30686 0.0
C1947 C 0.63217 0.01893 0.31182 0.0
H1948 H 0.12235 0.52258 0.64221 0.0
H1949 H 0.14452 0.51003 0.73096 0.0
H1950 H 0.08683 0.48554 0.64643 0.0
H1951 H 0.10779 0.47344 0.73545 0.0
H1952 H 0.06237 0.38732 0.72339 0.0
H1953 H 0.09791 0.42538 0.72087 0.0
H1954 H 0.04212 0.4746 0.66626 0.0
H1955 H 1.00754 0.43654 0.66776 0.0
C1956 C 0.11931 0.51235 0.66285 0.0
C1957 C 0.13648 0.51936 0.68623 0.0
C1958 C 0.09876 0.49104 0.66528 0.0
C1959 C 0.09444 0.47634 0.69127 0.0
C1960 C 0.11091 0.48396 0.71497 0.0
C1961 C 0.13174 0.50519 0.71247 0.0
C1962 C 0.0579 0.40618 0.71064 0.0
C1963 C 0.03228 0.40862 0.69547 0.0
C1964 C 0.07812 0.42813 0.70943 0.0
C1965 C 0.07295 0.45309 0.69327 0.0
C1966 C 0.04718 0.45551 0.67839 0.0
C1967 C 0.02726 0.43355 0.6793 0.0
H1968 H 0.81044 0.48675 0.44535 0.0
H1969 H 0.80574 0.55063 0.37834 0.0
H1970 H 0.82008 0.52348 0.48003 0.0
H1971 H 0.81512 0.58782 0.41379 0.0
H1972 H 0.80199 0.64512 0.49469 0.0
H1973 H 0.79118 0.6091 0.45916 0.0
H1974 H 0.86134 0.55758 0.4892 0.0
H1975 H 0.87255 0.59383 0.52473 0.0
C1976 C 0.81113 0.50869 0.43793 0.0
C1977 C 0.80725 0.51564 0.40882 0.0
C1978 C 0.81694 0.52975 0.45794 0.0
C1979 C 0.81863 0.5585 0.44966 0.0
C1980 C 0.81391 0.56577 0.4208 0.0
C1981 C 0.80854 0.54451 0.4005 0.0
C1982 C 0.81503 0.62601 0.49402 0.0
C1983 C 0.83807 0.62234 0.51287 0.0
C1984 C 0.80896 0.60553 0.47336 0.0
C1985 C 0.82544 0.58058 0.47127 0.0
C1986 C 0.84817 0.57658 0.49037 0.0
C1987 C 0.85458 0.59733 0.51076 0.0
H1988 H 0.70544 0.45053 0.88977 0.0
H1989 H 0.70296 0.51482 0.95543 0.0
H1990 H 0.7004 0.41342 0.92684 0.0
H1991 H 0.69819 0.47821 0.99186 0.0
H1992 H 0.65389 0.40636 0.04542 0.0
H1993 H 0.66389 0.44462 0.01079 0.0
H1994 H 0.72383 0.38987 0.96682 0.0
H1995 H 0.7138 0.35188 1.00118 0.0
C1996 C 0.70413 0.45681 0.91197 0.0
C1997 C 0.70448 0.48586 0.91927 0.0
C1998 C 0.70129 0.43552 0.93333 0.0
C1999 C 0.69861 0.44271 0.96256 0.0
C2000 C 0.69962 0.4717 0.96974 0.0
C2001 C 0.70258 0.4928 0.94858 0.0
C2002 C 0.66987 0.40282 0.02894 0.0
C2003 C 0.68304 0.37595 0.02629 0.0
C2004 C 0.67547 0.4247 1.00881 0.0
C2005 C 0.69433 0.42029 0.98546 0.0
C2006 C 0.70867 0.39396 0.98392 0.0
C2007 C 0.70317 0.37224 1.00398 0.0
H2008 H 0.31552 0.02308 0.57089 0.0
H2009 H 0.30092 0.96056 0.63791 0.0
H2010 H 0.32452 0.98511 0.53699 0.0
H2011 H 0.3098 0.92232 0.60342 0.0
H2012 H 0.2994 0.8643 0.5241 0.0
H2013 H 0.28792 0.90233 0.55753 0.0
H2014 H 0.36369 0.94769 0.53081 0.0
H2015 H 0.37547 0.90949 0.49732 0.0
C2016 C 0.31389 1.00122 0.57842 0.0
C2017 C 0.3075 0.99492 0.60729 0.0
C2018 C 0.3193 0.97947 0.55892 0.0
C2019 C 0.31811 0.9508 0.56759 0.0
C2020 C 0.31079 0.9443 0.59616 0.0
C2021 C 0.30573 0.96617 0.61589 0.0
C2022 C 0.31354 0.88249 0.52505 0.0
C2023 C 0.33835 0.88387 0.50785 0.0
C2024 C 0.30704 0.90412 0.54446 0.0
C2025 C 0.32494 0.92787 0.54686 0.0
C2026 C 0.34942 0.92964 0.5293 0.0
C2027 C 0.35619 0.90777 0.51015 0.0
H2028 H 0.23842 0.99718 0.07966 0.0
H2029 H 0.18131 0.04167 0.13703 0.0
H2030 H 0.23064 0.03385 0.04303 0.0
H2031 H 0.17319 0.07816 0.10013 0.0
H2032 H 0.13844 0.11334 0.014 0.0
H2033 H 0.14898 0.07735 0.05045 0.0
H2034 H 0.23907 0.08796 0.03432 0.0
H2035 H 0.22865 0.1244 0.99804 0.0
C2036 C 0.22449 0.01501 0.08458 0.0
C2037 C 0.21062 0.01659 0.11135 0.0
C2038 C 0.22005 0.036 0.06358 0.0
C2039 C 0.20114 0.05879 0.06858 0.0
C2040 C 0.1877 0.06072 0.09555 0.0
C2041 C 0.1926 0.04 0.1168 0.0
C2042 C 0.16052 0.10775 0.01783 0.0
C2043 C 0.18269 0.12177 1.00288 0.0
C2044 C 0.16654 0.08735 0.03902 0.0
C2045 C 0.19486 0.08002 0.0455 0.0
C2046 C 0.21703 0.09316 0.02983 0.0
C2047 C 0.21104 0.114 1.009 0.0
H2048 H 0.50369 0.87896 0.62967 0.0
H2049 H 0.52563 0.78968 0.63726 0.0
H2050 H 0.46673 0.86712 0.59512 0.0
H2051 H 0.48892 0.77796 0.60265 0.0
H2052 H 0.44403 0.77693 0.51384 0.0
H2053 H 0.47942 0.78646 0.55033 0.0
H2054 H 0.41885 0.84005 0.59484 0.0
H2055 H 0.38306 0.83017 0.5582 0.0
C2056 C 0.501 0.85688 0.62362 0.0
C2057 C 0.51784 0.8353 0.63611 0.0
C2058 C 0.47952 0.85006 0.60414 0.0
C2059 C 0.47468 0.82156 0.59633 0.0
C2060 C 0.49208 0.80011 0.60818 0.0
C2061 C 0.51319 0.80686 0.62798 0.0
C2062 C 0.438 0.79023 0.53176 0.0
C2063 C 0.4106 0.80254 0.53327 0.0
C2064 C 0.45834 0.79574 0.55265 0.0
C2065 C 0.45207 0.8142 0.57538 0.0
C2066 C 0.42441 0.82594 0.57742 0.0
C2067 C 0.40378 0.81996 0.5567 0.0
H2068 H 0.03178 0.22139 0.16661 0.0
H2069 H 0.97559 0.17866 0.10833 0.0
H2070 H 0.0669 0.22758 0.12841 0.0
H2071 H 0.01092 0.18472 0.0701 0.0
H2072 H 0.13653 0.19763 0.06288 0.0
H2073 H 0.10036 0.19818 0.10114 0.0
H2074 H 0.03544 0.21818 0.03927 0.0
H2075 H 0.07104 0.21736 1.00144 0.0
C2076 C 0.02663 0.21372 0.14551 0.0
C2077 C 1.00066 0.19949 0.1407 0.0
C2078 C 0.04703 0.21701 0.12364 0.0
C2079 C 0.04209 0.20632 0.09617 0.0
C2080 C 0.01551 0.19342 0.09092 0.0
C2081 C 0.99508 0.19004 0.11286 0.0
C2082 C 0.11461 0.20246 0.05754 0.0
C2083 C 0.10685 0.20713 0.02893 0.0
C2084 C 0.0938 0.20283 0.07948 0.0
C2085 C 0.06476 0.20788 0.07333 0.0
C2086 C 0.05734 0.21358 0.04486 0.0
C2087 C 0.07798 0.21325 0.0231 0.0
H2088 H 0.04545 0.66902 0.40692 0.0
H2089 H 0.98967 0.71599 0.35064 0.0
H2090 H 0.01131 0.6756 0.44613 0.0
H2091 H 0.95585 0.72293 0.38977 0.0
H2092 H 0.88581 0.69932 0.45667 0.0
H2093 H 0.92119 0.69757 0.41779 0.0
H2094 H 0.98881 0.70702 0.47891 0.0
H2095 H 0.95386 0.70825 0.51739 0.0
C2096 C 0.02633 0.68143 0.40301 0.0
C2097 C 0.0206 0.69198 0.37539 0.0
C2098 C 1.00652 0.68514 0.42558 0.0
C2099 C 0.98032 0.69955 0.42131 0.0
C2100 C 0.97529 0.71116 0.39398 0.0
C2101 C 0.99502 0.70745 0.37149 0.0
C2102 C 0.90819 0.7013 0.46177 0.0
C2103 C 0.91668 0.70382 0.4904 0.0
C2104 C 0.92863 0.70036 0.4394 0.0
C2105 C 0.9582 0.7019 0.44496 0.0
C2106 C 0.96649 0.70516 0.47355 0.0
C2107 C 0.94619 0.70611 0.49576 0.0
H2108 H 0.47716 0.30427 0.88773 0.0
H2109 H 0.48914 0.39503 0.8985 0.0
H2110 H 0.50894 0.29484 0.92745 0.0
H2111 H 0.52126 0.38544 0.93807 0.0
H2112 H 0.56293 0.3567 0.02109 0.0
H2113 H 0.52544 0.36543 0.98667 0.0
H2114 H 0.56095 0.30018 0.93207 0.0
H2115 H 0.59836 0.29094 0.96667 0.0
C2116 C 0.4863 0.32224 0.89877 0.0
C2117 C 0.481 0.35041 0.88967 0.0
C2118 C 0.50462 0.31678 0.92141 0.0
C2119 C 0.51799 0.33937 0.93541 0.0
C2120 C 0.5112 0.3676 0.92764 0.0
C2121 C 0.49279 0.37309 0.90498 0.0
C2122 C 0.56288 0.34416 1.00175 0.0
C2123 C 0.58381 0.32312 0.99662 0.0
C2124 C 0.54135 0.34926 0.98204 0.0
C2125 C 0.54023 0.33343 0.9568 0.0
C2126 C 0.56105 0.31238 0.95162 0.0
C2127 C 0.58261 0.30725 0.97134 0.0
H2128 H 0.48777 0.4568 0.80188 0.0
H2129 H 0.54645 0.38546 0.80223 0.0
H2130 H 0.52745 0.48953 0.80757 0.0
H2131 H 0.58626 0.41847 0.80799 0.0
H2132 H 0.65336 0.48919 0.79691 0.0
H2133 H 0.6135 0.4585 0.78403 0.0
H2134 H 0.56049 0.4997 0.84747 0.0
H2135 H 0.60015 0.53033 0.86037 0.0
C2136 C 0.50915 0.44804 0.80281 0.0
C2137 C 0.51381 0.41835 0.80176 0.0
C2138 C 0.53191 0.46688 0.80626 0.0
C2139 C 0.56 0.45664 0.80847 0.0
C2140 C 0.56488 0.42708 0.80619 0.0
C2141 C 0.54204 0.40814 0.80302 0.0
C2142 C 0.63309 0.49203 0.80782 0.0
C2143 C 0.63004 0.51228 0.82972 0.0
C2144 C 0.61032 0.47424 0.80059 0.0
C2145 C 0.58384 0.47656 0.81478 0.0
C2146 C 0.58051 0.49749 0.83595 0.0
C2147 C 0.60333 0.515 0.84343 0.0
H2148 H 0.05517 0.11634 0.23216 0.0
H2149 H 1.00467 0.08079 0.16433 0.0
H2150 H 0.08888 0.07655 0.22731 0.0
H2151 H 0.03718 0.04112 0.16047 0.0
H2152 H 0.11972 0.99659 0.1354 0.0
H2153 H 0.08426 0.03348 0.14289 0.0
H2154 H 0.09386 0.02488 0.23432 0.0
H2155 H 0.13018 0.98825 0.22686 0.0
C2156 C 0.05119 0.10009 0.21638 0.0
C2157 C 0.02744 0.10201 0.19842 0.0
C2158 C 0.0703 0.0772 0.21377 0.0
C2159 C 0.06574 0.0558 0.19336 0.0
C2160 C 0.04166 0.05752 0.17596 0.0
C2161 C 0.02293 0.08037 0.17829 0.0
C2162 C 0.11396 1.00207 0.15716 0.0
C2163 C 0.12789 0.98948 0.18052 0.0
C2164 C 0.0936 0.02331 0.16146 0.0
C2165 C 0.08641 0.03224 0.18922 0.0
C2166 C 0.09937 0.01881 0.21267 0.0
C2167 C 0.11994 0.99762 0.20837 0.0
H2168 H 0.46311 0.88179 0.71982 0.0
H2169 H 0.52522 0.94823 0.70482 0.0
H2170 H 0.42466 0.91656 0.71183 0.0
H2171 H 0.4871 0.98253 0.69675 0.0
H2172 H 0.41176 0.0271 0.65047 0.0
H2173 H 0.45002 0.99292 0.66048 0.0
H2174 H 0.40239 0.96052 0.73303 0.0
H2175 H 0.36426 0.99465 0.72323 0.0
C2176 C 0.46863 0.90374 0.71504 0.0
C2177 C 0.49743 0.91199 0.71308 0.0
C2178 C 0.44656 0.92375 0.71049 0.0
C2179 C 0.45268 0.95244 0.70342 0.0
C2180 C 0.48146 0.96065 0.70176 0.0
C2181 C 0.50341 0.94086 0.70667 0.0
C2182 C 0.40949 0.01289 0.66871 0.0
C2183 C 0.38478 0.01396 0.68606 0.0
C2184 C 0.43151 0.99325 0.6745 0.0
C2185 C 0.42935 0.97375 0.69754 0.0
C2186 C 0.40474 0.97492 0.71495 0.0
C2187 C 0.38294 0.9948 0.70943 0.0
H2188 H 0.02141 0.57058 0.35158 0.0
H2189 H 0.96656 0.61098 0.28921 0.0
H2190 H 0.98749 0.53189 0.35715 0.0
H2191 H 0.93234 0.57241 0.29537 0.0
H2192 H 0.8877 0.48845 0.29344 0.0
H2193 H 0.92698 0.52151 0.28594 0.0
H2194 H 0.93994 0.52496 0.37713 0.0
H2195 H 0.9011 0.49147 0.38473 0.0
C2196 C 1.00203 0.57137 0.33918 0.0
C2197 C 0.99663 0.59402 0.32001 0.0
C2198 C 0.98262 0.54914 0.34242 0.0
C2199 C 0.95735 0.54909 0.32665 0.0
C2200 C 0.95192 0.57164 0.30745 0.0
C2201 C 0.97141 0.59386 0.3041 0.0
C2202 C 0.89918 0.49591 0.3119 0.0
C2203 C 0.89096 0.48767 0.33973 0.0
C2204 C 0.92155 0.51498 0.30757 0.0
C2205 C 0.93612 0.5262 0.33097 0.0
C2206 C 0.92913 0.5166 0.35867 0.0
C2207 C 0.90681 0.49742 0.36301 0.0
H2208 H 0.21522 0.11483 0.57199 0.0
H2209 H 0.21992 0.19293 0.61948 0.0
H2210 H 0.17895 0.13589 0.54111 0.0
H2211 H 0.18445 0.21467 0.58812 0.0
H2212 H 0.12306 0.25337 0.53034 0.0
H2213 H 0.13874 0.22037 0.5676 0.0
H2214 H 0.18104 0.16922 0.5034 0.0
H2215 H 0.16449 0.20184 0.46648 0.0
C2216 C 0.20772 0.13627 0.57636 0.0
C2217 C 0.22002 0.15211 0.5984 0.0
C2218 C 0.1872 0.14854 0.5584 0.0
C2219 C 0.17881 0.17724 0.56164 0.0
C2220 C 0.18988 0.19244 0.585 0.0
C2221 C 0.21025 0.18001 0.60313 0.0
C2222 C 0.134 0.234 0.52406 0.0
C2223 C 0.14198 0.22996 0.49533 0.0
C2224 C 0.14375 0.21541 0.54555 0.0
C2225 C 0.16194 0.19237 0.53884 0.0
C2226 C 0.16702 0.18651 0.5097 0.0
C2227 C 0.15714 0.20506 0.48826 0.0
H2228 H 0.31382 0.90632 0.09215 0.0
H2229 H 0.3021 0.81912 0.11949 0.0
H2230 H 0.3524 0.89148 0.05984 0.0
H2231 H 0.34055 0.80409 0.08746 0.0
H2232 H 0.39935 0.7755 0.02538 0.0
H2233 H 0.39019 0.80449 0.06755 0.0
H2234 H 0.34242 0.86409 0.01572 0.0
H2235 H 0.3515 0.83486 0.97391 0.0
C2236 C 0.32057 0.88417 0.09227 0.0
C2237 C 0.30534 0.86379 0.10833 0.0
C2238 C 0.34248 0.87567 0.07367 0.0
C2239 C 0.34941 0.84661 0.07087 0.0
C2240 C 0.33607 0.82669 0.08931 0.0
C2241 C 0.31401 0.8352 0.1077 0.0
C2242 C 0.3885 0.79574 0.02274 0.0
C2243 C 0.37602 0.80295 0.9965 0.0
C2244 C 0.38295 0.81219 0.04697 0.0
C2245 C 0.36496 0.83617 0.04514 0.0
C2246 C 0.3564 0.84577 0.01794 0.0
C2247 C 0.36179 0.82915 0.9938 0.0
H2248 H 0.67706 0.32965 0.5485 0.0
H2249 H 0.6204 0.27609 0.50116 0.0
H2250 H 0.68569 0.35862 0.50585 0.0
H2251 H 0.62981 0.3043 0.45795 0.0
H2252 H 0.70526 0.40456 0.42748 0.0
H2253 H 0.66983 0.38891 0.46296 0.0
H2254 H 0.67988 0.30219 0.43408 0.0
H2255 H 0.7156 0.31793 0.39903 0.0
C2256 C 0.66509 0.32513 0.52937 0.0
C2257 C 0.64801 0.30067 0.52814 0.0
C2258 C 0.67022 0.34156 0.50478 0.0
C2259 C 0.65881 0.33343 0.47837 0.0
C2260 C 0.63907 0.31094 0.47793 0.0
C2261 C 0.63348 0.29491 0.50275 0.0
C2262 C 0.69864 0.38242 0.42768 0.0
C2263 C 0.71278 0.36246 0.41031 0.0
C2264 C 0.67858 0.37344 0.44818 0.0
C2265 C 0.67221 0.34432 0.45148 0.0
C2266 C 0.68405 0.32482 0.43186 0.0
C2267 C 0.70442 0.33379 0.41164 0.0
H2268 H 0.80797 0.66175 0.92121 0.0
H2269 H 0.76796 0.59998 0.97728 0.0
H2270 H 0.83795 0.67737 0.96099 0.0
H2271 H 0.79711 0.61595 0.01688 0.0
H2272 H 0.81274 0.69915 0.07658 0.0
H2273 H 0.79366 0.66529 0.04208 0.0
H2274 H 0.87571 0.6614 0.99976 0.0
H2275 H 0.89461 0.69494 0.03424 0.0
C2276 C 0.80643 0.65074 0.9416 0.0
C2277 C 0.78569 0.62964 0.9461 0.0
C2278 C 0.82337 0.65979 0.96449 0.0
C2279 C 0.81956 0.64809 0.9922 0.0
C2280 C 0.80035 0.62554 0.99596 0.0
C2281 C 0.78385 0.6163 0.97317 0.0
C2282 C 0.82699 0.69006 0.06077 0.0
C2283 C 0.85474 0.70072 0.05737 0.0
C2284 C 0.81606 0.6708 0.0408 0.0
C2285 C 0.83296 0.66166 0.01746 0.0
C2286 C 0.86197 0.66871 0.01698 0.0
C2287 C 0.8729 0.6875 0.03715 0.0
H2288 H 0.51628 0.1292 0.24008 0.0
H2289 H 0.45555 0.17711 0.19051 0.0
H2290 H 0.55499 0.14755 0.21006 0.0
H2291 H 0.49418 0.19535 0.1602 0.0
H2292 H 0.57494 0.22547 0.11122 0.0
H2293 H 0.53946 0.19025 0.12759 0.0
H2294 H 0.56815 0.2004 0.21423 0.0
H2295 H 0.60287 0.23575 0.19811 0.0
C2296 C 0.51094 0.14194 0.22144 0.0
C2297 C 0.4828 0.15158 0.21763 0.0
C2298 C 0.53324 0.15301 0.2046 0.0
C2299 C 0.52774 0.17354 0.18323 0.0
C2300 C 0.49917 0.17964 0.17651 0.0
C2301 C 0.47688 0.16874 0.1936 0.0
C2302 C 0.57391 0.21979 0.13369 0.0
C2303 C 0.5917 0.23345 0.15339 0.0
C2304 C 0.55357 0.19969 0.14304 0.0
C2305 C 0.55117 0.19227 0.17216 0.0
C2306 C 0.56974 0.2052 0.19159 0.0
C2307 C 0.58951 0.22568 0.18239 0.0
H2308 H 0.91189 0.79049 0.68374 0.0
H2309 H 0.9608 0.7838 0.60567 0.0
H2310 H 0.94724 0.82373 0.70254 0.0
H2311 H 0.99596 0.81707 0.62407 0.0
H2312 H 0.07079 0.83016 0.68873 0.0
H2313 H 0.03203 0.81057 0.66075 0.0
H2314 H 0.973 0.86966 0.70004 0.0
H2315 H 0.01191 0.8894 0.7278 0.0
C2316 C 0.92946 0.79723 0.6701 0.0
C2317 C 0.93337 0.78494 0.6431 0.0
C2318 C 0.94991 0.8161 0.6809 0.0
C2319 C 0.97479 0.82281 0.66498 0.0
C2320 C 0.97741 0.81209 0.63712 0.0
C2321 C 0.95702 0.79336 0.62639 0.0
C2322 C 0.04979 0.83969 0.69074 0.0
C2323 C 0.0445 0.86113 0.71098 0.0
C2324 C 0.02741 0.82834 0.67472 0.0
C2325 C 0.99915 0.83816 0.67846 0.0
C2326 C 0.99431 0.86113 0.69701 0.0
C2327 C 0.0167 0.87257 0.71285 0.0
H2328 H 0.95709 0.33462 0.83861 0.0
H2329 H 0.01262 0.39408 0.79514 0.0
H2330 H 0.99441 0.32394 0.8727 0.0
H2331 H 0.05011 0.38401 0.82958 0.0
H2332 H 0.11238 0.30514 0.84485 0.0
H2333 H 0.0776 0.34036 0.82851 0.0
H2334 H 0.03052 0.33056 0.90786 0.0
H2335 H 0.06509 0.29478 0.9236 0.0
C2336 C 0.97656 0.34701 0.83764 0.0
C2337 C 0.98197 0.3651 0.81423 0.0
C2338 C 0.99827 0.34065 0.85703 0.0
C2339 C 0.02573 0.35243 0.85336 0.0
C2340 C 0.02951 0.374 0.83261 0.0
C2341 C 1.00778 0.38028 0.81323 0.0
C2342 C 0.09537 0.31161 0.85926 0.0
C2343 C 0.09143 0.29747 0.88547 0.0
C2344 C 0.07529 0.33179 0.84996 0.0
C2345 C 0.05087 0.33808 0.86671 0.0
C2346 C 0.04874 0.32596 0.89422 0.0
C2347 C 0.0687 0.3057 0.90339 0.0
H2348 H 0.56838 0.68136 0.32874 0.0
H2349 H 0.51271 0.63021 0.2777 0.0
H2350 H 0.52914 0.69153 0.3615 0.0
H2351 H 0.4731 0.64027 0.31041 0.0
H2352 H 0.45638 0.71479 0.41502 0.0
H2353 H 0.49088 0.68104 0.39499 0.0
H2354 H 0.44784 0.68596 0.31389 0.0
H2355 H 0.41316 0.71932 0.33434 0.0
C2356 C 0.54821 0.67066 0.32563 0.0
C2357 C 0.54375 0.65475 0.30082 0.0
C2358 C 0.52544 0.6768 0.34424 0.0
C2359 C 0.49764 0.66728 0.33828 0.0
C2360 C 0.49406 0.64839 0.31539 0.0
C2361 C 0.51693 0.64212 0.29692 0.0
C2362 C 0.45356 0.70751 0.39331 0.0
C2363 C 0.4319 0.71929 0.37631 0.0
C2364 C 0.47354 0.68846 0.3817 0.0
C2365 C 0.47249 0.68098 0.35269 0.0
C2366 C 0.44923 0.69089 0.3364 0.0
C2367 C 0.42919 0.70997 0.34809 0.0
H2368 H 0.11728 0.58514 0.23264 0.0
H2369 H 0.20301 0.61257 0.25062 0.0
H2370 H 0.13623 0.55024 0.19839 0.0
H2371 H 0.22174 0.57831 0.21621 0.0
H2372 H 0.25095 0.52942 0.14284 0.0
H2373 H 0.22107 0.56747 0.16236 0.0
H2374 H 0.16832 0.50466 0.20493 0.0
H2375 H 0.19855 0.46665 0.18556 0.0
C2376 C 0.14011 0.58404 0.22896 0.0
C2377 C 0.15867 0.60161 0.24439 0.0
C2378 C 0.15091 0.56404 0.2094 0.0
C2379 C 0.18044 0.56174 0.20435 0.0
C2380 C 0.19885 0.57988 0.21923 0.0
C2381 C 0.18814 0.59936 0.23916 0.0
C2382 C 0.23192 0.52367 0.15484 0.0
C2383 C 0.22682 0.49504 0.1623 0.0
C2384 C 0.21511 0.5455 0.1665 0.0
C2385 C 0.19269 0.53908 0.18565 0.0
C2386 C 0.18538 0.5103 0.19019 0.0
C2387 C 0.20244 0.48845 0.17874 0.0
H2388 H 0.6972 0.90283 0.79893 0.0
H2389 H 0.61295 0.93838 0.80914 0.0
H2390 H 0.71518 0.93564 0.83484 0.0
H2391 H 0.6306 0.97111 0.84537 0.0
H2392 H 0.68945 0.05316 0.85268 0.0
H2393 H 0.65997 0.013 0.83935 0.0
H2394 H 0.71747 0.95564 0.88299 0.0
H2395 H 0.74665 0.99626 0.89656 0.0
C2396 C 0.68228 0.91674 0.80992 0.0
C2397 C 0.65362 0.91773 0.80165 0.0
C2398 C 0.69254 0.93568 0.83051 0.0
C2399 C 0.67441 0.95633 0.84302 0.0
C2400 C 0.64526 0.95577 0.8361 0.0
C2401 C 0.63504 0.93679 0.81559 0.0
C2402 C 0.69468 0.03225 0.86122 0.0
C2403 C 0.72059 0.02799 0.87553 0.0
C2404 C 0.67797 1.00896 0.85312 0.0
C2405 C 0.68678 0.9808 0.85924 0.0
C2406 C 0.7104 0.97692 0.87722 0.0
C2407 C 0.72691 1.00034 0.88553 0.0
H2408 H 0.82537 0.9604 0.32797 0.0
H2409 H 0.78842 0.02814 0.37788 0.0
H2410 H 0.85437 0.99512 0.30162 0.0
H2411 H 0.81791 0.06293 0.35201 0.0
H2412 H 0.8844 0.11646 0.29806 0.0
H2413 H 0.86918 0.08057 0.33356 0.0
H2414 H 0.82992 0.03194 0.26679 0.0
H2415 H 0.84434 0.06799 0.23156 0.0
C2416 C 0.82499 0.98244 0.33479 0.0
C2417 C 0.80487 0.99141 0.35534 0.0
C2418 C 0.84112 1.00246 0.3192 0.0
C2419 C 0.83795 0.03184 0.3243 0.0
C2420 C 0.82083 0.04046 0.34755 0.0
C2421 C 0.80431 0.02043 0.36281 0.0
C2422 C 0.87251 0.09809 0.29099 0.0
C2423 C 0.86539 0.09523 0.26196 0.0
C2424 C 0.86386 0.07754 0.31132 0.0
C2425 C 0.84865 0.05325 0.30296 0.0
C2426 C 0.84198 0.0502 0.27388 0.0
C2427 C 0.84997 0.07103 0.25372 0.0
H2428 H 0.2764 0.51661 0.62458 0.0
H2429 H 0.33142 0.55617 0.68571 0.0
H2430 H 0.30457 0.47271 0.62752 0.0
H2431 H 0.36041 0.51301 0.68774 0.0
H2432 H 0.31706 0.40745 0.70952 0.0
H2433 H 0.3022 0.44429 0.67564 0.0
H2434 H 0.38965 0.47146 0.6659 0.0
H2435 H 0.40444 0.43404 0.69938 0.0
C2436 C 0.29553 0.51652 0.63728 0.0
C2437 C 0.3017 0.53966 0.65504 0.0
C2438 C 0.31159 0.49133 0.63906 0.0
C2439 C 0.33446 0.48928 0.65813 0.0
C2440 C 0.34304 0.51393 0.67267 0.0
C2441 C 0.32657 0.53882 0.67138 0.0
C2442 C 0.33327 0.41997 0.69858 0.0
C2443 C 0.36187 0.41779 0.70676 0.0
C2444 C 0.3248 0.44124 0.67927 0.0
C2445 C 0.34477 0.46102 0.6684 0.0
C2446 C 0.37383 0.45656 0.67396 0.0
C2447 C 0.38232 0.43496 0.6929 0.0
H2448 H 0.85079 0.81741 0.55596 0.0
H2449 H 0.89341 0.76418 0.49429 0.0
H2450 H 0.83822 0.85112 0.51825 0.0
H2451 H 0.88133 0.79801 0.45627 0.0
H2452 H 0.80469 0.83212 0.40032 0.0
H2453 H 0.83689 0.80737 0.43301 0.0
H2454 H 0.84656 0.88501 0.48104 0.0
H2455 H 0.81376 0.90927 0.4486 0.0
C2456 C 0.85913 0.81387 0.53459 0.0
C2457 C 0.87374 0.78843 0.52834 0.0
C2458 C 0.85158 0.83307 0.5127 0.0
C2459 C 0.85826 0.82724 0.48384 0.0
C2460 C 0.87532 0.80312 0.47804 0.0
C2461 C 0.88289 0.78397 0.5 0.0
C2462 C 0.81486 0.84421 0.41699 0.0
C2463 C 0.80714 0.87281 0.42148 0.0
C2464 C 0.83324 0.82997 0.43601 0.0
C2465 C 0.84422 0.84396 0.46015 0.0
C2466 C 0.83827 0.87328 0.46311 0.0
C2467 C 0.81984 0.88741 0.44418 0.0
H2468 H 0.6283 0.1955 0.03012 0.0
H2469 H 0.70865 0.19319 0.07398 0.0
H2470 H 0.64719 0.16335 0.99393 0.0
H2471 H 0.7278 0.16104 0.03753 0.0
H2472 H 0.75476 0.10123 0.96822 0.0
H2473 H 0.7245 0.11463 1.00858 0.0
H2474 H 0.68605 0.18086 0.95705 0.0
H2475 H 0.71703 0.16767 0.91646 0.0
C2476 C 0.64968 0.18707 0.0328 0.0
C2477 C 0.66769 0.19839 0.05385 0.0
C2478 C 0.66058 0.16903 0.01173 0.0
C2479 C 0.68931 0.16086 0.01214 0.0
C2480 C 0.7057 0.16768 0.03625 0.0
C2481 C 0.69479 0.18616 0.05719 0.0
C2482 C 0.73927 0.11819 0.96524 0.0
C2483 C 0.73836 0.13361 0.93927 0.0
C2484 C 0.72207 0.12587 0.98843 0.0
C2485 C 0.7032 0.14894 0.98612 0.0
C2486 C 0.70037 0.16282 0.95936 0.0
C2487 C 0.71794 0.15527 0.93607 0.0
H2488 H 0.29892 0.70321 0.62248 0.0
H2489 H 0.30996 0.61631 0.59508 0.0
H2490 H 0.335 0.71875 0.58762 0.0
H2491 H 0.34576 0.63173 0.55983 0.0
H2492 H 0.39752 0.74359 0.52233 0.0
H2493 H 0.38585 0.71627 0.56557 0.0
H2494 H 0.33182 0.66151 0.51607 0.0
H2495 H 0.34268 0.68964 0.47335 0.0
C2496 C 0.31022 0.68729 0.61005 0.0
C2497 C 0.3021 0.65857 0.61171 0.0
C2498 C 0.33081 0.69613 0.58998 0.0
C2499 C 0.34312 0.67644 0.57083 0.0
C2500 C 0.33667 0.64735 0.57426 0.0
C2501 C 0.31639 0.6385 0.59459 0.0
C2502 C 0.38433 0.72489 0.52047 0.0
C2503 C 0.37097 0.71879 0.49451 0.0
C2504 C 0.37743 0.70937 0.5453 0.0
C2505 C 0.35756 0.68702 0.54434 0.0
C2506 C 0.34733 0.67851 0.51757 0.0
C2507 C 0.35376 0.69443 0.49294 0.0
H2508 H 0.22508 0.33662 0.12117 0.0
H2509 H 0.2139 0.41249 0.06999 0.0
H2510 H 0.19197 0.31109 0.09072 0.0
H2511 H 0.17978 0.38764 0.04009 0.0
H2512 H 0.13503 0.26568 0.03292 0.0
H2513 H 0.14807 0.30008 0.06944 0.0
H2514 H 0.18549 0.35402 1.00386 0.0
H2515 H 0.17149 0.31998 0.9677 0.0
C2516 C 0.2143 0.34826 0.10432 0.0
C2517 C 0.22177 0.37665 0.09823 0.0
C2518 C 0.19532 0.3336 0.08662 0.0
C2519 C 0.18331 0.34702 0.06239 0.0
C2520 C 0.18895 0.37625 0.05801 0.0
C2521 C 0.20815 0.39073 0.07549 0.0
C2522 C 0.14451 0.28573 0.02624 0.0
C2523 C 0.15156 0.29046 0.99733 0.0
C2524 C 0.15264 0.30522 0.04728 0.0
C2525 C 0.16846 0.32979 0.03996 0.0
C2526 C 0.17313 0.33567 1.01064 0.0
C2527 C 0.16483 0.31623 0.98965 0.0
H2528 H 0.55747 0.84361 0.83172 0.0
H2529 H 0.50459 0.89439 0.77626 0.0
H2530 H 0.51704 0.83578 0.86375 0.0
H2531 H 0.46382 0.88678 0.80829 0.0
H2532 H 0.40314 0.80855 0.83271 0.0
H2533 H 0.43815 0.84172 0.8127 0.0
H2534 H 0.47767 0.84822 0.89539 0.0
H2535 H 0.44267 0.81463 0.91508 0.0
C2536 C 0.53762 0.85468 0.8274 0.0
C2537 C 0.53426 0.86987 0.80171 0.0
C2538 C 0.51422 0.84999 0.84564 0.0
C2539 C 0.4869 0.86017 0.83835 0.0
C2540 C 0.48442 0.87826 0.81434 0.0
C2541 C 0.50791 0.88305 0.7962 0.0
C2542 C 0.41836 0.81832 0.84687 0.0
C2543 C 0.42001 0.80942 0.87546 0.0
C2544 C 0.43859 0.83728 0.83543 0.0
C2545 C 0.46107 0.84744 0.85235 0.0
C2546 C 0.4609 0.8406 0.88168 0.0
C2547 C 0.44064 0.82166 0.89307 0.0
H2548 H 0.96108 0.1466 0.33067 0.0
H2549 H 0.94878 0.2322 0.29891 0.0
H2550 H 1.00061 0.16292 0.36006 0.0
H2551 H 0.98869 0.24836 0.32755 0.0
H2552 H 0.08602 0.25112 0.33232 0.0
H2553 H 0.04213 0.23006 0.31452 0.0
H2554 H 0.02008 0.2018 0.39976 0.0
H2555 H 0.06396 0.22366 0.41772 0.0
C2556 C 0.96547 0.16927 0.33143 0.0
C2557 C 0.95179 0.18803 0.31216 0.0
C2558 C 0.98866 0.17848 0.34778 0.0
C2559 C 0.99848 0.20667 0.34523 0.0
C2560 C 0.98205 0.2263 0.3294 0.0
C2561 C 0.95858 0.21717 0.31352 0.0
C2562 C 0.07265 0.23905 0.34704 0.0
C2563 C 0.07896 0.23845 0.37633 0.0
C2564 C 0.04708 0.22766 0.33698 0.0
C2565 C 0.02724 0.21499 0.35588 0.0
C2566 C 0.03482 0.21166 0.38472 0.0
C2567 C 0.0603 0.22358 0.3949 0.0
H2568 H 0.03554 0.65032 0.18677 0.0
H2569 H 0.07531 0.72909 0.21107 0.0
H2570 H 1.00053 0.67685 0.15915 0.0
H2571 H 0.04044 0.75582 0.18333 0.0
H2572 H 0.94579 0.78633 0.18529 0.0
H2573 H 0.99044 0.7628 0.19722 0.0
H2574 H 0.98348 0.70989 0.12252 0.0
H2575 H 0.93848 0.73345 0.11056 0.0
C2576 C 0.03787 0.67326 0.18485 0.0
C2577 C 0.05801 0.68755 0.20161 0.0
C2578 C 0.01751 0.68858 0.16922 0.0
C2579 C 0.01695 0.71857 0.16988 0.0
C2580 C 0.03969 0.73272 0.18311 0.0
C2581 C 0.06016 0.71733 0.19861 0.0
C2582 C 0.95365 0.76964 0.17137 0.0
C2583 C 0.93818 0.76159 0.14715 0.0
C2584 C 0.9796 0.75641 0.17799 0.0
C2585 C 0.99084 0.73455 0.16071 0.0
C2586 C 0.97548 0.72657 0.13636 0.0
C2587 C 0.94958 0.74002 0.12958 0.0
H2588 H 0.51386 0.39179 0.74349 0.0
H2589 H 0.45687 0.34629 0.68868 0.0
H2590 H 0.55393 0.38019 0.71192 0.0
H2591 H 0.49668 0.3342 0.65721 0.0
H2592 H 0.56942 0.30738 0.60594 0.0
H2593 H 0.53649 0.34292 0.62549 0.0
H2594 H 0.57655 0.33385 0.70786 0.0
H2595 H 0.60975 0.29888 0.68786 0.0
C2596 C 0.50968 0.38066 0.72381 0.0
C2597 C 0.48224 0.37026 0.71827 0.0
C2598 C 0.53272 0.37357 0.70595 0.0
C2599 C 0.52874 0.35575 0.68229 0.0
C2600 C 0.50066 0.34814 0.67506 0.0
C2601 C 0.47766 0.35525 0.69297 0.0
C2602 C 0.57197 0.31411 0.62787 0.0
C2603 C 0.59226 0.30075 0.64538 0.0
C2604 C 0.5529 0.33419 0.63917 0.0
C2605 C 0.55348 0.341 0.66837 0.0
C2606 C 0.57557 0.32945 0.68521 0.0
C2607 C 0.59473 0.30942 0.67381 0.0
H2608 H 0.82601 0.54634 0.87382 0.0
H2609 H 0.76303 0.48248 0.89379 0.0
H2610 H 0.85846 0.50927 0.85682 0.0
H2611 H 0.79457 0.44551 0.87561 0.0
H2612 H 0.85352 0.38357 0.82856 0.0
H2613 H 0.83631 0.41536 0.8668 0.0
H2614 H 0.85118 0.48822 0.81154 0.0
H2615 H 0.86829 0.45726 0.77442 0.0
C2616 C 0.81977 0.52422 0.87637 0.0
C2617 C 0.79185 0.51743 0.88499 0.0
C2618 C 0.83808 0.5029 0.86587 0.0
C2619 C 0.82867 0.47444 0.86352 0.0
C2620 C 0.8026 0.46711 0.87671 0.0
C2621 C 0.78451 0.48841 0.88755 0.0
C2622 C 0.85333 0.40641 0.82485 0.0
C2623 C 0.86185 0.41768 0.79814 0.0
C2624 C 0.84351 0.42466 0.84675 0.0
C2625 C 0.84256 0.45455 0.84254 0.0
C2626 C 0.8521 0.46555 0.81613 0.0
C2627 C 0.86151 0.44753 0.79444 0.0
H2628 H 0.27105 0.01395 0.13423 0.0
H2629 H 0.32541 0.95942 0.18444 0.0
H2630 H 0.30077 0.05497 0.14551 0.0
H2631 H 0.35526 1.00017 0.19585 0.0
H2632 H 0.40536 0.07565 0.21761 0.0
H2633 H 0.3866 0.04033 0.18459 0.0
H2634 H 0.30321 0.0792 0.19181 0.0
H2635 H 0.32228 0.11454 0.22462 0.0
C2636 C 0.29034 0.01043 0.14629 0.0
C2637 C 0.29621 0.98335 0.158 0.0
C2638 C 0.30711 0.03406 0.15323 0.0
C2639 C 0.33019 0.03109 0.17201 0.0
C2640 C 0.33784 1.00337 0.18113 0.0
C2641 C 0.32092 0.97981 0.17433 0.0
C2642 C 0.38335 0.07742 0.21096 0.0
C2643 C 0.36537 0.09814 0.22319 0.0
C2644 C 0.37249 0.05694 0.19236 0.0
C2645 C 0.3433 0.05661 0.1857 0.0
C2646 C 0.32586 0.07891 0.19611 0.0
C2647 C 0.33676 0.09935 0.21482 0.0
H2648 H 0.19323 0.07065 0.67825 0.0
H2649 H 0.22901 1.00348 0.62677 0.0
H2650 H 0.16318 0.03638 0.70313 0.0
H2651 H 0.19787 0.96903 0.65051 0.0
H2652 H 0.19895 0.91977 0.73556 0.0
H2653 H 0.21095 0.9543 0.69809 0.0
H2654 H 0.13075 0.99791 0.71302 0.0
H2655 H 0.11934 0.96348 0.75093 0.0
C2656 C 0.19286 0.04889 0.67058 0.0
C2657 C 0.21395 0.03936 0.65142 0.0
C2658 C 0.17593 0.02906 0.6852 0.0
C2659 C 0.17942 0.99978 0.67983 0.0
C2660 C 0.19574 0.99137 0.65594 0.0
C2661 C 0.21301 0.01119 0.64173 0.0
C2662 C 0.1844 0.93727 0.73125 0.0
C2663 C 0.15896 0.93997 0.74681 0.0
C2664 C 0.19078 0.95658 0.70932 0.0
C2665 C 0.17147 0.97855 0.70213 0.0
C2666 C 0.14607 0.98132 0.71806 0.0
C2667 C 0.13983 0.96206 0.74013 0.0
H2668 H 0.70575 0.61522 0.28777 0.0
H2669 H 0.61927 0.58685 0.30062 0.0
H2670 H 0.72235 0.57879 0.32158 0.0
H2671 H 0.63571 0.5501 0.33415 0.0
H2672 H 0.69152 0.46326 0.33235 0.0
H2673 H 0.66444 0.50629 0.32062 0.0
H2674 H 0.72179 0.55628 0.37136 0.0
H2675 H 0.7483 0.51302 0.38357 0.0
C2676 C 0.69017 0.60216 0.29899 0.0
C2677 C 0.6612 0.60424 0.2921 0.0
C2678 C 0.69963 0.58112 0.31824 0.0
C2679 C 0.68035 0.56136 0.33046 0.0
C2680 C 0.6511 0.56488 0.32508 0.0
C2681 C 0.64165 0.58615 0.30616 0.0
C2682 C 0.69713 0.48311 0.34257 0.0
C2683 C 0.72181 0.48463 0.35922 0.0
C2684 C 0.68185 0.50793 0.33554 0.0
C2685 C 0.69126 0.53486 0.34465 0.0
C2686 C 0.71416 0.53594 0.36376 0.0
C2687 C 0.72911 0.51104 0.37113 0.0
loop_
_geom_bond_atom_site_label_1
_geom_bond_atom_site_label_2
_geom_bond_distance
_geom_bond_site_symmetry_2
_ccdc_geom_bond_type
Fe0 O1 1.886 . S
Fe0 O4 1.715 . S
Fe0 O9 2.077 . S
Fe0 O14 1.935 . S
Fe0 O20 2.077 . S
Fe0 O29 1.935 . S
O1 Fe0 1.886 . S
O1 Fe3 1.715 . S
Fe2 O4 1.886 . S
Fe2 O5 1.715 . S
Fe2 O12 1.935 . S
Fe2 O13 2.077 . S
Fe2 O19 1.935 . S
Fe2 O28 2.077 . S
Fe3 O1 1.715 . S
Fe3 O6 1.886 . S
Fe3 O10 1.935 . S
Fe3 O15 2.077 . S
Fe3 O21 1.935 . S
Fe3 O25 2.077 . S
O4 Fe0 1.715 . S
O4 Fe2 1.886 . S
O5 Fe2 1.715 . S
O5 Fe7 1.886 . S
O6 Fe3 1.886 . S
O6 Fe7 1.715 . S
Fe7 O5 1.886 . S
Fe7 O6 1.715 . S
Fe7 O11 2.077 . S
Fe7 O16 1.935 . S
Fe7 O18 2.077 . S
Fe7 O26 1.935 . S
C8 O20 1.381 . S
C8 O21 1.421 . S
O9 Fe0 2.077 . S
O9 C22 1.381 . S
O10 Fe3 1.935 . S
O10 C22 1.421 . S
O11 Fe7 2.077 . S
O11 C27 1.381 . S
O12 Fe2 1.935 . S
O12 C27 1.421 . S
O13 Fe2 2.077 . S
O13 C17 1.381 . S
O14 Fe0 1.935 . S
O14 C17 1.421 . S
O15 Fe3 2.077 . S
O15 C23 1.381 . S
O16 Fe7 1.935 . S
O16 C23 1.421 . S
C17 O13 1.381 . S
C17 O14 1.421 . S
O18 Fe7 2.077 . S
O18 C30 1.381 . S
O19 Fe2 1.935 . S
O19 C30 1.421 . S
O20 Fe0 2.077 . S
O20 C8 1.381 . S
O21 Fe3 1.935 . S
O21 C8 1.421 . S
C22 O9 1.381 . S
C22 O10 1.421 . S
C23 O15 1.381 . S
C23 O16 1.421 . S
C24 O25 1.381 . S
C24 O26 1.421 . S
O25 Fe3 2.077 . S
O25 C24 1.381 . S
O26 Fe7 1.935 . S
O26 C24 1.421 . S
C27 O11 1.381 . S
C27 O12 1.421 . S
O28 Fe2 2.077 . S
O28 C31 1.381 . S
O29 Fe0 1.935 . S
O29 C31 1.421 . S
C30 O18 1.381 . S
C30 O19 1.421 . S
C31 O28 1.381 . S
C31 O29 1.421 . S
Fe32 O33 1.886 . S
Fe32 O36 1.715 . S
Fe32 O41 2.077 . S
Fe32 O46 1.935 . S
Fe32 O52 2.077 . S
Fe32 O61 1.935 . S
O33 Fe32 1.886 . S
O33 Fe35 1.715 . S
Fe34 O36 1.886 . S
Fe34 O37 1.715 . S
Fe34 O44 1.935 . S
Fe34 O45 2.077 . S
Fe34 O51 1.935 . S
Fe34 O60 2.077 . S
Fe35 O33 1.715 . S
Fe35 O38 1.886 . S
Fe35 O42 1.935 . S
Fe35 O47 2.077 . S
Fe35 O53 1.935 . S
Fe35 O57 2.077 . S
O36 Fe32 1.715 . S
O36 Fe34 1.886 . S
O37 Fe34 1.715 . S
O37 Fe39 1.886 . S
O38 Fe35 1.886 . S
O38 Fe39 1.715 . S
Fe39 O37 1.886 . S
Fe39 O38 1.715 . S
Fe39 O43 2.077 . S
Fe39 O48 1.935 . S
Fe39 O50 2.077 . S
Fe39 O58 1.935 . S
C40 O52 1.381 . S
C40 O53 1.421 . S
O41 Fe32 2.077 . S
O41 C54 1.381 . S
O42 Fe35 1.935 . S
O42 C54 1.421 . S
O43 Fe39 2.077 . S
O43 C59 1.381 . S
O44 Fe34 1.935 . S
O44 C59 1.421 . S
O45 Fe34 2.077 . S
O45 C49 1.381 . S
O46 Fe32 1.935 . S
O46 C49 1.421 . S
O47 Fe35 2.077 . S
O47 C55 1.381 . S
O48 Fe39 1.935 . S
O48 C55 1.421 . S
C49 O45 1.381 . S
C49 O46 1.421 . S
O50 Fe39 2.077 . S
O50 C62 1.381 . S
O51 Fe34 1.935 . S
O51 C62 1.421 . S
O52 Fe32 2.077 . S
O52 C40 1.381 . S
O53 Fe35 1.935 . S
O53 C40 1.421 . S
C54 O41 1.381 . S
C54 O42 1.421 . S
C55 O47 1.381 . S
C55 O48 1.421 . S
C56 O57 1.381 . S
C56 O58 1.421 . S
O57 Fe35 2.077 . S
O57 C56 1.381 . S
O58 Fe39 1.935 . S
O58 C56 1.421 . S
C59 O43 1.381 . S
C59 O44 1.421 . S
O60 Fe34 2.077 . S
O60 C63 1.381 . S
O61 Fe32 1.935 . S
O61 C63 1.421 . S
C62 O50 1.381 . S
C62 O51 1.421 . S
C63 O60 1.381 . S
C63 O61 1.421 . S
Fe64 O65 1.886 . S
Fe64 O68 1.715 . S
Fe64 O73 2.077 . S
Fe64 O78 1.935 . S
Fe64 O84 2.077 . S
Fe64 O93 1.935 . S
O65 Fe64 1.886 . S
O65 Fe67 1.715 . S
Fe66 O68 1.886 . S
Fe66 O69 1.715 . S
Fe66 O76 1.935 . S
Fe66 O77 2.077 . S
Fe66 O83 1.935 . S
Fe66 O92 2.077 . S
Fe67 O65 1.715 . S
Fe67 O70 1.886 . S
Fe67 O74 1.935 . S
Fe67 O79 2.077 . S
Fe67 O85 1.935 . S
Fe67 O89 2.077 . S
O68 Fe64 1.715 . S
O68 Fe66 1.886 . S
O69 Fe66 1.715 . S
O69 Fe71 1.886 . S
O70 Fe67 1.886 . S
O70 Fe71 1.715 . S
Fe71 O69 1.886 . S
Fe71 O70 1.715 . S
Fe71 O75 2.077 . S
Fe71 O80 1.935 . S
Fe71 O82 2.077 . S
Fe71 O90 1.935 . S
C72 O84 1.381 . S
C72 O85 1.421 . S
O73 Fe64 2.077 . S
O73 C86 1.381 . S
O74 Fe67 1.935 . S
O74 C86 1.421 . S
O75 Fe71 2.077 . S
O75 C91 1.381 . S
O76 Fe66 1.935 . S
O76 C91 1.421 . S
O77 Fe66 2.077 . S
O77 C81 1.381 . S
O78 Fe64 1.935 . S
O78 C81 1.421 . S
O79 Fe67 2.077 . S
O79 C87 1.381 . S
O80 Fe71 1.935 . S
O80 C87 1.421 . S
C81 O77 1.381 . S
C81 O78 1.421 . S
O82 Fe71 2.077 . S
O82 C94 1.381 . S
O83 Fe66 1.935 . S
O83 C94 1.421 . S
O84 Fe64 2.077 . S
O84 C72 1.381 . S
O85 Fe67 1.935 . S
O85 C72 1.421 . S
C86 O73 1.381 . S
C86 O74 1.421 . S
C87 O79 1.381 . S
C87 O80 1.421 . S
C88 O89 1.381 . S
C88 O90 1.421 . S
O89 Fe67 2.077 . S
O89 C88 1.381 . S
O90 Fe71 1.935 . S
O90 C88 1.421 . S
C91 O75 1.381 . S
C91 O76 1.421 . S
O92 Fe66 2.077 . S
O92 C95 1.381 . S
O93 Fe64 1.935 . S
O93 C95 1.421 . S
C94 O82 1.381 . S
C94 O83 1.421 . S
C95 O92 1.381 . S
C95 O93 1.421 . S
Fe96 O97 1.886 . S
Fe96 O100 1.715 . S
Fe96 O105 2.077 . S
Fe96 O110 1.935 . S
Fe96 O116 2.077 . S
Fe96 O125 1.935 . S
O97 Fe96 1.886 . S
O97 Fe99 1.715 . S
Fe98 O100 1.886 . S
Fe98 O101 1.715 . S
Fe98 O108 1.935 . S
Fe98 O109 2.077 . S
Fe98 O115 1.935 . S
Fe98 O124 2.077 . S
Fe99 O97 1.715 . S
Fe99 O102 1.886 . S
Fe99 O106 1.935 . S
Fe99 O111 2.077 . S
Fe99 O117 1.935 . S
Fe99 O121 2.077 . S
O100 Fe96 1.715 . S
O100 Fe98 1.886 . S
O101 Fe98 1.715 . S
O101 Fe103 1.886 . S
O102 Fe99 1.886 . S
O102 Fe103 1.715 . S
Fe103 O101 1.886 . S
Fe103 O102 1.715 . S
Fe103 O107 2.077 . S
Fe103 O112 1.935 . S
Fe103 O114 2.077 . S
Fe103 O122 1.935 . S
C104 O116 1.381 . S
C104 O117 1.421 . S
O105 Fe96 2.077 . S
O105 C118 1.381 . S
O106 Fe99 1.935 . S
O106 C118 1.421 . S
O107 Fe103 2.077 . S
O107 C123 1.381 . S
O108 Fe98 1.935 . S
O108 C123 1.421 . S
O109 Fe98 2.077 . S
O109 C113 1.381 . S
O110 Fe96 1.935 . S
O110 C113 1.421 . S
O111 Fe99 2.077 . S
O111 C119 1.381 . S
O112 Fe103 1.935 . S
O112 C119 1.421 . S
C113 O109 1.381 . S
C113 O110 1.421 . S
O114 Fe103 2.077 . S
O114 C126 1.381 . S
O115 Fe98 1.935 . S
O115 C126 1.421 . S
O116 Fe96 2.077 . S
O116 C104 1.381 . S
O117 Fe99 1.935 . S
O117 C104 1.421 . S
C118 O105 1.381 . S
C118 O106 1.421 . S
C119 O111 1.381 . S
C119 O112 1.421 . S
C120 O121 1.381 . S
C120 O122 1.421 . S
O121 Fe99 2.077 . S
O121 C120 1.381 . S
O122 Fe103 1.935 . S
O122 C120 1.421 . S
C123 O107 1.381 . S
C123 O108 1.421 . S
O124 Fe98 2.077 . S
O124 C127 1.381 . S
O125 Fe96 1.935 . S
O125 C127 1.421 . S
C126 O114 1.381 . S
C126 O115 1.421 . S
C127 O124 1.381 . S
C127 O125 1.421 . S
Fe128 O129 1.886 . S
Fe128 O132 1.715 . S
Fe128 O137 2.077 . S
Fe128 O142 1.935 . S
Fe128 O148 2.077 . S
Fe128 O157 1.935 . S
O129 Fe128 1.886 . S
O129 Fe131 1.715 . S
Fe130 O132 1.886 . S
Fe130 O133 1.715 . S
Fe130 O140 1.935 . S
Fe130 O141 2.077 . S
Fe130 O147 1.935 . S
Fe130 O156 2.077 . S
Fe131 O129 1.715 . S
Fe131 O134 1.886 . S
Fe131 O138 1.935 . S
Fe131 O143 2.077 . S
Fe131 O149 1.935 . S
Fe131 O153 2.077 . S
O132 Fe128 1.715 . S
O132 Fe130 1.886 . S
O133 Fe130 1.715 . S
O133 Fe135 1.886 . S
O134 Fe131 1.886 . S
O134 Fe135 1.715 . S
Fe135 O133 1.886 . S
Fe135 O134 1.715 . S
Fe135 O139 2.077 . S
Fe135 O144 1.935 . S
Fe135 O146 2.077 . S
Fe135 O154 1.935 . S
C136 O148 1.381 . S
C136 O149 1.421 . S
O137 Fe128 2.077 . S
O137 C150 1.381 . S
O138 Fe131 1.935 . S
O138 C150 1.421 . S
O139 Fe135 2.077 . S
O139 C155 1.381 . S
O140 Fe130 1.935 . S
O140 C155 1.421 . S
O141 Fe130 2.077 . S
O141 C145 1.381 . S
O142 Fe128 1.935 . S
O142 C145 1.421 . S
O143 Fe131 2.077 . S
O143 C151 1.381 . S
O144 Fe135 1.935 . S
O144 C151 1.421 . S
C145 O141 1.381 . S
C145 O142 1.421 . S
O146 Fe135 2.077 . S
O146 C158 1.381 . S
O147 Fe130 1.935 . S
O147 C158 1.421 . S
O148 Fe128 2.077 . S
O148 C136 1.381 . S
O149 Fe131 1.935 . S
O149 C136 1.421 . S
C150 O137 1.381 . S
C150 O138 1.421 . S
C151 O143 1.381 . S
C151 O144 1.421 . S
C152 O153 1.381 . S
C152 O154 1.421 . S
O153 Fe131 2.077 . S
O153 C152 1.381 . S
O154 Fe135 1.935 . S
O154 C152 1.421 . S
C155 O139 1.381 . S
C155 O140 1.421 . S
O156 Fe130 2.077 . S
O156 C159 1.381 . S
O157 Fe128 1.935 . S
O157 C159 1.421 . S
C158 O146 1.381 . S
C158 O147 1.421 . S
C159 O156 1.381 . S
C159 O157 1.421 . S
Fe160 O161 1.886 . S
Fe160 O164 1.715 . S
Fe160 O169 2.077 . S
Fe160 O174 1.935 . S
Fe160 O180 2.077 . S
Fe160 O189 1.935 . S
O161 Fe160 1.886 . S
O161 Fe163 1.715 . S
Fe162 O164 1.886 . S
Fe162 O165 1.715 . S
Fe162 O172 1.935 . S
Fe162 O173 2.077 . S
Fe162 O179 1.935 . S
Fe162 O188 2.077 . S
Fe163 O161 1.715 . S
Fe163 O166 1.886 . S
Fe163 O170 1.935 . S
Fe163 O175 2.077 . S
Fe163 O181 1.935 . S
Fe163 O185 2.077 . S
O164 Fe160 1.715 . S
O164 Fe162 1.886 . S
O165 Fe162 1.715 . S
O165 Fe167 1.886 . S
O166 Fe163 1.886 . S
O166 Fe167 1.715 . S
Fe167 O165 1.886 . S
Fe167 O166 1.715 . S
Fe167 O171 2.077 . S
Fe167 O176 1.935 . S
Fe167 O178 2.077 . S
Fe167 O186 1.935 . S
C168 O180 1.381 . S
C168 O181 1.421 . S
O169 Fe160 2.077 . S
O169 C182 1.381 . S
O170 Fe163 1.935 . S
O170 C182 1.421 . S
O171 Fe167 2.077 . S
O171 C187 1.381 . S
O172 Fe162 1.935 . S
O172 C187 1.421 . S
O173 Fe162 2.077 . S
O173 C177 1.381 . S
O174 Fe160 1.935 . S
O174 C177 1.421 . S
O175 Fe163 2.077 . S
O175 C183 1.381 . S
O176 Fe167 1.935 . S
O176 C183 1.421 . S
C177 O173 1.381 . S
C177 O174 1.421 . S
O178 Fe167 2.077 . S
O178 C190 1.381 . S
O179 Fe162 1.935 . S
O179 C190 1.421 . S
O180 Fe160 2.077 . S
O180 C168 1.381 . S
O181 Fe163 1.935 . S
O181 C168 1.421 . S
C182 O169 1.381 . S
C182 O170 1.421 . S
C183 O175 1.381 . S
C183 O176 1.421 . S
C184 O185 1.381 . S
C184 O186 1.421 . S
O185 Fe163 2.077 . S
O185 C184 1.381 . S
O186 Fe167 1.935 . S
O186 C184 1.421 . S
C187 O171 1.381 . S
C187 O172 1.421 . S
O188 Fe162 2.077 . S
O188 C191 1.381 . S
O189 Fe160 1.935 . S
O189 C191 1.421 . S
C190 O178 1.381 . S
C190 O179 1.421 . S
C191 O188 1.381 . S
C191 O189 1.421 . S
Fe192 O193 1.886 . S
Fe192 O196 1.715 . S
Fe192 O201 2.077 . S
Fe192 O206 1.935 . S
Fe192 O212 2.077 . S
Fe192 O221 1.935 . S
O193 Fe192 1.886 . S
O193 Fe195 1.715 . S
Fe194 O196 1.886 . S
Fe194 O197 1.715 . S
Fe194 O204 1.935 . S
Fe194 O205 2.077 . S
Fe194 O211 1.935 . S
Fe194 O220 2.077 . S
Fe195 O193 1.715 . S
Fe195 O198 1.886 . S
Fe195 O202 1.935 . S
Fe195 O207 2.077 . S
Fe195 O213 1.935 . S
Fe195 O217 2.077 . S
O196 Fe192 1.715 . S
O196 Fe194 1.886 . S
O197 Fe194 1.715 . S
O197 Fe199 1.886 . S
O198 Fe195 1.886 . S
O198 Fe199 1.715 . S
Fe199 O197 1.886 . S
Fe199 O198 1.715 . S
Fe199 O203 2.077 . S
Fe199 O208 1.935 . S
Fe199 O210 2.077 . S
Fe199 O218 1.935 . S
C200 O212 1.381 . S
C200 O213 1.421 . S
O201 Fe192 2.077 . S
O201 C214 1.381 . S
O202 Fe195 1.935 . S
O202 C214 1.421 . S
O203 Fe199 2.077 . S
O203 C219 1.381 . S
O204 Fe194 1.935 . S
O204 C219 1.421 . S
O205 Fe194 2.077 . S
O205 C209 1.381 . S
O206 Fe192 1.935 . S
O206 C209 1.421 . S
O207 Fe195 2.077 . S
O207 C215 1.381 . S
O208 Fe199 1.935 . S
O208 C215 1.421 . S
C209 O205 1.381 . S
C209 O206 1.421 . S
O210 Fe199 2.077 . S
O210 C222 1.381 . S
O211 Fe194 1.935 . S
O211 C222 1.421 . S
O212 Fe192 2.077 . S
O212 C200 1.381 . S
O213 Fe195 1.935 . S
O213 C200 1.421 . S
C214 O201 1.381 . S
C214 O202 1.421 . S
C215 O207 1.381 . S
C215 O208 1.421 . S
C216 O217 1.381 . S
C216 O218 1.421 . S
O217 Fe195 2.077 . S
O217 C216 1.381 . S
O218 Fe199 1.935 . S
O218 C216 1.421 . S
C219 O203 1.381 . S
C219 O204 1.421 . S
O220 Fe194 2.077 . S
O220 C223 1.381 . S
O221 Fe192 1.935 . S
O221 C223 1.421 . S
C222 O210 1.381 . S
C222 O211 1.421 . S
C223 O220 1.381 . S
C223 O221 1.421 . S
Fe224 O225 1.886 . S
Fe224 O228 1.715 . S
Fe224 O233 2.077 . S
Fe224 O238 1.935 . S
Fe224 O244 2.077 . S
Fe224 O253 1.935 . S
O225 Fe224 1.886 . S
O225 Fe227 1.715 . S
Fe226 O228 1.886 . S
Fe226 O229 1.715 . S
Fe226 O236 1.935 . S
Fe226 O237 2.077 . S
Fe226 O243 1.935 . S
Fe226 O252 2.077 . S
Fe227 O225 1.715 . S
Fe227 O230 1.886 . S
Fe227 O234 1.935 . S
Fe227 O239 2.077 . S
Fe227 O245 1.935 . S
Fe227 O249 2.077 . S
O228 Fe224 1.715 . S
O228 Fe226 1.886 . S
O229 Fe226 1.715 . S
O229 Fe231 1.886 . S
O230 Fe227 1.886 . S
O230 Fe231 1.715 . S
Fe231 O229 1.886 . S
Fe231 O230 1.715 . S
Fe231 O235 2.077 . S
Fe231 O240 1.935 . S
Fe231 O242 2.077 . S
Fe231 O250 1.935 . S
C232 O244 1.381 . S
C232 O245 1.421 . S
O233 Fe224 2.077 . S
O233 C246 1.381 . S
O234 Fe227 1.935 . S
O234 C246 1.421 . S
O235 Fe231 2.077 . S
O235 C251 1.381 . S
O236 Fe226 1.935 . S
O236 C251 1.421 . S
O237 Fe226 2.077 . S
O237 C241 1.381 . S
O238 Fe224 1.935 . S
O238 C241 1.421 . S
O239 Fe227 2.077 . S
O239 C247 1.381 . S
O240 Fe231 1.935 . S
O240 C247 1.421 . S
C241 O237 1.381 . S
C241 O238 1.421 . S
O242 Fe231 2.077 . S
O242 C254 1.381 . S
O243 Fe226 1.935 . S
O243 C254 1.421 . S
O244 Fe224 2.077 . S
O244 C232 1.381 . S
O245 Fe227 1.935 . S
O245 C232 1.421 . S
C246 O233 1.381 . S
C246 O234 1.421 . S
C247 O239 1.381 . S
C247 O240 1.421 . S
C248 O249 1.381 . S
C248 O250 1.421 . S
O249 Fe227 2.077 . S
O249 C248 1.381 . S
O250 Fe231 1.935 . S
O250 C248 1.421 . S
C251 O235 1.381 . S
C251 O236 1.421 . S
O252 Fe226 2.077 . S
O252 C255 1.381 . S
O253 Fe224 1.935 . S
O253 C255 1.421 . S
C254 O242 1.381 . S
C254 O243 1.421 . S
C255 O252 1.381 . S
C255 O253 1.421 . S
Fe256 O257 1.886 . S
Fe256 O260 1.715 . S
Fe256 O265 2.077 . S
Fe256 O270 1.935 . S
Fe256 O276 2.077 . S
Fe256 O285 1.935 . S
O257 Fe256 1.886 . S
O257 Fe259 1.715 . S
Fe258 O260 1.886 . S
Fe258 O261 1.715 . S
Fe258 O268 1.935 . S
Fe258 O269 2.077 . S
Fe258 O275 1.935 . S
Fe258 O284 2.077 . S
Fe259 O257 1.715 . S
Fe259 O262 1.886 . S
Fe259 O266 1.935 . S
Fe259 O271 2.077 . S
Fe259 O277 1.935 . S
Fe259 O281 2.077 . S
O260 Fe256 1.715 . S
O260 Fe258 1.886 . S
O261 Fe258 1.715 . S
O261 Fe263 1.886 . S
O262 Fe259 1.886 . S
O262 Fe263 1.715 . S
Fe263 O261 1.886 . S
Fe263 O262 1.715 . S
Fe263 O267 2.077 . S
Fe263 O272 1.935 . S
Fe263 O274 2.077 . S
Fe263 O282 1.935 . S
C264 O276 1.381 . S
C264 O277 1.421 . S
O265 Fe256 2.077 . S
O265 C278 1.381 . S
O266 Fe259 1.935 . S
O266 C278 1.421 . S
O267 Fe263 2.077 . S
O267 C283 1.381 . S
O268 Fe258 1.935 . S
O268 C283 1.421 . S
O269 Fe258 2.077 . S
O269 C273 1.381 . S
O270 Fe256 1.935 . S
O270 C273 1.421 . S
O271 Fe259 2.077 . S
O271 C279 1.381 . S
O272 Fe263 1.935 . S
O272 C279 1.421 . S
C273 O269 1.381 . S
C273 O270 1.421 . S
O274 Fe263 2.077 . S
O274 C286 1.381 . S
O275 Fe258 1.935 . S
O275 C286 1.421 . S
O276 Fe256 2.077 . S
O276 C264 1.381 . S
O277 Fe259 1.935 . S
O277 C264 1.421 . S
C278 O265 1.381 . S
C278 O266 1.421 . S
C279 O271 1.381 . S
C279 O272 1.421 . S
C280 O281 1.381 . S
C280 O282 1.421 . S
O281 Fe259 2.077 . S
O281 C280 1.381 . S
O282 Fe263 1.935 . S
O282 C280 1.421 . S
C283 O267 1.381 . S
C283 O268 1.421 . S
O284 Fe258 2.077 . S
O284 C287 1.381 . S
O285 Fe256 1.935 . S
O285 C287 1.421 . S
C286 O274 1.381 . S
C286 O275 1.421 . S
C287 O284 1.381 . S
C287 O285 1.421 . S
Fe288 O289 1.886 . S
Fe288 O292 1.715 . S
Fe288 O297 2.077 . S
Fe288 O302 1.935 . S
Fe288 O308 2.077 . S
Fe288 O317 1.935 . S
O289 Fe288 1.886 . S
O289 Fe291 1.715 . S
Fe290 O292 1.886 . S
Fe290 O293 1.715 . S
Fe290 O300 1.935 . S
Fe290 O301 2.077 . S
Fe290 O307 1.935 . S
Fe290 O316 2.077 . S
Fe291 O289 1.715 . S
Fe291 O294 1.886 . S
Fe291 O298 1.935 . S
Fe291 O303 2.077 . S
Fe291 O309 1.935 . S
Fe291 O313 2.077 . S
O292 Fe288 1.715 . S
O292 Fe290 1.886 . S
O293 Fe290 1.715 . S
O293 Fe295 1.886 . S
O294 Fe291 1.886 . S
O294 Fe295 1.715 . S
Fe295 O293 1.886 . S
Fe295 O294 1.715 . S
Fe295 O299 2.077 . S
Fe295 O304 1.935 . S
Fe295 O306 2.077 . S
Fe295 O314 1.935 . S
C296 O308 1.381 . S
C296 O309 1.421 . S
O297 Fe288 2.077 . S
O297 C310 1.381 . S
O298 Fe291 1.935 . S
O298 C310 1.421 . S
O299 Fe295 2.077 . S
O299 C315 1.381 . S
O300 Fe290 1.935 . S
O300 C315 1.421 . S
O301 Fe290 2.077 . S
O301 C305 1.381 . S
O302 Fe288 1.935 . S
O302 C305 1.421 . S
O303 Fe291 2.077 . S
O303 C311 1.381 . S
O304 Fe295 1.935 . S
O304 C311 1.421 . S
C305 O301 1.381 . S
C305 O302 1.421 . S
O306 Fe295 2.077 . S
O306 C318 1.381 . S
O307 Fe290 1.935 . S
O307 C318 1.421 . S
O308 Fe288 2.077 . S
O308 C296 1.381 . S
O309 Fe291 1.935 . S
O309 C296 1.421 . S
C310 O297 1.381 . S
C310 O298 1.421 . S
C311 O303 1.381 . S
C311 O304 1.421 . S
C312 O313 1.381 . S
C312 O314 1.421 . S
O313 Fe291 2.077 . S
O313 C312 1.381 . S
O314 Fe295 1.935 . S
O314 C312 1.421 . S
C315 O299 1.381 . S
C315 O300 1.421 . S
O316 Fe290 2.077 . S
O316 C319 1.381 . S
O317 Fe288 1.935 . S
O317 C319 1.421 . S
C318 O306 1.381 . S
C318 O307 1.421 . S
C319 O316 1.381 . S
C319 O317 1.421 . S
Fe320 O321 1.886 . S
Fe320 O324 1.715 . S
Fe320 O329 2.077 . S
Fe320 O334 1.935 . S
Fe320 O340 2.077 . S
Fe320 O349 1.935 . S
O321 Fe320 1.886 . S
O321 Fe323 1.715 . S
Fe322 O324 1.886 . S
Fe322 O325 1.715 . S
Fe322 O332 1.935 . S
Fe322 O333 2.077 . S
Fe322 O339 1.935 . S
Fe322 O348 2.077 . S
Fe323 O321 1.715 . S
Fe323 O326 1.886 . S
Fe323 O330 1.935 . S
Fe323 O335 2.077 . S
Fe323 O341 1.935 . S
Fe323 O345 2.077 . S
O324 Fe320 1.715 . S
O324 Fe322 1.886 . S
O325 Fe322 1.715 . S
O325 Fe327 1.886 . S
O326 Fe323 1.886 . S
O326 Fe327 1.715 . S
Fe327 O325 1.886 . S
Fe327 O326 1.715 . S
Fe327 O331 2.077 . S
Fe327 O336 1.935 . S
Fe327 O338 2.077 . S
Fe327 O346 1.935 . S
C328 O340 1.381 . S
C328 O341 1.421 . S
O329 Fe320 2.077 . S
O329 C342 1.381 . S
O330 Fe323 1.935 . S
O330 C342 1.421 . S
O331 Fe327 2.077 . S
O331 C347 1.381 . S
O332 Fe322 1.935 . S
O332 C347 1.421 . S
O333 Fe322 2.077 . S
O333 C337 1.381 . S
O334 Fe320 1.935 . S
O334 C337 1.421 . S
O335 Fe323 2.077 . S
O335 C343 1.381 . S
O336 Fe327 1.935 . S
O336 C343 1.421 . S
C337 O333 1.381 . S
C337 O334 1.421 . S
O338 Fe327 2.077 . S
O338 C350 1.381 . S
O339 Fe322 1.935 . S
O339 C350 1.421 . S
O340 Fe320 2.077 . S
O340 C328 1.381 . S
O341 Fe323 1.935 . S
O341 C328 1.421 . S
C342 O329 1.381 . S
C342 O330 1.421 . S
C343 O335 1.381 . S
C343 O336 1.421 . S
C344 O345 1.381 . S
C344 O346 1.421 . S
O345 Fe323 2.077 . S
O345 C344 1.381 . S
O346 Fe327 1.935 . S
O346 C344 1.421 . S
C347 O331 1.381 . S
C347 O332 1.421 . S
O348 Fe322 2.077 . S
O348 C351 1.381 . S
O349 Fe320 1.935 . S
O349 C351 1.421 . S
C350 O338 1.381 . S
C350 O339 1.421 . S
C351 O348 1.381 . S
C351 O349 1.421 . S
Fe352 O353 1.886 . S
Fe352 O356 1.715 . S
Fe352 O361 2.077 . S
Fe352 O366 1.935 . S
Fe352 O372 2.077 . S
Fe352 O381 1.935 . S
O353 Fe352 1.886 . S
O353 Fe355 1.715 . S
Fe354 O356 1.886 . S
Fe354 O357 1.715 . S
Fe354 O364 1.935 . S
Fe354 O365 2.077 . S
Fe354 O371 1.935 . S
Fe354 O380 2.077 . S
Fe355 O353 1.715 . S
Fe355 O358 1.886 . S
Fe355 O362 1.935 . S
Fe355 O367 2.077 . S
Fe355 O373 1.935 . S
Fe355 O377 2.077 . S
O356 Fe352 1.715 . S
O356 Fe354 1.886 . S
O357 Fe354 1.715 . S
O357 Fe359 1.886 . S
O358 Fe355 1.886 . S
O358 Fe359 1.715 . S
Fe359 O357 1.886 . S
Fe359 O358 1.715 . S
Fe359 O363 2.077 . S
Fe359 O368 1.935 . S
Fe359 O370 2.077 . S
Fe359 O378 1.935 . S
C360 O372 1.381 . S
C360 O373 1.421 . S
O361 Fe352 2.077 . S
O361 C374 1.381 . S
O362 Fe355 1.935 . S
O362 C374 1.421 . S
O363 Fe359 2.077 . S
O363 C379 1.381 . S
O364 Fe354 1.935 . S
O364 C379 1.421 . S
O365 Fe354 2.077 . S
O365 C369 1.381 . S
O366 Fe352 1.935 . S
O366 C369 1.421 . S
O367 Fe355 2.077 . S
O367 C375 1.381 . S
O368 Fe359 1.935 . S
O368 C375 1.421 . S
C369 O365 1.381 . S
C369 O366 1.421 . S
O370 Fe359 2.077 . S
O370 C382 1.381 . S
O371 Fe354 1.935 . S
O371 C382 1.421 . S
O372 Fe352 2.077 . S
O372 C360 1.381 . S
O373 Fe355 1.935 . S
O373 C360 1.421 . S
C374 O361 1.381 . S
C374 O362 1.421 . S
C375 O367 1.381 . S
C375 O368 1.421 . S
C376 O377 1.381 . S
C376 O378 1.421 . S
O377 Fe355 2.077 . S
O377 C376 1.381 . S
O378 Fe359 1.935 . S
O378 C376 1.421 . S
C379 O363 1.381 . S
C379 O364 1.421 . S
O380 Fe354 2.077 . S
O380 C383 1.381 . S
O381 Fe352 1.935 . S
O381 C383 1.421 . S
C382 O370 1.381 . S
C382 O371 1.421 . S
C383 O380 1.381 . S
C383 O381 1.421 . S
Fe384 O385 1.886 . S
Fe384 O388 1.715 . S
Fe384 O393 2.077 . S
Fe384 O398 1.935 . S
Fe384 O404 2.077 . S
Fe384 O413 1.935 . S
O385 Fe384 1.886 . S
O385 Fe387 1.715 . S
Fe386 O388 1.886 . S
Fe386 O389 1.715 . S
Fe386 O396 1.935 . S
Fe386 O397 2.077 . S
Fe386 O403 1.935 . S
Fe386 O412 2.077 . S
Fe387 O385 1.715 . S
Fe387 O390 1.886 . S
Fe387 O394 1.935 . S
Fe387 O399 2.077 . S
Fe387 O405 1.935 . S
Fe387 O409 2.077 . S
O388 Fe384 1.715 . S
O388 Fe386 1.886 . S
O389 Fe386 1.715 . S
O389 Fe391 1.886 . S
O390 Fe387 1.886 . S
O390 Fe391 1.715 . S
Fe391 O389 1.886 . S
Fe391 O390 1.715 . S
Fe391 O395 2.077 . S
Fe391 O400 1.935 . S
Fe391 O402 2.077 . S
Fe391 O410 1.935 . S
C392 O404 1.381 . S
C392 O405 1.421 . S
O393 Fe384 2.077 . S
O393 C406 1.381 . S
O394 Fe387 1.935 . S
O394 C406 1.421 . S
O395 Fe391 2.077 . S
O395 C411 1.381 . S
O396 Fe386 1.935 . S
O396 C411 1.421 . S
O397 Fe386 2.077 . S
O397 C401 1.381 . S
O398 Fe384 1.935 . S
O398 C401 1.421 . S
O399 Fe387 2.077 . S
O399 C407 1.381 . S
O400 Fe391 1.935 . S
O400 C407 1.421 . S
C401 O397 1.381 . S
C401 O398 1.421 . S
O402 Fe391 2.077 . S
O402 C414 1.381 . S
O403 Fe386 1.935 . S
O403 C414 1.421 . S
O404 Fe384 2.077 . S
O404 C392 1.381 . S
O405 Fe387 1.935 . S
O405 C392 1.421 . S
C406 O393 1.381 . S
C406 O394 1.421 . S
C407 O399 1.381 . S
C407 O400 1.421 . S
C408 O409 1.381 . S
C408 O410 1.421 . S
O409 Fe387 2.077 . S
O409 C408 1.381 . S
O410 Fe391 1.935 . S
O410 C408 1.421 . S
C411 O395 1.381 . S
C411 O396 1.421 . S
O412 Fe386 2.077 . S
O412 C415 1.381 . S
O413 Fe384 1.935 . S
O413 C415 1.421 . S
C414 O402 1.381 . S
C414 O403 1.421 . S
C415 O412 1.381 . S
C415 O413 1.421 . S
Fe416 O417 1.886 . S
Fe416 O420 1.715 . S
Fe416 O425 2.077 . S
Fe416 O430 1.935 . S
Fe416 O436 2.077 . S
Fe416 O445 1.935 . S
O417 Fe416 1.886 . S
O417 Fe419 1.715 . S
Fe418 O420 1.886 . S
Fe418 O421 1.715 . S
Fe418 O428 1.935 . S
Fe418 O429 2.077 . S
Fe418 O435 1.935 . S
Fe418 O444 2.077 . S
Fe419 O417 1.715 . S
Fe419 O422 1.886 . S
Fe419 O426 1.935 . S
Fe419 O431 2.077 . S
Fe419 O437 1.935 . S
Fe419 O441 2.077 . S
O420 Fe416 1.715 . S
O420 Fe418 1.886 . S
O421 Fe418 1.715 . S
O421 Fe423 1.886 . S
O422 Fe419 1.886 . S
O422 Fe423 1.715 . S
Fe423 O421 1.886 . S
Fe423 O422 1.715 . S
Fe423 O427 2.077 . S
Fe423 O432 1.935 . S
Fe423 O434 2.077 . S
Fe423 O442 1.935 . S
C424 O436 1.381 . S
C424 O437 1.421 . S
O425 Fe416 2.077 . S
O425 C438 1.381 . S
O426 Fe419 1.935 . S
O426 C438 1.421 . S
O427 Fe423 2.077 . S
O427 C443 1.381 . S
O428 Fe418 1.935 . S
O428 C443 1.421 . S
O429 Fe418 2.077 . S
O429 C433 1.381 . S
O430 Fe416 1.935 . S
O430 C433 1.421 . S
O431 Fe419 2.077 . S
O431 C439 1.381 . S
O432 Fe423 1.935 . S
O432 C439 1.421 . S
C433 O429 1.381 . S
C433 O430 1.421 . S
O434 Fe423 2.077 . S
O434 C446 1.381 . S
O435 Fe418 1.935 . S
O435 C446 1.421 . S
O436 Fe416 2.077 . S
O436 C424 1.381 . S
O437 Fe419 1.935 . S
O437 C424 1.421 . S
C438 O425 1.381 . S
C438 O426 1.421 . S
C439 O431 1.381 . S
C439 O432 1.421 . S
C440 O441 1.381 . S
C440 O442 1.421 . S
O441 Fe419 2.077 . S
O441 C440 1.381 . S
O442 Fe423 1.935 . S
O442 C440 1.421 . S
C443 O427 1.381 . S
C443 O428 1.421 . S
O444 Fe418 2.077 . S
O444 C447 1.381 . S
O445 Fe416 1.935 . S
O445 C447 1.421 . S
C446 O434 1.381 . S
C446 O435 1.421 . S
C447 O444 1.381 . S
C447 O445 1.421 . S
Fe448 O449 1.886 . S
Fe448 O452 1.715 . S
Fe448 O457 2.077 . S
Fe448 O462 1.935 . S
Fe448 O468 2.077 . S
Fe448 O477 1.935 . S
O449 Fe448 1.886 . S
O449 Fe451 1.715 . S
Fe450 O452 1.886 . S
Fe450 O453 1.715 . S
Fe450 O460 1.935 . S
Fe450 O461 2.077 . S
Fe450 O467 1.935 . S
Fe450 O476 2.077 . S
Fe451 O449 1.715 . S
Fe451 O454 1.886 . S
Fe451 O458 1.935 . S
Fe451 O463 2.077 . S
Fe451 O469 1.935 . S
Fe451 O473 2.077 . S
O452 Fe448 1.715 . S
O452 Fe450 1.886 . S
O453 Fe450 1.715 . S
O453 Fe455 1.886 . S
O454 Fe451 1.886 . S
O454 Fe455 1.715 . S
Fe455 O453 1.886 . S
Fe455 O454 1.715 . S
Fe455 O459 2.077 . S
Fe455 O464 1.935 . S
Fe455 O466 2.077 . S
Fe455 O474 1.935 . S
C456 O468 1.381 . S
C456 O469 1.421 . S
O457 Fe448 2.077 . S
O457 C470 1.381 . S
O458 Fe451 1.935 . S
O458 C470 1.421 . S
O459 Fe455 2.077 . S
O459 C475 1.381 . S
O460 Fe450 1.935 . S
O460 C475 1.421 . S
O461 Fe450 2.077 . S
O461 C465 1.381 . S
O462 Fe448 1.935 . S
O462 C465 1.421 . S
O463 Fe451 2.077 . S
O463 C471 1.381 . S
O464 Fe455 1.935 . S
O464 C471 1.421 . S
C465 O461 1.381 . S
C465 O462 1.421 . S
O466 Fe455 2.077 . S
O466 C478 1.381 . S
O467 Fe450 1.935 . S
O467 C478 1.421 . S
O468 Fe448 2.077 . S
O468 C456 1.381 . S
O469 Fe451 1.935 . S
O469 C456 1.421 . S
C470 O457 1.381 . S
C470 O458 1.421 . S
C471 O463 1.381 . S
C471 O464 1.421 . S
C472 O473 1.381 . S
C472 O474 1.421 . S
O473 Fe451 2.077 . S
O473 C472 1.381 . S
O474 Fe455 1.935 . S
O474 C472 1.421 . S
C475 O459 1.381 . S
C475 O460 1.421 . S
O476 Fe450 2.077 . S
O476 C479 1.381 . S
O477 Fe448 1.935 . S
O477 C479 1.421 . S
C478 O466 1.381 . S
C478 O467 1.421 . S
C479 O476 1.381 . S
C479 O477 1.421 . S
Fe480 O481 1.886 . S
Fe480 O484 1.715 . S
Fe480 O489 2.077 . S
Fe480 O494 1.935 . S
Fe480 O500 2.077 . S
Fe480 O509 1.935 . S
O481 Fe480 1.886 . S
O481 Fe483 1.715 . S
Fe482 O484 1.886 . S
Fe482 O485 1.715 . S
Fe482 O492 1.935 . S
Fe482 O493 2.077 . S
Fe482 O499 1.935 . S
Fe482 O508 2.077 . S
Fe483 O481 1.715 . S
Fe483 O486 1.886 . S
Fe483 O490 1.935 . S
Fe483 O495 2.077 . S
Fe483 O501 1.935 . S
Fe483 O505 2.077 . S
O484 Fe480 1.715 . S
O484 Fe482 1.886 . S
O485 Fe482 1.715 . S
O485 Fe487 1.886 . S
O486 Fe483 1.886 . S
O486 Fe487 1.715 . S
Fe487 O485 1.886 . S
Fe487 O486 1.715 . S
Fe487 O491 2.077 . S
Fe487 O496 1.935 . S
Fe487 O498 2.077 . S
Fe487 O506 1.935 . S
C488 O500 1.381 . S
C488 O501 1.421 . S
O489 Fe480 2.077 . S
O489 C502 1.381 . S
O490 Fe483 1.935 . S
O490 C502 1.421 . S
O491 Fe487 2.077 . S
O491 C507 1.381 . S
O492 Fe482 1.935 . S
O492 C507 1.421 . S
O493 Fe482 2.077 . S
O493 C497 1.381 . S
O494 Fe480 1.935 . S
O494 C497 1.421 . S
O495 Fe483 2.077 . S
O495 C503 1.381 . S
O496 Fe487 1.935 . S
O496 C503 1.421 . S
C497 O493 1.381 . S
C497 O494 1.421 . S
O498 Fe487 2.077 . S
O498 C510 1.381 . S
O499 Fe482 1.935 . S
O499 C510 1.421 . S
O500 Fe480 2.077 . S
O500 C488 1.381 . S
O501 Fe483 1.935 . S
O501 C488 1.421 . S
C502 O489 1.381 . S
C502 O490 1.421 . S
C503 O495 1.381 . S
C503 O496 1.421 . S
C504 O505 1.381 . S
C504 O506 1.421 . S
O505 Fe483 2.077 . S
O505 C504 1.381 . S
O506 Fe487 1.935 . S
O506 C504 1.421 . S
C507 O491 1.381 . S
C507 O492 1.421 . S
O508 Fe482 2.077 . S
O508 C511 1.381 . S
O509 Fe480 1.935 . S
O509 C511 1.421 . S
C510 O498 1.381 . S
C510 O499 1.421 . S
C511 O508 1.381 . S
C511 O509 1.421 . S
Fe512 O513 1.886 . S
Fe512 O516 1.715 . S
Fe512 O521 2.077 . S
Fe512 O526 1.935 . S
Fe512 O532 2.077 . S
Fe512 O541 1.935 . S
O513 Fe512 1.886 . S
O513 Fe515 1.715 . S
Fe514 O516 1.886 . S
Fe514 O517 1.715 . S
Fe514 O524 1.935 . S
Fe514 O525 2.077 . S
Fe514 O531 1.935 . S
Fe514 O540 2.077 . S
Fe515 O513 1.715 . S
Fe515 O518 1.886 . S
Fe515 O522 1.935 . S
Fe515 O527 2.077 . S
Fe515 O533 1.935 . S
Fe515 O537 2.077 . S
O516 Fe512 1.715 . S
O516 Fe514 1.886 . S
O517 Fe514 1.715 . S
O517 Fe519 1.886 . S
O518 Fe515 1.886 . S
O518 Fe519 1.715 . S
Fe519 O517 1.886 . S
Fe519 O518 1.715 . S
Fe519 O523 2.077 . S
Fe519 O528 1.935 . S
Fe519 O530 2.077 . S
Fe519 O538 1.935 . S
C520 O532 1.381 . S
C520 O533 1.421 . S
O521 Fe512 2.077 . S
O521 C534 1.381 . S
O522 Fe515 1.935 . S
O522 C534 1.421 . S
O523 Fe519 2.077 . S
O523 C539 1.381 . S
O524 Fe514 1.935 . S
O524 C539 1.421 . S
O525 Fe514 2.077 . S
O525 C529 1.381 . S
O526 Fe512 1.935 . S
O526 C529 1.421 . S
O527 Fe515 2.077 . S
O527 C535 1.381 . S
O528 Fe519 1.935 . S
O528 C535 1.421 . S
C529 O525 1.381 . S
C529 O526 1.421 . S
O530 Fe519 2.077 . S
O530 C542 1.381 . S
O531 Fe514 1.935 . S
O531 C542 1.421 . S
O532 Fe512 2.077 . S
O532 C520 1.381 . S
O533 Fe515 1.935 . S
O533 C520 1.421 . S
C534 O521 1.381 . S
C534 O522 1.421 . S
C535 O527 1.381 . S
C535 O528 1.421 . S
C536 O537 1.381 . S
C536 O538 1.421 . S
O537 Fe515 2.077 . S
O537 C536 1.381 . S
O538 Fe519 1.935 . S
O538 C536 1.421 . S
C539 O523 1.381 . S
C539 O524 1.421 . S
O540 Fe514 2.077 . S
O540 C543 1.381 . S
O541 Fe512 1.935 . S
O541 C543 1.421 . S
C542 O530 1.381 . S
C542 O531 1.421 . S
C543 O540 1.381 . S
C543 O541 1.421 . S
Fe544 O545 1.886 . S
Fe544 O548 1.715 . S
Fe544 O553 2.077 . S
Fe544 O558 1.935 . S
Fe544 O564 2.077 . S
Fe544 O573 1.935 . S
O545 Fe544 1.886 . S
O545 Fe547 1.715 . S
Fe546 O548 1.886 . S
Fe546 O549 1.715 . S
Fe546 O556 1.935 . S
Fe546 O557 2.077 . S
Fe546 O563 1.935 . S
Fe546 O572 2.077 . S
Fe547 O545 1.715 . S
Fe547 O550 1.886 . S
Fe547 O554 1.935 . S
Fe547 O559 2.077 . S
Fe547 O565 1.935 . S
Fe547 O569 2.077 . S
O548 Fe544 1.715 . S
O548 Fe546 1.886 . S
O549 Fe546 1.715 . S
O549 Fe551 1.886 . S
O550 Fe547 1.886 . S
O550 Fe551 1.715 . S
Fe551 O549 1.886 . S
Fe551 O550 1.715 . S
Fe551 O555 2.077 . S
Fe551 O560 1.935 . S
Fe551 O562 2.077 . S
Fe551 O570 1.935 . S
C552 O564 1.381 . S
C552 O565 1.421 . S
O553 Fe544 2.077 . S
O553 C566 1.381 . S
O554 Fe547 1.935 . S
O554 C566 1.421 . S
O555 Fe551 2.077 . S
O555 C571 1.381 . S
O556 Fe546 1.935 . S
O556 C571 1.421 . S
O557 Fe546 2.077 . S
O557 C561 1.381 . S
O558 Fe544 1.935 . S
O558 C561 1.421 . S
O559 Fe547 2.077 . S
O559 C567 1.381 . S
O560 Fe551 1.935 . S
O560 C567 1.421 . S
C561 O557 1.381 . S
C561 O558 1.421 . S
O562 Fe551 2.077 . S
O562 C574 1.381 . S
O563 Fe546 1.935 . S
O563 C574 1.421 . S
O564 Fe544 2.077 . S
O564 C552 1.381 . S
O565 Fe547 1.935 . S
O565 C552 1.421 . S
C566 O553 1.381 . S
C566 O554 1.421 . S
C567 O559 1.381 . S
C567 O560 1.421 . S
C568 O569 1.381 . S
C568 O570 1.421 . S
O569 Fe547 2.077 . S
O569 C568 1.381 . S
O570 Fe551 1.935 . S
O570 C568 1.421 . S
C571 O555 1.381 . S
C571 O556 1.421 . S
O572 Fe546 2.077 . S
O572 C575 1.381 . S
O573 Fe544 1.935 . S
O573 C575 1.421 . S
C574 O562 1.381 . S
C574 O563 1.421 . S
C575 O572 1.381 . S
C575 O573 1.421 . S
Fe576 O577 1.886 . S
Fe576 O580 1.715 . S
Fe576 O585 2.077 . S
Fe576 O590 1.935 . S
Fe576 O596 2.077 . S
Fe576 O605 1.935 . S
O577 Fe576 1.886 . S
O577 Fe579 1.715 . S
Fe578 O580 1.886 . S
Fe578 O581 1.715 . S
Fe578 O588 1.935 . S
Fe578 O589 2.077 . S
Fe578 O595 1.935 . S
Fe578 O604 2.077 . S
Fe579 O577 1.715 . S
Fe579 O582 1.886 . S
Fe579 O586 1.935 . S
Fe579 O591 2.077 . S
Fe579 O597 1.935 . S
Fe579 O601 2.077 . S
O580 Fe576 1.715 . S
O580 Fe578 1.886 . S
O581 Fe578 1.715 . S
O581 Fe583 1.886 . S
O582 Fe579 1.886 . S
O582 Fe583 1.715 . S
Fe583 O581 1.886 . S
Fe583 O582 1.715 . S
Fe583 O587 2.077 . S
Fe583 O592 1.935 . S
Fe583 O594 2.077 . S
Fe583 O602 1.935 . S
C584 O596 1.381 . S
C584 O597 1.421 . S
O585 Fe576 2.077 . S
O585 C598 1.381 . S
O586 Fe579 1.935 . S
O586 C598 1.421 . S
O587 Fe583 2.077 . S
O587 C603 1.381 . S
O588 Fe578 1.935 . S
O588 C603 1.421 . S
O589 Fe578 2.077 . S
O589 C593 1.381 . S
O590 Fe576 1.935 . S
O590 C593 1.421 . S
O591 Fe579 2.077 . S
O591 C599 1.381 . S
O592 Fe583 1.935 . S
O592 C599 1.421 . S
C593 O589 1.381 . S
C593 O590 1.421 . S
O594 Fe583 2.077 . S
O594 C606 1.381 . S
O595 Fe578 1.935 . S
O595 C606 1.421 . S
O596 Fe576 2.077 . S
O596 C584 1.381 . S
O597 Fe579 1.935 . S
O597 C584 1.421 . S
C598 O585 1.381 . S
C598 O586 1.421 . S
C599 O591 1.381 . S
C599 O592 1.421 . S
C600 O601 1.381 . S
C600 O602 1.421 . S
O601 Fe579 2.077 . S
O601 C600 1.381 . S
O602 Fe583 1.935 . S
O602 C600 1.421 . S
C603 O587 1.381 . S
C603 O588 1.421 . S
O604 Fe578 2.077 . S
O604 C607 1.381 . S
O605 Fe576 1.935 . S
O605 C607 1.421 . S
C606 O594 1.381 . S
C606 O595 1.421 . S
C607 O604 1.381 . S
C607 O605 1.421 . S
Fe608 O609 1.886 . S
Fe608 O612 1.715 . S
Fe608 O617 2.077 . S
Fe608 O622 1.935 . S
Fe608 O628 2.077 . S
Fe608 O637 1.935 . S
O609 Fe608 1.886 . S
O609 Fe611 1.715 . S
Fe610 O612 1.886 . S
Fe610 O613 1.715 . S
Fe610 O620 1.935 . S
Fe610 O621 2.077 . S
Fe610 O627 1.935 . S
Fe610 O636 2.077 . S
Fe611 O609 1.715 . S
Fe611 O614 1.886 . S
Fe611 O618 1.935 . S
Fe611 O623 2.077 . S
Fe611 O629 1.935 . S
Fe611 O633 2.077 . S
O612 Fe608 1.715 . S
O612 Fe610 1.886 . S
O613 Fe610 1.715 . S
O613 Fe615 1.886 . S
O614 Fe611 1.886 . S
O614 Fe615 1.715 . S
Fe615 O613 1.886 . S
Fe615 O614 1.715 . S
Fe615 O619 2.077 . S
Fe615 O624 1.935 . S
Fe615 O626 2.077 . S
Fe615 O634 1.935 . S
C616 O628 1.381 . S
C616 O629 1.421 . S
O617 Fe608 2.077 . S
O617 C630 1.381 . S
O618 Fe611 1.935 . S
O618 C630 1.421 . S
O619 Fe615 2.077 . S
O619 C635 1.381 . S
O620 Fe610 1.935 . S
O620 C635 1.421 . S
O621 Fe610 2.077 . S
O621 C625 1.381 . S
O622 Fe608 1.935 . S
O622 C625 1.421 . S
O623 Fe611 2.077 . S
O623 C631 1.381 . S
O624 Fe615 1.935 . S
O624 C631 1.421 . S
C625 O621 1.381 . S
C625 O622 1.421 . S
O626 Fe615 2.077 . S
O626 C638 1.381 . S
O627 Fe610 1.935 . S
O627 C638 1.421 . S
O628 Fe608 2.077 . S
O628 C616 1.381 . S
O629 Fe611 1.935 . S
O629 C616 1.421 . S
C630 O617 1.381 . S
C630 O618 1.421 . S
C631 O623 1.381 . S
C631 O624 1.421 . S
C632 O633 1.381 . S
C632 O634 1.421 . S
O633 Fe611 2.077 . S
O633 C632 1.381 . S
O634 Fe615 1.935 . S
O634 C632 1.421 . S
C635 O619 1.381 . S
C635 O620 1.421 . S
O636 Fe610 2.077 . S
O636 C639 1.381 . S
O637 Fe608 1.935 . S
O637 C639 1.421 . S
C638 O626 1.381 . S
C638 O627 1.421 . S
C639 O636 1.381 . S
C639 O637 1.421 . S
Fe640 O641 1.886 . S
Fe640 O644 1.715 . S
Fe640 O649 2.077 . S
Fe640 O654 1.935 . S
Fe640 O660 2.077 . S
Fe640 O669 1.935 . S
O641 Fe640 1.886 . S
O641 Fe643 1.715 . S
Fe642 O644 1.886 . S
Fe642 O645 1.715 . S
Fe642 O652 1.935 . S
Fe642 O653 2.077 . S
Fe642 O659 1.935 . S
Fe642 O668 2.077 . S
Fe643 O641 1.715 . S
Fe643 O646 1.886 . S
Fe643 O650 1.935 . S
Fe643 O655 2.077 . S
Fe643 O661 1.935 . S
Fe643 O665 2.077 . S
O644 Fe640 1.715 . S
O644 Fe642 1.886 . S
O645 Fe642 1.715 . S
O645 Fe647 1.886 . S
O646 Fe643 1.886 . S
O646 Fe647 1.715 . S
Fe647 O645 1.886 . S
Fe647 O646 1.715 . S
Fe647 O651 2.077 . S
Fe647 O656 1.935 . S
Fe647 O658 2.077 . S
Fe647 O666 1.935 . S
C648 O660 1.381 . S
C648 O661 1.421 . S
O649 Fe640 2.077 . S
O649 C662 1.381 . S
O650 Fe643 1.935 . S
O650 C662 1.421 . S
O651 Fe647 2.077 . S
O651 C667 1.381 . S
O652 Fe642 1.935 . S
O652 C667 1.421 . S
O653 Fe642 2.077 . S
O653 C657 1.381 . S
O654 Fe640 1.935 . S
O654 C657 1.421 . S
O655 Fe643 2.077 . S
O655 C663 1.381 . S
O656 Fe647 1.935 . S
O656 C663 1.421 . S
C657 O653 1.381 . S
C657 O654 1.421 . S
O658 Fe647 2.077 . S
O658 C670 1.381 . S
O659 Fe642 1.935 . S
O659 C670 1.421 . S
O660 Fe640 2.077 . S
O660 C648 1.381 . S
O661 Fe643 1.935 . S
O661 C648 1.421 . S
C662 O649 1.381 . S
C662 O650 1.421 . S
C663 O655 1.381 . S
C663 O656 1.421 . S
C664 O665 1.381 . S
C664 O666 1.421 . S
O665 Fe643 2.077 . S
O665 C664 1.381 . S
O666 Fe647 1.935 . S
O666 C664 1.421 . S
C667 O651 1.381 . S
C667 O652 1.421 . S
O668 Fe642 2.077 . S
O668 C671 1.381 . S
O669 Fe640 1.935 . S
O669 C671 1.421 . S
C670 O658 1.381 . S
C670 O659 1.421 . S
C671 O668 1.381 . S
C671 O669 1.421 . S
Fe672 O673 1.886 . S
Fe672 O676 1.715 . S
Fe672 O681 2.077 . S
Fe672 O686 1.935 . S
Fe672 O692 2.077 . S
Fe672 O701 1.935 . S
O673 Fe672 1.886 . S
O673 Fe675 1.715 . S
Fe674 O676 1.886 . S
Fe674 O677 1.715 . S
Fe674 O684 1.935 . S
Fe674 O685 2.077 . S
Fe674 O691 1.935 . S
Fe674 O700 2.077 . S
Fe675 O673 1.715 . S
Fe675 O678 1.886 . S
Fe675 O682 1.935 . S
Fe675 O687 2.077 . S
Fe675 O693 1.935 . S
Fe675 O697 2.077 . S
O676 Fe672 1.715 . S
O676 Fe674 1.886 . S
O677 Fe674 1.715 . S
O677 Fe679 1.886 . S
O678 Fe675 1.886 . S
O678 Fe679 1.715 . S
Fe679 O677 1.886 . S
Fe679 O678 1.715 . S
Fe679 O683 2.077 . S
Fe679 O688 1.935 . S
Fe679 O690 2.077 . S
Fe679 O698 1.935 . S
C680 O692 1.381 . S
C680 O693 1.421 . S
O681 Fe672 2.077 . S
O681 C694 1.381 . S
O682 Fe675 1.935 . S
O682 C694 1.421 . S
O683 Fe679 2.077 . S
O683 C699 1.381 . S
O684 Fe674 1.935 . S
O684 C699 1.421 . S
O685 Fe674 2.077 . S
O685 C689 1.381 . S
O686 Fe672 1.935 . S
O686 C689 1.421 . S
O687 Fe675 2.077 . S
O687 C695 1.381 . S
O688 Fe679 1.935 . S
O688 C695 1.421 . S
C689 O685 1.381 . S
C689 O686 1.421 . S
O690 Fe679 2.077 . S
O690 C702 1.381 . S
O691 Fe674 1.935 . S
O691 C702 1.421 . S
O692 Fe672 2.077 . S
O692 C680 1.381 . S
O693 Fe675 1.935 . S
O693 C680 1.421 . S
C694 O681 1.381 . S
C694 O682 1.421 . S
C695 O687 1.381 . S
C695 O688 1.421 . S
C696 O697 1.381 . S
C696 O698 1.421 . S
O697 Fe675 2.077 . S
O697 C696 1.381 . S
O698 Fe679 1.935 . S
O698 C696 1.421 . S
C699 O683 1.381 . S
C699 O684 1.421 . S
O700 Fe674 2.077 . S
O700 C703 1.381 . S
O701 Fe672 1.935 . S
O701 C703 1.421 . S
C702 O690 1.381 . S
C702 O691 1.421 . S
C703 O700 1.381 . S
C703 O701 1.421 . S
Fe704 O705 1.886 . S
Fe704 O708 1.715 . S
Fe704 O713 2.077 . S
Fe704 O718 1.935 . S
Fe704 O724 2.077 . S
Fe704 O733 1.935 . S
O705 Fe704 1.886 . S
O705 Fe707 1.715 . S
Fe706 O708 1.886 . S
Fe706 O709 1.715 . S
Fe706 O716 1.935 . S
Fe706 O717 2.077 . S
Fe706 O723 1.935 . S
Fe706 O732 2.077 . S
Fe707 O705 1.715 . S
Fe707 O710 1.886 . S
Fe707 O714 1.935 . S
Fe707 O719 2.077 . S
Fe707 O725 1.935 . S
Fe707 O729 2.077 . S
O708 Fe704 1.715 . S
O708 Fe706 1.886 . S
O709 Fe706 1.715 . S
O709 Fe711 1.886 . S
O710 Fe707 1.886 . S
O710 Fe711 1.715 . S
Fe711 O709 1.886 . S
Fe711 O710 1.715 . S
Fe711 O715 2.077 . S
Fe711 O720 1.935 . S
Fe711 O722 2.077 . S
Fe711 O730 1.935 . S
C712 O724 1.381 . S
C712 O725 1.421 . S
O713 Fe704 2.077 . S
O713 C726 1.381 . S
O714 Fe707 1.935 . S
O714 C726 1.421 . S
O715 Fe711 2.077 . S
O715 C731 1.381 . S
O716 Fe706 1.935 . S
O716 C731 1.421 . S
O717 Fe706 2.077 . S
O717 C721 1.381 . S
O718 Fe704 1.935 . S
O718 C721 1.421 . S
O719 Fe707 2.077 . S
O719 C727 1.381 . S
O720 Fe711 1.935 . S
O720 C727 1.421 . S
C721 O717 1.381 . S
C721 O718 1.421 . S
O722 Fe711 2.077 . S
O722 C734 1.381 . S
O723 Fe706 1.935 . S
O723 C734 1.421 . S
O724 Fe704 2.077 . S
O724 C712 1.381 . S
O725 Fe707 1.935 . S
O725 C712 1.421 . S
C726 O713 1.381 . S
C726 O714 1.421 . S
C727 O719 1.381 . S
C727 O720 1.421 . S
C728 O729 1.381 . S
C728 O730 1.421 . S
O729 Fe707 2.077 . S
O729 C728 1.381 . S
O730 Fe711 1.935 . S
O730 C728 1.421 . S
C731 O715 1.381 . S
C731 O716 1.421 . S
O732 Fe706 2.077 . S
O732 C735 1.381 . S
O733 Fe704 1.935 . S
O733 C735 1.421 . S
C734 O722 1.381 . S
C734 O723 1.421 . S
C735 O732 1.381 . S
C735 O733 1.421 . S
Fe736 O737 1.886 . S
Fe736 O740 1.715 . S
Fe736 O745 2.077 . S
Fe736 O750 1.935 . S
Fe736 O756 2.077 . S
Fe736 O765 1.935 . S
O737 Fe736 1.886 . S
O737 Fe739 1.715 . S
Fe738 O740 1.886 . S
Fe738 O741 1.715 . S
Fe738 O748 1.935 . S
Fe738 O749 2.077 . S
Fe738 O755 1.935 . S
Fe738 O764 2.077 . S
Fe739 O737 1.715 . S
Fe739 O742 1.886 . S
Fe739 O746 1.935 . S
Fe739 O751 2.077 . S
Fe739 O757 1.935 . S
Fe739 O761 2.077 . S
O740 Fe736 1.715 . S
O740 Fe738 1.886 . S
O741 Fe738 1.715 . S
O741 Fe743 1.886 . S
O742 Fe739 1.886 . S
O742 Fe743 1.715 . S
Fe743 O741 1.886 . S
Fe743 O742 1.715 . S
Fe743 O747 2.077 . S
Fe743 O752 1.935 . S
Fe743 O754 2.077 . S
Fe743 O762 1.935 . S
C744 O756 1.381 . S
C744 O757 1.421 . S
O745 Fe736 2.077 . S
O745 C758 1.381 . S
O746 Fe739 1.935 . S
O746 C758 1.421 . S
O747 Fe743 2.077 . S
O747 C763 1.381 . S
O748 Fe738 1.935 . S
O748 C763 1.421 . S
O749 Fe738 2.077 . S
O749 C753 1.381 . S
O750 Fe736 1.935 . S
O750 C753 1.421 . S
O751 Fe739 2.077 . S
O751 C759 1.381 . S
O752 Fe743 1.935 . S
O752 C759 1.421 . S
C753 O749 1.381 . S
C753 O750 1.421 . S
O754 Fe743 2.077 . S
O754 C766 1.381 . S
O755 Fe738 1.935 . S
O755 C766 1.421 . S
O756 Fe736 2.077 . S
O756 C744 1.381 . S
O757 Fe739 1.935 . S
O757 C744 1.421 . S
C758 O745 1.381 . S
C758 O746 1.421 . S
C759 O751 1.381 . S
C759 O752 1.421 . S
C760 O761 1.381 . S
C760 O762 1.421 . S
O761 Fe739 2.077 . S
O761 C760 1.381 . S
O762 Fe743 1.935 . S
O762 C760 1.421 . S
C763 O747 1.381 . S
C763 O748 1.421 . S
O764 Fe738 2.077 . S
O764 C767 1.381 . S
O765 Fe736 1.935 . S
O765 C767 1.421 . S
C766 O754 1.381 . S
C766 O755 1.421 . S
C767 O764 1.381 . S
C767 O765 1.421 . S
H768 C776 0.950 . S
H769 C781 0.950 . S
H770 C778 0.950 . S
H771 C780 0.950 . S
H772 C782 0.950 . S
H773 C784 0.950 . S
H774 C786 0.950 . S
H775 C787 0.950 . S
C776 H768 0.950 . S
C776 C777 1.386 . S
C776 C778 1.391 . S
C777 C776 1.386 . S
C777 C781 1.393 . S
C778 H770 0.950 . S
C778 C776 1.391 . S
C778 C779 1.400 . S
C779 C778 1.400 . S
C779 C780 1.398 . S
C779 C785 1.491 . S
C780 H771 0.950 . S
C780 C779 1.398 . S
C780 C781 1.391 . S
C781 H769 0.950 . S
C781 C777 1.393 . S
C781 C780 1.391 . S
C782 H772 0.950 . S
C782 C783 1.386 . S
C782 C784 1.391 . S
C783 C782 1.386 . S
C783 C787 1.393 . S
C784 H773 0.950 . S
C784 C782 1.391 . S
C784 C785 1.400 . S
C785 C779 1.491 . S
C785 C784 1.400 . S
C785 C786 1.398 . S
C786 H774 0.950 . S
C786 C785 1.398 . S
C786 C787 1.391 . S
C787 H775 0.950 . S
C787 C783 1.393 . S
C787 C786 1.391 . S
H788 C796 0.950 . S
H789 C801 0.950 . S
H790 C798 0.950 . S
H791 C800 0.950 . S
H792 C802 0.950 . S
H793 C804 0.950 . S
H794 C806 0.950 . S
H795 C807 0.950 . S
C796 H788 0.950 . S
C796 C797 1.386 . S
C796 C798 1.391 . S
C797 C796 1.386 . S
C797 C801 1.393 . S
C798 H790 0.950 . S
C798 C796 1.391 . S
C798 C799 1.400 . S
C799 C798 1.400 . S
C799 C800 1.398 . S
C799 C805 1.491 . S
C800 H791 0.950 . S
C800 C799 1.398 . S
C800 C801 1.391 . S
C801 H789 0.950 . S
C801 C797 1.393 . S
C801 C800 1.391 . S
C802 H792 0.950 . S
C802 C803 1.386 . S
C802 C804 1.391 . S
C803 C802 1.386 . S
C803 C807 1.393 . S
C804 H793 0.950 . S
C804 C802 1.391 . S
C804 C805 1.400 . S
C805 C799 1.491 . S
C805 C804 1.400 . S
C805 C806 1.398 . S
C806 H794 0.950 . S
C806 C805 1.398 . S
C806 C807 1.391 . S
C807 H795 0.950 . S
C807 C803 1.393 . S
C807 C806 1.391 . S
H808 C816 0.950 . S
H809 C821 0.950 . S
H810 C818 0.950 . S
H811 C820 0.950 . S
H812 C822 0.950 . S
H813 C824 0.950 . S
H814 C826 0.950 . S
H815 C827 0.950 . S
C816 H808 0.950 . S
C816 C817 1.386 . S
C816 C818 1.391 1_565 S
C817 C816 1.386 . S
C817 C821 1.393 . S
C818 H810 0.950 . S
C818 C816 1.391 1_545 S
C818 C819 1.400 . S
C819 C818 1.400 . S
C819 C820 1.398 . S
C819 C825 1.491 . S
C820 H811 0.950 . S
C820 C819 1.398 . S
C820 C821 1.391 1_545 S
C821 H809 0.950 . S
C821 C817 1.393 . S
C821 C820 1.391 1_565 S
C822 H812 0.950 . S
C822 C823 1.386 . S
C822 C824 1.391 . S
C823 C822 1.386 . S
C823 C827 1.393 . S
C824 H813 0.950 . S
C824 C822 1.391 . S
C824 C825 1.400 . S
C825 C819 1.491 . S
C825 C824 1.400 . S
C825 C826 1.398 . S
C826 H814 0.950 . S
C826 C825 1.398 . S
C826 C827 1.391 . S
C827 H815 0.950 . S
C827 C823 1.393 . S
C827 C826 1.391 . S
H828 C836 0.950 . S
H829 C841 0.950 . S
H830 C838 0.950 . S
H831 C840 0.950 . S
H832 C842 0.950 . S
H833 C844 0.950 . S
H834 C846 0.950 1_565 S
H835 C847 0.950 . S
C836 H828 0.950 . S
C836 C837 1.386 . S
C836 C838 1.391 . S
C837 C836 1.386 . S
C837 C841 1.393 . S
C838 H830 0.950 . S
C838 C836 1.391 . S
C838 C839 1.400 . S
C839 C838 1.400 . S
C839 C840 1.398 . S
C839 C845 1.491 . S
C840 H831 0.950 . S
C840 C839 1.398 . S
C840 C841 1.391 . S
C841 H829 0.950 . S
C841 C837 1.393 . S
C841 C840 1.391 . S
C842 H832 0.950 . S
C842 C843 1.386 . S
C842 C844 1.391 1_545 S
C843 C842 1.386 . S
C843 C847 1.393 . S
C844 H833 0.950 . S
C844 C842 1.391 1_565 S
C844 C845 1.400 . S
C845 C839 1.491 . S
C845 C844 1.400 . S
C845 C846 1.400 1_565 S
C846 H834 0.950 1_545 S
C846 C845 1.400 1_545 S
C846 C847 1.388 . S
C847 H835 0.950 . S
C847 C843 1.393 . S
C847 C846 1.388 . S
H848 C856 0.950 . S
H849 C861 0.950 . S
H850 C858 0.950 . S
H851 C860 0.950 . S
H852 C862 0.950 . S
H853 C864 0.950 . S
H854 C866 0.950 . S
H855 C867 0.950 . S
C856 H848 0.950 . S
C856 C857 1.386 . S
C856 C858 1.391 . S
C857 C856 1.386 . S
C857 C861 1.393 . S
C858 H850 0.950 . S
C858 C856 1.391 . S
C858 C859 1.400 . S
C859 C858 1.400 . S
C859 C860 1.398 . S
C859 C865 1.491 . S
C860 H851 0.950 . S
C860 C859 1.398 . S
C860 C861 1.391 . S
C861 H849 0.950 . S
C861 C857 1.393 . S
C861 C860 1.391 . S
C862 H852 0.950 . S
C862 C863 1.386 . S
C862 C864 1.391 . S
C863 C862 1.386 . S
C863 C867 1.393 . S
C864 H853 0.950 . S
C864 C862 1.391 . S
C864 C865 1.400 . S
C865 C859 1.491 . S
C865 C864 1.400 . S
C865 C866 1.398 . S
C866 H854 0.950 . S
C866 C865 1.398 . S
C866 C867 1.391 . S
C867 H855 0.950 . S
C867 C863 1.393 . S
C867 C866 1.391 . S
H868 C876 0.950 . S
H869 C881 0.950 . S
H870 C878 0.948 1_556 S
H871 C880 0.950 . S
H872 C882 0.950 . S
H873 C884 0.950 . S
H874 C886 0.950 . S
H875 C887 0.950 . S
C876 H868 0.950 . S
C876 C877 1.386 . S
C876 C878 1.405 . S
C877 C876 1.386 . S
C877 C881 1.393 . S
C878 H870 0.948 1_554 S
C878 C876 1.405 . S
C878 C879 1.388 1_554 S
C879 C878 1.388 1_556 S
C879 C880 1.398 . S
C879 C885 1.491 . S
C880 H871 0.950 . S
C880 C879 1.398 . S
C880 C881 1.391 1_556 S
C881 H869 0.950 . S
C881 C877 1.393 . S
C881 C880 1.391 1_554 S
C882 H872 0.950 . S
C882 C883 1.386 . S
C882 C884 1.391 . S
C883 C882 1.386 . S
C883 C887 1.393 . S
C884 H873 0.950 . S
C884 C882 1.391 . S
C884 C885 1.400 . S
C885 C879 1.491 . S
C885 C884 1.400 . S
C885 C886 1.398 . S
C886 H874 0.950 . S
C886 C885 1.398 . S
C886 C887 1.391 . S
C887 H875 0.950 . S
C887 C883 1.393 . S
C887 C886 1.391 . S
H888 C896 0.950 . S
H889 C901 0.950 . S
H890 C898 0.950 . S
H891 C900 0.950 . S
H892 C902 0.950 . S
H893 C904 0.950 . S
H894 C906 0.950 . S
H895 C907 0.950 . S
C896 H888 0.950 . S
C896 C897 1.386 . S
C896 C898 1.391 . S
C897 C896 1.386 . S
C897 C901 1.393 . S
C898 H890 0.950 . S
C898 C896 1.391 . S
C898 C899 1.400 . S
C899 C898 1.400 . S
C899 C900 1.398 . S
C899 C905 1.491 . S
C900 H891 0.950 . S
C900 C899 1.398 . S
C900 C901 1.391 . S
C901 H889 0.950 . S
C901 C897 1.393 . S
C901 C900 1.391 . S
C902 H892 0.950 . S
C902 C903 1.386 . S
C902 C904 1.391 . S
C903 C902 1.386 . S
C903 C907 1.393 . S
C904 H893 0.950 . S
C904 C902 1.391 . S
C904 C905 1.400 . S
C905 C899 1.491 . S
C905 C904 1.400 . S
C905 C906 1.398 . S
C906 H894 0.950 . S
C906 C905 1.398 . S
C906 C907 1.391 . S
C907 H895 0.950 . S
C907 C903 1.393 . S
C907 C906 1.391 . S
H908 C916 0.950 . S
H909 C921 0.950 . S
H910 C918 0.950 . S
H911 C920 0.950 . S
H912 C922 0.950 . S
H913 C924 0.950 . S
H914 C926 0.950 . S
H915 C927 0.950 . S
C916 H908 0.950 . S
C916 C917 1.386 . S
C916 C918 1.391 1_556 S
C917 C916 1.386 . S
C917 C921 1.393 . S
C918 H910 0.950 . S
C918 C916 1.391 1_554 S
C918 C919 1.400 . S
C919 C918 1.400 . S
C919 C920 1.398 . S
C919 C925 1.491 . S
C920 H911 0.950 . S
C920 C919 1.398 . S
C920 C921 1.391 1_554 S
C921 H909 0.950 . S
C921 C917 1.393 . S
C921 C920 1.391 1_556 S
C922 H912 0.950 . S
C922 C923 1.386 . S
C922 C924 1.391 . S
C923 C922 1.386 . S
C923 C927 1.393 . S
C924 H913 0.950 . S
C924 C922 1.391 . S
C924 C925 1.400 . S
C925 C919 1.491 . S
C925 C924 1.400 . S
C925 C926 1.398 . S
C926 H914 0.950 . S
C926 C925 1.398 . S
C926 C927 1.391 . S
C927 H915 0.950 . S
C927 C923 1.393 . S
C927 C926 1.391 . S
H928 C936 0.950 . S
H929 C941 0.950 . S
H930 C938 0.950 . S
H931 C940 0.950 . S
H932 C942 0.950 . S
H933 C944 0.950 . S
H934 C946 0.950 . S
H935 C947 0.950 . S
C936 H928 0.950 . S
C936 C937 1.386 . S
C936 C938 1.391 . S
C937 C936 1.386 . S
C937 C941 1.393 . S
C938 H930 0.950 . S
C938 C936 1.391 . S
C938 C939 1.400 . S
C939 C938 1.400 . S
C939 C940 1.398 . S
C939 C945 1.491 . S
C940 H931 0.950 . S
C940 C939 1.398 . S
C940 C941 1.391 . S
C941 H929 0.950 . S
C941 C937 1.393 . S
C941 C940 1.391 . S
C942 H932 0.950 . S
C942 C943 1.386 . S
C942 C944 1.391 . S
C943 C942 1.386 . S
C943 C947 1.393 . S
C944 H933 0.950 . S
C944 C942 1.391 . S
C944 C945 1.400 . S
C945 C939 1.491 . S
C945 C944 1.400 . S
C945 C946 1.398 . S
C946 H934 0.950 . S
C946 C945 1.398 . S
C946 C947 1.391 . S
C947 H935 0.950 . S
C947 C943 1.393 . S
C947 C946 1.391 . S
H948 C956 0.950 . S
H949 C961 0.950 . S
H950 C958 0.950 . S
H951 C960 0.948 1_655 S
H952 C962 0.950 . S
H953 C964 0.950 . S
H954 C966 0.950 . S
H955 C967 0.950 . S
C956 H948 0.950 . S
C956 C957 1.386 . S
C956 C958 1.391 1_455 S
C957 C956 1.386 . S
C957 C961 1.393 . S
C958 H950 0.950 . S
C958 C956 1.391 1_655 S
C958 C959 1.400 . S
C959 C958 1.400 . S
C959 C960 1.384 1_655 S
C959 C965 1.491 . S
C960 H951 0.948 1_455 S
C960 C959 1.384 1_455 S
C960 C961 1.406 . S
C961 H949 0.950 . S
C961 C957 1.393 . S
C961 C960 1.406 . S
C962 H952 0.950 . S
C962 C963 1.386 . S
C962 C964 1.391 . S
C963 C962 1.386 . S
C963 C967 1.393 . S
C964 H953 0.950 . S
C964 C962 1.391 . S
C964 C965 1.400 . S
C965 C959 1.491 . S
C965 C964 1.400 . S
C965 C966 1.398 . S
C966 H954 0.950 . S
C966 C965 1.398 . S
C966 C967 1.391 . S
C967 H955 0.950 . S
C967 C963 1.393 . S
C967 C966 1.391 . S
H968 C976 0.950 . S
H969 C981 0.950 . S
H970 C978 0.950 . S
H971 C980 0.950 . S
H972 C982 0.950 . S
H973 C984 0.950 . S
H974 C986 0.950 . S
H975 C987 0.950 . S
C976 H968 0.950 . S
C976 C977 1.386 . S
C976 C978 1.391 . S
C977 C976 1.386 . S
C977 C981 1.393 . S
C978 H970 0.950 . S
C978 C976 1.391 . S
C978 C979 1.400 . S
C979 C978 1.400 . S
C979 C980 1.398 . S
C979 C985 1.491 . S
C980 H971 0.950 . S
C980 C979 1.398 . S
C980 C981 1.391 . S
C981 H969 0.950 . S
C981 C977 1.393 . S
C981 C980 1.391 . S
C982 H972 0.950 . S
C982 C983 1.386 . S
C982 C984 1.391 . S
C983 C982 1.386 . S
C983 C987 1.393 . S
C984 H973 0.950 . S
C984 C982 1.391 . S
C984 C985 1.400 . S
C985 C979 1.491 . S
C985 C984 1.400 . S
C985 C986 1.398 . S
C986 H974 0.950 . S
C986 C985 1.398 . S
C986 C987 1.391 . S
C987 H975 0.950 . S
C987 C983 1.393 . S
C987 C986 1.391 . S
H988 C996 0.950 . S
H989 C1001 0.950 . S
H990 C998 0.950 . S
H991 C1000 0.950 . S
H992 C1002 0.950 . S
H993 C1004 0.950 . S
H994 C1006 0.950 . S
H995 C1007 0.950 . S
C996 H988 0.950 . S
C996 C997 1.386 . S
C996 C998 1.391 1_655 S
C997 C996 1.386 . S
C997 C1001 1.393 . S
C998 H990 0.950 . S
C998 C996 1.391 1_455 S
C998 C999 1.400 . S
C999 C998 1.400 . S
C999 C1000 1.398 . S
C999 C1005 1.491 . S
C1000 H991 0.950 . S
C1000 C999 1.398 . S
C1000 C1001 1.391 1_455 S
C1001 H989 0.950 . S
C1001 C997 1.393 . S
C1001 C1000 1.391 1_655 S
C1002 H992 0.950 . S
C1002 C1003 1.386 . S
C1002 C1004 1.391 . S
C1003 C1002 1.386 . S
C1003 C1007 1.393 . S
C1004 H993 0.950 . S
C1004 C1002 1.391 . S
C1004 C1005 1.400 . S
C1005 C999 1.491 . S
C1005 C1004 1.400 . S
C1005 C1006 1.398 . S
C1006 H994 0.950 . S
C1006 C1005 1.398 . S
C1006 C1007 1.391 . S
C1007 H995 0.950 . S
C1007 C1003 1.393 . S
C1007 C1006 1.391 . S
H1008 C1016 0.950 . S
H1009 C1021 0.950 . S
H1010 C1018 0.950 . S
H1011 C1020 0.950 . S
H1012 C1022 0.950 . S
H1013 C1024 0.950 . S
H1014 C1026 0.950 . S
H1015 C1027 0.950 . S
C1016 H1008 0.950 . S
C1016 C1017 1.386 . S
C1016 C1018 1.391 . S
C1017 C1016 1.386 . S
C1017 C1021 1.393 . S
C1018 H1010 0.950 . S
C1018 C1016 1.391 . S
C1018 C1019 1.400 . S
C1019 C1018 1.400 . S
C1019 C1020 1.398 . S
C1019 C1025 1.491 . S
C1020 H1011 0.950 . S
C1020 C1019 1.398 . S
C1020 C1021 1.391 . S
C1021 H1009 0.950 . S
C1021 C1017 1.393 . S
C1021 C1020 1.391 . S
C1022 H1012 0.950 . S
C1022 C1023 1.386 . S
C1022 C1024 1.391 . S
C1023 C1022 1.386 . S
C1023 C1027 1.393 . S
C1024 H1013 0.950 . S
C1024 C1022 1.391 . S
C1024 C1025 1.400 . S
C1025 C1019 1.491 . S
C1025 C1024 1.400 . S
C1025 C1026 1.398 . S
C1026 H1014 0.950 . S
C1026 C1025 1.398 . S
C1026 C1027 1.391 . S
C1027 H1015 0.950 . S
C1027 C1023 1.393 . S
C1027 C1026 1.391 . S
H1028 C1036 0.950 . S
H1029 C1041 0.950 . S
H1030 C1038 0.950 . S
H1031 C1040 0.950 . S
H1032 C1042 0.950 . S
H1033 C1044 0.950 . S
H1034 C1046 0.950 . S
H1035 C1047 0.950 . S
C1036 H1028 0.950 . S
C1036 C1037 1.386 . S
C1036 C1038 1.391 . S
C1037 C1036 1.386 . S
C1037 C1041 1.393 . S
C1038 H1030 0.950 . S
C1038 C1036 1.391 . S
C1038 C1039 1.400 . S
C1039 C1038 1.400 . S
C1039 C1040 1.398 . S
C1039 C1045 1.491 . S
C1040 H1031 0.950 . S
C1040 C1039 1.398 . S
C1040 C1041 1.391 . S
C1041 H1029 0.950 . S
C1041 C1037 1.393 . S
C1041 C1040 1.391 . S
C1042 H1032 0.950 . S
C1042 C1043 1.386 . S
C1042 C1044 1.391 . S
C1043 C1042 1.386 . S
C1043 C1047 1.393 . S
C1044 H1033 0.950 . S
C1044 C1042 1.391 . S
C1044 C1045 1.400 . S
C1045 C1039 1.491 . S
C1045 C1044 1.400 . S
C1045 C1046 1.398 . S
C1046 H1034 0.950 . S
C1046 C1045 1.398 . S
C1046 C1047 1.391 . S
C1047 H1035 0.950 . S
C1047 C1043 1.393 . S
C1047 C1046 1.391 . S
H1048 C1056 0.950 . S
H1049 C1061 0.950 . S
H1050 C1058 0.948 1_565 S
H1051 C1060 0.950 . S
H1052 C1062 0.950 . S
H1053 C1064 0.950 . S
H1054 C1066 0.950 . S
H1055 C1067 0.950 . S
C1056 H1048 0.950 . S
C1056 C1057 1.386 . S
C1056 C1058 1.417 . S
C1057 C1056 1.386 . S
C1057 C1061 1.393 . S
C1058 H1050 0.948 1_545 S
C1058 C1056 1.417 . S
C1058 C1059 1.377 1_545 S
C1059 C1058 1.377 1_565 S
C1059 C1060 1.398 . S
C1059 C1065 1.491 . S
C1060 H1051 0.950 . S
C1060 C1059 1.398 . S
C1060 C1061 1.391 1_565 S
C1061 H1049 0.950 . S
C1061 C1057 1.393 . S
C1061 C1060 1.391 1_545 S
C1062 H1052 0.950 . S
C1062 C1063 1.386 . S
C1062 C1064 1.391 . S
C1063 C1062 1.386 . S
C1063 C1067 1.393 . S
C1064 H1053 0.950 . S
C1064 C1062 1.391 . S
C1064 C1065 1.400 . S
C1065 C1059 1.491 . S
C1065 C1064 1.400 . S
C1065 C1066 1.398 . S
C1066 H1054 0.950 . S
C1066 C1065 1.398 . S
C1066 C1067 1.391 . S
C1067 H1055 0.950 . S
C1067 C1063 1.393 . S
C1067 C1066 1.391 . S
H1068 C1076 0.950 . S
H1069 C1081 0.950 . S
H1070 C1078 0.950 . S
H1071 C1080 0.950 . S
H1072 C1082 0.950 . S
H1073 C1084 0.950 . S
H1074 C1086 0.950 . S
H1075 C1087 0.950 . S
C1076 H1068 0.950 . S
C1076 C1077 1.386 . S
C1076 C1078 1.391 . S
C1077 C1076 1.386 . S
C1077 C1081 1.393 . S
C1078 H1070 0.950 . S
C1078 C1076 1.391 . S
C1078 C1079 1.400 . S
C1079 C1078 1.400 . S
C1079 C1080 1.398 . S
C1079 C1085 1.491 . S
C1080 H1071 0.950 . S
C1080 C1079 1.398 . S
C1080 C1081 1.391 . S
C1081 H1069 0.950 . S
C1081 C1077 1.393 . S
C1081 C1080 1.391 . S
C1082 H1072 0.950 . S
C1082 C1083 1.386 . S
C1082 C1084 1.391 1_565 S
C1083 C1082 1.386 . S
C1083 C1087 1.393 . S
C1084 H1073 0.950 . S
C1084 C1082 1.391 1_545 S
C1084 C1085 1.400 . S
C1085 C1079 1.491 . S
C1085 C1084 1.400 . S
C1085 C1086 1.398 . S
C1086 H1074 0.950 . S
C1086 C1085 1.398 . S
C1086 C1087 1.391 1_545 S
C1087 H1075 0.950 . S
C1087 C1083 1.393 . S
C1087 C1086 1.391 1_565 S
H1088 C1096 0.950 . S
H1089 C1101 0.950 . S
H1090 C1098 0.950 . S
H1091 C1100 0.950 . S
H1092 C1102 0.950 . S
H1093 C1104 0.950 . S
H1094 C1106 0.950 . S
H1095 C1107 0.950 . S
C1096 H1088 0.950 . S
C1096 C1097 1.386 . S
C1096 C1098 1.391 . S
C1097 C1096 1.386 . S
C1097 C1101 1.393 . S
C1098 H1090 0.950 . S
C1098 C1096 1.391 . S
C1098 C1099 1.400 . S
C1099 C1098 1.400 . S
C1099 C1100 1.398 . S
C1099 C1105 1.491 . S
C1100 H1091 0.950 . S
C1100 C1099 1.398 . S
C1100 C1101 1.391 . S
C1101 H1089 0.950 . S
C1101 C1097 1.393 . S
C1101 C1100 1.391 . S
C1102 H1092 0.950 . S
C1102 C1103 1.386 . S
C1102 C1104 1.391 . S
C1103 C1102 1.386 . S
C1103 C1107 1.393 . S
C1104 H1093 0.950 . S
C1104 C1102 1.391 . S
C1104 C1105 1.400 . S
C1105 C1099 1.491 . S
C1105 C1104 1.400 . S
C1105 C1106 1.398 . S
C1106 H1094 0.950 . S
C1106 C1105 1.398 . S
C1106 C1107 1.391 . S
C1107 H1095 0.950 . S
C1107 C1103 1.393 . S
C1107 C1106 1.391 . S
H1108 C1116 0.950 . S
H1109 C1121 0.950 . S
H1110 C1118 0.950 . S
H1111 C1120 0.950 . S
H1112 C1122 0.950 . S
H1113 C1124 0.951 . S
H1114 C1126 0.950 . S
H1115 C1127 0.950 . S
C1116 H1108 0.950 . S
C1116 C1117 1.386 . S
C1116 C1118 1.391 . S
C1117 C1116 1.386 . S
C1117 C1121 1.393 . S
C1118 H1110 0.950 . S
C1118 C1116 1.391 . S
C1118 C1119 1.400 . S
C1119 C1118 1.400 . S
C1119 C1120 1.398 . S
C1119 C1125 1.491 . S
C1120 H1111 0.950 . S
C1120 C1119 1.398 . S
C1120 C1121 1.391 . S
C1121 H1109 0.950 . S
C1121 C1117 1.393 . S
C1121 C1120 1.391 . S
C1122 H1112 0.950 . S
C1122 C1123 1.386 . S
C1122 C1124 1.383 1_556 S
C1123 C1122 1.386 . S
C1123 C1127 1.393 . S
C1124 H1113 0.951 . S
C1124 C1122 1.383 1_554 S
C1124 C1125 1.408 . S
C1125 C1119 1.491 . S
C1125 C1124 1.408 . S
C1125 C1126 1.398 . S
C1126 H1114 0.950 . S
C1126 C1125 1.398 . S
C1126 C1127 1.391 1_554 S
C1127 H1115 0.950 . S
C1127 C1123 1.393 . S
C1127 C1126 1.391 1_556 S
H1128 C1136 0.950 . S
H1129 C1141 0.950 . S
H1130 C1138 0.950 . S
H1131 C1140 0.950 . S
H1132 C1142 0.950 . S
H1133 C1144 0.950 . S
H1134 C1146 0.950 . S
H1135 C1147 0.950 . S
C1136 H1128 0.950 . S
C1136 C1137 1.386 . S
C1136 C1138 1.391 . S
C1137 C1136 1.386 . S
C1137 C1141 1.393 . S
C1138 H1130 0.950 . S
C1138 C1136 1.391 . S
C1138 C1139 1.400 . S
C1139 C1138 1.400 . S
C1139 C1140 1.398 . S
C1139 C1145 1.491 . S
C1140 H1131 0.950 . S
C1140 C1139 1.398 . S
C1140 C1141 1.391 . S
C1141 H1129 0.950 . S
C1141 C1137 1.393 . S
C1141 C1140 1.391 . S
C1142 H1132 0.950 . S
C1142 C1143 1.386 . S
C1142 C1144 1.391 . S
C1143 C1142 1.386 . S
C1143 C1147 1.393 . S
C1144 H1133 0.950 . S
C1144 C1142 1.391 . S
C1144 C1145 1.400 . S
C1145 C1139 1.491 . S
C1145 C1144 1.400 . S
C1145 C1146 1.398 . S
C1146 H1134 0.950 . S
C1146 C1145 1.398 . S
C1146 C1147 1.391 . S
C1147 H1135 0.950 . S
C1147 C1143 1.393 . S
C1147 C1146 1.391 . S
H1148 C1156 0.950 . S
H1149 C1161 0.950 . S
H1150 C1158 0.950 . S
H1151 C1160 0.950 . S
H1152 C1162 0.950 . S
H1153 C1164 0.950 . S
H1154 C1166 0.950 . S
H1155 C1167 0.950 . S
C1156 H1148 0.950 . S
C1156 C1157 1.386 . S
C1156 C1158 1.391 1_554 S
C1157 C1156 1.386 . S
C1157 C1161 1.393 . S
C1158 H1150 0.950 . S
C1158 C1156 1.391 1_556 S
C1158 C1159 1.400 . S
C1159 C1158 1.400 . S
C1159 C1160 1.398 . S
C1159 C1165 1.491 . S
C1160 H1151 0.950 . S
C1160 C1159 1.398 . S
C1160 C1161 1.391 1_556 S
C1161 H1149 0.950 . S
C1161 C1157 1.393 . S
C1161 C1160 1.391 1_554 S
C1162 H1152 0.950 . S
C1162 C1163 1.386 . S
C1162 C1164 1.391 . S
C1163 C1162 1.386 . S
C1163 C1167 1.393 . S
C1164 H1153 0.950 . S
C1164 C1162 1.391 . S
C1164 C1165 1.400 . S
C1165 C1159 1.491 . S
C1165 C1164 1.400 . S
C1165 C1166 1.398 . S
C1166 H1154 0.950 . S
C1166 C1165 1.398 . S
C1166 C1167 1.391 . S
C1167 H1155 0.950 . S
C1167 C1163 1.393 . S
C1167 C1166 1.391 . S
H1168 C1176 0.950 . S
H1169 C1181 0.950 . S
H1170 C1178 0.950 . S
H1171 C1180 0.950 . S
H1172 C1182 0.950 . S
H1173 C1184 0.950 . S
H1174 C1186 0.950 . S
H1175 C1187 0.950 . S
C1176 H1168 0.950 . S
C1176 C1177 1.386 . S
C1176 C1178 1.391 . S
C1177 C1176 1.386 . S
C1177 C1181 1.393 . S
C1178 H1170 0.950 . S
C1178 C1176 1.391 . S
C1178 C1179 1.400 . S
C1179 C1178 1.400 . S
C1179 C1180 1.398 . S
C1179 C1185 1.491 . S
C1180 H1171 0.950 . S
C1180 C1179 1.398 . S
C1180 C1181 1.391 . S
C1181 H1169 0.950 . S
C1181 C1177 1.393 . S
C1181 C1180 1.391 . S
C1182 H1172 0.950 . S
C1182 C1183 1.386 . S
C1182 C1184 1.391 . S
C1183 C1182 1.386 . S
C1183 C1187 1.393 . S
C1184 H1173 0.950 . S
C1184 C1182 1.391 . S
C1184 C1185 1.400 . S
C1185 C1179 1.491 . S
C1185 C1184 1.400 . S
C1185 C1186 1.398 . S
C1186 H1174 0.950 . S
C1186 C1185 1.398 . S
C1186 C1187 1.391 . S
C1187 H1175 0.950 . S
C1187 C1183 1.393 . S
C1187 C1186 1.391 . S
H1188 C1196 0.950 . S
H1189 C1201 0.950 . S
H1190 C1198 0.950 . S
H1191 C1200 0.950 . S
H1192 C1202 0.950 . S
H1193 C1204 0.950 . S
H1194 C1206 0.950 . S
H1195 C1207 0.950 . S
C1196 H1188 0.950 . S
C1196 C1197 1.386 . S
C1196 C1198 1.391 1_655 S
C1197 C1196 1.386 . S
C1197 C1201 1.393 . S
C1198 H1190 0.950 . S
C1198 C1196 1.391 1_455 S
C1198 C1199 1.400 . S
C1199 C1198 1.400 . S
C1199 C1200 1.398 . S
C1199 C1205 1.491 . S
C1200 H1191 0.950 . S
C1200 C1199 1.398 . S
C1200 C1201 1.391 1_455 S
C1201 H1189 0.950 . S
C1201 C1197 1.393 . S
C1201 C1200 1.391 1_655 S
C1202 H1192 0.950 . S
C1202 C1203 1.386 . S
C1202 C1204 1.391 . S
C1203 C1202 1.386 . S
C1203 C1207 1.393 . S
C1204 H1193 0.950 . S
C1204 C1202 1.391 . S
C1204 C1205 1.400 . S
C1205 C1199 1.491 . S
C1205 C1204 1.400 . S
C1205 C1206 1.398 . S
C1206 H1194 0.950 . S
C1206 C1205 1.398 . S
C1206 C1207 1.391 . S
C1207 H1195 0.950 . S
C1207 C1203 1.393 . S
C1207 C1206 1.391 . S
H1208 C1216 0.950 . S
H1209 C1221 0.950 . S
H1210 C1218 0.950 . S
H1211 C1220 0.950 . S
H1212 C1222 0.950 . S
H1213 C1224 0.950 . S
H1214 C1226 0.950 . S
H1215 C1227 0.950 . S
C1216 H1208 0.950 . S
C1216 C1217 1.386 . S
C1216 C1218 1.391 . S
C1217 C1216 1.386 . S
C1217 C1221 1.393 . S
C1218 H1210 0.950 . S
C1218 C1216 1.391 . S
C1218 C1219 1.400 . S
C1219 C1218 1.400 . S
C1219 C1220 1.398 . S
C1219 C1225 1.491 . S
C1220 H1211 0.950 . S
C1220 C1219 1.398 . S
C1220 C1221 1.391 . S
C1221 H1209 0.950 . S
C1221 C1217 1.393 . S
C1221 C1220 1.391 . S
C1222 H1212 0.950 . S
C1222 C1223 1.386 . S
C1222 C1224 1.391 . S
C1223 C1222 1.386 . S
C1223 C1227 1.393 . S
C1224 H1213 0.950 . S
C1224 C1222 1.391 . S
C1224 C1225 1.400 . S
C1225 C1219 1.491 . S
C1225 C1224 1.400 . S
C1225 C1226 1.398 . S
C1226 H1214 0.950 . S
C1226 C1225 1.398 . S
C1226 C1227 1.391 . S
C1227 H1215 0.950 . S
C1227 C1223 1.393 . S
C1227 C1226 1.391 . S
H1228 C1236 0.950 . S
H1229 C1241 0.950 . S
H1230 C1238 0.950 . S
H1231 C1240 0.950 . S
H1232 C1242 0.950 . S
H1233 C1244 0.950 . S
H1234 C1246 0.950 . S
H1235 C1247 0.950 . S
C1236 H1228 0.950 . S
C1236 C1237 1.386 . S
C1236 C1238 1.391 . S
C1237 C1236 1.386 . S
C1237 C1241 1.393 . S
C1238 H1230 0.950 . S
C1238 C1236 1.391 . S
C1238 C1239 1.400 . S
C1239 C1238 1.400 . S
C1239 C1240 1.398 . S
C1239 C1245 1.491 . S
C1240 H1231 0.950 . S
C1240 C1239 1.398 . S
C1240 C1241 1.391 . S
C1241 H1229 0.950 . S
C1241 C1237 1.393 . S
C1241 C1240 1.391 . S
C1242 H1232 0.950 . S
C1242 C1243 1.386 . S
C1242 C1244 1.391 1_455 S
C1243 C1242 1.386 . S
C1243 C1247 1.393 . S
C1244 H1233 0.950 . S
C1244 C1242 1.391 1_655 S
C1244 C1245 1.400 . S
C1245 C1239 1.491 . S
C1245 C1244 1.400 . S
C1245 C1246 1.398 . S
C1246 H1234 0.950 . S
C1246 C1245 1.398 . S
C1246 C1247 1.391 1_655 S
C1247 H1235 0.950 . S
C1247 C1243 1.393 . S
C1247 C1246 1.391 1_455 S
H1248 C1256 0.950 . S
H1249 C1261 0.950 . S
H1250 C1258 0.950 . S
H1251 C1260 0.950 . S
H1252 C1262 0.950 . S
H1253 C1264 0.950 . S
H1254 C1266 0.950 . S
H1255 C1267 0.950 . S
C1256 H1248 0.950 . S
C1256 C1257 1.386 . S
C1256 C1258 1.391 . S
C1257 C1256 1.386 . S
C1257 C1261 1.393 . S
C1258 H1250 0.950 . S
C1258 C1256 1.391 . S
C1258 C1259 1.400 . S
C1259 C1258 1.400 . S
C1259 C1260 1.398 . S
C1259 C1265 1.491 . S
C1260 H1251 0.950 . S
C1260 C1259 1.398 . S
C1260 C1261 1.391 . S
C1261 H1249 0.950 . S
C1261 C1257 1.393 . S
C1261 C1260 1.391 . S
C1262 H1252 0.950 . S
C1262 C1263 1.386 . S
C1262 C1264 1.391 . S
C1263 C1262 1.386 . S
C1263 C1267 1.393 . S
C1264 H1253 0.950 . S
C1264 C1262 1.391 . S
C1264 C1265 1.400 . S
C1265 C1259 1.491 . S
C1265 C1264 1.400 . S
C1265 C1266 1.398 . S
C1266 H1254 0.950 . S
C1266 C1265 1.398 . S
C1266 C1267 1.391 . S
C1267 H1255 0.950 . S
C1267 C1263 1.393 . S
C1267 C1266 1.391 . S
H1268 C1276 0.950 . S
H1269 C1281 0.950 . S
H1270 C1278 0.950 . S
H1271 C1280 0.950 . S
H1272 C1282 0.950 . S
H1273 C1284 0.950 . S
H1274 C1286 0.950 . S
H1275 C1287 0.950 . S
C1276 H1268 0.950 . S
C1276 C1277 1.386 . S
C1276 C1278 1.391 . S
C1277 C1276 1.386 . S
C1277 C1281 1.393 . S
C1278 H1270 0.950 . S
C1278 C1276 1.391 . S
C1278 C1279 1.400 . S
C1279 C1278 1.400 . S
C1279 C1280 1.398 . S
C1279 C1285 1.491 . S
C1280 H1271 0.950 . S
C1280 C1279 1.398 . S
C1280 C1281 1.391 . S
C1281 H1269 0.950 . S
C1281 C1277 1.393 . S
C1281 C1280 1.391 . S
C1282 H1272 0.950 . S
C1282 C1283 1.386 . S
C1282 C1284 1.391 . S
C1283 C1282 1.386 . S
C1283 C1287 1.393 . S
C1284 H1273 0.950 . S
C1284 C1282 1.391 . S
C1284 C1285 1.400 . S
C1285 C1279 1.491 . S
C1285 C1284 1.400 . S
C1285 C1286 1.398 . S
C1286 H1274 0.950 . S
C1286 C1285 1.398 . S
C1286 C1287 1.391 . S
C1287 H1275 0.950 . S
C1287 C1283 1.393 . S
C1287 C1286 1.391 . S
H1288 C1296 0.950 . S
H1289 C1301 0.950 . S
H1290 C1298 0.950 . S
H1291 C1300 0.950 . S
H1292 C1302 0.950 . S
H1293 C1304 0.950 . S
H1294 C1306 0.950 . S
H1295 C1307 0.950 . S
C1296 H1288 0.950 . S
C1296 C1297 1.386 . S
C1296 C1298 1.391 . S
C1297 C1296 1.386 . S
C1297 C1301 1.393 . S
C1298 H1290 0.950 . S
C1298 C1296 1.391 . S
C1298 C1299 1.400 . S
C1299 C1298 1.400 . S
C1299 C1300 1.398 . S
C1299 C1305 1.491 . S
C1300 H1291 0.950 . S
C1300 C1299 1.398 . S
C1300 C1301 1.391 . S
C1301 H1289 0.950 . S
C1301 C1297 1.393 . S
C1301 C1300 1.391 . S
C1302 H1292 0.950 . S
C1302 C1303 1.386 . S
C1302 C1304 1.391 . S
C1303 C1302 1.386 . S
C1303 C1307 1.393 . S
C1304 H1293 0.950 . S
C1304 C1302 1.391 . S
C1304 C1305 1.400 . S
C1305 C1299 1.491 . S
C1305 C1304 1.400 . S
C1305 C1306 1.398 . S
C1306 H1294 0.950 . S
C1306 C1305 1.398 . S
C1306 C1307 1.391 . S
C1307 H1295 0.950 . S
C1307 C1303 1.393 . S
C1307 C1306 1.391 . S
H1308 C1316 0.950 . S
H1309 C1321 0.950 . S
H1310 C1318 0.950 . S
H1311 C1320 0.950 . S
H1312 C1322 0.950 . S
H1313 C1324 0.950 . S
H1314 C1326 0.950 . S
H1315 C1327 0.950 . S
C1316 H1308 0.950 . S
C1316 C1317 1.386 . S
C1316 C1318 1.391 . S
C1317 C1316 1.386 . S
C1317 C1321 1.393 . S
C1318 H1310 0.950 . S
C1318 C1316 1.391 . S
C1318 C1319 1.400 . S
C1319 C1318 1.400 . S
C1319 C1320 1.398 . S
C1319 C1325 1.491 . S
C1320 H1311 0.950 . S
C1320 C1319 1.398 . S
C1320 C1321 1.391 . S
C1321 H1309 0.950 . S
C1321 C1317 1.393 . S
C1321 C1320 1.391 . S
C1322 H1312 0.950 . S
C1322 C1323 1.386 . S
C1322 C1324 1.391 . S
C1323 C1322 1.386 . S
C1323 C1327 1.393 . S
C1324 H1313 0.950 . S
C1324 C1322 1.391 . S
C1324 C1325 1.400 . S
C1325 C1319 1.491 . S
C1325 C1324 1.400 . S
C1325 C1326 1.398 . S
C1326 H1314 0.950 . S
C1326 C1325 1.398 . S
C1326 C1327 1.391 . S
C1327 H1315 0.950 . S
C1327 C1323 1.393 . S
C1327 C1326 1.391 . S
H1328 C1336 0.950 . S
H1329 C1341 0.950 . S
H1330 C1338 0.950 . S
H1331 C1340 0.950 . S
H1332 C1342 0.950 . S
H1333 C1344 0.950 . S
H1334 C1346 0.950 . S
H1335 C1347 0.950 . S
C1336 H1328 0.950 . S
C1336 C1337 1.386 . S
C1336 C1338 1.391 . S
C1337 C1336 1.386 . S
C1337 C1341 1.393 . S
C1338 H1330 0.950 . S
C1338 C1336 1.391 . S
C1338 C1339 1.400 . S
C1339 C1338 1.400 . S
C1339 C1340 1.398 . S
C1339 C1345 1.491 . S
C1340 H1331 0.950 . S
C1340 C1339 1.398 . S
C1340 C1341 1.391 . S
C1341 H1329 0.950 . S
C1341 C1337 1.393 . S
C1341 C1340 1.391 . S
C1342 H1332 0.950 . S
C1342 C1343 1.386 . S
C1342 C1344 1.391 . S
C1343 C1342 1.386 . S
C1343 C1347 1.393 . S
C1344 H1333 0.950 . S
C1344 C1342 1.391 . S
C1344 C1345 1.400 . S
C1345 C1339 1.491 . S
C1345 C1344 1.400 . S
C1345 C1346 1.398 . S
C1346 H1334 0.950 . S
C1346 C1345 1.398 . S
C1346 C1347 1.391 . S
C1347 H1335 0.950 . S
C1347 C1343 1.393 . S
C1347 C1346 1.391 . S
H1348 C1356 0.950 . S
H1349 C1361 0.950 . S
H1350 C1358 0.950 . S
H1351 C1360 0.950 . S
H1352 C1362 0.950 . S
H1353 C1364 0.950 . S
H1354 C1366 0.950 . S
H1355 C1367 0.950 . S
C1356 H1348 0.950 . S
C1356 C1357 1.386 . S
C1356 C1358 1.391 . S
C1357 C1356 1.386 . S
C1357 C1361 1.393 . S
C1358 H1350 0.950 . S
C1358 C1356 1.391 . S
C1358 C1359 1.400 . S
C1359 C1358 1.400 . S
C1359 C1360 1.398 . S
C1359 C1365 1.491 . S
C1360 H1351 0.950 . S
C1360 C1359 1.398 . S
C1360 C1361 1.391 . S
C1361 H1349 0.950 . S
C1361 C1357 1.393 . S
C1361 C1360 1.391 . S
C1362 H1352 0.950 . S
C1362 C1363 1.386 . S
C1362 C1364 1.391 . S
C1363 C1362 1.386 . S
C1363 C1367 1.393 . S
C1364 H1353 0.950 . S
C1364 C1362 1.391 . S
C1364 C1365 1.400 . S
C1365 C1359 1.491 . S
C1365 C1364 1.400 . S
C1365 C1366 1.398 . S
C1366 H1354 0.950 . S
C1366 C1365 1.398 . S
C1366 C1367 1.391 . S
C1367 H1355 0.950 . S
C1367 C1363 1.393 . S
C1367 C1366 1.391 . S
H1368 C1376 0.950 . S
H1369 C1381 0.950 . S
H1370 C1378 0.950 . S
H1371 C1380 0.950 . S
H1372 C1382 0.950 . S
H1373 C1384 0.950 . S
H1374 C1386 0.950 . S
H1375 C1387 0.950 . S
C1376 H1368 0.950 . S
C1376 C1377 1.386 . S
C1376 C1378 1.391 . S
C1377 C1376 1.386 . S
C1377 C1381 1.393 . S
C1378 H1370 0.950 . S
C1378 C1376 1.391 . S
C1378 C1379 1.400 . S
C1379 C1378 1.400 . S
C1379 C1380 1.398 . S
C1379 C1385 1.491 . S
C1380 H1371 0.950 . S
C1380 C1379 1.398 . S
C1380 C1381 1.391 . S
C1381 H1369 0.950 . S
C1381 C1377 1.393 . S
C1381 C1380 1.391 . S
C1382 H1372 0.950 . S
C1382 C1383 1.386 . S
C1382 C1384 1.391 . S
C1383 C1382 1.386 . S
C1383 C1387 1.393 . S
C1384 H1373 0.950 . S
C1384 C1382 1.391 . S
C1384 C1385 1.400 . S
C1385 C1379 1.491 . S
C1385 C1384 1.400 . S
C1385 C1386 1.398 . S
C1386 H1374 0.950 . S
C1386 C1385 1.398 . S
C1386 C1387 1.391 . S
C1387 H1375 0.950 . S
C1387 C1383 1.393 . S
C1387 C1386 1.391 . S
H1388 C1396 0.950 . S
H1389 C1401 0.950 . S
H1390 C1398 0.950 . S
H1391 C1400 0.950 . S
H1392 C1402 0.950 . S
H1393 C1404 0.950 . S
H1394 C1406 0.950 . S
H1395 C1407 0.950 . S
C1396 H1388 0.950 . S
C1396 C1397 1.386 . S
C1396 C1398 1.391 . S
C1397 C1396 1.386 . S
C1397 C1401 1.393 . S
C1398 H1390 0.950 . S
C1398 C1396 1.391 . S
C1398 C1399 1.400 . S
C1399 C1398 1.400 . S
C1399 C1400 1.398 . S
C1399 C1405 1.491 . S
C1400 H1391 0.950 . S
C1400 C1399 1.398 . S
C1400 C1401 1.391 . S
C1401 H1389 0.950 . S
C1401 C1397 1.393 . S
C1401 C1400 1.391 . S
C1402 H1392 0.950 . S
C1402 C1403 1.386 . S
C1402 C1404 1.391 . S
C1403 C1402 1.386 . S
C1403 C1407 1.393 . S
C1404 H1393 0.950 . S
C1404 C1402 1.391 . S
C1404 C1405 1.400 . S
C1405 C1399 1.491 . S
C1405 C1404 1.400 . S
C1405 C1406 1.398 . S
C1406 H1394 0.950 . S
C1406 C1405 1.398 . S
C1406 C1407 1.391 . S
C1407 H1395 0.950 . S
C1407 C1403 1.393 . S
C1407 C1406 1.391 . S
H1408 C1416 0.950 . S
H1409 C1421 0.950 . S
H1410 C1418 0.950 . S
H1411 C1420 0.950 . S
H1412 C1422 0.950 . S
H1413 C1424 0.950 . S
H1414 C1426 0.950 . S
H1415 C1427 0.950 . S
C1416 H1408 0.950 . S
C1416 C1417 1.386 . S
C1416 C1418 1.391 . S
C1417 C1416 1.386 . S
C1417 C1421 1.393 . S
C1418 H1410 0.950 . S
C1418 C1416 1.391 . S
C1418 C1419 1.400 . S
C1419 C1418 1.400 . S
C1419 C1420 1.398 . S
C1419 C1425 1.491 . S
C1420 H1411 0.950 . S
C1420 C1419 1.398 . S
C1420 C1421 1.391 . S
C1421 H1409 0.950 . S
C1421 C1417 1.393 . S
C1421 C1420 1.391 . S
C1422 H1412 0.950 . S
C1422 C1423 1.386 . S
C1422 C1424 1.391 . S
C1423 C1422 1.386 . S
C1423 C1427 1.393 . S
C1424 H1413 0.950 . S
C1424 C1422 1.391 . S
C1424 C1425 1.400 . S
C1425 C1419 1.491 . S
C1425 C1424 1.400 . S
C1425 C1426 1.398 . S
C1426 H1414 0.950 . S
C1426 C1425 1.398 . S
C1426 C1427 1.391 . S
C1427 H1415 0.950 . S
C1427 C1423 1.393 . S
C1427 C1426 1.391 . S
H1428 C1436 0.950 . S
H1429 C1441 0.950 . S
H1430 C1438 0.950 . S
H1431 C1440 0.950 . S
H1432 C1442 0.950 . S
H1433 C1444 0.950 . S
H1434 C1446 0.950 . S
H1435 C1447 0.950 . S
C1436 H1428 0.950 . S
C1436 C1437 1.386 . S
C1436 C1438 1.391 . S
C1437 C1436 1.386 . S
C1437 C1441 1.393 . S
C1438 H1430 0.950 . S
C1438 C1436 1.391 . S
C1438 C1439 1.400 . S
C1439 C1438 1.400 . S
C1439 C1440 1.398 . S
C1439 C1445 1.491 . S
C1440 H1431 0.950 . S
C1440 C1439 1.398 . S
C1440 C1441 1.391 . S
C1441 H1429 0.950 . S
C1441 C1437 1.393 . S
C1441 C1440 1.391 . S
C1442 H1432 0.950 . S
C1442 C1443 1.386 . S
C1442 C1444 1.391 . S
C1443 C1442 1.386 . S
C1443 C1447 1.393 . S
C1444 H1433 0.950 . S
C1444 C1442 1.391 . S
C1444 C1445 1.400 . S
C1445 C1439 1.491 . S
C1445 C1444 1.400 . S
C1445 C1446 1.398 . S
C1446 H1434 0.950 . S
C1446 C1445 1.398 . S
C1446 C1447 1.391 . S
C1447 H1435 0.950 . S
C1447 C1443 1.393 . S
C1447 C1446 1.391 . S
H1448 C1456 0.950 . S
H1449 C1461 0.950 . S
H1450 C1458 0.950 . S
H1451 C1460 0.950 . S
H1452 C1462 0.950 . S
H1453 C1464 0.950 . S
H1454 C1466 0.950 . S
H1455 C1467 0.950 . S
C1456 H1448 0.950 . S
C1456 C1457 1.386 . S
C1456 C1458 1.391 . S
C1457 C1456 1.386 . S
C1457 C1461 1.393 . S
C1458 H1450 0.950 . S
C1458 C1456 1.391 . S
C1458 C1459 1.400 . S
C1459 C1458 1.400 . S
C1459 C1460 1.398 . S
C1459 C1465 1.491 . S
C1460 H1451 0.950 . S
C1460 C1459 1.398 . S
C1460 C1461 1.391 . S
C1461 H1449 0.950 . S
C1461 C1457 1.393 . S
C1461 C1460 1.391 . S
C1462 H1452 0.950 . S
C1462 C1463 1.386 . S
C1462 C1464 1.391 . S
C1463 C1462 1.386 . S
C1463 C1467 1.393 . S
C1464 H1453 0.950 . S
C1464 C1462 1.391 . S
C1464 C1465 1.400 . S
C1465 C1459 1.491 . S
C1465 C1464 1.400 . S
C1465 C1466 1.398 . S
C1466 H1454 0.950 . S
C1466 C1465 1.398 . S
C1466 C1467 1.391 . S
C1467 H1455 0.950 . S
C1467 C1463 1.393 . S
C1467 C1466 1.391 . S
H1468 C1476 0.950 . S
H1469 C1481 0.950 . S
H1470 C1478 0.950 . S
H1471 C1480 0.950 . S
H1472 C1482 0.950 . S
H1473 C1484 0.950 . S
H1474 C1486 0.950 . S
H1475 C1487 0.950 . S
C1476 H1468 0.950 . S
C1476 C1477 1.386 . S
C1476 C1478 1.391 . S
C1477 C1476 1.386 . S
C1477 C1481 1.393 . S
C1478 H1470 0.950 . S
C1478 C1476 1.391 . S
C1478 C1479 1.400 . S
C1479 C1478 1.400 . S
C1479 C1480 1.398 . S
C1479 C1485 1.491 . S
C1480 H1471 0.950 . S
C1480 C1479 1.398 . S
C1480 C1481 1.391 . S
C1481 H1469 0.950 . S
C1481 C1477 1.393 . S
C1481 C1480 1.391 . S
C1482 H1472 0.950 . S
C1482 C1483 1.386 . S
C1482 C1484 1.391 . S
C1483 C1482 1.386 . S
C1483 C1487 1.393 . S
C1484 H1473 0.950 . S
C1484 C1482 1.391 . S
C1484 C1485 1.400 . S
C1485 C1479 1.491 . S
C1485 C1484 1.400 . S
C1485 C1486 1.398 . S
C1486 H1474 0.950 . S
C1486 C1485 1.398 . S
C1486 C1487 1.391 . S
C1487 H1475 0.950 . S
C1487 C1483 1.393 . S
C1487 C1486 1.391 . S
H1488 C1496 0.950 . S
H1489 C1501 0.950 . S
H1490 C1498 0.950 . S
H1491 C1500 0.950 . S
H1492 C1502 0.950 . S
H1493 C1504 0.950 . S
H1494 C1506 0.950 . S
H1495 C1507 0.950 . S
C1496 H1488 0.950 . S
C1496 C1497 1.386 . S
C1496 C1498 1.391 . S
C1497 C1496 1.386 . S
C1497 C1501 1.393 . S
C1498 H1490 0.950 . S
C1498 C1496 1.391 . S
C1498 C1499 1.400 . S
C1499 C1498 1.400 . S
C1499 C1500 1.398 . S
C1499 C1505 1.491 . S
C1500 H1491 0.950 . S
C1500 C1499 1.398 . S
C1500 C1501 1.391 . S
C1501 H1489 0.950 . S
C1501 C1497 1.393 . S
C1501 C1500 1.391 . S
C1502 H1492 0.950 . S
C1502 C1503 1.386 . S
C1502 C1504 1.391 . S
C1503 C1502 1.386 . S
C1503 C1507 1.393 . S
C1504 H1493 0.950 . S
C1504 C1502 1.391 . S
C1504 C1505 1.400 . S
C1505 C1499 1.491 . S
C1505 C1504 1.400 . S
C1505 C1506 1.398 . S
C1506 H1494 0.950 . S
C1506 C1505 1.398 . S
C1506 C1507 1.391 . S
C1507 H1495 0.950 . S
C1507 C1503 1.393 . S
C1507 C1506 1.391 . S
H1508 C1516 0.950 . S
H1509 C1521 0.950 . S
H1510 C1518 0.950 . S
H1511 C1520 0.950 . S
H1512 C1522 0.950 . S
H1513 C1524 0.950 . S
H1514 C1526 0.950 . S
H1515 C1527 0.950 . S
C1516 H1508 0.950 . S
C1516 C1517 1.386 . S
C1516 C1518 1.391 . S
C1517 C1516 1.386 . S
C1517 C1521 1.393 . S
C1518 H1510 0.950 . S
C1518 C1516 1.391 . S
C1518 C1519 1.400 . S
C1519 C1518 1.400 . S
C1519 C1520 1.398 . S
C1519 C1525 1.491 . S
C1520 H1511 0.950 . S
C1520 C1519 1.398 . S
C1520 C1521 1.391 . S
C1521 H1509 0.950 . S
C1521 C1517 1.393 . S
C1521 C1520 1.391 . S
C1522 H1512 0.950 . S
C1522 C1523 1.386 . S
C1522 C1524 1.391 . S
C1523 C1522 1.386 . S
C1523 C1527 1.393 . S
C1524 H1513 0.950 . S
C1524 C1522 1.391 . S
C1524 C1525 1.400 . S
C1525 C1519 1.491 . S
C1525 C1524 1.400 . S
C1525 C1526 1.398 . S
C1526 H1514 0.950 . S
C1526 C1525 1.398 . S
C1526 C1527 1.391 . S
C1527 H1515 0.950 . S
C1527 C1523 1.393 . S
C1527 C1526 1.391 . S
H1528 C1536 0.950 . S
H1529 C1541 0.950 . S
H1530 C1538 0.950 . S
H1531 C1540 0.950 . S
H1532 C1542 0.950 . S
H1533 C1544 0.950 . S
H1534 C1546 0.950 . S
H1535 C1547 0.950 . S
C1536 H1528 0.950 . S
C1536 C1537 1.386 . S
C1536 C1538 1.391 . S
C1537 C1536 1.386 . S
C1537 C1541 1.393 . S
C1538 H1530 0.950 . S
C1538 C1536 1.391 . S
C1538 C1539 1.400 . S
C1539 C1538 1.400 . S
C1539 C1540 1.398 . S
C1539 C1545 1.491 . S
C1540 H1531 0.950 . S
C1540 C1539 1.398 . S
C1540 C1541 1.391 . S
C1541 H1529 0.950 . S
C1541 C1537 1.393 . S
C1541 C1540 1.391 . S
C1542 H1532 0.950 . S
C1542 C1543 1.386 . S
C1542 C1544 1.391 . S
C1543 C1542 1.386 . S
C1543 C1547 1.393 . S
C1544 H1533 0.950 . S
C1544 C1542 1.391 . S
C1544 C1545 1.400 . S
C1545 C1539 1.491 . S
C1545 C1544 1.400 . S
C1545 C1546 1.398 . S
C1546 H1534 0.950 . S
C1546 C1545 1.398 . S
C1546 C1547 1.391 . S
C1547 H1535 0.950 . S
C1547 C1543 1.393 . S
C1547 C1546 1.391 . S
H1548 C1556 0.950 . S
H1549 C1561 0.950 . S
H1550 C1558 0.950 . S
H1551 C1560 0.950 . S
H1552 C1562 0.950 . S
H1553 C1564 0.950 . S
H1554 C1566 0.950 . S
H1555 C1567 0.950 . S
C1556 H1548 0.950 . S
C1556 C1557 1.386 . S
C1556 C1558 1.391 . S
C1557 C1556 1.386 . S
C1557 C1561 1.393 . S
C1558 H1550 0.950 . S
C1558 C1556 1.391 . S
C1558 C1559 1.400 . S
C1559 C1558 1.400 . S
C1559 C1560 1.398 . S
C1559 C1565 1.491 . S
C1560 H1551 0.950 . S
C1560 C1559 1.398 . S
C1560 C1561 1.391 . S
C1561 H1549 0.950 . S
C1561 C1557 1.393 . S
C1561 C1560 1.391 . S
C1562 H1552 0.950 . S
C1562 C1563 1.386 . S
C1562 C1564 1.391 . S
C1563 C1562 1.386 . S
C1563 C1567 1.393 . S
C1564 H1553 0.950 . S
C1564 C1562 1.391 . S
C1564 C1565 1.400 . S
C1565 C1559 1.491 . S
C1565 C1564 1.400 . S
C1565 C1566 1.398 . S
C1566 H1554 0.950 . S
C1566 C1565 1.398 . S
C1566 C1567 1.391 . S
C1567 H1555 0.950 . S
C1567 C1563 1.393 . S
C1567 C1566 1.391 . S
H1568 C1576 0.950 . S
H1569 C1581 0.950 . S
H1570 C1578 0.950 . S
H1571 C1580 0.950 . S
H1572 C1582 0.950 . S
H1573 C1584 0.950 . S
H1574 C1586 0.950 . S
H1575 C1587 0.950 . S
C1576 H1568 0.950 . S
C1576 C1577 1.386 . S
C1576 C1578 1.391 . S
C1577 C1576 1.386 . S
C1577 C1581 1.393 . S
C1578 H1570 0.950 . S
C1578 C1576 1.391 . S
C1578 C1579 1.400 . S
C1579 C1578 1.400 . S
C1579 C1580 1.398 . S
C1579 C1585 1.491 . S
C1580 H1571 0.950 . S
C1580 C1579 1.398 . S
C1580 C1581 1.391 . S
C1581 H1569 0.950 . S
C1581 C1577 1.393 . S
C1581 C1580 1.391 . S
C1582 H1572 0.950 . S
C1582 C1583 1.386 . S
C1582 C1584 1.391 . S
C1583 C1582 1.386 . S
C1583 C1587 1.393 . S
C1584 H1573 0.950 . S
C1584 C1582 1.391 . S
C1584 C1585 1.400 . S
C1585 C1579 1.491 . S
C1585 C1584 1.400 . S
C1585 C1586 1.398 . S
C1586 H1574 0.950 . S
C1586 C1585 1.398 . S
C1586 C1587 1.391 . S
C1587 H1575 0.950 . S
C1587 C1583 1.393 . S
C1587 C1586 1.391 . S
H1588 C1596 0.950 . S
H1589 C1601 0.950 . S
H1590 C1598 0.950 . S
H1591 C1600 0.950 . S
H1592 C1602 0.950 . S
H1593 C1604 0.950 . S
H1594 C1606 0.950 . S
H1595 C1607 0.950 . S
C1596 H1588 0.950 . S
C1596 C1597 1.386 . S
C1596 C1598 1.391 . S
C1597 C1596 1.386 . S
C1597 C1601 1.393 . S
C1598 H1590 0.950 . S
C1598 C1596 1.391 . S
C1598 C1599 1.400 . S
C1599 C1598 1.400 . S
C1599 C1600 1.398 . S
C1599 C1605 1.491 . S
C1600 H1591 0.950 . S
C1600 C1599 1.398 . S
C1600 C1601 1.391 . S
C1601 H1589 0.950 . S
C1601 C1597 1.393 . S
C1601 C1600 1.391 . S
C1602 H1592 0.950 . S
C1602 C1603 1.386 . S
C1602 C1604 1.391 . S
C1603 C1602 1.386 . S
C1603 C1607 1.393 . S
C1604 H1593 0.950 . S
C1604 C1602 1.391 . S
C1604 C1605 1.400 . S
C1605 C1599 1.491 . S
C1605 C1604 1.400 . S
C1605 C1606 1.398 . S
C1606 H1594 0.950 . S
C1606 C1605 1.398 . S
C1606 C1607 1.391 . S
C1607 H1595 0.950 . S
C1607 C1603 1.393 . S
C1607 C1606 1.391 . S
H1608 C1616 0.950 . S
H1609 C1621 0.950 . S
H1610 C1618 0.950 . S
H1611 C1620 0.950 . S
H1612 C1622 0.950 . S
H1613 C1624 0.950 . S
H1614 C1626 0.950 . S
H1615 C1627 0.950 . S
C1616 H1608 0.950 . S
C1616 C1617 1.386 . S
C1616 C1618 1.391 . S
C1617 C1616 1.386 . S
C1617 C1621 1.393 . S
C1618 H1610 0.950 . S
C1618 C1616 1.391 . S
C1618 C1619 1.400 . S
C1619 C1618 1.400 . S
C1619 C1620 1.398 . S
C1619 C1625 1.491 . S
C1620 H1611 0.950 . S
C1620 C1619 1.398 . S
C1620 C1621 1.391 . S
C1621 H1609 0.950 . S
C1621 C1617 1.393 . S
C1621 C1620 1.391 . S
C1622 H1612 0.950 . S
C1622 C1623 1.386 . S
C1622 C1624 1.391 . S
C1623 C1622 1.386 . S
C1623 C1627 1.393 . S
C1624 H1613 0.950 . S
C1624 C1622 1.391 . S
C1624 C1625 1.400 . S
C1625 C1619 1.491 . S
C1625 C1624 1.400 . S
C1625 C1626 1.398 . S
C1626 H1614 0.950 . S
C1626 C1625 1.398 . S
C1626 C1627 1.391 . S
C1627 H1615 0.950 . S
C1627 C1623 1.393 . S
C1627 C1626 1.391 . S
H1628 C1636 0.950 . S
H1629 C1641 0.950 . S
H1630 C1638 0.950 . S
H1631 C1640 0.950 . S
H1632 C1642 0.950 . S
H1633 C1644 0.950 . S
H1634 C1646 0.950 . S
H1635 C1647 0.950 . S
C1636 H1628 0.950 . S
C1636 C1637 1.386 . S
C1636 C1638 1.391 . S
C1637 C1636 1.386 . S
C1637 C1641 1.393 . S
C1638 H1630 0.950 . S
C1638 C1636 1.391 . S
C1638 C1639 1.400 . S
C1639 C1638 1.400 . S
C1639 C1640 1.398 . S
C1639 C1645 1.491 . S
C1640 H1631 0.950 . S
C1640 C1639 1.398 . S
C1640 C1641 1.391 . S
C1641 H1629 0.950 . S
C1641 C1637 1.393 . S
C1641 C1640 1.391 . S
C1642 H1632 0.950 . S
C1642 C1643 1.386 . S
C1642 C1644 1.391 . S
C1643 C1642 1.386 . S
C1643 C1647 1.393 . S
C1644 H1633 0.950 . S
C1644 C1642 1.391 . S
C1644 C1645 1.400 . S
C1645 C1639 1.491 . S
C1645 C1644 1.400 . S
C1645 C1646 1.398 . S
C1646 H1634 0.950 . S
C1646 C1645 1.398 . S
C1646 C1647 1.391 . S
C1647 H1635 0.950 . S
C1647 C1643 1.393 . S
C1647 C1646 1.391 . S
H1648 C1656 0.950 . S
H1649 C1661 0.950 . S
H1650 C1658 0.950 . S
H1651 C1660 0.950 . S
H1652 C1662 0.950 . S
H1653 C1664 0.950 . S
H1654 C1666 0.950 . S
H1655 C1667 0.950 . S
C1656 H1648 0.950 . S
C1656 C1657 1.386 . S
C1656 C1658 1.391 . S
C1657 C1656 1.386 . S
C1657 C1661 1.393 . S
C1658 H1650 0.950 . S
C1658 C1656 1.391 . S
C1658 C1659 1.400 . S
C1659 C1658 1.400 . S
C1659 C1660 1.398 . S
C1659 C1665 1.491 . S
C1660 H1651 0.950 . S
C1660 C1659 1.398 . S
C1660 C1661 1.391 . S
C1661 H1649 0.950 . S
C1661 C1657 1.393 . S
C1661 C1660 1.391 . S
C1662 H1652 0.950 . S
C1662 C1663 1.386 . S
C1662 C1664 1.391 . S
C1663 C1662 1.386 . S
C1663 C1667 1.393 . S
C1664 H1653 0.950 . S
C1664 C1662 1.391 . S
C1664 C1665 1.400 . S
C1665 C1659 1.491 . S
C1665 C1664 1.400 . S
C1665 C1666 1.398 . S
C1666 H1654 0.950 . S
C1666 C1665 1.398 . S
C1666 C1667 1.391 . S
C1667 H1655 0.950 . S
C1667 C1663 1.393 . S
C1667 C1666 1.391 . S
H1668 C1676 0.950 . S
H1669 C1681 0.950 . S
H1670 C1678 0.950 . S
H1671 C1680 0.950 . S
H1672 C1682 0.950 . S
H1673 C1684 0.950 . S
H1674 C1686 0.950 . S
H1675 C1687 0.950 . S
C1676 H1668 0.950 . S
C1676 C1677 1.386 . S
C1676 C1678 1.391 . S
C1677 C1676 1.386 . S
C1677 C1681 1.393 . S
C1678 H1670 0.950 . S
C1678 C1676 1.391 . S
C1678 C1679 1.400 . S
C1679 C1678 1.400 . S
C1679 C1680 1.398 . S
C1679 C1685 1.491 . S
C1680 H1671 0.950 . S
C1680 C1679 1.398 . S
C1680 C1681 1.391 . S
C1681 H1669 0.950 . S
C1681 C1677 1.393 . S
C1681 C1680 1.391 . S
C1682 H1672 0.950 . S
C1682 C1683 1.386 . S
C1682 C1684 1.391 . S
C1683 C1682 1.386 . S
C1683 C1687 1.393 . S
C1684 H1673 0.950 . S
C1684 C1682 1.391 . S
C1684 C1685 1.400 . S
C1685 C1679 1.491 . S
C1685 C1684 1.400 . S
C1685 C1686 1.398 . S
C1686 H1674 0.950 . S
C1686 C1685 1.398 . S
C1686 C1687 1.391 . S
C1687 H1675 0.950 . S
C1687 C1683 1.393 . S
C1687 C1686 1.391 . S
H1688 C1696 0.950 . S
H1689 C1701 0.950 . S
H1690 C1698 0.950 . S
H1691 C1700 0.950 . S
H1692 C1702 0.950 . S
H1693 C1704 0.950 . S
H1694 C1706 0.950 . S
H1695 C1707 0.950 . S
C1696 H1688 0.950 . S
C1696 C1697 1.386 . S
C1696 C1698 1.391 . S
C1697 C1696 1.386 . S
C1697 C1701 1.393 . S
C1698 H1690 0.950 . S
C1698 C1696 1.391 . S
C1698 C1699 1.400 . S
C1699 C1698 1.400 . S
C1699 C1700 1.398 . S
C1699 C1705 1.491 . S
C1700 H1691 0.950 . S
C1700 C1699 1.398 . S
C1700 C1701 1.391 . S
C1701 H1689 0.950 . S
C1701 C1697 1.393 . S
C1701 C1700 1.391 . S
C1702 H1692 0.950 . S
C1702 C1703 1.386 . S
C1702 C1704 1.391 . S
C1703 C1702 1.386 . S
C1703 C1707 1.393 . S
C1704 H1693 0.950 . S
C1704 C1702 1.391 . S
C1704 C1705 1.400 . S
C1705 C1699 1.491 . S
C1705 C1704 1.400 . S
C1705 C1706 1.398 . S
C1706 H1694 0.950 . S
C1706 C1705 1.398 . S
C1706 C1707 1.391 . S
C1707 H1695 0.950 . S
C1707 C1703 1.393 . S
C1707 C1706 1.391 . S
H1708 C1716 0.950 . S
H1709 C1721 0.950 . S
H1710 C1718 0.950 . S
H1711 C1720 0.950 . S
H1712 C1722 0.950 . S
H1713 C1724 0.950 . S
H1714 C1726 0.950 . S
H1715 C1727 0.950 . S
C1716 H1708 0.950 . S
C1716 C1717 1.386 . S
C1716 C1718 1.391 . S
C1717 C1716 1.386 . S
C1717 C1721 1.393 . S
C1718 H1710 0.950 . S
C1718 C1716 1.391 . S
C1718 C1719 1.400 . S
C1719 C1718 1.400 . S
C1719 C1720 1.398 . S
C1719 C1725 1.491 . S
C1720 H1711 0.950 . S
C1720 C1719 1.398 . S
C1720 C1721 1.391 . S
C1721 H1709 0.950 . S
C1721 C1717 1.393 . S
C1721 C1720 1.391 . S
C1722 H1712 0.950 . S
C1722 C1723 1.386 . S
C1722 C1724 1.391 . S
C1723 C1722 1.386 . S
C1723 C1727 1.393 . S
C1724 H1713 0.950 . S
C1724 C1722 1.391 . S
C1724 C1725 1.400 . S
C1725 C1719 1.491 . S
C1725 C1724 1.400 . S
C1725 C1726 1.398 . S
C1726 H1714 0.950 . S
C1726 C1725 1.398 . S
C1726 C1727 1.391 . S
C1727 H1715 0.950 . S
C1727 C1723 1.393 . S
C1727 C1726 1.391 . S
H1728 C1736 0.950 . S
H1729 C1741 0.950 . S
H1730 C1738 0.950 . S
H1731 C1740 0.950 . S
H1732 C1742 0.950 . S
H1733 C1744 0.950 . S
H1734 C1746 0.950 . S
H1735 C1747 0.950 . S
C1736 H1728 0.950 . S
C1736 C1737 1.386 . S
C1736 C1738 1.391 . S
C1737 C1736 1.386 . S
C1737 C1741 1.393 . S
C1738 H1730 0.950 . S
C1738 C1736 1.391 . S
C1738 C1739 1.400 . S
C1739 C1738 1.400 . S
C1739 C1740 1.398 . S
C1739 C1745 1.491 . S
C1740 H1731 0.950 . S
C1740 C1739 1.398 . S
C1740 C1741 1.391 . S
C1741 H1729 0.950 . S
C1741 C1737 1.393 . S
C1741 C1740 1.391 . S
C1742 H1732 0.950 . S
C1742 C1743 1.386 . S
C1742 C1744 1.391 . S
C1743 C1742 1.386 . S
C1743 C1747 1.393 . S
C1744 H1733 0.950 . S
C1744 C1742 1.391 . S
C1744 C1745 1.400 . S
C1745 C1739 1.491 . S
C1745 C1744 1.400 . S
C1745 C1746 1.398 . S
C1746 H1734 0.950 . S
C1746 C1745 1.398 . S
C1746 C1747 1.391 . S
C1747 H1735 0.950 . S
C1747 C1743 1.393 . S
C1747 C1746 1.391 . S
H1748 C1756 0.950 . S
H1749 C1761 0.950 . S
H1750 C1758 0.950 . S
H1751 C1760 0.950 . S
H1752 C1762 0.950 . S
H1753 C1764 0.950 . S
H1754 C1766 0.950 . S
H1755 C1767 0.948 1_556 S
C1756 H1748 0.950 . S
C1756 C1757 1.386 . S
C1756 C1758 1.391 . S
C1757 C1756 1.386 . S
C1757 C1761 1.393 . S
C1758 H1750 0.950 . S
C1758 C1756 1.391 . S
C1758 C1759 1.400 . S
C1759 C1758 1.400 . S
C1759 C1760 1.398 . S
C1759 C1765 1.491 . S
C1760 H1751 0.950 . S
C1760 C1759 1.398 . S
C1760 C1761 1.391 . S
C1761 H1749 0.950 . S
C1761 C1757 1.393 . S
C1761 C1760 1.391 . S
C1762 H1752 0.950 . S
C1762 C1763 1.386 . S
C1762 C1764 1.391 1_556 S
C1763 C1762 1.386 . S
C1763 C1767 1.393 1_556 S
C1764 H1753 0.950 . S
C1764 C1762 1.391 1_554 S
C1764 C1765 1.400 . S
C1765 C1759 1.491 . S
C1765 C1764 1.400 . S
C1765 C1766 1.398 . S
C1766 H1754 0.950 . S
C1766 C1765 1.398 . S
C1766 C1767 1.391 . S
C1767 H1755 0.948 1_554 S
C1767 C1763 1.393 1_554 S
C1767 C1766 1.391 . S
H1768 C1776 0.950 . S
H1769 C1781 0.950 . S
H1770 C1778 0.950 . S
H1771 C1780 0.950 . S
H1772 C1782 0.950 . S
H1773 C1784 0.950 . S
H1774 C1786 0.950 . S
H1775 C1787 0.950 1_565 S
C1776 H1768 0.950 . S
C1776 C1777 1.386 . S
C1776 C1778 1.391 . S
C1777 C1776 1.386 . S
C1777 C1781 1.393 . S
C1778 H1770 0.950 . S
C1778 C1776 1.391 . S
C1778 C1779 1.400 . S
C1779 C1778 1.400 . S
C1779 C1780 1.398 . S
C1779 C1785 1.491 . S
C1780 H1771 0.950 . S
C1780 C1779 1.398 . S
C1780 C1781 1.391 . S
C1781 H1769 0.950 . S
C1781 C1777 1.393 . S
C1781 C1780 1.391 . S
C1782 H1772 0.950 . S
C1782 C1783 1.386 . S
C1782 C1784 1.391 . S
C1783 C1782 1.386 . S
C1783 C1787 1.393 . S
C1784 H1773 0.950 . S
C1784 C1782 1.391 . S
C1784 C1785 1.400 . S
C1785 C1779 1.491 . S
C1785 C1784 1.400 . S
C1785 C1786 1.398 . S
C1786 H1774 0.950 . S
C1786 C1785 1.398 . S
C1786 C1787 1.391 . S
C1787 H1775 0.950 1_545 S
C1787 C1783 1.393 . S
C1787 C1786 1.391 . S
H1788 C1796 0.950 . S
H1789 C1801 0.950 . S
H1790 C1798 0.950 . S
H1791 C1800 0.950 . S
H1792 C1802 0.950 . S
H1793 C1804 0.950 . S
H1794 C1806 0.950 . S
H1795 C1807 0.950 . S
C1796 H1788 0.950 . S
C1796 C1797 1.386 . S
C1796 C1798 1.391 1_554 S
C1797 C1796 1.386 . S
C1797 C1801 1.393 . S
C1798 H1790 0.950 . S
C1798 C1796 1.391 1_556 S
C1798 C1799 1.400 . S
C1799 C1798 1.400 . S
C1799 C1800 1.398 . S
C1799 C1805 1.491 . S
C1800 H1791 0.950 . S
C1800 C1799 1.398 . S
C1800 C1801 1.391 1_556 S
C1801 H1789 0.950 . S
C1801 C1797 1.393 . S
C1801 C1800 1.391 1_554 S
C1802 H1792 0.950 . S
C1802 C1803 1.386 . S
C1802 C1804 1.391 . S
C1803 C1802 1.386 . S
C1803 C1807 1.393 . S
C1804 H1793 0.950 . S
C1804 C1802 1.391 . S
C1804 C1805 1.400 . S
C1805 C1799 1.491 . S
C1805 C1804 1.400 . S
C1805 C1806 1.398 . S
C1806 H1794 0.950 . S
C1806 C1805 1.398 . S
C1806 C1807 1.391 . S
C1807 H1795 0.950 . S
C1807 C1803 1.393 . S
C1807 C1806 1.391 . S
H1808 C1816 0.950 . S
H1809 C1821 0.950 . S
H1810 C1818 0.950 . S
H1811 C1820 0.950 . S
H1812 C1822 0.950 . S
H1813 C1824 0.950 . S
H1814 C1826 0.950 . S
H1815 C1827 0.950 . S
C1816 H1808 0.950 . S
C1816 C1817 1.386 . S
C1816 C1818 1.391 . S
C1817 C1816 1.386 . S
C1817 C1821 1.393 . S
C1818 H1810 0.950 . S
C1818 C1816 1.391 . S
C1818 C1819 1.400 . S
C1819 C1818 1.400 . S
C1819 C1820 1.398 . S
C1819 C1825 1.491 . S
C1820 H1811 0.950 . S
C1820 C1819 1.398 . S
C1820 C1821 1.391 . S
C1821 H1809 0.950 . S
C1821 C1817 1.393 . S
C1821 C1820 1.391 . S
C1822 H1812 0.950 . S
C1822 C1823 1.386 . S
C1822 C1824 1.391 . S
C1823 C1822 1.386 . S
C1823 C1827 1.393 . S
C1824 H1813 0.950 . S
C1824 C1822 1.391 . S
C1824 C1825 1.400 . S
C1825 C1819 1.491 . S
C1825 C1824 1.400 . S
C1825 C1826 1.398 . S
C1826 H1814 0.950 . S
C1826 C1825 1.398 . S
C1826 C1827 1.391 . S
C1827 H1815 0.950 . S
C1827 C1823 1.393 . S
C1827 C1826 1.391 . S
H1828 C1836 0.950 . S
H1829 C1841 0.950 1_554 S
H1830 C1838 0.950 . S
H1831 C1840 0.950 . S
H1832 C1842 0.950 . S
H1833 C1844 0.950 . S
H1834 C1846 0.950 . S
H1835 C1847 0.950 . S
C1836 H1828 0.950 . S
C1836 C1837 1.386 . S
C1836 C1838 1.391 . S
C1837 C1836 1.386 . S
C1837 C1841 1.393 . S
C1838 H1830 0.950 . S
C1838 C1836 1.391 . S
C1838 C1839 1.400 . S
C1839 C1838 1.400 . S
C1839 C1840 1.398 . S
C1839 C1845 1.491 . S
C1840 H1831 0.950 . S
C1840 C1839 1.398 . S
C1840 C1841 1.391 . S
C1841 H1829 0.950 1_556 S
C1841 C1837 1.393 . S
C1841 C1840 1.391 . S
C1842 H1832 0.950 . S
C1842 C1843 1.386 . S
C1842 C1844 1.391 . S
C1843 C1842 1.386 . S
C1843 C1847 1.393 1_455 S
C1844 H1833 0.950 . S
C1844 C1842 1.391 . S
C1844 C1845 1.400 1_455 S
C1845 C1839 1.491 . S
C1845 C1844 1.400 1_655 S
C1845 C1846 1.398 . S
C1846 H1834 0.950 . S
C1846 C1845 1.398 . S
C1846 C1847 1.391 . S
C1847 H1835 0.950 . S
C1847 C1843 1.393 1_655 S
C1847 C1846 1.391 . S
H1848 C1856 0.950 . S
H1849 C1861 0.950 . S
H1850 C1858 0.950 . S
H1851 C1860 0.950 . S
H1852 C1862 0.950 . S
H1853 C1864 0.950 . S
H1854 C1866 0.950 . S
H1855 C1867 0.950 . S
C1856 H1848 0.950 . S
C1856 C1857 1.386 . S
C1856 C1858 1.391 . S
C1857 C1856 1.386 . S
C1857 C1861 1.393 . S
C1858 H1850 0.950 . S
C1858 C1856 1.391 . S
C1858 C1859 1.400 . S
C1859 C1858 1.400 . S
C1859 C1860 1.398 . S
C1859 C1865 1.491 . S
C1860 H1851 0.950 . S
C1860 C1859 1.398 . S
C1860 C1861 1.391 . S
C1861 H1849 0.950 . S
C1861 C1857 1.393 . S
C1861 C1860 1.391 . S
C1862 H1852 0.950 . S
C1862 C1863 1.386 1_455 S
C1862 C1864 1.391 . S
C1863 C1862 1.386 1_655 S
C1863 C1867 1.393 . S
C1864 H1853 0.950 . S
C1864 C1862 1.391 . S
C1864 C1865 1.400 . S
C1865 C1859 1.491 . S
C1865 C1864 1.400 . S
C1865 C1866 1.397 1_455 S
C1866 H1854 0.950 . S
C1866 C1865 1.397 1_655 S
C1866 C1867 1.392 . S
C1867 H1855 0.950 . S
C1867 C1863 1.393 . S
C1867 C1866 1.392 . S
H1868 C1876 0.950 . S
H1869 C1881 0.950 . S
H1870 C1878 0.950 . S
H1871 C1880 0.950 . S
H1872 C1882 0.950 . S
H1873 C1884 0.950 . S
H1874 C1886 0.950 . S
H1875 C1887 0.950 . S
C1876 H1868 0.950 . S
C1876 C1877 1.386 . S
C1876 C1878 1.391 . S
C1877 C1876 1.386 . S
C1877 C1881 1.393 . S
C1878 H1870 0.950 . S
C1878 C1876 1.391 . S
C1878 C1879 1.400 . S
C1879 C1878 1.400 . S
C1879 C1880 1.398 . S
C1879 C1885 1.491 . S
C1880 H1871 0.950 . S
C1880 C1879 1.398 . S
C1880 C1881 1.391 . S
C1881 H1869 0.950 . S
C1881 C1877 1.393 . S
C1881 C1880 1.391 . S
C1882 H1872 0.950 . S
C1882 C1883 1.386 . S
C1882 C1884 1.391 . S
C1883 C1882 1.386 . S
C1883 C1887 1.393 . S
C1884 H1873 0.950 . S
C1884 C1882 1.391 . S
C1884 C1885 1.400 . S
C1885 C1879 1.491 . S
C1885 C1884 1.400 . S
C1885 C1886 1.398 . S
C1886 H1874 0.950 . S
C1886 C1885 1.398 . S
C1886 C1887 1.391 . S
C1887 H1875 0.950 . S
C1887 C1883 1.393 . S
C1887 C1886 1.391 . S
H1888 C1896 0.950 . S
H1889 C1901 0.950 . S
H1890 C1898 0.950 . S
H1891 C1900 0.950 . S
H1892 C1902 0.950 . S
H1893 C1904 0.950 . S
H1894 C1906 0.950 . S
H1895 C1907 0.950 . S
C1896 H1888 0.950 . S
C1896 C1897 1.386 . S
C1896 C1898 1.391 . S
C1897 C1896 1.386 . S
C1897 C1901 1.393 . S
C1898 H1890 0.950 . S
C1898 C1896 1.391 . S
C1898 C1899 1.400 . S
C1899 C1898 1.400 . S
C1899 C1900 1.398 . S
C1899 C1905 1.491 . S
C1900 H1891 0.950 . S
C1900 C1899 1.398 . S
C1900 C1901 1.391 . S
C1901 H1889 0.950 . S
C1901 C1897 1.393 . S
C1901 C1900 1.391 . S
C1902 H1892 0.950 . S
C1902 C1903 1.386 . S
C1902 C1904 1.391 . S
C1903 C1902 1.386 . S
C1903 C1907 1.393 . S
C1904 H1893 0.950 . S
C1904 C1902 1.391 . S
C1904 C1905 1.400 . S
C1905 C1899 1.491 . S
C1905 C1904 1.400 . S
C1905 C1906 1.398 . S
C1906 H1894 0.950 . S
C1906 C1905 1.398 . S
C1906 C1907 1.391 . S
C1907 H1895 0.950 . S
C1907 C1903 1.393 . S
C1907 C1906 1.391 . S
H1908 C1916 0.950 . S
H1909 C1921 0.950 . S
H1910 C1918 0.950 . S
H1911 C1920 0.950 . S
H1912 C1922 0.950 1_455 S
H1913 C1924 0.950 . S
H1914 C1926 0.950 . S
H1915 C1927 0.950 . S
C1916 H1908 0.950 . S
C1916 C1917 1.390 . S
C1916 C1918 1.387 1_545 S
C1917 C1916 1.390 . S
C1917 C1921 1.393 . S
C1918 H1910 0.950 . S
C1918 C1916 1.387 1_565 S
C1918 C1919 1.400 . S
C1919 C1918 1.400 . S
C1919 C1920 1.398 . S
C1919 C1925 1.491 . S
C1920 H1911 0.950 . S
C1920 C1919 1.398 . S
C1920 C1921 1.391 1_565 S
C1921 H1909 0.950 . S
C1921 C1917 1.393 . S
C1921 C1920 1.391 1_545 S
C1922 H1912 0.950 1_655 S
C1922 C1923 1.386 . S
C1922 C1924 1.391 . S
C1923 C1922 1.386 . S
C1923 C1927 1.393 . S
C1924 H1913 0.950 . S
C1924 C1922 1.391 . S
C1924 C1925 1.400 . S
C1925 C1919 1.491 . S
C1925 C1924 1.400 . S
C1925 C1926 1.398 . S
C1926 H1914 0.950 . S
C1926 C1925 1.398 . S
C1926 C1927 1.391 . S
C1927 H1915 0.950 . S
C1927 C1923 1.393 . S
C1927 C1926 1.391 . S
H1928 C1936 0.950 . S
H1929 C1941 0.950 . S
H1930 C1938 0.950 . S
H1931 C1940 0.950 . S
H1932 C1942 0.950 . S
H1933 C1944 0.950 . S
H1934 C1946 0.950 . S
H1935 C1947 0.950 . S
C1936 H1928 0.950 . S
C1936 C1937 1.386 . S
C1936 C1938 1.391 . S
C1937 C1936 1.386 . S
C1937 C1941 1.393 . S
C1938 H1930 0.950 . S
C1938 C1936 1.391 . S
C1938 C1939 1.400 . S
C1939 C1938 1.400 . S
C1939 C1940 1.398 . S
C1939 C1945 1.491 . S
C1940 H1931 0.950 . S
C1940 C1939 1.398 . S
C1940 C1941 1.391 . S
C1941 H1929 0.950 . S
C1941 C1937 1.393 . S
C1941 C1940 1.391 . S
C1942 H1932 0.950 . S
C1942 C1943 1.386 . S
C1942 C1944 1.391 . S
C1943 C1942 1.386 . S
C1943 C1947 1.393 1_565 S
C1944 H1933 0.950 . S
C1944 C1942 1.391 . S
C1944 C1945 1.400 1_565 S
C1945 C1939 1.491 . S
C1945 C1944 1.400 1_545 S
C1945 C1946 1.398 . S
C1946 H1934 0.950 . S
C1946 C1945 1.398 . S
C1946 C1947 1.391 . S
C1947 H1935 0.950 . S
C1947 C1943 1.393 1_545 S
C1947 C1946 1.391 . S
H1948 C1956 0.950 . S
H1949 C1961 0.950 . S
H1950 C1958 0.950 . S
H1951 C1960 0.950 . S
H1952 C1962 0.950 . S
H1953 C1964 0.950 . S
H1954 C1966 0.950 . S
H1955 C1967 0.950 1_655 S
C1956 H1948 0.950 . S
C1956 C1957 1.386 . S
C1956 C1958 1.391 . S
C1957 C1956 1.386 . S
C1957 C1961 1.393 . S
C1958 H1950 0.950 . S
C1958 C1956 1.391 . S
C1958 C1959 1.400 . S
C1959 C1958 1.400 . S
C1959 C1960 1.398 . S
C1959 C1965 1.491 . S
C1960 H1951 0.950 . S
C1960 C1959 1.398 . S
C1960 C1961 1.391 . S
C1961 H1949 0.950 . S
C1961 C1957 1.393 . S
C1961 C1960 1.391 . S
C1962 H1952 0.950 . S
C1962 C1963 1.386 . S
C1962 C1964 1.391 . S
C1963 C1962 1.386 . S
C1963 C1967 1.393 . S
C1964 H1953 0.950 . S
C1964 C1962 1.391 . S
C1964 C1965 1.400 . S
C1965 C1959 1.491 . S
C1965 C1964 1.400 . S
C1965 C1966 1.398 . S
C1966 H1954 0.950 . S
C1966 C1965 1.398 . S
C1966 C1967 1.391 . S
C1967 H1955 0.950 1_455 S
C1967 C1963 1.393 . S
C1967 C1966 1.391 . S
H1968 C1976 0.950 . S
H1969 C1981 0.950 . S
H1970 C1978 0.950 . S
H1971 C1980 0.950 . S
H1972 C1982 0.950 . S
H1973 C1984 0.950 . S
H1974 C1986 0.950 . S
H1975 C1987 0.950 . S
C1976 H1968 0.950 . S
C1976 C1977 1.386 . S
C1976 C1978 1.391 . S
C1977 C1976 1.386 . S
C1977 C1981 1.393 . S
C1978 H1970 0.950 . S
C1978 C1976 1.391 . S
C1978 C1979 1.400 . S
C1979 C1978 1.400 . S
C1979 C1980 1.398 . S
C1979 C1985 1.491 . S
C1980 H1971 0.950 . S
C1980 C1979 1.398 . S
C1980 C1981 1.391 . S
C1981 H1969 0.950 . S
C1981 C1977 1.393 . S
C1981 C1980 1.391 . S
C1982 H1972 0.950 . S
C1982 C1983 1.386 . S
C1982 C1984 1.391 . S
C1983 C1982 1.386 . S
C1983 C1987 1.393 . S
C1984 H1973 0.950 . S
C1984 C1982 1.391 . S
C1984 C1985 1.400 . S
C1985 C1979 1.491 . S
C1985 C1984 1.400 . S
C1985 C1986 1.398 . S
C1986 H1974 0.950 . S
C1986 C1985 1.398 . S
C1986 C1987 1.391 . S
C1987 H1975 0.950 . S
C1987 C1983 1.393 . S
C1987 C1986 1.391 . S
H1988 C1996 0.950 . S
H1989 C2001 0.950 . S
H1990 C1998 0.950 . S
H1991 C2000 0.950 . S
H1992 C2002 0.950 . S
H1993 C2004 0.950 . S
H1994 C2006 0.950 . S
H1995 C2007 0.950 . S
C1996 H1988 0.950 . S
C1996 C1997 1.386 . S
C1996 C1998 1.391 . S
C1997 C1996 1.386 . S
C1997 C2001 1.393 . S
C1998 H1990 0.950 . S
C1998 C1996 1.391 . S
C1998 C1999 1.400 . S
C1999 C1998 1.400 . S
C1999 C2000 1.398 . S
C1999 C2005 1.491 . S
C2000 H1991 0.950 . S
C2000 C1999 1.398 . S
C2000 C2001 1.391 . S
C2001 H1989 0.950 . S
C2001 C1997 1.393 . S
C2001 C2000 1.391 . S
C2002 H1992 0.950 . S
C2002 C2003 1.386 . S
C2002 C2004 1.391 1_554 S
C2003 C2002 1.386 . S
C2003 C2007 1.393 . S
C2004 H1993 0.950 . S
C2004 C2002 1.391 1_556 S
C2004 C2005 1.400 . S
C2005 C1999 1.491 . S
C2005 C2004 1.400 . S
C2005 C2006 1.398 . S
C2006 H1994 0.950 . S
C2006 C2005 1.398 . S
C2006 C2007 1.391 1_556 S
C2007 H1995 0.950 . S
C2007 C2003 1.393 . S
C2007 C2006 1.391 1_554 S
H2008 C2016 0.950 1_545 S
H2009 C2021 0.950 . S
H2010 C2018 0.950 . S
H2011 C2020 0.950 . S
H2012 C2022 0.950 . S
H2013 C2024 0.950 . S
H2014 C2026 0.950 . S
H2015 C2027 0.950 . S
C2016 H2008 0.950 1_565 S
C2016 C2017 1.386 . S
C2016 C2018 1.391 . S
C2017 C2016 1.386 . S
C2017 C2021 1.393 . S
C2018 H2010 0.950 . S
C2018 C2016 1.391 . S
C2018 C2019 1.400 . S
C2019 C2018 1.400 . S
C2019 C2020 1.398 . S
C2019 C2025 1.491 . S
C2020 H2011 0.950 . S
C2020 C2019 1.398 . S
C2020 C2021 1.391 . S
C2021 H2009 0.950 . S
C2021 C2017 1.393 . S
C2021 C2020 1.391 . S
C2022 H2012 0.950 . S
C2022 C2023 1.386 . S
C2022 C2024 1.391 . S
C2023 C2022 1.386 . S
C2023 C2027 1.393 . S
C2024 H2013 0.950 . S
C2024 C2022 1.391 . S
C2024 C2025 1.400 . S
C2025 C2019 1.491 . S
C2025 C2024 1.400 . S
C2025 C2026 1.398 . S
C2026 H2014 0.950 . S
C2026 C2025 1.398 . S
C2026 C2027 1.391 . S
C2027 H2015 0.950 . S
C2027 C2023 1.393 . S
C2027 C2026 1.391 . S
H2028 C2036 0.950 . S
H2029 C2041 0.950 . S
H2030 C2038 0.950 . S
H2031 C2040 0.950 . S
H2032 C2042 0.950 . S
H2033 C2044 0.950 . S
H2034 C2046 0.950 . S
H2035 C2047 0.950 . S
C2036 H2028 0.950 . S
C2036 C2037 1.386 . S
C2036 C2038 1.391 . S
C2037 C2036 1.386 . S
C2037 C2041 1.393 . S
C2038 H2030 0.950 . S
C2038 C2036 1.391 . S
C2038 C2039 1.400 . S
C2039 C2038 1.400 . S
C2039 C2040 1.398 . S
C2039 C2045 1.491 . S
C2040 H2031 0.950 . S
C2040 C2039 1.398 . S
C2040 C2041 1.391 . S
C2041 H2029 0.950 . S
C2041 C2037 1.393 . S
C2041 C2040 1.391 . S
C2042 H2032 0.950 . S
C2042 C2043 1.386 . S
C2042 C2044 1.391 1_556 S
C2043 C2042 1.386 . S
C2043 C2047 1.393 . S
C2044 H2033 0.950 . S
C2044 C2042 1.391 1_554 S
C2044 C2045 1.400 . S
C2045 C2039 1.491 . S
C2045 C2044 1.400 . S
C2045 C2046 1.398 . S
C2046 H2034 0.950 . S
C2046 C2045 1.398 . S
C2046 C2047 1.391 1_554 S
C2047 H2035 0.950 . S
C2047 C2043 1.393 . S
C2047 C2046 1.391 1_556 S
H2048 C2056 0.950 . S
H2049 C2061 0.950 . S
H2050 C2058 0.950 . S
H2051 C2060 0.950 . S
H2052 C2062 0.950 . S
H2053 C2064 0.950 . S
H2054 C2066 0.950 . S
H2055 C2067 0.950 . S
C2056 H2048 0.950 . S
C2056 C2057 1.386 . S
C2056 C2058 1.391 . S
C2057 C2056 1.386 . S
C2057 C2061 1.393 . S
C2058 H2050 0.950 . S
C2058 C2056 1.391 . S
C2058 C2059 1.400 . S
C2059 C2058 1.400 . S
C2059 C2060 1.398 . S
C2059 C2065 1.491 . S
C2060 H2051 0.950 . S
C2060 C2059 1.398 . S
C2060 C2061 1.391 . S
C2061 H2049 0.950 . S
C2061 C2057 1.393 . S
C2061 C2060 1.391 . S
C2062 H2052 0.950 . S
C2062 C2063 1.386 . S
C2062 C2064 1.391 . S
C2063 C2062 1.386 . S
C2063 C2067 1.393 . S
C2064 H2053 0.950 . S
C2064 C2062 1.391 . S
C2064 C2065 1.400 . S
C2065 C2059 1.491 . S
C2065 C2064 1.400 . S
C2065 C2066 1.398 . S
C2066 H2054 0.950 . S
C2066 C2065 1.398 . S
C2066 C2067 1.391 . S
C2067 H2055 0.950 . S
C2067 C2063 1.393 . S
C2067 C2066 1.391 . S
H2068 C2076 0.950 . S
H2069 C2081 0.952 . S
H2070 C2078 0.950 . S
H2071 C2080 0.950 . S
H2072 C2082 0.950 . S
H2073 C2084 0.950 . S
H2074 C2086 0.950 . S
H2075 C2087 0.950 . S
C2076 H2068 0.950 . S
C2076 C2077 1.386 . S
C2076 C2078 1.391 1_655 S
C2077 C2076 1.386 . S
C2077 C2081 1.393 1_655 S
C2078 H2070 0.950 . S
C2078 C2076 1.391 1_455 S
C2078 C2079 1.400 . S
C2079 C2078 1.400 . S
C2079 C2080 1.398 . S
C2079 C2085 1.491 . S
C2080 H2071 0.950 . S
C2080 C2079 1.398 . S
C2080 C2081 1.391 . S
C2081 H2069 0.952 . S
C2081 C2077 1.393 1_455 S
C2081 C2080 1.391 . S
C2082 H2072 0.950 . S
C2082 C2083 1.386 . S
C2082 C2084 1.391 . S
C2083 C2082 1.386 . S
C2083 C2087 1.393 . S
C2084 H2073 0.950 . S
C2084 C2082 1.391 . S
C2084 C2085 1.400 . S
C2085 C2079 1.491 . S
C2085 C2084 1.400 . S
C2085 C2086 1.398 . S
C2086 H2074 0.950 . S
C2086 C2085 1.398 . S
C2086 C2087 1.391 . S
C2087 H2075 0.950 . S
C2087 C2083 1.393 . S
C2087 C2086 1.391 . S
H2088 C2096 0.950 . S
H2089 C2101 0.950 . S
H2090 C2098 0.947 1_455 S
H2091 C2100 0.950 . S
H2092 C2102 0.950 . S
H2093 C2104 0.950 . S
H2094 C2106 0.950 . S
H2095 C2107 0.950 . S
C2096 H2088 0.950 . S
C2096 C2097 1.386 . S
C2096 C2098 1.378 1_455 S
C2097 C2096 1.386 . S
C2097 C2101 1.393 1_455 S
C2098 H2090 0.947 1_655 S
C2098 C2096 1.378 1_655 S
C2098 C2099 1.415 . S
C2099 C2098 1.415 . S
C2099 C2100 1.398 . S
C2099 C2105 1.491 . S
C2100 H2091 0.950 . S
C2100 C2099 1.398 . S
C2100 C2101 1.391 . S
C2101 H2089 0.950 . S
C2101 C2097 1.393 1_655 S
C2101 C2100 1.391 . S
C2102 H2092 0.950 . S
C2102 C2103 1.386 . S
C2102 C2104 1.391 . S
C2103 C2102 1.386 . S
C2103 C2107 1.393 . S
C2104 H2093 0.950 . S
C2104 C2102 1.391 . S
C2104 C2105 1.400 . S
C2105 C2099 1.491 . S
C2105 C2104 1.400 . S
C2105 C2106 1.398 . S
C2106 H2094 0.950 . S
C2106 C2105 1.398 . S
C2106 C2107 1.391 . S
C2107 H2095 0.950 . S
C2107 C2103 1.393 . S
C2107 C2106 1.391 . S
H2108 C2116 0.950 . S
H2109 C2121 0.950 . S
H2110 C2118 0.950 . S
H2111 C2120 0.950 . S
H2112 C2122 0.950 1_554 S
H2113 C2124 0.950 . S
H2114 C2126 0.950 . S
H2115 C2127 0.950 . S
C2116 H2108 0.950 . S
C2116 C2117 1.386 . S
C2116 C2118 1.391 . S
C2117 C2116 1.386 . S
C2117 C2121 1.393 . S
C2118 H2110 0.950 . S
C2118 C2116 1.391 . S
C2118 C2119 1.400 . S
C2119 C2118 1.400 . S
C2119 C2120 1.398 . S
C2119 C2125 1.491 . S
C2120 H2111 0.950 . S
C2120 C2119 1.398 . S
C2120 C2121 1.391 . S
C2121 H2109 0.950 . S
C2121 C2117 1.393 . S
C2121 C2120 1.391 . S
C2122 H2112 0.950 1_556 S
C2122 C2123 1.386 . S
C2122 C2124 1.391 . S
C2123 C2122 1.386 . S
C2123 C2127 1.393 . S
C2124 H2113 0.950 . S
C2124 C2122 1.391 . S
C2124 C2125 1.400 . S
C2125 C2119 1.491 . S
C2125 C2124 1.400 . S
C2125 C2126 1.398 . S
C2126 H2114 0.950 . S
C2126 C2125 1.398 . S
C2126 C2127 1.391 . S
C2127 H2115 0.950 . S
C2127 C2123 1.393 . S
C2127 C2126 1.391 . S
H2128 C2136 0.950 . S
H2129 C2141 0.950 . S
H2130 C2138 0.950 . S
H2131 C2140 0.950 . S
H2132 C2142 0.950 . S
H2133 C2144 0.950 . S
H2134 C2146 0.950 . S
H2135 C2147 0.950 . S
C2136 H2128 0.950 . S
C2136 C2137 1.386 . S
C2136 C2138 1.391 . S
C2137 C2136 1.386 . S
C2137 C2141 1.393 . S
C2138 H2130 0.950 . S
C2138 C2136 1.391 . S
C2138 C2139 1.400 . S
C2139 C2138 1.400 . S
C2139 C2140 1.398 . S
C2139 C2145 1.491 . S
C2140 H2131 0.950 . S
C2140 C2139 1.398 . S
C2140 C2141 1.391 . S
C2141 H2129 0.950 . S
C2141 C2137 1.393 . S
C2141 C2140 1.391 . S
C2142 H2132 0.950 . S
C2142 C2143 1.386 . S
C2142 C2144 1.391 . S
C2143 C2142 1.386 . S
C2143 C2147 1.393 . S
C2144 H2133 0.950 . S
C2144 C2142 1.391 . S
C2144 C2145 1.400 . S
C2145 C2139 1.491 . S
C2145 C2144 1.400 . S
C2145 C2146 1.398 . S
C2146 H2134 0.950 . S
C2146 C2145 1.398 . S
C2146 C2147 1.391 . S
C2147 H2135 0.950 . S
C2147 C2143 1.393 . S
C2147 C2146 1.391 . S
H2148 C2156 0.950 . S
H2149 C2161 0.950 1_655 S
H2150 C2158 0.950 . S
H2151 C2160 0.950 . S
H2152 C2162 0.950 . S
H2153 C2164 0.952 . S
H2154 C2166 0.950 . S
H2155 C2167 0.950 . S
C2156 H2148 0.950 . S
C2156 C2157 1.386 . S
C2156 C2158 1.391 . S
C2157 C2156 1.386 . S
C2157 C2161 1.393 . S
C2158 H2150 0.950 . S
C2158 C2156 1.391 . S
C2158 C2159 1.400 . S
C2159 C2158 1.400 . S
C2159 C2160 1.398 . S
C2159 C2165 1.491 . S
C2160 H2151 0.950 . S
C2160 C2159 1.398 . S
C2160 C2161 1.391 . S
C2161 H2149 0.950 1_455 S
C2161 C2157 1.393 . S
C2161 C2160 1.391 . S
C2162 H2152 0.950 . S
C2162 C2163 1.386 . S
C2162 C2164 1.391 1_565 S
C2163 C2162 1.386 . S
C2163 C2167 1.393 1_565 S
C2164 H2153 0.952 . S
C2164 C2162 1.391 1_545 S
C2164 C2165 1.400 . S
C2165 C2159 1.491 . S
C2165 C2164 1.400 . S
C2165 C2166 1.398 . S
C2166 H2154 0.950 . S
C2166 C2165 1.398 . S
C2166 C2167 1.391 . S
C2167 H2155 0.950 . S
C2167 C2163 1.393 1_545 S
C2167 C2166 1.391 . S
H2168 C2176 0.950 . S
H2169 C2181 0.950 . S
H2170 C2178 0.950 . S
H2171 C2180 0.950 . S
H2172 C2182 0.950 . S
H2173 C2184 0.950 . S
H2174 C2186 0.950 . S
H2175 C2187 0.948 1_545 S
C2176 H2168 0.950 . S
C2176 C2177 1.386 . S
C2176 C2178 1.391 . S
C2177 C2176 1.386 . S
C2177 C2181 1.393 . S
C2178 H2170 0.950 . S
C2178 C2176 1.391 . S
C2178 C2179 1.400 . S
C2179 C2178 1.400 . S
C2179 C2180 1.398 . S
C2179 C2185 1.491 . S
C2180 H2171 0.950 . S
C2180 C2179 1.398 . S
C2180 C2181 1.391 . S
C2181 H2169 0.950 . S
C2181 C2177 1.393 . S
C2181 C2180 1.391 . S
C2182 H2172 0.950 . S
C2182 C2183 1.386 . S
C2182 C2184 1.391 1_545 S
C2183 C2182 1.386 . S
C2183 C2187 1.385 1_545 S
C2184 H2173 0.950 . S
C2184 C2182 1.391 1_565 S
C2184 C2185 1.400 . S
C2185 C2179 1.491 . S
C2185 C2184 1.400 . S
C2185 C2186 1.398 . S
C2186 H2174 0.950 . S
C2186 C2185 1.398 . S
C2186 C2187 1.400 . S
C2187 H2175 0.948 1_565 S
C2187 C2183 1.385 1_565 S
C2187 C2186 1.400 . S
H2188 C2196 0.950 1_455 S
H2189 C2201 0.950 . S
H2190 C2198 0.950 . S
H2191 C2200 0.950 . S
H2192 C2202 0.950 . S
H2193 C2204 0.950 . S
H2194 C2206 0.950 . S
H2195 C2207 0.950 . S
C2196 H2188 0.950 1_655 S
C2196 C2197 1.386 . S
C2196 C2198 1.391 . S
C2197 C2196 1.386 . S
C2197 C2201 1.393 . S
C2198 H2190 0.950 . S
C2198 C2196 1.391 . S
C2198 C2199 1.400 . S
C2199 C2198 1.400 . S
C2199 C2200 1.398 . S
C2199 C2205 1.491 . S
C2200 H2191 0.950 . S
C2200 C2199 1.398 . S
C2200 C2201 1.391 . S
C2201 H2189 0.950 . S
C2201 C2197 1.393 . S
C2201 C2200 1.391 . S
C2202 H2192 0.950 . S
C2202 C2203 1.386 . S
C2202 C2204 1.391 . S
C2203 C2202 1.386 . S
C2203 C2207 1.393 . S
C2204 H2193 0.950 . S
C2204 C2202 1.391 . S
C2204 C2205 1.400 . S
C2205 C2199 1.491 . S
C2205 C2204 1.400 . S
C2205 C2206 1.398 . S
C2206 H2194 0.950 . S
C2206 C2205 1.398 . S
C2206 C2207 1.391 . S
C2207 H2195 0.950 . S
C2207 C2203 1.393 . S
C2207 C2206 1.391 . S
H2208 C2216 0.950 . S
H2209 C2221 0.950 . S
H2210 C2218 0.950 . S
H2211 C2220 0.950 . S
H2212 C2222 0.950 . S
H2213 C2224 0.950 . S
H2214 C2226 0.950 . S
H2215 C2227 0.950 . S
C2216 H2208 0.950 . S
C2216 C2217 1.386 . S
C2216 C2218 1.391 . S
C2217 C2216 1.386 . S
C2217 C2221 1.393 . S
C2218 H2210 0.950 . S
C2218 C2216 1.391 . S
C2218 C2219 1.400 . S
C2219 C2218 1.400 . S
C2219 C2220 1.398 . S
C2219 C2225 1.491 . S
C2220 H2211 0.950 . S
C2220 C2219 1.398 . S
C2220 C2221 1.391 . S
C2221 H2209 0.950 . S
C2221 C2217 1.393 . S
C2221 C2220 1.391 . S
C2222 H2212 0.950 . S
C2222 C2223 1.386 . S
C2222 C2224 1.391 . S
C2223 C2222 1.386 . S
C2223 C2227 1.393 . S
C2224 H2213 0.950 . S
C2224 C2222 1.391 . S
C2224 C2225 1.400 . S
C2225 C2219 1.491 . S
C2225 C2224 1.400 . S
C2225 C2226 1.398 . S
C2226 H2214 0.950 . S
C2226 C2225 1.398 . S
C2226 C2227 1.391 . S
C2227 H2215 0.950 . S
C2227 C2223 1.393 . S
C2227 C2226 1.391 . S
H2228 C2236 0.950 . S
H2229 C2241 0.950 . S
H2230 C2238 0.950 . S
H2231 C2240 0.950 . S
H2232 C2242 0.950 1_554 S
H2233 C2244 0.950 . S
H2234 C2246 0.950 . S
H2235 C2247 0.950 . S
C2236 H2228 0.950 . S
C2236 C2237 1.386 . S
C2236 C2238 1.391 . S
C2237 C2236 1.386 . S
C2237 C2241 1.393 . S
C2238 H2230 0.950 . S
C2238 C2236 1.391 . S
C2238 C2239 1.400 . S
C2239 C2238 1.400 . S
C2239 C2240 1.398 . S
C2239 C2245 1.491 . S
C2240 H2231 0.950 . S
C2240 C2239 1.398 . S
C2240 C2241 1.391 . S
C2241 H2229 0.950 . S
C2241 C2237 1.393 . S
C2241 C2240 1.391 . S
C2242 H2232 0.950 1_556 S
C2242 C2243 1.386 . S
C2242 C2244 1.391 1_556 S
C2243 C2242 1.386 . S
C2243 C2247 1.393 . S
C2244 H2233 0.950 . S
C2244 C2242 1.391 1_554 S
C2244 C2245 1.400 . S
C2245 C2239 1.491 . S
C2245 C2244 1.400 . S
C2245 C2246 1.398 1_554 S
C2246 H2234 0.950 . S
C2246 C2245 1.398 1_556 S
C2246 C2247 1.391 . S
C2247 H2235 0.950 . S
C2247 C2243 1.393 . S
C2247 C2246 1.391 . S
H2248 C2256 0.950 . S
H2249 C2261 0.950 . S
H2250 C2258 0.950 . S
H2251 C2260 0.950 . S
H2252 C2262 0.950 . S
H2253 C2264 0.950 . S
H2254 C2266 0.950 . S
H2255 C2267 0.950 . S
C2256 H2248 0.950 . S
C2256 C2257 1.386 . S
C2256 C2258 1.391 . S
C2257 C2256 1.386 . S
C2257 C2261 1.393 . S
C2258 H2250 0.950 . S
C2258 C2256 1.391 . S
C2258 C2259 1.400 . S
C2259 C2258 1.400 . S
C2259 C2260 1.398 . S
C2259 C2265 1.491 . S
C2260 H2251 0.950 . S
C2260 C2259 1.398 . S
C2260 C2261 1.391 . S
C2261 H2249 0.950 . S
C2261 C2257 1.393 . S
C2261 C2260 1.391 . S
C2262 H2252 0.950 . S
C2262 C2263 1.386 . S
C2262 C2264 1.391 . S
C2263 C2262 1.386 . S
C2263 C2267 1.393 . S
C2264 H2253 0.950 . S
C2264 C2262 1.391 . S
C2264 C2265 1.400 . S
C2265 C2259 1.491 . S
C2265 C2264 1.400 . S
C2265 C2266 1.398 . S
C2266 H2254 0.950 . S
C2266 C2265 1.398 . S
C2266 C2267 1.391 . S
C2267 H2255 0.950 . S
C2267 C2263 1.393 . S
C2267 C2266 1.391 . S
H2268 C2276 0.950 . S
H2269 C2281 0.950 . S
H2270 C2278 0.950 . S
H2271 C2280 0.950 . S
H2272 C2282 0.950 . S
H2273 C2284 0.950 . S
H2274 C2286 0.950 . S
H2275 C2287 0.950 1_556 S
C2276 H2268 0.950 . S
C2276 C2277 1.386 . S
C2276 C2278 1.391 . S
C2277 C2276 1.386 . S
C2277 C2281 1.393 . S
C2278 H2270 0.950 . S
C2278 C2276 1.391 . S
C2278 C2279 1.400 . S
C2279 C2278 1.400 . S
C2279 C2280 1.398 . S
C2279 C2285 1.491 . S
C2280 H2271 0.950 . S
C2280 C2279 1.398 . S
C2280 C2281 1.391 . S
C2281 H2269 0.950 . S
C2281 C2277 1.393 . S
C2281 C2280 1.391 . S
C2282 H2272 0.950 . S
C2282 C2283 1.386 . S
C2282 C2284 1.391 . S
C2283 C2282 1.386 . S
C2283 C2287 1.393 . S
C2284 H2273 0.950 . S
C2284 C2282 1.391 . S
C2284 C2285 1.400 1_554 S
C2285 C2279 1.491 . S
C2285 C2284 1.400 1_556 S
C2285 C2286 1.398 . S
C2286 H2274 0.950 . S
C2286 C2285 1.398 . S
C2286 C2287 1.391 1_556 S
C2287 H2275 0.950 1_554 S
C2287 C2283 1.393 . S
C2287 C2286 1.391 1_554 S
H2288 C2296 0.950 . S
H2289 C2301 0.950 . S
H2290 C2298 0.950 . S
H2291 C2300 0.950 . S
H2292 C2302 0.950 . S
H2293 C2304 0.950 . S
H2294 C2306 0.950 . S
H2295 C2307 0.950 . S
C2296 H2288 0.950 . S
C2296 C2297 1.386 . S
C2296 C2298 1.391 . S
C2297 C2296 1.386 . S
C2297 C2301 1.393 . S
C2298 H2290 0.950 . S
C2298 C2296 1.391 . S
C2298 C2299 1.400 . S
C2299 C2298 1.400 . S
C2299 C2300 1.398 . S
C2299 C2305 1.491 . S
C2300 H2291 0.950 . S
C2300 C2299 1.398 . S
C2300 C2301 1.391 . S
C2301 H2289 0.950 . S
C2301 C2297 1.393 . S
C2301 C2300 1.391 . S
C2302 H2292 0.950 . S
C2302 C2303 1.386 . S
C2302 C2304 1.391 . S
C2303 C2302 1.386 . S
C2303 C2307 1.393 . S
C2304 H2293 0.950 . S
C2304 C2302 1.391 . S
C2304 C2305 1.400 . S
C2305 C2299 1.491 . S
C2305 C2304 1.400 . S
C2305 C2306 1.398 . S
C2306 H2294 0.950 . S
C2306 C2305 1.398 . S
C2306 C2307 1.391 . S
C2307 H2295 0.950 . S
C2307 C2303 1.393 . S
C2307 C2306 1.391 . S
H2308 C2316 0.950 . S
H2309 C2321 0.950 . S
H2310 C2318 0.950 . S
H2311 C2320 0.950 . S
H2312 C2322 0.950 . S
H2313 C2324 0.950 . S
H2314 C2326 0.950 . S
H2315 C2327 0.950 1_655 S
C2316 H2308 0.950 . S
C2316 C2317 1.386 . S
C2316 C2318 1.391 . S
C2317 C2316 1.386 . S
C2317 C2321 1.393 . S
C2318 H2310 0.950 . S
C2318 C2316 1.391 . S
C2318 C2319 1.400 . S
C2319 C2318 1.400 . S
C2319 C2320 1.398 . S
C2319 C2325 1.491 . S
C2320 H2311 0.950 . S
C2320 C2319 1.398 . S
C2320 C2321 1.391 . S
C2321 H2309 0.950 . S
C2321 C2317 1.393 . S
C2321 C2320 1.391 . S
C2322 H2312 0.950 . S
C2322 C2323 1.386 . S
C2322 C2324 1.391 . S
C2323 C2322 1.386 . S
C2323 C2327 1.393 . S
C2324 H2313 0.950 . S
C2324 C2322 1.391 . S
C2324 C2325 1.400 1_455 S
C2325 C2319 1.491 . S
C2325 C2324 1.400 1_655 S
C2325 C2326 1.398 . S
C2326 H2314 0.950 . S
C2326 C2325 1.398 . S
C2326 C2327 1.391 1_655 S
C2327 H2315 0.950 1_455 S
C2327 C2323 1.393 . S
C2327 C2326 1.391 1_455 S
H2328 C2336 0.950 . S
H2329 C2341 0.950 1_455 S
H2330 C2338 0.950 . S
H2331 C2340 0.950 . S
H2332 C2342 0.950 . S
H2333 C2344 0.950 . S
H2334 C2346 0.950 . S
H2335 C2347 0.950 . S
C2336 H2328 0.950 . S
C2336 C2337 1.386 . S
C2336 C2338 1.391 . S
C2337 C2336 1.386 . S
C2337 C2341 1.393 . S
C2338 H2330 0.950 . S
C2338 C2336 1.391 . S
C2338 C2339 1.400 1_655 S
C2339 C2338 1.400 1_455 S
C2339 C2340 1.398 . S
C2339 C2345 1.491 . S
C2340 H2331 0.950 . S
C2340 C2339 1.398 . S
C2340 C2341 1.391 1_455 S
C2341 H2329 0.950 1_655 S
C2341 C2337 1.393 . S
C2341 C2340 1.391 1_655 S
C2342 H2332 0.950 . S
C2342 C2343 1.386 . S
C2342 C2344 1.391 . S
C2343 C2342 1.386 . S
C2343 C2347 1.393 . S
C2344 H2333 0.950 . S
C2344 C2342 1.391 . S
C2344 C2345 1.400 . S
C2345 C2339 1.491 . S
C2345 C2344 1.400 . S
C2345 C2346 1.398 . S
C2346 H2334 0.950 . S
C2346 C2345 1.398 . S
C2346 C2347 1.391 . S
C2347 H2335 0.950 . S
C2347 C2343 1.393 . S
C2347 C2346 1.391 . S
H2348 C2356 0.950 . S
H2349 C2361 0.950 . S
H2350 C2358 0.950 . S
H2351 C2360 0.950 . S
H2352 C2362 0.950 . S
H2353 C2364 0.950 . S
H2354 C2366 0.950 . S
H2355 C2367 0.950 . S
C2356 H2348 0.950 . S
C2356 C2357 1.386 . S
C2356 C2358 1.391 . S
C2357 C2356 1.386 . S
C2357 C2361 1.393 . S
C2358 H2350 0.950 . S
C2358 C2356 1.391 . S
C2358 C2359 1.400 . S
C2359 C2358 1.400 . S
C2359 C2360 1.398 . S
C2359 C2365 1.491 . S
C2360 H2351 0.950 . S
C2360 C2359 1.398 . S
C2360 C2361 1.391 . S
C2361 H2349 0.950 . S
C2361 C2357 1.393 . S
C2361 C2360 1.391 . S
C2362 H2352 0.950 . S
C2362 C2363 1.386 . S
C2362 C2364 1.391 . S
C2363 C2362 1.386 . S
C2363 C2367 1.393 . S
C2364 H2353 0.950 . S
C2364 C2362 1.391 . S
C2364 C2365 1.400 . S
C2365 C2359 1.491 . S
C2365 C2364 1.400 . S
C2365 C2366 1.398 . S
C2366 H2354 0.950 . S
C2366 C2365 1.398 . S
C2366 C2367 1.391 . S
C2367 H2355 0.950 . S
C2367 C2363 1.393 . S
C2367 C2366 1.391 . S
H2368 C2376 0.950 . S
H2369 C2381 0.950 . S
H2370 C2378 0.950 . S
H2371 C2380 0.950 . S
H2372 C2382 0.950 . S
H2373 C2384 0.950 . S
H2374 C2386 0.950 . S
H2375 C2387 0.950 . S
C2376 H2368 0.950 . S
C2376 C2377 1.386 . S
C2376 C2378 1.391 . S
C2377 C2376 1.386 . S
C2377 C2381 1.393 . S
C2378 H2370 0.950 . S
C2378 C2376 1.391 . S
C2378 C2379 1.400 . S
C2379 C2378 1.400 . S
C2379 C2380 1.398 . S
C2379 C2385 1.491 . S
C2380 H2371 0.950 . S
C2380 C2379 1.398 . S
C2380 C2381 1.391 . S
C2381 H2369 0.950 . S
C2381 C2377 1.393 . S
C2381 C2380 1.391 . S
C2382 H2372 0.950 . S
C2382 C2383 1.386 . S
C2382 C2384 1.391 . S
C2383 C2382 1.386 . S
C2383 C2387 1.393 . S
C2384 H2373 0.950 . S
C2384 C2382 1.391 . S
C2384 C2385 1.400 . S
C2385 C2379 1.491 . S
C2385 C2384 1.400 . S
C2385 C2386 1.398 . S
C2386 H2374 0.950 . S
C2386 C2385 1.398 . S
C2386 C2387 1.391 . S
C2387 H2375 0.950 . S
C2387 C2383 1.393 . S
C2387 C2386 1.391 . S
H2388 C2396 0.950 . S
H2389 C2401 0.950 . S
H2390 C2398 0.950 . S
H2391 C2400 0.950 . S
H2392 C2402 0.950 . S
H2393 C2404 0.950 . S
H2394 C2406 0.950 . S
H2395 C2407 0.950 . S
C2396 H2388 0.950 . S
C2396 C2397 1.386 . S
C2396 C2398 1.391 . S
C2397 C2396 1.386 . S
C2397 C2401 1.393 . S
C2398 H2390 0.950 . S
C2398 C2396 1.391 . S
C2398 C2399 1.400 . S
C2399 C2398 1.400 . S
C2399 C2400 1.398 . S
C2399 C2405 1.491 . S
C2400 H2391 0.950 . S
C2400 C2399 1.398 . S
C2400 C2401 1.391 . S
C2401 H2389 0.950 . S
C2401 C2397 1.393 . S
C2401 C2400 1.391 . S
C2402 H2392 0.950 . S
C2402 C2403 1.386 . S
C2402 C2404 1.391 . S
C2403 C2402 1.386 . S
C2403 C2407 1.393 . S
C2404 H2393 0.950 . S
C2404 C2402 1.391 . S
C2404 C2405 1.400 1_545 S
C2405 C2399 1.491 . S
C2405 C2404 1.400 1_565 S
C2405 C2406 1.398 . S
C2406 H2394 0.950 . S
C2406 C2405 1.398 . S
C2406 C2407 1.391 1_565 S
C2407 H2395 0.950 . S
C2407 C2403 1.393 . S
C2407 C2406 1.391 1_545 S
H2408 C2416 0.950 . S
H2409 C2421 0.944 1_545 S
H2410 C2418 0.950 . S
H2411 C2420 0.950 . S
H2412 C2422 0.950 . S
H2413 C2424 0.950 . S
H2414 C2426 0.950 . S
H2415 C2427 0.950 . S
C2416 H2408 0.950 . S
C2416 C2417 1.386 . S
C2416 C2418 1.391 . S
C2417 C2416 1.386 . S
C2417 C2421 1.393 . S
C2418 H2410 0.950 . S
C2418 C2416 1.391 . S
C2418 C2419 1.400 1_565 S
C2419 C2418 1.400 1_545 S
C2419 C2420 1.398 . S
C2419 C2425 1.491 . S
C2420 H2411 0.950 . S
C2420 C2419 1.398 . S
C2420 C2421 1.391 1_545 S
C2421 H2409 0.944 1_565 S
C2421 C2417 1.393 . S
C2421 C2420 1.391 1_565 S
C2422 H2412 0.950 . S
C2422 C2423 1.386 . S
C2422 C2424 1.391 . S
C2423 C2422 1.386 . S
C2423 C2427 1.393 . S
C2424 H2413 0.950 . S
C2424 C2422 1.391 . S
C2424 C2425 1.400 . S
C2425 C2419 1.491 . S
C2425 C2424 1.400 . S
C2425 C2426 1.398 . S
C2426 H2414 0.950 . S
C2426 C2425 1.398 . S
C2426 C2427 1.391 . S
C2427 H2415 0.950 . S
C2427 C2423 1.393 . S
C2427 C2426 1.391 . S
H2428 C2436 0.950 . S
H2429 C2441 0.950 . S
H2430 C2438 0.950 . S
H2431 C2440 0.950 . S
H2432 C2442 0.950 . S
H2433 C2444 0.950 . S
H2434 C2446 0.950 . S
H2435 C2447 0.950 . S
C2436 H2428 0.950 . S
C2436 C2437 1.386 . S
C2436 C2438 1.391 . S
C2437 C2436 1.386 . S
C2437 C2441 1.393 . S
C2438 H2430 0.950 . S
C2438 C2436 1.391 . S
C2438 C2439 1.400 . S
C2439 C2438 1.400 . S
C2439 C2440 1.398 . S
C2439 C2445 1.491 . S
C2440 H2431 0.950 . S
C2440 C2439 1.398 . S
C2440 C2441 1.391 . S
C2441 H2429 0.950 . S
C2441 C2437 1.393 . S
C2441 C2440 1.391 . S
C2442 H2432 0.950 . S
C2442 C2443 1.386 . S
C2442 C2444 1.391 . S
C2443 C2442 1.386 . S
C2443 C2447 1.393 . S
C2444 H2433 0.950 . S
C2444 C2442 1.391 . S
C2444 C2445 1.400 . S
C2445 C2439 1.491 . S
C2445 C2444 1.400 . S
C2445 C2446 1.398 . S
C2446 H2434 0.950 . S
C2446 C2445 1.398 . S
C2446 C2447 1.391 . S
C2447 H2435 0.950 . S
C2447 C2443 1.393 . S
C2447 C2446 1.391 . S
H2448 C2456 0.950 . S
H2449 C2461 0.950 . S
H2450 C2458 0.950 . S
H2451 C2460 0.950 . S
H2452 C2462 0.950 . S
H2453 C2464 0.950 . S
H2454 C2466 0.950 . S
H2455 C2467 0.950 . S
C2456 H2448 0.950 . S
C2456 C2457 1.386 . S
C2456 C2458 1.391 . S
C2457 C2456 1.386 . S
C2457 C2461 1.393 . S
C2458 H2450 0.950 . S
C2458 C2456 1.391 . S
C2458 C2459 1.400 . S
C2459 C2458 1.400 . S
C2459 C2460 1.398 . S
C2459 C2465 1.491 . S
C2460 H2451 0.950 . S
C2460 C2459 1.398 . S
C2460 C2461 1.391 . S
C2461 H2449 0.950 . S
C2461 C2457 1.393 . S
C2461 C2460 1.391 . S
C2462 H2452 0.950 . S
C2462 C2463 1.386 . S
C2462 C2464 1.391 . S
C2463 C2462 1.386 . S
C2463 C2467 1.393 . S
C2464 H2453 0.950 . S
C2464 C2462 1.391 . S
C2464 C2465 1.400 . S
C2465 C2459 1.491 . S
C2465 C2464 1.400 . S
C2465 C2466 1.398 . S
C2466 H2454 0.950 . S
C2466 C2465 1.398 . S
C2466 C2467 1.391 . S
C2467 H2455 0.950 . S
C2467 C2463 1.393 . S
C2467 C2466 1.391 . S
H2468 C2476 0.950 1_556 S
H2469 C2481 0.950 . S
H2470 C2478 0.950 . S
H2471 C2480 0.950 . S
H2472 C2482 0.950 . S
H2473 C2484 0.950 . S
H2474 C2486 0.950 . S
H2475 C2487 0.950 . S
C2476 H2468 0.950 1_554 S
C2476 C2477 1.386 . S
C2476 C2478 1.391 1_554 S
C2477 C2476 1.386 . S
C2477 C2481 1.393 . S
C2478 H2470 0.950 . S
C2478 C2476 1.391 1_556 S
C2478 C2479 1.400 . S
C2479 C2478 1.400 . S
C2479 C2480 1.398 1_556 S
C2479 C2485 1.491 . S
C2480 H2471 0.950 . S
C2480 C2479 1.398 1_554 S
C2480 C2481 1.391 . S
C2481 H2469 0.950 . S
C2481 C2477 1.393 . S
C2481 C2480 1.391 . S
C2482 H2472 0.950 . S
C2482 C2483 1.386 . S
C2482 C2484 1.391 . S
C2483 C2482 1.386 . S
C2483 C2487 1.393 . S
C2484 H2473 0.950 . S
C2484 C2482 1.391 . S
C2484 C2485 1.400 . S
C2485 C2479 1.491 . S
C2485 C2484 1.400 . S
C2485 C2486 1.398 . S
C2486 H2474 0.950 . S
C2486 C2485 1.398 . S
C2486 C2487 1.391 . S
C2487 H2475 0.950 . S
C2487 C2483 1.393 . S
C2487 C2486 1.391 . S
H2488 C2496 0.950 . S
H2489 C2501 0.950 . S
H2490 C2498 0.950 . S
H2491 C2500 0.950 . S
H2492 C2502 0.950 . S
H2493 C2504 0.950 . S
H2494 C2506 0.950 . S
H2495 C2507 0.950 . S
C2496 H2488 0.950 . S
C2496 C2497 1.386 . S
C2496 C2498 1.391 . S
C2497 C2496 1.386 . S
C2497 C2501 1.393 . S
C2498 H2490 0.950 . S
C2498 C2496 1.391 . S
C2498 C2499 1.400 . S
C2499 C2498 1.400 . S
C2499 C2500 1.398 . S
C2499 C2505 1.491 . S
C2500 H2491 0.950 . S
C2500 C2499 1.398 . S
C2500 C2501 1.391 . S
C2501 H2489 0.950 . S
C2501 C2497 1.393 . S
C2501 C2500 1.391 . S
C2502 H2492 0.950 . S
C2502 C2503 1.386 . S
C2502 C2504 1.391 . S
C2503 C2502 1.386 . S
C2503 C2507 1.393 . S
C2504 H2493 0.950 . S
C2504 C2502 1.391 . S
C2504 C2505 1.400 . S
C2505 C2499 1.491 . S
C2505 C2504 1.400 . S
C2505 C2506 1.398 . S
C2506 H2494 0.950 . S
C2506 C2505 1.398 . S
C2506 C2507 1.391 . S
C2507 H2495 0.950 . S
C2507 C2503 1.393 . S
C2507 C2506 1.391 . S
H2508 C2516 0.950 . S
H2509 C2521 0.950 . S
H2510 C2518 0.950 . S
H2511 C2520 0.950 . S
H2512 C2522 0.950 . S
H2513 C2524 0.950 . S
H2514 C2526 0.950 . S
H2515 C2527 0.950 . S
C2516 H2508 0.950 . S
C2516 C2517 1.386 . S
C2516 C2518 1.391 . S
C2517 C2516 1.386 . S
C2517 C2521 1.393 . S
C2518 H2510 0.950 . S
C2518 C2516 1.391 . S
C2518 C2519 1.400 . S
C2519 C2518 1.400 . S
C2519 C2520 1.398 . S
C2519 C2525 1.491 . S
C2520 H2511 0.950 . S
C2520 C2519 1.398 . S
C2520 C2521 1.391 . S
C2521 H2509 0.950 . S
C2521 C2517 1.393 . S
C2521 C2520 1.391 . S
C2522 H2512 0.950 . S
C2522 C2523 1.386 . S
C2522 C2524 1.391 1_556 S
C2523 C2522 1.386 . S
C2523 C2527 1.393 . S
C2524 H2513 0.950 . S
C2524 C2522 1.391 1_554 S
C2524 C2525 1.400 . S
C2525 C2519 1.491 . S
C2525 C2524 1.400 . S
C2525 C2526 1.398 1_554 S
C2526 H2514 0.950 . S
C2526 C2525 1.398 1_556 S
C2526 C2527 1.391 . S
C2527 H2515 0.950 . S
C2527 C2523 1.393 . S
C2527 C2526 1.391 . S
H2528 C2536 0.950 . S
H2529 C2541 0.950 . S
H2530 C2538 0.950 . S
H2531 C2540 0.950 . S
H2532 C2542 0.950 . S
H2533 C2544 0.950 . S
H2534 C2546 0.950 . S
H2535 C2547 0.950 . S
C2536 H2528 0.950 . S
C2536 C2537 1.386 . S
C2536 C2538 1.391 . S
C2537 C2536 1.386 . S
C2537 C2541 1.393 . S
C2538 H2530 0.950 . S
C2538 C2536 1.391 . S
C2538 C2539 1.400 . S
C2539 C2538 1.400 . S
C2539 C2540 1.398 . S
C2539 C2545 1.491 . S
C2540 H2531 0.950 . S
C2540 C2539 1.398 . S
C2540 C2541 1.391 . S
C2541 H2529 0.950 . S
C2541 C2537 1.393 . S
C2541 C2540 1.391 . S
C2542 H2532 0.950 . S
C2542 C2543 1.386 . S
C2542 C2544 1.391 . S
C2543 C2542 1.386 . S
C2543 C2547 1.393 . S
C2544 H2533 0.950 . S
C2544 C2542 1.391 . S
C2544 C2545 1.400 . S
C2545 C2539 1.491 . S
C2545 C2544 1.400 . S
C2545 C2546 1.398 . S
C2546 H2534 0.950 . S
C2546 C2545 1.398 . S
C2546 C2547 1.391 . S
C2547 H2535 0.950 . S
C2547 C2543 1.393 . S
C2547 C2546 1.391 . S
H2548 C2556 0.950 . S
H2549 C2561 0.950 . S
H2550 C2558 0.950 . S
H2551 C2560 0.950 . S
H2552 C2562 0.950 . S
H2553 C2564 0.950 . S
H2554 C2566 0.950 . S
H2555 C2567 0.950 . S
C2556 H2548 0.950 . S
C2556 C2557 1.386 . S
C2556 C2558 1.391 1_655 S
C2557 C2556 1.386 . S
C2557 C2561 1.393 . S
C2558 H2550 0.950 . S
C2558 C2556 1.391 1_455 S
C2558 C2559 1.400 . S
C2559 C2558 1.400 . S
C2559 C2560 1.398 1_455 S
C2559 C2565 1.491 . S
C2560 H2551 0.950 . S
C2560 C2559 1.398 1_655 S
C2560 C2561 1.391 . S
C2561 H2549 0.950 . S
C2561 C2557 1.393 . S
C2561 C2560 1.391 . S
C2562 H2552 0.950 . S
C2562 C2563 1.386 . S
C2562 C2564 1.391 . S
C2563 C2562 1.386 . S
C2563 C2567 1.393 . S
C2564 H2553 0.950 . S
C2564 C2562 1.391 . S
C2564 C2565 1.400 . S
C2565 C2559 1.491 . S
C2565 C2564 1.400 . S
C2565 C2566 1.398 . S
C2566 H2554 0.950 . S
C2566 C2565 1.398 . S
C2566 C2567 1.391 . S
C2567 H2555 0.950 . S
C2567 C2563 1.393 . S
C2567 C2566 1.391 . S
H2568 C2576 0.950 1_655 S
H2569 C2581 0.950 . S
H2570 C2578 0.950 . S
H2571 C2580 0.950 . S
H2572 C2582 0.950 . S
H2573 C2584 0.950 . S
H2574 C2586 0.950 . S
H2575 C2587 0.950 . S
C2576 H2568 0.950 1_455 S
C2576 C2577 1.386 . S
C2576 C2578 1.391 1_455 S
C2577 C2576 1.386 . S
C2577 C2581 1.393 . S
C2578 H2570 0.950 . S
C2578 C2576 1.391 1_655 S
C2578 C2579 1.400 . S
C2579 C2578 1.400 . S
C2579 C2580 1.398 1_655 S
C2579 C2585 1.491 . S
C2580 H2571 0.950 . S
C2580 C2579 1.398 1_455 S
C2580 C2581 1.391 . S
C2581 H2569 0.950 . S
C2581 C2577 1.393 . S
C2581 C2580 1.391 . S
C2582 H2572 0.950 . S
C2582 C2583 1.386 . S
C2582 C2584 1.391 . S
C2583 C2582 1.386 . S
C2583 C2587 1.393 . S
C2584 H2573 0.950 . S
C2584 C2582 1.391 . S
C2584 C2585 1.400 . S
C2585 C2579 1.491 . S
C2585 C2584 1.400 . S
C2585 C2586 1.398 . S
C2586 H2574 0.950 . S
C2586 C2585 1.398 . S
C2586 C2587 1.391 . S
C2587 H2575 0.950 . S
C2587 C2583 1.393 . S
C2587 C2586 1.391 . S
H2588 C2596 0.950 . S
H2589 C2601 0.950 . S
H2590 C2598 0.950 . S
H2591 C2600 0.950 . S
H2592 C2602 0.950 . S
H2593 C2604 0.950 . S
H2594 C2606 0.950 . S
H2595 C2607 0.950 . S
C2596 H2588 0.950 . S
C2596 C2597 1.386 . S
C2596 C2598 1.391 . S
C2597 C2596 1.386 . S
C2597 C2601 1.393 . S
C2598 H2590 0.950 . S
C2598 C2596 1.391 . S
C2598 C2599 1.400 . S
C2599 C2598 1.400 . S
C2599 C2600 1.398 . S
C2599 C2605 1.491 . S
C2600 H2591 0.950 . S
C2600 C2599 1.398 . S
C2600 C2601 1.391 . S
C2601 H2589 0.950 . S
C2601 C2597 1.393 . S
C2601 C2600 1.391 . S
C2602 H2592 0.950 . S
C2602 C2603 1.386 . S
C2602 C2604 1.391 . S
C2603 C2602 1.386 . S
C2603 C2607 1.393 . S
C2604 H2593 0.950 . S
C2604 C2602 1.391 . S
C2604 C2605 1.400 . S
C2605 C2599 1.491 . S
C2605 C2604 1.400 . S
C2605 C2606 1.398 . S
C2606 H2594 0.950 . S
C2606 C2605 1.398 . S
C2606 C2607 1.391 . S
C2607 H2595 0.950 . S
C2607 C2603 1.393 . S
C2607 C2606 1.391 . S
H2608 C2616 0.950 . S
H2609 C2621 0.950 . S
H2610 C2618 0.950 . S
H2611 C2620 0.950 . S
H2612 C2622 0.950 . S
H2613 C2624 0.950 . S
H2614 C2626 0.950 . S
H2615 C2627 0.950 . S
C2616 H2608 0.950 . S
C2616 C2617 1.386 . S
C2616 C2618 1.391 . S
C2617 C2616 1.386 . S
C2617 C2621 1.393 . S
C2618 H2610 0.950 . S
C2618 C2616 1.391 . S
C2618 C2619 1.400 . S
C2619 C2618 1.400 . S
C2619 C2620 1.398 . S
C2619 C2625 1.491 . S
C2620 H2611 0.950 . S
C2620 C2619 1.398 . S
C2620 C2621 1.391 . S
C2621 H2609 0.950 . S
C2621 C2617 1.393 . S
C2621 C2620 1.391 . S
C2622 H2612 0.950 . S
C2622 C2623 1.386 . S
C2622 C2624 1.391 . S
C2623 C2622 1.386 . S
C2623 C2627 1.393 . S
C2624 H2613 0.950 . S
C2624 C2622 1.391 . S
C2624 C2625 1.400 . S
C2625 C2619 1.491 . S
C2625 C2624 1.400 . S
C2625 C2626 1.398 . S
C2626 H2614 0.950 . S
C2626 C2625 1.398 . S
C2626 C2627 1.391 . S
C2627 H2615 0.950 . S
C2627 C2623 1.393 . S
C2627 C2626 1.391 . S
H2628 C2636 0.950 . S
H2629 C2641 0.950 . S
H2630 C2638 0.950 . S
H2631 C2640 0.950 . S
H2632 C2642 0.950 . S
H2633 C2644 0.950 . S
H2634 C2646 0.950 . S
H2635 C2647 0.950 . S
C2636 H2628 0.950 . S
C2636 C2637 1.386 . S
C2636 C2638 1.391 1_565 S
C2637 C2636 1.386 . S
C2637 C2641 1.393 . S
C2638 H2630 0.950 . S
C2638 C2636 1.391 1_545 S
C2638 C2639 1.400 . S
C2639 C2638 1.400 . S
C2639 C2640 1.398 1_545 S
C2639 C2645 1.491 . S
C2640 H2631 0.950 . S
C2640 C2639 1.398 1_565 S
C2640 C2641 1.391 . S
C2641 H2629 0.950 . S
C2641 C2637 1.393 . S
C2641 C2640 1.391 . S
C2642 H2632 0.950 . S
C2642 C2643 1.386 . S
C2642 C2644 1.391 . S
C2643 C2642 1.386 . S
C2643 C2647 1.393 . S
C2644 H2633 0.950 . S
C2644 C2642 1.391 . S
C2644 C2645 1.400 . S
C2645 C2639 1.491 . S
C2645 C2644 1.400 . S
C2645 C2646 1.398 . S
C2646 H2634 0.950 . S
C2646 C2645 1.398 . S
C2646 C2647 1.391 . S
C2647 H2635 0.950 . S
C2647 C2643 1.393 . S
C2647 C2646 1.391 . S
H2648 C2656 0.950 . S
H2649 C2661 0.950 . S
H2650 C2658 0.950 . S
H2651 C2660 0.950 . S
H2652 C2662 0.950 . S
H2653 C2664 0.950 . S
H2654 C2666 0.950 . S
H2655 C2667 0.950 . S
C2656 H2648 0.950 . S
C2656 C2657 1.386 . S
C2656 C2658 1.391 . S
C2657 C2656 1.386 . S
C2657 C2661 1.393 . S
C2658 H2650 0.950 . S
C2658 C2656 1.391 . S
C2658 C2659 1.400 1_545 S
C2659 C2658 1.400 1_565 S
C2659 C2660 1.398 . S
C2659 C2665 1.491 . S
C2660 H2651 0.950 . S
C2660 C2659 1.398 . S
C2660 C2661 1.391 1_565 S
C2661 H2649 0.950 . S
C2661 C2657 1.393 . S
C2661 C2660 1.391 1_545 S
C2662 H2652 0.950 . S
C2662 C2663 1.386 . S
C2662 C2664 1.391 . S
C2663 C2662 1.386 . S
C2663 C2667 1.393 . S
C2664 H2653 0.950 . S
C2664 C2662 1.391 . S
C2664 C2665 1.400 . S
C2665 C2659 1.491 . S
C2665 C2664 1.400 . S
C2665 C2666 1.398 . S
C2666 H2654 0.950 . S
C2666 C2665 1.398 . S
C2666 C2667 1.391 . S
C2667 H2655 0.950 . S
C2667 C2663 1.393 . S
C2667 C2666 1.391 . S
H2668 C2676 0.950 . S
H2669 C2681 0.950 . S
H2670 C2678 0.950 . S
H2671 C2680 0.950 . S
H2672 C2682 0.950 . S
H2673 C2684 0.950 . S
H2674 C2686 0.950 . S
H2675 C2687 0.950 . S
C2676 H2668 0.950 . S
C2676 C2677 1.386 . S
C2676 C2678 1.391 . S
C2677 C2676 1.386 . S
C2677 C2681 1.393 . S
C2678 H2670 0.950 . S
C2678 C2676 1.391 . S
C2678 C2679 1.400 . S
C2679 C2678 1.400 . S
C2679 C2680 1.398 . S
C2679 C2685 1.491 . S
C2680 H2671 0.950 . S
C2680 C2679 1.398 . S
C2680 C2681 1.391 . S
C2681 H2669 0.950 . S
C2681 C2677 1.393 . S
C2681 C2680 1.391 . S
C2682 H2672 0.950 . S
C2682 C2683 1.386 . S
C2682 C2684 1.391 . S
C2683 C2682 1.386 . S
C2683 C2687 1.393 . S
C2684 H2673 0.950 . S
C2684 C2682 1.391 . S
C2684 C2685 1.400 . S
C2685 C2679 1.491 . S
C2685 C2684 1.400 . S
C2685 C2686 1.398 . S
C2686 H2674 0.950 . S
C2686 C2685 1.398 . S
C2686 C2687 1.391 . S
C2687 H2675 0.950 . S
C2687 C2683 1.393 . S
C2687 C2686 1.391 . S
C777 C593 0.811 . S
C783 C22 0.833 . S
C797 C59 0.836 . S
C803 C631 0.811 . S
C817 C529 0.811 . S
C823 C86 0.833 . S
C837 C123 0.872 . S
C843 C575 0.843 . S
C857 C721 0.867 . S
C863 C159 0.865 . S
C877 C703 0.830 . S
C883 C187 0.866 . S
C897 C760 0.839 . S
C903 C214 0.829 . S
C917 C671 0.866 . S
C923 C251 0.868 . S
C937 C264 0.850 . S
C943 C440 0.812 . S
C957 C497 0.823 . S
C963 C318 0.828 . S
C977 C328 0.869 . S
C983 C472 0.827 . S
C997 C401 0.868 . S
C1003 C379 0.867 . S
C1017 C200 0.866 . S
C1023 C415 0.871 . S
C1037 C254 0.866 . S
C1043 C439 0.847 . S
C1057 C145 0.841 . S
C1063 C471 0.827 . S
C1077 C511 0.854 . S
C1083 C190 0.821 . S
C1097 C342 0.815 . S
C1103 C543 0.832 . S
C1117 C561 0.869 . S
C1123 C315 0.826 . S
C1137 C382 0.836 . S
C1143 C607 0.831 . S
C1157 C278 0.814 . S
C1163 C632 0.850 . S
C1177 C657 0.871 . S
C1183 C62 0.838 . S
C1197 C126 0.857 . S
C1203 C689 0.872 . S
C1217 C735 0.832 . S
C1223 C72 0.812 . S
C1237 C759 0.837 . S
C1243 C8 0.812 . S
C1257 C286 1.792 . S
C1263 C23 2.094 . S
C1277 C49 2.092 . S
C1283 C374 1.848 . S
C1297 C87 2.096 . S
C1303 C296 1.775 . S
C1317 C113 2.097 . S
C1323 C350 1.802 . S
C1337 C158 2.076 . S
C1343 C27 1.855 . S
C1357 C177 2.093 . S
C1363 C54 1.846 . S
C1377 C91 1.846 . S
C1383 C215 2.093 . S
C1397 C241 2.095 . S
C1403 C118 1.848 . S
C1417 C152 1.801 . S
C1423 C287 2.079 . S
C1437 C312 2.086 . S
C1443 C219 1.857 . S
C1457 C246 1.853 . S
C1463 C351 2.076 . S
C1477 C182 1.862 . S
C1483 C369 2.092 . S
C1497 C663 1.795 . S
C1503 C392 2.094 . S
C1517 C438 2.082 . S
C1523 C753 1.766 . S
C1537 C695 1.799 . S
C1543 C470 2.084 . S
C1557 C488 2.093 . S
C1563 C728 1.864 . S
C1577 C408 1.875 . S
C1583 C520 2.098 . S
C1597 C433 1.766 . S
C1603 C571 2.078 . S
C1617 C584 2.095 . S
C1623 C465 1.770 . S
C1637 C504 1.877 . S
C1643 C638 2.095 . S
C1657 C536 1.879 . S
C1663 C667 2.081 . S
C1677 C699 2.076 . S
C1683 C600 1.867 . S
C1697 C712 2.095 . S
C1703 C639 1.876 . S
C1717 C758 2.086 . S
C1723 C567 1.781 . S
C1737 C17 1.126 . S
C1743 C376 1.101 . S
C1757 C279 1.140 . S
C1763 C55 1.095 . S
C1777 C81 1.081 . S
C1783 C343 1.153 1_545 S
C1797 C119 1.111 . S
C1803 C305 1.135 1_565 S
C1817 C95 1.133 . S
C1823 C136 1.112 . S
C1837 C120 1.101 1_556 S
C1843 C183 1.115 . S
C1857 C31 1.125 . S
C1863 C209 1.106 . S
C1877 C247 1.117 . S
C1883 C56 1.114 1_554 S
C1897 C248 1.109 . S
C1903 C280 1.133 . S
C1917 C319 1.133 . S
C1923 C184 1.110 1_655 S
C1937 C150 1.121 . S
C1943 C344 1.130 . S
C1957 C375 1.082 . S
C1963 C223 1.133 1_455 S
C1977 C766 1.121 . S
C1983 C414 1.126 . S
C1997 C648 1.142 . S
C2003 C443 1.100 . S
C2017 C731 1.098 1_565 S
C2023 C475 1.131 . S
C2037 C680 1.140 1_545 S
C2043 C510 1.095 . S
C2057 C542 1.101 . S
C2063 C478 1.142 . S
C2077 C566 1.102 . S
C2083 C507 1.116 1_554 S
C2097 C606 1.125 . S
C2103 C411 1.102 . S
C2117 C616 1.081 . S
C2123 C446 1.152 1_556 S
C2137 C630 1.102 . S
C2143 C662 1.135 . S
C2157 C552 1.150 1_455 S
C2163 C694 1.094 . S
C2177 C539 1.125 . S
C2183 C734 1.088 . S
C2197 C603 1.101 1_655 S
C2203 C763 1.134 . S
C2217 C726 1.559 . S
C2223 C30 1.277 . S
C2237 C702 1.547 . S
C2243 C40 1.277 . S
C2257 C94 1.300 . S
C2263 C744 1.539 . S
C2277 C670 1.530 . S
C2283 C104 1.328 . S
C2297 C151 1.368 . S
C2303 C424 1.529 . S
C2317 C406 1.549 . S
C2323 C168 1.327 . S
C2337 C222 1.280 . S
C2343 C502 1.560 . S
C2357 C232 1.283 . S
C2363 C456 1.545 . S
C2377 C598 1.559 . S
C2383 C283 1.320 . S
C2397 C534 1.552 . S
C2403 C310 1.361 . S
C2417 C347 1.326 . S
C2423 C574 1.546 . S
C2437 C360 1.309 . S
C2443 C635 1.550 . S
C2457 C407 1.329 . S
C2463 C337 1.529 . S
C2477 C447 1.320 . S
C2483 C311 1.548 . S
C2497 C383 1.550 . S
C2503 C479 1.344 . S
C2517 C273 1.538 . S
C2523 C503 1.307 . S
C2537 C535 1.327 . S
C2543 C63 1.549 . S
C2557 C568 1.331 . S
C2563 C24 1.559 . S
C2577 C599 1.277 . S
C2583 C127 1.560 . S
C2597 C625 1.278 . S
C2603 C88 1.559 . S
C2617 C664 1.340 . S
C2623 C216 1.551 . S
C2637 C696 1.323 . S
C2643 C155 1.546 . S
C2657 C727 1.316 . S
C2663 C191 1.552 . S
C2677 C255 1.559 . S
C2683 C767 1.320 . S
