# Generated by pormake.
# Topology wkj, (6)-cn, num edge types: 1
# Building blocks:
#     Node 0, Type 0, BuildingBlock: BETDAH_clean_sbu_0, # of connection points: 6
#     Node 1, Type 0, BuildingBlock: BETDAH_clean_sbu_0, # of connection points: 6
#     Node 2, Type 0, BuildingBlock: BETDAH_clean_sbu_0, # of connection points: 6
#     Node 3, Type 0, BuildingBlock: BETDAH_clean_sbu_0, # of connection points: 6
#     Node 4, Type 0, BuildingBlock: BETDAH_clean_sbu_0, # of connection points: 6
#     Node 5, Type 0, BuildingBlock: BETDAH_clean_sbu_0, # of connection points: 6
#     Node 6, Type 0, BuildingBlock: BETDAH_clean_sbu_0, # of connection points: 6
#     Node 7, Type 0, BuildingBlock: BETDAH_clean_sbu_0, # of connection points: 6
#     Node 8, Type 0, BuildingBlock: BETDAH_clean_sbu_0, # of connection points: 6
#     Node 9, Type 0, BuildingBlock: BETDAH_clean_sbu_0, # of connection points: 6
#     Node 10, Type 0, BuildingBlock: BETDAH_clean_sbu_0, # of connection points: 6
#     Node 11, Type 0, BuildingBlock: BETDAH_clean_sbu_0, # of connection points: 6
#     Edge 12, Type (0, 0), BuildingBlock: XIVTED_clean_linker_0, # of connection points: 2
#     Edge 13, Type (0, 0), BuildingBlock: XIVTED_clean_linker_0, # of connection points: 2
#     Edge 14, Type (0, 0), BuildingBlock: XIVTED_clean_linker_0, # of connection points: 2
#     Edge 15, Type (0, 0), BuildingBlock: XIVTED_clean_linker_0, # of connection points: 2
#     Edge 16, Type (0, 0), BuildingBlock: XIVTED_clean_linker_0, # of connection points: 2
#     Edge 17, Type (0, 0), BuildingBlock: XIVTED_clean_linker_0, # of connection points: 2
#     Edge 18, Type (0, 0), BuildingBlock: XIVTED_clean_linker_0, # of connection points: 2
#     Edge 19, Type (0, 0), BuildingBlock: XIVTED_clean_linker_0, # of connection points: 2
#     Edge 20, Type (0, 0), BuildingBlock: XIVTED_clean_linker_0, # of connection points: 2
#     Edge 21, Type (0, 0), BuildingBlock: XIVTED_clean_linker_0, # of connection points: 2
#     Edge 22, Type (0, 0), BuildingBlock: XIVTED_clean_linker_0, # of connection points: 2
#     Edge 23, Type (0, 0), BuildingBlock: XIVTED_clean_linker_0, # of connection points: 2
#     Edge 24, Type (0, 0), BuildingBlock: XIVTED_clean_linker_0, # of connection points: 2
#     Edge 25, Type (0, 0), BuildingBlock: XIVTED_clean_linker_0, # of connection points: 2
#     Edge 26, Type (0, 0), BuildingBlock: XIVTED_clean_linker_0, # of connection points: 2
#     Edge 27, Type (0, 0), BuildingBlock: XIVTED_clean_linker_0, # of connection points: 2
#     Edge 28, Type (0, 0), BuildingBlock: XIVTED_clean_linker_0, # of connection points: 2
#     Edge 29, Type (0, 0), BuildingBlock: XIVTED_clean_linker_0, # of connection points: 2
#     Edge 30, Type (0, 0), BuildingBlock: XIVTED_clean_linker_0, # of connection points: 2
#     Edge 31, Type (0, 0), BuildingBlock: XIVTED_clean_linker_0, # of connection points: 2
#     Edge 32, Type (0, 0), BuildingBlock: XIVTED_clean_linker_0, # of connection points: 2
#     Edge 33, Type (0, 0), BuildingBlock: XIVTED_clean_linker_0, # of connection points: 2
#     Edge 34, Type (0, 0), BuildingBlock: XIVTED_clean_linker_0, # of connection points: 2
#     Edge 35, Type (0, 0), BuildingBlock: XIVTED_clean_linker_0, # of connection points: 2
#     Edge 36, Type (0, 0), BuildingBlock: XIVTED_clean_linker_0, # of connection points: 2
#     Edge 37, Type (0, 0), BuildingBlock: XIVTED_clean_linker_0, # of connection points: 2
#     Edge 38, Type (0, 0), BuildingBlock: XIVTED_clean_linker_0, # of connection points: 2
#     Edge 39, Type (0, 0), BuildingBlock: XIVTED_clean_linker_0, # of connection points: 2
#     Edge 40, Type (0, 0), BuildingBlock: XIVTED_clean_linker_0, # of connection points: 2
#     Edge 41, Type (0, 0), BuildingBlock: XIVTED_clean_linker_0, # of connection points: 2
#     Edge 42, Type (0, 0), BuildingBlock: XIVTED_clean_linker_0, # of connection points: 2
#     Edge 43, Type (0, 0), BuildingBlock: XIVTED_clean_linker_0, # of connection points: 2
#     Edge 44, Type (0, 0), BuildingBlock: XIVTED_clean_linker_0, # of connection points: 2
#     Edge 45, Type (0, 0), BuildingBlock: XIVTED_clean_linker_0, # of connection points: 2
#     Edge 46, Type (0, 0), BuildingBlock: XIVTED_clean_linker_0, # of connection points: 2
#     Edge 47, Type (0, 0), BuildingBlock: XIVTED_clean_linker_0, # of connection points: 2
# Relax obj value: 0.753
# Max RMSD: 0.172
# Mean RMSD: 0.172
data_MOF--net-wkj--node1-BETDAH_clean_sbu_0--edge1-XIVTED_clean_linker_0
_symmetry_space_group_name_H-M    P1
_symmetry_Int_Tables_number       1
_symmetry_cell_setting            triclinic
loop_
_symmetry_equiv_pos_as_xyz
'x, y, z'
_cell_length_a     48.689654
_cell_length_b     49.024213
_cell_length_c     29.455304
_cell_angle_alpha  90.250882
_cell_angle_beta   90.24884
_cell_angle_gamma 119.93648
loop_
_atom_site_label
_atom_site_type_symbol
_atom_site_fract_x
_atom_site_fract_y
_atom_site_fract_z
_atom_type_partial_charge
Ho0 Ho 0.48723 0.09919 0.39528 0.0
Ho1 Ho 0.55386 0.12167 0.37384 0.0
C2 C 0.53798 0.1199 0.48262 0.0
C3 C 0.42944 0.08104 0.4181 0.0
C4 C 0.40488 0.06564 0.45222 0.0
C5 C 0.41226 0.06349 0.49755 0.0
C6 C 0.38794 0.04883 0.52912 0.0
C7 C 0.35604 0.03605 0.51556 0.0
C8 C 0.3489 0.03829 0.47004 0.0
C9 C 0.3732 0.05308 0.43864 0.0
C10 C 0.51681 0.15479 0.34822 0.0
C11 C 0.49782 0.07402 0.29832 0.0
C12 C 0.60881 0.15882 0.33967 0.0
C13 C 0.61883 0.18608 0.30939 0.0
C14 C 0.61214 0.21015 0.3203 0.0
C15 C 0.61694 0.23314 0.28854 0.0
C16 C 0.6282 0.2324 0.24497 0.0
C17 C 0.63684 0.20949 0.23526 0.0
C18 C 0.63223 0.18661 0.26721 0.0
C19 C 0.52874 0.06743 0.41839 0.0
O20 O 0.50767 0.10605 0.46885 0.0
O21 O 0.56079 0.13085 0.45137 0.0
O22 O 0.45339 0.10876 0.42828 0.0
O23 O 0.43776 0.06325 0.39587 0.0
O24 O 0.48949 0.13109 0.3383 0.0
O25 O 0.52768 0.14732 0.38184 0.0
O26 O 0.5285 0.09543 0.30577 0.0
O27 O 0.47718 0.06918 0.33098 0.0
O28 O 0.5892 0.1312 0.32213 0.0
O29 O 0.60067 0.16217 0.38054 0.0
O30 O 0.5591 0.08682 0.41652 0.0
O31 O 0.51465 0.07521 0.38964 0.0
H32 H 0.43667 0.07297 0.50838 0.0
H33 H 0.39402 0.04688 0.5639 0.0
H34 H 0.32457 0.02873 0.45879 0.0
H35 H 0.36726 0.05469 0.40361 0.0
H36 H 0.6018 0.21051 0.35263 0.0
H37 H 0.61039 0.25059 0.29743 0.0
H38 H 0.64511 0.20779 0.20188 0.0
H39 H 0.63755 0.16832 0.25802 0.0
Ho40 Ho 0.3629 0.45814 0.70647 0.0
Ho41 Ho 0.41427 0.52048 0.69636 0.0
C42 C 0.38738 0.50771 0.79708 0.0
C43 C 0.31774 0.40196 0.72632 0.0
C44 C 0.2998 0.38445 0.76593 0.0
C45 C 0.30592 0.39899 0.80864 0.0
C46 C 0.29111 0.3812 0.84693 0.0
C47 C 0.27001 0.34857 0.84302 0.0
C48 C 0.26243 0.33458 0.79963 0.0
C49 C 0.27731 0.35246 0.76131 0.0
C50 C 0.34486 0.49623 0.66393 0.0
C51 C 0.4077 0.46887 0.61672 0.0
C52 C 0.44632 0.57738 0.66668 0.0
C53 C 0.43954 0.60343 0.66631 0.0
C54 C 0.46405 0.63459 0.66191 0.0
C55 C 0.45706 0.65837 0.65171 0.0
C56 C 0.42543 0.65105 0.64409 0.0
C57 C 0.40101 0.62028 0.65412 0.0
C58 C 0.40803 0.59685 0.6654 0.0
C59 C 0.43102 0.48437 0.74374 0.0
O60 O 0.37103 0.47777 0.7818 0.0
O61 O 0.40265 0.53017 0.76697 0.0
O62 O 0.31298 0.42456 0.71315 0.0
O63 O 0.3477 0.41022 0.72613 0.0
O64 O 0.34051 0.46971 0.64805 0.0
O65 O 0.36225 0.50304 0.69915 0.0
O66 O 0.42274 0.49869 0.63131 0.0
O67 O 0.38346 0.44775 0.6414 0.0
O68 O 0.4273 0.55325 0.64126 0.0
O69 O 0.45169 0.569 0.70622 0.0
O70 O 0.44407 0.51458 0.749 0.0
O71 O 0.41329 0.47553 0.70921 0.0
H72 H 0.32312 0.42375 0.81264 0.0
H73 H 0.29797 0.39267 0.87986 0.0
H74 H 0.24618 0.30957 0.79558 0.0
H75 H 0.27216 0.34105 0.7283 0.0
H76 H 0.48857 0.64024 0.66373 0.0
H77 H 0.47662 0.68194 0.64657 0.0
H78 H 0.3763 0.61308 0.64916 0.0
H79 H 0.38869 0.57299 0.66982 0.0
Ho80 Ho 0.87707 0.37572 1.05927 0.0
Ho81 Ho 0.85319 0.41789 1.03669 0.0
C82 C 0.85622 0.40586 0.14598 0.0
C83 C 0.89656 0.33759 1.08368 0.0
C84 C 0.91196 0.32866 1.1185 0.0
C85 C 0.90879 0.3329 0.16484 0.0
C86 C 0.92244 0.32232 0.19697 0.0
C87 C 0.9395 0.30753 0.18309 0.0
C88 C 0.94276 0.30362 1.1366 0.0
C89 C 0.929 0.31404 1.10458 0.0
C90 C 0.81966 0.34706 1.01402 0.0
C91 C 0.90249 0.41137 0.96222 0.0
C92 C 0.81441 0.4333 1.00073 0.0
C93 C 0.78513 0.41355 0.9743 0.0
C94 C 0.76206 0.38381 0.99025 0.0
C95 C 0.73771 0.36262 0.9616 0.0
C96 C 0.73613 0.37053 0.91622 0.0
C97 C 0.75786 0.40123 0.90157 0.0
C98 C 0.78205 0.4225 0.93037 0.0
C99 C 0.90805 0.44886 1.08104 0.0
O100 O 0.8706 0.38995 1.13264 0.0
O101 O 0.84453 0.41677 1.11421 0.0
O102 O 0.86827 0.33298 1.09238 0.0
O103 O 0.91424 0.36371 1.06193 0.0
O104 O 0.84393 0.34452 1.00338 0.0
O105 O 0.82786 0.36638 1.04663 0.0
O106 O 0.88123 0.42083 0.96971 0.0
O107 O 0.90661 0.39483 0.99448 0.0
O108 O 0.8408 0.43897 0.98132 0.0
O109 O 0.81369 0.42605 1.04339 0.0
O110 O 0.88798 0.459 1.07858 0.0
O111 O 0.90055 0.42678 1.05276 0.0
H112 H 0.89574 0.34423 0.17609 0.0
H113 H 0.92015 0.32622 0.23264 0.0
H114 H 0.95573 0.29228 1.12504 0.0
H115 H 0.93143 0.31046 1.06881 0.0
H116 H 0.76371 0.37616 1.02408 0.0
H117 H 0.72119 0.33944 0.97434 0.0
H118 H 0.75785 0.40819 0.86675 0.0
H119 H 0.79956 0.44522 0.91732 0.0
Ho120 Ho 0.49314 0.88791 0.39821 0.0
Ho121 Ho 0.42585 0.85568 0.3717 0.0
C122 C 0.44105 0.86166 0.48223 0.0
C123 C 0.55195 0.91312 0.42274 0.0
C124 C 0.5749 0.92511 0.45993 0.0
C125 C 0.56545 0.92336 0.5051 0.0
C126 C 0.58801 0.93293 0.53992 0.0
C127 C 0.62019 0.9442 0.52989 0.0
C128 C 0.62938 0.94606 0.48442 0.0
C129 C 0.60686 0.93655 0.44972 0.0
C130 C 0.47121 0.83203 0.35198 0.0
C131 C 0.48032 0.90773 0.29915 0.0
C132 C 0.37375 0.81162 0.33624 0.0
C133 C 0.36717 0.78361 0.30897 0.0
C134 C 0.3781 0.76327 0.32314 0.0
C135 C 0.37558 0.73936 0.29442 0.0
C136 C 0.36234 0.73545 0.25072 0.0
C137 C 0.34963 0.75461 0.23787 0.0
C138 C 0.35199 0.77839 0.26675 0.0
C139 C 0.44134 0.9092 0.41435 0.0
O140 O 0.47149 0.87845 0.47035 0.0
O141 O 0.41891 0.84799 0.44967 0.0
O142 O 0.53211 0.88288 0.42253 0.0
O143 O 0.53887 0.92964 0.41048 0.0
O144 O 0.4962 0.85805 0.34146 0.0
O145 O 0.45804 0.83743 0.38468 0.0
O146 O 0.45121 0.88238 0.30407 0.0
O147 O 0.50012 0.91671 0.33432 0.0
O148 O 0.391 0.83896 0.31693 0.0
O149 O 0.38221 0.8116 0.37829 0.0
O150 O 0.41222 0.88659 0.40961 0.0
O151 O 0.45927 0.90453 0.38838 0.0
H152 H 0.54075 0.9144 0.51333 0.0
H153 H 0.58031 0.93182 0.57465 0.0
H154 H 0.65389 0.95444 0.47568 0.0
H155 H 0.61434 0.93767 0.41484 0.0
H156 H 0.3898 0.76655 0.35571 0.0
H157 H 0.38532 0.72491 0.30569 0.0
H158 H 0.33977 0.7528 0.20424 0.0
H159 H 0.34335 0.79371 0.25515 0.0
Ho160 Ho 0.61993 0.52434 0.70755 0.0
Ho161 Ho 0.56464 0.465 0.70018 0.0
C162 C 0.59408 0.47662 0.79933 0.0
C163 C 0.66897 0.57895 0.72537 0.0
C164 C 0.68564 0.59854 0.76473 0.0
C165 C 0.67824 0.58618 0.80855 0.0
C166 C 0.69223 0.60579 0.84603 0.0
C167 C 0.71375 0.63813 0.84026 0.0
C168 C 0.72221 0.65004 0.7961 0.0
C169 C 0.7082 0.63031 0.75854 0.0
C170 C 0.63216 0.48206 0.66479 0.0
C171 C 0.57336 0.51602 0.62007 0.0
C172 C 0.52826 0.40829 0.67128 0.0
C173 C 0.53338 0.38126 0.67316 0.0
C174 C 0.55678 0.38231 0.70239 0.0
C175 C 0.57089 0.36415 0.6929 0.0
C176 C 0.56217 0.34519 0.65359 0.0
C177 C 0.53552 0.34086 0.62847 0.0
C178 C 0.52137 0.35894 0.63809 0.0
C179 C 0.55482 0.50556 0.74926 0.0
O180 O 0.61173 0.50619 0.78361 0.0
O181 O 0.57665 0.45425 0.76967 0.0
O182 O 0.67014 0.55311 0.72089 0.0
O183 O 0.64064 0.57458 0.71768 0.0
O184 O 0.63833 0.50897 0.64857 0.0
O185 O 0.61565 0.47727 0.70031 0.0
O186 O 0.55461 0.48789 0.63818 0.0
O187 O 0.60108 0.53485 0.64069 0.0
O188 O 0.54871 0.431 0.64559 0.0
O189 O 0.52375 0.41863 0.70993 0.0
O190 O 0.5399 0.47538 0.75558 0.0
O191 O 0.57094 0.51234 0.71353 0.0
H192 H 0.66084 0.56167 0.81382 0.0
H193 H 0.68462 0.59593 0.87953 0.0
H194 H 0.73872 0.67479 0.79064 0.0
H195 H 0.71422 0.64006 0.72471 0.0
H196 H 0.56644 0.39946 0.72971 0.0
H197 H 0.59088 0.36758 0.71348 0.0
H198 H 0.528 0.32658 0.59788 0.0
H199 H 0.50344 0.35792 0.61508 0.0
Ho200 Ho 0.09229 0.59813 1.06498 0.0
Ho201 Ho 0.1252 0.56481 1.037 0.0
C202 C 0.11865 0.57139 0.14832 0.0
C203 C 0.06508 0.62901 1.09166 0.0
C204 C 0.04748 0.63637 1.1249 0.0
C205 C 0.05502 0.63959 0.17129 0.0
C206 C 0.04035 0.65058 0.20096 0.0
C207 C 0.01802 0.65851 0.18458 0.0
C208 C 0.01016 0.65462 1.13822 0.0
C209 C 0.02483 0.64368 1.10865 0.0
C210 C 0.14841 0.635 1.01996 0.0
C211 C 0.07179 0.56624 0.96473 0.0
C212 C 0.16895 0.55727 0.99982 0.0
C213 C 0.19216 0.57687 0.96564 0.0
C214 C 0.21871 0.5738 0.95616 0.0
C215 C 0.24214 0.59493 0.92661 0.0
C216 C 0.23951 0.61972 0.90723 0.0
C217 C 0.21282 0.62254 0.91708 0.0
C218 C 0.18934 0.60124 0.94572 0.0
C219 C 0.07172 0.52599 1.0792 0.0
O220 O 0.10131 0.5845 1.13664 0.0
O221 O 0.13282 0.56393 1.1154 0.0
O222 O 0.09459 0.63758 1.10088 0.0
O223 O 0.05013 0.60247 1.06918 0.0
O224 O 0.12181 0.63373 1.01169 0.0
O225 O 0.14354 0.61525 1.05071 0.0
O226 O 0.09787 0.56348 0.96926 0.0
O227 O 0.0628 0.57635 1.00048 0.0
O228 O 0.13929 0.54195 0.98642 0.0
O229 O 0.17256 0.57178 1.0385 0.0
O230 O 0.09537 0.52084 1.07607 0.0
O231 O 0.0759 0.54822 1.05327 0.0
H232 H 0.07254 0.63414 0.18441 0.0
H233 H 0.04631 0.65267 0.23676 0.0
H234 H -0.00688 0.66058 1.12469 0.0
H235 H 0.01907 0.64168 1.07276 0.0
H236 H 0.22141 0.55531 0.97181 0.0
H237 H 0.2623 0.59204 0.91911 0.0
H238 H 0.20964 0.64084 0.90175 0.0
H239 H 0.16908 0.60405 0.95287 0.0
Ho240 Ho 0.89158 0.5187 0.58196 0.0
Ho241 Ho 0.88323 0.45756 0.58996 0.0
C242 C 0.86651 0.47003 0.49051 0.0
C243 C 0.90057 0.57449 0.56479 0.0
C244 C 0.90599 0.59639 0.52733 0.0
C245 C 0.93691 0.62037 0.51786 0.0
C246 C 0.94256 0.64087 0.482 0.0
C247 C 0.91735 0.63805 0.45503 0.0
C248 C 0.88619 0.61526 0.46626 0.0
C249 C 0.88054 0.59464 0.50216 0.0
C250 C 0.83634 0.47913 0.62566 0.0
C251 C 0.92785 0.5087 0.67032 0.0
C252 C 0.86136 0.40053 0.61782 0.0
C253 C 0.82885 0.37384 0.62011 0.0
C254 C 0.82326 0.34351 0.62922 0.0
C255 C 0.79311 0.32002 0.64274 0.0
C256 C 0.7685 0.32697 0.64903 0.0
C257 C 0.77356 0.35644 0.63411 0.0
C258 C 0.80336 0.37952 0.61955 0.0
C259 C 0.93496 0.49587 0.5413 0.0
O260 O 0.88076 0.5 0.50591 0.0
O261 O 0.85958 0.4476 0.5206 0.0
O262 O 0.87268 0.54936 0.56733 0.0
O263 O 0.92334 0.56866 0.5742 0.0
O264 O 0.85838 0.5059 0.6413 0.0
O265 O 0.84691 0.47287 0.59015 0.0
O266 O 0.914 0.4791 0.65512 0.0
O267 O 0.92337 0.52933 0.64657 0.0
O268 O 0.86681 0.42412 0.64447 0.0
O269 O 0.87316 0.4097 0.5774 0.0
O270 O 0.91824 0.46572 0.53503 0.0
O271 O 0.92617 0.50354 0.57678 0.0
H272 H 0.95691 0.62282 0.53746 0.0
H273 H 0.96692 0.65778 0.47396 0.0
H274 H 0.86627 0.61274 0.44639 0.0
H275 H 0.85631 0.57699 0.50958 0.0
H276 H 0.84259 0.33855 0.62881 0.0
H277 H 0.78995 0.29725 0.65172 0.0
H278 H 0.75569 0.36322 0.63784 0.0
H279 H 0.80715 0.40273 0.61177 0.0
Ho280 Ho 0.36457 0.89662 0.9153 0.0
Ho281 Ho 0.41684 0.88755 0.92531 0.0
C282 C 0.38789 0.87001 0.82586 0.0
C283 C 0.31756 0.90526 0.8949 0.0
C284 C 0.30154 0.90801 0.85464 0.0
C285 C 0.30834 0.90095 0.8115 0.0
C286 C 0.29483 0.90615 0.77309 0.0
C287 C 0.27443 0.91863 0.7773 0.0
C288 C 0.2665 0.92419 0.82084 0.0
C289 C 0.28 0.91888 0.85929 0.0
C290 C 0.34847 0.84342 0.96344 0.0
C291 C 0.41079 0.93321 1.0034 0.0
C292 C 0.45231 0.86612 0.95554 0.0
C293 C 0.44746 0.83409 0.95757 0.0
C294 C 0.47274 0.82913 0.96757 0.0
C295 C 0.46682 0.7991 0.97978 0.0
C296 C 0.43543 0.77391 0.98364 0.0
C297 C 0.4106 0.77854 0.96817 0.0
C298 C 0.41664 0.8083 0.95505 0.0
C299 C 0.43074 0.93818 0.87416 0.0
O300 O 0.37199 0.88426 0.84032 0.0
O301 O 0.40347 0.86334 0.85658 0.0
O302 O 0.3147 0.87771 0.9015 0.0
O303 O 0.34647 0.92817 0.90197 0.0
O304 O 0.34504 0.86666 0.97685 0.0
O305 O 0.36491 0.85177 0.92737 0.0
O306 O 0.42743 0.92045 0.98755 0.0
O307 O 0.38466 0.92755 0.98061 0.0
O308 O 0.43305 0.87075 0.98096 0.0
O309 O 0.45558 0.87824 0.91523 0.0
O310 O 0.44374 0.92088 0.86933 0.0
O311 O 0.41436 0.93058 0.90962 0.0
H312 H 0.3249 0.89248 0.80741 0.0
H313 H 0.30195 0.90222 0.74004 0.0
H314 H 0.25085 0.93376 0.82504 0.0
H315 H 0.2744 0.9242 0.89257 0.0
H316 H 0.49681 0.84874 0.96871 0.0
H317 H 0.48673 0.79633 0.98958 0.0
H318 H 0.38605 0.76017 0.97033 0.0
H319 H 0.39689 0.8117 0.94661 0.0
Ho320 Ho 0.48813 0.38098 0.22595 0.0
Ho321 Ho 0.5543 0.42475 0.25209 0.0
C322 C 0.54097 0.4122 1.14205 0.0
C323 C 0.43071 0.34265 0.19964 0.0
C324 C 0.40555 0.33414 0.16607 0.0
C325 C 0.412 0.34231 1.12031 0.0
C326 C 0.38696 0.33313 1.08948 0.0
C327 C 0.35532 0.31587 1.10422 0.0
C328 C 0.34915 0.3079 0.15016 0.0
C329 C 0.37412 0.31693 0.1808 0.0
C330 C 0.51696 0.35398 0.27371 0.0
C331 C 0.49662 0.4145 0.3249 0.0
C332 C 0.60908 0.44306 0.28919 0.0
C333 C 0.61798 0.42815 0.32493 0.0
C334 C 0.64971 0.44023 0.338 0.0
C335 C 0.65772 0.42443 0.37038 0.0
C336 C 0.6341 0.39609 0.3893 0.0
C337 C 0.60242 0.38403 0.37547 0.0
C338 C 0.59447 0.4 0.34385 0.0
C339 C 0.52967 0.45399 0.20553 0.0
O340 O 0.51035 0.39555 0.15372 0.0
O341 O 0.56302 0.42375 0.17494 0.0
O342 O 0.45486 0.33935 0.18847 0.0
O343 O 0.43868 0.36778 0.22417 0.0
O344 O 0.4891 0.34965 0.28142 0.0
O345 O 0.52854 0.37321 0.24152 0.0
O346 O 0.52762 0.42468 0.31881 0.0
O347 O 0.47657 0.39869 0.29126 0.0
O348 O 0.59056 0.454 0.30136 0.0
O349 O 0.59943 0.42652 0.25176 0.0
O350 O 0.55999 0.46458 0.20881 0.0
O351 O 0.5151 0.43205 0.23362 0.0
H352 H 0.43621 0.35578 1.10856 0.0
H353 H 0.39234 0.34004 1.05431 0.0
H354 H 0.32504 0.29455 0.16233 0.0
H355 H 0.36888 0.31043 0.21615 0.0
H356 H 0.66818 0.46179 0.32325 0.0
H357 H 0.68227 0.43437 0.38074 0.0
H358 H 0.58353 0.36276 0.39027 0.0
H359 H 0.56986 0.39041 0.33416 0.0
Ho360 Ho 0.08421 0.45913 0.58312 0.0
Ho361 Ho 0.09252 0.52032 0.5923 0.0
C362 C 0.10857 0.50808 0.49243 0.0
C363 C 0.07483 0.40345 0.56325 0.0
C364 C 0.071 0.38439 0.52298 0.0
C365 C 0.07397 0.39699 0.47958 0.0
C366 C 0.06759 0.37783 0.44142 0.0
C367 C 0.05804 0.34572 0.44611 0.0
C368 C 0.05655 0.33361 0.48975 0.0
C369 C 0.06302 0.35288 0.52797 0.0
C370 C 0.13983 0.4986 0.62674 0.0
C371 C 0.04795 0.46941 0.67141 0.0
C372 C 0.1159 0.57736 0.62154 0.0
C373 C 0.14868 0.6037 0.62094 0.0
C374 C 0.15541 0.63471 0.62756 0.0
C375 C 0.18655 0.65854 0.63679 0.0
C376 C 0.21117 0.65136 0.64142 0.0
C377 C 0.20453 0.62081 0.6289 0.0
C378 C 0.17369 0.59738 0.6185 0.0
C379 C 0.0409 0.48214 0.54261 0.0
O380 O 0.0953 0.47823 0.50753 0.0
O381 O 0.115 0.53048 0.52274 0.0
O382 O 0.10276 0.42809 0.56914 0.0
O383 O 0.05205 0.40955 0.57085 0.0
O384 O 0.11801 0.47187 0.64214 0.0
O385 O 0.12883 0.5049 0.59161 0.0
O386 O 0.06003 0.49839 0.65484 0.0
O387 O 0.05431 0.44927 0.64932 0.0
O388 O 0.11161 0.55389 0.64731 0.0
O389 O 0.10161 0.56799 0.58223 0.0
O390 O 0.05735 0.51238 0.53738 0.0
O391 O 0.04972 0.4743 0.57796 0.0
H392 H 0.0801 0.42129 0.47524 0.0
H393 H 0.06833 0.3878 0.4084 0.0
H394 H 0.04935 0.30903 0.49436 0.0
H395 H 0.06085 0.34296 0.56145 0.0
H396 H 0.13643 0.64018 0.62821 0.0
H397 H 0.19068 0.68199 0.64361 0.0
H398 H 0.2222 0.61367 0.63127 0.0
H399 H 0.16905 0.57363 0.61222 0.0
Ho400 Ho 0.61148 0.0857 0.91999 0.0
Ho401 Ho 0.55493 0.08755 0.92531 0.0
C402 C 0.58549 0.10684 0.82802 0.0
C403 C 0.66264 0.08335 0.90333 0.0
C404 C 0.67324 0.06716 0.87232 0.0
C405 C 0.65176 0.03732 0.85486 0.0
C406 C 0.66191 0.02282 0.82374 0.0
C407 C 0.69361 0.03808 0.80921 0.0
C408 C 0.71523 0.06769 0.8276 0.0
C409 C 0.70509 0.08207 0.85918 0.0
C410 C 0.62113 0.1393 0.96401 0.0
C411 C 0.56481 0.04606 1.00517 0.0
C412 C 0.51508 0.10474 0.95053 0.0
C413 C 0.51866 0.13628 0.95072 0.0
C414 C 0.54278 0.16027 0.925 0.0
C415 C 0.5549 0.1918 0.93731 0.0
C416 C 0.5434 0.19966 0.976 0.0
C417 C 0.51624 0.17575 0.99745 0.0
C418 C 0.50408 0.14425 0.985 0.0
C419 C 0.54745 0.03791 0.87519 0.0
O420 O 0.60235 0.09384 0.84359 0.0
O421 O 0.56889 0.11265 0.85791 0.0
O422 O 0.65626 0.1037 0.885 0.0
O423 O 0.64152 0.06581 0.93303 0.0
O424 O 0.6293 0.11974 0.97907 0.0
O425 O 0.60504 0.12734 0.92816 0.0
O426 O 0.54802 0.05899 0.99088 0.0
O427 O 0.5901 0.05128 0.98097 0.0
O428 O 0.53464 0.1022 0.97835 0.0
O429 O 0.51351 0.0919 0.91094 0.0
O430 O 0.53161 0.05235 0.86891 0.0
O431 O 0.56332 0.04749 0.91135 0.0
H432 H 0.627 0.02558 0.86437 0.0
H433 H 0.64451 0.00036 0.80925 0.0
H434 H 0.73968 0.08001 0.81667 0.0
H435 H 0.72192 0.10516 0.87251 0.0
H436 H 0.55446 0.15461 0.89841 0.0
H437 H 0.57541 0.20966 0.91956 0.0
H438 H 0.5067 0.18074 1.02747 0.0
H439 H 0.48558 0.12606 1.00537 0.0
Ho440 Ho 0.49808 0.60033 0.22464 0.0
Ho441 Ho 0.4309 0.56569 0.25127 0.0
C442 C 0.44485 0.57313 1.1405 0.0
C443 C 0.55649 0.63253 0.19986 0.0
C444 C 0.58112 0.64208 0.16565 0.0
C445 C 0.57443 0.64108 1.11921 0.0
C446 C 0.59922 0.65324 1.08803 0.0
C447 C 0.6309 0.66657 1.10302 0.0
C448 C 0.63727 0.66716 0.14963 0.0
C449 C 0.61253 0.655 0.18065 0.0
C450 C 0.47643 0.63501 0.2695 0.0
C451 C 0.48669 0.57024 0.32511 0.0
C452 C 0.37927 0.55835 0.28691 0.0
C453 C 0.37533 0.57851 0.32007 0.0
C454 C 0.34585 0.57654 0.32642 0.0
C455 C 0.3434 0.59827 0.35481 0.0
C456 C 0.37057 0.62258 0.37616 0.0
C457 C 0.39996 0.62433 0.36942 0.0
C458 C 0.40227 0.60247 0.34185 0.0
C459 C 0.44647 0.52756 0.20905 0.0
O460 O 0.47543 0.58686 0.15263 0.0
O461 O 0.4229 0.56493 0.17296 0.0
O462 O 0.53597 0.64209 0.19479 0.0
O463 O 0.54423 0.60426 0.21673 0.0
O464 O 0.50207 0.63479 0.27965 0.0
O465 O 0.46285 0.61572 0.23752 0.0
O466 O 0.45727 0.56599 0.31946 0.0
O467 O 0.50621 0.58052 0.29005 0.0
O468 O 0.39375 0.54355 0.30142 0.0
O469 O 0.39023 0.5721 0.24806 0.0
O470 O 0.41735 0.52145 0.2129 0.0
O471 O 0.4645 0.5502 0.23511 0.0
H472 H 0.55023 0.63125 1.1072 0.0
H473 H 0.59357 0.65187 1.05219 0.0
H474 H 0.66138 0.67737 0.16215 0.0
H475 H 0.61799 0.65622 0.21658 0.0
H476 H 0.32489 0.55842 0.30923 0.0
H477 H 0.32041 0.59618 0.35999 0.0
H478 H 0.42113 0.64212 0.38659 0.0
H479 H 0.42523 0.60441 0.3372 0.0
H480 H 0.50984 0.17558 0.26559 0.0
H481 H 0.51353 0.32815 0.35673 0.0
H482 H 0.54173 0.20821 0.40209 0.0
H483 H 0.53819 0.32309 0.21796 0.0
H484 H 0.52021 0.28285 0.37483 0.0
H485 H 0.51642 0.22736 0.24704 0.0
C486 C 0.51865 0.19381 0.2915 0.0
C487 C 0.52532 0.18753 0.33542 0.0
C488 C 0.52459 0.29189 0.34056 0.0
C489 C 0.53193 0.24667 0.31479 0.0
C490 C 0.52078 0.31774 0.3302 0.0
C491 C 0.52551 0.32958 0.28585 0.0
C492 C 0.53202 0.27685 0.30595 0.0
C493 C 0.53462 0.31498 0.2527 0.0
C494 C 0.52238 0.22335 0.28089 0.0
C495 C 0.53651 0.21204 0.36772 0.0
N496 N 0.53697 0.28905 0.26319 0.0
N497 N 0.53887 0.24027 0.35704 0.0
H498 H 0.31492 0.49499 0.58453 0.0
H499 H 0.18913 0.52576 0.56511 0.0
H500 H 0.31556 0.5154 0.72694 0.0
H501 H 0.16852 0.48991 0.7014 0.0
H502 H 0.24179 0.53064 0.57187 0.0
H503 H 0.26837 0.50125 0.57388 0.0
C504 C 0.30568 0.50148 0.61346 0.0
C505 C 0.31969 0.50511 0.65657 0.0
C506 C 0.22585 0.52182 0.60043 0.0
C507 C 0.26533 0.51173 0.64483 0.0
C508 C 0.19581 0.51942 0.59677 0.0
C509 C 0.17405 0.5073 0.63268 0.0
C510 C 0.23465 0.51235 0.64053 0.0
C511 C 0.18432 0.49932 0.67275 0.0
C512 C 0.27899 0.50512 0.60734 0.0
C513 C 0.30604 0.51289 0.69292 0.0
N514 N 0.21365 0.50197 0.67557 0.0
N515 N 0.27946 0.51537 0.68638 0.0
H516 H 0.76685 0.32368 1.06906 0.0
H517 H 0.65122 0.18424 0.89823 0.0
H518 H 0.797 0.30981 0.93797 0.0
H519 H 0.64539 0.17253 1.04333 0.0
H520 H 0.69712 0.23742 0.90883 0.0
H521 H 0.71511 0.27571 1.05638 0.0
C522 C 0.76245 0.31092 1.03728 0.0
C523 C 0.78651 0.32085 1.00461 0.0
C524 C 0.68537 0.22347 0.93837 0.0
C525 C 0.72705 0.2659 0.98971 0.0
C526 C 0.65893 0.19317 0.93238 0.0
C527 C 0.64414 0.17381 0.96998 0.0
C528 C 0.69691 0.23501 0.98232 0.0
C529 C 0.65584 0.18662 1.01339 0.0
C530 C 0.73295 0.2834 1.0302 0.0
C531 C 0.7793 0.30308 0.96418 0.0
N532 N 0.68137 0.21627 1.01837 0.0
N533 N 0.7504 0.27665 0.95789 0.0
H534 H 0.4895 0.66589 0.35112 0.0
H535 H 0.48208 0.81373 0.26943 0.0
H536 H 0.45036 0.66374 0.21884 0.0
H537 H 0.45032 0.77887 0.40425 0.0
H538 H 0.47894 0.76341 0.2494 0.0
H539 H 0.4834 0.71133 0.3717 0.0
C540 C 0.47952 0.67492 0.32646 0.0
C541 C 0.47039 0.66093 0.28321 0.0
C542 C 0.47241 0.76671 0.28323 0.0
C543 C 0.46442 0.71365 0.30604 0.0
C544 C 0.4742 0.79539 0.2947 0.0
C545 C 0.46633 0.8005 0.33851 0.0
C546 C 0.4636 0.7432 0.31618 0.0
C547 C 0.4564 0.77589 0.36998 0.0
C548 C 0.47598 0.70077 0.33829 0.0
C549 C 0.45755 0.67364 0.25263 0.0
N550 N 0.45587 0.74858 0.35848 0.0
N551 N 0.45553 0.69961 0.26428 0.0
H552 H 0.65971 0.46254 0.73003 0.0
H553 H 0.7876 0.45714 0.56207 0.0
H554 H 0.66188 0.4804 0.58672 0.0
H555 H 0.80738 0.48291 0.70334 0.0
H556 H 0.73502 0.45228 0.5712 0.0
H557 H 0.70675 0.45651 0.72124 0.0
C558 C 0.6695 0.46438 0.6965 0.0
C559 C 0.6565 0.47188 0.65903 0.0
C560 C 0.75068 0.45855 0.60037 0.0
C561 C 0.7108 0.46504 0.64868 0.0
C562 C 0.78068 0.46105 0.59529 0.0
C563 C 0.80217 0.47036 0.63204 0.0
C564 C 0.74156 0.4648 0.64277 0.0
C565 C 0.79173 0.47558 0.67405 0.0
C566 C 0.69663 0.46125 0.69157 0.0
C567 C 0.67085 0.47451 0.61657 0.0
N568 N 0.7624 0.47271 0.67825 0.0
N569 N 0.697 0.4711 0.61257 0.0
H570 H 0.33974 0.7851 0.93308 0.0
H571 H 0.15842 0.6912 0.98748 0.0
H572 H 0.29652 0.82578 1.0163 0.0
H573 H 0.21013 0.64511 1.02857 0.0
H574 H 0.20866 0.73955 0.97435 0.0
H575 H 0.2932 0.73239 0.94689 0.0
C576 C 0.32086 0.78309 0.95455 0.0
C577 C 0.32247 0.81031 0.97358 0.0
C578 C 0.20905 0.71877 0.98582 0.0
C579 C 0.26855 0.75012 0.98789 0.0
C580 C 0.18031 0.69102 0.99334 0.0
C581 C 0.17974 0.66379 1.00953 0.0
C582 C 0.23794 0.71958 0.99314 0.0
C583 C 0.20927 0.66546 1.01634 0.0
C584 C 0.29423 0.75296 0.96228 0.0
C585 C 0.29675 0.80587 1.0007 0.0
N586 N 0.23716 0.69277 1.00787 0.0
N587 N 0.27092 0.77676 1.00622 0.0
H588 H 0.52649 0.23701 1.02567 0.0
H589 H 0.58221 0.24826 0.23126 0.0
H590 H 0.60795 0.23 0.9858 0.0
H591 H 0.66856 0.2601 0.17279 0.0
H592 H 0.5693 0.26356 0.16046 0.0
H593 H 0.55627 0.26855 1.0912 0.0
C594 C 0.5509 0.24274 1.03009 0.0
C595 C 0.56404 0.2293 1.00152 0.0
C596 C 0.5916 0.26389 0.16282 0.0
C597 C 0.5978 0.26391 1.07777 0.0
C598 C 0.59912 0.25514 0.20394 0.0
C599 C 0.62589 0.2515 0.2076 0.0
C600 C 0.61074 0.2685 1.1247 0.0
C601 C 0.64689 0.26113 0.17091 0.0
C602 C 0.56787 0.26044 1.06804 0.0
C603 C 0.59625 0.23885 1.00759 0.0
N604 N 0.63842 0.2683 1.13063 0.0
N605 N 0.61165 0.25465 1.04585 0.0
H606 H 0.40801 0.68664 0.38373 0.0
H607 H 0.46363 0.69617 0.58183 0.0
H608 H 0.32901 0.60706 0.44632 0.0
H609 H 0.37021 0.65514 0.64041 0.0
H610 H 0.44427 0.709 0.51533 0.0
H611 H 0.41838 0.71621 0.45494 0.0
C612 C 0.39226 0.67577 0.41213 0.0
C613 C 0.36861 0.64392 0.41005 0.0
C614 C 0.42797 0.69818 0.54312 0.0
C615 C 0.38103 0.6769 0.49165 0.0
C616 C 0.4392 0.6907 0.58193 0.0
C617 C 0.41802 0.67201 0.61595 0.0
C618 C 0.3952 0.68606 0.53764 0.0
C619 C 0.38696 0.66707 0.61348 0.0
C620 C 0.39828 0.69256 0.45281 0.0
C621 C 0.34813 0.63126 0.44699 0.0
N622 N 0.37602 0.67248 0.57394 0.0
N623 N 0.35543 0.64747 0.48687 0.0
H624 H 0.72093 0.30836 0.91403 0.0
H625 H 0.76639 0.28887 0.71938 0.0
H626 H 0.70545 0.37547 0.84024 0.0
H627 H 0.70831 0.32068 0.65257 0.0
H628 H 0.73609 0.27964 0.78684 0.0
H629 H 0.70565 0.27505 0.8468 0.0
C630 C 0.71358 0.31588 0.88416 0.0
C631 C 0.71629 0.34579 0.88218 0.0
C632 C 0.72893 0.2876 0.75725 0.0
C633 C 0.70068 0.3084 0.80413 0.0
C634 C 0.74652 0.29292 0.71784 0.0
C635 C 0.74165 0.30787 0.68054 0.0
C636 C 0.70682 0.29803 0.75989 0.0
C637 C 0.7147 0.31146 0.68153 0.0
C638 C 0.70527 0.2969 0.84537 0.0
C639 C 0.70554 0.35349 0.84258 0.0
N640 N 0.69926 0.30809 0.72128 0.0
N641 N 0.69922 0.33543 0.80463 0.0
H642 H 0.38369 0.71288 0.98022 0.0
H643 H 0.322 0.69994 0.18103 0.0
H644 H 0.4698 0.77104 1.05636 0.0
H645 H 0.41322 0.72648 0.24008 0.0
H646 H 0.33883 0.68737 1.11041 0.0
H647 H 0.36122 0.68033 1.04734 0.0
C648 C 0.39819 0.71859 1.01059 0.0
C649 C 0.42784 0.74643 1.0134 0.0
C650 C 0.35487 0.69462 1.13919 0.0
C651 C 0.40223 0.70928 1.0902 0.0
C652 C 0.34527 0.7022 0.17963 0.0
C653 C 0.36685 0.71601 0.2158 0.0
C654 C 0.38642 0.70131 1.13492 0.0
C655 C 0.39609 0.71695 0.21273 0.0
C656 C 0.38523 0.69994 1.04902 0.0
C657 C 0.4463 0.7509 1.05254 0.0
N658 N 0.40541 0.7108 0.17248 0.0
N659 N 0.43283 0.73315 1.08978 0.0
H660 H 0.6127 0.33315 0.4019 0.0
H661 H 0.55061 0.29297 0.60259 0.0
H662 H 0.67125 0.4242 0.46404 0.0
H663 H 0.62703 0.38149 0.65241 0.0
H664 H 0.58311 0.29576 0.53887 0.0
H665 H 0.60904 0.30842 0.47484 0.0
C666 C 0.62533 0.34789 0.43086 0.0
C667 C 0.64106 0.38083 0.42749 0.0
C668 C 0.5935 0.3142 0.56425 0.0
C669 C 0.63573 0.35289 0.5117 0.0
C670 C 0.57471 0.31247 0.60104 0.0
C671 C 0.58523 0.33798 0.63133 0.0
C672 C 0.62285 0.34185 0.55782 0.0
C673 C 0.61719 0.36176 0.62896 0.0
C674 C 0.62299 0.33376 0.4728 0.0
C675 C 0.6581 0.39874 0.46537 0.0
N676 N 0.63445 0.3637 0.59184 0.0
N677 N 0.65422 0.38459 0.5062 0.0
H678 H 0.26732 0.68381 0.90133 0.0
H679 H 0.22033 0.69677 0.70573 0.0
H680 H 0.2627 0.60341 0.834 0.0
H681 H 0.27032 0.6547 0.64231 0.0
H682 H 0.25295 0.70805 0.77172 0.0
H683 H 0.28648 0.71377 0.8311 0.0
C684 C 0.27129 0.67281 0.87208 0.0
C685 C 0.2621 0.64073 0.8727 0.0
C686 C 0.25777 0.69726 0.74302 0.0
C687 C 0.28253 0.6742 0.79212 0.0
C688 C 0.23878 0.69066 0.70448 0.0
C689 C 0.24027 0.67196 0.66923 0.0
C690 C 0.27769 0.68428 0.74694 0.0
C691 C 0.26603 0.66643 0.67025 0.0
C692 C 0.28203 0.68983 0.83195 0.0
C693 C 0.26863 0.62783 0.83454 0.0
N694 N 0.28258 0.67091 0.70953 0.0
N695 N 0.27752 0.64433 0.79524 0.0
H696 H 0.37775 0.94949 1.0673 0.0
H697 H 0.53125 0.07152 0.2211 0.0
H698 H 0.47182 0.96778 1.03937 0.0
H699 H 0.43577 0.03043 0.27037 0.0
H700 H 0.51036 0.0396 0.15099 0.0
H701 H 0.3982 0.98286 1.13642 0.0
C702 C 0.40278 0.96049 1.07525 0.0
C703 C 0.42279 0.95497 1.0464 0.0
C704 C 0.49395 0.03706 0.17735 0.0
C705 C 0.44717 -0.00522 1.12744 0.0
C706 C 0.50595 0.05579 0.21778 0.0
C707 C 0.48571 0.05431 0.25333 0.0
C708 C 0.46109 0.01596 0.17091 0.0
C709 C 0.45291 0.03296 0.24505 0.0
C710 C 0.41458 0.97971 1.11533 0.0
C711 C 0.45512 0.97054 1.06006 0.0
N712 N 0.44195 0.01512 0.2056 0.0
N713 N 0.46607 0.98946 1.09851 0.0
H714 H 0.43655 0.3797 0.36411 0.0
H715 H 0.45474 0.50706 0.55513 0.0
H716 H 0.5251 0.46456 0.38934 0.0
H717 H 0.38831 0.40888 0.57565 0.0
H718 H 0.4741 0.49246 0.48682 0.0
H719 H 0.41456 0.39043 0.43298 0.0
C720 C 0.45166 0.40065 0.38388 0.0
C721 C 0.48333 0.4209 0.36958 0.0
C722 C 0.45588 0.47426 0.50693 0.0
C723 C 0.45704 0.43415 0.45036 0.0
C724 C 0.44427 0.48242 0.54609 0.0
C725 C 0.41959 0.45946 0.57312 0.0
C726 C 0.44359 0.4428 0.49295 0.0
C727 C 0.40735 0.42792 0.55722 0.0
C728 C 0.43884 0.40675 0.42378 0.0
C729 C 0.50087 0.44772 0.39798 0.0
N730 N 0.41924 0.42072 0.51892 0.0
N731 N 0.48757 0.45356 0.43575 0.0
H732 H 0.03 0.41916 0.73375 0.0
H733 H 0.90834 0.45073 0.88765 0.0
H734 H 0.01419 0.49643 0.70885 0.0
H735 H 0.94496 0.39171 0.93303 0.0
H736 H 0.94174 0.46337 0.81921 0.0
H737 H -0.00414 0.40551 0.80162 0.0
C738 C 0.01944 0.43342 0.74207 0.0
C739 C 0.02593 0.45952 0.71424 0.0
C740 C 0.94285 0.44795 0.84424 0.0
C741 C 0.98499 0.44316 0.79419 0.0
C742 C 0.92328 0.44033 0.88379 0.0
C743 C 0.92302 0.41981 0.91788 0.0
C744 C 0.96304 0.43522 0.83699 0.0
C745 C 0.94364 0.4076 0.9089 0.0
C746 C -0.0003 0.42553 0.7815 0.0
C747 C 0.01074 0.47645 0.72855 0.0
N748 N 0.96221 0.41526 0.87026 0.0
N749 N -0.00868 0.46804 0.76636 0.0
H750 H 0.52774 0.97007 0.28836 0.0
H751 H 0.53195 0.98 1.01195 0.0
H752 H 0.46067 0.89217 0.20624 0.0
H753 H 0.57194 0.06219 1.09779 0.0
H754 H 0.51132 0.94658 1.08028 0.0
H755 H 0.54815 0.00207 0.21958 0.0
C756 C 0.51709 0.95935 0.25601 0.0
C757 C 0.49189 0.92765 0.2547 0.0
C758 C 0.52481 0.9719 1.08448 0.0
C759 C 0.51671 0.9654 0.17271 0.0
C760 C 0.53688 -0.00874 1.04502 0.0
C761 C 0.55403 0.02459 1.04788 0.0
C762 C 0.52997 0.98538 1.12854 0.0
C763 C 0.55898 0.03693 1.09273 0.0
C764 C 0.529 0.978 0.21618 0.0
C765 C 0.47979 0.91617 0.21035 0.0
N766 N 0.54749 0.01769 1.13038 0.0
N767 N 0.49231 0.93462 0.17193 0.0
H768 H 0.60555 0.54532 0.53921 0.0
H769 H 0.45977 0.55545 0.41373 0.0
H770 H 0.51468 0.51165 0.60146 0.0
H771 H 0.54298 0.56965 0.34302 0.0
H772 H 0.48144 0.54577 0.48417 0.0
H773 H 0.58553 0.55916 0.47067 0.0
C774 C 0.58147 0.54102 0.53906 0.0
C775 C 0.56207 0.52673 0.5774 0.0
C776 C 0.49497 0.55071 0.45323 0.0
C777 C 0.53853 0.54388 0.49707 0.0
C778 C 0.48244 0.55638 0.41241 0.0
C779 C 0.49898 0.56344 0.37068 0.0
C780 C 0.52449 0.55133 0.45373 0.0
C781 C 0.52868 0.56434 0.37324 0.0
C782 C 0.56989 0.549 0.49933 0.0
C783 C 0.53094 0.52217 0.57353 0.0
N784 N 0.54005 0.55837 0.41297 0.0
N785 N 0.52068 0.53098 0.53528 0.0
H786 H 0.00872 0.55099 0.95388 0.0
H787 H -0.00556 0.53956 0.67713 0.0
H788 H 0.08589 0.56089 0.87159 0.0
H789 H 0.91292 0.50128 0.76356 0.0
H790 H 0.02893 0.55317 0.74535 0.0
H791 H 0.97535 0.538 0.88532 0.0
C792 C 0.01904 0.5506 0.92156 0.0
C793 C 0.051 0.55732 0.92024 0.0
C794 C 0.00353 0.54192 0.74973 0.0
C795 C 0.0115 0.5426 0.83829 0.0
C796 C 0.98352 0.53412 0.71028 0.0
C797 C 0.95 0.51891 0.71321 0.0
C798 C -0.00936 0.53501 0.79402 0.0
C799 C 0.93824 0.51276 0.75831 0.0
C800 C -0.00044 0.54303 0.88181 0.0
C801 C 0.06179 0.55597 0.87584 0.0
N802 N 0.95814 0.52092 0.79594 0.0
N803 N 0.04254 0.54921 0.83752 0.0
H804 H 0.55789 0.05785 0.49099 0.0
H805 H 0.4046 0.91832 0.4751 0.0
H806 H 0.46683 0.04107 0.44413 0.0
H807 H 0.50073 0.94073 0.45116 0.0
H808 H 0.42347 0.95746 0.53639 0.0
H809 H 0.53164 0.02073 0.55261 0.0
C810 C 0.53232 0.04624 0.49361 0.0
C811 C 0.51389 0.04924 0.45937 0.0
C812 C 0.44027 0.9527 0.51917 0.0
C813 C 0.48437 0.00669 0.52804 0.0
C814 C 0.4297 0.9313 0.48308 0.0
C815 C 0.45175 0.92888 0.45534 0.0
C816 C 0.47304 0.97276 0.5251 0.0
C817 C 0.48341 0.94407 0.46919 0.0
C818 C 0.51746 0.02616 0.52993 0.0
C819 C 0.48144 0.03645 0.46692 0.0
N820 N 0.49321 0.96546 0.50332 0.0
N821 N 0.46753 0.01571 0.50106 0.0
H822 H 0.40637 0.47002 0.83221 0.0
H823 H 0.53385 0.54842 0.74353 0.0
H824 H 0.46165 0.44966 0.74102 0.0
H825 H 0.57839 0.51626 0.83824 0.0
H826 H 0.49828 0.54518 0.80381 0.0
H827 H 0.45205 0.49778 0.88297 0.0
C828 C 0.42801 0.47065 0.82337 0.0
C829 C 0.43322 0.46411 0.77871 0.0
C830 C 0.5165 0.5394 0.81197 0.0
C831 C 0.48244 0.48857 0.83987 0.0
C832 C 0.53703 0.54153 0.77717 0.0
C833 C 0.55599 0.52785 0.78398 0.0
C834 C 0.51187 0.51845 0.84772 0.0
C835 C 0.56019 0.52149 0.82915 0.0
C836 C 0.45365 0.48556 0.85326 0.0
C837 C 0.4582 0.45823 0.77321 0.0
N838 N 0.53702 0.51521 0.85968 0.0
N839 N 0.48285 0.47175 0.80298 0.0
H840 H 0.91835 0.48893 0.15202 0.0
H841 H 0.0624 0.48029 1.13966 0.0
H842 H 0.93632 0.41545 1.10804 0.0
H843 H 0.03815 0.55208 1.11332 0.0
H844 H 0.02208 0.45909 0.19891 0.0
H845 H 0.95758 0.50257 0.21263 0.0
C846 C 0.93059 0.47567 0.15515 0.0
C847 C 0.92724 0.45363 1.12189 0.0
C848 C 0.02665 0.4804 0.18161 0.0
C849 C 0.97199 0.46958 0.18953 0.0
C850 C 0.04875 0.49176 0.1467 0.0
C851 C 0.05111 0.51597 1.11891 0.0
C852 C 0.00602 0.49247 0.18649 0.0
C853 C 0.03496 0.53162 1.13147 0.0
C854 C 0.95196 0.48253 0.19089 0.0
C855 C 0.94101 0.435 1.13006 0.0
N856 N 0.01292 0.51952 0.16443 0.0
N857 N 0.96293 0.44334 0.16355 0.0
H858 H 0.05307 0.46816 0.45401 0.0
H859 H -0.00116 0.53967 0.54748 0.0
H860 H 0.97556 0.44347 0.54289 0.0
H861 H 0.92173 0.50434 0.45182 0.0
H862 H 0.03295 0.54158 0.48553 0.0
H863 H 0.03474 0.49599 0.40466 0.0
C864 C 0.03167 0.46808 0.4627 0.0
C865 C 0.01951 0.46079 0.50696 0.0
C866 C 0.00838 0.53398 0.47779 0.0
C867 C -0.00598 0.4844 0.44671 0.0
C868 C 0.98896 0.53302 0.51354 0.0
C869 C 0.95614 0.5174 0.50627 0.0
C870 C -0.00679 0.51365 0.44044 0.0
C871 C 0.9456 0.51134 0.46088 0.0
C872 C 0.0207 0.48292 0.43353 0.0
C873 C 0.98801 0.45311 0.51143 0.0
N874 N 0.96414 0.5088 0.42886 0.0
N875 N 0.97646 0.4663 0.4822 0.0
H876 H 0.40489 0.92503 0.78586 0.0
H877 H 0.52689 0.97427 0.87778 0.0
H878 H 0.45848 0.00325 0.87425 0.0
H879 H 0.57422 0.05278 0.78804 0.0
H880 H 0.49494 0.94307 0.81324 0.0
H881 H 0.44992 0.94366 0.73462 0.0
C882 C 0.42599 0.94672 0.79394 0.0
C883 C 0.43141 0.95933 0.83816 0.0
C884 C 0.51292 0.96732 0.80738 0.0
C885 C 0.47953 0.98449 0.77646 0.0
C886 C 0.53136 0.98506 0.84461 0.0
C887 C 0.54999 0.01775 0.84001 0.0
C888 C 0.50935 0.98416 0.77118 0.0
C889 C 0.55597 0.02928 0.79535 0.0
C890 C 0.45118 0.95787 0.76368 0.0
C891 C 0.45519 0.99067 0.84256 0.0
N892 N 0.53467 0.01274 0.76204 0.0
N893 N 0.47931 0.00217 0.81234 0.0
H894 H 0.40932 0.48321 0.14646 0.0
H895 H 0.56022 0.4925 1.13421 0.0
H896 H 0.50613 0.5538 0.17448 0.0
H897 H 0.46811 0.41934 0.17616 0.0
H898 H 0.53532 0.50419 1.07091 0.0
H899 H 0.42748 0.46298 1.08449 0.0
C900 C 0.43443 0.49459 1.13933 0.0
C901 C 0.45676 0.51812 0.16825 0.0
C902 C 0.5206 0.4847 1.09296 0.0
C903 C 0.47727 0.4955 1.09774 0.0
C904 C 0.53469 0.47904 1.13027 0.0
C905 C 0.51555 0.45778 0.16368 0.0
C906 C 0.4876 0.47206 1.09348 0.0
C907 C 0.48322 0.43863 0.15425 0.0
C908 C 0.44463 0.48384 1.10285 0.0
C909 C 0.48851 0.53377 0.15547 0.0
N910 N 0.47008 0.446 1.11919 0.0
N911 N 0.49792 0.52213 1.12099 0.0
H912 H 0.255 0.8904 0.69362 0.0
H913 H 0.30149 0.97945 0.50403 0.0
H914 H 0.27668 0.97498 0.76777 0.0
H915 H 0.35192 0.05423 0.60173 0.0
H916 H 0.26399 0.94803 0.56302 0.0
H917 H 0.26087 0.91804 0.62287 0.0
C918 C 0.25986 0.9145 0.69494 0.0
C919 C 0.26635 0.93071 0.73648 0.0
C920 C 0.28315 0.97132 0.57157 0.0
C921 C 0.27295 0.96263 0.65572 0.0
C922 C 0.30438 0.98941 0.5378 0.0
C923 C 0.33037 0.01905 0.54855 0.0
C924 C 0.28832 0.98297 0.61631 0.0
C925 C 0.3328 0.03103 0.59252 0.0
C926 C 0.26299 0.93032 0.65441 0.0
C927 C 0.27189 0.96167 0.73647 0.0
N928 N 0.31232 0.01275 0.62497 0.0
N929 N 0.27601 0.97692 0.69662 0.0
H930 H 0.30242 0.32113 1.11645 0.0
H931 H 0.25163 0.35962 0.92595 0.0
H932 H 0.34788 0.29088 1.01911 0.0
H933 H 0.26989 0.29334 0.8545 0.0
H934 H 0.25832 0.33917 0.99754 0.0
H935 H 0.26343 0.31456 1.05861 0.0
C936 C 0.30392 0.31272 1.08301 0.0
C937 C 0.32894 0.30748 1.07197 0.0
C938 C 0.25949 0.328 0.96645 0.0
C939 C 0.28515 0.30086 1.00543 0.0
C940 C 0.25586 0.33993 0.9254 0.0
C941 C 0.26136 0.32896 0.88429 0.0
C942 C 0.26886 0.30511 0.96607 0.0
C943 C 0.26597 0.30292 0.88538 0.0
C944 C 0.28183 0.30926 1.04987 0.0
C945 C 0.32958 0.29621 1.02847 0.0
N946 N 0.2706 0.29253 0.92567 0.0
N947 N 0.30828 0.29371 0.9966 0.0
H948 H 0.91518 0.27615 0.26234 0.0
H949 H 0.00475 0.28751 0.4416 0.0
H950 H -0.00018 0.31724 0.18116 0.0
H951 H 0.08128 0.35559 0.35938 0.0
H952 H 0.97495 0.26191 0.37289 0.0
H953 H 0.94461 0.27007 0.32432 0.0
C954 C 0.93988 0.28324 0.25735 0.0
C955 C 0.95531 0.29792 0.21713 0.0
C956 C -0.00171 0.28235 0.36972 0.0
C957 C 0.98936 0.29053 0.28765 0.0
C958 C 0.01566 0.29666 0.40905 0.0
C959 C 0.045 0.32456 0.40616 0.0
C960 C 0.01014 0.29661 0.32757 0.0
C961 C 0.05811 0.33491 0.36308 0.0
C962 C 0.95671 0.27932 0.29259 0.0
C963 C 0.98711 0.30607 0.21187 0.0
N964 N 0.04022 0.32143 0.32541 0.0
N965 N 0.0033 0.30296 0.24718 0.0
H966 H 0.72587 0.06905 0.73358 0.0
H967 H 0.67971 -0.00374 0.53136 0.0
H968 H 0.67988 0.9773 0.79513 0.0
H969 H 0.61563 0.91659 0.61205 0.0
H970 H 0.71493 0.01811 0.59679 0.0
H971 H 0.7225 0.04487 0.66053 0.0
C972 C 0.71628 0.04381 0.73197 0.0
C973 C 0.70217 0.02501 0.77006 0.0
C974 C 0.6932 -0.0041 0.60042 0.0
C975 C 0.69768 -0.00324 0.68611 0.0
C976 C 0.67321 0.98318 0.56277 0.0
C977 C 0.6441 0.95513 0.56682 0.0
C978 C 0.68359 0.98071 0.64252 0.0
C979 C 0.6372 0.93895 0.60803 0.0
C980 C 0.71423 0.02981 0.68989 0.0
C981 C 0.69011 -0.00751 0.76611 0.0
N982 N 0.65651 0.95226 0.64449 0.0
N983 N 0.68732 0.97929 0.72458 0.0
H984 H 0.6391 0.70194 1.02737 0.0
H985 H 0.71627 0.69512 0.8458 0.0
H986 H 0.68219 0.65788 1.10343 0.0
H987 H 0.73131 0.63005 0.92557 0.0
H988 H 0.712 0.71953 0.91527 0.0
H989 H 0.6759 0.71181 0.96614 0.0
C990 C 0.65681 0.69489 1.03144 0.0
C991 C 0.65699 0.67825 1.06986 0.0
C992 C 0.71633 0.7 0.91784 0.0
C993 C 0.70002 0.69 1.00013 0.0
C994 C 0.71948 0.68642 0.87797 0.0
C995 C 0.72264 0.65951 0.88 0.0
C996 C 0.71547 0.68589 0.95965 0.0
C997 C 0.72737 0.64983 0.92259 0.0
C998 C 0.67833 0.70098 0.99661 0.0
C999 C 0.68096 0.67047 1.07411 0.0
N1000 N 0.72268 0.66241 0.96082 0.0
N1001 N 0.70105 0.67578 1.03918 0.0
H1002 H 0.0444 0.70113 0.25419 0.0
H1003 H 0.96251 0.69945 0.4369 0.0
H1004 H 0.95516 0.6407 0.1869 0.0
H1005 H 0.88845 0.61512 0.37299 0.0
H1006 H 0.98545 0.71898 0.36231 0.0
H1007 H 0.01627 0.71045 0.31465 0.0
C1008 C 0.01886 0.69037 0.25176 0.0
C1009 C 0.00199 0.6694 0.21628 0.0
C1010 C 0.964 0.69636 0.36453 0.0
C1011 C 0.96939 0.68045 0.28488 0.0
C1012 C 0.95073 0.68533 0.40709 0.0
C1013 C 0.9244 0.65497 0.41134 0.0
C1014 C 0.95099 0.67655 0.32643 0.0
C1015 C 0.90922 0.63832 0.37157 0.0
C1016 C 0.00272 0.69611 0.286 0.0
C1017 C 0.96906 0.65674 0.21398 0.0
N1018 N 0.92324 0.64898 0.33085 0.0
N1019 N 0.95377 0.66186 0.24845 0.0
H1020 H 0.59509 0.13137 0.52356 0.0
H1021 H 0.53737 0.11265 0.78637 0.0
H1022 H 0.50022 0.10689 0.56084 0.0
H1023 H 0.62085 0.10896 0.74935 0.0
H1024 H 0.52643 0.11578 0.70571 0.0
H1025 H 0.60732 0.12846 0.60426 0.0
C1026 C 0.57673 0.12572 0.54842 0.0
C1027 C 0.54641 0.11979 0.53378 0.0
C1028 C 0.54729 0.11446 0.71484 0.0
C1029 C 0.5608 0.11641 0.62914 0.0
C1030 C 0.55383 0.11283 0.76162 0.0
C1031 C 0.58045 0.11068 0.7765 0.0
C1032 C 0.56757 0.11455 0.68063 0.0
C1033 C 0.60012 0.1107 0.74094 0.0
C1034 C 0.58383 0.12386 0.59507 0.0
C1035 C 0.52402 0.11204 0.56915 0.0
N1036 N 0.59347 0.11277 0.69558 0.0
N1037 N 0.53165 0.11087 0.61419 0.0
H1038 H 0.35382 0.47401 0.87585 0.0
H1039 H 0.4814 0.59585 1.0617 0.0
H1040 H 0.43529 0.56191 0.83892 0.0
H1041 H 0.38624 0.52843 1.10056 0.0
H1042 H 0.46674 0.58026 0.98166 0.0
H1043 H 0.36628 0.48935 0.95699 0.0
C1044 C 0.37419 0.49662 0.88427 0.0
C1045 C 0.39298 0.51661 0.84874 0.0
C1046 C 0.44886 0.56881 1.00744 0.0
C1047 C 0.40833 0.5344 0.94429 0.0
C1048 C 0.45729 0.57785 1.05384 0.0
C1049 C 0.4352 0.56414 1.08958 0.0
C1050 C 0.41794 0.54492 0.99491 0.0
C1051 C 0.40438 0.54045 1.07531 0.0
C1052 C 0.38141 0.50544 0.93122 0.0
C1053 C 0.4194 0.54548 0.86376 0.0
N1054 N 0.39695 0.53165 1.03007 0.0
N1055 N 0.4262 0.55311 0.90925 0.0
H1056 H 0.86878 0.38127 0.2247 0.0
H1057 H 0.86637 0.50377 0.41173 0.0
H1058 H 0.84479 0.45149 0.1868 0.0
H1059 H 0.8588 0.41545 0.4484 0.0
H1060 H 0.8631 0.48859 0.33057 0.0
H1061 H 0.87004 0.39635 0.30512 0.0
C1062 C 0.86359 0.39978 0.23282 0.0
C1063 C 0.85616 0.41447 0.19722 0.0
C1064 C 0.86198 0.47236 0.35627 0.0
C1065 C 0.85846 0.43302 0.2923 0.0
C1066 C 0.86376 0.48108 0.40326 0.0
C1067 C 0.86247 0.46099 0.43877 0.0
C1068 C 0.85956 0.44334 0.34306 0.0
C1069 C 0.85951 0.432 0.42361 0.0
C1070 C 0.86437 0.40852 0.27943 0.0
C1071 C 0.85019 0.43875 0.21187 0.0
N1072 N 0.85846 0.42444 0.37807 0.0
N1073 N 0.85167 0.44717 0.25724 0.0
H1074 H 0.38237 0.84706 0.52049 0.0
H1075 H 0.43652 0.86447 0.78595 0.0
H1076 H 0.4778 0.87559 0.56212 0.0
H1077 H 0.35339 0.86824 0.74595 0.0
H1078 H 0.44866 0.8624 0.70559 0.0
H1079 H 0.36861 0.84866 0.60082 0.0
C1080 C 0.40053 0.85332 0.54622 0.0
C1081 C 0.4315 0.86083 0.53294 0.0
C1082 C 0.42757 0.86343 0.71401 0.0
C1083 C 0.41535 0.8626 0.62778 0.0
C1084 C 0.42031 0.86439 0.76059 0.0
C1085 C 0.3934 0.86619 0.77453 0.0
C1086 C 0.40772 0.86365 0.67905 0.0
C1087 C 0.37422 0.86658 0.73824 0.0
C1088 C 0.39256 0.85443 0.59264 0.0
C1089 C 0.45358 0.86928 0.56935 0.0
N1090 N 0.38154 0.8651 0.69309 0.0
N1091 N 0.44511 0.86962 0.61409 0.0
H1092 H 0.6293 0.5112 0.87725 0.0
H1093 H 0.59975 0.45613 1.10569 0.0
H1094 H 0.54702 0.4228 0.84203 0.0
H1095 H 0.50481 0.39111 1.06062 0.0
H1096 H 0.61463 0.47288 1.02684 0.0
H1097 H 0.61862 0.49728 0.9582 0.0
C1098 C 0.60916 0.48867 0.88607 0.0
C1099 C 0.58956 0.46826 0.851 0.0
C1100 C 0.59044 0.45501 1.03364 0.0
C1101 C 0.5764 0.45163 0.94681 0.0
C1102 C 0.58184 0.44502 1.07944 0.0
C1103 C 0.55072 0.4216 1.09154 0.0
C1104 C 0.5681 0.44164 0.99763 0.0
C1105 C 0.52912 0.40895 1.05433 0.0
C1106 C 0.60294 0.48054 0.93306 0.0
C1107 C 0.56345 0.43956 0.86655 0.0
N1108 N 0.53816 0.4188 1.01005 0.0
N1109 N 0.55772 0.43245 0.91219 0.0
H1110 H 0.11348 0.56148 0.45212 0.0
H1111 H 0.13336 0.52724 0.18651 0.0
H1112 H 0.11045 0.47553 0.41203 0.0
H1113 H 0.10391 0.5928 0.22841 0.0
H1114 H 0.13108 0.51114 0.26664 0.0
H1115 H 0.11595 0.57583 0.37192 0.0
C1116 C 0.11375 0.54554 0.42681 0.0
C1117 C 0.11205 0.51706 0.44085 0.0
C1118 C 0.12526 0.52919 0.25858 0.0
C1119 C 0.11516 0.5342 0.34516 0.0
C1120 C 0.12677 0.53871 0.21223 0.0
C1121 C 0.11922 0.56205 0.19899 0.0
C1122 C 0.11662 0.5432 0.29379 0.0
C1123 C 0.1103 0.57503 0.2355 0.0
C1124 C 0.11497 0.55387 0.38023 0.0
C1125 C 0.11197 0.49781 0.40441 0.0
N1126 N 0.10959 0.56582 0.2801 0.0
N1127 N 0.11374 0.50674 0.35923 0.0
loop_
_geom_bond_atom_site_label_1
_geom_bond_atom_site_label_2
_geom_bond_distance
_geom_bond_site_symmetry_2
_ccdc_geom_bond_type
Ho0 C3 2.811 . S
Ho0 O20 2.322 . S
Ho0 O22 2.378 . S
Ho0 O23 2.524 . S
Ho0 O24 2.381 . S
Ho0 O25 2.669 . S
Ho0 O27 2.346 . S
Ho0 O31 2.305 . S
Ho1 C12 2.811 . S
Ho1 O21 2.346 . S
Ho1 O25 2.305 . S
Ho1 O26 2.322 . S
Ho1 O28 2.378 . S
Ho1 O29 2.524 . S
Ho1 O30 2.381 . S
Ho1 O31 2.669 . S
C2 O20 1.259 . S
C2 O21 1.268 . S
C3 Ho0 2.811 . S
C3 C4 1.488 . S
C3 O22 1.215 . S
C3 O23 1.289 . S
C4 C3 1.488 . S
C4 C5 1.348 . S
C4 C9 1.413 . S
C5 C4 1.348 . S
C5 C6 1.442 . S
C5 H32 0.930 . S
C6 C5 1.442 . S
C6 C7 1.381 . S
C6 H33 0.931 . S
C7 C6 1.381 . S
C7 C8 1.321 . S
C8 C7 1.321 . S
C8 C9 1.403 . S
C8 H34 0.934 . S
C9 C4 1.413 . S
C9 C8 1.403 . S
C9 H35 0.930 . S
C10 O24 1.275 . S
C10 O25 1.256 . S
C11 O26 1.259 . S
C11 O27 1.268 . S
C12 Ho1 2.811 . S
C12 C13 1.488 . S
C12 O28 1.215 . S
C12 O29 1.289 . S
C13 C12 1.488 . S
C13 C14 1.348 . S
C13 C18 1.413 . S
C14 C13 1.348 . S
C14 C15 1.442 . S
C14 H36 0.930 . S
C15 C14 1.442 . S
C15 C16 1.381 . S
C15 H37 0.931 . S
C16 C15 1.381 . S
C16 C17 1.321 . S
C17 C16 1.321 . S
C17 C18 1.403 . S
C17 H38 0.934 . S
C18 C13 1.413 . S
C18 C17 1.403 . S
C18 H39 0.930 . S
C19 O30 1.275 . S
C19 O31 1.256 . S
O20 Ho0 2.322 . S
O20 C2 1.259 . S
O21 Ho1 2.346 . S
O21 C2 1.268 . S
O22 Ho0 2.378 . S
O22 C3 1.215 . S
O23 Ho0 2.524 . S
O23 C3 1.289 . S
O24 Ho0 2.381 . S
O24 C10 1.275 . S
O25 Ho0 2.669 . S
O25 Ho1 2.305 . S
O25 C10 1.256 . S
O26 Ho1 2.322 . S
O26 C11 1.259 . S
O27 Ho0 2.346 . S
O27 C11 1.268 . S
O28 Ho1 2.378 . S
O28 C12 1.215 . S
O29 Ho1 2.524 . S
O29 C12 1.289 . S
O30 Ho1 2.381 . S
O30 C19 1.275 . S
O31 Ho0 2.305 . S
O31 Ho1 2.669 . S
O31 C19 1.256 . S
H32 C5 0.930 . S
H33 C6 0.931 . S
H34 C8 0.934 . S
H35 C9 0.930 . S
H36 C14 0.930 . S
H37 C15 0.931 . S
H38 C17 0.934 . S
H39 C18 0.930 . S
Ho40 C43 2.811 . S
Ho40 O60 2.322 . S
Ho40 O62 2.378 . S
Ho40 O63 2.524 . S
Ho40 O64 2.381 . S
Ho40 O65 2.669 . S
Ho40 O67 2.346 . S
Ho40 O71 2.305 . S
Ho41 C52 2.811 . S
Ho41 O61 2.346 . S
Ho41 O65 2.305 . S
Ho41 O66 2.322 . S
Ho41 O68 2.378 . S
Ho41 O69 2.524 . S
Ho41 O70 2.381 . S
Ho41 O71 2.669 . S
C42 O60 1.259 . S
C42 O61 1.268 . S
C43 Ho40 2.811 . S
C43 C44 1.488 . S
C43 O62 1.215 . S
C43 O63 1.289 . S
C44 C43 1.488 . S
C44 C45 1.348 . S
C44 C49 1.413 . S
C45 C44 1.348 . S
C45 C46 1.442 . S
C45 H72 0.930 . S
C46 C45 1.442 . S
C46 C47 1.381 . S
C46 H73 0.931 . S
C47 C46 1.381 . S
C47 C48 1.321 . S
C48 C47 1.321 . S
C48 C49 1.403 . S
C48 H74 0.934 . S
C49 C44 1.413 . S
C49 C48 1.403 . S
C49 H75 0.930 . S
C50 O64 1.275 . S
C50 O65 1.256 . S
C51 O66 1.259 . S
C51 O67 1.268 . S
C52 Ho41 2.811 . S
C52 C53 1.488 . S
C52 O68 1.215 . S
C52 O69 1.289 . S
C53 C52 1.488 . S
C53 C54 1.348 . S
C53 C58 1.413 . S
C54 C53 1.348 . S
C54 C55 1.442 . S
C54 H76 0.930 . S
C55 C54 1.442 . S
C55 C56 1.381 . S
C55 H77 0.931 . S
C56 C55 1.381 . S
C56 C57 1.321 . S
C57 C56 1.321 . S
C57 C58 1.403 . S
C57 H78 0.934 . S
C58 C53 1.413 . S
C58 C57 1.403 . S
C58 H79 0.930 . S
C59 O70 1.275 . S
C59 O71 1.256 . S
O60 Ho40 2.322 . S
O60 C42 1.259 . S
O61 Ho41 2.346 . S
O61 C42 1.268 . S
O62 Ho40 2.378 . S
O62 C43 1.215 . S
O63 Ho40 2.524 . S
O63 C43 1.289 . S
O64 Ho40 2.381 . S
O64 C50 1.275 . S
O65 Ho40 2.669 . S
O65 Ho41 2.305 . S
O65 C50 1.256 . S
O66 Ho41 2.322 . S
O66 C51 1.259 . S
O67 Ho40 2.346 . S
O67 C51 1.268 . S
O68 Ho41 2.378 . S
O68 C52 1.215 . S
O69 Ho41 2.524 . S
O69 C52 1.289 . S
O70 Ho41 2.381 . S
O70 C59 1.275 . S
O71 Ho40 2.305 . S
O71 Ho41 2.669 . S
O71 C59 1.256 . S
H72 C45 0.930 . S
H73 C46 0.931 . S
H74 C48 0.934 . S
H75 C49 0.930 . S
H76 C54 0.930 . S
H77 C55 0.931 . S
H78 C57 0.934 . S
H79 C58 0.930 . S
Ho80 C83 2.811 1_556 S
Ho80 O100 2.322 . S
Ho80 O102 2.378 . S
Ho80 O103 2.524 . S
Ho80 O104 2.381 . S
Ho80 O105 2.669 . S
Ho80 O107 2.346 . S
Ho80 O111 2.305 . S
Ho81 C92 2.811 . S
Ho81 O101 2.346 . S
Ho81 O105 2.305 . S
Ho81 O106 2.322 . S
Ho81 O108 2.378 . S
Ho81 O109 2.524 . S
Ho81 O110 2.381 . S
Ho81 O111 2.669 . S
C82 O100 1.259 . S
C82 O101 1.268 . S
C83 Ho80 2.811 1_554 S
C83 C84 1.488 . S
C83 O102 1.215 1_554 S
C83 O103 1.289 1_554 S
C84 C83 1.488 . S
C84 C85 1.348 . S
C84 C89 1.413 . S
C85 C84 1.348 . S
C85 C86 1.442 . S
C85 H112 0.930 . S
C86 C85 1.442 . S
C86 C87 1.381 . S
C86 H113 0.931 . S
C87 C86 1.381 . S
C87 C88 1.321 . S
C88 C87 1.321 . S
C88 C89 1.403 . S
C88 H114 0.934 . S
C89 C84 1.413 . S
C89 C88 1.403 . S
C89 H115 0.930 . S
C90 O104 1.275 . S
C90 O105 1.256 . S
C91 O106 1.259 . S
C91 O107 1.268 . S
C92 Ho81 2.811 . S
C92 C93 1.488 . S
C92 O108 1.215 . S
C92 O109 1.289 . S
C93 C92 1.488 . S
C93 C94 1.348 . S
C93 C98 1.413 . S
C94 C93 1.348 . S
C94 C95 1.442 . S
C94 H116 0.930 . S
C95 C94 1.442 . S
C95 C96 1.381 . S
C95 H117 0.931 . S
C96 C95 1.381 . S
C96 C97 1.321 . S
C97 C96 1.321 . S
C97 C98 1.403 . S
C97 H118 0.934 . S
C98 C93 1.413 . S
C98 C97 1.403 . S
C98 H119 0.930 . S
C99 O110 1.275 . S
C99 O111 1.256 . S
O100 Ho80 2.322 . S
O100 C82 1.259 . S
O101 Ho81 2.346 . S
O101 C82 1.268 . S
O102 Ho80 2.378 . S
O102 C83 1.215 1_556 S
O103 Ho80 2.524 . S
O103 C83 1.289 1_556 S
O104 Ho80 2.381 . S
O104 C90 1.275 . S
O105 Ho80 2.669 . S
O105 Ho81 2.305 . S
O105 C90 1.256 . S
O106 Ho81 2.322 . S
O106 C91 1.259 . S
O107 Ho80 2.346 . S
O107 C91 1.268 . S
O108 Ho81 2.378 . S
O108 C92 1.215 . S
O109 Ho81 2.524 . S
O109 C92 1.289 . S
O110 Ho81 2.381 . S
O110 C99 1.275 . S
O111 Ho80 2.305 . S
O111 Ho81 2.669 . S
O111 C99 1.256 . S
H112 C85 0.930 . S
H113 C86 0.931 . S
H114 C88 0.934 . S
H115 C89 0.930 . S
H116 C94 0.930 . S
H117 C95 0.931 . S
H118 C97 0.934 . S
H119 C98 0.930 . S
Ho120 C123 2.811 . S
Ho120 O140 2.322 . S
Ho120 O142 2.378 . S
Ho120 O143 2.524 . S
Ho120 O144 2.381 . S
Ho120 O145 2.669 . S
Ho120 O147 2.346 . S
Ho120 O151 2.305 . S
Ho121 C132 2.811 . S
Ho121 O141 2.346 . S
Ho121 O145 2.305 . S
Ho121 O146 2.322 . S
Ho121 O148 2.378 . S
Ho121 O149 2.524 . S
Ho121 O150 2.381 . S
Ho121 O151 2.669 . S
C122 O140 1.259 . S
C122 O141 1.268 . S
C123 Ho120 2.811 . S
C123 C124 1.488 . S
C123 O142 1.215 . S
C123 O143 1.289 . S
C124 C123 1.488 . S
C124 C125 1.348 . S
C124 C129 1.413 . S
C125 C124 1.348 . S
C125 C126 1.442 . S
C125 H152 0.930 . S
C126 C125 1.442 . S
C126 C127 1.381 . S
C126 H153 0.931 . S
C127 C126 1.381 . S
C127 C128 1.321 . S
C128 C127 1.321 . S
C128 C129 1.403 . S
C128 H154 0.934 . S
C129 C124 1.413 . S
C129 C128 1.403 . S
C129 H155 0.930 . S
C130 O144 1.275 . S
C130 O145 1.256 . S
C131 O146 1.259 . S
C131 O147 1.268 . S
C132 Ho121 2.811 . S
C132 C133 1.488 . S
C132 O148 1.215 . S
C132 O149 1.289 . S
C133 C132 1.488 . S
C133 C134 1.348 . S
C133 C138 1.413 . S
C134 C133 1.348 . S
C134 C135 1.442 . S
C134 H156 0.930 . S
C135 C134 1.442 . S
C135 C136 1.381 . S
C135 H157 0.931 . S
C136 C135 1.381 . S
C136 C137 1.321 . S
C137 C136 1.321 . S
C137 C138 1.403 . S
C137 H158 0.934 . S
C138 C133 1.413 . S
C138 C137 1.403 . S
C138 H159 0.930 . S
C139 O150 1.275 . S
C139 O151 1.256 . S
O140 Ho120 2.322 . S
O140 C122 1.259 . S
O141 Ho121 2.346 . S
O141 C122 1.268 . S
O142 Ho120 2.378 . S
O142 C123 1.215 . S
O143 Ho120 2.524 . S
O143 C123 1.289 . S
O144 Ho120 2.381 . S
O144 C130 1.275 . S
O145 Ho120 2.669 . S
O145 Ho121 2.305 . S
O145 C130 1.256 . S
O146 Ho121 2.322 . S
O146 C131 1.259 . S
O147 Ho120 2.346 . S
O147 C131 1.268 . S
O148 Ho121 2.378 . S
O148 C132 1.215 . S
O149 Ho121 2.524 . S
O149 C132 1.289 . S
O150 Ho121 2.381 . S
O150 C139 1.275 . S
O151 Ho120 2.305 . S
O151 Ho121 2.669 . S
O151 C139 1.256 . S
H152 C125 0.930 . S
H153 C126 0.931 . S
H154 C128 0.934 . S
H155 C129 0.930 . S
H156 C134 0.930 . S
H157 C135 0.931 . S
H158 C137 0.934 . S
H159 C138 0.930 . S
Ho160 C163 2.811 . S
Ho160 O180 2.322 . S
Ho160 O182 2.378 . S
Ho160 O183 2.524 . S
Ho160 O184 2.381 . S
Ho160 O185 2.669 . S
Ho160 O187 2.346 . S
Ho160 O191 2.305 . S
Ho161 C172 2.811 . S
Ho161 O181 2.346 . S
Ho161 O185 2.305 . S
Ho161 O186 2.322 . S
Ho161 O188 2.378 . S
Ho161 O189 2.524 . S
Ho161 O190 2.381 . S
Ho161 O191 2.669 . S
C162 O180 1.259 . S
C162 O181 1.268 . S
C163 Ho160 2.811 . S
C163 C164 1.488 . S
C163 O182 1.215 . S
C163 O183 1.289 . S
C164 C163 1.488 . S
C164 C165 1.348 . S
C164 C169 1.413 . S
C165 C164 1.348 . S
C165 C166 1.442 . S
C165 H192 0.930 . S
C166 C165 1.442 . S
C166 C167 1.381 . S
C166 H193 0.931 . S
C167 C166 1.381 . S
C167 C168 1.321 . S
C168 C167 1.321 . S
C168 C169 1.403 . S
C168 H194 0.934 . S
C169 C164 1.413 . S
C169 C168 1.403 . S
C169 H195 0.930 . S
C170 O184 1.275 . S
C170 O185 1.256 . S
C171 O186 1.259 . S
C171 O187 1.268 . S
C172 Ho161 2.811 . S
C172 C173 1.488 . S
C172 O188 1.215 . S
C172 O189 1.289 . S
C173 C172 1.488 . S
C173 C174 1.348 . S
C173 C178 1.413 . S
C174 C173 1.348 . S
C174 C175 1.442 . S
C174 H196 0.930 . S
C175 C174 1.442 . S
C175 C176 1.381 . S
C175 H197 0.931 . S
C176 C175 1.381 . S
C176 C177 1.321 . S
C177 C176 1.321 . S
C177 C178 1.403 . S
C177 H198 0.934 . S
C178 C173 1.413 . S
C178 C177 1.403 . S
C178 H199 0.930 . S
C179 O190 1.275 . S
C179 O191 1.256 . S
O180 Ho160 2.322 . S
O180 C162 1.259 . S
O181 Ho161 2.346 . S
O181 C162 1.268 . S
O182 Ho160 2.378 . S
O182 C163 1.215 . S
O183 Ho160 2.524 . S
O183 C163 1.289 . S
O184 Ho160 2.381 . S
O184 C170 1.275 . S
O185 Ho160 2.669 . S
O185 Ho161 2.305 . S
O185 C170 1.256 . S
O186 Ho161 2.322 . S
O186 C171 1.259 . S
O187 Ho160 2.346 . S
O187 C171 1.268 . S
O188 Ho161 2.378 . S
O188 C172 1.215 . S
O189 Ho161 2.524 . S
O189 C172 1.289 . S
O190 Ho161 2.381 . S
O190 C179 1.275 . S
O191 Ho160 2.305 . S
O191 Ho161 2.669 . S
O191 C179 1.256 . S
H192 C165 0.930 . S
H193 C166 0.931 . S
H194 C168 0.934 . S
H195 C169 0.930 . S
H196 C174 0.930 . S
H197 C175 0.931 . S
H198 C177 0.934 . S
H199 C178 0.930 . S
Ho200 C203 2.811 1_556 S
Ho200 O220 2.322 . S
Ho200 O222 2.378 . S
Ho200 O223 2.524 . S
Ho200 O224 2.381 . S
Ho200 O225 2.669 . S
Ho200 O227 2.346 . S
Ho200 O231 2.305 . S
Ho201 C212 2.811 . S
Ho201 O221 2.346 . S
Ho201 O225 2.305 . S
Ho201 O226 2.322 . S
Ho201 O228 2.378 . S
Ho201 O229 2.524 . S
Ho201 O230 2.381 . S
Ho201 O231 2.669 . S
C202 O220 1.259 . S
C202 O221 1.268 . S
C203 Ho200 2.811 1_554 S
C203 C204 1.488 . S
C203 O222 1.215 1_554 S
C203 O223 1.289 1_554 S
C204 C203 1.488 . S
C204 C205 1.348 . S
C204 C209 1.413 . S
C205 C204 1.348 . S
C205 C206 1.442 . S
C205 H232 0.930 . S
C206 C205 1.442 . S
C206 C207 1.381 . S
C206 H233 0.931 . S
C207 C206 1.381 . S
C207 C208 1.321 . S
C208 C207 1.321 . S
C208 C209 1.403 . S
C208 H234 0.934 . S
C209 C204 1.413 . S
C209 C208 1.403 . S
C209 H235 0.930 . S
C210 O224 1.275 . S
C210 O225 1.256 . S
C211 O226 1.259 . S
C211 O227 1.268 . S
C212 Ho201 2.811 . S
C212 C213 1.488 . S
C212 O228 1.215 . S
C212 O229 1.289 . S
C213 C212 1.488 . S
C213 C214 1.348 . S
C213 C218 1.413 . S
C214 C213 1.348 . S
C214 C215 1.442 . S
C214 H236 0.930 . S
C215 C214 1.442 . S
C215 C216 1.381 . S
C215 H237 0.931 . S
C216 C215 1.381 . S
C216 C217 1.321 . S
C217 C216 1.321 . S
C217 C218 1.403 . S
C217 H238 0.934 . S
C218 C213 1.413 . S
C218 C217 1.403 . S
C218 H239 0.930 . S
C219 O230 1.275 . S
C219 O231 1.256 . S
O220 Ho200 2.322 . S
O220 C202 1.259 . S
O221 Ho201 2.346 . S
O221 C202 1.268 . S
O222 Ho200 2.378 . S
O222 C203 1.215 1_556 S
O223 Ho200 2.524 . S
O223 C203 1.289 1_556 S
O224 Ho200 2.381 . S
O224 C210 1.275 . S
O225 Ho200 2.669 . S
O225 Ho201 2.305 . S
O225 C210 1.256 . S
O226 Ho201 2.322 . S
O226 C211 1.259 . S
O227 Ho200 2.346 . S
O227 C211 1.268 . S
O228 Ho201 2.378 . S
O228 C212 1.215 . S
O229 Ho201 2.524 . S
O229 C212 1.289 . S
O230 Ho201 2.381 . S
O230 C219 1.275 . S
O231 Ho200 2.305 . S
O231 Ho201 2.669 . S
O231 C219 1.256 . S
H232 C205 0.930 . S
H233 C206 0.931 . S
H234 C208 0.934 . S
H235 C209 0.930 . S
H236 C214 0.930 . S
H237 C215 0.931 . S
H238 C217 0.934 . S
H239 C218 0.930 . S
Ho240 C243 2.811 . S
Ho240 O260 2.322 . S
Ho240 O262 2.378 . S
Ho240 O263 2.524 . S
Ho240 O264 2.381 . S
Ho240 O265 2.669 . S
Ho240 O267 2.346 . S
Ho240 O271 2.305 . S
Ho241 C252 2.811 . S
Ho241 O261 2.346 . S
Ho241 O265 2.305 . S
Ho241 O266 2.322 . S
Ho241 O268 2.378 . S
Ho241 O269 2.524 . S
Ho241 O270 2.381 . S
Ho241 O271 2.669 . S
C242 O260 1.259 . S
C242 O261 1.268 . S
C243 Ho240 2.811 . S
C243 C244 1.488 . S
C243 O262 1.215 . S
C243 O263 1.289 . S
C244 C243 1.488 . S
C244 C245 1.348 . S
C244 C249 1.413 . S
C245 C244 1.348 . S
C245 C246 1.442 . S
C245 H272 0.930 . S
C246 C245 1.442 . S
C246 C247 1.381 . S
C246 H273 0.931 . S
C247 C246 1.381 . S
C247 C248 1.321 . S
C248 C247 1.321 . S
C248 C249 1.403 . S
C248 H274 0.934 . S
C249 C244 1.413 . S
C249 C248 1.403 . S
C249 H275 0.930 . S
C250 O264 1.275 . S
C250 O265 1.256 . S
C251 O266 1.259 . S
C251 O267 1.268 . S
C252 Ho241 2.811 . S
C252 C253 1.488 . S
C252 O268 1.215 . S
C252 O269 1.289 . S
C253 C252 1.488 . S
C253 C254 1.348 . S
C253 C258 1.413 . S
C254 C253 1.348 . S
C254 C255 1.442 . S
C254 H276 0.930 . S
C255 C254 1.442 . S
C255 C256 1.381 . S
C255 H277 0.931 . S
C256 C255 1.381 . S
C256 C257 1.321 . S
C257 C256 1.321 . S
C257 C258 1.403 . S
C257 H278 0.934 . S
C258 C253 1.413 . S
C258 C257 1.403 . S
C258 H279 0.930 . S
C259 O270 1.275 . S
C259 O271 1.256 . S
O260 Ho240 2.322 . S
O260 C242 1.259 . S
O261 Ho241 2.346 . S
O261 C242 1.268 . S
O262 Ho240 2.378 . S
O262 C243 1.215 . S
O263 Ho240 2.524 . S
O263 C243 1.289 . S
O264 Ho240 2.381 . S
O264 C250 1.275 . S
O265 Ho240 2.669 . S
O265 Ho241 2.305 . S
O265 C250 1.256 . S
O266 Ho241 2.322 . S
O266 C251 1.259 . S
O267 Ho240 2.346 . S
O267 C251 1.268 . S
O268 Ho241 2.378 . S
O268 C252 1.215 . S
O269 Ho241 2.524 . S
O269 C252 1.289 . S
O270 Ho241 2.381 . S
O270 C259 1.275 . S
O271 Ho240 2.305 . S
O271 Ho241 2.669 . S
O271 C259 1.256 . S
H272 C245 0.930 . S
H273 C246 0.931 . S
H274 C248 0.934 . S
H275 C249 0.930 . S
H276 C254 0.930 . S
H277 C255 0.931 . S
H278 C257 0.934 . S
H279 C258 0.930 . S
Ho280 C283 2.811 . S
Ho280 O300 2.322 . S
Ho280 O302 2.378 . S
Ho280 O303 2.524 . S
Ho280 O304 2.381 . S
Ho280 O305 2.669 . S
Ho280 O307 2.346 . S
Ho280 O311 2.305 . S
Ho281 C292 2.811 . S
Ho281 O301 2.346 . S
Ho281 O305 2.305 . S
Ho281 O306 2.322 . S
Ho281 O308 2.378 . S
Ho281 O309 2.524 . S
Ho281 O310 2.381 . S
Ho281 O311 2.669 . S
C282 O300 1.259 . S
C282 O301 1.268 . S
C283 Ho280 2.811 . S
C283 C284 1.488 . S
C283 O302 1.215 . S
C283 O303 1.289 . S
C284 C283 1.488 . S
C284 C285 1.348 . S
C284 C289 1.413 . S
C285 C284 1.348 . S
C285 C286 1.442 . S
C285 H312 0.930 . S
C286 C285 1.442 . S
C286 C287 1.381 . S
C286 H313 0.931 . S
C287 C286 1.381 . S
C287 C288 1.321 . S
C288 C287 1.321 . S
C288 C289 1.403 . S
C288 H314 0.934 . S
C289 C284 1.413 . S
C289 C288 1.403 . S
C289 H315 0.930 . S
C290 O304 1.275 . S
C290 O305 1.256 . S
C291 O306 1.259 . S
C291 O307 1.268 . S
C292 Ho281 2.811 . S
C292 C293 1.488 . S
C292 O308 1.215 . S
C292 O309 1.289 . S
C293 C292 1.488 . S
C293 C294 1.348 . S
C293 C298 1.413 . S
C294 C293 1.348 . S
C294 C295 1.442 . S
C294 H316 0.930 . S
C295 C294 1.442 . S
C295 C296 1.381 . S
C295 H317 0.931 . S
C296 C295 1.381 . S
C296 C297 1.321 . S
C297 C296 1.321 . S
C297 C298 1.403 . S
C297 H318 0.934 . S
C298 C293 1.413 . S
C298 C297 1.403 . S
C298 H319 0.930 . S
C299 O310 1.275 . S
C299 O311 1.256 . S
O300 Ho280 2.322 . S
O300 C282 1.259 . S
O301 Ho281 2.346 . S
O301 C282 1.268 . S
O302 Ho280 2.378 . S
O302 C283 1.215 . S
O303 Ho280 2.524 . S
O303 C283 1.289 . S
O304 Ho280 2.381 . S
O304 C290 1.275 . S
O305 Ho280 2.669 . S
O305 Ho281 2.305 . S
O305 C290 1.256 . S
O306 Ho281 2.322 . S
O306 C291 1.259 . S
O307 Ho280 2.346 . S
O307 C291 1.268 . S
O308 Ho281 2.378 . S
O308 C292 1.215 . S
O309 Ho281 2.524 . S
O309 C292 1.289 . S
O310 Ho281 2.381 . S
O310 C299 1.275 . S
O311 Ho280 2.305 . S
O311 Ho281 2.669 . S
O311 C299 1.256 . S
H312 C285 0.930 . S
H313 C286 0.931 . S
H314 C288 0.934 . S
H315 C289 0.930 . S
H316 C294 0.930 . S
H317 C295 0.931 . S
H318 C297 0.934 . S
H319 C298 0.930 . S
Ho320 C323 2.811 1_554 S
Ho320 O340 2.322 . S
Ho320 O342 2.378 . S
Ho320 O343 2.524 . S
Ho320 O344 2.381 . S
Ho320 O345 2.669 . S
Ho320 O347 2.346 . S
Ho320 O351 2.305 . S
Ho321 C332 2.811 . S
Ho321 O341 2.346 . S
Ho321 O345 2.305 . S
Ho321 O346 2.322 . S
Ho321 O348 2.378 . S
Ho321 O349 2.524 . S
Ho321 O350 2.381 . S
Ho321 O351 2.669 . S
C322 O340 1.259 . S
C322 O341 1.268 . S
C323 Ho320 2.811 1_556 S
C323 C324 1.488 . S
C323 O342 1.215 1_556 S
C323 O343 1.289 1_556 S
C324 C323 1.488 . S
C324 C325 1.348 . S
C324 C329 1.413 . S
C325 C324 1.348 . S
C325 C326 1.442 . S
C325 H352 0.930 . S
C326 C325 1.442 . S
C326 C327 1.381 . S
C326 H353 0.931 . S
C327 C326 1.381 . S
C327 C328 1.321 . S
C328 C327 1.321 . S
C328 C329 1.403 . S
C328 H354 0.934 . S
C329 C324 1.413 . S
C329 C328 1.403 . S
C329 H355 0.930 . S
C330 O344 1.275 . S
C330 O345 1.256 . S
C331 O346 1.259 . S
C331 O347 1.268 . S
C332 Ho321 2.811 . S
C332 C333 1.488 . S
C332 O348 1.215 . S
C332 O349 1.289 . S
C333 C332 1.488 . S
C333 C334 1.348 . S
C333 C338 1.413 . S
C334 C333 1.348 . S
C334 C335 1.442 . S
C334 H356 0.930 . S
C335 C334 1.442 . S
C335 C336 1.381 . S
C335 H357 0.931 . S
C336 C335 1.381 . S
C336 C337 1.321 . S
C337 C336 1.321 . S
C337 C338 1.403 . S
C337 H358 0.934 . S
C338 C333 1.413 . S
C338 C337 1.403 . S
C338 H359 0.930 . S
C339 O350 1.275 . S
C339 O351 1.256 . S
O340 Ho320 2.322 . S
O340 C322 1.259 . S
O341 Ho321 2.346 . S
O341 C322 1.268 . S
O342 Ho320 2.378 . S
O342 C323 1.215 1_554 S
O343 Ho320 2.524 . S
O343 C323 1.289 1_554 S
O344 Ho320 2.381 . S
O344 C330 1.275 . S
O345 Ho320 2.669 . S
O345 Ho321 2.305 . S
O345 C330 1.256 . S
O346 Ho321 2.322 . S
O346 C331 1.259 . S
O347 Ho320 2.346 . S
O347 C331 1.268 . S
O348 Ho321 2.378 . S
O348 C332 1.215 . S
O349 Ho321 2.524 . S
O349 C332 1.289 . S
O350 Ho321 2.381 . S
O350 C339 1.275 . S
O351 Ho320 2.305 . S
O351 Ho321 2.669 . S
O351 C339 1.256 . S
H352 C325 0.930 . S
H353 C326 0.931 . S
H354 C328 0.934 . S
H355 C329 0.930 . S
H356 C334 0.930 . S
H357 C335 0.931 . S
H358 C337 0.934 . S
H359 C338 0.930 . S
Ho360 C363 2.811 . S
Ho360 O380 2.322 . S
Ho360 O382 2.378 . S
Ho360 O383 2.524 . S
Ho360 O384 2.381 . S
Ho360 O385 2.669 . S
Ho360 O387 2.346 . S
Ho360 O391 2.305 . S
Ho361 C372 2.811 . S
Ho361 O381 2.346 . S
Ho361 O385 2.305 . S
Ho361 O386 2.322 . S
Ho361 O388 2.378 . S
Ho361 O389 2.524 . S
Ho361 O390 2.381 . S
Ho361 O391 2.669 . S
C362 O380 1.259 . S
C362 O381 1.268 . S
C363 Ho360 2.811 . S
C363 C364 1.488 . S
C363 O382 1.215 . S
C363 O383 1.289 . S
C364 C363 1.488 . S
C364 C365 1.348 . S
C364 C369 1.413 . S
C365 C364 1.348 . S
C365 C366 1.442 . S
C365 H392 0.930 . S
C366 C365 1.442 . S
C366 C367 1.381 . S
C366 H393 0.931 . S
C367 C366 1.381 . S
C367 C368 1.321 . S
C368 C367 1.321 . S
C368 C369 1.403 . S
C368 H394 0.934 . S
C369 C364 1.413 . S
C369 C368 1.403 . S
C369 H395 0.930 . S
C370 O384 1.275 . S
C370 O385 1.256 . S
C371 O386 1.259 . S
C371 O387 1.268 . S
C372 Ho361 2.811 . S
C372 C373 1.488 . S
C372 O388 1.215 . S
C372 O389 1.289 . S
C373 C372 1.488 . S
C373 C374 1.348 . S
C373 C378 1.413 . S
C374 C373 1.348 . S
C374 C375 1.442 . S
C374 H396 0.930 . S
C375 C374 1.442 . S
C375 C376 1.381 . S
C375 H397 0.931 . S
C376 C375 1.381 . S
C376 C377 1.321 . S
C377 C376 1.321 . S
C377 C378 1.403 . S
C377 H398 0.934 . S
C378 C373 1.413 . S
C378 C377 1.403 . S
C378 H399 0.930 . S
C379 O390 1.275 . S
C379 O391 1.256 . S
O380 Ho360 2.322 . S
O380 C362 1.259 . S
O381 Ho361 2.346 . S
O381 C362 1.268 . S
O382 Ho360 2.378 . S
O382 C363 1.215 . S
O383 Ho360 2.524 . S
O383 C363 1.289 . S
O384 Ho360 2.381 . S
O384 C370 1.275 . S
O385 Ho360 2.669 . S
O385 Ho361 2.305 . S
O385 C370 1.256 . S
O386 Ho361 2.322 . S
O386 C371 1.259 . S
O387 Ho360 2.346 . S
O387 C371 1.268 . S
O388 Ho361 2.378 . S
O388 C372 1.215 . S
O389 Ho361 2.524 . S
O389 C372 1.289 . S
O390 Ho361 2.381 . S
O390 C379 1.275 . S
O391 Ho360 2.305 . S
O391 Ho361 2.669 . S
O391 C379 1.256 . S
H392 C365 0.930 . S
H393 C366 0.931 . S
H394 C368 0.934 . S
H395 C369 0.930 . S
H396 C374 0.930 . S
H397 C375 0.931 . S
H398 C377 0.934 . S
H399 C378 0.930 . S
Ho400 C403 2.811 . S
Ho400 O420 2.322 . S
Ho400 O422 2.378 . S
Ho400 O423 2.524 . S
Ho400 O424 2.381 . S
Ho400 O425 2.669 . S
Ho400 O427 2.346 . S
Ho400 O431 2.305 . S
Ho401 C412 2.811 . S
Ho401 O421 2.346 . S
Ho401 O425 2.305 . S
Ho401 O426 2.322 . S
Ho401 O428 2.378 . S
Ho401 O429 2.524 . S
Ho401 O430 2.381 . S
Ho401 O431 2.669 . S
C402 O420 1.259 . S
C402 O421 1.268 . S
C403 Ho400 2.811 . S
C403 C404 1.488 . S
C403 O422 1.215 . S
C403 O423 1.289 . S
C404 C403 1.488 . S
C404 C405 1.348 . S
C404 C409 1.413 . S
C405 C404 1.348 . S
C405 C406 1.442 . S
C405 H432 0.930 . S
C406 C405 1.442 . S
C406 C407 1.381 . S
C406 H433 0.931 . S
C407 C406 1.381 . S
C407 C408 1.321 . S
C408 C407 1.321 . S
C408 C409 1.403 . S
C408 H434 0.934 . S
C409 C404 1.413 . S
C409 C408 1.403 . S
C409 H435 0.930 . S
C410 O424 1.275 . S
C410 O425 1.256 . S
C411 O426 1.259 . S
C411 O427 1.268 . S
C412 Ho401 2.811 . S
C412 C413 1.488 . S
C412 O428 1.215 . S
C412 O429 1.289 . S
C413 C412 1.488 . S
C413 C414 1.348 . S
C413 C418 1.413 . S
C414 C413 1.348 . S
C414 C415 1.442 . S
C414 H436 0.930 . S
C415 C414 1.442 . S
C415 C416 1.381 . S
C415 H437 0.931 . S
C416 C415 1.381 . S
C416 C417 1.321 . S
C417 C416 1.321 . S
C417 C418 1.403 . S
C417 H438 0.934 . S
C418 C413 1.413 . S
C418 C417 1.403 . S
C418 H439 0.930 . S
C419 O430 1.275 . S
C419 O431 1.256 . S
O420 Ho400 2.322 . S
O420 C402 1.259 . S
O421 Ho401 2.346 . S
O421 C402 1.268 . S
O422 Ho400 2.378 . S
O422 C403 1.215 . S
O423 Ho400 2.524 . S
O423 C403 1.289 . S
O424 Ho400 2.381 . S
O424 C410 1.275 . S
O425 Ho400 2.669 . S
O425 Ho401 2.305 . S
O425 C410 1.256 . S
O426 Ho401 2.322 . S
O426 C411 1.259 . S
O427 Ho400 2.346 . S
O427 C411 1.268 . S
O428 Ho401 2.378 . S
O428 C412 1.215 . S
O429 Ho401 2.524 . S
O429 C412 1.289 . S
O430 Ho401 2.381 . S
O430 C419 1.275 . S
O431 Ho400 2.305 . S
O431 Ho401 2.669 . S
O431 C419 1.256 . S
H432 C405 0.930 . S
H433 C406 0.931 . S
H434 C408 0.934 . S
H435 C409 0.930 . S
H436 C414 0.930 . S
H437 C415 0.931 . S
H438 C417 0.934 . S
H439 C418 0.930 . S
Ho440 C443 2.811 1_554 S
Ho440 O460 2.322 . S
Ho440 O462 2.378 . S
Ho440 O463 2.524 . S
Ho440 O464 2.381 . S
Ho440 O465 2.669 . S
Ho440 O467 2.346 . S
Ho440 O471 2.305 . S
Ho441 C452 2.811 . S
Ho441 O461 2.346 . S
Ho441 O465 2.305 . S
Ho441 O466 2.322 . S
Ho441 O468 2.378 . S
Ho441 O469 2.524 . S
Ho441 O470 2.381 . S
Ho441 O471 2.669 . S
C442 O460 1.259 . S
C442 O461 1.268 . S
C443 Ho440 2.811 1_556 S
C443 C444 1.488 . S
C443 O462 1.215 1_556 S
C443 O463 1.289 1_556 S
C444 C443 1.488 . S
C444 C445 1.348 . S
C444 C449 1.413 . S
C445 C444 1.348 . S
C445 C446 1.442 . S
C445 H472 0.930 . S
C446 C445 1.442 . S
C446 C447 1.381 . S
C446 H473 0.931 . S
C447 C446 1.381 . S
C447 C448 1.321 . S
C448 C447 1.321 . S
C448 C449 1.403 . S
C448 H474 0.934 . S
C449 C444 1.413 . S
C449 C448 1.403 . S
C449 H475 0.930 . S
C450 O464 1.275 . S
C450 O465 1.256 . S
C451 O466 1.259 . S
C451 O467 1.268 . S
C452 Ho441 2.811 . S
C452 C453 1.488 . S
C452 O468 1.215 . S
C452 O469 1.289 . S
C453 C452 1.488 . S
C453 C454 1.348 . S
C453 C458 1.413 . S
C454 C453 1.348 . S
C454 C455 1.442 . S
C454 H476 0.930 . S
C455 C454 1.442 . S
C455 C456 1.381 . S
C455 H477 0.931 . S
C456 C455 1.381 . S
C456 C457 1.321 . S
C457 C456 1.321 . S
C457 C458 1.403 . S
C457 H478 0.934 . S
C458 C453 1.413 . S
C458 C457 1.403 . S
C458 H479 0.930 . S
C459 O470 1.275 . S
C459 O471 1.256 . S
O460 Ho440 2.322 . S
O460 C442 1.259 . S
O461 Ho441 2.346 . S
O461 C442 1.268 . S
O462 Ho440 2.378 . S
O462 C443 1.215 1_554 S
O463 Ho440 2.524 . S
O463 C443 1.289 1_554 S
O464 Ho440 2.381 . S
O464 C450 1.275 . S
O465 Ho440 2.669 . S
O465 Ho441 2.305 . S
O465 C450 1.256 . S
O466 Ho441 2.322 . S
O466 C451 1.259 . S
O467 Ho440 2.346 . S
O467 C451 1.268 . S
O468 Ho441 2.378 . S
O468 C452 1.215 . S
O469 Ho441 2.524 . S
O469 C452 1.289 . S
O470 Ho441 2.381 . S
O470 C459 1.275 . S
O471 Ho440 2.305 . S
O471 Ho441 2.669 . S
O471 C459 1.256 . S
H472 C445 0.930 . S
H473 C446 0.931 . S
H474 C448 0.934 . S
H475 C449 0.930 . S
H476 C454 0.930 . S
H477 C455 0.931 . S
H478 C457 0.934 . S
H479 C458 0.930 . S
H480 C486 0.930 . S
H481 C490 0.930 . S
H482 C495 0.929 . S
H483 C493 0.929 . S
H484 C488 0.929 . S
H485 C494 0.929 . S
C486 H480 0.930 . S
C486 C487 1.367 . S
C486 C494 1.378 . S
C487 C486 1.367 . S
C487 C495 1.433 . S
C488 H484 0.929 . S
C488 C490 1.378 . S
C488 C492 1.350 . S
C489 C492 1.463 . S
C489 C494 1.350 . S
C489 N497 1.427 . S
C490 H481 0.930 . S
C490 C488 1.378 . S
C490 C491 1.367 . S
C491 C490 1.367 . S
C491 C493 1.433 . S
C492 C488 1.350 . S
C492 C489 1.463 . S
C492 N496 1.427 . S
C493 H483 0.929 . S
C493 C491 1.433 . S
C493 N496 1.384 . S
C494 H485 0.929 . S
C494 C486 1.378 . S
C494 C489 1.350 . S
C495 H482 0.929 . S
C495 C487 1.433 . S
C495 N497 1.384 . S
N496 C492 1.427 . S
N496 C493 1.384 . S
N497 C489 1.427 . S
N497 C495 1.384 . S
H498 C504 0.930 . S
H499 C508 0.930 . S
H500 C513 0.929 . S
H501 C511 0.929 . S
H502 C506 0.929 . S
H503 C512 0.929 . S
C504 H498 0.930 . S
C504 C505 1.367 . S
C504 C512 1.378 . S
C505 C504 1.367 . S
C505 C513 1.433 . S
C506 H502 0.929 . S
C506 C508 1.378 . S
C506 C510 1.350 . S
C507 C510 1.463 . S
C507 C512 1.350 . S
C507 N515 1.427 . S
C508 H499 0.930 . S
C508 C506 1.378 . S
C508 C509 1.367 . S
C509 C508 1.367 . S
C509 C511 1.433 . S
C510 C506 1.350 . S
C510 C507 1.463 . S
C510 N514 1.427 . S
C511 H501 0.929 . S
C511 C509 1.433 . S
C511 N514 1.384 . S
C512 H503 0.929 . S
C512 C504 1.378 . S
C512 C507 1.350 . S
C513 H500 0.929 . S
C513 C505 1.433 . S
C513 N515 1.384 . S
N514 C510 1.427 . S
N514 C511 1.384 . S
N515 C507 1.427 . S
N515 C513 1.384 . S
H516 C522 0.930 . S
H517 C526 0.930 . S
H518 C531 0.929 . S
H519 C529 0.929 . S
H520 C524 0.929 . S
H521 C530 0.929 . S
C522 H516 0.930 . S
C522 C523 1.367 . S
C522 C530 1.378 . S
C523 C522 1.367 . S
C523 C531 1.433 . S
C524 H520 0.929 . S
C524 C526 1.378 . S
C524 C528 1.350 . S
C525 C528 1.463 . S
C525 C530 1.350 . S
C525 N533 1.427 . S
C526 H517 0.930 . S
C526 C524 1.378 . S
C526 C527 1.367 . S
C527 C526 1.367 . S
C527 C529 1.433 . S
C528 C524 1.350 . S
C528 C525 1.463 . S
C528 N532 1.427 . S
C529 H519 0.929 . S
C529 C527 1.433 . S
C529 N532 1.384 . S
C530 H521 0.929 . S
C530 C522 1.378 . S
C530 C525 1.350 . S
C531 H518 0.929 . S
C531 C523 1.433 . S
C531 N533 1.384 . S
N532 C528 1.427 . S
N532 C529 1.384 . S
N533 C525 1.427 . S
N533 C531 1.384 . S
H534 C540 0.930 . S
H535 C544 0.930 . S
H536 C549 0.929 . S
H537 C547 0.929 . S
H538 C542 0.929 . S
H539 C548 0.929 . S
C540 H534 0.930 . S
C540 C541 1.367 . S
C540 C548 1.378 . S
C541 C540 1.367 . S
C541 C549 1.433 . S
C542 H538 0.929 . S
C542 C544 1.378 . S
C542 C546 1.350 . S
C543 C546 1.463 . S
C543 C548 1.350 . S
C543 N551 1.427 . S
C544 H535 0.930 . S
C544 C542 1.378 . S
C544 C545 1.367 . S
C545 C544 1.367 . S
C545 C547 1.433 . S
C546 C542 1.350 . S
C546 C543 1.463 . S
C546 N550 1.427 . S
C547 H537 0.929 . S
C547 C545 1.433 . S
C547 N550 1.384 . S
C548 H539 0.929 . S
C548 C540 1.378 . S
C548 C543 1.350 . S
C549 H536 0.929 . S
C549 C541 1.433 . S
C549 N551 1.384 . S
N550 C546 1.427 . S
N550 C547 1.384 . S
N551 C543 1.427 . S
N551 C549 1.384 . S
H552 C558 0.930 . S
H553 C562 0.930 . S
H554 C567 0.929 . S
H555 C565 0.929 . S
H556 C560 0.929 . S
H557 C566 0.929 . S
C558 H552 0.930 . S
C558 C559 1.367 . S
C558 C566 1.378 . S
C559 C558 1.367 . S
C559 C567 1.433 . S
C560 H556 0.929 . S
C560 C562 1.378 . S
C560 C564 1.350 . S
C561 C564 1.463 . S
C561 C566 1.350 . S
C561 N569 1.427 . S
C562 H553 0.930 . S
C562 C560 1.378 . S
C562 C563 1.367 . S
C563 C562 1.367 . S
C563 C565 1.433 . S
C564 C560 1.350 . S
C564 C561 1.463 . S
C564 N568 1.427 . S
C565 H555 0.929 . S
C565 C563 1.433 . S
C565 N568 1.384 . S
C566 H557 0.929 . S
C566 C558 1.378 . S
C566 C561 1.350 . S
C567 H554 0.929 . S
C567 C559 1.433 . S
C567 N569 1.384 . S
N568 C564 1.427 . S
N568 C565 1.384 . S
N569 C561 1.427 . S
N569 C567 1.384 . S
H570 C576 0.930 . S
H571 C580 0.930 . S
H572 C585 0.929 . S
H573 C583 0.929 . S
H574 C578 0.929 . S
H575 C584 0.929 . S
C576 H570 0.930 . S
C576 C577 1.367 . S
C576 C584 1.378 . S
C577 C576 1.367 . S
C577 C585 1.433 . S
C578 H574 0.929 . S
C578 C580 1.378 . S
C578 C582 1.350 . S
C579 C582 1.463 . S
C579 C584 1.350 . S
C579 N587 1.427 . S
C580 H571 0.930 . S
C580 C578 1.378 . S
C580 C581 1.367 . S
C581 C580 1.367 . S
C581 C583 1.433 . S
C582 C578 1.350 . S
C582 C579 1.463 . S
C582 N586 1.427 . S
C583 H573 0.929 . S
C583 C581 1.433 . S
C583 N586 1.384 . S
C584 H575 0.929 . S
C584 C576 1.378 . S
C584 C579 1.350 . S
C585 H572 0.929 . S
C585 C577 1.433 . S
C585 N587 1.384 . S
N586 C582 1.427 . S
N586 C583 1.384 . S
N587 C579 1.427 . S
N587 C585 1.384 . S
H588 C594 0.930 . S
H589 C598 0.930 . S
H590 C603 0.929 . S
H591 C601 0.929 . S
H592 C596 0.927 1_556 S
H593 C602 0.927 1_554 S
C594 H588 0.930 . S
C594 C595 1.367 . S
C594 C602 1.378 . S
C595 C594 1.367 . S
C595 C603 1.433 . S
C596 H592 0.927 1_554 S
C596 C598 1.378 . S
C596 C600 1.350 . S
C597 C600 1.463 1_556 S
C597 C602 1.350 . S
C597 N605 1.427 . S
C598 H589 0.930 . S
C598 C596 1.378 . S
C598 C599 1.367 . S
C599 C598 1.367 . S
C599 C601 1.433 . S
C600 C596 1.350 . S
C600 C597 1.463 1_554 S
C600 N604 1.427 . S
C601 H591 0.929 . S
C601 C599 1.433 . S
C601 N604 1.384 . S
C602 H593 0.927 1_556 S
C602 C594 1.378 . S
C602 C597 1.350 . S
C603 H590 0.929 . S
C603 C595 1.433 . S
C603 N605 1.384 . S
N604 C600 1.427 . S
N604 C601 1.384 . S
N605 C597 1.427 . S
N605 C603 1.384 . S
H606 C612 0.930 . S
H607 C616 0.930 . S
H608 C621 0.929 . S
H609 C619 0.929 . S
H610 C614 0.929 . S
H611 C620 0.929 . S
C612 H606 0.930 . S
C612 C613 1.367 . S
C612 C620 1.378 . S
C613 C612 1.367 . S
C613 C621 1.433 . S
C614 H610 0.929 . S
C614 C616 1.378 . S
C614 C618 1.350 . S
C615 C618 1.463 . S
C615 C620 1.350 . S
C615 N623 1.427 . S
C616 H607 0.930 . S
C616 C614 1.378 . S
C616 C617 1.367 . S
C617 C616 1.367 . S
C617 C619 1.433 . S
C618 C614 1.350 . S
C618 C615 1.463 . S
C618 N622 1.427 . S
C619 H609 0.929 . S
C619 C617 1.433 . S
C619 N622 1.384 . S
C620 H611 0.929 . S
C620 C612 1.378 . S
C620 C615 1.350 . S
C621 H608 0.929 . S
C621 C613 1.433 . S
C621 N623 1.384 . S
N622 C618 1.427 . S
N622 C619 1.384 . S
N623 C615 1.427 . S
N623 C621 1.384 . S
H624 C630 0.930 . S
H625 C634 0.930 . S
H626 C639 0.929 . S
H627 C637 0.929 . S
H628 C632 0.929 . S
H629 C638 0.929 . S
C630 H624 0.930 . S
C630 C631 1.367 . S
C630 C638 1.378 . S
C631 C630 1.367 . S
C631 C639 1.433 . S
C632 H628 0.929 . S
C632 C634 1.378 . S
C632 C636 1.350 . S
C633 C636 1.463 . S
C633 C638 1.350 . S
C633 N641 1.427 . S
C634 H625 0.930 . S
C634 C632 1.378 . S
C634 C635 1.367 . S
C635 C634 1.367 . S
C635 C637 1.433 . S
C636 C632 1.350 . S
C636 C633 1.463 . S
C636 N640 1.427 . S
C637 H627 0.929 . S
C637 C635 1.433 . S
C637 N640 1.384 . S
C638 H629 0.929 . S
C638 C630 1.378 . S
C638 C633 1.350 . S
C639 H626 0.929 . S
C639 C631 1.433 . S
C639 N641 1.384 . S
N640 C636 1.427 . S
N640 C637 1.384 . S
N641 C633 1.427 . S
N641 C639 1.384 . S
H642 C648 0.930 . S
H643 C652 0.930 . S
H644 C657 0.929 . S
H645 C655 0.929 . S
H646 C650 0.929 . S
H647 C656 0.929 . S
C648 H642 0.930 . S
C648 C649 1.367 . S
C648 C656 1.378 . S
C649 C648 1.367 . S
C649 C657 1.433 . S
C650 H646 0.929 . S
C650 C652 1.378 . S
C650 C654 1.350 . S
C651 C654 1.463 1_556 S
C651 C656 1.350 . S
C651 N659 1.427 . S
C652 H643 0.930 . S
C652 C650 1.378 . S
C652 C653 1.367 . S
C653 C652 1.367 . S
C653 C655 1.433 . S
C654 C650 1.350 . S
C654 C651 1.463 1_554 S
C654 N658 1.427 . S
C655 H645 0.929 . S
C655 C653 1.433 . S
C655 N658 1.384 . S
C656 H647 0.929 . S
C656 C648 1.378 . S
C656 C651 1.350 . S
C657 H644 0.929 . S
C657 C649 1.433 . S
C657 N659 1.384 . S
N658 C654 1.427 . S
N658 C655 1.384 . S
N659 C651 1.427 . S
N659 C657 1.384 . S
H660 C666 0.930 . S
H661 C670 0.930 . S
H662 C675 0.929 . S
H663 C673 0.929 . S
H664 C668 0.929 . S
H665 C674 0.929 . S
C666 H660 0.930 . S
C666 C667 1.367 . S
C666 C674 1.378 . S
C667 C666 1.367 . S
C667 C675 1.433 . S
C668 H664 0.929 . S
C668 C670 1.378 . S
C668 C672 1.350 . S
C669 C672 1.463 . S
C669 C674 1.350 . S
C669 N677 1.427 . S
C670 H661 0.930 . S
C670 C668 1.378 . S
C670 C671 1.367 . S
C671 C670 1.367 . S
C671 C673 1.433 . S
C672 C668 1.350 . S
C672 C669 1.463 . S
C672 N676 1.427 . S
C673 H663 0.929 . S
C673 C671 1.433 . S
C673 N676 1.384 . S
C674 H665 0.929 . S
C674 C666 1.378 . S
C674 C669 1.350 . S
C675 H662 0.929 . S
C675 C667 1.433 . S
C675 N677 1.384 . S
N676 C672 1.427 . S
N676 C673 1.384 . S
N677 C669 1.427 . S
N677 C675 1.384 . S
H678 C684 0.930 . S
H679 C688 0.930 . S
H680 C693 0.929 . S
H681 C691 0.929 . S
H682 C686 0.929 . S
H683 C692 0.929 . S
C684 H678 0.930 . S
C684 C685 1.367 . S
C684 C692 1.378 . S
C685 C684 1.367 . S
C685 C693 1.433 . S
C686 H682 0.929 . S
C686 C688 1.378 . S
C686 C690 1.350 . S
C687 C690 1.463 . S
C687 C692 1.350 . S
C687 N695 1.427 . S
C688 H679 0.930 . S
C688 C686 1.378 . S
C688 C689 1.367 . S
C689 C688 1.367 . S
C689 C691 1.433 . S
C690 C686 1.350 . S
C690 C687 1.463 . S
C690 N694 1.427 . S
C691 H681 0.929 . S
C691 C689 1.433 . S
C691 N694 1.384 . S
C692 H683 0.929 . S
C692 C684 1.378 . S
C692 C687 1.350 . S
C693 H680 0.929 . S
C693 C685 1.433 . S
C693 N695 1.384 . S
N694 C690 1.427 . S
N694 C691 1.384 . S
N695 C687 1.427 . S
N695 C693 1.384 . S
H696 C702 0.930 . S
H697 C706 0.930 . S
H698 C711 0.929 . S
H699 C709 0.929 . S
H700 C704 0.932 1_565 S
H701 C710 0.924 . S
C702 H696 0.930 . S
C702 C703 1.367 . S
C702 C710 1.380 1_565 S
C703 C702 1.367 . S
C703 C711 1.433 . S
C704 H700 0.932 1_545 S
C704 C706 1.376 . S
C704 C708 1.348 . S
C705 C708 1.463 1_566 S
C705 C710 1.352 1_565 S
C705 N713 1.427 . S
C706 H697 0.930 . S
C706 C704 1.376 . S
C706 C707 1.367 . S
C707 C706 1.367 . S
C707 C709 1.433 . S
C708 C704 1.348 . S
C708 C705 1.463 1_544 S
C708 N712 1.427 . S
C709 H699 0.929 . S
C709 C707 1.433 . S
C709 N712 1.384 . S
C710 H701 0.924 . S
C710 C702 1.380 1_545 S
C710 C705 1.352 1_545 S
C711 H698 0.929 . S
C711 C703 1.433 . S
C711 N713 1.384 . S
N712 C708 1.427 . S
N712 C709 1.384 . S
N713 C705 1.427 . S
N713 C711 1.384 . S
H714 C720 0.930 . S
H715 C724 0.930 . S
H716 C729 0.929 . S
H717 C727 0.929 . S
H718 C722 0.929 . S
H719 C728 0.929 . S
C720 H714 0.930 . S
C720 C721 1.367 . S
C720 C728 1.378 . S
C721 C720 1.367 . S
C721 C729 1.433 . S
C722 H718 0.929 . S
C722 C724 1.378 . S
C722 C726 1.350 . S
C723 C726 1.463 . S
C723 C728 1.350 . S
C723 N731 1.427 . S
C724 H715 0.930 . S
C724 C722 1.378 . S
C724 C725 1.367 . S
C725 C724 1.367 . S
C725 C727 1.433 . S
C726 C722 1.350 . S
C726 C723 1.463 . S
C726 N730 1.427 . S
C727 H717 0.929 . S
C727 C725 1.433 . S
C727 N730 1.384 . S
C728 H719 0.929 . S
C728 C720 1.378 . S
C728 C723 1.350 . S
C729 H716 0.929 . S
C729 C721 1.433 . S
C729 N731 1.384 . S
N730 C726 1.427 . S
N730 C727 1.384 . S
N731 C723 1.427 . S
N731 C729 1.384 . S
H732 C738 0.930 . S
H733 C742 0.930 . S
H734 C747 0.929 . S
H735 C745 0.929 . S
H736 C740 0.929 . S
H737 C746 0.929 . S
C738 H732 0.930 . S
C738 C739 1.367 . S
C738 C746 1.378 1_455 S
C739 C738 1.367 . S
C739 C747 1.433 . S
C740 H736 0.929 . S
C740 C742 1.378 1_455 S
C740 C744 1.350 1_455 S
C741 C744 1.463 1_455 S
C741 C746 1.350 1_455 S
C741 N749 1.427 . S
C742 H733 0.930 . S
C742 C740 1.378 1_655 S
C742 C743 1.367 . S
C743 C742 1.367 . S
C743 C745 1.433 . S
C744 C740 1.350 1_655 S
C744 C741 1.463 1_655 S
C744 N748 1.427 . S
C745 H735 0.929 . S
C745 C743 1.433 . S
C745 N748 1.384 . S
C746 H737 0.929 . S
C746 C738 1.378 1_655 S
C746 C741 1.350 1_655 S
C747 H734 0.929 . S
C747 C739 1.433 . S
C747 N749 1.384 . S
N748 C744 1.427 . S
N748 C745 1.384 . S
N749 C741 1.427 . S
N749 C747 1.384 . S
H750 C756 0.930 . S
H751 C760 0.930 . S
H752 C765 0.929 1_545 S
H753 C763 0.929 1_565 S
H754 C758 0.904 1_554 S
H755 C764 0.904 1_556 S
C756 H750 0.930 . S
C756 C757 1.367 . S
C756 C764 1.378 . S
C757 C756 1.367 . S
C757 C765 1.433 . S
C758 H754 0.904 1_556 S
C758 C760 1.378 . S
C758 C762 1.350 . S
C759 C762 1.463 1_564 S
C759 C764 1.350 . S
C759 N767 1.427 1_565 S
C760 H751 0.930 . S
C760 C758 1.378 . S
C760 C761 1.367 . S
C761 C760 1.367 . S
C761 C763 1.433 . S
C762 C758 1.350 . S
C762 C759 1.463 1_546 S
C762 N766 1.427 1_545 S
C763 H753 0.929 1_545 S
C763 C761 1.433 . S
C763 N766 1.384 1_545 S
C764 H755 0.904 1_554 S
C764 C756 1.378 . S
C764 C759 1.350 . S
C765 H752 0.929 1_565 S
C765 C757 1.433 . S
C765 N767 1.384 1_565 S
N766 C762 1.427 1_565 S
N766 C763 1.384 1_565 S
N767 C759 1.427 1_545 S
N767 C765 1.384 1_545 S
H768 C774 0.930 . S
H769 C778 0.930 . S
H770 C783 0.929 . S
H771 C781 0.929 . S
H772 C776 0.929 . S
H773 C782 0.929 . S
C774 H768 0.930 . S
C774 C775 1.367 . S
C774 C782 1.378 . S
C775 C774 1.367 . S
C775 C783 1.433 . S
C776 H772 0.929 . S
C776 C778 1.378 . S
C776 C780 1.350 . S
C777 C780 1.463 . S
C777 C782 1.350 . S
C777 N785 1.427 . S
C778 H769 0.930 . S
C778 C776 1.378 . S
C778 C779 1.367 . S
C779 C778 1.367 . S
C779 C781 1.433 . S
C780 C776 1.350 . S
C780 C777 1.463 . S
C780 N784 1.427 . S
C781 H771 0.929 . S
C781 C779 1.433 . S
C781 N784 1.384 . S
C782 H773 0.929 . S
C782 C774 1.378 . S
C782 C777 1.350 . S
C783 H770 0.929 . S
C783 C775 1.433 . S
C783 N785 1.384 . S
N784 C780 1.427 . S
N784 C781 1.384 . S
N785 C777 1.427 . S
N785 C783 1.384 . S
H786 C792 0.930 1_655 S
H787 C796 0.930 1_455 S
H788 C801 0.929 . S
H789 C799 0.929 . S
H790 C794 0.929 . S
H791 C800 0.929 . S
C792 H786 0.930 1_455 S
C792 C793 1.367 . S
C792 C800 1.378 1_455 S
C793 C792 1.367 . S
C793 C801 1.433 . S
C794 H790 0.929 . S
C794 C796 1.378 1_455 S
C794 C798 1.350 1_455 S
C795 C798 1.463 1_455 S
C795 C800 1.350 1_455 S
C795 N803 1.427 . S
C796 H787 0.930 1_655 S
C796 C794 1.378 1_655 S
C796 C797 1.367 . S
C797 C796 1.367 . S
C797 C799 1.433 . S
C798 C794 1.350 1_655 S
C798 C795 1.463 1_655 S
C798 N802 1.427 . S
C799 H789 0.929 . S
C799 C797 1.433 . S
C799 N802 1.384 . S
C800 H791 0.929 . S
C800 C792 1.378 1_655 S
C800 C795 1.350 1_655 S
C801 H788 0.929 . S
C801 C793 1.433 . S
C801 N803 1.384 . S
N802 C798 1.427 . S
N802 C799 1.384 . S
N803 C795 1.427 . S
N803 C801 1.384 . S
H804 C810 0.930 . S
H805 C814 0.930 . S
H806 C819 0.929 . S
H807 C817 0.929 . S
H808 C812 0.929 . S
H809 C818 0.929 . S
C810 H804 0.930 . S
C810 C811 1.367 . S
C810 C818 1.378 . S
C811 C810 1.367 . S
C811 C819 1.433 . S
C812 H808 0.929 . S
C812 C814 1.378 . S
C812 C816 1.350 . S
C813 C816 1.463 1_545 S
C813 C818 1.350 . S
C813 N821 1.427 . S
C814 H805 0.930 . S
C814 C812 1.378 . S
C814 C815 1.367 . S
C815 C814 1.367 . S
C815 C817 1.433 . S
C816 C812 1.350 . S
C816 C813 1.463 1_565 S
C816 N820 1.427 . S
C817 H807 0.929 . S
C817 C815 1.433 . S
C817 N820 1.384 . S
C818 H809 0.929 . S
C818 C810 1.378 . S
C818 C813 1.350 . S
C819 H806 0.929 . S
C819 C811 1.433 . S
C819 N821 1.384 . S
N820 C816 1.427 . S
N820 C817 1.384 . S
N821 C813 1.427 . S
N821 C819 1.384 . S
H822 C828 0.930 . S
H823 C832 0.930 . S
H824 C837 0.929 . S
H825 C835 0.929 . S
H826 C830 0.929 . S
H827 C836 0.929 . S
C828 H822 0.930 . S
C828 C829 1.367 . S
C828 C836 1.378 . S
C829 C828 1.367 . S
C829 C837 1.433 . S
C830 H826 0.929 . S
C830 C832 1.378 . S
C830 C834 1.350 . S
C831 C834 1.463 . S
C831 C836 1.350 . S
C831 N839 1.427 . S
C832 H823 0.930 . S
C832 C830 1.378 . S
C832 C833 1.367 . S
C833 C832 1.367 . S
C833 C835 1.433 . S
C834 C830 1.350 . S
C834 C831 1.463 . S
C834 N838 1.427 . S
C835 H825 0.929 . S
C835 C833 1.433 . S
C835 N838 1.384 . S
C836 H827 0.929 . S
C836 C828 1.378 . S
C836 C831 1.350 . S
C837 H824 0.929 . S
C837 C829 1.433 . S
C837 N839 1.384 . S
N838 C834 1.427 . S
N838 C835 1.384 . S
N839 C831 1.427 . S
N839 C837 1.384 . S
H840 C846 0.930 . S
H841 C850 0.930 . S
H842 C855 0.929 . S
H843 C853 0.929 . S
H844 C848 0.929 . S
H845 C854 0.929 . S
C846 H840 0.930 . S
C846 C847 1.367 . S
C846 C854 1.378 . S
C847 C846 1.367 . S
C847 C855 1.433 . S
C848 H844 0.929 . S
C848 C850 1.378 . S
C848 C852 1.350 . S
C849 C852 1.463 1_655 S
C849 C854 1.350 . S
C849 N857 1.427 . S
C850 H841 0.930 . S
C850 C848 1.378 . S
C850 C851 1.367 . S
C851 C850 1.367 . S
C851 C853 1.433 . S
C852 C848 1.350 . S
C852 C849 1.463 1_455 S
C852 N856 1.427 . S
C853 H843 0.929 . S
C853 C851 1.433 . S
C853 N856 1.384 . S
C854 H845 0.929 . S
C854 C846 1.378 . S
C854 C849 1.350 . S
C855 H842 0.929 . S
C855 C847 1.433 . S
C855 N857 1.384 . S
N856 C852 1.427 . S
N856 C853 1.384 . S
N857 C849 1.427 . S
N857 C855 1.384 . S
H858 C864 0.930 . S
H859 C868 0.930 . S
H860 C873 0.929 . S
H861 C871 0.929 . S
H862 C866 0.929 . S
H863 C872 0.929 . S
C864 H858 0.930 . S
C864 C865 1.367 . S
C864 C872 1.378 . S
C865 C864 1.367 . S
C865 C873 1.433 . S
C866 H862 0.929 . S
C866 C868 1.378 . S
C866 C870 1.350 . S
C867 C870 1.463 1_455 S
C867 C872 1.350 . S
C867 N875 1.427 . S
C868 H859 0.930 . S
C868 C866 1.378 . S
C868 C869 1.367 . S
C869 C868 1.367 . S
C869 C871 1.433 . S
C870 C866 1.350 . S
C870 C867 1.463 1_655 S
C870 N874 1.427 . S
C871 H861 0.929 . S
C871 C869 1.433 . S
C871 N874 1.384 . S
C872 H863 0.929 . S
C872 C864 1.378 . S
C872 C867 1.350 . S
C873 H860 0.929 . S
C873 C865 1.433 . S
C873 N875 1.384 . S
N874 C870 1.427 . S
N874 C871 1.384 . S
N875 C867 1.427 . S
N875 C873 1.384 . S
H876 C882 0.930 . S
H877 C886 0.930 . S
H878 C891 0.929 . S
H879 C889 0.929 . S
H880 C884 0.933 . S
H881 C890 0.933 . S
C882 H876 0.930 . S
C882 C883 1.367 . S
C882 C890 1.378 . S
C883 C882 1.367 . S
C883 C891 1.433 . S
C884 H880 0.933 . S
C884 C886 1.378 . S
C884 C888 1.350 . S
C885 C888 1.463 1_565 S
C885 C890 1.350 . S
C885 N893 1.427 . S
C886 H877 0.930 . S
C886 C884 1.378 . S
C886 C887 1.367 . S
C887 C886 1.367 . S
C887 C889 1.433 . S
C888 C884 1.350 . S
C888 C885 1.463 1_545 S
C888 N892 1.427 . S
C889 H879 0.929 . S
C889 C887 1.433 . S
C889 N892 1.384 . S
C890 H881 0.933 . S
C890 C882 1.378 . S
C890 C885 1.350 . S
C891 H878 0.929 . S
C891 C883 1.433 . S
C891 N893 1.384 . S
N892 C888 1.427 . S
N892 C889 1.384 . S
N893 C885 1.427 . S
N893 C891 1.384 . S
H894 C900 0.930 . S
H895 C904 0.930 . S
H896 C909 0.929 . S
H897 C907 0.929 . S
H898 C902 0.929 . S
H899 C908 0.929 . S
C900 H894 0.930 . S
C900 C901 1.367 . S
C900 C908 1.378 . S
C901 C900 1.367 . S
C901 C909 1.433 . S
C902 H898 0.929 . S
C902 C904 1.378 . S
C902 C906 1.350 . S
C903 C906 1.463 . S
C903 C908 1.350 . S
C903 N911 1.427 . S
C904 H895 0.930 . S
C904 C902 1.378 . S
C904 C905 1.367 . S
C905 C904 1.367 . S
C905 C907 1.433 . S
C906 C902 1.350 . S
C906 C903 1.463 . S
C906 N910 1.427 . S
C907 H897 0.929 . S
C907 C905 1.433 . S
C907 N910 1.384 . S
C908 H899 0.929 . S
C908 C900 1.378 . S
C908 C903 1.350 . S
C909 H896 0.929 . S
C909 C901 1.433 . S
C909 N911 1.384 . S
N910 C906 1.427 . S
N910 C907 1.384 . S
N911 C903 1.427 . S
N911 C909 1.384 . S
H912 C918 0.930 . S
H913 C922 0.930 . S
H914 C927 0.929 . S
H915 C925 0.929 . S
H916 C920 0.929 . S
H917 C926 0.929 . S
C918 H912 0.930 . S
C918 C919 1.367 . S
C918 C926 1.378 . S
C919 C918 1.367 . S
C919 C927 1.433 . S
C920 H916 0.929 . S
C920 C922 1.378 . S
C920 C924 1.350 . S
C921 C924 1.463 1_565 S
C921 C926 1.350 . S
C921 N929 1.427 . S
C922 H913 0.930 . S
C922 C920 1.378 . S
C922 C923 1.367 . S
C923 C922 1.367 . S
C923 C925 1.433 . S
C924 C920 1.350 . S
C924 C921 1.463 1_545 S
C924 N928 1.427 . S
C925 H915 0.929 . S
C925 C923 1.433 . S
C925 N928 1.384 . S
C926 H917 0.929 . S
C926 C918 1.378 . S
C926 C921 1.350 . S
C927 H914 0.929 . S
C927 C919 1.433 . S
C927 N929 1.384 . S
N928 C924 1.427 . S
N928 C925 1.384 . S
N929 C921 1.427 . S
N929 C927 1.384 . S
H930 C936 0.930 . S
H931 C940 0.930 . S
H932 C945 0.929 . S
H933 C943 0.929 . S
H934 C938 0.929 . S
H935 C944 0.929 . S
C936 H930 0.930 . S
C936 C937 1.367 . S
C936 C944 1.378 . S
C937 C936 1.367 . S
C937 C945 1.433 . S
C938 H934 0.929 . S
C938 C940 1.378 . S
C938 C942 1.350 . S
C939 C942 1.463 . S
C939 C944 1.350 . S
C939 N947 1.427 . S
C940 H931 0.930 . S
C940 C938 1.378 . S
C940 C941 1.367 . S
C941 C940 1.367 . S
C941 C943 1.433 . S
C942 C938 1.350 . S
C942 C939 1.463 . S
C942 N946 1.427 . S
C943 H933 0.929 . S
C943 C941 1.433 . S
C943 N946 1.384 . S
C944 H935 0.929 . S
C944 C936 1.378 . S
C944 C939 1.350 . S
C945 H932 0.929 . S
C945 C937 1.433 . S
C945 N947 1.384 . S
N946 C942 1.427 . S
N946 C943 1.384 . S
N947 C939 1.427 . S
N947 C945 1.384 . S
H948 C954 0.930 . S
H949 C958 0.930 . S
H950 C963 0.929 . S
H951 C961 0.929 . S
H952 C956 0.929 . S
H953 C962 0.929 . S
C954 H948 0.930 . S
C954 C955 1.367 . S
C954 C962 1.378 . S
C955 C954 1.367 . S
C955 C963 1.433 . S
C956 H952 0.929 . S
C956 C958 1.378 . S
C956 C960 1.350 . S
C957 C960 1.463 1_655 S
C957 C962 1.350 . S
C957 N965 1.427 . S
C958 H949 0.930 . S
C958 C956 1.378 . S
C958 C959 1.367 . S
C959 C958 1.367 . S
C959 C961 1.433 . S
C960 C956 1.350 . S
C960 C957 1.463 1_455 S
C960 N964 1.427 . S
C961 H951 0.929 . S
C961 C959 1.433 . S
C961 N964 1.384 . S
C962 H953 0.929 . S
C962 C954 1.378 . S
C962 C957 1.350 . S
C963 H950 0.929 . S
C963 C955 1.433 . S
C963 N965 1.384 . S
N964 C960 1.427 . S
N964 C961 1.384 . S
N965 C957 1.427 . S
N965 C963 1.384 . S
H966 C972 0.930 . S
H967 C976 0.930 . S
H968 C981 0.929 . S
H969 C979 0.929 . S
H970 C974 0.929 . S
H971 C980 0.929 . S
C972 H966 0.930 . S
C972 C973 1.367 . S
C972 C980 1.378 . S
C973 C972 1.367 . S
C973 C981 1.433 . S
C974 H970 0.929 . S
C974 C976 1.378 . S
C974 C978 1.350 . S
C975 C978 1.463 1_545 S
C975 C980 1.350 . S
C975 N983 1.427 . S
C976 H967 0.930 . S
C976 C974 1.378 . S
C976 C977 1.367 . S
C977 C976 1.367 . S
C977 C979 1.433 . S
C978 C974 1.350 . S
C978 C975 1.463 1_565 S
C978 N982 1.427 . S
C979 H969 0.929 . S
C979 C977 1.433 . S
C979 N982 1.384 . S
C980 H971 0.929 . S
C980 C972 1.378 . S
C980 C975 1.350 . S
C981 H968 0.929 . S
C981 C973 1.433 . S
C981 N983 1.384 . S
N982 C978 1.427 . S
N982 C979 1.384 . S
N983 C975 1.427 . S
N983 C981 1.384 . S
H984 C990 0.930 . S
H985 C994 0.930 . S
H986 C999 0.929 . S
H987 C997 0.929 . S
H988 C992 0.929 . S
H989 C998 0.929 . S
C990 H984 0.930 . S
C990 C991 1.367 . S
C990 C998 1.378 . S
C991 C990 1.367 . S
C991 C999 1.433 . S
C992 H988 0.929 . S
C992 C994 1.378 . S
C992 C996 1.350 . S
C993 C996 1.463 . S
C993 C998 1.350 . S
C993 N1001 1.427 . S
C994 H985 0.930 . S
C994 C992 1.378 . S
C994 C995 1.367 . S
C995 C994 1.367 . S
C995 C997 1.433 . S
C996 C992 1.350 . S
C996 C993 1.463 . S
C996 N1000 1.427 . S
C997 H987 0.929 . S
C997 C995 1.433 . S
C997 N1000 1.384 . S
C998 H989 0.929 . S
C998 C990 1.378 . S
C998 C993 1.350 . S
C999 H986 0.929 . S
C999 C991 1.433 . S
C999 N1001 1.384 . S
N1000 C996 1.427 . S
N1000 C997 1.384 . S
N1001 C993 1.427 . S
N1001 C999 1.384 . S
H1002 C1008 0.930 . S
H1003 C1012 0.930 . S
H1004 C1017 0.929 . S
H1005 C1015 0.929 . S
H1006 C1010 0.929 . S
H1007 C1016 0.929 . S
C1008 H1002 0.930 . S
C1008 C1009 1.367 . S
C1008 C1016 1.378 . S
C1009 C1008 1.367 . S
C1009 C1017 1.433 . S
C1010 H1006 0.929 . S
C1010 C1012 1.378 . S
C1010 C1014 1.350 . S
C1011 C1014 1.463 1_455 S
C1011 C1016 1.350 . S
C1011 N1019 1.427 . S
C1012 H1003 0.930 . S
C1012 C1010 1.378 . S
C1012 C1013 1.367 . S
C1013 C1012 1.367 . S
C1013 C1015 1.433 . S
C1014 C1010 1.350 . S
C1014 C1011 1.463 1_655 S
C1014 N1018 1.427 . S
C1015 H1005 0.929 . S
C1015 C1013 1.433 . S
C1015 N1018 1.384 . S
C1016 H1007 0.929 . S
C1016 C1008 1.378 . S
C1016 C1011 1.350 . S
C1017 H1004 0.929 . S
C1017 C1009 1.433 . S
C1017 N1019 1.384 . S
N1018 C1014 1.427 . S
N1018 C1015 1.384 . S
N1019 C1011 1.427 . S
N1019 C1017 1.384 . S
H1020 C1026 0.930 . S
H1021 C1030 0.930 . S
H1022 C1035 0.929 . S
H1023 C1033 0.929 . S
H1024 C1028 0.929 . S
H1025 C1034 0.929 . S
C1026 H1020 0.930 . S
C1026 C1027 1.367 . S
C1026 C1034 1.378 . S
C1027 C1026 1.367 . S
C1027 C1035 1.433 . S
C1028 H1024 0.929 . S
C1028 C1030 1.378 . S
C1028 C1032 1.350 . S
C1029 C1032 1.463 . S
C1029 C1034 1.350 . S
C1029 N1037 1.427 . S
C1030 H1021 0.930 . S
C1030 C1028 1.378 . S
C1030 C1031 1.367 . S
C1031 C1030 1.367 . S
C1031 C1033 1.433 . S
C1032 C1028 1.350 . S
C1032 C1029 1.463 . S
C1032 N1036 1.427 . S
C1033 H1023 0.929 . S
C1033 C1031 1.433 . S
C1033 N1036 1.384 . S
C1034 H1025 0.929 . S
C1034 C1026 1.378 . S
C1034 C1029 1.350 . S
C1035 H1022 0.929 . S
C1035 C1027 1.433 . S
C1035 N1037 1.384 . S
N1036 C1032 1.427 . S
N1036 C1033 1.384 . S
N1037 C1029 1.427 . S
N1037 C1035 1.384 . S
H1038 C1044 0.930 . S
H1039 C1048 0.930 . S
H1040 C1053 0.929 . S
H1041 C1051 0.929 . S
H1042 C1046 0.929 . S
H1043 C1052 0.929 . S
C1044 H1038 0.930 . S
C1044 C1045 1.367 . S
C1044 C1052 1.378 . S
C1045 C1044 1.367 . S
C1045 C1053 1.433 . S
C1046 H1042 0.929 . S
C1046 C1048 1.378 . S
C1046 C1050 1.350 . S
C1047 C1050 1.463 . S
C1047 C1052 1.350 . S
C1047 N1055 1.427 . S
C1048 H1039 0.930 . S
C1048 C1046 1.378 . S
C1048 C1049 1.367 . S
C1049 C1048 1.367 . S
C1049 C1051 1.433 . S
C1050 C1046 1.350 . S
C1050 C1047 1.463 . S
C1050 N1054 1.427 . S
C1051 H1041 0.929 . S
C1051 C1049 1.433 . S
C1051 N1054 1.384 . S
C1052 H1043 0.929 . S
C1052 C1044 1.378 . S
C1052 C1047 1.350 . S
C1053 H1040 0.929 . S
C1053 C1045 1.433 . S
C1053 N1055 1.384 . S
N1054 C1050 1.427 . S
N1054 C1051 1.384 . S
N1055 C1047 1.427 . S
N1055 C1053 1.384 . S
H1056 C1062 0.930 . S
H1057 C1066 0.930 . S
H1058 C1071 0.929 . S
H1059 C1069 0.929 . S
H1060 C1064 0.929 . S
H1061 C1070 0.929 . S
C1062 H1056 0.930 . S
C1062 C1063 1.367 . S
C1062 C1070 1.378 . S
C1063 C1062 1.367 . S
C1063 C1071 1.433 . S
C1064 H1060 0.929 . S
C1064 C1066 1.378 . S
C1064 C1068 1.350 . S
C1065 C1068 1.463 . S
C1065 C1070 1.350 . S
C1065 N1073 1.427 . S
C1066 H1057 0.930 . S
C1066 C1064 1.378 . S
C1066 C1067 1.367 . S
C1067 C1066 1.367 . S
C1067 C1069 1.433 . S
C1068 C1064 1.350 . S
C1068 C1065 1.463 . S
C1068 N1072 1.427 . S
C1069 H1059 0.929 . S
C1069 C1067 1.433 . S
C1069 N1072 1.384 . S
C1070 H1061 0.929 . S
C1070 C1062 1.378 . S
C1070 C1065 1.350 . S
C1071 H1058 0.929 . S
C1071 C1063 1.433 . S
C1071 N1073 1.384 . S
N1072 C1068 1.427 . S
N1072 C1069 1.384 . S
N1073 C1065 1.427 . S
N1073 C1071 1.384 . S
H1074 C1080 0.930 . S
H1075 C1084 0.930 . S
H1076 C1089 0.929 . S
H1077 C1087 0.929 . S
H1078 C1082 0.929 . S
H1079 C1088 0.929 . S
C1080 H1074 0.930 . S
C1080 C1081 1.367 . S
C1080 C1088 1.378 . S
C1081 C1080 1.367 . S
C1081 C1089 1.433 . S
C1082 H1078 0.929 . S
C1082 C1084 1.378 . S
C1082 C1086 1.350 . S
C1083 C1086 1.463 . S
C1083 C1088 1.350 . S
C1083 N1091 1.427 . S
C1084 H1075 0.930 . S
C1084 C1082 1.378 . S
C1084 C1085 1.367 . S
C1085 C1084 1.367 . S
C1085 C1087 1.433 . S
C1086 C1082 1.350 . S
C1086 C1083 1.463 . S
C1086 N1090 1.427 . S
C1087 H1077 0.929 . S
C1087 C1085 1.433 . S
C1087 N1090 1.384 . S
C1088 H1079 0.929 . S
C1088 C1080 1.378 . S
C1088 C1083 1.350 . S
C1089 H1076 0.929 . S
C1089 C1081 1.433 . S
C1089 N1091 1.384 . S
N1090 C1086 1.427 . S
N1090 C1087 1.384 . S
N1091 C1083 1.427 . S
N1091 C1089 1.384 . S
H1092 C1098 0.930 . S
H1093 C1102 0.930 . S
H1094 C1107 0.929 . S
H1095 C1105 0.929 . S
H1096 C1100 0.929 . S
H1097 C1106 0.929 . S
C1098 H1092 0.930 . S
C1098 C1099 1.367 . S
C1098 C1106 1.378 . S
C1099 C1098 1.367 . S
C1099 C1107 1.433 . S
C1100 H1096 0.929 . S
C1100 C1102 1.378 . S
C1100 C1104 1.350 . S
C1101 C1104 1.463 . S
C1101 C1106 1.350 . S
C1101 N1109 1.427 . S
C1102 H1093 0.930 . S
C1102 C1100 1.378 . S
C1102 C1103 1.367 . S
C1103 C1102 1.367 . S
C1103 C1105 1.433 . S
C1104 C1100 1.350 . S
C1104 C1101 1.463 . S
C1104 N1108 1.427 . S
C1105 H1095 0.929 . S
C1105 C1103 1.433 . S
C1105 N1108 1.384 . S
C1106 H1097 0.929 . S
C1106 C1098 1.378 . S
C1106 C1101 1.350 . S
C1107 H1094 0.929 . S
C1107 C1099 1.433 . S
C1107 N1109 1.384 . S
N1108 C1104 1.427 . S
N1108 C1105 1.384 . S
N1109 C1101 1.427 . S
N1109 C1107 1.384 . S
H1110 C1116 0.930 . S
H1111 C1120 0.930 . S
H1112 C1125 0.929 . S
H1113 C1123 0.929 . S
H1114 C1118 0.929 . S
H1115 C1124 0.929 . S
C1116 H1110 0.930 . S
C1116 C1117 1.367 . S
C1116 C1124 1.378 . S
C1117 C1116 1.367 . S
C1117 C1125 1.433 . S
C1118 H1114 0.929 . S
C1118 C1120 1.378 . S
C1118 C1122 1.350 . S
C1119 C1122 1.463 . S
C1119 C1124 1.350 . S
C1119 N1127 1.427 . S
C1120 H1111 0.930 . S
C1120 C1118 1.378 . S
C1120 C1121 1.367 . S
C1121 C1120 1.367 . S
C1121 C1123 1.433 . S
C1122 C1118 1.350 . S
C1122 C1119 1.463 . S
C1122 N1126 1.427 . S
C1123 H1113 0.929 . S
C1123 C1121 1.433 . S
C1123 N1126 1.384 . S
C1124 H1115 0.929 . S
C1124 C1116 1.378 . S
C1124 C1119 1.350 . S
C1125 H1112 0.929 . S
C1125 C1117 1.433 . S
C1125 N1127 1.384 . S
N1126 C1122 1.427 . S
N1126 C1123 1.384 . S
N1127 C1119 1.427 . S
N1127 C1125 1.384 . S
C487 C10 1.088 . S
C491 C330 1.084 . S
C505 C50 1.085 . S
C509 C370 1.093 . S
C523 C90 1.098 . S
C527 C410 1.099 . S
C541 C450 1.090 . S
C545 C130 1.084 . S
C559 C170 1.095 . S
C563 C250 1.086 . S
C577 C290 1.098 . S
C581 C210 1.089 . S
C595 C416 1.511 . S
C599 C16 1.504 . S
C613 C456 1.498 . S
C617 C56 1.504 . S
C631 C96 1.500 . S
C635 C256 1.507 . S
C649 C296 1.501 . S
C653 C136 1.508 . S
C667 C336 1.502 . S
C671 C176 1.509 . S
C685 C216 1.499 . S
C689 C376 1.505 . S
C703 C291 4.284 . S
C707 C11 4.281 . S
C721 C331 4.285 . S
C725 C51 4.284 . S
C739 C371 4.283 . S
C743 C91 4.281 . S
C757 C131 4.285 . S
C761 C411 4.284 . S
C775 C171 4.283 . S
C779 C451 4.281 . S
C793 C211 4.282 . S
C797 C251 4.281 . S
C811 C19 0.520 . S
C815 C139 0.493 . S
C829 C59 0.539 . S
C833 C179 0.522 . S
C847 C99 0.489 . S
C851 C219 0.514 . S
C865 C379 0.534 . S
C869 C259 0.507 . S
C883 C299 0.535 . S
C887 C419 0.509 . S
C901 C459 0.487 . S
C905 C339 0.506 . S
C919 C287 0.702 . S
C923 C7 0.718 . S
C937 C327 0.735 . S
C941 C47 0.720 . S
C955 C87 0.701 . S
C959 C367 0.716 . S
C973 C407 0.702 . S
C977 C127 0.718 . S
C991 C447 0.706 . S
C995 C167 0.724 . S
C1009 C207 0.720 . S
C1013 C247 0.735 . S
C1027 C2 4.744 . S
C1031 C402 4.743 . S
C1045 C42 4.744 . S
C1049 C442 4.744 1_556 S
C1063 C82 4.744 1_554 S
C1067 C242 4.744 . S
C1081 C122 4.743 . S
C1085 C282 4.744 . S
C1099 C162 4.743 . S
C1103 C322 4.744 1_556 S
C1117 C362 4.744 . S
C1121 C202 4.743 1_554 S
