# Generated by pormake.
# Topology sxb, (6)-cn, num edge types: 1
# Building blocks:
#     Node 0, Type 0, BuildingBlock: KUMBUR_clean_sbu_0, # of connection points: 6
#     Node 1, Type 0, BuildingBlock: KUMBUR_clean_sbu_0, # of connection points: 6
#     Node 2, Type 0, BuildingBlock: KUMBUR_clean_sbu_0, # of connection points: 6
#     Node 3, Type 0, BuildingBlock: KUMBUR_clean_sbu_0, # of connection points: 6
#     Edge 4, Type (0, 0), BuildingBlock: MIFKUJ_clean_linker_0, # of connection points: 2
#     Edge 5, Type (0, 0), BuildingBlock: MIFKUJ_clean_linker_0, # of connection points: 2
#     Edge 6, Type (0, 0), BuildingBlock: MIFKUJ_clean_linker_0, # of connection points: 2
#     Edge 7, Type (0, 0), BuildingBlock: MIFKUJ_clean_linker_0, # of connection points: 2
#     Edge 8, Type (0, 0), BuildingBlock: MIFKUJ_clean_linker_0, # of connection points: 2
#     Edge 9, Type (0, 0), BuildingBlock: MIFKUJ_clean_linker_0, # of connection points: 2
#     Edge 10, Type (0, 0), BuildingBlock: MIFKUJ_clean_linker_0, # of connection points: 2
#     Edge 11, Type (0, 0), BuildingBlock: MIFKUJ_clean_linker_0, # of connection points: 2
#     Edge 12, Type (0, 0), BuildingBlock: MIFKUJ_clean_linker_0, # of connection points: 2
#     Edge 13, Type (0, 0), BuildingBlock: MIFKUJ_clean_linker_0, # of connection points: 2
#     Edge 14, Type (0, 0), BuildingBlock: MIFKUJ_clean_linker_0, # of connection points: 2
#     Edge 15, Type (0, 0), BuildingBlock: MIFKUJ_clean_linker_0, # of connection points: 2
# Relax obj value: 0.193
# Max RMSD: 0.109
# Mean RMSD: 0.106
data_MOF--net-sxb--node1-KUMBUR_clean_sbu_0--edge1-MIFKUJ_clean_linker_0
_symmetry_space_group_name_H-M    P1
_symmetry_Int_Tables_number       1
_symmetry_cell_setting            triclinic
loop_
_symmetry_equiv_pos_as_xyz
'x, y, z'
_cell_length_a     22.344872
_cell_length_b     42.34105
_cell_length_c     39.346509
_cell_angle_alpha  100.15111
_cell_angle_beta   113.91565
_cell_angle_gamma 75.365596
loop_
_atom_site_label
_atom_site_type_symbol
_atom_site_fract_x
_atom_site_fract_y
_atom_site_fract_z
_atom_type_partial_charge
Tb0 Tb 0.96696 1.01155 0.9605 0.0
C1 C 0.13713 0.1059 0.04678 0.0
C2 C 0.12352 0.13466 -0.00451 0.0
C3 C 0.16128 0.16068 0.05848 0.0
C4 C 0.12359 0.10605 0.00943 0.0
C5 C 0.15481 0.13352 0.07169 0.0
C6 C 0.14532 0.16132 0.02035 0.0
C7 C 0.15085 0.10723 0.11992 0.0
N8 N 0.12605 0.08009 0.05789 0.0
C9 C 0.13264 0.08067 0.09426 0.0
C10 C 0.16248 0.13371 0.10873 0.0
Tb11 Tb 0.1162 0.03401 0.01614 0.0
N12 N 0.10041 0.08024 0.9863 0.0
C13 C 0.06409 0.08491 0.94917 0.0
C14 C 0.09608 0.13679 0.95699 0.0
C15 C 0.06384 0.11233 0.93383 0.0
H16 H 0.12716 0.06018 0.1047 0.0
H17 H 1.03699 0.11499 0.90427 0.0
H18 H 0.14651 0.18322 0.01016 0.0
H19 H 0.15713 0.10691 0.14857 0.0
H20 H 1.03264 0.06849 0.93106 0.0
H21 H 1.03461 0.92062 0.06052 0.0
H22 H 0.09454 0.15839 0.94518 0.0
H23 H 0.94225 0.99706 0.86839 0.0
H24 H 0.03939 0.97089 0.04153 0.0
H25 H 0.91383 0.95323 0.81937 0.0
H26 H 0.17531 0.18194 0.07723 0.0
H27 H 0.98492 0.87824 0.01316 0.0
H28 H 0.94011 0.858 0.94612 0.0
H29 H 0.17614 0.15437 0.1287 0.0
H30 H 0.91192 0.866 0.88073 0.0
N31 N 0.97886 0.9623 0.98373 0.0
C32 C 1.0104 0.95513 0.02038 0.0
C33 C 0.98329 0.90151 0.0046 0.0
C34 C 0.95958 0.9068 0.96697 0.0
C35 C 1.01085 0.92543 0.03138 0.0
C36 C 0.95921 0.93752 0.95724 0.0
H37 H 0.90437 0.90072 0.8337 0.0
N38 N 0.95277 0.97001 0.91258 0.0
C39 C 0.92304 0.94946 0.84771 0.0
C40 C 0.9459 0.94151 0.92055 0.0
C41 C 0.93994 0.9743 0.87619 0.0
C42 C 0.91742 0.91998 0.85586 0.0
C43 C 0.92894 0.91564 0.89251 0.0
O44 O 0.90209 0.0334 0.9116 0.0
O45 O 1.00985 0.05615 -0.01073 0.0
O46 O 0.05868 0.03348 0.05003 0.0
O47 O 0.95457 1.0205 0.01408 0.0
O48 O 0.9142 0.06393 0.96634 0.0
O49 O 0.86687 1.0065 0.93976 0.0
O50 O 0.17731 1.01683 0.06842 0.0
O51 O 0.07312 0.98949 -0.01118 0.0
O52 O 1.03029 1.00716 0.92786 0.0
O53 O 0.13221 0.02269 0.96375 0.0
O54 O 0.16965 0.98175 0.01042 0.0
O55 O 0.21666 0.03862 0.03801 0.0
C56 C 0.95859 0.08162 0.98343 0.0
C57 C 0.79295 0.05354 0.90905 0.0
C58 C 0.71477 0.0893 0.93493 0.0
C59 C 0.76191 0.06023 0.93472 0.0
C60 C 0.69781 0.11156 0.90833 0.0
C61 C 0.77442 0.07566 0.88207 0.0
C62 C 0.72715 0.10454 0.88182 0.0
C63 C 0.99946 0.02945 0.04645 0.0
C64 C 0.85002 0.02576 0.91308 0.0
C65 C 0.92505 0.88599 0.9019 0.0
C66 C 0.9406 0.88152 0.93907 0.0
C67 C 0.12464 0.9642 -0.00558 0.0
C68 C 0.28667 0.99329 0.07304 0.0
C69 C 0.3199 0.98393 0.04838 0.0
C70 C 0.36431 0.95361 0.04963 0.0
C71 C 0.37751 0.93308 0.07731 0.0
C72 C 0.30113 0.97275 0.10095 0.0
C73 C 0.34645 0.94283 0.10306 0.0
C74 C 0.09016 1.01103 0.93197 0.0
C75 C 0.231 0.02206 0.06654 0.0
H76 H 0.77415 0.04241 0.95439 0.0
H77 H 0.66144 0.1341 0.90774 0.0
H78 H 0.79797 0.07106 0.86195 0.0
H79 H 0.71384 0.12171 0.86131 0.0
H80 H 0.31105 1.00055 0.02806 0.0
H81 H 0.41196 0.9097 0.07919 0.0
H82 H 0.27588 0.97938 0.12035 0.0
H83 H 0.35664 0.92691 0.1243 0.0
Tb84 Tb 1.03459 0.98415 0.47382 0.0
C85 C 0.93749 0.09697 0.54399 0.0
C86 C 0.82037 0.10291 0.50203 0.0
C87 C 0.84948 0.12497 0.56665 0.0
C88 C 0.88886 0.09096 0.50864 0.0
C89 C 0.91763 0.11502 0.57277 0.0
C90 C 0.80109 0.11899 0.53143 0.0
C91 C 1.03343 0.11653 0.61046 0.0
N92 N 1.00353 0.088 0.54923 0.0
C93 C 0.05096 0.09915 0.5812 0.0
C94 C 0.96661 0.12438 0.60626 0.0
Tb95 Tb 1.02153 0.0635 0.49658 0.0
N96 N 0.90832 0.07547 0.48024 0.0
C97 C 0.86193 0.07307 0.44438 0.0
C98 C 0.77296 0.09911 0.46581 0.0
C99 C 0.79391 0.08444 0.43684 0.0
H100 H 0.10264 0.09426 0.58401 0.0
H101 H 0.7577 0.08209 0.40861 0.0
H102 H 0.74871 0.12777 0.52692 0.0
H103 H 0.07127 0.12462 0.63586 0.0
H104 H 0.87733 0.06253 0.42152 0.0
H105 H 0.25989 0.94867 0.59657 0.0
H106 H 0.72008 0.108 0.45979 0.0
H107 H 1.01199 0.9684 0.38208 0.0
H108 H 0.14088 0.96192 0.56242 0.0
H109 H 0.08172 0.95189 0.34555 0.0
H110 H 0.83361 0.13843 0.58867 0.0
H111 H 0.33706 0.93901 0.5638 0.0
H112 H 0.35285 0.93199 0.50383 0.0
H113 H 0.95306 0.13933 0.62829 0.0
H114 H 0.30454 0.93184 0.43571 0.0
N115 N 0.1465 0.96845 0.51086 0.0
C116 C 0.17201 0.96215 0.54774 0.0
C117 C 0.28392 0.947 0.54864 0.0
C118 C 0.25781 0.94935 0.5102 0.0
C119 C 0.24064 0.95276 0.5673 0.0
C120 C 0.18808 0.96017 0.49163 0.0
H121 H 0.20448 0.93942 0.37686 0.0
N122 N 0.09352 0.97102 0.43511 0.0
C123 C 0.10485 0.95513 0.37567 0.0
C124 C 0.16086 0.96116 0.45288 0.0
C125 C 0.06535 0.96557 0.39691 0.0
C126 C 0.17395 0.94793 0.39344 0.0
C127 C 0.20274 0.94993 0.43236 0.0
O128 O 0.99441 0.94798 0.43245 0.0
O129 O 0.95718 0.02502 0.48559 0.0
O130 O 0.06859 0.04057 0.54956 0.0
O131 O 1.03543 0.99101 0.53092 0.0
O132 O 0.93306 0.98136 0.4725 0.0
O133 O 0.06707 0.93564 0.48721 0.0
O134 O 0.04446 0.11058 0.51388 0.0
O135 O 0.0988 0.02245 0.48563 0.0
O136 O 0.97491 1.0089 0.42226 0.0
O137 O 1.0191 0.05474 0.43983 0.0
O138 O 0.12903 0.06414 0.5059 0.0
O139 O 0.9668 0.10055 0.4609 0.0
C140 C 0.90578 1.01085 0.48172 0.0
C141 C 1.00683 0.89573 0.45031 0.0
C142 C 0.97054 0.86055 0.47649 0.0
C143 C 0.98481 0.89079 0.47707 0.0
C144 C 0.97601 0.83561 0.44849 0.0
C145 C 1.01177 0.87105 0.42212 0.0
C146 C 0.9961 0.84102 0.42117 0.0
C147 C 0.05547 1.01459 0.55719 0.0
C148 C 1.03266 0.92462 0.45364 0.0
C149 C 0.2719 0.94006 0.45108 0.0
C150 C 0.29939 0.94012 0.48987 0.0
C151 C 0.15307 0.03546 0.4927 0.0
C152 C 1.00166 0.14934 0.46853 0.0
C153 C 0.06139 0.15005 0.46569 0.0
C154 C 0.06604 0.17684 0.45124 0.0
C155 C 1.00949 0.20211 0.43829 0.0
C156 C 0.94569 0.1746 0.45582 0.0
C157 C 0.94951 0.20082 0.44044 0.0
C158 C 0.98905 0.03399 0.41363 0.0
C159 C 0.99516 0.12285 0.48465 0.0
H160 H 0.98025 0.91001 0.49864 0.0
H161 H 0.96334 0.81227 0.4474 0.0
H162 H 1.02928 0.87478 0.40143 0.0
H163 H 1.00005 0.82189 0.39952 0.0
H164 H 0.10454 0.13047 0.47583 0.0
H165 H 1.01237 0.22365 0.42816 0.0
H166 H 0.89914 0.17409 0.45804 0.0
H167 H 0.90653 0.22053 0.43106 0.0
Tb168 Tb 0.46411 0.51265 0.96254 0.0
C169 C 0.5852 0.60859 0.03596 0.0
C170 C 0.59956 0.6349 -0.00933 0.0
C171 C 0.56516 0.66816 0.03901 0.0
C172 C 0.60127 0.60616 0.005 0.0
C173 C 0.56987 0.63966 0.05423 0.0
C174 C 0.57911 0.66579 0.00699 0.0
C175 C 0.56779 0.6123 0.10227 0.0
N176 N 0.58729 0.58059 0.04913 0.0
C177 C 0.58263 0.58224 0.08312 0.0
C178 C 0.56023 0.64121 0.08746 0.0
Tb179 Tb 0.61642 0.5323 0.01661 0.0
N180 N 0.6236 0.57587 -0.00915 0.0
C181 C 0.65419 0.57346 0.96616 0.0
C182 C 0.62168 0.63185 0.96155 0.0
C183 C 0.65077 0.60102 0.94994 0.0
H184 H 0.59357 0.56068 0.09703 0.0
H185 H 0.6722 0.59854 0.92916 0.0
H186 H 0.57671 0.68801 -0.00399 0.0
H187 H 0.56362 0.61309 0.12889 0.0
H188 H 0.68187 0.55038 0.95863 0.0
H189 H 0.42788 0.43565 0.0476 0.0
H190 H 0.62037 0.65326 0.9495 0.0
H191 H 0.47291 0.49133 0.87696 0.0
H192 H 0.41187 0.48685 0.02205 0.0
H193 H 0.50352 0.44174 0.84101 0.0
H194 H 0.55188 0.69215 0.05217 0.0
H195 H 0.47689 0.38342 0.02083 0.0
H196 H 0.51424 0.35366 0.96998 0.0
H197 H 0.54883 0.66453 0.10239 0.0
H198 H 0.53187 0.35522 0.91271 0.0
N199 N 0.46423 0.46578 0.98555 0.0
C200 C 0.43893 0.46507 0.01187 0.0
C201 C 0.47293 0.40625 0.01047 0.0
C202 C 0.48998 0.40648 0.98011 0.0
C203 C 0.44564 0.43565 0.02578 0.0
C204 C 0.48481 0.43695 0.96799 0.0
H205 H 0.52757 0.38771 0.86442 0.0
N206 N 0.48983 0.46734 0.92466 0.0
C207 C 0.50346 0.44016 0.86816 0.0
C208 C 0.4964 0.43775 0.93613 0.0
C209 C 0.4883 0.4686 0.88966 0.0
C210 C 0.51641 0.40978 0.8813 0.0
C211 C 0.51124 0.40821 0.91514 0.0
O212 O 0.39578 0.51968 0.90784 0.0
O213 O 0.50835 0.55657 -0.00932 0.0
O214 O 0.57845 0.51466 0.05129 0.0
O215 O 0.46451 0.52593 0.01921 0.0
O216 O 0.40911 0.56478 0.96614 0.0
O217 O 0.36599 0.50696 0.9484 0.0
O218 O 0.6787 0.52547 0.07254 0.0
O219 O 0.57198 0.48842 -0.01093 0.0
O220 O 0.50302 0.53128 0.92879 0.0
O221 O 0.61647 0.51675 0.96048 0.0
O222 O 0.67148 0.48024 0.01216 0.0
O223 O 0.71542 0.53827 0.03508 0.0
C224 C 0.45555 0.58148 0.98324 0.0
C225 C 0.28953 0.54604 0.90652 0.0
C226 C 0.20455 0.58462 0.92486 0.0
C227 C 0.2515 0.55509 0.92861 0.0
C228 C 0.19293 0.60451 0.89701 0.0
C229 C 0.27787 0.56624 0.87874 0.0
C230 C 0.22957 0.59526 0.87399 0.0
C231 C 0.51725 0.52006 0.05041 0.0
C232 C 0.34571 0.51763 0.91553 0.0
C233 C 0.51923 0.37803 0.92811 0.0
C234 C 0.50925 0.37717 0.96072 0.0
C235 C 0.62474 0.4635 -0.004 0.0
C236 C 0.78732 0.49914 0.07802 0.0
C237 C 0.82497 0.48793 0.05583 0.0
C238 C 0.87131 0.45817 0.06114 0.0
C239 C 0.88251 0.44009 0.09054 0.0
C240 C 0.799 0.48098 0.10755 0.0
C241 C 0.84656 0.45165 0.11377 0.0
C242 C 0.56433 0.52373 0.92948 0.0
C243 C 0.73142 0.52756 0.06745 0.0
H244 H 0.25849 0.53886 0.94896 0.0
H245 H 0.15512 0.62679 0.89291 0.0
H246 H 0.3067 0.5599 0.86117 0.0
H247 H 0.22076 0.61062 0.8525 0.0
H248 H 0.81822 0.50265 0.03413 0.0
H249 H 0.91925 0.41741 0.09569 0.0
H250 H 0.77054 0.48911 0.12527 0.0
H251 H 0.85523 0.43774 0.13649 0.0
Tb252 Tb 0.54665 0.48247 0.47784 0.0
C253 C 0.44566 0.5995 0.54253 0.0
C254 C 0.3333 0.61129 0.49503 0.0
C255 C 0.35342 0.63239 0.55929 0.0
C256 C 0.40112 0.59522 0.50548 0.0
C257 C 0.42172 0.61871 0.56942 0.0
C258 C 0.30963 0.62904 0.52219 0.0
C259 C 0.53559 0.61433 0.61367 0.0
N260 N 0.51245 0.58733 0.55162 0.0
C261 C 0.55753 0.59613 0.58622 0.0
C262 C 0.46739 0.62523 0.60543 0.0
Tb263 Tb 0.53827 0.56127 0.5013 0.0
N264 N 0.42471 0.5779 0.47921 0.0
C265 C 0.38356 0.57728 0.44215 0.0
C266 C 0.29163 0.61069 0.45724 0.0
C267 C 0.31727 0.59413 0.43069 0.0
H268 H 0.61075 0.58853 0.59267 0.0
H269 H 0.28574 0.59402 0.40131 0.0
H270 H 0.25784 0.64135 0.51454 0.0
H271 H 0.57137 0.6202 0.64108 0.0
H272 H 0.40189 0.56545 0.42091 0.0
H273 H 0.78589 0.45263 0.59218 0.0
H274 H 0.23981 0.62336 0.44821 0.0
H275 H 0.50259 0.46321 0.38354 0.0
H276 H 0.66939 0.47817 0.56562 0.0
H277 H 0.56055 0.44241 0.34098 0.0
H278 H 0.3344 0.64701 0.57965 0.0
H279 H 0.84739 0.42676 0.55139 0.0
H280 H 0.84834 0.41384 0.4879 0.0
H281 H 0.4506 0.63974 0.62668 0.0
H282 H 0.78961 0.41469 0.42017 0.0
N283 N 0.66047 0.46867 0.50869 0.0
C284 C 0.69362 0.46824 0.54662 0.0
C285 C 0.79519 0.43846 0.53912 0.0
C286 C 0.7624 0.4396 0.50054 0.0
C287 C 0.7608 0.45316 0.56221 0.0
C288 C 0.694 0.45469 0.48566 0.0
H289 H 0.68335 0.42601 0.36546 0.0
N290 N 0.59196 0.46536 0.43266 0.0
C291 C 0.58915 0.44614 0.37057 0.0
C292 C 0.6595 0.45415 0.44691 0.0
C293 C 0.55659 0.45895 0.39511 0.0
C294 C 0.65835 0.43689 0.38452 0.0
C295 C 0.69411 0.43952 0.42303 0.0
O296 O 0.50975 0.44225 0.44248 0.0
O297 O 0.46929 0.52471 0.48805 0.0
O298 O 0.57221 0.53839 0.55357 0.0
O299 O 0.54871 0.48674 0.53463 0.0
O300 O 0.44425 0.48143 0.47668 0.0
O301 O 0.58485 0.43649 0.49847 0.0
O302 O 0.57356 0.60475 0.52496 0.0
O303 O 0.61568 0.51914 0.49171 0.0
O304 O 0.48921 0.5074 0.4266 0.0
O305 O 0.5369 0.55207 0.44464 0.0
O306 O 0.64554 0.56112 0.5101 0.0
O307 O 0.49791 0.60087 0.46782 0.0
C308 C 0.41699 0.5114 0.48445 0.0
C309 C 0.53987 0.39063 0.46705 0.0
C310 C 0.49621 0.35673 0.49033 0.0
C311 C 0.50033 0.3878 0.4856 0.0
C312 C 0.53082 0.3286 0.4762 0.0
C313 C 0.57409 0.36271 0.45259 0.0
C314 C 0.56949 0.33166 0.45717 0.0
C315 C 0.55992 0.51165 0.56003 0.0
C316 C 0.55343 0.42193 0.46641 0.0
C317 C 0.76264 0.42609 0.43814 0.0
C318 C 0.79624 0.42562 0.47668 0.0
C319 C 0.66946 0.53226 0.49769 0.0
C320 C 0.52591 0.65333 0.49239 0.0
C321 C 0.55696 0.66046 0.47132 0.0
C322 C 0.55676 0.69287 0.46903 0.0
C323 C 0.52174 0.7183 0.48636 0.0
C324 C 0.49179 0.67834 0.51023 0.0
C325 C 0.48902 0.71095 0.50673 0.0
C326 C 0.50785 0.53111 0.41836 0.0
C327 C 0.53042 0.61951 0.49569 0.0
H328 H 0.47362 0.4095 0.49655 0.0
H329 H 0.52639 0.30439 0.47906 0.0
H330 H 0.60555 0.36496 0.43855 0.0
H331 H 0.59591 0.31005 0.44609 0.0
H332 H 0.58441 0.6407 0.45836 0.0
H333 H 0.52267 0.74366 0.48583 0.0
H334 H 0.46767 0.67262 0.52672 0.0
H335 H 0.46325 0.73049 0.52066 0.0
H336 H 0.4276 0.63104 0.93398 0.0
H337 H 0.37496 0.68951 0.93434 0.0
H338 H 0.36833 0.68603 0.04096 0.0
H339 H 0.42012 0.62719 0.03998 0.0
H340 H 0.36985 0.74749 0.04628 0.0
H341 H 0.28474 0.7636 0.89168 0.0
H342 H 0.24774 0.73279 0.82989 0.0
H343 H 0.17936 0.6687 0.87286 0.0
H344 H 0.21714 0.69856 0.93518 0.0
H345 H 0.24207 0.92523 0.03764 0.0
H346 H 0.29583 0.86814 0.03565 0.0
H347 H 0.12386 0.84718 0.94099 0.0
H348 H 0.07258 0.90626 0.94113 0.0
H349 H 0.20667 0.79664 0.93042 0.0
H350 H 0.21906 0.81998 0.05878 0.0
H351 H 0.24806 0.8515 0.1204 0.0
H352 H 0.45144 0.83653 0.12989 0.0
H353 H 0.42356 0.80492 0.06836 0.0
C354 C 0.4173 0.64231 0.95847 0.0
C355 C 0.43523 0.62176 0.9881 0.0
C356 C 0.3843 0.67717 0.95835 0.0
C357 C 0.3635 0.69587 0.98755 0.0
C358 C 0.38138 0.67526 0.0172 0.0
C359 C 0.4133 0.6402 0.01694 0.0
C360 C 0.32444 0.73502 0.98728 0.0
C361 C 0.33472 0.75741 0.02027 0.0
C362 C 0.27552 0.75182 0.95492 0.0
C363 C 0.25449 0.73307 0.91812 0.0
C364 C 0.26223 0.74275 0.88799 0.0
C365 C 0.24137 0.72536 0.85296 0.0
C366 C 0.21201 0.69849 0.84764 0.0
C367 C 0.20327 0.68905 0.87731 0.0
C368 C 0.22455 0.70613 0.9125 0.0
C369 C 0.2137 0.90911 0.01618 0.0
C370 C 0.14881 0.92381 -0.00916 0.0
C371 C 0.24563 0.87444 0.01539 0.0
C372 C 0.21644 0.84895 -0.01073 0.0
C373 C 0.15137 0.86341 0.96295 0.0
C374 C 0.11958 0.89876 0.96349 0.0
C375 C 0.25358 0.8094 -0.01072 0.0
C376 C 0.24252 0.78684 0.95635 0.0
C377 C 0.30195 0.79239 0.02169 0.0
C378 C 0.31915 0.81032 0.059 0.0
C379 C 0.26995 0.82338 0.07411 0.0
C380 C 0.28619 0.84126 0.10897 0.0
C381 C 0.35151 0.84607 0.129 0.0
C382 C 0.40088 0.83279 0.11435 0.0
C383 C 0.38496 0.81481 0.07956 0.0
H384 H 0.3639 0.86006 0.15589 0.0
H385 H 0.19558 0.68512 0.82047 0.0
H386 H 0.64877 0.41246 0.043 0.0
H387 H 0.70178 0.35372 0.04132 0.0
H388 H 0.71327 0.36061 0.93692 0.0
H389 H 0.66256 0.41938 0.93939 0.0
H390 H 0.67401 0.28926 0.98521 0.0
H391 H 0.81887 0.33249 0.93852 0.0
H392 H 0.88444 0.37414 0.94638 0.0
H393 H 0.98649 0.3594 0.06295 0.0
H394 H 0.91949 0.31854 0.05593 0.0
H395 H 0.83366 0.11977 0.94721 0.0
H396 H 0.78157 0.17745 0.94768 0.0
H397 H 0.96539 0.20017 0.02957 0.0
H398 H 1.01706 0.1413 0.02948 0.0
H399 H 0.90939 0.25775 -0.00409 0.0
H400 H 0.78892 0.20619 0.03955 0.0
H401 H 0.72449 0.16586 0.03744 0.0
H402 H 0.57765 0.19614 0.93159 0.0
H403 H 0.64153 0.23651 0.93293 0.0
C404 C 0.66038 0.40186 0.01873 0.0
C405 C 0.64472 0.42329 -0.00977 0.0
C406 C 0.69283 0.36691 0.01798 0.0
C407 C 0.71585 0.34931 -0.01076 0.0
C408 C 0.7004 0.3708 0.96082 0.0
C409 C 0.66836 0.40574 0.96173 0.0
C410 C 0.75498 0.31032 -0.01078 0.0
C411 C 0.72523 0.2832 0.98699 0.0
C412 C 0.8238 0.29854 -0.00749 0.0
C413 C 0.86371 0.32291 -0.00321 0.0
C414 C 0.85453 0.33856 0.96591 0.0
C415 C 0.89196 0.36194 0.97019 0.0
C416 C 0.93985 0.36921 0.00507 0.0
C417 C 0.94948 0.35363 0.03592 0.0
C418 C 0.91157 0.3305 0.03185 0.0
C419 C 0.86483 0.13628 0.96575 0.0
C420 C 0.93322 0.12208 0.98738 0.0
C421 C 0.8332 0.17105 0.96633 0.0
C422 C 0.86556 0.19701 -0.01085 0.0
C423 C 0.93477 0.18334 0.01086 0.0
C424 C 0.96644 0.14797 0.01042 0.0
C425 C 0.82742 0.2363 -0.00994 0.0
C426 C 0.8577 0.26359 -0.00673 0.0
C427 C 0.75866 0.24822 0.98723 0.0
C428 C 0.71987 0.22435 0.98637 0.0
C429 C 0.74289 0.20421 0.01582 0.0
C430 C 0.70654 0.18136 0.01476 0.0
C431 C 0.64679 0.17868 0.98456 0.0
C432 C 0.62369 0.19848 0.95509 0.0
C433 C 0.65987 0.22138 0.95601 0.0
H434 H 0.61815 0.16143 0.98416 0.0
H435 H 0.96991 0.38667 0.00805 0.0
H436 H 0.09733 0.19936 0.40106 0.0
H437 H 0.18811 0.22867 0.41861 0.0
H438 H 0.27325 0.1944 0.5286 0.0
H439 H 0.18183 0.16612 0.51196 0.0
H440 H 0.18131 0.27563 0.48537 0.0
H441 H 0.44891 0.20236 0.55474 0.0
H442 H 0.51466 0.14688 0.54812 0.0
H443 H 0.39174 0.13803 0.4315 0.0
H444 H 0.32639 0.19365 0.43722 0.0
H445 H 0.52511 0.33503 0.5571 0.0
H446 H 0.45201 0.30764 0.56901 0.0
H447 H 0.29269 0.33931 0.46599 0.0
H448 H 0.36372 0.36829 0.45598 0.0
H449 H 0.42614 0.25813 0.52078 0.0
H450 H 0.15085 0.32538 0.45066 0.0
H451 H 0.08842 0.3824 0.44924 0.0
H452 H 0.22391 0.40536 0.56006 0.0
H453 H 0.2867 0.34822 0.56263 0.0
C454 C 0.13689 0.19704 0.42846 0.0
C455 C 0.13159 0.18161 0.45557 0.0
C456 C 0.1886 0.21358 0.43833 0.0
C457 C 0.23569 0.21396 0.475 0.0
C458 C 0.23671 0.1942 0.50021 0.0
C459 C 0.18455 0.17798 0.49053 0.0
C460 C 0.27206 0.2406 0.48928 0.0
C461 C 0.2349 0.2721 0.49313 0.0
C462 C 0.34178 0.23512 0.50066 0.0
C463 C 0.38217 0.20202 0.4966 0.0
C464 C 0.43619 0.18864 0.52766 0.0
C465 C 0.47347 0.15719 0.52403 0.0
C466 C 0.45733 0.13893 0.48942 0.0
C467 C 0.4041 0.15215 0.45831 0.0
C468 C 0.36689 0.18363 0.46175 0.0
C469 C 0.473 0.33775 0.53858 0.0
C470 C 0.44933 0.35304 0.50552 0.0
C471 C 0.43151 0.32212 0.54524 0.0
C472 C 0.36735 0.32106 0.5182 0.0
C473 C 0.3414 0.34022 0.48771 0.0
C474 C 0.38214 0.35662 0.48173 0.0
C475 C 0.33525 0.294 0.51578 0.0
C476 C 0.37293 0.26198 0.51435 0.0
C477 C 0.26559 0.29909 0.50615 0.0
C478 C 0.22376 0.33245 0.50677 0.0
C479 C 0.16667 0.34234 0.47507 0.0
C480 C 0.13148 0.37471 0.47395 0.0
C481 C 0.15281 0.39739 0.50435 0.0
C482 C 0.20797 0.38768 0.53645 0.0
C483 C 0.24331 0.35529 0.53778 0.0
H484 H 0.12676 0.42252 0.50283 0.0
H485 H 0.48602 0.11452 0.48673 0.0
H486 H 0.8482 0.8874 0.47576 0.0
H487 H 0.78496 0.85756 0.49123 0.0
H488 H 0.96743 0.79177 0.55072 0.0
H489 H 1.03046 0.82095 0.53309 0.0
H490 H 0.90133 0.76283 0.48804 0.0
H491 H 0.84038 0.82305 0.5866 0.0
H492 H 0.8047 0.87228 0.62308 0.0
H493 H 0.61702 0.89421 0.53125 0.0
H494 H 0.65181 0.84539 0.49399 0.0
H495 H 0.68702 0.6638 0.48815 0.0
H496 H 0.77229 0.69021 0.48962 0.0
H497 H 0.62002 0.76419 0.42233 0.0
H498 H 0.53352 0.7379 0.42123 0.0
H499 H 0.68032 0.78401 0.49781 0.0
H500 H 0.74999 0.72537 0.39797 0.0
H501 H 0.7843 0.67353 0.36454 0.0
H502 H 0.95549 0.64651 0.4638 0.0
H503 H 0.92263 0.69818 0.4976 0.0
C504 C 0.87507 0.86791 0.49421 0.0
C505 C 0.94312 0.85547 0.50237 0.0
C506 C 0.83898 0.85088 0.50337 0.0
C507 C 0.87154 0.82179 0.52116 0.0
C508 C 0.9416 0.81384 0.53637 0.0
C509 C 0.97753 0.83044 0.52638 0.0
C510 C 0.83367 0.79561 0.5117 0.0
C511 C 0.85376 0.76712 0.49112 0.0
C512 C 0.771 0.80156 0.51475 0.0
C513 C 0.74887 0.8305 0.53746 0.0
C514 C 0.79157 0.83841 0.57412 0.0
C515 C 0.77148 0.86626 0.59495 0.0
C516 C 0.70865 0.88636 0.57949 0.0
C517 C 0.66563 0.87858 0.54322 0.0
C518 C 0.68544 0.85075 0.52227 0.0
C519 C 0.67165 0.68458 0.47178 0.0
C520 C 0.60401 0.6998 0.4557 0.0
C521 C 0.72063 0.69956 0.47253 0.0
C522 C 0.70179 0.7295 0.45695 0.0
C523 C 0.63475 0.74124 0.43493 0.0
C524 C 0.5856 0.72643 0.43448 0.0
C525 C 0.74704 0.75248 0.47314 0.0
C526 C 0.72825 0.77992 0.49518 0.0
C527 C 0.81098 0.7454 0.47176 0.0
C528 C 0.83368 0.71561 0.45039 0.0
C529 C 0.79521 0.70844 0.41257 0.0
C530 C 0.81448 0.67909 0.39351 0.0
C531 C 0.87222 0.65675 0.41194 0.0
C532 C 0.9112 0.6639 0.44934 0.0
C533 C 0.89243 0.6933 0.46844 0.0
H534 H 0.88655 0.63387 0.39726 0.0
H535 H 0.69329 0.90798 0.59562 0.0
H536 H 0.49701 0.92632 0.0676 0.0
H537 H 0.56512 0.94392 0.04251 0.0
H538 H 0.38723 0.98617 0.95346 0.0
H539 H 0.31926 0.96528 0.97591 0.0
H540 H 0.494 0.98062 0.93719 0.0
H541 H 0.43045 0.02843 0.04407 0.0
H542 H 0.42525 0.02464 0.1047 0.0
H543 H 0.63898 0.99478 0.15264 0.0
H544 H 0.64529 0.99843 0.09225 0.0
H545 H 0.58105 0.11244 0.91755 0.0
H546 H 0.51649 0.09266 0.94319 0.0
H547 H 0.69825 0.05098 0.03041 0.0
H548 H 0.76274 0.0743 0.00768 0.0
H549 H 0.59163 0.05566 0.04787 0.0
H550 H 0.65426 1.00946 0.94028 0.0
H551 H 0.65773 1.01543 0.87984 0.0
H552 H 0.44364 0.04376 0.83318 0.0
H553 H 0.43906 0.03796 0.89341 0.0
C554 C 0.47251 0.93718 0.04118 0.0
C555 C 0.40264 0.94664 0.02515 0.0
C556 C 0.5116 0.94765 0.02709 0.0
C557 C 0.48058 0.9684 -0.00203 0.0
C558 C 0.41199 0.9712 0.97692 0.0
C559 C 0.37315 0.95943 -0.00999 0.0
C560 C 0.51466 0.99315 -0.00424 0.0
C561 C 0.51524 0.997 0.96133 0.0
C562 C 0.54186 1.01481 0.02726 0.0
C563 C 0.53831 1.01359 0.06377 0.0
C564 C 0.47627 1.02114 0.06761 0.0
C565 C 0.47313 1.01898 0.10188 0.0
C566 C 0.53174 1.00942 0.13248 0.0
C567 C 0.59365 1.00219 0.12892 0.0
C568 C 0.59707 1.00439 0.09474 0.0
C569 C 0.60713 0.10109 0.94364 0.0
C570 C 0.67722 0.093 0.95932 0.0
C571 C 0.57009 0.08947 0.95808 0.0
C572 C 0.60326 0.06845 0.98688 0.0
C573 C 0.67193 0.06624 0.00725 0.0
C574 C 0.70875 0.07931 -0.00604 0.0
C575 C 0.57094 0.04308 -0.01066 0.0
C576 C 0.57066 0.03916 0.02379 0.0
C577 C 0.54385 0.02143 0.95784 0.0
C578 C 0.54632 0.02324 0.92119 0.0
C579 C 0.60797 1.01676 0.91702 0.0
C580 C 0.61014 1.02018 0.88286 0.0
C581 C 0.55094 0.02995 0.85268 0.0
C582 C 0.48942 0.03612 0.85654 0.0
C583 C 0.48698 0.03265 0.89062 0.0
H584 H 0.55272 0.03274 0.82631 0.0
H585 H 0.5292 1.00765 0.15895 0.0
H586 H 0.28733 0.0393 0.54973 0.0
H587 H 0.3979 0.03546 0.54963 0.0
H588 H 0.32197 1.01452 0.43121 0.0
H589 H 0.2105 1.01764 0.4318 0.0
H590 H 0.43984 1.0025 0.4335 0.0
H591 H 0.43874 0.09492 0.53066 0.0
H592 H 0.433 0.12142 0.59073 0.0
H593 H 0.57003 0.03812 0.64652 0.0
H594 H 0.57755 1.01158 0.58682 0.0
H595 H 0.78024 0.99287 0.42973 0.0
H596 H 0.67099 0.99565 0.42998 0.0
H597 H 0.72857 0.04552 0.53923 0.0
H598 H 0.84026 0.04244 0.53863 0.0
H599 H 0.61857 0.04445 0.54134 0.0
H600 H 0.58698 0.94665 0.43747 0.0
H601 H 0.59356 0.92213 0.3769 0.0
H602 H 0.51705 1.01686 0.33387 0.0
H603 H 0.5105 0.04184 0.39432 0.0
C604 C 0.29201 0.03306 0.52291 0.0
C605 C 0.23163 0.0272 0.49123 0.0
C606 C 0.35966 0.03154 0.52262 0.0
C607 C 0.37883 0.02527 0.4902 0.0
C608 C 0.31806 1.01961 0.45823 0.0
C609 C 0.25013 1.02097 0.45861 0.0
C610 C 0.45647 0.02462 0.48943 0.0
C611 C 0.47717 1.01208 0.45805 0.0
C612 C 0.51472 0.03612 0.5191 0.0
C613 C 0.50847 0.05135 0.55444 0.0
C614 C 0.46781 0.08243 0.55581 0.0
C615 C 0.46427 0.09742 0.58976 0.0
C616 C 0.50105 0.08144 0.62242 0.0
C617 C 0.54157 0.05047 0.62121 0.0
C618 C 0.54565 0.0355 0.58737 0.0
C619 C 0.7716 1.00538 0.45429 0.0
C620 C 0.82721 1.01857 0.48311 0.0
C621 C 0.70421 1.00687 0.45471 0.0
C622 C 0.68005 1.02107 0.48468 0.0
C623 C 0.73632 0.03402 0.51412 0.0
C624 C 0.80431 0.03262 0.5136 0.0
C625 C 0.60222 0.022 0.48553 0.0
C626 C 0.58136 0.03471 0.51688 0.0
C627 C 0.54378 1.01059 0.4559 0.0
C628 C 0.54914 0.99604 0.42028 0.0
C629 C 0.57184 0.96216 0.41505 0.0
C630 C 0.57557 0.94822 0.38081 0.0
C631 C 0.55596 0.96795 0.35161 0.0
C632 C 0.53252 1.00165 0.35657 0.0
C633 C 0.52893 1.01572 0.39079 0.0
H634 H 0.55876 0.95711 0.32511 0.0
H635 H 0.49819 0.09305 0.64868 0.0
H636 H 0.82935 0.45906 0.98586 0.0
H637 H 0.89185 0.47853 0.9589 0.0
H638 H 0.07166 0.45434 0.05618 0.0
H639 H 1.00672 0.43906 0.08531 0.0
H640 H 0.04176 0.51527 0.05458 0.0
H641 H 0.04564 0.42856 0.95782 0.0
H642 H 0.99932 0.39003 0.90401 0.0
H643 H 0.87443 0.47056 0.83902 0.0
H644 H 0.9185 0.5096 0.89265 0.0
H645 H 0.24667 0.58003 -0.00057 0.0
H646 H 0.18447 0.55833 0.02465 0.0
H647 H 1.00457 0.58461 0.92809 0.0
H648 H 0.06906 0.60279 0.90079 0.0
H649 H 1.03374 0.52302 0.92879 0.0
H650 H 1.02857 0.60948 0.02549 0.0
H651 H 0.07517 0.64818 0.07905 0.0
H652 H 0.20261 0.56788 0.14379 0.0
H653 H 0.15805 0.52869 0.09042 0.0
C654 C 0.88287 0.45662 0.00083 0.0
C655 C 0.91268 0.44954 0.03843 0.0
C656 C 0.91894 0.46751 0.98515 0.0
C657 C 0.98624 0.46901 0.00609 0.0
C658 C 1.01918 0.45435 0.04007 0.0
C659 C 0.98224 0.44518 0.0566 0.0
C660 C 1.01599 0.49292 -0.00197 0.0
C661 C 0.04145 0.51641 0.02718 0.0
C662 C 1.01184 0.49574 0.96183 0.0
C663 C 0.98527 0.47208 0.9295 0.0
C664 C 1.00787 0.4381 0.93221 0.0
C665 C 0.98198 0.41615 0.90168 0.0
C666 C 0.93395 0.42784 0.86813 0.0
C667 C 0.91162 0.46152 0.86502 0.0
C668 C 0.93703 0.48357 0.8955 0.0
C669 C 0.19315 0.58253 0.98436 0.0
C670 C 0.16314 0.59131 0.9474 0.0
C671 C 0.15732 0.57026 -0.00103 0.0
C672 C 0.09003 0.56895 0.97773 0.0
C673 C 0.05697 0.58462 0.94444 0.0
C674 C 0.09361 0.59552 0.92906 0.0
C675 C 0.05973 0.54511 0.98539 0.0
C676 C 1.03406 0.52174 0.95616 0.0
C677 C 0.0636 0.54237 0.02149 0.0
C678 C 0.09004 0.5661 0.05376 0.0
C679 C 0.06686 0.60004 0.05103 0.0
C680 C 0.09296 0.62209 0.08139 0.0
C681 C 0.14182 0.6105 0.11479 0.0
C682 C 0.16474 0.57684 0.11791 0.0
C683 C 0.13906 0.5547 0.0876 0.0
H684 H 0.16188 0.62761 0.13826 0.0
H685 H 0.91411 0.41079 0.84453 0.0
H686 H 0.27534 0.54608 0.44095 0.0
H687 H 0.1663 0.55084 0.44393 0.0
H688 H 0.25768 0.48979 0.53444 0.0
H689 H 0.36792 0.48735 0.53281 0.0
H690 H 0.13733 0.47694 0.51417 0.0
H691 H 0.13212 0.59196 0.52272 0.0
H692 H 0.14598 0.64149 0.50415 0.0
H693 H 1.01098 0.62178 0.39208 0.0
H694 H 0.99448 0.57265 0.41039 0.0
H695 H 0.81141 0.49962 0.54249 0.0
H696 H 0.92074 0.49586 0.53977 0.0
H697 H 0.82705 0.55373 0.44642 0.0
H698 H 0.71701 0.55524 0.44787 0.0
H699 H 0.94858 0.56947 0.469 0.0
H700 H 0.95415 0.4543 0.45874 0.0
H701 H 0.94632 0.40222 0.47484 0.0
H702 H 0.08084 0.42039 0.58751 0.0
H703 H 0.09161 0.47208 0.57157 0.0
C704 C 0.27588 0.53575 0.46416 0.0
C705 C 0.34103 0.51947 0.4893 0.0
C706 C 0.20852 0.53758 0.46528 0.0
C707 C 0.1937 0.52178 0.49045 0.0
C708 C 0.25839 0.50392 0.51427 0.0
C709 C 0.32582 0.50278 0.51358 0.0
C710 C 0.11596 0.52283 0.49104 0.0
C711 C 0.09763 0.49784 0.50407 0.0
C712 C 0.05547 0.54863 0.47876 0.0
C713 C 0.0625 0.57862 0.46781 0.0
C714 C 0.10525 0.59829 0.49415 0.0
C715 C 0.11365 0.62624 0.48367 0.0
C716 C 0.08014 0.63454 0.44684 0.0
C717 C 1.0373 0.61516 0.42053 0.0
C718 C 1.02786 0.58744 0.43102 0.0
C719 C 0.81088 0.5097 0.51903 0.0
C720 C 0.74539 0.52468 0.49302 0.0
C721 C 0.87806 0.50834 0.51795 0.0
C722 C 0.89209 0.52363 0.49204 0.0
C723 C 0.82691 0.54022 0.4673 0.0
C724 C 0.75968 0.54074 0.46787 0.0
C725 C 0.96959 0.52309 0.49153 0.0
C726 C 0.98794 0.5483 0.47871 0.0
C727 C 1.03008 0.4974 0.50385 0.0
C728 C 1.02295 0.46714 0.51414 0.0
C729 C 0.98169 0.44726 0.48702 0.0
C730 C 0.97694 0.41779 0.49607 0.0
C731 C 1.0121 0.40827 0.53236 0.0
C732 C 0.05313 0.42796 0.55951 0.0
C733 C 0.05904 0.45723 0.55042 0.0
H734 H 1.008 0.38551 0.53935 0.0
H735 H 0.087 0.65611 0.43875 0.0
H736 H 0.87848 0.03155 0.34855 0.0
H737 H 0.87024 0.03374 0.28485 0.0
H738 H 0.0796 0.03811 0.3279 0.0
H739 H 0.08483 0.03996 0.39124 0.0
H740 H 1.03167 0.07221 0.27828 0.0
H741 H 0.9943 0.96528 0.27751 0.0
H742 H 0.93936 0.92409 0.28372 0.0
H743 H 0.75573 0.96548 0.19844 0.0
H744 H 0.80921 1.00731 0.19222 0.0
H745 H 0.09595 1.01364 0.11377 0.0
H746 H 0.08562 1.0173 0.17357 0.0
H747 H 0.8719 0.04782 0.12069 0.0
H748 H 0.88218 0.04476 0.05996 0.0
H749 H 0.91234 1.00003 0.17184 0.0
H750 H 0.97011 0.10298 0.17115 0.0
H751 H 0.03876 0.13877 0.16767 0.0
H752 H 0.20639 0.09429 0.25917 0.0
H753 H 0.13932 0.05781 0.26277 0.0
C754 C 0.92223 0.03343 0.34416 0.0
C755 C 0.98206 0.03587 0.37478 0.0
C756 C 0.918 0.03413 0.30761 0.0
C757 C 0.97464 0.03533 0.30066 0.0
C758 C 1.03454 0.03752 0.3317 0.0
C759 C 0.03773 0.03851 0.36815 0.0
C760 C 0.97218 0.03509 0.26163 0.0
C761 C 1.00638 0.05585 0.2554 0.0
C762 C 0.93792 1.01459 0.23073 0.0
C763 C 0.90554 0.98969 0.23477 0.0
C764 C 0.94204 0.96578 0.26034 0.0
C765 C 0.91116 0.94231 0.26383 0.0
C766 C 0.84403 0.94224 0.24158 0.0
C767 C 0.80765 0.96563 0.21575 0.0
C768 C 0.83819 0.98924 0.21226 0.0
C769 C 0.04662 0.02179 0.11472 0.0
C770 C 0.99002 0.02994 0.08206 0.0
C771 C 0.04085 0.02367 0.14912 0.0
C772 C 0.97822 0.03362 0.15206 0.0
C773 C 0.92097 0.04046 0.11928 0.0
C774 C 0.92678 0.03866 0.08456 0.0
C775 C 0.97339 0.03627 0.18939 0.0
C776 C 0.93761 1.01615 0.19508 0.0
C777 C 1.00883 0.0562 0.22025 0.0
C778 C 0.04961 0.07753 0.2171 0.0
C779 C 1.02178 0.10058 0.19027 0.0
C780 C 0.06039 0.12107 0.18837 0.0
C781 C 0.12674 0.11892 0.21332 0.0
C782 C 0.15491 0.09603 0.23996 0.0
C783 C 0.11662 0.07543 0.24192 0.0
H784 H 0.15641 0.13494 0.21194 0.0
H785 H 0.82024 0.92401 0.24426 0.0
H786 H 0.06327 0.96268 0.87557 0.0
H787 H 0.06065 0.96201 0.81281 0.0
H788 H 0.14979 0.04743 0.84711 0.0
H789 H 0.14877 0.04911 0.90961 0.0
H790 H 0.04502 0.05465 0.78155 0.0
H791 H 0.23563 0.96863 0.83137 0.0
H792 H 0.29105 0.91773 0.86301 0.0
H793 H 0.15622 0.86526 0.7735 0.0
H794 H 0.09895 0.91603 0.74169 0.0
H795 H 0.1281 0.0474 0.622 0.0
H796 H 0.13602 0.04557 0.68546 0.0
H797 H 1.01908 0.97038 0.64667 0.0
H798 H 1.00737 0.97353 0.58245 0.0
H799 H 0.13723 0.95726 0.71399 0.0
H800 H 0.9437 0.03824 0.66583 0.0
H801 H 0.86568 0.088 0.63838 0.0
H802 H 0.98933 0.14792 0.7242 0.0
H803 H 0.06901 0.09846 0.75179 0.0
C804 C 0.08173 0.98149 0.86965 0.0
C805 C 0.10412 1.00653 0.89726 0.0
C806 C 0.08119 0.98083 0.8338 0.0
C807 C 0.10495 1.0047 0.82483 0.0
C808 C 0.13071 0.02882 0.85305 0.0
C809 C 0.13077 0.02959 0.88896 0.0
C810 C 0.10081 1.00509 0.78582 0.0
C811 C 0.0667 0.03361 0.76713 0.0
C812 C 0.12605 0.97711 0.76613 0.0
C813 C 0.16277 0.94621 0.78422 0.0
C814 C 0.21772 0.94626 0.81844 0.0
C815 C 0.24937 0.91744 0.83646 0.0
C816 C 0.22713 0.88829 0.8203 0.0
C817 C 0.17339 0.88787 0.78599 0.0
C818 C 0.14133 0.91666 0.76793 0.0
C819 C 0.10256 0.03102 0.62661 0.0
C820 C 0.06542 1.01132 0.59661 0.0
C821 C 0.10783 0.02974 0.66316 0.0
C822 C 0.07764 1.00807 0.67101 0.0
C823 C 0.04273 0.98738 0.64144 0.0
C824 C 1.03623 0.98917 0.60467 0.0
C825 C 0.08272 1.00717 0.71006 0.0
C826 C 0.11667 0.97852 0.72864 0.0
C827 C 0.05636 0.03488 0.72953 0.0
C828 C 1.01277 0.06457 0.7107 0.0
C829 C 0.95512 0.06198 0.67843 0.0
C830 C 0.9102 0.09015 0.66305 0.0
C831 C 0.92205 0.12107 0.6799 0.0
C832 C 0.97988 0.12392 0.71145 0.0
C833 C 1.02505 0.09583 0.72689 0.0
H834 H 0.88678 0.14285 0.66821 0.0
H835 H 0.25157 0.86602 0.83434 0.0
H836 H 0.60772 0.5339 0.39766 0.0
H837 H 0.6055 0.53122 0.33475 0.0
H838 H 0.39495 0.52927 0.28912 0.0
H839 H 0.39941 0.5286 0.35245 0.0
H840 H 0.43919 0.49348 0.24488 0.0
H841 H 0.47087 0.60178 0.29753 0.0
H842 H 0.52408 0.64334 0.3449 0.0
H843 H 0.70938 0.60306 0.33007 0.0
H844 H 0.65751 0.561 0.28292 0.0
H845 H 0.40355 0.54109 0.06704 0.0
H846 H 0.39614 0.54454 0.12839 0.0
H847 H 0.60693 0.50393 0.17689 0.0
H848 H 0.61448 0.49926 0.11609 0.0
H849 H 0.55566 0.56498 0.21697 0.0
H850 H 0.51867 0.45448 0.16661 0.0
H851 H 0.4591 0.41693 0.11582 0.0
H852 H 0.27228 0.46906 0.12292 0.0
H853 H 0.33087 0.50707 0.17363 0.0
C854 C 0.56081 0.53328 0.37414 0.0
C855 C 0.50333 0.53219 0.37989 0.0
C856 C 0.55935 0.53194 0.33801 0.0
C857 C 0.4994 0.53132 0.30659 0.0
C858 C 0.44189 0.53003 0.31252 0.0
C859 C 0.44412 0.52996 0.34874 0.0
C860 C 0.49713 0.5315 0.26782 0.0
C861 C 0.46378 0.50967 0.23897 0.0
C862 C 0.52944 0.55225 0.25928 0.0
C863 C 0.56036 0.5781 0.28685 0.0
C864 C 0.523 0.60175 0.30442 0.0
C865 C 0.55294 0.62537 0.33126 0.0
C866 C 0.6201 0.6258 0.34054 0.0
C867 C 0.65737 0.60269 0.32286 0.0
C868 C 0.62769 0.57898 0.29602 0.0
C869 C 0.44809 0.53247 0.09064 0.0
C870 C 0.50959 0.51999 0.08644 0.0
C871 C 0.44391 0.5347 0.12576 0.0
C872 C 0.50123 0.52488 0.15736 0.0
C873 C 0.56225 0.51204 0.15308 0.0
C874 C 0.56625 0.50924 0.11809 0.0
C875 C 0.498 0.52719 0.19489 0.0
C876 C 0.53054 0.5493 0.22327 0.0
C877 C 0.4638 0.50738 0.20281 0.0
C878 C 0.42903 0.4836 0.17378 0.0
C879 C 0.46489 0.45789 0.15733 0.0
C880 C 0.43133 0.43655 0.12856 0.0
C881 C 0.36194 0.44062 0.11613 0.0
C882 C 0.32604 0.46591 0.13262 0.0
C883 C 0.35941 0.4873 0.16145 0.0
H884 H 0.336 0.42417 0.09373 0.0
H885 H 0.64323 0.64405 0.36139 0.0
H886 H 0.62942 0.46213 0.60728 0.0
H887 H 0.6354 0.46143 0.67111 0.0
H888 H 0.49944 0.55497 0.6611 0.0
H889 H 0.48984 0.55433 0.59695 0.0
H890 H 0.62242 0.54958 0.73038 0.0
H891 H 0.43664 0.49885 0.65482 0.0
H892 H 0.38094 0.45875 0.60634 0.0
H893 H 0.51614 0.37997 0.67131 0.0
H894 H 0.57376 0.41965 0.71986 0.0
H895 H 0.49272 0.56341 0.87307 0.0
H896 H 0.49736 0.55704 0.81096 0.0
H897 H 0.65571 0.47199 0.84156 0.0
H898 H 0.65278 0.47895 0.90443 0.0
H899 H 0.52849 0.47039 0.76351 0.0
H900 H 0.71377 0.52312 0.83999 0.0
H901 H 0.76271 0.56486 0.88865 0.0
H902 H 0.62271 0.64117 0.82127 0.0
H903 H 0.57175 0.59978 0.77254 0.0
C904 C 0.60099 0.48252 0.61877 0.0
C905 C 0.56204 0.50936 0.59781 0.0
C906 C 0.60458 0.48216 0.65526 0.0
C907 C 0.56926 0.5086 0.6713 0.0
C908 C 0.5288 0.53479 0.64987 0.0
C909 C 0.52426 0.53476 0.61336 0.0
C910 C 0.57244 0.50871 0.70993 0.0
C911 C 0.60192 0.53223 0.73755 0.0
C912 C 0.54574 0.48611 0.71942 0.0
C913 C 0.5102 0.46221 0.69076 0.0
C914 C 0.455 0.47296 0.65862 0.0
C915 C 0.42299 0.45031 0.63113 0.0
C916 C 0.44516 0.41681 0.63566 0.0
C917 C 0.49917 0.40593 0.66779 0.0
C918 C 0.53155 0.42849 0.6953 0.0
C919 C 0.52921 0.54364 0.86672 0.0
C920 C 0.57312 0.52199 0.89373 0.0
C921 C 0.53134 0.53983 0.83114 0.0
C922 C 0.57638 0.51386 0.8215 0.0
C923 C 0.62028 0.49207 0.84836 0.0
C924 C 0.61933 0.49638 0.88439 0.0
C925 C 0.57949 0.51086 0.78392 0.0
C926 C 0.55028 0.48721 0.75642 0.0
C927 C 0.60618 0.53339 0.77442 0.0
C928 C 0.63854 0.55836 0.80278 0.0
C929 C 0.69309 0.5488 0.83565 0.0
C930 C 0.72121 0.57239 0.86324 0.0
C931 C 0.69574 0.60566 0.85808 0.0
C932 C 0.64231 0.61538 0.82523 0.0
C933 C 0.61378 0.59186 0.7976 0.0
H934 H 0.71746 0.6239 0.87953 0.0
H935 H 0.42037 0.3993 0.61434 0.0
loop_
_geom_bond_atom_site_label_1
_geom_bond_atom_site_label_2
_geom_bond_distance
_geom_bond_site_symmetry_2
_ccdc_geom_bond_type
Tb0 N31 2.660 . S
Tb0 N38 2.600 . S
Tb0 O44 2.546 . S
Tb0 O45 2.610 1_566 S
Tb0 O47 2.320 1_556 S
Tb0 O48 2.552 1_565 S
Tb0 O49 2.413 . S
Tb0 O51 2.362 1_655 S
Tb0 O52 2.421 . S
Tb0 C64 2.833 . S
C1 C4 1.432 . S
C1 C5 1.414 . S
C1 N8 1.359 . S
C2 C4 1.417 . S
C2 C6 1.432 . S
C2 C14 1.410 1_554 S
C3 C5 1.444 . S
C3 C6 1.317 . S
C3 H26 0.929 . S
C4 C1 1.432 . S
C4 C2 1.417 . S
C4 N12 1.360 . S
C5 C1 1.414 . S
C5 C3 1.444 . S
C5 C10 1.385 . S
C6 C2 1.432 . S
C6 C3 1.317 . S
C6 H18 0.930 . S
C7 C9 1.392 . S
C7 C10 1.370 . S
C7 H19 0.931 . S
N8 C1 1.359 . S
N8 C9 1.327 . S
N8 Tb11 2.600 . S
C9 C7 1.392 . S
C9 N8 1.327 . S
C9 H16 0.930 . S
C10 C5 1.385 . S
C10 C7 1.370 . S
C10 H29 0.930 . S
Tb11 N8 2.600 . S
Tb11 N12 2.660 . S
Tb11 O45 2.362 1_455 S
Tb11 O46 2.421 . S
Tb11 O50 2.546 . S
Tb11 O51 2.610 1_544 S
Tb11 O53 2.320 1_554 S
Tb11 O54 2.552 1_545 S
Tb11 O55 2.413 . S
Tb11 C75 2.833 . S
N12 C4 1.360 . S
N12 Tb11 2.660 . S
N12 C13 1.305 1_554 S
C13 N12 1.305 1_556 S
C13 C15 1.407 . S
C13 H20 0.930 . S
C14 C2 1.410 1_556 S
C14 C15 1.345 . S
C14 H22 0.930 . S
C15 C13 1.407 . S
C15 C14 1.345 . S
C15 H17 0.930 1_455 S
H16 C9 0.930 . S
H17 C15 0.930 1_655 S
H18 C6 0.930 . S
H19 C7 0.931 . S
H20 C13 0.930 . S
H21 C35 0.930 1_455 S
H22 C14 0.930 . S
H23 C41 0.930 . S
H24 C32 0.930 . S
H25 C39 0.931 . S
H26 C3 0.929 . S
H27 C33 0.930 . S
H28 C66 0.930 . S
H29 C10 0.930 . S
H30 C65 0.929 . S
N31 Tb0 2.660 . S
N31 C32 1.305 1_556 S
N31 C36 1.360 . S
C32 H24 0.930 . S
C32 N31 1.305 1_554 S
C32 C35 1.407 . S
C33 H27 0.930 . S
C33 C34 1.410 1_554 S
C33 C35 1.345 . S
C34 C33 1.410 1_556 S
C34 C36 1.417 . S
C34 C66 1.432 . S
C35 H21 0.930 1_655 S
C35 C32 1.407 . S
C35 C33 1.345 . S
C36 N31 1.360 . S
C36 C34 1.417 . S
C36 C40 1.432 . S
H37 C42 0.930 . S
N38 Tb0 2.600 . S
N38 C40 1.359 . S
N38 C41 1.327 . S
C39 H25 0.931 . S
C39 C41 1.392 . S
C39 C42 1.370 . S
C40 C36 1.432 . S
C40 N38 1.359 . S
C40 C43 1.414 . S
C41 H23 0.930 . S
C41 N38 1.327 . S
C41 C39 1.392 . S
C42 H37 0.930 . S
C42 C39 1.370 . S
C42 C43 1.385 . S
C43 C40 1.414 . S
C43 C42 1.385 . S
C43 C65 1.444 . S
O44 Tb0 2.546 . S
O44 C64 1.251 . S
O45 Tb0 2.610 1_544 S
O45 Tb11 2.362 1_655 S
O45 C56 1.283 . S
O46 Tb11 2.421 . S
O46 C63 1.273 . S
O47 Tb0 2.320 1_554 S
O47 C63 1.244 1_665 S
O48 Tb0 2.552 1_545 S
O48 C56 1.243 1_556 S
O49 Tb0 2.413 . S
O49 C64 1.256 . S
O50 Tb11 2.546 . S
O50 C75 1.251 . S
O51 Tb0 2.362 1_455 S
O51 Tb11 2.610 1_566 S
O51 C67 1.283 1_556 S
O52 Tb0 2.421 . S
O52 C74 1.257 1_565 S
O53 Tb11 2.320 1_556 S
O53 C74 1.267 1_455 S
O54 Tb11 2.552 1_565 S
O54 C67 1.243 . S
O55 Tb11 2.413 . S
O55 C75 1.256 . S
C56 O45 1.283 . S
C56 O48 1.243 1_554 S
C57 C59 1.376 1_565 S
C57 C61 1.393 . S
C57 C64 1.500 . S
C58 C59 1.399 . S
C58 C60 1.384 1_545 S
C59 C57 1.376 1_545 S
C59 C58 1.399 . S
C59 H76 0.939 1_556 S
C60 C58 1.384 1_565 S
C60 C62 1.392 . S
C60 H77 0.931 1_565 S
C61 C57 1.393 . S
C61 C62 1.401 . S
C61 H78 0.930 . S
C62 C60 1.392 . S
C62 C61 1.401 . S
C62 H79 0.930 . S
C63 O46 1.273 . S
C63 O47 1.244 1_445 S
C64 Tb0 2.833 . S
C64 O44 1.251 . S
C64 O49 1.256 . S
C64 C57 1.500 . S
C65 H30 0.929 . S
C65 C43 1.444 . S
C65 C66 1.317 . S
C66 H28 0.930 . S
C66 C34 1.432 . S
C66 C65 1.317 . S
C67 O51 1.283 1_554 S
C67 O54 1.243 . S
C68 C69 1.384 . S
C68 C72 1.393 . S
C68 C75 1.500 . S
C69 C68 1.384 . S
C69 C70 1.401 1_545 S
C69 H80 0.928 1_544 S
C70 C69 1.401 1_565 S
C70 C71 1.384 1_565 S
C71 C70 1.384 1_545 S
C71 C73 1.392 . S
C71 H81 0.931 . S
C72 C68 1.393 . S
C72 C73 1.401 . S
C72 H82 0.930 . S
C73 C71 1.392 . S
C73 C72 1.401 . S
C73 H83 0.930 . S
C74 O52 1.257 1_545 S
C74 O53 1.267 1_655 S
C75 Tb11 2.833 . S
C75 O50 1.251 . S
C75 O55 1.256 . S
C75 C68 1.500 . S
H76 C59 0.939 1_554 S
H77 C60 0.931 1_545 S
H78 C61 0.930 . S
H79 C62 0.930 . S
H80 C69 0.928 1_566 S
H81 C71 0.931 . S
H82 C72 0.930 . S
H83 C73 0.930 . S
Tb84 N115 2.659 1_655 S
Tb84 N122 2.599 1_655 S
Tb84 O128 2.546 . S
Tb84 O129 2.610 1_565 S
Tb84 O131 2.320 1_655 S
Tb84 O132 2.553 . S
Tb84 O133 2.414 . S
Tb84 O135 2.361 1_655 S
Tb84 O136 2.420 . S
Tb84 C148 2.834 . S
C85 C88 1.432 . S
C85 C89 1.414 . S
C85 N92 1.359 . S
C86 C88 1.417 . S
C86 C90 1.432 . S
C86 C98 1.410 . S
C87 C89 1.444 . S
C87 C90 1.317 . S
C87 H110 0.929 . S
C88 C85 1.432 . S
C88 C86 1.417 . S
C88 N96 1.360 . S
C89 C85 1.414 . S
C89 C87 1.444 . S
C89 C94 1.385 . S
C90 C86 1.432 . S
C90 C87 1.317 . S
C90 H102 0.930 . S
C91 C93 1.392 . S
C91 C94 1.370 . S
C91 H103 0.931 . S
N92 C85 1.359 . S
N92 C93 1.327 . S
N92 Tb95 2.588 1_655 S
C93 C91 1.392 . S
C93 N92 1.327 . S
C93 H100 0.930 1_655 S
C94 C89 1.385 . S
C94 C91 1.370 . S
C94 H113 0.930 . S
Tb95 N92 2.588 1_455 S
Tb95 N96 2.646 1_455 S
Tb95 O129 2.348 1_455 S
Tb95 O130 2.417 . S
Tb95 O134 2.554 . S
Tb95 O135 2.619 1_545 S
Tb95 O137 2.323 1_455 S
Tb95 O138 2.570 . S
Tb95 O139 2.423 . S
Tb95 C159 2.843 . S
N96 C88 1.360 . S
N96 Tb95 2.646 1_655 S
N96 C97 1.305 . S
C97 N96 1.305 . S
C97 C99 1.407 . S
C97 H104 0.930 . S
C98 C86 1.410 . S
C98 C99 1.345 . S
C98 H106 0.930 . S
C99 C97 1.407 . S
C99 C98 1.345 . S
C99 H101 0.930 . S
H100 C93 0.930 1_455 S
H101 C99 0.930 . S
H102 C90 0.930 . S
H103 C91 0.931 . S
H104 C97 0.930 . S
H105 C119 0.930 . S
H106 C98 0.930 . S
H107 C125 0.930 1_655 S
H108 C116 0.930 . S
H109 C123 0.931 . S
H110 C87 0.929 . S
H111 C117 0.930 . S
H112 C150 0.930 . S
H113 C94 0.930 . S
H114 C149 0.929 . S
N115 Tb84 2.659 1_455 S
N115 C116 1.305 . S
N115 C120 1.360 . S
C116 H108 0.930 . S
C116 N115 1.305 . S
C116 C119 1.407 . S
C117 H111 0.930 . S
C117 C118 1.410 . S
C117 C119 1.345 . S
C118 C117 1.410 . S
C118 C120 1.417 . S
C118 C150 1.432 . S
C119 H105 0.930 . S
C119 C116 1.407 . S
C119 C117 1.345 . S
C120 N115 1.360 . S
C120 C118 1.417 . S
C120 C124 1.432 . S
H121 C126 0.930 . S
N122 Tb84 2.599 1_455 S
N122 C124 1.359 . S
N122 C125 1.327 . S
C123 H109 0.931 . S
C123 C125 1.392 . S
C123 C126 1.370 . S
C124 C120 1.432 . S
C124 N122 1.359 . S
C124 C127 1.414 . S
C125 H107 0.930 1_455 S
C125 N122 1.327 . S
C125 C123 1.392 . S
C126 H121 0.930 . S
C126 C123 1.370 . S
C126 C127 1.385 . S
C127 C124 1.414 . S
C127 C126 1.385 . S
C127 C149 1.444 . S
O128 Tb84 2.546 . S
O128 C148 1.251 . S
O129 Tb84 2.610 1_545 S
O129 Tb95 2.348 1_655 S
O129 C140 1.283 1_545 S
O130 Tb95 2.417 . S
O130 C147 1.262 1_545 S
O131 Tb84 2.320 1_455 S
O131 C147 1.260 . S
O132 Tb84 2.553 . S
O132 C140 1.243 . S
O133 Tb84 2.414 . S
O133 C148 1.256 . S
O134 Tb95 2.554 . S
O134 C159 1.251 . S
O135 Tb84 2.361 1_455 S
O135 Tb95 2.619 1_565 S
O135 C151 1.283 1_565 S
O136 Tb84 2.420 . S
O136 C158 1.262 1_565 S
O137 Tb95 2.323 1_655 S
O137 C158 1.260 . S
O138 Tb95 2.570 . S
O138 C151 1.243 . S
O139 Tb95 2.423 . S
O139 C159 1.256 . S
C140 O129 1.283 1_565 S
C140 O132 1.243 . S
C141 C143 1.382 . S
C141 C145 1.393 . S
C141 C148 1.500 . S
C142 C143 1.400 . S
C142 C144 1.384 . S
C143 C141 1.382 . S
C143 C142 1.400 . S
C143 H160 0.930 . S
C144 C142 1.384 . S
C144 C146 1.392 . S
C144 H161 0.931 . S
C145 C141 1.393 . S
C145 C146 1.401 . S
C145 H162 0.930 . S
C146 C144 1.392 . S
C146 C145 1.401 . S
C146 H163 0.930 . S
C147 O130 1.262 1_565 S
C147 O131 1.260 . S
C148 Tb84 2.834 . S
C148 O128 1.251 . S
C148 O133 1.256 . S
C148 C141 1.500 . S
C149 H114 0.929 . S
C149 C127 1.444 . S
C149 C150 1.317 . S
C150 H112 0.930 . S
C150 C118 1.432 . S
C150 C149 1.317 . S
C151 O135 1.283 1_545 S
C151 O138 1.243 . S
C152 C153 1.382 . S
C152 C156 1.393 . S
C152 C159 1.500 . S
C153 C152 1.382 . S
C153 C154 1.400 . S
C153 H164 0.930 . S
C154 C153 1.400 . S
C154 C155 1.384 . S
C155 C154 1.384 . S
C155 C157 1.392 . S
C155 H165 0.931 . S
C156 C152 1.393 . S
C156 C157 1.401 . S
C156 H166 0.930 . S
C157 C155 1.392 . S
C157 C156 1.401 . S
C157 H167 0.930 . S
C158 O136 1.262 1_545 S
C158 O137 1.260 . S
C159 Tb95 2.843 . S
C159 O134 1.251 . S
C159 O139 1.256 . S
C159 C152 1.500 . S
H160 C143 0.930 . S
H161 C144 0.931 . S
H162 C145 0.930 . S
H163 C146 0.930 . S
H164 C153 0.930 . S
H165 C155 0.931 . S
H166 C156 0.930 . S
H167 C157 0.930 . S
Tb168 N199 2.660 . S
Tb168 N206 2.600 . S
Tb168 O212 2.546 . S
Tb168 O213 2.610 1_556 S
Tb168 O215 2.320 1_556 S
Tb168 O216 2.552 . S
Tb168 O217 2.413 . S
Tb168 O219 2.362 . S
Tb168 O220 2.421 . S
Tb168 C232 2.833 . S
C169 C172 1.432 . S
C169 C173 1.414 . S
C169 N176 1.359 . S
C170 C172 1.417 . S
C170 C174 1.432 . S
C170 C182 1.410 1_554 S
C171 C173 1.444 . S
C171 C174 1.317 . S
C171 H194 0.929 . S
C172 C169 1.432 . S
C172 C170 1.417 . S
C172 N180 1.360 . S
C173 C169 1.414 . S
C173 C171 1.444 . S
C173 C178 1.385 . S
C174 C170 1.432 . S
C174 C171 1.317 . S
C174 H186 0.930 . S
C175 C177 1.392 . S
C175 C178 1.370 . S
C175 H187 0.931 . S
N176 C169 1.359 . S
N176 C177 1.327 . S
N176 Tb179 2.600 . S
C177 C175 1.392 . S
C177 N176 1.327 . S
C177 H184 0.930 . S
C178 C173 1.385 . S
C178 C175 1.370 . S
C178 H197 0.930 . S
Tb179 N176 2.600 . S
Tb179 N180 2.660 . S
Tb179 O213 2.362 . S
Tb179 O214 2.421 . S
Tb179 O218 2.546 . S
Tb179 O219 2.610 1_554 S
Tb179 O221 2.320 1_554 S
Tb179 O222 2.552 . S
Tb179 O223 2.413 . S
Tb179 C243 2.833 . S
N180 C172 1.360 . S
N180 Tb179 2.660 . S
N180 C181 1.305 1_554 S
C181 N180 1.305 1_556 S
C181 C183 1.407 . S
C181 H188 0.930 . S
C182 C170 1.410 1_556 S
C182 C183 1.345 . S
C182 H190 0.930 . S
C183 C181 1.407 . S
C183 C182 1.345 . S
C183 H185 0.930 . S
H184 C177 0.930 . S
H185 C183 0.930 . S
H186 C174 0.930 . S
H187 C175 0.931 . S
H188 C181 0.930 . S
H189 C203 0.930 . S
H190 C182 0.930 . S
H191 C209 0.930 . S
H192 C200 0.930 . S
H193 C207 0.931 . S
H194 C171 0.929 . S
H195 C201 0.930 . S
H196 C234 0.930 . S
H197 C178 0.930 . S
H198 C233 0.929 . S
N199 Tb168 2.660 . S
N199 C200 1.305 1_556 S
N199 C204 1.360 . S
C200 H192 0.930 . S
C200 N199 1.305 1_554 S
C200 C203 1.407 . S
C201 H195 0.930 . S
C201 C202 1.410 1_554 S
C201 C203 1.345 . S
C202 C201 1.410 1_556 S
C202 C204 1.417 . S
C202 C234 1.432 . S
C203 H189 0.930 . S
C203 C200 1.407 . S
C203 C201 1.345 . S
C204 N199 1.360 . S
C204 C202 1.417 . S
C204 C208 1.432 . S
H205 C210 0.930 . S
N206 Tb168 2.600 . S
N206 C208 1.359 . S
N206 C209 1.327 . S
C207 H193 0.931 . S
C207 C209 1.392 . S
C207 C210 1.370 . S
C208 C204 1.432 . S
C208 N206 1.359 . S
C208 C211 1.414 . S
C209 H191 0.930 . S
C209 N206 1.327 . S
C209 C207 1.392 . S
C210 H205 0.930 . S
C210 C207 1.370 . S
C210 C211 1.385 . S
C211 C208 1.414 . S
C211 C210 1.385 . S
C211 C233 1.444 . S
O212 Tb168 2.546 . S
O212 C232 1.251 . S
O213 Tb168 2.610 1_554 S
O213 Tb179 2.362 . S
O213 C224 1.283 . S
O214 Tb179 2.421 . S
O214 C231 1.262 . S
O215 Tb168 2.320 1_554 S
O215 C231 1.260 . S
O216 Tb168 2.552 . S
O216 C224 1.243 1_556 S
O217 Tb168 2.413 . S
O217 C232 1.256 . S
O218 Tb179 2.546 . S
O218 C243 1.251 . S
O219 Tb168 2.362 . S
O219 Tb179 2.610 1_556 S
O219 C235 1.283 1_556 S
O220 Tb168 2.421 . S
O220 C242 1.262 . S
O221 Tb179 2.320 1_556 S
O221 C242 1.260 . S
O222 Tb179 2.552 . S
O222 C235 1.243 . S
O223 Tb179 2.413 . S
O223 C243 1.256 . S
C224 O213 1.283 . S
C224 O216 1.243 1_554 S
C225 C227 1.382 . S
C225 C229 1.393 . S
C225 C232 1.500 . S
C226 C227 1.400 . S
C226 C228 1.384 . S
C227 C225 1.382 . S
C227 C226 1.400 . S
C227 H244 0.930 1_556 S
C228 C226 1.384 . S
C228 C230 1.392 . S
C228 H245 0.931 . S
C229 C225 1.393 . S
C229 C230 1.401 . S
C229 H246 0.930 . S
C230 C228 1.392 . S
C230 C229 1.401 . S
C230 H247 0.930 . S
C231 O214 1.262 . S
C231 O215 1.260 . S
C232 Tb168 2.833 . S
C232 O212 1.251 . S
C232 O217 1.256 . S
C232 C225 1.500 . S
C233 H198 0.929 . S
C233 C211 1.444 . S
C233 C234 1.317 . S
C234 H196 0.930 . S
C234 C202 1.432 . S
C234 C233 1.317 . S
C235 O219 1.283 1_554 S
C235 O222 1.243 . S
C236 C237 1.382 . S
C236 C240 1.393 . S
C236 C243 1.500 . S
C237 C236 1.382 . S
C237 C238 1.400 . S
C237 H248 0.930 1_554 S
C238 C237 1.400 . S
C238 C239 1.384 . S
C239 C238 1.384 . S
C239 C241 1.392 . S
C239 H249 0.931 . S
C240 C236 1.393 . S
C240 C241 1.401 . S
C240 H250 0.930 . S
C241 C239 1.392 . S
C241 C240 1.401 . S
C241 H251 0.930 . S
C242 O220 1.262 . S
C242 O221 1.260 . S
C243 Tb179 2.833 . S
C243 O218 1.251 . S
C243 O223 1.256 . S
C243 C236 1.500 . S
H244 C227 0.930 1_554 S
H245 C228 0.931 . S
H246 C229 0.930 . S
H247 C230 0.930 . S
H248 C237 0.930 1_556 S
H249 C239 0.931 . S
H250 C240 0.930 . S
H251 C241 0.930 . S
Tb252 N283 2.660 . S
Tb252 N290 2.600 . S
Tb252 O296 2.546 . S
Tb252 O297 2.610 . S
Tb252 O299 2.320 . S
Tb252 O300 2.552 . S
Tb252 O301 2.413 . S
Tb252 O303 2.362 . S
Tb252 O304 2.421 . S
Tb252 C316 2.833 . S
C253 C256 1.432 . S
C253 C257 1.414 . S
C253 N260 1.359 . S
C254 C256 1.417 . S
C254 C258 1.432 . S
C254 C266 1.410 . S
C255 C257 1.444 . S
C255 C258 1.317 . S
C255 H278 0.929 . S
C256 C253 1.432 . S
C256 C254 1.417 . S
C256 N264 1.360 . S
C257 C253 1.414 . S
C257 C255 1.444 . S
C257 C262 1.385 . S
C258 C254 1.432 . S
C258 C255 1.317 . S
C258 H270 0.930 . S
C259 C261 1.392 . S
C259 C262 1.370 . S
C259 H271 0.931 . S
N260 C253 1.359 . S
N260 C261 1.327 . S
N260 Tb263 2.600 . S
C261 C259 1.392 . S
C261 N260 1.327 . S
C261 H268 0.930 . S
C262 C257 1.385 . S
C262 C259 1.370 . S
C262 H281 0.930 . S
Tb263 N260 2.600 . S
Tb263 N264 2.660 . S
Tb263 O297 2.362 . S
Tb263 O298 2.421 . S
Tb263 O302 2.546 . S
Tb263 O303 2.610 . S
Tb263 O305 2.320 . S
Tb263 O306 2.552 . S
Tb263 O307 2.413 . S
Tb263 C327 2.833 . S
N264 C256 1.360 . S
N264 Tb263 2.660 . S
N264 C265 1.305 . S
C265 N264 1.305 . S
C265 C267 1.407 . S
C265 H272 0.930 . S
C266 C254 1.410 . S
C266 C267 1.345 . S
C266 H274 0.930 . S
C267 C265 1.407 . S
C267 C266 1.345 . S
C267 H269 0.930 . S
H268 C261 0.930 . S
H269 C267 0.930 . S
H270 C258 0.930 . S
H271 C259 0.931 . S
H272 C265 0.930 . S
H273 C287 0.930 . S
H274 C266 0.930 . S
H275 C293 0.930 . S
H276 C284 0.930 . S
H277 C291 0.931 . S
H278 C255 0.929 . S
H279 C285 0.930 . S
H280 C318 0.930 . S
H281 C262 0.930 . S
H282 C317 0.929 . S
N283 Tb252 2.660 . S
N283 C284 1.305 . S
N283 C288 1.360 . S
C284 H276 0.930 . S
C284 N283 1.305 . S
C284 C287 1.407 . S
C285 H279 0.930 . S
C285 C286 1.410 . S
C285 C287 1.345 . S
C286 C285 1.410 . S
C286 C288 1.417 . S
C286 C318 1.432 . S
C287 H273 0.930 . S
C287 C284 1.407 . S
C287 C285 1.345 . S
C288 N283 1.360 . S
C288 C286 1.417 . S
C288 C292 1.432 . S
H289 C294 0.930 . S
N290 Tb252 2.600 . S
N290 C292 1.359 . S
N290 C293 1.327 . S
C291 H277 0.931 . S
C291 C293 1.392 . S
C291 C294 1.370 . S
C292 C288 1.432 . S
C292 N290 1.359 . S
C292 C295 1.414 . S
C293 H275 0.930 . S
C293 N290 1.327 . S
C293 C291 1.392 . S
C294 H289 0.930 . S
C294 C291 1.370 . S
C294 C295 1.385 . S
C295 C292 1.414 . S
C295 C294 1.385 . S
C295 C317 1.444 . S
O296 Tb252 2.546 . S
O296 C316 1.251 . S
O297 Tb252 2.610 . S
O297 Tb263 2.362 . S
O297 C308 1.283 . S
O298 Tb263 2.421 . S
O298 C315 1.262 . S
O299 Tb252 2.320 . S
O299 C315 1.260 . S
O300 Tb252 2.552 . S
O300 C308 1.243 . S
O301 Tb252 2.413 . S
O301 C316 1.256 . S
O302 Tb263 2.546 . S
O302 C327 1.251 . S
O303 Tb252 2.362 . S
O303 Tb263 2.610 . S
O303 C319 1.283 . S
O304 Tb252 2.421 . S
O304 C326 1.262 . S
O305 Tb263 2.320 . S
O305 C326 1.260 . S
O306 Tb263 2.552 . S
O306 C319 1.243 . S
O307 Tb263 2.413 . S
O307 C327 1.256 . S
C308 O297 1.283 . S
C308 O300 1.243 . S
C309 C311 1.382 . S
C309 C313 1.393 . S
C309 C316 1.500 . S
C310 C311 1.400 . S
C310 C312 1.384 . S
C311 C309 1.382 . S
C311 C310 1.400 . S
C311 H328 0.930 . S
C312 C310 1.384 . S
C312 C314 1.392 . S
C312 H329 0.931 . S
C313 C309 1.393 . S
C313 C314 1.401 . S
C313 H330 0.930 . S
C314 C312 1.392 . S
C314 C313 1.401 . S
C314 H331 0.930 . S
C315 O298 1.262 . S
C315 O299 1.260 . S
C316 Tb252 2.833 . S
C316 O296 1.251 . S
C316 O301 1.256 . S
C316 C309 1.500 . S
C317 H282 0.929 . S
C317 C295 1.444 . S
C317 C318 1.317 . S
C318 H280 0.930 . S
C318 C286 1.432 . S
C318 C317 1.317 . S
C319 O303 1.283 . S
C319 O306 1.243 . S
C320 C321 1.382 . S
C320 C324 1.393 . S
C320 C327 1.500 . S
C321 C320 1.382 . S
C321 C322 1.400 . S
C321 H332 0.930 . S
C322 C321 1.400 . S
C322 C323 1.384 . S
C323 C322 1.384 . S
C323 C325 1.392 . S
C323 H333 0.931 . S
C324 C320 1.393 . S
C324 C325 1.401 . S
C324 H334 0.930 . S
C325 C323 1.392 . S
C325 C324 1.401 . S
C325 H335 0.930 . S
C326 O304 1.262 . S
C326 O305 1.260 . S
C327 Tb263 2.833 . S
C327 O302 1.251 . S
C327 O307 1.256 . S
C327 C320 1.500 . S
H328 C311 0.930 . S
H329 C312 0.931 . S
H330 C313 0.930 . S
H331 C314 0.930 . S
H332 C321 0.930 . S
H333 C323 0.931 . S
H334 C324 0.930 . S
H335 C325 0.930 . S
H336 C354 0.951 . S
H337 C356 0.951 . S
H338 C358 0.950 . S
H339 C359 0.950 . S
H340 C361 0.950 . S
H341 C364 0.950 . S
H342 C365 0.950 . S
H343 C367 0.950 . S
H344 C368 0.950 . S
H345 C369 0.951 . S
H346 C371 0.951 . S
H347 C373 0.950 . S
H348 C374 0.950 . S
H349 C376 0.950 . S
H350 C379 0.950 . S
H351 C380 0.950 . S
H352 C382 0.950 . S
H353 C383 0.950 . S
C354 H336 0.951 . S
C354 C355 1.366 1_556 S
C354 C356 1.388 . S
C355 C354 1.366 1_554 S
C355 C359 1.385 . S
C356 H337 0.951 . S
C356 C354 1.388 . S
C356 C357 1.366 1_556 S
C357 C356 1.366 1_554 S
C357 C358 1.414 . S
C357 C360 1.498 . S
C358 H338 0.950 . S
C358 C357 1.414 . S
C358 C359 1.374 . S
C359 H339 0.950 . S
C359 C355 1.385 . S
C359 C358 1.374 . S
C360 C357 1.498 . S
C360 C361 1.379 . S
C360 C362 1.385 1_554 S
C361 H340 0.950 . S
C361 C360 1.379 . S
C361 C377 1.377 . S
C362 C360 1.385 1_556 S
C362 C363 1.524 . S
C362 C376 1.377 . S
C363 C362 1.524 . S
C363 C364 1.397 . S
C363 C368 1.363 . S
C364 H341 0.950 . S
C364 C363 1.397 . S
C364 C365 1.334 . S
C365 H342 0.950 . S
C365 C364 1.334 . S
C365 C366 1.287 . S
C366 C365 1.287 . S
C366 C367 1.524 . S
C366 H385 0.913 . S
C367 H343 0.950 . S
C367 C366 1.524 . S
C367 C368 1.415 . S
C368 H344 0.950 . S
C368 C363 1.363 . S
C368 C367 1.415 . S
C369 H345 0.951 . S
C369 C370 1.366 1_554 S
C369 C371 1.388 . S
C370 C369 1.366 1_556 S
C370 C374 1.385 . S
C371 H346 0.951 . S
C371 C369 1.388 . S
C371 C372 1.366 1_554 S
C372 C371 1.366 1_556 S
C372 C373 1.413 . S
C372 C375 1.500 1_556 S
C373 H347 0.950 . S
C373 C372 1.413 . S
C373 C374 1.374 . S
C374 H348 0.950 . S
C374 C370 1.385 . S
C374 C373 1.374 . S
C375 C372 1.500 1_554 S
C375 C376 1.354 1_554 S
C375 C377 1.407 . S
C376 H349 0.950 . S
C376 C362 1.377 . S
C376 C375 1.354 1_556 S
C377 C361 1.377 . S
C377 C375 1.407 . S
C377 C378 1.524 . S
C378 C377 1.524 . S
C378 C379 1.397 . S
C378 C383 1.363 . S
C379 H350 0.950 . S
C379 C378 1.397 . S
C379 C380 1.334 . S
C380 H351 0.950 . S
C380 C379 1.334 . S
C380 C381 1.287 . S
C381 C380 1.287 . S
C381 C382 1.524 . S
C381 H384 0.999 . S
C382 H352 0.950 . S
C382 C381 1.524 . S
C382 C383 1.415 . S
C383 H353 0.950 . S
C383 C378 1.363 . S
C383 C382 1.415 . S
H384 C381 0.999 . S
H385 C366 0.913 . S
H386 C404 0.951 . S
H387 C406 0.951 . S
H388 C408 0.950 . S
H389 C409 0.950 . S
H390 C411 0.950 . S
H391 C414 0.950 . S
H392 C415 0.950 . S
H393 C417 0.950 . S
H394 C418 0.950 . S
H395 C419 0.951 . S
H396 C421 0.951 . S
H397 C423 0.950 . S
H398 C424 0.950 . S
H399 C426 0.950 . S
H400 C429 0.950 . S
H401 C430 0.950 . S
H402 C432 0.950 . S
H403 C433 0.950 . S
C404 H386 0.951 . S
C404 C405 1.366 1_554 S
C404 C406 1.388 . S
C405 C404 1.366 1_556 S
C405 C409 1.385 . S
C406 H387 0.951 . S
C406 C404 1.388 . S
C406 C407 1.366 1_554 S
C407 C406 1.366 1_556 S
C407 C408 1.414 . S
C407 C410 1.499 . S
C408 H388 0.950 . S
C408 C407 1.414 . S
C408 C409 1.374 . S
C409 H389 0.950 . S
C409 C405 1.385 . S
C409 C408 1.374 . S
C410 C407 1.499 . S
C410 C411 1.373 . S
C410 C412 1.389 1_556 S
C411 H390 0.950 . S
C411 C410 1.373 . S
C411 C427 1.377 . S
C412 C410 1.389 1_554 S
C412 C413 1.524 . S
C412 C426 1.377 . S
C413 C412 1.524 . S
C413 C414 1.397 1_554 S
C413 C418 1.363 . S
C414 H391 0.950 . S
C414 C413 1.397 1_556 S
C414 C415 1.334 . S
C415 H392 0.950 . S
C415 C414 1.334 . S
C415 C416 1.287 . S
C416 C415 1.287 . S
C416 C417 1.524 1_556 S
C416 H435 0.913 . S
C417 H393 0.950 . S
C417 C416 1.524 1_554 S
C417 C418 1.415 . S
C418 H394 0.950 . S
C418 C413 1.363 . S
C418 C417 1.415 . S
C419 H395 0.951 . S
C419 C420 1.366 1_556 S
C419 C421 1.388 . S
C420 C419 1.366 1_554 S
C420 C424 1.385 . S
C421 H396 0.951 . S
C421 C419 1.388 . S
C421 C422 1.366 1_556 S
C422 C421 1.366 1_554 S
C422 C423 1.414 . S
C422 C425 1.499 . S
C423 H397 0.950 . S
C423 C422 1.414 . S
C423 C424 1.374 . S
C424 H398 0.950 . S
C424 C420 1.385 . S
C424 C423 1.374 . S
C425 C422 1.499 . S
C425 C426 1.373 . S
C425 C427 1.389 1_554 S
C426 H399 0.950 . S
C426 C412 1.377 . S
C426 C425 1.373 . S
C427 C411 1.377 . S
C427 C425 1.389 1_556 S
C427 C428 1.524 . S
C428 C427 1.524 . S
C428 C429 1.397 1_556 S
C428 C433 1.363 . S
C429 H400 0.950 . S
C429 C428 1.397 1_554 S
C429 C430 1.334 . S
C430 H401 0.950 . S
C430 C429 1.334 . S
C430 C431 1.287 . S
C431 C430 1.287 . S
C431 C432 1.524 1_554 S
C431 H434 0.999 . S
C432 H402 0.950 . S
C432 C431 1.524 1_556 S
C432 C433 1.415 . S
C433 H403 0.950 . S
C433 C428 1.363 . S
C433 C432 1.415 . S
H434 C431 0.999 . S
H435 C416 0.913 . S
H436 C454 0.951 . S
H437 C456 0.951 . S
H438 C458 0.950 . S
H439 C459 0.950 . S
H440 C461 0.950 . S
H441 C464 0.950 . S
H442 C465 0.950 . S
H443 C467 0.950 . S
H444 C468 0.950 . S
H445 C469 0.951 . S
H446 C471 0.951 . S
H447 C473 0.950 . S
H448 C474 0.950 . S
H449 C476 0.950 . S
H450 C479 0.950 . S
H451 C480 0.950 . S
H452 C482 0.950 . S
H453 C483 0.950 . S
C454 H436 0.951 . S
C454 C455 1.366 . S
C454 C456 1.388 . S
C455 C454 1.366 . S
C455 C459 1.385 . S
C456 H437 0.951 . S
C456 C454 1.388 . S
C456 C457 1.366 . S
C457 C456 1.366 . S
C457 C458 1.414 . S
C457 C460 1.499 . S
C458 H438 0.950 . S
C458 C457 1.414 . S
C458 C459 1.374 . S
C459 H439 0.950 . S
C459 C455 1.385 . S
C459 C458 1.374 . S
C460 C457 1.499 . S
C460 C461 1.373 . S
C460 C462 1.389 . S
C461 H440 0.950 . S
C461 C460 1.373 . S
C461 C477 1.377 . S
C462 C460 1.389 . S
C462 C463 1.524 . S
C462 C476 1.377 . S
C463 C462 1.524 . S
C463 C464 1.397 . S
C463 C468 1.363 . S
C464 H441 0.950 . S
C464 C463 1.397 . S
C464 C465 1.334 . S
C465 H442 0.950 . S
C465 C464 1.334 . S
C465 C466 1.287 . S
C466 C465 1.287 . S
C466 C467 1.524 . S
C466 H485 0.913 . S
C467 H443 0.950 . S
C467 C466 1.524 . S
C467 C468 1.415 . S
C468 H444 0.950 . S
C468 C463 1.363 . S
C468 C467 1.415 . S
C469 H445 0.951 . S
C469 C470 1.366 . S
C469 C471 1.388 . S
C470 C469 1.366 . S
C470 C474 1.385 . S
C471 H446 0.951 . S
C471 C469 1.388 . S
C471 C472 1.366 . S
C472 C471 1.366 . S
C472 C473 1.414 . S
C472 C475 1.499 . S
C473 H447 0.950 . S
C473 C472 1.414 . S
C473 C474 1.374 . S
C474 H448 0.950 . S
C474 C470 1.385 . S
C474 C473 1.374 . S
C475 C472 1.499 . S
C475 C476 1.373 . S
C475 C477 1.389 . S
C476 H449 0.950 . S
C476 C462 1.377 . S
C476 C475 1.373 . S
C477 C461 1.377 . S
C477 C475 1.389 . S
C477 C478 1.524 . S
C478 C477 1.524 . S
C478 C479 1.397 . S
C478 C483 1.363 . S
C479 H450 0.950 . S
C479 C478 1.397 . S
C479 C480 1.334 . S
C480 H451 0.950 . S
C480 C479 1.334 . S
C480 C481 1.287 . S
C481 C480 1.287 . S
C481 C482 1.524 . S
C481 H484 0.999 . S
C482 H452 0.950 . S
C482 C481 1.524 . S
C482 C483 1.415 . S
C483 H453 0.950 . S
C483 C478 1.363 . S
C483 C482 1.415 . S
H484 C481 0.999 . S
H485 C466 0.913 . S
H486 C504 0.951 . S
H487 C506 0.951 . S
H488 C508 0.950 . S
H489 C509 0.950 . S
H490 C511 0.950 . S
H491 C514 0.950 . S
H492 C515 0.950 . S
H493 C517 0.950 . S
H494 C518 0.950 . S
H495 C519 0.951 . S
H496 C521 0.951 . S
H497 C523 0.950 . S
H498 C524 0.950 . S
H499 C526 0.950 . S
H500 C529 0.950 . S
H501 C530 0.950 . S
H502 C532 0.950 . S
H503 C533 0.950 . S
C504 H486 0.951 . S
C504 C505 1.366 . S
C504 C506 1.388 . S
C505 C504 1.366 . S
C505 C509 1.385 . S
C506 H487 0.951 . S
C506 C504 1.388 . S
C506 C507 1.366 . S
C507 C506 1.366 . S
C507 C508 1.414 . S
C507 C510 1.499 . S
C508 H488 0.950 . S
C508 C507 1.414 . S
C508 C509 1.374 . S
C509 H489 0.950 . S
C509 C505 1.385 . S
C509 C508 1.374 . S
C510 C507 1.499 . S
C510 C511 1.373 . S
C510 C512 1.389 . S
C511 H490 0.950 . S
C511 C510 1.373 . S
C511 C527 1.377 . S
C512 C510 1.389 . S
C512 C513 1.524 . S
C512 C526 1.377 . S
C513 C512 1.524 . S
C513 C514 1.397 . S
C513 C518 1.363 . S
C514 H491 0.950 . S
C514 C513 1.397 . S
C514 C515 1.334 . S
C515 H492 0.950 . S
C515 C514 1.334 . S
C515 C516 1.287 . S
C516 C515 1.287 . S
C516 C517 1.524 . S
C516 H535 0.913 . S
C517 H493 0.950 . S
C517 C516 1.524 . S
C517 C518 1.415 . S
C518 H494 0.950 . S
C518 C513 1.363 . S
C518 C517 1.415 . S
C519 H495 0.951 . S
C519 C520 1.366 . S
C519 C521 1.388 . S
C520 C519 1.366 . S
C520 C524 1.385 . S
C521 H496 0.951 . S
C521 C519 1.388 . S
C521 C522 1.366 . S
C522 C521 1.366 . S
C522 C523 1.414 . S
C522 C525 1.499 . S
C523 H497 0.950 . S
C523 C522 1.414 . S
C523 C524 1.374 . S
C524 H498 0.950 . S
C524 C520 1.385 . S
C524 C523 1.374 . S
C525 C522 1.499 . S
C525 C526 1.373 . S
C525 C527 1.389 . S
C526 H499 0.950 . S
C526 C512 1.377 . S
C526 C525 1.373 . S
C527 C511 1.377 . S
C527 C525 1.389 . S
C527 C528 1.524 . S
C528 C527 1.524 . S
C528 C529 1.397 . S
C528 C533 1.363 . S
C529 H500 0.950 . S
C529 C528 1.397 . S
C529 C530 1.334 . S
C530 H501 0.950 . S
C530 C529 1.334 . S
C530 C531 1.287 . S
C531 C530 1.287 . S
C531 C532 1.524 . S
C531 H534 0.999 . S
C532 H502 0.950 . S
C532 C531 1.524 . S
C532 C533 1.415 . S
C533 H503 0.950 . S
C533 C528 1.363 . S
C533 C532 1.415 . S
H534 C531 0.999 . S
H535 C516 0.913 . S
H536 C554 0.951 . S
H537 C556 0.951 . S
H538 C558 0.950 . S
H539 C559 0.950 . S
H540 C561 0.950 . S
H541 C564 0.950 . S
H542 C565 0.950 . S
H543 C567 0.950 . S
H544 C568 0.950 . S
H545 C569 0.951 . S
H546 C571 0.951 . S
H547 C573 0.950 . S
H548 C574 0.950 . S
H549 C576 0.950 . S
H550 C579 0.950 . S
H551 C580 0.950 . S
H552 C582 0.950 . S
H553 C583 0.950 . S
C554 H536 0.951 . S
C554 C555 1.366 . S
C554 C556 1.388 . S
C555 C554 1.366 . S
C555 C559 1.385 1_564 S
C556 H537 0.951 . S
C556 C554 1.388 . S
C556 C557 1.366 . S
C557 C556 1.366 . S
C557 C558 1.414 1_564 S
C557 C560 1.499 . S
C558 H538 0.950 . S
C558 C557 1.414 1_546 S
C558 C559 1.374 . S
C559 H539 0.950 . S
C559 C555 1.385 1_546 S
C559 C558 1.374 . S
C560 C557 1.499 . S
C560 C561 1.373 1_564 S
C560 C562 1.389 . S
C561 H540 0.950 . S
C561 C560 1.373 1_546 S
C561 C577 1.377 . S
C562 C560 1.389 . S
C562 C563 1.524 . S
C562 C576 1.377 . S
C563 C562 1.524 . S
C563 C564 1.397 1_565 S
C563 C568 1.363 . S
C564 H541 0.950 . S
C564 C563 1.397 1_545 S
C564 C565 1.334 . S
C565 H542 0.950 . S
C565 C564 1.334 . S
C565 C566 1.287 1_545 S
C566 C565 1.287 1_565 S
C566 C567 1.524 . S
C566 H585 0.913 . S
C567 H543 0.950 . S
C567 C566 1.524 . S
C567 C568 1.415 . S
C568 H544 0.950 . S
C568 C563 1.363 . S
C568 C567 1.415 . S
C569 H545 0.951 . S
C569 C570 1.366 . S
C569 C571 1.388 . S
C570 C569 1.366 . S
C570 C574 1.385 1_546 S
C571 H546 0.951 . S
C571 C569 1.388 . S
C571 C572 1.366 . S
C572 C571 1.366 . S
C572 C573 1.414 1_546 S
C572 C575 1.499 . S
C573 H547 0.950 . S
C573 C572 1.414 1_564 S
C573 C574 1.374 . S
C574 H548 0.950 . S
C574 C570 1.385 1_564 S
C574 C573 1.374 . S
C575 C572 1.499 . S
C575 C576 1.373 1_546 S
C575 C577 1.389 . S
C576 H549 0.950 . S
C576 C562 1.377 . S
C576 C575 1.373 1_564 S
C577 C561 1.377 . S
C577 C575 1.389 . S
C577 C578 1.524 . S
C578 C577 1.524 . S
C578 C579 1.397 1_545 S
C578 C583 1.363 . S
C579 H550 0.950 . S
C579 C578 1.397 1_565 S
C579 C580 1.334 . S
C580 H551 0.950 . S
C580 C579 1.334 . S
C580 C581 1.287 1_565 S
C581 C580 1.287 1_545 S
C581 C582 1.524 . S
C581 H584 0.999 . S
C582 H552 0.950 . S
C582 C581 1.524 . S
C582 C583 1.415 . S
C583 H553 0.950 . S
C583 C578 1.363 . S
C583 C582 1.415 . S
H584 C581 0.999 . S
H585 C566 0.913 . S
H586 C604 0.951 . S
H587 C606 0.951 . S
H588 C608 0.950 . S
H589 C609 0.950 . S
H590 C611 0.950 . S
H591 C614 0.950 . S
H592 C615 0.950 . S
H593 C617 0.950 . S
H594 C618 0.950 1_565 S
H595 C619 0.951 . S
H596 C621 0.951 . S
H597 C623 0.950 . S
H598 C624 0.950 . S
H599 C626 0.950 . S
H600 C629 0.950 . S
H601 C630 0.950 . S
H602 C632 0.950 . S
H603 C633 0.950 1_545 S
C604 H586 0.951 . S
C604 C605 1.366 . S
C604 C606 1.388 . S
C605 C604 1.366 . S
C605 C609 1.385 1_565 S
C606 H587 0.951 . S
C606 C604 1.388 . S
C606 C607 1.358 1_565 S
C607 C606 1.358 1_545 S
C607 C608 1.418 . S
C607 C610 1.502 . S
C608 H588 0.950 . S
C608 C607 1.418 . S
C608 C609 1.374 . S
C609 H589 0.950 . S
C609 C605 1.385 1_545 S
C609 C608 1.374 . S
C610 C607 1.502 . S
C610 C611 1.373 1_545 S
C610 C612 1.389 . S
C611 H590 0.950 . S
C611 C610 1.373 1_565 S
C611 C627 1.377 . S
C612 C610 1.389 . S
C612 C613 1.524 . S
C612 C626 1.377 . S
C613 C612 1.524 . S
C613 C614 1.397 . S
C613 C618 1.363 . S
C614 H591 0.950 . S
C614 C613 1.397 . S
C614 C615 1.334 . S
C615 H592 0.950 . S
C615 C614 1.334 . S
C615 C616 1.287 . S
C616 C615 1.287 . S
C616 C617 1.524 . S
C616 H635 0.913 . S
C617 H593 0.950 . S
C617 C616 1.524 . S
C617 C618 1.415 . S
C618 H594 0.950 1_545 S
C618 C613 1.363 . S
C618 C617 1.415 . S
C619 H595 0.951 . S
C619 C620 1.366 . S
C619 C621 1.388 . S
C620 C619 1.366 . S
C620 C624 1.385 1_545 S
C621 H596 0.951 . S
C621 C619 1.388 . S
C621 C622 1.389 . S
C622 C621 1.389 . S
C622 C623 1.401 1_545 S
C622 C625 1.485 1_545 S
C623 H597 0.950 . S
C623 C622 1.401 1_565 S
C623 C624 1.374 . S
C624 H598 0.950 . S
C624 C620 1.385 1_565 S
C624 C623 1.374 . S
C625 C622 1.485 1_565 S
C625 C626 1.371 1_565 S
C625 C627 1.395 . S
C626 H599 0.950 . S
C626 C612 1.377 . S
C626 C625 1.371 1_545 S
C627 C611 1.377 . S
C627 C625 1.395 . S
C627 C628 1.524 . S
C628 C627 1.524 . S
C628 C629 1.397 . S
C628 C633 1.363 . S
C629 H600 0.950 . S
C629 C628 1.397 . S
C629 C630 1.334 . S
C630 H601 0.950 . S
C630 C629 1.334 . S
C630 C631 1.287 . S
C631 C630 1.287 . S
C631 C632 1.524 . S
C631 H634 0.999 . S
C632 H602 0.950 . S
C632 C631 1.524 . S
C632 C633 1.415 . S
C633 H603 0.950 1_565 S
C633 C628 1.363 . S
C633 C632 1.415 . S
H634 C631 0.999 . S
H635 C616 0.913 . S
H636 C654 0.951 . S
H637 C656 0.951 . S
H638 C658 0.950 . S
H639 C659 0.950 . S
H640 C661 0.950 . S
H641 C664 0.950 . S
H642 C665 0.950 . S
H643 C667 0.950 . S
H644 C668 0.950 . S
H645 C669 0.951 . S
H646 C671 0.951 . S
H647 C673 0.950 . S
H648 C674 0.950 . S
H649 C676 0.950 . S
H650 C679 0.950 . S
H651 C680 0.950 . S
H652 C682 0.950 . S
H653 C683 0.950 . S
C654 H636 0.951 . S
C654 C655 1.366 1_556 S
C654 C656 1.388 . S
C655 C654 1.366 1_554 S
C655 C659 1.385 . S
C656 H637 0.951 . S
C656 C654 1.388 . S
C656 C657 1.366 1_556 S
C657 C656 1.366 1_554 S
C657 C658 1.414 . S
C657 C660 1.499 . S
C658 H638 0.950 . S
C658 C657 1.414 . S
C658 C659 1.374 . S
C659 H639 0.950 . S
C659 C655 1.385 . S
C659 C658 1.374 . S
C660 C657 1.499 . S
C660 C661 1.373 . S
C660 C662 1.389 1_554 S
C661 H640 0.950 . S
C661 C660 1.373 . S
C661 C677 1.377 1_655 S
C662 C660 1.389 1_556 S
C662 C663 1.524 . S
C662 C676 1.377 1_655 S
C663 C662 1.524 . S
C663 C664 1.397 . S
C663 C668 1.363 . S
C664 H641 0.950 . S
C664 C663 1.397 . S
C664 C665 1.334 . S
C665 H642 0.950 . S
C665 C664 1.334 . S
C665 C666 1.287 . S
C666 C665 1.287 . S
C666 C667 1.524 . S
C666 H685 0.913 . S
C667 H643 0.950 . S
C667 C666 1.524 . S
C667 C668 1.415 . S
C668 H644 0.950 . S
C668 C663 1.363 . S
C668 C667 1.415 . S
C669 H645 0.951 . S
C669 C670 1.366 1_554 S
C669 C671 1.388 . S
C670 C669 1.366 1_556 S
C670 C674 1.385 . S
C671 H646 0.951 . S
C671 C669 1.388 . S
C671 C672 1.366 1_554 S
C672 C671 1.366 1_556 S
C672 C673 1.414 . S
C672 C675 1.499 . S
C673 H647 0.950 . S
C673 C672 1.414 . S
C673 C674 1.374 . S
C674 H648 0.950 . S
C674 C670 1.385 . S
C674 C673 1.374 . S
C675 C672 1.499 . S
C675 C676 1.373 . S
C675 C677 1.389 1_556 S
C676 H649 0.950 . S
C676 C662 1.377 1_455 S
C676 C675 1.373 . S
C677 C661 1.377 1_455 S
C677 C675 1.389 1_554 S
C677 C678 1.524 . S
C678 C677 1.524 . S
C678 C679 1.397 . S
C678 C683 1.363 . S
C679 H650 0.950 . S
C679 C678 1.397 . S
C679 C680 1.334 . S
C680 H651 0.950 . S
C680 C679 1.334 . S
C680 C681 1.287 . S
C681 C680 1.287 . S
C681 C682 1.524 . S
C681 H684 0.999 . S
C682 H652 0.950 . S
C682 C681 1.524 . S
C682 C683 1.415 . S
C683 H653 0.950 . S
C683 C678 1.363 . S
C683 C682 1.415 . S
H684 C681 0.999 . S
H685 C666 0.913 . S
H686 C704 0.951 . S
H687 C706 0.951 . S
H688 C708 0.950 . S
H689 C709 0.950 . S
H690 C711 0.950 . S
H691 C714 0.950 . S
H692 C715 0.950 . S
H693 C717 0.950 . S
H694 C718 0.950 . S
H695 C719 0.951 . S
H696 C721 0.951 . S
H697 C723 0.950 . S
H698 C724 0.950 . S
H699 C726 0.950 . S
H700 C729 0.950 . S
H701 C730 0.950 . S
H702 C732 0.950 . S
H703 C733 0.950 . S
C704 H686 0.951 . S
C704 C705 1.366 . S
C704 C706 1.388 . S
C705 C704 1.366 . S
C705 C709 1.385 . S
C706 H687 0.951 . S
C706 C704 1.388 . S
C706 C707 1.366 . S
C707 C706 1.366 . S
C707 C708 1.414 . S
C707 C710 1.499 . S
C708 H688 0.950 . S
C708 C707 1.414 . S
C708 C709 1.374 . S
C709 H689 0.950 . S
C709 C705 1.385 . S
C709 C708 1.374 . S
C710 C707 1.499 . S
C710 C711 1.373 . S
C710 C712 1.389 . S
C711 H690 0.950 . S
C711 C710 1.373 . S
C711 C727 1.377 1_455 S
C712 C710 1.389 . S
C712 C713 1.524 . S
C712 C726 1.377 1_455 S
C713 C712 1.524 . S
C713 C714 1.397 . S
C713 C718 1.363 1_455 S
C714 H691 0.950 . S
C714 C713 1.397 . S
C714 C715 1.334 . S
C715 H692 0.950 . S
C715 C714 1.334 . S
C715 C716 1.287 . S
C716 C715 1.287 . S
C716 C717 1.524 1_455 S
C716 H735 0.913 . S
C717 H693 0.950 . S
C717 C716 1.524 1_655 S
C717 C718 1.415 . S
C718 H694 0.950 . S
C718 C713 1.363 1_655 S
C718 C717 1.415 . S
C719 H695 0.951 . S
C719 C720 1.366 . S
C719 C721 1.388 . S
C720 C719 1.366 . S
C720 C724 1.385 . S
C721 H696 0.951 . S
C721 C719 1.388 . S
C721 C722 1.366 . S
C722 C721 1.366 . S
C722 C723 1.414 . S
C722 C725 1.499 . S
C723 H697 0.950 . S
C723 C722 1.414 . S
C723 C724 1.374 . S
C724 H698 0.950 . S
C724 C720 1.385 . S
C724 C723 1.374 . S
C725 C722 1.499 . S
C725 C726 1.373 . S
C725 C727 1.389 . S
C726 H699 0.950 . S
C726 C712 1.377 1_655 S
C726 C725 1.373 . S
C727 C711 1.377 1_655 S
C727 C725 1.389 . S
C727 C728 1.524 . S
C728 C727 1.524 . S
C728 C729 1.397 . S
C728 C733 1.363 1_655 S
C729 H700 0.950 . S
C729 C728 1.397 . S
C729 C730 1.334 . S
C730 H701 0.950 . S
C730 C729 1.334 . S
C730 C731 1.287 . S
C731 C730 1.287 . S
C731 C732 1.524 1_655 S
C731 H734 0.999 . S
C732 H702 0.950 . S
C732 C731 1.524 1_455 S
C732 C733 1.415 . S
C733 H703 0.950 . S
C733 C728 1.363 1_455 S
C733 C732 1.415 . S
H734 C731 0.999 . S
H735 C716 0.913 . S
H736 C754 0.951 . S
H737 C756 0.951 . S
H738 C758 0.950 . S
H739 C759 0.950 . S
H740 C761 0.950 . S
H741 C764 0.950 . S
H742 C765 0.950 . S
H743 C767 0.950 . S
H744 C768 0.950 . S
H745 C769 0.951 . S
H746 C771 0.951 . S
H747 C773 0.950 . S
H748 C774 0.950 . S
H749 C776 0.950 . S
H750 C779 0.950 . S
H751 C780 0.950 . S
H752 C782 0.950 . S
H753 C783 0.950 . S
C754 H736 0.951 . S
C754 C755 1.366 . S
C754 C756 1.388 . S
C755 C754 1.366 . S
C755 C759 1.385 1_645 S
C756 H737 0.951 . S
C756 C754 1.388 . S
C756 C757 1.366 . S
C757 C756 1.366 . S
C757 C758 1.414 1_645 S
C757 C760 1.499 . S
C758 H738 0.950 . S
C758 C757 1.414 1_465 S
C758 C759 1.374 . S
C759 H739 0.950 . S
C759 C755 1.385 1_465 S
C759 C758 1.374 . S
C760 C757 1.499 . S
C760 C761 1.373 1_655 S
C760 C762 1.389 1_545 S
C761 H740 0.950 . S
C761 C760 1.373 1_455 S
C761 C777 1.377 . S
C762 C760 1.389 1_565 S
C762 C763 1.524 . S
C762 C776 1.377 . S
C763 C762 1.524 . S
C763 C764 1.397 . S
C763 C768 1.363 . S
C764 H741 0.950 . S
C764 C763 1.397 . S
C764 C765 1.334 . S
C765 H742 0.950 . S
C765 C764 1.334 . S
C765 C766 1.287 . S
C766 C765 1.287 . S
C766 C767 1.524 . S
C766 H785 0.913 . S
C767 H743 0.950 . S
C767 C766 1.524 . S
C767 C768 1.415 . S
C768 H744 0.950 . S
C768 C763 1.363 . S
C768 C767 1.415 . S
C769 H745 0.951 . S
C769 C770 1.366 1_465 S
C769 C771 1.388 . S
C770 C769 1.366 1_645 S
C770 C774 1.385 . S
C771 H746 0.951 . S
C771 C769 1.388 . S
C771 C772 1.366 1_465 S
C772 C771 1.366 1_645 S
C772 C773 1.414 . S
C772 C775 1.499 . S
C773 H747 0.950 . S
C773 C772 1.414 . S
C773 C774 1.374 . S
C774 H748 0.950 . S
C774 C770 1.385 . S
C774 C773 1.374 . S
C775 C772 1.499 . S
C775 C776 1.373 1_545 S
C775 C777 1.389 1_655 S
C776 H749 0.950 . S
C776 C762 1.377 . S
C776 C775 1.373 1_565 S
C777 C761 1.377 . S
C777 C775 1.389 1_455 S
C777 C778 1.524 . S
C778 C777 1.524 . S
C778 C779 1.397 . S
C778 C783 1.363 . S
C779 H750 0.950 . S
C779 C778 1.397 . S
C779 C780 1.334 . S
C780 H751 0.950 . S
C780 C779 1.334 . S
C780 C781 1.287 . S
C781 C780 1.287 . S
C781 C782 1.524 . S
C781 H784 0.999 . S
C782 H752 0.950 . S
C782 C781 1.524 . S
C782 C783 1.415 . S
C783 H753 0.950 . S
C783 C778 1.363 . S
C783 C782 1.415 . S
H784 C781 0.999 . S
H785 C766 0.913 . S
H786 C804 0.951 . S
H787 C806 0.951 . S
H788 C808 0.950 . S
H789 C809 0.950 . S
H790 C811 0.950 . S
H791 C814 0.950 . S
H792 C815 0.950 . S
H793 C817 0.950 . S
H794 C818 0.950 . S
H795 C819 0.951 . S
H796 C821 0.951 . S
H797 C823 0.950 . S
H798 C824 0.950 . S
H799 C826 0.950 . S
H800 C829 0.950 . S
H801 C830 0.950 . S
H802 C832 0.950 . S
H803 C833 0.950 . S
C804 H786 0.951 . S
C804 C805 1.366 1_655 S
C804 C806 1.388 . S
C805 C804 1.366 1_455 S
C805 C809 1.385 1_565 S
C806 H787 0.951 . S
C806 C804 1.388 . S
C806 C807 1.366 1_655 S
C807 C806 1.366 1_455 S
C807 C808 1.414 1_565 S
C807 C810 1.499 . S
C808 H788 0.950 . S
C808 C807 1.414 1_545 S
C808 C809 1.374 . S
C809 H789 0.950 . S
C809 C805 1.385 1_545 S
C809 C808 1.374 . S
C810 C807 1.499 . S
C810 C811 1.373 1_465 S
C810 C812 1.389 . S
C811 H790 0.950 . S
C811 C810 1.373 1_645 S
C811 C827 1.377 . S
C812 C810 1.389 . S
C812 C813 1.524 . S
C812 C826 1.377 . S
C813 C812 1.524 . S
C813 C814 1.397 . S
C813 C818 1.363 . S
C814 H791 0.950 . S
C814 C813 1.397 . S
C814 C815 1.334 . S
C815 H792 0.950 . S
C815 C814 1.334 . S
C815 C816 1.287 . S
C816 C815 1.287 . S
C816 C817 1.524 . S
C816 H835 0.913 . S
C817 H793 0.950 . S
C817 C816 1.524 . S
C817 C818 1.415 . S
C818 H794 0.950 . S
C818 C813 1.363 . S
C818 C817 1.415 . S
C819 H795 0.951 . S
C819 C820 1.366 1_545 S
C819 C821 1.388 . S
C820 C819 1.366 1_565 S
C820 C824 1.385 1_455 S
C821 H796 0.951 . S
C821 C819 1.388 . S
C821 C822 1.366 1_545 S
C822 C821 1.366 1_565 S
C822 C823 1.414 1_455 S
C822 C825 1.499 . S
C823 H797 0.950 . S
C823 C822 1.414 1_655 S
C823 C824 1.374 . S
C824 H798 0.950 . S
C824 C820 1.385 1_655 S
C824 C823 1.374 . S
C825 C822 1.499 . S
C825 C826 1.373 . S
C825 C827 1.389 1_465 S
C826 H799 0.950 . S
C826 C812 1.377 . S
C826 C825 1.373 . S
C827 C811 1.377 . S
C827 C825 1.389 1_645 S
C827 C828 1.524 . S
C828 C827 1.524 . S
C828 C829 1.397 . S
C828 C833 1.363 . S
C829 H800 0.950 . S
C829 C828 1.397 . S
C829 C830 1.334 . S
C830 H801 0.950 . S
C830 C829 1.334 . S
C830 C831 1.287 . S
C831 C830 1.287 . S
C831 C832 1.524 . S
C831 H834 0.999 . S
C832 H802 0.950 . S
C832 C831 1.524 . S
C832 C833 1.415 . S
C833 H803 0.950 . S
C833 C828 1.363 . S
C833 C832 1.415 . S
H834 C831 0.999 . S
H835 C816 0.913 . S
H836 C854 0.951 . S
H837 C856 0.951 . S
H838 C858 0.950 . S
H839 C859 0.950 . S
H840 C861 0.950 . S
H841 C864 0.950 . S
H842 C865 0.950 . S
H843 C867 0.950 . S
H844 C868 0.950 . S
H845 C869 0.951 . S
H846 C871 0.951 . S
H847 C873 0.950 . S
H848 C874 0.950 . S
H849 C876 0.950 . S
H850 C879 0.950 . S
H851 C880 0.950 . S
H852 C882 0.950 . S
H853 C883 0.950 . S
C854 H836 0.951 . S
C854 C855 1.366 . S
C854 C856 1.388 . S
C855 C854 1.366 . S
C855 C859 1.385 . S
C856 H837 0.951 . S
C856 C854 1.388 . S
C856 C857 1.366 . S
C857 C856 1.366 . S
C857 C858 1.414 . S
C857 C860 1.499 . S
C858 H838 0.950 . S
C858 C857 1.414 . S
C858 C859 1.374 . S
C859 H839 0.950 . S
C859 C855 1.385 . S
C859 C858 1.374 . S
C860 C857 1.499 . S
C860 C861 1.373 . S
C860 C862 1.389 . S
C861 H840 0.950 . S
C861 C860 1.373 . S
C861 C877 1.377 . S
C862 C860 1.389 . S
C862 C863 1.524 . S
C862 C876 1.377 . S
C863 C862 1.524 . S
C863 C864 1.397 . S
C863 C868 1.363 . S
C864 H841 0.950 . S
C864 C863 1.397 . S
C864 C865 1.334 . S
C865 H842 0.950 . S
C865 C864 1.334 . S
C865 C866 1.287 . S
C866 C865 1.287 . S
C866 C867 1.524 . S
C866 H885 0.913 . S
C867 H843 0.950 . S
C867 C866 1.524 . S
C867 C868 1.415 . S
C868 H844 0.950 . S
C868 C863 1.363 . S
C868 C867 1.415 . S
C869 H845 0.951 . S
C869 C870 1.366 . S
C869 C871 1.388 . S
C870 C869 1.366 . S
C870 C874 1.385 . S
C871 H846 0.951 . S
C871 C869 1.388 . S
C871 C872 1.366 . S
C872 C871 1.366 . S
C872 C873 1.414 . S
C872 C875 1.499 . S
C873 H847 0.950 . S
C873 C872 1.414 . S
C873 C874 1.374 . S
C874 H848 0.950 . S
C874 C870 1.385 . S
C874 C873 1.374 . S
C875 C872 1.499 . S
C875 C876 1.373 . S
C875 C877 1.389 . S
C876 H849 0.950 . S
C876 C862 1.377 . S
C876 C875 1.373 . S
C877 C861 1.377 . S
C877 C875 1.389 . S
C877 C878 1.524 . S
C878 C877 1.524 . S
C878 C879 1.397 . S
C878 C883 1.363 . S
C879 H850 0.950 . S
C879 C878 1.397 . S
C879 C880 1.334 . S
C880 H851 0.950 . S
C880 C879 1.334 . S
C880 C881 1.287 . S
C881 C880 1.287 . S
C881 C882 1.524 . S
C881 H884 0.999 . S
C882 H852 0.950 . S
C882 C881 1.524 . S
C882 C883 1.415 . S
C883 H853 0.950 . S
C883 C878 1.363 . S
C883 C882 1.415 . S
H884 C881 0.999 . S
H885 C866 0.913 . S
H886 C904 0.951 . S
H887 C906 0.951 . S
H888 C908 0.950 . S
H889 C909 0.950 . S
H890 C911 0.950 . S
H891 C914 0.950 . S
H892 C915 0.950 . S
H893 C917 0.950 . S
H894 C918 0.950 . S
H895 C919 0.951 . S
H896 C921 0.951 . S
H897 C923 0.950 . S
H898 C924 0.950 . S
H899 C926 0.950 . S
H900 C929 0.950 . S
H901 C930 0.950 . S
H902 C932 0.950 . S
H903 C933 0.950 . S
C904 H886 0.951 . S
C904 C905 1.366 . S
C904 C906 1.388 . S
C905 C904 1.366 . S
C905 C909 1.385 . S
C906 H887 0.951 . S
C906 C904 1.388 . S
C906 C907 1.366 . S
C907 C906 1.366 . S
C907 C908 1.414 . S
C907 C910 1.499 . S
C908 H888 0.950 . S
C908 C907 1.414 . S
C908 C909 1.374 . S
C909 H889 0.950 . S
C909 C905 1.385 . S
C909 C908 1.374 . S
C910 C907 1.499 . S
C910 C911 1.373 . S
C910 C912 1.389 . S
C911 H890 0.950 . S
C911 C910 1.373 . S
C911 C927 1.377 . S
C912 C910 1.389 . S
C912 C913 1.524 . S
C912 C926 1.377 . S
C913 C912 1.524 . S
C913 C914 1.397 . S
C913 C918 1.363 . S
C914 H891 0.950 . S
C914 C913 1.397 . S
C914 C915 1.334 . S
C915 H892 0.950 . S
C915 C914 1.334 . S
C915 C916 1.287 . S
C916 C915 1.287 . S
C916 C917 1.524 . S
C916 H935 0.913 . S
C917 H893 0.950 . S
C917 C916 1.524 . S
C917 C918 1.415 . S
C918 H894 0.950 . S
C918 C913 1.363 . S
C918 C917 1.415 . S
C919 H895 0.951 . S
C919 C920 1.366 . S
C919 C921 1.388 . S
C920 C919 1.366 . S
C920 C924 1.385 . S
C921 H896 0.951 . S
C921 C919 1.388 . S
C921 C922 1.366 . S
C922 C921 1.366 . S
C922 C923 1.414 . S
C922 C925 1.499 . S
C923 H897 0.950 . S
C923 C922 1.414 . S
C923 C924 1.374 . S
C924 H898 0.950 . S
C924 C920 1.385 . S
C924 C923 1.374 . S
C925 C922 1.499 . S
C925 C926 1.373 . S
C925 C927 1.389 . S
C926 H899 0.950 . S
C926 C912 1.377 . S
C926 C925 1.373 . S
C927 C911 1.377 . S
C927 C925 1.389 . S
C927 C928 1.524 . S
C928 C927 1.524 . S
C928 C929 1.397 . S
C928 C933 1.363 . S
C929 H900 0.950 . S
C929 C928 1.397 . S
C929 C930 1.334 . S
C930 H901 0.950 . S
C930 C929 1.334 . S
C930 C931 1.287 . S
C931 C930 1.287 . S
C931 C932 1.524 . S
C931 H934 0.999 . S
C932 H902 0.950 . S
C932 C931 1.524 . S
C932 C933 1.415 . S
C933 H903 0.950 . S
C933 C928 1.363 . S
C933 C932 1.415 . S
H934 C931 0.999 . S
H935 C916 0.913 . S
C355 C224 3.231 . S
C370 C67 3.231 1_556 S
C405 C235 3.231 1_556 S
C420 C56 3.231 . S
C455 C154 0.676 . S
C470 C310 0.676 . S
C505 C142 0.675 . S
C520 C322 0.675 . S
C555 C70 1.464 . S
C570 C58 1.464 . S
C605 C151 4.208 1_565 S
C620 C140 4.208 1_545 S
C655 C238 1.462 . S
C670 C226 1.462 . S
C705 C308 4.207 . S
C720 C319 4.207 . S
C755 C158 1.494 . S
C770 C63 1.474 1_655 S
C805 C74 1.473 1_465 S
C820 C147 1.493 . S
C855 C326 1.493 . S
C870 C231 1.474 . S
C905 C315 1.493 . S
C920 C242 1.473 . S
