# Generated by pormake.
# Topology una, (4)-cn, num edge types: 1
# Building blocks:
#     Node 0, Type 0, BuildingBlock: KUFVIS_clean_sbu_0, # of connection points: 4
#     Node 1, Type 0, BuildingBlock: KUFVIS_clean_sbu_0, # of connection points: 4
#     Node 2, Type 0, BuildingBlock: KUFVIS_clean_sbu_0, # of connection points: 4
#     Node 3, Type 0, BuildingBlock: KUFVIS_clean_sbu_0, # of connection points: 4
#     Node 4, Type 0, BuildingBlock: KUFVIS_clean_sbu_0, # of connection points: 4
#     Node 5, Type 0, BuildingBlock: KUFVIS_clean_sbu_0, # of connection points: 4
#     Node 6, Type 0, BuildingBlock: KUFVIS_clean_sbu_0, # of connection points: 4
#     Node 7, Type 0, BuildingBlock: KUFVIS_clean_sbu_0, # of connection points: 4
#     Node 8, Type 0, BuildingBlock: KUFVIS_clean_sbu_0, # of connection points: 4
#     Node 9, Type 0, BuildingBlock: KUFVIS_clean_sbu_0, # of connection points: 4
#     Node 10, Type 0, BuildingBlock: KUFVIS_clean_sbu_0, # of connection points: 4
#     Node 11, Type 0, BuildingBlock: KUFVIS_clean_sbu_0, # of connection points: 4
#     Edge 12, Type (0, 0), BuildingBlock: ZUJKAS_clean_linker_0, # of connection points: 2
#     Edge 13, Type (0, 0), BuildingBlock: ZUJKAS_clean_linker_0, # of connection points: 2
#     Edge 14, Type (0, 0), BuildingBlock: ZUJKAS_clean_linker_0, # of connection points: 2
#     Edge 15, Type (0, 0), BuildingBlock: ZUJKAS_clean_linker_0, # of connection points: 2
#     Edge 16, Type (0, 0), BuildingBlock: ZUJKAS_clean_linker_0, # of connection points: 2
#     Edge 17, Type (0, 0), BuildingBlock: ZUJKAS_clean_linker_0, # of connection points: 2
#     Edge 18, Type (0, 0), BuildingBlock: ZUJKAS_clean_linker_0, # of connection points: 2
#     Edge 19, Type (0, 0), BuildingBlock: ZUJKAS_clean_linker_0, # of connection points: 2
#     Edge 20, Type (0, 0), BuildingBlock: ZUJKAS_clean_linker_0, # of connection points: 2
#     Edge 21, Type (0, 0), BuildingBlock: ZUJKAS_clean_linker_0, # of connection points: 2
#     Edge 22, Type (0, 0), BuildingBlock: ZUJKAS_clean_linker_0, # of connection points: 2
#     Edge 23, Type (0, 0), BuildingBlock: ZUJKAS_clean_linker_0, # of connection points: 2
#     Edge 24, Type (0, 0), BuildingBlock: ZUJKAS_clean_linker_0, # of connection points: 2
#     Edge 25, Type (0, 0), BuildingBlock: ZUJKAS_clean_linker_0, # of connection points: 2
#     Edge 26, Type (0, 0), BuildingBlock: ZUJKAS_clean_linker_0, # of connection points: 2
#     Edge 27, Type (0, 0), BuildingBlock: ZUJKAS_clean_linker_0, # of connection points: 2
#     Edge 28, Type (0, 0), BuildingBlock: ZUJKAS_clean_linker_0, # of connection points: 2
#     Edge 29, Type (0, 0), BuildingBlock: ZUJKAS_clean_linker_0, # of connection points: 2
#     Edge 30, Type (0, 0), BuildingBlock: ZUJKAS_clean_linker_0, # of connection points: 2
#     Edge 31, Type (0, 0), BuildingBlock: ZUJKAS_clean_linker_0, # of connection points: 2
#     Edge 32, Type (0, 0), BuildingBlock: ZUJKAS_clean_linker_0, # of connection points: 2
#     Edge 33, Type (0, 0), BuildingBlock: ZUJKAS_clean_linker_0, # of connection points: 2
#     Edge 34, Type (0, 0), BuildingBlock: ZUJKAS_clean_linker_0, # of connection points: 2
#     Edge 35, Type (0, 0), BuildingBlock: ZUJKAS_clean_linker_0, # of connection points: 2
# Relax obj value: 0.032
# Max RMSD: 0.075
# Mean RMSD: 0.075
data_MOF--net-una--node1-KUFVIS_clean_sbu_0--edge1-ZUJKAS_clean_linker_0
_symmetry_space_group_name_H-M    P1
_symmetry_Int_Tables_number       1
_symmetry_cell_setting            triclinic
loop_
_symmetry_equiv_pos_as_xyz
'x, y, z'
_cell_length_a     74.683938
_cell_length_b     74.679215
_cell_length_c     28.614808
_cell_angle_alpha  90.006946
_cell_angle_beta   89.998693
_cell_angle_gamma 120.00245
loop_
_atom_site_label
_atom_site_type_symbol
_atom_site_fract_x
_atom_site_fract_y
_atom_site_fract_z
_atom_type_partial_charge
Mn0 Mn 0.1426 0.44514 0.02936 0.0
Mn1 Mn 0.14434 0.47105 0.93114 0.0
C2 C 0.15365 0.43801 0.95984 0.0
C3 C 0.15966 0.44405 0.09758 0.0
C4 C 0.10459 0.4354 0.97005 0.0
O5 O 0.13998 0.46943 0.05409 0.0
O6 O 0.14413 0.48666 0.98681 0.0
C7 C 0.18623 0.50728 0.94322 0.0
N8 N 0.17235 0.49103 0.91694 0.0
C9 C 0.19653 0.50055 0.85345 0.0
C10 C 0.21108 0.51745 0.87972 0.0
C11 C 0.20593 0.52076 0.9249 0.0
C12 C 0.17722 0.48754 0.87372 0.0
H13 H 0.18226 0.50992 0.97785 0.0
C14 C 0.14175 0.48492 0.03117 0.0
O15 O 0.13962 0.43326 0.09405 0.0
O16 O 0.16947 0.45563 0.06225 0.0
N17 N 0.14467 0.45799 0.87396 0.0
C18 C 0.12909 0.44062 0.85387 0.0
C19 C 0.13164 0.43517 0.80844 0.0
C20 C 0.15005 0.44775 0.78398 0.0
C21 C 0.16596 0.46544 0.80552 0.0
C22 C 0.16246 0.47019 0.8507 0.0
H23 H 0.11474 0.43112 0.87214 0.0
O24 O 0.14763 0.42496 0.99419 0.0
O25 O 0.1537 0.45517 0.96771 0.0
O26 O 0.11248 0.43076 0.00453 0.0
O27 O 0.11514 0.45053 0.94242 0.0
C28 C 0.18509 0.47862 0.78391 0.0
C29 C 0.20044 0.49604 0.80803 0.0
H30 H 0.22626 0.52793 0.86564 0.0
H31 H 0.21709 0.53374 0.94544 0.0
H32 H 0.11934 0.42147 0.79206 0.0
H33 H 0.15172 0.44371 0.74857 0.0
H34 H 0.18823 0.47547 0.74884 0.0
H35 H 0.21519 0.5059 0.79129 0.0
Mn36 Mn 0.69933 0.13756 0.20401 0.0
Mn37 Mn 0.67668 0.13965 0.10368 0.0
C38 C 0.71845 0.149 0.13594 0.0
C39 C 0.71675 0.1548 0.27275 0.0
C40 C 0.67161 0.09971 0.14387 0.0
O41 O 0.67203 0.13487 0.22626 0.0
O42 O 0.66015 0.13964 0.15774 0.0
C43 C 0.68269 0.18174 0.1142 0.0
N44 N 0.68545 0.16781 0.08912 0.0
C45 C 0.70212 0.19228 0.02687 0.0
C46 C 0.69938 0.20687 0.05193 0.0
C47 C 0.68972 0.20161 0.0959 0.0
C48 C 0.69504 0.17283 0.04717 0.0
H49 H 0.67514 0.17769 0.14787 0.0
C50 C 0.65881 0.13699 0.20208 0.0
O51 O 0.70761 0.13475 0.26958 0.0
O52 O 0.71515 0.16446 0.23694 0.0
N53 N 0.69102 0.13985 0.0481 0.0
C54 C 0.69268 0.12408 0.02866 0.0
C55 C 0.70221 0.12692 0.98485 0.0
C56 C 0.70957 0.14577 0.96109 0.0
C57 C 0.7073 0.16161 0.98136 0.0
C58 C 0.69781 0.15795 0.02523 0.0
H59 H 0.68679 0.10945 0.04643 0.0
O60 O 0.72515 0.1429 0.17077 0.0
O61 O 0.70113 0.1487 0.14252 0.0
O62 O 0.68395 0.10751 0.17873 0.0
O63 O 0.66737 0.11033 0.11561 0.0
C64 C 0.71399 0.18086 0.95965 0.0
C65 C 0.71156 0.19625 0.98254 0.0
H66 H 0.70467 0.22217 0.0378 0.0
H67 H 0.68759 0.2128 0.11551 0.0
H68 H 0.7038 0.11456 0.96933 0.0
H69 H 0.7169 0.14789 0.92729 0.0
H70 H 0.7213 0.1841 0.9256 0.0
H71 H 0.71709 0.21111 0.9658 0.0
Mn72 Mn 0.56074 0.69997 0.35611 0.0
Mn73 Mn 0.53915 0.6824 0.2503 0.0
C74 C 0.57214 0.72182 0.29243 0.0
C75 C 0.55935 0.71553 0.42648 0.0
C76 C 0.57074 0.67289 0.29345 0.0
O77 O 0.53448 0.67283 0.37128 0.0
O78 O 0.51997 0.66435 0.29978 0.0
C79 C 0.50465 0.69103 0.2576 0.0
N80 N 0.52178 0.69354 0.2349 0.0
C81 C 0.51859 0.7148 0.17606 0.0
C82 C 0.50083 0.71234 0.19866 0.0
C83 C 0.49387 0.70044 0.23967 0.0
C84 C 0.52869 0.70506 0.19559 0.0
H85 H 0.49929 0.68193 0.28918 0.0
C86 C 0.51966 0.66119 0.34386 0.0
O87 O 0.56921 0.70528 0.42411 0.0
O88 O 0.54992 0.7159 0.38901 0.0
N89 N 0.55595 0.69841 0.19896 0.0
C90 C 0.5737 0.69979 0.18231 0.0
C91 C 0.58275 0.7112 0.14149 0.0
C92 C 0.5734 0.72091 0.11804 0.0
C93 C 0.55511 0.71923 0.13577 0.0
C94 C 0.54667 0.70746 0.17628 0.0
H95 H 0.58088 0.69222 0.19993 0.0
O96 O 0.58355 0.72629 0.3295 0.0
O97 O 0.55431 0.70496 0.29425 0.0
O98 O 0.57464 0.68387 0.3306 0.0
O99 O 0.55727 0.67085 0.26309 0.0
C100 C 0.545 0.72889 0.11502 0.0
C101 C 0.52682 0.72677 0.13531 0.0
H102 H 0.4925 0.71962 0.18501 0.0
H103 H 0.48023 0.69855 0.25742 0.0
H104 H 0.59687 0.71243 0.12803 0.0
H105 H 0.58039 0.7296 0.08645 0.0
H106 H 0.5512 0.73816 0.08376 0.0
H107 H 0.51935 0.7345 0.11941 0.0
Mn108 Mn 0.86293 0.56034 0.53074 0.0
Mn109 Mn 0.8612 0.53613 0.42968 0.0
C110 C 0.85233 0.56897 0.46247 0.0
C111 C 0.84565 0.56041 0.59958 0.0
C112 C 0.90104 0.57059 0.47132 0.0
O113 O 0.8651 0.53539 0.55254 0.0
O114 O 0.86094 0.51938 0.48344 0.0
C115 C 0.819 0.50013 0.43909 0.0
N116 N 0.83318 0.51673 0.41417 0.0
C117 C 0.8094 0.50867 0.35031 0.0
C118 C 0.79455 0.49142 0.37518 0.0
C119 C 0.79934 0.48719 0.41986 0.0
C120 C 0.82864 0.52109 0.37146 0.0
H121 H 0.8227 0.49679 0.47332 0.0
C122 C 0.86323 0.52029 0.52782 0.0
O123 O 0.86571 0.57104 0.59663 0.0
O124 O 0.83593 0.54954 0.56333 0.0
N125 N 0.86137 0.55036 0.37405 0.0
C126 C 0.87722 0.56795 0.35541 0.0
C127 C 0.87509 0.57424 0.31055 0.0
C128 C 0.85679 0.56227 0.28518 0.0
C129 C 0.84058 0.54437 0.30531 0.0
C130 C 0.84369 0.53876 0.34992 0.0
H131 H 0.8915 0.57697 0.37434 0.0
O132 O 0.85836 0.58138 0.49804 0.0
O133 O 0.85203 0.55157 0.46841 0.0
O134 O 0.89316 0.57481 0.50652 0.0
O135 O 0.89042 0.55607 0.44234 0.0
C136 C 0.82151 0.53179 0.2828 0.0
C137 C 0.80586 0.51408 0.30549 0.0
H138 H 0.7794 0.48136 0.36038 0.0
H139 H 0.78795 0.47394 0.43932 0.0
H140 H 0.88763 0.5881 0.29526 0.0
H141 H 0.85546 0.56693 0.25015 0.0
H142 H 0.81866 0.53564 0.24815 0.0
H143 H 0.79117 0.50469 0.28808 0.0
Mn144 Mn 0.30398 0.86236 0.6995 0.0
Mn145 Mn 0.3229 0.85919 0.59472 0.0
C146 C 0.28316 0.85308 0.63416 0.0
C147 C 0.28715 0.84469 0.76829 0.0
C148 C 0.33235 0.89996 0.63945 0.0
O149 O 0.33059 0.86248 0.71645 0.0
O150 O 0.34007 0.85726 0.6453 0.0
C151 C 0.31351 0.81577 0.6007 0.0
N152 N 0.31159 0.83077 0.5781 0.0
C153 C 0.29082 0.80699 0.51768 0.0
C154 C 0.29268 0.79131 0.54016 0.0
C155 C 0.30403 0.79572 0.5819 0.0
C156 C 0.3006 0.82667 0.53807 0.0
H157 H 0.32217 0.81909 0.63286 0.0
C158 C 0.34253 0.85948 0.68966 0.0
O159 O 0.29775 0.86481 0.76727 0.0
O160 O 0.28716 0.83527 0.73047 0.0
N161 N 0.30779 0.86076 0.54237 0.0
C162 C 0.30696 0.87744 0.52588 0.0
C163 C 0.29614 0.87564 0.48439 0.0
C164 C 0.28644 0.85676 0.46012 0.0
C165 C 0.28756 0.83982 0.47766 0.0
C166 C 0.29877 0.84262 0.51888 0.0
H167 H 0.31452 0.89204 0.54416 0.0
O168 O 0.2783 0.85971 0.67118 0.0
O169 O 0.29976 0.85167 0.637 0.0
O170 O 0.32087 0.89261 0.67582 0.0
O171 O 0.33463 0.88877 0.60886 0.0
C172 C 0.27788 0.82023 0.45608 0.0
C173 C 0.27941 0.8038 0.47621 0.0
H174 H 0.28535 0.77581 0.52584 0.0
H175 H 0.30545 0.78367 0.59956 0.0
H176 H 0.29534 0.88878 0.47107 0.0
H177 H 0.27819 0.85548 0.42805 0.0
H178 H 0.26904 0.81757 0.42426 0.0
H179 H 0.27167 0.78874 0.45965 0.0
Mn180 Mn 0.44076 0.3011 0.86707 0.0
Mn181 Mn 0.46309 0.31898 0.76195 0.0
C182 C 0.42997 0.27935 0.80312 0.0
C183 C 0.44184 0.28577 0.93806 0.0
C184 C 0.43095 0.32807 0.80353 0.0
O185 O 0.46678 0.32839 0.88301 0.0
O186 O 0.48185 0.33688 0.81208 0.0
C187 C 0.49758 0.3104 0.77068 0.0
N188 N 0.48065 0.30798 0.74723 0.0
C189 C 0.48455 0.28726 0.6881 0.0
C190 C 0.50211 0.28961 0.71149 0.0
C191 C 0.50861 0.30118 0.75303 0.0
C192 C 0.47417 0.29675 0.70744 0.0
H193 H 0.5026 0.31927 0.80264 0.0
C194 C 0.48182 0.34003 0.85607 0.0
O195 O 0.43166 0.29566 0.93459 0.0
O196 O 0.45166 0.28546 0.9012 0.0
N197 N 0.44675 0.3032 0.70986 0.0
C198 C 0.42923 0.30199 0.69227 0.0
C199 C 0.42074 0.29108 0.6506 0.0
C200 C 0.43044 0.28168 0.62728 0.0
C201 C 0.44846 0.28312 0.64604 0.0
C202 C 0.45635 0.29443 0.68735 0.0
H203 H 0.42183 0.30939 0.7097 0.0
O204 O 0.41834 0.27469 0.83985 0.0
O205 O 0.44773 0.29628 0.80548 0.0
O206 O 0.42676 0.31694 0.84051 0.0
O207 O 0.4448 0.33038 0.77398 0.0
C208 C 0.45885 0.27372 0.62549 0.0
C209 C 0.47681 0.27567 0.64668 0.0
H210 H 0.51064 0.28252 0.69802 0.0
H211 H 0.52209 0.303 0.77137 0.0
H212 H 0.40683 0.29003 0.63633 0.0
H213 H 0.42394 0.27346 0.59491 0.0
H214 H 0.45306 0.26478 0.59366 0.0
H215 H 0.48451 0.26815 0.63089 0.0
Mn216 Mn 0.5623 0.86241 0.87384 0.0
Mn217 Mn 0.54028 0.8605 0.97804 0.0
C218 C 0.57316 0.8529 0.93993 0.0
C219 C 0.5611 0.84427 0.80559 0.0
C220 C 0.57243 0.90061 0.93249 0.0
O221 O 0.53624 0.86325 0.85607 0.0
O222 O 0.52147 0.85874 0.92698 0.0
C223 C 0.50544 0.81745 0.97326 0.0
N224 N 0.52256 0.8323 0.99555 0.0
C225 C 0.51885 0.80868 0.057 0.0
C226 C 0.50109 0.79316 0.03484 0.0
C227 C 0.49439 0.79756 0.99274 0.0
C228 C 0.52921 0.82821 0.03595 0.0
H229 H 0.50028 0.82077 0.94082 0.0
C230 C 0.52135 0.86071 0.88252 0.0
O231 O 0.5711 0.8644 0.80631 0.0
O232 O 0.55142 0.8351 0.8434 0.0
N233 N 0.55673 0.86194 0.03074 0.0
C234 C 0.57455 0.87841 0.04676 0.0
C235 C 0.58343 0.87653 0.0884 0.0
C236 C 0.57383 0.85782 0.11328 0.0
C237 C 0.55544 0.84111 0.09625 0.0
C238 C 0.5472 0.84397 0.05482 0.0
H239 H 0.58195 0.89288 0.02796 0.0
O240 O 0.58477 0.85908 0.90304 0.0
O241 O 0.55544 0.85208 0.93654 0.0
O242 O 0.57642 0.8928 0.89678 0.0
O243 O 0.55871 0.88991 0.96306 0.0
C244 C 0.54507 0.82169 0.11851 0.0
C245 C 0.52684 0.80545 0.09877 0.0
H246 H 0.49256 0.77778 0.04968 0.0
H247 H 0.48075 0.78564 0.97533 0.0
H248 H 0.59763 0.88949 0.10132 0.0
H249 H 0.58073 0.85646 0.14539 0.0
H250 H 0.55109 0.819 0.15054 0.0
H251 H 0.51917 0.79051 0.11586 0.0
Mn252 Mn 0.69951 0.55888 0.04721 0.0
Mn253 Mn 0.67692 0.53427 0.14781 0.0
C254 C 0.71854 0.56762 0.11577 0.0
C255 C 0.71715 0.55935 0.97857 0.0
C256 C 0.6711 0.56848 0.10632 0.0
O257 O 0.67262 0.53376 0.02493 0.0
O258 O 0.66079 0.51745 0.09371 0.0
C259 C 0.68388 0.49874 0.13848 0.0
N260 N 0.68594 0.51519 0.16345 0.0
C261 C 0.70179 0.50742 0.2275 0.0
C262 C 0.69978 0.49033 0.20258 0.0
C263 C 0.69087 0.48604 0.15778 0.0
C264 C 0.69472 0.51962 0.20629 0.0
H265 H 0.67694 0.49535 0.10415 0.0
C266 C 0.65952 0.51844 0.04931 0.0
O267 O 0.70749 0.56975 0.98147 0.0
O268 O 0.71607 0.54847 0.01475 0.0
N269 N 0.69066 0.54853 0.2037 0.0
C270 C 0.69203 0.56595 0.2224 0.0
C271 C 0.70031 0.57229 0.26736 0.0
C272 C 0.70688 0.56053 0.29277 0.0
C273 C 0.70556 0.54279 0.27261 0.0
C274 C 0.69696 0.53712 0.22788 0.0
H275 H 0.68659 0.57481 0.20344 0.0
O276 O 0.72489 0.58009 0.08031 0.0
O277 O 0.70161 0.55009 0.10954 0.0
O278 O 0.68337 0.57296 0.07136 0.0
O279 O 0.66724 0.55389 0.13505 0.0
C280 C 0.71229 0.53043 0.29519 0.0
C281 C 0.71061 0.51288 0.27245 0.0
H282 H 0.70508 0.48045 0.21743 0.0
H283 H 0.68931 0.47291 0.13828 0.0
H284 H 0.70136 0.58603 0.28267 0.0
H285 H 0.71279 0.56523 0.32785 0.0
H286 H 0.71889 0.53431 0.32993 0.0
H287 H 0.7161 0.50367 0.28991 0.0
Mn288 Mn 0.14224 0.70187 0.21827 0.0
Mn289 Mn 0.14597 0.68424 0.32423 0.0
C290 C 0.15254 0.72369 0.28198 0.0
C291 C 0.15939 0.7174 0.14808 0.0
C292 C 0.10502 0.67482 0.28053 0.0
O293 O 0.14133 0.6747 0.20326 0.0
O294 O 0.14718 0.66617 0.27488 0.0
C295 C 0.18911 0.69284 0.31746 0.0
N296 N 0.17446 0.69536 0.33997 0.0
C297 C 0.1988 0.71659 0.39904 0.0
C298 C 0.21413 0.71413 0.37664 0.0
C299 C 0.20927 0.70224 0.33562 0.0
C300 C 0.17899 0.70686 0.3793 0.0
H301 H 0.18543 0.68375 0.28587 0.0
C302 C 0.14441 0.66303 0.23078 0.0
O303 O 0.13927 0.7072 0.15019 0.0
O304 O 0.16909 0.71775 0.18572 0.0
N305 N 0.14509 0.70024 0.37549 0.0
C306 C 0.1287 0.70163 0.39192 0.0
C307 C 0.13097 0.71301 0.43275 0.0
C308 C 0.14999 0.72269 0.45642 0.0
C309 C 0.16663 0.72102 0.43891 0.0
C310 C 0.16337 0.70927 0.39838 0.0
H311 H 0.11399 0.69408 0.37413 0.0
O312 O 0.14572 0.72819 0.24474 0.0
O313 O 0.1535 0.70683 0.28028 0.0
O314 O 0.11219 0.68582 0.24344 0.0
O315 O 0.11635 0.67272 0.31106 0.0
C316 C 0.18634 0.73065 0.45987 0.0
C317 C 0.20245 0.72854 0.43979 0.0
H318 H 0.22971 0.72139 0.39046 0.0
H319 H 0.22105 0.70035 0.31802 0.0
H320 H 0.11807 0.71425 0.44604 0.0
H321 H 0.15161 0.73135 0.48803 0.0
H322 H 0.18936 0.73991 0.49114 0.0
H323 H 0.21761 0.73626 0.45586 0.0
Mn324 Mn 0.44264 0.14072 0.3828 0.0
Mn325 Mn 0.46517 0.14557 0.48782 0.0
C326 C 0.43166 0.15151 0.44671 0.0
C327 C 0.44342 0.15695 0.31173 0.0
C328 C 0.4334 0.10414 0.44638 0.0
O329 O 0.46878 0.13971 0.36685 0.0
O330 O 0.48401 0.14668 0.43763 0.0
C331 C 0.49922 0.18885 0.47889 0.0
N332 N 0.48241 0.1742 0.50243 0.0
C333 C 0.48598 0.19873 0.56147 0.0
C334 C 0.5034 0.21407 0.53799 0.0
C335 C 0.51001 0.20912 0.49645 0.0
C336 C 0.47583 0.17883 0.54221 0.0
H337 H 0.50432 0.18509 0.44693 0.0
C338 C 0.48392 0.14334 0.3937 0.0
O339 O 0.43345 0.13688 0.31533 0.0
O340 O 0.45323 0.1672 0.34849 0.0
N341 N 0.44875 0.14479 0.53996 0.0
C342 C 0.43138 0.12832 0.55768 0.0
C343 C 0.42283 0.13061 0.59938 0.0
C344 C 0.4323 0.14973 0.62261 0.0
C345 C 0.45016 0.16647 0.60373 0.0
C346 C 0.45814 0.16318 0.56241 0.0
H347 H 0.42416 0.1135 0.54031 0.0
O348 O 0.42003 0.14442 0.40999 0.0
O349 O 0.44952 0.15258 0.44433 0.0
O350 O 0.42898 0.11095 0.40951 0.0
O351 O 0.44721 0.1158 0.47587 0.0
C352 C 0.46032 0.18629 0.62419 0.0
C353 C 0.47814 0.20244 0.6029 0.0
H354 H 0.51176 0.22973 0.55139 0.0
H355 H 0.5234 0.2209 0.47804 0.0
H356 H 0.40903 0.11763 0.61374 0.0
H357 H 0.42575 0.15135 0.65501 0.0
H358 H 0.45444 0.18934 0.65601 0.0
H359 H 0.48566 0.21768 0.61861 0.0
Mn360 Mn 0.30491 0.44201 0.54308 0.0
Mn361 Mn 0.32885 0.4675 0.64187 0.0
C362 C 0.28642 0.43502 0.6121 0.0
C363 C 0.28726 0.44154 0.47448 0.0
C364 C 0.33262 0.43168 0.60281 0.0
O365 O 0.33212 0.46613 0.51908 0.0
O366 O 0.34504 0.4832 0.58665 0.0
C367 C 0.32381 0.50411 0.63014 0.0
N368 N 0.32111 0.48768 0.65618 0.0
C369 C 0.30632 0.49718 0.71947 0.0
C370 C 0.30902 0.51427 0.69345 0.0
C371 C 0.31771 0.51769 0.6485 0.0
C372 C 0.31254 0.48411 0.6992 0.0
H373 H 0.33057 0.50682 0.59567 0.0
C374 C 0.34584 0.48149 0.54232 0.0
O375 O 0.29615 0.43042 0.47807 0.0
O376 O 0.28906 0.45304 0.50997 0.0
N377 N 0.31507 0.45429 0.6986 0.0
C378 C 0.31283 0.43667 0.71831 0.0
C379 C 0.30448 0.43105 0.76341 0.0
C380 C 0.29875 0.44369 0.78794 0.0
C381 C 0.30099 0.46163 0.76676 0.0
C382 C 0.30958 0.46655 0.72192 0.0
H383 H 0.31758 0.4271 0.69998 0.0
O384 O 0.27938 0.42203 0.57763 0.0
O385 O 0.30375 0.45201 0.60465 0.0
O386 O 0.32017 0.42717 0.5682 0.0
O387 O 0.33727 0.4468 0.63052 0.0
C388 C 0.29512 0.47488 0.78839 0.0
C389 C 0.2976 0.49253 0.76459 0.0
H390 H 0.30439 0.52481 0.70754 0.0
H391 H 0.31979 0.53081 0.62814 0.0
H392 H 0.30273 0.41714 0.7795 0.0
H393 H 0.29275 0.43949 0.82309 0.0
H394 H 0.28858 0.4716 0.82321 0.0
H395 H 0.29276 0.50242 0.78132 0.0
Mn396 Mn 0.86438 0.30262 0.71269 0.0
Mn397 Mn 0.86053 0.32227 0.81589 0.0
C398 C 0.85296 0.28162 0.77835 0.0
C399 C 0.84778 0.28647 0.64237 0.0
C400 C 0.90143 0.33008 0.7748 0.0
O401 O 0.86629 0.33001 0.69423 0.0
O402 O 0.85958 0.33928 0.76403 0.0
C403 C 0.81772 0.31448 0.80741 0.0
N404 N 0.83211 0.3119 0.831 0.0
C405 C 0.80842 0.29455 0.89417 0.0
C406 C 0.79334 0.29702 0.87061 0.0
C407 C 0.79796 0.30688 0.82685 0.0
C408 C 0.82763 0.30188 0.87242 0.0
H409 H 0.82137 0.3224 0.77419 0.0
C410 C 0.86286 0.34196 0.72002 0.0
O411 O 0.86784 0.29611 0.64589 0.0
O412 O 0.83775 0.28692 0.67873 0.0
N413 N 0.86122 0.30754 0.86993 0.0
C414 C 0.87785 0.30749 0.88945 0.0
C415 C 0.87577 0.29809 0.93316 0.0
C416 C 0.85682 0.28941 0.95704 0.0
C417 C 0.84017 0.29038 0.93715 0.0
C418 C 0.84307 0.29969 0.89318 0.0
H419 H 0.8926 0.31456 0.87185 0.0
O420 O 0.85966 0.2763 0.74218 0.0
O421 O 0.85268 0.29878 0.77439 0.0
O422 O 0.89425 0.31827 0.73893 0.0
O423 O 0.89012 0.33317 0.80349 0.0
C424 C 0.821 0.28297 0.95981 0.0
C425 C 0.80521 0.28524 0.93854 0.0
H426 H 0.77817 0.29144 0.88581 0.0
H427 H 0.7864 0.30886 0.80846 0.0
H428 H 0.8888 0.29772 0.94862 0.0
H429 H 0.85533 0.28233 0.99092 0.0
H430 H 0.81831 0.2757 0.99382 0.0
H431 H 0.79057 0.27956 0.9564 0.0
H432 H 0.14558 0.41543 0.16897 0.0
H433 H 0.16601 0.41248 0.23265 0.0
H434 H 0.2203 0.4671 0.18244 0.0
H435 H 0.20023 0.46973 0.11835 0.0
H436 H 0.22927 0.43772 0.20181 0.0
H437 H 0.18627 0.44519 0.35153 0.0
H438 H 0.17049 0.42424 0.31282 0.0
H439 H 0.18216 0.45047 0.2922 0.0
C440 C 0.16182 0.42692 0.17187 0.0
C441 C 0.17124 0.44285 0.13862 0.0
C442 C 0.17349 0.42527 0.20841 0.0
C443 C 0.19473 0.43971 0.21286 0.0
C444 C 0.204 0.45573 0.17991 0.0
H445 H 0.27352 0.46813 0.45361 0.0
H446 H 0.25132 0.46635 0.38922 0.0
C447 C 0.19245 0.45726 0.14328 0.0
C448 C 0.20759 0.43809 0.25086 0.0
H449 H 0.21273 0.43771 0.36954 0.0
C450 C 0.22562 0.43767 0.2385 0.0
C451 C 0.203 0.43822 0.29884 0.0
C452 C 0.18455 0.43975 0.31479 0.0
C453 C 0.23925 0.43768 0.27252 0.0
C454 C 0.23453 0.43756 0.32049 0.0
C455 C 0.21634 0.43767 0.33284 0.0
C456 C 0.24878 0.43868 0.35854 0.0
C457 C 0.25898 0.43866 0.2566 0.0
C458 C 0.25501 0.4238 0.36292 0.0
C459 C 0.26806 0.42496 0.39966 0.0
C460 C 0.27483 0.44083 0.43315 0.0
C461 C 0.26861 0.45569 0.42851 0.0
C462 C 0.25581 0.45464 0.3917 0.0
H463 H 0.26286 0.44414 0.21992 0.0
H464 H 0.27218 0.44909 0.27932 0.0
H465 H 0.25708 0.42296 0.25843 0.0
H466 H 0.24949 0.41106 0.3385 0.0
H467 H 0.27237 0.41315 0.40254 0.0
H468 H 0.80742 0.27226 0.6213 0.0
H469 H 0.78698 0.24893 0.55848 0.0
H470 H 0.84104 0.2485 0.50706 0.0
H471 H 0.86188 0.27249 0.56973 0.0
H472 H 0.81816 0.25026 0.43598 0.0
H473 H 0.76627 0.18783 0.55613 0.0
H474 H 0.76647 0.21145 0.56856 0.0
H475 H 0.78978 0.21019 0.57577 0.0
C476 C 0.81506 0.26734 0.59651 0.0
C477 C 0.83628 0.27414 0.60078 0.0
C478 C 0.80326 0.25379 0.56079 0.0
C479 C 0.81226 0.24636 0.52879 0.0
C480 C 0.83366 0.25379 0.53167 0.0
H481 H 0.73218 0.14153 0.34404 0.0
H482 H 0.75644 0.16284 0.40579 0.0
C483 C 0.84558 0.26757 0.56737 0.0
C484 C 0.7992 0.23105 0.49233 0.0
H485 H 0.75427 0.18507 0.47712 0.0
C486 C 0.80432 0.23591 0.44504 0.0
C487 C 0.78133 0.21202 0.50389 0.0
C488 C 0.77576 0.20494 0.55386 0.0
C489 C 0.79162 0.22281 0.40916 0.0
C490 C 0.77294 0.20455 0.42075 0.0
C491 C 0.76834 0.1992 0.46804 0.0
C492 C 0.75769 0.19126 0.38442 0.0
C493 C 0.79845 0.22869 0.35915 0.0
C494 C 0.74971 0.19989 0.35285 0.0
C495 C 0.736 0.18782 0.31762 0.0
C496 C 0.72959 0.16667 0.31344 0.0
C497 C 0.7368 0.15775 0.34632 0.0
C498 C 0.75073 0.16995 0.3815 0.0
H499 H 0.81553 0.23858 0.35664 0.0
H500 H 0.7935 0.21481 0.33692 0.0
H501 H 0.7915 0.23767 0.34503 0.0
H502 H 0.75419 0.21607 0.35522 0.0
H503 H 0.73059 0.19517 0.29325 0.0
H504 H 0.57882 0.72024 0.51169 0.0
H505 H 0.57975 0.74176 0.57799 0.0
H506 H 0.54218 0.76018 0.50011 0.0
H507 H 0.54077 0.73864 0.43505 0.0
H508 H 0.5944 0.78412 0.5832 0.0
H509 H 0.51057 0.74092 0.62139 0.0
H510 H 0.52279 0.73071 0.58404 0.0
H511 H 0.51576 0.74886 0.56144 0.0
C512 C 0.57057 0.72869 0.50906 0.0
C513 C 0.55955 0.72751 0.4682 0.0
C514 C 0.57119 0.74107 0.54682 0.0
C515 C 0.56074 0.75235 0.54438 0.0
C516 C 0.54995 0.75127 0.50343 0.0
H517 H 0.57895 0.85745 0.71832 0.0
H518 H 0.57967 0.83582 0.65424 0.0
C519 C 0.54924 0.73894 0.46605 0.0
C520 C 0.56119 0.76559 0.58389 0.0
H521 H 0.52973 0.77465 0.65466 0.0
C522 C 0.58028 0.78196 0.59917 0.0
C523 C 0.54279 0.76271 0.60503 0.0
C524 C 0.52185 0.74472 0.59248 0.0
C525 C 0.58143 0.79573 0.6343 0.0
C526 C 0.56294 0.79334 0.65402 0.0
C527 C 0.54391 0.77675 0.63919 0.0
C528 C 0.56284 0.80694 0.69215 0.0
C529 C 0.60242 0.81242 0.65058 0.0
C530 C 0.55264 0.79797 0.73419 0.0
C531 C 0.5519 0.81018 0.77021 0.0
C532 C 0.56141 0.83179 0.7654 0.0
C533 C 0.57153 0.84087 0.72318 0.0
C534 C 0.57212 0.82853 0.68673 0.0
H535 H 0.61473 0.80884 0.64118 0.0
H536 H 0.60617 0.82725 0.63355 0.0
H537 H 0.60264 0.81457 0.68901 0.0
H538 H 0.54531 0.78141 0.73936 0.0
H539 H 0.54401 0.80258 0.8022 0.0
H540 H 0.80512 0.53425 0.61989 0.0
H541 H 0.78475 0.53643 0.6839 0.0
H542 H 0.83872 0.59078 0.73617 0.0
H543 H 0.85948 0.58827 0.67254 0.0
H544 H 0.81711 0.56619 0.80655 0.0
H545 H 0.76259 0.57522 0.69218 0.0
H546 H 0.76302 0.55201 0.67859 0.0
H547 H 0.78597 0.5768 0.67016 0.0
C548 C 0.81273 0.54667 0.64505 0.0
C549 C 0.83393 0.56118 0.64085 0.0
C550 C 0.80097 0.54801 0.68147 0.0
C551 C 0.80996 0.56415 0.71423 0.0
C552 C 0.83132 0.57832 0.71108 0.0
H553 H 0.731 0.5873 0.90581 0.0
H554 H 0.75446 0.59018 0.84228 0.0
C555 C 0.8432 0.57684 0.67476 0.0
C556 C 0.79707 0.56585 0.75206 0.0
H557 H 0.75183 0.5658 0.77181 0.0
C558 C 0.80295 0.56631 0.79887 0.0
C559 C 0.77877 0.5665 0.74236 0.0
C560 C 0.77234 0.56784 0.69308 0.0
C561 C 0.79069 0.56652 0.83601 0.0
C562 C 0.77163 0.56565 0.8263 0.0
C563 C 0.7662 0.56609 0.7795 0.0
C564 C 0.75694 0.56373 0.86411 0.0
C565 C 0.79846 0.56791 0.8853 0.0
C566 C 0.74994 0.54758 0.89679 0.0
C567 C 0.73673 0.54603 0.93317 0.0
C568 C 0.72979 0.56035 0.93738 0.0
C569 C 0.73605 0.57602 0.90357 0.0
C570 C 0.74952 0.57771 0.86731 0.0
H571 H 0.8156 0.57545 0.88624 0.0
H572 H 0.79363 0.57671 0.90828 0.0
H573 H 0.79211 0.55208 0.89969 0.0
H574 H 0.75477 0.53615 0.89433 0.0
H575 H 0.73204 0.53361 0.95825 0.0
H576 H 0.26175 0.80315 0.77216 0.0
H577 H 0.23929 0.78243 0.83541 0.0
H578 H 0.26095 0.83715 0.92029 0.0
H579 H 0.28331 0.85836 0.85575 0.0
H580 H 0.24829 0.77552 0.91988 0.0
H581 H 0.19904 0.81145 0.93469 0.0
H582 H 0.21654 0.8167 0.88643 0.0
H583 H 0.22617 0.82935 0.94174 0.0
C584 C 0.26182 0.81092 0.80418 0.0
C585 C 0.27438 0.8325 0.80878 0.0
C586 C 0.24888 0.79896 0.84044 0.0
C587 C 0.24811 0.80816 0.88255 0.0
C588 C 0.26086 0.8297 0.88777 0.0
H589 H 0.20111 0.74001 0.13968 0.0
H590 H 0.22148 0.76148 0.07477 0.0
C591 C 0.27381 0.8418 0.85106 0.0
C592 C 0.23439 0.79478 0.92092 0.0
H593 H 0.1941 0.78638 0.99218 0.0
C594 C 0.23643 0.77793 0.93556 0.0
C595 C 0.2186 0.79759 0.94091 0.0
C596 C 0.21476 0.81462 0.9249 0.0
C597 C 0.22338 0.76401 0.96972 0.0
C598 C 0.20814 0.76727 0.99105 0.0
C599 C 0.20584 0.78393 0.97604 0.0
C600 C 0.19522 0.75411 0.03049 0.0
C601 C 0.22589 0.74573 0.98206 0.0
C602 C 0.17348 0.7431 0.02795 0.0
C603 C 0.16159 0.73075 0.0656 0.0
C604 C 0.1713 0.72934 0.10645 0.0
C605 C 0.19304 0.7405 0.10869 0.0
C606 C 0.2048 0.75279 0.07141 0.0
H607 H 0.23323 0.74178 0.95312 0.0
H608 H 0.23604 0.74961 0.01317 0.0
H609 H 0.21077 0.73188 0.99034 0.0
H610 H 0.16572 0.74398 0.99678 0.0
H611 H 0.14489 0.72251 0.0629 0.0
H612 H 0.41529 0.1427 0.23927 0.0
H613 H 0.41249 0.16332 0.17572 0.0
H614 H 0.46747 0.21728 0.22584 0.0
H615 H 0.46994 0.19704 0.28967 0.0
H616 H 0.43783 0.22628 0.2094 0.0
H617 H 0.44457 0.1845 0.05606 0.0
H618 H 0.42385 0.16852 0.09512 0.0
H619 H 0.45019 0.17995 0.11472 0.0
C620 C 0.42694 0.15888 0.23616 0.0
C621 C 0.44285 0.16821 0.26946 0.0
C622 C 0.42536 0.17067 0.19978 0.0
C623 C 0.43986 0.19191 0.19563 0.0
C624 C 0.45603 0.201 0.22823 0.0
H625 H 0.46882 0.27273 0.95973 0.0
H626 H 0.46687 0.25027 0.02361 0.0
C627 C 0.45748 0.18934 0.26467 0.0
C628 C 0.43806 0.20508 0.15869 0.0
H629 H 0.43762 0.2115 0.04051 0.0
C630 C 0.43773 0.223 0.17244 0.0
C631 C 0.43805 0.20094 0.11041 0.0
C632 C 0.43937 0.18255 0.09304 0.0
C633 C 0.43783 0.23706 0.1395 0.0
C634 C 0.43772 0.23287 0.09122 0.0
C635 C 0.43761 0.21471 0.07747 0.0
C636 C 0.43918 0.24767 0.05424 0.0
C637 C 0.43892 0.25666 0.15683 0.0
C638 C 0.42445 0.25413 0.0503 0.0
C639 C 0.42573 0.26737 0.01388 0.0
C640 C 0.44156 0.27408 0.98033 0.0
C641 C 0.4564 0.26785 0.98491 0.0
C642 C 0.45526 0.25489 0.02138 0.0
H643 H 0.44422 0.26002 0.19373 0.0
H644 H 0.44956 0.27011 0.13497 0.0
H645 H 0.4233 0.25495 0.15499 0.0
H646 H 0.41165 0.2485 0.07458 0.0
H647 H 0.41391 0.27167 0.01094 0.0
H648 H 0.13971 0.5172 0.99242 0.0
H649 H 0.13952 0.54593 0.03178 0.0
H650 H 0.14202 0.52072 0.16554 0.0
H651 H 0.14231 0.4916 0.12625 0.0
H652 H 0.11037 0.54416 0.1002 0.0
H653 H 0.19128 0.58173 0.16636 0.0
H654 H 0.18212 0.56273 0.1201 0.0
H655 H 0.17479 0.55474 0.1795 0.0
C656 C 0.14025 0.51763 0.03025 0.0
C657 C 0.14113 0.50204 0.05614 0.0
C658 C 0.14008 0.53411 0.05266 0.0
C659 C 0.14094 0.53554 0.10145 0.0
C660 C 0.14159 0.51998 0.12773 0.0
H661 H 0.14962 0.63423 0.27863 0.0
H662 H 0.14809 0.60302 0.24827 0.0
C663 C 0.14166 0.50332 0.10525 0.0
C664 C 0.14112 0.55346 0.12413 0.0
H665 H 0.1722 0.59826 0.18304 0.0
C666 C 0.12383 0.55596 0.11857 0.0
C667 C 0.15872 0.56878 0.14796 0.0
C668 C 0.17789 0.56707 0.15374 0.0
C669 C 0.12366 0.57342 0.13614 0.0
C670 C 0.14147 0.58904 0.15892 0.0
C671 C 0.15862 0.58633 0.16529 0.0
C672 C 0.14258 0.60823 0.17671 0.0
C673 C 0.10433 0.57487 0.13062 0.0
C674 C 0.14035 0.62178 0.14637 0.0
C675 C 0.14113 0.63971 0.16362 0.0
C676 C 0.14433 0.6445 0.21155 0.0
C677 C 0.14703 0.63107 0.24155 0.0
C678 C 0.14619 0.61318 0.22429 0.0
H679 H 0.0905 0.55944 0.12438 0.0
H680 H 0.10151 0.58183 0.16206 0.0
H681 H 0.10614 0.5848 0.1001 0.0
H682 H 0.13803 0.61851 0.10929 0.0
H683 H 0.13913 0.64973 0.13943 0.0
H684 H 0.62487 0.1346 0.16044 0.0
H685 H 0.59581 0.13516 0.19715 0.0
H686 H 0.62233 0.13883 0.33306 0.0
H687 H 0.65188 0.13838 0.29645 0.0
H688 H 0.56762 0.10714 0.26619 0.0
H689 H 0.61174 0.18881 0.3272 0.0
H690 H 0.62157 0.17873 0.28294 0.0
H691 H 0.62178 0.17221 0.3432 0.0
C692 C 0.62467 0.13554 0.1982 0.0
C693 C 0.64086 0.13657 0.22548 0.0
C694 C 0.60794 0.1358 0.21908 0.0
C695 C 0.60703 0.13724 0.26768 0.0
C696 C 0.62292 0.13796 0.29536 0.0
H697 H 0.51831 0.14919 0.44069 0.0
H698 H 0.54766 0.14719 0.4102 0.0
C699 C 0.63972 0.1376 0.27442 0.0
C700 C 0.58934 0.13805 0.28873 0.0
H701 H 0.57611 0.17029 0.34398 0.0
C702 C 0.56944 0.1209 0.28341 0.0
C703 C 0.59182 0.15606 0.31096 0.0
C704 C 0.61283 0.17511 0.31629 0.0
C705 C 0.5519 0.12121 0.29997 0.0
C706 C 0.55433 0.13937 0.32143 0.0
C707 C 0.57428 0.15644 0.32726 0.0
C708 C 0.53642 0.14084 0.33907 0.0
C709 C 0.531 0.10198 0.29503 0.0
C710 C 0.52044 0.1383 0.30898 0.0
C711 C 0.50344 0.13933 0.32634 0.0
C712 C 0.50223 0.14312 0.37409 0.0
C713 C 0.51858 0.14617 0.40375 0.0
C714 C 0.53545 0.14505 0.38642 0.0
H715 H 0.53238 0.08799 0.28959 0.0
H716 H 0.52129 0.09956 0.32641 0.0
H717 H 0.52292 0.10367 0.26425 0.0
H718 H 0.52111 0.13552 0.27205 0.0
H719 H 0.49124 0.13705 0.30242 0.0
H720 H 0.35117 0.48972 0.44773 0.0
H721 H 0.38066 0.51911 0.40921 0.0
H722 H 0.41016 0.54114 0.54294 0.0
H723 H 0.38116 0.51216 0.5815 0.0
H724 H 0.39597 0.56276 0.42957 0.0
H725 H 0.45531 0.54011 0.46059 0.0
H726 H 0.4279 0.52188 0.46355 0.0
H727 H 0.44081 0.53904 0.51165 0.0
C728 C 0.36404 0.50073 0.46883 0.0
C729 C 0.36376 0.49853 0.51771 0.0
C730 C 0.38082 0.5175 0.4468 0.0
C731 C 0.39768 0.53211 0.47325 0.0
C732 C 0.39747 0.52986 0.52184 0.0
H733 H 0.51233 0.64714 0.43468 0.0
H734 H 0.48217 0.61592 0.46482 0.0
C735 C 0.38075 0.51329 0.54382 0.0
C736 C 0.4152 0.55034 0.45092 0.0
H737 H 0.46762 0.57499 0.43736 0.0
C738 C 0.41162 0.56536 0.43067 0.0
C739 C 0.43558 0.55372 0.45292 0.0
C740 C 0.44019 0.53777 0.47298 0.0
C741 C 0.42801 0.58403 0.41364 0.0
C742 C 0.44845 0.58754 0.41616 0.0
C743 C 0.45196 0.57234 0.43575 0.0
C744 C 0.4664 0.60677 0.39819 0.0
C745 C 0.42337 0.60012 0.39455 0.0
C746 C 0.46758 0.6119 0.35075 0.0
C747 C 0.48471 0.62971 0.33347 0.0
C748 C 0.50118 0.64274 0.36318 0.0
C749 C 0.49995 0.63754 0.41081 0.0
C750 C 0.48274 0.61968 0.42808 0.0
H751 H 0.40809 0.59748 0.40657 0.0
H752 H 0.43544 0.61592 0.40516 0.0
H753 H 0.42307 0.59937 0.35581 0.0
H754 H 0.45537 0.60195 0.32687 0.0
H755 H 0.48508 0.63309 0.29656 0.0
H756 H 0.86631 0.48939 0.48479 0.0
H757 H 0.8667 0.46002 0.5202 0.0
H758 H 0.86222 0.4815 0.65715 0.0
H759 H 0.86175 0.51129 0.62187 0.0
H760 H 0.89541 0.46065 0.58908 0.0
H761 H 0.8135 0.42011 0.64895 0.0
H762 H 0.82306 0.44023 0.6052 0.0
H763 H 0.82925 0.4468 0.66565 0.0
C764 C 0.86536 0.48799 0.5225 0.0
C765 C 0.86387 0.50273 0.55048 0.0
C766 C 0.86566 0.47116 0.54263 0.0
C767 C 0.86431 0.46851 0.59114 0.0
C768 C 0.86305 0.48321 0.6195 0.0
H769 H 0.85635 0.37043 0.76499 0.0
H770 H 0.85729 0.40096 0.7328 0.0
C771 C 0.86287 0.50024 0.59933 0.0
C772 C 0.8642 0.45022 0.61141 0.0
H773 H 0.83317 0.40419 0.66577 0.0
C774 C 0.88185 0.4483 0.60601 0.0
C775 C 0.84643 0.43416 0.63316 0.0
C776 C 0.82688 0.43522 0.63845 0.0
C777 C 0.88229 0.43079 0.62232 0.0
C778 C 0.86441 0.41458 0.64359 0.0
C779 C 0.84681 0.41658 0.64919 0.0
C780 C 0.86389 0.39577 0.66213 0.0
C781 C 0.90201 0.43001 0.61753 0.0
C782 C 0.86705 0.38246 0.63291 0.0
C783 C 0.86663 0.36485 0.65129 0.0
C784 C 0.86288 0.3602 0.69918 0.0
C785 C 0.85937 0.37346 0.72797 0.0
C786 C 0.85986 0.39098 0.70965 0.0
H787 H 0.91559 0.44561 0.6114 0.0
H788 H 0.90492 0.4233 0.64929 0.0
H789 H 0.90061 0.4201 0.58728 0.0
H790 H 0.86975 0.38564 0.59587 0.0
H791 H 0.86927 0.35495 0.62807 0.0
H792 H 0.3536 0.86211 0.78234 0.0
H793 H 0.38401 0.86208 0.81463 0.0
H794 H 0.40244 0.85539 0.67597 0.0
H795 H 0.37234 0.85542 0.64331 0.0
H796 H 0.39586 0.83042 0.80281 0.0
H797 H 0.4541 0.9069 0.7312 0.0
H798 H 0.42705 0.89903 0.73645 0.0
H799 H 0.43571 0.88919 0.68967 0.0
C800 C 0.36411 0.86063 0.75868 0.0
C801 C 0.36051 0.85889 0.71015 0.0
C802 C 0.38146 0.86062 0.77721 0.0
C803 C 0.39559 0.85905 0.74756 0.0
C804 C 0.3919 0.85698 0.69934 0.0
H805 H 0.51216 0.8608 0.78927 0.0
H806 H 0.48131 0.85954 0.75589 0.0
C807 C 0.37458 0.85691 0.68081 0.0
C808 C 0.41412 0.8593 0.76685 0.0
H809 H 0.46691 0.8869 0.76669 0.0
C810 C 0.41141 0.8428 0.79516 0.0
C811 C 0.43435 0.87539 0.75636 0.0
C812 C 0.43809 0.89374 0.72706 0.0
C813 C 0.42843 0.84181 0.81282 0.0
C814 C 0.44869 0.85801 0.80275 0.0
C815 C 0.45138 0.87448 0.77426 0.0
C816 C 0.46728 0.85852 0.82275 0.0
C817 C 0.42454 0.82318 0.84127 0.0
C818 C 0.46976 0.85868 0.87132 0.0
C819 C 0.48725 0.8593 0.89045 0.0
C820 C 0.50284 0.86004 0.86144 0.0
C821 C 0.50047 0.8602 0.81267 0.0
C822 C 0.48286 0.85948 0.79353 0.0
H823 H 0.40903 0.80967 0.83393 0.0
H824 H 0.43642 0.81874 0.83418 0.0
H825 H 0.42515 0.82691 0.87898 0.0
H826 H 0.45823 0.85851 0.89455 0.0
H827 H 0.48855 0.85935 0.92815 0.0
H828 H 0.51495 0.37008 0.80836 0.0
H829 H 0.54527 0.40035 0.83981 0.0
H830 H 0.52122 0.38239 0.97942 0.0
H831 H 0.4906 0.3518 0.94834 0.0
H832 H 0.54633 0.43283 0.89603 0.0
H833 H 0.58081 0.39102 0.98504 0.0
H834 H 0.56117 0.37914 0.94049 0.0
H835 H 0.55419 0.38225 0.99873 0.0
C836 C 0.51602 0.37242 0.84584 0.0
C837 C 0.50027 0.35837 0.87583 0.0
C838 C 0.5334 0.38982 0.86368 0.0
C839 C 0.53556 0.3935 0.91188 0.0
C840 C 0.51993 0.37965 0.94208 0.0
H841 H 0.62693 0.4856 0.09153 0.0
H842 H 0.59752 0.45626 0.0553 0.0
C843 C 0.50241 0.36222 0.92424 0.0
C844 C 0.55416 0.41199 0.93023 0.0
H845 H 0.59715 0.42712 0.99729 0.0
C846 C 0.55751 0.43165 0.91806 0.0
C847 C 0.56871 0.41031 0.95868 0.0
C848 C 0.56623 0.38958 0.97131 0.0
C849 C 0.57479 0.44973 0.93476 0.0
C850 C 0.5893 0.44806 0.96352 0.0
C851 C 0.58604 0.42837 0.97514 0.0
C852 C 0.60731 0.46643 0.98438 0.0
C853 C 0.57699 0.47042 0.92274 0.0
C854 C 0.62275 0.48199 0.95649 0.0
C855 C 0.63975 0.49905 0.97721 0.0
C856 C 0.64164 0.5007 0.02617 0.0
C857 C 0.62612 0.48495 0.05373 0.0
C858 C 0.60922 0.46807 0.03309 0.0
H859 H 0.56226 0.46884 0.9097 0.0
H860 H 0.58215 0.48082 0.95363 0.0
H861 H 0.5888 0.47786 0.8949 0.0
H862 H 0.62179 0.48082 0.91875 0.0
H863 H 0.65144 0.5108 0.95494 0.0
H864 H 0.27587 0.4624 0.64466 0.0
H865 H 0.25101 0.45698 0.70649 0.0
H866 H 0.23917 0.39471 0.72597 0.0
H867 H 0.26495 0.40054 0.66535 0.0
H868 H 0.20787 0.42288 0.69954 0.0
H869 H 0.24311 0.41209 0.85882 0.0
H870 H 0.25946 0.43675 0.83264 0.0
H871 H 0.25406 0.4135 0.80199 0.0
C872 C 0.26854 0.44787 0.66345 0.0
C873 C 0.2729 0.4322 0.65199 0.0
C874 C 0.25421 0.44469 0.6983 0.0
C875 C 0.2436 0.42559 0.7214 0.0
C876 C 0.24762 0.40972 0.70935 0.0
H877 H 0.13922 0.40353 0.90607 0.0
H878 H 0.15822 0.39683 0.84465 0.0
C879 C 0.26222 0.41302 0.67479 0.0
C880 C 0.22701 0.42201 0.75471 0.0
H881 H 0.21692 0.42186 0.87091 0.0
C882 C 0.20954 0.42209 0.73704 0.0
C883 C 0.22917 0.4208 0.8035 0.0
C884 C 0.24743 0.42059 0.82509 0.0
C885 C 0.19477 0.42228 0.76694 0.0
C886 C 0.19789 0.42291 0.81572 0.0
C887 C 0.21467 0.42153 0.83338 0.0
C888 C 0.18543 0.4272 0.84911 0.0
C889 C 0.1771 0.42369 0.74564 0.0
C890 C 0.19459 0.44635 0.87214 0.0
C891 C 0.18393 0.45005 0.90732 0.0
C892 C 0.16378 0.43484 0.91928 0.0
C893 C 0.15457 0.41566 0.89634 0.0
C894 C 0.16534 0.41186 0.86134 0.0
H895 H 0.17326 0.41664 0.71024 0.0
H896 H 0.16299 0.41605 0.76753 0.0
H897 H 0.18189 0.44024 0.74188 0.0
H898 H 0.21024 0.45824 0.86371 0.0
H899 H 0.19164 0.46459 0.92608 0.0
H900 H 0.73508 0.13509 0.07052 0.0
H901 H 0.75812 0.15511 0.00614 0.0
H902 H 0.75858 0.20987 0.05689 0.0
H903 H 0.73396 0.18932 0.1178 0.0
H904 H 0.75468 0.20957 0.97273 0.0
H905 H 0.81756 0.19217 0.99905 0.0
H906 H 0.79357 0.16893 0.98845 0.0
H907 H 0.79665 0.18407 0.04014 0.0
C908 C 0.74013 0.1514 0.06739 0.0
C909 C 0.73252 0.1607 0.09787 0.0
C910 C 0.75356 0.16293 0.03121 0.0
C911 C 0.76054 0.18419 0.02697 0.0
C912 C 0.75343 0.19352 0.05903 0.0
H913 H 0.86429 0.26852 0.85606 0.0
H914 H 0.84104 0.24417 0.9148 0.0
C915 C 0.73938 0.18183 0.09381 0.0
C916 C 0.77407 0.1966 0.98762 0.0
H917 H 0.81791 0.20833 0.92702 0.0
C918 C 0.76848 0.20924 0.96279 0.0
C919 C 0.79242 0.19664 0.97509 0.0
C920 C 0.80051 0.18489 0.00245 0.0
C921 C 0.7805 0.22195 0.92618 0.0
C922 C 0.79867 0.22168 0.91263 0.0
C923 C 0.80412 0.20874 0.93709 0.0
C924 C 0.81292 0.23557 0.87565 0.0
C925 C 0.77333 0.23561 0.90381 0.0
C926 C 0.80529 0.23848 0.83312 0.0
C927 C 0.81841 0.25398 0.80232 0.0
C928 C 0.83963 0.26564 0.81163 0.0
C929 C 0.84777 0.26074 0.85033 0.0
C930 C 0.83446 0.24639 0.88312 0.0
H931 H 0.76473 0.23982 0.9291 0.0
H932 H 0.78625 0.25006 0.88974 0.0
H933 H 0.76253 0.22701 0.87485 0.0
H934 H 0.78907 0.2293 0.82433 0.0
H935 H 0.81203 0.25677 0.77096 0.0
H936 H 0.60718 0.74192 0.24031 0.0
H937 H 0.61536 0.7693 0.18222 0.0
H938 H 0.55668 0.76535 0.20997 0.0
H939 H 0.54867 0.73828 0.26791 0.0
H940 H 0.59233 0.76561 0.10193 0.0
H941 H 0.59775 0.82759 0.21701 0.0
H942 H 0.59921 0.80567 0.23906 0.0
H943 H 0.57451 0.80342 0.22695 0.0
C944 C 0.59615 0.74703 0.23379 0.0
C945 C 0.57708 0.73775 0.25707 0.0
C946 C 0.60083 0.76264 0.20098 0.0
C947 C 0.58673 0.76949 0.1924 0.0
C948 C 0.56792 0.76055 0.21677 0.0
H949 H 0.54925 0.81341 0.96704 0.0
H950 H 0.55684 0.79491 0.02735 0.0
C951 C 0.56322 0.74491 0.2492 0.0
C952 C 0.59075 0.78492 0.15569 0.0
H953 H 0.5905 0.82977 0.13568 0.0
C954 C 0.59218 0.77974 0.1093 0.0
C955 C 0.59109 0.80363 0.16555 0.0
C956 C 0.59078 0.81053 0.21493 0.0
C957 C 0.59212 0.79192 0.07216 0.0
C958 C 0.59077 0.80974 0.08195 0.0
C959 C 0.59114 0.81587 0.12839 0.0
C960 C 0.58681 0.82096 0.04476 0.0
C961 C 0.59279 0.78523 0.02276 0.0
C962 C 0.60105 0.84178 0.03529 0.0
C963 C 0.59666 0.85237 1.00097 0.0
C964 C 0.57773 0.84237 0.97713 0.0
C965 C 0.56369 0.82149 0.98614 0.0
C966 C 0.56812 0.8109 0.02 0.0
H967 H 0.59984 0.7752 0.0212 0.0
H968 H 0.57677 0.77622 0.00909 0.0
H969 H 0.60165 0.79881 0.99961 0.0
H970 H 0.6155 0.84977 0.0543 0.0
H971 H 0.60782 0.86839 0.9936 0.0
H972 H 0.81445 0.54311 0.42739 0.0
H973 H 0.79625 0.55039 0.36578 0.0
H974 H 0.84826 0.61214 0.35165 0.0
H975 H 0.86694 0.60447 0.41215 0.0
H976 H 0.78903 0.58612 0.37508 0.0
H977 H 0.83564 0.59676 0.21769 0.0
H978 H 0.82604 0.57129 0.24036 0.0
H979 H 0.8441 0.5934 0.27424 0.0
C980 C 0.82226 0.55795 0.40986 0.0
C981 C 0.84235 0.57294 0.42279 0.0
C982 C 0.81181 0.56218 0.37514 0.0
C983 C 0.8211 0.58167 0.35362 0.0
C984 C 0.84107 0.59687 0.36711 0.0
H985 H 0.73866 0.60307 0.16654 0.0
H986 H 0.76496 0.61116 0.22739 0.0
C987 C 0.85165 0.59251 0.40158 0.0
C988 C 0.80884 0.58626 0.32025 0.0
H989 H 0.79924 0.58643 0.20391 0.0
C990 C 0.79155 0.58679 0.33761 0.0
C991 C 0.81234 0.58746 0.27153 0.0
C992 C 0.83071 0.58738 0.25022 0.0
C993 C 0.77682 0.58691 0.30746 0.0
C994 C 0.77924 0.58589 0.25874 0.0
C995 C 0.79731 0.58697 0.24138 0.0
C996 C 0.76232 0.58097 0.22532 0.0
C997 C 0.75808 0.58624 0.32871 0.0
C998 C 0.7525 0.5615 0.20367 0.0
C999 C 0.73784 0.55703 0.16876 0.0
C1000 C 0.73239 0.57176 0.15575 0.0
C1001 C 0.74227 0.5913 0.17714 0.0
C1002 C 0.75717 0.59589 0.21182 0.0
H1003 H 0.76217 0.59527 0.36174 0.0
H1004 H 0.75067 0.59231 0.30492 0.0
H1005 H 0.74679 0.56998 0.3376 0.0
H1006 H 0.75656 0.54992 0.21304 0.0
H1007 H 0.73111 0.54223 0.15112 0.0
H1008 H 0.13738 0.7437 0.33375 0.0
H1009 H 0.15639 0.77103 0.3921 0.0
H1010 H 0.21124 0.76718 0.36532 0.0
H1011 H 0.19238 0.74016 0.30714 0.0
H1012 H 0.1755 0.76731 0.47277 0.0
H1013 H 0.23235 0.82941 0.35851 0.0
H1014 H 0.20903 0.80752 0.33613 0.0
H1015 H 0.23148 0.80528 0.34834 0.0
C1016 C 0.15351 0.74883 0.34054 0.0
C1017 C 0.16339 0.73959 0.31748 0.0
C1018 C 0.16432 0.7644 0.3735 0.0
C1019 C 0.18525 0.77127 0.38241 0.0
C1020 C 0.19521 0.76237 0.35825 0.0
H1021 H 0.26621 0.81336 0.60755 0.0
H1022 H 0.23968 0.79538 0.54782 0.0
C1023 C 0.18439 0.74676 0.32569 0.0
C1024 C 0.19655 0.78665 0.41927 0.0
H1025 H 0.24179 0.83124 0.43984 0.0
C1026 C 0.18986 0.7814 0.46559 0.0
C1027 C 0.21498 0.80534 0.40966 0.0
C1028 C 0.22227 0.81234 0.36037 0.0
C1029 C 0.20211 0.79341 0.50289 0.0
C1030 C 0.2214 0.81113 0.49333 0.0
C1031 C 0.22719 0.8174 0.44698 0.0
C1032 C 0.2367 0.82201 0.53054 0.0
C1033 C 0.19466 0.78662 0.55219 0.0
C1034 C 0.24399 0.84299 0.53988 0.0
C1035 C 0.25923 0.85327 0.57383 0.0
C1036 C 0.26774 0.84281 0.59743 0.0
C1037 C 0.26019 0.82179 0.58862 0.0
C1038 C 0.24489 0.81149 0.55512 0.0
H1039 H 0.17754 0.777 0.55366 0.0
H1040 H 0.20121 0.77713 0.56541 0.0
H1041 H 0.19974 0.80013 0.57576 0.0
H1042 H 0.23788 0.85133 0.52098 0.0
H1043 H 0.26465 0.86943 0.58105 0.0
H1044 H 0.39524 0.2601 0.74981 0.0
H1045 H 0.38723 0.23341 0.68997 0.0
H1046 H 0.44544 0.2364 0.71818 0.0
H1047 H 0.45329 0.26281 0.77783 0.0
H1048 H 0.41066 0.23777 0.60989 0.0
H1049 H 0.40371 0.17419 0.72141 0.0
H1050 H 0.40234 0.19598 0.74464 0.0
H1051 H 0.42701 0.19809 0.73305 0.0
C1052 C 0.4062 0.25492 0.74304 0.0
C1053 C 0.4251 0.26375 0.76696 0.0
C1054 C 0.40162 0.23971 0.7092 0.0
C1055 C 0.41564 0.2328 0.70021 0.0
C1056 C 0.43426 0.24127 0.72524 0.0
H1057 H 0.45438 0.1914 0.47237 0.0
H1058 H 0.44598 0.2095 0.53212 0.0
C1059 C 0.43887 0.25652 0.75868 0.0
C1060 C 0.41172 0.21777 0.66258 0.0
H1061 H 0.41152 0.17291 0.64016 0.0
C1062 C 0.4107 0.22353 0.61647 0.0
C1063 C 0.41106 0.19884 0.67139 0.0
C1064 C 0.41086 0.19129 0.72038 0.0
C1065 C 0.41099 0.21177 0.57866 0.0
C1066 C 0.41213 0.19375 0.58747 0.0
C1067 C 0.41119 0.187 0.63357 0.0
C1068 C 0.41641 0.18291 0.54987 0.0
C1069 C 0.4107 0.21907 0.52966 0.0
C1070 C 0.40271 0.16191 0.54074 0.0
C1071 C 0.40761 0.15155 0.50686 0.0
C1072 C 0.42652 0.16196 0.48303 0.0
C1073 C 0.43997 0.18302 0.49146 0.0
C1074 C 0.43504 0.1934 0.52495 0.0
H1075 H 0.40324 0.22873 0.52856 0.0
H1076 H 0.42684 0.22869 0.51714 0.0
H1077 H 0.40242 0.20583 0.50534 0.0
H1078 H 0.38832 0.15358 0.55987 0.0
H1079 H 0.39689 0.13537 0.49994 0.0
H1080 H 0.08037 0.44685 0.92314 0.0
H1081 H 0.04614 0.42466 0.89039 0.0
H1082 H 0.04437 0.37141 0.95373 0.0
H1083 H 0.07893 0.39378 0.98727 0.0
H1084 H 0.03633 0.39213 0.82726 0.0
H1085 H 0.98766 0.36508 0.98766 0.0
H1086 H 0.01341 0.38729 0.98792 0.0
H1087 H 0.00987 0.3617 0.98566 0.0
C1088 C 0.07262 0.43046 0.93086 0.0
C1089 C 0.08242 0.42209 0.95789 0.0
C1090 C 0.05306 0.41777 0.91186 0.0
C1091 C 0.0427 0.39637 0.91935 0.0
C1092 C 0.052 0.38793 0.94782 0.0
H1093 H 0.9297 0.31798 0.75092 0.0
H1094 H 0.96472 0.33169 0.78327 0.0
C1095 C 0.0717 0.40073 0.96716 0.0
C1096 C 0.02256 0.3832 0.89557 0.0
H1097 H 0.97061 0.35431 0.91542 0.0
C1098 C 0.02195 0.38359 0.84647 0.0
C1099 C 0.00385 0.37213 0.92071 0.0
C1100 C 0.00354 0.37153 0.97341 0.0
C1101 C 0.00311 0.37394 0.82194 0.0
C1102 C 0.98437 0.36344 0.84717 0.0
C1103 C 0.98502 0.36232 0.89614 0.0
C1104 C 0.96393 0.35566 0.82425 0.0
C1105 C 0.00329 0.37597 0.76947 0.0
C1106 C 0.95206 0.36477 0.83585 0.0
C1107 C 0.93227 0.35708 0.81749 0.0
C1108 C 0.92371 0.33996 0.78707 0.0
C1109 C 0.93591 0.3313 0.77384 0.0
C1110 C 0.95587 0.33906 0.79247 0.0
H1111 H 0.01894 0.38698 0.75582 0.0
H1112 H 0.99806 0.36063 0.75328 0.0
H1113 H 0.99244 0.38125 0.7584 0.0
H1114 H 0.95801 0.3777 0.85993 0.0
H1115 H 0.92341 0.36425 0.82829 0.0
H1116 H 0.55883 0.92574 0.96458 0.0
H1117 H 0.57945 0.95983 0.99996 0.0
H1118 H 0.63531 0.95931 0.96427 0.0
H1119 H 0.61456 0.92524 0.92739 0.0
H1120 H 0.60362 0.96678 0.07543 0.0
H1121 H 0.65106 0.01806 0.93022 0.0
H1122 H 0.62875 0.99292 0.92004 0.0
H1123 H 0.65282 0.99513 0.9381 0.0
C1124 C 0.57554 0.93321 0.9629 0.0
C1125 C 0.58511 0.92295 0.9428 0.0
C1126 C 0.58732 0.95262 0.98348 0.0
C1127 C 0.60897 0.96221 0.98495 0.0
C1128 C 0.61867 0.95245 0.96293 0.0
H1129 H 0.68924 0.0751 0.15105 0.0
H1130 H 0.67593 0.04046 0.11644 0.0
C1131 C 0.60682 0.93302 0.94166 0.0
C1132 C 0.62087 0.98148 0.01294 0.0
H1133 H 0.6572 0.03283 0.0057 0.0
C1134 C 0.61546 0.98116 0.06017 0.0
C1135 C 0.63643 1.00027 0.99324 0.0
C1136 C 0.64255 0.00178 0.94254 0.0
C1137 C 0.62464 0.99917 0.08762 0.0
C1138 C 0.6397 0.01798 0.06758 0.0
C1139 C 0.64575 0.01826 0.02101 0.0
C1140 C 0.64727 0.0379 0.0925 0.0
C1141 C 0.61773 0.99822 0.13752 0.0
C1142 C 0.63533 0.04756 0.09139 0.0
C1143 C 0.64284 0.06716 0.11087 0.0
C1144 C 0.66241 0.07749 0.13228 0.0
C1145 C 0.67399 0.06738 0.13544 0.0
C1146 C 0.66651 0.04773 0.1153 0.0
H1147 H 0.60794 0.98206 0.1499 0.0
H1148 H 0.63137 0.00631 0.16087 0.0
H1149 H 0.60869 0.0063 0.14034 0.0
H1150 H 0.62044 0.04019 0.07405 0.0
H1151 H 0.63359 0.07457 0.10779 0.0
H1152 H 0.68563 0.60963 0.08576 0.0
H1153 H 0.6729 0.63172 0.11857 0.0
H1154 H 0.62313 0.57862 0.18653 0.0
H1155 H 0.63564 0.5567 0.15447 0.0
H1156 H 0.63416 0.63023 0.11428 0.0
H1157 H 0.65219 0.61867 0.29542 0.0
H1158 H 0.66245 0.61227 0.245 0.0
H1159 H 0.63669 0.59466 0.26535 0.0
C1160 C 0.67175 0.60265 0.10695 0.0
C1161 C 0.66176 0.58144 0.11782 0.0
C1162 C 0.66461 0.6153 0.12599 0.0
C1163 C 0.64744 0.6069 0.15619 0.0
C1164 C 0.63677 0.58556 0.16454 0.0
H1165 H 0.55886 0.63912 0.23875 0.0
H1166 H 0.58022 0.62582 0.20749 0.0
C1167 C 0.64387 0.57301 0.14579 0.0
C1168 C 0.64042 0.62012 0.17954 0.0
H1169 H 0.62787 0.63075 0.28697 0.0
C1170 C 0.6331 0.63064 0.15203 0.0
C1171 C 0.63941 0.62103 0.22889 0.0
C1172 C 0.64831 0.61123 0.26041 0.0
C1173 C 0.62356 0.64087 0.17247 0.0
C1174 C 0.62097 0.64026 0.22164 0.0
C1175 C 0.62955 0.63094 0.24929 0.0
C1176 C 0.60793 0.64767 0.24426 0.0
C1177 C 0.61594 0.6519 0.14109 0.0
C1178 C 0.61607 0.66364 0.27767 0.0
C1179 C 0.60371 0.67123 0.29625 0.0
C1180 C 0.58306 0.66288 0.28169 0.0
C1181 C 0.57477 0.64611 0.25032 0.0
C1182 C 0.58702 0.63857 0.23205 0.0
H1183 H 0.62465 0.65659 0.10763 0.0
H1184 H 0.59941 0.6413 0.13269 0.0
H1185 H 0.61735 0.66586 0.15839 0.0
H1186 H 0.63213 0.67069 0.28809 0.0
H1187 H 0.61058 0.6842 0.32015 0.0
H1188 H 0.08278 0.64027 0.33248 0.0
H1189 H 0.04809 0.62679 0.3638 0.0
H1190 H 0.04196 0.6735 0.2887 0.0
H1191 H 0.07699 0.68712 0.25655 0.0
H1192 H 0.03567 0.64926 0.4204 0.0
H1193 H 0.98744 0.61973 0.25981 0.0
H1194 H 0.01396 0.62548 0.26153 0.0
H1195 H 0.00824 0.64611 0.25877 0.0
C1196 C 0.07398 0.64753 0.32189 0.0
C1197 C 0.08267 0.66479 0.29195 0.0
C1198 C 0.05415 0.63984 0.34007 0.0
C1199 C 0.04243 0.64916 0.32886 0.0
C1200 C 0.05065 0.66593 0.29752 0.0
H1201 H 0.9274 0.61184 0.49142 0.0
H1202 H 0.96231 0.63396 0.45918 0.0
C1203 C 0.07062 0.67364 0.27898 0.0
C1204 C 0.022 0.64148 0.35182 0.0
H1205 H 0.97001 0.61455 0.33123 0.0
C1206 C 0.02129 0.64191 0.40091 0.0
C1207 C 0.00328 0.63187 0.32634 0.0
C1208 C 0.00309 0.63057 0.27371 0.0
C1209 C 0.00239 0.63227 0.42525 0.0
C1210 C 0.9837 0.6221 0.3998 0.0
C1211 C 0.98438 0.62241 0.35067 0.0
C1212 C 0.96341 0.60904 0.42306 0.0
C1213 C 0.00258 0.63206 0.47796 0.0
C1214 C 0.95266 0.58774 0.41425 0.0
C1215 C 0.93293 0.5752 0.43254 0.0
C1216 C 0.92335 0.58362 0.46013 0.0
C1217 C 0.93446 0.60485 0.4708 0.0
C1218 C 0.95434 0.6175 0.4522 0.0
H1219 H 0.01839 0.63804 0.49226 0.0
H1220 H 0.99645 0.64189 0.49139 0.0
H1221 H 0.99246 0.61612 0.49125 0.0
H1222 H 0.9594 0.58083 0.39225 0.0
H1223 H 0.92489 0.5589 0.42376 0.0
H1224 H 0.44636 0.08272 0.49945 0.0
H1225 H 0.42577 0.04809 0.53153 0.0
H1226 H 0.37237 0.04045 0.45627 0.0
H1227 H 0.39315 0.0754 0.42331 0.0
H1228 H 0.39114 0.03503 0.58824 0.0
H1229 H 0.37265 0.98653 0.42825 0.0
H1230 H 0.39291 0.01328 0.42945 0.0
H1231 H 0.36632 0.00681 0.42693 0.0
C1232 C 0.43031 0.07361 0.48901 0.0
C1233 C 0.4214 0.08186 0.45875 0.0
C1234 C 0.41852 0.05381 0.50762 0.0
C1235 C 0.39751 0.04166 0.49653 0.0
C1236 C 0.38862 0.04946 0.46498 0.0
H1237 H 0.31962 0.92782 0.66148 0.0
H1238 H 0.33351 0.96285 0.62922 0.0
C1239 C 0.40052 0.0694 0.44601 0.0
C1240 C 0.38511 0.02123 0.51979 0.0
H1241 H 0.36004 0.96919 0.49972 0.0
C1242 C 0.38412 0.02061 0.5689 0.0
C1243 C 0.37604 0.00245 0.49452 0.0
C1244 C 0.37708 0.00214 0.44189 0.0
C1245 C 0.37497 0.00177 0.59344 0.0
C1246 C 0.36631 0.983 0.56819 0.0
C1247 C 0.36665 0.98361 0.51905 0.0
C1248 C 0.3586 0.96266 0.59166 0.0
C1249 C 0.37551 0.00211 0.64615 0.0
C1250 C 0.36823 0.95108 0.582 0.0
C1251 C 0.36037 0.93123 0.60024 0.0
C1252 C 0.34262 0.92238 0.62869 0.0
C1253 C 0.33348 0.93431 0.64027 0.0
C1254 C 0.34135 0.95429 0.62166 0.0
H1255 H 0.38605 0.01785 0.6601 0.0
H1256 H 0.35974 0.99689 0.65974 0.0
H1257 H 0.38056 0.9914 0.65968 0.0
H1258 H 0.38163 0.95724 0.5593 0.0
H1259 H 0.36783 0.9225 0.5907 0.0
H1260 H 0.36899 0.44342 0.64657 0.0
H1261 H 0.38099 0.42139 0.68047 0.0
H1262 H 0.32794 0.3675 0.62363 0.0
H1263 H 0.31578 0.3897 0.58894 0.0
H1264 H 0.35854 0.39026 0.74721 0.0
H1265 H 0.37723 0.35926 0.58903 0.0
H1266 H 0.37435 0.38186 0.5868 0.0
H1267 H 0.35196 0.35662 0.59193 0.0
C1268 C 0.36 0.4269 0.64047 0.0
C1269 C 0.34141 0.41832 0.61499 0.0
C1270 C 0.36685 0.41431 0.66013 0.0
C1271 C 0.35535 0.39279 0.65488 0.0
C1272 C 0.33718 0.3841 0.62782 0.0
H1273 H 0.39096 0.31671 0.82929 0.0
H1274 H 0.36944 0.33005 0.79622 0.0
C1275 C 0.33029 0.3968 0.6078 0.0
C1276 C 0.3623 0.37982 0.6797 0.0
H1277 H 0.38451 0.35 0.66207 0.0
C1278 C 0.36394 0.38118 0.7287 0.0
C1279 C 0.36936 0.36804 0.65546 0.0
C1280 C 0.36831 0.36635 0.60289 0.0
C1281 C 0.37324 0.37181 0.7539 0.0
C1282 C 0.38096 0.36064 0.7295 0.0
C1283 C 0.37851 0.35854 0.68071 0.0
C1284 C 0.39379 0.35316 0.75285 0.0
C1285 C 0.37579 0.37487 0.80609 0.0
C1286 C 0.41462 0.36195 0.74018 0.0
C1287 C 0.42684 0.35448 0.75897 0.0
C1288 C 0.41856 0.33792 0.79092 0.0
C1289 C 0.39787 0.32962 0.8052 0.0
C1290 C 0.38554 0.33715 0.78615 0.0
H1291 H 0.37138 0.38618 0.81888 0.0
H1292 H 0.36589 0.35988 0.82387 0.0
H1293 H 0.39207 0.38032 0.81627 0.0
H1294 H 0.42137 0.37442 0.71492 0.0
H1295 H 0.44273 0.36136 0.74731 0.0
loop_
_geom_bond_atom_site_label_1
_geom_bond_atom_site_label_2
_geom_bond_distance
_geom_bond_site_symmetry_2
_ccdc_geom_bond_type
Mn0 O5 2.095 . S
Mn0 O15 2.162 . S
Mn0 O16 2.297 . S
Mn0 O24 2.385 1_554 S
Mn0 O25 2.209 1_554 S
Mn0 O26 2.094 . S
Mn1 O6 2.121 1_556 S
Mn1 N8 2.257 . S
Mn1 N17 2.282 . S
Mn1 O25 2.215 . S
Mn1 O27 2.117 . S
C2 O24 1.234 . S
C2 O25 1.283 . S
C3 O15 1.281 . S
C3 O16 1.236 . S
C4 O26 1.240 1_556 S
C4 O27 1.264 . S
O5 Mn0 2.095 . S
O5 C14 1.250 . S
O6 Mn1 2.121 1_554 S
O6 C14 1.258 . S
C7 N8 1.326 . S
C7 C11 1.460 . S
C7 H13 0.929 . S
N8 Mn1 2.257 . S
N8 C7 1.326 . S
N8 C12 1.362 . S
C9 C10 1.258 . S
C9 C12 1.431 . S
C9 C29 1.449 . S
C10 C9 1.258 . S
C10 C11 1.477 . S
C10 H30 0.931 . S
C11 C7 1.460 . S
C11 C10 1.477 . S
C11 H31 0.930 . S
C12 N8 1.362 . S
C12 C9 1.431 . S
C12 C22 1.476 . S
H13 C7 0.929 . S
C14 O5 1.250 . S
C14 O6 1.258 . S
O15 Mn0 2.162 . S
O15 C3 1.281 . S
O16 Mn0 2.297 . S
O16 C3 1.236 . S
N17 Mn1 2.282 . S
N17 C18 1.328 . S
N17 C22 1.318 . S
C18 N17 1.328 . S
C18 C19 1.457 . S
C18 H23 0.929 . S
C19 C18 1.457 . S
C19 C20 1.291 . S
C19 H32 0.931 . S
C20 C19 1.291 . S
C20 C21 1.373 . S
C20 H33 0.929 . S
C21 C20 1.373 . S
C21 C22 1.396 . S
C21 C28 1.403 . S
C22 C12 1.476 . S
C22 N17 1.318 . S
C22 C21 1.396 . S
H23 C18 0.929 . S
O24 Mn0 2.385 1_556 S
O24 C2 1.234 . S
O25 Mn0 2.209 1_556 S
O25 Mn1 2.215 . S
O25 C2 1.283 . S
O26 Mn0 2.094 . S
O26 C4 1.240 1_554 S
O27 Mn1 2.117 . S
O27 C4 1.264 . S
C28 C21 1.403 . S
C28 C29 1.399 . S
C28 H34 0.929 . S
C29 C9 1.449 . S
C29 C28 1.399 . S
C29 H35 0.930 . S
H30 C10 0.931 . S
H31 C11 0.930 . S
H32 C19 0.931 . S
H33 C20 0.929 . S
H34 C28 0.929 . S
H35 C29 0.930 . S
Mn36 O41 2.095 . S
Mn36 O51 2.162 . S
Mn36 O52 2.297 . S
Mn36 O60 2.385 . S
Mn36 O61 2.209 . S
Mn36 O62 2.094 . S
Mn37 O42 2.121 . S
Mn37 N44 2.257 . S
Mn37 N53 2.282 . S
Mn37 O61 2.215 . S
Mn37 O63 2.117 . S
C38 O60 1.234 . S
C38 O61 1.283 . S
C39 O51 1.281 . S
C39 O52 1.236 . S
C40 O62 1.240 . S
C40 O63 1.264 . S
O41 Mn36 2.095 . S
O41 C50 1.250 . S
O42 Mn37 2.121 . S
O42 C50 1.258 . S
C43 N44 1.326 . S
C43 C47 1.460 . S
C43 H49 0.929 . S
N44 Mn37 2.257 . S
N44 C43 1.326 . S
N44 C48 1.362 . S
C45 C46 1.258 1_556 S
C45 C48 1.431 1_556 S
C45 C65 1.449 . S
C46 C45 1.258 1_554 S
C46 C47 1.477 . S
C46 H66 0.931 1_554 S
C47 C43 1.460 . S
C47 C46 1.477 . S
C47 H67 0.930 . S
C48 N44 1.362 . S
C48 C45 1.431 1_554 S
C48 C58 1.476 . S
H49 C43 0.929 . S
C50 O41 1.250 . S
C50 O42 1.258 . S
O51 Mn36 2.162 . S
O51 C39 1.281 . S
O52 Mn36 2.297 . S
O52 C39 1.236 . S
N53 Mn37 2.282 . S
N53 C54 1.328 . S
N53 C58 1.318 . S
C54 N53 1.328 . S
C54 C55 1.457 1_554 S
C54 H59 0.929 . S
C55 C54 1.457 1_556 S
C55 C56 1.291 . S
C55 H68 0.931 . S
C56 C55 1.291 . S
C56 C57 1.373 . S
C56 H69 0.929 . S
C57 C56 1.373 . S
C57 C58 1.396 1_556 S
C57 C64 1.403 . S
C58 C48 1.476 . S
C58 N53 1.318 . S
C58 C57 1.396 1_554 S
H59 C54 0.929 . S
O60 Mn36 2.385 . S
O60 C38 1.234 . S
O61 Mn36 2.209 . S
O61 Mn37 2.215 . S
O61 C38 1.283 . S
O62 Mn36 2.094 . S
O62 C40 1.240 . S
O63 Mn37 2.117 . S
O63 C40 1.264 . S
C64 C57 1.403 . S
C64 C65 1.399 . S
C64 H70 0.929 . S
C65 C45 1.449 . S
C65 C64 1.399 . S
C65 H71 0.930 . S
H66 C46 0.931 1_556 S
H67 C47 0.930 . S
H68 C55 0.931 . S
H69 C56 0.929 . S
H70 C64 0.929 . S
H71 C65 0.930 . S
Mn72 O77 2.095 . S
Mn72 O87 2.162 . S
Mn72 O88 2.297 . S
Mn72 O96 2.385 . S
Mn72 O97 2.209 . S
Mn72 O98 2.094 . S
Mn73 O78 2.121 . S
Mn73 N80 2.257 . S
Mn73 N89 2.282 . S
Mn73 O97 2.215 . S
Mn73 O99 2.117 . S
C74 O96 1.234 . S
C74 O97 1.283 . S
C75 O87 1.281 . S
C75 O88 1.236 . S
C76 O98 1.240 . S
C76 O99 1.264 . S
O77 Mn72 2.095 . S
O77 C86 1.250 . S
O78 Mn73 2.121 . S
O78 C86 1.258 . S
C79 N80 1.326 . S
C79 C83 1.460 . S
C79 H85 0.929 . S
N80 Mn73 2.257 . S
N80 C79 1.326 . S
N80 C84 1.362 . S
C81 C82 1.258 . S
C81 C84 1.431 . S
C81 C101 1.449 . S
C82 C81 1.258 . S
C82 C83 1.477 . S
C82 H102 0.931 . S
C83 C79 1.460 . S
C83 C82 1.477 . S
C83 H103 0.930 . S
C84 N80 1.362 . S
C84 C81 1.431 . S
C84 C94 1.476 . S
H85 C79 0.929 . S
C86 O77 1.250 . S
C86 O78 1.258 . S
O87 Mn72 2.162 . S
O87 C75 1.281 . S
O88 Mn72 2.297 . S
O88 C75 1.236 . S
N89 Mn73 2.282 . S
N89 C90 1.328 . S
N89 C94 1.318 . S
C90 N89 1.328 . S
C90 C91 1.457 . S
C90 H95 0.929 . S
C91 C90 1.457 . S
C91 C92 1.291 . S
C91 H104 0.931 . S
C92 C91 1.291 . S
C92 C93 1.373 . S
C92 H105 0.929 . S
C93 C92 1.373 . S
C93 C94 1.396 . S
C93 C100 1.403 . S
C94 C84 1.476 . S
C94 N89 1.318 . S
C94 C93 1.396 . S
H95 C90 0.929 . S
O96 Mn72 2.385 . S
O96 C74 1.234 . S
O97 Mn72 2.209 . S
O97 Mn73 2.215 . S
O97 C74 1.283 . S
O98 Mn72 2.094 . S
O98 C76 1.240 . S
O99 Mn73 2.117 . S
O99 C76 1.264 . S
C100 C93 1.403 . S
C100 C101 1.399 . S
C100 H106 0.929 . S
C101 C81 1.449 . S
C101 C100 1.399 . S
C101 H107 0.930 . S
H102 C82 0.931 . S
H103 C83 0.930 . S
H104 C91 0.931 . S
H105 C92 0.929 . S
H106 C100 0.929 . S
H107 C101 0.930 . S
Mn108 O113 2.095 . S
Mn108 O123 2.162 . S
Mn108 O124 2.297 . S
Mn108 O132 2.385 . S
Mn108 O133 2.209 . S
Mn108 O134 2.094 . S
Mn109 O114 2.121 . S
Mn109 N116 2.257 . S
Mn109 N125 2.282 . S
Mn109 O133 2.215 . S
Mn109 O135 2.117 . S
C110 O132 1.234 . S
C110 O133 1.283 . S
C111 O123 1.281 . S
C111 O124 1.236 . S
C112 O134 1.240 . S
C112 O135 1.264 . S
O113 Mn108 2.095 . S
O113 C122 1.250 . S
O114 Mn109 2.121 . S
O114 C122 1.258 . S
C115 N116 1.326 . S
C115 C119 1.460 . S
C115 H121 0.929 . S
N116 Mn109 2.257 . S
N116 C115 1.326 . S
N116 C120 1.362 . S
C117 C118 1.258 . S
C117 C120 1.431 . S
C117 C137 1.449 . S
C118 C117 1.258 . S
C118 C119 1.477 . S
C118 H138 0.931 . S
C119 C115 1.460 . S
C119 C118 1.477 . S
C119 H139 0.930 . S
C120 N116 1.362 . S
C120 C117 1.431 . S
C120 C130 1.476 . S
H121 C115 0.929 . S
C122 O113 1.250 . S
C122 O114 1.258 . S
O123 Mn108 2.162 . S
O123 C111 1.281 . S
O124 Mn108 2.297 . S
O124 C111 1.236 . S
N125 Mn109 2.282 . S
N125 C126 1.328 . S
N125 C130 1.318 . S
C126 N125 1.328 . S
C126 C127 1.457 . S
C126 H131 0.929 . S
C127 C126 1.457 . S
C127 C128 1.291 . S
C127 H140 0.931 . S
C128 C127 1.291 . S
C128 C129 1.373 . S
C128 H141 0.929 . S
C129 C128 1.373 . S
C129 C130 1.396 . S
C129 C136 1.403 . S
C130 C120 1.476 . S
C130 N125 1.318 . S
C130 C129 1.396 . S
H131 C126 0.929 . S
O132 Mn108 2.385 . S
O132 C110 1.234 . S
O133 Mn108 2.209 . S
O133 Mn109 2.215 . S
O133 C110 1.283 . S
O134 Mn108 2.094 . S
O134 C112 1.240 . S
O135 Mn109 2.117 . S
O135 C112 1.264 . S
C136 C129 1.403 . S
C136 C137 1.399 . S
C136 H142 0.929 . S
C137 C117 1.449 . S
C137 C136 1.399 . S
C137 H143 0.930 . S
H138 C118 0.931 . S
H139 C119 0.930 . S
H140 C127 0.931 . S
H141 C128 0.929 . S
H142 C136 0.929 . S
H143 C137 0.930 . S
Mn144 O149 2.095 . S
Mn144 O159 2.162 . S
Mn144 O160 2.297 . S
Mn144 O168 2.385 . S
Mn144 O169 2.209 . S
Mn144 O170 2.094 . S
Mn145 O150 2.121 . S
Mn145 N152 2.257 . S
Mn145 N161 2.282 . S
Mn145 O169 2.215 . S
Mn145 O171 2.117 . S
C146 O168 1.234 . S
C146 O169 1.283 . S
C147 O159 1.281 . S
C147 O160 1.236 . S
C148 O170 1.240 . S
C148 O171 1.264 . S
O149 Mn144 2.095 . S
O149 C158 1.250 . S
O150 Mn145 2.121 . S
O150 C158 1.258 . S
C151 N152 1.326 . S
C151 C155 1.460 . S
C151 H157 0.929 . S
N152 Mn145 2.257 . S
N152 C151 1.326 . S
N152 C156 1.362 . S
C153 C154 1.258 . S
C153 C156 1.431 . S
C153 C173 1.449 . S
C154 C153 1.258 . S
C154 C155 1.477 . S
C154 H174 0.931 . S
C155 C151 1.460 . S
C155 C154 1.477 . S
C155 H175 0.930 . S
C156 N152 1.362 . S
C156 C153 1.431 . S
C156 C166 1.476 . S
H157 C151 0.929 . S
C158 O149 1.250 . S
C158 O150 1.258 . S
O159 Mn144 2.162 . S
O159 C147 1.281 . S
O160 Mn144 2.297 . S
O160 C147 1.236 . S
N161 Mn145 2.282 . S
N161 C162 1.328 . S
N161 C166 1.318 . S
C162 N161 1.328 . S
C162 C163 1.457 . S
C162 H167 0.929 . S
C163 C162 1.457 . S
C163 C164 1.291 . S
C163 H176 0.931 . S
C164 C163 1.291 . S
C164 C165 1.373 . S
C164 H177 0.929 . S
C165 C164 1.373 . S
C165 C166 1.396 . S
C165 C172 1.403 . S
C166 C156 1.476 . S
C166 N161 1.318 . S
C166 C165 1.396 . S
H167 C162 0.929 . S
O168 Mn144 2.385 . S
O168 C146 1.234 . S
O169 Mn144 2.209 . S
O169 Mn145 2.215 . S
O169 C146 1.283 . S
O170 Mn144 2.094 . S
O170 C148 1.240 . S
O171 Mn145 2.117 . S
O171 C148 1.264 . S
C172 C165 1.403 . S
C172 C173 1.399 . S
C172 H178 0.929 . S
C173 C153 1.449 . S
C173 C172 1.399 . S
C173 H179 0.930 . S
H174 C154 0.931 . S
H175 C155 0.930 . S
H176 C163 0.931 . S
H177 C164 0.929 . S
H178 C172 0.929 . S
H179 C173 0.930 . S
Mn180 O185 2.095 . S
Mn180 O195 2.162 . S
Mn180 O196 2.297 . S
Mn180 O204 2.385 . S
Mn180 O205 2.209 . S
Mn180 O206 2.094 . S
Mn181 O186 2.121 . S
Mn181 N188 2.257 . S
Mn181 N197 2.282 . S
Mn181 O205 2.215 . S
Mn181 O207 2.117 . S
C182 O204 1.234 . S
C182 O205 1.283 . S
C183 O195 1.281 . S
C183 O196 1.236 . S
C184 O206 1.240 . S
C184 O207 1.264 . S
O185 Mn180 2.095 . S
O185 C194 1.250 . S
O186 Mn181 2.121 . S
O186 C194 1.258 . S
C187 N188 1.326 . S
C187 C191 1.460 . S
C187 H193 0.929 . S
N188 Mn181 2.257 . S
N188 C187 1.326 . S
N188 C192 1.362 . S
C189 C190 1.258 . S
C189 C192 1.431 . S
C189 C209 1.449 . S
C190 C189 1.258 . S
C190 C191 1.477 . S
C190 H210 0.931 . S
C191 C187 1.460 . S
C191 C190 1.477 . S
C191 H211 0.930 . S
C192 N188 1.362 . S
C192 C189 1.431 . S
C192 C202 1.476 . S
H193 C187 0.929 . S
C194 O185 1.250 . S
C194 O186 1.258 . S
O195 Mn180 2.162 . S
O195 C183 1.281 . S
O196 Mn180 2.297 . S
O196 C183 1.236 . S
N197 Mn181 2.282 . S
N197 C198 1.328 . S
N197 C202 1.318 . S
C198 N197 1.328 . S
C198 C199 1.457 . S
C198 H203 0.929 . S
C199 C198 1.457 . S
C199 C200 1.291 . S
C199 H212 0.931 . S
C200 C199 1.291 . S
C200 C201 1.373 . S
C200 H213 0.929 . S
C201 C200 1.373 . S
C201 C202 1.396 . S
C201 C208 1.403 . S
C202 C192 1.476 . S
C202 N197 1.318 . S
C202 C201 1.396 . S
H203 C198 0.929 . S
O204 Mn180 2.385 . S
O204 C182 1.234 . S
O205 Mn180 2.209 . S
O205 Mn181 2.215 . S
O205 C182 1.283 . S
O206 Mn180 2.094 . S
O206 C184 1.240 . S
O207 Mn181 2.117 . S
O207 C184 1.264 . S
C208 C201 1.403 . S
C208 C209 1.399 . S
C208 H214 0.929 . S
C209 C189 1.449 . S
C209 C208 1.399 . S
C209 H215 0.930 . S
H210 C190 0.931 . S
H211 C191 0.930 . S
H212 C199 0.931 . S
H213 C200 0.929 . S
H214 C208 0.929 . S
H215 C209 0.930 . S
Mn216 O221 2.095 . S
Mn216 O231 2.162 . S
Mn216 O232 2.297 . S
Mn216 O240 2.385 . S
Mn216 O241 2.209 . S
Mn216 O242 2.094 . S
Mn217 O222 2.121 . S
Mn217 N224 2.257 1_556 S
Mn217 N233 2.282 1_556 S
Mn217 O241 2.215 . S
Mn217 O243 2.117 . S
C218 O240 1.234 . S
C218 O241 1.283 . S
C219 O231 1.281 . S
C219 O232 1.236 . S
C220 O242 1.240 . S
C220 O243 1.264 . S
O221 Mn216 2.095 . S
O221 C230 1.250 . S
O222 Mn217 2.121 . S
O222 C230 1.258 . S
C223 N224 1.326 1_556 S
C223 C227 1.460 1_556 S
C223 H229 0.929 . S
N224 Mn217 2.257 1_554 S
N224 C223 1.326 1_554 S
N224 C228 1.362 . S
C225 C226 1.258 . S
C225 C228 1.431 . S
C225 C245 1.449 . S
C226 C225 1.258 . S
C226 C227 1.477 . S
C226 H246 0.931 . S
C227 C223 1.460 1_554 S
C227 C226 1.477 . S
C227 H247 0.930 . S
C228 N224 1.362 . S
C228 C225 1.431 . S
C228 C238 1.476 . S
H229 C223 0.929 . S
C230 O221 1.250 . S
C230 O222 1.258 . S
O231 Mn216 2.162 . S
O231 C219 1.281 . S
O232 Mn216 2.297 . S
O232 C219 1.236 . S
N233 Mn217 2.282 1_554 S
N233 C234 1.328 . S
N233 C238 1.318 . S
C234 N233 1.328 . S
C234 C235 1.457 . S
C234 H239 0.929 . S
C235 C234 1.457 . S
C235 C236 1.291 . S
C235 H248 0.931 . S
C236 C235 1.291 . S
C236 C237 1.373 . S
C236 H249 0.929 . S
C237 C236 1.373 . S
C237 C238 1.396 . S
C237 C244 1.403 . S
C238 C228 1.476 . S
C238 N233 1.318 . S
C238 C237 1.396 . S
H239 C234 0.929 . S
O240 Mn216 2.385 . S
O240 C218 1.234 . S
O241 Mn216 2.209 . S
O241 Mn217 2.215 . S
O241 C218 1.283 . S
O242 Mn216 2.094 . S
O242 C220 1.240 . S
O243 Mn217 2.117 . S
O243 C220 1.264 . S
C244 C237 1.403 . S
C244 C245 1.399 . S
C244 H250 0.929 . S
C245 C225 1.449 . S
C245 C244 1.399 . S
C245 H251 0.930 . S
H246 C226 0.931 . S
H247 C227 0.930 . S
H248 C235 0.931 . S
H249 C236 0.929 . S
H250 C244 0.929 . S
H251 C245 0.930 . S
Mn252 O257 2.095 . S
Mn252 O267 2.162 1_554 S
Mn252 O268 2.297 1_554 S
Mn252 O276 2.385 . S
Mn252 O277 2.209 . S
Mn252 O278 2.094 . S
Mn253 O258 2.121 . S
Mn253 N260 2.257 . S
Mn253 N269 2.282 . S
Mn253 O277 2.215 . S
Mn253 O279 2.117 . S
C254 O276 1.234 . S
C254 O277 1.283 . S
C255 O267 1.281 . S
C255 O268 1.236 . S
C256 O278 1.240 . S
C256 O279 1.264 . S
O257 Mn252 2.095 . S
O257 C266 1.250 . S
O258 Mn253 2.121 . S
O258 C266 1.258 . S
C259 N260 1.326 . S
C259 C263 1.460 . S
C259 H265 0.929 . S
N260 Mn253 2.257 . S
N260 C259 1.326 . S
N260 C264 1.362 . S
C261 C262 1.258 . S
C261 C264 1.431 . S
C261 C281 1.449 . S
C262 C261 1.258 . S
C262 C263 1.477 . S
C262 H282 0.931 . S
C263 C259 1.460 . S
C263 C262 1.477 . S
C263 H283 0.930 . S
C264 N260 1.362 . S
C264 C261 1.431 . S
C264 C274 1.476 . S
H265 C259 0.929 . S
C266 O257 1.250 . S
C266 O258 1.258 . S
O267 Mn252 2.162 1_556 S
O267 C255 1.281 . S
O268 Mn252 2.297 1_556 S
O268 C255 1.236 . S
N269 Mn253 2.282 . S
N269 C270 1.328 . S
N269 C274 1.318 . S
C270 N269 1.328 . S
C270 C271 1.457 . S
C270 H275 0.929 . S
C271 C270 1.457 . S
C271 C272 1.291 . S
C271 H284 0.931 . S
C272 C271 1.291 . S
C272 C273 1.373 . S
C272 H285 0.929 . S
C273 C272 1.373 . S
C273 C274 1.396 . S
C273 C280 1.403 . S
C274 C264 1.476 . S
C274 N269 1.318 . S
C274 C273 1.396 . S
H275 C270 0.929 . S
O276 Mn252 2.385 . S
O276 C254 1.234 . S
O277 Mn252 2.209 . S
O277 Mn253 2.215 . S
O277 C254 1.283 . S
O278 Mn252 2.094 . S
O278 C256 1.240 . S
O279 Mn253 2.117 . S
O279 C256 1.264 . S
C280 C273 1.403 . S
C280 C281 1.399 . S
C280 H286 0.929 . S
C281 C261 1.449 . S
C281 C280 1.399 . S
C281 H287 0.930 . S
H282 C262 0.931 . S
H283 C263 0.930 . S
H284 C271 0.931 . S
H285 C272 0.929 . S
H286 C280 0.929 . S
H287 C281 0.930 . S
Mn288 O293 2.095 . S
Mn288 O303 2.162 . S
Mn288 O304 2.297 . S
Mn288 O312 2.385 . S
Mn288 O313 2.209 . S
Mn288 O314 2.094 . S
Mn289 O294 2.121 . S
Mn289 N296 2.257 . S
Mn289 N305 2.282 . S
Mn289 O313 2.215 . S
Mn289 O315 2.117 . S
C290 O312 1.234 . S
C290 O313 1.283 . S
C291 O303 1.281 . S
C291 O304 1.236 . S
C292 O314 1.240 . S
C292 O315 1.264 . S
O293 Mn288 2.095 . S
O293 C302 1.250 . S
O294 Mn289 2.121 . S
O294 C302 1.258 . S
C295 N296 1.326 . S
C295 C299 1.460 . S
C295 H301 0.929 . S
N296 Mn289 2.257 . S
N296 C295 1.326 . S
N296 C300 1.362 . S
C297 C298 1.258 . S
C297 C300 1.431 . S
C297 C317 1.449 . S
C298 C297 1.258 . S
C298 C299 1.477 . S
C298 H318 0.931 . S
C299 C295 1.460 . S
C299 C298 1.477 . S
C299 H319 0.930 . S
C300 N296 1.362 . S
C300 C297 1.431 . S
C300 C310 1.476 . S
H301 C295 0.929 . S
C302 O293 1.250 . S
C302 O294 1.258 . S
O303 Mn288 2.162 . S
O303 C291 1.281 . S
O304 Mn288 2.297 . S
O304 C291 1.236 . S
N305 Mn289 2.282 . S
N305 C306 1.328 . S
N305 C310 1.318 . S
C306 N305 1.328 . S
C306 C307 1.457 . S
C306 H311 0.929 . S
C307 C306 1.457 . S
C307 C308 1.291 . S
C307 H320 0.931 . S
C308 C307 1.291 . S
C308 C309 1.373 . S
C308 H321 0.929 . S
C309 C308 1.373 . S
C309 C310 1.396 . S
C309 C316 1.403 . S
C310 C300 1.476 . S
C310 N305 1.318 . S
C310 C309 1.396 . S
H311 C306 0.929 . S
O312 Mn288 2.385 . S
O312 C290 1.234 . S
O313 Mn288 2.209 . S
O313 Mn289 2.215 . S
O313 C290 1.283 . S
O314 Mn288 2.094 . S
O314 C292 1.240 . S
O315 Mn289 2.117 . S
O315 C292 1.264 . S
C316 C309 1.403 . S
C316 C317 1.399 . S
C316 H322 0.929 . S
C317 C297 1.449 . S
C317 C316 1.399 . S
C317 H323 0.930 . S
H318 C298 0.931 . S
H319 C299 0.930 . S
H320 C307 0.931 . S
H321 C308 0.929 . S
H322 C316 0.929 . S
H323 C317 0.930 . S
Mn324 O329 2.095 . S
Mn324 O339 2.162 . S
Mn324 O340 2.297 . S
Mn324 O348 2.385 . S
Mn324 O349 2.209 . S
Mn324 O350 2.094 . S
Mn325 O330 2.121 . S
Mn325 N332 2.257 . S
Mn325 N341 2.282 . S
Mn325 O349 2.215 . S
Mn325 O351 2.117 . S
C326 O348 1.234 . S
C326 O349 1.283 . S
C327 O339 1.281 . S
C327 O340 1.236 . S
C328 O350 1.240 . S
C328 O351 1.264 . S
O329 Mn324 2.095 . S
O329 C338 1.250 . S
O330 Mn325 2.121 . S
O330 C338 1.258 . S
C331 N332 1.326 . S
C331 C335 1.460 . S
C331 H337 0.929 . S
N332 Mn325 2.257 . S
N332 C331 1.326 . S
N332 C336 1.362 . S
C333 C334 1.258 . S
C333 C336 1.431 . S
C333 C353 1.449 . S
C334 C333 1.258 . S
C334 C335 1.477 . S
C334 H354 0.931 . S
C335 C331 1.460 . S
C335 C334 1.477 . S
C335 H355 0.930 . S
C336 N332 1.362 . S
C336 C333 1.431 . S
C336 C346 1.476 . S
H337 C331 0.929 . S
C338 O329 1.250 . S
C338 O330 1.258 . S
O339 Mn324 2.162 . S
O339 C327 1.281 . S
O340 Mn324 2.297 . S
O340 C327 1.236 . S
N341 Mn325 2.282 . S
N341 C342 1.328 . S
N341 C346 1.318 . S
C342 N341 1.328 . S
C342 C343 1.457 . S
C342 H347 0.929 . S
C343 C342 1.457 . S
C343 C344 1.291 . S
C343 H356 0.931 . S
C344 C343 1.291 . S
C344 C345 1.373 . S
C344 H357 0.929 . S
C345 C344 1.373 . S
C345 C346 1.396 . S
C345 C352 1.403 . S
C346 C336 1.476 . S
C346 N341 1.318 . S
C346 C345 1.396 . S
H347 C342 0.929 . S
O348 Mn324 2.385 . S
O348 C326 1.234 . S
O349 Mn324 2.209 . S
O349 Mn325 2.215 . S
O349 C326 1.283 . S
O350 Mn324 2.094 . S
O350 C328 1.240 . S
O351 Mn325 2.117 . S
O351 C328 1.264 . S
C352 C345 1.403 . S
C352 C353 1.399 . S
C352 H358 0.929 . S
C353 C333 1.449 . S
C353 C352 1.399 . S
C353 H359 0.930 . S
H354 C334 0.931 . S
H355 C335 0.930 . S
H356 C343 0.931 . S
H357 C344 0.929 . S
H358 C352 0.929 . S
H359 C353 0.930 . S
Mn360 O365 2.095 . S
Mn360 O375 2.162 . S
Mn360 O376 2.297 . S
Mn360 O384 2.385 . S
Mn360 O385 2.209 . S
Mn360 O386 2.094 . S
Mn361 O366 2.121 . S
Mn361 N368 2.257 . S
Mn361 N377 2.282 . S
Mn361 O385 2.215 . S
Mn361 O387 2.117 . S
C362 O384 1.234 . S
C362 O385 1.283 . S
C363 O375 1.281 . S
C363 O376 1.236 . S
C364 O386 1.240 . S
C364 O387 1.264 . S
O365 Mn360 2.095 . S
O365 C374 1.250 . S
O366 Mn361 2.121 . S
O366 C374 1.258 . S
C367 N368 1.326 . S
C367 C371 1.460 . S
C367 H373 0.929 . S
N368 Mn361 2.257 . S
N368 C367 1.326 . S
N368 C372 1.362 . S
C369 C370 1.258 . S
C369 C372 1.431 . S
C369 C389 1.449 . S
C370 C369 1.258 . S
C370 C371 1.477 . S
C370 H390 0.931 . S
C371 C367 1.460 . S
C371 C370 1.477 . S
C371 H391 0.930 . S
C372 N368 1.362 . S
C372 C369 1.431 . S
C372 C382 1.476 . S
H373 C367 0.929 . S
C374 O365 1.250 . S
C374 O366 1.258 . S
O375 Mn360 2.162 . S
O375 C363 1.281 . S
O376 Mn360 2.297 . S
O376 C363 1.236 . S
N377 Mn361 2.282 . S
N377 C378 1.328 . S
N377 C382 1.318 . S
C378 N377 1.328 . S
C378 C379 1.457 . S
C378 H383 0.929 . S
C379 C378 1.457 . S
C379 C380 1.291 . S
C379 H392 0.931 . S
C380 C379 1.291 . S
C380 C381 1.373 . S
C380 H393 0.929 . S
C381 C380 1.373 . S
C381 C382 1.396 . S
C381 C388 1.403 . S
C382 C372 1.476 . S
C382 N377 1.318 . S
C382 C381 1.396 . S
H383 C378 0.929 . S
O384 Mn360 2.385 . S
O384 C362 1.234 . S
O385 Mn360 2.209 . S
O385 Mn361 2.215 . S
O385 C362 1.283 . S
O386 Mn360 2.094 . S
O386 C364 1.240 . S
O387 Mn361 2.117 . S
O387 C364 1.264 . S
C388 C381 1.403 . S
C388 C389 1.399 . S
C388 H394 0.929 . S
C389 C369 1.449 . S
C389 C388 1.399 . S
C389 H395 0.930 . S
H390 C370 0.931 . S
H391 C371 0.930 . S
H392 C379 0.931 . S
H393 C380 0.929 . S
H394 C388 0.929 . S
H395 C389 0.930 . S
Mn396 O401 2.095 . S
Mn396 O411 2.162 . S
Mn396 O412 2.297 . S
Mn396 O420 2.385 . S
Mn396 O421 2.209 . S
Mn396 O422 2.094 . S
Mn397 O402 2.121 . S
Mn397 N404 2.257 . S
Mn397 N413 2.282 . S
Mn397 O421 2.215 . S
Mn397 O423 2.117 . S
C398 O420 1.234 . S
C398 O421 1.283 . S
C399 O411 1.281 . S
C399 O412 1.236 . S
C400 O422 1.240 . S
C400 O423 1.264 . S
O401 Mn396 2.095 . S
O401 C410 1.250 . S
O402 Mn397 2.121 . S
O402 C410 1.258 . S
C403 N404 1.326 . S
C403 C407 1.460 . S
C403 H409 0.929 . S
N404 Mn397 2.257 . S
N404 C403 1.326 . S
N404 C408 1.362 . S
C405 C406 1.258 . S
C405 C408 1.431 . S
C405 C425 1.449 . S
C406 C405 1.258 . S
C406 C407 1.477 . S
C406 H426 0.931 . S
C407 C403 1.460 . S
C407 C406 1.477 . S
C407 H427 0.930 . S
C408 N404 1.362 . S
C408 C405 1.431 . S
C408 C418 1.476 . S
H409 C403 0.929 . S
C410 O401 1.250 . S
C410 O402 1.258 . S
O411 Mn396 2.162 . S
O411 C399 1.281 . S
O412 Mn396 2.297 . S
O412 C399 1.236 . S
N413 Mn397 2.282 . S
N413 C414 1.328 . S
N413 C418 1.318 . S
C414 N413 1.328 . S
C414 C415 1.457 . S
C414 H419 0.929 . S
C415 C414 1.457 . S
C415 C416 1.291 . S
C415 H428 0.931 . S
C416 C415 1.291 . S
C416 C417 1.373 . S
C416 H429 0.929 . S
C417 C416 1.373 . S
C417 C418 1.396 . S
C417 C424 1.403 . S
C418 C408 1.476 . S
C418 N413 1.318 . S
C418 C417 1.396 . S
H419 C414 0.929 . S
O420 Mn396 2.385 . S
O420 C398 1.234 . S
O421 Mn396 2.209 . S
O421 Mn397 2.215 . S
O421 C398 1.283 . S
O422 Mn396 2.094 . S
O422 C400 1.240 . S
O423 Mn397 2.117 . S
O423 C400 1.264 . S
C424 C417 1.403 . S
C424 C425 1.399 . S
C424 H430 0.929 . S
C425 C405 1.449 . S
C425 C424 1.399 . S
C425 H431 0.930 . S
H426 C406 0.931 . S
H427 C407 0.930 . S
H428 C415 0.931 . S
H429 C416 0.929 . S
H430 C424 0.929 . S
H431 C425 0.930 . S
H432 C440 0.929 . S
H433 C442 0.930 . S
H434 C444 0.930 . S
H435 C447 0.929 . S
H436 C450 0.930 . S
H437 C452 0.960 . S
H438 C452 0.960 . S
H439 C452 0.960 . S
C440 H432 0.929 . S
C440 C441 1.377 . S
C440 C442 1.384 . S
C441 C440 1.377 . S
C441 C447 1.390 . S
C442 H433 0.930 . S
C442 C440 1.384 . S
C442 C443 1.372 . S
C443 C442 1.372 . S
C443 C444 1.400 . S
C443 C448 1.490 . S
C444 H434 0.930 . S
C444 C443 1.400 . S
C444 C447 1.386 . S
H445 C461 0.930 . S
H446 C462 0.931 . S
C447 H435 0.929 . S
C447 C441 1.390 . S
C447 C444 1.386 . S
C448 C443 1.490 . S
C448 C450 1.395 . S
C448 C451 1.403 . S
H449 C455 0.930 . S
C450 H436 0.930 . S
C450 C448 1.395 . S
C450 C453 1.403 . S
C451 C448 1.403 . S
C451 C452 1.524 . S
C451 C455 1.400 . S
C452 H437 0.960 . S
C452 H438 0.960 . S
C452 H439 0.960 . S
C452 C451 1.524 . S
C453 C450 1.403 . S
C453 C454 1.392 . S
C453 C457 1.495 . S
C454 C453 1.392 . S
C454 C455 1.385 . S
C454 C456 1.478 . S
C455 H449 0.930 . S
C455 C451 1.400 . S
C455 C454 1.385 . S
C456 C454 1.478 . S
C456 C458 1.381 . S
C456 C462 1.383 . S
C457 C453 1.495 . S
C457 H463 0.959 . S
C457 H464 0.961 . S
C457 H465 0.960 . S
C458 C456 1.381 . S
C458 C459 1.394 . S
C458 H466 0.930 . S
C459 C458 1.394 . S
C459 C460 1.383 . S
C459 H467 0.929 . S
C460 C459 1.383 . S
C460 C461 1.377 . S
C461 H445 0.930 . S
C461 C460 1.377 . S
C461 C462 1.379 . S
C462 H446 0.931 . S
C462 C456 1.383 . S
C462 C461 1.379 . S
H463 C457 0.959 . S
H464 C457 0.961 . S
H465 C457 0.960 . S
H466 C458 0.930 . S
H467 C459 0.929 . S
H468 C476 0.929 . S
H469 C478 0.930 . S
H470 C480 0.930 . S
H471 C483 0.929 . S
H472 C486 0.930 . S
H473 C488 0.960 . S
H474 C488 0.960 . S
H475 C488 0.960 . S
C476 H468 0.929 . S
C476 C477 1.377 . S
C476 C478 1.384 . S
C477 C476 1.377 . S
C477 C483 1.390 . S
C478 H469 0.930 . S
C478 C476 1.384 . S
C478 C479 1.372 . S
C479 C478 1.372 . S
C479 C480 1.400 . S
C479 C484 1.490 . S
C480 H470 0.930 . S
C480 C479 1.400 . S
C480 C483 1.386 . S
H481 C497 0.930 . S
H482 C498 0.931 . S
C483 H471 0.929 . S
C483 C477 1.390 . S
C483 C480 1.386 . S
C484 C479 1.490 . S
C484 C486 1.395 . S
C484 C487 1.403 . S
H485 C491 0.930 . S
C486 H472 0.930 . S
C486 C484 1.395 . S
C486 C489 1.403 . S
C487 C484 1.403 . S
C487 C488 1.524 . S
C487 C491 1.400 . S
C488 H473 0.960 . S
C488 H474 0.960 . S
C488 H475 0.960 . S
C488 C487 1.524 . S
C489 C486 1.403 . S
C489 C490 1.392 . S
C489 C493 1.495 . S
C490 C489 1.392 . S
C490 C491 1.385 . S
C490 C492 1.478 . S
C491 H485 0.930 . S
C491 C487 1.400 . S
C491 C490 1.385 . S
C492 C490 1.478 . S
C492 C494 1.381 . S
C492 C498 1.383 . S
C493 C489 1.495 . S
C493 H499 0.959 . S
C493 H500 0.961 . S
C493 H501 0.960 . S
C494 C492 1.381 . S
C494 C495 1.394 . S
C494 H502 0.930 . S
C495 C494 1.394 . S
C495 C496 1.383 . S
C495 H503 0.929 . S
C496 C495 1.383 . S
C496 C497 1.377 . S
C497 H481 0.930 . S
C497 C496 1.377 . S
C497 C498 1.379 . S
C498 H482 0.931 . S
C498 C492 1.383 . S
C498 C497 1.379 . S
H499 C493 0.959 . S
H500 C493 0.961 . S
H501 C493 0.960 . S
H502 C494 0.930 . S
H503 C495 0.929 . S
H504 C512 0.929 . S
H505 C514 0.930 . S
H506 C516 0.930 . S
H507 C519 0.929 . S
H508 C522 0.930 . S
H509 C524 0.960 . S
H510 C524 0.960 . S
H511 C524 0.960 . S
C512 H504 0.929 . S
C512 C513 1.377 . S
C512 C514 1.384 . S
C513 C512 1.377 . S
C513 C519 1.390 . S
C514 H505 0.930 . S
C514 C512 1.384 . S
C514 C515 1.372 . S
C515 C514 1.372 . S
C515 C516 1.400 . S
C515 C520 1.490 . S
C516 H506 0.930 . S
C516 C515 1.400 . S
C516 C519 1.386 . S
H517 C533 0.930 . S
H518 C534 0.931 . S
C519 H507 0.929 . S
C519 C513 1.390 . S
C519 C516 1.386 . S
C520 C515 1.490 . S
C520 C522 1.395 . S
C520 C523 1.403 . S
H521 C527 0.930 . S
C522 H508 0.930 . S
C522 C520 1.395 . S
C522 C525 1.403 . S
C523 C520 1.403 . S
C523 C524 1.524 . S
C523 C527 1.400 . S
C524 H509 0.960 . S
C524 H510 0.960 . S
C524 H511 0.960 . S
C524 C523 1.524 . S
C525 C522 1.403 . S
C525 C526 1.392 . S
C525 C529 1.495 . S
C526 C525 1.392 . S
C526 C527 1.385 . S
C526 C528 1.478 . S
C527 H521 0.930 . S
C527 C523 1.400 . S
C527 C526 1.385 . S
C528 C526 1.478 . S
C528 C530 1.381 . S
C528 C534 1.383 . S
C529 C525 1.495 . S
C529 H535 0.959 . S
C529 H536 0.961 . S
C529 H537 0.960 . S
C530 C528 1.381 . S
C530 C531 1.394 . S
C530 H538 0.930 . S
C531 C530 1.394 . S
C531 C532 1.383 . S
C531 H539 0.929 . S
C532 C531 1.383 . S
C532 C533 1.377 . S
C533 H517 0.930 . S
C533 C532 1.377 . S
C533 C534 1.379 . S
C534 H518 0.931 . S
C534 C528 1.383 . S
C534 C533 1.379 . S
H535 C529 0.959 . S
H536 C529 0.961 . S
H537 C529 0.960 . S
H538 C530 0.930 . S
H539 C531 0.929 . S
H540 C548 0.929 . S
H541 C550 0.930 . S
H542 C552 0.930 . S
H543 C555 0.929 . S
H544 C558 0.930 . S
H545 C560 0.960 . S
H546 C560 0.960 . S
H547 C560 0.960 . S
C548 H540 0.929 . S
C548 C549 1.377 . S
C548 C550 1.384 . S
C549 C548 1.377 . S
C549 C555 1.390 . S
C550 H541 0.930 . S
C550 C548 1.384 . S
C550 C551 1.372 . S
C551 C550 1.372 . S
C551 C552 1.400 . S
C551 C556 1.490 . S
C552 H542 0.930 . S
C552 C551 1.400 . S
C552 C555 1.386 . S
H553 C569 0.930 . S
H554 C570 0.931 . S
C555 H543 0.929 . S
C555 C549 1.390 . S
C555 C552 1.386 . S
C556 C551 1.490 . S
C556 C558 1.395 . S
C556 C559 1.403 . S
H557 C563 0.930 . S
C558 H544 0.930 . S
C558 C556 1.395 . S
C558 C561 1.403 . S
C559 C556 1.403 . S
C559 C560 1.524 . S
C559 C563 1.400 . S
C560 H545 0.960 . S
C560 H546 0.960 . S
C560 H547 0.960 . S
C560 C559 1.524 . S
C561 C558 1.403 . S
C561 C562 1.392 . S
C561 C565 1.495 . S
C562 C561 1.392 . S
C562 C563 1.385 . S
C562 C564 1.478 . S
C563 H557 0.930 . S
C563 C559 1.400 . S
C563 C562 1.385 . S
C564 C562 1.478 . S
C564 C566 1.381 . S
C564 C570 1.383 . S
C565 C561 1.495 . S
C565 H571 0.959 . S
C565 H572 0.961 . S
C565 H573 0.960 . S
C566 C564 1.381 . S
C566 C567 1.394 . S
C566 H574 0.930 . S
C567 C566 1.394 . S
C567 C568 1.383 . S
C567 H575 0.929 . S
C568 C567 1.383 . S
C568 C569 1.377 . S
C569 H553 0.930 . S
C569 C568 1.377 . S
C569 C570 1.379 . S
C570 H554 0.931 . S
C570 C564 1.383 . S
C570 C569 1.379 . S
H571 C565 0.959 . S
H572 C565 0.961 . S
H573 C565 0.960 . S
H574 C566 0.930 . S
H575 C567 0.929 . S
H576 C584 0.929 . S
H577 C586 0.930 . S
H578 C588 0.930 . S
H579 C591 0.929 . S
H580 C594 0.930 . S
H581 C596 0.960 1_554 S
H582 C596 0.960 . S
H583 C596 0.960 . S
C584 H576 0.929 . S
C584 C585 1.377 . S
C584 C586 1.384 . S
C585 C584 1.377 . S
C585 C591 1.390 . S
C586 H577 0.930 . S
C586 C584 1.384 . S
C586 C587 1.372 . S
C587 C586 1.372 . S
C587 C588 1.400 . S
C587 C592 1.490 . S
C588 H578 0.930 . S
C588 C587 1.400 . S
C588 C591 1.386 . S
H589 C605 0.930 . S
H590 C606 0.931 . S
C591 H579 0.929 . S
C591 C585 1.390 . S
C591 C588 1.386 . S
C592 C587 1.490 . S
C592 C594 1.395 . S
C592 C595 1.403 . S
H593 C599 0.930 1_554 S
C594 H580 0.930 . S
C594 C592 1.395 . S
C594 C597 1.403 . S
C595 C592 1.403 . S
C595 C596 1.524 . S
C595 C599 1.400 . S
C596 H581 0.960 1_556 S
C596 H582 0.960 . S
C596 H583 0.960 . S
C596 C595 1.524 . S
C597 C594 1.403 . S
C597 C598 1.392 . S
C597 C601 1.495 . S
C598 C597 1.392 . S
C598 C599 1.385 . S
C598 C600 1.478 1_556 S
C599 H593 0.930 1_556 S
C599 C595 1.400 . S
C599 C598 1.385 . S
C600 C598 1.478 1_554 S
C600 C602 1.381 . S
C600 C606 1.383 . S
C601 C597 1.495 . S
C601 H607 0.959 . S
C601 H608 0.961 . S
C601 H609 0.960 . S
C602 C600 1.381 . S
C602 C603 1.394 . S
C602 H610 0.930 1_554 S
C603 C602 1.394 . S
C603 C604 1.383 . S
C603 H611 0.929 . S
C604 C603 1.383 . S
C604 C605 1.377 . S
C605 H589 0.930 . S
C605 C604 1.377 . S
C605 C606 1.379 . S
C606 H590 0.931 . S
C606 C600 1.383 . S
C606 C605 1.379 . S
H607 C601 0.959 . S
H608 C601 0.961 . S
H609 C601 0.960 . S
H610 C602 0.930 1_556 S
H611 C603 0.929 . S
H612 C620 0.929 . S
H613 C622 0.930 . S
H614 C624 0.930 . S
H615 C627 0.929 . S
H616 C630 0.930 . S
H617 C632 0.960 . S
H618 C632 0.960 . S
H619 C632 0.960 . S
C620 H612 0.929 . S
C620 C621 1.377 . S
C620 C622 1.384 . S
C621 C620 1.377 . S
C621 C627 1.390 . S
C622 H613 0.930 . S
C622 C620 1.384 . S
C622 C623 1.372 . S
C623 C622 1.372 . S
C623 C624 1.400 . S
C623 C628 1.490 . S
C624 H614 0.930 . S
C624 C623 1.400 . S
C624 C627 1.386 . S
H625 C641 0.930 . S
H626 C642 0.931 . S
C627 H615 0.929 . S
C627 C621 1.390 . S
C627 C624 1.386 . S
C628 C623 1.490 . S
C628 C630 1.395 . S
C628 C631 1.403 . S
H629 C635 0.930 . S
C630 H616 0.930 . S
C630 C628 1.395 . S
C630 C633 1.403 . S
C631 C628 1.403 . S
C631 C632 1.524 . S
C631 C635 1.400 . S
C632 H617 0.960 . S
C632 H618 0.960 . S
C632 H619 0.960 . S
C632 C631 1.524 . S
C633 C630 1.403 . S
C633 C634 1.392 . S
C633 C637 1.495 . S
C634 C633 1.392 . S
C634 C635 1.385 . S
C634 C636 1.478 . S
C635 H629 0.930 . S
C635 C631 1.400 . S
C635 C634 1.385 . S
C636 C634 1.478 . S
C636 C638 1.381 . S
C636 C642 1.383 . S
C637 C633 1.495 . S
C637 H643 0.959 . S
C637 H644 0.961 . S
C637 H645 0.960 . S
C638 C636 1.381 . S
C638 C639 1.394 1_554 S
C638 H646 0.930 . S
C639 C638 1.394 1_556 S
C639 C640 1.383 . S
C639 H647 0.929 . S
C640 C639 1.383 . S
C640 C641 1.377 1_556 S
C641 H625 0.930 . S
C641 C640 1.377 1_554 S
C641 C642 1.379 . S
C642 H626 0.931 . S
C642 C636 1.383 . S
C642 C641 1.379 . S
H643 C637 0.959 . S
H644 C637 0.961 . S
H645 C637 0.960 . S
H646 C638 0.930 . S
H647 C639 0.929 . S
H648 C656 0.929 . S
H649 C658 0.930 . S
H650 C660 0.930 . S
H651 C663 0.929 . S
H652 C666 0.930 . S
H653 C668 0.960 . S
H654 C668 0.960 . S
H655 C668 0.960 . S
C656 H648 0.929 . S
C656 C657 1.377 . S
C656 C658 1.384 . S
C657 C656 1.377 . S
C657 C663 1.390 . S
C658 H649 0.930 . S
C658 C656 1.384 . S
C658 C659 1.372 . S
C659 C658 1.372 . S
C659 C660 1.400 . S
C659 C664 1.490 . S
C660 H650 0.930 . S
C660 C659 1.400 . S
C660 C663 1.386 . S
H661 C677 0.930 . S
H662 C678 0.931 . S
C663 H651 0.929 . S
C663 C657 1.390 . S
C663 C660 1.386 . S
C664 C659 1.490 . S
C664 C666 1.395 . S
C664 C667 1.403 . S
H665 C671 0.930 . S
C666 H652 0.930 . S
C666 C664 1.395 . S
C666 C669 1.403 . S
C667 C664 1.403 . S
C667 C668 1.524 . S
C667 C671 1.400 . S
C668 H653 0.960 . S
C668 H654 0.960 . S
C668 H655 0.960 . S
C668 C667 1.524 . S
C669 C666 1.403 . S
C669 C670 1.392 . S
C669 C673 1.495 . S
C670 C669 1.392 . S
C670 C671 1.385 . S
C670 C672 1.478 . S
C671 H665 0.930 . S
C671 C667 1.400 . S
C671 C670 1.385 . S
C672 C670 1.478 . S
C672 C674 1.381 . S
C672 C678 1.383 . S
C673 C669 1.495 . S
C673 H679 0.959 . S
C673 H680 0.961 . S
C673 H681 0.960 . S
C674 C672 1.381 . S
C674 C675 1.394 . S
C674 H682 0.930 . S
C675 C674 1.394 . S
C675 C676 1.383 . S
C675 H683 0.929 . S
C676 C675 1.383 . S
C676 C677 1.377 . S
C677 H661 0.930 . S
C677 C676 1.377 . S
C677 C678 1.379 . S
C678 H662 0.931 . S
C678 C672 1.383 . S
C678 C677 1.379 . S
H679 C673 0.959 . S
H680 C673 0.961 . S
H681 C673 0.960 . S
H682 C674 0.930 . S
H683 C675 0.929 . S
H684 C692 0.929 . S
H685 C694 0.930 . S
H686 C696 0.930 . S
H687 C699 0.929 . S
H688 C702 0.930 . S
H689 C704 0.960 . S
H690 C704 0.960 . S
H691 C704 0.960 . S
C692 H684 0.929 . S
C692 C693 1.377 . S
C692 C694 1.384 . S
C693 C692 1.377 . S
C693 C699 1.390 . S
C694 H685 0.930 . S
C694 C692 1.384 . S
C694 C695 1.372 . S
C695 C694 1.372 . S
C695 C696 1.400 . S
C695 C700 1.490 . S
C696 H686 0.930 . S
C696 C695 1.400 . S
C696 C699 1.386 . S
H697 C713 0.930 . S
H698 C714 0.931 . S
C699 H687 0.929 . S
C699 C693 1.390 . S
C699 C696 1.386 . S
C700 C695 1.490 . S
C700 C702 1.395 . S
C700 C703 1.403 . S
H701 C707 0.930 . S
C702 H688 0.930 . S
C702 C700 1.395 . S
C702 C705 1.403 . S
C703 C700 1.403 . S
C703 C704 1.524 . S
C703 C707 1.400 . S
C704 H689 0.960 . S
C704 H690 0.960 . S
C704 H691 0.960 . S
C704 C703 1.524 . S
C705 C702 1.403 . S
C705 C706 1.392 . S
C705 C709 1.495 . S
C706 C705 1.392 . S
C706 C707 1.385 . S
C706 C708 1.478 . S
C707 H701 0.930 . S
C707 C703 1.400 . S
C707 C706 1.385 . S
C708 C706 1.478 . S
C708 C710 1.381 . S
C708 C714 1.383 . S
C709 C705 1.495 . S
C709 H715 0.959 . S
C709 H716 0.961 . S
C709 H717 0.960 . S
C710 C708 1.381 . S
C710 C711 1.394 . S
C710 H718 0.930 . S
C711 C710 1.394 . S
C711 C712 1.383 . S
C711 H719 0.929 . S
C712 C711 1.383 . S
C712 C713 1.377 . S
C713 H697 0.930 . S
C713 C712 1.377 . S
C713 C714 1.379 . S
C714 H698 0.931 . S
C714 C708 1.383 . S
C714 C713 1.379 . S
H715 C709 0.959 . S
H716 C709 0.961 . S
H717 C709 0.960 . S
H718 C710 0.930 . S
H719 C711 0.929 . S
H720 C728 0.929 . S
H721 C730 0.930 . S
H722 C732 0.930 . S
H723 C735 0.929 . S
H724 C738 0.930 . S
H725 C740 0.960 . S
H726 C740 0.960 . S
H727 C740 0.960 . S
C728 H720 0.929 . S
C728 C729 1.377 . S
C728 C730 1.384 . S
C729 C728 1.377 . S
C729 C735 1.390 . S
C730 H721 0.930 . S
C730 C728 1.384 . S
C730 C731 1.372 . S
C731 C730 1.372 . S
C731 C732 1.400 . S
C731 C736 1.490 . S
C732 H722 0.930 . S
C732 C731 1.400 . S
C732 C735 1.386 . S
H733 C749 0.930 . S
H734 C750 0.931 . S
C735 H723 0.929 . S
C735 C729 1.390 . S
C735 C732 1.386 . S
C736 C731 1.490 . S
C736 C738 1.395 . S
C736 C739 1.403 . S
H737 C743 0.930 . S
C738 H724 0.930 . S
C738 C736 1.395 . S
C738 C741 1.403 . S
C739 C736 1.403 . S
C739 C740 1.524 . S
C739 C743 1.400 . S
C740 H725 0.960 . S
C740 H726 0.960 . S
C740 H727 0.960 . S
C740 C739 1.524 . S
C741 C738 1.403 . S
C741 C742 1.392 . S
C741 C745 1.495 . S
C742 C741 1.392 . S
C742 C743 1.385 . S
C742 C744 1.478 . S
C743 H737 0.930 . S
C743 C739 1.400 . S
C743 C742 1.385 . S
C744 C742 1.478 . S
C744 C746 1.381 . S
C744 C750 1.383 . S
C745 C741 1.495 . S
C745 H751 0.959 . S
C745 H752 0.961 . S
C745 H753 0.960 . S
C746 C744 1.381 . S
C746 C747 1.394 . S
C746 H754 0.930 . S
C747 C746 1.394 . S
C747 C748 1.383 . S
C747 H755 0.929 . S
C748 C747 1.383 . S
C748 C749 1.377 . S
C749 H733 0.930 . S
C749 C748 1.377 . S
C749 C750 1.379 . S
C750 H734 0.931 . S
C750 C744 1.383 . S
C750 C749 1.379 . S
H751 C745 0.959 . S
H752 C745 0.961 . S
H753 C745 0.960 . S
H754 C746 0.930 . S
H755 C747 0.929 . S
H756 C764 0.929 . S
H757 C766 0.930 . S
H758 C768 0.930 . S
H759 C771 0.929 . S
H760 C774 0.930 . S
H761 C776 0.960 . S
H762 C776 0.960 . S
H763 C776 0.960 . S
C764 H756 0.929 . S
C764 C765 1.377 . S
C764 C766 1.384 . S
C765 C764 1.377 . S
C765 C771 1.390 . S
C766 H757 0.930 . S
C766 C764 1.384 . S
C766 C767 1.372 . S
C767 C766 1.372 . S
C767 C768 1.400 . S
C767 C772 1.490 . S
C768 H758 0.930 . S
C768 C767 1.400 . S
C768 C771 1.386 . S
H769 C785 0.930 . S
H770 C786 0.931 . S
C771 H759 0.929 . S
C771 C765 1.390 . S
C771 C768 1.386 . S
C772 C767 1.490 . S
C772 C774 1.395 . S
C772 C775 1.403 . S
H773 C779 0.930 . S
C774 H760 0.930 . S
C774 C772 1.395 . S
C774 C777 1.403 . S
C775 C772 1.403 . S
C775 C776 1.524 . S
C775 C779 1.400 . S
C776 H761 0.960 . S
C776 H762 0.960 . S
C776 H763 0.960 . S
C776 C775 1.524 . S
C777 C774 1.403 . S
C777 C778 1.392 . S
C777 C781 1.495 . S
C778 C777 1.392 . S
C778 C779 1.385 . S
C778 C780 1.478 . S
C779 H773 0.930 . S
C779 C775 1.400 . S
C779 C778 1.385 . S
C780 C778 1.478 . S
C780 C782 1.381 . S
C780 C786 1.383 . S
C781 C777 1.495 . S
C781 H787 0.959 . S
C781 H788 0.961 . S
C781 H789 0.960 . S
C782 C780 1.381 . S
C782 C783 1.394 . S
C782 H790 0.930 . S
C783 C782 1.394 . S
C783 C784 1.383 . S
C783 H791 0.929 . S
C784 C783 1.383 . S
C784 C785 1.377 . S
C785 H769 0.930 . S
C785 C784 1.377 . S
C785 C786 1.379 . S
C786 H770 0.931 . S
C786 C780 1.383 . S
C786 C785 1.379 . S
H787 C781 0.959 . S
H788 C781 0.961 . S
H789 C781 0.960 . S
H790 C782 0.930 . S
H791 C783 0.929 . S
H792 C800 0.929 . S
H793 C802 0.930 . S
H794 C804 0.930 . S
H795 C807 0.929 . S
H796 C810 0.930 . S
H797 C812 0.960 . S
H798 C812 0.960 . S
H799 C812 0.960 . S
C800 H792 0.929 . S
C800 C801 1.377 . S
C800 C802 1.384 . S
C801 C800 1.377 . S
C801 C807 1.390 . S
C802 H793 0.930 . S
C802 C800 1.384 . S
C802 C803 1.372 . S
C803 C802 1.372 . S
C803 C804 1.400 . S
C803 C808 1.490 . S
C804 H794 0.930 . S
C804 C803 1.400 . S
C804 C807 1.386 . S
H805 C821 0.930 . S
H806 C822 0.931 . S
C807 H795 0.929 . S
C807 C801 1.390 . S
C807 C804 1.386 . S
C808 C803 1.490 . S
C808 C810 1.395 . S
C808 C811 1.403 . S
H809 C815 0.930 . S
C810 H796 0.930 . S
C810 C808 1.395 . S
C810 C813 1.403 . S
C811 C808 1.403 . S
C811 C812 1.524 . S
C811 C815 1.400 . S
C812 H797 0.960 . S
C812 H798 0.960 . S
C812 H799 0.960 . S
C812 C811 1.524 . S
C813 C810 1.403 . S
C813 C814 1.392 . S
C813 C817 1.495 . S
C814 C813 1.392 . S
C814 C815 1.385 . S
C814 C816 1.478 . S
C815 H809 0.930 . S
C815 C811 1.400 . S
C815 C814 1.385 . S
C816 C814 1.478 . S
C816 C818 1.381 . S
C816 C822 1.383 . S
C817 C813 1.495 . S
C817 H823 0.959 . S
C817 H824 0.961 . S
C817 H825 0.960 . S
C818 C816 1.381 . S
C818 C819 1.394 . S
C818 H826 0.930 . S
C819 C818 1.394 . S
C819 C820 1.383 . S
C819 H827 0.929 . S
C820 C819 1.383 . S
C820 C821 1.377 . S
C821 H805 0.930 . S
C821 C820 1.377 . S
C821 C822 1.379 . S
C822 H806 0.931 . S
C822 C816 1.383 . S
C822 C821 1.379 . S
H823 C817 0.959 . S
H824 C817 0.961 . S
H825 C817 0.960 . S
H826 C818 0.930 . S
H827 C819 0.929 . S
H828 C836 0.929 . S
H829 C838 0.930 . S
H830 C840 0.930 . S
H831 C843 0.929 . S
H832 C846 0.930 . S
H833 C848 0.960 . S
H834 C848 0.960 . S
H835 C848 0.960 . S
C836 H828 0.929 . S
C836 C837 1.377 . S
C836 C838 1.384 . S
C837 C836 1.377 . S
C837 C843 1.390 . S
C838 H829 0.930 . S
C838 C836 1.384 . S
C838 C839 1.372 . S
C839 C838 1.372 . S
C839 C840 1.400 . S
C839 C844 1.490 . S
C840 H830 0.930 . S
C840 C839 1.400 . S
C840 C843 1.386 . S
H841 C857 0.930 . S
H842 C858 0.931 . S
C843 H831 0.929 . S
C843 C837 1.390 . S
C843 C840 1.386 . S
C844 C839 1.490 . S
C844 C846 1.395 . S
C844 C847 1.403 . S
H845 C851 0.930 . S
C846 H832 0.930 . S
C846 C844 1.395 . S
C846 C849 1.403 . S
C847 C844 1.403 . S
C847 C848 1.524 . S
C847 C851 1.400 . S
C848 H833 0.960 . S
C848 H834 0.960 . S
C848 H835 0.960 . S
C848 C847 1.524 . S
C849 C846 1.403 . S
C849 C850 1.392 . S
C849 C853 1.495 . S
C850 C849 1.392 . S
C850 C851 1.385 . S
C850 C852 1.478 . S
C851 H845 0.930 . S
C851 C847 1.400 . S
C851 C850 1.385 . S
C852 C850 1.478 . S
C852 C854 1.381 . S
C852 C858 1.383 1_556 S
C853 C849 1.495 . S
C853 H859 0.959 . S
C853 H860 0.961 . S
C853 H861 0.960 . S
C854 C852 1.381 . S
C854 C855 1.394 . S
C854 H862 0.930 . S
C855 C854 1.394 . S
C855 C856 1.383 1_556 S
C855 H863 0.929 . S
C856 C855 1.383 1_554 S
C856 C857 1.377 . S
C857 H841 0.930 . S
C857 C856 1.377 . S
C857 C858 1.379 . S
C858 H842 0.931 . S
C858 C852 1.383 1_554 S
C858 C857 1.379 . S
H859 C853 0.959 . S
H860 C853 0.961 . S
H861 C853 0.960 . S
H862 C854 0.930 . S
H863 C855 0.929 . S
H864 C872 0.929 . S
H865 C874 0.930 . S
H866 C876 0.930 . S
H867 C879 0.929 . S
H868 C882 0.930 . S
H869 C884 0.960 . S
H870 C884 0.960 . S
H871 C884 0.960 . S
C872 H864 0.929 . S
C872 C873 1.377 . S
C872 C874 1.384 . S
C873 C872 1.377 . S
C873 C879 1.390 . S
C874 H865 0.930 . S
C874 C872 1.384 . S
C874 C875 1.372 . S
C875 C874 1.372 . S
C875 C876 1.400 . S
C875 C880 1.490 . S
C876 H866 0.930 . S
C876 C875 1.400 . S
C876 C879 1.386 . S
H877 C893 0.930 . S
H878 C894 0.931 . S
C879 H867 0.929 . S
C879 C873 1.390 . S
C879 C876 1.386 . S
C880 C875 1.490 . S
C880 C882 1.395 . S
C880 C883 1.403 . S
H881 C887 0.930 . S
C882 H868 0.930 . S
C882 C880 1.395 . S
C882 C885 1.403 . S
C883 C880 1.403 . S
C883 C884 1.524 . S
C883 C887 1.400 . S
C884 H869 0.960 . S
C884 H870 0.960 . S
C884 H871 0.960 . S
C884 C883 1.524 . S
C885 C882 1.403 . S
C885 C886 1.392 . S
C885 C889 1.495 . S
C886 C885 1.392 . S
C886 C887 1.385 . S
C886 C888 1.478 . S
C887 H881 0.930 . S
C887 C883 1.400 . S
C887 C886 1.385 . S
C888 C886 1.478 . S
C888 C890 1.381 . S
C888 C894 1.383 . S
C889 C885 1.495 . S
C889 H895 0.959 . S
C889 H896 0.961 . S
C889 H897 0.960 . S
C890 C888 1.381 . S
C890 C891 1.394 . S
C890 H898 0.930 . S
C891 C890 1.394 . S
C891 C892 1.383 . S
C891 H899 0.929 . S
C892 C891 1.383 . S
C892 C893 1.377 . S
C893 H877 0.930 . S
C893 C892 1.377 . S
C893 C894 1.379 . S
C894 H878 0.931 . S
C894 C888 1.383 . S
C894 C893 1.379 . S
H895 C889 0.959 . S
H896 C889 0.961 . S
H897 C889 0.960 . S
H898 C890 0.930 . S
H899 C891 0.929 . S
H900 C908 0.929 . S
H901 C910 0.930 1_556 S
H902 C912 0.930 . S
H903 C915 0.929 . S
H904 C918 0.930 . S
H905 C920 0.960 1_556 S
H906 C920 0.960 . S
H907 C920 0.960 . S
C908 H900 0.929 . S
C908 C909 1.377 . S
C908 C910 1.384 . S
C909 C908 1.377 . S
C909 C915 1.390 . S
C910 H901 0.930 1_554 S
C910 C908 1.384 . S
C910 C911 1.372 . S
C911 C910 1.372 . S
C911 C912 1.400 . S
C911 C916 1.490 1_554 S
C912 H902 0.930 . S
C912 C911 1.400 . S
C912 C915 1.386 . S
H913 C929 0.930 . S
H914 C930 0.931 . S
C915 H903 0.929 . S
C915 C909 1.390 . S
C915 C912 1.386 . S
C916 C911 1.490 1_556 S
C916 C918 1.395 . S
C916 C919 1.403 . S
H917 C923 0.930 . S
C918 H904 0.930 . S
C918 C916 1.395 . S
C918 C921 1.403 . S
C919 C916 1.403 . S
C919 C920 1.524 1_556 S
C919 C923 1.400 . S
C920 H905 0.960 1_554 S
C920 H906 0.960 . S
C920 H907 0.960 . S
C920 C919 1.524 1_554 S
C921 C918 1.403 . S
C921 C922 1.392 . S
C921 C925 1.495 . S
C922 C921 1.392 . S
C922 C923 1.385 . S
C922 C924 1.478 . S
C923 H917 0.930 . S
C923 C919 1.400 . S
C923 C922 1.385 . S
C924 C922 1.478 . S
C924 C926 1.381 . S
C924 C930 1.383 . S
C925 C921 1.495 . S
C925 H931 0.959 . S
C925 H932 0.961 . S
C925 H933 0.960 . S
C926 C924 1.381 . S
C926 C927 1.394 . S
C926 H934 0.930 . S
C927 C926 1.394 . S
C927 C928 1.383 . S
C927 H935 0.929 . S
C928 C927 1.383 . S
C928 C929 1.377 . S
C929 H913 0.930 . S
C929 C928 1.377 . S
C929 C930 1.379 . S
C930 H914 0.931 . S
C930 C924 1.383 . S
C930 C929 1.379 . S
H931 C925 0.959 . S
H932 C925 0.961 . S
H933 C925 0.960 . S
H934 C926 0.930 . S
H935 C927 0.929 . S
H936 C944 0.929 . S
H937 C946 0.930 . S
H938 C948 0.930 . S
H939 C951 0.929 . S
H940 C954 0.930 . S
H941 C956 0.960 . S
H942 C956 0.960 . S
H943 C956 0.960 . S
C944 H936 0.929 . S
C944 C945 1.377 . S
C944 C946 1.384 . S
C945 C944 1.377 . S
C945 C951 1.390 . S
C946 H937 0.930 . S
C946 C944 1.384 . S
C946 C947 1.372 . S
C947 C946 1.372 . S
C947 C948 1.400 . S
C947 C952 1.490 . S
C948 H938 0.930 . S
C948 C947 1.400 . S
C948 C951 1.386 . S
H949 C965 0.930 . S
H950 C966 0.931 . S
C951 H939 0.929 . S
C951 C945 1.390 . S
C951 C948 1.386 . S
C952 C947 1.490 . S
C952 C954 1.395 . S
C952 C955 1.403 . S
H953 C959 0.930 . S
C954 H940 0.930 . S
C954 C952 1.395 . S
C954 C957 1.403 . S
C955 C952 1.403 . S
C955 C956 1.524 . S
C955 C959 1.400 . S
C956 H941 0.960 . S
C956 H942 0.960 . S
C956 H943 0.960 . S
C956 C955 1.524 . S
C957 C954 1.403 . S
C957 C958 1.392 . S
C957 C961 1.495 . S
C958 C957 1.392 . S
C958 C959 1.385 . S
C958 C960 1.478 . S
C959 H953 0.930 . S
C959 C955 1.400 . S
C959 C958 1.385 . S
C960 C958 1.478 . S
C960 C962 1.381 . S
C960 C966 1.383 . S
C961 C957 1.495 . S
C961 H967 0.959 . S
C961 H968 0.961 . S
C961 H969 0.960 . S
C962 C960 1.381 . S
C962 C963 1.394 . S
C962 H970 0.930 . S
C963 C962 1.394 . S
C963 C964 1.383 1_554 S
C963 H971 0.929 1_554 S
C964 C963 1.383 1_556 S
C964 C965 1.377 . S
C965 H949 0.930 . S
C965 C964 1.377 . S
C965 C966 1.379 1_556 S
C966 H950 0.931 . S
C966 C960 1.383 . S
C966 C965 1.379 1_554 S
H967 C961 0.959 . S
H968 C961 0.961 . S
H969 C961 0.960 . S
H970 C962 0.930 . S
H971 C963 0.929 1_556 S
H972 C980 0.929 . S
H973 C982 0.930 . S
H974 C984 0.930 . S
H975 C987 0.929 . S
H976 C990 0.930 . S
H977 C992 0.960 . S
H978 C992 0.960 . S
H979 C992 0.960 . S
C980 H972 0.929 . S
C980 C981 1.377 . S
C980 C982 1.384 . S
C981 C980 1.377 . S
C981 C987 1.390 . S
C982 H973 0.930 . S
C982 C980 1.384 . S
C982 C983 1.372 . S
C983 C982 1.372 . S
C983 C984 1.400 . S
C983 C988 1.490 . S
C984 H974 0.930 . S
C984 C983 1.400 . S
C984 C987 1.386 . S
H985 C1001 0.930 . S
H986 C1002 0.931 . S
C987 H975 0.929 . S
C987 C981 1.390 . S
C987 C984 1.386 . S
C988 C983 1.490 . S
C988 C990 1.395 . S
C988 C991 1.403 . S
H989 C995 0.930 . S
C990 H976 0.930 . S
C990 C988 1.395 . S
C990 C993 1.403 . S
C991 C988 1.403 . S
C991 C992 1.524 . S
C991 C995 1.400 . S
C992 H977 0.960 . S
C992 H978 0.960 . S
C992 H979 0.960 . S
C992 C991 1.524 . S
C993 C990 1.403 . S
C993 C994 1.392 . S
C993 C997 1.495 . S
C994 C993 1.392 . S
C994 C995 1.385 . S
C994 C996 1.478 . S
C995 H989 0.930 . S
C995 C991 1.400 . S
C995 C994 1.385 . S
C996 C994 1.478 . S
C996 C998 1.381 . S
C996 C1002 1.383 . S
C997 C993 1.495 . S
C997 H1003 0.959 . S
C997 H1004 0.961 . S
C997 H1005 0.960 . S
C998 C996 1.381 . S
C998 C999 1.394 . S
C998 H1006 0.930 . S
C999 C998 1.394 . S
C999 C1000 1.383 . S
C999 H1007 0.929 . S
C1000 C999 1.383 . S
C1000 C1001 1.377 . S
C1001 H985 0.930 . S
C1001 C1000 1.377 . S
C1001 C1002 1.379 . S
C1002 H986 0.931 . S
C1002 C996 1.383 . S
C1002 C1001 1.379 . S
H1003 C997 0.959 . S
H1004 C997 0.961 . S
H1005 C997 0.960 . S
H1006 C998 0.930 . S
H1007 C999 0.929 . S
H1008 C1016 0.929 . S
H1009 C1018 0.930 . S
H1010 C1020 0.930 . S
H1011 C1023 0.929 . S
H1012 C1026 0.930 . S
H1013 C1028 0.960 . S
H1014 C1028 0.960 . S
H1015 C1028 0.960 . S
C1016 H1008 0.929 . S
C1016 C1017 1.377 . S
C1016 C1018 1.384 . S
C1017 C1016 1.377 . S
C1017 C1023 1.390 . S
C1018 H1009 0.930 . S
C1018 C1016 1.384 . S
C1018 C1019 1.372 . S
C1019 C1018 1.372 . S
C1019 C1020 1.400 . S
C1019 C1024 1.490 . S
C1020 H1010 0.930 . S
C1020 C1019 1.400 . S
C1020 C1023 1.386 . S
H1021 C1037 0.930 . S
H1022 C1038 0.931 . S
C1023 H1011 0.929 . S
C1023 C1017 1.390 . S
C1023 C1020 1.386 . S
C1024 C1019 1.490 . S
C1024 C1026 1.395 . S
C1024 C1027 1.403 . S
H1025 C1031 0.930 . S
C1026 H1012 0.930 . S
C1026 C1024 1.395 . S
C1026 C1029 1.403 . S
C1027 C1024 1.403 . S
C1027 C1028 1.524 . S
C1027 C1031 1.400 . S
C1028 H1013 0.960 . S
C1028 H1014 0.960 . S
C1028 H1015 0.960 . S
C1028 C1027 1.524 . S
C1029 C1026 1.403 . S
C1029 C1030 1.392 . S
C1029 C1033 1.495 . S
C1030 C1029 1.392 . S
C1030 C1031 1.385 . S
C1030 C1032 1.478 . S
C1031 H1025 0.930 . S
C1031 C1027 1.400 . S
C1031 C1030 1.385 . S
C1032 C1030 1.478 . S
C1032 C1034 1.381 . S
C1032 C1038 1.383 . S
C1033 C1029 1.495 . S
C1033 H1039 0.959 . S
C1033 H1040 0.961 . S
C1033 H1041 0.960 . S
C1034 C1032 1.381 . S
C1034 C1035 1.394 . S
C1034 H1042 0.930 . S
C1035 C1034 1.394 . S
C1035 C1036 1.383 . S
C1035 H1043 0.929 . S
C1036 C1035 1.383 . S
C1036 C1037 1.377 . S
C1037 H1021 0.930 . S
C1037 C1036 1.377 . S
C1037 C1038 1.379 . S
C1038 H1022 0.931 . S
C1038 C1032 1.383 . S
C1038 C1037 1.379 . S
H1039 C1033 0.959 . S
H1040 C1033 0.961 . S
H1041 C1033 0.960 . S
H1042 C1034 0.930 . S
H1043 C1035 0.929 . S
H1044 C1052 0.929 . S
H1045 C1054 0.930 . S
H1046 C1056 0.930 . S
H1047 C1059 0.929 . S
H1048 C1062 0.930 . S
H1049 C1064 0.960 . S
H1050 C1064 0.960 . S
H1051 C1064 0.960 . S
C1052 H1044 0.929 . S
C1052 C1053 1.377 . S
C1052 C1054 1.384 . S
C1053 C1052 1.377 . S
C1053 C1059 1.390 . S
C1054 H1045 0.930 . S
C1054 C1052 1.384 . S
C1054 C1055 1.372 . S
C1055 C1054 1.372 . S
C1055 C1056 1.400 . S
C1055 C1060 1.490 . S
C1056 H1046 0.930 . S
C1056 C1055 1.400 . S
C1056 C1059 1.386 . S
H1057 C1073 0.930 . S
H1058 C1074 0.931 . S
C1059 H1047 0.929 . S
C1059 C1053 1.390 . S
C1059 C1056 1.386 . S
C1060 C1055 1.490 . S
C1060 C1062 1.395 . S
C1060 C1063 1.403 . S
H1061 C1067 0.930 . S
C1062 H1048 0.930 . S
C1062 C1060 1.395 . S
C1062 C1065 1.403 . S
C1063 C1060 1.403 . S
C1063 C1064 1.524 . S
C1063 C1067 1.400 . S
C1064 H1049 0.960 . S
C1064 H1050 0.960 . S
C1064 H1051 0.960 . S
C1064 C1063 1.524 . S
C1065 C1062 1.403 . S
C1065 C1066 1.392 . S
C1065 C1069 1.495 . S
C1066 C1065 1.392 . S
C1066 C1067 1.385 . S
C1066 C1068 1.478 . S
C1067 H1061 0.930 . S
C1067 C1063 1.400 . S
C1067 C1066 1.385 . S
C1068 C1066 1.478 . S
C1068 C1070 1.381 . S
C1068 C1074 1.383 . S
C1069 C1065 1.495 . S
C1069 H1075 0.959 . S
C1069 H1076 0.961 . S
C1069 H1077 0.960 . S
C1070 C1068 1.381 . S
C1070 C1071 1.394 . S
C1070 H1078 0.930 . S
C1071 C1070 1.394 . S
C1071 C1072 1.383 . S
C1071 H1079 0.929 . S
C1072 C1071 1.383 . S
C1072 C1073 1.377 . S
C1073 H1057 0.930 . S
C1073 C1072 1.377 . S
C1073 C1074 1.379 . S
C1074 H1058 0.931 . S
C1074 C1068 1.383 . S
C1074 C1073 1.379 . S
H1075 C1069 0.959 . S
H1076 C1069 0.961 . S
H1077 C1069 0.960 . S
H1078 C1070 0.930 . S
H1079 C1071 0.929 . S
H1080 C1088 0.929 . S
H1081 C1090 0.930 . S
H1082 C1092 0.930 . S
H1083 C1095 0.929 . S
H1084 C1098 0.930 . S
H1085 C1100 0.960 . S
H1086 C1100 0.969 1_455 S
H1087 C1100 0.960 1_455 S
C1088 H1080 0.929 . S
C1088 C1089 1.377 . S
C1088 C1090 1.384 . S
C1089 C1088 1.377 . S
C1089 C1095 1.390 . S
C1090 H1081 0.930 . S
C1090 C1088 1.384 . S
C1090 C1091 1.372 . S
C1091 C1090 1.372 . S
C1091 C1092 1.400 . S
C1091 C1096 1.490 . S
C1092 H1082 0.930 . S
C1092 C1091 1.400 . S
C1092 C1095 1.386 . S
H1093 C1109 0.930 . S
H1094 C1110 0.931 . S
C1095 H1083 0.929 . S
C1095 C1089 1.390 . S
C1095 C1092 1.386 . S
C1096 C1091 1.490 . S
C1096 C1098 1.395 . S
C1096 C1099 1.383 1_455 S
H1097 C1103 0.930 . S
C1098 H1084 0.930 . S
C1098 C1096 1.395 . S
C1098 C1101 1.403 . S
C1099 C1096 1.383 1_655 S
C1099 C1100 1.524 . S
C1099 C1103 1.422 . S
C1100 H1085 0.960 . S
C1100 H1086 0.969 1_655 S
C1100 H1087 0.960 1_655 S
C1100 C1099 1.524 . S
C1101 C1098 1.403 . S
C1101 C1102 1.392 1_455 S
C1101 C1105 1.495 . S
C1102 C1101 1.392 1_655 S
C1102 C1103 1.385 . S
C1102 C1104 1.478 . S
C1103 H1097 0.930 . S
C1103 C1099 1.422 . S
C1103 C1102 1.385 . S
C1104 C1102 1.478 . S
C1104 C1106 1.381 . S
C1104 C1110 1.383 . S
C1105 C1101 1.495 . S
C1105 H1111 0.959 . S
C1105 H1112 0.960 . S
C1105 H1113 0.960 1_455 S
C1106 C1104 1.381 . S
C1106 C1107 1.394 . S
C1106 H1114 0.930 . S
C1107 C1106 1.394 . S
C1107 C1108 1.383 . S
C1107 H1115 0.929 . S
C1108 C1107 1.383 . S
C1108 C1109 1.377 . S
C1109 H1093 0.930 . S
C1109 C1108 1.377 . S
C1109 C1110 1.379 . S
C1110 H1094 0.931 . S
C1110 C1104 1.383 . S
C1110 C1109 1.379 . S
H1111 C1105 0.959 . S
H1112 C1105 0.960 . S
H1113 C1105 0.960 1_655 S
H1114 C1106 0.930 . S
H1115 C1107 0.929 . S
H1116 C1124 0.929 . S
H1117 C1126 0.930 . S
H1118 C1128 0.930 1_554 S
H1119 C1131 0.929 . S
H1120 C1134 0.930 . S
H1121 C1136 0.947 1_544 S
H1122 C1136 0.960 . S
H1123 C1136 0.960 1_554 S
C1124 H1116 0.929 . S
C1124 C1125 1.377 . S
C1124 C1126 1.384 . S
C1125 C1124 1.377 . S
C1125 C1131 1.390 . S
C1126 H1117 0.930 . S
C1126 C1124 1.384 . S
C1126 C1127 1.372 . S
C1127 C1126 1.372 . S
C1127 C1128 1.400 . S
C1127 C1132 1.490 1_556 S
C1128 H1118 0.930 1_556 S
C1128 C1127 1.400 . S
C1128 C1131 1.386 . S
H1129 C1145 0.930 . S
H1130 C1146 0.931 . S
C1131 H1119 0.929 . S
C1131 C1125 1.390 . S
C1131 C1128 1.386 . S
C1132 C1127 1.490 1_554 S
C1132 C1134 1.395 . S
C1132 C1135 1.403 . S
H1133 C1139 0.930 . S
C1134 H1120 0.930 . S
C1134 C1132 1.395 . S
C1134 C1137 1.403 1_565 S
C1135 C1132 1.403 . S
C1135 C1136 1.524 1_554 S
C1135 C1139 1.400 1_565 S
C1136 H1121 0.947 1_566 S
C1136 H1122 0.960 . S
C1136 H1123 0.960 1_556 S
C1136 C1135 1.524 1_556 S
C1137 C1134 1.403 1_545 S
C1137 C1138 1.392 . S
C1137 C1141 1.495 . S
C1138 C1137 1.392 . S
C1138 C1139 1.385 . S
C1138 C1140 1.478 . S
C1139 H1133 0.930 . S
C1139 C1135 1.400 1_545 S
C1139 C1138 1.385 . S
C1140 C1138 1.478 . S
C1140 C1142 1.381 . S
C1140 C1146 1.383 . S
C1141 C1137 1.495 . S
C1141 H1147 0.959 . S
C1141 H1148 0.961 . S
C1141 H1149 0.960 . S
C1142 C1140 1.381 . S
C1142 C1143 1.394 . S
C1142 H1150 0.930 . S
C1143 C1142 1.394 . S
C1143 C1144 1.383 . S
C1143 H1151 0.929 . S
C1144 C1143 1.383 . S
C1144 C1145 1.377 . S
C1145 H1129 0.930 . S
C1145 C1144 1.377 . S
C1145 C1146 1.379 . S
C1146 H1130 0.931 . S
C1146 C1140 1.383 . S
C1146 C1145 1.379 . S
H1147 C1141 0.959 . S
H1148 C1141 0.961 . S
H1149 C1141 0.960 . S
H1150 C1142 0.930 . S
H1151 C1143 0.929 . S
H1152 C1160 0.929 . S
H1153 C1162 0.930 . S
H1154 C1164 0.930 . S
H1155 C1167 0.929 . S
H1156 C1170 0.930 . S
H1157 C1172 0.960 . S
H1158 C1172 0.960 . S
H1159 C1172 0.960 . S
C1160 H1152 0.929 . S
C1160 C1161 1.377 . S
C1160 C1162 1.384 . S
C1161 C1160 1.377 . S
C1161 C1167 1.390 . S
C1162 H1153 0.930 . S
C1162 C1160 1.384 . S
C1162 C1163 1.372 . S
C1163 C1162 1.372 . S
C1163 C1164 1.400 . S
C1163 C1168 1.490 . S
C1164 H1154 0.930 . S
C1164 C1163 1.400 . S
C1164 C1167 1.386 . S
H1165 C1181 0.930 . S
H1166 C1182 0.931 . S
C1167 H1155 0.929 . S
C1167 C1161 1.390 . S
C1167 C1164 1.386 . S
C1168 C1163 1.490 . S
C1168 C1170 1.395 . S
C1168 C1171 1.403 . S
H1169 C1175 0.930 . S
C1170 H1156 0.930 . S
C1170 C1168 1.395 . S
C1170 C1173 1.403 . S
C1171 C1168 1.403 . S
C1171 C1172 1.524 . S
C1171 C1175 1.400 . S
C1172 H1157 0.960 . S
C1172 H1158 0.960 . S
C1172 H1159 0.960 . S
C1172 C1171 1.524 . S
C1173 C1170 1.403 . S
C1173 C1174 1.392 . S
C1173 C1177 1.495 . S
C1174 C1173 1.392 . S
C1174 C1175 1.385 . S
C1174 C1176 1.478 . S
C1175 H1169 0.930 . S
C1175 C1171 1.400 . S
C1175 C1174 1.385 . S
C1176 C1174 1.478 . S
C1176 C1178 1.381 . S
C1176 C1182 1.383 . S
C1177 C1173 1.495 . S
C1177 H1183 0.959 . S
C1177 H1184 0.961 . S
C1177 H1185 0.960 . S
C1178 C1176 1.381 . S
C1178 C1179 1.394 . S
C1178 H1186 0.930 . S
C1179 C1178 1.394 . S
C1179 C1180 1.383 . S
C1179 H1187 0.929 . S
C1180 C1179 1.383 . S
C1180 C1181 1.377 . S
C1181 H1165 0.930 . S
C1181 C1180 1.377 . S
C1181 C1182 1.379 . S
C1182 H1166 0.931 . S
C1182 C1176 1.383 . S
C1182 C1181 1.379 . S
H1183 C1177 0.959 . S
H1184 C1177 0.961 . S
H1185 C1177 0.960 . S
H1186 C1178 0.930 . S
H1187 C1179 0.929 . S
H1188 C1196 0.929 . S
H1189 C1198 0.930 . S
H1190 C1200 0.930 . S
H1191 C1203 0.929 . S
H1192 C1206 0.930 . S
H1193 C1208 0.954 1_655 S
H1194 C1208 0.962 . S
H1195 C1208 0.962 . S
C1196 H1188 0.929 . S
C1196 C1197 1.377 . S
C1196 C1198 1.384 . S
C1197 C1196 1.377 . S
C1197 C1203 1.390 . S
C1198 H1189 0.930 . S
C1198 C1196 1.384 . S
C1198 C1199 1.372 . S
C1199 C1198 1.372 . S
C1199 C1200 1.400 . S
C1199 C1204 1.490 . S
C1200 H1190 0.930 . S
C1200 C1199 1.400 . S
C1200 C1203 1.386 . S
H1201 C1217 0.930 . S
H1202 C1218 0.931 . S
C1203 H1191 0.929 . S
C1203 C1197 1.390 . S
C1203 C1200 1.386 . S
C1204 C1199 1.490 . S
C1204 C1206 1.395 . S
C1204 C1207 1.403 . S
H1205 C1211 0.930 . S
C1206 H1192 0.930 . S
C1206 C1204 1.395 . S
C1206 C1209 1.401 1_455 S
C1207 C1204 1.403 . S
C1207 C1208 1.526 . S
C1207 C1211 1.400 1_455 S
C1208 H1193 0.954 1_455 S
C1208 H1194 0.962 . S
C1208 H1195 0.962 . S
C1208 C1207 1.526 . S
C1209 C1206 1.401 1_655 S
C1209 C1210 1.396 . S
C1209 C1213 1.495 1_655 S
C1210 C1209 1.396 . S
C1210 C1211 1.385 . S
C1210 C1212 1.478 . S
C1211 H1205 0.930 . S
C1211 C1207 1.400 1_655 S
C1211 C1210 1.385 . S
C1212 C1210 1.478 . S
C1212 C1214 1.381 . S
C1212 C1218 1.383 . S
C1213 C1209 1.495 1_455 S
C1213 H1219 0.955 . S
C1213 H1220 0.963 1_455 S
C1213 H1221 0.961 1_455 S
C1214 C1212 1.381 . S
C1214 C1215 1.394 . S
C1214 H1222 0.930 . S
C1215 C1214 1.394 . S
C1215 C1216 1.383 . S
C1215 H1223 0.929 . S
C1216 C1215 1.383 . S
C1216 C1217 1.377 . S
C1217 H1201 0.930 . S
C1217 C1216 1.377 . S
C1217 C1218 1.379 . S
C1218 H1202 0.931 . S
C1218 C1212 1.383 . S
C1218 C1217 1.379 . S
H1219 C1213 0.955 . S
H1220 C1213 0.963 1_655 S
H1221 C1213 0.961 1_655 S
H1222 C1214 0.930 . S
H1223 C1215 0.929 . S
H1224 C1232 0.929 . S
H1225 C1234 0.930 . S
H1226 C1236 0.930 . S
H1227 C1239 0.929 . S
H1228 C1242 0.930 . S
H1229 C1244 0.953 . S
H1230 C1244 0.961 1_545 S
H1231 C1244 0.964 1_545 S
C1232 H1224 0.929 . S
C1232 C1233 1.377 . S
C1232 C1234 1.384 . S
C1233 C1232 1.377 . S
C1233 C1239 1.390 . S
C1234 H1225 0.930 . S
C1234 C1232 1.384 . S
C1234 C1235 1.372 . S
C1235 C1234 1.372 . S
C1235 C1236 1.400 . S
C1235 C1240 1.490 . S
C1236 H1226 0.930 . S
C1236 C1235 1.400 . S
C1236 C1239 1.386 . S
H1237 C1253 0.930 . S
H1238 C1254 0.931 . S
C1239 H1227 0.929 . S
C1239 C1233 1.390 . S
C1239 C1236 1.386 . S
C1240 C1235 1.490 . S
C1240 C1242 1.395 . S
C1240 C1243 1.403 . S
H1241 C1247 0.930 . S
C1242 H1228 0.930 . S
C1242 C1240 1.395 . S
C1242 C1245 1.403 . S
C1243 C1240 1.403 . S
C1243 C1244 1.526 1_545 S
C1243 C1247 1.400 1_545 S
C1244 H1229 0.953 . S
C1244 H1230 0.961 1_565 S
C1244 H1231 0.964 1_565 S
C1244 C1243 1.526 1_565 S
C1245 C1242 1.403 . S
C1245 C1246 1.392 1_545 S
C1245 C1249 1.495 . S
C1246 C1245 1.392 1_565 S
C1246 C1247 1.385 . S
C1246 C1248 1.478 . S
C1247 H1241 0.930 . S
C1247 C1243 1.400 1_565 S
C1247 C1246 1.385 . S
C1248 C1246 1.478 . S
C1248 C1250 1.381 . S
C1248 C1254 1.383 . S
C1249 C1245 1.495 . S
C1249 H1255 0.959 . S
C1249 H1256 0.961 1_545 S
C1249 H1257 0.960 1_545 S
C1250 C1248 1.381 . S
C1250 C1251 1.394 . S
C1250 H1258 0.930 . S
C1251 C1250 1.394 . S
C1251 C1252 1.383 . S
C1251 H1259 0.929 . S
C1252 C1251 1.383 . S
C1252 C1253 1.377 . S
C1253 H1237 0.930 . S
C1253 C1252 1.377 . S
C1253 C1254 1.379 . S
C1254 H1238 0.931 . S
C1254 C1248 1.383 . S
C1254 C1253 1.379 . S
H1255 C1249 0.959 . S
H1256 C1249 0.961 1_565 S
H1257 C1249 0.960 1_565 S
H1258 C1250 0.930 . S
H1259 C1251 0.929 . S
H1260 C1268 0.929 . S
H1261 C1270 0.930 . S
H1262 C1272 0.930 . S
H1263 C1275 0.929 . S
H1264 C1278 0.930 . S
H1265 C1280 0.960 . S
H1266 C1280 0.960 . S
H1267 C1280 0.960 . S
C1268 H1260 0.929 . S
C1268 C1269 1.377 . S
C1268 C1270 1.384 . S
C1269 C1268 1.377 . S
C1269 C1275 1.390 . S
C1270 H1261 0.930 . S
C1270 C1268 1.384 . S
C1270 C1271 1.372 . S
C1271 C1270 1.372 . S
C1271 C1272 1.400 . S
C1271 C1276 1.490 . S
C1272 H1262 0.930 . S
C1272 C1271 1.400 . S
C1272 C1275 1.386 . S
H1273 C1289 0.930 . S
H1274 C1290 0.931 . S
C1275 H1263 0.929 . S
C1275 C1269 1.390 . S
C1275 C1272 1.386 . S
C1276 C1271 1.490 . S
C1276 C1278 1.395 . S
C1276 C1279 1.403 . S
H1277 C1283 0.930 . S
C1278 H1264 0.930 . S
C1278 C1276 1.395 . S
C1278 C1281 1.403 . S
C1279 C1276 1.403 . S
C1279 C1280 1.524 . S
C1279 C1283 1.400 . S
C1280 H1265 0.960 . S
C1280 H1266 0.960 . S
C1280 H1267 0.960 . S
C1280 C1279 1.524 . S
C1281 C1278 1.403 . S
C1281 C1282 1.392 . S
C1281 C1285 1.495 . S
C1282 C1281 1.392 . S
C1282 C1283 1.385 . S
C1282 C1284 1.478 . S
C1283 H1277 0.930 . S
C1283 C1279 1.400 . S
C1283 C1282 1.385 . S
C1284 C1282 1.478 . S
C1284 C1286 1.381 . S
C1284 C1290 1.383 . S
C1285 C1281 1.495 . S
C1285 H1291 0.959 . S
C1285 H1292 0.961 . S
C1285 H1293 0.960 . S
C1286 C1284 1.381 . S
C1286 C1287 1.394 . S
C1286 H1294 0.930 . S
C1287 C1286 1.394 . S
C1287 C1288 1.383 . S
C1287 H1295 0.929 . S
C1288 C1287 1.383 . S
C1288 C1289 1.377 . S
C1289 H1273 0.930 . S
C1289 C1288 1.377 . S
C1289 C1290 1.379 . S
C1290 H1274 0.931 . S
C1290 C1284 1.383 . S
C1290 C1289 1.379 . S
H1291 C1285 0.959 . S
H1292 C1285 0.961 . S
H1293 C1285 0.960 . S
H1294 C1286 0.930 . S
H1295 C1287 0.929 . S
C441 C3 1.257 . S
C460 C363 1.254 . S
C477 C399 1.253 . S
C496 C39 1.250 . S
C513 C75 1.253 . S
C532 C219 1.255 . S
C549 C111 1.254 . S
C568 C255 1.244 . S
C585 C147 1.256 . S
C604 C291 1.248 . S
C621 C327 1.256 . S
C640 C183 1.259 . S
C657 C14 1.574 . S
C676 C302 1.568 . S
C693 C50 1.573 . S
C712 C338 1.558 . S
C729 C374 1.581 . S
C748 C86 1.592 . S
C765 C122 1.573 . S
C784 C410 1.562 . S
C801 C158 1.574 . S
C820 C230 1.553 . S
C837 C194 1.574 . S
C856 C266 1.571 . S
C873 C362 1.379 . S
C892 C2 1.379 . S
C909 C38 1.375 . S
C928 C398 1.383 . S
C945 C74 1.376 . S
C964 C218 1.365 . S
C981 C110 1.379 . S
C1000 C254 1.375 . S
C1017 C290 1.376 . S
C1036 C146 1.364 . S
C1053 C182 1.377 . S
C1072 C326 1.363 . S
C1089 C4 1.314 . S
C1108 C400 1.327 . S
C1125 C220 1.317 . S
C1144 C40 1.306 . S
C1161 C256 1.317 . S
C1180 C76 1.289 . S
C1197 C292 1.316 . S
C1216 C112 1.320 . S
C1233 C328 1.310 . S
C1252 C148 1.332 . S
C1269 C364 1.315 . S
C1288 C184 1.323 . S
