# Generated by pormake.
# Topology vby, (6)-cn, num edge types: 1
# Building blocks:
#     Node 0, Type 0, BuildingBlock: BETDAH_clean_sbu_0, # of connection points: 6
#     Node 1, Type 0, BuildingBlock: BETDAH_clean_sbu_0, # of connection points: 6
#     Node 2, Type 0, BuildingBlock: BETDAH_clean_sbu_0, # of connection points: 6
#     Node 3, Type 0, BuildingBlock: BETDAH_clean_sbu_0, # of connection points: 6
#     Node 4, Type 0, BuildingBlock: BETDAH_clean_sbu_0, # of connection points: 6
#     Node 5, Type 0, BuildingBlock: BETDAH_clean_sbu_0, # of connection points: 6
#     Node 6, Type 0, BuildingBlock: BETDAH_clean_sbu_0, # of connection points: 6
#     Node 7, Type 0, BuildingBlock: BETDAH_clean_sbu_0, # of connection points: 6
#     Edge 8, Type (0, 0), BuildingBlock: MIFKUJ_clean_linker_0, # of connection points: 2
#     Edge 9, Type (0, 0), BuildingBlock: MIFKUJ_clean_linker_0, # of connection points: 2
#     Edge 10, Type (0, 0), BuildingBlock: MIFKUJ_clean_linker_0, # of connection points: 2
#     Edge 11, Type (0, 0), BuildingBlock: MIFKUJ_clean_linker_0, # of connection points: 2
#     Edge 12, Type (0, 0), BuildingBlock: MIFKUJ_clean_linker_0, # of connection points: 2
#     Edge 13, Type (0, 0), BuildingBlock: MIFKUJ_clean_linker_0, # of connection points: 2
#     Edge 14, Type (0, 0), BuildingBlock: MIFKUJ_clean_linker_0, # of connection points: 2
#     Edge 15, Type (0, 0), BuildingBlock: MIFKUJ_clean_linker_0, # of connection points: 2
#     Edge 16, Type (0, 0), BuildingBlock: MIFKUJ_clean_linker_0, # of connection points: 2
#     Edge 17, Type (0, 0), BuildingBlock: MIFKUJ_clean_linker_0, # of connection points: 2
#     Edge 18, Type (0, 0), BuildingBlock: MIFKUJ_clean_linker_0, # of connection points: 2
#     Edge 19, Type (0, 0), BuildingBlock: MIFKUJ_clean_linker_0, # of connection points: 2
#     Edge 20, Type (0, 0), BuildingBlock: MIFKUJ_clean_linker_0, # of connection points: 2
#     Edge 21, Type (0, 0), BuildingBlock: MIFKUJ_clean_linker_0, # of connection points: 2
#     Edge 22, Type (0, 0), BuildingBlock: MIFKUJ_clean_linker_0, # of connection points: 2
#     Edge 23, Type (0, 0), BuildingBlock: MIFKUJ_clean_linker_0, # of connection points: 2
#     Edge 24, Type (0, 0), BuildingBlock: MIFKUJ_clean_linker_0, # of connection points: 2
#     Edge 25, Type (0, 0), BuildingBlock: MIFKUJ_clean_linker_0, # of connection points: 2
#     Edge 26, Type (0, 0), BuildingBlock: MIFKUJ_clean_linker_0, # of connection points: 2
#     Edge 27, Type (0, 0), BuildingBlock: MIFKUJ_clean_linker_0, # of connection points: 2
#     Edge 28, Type (0, 0), BuildingBlock: MIFKUJ_clean_linker_0, # of connection points: 2
#     Edge 29, Type (0, 0), BuildingBlock: MIFKUJ_clean_linker_0, # of connection points: 2
#     Edge 30, Type (0, 0), BuildingBlock: MIFKUJ_clean_linker_0, # of connection points: 2
#     Edge 31, Type (0, 0), BuildingBlock: MIFKUJ_clean_linker_0, # of connection points: 2
# Relax obj value: 0.197
# Max RMSD: 0.214
# Mean RMSD: 0.214
data_MOF--net-vby--node1-BETDAH_clean_sbu_0--edge1-MIFKUJ_clean_linker_0
_symmetry_space_group_name_H-M    P1
_symmetry_Int_Tables_number       1
_symmetry_cell_setting            triclinic
loop_
_symmetry_equiv_pos_as_xyz
'x, y, z'
_cell_length_a     20.216626
_cell_length_b     120.99905
_cell_length_c     38.294795
_cell_angle_alpha  90.025827
_cell_angle_beta   84.850969
_cell_angle_gamma 90.367042
loop_
_atom_site_label
_atom_site_type_symbol
_atom_site_fract_x
_atom_site_fract_y
_atom_site_fract_z
_atom_type_partial_charge
Ho0 Ho 0.07709 0.39754 0.01371 0.0
Ho1 Ho 0.06605 0.37304 0.02303 0.0
C2 C 0.93019 0.38602 0.02461 0.0
C3 C 0.07584 0.41826 0.99474 0.0
C4 C 0.05538 0.42982 0.0035 0.0
C5 C 0.02695 0.4362 0.97817 0.0
C6 C 1.018 0.44763 0.98274 0.0
C7 C 0.03755 0.45303 0.0128 0.0
C8 C 0.06364 0.44654 0.03883 0.0
C9 C 0.07251 0.43509 0.03424 0.0
C10 C 0.07851 0.39079 0.08178 0.0
C11 C 0.21245 0.3843 0.00967 0.0
C12 C 0.07037 0.35225 0.04076 0.0
C13 C 0.10926 0.34181 0.03826 0.0
C14 C 0.11026 0.33514 0.0682 0.0
C15 C 0.13749 0.3245 0.06598 0.0
C16 C 0.16453 0.32018 0.03365 0.0
C17 C 0.16579 0.32706 0.00384 0.0
C18 C 0.13831 0.33772 0.00608 0.0
C19 C 0.05604 0.38012 0.95633 0.0
O20 O 0.96631 0.39441 0.01084 0.0
O21 O 0.95916 0.37736 0.03763 0.0
O22 O 0.12117 0.41385 0.01241 0.0
O23 O 0.03145 0.41103 0.98651 0.0
O24 O 0.11127 0.39912 0.06791 0.0
O25 O 0.04232 0.38688 0.05957 0.0
O26 O 0.177 0.37601 0.02423 0.0
O27 O 0.18261 0.39286 0.99673 0.0
O28 O 0.04642 0.35585 0.01237 0.0
O29 O 0.08973 0.36031 0.06032 0.0
O30 O 1.02183 0.37212 0.97137 0.0
O31 O 0.09724 0.38374 0.97663 0.0
H32 H 1.01422 0.43242 0.95398 0.0
H33 H 0.99847 0.45229 0.96188 0.0
H34 H 0.07824 0.45032 0.06261 0.0
H35 H 0.09485 0.43046 0.05427 0.0
H36 H 0.0879 0.33803 0.0933 0.0
H37 H 0.13658 0.31959 0.08966 0.0
H38 H 0.18568 0.32405 0.97843 0.0
H39 H 0.13794 0.34261 0.98242 0.0
Ho40 Ho 0.98711 0.65343 0.0188 0.0
Ho41 Ho 0.97545 0.62886 0.02705 0.0
C42 C 0.84044 0.64218 0.03143 0.0
C43 C 0.98313 0.67425 0.00145 0.0
C44 C 0.94428 0.6847 0.004 0.0
C45 C 0.94135 0.6912 0.9738 0.0
C46 C 0.9142 0.70185 0.97591 0.0
C47 C 0.88924 0.70634 0.00836 0.0
C48 C 0.88992 0.69964 0.03847 0.0
C49 C 0.91727 0.68897 0.03634 0.0
C50 C 0.99657 0.64613 0.08518 0.0
C51 C 0.12274 0.64033 0.01666 0.0
C52 C 0.97584 0.60806 0.04512 0.0
C53 C 0.99742 0.59651 0.03692 0.0
C54 C 1.0252 0.59025 0.06278 0.0
C55 C 0.03467 0.57882 0.05869 0.0
C56 C 1.01625 0.57328 0.02861 0.0
C57 C 0.99092 0.57966 0.00207 0.0
C58 C 0.98155 0.5911 0.00617 0.0
C59 C 0.97452 0.63621 0.95951 0.0
O60 O 0.87611 0.65052 0.01729 0.0
O61 O 0.87003 0.63354 0.04408 0.0
O62 O 1.00682 0.6706 0.02984 0.0
O63 O 0.96394 0.66624 0.98167 0.0
O64 O 0.03067 0.65421 0.07055 0.0
O65 O 0.95559 0.64253 0.06468 0.0
O66 O 0.08651 0.63186 0.0298 0.0
O67 O 0.09391 0.6491 0.00419 0.0
O68 O 0.93279 0.61248 0.02598 0.0
O69 O 1.01857 0.6153 0.05512 0.0
O70 O 0.94119 0.62781 0.97247 0.0
O71 O 1.01114 0.63969 0.98206 0.0
H72 H 0.96213 0.68816 0.94856 0.0
H73 H 0.91355 0.70662 0.95203 0.0
H74 H 0.87167 0.70279 0.06398 0.0
H75 H 0.91915 0.68422 0.06019 0.0
H76 H 0.03691 0.59413 0.08701 0.0
H77 H 0.05364 0.57425 0.07991 0.0
H78 H 0.9772 0.57577 0.97826 0.0
H79 H 0.95971 0.59563 0.98574 0.0
Ho80 Ho 0.06543 0.65274 0.52314 0.0
Ho81 Ho 0.07493 0.62832 0.51281 0.0
C82 C 0.21124 0.64153 0.50942 0.0
C83 C 0.07251 0.67341 0.54193 0.0
C84 C 0.10981 0.68402 0.53543 0.0
C85 C 0.14424 0.68874 0.56213 0.0
C86 C 0.17146 0.69943 0.55857 0.0
C87 C 0.1645 0.70578 0.52828 0.0
C88 C 0.13167 0.70091 0.50113 0.0
C89 C 0.10468 0.69021 0.50465 0.0
C90 C 0.05558 0.64615 0.45592 0.0
C91 C 0.92935 0.63977 0.52393 0.0
C92 C 0.07096 0.60767 0.49328 0.0
C93 C 0.05351 0.59606 0.50354 0.0
C94 C 1.01335 0.5898 0.48273 0.0
C95 C 1.00531 0.57837 0.48783 0.0
C96 C 0.03764 0.57284 0.51379 0.0
C97 C 0.07583 0.5792 0.53551 0.0
C98 C 0.08371 0.59065 0.53045 0.0
C99 C 0.07648 0.63485 0.58121 0.0
O100 O 0.17621 0.64976 0.52424 0.0
O101 O 0.18089 0.63303 0.49608 0.0
O102 O 0.03697 0.66979 0.51747 0.0
O103 O 0.10069 0.66537 0.55782 0.0
O104 O 1.02341 0.65426 0.4711 0.0
O105 O 0.09578 0.64225 0.47613 0.0
O106 O 0.96516 0.63172 0.50836 0.0
O107 O 0.95899 0.6481 0.53881 0.0
O108 O 0.12095 0.61229 0.50703 0.0
O109 O 1.02355 0.61469 0.48894 0.0
O110 O 0.1085 0.62652 0.56726 0.0
O111 O 0.04072 0.63876 0.55903 0.0
H112 H 0.1482 0.68429 0.5864 0.0
H113 H 0.19569 0.70289 0.58023 0.0
H114 H 0.12614 0.70544 0.47718 0.0
H115 H 0.0782 0.68692 0.48355 0.0
H116 H 0.99028 0.59369 0.46146 0.0
H117 H 0.97606 0.57379 0.47033 0.0
H118 H 0.1006 0.5753 0.55615 0.0
H119 H 0.11526 0.59518 0.54692 0.0
Ho120 Ho 0.98192 0.39733 0.52949 0.0
Ho121 Ho 0.99131 0.37297 0.51694 0.0
C122 C 0.1274 0.38584 0.51782 0.0
C123 C 0.98638 0.41778 0.55104 0.0
C124 C 1.00206 0.42947 0.54113 0.0
C125 C 0.04162 0.4358 0.56203 0.0
C126 C 0.04878 0.44725 0.55701 0.0
C127 C 1.01615 0.45272 0.53104 0.0
C128 C 0.97834 0.44629 0.50931 0.0
C129 C 0.97136 0.43482 0.51428 0.0
C130 C 0.97962 0.39151 0.46063 0.0
C131 C 0.8455 0.38407 0.53213 0.0
C132 C 0.98499 0.35252 0.49591 0.0
C133 C 0.94633 0.342 0.49966 0.0
C134 C 0.93413 0.33602 0.46942 0.0
C135 C 0.90649 0.32536 0.4719 0.0
C136 C 0.89042 0.32032 0.50478 0.0
C137 C 0.90048 0.3265 0.53513 0.0
C138 C 0.92818 0.33718 0.53261 0.0
C139 C 1.00166 0.37907 0.58463 0.0
O140 O 0.0915 0.39378 0.53396 0.0
O141 O 0.09796 0.37764 0.50224 0.0
O142 O 0.93495 0.41318 0.53858 0.0
O143 O 0.035 0.41082 0.55309 0.0
O144 O 0.94833 0.39978 0.47542 0.0
O145 O 1.01544 0.38727 0.48225 0.0
O146 O 0.88039 0.37592 0.51675 0.0
O147 O 0.87591 0.39252 0.54578 0.0
O148 O 1.0161 0.35576 0.52257 0.0
O149 O 0.96028 0.36079 0.47949 0.0
O150 O 0.0342 0.3711 0.56875 0.0
O151 O 0.96124 0.38306 0.56474 0.0
H152 H 0.06506 0.43195 0.58325 0.0
H153 H 0.0777 0.45189 0.57454 0.0
H154 H 0.95333 0.45014 0.48868 0.0
H155 H 0.94028 0.43022 0.49775 0.0
H156 H 0.94791 0.33949 0.44367 0.0
H157 H 0.89845 0.321 0.44793 0.0
H158 H 0.88937 0.32292 0.56091 0.0
H159 H 0.93727 0.34153 0.55647 0.0
Ho160 Ho 0.5758 0.8978 0.01245 0.0
Ho161 Ho 0.56506 0.87329 0.02214 0.0
C162 C 0.42904 0.88625 0.02349 0.0
C163 C 0.57468 0.91847 0.99304 0.0
C164 C 0.55363 0.93002 0.00134 0.0
C165 C 0.53106 0.93658 0.97465 0.0
C166 C 0.52195 0.94799 0.9793 0.0
C167 C 0.53535 0.95321 0.01086 0.0
C168 C 0.55549 0.94652 0.03812 0.0
C169 C 0.56462 0.93509 0.03342 0.0
C170 C 0.57696 0.89114 0.08062 0.0
C171 C 0.71136 0.88458 0.00866 0.0
C172 C 0.56971 0.85256 0.04043 0.0
C173 C 0.60861 0.84212 0.03773 0.0
C174 C 0.61193 0.83562 0.06788 0.0
C175 C 0.63922 0.82498 0.06568 0.0
C176 C 0.66394 0.8205 0.03315 0.0
C177 C 0.66289 0.82721 0.00308 0.0
C178 C 0.63539 0.83787 0.00531 0.0
C179 C 0.55533 0.88023 0.95527 0.0
O180 O 0.46503 0.89465 0.00974 0.0
O181 O 0.45809 0.8776 0.03654 0.0
O182 O 0.61922 0.91415 0.01143 0.0
O183 O 0.53088 0.91119 0.98446 0.0
O184 O 0.60961 0.89948 0.06671 0.0
O185 O 0.541 0.88718 0.05839 0.0
O186 O 0.676 0.87627 0.02316 0.0
O187 O 0.68148 0.89315 0.99576 0.0
O188 O 0.54448 0.85607 0.01231 0.0
O189 O 0.59001 0.86067 0.05949 0.0
O190 O 0.52156 0.87218 0.97034 0.0
O191 O 0.59621 0.88394 0.97562 0.0
H192 H 0.52317 0.93295 0.94948 0.0
H193 H 0.50721 0.9528 0.95748 0.0
H194 H 0.56523 0.95015 0.06302 0.0
H195 H 0.58235 0.93029 0.05451 0.0
H196 H 0.59136 0.83864 0.09318 0.0
H197 H 0.64016 0.82021 0.08953 0.0
H198 H 0.68096 0.82407 0.97753 0.0
H199 H 0.63322 0.84263 0.9815 0.0
Ho200 Ho 0.48631 0.15317 0.017 0.0
Ho201 Ho 0.47588 0.12868 0.02787 0.0
C202 C 0.34011 0.14184 0.03029 0.0
C203 C 0.48162 0.17379 0.9975 0.0
C204 C 0.44353 0.1843 1.00057 0.0
C205 C 0.44209 0.19104 0.97083 0.0
C206 C 0.41524 0.20171 0.97348 0.0
C207 C 0.389 0.20596 0.00604 0.0
C208 C 0.38818 0.19902 0.03567 0.0
C209 C 0.41532 0.18833 0.033 0.0
C210 C 0.49385 0.14663 0.0845 0.0
C211 C 0.62231 0.14029 0.01693 0.0
C212 C 0.47751 0.10813 0.04852 0.0
C213 C 0.49848 0.09657 0.04041 0.0
C214 C 0.52125 0.09005 0.06716 0.0
C215 C 0.53053 0.07864 0.06262 0.0
C216 C 0.51714 0.07338 0.03113 0.0
C217 C 0.4968 0.08003 0.00382 0.0
C218 C 0.48748 0.09146 0.0084 0.0
C219 C 0.47585 0.13498 0.95921 0.0
O220 O 0.3756 0.15009 0.01549 0.0
O221 O 0.36985 0.13336 0.04378 0.0
O222 O 0.50925 0.17041 0.02505 0.0
O223 O 0.45879 0.1656 0.97966 0.0
O224 O 0.52746 0.15468 0.06937 0.0
O225 O 0.45422 0.1427 0.06385 0.0
O226 O 0.58618 0.13201 0.03144 0.0
O227 O 0.59331 0.14877 0.00288 0.0
O228 O 0.43212 0.11235 0.03046 0.0
O229 O 0.52176 0.11546 0.05616 0.0
O230 O 0.44389 0.12659 0.97329 0.0
O231 O 0.51106 0.1391 0.98153 0.0
H232 H 0.46374 0.18819 0.94555 0.0
H233 H 0.41576 0.20667 0.94994 0.0
H234 H 0.36887 0.20198 0.06123 0.0
H235 H 0.41604 0.18336 0.05649 0.0
H236 H 0.5292 0.09372 0.09227 0.0
H237 H 0.54545 0.07387 0.08447 0.0
H238 H 0.48708 0.07637 0.97897 0.0
H239 H 0.46965 0.09623 0.98727 0.0
Ho240 Ho 0.56759 0.15284 0.52211 0.0
Ho241 Ho 0.57699 0.12838 0.51179 0.0
C242 C 0.71356 0.14177 0.5074 0.0
C243 C 0.57354 0.17348 0.54122 0.0
C244 C 0.61242 0.18398 0.53731 0.0
C245 C 0.62501 0.18997 0.56747 0.0
C246 C 0.65246 0.20065 0.56486 0.0
C247 C 0.66793 0.20569 0.53195 0.0
C248 C 0.65756 0.1995 0.50167 0.0
C249 C 0.63005 0.1888 0.50431 0.0
C250 C 0.55653 0.14612 0.45517 0.0
C251 C 0.4312 0.13989 0.52275 0.0
C252 C 0.57374 0.10781 0.49155 0.0
C253 C 0.55338 0.09623 0.50026 0.0
C254 C 0.52903 0.0896 0.47411 0.0
C255 C 0.5199 0.07819 0.47906 0.0
C256 C 0.53501 0.07305 0.51037 0.0
C257 C 0.55699 0.07981 0.53713 0.0
C258 C 0.56617 0.09124 0.53213 0.0
C259 C 0.57824 0.1348 0.58036 0.0
O260 O 0.67869 0.15006 0.52197 0.0
O261 O 0.68313 0.1331 0.49505 0.0
O262 O 0.54422 0.17 0.51423 0.0
O263 O 0.59672 0.16536 0.55897 0.0
O264 O 0.5237 0.15416 0.47045 0.0
O265 O 0.5974 0.14232 0.47521 0.0
O266 O 0.46679 0.13164 0.50818 0.0
O267 O 0.46077 0.14835 0.53693 0.0
O268 O 0.62081 0.11215 0.50837 0.0
O269 O 0.52864 0.11502 0.48495 0.0
O270 O 0.6096 0.12642 0.56628 0.0
O271 O 0.54296 0.13885 0.5581 0.0
H272 H 0.61159 0.18651 0.59325 0.0
H273 H 0.66075 0.20501 0.58878 0.0
H274 H 0.66823 0.20308 0.47586 0.0
H275 H 0.62061 0.18446 0.48049 0.0
H276 H 0.51967 0.09318 0.44911 0.0
H277 H 0.50373 0.07333 0.45761 0.0
H278 H 0.56809 0.07623 0.56184 0.0
H279 H 0.58525 0.09611 0.55279 0.0
Ho280 Ho 0.47841 0.89763 0.52816 0.0
Ho281 Ho 0.4891 0.87332 0.51637 0.0
C282 C 0.62488 0.88646 0.51549 0.0
C283 C 0.48047 0.91812 0.5493 0.0
C284 C 0.50044 0.92974 0.54093 0.0
C285 C 0.52353 0.93638 0.56741 0.0
C286 C 0.53226 0.94781 0.56265 0.0
C287 C 0.51794 0.95295 0.53121 0.0
C288 C 0.49714 0.94619 0.50415 0.0
C289 C 0.48841 0.93474 0.50896 0.0
C290 C 0.47612 0.89158 0.45947 0.0
C291 C 0.34271 0.88426 0.5311 0.0
C292 C 0.48264 0.85271 0.49675 0.0
C293 C 0.44544 0.84208 0.50287 0.0
C294 C 0.41223 0.83733 0.47575 0.0
C295 C 0.385 0.82663 0.47909 0.0
C296 C 0.3908 0.82031 0.50955 0.0
C297 C 0.42247 0.8252 0.53707 0.0
C298 C 0.44941 0.83591 0.53379 0.0
C299 C 0.49858 0.87965 0.58392 0.0
O300 O 0.58895 0.89449 0.53115 0.0
O301 O 0.59536 0.87809 0.50072 0.0
O302 O 0.43381 0.91379 0.53218 0.0
O303 O 0.52581 0.91094 0.55575 0.0
O304 O 0.44379 0.89975 0.47421 0.0
O305 O 0.51256 0.88749 0.48109 0.0
O306 O 0.37805 0.87618 0.51557 0.0
O307 O 0.37285 0.89269 0.54499 0.0
O308 O 0.51796 0.85626 0.52141 0.0
O309 O 0.45438 0.86079 0.48112 0.0
O310 O 0.53195 0.87173 0.56832 0.0
O311 O 0.45794 0.88347 0.56387 0.0
H312 H 0.53222 0.93279 0.5925 0.0
H313 H 0.54752 0.95267 0.5843 0.0
H314 H 0.48665 0.94977 0.47936 0.0
H315 H 0.47027 0.92986 0.48805 0.0
H316 H 0.40922 0.84177 0.45138 0.0
H317 H 0.36166 0.82315 0.45717 0.0
H318 H 0.42709 0.82068 0.56114 0.0
H319 H 0.47493 0.83922 0.55521 0.0
H320 H 0.30107 0.40074 0.98774 0.0
H321 H 0.42142 0.40107 0.99008 0.0
H322 H 0.41366 0.36799 0.03218 0.0
H323 H 0.29282 0.36772 0.03069 0.0
H324 H 0.49334 0.37995 0.06718 0.0
H325 H 0.47408 0.37436 0.94441 0.0
H326 H 0.43576 0.37843 0.88646 0.0
H327 H 0.5315 0.41021 0.88609 0.0
H328 H 0.56968 0.4064 0.94427 0.0
H329 H 0.84085 0.36958 0.04543 0.0
H330 H 0.72076 0.36934 0.04236 0.0
H331 H 0.73012 0.40244 1.00043 0.0
H332 H 0.85086 0.40263 0.00262 0.0
H333 H 0.64967 0.39058 0.96535 0.0
H334 H 0.66905 0.39618 0.08799 0.0
H335 H 0.70757 0.39214 0.14592 0.0
H336 H 0.61156 0.36037 0.14656 0.0
H337 H 0.5732 0.36416 0.0884 0.0
C338 C 0.32484 0.39348 0.99722 0.0
C339 C 0.28672 0.38418 0.00885 0.0
C340 C 0.3941 0.39366 0.99844 0.0
C341 C 0.42757 0.3845 0.01092 0.0
C342 C 0.38958 0.37519 0.02241 0.0
C343 C 0.32022 0.37502 0.02137 0.0
C344 C 0.50166 0.38473 0.0128 0.0
C345 C 0.52743 0.38212 0.0447 0.0
C346 C 0.54684 0.38784 0.9839 0.0
C347 C 0.5242 0.39013 0.94885 0.0
C348 C 0.48657 0.38225 0.93208 0.0
C349 C 0.46493 0.38451 0.89917 0.0
C350 C 0.48104 0.39458 0.88264 0.0
C351 C 0.51899 0.40242 0.89894 0.0
C352 C 0.54069 0.40021 0.93187 0.0
C353 C 0.81753 0.37687 0.03578 0.0
C354 C 0.85606 0.38616 0.0245 0.0
C355 C 0.7484 0.37673 0.03415 0.0
C356 C 0.71541 0.38593 0.0216 0.0
C357 C 0.75382 0.39522 0.01028 0.0
C358 C 0.82311 0.39534 0.01172 0.0
C359 C 0.64133 0.38578 0.01971 0.0
C360 C 0.61557 0.38841 0.98783 0.0
C361 C 0.59613 0.38269 0.04863 0.0
C362 C 0.61877 0.38042 0.0837 0.0
C363 C 0.65653 0.3883 0.10038 0.0
C364 C 0.67828 0.38606 0.13327 0.0
C365 C 0.66216 0.37599 0.14987 0.0
C366 C 0.62408 0.36816 0.13365 0.0
C367 C 0.60226 0.37036 0.10074 0.0
H368 H 0.67906 0.37427 0.17533 0.0
H369 H 0.46424 0.39632 0.85717 0.0
H370 H 0.21194 0.65675 0.99569 0.0
H371 H 0.33203 0.657 0.99854 0.0
H372 H 0.32306 0.6239 0.04045 0.0
H373 H 0.20221 0.6237 0.03848 0.0
H374 H 0.40345 0.63592 0.0755 0.0
H375 H 0.38306 0.6302 0.95283 0.0
H376 H 0.34377 0.6343 0.89511 0.0
H377 H 0.44052 0.666 0.89421 0.0
H378 H 0.47961 0.66216 0.95218 0.0
H379 H 0.75162 0.62579 0.05352 0.0
H380 H 0.63137 0.62545 0.05097 0.0
H381 H 0.63946 0.65843 0.00806 0.0
H382 H 0.76029 0.65871 0.00978 0.0
H383 H 0.55943 0.6464 0.97336 0.0
H384 H 0.57878 0.65237 0.09572 0.0
H385 H 0.617 0.64861 0.15389 0.0
H386 H 0.52162 0.61678 0.15572 0.0
H387 H 0.48357 0.62029 0.09733 0.0
C388 C 0.23532 0.64947 0.0053 0.0
C389 C 0.19686 0.64017 0.01664 0.0
C390 C 0.30446 0.64961 0.00679 0.0
C391 C 0.33755 0.64041 0.01925 0.0
C392 C 0.29924 0.63112 0.03064 0.0
C393 C 0.22991 0.63099 0.02933 0.0
C394 C 0.41163 0.64058 0.02104 0.0
C395 C 0.43749 0.63805 0.05296 0.0
C396 C 0.45668 0.64365 0.99203 0.0
C397 C 0.43379 0.64593 0.957 0.0
C398 C 0.39561 0.63807 0.94043 0.0
C399 C 0.3734 0.64035 0.90766 0.0
C400 C 0.38954 0.65041 0.89105 0.0
C401 C 0.42802 0.65821 0.90713 0.0
C402 C 0.45027 0.65599 0.93993 0.0
C403 C 0.72797 0.63303 0.0438 0.0
C404 C 0.76618 0.6423 0.03206 0.0
C405 C 0.65875 0.63284 0.04245 0.0
C406 C 0.62538 0.64197 0.02971 0.0
C407 C 0.66346 0.65126 0.01805 0.0
C408 C 0.7328 0.65143 0.01923 0.0
C409 C 0.5513 0.64173 0.02784 0.0
C410 C 0.52542 0.64425 0.99589 0.0
C411 C 0.5062 0.63868 0.05685 0.0
C412 C 0.52889 0.63656 0.09199 0.0
C413 C 0.56638 0.64454 0.10841 0.0
C414 C 0.58794 0.64246 0.14145 0.0
C415 C 0.5719 0.63245 0.15845 0.0
C416 C 0.53409 0.62452 0.1425 0.0
C417 C 0.51247 0.62656 0.10944 0.0
H418 H 0.58864 0.63086 0.18403 0.0
H419 H 0.3724 0.65216 0.86567 0.0
H420 H 0.84025 0.65555 0.54936 0.0
H421 H 0.71998 0.65577 0.54668 0.0
H422 H 0.72895 0.62397 0.49567 0.0
H423 H 0.84971 0.62382 0.49755 0.0
H424 H 0.64826 0.63663 0.46421 0.0
H425 H 0.66871 0.62765 0.58437 0.0
H426 H 0.70828 0.63002 0.64299 0.0
H427 H 0.61191 0.66152 0.65348 0.0
H428 H 0.57253 0.6594 0.59467 0.0
H429 H 0.29953 0.62555 0.48446 0.0
H430 H 0.41985 0.62519 0.48707 0.0
H431 H 0.41284 0.65729 0.53613 0.0
H432 H 0.2921 0.65762 0.53418 0.0
H433 H 0.49244 0.64433 0.56877 0.0
H434 H 0.4727 0.65311 0.44773 0.0
H435 H 0.43398 0.65047 0.38902 0.0
H436 H 0.52932 0.61885 0.38059 0.0
H437 H 0.56788 0.62124 0.43947 0.0
C438 C 0.81678 0.64854 0.53776 0.0
C439 C 0.85519 0.63963 0.52386 0.0
C440 C 0.74757 0.64866 0.53635 0.0
C441 C 0.71442 0.63982 0.52137 0.0
C442 C 0.75275 0.63091 0.50743 0.0
C443 C 0.82207 0.63081 0.50868 0.0
C444 C 0.64027 0.63994 0.51967 0.0
C445 C 0.61429 0.63816 0.48725 0.0
C446 C 0.59522 0.64217 0.54942 0.0
C447 C 0.61818 0.64341 0.58496 0.0
C448 C 0.65631 0.63511 0.59908 0.0
C449 C 0.67867 0.63641 0.63235 0.0
C450 C 0.66277 0.64593 0.65191 0.0
C451 C 0.62426 0.65415 0.63828 0.0
C452 C 0.60186 0.65291 0.60499 0.0
C453 C 0.32344 0.6326 0.49555 0.0
C454 C 0.28555 0.64165 0.5089 0.0
C455 C 0.39268 0.63239 0.49696 0.0
C456 C 0.42635 0.64127 0.51146 0.0
C457 C 0.3886 0.65032 0.52477 0.0
C458 C 0.31929 0.65052 0.52345 0.0
C459 C 0.50047 0.64104 0.51329 0.0
C460 C 0.52643 0.6428 0.54575 0.0
C461 C 0.54551 0.63874 0.48361 0.0
C462 C 0.52263 0.63731 0.44815 0.0
C463 C 0.485 0.64556 0.43346 0.0
C464 C 0.46315 0.64411 0.40013 0.0
C465 C 0.47904 0.63448 0.38112 0.0
C466 C 0.51698 0.62629 0.39536 0.0
C467 C 0.5389 0.6277 0.4287 0.0
H468 H 0.46206 0.63337 0.35533 0.0
H469 H 0.68018 0.64692 0.67765 0.0
H470 H 0.75741 0.40009 0.55696 0.0
H471 H 0.63696 0.40038 0.55488 0.0
H472 H 0.64357 0.36808 0.50719 0.0
H473 H 0.7644 0.36784 0.5085 0.0
H474 H 0.5641 0.38066 0.4743 0.0
H475 H 0.58378 0.37284 0.59582 0.0
H476 H 0.62242 0.37589 0.65436 0.0
H477 H 0.5272 0.40753 0.66062 0.0
H478 H 0.48872 0.40474 0.60189 0.0
H479 H 0.21609 0.36985 0.49363 0.0
H480 H 0.33619 0.36953 0.49676 0.0
H481 H 0.32797 0.40162 0.54594 0.0
H482 H 0.20728 0.40185 0.54374 0.0
H483 H 0.40834 0.38924 0.5781 0.0
H484 H 0.38881 0.39716 0.45681 0.0
H485 H 0.35009 0.39423 0.39822 0.0
H486 H 0.44515 0.36257 0.39137 0.0
H487 H 0.48372 0.36525 0.45014 0.0
C488 C 0.73336 0.39299 0.5463 0.0
C489 C 0.77117 0.38391 0.53307 0.0
C490 C 0.66405 0.39315 0.54522 0.0
C491 C 0.63023 0.3842 0.53124 0.0
C492 C 0.6679 0.37511 0.51815 0.0
C493 C 0.73728 0.37496 0.51909 0.0
C494 C 0.5561 0.38441 0.52947 0.0
C495 C 0.53013 0.38238 0.49718 0.0
C496 C 0.51107 0.38695 0.55895 0.0
C497 C 0.53392 0.38862 0.59431 0.0
C498 C 0.57149 0.38048 0.60957 0.0
C499 C 0.5933 0.38216 0.64281 0.0
C500 C 0.57742 0.39191 0.66116 0.0
C501 C 0.53954 0.39999 0.64636 0.0
C502 C 0.51766 0.39836 0.61311 0.0
C503 C 0.23969 0.3769 0.50492 0.0
C504 C 0.2015 0.38591 0.51821 0.0
C505 C 0.30883 0.37672 0.50658 0.0
C506 C 0.34218 0.38563 0.52113 0.0
C507 C 0.30405 0.39463 0.53451 0.0
C508 C 0.23477 0.39478 0.53308 0.0
C509 C 0.41632 0.38547 0.52293 0.0
C510 C 0.4423 0.38752 0.55522 0.0
C511 C 0.46139 0.38297 0.49344 0.0
C512 C 0.43863 0.38137 0.45801 0.0
C513 C 0.40108 0.38954 0.4429 0.0
C514 C 0.37922 0.38793 0.40965 0.0
C515 C 0.39501 0.37821 0.39113 0.0
C516 C 0.43289 0.37009 0.40577 0.0
C517 C 0.45482 0.37166 0.43903 0.0
H518 H 0.37802 0.37698 0.36539 0.0
H519 H 0.59436 0.39319 0.68689 0.0
H520 H 0.79957 0.90126 0.98852 0.0
H521 H 0.91989 0.90157 0.99088 0.0
H522 H 0.9129 0.86804 0.02925 0.0
H523 H 0.79205 0.86779 0.02786 0.0
H524 H 0.99248 0.87948 0.06536 0.0
H525 H 0.97315 0.87555 0.94193 0.0
H526 H 0.93458 0.8804 0.88462 0.0
H527 H 0.02946 0.91218 0.88858 0.0
H528 H 0.06787 0.90757 0.94614 0.0
H529 H 0.3403 0.86955 0.04241 0.0
H530 H 0.22023 0.8693 0.03929 0.0
H531 H 0.22847 0.90286 1.00123 0.0
H532 H 0.34922 0.90306 0.00337 0.0
H533 H 0.14832 0.89149 0.96497 0.0
H534 H 0.16769 0.89541 0.08835 0.0
H535 H 0.20649 0.89055 0.1456 0.0
H536 H 0.11154 0.85878 0.1417 0.0
H537 H 0.07289 0.8634 0.08419 0.0
C538 C 0.82351 0.8939 0.99718 0.0
C539 C 0.78561 0.88447 0.00781 0.0
C540 C 0.89276 0.89407 0.99841 0.0
C541 C 0.92646 0.88478 0.00982 0.0
C542 C 0.88867 0.87534 0.02031 0.0
C543 C 0.8193 0.87519 0.01933 0.0
C544 C 1.00055 0.88499 0.01167 0.0
C545 C 1.02646 0.88196 0.04317 0.0
C546 C 0.0456 0.88849 0.98319 0.0
C547 C 1.02286 0.89125 0.9485 0.0
C548 C 0.9854 0.8836 0.93069 0.0
C549 C 0.96363 0.8863 0.89814 0.0
C550 C 0.97942 0.8966 0.88301 0.0
C551 C 1.01719 0.90421 0.90035 0.0
C552 C 0.03903 0.90155 0.93292 0.0
C553 C 0.31672 0.87693 0.03361 0.0
C554 C 0.35494 0.88636 0.02337 0.0
C555 C 0.2476 0.87679 0.03195 0.0
C556 C 0.2143 0.88611 0.0205 0.0
C557 C 0.25241 0.89554 0.01023 0.0
C558 C 0.3217 0.89566 0.01163 0.0
C559 C 0.14022 0.88596 0.01863 0.0
C560 C 0.11432 0.88901 0.98715 0.0
C561 C 0.09515 0.88248 0.04712 0.0
C562 C 0.11791 0.87972 0.08182 0.0
C563 C 0.15545 0.88736 0.0996 0.0
C564 C 0.17736 0.88465 0.13211 0.0
C565 C 0.16162 0.87435 0.14724 0.0
C566 C 0.12376 0.86675 0.12993 0.0
C567 C 0.10178 0.86942 0.0974 0.0
H568 H 0.17866 0.87227 0.1724 0.0
H569 H 0.9625 0.89868 0.85781 0.0
H570 H 0.26053 0.15796 0.00583 0.0
H571 H 0.13987 0.15766 0.00407 0.0
H572 H 0.12991 0.12572 0.05416 0.0
H573 H 0.25069 0.1259 0.05564 0.0
H574 H 0.05297 0.12575 0.00129 0.0
H575 H 0.0796 0.14971 0.09875 0.0
H576 H 0.12459 0.16562 0.12941 0.0
H577 H 0.0425 0.18787 0.05766 0.0
H578 H 0.99774 0.17208 0.02626 0.0
H579 H 0.70094 0.12423 0.04264 0.0
H580 H 0.82148 0.12451 0.0452 0.0
H581 H 0.8329 0.15639 0.99473 0.0
H582 H 0.71237 0.15622 0.99237 0.0
H583 H 0.90902 0.15636 0.04811 0.0
H584 H 0.88296 0.13246 0.95047 0.0
H585 H 0.83839 0.11658 0.91948 0.0
H586 H 0.91966 0.09425 0.99129 0.0
H587 H 0.96398 0.11002 0.02303 0.0
C588 C 0.23278 0.1509 0.01674 0.0
C589 C 0.26585 0.14198 0.03104 0.0
C590 C 0.16343 0.15075 0.01579 0.0
C591 C 0.12501 0.14171 0.02926 0.0
C592 C 0.15795 0.13281 0.04357 0.0
C593 C 0.22729 0.13295 0.04458 0.0
C594 C 0.05089 0.14144 0.02788 0.0
C595 C 1.02151 0.13238 0.01202 0.0
C596 C 1.00932 0.15018 0.04104 0.0
C597 C 0.03588 0.1597 0.05995 0.0
C598 C 0.07156 0.15799 0.08935 0.0
C599 C 0.09695 0.16699 0.10689 0.0
C600 C 0.08657 0.17775 0.09543 0.0
C601 C 0.05058 0.17953 0.06647 0.0
C602 C 1.02514 0.17056 0.04881 0.0
C603 C 0.72899 0.13128 0.03185 0.0
C604 C 0.69642 0.14018 0.01712 0.0
C605 C 0.79826 0.13142 0.03326 0.0
C606 C 0.83705 0.14043 0.01989 0.0
C607 C 0.80457 0.14932 0.00526 0.0
C608 C 0.73537 0.14919 0.00377 0.0
C609 C 0.91111 0.14066 0.02152 0.0
C610 C 0.94047 0.14972 0.03742 0.0
C611 C 0.95268 0.13192 0.00838 0.0
C612 C 0.92619 0.12243 0.98934 0.0
C613 C 0.89087 0.12417 0.95983 0.0
C614 C 0.86573 0.11519 0.9421 0.0
C615 C 0.87602 0.10442 0.95347 0.0
C616 C 0.91164 0.1026 0.98255 0.0
C617 C 0.93682 0.11156 1.0004 0.0
H618 H 0.85654 0.09748 0.9397 0.0
H619 H 0.10627 0.18471 0.10904 0.0
H620 H 0.35057 0.12366 0.49857 0.0
H621 H 0.23041 0.12419 0.49478 0.0
H622 H 0.22396 0.1569 0.53967 0.0
H623 H 0.34355 0.15629 0.54442 0.0
H624 H 0.12226 0.14623 0.56679 0.0
H625 H 0.21385 0.15177 0.4496 0.0
H626 H 0.28503 0.14781 0.3954 0.0
H627 H 0.18205 0.11705 0.38399 0.0
H628 H 0.11094 0.12074 0.4385 0.0
H629 H 0.79478 0.15887 0.52513 0.0
H630 H 0.91569 0.15895 0.52566 0.0
H631 H 0.92276 0.12541 0.48753 0.0
H632 H 0.80196 0.12537 0.48607 0.0
H633 H 1.02445 0.13687 0.45622 0.0
H634 H 0.9312 0.13296 0.57749 0.0
H635 H 0.86293 0.13882 0.63086 0.0
H636 H 0.97275 0.1693 0.63193 0.0
H637 H 0.04084 0.16371 0.57827 0.0
C638 C 0.32361 0.13095 0.50785 0.0
C639 C 0.35725 0.13992 0.52185 0.0
C640 C 0.25465 0.13129 0.50539 0.0
C641 C 0.21743 0.14067 0.51639 0.0
C642 C 0.2509 0.14955 0.53092 0.0
C643 C 0.31968 0.14919 0.53361 0.0
C644 C 0.14386 0.14123 0.51304 0.0
C645 C 0.1012 0.1443 0.54241 0.0
C646 C 0.11541 0.13868 0.4814 0.0
C647 C 0.15746 0.13648 0.44835 0.0
C648 C 0.20665 0.14412 0.43567 0.0
C649 C 0.24697 0.14193 0.40488 0.0
C650 C 0.23815 0.13218 0.3863 0.0
C651 C 0.18886 0.1246 0.39844 0.0
C652 C 0.14851 0.12674 0.42928 0.0
C653 C 0.82194 0.15151 0.51662 0.0
C654 C 0.78801 0.14209 0.5057 0.0
C655 C 0.89141 0.15155 0.51714 0.0
C656 C 0.92905 0.14211 0.50731 0.0
C657 C 0.89542 0.13281 0.49541 0.0
C658 C 0.82599 0.13279 0.49464 0.0
C659 C 1.00291 0.14181 0.51007 0.0
C660 C 0.04563 0.13878 0.48057 0.0
C661 C 0.03168 0.14467 0.54136 0.0
C662 C 0.99073 0.14795 0.57371 0.0
C663 C 0.94047 0.14094 0.58899 0.0
C664 C 0.90183 0.14422 0.6193 0.0
C665 C 0.91351 0.15443 0.63473 0.0
C666 C 0.96377 0.16139 0.61993 0.0
C667 C 1.00236 0.15818 0.58958 0.0
H668 H 0.88385 0.15697 0.65821 0.0
H669 H 0.26944 0.13049 0.36248 0.0
H670 H 0.71446 0.87099 0.48827 0.0
H671 H 0.83472 0.87069 0.49132 0.0
H672 H 0.82483 0.90176 0.54658 0.0
H673 H 0.70434 0.90217 0.54336 0.0
H674 H 0.93087 0.90164 0.49905 0.0
H675 H 0.8425 0.87705 0.58959 0.0
H676 H 0.77593 0.86135 0.61466 0.0
H677 H 0.88978 0.83898 0.54645 0.0
H678 H 0.95643 0.85458 0.52059 0.0
H679 H 0.25389 0.89977 0.55884 0.0
H680 H 0.13342 0.9001 0.55668 0.0
H681 H 0.14146 0.8689 0.50216 0.0
H682 H 0.26211 0.86844 0.50462 0.0
H683 H 0.03615 0.86914 0.54965 0.0
H684 H 0.12413 0.89381 0.45891 0.0
H685 H 0.19043 0.90956 0.4339 0.0
H686 H 0.07709 0.93182 0.50271 0.0
H687 H 1.0107 0.91618 0.52849 0.0
C688 C 0.73768 0.87782 0.50094 0.0
C689 C 0.69909 0.8866 0.51561 0.0
C690 C 0.80677 0.8776 0.50285 0.0
C691 C 0.83946 0.88612 0.51965 0.0
C692 C 0.80127 0.89505 0.53355 0.0
C693 C 0.73208 0.89527 0.53171 0.0
C694 C 0.91306 0.88568 0.52294 0.0
C695 C 0.95361 0.89459 0.51058 0.0
C696 C 0.94373 0.8764 0.53728 0.0
C697 C 0.90403 0.867 0.55291 0.0
C698 C 0.85302 0.86879 0.57975 0.0
C699 C 0.81532 0.85991 0.59413 0.0
C700 C 0.82851 0.84918 0.58209 0.0
C701 C 0.87956 0.8473 0.55571 0.0
C702 C 0.91735 0.85616 0.5412 0.0
C703 C 0.2302 0.89292 0.54657 0.0
C704 C 0.26835 0.88409 0.53184 0.0
C705 C 0.16098 0.89316 0.54514 0.0
C706 C 0.12771 0.88461 0.52874 0.0
C707 C 0.16545 0.87563 0.51488 0.0
C708 C 0.23475 0.87539 0.51628 0.0
C709 C 0.05401 0.8851 0.52571 0.0
C710 C 1.01342 0.87619 0.53813 0.0
C711 C 1.0233 0.89439 0.51144 0.0
C712 C 0.06289 0.90381 0.49587 0.0
C713 C 0.11367 0.90206 0.46889 0.0
C714 C 0.15122 0.91096 0.45455 0.0
C715 C 0.1381 0.92168 0.46677 0.0
C716 C 0.08727 0.92351 0.49331 0.0
C717 C 0.04963 0.91463 0.50778 0.0
H718 H 0.16722 0.92856 0.45564 0.0
H719 H 0.79927 0.84231 0.59326 0.0
H720 H 0.92809 0.55888 0.00149 0.0
H721 H 0.93247 0.53872 0.99877 0.0
H722 H 0.11624 0.53922 0.0478 0.0
H723 H 0.11333 0.55944 0.04961 0.0
H724 H 0.12294 0.52437 0.99589 0.0
H725 H 0.96656 0.53238 0.09406 0.0
H726 H 0.86749 0.54095 0.12487 0.0
H727 H 0.74292 0.5244 0.05597 0.0
H728 H 0.84141 0.51584 0.02442 0.0
H729 H 0.12649 0.46732 0.03995 0.0
H730 H 0.1225 0.48747 0.04321 0.0
H731 H 0.93772 0.4872 0.99512 0.0
H732 H 0.94014 0.46699 0.99287 0.0
H733 H 0.93182 0.50195 0.0468 0.0
H734 H 0.08797 0.49401 0.94845 0.0
H735 H 0.18694 0.48546 0.91746 0.0
H736 H 0.31178 0.50189 0.98648 0.0
H737 H 0.2134 0.51042 0.01822 0.0
C738 C 0.97004 0.55475 0.01128 0.0
C739 C 1.02033 0.5609 0.02582 0.0
C740 C 0.97205 0.54316 0.01009 0.0
C741 C 1.02418 0.53734 0.02356 0.0
C742 C 0.07522 0.54345 0.03738 0.0
C743 C 0.07321 0.55505 0.03864 0.0
C744 C 1.02531 0.52493 0.02333 0.0
C745 C 0.08145 0.51949 0.00749 0.0
C746 C 0.97076 0.51846 0.03769 0.0
C747 C 0.91144 0.52356 0.05666 0.0
C748 C 0.9181 0.53064 0.0853 0.0
C749 C 0.86204 0.53548 0.10293 0.0
C750 C 0.79897 0.53324 0.09233 0.0
C751 C 0.79182 0.52613 0.06413 0.0
C752 C 0.84773 0.52128 0.04638 0.0
C753 C 0.08439 0.47149 0.03049 0.0
C754 C 0.03369 0.46541 0.01606 0.0
C755 C 0.08261 0.48308 0.03199 0.0
C756 C 0.03033 0.48897 0.0189 0.0
C757 C 0.97887 0.48293 0.00523 0.0
C758 C 0.98062 0.47133 0.00371 0.0
C759 C 0.02943 0.50138 0.01934 0.0
C760 C 0.97332 0.50683 0.03523 0.0
C761 C 0.084 0.50786 0.005 0.0
C762 C 0.14325 0.50276 0.98593 0.0
C763 C 0.13648 0.49573 0.9572 0.0
C764 C 0.19247 0.4909 0.93946 0.0
C765 C 0.25559 0.49311 0.95005 0.0
C766 C 0.26285 0.50018 0.97835 0.0
C767 C 0.20699 0.50502 0.9962 0.0
H768 H 0.29888 0.48936 0.93629 0.0
H769 H 0.75562 0.537 0.10601 0.0
H770 H 0.91574 0.46698 0.51815 0.0
H771 H 0.91941 0.48714 0.51494 0.0
H772 H 0.12645 0.48683 0.53383 0.0
H773 H 0.12312 0.46663 0.53711 0.0
H774 H 0.06486 0.50238 0.57239 0.0
H775 H 0.0728 0.49222 0.45102 0.0
H776 H 0.03547 0.4828 0.39907 0.0
H777 H 0.84944 0.49989 0.41282 0.0
H778 H 0.88533 0.5093 0.46515 0.0
H779 H 0.13757 0.55848 0.52655 0.0
H780 H 0.13327 0.53833 0.5297 0.0
H781 H 0.92623 0.53883 0.51086 0.0
H782 H 0.93018 0.55903 0.50763 0.0
H783 H 0.98736 0.52318 0.47236 0.0
H784 H 0.97951 0.53337 0.59365 0.0
H785 H 1.01684 0.54279 0.64559 0.0
H786 H 0.20269 0.52565 0.63199 0.0
H787 H 0.1668 0.51623 0.57967 0.0
C788 C 0.96242 0.47116 0.52111 0.0
C789 C 1.01923 0.46508 0.52772 0.0
C790 C 0.96442 0.48274 0.51933 0.0
C791 C 1.02343 0.4886 0.52374 0.0
C792 C 0.0802 0.48256 0.53037 0.0
C793 C 0.07819 0.47098 0.53229 0.0
C794 C 1.02563 0.50099 0.52211 0.0
C795 C 0.04878 0.50691 0.55024 0.0
C796 C 1.00314 0.507 0.49372 0.0
C797 C 0.98152 0.50138 0.4622 0.0
C798 C 1.02373 0.4939 0.44312 0.0
C799 C 1.00287 0.48858 0.41358 0.0
C800 C 0.94005 0.49072 0.40271 0.0
C801 C 0.89804 0.49822 0.4213 0.0
C802 C 0.91864 0.50356 0.45088 0.0
C803 C 0.09074 0.55434 0.52359 0.0
C804 C 0.03411 0.56047 0.51703 0.0
C805 C 0.08839 0.54276 0.52534 0.0
C806 C 0.02919 0.53696 0.52094 0.0
C807 C 0.9726 0.54305 0.51432 0.0
C808 C 0.97497 0.55464 0.51243 0.0
C809 C 1.02665 0.52457 0.52262 0.0
C810 C 1.00343 0.51866 0.49451 0.0
C811 C 0.04908 0.51856 0.55103 0.0
C812 C 0.0707 0.52418 0.58254 0.0
C813 C 0.02853 0.53167 0.60158 0.0
C814 C 0.0494 0.537 0.63112 0.0
C815 C 0.11216 0.53484 0.64203 0.0
C816 C 0.15412 0.52733 0.62348 0.0
C817 C 0.13352 0.52198 0.5939 0.0
H818 H 0.12823 0.53898 0.6649 0.0
H819 H 0.92399 0.48659 0.37983 0.0
H820 H 0.44453 0.96742 0.9856 0.0
H821 H 0.4422 0.98759 0.98881 0.0
H822 H 0.61423 0.98739 0.04764 0.0
H823 H 0.61736 0.96722 0.04427 0.0
H824 H 0.52644 1.00207 0.07524 0.0
H825 H 0.6255 0.9942 0.95957 0.0
H826 H 0.63315 0.98567 0.90087 0.0
H827 H 0.45426 1.00205 0.878 0.0
H828 H 0.44503 1.01057 0.93679 0.0
H829 H 0.60827 0.05923 0.05644 0.0
H830 H 0.61105 0.03906 0.05326 0.0
H831 H 0.43887 0.03914 0.99454 0.0
H832 H 0.4353 0.0593 0.99788 0.0
H833 H 0.52708 0.02453 0.96688 0.0
H834 H 0.42799 0.03237 0.08264 0.0
H835 H 0.42055 0.04092 0.14132 0.0
H836 H 0.59975 0.02459 0.16397 0.0
H837 H 0.60877 0.01606 0.10521 0.0
C838 C 0.48223 0.97163 0.99907 0.0
C839 C 0.53134 0.96557 0.01452 0.0
C840 C 0.48078 0.98322 1.00091 0.0
C841 C 0.52861 0.98912 0.01806 0.0
C842 C 0.57669 0.9831 0.03424 0.0
C843 C 0.57818 0.9715 0.03242 0.0
C844 C 0.5288 1.00152 0.01895 0.0
C845 C 0.52749 1.00696 0.05146 0.0
C846 C 0.52873 1.00801 0.9881 0.0
C847 C 0.53422 1.00293 0.95271 0.0
C848 C 0.5875 0.99591 0.94212 0.0
C849 C 0.59217 0.99109 0.90882 0.0
C850 C 0.54412 0.99329 0.88575 0.0
C851 C 0.49139 1.00034 0.89592 0.0
C852 C 0.48644 1.00517 0.92921 0.0
C853 C 0.57064 0.05499 0.043 0.0
C854 C 0.52136 0.06101 0.02756 0.0
C855 C 0.57235 0.0434 0.04118 0.0
C856 C 0.52461 0.03747 0.02406 0.0
C857 C 0.47635 0.04346 0.00791 0.0
C858 C 0.4746 0.05505 0.00971 0.0
C859 C 0.52467 0.02507 0.02317 0.0
C860 C 0.52603 0.01963 0.99065 0.0
C861 C 0.52481 0.01858 0.05401 0.0
C862 C 0.51941 0.02367 0.08939 0.0
C863 C 0.46609 0.03067 0.10003 0.0
C864 C 0.46154 0.0355 0.13332 0.0
C865 C 0.50974 0.03332 0.15632 0.0
C866 C 0.56251 0.02628 0.14611 0.0
C867 C 0.56734 0.02144 0.11282 0.0
H868 H 0.50613 0.03707 0.18209 0.0
H869 H 0.54784 0.98955 0.85998 0.0
H870 H 0.61875 0.05924 0.54258 0.0
H871 H 0.61495 0.0391 0.54658 0.0
H872 H 0.4404 0.03849 0.48967 0.0
H873 H 0.4422 0.05868 0.48681 0.0
H874 H 0.42645 0.02389 0.54117 0.0
H875 H 0.59821 0.03217 0.45015 0.0
H876 H 0.70108 0.04104 0.42393 0.0
H877 H 0.81233 0.02531 0.50016 0.0
H878 H 0.70992 0.01647 0.52713 0.0
H879 H 0.43438 0.96671 0.49869 0.0
H880 H 0.43777 0.98685 0.49474 0.0
H881 H 0.61132 0.98756 0.55244 0.0
H882 H 0.60981 0.96737 0.55534 0.0
H883 H 0.62564 1.0021 0.50041 0.0
H884 H 0.45338 0.9938 0.59136 0.0
H885 H 0.35034 0.98492 0.61729 0.0
H886 H 0.2398 1.00066 0.54079 0.0
H887 H 0.34239 1.00952 0.5141 0.0
C888 C 0.57883 0.05487 0.53135 0.0
C889 C 0.5309 0.0607 0.51424 0.0
C890 C 0.57724 0.04329 0.53327 0.0
C891 C 0.52807 0.03717 0.51788 0.0
C892 C 0.47918 0.04295 0.50158 0.0
C893 C 0.48063 0.05454 0.49971 0.0
C894 C 0.52779 0.02476 0.5186 0.0
C895 C 0.4698 0.01914 0.5318 0.0
C896 C 0.58461 0.01847 0.50711 0.0
C897 C 0.64629 0.02374 0.49086 0.0
C898 C 0.64453 0.03067 0.46148 0.0
C899 C 0.70277 0.03568 0.44646 0.0
C900 C 0.76317 0.03376 0.46043 0.0
C901 C 0.76549 0.0268 0.48939 0.0
C902 C 0.70738 0.02178 0.50454 0.0
C903 C 0.47397 0.9711 0.51012 0.0
C904 C 0.52172 0.96531 0.52745 0.0
C905 C 0.47534 0.98268 0.50822 0.0
C906 C 0.52414 0.98883 0.52381 0.0
C907 C 0.57282 0.98307 0.54036 0.0
C908 C 0.57156 0.97149 0.54224 0.0
C909 C 0.52432 1.00123 0.52301 0.0
C910 C 0.58229 1.00685 0.50978 0.0
C911 C 0.46746 1.00752 0.53444 0.0
C912 C 0.40568 1.00224 0.55053 0.0
C913 C 0.40718 0.9953 0.57991 0.0
C914 C 0.34885 0.99028 0.59477 0.0
C915 C 0.28859 0.9922 0.58064 0.0
C916 C 0.28653 0.99917 0.55168 0.0
C917 C 0.34474 1.0042 0.53669 0.0
H918 H 0.24348 0.98831 0.59218 0.0
H919 H 0.80821 0.03765 0.44876 0.0
H920 H 0.27404 0.3119 0.994 0.0
H921 H 0.31195 0.29274 0.98944 0.0
H922 H 0.14788 0.28261 0.06235 0.0
H923 H 0.10993 0.30172 0.06712 0.0
H924 H 0.25516 0.27231 0.07791 0.0
H925 H 0.15181 0.27802 0.97129 0.0
H926 H 0.1329 0.28738 0.91588 0.0
H927 H 0.33494 0.2813 0.87642 0.0
H928 H 0.35531 0.27203 0.93179 0.0
H929 H 0.28013 0.21422 0.04627 0.0
H930 H 0.24236 0.23339 0.05116 0.0
H931 H 0.40587 0.24357 0.97796 0.0
H932 H 0.44361 0.22446 0.97284 0.0
H933 H 0.29875 0.25384 0.9626 0.0
H934 H 0.40219 0.24814 0.06918 0.0
H935 H 0.42124 0.23881 0.1246 0.0
H936 H 0.21923 0.24488 0.16415 0.0
H937 H 0.19873 0.25413 0.10876 0.0
C938 C 0.24568 0.3056 0.00891 0.0
C939 C 0.18876 0.30846 0.03096 0.0
C940 C 0.26746 0.2946 0.00626 0.0
C941 C 0.23251 0.28609 0.02522 0.0
C942 C 0.17608 0.28894 0.04747 0.0
C943 C 0.15448 0.29994 0.05026 0.0
C944 C 0.25454 0.27426 0.02204 0.0
C945 C 0.2638 0.26826 0.05267 0.0
C946 C 0.26745 0.26891 0.98918 0.0
C947 C 0.25524 0.27443 0.95581 0.0
C948 C 0.19233 0.27875 0.95089 0.0
C949 C 0.18133 0.28403 0.91947 0.0
C950 C 0.23273 0.28496 0.89268 0.0
C951 C 0.2952 0.28059 0.89721 0.0
C952 C 0.30648 0.27532 0.92859 0.0
C953 C 0.3084 0.22054 0.03138 0.0
C954 C 0.36505 0.2177 0.00911 0.0
C955 C 0.28671 0.23155 0.03422 0.0
C956 C 0.32152 0.24007 0.01525 0.0
C957 C 0.37777 0.23723 0.99284 0.0
C958 C 0.39926 0.22623 0.98985 0.0
C959 C 0.29941 0.2519 0.01846 0.0
C960 C 0.29012 0.2579 0.98785 0.0
C961 C 0.28649 0.25725 0.05133 0.0
C962 C 0.29877 0.25173 0.08469 0.0
C963 C 0.3617 0.24741 0.0896 0.0
C964 C 0.37278 0.24215 0.12102 0.0
C965 C 0.32143 0.24122 0.14784 0.0
C966 C 0.25894 0.24559 0.14333 0.0
C967 C 0.24757 0.25085 0.11195 0.0
H968 H 0.3301 0.23715 0.17215 0.0
H969 H 0.22412 0.28905 0.86838 0.0
H970 H 0.61183 0.80221 0.06857 0.0
H971 H 0.65023 0.78313 0.06445 0.0
H972 H 0.80875 0.79286 0.98756 0.0
H973 H 0.77041 0.81202 0.99151 0.0
H974 H 0.75502 0.77415 0.96776 0.0
H975 H 0.83544 0.78682 0.07484 0.0
H976 H 0.82736 0.79524 0.13372 0.0
H977 H 0.68914 0.76997 0.17173 0.0
H978 H 0.69571 0.76148 0.11293 0.0
H979 H 0.94172 0.72462 0.97296 0.0
H980 H 0.90355 0.74371 0.977 0.0
H981 H 0.74461 0.73404 0.05372 0.0
H982 H 0.78267 0.71486 0.04982 0.0
H983 H 0.79878 0.75273 0.07358 0.0
H984 H 0.71838 0.74007 0.96641 0.0
H985 H 0.72664 0.73166 0.90752 0.0
H986 H 0.8651 0.75692 0.86969 0.0
H987 H 0.85834 0.7654 0.9285 0.0
C988 C 0.65543 0.80036 0.05107 0.0
C989 C 0.68822 0.80878 0.03062 0.0
C990 C 0.67738 0.78938 0.0487 0.0
C991 C 0.73322 0.78647 0.02607 0.0
C992 C 0.76562 0.79482 0.00528 0.0
C993 C 0.7435 0.80581 0.00753 0.0
C994 C 0.75716 0.77474 0.02384 0.0
C995 C 0.76549 0.76954 0.9909 0.0
C996 C 0.76945 0.76852 0.05398 0.0
C997 C 0.7656 0.77358 0.08939 0.0
C998 C 0.80295 0.78311 0.09569 0.0
C999 C 0.7987 0.78788 0.12906 0.0
C1000 C 0.75764 0.78316 0.15643 0.0
C1001 C 0.72087 0.77363 0.15049 0.0
C1002 C 0.72488 0.76883 0.11716 0.0
C1003 C 0.89807 0.72648 0.99039 0.0
C1004 C 0.86509 0.71808 0.01082 0.0
C1005 C 0.87626 0.73746 0.99272 0.0
C1006 C 0.82039 0.7404 0.01529 0.0
C1007 C 0.78778 0.73206 0.03605 0.0
C1008 C 0.80974 0.72106 0.03383 0.0
C1009 C 0.79661 0.75214 0.01751 0.0
C1010 C 0.78831 0.75734 0.05045 0.0
C1011 C 0.78438 0.75836 0.98736 0.0
C1012 C 0.78832 0.75331 0.95195 0.0
C1013 C 0.75096 0.74379 0.9456 0.0
C1014 C 0.75531 0.73902 0.91222 0.0
C1015 C 0.7965 0.74374 0.8849 0.0
C1016 C 0.83328 0.75326 0.89088 0.0
C1017 C 0.82916 0.75806 0.92422 0.0
H1018 H 0.7998 0.74003 0.85908 0.0
H1019 H 0.75441 0.78687 0.18224 0.0
H1020 H 0.10395 0.72371 0.501 0.0
H1021 H 0.14219 0.7429 0.49768 0.0
H1022 H 0.31823 0.73389 0.54647 0.0
H1023 H 0.28005 0.71464 0.55 0.0
H1024 H 0.27043 0.75244 0.57442 0.0
H1025 H 0.31986 0.73968 0.45634 0.0
H1026 H 0.29558 0.73112 0.4004 0.0
H1027 H 0.14987 0.75602 0.38645 0.0
H1028 H 0.17267 0.76464 0.44256 0.0
H1029 H 0.45076 0.80239 0.53718 0.0
H1030 H 0.41246 0.78321 0.54038 0.0
H1031 H 0.23743 0.79222 0.49067 0.0
H1032 H 0.27584 0.81145 0.48715 0.0
H1033 H 0.28451 0.77367 0.46321 0.0
H1034 H 0.23483 0.78644 0.58117 0.0
H1035 H 0.25866 0.79499 0.63718 0.0
H1036 H 0.40422 0.7701 0.65147 0.0
H1037 H 0.38187 0.76147 0.59529 0.0
C1038 C 0.15128 0.72575 0.51063 0.0
C1039 C 0.18898 0.71753 0.52557 0.0
C1040 C 0.17314 0.73678 0.50874 0.0
C1041 C 0.23375 0.73992 0.52137 0.0
C1042 C 0.27132 0.73175 0.53651 0.0
C1043 C 0.24931 0.72071 0.53856 0.0
C1044 C 0.25737 0.75172 0.51928 0.0
C1045 C 0.27438 0.75701 0.54995 0.0
C1046 C 0.26112 0.75788 0.48764 0.0
C1047 C 0.24755 0.75274 0.45382 0.0
C1048 C 0.28231 0.74328 0.44147 0.0
C1049 C 0.26887 0.73843 0.40971 0.0
C1050 C 0.2211 0.74301 0.38993 0.0
C1051 C 0.1868 0.75247 0.40182 0.0
C1052 C 0.20001 0.75735 0.43358 0.0
C1053 C 0.40366 0.80035 0.5273 0.0
C1054 C 0.3663 0.80857 0.51211 0.0
C1055 C 0.38173 0.78932 0.52914 0.0
C1056 C 0.32135 0.78618 0.51625 0.0
C1057 C 0.28415 0.79435 0.50084 0.0
C1058 C 0.30627 0.80538 0.4988 0.0
C1059 C 0.2976 0.77439 0.51836 0.0
C1060 C 0.28056 0.7691 0.48768 0.0
C1061 C 0.29376 0.76823 0.55001 0.0
C1062 C 0.3071 0.77337 0.58386 0.0
C1063 C 0.27225 0.78283 0.59613 0.0
C1064 C 0.28544 0.78769 0.62793 0.0
C1065 C 0.33304 0.78311 0.64783 0.0
C1066 C 0.36742 0.77364 0.63601 0.0
C1067 C 0.35447 0.76876 0.60421 0.0
H1068 H 0.34319 0.78688 0.67244 0.0
H1069 H 0.21075 0.73924 0.36535 0.0
H1070 H 0.79543 0.31115 0.5527 0.0
H1071 H 0.75807 0.29189 0.55737 0.0
H1072 H 0.89197 0.28348 0.46743 0.0
H1073 H 0.92977 0.30268 0.46268 0.0
H1074 H 0.77602 0.27349 0.46277 0.0
H1075 H 0.92563 0.27709 0.55269 0.0
H1076 H 0.96947 0.28529 0.60496 0.0
H1077 H 0.78545 0.2781 0.66586 0.0
H1078 H 0.74017 0.27 0.6138 0.0
H1079 H 0.76222 0.21492 0.48378 0.0
H1080 H 0.79914 0.2342 0.47906 0.0
H1081 H 0.66574 0.24252 0.5693 0.0
H1082 H 0.62844 0.2233 0.5741 0.0
H1083 H 0.78121 0.25257 0.57383 0.0
H1084 H 0.63149 0.24897 0.48414 0.0
H1085 H 0.58727 0.24079 0.43194 0.0
H1086 H 0.77089 0.248 0.37071 0.0
H1087 H 0.81656 0.25609 0.42269 0.0
C1088 C 0.81738 0.30521 0.53402 0.0
C1089 C 0.86585 0.30857 0.50732 0.0
C1090 C 0.79585 0.29416 0.53672 0.0
C1091 C 0.8226 0.28611 0.513 0.0
C1092 C 0.87027 0.28947 0.48605 0.0
C1093 C 0.89171 0.30051 0.48329 0.0
C1094 C 0.80113 0.27423 0.51619 0.0
C1095 C 0.77804 0.26889 0.48696 0.0
C1096 C 0.80212 0.2682 0.5479 0.0
C1097 C 0.82929 0.27304 0.57926 0.0
C1098 C 0.89434 0.27734 0.57716 0.0
C1099 C 0.91947 0.28195 0.60676 0.0
C1100 C 0.88021 0.28224 0.63869 0.0
C1101 C 0.81577 0.27789 0.6411 0.0
C1102 C 0.79036 0.27327 0.61156 0.0
C1103 C 0.7403 0.22085 0.50251 0.0
C1104 C 0.69214 0.21746 0.52933 0.0
C1105 C 0.76155 0.23191 0.49978 0.0
C1106 C 0.73483 0.23994 0.52357 0.0
C1107 C 0.68743 0.23655 0.55061 0.0
C1108 C 0.66627 0.22549 0.55341 0.0
C1109 C 0.75613 0.25183 0.5204 0.0
C1110 C 0.77918 0.25717 0.54964 0.0
C1111 C 0.75505 0.25786 0.48871 0.0
C1112 C 0.72766 0.25303 0.45739 0.0
C1113 C 0.66262 0.24873 0.45961 0.0
C1114 C 0.63726 0.24413 0.43005 0.0
C1115 C 0.67631 0.24385 0.39806 0.0
C1116 C 0.74074 0.24821 0.39553 0.0
C1117 C 0.76637 0.25281 0.42502 0.0
H1118 H 0.65659 0.24028 0.3752 0.0
H1119 H 0.89976 0.28582 0.66158 0.0
H1120 H 0.98433 0.37796 0.11992 0.0
H1121 H 0.9653 0.37657 0.18421 0.0
H1122 H 0.13454 0.39779 0.1947 0.0
H1123 H 0.15271 0.39937 0.131 0.0
H1124 H 0.03326 0.3696 0.23809 0.0
H1125 H 0.10387 0.41533 0.26178 0.0
H1126 H 0.103 0.43329 0.2313 0.0
H1127 H 0.94456 0.42186 0.17271 0.0
H1128 H 0.94383 0.4039 0.20318 0.0
H1129 H 0.07048 0.37867 0.42114 0.0
H1130 H 0.0851 0.37709 0.35693 0.0
H1131 H 0.91809 0.39867 0.34889 0.0
H1132 H 0.9048 0.4005 0.41263 0.0
H1133 H 1.01067 0.40496 0.30359 0.0
H1134 H 0.91287 0.3698 0.33372 0.0
H1135 H 0.90236 0.35188 0.36446 0.0
H1136 H 0.09246 0.34206 0.31571 0.0
H1137 H 0.1046 0.35999 0.28509 0.0
C1138 C 1.01768 0.38225 0.13601 0.0
C1139 C 0.06954 0.38889 0.12035 0.0
C1140 C 1.00691 0.38143 0.17278 0.0
C1141 C 0.04774 0.38723 0.19455 0.0
C1142 C 0.1014 0.39341 0.17871 0.0
C1143 C 0.11188 0.39428 0.14218 0.0
C1144 C 0.03289 0.38734 0.23365 0.0
C1145 C 0.02836 0.37733 0.25241 0.0
C1146 C 1.025 0.39739 0.25259 0.0
C1147 C 1.02429 0.40824 0.23454 0.0
C1148 C 0.06865 0.41667 0.24251 0.0
C1149 C 0.06847 0.42684 0.22522 0.0
C1150 C 1.0239 0.4287 0.20001 0.0
C1151 C 0.97922 0.4204 0.19215 0.0
C1152 C 0.97912 0.41022 0.2094 0.0
C1153 C 0.03669 0.38301 0.40561 0.0
C1154 C 0.98664 0.38975 0.42198 0.0
C1155 C 0.04486 0.38206 0.36884 0.0
C1156 C 1.00251 0.38771 0.34769 0.0
C1157 C 0.95179 0.39427 0.36429 0.0
C1158 C 0.94404 0.39528 0.40086 0.0
C1159 C 1.01208 0.38722 0.30835 0.0
C1160 C 1.01566 0.3972 0.28944 0.0
C1161 C 1.01745 0.37713 0.28939 0.0
C1162 C 1.00991 0.36628 0.30736 0.0
C1163 C 0.95263 0.36384 0.32972 0.0
C1164 C 0.94636 0.35368 0.34712 0.0
C1165 C 0.99679 0.34585 0.34211 0.0
C1166 C 0.05348 0.34814 0.3196 0.0
C1167 C 0.06006 0.3583 0.3022 0.0
H1168 H 0.99187 0.33799 0.35563 0.0
H1169 H 1.02391 0.43657 0.18662 0.0
H1170 H 0.10478 0.64722 0.12158 0.0
H1171 H 0.11149 0.64435 0.18446 0.0
H1172 H 0.90321 0.63597 0.19685 0.0
H1173 H 0.89679 0.63847 0.13325 0.0
H1174 H 0.9586 0.65466 0.24239 0.0
H1175 H 0.98723 0.61643 0.20895 0.0
H1176 H 0.03966 0.60127 0.17369 0.0
H1177 H 0.22864 0.60947 0.21015 0.0
H1178 H 0.17754 0.62481 0.24516 0.0
H1179 H 0.94323 0.64619 0.42308 0.0
H1180 H 0.93042 0.64342 0.36095 0.0
H1181 H 0.14057 0.63721 0.34191 0.0
H1182 H 0.15244 0.63929 0.40508 0.0
H1183 H 0.08189 0.62521 0.2986 0.0
H1184 H 0.06501 0.66348 0.32681 0.0
H1185 H 1.02386 0.68008 0.35897 0.0
H1186 H 0.82739 0.67376 0.32916 0.0
H1187 H 0.86721 0.65702 0.29719 0.0
C1188 C 0.0606 0.64457 0.13759 0.0
C1189 C 1.00026 0.64306 0.12251 0.0
C1190 C 0.06457 0.64293 0.17353 0.0
C1191 C 1.00794 0.63995 0.19543 0.0
C1192 C 0.94762 0.63824 0.18041 0.0
C1193 C 0.94401 0.63961 0.14411 0.0
C1194 C 1.01157 0.63941 0.23417 0.0
C1195 C 0.98424 0.64809 0.25486 0.0
C1196 C 0.04795 0.63115 0.25013 0.0
C1197 C 0.07864 0.62184 0.22942 0.0
C1198 C 0.04008 0.61507 0.2092 0.0
C1199 C 0.06954 0.60643 0.1893 0.0
C1200 C 0.13746 0.60442 0.18962 0.0
C1201 C 0.17603 0.61104 0.20991 0.0
C1202 C 0.14683 0.6197 0.2298 0.0
C1203 C 0.98658 0.64407 0.40571 0.0
C1204 C 0.04891 0.64304 0.41886 0.0
C1205 C 0.97936 0.64258 0.37002 0.0
C1206 C 0.03482 0.64049 0.3461 0.0
C1207 C 0.09689 0.63892 0.35951 0.0
C1208 C 0.10377 0.64011 0.39564 0.0
C1209 C 0.02793 0.64042 0.3073 0.0
C1210 C 0.05536 0.63172 0.28642 0.0
C1211 C 0.99309 0.64885 0.29084 0.0
C1212 C 0.96897 0.65894 0.3099 0.0
C1213 C 1.01294 0.66559 0.32731 0.0
C1214 C 0.98987 0.67503 0.34548 0.0
C1215 C 0.92302 0.67796 0.34619 0.0
C1216 C 0.87914 0.67147 0.32864 0.0
C1217 C 0.90194 0.66201 0.31046 0.0
H1218 H 0.90525 0.68527 0.36028 0.0
H1219 H 0.16018 0.59773 0.1742 0.0
H1220 H 0.08968 0.63289 0.91823 0.0
H1221 H 0.10682 0.63392 0.85424 0.0
H1222 H 0.90503 0.64512 0.85068 0.0
H1223 H 0.88674 0.6431 0.91454 0.0
H1224 H 0.92372 0.63249 0.80116 0.0
H1225 H 0.06016 0.66232 0.83496 0.0
H1226 H 0.14659 0.67149 0.86639 0.0
H1227 H 0.29439 0.65004 0.81607 0.0
H1228 H 0.20873 0.64064 0.78473 0.0
H1229 H 0.98047 0.64711 0.6189 0.0
H1230 H 0.96325 0.64915 0.68297 0.0
H1231 H 0.13595 0.6292 0.69437 0.0
H1232 H 0.15293 0.62707 0.6306 0.0
H1233 H 0.12946 0.64777 0.73853 0.0
H1234 H 0.98472 0.61771 0.70744 0.0
H1235 H 0.89575 0.60977 0.67494 0.0
H1236 H 0.75952 0.63415 0.71936 0.0
H1237 H 0.84795 0.64229 0.75191 0.0
C1238 C 0.04936 0.63568 0.90367 0.0
C1239 C 0.98714 0.63804 0.92124 0.0
C1240 C 0.05921 0.63637 0.86697 0.0
C1241 C 1.00785 0.63988 0.84701 0.0
C1242 C 0.94581 0.64239 0.86497 0.0
C1243 C 0.93537 0.64133 0.90156 0.0
C1244 C 1.0177 0.64048 0.80756 0.0
C1245 C 0.96833 0.63606 0.78774 0.0
C1246 C 0.07605 0.64498 0.78925 0.0
C1247 C 0.12788 0.65072 0.80771 0.0
C1248 C 0.11104 0.65953 0.83074 0.0
C1249 C 0.15991 0.66476 0.84855 0.0
C1250 C 0.22592 0.66133 0.84333 0.0
C1251 C 0.24324 0.65268 0.82016 0.0
C1252 C 0.19456 0.64741 0.80233 0.0
C1253 C 1.01498 0.64323 0.63509 0.0
C1254 C 0.06784 0.63687 0.61969 0.0
C1255 C 1.00501 0.64437 0.67172 0.0
C1256 C 0.04802 0.63926 0.69367 0.0
C1257 C 0.10207 0.63323 0.67814 0.0
C1258 C 0.11159 0.63199 0.64164 0.0
C1259 C 0.03574 0.63979 0.73277 0.0
C1260 C 0.08468 0.64437 0.75232 0.0
C1261 C 0.97649 0.63569 0.75083 0.0
C1262 C 0.92304 0.63066 0.73186 0.0
C1263 C 0.93586 0.6214 0.71015 0.0
C1264 C 0.88553 0.61686 0.69175 0.0
C1265 C 0.82206 0.62146 0.69503 0.0
C1266 C 0.80871 0.63059 0.71684 0.0
C1267 C 0.85888 0.63516 0.73531 0.0
H1268 H 0.78319 0.61794 0.68075 0.0
H1269 H 0.26367 0.66538 0.85717 0.0
H1270 H 0.90507 0.3862 0.63494 0.0
H1271 H 0.91585 0.38847 0.69792 0.0
H1272 H 0.12507 0.38116 0.68061 0.0
H1273 H 0.11283 0.37811 0.61854 0.0
H1274 H 0.08654 0.37091 0.73336 0.0
H1275 H 0.05146 0.4085 0.70312 0.0
H1276 H 0.99555 0.4243 0.67801 0.0
H1277 H 0.82138 0.41822 0.74823 0.0
H1278 H 0.87592 0.40227 0.77343 0.0
H1279 H 0.15593 0.38751 0.90787 0.0
H1280 H 0.14946 0.38973 0.8442 0.0
H1281 H 0.94072 0.38169 0.85712 0.0
H1282 H 0.94751 0.37908 0.92012 0.0
H1283 H 0.98354 0.40082 0.80782 0.0
H1284 H 1.02566 0.36202 0.83364 0.0
H1285 H 0.09015 0.34724 0.85883 0.0
H1286 H 0.26512 0.35768 0.79522 0.0
H1287 H 0.20177 0.37264 0.77006 0.0
C1288 C 0.95336 0.38521 0.64468 0.0
C1289 C 1.00808 0.38197 0.62188 0.0
C1290 C 0.95978 0.38657 0.68076 0.0
C1291 C 1.02164 0.38511 0.69458 0.0
C1292 C 0.07659 0.38226 0.6712 0.0
C1293 C 0.0697 0.38058 0.63553 0.0
C1294 C 0.02903 0.3859 0.73333 0.0
C1295 C 0.06484 0.37762 0.74921 0.0
C1296 C 1.00049 0.39452 0.75488 0.0
C1297 C 0.96758 0.40412 0.73993 0.0
C1298 C 1.00108 0.41048 0.71305 0.0
C1299 C 0.96965 0.41947 0.69882 0.0
C1300 C 0.9049 0.42224 0.71146 0.0
C1301 C 0.87151 0.41605 0.73843 0.0
C1302 C 0.90267 0.40704 0.75272 0.0
C1303 C 0.10857 0.3864 0.89712 0.0
C1304 C 0.05226 0.38308 0.9189 0.0
C1305 C 0.10488 0.38765 0.86078 0.0
C1306 C 0.04449 0.38589 0.84584 0.0
C1307 C 0.98769 0.38315 0.86797 0.0
C1308 C 0.99174 0.38162 0.90396 0.0
C1309 C 0.04114 0.38594 0.80701 0.0
C1310 C 1.00578 0.39428 0.79142 0.0
C1311 C 0.07144 0.37757 0.78548 0.0
C1312 C 0.10922 0.36851 0.8003 0.0
C1313 C 0.07802 0.36122 0.82528 0.0
C1314 C 0.11432 0.3528 0.8395 0.0
C1315 C 0.18174 0.35154 0.82872 0.0
C1316 C 0.21293 0.35868 0.8036 0.0
C1317 C 0.17685 0.36712 0.78934 0.0
H1318 H 0.20977 0.34502 0.83975 0.0
H1319 H 0.88064 0.4292 0.70041 0.0
H1320 H 0.48428 0.87799 0.11857 0.0
H1321 H 0.46484 0.87656 0.18282 0.0
H1322 H 0.63051 0.89852 0.19377 0.0
H1323 H 0.64914 0.90012 0.13009 0.0
H1324 H 0.53388 0.8699 0.23674 0.0
H1325 H 0.59606 0.91596 0.26095 0.0
H1326 H 0.59208 0.9339 0.23061 0.0
H1327 H 0.4362 0.92166 0.17163 0.0
H1328 H 0.43859 0.90372 0.20197 0.0
H1329 H 0.56903 0.87914 0.4199 0.0
H1330 H 0.5839 0.87761 0.35569 0.0
H1331 H 0.41325 0.89839 0.34777 0.0
H1332 H 0.39965 0.90017 0.41153 0.0
H1333 H 0.50469 0.90512 0.30255 0.0
H1334 H 0.41312 0.86949 0.33226 0.0
H1335 H 0.40548 0.8515 0.36262 0.0
H1336 H 0.59736 0.84261 0.3139 0.0
H1337 H 0.60661 0.86063 0.28365 0.0
C1338 C 0.51676 0.88244 0.13475 0.0
C1339 C 0.56776 0.88927 0.11921 0.0
C1340 C 0.50576 0.88159 0.1715 0.0
C1341 C 0.54546 0.88758 0.19339 0.0
C1342 C 0.59825 0.89399 0.17769 0.0
C1343 C 0.60899 0.89487 0.14116 0.0
C1344 C 0.53037 0.88763 0.23247 0.0
C1345 C 0.52754 0.8776 0.25114 0.0
C1346 C 0.52059 0.89763 0.25149 0.0
C1347 C 0.51801 0.90846 0.23351 0.0
C1348 C 0.56074 0.91712 0.24163 0.0
C1349 C 0.55879 0.92728 0.22441 0.0
C1350 C 0.51406 0.92891 0.19913 0.0
C1351 C 0.47098 0.92038 0.19112 0.0
C1352 C 0.47266 0.91021 0.2083 0.0
C1353 C 0.53449 0.8833 0.4044 0.0
C1354 C 0.48332 0.88981 0.42082 0.0
C1355 C 0.54281 0.88239 0.36763 0.0
C1356 C 0.49953 0.88784 0.34651 0.0
C1357 C 0.44769 0.89415 0.36315 0.0
C1358 C 0.43977 0.89513 0.39973 0.0
C1359 C 0.50927 0.8874 0.30716 0.0
C1360 C 0.51112 0.89739 0.28834 0.0
C1361 C 0.51652 0.87734 0.2881 0.0
C1362 C 0.51082 0.86646 0.30594 0.0
C1363 C 0.45389 0.86373 0.3282 0.0
C1364 C 0.44924 0.85353 0.34537 0.0
C1365 C 0.50097 0.84593 0.34026 0.0
C1366 C 0.55736 0.84851 0.31787 0.0
C1367 C 0.56232 0.85872 0.30069 0.0
H1368 H 0.49729 0.83803 0.35359 0.0
H1369 H 0.5127 0.93678 0.1858 0.0
H1370 H 0.59849 0.14953 0.12289 0.0
H1371 H 0.60391 0.14654 0.18578 0.0
H1372 H 0.40104 0.13497 0.195 0.0
H1373 H 0.39608 0.13763 0.13135 0.0
H1374 H 0.43748 0.15287 0.24483 0.0
H1375 H 0.50239 0.11671 0.20502 0.0
H1376 H 0.56719 0.1033 0.16775 0.0
H1377 H 0.74738 0.11524 0.20631 0.0
H1378 H 0.68375 0.12888 0.24337 0.0
H1379 H 0.44162 0.14329 0.42527 0.0
H1380 H 0.42603 0.14029 0.36347 0.0
H1381 H 0.63872 0.13968 0.33926 0.0
H1382 H 0.6539 0.14179 0.40197 0.0
H1383 H 0.58999 0.1267 0.2962 0.0
H1384 H 0.53216 0.1641 0.329 0.0
H1385 H 0.47263 0.17852 0.36471 0.0
H1386 H 0.28588 0.16542 0.33783 0.0
H1387 H 0.34434 0.15088 0.30217 0.0
C1388 C 0.5552 0.14621 0.1382 0.0
C1389 C 0.49685 0.14381 0.12215 0.0
C1390 C 0.55843 0.1445 0.17418 0.0
C1391 C 0.50296 0.14054 0.19524 0.0
C1392 C 0.44454 0.13803 0.17929 0.0
C1393 C 0.44181 0.13949 0.14294 0.0
C1394 C 0.50601 0.13953 0.23401 0.0
C1395 C 0.46977 0.14699 0.25618 0.0
C1396 C 0.54987 0.13214 0.24877 0.0
C1397 C 0.58831 0.12389 0.22674 0.0
C1398 C 0.55589 0.11655 0.20532 0.0
C1399 C 0.5924 0.1089 0.18427 0.0
C1400 C 0.66138 0.10844 0.1846 0.0
C1401 C 0.69395 0.11562 0.20606 0.0
C1402 C 0.65767 0.12331 0.22711 0.0
C1403 C 0.48503 0.14231 0.40679 0.0
C1404 C 0.54897 0.14282 0.41837 0.0
C1405 C 0.47615 0.14073 0.37127 0.0
C1406 C 0.5311 0.14018 0.34599 0.0
C1407 C 0.59522 0.14017 0.35787 0.0
C1408 C 0.60405 0.14137 0.39376 0.0
C1409 C 0.52163 0.14011 0.30738 0.0
C1410 C 0.55705 0.13251 0.2851 0.0
C1411 C 0.47776 0.14752 0.29233 0.0
C1412 C 0.44257 0.15637 0.31314 0.0
C1413 C 0.47839 0.16429 0.33078 0.0
C1414 C 0.44485 0.17248 0.351 0.0
C1415 C 0.37551 0.17288 0.35358 0.0
C1416 C 0.33958 0.16511 0.3358 0.0
C1417 C 0.37288 0.15691 0.31553 0.0
H1418 H 0.34964 0.17921 0.3693 0.0
H1419 H 0.68956 0.1025 0.16829 0.0
H1420 H 0.55497 0.15041 0.92203 0.0
H1421 H 0.57091 0.15274 0.85797 0.0
H1422 H 0.435 0.12571 0.84525 0.0
H1423 H 0.4178 0.12359 0.90874 0.0
H1424 H 0.62075 0.14022 0.8072 0.0
H1425 H 0.3553 0.12815 0.77282 0.0
H1426 H 0.23949 0.12985 0.79851 0.0
H1427 H 0.29333 0.15811 0.85788 0.0
H1428 H 0.40924 0.15669 0.83218 0.0
H1429 H 0.63091 0.12283 0.63114 0.0
H1430 H 0.613 0.12491 0.69459 0.0
H1431 H 0.48719 0.15299 0.68141 0.0
H1432 H 0.5034 0.15065 0.61737 0.0
H1433 H 0.43268 0.1412 0.73252 0.0
H1434 H 0.65175 0.15527 0.70714 0.0
H1435 H 0.76822 0.1555 0.6821 0.0
H1436 H 0.80844 0.12686 0.74276 0.0
H1437 H 0.69169 0.12634 0.76773 0.0
C1438 C 0.52812 0.14504 0.9055 0.0
C1439 C 0.48499 0.13683 0.92056 0.0
C1440 C 0.53739 0.14635 0.86883 0.0
C1441 C 0.50354 0.1395 0.8464 0.0
C1442 C 0.46067 0.13129 0.86163 0.0
C1443 C 0.45116 0.13003 0.89812 0.0
C1444 C 0.51437 0.14062 0.80718 0.0
C1445 C 0.57952 0.14047 0.79096 0.0
C1446 C 0.46096 0.14122 0.78559 0.0
C1447 C 0.3911 0.14225 0.80075 0.0
C1448 C 0.34236 0.13477 0.7912 0.0
C1449 C 0.27671 0.13567 0.80581 0.0
C1450 C 0.2591 0.14407 0.82988 0.0
C1451 C 0.30707 0.15159 0.83931 0.0
C1452 C 0.37277 0.15073 0.82476 0.0
C1453 C 0.59958 0.12949 0.64165 0.0
C1454 C 0.56868 0.13659 0.61906 0.0
C1455 C 0.58967 0.13072 0.67814 0.0
C1456 C 0.54956 0.13923 0.69326 0.0
C1457 C 0.51853 0.14636 0.67068 0.0
C1458 C 0.528 0.14506 0.63401 0.0
C1459 C 0.53907 0.14044 0.7325 0.0
C1460 C 0.47396 0.14102 0.74874 0.0
C1461 C 0.59259 0.14047 0.75414 0.0
C1462 C 0.66282 0.14073 0.73912 0.0
C1463 C 0.68529 0.14897 0.71495 0.0
C1464 C 0.75144 0.14915 0.70078 0.0
C1465 C 0.7958 0.14119 0.71082 0.0
C1466 C 0.77403 0.13302 0.73501 0.0
C1467 C 0.70788 0.13278 0.74919 0.0
H1468 H 0.84707 0.14135 0.69997 0.0
H1469 H 0.20827 0.14474 0.84118 0.0
H1470 H 0.39955 0.88474 0.63542 0.0
H1471 H 0.41104 0.88699 0.69828 0.0
H1472 H 0.624 0.88414 0.67836 0.0
H1473 H 0.61149 0.88096 0.61634 0.0
H1474 H 0.59674 0.87322 0.73057 0.0
H1475 H 0.52917 0.90972 0.70445 0.0
H1476 H 0.45976 0.92422 0.68142 0.0
H1477 H 0.294 0.9138 0.75194 0.0
H1478 H 0.36215 0.89912 0.77506 0.0
H1479 H 0.65272 0.88895 0.90764 0.0
H1480 H 0.64626 0.89142 0.84406 0.0
H1481 H 0.44179 0.88066 0.85534 0.0
H1482 H 0.44861 0.8779 0.9182 0.0
H1483 H 0.47048 0.89988 0.80859 0.0
H1484 H 0.54652 0.86245 0.8304 0.0
H1485 H 0.6238 0.84918 0.85355 0.0
H1486 H 0.78648 0.86385 0.78963 0.0
H1487 H 0.71019 0.87731 0.76648 0.0
C1488 C 0.44872 0.88475 0.64457 0.0
C1489 C 0.50463 0.8827 0.62105 0.0
C1490 C 0.45553 0.88611 0.6806 0.0
C1491 C 0.5187 0.88589 0.69368 0.0
C1492 C 0.57457 0.88426 0.66957 0.0
C1493 C 0.5675 0.88253 0.63393 0.0
C1494 C 0.52684 0.88669 0.73238 0.0
C1495 C 0.56989 0.87925 0.7472 0.0
C1496 C 0.49174 0.89441 0.75496 0.0
C1497 C 0.45064 0.90325 0.74126 0.0
C1498 C 0.47779 0.91047 0.71489 0.0
C1499 C 0.43869 0.91873 0.70184 0.0
C1500 C 0.37248 0.91991 0.71516 0.0
C1501 C 0.34528 0.91286 0.74162 0.0
C1502 C 0.38414 0.90458 0.75473 0.0
C1503 C 0.60625 0.88728 0.89655 0.0
C1504 C 0.55126 0.88318 0.91784 0.0
C1505 C 0.60258 0.88866 0.86024 0.0
C1506 C 0.54346 0.88621 0.84484 0.0
C1507 C 0.48779 0.88265 0.86651 0.0
C1508 C 0.49189 0.88103 0.90245 0.0
C1509 C 0.54028 0.88651 0.80598 0.0
C1510 C 0.49788 0.89405 0.79141 0.0
C1511 C 0.57726 0.87912 0.78341 0.0
C1512 C 0.62283 0.87095 0.79702 0.0
C1513 C 0.59885 0.86289 0.8215 0.0
C1514 C 0.64245 0.85533 0.83458 0.0
C1515 C 0.71004 0.85569 0.82315 0.0
C1516 C 0.73413 0.86359 0.79851 0.0
C1517 C 0.69074 0.87118 0.78539 0.0
H1518 H 0.74372 0.84984 0.83331 0.0
H1519 H 0.34228 0.92631 0.70501 0.0
loop_
_geom_bond_atom_site_label_1
_geom_bond_atom_site_label_2
_geom_bond_distance
_geom_bond_site_symmetry_2
_ccdc_geom_bond_type
Ho0 C3 2.811 . S
Ho0 O20 2.322 1_455 S
Ho0 O22 2.378 . S
Ho0 O23 2.524 1_554 S
Ho0 O24 2.381 . S
Ho0 O25 2.669 . S
Ho0 O27 2.346 . S
Ho0 O31 2.305 1_554 S
Ho1 C12 2.811 . S
Ho1 O21 2.346 1_455 S
Ho1 O25 2.305 . S
Ho1 O26 2.322 . S
Ho1 O28 2.378 1_554 S
Ho1 O29 2.524 . S
Ho1 O30 2.381 1_554 S
Ho1 O31 2.669 1_554 S
C2 O20 1.259 . S
C2 O21 1.268 . S
C3 Ho0 2.811 . S
C3 C4 1.488 1_455 S
C3 O22 1.215 . S
C3 O23 1.289 1_554 S
C4 C3 1.488 1_655 S
C4 C5 1.348 1_554 S
C4 C9 1.413 . S
C5 C4 1.348 1_556 S
C5 C6 1.442 . S
C5 H32 0.930 . S
C6 C5 1.442 . S
C6 C7 1.381 1_556 S
C6 H33 0.931 . S
C7 C6 1.381 1_554 S
C7 C8 1.321 . S
C8 C7 1.321 . S
C8 C9 1.403 . S
C8 H34 0.934 . S
C9 C4 1.413 . S
C9 C8 1.403 . S
C9 H35 0.930 . S
C10 O24 1.275 . S
C10 O25 1.256 . S
C11 O26 1.259 . S
C11 O27 1.268 . S
C12 Ho1 2.811 . S
C12 C13 1.488 . S
C12 O28 1.215 1_554 S
C12 O29 1.289 . S
C13 C12 1.488 . S
C13 C14 1.348 . S
C13 C18 1.413 1_554 S
C14 C13 1.348 . S
C14 C15 1.442 . S
C14 H36 0.930 . S
C15 C14 1.442 . S
C15 C16 1.381 . S
C15 H37 0.931 . S
C16 C15 1.381 . S
C16 C17 1.321 1_554 S
C17 C16 1.321 1_556 S
C17 C18 1.403 . S
C17 H38 0.934 . S
C18 C13 1.413 1_556 S
C18 C17 1.403 . S
C18 H39 0.930 . S
C19 O30 1.275 . S
C19 O31 1.256 . S
O20 Ho0 2.322 1_655 S
O20 C2 1.259 . S
O21 Ho1 2.346 1_655 S
O21 C2 1.268 . S
O22 Ho0 2.378 . S
O22 C3 1.215 . S
O23 Ho0 2.524 1_556 S
O23 C3 1.289 1_556 S
O24 Ho0 2.381 . S
O24 C10 1.275 . S
O25 Ho0 2.669 . S
O25 Ho1 2.305 . S
O25 C10 1.256 . S
O26 Ho1 2.322 . S
O26 C11 1.259 . S
O27 Ho0 2.346 . S
O27 C11 1.268 . S
O28 Ho1 2.378 1_556 S
O28 C12 1.215 1_556 S
O29 Ho1 2.524 . S
O29 C12 1.289 . S
O30 Ho1 2.381 1_556 S
O30 C19 1.275 . S
O31 Ho0 2.305 1_556 S
O31 Ho1 2.669 1_556 S
O31 C19 1.256 . S
H32 C5 0.930 . S
H33 C6 0.931 . S
H34 C8 0.934 . S
H35 C9 0.930 . S
H36 C14 0.930 . S
H37 C15 0.931 . S
H38 C17 0.934 . S
H39 C18 0.930 . S
Ho40 C43 2.811 . S
Ho40 O60 2.322 . S
Ho40 O62 2.378 . S
Ho40 O63 2.524 1_554 S
Ho40 O64 2.381 . S
Ho40 O65 2.669 . S
Ho40 O67 2.346 1_655 S
Ho40 O71 2.305 1_554 S
Ho41 C52 2.811 . S
Ho41 O61 2.346 . S
Ho41 O65 2.305 . S
Ho41 O66 2.322 1_655 S
Ho41 O68 2.378 1_554 S
Ho41 O69 2.524 . S
Ho41 O70 2.381 1_554 S
Ho41 O71 2.669 1_554 S
C42 O60 1.259 . S
C42 O61 1.268 . S
C43 Ho40 2.811 . S
C43 C44 1.488 . S
C43 O62 1.215 . S
C43 O63 1.289 1_554 S
C44 C43 1.488 . S
C44 C45 1.348 1_554 S
C44 C49 1.413 . S
C45 C44 1.348 1_556 S
C45 C46 1.442 . S
C45 H72 0.930 . S
C46 C45 1.442 . S
C46 C47 1.381 1_556 S
C46 H73 0.931 . S
C47 C46 1.381 1_554 S
C47 C48 1.321 . S
C48 C47 1.321 . S
C48 C49 1.403 . S
C48 H74 0.934 . S
C49 C44 1.413 . S
C49 C48 1.403 . S
C49 H75 0.930 . S
C50 O64 1.275 . S
C50 O65 1.256 . S
C51 O66 1.259 . S
C51 O67 1.268 . S
C52 Ho41 2.811 . S
C52 C53 1.488 1_655 S
C52 O68 1.215 1_554 S
C52 O69 1.289 . S
C53 C52 1.488 1_455 S
C53 C54 1.348 . S
C53 C58 1.413 1_554 S
C54 C53 1.348 . S
C54 C55 1.442 . S
C54 H76 0.930 . S
C55 C54 1.442 . S
C55 C56 1.381 . S
C55 H77 0.931 . S
C56 C55 1.381 . S
C56 C57 1.336 . S
C57 C56 1.336 . S
C57 C58 1.400 1_554 S
C57 H78 0.922 1_554 S
C58 C53 1.413 1_556 S
C58 C57 1.400 1_556 S
C58 H79 0.930 . S
C59 O70 1.275 . S
C59 O71 1.256 . S
O60 Ho40 2.322 . S
O60 C42 1.259 . S
O61 Ho41 2.346 . S
O61 C42 1.268 . S
O62 Ho40 2.378 . S
O62 C43 1.215 . S
O63 Ho40 2.524 1_556 S
O63 C43 1.289 1_556 S
O64 Ho40 2.381 . S
O64 C50 1.275 . S
O65 Ho40 2.669 . S
O65 Ho41 2.305 . S
O65 C50 1.256 . S
O66 Ho41 2.322 1_455 S
O66 C51 1.259 . S
O67 Ho40 2.346 1_455 S
O67 C51 1.268 . S
O68 Ho41 2.378 1_556 S
O68 C52 1.215 1_556 S
O69 Ho41 2.524 . S
O69 C52 1.289 . S
O70 Ho41 2.381 1_556 S
O70 C59 1.275 . S
O71 Ho40 2.305 1_556 S
O71 Ho41 2.669 1_556 S
O71 C59 1.256 . S
H72 C45 0.930 . S
H73 C46 0.931 . S
H74 C48 0.934 . S
H75 C49 0.930 . S
H76 C54 0.930 . S
H77 C55 0.931 . S
H78 C57 0.922 1_556 S
H79 C58 0.930 . S
Ho80 C83 2.811 . S
Ho80 O100 2.322 . S
Ho80 O102 2.378 . S
Ho80 O103 2.524 . S
Ho80 O104 2.381 . S
Ho80 O105 2.669 . S
Ho80 O107 2.346 1_455 S
Ho80 O111 2.305 . S
Ho81 C92 2.811 . S
Ho81 O101 2.346 . S
Ho81 O105 2.305 . S
Ho81 O106 2.322 1_455 S
Ho81 O108 2.378 . S
Ho81 O109 2.524 . S
Ho81 O110 2.381 . S
Ho81 O111 2.669 . S
C82 O100 1.259 . S
C82 O101 1.268 . S
C83 Ho80 2.811 . S
C83 C84 1.488 . S
C83 O102 1.215 . S
C83 O103 1.289 . S
C84 C83 1.488 . S
C84 C85 1.348 . S
C84 C89 1.413 . S
C85 C84 1.348 . S
C85 C86 1.442 . S
C85 H112 0.930 . S
C86 C85 1.442 . S
C86 C87 1.381 . S
C86 H113 0.931 . S
C87 C86 1.381 . S
C87 C88 1.321 . S
C88 C87 1.321 . S
C88 C89 1.403 . S
C88 H114 0.934 . S
C89 C84 1.413 . S
C89 C88 1.403 . S
C89 H115 0.930 . S
C90 O104 1.275 . S
C90 O105 1.256 . S
C91 O106 1.259 . S
C91 O107 1.268 . S
C92 Ho81 2.811 . S
C92 C93 1.488 1_455 S
C92 O108 1.215 . S
C92 O109 1.289 . S
C93 C92 1.488 1_655 S
C93 C94 1.348 . S
C93 C98 1.413 . S
C94 C93 1.348 . S
C94 C95 1.442 . S
C94 H116 0.930 . S
C95 C94 1.442 . S
C95 C96 1.381 . S
C95 H117 0.931 . S
C96 C95 1.381 . S
C96 C97 1.321 . S
C97 C96 1.321 . S
C97 C98 1.403 . S
C97 H118 0.934 . S
C98 C93 1.413 . S
C98 C97 1.403 . S
C98 H119 0.930 . S
C99 O110 1.275 . S
C99 O111 1.256 . S
O100 Ho80 2.322 . S
O100 C82 1.259 . S
O101 Ho81 2.346 . S
O101 C82 1.268 . S
O102 Ho80 2.378 . S
O102 C83 1.215 . S
O103 Ho80 2.524 . S
O103 C83 1.289 . S
O104 Ho80 2.381 . S
O104 C90 1.275 . S
O105 Ho80 2.669 . S
O105 Ho81 2.305 . S
O105 C90 1.256 . S
O106 Ho81 2.322 1_655 S
O106 C91 1.259 . S
O107 Ho80 2.346 1_655 S
O107 C91 1.268 . S
O108 Ho81 2.378 . S
O108 C92 1.215 . S
O109 Ho81 2.524 . S
O109 C92 1.289 . S
O110 Ho81 2.381 . S
O110 C99 1.275 . S
O111 Ho80 2.305 . S
O111 Ho81 2.669 . S
O111 C99 1.256 . S
H112 C85 0.930 . S
H113 C86 0.931 . S
H114 C88 0.934 . S
H115 C89 0.930 . S
H116 C94 0.930 . S
H117 C95 0.931 . S
H118 C97 0.934 . S
H119 C98 0.930 . S
Ho120 C123 2.811 . S
Ho120 O140 2.322 1_655 S
Ho120 O142 2.378 . S
Ho120 O143 2.524 . S
Ho120 O144 2.381 . S
Ho120 O145 2.669 . S
Ho120 O147 2.346 . S
Ho120 O151 2.305 . S
Ho121 C132 2.811 . S
Ho121 O141 2.346 1_655 S
Ho121 O145 2.305 . S
Ho121 O146 2.322 . S
Ho121 O148 2.378 . S
Ho121 O149 2.524 . S
Ho121 O150 2.381 . S
Ho121 O151 2.669 . S
C122 O140 1.259 . S
C122 O141 1.268 . S
C123 Ho120 2.811 . S
C123 C124 1.488 1_655 S
C123 O142 1.215 . S
C123 O143 1.289 . S
C124 C123 1.488 1_455 S
C124 C125 1.348 . S
C124 C129 1.413 . S
C125 C124 1.348 . S
C125 C126 1.442 . S
C125 H152 0.930 . S
C126 C125 1.442 . S
C126 C127 1.381 . S
C126 H153 0.931 . S
C127 C126 1.381 . S
C127 C128 1.321 . S
C128 C127 1.321 . S
C128 C129 1.403 . S
C128 H154 0.934 . S
C129 C124 1.413 . S
C129 C128 1.403 . S
C129 H155 0.930 . S
C130 O144 1.275 . S
C130 O145 1.256 . S
C131 O146 1.259 . S
C131 O147 1.268 . S
C132 Ho121 2.811 . S
C132 C133 1.488 . S
C132 O148 1.215 . S
C132 O149 1.289 . S
C133 C132 1.488 . S
C133 C134 1.348 . S
C133 C138 1.413 . S
C134 C133 1.348 . S
C134 C135 1.442 . S
C134 H156 0.930 . S
C135 C134 1.442 . S
C135 C136 1.381 . S
C135 H157 0.931 . S
C136 C135 1.381 . S
C136 C137 1.321 . S
C137 C136 1.321 . S
C137 C138 1.403 . S
C137 H158 0.934 . S
C138 C133 1.413 . S
C138 C137 1.403 . S
C138 H159 0.930 . S
C139 O150 1.275 . S
C139 O151 1.256 . S
O140 Ho120 2.322 1_455 S
O140 C122 1.259 . S
O141 Ho121 2.346 1_455 S
O141 C122 1.268 . S
O142 Ho120 2.378 . S
O142 C123 1.215 . S
O143 Ho120 2.524 . S
O143 C123 1.289 . S
O144 Ho120 2.381 . S
O144 C130 1.275 . S
O145 Ho120 2.669 . S
O145 Ho121 2.305 . S
O145 C130 1.256 . S
O146 Ho121 2.322 . S
O146 C131 1.259 . S
O147 Ho120 2.346 . S
O147 C131 1.268 . S
O148 Ho121 2.378 . S
O148 C132 1.215 . S
O149 Ho121 2.524 . S
O149 C132 1.289 . S
O150 Ho121 2.381 . S
O150 C139 1.275 . S
O151 Ho120 2.305 . S
O151 Ho121 2.669 . S
O151 C139 1.256 . S
H152 C125 0.930 . S
H153 C126 0.931 . S
H154 C128 0.934 . S
H155 C129 0.930 . S
H156 C134 0.930 . S
H157 C135 0.931 . S
H158 C137 0.934 . S
H159 C138 0.930 . S
Ho160 C163 2.811 . S
Ho160 O180 2.322 . S
Ho160 O182 2.378 . S
Ho160 O183 2.524 1_554 S
Ho160 O184 2.381 . S
Ho160 O185 2.669 . S
Ho160 O187 2.346 . S
Ho160 O191 2.305 1_554 S
Ho161 C172 2.811 . S
Ho161 O181 2.346 . S
Ho161 O185 2.305 . S
Ho161 O186 2.322 . S
Ho161 O188 2.378 1_554 S
Ho161 O189 2.524 . S
Ho161 O190 2.381 1_554 S
Ho161 O191 2.669 1_554 S
C162 O180 1.259 . S
C162 O181 1.268 . S
C163 Ho160 2.811 . S
C163 C164 1.488 . S
C163 O182 1.215 . S
C163 O183 1.289 1_554 S
C164 C163 1.488 . S
C164 C165 1.348 1_554 S
C164 C169 1.413 . S
C165 C164 1.348 1_556 S
C165 C166 1.442 . S
C165 H192 0.930 . S
C166 C165 1.442 . S
C166 C167 1.381 1_556 S
C166 H193 0.931 . S
C167 C166 1.381 1_554 S
C167 C168 1.321 . S
C168 C167 1.321 . S
C168 C169 1.403 . S
C168 H194 0.934 . S
C169 C164 1.413 . S
C169 C168 1.403 . S
C169 H195 0.930 . S
C170 O184 1.275 . S
C170 O185 1.256 . S
C171 O186 1.259 . S
C171 O187 1.268 . S
C172 Ho161 2.811 . S
C172 C173 1.488 . S
C172 O188 1.215 1_554 S
C172 O189 1.289 . S
C173 C172 1.488 . S
C173 C174 1.348 . S
C173 C178 1.413 1_554 S
C174 C173 1.348 . S
C174 C175 1.442 . S
C174 H196 0.930 . S
C175 C174 1.442 . S
C175 C176 1.381 . S
C175 H197 0.931 . S
C176 C175 1.381 . S
C176 C177 1.321 1_554 S
C177 C176 1.321 1_556 S
C177 C178 1.403 . S
C177 H198 0.934 . S
C178 C173 1.413 1_556 S
C178 C177 1.403 . S
C178 H199 0.930 . S
C179 O190 1.275 . S
C179 O191 1.256 . S
O180 Ho160 2.322 . S
O180 C162 1.259 . S
O181 Ho161 2.346 . S
O181 C162 1.268 . S
O182 Ho160 2.378 . S
O182 C163 1.215 . S
O183 Ho160 2.524 1_556 S
O183 C163 1.289 1_556 S
O184 Ho160 2.381 . S
O184 C170 1.275 . S
O185 Ho160 2.669 . S
O185 Ho161 2.305 . S
O185 C170 1.256 . S
O186 Ho161 2.322 . S
O186 C171 1.259 . S
O187 Ho160 2.346 . S
O187 C171 1.268 . S
O188 Ho161 2.378 1_556 S
O188 C172 1.215 1_556 S
O189 Ho161 2.524 . S
O189 C172 1.289 . S
O190 Ho161 2.381 1_556 S
O190 C179 1.275 . S
O191 Ho160 2.305 1_556 S
O191 Ho161 2.669 1_556 S
O191 C179 1.256 . S
H192 C165 0.930 . S
H193 C166 0.931 . S
H194 C168 0.934 . S
H195 C169 0.930 . S
H196 C174 0.930 . S
H197 C175 0.931 . S
H198 C177 0.934 . S
H199 C178 0.930 . S
Ho200 C203 2.811 . S
Ho200 O220 2.322 . S
Ho200 O222 2.378 . S
Ho200 O223 2.524 1_554 S
Ho200 O224 2.381 . S
Ho200 O225 2.669 . S
Ho200 O227 2.346 . S
Ho200 O231 2.305 1_554 S
Ho201 C212 2.811 . S
Ho201 O221 2.346 . S
Ho201 O225 2.305 . S
Ho201 O226 2.322 . S
Ho201 O228 2.378 1_554 S
Ho201 O229 2.524 . S
Ho201 O230 2.381 1_554 S
Ho201 O231 2.669 1_554 S
C202 O220 1.259 . S
C202 O221 1.268 . S
C203 Ho200 2.811 . S
C203 C204 1.488 . S
C203 O222 1.215 . S
C203 O223 1.289 1_554 S
C204 C203 1.488 . S
C204 C205 1.348 1_554 S
C204 C209 1.413 . S
C205 C204 1.348 1_556 S
C205 C206 1.442 . S
C205 H232 0.930 . S
C206 C205 1.442 . S
C206 C207 1.381 1_556 S
C206 H233 0.931 . S
C207 C206 1.381 1_554 S
C207 C208 1.321 . S
C208 C207 1.321 . S
C208 C209 1.403 . S
C208 H234 0.934 . S
C209 C204 1.413 . S
C209 C208 1.403 . S
C209 H235 0.930 . S
C210 O224 1.275 . S
C210 O225 1.256 . S
C211 O226 1.259 . S
C211 O227 1.268 . S
C212 Ho201 2.811 . S
C212 C213 1.488 . S
C212 O228 1.215 1_554 S
C212 O229 1.289 . S
C213 C212 1.488 . S
C213 C214 1.348 . S
C213 C218 1.413 1_554 S
C214 C213 1.348 . S
C214 C215 1.442 . S
C214 H236 0.930 . S
C215 C214 1.442 . S
C215 C216 1.381 . S
C215 H237 0.931 . S
C216 C215 1.381 . S
C216 C217 1.336 . S
C217 C216 1.336 . S
C217 C218 1.400 1_554 S
C217 H238 0.921 1_554 S
C218 C213 1.413 1_556 S
C218 C217 1.400 1_556 S
C218 H239 0.930 . S
C219 O230 1.275 . S
C219 O231 1.256 . S
O220 Ho200 2.322 . S
O220 C202 1.259 . S
O221 Ho201 2.346 . S
O221 C202 1.268 . S
O222 Ho200 2.378 . S
O222 C203 1.215 . S
O223 Ho200 2.524 1_556 S
O223 C203 1.289 1_556 S
O224 Ho200 2.381 . S
O224 C210 1.275 . S
O225 Ho200 2.669 . S
O225 Ho201 2.305 . S
O225 C210 1.256 . S
O226 Ho201 2.322 . S
O226 C211 1.259 . S
O227 Ho200 2.346 . S
O227 C211 1.268 . S
O228 Ho201 2.378 1_556 S
O228 C212 1.215 1_556 S
O229 Ho201 2.524 . S
O229 C212 1.289 . S
O230 Ho201 2.381 1_556 S
O230 C219 1.275 . S
O231 Ho200 2.305 1_556 S
O231 Ho201 2.669 1_556 S
O231 C219 1.256 . S
H232 C205 0.930 . S
H233 C206 0.931 . S
H234 C208 0.934 . S
H235 C209 0.930 . S
H236 C214 0.930 . S
H237 C215 0.931 . S
H238 C217 0.921 1_556 S
H239 C218 0.930 . S
Ho240 C243 2.811 . S
Ho240 O260 2.322 . S
Ho240 O262 2.378 . S
Ho240 O263 2.524 . S
Ho240 O264 2.381 . S
Ho240 O265 2.669 . S
Ho240 O267 2.346 . S
Ho240 O271 2.305 . S
Ho241 C252 2.811 . S
Ho241 O261 2.346 . S
Ho241 O265 2.305 . S
Ho241 O266 2.322 . S
Ho241 O268 2.378 . S
Ho241 O269 2.524 . S
Ho241 O270 2.381 . S
Ho241 O271 2.669 . S
C242 O260 1.259 . S
C242 O261 1.268 . S
C243 Ho240 2.811 . S
C243 C244 1.488 . S
C243 O262 1.215 . S
C243 O263 1.289 . S
C244 C243 1.488 . S
C244 C245 1.348 . S
C244 C249 1.413 . S
C245 C244 1.348 . S
C245 C246 1.442 . S
C245 H272 0.930 . S
C246 C245 1.442 . S
C246 C247 1.381 . S
C246 H273 0.931 . S
C247 C246 1.381 . S
C247 C248 1.321 . S
C248 C247 1.321 . S
C248 C249 1.403 . S
C248 H274 0.934 . S
C249 C244 1.413 . S
C249 C248 1.403 . S
C249 H275 0.930 . S
C250 O264 1.275 . S
C250 O265 1.256 . S
C251 O266 1.259 . S
C251 O267 1.268 . S
C252 Ho241 2.811 . S
C252 C253 1.488 . S
C252 O268 1.215 . S
C252 O269 1.289 . S
C253 C252 1.488 . S
C253 C254 1.348 . S
C253 C258 1.413 . S
C254 C253 1.348 . S
C254 C255 1.442 . S
C254 H276 0.930 . S
C255 C254 1.442 . S
C255 C256 1.381 . S
C255 H277 0.931 . S
C256 C255 1.381 . S
C256 C257 1.321 . S
C257 C256 1.321 . S
C257 C258 1.403 . S
C257 H278 0.934 . S
C258 C253 1.413 . S
C258 C257 1.403 . S
C258 H279 0.930 . S
C259 O270 1.275 . S
C259 O271 1.256 . S
O260 Ho240 2.322 . S
O260 C242 1.259 . S
O261 Ho241 2.346 . S
O261 C242 1.268 . S
O262 Ho240 2.378 . S
O262 C243 1.215 . S
O263 Ho240 2.524 . S
O263 C243 1.289 . S
O264 Ho240 2.381 . S
O264 C250 1.275 . S
O265 Ho240 2.669 . S
O265 Ho241 2.305 . S
O265 C250 1.256 . S
O266 Ho241 2.322 . S
O266 C251 1.259 . S
O267 Ho240 2.346 . S
O267 C251 1.268 . S
O268 Ho241 2.378 . S
O268 C252 1.215 . S
O269 Ho241 2.524 . S
O269 C252 1.289 . S
O270 Ho241 2.381 . S
O270 C259 1.275 . S
O271 Ho240 2.305 . S
O271 Ho241 2.669 . S
O271 C259 1.256 . S
H272 C245 0.930 . S
H273 C246 0.931 . S
H274 C248 0.934 . S
H275 C249 0.930 . S
H276 C254 0.930 . S
H277 C255 0.931 . S
H278 C257 0.934 . S
H279 C258 0.930 . S
Ho280 C283 2.811 . S
Ho280 O300 2.322 . S
Ho280 O302 2.378 . S
Ho280 O303 2.524 . S
Ho280 O304 2.381 . S
Ho280 O305 2.669 . S
Ho280 O307 2.346 . S
Ho280 O311 2.305 . S
Ho281 C292 2.811 . S
Ho281 O301 2.346 . S
Ho281 O305 2.305 . S
Ho281 O306 2.322 . S
Ho281 O308 2.378 . S
Ho281 O309 2.524 . S
Ho281 O310 2.381 . S
Ho281 O311 2.669 . S
C282 O300 1.259 . S
C282 O301 1.268 . S
C283 Ho280 2.811 . S
C283 C284 1.488 . S
C283 O302 1.215 . S
C283 O303 1.289 . S
C284 C283 1.488 . S
C284 C285 1.348 . S
C284 C289 1.413 . S
C285 C284 1.348 . S
C285 C286 1.442 . S
C285 H312 0.930 . S
C286 C285 1.442 . S
C286 C287 1.381 . S
C286 H313 0.931 . S
C287 C286 1.381 . S
C287 C288 1.321 . S
C288 C287 1.321 . S
C288 C289 1.403 . S
C288 H314 0.934 . S
C289 C284 1.413 . S
C289 C288 1.403 . S
C289 H315 0.930 . S
C290 O304 1.275 . S
C290 O305 1.256 . S
C291 O306 1.259 . S
C291 O307 1.268 . S
C292 Ho281 2.811 . S
C292 C293 1.488 . S
C292 O308 1.215 . S
C292 O309 1.289 . S
C293 C292 1.488 . S
C293 C294 1.348 . S
C293 C298 1.413 . S
C294 C293 1.348 . S
C294 C295 1.442 . S
C294 H316 0.930 . S
C295 C294 1.442 . S
C295 C296 1.381 . S
C295 H317 0.931 . S
C296 C295 1.381 . S
C296 C297 1.321 . S
C297 C296 1.321 . S
C297 C298 1.403 . S
C297 H318 0.934 . S
C298 C293 1.413 . S
C298 C297 1.403 . S
C298 H319 0.930 . S
C299 O310 1.275 . S
C299 O311 1.256 . S
O300 Ho280 2.322 . S
O300 C282 1.259 . S
O301 Ho281 2.346 . S
O301 C282 1.268 . S
O302 Ho280 2.378 . S
O302 C283 1.215 . S
O303 Ho280 2.524 . S
O303 C283 1.289 . S
O304 Ho280 2.381 . S
O304 C290 1.275 . S
O305 Ho280 2.669 . S
O305 Ho281 2.305 . S
O305 C290 1.256 . S
O306 Ho281 2.322 . S
O306 C291 1.259 . S
O307 Ho280 2.346 . S
O307 C291 1.268 . S
O308 Ho281 2.378 . S
O308 C292 1.215 . S
O309 Ho281 2.524 . S
O309 C292 1.289 . S
O310 Ho281 2.381 . S
O310 C299 1.275 . S
O311 Ho280 2.305 . S
O311 Ho281 2.669 . S
O311 C299 1.256 . S
H312 C285 0.930 . S
H313 C286 0.931 . S
H314 C288 0.934 . S
H315 C289 0.930 . S
H316 C294 0.930 . S
H317 C295 0.931 . S
H318 C297 0.934 . S
H319 C298 0.930 . S
H320 C338 0.951 . S
H321 C340 0.951 . S
H322 C342 0.950 . S
H323 C343 0.950 . S
H324 C345 0.950 . S
H325 C348 0.950 . S
H326 C349 0.950 . S
H327 C351 0.950 . S
H328 C352 0.950 . S
H329 C353 0.951 . S
H330 C355 0.951 . S
H331 C357 0.950 . S
H332 C358 0.950 . S
H333 C360 0.950 . S
H334 C363 0.950 . S
H335 C364 0.950 . S
H336 C366 0.950 . S
H337 C367 0.950 . S
C338 H320 0.951 . S
C338 C339 1.366 . S
C338 C340 1.388 . S
C339 C338 1.366 . S
C339 C343 1.385 . S
C340 H321 0.951 . S
C340 C338 1.388 . S
C340 C341 1.366 . S
C341 C340 1.366 . S
C341 C342 1.414 . S
C341 C344 1.499 . S
C342 H322 0.950 . S
C342 C341 1.414 . S
C342 C343 1.374 . S
C343 H323 0.950 . S
C343 C339 1.385 . S
C343 C342 1.374 . S
C344 C341 1.499 . S
C344 C345 1.373 . S
C344 C346 1.389 1_554 S
C345 H324 0.950 . S
C345 C344 1.373 . S
C345 C361 1.377 . S
C346 C344 1.389 1_556 S
C346 C347 1.524 . S
C346 C360 1.377 . S
C347 C346 1.524 . S
C347 C348 1.397 . S
C347 C352 1.363 . S
C348 H325 0.950 . S
C348 C347 1.397 . S
C348 C349 1.334 . S
C349 H326 0.950 . S
C349 C348 1.334 . S
C349 C350 1.287 . S
C350 C349 1.287 . S
C350 C351 1.524 . S
C350 H369 0.913 . S
C351 H327 0.950 . S
C351 C350 1.524 . S
C351 C352 1.415 . S
C352 H328 0.950 . S
C352 C347 1.363 . S
C352 C351 1.415 . S
C353 H329 0.951 . S
C353 C354 1.366 . S
C353 C355 1.388 . S
C354 C353 1.366 . S
C354 C358 1.385 . S
C355 H330 0.951 . S
C355 C353 1.388 . S
C355 C356 1.366 . S
C356 C355 1.366 . S
C356 C357 1.414 . S
C356 C359 1.499 . S
C357 H331 0.950 . S
C357 C356 1.414 . S
C357 C358 1.374 . S
C358 H332 0.950 . S
C358 C354 1.385 . S
C358 C357 1.374 . S
C359 C356 1.499 . S
C359 C360 1.373 1_554 S
C359 C361 1.389 . S
C360 H333 0.950 . S
C360 C346 1.377 . S
C360 C359 1.373 1_556 S
C361 C345 1.377 . S
C361 C359 1.389 . S
C361 C362 1.524 . S
C362 C361 1.524 . S
C362 C363 1.397 . S
C362 C367 1.363 . S
C363 H334 0.950 . S
C363 C362 1.397 . S
C363 C364 1.334 . S
C364 H335 0.950 . S
C364 C363 1.334 . S
C364 C365 1.287 . S
C365 C364 1.287 . S
C365 C366 1.524 . S
C365 H368 0.999 . S
C366 H336 0.950 . S
C366 C365 1.524 . S
C366 C367 1.415 . S
C367 H337 0.950 . S
C367 C362 1.363 . S
C367 C366 1.415 . S
H368 C365 0.999 . S
H369 C350 0.913 . S
H370 C388 0.951 . S
H371 C390 0.951 . S
H372 C392 0.950 . S
H373 C393 0.950 . S
H374 C395 0.950 . S
H375 C398 0.950 . S
H376 C399 0.950 . S
H377 C401 0.950 . S
H378 C402 0.950 . S
H379 C403 0.951 . S
H380 C405 0.951 . S
H381 C407 0.950 . S
H382 C408 0.950 . S
H383 C410 0.950 . S
H384 C413 0.950 . S
H385 C414 0.950 . S
H386 C416 0.950 . S
H387 C417 0.950 . S
C388 H370 0.951 . S
C388 C389 1.366 1_556 S
C388 C390 1.388 . S
C389 C388 1.366 1_554 S
C389 C393 1.385 . S
C390 H371 0.951 . S
C390 C388 1.388 . S
C390 C391 1.366 1_556 S
C391 C390 1.366 1_554 S
C391 C392 1.414 . S
C391 C394 1.499 . S
C392 H372 0.950 . S
C392 C391 1.414 . S
C392 C393 1.374 . S
C393 H373 0.950 . S
C393 C389 1.385 . S
C393 C392 1.374 . S
C394 C391 1.499 . S
C394 C395 1.373 . S
C394 C396 1.389 1_554 S
C395 H374 0.950 . S
C395 C394 1.373 . S
C395 C411 1.377 . S
C396 C394 1.389 1_556 S
C396 C397 1.524 . S
C396 C410 1.377 . S
C397 C396 1.524 . S
C397 C398 1.397 . S
C397 C402 1.363 . S
C398 H375 0.950 . S
C398 C397 1.397 . S
C398 C399 1.334 . S
C399 H376 0.950 . S
C399 C398 1.334 . S
C399 C400 1.287 . S
C400 C399 1.287 . S
C400 C401 1.524 . S
C400 H419 0.913 . S
C401 H377 0.950 . S
C401 C400 1.524 . S
C401 C402 1.415 . S
C402 H378 0.950 . S
C402 C397 1.363 . S
C402 C401 1.415 . S
C403 H379 0.951 . S
C403 C404 1.366 . S
C403 C405 1.388 . S
C404 C403 1.366 . S
C404 C408 1.385 1_554 S
C405 H380 0.951 . S
C405 C403 1.388 . S
C405 C406 1.366 . S
C406 C405 1.366 . S
C406 C407 1.414 1_554 S
C406 C409 1.499 . S
C407 H381 0.950 . S
C407 C406 1.414 1_556 S
C407 C408 1.374 . S
C408 H382 0.950 . S
C408 C404 1.385 1_556 S
C408 C407 1.374 . S
C409 C406 1.499 . S
C409 C410 1.373 1_554 S
C409 C411 1.389 . S
C410 H383 0.950 . S
C410 C396 1.377 . S
C410 C409 1.373 1_556 S
C411 C395 1.377 . S
C411 C409 1.389 . S
C411 C412 1.524 . S
C412 C411 1.524 . S
C412 C413 1.397 . S
C412 C417 1.363 . S
C413 H384 0.950 . S
C413 C412 1.397 . S
C413 C414 1.334 . S
C414 H385 0.950 . S
C414 C413 1.334 . S
C414 C415 1.287 . S
C415 C414 1.287 . S
C415 C416 1.524 . S
C415 H418 0.999 . S
C416 H386 0.950 . S
C416 C415 1.524 . S
C416 C417 1.415 . S
C417 H387 0.950 . S
C417 C412 1.363 . S
C417 C416 1.415 . S
H418 C415 0.999 . S
H419 C400 0.913 . S
H420 C438 0.951 . S
H421 C440 0.951 . S
H422 C442 0.950 . S
H423 C443 0.950 . S
H424 C445 0.950 . S
H425 C448 0.950 . S
H426 C449 0.950 . S
H427 C451 0.950 . S
H428 C452 0.950 . S
H429 C453 0.951 . S
H430 C455 0.951 . S
H431 C457 0.950 . S
H432 C458 0.950 . S
H433 C460 0.950 . S
H434 C463 0.950 . S
H435 C464 0.950 . S
H436 C466 0.950 . S
H437 C467 0.950 . S
C438 H420 0.951 . S
C438 C439 1.366 . S
C438 C440 1.388 . S
C439 C438 1.366 . S
C439 C443 1.385 . S
C440 H421 0.951 . S
C440 C438 1.388 . S
C440 C441 1.366 . S
C441 C440 1.366 . S
C441 C442 1.414 . S
C441 C444 1.499 . S
C442 H422 0.950 . S
C442 C441 1.414 . S
C442 C443 1.374 . S
C443 H423 0.950 . S
C443 C439 1.385 . S
C443 C442 1.374 . S
C444 C441 1.499 . S
C444 C445 1.373 . S
C444 C446 1.389 . S
C445 H424 0.950 . S
C445 C444 1.373 . S
C445 C461 1.377 . S
C446 C444 1.389 . S
C446 C447 1.524 . S
C446 C460 1.377 . S
C447 C446 1.524 . S
C447 C448 1.397 . S
C447 C452 1.363 . S
C448 H425 0.950 . S
C448 C447 1.397 . S
C448 C449 1.334 . S
C449 H426 0.950 . S
C449 C448 1.334 . S
C449 C450 1.287 . S
C450 C449 1.287 . S
C450 C451 1.524 . S
C450 H469 0.913 . S
C451 H427 0.950 . S
C451 C450 1.524 . S
C451 C452 1.415 . S
C452 H428 0.950 . S
C452 C447 1.363 . S
C452 C451 1.415 . S
C453 H429 0.951 . S
C453 C454 1.366 . S
C453 C455 1.388 . S
C454 C453 1.366 . S
C454 C458 1.385 . S
C455 H430 0.951 . S
C455 C453 1.388 . S
C455 C456 1.366 . S
C456 C455 1.366 . S
C456 C457 1.414 . S
C456 C459 1.499 . S
C457 H431 0.950 . S
C457 C456 1.414 . S
C457 C458 1.374 . S
C458 H432 0.950 . S
C458 C454 1.385 . S
C458 C457 1.374 . S
C459 C456 1.499 . S
C459 C460 1.373 . S
C459 C461 1.389 . S
C460 H433 0.950 . S
C460 C446 1.377 . S
C460 C459 1.373 . S
C461 C445 1.377 . S
C461 C459 1.389 . S
C461 C462 1.524 . S
C462 C461 1.524 . S
C462 C463 1.397 . S
C462 C467 1.363 . S
C463 H434 0.950 . S
C463 C462 1.397 . S
C463 C464 1.334 . S
C464 H435 0.950 . S
C464 C463 1.334 . S
C464 C465 1.287 . S
C465 C464 1.287 . S
C465 C466 1.524 . S
C465 H468 0.999 . S
C466 H436 0.950 . S
C466 C465 1.524 . S
C466 C467 1.415 . S
C467 H437 0.950 . S
C467 C462 1.363 . S
C467 C466 1.415 . S
H468 C465 0.999 . S
H469 C450 0.913 . S
H470 C488 0.951 . S
H471 C490 0.951 . S
H472 C492 0.950 . S
H473 C493 0.950 . S
H474 C495 0.950 . S
H475 C498 0.950 . S
H476 C499 0.950 . S
H477 C501 0.950 . S
H478 C502 0.950 . S
H479 C503 0.951 . S
H480 C505 0.951 . S
H481 C507 0.950 . S
H482 C508 0.950 . S
H483 C510 0.950 . S
H484 C513 0.950 . S
H485 C514 0.950 . S
H486 C516 0.950 . S
H487 C517 0.950 . S
C488 H470 0.951 . S
C488 C489 1.366 . S
C488 C490 1.388 . S
C489 C488 1.366 . S
C489 C493 1.385 . S
C490 H471 0.951 . S
C490 C488 1.388 . S
C490 C491 1.366 . S
C491 C490 1.366 . S
C491 C492 1.414 . S
C491 C494 1.499 . S
C492 H472 0.950 . S
C492 C491 1.414 . S
C492 C493 1.374 . S
C493 H473 0.950 . S
C493 C489 1.385 . S
C493 C492 1.374 . S
C494 C491 1.499 . S
C494 C495 1.373 . S
C494 C496 1.389 . S
C495 H474 0.950 . S
C495 C494 1.373 . S
C495 C511 1.377 . S
C496 C494 1.389 . S
C496 C497 1.524 . S
C496 C510 1.377 . S
C497 C496 1.524 . S
C497 C498 1.397 . S
C497 C502 1.363 . S
C498 H475 0.950 . S
C498 C497 1.397 . S
C498 C499 1.334 . S
C499 H476 0.950 . S
C499 C498 1.334 . S
C499 C500 1.287 . S
C500 C499 1.287 . S
C500 C501 1.524 . S
C500 H519 0.913 . S
C501 H477 0.950 . S
C501 C500 1.524 . S
C501 C502 1.415 . S
C502 H478 0.950 . S
C502 C497 1.363 . S
C502 C501 1.415 . S
C503 H479 0.951 . S
C503 C504 1.366 . S
C503 C505 1.388 . S
C504 C503 1.366 . S
C504 C508 1.385 . S
C505 H480 0.951 . S
C505 C503 1.388 . S
C505 C506 1.366 . S
C506 C505 1.366 . S
C506 C507 1.414 . S
C506 C509 1.499 . S
C507 H481 0.950 . S
C507 C506 1.414 . S
C507 C508 1.374 . S
C508 H482 0.950 . S
C508 C504 1.385 . S
C508 C507 1.374 . S
C509 C506 1.499 . S
C509 C510 1.373 . S
C509 C511 1.389 . S
C510 H483 0.950 . S
C510 C496 1.377 . S
C510 C509 1.373 . S
C511 C495 1.377 . S
C511 C509 1.389 . S
C511 C512 1.524 . S
C512 C511 1.524 . S
C512 C513 1.397 . S
C512 C517 1.363 . S
C513 H484 0.950 . S
C513 C512 1.397 . S
C513 C514 1.334 . S
C514 H485 0.950 . S
C514 C513 1.334 . S
C514 C515 1.287 . S
C515 C514 1.287 . S
C515 C516 1.524 . S
C515 H518 0.999 . S
C516 H486 0.950 . S
C516 C515 1.524 . S
C516 C517 1.415 . S
C517 H487 0.950 . S
C517 C512 1.363 . S
C517 C516 1.415 . S
H518 C515 0.999 . S
H519 C500 0.913 . S
H520 C538 0.951 . S
H521 C540 0.951 . S
H522 C542 0.950 . S
H523 C543 0.950 . S
H524 C545 0.950 . S
H525 C548 0.950 . S
H526 C549 0.950 . S
H527 C551 0.950 . S
H528 C552 0.950 1_455 S
H529 C553 0.951 . S
H530 C555 0.951 . S
H531 C557 0.950 . S
H532 C558 0.950 . S
H533 C560 0.950 . S
H534 C563 0.950 . S
H535 C564 0.950 . S
H536 C566 0.955 . S
H537 C567 0.950 1_556 S
C538 H520 0.951 . S
C538 C539 1.366 . S
C538 C540 1.388 . S
C539 C538 1.366 . S
C539 C543 1.385 1_554 S
C540 H521 0.951 . S
C540 C538 1.388 . S
C540 C541 1.366 . S
C541 C540 1.366 . S
C541 C542 1.414 1_554 S
C541 C544 1.499 . S
C542 H522 0.950 . S
C542 C541 1.414 1_556 S
C542 C543 1.374 . S
C543 H523 0.950 . S
C543 C539 1.385 1_556 S
C543 C542 1.374 . S
C544 C541 1.499 . S
C544 C545 1.373 1_655 S
C544 C546 1.389 1_655 S
C545 H524 0.950 . S
C545 C544 1.373 1_455 S
C545 C561 1.377 . S
C546 C544 1.389 1_455 S
C546 C547 1.524 1_455 S
C546 C560 1.377 . S
C547 C546 1.524 1_655 S
C547 C548 1.397 1_554 S
C547 C552 1.363 . S
C548 H525 0.950 . S
C548 C547 1.397 1_556 S
C548 C549 1.334 . S
C549 H526 0.950 . S
C549 C548 1.334 . S
C549 C550 1.287 . S
C550 C549 1.287 . S
C550 C551 1.524 1_556 S
C550 H569 0.913 . S
C551 H527 0.950 . S
C551 C550 1.524 1_554 S
C551 C552 1.415 . S
C552 H528 0.950 1_655 S
C552 C547 1.363 . S
C552 C551 1.415 . S
C553 H529 0.951 . S
C553 C554 1.366 1_556 S
C553 C555 1.388 . S
C554 C553 1.366 1_554 S
C554 C558 1.385 . S
C555 H530 0.951 . S
C555 C553 1.388 . S
C555 C556 1.366 1_556 S
C556 C555 1.366 1_554 S
C556 C557 1.414 . S
C556 C559 1.499 . S
C557 H531 0.950 . S
C557 C556 1.414 . S
C557 C558 1.374 . S
C558 H532 0.950 . S
C558 C554 1.385 . S
C558 C557 1.374 . S
C559 C556 1.499 . S
C559 C560 1.373 . S
C559 C561 1.389 . S
C560 H533 0.950 . S
C560 C546 1.377 . S
C560 C559 1.373 . S
C561 C545 1.377 . S
C561 C559 1.389 . S
C561 C562 1.524 . S
C562 C561 1.524 . S
C562 C563 1.397 . S
C562 C567 1.363 . S
C563 H534 0.950 . S
C563 C562 1.397 . S
C563 C564 1.334 . S
C564 H535 0.950 . S
C564 C563 1.334 . S
C564 C565 1.287 . S
C565 C564 1.287 . S
C565 C566 1.524 . S
C565 H568 0.999 . S
C566 H536 0.955 . S
C566 C565 1.524 . S
C566 C567 1.415 . S
C567 H537 0.950 1_554 S
C567 C562 1.363 . S
C567 C566 1.415 . S
H568 C565 0.999 . S
H569 C550 0.913 . S
H570 C588 0.951 . S
H571 C590 0.951 . S
H572 C592 0.950 . S
H573 C593 0.950 . S
H574 C595 0.956 1_455 S
H575 C598 0.950 . S
H576 C599 0.950 . S
H577 C601 0.950 . S
H578 C602 0.950 . S
H579 C603 0.951 . S
H580 C605 0.951 . S
H581 C607 0.950 . S
H582 C608 0.950 . S
H583 C610 0.950 . S
H584 C613 0.950 . S
H585 C614 0.950 . S
H586 C616 0.950 . S
H587 C617 0.950 . S
C588 H570 0.951 . S
C588 C589 1.366 . S
C588 C590 1.388 . S
C589 C588 1.366 . S
C589 C593 1.385 . S
C590 H571 0.951 . S
C590 C588 1.388 . S
C590 C591 1.366 . S
C591 C590 1.366 . S
C591 C592 1.414 . S
C591 C594 1.499 . S
C592 H572 0.950 . S
C592 C591 1.414 . S
C592 C593 1.374 . S
C593 H573 0.950 . S
C593 C589 1.385 . S
C593 C592 1.374 . S
C594 C591 1.499 . S
C594 C595 1.365 1_454 S
C594 C596 1.389 1_455 S
C595 H574 0.956 1_655 S
C595 C594 1.365 1_656 S
C595 C611 1.379 . S
C596 C594 1.389 1_655 S
C596 C597 1.524 . S
C596 C610 1.377 . S
C597 C596 1.524 . S
C597 C598 1.397 1_655 S
C597 C602 1.363 . S
C598 H575 0.950 . S
C598 C597 1.397 1_455 S
C598 C599 1.334 . S
C599 H576 0.950 . S
C599 C598 1.334 . S
C599 C600 1.287 . S
C600 C599 1.287 . S
C600 C601 1.524 1_455 S
C600 H619 0.913 . S
C601 H577 0.950 . S
C601 C600 1.524 1_655 S
C601 C602 1.415 . S
C602 H578 0.950 . S
C602 C597 1.363 . S
C602 C601 1.415 . S
C603 H579 0.951 . S
C603 C604 1.366 . S
C603 C605 1.388 . S
C604 C603 1.366 . S
C604 C608 1.385 . S
C605 H580 0.951 . S
C605 C603 1.388 . S
C605 C606 1.366 . S
C606 C605 1.366 . S
C606 C607 1.414 . S
C606 C609 1.499 . S
C607 H581 0.950 . S
C607 C606 1.414 . S
C607 C608 1.374 . S
C608 H582 0.950 . S
C608 C604 1.385 . S
C608 C607 1.374 . S
C609 C606 1.499 . S
C609 C610 1.373 . S
C609 C611 1.389 1_554 S
C610 H583 0.950 . S
C610 C596 1.377 . S
C610 C609 1.373 . S
C611 C595 1.379 . S
C611 C609 1.389 1_556 S
C611 C612 1.524 . S
C612 C611 1.524 . S
C612 C613 1.397 . S
C612 C617 1.363 . S
C613 H584 0.950 . S
C613 C612 1.397 . S
C613 C614 1.334 . S
C614 H585 0.950 . S
C614 C613 1.334 . S
C614 C615 1.287 . S
C615 C614 1.287 . S
C615 C616 1.524 . S
C615 H618 0.999 . S
C616 H586 0.950 . S
C616 C615 1.524 . S
C616 C617 1.415 . S
C617 H587 0.950 . S
C617 C612 1.363 . S
C617 C616 1.415 . S
H618 C615 0.999 . S
H619 C600 0.913 . S
H620 C638 0.951 . S
H621 C640 0.951 . S
H622 C642 0.950 . S
H623 C643 0.950 . S
H624 C645 0.950 . S
H625 C648 0.950 . S
H626 C649 0.950 . S
H627 C651 0.950 . S
H628 C652 0.950 . S
H629 C653 0.951 . S
H630 C655 0.951 . S
H631 C657 0.950 . S
H632 C658 0.950 . S
H633 C660 0.950 1_655 S
H634 C663 0.950 . S
H635 C664 0.950 . S
H636 C666 0.950 . S
H637 C667 0.950 . S
C638 H620 0.951 . S
C638 C639 1.366 . S
C638 C640 1.388 . S
C639 C638 1.366 . S
C639 C643 1.385 . S
C640 H621 0.951 . S
C640 C638 1.388 . S
C640 C641 1.366 . S
C641 C640 1.366 . S
C641 C642 1.414 . S
C641 C644 1.499 . S
C642 H622 0.950 . S
C642 C641 1.414 . S
C642 C643 1.374 . S
C643 H623 0.950 . S
C643 C639 1.385 . S
C643 C642 1.374 . S
C644 C641 1.499 . S
C644 C645 1.373 . S
C644 C646 1.389 . S
C645 H624 0.950 . S
C645 C644 1.373 . S
C645 C661 1.377 . S
C646 C644 1.389 . S
C646 C647 1.524 . S
C646 C660 1.377 . S
C647 C646 1.524 . S
C647 C648 1.397 . S
C647 C652 1.363 . S
C648 H625 0.950 . S
C648 C647 1.397 . S
C648 C649 1.334 . S
C649 H626 0.950 . S
C649 C648 1.334 . S
C649 C650 1.287 . S
C650 C649 1.287 . S
C650 C651 1.524 . S
C650 H669 0.913 . S
C651 H627 0.950 . S
C651 C650 1.524 . S
C651 C652 1.415 . S
C652 H628 0.950 . S
C652 C647 1.363 . S
C652 C651 1.415 . S
C653 H629 0.951 . S
C653 C654 1.366 . S
C653 C655 1.388 . S
C654 C653 1.366 . S
C654 C658 1.385 . S
C655 H630 0.951 . S
C655 C653 1.388 . S
C655 C656 1.366 . S
C656 C655 1.366 . S
C656 C657 1.414 . S
C656 C659 1.499 . S
C657 H631 0.950 . S
C657 C656 1.414 . S
C657 C658 1.374 . S
C658 H632 0.950 . S
C658 C654 1.385 . S
C658 C657 1.374 . S
C659 C656 1.499 . S
C659 C660 1.373 1_655 S
C659 C661 1.389 1_655 S
C660 H633 0.950 1_455 S
C660 C646 1.377 . S
C660 C659 1.373 1_455 S
C661 C645 1.377 . S
C661 C659 1.389 1_455 S
C661 C662 1.524 . S
C662 C661 1.524 . S
C662 C663 1.397 1_455 S
C662 C667 1.363 . S
C663 H634 0.950 . S
C663 C662 1.397 1_655 S
C663 C664 1.334 . S
C664 H635 0.950 . S
C664 C663 1.334 . S
C664 C665 1.287 . S
C665 C664 1.287 . S
C665 C666 1.524 1_655 S
C665 H668 0.999 . S
C666 H636 0.950 . S
C666 C665 1.524 1_455 S
C666 C667 1.415 . S
C667 H637 0.950 . S
C667 C662 1.363 . S
C667 C666 1.415 . S
H668 C665 0.999 . S
H669 C650 0.913 . S
H670 C688 0.951 . S
H671 C690 0.951 . S
H672 C692 0.950 . S
H673 C693 0.950 . S
H674 C695 0.950 . S
H675 C698 0.950 . S
H676 C699 0.950 . S
H677 C701 0.950 . S
H678 C702 0.950 . S
H679 C703 0.951 . S
H680 C705 0.951 . S
H681 C707 0.950 . S
H682 C708 0.950 . S
H683 C710 0.950 . S
H684 C713 0.950 . S
H685 C714 0.950 . S
H686 C716 0.950 . S
H687 C717 0.950 . S
C688 H670 0.951 . S
C688 C689 1.366 . S
C688 C690 1.388 . S
C689 C688 1.366 . S
C689 C693 1.385 . S
C690 H671 0.951 . S
C690 C688 1.388 . S
C690 C691 1.366 . S
C691 C690 1.366 . S
C691 C692 1.414 . S
C691 C694 1.499 . S
C692 H672 0.950 . S
C692 C691 1.414 . S
C692 C693 1.374 . S
C693 H673 0.950 . S
C693 C689 1.385 . S
C693 C692 1.374 . S
C694 C691 1.499 . S
C694 C695 1.373 . S
C694 C696 1.389 . S
C695 H674 0.950 . S
C695 C694 1.373 . S
C695 C711 1.377 . S
C696 C694 1.389 . S
C696 C697 1.524 . S
C696 C710 1.377 . S
C697 C696 1.524 . S
C697 C698 1.397 . S
C697 C702 1.363 . S
C698 H675 0.950 . S
C698 C697 1.397 . S
C698 C699 1.334 . S
C699 H676 0.950 . S
C699 C698 1.334 . S
C699 C700 1.287 . S
C700 C699 1.287 . S
C700 C701 1.524 . S
C700 H719 0.913 . S
C701 H677 0.950 . S
C701 C700 1.524 . S
C701 C702 1.415 . S
C702 H678 0.950 . S
C702 C697 1.363 . S
C702 C701 1.415 . S
C703 H679 0.951 . S
C703 C704 1.366 . S
C703 C705 1.388 . S
C704 C703 1.366 . S
C704 C708 1.385 . S
C705 H680 0.951 . S
C705 C703 1.388 . S
C705 C706 1.366 . S
C706 C705 1.366 . S
C706 C707 1.414 . S
C706 C709 1.499 . S
C707 H681 0.950 . S
C707 C706 1.414 . S
C707 C708 1.374 . S
C708 H682 0.950 . S
C708 C704 1.385 . S
C708 C707 1.374 . S
C709 C706 1.499 . S
C709 C710 1.373 1_455 S
C709 C711 1.389 1_455 S
C710 H683 0.950 . S
C710 C696 1.377 . S
C710 C709 1.373 1_655 S
C711 C695 1.377 . S
C711 C709 1.389 1_655 S
C711 C712 1.524 1_655 S
C712 C711 1.524 1_455 S
C712 C713 1.397 . S
C712 C717 1.363 1_455 S
C713 H684 0.950 . S
C713 C712 1.397 . S
C713 C714 1.334 . S
C714 H685 0.950 . S
C714 C713 1.334 . S
C714 C715 1.287 . S
C715 C714 1.287 . S
C715 C716 1.524 . S
C715 H718 0.999 . S
C716 H686 0.950 . S
C716 C715 1.524 . S
C716 C717 1.415 1_455 S
C717 H687 0.950 . S
C717 C712 1.363 1_655 S
C717 C716 1.415 1_655 S
H718 C715 0.999 . S
H719 C700 0.913 . S
H720 C738 0.951 1_655 S
H721 C740 0.951 1_655 S
H722 C742 0.950 . S
H723 C743 0.950 . S
H724 C745 0.950 1_556 S
H725 C748 0.950 . S
H726 C749 0.950 . S
H727 C751 0.950 . S
H728 C752 0.950 . S
H729 C753 0.951 1_455 S
H730 C755 0.951 1_455 S
H731 C757 0.950 1_556 S
H732 C758 0.950 1_556 S
H733 C760 0.950 . S
H734 C763 0.950 . S
H735 C764 0.950 . S
H736 C766 0.950 . S
H737 C767 0.950 1_554 S
C738 H720 0.951 1_455 S
C738 C739 1.366 . S
C738 C740 1.388 . S
C739 C738 1.366 . S
C739 C743 1.385 . S
C740 H721 0.951 1_455 S
C740 C738 1.388 . S
C740 C741 1.366 . S
C741 C740 1.366 . S
C741 C742 1.414 . S
C741 C744 1.499 . S
C742 H722 0.950 . S
C742 C741 1.414 . S
C742 C743 1.374 . S
C743 H723 0.950 . S
C743 C739 1.385 . S
C743 C742 1.374 . S
C744 C741 1.499 . S
C744 C745 1.373 . S
C744 C746 1.389 1_455 S
C745 H724 0.950 1_554 S
C745 C744 1.373 . S
C745 C761 1.377 . S
C746 C744 1.389 1_655 S
C746 C747 1.524 . S
C746 C760 1.377 . S
C747 C746 1.524 . S
C747 C748 1.397 . S
C747 C752 1.363 . S
C748 H725 0.950 . S
C748 C747 1.397 . S
C748 C749 1.334 . S
C749 H726 0.950 . S
C749 C748 1.334 . S
C749 C750 1.287 . S
C750 C749 1.287 . S
C750 C751 1.524 . S
C750 H769 0.913 . S
C751 H727 0.950 . S
C751 C750 1.524 . S
C751 C752 1.415 . S
C752 H728 0.950 . S
C752 C747 1.363 . S
C752 C751 1.415 . S
C753 H729 0.951 1_655 S
C753 C754 1.366 . S
C753 C755 1.388 . S
C754 C753 1.366 . S
C754 C758 1.385 . S
C755 H730 0.951 1_655 S
C755 C753 1.388 . S
C755 C756 1.366 . S
C756 C755 1.366 . S
C756 C757 1.414 . S
C756 C759 1.499 . S
C757 H731 0.950 1_554 S
C757 C756 1.414 . S
C757 C758 1.374 . S
C758 H732 0.950 1_554 S
C758 C754 1.385 . S
C758 C757 1.374 . S
C759 C756 1.499 . S
C759 C760 1.373 . S
C759 C761 1.389 1_655 S
C760 H733 0.950 . S
C760 C746 1.377 . S
C760 C759 1.373 . S
C761 C745 1.377 . S
C761 C759 1.389 1_455 S
C761 C762 1.524 1_554 S
C762 C761 1.524 1_556 S
C762 C763 1.397 . S
C762 C767 1.363 . S
C763 H734 0.950 . S
C763 C762 1.397 . S
C763 C764 1.334 . S
C764 H735 0.950 . S
C764 C763 1.334 . S
C764 C765 1.287 . S
C765 C764 1.287 . S
C765 C766 1.524 . S
C765 H768 0.999 . S
C766 H736 0.950 . S
C766 C765 1.524 . S
C766 C767 1.415 . S
C767 H737 0.950 1_556 S
C767 C762 1.363 . S
C767 C766 1.415 . S
H768 C765 0.999 . S
H769 C750 0.913 . S
H770 C788 0.951 1_655 S
H771 C790 0.951 1_655 S
H772 C792 0.950 . S
H773 C793 0.950 . S
H774 C795 0.950 . S
H775 C798 0.950 1_455 S
H776 C799 0.950 . S
H777 C801 0.950 . S
H778 C802 0.950 . S
H779 C803 0.951 1_455 S
H780 C805 0.950 1_455 S
H781 C807 0.950 . S
H782 C808 0.950 . S
H783 C810 0.950 . S
H784 C813 0.950 1_655 S
H785 C814 0.950 . S
H786 C816 0.950 . S
H787 C817 0.950 . S
C788 H770 0.951 1_455 S
C788 C789 1.366 . S
C788 C790 1.388 . S
C789 C788 1.366 . S
C789 C793 1.385 . S
C790 H771 0.951 1_455 S
C790 C788 1.388 . S
C790 C791 1.366 . S
C791 C790 1.366 . S
C791 C792 1.414 . S
C791 C794 1.499 . S
C792 H772 0.950 . S
C792 C791 1.414 . S
C792 C793 1.374 . S
C793 H773 0.950 . S
C793 C789 1.385 . S
C793 C792 1.374 . S
C794 C791 1.499 . S
C794 C795 1.373 . S
C794 C796 1.389 1_455 S
C795 H774 0.950 . S
C795 C794 1.373 . S
C795 C811 1.377 . S
C796 C794 1.389 1_655 S
C796 C797 1.524 . S
C796 C810 1.377 . S
C797 C796 1.524 . S
C797 C798 1.397 . S
C797 C802 1.363 . S
C798 H775 0.950 1_655 S
C798 C797 1.397 . S
C798 C799 1.334 . S
C799 H776 0.950 . S
C799 C798 1.334 . S
C799 C800 1.287 . S
C800 C799 1.287 . S
C800 C801 1.524 . S
C800 H819 0.913 . S
C801 H777 0.950 . S
C801 C800 1.524 . S
C801 C802 1.415 . S
C802 H778 0.950 . S
C802 C797 1.363 . S
C802 C801 1.415 . S
C803 H779 0.951 1_655 S
C803 C804 1.366 . S
C803 C805 1.388 . S
C804 C803 1.366 . S
C804 C808 1.385 . S
C805 H780 0.950 1_655 S
C805 C803 1.388 . S
C805 C806 1.366 . S
C806 C805 1.366 . S
C806 C807 1.414 . S
C806 C809 1.499 . S
C807 H781 0.950 . S
C807 C806 1.414 . S
C807 C808 1.374 . S
C808 H782 0.950 . S
C808 C804 1.385 . S
C808 C807 1.374 . S
C809 C806 1.499 . S
C809 C810 1.373 . S
C809 C811 1.389 1_655 S
C810 H783 0.950 . S
C810 C796 1.377 . S
C810 C809 1.373 . S
C811 C795 1.377 . S
C811 C809 1.389 1_455 S
C811 C812 1.524 . S
C812 C811 1.524 . S
C812 C813 1.397 . S
C812 C817 1.363 . S
C813 H784 0.950 1_455 S
C813 C812 1.397 . S
C813 C814 1.334 . S
C814 H785 0.950 . S
C814 C813 1.334 . S
C814 C815 1.287 . S
C815 C814 1.287 . S
C815 C816 1.524 . S
C815 H818 0.999 . S
C816 H786 0.950 . S
C816 C815 1.524 . S
C816 C817 1.415 . S
C817 H787 0.950 . S
C817 C812 1.363 . S
C817 C816 1.415 . S
H818 C815 0.999 . S
H819 C800 0.913 . S
H820 C838 0.951 . S
H821 C840 0.951 . S
H822 C842 0.950 . S
H823 C843 0.950 . S
H824 C845 0.950 . S
H825 C848 0.950 . S
H826 C849 0.950 . S
H827 C851 0.950 . S
H828 C852 0.950 1_545 S
H829 C853 0.951 . S
H830 C855 0.951 . S
H831 C857 0.950 1_556 S
H832 C858 0.950 1_556 S
H833 C860 0.950 . S
H834 C863 0.950 . S
H835 C864 0.950 . S
H836 C866 0.950 . S
H837 C867 0.950 1_565 S
C838 H820 0.951 . S
C838 C839 1.366 1_556 S
C838 C840 1.388 . S
C839 C838 1.366 1_554 S
C839 C843 1.385 . S
C840 H821 0.951 . S
C840 C838 1.388 . S
C840 C841 1.366 1_556 S
C841 C840 1.366 1_554 S
C841 C842 1.414 . S
C841 C844 1.499 . S
C842 H822 0.950 . S
C842 C841 1.414 . S
C842 C843 1.374 . S
C843 H823 0.950 . S
C843 C839 1.385 . S
C843 C842 1.374 . S
C844 C841 1.499 . S
C844 C845 1.373 . S
C844 C846 1.389 1_554 S
C845 H824 0.950 . S
C845 C844 1.373 . S
C845 C861 1.377 1_565 S
C846 C844 1.389 1_556 S
C846 C847 1.524 . S
C846 C860 1.377 1_565 S
C847 C846 1.524 . S
C847 C848 1.397 . S
C847 C852 1.363 . S
C848 H825 0.950 . S
C848 C847 1.397 . S
C848 C849 1.334 . S
C849 H826 0.950 . S
C849 C848 1.334 . S
C849 C850 1.287 . S
C850 C849 1.287 . S
C850 C851 1.524 . S
C850 H869 0.913 . S
C851 H827 0.950 . S
C851 C850 1.524 . S
C851 C852 1.415 . S
C852 H828 0.950 1_565 S
C852 C847 1.363 . S
C852 C851 1.415 . S
C853 H829 0.951 . S
C853 C854 1.366 . S
C853 C855 1.388 . S
C854 C853 1.366 . S
C854 C858 1.385 . S
C855 H830 0.951 . S
C855 C853 1.388 . S
C855 C856 1.366 . S
C856 C855 1.366 . S
C856 C857 1.414 . S
C856 C859 1.499 . S
C857 H831 0.950 1_554 S
C857 C856 1.414 . S
C857 C858 1.374 . S
C858 H832 0.950 1_554 S
C858 C854 1.385 . S
C858 C857 1.374 . S
C859 C856 1.499 . S
C859 C860 1.373 1_554 S
C859 C861 1.389 . S
C860 H833 0.950 . S
C860 C846 1.377 1_545 S
C860 C859 1.373 1_556 S
C861 C845 1.377 1_545 S
C861 C859 1.389 . S
C861 C862 1.524 . S
C862 C861 1.524 . S
C862 C863 1.397 . S
C862 C867 1.363 . S
C863 H834 0.950 . S
C863 C862 1.397 . S
C863 C864 1.334 . S
C864 H835 0.950 . S
C864 C863 1.334 . S
C864 C865 1.287 . S
C865 C864 1.287 . S
C865 C866 1.524 . S
C865 H868 0.999 . S
C866 H836 0.950 . S
C866 C865 1.524 . S
C866 C867 1.415 . S
C867 H837 0.950 1_545 S
C867 C862 1.363 . S
C867 C866 1.415 . S
H868 C865 0.999 . S
H869 C850 0.913 . S
H870 C888 0.951 . S
H871 C890 0.951 . S
H872 C892 0.950 . S
H873 C893 0.950 . S
H874 C895 0.950 . S
H875 C898 0.950 . S
H876 C899 0.950 . S
H877 C901 0.950 . S
H878 C902 0.950 . S
H879 C903 0.951 . S
H880 C905 0.951 . S
H881 C907 0.950 . S
H882 C908 0.950 . S
H883 C910 0.950 . S
H884 C913 0.950 . S
H885 C914 0.950 . S
H886 C916 0.950 . S
H887 C917 0.950 . S
C888 H870 0.951 . S
C888 C889 1.366 . S
C888 C890 1.388 . S
C889 C888 1.366 . S
C889 C893 1.385 . S
C890 H871 0.951 . S
C890 C888 1.388 . S
C890 C891 1.366 . S
C891 C890 1.366 . S
C891 C892 1.414 . S
C891 C894 1.499 . S
C892 H872 0.950 . S
C892 C891 1.414 . S
C892 C893 1.374 . S
C893 H873 0.950 . S
C893 C889 1.385 . S
C893 C892 1.374 . S
C894 C891 1.499 . S
C894 C895 1.373 . S
C894 C896 1.389 . S
C895 H874 0.950 . S
C895 C894 1.373 . S
C895 C911 1.377 1_545 S
C896 C894 1.389 . S
C896 C897 1.524 . S
C896 C910 1.377 1_545 S
C897 C896 1.524 . S
C897 C898 1.397 . S
C897 C902 1.363 . S
C898 H875 0.950 . S
C898 C897 1.397 . S
C898 C899 1.334 . S
C899 H876 0.950 . S
C899 C898 1.334 . S
C899 C900 1.287 . S
C900 C899 1.287 . S
C900 C901 1.524 . S
C900 H919 0.913 . S
C901 H877 0.950 . S
C901 C900 1.524 . S
C901 C902 1.415 . S
C902 H878 0.950 . S
C902 C897 1.363 . S
C902 C901 1.415 . S
C903 H879 0.951 . S
C903 C904 1.366 . S
C903 C905 1.388 . S
C904 C903 1.366 . S
C904 C908 1.385 . S
C905 H880 0.951 . S
C905 C903 1.388 . S
C905 C906 1.366 . S
C906 C905 1.366 . S
C906 C907 1.414 . S
C906 C909 1.499 . S
C907 H881 0.950 . S
C907 C906 1.414 . S
C907 C908 1.374 . S
C908 H882 0.950 . S
C908 C904 1.385 . S
C908 C907 1.374 . S
C909 C906 1.499 . S
C909 C910 1.373 . S
C909 C911 1.389 . S
C910 H883 0.950 . S
C910 C896 1.377 1_565 S
C910 C909 1.373 . S
C911 C895 1.377 1_565 S
C911 C909 1.389 . S
C911 C912 1.524 . S
C912 C911 1.524 . S
C912 C913 1.397 . S
C912 C917 1.363 . S
C913 H884 0.950 . S
C913 C912 1.397 . S
C913 C914 1.334 . S
C914 H885 0.950 . S
C914 C913 1.334 . S
C914 C915 1.287 . S
C915 C914 1.287 . S
C915 C916 1.524 . S
C915 H918 0.999 . S
C916 H886 0.950 . S
C916 C915 1.524 . S
C916 C917 1.415 . S
C917 H887 0.950 . S
C917 C912 1.363 . S
C917 C916 1.415 . S
H918 C915 0.999 . S
H919 C900 0.913 . S
H920 C938 0.951 1_556 S
H921 C940 0.951 1_556 S
H922 C942 0.950 . S
H923 C943 0.950 . S
H924 C945 0.950 . S
H925 C948 0.950 . S
H926 C949 0.950 . S
H927 C951 0.950 . S
H928 C952 0.950 . S
H929 C953 0.951 . S
H930 C955 0.951 . S
H931 C957 0.950 . S
H932 C958 0.950 . S
H933 C960 0.950 . S
H934 C963 0.950 . S
H935 C964 0.950 . S
H936 C966 0.950 . S
H937 C967 0.950 . S
C938 H920 0.951 1_554 S
C938 C939 1.366 . S
C938 C940 1.388 . S
C939 C938 1.366 . S
C939 C943 1.385 . S
C940 H921 0.951 1_554 S
C940 C938 1.388 . S
C940 C941 1.366 . S
C941 C940 1.366 . S
C941 C942 1.414 . S
C941 C944 1.499 . S
C942 H922 0.950 . S
C942 C941 1.414 . S
C942 C943 1.374 . S
C943 H923 0.950 . S
C943 C939 1.385 . S
C943 C942 1.374 . S
C944 C941 1.499 . S
C944 C945 1.373 . S
C944 C946 1.389 1_554 S
C945 H924 0.950 . S
C945 C944 1.373 . S
C945 C961 1.377 . S
C946 C944 1.389 1_556 S
C946 C947 1.524 . S
C946 C960 1.377 . S
C947 C946 1.524 . S
C947 C948 1.397 . S
C947 C952 1.363 . S
C948 H925 0.950 . S
C948 C947 1.397 . S
C948 C949 1.334 . S
C949 H926 0.950 . S
C949 C948 1.334 . S
C949 C950 1.287 . S
C950 C949 1.287 . S
C950 C951 1.524 . S
C950 H969 0.913 . S
C951 H927 0.950 . S
C951 C950 1.524 . S
C951 C952 1.415 . S
C952 H928 0.950 . S
C952 C947 1.363 . S
C952 C951 1.415 . S
C953 H929 0.951 . S
C953 C954 1.366 . S
C953 C955 1.388 . S
C954 C953 1.366 . S
C954 C958 1.385 1_554 S
C955 H930 0.951 . S
C955 C953 1.388 . S
C955 C956 1.366 . S
C956 C955 1.366 . S
C956 C957 1.414 1_554 S
C956 C959 1.499 . S
C957 H931 0.950 . S
C957 C956 1.414 1_556 S
C957 C958 1.374 . S
C958 H932 0.950 . S
C958 C954 1.385 1_556 S
C958 C957 1.374 . S
C959 C956 1.499 . S
C959 C960 1.373 1_554 S
C959 C961 1.389 . S
C960 H933 0.950 . S
C960 C946 1.377 . S
C960 C959 1.373 1_556 S
C961 C945 1.377 . S
C961 C959 1.389 . S
C961 C962 1.524 . S
C962 C961 1.524 . S
C962 C963 1.397 . S
C962 C967 1.363 . S
C963 H934 0.950 . S
C963 C962 1.397 . S
C963 C964 1.334 . S
C964 H935 0.950 . S
C964 C963 1.334 . S
C964 C965 1.287 . S
C965 C964 1.287 . S
C965 C966 1.524 . S
C965 H968 0.999 . S
C966 H936 0.950 . S
C966 C965 1.524 . S
C966 C967 1.415 . S
C967 H937 0.950 . S
C967 C962 1.363 . S
C967 C966 1.415 . S
H968 C965 0.999 . S
H969 C950 0.913 . S
H970 C988 0.951 . S
H971 C990 0.951 . S
H972 C992 0.950 1_556 S
H973 C993 0.950 . S
H974 C995 0.950 . S
H975 C998 0.950 . S
H976 C999 0.950 . S
H977 C1001 0.950 . S
H978 C1002 0.950 . S
H979 C1003 0.960 . S
H980 C1005 0.951 1_556 S
H981 C1007 0.950 . S
H982 C1008 0.950 . S
H983 C1010 0.950 . S
H984 C1013 0.950 . S
H985 C1014 0.950 . S
H986 C1016 0.950 . S
H987 C1017 0.950 . S
C988 H970 0.951 . S
C988 C989 1.366 . S
C988 C990 1.388 . S
C989 C988 1.366 . S
C989 C993 1.385 . S
C990 H971 0.951 . S
C990 C988 1.388 . S
C990 C991 1.366 . S
C991 C990 1.366 . S
C991 C992 1.414 . S
C991 C994 1.499 . S
C992 H972 0.950 1_554 S
C992 C991 1.414 . S
C992 C993 1.374 . S
C993 H973 0.950 . S
C993 C989 1.385 . S
C993 C992 1.374 . S
C994 C991 1.499 . S
C994 C995 1.373 1_554 S
C994 C996 1.389 . S
C995 H974 0.950 . S
C995 C994 1.373 1_556 S
C995 C1011 1.377 . S
C996 C994 1.389 . S
C996 C997 1.524 . S
C996 C1010 1.377 . S
C997 C996 1.524 . S
C997 C998 1.397 . S
C997 C1002 1.363 . S
C998 H975 0.950 . S
C998 C997 1.397 . S
C998 C999 1.334 . S
C999 H976 0.950 . S
C999 C998 1.334 . S
C999 C1000 1.287 . S
C1000 C999 1.287 . S
C1000 C1001 1.524 . S
C1000 H1019 0.913 . S
C1001 H977 0.950 . S
C1001 C1000 1.524 . S
C1001 C1002 1.415 . S
C1002 H978 0.950 . S
C1002 C997 1.363 . S
C1002 C1001 1.415 . S
C1003 H979 0.960 . S
C1003 C1004 1.358 1_556 S
C1003 C1005 1.388 1_556 S
C1004 C1003 1.358 1_554 S
C1004 C1008 1.385 . S
C1005 H980 0.951 1_554 S
C1005 C1003 1.388 1_554 S
C1005 C1006 1.365 . S
C1006 C1005 1.365 . S
C1006 C1007 1.414 . S
C1006 C1009 1.499 . S
C1007 H981 0.950 . S
C1007 C1006 1.414 . S
C1007 C1008 1.374 . S
C1008 H982 0.950 . S
C1008 C1004 1.385 . S
C1008 C1007 1.374 . S
C1009 C1006 1.499 . S
C1009 C1010 1.373 . S
C1009 C1011 1.389 1_554 S
C1010 H983 0.950 . S
C1010 C996 1.377 . S
C1010 C1009 1.373 . S
C1011 C995 1.377 . S
C1011 C1009 1.389 1_556 S
C1011 C1012 1.524 . S
C1012 C1011 1.524 . S
C1012 C1013 1.397 . S
C1012 C1017 1.363 . S
C1013 H984 0.950 . S
C1013 C1012 1.397 . S
C1013 C1014 1.334 . S
C1014 H985 0.950 . S
C1014 C1013 1.334 . S
C1014 C1015 1.287 . S
C1015 C1014 1.287 . S
C1015 C1016 1.524 . S
C1015 H1018 0.999 . S
C1016 H986 0.950 . S
C1016 C1015 1.524 . S
C1016 C1017 1.415 . S
C1017 H987 0.950 . S
C1017 C1012 1.363 . S
C1017 C1016 1.415 . S
H1018 C1015 0.999 . S
H1019 C1000 0.913 . S
H1020 C1038 0.951 . S
H1021 C1040 0.951 . S
H1022 C1042 0.950 . S
H1023 C1043 0.950 . S
H1024 C1045 0.950 . S
H1025 C1048 0.950 . S
H1026 C1049 0.950 . S
H1027 C1051 0.950 . S
H1028 C1052 0.950 . S
H1029 C1053 0.951 . S
H1030 C1055 0.951 . S
H1031 C1057 0.950 . S
H1032 C1058 0.950 . S
H1033 C1060 0.950 . S
H1034 C1063 0.950 . S
H1035 C1064 0.950 . S
H1036 C1066 0.950 . S
H1037 C1067 0.950 . S
C1038 H1020 0.951 . S
C1038 C1039 1.366 . S
C1038 C1040 1.388 . S
C1039 C1038 1.366 . S
C1039 C1043 1.385 . S
C1040 H1021 0.951 . S
C1040 C1038 1.388 . S
C1040 C1041 1.366 . S
C1041 C1040 1.366 . S
C1041 C1042 1.414 . S
C1041 C1044 1.499 . S
C1042 H1022 0.950 . S
C1042 C1041 1.414 . S
C1042 C1043 1.374 . S
C1043 H1023 0.950 . S
C1043 C1039 1.385 . S
C1043 C1042 1.374 . S
C1044 C1041 1.499 . S
C1044 C1045 1.373 . S
C1044 C1046 1.389 . S
C1045 H1024 0.950 . S
C1045 C1044 1.373 . S
C1045 C1061 1.377 . S
C1046 C1044 1.389 . S
C1046 C1047 1.524 . S
C1046 C1060 1.377 . S
C1047 C1046 1.524 . S
C1047 C1048 1.397 . S
C1047 C1052 1.363 . S
C1048 H1025 0.950 . S
C1048 C1047 1.397 . S
C1048 C1049 1.334 . S
C1049 H1026 0.950 . S
C1049 C1048 1.334 . S
C1049 C1050 1.287 . S
C1050 C1049 1.287 . S
C1050 C1051 1.524 . S
C1050 H1069 0.913 . S
C1051 H1027 0.950 . S
C1051 C1050 1.524 . S
C1051 C1052 1.415 . S
C1052 H1028 0.950 . S
C1052 C1047 1.363 . S
C1052 C1051 1.415 . S
C1053 H1029 0.951 . S
C1053 C1054 1.366 . S
C1053 C1055 1.388 . S
C1054 C1053 1.366 . S
C1054 C1058 1.385 . S
C1055 H1030 0.951 . S
C1055 C1053 1.388 . S
C1055 C1056 1.366 . S
C1056 C1055 1.366 . S
C1056 C1057 1.414 . S
C1056 C1059 1.499 . S
C1057 H1031 0.950 . S
C1057 C1056 1.414 . S
C1057 C1058 1.374 . S
C1058 H1032 0.950 . S
C1058 C1054 1.385 . S
C1058 C1057 1.374 . S
C1059 C1056 1.499 . S
C1059 C1060 1.373 . S
C1059 C1061 1.389 . S
C1060 H1033 0.950 . S
C1060 C1046 1.377 . S
C1060 C1059 1.373 . S
C1061 C1045 1.377 . S
C1061 C1059 1.389 . S
C1061 C1062 1.524 . S
C1062 C1061 1.524 . S
C1062 C1063 1.397 . S
C1062 C1067 1.363 . S
C1063 H1034 0.950 . S
C1063 C1062 1.397 . S
C1063 C1064 1.334 . S
C1064 H1035 0.950 . S
C1064 C1063 1.334 . S
C1064 C1065 1.287 . S
C1065 C1064 1.287 . S
C1065 C1066 1.524 . S
C1065 H1068 0.999 . S
C1066 H1036 0.950 . S
C1066 C1065 1.524 . S
C1066 C1067 1.415 . S
C1067 H1037 0.950 . S
C1067 C1062 1.363 . S
C1067 C1066 1.415 . S
H1068 C1065 0.999 . S
H1069 C1050 0.913 . S
H1070 C1088 0.951 . S
H1071 C1090 0.951 . S
H1072 C1092 0.950 . S
H1073 C1093 0.950 . S
H1074 C1095 0.950 . S
H1075 C1098 0.950 . S
H1076 C1099 0.950 . S
H1077 C1101 0.950 . S
H1078 C1102 0.950 . S
H1079 C1103 0.951 . S
H1080 C1105 0.951 . S
H1081 C1107 0.950 . S
H1082 C1108 0.950 . S
H1083 C1110 0.950 . S
H1084 C1113 0.950 . S
H1085 C1114 0.950 . S
H1086 C1116 0.950 . S
H1087 C1117 0.950 . S
C1088 H1070 0.951 . S
C1088 C1089 1.366 . S
C1088 C1090 1.388 . S
C1089 C1088 1.366 . S
C1089 C1093 1.385 . S
C1090 H1071 0.951 . S
C1090 C1088 1.388 . S
C1090 C1091 1.366 . S
C1091 C1090 1.366 . S
C1091 C1092 1.414 . S
C1091 C1094 1.499 . S
C1092 H1072 0.950 . S
C1092 C1091 1.414 . S
C1092 C1093 1.374 . S
C1093 H1073 0.950 . S
C1093 C1089 1.385 . S
C1093 C1092 1.374 . S
C1094 C1091 1.499 . S
C1094 C1095 1.373 . S
C1094 C1096 1.389 . S
C1095 H1074 0.950 . S
C1095 C1094 1.373 . S
C1095 C1111 1.377 . S
C1096 C1094 1.389 . S
C1096 C1097 1.524 . S
C1096 C1110 1.377 . S
C1097 C1096 1.524 . S
C1097 C1098 1.397 . S
C1097 C1102 1.363 . S
C1098 H1075 0.950 . S
C1098 C1097 1.397 . S
C1098 C1099 1.334 . S
C1099 H1076 0.950 . S
C1099 C1098 1.334 . S
C1099 C1100 1.287 . S
C1100 C1099 1.287 . S
C1100 C1101 1.524 . S
C1100 H1119 0.913 . S
C1101 H1077 0.950 . S
C1101 C1100 1.524 . S
C1101 C1102 1.415 . S
C1102 H1078 0.950 . S
C1102 C1097 1.363 . S
C1102 C1101 1.415 . S
C1103 H1079 0.951 . S
C1103 C1104 1.366 . S
C1103 C1105 1.388 . S
C1104 C1103 1.366 . S
C1104 C1108 1.385 . S
C1105 H1080 0.951 . S
C1105 C1103 1.388 . S
C1105 C1106 1.366 . S
C1106 C1105 1.366 . S
C1106 C1107 1.414 . S
C1106 C1109 1.499 . S
C1107 H1081 0.950 . S
C1107 C1106 1.414 . S
C1107 C1108 1.374 . S
C1108 H1082 0.950 . S
C1108 C1104 1.385 . S
C1108 C1107 1.374 . S
C1109 C1106 1.499 . S
C1109 C1110 1.373 . S
C1109 C1111 1.389 . S
C1110 H1083 0.950 . S
C1110 C1096 1.377 . S
C1110 C1109 1.373 . S
C1111 C1095 1.377 . S
C1111 C1109 1.389 . S
C1111 C1112 1.524 . S
C1112 C1111 1.524 . S
C1112 C1113 1.397 . S
C1112 C1117 1.363 . S
C1113 H1084 0.950 . S
C1113 C1112 1.397 . S
C1113 C1114 1.334 . S
C1114 H1085 0.950 . S
C1114 C1113 1.334 . S
C1114 C1115 1.287 . S
C1115 C1114 1.287 . S
C1115 C1116 1.524 . S
C1115 H1118 0.999 . S
C1116 H1086 0.950 . S
C1116 C1115 1.524 . S
C1116 C1117 1.415 . S
C1117 H1087 0.950 . S
C1117 C1112 1.363 . S
C1117 C1116 1.415 . S
H1118 C1115 0.999 . S
H1119 C1100 0.913 . S
H1120 C1138 0.951 1_655 S
H1121 C1140 0.951 . S
H1122 C1142 0.950 . S
H1123 C1143 0.950 . S
H1124 C1145 0.950 . S
H1125 C1148 0.950 . S
H1126 C1149 0.950 . S
H1127 C1151 0.950 . S
H1128 C1152 0.950 . S
H1129 C1153 0.951 1_455 S
H1130 C1155 0.951 . S
H1131 C1157 0.950 . S
H1132 C1158 0.950 . S
H1133 C1160 0.950 . S
H1134 C1163 0.950 . S
H1135 C1164 0.950 . S
H1136 C1166 0.950 . S
H1137 C1167 0.950 . S
C1138 H1120 0.951 1_455 S
C1138 C1139 1.366 . S
C1138 C1140 1.388 1_455 S
C1139 C1138 1.366 . S
C1139 C1143 1.385 . S
C1140 H1121 0.951 . S
C1140 C1138 1.388 1_655 S
C1140 C1141 1.366 1_655 S
C1141 C1140 1.366 1_455 S
C1141 C1142 1.414 . S
C1141 C1144 1.499 . S
C1142 H1122 0.950 . S
C1142 C1141 1.414 . S
C1142 C1143 1.374 . S
C1143 H1123 0.950 . S
C1143 C1139 1.385 . S
C1143 C1142 1.374 . S
C1144 C1141 1.499 . S
C1144 C1145 1.373 . S
C1144 C1146 1.389 . S
C1145 H1124 0.950 . S
C1145 C1144 1.373 . S
C1145 C1161 1.377 1_455 S
C1146 C1144 1.389 . S
C1146 C1147 1.524 . S
C1146 C1160 1.377 1_455 S
C1147 C1146 1.524 . S
C1147 C1148 1.397 . S
C1147 C1152 1.363 1_455 S
C1148 H1125 0.950 . S
C1148 C1147 1.397 . S
C1148 C1149 1.334 . S
C1149 H1126 0.950 . S
C1149 C1148 1.334 . S
C1149 C1150 1.287 . S
C1150 C1149 1.287 . S
C1150 C1151 1.524 1_455 S
C1150 H1169 0.913 . S
C1151 H1127 0.950 . S
C1151 C1150 1.524 1_655 S
C1151 C1152 1.415 . S
C1152 H1128 0.950 . S
C1152 C1147 1.363 1_655 S
C1152 C1151 1.415 . S
C1153 H1129 0.951 1_655 S
C1153 C1154 1.366 . S
C1153 C1155 1.388 1_655 S
C1154 C1153 1.366 . S
C1154 C1158 1.385 . S
C1155 H1130 0.951 . S
C1155 C1153 1.388 1_455 S
C1155 C1156 1.366 1_455 S
C1156 C1155 1.366 1_655 S
C1156 C1157 1.414 . S
C1156 C1159 1.499 . S
C1157 H1131 0.950 . S
C1157 C1156 1.414 . S
C1157 C1158 1.374 . S
C1158 H1132 0.950 . S
C1158 C1154 1.385 . S
C1158 C1157 1.374 . S
C1159 C1156 1.499 . S
C1159 C1160 1.373 . S
C1159 C1161 1.389 . S
C1160 H1133 0.950 . S
C1160 C1146 1.377 1_655 S
C1160 C1159 1.373 . S
C1161 C1145 1.377 1_655 S
C1161 C1159 1.389 . S
C1161 C1162 1.524 . S
C1162 C1161 1.524 . S
C1162 C1163 1.397 . S
C1162 C1167 1.363 1_655 S
C1163 H1134 0.950 . S
C1163 C1162 1.397 . S
C1163 C1164 1.334 . S
C1164 H1135 0.950 . S
C1164 C1163 1.334 . S
C1164 C1165 1.287 . S
C1165 C1164 1.287 . S
C1165 C1166 1.524 1_655 S
C1165 H1168 0.999 . S
C1166 H1136 0.950 . S
C1166 C1165 1.524 1_455 S
C1166 C1167 1.415 . S
C1167 H1137 0.950 . S
C1167 C1162 1.363 1_455 S
C1167 C1166 1.415 . S
H1168 C1165 0.999 . S
H1169 C1150 0.913 . S
H1170 C1188 0.951 . S
H1171 C1190 0.951 . S
H1172 C1192 0.950 . S
H1173 C1193 0.950 . S
H1174 C1195 0.950 . S
H1175 C1198 0.950 . S
H1176 C1199 0.950 . S
H1177 C1201 0.950 . S
H1178 C1202 0.950 . S
H1179 C1203 0.961 . S
H1180 C1205 0.951 . S
H1181 C1207 0.950 . S
H1182 C1208 0.950 . S
H1183 C1210 0.950 . S
H1184 C1213 0.950 . S
H1185 C1214 0.950 . S
H1186 C1216 0.950 . S
H1187 C1217 0.950 . S
C1188 H1170 0.951 . S
C1188 C1189 1.366 1_455 S
C1188 C1190 1.388 . S
C1189 C1188 1.366 1_655 S
C1189 C1193 1.385 . S
C1190 H1171 0.951 . S
C1190 C1188 1.388 . S
C1190 C1191 1.366 1_455 S
C1191 C1190 1.366 1_655 S
C1191 C1192 1.414 . S
C1191 C1194 1.499 . S
C1192 H1172 0.950 . S
C1192 C1191 1.414 . S
C1192 C1193 1.374 . S
C1193 H1173 0.950 . S
C1193 C1189 1.385 . S
C1193 C1192 1.374 . S
C1194 C1191 1.499 . S
C1194 C1195 1.373 . S
C1194 C1196 1.389 1_655 S
C1195 H1174 0.950 . S
C1195 C1194 1.373 . S
C1195 C1211 1.377 . S
C1196 C1194 1.389 1_455 S
C1196 C1197 1.524 . S
C1196 C1210 1.377 . S
C1197 C1196 1.524 . S
C1197 C1198 1.397 1_455 S
C1197 C1202 1.363 . S
C1198 H1175 0.950 . S
C1198 C1197 1.397 1_655 S
C1198 C1199 1.334 . S
C1199 H1176 0.950 . S
C1199 C1198 1.334 . S
C1199 C1200 1.287 . S
C1200 C1199 1.287 . S
C1200 C1201 1.524 1_655 S
C1200 H1219 0.913 . S
C1201 H1177 0.950 . S
C1201 C1200 1.524 1_455 S
C1201 C1202 1.415 . S
C1202 H1178 0.950 . S
C1202 C1197 1.363 . S
C1202 C1201 1.415 . S
C1203 H1179 0.961 . S
C1203 C1204 1.351 1_655 S
C1203 C1205 1.393 . S
C1204 C1203 1.351 1_455 S
C1204 C1208 1.385 . S
C1205 H1180 0.951 . S
C1205 C1203 1.393 . S
C1205 C1206 1.366 1_655 S
C1206 C1205 1.366 1_455 S
C1206 C1207 1.414 . S
C1206 C1209 1.499 . S
C1207 H1181 0.950 . S
C1207 C1206 1.414 . S
C1207 C1208 1.374 . S
C1208 H1182 0.950 . S
C1208 C1204 1.385 . S
C1208 C1207 1.374 . S
C1209 C1206 1.499 . S
C1209 C1210 1.373 . S
C1209 C1211 1.389 1_455 S
C1210 H1183 0.950 . S
C1210 C1196 1.377 . S
C1210 C1209 1.373 . S
C1211 C1195 1.377 . S
C1211 C1209 1.389 1_655 S
C1211 C1212 1.524 . S
C1212 C1211 1.524 . S
C1212 C1213 1.397 1_655 S
C1212 C1217 1.363 . S
C1213 H1184 0.950 . S
C1213 C1212 1.397 1_455 S
C1213 C1214 1.334 . S
C1214 H1185 0.950 . S
C1214 C1213 1.334 . S
C1214 C1215 1.287 . S
C1215 C1214 1.287 . S
C1215 C1216 1.524 1_455 S
C1215 H1218 0.999 . S
C1216 H1186 0.950 . S
C1216 C1215 1.524 1_655 S
C1216 C1217 1.415 . S
C1217 H1187 0.950 . S
C1217 C1212 1.363 . S
C1217 C1216 1.415 . S
H1218 C1215 0.999 . S
H1219 C1200 0.913 . S
H1220 C1238 0.951 1_455 S
H1221 C1240 0.951 . S
H1222 C1242 0.950 . S
H1223 C1243 0.950 . S
H1224 C1245 0.950 . S
H1225 C1248 0.950 . S
H1226 C1249 0.950 . S
H1227 C1251 0.950 . S
H1228 C1252 0.950 . S
H1229 C1253 0.951 1_655 S
H1230 C1255 0.951 . S
H1231 C1257 0.950 . S
H1232 C1258 0.950 . S
H1233 C1260 0.950 . S
H1234 C1263 0.950 . S
H1235 C1264 0.950 . S
H1236 C1266 0.950 . S
H1237 C1267 0.950 . S
C1238 H1220 0.951 1_655 S
C1238 C1239 1.366 . S
C1238 C1240 1.388 1_655 S
C1239 C1238 1.366 . S
C1239 C1243 1.385 . S
C1240 H1221 0.951 . S
C1240 C1238 1.388 1_455 S
C1240 C1241 1.366 1_455 S
C1241 C1240 1.366 1_655 S
C1241 C1242 1.414 . S
C1241 C1244 1.499 . S
C1242 H1222 0.950 . S
C1242 C1241 1.414 . S
C1242 C1243 1.374 . S
C1243 H1223 0.950 . S
C1243 C1239 1.385 . S
C1243 C1242 1.374 . S
C1244 C1241 1.499 . S
C1244 C1245 1.373 . S
C1244 C1246 1.389 1_655 S
C1245 H1224 0.950 . S
C1245 C1244 1.373 . S
C1245 C1261 1.377 . S
C1246 C1244 1.389 1_455 S
C1246 C1247 1.524 . S
C1246 C1260 1.377 . S
C1247 C1246 1.524 . S
C1247 C1248 1.397 . S
C1247 C1252 1.363 . S
C1248 H1225 0.950 . S
C1248 C1247 1.397 . S
C1248 C1249 1.334 . S
C1249 H1226 0.950 . S
C1249 C1248 1.334 . S
C1249 C1250 1.287 . S
C1250 C1249 1.287 . S
C1250 C1251 1.524 . S
C1250 H1269 0.913 . S
C1251 H1227 0.950 . S
C1251 C1250 1.524 . S
C1251 C1252 1.415 . S
C1252 H1228 0.950 . S
C1252 C1247 1.363 . S
C1252 C1251 1.415 . S
C1253 H1229 0.951 1_455 S
C1253 C1254 1.366 . S
C1253 C1255 1.388 1_455 S
C1254 C1253 1.366 . S
C1254 C1258 1.385 . S
C1255 H1230 0.951 . S
C1255 C1253 1.388 1_655 S
C1255 C1256 1.366 1_655 S
C1256 C1255 1.366 1_455 S
C1256 C1257 1.414 . S
C1256 C1259 1.499 . S
C1257 H1231 0.950 . S
C1257 C1256 1.414 . S
C1257 C1258 1.374 . S
C1258 H1232 0.950 . S
C1258 C1254 1.385 . S
C1258 C1257 1.374 . S
C1259 C1256 1.499 . S
C1259 C1260 1.373 . S
C1259 C1261 1.389 1_455 S
C1260 H1233 0.950 . S
C1260 C1246 1.377 . S
C1260 C1259 1.373 . S
C1261 C1245 1.377 . S
C1261 C1259 1.389 1_655 S
C1261 C1262 1.524 . S
C1262 C1261 1.524 . S
C1262 C1263 1.397 . S
C1262 C1267 1.363 . S
C1263 H1234 0.950 . S
C1263 C1262 1.397 . S
C1263 C1264 1.334 . S
C1264 H1235 0.950 . S
C1264 C1263 1.334 . S
C1264 C1265 1.287 . S
C1265 C1264 1.287 . S
C1265 C1266 1.524 . S
C1265 H1268 0.999 . S
C1266 H1236 0.950 . S
C1266 C1265 1.524 . S
C1266 C1267 1.415 . S
C1267 H1237 0.950 . S
C1267 C1262 1.363 . S
C1267 C1266 1.415 . S
H1268 C1265 0.999 . S
H1269 C1250 0.913 . S
H1270 C1288 0.951 . S
H1271 C1290 0.951 . S
H1272 C1292 0.950 . S
H1273 C1293 0.950 . S
H1274 C1295 0.950 . S
H1275 C1298 0.950 1_455 S
H1276 C1299 0.950 . S
H1277 C1301 0.950 . S
H1278 C1302 0.950 . S
H1279 C1303 0.951 . S
H1280 C1305 0.951 . S
H1281 C1307 0.950 . S
H1282 C1308 0.950 . S
H1283 C1310 0.950 . S
H1284 C1313 0.950 1_655 S
H1285 C1314 0.950 . S
H1286 C1316 0.950 . S
H1287 C1317 0.950 . S
C1288 H1270 0.951 . S
C1288 C1289 1.366 . S
C1288 C1290 1.388 . S
C1289 C1288 1.366 . S
C1289 C1293 1.385 1_655 S
C1290 H1271 0.951 . S
C1290 C1288 1.388 . S
C1290 C1291 1.366 . S
C1291 C1290 1.366 . S
C1291 C1292 1.414 1_655 S
C1291 C1294 1.499 . S
C1292 H1272 0.950 . S
C1292 C1291 1.414 1_455 S
C1292 C1293 1.374 . S
C1293 H1273 0.950 . S
C1293 C1289 1.385 1_455 S
C1293 C1292 1.374 . S
C1294 C1291 1.499 . S
C1294 C1295 1.373 1_655 S
C1294 C1296 1.389 . S
C1295 H1274 0.950 . S
C1295 C1294 1.373 1_455 S
C1295 C1311 1.377 . S
C1296 C1294 1.389 . S
C1296 C1297 1.524 . S
C1296 C1310 1.377 . S
C1297 C1296 1.524 . S
C1297 C1298 1.397 . S
C1297 C1302 1.363 . S
C1298 H1275 0.950 1_655 S
C1298 C1297 1.397 . S
C1298 C1299 1.334 . S
C1299 H1276 0.950 . S
C1299 C1298 1.334 . S
C1299 C1300 1.287 . S
C1300 C1299 1.287 . S
C1300 C1301 1.524 . S
C1300 H1319 0.913 . S
C1301 H1277 0.950 . S
C1301 C1300 1.524 . S
C1301 C1302 1.415 . S
C1302 H1278 0.950 . S
C1302 C1297 1.363 . S
C1302 C1301 1.415 . S
C1303 H1279 0.951 . S
C1303 C1304 1.366 . S
C1303 C1305 1.388 . S
C1304 C1303 1.366 . S
C1304 C1308 1.385 1_455 S
C1305 H1280 0.951 . S
C1305 C1303 1.388 . S
C1305 C1306 1.366 . S
C1306 C1305 1.366 . S
C1306 C1307 1.414 1_455 S
C1306 C1309 1.499 . S
C1307 H1281 0.950 . S
C1307 C1306 1.414 1_655 S
C1307 C1308 1.374 . S
C1308 H1282 0.950 . S
C1308 C1304 1.385 1_655 S
C1308 C1307 1.374 . S
C1309 C1306 1.499 . S
C1309 C1310 1.373 1_455 S
C1309 C1311 1.389 . S
C1310 H1283 0.950 . S
C1310 C1296 1.377 . S
C1310 C1309 1.373 1_655 S
C1311 C1295 1.377 . S
C1311 C1309 1.389 . S
C1311 C1312 1.524 . S
C1312 C1311 1.524 . S
C1312 C1313 1.397 . S
C1312 C1317 1.363 . S
C1313 H1284 0.950 1_455 S
C1313 C1312 1.397 . S
C1313 C1314 1.334 . S
C1314 H1285 0.950 . S
C1314 C1313 1.334 . S
C1314 C1315 1.287 . S
C1315 C1314 1.287 . S
C1315 C1316 1.524 . S
C1315 H1318 0.999 . S
C1316 H1286 0.950 . S
C1316 C1315 1.524 . S
C1316 C1317 1.415 . S
C1317 H1287 0.950 . S
C1317 C1312 1.363 . S
C1317 C1316 1.415 . S
H1318 C1315 0.999 . S
H1319 C1300 0.913 . S
H1320 C1338 0.951 . S
H1321 C1340 0.951 . S
H1322 C1342 0.950 . S
H1323 C1343 0.950 . S
H1324 C1345 0.950 . S
H1325 C1348 0.950 . S
H1326 C1349 0.950 . S
H1327 C1351 0.950 . S
H1328 C1352 0.950 . S
H1329 C1353 0.951 . S
H1330 C1355 0.951 . S
H1331 C1357 0.950 . S
H1332 C1358 0.950 . S
H1333 C1360 0.950 . S
H1334 C1363 0.950 . S
H1335 C1364 0.950 . S
H1336 C1366 0.950 . S
H1337 C1367 0.950 . S
C1338 H1320 0.951 . S
C1338 C1339 1.366 . S
C1338 C1340 1.388 . S
C1339 C1338 1.366 . S
C1339 C1343 1.385 . S
C1340 H1321 0.951 . S
C1340 C1338 1.388 . S
C1340 C1341 1.366 . S
C1341 C1340 1.366 . S
C1341 C1342 1.414 . S
C1341 C1344 1.499 . S
C1342 H1322 0.950 . S
C1342 C1341 1.414 . S
C1342 C1343 1.374 . S
C1343 H1323 0.950 . S
C1343 C1339 1.385 . S
C1343 C1342 1.374 . S
C1344 C1341 1.499 . S
C1344 C1345 1.373 . S
C1344 C1346 1.389 . S
C1345 H1324 0.950 . S
C1345 C1344 1.373 . S
C1345 C1361 1.377 . S
C1346 C1344 1.389 . S
C1346 C1347 1.524 . S
C1346 C1360 1.377 . S
C1347 C1346 1.524 . S
C1347 C1348 1.397 . S
C1347 C1352 1.363 . S
C1348 H1325 0.950 . S
C1348 C1347 1.397 . S
C1348 C1349 1.334 . S
C1349 H1326 0.950 . S
C1349 C1348 1.334 . S
C1349 C1350 1.287 . S
C1350 C1349 1.287 . S
C1350 C1351 1.524 . S
C1350 H1369 0.913 . S
C1351 H1327 0.950 . S
C1351 C1350 1.524 . S
C1351 C1352 1.415 . S
C1352 H1328 0.950 . S
C1352 C1347 1.363 . S
C1352 C1351 1.415 . S
C1353 H1329 0.951 . S
C1353 C1354 1.366 . S
C1353 C1355 1.388 . S
C1354 C1353 1.366 . S
C1354 C1358 1.385 . S
C1355 H1330 0.951 . S
C1355 C1353 1.388 . S
C1355 C1356 1.366 . S
C1356 C1355 1.366 . S
C1356 C1357 1.414 . S
C1356 C1359 1.499 . S
C1357 H1331 0.950 . S
C1357 C1356 1.414 . S
C1357 C1358 1.374 . S
C1358 H1332 0.950 . S
C1358 C1354 1.385 . S
C1358 C1357 1.374 . S
C1359 C1356 1.499 . S
C1359 C1360 1.373 . S
C1359 C1361 1.389 . S
C1360 H1333 0.950 . S
C1360 C1346 1.377 . S
C1360 C1359 1.373 . S
C1361 C1345 1.377 . S
C1361 C1359 1.389 . S
C1361 C1362 1.524 . S
C1362 C1361 1.524 . S
C1362 C1363 1.397 . S
C1362 C1367 1.363 . S
C1363 H1334 0.950 . S
C1363 C1362 1.397 . S
C1363 C1364 1.334 . S
C1364 H1335 0.950 . S
C1364 C1363 1.334 . S
C1364 C1365 1.287 . S
C1365 C1364 1.287 . S
C1365 C1366 1.524 . S
C1365 H1368 0.999 . S
C1366 H1336 0.950 . S
C1366 C1365 1.524 . S
C1366 C1367 1.415 . S
C1367 H1337 0.950 . S
C1367 C1362 1.363 . S
C1367 C1366 1.415 . S
H1368 C1365 0.999 . S
H1369 C1350 0.913 . S
H1370 C1388 0.951 . S
H1371 C1390 0.951 . S
H1372 C1392 0.950 . S
H1373 C1393 0.950 . S
H1374 C1395 0.950 . S
H1375 C1398 0.950 . S
H1376 C1399 0.950 . S
H1377 C1401 0.950 . S
H1378 C1402 0.950 . S
H1379 C1403 0.951 . S
H1380 C1405 0.951 . S
H1381 C1407 0.950 . S
H1382 C1408 0.950 . S
H1383 C1410 0.950 . S
H1384 C1413 0.950 . S
H1385 C1414 0.950 . S
H1386 C1416 0.950 . S
H1387 C1417 0.950 . S
C1388 H1370 0.951 . S
C1388 C1389 1.366 . S
C1388 C1390 1.388 . S
C1389 C1388 1.366 . S
C1389 C1393 1.385 . S
C1390 H1371 0.951 . S
C1390 C1388 1.388 . S
C1390 C1391 1.366 . S
C1391 C1390 1.366 . S
C1391 C1392 1.414 . S
C1391 C1394 1.499 . S
C1392 H1372 0.950 . S
C1392 C1391 1.414 . S
C1392 C1393 1.374 . S
C1393 H1373 0.950 . S
C1393 C1389 1.385 . S
C1393 C1392 1.374 . S
C1394 C1391 1.499 . S
C1394 C1395 1.373 . S
C1394 C1396 1.389 . S
C1395 H1374 0.950 . S
C1395 C1394 1.373 . S
C1395 C1411 1.377 . S
C1396 C1394 1.389 . S
C1396 C1397 1.524 . S
C1396 C1410 1.377 . S
C1397 C1396 1.524 . S
C1397 C1398 1.397 . S
C1397 C1402 1.363 . S
C1398 H1375 0.950 . S
C1398 C1397 1.397 . S
C1398 C1399 1.334 . S
C1399 H1376 0.950 . S
C1399 C1398 1.334 . S
C1399 C1400 1.287 . S
C1400 C1399 1.287 . S
C1400 C1401 1.524 . S
C1400 H1419 0.913 . S
C1401 H1377 0.950 . S
C1401 C1400 1.524 . S
C1401 C1402 1.415 . S
C1402 H1378 0.950 . S
C1402 C1397 1.363 . S
C1402 C1401 1.415 . S
C1403 H1379 0.951 . S
C1403 C1404 1.366 . S
C1403 C1405 1.388 . S
C1404 C1403 1.366 . S
C1404 C1408 1.385 . S
C1405 H1380 0.951 . S
C1405 C1403 1.388 . S
C1405 C1406 1.366 . S
C1406 C1405 1.366 . S
C1406 C1407 1.414 . S
C1406 C1409 1.499 . S
C1407 H1381 0.950 . S
C1407 C1406 1.414 . S
C1407 C1408 1.374 . S
C1408 H1382 0.950 . S
C1408 C1404 1.385 . S
C1408 C1407 1.374 . S
C1409 C1406 1.499 . S
C1409 C1410 1.373 . S
C1409 C1411 1.389 . S
C1410 H1383 0.950 . S
C1410 C1396 1.377 . S
C1410 C1409 1.373 . S
C1411 C1395 1.377 . S
C1411 C1409 1.389 . S
C1411 C1412 1.524 . S
C1412 C1411 1.524 . S
C1412 C1413 1.397 . S
C1412 C1417 1.363 . S
C1413 H1384 0.950 . S
C1413 C1412 1.397 . S
C1413 C1414 1.334 . S
C1414 H1385 0.950 . S
C1414 C1413 1.334 . S
C1414 C1415 1.287 . S
C1415 C1414 1.287 . S
C1415 C1416 1.524 . S
C1415 H1418 0.999 . S
C1416 H1386 0.950 . S
C1416 C1415 1.524 . S
C1416 C1417 1.415 . S
C1417 H1387 0.950 . S
C1417 C1412 1.363 . S
C1417 C1416 1.415 . S
H1418 C1415 0.999 . S
H1419 C1400 0.913 . S
H1420 C1438 0.951 . S
H1421 C1440 0.951 . S
H1422 C1442 0.950 . S
H1423 C1443 0.950 . S
H1424 C1445 0.950 . S
H1425 C1448 0.950 . S
H1426 C1449 0.950 . S
H1427 C1451 0.950 . S
H1428 C1452 0.950 . S
H1429 C1453 0.951 . S
H1430 C1455 0.951 . S
H1431 C1457 0.950 . S
H1432 C1458 0.950 . S
H1433 C1460 0.950 . S
H1434 C1463 0.950 . S
H1435 C1464 0.950 . S
H1436 C1466 0.950 . S
H1437 C1467 0.950 . S
C1438 H1420 0.951 . S
C1438 C1439 1.366 . S
C1438 C1440 1.388 . S
C1439 C1438 1.366 . S
C1439 C1443 1.385 . S
C1440 H1421 0.951 . S
C1440 C1438 1.388 . S
C1440 C1441 1.366 . S
C1441 C1440 1.366 . S
C1441 C1442 1.414 . S
C1441 C1444 1.499 . S
C1442 H1422 0.950 . S
C1442 C1441 1.414 . S
C1442 C1443 1.374 . S
C1443 H1423 0.950 . S
C1443 C1439 1.385 . S
C1443 C1442 1.374 . S
C1444 C1441 1.499 . S
C1444 C1445 1.373 . S
C1444 C1446 1.389 . S
C1445 H1424 0.950 . S
C1445 C1444 1.373 . S
C1445 C1461 1.377 . S
C1446 C1444 1.389 . S
C1446 C1447 1.524 . S
C1446 C1460 1.377 . S
C1447 C1446 1.524 . S
C1447 C1448 1.397 . S
C1447 C1452 1.363 . S
C1448 H1425 0.950 . S
C1448 C1447 1.397 . S
C1448 C1449 1.334 . S
C1449 H1426 0.950 . S
C1449 C1448 1.334 . S
C1449 C1450 1.287 . S
C1450 C1449 1.287 . S
C1450 C1451 1.524 . S
C1450 H1469 0.913 . S
C1451 H1427 0.950 . S
C1451 C1450 1.524 . S
C1451 C1452 1.415 . S
C1452 H1428 0.950 . S
C1452 C1447 1.363 . S
C1452 C1451 1.415 . S
C1453 H1429 0.951 . S
C1453 C1454 1.366 . S
C1453 C1455 1.388 . S
C1454 C1453 1.366 . S
C1454 C1458 1.385 . S
C1455 H1430 0.951 . S
C1455 C1453 1.388 . S
C1455 C1456 1.366 . S
C1456 C1455 1.366 . S
C1456 C1457 1.414 . S
C1456 C1459 1.499 . S
C1457 H1431 0.950 . S
C1457 C1456 1.414 . S
C1457 C1458 1.374 . S
C1458 H1432 0.950 . S
C1458 C1454 1.385 . S
C1458 C1457 1.374 . S
C1459 C1456 1.499 . S
C1459 C1460 1.373 . S
C1459 C1461 1.389 . S
C1460 H1433 0.950 . S
C1460 C1446 1.377 . S
C1460 C1459 1.373 . S
C1461 C1445 1.377 . S
C1461 C1459 1.389 . S
C1461 C1462 1.524 . S
C1462 C1461 1.524 . S
C1462 C1463 1.397 . S
C1462 C1467 1.363 . S
C1463 H1434 0.950 . S
C1463 C1462 1.397 . S
C1463 C1464 1.334 . S
C1464 H1435 0.950 . S
C1464 C1463 1.334 . S
C1464 C1465 1.287 . S
C1465 C1464 1.287 . S
C1465 C1466 1.524 . S
C1465 H1468 0.999 . S
C1466 H1436 0.950 . S
C1466 C1465 1.524 . S
C1466 C1467 1.415 . S
C1467 H1437 0.950 . S
C1467 C1462 1.363 . S
C1467 C1466 1.415 . S
H1468 C1465 0.999 . S
H1469 C1450 0.913 . S
H1470 C1488 0.951 . S
H1471 C1490 0.951 . S
H1472 C1492 0.950 . S
H1473 C1493 0.950 . S
H1474 C1495 0.950 . S
H1475 C1498 0.950 . S
H1476 C1499 0.950 . S
H1477 C1501 0.950 . S
H1478 C1502 0.950 . S
H1479 C1503 0.951 . S
H1480 C1505 0.951 . S
H1481 C1507 0.950 . S
H1482 C1508 0.950 . S
H1483 C1510 0.950 . S
H1484 C1513 0.950 . S
H1485 C1514 0.950 . S
H1486 C1516 0.950 . S
H1487 C1517 0.950 . S
C1488 H1470 0.951 . S
C1488 C1489 1.366 . S
C1488 C1490 1.388 . S
C1489 C1488 1.366 . S
C1489 C1493 1.385 . S
C1490 H1471 0.951 . S
C1490 C1488 1.388 . S
C1490 C1491 1.366 . S
C1491 C1490 1.366 . S
C1491 C1492 1.414 . S
C1491 C1494 1.499 . S
C1492 H1472 0.950 . S
C1492 C1491 1.414 . S
C1492 C1493 1.374 . S
C1493 H1473 0.950 . S
C1493 C1489 1.385 . S
C1493 C1492 1.374 . S
C1494 C1491 1.499 . S
C1494 C1495 1.373 . S
C1494 C1496 1.389 . S
C1495 H1474 0.950 . S
C1495 C1494 1.373 . S
C1495 C1511 1.377 . S
C1496 C1494 1.389 . S
C1496 C1497 1.524 . S
C1496 C1510 1.377 . S
C1497 C1496 1.524 . S
C1497 C1498 1.397 . S
C1497 C1502 1.363 . S
C1498 H1475 0.950 . S
C1498 C1497 1.397 . S
C1498 C1499 1.334 . S
C1499 H1476 0.950 . S
C1499 C1498 1.334 . S
C1499 C1500 1.287 . S
C1500 C1499 1.287 . S
C1500 C1501 1.524 . S
C1500 H1519 0.913 . S
C1501 H1477 0.950 . S
C1501 C1500 1.524 . S
C1501 C1502 1.415 . S
C1502 H1478 0.950 . S
C1502 C1497 1.363 . S
C1502 C1501 1.415 . S
C1503 H1479 0.951 . S
C1503 C1504 1.366 . S
C1503 C1505 1.388 . S
C1504 C1503 1.366 . S
C1504 C1508 1.385 . S
C1505 H1480 0.951 . S
C1505 C1503 1.388 . S
C1505 C1506 1.366 . S
C1506 C1505 1.366 . S
C1506 C1507 1.414 . S
C1506 C1509 1.499 . S
C1507 H1481 0.950 . S
C1507 C1506 1.414 . S
C1507 C1508 1.374 . S
C1508 H1482 0.950 . S
C1508 C1504 1.385 . S
C1508 C1507 1.374 . S
C1509 C1506 1.499 . S
C1509 C1510 1.373 . S
C1509 C1511 1.389 . S
C1510 H1483 0.950 . S
C1510 C1496 1.377 . S
C1510 C1509 1.373 . S
C1511 C1495 1.377 . S
C1511 C1509 1.389 . S
C1511 C1512 1.524 . S
C1512 C1511 1.524 . S
C1512 C1513 1.397 . S
C1512 C1517 1.363 . S
C1513 H1484 0.950 . S
C1513 C1512 1.397 . S
C1513 C1514 1.334 . S
C1514 H1485 0.950 . S
C1514 C1513 1.334 . S
C1514 C1515 1.287 . S
C1515 C1514 1.287 . S
C1515 C1516 1.524 . S
C1515 H1518 0.999 . S
C1516 H1486 0.950 . S
C1516 C1515 1.524 . S
C1516 C1517 1.415 . S
C1517 H1487 0.950 . S
C1517 C1512 1.363 . S
C1517 C1516 1.415 . S
H1518 C1515 0.999 . S
H1519 C1500 0.913 . S
C339 C11 2.377 . S
C354 C2 2.377 . S
C389 C51 2.377 . S
C404 C42 2.377 . S
C439 C91 2.377 . S
C454 C82 2.377 . S
C489 C131 2.377 . S
C504 C122 2.377 . S
C539 C171 2.377 . S
C554 C162 2.377 . S
C589 C202 2.377 . S
C604 C211 2.377 . S
C639 C251 2.377 . S
C654 C242 2.377 . S
C689 C282 2.377 . S
C704 C291 2.377 . S
C739 C56 2.482 . S
C754 C7 2.482 . S
C789 C127 2.481 . S
C804 C96 2.481 . S
C839 C167 2.481 . S
C854 C216 2.481 . S
C889 C256 2.482 . S
C904 C287 2.482 . S
C939 C16 1.759 . S
C954 C207 1.759 . S
C989 C176 1.759 . S
C1004 C47 1.759 . S
C1039 C87 1.759 . S
C1054 C296 1.759 . S
C1089 C136 1.759 . S
C1104 C247 1.759 . S
C1139 C10 1.462 . S
C1154 C130 1.461 . S
C1189 C50 1.627 . S
C1204 C90 1.628 . S
C1239 C59 1.462 . S
C1254 C99 1.462 . S
C1289 C139 1.628 . S
C1304 C19 1.629 . S
C1339 C170 1.462 . S
C1354 C290 1.461 . S
C1389 C210 1.628 . S
C1404 C250 1.629 . S
C1439 C219 1.462 . S
C1454 C259 1.461 . S
C1489 C299 1.628 . S
C1504 C179 1.629 . S
