# Generated by pormake.
# Topology wiu, (6)-cn, num edge types: 1
# Building blocks:
#     Node 0, Type 0, BuildingBlock: BETDAH_clean_sbu_0, # of connection points: 6
#     Node 1, Type 0, BuildingBlock: BETDAH_clean_sbu_0, # of connection points: 6
#     Node 2, Type 0, BuildingBlock: BETDAH_clean_sbu_0, # of connection points: 6
#     Node 3, Type 0, BuildingBlock: BETDAH_clean_sbu_0, # of connection points: 6
#     Node 4, Type 0, BuildingBlock: BETDAH_clean_sbu_0, # of connection points: 6
#     Node 5, Type 0, BuildingBlock: BETDAH_clean_sbu_0, # of connection points: 6
#     Node 6, Type 0, BuildingBlock: BETDAH_clean_sbu_0, # of connection points: 6
#     Node 7, Type 0, BuildingBlock: BETDAH_clean_sbu_0, # of connection points: 6
#     Node 8, Type 0, BuildingBlock: BETDAH_clean_sbu_0, # of connection points: 6
#     Node 9, Type 0, BuildingBlock: BETDAH_clean_sbu_0, # of connection points: 6
#     Node 10, Type 0, BuildingBlock: BETDAH_clean_sbu_0, # of connection points: 6
#     Node 11, Type 0, BuildingBlock: BETDAH_clean_sbu_0, # of connection points: 6
#     Node 12, Type 0, BuildingBlock: BETDAH_clean_sbu_0, # of connection points: 6
#     Node 13, Type 0, BuildingBlock: BETDAH_clean_sbu_0, # of connection points: 6
#     Node 14, Type 0, BuildingBlock: BETDAH_clean_sbu_0, # of connection points: 6
#     Node 15, Type 0, BuildingBlock: BETDAH_clean_sbu_0, # of connection points: 6
#     Edge 16, Type (0, 0), BuildingBlock: KIFKEQ_clean_linker_1, # of connection points: 2
#     Edge 17, Type (0, 0), BuildingBlock: KIFKEQ_clean_linker_1, # of connection points: 2
#     Edge 18, Type (0, 0), BuildingBlock: KIFKEQ_clean_linker_1, # of connection points: 2
#     Edge 19, Type (0, 0), BuildingBlock: KIFKEQ_clean_linker_1, # of connection points: 2
#     Edge 20, Type (0, 0), BuildingBlock: KIFKEQ_clean_linker_1, # of connection points: 2
#     Edge 21, Type (0, 0), BuildingBlock: KIFKEQ_clean_linker_1, # of connection points: 2
#     Edge 22, Type (0, 0), BuildingBlock: KIFKEQ_clean_linker_1, # of connection points: 2
#     Edge 23, Type (0, 0), BuildingBlock: KIFKEQ_clean_linker_1, # of connection points: 2
#     Edge 24, Type (0, 0), BuildingBlock: KIFKEQ_clean_linker_1, # of connection points: 2
#     Edge 25, Type (0, 0), BuildingBlock: KIFKEQ_clean_linker_1, # of connection points: 2
#     Edge 26, Type (0, 0), BuildingBlock: KIFKEQ_clean_linker_1, # of connection points: 2
#     Edge 27, Type (0, 0), BuildingBlock: KIFKEQ_clean_linker_1, # of connection points: 2
#     Edge 28, Type (0, 0), BuildingBlock: KIFKEQ_clean_linker_1, # of connection points: 2
#     Edge 29, Type (0, 0), BuildingBlock: KIFKEQ_clean_linker_1, # of connection points: 2
#     Edge 30, Type (0, 0), BuildingBlock: KIFKEQ_clean_linker_1, # of connection points: 2
#     Edge 31, Type (0, 0), BuildingBlock: KIFKEQ_clean_linker_1, # of connection points: 2
#     Edge 32, Type (0, 0), BuildingBlock: KIFKEQ_clean_linker_1, # of connection points: 2
#     Edge 33, Type (0, 0), BuildingBlock: KIFKEQ_clean_linker_1, # of connection points: 2
#     Edge 34, Type (0, 0), BuildingBlock: KIFKEQ_clean_linker_1, # of connection points: 2
#     Edge 35, Type (0, 0), BuildingBlock: KIFKEQ_clean_linker_1, # of connection points: 2
#     Edge 36, Type (0, 0), BuildingBlock: KIFKEQ_clean_linker_1, # of connection points: 2
#     Edge 37, Type (0, 0), BuildingBlock: KIFKEQ_clean_linker_1, # of connection points: 2
#     Edge 38, Type (0, 0), BuildingBlock: KIFKEQ_clean_linker_1, # of connection points: 2
#     Edge 39, Type (0, 0), BuildingBlock: KIFKEQ_clean_linker_1, # of connection points: 2
#     Edge 40, Type (0, 0), BuildingBlock: KIFKEQ_clean_linker_1, # of connection points: 2
#     Edge 41, Type (0, 0), BuildingBlock: KIFKEQ_clean_linker_1, # of connection points: 2
#     Edge 42, Type (0, 0), BuildingBlock: KIFKEQ_clean_linker_1, # of connection points: 2
#     Edge 43, Type (0, 0), BuildingBlock: KIFKEQ_clean_linker_1, # of connection points: 2
#     Edge 44, Type (0, 0), BuildingBlock: KIFKEQ_clean_linker_1, # of connection points: 2
#     Edge 45, Type (0, 0), BuildingBlock: KIFKEQ_clean_linker_1, # of connection points: 2
#     Edge 46, Type (0, 0), BuildingBlock: KIFKEQ_clean_linker_1, # of connection points: 2
#     Edge 47, Type (0, 0), BuildingBlock: KIFKEQ_clean_linker_1, # of connection points: 2
#     Edge 48, Type (0, 0), BuildingBlock: KIFKEQ_clean_linker_1, # of connection points: 2
#     Edge 49, Type (0, 0), BuildingBlock: KIFKEQ_clean_linker_1, # of connection points: 2
#     Edge 50, Type (0, 0), BuildingBlock: KIFKEQ_clean_linker_1, # of connection points: 2
#     Edge 51, Type (0, 0), BuildingBlock: KIFKEQ_clean_linker_1, # of connection points: 2
#     Edge 52, Type (0, 0), BuildingBlock: KIFKEQ_clean_linker_1, # of connection points: 2
#     Edge 53, Type (0, 0), BuildingBlock: KIFKEQ_clean_linker_1, # of connection points: 2
#     Edge 54, Type (0, 0), BuildingBlock: KIFKEQ_clean_linker_1, # of connection points: 2
#     Edge 55, Type (0, 0), BuildingBlock: KIFKEQ_clean_linker_1, # of connection points: 2
#     Edge 56, Type (0, 0), BuildingBlock: KIFKEQ_clean_linker_1, # of connection points: 2
#     Edge 57, Type (0, 0), BuildingBlock: KIFKEQ_clean_linker_1, # of connection points: 2
#     Edge 58, Type (0, 0), BuildingBlock: KIFKEQ_clean_linker_1, # of connection points: 2
#     Edge 59, Type (0, 0), BuildingBlock: KIFKEQ_clean_linker_1, # of connection points: 2
#     Edge 60, Type (0, 0), BuildingBlock: KIFKEQ_clean_linker_1, # of connection points: 2
#     Edge 61, Type (0, 0), BuildingBlock: KIFKEQ_clean_linker_1, # of connection points: 2
#     Edge 62, Type (0, 0), BuildingBlock: KIFKEQ_clean_linker_1, # of connection points: 2
#     Edge 63, Type (0, 0), BuildingBlock: KIFKEQ_clean_linker_1, # of connection points: 2
# Relax obj value: 0.550
# Max RMSD: 0.323
# Mean RMSD: 0.323
data_MOF--net-wiu--node1-BETDAH_clean_sbu_0--edge1-KIFKEQ_clean_linker_1
_symmetry_space_group_name_H-M    P1
_symmetry_Int_Tables_number       1
_symmetry_cell_setting            triclinic
loop_
_symmetry_equiv_pos_as_xyz
'x, y, z'
_cell_length_a     37.934102
_cell_length_b     37.949115
_cell_length_c     55.838679
_cell_angle_alpha  90.160742
_cell_angle_beta   90.179662
_cell_angle_gamma 89.982334
loop_
_atom_site_label
_atom_site_type_symbol
_atom_site_fract_x
_atom_site_fract_y
_atom_site_fract_z
_atom_type_partial_charge
Ho0 Ho 0.35006 0.17845 0.29072 0.0
Ho1 Ho 0.38944 0.12064 0.27316 0.0
C2 C 0.38386 0.12131 0.32894 0.0
C3 C 0.31281 0.22685 0.31153 0.0
C4 C 0.30428 0.26379 0.3058 0.0
C5 C 0.27023 0.27647 0.31016 0.0
C6 C 0.26111 0.31098 0.30402 0.0
C7 C 0.28597 0.33367 0.29346 0.0
C8 C 0.32017 0.3208 0.28911 0.0
C9 C 0.32921 0.28617 0.29514 0.0
C10 C 0.41502 0.20036 0.27492 0.0
C11 C 0.33522 0.15957 0.23473 0.0
C12 C 0.42972 0.08014 0.24835 0.0
C13 C 0.42182 0.05872 0.22688 0.0
C14 C 0.40995 0.07449 0.20558 0.0
C15 C 0.4003 0.05375 0.18596 0.0
C16 C 0.40211 1.01677 0.18719 0.0
C17 C 0.41348 1.00105 0.20865 0.0
C18 C 0.42338 1.02183 0.22824 0.0
C19 C 0.32307 0.10128 0.28616 0.0
O20 O 0.35668 0.14244 0.32408 0.0
O21 O 0.40639 0.11432 0.31163 0.0
O22 O 0.29947 0.20326 0.29711 0.0
O23 O 0.3455 0.21996 0.31721 0.0
O24 O 0.38503 0.21465 0.26978 0.0
O25 O 0.40907 0.1727 0.28725 0.0
O26 O 0.36107 0.13639 0.23812 0.0
O27 O 0.3251 0.17943 0.25313 0.0
O28 O 0.414 0.06987 0.26788 0.0
O29 O 0.4293 0.11446 0.24583 0.0
O30 O 0.35045 0.08118 0.28856 0.0
O31 O 0.33234 0.12883 0.27568 0.0
H32 H 0.2505 0.25951 0.31809 0.0
H33 H 0.23434 0.31967 0.30721 0.0
H34 H 0.34009 0.33757 0.28124 0.0
H35 H 0.35564 0.2769 0.29142 0.0
H36 H 0.40807 0.10286 0.20399 0.0
H37 H 0.39241 0.06685 0.16959 0.0
H38 H 0.41494 0.97266 0.21029 0.0
H39 H 0.43197 1.00904 0.24458 0.0
Ho40 Ho 0.62649 0.60823 0.54086 0.0
Ho41 Ho 0.6838 0.64707 0.52226 0.0
C42 C 0.68477 0.64268 0.57836 0.0
C43 C 0.57708 0.57198 0.56122 0.0
C44 C 0.54027 0.56387 0.55444 0.0
C45 C 0.52771 0.52931 0.55676 0.0
C46 C 0.49365 0.52057 0.54913 0.0
C47 C 0.47136 0.54627 0.53907 0.0
C48 C 0.48382 0.58103 0.53707 0.0
C49 C 0.51802 0.58972 0.54454 0.0
C50 C 0.60448 0.67274 0.52421 0.0
C51 C 0.64462 0.5921 0.48484 0.0
C52 C 0.72405 0.6868 0.49696 0.0
C53 C 0.74475 0.67863 0.4753 0.0
C54 C 0.72814 0.66837 0.45386 0.0
C55 C 0.74812 0.65845 0.43402 0.0
C56 C 0.78518 0.65838 0.43517 0.0
C57 C 0.80173 0.66817 0.45676 0.0
C58 C 0.78172 0.67836 0.47656 0.0
C59 C 0.70366 0.58126 0.53623 0.0
O60 O 0.66214 0.61635 0.57443 0.0
O61 O 0.69231 0.66403 0.56048 0.0
O62 O 0.60127 0.55797 0.54768 0.0
O63 O 0.58421 0.60465 0.56673 0.0
O64 O 0.5904 0.64263 0.51912 0.0
O65 O 0.63222 0.66707 0.53661 0.0
O66 O 0.66593 0.61966 0.4873 0.0
O67 O 0.62713 0.58088 0.50398 0.0
O68 O 0.73469 0.67095 0.51638 0.0
O69 O 0.68966 0.68681 0.49481 0.0
O70 O 0.72374 0.6087 0.53786 0.0
O71 O 0.67581 0.58996 0.52575 0.0
H72 H 0.54442 0.50895 0.56426 0.0
H73 H 0.48469 0.49366 0.55121 0.0
H74 H 0.46742 0.60135 0.52922 0.0
H75 H 0.52715 0.61654 0.54228 0.0
H76 H 0.69968 0.66801 0.45232 0.0
H77 H 0.73445 0.65185 0.41755 0.0
H78 H 0.83019 0.66819 0.45833 0.0
H79 H 0.79516 0.68573 0.49297 0.0
Ho80 Ho 0.19806 0.88573 0.7912 0.0
Ho81 Ho 0.1564 0.94198 0.77223 0.0
C82 C 0.16435 0.94461 0.82846 0.0
C83 C 0.2354 0.83723 0.81195 0.0
C84 C 0.2437 0.80039 0.80571 0.0
C85 C 0.23965 0.78807 0.78212 0.0
C86 C 0.24782 0.75309 0.77631 0.0
C87 C 0.26006 0.72968 0.794 0.0
C88 C 0.26342 0.74212 0.81771 0.0
C89 C 0.25536 0.77712 0.82347 0.0
C90 C 0.13295 0.86342 0.77537 0.0
C91 C 0.21297 0.90423 0.73505 0.0
C92 C 0.10615 0.97351 0.74968 0.0
C93 C 0.06772 0.97498 0.75216 0.0
C94 C 0.04889 0.94684 0.76229 0.0
C95 C 1.01211 0.94574 0.76052 0.0
C96 C 0.99375 0.97283 0.74869 0.0
C97 C 1.01277 1.00234 0.74051 0.0
C98 C 0.04941 1.00331 0.74219 0.0
C99 C 0.22172 0.96486 0.78494 0.0
O100 O 0.19062 0.92194 0.82449 0.0
O101 O 0.1423 0.95183 0.81081 0.0
O102 O 0.24867 0.86126 0.79796 0.0
O103 O 0.20259 0.84367 0.81727 0.0
O104 O 0.16279 0.84921 0.76977 0.0
O105 O 0.13933 0.89068 0.78794 0.0
O106 O 0.18518 0.92541 0.73746 0.0
O107 O 0.22451 0.88669 0.75416 0.0
O108 O 0.11886 0.94288 0.74329 0.0
O109 O 0.12467 0.98876 0.76653 0.0
O110 O 0.19391 0.98479 0.78498 0.0
O111 O 0.21365 0.93581 0.77569 0.0
H112 H 0.23046 0.8056 0.76815 0.0
H113 H 0.24526 0.74464 0.75785 0.0
H114 H 0.27216 0.72475 0.83189 0.0
H115 H 0.25828 0.78605 0.84182 0.0
H116 H 0.06271 0.92485 0.77035 0.0
H117 H 0.99828 0.92282 0.76716 0.0
H118 H 0.99977 0.02348 0.73095 0.0
H119 H 0.06356 0.02526 0.7344 0.0
Ho120 Ho 0.92018 0.4596 1.04166 0.0
Ho121 Ho 0.86551 0.41587 1.02176 0.0
C122 C 0.86148 0.42434 1.07806 0.0
C123 C 0.96609 0.4996 1.06284 0.0
C124 C 1.00323 0.50811 1.05768 0.0
C125 C 1.01551 0.54254 1.06122 0.0
C126 C 0.05013 0.55153 1.0552 0.0
C127 C 0.07324 0.52618 1.04553 0.0
C128 C 0.06082 0.49158 1.04214 0.0
C129 C 0.02616 0.48266 1.04808 0.0
C130 C 0.9456 0.39526 1.02672 0.0
C131 C 0.90276 0.47303 0.98494 0.0
C132 C 0.83546 0.36443 0.99946 0.0
C133 C 0.83218 0.32619 1.00323 0.0
C134 C 0.86199 0.30483 1.007 0.0
C135 C 0.85878 0.26815 1.00718 0.0
C136 C 0.82573 0.25225 1.00351 0.0
C137 C 0.79565 0.27387 1.00173 0.0
C138 C 0.7989 0.31048 1.00154 0.0
C139 C 0.84109 0.481 1.03372 0.0
O140 O 0.88335 0.45128 1.0743 0.0
O141 O 0.85518 0.40199 1.06037 0.0
O142 O 0.94314 0.51128 1.04735 0.0
O143 O 0.95938 0.46732 1.06944 0.0
O144 O 0.95939 0.42558 1.02202 0.0
O145 O 0.91714 0.4006 1.03825 0.0
O146 O 0.8823 0.44467 0.9871 0.0
O147 O 0.91941 0.48523 1.00431 0.0
O148 O 0.86693 0.37615 0.99417 0.0
O149 O 0.81874 0.38476 1.01455 0.0
O150 O 0.82164 0.45286 1.03385 0.0
O151 O 0.87037 0.47306 1.02495 0.0
H152 H 0.99814 0.56265 1.06835 0.0
H153 H 0.05853 0.57856 1.0577 0.0
H154 H 0.07794 0.47128 1.03502 0.0
H155 H 1.01727 0.4559 1.04502 0.0
H156 H 0.88798 0.31633 1.00858 0.0
H157 H 0.88239 0.25224 1.00871 0.0
H158 H 0.76983 0.26262 0.99849 0.0
H159 H 0.77557 0.32647 0.99878 0.0
Ho160 Ho 0.65625 0.94083 1.02199 0.0
Ho161 Ho 0.69868 0.88523 1.00295 0.0
C162 C 0.71347 0.90394 1.0592 0.0
C163 C 0.60569 0.97163 1.04462 0.0
C164 C 0.56715 0.97201 1.04255 0.0
C165 C 0.54873 0.94295 1.03313 0.0
C166 C 0.5121 0.94084 1.03554 0.0
C167 C 0.49347 0.96783 1.04731 0.0
C168 C 0.51195 0.99824 1.05469 0.0
C169 C 0.54846 1.00021 1.05238 0.0
C170 C 0.72119 0.96476 1.00961 0.0
C171 C 0.66426 0.94381 0.9658 0.0
C172 C 0.7368 0.83745 0.98216 0.0
C173 C 0.74459 0.80011 0.98738 0.0
C174 C 0.77889 0.7873 0.98417 0.0
C175 C 0.78714 0.75234 0.98975 0.0
C176 C 0.76117 0.72928 0.99859 0.0
C177 C 0.72674 0.74228 1.00181 0.0
C178 C 0.71856 0.77735 0.99634 0.0
C179 C 0.63418 0.86173 1.01881 0.0
O180 O 0.68536 0.92472 1.0568 0.0
O181 O 0.72525 0.88668 1.04004 0.0
O182 O 0.61941 0.94154 1.05118 0.0
O183 O 0.6233 0.98686 1.02747 0.0
O184 O 0.69308 0.98427 1.00953 0.0
O185 O 0.71361 0.93554 1.01866 0.0
O186 O 0.69087 0.92154 0.96983 0.0
O187 O 0.64204 0.95062 0.98337 0.0
O188 O 0.74949 0.86033 0.99736 0.0
O189 O 0.70456 0.84496 0.97571 0.0
O190 O 0.66435 0.84804 1.02419 0.0
O191 O 0.63983 0.88908 1.00626 0.0
H192 H 0.56284 0.92102 1.02519 0.0
H193 H 0.49867 0.91724 1.02949 0.0
H194 H 0.49876 1.01937 1.06417 0.0
H195 H 0.56228 0.02286 1.05963 0.0
H196 H 0.79945 0.80449 0.97754 0.0
H197 H 0.8141 0.74359 0.98748 0.0
H198 H 0.70596 0.72529 1.00833 0.0
H199 H 0.69189 0.78664 0.99917 0.0
Ho200 Ho 0.36631 0.41661 0.77117 0.0
Ho201 Ho 0.4215 0.46006 0.75241 0.0
C202 C 0.40353 0.47346 0.80873 0.0
C203 C 0.3341 0.36662 0.79342 0.0
C204 C 0.3307 0.32827 0.79112 0.0
C205 C 0.35788 0.30778 0.78127 0.0
C206 C 0.35707 0.27106 0.78322 0.0
C207 C 0.32898 0.25439 0.79505 0.0
C208 C 0.3004 0.27511 0.80297 0.0
C209 C 0.30134 0.3117 0.80105 0.0
C210 C 0.342 0.48161 0.75911 0.0
C211 C 0.36402 0.42502 0.71509 0.0
C212 C 0.46862 0.49905 0.73194 0.0
C213 C 0.50597 0.50658 0.73756 0.0
C214 C 0.5183 0.54136 0.73651 0.0
C215 C 0.55287 0.54945 0.7434 0.0
C216 C 0.57591 0.52285 0.7514 0.0
C217 C 0.56367 0.48788 0.75205 0.0
C218 C 0.52898 0.47984 0.74533 0.0
C219 C 0.4462 0.39551 0.76748 0.0
O220 O 0.3833 0.44496 0.80619 0.0
O221 O 0.42019 0.48593 0.78962 0.0
O222 O 0.36543 0.37813 0.79939 0.0
O223 O 0.31908 0.38562 0.77681 0.0
O224 O 0.32275 0.45338 0.75851 0.0
O225 O 0.3712 0.47403 0.76829 0.0
O226 O 0.38415 0.45301 0.71978 0.0
O227 O 0.35906 0.40162 0.73224 0.0
O228 O 0.44581 0.51118 0.74732 0.0
O229 O 0.46102 0.46709 0.7249 0.0
O230 O 0.45985 0.42576 0.7727 0.0
O231 O 0.41818 0.401 0.75542 0.0
H232 H 0.38059 0.32029 0.77331 0.0
H233 H 0.37932 0.25593 0.77675 0.0
H234 H 0.27853 0.26346 0.81252 0.0
H235 H 0.28007 0.32714 0.80865 0.0
H236 H 0.501 0.5624 0.73068 0.0
H237 H 0.56161 0.57657 0.7424 0.0
H238 H 0.58064 0.46686 0.75832 0.0
H239 H 0.52005 0.45281 0.74659 0.0
Ho240 Ho 0.88793 0.12051 0.52271 0.0
Ho241 Ho 0.84938 0.17871 0.5045 0.0
C242 C 0.83374 0.16005 0.56054 0.0
C243 C 0.92756 0.08039 0.54829 0.0
C244 C 0.91921 0.05991 0.56999 0.0
C245 C 0.9086 0.07673 0.59123 0.0
C246 C 0.89854 0.05696 0.6111 0.0
C247 C 0.89868 1.01991 0.61018 0.0
C248 C 0.90878 1.00314 0.58877 0.0
C249 C 0.91909 0.02295 0.56894 0.0
C250 C 0.82161 0.10175 0.50893 0.0
C251 C 0.88343 0.1203 0.46671 0.0
C252 C 0.81269 0.22765 0.48388 0.0
C253 C 0.80391 0.26427 0.49053 0.0
C254 C 0.76941 0.27661 0.48724 0.0
C255 C 0.7601 0.31063 0.49456 0.0
C256 C 0.7852 0.33305 0.50524 0.0
C257 C 0.81989 0.32075 0.5083 0.0
C258 C 0.82912 0.28661 0.50115 0.0
C259 C 0.91423 0.19994 0.52105 0.0
O260 O 0.85934 0.1366 0.55738 0.0
O261 O 0.82405 0.17994 0.54203 0.0
O262 O 0.91181 0.06964 0.52878 0.0
O263 O 0.92765 0.1148 0.55033 0.0
O264 O 0.84876 0.08123 0.50711 0.0
O265 O 0.83096 0.12946 0.51935 0.0
O266 O 0.85744 0.14331 0.47074 0.0
O267 O 0.90458 0.11195 0.48459 0.0
O268 O 0.79884 0.20327 0.4973 0.0
O269 O 0.8456 0.22109 0.47876 0.0
O270 O 0.88432 0.21441 0.52608 0.0
O271 O 0.90817 0.17226 0.50859 0.0
H272 H 0.90802 0.1052 0.5926 0.0
H273 H 0.89167 0.07082 0.62741 0.0
H274 H 0.90894 0.97468 0.58737 0.0
H275 H 0.92671 1.00934 0.55267 0.0
H276 H 0.74955 0.25978 0.47919 0.0
H277 H 0.73327 0.31949 0.4917 0.0
H278 H 0.83971 0.33726 0.51667 0.0
H279 H 0.85586 0.27761 0.50416 0.0
Ho280 Ho 0.18548 0.64679 0.2721 0.0
Ho281 Ho 0.12704 0.60904 0.25346 0.0
C282 C 0.14547 0.59223 0.30939 0.0
C283 C 0.2262 0.68563 0.29807 0.0
C284 C 0.24603 0.67557 0.31956 0.0
C285 C 0.24864 0.63984 0.3259 0.0
C286 C 0.26458 0.63004 0.34744 0.0
C287 C 0.27884 0.65581 0.36264 0.0
C288 C 0.27752 0.69146 0.35575 0.0
C289 C 0.261 0.7013 0.33439 0.0
C290 C 0.2041 0.58072 0.25794 0.0
C291 C 0.18586 0.64271 0.21605 0.0
C292 C 0.07711 0.57353 0.23274 0.0
C293 C 0.0403 0.5653 0.23937 0.0
C294 C 0.02802 0.53057 0.23729 0.0
C295 C 0.99387 0.52182 0.24455 0.0
C296 C 0.97116 0.54767 0.25397 0.0
C297 C 0.98335 0.58258 0.25578 0.0
C298 C 1.01765 0.59128 0.24869 0.0
C299 C 0.10642 0.67393 0.27031 0.0
O300 O 0.16867 0.6181 0.30657 0.0
O301 O 0.12587 0.58269 0.29065 0.0
O302 O 0.23653 0.67027 0.27837 0.0
O303 O 0.19189 0.68544 0.30039 0.0
O304 O 0.22456 0.60788 0.25635 0.0
O305 O 0.17632 0.58985 0.26833 0.0
O306 O 0.16253 0.61696 0.21984 0.0
O307 O 0.19429 0.66368 0.23406 0.0
O308 O 0.10146 0.55905 0.246 0.0
O309 O 0.08429 0.60632 0.22773 0.0
O310 O 0.09182 0.64408 0.27522 0.0
O311 O 0.134 0.66775 0.25791 0.0
H312 H 0.23762 0.61956 0.31443 0.0
H313 H 0.26534 0.60246 0.35239 0.0
H314 H 0.28799 0.71185 0.36738 0.0
H315 H 0.25921 0.72894 0.32974 0.0
H316 H 0.04502 0.5101 0.23022 0.0
H317 H 0.98514 0.49478 0.24263 0.0
H318 H 0.96662 0.60302 0.26314 0.0
H319 H 0.02652 0.61825 0.25076 0.0
Ho320 Ho 0.848 0.68002 0.79146 0.0
Ho321 Ho 0.89051 0.62442 0.77234 0.0
C322 C 0.88207 0.62125 0.82854 0.0
C323 C 0.80961 0.72789 0.81182 0.0
C324 C 0.8015 0.7648 0.80555 0.0
C325 C 0.76679 0.77715 0.80749 0.0
C326 C 0.75815 0.81132 0.80018 0.0
C327 C 0.78412 0.83388 0.79083 0.0
C328 C 0.819 0.8216 0.78922 0.0
C329 C 0.82758 0.78733 0.79638 0.0
C330 C 0.91281 0.70332 0.77605 0.0
C331 C 0.83362 0.66175 0.73506 0.0
C332 C 0.94184 0.59429 0.75022 0.0
C333 C 0.98035 0.59371 0.75334 0.0
C334 C 0.99945 0.62485 0.75777 0.0
C335 C 0.03626 0.62473 0.75661 0.0
C336 C 0.05443 0.59343 0.75128 0.0
C337 C 0.03526 0.5618 0.74913 0.0
C338 C 0.99852 0.56201 0.75003 0.0
C339 C 0.82534 0.60084 0.78441 0.0
O340 O 0.85555 0.64363 0.82453 0.0
O341 O 0.90433 0.61444 0.811 0.0
O342 O 0.79688 0.7041 0.7973 0.0
O343 O 0.84202 0.721 0.8182 0.0
O344 O 0.8828 0.71729 0.77055 0.0
O345 O 0.9068 0.6759 0.78842 0.0
O346 O 0.86155 0.64072 0.73748 0.0
O347 O 0.8219 0.67907 0.75422 0.0
O348 O 0.92825 0.62445 0.74367 0.0
O349 O 0.92324 0.5783 0.76657 0.0
O350 O 0.85328 0.58107 0.78454 0.0
O351 O 0.83328 0.62995 0.77541 0.0
H352 H 0.74625 0.76019 0.81441 0.0
H353 H 0.73113 0.82014 0.80193 0.0
H354 H 0.83952 0.8382 0.78191 0.0
H355 H 0.85453 0.77834 0.79442 0.0
H356 H 0.98596 0.64961 0.76084 0.0
H357 H 0.05035 0.64943 0.75838 0.0
H358 H 0.04838 0.5373 0.74465 0.0
H359 H 0.98426 0.53771 0.7468 0.0
Ho360 Ho 0.1257 0.10692 1.04166 0.0
Ho361 Ho 0.18243 0.14716 1.02336 0.0
C362 C 0.18332 0.14137 1.0793 0.0
C363 C 0.07683 0.06996 1.06207 0.0
C364 C 0.03962 0.06243 1.05593 0.0
C365 C 0.0271 0.02775 1.05738 0.0
C366 C 0.99267 1.01956 1.05024 0.0
C367 C 0.96993 0.04595 1.04156 0.0
C368 C 0.98234 0.08083 1.04047 0.0
C369 C 1.01692 0.08897 1.04744 0.0
C370 C 0.10296 0.17169 1.02568 0.0
C371 C 0.14388 0.09187 0.98565 0.0
C372 C 0.22144 0.18796 0.99802 0.0
C373 C 0.24101 0.18036 0.97576 0.0
C374 C 0.22318 0.17142 0.9545 0.0
C375 C 0.24198 0.16164 0.9341 0.0
C376 C 0.27903 0.16043 0.93448 0.0
C377 C 0.29682 0.16907 0.95585 0.0
C378 C 0.278 0.17908 0.97622 0.0
C379 C 0.20362 0.08155 1.03676 0.0
O380 O 0.16235 0.11394 1.07474 0.0
O381 O 0.18945 0.16401 1.06189 0.0
O382 O 0.10021 0.05657 1.04761 0.0
O383 O 0.08455 0.10223 1.06831 0.0
O384 O 0.08894 0.14159 1.02051 0.0
O385 O 0.13073 0.16593 1.03799 0.0
O386 O 0.16462 0.11987 0.98826 0.0
O387 O 0.12669 0.08003 1.00472 0.0
O388 O 0.23297 0.17158 1.01701 0.0
O389 O 0.18696 0.18803 0.9966 0.0
O390 O 0.22323 0.10935 1.03847 0.0
O391 O 0.17547 0.08985 1.02645 0.0
H392 H 0.04414 1.00686 1.06379 0.0
H393 H 0.98379 0.99252 1.0516 0.0
H394 H 0.96559 0.10169 1.03369 0.0
H395 H 0.02599 0.11592 1.04587 0.0
H396 H 0.19467 0.17187 0.95353 0.0
H397 H 0.22739 0.15597 0.91783 0.0
H398 H 0.32532 0.16821 0.95682 0.0
H399 H 0.29237 0.18544 0.99247 0.0
Ho400 Ho 0.70105 0.38516 0.29144 0.0
Ho401 Ho 0.65824 0.44007 0.27197 0.0
C402 C 0.66578 0.44365 0.32823 0.0
C403 C 0.73983 0.33821 0.31256 0.0
C404 C 0.74828 0.30134 0.30657 0.0
C405 C 0.76114 0.27859 0.32426 0.0
C406 C 0.76895 0.24346 0.31869 0.0
C407 C 0.76407 0.2304 0.29526 0.0
C408 C 0.7508 0.25334 0.27763 0.0
C409 C 0.74292 0.28843 0.28325 0.0
C410 C 0.6368 0.36015 0.2759 0.0
C411 C 0.71514 0.40258 0.235 0.0
C412 C 0.60827 0.47167 0.24904 0.0
C413 C 0.56987 0.4743 0.25135 0.0
C414 C 0.5503 0.44725 0.2621 0.0
C415 C 0.51351 0.44706 0.26042 0.0
C416 C 0.49586 0.47407 0.24804 0.0
C417 C 0.51566 0.50256 0.23909 0.0
C418 C 0.55233 0.50258 0.24069 0.0
C419 C 0.72325 0.46418 0.2846 0.0
O420 O 0.69267 0.42168 0.32441 0.0
O421 O 0.64359 0.45003 0.31049 0.0
O422 O 0.75231 0.36201 0.29807 0.0
O423 O 0.7071 0.34437 0.31827 0.0
O424 O 0.6672 0.34668 0.27089 0.0
O425 O 0.64202 0.38839 0.28781 0.0
O426 O 0.68695 0.42322 0.23728 0.0
O427 O 0.72719 0.38578 0.25427 0.0
O428 O 0.62025 0.44049 0.24327 0.0
O429 O 0.62706 0.48706 0.26567 0.0
O430 O 0.69505 0.4835 0.28497 0.0
O431 O 0.71562 0.43507 0.27533 0.0
H432 H 0.7651 0.28799 0.34241 0.0
H433 H 0.77857 0.22645 0.33282 0.0
H434 H 0.7471 0.24442 0.25936 0.0
H435 H 0.73282 0.30556 0.26933 0.0
H436 H 0.56359 0.4254 0.27062 0.0
H437 H 0.49908 0.42488 0.26762 0.0
H438 H 0.50318 0.52356 0.22907 0.0
H439 H 0.56707 0.52371 0.23238 0.0
Ho440 Ho 0.4195 0.95884 0.54157 0.0
Ho441 Ho 0.36432 0.91547 0.5225 0.0
C442 C 0.36092 0.92414 0.57863 0.0
C443 C 0.46578 0.9987 0.56245 0.0
C444 C 0.5029 1.00707 0.55708 0.0
C445 C 0.51531 0.0415 0.56045 0.0
C446 C 0.54997 0.05028 0.55442 0.0
C447 C 0.57304 0.02474 0.54493 0.0
C448 C 0.56046 0.99017 0.54164 0.0
C449 C 0.52574 0.98145 0.54759 0.0
C450 C 0.44465 0.89459 0.52637 0.0
C451 C 0.40084 0.97239 0.48507 0.0
C452 C 0.33543 0.86367 0.49988 0.0
C453 C 0.33489 0.82488 0.50248 0.0
C454 C 0.3614 0.80433 0.49186 0.0
C455 C 0.35864 0.76776 0.49127 0.0
C456 C 0.32922 0.75066 0.50123 0.0
C457 C 0.30417 0.77109 0.51362 0.0
C458 C 0.30683 0.80787 0.51407 0.0
C459 C 0.34006 0.98031 0.53482 0.0
O460 O 0.38316 0.95073 0.57462 0.0
O461 O 0.35407 0.90181 0.56106 0.0
O462 O 0.44263 1.01049 0.54712 0.0
O463 O 0.45907 0.96643 0.5691 0.0
O464 O 0.45836 0.92493 0.52168 0.0
O465 O 0.41644 0.89986 0.53821 0.0
O466 O 0.37815 0.94598 0.48805 0.0
O467 O 0.42019 0.98294 0.50371 0.0
O468 O 0.36562 0.87762 0.49378 0.0
O469 O 0.31876 0.88231 0.51601 0.0
O470 O 0.32064 0.95211 0.53514 0.0
O471 O 0.36919 0.97273 0.52562 0.0
H472 H 0.49802 0.06174 0.56749 0.0
H473 H 0.55848 0.0773 0.55681 0.0
H474 H 0.57752 0.96972 0.53466 0.0
H475 H 0.51676 0.95469 0.54467 0.0
H476 H 0.38351 0.8165 0.48285 0.0
H477 H 0.37829 0.7533 0.48123 0.0
H478 H 0.28144 0.75882 0.52179 0.0
H479 H 0.28613 0.82298 0.5226 0.0
Ho480 Ho 0.15859 0.44107 0.52065 0.0
Ho481 Ho 0.1995 0.38432 0.50282 0.0
C482 C 0.2145 0.40374 0.55873 0.0
C483 C 0.117 0.47765 0.54706 0.0
C484 C 0.12513 0.49491 0.57 0.0
C485 C 0.10068 0.49362 0.58866 0.0
C486 C 0.10999 0.50567 0.61145 0.0
C487 C 0.14393 0.51924 0.61591 0.0
C488 C 0.16809 0.52145 0.59704 0.0
C489 C 0.15889 0.50905 0.57429 0.0
C490 C 0.22386 0.46278 0.50736 0.0
C491 C 0.16438 0.44144 0.46483 0.0
C492 C 0.23692 0.33577 0.48237 0.0
C493 C 0.24445 0.29865 0.48856 0.0
C494 C 0.27922 0.2862 0.4876 0.0
C495 C 0.28725 0.25182 0.49479 0.0
C496 C 0.26062 0.22909 0.503 0.0
C497 C 0.22568 0.24145 0.50363 0.0
C498 C 0.21769 0.27596 0.49663 0.0
C499 C 0.13513 0.36114 0.51891 0.0
O500 O 0.18806 0.42623 0.55542 0.0
O501 O 0.22499 0.38416 0.54029 0.0
O502 O 0.13279 0.49059 0.52827 0.0
O503 O 0.11782 0.44319 0.54763 0.0
O504 O 0.1958 0.48209 0.50538 0.0
O505 O 0.21596 0.4346 0.51771 0.0
O506 O 0.19185 0.42051 0.46955 0.0
O507 O 0.1418 0.44813 0.4822 0.0
O508 O 0.25016 0.35934 0.49686 0.0
O509 O 0.20464 0.34329 0.47602 0.0
O510 O 0.1654 0.34759 0.52411 0.0
O511 O 0.14051 0.38869 0.50637 0.0
H512 H 0.07472 0.48245 0.58577 0.0
H513 H 0.09066 0.50425 0.62565 0.0
H514 H 0.19439 0.53169 0.60007 0.0
H515 H 0.17851 0.50961 0.56024 0.0
H516 H 0.30027 0.30324 0.48154 0.0
H517 H 0.31436 0.24296 0.49381 0.0
H518 H 0.20464 0.22471 0.51007 0.0
H519 H 0.19066 0.28497 0.49784 0.0
Ho520 Ho 0.86619 0.91626 0.27236 0.0
Ho521 Ho 0.92089 0.95958 0.25259 0.0
C522 C 0.90346 0.97396 0.3091 0.0
C523 C 0.83563 0.86594 0.29533 0.0
C524 C 0.83381 0.82746 0.29324 0.0
C525 C 0.86185 0.80807 0.28348 0.0
C526 C 0.86253 0.77135 0.28544 0.0
C527 C 0.83506 0.75357 0.29717 0.0
C528 C 0.80567 0.77312 0.30508 0.0
C529 C 0.80513 0.80972 0.30316 0.0
C530 C 0.8415 0.98106 0.26015 0.0
C531 C 0.86181 0.92437 0.21609 0.0
C532 C 0.96721 0.99863 0.23137 0.0
C533 C 1.00461 1.00639 0.23639 0.0
C534 C 1.01752 0.04053 0.23276 0.0
C535 C 0.05238 0.04889 0.2387 0.0
C536 C 0.07512 0.02321 0.24837 0.0
C537 C 0.06207 0.9889 0.25186 0.0
C538 C 0.02715 0.9806 0.246 0.0
C539 C 0.94633 0.89561 0.26806 0.0
O540 O 0.88324 0.94543 0.30695 0.0
O541 O 0.91985 0.98611 0.28974 0.0
O542 O 0.8665 0.87872 0.30116 0.0
O543 O 0.81991 0.88408 0.27857 0.0
O544 O 0.82205 0.95294 0.26046 0.0
O545 O 0.87099 0.97353 0.26886 0.0
O546 O 0.88378 0.95126 0.21993 0.0
O547 O 0.85567 0.90206 0.23372 0.0
O548 O 0.94481 1.01076 0.24701 0.0
O549 O 0.95972 0.9665 0.22467 0.0
O550 O 0.9598 0.92607 0.27288 0.0
O551 O 0.91795 0.90058 0.25623 0.0
H552 H 0.88405 0.82148 0.27555 0.0
H553 H 0.8854 0.75713 0.27901 0.0
H554 H 0.78425 0.76057 0.31458 0.0
H555 H 0.78322 0.8243 0.3107 0.0
H556 H 1.00046 0.0609 0.22565 0.0
H557 H 0.06127 0.07573 0.23615 0.0
H558 H 0.07888 0.96836 0.259 0.0
H559 H 1.01775 0.95407 0.24912 0.0
Ho560 Ho 0.38831 0.61993 1.02254 0.0
Ho561 Ho 0.35136 0.67889 1.00388 0.0
C562 C 0.33445 0.66107 1.05975 0.0
C563 C 0.42668 0.5786 1.04815 0.0
C564 C 0.418 0.55864 1.07001 0.0
C565 C 0.40845 0.57604 1.09128 0.0
C566 C 0.39822 0.55682 1.11135 0.0
C567 C 0.39714 0.51978 1.11063 0.0
C568 C 0.40614 0.50245 1.0892 0.0
C569 C 0.41662 0.5217 1.06915 0.0
C570 C 0.3217 0.60254 1.00852 0.0
C571 C 0.38459 0.61968 0.96646 0.0
C572 C 0.31688 0.72903 0.98267 0.0
C573 C 0.30736 0.76528 0.98948 0.0
C574 C 0.29739 0.78942 0.97179 0.0
C575 C 0.28816 0.82391 0.97805 0.0
C576 C 0.28864 0.83491 1.00217 0.0
C577 C 0.29918 0.81064 1.01982 0.0
C578 C 0.30852 0.77616 1.01352 0.0
C579 C 0.4167 0.69762 1.02105 0.0
O580 O 0.3613 0.63882 1.05734 0.0
O581 O 0.32389 0.67917 1.04063 0.0
O582 O 0.41021 0.56824 1.02883 0.0
O583 O 0.42806 0.613 1.05002 0.0
O584 O 0.34842 0.58147 1.00695 0.0
O585 O 0.33156 0.63016 1.01884 0.0
O586 O 0.35905 0.64325 0.97025 0.0
O587 O 0.40535 0.61102 0.9845 0.0
O588 O 0.30184 0.70397 0.99487 0.0
O589 O 0.35038 0.72318 0.97945 0.0
O590 O 0.38726 0.71282 1.02647 0.0
O591 O 0.40974 0.67078 1.00807 0.0
H592 H 0.40894 0.60451 1.09251 0.0
H593 H 0.39225 0.57107 1.12767 0.0
H594 H 0.40538 0.47398 1.08796 0.0
H595 H 0.42341 0.50768 1.05288 0.0
H596 H 0.29669 0.78157 0.95312 0.0
H597 H 0.28081 0.84203 0.96394 0.0
H598 H 0.29952 0.81802 1.03856 0.0
H599 H 0.31639 0.7579 1.02743 0.0
Ho600 Ho 0.68168 0.14721 0.77231 0.0
Ho601 Ho 0.62527 0.10647 0.75287 0.0
C602 C 0.64241 0.09108 0.80902 0.0
C603 C 0.71693 0.18804 0.80014 0.0
C604 C 0.73071 0.17918 0.82397 0.0
C605 C 0.73003 0.20433 0.84231 0.0
C606 C 0.73861 0.19466 0.86571 0.0
C607 C 0.74793 0.15964 0.87113 0.0
C608 C 0.74925 0.13461 0.85265 0.0
C609 C 0.74044 0.14425 0.82927 0.0
C610 C 0.70337 0.08189 0.75897 0.0
C611 C 0.68393 0.14171 0.71627 0.0
C612 C 0.57725 0.06943 0.73124 0.0
C613 C 0.54051 0.06093 0.73746 0.0
C614 C 0.52842 0.06518 0.76104 0.0
C615 C 0.49356 0.05692 0.76693 0.0
C616 C 0.47002 0.04439 0.74932 0.0
C617 C 0.48223 0.04075 0.72562 0.0
C618 C 0.51715 0.04891 0.71978 0.0
C619 C 0.60237 0.17115 0.76889 0.0
O620 O 0.66327 0.11901 0.80676 0.0
O621 O 0.62532 0.07943 0.78972 0.0
O622 O 0.73131 0.17123 0.78219 0.0
O623 O 0.68251 0.18901 0.79873 0.0
O624 O 0.72309 0.10971 0.75769 0.0
O625 O 0.67482 0.09005 0.76877 0.0
O626 O 0.66243 0.11451 0.7203 0.0
O627 O 0.69052 0.16392 0.73401 0.0
O628 O 0.60141 0.05589 0.74511 0.0
O629 O 0.58354 0.1024 0.72635 0.0
O630 O 0.58811 0.14107 0.77372 0.0
O631 O 0.63029 0.16533 0.75684 0.0
H632 H 0.72211 0.23121 0.83862 0.0
H633 H 0.73798 0.21462 0.87961 0.0
H634 H 0.75625 0.1075 0.85638 0.0
H635 H 0.74035 0.12415 0.81544 0.0
H636 H 0.54605 0.07462 0.77495 0.0
H637 H 0.48531 0.05967 0.78538 0.0
H638 H 0.46474 0.03176 0.71151 0.0
H639 H 0.52591 0.04581 0.70145 0.0
H640 H 0.48501 0.18128 0.28495 0.0
H641 H 0.42117 0.27106 0.26613 0.0
H642 H 0.53764 0.21945 0.28556 0.0
H643 H 0.47302 0.30888 0.26718 0.0
H644 H 0.56968 0.3745 0.29431 0.0
H645 H 0.51739 0.3362 0.29429 0.0
H646 H 0.57694 0.25465 0.25888 0.0
H647 H 0.62848 0.2932 0.25816 0.0
C648 C 0.48204 0.20904 0.28098 0.0
C649 C 0.44839 0.22265 0.27544 0.0
C650 C 0.51236 0.2311 0.28127 0.0
C651 C 0.51007 0.26775 0.27654 0.0
C652 C 0.47631 0.28118 0.27123 0.0
C653 C 0.44633 0.25915 0.27048 0.0
C654 C 0.5715 0.34871 0.2861 0.0
C655 C 0.6036 0.3376 0.27587 0.0
C656 C 0.54141 0.32644 0.28622 0.0
C657 C 0.54244 0.29181 0.27664 0.0
C658 C 0.57472 0.2807 0.2667 0.0
C659 C 0.60446 0.30315 0.26615 0.0
H660 H 0.53569 0.68021 0.50991 0.0
H661 H 0.6214 0.74119 0.53929 0.0
H662 H 0.49748 0.73179 0.51111 0.0
H663 H 0.58293 0.7934 0.54041 0.0
H664 H 0.5149 0.88863 0.51603 0.0
H665 H 0.55287 0.8369 0.51607 0.0
H666 H 0.46444 0.77222 0.53633 0.0
H667 H 0.42613 0.82465 0.53638 0.0
C668 C 0.54662 0.70469 0.51662 0.0
C669 C 0.58211 0.70605 0.52444 0.0
C670 C 0.52432 0.73451 0.51749 0.0
C671 C 0.5365 0.76739 0.52595 0.0
C672 C 0.5722 0.76892 0.53356 0.0
C673 C 0.59449 0.73881 0.53298 0.0
C674 C 0.50328 0.86346 0.52056 0.0
C675 C 0.46704 0.86132 0.52625 0.0
C676 C 0.52541 0.83352 0.52075 0.0
C677 C 0.51235 0.79975 0.52632 0.0
C678 C 0.47589 0.79744 0.53178 0.0
C679 C 0.45373 0.82768 0.53192 0.0
H680 H 0.11047 0.81658 0.74126 0.0
H681 H 0.07886 0.86071 0.809 0.0
H682 H 0.05849 0.77804 0.74134 0.0
H683 H 0.02748 0.82081 0.80961 0.0
H684 H 0.96802 0.70587 0.80911 0.0
H685 H 1.01939 0.74582 0.8094 0.0
H686 H 0.98594 0.78911 0.74184 0.0
H687 H 0.93401 0.75052 0.74209 0.0
C688 C 0.09234 0.81826 0.75616 0.0
C689 C 0.09901 0.84227 0.77499 0.0
C690 C 0.06247 0.79594 0.75625 0.0
C691 C 0.03863 0.79582 0.77557 0.0
C692 C 0.04524 0.81981 0.79448 0.0
C693 C 0.07462 0.843 0.79403 0.0
C694 C 0.97172 0.72371 0.79423 0.0
C695 C 0.94667 0.72457 0.77548 0.0
C696 C 1.0011 0.74692 0.79449 0.0
C697 C 1.00703 0.77107 0.77568 0.0
C698 C 0.98249 0.77108 0.75665 0.0
C699 C 0.95266 0.74875 0.75677 0.0
H700 H 0.12197 0.24098 1.03729 0.0
H701 H 0.03272 0.17872 1.0149 0.0
H702 H 0.08425 0.29382 1.03797 0.0
H703 H 0.99524 0.23091 1.01586 0.0
H704 H 0.92868 0.32718 1.04213 0.0
H705 H 0.96631 0.27434 1.04211 0.0
H706 H 0.05146 0.33497 1.01214 0.0
H707 H 1.01382 0.38712 1.01166 0.0
C708 C 0.0944 0.23842 1.0325 0.0
C709 C 0.08081 0.20515 1.02598 0.0
C710 C 0.07258 0.26889 1.03282 0.0
C711 C 0.03617 0.26718 1.02706 0.0
C712 C 0.02274 0.23377 1.02072 0.0
C713 C 0.04457 0.2036 1.02001 0.0
C714 C 0.95526 0.32918 1.03527 0.0
C715 C 0.9677 0.36178 1.02666 0.0
C716 C 0.97708 0.29873 1.03529 0.0
C717 C 1.01247 0.29984 1.02719 0.0
C718 C 0.0248 0.33261 1.01882 0.0
C719 C 1.00288 0.36273 1.0184 0.0
H720 H 0.57833 0.85842 0.98614 0.0
H721 H 0.61426 0.81409 1.05279 0.0
H722 H 0.52771 0.81754 0.98615 0.0
H723 H 0.56323 0.77446 1.05331 0.0
H724 H 0.44273 0.73993 1.05664 0.0
H725 H 0.49377 0.7796 1.05609 0.0
H726 H 0.51735 0.74644 0.98406 0.0
H727 H 0.46684 0.70549 0.98501 0.0
C728 C 0.57521 0.84045 1.00101 0.0
C729 C 0.60059 0.83999 1.01956 0.0
C730 C 0.54626 0.81666 1.00091 0.0
C731 C 0.54108 0.79226 1.0197 0.0
C732 C 0.56597 0.79266 1.03852 0.0
C733 C 0.59534 0.81561 1.03826 0.0
C734 C 0.45915 0.74049 1.0408 0.0
C735 C 0.45069 0.71874 1.02106 0.0
C736 C 0.48847 0.76351 1.04045 0.0
C737 C 0.50998 0.76673 1.01999 0.0
C738 C 0.5015 0.74506 1.00013 0.0
C739 C 0.47267 0.72116 1.00076 0.0
H740 H 0.53168 0.17836 0.77787 0.0
H741 H 0.62242 0.24064 0.75913 0.0
H742 H 0.49461 0.23087 0.77683 0.0
H743 H 0.58511 0.29382 0.7585 0.0
H744 H 0.51304 0.38633 0.78531 0.0
H745 H 0.55062 0.33405 0.78493 0.0
H746 H 0.46808 0.27544 0.74961 0.0
H747 H 0.43077 0.32846 0.74927 0.0
C748 C 0.54395 0.20331 0.77356 0.0
C749 C 0.58046 0.20476 0.7686 0.0
C750 C 0.52238 0.23366 0.7728 0.0
C751 C 0.53636 0.26715 0.76749 0.0
C752 C 0.57304 0.26879 0.7628 0.0
C753 C 0.59461 0.23814 0.7631 0.0
C754 C 0.50267 0.36236 0.77742 0.0
C755 C 0.46824 0.36198 0.76764 0.0
C756 C 0.52455 0.33218 0.77708 0.0
C757 C 0.51286 0.29993 0.76727 0.0
C758 C 0.47826 0.2994 0.75761 0.0
C759 C 0.45657 0.32992 0.75752 0.0
H760 H 0.12934 0.29153 0.5312 0.0
H761 H 0.06549 0.37807 0.50641 0.0
H762 H 0.078 0.25298 0.53086 0.0
H763 H 1.01346 0.33924 0.5063 0.0
H764 H 0.92135 0.26927 0.5339 0.0
H765 H 0.97276 0.30756 0.53247 0.0
H766 H 0.0353 0.22116 0.50579 0.0
H767 H 0.98313 0.18253 0.50698 0.0
C768 C 0.10428 0.30256 0.52567 0.0
C769 C 0.10206 0.33839 0.51887 0.0
C770 C 0.0746 0.28008 0.52531 0.0
C771 C 0.04098 0.2924 0.51849 0.0
C772 C 0.03858 0.3284 0.51185 0.0
C773 C 0.06858 0.35088 0.51185 0.0
C774 C 0.94597 0.25812 0.52768 0.0
C775 C 0.94756 0.22231 0.5206 0.0
C776 C 0.9757 0.28047 0.52668 0.0
C777 C 1.00878 0.26807 0.5189 0.0
C778 C 1.01061 0.23206 0.51205 0.0
C779 C 0.98053 0.2097 0.51269 0.0
H780 H 0.12559 0.74378 0.26014 0.0
H781 H 0.03565 0.68036 0.27897 0.0
H782 H 0.0874 0.79639 0.25918 0.0
H783 H 0.99783 0.73216 0.27755 0.0
H784 H 0.9323 0.82823 0.24968 0.0
H785 H 0.9707 0.77599 0.25006 0.0
H786 H 0.05189 0.8362 0.28556 0.0
H787 H 1.01323 0.88767 0.28596 0.0
C788 C 0.0978 0.74089 0.26405 0.0
C789 C 0.08416 0.70735 0.2697 0.0
C790 C 0.07572 0.7712 0.26356 0.0
C791 C 0.03902 0.76901 0.26816 0.0
C792 C 0.02557 0.73537 0.27359 0.0
C793 C 0.04761 0.70541 0.27456 0.0
C794 C 0.95801 0.8302 0.258 0.0
C795 C 0.96897 0.86245 0.2682 0.0
C796 C 0.98036 0.80014 0.25809 0.0
C797 C 1.01492 0.80136 0.26781 0.0
C798 C 0.0259 0.83381 0.27766 0.0
C799 C 1.00338 0.86351 0.27802 0.0
H800 H 0.35154 0.02564 0.15216 0.0
H801 H 0.43918 0.95922 0.17243 0.0
H802 H 0.35272 1.00039 1.11188 0.0
H803 H 0.44026 0.93417 1.13289 0.0
H804 H 0.46626 0.90699 1.06595 0.0
H805 H 0.42197 0.90547 1.09712 0.0
H806 H 0.39616 1.01426 1.0826 0.0
H807 H 0.4387 1.01497 1.05041 0.0
C808 C 0.37047 1.00507 1.14822 0.0
C809 C 0.39599 0.99524 0.1653 0.0
C810 C 0.37096 0.99042 1.1252 0.0
C811 C 0.39704 0.96579 1.11886 0.0
C812 C 0.41955 0.95288 1.13693 0.0
C813 C 0.4191 0.9675 0.15982 0.0
C814 C 0.4497 0.92996 1.06836 0.0
C815 C 0.45734 0.96182 1.05665 0.0
C816 C 0.42441 0.92915 1.08647 0.0
C817 C 0.40719 0.96036 1.0934 0.0
C818 C 0.40959 0.98989 1.07829 0.0
C819 C 0.43439 0.99049 1.0599 0.0
H820 H 0.77349 0.60965 0.39934 0.0
H821 H 0.84425 0.69321 0.42089 0.0
H822 H 0.79808 0.61132 0.35897 0.0
H823 H 0.86863 0.69477 0.38128 0.0
H824 H 0.89513 0.72289 0.31475 0.0
H825 H 0.89557 0.677 0.34487 0.0
H826 H 0.78532 0.65677 0.33084 0.0
H827 H 0.78557 0.70094 0.29968 0.0
C828 C 0.79487 0.62774 0.39565 0.0
C829 C 0.80613 0.65209 0.41313 0.0
C830 C 0.80912 0.6285 0.37258 0.0
C831 C 0.83478 0.6537 0.3666 0.0
C832 C 0.84907 0.67478 0.38502 0.0
C833 C 0.83484 0.67406 0.40796 0.0
C834 C 0.87151 0.70725 0.31701 0.0
C835 C 0.83968 0.71686 0.3058 0.0
C836 C 0.87172 0.68103 0.33451 0.0
C837 C 0.83997 0.66484 0.34134 0.0
C838 C 0.81014 0.66932 0.3266 0.0
C839 C 0.8101 0.69507 0.30882 0.0
H840 H 0.96356 0.91219 0.73156 0.0
H841 H 0.94039 1.02162 0.74598 0.0
H842 H 0.91762 0.91093 0.7013 0.0
H843 H 0.89622 1.02108 0.71464 0.0
H844 H 0.84966 0.03188 0.64563 0.0
H845 H 0.85126 1.00788 0.68618 0.0
H846 H 0.93516 0.93737 0.66485 0.0
H847 H 0.93367 0.96118 0.62507 0.0
C848 C 0.94765 0.93561 0.72913 0.0
C849 C 0.95695 0.96765 0.74018 0.0
C850 C 0.9214 0.93494 0.71154 0.0
C851 C 0.90491 0.96644 0.70443 0.0
C852 C 0.90904 0.99644 0.71906 0.0
C853 C 0.93479 0.99693 0.73695 0.0
C854 C 0.86784 1.01065 0.64957 0.0
C855 C 0.89233 0.99924 0.63232 0.0
C856 C 0.86856 0.99672 0.67275 0.0
C857 C 0.89386 0.97126 0.67905 0.0
C858 C 0.9151 0.9568 0.66086 0.0
C859 C 0.91441 0.9707 0.63782 0.0
H860 H 0.86951 0.21691 0.97336 0.0
H861 H 0.77561 0.20303 1.01581 0.0
H862 H 0.85094 0.17038 0.94697 0.0
H863 H 0.757 0.15525 0.98932 0.0
H864 H 0.71132 0.1753 0.91145 0.0
H865 H 0.73356 0.17438 0.95204 0.0
H866 H 0.8272 0.11977 0.928 0.0
H867 H 0.80499 0.12197 0.88689 0.0
C868 C 0.84582 0.20255 0.97793 0.0
C869 C 0.82311 0.21483 0.99595 0.0
C870 C 0.83505 0.17548 0.96267 0.0
C871 C 0.8014 0.16038 0.96522 0.0
C872 C 0.78236 0.16753 0.98627 0.0
C873 C 0.79301 0.19489 1.00147 0.0
C874 C 0.73627 0.16236 0.91496 0.0
C875 C 0.75709 0.15 0.89602 0.0
C876 C 0.7489 0.1612 0.93837 0.0
C877 C 0.78278 0.14781 0.94332 0.0
C878 C 0.80139 0.131 0.92473 0.0
C879 C 0.78868 0.13223 0.9012 0.0
H880 H 0.38805 0.22147 0.81234 0.0
H881 H 0.27745 0.20378 0.7982 0.0
H882 H 0.38714 0.17596 0.84269 0.0
H883 H 0.27593 0.16007 0.82965 0.0
H884 H 0.26423 0.11287 0.89846 0.0
H885 H 0.2875 0.11417 0.85772 0.0
H886 H 0.36157 0.19494 0.8793 0.0
H887 H 0.33849 0.19374 0.91931 0.0
C888 C 0.36385 0.20684 0.81486 0.0
C889 C 0.33225 0.2176 0.80383 0.0
C890 C 0.36329 0.18085 0.83251 0.0
C891 C 0.33104 0.16602 0.83967 0.0
C892 C 0.30116 0.17157 0.82515 0.0
C893 C 0.30187 0.19707 0.8072 0.0
C894 C 0.28606 0.13029 0.89452 0.0
C895 C 0.29879 0.15398 0.91196 0.0
C896 C 0.29954 0.13083 0.87123 0.0
C897 C 0.32592 0.15514 0.86499 0.0
C898 C 0.34146 0.1756 0.88327 0.0
C899 C 0.32799 0.1751 0.90642 0.0
H900 H 0.37542 0.69498 0.49538 0.0
H901 H 0.26503 0.72224 0.48985 0.0
H902 H 0.36661 0.64827 0.46586 0.0
H903 H 0.25626 0.67534 0.46144 0.0
H904 H 0.24526 0.61798 0.39709 0.0
H905 H 0.25977 0.61784 0.43984 0.0
H906 H 0.35673 0.67309 0.42461 0.0
H907 H 0.34209 0.67324 0.38224 0.0
C908 C 0.349 0.69009 0.48875 0.0
C909 C 0.32139 0.7137 0.49394 0.0
C910 C 0.34394 0.6631 0.472 0.0
C911 C 0.3111 0.65917 0.4606 0.0
C912 C 0.28207 0.67794 0.46961 0.0
C913 C 0.28719 0.70516 0.48606 0.0
C914 C 0.27034 0.62873 0.40289 0.0
C915 C 0.29225 0.64642 0.38663 0.0
C916 C 0.27867 0.62856 0.42731 0.0
C917 C 0.30911 0.64587 0.43565 0.0
C918 C 0.33315 0.65934 0.41885 0.0
C919 C 0.32462 0.65989 0.39457 0.0
H920 H 0.17509 0.58136 0.62936 0.0
H921 H 0.13459 0.48367 0.65741 0.0
H922 H 0.17755 0.60578 0.66993 0.0
H923 H 0.13578 0.50787 0.69745 0.0
H924 H 0.10932 0.54865 0.76178 0.0
H925 H 0.15596 0.53417 0.73341 0.0
H926 H 0.12714 0.62498 0.69107 0.0
H927 H 0.08201 0.63981 0.71957 0.0
C928 C 0.16769 0.56481 0.6443 0.0
C929 C 0.15348 0.53112 0.64032 0.0
C930 C 0.16905 0.57876 0.66752 0.0
C931 C 0.15604 0.55924 0.687 0.0
C932 C 0.14609 0.52393 0.6831 0.0
C933 C 0.14475 0.51009 0.66001 0.0
C934 C 0.11433 0.56645 0.74705 0.0
C935 C 0.09111 0.59442 0.74227 0.0
C936 C 0.14094 0.55812 0.73073 0.0
C937 C 0.14389 0.57718 0.70923 0.0
C938 C 0.12533 0.60914 0.70711 0.0
C939 C 0.09913 0.61773 0.72358 0.0
H940 H 0.44399 0.52428 0.24501 0.0
H941 H 0.46363 0.41374 0.23222 0.0
H942 H 0.39856 0.52374 0.21452 0.0
H943 H 0.41654 0.4126 0.20275 0.0
H944 H 0.43089 0.4603 1.12546 0.0
H945 H 0.43319 0.4374 0.16548 0.0
H946 H 0.35182 0.51048 0.18734 0.0
H947 H 0.34943 0.53358 1.14657 0.0
C948 C 0.43736 0.49942 0.23654 0.0
C949 C 0.45878 0.46966 0.23996 0.0
C950 C 0.41089 0.49894 0.21914 0.0
C951 C 0.40534 0.4685 0.20517 0.0
C952 C 0.42134 0.43686 0.21249 0.0
C953 C 0.44825 0.43748 0.22961 0.0
C954 C 0.41231 0.47058 1.13841 0.0
C955 C 0.39081 0.49959 1.13296 0.0
C956 C 0.41345 0.4572 0.16159 0.0
C957 C 0.39328 0.47269 0.17995 0.0
C958 C 0.36834 0.49856 0.17376 0.0
C959 C 0.36717 0.51195 0.15045 0.0
H960 H 0.24411 0.37917 0.31869 0.0
H961 H 0.30552 0.37191 0.25378 0.0
H962 H 0.22525 0.43811 0.30749 0.0
H963 H 0.28708 0.43155 0.24287 0.0
H964 H 0.27105 0.5556 0.24968 0.0
H965 H 0.29244 0.49546 0.25697 0.0
H966 H 0.18685 0.46323 0.27553 0.0
H967 H 0.16568 0.52278 0.26835 0.0
C968 C 0.25345 0.39 0.30195 0.0
C969 C 0.27603 0.37048 0.28703 0.0
C970 C 0.24268 0.42387 0.29556 0.0
C971 C 0.25435 0.4393 0.27415 0.0
C972 C 0.27775 0.42037 0.25951 0.0
C973 C 0.28837 0.38624 0.26582 0.0
C974 C 0.25243 0.53545 0.25495 0.0
C975 C 0.21679 0.54391 0.25869 0.0
C976 C 0.26463 0.50109 0.25911 0.0
C977 C 0.2414 0.47481 0.26722 0.0
C978 C 0.20551 0.48306 0.26978 0.0
C979 C 0.19335 0.51714 0.26551 0.0
H980 H 0.4094 0.58219 0.54602 0.0
H981 H 0.45199 0.48863 0.5128 0.0
H982 H 0.34993 0.56376 0.53465 0.0
H983 H 0.39283 0.47049 0.50106 0.0
H984 H 0.28323 0.42584 0.51653 0.0
H985 H 0.34279 0.44787 0.52138 0.0
H986 H 0.3074 0.5526 0.50279 0.0
H987 H 0.24694 0.53032 0.49853 0.0
C988 C 0.4061 0.55797 0.53596 0.0
C989 C 0.43536 0.5366 0.53063 0.0
C990 C 0.37201 0.54745 0.52935 0.0
C991 C 0.36645 0.51542 0.51714 0.0
C992 C 0.39597 0.49491 0.51092 0.0
C993 C 0.42993 0.50528 0.51766 0.0
C994 C 0.28815 0.45352 0.5132 0.0
C995 C 0.26039 0.47639 0.50725 0.0
C996 C 0.32245 0.46616 0.51584 0.0
C997 C 0.33007 0.50207 0.51248 0.0
C998 C 0.30241 0.52487 0.50579 0.0
C999 C 0.26786 0.51211 0.50315 0.0
H1000 H 0.31605 0.69182 0.81113 0.0
H1001 H 0.2276 0.68393 0.76247 0.0
H1002 H 0.33358 0.63218 0.80085 0.0
H1003 H 0.24623 0.62443 0.75129 0.0
H1004 H 0.27282 0.5039 0.759 0.0
H1005 H 0.25158 0.56405 0.76634 0.0
H1006 H 0.35921 0.60129 0.76788 0.0
H1007 H 0.38012 0.54156 0.76121 0.0
C1008 C 0.30021 0.67735 0.79828 0.0
C1009 C 0.27035 0.69283 0.78768 0.0
C1010 C 0.31059 0.64321 0.7921 0.0
C1011 C 0.2916 0.62354 0.77499 0.0
C1012 C 0.26144 0.63876 0.76457 0.0
C1013 C 0.25098 0.67303 0.7708 0.0
C1014 C 0.29179 0.52512 0.76058 0.0
C1015 C 0.32812 0.51804 0.75976 0.0
C1016 C 0.27967 0.55957 0.76477 0.0
C1017 C 0.30371 0.58747 0.76817 0.0
C1018 C 0.33995 0.58039 0.76602 0.0
C1019 C 0.35196 0.54616 0.76196 0.0
H1020 H 0.11845 0.57005 1.06964 0.0
H1021 H 0.11156 0.50433 1.00646 0.0
H1022 H 0.17771 0.58774 1.05826 0.0
H1023 H 0.17134 0.52171 0.9953 0.0
H1024 H 0.29499 0.53588 1.00146 0.0
H1025 H 0.23445 0.51627 1.00929 0.0
H1026 H 0.20471 0.62334 1.02617 0.0
H1027 H 0.2647 0.64273 1.01848 0.0
C1028 C 0.12943 0.55954 1.05323 0.0
C1029 C 0.11 0.53596 1.0389 0.0
C1030 C 0.16346 0.56965 1.04672 0.0
C1031 C 0.1791 0.55636 1.02576 0.0
C1032 C 0.16008 0.53222 1.01164 0.0
C1033 C 0.12586 0.52222 1.01808 0.0
C1034 C 0.2753 0.5552 1.00647 0.0
C1035 C 0.2846 0.59075 1.00956 0.0
C1036 C 0.24069 0.54401 1.01095 0.0
C1037 C 0.21496 0.56819 1.01873 0.0
C1038 C 0.22407 0.60395 1.0207 0.0
C1039 C 0.25841 0.61509 1.01612 0.0
H1040 H 0.77248 0.50449 1.03786 0.0
H1041 H 0.87921 0.54006 1.02637 0.0
H1042 H 0.75094 0.56461 1.0302 0.0
H1043 H 0.85791 0.59932 1.01869 0.0
H1044 H 0.80544 0.68484 0.9743 0.0
H1045 H 0.82292 0.6252 0.98489 0.0
H1046 H 0.7542 0.62843 1.04631 0.0
H1047 H 0.73717 0.68877 1.03609 0.0
C1048 C 0.7913 0.52517 1.03405 0.0
C1049 C 0.82747 0.51751 1.03249 0.0
C1050 C 0.77902 0.55951 1.02966 0.0
C1051 C 0.80272 0.58652 1.02345 0.0
C1052 C 0.83893 0.57897 1.02295 0.0
C1053 C 0.85114 0.54499 1.0275 0.0
C1054 C 0.79424 0.67312 0.99021 0.0
C1055 C 0.77019 0.69196 1.00447 0.0
C1056 C 0.80419 0.63883 0.99623 0.0
C1057 C 0.79019 0.62225 1.01658 0.0
C1058 C 0.76529 0.64048 1.03046 0.0
C1059 C 0.75551 0.67503 1.02454 0.0
H1060 H 0.63746 0.48814 0.74092 0.0
H1061 H 0.59674 0.57757 0.77997 0.0
H1062 H 0.69747 0.50502 0.7521 0.0
H1063 H 0.65645 0.5941 0.79152 0.0
H1064 H 0.80161 0.53257 0.78912 0.0
H1065 H 0.74084 0.51158 0.78394 0.0
H1066 H 0.70636 0.61874 0.7722 0.0
H1067 H 0.76621 0.63941 0.77801 0.0
C1068 C 0.6413 0.51112 0.75218 0.0
C1069 C 0.61236 0.53178 0.75929 0.0
C1070 C 0.67571 0.52073 0.75868 0.0
C1071 C 0.68193 0.55112 0.77257 0.0
C1072 C 0.65279 0.57098 0.78038 0.0
C1073 C 0.61851 0.56152 0.77375 0.0
C1074 C 0.78083 0.55154 0.78582 0.0
C1075 C 0.78865 0.5876 0.78394 0.0
C1076 C 0.7461 0.53955 0.78264 0.0
C1077 C 0.71859 0.56344 0.77761 0.0
C1078 C 0.72657 0.59957 0.77643 0.0
C1079 C 0.76105 0.61145 0.77963 0.0
H1080 H 0.72628 0.35272 0.52987 0.0
H1081 H 0.82135 0.39474 0.4987 0.0
H1082 H 0.70803 0.41201 0.54123 0.0
H1083 H 0.80285 0.45426 0.50965 0.0
H1084 H 0.77034 0.5567 0.54601 0.0
H1085 H 0.79156 0.49597 0.54168 0.0
H1086 H 0.6867 0.46291 0.52104 0.0
H1087 H 0.66564 0.52282 0.52603 0.0
C1088 C 0.74322 0.37469 0.52537 0.0
C1089 C 0.77508 0.36908 0.51318 0.0
C1090 C 0.73278 0.4087 0.53188 0.0
C1091 C 0.75381 0.43803 0.5262 0.0
C1092 C 0.78619 0.4323 0.51459 0.0
C1093 C 0.79675 0.3982 0.50822 0.0
C1094 C 0.75185 0.53624 0.54093 0.0
C1095 C 0.7164 0.54447 0.53629 0.0
C1096 C 0.76401 0.50154 0.53825 0.0
C1097 C 0.74088 0.47448 0.53093 0.0
C1098 C 0.7052 0.48281 0.52705 0.0
C1099 C 0.69313 0.51729 0.52977 0.0
H1100 H 0.78291 0.42707 0.27655 0.0
H1101 H 0.746 0.53236 0.29176 0.0
H1102 H 0.84238 0.44907 0.27157 0.0
H1103 H 0.80639 0.55465 0.28747 0.0
H1104 H 0.90915 0.58286 0.24552 0.0
H1105 H 0.84951 0.56451 0.25621 0.0
H1106 H 0.8921 0.47279 0.29173 0.0
H1107 H 0.95143 0.4908 0.28061 0.0
C1108 C 0.78766 0.45495 0.27923 0.0
C1109 C 0.75973 0.47801 0.28445 0.0
C1110 C 0.82192 0.4676 0.27653 0.0
C1111 C 0.82939 0.5037 0.27914 0.0
C1112 C 0.80155 0.52675 0.28505 0.0
C1113 C 0.76703 0.514 0.28771 0.0
C1114 C 0.90573 0.55899 0.25584 0.0
C1115 C 0.93499 0.53802 0.26192 0.0
C1116 C 0.87154 0.54852 0.26206 0.0
C1117 C 0.86584 0.51694 0.27464 0.0
C1118 C 0.89533 0.49682 0.28155 0.0
C1119 C 0.9294 0.50713 0.27519 0.0
H1120 H 0.81972 0.89565 0.79904 0.0
H1121 H 0.72727 0.85359 0.76391 0.0
H1122 H 0.80193 0.9552 0.78771 0.0
H1123 H 0.70976 0.91288 0.75222 0.0
H1124 H 0.66544 0.02295 0.76724 0.0
H1125 H 0.68672 0.96321 0.77232 0.0
H1126 H 0.79248 0.99747 0.75564 0.0
H1127 H 0.77095 0.05811 0.75119 0.0
C1128 C 0.79587 0.89909 0.78859 0.0
C1129 C 0.77464 0.86995 0.78266 0.0
C1130 C 0.78574 0.93322 0.78199 0.0
C1131 C 0.75423 0.93895 0.76921 0.0
C1132 C 0.73379 0.90957 0.7625 0.0
C1133 C 0.74379 0.87556 0.76922 0.0
C1134 C 0.69319 1.01774 0.76438 0.0
C1135 C 0.71657 0.04524 0.75892 0.0
C1136 C 0.7054 0.98335 0.76715 0.0
C1137 C 0.74136 0.97538 0.7644 0.0
C1138 C 0.76468 1.00276 0.75816 0.0
C1139 C 0.75237 0.0374 0.75542 0.0
H1140 H 0.78082 0.92716 1.0167 0.0
H1141 H 0.74413 0.03312 1.00379 0.0
H1142 H 0.84043 0.94875 1.02206 0.0
H1143 H 0.80467 0.05502 1.00848 0.0
H1144 H 0.90818 0.0811 1.05093 0.0
H1145 H 0.84829 0.06349 1.03992 0.0
H1146 H 0.88996 0.97304 1.00229 0.0
H1147 H 0.94951 0.9903 1.01369 0.0
C1148 C 0.78564 0.95511 1.0146 0.0
C1149 C 0.75774 0.97846 1.00991 0.0
C1150 C 0.81999 0.96753 1.01753 0.0
C1151 C 0.82756 1.00369 1.01569 0.0
C1152 C 0.79975 0.02705 1.0103 0.0
C1153 C 0.76514 1.01453 1.00741 0.0
C1154 C 0.9045 0.05767 1.04009 0.0
C1155 C 0.93358 0.03681 1.03349 0.0
C1156 C 0.87016 0.04763 1.03368 0.0
C1157 C 0.86414 1.0166 1.02041 0.0
C1158 C 0.89344 0.99663 1.01299 0.0
C1159 C 0.92764 1.00651 1.01953 0.0
H1160 H 0.88011 0.04071 0.26018 0.0
H1161 H 0.77257 1.00383 0.26237 0.0
H1162 H 0.86021 0.10071 0.26716 0.0
H1163 H 0.75239 0.06427 0.27 0.0
H1164 H 0.7291 0.18417 0.26541 0.0
H1165 H 0.74649 0.12431 0.25429 0.0
H1166 H 0.83728 0.13245 0.30086 0.0
H1167 H 0.8209 0.19249 0.31108 0.0
C1168 C 0.8521 0.04554 0.26194 0.0
C1169 C 0.82792 1.01757 0.26087 0.0
C1170 C 0.84069 0.07993 0.26619 0.0
C1171 C 0.80475 0.08731 0.26963 0.0
C1172 C 0.78027 0.05954 0.26739 0.0
C1173 C 0.79177 0.02493 0.26302 0.0
C1174 C 0.75296 0.17328 0.2731 0.0
C1175 C 0.77365 0.19332 0.2891 0.0
C1176 C 0.7627 0.1388 0.26691 0.0
C1177 C 0.79344 0.12359 0.27651 0.0
C1178 C 0.81378 0.14348 0.29276 0.0
C1179 C 0.80409 0.17784 0.29891 0.0
H1180 H 0.79574 0.03458 0.50222 0.0
H1181 H 0.76406 0.14141 0.51806 0.0
H1182 H 0.73521 1.01449 0.50976 0.0
H1183 H 0.70415 0.12157 0.52542 0.0
H1184 H 0.61813 0.06864 0.56907 0.0
H1185 H 0.6775 0.08615 0.55789 0.0
H1186 H 0.67182 1.0194 0.49527 0.0
H1187 H 0.61185 1.00222 0.5062 0.0
C1188 C 0.77576 0.05378 0.50689 0.0
C1189 C 0.78465 0.08948 0.50976 0.0
C1190 C 0.74117 0.04232 0.51122 0.0
C1191 C 0.71508 0.0664 0.51859 0.0
C1192 C 0.72379 0.10228 0.52028 0.0
C1193 C 0.75809 0.11367 0.51588 0.0
C1194 C 0.62927 0.05792 0.55277 0.0
C1195 C 0.60994 0.03426 0.53845 0.0
C1196 C 0.66339 0.06791 0.54639 0.0
C1197 C 0.67923 0.05441 0.52556 0.0
C1198 C 0.66038 0.03009 0.51149 0.0
C1199 C 0.62605 1.02022 0.51781 0.0
H1200 H 0.31522 0.20863 0.53174 0.0
H1201 H 0.22587 0.16747 0.49265 0.0
H1202 H 0.33192 0.14906 0.54326 0.0
H1203 H 0.24295 0.10759 0.50375 0.0
H1204 H 0.37805 0.03976 0.52889 0.0
H1205 H 0.35686 0.09947 0.52367 0.0
H1206 H 0.24999 0.06405 0.53526 0.0
H1207 H 0.27154 1.00341 0.53989 0.0
C1208 C 0.29922 0.18679 0.52553 0.0
C1209 C 0.26948 0.19276 0.51104 0.0
C1210 C 0.30877 0.15259 0.53213 0.0
C1211 C 0.28903 0.12335 0.52425 0.0
C1212 C 0.25858 0.12942 0.51039 0.0
C1213 C 0.24886 0.16375 0.50392 0.0
C1214 C 0.35005 0.04469 0.53062 0.0
C1215 C 0.32645 1.01686 0.53472 0.0
C1216 C 0.33786 0.07909 0.52776 0.0
C1217 C 0.30166 0.08677 0.52905 0.0
C1218 C 0.27801 0.05903 0.53388 0.0
C1219 C 0.29032 0.02437 0.53674 0.0
H1220 H 0.11359 1.00119 0.28746 0.0
H1221 H 0.12076 0.06588 0.22407 0.0
H1222 H 0.17355 1.0184 0.29875 0.0
H1223 H 0.18012 0.08342 0.23561 0.0
H1224 H 0.26539 0.14029 0.27629 0.0
H1225 H 0.20576 0.11986 0.26835 0.0
H1226 H 0.23738 1.01329 0.28481 0.0
H1227 H 0.29768 0.03398 0.29291 0.0
C1228 C 0.128 1.01878 0.27581 0.0
C1229 C 0.11213 0.0324 0.25494 0.0
C1230 C 0.16231 0.02867 0.28233 0.0
C1231 C 0.18137 0.05257 0.26823 0.0
C1232 C 0.16582 0.06552 0.24713 0.0
C1233 C 0.13172 0.05552 0.24054 0.0
C1234 C 0.25961 0.11253 0.27851 0.0
C1235 C 0.28626 0.08866 0.28501 0.0
C1236 C 0.22548 0.1008 0.27379 0.0
C1237 C 0.21702 0.06489 0.27553 0.0
C1238 C 0.24318 0.04114 0.28329 0.0
C1239 C 0.27762 0.05293 0.28794 0.0
H1240 H 0.1651 1.02209 1.03206 0.0
H1241 H 0.27223 0.05864 1.04015 0.0
H1242 H 0.18621 0.96228 1.02585 0.0
H1243 H 0.29371 0.99856 1.03321 0.0
H1244 H 0.31722 0.87914 1.03626 0.0
H1245 H 0.2971 0.93802 1.04769 0.0
H1246 H 0.21517 0.9321 0.9939 0.0
H1247 H 0.23408 0.873 0.98333 0.0
C1248 C 0.19323 1.01721 1.03271 0.0
C1249 C 0.21704 0.04502 1.03641 0.0
C1250 C 0.20538 0.98297 1.02893 0.0
C1251 C 0.24171 0.97565 1.02854 0.0
C1252 C 0.26555 1.00323 1.03344 0.0
C1253 C 0.2533 0.03764 1.03738 0.0
C1254 C 0.29467 0.89029 1.02707 0.0
C1255 C 0.27726 0.87122 1.00888 0.0
C1256 C 0.28338 0.9242 1.03346 0.0
C1257 C 0.25434 0.93976 1.02186 0.0
C1258 C 0.23722 0.92076 1.00354 0.0
C1259 C 0.24842 0.88697 0.99721 0.0
H1260 H 0.42474 0.07732 0.78073 0.0
H1261 H 0.43182 0.98828 0.73258 0.0
H1262 H 0.36541 0.05899 0.79217 0.0
H1263 H 0.37222 0.97107 0.74308 0.0
H1264 H 0.28121 0.92587 0.78286 0.0
H1265 H 0.34114 0.94601 0.776 0.0
H1266 H 0.30511 0.05405 0.77731 0.0
H1267 H 0.24487 0.03361 0.78487 0.0
C1268 C 0.4137 0.05386 0.77256 0.0
C1269 C 0.43323 0.03424 0.75576 0.0
C1270 C 0.3795 0.04358 0.77894 0.0
C1271 C 0.36405 1.01338 0.76871 0.0
C1272 C 0.38345 0.9941 0.75169 0.0
C1273 C 0.41755 1.0043 0.74537 0.0
C1274 C 0.28615 0.95396 0.78204 0.0
C1275 C 0.25834 0.97816 0.78424 0.0
C1276 C 0.32048 0.96553 0.77786 0.0
C1277 C 0.32794 1.00166 0.7756 0.0
C1278 C 0.30035 0.02604 0.77899 0.0
C1279 C 0.26584 1.01438 0.7833 0.0
H1280 H 0.28631 0.20799 0.21697 0.0
H1281 H 0.33393 0.1082 0.19936 0.0
H1282 H 0.24969 0.20416 0.18066 0.0
H1283 H 0.29694 0.10402 0.16347 0.0
H1284 H 0.1983 0.09027 1.11356 0.0
H1285 H 0.23456 0.09513 0.14994 0.0
H1286 H 0.2512 0.20538 1.13568 0.0
H1287 H 0.21564 0.2003 1.09908 0.0
C1288 C 0.28927 0.18527 0.20538 0.0
C1289 C 0.31378 0.15864 0.21144 0.0
C1290 C 0.26808 0.18303 0.18435 0.0
C1291 C 0.26974 0.15364 0.1687 0.0
C1292 C 0.29421 0.127 0.17485 0.0
C1293 C 0.3159 0.1296 0.19555 0.0
C1294 C 0.20938 0.11569 1.11819 0.0
C1295 C 0.20342 0.14487 1.10302 0.0
C1296 C 0.23063 0.11846 1.13914 0.0
C1297 C 0.24635 0.15072 1.14623 0.0
C1298 C 0.23969 0.18006 1.1313 0.0
C1299 C 0.21912 0.1771 1.11008 0.0
H1300 H 0.6911 0.42814 0.37424 0.0
H1301 H 0.63209 0.5071 0.33599 0.0
H1302 H 0.6848 0.46276 0.41141 0.0
H1303 H 0.62693 0.54205 0.37273 0.0
H1304 H 0.66154 0.61316 0.43865 0.0
H1305 H 0.66611 0.57756 0.40199 0.0
H1306 H 0.63677 0.48495 0.44161 0.0
H1307 H 0.63104 0.5208 0.47813 0.0
C1308 C 0.67679 0.45281 0.37361 0.0
C1309 C 0.66197 0.46427 0.35171 0.0
C1310 C 0.67307 0.4728 0.3951 0.0
C1311 C 0.65533 0.50567 0.39549 0.0
C1312 C 0.64095 0.51722 0.3735 0.0
C1313 C 0.64378 0.49683 0.35226 0.0
C1314 C 0.65557 0.5853 0.43961 0.0
C1315 C 0.64535 0.57038 0.4617 0.0
C1316 C 0.65825 0.56469 0.41841 0.0
C1317 C 0.65193 0.52792 0.4184 0.0
C1318 C 0.64208 0.51293 0.44057 0.0
C1319 C 0.63844 0.53374 0.46164 0.0
H1320 H 0.28461 0.89241 0.72881 0.0
H1321 H 0.19151 0.91953 0.68857 0.0
H1322 H 0.32036 0.89796 0.69238 0.0
H1323 H 0.22705 0.92391 0.65198 0.0
H1324 H 0.29772 0.8903 0.5866 0.0
H1325 H 0.26299 0.88552 0.62329 0.0
H1326 H 0.342 0.94467 0.66164 0.0
H1327 H 0.37647 0.9505 0.62449 0.0
C1328 C 0.2715 0.89906 0.71217 0.0
C1329 C 0.23468 0.90509 0.71199 0.0
C1330 C 0.29225 0.90259 0.69114 0.0
C1331 C 0.27705 0.91142 0.66878 0.0
C1332 C 0.24011 0.91686 0.66856 0.0
C1333 C 0.21953 0.91431 0.68971 0.0
C1334 C 0.30798 0.90237 0.60278 0.0
C1335 C 0.34043 0.92075 0.60213 0.0
C1336 C 0.28772 0.89975 0.624 0.0
C1337 C 0.29922 0.91461 0.64589 0.0
C1338 C 0.33198 0.93258 0.64541 0.0
C1339 C 0.35188 0.93604 0.62393 0.0
H1340 H 0.91651 0.55835 0.83664 0.0
H1341 H 0.85531 0.63634 0.87426 0.0
H1342 H 0.92145 0.52354 0.87328 0.0
H1343 H 0.86124 0.60178 0.91138 0.0
H1344 H 0.91304 0.54487 0.9789 0.0
H1345 H 0.9073 0.58061 0.94248 0.0
H1346 H 0.88402 0.48696 0.90165 0.0
H1347 H 0.88864 0.45139 0.93823 0.0
C1348 C 0.90425 0.56843 0.85275 0.0
C1349 C 0.88555 0.6007 0.85203 0.0
C1350 C 0.90695 0.5481 0.87395 0.0
C1351 C 0.89184 0.55936 0.89576 0.0
C1352 C 0.87354 0.59194 0.89522 0.0
C1353 C 0.87002 0.6119 0.87376 0.0
C1354 C 0.90695 0.53168 0.96217 0.0
C1355 C 0.90177 0.49474 0.96187 0.0
C1356 C 0.9033 0.55243 0.94114 0.0
C1357 C 0.89516 0.53714 0.91865 0.0
C1358 C 0.89053 0.50011 0.91832 0.0
C1359 C 0.89322 0.4795 0.93947 0.0
H1360 H 0.87671 0.95075 0.17042 0.0
H1361 H 0.79884 0.88972 0.20796 0.0
H1362 H 0.84207 0.94475 1.13323 0.0
H1363 H 0.76385 0.88477 0.17119 0.0
H1364 H 0.69187 0.91884 1.10572 0.0
H1365 H 0.72739 0.92309 1.1425 0.0
H1366 H 0.82083 0.89797 1.1023 0.0
H1367 H 0.78514 0.89255 1.06568 0.0
C1368 C 0.85227 0.93605 0.17089 0.0
C1369 C 0.84113 0.9206 0.1926 0.0
C1370 C 0.83226 0.9325 0.14938 0.0
C1371 C 0.79967 0.91425 1.14878 0.0
C1372 C 0.78845 0.8992 0.17058 0.0
C1373 C 0.80886 0.90191 0.19184 0.0
C1374 C 0.71992 0.91379 1.10465 0.0
C1375 C 0.73514 0.90485 1.08237 0.0
C1376 C 0.74049 0.91626 1.12592 0.0
C1377 C 0.77745 0.91101 1.12581 0.0
C1378 C 0.7927 0.90245 1.10345 0.0
C1379 C 0.77199 0.899 1.08231 0.0
H1380 H 0.41697 0.55576 0.9581 0.0
H1381 H 0.35971 0.63671 0.92053 0.0
H1382 H 0.42144 0.52143 0.92113 0.0
H1383 H 0.36512 0.60253 0.88311 0.0
H1384 H 0.41558 0.54487 0.81565 0.0
H1385 H 0.4104 0.58019 0.85238 0.0
H1386 H 0.3838 0.48666 0.89193 0.0
H1387 H 0.38797 0.4515 0.85504 0.0
C1388 C 0.4055 0.5666 0.94193 0.0
C1389 C 0.38805 0.59955 0.94275 0.0
C1390 C 0.40791 0.54654 0.92054 0.0
C1391 C 0.39371 0.55871 0.89867 0.0
C1392 C 0.37669 0.59197 0.89932 0.0
C1393 C 0.37348 0.61172 0.92095 0.0
C1394 C 0.40885 0.53161 0.83216 0.0
C1395 C 0.40261 0.49483 0.83201 0.0
C1396 C 0.40553 0.55213 0.85337 0.0
C1397 C 0.39665 0.53674 0.87559 0.0
C1398 C 0.39093 0.49986 0.87548 0.0
C1399 C 0.39334 0.47949 0.85414 0.0
H1400 H 0.71671 0.20066 0.69709 0.0
H1401 H 0.69778 0.09111 0.68136 0.0
H1402 H 0.75152 0.20599 0.6603 0.0
H1403 H 0.7333 0.09621 0.64486 0.0
H1404 H 0.83225 0.10873 0.59561 0.0
H1405 H 0.79578 0.10473 0.63152 0.0
H1406 H 0.74895 0.20521 0.61494 0.0
H1407 H 0.78507 0.20886 0.57849 0.0
C1408 C 0.71971 0.17762 0.68579 0.0
C1409 C 0.7038 0.14544 0.69256 0.0
C1410 C 0.73982 0.18073 0.66446 0.0
C1411 C 0.74581 0.15159 0.64915 0.0
C1412 C 0.72988 0.11939 0.65595 0.0
C1413 C 0.70907 0.11648 0.67699 0.0
C1414 C 0.8144 0.13024 0.59952 0.0
C1415 C 0.81227 0.15932 0.58375 0.0
C1416 C 0.79302 0.12774 0.62025 0.0
C1417 C 0.76884 0.15452 0.6266 0.0
C1418 C 0.76713 0.18397 0.61108 0.0
C1419 C 0.78801 0.1861 0.58998 0.0
H1420 H 0.10482 0.4713 0.44423 0.0
H1421 H 0.21578 0.45768 0.43107 0.0
H1422 H 0.09935 0.50616 0.40745 0.0
H1423 H 0.21052 0.49337 0.39457 0.0
H1424 H 0.19478 0.593 0.34603 0.0
H1425 H 0.19924 0.55596 0.38162 0.0
H1426 H 0.10234 0.5041 0.36197 0.0
H1427 H 0.09847 0.5407 0.32572 0.0
C1428 C 0.12815 0.47545 0.43348 0.0
C1429 C 0.16076 0.46099 0.44096 0.0
C1430 C 0.12496 0.49561 0.41216 0.0
C1431 C 0.15442 0.50316 0.39758 0.0
C1432 C 0.18706 0.48868 0.40509 0.0
C1433 C 0.19008 0.46777 0.4261 0.0
C1434 C 0.17425 0.57382 0.34911 0.0
C1435 C 0.14616 0.57045 0.33251 0.0
C1436 C 0.17697 0.55216 0.36971 0.0
C1437 C 0.15131 0.52641 0.37513 0.0
C1438 C 0.12274 0.52347 0.35881 0.0
C1439 C 0.12046 0.54466 0.33784 0.0
H1440 H 0.74833 0.676 0.58646 0.0
H1441 H 0.66895 0.61722 0.62421 0.0
H1442 H 0.78333 0.68056 0.6232 0.0
H1443 H 0.70371 0.62281 0.66141 0.0
H1444 H 0.76212 0.6742 0.7287 0.0
H1445 H 0.72615 0.66906 0.6922 0.0
H1446 H 0.81896 0.64204 0.65188 0.0
H1447 H 0.85475 0.64606 0.68855 0.0
C1448 C 0.73797 0.66424 0.60262 0.0
C1449 C 0.70526 0.64632 0.60193 0.0
C1450 C 0.7584 0.66671 0.62387 0.0
C1451 C 0.74683 0.65213 0.64573 0.0
C1452 C 0.7138 0.63467 0.6452 0.0
C1453 C 0.69371 0.63137 0.6237 0.0
C1454 C 0.77509 0.66738 0.71207 0.0
C1455 C 0.81184 0.66096 0.71194 0.0
C1456 C 0.7542 0.66409 0.691 0.0
C1457 C 0.76919 0.65509 0.66864 0.0
C1458 C 0.80607 0.64923 0.66846 0.0
C1459 C 0.82679 0.65157 0.68966 0.0
H1460 H 0.13196 1.00861 0.83645 0.0
H1461 H 0.18936 0.92822 0.87447 0.0
H1462 H 0.12722 0.04328 0.8733 0.0
H1463 H 0.18351 0.96264 0.91178 0.0
H1464 H 0.13034 1.02069 0.9786 0.0
H1465 H 0.13613 0.98516 0.94197 0.0
H1466 H 0.16606 0.07802 0.9028 0.0
H1467 H 0.16136 0.11333 0.93959 0.0
C1468 C 0.14341 0.99798 0.85269 0.0
C1469 C 0.161 0.96509 0.85204 0.0
C1470 C 0.14082 1.01821 0.874 0.0
C1471 C 0.15487 1.00622 0.89597 0.0
C1472 C 0.17206 0.97304 0.89548 0.0
C1473 C 0.17552 0.95317 0.87392 0.0
C1474 C 0.1379 0.03376 0.96219 0.0
C1475 C 0.14489 0.07039 0.96242 0.0
C1476 C 0.14158 1.01313 0.94105 0.0
C1477 C 0.15158 0.02828 0.91898 0.0
C1478 C 0.15806 0.06502 0.91915 0.0
C1479 C 0.15531 0.08548 0.94042 0.0
H1480 H 0.79894 0.38915 1.08614 0.0
H1481 H 0.87674 0.45081 1.12384 0.0
H1482 H 0.76452 0.38371 1.12294 0.0
H1483 H 0.84265 0.44434 0.16107 0.0
H1484 H 0.78689 0.39171 0.22851 0.0
H1485 H 0.82218 0.39745 0.19189 0.0
H1486 H 0.72807 0.42141 0.15177 0.0
H1487 H 0.69297 0.41682 0.18853 0.0
C1488 C 0.80906 0.4014 1.10229 0.0
C1489 C 0.84113 0.42041 1.10157 0.0
C1490 C 0.78898 0.39839 1.12358 0.0
C1491 C 0.80035 0.41347 1.14545 0.0
C1492 C 0.83275 0.43205 1.14487 0.0
C1493 C 0.85243 0.43588 1.12335 0.0
C1494 C 0.77351 0.39794 0.21189 0.0
C1495 C 0.7366 0.40338 0.21184 0.0
C1496 C 0.79399 0.40159 0.19075 0.0
C1497 C 0.77842 0.40995 0.16842 0.0
C1498 C 0.7414 0.41474 0.16832 0.0
C1499 C 0.72108 0.41207 0.18958 0.0
H1500 H 0.44925 1.02139 0.4676 0.0
H1501 H 0.34971 0.97343 0.44956 0.0
H1502 H 0.44574 0.05752 0.43118 0.0
H1503 H 0.34581 1.01 0.4136 0.0
H1504 H 0.3325 0.10761 0.36322 0.0
H1505 H 0.33707 0.0723 0.39991 0.0
H1506 H 0.44737 0.05483 0.38607 0.0
H1507 H 0.44258 0.0894 0.34916 0.0
C1508 C 0.42663 1.01829 0.45591 0.0
C1509 C 0.39998 0.99381 0.46187 0.0
C1510 C 0.42458 0.03918 0.43482 0.0
C1511 C 0.39535 0.03726 0.41902 0.0
C1512 C 0.36866 1.0129 0.4251 0.0
C1513 C 0.37109 0.99148 0.44584 0.0
C1514 C 0.35787 0.09655 0.36801 0.0
C1515 C 0.38715 0.10194 0.35286 0.0
C1516 C 0.36047 0.07586 0.38914 0.0
C1517 C 0.39266 0.06019 0.39642 0.0
C1518 C 0.4221 0.06634 0.38153 0.0
C1519 C 0.41931 0.08632 0.36014 0.0
H1520 H 0.34727 0.47612 0.68122 0.0
H1521 H 0.33393 0.36528 0.69479 0.0
H1522 H 0.31165 0.47049 0.6446 0.0
H1523 H 0.29904 0.35946 0.65794 0.0
H1524 H 0.2652 0.35694 0.57633 0.0
H1525 H 0.30117 0.36151 0.61292 0.0
H1526 H 0.24983 0.45942 0.63063 0.0
H1527 H 0.21349 0.45445 0.5945 0.0
C1528 C 0.33718 0.45038 0.67635 0.0
C1529 C 0.34407 0.4212 0.69134 0.0
C1530 C 0.31632 0.44715 0.65525 0.0
C1531 C 0.30195 0.41443 0.64782 0.0
C1532 C 0.30951 0.38512 0.66258 0.0
C1533 C 0.32968 0.38852 0.68395 0.0
C1534 C 0.26123 0.37933 0.58808 0.0
C1535 C 0.2358 0.40511 0.58208 0.0
C1536 C 0.28203 0.38199 0.60927 0.0
C1537 C 0.27901 0.41101 0.62516 0.0
C1538 C 0.25363 0.43679 0.61906 0.0
C1539 C 0.23235 0.43374 0.59821 0.0
H1540 H 0.91716 0.05721 0.4581 0.0
H1541 H 0.8576 0.13685 0.42089 0.0
H1542 H 0.92206 0.02308 0.42111 0.0
H1543 H 0.86343 0.10286 0.3834 0.0
H1544 H 0.91433 0.04576 0.31562 0.0
H1545 H 0.90887 0.08129 0.35229 0.0
H1546 H 0.88475 0.98751 0.39231 0.0
H1547 H 0.88919 0.9522 0.35554 0.0
C1548 C 0.90526 0.06781 0.44201 0.0
C1549 C 0.88703 0.10034 0.44295 0.0
C1550 C 0.90793 0.04786 0.42059 0.0
C1551 C 0.89322 0.05971 0.39879 0.0
C1552 C 0.87542 0.09256 0.39955 0.0
C1553 C 0.87196 0.1122 0.42122 0.0
C1554 C 0.90813 0.03251 0.33223 0.0
C1555 C 0.90266 0.99562 0.33226 0.0
C1556 C 0.90463 0.05313 0.3534 0.0
C1557 C 0.89634 0.03773 0.37573 0.0
C1558 C 0.89141 1.00074 0.37577 0.0
C1559 C 0.89399 0.98028 0.3545 0.0
H1560 H 0.16856 0.61921 0.16968 0.0
H1561 H 0.2506 0.67358 0.20841 0.0
H1562 H 0.20311 0.62478 1.13252 0.0
H1563 H 0.28532 0.67804 0.17174 0.0
H1564 H 0.35481 0.64286 1.10592 0.0
H1565 H 0.31902 0.63879 1.14235 0.0
H1566 H 0.22737 0.67162 1.10252 0.0
H1567 H 0.26348 0.67678 1.0662 0.0
C1568 C 0.19387 0.63235 0.17042 0.0
C1569 C 0.20622 0.6461 0.19247 0.0
C1570 C 0.21383 0.63566 1.14894 0.0
C1571 C 0.24751 0.65188 1.1487 0.0
C1572 C 0.25987 0.66519 0.17082 0.0
C1573 C 0.2396 0.66277 0.19205 0.0
C1574 C 0.32714 0.6497 1.10486 0.0
C1575 C 0.31261 0.66074 1.08277 0.0
C1576 C 0.3064 0.64731 1.12594 0.0
C1577 C 0.26982 0.65479 1.12584 0.0
C1578 C 0.25519 0.66542 1.10366 0.0
C1579 C 0.27616 0.66874 1.08271 0.0
H1580 H 0.68835 0.92719 0.91963 0.0
H1581 H 0.6323 1.00809 0.95811 0.0
H1582 H 0.68202 0.96154 0.88242 0.0
H1583 H 0.62718 0.04275 0.92136 0.0
H1584 H 0.66157 0.11217 0.85497 0.0
H1585 H 0.66654 0.07691 0.89163 0.0
H1586 H 0.63347 0.98459 0.85257 0.0
H1587 H 0.62733 1.02013 0.81604 0.0
C1588 C 0.67473 0.95225 0.92031 0.0
C1589 C 0.6607 0.96432 0.94229 0.0
C1590 C 0.67098 0.97208 0.8988 0.0
C1591 C 0.65404 1.00539 0.89846 0.0
C1592 C 0.64054 1.01756 0.92053 0.0
C1593 C 0.64336 0.99735 0.94179 0.0
C1594 C 0.6548 0.08447 0.85413 0.0
C1595 C 0.64339 0.06957 0.83219 0.0
C1596 C 0.65775 0.06404 0.87534 0.0
C1597 C 0.6505 0.02744 0.87551 0.0
C1598 C 0.63952 1.01245 0.85349 0.0
C1599 C 0.63563 0.03309 0.83241 0.0
loop_
_geom_bond_atom_site_label_1
_geom_bond_atom_site_label_2
_geom_bond_distance
_geom_bond_site_symmetry_2
_ccdc_geom_bond_type
Ho0 C3 2.811 . S
Ho0 O20 2.322 . S
Ho0 O22 2.378 . S
Ho0 O23 2.524 . S
Ho0 O24 2.381 . S
Ho0 O25 2.669 . S
Ho0 O27 2.346 . S
Ho0 O31 2.305 . S
Ho1 C12 2.811 . S
Ho1 O21 2.346 . S
Ho1 O25 2.305 . S
Ho1 O26 2.322 . S
Ho1 O28 2.378 . S
Ho1 O29 2.524 . S
Ho1 O30 2.381 . S
Ho1 O31 2.669 . S
C2 O20 1.259 . S
C2 O21 1.268 . S
C3 Ho0 2.811 . S
C3 C4 1.488 . S
C3 O22 1.215 . S
C3 O23 1.289 . S
C4 C3 1.488 . S
C4 C5 1.348 . S
C4 C9 1.413 . S
C5 C4 1.348 . S
C5 C6 1.442 . S
C5 H32 0.930 . S
C6 C5 1.442 . S
C6 C7 1.381 . S
C6 H33 0.931 . S
C7 C6 1.381 . S
C7 C8 1.321 . S
C8 C7 1.321 . S
C8 C9 1.403 . S
C8 H34 0.934 . S
C9 C4 1.413 . S
C9 C8 1.403 . S
C9 H35 0.930 . S
C10 O24 1.275 . S
C10 O25 1.256 . S
C11 O26 1.259 . S
C11 O27 1.268 . S
C12 Ho1 2.811 . S
C12 C13 1.488 . S
C12 O28 1.215 . S
C12 O29 1.289 . S
C13 C12 1.488 . S
C13 C14 1.348 . S
C13 C18 1.413 . S
C14 C13 1.348 . S
C14 C15 1.442 . S
C14 H36 0.930 . S
C15 C14 1.442 . S
C15 C16 1.390 . S
C15 H37 0.931 . S
C16 C15 1.390 . S
C16 C17 1.318 1_545 S
C17 C16 1.318 1_565 S
C17 C18 1.403 1_565 S
C17 H38 0.934 . S
C18 C13 1.413 . S
C18 C17 1.403 1_545 S
C18 H39 0.930 . S
C19 O30 1.275 . S
C19 O31 1.256 . S
O20 Ho0 2.322 . S
O20 C2 1.259 . S
O21 Ho1 2.346 . S
O21 C2 1.268 . S
O22 Ho0 2.378 . S
O22 C3 1.215 . S
O23 Ho0 2.524 . S
O23 C3 1.289 . S
O24 Ho0 2.381 . S
O24 C10 1.275 . S
O25 Ho0 2.669 . S
O25 Ho1 2.305 . S
O25 C10 1.256 . S
O26 Ho1 2.322 . S
O26 C11 1.259 . S
O27 Ho0 2.346 . S
O27 C11 1.268 . S
O28 Ho1 2.378 . S
O28 C12 1.215 . S
O29 Ho1 2.524 . S
O29 C12 1.289 . S
O30 Ho1 2.381 . S
O30 C19 1.275 . S
O31 Ho0 2.305 . S
O31 Ho1 2.669 . S
O31 C19 1.256 . S
H32 C5 0.930 . S
H33 C6 0.931 . S
H34 C8 0.934 . S
H35 C9 0.930 . S
H36 C14 0.930 . S
H37 C15 0.931 . S
H38 C17 0.934 . S
H39 C18 0.930 . S
Ho40 C43 2.811 . S
Ho40 O60 2.322 . S
Ho40 O62 2.378 . S
Ho40 O63 2.524 . S
Ho40 O64 2.381 . S
Ho40 O65 2.669 . S
Ho40 O67 2.346 . S
Ho40 O71 2.305 . S
Ho41 C52 2.811 . S
Ho41 O61 2.346 . S
Ho41 O65 2.305 . S
Ho41 O66 2.322 . S
Ho41 O68 2.378 . S
Ho41 O69 2.524 . S
Ho41 O70 2.381 . S
Ho41 O71 2.669 . S
C42 O60 1.259 . S
C42 O61 1.268 . S
C43 Ho40 2.811 . S
C43 C44 1.488 . S
C43 O62 1.215 . S
C43 O63 1.289 . S
C44 C43 1.488 . S
C44 C45 1.348 . S
C44 C49 1.413 . S
C45 C44 1.348 . S
C45 C46 1.442 . S
C45 H72 0.930 . S
C46 C45 1.442 . S
C46 C47 1.381 . S
C46 H73 0.931 . S
C47 C46 1.381 . S
C47 C48 1.321 . S
C48 C47 1.321 . S
C48 C49 1.403 . S
C48 H74 0.934 . S
C49 C44 1.413 . S
C49 C48 1.403 . S
C49 H75 0.930 . S
C50 O64 1.275 . S
C50 O65 1.256 . S
C51 O66 1.259 . S
C51 O67 1.268 . S
C52 Ho41 2.811 . S
C52 C53 1.488 . S
C52 O68 1.215 . S
C52 O69 1.289 . S
C53 C52 1.488 . S
C53 C54 1.348 . S
C53 C58 1.413 . S
C54 C53 1.348 . S
C54 C55 1.442 . S
C54 H76 0.930 . S
C55 C54 1.442 . S
C55 C56 1.381 . S
C55 H77 0.931 . S
C56 C55 1.381 . S
C56 C57 1.321 . S
C57 C56 1.321 . S
C57 C58 1.403 . S
C57 H78 0.934 . S
C58 C53 1.413 . S
C58 C57 1.403 . S
C58 H79 0.930 . S
C59 O70 1.275 . S
C59 O71 1.256 . S
O60 Ho40 2.322 . S
O60 C42 1.259 . S
O61 Ho41 2.346 . S
O61 C42 1.268 . S
O62 Ho40 2.378 . S
O62 C43 1.215 . S
O63 Ho40 2.524 . S
O63 C43 1.289 . S
O64 Ho40 2.381 . S
O64 C50 1.275 . S
O65 Ho40 2.669 . S
O65 Ho41 2.305 . S
O65 C50 1.256 . S
O66 Ho41 2.322 . S
O66 C51 1.259 . S
O67 Ho40 2.346 . S
O67 C51 1.268 . S
O68 Ho41 2.378 . S
O68 C52 1.215 . S
O69 Ho41 2.524 . S
O69 C52 1.289 . S
O70 Ho41 2.381 . S
O70 C59 1.275 . S
O71 Ho40 2.305 . S
O71 Ho41 2.669 . S
O71 C59 1.256 . S
H72 C45 0.930 . S
H73 C46 0.931 . S
H74 C48 0.934 . S
H75 C49 0.930 . S
H76 C54 0.930 . S
H77 C55 0.931 . S
H78 C57 0.934 . S
H79 C58 0.930 . S
Ho80 C83 2.811 . S
Ho80 O100 2.322 . S
Ho80 O102 2.378 . S
Ho80 O103 2.524 . S
Ho80 O104 2.381 . S
Ho80 O105 2.669 . S
Ho80 O107 2.346 . S
Ho80 O111 2.305 . S
Ho81 C92 2.811 . S
Ho81 O101 2.346 . S
Ho81 O105 2.305 . S
Ho81 O106 2.322 . S
Ho81 O108 2.378 . S
Ho81 O109 2.524 . S
Ho81 O110 2.381 . S
Ho81 O111 2.669 . S
C82 O100 1.259 . S
C82 O101 1.268 . S
C83 Ho80 2.811 . S
C83 C84 1.488 . S
C83 O102 1.215 . S
C83 O103 1.289 . S
C84 C83 1.488 . S
C84 C85 1.348 . S
C84 C89 1.413 . S
C85 C84 1.348 . S
C85 C86 1.442 . S
C85 H112 0.930 . S
C86 C85 1.442 . S
C86 C87 1.381 . S
C86 H113 0.931 . S
C87 C86 1.381 . S
C87 C88 1.321 . S
C88 C87 1.321 . S
C88 C89 1.403 . S
C88 H114 0.934 . S
C89 C84 1.413 . S
C89 C88 1.403 . S
C89 H115 0.930 . S
C90 O104 1.275 . S
C90 O105 1.256 . S
C91 O106 1.259 . S
C91 O107 1.268 . S
C92 Ho81 2.811 . S
C92 C93 1.488 . S
C92 O108 1.215 . S
C92 O109 1.289 . S
C93 C92 1.488 . S
C93 C94 1.348 . S
C93 C98 1.413 . S
C94 C93 1.348 . S
C94 C95 1.442 . S
C94 H116 0.930 . S
C95 C94 1.442 . S
C95 C96 1.390 . S
C95 H117 0.931 . S
C96 C95 1.390 . S
C96 C97 1.318 1_565 S
C97 C96 1.318 1_545 S
C97 C98 1.403 1_545 S
C97 H118 0.934 . S
C98 C93 1.413 . S
C98 C97 1.403 1_565 S
C98 H119 0.930 . S
C99 O110 1.275 . S
C99 O111 1.256 . S
O100 Ho80 2.322 . S
O100 C82 1.259 . S
O101 Ho81 2.346 . S
O101 C82 1.268 . S
O102 Ho80 2.378 . S
O102 C83 1.215 . S
O103 Ho80 2.524 . S
O103 C83 1.289 . S
O104 Ho80 2.381 . S
O104 C90 1.275 . S
O105 Ho80 2.669 . S
O105 Ho81 2.305 . S
O105 C90 1.256 . S
O106 Ho81 2.322 . S
O106 C91 1.259 . S
O107 Ho80 2.346 . S
O107 C91 1.268 . S
O108 Ho81 2.378 . S
O108 C92 1.215 . S
O109 Ho81 2.524 . S
O109 C92 1.289 . S
O110 Ho81 2.381 . S
O110 C99 1.275 . S
O111 Ho80 2.305 . S
O111 Ho81 2.669 . S
O111 C99 1.256 . S
H112 C85 0.930 . S
H113 C86 0.931 . S
H114 C88 0.934 . S
H115 C89 0.930 . S
H116 C94 0.930 . S
H117 C95 0.931 . S
H118 C97 0.934 . S
H119 C98 0.930 . S
Ho120 C123 2.811 . S
Ho120 O140 2.322 . S
Ho120 O142 2.378 . S
Ho120 O143 2.524 . S
Ho120 O144 2.381 . S
Ho120 O145 2.669 . S
Ho120 O147 2.346 . S
Ho120 O151 2.305 . S
Ho121 C132 2.811 . S
Ho121 O141 2.346 . S
Ho121 O145 2.305 . S
Ho121 O146 2.322 . S
Ho121 O148 2.378 . S
Ho121 O149 2.524 . S
Ho121 O150 2.381 . S
Ho121 O151 2.669 . S
C122 O140 1.259 . S
C122 O141 1.268 . S
C123 Ho120 2.811 . S
C123 C124 1.504 . S
C123 O142 1.215 . S
C123 O143 1.289 . S
C124 C123 1.504 . S
C124 C125 1.358 . S
C124 C129 1.388 1_655 S
C125 C124 1.358 . S
C125 C126 1.442 1_655 S
C125 H152 0.930 . S
C126 C125 1.442 1_455 S
C126 C127 1.381 . S
C126 H153 0.922 1_455 S
C127 C126 1.381 . S
C127 C128 1.321 . S
C128 C127 1.321 . S
C128 C129 1.403 . S
C128 H154 0.934 . S
C129 C124 1.388 1_455 S
C129 C128 1.403 . S
C129 H155 0.930 . S
C130 O144 1.275 . S
C130 O145 1.256 . S
C131 O146 1.259 . S
C131 O147 1.268 . S
C132 Ho121 2.811 . S
C132 C133 1.488 . S
C132 O148 1.215 . S
C132 O149 1.289 . S
C133 C132 1.488 . S
C133 C134 1.348 . S
C133 C138 1.413 . S
C134 C133 1.348 . S
C134 C135 1.442 . S
C134 H156 0.930 . S
C135 C134 1.442 . S
C135 C136 1.381 . S
C135 H157 0.931 . S
C136 C135 1.381 . S
C136 C137 1.321 . S
C137 C136 1.321 . S
C137 C138 1.403 . S
C137 H158 0.934 . S
C138 C133 1.413 . S
C138 C137 1.403 . S
C138 H159 0.930 . S
C139 O150 1.275 . S
C139 O151 1.256 . S
O140 Ho120 2.322 . S
O140 C122 1.259 . S
O141 Ho121 2.346 . S
O141 C122 1.268 . S
O142 Ho120 2.378 . S
O142 C123 1.215 . S
O143 Ho120 2.524 . S
O143 C123 1.289 . S
O144 Ho120 2.381 . S
O144 C130 1.275 . S
O145 Ho120 2.669 . S
O145 Ho121 2.305 . S
O145 C130 1.256 . S
O146 Ho121 2.322 . S
O146 C131 1.259 . S
O147 Ho120 2.346 . S
O147 C131 1.268 . S
O148 Ho121 2.378 . S
O148 C132 1.215 . S
O149 Ho121 2.524 . S
O149 C132 1.289 . S
O150 Ho121 2.381 . S
O150 C139 1.275 . S
O151 Ho120 2.305 . S
O151 Ho121 2.669 . S
O151 C139 1.256 . S
H152 C125 0.930 . S
H153 C126 0.922 1_655 S
H154 C128 0.934 . S
H155 C129 0.930 . S
H156 C134 0.930 . S
H157 C135 0.931 . S
H158 C137 0.934 . S
H159 C138 0.930 . S
Ho160 C163 2.811 . S
Ho160 O180 2.322 . S
Ho160 O182 2.378 . S
Ho160 O183 2.524 . S
Ho160 O184 2.381 . S
Ho160 O185 2.669 . S
Ho160 O187 2.346 . S
Ho160 O191 2.305 . S
Ho161 C172 2.811 . S
Ho161 O181 2.346 . S
Ho161 O185 2.305 . S
Ho161 O186 2.322 . S
Ho161 O188 2.378 . S
Ho161 O189 2.524 . S
Ho161 O190 2.381 . S
Ho161 O191 2.669 . S
C162 O180 1.259 . S
C162 O181 1.268 . S
C163 Ho160 2.811 . S
C163 C164 1.488 . S
C163 O182 1.215 . S
C163 O183 1.289 . S
C164 C163 1.488 . S
C164 C165 1.348 . S
C164 C169 1.413 . S
C165 C164 1.348 . S
C165 C166 1.442 . S
C165 H192 0.930 . S
C166 C165 1.442 . S
C166 C167 1.390 . S
C166 H193 0.931 . S
C167 C166 1.390 . S
C167 C168 1.318 1_565 S
C168 C167 1.318 1_545 S
C168 C169 1.403 1_545 S
C168 H194 0.934 . S
C169 C164 1.413 . S
C169 C168 1.403 1_565 S
C169 H195 0.930 . S
C170 O184 1.275 . S
C170 O185 1.256 . S
C171 O186 1.259 . S
C171 O187 1.268 . S
C172 Ho161 2.811 . S
C172 C173 1.488 . S
C172 O188 1.215 . S
C172 O189 1.289 . S
C173 C172 1.488 . S
C173 C174 1.348 . S
C173 C178 1.413 . S
C174 C173 1.348 . S
C174 C175 1.442 . S
C174 H196 0.930 . S
C175 C174 1.442 . S
C175 C176 1.381 . S
C175 H197 0.931 . S
C176 C175 1.381 . S
C176 C177 1.321 . S
C177 C176 1.321 . S
C177 C178 1.403 . S
C177 H198 0.934 . S
C178 C173 1.413 . S
C178 C177 1.403 . S
C178 H199 0.930 . S
C179 O190 1.275 . S
C179 O191 1.256 . S
O180 Ho160 2.322 . S
O180 C162 1.259 . S
O181 Ho161 2.346 . S
O181 C162 1.268 . S
O182 Ho160 2.378 . S
O182 C163 1.215 . S
O183 Ho160 2.524 . S
O183 C163 1.289 . S
O184 Ho160 2.381 . S
O184 C170 1.275 . S
O185 Ho160 2.669 . S
O185 Ho161 2.305 . S
O185 C170 1.256 . S
O186 Ho161 2.322 . S
O186 C171 1.259 . S
O187 Ho160 2.346 . S
O187 C171 1.268 . S
O188 Ho161 2.378 . S
O188 C172 1.215 . S
O189 Ho161 2.524 . S
O189 C172 1.289 . S
O190 Ho161 2.381 . S
O190 C179 1.275 . S
O191 Ho160 2.305 . S
O191 Ho161 2.669 . S
O191 C179 1.256 . S
H192 C165 0.930 . S
H193 C166 0.931 . S
H194 C168 0.934 . S
H195 C169 0.930 . S
H196 C174 0.930 . S
H197 C175 0.931 . S
H198 C177 0.934 . S
H199 C178 0.930 . S
Ho200 C203 2.811 . S
Ho200 O220 2.322 . S
Ho200 O222 2.378 . S
Ho200 O223 2.524 . S
Ho200 O224 2.381 . S
Ho200 O225 2.669 . S
Ho200 O227 2.346 . S
Ho200 O231 2.305 . S
Ho201 C212 2.811 . S
Ho201 O221 2.346 . S
Ho201 O225 2.305 . S
Ho201 O226 2.322 . S
Ho201 O228 2.378 . S
Ho201 O229 2.524 . S
Ho201 O230 2.381 . S
Ho201 O231 2.669 . S
C202 O220 1.259 . S
C202 O221 1.268 . S
C203 Ho200 2.811 . S
C203 C204 1.488 . S
C203 O222 1.215 . S
C203 O223 1.289 . S
C204 C203 1.488 . S
C204 C205 1.348 . S
C204 C209 1.413 . S
C205 C204 1.348 . S
C205 C206 1.442 . S
C205 H232 0.930 . S
C206 C205 1.442 . S
C206 C207 1.381 . S
C206 H233 0.931 . S
C207 C206 1.381 . S
C207 C208 1.321 . S
C208 C207 1.321 . S
C208 C209 1.403 . S
C208 H234 0.934 . S
C209 C204 1.413 . S
C209 C208 1.403 . S
C209 H235 0.930 . S
C210 O224 1.275 . S
C210 O225 1.256 . S
C211 O226 1.259 . S
C211 O227 1.268 . S
C212 Ho201 2.811 . S
C212 C213 1.488 . S
C212 O228 1.215 . S
C212 O229 1.289 . S
C213 C212 1.488 . S
C213 C214 1.348 . S
C213 C218 1.413 . S
C214 C213 1.348 . S
C214 C215 1.442 . S
C214 H236 0.930 . S
C215 C214 1.442 . S
C215 C216 1.381 . S
C215 H237 0.931 . S
C216 C215 1.381 . S
C216 C217 1.321 . S
C217 C216 1.321 . S
C217 C218 1.403 . S
C217 H238 0.934 . S
C218 C213 1.413 . S
C218 C217 1.403 . S
C218 H239 0.930 . S
C219 O230 1.275 . S
C219 O231 1.256 . S
O220 Ho200 2.322 . S
O220 C202 1.259 . S
O221 Ho201 2.346 . S
O221 C202 1.268 . S
O222 Ho200 2.378 . S
O222 C203 1.215 . S
O223 Ho200 2.524 . S
O223 C203 1.289 . S
O224 Ho200 2.381 . S
O224 C210 1.275 . S
O225 Ho200 2.669 . S
O225 Ho201 2.305 . S
O225 C210 1.256 . S
O226 Ho201 2.322 . S
O226 C211 1.259 . S
O227 Ho200 2.346 . S
O227 C211 1.268 . S
O228 Ho201 2.378 . S
O228 C212 1.215 . S
O229 Ho201 2.524 . S
O229 C212 1.289 . S
O230 Ho201 2.381 . S
O230 C219 1.275 . S
O231 Ho200 2.305 . S
O231 Ho201 2.669 . S
O231 C219 1.256 . S
H232 C205 0.930 . S
H233 C206 0.931 . S
H234 C208 0.934 . S
H235 C209 0.930 . S
H236 C214 0.930 . S
H237 C215 0.931 . S
H238 C217 0.934 . S
H239 C218 0.930 . S
Ho240 C243 2.811 . S
Ho240 O260 2.322 . S
Ho240 O262 2.378 . S
Ho240 O263 2.524 . S
Ho240 O264 2.381 . S
Ho240 O265 2.669 . S
Ho240 O267 2.346 . S
Ho240 O271 2.305 . S
Ho241 C252 2.811 . S
Ho241 O261 2.346 . S
Ho241 O265 2.305 . S
Ho241 O266 2.322 . S
Ho241 O268 2.378 . S
Ho241 O269 2.524 . S
Ho241 O270 2.381 . S
Ho241 O271 2.669 . S
C242 O260 1.259 . S
C242 O261 1.268 . S
C243 Ho240 2.811 . S
C243 C244 1.488 . S
C243 O262 1.215 . S
C243 O263 1.289 . S
C244 C243 1.488 . S
C244 C245 1.348 . S
C244 C249 1.413 . S
C245 C244 1.348 . S
C245 C246 1.442 . S
C245 H272 0.930 . S
C246 C245 1.442 . S
C246 C247 1.390 . S
C246 H273 0.931 . S
C247 C246 1.390 . S
C247 C248 1.318 1_545 S
C248 C247 1.318 1_565 S
C248 C249 1.403 1_565 S
C248 H274 0.934 . S
C249 C244 1.413 . S
C249 C248 1.403 1_545 S
C249 H275 0.930 . S
C250 O264 1.275 . S
C250 O265 1.256 . S
C251 O266 1.259 . S
C251 O267 1.268 . S
C252 Ho241 2.811 . S
C252 C253 1.488 . S
C252 O268 1.215 . S
C252 O269 1.289 . S
C253 C252 1.488 . S
C253 C254 1.348 . S
C253 C258 1.413 . S
C254 C253 1.348 . S
C254 C255 1.442 . S
C254 H276 0.930 . S
C255 C254 1.442 . S
C255 C256 1.381 . S
C255 H277 0.931 . S
C256 C255 1.381 . S
C256 C257 1.321 . S
C257 C256 1.321 . S
C257 C258 1.403 . S
C257 H278 0.934 . S
C258 C253 1.413 . S
C258 C257 1.403 . S
C258 H279 0.930 . S
C259 O270 1.275 . S
C259 O271 1.256 . S
O260 Ho240 2.322 . S
O260 C242 1.259 . S
O261 Ho241 2.346 . S
O261 C242 1.268 . S
O262 Ho240 2.378 . S
O262 C243 1.215 . S
O263 Ho240 2.524 . S
O263 C243 1.289 . S
O264 Ho240 2.381 . S
O264 C250 1.275 . S
O265 Ho240 2.669 . S
O265 Ho241 2.305 . S
O265 C250 1.256 . S
O266 Ho241 2.322 . S
O266 C251 1.259 . S
O267 Ho240 2.346 . S
O267 C251 1.268 . S
O268 Ho241 2.378 . S
O268 C252 1.215 . S
O269 Ho241 2.524 . S
O269 C252 1.289 . S
O270 Ho241 2.381 . S
O270 C259 1.275 . S
O271 Ho240 2.305 . S
O271 Ho241 2.669 . S
O271 C259 1.256 . S
H272 C245 0.930 . S
H273 C246 0.931 . S
H274 C248 0.934 . S
H275 C249 0.930 . S
H276 C254 0.930 . S
H277 C255 0.931 . S
H278 C257 0.934 . S
H279 C258 0.930 . S
Ho280 C283 2.811 . S
Ho280 O300 2.322 . S
Ho280 O302 2.378 . S
Ho280 O303 2.524 . S
Ho280 O304 2.381 . S
Ho280 O305 2.669 . S
Ho280 O307 2.346 . S
Ho280 O311 2.305 . S
Ho281 C292 2.811 . S
Ho281 O301 2.346 . S
Ho281 O305 2.305 . S
Ho281 O306 2.322 . S
Ho281 O308 2.378 . S
Ho281 O309 2.524 . S
Ho281 O310 2.381 . S
Ho281 O311 2.669 . S
C282 O300 1.259 . S
C282 O301 1.268 . S
C283 Ho280 2.811 . S
C283 C284 1.488 . S
C283 O302 1.215 . S
C283 O303 1.289 . S
C284 C283 1.488 . S
C284 C285 1.348 . S
C284 C289 1.413 . S
C285 C284 1.348 . S
C285 C286 1.442 . S
C285 H312 0.930 . S
C286 C285 1.442 . S
C286 C287 1.381 . S
C286 H313 0.931 . S
C287 C286 1.381 . S
C287 C288 1.321 . S
C288 C287 1.321 . S
C288 C289 1.403 . S
C288 H314 0.934 . S
C289 C284 1.413 . S
C289 C288 1.403 . S
C289 H315 0.930 . S
C290 O304 1.275 . S
C290 O305 1.256 . S
C291 O306 1.259 . S
C291 O307 1.268 . S
C292 Ho281 2.811 . S
C292 C293 1.504 . S
C292 O308 1.215 . S
C292 O309 1.289 . S
C293 C292 1.504 . S
C293 C294 1.358 . S
C293 C298 1.388 1_455 S
C294 C293 1.358 . S
C294 C295 1.442 1_455 S
C294 H316 0.930 . S
C295 C294 1.442 1_655 S
C295 C296 1.381 . S
C295 H317 0.922 1_655 S
C296 C295 1.381 . S
C296 C297 1.321 . S
C297 C296 1.321 . S
C297 C298 1.403 . S
C297 H318 0.934 . S
C298 C293 1.388 1_655 S
C298 C297 1.403 . S
C298 H319 0.930 . S
C299 O310 1.275 . S
C299 O311 1.256 . S
O300 Ho280 2.322 . S
O300 C282 1.259 . S
O301 Ho281 2.346 . S
O301 C282 1.268 . S
O302 Ho280 2.378 . S
O302 C283 1.215 . S
O303 Ho280 2.524 . S
O303 C283 1.289 . S
O304 Ho280 2.381 . S
O304 C290 1.275 . S
O305 Ho280 2.669 . S
O305 Ho281 2.305 . S
O305 C290 1.256 . S
O306 Ho281 2.322 . S
O306 C291 1.259 . S
O307 Ho280 2.346 . S
O307 C291 1.268 . S
O308 Ho281 2.378 . S
O308 C292 1.215 . S
O309 Ho281 2.524 . S
O309 C292 1.289 . S
O310 Ho281 2.381 . S
O310 C299 1.275 . S
O311 Ho280 2.305 . S
O311 Ho281 2.669 . S
O311 C299 1.256 . S
H312 C285 0.930 . S
H313 C286 0.931 . S
H314 C288 0.934 . S
H315 C289 0.930 . S
H316 C294 0.930 . S
H317 C295 0.922 1_455 S
H318 C297 0.934 . S
H319 C298 0.930 . S
Ho320 C323 2.811 . S
Ho320 O340 2.322 . S
Ho320 O342 2.378 . S
Ho320 O343 2.524 . S
Ho320 O344 2.381 . S
Ho320 O345 2.669 . S
Ho320 O347 2.346 . S
Ho320 O351 2.305 . S
Ho321 C332 2.811 . S
Ho321 O341 2.346 . S
Ho321 O345 2.305 . S
Ho321 O346 2.322 . S
Ho321 O348 2.378 . S
Ho321 O349 2.524 . S
Ho321 O350 2.381 . S
Ho321 O351 2.669 . S
C322 O340 1.259 . S
C322 O341 1.268 . S
C323 Ho320 2.811 . S
C323 C324 1.488 . S
C323 O342 1.215 . S
C323 O343 1.289 . S
C324 C323 1.488 . S
C324 C325 1.348 . S
C324 C329 1.413 . S
C325 C324 1.348 . S
C325 C326 1.442 . S
C325 H352 0.930 . S
C326 C325 1.442 . S
C326 C327 1.381 . S
C326 H353 0.931 . S
C327 C326 1.381 . S
C327 C328 1.321 . S
C328 C327 1.321 . S
C328 C329 1.403 . S
C328 H354 0.934 . S
C329 C324 1.413 . S
C329 C328 1.403 . S
C329 H355 0.930 . S
C330 O344 1.275 . S
C330 O345 1.256 . S
C331 O346 1.259 . S
C331 O347 1.268 . S
C332 Ho321 2.811 . S
C332 C333 1.488 . S
C332 O348 1.215 . S
C332 O349 1.289 . S
C333 C332 1.488 . S
C333 C334 1.348 . S
C333 C338 1.413 . S
C334 C333 1.348 . S
C334 C335 1.442 . S
C334 H356 0.930 . S
C335 C334 1.442 . S
C335 C336 1.381 . S
C335 H357 0.931 . S
C336 C335 1.381 . S
C336 C337 1.321 . S
C337 C336 1.321 . S
C337 C338 1.403 . S
C337 H358 0.934 . S
C338 C333 1.413 . S
C338 C337 1.403 . S
C338 H359 0.930 . S
C339 O350 1.275 . S
C339 O351 1.256 . S
O340 Ho320 2.322 . S
O340 C322 1.259 . S
O341 Ho321 2.346 . S
O341 C322 1.268 . S
O342 Ho320 2.378 . S
O342 C323 1.215 . S
O343 Ho320 2.524 . S
O343 C323 1.289 . S
O344 Ho320 2.381 . S
O344 C330 1.275 . S
O345 Ho320 2.669 . S
O345 Ho321 2.305 . S
O345 C330 1.256 . S
O346 Ho321 2.322 . S
O346 C331 1.259 . S
O347 Ho320 2.346 . S
O347 C331 1.268 . S
O348 Ho321 2.378 . S
O348 C332 1.215 . S
O349 Ho321 2.524 . S
O349 C332 1.289 . S
O350 Ho321 2.381 . S
O350 C339 1.275 . S
O351 Ho320 2.305 . S
O351 Ho321 2.669 . S
O351 C339 1.256 . S
H352 C325 0.930 . S
H353 C326 0.931 . S
H354 C328 0.934 . S
H355 C329 0.930 . S
H356 C334 0.930 . S
H357 C335 0.931 . S
H358 C337 0.934 . S
H359 C338 0.930 . S
Ho360 C363 2.811 . S
Ho360 O380 2.322 . S
Ho360 O382 2.378 . S
Ho360 O383 2.524 1_545 S
Ho360 O384 2.381 . S
Ho360 O385 2.669 . S
Ho360 O387 2.346 . S
Ho360 O391 2.305 . S
Ho361 C372 2.811 . S
Ho361 O381 2.346 . S
Ho361 O385 2.305 . S
Ho361 O386 2.322 . S
Ho361 O388 2.378 . S
Ho361 O389 2.524 . S
Ho361 O390 2.381 . S
Ho361 O391 2.669 . S
C362 O380 1.259 . S
C362 O381 1.268 . S
C363 Ho360 2.811 . S
C363 C364 1.504 1_545 S
C363 O382 1.215 . S
C363 O383 1.289 1_545 S
C364 C363 1.504 1_565 S
C364 C365 1.358 . S
C364 C369 1.388 1_465 S
C365 C364 1.358 . S
C365 C366 1.442 1_455 S
C365 H392 0.930 . S
C366 C365 1.442 1_655 S
C366 C367 1.381 . S
C366 H393 0.922 1_655 S
C367 C366 1.381 . S
C367 C368 1.321 . S
C368 C367 1.321 . S
C368 C369 1.403 1_565 S
C368 H394 0.934 . S
C369 C364 1.388 1_645 S
C369 C368 1.403 1_545 S
C369 H395 0.930 . S
C370 O384 1.275 . S
C370 O385 1.256 . S
C371 O386 1.259 . S
C371 O387 1.268 . S
C372 Ho361 2.811 . S
C372 C373 1.488 . S
C372 O388 1.215 . S
C372 O389 1.289 . S
C373 C372 1.488 . S
C373 C374 1.348 . S
C373 C378 1.413 . S
C374 C373 1.348 . S
C374 C375 1.442 . S
C374 H396 0.930 . S
C375 C374 1.442 . S
C375 C376 1.381 . S
C375 H397 0.931 . S
C376 C375 1.381 . S
C376 C377 1.321 . S
C377 C376 1.321 . S
C377 C378 1.403 . S
C377 H398 0.934 . S
C378 C373 1.413 . S
C378 C377 1.403 . S
C378 H399 0.930 . S
C379 O390 1.275 . S
C379 O391 1.256 . S
O380 Ho360 2.322 . S
O380 C362 1.259 . S
O381 Ho361 2.346 . S
O381 C362 1.268 . S
O382 Ho360 2.378 . S
O382 C363 1.215 . S
O383 Ho360 2.524 1_565 S
O383 C363 1.289 1_565 S
O384 Ho360 2.381 . S
O384 C370 1.275 . S
O385 Ho360 2.669 . S
O385 Ho361 2.305 . S
O385 C370 1.256 . S
O386 Ho361 2.322 . S
O386 C371 1.259 . S
O387 Ho360 2.346 . S
O387 C371 1.268 . S
O388 Ho361 2.378 . S
O388 C372 1.215 . S
O389 Ho361 2.524 . S
O389 C372 1.289 . S
O390 Ho361 2.381 . S
O390 C379 1.275 . S
O391 Ho360 2.305 . S
O391 Ho361 2.669 . S
O391 C379 1.256 . S
H392 C365 0.930 . S
H393 C366 0.922 1_455 S
H394 C368 0.934 . S
H395 C369 0.930 . S
H396 C374 0.930 . S
H397 C375 0.931 . S
H398 C377 0.934 . S
H399 C378 0.930 . S
Ho400 C403 2.811 . S
Ho400 O420 2.322 . S
Ho400 O422 2.378 . S
Ho400 O423 2.524 . S
Ho400 O424 2.381 . S
Ho400 O425 2.669 . S
Ho400 O427 2.346 . S
Ho400 O431 2.305 . S
Ho401 C412 2.811 . S
Ho401 O421 2.346 . S
Ho401 O425 2.305 . S
Ho401 O426 2.322 . S
Ho401 O428 2.378 . S
Ho401 O429 2.524 . S
Ho401 O430 2.381 . S
Ho401 O431 2.669 . S
C402 O420 1.259 . S
C402 O421 1.268 . S
C403 Ho400 2.811 . S
C403 C404 1.488 . S
C403 O422 1.215 . S
C403 O423 1.289 . S
C404 C403 1.488 . S
C404 C405 1.348 . S
C404 C409 1.413 . S
C405 C404 1.348 . S
C405 C406 1.442 . S
C405 H432 0.930 . S
C406 C405 1.442 . S
C406 C407 1.381 . S
C406 H433 0.931 . S
C407 C406 1.381 . S
C407 C408 1.321 . S
C408 C407 1.321 . S
C408 C409 1.403 . S
C408 H434 0.934 . S
C409 C404 1.413 . S
C409 C408 1.403 . S
C409 H435 0.930 . S
C410 O424 1.275 . S
C410 O425 1.256 . S
C411 O426 1.259 . S
C411 O427 1.268 . S
C412 Ho401 2.811 . S
C412 C413 1.488 . S
C412 O428 1.215 . S
C412 O429 1.289 . S
C413 C412 1.488 . S
C413 C414 1.348 . S
C413 C418 1.413 . S
C414 C413 1.348 . S
C414 C415 1.442 . S
C414 H436 0.930 . S
C415 C414 1.442 . S
C415 C416 1.381 . S
C415 H437 0.931 . S
C416 C415 1.381 . S
C416 C417 1.321 . S
C417 C416 1.321 . S
C417 C418 1.403 . S
C417 H438 0.934 . S
C418 C413 1.413 . S
C418 C417 1.403 . S
C418 H439 0.930 . S
C419 O430 1.275 . S
C419 O431 1.256 . S
O420 Ho400 2.322 . S
O420 C402 1.259 . S
O421 Ho401 2.346 . S
O421 C402 1.268 . S
O422 Ho400 2.378 . S
O422 C403 1.215 . S
O423 Ho400 2.524 . S
O423 C403 1.289 . S
O424 Ho400 2.381 . S
O424 C410 1.275 . S
O425 Ho400 2.669 . S
O425 Ho401 2.305 . S
O425 C410 1.256 . S
O426 Ho401 2.322 . S
O426 C411 1.259 . S
O427 Ho400 2.346 . S
O427 C411 1.268 . S
O428 Ho401 2.378 . S
O428 C412 1.215 . S
O429 Ho401 2.524 . S
O429 C412 1.289 . S
O430 Ho401 2.381 . S
O430 C419 1.275 . S
O431 Ho400 2.305 . S
O431 Ho401 2.669 . S
O431 C419 1.256 . S
H432 C405 0.930 . S
H433 C406 0.931 . S
H434 C408 0.934 . S
H435 C409 0.930 . S
H436 C414 0.930 . S
H437 C415 0.931 . S
H438 C417 0.934 . S
H439 C418 0.930 . S
Ho440 C443 2.811 . S
Ho440 O460 2.322 . S
Ho440 O462 2.378 . S
Ho440 O463 2.524 1_565 S
Ho440 O464 2.381 . S
Ho440 O465 2.669 . S
Ho440 O467 2.346 . S
Ho440 O471 2.305 . S
Ho441 C452 2.811 . S
Ho441 O461 2.346 . S
Ho441 O465 2.305 . S
Ho441 O466 2.322 . S
Ho441 O468 2.378 . S
Ho441 O469 2.524 . S
Ho441 O470 2.381 . S
Ho441 O471 2.669 . S
C442 O460 1.259 . S
C442 O461 1.268 . S
C443 Ho440 2.811 . S
C443 C444 1.488 1_565 S
C443 O462 1.215 . S
C443 O463 1.289 1_565 S
C444 C443 1.488 1_545 S
C444 C445 1.348 . S
C444 C449 1.413 1_545 S
C445 C444 1.348 . S
C445 C446 1.442 . S
C445 H472 0.930 . S
C446 C445 1.442 . S
C446 C447 1.381 . S
C446 H473 0.931 . S
C447 C446 1.381 . S
C447 C448 1.321 . S
C448 C447 1.321 . S
C448 C449 1.403 1_545 S
C448 H474 0.934 . S
C449 C444 1.413 1_565 S
C449 C448 1.403 1_565 S
C449 H475 0.930 . S
C450 O464 1.275 . S
C450 O465 1.256 . S
C451 O466 1.259 . S
C451 O467 1.268 . S
C452 Ho441 2.811 . S
C452 C453 1.488 . S
C452 O468 1.215 . S
C452 O469 1.289 . S
C453 C452 1.488 . S
C453 C454 1.348 . S
C453 C458 1.413 . S
C454 C453 1.348 . S
C454 C455 1.442 . S
C454 H476 0.930 . S
C455 C454 1.442 . S
C455 C456 1.381 . S
C455 H477 0.931 . S
C456 C455 1.381 . S
C456 C457 1.321 . S
C457 C456 1.321 . S
C457 C458 1.403 . S
C457 H478 0.934 . S
C458 C453 1.413 . S
C458 C457 1.403 . S
C458 H479 0.930 . S
C459 O470 1.275 . S
C459 O471 1.256 . S
O460 Ho440 2.322 . S
O460 C442 1.259 . S
O461 Ho441 2.346 . S
O461 C442 1.268 . S
O462 Ho440 2.378 . S
O462 C443 1.215 . S
O463 Ho440 2.524 1_545 S
O463 C443 1.289 1_545 S
O464 Ho440 2.381 . S
O464 C450 1.275 . S
O465 Ho440 2.669 . S
O465 Ho441 2.305 . S
O465 C450 1.256 . S
O466 Ho441 2.322 . S
O466 C451 1.259 . S
O467 Ho440 2.346 . S
O467 C451 1.268 . S
O468 Ho441 2.378 . S
O468 C452 1.215 . S
O469 Ho441 2.524 . S
O469 C452 1.289 . S
O470 Ho441 2.381 . S
O470 C459 1.275 . S
O471 Ho440 2.305 . S
O471 Ho441 2.669 . S
O471 C459 1.256 . S
H472 C445 0.930 . S
H473 C446 0.931 . S
H474 C448 0.934 . S
H475 C449 0.930 . S
H476 C454 0.930 . S
H477 C455 0.931 . S
H478 C457 0.934 . S
H479 C458 0.930 . S
Ho480 C483 2.811 . S
Ho480 O500 2.322 . S
Ho480 O502 2.378 . S
Ho480 O503 2.524 . S
Ho480 O504 2.381 . S
Ho480 O505 2.669 . S
Ho480 O507 2.346 . S
Ho480 O511 2.305 . S
Ho481 C492 2.811 . S
Ho481 O501 2.346 . S
Ho481 O505 2.305 . S
Ho481 O506 2.322 . S
Ho481 O508 2.378 . S
Ho481 O509 2.524 . S
Ho481 O510 2.381 . S
Ho481 O511 2.669 . S
C482 O500 1.259 . S
C482 O501 1.268 . S
C483 Ho480 2.811 . S
C483 C484 1.488 . S
C483 O502 1.215 . S
C483 O503 1.289 . S
C484 C483 1.488 . S
C484 C485 1.348 . S
C484 C489 1.413 . S
C485 C484 1.348 . S
C485 C486 1.442 . S
C485 H512 0.930 . S
C486 C485 1.442 . S
C486 C487 1.381 . S
C486 H513 0.931 . S
C487 C486 1.381 . S
C487 C488 1.321 . S
C488 C487 1.321 . S
C488 C489 1.403 . S
C488 H514 0.934 . S
C489 C484 1.413 . S
C489 C488 1.403 . S
C489 H515 0.930 . S
C490 O504 1.275 . S
C490 O505 1.256 . S
C491 O506 1.259 . S
C491 O507 1.268 . S
C492 Ho481 2.811 . S
C492 C493 1.488 . S
C492 O508 1.215 . S
C492 O509 1.289 . S
C493 C492 1.488 . S
C493 C494 1.348 . S
C493 C498 1.413 . S
C494 C493 1.348 . S
C494 C495 1.442 . S
C494 H516 0.930 . S
C495 C494 1.442 . S
C495 C496 1.381 . S
C495 H517 0.931 . S
C496 C495 1.381 . S
C496 C497 1.321 . S
C497 C496 1.321 . S
C497 C498 1.403 . S
C497 H518 0.934 . S
C498 C493 1.413 . S
C498 C497 1.403 . S
C498 H519 0.930 . S
C499 O510 1.275 . S
C499 O511 1.256 . S
O500 Ho480 2.322 . S
O500 C482 1.259 . S
O501 Ho481 2.346 . S
O501 C482 1.268 . S
O502 Ho480 2.378 . S
O502 C483 1.215 . S
O503 Ho480 2.524 . S
O503 C483 1.289 . S
O504 Ho480 2.381 . S
O504 C490 1.275 . S
O505 Ho480 2.669 . S
O505 Ho481 2.305 . S
O505 C490 1.256 . S
O506 Ho481 2.322 . S
O506 C491 1.259 . S
O507 Ho480 2.346 . S
O507 C491 1.268 . S
O508 Ho481 2.378 . S
O508 C492 1.215 . S
O509 Ho481 2.524 . S
O509 C492 1.289 . S
O510 Ho481 2.381 . S
O510 C499 1.275 . S
O511 Ho480 2.305 . S
O511 Ho481 2.669 . S
O511 C499 1.256 . S
H512 C485 0.930 . S
H513 C486 0.931 . S
H514 C488 0.934 . S
H515 C489 0.930 . S
H516 C494 0.930 . S
H517 C495 0.931 . S
H518 C497 0.934 . S
H519 C498 0.930 . S
Ho520 C523 2.811 . S
Ho520 O540 2.322 . S
Ho520 O542 2.378 . S
Ho520 O543 2.524 . S
Ho520 O544 2.381 . S
Ho520 O545 2.669 . S
Ho520 O547 2.346 . S
Ho520 O551 2.305 . S
Ho521 C532 2.811 . S
Ho521 O541 2.346 . S
Ho521 O545 2.305 . S
Ho521 O546 2.322 . S
Ho521 O548 2.378 . S
Ho521 O549 2.524 1_565 S
Ho521 O550 2.381 . S
Ho521 O551 2.669 . S
C522 O540 1.259 . S
C522 O541 1.268 . S
C523 Ho520 2.811 . S
C523 C524 1.488 . S
C523 O542 1.215 . S
C523 O543 1.289 . S
C524 C523 1.488 . S
C524 C525 1.348 . S
C524 C529 1.413 . S
C525 C524 1.348 . S
C525 C526 1.442 . S
C525 H552 0.930 . S
C526 C525 1.442 . S
C526 C527 1.381 . S
C526 H553 0.931 . S
C527 C526 1.381 . S
C527 C528 1.321 . S
C528 C527 1.321 . S
C528 C529 1.403 . S
C528 H554 0.934 . S
C529 C524 1.413 . S
C529 C528 1.403 . S
C529 H555 0.930 . S
C530 O544 1.275 . S
C530 O545 1.256 . S
C531 O546 1.259 . S
C531 O547 1.268 . S
C532 Ho521 2.811 . S
C532 C533 1.504 1_565 S
C532 O548 1.215 . S
C532 O549 1.289 1_565 S
C533 C532 1.504 1_545 S
C533 C534 1.358 . S
C533 C538 1.388 1_645 S
C534 C533 1.358 . S
C534 C535 1.442 1_655 S
C534 H556 0.930 . S
C535 C534 1.442 1_455 S
C535 C536 1.381 . S
C535 H557 0.922 1_455 S
C536 C535 1.381 . S
C536 C537 1.321 . S
C537 C536 1.321 . S
C537 C538 1.403 1_545 S
C537 H558 0.934 . S
C538 C533 1.388 1_465 S
C538 C537 1.403 1_565 S
C538 H559 0.930 . S
C539 O550 1.275 . S
C539 O551 1.256 . S
O540 Ho520 2.322 . S
O540 C522 1.259 . S
O541 Ho521 2.346 . S
O541 C522 1.268 . S
O542 Ho520 2.378 . S
O542 C523 1.215 . S
O543 Ho520 2.524 . S
O543 C523 1.289 . S
O544 Ho520 2.381 . S
O544 C530 1.275 . S
O545 Ho520 2.669 . S
O545 Ho521 2.305 . S
O545 C530 1.256 . S
O546 Ho521 2.322 . S
O546 C531 1.259 . S
O547 Ho520 2.346 . S
O547 C531 1.268 . S
O548 Ho521 2.378 . S
O548 C532 1.215 . S
O549 Ho521 2.524 1_545 S
O549 C532 1.289 1_545 S
O550 Ho521 2.381 . S
O550 C539 1.275 . S
O551 Ho520 2.305 . S
O551 Ho521 2.669 . S
O551 C539 1.256 . S
H552 C525 0.930 . S
H553 C526 0.931 . S
H554 C528 0.934 . S
H555 C529 0.930 . S
H556 C534 0.930 . S
H557 C535 0.922 1_655 S
H558 C537 0.934 . S
H559 C538 0.930 . S
Ho560 C563 2.811 . S
Ho560 O580 2.322 . S
Ho560 O582 2.378 . S
Ho560 O583 2.524 . S
Ho560 O584 2.381 . S
Ho560 O585 2.669 . S
Ho560 O587 2.346 . S
Ho560 O591 2.305 . S
Ho561 C572 2.811 . S
Ho561 O581 2.346 . S
Ho561 O585 2.305 . S
Ho561 O586 2.322 . S
Ho561 O588 2.378 . S
Ho561 O589 2.524 . S
Ho561 O590 2.381 . S
Ho561 O591 2.669 . S
C562 O580 1.259 . S
C562 O581 1.268 . S
C563 Ho560 2.811 . S
C563 C564 1.488 . S
C563 O582 1.215 . S
C563 O583 1.289 . S
C564 C563 1.488 . S
C564 C565 1.348 . S
C564 C569 1.413 . S
C565 C564 1.348 . S
C565 C566 1.442 . S
C565 H592 0.930 . S
C566 C565 1.442 . S
C566 C567 1.381 . S
C566 H593 0.931 . S
C567 C566 1.381 . S
C567 C568 1.321 . S
C568 C567 1.321 . S
C568 C569 1.403 . S
C568 H594 0.934 . S
C569 C564 1.413 . S
C569 C568 1.403 . S
C569 H595 0.930 . S
C570 O584 1.275 . S
C570 O585 1.256 . S
C571 O586 1.259 . S
C571 O587 1.268 . S
C572 Ho561 2.811 . S
C572 C573 1.488 . S
C572 O588 1.215 . S
C572 O589 1.289 . S
C573 C572 1.488 . S
C573 C574 1.348 . S
C573 C578 1.413 . S
C574 C573 1.348 . S
C574 C575 1.442 . S
C574 H596 0.930 . S
C575 C574 1.442 . S
C575 C576 1.381 . S
C575 H597 0.931 . S
C576 C575 1.381 . S
C576 C577 1.321 . S
C577 C576 1.321 . S
C577 C578 1.403 . S
C577 H598 0.934 . S
C578 C573 1.413 . S
C578 C577 1.403 . S
C578 H599 0.930 . S
C579 O590 1.275 . S
C579 O591 1.256 . S
O580 Ho560 2.322 . S
O580 C562 1.259 . S
O581 Ho561 2.346 . S
O581 C562 1.268 . S
O582 Ho560 2.378 . S
O582 C563 1.215 . S
O583 Ho560 2.524 . S
O583 C563 1.289 . S
O584 Ho560 2.381 . S
O584 C570 1.275 . S
O585 Ho560 2.669 . S
O585 Ho561 2.305 . S
O585 C570 1.256 . S
O586 Ho561 2.322 . S
O586 C571 1.259 . S
O587 Ho560 2.346 . S
O587 C571 1.268 . S
O588 Ho561 2.378 . S
O588 C572 1.215 . S
O589 Ho561 2.524 . S
O589 C572 1.289 . S
O590 Ho561 2.381 . S
O590 C579 1.275 . S
O591 Ho560 2.305 . S
O591 Ho561 2.669 . S
O591 C579 1.256 . S
H592 C565 0.930 . S
H593 C566 0.931 . S
H594 C568 0.934 . S
H595 C569 0.930 . S
H596 C574 0.930 . S
H597 C575 0.931 . S
H598 C577 0.934 . S
H599 C578 0.930 . S
Ho600 C603 2.811 . S
Ho600 O620 2.322 . S
Ho600 O622 2.378 . S
Ho600 O623 2.524 . S
Ho600 O624 2.381 . S
Ho600 O625 2.669 . S
Ho600 O627 2.346 . S
Ho600 O631 2.305 . S
Ho601 C612 2.811 . S
Ho601 O621 2.346 . S
Ho601 O625 2.305 . S
Ho601 O626 2.322 . S
Ho601 O628 2.378 . S
Ho601 O629 2.524 1_545 S
Ho601 O630 2.381 . S
Ho601 O631 2.669 . S
C602 O620 1.259 . S
C602 O621 1.268 . S
C603 Ho600 2.811 . S
C603 C604 1.488 . S
C603 O622 1.215 . S
C603 O623 1.289 . S
C604 C603 1.488 . S
C604 C605 1.348 . S
C604 C609 1.413 . S
C605 C604 1.348 . S
C605 C606 1.442 . S
C605 H632 0.930 . S
C606 C605 1.442 . S
C606 C607 1.381 . S
C606 H633 0.931 . S
C607 C606 1.381 . S
C607 C608 1.321 . S
C608 C607 1.321 . S
C608 C609 1.403 . S
C608 H634 0.934 . S
C609 C604 1.413 . S
C609 C608 1.403 . S
C609 H635 0.930 . S
C610 O624 1.275 . S
C610 O625 1.256 . S
C611 O626 1.259 . S
C611 O627 1.268 . S
C612 Ho601 2.811 . S
C612 C613 1.488 1_545 S
C612 O628 1.215 . S
C612 O629 1.289 1_545 S
C613 C612 1.488 1_565 S
C613 C614 1.348 . S
C613 C618 1.413 1_565 S
C614 C613 1.348 . S
C614 C615 1.442 . S
C614 H636 0.930 . S
C615 C614 1.442 . S
C615 C616 1.381 . S
C615 H637 0.931 . S
C616 C615 1.381 . S
C616 C617 1.321 . S
C617 C616 1.321 . S
C617 C618 1.403 1_565 S
C617 H638 0.934 . S
C618 C613 1.413 1_545 S
C618 C617 1.403 1_545 S
C618 H639 0.930 . S
C619 O630 1.275 . S
C619 O631 1.256 . S
O620 Ho600 2.322 . S
O620 C602 1.259 . S
O621 Ho601 2.346 . S
O621 C602 1.268 . S
O622 Ho600 2.378 . S
O622 C603 1.215 . S
O623 Ho600 2.524 . S
O623 C603 1.289 . S
O624 Ho600 2.381 . S
O624 C610 1.275 . S
O625 Ho600 2.669 . S
O625 Ho601 2.305 . S
O625 C610 1.256 . S
O626 Ho601 2.322 . S
O626 C611 1.259 . S
O627 Ho600 2.346 . S
O627 C611 1.268 . S
O628 Ho601 2.378 . S
O628 C612 1.215 . S
O629 Ho601 2.524 1_565 S
O629 C612 1.289 1_565 S
O630 Ho601 2.381 . S
O630 C619 1.275 . S
O631 Ho600 2.305 . S
O631 Ho601 2.669 . S
O631 C619 1.256 . S
H632 C605 0.930 . S
H633 C606 0.931 . S
H634 C608 0.934 . S
H635 C609 0.930 . S
H636 C614 0.930 . S
H637 C615 0.931 . S
H638 C617 0.934 . S
H639 C618 0.930 . S
H640 C648 0.950 . S
H641 C653 0.950 . S
H642 C650 0.950 . S
H643 C652 0.950 . S
H644 C654 0.950 . S
H645 C656 0.950 . S
H646 C658 0.950 . S
H647 C659 0.950 . S
C648 H640 0.950 . S
C648 C649 1.386 . S
C648 C650 1.391 . S
C649 C648 1.386 . S
C649 C653 1.393 . S
C650 H642 0.950 . S
C650 C648 1.391 . S
C650 C651 1.400 . S
C651 C650 1.400 . S
C651 C652 1.398 . S
C651 C657 1.491 . S
C652 H643 0.950 . S
C652 C651 1.398 . S
C652 C653 1.391 . S
C653 H641 0.950 . S
C653 C649 1.393 . S
C653 C652 1.391 . S
C654 H644 0.950 . S
C654 C655 1.386 . S
C654 C656 1.391 . S
C655 C654 1.386 . S
C655 C659 1.393 . S
C656 H645 0.950 . S
C656 C654 1.391 . S
C656 C657 1.400 . S
C657 C651 1.491 . S
C657 C656 1.400 . S
C657 C658 1.398 . S
C658 H646 0.950 . S
C658 C657 1.398 . S
C658 C659 1.391 . S
C659 H647 0.950 . S
C659 C655 1.393 . S
C659 C658 1.391 . S
H660 C668 0.950 . S
H661 C673 0.950 . S
H662 C670 0.950 . S
H663 C672 0.950 . S
H664 C674 0.950 . S
H665 C676 0.950 . S
H666 C678 0.950 . S
H667 C679 0.950 . S
C668 H660 0.950 . S
C668 C669 1.386 . S
C668 C670 1.391 . S
C669 C668 1.386 . S
C669 C673 1.393 . S
C670 H662 0.950 . S
C670 C668 1.391 . S
C670 C671 1.400 . S
C671 C670 1.400 . S
C671 C672 1.398 . S
C671 C677 1.491 . S
C672 H663 0.950 . S
C672 C671 1.398 . S
C672 C673 1.391 . S
C673 H661 0.950 . S
C673 C669 1.393 . S
C673 C672 1.391 . S
C674 H664 0.950 . S
C674 C675 1.386 . S
C674 C676 1.391 . S
C675 C674 1.386 . S
C675 C679 1.393 . S
C676 H665 0.950 . S
C676 C674 1.391 . S
C676 C677 1.400 . S
C677 C671 1.491 . S
C677 C676 1.400 . S
C677 C678 1.398 . S
C678 H666 0.950 . S
C678 C677 1.398 . S
C678 C679 1.391 . S
C679 H667 0.950 . S
C679 C675 1.393 . S
C679 C678 1.391 . S
H680 C688 0.950 . S
H681 C693 0.950 . S
H682 C690 0.950 . S
H683 C692 0.950 . S
H684 C694 0.950 . S
H685 C696 0.950 . S
H686 C698 0.950 . S
H687 C699 0.950 . S
C688 H680 0.950 . S
C688 C689 1.386 . S
C688 C690 1.391 . S
C689 C688 1.386 . S
C689 C693 1.393 . S
C690 H682 0.950 . S
C690 C688 1.391 . S
C690 C691 1.400 . S
C691 C690 1.400 . S
C691 C692 1.398 . S
C691 C697 1.491 1_455 S
C692 H683 0.950 . S
C692 C691 1.398 . S
C692 C693 1.391 . S
C693 H681 0.950 . S
C693 C689 1.393 . S
C693 C692 1.391 . S
C694 H684 0.950 . S
C694 C695 1.386 . S
C694 C696 1.391 . S
C695 C694 1.386 . S
C695 C699 1.393 . S
C696 H685 0.950 . S
C696 C694 1.391 . S
C696 C697 1.400 . S
C697 C691 1.491 1_655 S
C697 C696 1.400 . S
C697 C698 1.398 . S
C698 H686 0.950 . S
C698 C697 1.398 . S
C698 C699 1.391 . S
C699 H687 0.950 . S
C699 C695 1.393 . S
C699 C698 1.391 . S
H700 C708 0.950 . S
H701 C713 0.950 1_655 S
H702 C710 0.950 . S
H703 C712 0.950 . S
H704 C714 0.950 . S
H705 C716 0.950 . S
H706 C718 0.950 . S
H707 C719 0.950 1_455 S
C708 H700 0.950 . S
C708 C709 1.386 . S
C708 C710 1.391 . S
C709 C708 1.386 . S
C709 C713 1.393 . S
C710 H702 0.950 . S
C710 C708 1.391 . S
C710 C711 1.400 . S
C711 C710 1.400 . S
C711 C712 1.398 1_455 S
C711 C717 1.491 1_455 S
C712 H703 0.950 . S
C712 C711 1.398 1_655 S
C712 C713 1.391 1_655 S
C713 H701 0.950 1_455 S
C713 C709 1.393 . S
C713 C712 1.391 1_455 S
C714 H704 0.950 . S
C714 C715 1.386 . S
C714 C716 1.391 . S
C715 C714 1.386 . S
C715 C719 1.393 . S
C716 H705 0.950 . S
C716 C714 1.391 . S
C716 C717 1.400 . S
C717 C711 1.491 1_655 S
C717 C716 1.400 . S
C717 C718 1.398 1_655 S
C718 H706 0.950 . S
C718 C717 1.398 1_455 S
C718 C719 1.391 1_455 S
C719 H707 0.950 1_655 S
C719 C715 1.393 . S
C719 C718 1.391 1_655 S
H720 C728 0.950 . S
H721 C733 0.950 . S
H722 C730 0.950 . S
H723 C732 0.950 . S
H724 C734 0.950 . S
H725 C736 0.950 . S
H726 C738 0.950 . S
H727 C739 0.950 . S
C728 H720 0.950 . S
C728 C729 1.386 . S
C728 C730 1.391 . S
C729 C728 1.386 . S
C729 C733 1.393 . S
C730 H722 0.950 . S
C730 C728 1.391 . S
C730 C731 1.400 . S
C731 C730 1.400 . S
C731 C732 1.398 . S
C731 C737 1.491 . S
C732 H723 0.950 . S
C732 C731 1.398 . S
C732 C733 1.391 . S
C733 H721 0.950 . S
C733 C729 1.393 . S
C733 C732 1.391 . S
C734 H724 0.950 . S
C734 C735 1.386 . S
C734 C736 1.391 . S
C735 C734 1.386 . S
C735 C739 1.393 . S
C736 H725 0.950 . S
C736 C734 1.391 . S
C736 C737 1.400 . S
C737 C731 1.491 . S
C737 C736 1.400 . S
C737 C738 1.398 . S
C738 H726 0.950 . S
C738 C737 1.398 . S
C738 C739 1.391 . S
C739 H727 0.950 . S
C739 C735 1.393 . S
C739 C738 1.391 . S
H740 C748 0.950 . S
H741 C753 0.950 . S
H742 C750 0.950 . S
H743 C752 0.950 . S
H744 C754 0.950 . S
H745 C756 0.950 . S
H746 C758 0.950 . S
H747 C759 0.950 . S
C748 H740 0.950 . S
C748 C749 1.386 . S
C748 C750 1.391 . S
C749 C748 1.386 . S
C749 C753 1.393 . S
C750 H742 0.950 . S
C750 C748 1.391 . S
C750 C751 1.400 . S
C751 C750 1.400 . S
C751 C752 1.398 . S
C751 C757 1.491 . S
C752 H743 0.950 . S
C752 C751 1.398 . S
C752 C753 1.391 . S
C753 H741 0.950 . S
C753 C749 1.393 . S
C753 C752 1.391 . S
C754 H744 0.950 . S
C754 C755 1.386 . S
C754 C756 1.391 . S
C755 C754 1.386 . S
C755 C759 1.393 . S
C756 H745 0.950 . S
C756 C754 1.391 . S
C756 C757 1.400 . S
C757 C751 1.491 . S
C757 C756 1.400 . S
C757 C758 1.398 . S
C758 H746 0.950 . S
C758 C757 1.398 . S
C758 C759 1.391 . S
C759 H747 0.950 . S
C759 C755 1.393 . S
C759 C758 1.391 . S
H760 C768 0.950 . S
H761 C773 0.950 . S
H762 C770 0.950 . S
H763 C772 0.950 . S
H764 C774 0.950 . S
H765 C776 0.950 . S
H766 C778 0.950 . S
H767 C779 0.950 . S
C768 H760 0.950 . S
C768 C769 1.386 . S
C768 C770 1.391 . S
C769 C768 1.386 . S
C769 C773 1.393 . S
C770 H762 0.950 . S
C770 C768 1.391 . S
C770 C771 1.400 . S
C771 C770 1.400 . S
C771 C772 1.398 . S
C771 C777 1.491 1_455 S
C772 H763 0.950 . S
C772 C771 1.398 . S
C772 C773 1.391 . S
C773 H761 0.950 . S
C773 C769 1.393 . S
C773 C772 1.391 . S
C774 H764 0.950 . S
C774 C775 1.386 . S
C774 C776 1.391 . S
C775 C774 1.386 . S
C775 C779 1.393 . S
C776 H765 0.950 . S
C776 C774 1.391 . S
C776 C777 1.400 . S
C777 C771 1.491 1_655 S
C777 C776 1.400 . S
C777 C778 1.398 . S
C778 H766 0.950 . S
C778 C777 1.398 . S
C778 C779 1.391 . S
C779 H767 0.950 . S
C779 C775 1.393 . S
C779 C778 1.391 . S
H780 C788 0.950 . S
H781 C793 0.950 . S
H782 C790 0.950 . S
H783 C792 0.950 . S
H784 C794 0.950 . S
H785 C796 0.950 . S
H786 C798 0.950 . S
H787 C799 0.950 . S
C788 H780 0.950 . S
C788 C789 1.386 . S
C788 C790 1.391 . S
C789 C788 1.386 . S
C789 C793 1.393 . S
C790 H782 0.950 . S
C790 C788 1.391 . S
C790 C791 1.400 . S
C791 C790 1.400 . S
C791 C792 1.398 1_455 S
C791 C797 1.491 1_455 S
C792 H783 0.950 . S
C792 C791 1.398 1_655 S
C792 C793 1.391 1_655 S
C793 H781 0.950 . S
C793 C789 1.393 . S
C793 C792 1.391 1_455 S
C794 H784 0.950 . S
C794 C795 1.386 . S
C794 C796 1.391 . S
C795 C794 1.386 . S
C795 C799 1.393 . S
C796 H785 0.950 . S
C796 C794 1.391 . S
C796 C797 1.400 . S
C797 C791 1.491 1_655 S
C797 C796 1.400 . S
C797 C798 1.398 1_655 S
C798 H786 0.950 . S
C798 C797 1.398 1_455 S
C798 C799 1.391 1_455 S
C799 H787 0.950 . S
C799 C795 1.393 . S
C799 C798 1.391 1_655 S
H800 C808 0.954 . S
H801 C813 0.950 . S
H802 C810 0.950 . S
H803 C812 0.950 . S
H804 C814 0.954 . S
H805 C816 0.950 . S
H806 C818 0.950 . S
H807 C819 0.950 . S
C808 H800 0.954 . S
C808 C809 1.379 1_546 S
C808 C810 1.394 . S
C809 C808 1.379 1_564 S
C809 C813 1.393 . S
C810 H802 0.950 . S
C810 C808 1.394 . S
C810 C811 1.400 1_546 S
C811 C810 1.400 1_564 S
C811 C812 1.398 . S
C811 C817 1.491 1_564 S
C812 H803 0.950 . S
C812 C811 1.398 . S
C812 C813 1.391 . S
C813 H801 0.950 . S
C813 C809 1.393 . S
C813 C812 1.391 . S
C814 H804 0.954 . S
C814 C815 1.379 1_564 S
C814 C816 1.394 . S
C815 C814 1.379 1_546 S
C815 C819 1.393 . S
C816 H805 0.950 . S
C816 C814 1.394 . S
C816 C817 1.400 1_564 S
C817 C811 1.491 1_546 S
C817 C816 1.400 1_546 S
C817 C818 1.398 . S
C818 H806 0.950 . S
C818 C817 1.398 . S
C818 C819 1.391 . S
C819 H807 0.950 . S
C819 C815 1.393 . S
C819 C818 1.391 . S
H820 C828 0.950 . S
H821 C833 0.950 . S
H822 C830 0.950 . S
H823 C832 0.950 . S
H824 C834 0.950 . S
H825 C836 0.950 . S
H826 C838 0.950 . S
H827 C839 0.950 . S
C828 H820 0.950 . S
C828 C829 1.386 . S
C828 C830 1.391 . S
C829 C828 1.386 . S
C829 C833 1.393 . S
C830 H822 0.950 . S
C830 C828 1.391 . S
C830 C831 1.400 . S
C831 C830 1.400 . S
C831 C832 1.398 . S
C831 C837 1.491 . S
C832 H823 0.950 . S
C832 C831 1.398 . S
C832 C833 1.391 . S
C833 H821 0.950 . S
C833 C829 1.393 . S
C833 C832 1.391 . S
C834 H824 0.950 . S
C834 C835 1.386 . S
C834 C836 1.391 . S
C835 C834 1.386 . S
C835 C839 1.393 . S
C836 H825 0.950 . S
C836 C834 1.391 . S
C836 C837 1.400 . S
C837 C831 1.491 . S
C837 C836 1.400 . S
C837 C838 1.398 . S
C838 H826 0.950 . S
C838 C837 1.398 . S
C838 C839 1.391 . S
C839 H827 0.950 . S
C839 C835 1.393 . S
C839 C838 1.391 . S
H840 C848 0.950 . S
H841 C853 0.950 . S
H842 C850 0.950 . S
H843 C852 0.950 . S
H844 C854 0.950 . S
H845 C856 0.950 . S
H846 C858 0.950 . S
H847 C859 0.950 . S
C848 H840 0.950 . S
C848 C849 1.386 1_565 S
C848 C850 1.391 . S
C849 C848 1.386 1_545 S
C849 C853 1.393 . S
C850 H842 0.950 . S
C850 C848 1.391 . S
C850 C851 1.400 1_565 S
C851 C850 1.400 1_545 S
C851 C852 1.398 . S
C851 C857 1.491 1_445 S
C852 H843 0.950 . S
C852 C851 1.398 . S
C852 C853 1.391 . S
C853 H841 0.950 . S
C853 C849 1.393 . S
C853 C852 1.391 . S
C854 H844 0.950 . S
C854 C855 1.386 1_545 S
C854 C856 1.391 . S
C855 C854 1.386 1_565 S
C855 C859 1.393 . S
C856 H845 0.950 . S
C856 C854 1.391 . S
C856 C857 1.400 1_545 S
C857 C851 1.491 1_665 S
C857 C856 1.400 1_565 S
C857 C858 1.398 . S
C858 H846 0.950 . S
C858 C857 1.398 . S
C858 C859 1.391 . S
C859 H847 0.950 . S
C859 C855 1.393 . S
C859 C858 1.391 . S
H860 C868 0.950 . S
H861 C873 0.950 . S
H862 C870 0.950 . S
H863 C872 0.950 . S
H864 C874 0.950 . S
H865 C876 0.950 . S
H866 C878 0.950 . S
H867 C879 0.950 . S
C868 H860 0.950 . S
C868 C869 1.386 . S
C868 C870 1.391 . S
C869 C868 1.386 . S
C869 C873 1.393 . S
C870 H862 0.950 . S
C870 C868 1.391 . S
C870 C871 1.400 . S
C871 C870 1.400 . S
C871 C872 1.398 . S
C871 C877 1.491 . S
C872 H863 0.950 . S
C872 C871 1.398 . S
C872 C873 1.391 . S
C873 H861 0.950 . S
C873 C869 1.393 . S
C873 C872 1.391 . S
C874 H864 0.950 . S
C874 C875 1.386 . S
C874 C876 1.391 . S
C875 C874 1.386 . S
C875 C879 1.393 . S
C876 H865 0.950 . S
C876 C874 1.391 . S
C876 C877 1.400 . S
C877 C871 1.491 . S
C877 C876 1.400 . S
C877 C878 1.398 . S
C878 H866 0.950 . S
C878 C877 1.398 . S
C878 C879 1.391 . S
C879 H867 0.950 . S
C879 C875 1.393 . S
C879 C878 1.391 . S
H880 C888 0.950 . S
H881 C893 0.950 . S
H882 C890 0.950 . S
H883 C892 0.950 . S
H884 C894 0.950 . S
H885 C896 0.950 . S
H886 C898 0.950 . S
H887 C899 0.950 . S
C888 H880 0.950 . S
C888 C889 1.386 . S
C888 C890 1.391 . S
C889 C888 1.386 . S
C889 C893 1.393 . S
C890 H882 0.950 . S
C890 C888 1.391 . S
C890 C891 1.400 . S
C891 C890 1.400 . S
C891 C892 1.398 . S
C891 C897 1.491 . S
C892 H883 0.950 . S
C892 C891 1.398 . S
C892 C893 1.391 . S
C893 H881 0.950 . S
C893 C889 1.393 . S
C893 C892 1.391 . S
C894 H884 0.950 . S
C894 C895 1.386 . S
C894 C896 1.391 . S
C895 C894 1.386 . S
C895 C899 1.393 . S
C896 H885 0.950 . S
C896 C894 1.391 . S
C896 C897 1.400 . S
C897 C891 1.491 . S
C897 C896 1.400 . S
C897 C898 1.398 . S
C898 H886 0.950 . S
C898 C897 1.398 . S
C898 C899 1.391 . S
C899 H887 0.950 . S
C899 C895 1.393 . S
C899 C898 1.391 . S
H900 C908 0.950 . S
H901 C913 0.950 . S
H902 C910 0.950 . S
H903 C912 0.950 . S
H904 C914 0.950 . S
H905 C916 0.950 . S
H906 C918 0.950 . S
H907 C919 0.950 . S
C908 H900 0.950 . S
C908 C909 1.386 . S
C908 C910 1.391 . S
C909 C908 1.386 . S
C909 C913 1.393 . S
C910 H902 0.950 . S
C910 C908 1.391 . S
C910 C911 1.400 . S
C911 C910 1.400 . S
C911 C912 1.398 . S
C911 C917 1.491 . S
C912 H903 0.950 . S
C912 C911 1.398 . S
C912 C913 1.391 . S
C913 H901 0.950 . S
C913 C909 1.393 . S
C913 C912 1.391 . S
C914 H904 0.950 . S
C914 C915 1.386 . S
C914 C916 1.391 . S
C915 C914 1.386 . S
C915 C919 1.393 . S
C916 H905 0.950 . S
C916 C914 1.391 . S
C916 C917 1.400 . S
C917 C911 1.491 . S
C917 C916 1.400 . S
C917 C918 1.398 . S
C918 H906 0.950 . S
C918 C917 1.398 . S
C918 C919 1.391 . S
C919 H907 0.950 . S
C919 C915 1.393 . S
C919 C918 1.391 . S
H920 C928 0.950 . S
H921 C933 0.950 . S
H922 C930 0.950 . S
H923 C932 0.950 . S
H924 C934 0.950 . S
H925 C936 0.950 . S
H926 C938 0.950 . S
H927 C939 0.950 . S
C928 H920 0.950 . S
C928 C929 1.386 . S
C928 C930 1.391 . S
C929 C928 1.386 . S
C929 C933 1.393 . S
C930 H922 0.950 . S
C930 C928 1.391 . S
C930 C931 1.400 . S
C931 C930 1.400 . S
C931 C932 1.398 . S
C931 C937 1.491 1_455 S
C932 H923 0.950 . S
C932 C931 1.398 . S
C932 C933 1.391 . S
C933 H921 0.950 . S
C933 C929 1.393 . S
C933 C932 1.391 . S
C934 H924 0.950 . S
C934 C935 1.386 . S
C934 C936 1.391 . S
C935 C934 1.386 . S
C935 C939 1.393 . S
C936 H925 0.950 . S
C936 C934 1.391 . S
C936 C937 1.400 . S
C937 C931 1.491 1_655 S
C937 C936 1.400 . S
C937 C938 1.398 . S
C938 H926 0.950 . S
C938 C937 1.398 . S
C938 C939 1.391 . S
C939 H927 0.950 . S
C939 C935 1.393 . S
C939 C938 1.391 . S
H940 C948 0.950 . S
H941 C953 0.950 . S
H942 C950 0.950 . S
H943 C952 0.958 . S
H944 C954 0.950 . S
H945 C956 0.950 . S
H946 C958 0.958 . S
H947 C959 0.950 . S
C948 H940 0.950 . S
C948 C949 1.386 . S
C948 C950 1.391 . S
C949 C948 1.386 . S
C949 C953 1.393 . S
C950 H942 0.950 . S
C950 C948 1.391 . S
C950 C951 1.400 . S
C951 C950 1.400 . S
C951 C952 1.398 . S
C951 C957 1.491 1_554 S
C952 H943 0.958 . S
C952 C951 1.398 . S
C952 C953 1.391 . S
C953 H941 0.950 . S
C953 C949 1.393 . S
C953 C952 1.391 . S
C954 H944 0.950 . S
C954 C955 1.386 . S
C954 C956 1.391 . S
C955 C954 1.386 . S
C955 C959 1.393 . S
C956 H945 0.950 . S
C956 C954 1.391 . S
C956 C957 1.400 . S
C957 C951 1.491 1_556 S
C957 C956 1.400 . S
C957 C958 1.398 . S
C958 H946 0.958 . S
C958 C957 1.398 . S
C958 C959 1.391 . S
C959 H947 0.950 . S
C959 C955 1.393 . S
C959 C958 1.391 . S
H960 C968 0.950 . S
H961 C973 0.950 . S
H962 C970 0.950 . S
H963 C972 0.950 . S
H964 C974 0.950 . S
H965 C976 0.950 . S
H966 C978 0.950 . S
H967 C979 0.950 . S
C968 H960 0.950 . S
C968 C969 1.386 . S
C968 C970 1.391 . S
C969 C968 1.386 . S
C969 C973 1.393 . S
C970 H962 0.950 . S
C970 C968 1.391 . S
C970 C971 1.400 . S
C971 C970 1.400 . S
C971 C972 1.398 . S
C971 C977 1.491 . S
C972 H963 0.950 . S
C972 C971 1.398 . S
C972 C973 1.391 . S
C973 H961 0.950 . S
C973 C969 1.393 . S
C973 C972 1.391 . S
C974 H964 0.950 . S
C974 C975 1.386 . S
C974 C976 1.391 . S
C975 C974 1.386 . S
C975 C979 1.393 . S
C976 H965 0.950 . S
C976 C974 1.391 . S
C976 C977 1.400 . S
C977 C971 1.491 . S
C977 C976 1.400 . S
C977 C978 1.398 . S
C978 H966 0.950 . S
C978 C977 1.398 . S
C978 C979 1.391 . S
C979 H967 0.950 . S
C979 C975 1.393 . S
C979 C978 1.391 . S
H980 C988 0.950 . S
H981 C993 0.950 . S
H982 C990 0.950 . S
H983 C992 0.950 . S
H984 C994 0.950 . S
H985 C996 0.950 . S
H986 C998 0.950 . S
H987 C999 0.950 . S
C988 H980 0.950 . S
C988 C989 1.386 . S
C988 C990 1.391 . S
C989 C988 1.386 . S
C989 C993 1.393 . S
C990 H982 0.950 . S
C990 C988 1.391 . S
C990 C991 1.400 . S
C991 C990 1.400 . S
C991 C992 1.398 . S
C991 C997 1.491 . S
C992 H983 0.950 . S
C992 C991 1.398 . S
C992 C993 1.391 . S
C993 H981 0.950 . S
C993 C989 1.393 . S
C993 C992 1.391 . S
C994 H984 0.950 . S
C994 C995 1.386 . S
C994 C996 1.391 . S
C995 C994 1.386 . S
C995 C999 1.393 . S
C996 H985 0.950 . S
C996 C994 1.391 . S
C996 C997 1.400 . S
C997 C991 1.491 . S
C997 C996 1.400 . S
C997 C998 1.398 . S
C998 H986 0.950 . S
C998 C997 1.398 . S
C998 C999 1.391 . S
C999 H987 0.950 . S
C999 C995 1.393 . S
C999 C998 1.391 . S
H1000 C1008 0.950 . S
H1001 C1013 0.950 . S
H1002 C1010 0.950 . S
H1003 C1012 0.950 . S
H1004 C1014 0.950 . S
H1005 C1016 0.950 . S
H1006 C1018 0.950 . S
H1007 C1019 0.950 . S
C1008 H1000 0.950 . S
C1008 C1009 1.386 . S
C1008 C1010 1.391 . S
C1009 C1008 1.386 . S
C1009 C1013 1.393 . S
C1010 H1002 0.950 . S
C1010 C1008 1.391 . S
C1010 C1011 1.400 . S
C1011 C1010 1.400 . S
C1011 C1012 1.398 . S
C1011 C1017 1.491 . S
C1012 H1003 0.950 . S
C1012 C1011 1.398 . S
C1012 C1013 1.391 . S
C1013 H1001 0.950 . S
C1013 C1009 1.393 . S
C1013 C1012 1.391 . S
C1014 H1004 0.950 . S
C1014 C1015 1.386 . S
C1014 C1016 1.391 . S
C1015 C1014 1.386 . S
C1015 C1019 1.393 . S
C1016 H1005 0.950 . S
C1016 C1014 1.391 . S
C1016 C1017 1.400 . S
C1017 C1011 1.491 . S
C1017 C1016 1.400 . S
C1017 C1018 1.398 . S
C1018 H1006 0.950 . S
C1018 C1017 1.398 . S
C1018 C1019 1.391 . S
C1019 H1007 0.950 . S
C1019 C1015 1.393 . S
C1019 C1018 1.391 . S
H1020 C1028 0.950 . S
H1021 C1033 0.950 . S
H1022 C1030 0.950 . S
H1023 C1032 0.950 . S
H1024 C1034 0.950 . S
H1025 C1036 0.950 . S
H1026 C1038 0.950 . S
H1027 C1039 0.950 . S
C1028 H1020 0.950 . S
C1028 C1029 1.386 . S
C1028 C1030 1.391 . S
C1029 C1028 1.386 . S
C1029 C1033 1.393 . S
C1030 H1022 0.950 . S
C1030 C1028 1.391 . S
C1030 C1031 1.400 . S
C1031 C1030 1.400 . S
C1031 C1032 1.398 . S
C1031 C1037 1.491 . S
C1032 H1023 0.950 . S
C1032 C1031 1.398 . S
C1032 C1033 1.391 . S
C1033 H1021 0.950 . S
C1033 C1029 1.393 . S
C1033 C1032 1.391 . S
C1034 H1024 0.950 . S
C1034 C1035 1.386 . S
C1034 C1036 1.391 . S
C1035 C1034 1.386 . S
C1035 C1039 1.393 . S
C1036 H1025 0.950 . S
C1036 C1034 1.391 . S
C1036 C1037 1.400 . S
C1037 C1031 1.491 . S
C1037 C1036 1.400 . S
C1037 C1038 1.398 . S
C1038 H1026 0.950 . S
C1038 C1037 1.398 . S
C1038 C1039 1.391 . S
C1039 H1027 0.950 . S
C1039 C1035 1.393 . S
C1039 C1038 1.391 . S
H1040 C1048 0.950 . S
H1041 C1053 0.950 . S
H1042 C1050 0.950 . S
H1043 C1052 0.950 . S
H1044 C1054 0.950 . S
H1045 C1056 0.950 . S
H1046 C1058 0.950 . S
H1047 C1059 0.950 . S
C1048 H1040 0.950 . S
C1048 C1049 1.386 . S
C1048 C1050 1.391 . S
C1049 C1048 1.386 . S
C1049 C1053 1.393 . S
C1050 H1042 0.950 . S
C1050 C1048 1.391 . S
C1050 C1051 1.400 . S
C1051 C1050 1.400 . S
C1051 C1052 1.398 . S
C1051 C1057 1.491 . S
C1052 H1043 0.950 . S
C1052 C1051 1.398 . S
C1052 C1053 1.391 . S
C1053 H1041 0.950 . S
C1053 C1049 1.393 . S
C1053 C1052 1.391 . S
C1054 H1044 0.950 . S
C1054 C1055 1.386 . S
C1054 C1056 1.391 . S
C1055 C1054 1.386 . S
C1055 C1059 1.393 . S
C1056 H1045 0.950 . S
C1056 C1054 1.391 . S
C1056 C1057 1.400 . S
C1057 C1051 1.491 . S
C1057 C1056 1.400 . S
C1057 C1058 1.398 . S
C1058 H1046 0.950 . S
C1058 C1057 1.398 . S
C1058 C1059 1.391 . S
C1059 H1047 0.950 . S
C1059 C1055 1.393 . S
C1059 C1058 1.391 . S
H1060 C1068 0.950 . S
H1061 C1073 0.950 . S
H1062 C1070 0.950 . S
H1063 C1072 0.950 . S
H1064 C1074 0.950 . S
H1065 C1076 0.950 . S
H1066 C1078 0.950 . S
H1067 C1079 0.950 . S
C1068 H1060 0.950 . S
C1068 C1069 1.386 . S
C1068 C1070 1.391 . S
C1069 C1068 1.386 . S
C1069 C1073 1.393 . S
C1070 H1062 0.950 . S
C1070 C1068 1.391 . S
C1070 C1071 1.400 . S
C1071 C1070 1.400 . S
C1071 C1072 1.398 . S
C1071 C1077 1.491 . S
C1072 H1063 0.950 . S
C1072 C1071 1.398 . S
C1072 C1073 1.391 . S
C1073 H1061 0.950 . S
C1073 C1069 1.393 . S
C1073 C1072 1.391 . S
C1074 H1064 0.950 . S
C1074 C1075 1.386 . S
C1074 C1076 1.391 . S
C1075 C1074 1.386 . S
C1075 C1079 1.393 . S
C1076 H1065 0.950 . S
C1076 C1074 1.391 . S
C1076 C1077 1.400 . S
C1077 C1071 1.491 . S
C1077 C1076 1.400 . S
C1077 C1078 1.398 . S
C1078 H1066 0.950 . S
C1078 C1077 1.398 . S
C1078 C1079 1.391 . S
C1079 H1067 0.950 . S
C1079 C1075 1.393 . S
C1079 C1078 1.391 . S
H1080 C1088 0.950 . S
H1081 C1093 0.950 . S
H1082 C1090 0.950 . S
H1083 C1092 0.950 . S
H1084 C1094 0.950 . S
H1085 C1096 0.950 . S
H1086 C1098 0.950 . S
H1087 C1099 0.950 . S
C1088 H1080 0.950 . S
C1088 C1089 1.386 . S
C1088 C1090 1.391 . S
C1089 C1088 1.386 . S
C1089 C1093 1.393 . S
C1090 H1082 0.950 . S
C1090 C1088 1.391 . S
C1090 C1091 1.400 . S
C1091 C1090 1.400 . S
C1091 C1092 1.398 . S
C1091 C1097 1.491 . S
C1092 H1083 0.950 . S
C1092 C1091 1.398 . S
C1092 C1093 1.391 . S
C1093 H1081 0.950 . S
C1093 C1089 1.393 . S
C1093 C1092 1.391 . S
C1094 H1084 0.950 . S
C1094 C1095 1.386 . S
C1094 C1096 1.391 . S
C1095 C1094 1.386 . S
C1095 C1099 1.393 . S
C1096 H1085 0.950 . S
C1096 C1094 1.391 . S
C1096 C1097 1.400 . S
C1097 C1091 1.491 . S
C1097 C1096 1.400 . S
C1097 C1098 1.398 . S
C1098 H1086 0.950 . S
C1098 C1097 1.398 . S
C1098 C1099 1.391 . S
C1099 H1087 0.950 . S
C1099 C1095 1.393 . S
C1099 C1098 1.391 . S
H1100 C1108 0.950 . S
H1101 C1113 0.950 . S
H1102 C1110 0.950 . S
H1103 C1112 0.950 . S
H1104 C1114 0.950 . S
H1105 C1116 0.950 . S
H1106 C1118 0.950 . S
H1107 C1119 0.950 . S
C1108 H1100 0.950 . S
C1108 C1109 1.386 . S
C1108 C1110 1.391 . S
C1109 C1108 1.386 . S
C1109 C1113 1.393 . S
C1110 H1102 0.950 . S
C1110 C1108 1.391 . S
C1110 C1111 1.400 . S
C1111 C1110 1.400 . S
C1111 C1112 1.398 . S
C1111 C1117 1.491 . S
C1112 H1103 0.950 . S
C1112 C1111 1.398 . S
C1112 C1113 1.391 . S
C1113 H1101 0.950 . S
C1113 C1109 1.393 . S
C1113 C1112 1.391 . S
C1114 H1104 0.950 . S
C1114 C1115 1.386 . S
C1114 C1116 1.391 . S
C1115 C1114 1.386 . S
C1115 C1119 1.393 . S
C1116 H1105 0.950 . S
C1116 C1114 1.391 . S
C1116 C1117 1.400 . S
C1117 C1111 1.491 . S
C1117 C1116 1.400 . S
C1117 C1118 1.398 . S
C1118 H1106 0.950 . S
C1118 C1117 1.398 . S
C1118 C1119 1.391 . S
C1119 H1107 0.950 . S
C1119 C1115 1.393 . S
C1119 C1118 1.391 . S
H1120 C1128 0.950 . S
H1121 C1133 0.950 . S
H1122 C1130 0.950 . S
H1123 C1132 0.950 . S
H1124 C1134 0.950 . S
H1125 C1136 0.950 . S
H1126 C1138 0.950 . S
H1127 C1139 0.950 . S
C1128 H1120 0.950 . S
C1128 C1129 1.386 . S
C1128 C1130 1.391 . S
C1129 C1128 1.386 . S
C1129 C1133 1.393 . S
C1130 H1122 0.950 . S
C1130 C1128 1.391 . S
C1130 C1131 1.400 . S
C1131 C1130 1.400 . S
C1131 C1132 1.398 . S
C1131 C1137 1.491 . S
C1132 H1123 0.950 . S
C1132 C1131 1.398 . S
C1132 C1133 1.391 . S
C1133 H1121 0.950 . S
C1133 C1129 1.393 . S
C1133 C1132 1.391 . S
C1134 H1124 0.950 . S
C1134 C1135 1.386 . S
C1134 C1136 1.391 . S
C1135 C1134 1.386 . S
C1135 C1139 1.393 . S
C1136 H1125 0.950 . S
C1136 C1134 1.391 . S
C1136 C1137 1.400 . S
C1137 C1131 1.491 . S
C1137 C1136 1.400 . S
C1137 C1138 1.398 . S
C1138 H1126 0.950 . S
C1138 C1137 1.398 . S
C1138 C1139 1.391 . S
C1139 H1127 0.950 . S
C1139 C1135 1.393 . S
C1139 C1138 1.391 . S
H1140 C1148 0.950 . S
H1141 C1153 0.950 . S
H1142 C1150 0.950 . S
H1143 C1152 0.950 . S
H1144 C1154 0.950 . S
H1145 C1156 0.950 . S
H1146 C1158 0.950 . S
H1147 C1159 0.950 . S
C1148 H1140 0.950 . S
C1148 C1149 1.386 . S
C1148 C1150 1.391 . S
C1149 C1148 1.386 . S
C1149 C1153 1.393 . S
C1150 H1142 0.950 . S
C1150 C1148 1.391 . S
C1150 C1151 1.400 . S
C1151 C1150 1.400 . S
C1151 C1152 1.398 . S
C1151 C1157 1.491 . S
C1152 H1143 0.950 . S
C1152 C1151 1.398 . S
C1152 C1153 1.391 . S
C1153 H1141 0.950 . S
C1153 C1149 1.393 . S
C1153 C1152 1.391 . S
C1154 H1144 0.950 . S
C1154 C1155 1.386 . S
C1154 C1156 1.391 . S
C1155 C1154 1.386 . S
C1155 C1159 1.393 . S
C1156 H1145 0.950 . S
C1156 C1154 1.391 . S
C1156 C1157 1.400 . S
C1157 C1151 1.491 . S
C1157 C1156 1.400 . S
C1157 C1158 1.398 . S
C1158 H1146 0.950 . S
C1158 C1157 1.398 . S
C1158 C1159 1.391 . S
C1159 H1147 0.950 . S
C1159 C1155 1.393 . S
C1159 C1158 1.391 . S
H1160 C1168 0.950 . S
H1161 C1173 0.950 . S
H1162 C1170 0.950 . S
H1163 C1172 0.950 . S
H1164 C1174 0.950 . S
H1165 C1176 0.950 . S
H1166 C1178 0.950 . S
H1167 C1179 0.950 . S
C1168 H1160 0.950 . S
C1168 C1169 1.386 . S
C1168 C1170 1.391 . S
C1169 C1168 1.386 . S
C1169 C1173 1.393 . S
C1170 H1162 0.950 . S
C1170 C1168 1.391 . S
C1170 C1171 1.400 . S
C1171 C1170 1.400 . S
C1171 C1172 1.398 . S
C1171 C1177 1.491 . S
C1172 H1163 0.950 . S
C1172 C1171 1.398 . S
C1172 C1173 1.391 . S
C1173 H1161 0.950 . S
C1173 C1169 1.393 . S
C1173 C1172 1.391 . S
C1174 H1164 0.950 . S
C1174 C1175 1.386 . S
C1174 C1176 1.391 . S
C1175 C1174 1.386 . S
C1175 C1179 1.393 . S
C1176 H1165 0.950 . S
C1176 C1174 1.391 . S
C1176 C1177 1.400 . S
C1177 C1171 1.491 . S
C1177 C1176 1.400 . S
C1177 C1178 1.398 . S
C1178 H1166 0.950 . S
C1178 C1177 1.398 . S
C1178 C1179 1.391 . S
C1179 H1167 0.950 . S
C1179 C1175 1.393 . S
C1179 C1178 1.391 . S
H1180 C1188 0.950 . S
H1181 C1193 0.950 . S
H1182 C1190 0.950 . S
H1183 C1192 0.950 . S
H1184 C1194 0.950 . S
H1185 C1196 0.950 . S
H1186 C1198 0.950 . S
H1187 C1199 0.950 . S
C1188 H1180 0.950 . S
C1188 C1189 1.386 . S
C1188 C1190 1.391 . S
C1189 C1188 1.386 . S
C1189 C1193 1.393 . S
C1190 H1182 0.950 . S
C1190 C1188 1.391 . S
C1190 C1191 1.400 . S
C1191 C1190 1.400 . S
C1191 C1192 1.398 . S
C1191 C1197 1.491 . S
C1192 H1183 0.950 . S
C1192 C1191 1.398 . S
C1192 C1193 1.391 . S
C1193 H1181 0.950 . S
C1193 C1189 1.393 . S
C1193 C1192 1.391 . S
C1194 H1184 0.950 . S
C1194 C1195 1.386 . S
C1194 C1196 1.391 . S
C1195 C1194 1.386 . S
C1195 C1199 1.393 . S
C1196 H1185 0.950 . S
C1196 C1194 1.391 . S
C1196 C1197 1.400 . S
C1197 C1191 1.491 . S
C1197 C1196 1.400 . S
C1197 C1198 1.398 . S
C1198 H1186 0.950 . S
C1198 C1197 1.398 . S
C1198 C1199 1.391 . S
C1199 H1187 0.950 . S
C1199 C1195 1.393 . S
C1199 C1198 1.391 . S
H1200 C1208 0.950 . S
H1201 C1213 0.950 . S
H1202 C1210 0.950 . S
H1203 C1212 0.950 . S
H1204 C1214 0.950 . S
H1205 C1216 0.950 . S
H1206 C1218 0.950 . S
H1207 C1219 0.950 . S
C1208 H1200 0.950 . S
C1208 C1209 1.386 . S
C1208 C1210 1.391 . S
C1209 C1208 1.386 . S
C1209 C1213 1.393 . S
C1210 H1202 0.950 . S
C1210 C1208 1.391 . S
C1210 C1211 1.400 . S
C1211 C1210 1.400 . S
C1211 C1212 1.398 . S
C1211 C1217 1.491 . S
C1212 H1203 0.950 . S
C1212 C1211 1.398 . S
C1212 C1213 1.391 . S
C1213 H1201 0.950 . S
C1213 C1209 1.393 . S
C1213 C1212 1.391 . S
C1214 H1204 0.950 . S
C1214 C1215 1.386 . S
C1214 C1216 1.391 . S
C1215 C1214 1.386 . S
C1215 C1219 1.393 . S
C1216 H1205 0.950 . S
C1216 C1214 1.391 . S
C1216 C1217 1.400 . S
C1217 C1211 1.491 . S
C1217 C1216 1.400 . S
C1217 C1218 1.398 . S
C1218 H1206 0.950 . S
C1218 C1217 1.398 . S
C1218 C1219 1.391 . S
C1219 H1207 0.950 . S
C1219 C1215 1.393 . S
C1219 C1218 1.391 . S
H1220 C1228 0.950 . S
H1221 C1233 0.950 . S
H1222 C1230 0.950 . S
H1223 C1232 0.950 . S
H1224 C1234 0.950 . S
H1225 C1236 0.950 . S
H1226 C1238 0.950 . S
H1227 C1239 0.950 . S
C1228 H1220 0.950 . S
C1228 C1229 1.386 . S
C1228 C1230 1.391 . S
C1229 C1228 1.386 . S
C1229 C1233 1.393 . S
C1230 H1222 0.950 . S
C1230 C1228 1.391 . S
C1230 C1231 1.400 . S
C1231 C1230 1.400 . S
C1231 C1232 1.398 . S
C1231 C1237 1.491 . S
C1232 H1223 0.950 . S
C1232 C1231 1.398 . S
C1232 C1233 1.391 . S
C1233 H1221 0.950 . S
C1233 C1229 1.393 . S
C1233 C1232 1.391 . S
C1234 H1224 0.950 . S
C1234 C1235 1.386 . S
C1234 C1236 1.391 . S
C1235 C1234 1.386 . S
C1235 C1239 1.393 . S
C1236 H1225 0.950 . S
C1236 C1234 1.391 . S
C1236 C1237 1.400 . S
C1237 C1231 1.491 . S
C1237 C1236 1.400 . S
C1237 C1238 1.398 . S
C1238 H1226 0.950 . S
C1238 C1237 1.398 . S
C1238 C1239 1.391 . S
C1239 H1227 0.950 . S
C1239 C1235 1.393 . S
C1239 C1238 1.391 . S
H1240 C1248 0.950 . S
H1241 C1253 0.950 . S
H1242 C1250 0.950 . S
H1243 C1252 0.950 . S
H1244 C1254 0.950 . S
H1245 C1256 0.950 . S
H1246 C1258 0.950 . S
H1247 C1259 0.950 . S
C1248 H1240 0.950 . S
C1248 C1249 1.386 . S
C1248 C1250 1.391 . S
C1249 C1248 1.386 . S
C1249 C1253 1.393 . S
C1250 H1242 0.950 . S
C1250 C1248 1.391 . S
C1250 C1251 1.400 . S
C1251 C1250 1.400 . S
C1251 C1252 1.398 . S
C1251 C1257 1.491 . S
C1252 H1243 0.950 . S
C1252 C1251 1.398 . S
C1252 C1253 1.391 . S
C1253 H1241 0.950 . S
C1253 C1249 1.393 . S
C1253 C1252 1.391 . S
C1254 H1244 0.950 . S
C1254 C1255 1.386 . S
C1254 C1256 1.391 . S
C1255 C1254 1.386 . S
C1255 C1259 1.393 . S
C1256 H1245 0.950 . S
C1256 C1254 1.391 . S
C1256 C1257 1.400 . S
C1257 C1251 1.491 . S
C1257 C1256 1.400 . S
C1257 C1258 1.398 . S
C1258 H1246 0.950 . S
C1258 C1257 1.398 . S
C1258 C1259 1.391 . S
C1259 H1247 0.950 . S
C1259 C1255 1.393 . S
C1259 C1258 1.391 . S
H1260 C1268 0.950 . S
H1261 C1273 0.950 . S
H1262 C1270 0.950 . S
H1263 C1272 0.950 . S
H1264 C1274 0.950 . S
H1265 C1276 0.950 . S
H1266 C1278 0.950 . S
H1267 C1279 0.950 . S
C1268 H1260 0.950 . S
C1268 C1269 1.386 . S
C1268 C1270 1.391 . S
C1269 C1268 1.386 . S
C1269 C1273 1.393 . S
C1270 H1262 0.950 . S
C1270 C1268 1.391 . S
C1270 C1271 1.400 . S
C1271 C1270 1.400 . S
C1271 C1272 1.398 . S
C1271 C1277 1.491 . S
C1272 H1263 0.950 . S
C1272 C1271 1.398 . S
C1272 C1273 1.391 . S
C1273 H1261 0.950 . S
C1273 C1269 1.393 . S
C1273 C1272 1.391 . S
C1274 H1264 0.950 . S
C1274 C1275 1.386 . S
C1274 C1276 1.391 . S
C1275 C1274 1.386 . S
C1275 C1279 1.393 . S
C1276 H1265 0.950 . S
C1276 C1274 1.391 . S
C1276 C1277 1.400 . S
C1277 C1271 1.491 . S
C1277 C1276 1.400 . S
C1277 C1278 1.398 . S
C1278 H1266 0.950 . S
C1278 C1277 1.398 . S
C1278 C1279 1.391 . S
C1279 H1267 0.950 . S
C1279 C1275 1.393 . S
C1279 C1278 1.391 . S
H1280 C1288 0.935 1_554 S
H1281 C1293 0.948 . S
H1282 C1290 0.950 . S
H1283 C1292 0.950 . S
H1284 C1294 0.950 . S
H1285 C1296 0.950 . S
H1286 C1298 0.950 . S
H1287 C1299 0.950 . S
C1288 H1280 0.935 1_556 S
C1288 C1289 1.386 1_556 S
C1288 C1290 1.391 . S
C1289 C1288 1.386 1_554 S
C1289 C1293 1.391 . S
C1290 H1282 0.950 . S
C1290 C1288 1.391 . S
C1290 C1291 1.400 . S
C1291 C1290 1.400 . S
C1291 C1292 1.398 . S
C1291 C1297 1.491 . S
C1292 H1283 0.950 . S
C1292 C1291 1.398 . S
C1292 C1293 1.394 1_556 S
C1293 H1281 0.948 . S
C1293 C1289 1.391 . S
C1293 C1292 1.394 1_554 S
C1294 H1284 0.950 . S
C1294 C1295 1.386 . S
C1294 C1296 1.391 . S
C1295 C1294 1.386 . S
C1295 C1299 1.393 . S
C1296 H1285 0.950 . S
C1296 C1294 1.391 . S
C1296 C1297 1.400 . S
C1297 C1291 1.491 . S
C1297 C1296 1.400 . S
C1297 C1298 1.398 . S
C1298 H1286 0.950 . S
C1298 C1297 1.398 . S
C1298 C1299 1.391 . S
C1299 H1287 0.950 . S
C1299 C1295 1.393 . S
C1299 C1298 1.391 . S
H1300 C1308 0.950 . S
H1301 C1313 0.950 . S
H1302 C1310 0.950 . S
H1303 C1312 0.950 . S
H1304 C1314 0.950 . S
H1305 C1316 0.950 . S
H1306 C1318 0.950 . S
H1307 C1319 0.950 . S
C1308 H1300 0.950 . S
C1308 C1309 1.386 . S
C1308 C1310 1.391 . S
C1309 C1308 1.386 . S
C1309 C1313 1.393 . S
C1310 H1302 0.950 . S
C1310 C1308 1.391 . S
C1310 C1311 1.400 . S
C1311 C1310 1.400 . S
C1311 C1312 1.398 . S
C1311 C1317 1.491 . S
C1312 H1303 0.950 . S
C1312 C1311 1.398 . S
C1312 C1313 1.391 . S
C1313 H1301 0.950 . S
C1313 C1309 1.393 . S
C1313 C1312 1.391 . S
C1314 H1304 0.950 . S
C1314 C1315 1.386 . S
C1314 C1316 1.391 . S
C1315 C1314 1.386 . S
C1315 C1319 1.393 . S
C1316 H1305 0.950 . S
C1316 C1314 1.391 . S
C1316 C1317 1.400 . S
C1317 C1311 1.491 . S
C1317 C1316 1.400 . S
C1317 C1318 1.398 . S
C1318 H1306 0.950 . S
C1318 C1317 1.398 . S
C1318 C1319 1.391 . S
C1319 H1307 0.950 . S
C1319 C1315 1.393 . S
C1319 C1318 1.391 . S
H1320 C1328 0.950 . S
H1321 C1333 0.950 . S
H1322 C1330 0.950 . S
H1323 C1332 0.950 . S
H1324 C1334 0.950 . S
H1325 C1336 0.950 . S
H1326 C1338 0.950 . S
H1327 C1339 0.950 . S
C1328 H1320 0.950 . S
C1328 C1329 1.386 . S
C1328 C1330 1.391 . S
C1329 C1328 1.386 . S
C1329 C1333 1.393 . S
C1330 H1322 0.950 . S
C1330 C1328 1.391 . S
C1330 C1331 1.400 . S
C1331 C1330 1.400 . S
C1331 C1332 1.398 . S
C1331 C1337 1.491 . S
C1332 H1323 0.950 . S
C1332 C1331 1.398 . S
C1332 C1333 1.391 . S
C1333 H1321 0.950 . S
C1333 C1329 1.393 . S
C1333 C1332 1.391 . S
C1334 H1324 0.950 . S
C1334 C1335 1.386 . S
C1334 C1336 1.391 . S
C1335 C1334 1.386 . S
C1335 C1339 1.393 . S
C1336 H1325 0.950 . S
C1336 C1334 1.391 . S
C1336 C1337 1.400 . S
C1337 C1331 1.491 . S
C1337 C1336 1.400 . S
C1337 C1338 1.398 . S
C1338 H1326 0.950 . S
C1338 C1337 1.398 . S
C1338 C1339 1.391 . S
C1339 H1327 0.950 . S
C1339 C1335 1.393 . S
C1339 C1338 1.391 . S
H1340 C1348 0.950 . S
H1341 C1353 0.950 . S
H1342 C1350 0.950 . S
H1343 C1352 0.950 . S
H1344 C1354 0.950 . S
H1345 C1356 0.950 . S
H1346 C1358 0.950 . S
H1347 C1359 0.950 . S
C1348 H1340 0.950 . S
C1348 C1349 1.386 . S
C1348 C1350 1.391 . S
C1349 C1348 1.386 . S
C1349 C1353 1.393 . S
C1350 H1342 0.950 . S
C1350 C1348 1.391 . S
C1350 C1351 1.400 . S
C1351 C1350 1.400 . S
C1351 C1352 1.398 . S
C1351 C1357 1.491 . S
C1352 H1343 0.950 . S
C1352 C1351 1.398 . S
C1352 C1353 1.391 . S
C1353 H1341 0.950 . S
C1353 C1349 1.393 . S
C1353 C1352 1.391 . S
C1354 H1344 0.950 . S
C1354 C1355 1.386 . S
C1354 C1356 1.391 . S
C1355 C1354 1.386 . S
C1355 C1359 1.393 . S
C1356 H1345 0.950 . S
C1356 C1354 1.391 . S
C1356 C1357 1.400 . S
C1357 C1351 1.491 . S
C1357 C1356 1.400 . S
C1357 C1358 1.398 . S
C1358 H1346 0.950 . S
C1358 C1357 1.398 . S
C1358 C1359 1.391 . S
C1359 H1347 0.950 . S
C1359 C1355 1.393 . S
C1359 C1358 1.391 . S
H1360 C1368 0.950 . S
H1361 C1373 0.950 . S
H1362 C1370 0.950 . S
H1363 C1372 0.950 . S
H1364 C1374 0.966 . S
H1365 C1376 0.950 . S
H1366 C1378 0.950 . S
H1367 C1379 0.950 . S
C1368 H1360 0.950 . S
C1368 C1369 1.386 . S
C1368 C1370 1.391 . S
C1369 C1368 1.386 . S
C1369 C1373 1.393 . S
C1370 H1362 0.950 . S
C1370 C1368 1.391 . S
C1370 C1371 1.400 . S
C1371 C1370 1.400 . S
C1371 C1372 1.398 . S
C1371 C1377 1.491 . S
C1372 H1363 0.950 . S
C1372 C1371 1.398 . S
C1372 C1373 1.391 . S
C1373 H1361 0.950 . S
C1373 C1369 1.393 . S
C1373 C1372 1.391 . S
C1374 H1364 0.966 . S
C1374 C1375 1.386 1_554 S
C1374 C1376 1.391 . S
C1375 C1374 1.386 1_556 S
C1375 C1379 1.393 . S
C1376 H1365 0.950 . S
C1376 C1374 1.391 . S
C1376 C1377 1.400 . S
C1377 C1371 1.491 . S
C1377 C1376 1.400 . S
C1377 C1378 1.398 . S
C1378 H1366 0.950 . S
C1378 C1377 1.398 . S
C1378 C1379 1.391 1_554 S
C1379 H1367 0.950 . S
C1379 C1375 1.393 . S
C1379 C1378 1.391 1_556 S
H1380 C1388 0.950 . S
H1381 C1393 0.950 . S
H1382 C1390 0.950 . S
H1383 C1392 0.950 . S
H1384 C1394 0.950 . S
H1385 C1396 0.950 . S
H1386 C1398 0.950 . S
H1387 C1399 0.950 . S
C1388 H1380 0.950 . S
C1388 C1389 1.386 . S
C1388 C1390 1.391 . S
C1389 C1388 1.386 . S
C1389 C1393 1.393 . S
C1390 H1382 0.950 . S
C1390 C1388 1.391 . S
C1390 C1391 1.400 . S
C1391 C1390 1.400 . S
C1391 C1392 1.398 . S
C1391 C1397 1.491 . S
C1392 H1383 0.950 . S
C1392 C1391 1.398 . S
C1392 C1393 1.391 . S
C1393 H1381 0.950 . S
C1393 C1389 1.393 . S
C1393 C1392 1.391 . S
C1394 H1384 0.950 . S
C1394 C1395 1.386 . S
C1394 C1396 1.391 . S
C1395 C1394 1.386 . S
C1395 C1399 1.393 . S
C1396 H1385 0.950 . S
C1396 C1394 1.391 . S
C1396 C1397 1.400 . S
C1397 C1391 1.491 . S
C1397 C1396 1.400 . S
C1397 C1398 1.398 . S
C1398 H1386 0.950 . S
C1398 C1397 1.398 . S
C1398 C1399 1.391 . S
C1399 H1387 0.950 . S
C1399 C1395 1.393 . S
C1399 C1398 1.391 . S
H1400 C1408 0.950 . S
H1401 C1413 0.950 . S
H1402 C1410 0.950 . S
H1403 C1412 0.950 . S
H1404 C1414 0.950 . S
H1405 C1416 0.950 . S
H1406 C1418 0.950 . S
H1407 C1419 0.950 . S
C1408 H1400 0.950 . S
C1408 C1409 1.386 . S
C1408 C1410 1.391 . S
C1409 C1408 1.386 . S
C1409 C1413 1.393 . S
C1410 H1402 0.950 . S
C1410 C1408 1.391 . S
C1410 C1411 1.400 . S
C1411 C1410 1.400 . S
C1411 C1412 1.398 . S
C1411 C1417 1.491 . S
C1412 H1403 0.950 . S
C1412 C1411 1.398 . S
C1412 C1413 1.391 . S
C1413 H1401 0.950 . S
C1413 C1409 1.393 . S
C1413 C1412 1.391 . S
C1414 H1404 0.950 . S
C1414 C1415 1.386 . S
C1414 C1416 1.391 . S
C1415 C1414 1.386 . S
C1415 C1419 1.393 . S
C1416 H1405 0.950 . S
C1416 C1414 1.391 . S
C1416 C1417 1.400 . S
C1417 C1411 1.491 . S
C1417 C1416 1.400 . S
C1417 C1418 1.398 . S
C1418 H1406 0.950 . S
C1418 C1417 1.398 . S
C1418 C1419 1.391 . S
C1419 H1407 0.950 . S
C1419 C1415 1.393 . S
C1419 C1418 1.391 . S
H1420 C1428 0.950 . S
H1421 C1433 0.950 . S
H1422 C1430 0.950 . S
H1423 C1432 0.950 . S
H1424 C1434 0.950 . S
H1425 C1436 0.950 . S
H1426 C1438 0.950 . S
H1427 C1439 0.950 . S
C1428 H1420 0.950 . S
C1428 C1429 1.386 . S
C1428 C1430 1.391 . S
C1429 C1428 1.386 . S
C1429 C1433 1.393 . S
C1430 H1422 0.950 . S
C1430 C1428 1.391 . S
C1430 C1431 1.400 . S
C1431 C1430 1.400 . S
C1431 C1432 1.398 . S
C1431 C1437 1.491 . S
C1432 H1423 0.950 . S
C1432 C1431 1.398 . S
C1432 C1433 1.391 . S
C1433 H1421 0.950 . S
C1433 C1429 1.393 . S
C1433 C1432 1.391 . S
C1434 H1424 0.950 . S
C1434 C1435 1.386 . S
C1434 C1436 1.391 . S
C1435 C1434 1.386 . S
C1435 C1439 1.393 . S
C1436 H1425 0.950 . S
C1436 C1434 1.391 . S
C1436 C1437 1.400 . S
C1437 C1431 1.491 . S
C1437 C1436 1.400 . S
C1437 C1438 1.398 . S
C1438 H1426 0.950 . S
C1438 C1437 1.398 . S
C1438 C1439 1.391 . S
C1439 H1427 0.950 . S
C1439 C1435 1.393 . S
C1439 C1438 1.391 . S
H1440 C1448 0.950 . S
H1441 C1453 0.950 . S
H1442 C1450 0.950 . S
H1443 C1452 0.950 . S
H1444 C1454 0.950 . S
H1445 C1456 0.950 . S
H1446 C1458 0.950 . S
H1447 C1459 0.950 . S
C1448 H1440 0.950 . S
C1448 C1449 1.386 . S
C1448 C1450 1.391 . S
C1449 C1448 1.386 . S
C1449 C1453 1.393 . S
C1450 H1442 0.950 . S
C1450 C1448 1.391 . S
C1450 C1451 1.400 . S
C1451 C1450 1.400 . S
C1451 C1452 1.398 . S
C1451 C1457 1.491 . S
C1452 H1443 0.950 . S
C1452 C1451 1.398 . S
C1452 C1453 1.391 . S
C1453 H1441 0.950 . S
C1453 C1449 1.393 . S
C1453 C1452 1.391 . S
C1454 H1444 0.950 . S
C1454 C1455 1.386 . S
C1454 C1456 1.391 . S
C1455 C1454 1.386 . S
C1455 C1459 1.393 . S
C1456 H1445 0.950 . S
C1456 C1454 1.391 . S
C1456 C1457 1.400 . S
C1457 C1451 1.491 . S
C1457 C1456 1.400 . S
C1457 C1458 1.398 . S
C1458 H1446 0.950 . S
C1458 C1457 1.398 . S
C1458 C1459 1.391 . S
C1459 H1447 0.950 . S
C1459 C1455 1.393 . S
C1459 C1458 1.391 . S
H1460 C1468 0.950 . S
H1461 C1473 0.950 . S
H1462 C1470 0.950 . S
H1463 C1472 0.950 . S
H1464 C1474 0.950 . S
H1465 C1476 0.950 . S
H1466 C1478 0.950 1_545 S
H1467 C1479 0.950 . S
C1468 H1460 0.950 . S
C1468 C1469 1.386 . S
C1468 C1470 1.391 . S
C1469 C1468 1.386 . S
C1469 C1473 1.393 . S
C1470 H1462 0.950 . S
C1470 C1468 1.391 . S
C1470 C1471 1.400 . S
C1471 C1470 1.400 . S
C1471 C1472 1.398 . S
C1471 C1477 1.491 . S
C1472 H1463 0.950 . S
C1472 C1471 1.398 . S
C1472 C1473 1.391 . S
C1473 H1461 0.950 . S
C1473 C1469 1.393 . S
C1473 C1472 1.391 . S
C1474 H1464 0.950 . S
C1474 C1475 1.386 1_565 S
C1474 C1476 1.391 . S
C1475 C1474 1.386 1_545 S
C1475 C1479 1.393 . S
C1476 H1465 0.950 . S
C1476 C1474 1.391 . S
C1476 C1477 1.400 . S
C1477 C1471 1.491 . S
C1477 C1476 1.400 . S
C1477 C1478 1.398 . S
C1478 H1466 0.950 1_565 S
C1478 C1477 1.398 . S
C1478 C1479 1.391 1_565 S
C1479 H1467 0.950 . S
C1479 C1475 1.393 . S
C1479 C1478 1.391 1_545 S
H1480 C1488 0.950 . S
H1481 C1493 0.950 . S
H1482 C1490 0.950 . S
H1483 C1492 0.950 . S
H1484 C1494 0.950 . S
H1485 C1496 0.950 . S
H1486 C1498 0.950 . S
H1487 C1499 0.950 . S
C1488 H1480 0.950 . S
C1488 C1489 1.386 . S
C1488 C1490 1.391 . S
C1489 C1488 1.386 . S
C1489 C1493 1.393 . S
C1490 H1482 0.950 . S
C1490 C1488 1.391 . S
C1490 C1491 1.400 . S
C1491 C1490 1.400 . S
C1491 C1492 1.398 . S
C1491 C1497 1.491 . S
C1492 H1483 0.950 . S
C1492 C1491 1.398 . S
C1492 C1493 1.391 . S
C1493 H1481 0.950 . S
C1493 C1489 1.393 . S
C1493 C1492 1.391 . S
C1494 H1484 0.950 . S
C1494 C1495 1.386 . S
C1494 C1496 1.391 1_554 S
C1495 C1494 1.386 . S
C1495 C1499 1.393 1_554 S
C1496 H1485 0.950 . S
C1496 C1494 1.391 1_556 S
C1496 C1497 1.400 . S
C1497 C1491 1.491 . S
C1497 C1496 1.400 . S
C1497 C1498 1.398 . S
C1498 H1486 0.950 . S
C1498 C1497 1.398 . S
C1498 C1499 1.391 . S
C1499 H1487 0.950 . S
C1499 C1495 1.393 1_556 S
C1499 C1498 1.391 . S
H1500 C1508 0.950 . S
H1501 C1513 0.950 . S
H1502 C1510 0.950 . S
H1503 C1512 0.950 . S
H1504 C1514 0.950 . S
H1505 C1516 0.950 . S
H1506 C1518 0.950 . S
H1507 C1519 0.950 . S
C1508 H1500 0.950 . S
C1508 C1509 1.386 . S
C1508 C1510 1.391 1_565 S
C1509 C1508 1.386 . S
C1509 C1513 1.393 1_565 S
C1510 H1502 0.950 . S
C1510 C1508 1.391 1_545 S
C1510 C1511 1.400 . S
C1511 C1510 1.400 . S
C1511 C1512 1.398 . S
C1511 C1517 1.491 . S
C1512 H1503 0.950 . S
C1512 C1511 1.398 . S
C1512 C1513 1.391 . S
C1513 H1501 0.950 . S
C1513 C1509 1.393 1_545 S
C1513 C1512 1.391 . S
C1514 H1504 0.950 . S
C1514 C1515 1.386 . S
C1514 C1516 1.391 . S
C1515 C1514 1.386 . S
C1515 C1519 1.393 . S
C1516 H1505 0.950 . S
C1516 C1514 1.391 . S
C1516 C1517 1.400 . S
C1517 C1511 1.491 . S
C1517 C1516 1.400 . S
C1517 C1518 1.398 . S
C1518 H1506 0.950 . S
C1518 C1517 1.398 . S
C1518 C1519 1.391 . S
C1519 H1507 0.950 . S
C1519 C1515 1.393 . S
C1519 C1518 1.391 . S
H1520 C1528 0.950 . S
H1521 C1533 0.950 . S
H1522 C1530 0.950 . S
H1523 C1532 0.950 . S
H1524 C1534 0.950 . S
H1525 C1536 0.950 . S
H1526 C1538 0.950 . S
H1527 C1539 0.950 . S
C1528 H1520 0.950 . S
C1528 C1529 1.386 . S
C1528 C1530 1.391 . S
C1529 C1528 1.386 . S
C1529 C1533 1.393 . S
C1530 H1522 0.950 . S
C1530 C1528 1.391 . S
C1530 C1531 1.400 . S
C1531 C1530 1.400 . S
C1531 C1532 1.398 . S
C1531 C1537 1.491 . S
C1532 H1523 0.950 . S
C1532 C1531 1.398 . S
C1532 C1533 1.391 . S
C1533 H1521 0.950 . S
C1533 C1529 1.393 . S
C1533 C1532 1.391 . S
C1534 H1524 0.950 . S
C1534 C1535 1.386 . S
C1534 C1536 1.391 . S
C1535 C1534 1.386 . S
C1535 C1539 1.393 . S
C1536 H1525 0.950 . S
C1536 C1534 1.391 . S
C1536 C1537 1.400 . S
C1537 C1531 1.491 . S
C1537 C1536 1.400 . S
C1537 C1538 1.398 . S
C1538 H1526 0.950 . S
C1538 C1537 1.398 . S
C1538 C1539 1.391 . S
C1539 H1527 0.950 . S
C1539 C1535 1.393 . S
C1539 C1538 1.391 . S
H1540 C1548 0.950 . S
H1541 C1553 0.950 . S
H1542 C1550 0.950 . S
H1543 C1552 0.950 . S
H1544 C1554 0.950 . S
H1545 C1556 0.950 . S
H1546 C1558 0.950 1_565 S
H1547 C1559 0.950 . S
C1548 H1540 0.950 . S
C1548 C1549 1.386 . S
C1548 C1550 1.391 . S
C1549 C1548 1.386 . S
C1549 C1553 1.393 . S
C1550 H1542 0.950 . S
C1550 C1548 1.391 . S
C1550 C1551 1.400 . S
C1551 C1550 1.400 . S
C1551 C1552 1.398 . S
C1551 C1557 1.491 . S
C1552 H1543 0.950 . S
C1552 C1551 1.398 . S
C1552 C1553 1.391 . S
C1553 H1541 0.950 . S
C1553 C1549 1.393 . S
C1553 C1552 1.391 . S
C1554 H1544 0.950 . S
C1554 C1555 1.363 1_545 S
C1554 C1556 1.391 . S
C1555 C1554 1.363 1_565 S
C1555 C1559 1.402 . S
C1556 H1545 0.950 . S
C1556 C1554 1.391 . S
C1556 C1557 1.400 . S
C1557 C1551 1.491 . S
C1557 C1556 1.400 . S
C1557 C1558 1.398 . S
C1558 H1546 0.950 1_545 S
C1558 C1557 1.398 . S
C1558 C1559 1.391 1_545 S
C1559 H1547 0.950 . S
C1559 C1555 1.402 . S
C1559 C1558 1.391 1_565 S
H1560 C1568 0.950 . S
H1561 C1573 0.950 . S
H1562 C1570 0.950 . S
H1563 C1572 0.950 . S
H1564 C1574 0.950 . S
H1565 C1576 0.950 . S
H1566 C1578 0.950 . S
H1567 C1579 0.950 . S
C1568 H1560 0.950 . S
C1568 C1569 1.386 . S
C1568 C1570 1.391 . S
C1569 C1568 1.386 . S
C1569 C1573 1.393 . S
C1570 H1562 0.950 . S
C1570 C1568 1.391 . S
C1570 C1571 1.400 . S
C1571 C1570 1.400 . S
C1571 C1572 1.398 . S
C1571 C1577 1.491 . S
C1572 H1563 0.950 . S
C1572 C1571 1.398 . S
C1572 C1573 1.391 . S
C1573 H1561 0.950 . S
C1573 C1569 1.393 . S
C1573 C1572 1.391 . S
C1574 H1564 0.950 . S
C1574 C1575 1.386 1_554 S
C1574 C1576 1.391 . S
C1575 C1574 1.386 1_556 S
C1575 C1579 1.393 . S
C1576 H1565 0.950 . S
C1576 C1574 1.391 . S
C1576 C1577 1.400 . S
C1577 C1571 1.491 . S
C1577 C1576 1.400 . S
C1577 C1578 1.398 . S
C1578 H1566 0.950 . S
C1578 C1577 1.398 . S
C1578 C1579 1.391 1_554 S
C1579 H1567 0.950 . S
C1579 C1575 1.393 . S
C1579 C1578 1.391 1_556 S
H1580 C1588 0.950 . S
H1581 C1593 0.950 . S
H1582 C1590 0.950 . S
H1583 C1592 0.950 . S
H1584 C1594 0.950 . S
H1585 C1596 0.950 1_545 S
H1586 C1598 0.950 . S
H1587 C1599 0.950 . S
C1588 H1580 0.950 . S
C1588 C1589 1.386 . S
C1588 C1590 1.391 . S
C1589 C1588 1.386 . S
C1589 C1593 1.393 . S
C1590 H1582 0.950 . S
C1590 C1588 1.391 . S
C1590 C1591 1.400 . S
C1591 C1590 1.400 . S
C1591 C1592 1.398 . S
C1591 C1597 1.491 . S
C1592 H1583 0.950 . S
C1592 C1591 1.398 . S
C1592 C1593 1.391 . S
C1593 H1581 0.950 . S
C1593 C1589 1.393 . S
C1593 C1592 1.391 . S
C1594 H1584 0.950 . S
C1594 C1595 1.398 . S
C1594 C1596 1.391 1_545 S
C1595 C1594 1.398 . S
C1595 C1599 1.366 1_545 S
C1596 H1585 0.950 1_565 S
C1596 C1594 1.391 1_565 S
C1596 C1597 1.400 . S
C1597 C1591 1.491 . S
C1597 C1596 1.400 . S
C1597 C1598 1.398 . S
C1598 H1586 0.950 . S
C1598 C1597 1.398 . S
C1598 C1599 1.391 . S
C1599 H1587 0.950 . S
C1599 C1595 1.366 1_565 S
C1599 C1598 1.391 . S
C649 C10 2.636 . S
C655 C410 2.631 . S
C669 C50 2.634 . S
C675 C450 2.640 . S
C689 C90 2.630 . S
C695 C330 2.631 . S
C709 C370 2.636 . S
C715 C130 2.631 . S
C729 C179 2.632 . S
C735 C579 2.630 . S
C749 C619 2.641 . S
C755 C219 2.638 . S
C769 C499 2.641 . S
C775 C259 2.637 . S
C789 C299 2.636 . S
C795 C539 2.640 . S
C809 C16 0.912 1_565 S
C815 C167 0.912 1_545 S
C829 C56 0.919 . S
C835 C527 0.919 . S
C849 C96 0.911 1_545 S
C855 C247 0.911 1_565 S
C869 C136 0.939 . S
C875 C607 0.939 . S
C889 C207 0.980 . S
C895 C376 0.980 . S
C909 C456 0.942 . S
C915 C287 0.942 . S
C929 C487 0.949 . S
C935 C336 0.949 . S
C949 C416 0.969 . S
C955 C567 0.969 . S
C969 C7 1.065 . S
C975 C290 1.170 . S
C989 C47 1.036 . S
C995 C490 1.151 . S
C1009 C87 1.058 . S
C1015 C210 1.167 . S
C1029 C127 1.072 . S
C1035 C570 1.172 . S
C1049 C139 1.170 . S
C1055 C176 1.065 . S
C1069 C216 1.073 . S
C1075 C339 1.153 . S
C1089 C256 1.037 . S
C1095 C59 1.148 . S
C1109 C419 1.148 . S
C1115 C296 1.036 . S
C1129 C327 1.037 . S
C1135 C610 1.147 1_565 S
C1149 C170 1.165 . S
C1155 C367 1.091 . S
C1169 C530 1.161 1_545 S
C1175 C407 1.087 . S
C1189 C250 1.145 . S
C1195 C447 1.045 . S
C1209 C496 1.063 . S
C1215 C459 1.169 1_545 S
C1229 C536 1.080 . S
C1235 C19 1.173 . S
C1249 C379 1.153 1_565 S
C1255 C576 1.037 . S
C1269 C616 1.050 . S
C1275 C99 1.163 . S
C1289 C11 4.068 . S
C1295 C362 4.099 . S
C1309 C402 4.100 . S
C1315 C51 4.067 . S
C1329 C91 4.066 . S
C1335 C442 4.099 . S
C1349 C322 4.095 . S
C1355 C131 4.064 . S
C1369 C531 4.089 . S
C1375 C162 4.056 . S
C1389 C571 4.098 . S
C1395 C202 4.065 . S
C1409 C611 4.090 . S
C1415 C242 4.057 . S
C1429 C491 4.091 . S
C1435 C282 4.057 . S
C1449 C42 4.091 . S
C1455 C331 4.060 . S
C1469 C82 4.091 . S
C1475 C371 4.060 . S
C1489 C122 4.089 . S
C1495 C411 4.057 . S
C1509 C451 4.063 . S
C1515 C2 4.094 . S
C1529 C211 4.098 . S
C1535 C482 4.067 . S
C1549 C251 4.096 . S
C1555 C522 4.074 . S
C1569 C291 4.089 . S
C1575 C562 4.056 . S
C1589 C171 4.090 . S
C1595 C602 4.071 . S
