# Generated by pormake.
# Topology pcu-i, (5)-cn, num edge types: 1
# Building blocks:
#     Node 0, Type 0, BuildingBlock: BEQFEK_clean_sbu_0, # of connection points: 5
#     Node 1, Type 0, BuildingBlock: BEQFEK_clean_sbu_0, # of connection points: 5
#     Node 2, Type 0, BuildingBlock: BEQFEK_clean_sbu_0, # of connection points: 5
#     Node 3, Type 0, BuildingBlock: BEQFEK_clean_sbu_0, # of connection points: 5
#     Node 4, Type 0, BuildingBlock: BEQFEK_clean_sbu_0, # of connection points: 5
#     Node 5, Type 0, BuildingBlock: BEQFEK_clean_sbu_0, # of connection points: 5
#     Node 6, Type 0, BuildingBlock: BEQFEK_clean_sbu_0, # of connection points: 5
#     Node 7, Type 0, BuildingBlock: BEQFEK_clean_sbu_0, # of connection points: 5
#     Node 8, Type 0, BuildingBlock: BEQFEK_clean_sbu_0, # of connection points: 5
#     Node 9, Type 0, BuildingBlock: BEQFEK_clean_sbu_0, # of connection points: 5
#     Node 10, Type 0, BuildingBlock: BEQFEK_clean_sbu_0, # of connection points: 5
#     Node 11, Type 0, BuildingBlock: BEQFEK_clean_sbu_0, # of connection points: 5
#     Node 12, Type 0, BuildingBlock: BEQFEK_clean_sbu_0, # of connection points: 5
#     Node 13, Type 0, BuildingBlock: BEQFEK_clean_sbu_0, # of connection points: 5
#     Node 14, Type 0, BuildingBlock: BEQFEK_clean_sbu_0, # of connection points: 5
#     Node 15, Type 0, BuildingBlock: BEQFEK_clean_sbu_0, # of connection points: 5
#     Node 16, Type 0, BuildingBlock: BEQFEK_clean_sbu_0, # of connection points: 5
#     Node 17, Type 0, BuildingBlock: BEQFEK_clean_sbu_0, # of connection points: 5
#     Node 18, Type 0, BuildingBlock: BEQFEK_clean_sbu_0, # of connection points: 5
#     Node 19, Type 0, BuildingBlock: BEQFEK_clean_sbu_0, # of connection points: 5
#     Node 20, Type 0, BuildingBlock: BEQFEK_clean_sbu_0, # of connection points: 5
#     Node 21, Type 0, BuildingBlock: BEQFEK_clean_sbu_0, # of connection points: 5
#     Node 22, Type 0, BuildingBlock: BEQFEK_clean_sbu_0, # of connection points: 5
#     Node 23, Type 0, BuildingBlock: BEQFEK_clean_sbu_0, # of connection points: 5
#     Edge 24, Type (0, 0), BuildingBlock: TEMPAE_clean_linker_10, # of connection points: 2
#     Edge 25, Type (0, 0), BuildingBlock: TEMPAE_clean_linker_10, # of connection points: 2
#     Edge 26, Type (0, 0), BuildingBlock: TEMPAE_clean_linker_10, # of connection points: 2
#     Edge 27, Type (0, 0), BuildingBlock: TEMPAE_clean_linker_10, # of connection points: 2
#     Edge 28, Type (0, 0), BuildingBlock: TEMPAE_clean_linker_10, # of connection points: 2
#     Edge 29, Type (0, 0), BuildingBlock: TEMPAE_clean_linker_10, # of connection points: 2
#     Edge 30, Type (0, 0), BuildingBlock: TEMPAE_clean_linker_10, # of connection points: 2
#     Edge 31, Type (0, 0), BuildingBlock: TEMPAE_clean_linker_10, # of connection points: 2
#     Edge 32, Type (0, 0), BuildingBlock: TEMPAE_clean_linker_10, # of connection points: 2
#     Edge 33, Type (0, 0), BuildingBlock: TEMPAE_clean_linker_10, # of connection points: 2
#     Edge 34, Type (0, 0), BuildingBlock: TEMPAE_clean_linker_10, # of connection points: 2
#     Edge 35, Type (0, 0), BuildingBlock: TEMPAE_clean_linker_10, # of connection points: 2
#     Edge 36, Type (0, 0), BuildingBlock: TEMPAE_clean_linker_10, # of connection points: 2
#     Edge 37, Type (0, 0), BuildingBlock: TEMPAE_clean_linker_10, # of connection points: 2
#     Edge 38, Type (0, 0), BuildingBlock: TEMPAE_clean_linker_10, # of connection points: 2
#     Edge 39, Type (0, 0), BuildingBlock: TEMPAE_clean_linker_10, # of connection points: 2
#     Edge 40, Type (0, 0), BuildingBlock: TEMPAE_clean_linker_10, # of connection points: 2
#     Edge 41, Type (0, 0), BuildingBlock: TEMPAE_clean_linker_10, # of connection points: 2
#     Edge 42, Type (0, 0), BuildingBlock: TEMPAE_clean_linker_10, # of connection points: 2
#     Edge 43, Type (0, 0), BuildingBlock: TEMPAE_clean_linker_10, # of connection points: 2
#     Edge 44, Type (0, 0), BuildingBlock: TEMPAE_clean_linker_10, # of connection points: 2
#     Edge 45, Type (0, 0), BuildingBlock: TEMPAE_clean_linker_10, # of connection points: 2
#     Edge 46, Type (0, 0), BuildingBlock: TEMPAE_clean_linker_10, # of connection points: 2
#     Edge 47, Type (0, 0), BuildingBlock: TEMPAE_clean_linker_10, # of connection points: 2
#     Edge 48, Type (0, 0), BuildingBlock: TEMPAE_clean_linker_10, # of connection points: 2
#     Edge 49, Type (0, 0), BuildingBlock: TEMPAE_clean_linker_10, # of connection points: 2
#     Edge 50, Type (0, 0), BuildingBlock: TEMPAE_clean_linker_10, # of connection points: 2
#     Edge 51, Type (0, 0), BuildingBlock: TEMPAE_clean_linker_10, # of connection points: 2
#     Edge 52, Type (0, 0), BuildingBlock: TEMPAE_clean_linker_10, # of connection points: 2
#     Edge 53, Type (0, 0), BuildingBlock: TEMPAE_clean_linker_10, # of connection points: 2
#     Edge 54, Type (0, 0), BuildingBlock: TEMPAE_clean_linker_10, # of connection points: 2
#     Edge 55, Type (0, 0), BuildingBlock: TEMPAE_clean_linker_10, # of connection points: 2
#     Edge 56, Type (0, 0), BuildingBlock: TEMPAE_clean_linker_10, # of connection points: 2
#     Edge 57, Type (0, 0), BuildingBlock: TEMPAE_clean_linker_10, # of connection points: 2
#     Edge 58, Type (0, 0), BuildingBlock: TEMPAE_clean_linker_10, # of connection points: 2
#     Edge 59, Type (0, 0), BuildingBlock: TEMPAE_clean_linker_10, # of connection points: 2
#     Edge 60, Type (0, 0), BuildingBlock: TEMPAE_clean_linker_10, # of connection points: 2
#     Edge 61, Type (0, 0), BuildingBlock: TEMPAE_clean_linker_10, # of connection points: 2
#     Edge 62, Type (0, 0), BuildingBlock: TEMPAE_clean_linker_10, # of connection points: 2
#     Edge 63, Type (0, 0), BuildingBlock: TEMPAE_clean_linker_10, # of connection points: 2
#     Edge 64, Type (0, 0), BuildingBlock: TEMPAE_clean_linker_10, # of connection points: 2
#     Edge 65, Type (0, 0), BuildingBlock: TEMPAE_clean_linker_10, # of connection points: 2
#     Edge 66, Type (0, 0), BuildingBlock: TEMPAE_clean_linker_10, # of connection points: 2
#     Edge 67, Type (0, 0), BuildingBlock: TEMPAE_clean_linker_10, # of connection points: 2
#     Edge 68, Type (0, 0), BuildingBlock: TEMPAE_clean_linker_10, # of connection points: 2
#     Edge 69, Type (0, 0), BuildingBlock: TEMPAE_clean_linker_10, # of connection points: 2
#     Edge 70, Type (0, 0), BuildingBlock: TEMPAE_clean_linker_10, # of connection points: 2
#     Edge 71, Type (0, 0), BuildingBlock: TEMPAE_clean_linker_10, # of connection points: 2
#     Edge 72, Type (0, 0), BuildingBlock: TEMPAE_clean_linker_10, # of connection points: 2
#     Edge 73, Type (0, 0), BuildingBlock: TEMPAE_clean_linker_10, # of connection points: 2
#     Edge 74, Type (0, 0), BuildingBlock: TEMPAE_clean_linker_10, # of connection points: 2
#     Edge 75, Type (0, 0), BuildingBlock: TEMPAE_clean_linker_10, # of connection points: 2
#     Edge 76, Type (0, 0), BuildingBlock: TEMPAE_clean_linker_10, # of connection points: 2
#     Edge 77, Type (0, 0), BuildingBlock: TEMPAE_clean_linker_10, # of connection points: 2
#     Edge 78, Type (0, 0), BuildingBlock: TEMPAE_clean_linker_10, # of connection points: 2
#     Edge 79, Type (0, 0), BuildingBlock: TEMPAE_clean_linker_10, # of connection points: 2
#     Edge 80, Type (0, 0), BuildingBlock: TEMPAE_clean_linker_10, # of connection points: 2
#     Edge 81, Type (0, 0), BuildingBlock: TEMPAE_clean_linker_10, # of connection points: 2
#     Edge 82, Type (0, 0), BuildingBlock: TEMPAE_clean_linker_10, # of connection points: 2
#     Edge 83, Type (0, 0), BuildingBlock: TEMPAE_clean_linker_10, # of connection points: 2
# Relax obj value: 0.232
# Max RMSD: 0.177
# Mean RMSD: 0.177
data_MOF--net-pcu-i--node1-BEQFEK_clean_sbu_0--edge1-TEMPAE_clean_linker_10
_symmetry_space_group_name_H-M    P1
_symmetry_Int_Tables_number       1
_symmetry_cell_setting            triclinic
loop_
_symmetry_equiv_pos_as_xyz
'x, y, z'
_cell_length_a     57.434798
_cell_length_b     57.40467
_cell_length_c     57.400239
_cell_angle_alpha  90.03457
_cell_angle_beta   89.983123
_cell_angle_gamma 90.067323
loop_
_atom_site_label
_atom_site_type_symbol
_atom_site_fract_x
_atom_site_fract_y
_atom_site_fract_z
_atom_type_partial_charge
Co0 Co 0.13934 0.11939 0.3688 0.0
Co1 Co 0.13805 0.17381 0.36871 0.0
C2 C 0.09641 0.14525 0.35532 0.0
O3 O 0.10737 0.1263 0.3584 0.0
O4 O 0.10627 0.1648 0.3587 0.0
C5 C 0.13634 0.07552 0.34675 0.0
O6 O 0.12731 0.08826 0.33003 0.0
C7 C 0.13336 0.21734 0.34465 0.0
C8 C 0.14903 0.24324 0.36844 0.0
C9 C 0.1387 0.24079 0.34673 0.0
N10 N 0.14004 0.20648 0.36417 0.0
N11 N 0.14914 0.22202 0.37853 0.0
C12 C 0.12454 0.20478 0.32352 0.0
H13 H 0.12952 0.18612 0.32412 0.0
H14 H 0.13154 0.21277 0.30736 0.0
H15 H 0.10526 0.20589 0.32307 0.0
C16 C 0.18149 0.12819 0.34047 0.0
N17 N 0.16209 0.13558 0.35137 0.0
N18 N 0.16164 0.15851 0.3512 0.0
C19 C 0.18074 0.16642 0.34 0.0
C20 C 0.19384 0.14747 0.33286 0.0
C21 C 0.18843 0.10316 0.33818 0.0
H22 H 0.18731 0.09449 0.35541 0.0
H23 H 0.1762 0.0943 0.32615 0.0
H24 H 0.20629 0.1012 0.33111 0.0
O25 O 0.14252 0.12771 0.40207 0.0
O26 O 0.14192 0.16647 0.40216 0.0
H27 H 0.18576 0.1999 0.35574 0.0
H28 H 0.20598 0.19351 0.33252 0.0
C29 C 0.18771 0.19151 0.33846 0.0
H30 H 0.17616 0.20055 0.32593 0.0
H31 H 0.15605 0.21804 0.39486 0.0
O32 O 0.14328 0.08543 0.36531 0.0
C33 C 0.14337 0.14709 0.41292 0.0
Co34 Co 0.87655 0.13954 0.36396 0.0
Co35 Co 0.82217 0.139 0.36045 0.0
C36 C 0.85062 0.09716 0.34828 0.0
O37 O 0.86958 0.10778 0.35261 0.0
O38 O 0.8311 0.10732 0.3505 0.0
C39 C 0.92197 0.13819 0.3444 0.0
O40 O 0.9105 0.13126 0.32584 0.0
C41 C 0.77852 0.13496 0.33581 0.0
C42 C 0.75359 0.15332 0.35867 0.0
C43 C 0.75544 0.14186 0.33747 0.0
N44 N 0.78972 0.14201 0.35505 0.0
N45 N 0.77471 0.15265 0.36887 0.0
C46 C 0.79065 0.12454 0.31517 0.0
H47 H 0.80955 0.12854 0.3157 0.0
H48 H 0.78318 0.13128 0.29866 0.0
H49 H 0.78844 0.10534 0.31554 0.0
C50 C 0.86998 0.18267 0.33642 0.0
N51 N 0.86176 0.16297 0.34619 0.0
N52 N 0.8389 0.16264 0.3444 0.0
C53 C 0.83188 0.18205 0.33323 0.0
C54 C 0.85134 0.19536 0.32789 0.0
C55 C 0.89481 0.19052 0.33777 0.0
H56 H 0.90217 0.18618 0.35508 0.0
H57 H 0.90507 0.18133 0.32422 0.0
H58 H 0.89643 0.20956 0.33486 0.0
O59 O 0.86639 0.14212 0.39669 0.0
O60 O 0.82776 0.14196 0.39419 0.0
H61 H 0.79715 0.18928 0.34465 0.0
H62 H 0.80521 0.20429 0.31813 0.0
C63 C 0.80699 0.18786 0.32809 0.0
H64 H 0.79919 0.17373 0.31756 0.0
H65 H 0.77906 0.16013 0.38487 0.0
O66 O 0.91074 0.14305 0.36285 0.0
C67 C 0.84637 0.14291 0.40622 0.0
Co68 Co 0.85042 0.87919 0.37317 0.0
Co69 Co 0.85183 0.82483 0.36953 0.0
C70 C 0.89287 0.85413 0.35658 0.0
O71 O 0.88197 0.87273 0.36142 0.0
O72 O 0.88321 0.83435 0.3589 0.0
C73 C 0.85219 0.92272 0.35145 0.0
O74 O 0.85883 0.90939 0.33406 0.0
C75 C 0.85625 0.78237 0.34331 0.0
C76 C 0.84045 0.75557 0.36596 0.0
C77 C 0.85071 0.75887 0.34431 0.0
N78 N 0.84963 0.79242 0.36333 0.0
N79 N 0.84048 0.77632 0.377 0.0
C80 C 0.86506 0.79589 0.32277 0.0
H81 H 0.86006 0.81449 0.32425 0.0
H82 H 0.85801 0.7887 0.30626 0.0
H83 H 0.88434 0.79483 0.32225 0.0
C84 C 0.80736 0.87198 0.3458 0.0
N85 N 0.82707 0.86399 0.35564 0.0
N86 N 0.82759 0.84112 0.35395 0.0
C87 C 0.80818 0.83384 0.34289 0.0
C88 C 0.79481 0.85318 0.33735 0.0
C89 C 0.79941 0.89679 0.34678 0.0
H90 H 0.80389 0.90453 0.3639 0.0
H91 H 0.80835 0.90685 0.33292 0.0
H92 H 0.78033 0.89819 0.34405 0.0
O93 O 0.84826 0.8691 0.40603 0.0
O94 O 0.84921 0.8304 0.40346 0.0
H95 H 0.80272 0.79881 0.35452 0.0
H96 H 0.78523 0.80675 0.32955 0.0
C97 C 0.80243 0.80884 0.33802 0.0
H98 H 0.81572 0.80147 0.32618 0.0
H99 H 0.83365 0.77962 0.39352 0.0
O100 O 0.84699 0.91331 0.37082 0.0
C101 C 0.84796 0.84902 0.41554 0.0
Co102 Co 0.11214 0.8592 0.36397 0.0
Co103 Co 0.16652 0.85858 0.35908 0.0
C104 C 0.13925 0.9011 0.34772 0.0
O105 O 0.12034 0.89079 0.35296 0.0
O106 O 0.15874 0.89064 0.34899 0.0
C107 C 0.06682 0.86302 0.34475 0.0
O108 O 0.07842 0.87081 0.32661 0.0
C109 C 0.21372 0.86303 0.34023 0.0
C110 C 0.23008 0.83074 0.35315 0.0
C111 C 0.23355 0.84927 0.33804 0.0
N112 N 0.19887 0.85239 0.35482 0.0
N113 N 0.20911 0.83358 0.36319 0.0
C114 C 0.20926 0.88657 0.32997 0.0
H115 H 0.20178 0.89806 0.34355 0.0
H116 H 0.19645 0.88501 0.31558 0.0
H117 H 0.22553 0.8948 0.32357 0.0
C118 C 0.11688 0.81683 0.33496 0.0
N119 N 0.12593 0.83575 0.34553 0.0
N120 N 0.14861 0.83617 0.34219 0.0
C121 C 0.15451 0.81799 0.32848 0.0
C122 C 0.13467 0.80508 0.32373 0.0
C123 C 0.09177 0.8099 0.33604 0.0
H124 H 0.08497 0.81253 0.35393 0.0
H125 H 0.08168 0.82107 0.32395 0.0
H126 H 0.08913 0.79151 0.33075 0.0
O127 O 0.12208 0.85585 0.39652 0.0
O128 O 0.16056 0.85576 0.39288 0.0
H129 H 0.18774 0.80318 0.33586 0.0
H130 H 0.1791 0.80016 0.30607 0.0
C131 C 0.17883 0.81208 0.32125 0.0
H132 H 0.18846 0.82816 0.31667 0.0
H133 H 0.20114 0.82185 0.37458 0.0
O134 O 0.07795 0.85679 0.36282 0.0
C135 C 0.14233 0.85487 0.40546 0.0
Co136 Co 0.14292 0.87034 0.6258 0.0
Co137 Co 0.14232 0.81592 0.62177 0.0
C138 C 0.09971 0.84432 0.63474 0.0
O139 O 0.11057 0.8636 0.63446 0.0
O140 O 0.11007 0.82531 0.63008 0.0
C141 C 0.13847 0.91565 0.64599 0.0
O142 O 0.12552 0.90452 0.66124 0.0
C143 C 0.13642 0.77327 0.6466 0.0
C144 C 0.15139 0.74611 0.62386 0.0
C145 C 0.14102 0.74969 0.64538 0.0
N146 N 0.14342 0.78325 0.62672 0.0
N147 N 0.15213 0.76695 0.61297 0.0
C148 C 0.12767 0.78664 0.66723 0.0
H149 H 0.13294 0.8052 0.66609 0.0
H150 H 0.13437 0.77902 0.68368 0.0
H151 H 0.10837 0.78576 0.66757 0.0
C152 C 0.18289 0.8597 0.6565 0.0
N153 N 0.16442 0.85304 0.64369 0.0
N154 N 0.16551 0.83047 0.6401 0.0
C155 C 0.18539 0.82217 0.64934 0.0
C156 C 0.19714 0.84041 0.66018 0.0
C157 C 0.18626 0.88398 0.66542 0.0
H158 H 0.16942 0.89088 0.67171 0.0
H159 H 0.19876 0.88457 0.68012 0.0
H160 H 0.19254 0.8953 0.65107 0.0
O161 O 0.14721 0.86265 0.5921 0.0
O162 O 0.14757 0.82395 0.5892 0.0
H163 H 0.21367 0.79744 0.64581 0.0
H164 H 0.18682 0.78586 0.65748 0.0
C165 C 0.19442 0.79815 0.64464 0.0
H166 H 0.18921 0.79252 0.62693 0.0
H167 H 0.15924 0.77015 0.59654 0.0
O168 O 0.14802 0.9043 0.62955 0.0
C169 C 0.14887 0.84407 0.57994 0.0
Co170 Co 0.11993 0.13344 0.63153 0.0
Co171 Co 0.17441 0.13323 0.63237 0.0
C172 C 0.14706 0.09038 0.64332 0.0
O173 O 0.128 0.10119 0.64014 0.0
O174 O 0.16659 0.10069 0.64124 0.0
C175 C 0.07173 0.13203 0.61957 0.0
O176 O 0.07973 0.12502 0.5993 0.0
C177 C 0.22013 0.13052 0.65371 0.0
C178 C 0.2407 0.15502 0.63231 0.0
C179 C 0.24163 0.14134 0.65216 0.0
N180 N 0.20704 0.13757 0.6357 0.0
N181 N 0.21963 0.15167 0.62256 0.0
C182 C 0.21085 0.11678 0.67387 0.0
H183 H 0.19173 0.11908 0.67538 0.0
H184 H 0.21932 0.12207 0.69043 0.0
H185 H 0.21451 0.09804 0.67088 0.0
C186 C 0.12713 0.17427 0.66161 0.0
N187 N 0.13538 0.15559 0.6501 0.0
N188 N 0.15827 0.15562 0.65092 0.0
C189 C 0.16533 0.17434 0.66331 0.0
C190 C 0.14583 0.18682 0.67035 0.0
C191 C 0.10202 0.18127 0.66165 0.0
H192 H 0.09514 0.18064 0.6436 0.0
H193 H 0.09192 0.16864 0.67226 0.0
H194 H 0.09944 0.19905 0.66873 0.0
O195 O 0.12796 0.13861 0.59857 0.0
O196 O 0.16664 0.13799 0.59904 0.0
H197 H 0.19936 0.18406 0.65161 0.0
H198 H 0.19192 0.19556 0.67997 0.0
C199 C 0.19023 0.18033 0.66821 0.0
H200 H 0.19879 0.16538 0.67677 0.0
H201 H 0.21328 0.16031 0.60789 0.0
O202 O 0.086 0.13662 0.63583 0.0
C203 C 0.14745 0.13988 0.58805 0.0
Co204 Co 0.85424 0.11623 0.62419 0.0
Co205 Co 0.85509 0.17068 0.62472 0.0
C206 C 0.89794 0.1424 0.634 0.0
O207 O 0.8869 0.1233 0.63209 0.0
O208 O 0.88766 0.16183 0.6315 0.0
C209 C 0.85846 0.07184 0.64514 0.0
O210 O 0.8686 0.08412 0.6616 0.0
C211 C 0.86085 0.21413 0.64879 0.0
C212 C 0.84349 0.23988 0.62611 0.0
C213 C 0.85503 0.23749 0.6472 0.0
N214 N 0.85323 0.20327 0.62959 0.0
N215 N 0.84316 0.21874 0.61586 0.0
C216 C 0.87095 0.20155 0.66929 0.0
H217 H 0.86664 0.18272 0.66851 0.0
H218 H 0.86431 0.20898 0.68586 0.0
H219 H 0.89018 0.20341 0.66901 0.0
C220 C 0.81408 0.12437 0.65525 0.0
N221 N 0.83289 0.13205 0.64352 0.0
N222 N 0.83318 0.15497 0.6439 0.0
C223 C 0.81458 0.16261 0.65604 0.0
C224 C 0.802 0.14347 0.66362 0.0
C225 C 0.80699 0.09933 0.65699 0.0
H226 H 0.80708 0.09128 0.63942 0.0
H227 H 0.81974 0.08995 0.66801 0.0
H228 H 0.78951 0.09727 0.66495 0.0
O229 O 0.84844 0.12493 0.59138 0.0
O230 O 0.84846 0.16369 0.59183 0.0
H231 H 0.80794 0.1957 0.64014 0.0
H232 H 0.78928 0.1893 0.66464 0.0
C233 C 0.8072 0.18757 0.65763 0.0
H234 H 0.81929 0.19708 0.6693 0.0
H235 H 0.83538 0.21472 0.59993 0.0
O236 O 0.85052 0.08221 0.62729 0.0
C237 C 0.84645 0.14444 0.58095 0.0
Co238 Co 0.87789 0.85374 0.6331 0.0
Co239 Co 0.82324 0.85417 0.63561 0.0
C240 C 0.85158 0.89704 0.64513 0.0
O241 O 0.8705 0.8861 0.64158 0.0
O242 O 0.83194 0.88681 0.64364 0.0
C243 C 0.92607 0.85432 0.62009 0.0
O244 O 0.91811 0.86138 0.59983 0.0
C245 C 0.7773 0.85925 0.65682 0.0
C246 C 0.75794 0.82998 0.64107 0.0
C247 C 0.75663 0.8467 0.65847 0.0
N248 N 0.79058 0.84958 0.64017 0.0
N249 N 0.77858 0.83262 0.63024 0.0
C250 C 0.78428 0.88061 0.67006 0.0
H251 H 0.7911 0.89367 0.65765 0.0
H252 H 0.79834 0.8762 0.68255 0.0
H253 H 0.76932 0.88858 0.67932 0.0
C254 C 0.87145 0.8139 0.66436 0.0
N255 N 0.86286 0.83222 0.65259 0.0
N256 N 0.84001 0.83229 0.65421 0.0
C257 C 0.83339 0.81405 0.66752 0.0
C258 C 0.85309 0.80178 0.67418 0.0
C259 C 0.89671 0.80759 0.66519 0.0
H260 H 0.90309 0.80429 0.64724 0.0
H261 H 0.90675 0.82243 0.67244 0.0
H262 H 0.89985 0.79198 0.67613 0.0
O263 O 0.86874 0.84824 0.60051 0.0
O264 O 0.83008 0.84881 0.60216 0.0
H265 H 0.80082 0.80121 0.65509 0.0
H266 H 0.80738 0.79235 0.68434 0.0
C267 C 0.80868 0.80693 0.67176 0.0
H268 H 0.79874 0.82195 0.67863 0.0
H269 H 0.78512 0.8218 0.61717 0.0
O270 O 0.91182 0.85008 0.63644 0.0
C271 C 0.84894 0.84683 0.59062 0.0
Co272 Co 0.36396 0.13832 0.12015 0.0
Co273 Co 0.36457 0.13807 0.17469 0.0
C274 C 0.35194 0.09559 0.14672 0.0
O275 O 0.35452 0.10623 0.12747 0.0
O276 O 0.3552 0.10591 0.16606 0.0
C277 C 0.37567 0.13852 0.07162 0.0
O278 O 0.3961 0.13138 0.07901 0.0
C279 C 0.33998 0.13485 0.21812 0.0
C280 C 0.36365 0.15119 0.2437 0.0
C281 C 0.34173 0.14127 0.24133 0.0
N282 N 0.35985 0.14062 0.20731 0.0
N283 N 0.37414 0.15007 0.2227 0.0
C284 C 0.31887 0.12603 0.20554 0.0
H285 H 0.32016 0.12973 0.18662 0.0
H286 H 0.30282 0.13414 0.21261 0.0
H287 H 0.31761 0.10689 0.20789 0.0
C288 C 0.33395 0.17893 0.1283 0.0
N289 N 0.34593 0.16043 0.13618 0.0
N290 N 0.34649 0.16094 0.15908 0.0
C291 C 0.33494 0.17999 0.16653 0.0
C292 C 0.32662 0.19191 0.14726 0.0
C293 C 0.33032 0.18436 0.10307 0.0
H294 H 0.34732 0.18875 0.09498 0.0
H295 H 0.3233 0.16875 0.09407 0.0
H296 H 0.31808 0.19909 0.1006 0.0
O297 O 0.39713 0.14257 0.12832 0.0
O298 O 0.39787 0.14254 0.16708 0.0
H299 H 0.35151 0.18581 0.1995 0.0
H300 H 0.32922 0.2068 0.19249 0.0
C301 C 0.33422 0.18817 0.19129 0.0
H302 H 0.32125 0.17772 0.20107 0.0
H303 H 0.39063 0.15658 0.21868 0.0
O304 O 0.35967 0.14256 0.08632 0.0
C305 C 0.40826 0.14392 0.14749 0.0
Co306 Co 0.85346 0.36796 0.11366 0.0
Co307 Co 0.85231 0.36546 0.16804 0.0
C308 C 0.89485 0.35238 0.14088 0.0
O309 O 0.88486 0.35672 0.12163 0.0
O310 O 0.88413 0.35484 0.1601 0.0
C311 C 0.85859 0.34767 0.06926 0.0
O312 O 0.8672 0.33065 0.08189 0.0
C313 C 0.85114 0.33893 0.21046 0.0
C314 C 0.8424 0.36476 0.23763 0.0
C315 C 0.84705 0.34138 0.23402 0.0
N316 N 0.84875 0.35981 0.20036 0.0
N317 N 0.84365 0.3753 0.21665 0.0
C318 C 0.85833 0.31727 0.1978 0.0
H319 H 0.85953 0.32043 0.17878 0.0
H320 H 0.8457 0.30303 0.20107 0.0
H321 H 0.8755 0.31143 0.20447 0.0
C322 C 0.8106 0.33969 0.11926 0.0
N323 N 0.82961 0.35031 0.12804 0.0
N324 N 0.82873 0.34962 0.15095 0.0
C325 C 0.80895 0.33871 0.15746 0.0
C326 C 0.79699 0.33192 0.13763 0.0
C327 C 0.80552 0.33731 0.09379 0.0
H328 H 0.80671 0.35462 0.0853 0.0
H329 H 0.81873 0.32574 0.08579 0.0
H330 H 0.7881 0.32967 0.0905 0.0
O331 O 0.85078 0.40101 0.12331 0.0
O332 O 0.8501 0.39915 0.16203 0.0
H333 H 0.80467 0.35329 0.1917 0.0
H334 H 0.78088 0.33502 0.18231 0.0
C335 C 0.80007 0.33728 0.18195 0.0
H336 H 0.80801 0.32205 0.19072 0.0
H337 H 0.84093 0.39298 0.21344 0.0
O338 O 0.85107 0.36586 0.0794 0.0
C339 C 0.84971 0.41089 0.1432 0.0
Co340 Co 0.63001 0.85374 0.1187 0.0
Co341 Co 0.62957 0.85581 0.17311 0.0
C342 C 0.64558 0.89622 0.14393 0.0
O343 O 0.64227 0.88514 0.12504 0.0
O344 O 0.64143 0.88681 0.16354 0.0
C345 C 0.65134 0.85354 0.07398 0.0
O346 O 0.66927 0.86169 0.08565 0.0
C347 C 0.65443 0.85595 0.21658 0.0
C348 C 0.62733 0.84926 0.24308 0.0
C349 C 0.651 0.85278 0.24016 0.0
N350 N 0.63383 0.85407 0.20581 0.0
N351 N 0.61758 0.85026 0.2217 0.0
C352 C 0.67687 0.86144 0.20444 0.0
H353 H 0.68397 0.87805 0.21134 0.0
H354 H 0.67425 0.86291 0.18536 0.0
H355 H 0.68993 0.84768 0.20795 0.0
C356 C 0.6555 0.81003 0.12828 0.0
N357 N 0.64581 0.83019 0.13535 0.0
N358 N 0.64529 0.83069 0.15829 0.0
C359 C 0.65453 0.81071 0.1665 0.0
C360 C 0.6614 0.79718 0.14779 0.0
C361 C 0.65827 0.80289 0.10335 0.0
H362 H 0.6414 0.8047 0.09414 0.0
H363 H 0.67112 0.81453 0.09487 0.0
H364 H 0.66455 0.78472 0.10163 0.0
O365 O 0.59663 0.85283 0.127 0.0
O366 O 0.59614 0.85392 0.16575 0.0
H367 H 0.63775 0.8091 0.19994 0.0
H368 H 0.65519 0.78391 0.19297 0.0
C369 C 0.65402 0.80315 0.19146 0.0
H370 H 0.66911 0.8108 0.20073 0.0
H371 H 0.59994 0.84804 0.21794 0.0
O372 O 0.63268 0.84864 0.08484 0.0
C373 C 0.58556 0.85292 0.14626 0.0
Co374 Co 0.13915 0.62766 0.11508 0.0
Co375 Co 0.14053 0.63004 0.16953 0.0
C376 C 0.09663 0.63866 0.14249 0.0
O377 O 0.10681 0.63618 0.12299 0.0
O378 O 0.10774 0.63664 0.16151 0.0
C379 C 0.13251 0.64614 0.06983 0.0
O380 O 0.12186 0.6626 0.08163 0.0
C381 C 0.13537 0.65587 0.21199 0.0
C382 C 0.15389 0.63488 0.23836 0.0
C383 C 0.14159 0.65543 0.23527 0.0
N384 N 0.14339 0.63649 0.20179 0.0
N385 N 0.15421 0.62378 0.21763 0.0
C386 C 0.12423 0.67547 0.19888 0.0
H387 H 0.1288 0.67454 0.18012 0.0
H388 H 0.1298 0.69256 0.20605 0.0
H389 H 0.10504 0.67407 0.20057 0.0
C390 C 0.17985 0.65878 0.12065 0.0
N391 N 0.16132 0.64734 0.12939 0.0
N392 N 0.16202 0.64831 0.15229 0.0
C393 C 0.18103 0.66043 0.15886 0.0
C394 C 0.19292 0.66744 0.13902 0.0
C395 C 0.18541 0.66038 0.09522 0.0
H396 H 0.18634 0.64262 0.08766 0.0
H397 H 0.17126 0.66995 0.08627 0.0
H398 H 0.202 0.66972 0.09197 0.0
O399 O 0.14469 0.59507 0.12499 0.0
O400 O 0.14642 0.5968 0.16369 0.0
H401 H 0.18877 0.64511 0.19195 0.0
H402 H 0.20739 0.6693 0.1845 0.0
C403 C 0.18935 0.66245 0.1835 0.0
H404 H 0.17766 0.67435 0.19322 0.0
H405 H 0.16237 0.60792 0.21416 0.0
O406 O 0.14174 0.62929 0.0808 0.0
C407 C 0.14731 0.58524 0.14475 0.0
Co408 Co 0.36197 0.86222 0.87949 0.0
Co409 Co 0.36404 0.86209 0.82487 0.0
C410 C 0.35142 0.90499 0.8529 0.0
O411 O 0.35298 0.89434 0.87221 0.0
O412 O 0.35535 0.89455 0.83372 0.0
C413 C 0.34215 0.86727 0.92476 0.0
O414 O 0.32624 0.87927 0.91353 0.0
C415 C 0.34035 0.86457 0.78043 0.0
C416 C 0.36121 0.84111 0.75824 0.0
C417 C 0.34021 0.85302 0.7591 0.0
N418 N 0.35972 0.85859 0.79203 0.0
N419 N 0.37257 0.84526 0.77836 0.0
C420 C 0.32285 0.8815 0.78978 0.0
H421 H 0.33186 0.89599 0.79864 0.0
H422 H 0.31153 0.87263 0.80271 0.0
H423 H 0.31216 0.88921 0.77567 0.0
C424 C 0.33079 0.82201 0.87074 0.0
N425 N 0.3436 0.84021 0.86326 0.0
N426 N 0.34571 0.83911 0.84047 0.0
C427 C 0.33506 0.81958 0.83282 0.0
C428 C 0.32508 0.80818 0.8517 0.0
C429 C 0.324 0.81824 0.89564 0.0
H430 H 0.31621 0.83444 0.9026 0.0
H431 H 0.311 0.8041 0.8976 0.0
H432 H 0.33974 0.81414 0.90606 0.0
O433 O 0.39535 0.85775 0.87149 0.0
O434 O 0.3969 0.85728 0.83277 0.0
H435 H 0.35587 0.81203 0.80292 0.0
H436 H 0.33308 0.79136 0.80763 0.0
C437 C 0.33759 0.81011 0.80865 0.0
H438 H 0.32608 0.81994 0.79668 0.0
H439 H 0.38822 0.83756 0.78343 0.0
O440 O 0.35883 0.85812 0.91346 0.0
C441 C 0.40686 0.85606 0.85255 0.0
Co442 Co 0.1423 0.36951 0.88084 0.0
Co443 Co 0.14331 0.36461 0.82651 0.0
C444 C 0.10073 0.35312 0.85447 0.0
O445 O 0.11079 0.35815 0.87351 0.0
O446 O 0.11141 0.35481 0.83516 0.0
C447 C 0.13753 0.35048 0.92562 0.0
O448 O 0.12953 0.33299 0.9132 0.0
C449 C 0.14433 0.33474 0.78628 0.0
C450 C 0.1516 0.35844 0.75686 0.0
C451 C 0.14771 0.33529 0.76249 0.0
N452 N 0.14642 0.35647 0.79459 0.0
N453 N 0.15066 0.37066 0.77695 0.0
C454 C 0.138 0.31401 0.80082 0.0
H455 H 0.13576 0.31895 0.81935 0.0
H456 H 0.15173 0.30052 0.7995 0.0
H457 H 0.12162 0.30622 0.79411 0.0
C458 C 0.18534 0.34165 0.87627 0.0
N459 N 0.16593 0.35115 0.86718 0.0
N460 N 0.16672 0.34949 0.84431 0.0
C461 C 0.18682 0.33903 0.83814 0.0
C462 C 0.19905 0.33355 0.85816 0.0
C463 C 0.19113 0.34138 0.90169 0.0
H464 H 0.18926 0.35917 0.90899 0.0
H465 H 0.17873 0.32975 0.91085 0.0
H466 H 0.209 0.33492 0.90499 0.0
O467 O 0.14558 0.40197 0.86952 0.0
O468 O 0.1464 0.39865 0.83084 0.0
H469 H 0.19068 0.353 0.8036 0.0
H470 H 0.2152 0.33609 0.8135 0.0
C471 C 0.19592 0.33745 0.81372 0.0
H472 H 0.18875 0.32167 0.80524 0.0
H473 H 0.15294 0.38862 0.77861 0.0
O474 O 0.14467 0.36869 0.9152 0.0
C475 C 0.14707 0.41107 0.84928 0.0
Co476 Co 0.62888 0.13333 0.87388 0.0
Co477 Co 0.63009 0.13383 0.81946 0.0
C478 C 0.63874 0.0902 0.84675 0.0
O479 O 0.63667 0.10082 0.86608 0.0
O480 O 0.63662 0.10096 0.82752 0.0
C481 C 0.64873 0.12796 0.91889 0.0
O482 O 0.66548 0.11782 0.90705 0.0
C483 C 0.65461 0.13022 0.77597 0.0
C484 C 0.63172 0.14834 0.75092 0.0
C485 C 0.6531 0.1373 0.75294 0.0
N486 N 0.63513 0.13675 0.787 0.0
N487 N 0.62127 0.14722 0.77192 0.0
C488 C 0.67525 0.12005 0.78825 0.0
H489 H 0.67396 0.12296 0.80731 0.0
H490 H 0.69166 0.12783 0.78162 0.0
H491 H 0.67575 0.10099 0.78503 0.0
C492 C 0.6606 0.17338 0.86719 0.0
N493 N 0.64858 0.15501 0.85889 0.0
N494 N 0.64912 0.15537 0.83597 0.0
C495 C 0.66156 0.17405 0.82896 0.0
C496 C 0.66927 0.18593 0.8485 0.0
C497 C 0.66271 0.1794 0.89248 0.0
H498 H 0.64518 0.1797 0.90059 0.0
H499 H 0.67321 0.16585 0.90131 0.0
H500 H 0.67138 0.19645 0.89521 0.0
O501 O 0.59619 0.13947 0.86487 0.0
O502 O 0.59719 0.1403 0.82615 0.0
H503 H 0.64606 0.1811 0.79573 0.0
H504 H 0.66965 0.20047 0.80318 0.0
C505 C 0.66333 0.18223 0.80425 0.0
H506 H 0.67568 0.17093 0.79465 0.0
H507 H 0.60514 0.15443 0.77618 0.0
O508 O 0.63132 0.13623 0.90804 0.0
C509 C 0.58605 0.1419 0.84526 0.0
Co510 Co 0.85008 0.62247 0.88037 0.0
Co511 Co 0.85121 0.62575 0.826 0.0
C512 C 0.89265 0.63819 0.85504 0.0
O513 O 0.88189 0.6339 0.87389 0.0
O514 O 0.88271 0.63575 0.83543 0.0
C515 C 0.85092 0.64362 0.92454 0.0
O516 O 0.85739 0.66155 0.91185 0.0
C517 C 0.8567 0.65146 0.78344 0.0
C518 C 0.83959 0.62956 0.7568 0.0
C519 C 0.85105 0.65061 0.76001 0.0
N520 N 0.84911 0.63186 0.79359 0.0
N521 N 0.83916 0.61862 0.77758 0.0
C522 C 0.86638 0.67175 0.79675 0.0
H523 H 0.86122 0.67076 0.81535 0.0
H524 H 0.86015 0.68846 0.78931 0.0
H525 H 0.88567 0.67141 0.79569 0.0
C526 C 0.80683 0.64958 0.87311 0.0
N527 N 0.82676 0.64007 0.86519 0.0
N528 N 0.82733 0.64172 0.84232 0.0
C529 C 0.80784 0.65254 0.83497 0.0
C530 C 0.79425 0.65782 0.85424 0.0
C531 C 0.79859 0.6481 0.89781 0.0
H532 H 0.8033 0.63097 0.90535 0.0
H533 H 0.80714 0.66199 0.90818 0.0
H534 H 0.77945 0.65042 0.89906 0.0
O535 O 0.84769 0.58964 0.87029 0.0
O536 O 0.84813 0.59195 0.83157 0.0
H537 H 0.80122 0.64043 0.80033 0.0
H538 H 0.78543 0.66663 0.80791 0.0
C539 C 0.80211 0.65716 0.80995 0.0
H540 H 0.81603 0.66795 0.80211 0.0
H541 H 0.83147 0.60249 0.78098 0.0
O542 O 0.84637 0.62441 0.91449 0.0
C543 C 0.84704 0.58001 0.85026 0.0
Co544 Co 0.11394 0.36813 0.14325 0.0
Co545 Co 0.16824 0.36456 0.14236 0.0
C546 C 0.13945 0.35295 0.10052 0.0
O547 O 0.12062 0.35737 0.11125 0.0
O548 O 0.15903 0.35484 0.11065 0.0
C549 C 0.06932 0.34806 0.14025 0.0
O550 O 0.08161 0.33059 0.13202 0.0
C551 C 0.21035 0.33798 0.13881 0.0
C552 C 0.2375 0.36128 0.15304 0.0
C553 C 0.23392 0.33919 0.14385 0.0
N554 N 0.20053 0.35832 0.14462 0.0
N555 N 0.21681 0.37235 0.15287 0.0
C556 C 0.19663 0.31721 0.13091 0.0
H557 H 0.17804 0.3191 0.13577 0.0
H558 H 0.20367 0.30098 0.13868 0.0
H559 H 0.19772 0.31582 0.11166 0.0
C560 C 0.1207 0.3398 0.18587 0.0
N561 N 0.12885 0.34993 0.16632 0.0
N562 N 0.15172 0.34843 0.16604 0.0
C563 C 0.15884 0.3372 0.1854 0.0
C564 C 0.13943 0.33133 0.19848 0.0
C565 C 0.09554 0.33898 0.19265 0.0
H566 H 0.08779 0.35659 0.19102 0.0
H567 H 0.08618 0.3271 0.18064 0.0
H568 H 0.09304 0.33247 0.21065 0.0
O569 O 0.12425 0.4009 0.14626 0.0
O570 O 0.16291 0.3983 0.14565 0.0
H571 H 0.19315 0.35125 0.18987 0.0
H572 H 0.18525 0.32969 0.21131 0.0
C573 C 0.18373 0.33463 0.19269 0.0
H574 H 0.1921 0.32091 0.182 0.0
H575 H 0.2137 0.38921 0.15892 0.0
O576 O 0.07978 0.36647 0.14677 0.0
C577 C 0.14435 0.41037 0.14693 0.0
Co578 Co 0.11202 0.62657 0.85143 0.0
Co579 Co 0.16647 0.63242 0.85225 0.0
C580 C 0.13745 0.64064 0.8948 0.0
O581 O 0.11888 0.63579 0.8838 0.0
O582 O 0.15716 0.64022 0.88467 0.0
C583 C 0.06715 0.6454 0.85615 0.0
O584 O 0.0793 0.66284 0.86468 0.0
C585 C 0.21147 0.65481 0.86041 0.0
C586 C 0.23114 0.6452 0.82884 0.0
C587 C 0.23171 0.65983 0.84808 0.0
N588 N 0.19898 0.63915 0.8483 0.0
N589 N 0.21128 0.63273 0.82994 0.0
C590 C 0.20476 0.66321 0.88415 0.0
H591 H 0.19893 0.64812 0.89468 0.0
H592 H 0.19014 0.67575 0.88271 0.0
H593 H 0.21964 0.67138 0.89338 0.0
C594 C 0.11716 0.65694 0.81034 0.0
N595 N 0.12601 0.64647 0.82936 0.0
N596 N 0.14866 0.65 0.83012 0.0
C597 C 0.1547 0.66372 0.81197 0.0
C598 C 0.13502 0.66826 0.79875 0.0
C599 C 0.09226 0.65512 0.80283 0.0
H600 H 0.08624 0.63682 0.80437 0.0
H601 H 0.08141 0.66607 0.81445 0.0
H602 H 0.08969 0.66128 0.78471 0.0
O603 O 0.123 0.59461 0.84641 0.0
O604 O 0.16155 0.59843 0.84703 0.0
H605 H 0.18803 0.65572 0.79769 0.0
H606 H 0.17953 0.68542 0.79355 0.0
C607 C 0.17909 0.67067 0.80599 0.0
H608 H 0.18853 0.67587 0.82198 0.0
H609 H 0.20537 0.62109 0.81727 0.0
O610 O 0.07781 0.6275 0.84866 0.0
C611 C 0.14332 0.58583 0.8451 0.0
Co612 Co 0.3675 0.12449 0.85457 0.0
Co613 Co 0.36847 0.17889 0.85557 0.0
C614 C 0.35796 0.15048 0.89829 0.0
O615 O 0.35935 0.13137 0.88719 0.0
O616 O 0.36115 0.16987 0.88807 0.0
C617 C 0.3462 0.07977 0.85728 0.0
O618 O 0.3288 0.09167 0.86619 0.0
C619 C 0.34573 0.22286 0.86218 0.0
C620 C 0.36912 0.24832 0.84525 0.0
C621 C 0.34813 0.24633 0.85705 0.0
N622 N 0.36442 0.21158 0.85401 0.0
N623 N 0.37856 0.22685 0.84415 0.0
C624 C 0.32495 0.21069 0.87226 0.0
H625 H 0.32494 0.19201 0.8673 0.0
H626 H 0.30858 0.21893 0.86619 0.0
H627 H 0.32565 0.21187 0.89155 0.0
C628 C 0.33594 0.13354 0.81477 0.0
N629 N 0.34851 0.14079 0.83321 0.0
N630 N 0.34921 0.16372 0.8333 0.0
C631 C 0.33729 0.17175 0.81474 0.0
C632 C 0.32833 0.1529 0.80263 0.0
C633 C 0.33366 0.10866 0.80726 0.0
H634 H 0.35076 0.09983 0.80859 0.0
H635 H 0.32119 0.09965 0.81894 0.0
H636 H 0.32718 0.10723 0.7891 0.0
O637 O 0.40058 0.13273 0.84933 0.0
O638 O 0.40124 0.17145 0.84945 0.0
H639 H 0.35368 0.20453 0.80773 0.0
H640 H 0.32806 0.19894 0.79022 0.0
C641 C 0.33598 0.19682 0.80772 0.0
H642 H 0.3252 0.20644 0.82052 0.0
H643 H 0.39428 0.22253 0.83612 0.0
O644 O 0.36439 0.0905 0.85067 0.0
C645 C 0.41161 0.15194 0.84763 0.0
Co646 Co 0.88135 0.36286 0.85168 0.0
Co647 Co 0.82703 0.35939 0.85255 0.0
C648 C 0.85581 0.34827 0.89453 0.0
O649 O 0.87466 0.35248 0.88373 0.0
O650 O 0.83622 0.35014 0.88442 0.0
C651 C 0.92638 0.34357 0.85521 0.0
O652 O 0.91455 0.32611 0.86412 0.0
C653 C 0.78475 0.33294 0.85646 0.0
C654 C 0.75792 0.35572 0.84097 0.0
C655 C 0.7613 0.33395 0.8509 0.0
N656 N 0.79472 0.3531 0.85022 0.0
N657 N 0.77861 0.36684 0.84124 0.0
C658 C 0.79824 0.31237 0.86514 0.0
H659 H 0.81691 0.31408 0.8605 0.0
H660 H 0.79123 0.29594 0.85772 0.0
H661 H 0.79682 0.31154 0.8844 0.0
C662 C 0.87461 0.33401 0.80949 0.0
N663 N 0.86644 0.34432 0.82892 0.0
N664 N 0.84357 0.34282 0.82918 0.0
C665 C 0.83647 0.33137 0.80993 0.0
C666 C 0.8559 0.3254 0.79694 0.0
C667 C 0.89976 0.33336 0.80265 0.0
H668 H 0.90726 0.35114 0.8037 0.0
H669 H 0.90932 0.32205 0.81501 0.0
H670 H 0.90226 0.32631 0.78484 0.0
O671 O 0.87113 0.39551 0.84819 0.0
O672 O 0.83246 0.39311 0.84868 0.0
H673 H 0.80237 0.34558 0.8048 0.0
H674 H 0.81009 0.32319 0.78414 0.0
C675 C 0.81158 0.32878 0.80259 0.0
H676 H 0.80299 0.31554 0.81372 0.0
H677 H 0.78187 0.38348 0.83468 0.0
O678 O 0.91548 0.36145 0.84809 0.0
C679 C 0.85112 0.40507 0.84726 0.0
Co680 Co 0.62759 0.86866 0.85865 0.0
Co681 Co 0.62413 0.81438 0.85974 0.0
C682 C 0.64228 0.84276 0.9004 0.0
O683 O 0.63979 0.86192 0.88966 0.0
O684 O 0.63695 0.82348 0.89079 0.0
C685 C 0.61682 0.91739 0.85777 0.0
O686 O 0.59669 0.91059 0.86626 0.0
C687 C 0.64933 0.77154 0.85671 0.0
C688 C 0.62234 0.74424 0.85384 0.0
C689 C 0.6462 0.74784 0.85419 0.0
N690 N 0.62838 0.78173 0.85736 0.0
N691 N 0.61221 0.76539 0.85576 0.0
C692 C 0.67192 0.78432 0.85952 0.0
H693 H 0.66898 0.80221 0.86616 0.0
H694 H 0.68088 0.78557 0.84246 0.0
H695 H 0.68354 0.77465 0.87156 0.0
C696 C 0.65443 0.85855 0.81622 0.0
N697 N 0.64311 0.85153 0.83548 0.0
N698 N 0.63953 0.82897 0.8344 0.0
C699 C 0.64722 0.82103 0.81367 0.0
C700 C 0.6572 0.83948 0.80151 0.0
C701 C 0.66277 0.88299 0.81251 0.0
H702 H 0.66822 0.89073 0.82936 0.0
H703 H 0.67773 0.88355 0.8003 0.0
H704 H 0.64832 0.89363 0.80535 0.0
O705 O 0.59367 0.86123 0.85776 0.0
O706 O 0.59105 0.82254 0.85868 0.0
H707 H 0.63948 0.79792 0.78502 0.0
H708 H 0.65636 0.78528 0.80808 0.0
C709 C 0.64179 0.7973 0.80421 0.0
H710 H 0.62567 0.79034 0.81225 0.0
H711 H 0.59434 0.76865 0.85585 0.0
O712 O 0.63225 0.90227 0.85312 0.0
C713 C 0.58154 0.84257 0.85792 0.0
Co714 Co 0.87476 0.63041 0.14171 0.0
Co715 Co 0.82035 0.62997 0.14173 0.0
C716 C 0.84781 0.64302 0.09924 0.0
O717 O 0.86708 0.64023 0.10976 0.0
O718 O 0.82853 0.63977 0.10966 0.0
C719 C 0.9232 0.61926 0.13994 0.0
O720 O 0.91563 0.59905 0.13229 0.0
C721 C 0.77624 0.65317 0.13858 0.0
C722 C 0.75134 0.62842 0.15437 0.0
C723 C 0.75299 0.65039 0.14444 0.0
N724 N 0.78772 0.63381 0.1446 0.0
N725 N 0.77278 0.61888 0.15378 0.0
C726 C 0.78812 0.6747 0.12979 0.0
H727 H 0.80695 0.67431 0.13403 0.0
H728 H 0.78015 0.69055 0.13747 0.0
H729 H 0.78627 0.67556 0.11057 0.0
C730 C 0.86689 0.65977 0.18302 0.0
N731 N 0.85891 0.64811 0.16431 0.0
N732 N 0.83602 0.64782 0.16475 0.0
C733 C 0.82867 0.65928 0.18391 0.0
C734 C 0.848 0.66721 0.19603 0.0
C735 C 0.89215 0.66299 0.18857 0.0
H736 H 0.90006 0.64577 0.19232 0.0
H737 H 0.9012 0.67045 0.17321 0.0
H738 H 0.89474 0.67471 0.20373 0.0
O739 O 0.86685 0.59702 0.14545 0.0
O740 O 0.82813 0.59679 0.14546 0.0
H741 H 0.79554 0.64304 0.18973 0.0
H742 H 0.80256 0.66568 0.21042 0.0
C743 C 0.80387 0.66033 0.19189 0.0
H744 H 0.79428 0.67313 0.18111 0.0
H745 H 0.77733 0.60252 0.16024 0.0
O746 O 0.9086 0.63495 0.14531 0.0
C747 C 0.84753 0.58611 0.14659 0.0
Co748 Co 0.36578 0.87607 0.14156 0.0
Co749 Co 0.36669 0.82172 0.13724 0.0
C750 C 0.35054 0.85274 0.09814 0.0
O751 O 0.35396 0.87113 0.10993 0.0
O752 O 0.35467 0.83275 0.10671 0.0
C753 C 0.34573 0.92115 0.1405 0.0
O754 O 0.3291 0.91002 0.12937 0.0
C755 C 0.34111 0.77928 0.13206 0.0
C756 C 0.36554 0.7516 0.14278 0.0
C757 C 0.34294 0.75545 0.13517 0.0
N758 N 0.36161 0.78908 0.13734 0.0
N759 N 0.37632 0.77249 0.1435 0.0
C760 C 0.31962 0.79298 0.12656 0.0
H761 H 0.32138 0.8112 0.13277 0.0
H762 H 0.30407 0.78486 0.13468 0.0
H763 H 0.31706 0.79331 0.10741 0.0
C764 C 0.33869 0.86439 0.18379 0.0
N765 N 0.34944 0.85827 0.16388 0.0
N766 N 0.35116 0.83545 0.16296 0.0
C767 C 0.34233 0.8263 0.1827 0.0
C768 C 0.33409 0.84434 0.19657 0.0
C769 C 0.33252 0.88897 0.18996 0.0
H770 H 0.32396 0.89733 0.17487 0.0
H771 H 0.32036 0.88994 0.20491 0.0
H772 H 0.34864 0.89885 0.19402 0.0
O773 O 0.39922 0.86749 0.14251 0.0
O774 O 0.40007 0.82883 0.13944 0.0
H775 H 0.34301 0.79871 0.20843 0.0
H776 H 0.3304 0.79108 0.18066 0.0
C777 C 0.34443 0.80116 0.18932 0.0
H778 H 0.36146 0.79426 0.18347 0.0
H779 H 0.39344 0.77548 0.14882 0.0
O780 O 0.36317 0.90979 0.14801 0.0
C781 C 0.41046 0.84835 0.14154 0.0
Co782 Co 0.62626 0.1145 0.13653 0.0
Co783 Co 0.62855 0.16887 0.1334 0.0
C784 C 0.64158 0.13861 0.09304 0.0
O785 O 0.6373 0.1202 0.10453 0.0
O786 O 0.63903 0.15862 0.10218 0.0
C787 C 0.64757 0.07034 0.13552 0.0
O788 O 0.66487 0.08278 0.12714 0.0
C789 C 0.65384 0.21191 0.12845 0.0
C790 C 0.62973 0.23854 0.14219 0.0
C791 C 0.65188 0.23556 0.13301 0.0
N792 N 0.63386 0.20149 0.13456 0.0
N793 N 0.61934 0.21747 0.1425 0.0
C794 C 0.67505 0.19878 0.12082 0.0
H795 H 0.67381 0.18023 0.12609 0.0
H796 H 0.69103 0.20659 0.12841 0.0
H797 H 0.67639 0.19952 0.10155 0.0
C798 C 0.65414 0.12372 0.17891 0.0
N799 N 0.64386 0.13085 0.15907 0.0
N800 N 0.64495 0.15373 0.15784 0.0
C801 C 0.65611 0.16187 0.17686 0.0
C802 C 0.6623 0.14312 0.19071 0.0
C803 C 0.65547 0.09886 0.18668 0.0
H804 H 0.63812 0.09053 0.18499 0.0
H805 H 0.66788 0.0894 0.17533 0.0
H806 H 0.66162 0.09727 0.20491 0.0
O807 O 0.59327 0.12395 0.13901 0.0
O808 O 0.59485 0.16263 0.13683 0.0
H809 H 0.64174 0.19616 0.18011 0.0
H810 H 0.66375 0.18946 0.20151 0.0
C811 C 0.6585 0.1871 0.18305 0.0
H812 H 0.67193 0.19518 0.17178 0.0
H813 H 0.60264 0.21391 0.14872 0.0
O814 O 0.62881 0.08053 0.14133 0.0
C815 C 0.58327 0.14378 0.13891 0.0
C816 C 0.12673 0.14406 0.55001 0.0
C817 C 0.14772 0.14288 0.56245 0.0
C818 C 0.12663 0.14574 0.52566 0.0
C819 C 0.14802 0.14631 0.51347 0.0
C820 C 0.16928 0.14565 0.5259 0.0
C821 C 0.16889 0.14394 0.55027 0.0
C822 C 0.1036 0.1464 0.51297 0.0
C823 C 0.19243 0.14627 0.51342 0.0
C824 C 0.14645 0.12583 0.45078 0.0
C825 C 0.14559 0.147 0.4386 0.0
C826 C 0.14766 0.12539 0.47515 0.0
C827 C 0.14806 0.14663 0.48764 0.0
C828 C 0.14766 0.16807 0.47551 0.0
C829 C 0.14641 0.16801 0.45111 0.0
C830 C 0.14806 0.10218 0.48753 0.0
C831 C 0.14812 0.19105 0.48832 0.0
H832 H 0.11028 0.14332 0.55924 0.0
H833 H 0.18519 0.14311 0.55973 0.0
H834 H 0.10271 0.16203 0.50165 0.0
H835 H 0.10199 0.13091 0.5015 0.0
H836 H 0.08852 0.14666 0.52509 0.0
H837 H 0.20737 0.14671 0.52569 0.0
H838 H 0.19416 0.13068 0.50212 0.0
H839 H 0.1934 0.16179 0.50194 0.0
H840 H 0.14588 0.1095 0.4413 0.0
H841 H 0.14585 0.18446 0.44186 0.0
H842 H 0.13243 0.10047 0.49877 0.0
H843 H 0.16353 0.10108 0.49904 0.0
H844 H 0.14843 0.08725 0.47521 0.0
H845 H 0.13242 0.19263 0.49946 0.0
H846 H 0.1487 0.20617 0.47627 0.0
H847 H 0.1635 0.19186 0.49999 0.0
C848 C 0.86497 0.14508 0.44545 0.0
C849 C 0.8447 0.14441 0.43186 0.0
C850 C 0.86373 0.14566 0.46979 0.0
C851 C 0.84169 0.14558 0.48078 0.0
C852 C 0.82114 0.14526 0.46724 0.0
C853 C 0.82288 0.14467 0.44289 0.0
C854 C 0.88603 0.14602 0.48375 0.0
C855 C 0.79735 0.1452 0.47846 0.0
C856 C 0.84192 0.12378 0.5429 0.0
C857 C 0.8429 0.14473 0.55546 0.0
C858 C 0.84065 0.12382 0.51855 0.0
C859 C 0.84033 0.14531 0.50652 0.0
C860 C 0.84033 0.16651 0.51908 0.0
C861 C 0.84162 0.16597 0.54344 0.0
C862 C 0.84057 0.10087 0.50566 0.0
C863 C 0.83989 0.18975 0.50676 0.0
H864 H 0.8819 0.14493 0.4371 0.0
H865 H 0.80711 0.1442 0.43253 0.0
H866 H 0.88633 0.16145 0.4954 0.0
H867 H 0.88698 0.13032 0.49497 0.0
H868 H 0.90176 0.14651 0.47249 0.0
H869 H 0.78308 0.14565 0.46542 0.0
H870 H 0.79526 0.12936 0.48932 0.0
H871 H 0.79553 0.16045 0.4902 0.0
H872 H 0.84275 0.10729 0.55204 0.0
H873 H 0.84221 0.18225 0.553 0.0
H874 H 0.85688 0.09913 0.49543 0.0
H875 H 0.82586 0.10022 0.49316 0.0
H876 H 0.83918 0.08573 0.51763 0.0
H877 H 0.85624 0.1921 0.49673 0.0
H878 H 0.83808 0.20456 0.5191 0.0
H879 H 0.82528 0.19036 0.49414 0.0
C880 C 0.84577 0.82548 0.4522 0.0
C881 C 0.84657 0.84732 0.44122 0.0
C882 C 0.84523 0.82369 0.47656 0.0
C883 C 0.84555 0.8442 0.49021 0.0
C884 C 0.84598 0.86628 0.47927 0.0
C885 C 0.84646 0.86757 0.45491 0.0
C886 C 0.8447 0.79986 0.48769 0.0
C887 C 0.84636 0.88855 0.49331 0.0
C888 C 0.82643 0.84374 0.5534 0.0
C889 C 0.84793 0.84408 0.56501 0.0
C890 C 0.82536 0.84305 0.529 0.0
C891 C 0.84627 0.84271 0.51597 0.0
C892 C 0.86798 0.84226 0.52757 0.0
C893 C 0.86856 0.84292 0.55196 0.0
C894 C 0.80188 0.84345 0.51716 0.0
C895 C 0.89066 0.84186 0.51422 0.0
H896 H 0.84576 0.80973 0.44178 0.0
H897 H 0.84703 0.88452 0.44662 0.0
H898 H 0.86067 0.79725 0.49824 0.0
H899 H 0.82963 0.79846 0.49969 0.0
H900 H 0.84355 0.78565 0.4746 0.0
H901 H 0.84601 0.90432 0.48211 0.0
H902 H 0.83118 0.88912 0.50525 0.0
H903 H 0.86228 0.88915 0.50424 0.0
H904 H 0.81039 0.84453 0.56333 0.0
H905 H 0.88525 0.84306 0.56075 0.0
H906 H 0.80051 0.82892 0.50448 0.0
H907 H 0.79991 0.85992 0.50724 0.0
H908 H 0.78728 0.84207 0.52978 0.0
H909 H 0.89079 0.82711 0.50173 0.0
H910 H 0.90601 0.84025 0.52588 0.0
H911 H 0.89246 0.85812 0.50394 0.0
C912 C 0.15099 0.86771 0.54342 0.0
C913 C 0.15114 0.84586 0.55436 0.0
C914 C 0.15113 0.86952 0.51908 0.0
C915 C 0.15141 0.849 0.50543 0.0
C916 C 0.15242 0.82693 0.51632 0.0
C917 C 0.15229 0.82563 0.54067 0.0
C918 C 0.15015 0.89335 0.50798 0.0
C919 C 0.15281 0.80468 0.50226 0.0
C920 C 0.12489 0.85173 0.44519 0.0
C921 C 0.14474 0.85311 0.43103 0.0
C922 C 0.12686 0.85042 0.46946 0.0
C923 C 0.14922 0.85052 0.47979 0.0
C924 C 0.16935 0.85188 0.46566 0.0
C925 C 0.16687 0.85313 0.44141 0.0
C926 C 0.10501 0.84893 0.48405 0.0
C927 C 0.19345 0.85204 0.47617 0.0
H928 H 0.15022 0.88344 0.55384 0.0
H929 H 0.15254 0.80866 0.54895 0.0
H930 H 0.16436 0.8953 0.49503 0.0
H931 H 0.13344 0.8954 0.49851 0.0
H932 H 0.15164 0.90759 0.52101 0.0
H933 H 0.15508 0.78901 0.51337 0.0
H934 H 0.13625 0.80288 0.49246 0.0
H935 H 0.16712 0.80521 0.48929 0.0
H936 H 0.10773 0.85169 0.43734 0.0
H937 H 0.18231 0.85423 0.4306 0.0
H938 H 0.10432 0.86377 0.49642 0.0
H939 H 0.10518 0.83271 0.49455 0.0
H940 H 0.08894 0.8491 0.47328 0.0
H941 H 0.19526 0.86697 0.48832 0.0
H942 H 0.20732 0.8533 0.46273 0.0
H943 H 0.19624 0.83593 0.48646 0.0
C944 C 0.44686 0.147 0.16756 0.0
C945 C 0.43392 0.14625 0.14685 0.0
C946 C 0.47126 0.14779 0.16707 0.0
C947 C 0.48293 0.1478 0.14536 0.0
C948 C 0.46999 0.14764 0.1244 0.0
C949 C 0.44564 0.14689 0.1254 0.0
C950 C 0.48456 0.14804 0.18976 0.0
C951 C 0.48187 0.14764 0.10091 0.0
C952 C 0.54618 0.16648 0.14186 0.0
C953 C 0.55762 0.1449 0.14111 0.0
C954 C 0.52186 0.16772 0.14357 0.0
C955 C 0.50871 0.14689 0.14448 0.0
C956 C 0.52013 0.12507 0.14394 0.0
C957 C 0.54445 0.12434 0.14229 0.0
C958 C 0.51021 0.19129 0.14415 0.0
C959 C 0.50663 0.10249 0.14483 0.0
H960 H 0.43797 0.14659 0.18422 0.0
H961 H 0.43582 0.14641 0.10928 0.0
H962 H 0.49509 0.13192 0.19129 0.0
H963 H 0.49684 0.16297 0.19013 0.0
H964 H 0.47287 0.14925 0.20513 0.0
H965 H 0.46925 0.1485 0.08627 0.0
H966 H 0.49395 0.16267 0.09956 0.0
H967 H 0.49244 0.13159 0.09895 0.0
H968 H 0.55621 0.18247 0.14103 0.0
H969 H 0.5531 0.10758 0.14173 0.0
H970 H 0.49927 0.19288 0.16 0.0
H971 H 0.49851 0.19317 0.12889 0.0
H972 H 0.52299 0.20583 0.14396 0.0
H973 H 0.4957 0.10192 0.16076 0.0
H974 H 0.51818 0.08698 0.14472 0.0
H975 H 0.49472 0.10136 0.12965 0.0
C976 C 0.8687 0.54812 0.14851 0.0
C977 C 0.8476 0.56041 0.1482 0.0
C978 C 0.86898 0.52372 0.14858 0.0
C979 C 0.84766 0.51135 0.14834 0.0
C980 C 0.82631 0.5236 0.14857 0.0
C981 C 0.82653 0.548 0.14852 0.0
C982 C 0.89208 0.51117 0.14841 0.0
C983 C 0.80325 0.51093 0.14837 0.0
C984 C 0.84828 0.44999 0.12409 0.0
C985 C 0.84855 0.43659 0.14451 0.0
C986 C 0.84785 0.47437 0.12511 0.0
C987 C 0.8477 0.48558 0.14707 0.0
C988 C 0.84777 0.47221 0.16775 0.0
C989 C 0.84818 0.44785 0.16623 0.0
C990 C 0.84774 0.48814 0.10269 0.0
C991 C 0.84761 0.48363 0.19146 0.0
H992 H 0.88506 0.55755 0.14833 0.0
H993 H 0.81014 0.55733 0.14835 0.0
H994 H 0.89304 0.49882 0.16324 0.0
H995 H 0.89376 0.50079 0.13218 0.0
H996 H 0.90708 0.52336 0.14951 0.0
H997 H 0.78821 0.52303 0.1495 0.0
H998 H 0.80162 0.50057 0.13212 0.0
H999 H 0.80231 0.49854 0.16317 0.0
H1000 H 0.84854 0.44146 0.10724 0.0
H1001 H 0.84838 0.43765 0.18211 0.0
H1002 H 0.86333 0.49954 0.10189 0.0
H1003 H 0.83222 0.49962 0.10209 0.0
H1004 H 0.84761 0.47675 0.08704 0.0
H1005 H 0.86322 0.49485 0.19346 0.0
H1006 H 0.84739 0.47071 0.20586 0.0
H1007 H 0.83213 0.49504 0.1932 0.0
C1008 C 0.54784 0.85194 0.12463 0.0
C1009 C 0.55985 0.85194 0.14592 0.0
C1010 C 0.52348 0.85121 0.124 0.0
C1011 C 0.51087 0.8504 0.14515 0.0
C1012 C 0.52283 0.85029 0.16668 0.0
C1013 C 0.54721 0.85108 0.16682 0.0
C1014 C 0.51124 0.8514 0.1007 0.0
C1015 C 0.50986 0.84939 0.18956 0.0
C1016 C 0.44805 0.87018 0.14392 0.0
C1017 C 0.43615 0.84885 0.14279 0.0
C1018 C 0.47241 0.87092 0.14484 0.0
C1019 C 0.48511 0.84984 0.14469 0.0
C1020 C 0.47327 0.82825 0.14373 0.0
C1021 C 0.4489 0.82801 0.14277 0.0
C1022 C 0.48454 0.89427 0.1458 0.0
C1023 C 0.48634 0.80543 0.14358 0.0
H1024 H 0.55745 0.85262 0.10839 0.0
H1025 H 0.55634 0.85103 0.18334 0.0
H1026 H 0.5002 0.83563 0.09891 0.0
H1027 H 0.49957 0.86674 0.09956 0.0
H1028 H 0.52364 0.85196 0.08586 0.0
H1029 H 0.52179 0.84922 0.20479 0.0
H1030 H 0.49816 0.86468 0.1911 0.0
H1031 H 0.49875 0.83358 0.19023 0.0
H1032 H 0.43836 0.88637 0.14394 0.0
H1033 H 0.43986 0.81144 0.14197 0.0
H1034 H 0.49612 0.89628 0.13045 0.0
H1035 H 0.49567 0.89531 0.16156 0.0
H1036 H 0.47207 0.90905 0.14608 0.0
H1037 H 0.49796 0.80462 0.12816 0.0
H1038 H 0.47448 0.79014 0.14318 0.0
H1039 H 0.49754 0.80416 0.15928 0.0
C1040 C 0.12603 0.44976 0.14941 0.0
C1041 C 0.14618 0.43602 0.14845 0.0
C1042 C 0.12747 0.47411 0.14965 0.0
C1043 C 0.14959 0.48495 0.1489 0.0
C1044 C 0.17002 0.47125 0.14842 0.0
C1045 C 0.16808 0.44692 0.14821 0.0
C1046 C 0.10529 0.48823 0.15023 0.0
C1047 C 0.19389 0.4823 0.14767 0.0
C1048 C 0.15013 0.54643 0.12523 0.0
C1049 C 0.15008 0.55966 0.14578 0.0
C1050 C 0.15067 0.52206 0.126 0.0
C1051 C 0.15119 0.51068 0.14784 0.0
C1052 C 0.15199 0.52388 0.16863 0.0
C1053 C 0.15144 0.54825 0.16736 0.0
C1054 C 0.14989 0.50848 0.10346 0.0
C1055 C 0.15265 0.51227 0.19223 0.0
H1056 H 0.10905 0.44151 0.14967 0.0
H1057 H 0.18376 0.43645 0.14752 0.0
H1058 H 0.10555 0.50039 0.16526 0.0
H1059 H 0.10395 0.49894 0.1342 0.0
H1060 H 0.08951 0.4771 0.15154 0.0
H1061 H 0.20807 0.46917 0.14837 0.0
H1062 H 0.19583 0.49258 0.13141 0.0
H1063 H 0.19604 0.49455 0.16247 0.0
H1064 H 0.1492 0.55508 0.10847 0.0
H1065 H 0.15151 0.55832 0.18334 0.0
H1066 H 0.13348 0.49831 0.10254 0.0
H1067 H 0.16449 0.49587 0.10275 0.0
H1068 H 0.15089 0.51997 0.08792 0.0
H1069 H 0.13624 0.50247 0.19511 0.0
H1070 H 0.15481 0.52502 0.20663 0.0
H1071 H 0.16713 0.49953 0.19301 0.0
C1072 C 0.44396 0.85255 0.87507 0.0
C1073 C 0.43241 0.85313 0.85354 0.0
C1074 C 0.46824 0.85048 0.87621 0.0
C1075 C 0.48123 0.84894 0.85532 0.0
C1076 C 0.4697 0.84926 0.83356 0.0
C1077 C 0.44542 0.85134 0.83292 0.0
C1078 C 0.48002 0.85016 0.89973 0.0
C1079 C 0.48305 0.84761 0.81093 0.0
C1080 C 0.54492 0.86603 0.85652 0.0
C1081 C 0.55586 0.84421 0.85732 0.0
C1082 C 0.5206 0.86782 0.85597 0.0
C1083 C 0.50694 0.8473 0.85621 0.0
C1084 C 0.51782 0.82523 0.85707 0.0
C1085 C 0.54217 0.82394 0.85762 0.0
C1086 C 0.50953 0.89166 0.85505 0.0
C1087 C 0.50374 0.80299 0.85735 0.0
H1088 H 0.43407 0.8539 0.8911 0.0
H1089 H 0.43666 0.85174 0.8162 0.0
H1090 H 0.49044 0.83402 0.90167 0.0
H1091 H 0.49223 0.86508 0.90117 0.0
H1092 H 0.46735 0.85112 0.91433 0.0
H1093 H 0.47141 0.84774 0.79548 0.0
H1094 H 0.49538 0.86244 0.80949 0.0
H1095 H 0.49353 0.83139 0.8106 0.0
H1096 H 0.55533 0.88178 0.8563 0.0
H1097 H 0.55046 0.807 0.85826 0.0
H1098 H 0.49771 0.89402 0.87016 0.0
H1099 H 0.49881 0.89329 0.83906 0.0
H1100 H 0.52264 0.9059 0.85519 0.0
H1101 H 0.49177 0.80295 0.87253 0.0
H1102 H 0.5149 0.78722 0.85825 0.0
H1103 H 0.49283 0.8019 0.84144 0.0
C1104 C 0.14848 0.45072 0.86723 0.0
C1105 C 0.14912 0.43669 0.84721 0.0
C1106 C 0.14921 0.47505 0.86556 0.0
C1107 C 0.15067 0.48562 0.84335 0.0
C1108 C 0.15203 0.47162 0.82311 0.0
C1109 C 0.15119 0.44729 0.82527 0.0
C1110 C 0.14768 0.48944 0.88755 0.0
C1111 C 0.15372 0.48234 0.79915 0.0
C1112 C 0.12558 0.5464 0.84026 0.0
C1113 C 0.1456 0.56028 0.84244 0.0
C1114 C 0.12711 0.52208 0.83974 0.0
C1115 C 0.14919 0.51133 0.84138 0.0
C1116 C 0.16956 0.52518 0.84265 0.0
C1117 C 0.16752 0.54954 0.84318 0.0
C1118 C 0.10499 0.50786 0.83832 0.0
C1119 C 0.1934 0.51426 0.84428 0.0
H1120 H 0.14698 0.44273 0.88426 0.0
H1121 H 0.15184 0.4366 0.80971 0.0
H1122 H 0.16244 0.50189 0.88843 0.0
H1123 H 0.1314 0.49984 0.8874 0.0
H1124 H 0.14782 0.47853 0.90352 0.0
H1125 H 0.15639 0.46905 0.78533 0.0
H1126 H 0.13751 0.49207 0.79524 0.0
H1127 H 0.1683 0.49501 0.7985 0.0
H1128 H 0.10856 0.55451 0.8395 0.0
H1129 H 0.18309 0.56011 0.84476 0.0
H1130 H 0.10273 0.4977 0.8546 0.0
H1131 H 0.10607 0.49522 0.82374 0.0
H1132 H 0.08932 0.5189 0.83576 0.0
H1133 H 0.19507 0.50486 0.86108 0.0
H1134 H 0.20757 0.5274 0.84315 0.0
H1135 H 0.19581 0.50127 0.83017 0.0
C1136 C 0.44904 0.13031 0.84317 0.0
C1137 C 0.43716 0.15158 0.84468 0.0
C1138 C 0.47338 0.12964 0.84214 0.0
C1139 C 0.4861 0.15075 0.84263 0.0
C1140 C 0.47426 0.1723 0.84346 0.0
C1141 C 0.44989 0.17247 0.84446 0.0
C1142 C 0.48551 0.10631 0.84117 0.0
C1143 C 0.48733 0.19514 0.84395 0.0
C1144 C 0.54775 0.14654 0.86537 0.0
C1145 C 0.56063 0.14574 0.84462 0.0
C1146 C 0.52348 0.14871 0.86495 0.0
C1147 C 0.51185 0.15013 0.84328 0.0
C1148 C 0.52474 0.14998 0.82229 0.0
C1149 C 0.54901 0.14778 0.8232 0.0
C1150 C 0.51023 0.1489 0.8877 0.0
C1151 C 0.51284 0.15153 0.79888 0.0
H1152 H 0.43936 0.11409 0.84323 0.0
H1153 H 0.44085 0.18901 0.84555 0.0
H1154 H 0.49747 0.10565 0.826 0.0
H1155 H 0.49623 0.10389 0.85706 0.0
H1156 H 0.47304 0.09156 0.83985 0.0
H1157 H 0.47548 0.21041 0.84328 0.0
H1158 H 0.49788 0.19627 0.8601 0.0
H1159 H 0.49957 0.19615 0.82902 0.0
H1160 H 0.55658 0.14507 0.88199 0.0
H1161 H 0.55881 0.14728 0.80708 0.0
H1162 H 0.49861 0.13347 0.8886 0.0
H1163 H 0.49903 0.16459 0.88874 0.0
H1164 H 0.52198 0.14867 0.90307 0.0
H1165 H 0.50152 0.13608 0.79627 0.0
H1166 H 0.52548 0.15244 0.78425 0.0
H1167 H 0.50149 0.16714 0.79821 0.0
C1168 C 0.8456 0.5408 0.86905 0.0
C1169 C 0.84569 0.55434 0.84871 0.0
C1170 C 0.84549 0.51644 0.86788 0.0
C1171 C 0.84542 0.50537 0.84586 0.0
C1172 C 0.84497 0.51887 0.82526 0.0
C1173 C 0.84512 0.54322 0.82693 0.0
C1174 C 0.84597 0.50254 0.89023 0.0
C1175 C 0.84482 0.50757 0.80149 0.0
C1176 C 0.8699 0.44424 0.84452 0.0
C1177 C 0.84957 0.4307 0.84533 0.0
C1178 C 0.86875 0.4686 0.84411 0.0
C1179 C 0.84676 0.47965 0.84449 0.0
C1180 C 0.82616 0.46614 0.84464 0.0
C1181 C 0.8278 0.44178 0.84507 0.0
C1182 C 0.8911 0.48251 0.8439 0.0
C1183 C 0.80241 0.4774 0.84497 0.0
H1184 H 0.84597 0.54921 0.88596 0.0
H1185 H 0.8451 0.55354 0.81112 0.0
H1186 H 0.83111 0.49019 0.8907 0.0
H1187 H 0.86217 0.49207 0.89104 0.0
H1188 H 0.84514 0.51382 0.90594 0.0
H1189 H 0.84334 0.52054 0.78721 0.0
H1190 H 0.86108 0.49748 0.79895 0.0
H1191 H 0.83009 0.49513 0.80012 0.0
H1192 H 0.88679 0.43585 0.84462 0.0
H1193 H 0.81199 0.43146 0.84559 0.0
H1194 H 0.89243 0.49297 0.86011 0.0
H1195 H 0.89112 0.49489 0.82907 0.0
H1196 H 0.90675 0.47124 0.84255 0.0
H1197 H 0.80019 0.48746 0.86134 0.0
H1198 H 0.7881 0.46442 0.84373 0.0
H1199 H 0.80075 0.48988 0.83032 0.0
C1200 C 0.15892 0.93807 0.33526 0.0
C1201 C 0.13868 0.92632 0.34229 0.0
C1202 C 0.15926 0.96243 0.33319 0.0
C1203 C 0.1389 0.97528 0.33839 0.0
C1204 C 0.11809 0.96344 0.34424 0.0
C1205 C 0.11819 0.9391 0.34601 0.0
C1206 C 0.18169 0.97445 0.32652 0.0
C1207 C 0.09601 0.97655 0.34992 0.0
C1208 C 0.14482 0.03617 0.36312 0.0
C1209 C 0.13823 0.04998 0.34411 0.0
C1210 C 0.14557 0.01185 0.36129 0.0
C1211 C 0.13979 0.00108 0.33986 0.0
C1212 C 0.1338 0.01492 0.32039 0.0
C1213 C 0.13297 0.03925 0.32278 0.0
C1214 C 0.15194 -0.00236 0.3825 0.0
C1215 C 0.1278 0.00403 0.2972 0.0
H1216 H 0.17473 0.92835 0.33201 0.0
H1217 H 0.10241 0.93021 0.35132 0.0
H1218 H 0.17852 0.98746 0.31259 0.0
H1219 H 0.1887 0.98398 0.34181 0.0
H1220 H 0.19511 0.96194 0.3204 0.0
H1221 H 0.08087 0.96472 0.35233 0.0
H1222 H 0.09851 0.98669 0.3662 0.0
H1223 H 0.09185 0.98914 0.33588 0.0
H1224 H 0.14895 0.04434 0.37965 0.0
H1225 H 0.12803 0.04983 0.30795 0.0
H1226 H 0.16685 0.98605 0.37847 0.0
H1227 H 0.13707 0.98635 0.38751 0.0
H1228 H 0.15665 0.00873 0.39765 0.0
H1229 H 0.14184 0.99198 0.29165 0.0
H1230 H 0.12516 0.01727 0.28335 0.0
H1231 H 0.11164 0.99357 0.29889 0.0
C1232 C 0.95992 0.13805 0.32292 0.0
C1233 C 0.94763 0.14033 0.34392 0.0
C1234 C 0.98433 0.13953 0.32242 0.0
C1235 C -0.00333 0.14313 0.34345 0.0
C1236 C 0.98434 0.1457 0.36465 0.0
C1237 C 0.95997 0.14437 0.36461 0.0
C1238 C -0.00309 0.13697 0.29947 0.0
C1239 C -0.0031 0.14941 0.38748 0.0
C1240 C 0.0592 0.12324 0.35 0.0
C1241 C 0.07129 0.14449 0.3495 0.0
C1242 C 0.03496 0.12248 0.34721 0.0
C1243 C 0.02254 0.14344 0.34361 0.0
C1244 C 0.03473 0.16481 0.3419 0.0
C1245 C 0.05898 0.1651 0.34495 0.0
C1246 C 0.02255 0.09935 0.34922 0.0
C1247 C 0.02209 0.18748 0.33776 0.0
H1248 H 0.95049 0.13507 0.30684 0.0
H1249 H 0.95061 0.14615 0.38092 0.0
H1250 H 0.0084 0.15222 0.29647 0.0
H1251 H 0.00819 0.1213 0.2999 0.0
H1252 H 0.98471 0.13535 0.28454 0.0
H1253 H 0.98471 0.15146 0.40237 0.0
H1254 H 0.00849 0.13438 0.39106 0.0
H1255 H 0.00806 0.16516 0.38644 0.0
H1256 H 0.06854 0.10721 0.35342 0.0
H1257 H 0.0682 0.18158 0.34433 0.0
H1258 H 0.01102 0.09655 0.33397 0.0
H1259 H 0.01136 0.09935 0.36498 0.0
H1260 H 0.03487 0.08449 0.35044 0.0
H1261 H 0.01019 0.18585 0.32263 0.0
H1262 H 0.03427 0.20218 0.33457 0.0
H1263 H 0.01125 0.19174 0.35319 0.0
C1264 C 0.85464 0.95837 0.32655 0.0
C1265 C 0.85092 0.94826 0.34849 0.0
C1266 C 0.85422 0.98264 0.32365 0.0
C1267 C 0.85016 -0.00292 0.3432 0.0
C1268 C 0.84608 0.98697 0.36533 0.0
C1269 C 0.84642 0.96267 0.36769 0.0
C1270 C 0.85842 0.99283 0.29977 0.0
C1271 C 0.84176 0.00184 0.38662 0.0
C1272 C 0.87192 0.05931 0.34555 0.0
C1273 C 0.85112 0.07188 0.34318 0.0
C1274 C 0.87202 0.03491 0.34454 0.0
C1275 C 0.85084 0.02282 0.34087 0.0
C1276 C 0.83006 0.03543 0.33695 0.0
C1277 C 0.83043 0.05983 0.33821 0.0
C1278 C 0.89456 0.02205 0.34876 0.0
C1279 C 0.8072 0.02313 0.33264 0.0
H1280 H 0.85799 0.94733 0.3116 0.0
H1281 H 0.84352 0.95499 0.38469 0.0
H1282 H 0.84384 0.00451 0.29489 0.0
H1283 H 0.8745 0.00355 0.29995 0.0
H1284 H 0.86025 0.97918 0.28617 0.0
H1285 H 0.8385 0.99123 0.40248 0.0
H1286 H 0.85703 0.01324 0.38986 0.0
H1287 H 0.82653 0.01333 0.38368 0.0
H1288 H 0.88802 0.06844 0.34929 0.0
H1289 H 0.8143 0.0694 0.33613 0.0
H1290 H 0.8975 0.00888 0.33493 0.0
H1291 H 0.89353 0.01261 0.36559 0.0
H1292 H 0.9098 0.03398 0.34932 0.0
H1293 H 0.80924 0.00964 0.31896 0.0
H1294 H 0.79325 0.03539 0.32726 0.0
H1295 H 0.80156 0.01415 0.3488 0.0
C1296 C 0.92962 0.87685 0.35135 0.0
C1297 C 0.91777 0.85549 0.35006 0.0
C1298 C 0.95378 0.87804 0.34817 0.0
C1299 C 0.96636 0.85742 0.34336 0.0
C1300 C 0.95437 0.83603 0.34069 0.0
C1301 C 0.9302 0.83529 0.34416 0.0
C1302 C 0.96598 0.90117 0.35121 0.0
C1303 C 0.96719 0.81373 0.33524 0.0
C1304 C 0.02897 0.86435 0.32318 0.0
C1305 C 0.04117 0.86105 0.34408 0.0
C1306 C 0.00459 0.86274 0.32251 0.0
C1307 C 0.9922 0.85795 0.34328 0.0
C1308 C 0.00445 0.85441 0.36437 0.0
C1309 C 0.02879 0.85589 0.36449 0.0
C1310 C 0.99207 0.86635 0.29967 0.0
C1311 C 0.99182 0.84944 0.38693 0.0
H1312 H 0.92018 0.89258 0.35578 0.0
H1313 H 0.92116 0.81875 0.3429 0.0
H1314 H 0.97709 0.9006 0.36701 0.0
H1315 H 0.97754 0.90473 0.33615 0.0
H1316 H 0.95352 0.91585 0.35305 0.0
H1317 H 0.95512 0.79917 0.33111 0.0
H1318 H 0.97916 0.81632 0.32028 0.0
H1319 H 0.97797 0.80863 0.35043 0.0
H1320 H 0.03846 0.86818 0.30731 0.0
H1321 H 0.0381 0.85332 0.38071 0.0
H1322 H 0.98061 0.88184 0.30089 0.0
H1323 H 0.98076 0.85115 0.29582 0.0
H1324 H 0.00431 0.86889 0.2849 0.0
H1325 H 0.98004 0.86414 0.39122 0.0
H1326 H 0.00397 0.8468 0.40175 0.0
H1327 H 0.98086 0.83363 0.38504 0.0
C1328 C 0.1664 0.05287 0.65465 0.0
C1329 C 0.14639 0.06494 0.64757 0.0
C1330 C 0.16629 0.02848 0.65664 0.0
C1331 C 0.14582 0.01591 0.65102 0.0
C1332 C 0.12541 0.02804 0.6445 0.0
C1333 C 0.12589 0.0524 0.64305 0.0
C1334 C 0.18824 0.01613 0.66411 0.0
C1335 C 0.1033 0.01526 0.63812 0.0
C1336 C 0.15012 0.95386 0.62877 0.0
C1337 C 0.14183 0.94112 0.64788 0.0
C1338 C 0.15206 0.97819 0.62978 0.0
C1339 C 0.14594 0.99002 0.65055 0.0
C1340 C 0.13843 0.97717 0.67021 0.0
C1341 C 0.13625 0.95287 0.66857 0.0
C1342 C 0.15983 0.9913 0.60833 0.0
C1343 C 0.13216 0.98915 0.69278 0.0
H1344 H 0.18225 0.06246 0.65833 0.0
H1345 H 0.11035 0.06154 0.6375 0.0
H1346 H 0.18441 0.00382 0.67851 0.0
H1347 H 0.19519 0.00574 0.64937 0.0
H1348 H 0.20196 0.02848 0.66995 0.0
H1349 H 0.08871 0.02733 0.63421 0.0
H1350 H 0.10643 0.00417 0.62259 0.0
H1351 H 0.09792 0.00357 0.65253 0.0
H1352 H 0.15444 0.94488 0.61272 0.0
H1353 H 0.13007 0.94307 0.68349 0.0
H1354 H 0.17492 0.00263 0.61252 0.0
H1355 H 0.14556 0.00279 0.60221 0.0
H1356 H 0.16481 0.97945 0.59386 0.0
H1357 H 0.14644 0.00099 0.69826 0.0
H1358 H 0.12869 0.97654 0.70704 0.0
H1359 H 0.1164 -0.0 0.69023 0.0
C1360 C 0.03779 0.13931 0.64591 0.0
C1361 C 0.04641 0.13433 0.62357 0.0
C1362 C 0.01378 0.14117 0.64999 0.0
C1363 C -0.00192 0.13817 0.63125 0.0
C1364 C 0.00667 0.13338 0.60863 0.0
C1365 C 0.03074 0.13143 0.60508 0.0
C1366 C 0.00521 0.14615 0.67436 0.0
C1367 C 0.99043 0.13026 0.58816 0.0
C1368 C 0.93513 0.12073 0.64053 0.0
C1369 C 0.92357 0.14191 0.63672 0.0
C1370 C 0.9595 0.11947 0.63989 0.0
C1371 C 0.97258 0.13983 0.63516 0.0
C1372 C 0.9611 0.16146 0.63247 0.0
C1373 C 0.93671 0.16226 0.6334 0.0
C1374 C 0.97118 0.09615 0.64319 0.0
C1375 C 0.97448 0.18354 0.62737 0.0
H1376 H 0.0498 0.14156 0.6603 0.0
H1377 H 0.03726 0.12768 0.58776 0.0
H1378 H 0.99462 0.1623 0.67449 0.0
H1379 H 0.99377 0.13177 0.68036 0.0
H1380 H 0.01972 0.14821 0.687 0.0
H1381 H -6e-05 0.12704 0.57162 0.0
H1382 H 0.97852 0.11539 0.59141 0.0
H1383 H 0.97948 0.14603 0.586 0.0
H1384 H 0.92512 0.10496 0.64333 0.0
H1385 H 0.92795 0.17872 0.6305 0.0
H1386 H 0.98533 0.09753 0.65626 0.0
H1387 H 0.97922 0.09052 0.62654 0.0
H1388 H 0.95874 0.08246 0.64891 0.0
H1389 H 0.98873 0.18593 0.64019 0.0
H1390 H 0.96316 0.19922 0.62773 0.0
H1391 H 0.98262 0.18226 0.60988 0.0
C1392 C 0.8327 0.93482 0.65632 0.0
C1393 C 0.85253 0.92251 0.64917 0.0
C1394 C 0.83295 0.95922 0.65796 0.0
C1395 C 0.85347 0.97156 0.65205 0.0
C1396 C 0.87379 0.9592 0.64565 0.0
C1397 C 0.87311 0.93484 0.64442 0.0
C1398 C 0.81106 0.97182 0.66523 0.0
C1399 C 0.89597 0.97176 0.63907 0.0
C1400 C 0.84854 0.03294 0.62839 0.0
C1401 C 0.85616 0.04629 0.64738 0.0
C1402 C 0.84717 0.00861 0.62987 0.0
C1403 C 0.85334 -0.00261 0.65093 0.0
C1404 C 0.86044 0.01078 0.67037 0.0
C1405 C 0.86189 0.03511 0.66833 0.0
C1406 C 0.83968 0.99489 0.60869 0.0
C1407 C 0.86688 -0.0006 0.69318 0.0
H1408 H 0.81683 0.92547 0.6603 0.0
H1409 H 0.88856 0.92552 0.63888 0.0
H1410 H 0.81495 0.98443 0.67936 0.0
H1411 H 0.80413 0.9819 0.65028 0.0
H1412 H 0.7973 0.95965 0.67134 0.0
H1413 H 0.9106 0.95956 0.63575 0.0
H1414 H 0.893 0.98226 0.62312 0.0
H1415 H 0.90118 0.98398 0.65311 0.0
H1416 H 0.84406 0.04146 0.61215 0.0
H1417 H 0.86762 0.04534 0.68314 0.0
H1418 H 0.82456 0.98366 0.61303 0.0
H1419 H 0.85402 0.98325 0.60303 0.0
H1420 H 0.83483 0.00631 0.59385 0.0
H1421 H 0.85259 0.98781 0.69912 0.0
H1422 H 0.87055 0.01237 0.70708 0.0
H1423 H 0.88254 0.98838 0.69076 0.0
C1424 C 0.06119 0.82398 0.63359 0.0
C1425 C 0.07411 0.84433 0.63778 0.0
C1426 C 0.0368 0.82457 0.63263 0.0
C1427 C 0.02509 0.84596 0.63612 0.0
C1428 C 0.03793 0.86623 0.64181 0.0
C1429 C 0.06231 0.86518 0.64254 0.0
C1430 C 0.02367 0.80257 0.62659 0.0
C1431 C 0.02601 0.8893 0.64597 0.0
C1432 C 0.96718 0.85522 0.60584 0.0
C1433 C 0.95137 0.85172 0.6241 0.0
C1434 C 0.99122 0.85316 0.60952 0.0
C1435 C -0.00037 0.84757 0.63202 0.0
C1436 C 0.98377 0.84387 0.6505 0.0
C1437 C 0.95981 0.84593 0.64631 0.0
C1438 C 0.00764 0.8571 0.58933 0.0
C1439 C 0.99213 0.83796 0.67473 0.0
H1440 H 0.07013 0.80775 0.63001 0.0
H1441 H 0.07212 0.88095 0.64601 0.0
H1442 H 0.00923 0.79967 0.6391 0.0
H1443 H 0.0158 0.80437 0.60903 0.0
H1444 H 0.03511 0.78698 0.6266 0.0
H1445 H 0.03827 0.90285 0.65238 0.0
H1446 H 0.0181 0.89552 0.62948 0.0
H1447 H 0.01173 0.88727 0.65883 0.0
H1448 H 0.9608 0.85961 0.58863 0.0
H1449 H 0.9477 0.8432 0.66053 0.0
H1450 H 0.0187 0.84148 0.58668 0.0
H1451 H 0.01943 0.87192 0.59325 0.0
H1452 H -0.00172 0.86087 0.57283 0.0
H1453 H 0.00295 0.82197 0.67428 0.0
H1454 H 0.9775 0.83519 0.68709 0.0
H1455 H 0.00329 0.85224 0.68148 0.0
C1456 C 0.35879 0.1703 0.93711 0.0
C1457 C 0.35527 0.14999 0.92394 0.0
C1458 C 0.36007 0.16941 0.96149 0.0
C1459 C 0.35757 0.14773 0.97295 0.0
C1460 C 0.35251 0.12744 0.95988 0.0
C1461 C 0.35148 0.12879 0.93551 0.0
C1462 C 0.36544 0.19143 0.97486 0.0
C1463 C 0.34938 0.10406 0.97153 0.0
C1464 C 0.38915 0.13875 0.03023 0.0
C1465 C 0.37109 0.14138 0.04643 0.0
C1466 C 0.38498 0.14104 0.00628 0.0
C1467 C 0.36215 0.14591 -0.00166 0.0
C1468 C 0.34385 0.14871 0.01458 0.0
C1469 C 0.34855 0.14649 0.03846 0.0
C1470 C 0.40499 0.13811 0.98945 0.0
C1471 C 0.31929 0.15379 0.00673 0.0
H1472 H 0.36163 0.18678 0.92835 0.0
H1473 H 0.34852 0.11304 0.92551 0.0
H1474 H 0.35307 0.19363 0.98953 0.0
H1475 H 0.38317 0.19023 0.98243 0.0
H1476 H 0.36463 0.20718 0.96364 0.0
H1477 H 0.34324 0.09048 0.95917 0.0
H1478 H 0.36621 0.09832 0.97907 0.0
H1479 H 0.33672 0.1054 0.98607 0.0
H1480 H 0.40661 0.1349 0.03625 0.0
H1481 H 0.33448 0.14853 0.05088 0.0
H1482 H 0.40684 0.15396 0.97855 0.0
H1483 H 0.40143 0.12331 0.97753 0.0
H1484 H 0.42178 0.13485 -0.00152 0.0
H1485 H 0.31893 0.16994 0.99614 0.0
H1486 H 0.30709 0.15586 0.02161 0.0
H1487 H 0.3129 0.13943 0.99546 0.0
C1488 C 0.8623 0.32421 0.03273 0.0
C1489 C 0.85737 0.34552 0.04363 0.0
C1490 C 0.86166 0.32208 0.00838 0.0
C1491 C 0.85623 0.34181 0.99467 0.0
C1492 C 0.85102 0.3633 0.00559 0.0
C1493 C 0.85153 0.36487 0.02995 0.0
C1494 C 0.86705 0.29883 -0.00268 0.0
C1495 C 0.8453 0.38478 0.99152 0.0
C1496 C 0.87727 0.34676 0.93235 0.0
C1497 C 0.85655 0.34339 0.91984 0.0
C1498 C 0.87758 0.34544 0.95672 0.0
C1499 C 0.85673 0.34035 0.96885 0.0
C1500 C 0.83607 0.3356 0.95629 0.0
C1501 C 0.83619 0.33729 0.93191 0.0
C1502 C 0.89995 0.35069 0.96953 0.0
C1503 C 0.8136 0.32975 0.96864 0.0
H1504 H 0.86667 0.30914 0.04321 0.0
H1505 H 0.84772 0.38139 0.03826 0.0
H1506 H 0.85258 0.29348 0.98568 0.0
H1507 H 0.88292 0.3003 0.98639 0.0
H1508 H 0.86987 0.28493 0.01047 0.0
H1509 H 0.84133 0.40007 0.0027 0.0
H1510 H 0.8602 0.38926 0.98005 0.0
H1511 H 0.8301 0.38135 0.9801 0.0
H1512 H 0.8931 0.35144 0.92319 0.0
H1513 H 0.82015 0.33444 0.92236 0.0
H1514 H 0.90394 0.3366 0.98212 0.0
H1515 H 0.89796 0.36705 0.97964 0.0
H1516 H 0.91499 0.3527 0.95751 0.0
H1517 H 0.81646 0.3157 0.98158 0.0
H1518 H 0.79975 0.32414 0.95634 0.0
H1519 H 0.80731 0.34526 0.97831 0.0
C1520 C 0.65275 0.82247 0.93763 0.0
C1521 C 0.64921 0.84323 0.92524 0.0
C1522 C 0.65612 0.82276 0.96186 0.0
C1523 C 0.65564 0.84428 0.97392 0.0
C1524 C 0.65337 0.86533 0.96134 0.0
C1525 C 0.65034 0.86456 0.93715 0.0
C1526 C 0.65897 0.79999 0.97468 0.0
C1527 C 0.65265 0.88864 0.97357 0.0
C1528 C 0.63245 0.8461 0.03561 0.0
C1529 C 0.65279 0.84993 0.04854 0.0
C1530 C 0.63326 0.84369 0.01135 0.0
C1531 C 0.655 0.8448 -0.00024 0.0
C1532 C 0.6757 0.84787 0.01277 0.0
C1533 C 0.67433 0.8506 0.03705 0.0
C1534 C 0.61076 0.84068 -0.00195 0.0
C1535 C 0.6992 0.84874 0.00101 0.0
H1536 H 0.65215 0.80592 0.92854 0.0
H1537 H 0.64775 0.88072 0.92775 0.0
H1538 H 0.67359 0.8011 0.98726 0.0
H1539 H 0.64294 0.7962 0.98478 0.0
H1540 H 0.66221 0.78521 0.9626 0.0
H1541 H 0.65267 0.90346 0.96113 0.0
H1542 H 0.63667 0.88974 0.9844 0.0
H1543 H 0.66777 0.89054 0.98543 0.0
H1544 H 0.61574 0.84556 0.04439 0.0
H1545 H 0.69014 0.85331 0.047 0.0
H1546 H 0.61149 0.8247 0.9872 0.0
H1547 H 0.60823 0.85565 0.98609 0.0
H1548 H 0.59539 0.83948 0.00975 0.0
H1549 H 0.70147 0.83338 0.9895 0.0
H1550 H 0.71374 0.8492 0.01377 0.0
H1551 H 0.70034 0.86448 0.98986 0.0
C1552 C 0.14266 0.62832 0.03143 0.0
C1553 C 0.13389 0.64726 0.04412 0.0
C1554 C 0.1434 0.6288 0.00703 0.0
C1555 C 0.13537 0.64877 0.99504 0.0
C1556 C 0.12693 0.66814 0.00774 0.0
C1557 C 0.1262 0.66711 0.03216 0.0
C1558 C 0.15239 0.60774 0.99406 0.0
C1559 C 0.11844 0.68981 0.99552 0.0
C1560 C 0.15535 0.65419 0.93227 0.0
C1561 C 0.13619 0.64504 0.92019 0.0
C1562 C 0.15504 0.6563 0.95662 0.0
C1563 C 0.13514 0.64896 0.96917 0.0
C1564 C 0.11542 0.64051 0.95704 0.0
C1565 C 0.11614 0.63876 0.93269 0.0
C1566 C 0.17629 0.66571 0.96896 0.0
C1567 C 0.09388 0.63244 0.96983 0.0
H1568 H 0.14864 0.61292 0.04055 0.0
H1569 H 0.11953 0.68187 0.04186 0.0
H1570 H 0.13848 0.60059 0.9827 0.0
H1571 H 0.16712 0.6128 0.98262 0.0
H1572 H 0.15837 0.59375 0.006 0.0
H1573 H 0.11339 0.70375 0.00796 0.0
H1574 H 0.1322 0.69666 0.9838 0.0
H1575 H 0.10316 0.68553 0.9845 0.0
H1576 H 0.17073 0.65945 0.92276 0.0
H1577 H 0.10122 0.63168 0.92353 0.0
H1578 H 0.18422 0.65178 0.97974 0.0
H1579 H 0.1713 0.68006 0.98092 0.0
H1580 H 0.18964 0.67229 0.95659 0.0
H1581 H 0.09819 0.61711 0.98078 0.0
H1582 H 0.07957 0.62753 0.95776 0.0
H1583 H 0.08752 0.64633 0.98165 0.0
C1584 C 0.34595 0.87636 0.062 0.0
C1585 C 0.34388 0.85481 0.07335 0.0
C1586 C 0.34309 0.87814 0.03784 0.0
C1587 C 0.33764 0.85796 0.02477 0.0
C1588 C 0.33399 0.83646 0.03629 0.0
C1589 C 0.33735 0.83509 0.06047 0.0
C1590 C 0.34735 0.90134 0.02617 0.0
C1591 C 0.32764 0.81469 0.02295 0.0
C1592 C 0.31955 0.86807 0.96199 0.0
C1593 C 0.34055 0.86403 0.95021 0.0
C1594 C 0.31805 0.86538 0.98625 0.0
C1595 C 0.33816 0.85898 -0.00105 0.0
C1596 C 0.35934 0.85466 0.98709 0.0
C1597 C 0.36021 0.85704 0.96283 0.0
C1598 C 0.29509 0.86967 -0.00168 0.0
C1599 C 0.38126 0.84813 7e-05 0.0
H1600 H 0.35094 0.89171 0.07181 0.0
H1601 H 0.33547 0.81843 0.06917 0.0
H1602 H 0.36326 0.90025 0.01525 0.0
H1603 H 0.33266 0.9058 0.01447 0.0
H1604 H 0.34966 0.91569 0.03896 0.0
H1605 H 0.32235 0.80024 0.0347 0.0
H1606 H 0.31322 0.81826 0.01061 0.0
H1607 H 0.34282 0.80885 0.01253 0.0
H1608 H 0.30424 0.87325 0.95225 0.0
H1609 H 0.37649 0.85395 0.95379 0.0
H1610 H 0.29661 0.88499 0.01001 0.0
H1611 H 0.29042 0.85449 0.00934 0.0
H1612 H 0.28073 0.87288 0.98577 0.0
H1613 H 0.38602 0.86226 0.0124 0.0
H1614 H 0.39621 0.84504 0.98818 0.0
H1615 H 0.37827 0.83215 0.0105 0.0
C1616 C 0.13371 0.32759 0.96248 0.0
C1617 C 0.13851 0.3488 0.95131 0.0
C1618 C 0.13412 0.32584 0.98686 0.0
C1619 C 0.13923 0.34583 0.00035 0.0
C1620 C 0.14429 0.36723 0.98917 0.0
C1621 C 0.14398 0.36843 0.96478 0.0
C1622 C 0.12888 0.30268 -0.00182 0.0
C1623 C 0.14968 0.38898 0.003 0.0
C1624 C 0.11804 0.35103 0.06265 0.0
C1625 C 0.13875 0.34791 0.07522 0.0
C1626 C 0.11779 0.34959 0.03827 0.0
C1627 C 0.1387 0.34467 0.02619 0.0
C1628 C 0.15938 0.34021 0.03882 0.0
C1629 C 0.15919 0.34197 0.0632 0.0
C1630 C 0.09539 0.35448 0.02539 0.0
C1631 C 0.18193 0.33456 0.02653 0.0
H1632 H 0.12961 0.3123 0.95217 0.0
H1633 H 0.14769 0.38488 0.95627 0.0
H1634 H 0.1434 0.2976 0.00986 0.0
H1635 H 0.11302 0.30415 0.00911 0.0
H1636 H 0.12614 0.28859 0.98519 0.0
H1637 H 0.1535 0.40417 0.99165 0.0
H1638 H 0.13469 0.39339 0.01437 0.0
H1639 H 0.16489 0.38592 0.0145 0.0
H1640 H 0.10215 0.35558 0.07177 0.0
H1641 H 0.17523 0.33933 0.07278 0.0
H1642 H 0.09155 0.34024 0.0129 0.0
H1643 H 0.09726 0.37077 0.01515 0.0
H1644 H 0.08033 0.35644 0.03738 0.0
H1645 H 0.17925 0.3203 0.01377 0.0
H1646 H 0.19586 0.32933 0.03889 0.0
H1647 H 0.18801 0.35004 0.01668 0.0
C1648 C 0.65428 0.15651 0.05532 0.0
C1649 C 0.64759 0.13673 0.06803 0.0
C1650 C 0.65722 0.15543 0.03107 0.0
C1651 C 0.65309 0.13416 0.01929 0.0
C1652 C 0.64745 0.1139 0.03214 0.0
C1653 C 0.64491 0.1154 0.05638 0.0
C1654 C 0.66367 0.1773 0.01796 0.0
C1655 C 0.64278 0.09091 0.02019 0.0
C1656 C 0.63052 0.13667 0.95735 0.0
C1657 C 0.6502 0.13013 0.9445 0.0
C1658 C 0.63135 0.13826 0.98169 0.0
C1659 C 0.65248 0.13349 0.99344 0.0
C1660 C 0.67256 0.12734 0.98055 0.0
C1661 C 0.67115 0.12557 0.9562 0.0
C1662 C 0.60948 0.14463 0.99486 0.0
C1663 C 0.69545 0.12246 0.99251 0.0
H1664 H 0.65662 0.17301 0.06422 0.0
H1665 H 0.63981 0.1 0.06604 0.0
H1666 H 0.67812 0.17377 0.00562 0.0
H1667 H 0.64855 0.18328 0.00755 0.0
H1668 H 0.66899 0.19164 0.02984 0.0
H1669 H 0.64042 0.07643 0.0328 0.0
H1670 H 0.62679 0.09234 0.00945 0.0
H1671 H 0.65731 0.08643 0.00827 0.0
H1672 H 0.61427 0.14018 0.94842 0.0
H1673 H 0.68647 0.12068 0.94632 0.0
H1674 H 0.61257 0.1604 0.00561 0.0
H1675 H 0.60466 0.1303 0.0069 0.0
H1676 H 0.59453 0.14803 0.98307 0.0
H1677 H 0.70047 0.13747 0.00363 0.0
H1678 H 0.70972 0.11904 0.9799 0.0
H1679 H 0.69364 0.10711 0.0041 0.0
C1680 C 0.85128 0.66756 0.96097 0.0
C1681 C 0.849 0.64577 0.95013 0.0
C1682 C 0.85023 0.66968 0.98531 0.0
C1683 C 0.84704 0.6495 -0.00093 0.0
C1684 C 0.84437 0.62751 0.98821 0.0
C1685 C 0.84528 0.62592 0.96386 0.0
C1686 C 0.8529 0.69344 0.9963 0.0
C1687 C 0.84107 0.60555 0.00233 0.0
C1688 C 0.86876 0.64691 0.06128 0.0
C1689 C 0.84787 0.64794 0.07392 0.0
C1690 C 0.86881 0.64832 0.03691 0.0
C1691 C 0.84748 0.65103 0.02489 0.0
C1692 C 0.82648 0.6534 0.03757 0.0
C1693 C 0.8269 0.65174 0.06195 0.0
C1694 C 0.89158 0.64569 0.02398 0.0
C1695 C 0.80344 0.65664 0.02533 0.0
H1696 H 0.854 0.683 0.95045 0.0
H1697 H 0.84348 0.60903 0.95561 0.0
H1698 H 0.83802 0.69701 0.0081 0.0
H1699 H 0.86894 0.69392 0.00705 0.0
H1700 H 0.85392 0.70756 0.98311 0.0
H1701 H 0.8387 0.5899 0.99118 0.0
H1702 H 0.85643 0.60274 0.0137 0.0
H1703 H 0.82565 0.6073 0.01384 0.0
H1704 H 0.88506 0.64404 0.07034 0.0
H1705 H 0.81069 0.65276 0.07158 0.0
H1706 H 0.8939 0.66016 0.0114 0.0
H1707 H 0.89139 0.62922 0.01385 0.0
H1708 H 0.90679 0.6454 0.03592 0.0
H1709 H 0.80467 0.6709 0.01235 0.0
H1710 H 0.78912 0.66069 0.0377 0.0
H1711 H 0.79887 0.64049 0.01574 0.0
C1712 C 0.93305 0.34862 0.12041 0.0
C1713 C 0.91999 0.34672 0.141 0.0
C1714 C 0.95736 0.34665 0.12073 0.0
C1715 C 0.96889 0.34243 0.14209 0.0
C1716 C 0.95575 0.33911 0.16269 0.0
C1717 C 0.93144 0.3414 0.16193 0.0
C1718 C 0.97078 0.35034 0.09838 0.0
C1719 C 0.96744 0.33421 0.18573 0.0
C1720 C 0.03247 0.32489 0.13813 0.0
C1721 C 0.04369 0.34629 0.14188 0.0
C1722 C 0.0081 0.32318 0.13882 0.0
C1723 C 0.9947 0.3434 0.14308 0.0
C1724 C 0.00595 0.36496 0.14727 0.0
C1725 C 0.03033 0.36611 0.14675 0.0
C1726 C -0.00331 0.29985 0.13459 0.0
C1727 C 0.99223 0.38695 0.15172 0.0
H1728 H 0.92439 0.35264 0.10413 0.0
H1729 H 0.92148 0.33969 0.17788 0.0
H1730 H 0.98126 0.36654 0.09974 0.0
H1731 H 0.98307 0.33576 0.09543 0.0
H1732 H 0.95915 0.35182 0.08299 0.0
H1733 H 0.95471 0.32949 0.19952 0.0
H1734 H 0.9802 0.31983 0.18386 0.0
H1735 H 0.9772 0.34987 0.1915 0.0
H1736 H 0.04272 0.30945 0.13455 0.0
H1737 H 0.03888 0.3827 0.14966 0.0
H1738 H 0.9863 0.3005 0.11832 0.0
H1739 H 0.9845 0.29568 0.149 0.0
H1740 H 0.0096 0.28554 0.13306 0.0
H1741 H 0.9812 0.39095 0.13637 0.0
H1742 H 0.00365 0.40219 0.15525 0.0
H1743 H 0.98042 0.38448 0.16681 0.0
C1744 C 0.93046 0.64104 0.87641 0.0
C1745 C 0.91776 0.64398 0.85575 0.0
C1746 C 0.95477 0.64331 0.87661 0.0
C1747 C 0.9666 0.6489 0.85571 0.0
C1748 C 0.95378 0.6532 0.83512 0.0
C1749 C 0.92951 0.65057 0.83535 0.0
C1750 C 0.96787 0.63851 0.89891 0.0
C1751 C 0.96578 0.65956 0.81258 0.0
C1752 C 0.02988 0.66746 0.86049 0.0
C1753 C 0.04147 0.64659 0.85529 0.0
C1754 C 0.00548 0.66863 0.8603 0.0
C1755 C 0.99243 0.6484 0.85502 0.0
C1756 C 0.00403 0.62735 0.84954 0.0
C1757 C 0.02842 0.62673 0.84963 0.0
C1758 C 0.99366 0.69143 0.86595 0.0
C1759 C 0.99068 0.60535 0.84395 0.0
H1760 H 0.92155 0.63598 0.89227 0.0
H1761 H 0.91981 0.65307 0.81935 0.0
H1762 H 0.97849 0.62251 0.89682 0.0
H1763 H 0.98002 0.65302 0.90284 0.0
H1764 H 0.95602 0.63609 0.91402 0.0
H1765 H 0.95322 0.66474 0.79882 0.0
H1766 H 0.97822 0.67408 0.81543 0.0
H1767 H 0.97594 0.64443 0.80617 0.0
H1768 H 0.03987 0.68292 0.86475 0.0
H1769 H 0.03726 0.61055 0.84561 0.0
H1770 H 0.9829 0.68948 0.88188 0.0
H1771 H 0.98176 0.69643 0.85158 0.0
H1772 H 0.00634 0.70579 0.86879 0.0
H1773 H 0.9795 0.60048 0.85895 0.0
H1774 H 0.00235 0.59048 0.83988 0.0
H1775 H 0.97904 0.60833 0.82883 0.0
C1776 C 0.32345 0.04257 0.85726 0.0
C1777 C 0.34486 0.05416 0.85521 0.0
C1778 C 0.32219 0.01817 0.85591 0.0
C1779 C 0.34288 0.00515 0.85284 0.0
C1780 C 0.36449 0.0168 0.85053 0.0
C1781 C 0.36519 0.04117 0.85155 0.0
C1782 C 0.2988 0.00633 0.85803 0.0
C1783 C 0.38698 0.0035 0.84753 0.0
C1784 C 0.34683 0.94281 0.87398 0.0
C1785 C 0.34664 0.93035 0.85293 0.0
C1786 C 0.34485 0.96714 0.87424 0.0
C1787 C 0.34225 0.97929 0.85297 0.0
C1788 C 0.34087 0.96678 0.83176 0.0
C1789 C 0.34328 0.94246 0.83197 0.0
C1790 C 0.34663 0.97989 0.8972 0.0
C1791 C 0.33772 0.97915 0.80877 0.0
H1792 H 0.30766 0.05256 0.8599 0.0
H1793 H 0.38179 0.05003 0.85002 0.0
H1794 H 0.29589 0.99462 0.84292 0.0
H1795 H 0.29842 0.99535 0.87392 0.0
H1796 H 0.28424 0.01901 0.85897 0.0
H1797 H 0.40228 0.01521 0.84568 0.0
H1798 H 0.38984 0.992 0.86279 0.0
H1799 H 0.38597 0.99217 0.8319 0.0
H1800 H 0.3494 0.93365 0.89029 0.0
H1801 H 0.34301 0.93302 0.81564 0.0
H1802 H 0.33161 0.9918 0.89946 0.0
H1803 H 0.36263 0.99075 0.89736 0.0
H1804 H 0.34725 0.96781 0.9123 0.0
H1805 H 0.32296 0.99157 0.80981 0.0
H1806 H 0.33447 0.96681 0.79421 0.0
H1807 H 0.35358 0.98941 0.80469 0.0
C1808 C 0.96478 0.36245 0.84752 0.0
C1809 C 0.95205 0.34254 0.85368 0.0
C1810 C 0.98917 0.36213 0.8471 0.0
C1811 C 0.0011 0.34132 0.85274 0.0
C1812 C 0.98836 0.32097 0.85834 0.0
C1813 C 0.96394 0.32185 0.85886 0.0
C1814 C 0.00218 0.38424 0.84118 0.0
C1815 C 0.00052 0.29841 0.86417 0.0
C1816 C 0.06442 0.34011 0.83409 0.0
C1817 C 0.07566 0.34715 0.85463 0.0
C1818 C 0.04018 0.33704 0.83347 0.0
C1819 C 0.02692 0.34133 0.8538 0.0
C1820 C 0.03826 0.34742 0.87482 0.0
C1821 C 0.06251 0.35013 0.87502 0.0
C1822 C 0.0287 0.33017 0.81082 0.0
C1823 C 0.02469 0.35221 0.89686 0.0
H1824 H 0.95571 0.3785 0.84348 0.0
H1825 H 0.95419 0.30635 0.86347 0.0
H1826 H 0.01303 0.38968 0.85623 0.0
H1827 H 0.01412 0.38114 0.8263 0.0
H1828 H 0.99029 0.39878 0.83661 0.0
H1829 H 0.98807 0.28379 0.86668 0.0
H1830 H 0.01288 0.29368 0.85009 0.0
H1831 H 0.01083 0.30057 0.88037 0.0
H1832 H 0.07448 0.33756 0.81831 0.0
H1833 H 0.07103 0.35549 0.891 0.0
H1834 H 0.01834 0.34501 0.80407 0.0
H1835 H 0.0165 0.31544 0.81364 0.0
H1836 H 0.04159 0.32507 0.79733 0.0
H1837 H 0.01365 0.36787 0.89437 0.0
H1838 H 0.03622 0.35521 0.9121 0.0
H1839 H 0.01289 0.33743 0.90084 0.0
C1840 C 0.64478 0.0525 0.86766 0.0
C1841 C 0.64087 0.06451 0.84674 0.0
C1842 C 0.64314 0.02815 0.86864 0.0
C1843 C 0.63728 0.01555 0.84826 0.0
C1844 C 0.63461 0.02743 0.82683 0.0
C1845 C 0.63657 0.05178 0.8263 0.0
C1846 C 0.64649 0.01603 0.89174 0.0
C1847 C 0.62833 0.01458 0.80474 0.0
C1848 C 0.64448 0.94983 0.84864 0.0
C1849 C 0.62191 0.94242 0.85448 0.0
C1850 C 0.64976 0.97359 0.84636 0.0
C1851 C 0.632 0.99028 0.84982 0.0
C1852 C 0.6091 0.9829 0.85528 0.0
C1853 C 0.60436 0.95906 0.85764 0.0
C1854 C 0.67439 0.98084 0.84066 0.0
C1855 C 0.58964 0.00022 0.85888 0.0
H1856 H 0.64834 0.06217 0.88349 0.0
H1857 H 0.63357 0.0609 0.81005 0.0
H1858 H 0.6296 0.00884 0.89779 0.0
H1859 H 0.6587 0.0012 0.88984 0.0
H1860 H 0.65329 0.028 0.90536 0.0
H1861 H 0.62915 0.02601 0.78916 0.0
H1862 H 0.64016 -0.00044 0.80203 0.0
H1863 H 0.61039 0.00754 0.80627 0.0
H1864 H 0.65816 0.93707 0.84618 0.0
H1865 H 0.58687 0.95347 0.86204 0.0
H1866 H 0.68155 0.99154 0.85508 0.0
H1867 H 0.6746 0.99181 0.82476 0.0
H1868 H 0.68603 0.96566 0.83784 0.0
H1869 H 0.5938 0.01177 0.87381 0.0
H1870 H 0.57266 0.99159 0.86231 0.0
H1871 H 0.58782 0.01144 0.84326 0.0
C1872 C 0.05887 0.63818 0.16414 0.0
C1873 C 0.07099 0.64117 0.14311 0.0
C1874 C 0.03451 0.63665 0.16449 0.0
C1875 C 0.02198 0.63844 0.14335 0.0
C1876 C 0.03398 0.643 0.1223 0.0
C1877 C 0.05837 0.64421 0.12241 0.0
C1878 C 0.02231 0.63175 0.18729 0.0
C1879 C 0.02115 0.64543 0.09947 0.0
C1880 C 0.9646 0.60613 0.13822 0.0
C1881 C 0.94844 0.62411 0.14144 0.0
C1882 C 0.98859 0.61058 0.13905 0.0
C1883 C -0.00341 0.6336 0.14296 0.0
C1884 C 0.98038 0.65182 0.14632 0.0
C1885 C 0.95647 0.64684 0.14565 0.0
C1886 C 0.0054 0.59064 0.13564 0.0
C1887 C 0.98829 0.6766 0.15033 0.0
H1888 H 0.06844 0.6359 0.18025 0.0
H1889 H 0.06757 0.64676 0.10611 0.0
H1890 H 0.00771 0.6441 0.18995 0.0
H1891 H 0.01479 0.61394 0.18687 0.0
H1892 H 0.0343 0.63301 0.20243 0.0
H1893 H 0.03275 0.65137 0.08516 0.0
H1894 H 0.01351 0.62838 0.09449 0.0
H1895 H 0.00658 0.65797 0.10126 0.0
H1896 H 0.95852 0.58853 0.13507 0.0
H1897 H 0.94406 0.66084 0.14809 0.0
H1898 H 0.01718 0.58929 0.15089 0.0
H1899 H 0.01642 0.59392 0.12011 0.0
H1900 H -0.00365 0.57369 0.1333 0.0
H1901 H -0.00028 0.6775 0.16588 0.0
H1902 H 0.97344 0.68873 0.15288 0.0
H1903 H -0.00129 0.68268 0.13523 0.0
C1904 C 0.34977 0.05748 0.1259 0.0
C1905 C 0.34696 0.0703 0.14652 0.0
C1906 C 0.34776 0.03316 0.12585 0.0
C1907 C 0.34246 0.0214 0.14686 0.0
C1908 C 0.33848 0.03429 0.1675 0.0
C1909 C 0.34094 0.05862 0.16713 0.0
C1910 C 0.35231 0.01999 0.10351 0.0
C1911 C 0.33238 0.02233 0.19012 0.0
C1912 C 0.32345 0.95851 0.13973 0.0
C1913 C 0.34436 0.94662 0.14388 0.0
C1914 C 0.32229 0.98285 0.14159 0.0
C1915 C 0.34261 0.99555 0.14736 0.0
C1916 C 0.36362 0.98359 0.15214 0.0
C1917 C 0.36419 0.95923 0.1505 0.0
C1918 C 0.2995 0.99501 0.13678 0.0
C1919 C 0.38572 0.99656 0.15812 0.0
H1920 H 0.35446 0.06634 0.1099 0.0
H1921 H 0.33855 0.06843 0.18309 0.0
H1922 H 0.36793 0.00883 0.10563 0.0
H1923 H 0.33744 0.00835 0.09943 0.0
H1924 H 0.35522 0.03181 0.08846 0.0
H1925 H 0.3276 0.03494 0.204 0.0
H1926 H 0.31766 0.01008 0.18748 0.0
H1927 H 0.34746 0.01194 0.19623 0.0
H1928 H 0.308 0.94881 0.13483 0.0
H1929 H 0.3804 0.95014 0.15373 0.0
H1930 H 0.30103 0.00554 0.12065 0.0
H1931 H 0.29523 0.00717 0.15119 0.0
H1932 H 0.28486 0.98253 0.13461 0.0
H1933 H 0.39096 0.00772 0.14323 0.0
H1934 H 0.40034 0.98461 0.16228 0.0
H1935 H 0.38276 0.00819 0.17326 0.0
C1936 C 0.67176 0.03413 0.13581 0.0
C1937 C 0.64994 0.04485 0.13819 0.0
C1938 C 0.67407 0.00985 0.13759 0.0
C1939 C 0.65405 0.99603 0.14153 0.0
C1940 C 0.63205 0.00679 0.14428 0.0
C1941 C 0.63029 0.03109 0.14273 0.0
C1942 C 0.69785 -0.00102 0.13492 0.0
C1943 C 0.61025 0.9926 0.14832 0.0
C1944 C 0.65081 0.93324 0.12166 0.0
C1945 C 0.65168 0.92127 0.14296 0.0
C1946 C 0.65265 0.95757 0.12084 0.0
C1947 C 0.65572 0.97022 0.14179 0.0
C1948 C 0.65821 0.95816 0.16314 0.0
C1949 C 0.65605 0.93381 0.1635 0.0
C1950 C 0.64986 0.96981 0.09772 0.0
C1951 C 0.66193 0.97105 0.18578 0.0
H1952 H 0.68705 0.0447 0.1325 0.0
H1953 H 0.61338 0.03926 0.14458 0.0
H1954 H 0.70168 0.9876 0.15005 0.0
H1955 H 0.6982 0.98782 0.11914 0.0
H1956 H 0.71186 0.01226 0.1334 0.0
H1957 H 0.59456 0.00369 0.15053 0.0
H1958 H 0.60732 0.9807 0.13337 0.0
H1959 H 0.61229 0.98164 0.16409 0.0
H1960 H 0.64753 0.92372 0.10568 0.0
H1961 H 0.65699 0.92469 0.18 0.0
H1962 H 0.66422 0.98244 0.09497 0.0
H1963 H 0.63332 0.97979 0.09769 0.0
H1964 H 0.64957 0.95742 0.08285 0.0
H1965 H 0.67598 0.98419 0.18387 0.0
H1966 H 0.66648 0.95911 0.20029 0.0
H1967 H 0.64579 0.98053 0.19053 0.0
C1968 C 0.11746 0.25945 0.31385 0.0
C1969 C 0.13704 0.25865 0.32835 0.0
C1970 C 0.11725 0.27348 0.2939 0.0
C1971 C 0.137 0.28726 0.28861 0.0
C1972 C 0.1561 0.28788 0.3042 0.0
C1973 C 0.15588 0.27352 0.32397 0.0
C1974 C 0.09648 0.27246 0.2778 0.0
C1975 C 0.17732 0.30261 0.29928 0.0
C1976 C 0.14821 0.29801 0.2245 0.0
C1977 C 0.13914 0.3204 0.22166 0.0
C1978 C 0.14788 0.28715 0.24634 0.0
C1979 C 0.13848 0.29918 0.26575 0.0
C1980 C 0.1298 0.32208 0.26301 0.0
C1981 C 0.1302 0.33244 0.24088 0.0
C1982 C 0.15721 0.26266 0.24857 0.0
C1983 C 0.11992 0.3355 0.28335 0.0
H1984 H 0.10257 0.2485 0.31768 0.0
H1985 H 0.17097 0.273 0.33531 0.0
H1986 H 0.09034 0.29028 0.27361 0.0
H1987 H 0.10162 0.26407 0.26115 0.0
H1988 H 0.08178 0.26244 0.28542 0.0
H1989 H 0.18929 0.30343 0.31446 0.0
H1990 H 0.18696 0.29519 0.28426 0.0
H1991 H 0.17214 0.32059 0.29448 0.0
H1992 H 0.15525 0.28891 0.20951 0.0
H1993 H 0.12357 0.34996 0.23857 0.0
H1994 H 0.14315 0.2508 0.25452 0.0
H1995 H 0.17121 0.26212 0.26187 0.0
H1996 H 0.16429 0.25594 0.23186 0.0
H1997 H 0.10439 0.32635 0.29031 0.0
H1998 H 0.11482 0.35351 0.27846 0.0
H1999 H 0.13289 0.33641 0.29764 0.0
C2000 C 0.66174 0.13568 0.23341 0.0
C2001 C 0.67353 0.14386 0.21371 0.0
C2002 C 0.67263 0.13552 0.25527 0.0
C2003 C 0.69583 0.14362 0.25722 0.0
C2004 C 0.70755 0.15244 0.23736 0.0
C2005 C 0.69614 0.15258 0.2158 0.0
C2006 C 0.65951 0.12633 0.27612 0.0
C2007 C 0.73233 0.16115 0.23877 0.0
C2008 C 0.72348 0.16036 0.31476 0.0
C2009 C 0.73758 0.14093 0.31902 0.0
C2010 C 0.70883 0.16108 0.29522 0.0
C2011 C 0.7084 0.14191 0.27971 0.0
C2012 C 0.7215 0.12168 0.2848 0.0
C2013 C 0.73578 0.12136 0.30456 0.0
C2014 C 0.6948 0.1828 0.29054 0.0
C2015 C 0.72139 0.10083 0.26873 0.0
H2016 H 0.64406 0.12927 0.23164 0.0
H2017 H 0.70505 0.15901 0.20042 0.0
H2018 H 0.66811 0.11034 0.28272 0.0
H2019 H 0.65981 0.13932 0.29044 0.0
H2020 H 0.6411 0.12211 0.27192 0.0
H2021 H 0.73869 0.16803 0.22183 0.0
H2022 H 0.73373 0.17515 0.25203 0.0
H2023 H 0.74397 0.14677 0.24433 0.0
H2024 H 0.72472 0.17545 0.32606 0.0
H2025 H 0.74605 0.10601 0.30834 0.0
H2026 H 0.6765 0.17823 0.28632 0.0
H2027 H 0.70212 0.19203 0.27521 0.0
H2028 H 0.6949 0.19494 0.30562 0.0
H2029 H 0.70327 0.09508 0.26527 0.0
H2030 H 0.73131 0.08591 0.27601 0.0
H2031 H 0.72923 0.10572 0.25175 0.0
C2032 C 0.87083 0.74197 0.30962 0.0
C2033 C 0.85206 0.74165 0.32521 0.0
C2034 C 0.8706 0.72824 0.28945 0.0
C2035 C 0.85143 0.71334 0.28516 0.0
C2036 C 0.83327 0.71161 0.30176 0.0
C2037 C 0.83377 0.72588 0.32161 0.0
C2038 C 0.89032 0.73055 0.27217 0.0
C2039 C 0.8128 0.69552 0.29801 0.0
C2040 C 0.83766 0.70028 0.22192 0.0
C2041 C 0.84838 0.67865 0.21897 0.0
C2042 C 0.83835 0.71168 0.24351 0.0
C2043 C 0.84969 0.70088 0.26258 0.0
C2044 C 0.86001 0.67868 0.25976 0.0
C2045 C 0.85939 0.66788 0.23785 0.0
C2046 C 0.82739 0.73547 0.24578 0.0
C2047 C 0.87183 0.66645 0.2798 0.0
H2048 H 0.88547 0.75342 0.31287 0.0
H2049 H 0.81935 0.72542 0.33379 0.0
H2050 H 0.89776 0.7132 0.26811 0.0
H2051 H 0.8836 0.73792 0.25562 0.0
H2052 H 0.90449 0.74202 0.27869 0.0
H2053 H 0.80156 0.69426 0.31371 0.0
H2054 H 0.80209 0.702 0.2833 0.0
H2055 H 0.81891 0.6778 0.2933 0.0
H2056 H 0.82913 0.70845 0.20718 0.0
H2057 H 0.8674 0.65095 0.23544 0.0
H2058 H 0.84082 0.74843 0.25088 0.0
H2059 H 0.81401 0.73529 0.25972 0.0
H2060 H 0.81909 0.74133 0.22932 0.0
H2061 H 0.88703 0.6768 0.28576 0.0
H2062 H 0.87793 0.64873 0.27498 0.0
H2063 H 0.85969 0.66498 0.29477 0.0
C2064 C 0.30643 0.82607 0.22467 0.0
C2065 C 0.32367 0.84269 0.22006 0.0
C2066 C 0.2949 0.8257 0.24617 0.0
C2067 C 0.30012 0.84299 0.26299 0.0
C2068 C 0.31832 0.85908 0.25886 0.0
C2069 C 0.33027 0.85835 0.2376 0.0
C2070 C 0.2762 0.80765 0.2503 0.0
C2071 C 0.32401 0.87813 0.27609 0.0
C2072 C 0.24724 0.86004 0.298 0.0
C2073 C 0.25183 0.85001 0.3198 0.0
C2074 C 0.26352 0.85903 0.27994 0.0
C2075 C 0.28431 0.84629 0.28313 0.0
C2076 C 0.28908 0.83579 0.30489 0.0
C2077 C 0.27289 0.83806 0.3231 0.0
C2078 C 0.25796 0.87091 0.2571 0.0
C2079 C 0.31061 0.82121 0.30858 0.0
H2080 H 0.30136 0.81387 0.21116 0.0
H2081 H 0.34418 0.8707 0.23432 0.0
H2082 H 0.27762 0.80035 0.26814 0.0
H2083 H 0.25881 0.81589 0.24875 0.0
H2084 H 0.2772 0.79315 0.23751 0.0
H2085 H 0.34024 0.8876 0.27143 0.0
H2086 H 0.30946 0.89083 0.27657 0.0
H2087 H 0.32591 0.87092 0.2939 0.0
H2088 H 0.23052 0.86781 0.29442 0.0
H2089 H 0.27636 0.82978 0.33971 0.0
H2090 H 0.2543 0.85762 0.24356 0.0
H2091 H 0.27307 0.88138 0.25108 0.0
H2092 H 0.24259 0.88256 0.2585 0.0
H2093 H 0.30935 0.80515 0.29789 0.0
H2094 H 0.31288 0.8161 0.32711 0.0
H2095 H 0.32639 0.83072 0.30277 0.0
C2096 C 0.1174 0.73183 0.67691 0.0
C2097 C 0.13835 0.7328 0.66448 0.0
C2098 C 0.11578 0.7192 0.69771 0.0
C2099 C 0.13566 0.70744 0.70625 0.0
C2100 C 0.15645 0.70719 0.69296 0.0
C2101 C 0.1575 0.71983 0.67205 0.0
C2102 C 0.0932 0.71956 0.71119 0.0
C2103 C 0.17801 0.69487 0.70154 0.0
C2104 C 0.14056 0.70177 0.77186 0.0
C2105 C 0.13438 0.67847 0.77522 0.0
C2106 C 0.14118 0.71137 0.74941 0.0
C2107 C 0.13528 0.69727 0.73001 0.0
C2108 C 0.12881 0.67372 0.73341 0.0
C2109 C 0.12855 0.66455 0.75605 0.0
C2110 C 0.14824 0.73654 0.74646 0.0
C2111 C 0.12228 0.65824 0.71316 0.0
H2112 H 0.10252 0.74166 0.67077 0.0
H2113 H 0.17371 0.72072 0.6624 0.0
H2114 H 0.08815 0.70166 0.71642 0.0
H2115 H 0.09551 0.72988 0.72738 0.0
H2116 H 0.07875 0.72736 0.70098 0.0
H2117 H 0.19193 0.69435 0.68811 0.0
H2118 H 0.18487 0.70402 0.71713 0.0
H2119 H 0.17379 0.67678 0.70685 0.0
H2120 H 0.14506 0.71241 0.78681 0.0
H2121 H 0.12402 0.64642 0.7588 0.0
H2122 H 0.13393 0.74645 0.73811 0.0
H2123 H 0.16362 0.73775 0.73481 0.0
H2124 H 0.15259 0.74501 0.76332 0.0
H2125 H 0.10745 0.66594 0.70349 0.0
H2126 H 0.11737 0.6404 0.71884 0.0
H2127 H 0.13708 0.65696 0.70081 0.0
C2128 C 0.26027 0.16591 0.68229 0.0
C2129 C 0.2582 0.14418 0.67142 0.0
C2130 C 0.27287 0.16833 0.70304 0.0
C2131 C 0.28402 0.14862 0.71275 0.0
C2132 C 0.28292 0.12687 0.70111 0.0
C2133 C 0.26967 0.12483 0.68069 0.0
C2134 C 0.27316 0.19166 0.71522 0.0
C2135 C 0.29501 0.10559 0.71069 0.0
C2136 C 0.32948 0.15837 0.75972 0.0
C2137 C 0.31679 0.15296 0.7798 0.0
C2138 C 0.31907 0.15699 0.73767 0.0
C2139 C 0.29539 0.15036 0.73589 0.0
C2140 C 0.28245 0.14524 0.75629 0.0
C2141 C 0.29345 0.14635 0.77806 0.0
C2142 C 0.33347 0.16219 0.71628 0.0
C2143 C 0.25706 0.13849 0.75512 0.0
H2144 H 0.25096 0.18073 0.67521 0.0
H2145 H 0.2678 0.10803 0.67223 0.0
H2146 H 0.26383 0.19025 0.7321 0.0
H2147 H 0.29131 0.19701 0.71914 0.0
H2148 H 0.26476 0.20553 0.70469 0.0
H2149 H 0.29444 0.09069 0.69834 0.0
H2150 H 0.31347 0.10965 0.71472 0.0
H2151 H 0.28655 0.10019 0.72721 0.0
H2152 H 0.34767 0.16321 0.76131 0.0
H2153 H 0.28385 0.14206 0.79376 0.0
H2154 H 0.32544 0.17655 0.70619 0.0
H2155 H 0.3339 0.14666 0.70477 0.0
H2156 H 0.35164 0.16716 0.7207 0.0
H2157 H 0.24703 0.15216 0.74586 0.0
H2158 H 0.24931 0.13594 0.77267 0.0
H2159 H 0.25505 0.1221 0.74508 0.0
C2160 C 0.86465 0.32737 0.75452 0.0
C2161 C 0.85619 0.3148 0.77362 0.0
C2162 C 0.86487 0.31745 0.7322 0.0
C2163 C 0.85657 0.29443 0.72915 0.0
C2164 C 0.84776 0.28181 0.74846 0.0
C2165 C 0.84755 0.29227 0.77051 0.0
C2166 C 0.87406 0.33149 0.71195 0.0
C2167 C 0.83889 0.25716 0.74589 0.0
C2168 C 0.83805 0.26957 0.67093 0.0
C2169 C 0.85701 0.25516 0.66575 0.0
C2170 C 0.83814 0.28358 0.69096 0.0
C2171 C 0.85768 0.28305 0.70599 0.0
C2172 C 0.87752 0.26981 0.69986 0.0
C2173 C 0.87701 0.25616 0.67965 0.0
C2174 C 0.81682 0.29779 0.69676 0.0
C2175 C 0.89874 0.2689 0.71538 0.0
H2176 H 0.87097 0.34499 0.75709 0.0
H2177 H 0.84089 0.28276 0.78542 0.0
H2178 H 0.88949 0.32272 0.70434 0.0
H2179 H 0.86069 0.33256 0.69805 0.0
H2180 H 0.87909 0.34944 0.71716 0.0
H2181 H 0.83245 0.24988 0.76263 0.0
H2182 H 0.82451 0.2566 0.733 0.0
H2183 H 0.85301 0.24578 0.73924 0.0
H2184 H 0.82263 0.26892 0.66005 0.0
H2185 H 0.89198 0.24561 0.67517 0.0
H2186 H 0.82181 0.31576 0.70187 0.0
H2187 H 0.80767 0.28984 0.71181 0.0
H2188 H 0.80447 0.29873 0.68189 0.0
H2189 H 0.90462 0.28676 0.71987 0.0
H2190 H 0.91343 0.25942 0.70711 0.0
H2191 H 0.89422 0.25999 0.73193 0.0
C2192 C 0.68214 0.82046 0.77135 0.0
C2193 C 0.66776 0.83901 0.77796 0.0
C2194 C 0.6937 0.8206 0.74985 0.0
C2195 C 0.69159 0.84024 0.73511 0.0
C2196 C 0.67638 0.85861 0.74127 0.0
C2197 C 0.66421 0.85748 0.76241 0.0
C2198 C 0.7091 0.80026 0.74351 0.0
C2199 C 0.67414 0.88014 0.72635 0.0
C2200 C 0.74604 0.85271 0.70036 0.0
C2201 C 0.73933 0.84667 0.67765 0.0
C2202 C 0.73026 0.85174 0.71888 0.0
C2203 C 0.7076 0.84294 0.715 0.0
C2204 C 0.70081 0.83602 0.69232 0.0
C2205 C 0.7167 0.83826 0.67382 0.0
C2206 C 0.73812 0.85969 0.74274 0.0
C2207 C 0.67714 0.82551 0.68778 0.0
H2208 H 0.68506 0.80617 0.78331 0.0
H2209 H 0.65243 0.87145 0.76705 0.0
H2210 H 0.70658 0.79529 0.72499 0.0
H2211 H 0.72763 0.80524 0.74573 0.0
H2212 H 0.70559 0.7848 0.75463 0.0
H2213 H 0.66014 0.89193 0.73259 0.0
H2214 H 0.69086 0.88985 0.72656 0.0
H2215 H 0.67051 0.87535 0.70799 0.0
H2216 H 0.76387 0.85747 0.70405 0.0
H2217 H 0.71159 0.83293 0.65644 0.0
H2218 H 0.73943 0.8445 0.75458 0.0
H2219 H 0.7252 0.87188 0.75036 0.0
H2220 H 0.75533 0.86853 0.74222 0.0
H2221 H 0.67544 0.80894 0.69759 0.0
H2222 H 0.67421 0.8219 0.66899 0.0
H2223 H 0.66322 0.8373 0.6941 0.0
C2224 C 0.23628 0.13886 0.3336 0.0
C2225 C 0.21695 0.14781 0.3218 0.0
C2226 C 0.25821 0.1382 0.32288 0.0
C2227 C 0.26063 0.14652 0.29979 0.0
C2228 C 0.24116 0.15613 0.28807 0.0
C2229 C 0.21952 0.15681 0.29934 0.0
C2230 C 0.27863 0.12817 0.33602 0.0
C2231 C 0.24304 0.16504 0.26339 0.0
C2232 C 0.31926 0.16084 0.27293 0.0
C2233 C 0.3229 0.14124 0.25885 0.0
C2234 C 0.29947 0.16245 0.2872 0.0
C2235 C 0.2831 0.14399 0.28729 0.0
C2236 C 0.28748 0.1236 0.27415 0.0
C2237 C 0.30747 0.1224 0.26023 0.0
C2238 C 0.29555 0.18431 0.30128 0.0
C2239 C 0.27049 0.10349 0.27389 0.0
H2240 H 0.23414 0.13221 0.35115 0.0
H2241 H 0.20444 0.16382 0.29042 0.0
H2242 H 0.28461 0.11197 0.32736 0.0
H2243 H 0.29344 0.14059 0.33583 0.0
H2244 H 0.27419 0.12406 0.35441 0.0
H2245 H 0.22645 0.1727 0.25708 0.0
H2246 H 0.25689 0.17847 0.2622 0.0
H2247 H 0.24802 0.15056 0.25159 0.0
H2248 H 0.33128 0.17538 0.27196 0.0
H2249 H 0.31071 0.10692 0.24994 0.0
H2250 H 0.29104 0.17987 0.31954 0.0
H2251 H 0.28064 0.19413 0.29391 0.0
H2252 H 0.31108 0.19587 0.30132 0.0
H2253 H 0.26669 0.09768 0.29192 0.0
H2254 H 0.27713 0.08838 0.26377 0.0
H2255 H 0.25379 0.10922 0.26606 0.0
C2256 C 0.86194 0.32247 0.27004 0.0
C2257 C 0.84635 0.32262 0.25134 0.0
C2258 C 0.86325 0.3031 0.28489 0.0
C2259 C 0.84843 0.28376 0.28089 0.0
C2260 C 0.83182 0.2845 0.2627 0.0
C2261 C 0.83102 0.30397 0.2481 0.0
C2262 C 0.88115 0.30286 0.30413 0.0
C2263 C 0.81551 0.26436 0.25806 0.0
C2264 C 0.86603 0.22253 0.29757 0.0
C2265 C 0.852 0.21863 0.31708 0.0
C2266 C 0.86581 0.24411 0.2862 0.0
C2267 C 0.85113 0.26206 0.2946 0.0
C2268 C 0.83762 0.25845 0.3149 0.0
C2269 C 0.83834 0.23673 0.32601 0.0
C2270 C 0.88058 0.24739 0.26467 0.0
C2271 C 0.82177 0.27718 0.32433 0.0
H2272 H 0.87374 0.33705 0.27241 0.0
H2273 H 0.81868 0.30447 0.23381 0.0
H2274 H 0.87295 0.29791 0.32091 0.0
H2275 H 0.89464 0.2896 0.3002 0.0
H2276 H 0.88983 0.32004 0.30625 0.0
H2277 H 0.80262 0.26838 0.2442 0.0
H2278 H 0.82568 0.24886 0.25262 0.0
H2279 H 0.80597 0.25963 0.27419 0.0
H2280 H 0.87668 0.20846 0.29084 0.0
H2281 H 0.82788 0.23373 0.34146 0.0
H2282 H 0.89121 0.26346 0.26623 0.0
H2283 H 0.86916 0.2495 0.24923 0.0
H2284 H 0.89239 0.2324 0.26154 0.0
H2285 H 0.83145 0.29377 0.32647 0.0
H2286 H 0.81397 0.27228 0.34136 0.0
H2287 H 0.80747 0.28045 0.31176 0.0
C2288 C 0.6869 0.83483 0.25564 0.0
C2289 C 0.66915 0.85129 0.25807 0.0
C2290 C 0.706 0.8348 0.27073 0.0
C2291 C 0.70726 0.85169 0.28866 0.0
C2292 C 0.6887 0.8676 0.29194 0.0
C2293 C 0.66969 0.86713 0.27657 0.0
C2294 C 0.72531 0.81738 0.26682 0.0
C2295 C 0.68947 0.8858 0.31091 0.0
C2296 C 0.75324 0.84083 0.33471 0.0
C2297 C 0.7719 0.85379 0.32586 0.0
C2298 C 0.73169 0.84057 0.32322 0.0
C2299 C 0.72889 0.85374 0.30258 0.0
C2300 C 0.7475 0.86758 0.29414 0.0
C2301 C 0.76883 0.86743 0.30593 0.0
C2302 C 0.71222 0.82567 0.33273 0.0
C2303 C 0.74513 0.88191 0.27221 0.0
H2304 H 0.68607 0.82227 0.24155 0.0
H2305 H 0.65579 0.87978 0.27835 0.0
H2306 H 0.74137 0.82664 0.26134 0.0
H2307 H 0.72934 0.80805 0.28324 0.0
H2308 H 0.7208 0.80435 0.25323 0.0
H2309 H 0.67266 0.8952 0.31267 0.0
H2310 H 0.69387 0.87769 0.32789 0.0
H2311 H 0.70332 0.89869 0.30693 0.0
H2312 H 0.75561 0.8307 0.35046 0.0
H2313 H 0.78334 0.87755 0.29928 0.0
H2314 H 0.70837 0.81133 0.32034 0.0
H2315 H 0.69609 0.83611 0.33459 0.0
H2316 H 0.71664 0.81794 0.34991 0.0
H2317 H 0.74249 0.8702 0.25704 0.0
H2318 H 0.76073 0.89287 0.26888 0.0
H2319 H 0.72965 0.89339 0.27339 0.0
C2320 C 0.15768 0.68195 0.26555 0.0
C2321 C 0.13866 0.67439 0.25231 0.0
C2322 C 0.15619 0.70227 0.27905 0.0
C2323 C 0.1351 0.71503 0.2794 0.0
C2324 C 0.1154 0.70654 0.26727 0.0
C2325 C 0.11744 0.68626 0.25384 0.0
C2326 C 0.17755 0.7108 0.29181 0.0
C2327 C 0.09253 0.71949 0.26749 0.0
C2328 C 0.12766 0.76235 0.32496 0.0
C2329 C 0.13357 0.78223 0.31216 0.0
C2330 C 0.12784 0.74027 0.3145 0.0
C2331 C 0.13422 0.73822 0.29077 0.0
C2332 C 0.13996 0.75839 0.27775 0.0
C2333 C 0.1395 0.78022 0.28864 0.0
C2334 C 0.12152 0.71916 0.32885 0.0
C2335 C 0.14687 0.75687 0.2524 0.0
H2336 H 0.17408 0.67269 0.26435 0.0
H2337 H 0.10258 0.68003 0.244 0.0
H2338 H 0.1839 0.72712 0.28361 0.0
H2339 H 0.17325 0.71489 0.3102 0.0
H2340 H 0.19188 0.69781 0.29151 0.0
H2341 H 0.07834 0.70939 0.25905 0.0
H2342 H 0.08729 0.72362 0.28563 0.0
H2343 H 0.09454 0.73627 0.25812 0.0
H2344 H 0.12328 0.76408 0.34326 0.0
H2345 H 0.14402 0.79575 0.27888 0.0
H2346 H 0.1366 0.70715 0.3298 0.0
H2347 H 0.10705 0.70949 0.32044 0.0
H2348 H 0.11622 0.72387 0.34686 0.0
H2349 H 0.16254 0.74574 0.25052 0.0
H2350 H 0.15069 0.77424 0.24477 0.0
H2351 H 0.13271 0.7486 0.24217 0.0
C2352 C 0.32479 0.84277 0.71952 0.0
C2353 C 0.32057 0.84986 0.74255 0.0
C2354 C 0.30628 0.83877 0.70399 0.0
C2355 C 0.28318 0.84316 0.71137 0.0
C2356 C 0.27885 0.85013 0.73458 0.0
C2357 C 0.29745 0.85215 0.75009 0.0
C2358 C 0.31136 0.82934 0.67997 0.0
C2359 C 0.25455 0.85551 0.74319 0.0
C2360 C 0.23599 0.85849 0.6682 0.0
C2361 C 0.22048 0.83986 0.67121 0.0
C2362 C 0.25689 0.85958 0.68071 0.0
C2363 C 0.26329 0.84065 0.69511 0.0
C2364 C 0.24881 0.82072 0.69636 0.0
C2365 C 0.22716 0.82094 0.68509 0.0
C2366 C 0.27116 0.88169 0.67983 0.0
C2367 C 0.25557 0.79954 0.71038 0.0
H2368 H 0.34254 0.84 0.71373 0.0
H2369 H 0.29354 0.85515 0.76823 0.0
H2370 H 0.30119 0.81314 0.67702 0.0
H2371 H 0.30589 0.84202 0.6665 0.0
H2372 H 0.33014 0.82544 0.67746 0.0
H2373 H 0.25473 0.86449 0.76035 0.0
H2374 H 0.24518 0.86672 0.73054 0.0
H2375 H 0.24451 0.83913 0.7451 0.0
H2376 H 0.23145 0.87269 0.65666 0.0
H2377 H 0.21531 0.80646 0.6876 0.0
H2378 H 0.28942 0.87781 0.67499 0.0
H2379 H 0.27148 0.88983 0.69737 0.0
H2380 H 0.26406 0.89453 0.66723 0.0
H2381 H 0.27465 0.79655 0.70977 0.0
H2382 H 0.24657 0.78366 0.70393 0.0
H2383 H 0.25051 0.80211 0.72884 0.0
C2384 C 0.13254 0.31367 0.72806 0.0
C2385 C 0.14822 0.3152 0.74663 0.0
C2386 C 0.13155 0.2935 0.71423 0.0
C2387 C 0.1469 0.27479 0.71899 0.0
C2388 C 0.16339 0.27677 0.73721 0.0
C2389 C 0.16377 0.29697 0.75088 0.0
C2390 C 0.11364 0.2919 0.69506 0.0
C2391 C 0.18033 0.25739 0.74256 0.0
C2392 C 0.13155 0.2128 0.70206 0.0
C2393 C 0.14523 0.20967 0.68215 0.0
C2394 C 0.13133 0.23423 0.71381 0.0
C2395 C 0.14535 0.25277 0.70551 0.0
C2396 C 0.15885 0.24979 0.6851 0.0
C2397 C 0.15846 0.22828 0.67353 0.0
C2398 C 0.11653 0.23685 0.7354 0.0
C2399 C 0.17416 0.26908 0.67585 0.0
H2400 H 0.12055 0.3279 0.72491 0.0
H2401 H 0.17618 0.29849 0.76503 0.0
H2402 H 0.12218 0.28765 0.67826 0.0
H2403 H 0.10122 0.27759 0.69894 0.0
H2404 H 0.10367 0.30834 0.69299 0.0
H2405 H 0.19278 0.26218 0.75658 0.0
H2406 H 0.17066 0.24158 0.74806 0.0
H2407 H 0.19035 0.25275 0.72669 0.0
H2408 H 0.12131 0.19835 0.70863 0.0
H2409 H 0.1687 0.2259 0.65784 0.0
H2410 H 0.10512 0.25235 0.73379 0.0
H2411 H 0.12787 0.23965 0.75079 0.0
H2412 H 0.10546 0.22129 0.73863 0.0
H2413 H 0.16373 0.28506 0.67293 0.0
H2414 H 0.18286 0.26423 0.65926 0.0
H2415 H 0.18774 0.27344 0.68889 0.0
C2416 C 0.67639 0.15717 0.72221 0.0
C2417 C 0.67194 0.13719 0.73549 0.0
C2418 C 0.69636 0.15867 0.70823 0.0
C2419 C 0.7121 0.13972 0.70763 0.0
C2420 C 0.70686 0.11897 0.71985 0.0
C2421 C 0.68668 0.11789 0.73349 0.0
C2422 C 0.70123 0.18094 0.69511 0.0
C2423 C 0.72316 0.09834 0.71951 0.0
C2424 C 0.75953 0.13547 0.66196 0.0
C2425 C 0.77883 0.14353 0.67445 0.0
C2426 C 0.73744 0.13476 0.6723 0.0
C2427 C 0.73485 0.1421 0.69569 0.0
C2428 C 0.75433 0.15074 0.70817 0.0
C2429 C 0.77614 0.15151 0.69727 0.0
C2430 C 0.717 0.1258 0.65838 0.0
C2431 C 0.75223 0.1586 0.7332 0.0
H2432 H 0.66489 0.17206 0.72366 0.0
H2433 H 0.68279 0.10216 0.74315 0.0
H2434 H 0.71624 0.19005 0.70318 0.0
H2435 H 0.70599 0.17708 0.67678 0.0
H2436 H 0.68604 0.19291 0.69522 0.0
H2437 H 0.71579 0.08301 0.72875 0.0
H2438 H 0.72719 0.09324 0.70131 0.0
H2439 H 0.73985 0.10318 0.72797 0.0
H2440 H 0.76181 0.1296 0.64414 0.0
H2441 H 0.79123 0.15786 0.70671 0.0
H2442 H 0.70259 0.13864 0.65873 0.0
H2443 H 0.71033 0.10949 0.6663 0.0
H2444 H 0.72169 0.12222 0.63994 0.0
H2445 H 0.73883 0.17241 0.73473 0.0
H2446 H 0.76894 0.16541 0.7402 0.0
H2447 H 0.7465 0.14378 0.74422 0.0
C2448 C 0.87359 0.68327 0.74246 0.0
C2449 C 0.85332 0.66971 0.74299 0.0
C2450 C 0.87454 0.70386 0.72943 0.0
C2451 C 0.85481 0.71078 0.71642 0.0
C2452 C 0.8349 0.69623 0.71554 0.0
C2453 C 0.83441 0.67576 0.72887 0.0
C2454 C 0.89614 0.71883 0.73066 0.0
C2455 C 0.81364 0.70294 0.70163 0.0
C2456 C 0.8459 0.7756 0.70788 0.0
C2457 C 0.85387 0.77862 0.68509 0.0
C2458 C 0.84608 0.75352 0.71827 0.0
C2459 C 0.85432 0.73413 0.7054 0.0
C2460 C 0.86234 0.73717 0.68229 0.0
C2461 C 0.86208 0.75949 0.6724 0.0
C2462 C 0.83752 0.75095 0.74301 0.0
C2463 C 0.87109 0.71688 0.66803 0.0
H2464 H 0.88847 0.67817 0.75288 0.0
H2465 H 0.81877 0.66517 0.72922 0.0
H2466 H 0.90209 0.72357 0.7129 0.0
H2467 H 0.89208 0.73529 0.73995 0.0
H2468 H 0.91064 0.71 0.73991 0.0
H2469 H 0.80069 0.68858 0.70071 0.0
H2470 H 0.80522 0.7183 0.70977 0.0
H2471 H 0.81864 0.70796 0.68365 0.0
H2472 H 0.83958 0.79056 0.71754 0.0
H2473 H 0.86804 0.76201 0.65466 0.0
H2474 H 0.85158 0.74376 0.75412 0.0
H2475 H 0.82276 0.73847 0.74362 0.0
H2476 H 0.8317 0.76779 0.75057 0.0
H2477 H 0.88612 0.7086 0.67689 0.0
H2478 H 0.87657 0.72221 0.65025 0.0
H2479 H 0.85727 0.70345 0.66649 0.0
C2480 C 0.32539 0.23355 0.13546 0.0
C2481 C 0.31503 0.21473 0.14696 0.0
C2482 C 0.3144 0.25532 0.1348 0.0
C2483 C 0.29243 0.25804 0.14563 0.0
C2484 C 0.28208 0.23904 0.15753 0.0
C2485 C 0.29366 0.21759 0.15821 0.0
C2486 C 0.32612 0.2753 0.12234 0.0
C2487 C 0.25854 0.24123 0.16906 0.0
C2488 C 0.26723 0.31713 0.16076 0.0
C2489 C 0.2511 0.32012 0.14271 0.0
C2490 C 0.28163 0.29741 0.16145 0.0
C2491 C 0.27967 0.28038 0.14371 0.0
C2492 C 0.26435 0.28402 0.12477 0.0
C2493 C 0.25047 0.30405 0.12436 0.0
C2494 C 0.29816 0.29431 0.18165 0.0
C2495 C 0.2618 0.26627 0.1055 0.0
H2496 H 0.34214 0.23121 0.12704 0.0
H2497 H 0.28583 0.20289 0.16712 0.0
H2498 H 0.31543 0.28078 0.10723 0.0
H2499 H 0.3276 0.29054 0.13415 0.0
H2500 H 0.34379 0.27063 0.11599 0.0
H2501 H 0.25312 0.22489 0.17789 0.0
H2502 H 0.25884 0.25549 0.1821 0.0
H2503 H 0.24521 0.24579 0.15583 0.0
H2504 H 0.26791 0.32969 0.17486 0.0
H2505 H 0.23872 0.30684 0.10988 0.0
H2506 H 0.3158 0.28975 0.17526 0.0
H2507 H 0.2921 0.27972 0.19278 0.0
H2508 H 0.29942 0.31025 0.19258 0.0
H2509 H 0.27902 0.26232 0.0977 0.0
H2510 H 0.24991 0.27228 0.09148 0.0
H2511 H 0.25485 0.24975 0.11278 0.0
C2512 C 0.23978 0.70073 0.86134 0.0
C2513 C 0.24762 0.68007 0.85084 0.0
C2514 C 0.254 0.72047 0.86269 0.0
C2515 C 0.27606 0.72023 0.8518 0.0
C2516 C 0.28401 0.69971 0.84067 0.0
C2517 C 0.26982 0.67975 0.84062 0.0
C2518 C 0.24503 0.74184 0.87518 0.0
C2519 C 0.30702 0.69916 0.82796 0.0
C2520 C 0.29621 0.78061 0.8345 0.0
C2521 C 0.313 0.78538 0.85153 0.0
C2522 C 0.28502 0.75892 0.8336 0.0
C2523 C 0.28994 0.74204 0.85088 0.0
C2524 C 0.30681 0.74679 0.86821 0.0
C2525 C 0.31856 0.76823 0.86798 0.0
C2526 C 0.2677 0.75425 0.81436 0.0
C2527 C 0.3119 0.72957 0.88741 0.0
H2528 H 0.22215 0.70204 0.86775 0.0
H2529 H 0.27581 0.66407 0.83197 0.0
H2530 H 0.25849 0.74884 0.88716 0.0
H2531 H 0.24097 0.75567 0.86233 0.0
H2532 H 0.22902 0.73813 0.8854 0.0
H2533 H 0.31112 0.68157 0.821 0.0
H2534 H 0.30656 0.71167 0.81322 0.0
H2535 H 0.32133 0.70471 0.83968 0.0
H2536 H 0.29182 0.79389 0.82182 0.0
H2537 H 0.33198 0.77163 0.88079 0.0
H2538 H 0.24985 0.75346 0.82169 0.0
H2539 H 0.27129 0.73716 0.80606 0.0
H2540 H 0.2681 0.76796 0.80071 0.0
H2541 H 0.29585 0.72641 0.89772 0.0
H2542 H 0.32579 0.7358 0.89937 0.0
H2543 H 0.3173 0.71261 0.87992 0.0
C2544 C 0.31664 0.26528 0.88009 0.0
C2545 C 0.33032 0.26458 0.85992 0.0
C2546 C 0.29667 0.2792 0.88115 0.0
C2547 C 0.29063 0.29305 0.8617 0.0
C2548 C 0.30566 0.29411 0.84218 0.0
C2549 C 0.32541 0.27978 0.8415 0.0
C2550 C 0.28115 0.27766 0.90233 0.0
C2551 C 0.3 0.30904 0.8213 0.0
C2552 C 0.22626 0.30109 0.85041 0.0
C2553 C 0.22247 0.32336 0.85942 0.0
C2554 C 0.24845 0.29107 0.85106 0.0
C2555 C 0.26726 0.3039 0.8606 0.0
C2556 C 0.26354 0.32664 0.86937 0.0
C2557 C 0.24104 0.33611 0.86875 0.0
C2558 C 0.25171 0.26668 0.8417 0.0
C2559 C 0.28327 0.34092 0.87929 0.0
H2560 H 0.32097 0.25415 0.89469 0.0
H2561 H 0.33616 0.27943 0.82597 0.0
H2562 H 0.27614 0.2953 0.9084 0.0
H2563 H 0.26489 0.26829 0.89768 0.0
H2564 H 0.28964 0.26826 0.91695 0.0
H2565 H 0.31508 0.31073 0.80928 0.0
H2566 H 0.28531 0.30112 0.81154 0.0
H2567 H 0.29445 0.3267 0.82685 0.0
H2568 H 0.21176 0.29146 0.84305 0.0
H2569 H 0.23796 0.35355 0.87531 0.0
H2570 H 0.2586 0.25518 0.85562 0.0
H2571 H 0.26466 0.2668 0.82736 0.0
H2572 H 0.23521 0.25906 0.83503 0.0
H2573 H 0.2911 0.33176 0.89438 0.0
H2574 H 0.27748 0.35846 0.88505 0.0
H2575 H 0.29717 0.34302 0.86603 0.0
C2576 C 0.70322 0.2111 0.8394 0.0
C2577 C 0.68102 0.2087 0.84906 0.0
C2578 C 0.71474 0.23262 0.83992 0.0
C2579 C 0.70355 0.25213 0.85008 0.0
C2580 C 0.68084 0.24982 0.8594 0.0
C2581 C 0.66984 0.22802 0.85881 0.0
C2582 C 0.739 0.23441 0.82992 0.0
C2583 C 0.66829 0.2703 0.87008 0.0
C2584 C 0.74402 0.29966 0.87123 0.0
C2585 C 0.7442 0.31479 0.8521 0.0
C2586 C 0.73024 0.27952 0.87112 0.0
C2587 C 0.71603 0.2747 0.85157 0.0
C2588 C 0.71497 0.29074 0.83288 0.0
C2589 C 0.72911 0.31068 0.83338 0.0
C2590 C 0.73172 0.26289 0.89145 0.0
C2591 C 0.69976 0.28631 0.81189 0.0
H2592 H 0.71164 0.19604 0.83173 0.0
H2593 H 0.65245 0.22604 0.86591 0.0
H2594 H 0.73952 0.24793 0.81613 0.0
H2595 H 0.75139 0.23983 0.84374 0.0
H2596 H 0.74508 0.21766 0.82237 0.0
H2597 H 0.65037 0.26574 0.87579 0.0
H2598 H 0.67815 0.27683 0.88537 0.0
H2599 H 0.66726 0.2848 0.85735 0.0
H2600 H 0.75507 0.30329 0.88608 0.0
H2601 H 0.72913 0.32249 0.81865 0.0
H2602 H 0.7394 0.24616 0.88556 0.0
H2603 H 0.71407 0.25902 0.89827 0.0
H2604 H 0.74255 0.2699 0.90589 0.0
H2605 H 0.70655 0.27113 0.80205 0.0
H2606 H 0.69913 0.30155 0.8 0.0
H2607 H 0.68176 0.28197 0.81742 0.0
C2608 C 0.68235 0.73375 0.83546 0.0
C2609 C 0.66467 0.73032 0.85187 0.0
C2610 C 0.7021 0.71953 0.83525 0.0
C2611 C 0.7041 0.70147 0.85189 0.0
C2612 C 0.68557 0.69701 0.86757 0.0
C2613 C 0.6659 0.71152 0.8673 0.0
C2614 C 0.72134 0.72468 0.81805 0.0
C2615 C 0.6871 0.67782 0.88547 0.0
C2616 C 0.75283 0.65831 0.84122 0.0
C2617 C 0.77074 0.66804 0.85461 0.0
C2618 C 0.73068 0.66853 0.84073 0.0
C2619 C 0.72648 0.68882 0.85408 0.0
C2620 C 0.74434 0.69816 0.86832 0.0
C2621 C 0.76632 0.68761 0.86841 0.0
C2622 C 0.71203 0.65807 0.82541 0.0
C2623 C 0.74049 0.71976 0.88285 0.0
H2624 H 0.681 0.74802 0.82317 0.0
H2625 H 0.6521 0.70895 0.87994 0.0
H2626 H 0.73693 0.73109 0.82752 0.0
H2627 H 0.72647 0.70858 0.80868 0.0
H2628 H 0.71618 0.73803 0.80504 0.0
H2629 H 0.67021 0.67485 0.89443 0.0
H2630 H 0.69277 0.6613 0.87721 0.0
H2631 H 0.70034 0.68249 0.89875 0.0
H2632 H 0.75626 0.64283 0.83094 0.0
H2633 H 0.78024 0.69495 0.87885 0.0
H2634 H 0.7077 0.67037 0.81116 0.0
H2635 H 0.69586 0.65515 0.83558 0.0
H2636 H 0.71755 0.64127 0.81755 0.0
H2637 H 0.73709 0.73486 0.87127 0.0
H2638 H 0.75573 0.72393 0.89403 0.0
H2639 H 0.72497 0.71752 0.89414 0.0
C2640 C 0.6935 0.7706 0.15868 0.0
C2641 C 0.67163 0.77374 0.14857 0.0
C2642 C 0.70427 0.74873 0.15831 0.0
C2643 C 0.69258 0.72962 0.14792 0.0
C2644 C 0.66995 0.73257 0.13863 0.0
C2645 C 0.65976 0.75475 0.13894 0.0
C2646 C 0.72851 0.7463 0.16822 0.0
C2647 C 0.6568 0.71248 0.12787 0.0
C2648 C 0.73332 0.68358 0.12466 0.0
C2649 C 0.73459 0.66827 0.14358 0.0
C2650 C 0.71884 0.70315 0.12541 0.0
C2651 C 0.7049 0.70709 0.14535 0.0
C2652 C 0.7046 0.69057 0.16364 0.0
C2653 C 0.71956 0.67129 0.16256 0.0
C2654 C 0.71961 0.72034 0.1055 0.0
C2655 C 0.68955 0.69396 0.18493 0.0
H2656 H 0.70245 0.78544 0.16624 0.0
H2657 H 0.64262 0.75735 0.13146 0.0
H2658 H 0.72889 0.73225 0.18147 0.0
H2659 H 0.74081 0.74132 0.15417 0.0
H2660 H 0.7348 0.76269 0.1764 0.0
H2661 H 0.63853 0.71717 0.12361 0.0
H2662 H 0.66563 0.70688 0.11162 0.0
H2663 H 0.6567 0.69733 0.13987 0.0
H2664 H 0.74427 0.68071 0.10957 0.0
H2665 H 0.72036 0.65928 0.17711 0.0
H2666 H 0.72734 0.73697 0.11164 0.0
H2667 H 0.70176 0.72423 0.09928 0.0
H2668 H 0.73008 0.71384 0.09058 0.0
H2669 H 0.69674 0.70833 0.19568 0.0
H2670 H 0.68872 0.678 0.19584 0.0
H2671 H 0.67161 0.69896 0.17984 0.0
C2672 C 0.21977 0.70012 0.14823 0.0
C2673 C 0.21612 0.67835 0.13798 0.0
C2674 C 0.24174 0.71074 0.14743 0.0
C2675 C 0.2604 0.69914 0.13621 0.0
C2676 C 0.25683 0.67689 0.12619 0.0
C2677 C 0.23464 0.66673 0.12721 0.0
C2678 C 0.24489 0.73452 0.15827 0.0
C2679 C 0.27635 0.66396 0.11425 0.0
C2680 C 0.30813 0.73929 0.11506 0.0
C2681 C 0.32392 0.73828 0.13361 0.0
C2682 C 0.2878 0.72582 0.1152 0.0
C2683 C 0.28336 0.71084 0.13426 0.0
C2684 C 0.30007 0.70855 0.15225 0.0
C2685 C 0.32027 0.72233 0.15168 0.0
C2686 C 0.2705 0.72858 0.09558 0.0
C2687 C 0.29601 0.69257 0.17273 0.0
H2688 H 0.20534 0.70892 0.15667 0.0
H2689 H 0.23174 0.64966 0.11965 0.0
H2690 H 0.25899 0.73398 0.17146 0.0
H2691 H 0.25018 0.74724 0.14472 0.0
H2692 H 0.22873 0.74091 0.16677 0.0
H2693 H 0.27086 0.64645 0.10807 0.0
H2694 H 0.28267 0.67415 0.09909 0.0
H2695 H 0.29127 0.66188 0.12635 0.0
H2696 H 0.31134 0.75118 0.10076 0.0
H2697 H 0.33258 0.72151 0.16597 0.0
H2698 H 0.25439 0.73683 0.10232 0.0
H2699 H 0.26558 0.71131 0.08843 0.0
H2700 H 0.27744 0.7395 0.08118 0.0
H2701 H 0.28163 0.69953 0.1836 0.0
H2702 H 0.31176 0.69082 0.18382 0.0
H2703 H 0.29066 0.67501 0.16666 0.0
C2704 C 0.68643 0.25314 0.11325 0.0
C2705 C 0.67043 0.25335 0.13166 0.0
C2706 C 0.70599 0.26772 0.11349 0.0
C2707 C 0.70933 0.28319 0.1324 0.0
C2708 C 0.69234 0.28467 0.15021 0.0
C2709 C 0.67303 0.26968 0.14962 0.0
C2710 C 0.72367 0.26573 0.0941 0.0
C2711 C 0.69514 0.30121 0.17047 0.0
C2712 C 0.77182 0.29816 0.14729 0.0
C2713 C 0.77438 0.31987 0.13659 0.0
C2714 C 0.7506 0.28615 0.14625 0.0
C2715 C 0.73149 0.29633 0.13445 0.0
C2716 C 0.73388 0.31858 0.12409 0.0
C2717 C 0.7554 0.33011 0.12526 0.0
C2718 C 0.74876 0.2624 0.15742 0.0
C2719 C 0.7138 0.33008 0.11166 0.0
H2720 H 0.68395 0.24116 0.09887 0.0
H2721 H 0.66054 0.27001 0.16379 0.0
H2722 H 0.72745 0.28313 0.08662 0.0
H2723 H 0.74025 0.2588 0.10119 0.0
H2724 H 0.71769 0.25402 0.07989 0.0
H2725 H 0.67919 0.30213 0.18139 0.0
H2726 H 0.70982 0.29538 0.18159 0.0
H2727 H 0.69941 0.31897 0.16416 0.0
H2728 H 0.78659 0.29043 0.15615 0.0
H2729 H 0.75743 0.34715 0.11738 0.0
H2730 H 0.74443 0.24916 0.144 0.0
H2731 H 0.73448 0.26228 0.17044 0.0
H2732 H 0.76515 0.25714 0.16622 0.0
H2733 H 0.7084 0.31932 0.09654 0.0
H2734 H 0.71829 0.34782 0.10534 0.0
H2735 H 0.69857 0.33137 0.12349 0.0
loop_
_geom_bond_atom_site_label_1
_geom_bond_atom_site_label_2
_geom_bond_distance
_geom_bond_site_symmetry_2
_ccdc_geom_bond_type
Co0 O3 1.970 . S
Co0 N17 1.989 . S
Co0 O25 1.967 . S
Co0 O32 1.920 . S
Co1 O4 1.966 . S
Co1 N10 2.022 . S
Co1 N18 1.993 . S
Co1 O26 1.941 . S
C2 O3 1.258 . S
C2 O4 1.263 . S
O3 Co0 1.970 . S
O3 C2 1.258 . S
O4 Co1 1.966 . S
O4 C2 1.263 . S
C5 O6 1.235 . S
C5 O32 1.289 . S
O6 C5 1.235 . S
C7 C9 1.400 . S
C7 N10 1.351 . S
C7 C12 1.501 . S
C8 C9 1.387 . S
C8 N11 1.341 . S
C9 C7 1.400 . S
C9 C8 1.387 . S
N10 Co1 2.022 . S
N10 C7 1.351 . S
N10 N11 1.365 . S
N11 C8 1.341 . S
N11 N10 1.365 . S
N11 H31 0.862 . S
C12 C7 1.501 . S
C12 H13 0.961 . S
C12 H14 0.961 . S
C12 H15 0.960 . S
H13 C12 0.961 . S
H14 C12 0.961 . S
H15 C12 0.960 . S
C16 N17 1.342 . S
C16 C20 1.401 . S
C16 C21 1.499 . S
N17 Co0 1.989 . S
N17 C16 1.342 . S
N17 N18 1.388 . S
N18 Co1 1.993 . S
N18 N17 1.388 . S
N18 C19 1.346 . S
C19 N18 1.346 . S
C19 C20 1.396 . S
C19 C29 1.510 . S
C20 C16 1.401 . S
C20 C19 1.396 . S
C21 C16 1.499 . S
C21 H22 0.959 . S
C21 H23 0.960 . S
C21 H24 0.961 . S
H22 C21 0.959 . S
H23 C21 0.960 . S
H24 C21 0.961 . S
O25 Co0 1.967 . S
O25 C33 1.258 . S
O26 Co1 1.941 . S
O26 C33 1.266 . S
H27 C29 0.959 . S
H28 C29 0.961 . S
C29 C19 1.510 . S
C29 H27 0.959 . S
C29 H28 0.961 . S
C29 H30 0.960 . S
H30 C29 0.960 . S
H31 N11 0.862 . S
O32 Co0 1.920 . S
O32 C5 1.289 . S
C33 O25 1.258 . S
C33 O26 1.266 . S
Co34 O37 1.970 . S
Co34 N51 1.989 . S
Co34 O59 1.967 . S
Co34 O66 1.920 . S
Co35 O38 1.966 . S
Co35 N44 2.022 . S
Co35 N52 1.993 . S
Co35 O60 1.941 . S
C36 O37 1.258 . S
C36 O38 1.263 . S
O37 Co34 1.970 . S
O37 C36 1.258 . S
O38 Co35 1.966 . S
O38 C36 1.263 . S
C39 O40 1.235 . S
C39 O66 1.289 . S
O40 C39 1.235 . S
C41 C43 1.400 . S
C41 N44 1.351 . S
C41 C46 1.501 . S
C42 C43 1.387 . S
C42 N45 1.341 . S
C43 C41 1.400 . S
C43 C42 1.387 . S
N44 Co35 2.022 . S
N44 C41 1.351 . S
N44 N45 1.365 . S
N45 C42 1.341 . S
N45 N44 1.365 . S
N45 H65 0.862 . S
C46 C41 1.501 . S
C46 H47 0.961 . S
C46 H48 0.961 . S
C46 H49 0.960 . S
H47 C46 0.961 . S
H48 C46 0.961 . S
H49 C46 0.960 . S
C50 N51 1.342 . S
C50 C54 1.401 . S
C50 C55 1.499 . S
N51 Co34 1.989 . S
N51 C50 1.342 . S
N51 N52 1.388 . S
N52 Co35 1.993 . S
N52 N51 1.388 . S
N52 C53 1.346 . S
C53 N52 1.346 . S
C53 C54 1.396 . S
C53 C63 1.510 . S
C54 C50 1.401 . S
C54 C53 1.396 . S
C55 C50 1.499 . S
C55 H56 0.959 . S
C55 H57 0.960 . S
C55 H58 0.961 . S
H56 C55 0.959 . S
H57 C55 0.960 . S
H58 C55 0.961 . S
O59 Co34 1.967 . S
O59 C67 1.258 . S
O60 Co35 1.941 . S
O60 C67 1.266 . S
H61 C63 0.959 . S
H62 C63 0.961 . S
C63 C53 1.510 . S
C63 H61 0.959 . S
C63 H62 0.961 . S
C63 H64 0.960 . S
H64 C63 0.960 . S
H65 N45 0.862 . S
O66 Co34 1.920 . S
O66 C39 1.289 . S
C67 O59 1.258 . S
C67 O60 1.266 . S
Co68 O71 1.970 . S
Co68 N85 1.989 . S
Co68 O93 1.967 . S
Co68 O100 1.920 . S
Co69 O72 1.966 . S
Co69 N78 2.022 . S
Co69 N86 1.993 . S
Co69 O94 1.941 . S
C70 O71 1.258 . S
C70 O72 1.263 . S
O71 Co68 1.970 . S
O71 C70 1.258 . S
O72 Co69 1.966 . S
O72 C70 1.263 . S
C73 O74 1.235 . S
C73 O100 1.289 . S
O74 C73 1.235 . S
C75 C77 1.400 . S
C75 N78 1.351 . S
C75 C80 1.501 . S
C76 C77 1.387 . S
C76 N79 1.341 . S
C77 C75 1.400 . S
C77 C76 1.387 . S
N78 Co69 2.022 . S
N78 C75 1.351 . S
N78 N79 1.365 . S
N79 C76 1.341 . S
N79 N78 1.365 . S
N79 H99 0.862 . S
C80 C75 1.501 . S
C80 H81 0.961 . S
C80 H82 0.961 . S
C80 H83 0.960 . S
H81 C80 0.961 . S
H82 C80 0.961 . S
H83 C80 0.960 . S
C84 N85 1.342 . S
C84 C88 1.401 . S
C84 C89 1.499 . S
N85 Co68 1.989 . S
N85 C84 1.342 . S
N85 N86 1.388 . S
N86 Co69 1.993 . S
N86 N85 1.388 . S
N86 C87 1.346 . S
C87 N86 1.346 . S
C87 C88 1.396 . S
C87 C97 1.510 . S
C88 C84 1.401 . S
C88 C87 1.396 . S
C89 C84 1.499 . S
C89 H90 0.959 . S
C89 H91 0.960 . S
C89 H92 0.961 . S
H90 C89 0.959 . S
H91 C89 0.960 . S
H92 C89 0.961 . S
O93 Co68 1.967 . S
O93 C101 1.258 . S
O94 Co69 1.941 . S
O94 C101 1.266 . S
H95 C97 0.959 . S
H96 C97 0.961 . S
C97 C87 1.510 . S
C97 H95 0.959 . S
C97 H96 0.961 . S
C97 H98 0.960 . S
H98 C97 0.960 . S
H99 N79 0.862 . S
O100 Co68 1.920 . S
O100 C73 1.289 . S
C101 O93 1.258 . S
C101 O94 1.266 . S
Co102 O105 1.970 . S
Co102 N119 1.989 . S
Co102 O127 1.967 . S
Co102 O134 1.920 . S
Co103 O106 1.966 . S
Co103 N112 2.022 . S
Co103 N120 1.993 . S
Co103 O128 1.941 . S
C104 O105 1.258 . S
C104 O106 1.263 . S
O105 Co102 1.970 . S
O105 C104 1.258 . S
O106 Co103 1.966 . S
O106 C104 1.263 . S
C107 O108 1.235 . S
C107 O134 1.289 . S
O108 C107 1.235 . S
C109 C111 1.400 . S
C109 N112 1.351 . S
C109 C114 1.501 . S
C110 C111 1.387 . S
C110 N113 1.341 . S
C111 C109 1.400 . S
C111 C110 1.387 . S
N112 Co103 2.022 . S
N112 C109 1.351 . S
N112 N113 1.365 . S
N113 C110 1.341 . S
N113 N112 1.365 . S
N113 H133 0.862 . S
C114 C109 1.501 . S
C114 H115 0.961 . S
C114 H116 0.961 . S
C114 H117 0.960 . S
H115 C114 0.961 . S
H116 C114 0.961 . S
H117 C114 0.960 . S
C118 N119 1.342 . S
C118 C122 1.401 . S
C118 C123 1.499 . S
N119 Co102 1.989 . S
N119 C118 1.342 . S
N119 N120 1.388 . S
N120 Co103 1.993 . S
N120 N119 1.388 . S
N120 C121 1.346 . S
C121 N120 1.346 . S
C121 C122 1.396 . S
C121 C131 1.510 . S
C122 C118 1.401 . S
C122 C121 1.396 . S
C123 C118 1.499 . S
C123 H124 0.959 . S
C123 H125 0.960 . S
C123 H126 0.961 . S
H124 C123 0.959 . S
H125 C123 0.960 . S
H126 C123 0.961 . S
O127 Co102 1.967 . S
O127 C135 1.258 . S
O128 Co103 1.941 . S
O128 C135 1.266 . S
H129 C131 0.959 . S
H130 C131 0.961 . S
C131 C121 1.510 . S
C131 H129 0.959 . S
C131 H130 0.961 . S
C131 H132 0.960 . S
H132 C131 0.960 . S
H133 N113 0.862 . S
O134 Co102 1.920 . S
O134 C107 1.289 . S
C135 O127 1.258 . S
C135 O128 1.266 . S
Co136 O139 1.970 . S
Co136 N153 1.989 . S
Co136 O161 1.967 . S
Co136 O168 1.920 . S
Co137 O140 1.966 . S
Co137 N146 2.022 . S
Co137 N154 1.993 . S
Co137 O162 1.941 . S
C138 O139 1.258 . S
C138 O140 1.263 . S
O139 Co136 1.970 . S
O139 C138 1.258 . S
O140 Co137 1.966 . S
O140 C138 1.263 . S
C141 O142 1.235 . S
C141 O168 1.289 . S
O142 C141 1.235 . S
C143 C145 1.400 . S
C143 N146 1.351 . S
C143 C148 1.501 . S
C144 C145 1.387 . S
C144 N147 1.341 . S
C145 C143 1.400 . S
C145 C144 1.387 . S
N146 Co137 2.022 . S
N146 C143 1.351 . S
N146 N147 1.365 . S
N147 C144 1.341 . S
N147 N146 1.365 . S
N147 H167 0.862 . S
C148 C143 1.501 . S
C148 H149 0.961 . S
C148 H150 0.961 . S
C148 H151 0.960 . S
H149 C148 0.961 . S
H150 C148 0.961 . S
H151 C148 0.960 . S
C152 N153 1.342 . S
C152 C156 1.401 . S
C152 C157 1.499 . S
N153 Co136 1.989 . S
N153 C152 1.342 . S
N153 N154 1.388 . S
N154 Co137 1.993 . S
N154 N153 1.388 . S
N154 C155 1.346 . S
C155 N154 1.346 . S
C155 C156 1.396 . S
C155 C165 1.510 . S
C156 C152 1.401 . S
C156 C155 1.396 . S
C157 C152 1.499 . S
C157 H158 0.959 . S
C157 H159 0.960 . S
C157 H160 0.961 . S
H158 C157 0.959 . S
H159 C157 0.960 . S
H160 C157 0.961 . S
O161 Co136 1.967 . S
O161 C169 1.258 . S
O162 Co137 1.941 . S
O162 C169 1.266 . S
H163 C165 0.959 . S
H164 C165 0.961 . S
C165 C155 1.510 . S
C165 H163 0.959 . S
C165 H164 0.961 . S
C165 H166 0.960 . S
H166 C165 0.960 . S
H167 N147 0.862 . S
O168 Co136 1.920 . S
O168 C141 1.289 . S
C169 O161 1.258 . S
C169 O162 1.266 . S
Co170 O173 1.970 . S
Co170 N187 1.989 . S
Co170 O195 1.967 . S
Co170 O202 1.920 . S
Co171 O174 1.966 . S
Co171 N180 2.022 . S
Co171 N188 1.993 . S
Co171 O196 1.941 . S
C172 O173 1.258 . S
C172 O174 1.263 . S
O173 Co170 1.970 . S
O173 C172 1.258 . S
O174 Co171 1.966 . S
O174 C172 1.263 . S
C175 O176 1.235 . S
C175 O202 1.289 . S
O176 C175 1.235 . S
C177 C179 1.400 . S
C177 N180 1.351 . S
C177 C182 1.501 . S
C178 C179 1.387 . S
C178 N181 1.341 . S
C179 C177 1.400 . S
C179 C178 1.387 . S
N180 Co171 2.022 . S
N180 C177 1.351 . S
N180 N181 1.365 . S
N181 C178 1.341 . S
N181 N180 1.365 . S
N181 H201 0.862 . S
C182 C177 1.501 . S
C182 H183 0.961 . S
C182 H184 0.961 . S
C182 H185 0.960 . S
H183 C182 0.961 . S
H184 C182 0.961 . S
H185 C182 0.960 . S
C186 N187 1.342 . S
C186 C190 1.401 . S
C186 C191 1.499 . S
N187 Co170 1.989 . S
N187 C186 1.342 . S
N187 N188 1.388 . S
N188 Co171 1.993 . S
N188 N187 1.388 . S
N188 C189 1.346 . S
C189 N188 1.346 . S
C189 C190 1.396 . S
C189 C199 1.510 . S
C190 C186 1.401 . S
C190 C189 1.396 . S
C191 C186 1.499 . S
C191 H192 0.959 . S
C191 H193 0.960 . S
C191 H194 0.961 . S
H192 C191 0.959 . S
H193 C191 0.960 . S
H194 C191 0.961 . S
O195 Co170 1.967 . S
O195 C203 1.258 . S
O196 Co171 1.941 . S
O196 C203 1.266 . S
H197 C199 0.959 . S
H198 C199 0.961 . S
C199 C189 1.510 . S
C199 H197 0.959 . S
C199 H198 0.961 . S
C199 H200 0.960 . S
H200 C199 0.960 . S
H201 N181 0.862 . S
O202 Co170 1.920 . S
O202 C175 1.289 . S
C203 O195 1.258 . S
C203 O196 1.266 . S
Co204 O207 1.970 . S
Co204 N221 1.989 . S
Co204 O229 1.967 . S
Co204 O236 1.920 . S
Co205 O208 1.966 . S
Co205 N214 2.022 . S
Co205 N222 1.993 . S
Co205 O230 1.941 . S
C206 O207 1.258 . S
C206 O208 1.263 . S
O207 Co204 1.970 . S
O207 C206 1.258 . S
O208 Co205 1.966 . S
O208 C206 1.263 . S
C209 O210 1.235 . S
C209 O236 1.289 . S
O210 C209 1.235 . S
C211 C213 1.400 . S
C211 N214 1.351 . S
C211 C216 1.501 . S
C212 C213 1.387 . S
C212 N215 1.341 . S
C213 C211 1.400 . S
C213 C212 1.387 . S
N214 Co205 2.022 . S
N214 C211 1.351 . S
N214 N215 1.365 . S
N215 C212 1.341 . S
N215 N214 1.365 . S
N215 H235 0.862 . S
C216 C211 1.501 . S
C216 H217 0.961 . S
C216 H218 0.961 . S
C216 H219 0.960 . S
H217 C216 0.961 . S
H218 C216 0.961 . S
H219 C216 0.960 . S
C220 N221 1.342 . S
C220 C224 1.401 . S
C220 C225 1.499 . S
N221 Co204 1.989 . S
N221 C220 1.342 . S
N221 N222 1.388 . S
N222 Co205 1.993 . S
N222 N221 1.388 . S
N222 C223 1.346 . S
C223 N222 1.346 . S
C223 C224 1.396 . S
C223 C233 1.510 . S
C224 C220 1.401 . S
C224 C223 1.396 . S
C225 C220 1.499 . S
C225 H226 0.959 . S
C225 H227 0.960 . S
C225 H228 0.961 . S
H226 C225 0.959 . S
H227 C225 0.960 . S
H228 C225 0.961 . S
O229 Co204 1.967 . S
O229 C237 1.258 . S
O230 Co205 1.941 . S
O230 C237 1.266 . S
H231 C233 0.959 . S
H232 C233 0.961 . S
C233 C223 1.510 . S
C233 H231 0.959 . S
C233 H232 0.961 . S
C233 H234 0.960 . S
H234 C233 0.960 . S
H235 N215 0.862 . S
O236 Co204 1.920 . S
O236 C209 1.289 . S
C237 O229 1.258 . S
C237 O230 1.266 . S
Co238 O241 1.970 . S
Co238 N255 1.989 . S
Co238 O263 1.967 . S
Co238 O270 1.920 . S
Co239 O242 1.966 . S
Co239 N248 2.022 . S
Co239 N256 1.993 . S
Co239 O264 1.941 . S
C240 O241 1.258 . S
C240 O242 1.263 . S
O241 Co238 1.970 . S
O241 C240 1.258 . S
O242 Co239 1.966 . S
O242 C240 1.263 . S
C243 O244 1.235 . S
C243 O270 1.289 . S
O244 C243 1.235 . S
C245 C247 1.400 . S
C245 N248 1.351 . S
C245 C250 1.501 . S
C246 C247 1.387 . S
C246 N249 1.341 . S
C247 C245 1.400 . S
C247 C246 1.387 . S
N248 Co239 2.022 . S
N248 C245 1.351 . S
N248 N249 1.365 . S
N249 C246 1.341 . S
N249 N248 1.365 . S
N249 H269 0.862 . S
C250 C245 1.501 . S
C250 H251 0.961 . S
C250 H252 0.961 . S
C250 H253 0.960 . S
H251 C250 0.961 . S
H252 C250 0.961 . S
H253 C250 0.960 . S
C254 N255 1.342 . S
C254 C258 1.401 . S
C254 C259 1.499 . S
N255 Co238 1.989 . S
N255 C254 1.342 . S
N255 N256 1.388 . S
N256 Co239 1.993 . S
N256 N255 1.388 . S
N256 C257 1.346 . S
C257 N256 1.346 . S
C257 C258 1.396 . S
C257 C267 1.510 . S
C258 C254 1.401 . S
C258 C257 1.396 . S
C259 C254 1.499 . S
C259 H260 0.959 . S
C259 H261 0.960 . S
C259 H262 0.961 . S
H260 C259 0.959 . S
H261 C259 0.960 . S
H262 C259 0.961 . S
O263 Co238 1.967 . S
O263 C271 1.258 . S
O264 Co239 1.941 . S
O264 C271 1.266 . S
H265 C267 0.959 . S
H266 C267 0.961 . S
C267 C257 1.510 . S
C267 H265 0.959 . S
C267 H266 0.961 . S
C267 H268 0.960 . S
H268 C267 0.960 . S
H269 N249 0.862 . S
O270 Co238 1.920 . S
O270 C243 1.289 . S
C271 O263 1.258 . S
C271 O264 1.266 . S
Co272 O275 1.970 . S
Co272 N289 1.989 . S
Co272 O297 1.967 . S
Co272 O304 1.920 . S
Co273 O276 1.966 . S
Co273 N282 2.022 . S
Co273 N290 1.993 . S
Co273 O298 1.941 . S
C274 O275 1.258 . S
C274 O276 1.263 . S
O275 Co272 1.970 . S
O275 C274 1.258 . S
O276 Co273 1.966 . S
O276 C274 1.263 . S
C277 O278 1.235 . S
C277 O304 1.289 . S
O278 C277 1.235 . S
C279 C281 1.400 . S
C279 N282 1.351 . S
C279 C284 1.501 . S
C280 C281 1.387 . S
C280 N283 1.341 . S
C281 C279 1.400 . S
C281 C280 1.387 . S
N282 Co273 2.022 . S
N282 C279 1.351 . S
N282 N283 1.365 . S
N283 C280 1.341 . S
N283 N282 1.365 . S
N283 H303 0.862 . S
C284 C279 1.501 . S
C284 H285 0.961 . S
C284 H286 0.961 . S
C284 H287 0.960 . S
H285 C284 0.961 . S
H286 C284 0.961 . S
H287 C284 0.960 . S
C288 N289 1.342 . S
C288 C292 1.401 . S
C288 C293 1.499 . S
N289 Co272 1.989 . S
N289 C288 1.342 . S
N289 N290 1.388 . S
N290 Co273 1.993 . S
N290 N289 1.388 . S
N290 C291 1.346 . S
C291 N290 1.346 . S
C291 C292 1.396 . S
C291 C301 1.510 . S
C292 C288 1.401 . S
C292 C291 1.396 . S
C293 C288 1.499 . S
C293 H294 0.959 . S
C293 H295 0.960 . S
C293 H296 0.961 . S
H294 C293 0.959 . S
H295 C293 0.960 . S
H296 C293 0.961 . S
O297 Co272 1.967 . S
O297 C305 1.258 . S
O298 Co273 1.941 . S
O298 C305 1.266 . S
H299 C301 0.959 . S
H300 C301 0.961 . S
C301 C291 1.510 . S
C301 H299 0.959 . S
C301 H300 0.961 . S
C301 H302 0.960 . S
H302 C301 0.960 . S
H303 N283 0.862 . S
O304 Co272 1.920 . S
O304 C277 1.289 . S
C305 O297 1.258 . S
C305 O298 1.266 . S
Co306 O309 1.970 . S
Co306 N323 1.989 . S
Co306 O331 1.967 . S
Co306 O338 1.920 . S
Co307 O310 1.966 . S
Co307 N316 2.022 . S
Co307 N324 1.993 . S
Co307 O332 1.941 . S
C308 O309 1.258 . S
C308 O310 1.263 . S
O309 Co306 1.970 . S
O309 C308 1.258 . S
O310 Co307 1.966 . S
O310 C308 1.263 . S
C311 O312 1.235 . S
C311 O338 1.289 . S
O312 C311 1.235 . S
C313 C315 1.400 . S
C313 N316 1.351 . S
C313 C318 1.501 . S
C314 C315 1.387 . S
C314 N317 1.341 . S
C315 C313 1.400 . S
C315 C314 1.387 . S
N316 Co307 2.022 . S
N316 C313 1.351 . S
N316 N317 1.365 . S
N317 C314 1.341 . S
N317 N316 1.365 . S
N317 H337 0.862 . S
C318 C313 1.501 . S
C318 H319 0.961 . S
C318 H320 0.961 . S
C318 H321 0.960 . S
H319 C318 0.961 . S
H320 C318 0.961 . S
H321 C318 0.960 . S
C322 N323 1.342 . S
C322 C326 1.401 . S
C322 C327 1.499 . S
N323 Co306 1.989 . S
N323 C322 1.342 . S
N323 N324 1.388 . S
N324 Co307 1.993 . S
N324 N323 1.388 . S
N324 C325 1.346 . S
C325 N324 1.346 . S
C325 C326 1.396 . S
C325 C335 1.510 . S
C326 C322 1.401 . S
C326 C325 1.396 . S
C327 C322 1.499 . S
C327 H328 0.959 . S
C327 H329 0.960 . S
C327 H330 0.961 . S
H328 C327 0.959 . S
H329 C327 0.960 . S
H330 C327 0.961 . S
O331 Co306 1.967 . S
O331 C339 1.258 . S
O332 Co307 1.941 . S
O332 C339 1.266 . S
H333 C335 0.959 . S
H334 C335 0.961 . S
C335 C325 1.510 . S
C335 H333 0.959 . S
C335 H334 0.961 . S
C335 H336 0.960 . S
H336 C335 0.960 . S
H337 N317 0.862 . S
O338 Co306 1.920 . S
O338 C311 1.289 . S
C339 O331 1.258 . S
C339 O332 1.266 . S
Co340 O343 1.970 . S
Co340 N357 1.989 . S
Co340 O365 1.967 . S
Co340 O372 1.920 . S
Co341 O344 1.966 . S
Co341 N350 2.022 . S
Co341 N358 1.993 . S
Co341 O366 1.941 . S
C342 O343 1.258 . S
C342 O344 1.263 . S
O343 Co340 1.970 . S
O343 C342 1.258 . S
O344 Co341 1.966 . S
O344 C342 1.263 . S
C345 O346 1.235 . S
C345 O372 1.289 . S
O346 C345 1.235 . S
C347 C349 1.400 . S
C347 N350 1.351 . S
C347 C352 1.501 . S
C348 C349 1.387 . S
C348 N351 1.341 . S
C349 C347 1.400 . S
C349 C348 1.387 . S
N350 Co341 2.022 . S
N350 C347 1.351 . S
N350 N351 1.365 . S
N351 C348 1.341 . S
N351 N350 1.365 . S
N351 H371 0.862 . S
C352 C347 1.501 . S
C352 H353 0.961 . S
C352 H354 0.961 . S
C352 H355 0.960 . S
H353 C352 0.961 . S
H354 C352 0.961 . S
H355 C352 0.960 . S
C356 N357 1.342 . S
C356 C360 1.401 . S
C356 C361 1.499 . S
N357 Co340 1.989 . S
N357 C356 1.342 . S
N357 N358 1.388 . S
N358 Co341 1.993 . S
N358 N357 1.388 . S
N358 C359 1.346 . S
C359 N358 1.346 . S
C359 C360 1.396 . S
C359 C369 1.510 . S
C360 C356 1.401 . S
C360 C359 1.396 . S
C361 C356 1.499 . S
C361 H362 0.959 . S
C361 H363 0.960 . S
C361 H364 0.961 . S
H362 C361 0.959 . S
H363 C361 0.960 . S
H364 C361 0.961 . S
O365 Co340 1.967 . S
O365 C373 1.258 . S
O366 Co341 1.941 . S
O366 C373 1.266 . S
H367 C369 0.959 . S
H368 C369 0.961 . S
C369 C359 1.510 . S
C369 H367 0.959 . S
C369 H368 0.961 . S
C369 H370 0.960 . S
H370 C369 0.960 . S
H371 N351 0.862 . S
O372 Co340 1.920 . S
O372 C345 1.289 . S
C373 O365 1.258 . S
C373 O366 1.266 . S
Co374 O377 1.970 . S
Co374 N391 1.989 . S
Co374 O399 1.967 . S
Co374 O406 1.920 . S
Co375 O378 1.966 . S
Co375 N384 2.022 . S
Co375 N392 1.993 . S
Co375 O400 1.941 . S
C376 O377 1.258 . S
C376 O378 1.263 . S
O377 Co374 1.970 . S
O377 C376 1.258 . S
O378 Co375 1.966 . S
O378 C376 1.263 . S
C379 O380 1.235 . S
C379 O406 1.289 . S
O380 C379 1.235 . S
C381 C383 1.400 . S
C381 N384 1.351 . S
C381 C386 1.501 . S
C382 C383 1.387 . S
C382 N385 1.341 . S
C383 C381 1.400 . S
C383 C382 1.387 . S
N384 Co375 2.022 . S
N384 C381 1.351 . S
N384 N385 1.365 . S
N385 C382 1.341 . S
N385 N384 1.365 . S
N385 H405 0.862 . S
C386 C381 1.501 . S
C386 H387 0.961 . S
C386 H388 0.961 . S
C386 H389 0.960 . S
H387 C386 0.961 . S
H388 C386 0.961 . S
H389 C386 0.960 . S
C390 N391 1.342 . S
C390 C394 1.401 . S
C390 C395 1.499 . S
N391 Co374 1.989 . S
N391 C390 1.342 . S
N391 N392 1.388 . S
N392 Co375 1.993 . S
N392 N391 1.388 . S
N392 C393 1.346 . S
C393 N392 1.346 . S
C393 C394 1.396 . S
C393 C403 1.510 . S
C394 C390 1.401 . S
C394 C393 1.396 . S
C395 C390 1.499 . S
C395 H396 0.959 . S
C395 H397 0.960 . S
C395 H398 0.961 . S
H396 C395 0.959 . S
H397 C395 0.960 . S
H398 C395 0.961 . S
O399 Co374 1.967 . S
O399 C407 1.258 . S
O400 Co375 1.941 . S
O400 C407 1.266 . S
H401 C403 0.959 . S
H402 C403 0.961 . S
C403 C393 1.510 . S
C403 H401 0.959 . S
C403 H402 0.961 . S
C403 H404 0.960 . S
H404 C403 0.960 . S
H405 N385 0.862 . S
O406 Co374 1.920 . S
O406 C379 1.289 . S
C407 O399 1.258 . S
C407 O400 1.266 . S
Co408 O411 1.970 . S
Co408 N425 1.989 . S
Co408 O433 1.967 . S
Co408 O440 1.920 . S
Co409 O412 1.966 . S
Co409 N418 2.022 . S
Co409 N426 1.993 . S
Co409 O434 1.941 . S
C410 O411 1.258 . S
C410 O412 1.263 . S
O411 Co408 1.970 . S
O411 C410 1.258 . S
O412 Co409 1.966 . S
O412 C410 1.263 . S
C413 O414 1.235 . S
C413 O440 1.289 . S
O414 C413 1.235 . S
C415 C417 1.400 . S
C415 N418 1.351 . S
C415 C420 1.501 . S
C416 C417 1.387 . S
C416 N419 1.341 . S
C417 C415 1.400 . S
C417 C416 1.387 . S
N418 Co409 2.022 . S
N418 C415 1.351 . S
N418 N419 1.365 . S
N419 C416 1.341 . S
N419 N418 1.365 . S
N419 H439 0.862 . S
C420 C415 1.501 . S
C420 H421 0.961 . S
C420 H422 0.961 . S
C420 H423 0.960 . S
H421 C420 0.961 . S
H422 C420 0.961 . S
H423 C420 0.960 . S
C424 N425 1.342 . S
C424 C428 1.401 . S
C424 C429 1.499 . S
N425 Co408 1.989 . S
N425 C424 1.342 . S
N425 N426 1.388 . S
N426 Co409 1.993 . S
N426 N425 1.388 . S
N426 C427 1.346 . S
C427 N426 1.346 . S
C427 C428 1.396 . S
C427 C437 1.510 . S
C428 C424 1.401 . S
C428 C427 1.396 . S
C429 C424 1.499 . S
C429 H430 0.959 . S
C429 H431 0.960 . S
C429 H432 0.961 . S
H430 C429 0.959 . S
H431 C429 0.960 . S
H432 C429 0.961 . S
O433 Co408 1.967 . S
O433 C441 1.258 . S
O434 Co409 1.941 . S
O434 C441 1.266 . S
H435 C437 0.959 . S
H436 C437 0.961 . S
C437 C427 1.510 . S
C437 H435 0.959 . S
C437 H436 0.961 . S
C437 H438 0.960 . S
H438 C437 0.960 . S
H439 N419 0.862 . S
O440 Co408 1.920 . S
O440 C413 1.289 . S
C441 O433 1.258 . S
C441 O434 1.266 . S
Co442 O445 1.970 . S
Co442 N459 1.989 . S
Co442 O467 1.967 . S
Co442 O474 1.920 . S
Co443 O446 1.966 . S
Co443 N452 2.022 . S
Co443 N460 1.993 . S
Co443 O468 1.941 . S
C444 O445 1.258 . S
C444 O446 1.263 . S
O445 Co442 1.970 . S
O445 C444 1.258 . S
O446 Co443 1.966 . S
O446 C444 1.263 . S
C447 O448 1.235 . S
C447 O474 1.289 . S
O448 C447 1.235 . S
C449 C451 1.400 . S
C449 N452 1.351 . S
C449 C454 1.501 . S
C450 C451 1.387 . S
C450 N453 1.341 . S
C451 C449 1.400 . S
C451 C450 1.387 . S
N452 Co443 2.022 . S
N452 C449 1.351 . S
N452 N453 1.365 . S
N453 C450 1.341 . S
N453 N452 1.365 . S
N453 H473 0.862 . S
C454 C449 1.501 . S
C454 H455 0.961 . S
C454 H456 0.961 . S
C454 H457 0.960 . S
H455 C454 0.961 . S
H456 C454 0.961 . S
H457 C454 0.960 . S
C458 N459 1.342 . S
C458 C462 1.401 . S
C458 C463 1.499 . S
N459 Co442 1.989 . S
N459 C458 1.342 . S
N459 N460 1.388 . S
N460 Co443 1.993 . S
N460 N459 1.388 . S
N460 C461 1.346 . S
C461 N460 1.346 . S
C461 C462 1.396 . S
C461 C471 1.510 . S
C462 C458 1.401 . S
C462 C461 1.396 . S
C463 C458 1.499 . S
C463 H464 0.959 . S
C463 H465 0.960 . S
C463 H466 0.961 . S
H464 C463 0.959 . S
H465 C463 0.960 . S
H466 C463 0.961 . S
O467 Co442 1.967 . S
O467 C475 1.258 . S
O468 Co443 1.941 . S
O468 C475 1.266 . S
H469 C471 0.959 . S
H470 C471 0.961 . S
C471 C461 1.510 . S
C471 H469 0.959 . S
C471 H470 0.961 . S
C471 H472 0.960 . S
H472 C471 0.960 . S
H473 N453 0.862 . S
O474 Co442 1.920 . S
O474 C447 1.289 . S
C475 O467 1.258 . S
C475 O468 1.266 . S
Co476 O479 1.970 . S
Co476 N493 1.989 . S
Co476 O501 1.967 . S
Co476 O508 1.920 . S
Co477 O480 1.966 . S
Co477 N486 2.022 . S
Co477 N494 1.993 . S
Co477 O502 1.941 . S
C478 O479 1.258 . S
C478 O480 1.263 . S
O479 Co476 1.970 . S
O479 C478 1.258 . S
O480 Co477 1.966 . S
O480 C478 1.263 . S
C481 O482 1.235 . S
C481 O508 1.289 . S
O482 C481 1.235 . S
C483 C485 1.400 . S
C483 N486 1.351 . S
C483 C488 1.501 . S
C484 C485 1.387 . S
C484 N487 1.341 . S
C485 C483 1.400 . S
C485 C484 1.387 . S
N486 Co477 2.022 . S
N486 C483 1.351 . S
N486 N487 1.365 . S
N487 C484 1.341 . S
N487 N486 1.365 . S
N487 H507 0.862 . S
C488 C483 1.501 . S
C488 H489 0.961 . S
C488 H490 0.961 . S
C488 H491 0.960 . S
H489 C488 0.961 . S
H490 C488 0.961 . S
H491 C488 0.960 . S
C492 N493 1.342 . S
C492 C496 1.401 . S
C492 C497 1.499 . S
N493 Co476 1.989 . S
N493 C492 1.342 . S
N493 N494 1.388 . S
N494 Co477 1.993 . S
N494 N493 1.388 . S
N494 C495 1.346 . S
C495 N494 1.346 . S
C495 C496 1.396 . S
C495 C505 1.510 . S
C496 C492 1.401 . S
C496 C495 1.396 . S
C497 C492 1.499 . S
C497 H498 0.959 . S
C497 H499 0.960 . S
C497 H500 0.961 . S
H498 C497 0.959 . S
H499 C497 0.960 . S
H500 C497 0.961 . S
O501 Co476 1.967 . S
O501 C509 1.258 . S
O502 Co477 1.941 . S
O502 C509 1.266 . S
H503 C505 0.959 . S
H504 C505 0.961 . S
C505 C495 1.510 . S
C505 H503 0.959 . S
C505 H504 0.961 . S
C505 H506 0.960 . S
H506 C505 0.960 . S
H507 N487 0.862 . S
O508 Co476 1.920 . S
O508 C481 1.289 . S
C509 O501 1.258 . S
C509 O502 1.266 . S
Co510 O513 1.970 . S
Co510 N527 1.989 . S
Co510 O535 1.967 . S
Co510 O542 1.920 . S
Co511 O514 1.966 . S
Co511 N520 2.022 . S
Co511 N528 1.993 . S
Co511 O536 1.941 . S
C512 O513 1.258 . S
C512 O514 1.263 . S
O513 Co510 1.970 . S
O513 C512 1.258 . S
O514 Co511 1.966 . S
O514 C512 1.263 . S
C515 O516 1.235 . S
C515 O542 1.289 . S
O516 C515 1.235 . S
C517 C519 1.400 . S
C517 N520 1.351 . S
C517 C522 1.501 . S
C518 C519 1.387 . S
C518 N521 1.341 . S
C519 C517 1.400 . S
C519 C518 1.387 . S
N520 Co511 2.022 . S
N520 C517 1.351 . S
N520 N521 1.365 . S
N521 C518 1.341 . S
N521 N520 1.365 . S
N521 H541 0.862 . S
C522 C517 1.501 . S
C522 H523 0.961 . S
C522 H524 0.961 . S
C522 H525 0.960 . S
H523 C522 0.961 . S
H524 C522 0.961 . S
H525 C522 0.960 . S
C526 N527 1.342 . S
C526 C530 1.401 . S
C526 C531 1.499 . S
N527 Co510 1.989 . S
N527 C526 1.342 . S
N527 N528 1.388 . S
N528 Co511 1.993 . S
N528 N527 1.388 . S
N528 C529 1.346 . S
C529 N528 1.346 . S
C529 C530 1.396 . S
C529 C539 1.510 . S
C530 C526 1.401 . S
C530 C529 1.396 . S
C531 C526 1.499 . S
C531 H532 0.959 . S
C531 H533 0.960 . S
C531 H534 0.961 . S
H532 C531 0.959 . S
H533 C531 0.960 . S
H534 C531 0.961 . S
O535 Co510 1.967 . S
O535 C543 1.258 . S
O536 Co511 1.941 . S
O536 C543 1.266 . S
H537 C539 0.959 . S
H538 C539 0.961 . S
C539 C529 1.510 . S
C539 H537 0.959 . S
C539 H538 0.961 . S
C539 H540 0.960 . S
H540 C539 0.960 . S
H541 N521 0.862 . S
O542 Co510 1.920 . S
O542 C515 1.289 . S
C543 O535 1.258 . S
C543 O536 1.266 . S
Co544 O547 1.970 . S
Co544 N561 1.989 . S
Co544 O569 1.967 . S
Co544 O576 1.920 . S
Co545 O548 1.966 . S
Co545 N554 2.022 . S
Co545 N562 1.993 . S
Co545 O570 1.941 . S
C546 O547 1.258 . S
C546 O548 1.263 . S
O547 Co544 1.970 . S
O547 C546 1.258 . S
O548 Co545 1.966 . S
O548 C546 1.263 . S
C549 O550 1.235 . S
C549 O576 1.289 . S
O550 C549 1.235 . S
C551 C553 1.400 . S
C551 N554 1.351 . S
C551 C556 1.501 . S
C552 C553 1.387 . S
C552 N555 1.341 . S
C553 C551 1.400 . S
C553 C552 1.387 . S
N554 Co545 2.022 . S
N554 C551 1.351 . S
N554 N555 1.365 . S
N555 C552 1.341 . S
N555 N554 1.365 . S
N555 H575 0.862 . S
C556 C551 1.501 . S
C556 H557 0.961 . S
C556 H558 0.961 . S
C556 H559 0.960 . S
H557 C556 0.961 . S
H558 C556 0.961 . S
H559 C556 0.960 . S
C560 N561 1.342 . S
C560 C564 1.401 . S
C560 C565 1.499 . S
N561 Co544 1.989 . S
N561 C560 1.342 . S
N561 N562 1.388 . S
N562 Co545 1.993 . S
N562 N561 1.388 . S
N562 C563 1.346 . S
C563 N562 1.346 . S
C563 C564 1.396 . S
C563 C573 1.510 . S
C564 C560 1.401 . S
C564 C563 1.396 . S
C565 C560 1.499 . S
C565 H566 0.959 . S
C565 H567 0.960 . S
C565 H568 0.961 . S
H566 C565 0.959 . S
H567 C565 0.960 . S
H568 C565 0.961 . S
O569 Co544 1.967 . S
O569 C577 1.258 . S
O570 Co545 1.941 . S
O570 C577 1.266 . S
H571 C573 0.959 . S
H572 C573 0.961 . S
C573 C563 1.510 . S
C573 H571 0.959 . S
C573 H572 0.961 . S
C573 H574 0.960 . S
H574 C573 0.960 . S
H575 N555 0.862 . S
O576 Co544 1.920 . S
O576 C549 1.289 . S
C577 O569 1.258 . S
C577 O570 1.266 . S
Co578 O581 1.970 . S
Co578 N595 1.989 . S
Co578 O603 1.967 . S
Co578 O610 1.920 . S
Co579 O582 1.966 . S
Co579 N588 2.022 . S
Co579 N596 1.993 . S
Co579 O604 1.941 . S
C580 O581 1.258 . S
C580 O582 1.263 . S
O581 Co578 1.970 . S
O581 C580 1.258 . S
O582 Co579 1.966 . S
O582 C580 1.263 . S
C583 O584 1.235 . S
C583 O610 1.289 . S
O584 C583 1.235 . S
C585 C587 1.400 . S
C585 N588 1.351 . S
C585 C590 1.501 . S
C586 C587 1.387 . S
C586 N589 1.341 . S
C587 C585 1.400 . S
C587 C586 1.387 . S
N588 Co579 2.022 . S
N588 C585 1.351 . S
N588 N589 1.365 . S
N589 C586 1.341 . S
N589 N588 1.365 . S
N589 H609 0.862 . S
C590 C585 1.501 . S
C590 H591 0.961 . S
C590 H592 0.961 . S
C590 H593 0.960 . S
H591 C590 0.961 . S
H592 C590 0.961 . S
H593 C590 0.960 . S
C594 N595 1.342 . S
C594 C598 1.401 . S
C594 C599 1.499 . S
N595 Co578 1.989 . S
N595 C594 1.342 . S
N595 N596 1.388 . S
N596 Co579 1.993 . S
N596 N595 1.388 . S
N596 C597 1.346 . S
C597 N596 1.346 . S
C597 C598 1.396 . S
C597 C607 1.510 . S
C598 C594 1.401 . S
C598 C597 1.396 . S
C599 C594 1.499 . S
C599 H600 0.959 . S
C599 H601 0.960 . S
C599 H602 0.961 . S
H600 C599 0.959 . S
H601 C599 0.960 . S
H602 C599 0.961 . S
O603 Co578 1.967 . S
O603 C611 1.258 . S
O604 Co579 1.941 . S
O604 C611 1.266 . S
H605 C607 0.959 . S
H606 C607 0.961 . S
C607 C597 1.510 . S
C607 H605 0.959 . S
C607 H606 0.961 . S
C607 H608 0.960 . S
H608 C607 0.960 . S
H609 N589 0.862 . S
O610 Co578 1.920 . S
O610 C583 1.289 . S
C611 O603 1.258 . S
C611 O604 1.266 . S
Co612 O615 1.970 . S
Co612 N629 1.989 . S
Co612 O637 1.967 . S
Co612 O644 1.920 . S
Co613 O616 1.966 . S
Co613 N622 2.022 . S
Co613 N630 1.993 . S
Co613 O638 1.941 . S
C614 O615 1.258 . S
C614 O616 1.263 . S
O615 Co612 1.970 . S
O615 C614 1.258 . S
O616 Co613 1.966 . S
O616 C614 1.263 . S
C617 O618 1.235 . S
C617 O644 1.289 . S
O618 C617 1.235 . S
C619 C621 1.400 . S
C619 N622 1.351 . S
C619 C624 1.501 . S
C620 C621 1.387 . S
C620 N623 1.341 . S
C621 C619 1.400 . S
C621 C620 1.387 . S
N622 Co613 2.022 . S
N622 C619 1.351 . S
N622 N623 1.365 . S
N623 C620 1.341 . S
N623 N622 1.365 . S
N623 H643 0.862 . S
C624 C619 1.501 . S
C624 H625 0.961 . S
C624 H626 0.961 . S
C624 H627 0.960 . S
H625 C624 0.961 . S
H626 C624 0.961 . S
H627 C624 0.960 . S
C628 N629 1.342 . S
C628 C632 1.401 . S
C628 C633 1.499 . S
N629 Co612 1.989 . S
N629 C628 1.342 . S
N629 N630 1.388 . S
N630 Co613 1.993 . S
N630 N629 1.388 . S
N630 C631 1.346 . S
C631 N630 1.346 . S
C631 C632 1.396 . S
C631 C641 1.510 . S
C632 C628 1.401 . S
C632 C631 1.396 . S
C633 C628 1.499 . S
C633 H634 0.959 . S
C633 H635 0.960 . S
C633 H636 0.961 . S
H634 C633 0.959 . S
H635 C633 0.960 . S
H636 C633 0.961 . S
O637 Co612 1.967 . S
O637 C645 1.258 . S
O638 Co613 1.941 . S
O638 C645 1.266 . S
H639 C641 0.959 . S
H640 C641 0.961 . S
C641 C631 1.510 . S
C641 H639 0.959 . S
C641 H640 0.961 . S
C641 H642 0.960 . S
H642 C641 0.960 . S
H643 N623 0.862 . S
O644 Co612 1.920 . S
O644 C617 1.289 . S
C645 O637 1.258 . S
C645 O638 1.266 . S
Co646 O649 1.970 . S
Co646 N663 1.989 . S
Co646 O671 1.967 . S
Co646 O678 1.920 . S
Co647 O650 1.966 . S
Co647 N656 2.022 . S
Co647 N664 1.993 . S
Co647 O672 1.941 . S
C648 O649 1.258 . S
C648 O650 1.263 . S
O649 Co646 1.970 . S
O649 C648 1.258 . S
O650 Co647 1.966 . S
O650 C648 1.263 . S
C651 O652 1.235 . S
C651 O678 1.289 . S
O652 C651 1.235 . S
C653 C655 1.400 . S
C653 N656 1.351 . S
C653 C658 1.501 . S
C654 C655 1.387 . S
C654 N657 1.341 . S
C655 C653 1.400 . S
C655 C654 1.387 . S
N656 Co647 2.022 . S
N656 C653 1.351 . S
N656 N657 1.365 . S
N657 C654 1.341 . S
N657 N656 1.365 . S
N657 H677 0.862 . S
C658 C653 1.501 . S
C658 H659 0.961 . S
C658 H660 0.961 . S
C658 H661 0.960 . S
H659 C658 0.961 . S
H660 C658 0.961 . S
H661 C658 0.960 . S
C662 N663 1.342 . S
C662 C666 1.401 . S
C662 C667 1.499 . S
N663 Co646 1.989 . S
N663 C662 1.342 . S
N663 N664 1.388 . S
N664 Co647 1.993 . S
N664 N663 1.388 . S
N664 C665 1.346 . S
C665 N664 1.346 . S
C665 C666 1.396 . S
C665 C675 1.510 . S
C666 C662 1.401 . S
C666 C665 1.396 . S
C667 C662 1.499 . S
C667 H668 0.959 . S
C667 H669 0.960 . S
C667 H670 0.961 . S
H668 C667 0.959 . S
H669 C667 0.960 . S
H670 C667 0.961 . S
O671 Co646 1.967 . S
O671 C679 1.258 . S
O672 Co647 1.941 . S
O672 C679 1.266 . S
H673 C675 0.959 . S
H674 C675 0.961 . S
C675 C665 1.510 . S
C675 H673 0.959 . S
C675 H674 0.961 . S
C675 H676 0.960 . S
H676 C675 0.960 . S
H677 N657 0.862 . S
O678 Co646 1.920 . S
O678 C651 1.289 . S
C679 O671 1.258 . S
C679 O672 1.266 . S
Co680 O683 1.970 . S
Co680 N697 1.989 . S
Co680 O705 1.967 . S
Co680 O712 1.920 . S
Co681 O684 1.966 . S
Co681 N690 2.022 . S
Co681 N698 1.993 . S
Co681 O706 1.941 . S
C682 O683 1.258 . S
C682 O684 1.263 . S
O683 Co680 1.970 . S
O683 C682 1.258 . S
O684 Co681 1.966 . S
O684 C682 1.263 . S
C685 O686 1.235 . S
C685 O712 1.289 . S
O686 C685 1.235 . S
C687 C689 1.400 . S
C687 N690 1.351 . S
C687 C692 1.501 . S
C688 C689 1.387 . S
C688 N691 1.341 . S
C689 C687 1.400 . S
C689 C688 1.387 . S
N690 Co681 2.022 . S
N690 C687 1.351 . S
N690 N691 1.365 . S
N691 C688 1.341 . S
N691 N690 1.365 . S
N691 H711 0.862 . S
C692 C687 1.501 . S
C692 H693 0.961 . S
C692 H694 0.961 . S
C692 H695 0.960 . S
H693 C692 0.961 . S
H694 C692 0.961 . S
H695 C692 0.960 . S
C696 N697 1.342 . S
C696 C700 1.401 . S
C696 C701 1.499 . S
N697 Co680 1.989 . S
N697 C696 1.342 . S
N697 N698 1.388 . S
N698 Co681 1.993 . S
N698 N697 1.388 . S
N698 C699 1.346 . S
C699 N698 1.346 . S
C699 C700 1.396 . S
C699 C709 1.510 . S
C700 C696 1.401 . S
C700 C699 1.396 . S
C701 C696 1.499 . S
C701 H702 0.959 . S
C701 H703 0.960 . S
C701 H704 0.961 . S
H702 C701 0.959 . S
H703 C701 0.960 . S
H704 C701 0.961 . S
O705 Co680 1.967 . S
O705 C713 1.258 . S
O706 Co681 1.941 . S
O706 C713 1.266 . S
H707 C709 0.959 . S
H708 C709 0.961 . S
C709 C699 1.510 . S
C709 H707 0.959 . S
C709 H708 0.961 . S
C709 H710 0.960 . S
H710 C709 0.960 . S
H711 N691 0.862 . S
O712 Co680 1.920 . S
O712 C685 1.289 . S
C713 O705 1.258 . S
C713 O706 1.266 . S
Co714 O717 1.970 . S
Co714 N731 1.989 . S
Co714 O739 1.967 . S
Co714 O746 1.920 . S
Co715 O718 1.966 . S
Co715 N724 2.022 . S
Co715 N732 1.993 . S
Co715 O740 1.941 . S
C716 O717 1.258 . S
C716 O718 1.263 . S
O717 Co714 1.970 . S
O717 C716 1.258 . S
O718 Co715 1.966 . S
O718 C716 1.263 . S
C719 O720 1.235 . S
C719 O746 1.289 . S
O720 C719 1.235 . S
C721 C723 1.400 . S
C721 N724 1.351 . S
C721 C726 1.501 . S
C722 C723 1.387 . S
C722 N725 1.341 . S
C723 C721 1.400 . S
C723 C722 1.387 . S
N724 Co715 2.022 . S
N724 C721 1.351 . S
N724 N725 1.365 . S
N725 C722 1.341 . S
N725 N724 1.365 . S
N725 H745 0.862 . S
C726 C721 1.501 . S
C726 H727 0.961 . S
C726 H728 0.961 . S
C726 H729 0.960 . S
H727 C726 0.961 . S
H728 C726 0.961 . S
H729 C726 0.960 . S
C730 N731 1.342 . S
C730 C734 1.401 . S
C730 C735 1.499 . S
N731 Co714 1.989 . S
N731 C730 1.342 . S
N731 N732 1.388 . S
N732 Co715 1.993 . S
N732 N731 1.388 . S
N732 C733 1.346 . S
C733 N732 1.346 . S
C733 C734 1.396 . S
C733 C743 1.510 . S
C734 C730 1.401 . S
C734 C733 1.396 . S
C735 C730 1.499 . S
C735 H736 0.959 . S
C735 H737 0.960 . S
C735 H738 0.961 . S
H736 C735 0.959 . S
H737 C735 0.960 . S
H738 C735 0.961 . S
O739 Co714 1.967 . S
O739 C747 1.258 . S
O740 Co715 1.941 . S
O740 C747 1.266 . S
H741 C743 0.959 . S
H742 C743 0.961 . S
C743 C733 1.510 . S
C743 H741 0.959 . S
C743 H742 0.961 . S
C743 H744 0.960 . S
H744 C743 0.960 . S
H745 N725 0.862 . S
O746 Co714 1.920 . S
O746 C719 1.289 . S
C747 O739 1.258 . S
C747 O740 1.266 . S
Co748 O751 1.970 . S
Co748 N765 1.989 . S
Co748 O773 1.967 . S
Co748 O780 1.920 . S
Co749 O752 1.966 . S
Co749 N758 2.022 . S
Co749 N766 1.993 . S
Co749 O774 1.941 . S
C750 O751 1.258 . S
C750 O752 1.263 . S
O751 Co748 1.970 . S
O751 C750 1.258 . S
O752 Co749 1.966 . S
O752 C750 1.263 . S
C753 O754 1.235 . S
C753 O780 1.289 . S
O754 C753 1.235 . S
C755 C757 1.400 . S
C755 N758 1.351 . S
C755 C760 1.501 . S
C756 C757 1.387 . S
C756 N759 1.341 . S
C757 C755 1.400 . S
C757 C756 1.387 . S
N758 Co749 2.022 . S
N758 C755 1.351 . S
N758 N759 1.365 . S
N759 C756 1.341 . S
N759 N758 1.365 . S
N759 H779 0.862 . S
C760 C755 1.501 . S
C760 H761 0.961 . S
C760 H762 0.961 . S
C760 H763 0.960 . S
H761 C760 0.961 . S
H762 C760 0.961 . S
H763 C760 0.960 . S
C764 N765 1.342 . S
C764 C768 1.401 . S
C764 C769 1.499 . S
N765 Co748 1.989 . S
N765 C764 1.342 . S
N765 N766 1.388 . S
N766 Co749 1.993 . S
N766 N765 1.388 . S
N766 C767 1.346 . S
C767 N766 1.346 . S
C767 C768 1.396 . S
C767 C777 1.510 . S
C768 C764 1.401 . S
C768 C767 1.396 . S
C769 C764 1.499 . S
C769 H770 0.959 . S
C769 H771 0.960 . S
C769 H772 0.961 . S
H770 C769 0.959 . S
H771 C769 0.960 . S
H772 C769 0.961 . S
O773 Co748 1.967 . S
O773 C781 1.258 . S
O774 Co749 1.941 . S
O774 C781 1.266 . S
H775 C777 0.959 . S
H776 C777 0.961 . S
C777 C767 1.510 . S
C777 H775 0.959 . S
C777 H776 0.961 . S
C777 H778 0.960 . S
H778 C777 0.960 . S
H779 N759 0.862 . S
O780 Co748 1.920 . S
O780 C753 1.289 . S
C781 O773 1.258 . S
C781 O774 1.266 . S
Co782 O785 1.970 . S
Co782 N799 1.989 . S
Co782 O807 1.967 . S
Co782 O814 1.920 . S
Co783 O786 1.966 . S
Co783 N792 2.022 . S
Co783 N800 1.993 . S
Co783 O808 1.941 . S
C784 O785 1.258 . S
C784 O786 1.263 . S
O785 Co782 1.970 . S
O785 C784 1.258 . S
O786 Co783 1.966 . S
O786 C784 1.263 . S
C787 O788 1.235 . S
C787 O814 1.289 . S
O788 C787 1.235 . S
C789 C791 1.400 . S
C789 N792 1.351 . S
C789 C794 1.501 . S
C790 C791 1.387 . S
C790 N793 1.341 . S
C791 C789 1.400 . S
C791 C790 1.387 . S
N792 Co783 2.022 . S
N792 C789 1.351 . S
N792 N793 1.365 . S
N793 C790 1.341 . S
N793 N792 1.365 . S
N793 H813 0.862 . S
C794 C789 1.501 . S
C794 H795 0.961 . S
C794 H796 0.961 . S
C794 H797 0.960 . S
H795 C794 0.961 . S
H796 C794 0.961 . S
H797 C794 0.960 . S
C798 N799 1.342 . S
C798 C802 1.401 . S
C798 C803 1.499 . S
N799 Co782 1.989 . S
N799 C798 1.342 . S
N799 N800 1.388 . S
N800 Co783 1.993 . S
N800 N799 1.388 . S
N800 C801 1.346 . S
C801 N800 1.346 . S
C801 C802 1.396 . S
C801 C811 1.510 . S
C802 C798 1.401 . S
C802 C801 1.396 . S
C803 C798 1.499 . S
C803 H804 0.959 . S
C803 H805 0.960 . S
C803 H806 0.961 . S
H804 C803 0.959 . S
H805 C803 0.960 . S
H806 C803 0.961 . S
O807 Co782 1.967 . S
O807 C815 1.258 . S
O808 Co783 1.941 . S
O808 C815 1.266 . S
H809 C811 0.959 . S
H810 C811 0.961 . S
C811 C801 1.510 . S
C811 H809 0.959 . S
C811 H810 0.961 . S
C811 H812 0.960 . S
H812 C811 0.960 . S
H813 N793 0.862 . S
O814 Co782 1.920 . S
O814 C787 1.289 . S
C815 O807 1.258 . S
C815 O808 1.266 . S
C816 C817 1.391 . S
C816 C818 1.394 . S
C816 H832 0.931 . S
C817 C816 1.391 . S
C817 C821 1.376 . S
C818 C816 1.394 . S
C818 C819 1.369 . S
C818 C822 1.531 . S
C819 C818 1.369 . S
C819 C820 1.410 . S
C819 C827 1.503 . S
C820 C819 1.410 . S
C820 C821 1.392 . S
C820 C823 1.511 . S
C821 C817 1.376 . S
C821 C820 1.392 . S
C821 H833 0.929 . S
C822 C818 1.531 . S
C822 H834 0.960 . S
C822 H835 0.962 . S
C822 H836 0.960 . S
C823 C820 1.511 . S
C823 H837 0.961 . S
C823 H838 0.961 . S
C823 H839 0.961 . S
C824 C825 1.370 . S
C824 C826 1.363 . S
C824 H840 0.931 . S
C825 C824 1.370 . S
C825 C829 1.408 . S
C826 C824 1.363 . S
C826 C827 1.370 . S
C826 C830 1.524 . S
C827 C819 1.503 . S
C827 C826 1.370 . S
C827 C828 1.403 . S
C828 C827 1.403 . S
C828 C829 1.404 . S
C828 C831 1.539 . S
C829 C825 1.408 . S
C829 C828 1.404 . S
C829 H841 0.930 . S
C830 C826 1.524 . S
C830 H842 0.956 . S
C830 H843 0.961 . S
C830 H844 0.961 . S
C831 C828 1.539 . S
C831 H845 0.958 . S
C831 H846 0.961 . S
C831 H847 0.960 . S
H832 C816 0.931 . S
H833 C821 0.929 . S
H834 C822 0.960 . S
H835 C822 0.962 . S
H836 C822 0.960 . S
H837 C823 0.961 . S
H838 C823 0.961 . S
H839 C823 0.961 . S
H840 C824 0.931 . S
H841 C829 0.930 . S
H842 C830 0.956 . S
H843 C830 0.961 . S
H844 C830 0.961 . S
H845 C831 0.958 . S
H846 C831 0.961 . S
H847 C831 0.960 . S
C848 C849 1.391 . S
C848 C850 1.394 . S
C848 H864 0.931 . S
C849 C848 1.391 . S
C849 C853 1.376 . S
C850 C848 1.394 . S
C850 C851 1.369 . S
C850 C854 1.531 . S
C851 C850 1.369 . S
C851 C852 1.410 . S
C851 C859 1.503 . S
C852 C851 1.410 . S
C852 C853 1.392 . S
C852 C855 1.511 . S
C853 C849 1.376 . S
C853 C852 1.392 . S
C853 H865 0.929 . S
C854 C850 1.531 . S
C854 H866 0.960 . S
C854 H867 0.962 . S
C854 H868 0.960 . S
C855 C852 1.511 . S
C855 H869 0.961 . S
C855 H870 0.961 . S
C855 H871 0.961 . S
C856 C857 1.370 . S
C856 C858 1.363 . S
C856 H872 0.931 . S
C857 C856 1.370 . S
C857 C861 1.408 . S
C858 C856 1.363 . S
C858 C859 1.370 . S
C858 C862 1.524 . S
C859 C851 1.503 . S
C859 C858 1.370 . S
C859 C860 1.403 . S
C860 C859 1.403 . S
C860 C861 1.404 . S
C860 C863 1.539 . S
C861 C857 1.408 . S
C861 C860 1.404 . S
C861 H873 0.930 . S
C862 C858 1.524 . S
C862 H874 0.956 . S
C862 H875 0.961 . S
C862 H876 0.961 . S
C863 C860 1.539 . S
C863 H877 0.958 . S
C863 H878 0.961 . S
C863 H879 0.960 . S
H864 C848 0.931 . S
H865 C853 0.929 . S
H866 C854 0.960 . S
H867 C854 0.962 . S
H868 C854 0.960 . S
H869 C855 0.961 . S
H870 C855 0.961 . S
H871 C855 0.961 . S
H872 C856 0.931 . S
H873 C861 0.930 . S
H874 C862 0.956 . S
H875 C862 0.961 . S
H876 C862 0.961 . S
H877 C863 0.958 . S
H878 C863 0.961 . S
H879 C863 0.960 . S
C880 C881 1.391 . S
C880 C882 1.394 . S
C880 H896 0.931 . S
C881 C880 1.391 . S
C881 C885 1.376 . S
C882 C880 1.394 . S
C882 C883 1.369 . S
C882 C886 1.531 . S
C883 C882 1.369 . S
C883 C884 1.410 . S
C883 C891 1.503 . S
C884 C883 1.410 . S
C884 C885 1.392 . S
C884 C887 1.511 . S
C885 C881 1.376 . S
C885 C884 1.392 . S
C885 H897 0.929 . S
C886 C882 1.531 . S
C886 H898 0.960 . S
C886 H899 0.962 . S
C886 H900 0.960 . S
C887 C884 1.511 . S
C887 H901 0.961 . S
C887 H902 0.961 . S
C887 H903 0.961 . S
C888 C889 1.370 . S
C888 C890 1.363 . S
C888 H904 0.931 . S
C889 C888 1.370 . S
C889 C893 1.408 . S
C890 C888 1.363 . S
C890 C891 1.370 . S
C890 C894 1.524 . S
C891 C883 1.503 . S
C891 C890 1.370 . S
C891 C892 1.403 . S
C892 C891 1.403 . S
C892 C893 1.404 . S
C892 C895 1.539 . S
C893 C889 1.408 . S
C893 C892 1.404 . S
C893 H905 0.930 . S
C894 C890 1.524 . S
C894 H906 0.956 . S
C894 H907 0.961 . S
C894 H908 0.961 . S
C895 C892 1.539 . S
C895 H909 0.958 . S
C895 H910 0.961 . S
C895 H911 0.960 . S
H896 C880 0.931 . S
H897 C885 0.929 . S
H898 C886 0.960 . S
H899 C886 0.962 . S
H900 C886 0.960 . S
H901 C887 0.961 . S
H902 C887 0.961 . S
H903 C887 0.961 . S
H904 C888 0.931 . S
H905 C893 0.930 . S
H906 C894 0.956 . S
H907 C894 0.961 . S
H908 C894 0.961 . S
H909 C895 0.958 . S
H910 C895 0.961 . S
H911 C895 0.960 . S
C912 C913 1.391 . S
C912 C914 1.394 . S
C912 H928 0.931 . S
C913 C912 1.391 . S
C913 C917 1.376 . S
C914 C912 1.394 . S
C914 C915 1.369 . S
C914 C918 1.531 . S
C915 C914 1.369 . S
C915 C916 1.410 . S
C915 C923 1.503 . S
C916 C915 1.410 . S
C916 C917 1.392 . S
C916 C919 1.511 . S
C917 C913 1.376 . S
C917 C916 1.392 . S
C917 H929 0.929 . S
C918 C914 1.531 . S
C918 H930 0.960 . S
C918 H931 0.962 . S
C918 H932 0.960 . S
C919 C916 1.511 . S
C919 H933 0.961 . S
C919 H934 0.961 . S
C919 H935 0.961 . S
C920 C921 1.370 . S
C920 C922 1.363 . S
C920 H936 0.931 . S
C921 C920 1.370 . S
C921 C925 1.408 . S
C922 C920 1.363 . S
C922 C923 1.370 . S
C922 C926 1.524 . S
C923 C915 1.503 . S
C923 C922 1.370 . S
C923 C924 1.403 . S
C924 C923 1.403 . S
C924 C925 1.404 . S
C924 C927 1.539 . S
C925 C921 1.408 . S
C925 C924 1.404 . S
C925 H937 0.930 . S
C926 C922 1.524 . S
C926 H938 0.956 . S
C926 H939 0.961 . S
C926 H940 0.961 . S
C927 C924 1.539 . S
C927 H941 0.958 . S
C927 H942 0.961 . S
C927 H943 0.960 . S
H928 C912 0.931 . S
H929 C917 0.929 . S
H930 C918 0.960 . S
H931 C918 0.962 . S
H932 C918 0.960 . S
H933 C919 0.961 . S
H934 C919 0.961 . S
H935 C919 0.961 . S
H936 C920 0.931 . S
H937 C925 0.930 . S
H938 C926 0.956 . S
H939 C926 0.961 . S
H940 C926 0.961 . S
H941 C927 0.958 . S
H942 C927 0.961 . S
H943 C927 0.960 . S
C944 C945 1.391 . S
C944 C946 1.394 . S
C944 H960 0.931 . S
C945 C944 1.391 . S
C945 C949 1.376 . S
C946 C944 1.394 . S
C946 C947 1.369 . S
C946 C950 1.531 . S
C947 C946 1.369 . S
C947 C948 1.410 . S
C947 C955 1.503 . S
C948 C947 1.410 . S
C948 C949 1.392 . S
C948 C951 1.511 . S
C949 C945 1.376 . S
C949 C948 1.392 . S
C949 H961 0.929 . S
C950 C946 1.531 . S
C950 H962 0.960 . S
C950 H963 0.962 . S
C950 H964 0.960 . S
C951 C948 1.511 . S
C951 H965 0.961 . S
C951 H966 0.961 . S
C951 H967 0.961 . S
C952 C953 1.370 . S
C952 C954 1.363 . S
C952 H968 0.931 . S
C953 C952 1.370 . S
C953 C957 1.408 . S
C954 C952 1.363 . S
C954 C955 1.370 . S
C954 C958 1.524 . S
C955 C947 1.503 . S
C955 C954 1.370 . S
C955 C956 1.403 . S
C956 C955 1.403 . S
C956 C957 1.404 . S
C956 C959 1.539 . S
C957 C953 1.408 . S
C957 C956 1.404 . S
C957 H969 0.930 . S
C958 C954 1.524 . S
C958 H970 0.956 . S
C958 H971 0.961 . S
C958 H972 0.961 . S
C959 C956 1.539 . S
C959 H973 0.958 . S
C959 H974 0.961 . S
C959 H975 0.960 . S
H960 C944 0.931 . S
H961 C949 0.929 . S
H962 C950 0.960 . S
H963 C950 0.962 . S
H964 C950 0.960 . S
H965 C951 0.961 . S
H966 C951 0.961 . S
H967 C951 0.961 . S
H968 C952 0.931 . S
H969 C957 0.930 . S
H970 C958 0.956 . S
H971 C958 0.961 . S
H972 C958 0.961 . S
H973 C959 0.958 . S
H974 C959 0.961 . S
H975 C959 0.960 . S
C976 C977 1.391 . S
C976 C978 1.394 . S
C976 H992 0.931 . S
C977 C976 1.391 . S
C977 C981 1.376 . S
C978 C976 1.394 . S
C978 C979 1.369 . S
C978 C982 1.531 . S
C979 C978 1.369 . S
C979 C980 1.410 . S
C979 C987 1.503 . S
C980 C979 1.410 . S
C980 C981 1.392 . S
C980 C983 1.511 . S
C981 C977 1.376 . S
C981 C980 1.392 . S
C981 H993 0.929 . S
C982 C978 1.531 . S
C982 H994 0.960 . S
C982 H995 0.962 . S
C982 H996 0.960 . S
C983 C980 1.511 . S
C983 H997 0.961 . S
C983 H998 0.961 . S
C983 H999 0.961 . S
C984 C985 1.370 . S
C984 C986 1.363 . S
C984 H1000 0.931 . S
C985 C984 1.370 . S
C985 C989 1.408 . S
C986 C984 1.363 . S
C986 C987 1.370 . S
C986 C990 1.524 . S
C987 C979 1.503 . S
C987 C986 1.370 . S
C987 C988 1.403 . S
C988 C987 1.403 . S
C988 C989 1.404 . S
C988 C991 1.539 . S
C989 C985 1.408 . S
C989 C988 1.404 . S
C989 H1001 0.930 . S
C990 C986 1.524 . S
C990 H1002 0.956 . S
C990 H1003 0.961 . S
C990 H1004 0.961 . S
C991 C988 1.539 . S
C991 H1005 0.958 . S
C991 H1006 0.961 . S
C991 H1007 0.960 . S
H992 C976 0.931 . S
H993 C981 0.929 . S
H994 C982 0.960 . S
H995 C982 0.962 . S
H996 C982 0.960 . S
H997 C983 0.961 . S
H998 C983 0.961 . S
H999 C983 0.961 . S
H1000 C984 0.931 . S
H1001 C989 0.930 . S
H1002 C990 0.956 . S
H1003 C990 0.961 . S
H1004 C990 0.961 . S
H1005 C991 0.958 . S
H1006 C991 0.961 . S
H1007 C991 0.960 . S
C1008 C1009 1.391 . S
C1008 C1010 1.394 . S
C1008 H1024 0.931 . S
C1009 C1008 1.391 . S
C1009 C1013 1.376 . S
C1010 C1008 1.394 . S
C1010 C1011 1.369 . S
C1010 C1014 1.531 . S
C1011 C1010 1.369 . S
C1011 C1012 1.410 . S
C1011 C1019 1.503 . S
C1012 C1011 1.410 . S
C1012 C1013 1.392 . S
C1012 C1015 1.511 . S
C1013 C1009 1.376 . S
C1013 C1012 1.392 . S
C1013 H1025 0.929 . S
C1014 C1010 1.531 . S
C1014 H1026 0.960 . S
C1014 H1027 0.962 . S
C1014 H1028 0.960 . S
C1015 C1012 1.511 . S
C1015 H1029 0.961 . S
C1015 H1030 0.961 . S
C1015 H1031 0.961 . S
C1016 C1017 1.370 . S
C1016 C1018 1.363 . S
C1016 H1032 0.931 . S
C1017 C1016 1.370 . S
C1017 C1021 1.408 . S
C1018 C1016 1.363 . S
C1018 C1019 1.370 . S
C1018 C1022 1.524 . S
C1019 C1011 1.503 . S
C1019 C1018 1.370 . S
C1019 C1020 1.403 . S
C1020 C1019 1.403 . S
C1020 C1021 1.404 . S
C1020 C1023 1.539 . S
C1021 C1017 1.408 . S
C1021 C1020 1.404 . S
C1021 H1033 0.930 . S
C1022 C1018 1.524 . S
C1022 H1034 0.956 . S
C1022 H1035 0.961 . S
C1022 H1036 0.961 . S
C1023 C1020 1.539 . S
C1023 H1037 0.958 . S
C1023 H1038 0.961 . S
C1023 H1039 0.960 . S
H1024 C1008 0.931 . S
H1025 C1013 0.929 . S
H1026 C1014 0.960 . S
H1027 C1014 0.962 . S
H1028 C1014 0.960 . S
H1029 C1015 0.961 . S
H1030 C1015 0.961 . S
H1031 C1015 0.961 . S
H1032 C1016 0.931 . S
H1033 C1021 0.930 . S
H1034 C1022 0.956 . S
H1035 C1022 0.961 . S
H1036 C1022 0.961 . S
H1037 C1023 0.958 . S
H1038 C1023 0.961 . S
H1039 C1023 0.960 . S
C1040 C1041 1.391 . S
C1040 C1042 1.394 . S
C1040 H1056 0.931 . S
C1041 C1040 1.391 . S
C1041 C1045 1.376 . S
C1042 C1040 1.394 . S
C1042 C1043 1.369 . S
C1042 C1046 1.531 . S
C1043 C1042 1.369 . S
C1043 C1044 1.410 . S
C1043 C1051 1.503 . S
C1044 C1043 1.410 . S
C1044 C1045 1.392 . S
C1044 C1047 1.511 . S
C1045 C1041 1.376 . S
C1045 C1044 1.392 . S
C1045 H1057 0.929 . S
C1046 C1042 1.531 . S
C1046 H1058 0.960 . S
C1046 H1059 0.962 . S
C1046 H1060 0.960 . S
C1047 C1044 1.511 . S
C1047 H1061 0.961 . S
C1047 H1062 0.961 . S
C1047 H1063 0.961 . S
C1048 C1049 1.370 . S
C1048 C1050 1.363 . S
C1048 H1064 0.931 . S
C1049 C1048 1.370 . S
C1049 C1053 1.408 . S
C1050 C1048 1.363 . S
C1050 C1051 1.370 . S
C1050 C1054 1.524 . S
C1051 C1043 1.503 . S
C1051 C1050 1.370 . S
C1051 C1052 1.403 . S
C1052 C1051 1.403 . S
C1052 C1053 1.404 . S
C1052 C1055 1.539 . S
C1053 C1049 1.408 . S
C1053 C1052 1.404 . S
C1053 H1065 0.930 . S
C1054 C1050 1.524 . S
C1054 H1066 0.956 . S
C1054 H1067 0.961 . S
C1054 H1068 0.961 . S
C1055 C1052 1.539 . S
C1055 H1069 0.958 . S
C1055 H1070 0.961 . S
C1055 H1071 0.960 . S
H1056 C1040 0.931 . S
H1057 C1045 0.929 . S
H1058 C1046 0.960 . S
H1059 C1046 0.962 . S
H1060 C1046 0.960 . S
H1061 C1047 0.961 . S
H1062 C1047 0.961 . S
H1063 C1047 0.961 . S
H1064 C1048 0.931 . S
H1065 C1053 0.930 . S
H1066 C1054 0.956 . S
H1067 C1054 0.961 . S
H1068 C1054 0.961 . S
H1069 C1055 0.958 . S
H1070 C1055 0.961 . S
H1071 C1055 0.960 . S
C1072 C1073 1.391 . S
C1072 C1074 1.394 . S
C1072 H1088 0.931 . S
C1073 C1072 1.391 . S
C1073 C1077 1.376 . S
C1074 C1072 1.394 . S
C1074 C1075 1.369 . S
C1074 C1078 1.531 . S
C1075 C1074 1.369 . S
C1075 C1076 1.410 . S
C1075 C1083 1.503 . S
C1076 C1075 1.410 . S
C1076 C1077 1.392 . S
C1076 C1079 1.511 . S
C1077 C1073 1.376 . S
C1077 C1076 1.392 . S
C1077 H1089 0.929 . S
C1078 C1074 1.531 . S
C1078 H1090 0.960 . S
C1078 H1091 0.962 . S
C1078 H1092 0.960 . S
C1079 C1076 1.511 . S
C1079 H1093 0.961 . S
C1079 H1094 0.961 . S
C1079 H1095 0.961 . S
C1080 C1081 1.370 . S
C1080 C1082 1.363 . S
C1080 H1096 0.931 . S
C1081 C1080 1.370 . S
C1081 C1085 1.408 . S
C1082 C1080 1.363 . S
C1082 C1083 1.370 . S
C1082 C1086 1.524 . S
C1083 C1075 1.503 . S
C1083 C1082 1.370 . S
C1083 C1084 1.403 . S
C1084 C1083 1.403 . S
C1084 C1085 1.404 . S
C1084 C1087 1.539 . S
C1085 C1081 1.408 . S
C1085 C1084 1.404 . S
C1085 H1097 0.930 . S
C1086 C1082 1.524 . S
C1086 H1098 0.956 . S
C1086 H1099 0.961 . S
C1086 H1100 0.961 . S
C1087 C1084 1.539 . S
C1087 H1101 0.958 . S
C1087 H1102 0.961 . S
C1087 H1103 0.960 . S
H1088 C1072 0.931 . S
H1089 C1077 0.929 . S
H1090 C1078 0.960 . S
H1091 C1078 0.962 . S
H1092 C1078 0.960 . S
H1093 C1079 0.961 . S
H1094 C1079 0.961 . S
H1095 C1079 0.961 . S
H1096 C1080 0.931 . S
H1097 C1085 0.930 . S
H1098 C1086 0.956 . S
H1099 C1086 0.961 . S
H1100 C1086 0.961 . S
H1101 C1087 0.958 . S
H1102 C1087 0.961 . S
H1103 C1087 0.960 . S
C1104 C1105 1.391 . S
C1104 C1106 1.394 . S
C1104 H1120 0.931 . S
C1105 C1104 1.391 . S
C1105 C1109 1.376 . S
C1106 C1104 1.394 . S
C1106 C1107 1.369 . S
C1106 C1110 1.531 . S
C1107 C1106 1.369 . S
C1107 C1108 1.410 . S
C1107 C1115 1.503 . S
C1108 C1107 1.410 . S
C1108 C1109 1.392 . S
C1108 C1111 1.511 . S
C1109 C1105 1.376 . S
C1109 C1108 1.392 . S
C1109 H1121 0.929 . S
C1110 C1106 1.531 . S
C1110 H1122 0.960 . S
C1110 H1123 0.962 . S
C1110 H1124 0.960 . S
C1111 C1108 1.511 . S
C1111 H1125 0.961 . S
C1111 H1126 0.961 . S
C1111 H1127 0.961 . S
C1112 C1113 1.370 . S
C1112 C1114 1.363 . S
C1112 H1128 0.931 . S
C1113 C1112 1.370 . S
C1113 C1117 1.408 . S
C1114 C1112 1.363 . S
C1114 C1115 1.370 . S
C1114 C1118 1.524 . S
C1115 C1107 1.503 . S
C1115 C1114 1.370 . S
C1115 C1116 1.403 . S
C1116 C1115 1.403 . S
C1116 C1117 1.404 . S
C1116 C1119 1.539 . S
C1117 C1113 1.408 . S
C1117 C1116 1.404 . S
C1117 H1129 0.930 . S
C1118 C1114 1.524 . S
C1118 H1130 0.956 . S
C1118 H1131 0.961 . S
C1118 H1132 0.961 . S
C1119 C1116 1.539 . S
C1119 H1133 0.958 . S
C1119 H1134 0.961 . S
C1119 H1135 0.960 . S
H1120 C1104 0.931 . S
H1121 C1109 0.929 . S
H1122 C1110 0.960 . S
H1123 C1110 0.962 . S
H1124 C1110 0.960 . S
H1125 C1111 0.961 . S
H1126 C1111 0.961 . S
H1127 C1111 0.961 . S
H1128 C1112 0.931 . S
H1129 C1117 0.930 . S
H1130 C1118 0.956 . S
H1131 C1118 0.961 . S
H1132 C1118 0.961 . S
H1133 C1119 0.958 . S
H1134 C1119 0.961 . S
H1135 C1119 0.960 . S
C1136 C1137 1.391 . S
C1136 C1138 1.394 . S
C1136 H1152 0.931 . S
C1137 C1136 1.391 . S
C1137 C1141 1.376 . S
C1138 C1136 1.394 . S
C1138 C1139 1.369 . S
C1138 C1142 1.531 . S
C1139 C1138 1.369 . S
C1139 C1140 1.410 . S
C1139 C1147 1.503 . S
C1140 C1139 1.410 . S
C1140 C1141 1.392 . S
C1140 C1143 1.511 . S
C1141 C1137 1.376 . S
C1141 C1140 1.392 . S
C1141 H1153 0.929 . S
C1142 C1138 1.531 . S
C1142 H1154 0.960 . S
C1142 H1155 0.962 . S
C1142 H1156 0.960 . S
C1143 C1140 1.511 . S
C1143 H1157 0.961 . S
C1143 H1158 0.961 . S
C1143 H1159 0.961 . S
C1144 C1145 1.370 . S
C1144 C1146 1.363 . S
C1144 H1160 0.931 . S
C1145 C1144 1.370 . S
C1145 C1149 1.408 . S
C1146 C1144 1.363 . S
C1146 C1147 1.370 . S
C1146 C1150 1.524 . S
C1147 C1139 1.503 . S
C1147 C1146 1.370 . S
C1147 C1148 1.403 . S
C1148 C1147 1.403 . S
C1148 C1149 1.404 . S
C1148 C1151 1.539 . S
C1149 C1145 1.408 . S
C1149 C1148 1.404 . S
C1149 H1161 0.930 . S
C1150 C1146 1.524 . S
C1150 H1162 0.956 . S
C1150 H1163 0.961 . S
C1150 H1164 0.961 . S
C1151 C1148 1.539 . S
C1151 H1165 0.958 . S
C1151 H1166 0.961 . S
C1151 H1167 0.960 . S
H1152 C1136 0.931 . S
H1153 C1141 0.929 . S
H1154 C1142 0.960 . S
H1155 C1142 0.962 . S
H1156 C1142 0.960 . S
H1157 C1143 0.961 . S
H1158 C1143 0.961 . S
H1159 C1143 0.961 . S
H1160 C1144 0.931 . S
H1161 C1149 0.930 . S
H1162 C1150 0.956 . S
H1163 C1150 0.961 . S
H1164 C1150 0.961 . S
H1165 C1151 0.958 . S
H1166 C1151 0.961 . S
H1167 C1151 0.960 . S
C1168 C1169 1.391 . S
C1168 C1170 1.394 . S
C1168 H1184 0.931 . S
C1169 C1168 1.391 . S
C1169 C1173 1.376 . S
C1170 C1168 1.394 . S
C1170 C1171 1.369 . S
C1170 C1174 1.531 . S
C1171 C1170 1.369 . S
C1171 C1172 1.410 . S
C1171 C1179 1.503 . S
C1172 C1171 1.410 . S
C1172 C1173 1.392 . S
C1172 C1175 1.511 . S
C1173 C1169 1.376 . S
C1173 C1172 1.392 . S
C1173 H1185 0.929 . S
C1174 C1170 1.531 . S
C1174 H1186 0.960 . S
C1174 H1187 0.962 . S
C1174 H1188 0.960 . S
C1175 C1172 1.511 . S
C1175 H1189 0.961 . S
C1175 H1190 0.961 . S
C1175 H1191 0.961 . S
C1176 C1177 1.370 . S
C1176 C1178 1.363 . S
C1176 H1192 0.931 . S
C1177 C1176 1.370 . S
C1177 C1181 1.408 . S
C1178 C1176 1.363 . S
C1178 C1179 1.370 . S
C1178 C1182 1.524 . S
C1179 C1171 1.503 . S
C1179 C1178 1.370 . S
C1179 C1180 1.403 . S
C1180 C1179 1.403 . S
C1180 C1181 1.404 . S
C1180 C1183 1.539 . S
C1181 C1177 1.408 . S
C1181 C1180 1.404 . S
C1181 H1193 0.930 . S
C1182 C1178 1.524 . S
C1182 H1194 0.956 . S
C1182 H1195 0.961 . S
C1182 H1196 0.961 . S
C1183 C1180 1.539 . S
C1183 H1197 0.958 . S
C1183 H1198 0.961 . S
C1183 H1199 0.960 . S
H1184 C1168 0.931 . S
H1185 C1173 0.929 . S
H1186 C1174 0.960 . S
H1187 C1174 0.962 . S
H1188 C1174 0.960 . S
H1189 C1175 0.961 . S
H1190 C1175 0.961 . S
H1191 C1175 0.961 . S
H1192 C1176 0.931 . S
H1193 C1181 0.930 . S
H1194 C1182 0.956 . S
H1195 C1182 0.961 . S
H1196 C1182 0.961 . S
H1197 C1183 0.958 . S
H1198 C1183 0.961 . S
H1199 C1183 0.960 . S
C1200 C1201 1.391 . S
C1200 C1202 1.394 . S
C1200 H1216 0.931 . S
C1201 C1200 1.391 . S
C1201 C1205 1.376 . S
C1202 C1200 1.394 . S
C1202 C1203 1.369 . S
C1202 C1206 1.531 . S
C1203 C1202 1.369 . S
C1203 C1204 1.410 . S
C1203 C1211 1.503 . S
C1204 C1203 1.410 . S
C1204 C1205 1.392 . S
C1204 C1207 1.511 . S
C1205 C1201 1.376 . S
C1205 C1204 1.392 . S
C1205 H1217 0.929 . S
C1206 C1202 1.531 . S
C1206 H1218 0.960 . S
C1206 H1219 0.962 . S
C1206 H1220 0.960 . S
C1207 C1204 1.511 . S
C1207 H1221 0.961 . S
C1207 H1222 0.961 . S
C1207 H1223 0.961 . S
C1208 C1209 1.370 . S
C1208 C1210 1.363 . S
C1208 H1224 0.931 . S
C1209 C1208 1.370 . S
C1209 C1213 1.408 . S
C1210 C1208 1.363 . S
C1210 C1211 1.370 1_545 S
C1210 C1214 1.524 1_545 S
C1211 C1203 1.503 . S
C1211 C1210 1.370 1_565 S
C1211 C1212 1.403 1_565 S
C1212 C1211 1.403 1_545 S
C1212 C1213 1.404 . S
C1212 C1215 1.547 . S
C1213 C1209 1.408 . S
C1213 C1212 1.404 . S
C1213 H1225 0.930 . S
C1214 C1210 1.524 1_565 S
C1214 H1226 0.956 . S
C1214 H1227 0.961 . S
C1214 H1228 0.961 . S
C1215 C1212 1.547 . S
C1215 H1229 0.956 1_545 S
C1215 H1230 0.976 . S
C1215 H1231 0.940 1_545 S
H1216 C1200 0.931 . S
H1217 C1205 0.929 . S
H1218 C1206 0.960 . S
H1219 C1206 0.962 . S
H1220 C1206 0.960 . S
H1221 C1207 0.961 . S
H1222 C1207 0.961 . S
H1223 C1207 0.961 . S
H1224 C1208 0.931 . S
H1225 C1213 0.930 . S
H1226 C1214 0.956 . S
H1227 C1214 0.961 . S
H1228 C1214 0.961 . S
H1229 C1215 0.956 1_565 S
H1230 C1215 0.976 . S
H1231 C1215 0.940 1_565 S
C1232 C1233 1.391 . S
C1232 C1234 1.394 . S
C1232 H1248 0.931 . S
C1233 C1232 1.391 . S
C1233 C1237 1.376 . S
C1234 C1232 1.394 . S
C1234 C1235 1.369 1_655 S
C1234 C1238 1.531 1_655 S
C1235 C1234 1.369 1_455 S
C1235 C1236 1.410 1_455 S
C1235 C1243 1.503 . S
C1236 C1235 1.410 1_655 S
C1236 C1237 1.392 . S
C1236 C1239 1.511 1_655 S
C1237 C1233 1.376 . S
C1237 C1236 1.392 . S
C1237 H1249 0.929 . S
C1238 C1234 1.531 1_455 S
C1238 H1250 0.960 . S
C1238 H1251 0.962 . S
C1238 H1252 0.960 1_455 S
C1239 C1236 1.511 1_455 S
C1239 H1253 0.961 1_455 S
C1239 H1254 0.961 . S
C1239 H1255 0.961 . S
C1240 C1241 1.370 . S
C1240 C1242 1.363 . S
C1240 H1256 0.931 . S
C1241 C1240 1.370 . S
C1241 C1245 1.408 . S
C1242 C1240 1.363 . S
C1242 C1243 1.370 . S
C1242 C1246 1.524 . S
C1243 C1235 1.503 . S
C1243 C1242 1.370 . S
C1243 C1244 1.403 . S
C1244 C1243 1.403 . S
C1244 C1245 1.404 . S
C1244 C1247 1.539 . S
C1245 C1241 1.408 . S
C1245 C1244 1.404 . S
C1245 H1257 0.930 . S
C1246 C1242 1.524 . S
C1246 H1258 0.956 . S
C1246 H1259 0.961 . S
C1246 H1260 0.961 . S
C1247 C1244 1.539 . S
C1247 H1261 0.958 . S
C1247 H1262 0.961 . S
C1247 H1263 0.960 . S
H1248 C1232 0.931 . S
H1249 C1237 0.929 . S
H1250 C1238 0.960 . S
H1251 C1238 0.962 . S
H1252 C1238 0.960 1_655 S
H1253 C1239 0.961 1_655 S
H1254 C1239 0.961 . S
H1255 C1239 0.961 . S
H1256 C1240 0.931 . S
H1257 C1245 0.930 . S
H1258 C1246 0.956 . S
H1259 C1246 0.961 . S
H1260 C1246 0.961 . S
H1261 C1247 0.958 . S
H1262 C1247 0.961 . S
H1263 C1247 0.960 . S
C1264 C1265 1.391 . S
C1264 C1266 1.394 . S
C1264 H1280 0.931 . S
C1265 C1264 1.391 . S
C1265 C1269 1.376 . S
C1266 C1264 1.394 . S
C1266 C1267 1.369 1_565 S
C1266 C1270 1.531 1_565 S
C1267 C1266 1.369 1_545 S
C1267 C1268 1.410 1_545 S
C1267 C1275 1.503 . S
C1268 C1267 1.410 1_565 S
C1268 C1269 1.392 . S
C1268 C1271 1.511 1_565 S
C1269 C1265 1.376 . S
C1269 C1268 1.392 . S
C1269 H1281 0.929 . S
C1270 C1266 1.531 1_545 S
C1270 H1282 0.960 . S
C1270 H1283 0.962 . S
C1270 H1284 0.960 1_545 S
C1271 C1268 1.511 1_545 S
C1271 H1285 0.960 . S
C1271 H1286 0.961 . S
C1271 H1287 0.961 . S
C1272 C1273 1.370 . S
C1272 C1274 1.363 . S
C1272 H1288 0.931 . S
C1273 C1272 1.370 . S
C1273 C1277 1.408 . S
C1274 C1272 1.363 . S
C1274 C1275 1.370 . S
C1274 C1278 1.524 . S
C1275 C1267 1.503 . S
C1275 C1274 1.370 . S
C1275 C1276 1.403 . S
C1276 C1275 1.403 . S
C1276 C1277 1.404 . S
C1276 C1279 1.539 . S
C1277 C1273 1.408 . S
C1277 C1276 1.404 . S
C1277 H1289 0.930 . S
C1278 C1274 1.524 . S
C1278 H1290 0.956 . S
C1278 H1291 0.961 . S
C1278 H1292 0.961 . S
C1279 C1276 1.539 . S
C1279 H1293 0.958 . S
C1279 H1294 0.961 . S
C1279 H1295 0.960 . S
H1280 C1264 0.931 . S
H1281 C1269 0.929 . S
H1282 C1270 0.960 . S
H1283 C1270 0.962 . S
H1284 C1270 0.960 1_565 S
H1285 C1271 0.960 . S
H1286 C1271 0.961 . S
H1287 C1271 0.961 . S
H1288 C1272 0.931 . S
H1289 C1277 0.930 . S
H1290 C1278 0.956 . S
H1291 C1278 0.961 . S
H1292 C1278 0.961 . S
H1293 C1279 0.958 . S
H1294 C1279 0.961 . S
H1295 C1279 0.960 . S
C1296 C1297 1.391 . S
C1296 C1298 1.394 . S
C1296 H1312 0.931 . S
C1297 C1296 1.391 . S
C1297 C1301 1.376 . S
C1298 C1296 1.394 . S
C1298 C1299 1.369 . S
C1298 C1302 1.531 . S
C1299 C1298 1.369 . S
C1299 C1300 1.410 . S
C1299 C1307 1.503 . S
C1300 C1299 1.410 . S
C1300 C1301 1.392 . S
C1300 C1303 1.511 . S
C1301 C1297 1.376 . S
C1301 C1300 1.392 . S
C1301 H1313 0.929 . S
C1302 C1298 1.531 . S
C1302 H1314 0.960 . S
C1302 H1315 0.962 . S
C1302 H1316 0.960 . S
C1303 C1300 1.511 . S
C1303 H1317 0.961 . S
C1303 H1318 0.961 . S
C1303 H1319 0.961 . S
C1304 C1305 1.370 . S
C1304 C1306 1.363 . S
C1304 H1320 0.931 . S
C1305 C1304 1.370 . S
C1305 C1309 1.408 . S
C1306 C1304 1.363 . S
C1306 C1307 1.370 1_455 S
C1306 C1310 1.524 1_455 S
C1307 C1299 1.503 . S
C1307 C1306 1.370 1_655 S
C1307 C1308 1.403 1_655 S
C1308 C1307 1.403 1_455 S
C1308 C1309 1.404 . S
C1308 C1311 1.539 1_455 S
C1309 C1305 1.408 . S
C1309 C1308 1.404 . S
C1309 H1321 0.930 . S
C1310 C1306 1.524 1_655 S
C1310 H1322 0.956 . S
C1310 H1323 0.961 . S
C1310 H1324 0.961 1_655 S
C1311 C1308 1.539 1_655 S
C1311 H1325 0.958 . S
C1311 H1326 0.961 1_655 S
C1311 H1327 0.960 . S
H1312 C1296 0.931 . S
H1313 C1301 0.929 . S
H1314 C1302 0.960 . S
H1315 C1302 0.962 . S
H1316 C1302 0.960 . S
H1317 C1303 0.961 . S
H1318 C1303 0.961 . S
H1319 C1303 0.961 . S
H1320 C1304 0.931 . S
H1321 C1309 0.930 . S
H1322 C1310 0.956 . S
H1323 C1310 0.961 . S
H1324 C1310 0.961 1_455 S
H1325 C1311 0.958 . S
H1326 C1311 0.961 1_455 S
H1327 C1311 0.960 . S
C1328 C1329 1.391 . S
C1328 C1330 1.394 . S
C1328 H1344 0.931 . S
C1329 C1328 1.391 . S
C1329 C1333 1.376 . S
C1330 C1328 1.394 . S
C1330 C1331 1.369 . S
C1330 C1334 1.531 . S
C1331 C1330 1.369 . S
C1331 C1332 1.410 . S
C1331 C1339 1.503 . S
C1332 C1331 1.410 . S
C1332 C1333 1.392 . S
C1332 C1335 1.511 . S
C1333 C1329 1.376 . S
C1333 C1332 1.392 . S
C1333 H1345 0.929 . S
C1334 C1330 1.531 . S
C1334 H1346 0.960 . S
C1334 H1347 0.962 . S
C1334 H1348 0.960 . S
C1335 C1332 1.511 . S
C1335 H1349 0.961 . S
C1335 H1350 0.961 . S
C1335 H1351 0.961 . S
C1336 C1337 1.370 . S
C1336 C1338 1.363 . S
C1336 H1352 0.931 . S
C1337 C1336 1.370 . S
C1337 C1341 1.408 . S
C1338 C1336 1.363 . S
C1338 C1339 1.370 1_565 S
C1338 C1342 1.524 1_565 S
C1339 C1331 1.503 . S
C1339 C1338 1.370 1_545 S
C1339 C1340 1.403 1_545 S
C1340 C1339 1.403 1_565 S
C1340 C1341 1.404 . S
C1340 C1343 1.550 . S
C1341 C1337 1.408 . S
C1341 C1340 1.404 . S
C1341 H1353 0.930 . S
C1342 C1338 1.524 1_545 S
C1342 H1354 0.956 . S
C1342 H1355 0.961 . S
C1342 H1356 0.961 . S
C1343 C1340 1.550 . S
C1343 H1357 0.954 1_565 S
C1343 H1358 0.981 . S
C1343 H1359 0.932 1_565 S
H1344 C1328 0.931 . S
H1345 C1333 0.929 . S
H1346 C1334 0.960 . S
H1347 C1334 0.962 . S
H1348 C1334 0.960 . S
H1349 C1335 0.961 . S
H1350 C1335 0.961 . S
H1351 C1335 0.961 . S
H1352 C1336 0.931 . S
H1353 C1341 0.930 . S
H1354 C1342 0.956 . S
H1355 C1342 0.961 . S
H1356 C1342 0.961 . S
H1357 C1343 0.954 1_545 S
H1358 C1343 0.981 . S
H1359 C1343 0.932 1_545 S
C1360 C1361 1.391 . S
C1360 C1362 1.394 . S
C1360 H1376 0.931 . S
C1361 C1360 1.391 . S
C1361 C1365 1.376 . S
C1362 C1360 1.394 . S
C1362 C1363 1.369 1_455 S
C1362 C1366 1.531 1_455 S
C1363 C1362 1.369 1_655 S
C1363 C1364 1.410 1_655 S
C1363 C1371 1.503 . S
C1364 C1363 1.410 1_455 S
C1364 C1365 1.392 . S
C1364 C1367 1.511 1_455 S
C1365 C1361 1.376 . S
C1365 C1364 1.392 . S
C1365 H1377 0.929 . S
C1366 C1362 1.531 1_655 S
C1366 H1378 0.960 . S
C1366 H1379 0.962 . S
C1366 H1380 0.960 1_655 S
C1367 C1364 1.511 1_655 S
C1367 H1381 0.961 1_655 S
C1367 H1382 0.961 . S
C1367 H1383 0.961 . S
C1368 C1369 1.370 . S
C1368 C1370 1.363 . S
C1368 H1384 0.931 . S
C1369 C1368 1.370 . S
C1369 C1373 1.408 . S
C1370 C1368 1.363 . S
C1370 C1371 1.370 . S
C1370 C1374 1.524 . S
C1371 C1363 1.503 . S
C1371 C1370 1.370 . S
C1371 C1372 1.403 . S
C1372 C1371 1.403 . S
C1372 C1373 1.404 . S
C1372 C1375 1.539 . S
C1373 C1369 1.408 . S
C1373 C1372 1.404 . S
C1373 H1385 0.930 . S
C1374 C1370 1.524 . S
C1374 H1386 0.956 . S
C1374 H1387 0.961 . S
C1374 H1388 0.961 . S
C1375 C1372 1.539 . S
C1375 H1389 0.958 . S
C1375 H1390 0.961 . S
C1375 H1391 0.960 . S
H1376 C1360 0.931 . S
H1377 C1365 0.929 . S
H1378 C1366 0.960 . S
H1379 C1366 0.962 . S
H1380 C1366 0.960 1_455 S
H1381 C1367 0.961 1_455 S
H1382 C1367 0.961 . S
H1383 C1367 0.961 . S
H1384 C1368 0.931 . S
H1385 C1373 0.930 . S
H1386 C1374 0.956 . S
H1387 C1374 0.961 . S
H1388 C1374 0.961 . S
H1389 C1375 0.958 . S
H1390 C1375 0.961 . S
H1391 C1375 0.960 . S
C1392 C1393 1.391 . S
C1392 C1394 1.394 . S
C1392 H1408 0.931 . S
C1393 C1392 1.391 . S
C1393 C1397 1.376 . S
C1394 C1392 1.394 . S
C1394 C1395 1.369 . S
C1394 C1398 1.531 . S
C1395 C1394 1.369 . S
C1395 C1396 1.410 . S
C1395 C1403 1.503 . S
C1396 C1395 1.410 . S
C1396 C1397 1.392 . S
C1396 C1399 1.511 . S
C1397 C1393 1.376 . S
C1397 C1396 1.392 . S
C1397 H1409 0.929 . S
C1398 C1394 1.531 . S
C1398 H1410 0.960 . S
C1398 H1411 0.962 . S
C1398 H1412 0.960 . S
C1399 C1396 1.511 . S
C1399 H1413 0.961 . S
C1399 H1414 0.961 . S
C1399 H1415 0.961 . S
C1400 C1401 1.370 . S
C1400 C1402 1.363 . S
C1400 H1416 0.931 . S
C1401 C1400 1.370 . S
C1401 C1405 1.408 . S
C1402 C1400 1.363 . S
C1402 C1403 1.370 1_545 S
C1402 C1406 1.524 1_545 S
C1403 C1395 1.503 . S
C1403 C1402 1.370 1_565 S
C1403 C1404 1.403 1_565 S
C1404 C1403 1.403 1_545 S
C1404 C1405 1.404 . S
C1404 C1407 1.537 . S
C1405 C1401 1.408 . S
C1405 C1404 1.404 . S
C1405 H1417 0.930 . S
C1406 C1402 1.524 1_565 S
C1406 H1418 0.956 . S
C1406 H1419 0.961 . S
C1406 H1420 0.961 . S
C1407 C1404 1.537 . S
C1407 H1421 0.958 1_545 S
C1407 H1422 0.958 . S
C1407 H1423 0.965 1_545 S
H1408 C1392 0.931 . S
H1409 C1397 0.929 . S
H1410 C1398 0.960 . S
H1411 C1398 0.962 . S
H1412 C1398 0.960 . S
H1413 C1399 0.961 . S
H1414 C1399 0.961 . S
H1415 C1399 0.961 . S
H1416 C1400 0.931 . S
H1417 C1405 0.930 . S
H1418 C1406 0.956 . S
H1419 C1406 0.961 . S
H1420 C1406 0.961 . S
H1421 C1407 0.958 1_565 S
H1422 C1407 0.958 . S
H1423 C1407 0.965 1_565 S
C1424 C1425 1.391 . S
C1424 C1426 1.394 . S
C1424 H1440 0.931 . S
C1425 C1424 1.391 . S
C1425 C1429 1.376 . S
C1426 C1424 1.394 . S
C1426 C1427 1.369 . S
C1426 C1430 1.531 . S
C1427 C1426 1.369 . S
C1427 C1428 1.410 . S
C1427 C1435 1.503 . S
C1428 C1427 1.410 . S
C1428 C1429 1.392 . S
C1428 C1431 1.511 . S
C1429 C1425 1.376 . S
C1429 C1428 1.392 . S
C1429 H1441 0.929 . S
C1430 C1426 1.531 . S
C1430 H1442 0.960 . S
C1430 H1443 0.962 . S
C1430 H1444 0.960 . S
C1431 C1428 1.511 . S
C1431 H1445 0.961 . S
C1431 H1446 0.961 . S
C1431 H1447 0.961 . S
C1432 C1433 1.370 . S
C1432 C1434 1.363 . S
C1432 H1448 0.931 . S
C1433 C1432 1.370 . S
C1433 C1437 1.408 . S
C1434 C1432 1.363 . S
C1434 C1435 1.370 1_655 S
C1434 C1438 1.524 1_655 S
C1435 C1427 1.503 . S
C1435 C1434 1.370 1_455 S
C1435 C1436 1.403 1_455 S
C1436 C1435 1.403 1_655 S
C1436 C1437 1.404 . S
C1436 C1439 1.539 1_655 S
C1437 C1433 1.408 . S
C1437 C1436 1.404 . S
C1437 H1449 0.930 . S
C1438 C1434 1.524 1_455 S
C1438 H1450 0.956 . S
C1438 H1451 0.961 . S
C1438 H1452 0.961 1_455 S
C1439 C1436 1.539 1_455 S
C1439 H1453 0.958 . S
C1439 H1454 0.961 1_455 S
C1439 H1455 0.960 . S
H1440 C1424 0.931 . S
H1441 C1429 0.929 . S
H1442 C1430 0.960 . S
H1443 C1430 0.962 . S
H1444 C1430 0.960 . S
H1445 C1431 0.961 . S
H1446 C1431 0.961 . S
H1447 C1431 0.961 . S
H1448 C1432 0.931 . S
H1449 C1437 0.930 . S
H1450 C1438 0.956 . S
H1451 C1438 0.961 . S
H1452 C1438 0.961 1_655 S
H1453 C1439 0.958 . S
H1454 C1439 0.961 1_655 S
H1455 C1439 0.960 . S
C1456 C1457 1.391 . S
C1456 C1458 1.394 . S
C1456 H1472 0.931 . S
C1457 C1456 1.391 . S
C1457 C1461 1.376 . S
C1458 C1456 1.394 . S
C1458 C1459 1.369 . S
C1458 C1462 1.531 . S
C1459 C1458 1.369 . S
C1459 C1460 1.410 . S
C1459 C1467 1.503 . S
C1460 C1459 1.410 . S
C1460 C1461 1.392 . S
C1460 C1463 1.511 . S
C1461 C1457 1.376 . S
C1461 C1460 1.392 . S
C1461 H1473 0.929 . S
C1462 C1458 1.531 . S
C1462 H1474 0.960 . S
C1462 H1475 0.962 . S
C1462 H1476 0.960 . S
C1463 C1460 1.511 . S
C1463 H1477 0.961 . S
C1463 H1478 0.961 . S
C1463 H1479 0.961 . S
C1464 C1465 1.370 . S
C1464 C1466 1.363 . S
C1464 H1480 0.931 . S
C1465 C1464 1.370 . S
C1465 C1469 1.408 . S
C1466 C1464 1.363 . S
C1466 C1467 1.370 1_554 S
C1466 C1470 1.524 1_554 S
C1467 C1459 1.503 . S
C1467 C1466 1.370 1_556 S
C1467 C1468 1.403 1_556 S
C1468 C1467 1.403 1_554 S
C1468 C1469 1.404 . S
C1468 C1471 1.539 1_554 S
C1469 C1465 1.408 . S
C1469 C1468 1.404 . S
C1469 H1481 0.930 . S
C1470 C1466 1.524 1_556 S
C1470 H1482 0.956 . S
C1470 H1483 0.961 . S
C1470 H1484 0.961 1_556 S
C1471 C1468 1.539 1_556 S
C1471 H1485 0.958 . S
C1471 H1486 0.961 1_556 S
C1471 H1487 0.960 . S
H1472 C1456 0.931 . S
H1473 C1461 0.929 . S
H1474 C1462 0.960 . S
H1475 C1462 0.962 . S
H1476 C1462 0.960 . S
H1477 C1463 0.961 . S
H1478 C1463 0.961 . S
H1479 C1463 0.961 . S
H1480 C1464 0.931 . S
H1481 C1469 0.930 . S
H1482 C1470 0.956 . S
H1483 C1470 0.961 . S
H1484 C1470 0.961 1_554 S
H1485 C1471 0.958 . S
H1486 C1471 0.961 1_554 S
H1487 C1471 0.960 . S
C1488 C1489 1.391 . S
C1488 C1490 1.394 . S
C1488 H1504 0.931 . S
C1489 C1488 1.391 . S
C1489 C1493 1.376 . S
C1490 C1488 1.394 . S
C1490 C1491 1.369 1_554 S
C1490 C1494 1.531 1_554 S
C1491 C1490 1.369 1_556 S
C1491 C1492 1.410 1_556 S
C1491 C1499 1.503 . S
C1492 C1491 1.410 1_554 S
C1492 C1493 1.392 . S
C1492 C1495 1.511 1_554 S
C1493 C1489 1.376 . S
C1493 C1492 1.392 . S
C1493 H1505 0.929 . S
C1494 C1490 1.531 1_556 S
C1494 H1506 0.960 . S
C1494 H1507 0.962 . S
C1494 H1508 0.960 1_556 S
C1495 C1492 1.511 1_556 S
C1495 H1509 0.961 1_556 S
C1495 H1510 0.961 . S
C1495 H1511 0.961 . S
C1496 C1497 1.370 . S
C1496 C1498 1.363 . S
C1496 H1512 0.931 . S
C1497 C1496 1.370 . S
C1497 C1501 1.408 . S
C1498 C1496 1.363 . S
C1498 C1499 1.370 . S
C1498 C1502 1.524 . S
C1499 C1491 1.503 . S
C1499 C1498 1.370 . S
C1499 C1500 1.403 . S
C1500 C1499 1.403 . S
C1500 C1501 1.404 . S
C1500 C1503 1.539 . S
C1501 C1497 1.408 . S
C1501 C1500 1.404 . S
C1501 H1513 0.930 . S
C1502 C1498 1.524 . S
C1502 H1514 0.956 . S
C1502 H1515 0.961 . S
C1502 H1516 0.961 . S
C1503 C1500 1.539 . S
C1503 H1517 0.958 . S
C1503 H1518 0.961 . S
C1503 H1519 0.960 . S
H1504 C1488 0.931 . S
H1505 C1493 0.929 . S
H1506 C1494 0.960 . S
H1507 C1494 0.962 . S
H1508 C1494 0.960 1_554 S
H1509 C1495 0.961 1_554 S
H1510 C1495 0.961 . S
H1511 C1495 0.961 . S
H1512 C1496 0.931 . S
H1513 C1501 0.930 . S
H1514 C1502 0.956 . S
H1515 C1502 0.961 . S
H1516 C1502 0.961 . S
H1517 C1503 0.958 . S
H1518 C1503 0.961 . S
H1519 C1503 0.960 . S
C1520 C1521 1.391 . S
C1520 C1522 1.394 . S
C1520 H1536 0.931 . S
C1521 C1520 1.391 . S
C1521 C1525 1.376 . S
C1522 C1520 1.394 . S
C1522 C1523 1.369 . S
C1522 C1526 1.531 . S
C1523 C1522 1.369 . S
C1523 C1524 1.410 . S
C1523 C1531 1.503 . S
C1524 C1523 1.410 . S
C1524 C1525 1.392 . S
C1524 C1527 1.511 . S
C1525 C1521 1.376 . S
C1525 C1524 1.392 . S
C1525 H1537 0.929 . S
C1526 C1522 1.531 . S
C1526 H1538 0.960 . S
C1526 H1539 0.962 . S
C1526 H1540 0.960 . S
C1527 C1524 1.511 . S
C1527 H1541 0.961 . S
C1527 H1542 0.961 . S
C1527 H1543 0.961 . S
C1528 C1529 1.370 . S
C1528 C1530 1.363 . S
C1528 H1544 0.931 . S
C1529 C1528 1.370 . S
C1529 C1533 1.408 . S
C1530 C1528 1.363 . S
C1530 C1531 1.370 1_554 S
C1530 C1534 1.524 1_554 S
C1531 C1523 1.503 . S
C1531 C1530 1.370 1_556 S
C1531 C1532 1.403 1_556 S
C1532 C1531 1.403 1_554 S
C1532 C1533 1.404 . S
C1532 C1535 1.539 1_554 S
C1533 C1529 1.408 . S
C1533 C1532 1.404 . S
C1533 H1545 0.930 . S
C1534 C1530 1.524 1_556 S
C1534 H1546 0.956 . S
C1534 H1547 0.961 . S
C1534 H1548 0.961 1_556 S
C1535 C1532 1.539 1_556 S
C1535 H1549 0.958 . S
C1535 H1550 0.961 1_556 S
C1535 H1551 0.960 . S
H1536 C1520 0.931 . S
H1537 C1525 0.929 . S
H1538 C1526 0.960 . S
H1539 C1526 0.962 . S
H1540 C1526 0.960 . S
H1541 C1527 0.961 . S
H1542 C1527 0.961 . S
H1543 C1527 0.961 . S
H1544 C1528 0.931 . S
H1545 C1533 0.930 . S
H1546 C1534 0.956 . S
H1547 C1534 0.961 . S
H1548 C1534 0.961 1_554 S
H1549 C1535 0.958 . S
H1550 C1535 0.961 1_554 S
H1551 C1535 0.960 . S
C1552 C1553 1.391 . S
C1552 C1554 1.394 . S
C1552 H1568 0.931 . S
C1553 C1552 1.391 . S
C1553 C1557 1.376 . S
C1554 C1552 1.394 . S
C1554 C1555 1.369 1_554 S
C1554 C1558 1.531 1_554 S
C1555 C1554 1.369 1_556 S
C1555 C1556 1.410 1_556 S
C1555 C1563 1.503 . S
C1556 C1555 1.410 1_554 S
C1556 C1557 1.392 . S
C1556 C1559 1.511 1_554 S
C1557 C1553 1.376 . S
C1557 C1556 1.392 . S
C1557 H1569 0.929 . S
C1558 C1554 1.531 1_556 S
C1558 H1570 0.960 . S
C1558 H1571 0.962 . S
C1558 H1572 0.984 . S
C1559 C1556 1.511 1_556 S
C1559 H1573 0.961 1_556 S
C1559 H1574 0.961 . S
C1559 H1575 0.961 . S
C1560 C1561 1.370 . S
C1560 C1562 1.363 . S
C1560 H1576 0.931 . S
C1561 C1560 1.370 . S
C1561 C1565 1.408 . S
C1562 C1560 1.363 . S
C1562 C1563 1.370 . S
C1562 C1566 1.524 . S
C1563 C1555 1.503 . S
C1563 C1562 1.370 . S
C1563 C1564 1.403 . S
C1564 C1563 1.403 . S
C1564 C1565 1.404 . S
C1564 C1567 1.539 . S
C1565 C1561 1.408 . S
C1565 C1564 1.404 . S
C1565 H1577 0.930 . S
C1566 C1562 1.524 . S
C1566 H1578 0.956 . S
C1566 H1579 0.961 . S
C1566 H1580 0.961 . S
C1567 C1564 1.539 . S
C1567 H1581 0.958 . S
C1567 H1582 0.961 . S
C1567 H1583 0.960 . S
H1568 C1552 0.931 . S
H1569 C1557 0.929 . S
H1570 C1558 0.960 . S
H1571 C1558 0.962 . S
H1572 C1558 0.984 . S
H1573 C1559 0.961 1_554 S
H1574 C1559 0.961 . S
H1575 C1559 0.961 . S
H1576 C1560 0.931 . S
H1577 C1565 0.930 . S
H1578 C1566 0.956 . S
H1579 C1566 0.961 . S
H1580 C1566 0.961 . S
H1581 C1567 0.958 . S
H1582 C1567 0.961 . S
H1583 C1567 0.960 . S
C1584 C1585 1.391 . S
C1584 C1586 1.394 . S
C1584 H1600 0.931 . S
C1585 C1584 1.391 . S
C1585 C1589 1.376 . S
C1586 C1584 1.394 . S
C1586 C1587 1.369 . S
C1586 C1590 1.531 . S
C1587 C1586 1.369 . S
C1587 C1588 1.410 . S
C1587 C1595 1.503 . S
C1588 C1587 1.410 . S
C1588 C1589 1.392 . S
C1588 C1591 1.511 . S
C1589 C1585 1.376 . S
C1589 C1588 1.392 . S
C1589 H1601 0.929 . S
C1590 C1586 1.531 . S
C1590 H1602 0.960 . S
C1590 H1603 0.962 . S
C1590 H1604 0.960 . S
C1591 C1588 1.511 . S
C1591 H1605 0.961 . S
C1591 H1606 0.961 . S
C1591 H1607 0.961 . S
C1592 C1593 1.370 . S
C1592 C1594 1.363 . S
C1592 H1608 0.931 . S
C1593 C1592 1.370 . S
C1593 C1597 1.408 . S
C1594 C1592 1.363 . S
C1594 C1595 1.370 1_556 S
C1594 C1598 1.524 1_556 S
C1595 C1587 1.503 . S
C1595 C1594 1.370 1_554 S
C1595 C1596 1.403 1_554 S
C1596 C1595 1.403 1_556 S
C1596 C1597 1.404 . S
C1596 C1599 1.539 1_556 S
C1597 C1593 1.408 . S
C1597 C1596 1.404 . S
C1597 H1609 0.930 . S
C1598 C1594 1.524 1_554 S
C1598 H1610 0.956 . S
C1598 H1611 0.961 . S
C1598 H1612 0.961 1_554 S
C1599 C1596 1.539 1_554 S
C1599 H1613 0.958 . S
C1599 H1614 0.961 1_554 S
C1599 H1615 0.960 . S
H1600 C1584 0.931 . S
H1601 C1589 0.929 . S
H1602 C1590 0.960 . S
H1603 C1590 0.962 . S
H1604 C1590 0.960 . S
H1605 C1591 0.961 . S
H1606 C1591 0.961 . S
H1607 C1591 0.961 . S
H1608 C1592 0.931 . S
H1609 C1597 0.930 . S
H1610 C1598 0.956 . S
H1611 C1598 0.961 . S
H1612 C1598 0.961 1_556 S
H1613 C1599 0.958 . S
H1614 C1599 0.961 1_556 S
H1615 C1599 0.960 . S
C1616 C1617 1.391 . S
C1616 C1618 1.394 . S
C1616 H1632 0.931 . S
C1617 C1616 1.391 . S
C1617 C1621 1.376 . S
C1618 C1616 1.394 . S
C1618 C1619 1.369 1_556 S
C1618 C1622 1.531 1_556 S
C1619 C1618 1.369 1_554 S
C1619 C1620 1.410 1_554 S
C1619 C1627 1.503 . S
C1620 C1619 1.410 1_556 S
C1620 C1621 1.392 . S
C1620 C1623 1.511 1_556 S
C1621 C1617 1.376 . S
C1621 C1620 1.392 . S
C1621 H1633 0.929 . S
C1622 C1618 1.531 1_554 S
C1622 H1634 0.960 . S
C1622 H1635 0.962 . S
C1622 H1636 0.960 1_554 S
C1623 C1620 1.511 1_554 S
C1623 H1637 0.983 . S
C1623 H1638 0.961 . S
C1623 H1639 0.961 . S
C1624 C1625 1.370 . S
C1624 C1626 1.363 . S
C1624 H1640 0.931 . S
C1625 C1624 1.370 . S
C1625 C1629 1.408 . S
C1626 C1624 1.363 . S
C1626 C1627 1.370 . S
C1626 C1630 1.524 . S
C1627 C1619 1.503 . S
C1627 C1626 1.370 . S
C1627 C1628 1.403 . S
C1628 C1627 1.403 . S
C1628 C1629 1.404 . S
C1628 C1631 1.539 . S
C1629 C1625 1.408 . S
C1629 C1628 1.404 . S
C1629 H1641 0.930 . S
C1630 C1626 1.524 . S
C1630 H1642 0.956 . S
C1630 H1643 0.961 . S
C1630 H1644 0.961 . S
C1631 C1628 1.539 . S
C1631 H1645 0.958 . S
C1631 H1646 0.961 . S
C1631 H1647 0.960 . S
H1632 C1616 0.931 . S
H1633 C1621 0.929 . S
H1634 C1622 0.960 . S
H1635 C1622 0.962 . S
H1636 C1622 0.960 1_556 S
H1637 C1623 0.983 . S
H1638 C1623 0.961 . S
H1639 C1623 0.961 . S
H1640 C1624 0.931 . S
H1641 C1629 0.930 . S
H1642 C1630 0.956 . S
H1643 C1630 0.961 . S
H1644 C1630 0.961 . S
H1645 C1631 0.958 . S
H1646 C1631 0.961 . S
H1647 C1631 0.960 . S
C1648 C1649 1.391 . S
C1648 C1650 1.394 . S
C1648 H1664 0.931 . S
C1649 C1648 1.391 . S
C1649 C1653 1.376 . S
C1650 C1648 1.394 . S
C1650 C1651 1.369 . S
C1650 C1654 1.531 . S
C1651 C1650 1.369 . S
C1651 C1652 1.410 . S
C1651 C1659 1.503 . S
C1652 C1651 1.410 . S
C1652 C1653 1.392 . S
C1652 C1655 1.511 . S
C1653 C1649 1.376 . S
C1653 C1652 1.392 . S
C1653 H1665 0.929 . S
C1654 C1650 1.531 . S
C1654 H1666 0.960 . S
C1654 H1667 0.962 . S
C1654 H1668 0.960 . S
C1655 C1652 1.511 . S
C1655 H1669 0.961 . S
C1655 H1670 0.961 . S
C1655 H1671 0.961 . S
C1656 C1657 1.370 . S
C1656 C1658 1.363 . S
C1656 H1672 0.931 . S
C1657 C1656 1.370 . S
C1657 C1661 1.408 . S
C1658 C1656 1.363 . S
C1658 C1659 1.370 1_556 S
C1658 C1662 1.524 1_556 S
C1659 C1651 1.503 . S
C1659 C1658 1.370 1_554 S
C1659 C1660 1.403 1_554 S
C1660 C1659 1.403 1_556 S
C1660 C1661 1.404 . S
C1660 C1663 1.539 1_556 S
C1661 C1657 1.408 . S
C1661 C1660 1.404 . S
C1661 H1673 0.930 . S
C1662 C1658 1.524 1_554 S
C1662 H1674 0.956 . S
C1662 H1675 0.961 . S
C1662 H1676 0.961 1_554 S
C1663 C1660 1.539 1_554 S
C1663 H1677 0.958 . S
C1663 H1678 0.961 1_554 S
C1663 H1679 0.960 . S
H1664 C1648 0.931 . S
H1665 C1653 0.929 . S
H1666 C1654 0.960 . S
H1667 C1654 0.962 . S
H1668 C1654 0.960 . S
H1669 C1655 0.961 . S
H1670 C1655 0.961 . S
H1671 C1655 0.961 . S
H1672 C1656 0.931 . S
H1673 C1661 0.930 . S
H1674 C1662 0.956 . S
H1675 C1662 0.961 . S
H1676 C1662 0.961 1_556 S
H1677 C1663 0.958 . S
H1678 C1663 0.961 1_556 S
H1679 C1663 0.960 . S
C1680 C1681 1.391 . S
C1680 C1682 1.394 . S
C1680 H1696 0.931 . S
C1681 C1680 1.391 . S
C1681 C1685 1.376 . S
C1682 C1680 1.394 . S
C1682 C1683 1.369 1_556 S
C1682 C1686 1.531 1_556 S
C1683 C1682 1.369 1_554 S
C1683 C1684 1.410 1_554 S
C1683 C1691 1.503 . S
C1684 C1683 1.410 1_556 S
C1684 C1685 1.392 . S
C1684 C1687 1.511 1_556 S
C1685 C1681 1.376 . S
C1685 C1684 1.392 . S
C1685 H1697 0.929 . S
C1686 C1682 1.531 1_554 S
C1686 H1698 0.960 . S
C1686 H1699 0.962 . S
C1686 H1700 0.960 1_554 S
C1687 C1684 1.511 1_554 S
C1687 H1701 0.961 1_554 S
C1687 H1702 0.961 . S
C1687 H1703 0.961 . S
C1688 C1689 1.370 . S
C1688 C1690 1.363 . S
C1688 H1704 0.931 . S
C1689 C1688 1.370 . S
C1689 C1693 1.408 . S
C1690 C1688 1.363 . S
C1690 C1691 1.370 . S
C1690 C1694 1.524 . S
C1691 C1683 1.503 . S
C1691 C1690 1.370 . S
C1691 C1692 1.403 . S
C1692 C1691 1.403 . S
C1692 C1693 1.404 . S
C1692 C1695 1.539 . S
C1693 C1689 1.408 . S
C1693 C1692 1.404 . S
C1693 H1705 0.930 . S
C1694 C1690 1.524 . S
C1694 H1706 0.956 . S
C1694 H1707 0.961 . S
C1694 H1708 0.961 . S
C1695 C1692 1.539 . S
C1695 H1709 0.958 . S
C1695 H1710 0.961 . S
C1695 H1711 0.960 . S
H1696 C1680 0.931 . S
H1697 C1685 0.929 . S
H1698 C1686 0.960 . S
H1699 C1686 0.962 . S
H1700 C1686 0.960 1_556 S
H1701 C1687 0.961 1_556 S
H1702 C1687 0.961 . S
H1703 C1687 0.961 . S
H1704 C1688 0.931 . S
H1705 C1693 0.930 . S
H1706 C1694 0.956 . S
H1707 C1694 0.961 . S
H1708 C1694 0.961 . S
H1709 C1695 0.958 . S
H1710 C1695 0.961 . S
H1711 C1695 0.960 . S
C1712 C1713 1.391 . S
C1712 C1714 1.394 . S
C1712 H1728 0.931 . S
C1713 C1712 1.391 . S
C1713 C1717 1.376 . S
C1714 C1712 1.394 . S
C1714 C1715 1.369 . S
C1714 C1718 1.531 . S
C1715 C1714 1.369 . S
C1715 C1716 1.410 . S
C1715 C1723 1.503 . S
C1716 C1715 1.410 . S
C1716 C1717 1.392 . S
C1716 C1719 1.511 . S
C1717 C1713 1.376 . S
C1717 C1716 1.392 . S
C1717 H1729 0.929 . S
C1718 C1714 1.531 . S
C1718 H1730 0.960 . S
C1718 H1731 0.962 . S
C1718 H1732 0.960 . S
C1719 C1716 1.511 . S
C1719 H1733 0.961 . S
C1719 H1734 0.961 . S
C1719 H1735 0.961 . S
C1720 C1721 1.370 . S
C1720 C1722 1.363 . S
C1720 H1736 0.931 . S
C1721 C1720 1.370 . S
C1721 C1725 1.408 . S
C1722 C1720 1.363 . S
C1722 C1723 1.370 1_455 S
C1722 C1726 1.524 1_455 S
C1723 C1715 1.503 . S
C1723 C1722 1.370 1_655 S
C1723 C1724 1.403 1_655 S
C1724 C1723 1.403 1_455 S
C1724 C1725 1.404 . S
C1724 C1727 1.539 1_455 S
C1725 C1721 1.408 . S
C1725 C1724 1.404 . S
C1725 H1737 0.930 . S
C1726 C1722 1.524 1_655 S
C1726 H1738 0.956 . S
C1726 H1739 0.961 . S
C1726 H1740 0.961 1_655 S
C1727 C1724 1.539 1_655 S
C1727 H1741 0.958 . S
C1727 H1742 0.961 1_655 S
C1727 H1743 0.960 . S
H1728 C1712 0.931 . S
H1729 C1717 0.929 . S
H1730 C1718 0.960 . S
H1731 C1718 0.962 . S
H1732 C1718 0.960 . S
H1733 C1719 0.961 . S
H1734 C1719 0.961 . S
H1735 C1719 0.961 . S
H1736 C1720 0.931 . S
H1737 C1725 0.930 . S
H1738 C1726 0.956 . S
H1739 C1726 0.961 . S
H1740 C1726 0.961 1_455 S
H1741 C1727 0.958 . S
H1742 C1727 0.961 1_455 S
H1743 C1727 0.960 . S
C1744 C1745 1.391 . S
C1744 C1746 1.394 . S
C1744 H1760 0.931 . S
C1745 C1744 1.391 . S
C1745 C1749 1.376 . S
C1746 C1744 1.394 . S
C1746 C1747 1.369 . S
C1746 C1750 1.531 . S
C1747 C1746 1.369 . S
C1747 C1748 1.410 . S
C1747 C1755 1.503 . S
C1748 C1747 1.410 . S
C1748 C1749 1.392 . S
C1748 C1751 1.511 . S
C1749 C1745 1.376 . S
C1749 C1748 1.392 . S
C1749 H1761 0.929 . S
C1750 C1746 1.531 . S
C1750 H1762 0.960 . S
C1750 H1763 0.962 . S
C1750 H1764 0.960 . S
C1751 C1748 1.511 . S
C1751 H1765 0.961 . S
C1751 H1766 0.961 . S
C1751 H1767 0.961 . S
C1752 C1753 1.370 . S
C1752 C1754 1.363 . S
C1752 H1768 0.931 . S
C1753 C1752 1.370 . S
C1753 C1757 1.408 . S
C1754 C1752 1.363 . S
C1754 C1755 1.370 1_455 S
C1754 C1758 1.524 1_455 S
C1755 C1747 1.503 . S
C1755 C1754 1.370 1_655 S
C1755 C1756 1.403 1_655 S
C1756 C1755 1.403 1_455 S
C1756 C1757 1.404 . S
C1756 C1759 1.539 1_455 S
C1757 C1753 1.408 . S
C1757 C1756 1.404 . S
C1757 H1769 0.930 . S
C1758 C1754 1.524 1_655 S
C1758 H1770 0.956 . S
C1758 H1771 0.961 . S
C1758 H1772 0.961 1_655 S
C1759 C1756 1.539 1_655 S
C1759 H1773 0.958 . S
C1759 H1774 0.961 1_655 S
C1759 H1775 0.960 . S
H1760 C1744 0.931 . S
H1761 C1749 0.929 . S
H1762 C1750 0.960 . S
H1763 C1750 0.962 . S
H1764 C1750 0.960 . S
H1765 C1751 0.961 . S
H1766 C1751 0.961 . S
H1767 C1751 0.961 . S
H1768 C1752 0.931 . S
H1769 C1757 0.930 . S
H1770 C1758 0.956 . S
H1771 C1758 0.961 . S
H1772 C1758 0.961 1_455 S
H1773 C1759 0.958 . S
H1774 C1759 0.961 1_455 S
H1775 C1759 0.960 . S
C1776 C1777 1.391 . S
C1776 C1778 1.394 . S
C1776 H1792 0.931 . S
C1777 C1776 1.391 . S
C1777 C1781 1.376 . S
C1778 C1776 1.394 . S
C1778 C1779 1.369 1_545 S
C1778 C1782 1.531 1_545 S
C1779 C1778 1.369 1_565 S
C1779 C1780 1.410 1_565 S
C1779 C1787 1.503 . S
C1780 C1779 1.410 1_545 S
C1780 C1781 1.392 . S
C1780 C1783 1.511 1_545 S
C1781 C1777 1.376 . S
C1781 C1780 1.392 . S
C1781 H1793 0.929 . S
C1782 C1778 1.531 1_565 S
C1782 H1794 0.960 . S
C1782 H1795 0.962 . S
C1782 H1796 0.960 1_565 S
C1783 C1780 1.511 1_565 S
C1783 H1797 0.962 1_565 S
C1783 H1798 0.961 . S
C1783 H1799 0.961 . S
C1784 C1785 1.370 . S
C1784 C1786 1.363 . S
C1784 H1800 0.931 . S
C1785 C1784 1.370 . S
C1785 C1789 1.408 . S
C1786 C1784 1.363 . S
C1786 C1787 1.370 . S
C1786 C1790 1.524 . S
C1787 C1779 1.503 . S
C1787 C1786 1.370 . S
C1787 C1788 1.403 . S
C1788 C1787 1.403 . S
C1788 C1789 1.404 . S
C1788 C1791 1.539 . S
C1789 C1785 1.408 . S
C1789 C1788 1.404 . S
C1789 H1801 0.930 . S
C1790 C1786 1.524 . S
C1790 H1802 0.956 . S
C1790 H1803 0.961 . S
C1790 H1804 0.961 . S
C1791 C1788 1.539 . S
C1791 H1805 0.958 . S
C1791 H1806 0.961 . S
C1791 H1807 0.960 . S
H1792 C1776 0.931 . S
H1793 C1781 0.929 . S
H1794 C1782 0.960 . S
H1795 C1782 0.962 . S
H1796 C1782 0.960 1_545 S
H1797 C1783 0.962 1_545 S
H1798 C1783 0.961 . S
H1799 C1783 0.961 . S
H1800 C1784 0.931 . S
H1801 C1789 0.930 . S
H1802 C1790 0.956 . S
H1803 C1790 0.961 . S
H1804 C1790 0.961 . S
H1805 C1791 0.958 . S
H1806 C1791 0.961 . S
H1807 C1791 0.960 . S
C1808 C1809 1.391 . S
C1808 C1810 1.394 . S
C1808 H1824 0.931 . S
C1809 C1808 1.391 . S
C1809 C1813 1.376 . S
C1810 C1808 1.394 . S
C1810 C1811 1.369 1_655 S
C1810 C1814 1.531 1_655 S
C1811 C1810 1.369 1_455 S
C1811 C1812 1.410 1_455 S
C1811 C1819 1.503 . S
C1812 C1811 1.410 1_655 S
C1812 C1813 1.392 . S
C1812 C1815 1.511 1_655 S
C1813 C1809 1.376 . S
C1813 C1812 1.392 . S
C1813 H1825 0.929 . S
C1814 C1810 1.531 1_455 S
C1814 H1826 0.960 . S
C1814 H1827 0.962 . S
C1814 H1828 0.984 . S
C1815 C1812 1.511 1_455 S
C1815 H1829 0.961 1_455 S
C1815 H1830 0.961 . S
C1815 H1831 0.961 . S
C1816 C1817 1.370 . S
C1816 C1818 1.363 . S
C1816 H1832 0.931 . S
C1817 C1816 1.370 . S
C1817 C1821 1.408 . S
C1818 C1816 1.363 . S
C1818 C1819 1.370 . S
C1818 C1822 1.524 . S
C1819 C1811 1.503 . S
C1819 C1818 1.370 . S
C1819 C1820 1.403 . S
C1820 C1819 1.403 . S
C1820 C1821 1.404 . S
C1820 C1823 1.539 . S
C1821 C1817 1.408 . S
C1821 C1820 1.404 . S
C1821 H1833 0.930 . S
C1822 C1818 1.524 . S
C1822 H1834 0.956 . S
C1822 H1835 0.961 . S
C1822 H1836 0.961 . S
C1823 C1820 1.539 . S
C1823 H1837 0.958 . S
C1823 H1838 0.961 . S
C1823 H1839 0.960 . S
H1824 C1808 0.931 . S
H1825 C1813 0.929 . S
H1826 C1814 0.960 . S
H1827 C1814 0.962 . S
H1828 C1814 0.984 . S
H1829 C1815 0.961 1_655 S
H1830 C1815 0.961 . S
H1831 C1815 0.961 . S
H1832 C1816 0.931 . S
H1833 C1821 0.930 . S
H1834 C1822 0.956 . S
H1835 C1822 0.961 . S
H1836 C1822 0.961 . S
H1837 C1823 0.958 . S
H1838 C1823 0.961 . S
H1839 C1823 0.960 . S
C1840 C1841 1.391 . S
C1840 C1842 1.394 . S
C1840 H1856 0.931 . S
C1841 C1840 1.391 . S
C1841 C1845 1.376 . S
C1842 C1840 1.394 . S
C1842 C1843 1.369 . S
C1842 C1846 1.531 . S
C1843 C1842 1.369 . S
C1843 C1844 1.410 . S
C1843 C1851 1.503 . S
C1844 C1843 1.410 . S
C1844 C1845 1.392 . S
C1844 C1847 1.511 . S
C1845 C1841 1.376 . S
C1845 C1844 1.392 . S
C1845 H1857 0.929 . S
C1846 C1842 1.531 . S
C1846 H1858 0.960 . S
C1846 H1859 0.962 . S
C1846 H1860 0.960 . S
C1847 C1844 1.511 . S
C1847 H1861 0.961 . S
C1847 H1862 0.961 . S
C1847 H1863 0.961 . S
C1848 C1849 1.370 . S
C1848 C1850 1.363 . S
C1848 H1864 0.931 . S
C1849 C1848 1.370 . S
C1849 C1853 1.408 . S
C1850 C1848 1.363 . S
C1850 C1851 1.370 1_565 S
C1850 C1854 1.524 1_565 S
C1851 C1843 1.503 . S
C1851 C1850 1.370 1_545 S
C1851 C1852 1.403 1_545 S
C1852 C1851 1.403 1_565 S
C1852 C1853 1.404 . S
C1852 C1855 1.539 1_565 S
C1853 C1849 1.408 . S
C1853 C1852 1.404 . S
C1853 H1865 0.930 . S
C1854 C1850 1.524 1_545 S
C1854 H1866 0.956 . S
C1854 H1867 0.961 . S
C1854 H1868 0.946 1_545 S
C1855 C1852 1.539 1_545 S
C1855 H1869 0.958 . S
C1855 H1870 0.961 1_545 S
C1855 H1871 0.960 . S
H1856 C1840 0.931 . S
H1857 C1845 0.929 . S
H1858 C1846 0.960 . S
H1859 C1846 0.962 . S
H1860 C1846 0.960 . S
H1861 C1847 0.961 . S
H1862 C1847 0.961 . S
H1863 C1847 0.961 . S
H1864 C1848 0.931 . S
H1865 C1853 0.930 . S
H1866 C1854 0.956 . S
H1867 C1854 0.961 . S
H1868 C1854 0.946 1_565 S
H1869 C1855 0.958 . S
H1870 C1855 0.961 1_565 S
H1871 C1855 0.960 . S
C1872 C1873 1.391 . S
C1872 C1874 1.394 . S
C1872 H1888 0.931 . S
C1873 C1872 1.391 . S
C1873 C1877 1.376 . S
C1874 C1872 1.394 . S
C1874 C1875 1.369 . S
C1874 C1878 1.531 . S
C1875 C1874 1.369 . S
C1875 C1876 1.410 . S
C1875 C1883 1.503 . S
C1876 C1875 1.410 . S
C1876 C1877 1.392 . S
C1876 C1879 1.511 . S
C1877 C1873 1.376 . S
C1877 C1876 1.392 . S
C1877 H1889 0.929 . S
C1878 C1874 1.531 . S
C1878 H1890 0.960 . S
C1878 H1891 0.962 . S
C1878 H1892 0.960 . S
C1879 C1876 1.511 . S
C1879 H1893 0.961 . S
C1879 H1894 0.961 . S
C1879 H1895 0.961 . S
C1880 C1881 1.370 . S
C1880 C1882 1.363 . S
C1880 H1896 0.931 . S
C1881 C1880 1.370 . S
C1881 C1885 1.408 . S
C1882 C1880 1.363 . S
C1882 C1883 1.370 1_655 S
C1882 C1886 1.524 1_655 S
C1883 C1875 1.503 . S
C1883 C1882 1.370 1_455 S
C1883 C1884 1.403 1_455 S
C1884 C1883 1.403 1_655 S
C1884 C1885 1.404 . S
C1884 C1887 1.539 1_655 S
C1885 C1881 1.408 . S
C1885 C1884 1.404 . S
C1885 H1897 0.930 . S
C1886 C1882 1.524 1_455 S
C1886 H1898 0.956 . S
C1886 H1899 0.961 . S
C1886 H1900 0.961 1_455 S
C1887 C1884 1.539 1_455 S
C1887 H1901 0.958 . S
C1887 H1902 0.961 1_455 S
C1887 H1903 0.960 . S
H1888 C1872 0.931 . S
H1889 C1877 0.929 . S
H1890 C1878 0.960 . S
H1891 C1878 0.962 . S
H1892 C1878 0.960 . S
H1893 C1879 0.961 . S
H1894 C1879 0.961 . S
H1895 C1879 0.961 . S
H1896 C1880 0.931 . S
H1897 C1885 0.930 . S
H1898 C1886 0.956 . S
H1899 C1886 0.961 . S
H1900 C1886 0.961 1_655 S
H1901 C1887 0.958 . S
H1902 C1887 0.961 1_655 S
H1903 C1887 0.960 . S
C1904 C1905 1.391 . S
C1904 C1906 1.394 . S
C1904 H1920 0.931 . S
C1905 C1904 1.391 . S
C1905 C1909 1.376 . S
C1906 C1904 1.394 . S
C1906 C1907 1.369 . S
C1906 C1910 1.531 . S
C1907 C1906 1.369 . S
C1907 C1908 1.410 . S
C1907 C1915 1.503 . S
C1908 C1907 1.410 . S
C1908 C1909 1.392 . S
C1908 C1911 1.511 . S
C1909 C1905 1.376 . S
C1909 C1908 1.392 . S
C1909 H1921 0.929 . S
C1910 C1906 1.531 . S
C1910 H1922 0.960 . S
C1910 H1923 0.962 . S
C1910 H1924 0.960 . S
C1911 C1908 1.511 . S
C1911 H1925 0.961 . S
C1911 H1926 0.961 . S
C1911 H1927 0.961 . S
C1912 C1913 1.370 . S
C1912 C1914 1.363 . S
C1912 H1928 0.931 . S
C1913 C1912 1.370 . S
C1913 C1917 1.408 . S
C1914 C1912 1.363 . S
C1914 C1915 1.370 1_565 S
C1914 C1918 1.524 1_565 S
C1915 C1907 1.503 . S
C1915 C1914 1.370 1_545 S
C1915 C1916 1.403 1_545 S
C1916 C1915 1.403 1_565 S
C1916 C1917 1.404 . S
C1916 C1919 1.539 1_565 S
C1917 C1913 1.408 . S
C1917 C1916 1.404 . S
C1917 H1929 0.930 . S
C1918 C1914 1.524 1_545 S
C1918 H1930 0.956 . S
C1918 H1931 0.961 . S
C1918 H1932 0.961 1_545 S
C1919 C1916 1.539 1_545 S
C1919 H1933 0.958 . S
C1919 H1934 0.961 1_545 S
C1919 H1935 0.960 . S
H1920 C1904 0.931 . S
H1921 C1909 0.929 . S
H1922 C1910 0.960 . S
H1923 C1910 0.962 . S
H1924 C1910 0.960 . S
H1925 C1911 0.961 . S
H1926 C1911 0.961 . S
H1927 C1911 0.961 . S
H1928 C1912 0.931 . S
H1929 C1917 0.930 . S
H1930 C1918 0.956 . S
H1931 C1918 0.961 . S
H1932 C1918 0.961 1_565 S
H1933 C1919 0.958 . S
H1934 C1919 0.961 1_565 S
H1935 C1919 0.960 . S
C1936 C1937 1.391 . S
C1936 C1938 1.394 . S
C1936 H1952 0.931 . S
C1937 C1936 1.391 . S
C1937 C1941 1.376 . S
C1938 C1936 1.394 . S
C1938 C1939 1.369 1_545 S
C1938 C1942 1.531 1_545 S
C1939 C1938 1.369 1_565 S
C1939 C1940 1.410 1_565 S
C1939 C1947 1.503 . S
C1940 C1939 1.410 1_545 S
C1940 C1941 1.392 . S
C1940 C1943 1.511 1_545 S
C1941 C1937 1.376 . S
C1941 C1940 1.392 . S
C1941 H1953 0.929 . S
C1942 C1938 1.531 1_565 S
C1942 H1954 0.960 . S
C1942 H1955 0.962 . S
C1942 H1956 0.960 1_565 S
C1943 C1940 1.511 1_565 S
C1943 H1957 0.961 1_565 S
C1943 H1958 0.961 . S
C1943 H1959 0.961 . S
C1944 C1945 1.370 . S
C1944 C1946 1.363 . S
C1944 H1960 0.931 . S
C1945 C1944 1.370 . S
C1945 C1949 1.408 . S
C1946 C1944 1.363 . S
C1946 C1947 1.370 . S
C1946 C1950 1.524 . S
C1947 C1939 1.503 . S
C1947 C1946 1.370 . S
C1947 C1948 1.403 . S
C1948 C1947 1.403 . S
C1948 C1949 1.404 . S
C1948 C1951 1.539 . S
C1949 C1945 1.408 . S
C1949 C1948 1.404 . S
C1949 H1961 0.930 . S
C1950 C1946 1.524 . S
C1950 H1962 0.956 . S
C1950 H1963 0.961 . S
C1950 H1964 0.961 . S
C1951 C1948 1.539 . S
C1951 H1965 0.958 . S
C1951 H1966 0.961 . S
C1951 H1967 0.960 . S
H1952 C1936 0.931 . S
H1953 C1941 0.929 . S
H1954 C1942 0.960 . S
H1955 C1942 0.962 . S
H1956 C1942 0.960 1_545 S
H1957 C1943 0.961 1_545 S
H1958 C1943 0.961 . S
H1959 C1943 0.961 . S
H1960 C1944 0.931 . S
H1961 C1949 0.930 . S
H1962 C1950 0.956 . S
H1963 C1950 0.961 . S
H1964 C1950 0.961 . S
H1965 C1951 0.958 . S
H1966 C1951 0.961 . S
H1967 C1951 0.960 . S
C1968 C1969 1.391 . S
C1968 C1970 1.394 . S
C1968 H1984 0.931 . S
C1969 C1968 1.391 . S
C1969 C1973 1.376 . S
C1970 C1968 1.394 . S
C1970 C1971 1.369 . S
C1970 C1974 1.531 . S
C1971 C1970 1.369 . S
C1971 C1972 1.410 . S
C1971 C1979 1.503 . S
C1972 C1971 1.410 . S
C1972 C1973 1.392 . S
C1972 C1975 1.511 . S
C1973 C1969 1.376 . S
C1973 C1972 1.392 . S
C1973 H1985 0.929 . S
C1974 C1970 1.531 . S
C1974 H1986 0.960 . S
C1974 H1987 0.962 . S
C1974 H1988 0.960 . S
C1975 C1972 1.511 . S
C1975 H1989 0.961 . S
C1975 H1990 0.961 . S
C1975 H1991 0.961 . S
C1976 C1977 1.370 . S
C1976 C1978 1.363 . S
C1976 H1992 0.931 . S
C1977 C1976 1.370 . S
C1977 C1981 1.408 . S
C1978 C1976 1.363 . S
C1978 C1979 1.370 . S
C1978 C1982 1.524 . S
C1979 C1971 1.503 . S
C1979 C1978 1.370 . S
C1979 C1980 1.403 . S
C1980 C1979 1.403 . S
C1980 C1981 1.404 . S
C1980 C1983 1.539 . S
C1981 C1977 1.408 . S
C1981 C1980 1.404 . S
C1981 H1993 0.930 . S
C1982 C1978 1.524 . S
C1982 H1994 0.956 . S
C1982 H1995 0.961 . S
C1982 H1996 0.961 . S
C1983 C1980 1.539 . S
C1983 H1997 0.958 . S
C1983 H1998 0.961 . S
C1983 H1999 0.960 . S
H1984 C1968 0.931 . S
H1985 C1973 0.929 . S
H1986 C1974 0.960 . S
H1987 C1974 0.962 . S
H1988 C1974 0.960 . S
H1989 C1975 0.961 . S
H1990 C1975 0.961 . S
H1991 C1975 0.961 . S
H1992 C1976 0.931 . S
H1993 C1981 0.930 . S
H1994 C1982 0.956 . S
H1995 C1982 0.961 . S
H1996 C1982 0.961 . S
H1997 C1983 0.958 . S
H1998 C1983 0.961 . S
H1999 C1983 0.960 . S
C2000 C2001 1.391 . S
C2000 C2002 1.394 . S
C2000 H2016 0.931 . S
C2001 C2000 1.391 . S
C2001 C2005 1.376 . S
C2002 C2000 1.394 . S
C2002 C2003 1.369 . S
C2002 C2006 1.531 . S
C2003 C2002 1.369 . S
C2003 C2004 1.410 . S
C2003 C2011 1.503 . S
C2004 C2003 1.410 . S
C2004 C2005 1.392 . S
C2004 C2007 1.511 . S
C2005 C2001 1.376 . S
C2005 C2004 1.392 . S
C2005 H2017 0.929 . S
C2006 C2002 1.531 . S
C2006 H2018 0.960 . S
C2006 H2019 0.962 . S
C2006 H2020 0.960 . S
C2007 C2004 1.511 . S
C2007 H2021 0.961 . S
C2007 H2022 0.961 . S
C2007 H2023 0.961 . S
C2008 C2009 1.370 . S
C2008 C2010 1.363 . S
C2008 H2024 0.931 . S
C2009 C2008 1.370 . S
C2009 C2013 1.408 . S
C2010 C2008 1.363 . S
C2010 C2011 1.370 . S
C2010 C2014 1.524 . S
C2011 C2003 1.503 . S
C2011 C2010 1.370 . S
C2011 C2012 1.403 . S
C2012 C2011 1.403 . S
C2012 C2013 1.404 . S
C2012 C2015 1.539 . S
C2013 C2009 1.408 . S
C2013 C2012 1.404 . S
C2013 H2025 0.930 . S
C2014 C2010 1.524 . S
C2014 H2026 0.956 . S
C2014 H2027 0.961 . S
C2014 H2028 0.961 . S
C2015 C2012 1.539 . S
C2015 H2029 0.958 . S
C2015 H2030 0.961 . S
C2015 H2031 0.960 . S
H2016 C2000 0.931 . S
H2017 C2005 0.929 . S
H2018 C2006 0.960 . S
H2019 C2006 0.962 . S
H2020 C2006 0.960 . S
H2021 C2007 0.961 . S
H2022 C2007 0.961 . S
H2023 C2007 0.961 . S
H2024 C2008 0.931 . S
H2025 C2013 0.930 . S
H2026 C2014 0.956 . S
H2027 C2014 0.961 . S
H2028 C2014 0.961 . S
H2029 C2015 0.958 . S
H2030 C2015 0.961 . S
H2031 C2015 0.960 . S
C2032 C2033 1.391 . S
C2032 C2034 1.394 . S
C2032 H2048 0.931 . S
C2033 C2032 1.391 . S
C2033 C2037 1.376 . S
C2034 C2032 1.394 . S
C2034 C2035 1.369 . S
C2034 C2038 1.531 . S
C2035 C2034 1.369 . S
C2035 C2036 1.410 . S
C2035 C2043 1.503 . S
C2036 C2035 1.410 . S
C2036 C2037 1.392 . S
C2036 C2039 1.511 . S
C2037 C2033 1.376 . S
C2037 C2036 1.392 . S
C2037 H2049 0.929 . S
C2038 C2034 1.531 . S
C2038 H2050 0.960 . S
C2038 H2051 0.962 . S
C2038 H2052 0.960 . S
C2039 C2036 1.511 . S
C2039 H2053 0.961 . S
C2039 H2054 0.961 . S
C2039 H2055 0.961 . S
C2040 C2041 1.370 . S
C2040 C2042 1.363 . S
C2040 H2056 0.931 . S
C2041 C2040 1.370 . S
C2041 C2045 1.408 . S
C2042 C2040 1.363 . S
C2042 C2043 1.370 . S
C2042 C2046 1.524 . S
C2043 C2035 1.503 . S
C2043 C2042 1.370 . S
C2043 C2044 1.403 . S
C2044 C2043 1.403 . S
C2044 C2045 1.404 . S
C2044 C2047 1.539 . S
C2045 C2041 1.408 . S
C2045 C2044 1.404 . S
C2045 H2057 0.930 . S
C2046 C2042 1.524 . S
C2046 H2058 0.956 . S
C2046 H2059 0.961 . S
C2046 H2060 0.961 . S
C2047 C2044 1.539 . S
C2047 H2061 0.958 . S
C2047 H2062 0.961 . S
C2047 H2063 0.960 . S
H2048 C2032 0.931 . S
H2049 C2037 0.929 . S
H2050 C2038 0.960 . S
H2051 C2038 0.962 . S
H2052 C2038 0.960 . S
H2053 C2039 0.961 . S
H2054 C2039 0.961 . S
H2055 C2039 0.961 . S
H2056 C2040 0.931 . S
H2057 C2045 0.930 . S
H2058 C2046 0.956 . S
H2059 C2046 0.961 . S
H2060 C2046 0.961 . S
H2061 C2047 0.958 . S
H2062 C2047 0.961 . S
H2063 C2047 0.960 . S
C2064 C2065 1.391 . S
C2064 C2066 1.394 . S
C2064 H2080 0.931 . S
C2065 C2064 1.391 . S
C2065 C2069 1.376 . S
C2066 C2064 1.394 . S
C2066 C2067 1.369 . S
C2066 C2070 1.531 . S
C2067 C2066 1.369 . S
C2067 C2068 1.410 . S
C2067 C2075 1.503 . S
C2068 C2067 1.410 . S
C2068 C2069 1.392 . S
C2068 C2071 1.511 . S
C2069 C2065 1.376 . S
C2069 C2068 1.392 . S
C2069 H2081 0.929 . S
C2070 C2066 1.531 . S
C2070 H2082 0.960 . S
C2070 H2083 0.962 . S
C2070 H2084 0.960 . S
C2071 C2068 1.511 . S
C2071 H2085 0.961 . S
C2071 H2086 0.961 . S
C2071 H2087 0.961 . S
C2072 C2073 1.370 . S
C2072 C2074 1.363 . S
C2072 H2088 0.931 . S
C2073 C2072 1.370 . S
C2073 C2077 1.408 . S
C2074 C2072 1.363 . S
C2074 C2075 1.370 . S
C2074 C2078 1.524 . S
C2075 C2067 1.503 . S
C2075 C2074 1.370 . S
C2075 C2076 1.403 . S
C2076 C2075 1.403 . S
C2076 C2077 1.404 . S
C2076 C2079 1.539 . S
C2077 C2073 1.408 . S
C2077 C2076 1.404 . S
C2077 H2089 0.930 . S
C2078 C2074 1.524 . S
C2078 H2090 0.956 . S
C2078 H2091 0.961 . S
C2078 H2092 0.961 . S
C2079 C2076 1.539 . S
C2079 H2093 0.958 . S
C2079 H2094 0.961 . S
C2079 H2095 0.960 . S
H2080 C2064 0.931 . S
H2081 C2069 0.929 . S
H2082 C2070 0.960 . S
H2083 C2070 0.962 . S
H2084 C2070 0.960 . S
H2085 C2071 0.961 . S
H2086 C2071 0.961 . S
H2087 C2071 0.961 . S
H2088 C2072 0.931 . S
H2089 C2077 0.930 . S
H2090 C2078 0.956 . S
H2091 C2078 0.961 . S
H2092 C2078 0.961 . S
H2093 C2079 0.958 . S
H2094 C2079 0.961 . S
H2095 C2079 0.960 . S
C2096 C2097 1.391 . S
C2096 C2098 1.394 . S
C2096 H2112 0.931 . S
C2097 C2096 1.391 . S
C2097 C2101 1.376 . S
C2098 C2096 1.394 . S
C2098 C2099 1.369 . S
C2098 C2102 1.531 . S
C2099 C2098 1.369 . S
C2099 C2100 1.410 . S
C2099 C2107 1.503 . S
C2100 C2099 1.410 . S
C2100 C2101 1.392 . S
C2100 C2103 1.511 . S
C2101 C2097 1.376 . S
C2101 C2100 1.392 . S
C2101 H2113 0.929 . S
C2102 C2098 1.531 . S
C2102 H2114 0.960 . S
C2102 H2115 0.962 . S
C2102 H2116 0.960 . S
C2103 C2100 1.511 . S
C2103 H2117 0.961 . S
C2103 H2118 0.961 . S
C2103 H2119 0.961 . S
C2104 C2105 1.370 . S
C2104 C2106 1.363 . S
C2104 H2120 0.931 . S
C2105 C2104 1.370 . S
C2105 C2109 1.408 . S
C2106 C2104 1.363 . S
C2106 C2107 1.370 . S
C2106 C2110 1.524 . S
C2107 C2099 1.503 . S
C2107 C2106 1.370 . S
C2107 C2108 1.403 . S
C2108 C2107 1.403 . S
C2108 C2109 1.404 . S
C2108 C2111 1.539 . S
C2109 C2105 1.408 . S
C2109 C2108 1.404 . S
C2109 H2121 0.930 . S
C2110 C2106 1.524 . S
C2110 H2122 0.956 . S
C2110 H2123 0.961 . S
C2110 H2124 0.961 . S
C2111 C2108 1.539 . S
C2111 H2125 0.958 . S
C2111 H2126 0.961 . S
C2111 H2127 0.960 . S
H2112 C2096 0.931 . S
H2113 C2101 0.929 . S
H2114 C2102 0.960 . S
H2115 C2102 0.962 . S
H2116 C2102 0.960 . S
H2117 C2103 0.961 . S
H2118 C2103 0.961 . S
H2119 C2103 0.961 . S
H2120 C2104 0.931 . S
H2121 C2109 0.930 . S
H2122 C2110 0.956 . S
H2123 C2110 0.961 . S
H2124 C2110 0.961 . S
H2125 C2111 0.958 . S
H2126 C2111 0.961 . S
H2127 C2111 0.960 . S
C2128 C2129 1.391 . S
C2128 C2130 1.394 . S
C2128 H2144 0.931 . S
C2129 C2128 1.391 . S
C2129 C2133 1.376 . S
C2130 C2128 1.394 . S
C2130 C2131 1.369 . S
C2130 C2134 1.531 . S
C2131 C2130 1.369 . S
C2131 C2132 1.410 . S
C2131 C2139 1.503 . S
C2132 C2131 1.410 . S
C2132 C2133 1.392 . S
C2132 C2135 1.511 . S
C2133 C2129 1.376 . S
C2133 C2132 1.392 . S
C2133 H2145 0.929 . S
C2134 C2130 1.531 . S
C2134 H2146 0.960 . S
C2134 H2147 0.962 . S
C2134 H2148 0.960 . S
C2135 C2132 1.511 . S
C2135 H2149 0.961 . S
C2135 H2150 0.961 . S
C2135 H2151 0.961 . S
C2136 C2137 1.370 . S
C2136 C2138 1.363 . S
C2136 H2152 0.931 . S
C2137 C2136 1.370 . S
C2137 C2141 1.408 . S
C2138 C2136 1.363 . S
C2138 C2139 1.370 . S
C2138 C2142 1.524 . S
C2139 C2131 1.503 . S
C2139 C2138 1.370 . S
C2139 C2140 1.403 . S
C2140 C2139 1.403 . S
C2140 C2141 1.404 . S
C2140 C2143 1.539 . S
C2141 C2137 1.408 . S
C2141 C2140 1.404 . S
C2141 H2153 0.930 . S
C2142 C2138 1.524 . S
C2142 H2154 0.956 . S
C2142 H2155 0.961 . S
C2142 H2156 0.961 . S
C2143 C2140 1.539 . S
C2143 H2157 0.958 . S
C2143 H2158 0.961 . S
C2143 H2159 0.960 . S
H2144 C2128 0.931 . S
H2145 C2133 0.929 . S
H2146 C2134 0.960 . S
H2147 C2134 0.962 . S
H2148 C2134 0.960 . S
H2149 C2135 0.961 . S
H2150 C2135 0.961 . S
H2151 C2135 0.961 . S
H2152 C2136 0.931 . S
H2153 C2141 0.930 . S
H2154 C2142 0.956 . S
H2155 C2142 0.961 . S
H2156 C2142 0.961 . S
H2157 C2143 0.958 . S
H2158 C2143 0.961 . S
H2159 C2143 0.960 . S
C2160 C2161 1.391 . S
C2160 C2162 1.394 . S
C2160 H2176 0.931 . S
C2161 C2160 1.391 . S
C2161 C2165 1.376 . S
C2162 C2160 1.394 . S
C2162 C2163 1.369 . S
C2162 C2166 1.531 . S
C2163 C2162 1.369 . S
C2163 C2164 1.410 . S
C2163 C2171 1.503 . S
C2164 C2163 1.410 . S
C2164 C2165 1.392 . S
C2164 C2167 1.511 . S
C2165 C2161 1.376 . S
C2165 C2164 1.392 . S
C2165 H2177 0.929 . S
C2166 C2162 1.531 . S
C2166 H2178 0.960 . S
C2166 H2179 0.962 . S
C2166 H2180 0.960 . S
C2167 C2164 1.511 . S
C2167 H2181 0.961 . S
C2167 H2182 0.961 . S
C2167 H2183 0.961 . S
C2168 C2169 1.370 . S
C2168 C2170 1.363 . S
C2168 H2184 0.931 . S
C2169 C2168 1.370 . S
C2169 C2173 1.408 . S
C2170 C2168 1.363 . S
C2170 C2171 1.370 . S
C2170 C2174 1.524 . S
C2171 C2163 1.503 . S
C2171 C2170 1.370 . S
C2171 C2172 1.403 . S
C2172 C2171 1.403 . S
C2172 C2173 1.404 . S
C2172 C2175 1.539 . S
C2173 C2169 1.408 . S
C2173 C2172 1.404 . S
C2173 H2185 0.930 . S
C2174 C2170 1.524 . S
C2174 H2186 0.956 . S
C2174 H2187 0.961 . S
C2174 H2188 0.961 . S
C2175 C2172 1.539 . S
C2175 H2189 0.958 . S
C2175 H2190 0.961 . S
C2175 H2191 0.960 . S
H2176 C2160 0.931 . S
H2177 C2165 0.929 . S
H2178 C2166 0.960 . S
H2179 C2166 0.962 . S
H2180 C2166 0.960 . S
H2181 C2167 0.961 . S
H2182 C2167 0.961 . S
H2183 C2167 0.961 . S
H2184 C2168 0.931 . S
H2185 C2173 0.930 . S
H2186 C2174 0.956 . S
H2187 C2174 0.961 . S
H2188 C2174 0.961 . S
H2189 C2175 0.958 . S
H2190 C2175 0.961 . S
H2191 C2175 0.960 . S
C2192 C2193 1.391 . S
C2192 C2194 1.394 . S
C2192 H2208 0.931 . S
C2193 C2192 1.391 . S
C2193 C2197 1.376 . S
C2194 C2192 1.394 . S
C2194 C2195 1.369 . S
C2194 C2198 1.531 . S
C2195 C2194 1.369 . S
C2195 C2196 1.410 . S
C2195 C2203 1.503 . S
C2196 C2195 1.410 . S
C2196 C2197 1.392 . S
C2196 C2199 1.511 . S
C2197 C2193 1.376 . S
C2197 C2196 1.392 . S
C2197 H2209 0.929 . S
C2198 C2194 1.531 . S
C2198 H2210 0.960 . S
C2198 H2211 0.962 . S
C2198 H2212 0.960 . S
C2199 C2196 1.511 . S
C2199 H2213 0.961 . S
C2199 H2214 0.961 . S
C2199 H2215 0.961 . S
C2200 C2201 1.370 . S
C2200 C2202 1.363 . S
C2200 H2216 0.931 . S
C2201 C2200 1.370 . S
C2201 C2205 1.408 . S
C2202 C2200 1.363 . S
C2202 C2203 1.370 . S
C2202 C2206 1.524 . S
C2203 C2195 1.503 . S
C2203 C2202 1.370 . S
C2203 C2204 1.403 . S
C2204 C2203 1.403 . S
C2204 C2205 1.404 . S
C2204 C2207 1.539 . S
C2205 C2201 1.408 . S
C2205 C2204 1.404 . S
C2205 H2217 0.930 . S
C2206 C2202 1.524 . S
C2206 H2218 0.956 . S
C2206 H2219 0.961 . S
C2206 H2220 0.961 . S
C2207 C2204 1.539 . S
C2207 H2221 0.958 . S
C2207 H2222 0.961 . S
C2207 H2223 0.960 . S
H2208 C2192 0.931 . S
H2209 C2197 0.929 . S
H2210 C2198 0.960 . S
H2211 C2198 0.962 . S
H2212 C2198 0.960 . S
H2213 C2199 0.961 . S
H2214 C2199 0.961 . S
H2215 C2199 0.961 . S
H2216 C2200 0.931 . S
H2217 C2205 0.930 . S
H2218 C2206 0.956 . S
H2219 C2206 0.961 . S
H2220 C2206 0.961 . S
H2221 C2207 0.958 . S
H2222 C2207 0.961 . S
H2223 C2207 0.960 . S
C2224 C2225 1.391 . S
C2224 C2226 1.394 . S
C2224 H2240 0.931 . S
C2225 C2224 1.391 . S
C2225 C2229 1.376 . S
C2226 C2224 1.394 . S
C2226 C2227 1.369 . S
C2226 C2230 1.531 . S
C2227 C2226 1.369 . S
C2227 C2228 1.410 . S
C2227 C2235 1.503 . S
C2228 C2227 1.410 . S
C2228 C2229 1.392 . S
C2228 C2231 1.511 . S
C2229 C2225 1.376 . S
C2229 C2228 1.392 . S
C2229 H2241 0.929 . S
C2230 C2226 1.531 . S
C2230 H2242 0.960 . S
C2230 H2243 0.962 . S
C2230 H2244 0.960 . S
C2231 C2228 1.511 . S
C2231 H2245 0.961 . S
C2231 H2246 0.961 . S
C2231 H2247 0.961 . S
C2232 C2233 1.370 . S
C2232 C2234 1.363 . S
C2232 H2248 0.931 . S
C2233 C2232 1.370 . S
C2233 C2237 1.408 . S
C2234 C2232 1.363 . S
C2234 C2235 1.370 . S
C2234 C2238 1.524 . S
C2235 C2227 1.503 . S
C2235 C2234 1.370 . S
C2235 C2236 1.403 . S
C2236 C2235 1.403 . S
C2236 C2237 1.404 . S
C2236 C2239 1.539 . S
C2237 C2233 1.408 . S
C2237 C2236 1.404 . S
C2237 H2249 0.930 . S
C2238 C2234 1.524 . S
C2238 H2250 0.956 . S
C2238 H2251 0.961 . S
C2238 H2252 0.961 . S
C2239 C2236 1.539 . S
C2239 H2253 0.958 . S
C2239 H2254 0.961 . S
C2239 H2255 0.960 . S
H2240 C2224 0.931 . S
H2241 C2229 0.929 . S
H2242 C2230 0.960 . S
H2243 C2230 0.962 . S
H2244 C2230 0.960 . S
H2245 C2231 0.961 . S
H2246 C2231 0.961 . S
H2247 C2231 0.961 . S
H2248 C2232 0.931 . S
H2249 C2237 0.930 . S
H2250 C2238 0.956 . S
H2251 C2238 0.961 . S
H2252 C2238 0.961 . S
H2253 C2239 0.958 . S
H2254 C2239 0.961 . S
H2255 C2239 0.960 . S
C2256 C2257 1.391 . S
C2256 C2258 1.394 . S
C2256 H2272 0.931 . S
C2257 C2256 1.391 . S
C2257 C2261 1.376 . S
C2258 C2256 1.394 . S
C2258 C2259 1.369 . S
C2258 C2262 1.531 . S
C2259 C2258 1.369 . S
C2259 C2260 1.410 . S
C2259 C2267 1.503 . S
C2260 C2259 1.410 . S
C2260 C2261 1.392 . S
C2260 C2263 1.511 . S
C2261 C2257 1.376 . S
C2261 C2260 1.392 . S
C2261 H2273 0.929 . S
C2262 C2258 1.531 . S
C2262 H2274 0.960 . S
C2262 H2275 0.962 . S
C2262 H2276 0.960 . S
C2263 C2260 1.511 . S
C2263 H2277 0.961 . S
C2263 H2278 0.961 . S
C2263 H2279 0.961 . S
C2264 C2265 1.370 . S
C2264 C2266 1.363 . S
C2264 H2280 0.931 . S
C2265 C2264 1.370 . S
C2265 C2269 1.408 . S
C2266 C2264 1.363 . S
C2266 C2267 1.370 . S
C2266 C2270 1.524 . S
C2267 C2259 1.503 . S
C2267 C2266 1.370 . S
C2267 C2268 1.403 . S
C2268 C2267 1.403 . S
C2268 C2269 1.404 . S
C2268 C2271 1.539 . S
C2269 C2265 1.408 . S
C2269 C2268 1.404 . S
C2269 H2281 0.930 . S
C2270 C2266 1.524 . S
C2270 H2282 0.956 . S
C2270 H2283 0.961 . S
C2270 H2284 0.961 . S
C2271 C2268 1.539 . S
C2271 H2285 0.958 . S
C2271 H2286 0.961 . S
C2271 H2287 0.960 . S
H2272 C2256 0.931 . S
H2273 C2261 0.929 . S
H2274 C2262 0.960 . S
H2275 C2262 0.962 . S
H2276 C2262 0.960 . S
H2277 C2263 0.961 . S
H2278 C2263 0.961 . S
H2279 C2263 0.961 . S
H2280 C2264 0.931 . S
H2281 C2269 0.930 . S
H2282 C2270 0.956 . S
H2283 C2270 0.961 . S
H2284 C2270 0.961 . S
H2285 C2271 0.958 . S
H2286 C2271 0.961 . S
H2287 C2271 0.960 . S
C2288 C2289 1.391 . S
C2288 C2290 1.394 . S
C2288 H2304 0.931 . S
C2289 C2288 1.391 . S
C2289 C2293 1.376 . S
C2290 C2288 1.394 . S
C2290 C2291 1.369 . S
C2290 C2294 1.531 . S
C2291 C2290 1.369 . S
C2291 C2292 1.410 . S
C2291 C2299 1.503 . S
C2292 C2291 1.410 . S
C2292 C2293 1.392 . S
C2292 C2295 1.511 . S
C2293 C2289 1.376 . S
C2293 C2292 1.392 . S
C2293 H2305 0.929 . S
C2294 C2290 1.531 . S
C2294 H2306 0.960 . S
C2294 H2307 0.962 . S
C2294 H2308 0.960 . S
C2295 C2292 1.511 . S
C2295 H2309 0.961 . S
C2295 H2310 0.961 . S
C2295 H2311 0.961 . S
C2296 C2297 1.370 . S
C2296 C2298 1.363 . S
C2296 H2312 0.931 . S
C2297 C2296 1.370 . S
C2297 C2301 1.408 . S
C2298 C2296 1.363 . S
C2298 C2299 1.370 . S
C2298 C2302 1.524 . S
C2299 C2291 1.503 . S
C2299 C2298 1.370 . S
C2299 C2300 1.403 . S
C2300 C2299 1.403 . S
C2300 C2301 1.404 . S
C2300 C2303 1.539 . S
C2301 C2297 1.408 . S
C2301 C2300 1.404 . S
C2301 H2313 0.930 . S
C2302 C2298 1.524 . S
C2302 H2314 0.956 . S
C2302 H2315 0.961 . S
C2302 H2316 0.961 . S
C2303 C2300 1.539 . S
C2303 H2317 0.958 . S
C2303 H2318 0.961 . S
C2303 H2319 0.960 . S
H2304 C2288 0.931 . S
H2305 C2293 0.929 . S
H2306 C2294 0.960 . S
H2307 C2294 0.962 . S
H2308 C2294 0.960 . S
H2309 C2295 0.961 . S
H2310 C2295 0.961 . S
H2311 C2295 0.961 . S
H2312 C2296 0.931 . S
H2313 C2301 0.930 . S
H2314 C2302 0.956 . S
H2315 C2302 0.961 . S
H2316 C2302 0.961 . S
H2317 C2303 0.958 . S
H2318 C2303 0.961 . S
H2319 C2303 0.960 . S
C2320 C2321 1.391 . S
C2320 C2322 1.394 . S
C2320 H2336 0.931 . S
C2321 C2320 1.391 . S
C2321 C2325 1.376 . S
C2322 C2320 1.394 . S
C2322 C2323 1.369 . S
C2322 C2326 1.531 . S
C2323 C2322 1.369 . S
C2323 C2324 1.410 . S
C2323 C2331 1.503 . S
C2324 C2323 1.410 . S
C2324 C2325 1.392 . S
C2324 C2327 1.511 . S
C2325 C2321 1.376 . S
C2325 C2324 1.392 . S
C2325 H2337 0.929 . S
C2326 C2322 1.531 . S
C2326 H2338 0.960 . S
C2326 H2339 0.962 . S
C2326 H2340 0.960 . S
C2327 C2324 1.511 . S
C2327 H2341 0.961 . S
C2327 H2342 0.961 . S
C2327 H2343 0.961 . S
C2328 C2329 1.370 . S
C2328 C2330 1.363 . S
C2328 H2344 0.931 . S
C2329 C2328 1.370 . S
C2329 C2333 1.408 . S
C2330 C2328 1.363 . S
C2330 C2331 1.370 . S
C2330 C2334 1.524 . S
C2331 C2323 1.503 . S
C2331 C2330 1.370 . S
C2331 C2332 1.403 . S
C2332 C2331 1.403 . S
C2332 C2333 1.404 . S
C2332 C2335 1.539 . S
C2333 C2329 1.408 . S
C2333 C2332 1.404 . S
C2333 H2345 0.930 . S
C2334 C2330 1.524 . S
C2334 H2346 0.956 . S
C2334 H2347 0.961 . S
C2334 H2348 0.961 . S
C2335 C2332 1.539 . S
C2335 H2349 0.958 . S
C2335 H2350 0.961 . S
C2335 H2351 0.960 . S
H2336 C2320 0.931 . S
H2337 C2325 0.929 . S
H2338 C2326 0.960 . S
H2339 C2326 0.962 . S
H2340 C2326 0.960 . S
H2341 C2327 0.961 . S
H2342 C2327 0.961 . S
H2343 C2327 0.961 . S
H2344 C2328 0.931 . S
H2345 C2333 0.930 . S
H2346 C2334 0.956 . S
H2347 C2334 0.961 . S
H2348 C2334 0.961 . S
H2349 C2335 0.958 . S
H2350 C2335 0.961 . S
H2351 C2335 0.960 . S
C2352 C2353 1.391 . S
C2352 C2354 1.394 . S
C2352 H2368 0.931 . S
C2353 C2352 1.391 . S
C2353 C2357 1.376 . S
C2354 C2352 1.394 . S
C2354 C2355 1.369 . S
C2354 C2358 1.531 . S
C2355 C2354 1.369 . S
C2355 C2356 1.410 . S
C2355 C2363 1.503 . S
C2356 C2355 1.410 . S
C2356 C2357 1.392 . S
C2356 C2359 1.511 . S
C2357 C2353 1.376 . S
C2357 C2356 1.392 . S
C2357 H2369 0.929 . S
C2358 C2354 1.531 . S
C2358 H2370 0.960 . S
C2358 H2371 0.962 . S
C2358 H2372 0.960 . S
C2359 C2356 1.511 . S
C2359 H2373 0.961 . S
C2359 H2374 0.961 . S
C2359 H2375 0.961 . S
C2360 C2361 1.370 . S
C2360 C2362 1.363 . S
C2360 H2376 0.931 . S
C2361 C2360 1.370 . S
C2361 C2365 1.408 . S
C2362 C2360 1.363 . S
C2362 C2363 1.370 . S
C2362 C2366 1.524 . S
C2363 C2355 1.503 . S
C2363 C2362 1.370 . S
C2363 C2364 1.403 . S
C2364 C2363 1.403 . S
C2364 C2365 1.404 . S
C2364 C2367 1.539 . S
C2365 C2361 1.408 . S
C2365 C2364 1.404 . S
C2365 H2377 0.930 . S
C2366 C2362 1.524 . S
C2366 H2378 0.956 . S
C2366 H2379 0.961 . S
C2366 H2380 0.961 . S
C2367 C2364 1.539 . S
C2367 H2381 0.958 . S
C2367 H2382 0.961 . S
C2367 H2383 0.960 . S
H2368 C2352 0.931 . S
H2369 C2357 0.929 . S
H2370 C2358 0.960 . S
H2371 C2358 0.962 . S
H2372 C2358 0.960 . S
H2373 C2359 0.961 . S
H2374 C2359 0.961 . S
H2375 C2359 0.961 . S
H2376 C2360 0.931 . S
H2377 C2365 0.930 . S
H2378 C2366 0.956 . S
H2379 C2366 0.961 . S
H2380 C2366 0.961 . S
H2381 C2367 0.958 . S
H2382 C2367 0.961 . S
H2383 C2367 0.960 . S
C2384 C2385 1.391 . S
C2384 C2386 1.394 . S
C2384 H2400 0.931 . S
C2385 C2384 1.391 . S
C2385 C2389 1.376 . S
C2386 C2384 1.394 . S
C2386 C2387 1.369 . S
C2386 C2390 1.531 . S
C2387 C2386 1.369 . S
C2387 C2388 1.410 . S
C2387 C2395 1.503 . S
C2388 C2387 1.410 . S
C2388 C2389 1.392 . S
C2388 C2391 1.511 . S
C2389 C2385 1.376 . S
C2389 C2388 1.392 . S
C2389 H2401 0.929 . S
C2390 C2386 1.531 . S
C2390 H2402 0.960 . S
C2390 H2403 0.962 . S
C2390 H2404 0.960 . S
C2391 C2388 1.511 . S
C2391 H2405 0.961 . S
C2391 H2406 0.961 . S
C2391 H2407 0.961 . S
C2392 C2393 1.370 . S
C2392 C2394 1.363 . S
C2392 H2408 0.931 . S
C2393 C2392 1.370 . S
C2393 C2397 1.408 . S
C2394 C2392 1.363 . S
C2394 C2395 1.370 . S
C2394 C2398 1.524 . S
C2395 C2387 1.503 . S
C2395 C2394 1.370 . S
C2395 C2396 1.403 . S
C2396 C2395 1.403 . S
C2396 C2397 1.404 . S
C2396 C2399 1.539 . S
C2397 C2393 1.408 . S
C2397 C2396 1.404 . S
C2397 H2409 0.930 . S
C2398 C2394 1.524 . S
C2398 H2410 0.956 . S
C2398 H2411 0.961 . S
C2398 H2412 0.961 . S
C2399 C2396 1.539 . S
C2399 H2413 0.958 . S
C2399 H2414 0.961 . S
C2399 H2415 0.960 . S
H2400 C2384 0.931 . S
H2401 C2389 0.929 . S
H2402 C2390 0.960 . S
H2403 C2390 0.962 . S
H2404 C2390 0.960 . S
H2405 C2391 0.961 . S
H2406 C2391 0.961 . S
H2407 C2391 0.961 . S
H2408 C2392 0.931 . S
H2409 C2397 0.930 . S
H2410 C2398 0.956 . S
H2411 C2398 0.961 . S
H2412 C2398 0.961 . S
H2413 C2399 0.958 . S
H2414 C2399 0.961 . S
H2415 C2399 0.960 . S
C2416 C2417 1.391 . S
C2416 C2418 1.394 . S
C2416 H2432 0.931 . S
C2417 C2416 1.391 . S
C2417 C2421 1.376 . S
C2418 C2416 1.394 . S
C2418 C2419 1.369 . S
C2418 C2422 1.531 . S
C2419 C2418 1.369 . S
C2419 C2420 1.410 . S
C2419 C2427 1.503 . S
C2420 C2419 1.410 . S
C2420 C2421 1.392 . S
C2420 C2423 1.511 . S
C2421 C2417 1.376 . S
C2421 C2420 1.392 . S
C2421 H2433 0.929 . S
C2422 C2418 1.531 . S
C2422 H2434 0.960 . S
C2422 H2435 0.962 . S
C2422 H2436 0.960 . S
C2423 C2420 1.511 . S
C2423 H2437 0.961 . S
C2423 H2438 0.961 . S
C2423 H2439 0.961 . S
C2424 C2425 1.370 . S
C2424 C2426 1.363 . S
C2424 H2440 0.931 . S
C2425 C2424 1.370 . S
C2425 C2429 1.408 . S
C2426 C2424 1.363 . S
C2426 C2427 1.370 . S
C2426 C2430 1.524 . S
C2427 C2419 1.503 . S
C2427 C2426 1.370 . S
C2427 C2428 1.403 . S
C2428 C2427 1.403 . S
C2428 C2429 1.404 . S
C2428 C2431 1.539 . S
C2429 C2425 1.408 . S
C2429 C2428 1.404 . S
C2429 H2441 0.930 . S
C2430 C2426 1.524 . S
C2430 H2442 0.956 . S
C2430 H2443 0.961 . S
C2430 H2444 0.961 . S
C2431 C2428 1.539 . S
C2431 H2445 0.958 . S
C2431 H2446 0.961 . S
C2431 H2447 0.960 . S
H2432 C2416 0.931 . S
H2433 C2421 0.929 . S
H2434 C2422 0.960 . S
H2435 C2422 0.962 . S
H2436 C2422 0.960 . S
H2437 C2423 0.961 . S
H2438 C2423 0.961 . S
H2439 C2423 0.961 . S
H2440 C2424 0.931 . S
H2441 C2429 0.930 . S
H2442 C2430 0.956 . S
H2443 C2430 0.961 . S
H2444 C2430 0.961 . S
H2445 C2431 0.958 . S
H2446 C2431 0.961 . S
H2447 C2431 0.960 . S
C2448 C2449 1.391 . S
C2448 C2450 1.394 . S
C2448 H2464 0.931 . S
C2449 C2448 1.391 . S
C2449 C2453 1.376 . S
C2450 C2448 1.394 . S
C2450 C2451 1.369 . S
C2450 C2454 1.531 . S
C2451 C2450 1.369 . S
C2451 C2452 1.410 . S
C2451 C2459 1.503 . S
C2452 C2451 1.410 . S
C2452 C2453 1.392 . S
C2452 C2455 1.511 . S
C2453 C2449 1.376 . S
C2453 C2452 1.392 . S
C2453 H2465 0.929 . S
C2454 C2450 1.531 . S
C2454 H2466 0.960 . S
C2454 H2467 0.962 . S
C2454 H2468 0.960 . S
C2455 C2452 1.511 . S
C2455 H2469 0.961 . S
C2455 H2470 0.961 . S
C2455 H2471 0.961 . S
C2456 C2457 1.370 . S
C2456 C2458 1.363 . S
C2456 H2472 0.931 . S
C2457 C2456 1.370 . S
C2457 C2461 1.408 . S
C2458 C2456 1.363 . S
C2458 C2459 1.370 . S
C2458 C2462 1.524 . S
C2459 C2451 1.503 . S
C2459 C2458 1.370 . S
C2459 C2460 1.403 . S
C2460 C2459 1.403 . S
C2460 C2461 1.404 . S
C2460 C2463 1.539 . S
C2461 C2457 1.408 . S
C2461 C2460 1.404 . S
C2461 H2473 0.930 . S
C2462 C2458 1.524 . S
C2462 H2474 0.956 . S
C2462 H2475 0.961 . S
C2462 H2476 0.961 . S
C2463 C2460 1.539 . S
C2463 H2477 0.958 . S
C2463 H2478 0.961 . S
C2463 H2479 0.960 . S
H2464 C2448 0.931 . S
H2465 C2453 0.929 . S
H2466 C2454 0.960 . S
H2467 C2454 0.962 . S
H2468 C2454 0.960 . S
H2469 C2455 0.961 . S
H2470 C2455 0.961 . S
H2471 C2455 0.961 . S
H2472 C2456 0.931 . S
H2473 C2461 0.930 . S
H2474 C2462 0.956 . S
H2475 C2462 0.961 . S
H2476 C2462 0.961 . S
H2477 C2463 0.958 . S
H2478 C2463 0.961 . S
H2479 C2463 0.960 . S
C2480 C2481 1.391 . S
C2480 C2482 1.394 . S
C2480 H2496 0.931 . S
C2481 C2480 1.391 . S
C2481 C2485 1.376 . S
C2482 C2480 1.394 . S
C2482 C2483 1.369 . S
C2482 C2486 1.531 . S
C2483 C2482 1.369 . S
C2483 C2484 1.410 . S
C2483 C2491 1.503 . S
C2484 C2483 1.410 . S
C2484 C2485 1.392 . S
C2484 C2487 1.511 . S
C2485 C2481 1.376 . S
C2485 C2484 1.392 . S
C2485 H2497 0.929 . S
C2486 C2482 1.531 . S
C2486 H2498 0.960 . S
C2486 H2499 0.962 . S
C2486 H2500 0.960 . S
C2487 C2484 1.511 . S
C2487 H2501 0.961 . S
C2487 H2502 0.961 . S
C2487 H2503 0.961 . S
C2488 C2489 1.370 . S
C2488 C2490 1.363 . S
C2488 H2504 0.931 . S
C2489 C2488 1.370 . S
C2489 C2493 1.408 . S
C2490 C2488 1.363 . S
C2490 C2491 1.370 . S
C2490 C2494 1.524 . S
C2491 C2483 1.503 . S
C2491 C2490 1.370 . S
C2491 C2492 1.403 . S
C2492 C2491 1.403 . S
C2492 C2493 1.404 . S
C2492 C2495 1.539 . S
C2493 C2489 1.408 . S
C2493 C2492 1.404 . S
C2493 H2505 0.930 . S
C2494 C2490 1.524 . S
C2494 H2506 0.956 . S
C2494 H2507 0.961 . S
C2494 H2508 0.961 . S
C2495 C2492 1.539 . S
C2495 H2509 0.958 . S
C2495 H2510 0.961 . S
C2495 H2511 0.960 . S
H2496 C2480 0.931 . S
H2497 C2485 0.929 . S
H2498 C2486 0.960 . S
H2499 C2486 0.962 . S
H2500 C2486 0.960 . S
H2501 C2487 0.961 . S
H2502 C2487 0.961 . S
H2503 C2487 0.961 . S
H2504 C2488 0.931 . S
H2505 C2493 0.930 . S
H2506 C2494 0.956 . S
H2507 C2494 0.961 . S
H2508 C2494 0.961 . S
H2509 C2495 0.958 . S
H2510 C2495 0.961 . S
H2511 C2495 0.960 . S
C2512 C2513 1.391 . S
C2512 C2514 1.394 . S
C2512 H2528 0.931 . S
C2513 C2512 1.391 . S
C2513 C2517 1.376 . S
C2514 C2512 1.394 . S
C2514 C2515 1.369 . S
C2514 C2518 1.531 . S
C2515 C2514 1.369 . S
C2515 C2516 1.410 . S
C2515 C2523 1.503 . S
C2516 C2515 1.410 . S
C2516 C2517 1.392 . S
C2516 C2519 1.511 . S
C2517 C2513 1.376 . S
C2517 C2516 1.392 . S
C2517 H2529 0.929 . S
C2518 C2514 1.531 . S
C2518 H2530 0.960 . S
C2518 H2531 0.962 . S
C2518 H2532 0.960 . S
C2519 C2516 1.511 . S
C2519 H2533 0.961 . S
C2519 H2534 0.961 . S
C2519 H2535 0.961 . S
C2520 C2521 1.370 . S
C2520 C2522 1.363 . S
C2520 H2536 0.931 . S
C2521 C2520 1.370 . S
C2521 C2525 1.408 . S
C2522 C2520 1.363 . S
C2522 C2523 1.370 . S
C2522 C2526 1.524 . S
C2523 C2515 1.503 . S
C2523 C2522 1.370 . S
C2523 C2524 1.403 . S
C2524 C2523 1.403 . S
C2524 C2525 1.404 . S
C2524 C2527 1.539 . S
C2525 C2521 1.408 . S
C2525 C2524 1.404 . S
C2525 H2537 0.930 . S
C2526 C2522 1.524 . S
C2526 H2538 0.956 . S
C2526 H2539 0.961 . S
C2526 H2540 0.961 . S
C2527 C2524 1.539 . S
C2527 H2541 0.958 . S
C2527 H2542 0.961 . S
C2527 H2543 0.960 . S
H2528 C2512 0.931 . S
H2529 C2517 0.929 . S
H2530 C2518 0.960 . S
H2531 C2518 0.962 . S
H2532 C2518 0.960 . S
H2533 C2519 0.961 . S
H2534 C2519 0.961 . S
H2535 C2519 0.961 . S
H2536 C2520 0.931 . S
H2537 C2525 0.930 . S
H2538 C2526 0.956 . S
H2539 C2526 0.961 . S
H2540 C2526 0.961 . S
H2541 C2527 0.958 . S
H2542 C2527 0.961 . S
H2543 C2527 0.960 . S
C2544 C2545 1.391 . S
C2544 C2546 1.394 . S
C2544 H2560 0.931 . S
C2545 C2544 1.391 . S
C2545 C2549 1.376 . S
C2546 C2544 1.394 . S
C2546 C2547 1.369 . S
C2546 C2550 1.531 . S
C2547 C2546 1.369 . S
C2547 C2548 1.410 . S
C2547 C2555 1.503 . S
C2548 C2547 1.410 . S
C2548 C2549 1.392 . S
C2548 C2551 1.511 . S
C2549 C2545 1.376 . S
C2549 C2548 1.392 . S
C2549 H2561 0.929 . S
C2550 C2546 1.531 . S
C2550 H2562 0.960 . S
C2550 H2563 0.962 . S
C2550 H2564 0.960 . S
C2551 C2548 1.511 . S
C2551 H2565 0.961 . S
C2551 H2566 0.961 . S
C2551 H2567 0.961 . S
C2552 C2553 1.370 . S
C2552 C2554 1.363 . S
C2552 H2568 0.931 . S
C2553 C2552 1.370 . S
C2553 C2557 1.408 . S
C2554 C2552 1.363 . S
C2554 C2555 1.370 . S
C2554 C2558 1.524 . S
C2555 C2547 1.503 . S
C2555 C2554 1.370 . S
C2555 C2556 1.403 . S
C2556 C2555 1.403 . S
C2556 C2557 1.404 . S
C2556 C2559 1.539 . S
C2557 C2553 1.408 . S
C2557 C2556 1.404 . S
C2557 H2569 0.930 . S
C2558 C2554 1.524 . S
C2558 H2570 0.956 . S
C2558 H2571 0.961 . S
C2558 H2572 0.961 . S
C2559 C2556 1.539 . S
C2559 H2573 0.958 . S
C2559 H2574 0.961 . S
C2559 H2575 0.960 . S
H2560 C2544 0.931 . S
H2561 C2549 0.929 . S
H2562 C2550 0.960 . S
H2563 C2550 0.962 . S
H2564 C2550 0.960 . S
H2565 C2551 0.961 . S
H2566 C2551 0.961 . S
H2567 C2551 0.961 . S
H2568 C2552 0.931 . S
H2569 C2557 0.930 . S
H2570 C2558 0.956 . S
H2571 C2558 0.961 . S
H2572 C2558 0.961 . S
H2573 C2559 0.958 . S
H2574 C2559 0.961 . S
H2575 C2559 0.960 . S
C2576 C2577 1.391 . S
C2576 C2578 1.394 . S
C2576 H2592 0.931 . S
C2577 C2576 1.391 . S
C2577 C2581 1.376 . S
C2578 C2576 1.394 . S
C2578 C2579 1.369 . S
C2578 C2582 1.531 . S
C2579 C2578 1.369 . S
C2579 C2580 1.410 . S
C2579 C2587 1.503 . S
C2580 C2579 1.410 . S
C2580 C2581 1.392 . S
C2580 C2583 1.511 . S
C2581 C2577 1.376 . S
C2581 C2580 1.392 . S
C2581 H2593 0.929 . S
C2582 C2578 1.531 . S
C2582 H2594 0.960 . S
C2582 H2595 0.962 . S
C2582 H2596 0.960 . S
C2583 C2580 1.511 . S
C2583 H2597 0.961 . S
C2583 H2598 0.961 . S
C2583 H2599 0.961 . S
C2584 C2585 1.370 . S
C2584 C2586 1.363 . S
C2584 H2600 0.931 . S
C2585 C2584 1.370 . S
C2585 C2589 1.408 . S
C2586 C2584 1.363 . S
C2586 C2587 1.370 . S
C2586 C2590 1.524 . S
C2587 C2579 1.503 . S
C2587 C2586 1.370 . S
C2587 C2588 1.403 . S
C2588 C2587 1.403 . S
C2588 C2589 1.404 . S
C2588 C2591 1.539 . S
C2589 C2585 1.408 . S
C2589 C2588 1.404 . S
C2589 H2601 0.930 . S
C2590 C2586 1.524 . S
C2590 H2602 0.956 . S
C2590 H2603 0.961 . S
C2590 H2604 0.961 . S
C2591 C2588 1.539 . S
C2591 H2605 0.958 . S
C2591 H2606 0.961 . S
C2591 H2607 0.960 . S
H2592 C2576 0.931 . S
H2593 C2581 0.929 . S
H2594 C2582 0.960 . S
H2595 C2582 0.962 . S
H2596 C2582 0.960 . S
H2597 C2583 0.961 . S
H2598 C2583 0.961 . S
H2599 C2583 0.961 . S
H2600 C2584 0.931 . S
H2601 C2589 0.930 . S
H2602 C2590 0.956 . S
H2603 C2590 0.961 . S
H2604 C2590 0.961 . S
H2605 C2591 0.958 . S
H2606 C2591 0.961 . S
H2607 C2591 0.960 . S
C2608 C2609 1.391 . S
C2608 C2610 1.394 . S
C2608 H2624 0.931 . S
C2609 C2608 1.391 . S
C2609 C2613 1.376 . S
C2610 C2608 1.394 . S
C2610 C2611 1.369 . S
C2610 C2614 1.531 . S
C2611 C2610 1.369 . S
C2611 C2612 1.410 . S
C2611 C2619 1.503 . S
C2612 C2611 1.410 . S
C2612 C2613 1.392 . S
C2612 C2615 1.511 . S
C2613 C2609 1.376 . S
C2613 C2612 1.392 . S
C2613 H2625 0.929 . S
C2614 C2610 1.531 . S
C2614 H2626 0.960 . S
C2614 H2627 0.962 . S
C2614 H2628 0.960 . S
C2615 C2612 1.511 . S
C2615 H2629 0.961 . S
C2615 H2630 0.961 . S
C2615 H2631 0.961 . S
C2616 C2617 1.370 . S
C2616 C2618 1.363 . S
C2616 H2632 0.931 . S
C2617 C2616 1.370 . S
C2617 C2621 1.408 . S
C2618 C2616 1.363 . S
C2618 C2619 1.370 . S
C2618 C2622 1.524 . S
C2619 C2611 1.503 . S
C2619 C2618 1.370 . S
C2619 C2620 1.403 . S
C2620 C2619 1.403 . S
C2620 C2621 1.404 . S
C2620 C2623 1.539 . S
C2621 C2617 1.408 . S
C2621 C2620 1.404 . S
C2621 H2633 0.930 . S
C2622 C2618 1.524 . S
C2622 H2634 0.956 . S
C2622 H2635 0.961 . S
C2622 H2636 0.961 . S
C2623 C2620 1.539 . S
C2623 H2637 0.958 . S
C2623 H2638 0.961 . S
C2623 H2639 0.960 . S
H2624 C2608 0.931 . S
H2625 C2613 0.929 . S
H2626 C2614 0.960 . S
H2627 C2614 0.962 . S
H2628 C2614 0.960 . S
H2629 C2615 0.961 . S
H2630 C2615 0.961 . S
H2631 C2615 0.961 . S
H2632 C2616 0.931 . S
H2633 C2621 0.930 . S
H2634 C2622 0.956 . S
H2635 C2622 0.961 . S
H2636 C2622 0.961 . S
H2637 C2623 0.958 . S
H2638 C2623 0.961 . S
H2639 C2623 0.960 . S
C2640 C2641 1.391 . S
C2640 C2642 1.394 . S
C2640 H2656 0.931 . S
C2641 C2640 1.391 . S
C2641 C2645 1.376 . S
C2642 C2640 1.394 . S
C2642 C2643 1.369 . S
C2642 C2646 1.531 . S
C2643 C2642 1.369 . S
C2643 C2644 1.410 . S
C2643 C2651 1.503 . S
C2644 C2643 1.410 . S
C2644 C2645 1.392 . S
C2644 C2647 1.511 . S
C2645 C2641 1.376 . S
C2645 C2644 1.392 . S
C2645 H2657 0.929 . S
C2646 C2642 1.531 . S
C2646 H2658 0.960 . S
C2646 H2659 0.962 . S
C2646 H2660 0.960 . S
C2647 C2644 1.511 . S
C2647 H2661 0.961 . S
C2647 H2662 0.961 . S
C2647 H2663 0.961 . S
C2648 C2649 1.370 . S
C2648 C2650 1.363 . S
C2648 H2664 0.931 . S
C2649 C2648 1.370 . S
C2649 C2653 1.408 . S
C2650 C2648 1.363 . S
C2650 C2651 1.370 . S
C2650 C2654 1.524 . S
C2651 C2643 1.503 . S
C2651 C2650 1.370 . S
C2651 C2652 1.403 . S
C2652 C2651 1.403 . S
C2652 C2653 1.404 . S
C2652 C2655 1.539 . S
C2653 C2649 1.408 . S
C2653 C2652 1.404 . S
C2653 H2665 0.930 . S
C2654 C2650 1.524 . S
C2654 H2666 0.956 . S
C2654 H2667 0.961 . S
C2654 H2668 0.961 . S
C2655 C2652 1.539 . S
C2655 H2669 0.958 . S
C2655 H2670 0.961 . S
C2655 H2671 0.960 . S
H2656 C2640 0.931 . S
H2657 C2645 0.929 . S
H2658 C2646 0.960 . S
H2659 C2646 0.962 . S
H2660 C2646 0.960 . S
H2661 C2647 0.961 . S
H2662 C2647 0.961 . S
H2663 C2647 0.961 . S
H2664 C2648 0.931 . S
H2665 C2653 0.930 . S
H2666 C2654 0.956 . S
H2667 C2654 0.961 . S
H2668 C2654 0.961 . S
H2669 C2655 0.958 . S
H2670 C2655 0.961 . S
H2671 C2655 0.960 . S
C2672 C2673 1.391 . S
C2672 C2674 1.394 . S
C2672 H2688 0.931 . S
C2673 C2672 1.391 . S
C2673 C2677 1.376 . S
C2674 C2672 1.394 . S
C2674 C2675 1.369 . S
C2674 C2678 1.531 . S
C2675 C2674 1.369 . S
C2675 C2676 1.410 . S
C2675 C2683 1.503 . S
C2676 C2675 1.410 . S
C2676 C2677 1.392 . S
C2676 C2679 1.511 . S
C2677 C2673 1.376 . S
C2677 C2676 1.392 . S
C2677 H2689 0.929 . S
C2678 C2674 1.531 . S
C2678 H2690 0.960 . S
C2678 H2691 0.962 . S
C2678 H2692 0.960 . S
C2679 C2676 1.511 . S
C2679 H2693 0.961 . S
C2679 H2694 0.961 . S
C2679 H2695 0.961 . S
C2680 C2681 1.370 . S
C2680 C2682 1.363 . S
C2680 H2696 0.931 . S
C2681 C2680 1.370 . S
C2681 C2685 1.408 . S
C2682 C2680 1.363 . S
C2682 C2683 1.370 . S
C2682 C2686 1.524 . S
C2683 C2675 1.503 . S
C2683 C2682 1.370 . S
C2683 C2684 1.403 . S
C2684 C2683 1.403 . S
C2684 C2685 1.404 . S
C2684 C2687 1.539 . S
C2685 C2681 1.408 . S
C2685 C2684 1.404 . S
C2685 H2697 0.930 . S
C2686 C2682 1.524 . S
C2686 H2698 0.956 . S
C2686 H2699 0.961 . S
C2686 H2700 0.961 . S
C2687 C2684 1.539 . S
C2687 H2701 0.958 . S
C2687 H2702 0.961 . S
C2687 H2703 0.960 . S
H2688 C2672 0.931 . S
H2689 C2677 0.929 . S
H2690 C2678 0.960 . S
H2691 C2678 0.962 . S
H2692 C2678 0.960 . S
H2693 C2679 0.961 . S
H2694 C2679 0.961 . S
H2695 C2679 0.961 . S
H2696 C2680 0.931 . S
H2697 C2685 0.930 . S
H2698 C2686 0.956 . S
H2699 C2686 0.961 . S
H2700 C2686 0.961 . S
H2701 C2687 0.958 . S
H2702 C2687 0.961 . S
H2703 C2687 0.960 . S
C2704 C2705 1.391 . S
C2704 C2706 1.394 . S
C2704 H2720 0.931 . S
C2705 C2704 1.391 . S
C2705 C2709 1.376 . S
C2706 C2704 1.394 . S
C2706 C2707 1.369 . S
C2706 C2710 1.531 . S
C2707 C2706 1.369 . S
C2707 C2708 1.410 . S
C2707 C2715 1.503 . S
C2708 C2707 1.410 . S
C2708 C2709 1.392 . S
C2708 C2711 1.511 . S
C2709 C2705 1.376 . S
C2709 C2708 1.392 . S
C2709 H2721 0.929 . S
C2710 C2706 1.531 . S
C2710 H2722 0.960 . S
C2710 H2723 0.962 . S
C2710 H2724 0.960 . S
C2711 C2708 1.511 . S
C2711 H2725 0.961 . S
C2711 H2726 0.961 . S
C2711 H2727 0.961 . S
C2712 C2713 1.370 . S
C2712 C2714 1.363 . S
C2712 H2728 0.931 . S
C2713 C2712 1.370 . S
C2713 C2717 1.408 . S
C2714 C2712 1.363 . S
C2714 C2715 1.370 . S
C2714 C2718 1.524 . S
C2715 C2707 1.503 . S
C2715 C2714 1.370 . S
C2715 C2716 1.403 . S
C2716 C2715 1.403 . S
C2716 C2717 1.404 . S
C2716 C2719 1.539 . S
C2717 C2713 1.408 . S
C2717 C2716 1.404 . S
C2717 H2729 0.930 . S
C2718 C2714 1.524 . S
C2718 H2730 0.956 . S
C2718 H2731 0.961 . S
C2718 H2732 0.961 . S
C2719 C2716 1.539 . S
C2719 H2733 0.958 . S
C2719 H2734 0.961 . S
C2719 H2735 0.960 . S
H2720 C2704 0.931 . S
H2721 C2709 0.929 . S
H2722 C2710 0.960 . S
H2723 C2710 0.962 . S
H2724 C2710 0.960 . S
H2725 C2711 0.961 . S
H2726 C2711 0.961 . S
H2727 C2711 0.961 . S
H2728 C2712 0.931 . S
H2729 C2717 0.930 . S
H2730 C2718 0.956 . S
H2731 C2718 0.961 . S
H2732 C2718 0.961 . S
H2733 C2719 0.958 . S
H2734 C2719 0.961 . S
H2735 C2719 0.960 . S
C817 C203 0.625 . S
C825 C33 0.604 . S
C849 C67 0.624 . S
C857 C237 0.604 . S
C881 C101 0.600 . S
C889 C271 0.598 . S
C913 C169 0.579 . S
C921 C135 0.581 . S
C945 C305 0.565 . S
C953 C815 0.577 . S
C977 C747 0.625 . S
C985 C339 0.603 . S
C1009 C373 0.620 . S
C1017 C781 0.604 . S
C1041 C577 0.624 . S
C1049 C407 0.601 . S
C1073 C441 0.602 . S
C1081 C713 0.589 . S
C1105 C475 0.589 . S
C1113 C611 0.584 . S
C1137 C645 0.625 . S
C1145 C509 0.603 . S
C1169 C543 0.594 . S
C1177 C679 0.586 . S
C1201 C104 1.892 . S
C1209 C5 1.830 . S
C1233 C39 1.852 . S
C1241 C2 1.892 . S
C1265 C73 1.816 . S
C1273 C36 1.895 . S
C1297 C70 1.885 . S
C1305 C107 1.849 . S
C1329 C172 1.892 . S
C1337 C141 1.831 . S
C1361 C175 1.858 . S
C1369 C206 1.892 . S
C1393 C240 1.891 . S
C1401 C209 1.834 . S
C1425 C138 1.889 . S
C1433 C243 1.839 . S
C1457 C614 1.889 . S
C1465 C277 1.838 . S
C1489 C311 1.812 . S
C1497 C648 1.895 . S
C1521 C682 1.890 . S
C1529 C345 1.836 . S
C1553 C379 1.849 . S
C1561 C580 1.892 . S
C1585 C750 1.888 . S
C1593 C413 1.842 . S
C1617 C447 1.822 . S
C1625 C546 1.894 . S
C1649 C784 1.890 . S
C1657 C481 1.835 . S
C1681 C515 1.854 . S
C1689 C716 1.892 . S
C1713 C308 1.887 . S
C1721 C549 1.844 . S
C1745 C512 1.886 . S
C1753 C583 1.848 . S
C1777 C617 1.847 . S
C1785 C410 1.893 . S
C1809 C651 1.850 . S
C1817 C444 1.892 . S
C1841 C478 1.888 . S
C1849 C685 1.841 . S
C1873 C376 1.889 . S
C1881 C719 1.838 . S
C1905 C274 1.886 . S
C1913 C753 1.848 . S
C1937 C787 1.857 . S
C1945 C342 1.892 . S
C1969 C9 1.365 . S
C1977 C564 1.384 . S
C2001 C802 1.386 . S
C2009 C43 1.375 . S
C2033 C77 1.374 . S
C2041 C734 1.385 . S
C2065 C768 1.377 . S
C2073 C111 1.364 . S
C2097 C145 1.365 . S
C2105 C598 1.384 . S
C2129 C179 1.383 . S
C2137 C632 1.386 . S
C2161 C666 1.387 . S
C2169 C213 1.376 . S
C2193 C700 1.377 . S
C2201 C247 1.364 . S
C2225 C20 1.388 . S
C2233 C281 1.376 . S
C2257 C315 1.346 . S
C2265 C54 1.380 . S
C2289 C349 1.385 . S
C2297 C88 1.386 . S
C2321 C383 1.365 . S
C2329 C122 1.383 . S
C2353 C417 1.348 . S
C2361 C156 1.380 . S
C2385 C451 1.353 . S
C2393 C190 1.382 . S
C2417 C485 1.383 . S
C2425 C224 1.386 . S
C2449 C519 1.364 . S
C2457 C258 1.384 . S
C2481 C292 1.388 . S
C2489 C553 1.376 . S
C2513 C587 1.381 . S
C2521 C428 1.386 . S
C2545 C621 1.373 . S
C2553 C462 1.385 . S
C2577 C496 1.372 . S
C2585 C655 1.360 . S
C2609 C689 1.384 . S
C2617 C530 1.386 . S
C2641 C360 1.371 . S
C2649 C723 1.359 . S
C2673 C394 1.372 . S
C2681 C757 1.359 . S
C2705 C791 1.359 . S
C2713 C326 1.383 . S
