# Generated by pormake.
# Topology ukf, (4)-cn, num edge types: 1
# Building blocks:
#     Node 0, Type 0, BuildingBlock: UXUYUI_clean_sbu_0, # of connection points: 4
#     Node 1, Type 0, BuildingBlock: UXUYUI_clean_sbu_0, # of connection points: 4
#     Node 2, Type 0, BuildingBlock: UXUYUI_clean_sbu_0, # of connection points: 4
#     Node 3, Type 0, BuildingBlock: UXUYUI_clean_sbu_0, # of connection points: 4
#     Node 4, Type 0, BuildingBlock: UXUYUI_clean_sbu_0, # of connection points: 4
#     Node 5, Type 0, BuildingBlock: UXUYUI_clean_sbu_0, # of connection points: 4
#     Node 6, Type 0, BuildingBlock: UXUYUI_clean_sbu_0, # of connection points: 4
#     Node 7, Type 0, BuildingBlock: UXUYUI_clean_sbu_0, # of connection points: 4
#     Node 8, Type 0, BuildingBlock: UXUYUI_clean_sbu_0, # of connection points: 4
#     Node 9, Type 0, BuildingBlock: UXUYUI_clean_sbu_0, # of connection points: 4
#     Node 10, Type 0, BuildingBlock: UXUYUI_clean_sbu_0, # of connection points: 4
#     Node 11, Type 0, BuildingBlock: UXUYUI_clean_sbu_0, # of connection points: 4
#     Edge 12, Type (0, 0), BuildingBlock: OJICUG_clean_linker_0, # of connection points: 2
#     Edge 13, Type (0, 0), BuildingBlock: OJICUG_clean_linker_0, # of connection points: 2
#     Edge 14, Type (0, 0), BuildingBlock: OJICUG_clean_linker_0, # of connection points: 2
#     Edge 15, Type (0, 0), BuildingBlock: OJICUG_clean_linker_0, # of connection points: 2
#     Edge 16, Type (0, 0), BuildingBlock: OJICUG_clean_linker_0, # of connection points: 2
#     Edge 17, Type (0, 0), BuildingBlock: OJICUG_clean_linker_0, # of connection points: 2
#     Edge 18, Type (0, 0), BuildingBlock: OJICUG_clean_linker_0, # of connection points: 2
#     Edge 19, Type (0, 0), BuildingBlock: OJICUG_clean_linker_0, # of connection points: 2
#     Edge 20, Type (0, 0), BuildingBlock: OJICUG_clean_linker_0, # of connection points: 2
#     Edge 21, Type (0, 0), BuildingBlock: OJICUG_clean_linker_0, # of connection points: 2
#     Edge 22, Type (0, 0), BuildingBlock: OJICUG_clean_linker_0, # of connection points: 2
#     Edge 23, Type (0, 0), BuildingBlock: OJICUG_clean_linker_0, # of connection points: 2
#     Edge 24, Type (0, 0), BuildingBlock: OJICUG_clean_linker_0, # of connection points: 2
#     Edge 25, Type (0, 0), BuildingBlock: OJICUG_clean_linker_0, # of connection points: 2
#     Edge 26, Type (0, 0), BuildingBlock: OJICUG_clean_linker_0, # of connection points: 2
#     Edge 27, Type (0, 0), BuildingBlock: OJICUG_clean_linker_0, # of connection points: 2
#     Edge 28, Type (0, 0), BuildingBlock: OJICUG_clean_linker_0, # of connection points: 2
#     Edge 29, Type (0, 0), BuildingBlock: OJICUG_clean_linker_0, # of connection points: 2
#     Edge 30, Type (0, 0), BuildingBlock: OJICUG_clean_linker_0, # of connection points: 2
#     Edge 31, Type (0, 0), BuildingBlock: OJICUG_clean_linker_0, # of connection points: 2
#     Edge 32, Type (0, 0), BuildingBlock: OJICUG_clean_linker_0, # of connection points: 2
#     Edge 33, Type (0, 0), BuildingBlock: OJICUG_clean_linker_0, # of connection points: 2
#     Edge 34, Type (0, 0), BuildingBlock: OJICUG_clean_linker_0, # of connection points: 2
#     Edge 35, Type (0, 0), BuildingBlock: OJICUG_clean_linker_0, # of connection points: 2
# Relax obj value: 0.271
# Max RMSD: 0.213
# Mean RMSD: 0.213
data_MOF--net-ukf--node1-UXUYUI_clean_sbu_0--edge1-OJICUG_clean_linker_0
_symmetry_space_group_name_H-M    P1
_symmetry_Int_Tables_number       1
_symmetry_cell_setting            triclinic
loop_
_symmetry_equiv_pos_as_xyz
'x, y, z'
_cell_length_a     38.016473
_cell_length_b     38.058793
_cell_length_c     75.926253
_cell_angle_alpha  90.000771
_cell_angle_beta   90.000069
_cell_angle_gamma 119.97433
loop_
_atom_site_label
_atom_site_type_symbol
_atom_site_fract_x
_atom_site_fract_y
_atom_site_fract_z
_atom_type_partial_charge
Li0 Li 0.3984 0.22173 0.0702 0.0
Li1 Li 0.36545 0.20035 0.04042 0.0
Li2 Li 0.43594 0.22847 0.04357 0.0
Li3 Li 0.40992 0.27365 0.04628 0.0
C4 C 0.40997 0.1539 0.05298 0.0
N5 N 0.44604 0.10685 0.04899 0.0
C6 C 0.40368 0.13132 0.03761 0.0
C7 C 0.43449 0.15246 0.06635 0.0
C8 C 0.42224 0.10777 0.03583 0.0
C9 C 0.45246 0.12848 0.06408 0.0
C10 C 0.3198 0.22235 0.06414 0.0
C11 C 0.26008 0.22922 0.06421 0.0
N12 N 0.24181 0.19742 0.07556 0.0
C13 C 0.3006 0.19002 0.07594 0.0
C14 C 0.29958 0.24241 0.05835 0.0
C15 C 0.26109 0.17775 0.0815 0.0
C16 C 0.40168 0.24381 0.10567 0.0
N17 N 0.39291 0.21216 0.09477 0.0
C18 C 0.3788 0.16776 0.1193 0.0
C19 C 0.38112 0.17451 0.10115 0.0
C20 C 0.38822 0.2 0.13091 0.0
C21 C 0.39938 0.23835 0.12391 0.0
H22 H 0.41094 0.27339 0.10016 0.0
H23 H 0.37364 0.14975 0.09215 0.0
C24 C 0.32716 0.15029 0.01143 0.0
N25 N 0.32036 0.15686 0.02837 0.0
C26 C 0.30132 0.11351 0.00317 0.0
C27 C 0.26046 0.09135 0.02957 0.0
C28 C 0.28725 0.12866 0.03737 0.0
C29 C 0.26842 0.08287 0.01251 0.0
H30 H 0.35449 0.17217 0.00474 0.0
H31 H 0.28328 0.1336 0.05102 0.0
C32 C 0.48929 0.2869 0.06578 0.0
N33 N 0.57124 0.3223 0.07299 0.0
C34 C 0.51781 0.31476 0.05399 0.0
C35 C 0.50238 0.27724 0.0813 0.0
C36 C 0.55913 0.33224 0.05785 0.0
C37 C 0.54397 0.29544 0.08469 0.0
C38 C 0.39137 0.25333 0.01176 0.0
C39 C 0.41233 0.26864 0.99593 0.0
C40 C 0.35314 0.24955 0.01396 0.0
C41 C 0.39459 0.27974 0.98255 0.0
C42 C 0.33639 0.26094 0.00026 0.0
N43 N 0.35729 0.27568 0.98497 0.0
C44 C 0.48081 0.22357 0.01586 0.0
C45 C 0.50997 0.22411 0.04351 0.0
C46 C 0.51216 0.22205 0.00706 0.0
N47 N 0.48052 0.22516 0.03373 0.0
C48 C 0.54185 0.22231 0.03525 0.0
C49 C 0.54335 0.22169 0.01678 0.0
H50 H 0.45654 0.22333 0.00839 0.0
H51 H 0.50882 0.22463 0.0577 0.0
C52 C 0.41088 0.34733 0.054 0.0
N53 N 0.42379 0.32833 0.04276 0.0
C54 C 0.42747 0.3894 0.05305 0.0
C55 C 0.46933 0.39108 0.02873 0.0
C56 C 0.45189 0.34911 0.03011 0.0
C57 C 0.45784 0.41198 0.04053 0.0
H58 H 0.38895 0.33005 0.06412 0.0
H59 H 0.4623 0.33332 0.02165 0.0
O60 O 0.39265 0.17771 0.05483 0.0
O61 O 0.35876 0.23537 0.05878 0.0
O62 O 0.44872 0.26964 0.06234 0.0
O63 O 0.40876 0.24283 0.02505 0.0
H64 H 0.38497 0.13225 0.0271 0.0
H65 H 0.4403 0.17032 0.07821 0.0
H66 H 0.41779 0.09028 0.02397 0.0
H67 H 0.47174 0.12731 0.07427 0.0
H68 H 0.244 0.24435 0.05978 0.0
H69 H 0.3158 0.17418 0.08057 0.0
H70 H 0.31429 0.26798 0.04945 0.0
H71 H 0.24575 0.15256 0.09053 0.0
H72 H 0.36954 0.13764 0.12419 0.0
H73 H 0.40716 0.26403 0.13243 0.0
H74 H 0.3085 0.10813 0.98999 0.0
H75 H 0.2358 0.06827 0.03731 0.0
H76 H 0.50817 0.32246 0.04191 0.0
H77 H 0.48068 0.25574 0.09057 0.0
H78 H 0.58157 0.35368 0.0488 0.0
H79 H 0.55457 0.28816 0.09662 0.0
H80 H 0.44216 0.2722 0.99404 0.0
H81 H 0.33636 0.23762 0.02602 0.0
H82 H 0.41052 0.29167 0.97025 0.0
H83 H 0.30675 0.25802 0.00179 0.0
H84 H 0.51183 0.22081 0.99281 0.0
H85 H 0.56541 0.22213 0.0432 0.0
H86 H 0.41731 0.40416 0.06228 0.0
H87 H 0.49302 0.40712 0.01907 0.0
Li88 Li 0.13406 0.40591 0.3762 0.0
Li89 Li 0.20687 0.43302 0.3753 0.0
Li90 Li 0.16143 0.35935 0.37181 0.0
Li91 Li 0.17123 0.39212 0.40063 0.0
C92 C 0.1436 0.39094 0.34123 0.0
N93 N 0.09655 0.36385 0.31115 0.0
C94 C 0.15511 0.41506 0.32609 0.0
C95 C 0.10836 0.35295 0.34102 0.0
C96 C 0.13086 0.40087 0.31103 0.0
C97 C 0.08494 0.33979 0.3257 0.0
C98 C 0.20062 0.48489 0.39547 0.0
C99 C 0.259 0.54086 0.40916 0.0
N100 N 0.25294 0.56725 0.39933 0.0
C101 C 0.19477 0.51257 0.38563 0.0
C102 C 0.23281 0.49912 0.40743 0.0
C103 C 0.22162 0.55409 0.38772 0.0
C104 C 0.06268 0.40915 0.3832 0.0
N105 N 0.09365 0.42031 0.37158 0.0
C106 C 0.07571 0.46457 0.35674 0.0
C107 C 0.10005 0.44681 0.3583 0.0
C108 C 0.04444 0.45499 0.36898 0.0
C109 C 0.03738 0.42593 0.38205 0.0
H110 H 0.05875 0.38856 0.39383 0.0
H111 H 0.12567 0.45614 0.34957 0.0
C112 C 0.29244 0.48722 0.3725 0.0
N113 N 0.25501 0.47838 0.36681 0.0
C114 C 0.3271 0.52084 0.36576 0.0
C115 C 0.28391 0.53519 0.34733 0.0
C116 C 0.25018 0.50144 0.35446 0.0
C117 C 0.32307 0.54531 0.35297 0.0
H118 H 0.29546 0.46819 0.3822 0.0
H119 H 0.21998 0.49354 0.35018 0.0
C120 C 0.08625 0.31632 0.39143 0.0
N121 N 0.01974 0.2404 0.39728 0.0
C122 C 0.08864 0.28992 0.40353 0.0
C123 C 0.0498 0.30434 0.38252 0.0
C124 C 0.05475 0.2516 0.40624 0.0
C125 C 0.01658 0.26577 0.38559 0.0
C126 C 0.23489 0.37868 0.39634 0.0
C127 C 0.23106 0.34024 0.39525 0.0
C128 C 0.26197 0.40683 0.40848 0.0
C129 C 0.25414 0.33051 0.40642 0.0
C130 C 0.28446 0.39592 0.41944 0.0
N131 N 0.28011 0.3583 0.4182 0.0
C132 C 0.18626 0.32583 0.34627 0.0
C133 C 0.1385 0.27494 0.36526 0.0
C134 C 0.19475 0.29798 0.33823 0.0
N135 N 0.1592 0.31419 0.35974 0.0
C136 C 0.14624 0.24598 0.35762 0.0
C137 C 0.17545 0.25763 0.34418 0.0
H138 H 0.20294 0.3574 0.34242 0.0
H139 H 0.11766 0.2664 0.37616 0.0
C140 C 0.16932 0.41321 0.43586 0.0
N141 N 0.17322 0.38617 0.42554 0.0
C142 C 0.17294 0.41235 0.45412 0.0
C143 C 0.18333 0.35502 0.45091 0.0
C144 C 0.17928 0.35687 0.43271 0.0
C145 C 0.18062 0.38331 0.46188 0.0
H146 H 0.16379 0.43577 0.42987 0.0
H147 H 0.18174 0.3353 0.42432 0.0
O148 O 0.16695 0.40458 0.35611 0.0
O149 O 0.17534 0.44407 0.39324 0.0
O150 O 0.11885 0.35428 0.38885 0.0
O151 O 0.21242 0.3887 0.38552 0.0
H152 H 0.18243 0.44449 0.32599 0.0
H153 H 0.09938 0.33367 0.35249 0.0
H154 H 0.13933 0.41928 0.29924 0.0
H155 H 0.05757 0.31042 0.32537 0.0
H156 H 0.28415 0.55227 0.4183 0.0
H157 H 0.17009 0.50217 0.37631 0.0
H158 H 0.23759 0.47819 0.41528 0.0
H159 H 0.21762 0.57583 0.38008 0.0
H160 H 0.08283 0.4872 0.34662 0.0
H161 H 0.01327 0.41706 0.39162 0.0
H162 H 0.35665 0.52772 0.37061 0.0
H163 H 0.27933 0.55274 0.33731 0.0
H164 H 0.11649 0.29868 0.41057 0.0
H165 H 0.0471 0.32466 0.37336 0.0
H166 H 0.05631 0.23075 0.41546 0.0
H167 H 0.98826 0.25606 0.37873 0.0
H168 H 0.21047 0.31808 0.38592 0.0
H169 H 0.26528 0.43661 0.40959 0.0
H170 H 0.25138 0.30084 0.40574 0.0
H171 H 0.30531 0.41733 0.42897 0.0
H172 H 0.21801 0.30863 0.32816 0.0
H173 H 0.13052 0.21516 0.36254 0.0
H174 H 0.16973 0.43421 0.46207 0.0
H175 H 0.18951 0.33228 0.45626 0.0
Li176 Li 0.7739 0.20544 0.7053 0.0
Li177 Li 0.72638 0.13198 0.70852 0.0
Li178 Li 0.77606 0.17214 0.73162 0.0
Li179 Li 0.80016 0.15882 0.70367 0.0
C180 C 0.71366 0.18077 0.73816 0.0
N181 N 0.68294 0.18606 0.77043 0.0
C182 C 0.68098 0.14643 0.74566 0.0
C183 C 0.73049 0.21789 0.74703 0.0
C184 C 0.66591 0.14971 0.76199 0.0
C185 C 0.71463 0.21991 0.76335 0.0
C186 C 0.74782 0.1372 0.67329 0.0
C187 C 0.73454 0.07545 0.65874 0.0
N188 N 0.72069 0.08631 0.64441 0.0
C189 C 0.73354 0.14781 0.65842 0.0
C190 C 0.74838 0.10078 0.67348 0.0
C191 C 0.71991 0.12165 0.64394 0.0
C192 C 0.80324 0.27077 0.68126 0.0
N193 N 0.7774 0.25234 0.69495 0.0
C194 C 0.75236 0.29852 0.69292 0.0
C195 C 0.75214 0.26538 0.70084 0.0
C196 C 0.77878 0.3183 0.67878 0.0
C197 C 0.80473 0.3043 0.67304 0.0
H198 H 0.82234 0.25911 0.67663 0.0
H199 H 0.73135 0.24965 0.71151 0.0
C200 C 0.65215 0.05796 0.71421 0.0
N201 N 0.67164 0.09168 0.70399 0.0
C202 C 0.60996 0.0332 0.71307 0.0
C203 C 0.60924 0.07701 0.69018 0.0
C204 C 0.65126 0.10123 0.69196 0.0
C205 C 0.58793 0.04314 0.70117 0.0
H206 H 0.66902 0.05161 0.72394 0.0
H207 H 0.66741 0.12883 0.68436 0.0
C208 C 0.85073 0.24985 0.71386 0.0
N209 N 0.90617 0.33006 0.70647 0.0
C210 C 0.88252 0.25958 0.70205 0.0
C211 C 0.84747 0.28101 0.72206 0.0
C212 C 0.91018 0.30028 0.69846 0.0
C213 C 0.87567 0.32133 0.71809 0.0
C214 C 0.7721 0.0897 0.72654 0.0
C215 C 0.80066 0.09797 0.73982 0.0
C216 C 0.75235 0.05136 0.71869 0.0
C217 C 0.80962 0.06795 0.74478 0.0
C218 C 0.76215 0.02215 0.72401 0.0
N219 N 0.79037 0.031 0.73682 0.0
C220 C 0.76013 0.14534 0.76707 0.0
C221 C 0.81456 0.21249 0.76311 0.0
C222 C 0.76525 0.14894 0.78533 0.0
N223 N 0.7845 0.177 0.75643 0.0
C224 C 0.82056 0.21753 0.78127 0.0
C225 C 0.79563 0.18556 0.79263 0.0
H226 H 0.7365 0.11742 0.76136 0.0
H227 H 0.83381 0.23697 0.75436 0.0
C228 C 0.85231 0.16362 0.67593 0.0
N229 N 0.84314 0.15354 0.69318 0.0
C230 C 0.88986 0.17175 0.66918 0.0
C231 C 0.90681 0.15646 0.69773 0.0
C232 C 0.86915 0.14903 0.70397 0.0
C233 C 0.91839 0.16975 0.68031 0.0
H234 H 0.83207 0.16882 0.66777 0.0
H235 H 0.86217 0.1428 0.71777 0.0
O236 O 0.72963 0.17791 0.72242 0.0
O237 O 0.76067 0.16222 0.68765 0.0
O238 O 0.82301 0.2101 0.7174 0.0
O239 O 0.76236 0.11841 0.72171 0.0
H240 H 0.66765 0.11746 0.73907 0.0
H241 H 0.75579 0.24478 0.74147 0.0
H242 H 0.64077 0.12331 0.76797 0.0
H243 H 0.72757 0.24838 0.7704 0.0
H244 H 0.73484 0.04718 0.6587 0.0
H245 H 0.73285 0.17591 0.65811 0.0
H246 H 0.75961 0.09233 0.68484 0.0
H247 H 0.70869 0.12942 0.63235 0.0
H248 H 0.73208 0.30858 0.6978 0.0
H249 H 0.82516 0.31845 0.66204 0.0
H250 H 0.5946 0.00722 0.72171 0.0
H251 H 0.59334 0.08597 0.681 0.0
H252 H 0.88593 0.23608 0.69571 0.0
H253 H 0.82306 0.27416 0.73117 0.0
H254 H 0.93482 0.30819 0.6893 0.0
H255 H 0.87323 0.34569 0.72422 0.0
H256 H 0.81611 0.12741 0.7461 0.0
H257 H 0.72952 0.04414 0.70865 0.0
H258 H 0.83189 0.07405 0.75494 0.0
H259 H 0.74721 0.99241 0.71799 0.0
H260 H 0.74521 0.12367 0.79365 0.0
H261 H 0.84469 0.24604 0.78635 0.0
H262 H 0.89755 0.18262 0.65577 0.0
H263 H 0.92755 0.15408 0.70677 0.0
Li264 Li 0.63608 0.79978 0.04023 0.0
Li265 Li 0.60244 0.77753 0.06986 0.0
Li266 Li 0.59184 0.72636 0.04577 0.0
Li267 Li 0.56566 0.77129 0.04312 0.0
C268 C 0.68119 0.77815 0.06461 0.0
N269 N 0.75824 0.8041 0.07757 0.0
C270 C 0.69931 0.81116 0.07612 0.0
C271 C 0.70205 0.75803 0.05984 0.0
C272 C 0.73834 0.82391 0.08249 0.0
C273 C 0.74105 0.77171 0.06648 0.0
C274 C 0.59056 0.84535 0.05335 0.0
C275 C 0.54801 0.86979 0.06537 0.0
N276 N 0.55361 0.89184 0.05048 0.0
C277 C 0.59601 0.86837 0.03819 0.0
C278 C 0.56642 0.84608 0.06707 0.0
C279 C 0.57702 0.89162 0.03698 0.0
C280 C 0.67175 0.85112 0.01178 0.0
N281 N 0.68092 0.84329 0.02809 0.0
C282 C 0.74264 0.90736 0.02841 0.0
C283 C 0.71614 0.87003 0.03628 0.0
C284 C 0.73223 0.9173 0.01216 0.0
C285 C 0.69714 0.88798 0.00351 0.0
H286 H 0.643 0.8302 0.00576 0.0
H287 H 0.72235 0.86394 0.04942 0.0
C288 C 0.5961 0.75348 0.10512 0.0
N289 N 0.60689 0.78604 0.09453 0.0
C290 C 0.59734 0.75787 0.1234 0.0
C291 C 0.62127 0.82937 0.11947 0.0
C292 C 0.61979 0.82361 0.10127 0.0
C293 C 0.60967 0.79617 0.13083 0.0
H294 H 0.58619 0.72402 0.09933 0.0
H295 H 0.62859 0.84905 0.0925 0.0
C296 C 0.61191 0.7478 0.01151 0.0
N297 N 0.64837 0.72717 0.98511 0.0
C298 C 0.59251 0.73379 0.99527 0.0
C299 C 0.64983 0.7512 0.0143 0.0
C300 C 0.61143 0.72353 0.9821 0.0
C301 C 0.66778 0.74068 0.0008 0.0
C302 C 0.51158 0.71145 0.06435 0.0
C303 C 0.48463 0.68472 0.05179 0.0
C304 C 0.49652 0.71911 0.07979 0.0
C305 C 0.44288 0.66639 0.0548 0.0
C306 C 0.45455 0.70011 0.08232 0.0
N307 N 0.42884 0.6744 0.06987 0.0
C308 C 0.59021 0.65286 0.05407 0.0
C309 C 0.55179 0.65102 0.02914 0.0
C310 C 0.5737 0.61079 0.05328 0.0
N311 N 0.57851 0.67183 0.04225 0.0
C312 C 0.53446 0.60904 0.02789 0.0
C313 C 0.54462 0.58817 0.0403 0.0
H314 H 0.61101 0.67015 0.06454 0.0
H315 H 0.54226 0.66678 0.02021 0.0
C316 C 0.52033 0.77574 0.01541 0.0
N317 N 0.52104 0.77453 0.03329 0.0
C318 C 0.4888 0.77715 0.00672 0.0
C319 C 0.45978 0.77745 0.035 0.0
C320 C 0.49181 0.77577 0.04316 0.0
C321 C 0.45787 0.77775 0.01654 0.0
H322 H 0.54438 0.77571 0.00786 0.0
H323 H 0.49322 0.77539 0.05735 0.0
O324 O 0.64267 0.76458 0.05851 0.0
O325 O 0.60843 0.82193 0.05467 0.0
O326 O 0.59333 0.75753 0.02457 0.0
O327 O 0.55253 0.72969 0.06169 0.0
H328 H 0.6837 0.82721 0.07986 0.0
H329 H 0.68821 0.73205 0.05112 0.0
H330 H 0.75284 0.84961 0.09131 0.0
H331 H 0.75761 0.75651 0.06286 0.0
H332 H 0.52903 0.87041 0.07584 0.0
H333 H 0.61441 0.86803 0.02741 0.0
H334 H 0.56122 0.82787 0.07876 0.0
H335 H 0.58083 0.90943 0.02529 0.0
H336 H 0.76919 0.92941 0.03558 0.0
H337 H 0.68811 0.89451 0.99095 0.0
H338 H 0.58885 0.73156 0.13161 0.0
H339 H 0.63059 0.85934 0.12456 0.0
H340 H 0.56298 0.73059 0.9929 0.0
H341 H 0.66547 0.76211 0.02668 0.0
H342 H 0.59671 0.7126 0.96949 0.0
H343 H 0.69717 0.74329 0.00279 0.0
H344 H 0.49581 0.67863 0.03974 0.0
H345 H 0.517 0.73974 0.08964 0.0
H346 H 0.42164 0.64585 0.04514 0.0
H347 H 0.44244 0.70587 0.09417 0.0
H348 H 0.58285 0.59606 0.06298 0.0
H349 H 0.51178 0.59296 0.01784 0.0
H350 H 0.48879 0.77809 0.99246 0.0
H351 H 0.4364 0.77777 0.04304 0.0
Li352 Li 0.84082 0.64071 0.37162 0.0
Li353 Li 0.83036 0.60789 0.40045 0.0
Li354 Li 0.86771 0.59384 0.37618 0.0
Li355 Li 0.79506 0.56727 0.37503 0.0
C356 C 0.91502 0.6838 0.39168 0.0
N357 N 0.98013 0.76028 0.3981 0.0
C358 C 0.91087 0.71011 0.40321 0.0
C359 C 0.95246 0.6962 0.38359 0.0
C360 C 0.94409 0.7487 0.40624 0.0
C361 C 0.98496 0.73503 0.38695 0.0
C362 C 0.7675 0.62236 0.39588 0.0
C363 C 0.71756 0.60605 0.41874 0.0
N364 N 0.72284 0.64403 0.41745 0.0
C365 C 0.77231 0.6612 0.39475 0.0
C366 C 0.73977 0.59449 0.40792 0.0
C367 C 0.74948 0.67157 0.40578 0.0
C368 C 0.81448 0.67308 0.3465 0.0
N369 N 0.84325 0.68564 0.35927 0.0
C370 C 0.85811 0.75423 0.35579 0.0
C371 C 0.86571 0.72549 0.36378 0.0
C372 C 0.82729 0.74173 0.34304 0.0
C373 C 0.80606 0.70064 0.33815 0.0
H374 H 0.79655 0.64111 0.34344 0.0
H375 H 0.88814 0.73486 0.37407 0.0
C376 C 0.83175 0.58648 0.43568 0.0
N377 N 0.82798 0.61363 0.42539 0.0
C378 C 0.82803 0.58722 0.45395 0.0
C379 C 0.81772 0.6446 0.45079 0.0
C380 C 0.82184 0.64286 0.43259 0.0
C381 C 0.8204 0.61627 0.46173 0.0
H382 H 0.8373 0.56395 0.42968 0.0
H383 H 0.81937 0.66446 0.42424 0.0
C384 C 0.85923 0.60961 0.34125 0.0
N385 N 0.90729 0.6377 0.31148 0.0
C386 C 0.84767 0.58649 0.32582 0.0
C387 C 0.89506 0.64711 0.34149 0.0
C388 C 0.87243 0.60117 0.31092 0.0
C389 C 0.91898 0.66078 0.32633 0.0
C390 C 0.80007 0.51502 0.39517 0.0
C391 C 0.80545 0.48713 0.38525 0.0
C392 C 0.76768 0.50109 0.40701 0.0
C393 C 0.77796 0.44571 0.38717 0.0
C394 C 0.74084 0.45943 0.40855 0.0
N395 N 0.74647 0.43284 0.39867 0.0
C396 C 0.93874 0.59002 0.38335 0.0
C397 C 0.90149 0.5527 0.35836 0.0
C398 C 0.9639 0.57308 0.3822 0.0
N399 N 0.9079 0.57911 0.37168 0.0
C400 C 0.9257 0.5348 0.35679 0.0
C401 C 0.95685 0.54414 0.36908 0.0
H402 H 0.94268 0.61055 0.39401 0.0
H403 H 0.876 0.54362 0.34957 0.0
C404 C 0.70946 0.51347 0.37194 0.0
N405 N 0.74691 0.52241 0.36623 0.0
C406 C 0.67478 0.48079 0.36469 0.0
C407 C 0.718 0.46748 0.34578 0.0
C408 C 0.75176 0.50017 0.35347 0.0
C409 C 0.67888 0.45758 0.35132 0.0
H410 H 0.70644 0.53193 0.38194 0.0
H411 H 0.78199 0.50795 0.34928 0.0
O412 O 0.88309 0.64557 0.3888 0.0
O413 O 0.78963 0.61168 0.38519 0.0
O414 O 0.83537 0.59548 0.35596 0.0
O415 O 0.82598 0.55575 0.3931 0.0
H416 H 0.88218 0.7011 0.40954 0.0
H417 H 0.95643 0.67601 0.37483 0.0
H418 H 0.9412 0.76948 0.41504 0.0
H419 H 0.01405 0.74506 0.38072 0.0
H420 H 0.69622 0.58485 0.42819 0.0
H421 H 0.79349 0.6832 0.38553 0.0
H422 H 0.73578 0.56444 0.40908 0.0
H423 H 0.75299 0.70155 0.40506 0.0
H424 H 0.87536 0.78565 0.35988 0.0
H425 H 0.78154 0.68935 0.32865 0.0
H426 H 0.83117 0.5653 0.46188 0.0
H427 H 0.81153 0.66733 0.45615 0.0
H428 H 0.8199 0.55746 0.32536 0.0
H429 H 0.90415 0.66562 0.3532 0.0
H430 H 0.86391 0.58353 0.29891 0.0
H431 H 0.94681 0.68978 0.32635 0.0
H432 H 0.83027 0.49732 0.37601 0.0
H433 H 0.76321 0.52219 0.41488 0.0
H434 H 0.7816 0.42381 0.37947 0.0
H435 H 0.71553 0.44826 0.4176 0.0
H436 H 0.98792 0.58177 0.3918 0.0
H437 H 0.9186 0.51227 0.34663 0.0
H438 H 0.6451 0.47432 0.36919 0.0
H439 H 0.72244 0.44998 0.33567 0.0
Li440 Li 0.20005 0.84113 0.70448 0.0
Li441 Li 0.22461 0.82726 0.73213 0.0
Li442 Li 0.27349 0.86737 0.70881 0.0
Li443 Li 0.22658 0.7941 0.70559 0.0
C444 C 0.22804 0.91026 0.72587 0.0
N445 N 0.20824 0.96946 0.73301 0.0
C446 C 0.2012 0.90486 0.73955 0.0
C447 C 0.24532 0.94603 0.716 0.0
C448 C 0.19141 0.93506 0.7429 0.0
C449 C 0.23478 0.97553 0.71977 0.0
C450 C 0.14994 0.74971 0.71429 0.0
C451 C 0.12528 0.67818 0.71813 0.0
N452 N 0.09473 0.66963 0.70656 0.0
C453 C 0.11815 0.74017 0.7025 0.0
C454 C 0.15338 0.71843 0.72226 0.0
C455 C 0.09059 0.69953 0.69875 0.0
C456 C 0.14833 0.83833 0.67703 0.0
N457 N 0.15692 0.84657 0.69444 0.0
C458 C 0.09247 0.84162 0.6994 0.0
C459 C 0.13024 0.84916 0.70554 0.0
C460 C 0.08148 0.83012 0.68176 0.0
C461 C 0.11068 0.8301 0.67037 0.0
H462 H 0.16919 0.83467 0.66862 0.0
H463 H 0.13682 0.85387 0.71943 0.0
C464 C 0.24041 0.85402 0.76755 0.0
N465 N 0.21646 0.82212 0.75693 0.0
C466 C 0.23533 0.85043 0.78581 0.0
C467 C 0.18102 0.78133 0.7818 0.0
C468 C 0.18695 0.78636 0.76364 0.0
C469 C 0.20544 0.81359 0.79314 0.0
H470 H 0.2636 0.88215 0.76181 0.0
H471 H 0.16802 0.76168 0.75491 0.0
C472 C 0.25508 0.86015 0.67346 0.0
N473 N 0.29008 0.90699 0.64387 0.0
C474 C 0.27275 0.84744 0.66068 0.0
C475 C 0.25493 0.89649 0.67116 0.0
C476 C 0.29039 0.87161 0.64582 0.0
C477 C 0.27284 0.91979 0.65611 0.0
C478 C 0.28765 0.81958 0.73823 0.0
C479 C 0.32017 0.85445 0.74548 0.0
C480 C 0.27166 0.78275 0.74727 0.0
C481 C 0.33602 0.85194 0.76173 0.0
C482 C 0.28828 0.78151 0.76351 0.0
N483 N 0.31983 0.81584 0.77035 0.0
C484 C 0.34733 0.94307 0.71298 0.0
C485 C 0.3492 0.89552 0.69339 0.0
C486 C 0.3895 0.96798 0.71174 0.0
N487 N 0.3283 0.90732 0.70407 0.0
C488 C 0.39118 0.91975 0.69153 0.0
C489 C 0.41198 0.956 0.70111 0.0
H490 H 0.3301 0.95117 0.72176 0.0
H491 H 0.33352 0.86625 0.687 0.0
C492 C 0.19736 0.72906 0.68136 0.0
N493 N 0.22319 0.74744 0.69505 0.0
C494 C 0.19599 0.69567 0.67306 0.0
C495 C 0.24847 0.70149 0.69287 0.0
C496 C 0.24857 0.73449 0.70087 0.0
C497 C 0.22205 0.68175 0.67874 0.0
H498 H 0.17813 0.74064 0.6768 0.0
H499 H 0.26931 0.75016 0.71157 0.0
O500 O 0.23837 0.88127 0.72253 0.0
O501 O 0.17757 0.78937 0.71797 0.0
O502 O 0.23812 0.83711 0.68817 0.0
O503 O 0.27091 0.82166 0.72258 0.0
H504 H 0.18773 0.87744 0.74738 0.0
H505 H 0.26686 0.9511 0.70563 0.0
H506 H 0.17044 0.93115 0.75337 0.0
H507 H 0.24783 0.00331 0.7122 0.0
H508 H 0.12783 0.65373 0.72409 0.0
H509 H 0.11471 0.76378 0.69628 0.0
H510 H 0.1779 0.72516 0.73131 0.0
H511 H 0.06594 0.69176 0.68961 0.0
H512 H 0.07122 0.84246 0.70864 0.0
H513 H 0.10348 0.82066 0.65677 0.0
H514 H 0.25499 0.87593 0.7941 0.0
H515 H 0.15727 0.75263 0.78691 0.0
H516 H 0.273 0.8193 0.66228 0.0
H517 H 0.24093 0.90644 0.68084 0.0
H518 H 0.30433 0.86225 0.63584 0.0
H519 H 0.27298 0.94802 0.65416 0.0
H520 H 0.3328 0.88324 0.73874 0.0
H521 H 0.24638 0.75549 0.74192 0.0
H522 H 0.36106 0.87874 0.76752 0.0
H523 H 0.276 0.75327 0.77071 0.0
H524 H 0.4045 0.99577 0.71933 0.0
H525 H 0.40744 0.90912 0.68344 0.0
H526 H 0.17554 0.68154 0.66206 0.0
H527 H 0.26883 0.69148 0.69771 0.0
Li528 Li 0.77896 0.60841 0.59855 0.0
Li529 Li 0.80162 0.64065 0.62747 0.0
Li530 Li 0.77341 0.56719 0.62378 0.0
Li531 Li 0.72776 0.59432 0.62293 0.0
C532 C 0.85618 0.62236 0.60295 0.0
N533 N 0.92246 0.64427 0.58131 0.0
C534 C 0.89018 0.66122 0.60409 0.0
C535 C 0.85605 0.59459 0.59085 0.0
C536 C 0.92336 0.67172 0.59304 0.0
C537 C 0.88978 0.60627 0.58 0.0
C538 C 0.7711 0.68456 0.60763 0.0
C539 C 0.75322 0.73634 0.6125 0.0
N540 N 0.78342 0.76145 0.60137 0.0
C541 C 0.80171 0.71075 0.59613 0.0
C542 C 0.7464 0.6973 0.61578 0.0
C543 C 0.80757 0.74955 0.59318 0.0
C544 C 0.75566 0.58742 0.56335 0.0
N545 N 0.78686 0.61432 0.5736 0.0
C546 C 0.82798 0.64489 0.54813 0.0
C547 C 0.82231 0.64326 0.56634 0.0
C548 C 0.79668 0.61674 0.53723 0.0
C549 C 0.75992 0.58806 0.54508 0.0
H550 H 0.72751 0.56512 0.5694 0.0
H551 H 0.84661 0.66469 0.57465 0.0
C552 C 0.86059 0.67238 0.65253 0.0
N553 N 0.84429 0.68524 0.63992 0.0
C554 C 0.89658 0.69977 0.66093 0.0
C555 C 0.898 0.75378 0.64366 0.0
C556 C 0.86163 0.72521 0.63562 0.0
C557 C 0.91638 0.74098 0.65625 0.0
H558 H 0.84657 0.64034 0.65543 0.0
H559 H 0.84848 0.73482 0.62547 0.0
C560 C 0.71573 0.51566 0.60347 0.0
N561 N 0.68629 0.43345 0.59945 0.0
C562 C 0.68197 0.48768 0.61313 0.0
C563 C 0.73424 0.50181 0.59162 0.0
C564 C 0.66761 0.44625 0.61095 0.0
C565 C 0.71898 0.46013 0.58981 0.0
C566 C 0.75226 0.60923 0.65786 0.0
C567 C 0.74091 0.5859 0.67323 0.0
C568 C 0.75395 0.64674 0.6578 0.0
C569 C 0.73109 0.6004 0.68826 0.0
C570 C 0.74397 0.66023 0.6731 0.0
N571 N 0.7328 0.63696 0.68788 0.0
C572 C 0.80438 0.51264 0.62652 0.0
C573 C 0.7482 0.4989 0.64466 0.0
C574 C 0.80533 0.47902 0.6333 0.0
N575 N 0.776 0.52173 0.63225 0.0
C576 C 0.74809 0.46516 0.65185 0.0
C577 C 0.77694 0.4548 0.64618 0.0
H578 H 0.82636 0.5315 0.61675 0.0
H579 H 0.72608 0.50701 0.64898 0.0
C580 C 0.65301 0.59094 0.616 0.0
N581 N 0.67295 0.5798 0.62756 0.0
C582 C 0.61091 0.574 0.6172 0.0
C583 C 0.61087 0.53531 0.64244 0.0
C584 C 0.65297 0.5532 0.64083 0.0
C585 C 0.58904 0.54485 0.63025 0.0
H586 H 0.66957 0.61161 0.60539 0.0
H587 H 0.66938 0.54393 0.64951 0.0
O588 O 0.82341 0.61154 0.61369 0.0
O589 O 0.76433 0.64616 0.61044 0.0
O590 O 0.73099 0.5564 0.60581 0.0
O591 O 0.76171 0.59526 0.64302 0.0
H592 H 0.89099 0.68315 0.61335 0.0
H593 H 0.83001 0.56451 0.58968 0.0
H594 H 0.9498 0.70172 0.59376 0.0
H595 H 0.88994 0.58515 0.57051 0.0
H596 H 0.73442 0.74663 0.61877 0.0
H597 H 0.82114 0.70147 0.58976 0.0
H598 H 0.72212 0.67722 0.62452 0.0
H599 H 0.83136 0.77022 0.5844 0.0
H600 H 0.85696 0.66735 0.54272 0.0
H601 H 0.73464 0.5663 0.53719 0.0
H602 H 0.90987 0.68829 0.6703 0.0
H603 H 0.91211 0.7853 0.63973 0.0
H604 H 0.66728 0.49781 0.62236 0.0
H605 H 0.76019 0.52299 0.58395 0.0
H606 H 0.6417 0.42428 0.61844 0.0
H607 H 0.73315 0.44901 0.58075 0.0
H608 H 0.73959 0.55684 0.67354 0.0
H609 H 0.76318 0.66539 0.64613 0.0
H610 H 0.72214 0.58261 0.70023 0.0
H611 H 0.74518 0.68924 0.67322 0.0
H612 H 0.82784 0.47194 0.62843 0.0
H613 H 0.72606 0.44781 0.66194 0.0
H614 H 0.59555 0.58283 0.60768 0.0
H615 H 0.59545 0.51262 0.65254 0.0
Li616 Li 0.20691 0.77021 0.95603 0.0
Li617 Li 0.13566 0.72637 0.95409 0.0
Li618 Li 0.17429 0.77613 0.92993 0.0
Li619 Li 0.16532 0.79925 0.95952 0.0
C620 C 0.19727 0.70807 0.93489 0.0
N621 N 0.23852 0.66659 0.92898 0.0
C622 C 0.19777 0.68214 0.94779 0.0
C623 C 0.2175 0.71274 0.91894 0.0
C624 C 0.2189 0.66151 0.94457 0.0
C625 C 0.23823 0.69152 0.91621 0.0
C626 C 0.13949 0.74888 0.9884 0.0
C627 C 0.07628 0.74048 0.99954 0.0
N628 N 0.08459 0.73046 0.01558 0.0
C629 C 0.14734 0.73845 0.005 0.0
C630 C 0.1036 0.74985 0.98563 0.0
C631 C 0.11923 0.72925 0.01857 0.0
C632 C 0.25988 0.77908 0.98303 0.0
N633 N 0.25521 0.77353 0.96532 0.0
C634 C 0.31757 0.77287 0.96315 0.0
C635 C 0.28343 0.77085 0.9553 0.0
C636 C 0.32271 0.77768 0.98149 0.0
C637 C 0.29339 0.78105 0.99144 0.0
H638 H 0.23741 0.78182 0.99067 0.0
H639 H 0.27963 0.76725 0.94121 0.0
C640 C 0.06348 0.65284 0.94643 0.0
N641 N 0.0944 0.672 0.95812 0.0
C642 C 0.03785 0.61081 0.9474 0.0
C643 C 0.07572 0.60947 0.97271 0.0
C644 C 0.10039 0.65145 0.97132 0.0
C645 C 0.04451 0.58837 0.96039 0.0
H646 H 0.05987 0.66993 0.9359 0.0
H647 H 0.12578 0.66736 0.9802 0.0
C648 C 0.25602 0.84226 0.94344 0.0
N649 N 0.33981 0.88501 0.94131 0.0
C650 C 0.27892 0.87067 0.9564 0.0
C651 C 0.27577 0.83569 0.92938 0.0
C652 C 0.32124 0.89191 0.9551 0.0
C653 C 0.31814 0.85762 0.92853 0.0
C654 C 0.10468 0.78471 0.93382 0.0
C655 C 0.12934 0.82271 0.92617 0.0
C656 C 0.06248 0.7669 0.93292 0.0
C657 C 0.11128 0.84232 0.91772 0.0
C658 C 0.04558 0.78753 0.9244 0.0
N659 N 0.07012 0.82448 0.91702 0.0
C660 C 0.15492 0.75175 0.89465 0.0
C661 C 0.20217 0.82174 0.89828 0.0
C662 C 0.15769 0.75592 0.87635 0.0
N663 N 0.17732 0.78435 0.90516 0.0
C664 C 0.20606 0.82726 0.88007 0.0
C665 C 0.1839 0.79401 0.86881 0.0
H666 H 0.13527 0.72241 0.90053 0.0
H667 H 0.21949 0.84723 0.90694 0.0
C668 C 0.19306 0.85547 0.98555 0.0
N669 N 0.1652 0.84241 0.97237 0.0
C670 C 0.20543 0.89256 0.99373 0.0
C671 C 0.15731 0.90061 0.97587 0.0
C672 C 0.14589 0.86315 0.96793 0.0
C673 C 0.18882 0.91646 0.98834 0.0
H674 H 0.2078 0.8383 0.98886 0.0
H675 H 0.12331 0.852 0.95765 0.0
O676 O 0.17681 0.72857 0.93776 0.0
O677 O 0.16685 0.75769 0.97502 0.0
O678 O 0.21454 0.82071 0.94459 0.0
O679 O 0.12152 0.76442 0.94182 0.0
H680 H 0.18256 0.67847 0.96025 0.0
H681 H 0.2174 0.73272 0.90883 0.0
H682 H 0.21979 0.64154 0.95448 0.0
H683 H 0.25414 0.69493 0.90396 0.0
H684 H 0.04846 0.74119 0.99757 0.0
H685 H 0.17479 0.73726 0.00737 0.0
H686 H 0.09678 0.75782 0.97295 0.0
H687 H 0.12495 0.7211 0.03147 0.0
H688 H 0.3398 0.77093 0.95492 0.0
H689 H 0.29585 0.7844 0.00562 0.0
H690 H 0.01379 0.59597 0.93778 0.0
H691 H 0.0825 0.59359 0.98278 0.0
H692 H 0.2643 0.87628 0.96736 0.0
H693 H 0.25867 0.81323 0.91943 0.0
H694 H 0.33931 0.9139 0.96507 0.0
H695 H 0.3338 0.85261 0.91778 0.0
H696 H 0.16203 0.83721 0.92699 0.0
H697 H 0.04302 0.73741 0.93874 0.0
H698 H 0.12999 0.8718 0.91179 0.0
H699 H 0.01295 0.77412 0.92361 0.0
H700 H 0.13948 0.72957 0.86822 0.0
H701 H 0.22697 0.85708 0.8749 0.0
H702 H 0.22936 0.90347 0.00351 0.0
H703 H 0.14368 0.91816 0.97144 0.0
Li704 Li 0.40758 0.13187 0.29109 0.0
Li705 Li 0.43275 0.20527 0.29369 0.0
Li706 Li 0.36043 0.15871 0.2959 0.0
Li707 Li 0.39702 0.17066 0.26776 0.0
C708 C 0.38906 0.13698 0.32597 0.0
N709 N 0.35964 0.08486 0.3544 0.0
C710 C 0.40999 0.14777 0.34197 0.0
C711 C 0.3532 0.09972 0.32441 0.0
C712 C 0.39462 0.12099 0.3562 0.0
C713 C 0.3388 0.07379 0.33894 0.0
C714 C 0.46837 0.18011 0.26104 0.0
C715 C 0.50539 0.21871 0.23552 0.0
N716 N 0.50419 0.18506 0.22874 0.0
C717 C 0.46775 0.146 0.25385 0.0
C718 C 0.48759 0.21685 0.25185 0.0
C719 C 0.48597 0.14909 0.2375 0.0
C720 C 0.40892 0.05866 0.28525 0.0
N721 N 0.42206 0.09169 0.29583 0.0
C722 C 0.46874 0.07645 0.31026 0.0
C723 C 0.45082 0.10054 0.30837 0.0
C724 C 0.45747 0.04345 0.29887 0.0
C725 C 0.42651 0.03408 0.28649 0.0
H726 H 0.38656 0.05283 0.27516 0.0
H727 H 0.4613 0.12753 0.31633 0.0
C728 C 0.46856 0.27161 0.31715 0.0
N729 N 0.47603 0.25313 0.30351 0.0
C730 C 0.50035 0.30615 0.32492 0.0
C731 C 0.54689 0.3013 0.30469 0.0
C732 C 0.5142 0.26704 0.29727 0.0
C733 C 0.54022 0.32135 0.31872 0.0
H734 H 0.4379 0.25937 0.32202 0.0
H735 H 0.5194 0.25112 0.28673 0.0
C736 C 0.3197 0.08948 0.27223 0.0
N737 N 0.24451 0.03227 0.25945 0.0
C738 C 0.30042 0.10015 0.25937 0.0
C739 C 0.30097 0.04959 0.27843 0.0
C740 C 0.26234 0.07083 0.25312 0.0
C741 C 0.26289 0.02114 0.27185 0.0
C742 C 0.39966 0.24888 0.28473 0.0
C743 C 0.37794 0.25898 0.29657 0.0
C744 C 0.43343 0.27979 0.27607 0.0
C745 C 0.39073 0.29979 0.29975 0.0
C746 C 0.44532 0.32023 0.27962 0.0
N747 N 0.42392 0.32932 0.2913 0.0
C748 C 0.31427 0.16496 0.3238 0.0
C749 C 0.28091 0.14757 0.29618 0.0
C750 C 0.2849 0.17302 0.33066 0.0
N751 N 0.31239 0.15354 0.30669 0.0
C752 C 0.25071 0.15493 0.30254 0.0
C753 C 0.25338 0.16956 0.31977 0.0
H754 H 0.34039 0.17129 0.33173 0.0
H755 H 0.28073 0.14015 0.28248 0.0
C756 C 0.38623 0.14219 0.23258 0.0
N757 N 0.39272 0.17406 0.2429 0.0
C758 C 0.38402 0.14465 0.2143 0.0
C759 C 0.39492 0.21255 0.21767 0.0
C760 C 0.39668 0.20866 0.23587 0.0
C761 C 0.38859 0.18031 0.20659 0.0
H762 H 0.38288 0.1149 0.23858 0.0
H763 H 0.40151 0.2334 0.24437 0.0
O764 O 0.40404 0.16275 0.31189 0.0
O765 O 0.44967 0.17738 0.27681 0.0
O766 O 0.35738 0.11745 0.27828 0.0
O767 O 0.38787 0.20903 0.2816 0.0
H768 H 0.43787 0.17651 0.34336 0.0
H769 H 0.33656 0.09102 0.31216 0.0
H770 H 0.41051 0.12892 0.36867 0.0
H771 H 0.31104 0.04487 0.33792 0.0
H772 H 0.52007 0.24689 0.22823 0.0
H773 H 0.45306 0.11733 0.2607 0.0
H774 H 0.48845 0.24359 0.25717 0.0
H775 H 0.48549 0.12284 0.23176 0.0
H776 H 0.49275 0.0849 0.31984 0.0
H777 H 0.41685 0.00873 0.27755 0.0
H778 H 0.49374 0.32078 0.33561 0.0
H779 H 0.57717 0.31134 0.29975 0.0
H780 H 0.31443 0.13087 0.25441 0.0
H781 H 0.31575 0.04064 0.28819 0.0
H782 H 0.24696 0.07874 0.24325 0.0
H783 H 0.24799 0.99019 0.27657 0.0
H784 H 0.35149 0.2357 0.30326 0.0
H785 H 0.45067 0.27268 0.26688 0.0
H786 H 0.37426 0.30797 0.30893 0.0
H787 H 0.47163 0.3444 0.27313 0.0
H788 H 0.28881 0.18494 0.3439 0.0
H789 H 0.2268 0.15139 0.2937 0.0
H790 H 0.37848 0.1188 0.20633 0.0
H791 H 0.39918 0.24081 0.21236 0.0
Li792 Li 0.2279 0.43297 0.62389 0.0
Li793 Li 0.27357 0.40583 0.62308 0.0
Li794 Li 0.22258 0.39187 0.59864 0.0
Li795 Li 0.19963 0.35938 0.6275 0.0
C796 C 0.28596 0.48465 0.60369 0.0
N797 N 0.3159 0.56697 0.59974 0.0
C798 C 0.31958 0.51243 0.61347 0.0
C799 C 0.26785 0.49876 0.59175 0.0
C800 C 0.33419 0.55392 0.61133 0.0
C801 C 0.28336 0.54048 0.58998 0.0
C802 C 0.24893 0.39097 0.65803 0.0
C803 C 0.25662 0.33988 0.67351 0.0
N804 N 0.26854 0.36367 0.68815 0.0
C805 C 0.26102 0.41482 0.67325 0.0
C806 C 0.24654 0.35314 0.65818 0.0
C807 C 0.27091 0.40053 0.68833 0.0
C808 C 0.19674 0.48736 0.62658 0.0
N809 N 0.2252 0.4784 0.63232 0.0
C810 C 0.25308 0.53512 0.65184 0.0
C811 C 0.25303 0.50137 0.64471 0.0
C812 C 0.22415 0.54535 0.64617 0.0
C813 C 0.19573 0.52099 0.63332 0.0
H814 H 0.17474 0.4684 0.61685 0.0
H815 H 0.27523 0.49337 0.64903 0.0
C816 C 0.34827 0.40929 0.6161 0.0
N817 N 0.32837 0.4203 0.62773 0.0
C818 C 0.39038 0.42621 0.61725 0.0
C819 C 0.39051 0.46464 0.6426 0.0
C820 C 0.34839 0.44677 0.64104 0.0
C821 C 0.41229 0.45524 0.63034 0.0
H822 H 0.33168 0.38874 0.60545 0.0
H823 H 0.33203 0.45598 0.64978 0.0
C824 C 0.14545 0.37827 0.60288 0.0
N825 N 0.0797 0.35724 0.58102 0.0
C826 C 0.11107 0.33966 0.60398 0.0
C827 C 0.14621 0.40625 0.59073 0.0
C828 C 0.07817 0.32961 0.59281 0.0
C829 C 0.11274 0.39502 0.57977 0.0
C830 C 0.23132 0.31599 0.60788 0.0
C831 C 0.2019 0.28958 0.596 0.0
C832 C 0.25592 0.30385 0.61656 0.0
C833 C 0.19704 0.2511 0.59324 0.0
C834 C 0.25012 0.26513 0.61345 0.0
N835 N 0.22102 0.23976 0.60196 0.0
C836 C 0.24579 0.41286 0.56343 0.0
C837 C 0.17937 0.35665 0.5665 0.0
C838 C 0.24144 0.41205 0.54516 0.0
N839 N 0.21473 0.38587 0.57371 0.0
C840 C 0.1736 0.35486 0.54829 0.0
C841 C 0.20473 0.38312 0.53736 0.0
H842 H 0.27388 0.43535 0.56945 0.0
H843 H 0.15523 0.33513 0.57485 0.0
C844 C 0.14096 0.32665 0.65283 0.0
N845 N 0.15674 0.31448 0.63971 0.0
C846 C 0.10472 0.29901 0.66099 0.0
C847 C 0.10204 0.24612 0.64246 0.0
C848 C 0.13865 0.27491 0.63468 0.0
C849 C 0.08415 0.25828 0.65555 0.0
H850 H 0.15552 0.35844 0.6563 0.0
H851 H 0.15129 0.2659 0.62408 0.0
O852 O 0.27047 0.44386 0.60597 0.0
O853 O 0.23939 0.40471 0.64314 0.0
O854 O 0.17799 0.38862 0.61371 0.0
O855 O 0.23711 0.3541 0.61051 0.0
H856 H 0.33397 0.50211 0.62277 0.0
H857 H 0.24205 0.47775 0.58396 0.0
H858 H 0.36 0.57573 0.61892 0.0
H859 H 0.2695 0.5518 0.58085 0.0
H860 H 0.25489 0.31063 0.67379 0.0
H861 H 0.26286 0.44413 0.6734 0.0
H862 H 0.23667 0.33407 0.64663 0.0
H863 H 0.28044 0.41874 0.70018 0.0
H864 H 0.27514 0.55258 0.66191 0.0
H865 H 0.17315 0.52796 0.62844 0.0
H866 H 0.4057 0.41749 0.60766 0.0
H867 H 0.40597 0.48724 0.65274 0.0
H868 H 0.10974 0.3176 0.6133 0.0
H869 H 0.17254 0.43615 0.58961 0.0
H870 H 0.05144 0.2998 0.5935 0.0
H871 H 0.11308 0.4163 0.57024 0.0
H872 H 0.18266 0.29844 0.58916 0.0
H873 H 0.27937 0.32416 0.62557 0.0
H874 H 0.17415 0.23024 0.58417 0.0
H875 H 0.26884 0.25529 0.62013 0.0
H876 H 0.26661 0.43389 0.53724 0.0
H877 H 0.14467 0.33221 0.54291 0.0
H878 H 0.09183 0.31004 0.67077 0.0
H879 H 0.08732 0.21499 0.63794 0.0
Li880 Li 0.86497 0.27395 0.95385 0.0
Li881 Li 0.79365 0.22929 0.95563 0.0
Li882 Li 0.83547 0.20067 0.95915 0.0
Li883 Li 0.82615 0.22365 0.92939 0.0
C884 C 0.86085 0.25131 0.98815 0.0
N885 N 0.9154 0.27032 0.01552 0.0
C886 C 0.85289 0.26231 0.00461 0.0
C887 C 0.89664 0.25006 0.98563 0.0
C888 C 0.88082 0.2718 0.01827 0.0
C889 C 0.9238 0.25974 -0.00037 0.0
C890 C 0.80298 0.29162 0.93458 0.0
C891 C 0.7622 0.30836 0.91588 0.0
N892 N 0.76188 0.33325 0.92867 0.0
C893 C 0.80244 0.31748 0.9475 0.0
C894 C 0.78284 0.28706 0.91861 0.0
C895 C 0.78139 0.33819 0.94428 0.0
C896 C 0.93703 0.34767 0.94623 0.0
N897 N 0.90605 0.32838 0.95788 0.0
C898 C 0.92447 0.39079 0.97253 0.0
C899 C 0.89989 0.34882 0.97108 0.0
C900 C 0.95575 0.41202 0.96025 0.0
C901 C 0.96257 0.38971 0.94725 0.0
H902 H 0.94078 0.33066 0.9357 0.0
H903 H 0.87446 0.33281 0.97993 0.0
C904 C 0.74064 0.22001 0.98264 0.0
N905 N 0.74522 0.22565 0.96494 0.0
C906 C 0.70715 0.21794 0.99111 0.0
C907 C 0.68276 0.22615 0.96288 0.0
C908 C 0.7169 0.22826 0.95496 0.0
C909 C 0.67775 0.2213 0.98123 0.0
H910 H 0.76317 0.21727 0.99023 0.0
H911 H 0.72062 0.23186 0.94087 0.0
C912 C 0.90127 0.22009 0.93498 0.0
N913 N 0.94756 0.18908 0.92138 0.0
C914 C 0.8833 0.18553 0.92432 0.0
C915 C 0.94278 0.239 0.93866 0.0
C916 C 0.90722 0.1703 0.91758 0.0
C917 C 0.96566 0.22279 0.9317 0.0
C918 C 0.74493 0.15669 0.94394 0.0
C919 C 0.72399 0.12992 0.9577 0.0
C920 C 0.72318 0.16108 0.93009 0.0
C921 C 0.68158 0.10807 0.95741 0.0
C922 C 0.68079 0.13862 0.93026 0.0
N923 N 0.66104 0.11283 0.94382 0.0
C924 C 0.81226 0.14667 0.9864 0.0
C925 C 0.85151 0.13425 0.96574 0.0
C926 C 0.80037 0.1098 0.99471 0.0
N927 N 0.8361 0.15748 0.9718 0.0
C928 C 0.84048 0.09699 0.97376 0.0
C929 C 0.81311 0.08369 0.98795 0.0
H930 H 0.79991 0.16532 0.9908 0.0
H931 H 0.87021 0.14312 0.95411 0.0
C932 C 0.84593 0.24796 0.89411 0.0
N933 N 0.82318 0.21554 0.90465 0.0
C934 C 0.8432 0.24365 0.87581 0.0
C935 C 0.79405 0.17255 0.87961 0.0
C936 C 0.79794 0.1782 0.89782 0.0
C937 C 0.81663 0.2056 0.86831 0.0
H938 H 0.86589 0.27726 0.89995 0.0
H939 H 0.78044 0.15286 0.90653 0.0
O940 O 0.83367 0.24219 0.97467 0.0
O941 O 0.8235 0.27117 0.93742 0.0
O942 O 0.87872 0.23612 0.94142 0.0
O943 O 0.78645 0.17885 0.94411 0.0
H944 H 0.82548 0.26371 0.00679 0.0
H945 H 0.90344 0.24158 0.97307 0.0
H946 H 0.87503 0.28039 0.03106 0.0
H947 H 0.95156 0.25882 0.99785 0.0
H948 H 0.74638 0.30507 0.90361 0.0
H949 H 0.81758 0.32107 0.95997 0.0
H950 H 0.78299 0.26713 0.90848 0.0
H951 H 0.78049 0.35812 0.9542 0.0
H952 H 0.91757 0.40658 0.9826 0.0
H953 H 0.98669 0.40465 0.93767 0.0
H954 H 0.7048 0.21454 0.00529 0.0
H955 H 0.66046 0.22808 0.95469 0.0
H956 H 0.85112 0.17017 0.92159 0.0
H957 H 0.95717 0.26596 0.94679 0.0
H958 H 0.89368 0.14345 0.9094 0.0
H959 H 0.99782 0.23706 0.93446 0.0
H960 H 0.74023 0.12613 0.96853 0.0
H961 H 0.73881 0.18227 0.91951 0.0
H962 H 0.66499 0.08735 0.96801 0.0
H963 H 0.66359 0.14194 0.91969 0.0
H964 H 0.77951 0.10075 0.00573 0.0
H965 H 0.85082 0.07757 0.96814 0.0
H966 H 0.86174 0.26984 0.86765 0.0
H967 H 0.77286 0.14278 0.87448 0.0
Li968 Li 0.56982 0.79484 0.29414 0.0
Li969 Li 0.59635 0.86808 0.29122 0.0
Li970 Li 0.60492 0.82851 0.26765 0.0
Li971 Li 0.64355 0.84193 0.29519 0.0
C972 C 0.53426 0.82117 0.26179 0.0
N973 N 0.49831 0.81845 0.22979 0.0
C974 C 0.53671 0.8563 0.25479 0.0
C975 C 0.5133 0.7846 0.25256 0.0
C976 C 0.51834 0.8543 0.2386 0.0
C977 C 0.49543 0.78388 0.23638 0.0
C978 C 0.60562 0.85951 0.32647 0.0
C979 C 0.64484 0.91824 0.34472 0.0
N980 N 0.6133 0.90445 0.35625 0.0
C981 C 0.57369 0.84574 0.33854 0.0
C982 C 0.64157 0.8959 0.3296 0.0
C983 C 0.57813 0.86897 0.3535 0.0
C984 C 0.53387 0.72931 0.31814 0.0
N985 N 0.5265 0.74801 0.30456 0.0
C986 C 0.45522 0.70213 0.30665 0.0
C987 C 0.4882 0.73525 0.29875 0.0
C988 C 0.4618 0.68206 0.32068 0.0
C989 C 0.50176 0.69579 0.32635 0.0
H990 H 0.56465 0.74073 0.3227 0.0
H991 H 0.4832 0.75117 0.28814 0.0
C992 C 0.59917 0.94444 0.28788 0.0
N993 N 0.58144 0.9079 0.29618 0.0
C994 C 0.58202 0.96943 0.28919 0.0
C995 C 0.53005 0.91956 0.30821 0.0
C996 C 0.54774 0.8953 0.30629 0.0
C997 C 0.5466 0.95669 0.29925 0.0
H998 H 0.62529 0.95318 0.27951 0.0
H999 H 0.53336 0.86544 0.31215 0.0
C1000 C 0.60206 0.75063 0.28514 0.0
N1001 N 0.57721 0.67048 0.29266 0.0
C1002 C 0.62438 0.74097 0.29683 0.0
C1003 C 0.56728 0.71945 0.27716 0.0
C1004 C 0.6113 0.70029 0.30047 0.0
C1005 C 0.55513 0.67914 0.28118 0.0
C1006 C 0.68484 0.9112 0.27434 0.0
C1007 C 0.70628 0.90656 0.26044 0.0
C1008 C 0.70362 0.946 0.28482 0.0
C1009 C 0.74656 0.93655 0.25747 0.0
C1010 C 0.74394 0.97531 0.28142 0.0
N1011 N 0.76441 0.97 0.26795 0.0
C1012 C 0.61567 0.85593 0.23234 0.0
C1013 C 0.60099 0.78804 0.23592 0.0
C1014 C 0.61674 0.85258 0.21405 0.0
N1015 N 0.60766 0.82379 0.24281 0.0
C1016 C 0.60145 0.78324 0.21773 0.0
C1017 C 0.60928 0.81574 0.20655 0.0
H1018 H 0.62092 0.88404 0.23822 0.0
H1019 H 0.59519 0.76317 0.24454 0.0
C1020 C 0.69266 0.83915 0.3225 0.0
N1021 N 0.69218 0.84731 0.30509 0.0
C1022 C 0.72212 0.83093 0.32912 0.0
C1023 C 0.75166 0.8424 0.30006 0.0
C1024 C 0.72136 0.84986 0.29396 0.0
C1025 C 0.75128 0.83094 0.3177 0.0
H1026 H 0.66822 0.83559 0.33095 0.0
H1027 H 0.71938 0.85454 0.28006 0.0
O1028 O 0.55311 0.82276 0.27736 0.0
O1029 O 0.60164 0.8374 0.31166 0.0
O1030 O 0.61409 0.79034 0.28156 0.0
O1031 O 0.64527 0.88239 0.27733 0.0
H1032 H 0.55299 0.8849 0.26166 0.0
H1033 H 0.51127 0.75717 0.25771 0.0
H1034 H 0.52018 0.88129 0.23299 0.0
H1035 H 0.47938 0.75585 0.22905 0.0
H1036 H 0.67247 0.94651 0.34731 0.0
H1037 H 0.54571 0.81752 0.33629 0.0
H1038 H 0.6667 0.90664 0.32049 0.0
H1039 H 0.5536 0.8588 0.36292 0.0
H1040 H 0.42488 0.69228 0.30182 0.0
H1041 H 0.50801 0.6814 0.33726 0.0
H1042 H 0.59564 0.99789 0.28207 0.0
H1043 H 0.50239 0.90833 0.31583 0.0
H1044 H 0.65147 0.76452 0.30306 0.0
H1045 H 0.54941 0.72628 0.2682 0.0
H1046 H 0.62824 0.69242 0.30954 0.0
H1047 H 0.52808 0.65476 0.27522 0.0
H1048 H 0.69212 0.87988 0.25215 0.0
H1049 H 0.68718 0.95047 0.29539 0.0
H1050 H 0.76363 0.93322 0.24685 0.0
H1051 H 0.75892 0.00235 0.28946 0.0
H1052 H 0.62261 0.87825 0.20587 0.0
H1053 H 0.59612 0.75453 0.21247 0.0
H1054 H 0.71995 0.82153 0.34272 0.0
H1055 H 0.77372 0.84327 0.29078 0.0
C1056 C 0.18494 0.97609 0.00063 0.0
C1057 C 0.20799 0.95929 0.99419 0.0
H1058 H 0.18607 0.0287 0.0117 0.0
C1059 C 0.25039 0.98381 0.99319 0.0
H1060 H 0.15218 0.95778 0.00148 0.0
C1061 C 0.26951 0.02402 0.99876 0.0
C1062 C 0.24679 0.04081 0.00556 0.0
H1063 H 0.26889 0.97184 0.98806 0.0
H1064 H 0.30235 0.04173 0.99815 0.0
C1065 C 0.20427 0.01648 0.00648 0.0
C1066 C 0.19897 0.23026 0.31958 0.0
C1067 C 0.18885 0.22947 0.33743 0.0
H1068 H 0.22742 0.21249 0.30008 0.0
C1069 C 0.19585 0.20485 0.34908 0.0
H1070 H 0.19353 0.24848 0.31021 0.0
C1071 C 0.21481 0.18353 0.3432 0.0
C1072 C 0.22721 0.18635 0.32555 0.0
H1073 H 0.18868 0.20373 0.36294 0.0
H1074 H 0.22094 0.1659 0.35262 0.0
C1075 C 0.21799 0.2091 0.31372 0.0
C1076 C 0.99334 0.21073 0.68618 0.0
C1077 C 0.96139 0.18677 0.67453 0.0
H1078 H 0.05708 0.2511 0.68946 0.0
C1079 C 0.97098 0.18291 0.65699 0.0
H1080 H 0.98732 0.21496 0.69971 0.0
C1081 C 0.0112 0.20434 0.65103 0.0
C1082 C 0.04275 0.23011 0.66247 0.0
H1083 H 0.94725 0.16435 0.64771 0.0
H1084 H 0.01722 0.20236 0.63723 0.0
C1085 C 0.03345 0.23197 0.68024 0.0
C1086 C 0.73149 0.97832 0.00089 0.0
C1087 C 0.75398 0.95959 0.00553 0.0
H1088 H 0.73265 0.03196 0.99179 0.0
C1089 C 0.79659 0.98204 0.00443 0.0
H1090 H 0.69866 0.96201 0.00186 0.0
C1091 C 0.81622 0.02242 0.99856 0.0
C1092 C 0.79351 0.04111 0.99416 0.0
H1093 H 0.81459 0.96827 0.00797 0.0
H1094 H 0.84905 0.0392 0.99772 0.0
C1095 C 0.75098 0.01855 0.99534 0.0
C1096 C 0.79168 0.81877 0.34091 0.0
C1097 C 0.77704 0.81369 0.32352 0.0
H1098 H 0.81907 0.80012 0.36072 0.0
C1099 C 0.78364 0.78835 0.31213 0.0
H1100 H 0.78766 0.83844 0.34998 0.0
C1101 C 0.80225 0.76698 0.3182 0.0
C1102 C 0.8145 0.77004 0.33586 0.0
H1103 H 0.77246 0.78313 0.29873 0.0
H1104 H 0.80565 0.74681 0.30919 0.0
C1105 C 0.81017 0.79717 0.34701 0.0
C1106 C 0.96658 0.76585 0.68111 0.0
C1107 C 0.95745 0.76918 0.66347 0.0
H1108 H 0.01247 0.78186 0.70061 0.0
C1109 C 0.98893 0.79652 0.65239 0.0
H1110 H 0.94298 0.74548 0.69007 0.0
C1111 C 0.029 0.81811 0.65853 0.0
C1112 C 0.03849 0.81282 0.6759 0.0
H1113 H 0.98302 0.79967 0.6387 0.0
H1114 H 0.05272 0.83793 0.6495 0.0
C1115 C 0.00653 0.78724 0.68722 0.0
C1116 C 0.62344 0.19461 0.00448 0.0
C1117 C 0.64259 0.22057 0.9901 0.0
H1118 H 0.57694 0.17453 0.02416 0.0
C1119 C 0.62855 0.24662 0.98453 0.0
H1120 H 0.63306 0.1737 0.00894 0.0
C1121 C 0.59624 0.2468 0.99315 0.0
C1122 C 0.57741 0.22113 0.00761 0.0
H1123 H 0.64306 0.26753 0.97371 0.0
H1124 H 0.58646 0.26762 0.98872 0.0
C1125 C 0.59129 0.19502 0.0132 0.0
C1126 C 0.39452 0.579 0.34135 0.0
C1127 C 0.35936 0.58088 0.34534 0.0
H1128 H 0.45441 0.60946 0.33031 0.0
C1129 C 0.35874 0.61675 0.34161 0.0
H1130 H 0.39581 0.55165 0.34384 0.0
C1131 C 0.39211 0.64961 0.33373 0.0
C1132 C 0.42697 0.64749 0.32951 0.0
H1133 H 0.33249 0.61953 0.34484 0.0
H1134 H 0.39073 0.67686 0.33105 0.0
C1135 C 0.42804 0.61203 0.33356 0.0
C1136 C 0.74156 0.35078 0.66575 0.0
C1137 C 0.77854 0.35282 0.6699 0.0
H1138 H 0.71206 0.38085 0.65461 0.0
C1139 C 0.81509 0.38812 0.6657 0.0
H1140 H 0.71292 0.32365 0.66856 0.0
C1141 C 0.81464 0.42109 0.65782 0.0
C1142 C 0.77761 0.41929 0.6539 0.0
H1143 H 0.84403 0.39062 0.66889 0.0
H1144 H 0.84331 0.44832 0.65521 0.0
C1145 C 0.7411 0.38357 0.65779 0.0
C1146 C 0.37197 0.7524 0.98462 0.0
C1147 C 0.35797 0.77843 0.99027 0.0
H1148 H 0.41423 0.73155 0.98862 0.0
C1149 C 0.37735 0.8045 0.0046 0.0
H1150 H 0.35728 0.73141 0.97385 0.0
C1151 C 0.40973 0.80425 0.01317 0.0
C1152 C 0.4236 0.77817 0.0075 0.0
H1153 H 0.36775 0.82539 0.00911 0.0
H1154 H 0.42427 0.82484 0.02408 0.0
C1155 C 0.4045 0.75236 0.99311 0.0
C1156 C 0.57656 0.36248 0.34546 0.0
C1157 C 0.57488 0.35724 0.32708 0.0
H1158 H 0.61092 0.39819 0.36755 0.0
C1159 C 0.60718 0.38597 0.31675 0.0
H1160 H 0.55249 0.34062 0.35383 0.0
C1161 C 0.64074 0.41864 0.32463 0.0
C1162 C 0.64266 0.4235 0.343 0.0
H1163 H 0.60652 0.3833 0.30254 0.0
H1164 H 0.66514 0.44029 0.31632 0.0
C1165 C 0.61006 0.39536 0.35334 0.0
C1166 C 0.18635 0.57899 0.65777 0.0
C1167 C 0.22341 0.58087 0.65384 0.0
H1168 H 0.15688 0.60937 0.66885 0.0
C1169 C 0.25989 0.61666 0.65769 0.0
H1170 H 0.1577 0.55171 0.65519 0.0
C1171 C 0.25936 0.64943 0.66564 0.0
C1172 C 0.22235 0.6473 0.66982 0.0
H1173 H 0.28894 0.61944 0.6545 0.0
H1174 H 0.28798 0.67661 0.66842 0.0
C1175 C 0.18583 0.61194 0.66564 0.0
C1176 C 0.36919 0.20994 0.16136 0.0
C1177 C 0.38715 0.19387 0.15023 0.0
H1178 H 0.35449 0.2173 0.18778 0.0
C1179 C 0.40475 0.17251 0.15769 0.0
H1180 H 0.35492 0.22608 0.15595 0.0
C1181 C 0.40497 0.16785 0.17594 0.0
C1182 C 0.38729 0.18419 0.18713 0.0
H1183 H 0.41927 0.16023 0.14943 0.0
H1184 H 0.41985 0.15225 0.18127 0.0
C1185 C 0.36908 0.20499 0.1796 0.0
C1186 C 0.17118 0.34633 0.49052 0.0
C1187 C 0.18654 0.38307 0.48123 0.0
H1188 H 0.16537 0.31744 0.51539 0.0
C1189 C 0.20807 0.41974 0.49056 0.0
H1190 H 0.15412 0.31752 0.4838 0.0
C1191 C 0.21397 0.41969 0.5087 0.0
C1192 C 0.19868 0.38298 0.518 0.0
H1193 H 0.22082 0.44861 0.4838 0.0
H1194 H 0.23016 0.44853 0.51548 0.0
C1195 C 0.17722 0.34628 0.50868 0.0
C1196 C 0.80615 0.16494 0.84067 0.0
C1197 C 0.81182 0.20058 0.84886 0.0
H1198 H 0.79677 0.13234 0.81649 0.0
C1199 C 0.81217 0.23118 0.83834 0.0
H1200 H 0.80635 0.14101 0.8483 0.0
C1201 C 0.80705 0.22631 0.82012 0.0
C1202 C 0.80118 0.19062 0.81198 0.0
H1203 H 0.81564 0.25868 0.8442 0.0
H1204 H 0.80697 0.25023 0.81241 0.0
C1205 C 0.80072 0.15996 0.82244 0.0
C1206 C 0.64041 0.83642 0.15851 0.0
C1207 C 0.60977 0.80128 0.15026 0.0
H1208 H 0.66437 0.86844 0.18275 0.0
C1209 C 0.5789 0.77114 0.16073 0.0
H1210 H 0.66499 0.85997 0.15092 0.0
C1211 C 0.57881 0.77588 0.17896 0.0
C1212 C 0.6094 0.81098 0.18717 0.0
H1213 H 0.55436 0.74408 0.15482 0.0
H1214 H 0.5544 0.75229 0.18663 0.0
C1215 C 0.64013 0.84128 0.17676 0.0
C1216 C 0.82418 0.65344 0.50853 0.0
C1217 C 0.80261 0.61678 0.51787 0.0
H1218 H 0.84726 0.6821 0.48363 0.0
C1219 C 0.78712 0.58003 0.50859 0.0
H1220 H 0.83619 0.6823 0.51523 0.0
C1221 C 0.79294 0.57991 0.49043 0.0
C1222 C 0.81456 0.61654 0.48109 0.0
H1223 H 0.77083 0.55122 0.51537 0.0
H1224 H 0.78006 0.55102 0.48368 0.0
C1225 C 0.83012 0.65332 0.49037 0.0
C1226 C 0.18922 0.76851 0.83895 0.0
C1227 C 0.18883 0.79889 0.84936 0.0
H1228 H 0.19515 0.74954 0.81311 0.0
C1229 C 0.19394 0.83421 0.84106 0.0
H1230 H 0.1862 0.74127 0.8449 0.0
C1231 C 0.19952 0.83909 0.82284 0.0
C1232 C 0.1998 0.80865 0.81249 0.0
H1233 H 0.19317 0.85795 0.84861 0.0
H1234 H 0.203 0.86645 0.81681 0.0
C1235 C 0.1945 0.77328 0.82073 0.0
C1236 C 0.5128 0.52117 0.0244 0.0
C1237 C 0.5231 0.54303 0.04031 0.0
H1238 H 0.48341 0.46295 0.01195 0.0
C1239 C 0.51115 0.52137 0.05626 0.0
H1240 H 0.52172 0.53682 0.01187 0.0
C1241 C 0.48957 0.47898 0.05631 0.0
C1242 C 0.47924 0.45712 0.04041 0.0
H1243 H 0.51794 0.53715 0.06876 0.0
H1244 H 0.48154 0.46336 0.06885 0.0
C1245 C 0.49109 0.47877 0.02445 0.0
C1246 C 0.99028 0.51036 0.38481 0.0
C1247 C 0.9799 0.52189 0.36891 0.0
H1248 H 0.01893 0.48095 0.39732 0.0
C1249 C 0.99046 0.51068 0.35296 0.0
H1250 H 0.98206 0.51774 0.39736 0.0
C1251 C 0.01085 0.48857 0.35293 0.0
C1252 C 0.02132 0.47717 0.36886 0.0
H1253 H 0.98324 0.51923 0.34045 0.0
H1254 H 0.01817 0.48019 0.34041 0.0
C1255 C 0.0108 0.48848 0.38479 0.0
C1256 C 0.52115 0.01158 0.71695 0.0
C1257 C 0.54285 0.02024 0.70105 0.0
H1258 H 0.46281 0.985 0.72938 0.0
C1259 C 0.52122 0.00839 0.6851 0.0
H1260 H 0.53703 0.02083 0.72943 0.0
C1261 C 0.47872 0.98784 0.68508 0.0
C1262 C 0.45705 0.97937 0.70099 0.0
H1263 H 0.53718 0.01469 0.67265 0.0
H1264 H 0.46277 0.97875 0.67261 0.0
C1265 C 0.47872 0.99159 0.71691 0.0
C1266 C 0.52196 0.5111 0.64637 0.0
C1267 C 0.54374 0.52254 0.63042 0.0
H1268 H 0.46375 0.48031 0.65891 0.0
C1269 C 0.52183 0.51114 0.61452 0.0
H1270 H 0.53774 0.51954 0.65888 0.0
C1271 C 0.47942 0.48913 0.61454 0.0
C1272 C 0.4576 0.47757 0.63046 0.0
H1273 H 0.53743 0.51871 0.60196 0.0
H1274 H 0.46375 0.48168 0.602 0.0
C1275 C 0.47945 0.48887 0.64639 0.0
C1276 C 0.0103 0.52134 0.97636 0.0
C1277 C 0.02099 0.54318 0.96044 0.0
H1278 H 0.98245 0.46316 0.98884 0.0
C1279 C 0.0105 0.52145 0.9445 0.0
H1280 H 0.01758 0.53699 0.9889 0.0
C1281 C 0.9898 0.47907 0.94447 0.0
C1282 C 0.97923 0.45721 0.96037 0.0
H1283 H 0.0188 0.53715 0.93198 0.0
H1284 H 0.98158 0.46348 0.93192 0.0
C1285 C 0.9898 0.47892 0.97633 0.0
C1286 C 0.51039 0.98733 0.31515 0.0
C1287 C 0.52505 0.98018 0.29934 0.0
H1288 H 0.47753 0.01303 0.32741 0.0
C1289 C 0.51707 0.99373 0.28342 0.0
H1290 H 0.51611 0.9772 0.3276 0.0
C1291 C 0.49456 0.01364 0.28329 0.0
C1292 C 0.47998 0.02089 0.29909 0.0
H1293 H 0.52753 0.98818 0.27102 0.0
H1294 H 0.48901 0.02385 0.27082 0.0
C1295 C 0.48839 0.00782 0.31504 0.0
loop_
_geom_bond_atom_site_label_1
_geom_bond_atom_site_label_2
_geom_bond_distance
_geom_bond_site_symmetry_2
_ccdc_geom_bond_type
Li0 N17 1.990 . S
Li0 O60 1.956 . S
Li0 O61 1.970 . S
Li0 O62 1.961 . S
Li1 N25 1.990 . S
Li1 O60 1.970 . S
Li1 O61 1.956 . S
Li1 O63 1.961 . S
Li2 N47 1.990 . S
Li2 O60 1.961 . S
Li2 O62 1.956 . S
Li2 O63 1.970 . S
Li3 N53 1.990 . S
Li3 O61 1.961 . S
Li3 O62 1.970 . S
Li3 O63 1.956 . S
C4 C6 1.348 . S
C4 C7 1.356 . S
C4 O60 1.325 . S
N5 C8 1.314 . S
N5 C9 1.279 . S
C6 C4 1.348 . S
C6 C8 1.353 . S
C6 H64 0.929 . S
C7 C4 1.356 . S
C7 C9 1.358 . S
C7 H65 0.930 . S
C8 N5 1.314 . S
C8 C6 1.353 . S
C8 H66 0.930 . S
C9 N5 1.279 . S
C9 C7 1.358 . S
C9 H67 0.930 . S
C10 C13 1.348 . S
C10 C14 1.356 . S
C10 O61 1.325 . S
C11 N12 1.279 . S
C11 C14 1.358 . S
C11 H68 0.930 . S
N12 C11 1.279 . S
N12 C15 1.314 . S
C13 C10 1.348 . S
C13 C15 1.353 . S
C13 H69 0.929 . S
C14 C10 1.356 . S
C14 C11 1.358 . S
C14 H70 0.930 . S
C15 N12 1.314 . S
C15 C13 1.353 . S
C15 H71 0.930 . S
C16 N17 1.314 . S
C16 C21 1.353 . S
C16 H22 0.930 . S
N17 Li0 1.990 . S
N17 C16 1.314 . S
N17 C19 1.279 . S
C18 C19 1.358 . S
C18 C20 1.356 . S
C18 H72 0.930 . S
C19 N17 1.279 . S
C19 C18 1.358 . S
C19 H23 0.930 . S
C20 C18 1.356 . S
C20 C21 1.348 . S
C21 C16 1.353 . S
C21 C20 1.348 . S
C21 H73 0.929 . S
H22 C16 0.930 . S
H23 C19 0.930 . S
C24 N25 1.314 . S
C24 C26 1.353 1_554 S
C24 H30 0.930 . S
N25 Li1 1.990 . S
N25 C24 1.314 . S
N25 C28 1.279 . S
C26 C24 1.353 1_556 S
C26 C29 1.348 1_556 S
C26 H74 0.929 . S
C27 C28 1.358 . S
C27 C29 1.356 . S
C27 H75 0.930 . S
C28 N25 1.279 . S
C28 C27 1.358 . S
C28 H31 0.930 . S
C29 C26 1.348 1_554 S
C29 C27 1.356 . S
H30 C24 0.930 . S
H31 C28 0.930 . S
C32 C34 1.348 . S
C32 C35 1.356 . S
C32 O62 1.325 . S
N33 C36 1.314 . S
N33 C37 1.279 . S
C34 C32 1.348 . S
C34 C36 1.353 . S
C34 H76 0.929 . S
C35 C32 1.356 . S
C35 C37 1.358 . S
C35 H77 0.930 . S
C36 N33 1.314 . S
C36 C34 1.353 . S
C36 H78 0.930 . S
C37 N33 1.279 . S
C37 C35 1.358 . S
C37 H79 0.930 . S
C38 C39 1.348 1_554 S
C38 C40 1.356 1_554 S
C38 O63 1.325 . S
C39 C38 1.348 1_556 S
C39 C41 1.353 . S
C39 H80 0.924 1_556 S
C40 C38 1.356 1_556 S
C40 C42 1.358 . S
C40 H81 0.948 . S
C41 C39 1.353 . S
C41 N43 1.314 . S
C41 H82 0.930 . S
C42 C40 1.358 . S
C42 N43 1.279 . S
C42 H83 0.930 . S
N43 C41 1.314 . S
N43 C42 1.279 . S
C44 C46 1.353 . S
C44 N47 1.314 . S
C44 H50 0.930 . S
C45 N47 1.279 . S
C45 C48 1.358 . S
C45 H51 0.930 . S
C46 C44 1.353 . S
C46 C49 1.348 . S
C46 H84 0.929 . S
N47 Li2 1.990 . S
N47 C44 1.314 . S
N47 C45 1.279 . S
C48 C45 1.358 . S
C48 C49 1.356 . S
C48 H85 0.930 . S
C49 C46 1.348 . S
C49 C48 1.356 . S
H50 C44 0.930 . S
H51 C45 0.930 . S
C52 N53 1.314 . S
C52 C54 1.353 . S
C52 H58 0.930 . S
N53 Li3 1.990 . S
N53 C52 1.314 . S
N53 C56 1.279 . S
C54 C52 1.353 . S
C54 C57 1.348 . S
C54 H86 0.929 . S
C55 C56 1.358 . S
C55 C57 1.356 . S
C55 H87 0.930 . S
C56 N53 1.279 . S
C56 C55 1.358 . S
C56 H59 0.930 . S
C57 C54 1.348 . S
C57 C55 1.356 . S
H58 C52 0.930 . S
H59 C56 0.930 . S
O60 Li0 1.956 . S
O60 Li1 1.970 . S
O60 Li2 1.961 . S
O60 C4 1.325 . S
O61 Li0 1.970 . S
O61 Li1 1.956 . S
O61 Li3 1.961 . S
O61 C10 1.325 . S
O62 Li0 1.961 . S
O62 Li2 1.956 . S
O62 Li3 1.970 . S
O62 C32 1.325 . S
O63 Li1 1.961 . S
O63 Li2 1.970 . S
O63 Li3 1.956 . S
O63 C38 1.325 . S
H64 C6 0.929 . S
H65 C7 0.930 . S
H66 C8 0.930 . S
H67 C9 0.930 . S
H68 C11 0.930 . S
H69 C13 0.929 . S
H70 C14 0.930 . S
H71 C15 0.930 . S
H72 C18 0.930 . S
H73 C21 0.929 . S
H74 C26 0.929 . S
H75 C27 0.930 . S
H76 C34 0.929 . S
H77 C35 0.930 . S
H78 C36 0.930 . S
H79 C37 0.930 . S
H80 C39 0.924 1_554 S
H81 C40 0.948 . S
H82 C41 0.930 . S
H83 C42 0.930 . S
H84 C46 0.929 . S
H85 C48 0.930 . S
H86 C54 0.929 . S
H87 C55 0.930 . S
Li88 N105 1.990 . S
Li88 O148 1.956 . S
Li88 O149 1.970 . S
Li88 O150 1.961 . S
Li89 N113 1.990 . S
Li89 O148 1.970 . S
Li89 O149 1.956 . S
Li89 O151 1.961 . S
Li90 N135 1.990 . S
Li90 O148 1.961 . S
Li90 O150 1.956 . S
Li90 O151 1.970 . S
Li91 N141 1.990 . S
Li91 O149 1.961 . S
Li91 O150 1.970 . S
Li91 O151 1.956 . S
C92 C94 1.348 . S
C92 C95 1.356 . S
C92 O148 1.325 . S
N93 C96 1.314 . S
N93 C97 1.279 . S
C94 C92 1.348 . S
C94 C96 1.353 . S
C94 H152 0.929 . S
C95 C92 1.356 . S
C95 C97 1.358 . S
C95 H153 0.930 . S
C96 N93 1.314 . S
C96 C94 1.353 . S
C96 H154 0.930 . S
C97 N93 1.279 . S
C97 C95 1.358 . S
C97 H155 0.930 . S
C98 C101 1.348 . S
C98 C102 1.356 . S
C98 O149 1.325 . S
C99 N100 1.279 . S
C99 C102 1.358 . S
C99 H156 0.930 . S
N100 C99 1.279 . S
N100 C103 1.314 . S
C101 C98 1.348 . S
C101 C103 1.353 . S
C101 H157 0.929 . S
C102 C98 1.356 . S
C102 C99 1.358 . S
C102 H158 0.930 . S
C103 N100 1.314 . S
C103 C101 1.353 . S
C103 H159 0.930 . S
C104 N105 1.314 . S
C104 C109 1.353 . S
C104 H110 0.930 . S
N105 Li88 1.990 . S
N105 C104 1.314 . S
N105 C107 1.279 . S
C106 C107 1.358 . S
C106 C108 1.356 1_455 S
C106 H160 0.930 . S
C107 N105 1.279 . S
C107 C106 1.358 . S
C107 H111 0.930 . S
C108 C106 1.356 1_655 S
C108 C109 1.348 1_655 S
C109 C104 1.353 . S
C109 C108 1.348 1_455 S
C109 H161 0.929 1_455 S
H110 C104 0.930 . S
H111 C107 0.930 . S
C112 N113 1.314 . S
C112 C114 1.353 . S
C112 H118 0.930 . S
N113 Li89 1.990 . S
N113 C112 1.314 . S
N113 C116 1.279 . S
C114 C112 1.353 . S
C114 C117 1.348 . S
C114 H162 0.929 . S
C115 C116 1.358 . S
C115 C117 1.356 . S
C115 H163 0.930 . S
C116 N113 1.279 . S
C116 C115 1.358 . S
C116 H119 0.930 . S
C117 C114 1.348 . S
C117 C115 1.356 . S
H118 C112 0.930 . S
H119 C116 0.930 . S
C120 C122 1.348 . S
C120 C123 1.356 . S
C120 O150 1.325 . S
N121 C124 1.314 . S
N121 C125 1.279 . S
C122 C120 1.348 . S
C122 C124 1.353 . S
C122 H164 0.929 . S
C123 C120 1.356 . S
C123 C125 1.358 . S
C123 H165 0.930 . S
C124 N121 1.314 . S
C124 C122 1.353 . S
C124 H166 0.930 . S
C125 N121 1.279 . S
C125 C123 1.358 . S
C125 H167 0.930 . S
C126 C127 1.348 . S
C126 C128 1.356 . S
C126 O151 1.325 . S
C127 C126 1.348 . S
C127 C129 1.353 . S
C127 H168 0.929 . S
C128 C126 1.356 . S
C128 C130 1.358 . S
C128 H169 0.930 . S
C129 C127 1.353 . S
C129 N131 1.314 . S
C129 H170 0.930 . S
C130 C128 1.358 . S
C130 N131 1.279 . S
C130 H171 0.930 . S
N131 C129 1.314 . S
N131 C130 1.279 . S
C132 C134 1.353 . S
C132 N135 1.314 . S
C132 H138 0.930 . S
C133 N135 1.279 . S
C133 C136 1.358 . S
C133 H139 0.930 . S
C134 C132 1.353 . S
C134 C137 1.348 . S
C134 H172 0.929 . S
N135 Li90 1.990 . S
N135 C132 1.314 . S
N135 C133 1.279 . S
C136 C133 1.358 . S
C136 C137 1.356 . S
C136 H173 0.930 . S
C137 C134 1.348 . S
C137 C136 1.356 . S
H138 C132 0.930 . S
H139 C133 0.930 . S
C140 N141 1.314 . S
C140 C142 1.353 . S
C140 H146 0.930 . S
N141 Li91 1.990 . S
N141 C140 1.314 . S
N141 C144 1.279 . S
C142 C140 1.353 . S
C142 C145 1.348 . S
C142 H174 0.929 . S
C143 C144 1.358 . S
C143 C145 1.356 . S
C143 H175 0.930 . S
C144 N141 1.279 . S
C144 C143 1.358 . S
C144 H147 0.930 . S
C145 C142 1.348 . S
C145 C143 1.356 . S
H146 C140 0.930 . S
H147 C144 0.930 . S
O148 Li88 1.956 . S
O148 Li89 1.970 . S
O148 Li90 1.961 . S
O148 C92 1.325 . S
O149 Li88 1.970 . S
O149 Li89 1.956 . S
O149 Li91 1.961 . S
O149 C98 1.325 . S
O150 Li88 1.961 . S
O150 Li90 1.956 . S
O150 Li91 1.970 . S
O150 C120 1.325 . S
O151 Li89 1.961 . S
O151 Li90 1.970 . S
O151 Li91 1.956 . S
O151 C126 1.325 . S
H152 C94 0.929 . S
H153 C95 0.930 . S
H154 C96 0.930 . S
H155 C97 0.930 . S
H156 C99 0.930 . S
H157 C101 0.929 . S
H158 C102 0.930 . S
H159 C103 0.930 . S
H160 C106 0.930 . S
H161 C109 0.929 1_655 S
H162 C114 0.929 . S
H163 C115 0.930 . S
H164 C122 0.929 . S
H165 C123 0.930 . S
H166 C124 0.930 . S
H167 C125 0.930 . S
H168 C127 0.929 . S
H169 C128 0.930 . S
H170 C129 0.930 . S
H171 C130 0.930 . S
H172 C134 0.929 . S
H173 C136 0.930 . S
H174 C142 0.929 . S
H175 C143 0.930 . S
Li176 N193 1.990 . S
Li176 O236 1.956 . S
Li176 O237 1.970 . S
Li176 O238 1.961 . S
Li177 N201 1.990 . S
Li177 O236 1.970 . S
Li177 O237 1.956 . S
Li177 O239 1.961 . S
Li178 N223 1.990 . S
Li178 O236 1.961 . S
Li178 O238 1.956 . S
Li178 O239 1.970 . S
Li179 N229 1.990 . S
Li179 O237 1.961 . S
Li179 O238 1.970 . S
Li179 O239 1.956 . S
C180 C182 1.348 . S
C180 C183 1.356 . S
C180 O236 1.325 . S
N181 C184 1.314 . S
N181 C185 1.279 . S
C182 C180 1.348 . S
C182 C184 1.353 . S
C182 H240 0.929 . S
C183 C180 1.356 . S
C183 C185 1.358 . S
C183 H241 0.930 . S
C184 N181 1.314 . S
C184 C182 1.353 . S
C184 H242 0.930 . S
C185 N181 1.279 . S
C185 C183 1.358 . S
C185 H243 0.930 . S
C186 C189 1.348 . S
C186 C190 1.356 . S
C186 O237 1.325 . S
C187 N188 1.279 . S
C187 C190 1.358 . S
C187 H244 0.930 . S
N188 C187 1.279 . S
N188 C191 1.314 . S
C189 C186 1.348 . S
C189 C191 1.353 . S
C189 H245 0.929 . S
C190 C186 1.356 . S
C190 C187 1.358 . S
C190 H246 0.930 . S
C191 N188 1.314 . S
C191 C189 1.353 . S
C191 H247 0.930 . S
C192 N193 1.314 . S
C192 C197 1.353 . S
C192 H198 0.930 . S
N193 Li176 1.990 . S
N193 C192 1.314 . S
N193 C195 1.279 . S
C194 C195 1.358 . S
C194 C196 1.356 . S
C194 H248 0.930 . S
C195 N193 1.279 . S
C195 C194 1.358 . S
C195 H199 0.930 . S
C196 C194 1.356 . S
C196 C197 1.348 . S
C197 C192 1.353 . S
C197 C196 1.348 . S
C197 H249 0.929 . S
H198 C192 0.930 . S
H199 C195 0.930 . S
C200 N201 1.314 . S
C200 C202 1.353 . S
C200 H206 0.930 . S
N201 Li177 1.990 . S
N201 C200 1.314 . S
N201 C204 1.279 . S
C202 C200 1.353 . S
C202 C205 1.348 1_545 S
C202 H250 0.929 1_545 S
C203 C204 1.358 . S
C203 C205 1.356 1_545 S
C203 H251 0.930 . S
C204 N201 1.279 . S
C204 C203 1.358 . S
C204 H207 0.930 . S
C205 C202 1.348 1_565 S
C205 C203 1.356 1_565 S
H206 C200 0.930 . S
H207 C204 0.930 . S
C208 C210 1.348 . S
C208 C211 1.356 . S
C208 O238 1.325 . S
N209 C212 1.314 . S
N209 C213 1.279 . S
C210 C208 1.348 . S
C210 C212 1.353 . S
C210 H252 0.929 . S
C211 C208 1.356 . S
C211 C213 1.358 . S
C211 H253 0.930 . S
C212 N209 1.314 . S
C212 C210 1.353 . S
C212 H254 0.930 . S
C213 N209 1.279 . S
C213 C211 1.358 . S
C213 H255 0.930 . S
C214 C215 1.348 . S
C214 C216 1.356 . S
C214 O239 1.325 . S
C215 C214 1.348 . S
C215 C217 1.353 . S
C215 H256 0.929 . S
C216 C214 1.356 . S
C216 C218 1.358 . S
C216 H257 0.930 . S
C217 C215 1.353 . S
C217 N219 1.314 . S
C217 H258 0.930 . S
C218 C216 1.358 . S
C218 N219 1.279 . S
C218 H259 0.930 . S
N219 C217 1.314 . S
N219 C218 1.279 . S
C220 C222 1.353 . S
C220 N223 1.314 . S
C220 H226 0.930 . S
C221 N223 1.279 . S
C221 C224 1.358 . S
C221 H227 0.930 . S
C222 C220 1.353 . S
C222 C225 1.348 . S
C222 H260 0.929 . S
N223 Li178 1.990 . S
N223 C220 1.314 . S
N223 C221 1.279 . S
C224 C221 1.358 . S
C224 C225 1.356 . S
C224 H261 0.930 . S
C225 C222 1.348 . S
C225 C224 1.356 . S
H226 C220 0.930 . S
H227 C221 0.930 . S
C228 N229 1.314 . S
C228 C230 1.353 . S
C228 H234 0.930 . S
N229 Li179 1.990 . S
N229 C228 1.314 . S
N229 C232 1.279 . S
C230 C228 1.353 . S
C230 C233 1.348 . S
C230 H262 0.929 . S
C231 C232 1.358 . S
C231 C233 1.356 . S
C231 H263 0.930 . S
C232 N229 1.279 . S
C232 C231 1.358 . S
C232 H235 0.930 . S
C233 C230 1.348 . S
C233 C231 1.356 . S
H234 C228 0.930 . S
H235 C232 0.930 . S
O236 Li176 1.956 . S
O236 Li177 1.970 . S
O236 Li178 1.961 . S
O236 C180 1.325 . S
O237 Li176 1.970 . S
O237 Li177 1.956 . S
O237 Li179 1.961 . S
O237 C186 1.325 . S
O238 Li176 1.961 . S
O238 Li178 1.956 . S
O238 Li179 1.970 . S
O238 C208 1.325 . S
O239 Li177 1.961 . S
O239 Li178 1.970 . S
O239 Li179 1.956 . S
O239 C214 1.325 . S
H240 C182 0.929 . S
H241 C183 0.930 . S
H242 C184 0.930 . S
H243 C185 0.930 . S
H244 C187 0.930 . S
H245 C189 0.929 . S
H246 C190 0.930 . S
H247 C191 0.930 . S
H248 C194 0.930 . S
H249 C197 0.929 . S
H250 C202 0.929 1_565 S
H251 C203 0.930 . S
H252 C210 0.929 . S
H253 C211 0.930 . S
H254 C212 0.930 . S
H255 C213 0.930 . S
H256 C215 0.929 . S
H257 C216 0.930 . S
H258 C217 0.930 . S
H259 C218 0.930 . S
H260 C222 0.929 . S
H261 C224 0.930 . S
H262 C230 0.929 . S
H263 C231 0.930 . S
Li264 N281 1.990 . S
Li264 O324 1.956 . S
Li264 O325 1.970 . S
Li264 O326 1.961 . S
Li265 N289 1.990 . S
Li265 O324 1.970 . S
Li265 O325 1.956 . S
Li265 O327 1.961 . S
Li266 N311 1.990 . S
Li266 O324 1.961 . S
Li266 O326 1.956 . S
Li266 O327 1.970 . S
Li267 N317 1.990 . S
Li267 O325 1.961 . S
Li267 O326 1.970 . S
Li267 O327 1.956 . S
C268 C270 1.348 . S
C268 C271 1.356 . S
C268 O324 1.325 . S
N269 C272 1.314 . S
N269 C273 1.279 . S
C270 C268 1.348 . S
C270 C272 1.353 . S
C270 H328 0.929 . S
C271 C268 1.356 . S
C271 C273 1.358 . S
C271 H329 0.930 . S
C272 N269 1.314 . S
C272 C270 1.353 . S
C272 H330 0.930 . S
C273 N269 1.279 . S
C273 C271 1.358 . S
C273 H331 0.930 . S
C274 C277 1.348 . S
C274 C278 1.356 . S
C274 O325 1.325 . S
C275 N276 1.279 . S
C275 C278 1.358 . S
C275 H332 0.930 . S
N276 C275 1.279 . S
N276 C279 1.314 . S
C277 C274 1.348 . S
C277 C279 1.353 . S
C277 H333 0.929 . S
C278 C274 1.356 . S
C278 C275 1.358 . S
C278 H334 0.930 . S
C279 N276 1.314 . S
C279 C277 1.353 . S
C279 H335 0.930 . S
C280 N281 1.314 . S
C280 C285 1.353 1_554 S
C280 H286 0.930 . S
N281 Li264 1.990 . S
N281 C280 1.314 . S
N281 C283 1.279 . S
C282 C283 1.358 . S
C282 C284 1.356 . S
C282 H336 0.930 . S
C283 N281 1.279 . S
C283 C282 1.358 . S
C283 H287 0.930 . S
C284 C282 1.356 . S
C284 C285 1.348 1_554 S
C285 C280 1.353 1_556 S
C285 C284 1.348 1_556 S
C285 H337 0.929 . S
H286 C280 0.930 . S
H287 C283 0.930 . S
C288 N289 1.314 . S
C288 C290 1.353 . S
C288 H294 0.930 . S
N289 Li265 1.990 . S
N289 C288 1.314 . S
N289 C292 1.279 . S
C290 C288 1.353 . S
C290 C293 1.348 . S
C290 H338 0.929 . S
C291 C292 1.358 . S
C291 C293 1.356 . S
C291 H339 0.930 . S
C292 N289 1.279 . S
C292 C291 1.358 . S
C292 H295 0.930 . S
C293 C290 1.348 . S
C293 C291 1.356 . S
H294 C288 0.930 . S
H295 C292 0.930 . S
C296 C298 1.348 1_554 S
C296 C299 1.356 1_554 S
C296 O326 1.325 . S
N297 C300 1.314 . S
N297 C301 1.279 . S
C298 C296 1.348 1_556 S
C298 C300 1.353 . S
C298 H340 0.924 1_556 S
C299 C296 1.356 1_556 S
C299 C301 1.358 . S
C299 H341 0.948 . S
C300 N297 1.314 . S
C300 C298 1.353 . S
C300 H342 0.930 . S
C301 N297 1.279 . S
C301 C299 1.358 . S
C301 H343 0.930 . S
C302 C303 1.348 . S
C302 C304 1.356 . S
C302 O327 1.325 . S
C303 C302 1.348 . S
C303 C305 1.353 . S
C303 H344 0.929 . S
C304 C302 1.356 . S
C304 C306 1.358 . S
C304 H345 0.930 . S
C305 C303 1.353 . S
C305 N307 1.314 . S
C305 H346 0.930 . S
C306 C304 1.358 . S
C306 N307 1.279 . S
C306 H347 0.930 . S
N307 C305 1.314 . S
N307 C306 1.279 . S
C308 C310 1.353 . S
C308 N311 1.314 . S
C308 H314 0.930 . S
C309 N311 1.279 . S
C309 C312 1.358 . S
C309 H315 0.930 . S
C310 C308 1.353 . S
C310 C313 1.348 . S
C310 H348 0.929 . S
N311 Li266 1.990 . S
N311 C308 1.314 . S
N311 C309 1.279 . S
C312 C309 1.358 . S
C312 C313 1.356 . S
C312 H349 0.930 . S
C313 C310 1.348 . S
C313 C312 1.356 . S
H314 C308 0.930 . S
H315 C309 0.930 . S
C316 N317 1.314 . S
C316 C318 1.353 . S
C316 H322 0.930 . S
N317 Li267 1.990 . S
N317 C316 1.314 . S
N317 C320 1.279 . S
C318 C316 1.353 . S
C318 C321 1.348 . S
C318 H350 0.929 . S
C319 C320 1.358 . S
C319 C321 1.356 . S
C319 H351 0.930 . S
C320 N317 1.279 . S
C320 C319 1.358 . S
C320 H323 0.930 . S
C321 C318 1.348 . S
C321 C319 1.356 . S
H322 C316 0.930 . S
H323 C320 0.930 . S
O324 Li264 1.956 . S
O324 Li265 1.970 . S
O324 Li266 1.961 . S
O324 C268 1.325 . S
O325 Li264 1.970 . S
O325 Li265 1.956 . S
O325 Li267 1.961 . S
O325 C274 1.325 . S
O326 Li264 1.961 . S
O326 Li266 1.956 . S
O326 Li267 1.970 . S
O326 C296 1.325 . S
O327 Li265 1.961 . S
O327 Li266 1.970 . S
O327 Li267 1.956 . S
O327 C302 1.325 . S
H328 C270 0.929 . S
H329 C271 0.930 . S
H330 C272 0.930 . S
H331 C273 0.930 . S
H332 C275 0.930 . S
H333 C277 0.929 . S
H334 C278 0.930 . S
H335 C279 0.930 . S
H336 C282 0.930 . S
H337 C285 0.929 . S
H338 C290 0.929 . S
H339 C291 0.930 . S
H340 C298 0.924 1_554 S
H341 C299 0.948 . S
H342 C300 0.930 . S
H343 C301 0.930 . S
H344 C303 0.929 . S
H345 C304 0.930 . S
H346 C305 0.930 . S
H347 C306 0.930 . S
H348 C310 0.929 . S
H349 C312 0.930 . S
H350 C318 0.929 . S
H351 C319 0.930 . S
Li352 N369 1.990 . S
Li352 O412 1.956 . S
Li352 O413 1.970 . S
Li352 O414 1.961 . S
Li353 N377 1.990 . S
Li353 O412 1.970 . S
Li353 O413 1.956 . S
Li353 O415 1.961 . S
Li354 N399 1.990 . S
Li354 O412 1.961 . S
Li354 O414 1.956 . S
Li354 O415 1.970 . S
Li355 N405 1.990 . S
Li355 O413 1.961 . S
Li355 O414 1.970 . S
Li355 O415 1.956 . S
C356 C358 1.348 . S
C356 C359 1.356 . S
C356 O412 1.325 . S
N357 C360 1.314 . S
N357 C361 1.279 . S
C358 C356 1.348 . S
C358 C360 1.353 . S
C358 H416 0.929 . S
C359 C356 1.356 . S
C359 C361 1.358 . S
C359 H417 0.930 . S
C360 N357 1.314 . S
C360 C358 1.353 . S
C360 H418 0.930 . S
C361 N357 1.279 . S
C361 C359 1.358 . S
C361 H419 0.930 . S
C362 C365 1.348 . S
C362 C366 1.356 . S
C362 O413 1.325 . S
C363 N364 1.279 . S
C363 C366 1.358 . S
C363 H420 0.930 . S
N364 C363 1.279 . S
N364 C367 1.314 . S
C365 C362 1.348 . S
C365 C367 1.353 . S
C365 H421 0.929 . S
C366 C362 1.356 . S
C366 C363 1.358 . S
C366 H422 0.930 . S
C367 N364 1.314 . S
C367 C365 1.353 . S
C367 H423 0.930 . S
C368 N369 1.314 . S
C368 C373 1.353 . S
C368 H374 0.930 . S
N369 Li352 1.990 . S
N369 C368 1.314 . S
N369 C371 1.279 . S
C370 C371 1.358 . S
C370 C372 1.356 . S
C370 H424 0.930 . S
C371 N369 1.279 . S
C371 C370 1.358 . S
C371 H375 0.930 . S
C372 C370 1.356 . S
C372 C373 1.348 . S
C373 C368 1.353 . S
C373 C372 1.348 . S
C373 H425 0.929 . S
H374 C368 0.930 . S
H375 C371 0.930 . S
C376 N377 1.314 . S
C376 C378 1.353 . S
C376 H382 0.930 . S
N377 Li353 1.990 . S
N377 C376 1.314 . S
N377 C380 1.279 . S
C378 C376 1.353 . S
C378 C381 1.348 . S
C378 H426 0.929 . S
C379 C380 1.358 . S
C379 C381 1.356 . S
C379 H427 0.930 . S
C380 N377 1.279 . S
C380 C379 1.358 . S
C380 H383 0.930 . S
C381 C378 1.348 . S
C381 C379 1.356 . S
H382 C376 0.930 . S
H383 C380 0.930 . S
C384 C386 1.348 . S
C384 C387 1.356 . S
C384 O414 1.325 . S
N385 C388 1.314 . S
N385 C389 1.279 . S
C386 C384 1.348 . S
C386 C388 1.353 . S
C386 H428 0.929 . S
C387 C384 1.356 . S
C387 C389 1.358 . S
C387 H429 0.930 . S
C388 N385 1.314 . S
C388 C386 1.353 . S
C388 H430 0.930 . S
C389 N385 1.279 . S
C389 C387 1.358 . S
C389 H431 0.930 . S
C390 C391 1.348 . S
C390 C392 1.356 . S
C390 O415 1.325 . S
C391 C390 1.348 . S
C391 C393 1.353 . S
C391 H432 0.929 . S
C392 C390 1.356 . S
C392 C394 1.358 . S
C392 H433 0.930 . S
C393 C391 1.353 . S
C393 N395 1.314 . S
C393 H434 0.930 . S
C394 C392 1.358 . S
C394 N395 1.279 . S
C394 H435 0.930 . S
N395 C393 1.314 . S
N395 C394 1.279 . S
C396 C398 1.353 . S
C396 N399 1.314 . S
C396 H402 0.930 . S
C397 N399 1.279 . S
C397 C400 1.358 . S
C397 H403 0.930 . S
C398 C396 1.353 . S
C398 C401 1.348 1_655 S
C398 H436 0.929 1_655 S
N399 Li354 1.990 . S
N399 C396 1.314 . S
N399 C397 1.279 . S
C400 C397 1.358 . S
C400 C401 1.356 1_655 S
C400 H437 0.930 . S
C401 C398 1.348 1_455 S
C401 C400 1.356 1_455 S
H402 C396 0.930 . S
H403 C397 0.930 . S
C404 N405 1.314 . S
C404 C406 1.353 . S
C404 H410 0.930 . S
N405 Li355 1.990 . S
N405 C404 1.314 . S
N405 C408 1.279 . S
C406 C404 1.353 . S
C406 C409 1.348 . S
C406 H438 0.929 . S
C407 C408 1.358 . S
C407 C409 1.356 . S
C407 H439 0.930 . S
C408 N405 1.279 . S
C408 C407 1.358 . S
C408 H411 0.930 . S
C409 C406 1.348 . S
C409 C407 1.356 . S
H410 C404 0.930 . S
H411 C408 0.930 . S
O412 Li352 1.956 . S
O412 Li353 1.970 . S
O412 Li354 1.961 . S
O412 C356 1.325 . S
O413 Li352 1.970 . S
O413 Li353 1.956 . S
O413 Li355 1.961 . S
O413 C362 1.325 . S
O414 Li352 1.961 . S
O414 Li354 1.956 . S
O414 Li355 1.970 . S
O414 C384 1.325 . S
O415 Li353 1.961 . S
O415 Li354 1.970 . S
O415 Li355 1.956 . S
O415 C390 1.325 . S
H416 C358 0.929 . S
H417 C359 0.930 . S
H418 C360 0.930 . S
H419 C361 0.930 . S
H420 C363 0.930 . S
H421 C365 0.929 . S
H422 C366 0.930 . S
H423 C367 0.930 . S
H424 C370 0.930 . S
H425 C373 0.929 . S
H426 C378 0.929 . S
H427 C379 0.930 . S
H428 C386 0.929 . S
H429 C387 0.930 . S
H430 C388 0.930 . S
H431 C389 0.930 . S
H432 C391 0.929 . S
H433 C392 0.930 . S
H434 C393 0.930 . S
H435 C394 0.930 . S
H436 C398 0.929 1_455 S
H437 C400 0.930 . S
H438 C406 0.929 . S
H439 C407 0.930 . S
Li440 N457 1.990 . S
Li440 O500 1.956 . S
Li440 O501 1.970 . S
Li440 O502 1.961 . S
Li441 N465 1.990 . S
Li441 O500 1.970 . S
Li441 O501 1.956 . S
Li441 O503 1.961 . S
Li442 N487 1.990 . S
Li442 O500 1.961 . S
Li442 O502 1.956 . S
Li442 O503 1.970 . S
Li443 N493 1.990 . S
Li443 O501 1.961 . S
Li443 O502 1.970 . S
Li443 O503 1.956 . S
C444 C446 1.348 . S
C444 C447 1.356 . S
C444 O500 1.325 . S
N445 C448 1.314 . S
N445 C449 1.279 . S
C446 C444 1.348 . S
C446 C448 1.353 . S
C446 H504 0.929 . S
C447 C444 1.356 . S
C447 C449 1.358 . S
C447 H505 0.930 . S
C448 N445 1.314 . S
C448 C446 1.353 . S
C448 H506 0.930 . S
C449 N445 1.279 . S
C449 C447 1.358 . S
C449 H507 0.930 . S
C450 C453 1.348 . S
C450 C454 1.356 . S
C450 O501 1.325 . S
C451 N452 1.279 . S
C451 C454 1.358 . S
C451 H508 0.930 . S
N452 C451 1.279 . S
N452 C455 1.314 . S
C453 C450 1.348 . S
C453 C455 1.353 . S
C453 H509 0.929 . S
C454 C450 1.356 . S
C454 C451 1.358 . S
C454 H510 0.930 . S
C455 N452 1.314 . S
C455 C453 1.353 . S
C455 H511 0.930 . S
C456 N457 1.314 . S
C456 C461 1.353 . S
C456 H462 0.930 . S
N457 Li440 1.990 . S
N457 C456 1.314 . S
N457 C459 1.279 . S
C458 C459 1.358 . S
C458 C460 1.356 . S
C458 H512 0.930 . S
C459 N457 1.279 . S
C459 C458 1.358 . S
C459 H463 0.930 . S
C460 C458 1.356 . S
C460 C461 1.348 . S
C461 C456 1.353 . S
C461 C460 1.348 . S
C461 H513 0.929 . S
H462 C456 0.930 . S
H463 C459 0.930 . S
C464 N465 1.314 . S
C464 C466 1.353 . S
C464 H470 0.930 . S
N465 Li441 1.990 . S
N465 C464 1.314 . S
N465 C468 1.279 . S
C466 C464 1.353 . S
C466 C469 1.348 . S
C466 H514 0.929 . S
C467 C468 1.358 . S
C467 C469 1.356 . S
C467 H515 0.930 . S
C468 N465 1.279 . S
C468 C467 1.358 . S
C468 H471 0.930 . S
C469 C466 1.348 . S
C469 C467 1.356 . S
H470 C464 0.930 . S
H471 C468 0.930 . S
C472 C474 1.348 . S
C472 C475 1.356 . S
C472 O502 1.325 . S
N473 C476 1.314 . S
N473 C477 1.279 . S
C474 C472 1.348 . S
C474 C476 1.353 . S
C474 H516 0.929 . S
C475 C472 1.356 . S
C475 C477 1.358 . S
C475 H517 0.930 . S
C476 N473 1.314 . S
C476 C474 1.353 . S
C476 H518 0.930 . S
C477 N473 1.279 . S
C477 C475 1.358 . S
C477 H519 0.930 . S
C478 C479 1.348 . S
C478 C480 1.356 . S
C478 O503 1.325 . S
C479 C478 1.348 . S
C479 C481 1.353 . S
C479 H520 0.929 . S
C480 C478 1.356 . S
C480 C482 1.358 . S
C480 H521 0.930 . S
C481 C479 1.353 . S
C481 N483 1.314 . S
C481 H522 0.930 . S
C482 C480 1.358 . S
C482 N483 1.279 . S
C482 H523 0.930 . S
N483 C481 1.314 . S
N483 C482 1.279 . S
C484 C486 1.353 . S
C484 N487 1.314 . S
C484 H490 0.930 . S
C485 N487 1.279 . S
C485 C488 1.358 . S
C485 H491 0.930 . S
C486 C484 1.353 . S
C486 C489 1.348 1_565 S
C486 H524 0.929 1_565 S
N487 Li442 1.990 . S
N487 C484 1.314 . S
N487 C485 1.279 . S
C488 C485 1.358 . S
C488 C489 1.356 1_565 S
C488 H525 0.930 . S
C489 C486 1.348 1_545 S
C489 C488 1.356 1_545 S
H490 C484 0.930 . S
H491 C485 0.930 . S
C492 N493 1.314 . S
C492 C494 1.353 . S
C492 H498 0.930 . S
N493 Li443 1.990 . S
N493 C492 1.314 . S
N493 C496 1.279 . S
C494 C492 1.353 . S
C494 C497 1.348 . S
C494 H526 0.929 . S
C495 C496 1.358 . S
C495 C497 1.356 . S
C495 H527 0.930 . S
C496 N493 1.279 . S
C496 C495 1.358 . S
C496 H499 0.930 . S
C497 C494 1.348 . S
C497 C495 1.356 . S
H498 C492 0.930 . S
H499 C496 0.930 . S
O500 Li440 1.956 . S
O500 Li441 1.970 . S
O500 Li442 1.961 . S
O500 C444 1.325 . S
O501 Li440 1.970 . S
O501 Li441 1.956 . S
O501 Li443 1.961 . S
O501 C450 1.325 . S
O502 Li440 1.961 . S
O502 Li442 1.956 . S
O502 Li443 1.970 . S
O502 C472 1.325 . S
O503 Li441 1.961 . S
O503 Li442 1.970 . S
O503 Li443 1.956 . S
O503 C478 1.325 . S
H504 C446 0.929 . S
H505 C447 0.930 . S
H506 C448 0.930 . S
H507 C449 0.930 . S
H508 C451 0.930 . S
H509 C453 0.929 . S
H510 C454 0.930 . S
H511 C455 0.930 . S
H512 C458 0.930 . S
H513 C461 0.929 . S
H514 C466 0.929 . S
H515 C467 0.930 . S
H516 C474 0.929 . S
H517 C475 0.930 . S
H518 C476 0.930 . S
H519 C477 0.930 . S
H520 C479 0.929 . S
H521 C480 0.930 . S
H522 C481 0.930 . S
H523 C482 0.930 . S
H524 C486 0.929 1_545 S
H525 C488 0.930 . S
H526 C494 0.929 . S
H527 C495 0.930 . S
Li528 N545 1.990 . S
Li528 O588 1.956 . S
Li528 O589 1.970 . S
Li528 O590 1.961 . S
Li529 N553 1.990 . S
Li529 O588 1.970 . S
Li529 O589 1.956 . S
Li529 O591 1.961 . S
Li530 N575 1.990 . S
Li530 O588 1.961 . S
Li530 O590 1.956 . S
Li530 O591 1.970 . S
Li531 N581 1.990 . S
Li531 O589 1.961 . S
Li531 O590 1.970 . S
Li531 O591 1.956 . S
C532 C534 1.348 . S
C532 C535 1.356 . S
C532 O588 1.325 . S
N533 C536 1.314 . S
N533 C537 1.279 . S
C534 C532 1.348 . S
C534 C536 1.353 . S
C534 H592 0.929 . S
C535 C532 1.356 . S
C535 C537 1.358 . S
C535 H593 0.930 . S
C536 N533 1.314 . S
C536 C534 1.353 . S
C536 H594 0.930 . S
C537 N533 1.279 . S
C537 C535 1.358 . S
C537 H595 0.930 . S
C538 C541 1.348 . S
C538 C542 1.356 . S
C538 O589 1.325 . S
C539 N540 1.279 . S
C539 C542 1.358 . S
C539 H596 0.930 . S
N540 C539 1.279 . S
N540 C543 1.314 . S
C541 C538 1.348 . S
C541 C543 1.353 . S
C541 H597 0.929 . S
C542 C538 1.356 . S
C542 C539 1.358 . S
C542 H598 0.930 . S
C543 N540 1.314 . S
C543 C541 1.353 . S
C543 H599 0.930 . S
C544 N545 1.314 . S
C544 C549 1.353 . S
C544 H550 0.930 . S
N545 Li528 1.990 . S
N545 C544 1.314 . S
N545 C547 1.279 . S
C546 C547 1.358 . S
C546 C548 1.356 . S
C546 H600 0.930 . S
C547 N545 1.279 . S
C547 C546 1.358 . S
C547 H551 0.930 . S
C548 C546 1.356 . S
C548 C549 1.348 . S
C549 C544 1.353 . S
C549 C548 1.348 . S
C549 H601 0.929 . S
H550 C544 0.930 . S
H551 C547 0.930 . S
C552 N553 1.314 . S
C552 C554 1.353 . S
C552 H558 0.930 . S
N553 Li529 1.990 . S
N553 C552 1.314 . S
N553 C556 1.279 . S
C554 C552 1.353 . S
C554 C557 1.348 . S
C554 H602 0.929 . S
C555 C556 1.358 . S
C555 C557 1.356 . S
C555 H603 0.930 . S
C556 N553 1.279 . S
C556 C555 1.358 . S
C556 H559 0.930 . S
C557 C554 1.348 . S
C557 C555 1.356 . S
H558 C552 0.930 . S
H559 C556 0.930 . S
C560 C562 1.348 . S
C560 C563 1.356 . S
C560 O590 1.325 . S
N561 C564 1.314 . S
N561 C565 1.279 . S
C562 C560 1.348 . S
C562 C564 1.353 . S
C562 H604 0.929 . S
C563 C560 1.356 . S
C563 C565 1.358 . S
C563 H605 0.930 . S
C564 N561 1.314 . S
C564 C562 1.353 . S
C564 H606 0.930 . S
C565 N561 1.279 . S
C565 C563 1.358 . S
C565 H607 0.930 . S
C566 C567 1.348 . S
C566 C568 1.356 . S
C566 O591 1.325 . S
C567 C566 1.348 . S
C567 C569 1.353 . S
C567 H608 0.929 . S
C568 C566 1.356 . S
C568 C570 1.358 . S
C568 H609 0.930 . S
C569 C567 1.353 . S
C569 N571 1.314 . S
C569 H610 0.930 . S
C570 C568 1.358 . S
C570 N571 1.279 . S
C570 H611 0.930 . S
N571 C569 1.314 . S
N571 C570 1.279 . S
C572 C574 1.353 . S
C572 N575 1.314 . S
C572 H578 0.930 . S
C573 N575 1.279 . S
C573 C576 1.358 . S
C573 H579 0.930 . S
C574 C572 1.353 . S
C574 C577 1.348 . S
C574 H612 0.929 . S
N575 Li530 1.990 . S
N575 C572 1.314 . S
N575 C573 1.279 . S
C576 C573 1.358 . S
C576 C577 1.356 . S
C576 H613 0.930 . S
C577 C574 1.348 . S
C577 C576 1.356 . S
H578 C572 0.930 . S
H579 C573 0.930 . S
C580 N581 1.314 . S
C580 C582 1.353 . S
C580 H586 0.930 . S
N581 Li531 1.990 . S
N581 C580 1.314 . S
N581 C584 1.279 . S
C582 C580 1.353 . S
C582 C585 1.348 . S
C582 H614 0.929 . S
C583 C584 1.358 . S
C583 C585 1.356 . S
C583 H615 0.930 . S
C584 N581 1.279 . S
C584 C583 1.358 . S
C584 H587 0.930 . S
C585 C582 1.348 . S
C585 C583 1.356 . S
H586 C580 0.930 . S
H587 C584 0.930 . S
O588 Li528 1.956 . S
O588 Li529 1.970 . S
O588 Li530 1.961 . S
O588 C532 1.325 . S
O589 Li528 1.970 . S
O589 Li529 1.956 . S
O589 Li531 1.961 . S
O589 C538 1.325 . S
O590 Li528 1.961 . S
O590 Li530 1.956 . S
O590 Li531 1.970 . S
O590 C560 1.325 . S
O591 Li529 1.961 . S
O591 Li530 1.970 . S
O591 Li531 1.956 . S
O591 C566 1.325 . S
H592 C534 0.929 . S
H593 C535 0.930 . S
H594 C536 0.930 . S
H595 C537 0.930 . S
H596 C539 0.930 . S
H597 C541 0.929 . S
H598 C542 0.930 . S
H599 C543 0.930 . S
H600 C546 0.930 . S
H601 C549 0.929 . S
H602 C554 0.929 . S
H603 C555 0.930 . S
H604 C562 0.929 . S
H605 C563 0.930 . S
H606 C564 0.930 . S
H607 C565 0.930 . S
H608 C567 0.929 . S
H609 C568 0.930 . S
H610 C569 0.930 . S
H611 C570 0.930 . S
H612 C574 0.929 . S
H613 C576 0.930 . S
H614 C582 0.929 . S
H615 C583 0.930 . S
Li616 N633 1.990 . S
Li616 O676 1.956 . S
Li616 O677 1.970 . S
Li616 O678 1.961 . S
Li617 N641 1.990 . S
Li617 O676 1.970 . S
Li617 O677 1.956 . S
Li617 O679 1.961 . S
Li618 N663 1.990 . S
Li618 O676 1.961 . S
Li618 O678 1.956 . S
Li618 O679 1.970 . S
Li619 N669 1.990 . S
Li619 O677 1.961 . S
Li619 O678 1.970 . S
Li619 O679 1.956 . S
C620 C622 1.348 . S
C620 C623 1.356 . S
C620 O676 1.325 . S
N621 C624 1.314 . S
N621 C625 1.279 . S
C622 C620 1.348 . S
C622 C624 1.353 . S
C622 H680 0.929 . S
C623 C620 1.356 . S
C623 C625 1.358 . S
C623 H681 0.930 . S
C624 N621 1.314 . S
C624 C622 1.353 . S
C624 H682 0.930 . S
C625 N621 1.279 . S
C625 C623 1.358 . S
C625 H683 0.930 . S
C626 C629 1.348 1_556 S
C626 C630 1.356 1_556 S
C626 O677 1.325 . S
C627 N628 1.279 . S
C627 C630 1.358 . S
C627 H684 0.930 . S
N628 C627 1.279 . S
N628 C631 1.314 . S
C629 C626 1.348 1_554 S
C629 C631 1.353 . S
C629 H685 0.924 1_554 S
C630 C626 1.356 1_554 S
C630 C627 1.358 . S
C630 H686 0.948 . S
C631 N628 1.314 . S
C631 C629 1.353 . S
C631 H687 0.930 . S
C632 N633 1.314 . S
C632 C637 1.353 . S
C632 H638 0.930 . S
N633 Li616 1.990 . S
N633 C632 1.314 . S
N633 C635 1.279 . S
C634 C635 1.358 . S
C634 C636 1.356 . S
C634 H688 0.930 . S
C635 N633 1.279 . S
C635 C634 1.358 . S
C635 H639 0.930 . S
C636 C634 1.356 . S
C636 C637 1.348 . S
C637 C632 1.353 . S
C637 C636 1.348 . S
C637 H689 0.929 . S
H638 C632 0.930 . S
H639 C635 0.930 . S
C640 N641 1.314 . S
C640 C642 1.353 . S
C640 H646 0.930 . S
N641 Li617 1.990 . S
N641 C640 1.314 . S
N641 C644 1.279 . S
C642 C640 1.353 . S
C642 C645 1.348 1_455 S
C642 H690 0.929 1_455 S
C643 C644 1.358 . S
C643 C645 1.356 1_455 S
C643 H691 0.930 . S
C644 N641 1.279 . S
C644 C643 1.358 . S
C644 H647 0.930 . S
C645 C642 1.348 1_655 S
C645 C643 1.356 1_655 S
H646 C640 0.930 . S
H647 C644 0.930 . S
C648 C650 1.348 . S
C648 C651 1.356 . S
C648 O678 1.325 . S
N649 C652 1.314 . S
N649 C653 1.279 . S
C650 C648 1.348 . S
C650 C652 1.353 . S
C650 H692 0.929 . S
C651 C648 1.356 . S
C651 C653 1.358 . S
C651 H693 0.930 . S
C652 N649 1.314 . S
C652 C650 1.353 . S
C652 H694 0.930 . S
C653 N649 1.279 . S
C653 C651 1.358 . S
C653 H695 0.930 . S
C654 C655 1.348 . S
C654 C656 1.356 . S
C654 O679 1.325 . S
C655 C654 1.348 . S
C655 C657 1.353 . S
C655 H696 0.929 . S
C656 C654 1.356 . S
C656 C658 1.358 . S
C656 H697 0.930 . S
C657 C655 1.353 . S
C657 N659 1.314 . S
C657 H698 0.930 . S
C658 C656 1.358 . S
C658 N659 1.279 . S
C658 H699 0.930 . S
N659 C657 1.314 . S
N659 C658 1.279 . S
C660 C662 1.353 . S
C660 N663 1.314 . S
C660 H666 0.930 . S
C661 N663 1.279 . S
C661 C664 1.358 . S
C661 H667 0.930 . S
C662 C660 1.353 . S
C662 C665 1.348 . S
C662 H700 0.929 . S
N663 Li618 1.990 . S
N663 C660 1.314 . S
N663 C661 1.279 . S
C664 C661 1.358 . S
C664 C665 1.356 . S
C664 H701 0.930 . S
C665 C662 1.348 . S
C665 C664 1.356 . S
H666 C660 0.930 . S
H667 C661 0.930 . S
C668 N669 1.314 . S
C668 C670 1.353 1_556 S
C668 H674 0.930 . S
N669 Li619 1.990 . S
N669 C668 1.314 . S
N669 C672 1.279 . S
C670 C668 1.353 1_554 S
C670 C673 1.348 1_554 S
C670 H702 0.929 . S
C671 C672 1.358 . S
C671 C673 1.356 . S
C671 H703 0.930 . S
C672 N669 1.279 . S
C672 C671 1.358 . S
C672 H675 0.930 . S
C673 C670 1.348 1_556 S
C673 C671 1.356 . S
H674 C668 0.930 . S
H675 C672 0.930 . S
O676 Li616 1.956 . S
O676 Li617 1.970 . S
O676 Li618 1.961 . S
O676 C620 1.325 . S
O677 Li616 1.970 . S
O677 Li617 1.956 . S
O677 Li619 1.961 . S
O677 C626 1.325 . S
O678 Li616 1.961 . S
O678 Li618 1.956 . S
O678 Li619 1.970 . S
O678 C648 1.325 . S
O679 Li617 1.961 . S
O679 Li618 1.970 . S
O679 Li619 1.956 . S
O679 C654 1.325 . S
H680 C622 0.929 . S
H681 C623 0.930 . S
H682 C624 0.930 . S
H683 C625 0.930 . S
H684 C627 0.930 . S
H685 C629 0.924 1_556 S
H686 C630 0.948 . S
H687 C631 0.930 . S
H688 C634 0.930 . S
H689 C637 0.929 . S
H690 C642 0.929 1_655 S
H691 C643 0.930 . S
H692 C650 0.929 . S
H693 C651 0.930 . S
H694 C652 0.930 . S
H695 C653 0.930 . S
H696 C655 0.929 . S
H697 C656 0.930 . S
H698 C657 0.930 . S
H699 C658 0.930 . S
H700 C662 0.929 . S
H701 C664 0.930 . S
H702 C670 0.929 . S
H703 C671 0.930 . S
Li704 N721 1.990 . S
Li704 O764 1.956 . S
Li704 O765 1.970 . S
Li704 O766 1.961 . S
Li705 N729 1.990 . S
Li705 O764 1.970 . S
Li705 O765 1.956 . S
Li705 O767 1.961 . S
Li706 N751 1.990 . S
Li706 O764 1.961 . S
Li706 O766 1.956 . S
Li706 O767 1.970 . S
Li707 N757 1.990 . S
Li707 O765 1.961 . S
Li707 O766 1.970 . S
Li707 O767 1.956 . S
C708 C710 1.348 . S
C708 C711 1.356 . S
C708 O764 1.325 . S
N709 C712 1.314 . S
N709 C713 1.279 . S
C710 C708 1.348 . S
C710 C712 1.353 . S
C710 H768 0.929 . S
C711 C708 1.356 . S
C711 C713 1.358 . S
C711 H769 0.930 . S
C712 N709 1.314 . S
C712 C710 1.353 . S
C712 H770 0.930 . S
C713 N709 1.279 . S
C713 C711 1.358 . S
C713 H771 0.930 . S
C714 C717 1.348 . S
C714 C718 1.356 . S
C714 O765 1.325 . S
C715 N716 1.279 . S
C715 C718 1.358 . S
C715 H772 0.930 . S
N716 C715 1.279 . S
N716 C719 1.314 . S
C717 C714 1.348 . S
C717 C719 1.353 . S
C717 H773 0.929 . S
C718 C714 1.356 . S
C718 C715 1.358 . S
C718 H774 0.930 . S
C719 N716 1.314 . S
C719 C717 1.353 . S
C719 H775 0.930 . S
C720 N721 1.314 . S
C720 C725 1.353 . S
C720 H726 0.930 . S
N721 Li704 1.990 . S
N721 C720 1.314 . S
N721 C723 1.279 . S
C722 C723 1.358 . S
C722 C724 1.356 1_545 S
C722 H776 0.930 . S
C723 N721 1.279 . S
C723 C722 1.358 . S
C723 H727 0.930 . S
C724 C722 1.356 1_565 S
C724 C725 1.348 1_565 S
C725 C720 1.353 . S
C725 C724 1.348 1_545 S
C725 H777 0.929 1_545 S
H726 C720 0.930 . S
H727 C723 0.930 . S
C728 N729 1.314 . S
C728 C730 1.353 . S
C728 H734 0.930 . S
N729 Li705 1.990 . S
N729 C728 1.314 . S
N729 C732 1.279 . S
C730 C728 1.353 . S
C730 C733 1.348 . S
C730 H778 0.929 . S
C731 C732 1.358 . S
C731 C733 1.356 . S
C731 H779 0.930 . S
C732 N729 1.279 . S
C732 C731 1.358 . S
C732 H735 0.930 . S
C733 C730 1.348 . S
C733 C731 1.356 . S
H734 C728 0.930 . S
H735 C732 0.930 . S
C736 C738 1.348 . S
C736 C739 1.356 . S
C736 O766 1.325 . S
N737 C740 1.314 . S
N737 C741 1.279 . S
C738 C736 1.348 . S
C738 C740 1.353 . S
C738 H780 0.929 . S
C739 C736 1.356 . S
C739 C741 1.358 . S
C739 H781 0.930 . S
C740 N737 1.314 . S
C740 C738 1.353 . S
C740 H782 0.930 . S
C741 N737 1.279 . S
C741 C739 1.358 . S
C741 H783 0.930 . S
C742 C743 1.348 . S
C742 C744 1.356 . S
C742 O767 1.325 . S
C743 C742 1.348 . S
C743 C745 1.353 . S
C743 H784 0.929 . S
C744 C742 1.356 . S
C744 C746 1.358 . S
C744 H785 0.930 . S
C745 C743 1.353 . S
C745 N747 1.314 . S
C745 H786 0.930 . S
C746 C744 1.358 . S
C746 N747 1.279 . S
C746 H787 0.930 . S
N747 C745 1.314 . S
N747 C746 1.279 . S
C748 C750 1.353 . S
C748 N751 1.314 . S
C748 H754 0.930 . S
C749 N751 1.279 . S
C749 C752 1.358 . S
C749 H755 0.930 . S
C750 C748 1.353 . S
C750 C753 1.348 . S
C750 H788 0.929 . S
N751 Li706 1.990 . S
N751 C748 1.314 . S
N751 C749 1.279 . S
C752 C749 1.358 . S
C752 C753 1.356 . S
C752 H789 0.930 . S
C753 C750 1.348 . S
C753 C752 1.356 . S
H754 C748 0.930 . S
H755 C749 0.930 . S
C756 N757 1.314 . S
C756 C758 1.353 . S
C756 H762 0.930 . S
N757 Li707 1.990 . S
N757 C756 1.314 . S
N757 C760 1.279 . S
C758 C756 1.353 . S
C758 C761 1.348 . S
C758 H790 0.929 . S
C759 C760 1.358 . S
C759 C761 1.356 . S
C759 H791 0.930 . S
C760 N757 1.279 . S
C760 C759 1.358 . S
C760 H763 0.930 . S
C761 C758 1.348 . S
C761 C759 1.356 . S
H762 C756 0.930 . S
H763 C760 0.930 . S
O764 Li704 1.956 . S
O764 Li705 1.970 . S
O764 Li706 1.961 . S
O764 C708 1.325 . S
O765 Li704 1.970 . S
O765 Li705 1.956 . S
O765 Li707 1.961 . S
O765 C714 1.325 . S
O766 Li704 1.961 . S
O766 Li706 1.956 . S
O766 Li707 1.970 . S
O766 C736 1.325 . S
O767 Li705 1.961 . S
O767 Li706 1.970 . S
O767 Li707 1.956 . S
O767 C742 1.325 . S
H768 C710 0.929 . S
H769 C711 0.930 . S
H770 C712 0.930 . S
H771 C713 0.930 . S
H772 C715 0.930 . S
H773 C717 0.929 . S
H774 C718 0.930 . S
H775 C719 0.930 . S
H776 C722 0.930 . S
H777 C725 0.929 1_565 S
H778 C730 0.929 . S
H779 C731 0.930 . S
H780 C738 0.929 . S
H781 C739 0.930 . S
H782 C740 0.930 . S
H783 C741 0.930 . S
H784 C743 0.929 . S
H785 C744 0.930 . S
H786 C745 0.930 . S
H787 C746 0.930 . S
H788 C750 0.929 . S
H789 C752 0.930 . S
H790 C758 0.929 . S
H791 C759 0.930 . S
Li792 N809 1.990 . S
Li792 O852 1.956 . S
Li792 O853 1.970 . S
Li792 O854 1.961 . S
Li793 N817 1.990 . S
Li793 O852 1.970 . S
Li793 O853 1.956 . S
Li793 O855 1.961 . S
Li794 N839 1.990 . S
Li794 O852 1.961 . S
Li794 O854 1.956 . S
Li794 O855 1.970 . S
Li795 N845 1.990 . S
Li795 O853 1.961 . S
Li795 O854 1.970 . S
Li795 O855 1.956 . S
C796 C798 1.348 . S
C796 C799 1.356 . S
C796 O852 1.325 . S
N797 C800 1.314 . S
N797 C801 1.279 . S
C798 C796 1.348 . S
C798 C800 1.353 . S
C798 H856 0.929 . S
C799 C796 1.356 . S
C799 C801 1.358 . S
C799 H857 0.930 . S
C800 N797 1.314 . S
C800 C798 1.353 . S
C800 H858 0.930 . S
C801 N797 1.279 . S
C801 C799 1.358 . S
C801 H859 0.930 . S
C802 C805 1.348 . S
C802 C806 1.356 . S
C802 O853 1.325 . S
C803 N804 1.279 . S
C803 C806 1.358 . S
C803 H860 0.930 . S
N804 C803 1.279 . S
N804 C807 1.314 . S
C805 C802 1.348 . S
C805 C807 1.353 . S
C805 H861 0.929 . S
C806 C802 1.356 . S
C806 C803 1.358 . S
C806 H862 0.930 . S
C807 N804 1.314 . S
C807 C805 1.353 . S
C807 H863 0.930 . S
C808 N809 1.314 . S
C808 C813 1.353 . S
C808 H814 0.930 . S
N809 Li792 1.990 . S
N809 C808 1.314 . S
N809 C811 1.279 . S
C810 C811 1.358 . S
C810 C812 1.356 . S
C810 H864 0.930 . S
C811 N809 1.279 . S
C811 C810 1.358 . S
C811 H815 0.930 . S
C812 C810 1.356 . S
C812 C813 1.348 . S
C813 C808 1.353 . S
C813 C812 1.348 . S
C813 H865 0.929 . S
H814 C808 0.930 . S
H815 C811 0.930 . S
C816 N817 1.314 . S
C816 C818 1.353 . S
C816 H822 0.930 . S
N817 Li793 1.990 . S
N817 C816 1.314 . S
N817 C820 1.279 . S
C818 C816 1.353 . S
C818 C821 1.348 . S
C818 H866 0.929 . S
C819 C820 1.358 . S
C819 C821 1.356 . S
C819 H867 0.930 . S
C820 N817 1.279 . S
C820 C819 1.358 . S
C820 H823 0.930 . S
C821 C818 1.348 . S
C821 C819 1.356 . S
H822 C816 0.930 . S
H823 C820 0.930 . S
C824 C826 1.348 . S
C824 C827 1.356 . S
C824 O854 1.325 . S
N825 C828 1.314 . S
N825 C829 1.279 . S
C826 C824 1.348 . S
C826 C828 1.353 . S
C826 H868 0.929 . S
C827 C824 1.356 . S
C827 C829 1.358 . S
C827 H869 0.930 . S
C828 N825 1.314 . S
C828 C826 1.353 . S
C828 H870 0.930 . S
C829 N825 1.279 . S
C829 C827 1.358 . S
C829 H871 0.930 . S
C830 C831 1.348 . S
C830 C832 1.356 . S
C830 O855 1.325 . S
C831 C830 1.348 . S
C831 C833 1.353 . S
C831 H872 0.929 . S
C832 C830 1.356 . S
C832 C834 1.358 . S
C832 H873 0.930 . S
C833 C831 1.353 . S
C833 N835 1.314 . S
C833 H874 0.930 . S
C834 C832 1.358 . S
C834 N835 1.279 . S
C834 H875 0.930 . S
N835 C833 1.314 . S
N835 C834 1.279 . S
C836 C838 1.353 . S
C836 N839 1.314 . S
C836 H842 0.930 . S
C837 N839 1.279 . S
C837 C840 1.358 . S
C837 H843 0.930 . S
C838 C836 1.353 . S
C838 C841 1.348 . S
C838 H876 0.929 . S
N839 Li794 1.990 . S
N839 C836 1.314 . S
N839 C837 1.279 . S
C840 C837 1.358 . S
C840 C841 1.356 . S
C840 H877 0.930 . S
C841 C838 1.348 . S
C841 C840 1.356 . S
H842 C836 0.930 . S
H843 C837 0.930 . S
C844 N845 1.314 . S
C844 C846 1.353 . S
C844 H850 0.930 . S
N845 Li795 1.990 . S
N845 C844 1.314 . S
N845 C848 1.279 . S
C846 C844 1.353 . S
C846 C849 1.348 . S
C846 H878 0.929 . S
C847 C848 1.358 . S
C847 C849 1.356 . S
C847 H879 0.930 . S
C848 N845 1.279 . S
C848 C847 1.358 . S
C848 H851 0.930 . S
C849 C846 1.348 . S
C849 C847 1.356 . S
H850 C844 0.930 . S
H851 C848 0.930 . S
O852 Li792 1.956 . S
O852 Li793 1.970 . S
O852 Li794 1.961 . S
O852 C796 1.325 . S
O853 Li792 1.970 . S
O853 Li793 1.956 . S
O853 Li795 1.961 . S
O853 C802 1.325 . S
O854 Li792 1.961 . S
O854 Li794 1.956 . S
O854 Li795 1.970 . S
O854 C824 1.325 . S
O855 Li793 1.961 . S
O855 Li794 1.970 . S
O855 Li795 1.956 . S
O855 C830 1.325 . S
H856 C798 0.929 . S
H857 C799 0.930 . S
H858 C800 0.930 . S
H859 C801 0.930 . S
H860 C803 0.930 . S
H861 C805 0.929 . S
H862 C806 0.930 . S
H863 C807 0.930 . S
H864 C810 0.930 . S
H865 C813 0.929 . S
H866 C818 0.929 . S
H867 C819 0.930 . S
H868 C826 0.929 . S
H869 C827 0.930 . S
H870 C828 0.930 . S
H871 C829 0.930 . S
H872 C831 0.929 . S
H873 C832 0.930 . S
H874 C833 0.930 . S
H875 C834 0.930 . S
H876 C838 0.929 . S
H877 C840 0.930 . S
H878 C846 0.929 . S
H879 C847 0.930 . S
Li880 N897 1.990 . S
Li880 O940 1.956 . S
Li880 O941 1.970 . S
Li880 O942 1.961 . S
Li881 N905 1.990 . S
Li881 O940 1.970 . S
Li881 O941 1.956 . S
Li881 O943 1.961 . S
Li882 N927 1.990 . S
Li882 O940 1.961 . S
Li882 O942 1.956 . S
Li882 O943 1.970 . S
Li883 N933 1.990 . S
Li883 O941 1.961 . S
Li883 O942 1.970 . S
Li883 O943 1.956 . S
C884 C886 1.348 1_556 S
C884 C887 1.356 1_556 S
C884 O940 1.325 . S
N885 C888 1.314 . S
N885 C889 1.279 . S
C886 C884 1.348 1_554 S
C886 C888 1.353 . S
C886 H944 0.924 1_554 S
C887 C884 1.356 1_554 S
C887 C889 1.358 . S
C887 H945 0.948 . S
C888 N885 1.314 . S
C888 C886 1.353 . S
C888 H946 0.930 . S
C889 N885 1.279 . S
C889 C887 1.358 . S
C889 H947 0.930 . S
C890 C893 1.348 . S
C890 C894 1.356 . S
C890 O941 1.325 . S
C891 N892 1.279 . S
C891 C894 1.358 . S
C891 H948 0.930 . S
N892 C891 1.279 . S
N892 C895 1.314 . S
C893 C890 1.348 . S
C893 C895 1.353 . S
C893 H949 0.929 . S
C894 C890 1.356 . S
C894 C891 1.358 . S
C894 H950 0.930 . S
C895 N892 1.314 . S
C895 C893 1.353 . S
C895 H951 0.930 . S
C896 N897 1.314 . S
C896 C901 1.353 . S
C896 H902 0.930 . S
N897 Li880 1.990 . S
N897 C896 1.314 . S
N897 C899 1.279 . S
C898 C899 1.358 . S
C898 C900 1.356 1_655 S
C898 H952 0.930 . S
C899 N897 1.279 . S
C899 C898 1.358 . S
C899 H903 0.930 . S
C900 C898 1.356 1_455 S
C900 C901 1.348 1_455 S
C901 C896 1.353 . S
C901 C900 1.348 1_655 S
C901 H953 0.929 1_655 S
H902 C896 0.930 . S
H903 C899 0.930 . S
C904 N905 1.314 . S
C904 C906 1.353 . S
C904 H910 0.930 . S
N905 Li881 1.990 . S
N905 C904 1.314 . S
N905 C908 1.279 . S
C906 C904 1.353 . S
C906 C909 1.348 . S
C906 H954 0.929 . S
C907 C908 1.358 . S
C907 C909 1.356 . S
C907 H955 0.930 . S
C908 N905 1.279 . S
C908 C907 1.358 . S
C908 H911 0.930 . S
C909 C906 1.348 . S
C909 C907 1.356 . S
H910 C904 0.930 . S
H911 C908 0.930 . S
C912 C914 1.348 . S
C912 C915 1.356 . S
C912 O942 1.325 . S
N913 C916 1.314 . S
N913 C917 1.279 . S
C914 C912 1.348 . S
C914 C916 1.353 . S
C914 H956 0.929 . S
C915 C912 1.356 . S
C915 C917 1.358 . S
C915 H957 0.930 . S
C916 N913 1.314 . S
C916 C914 1.353 . S
C916 H958 0.930 . S
C917 N913 1.279 . S
C917 C915 1.358 . S
C917 H959 0.930 . S
C918 C919 1.348 . S
C918 C920 1.356 . S
C918 O943 1.325 . S
C919 C918 1.348 . S
C919 C921 1.353 . S
C919 H960 0.929 . S
C920 C918 1.356 . S
C920 C922 1.358 . S
C920 H961 0.930 . S
C921 C919 1.353 . S
C921 N923 1.314 . S
C921 H962 0.930 . S
C922 C920 1.358 . S
C922 N923 1.279 . S
C922 H963 0.930 . S
N923 C921 1.314 . S
N923 C922 1.279 . S
C924 C926 1.353 1_556 S
C924 N927 1.314 . S
C924 H930 0.930 . S
C925 N927 1.279 . S
C925 C928 1.358 . S
C925 H931 0.930 . S
C926 C924 1.353 1_554 S
C926 C929 1.348 1_554 S
C926 H964 0.929 . S
N927 Li882 1.990 . S
N927 C924 1.314 . S
N927 C925 1.279 . S
C928 C925 1.358 . S
C928 C929 1.356 . S
C928 H965 0.930 . S
C929 C926 1.348 1_556 S
C929 C928 1.356 . S
H930 C924 0.930 . S
H931 C925 0.930 . S
C932 N933 1.314 . S
C932 C934 1.353 . S
C932 H938 0.930 . S
N933 Li883 1.990 . S
N933 C932 1.314 . S
N933 C936 1.279 . S
C934 C932 1.353 . S
C934 C937 1.348 . S
C934 H966 0.929 . S
C935 C936 1.358 . S
C935 C937 1.356 . S
C935 H967 0.930 . S
C936 N933 1.279 . S
C936 C935 1.358 . S
C936 H939 0.930 . S
C937 C934 1.348 . S
C937 C935 1.356 . S
H938 C932 0.930 . S
H939 C936 0.930 . S
O940 Li880 1.956 . S
O940 Li881 1.970 . S
O940 Li882 1.961 . S
O940 C884 1.325 . S
O941 Li880 1.970 . S
O941 Li881 1.956 . S
O941 Li883 1.961 . S
O941 C890 1.325 . S
O942 Li880 1.961 . S
O942 Li882 1.956 . S
O942 Li883 1.970 . S
O942 C912 1.325 . S
O943 Li881 1.961 . S
O943 Li882 1.970 . S
O943 Li883 1.956 . S
O943 C918 1.325 . S
H944 C886 0.924 1_556 S
H945 C887 0.948 . S
H946 C888 0.930 . S
H947 C889 0.930 . S
H948 C891 0.930 . S
H949 C893 0.929 . S
H950 C894 0.930 . S
H951 C895 0.930 . S
H952 C898 0.930 . S
H953 C901 0.929 1_455 S
H954 C906 0.929 . S
H955 C907 0.930 . S
H956 C914 0.929 . S
H957 C915 0.930 . S
H958 C916 0.930 . S
H959 C917 0.930 . S
H960 C919 0.929 . S
H961 C920 0.930 . S
H962 C921 0.930 . S
H963 C922 0.930 . S
H964 C926 0.929 . S
H965 C928 0.930 . S
H966 C934 0.929 . S
H967 C935 0.930 . S
Li968 N985 1.990 . S
Li968 O1028 1.956 . S
Li968 O1029 1.970 . S
Li968 O1030 1.961 . S
Li969 N993 1.990 . S
Li969 O1028 1.970 . S
Li969 O1029 1.956 . S
Li969 O1031 1.961 . S
Li970 N1015 1.990 . S
Li970 O1028 1.961 . S
Li970 O1030 1.956 . S
Li970 O1031 1.970 . S
Li971 N1021 1.990 . S
Li971 O1029 1.961 . S
Li971 O1030 1.970 . S
Li971 O1031 1.956 . S
C972 C974 1.348 . S
C972 C975 1.356 . S
C972 O1028 1.325 . S
N973 C976 1.314 . S
N973 C977 1.279 . S
C974 C972 1.348 . S
C974 C976 1.353 . S
C974 H1032 0.929 . S
C975 C972 1.356 . S
C975 C977 1.358 . S
C975 H1033 0.930 . S
C976 N973 1.314 . S
C976 C974 1.353 . S
C976 H1034 0.930 . S
C977 N973 1.279 . S
C977 C975 1.358 . S
C977 H1035 0.930 . S
C978 C981 1.348 . S
C978 C982 1.356 . S
C978 O1029 1.325 . S
C979 N980 1.279 . S
C979 C982 1.358 . S
C979 H1036 0.930 . S
N980 C979 1.279 . S
N980 C983 1.314 . S
C981 C978 1.348 . S
C981 C983 1.353 . S
C981 H1037 0.929 . S
C982 C978 1.356 . S
C982 C979 1.358 . S
C982 H1038 0.930 . S
C983 N980 1.314 . S
C983 C981 1.353 . S
C983 H1039 0.930 . S
C984 N985 1.314 . S
C984 C989 1.353 . S
C984 H990 0.930 . S
N985 Li968 1.990 . S
N985 C984 1.314 . S
N985 C987 1.279 . S
C986 C987 1.358 . S
C986 C988 1.356 . S
C986 H1040 0.930 . S
C987 N985 1.279 . S
C987 C986 1.358 . S
C987 H991 0.930 . S
C988 C986 1.356 . S
C988 C989 1.348 . S
C989 C984 1.353 . S
C989 C988 1.348 . S
C989 H1041 0.929 . S
H990 C984 0.930 . S
H991 C987 0.930 . S
C992 N993 1.314 . S
C992 C994 1.353 . S
C992 H998 0.930 . S
N993 Li969 1.990 . S
N993 C992 1.314 . S
N993 C996 1.279 . S
C994 C992 1.353 . S
C994 C997 1.348 1_565 S
C994 H1042 0.929 1_565 S
C995 C996 1.358 . S
C995 C997 1.356 1_565 S
C995 H1043 0.930 . S
C996 N993 1.279 . S
C996 C995 1.358 . S
C996 H999 0.930 . S
C997 C994 1.348 1_545 S
C997 C995 1.356 1_545 S
H998 C992 0.930 . S
H999 C996 0.930 . S
C1000 C1002 1.348 . S
C1000 C1003 1.356 . S
C1000 O1030 1.325 . S
N1001 C1004 1.314 . S
N1001 C1005 1.279 . S
C1002 C1000 1.348 . S
C1002 C1004 1.353 . S
C1002 H1044 0.929 . S
C1003 C1000 1.356 . S
C1003 C1005 1.358 . S
C1003 H1045 0.930 . S
C1004 N1001 1.314 . S
C1004 C1002 1.353 . S
C1004 H1046 0.930 . S
C1005 N1001 1.279 . S
C1005 C1003 1.358 . S
C1005 H1047 0.930 . S
C1006 C1007 1.348 . S
C1006 C1008 1.356 . S
C1006 O1031 1.325 . S
C1007 C1006 1.348 . S
C1007 C1009 1.353 . S
C1007 H1048 0.929 . S
C1008 C1006 1.356 . S
C1008 C1010 1.358 . S
C1008 H1049 0.930 . S
C1009 C1007 1.353 . S
C1009 N1011 1.314 . S
C1009 H1050 0.930 . S
C1010 C1008 1.358 . S
C1010 N1011 1.279 . S
C1010 H1051 0.930 . S
N1011 C1009 1.314 . S
N1011 C1010 1.279 . S
C1012 C1014 1.353 . S
C1012 N1015 1.314 . S
C1012 H1018 0.930 . S
C1013 N1015 1.279 . S
C1013 C1016 1.358 . S
C1013 H1019 0.930 . S
C1014 C1012 1.353 . S
C1014 C1017 1.348 . S
C1014 H1052 0.929 . S
N1015 Li970 1.990 . S
N1015 C1012 1.314 . S
N1015 C1013 1.279 . S
C1016 C1013 1.358 . S
C1016 C1017 1.356 . S
C1016 H1053 0.930 . S
C1017 C1014 1.348 . S
C1017 C1016 1.356 . S
H1018 C1012 0.930 . S
H1019 C1013 0.930 . S
C1020 N1021 1.314 . S
C1020 C1022 1.353 . S
C1020 H1026 0.930 . S
N1021 Li971 1.990 . S
N1021 C1020 1.314 . S
N1021 C1024 1.279 . S
C1022 C1020 1.353 . S
C1022 C1025 1.348 . S
C1022 H1054 0.929 . S
C1023 C1024 1.358 . S
C1023 C1025 1.356 . S
C1023 H1055 0.930 . S
C1024 N1021 1.279 . S
C1024 C1023 1.358 . S
C1024 H1027 0.930 . S
C1025 C1022 1.348 . S
C1025 C1023 1.356 . S
H1026 C1020 0.930 . S
H1027 C1024 0.930 . S
O1028 Li968 1.956 . S
O1028 Li969 1.970 . S
O1028 Li970 1.961 . S
O1028 C972 1.325 . S
O1029 Li968 1.970 . S
O1029 Li969 1.956 . S
O1029 Li971 1.961 . S
O1029 C978 1.325 . S
O1030 Li968 1.961 . S
O1030 Li970 1.956 . S
O1030 Li971 1.970 . S
O1030 C1000 1.325 . S
O1031 Li969 1.961 . S
O1031 Li970 1.970 . S
O1031 Li971 1.956 . S
O1031 C1006 1.325 . S
H1032 C974 0.929 . S
H1033 C975 0.930 . S
H1034 C976 0.930 . S
H1035 C977 0.930 . S
H1036 C979 0.930 . S
H1037 C981 0.929 . S
H1038 C982 0.930 . S
H1039 C983 0.930 . S
H1040 C986 0.930 . S
H1041 C989 0.929 . S
H1042 C994 0.929 1_545 S
H1043 C995 0.930 . S
H1044 C1002 0.929 . S
H1045 C1003 0.930 . S
H1046 C1004 0.930 . S
H1047 C1005 0.930 . S
H1048 C1007 0.929 . S
H1049 C1008 0.930 . S
H1050 C1009 0.930 . S
H1051 C1010 0.930 . S
H1052 C1014 0.929 . S
H1053 C1016 0.930 . S
H1054 C1022 0.929 . S
H1055 C1023 0.930 . S
C1056 C1057 1.385 1_554 S
C1056 H1060 0.953 . S
C1056 C1065 1.392 1_565 S
C1057 C1056 1.385 1_556 S
C1057 C1059 1.389 . S
H1058 C1065 0.950 . S
C1059 C1057 1.389 . S
C1059 C1061 1.392 1_565 S
C1059 H1063 0.950 . S
H1060 C1056 0.953 . S
C1061 C1059 1.392 1_545 S
C1061 C1062 1.385 1_556 S
C1061 H1064 0.953 . S
C1062 C1061 1.385 1_554 S
C1062 C1065 1.389 . S
H1063 C1059 0.950 . S
H1064 C1061 0.953 . S
C1065 C1056 1.392 1_545 S
C1065 H1058 0.950 . S
C1065 C1062 1.389 . S
C1066 C1067 1.387 . S
C1066 H1070 0.950 . S
C1066 C1075 1.390 . S
C1067 C1066 1.387 . S
C1067 C1069 1.387 . S
H1068 C1075 0.950 . S
C1069 C1067 1.387 . S
C1069 C1071 1.390 . S
C1069 H1073 0.950 . S
H1070 C1066 0.950 . S
C1071 C1069 1.390 . S
C1071 C1072 1.387 . S
C1071 H1074 0.950 . S
C1072 C1071 1.387 . S
C1072 C1075 1.387 . S
H1073 C1069 0.950 . S
H1074 C1071 0.950 . S
C1075 C1066 1.390 . S
C1075 H1068 0.950 . S
C1075 C1072 1.387 . S
C1076 C1077 1.387 . S
C1076 H1080 0.950 . S
C1076 C1085 1.390 1_655 S
C1077 C1076 1.387 . S
C1077 C1079 1.387 . S
H1078 C1085 0.950 . S
C1079 C1077 1.387 . S
C1079 C1081 1.390 1_655 S
C1079 H1083 0.950 . S
H1080 C1076 0.950 . S
C1081 C1079 1.390 1_455 S
C1081 C1082 1.387 . S
C1081 H1084 0.950 . S
C1082 C1081 1.387 . S
C1082 C1085 1.387 . S
H1083 C1079 0.950 . S
H1084 C1081 0.950 . S
C1085 C1076 1.390 1_455 S
C1085 H1078 0.950 . S
C1085 C1082 1.387 . S
C1086 C1087 1.387 1_556 S
C1086 H1090 0.950 . S
C1086 C1095 1.390 1_565 S
C1087 C1086 1.387 1_554 S
C1087 C1089 1.387 . S
H1088 C1095 0.949 . S
C1089 C1087 1.387 . S
C1089 C1091 1.390 1_565 S
C1089 H1093 0.949 . S
H1090 C1086 0.950 . S
C1091 C1089 1.390 1_545 S
C1091 C1092 1.387 1_554 S
C1091 H1094 0.950 . S
C1092 C1091 1.387 1_556 S
C1092 C1095 1.387 . S
H1093 C1089 0.949 . S
H1094 C1091 0.950 . S
C1095 C1086 1.390 1_545 S
C1095 H1088 0.949 . S
C1095 C1092 1.387 . S
C1096 C1097 1.387 . S
C1096 H1100 0.950 . S
C1096 C1105 1.390 . S
C1097 C1096 1.387 . S
C1097 C1099 1.387 . S
H1098 C1105 0.950 . S
C1099 C1097 1.387 . S
C1099 C1101 1.390 . S
C1099 H1103 0.950 . S
H1100 C1096 0.950 . S
C1101 C1099 1.390 . S
C1101 C1102 1.387 . S
C1101 H1104 0.950 . S
C1102 C1101 1.387 . S
C1102 C1105 1.387 . S
H1103 C1099 0.950 . S
H1104 C1101 0.950 . S
C1105 C1096 1.390 . S
C1105 H1098 0.950 . S
C1105 C1102 1.387 . S
C1106 C1107 1.387 . S
C1106 H1110 0.950 . S
C1106 C1115 1.390 1_655 S
C1107 C1106 1.387 . S
C1107 C1109 1.387 . S
H1108 C1115 0.950 . S
C1109 C1107 1.387 . S
C1109 C1111 1.390 1_655 S
C1109 H1113 0.950 . S
H1110 C1106 0.950 . S
C1111 C1109 1.390 1_455 S
C1111 C1112 1.387 . S
C1111 H1114 0.950 . S
C1112 C1111 1.387 . S
C1112 C1115 1.387 . S
H1113 C1109 0.950 . S
H1114 C1111 0.950 . S
C1115 C1106 1.390 1_455 S
C1115 H1108 0.950 . S
C1115 C1112 1.387 . S
C1116 C1117 1.387 . S
C1116 H1120 0.950 . S
C1116 C1125 1.390 1_556 S
C1117 C1116 1.387 . S
C1117 C1119 1.387 . S
H1118 C1125 0.950 . S
C1119 C1117 1.387 . S
C1119 C1121 1.390 1_556 S
C1119 H1123 0.950 . S
H1120 C1116 0.950 . S
C1121 C1119 1.390 1_554 S
C1121 C1122 1.387 . S
C1121 H1124 0.950 . S
C1122 C1121 1.387 . S
C1122 C1125 1.387 . S
H1123 C1119 0.950 . S
H1124 C1121 0.950 . S
C1125 C1116 1.390 1_554 S
C1125 H1118 0.950 . S
C1125 C1122 1.387 . S
C1126 C1127 1.387 . S
C1126 H1130 0.950 . S
C1126 C1135 1.390 . S
C1127 C1126 1.387 . S
C1127 C1129 1.387 . S
H1128 C1135 0.950 . S
C1129 C1127 1.387 . S
C1129 C1131 1.390 . S
C1129 H1133 0.950 . S
H1130 C1126 0.950 . S
C1131 C1129 1.390 . S
C1131 C1132 1.387 . S
C1131 H1134 0.950 . S
C1132 C1131 1.387 . S
C1132 C1135 1.387 . S
H1133 C1129 0.950 . S
H1134 C1131 0.950 . S
C1135 C1126 1.390 . S
C1135 H1128 0.950 . S
C1135 C1132 1.387 . S
C1136 C1137 1.387 . S
C1136 H1140 0.950 . S
C1136 C1145 1.390 . S
C1137 C1136 1.387 . S
C1137 C1139 1.387 . S
H1138 C1145 0.950 . S
C1139 C1137 1.387 . S
C1139 C1141 1.390 . S
C1139 H1143 0.950 . S
H1140 C1136 0.950 . S
C1141 C1139 1.390 . S
C1141 C1142 1.387 . S
C1141 H1144 0.950 . S
C1142 C1141 1.387 . S
C1142 C1145 1.387 . S
H1143 C1139 0.950 . S
H1144 C1141 0.950 . S
C1145 C1136 1.390 . S
C1145 H1138 0.950 . S
C1145 C1142 1.387 . S
C1146 C1147 1.387 . S
C1146 H1150 0.950 . S
C1146 C1155 1.390 1_556 S
C1147 C1146 1.387 . S
C1147 C1149 1.387 . S
H1148 C1155 0.950 . S
C1149 C1147 1.387 . S
C1149 C1151 1.390 1_556 S
C1149 H1153 0.950 . S
H1150 C1146 0.950 . S
C1151 C1149 1.390 1_554 S
C1151 C1152 1.387 . S
C1151 H1154 0.950 . S
C1152 C1151 1.387 . S
C1152 C1155 1.387 . S
H1153 C1149 0.950 . S
H1154 C1151 0.950 . S
C1155 C1146 1.390 1_554 S
C1155 H1148 0.950 . S
C1155 C1152 1.387 . S
C1156 C1157 1.387 . S
C1156 H1160 0.950 . S
C1156 C1165 1.390 . S
C1157 C1156 1.387 . S
C1157 C1159 1.387 . S
H1158 C1165 0.950 . S
C1159 C1157 1.387 . S
C1159 C1161 1.390 . S
C1159 H1163 0.950 . S
H1160 C1156 0.950 . S
C1161 C1159 1.390 . S
C1161 C1162 1.387 . S
C1161 H1164 0.950 . S
C1162 C1161 1.387 . S
C1162 C1165 1.387 . S
H1163 C1159 0.950 . S
H1164 C1161 0.950 . S
C1165 C1156 1.390 . S
C1165 H1158 0.950 . S
C1165 C1162 1.387 . S
C1166 C1167 1.387 . S
C1166 H1170 0.950 . S
C1166 C1175 1.390 . S
C1167 C1166 1.387 . S
C1167 C1169 1.387 . S
H1168 C1175 0.950 . S
C1169 C1167 1.387 . S
C1169 C1171 1.390 . S
C1169 H1173 0.950 . S
H1170 C1166 0.950 . S
C1171 C1169 1.390 . S
C1171 C1172 1.387 . S
C1171 H1174 0.950 . S
C1172 C1171 1.387 . S
C1172 C1175 1.387 . S
H1173 C1169 0.950 . S
H1174 C1171 0.950 . S
C1175 C1166 1.390 . S
C1175 H1168 0.950 . S
C1175 C1172 1.387 . S
C1176 C1177 1.387 . S
C1176 H1180 0.950 . S
C1176 C1185 1.390 . S
C1177 C1176 1.387 . S
C1177 C1179 1.387 . S
H1178 C1185 0.950 . S
C1179 C1177 1.387 . S
C1179 C1181 1.390 . S
C1179 H1183 0.950 . S
H1180 C1176 0.950 . S
C1181 C1179 1.390 . S
C1181 C1182 1.387 . S
C1181 H1184 0.950 . S
C1182 C1181 1.387 . S
C1182 C1185 1.387 . S
H1183 C1179 0.950 . S
H1184 C1181 0.950 . S
C1185 C1176 1.390 . S
C1185 H1178 0.950 . S
C1185 C1182 1.387 . S
C1186 C1187 1.387 . S
C1186 H1190 0.950 . S
C1186 C1195 1.390 . S
C1187 C1186 1.387 . S
C1187 C1189 1.387 . S
H1188 C1195 0.950 . S
C1189 C1187 1.387 . S
C1189 C1191 1.390 . S
C1189 H1193 0.950 . S
H1190 C1186 0.950 . S
C1191 C1189 1.390 . S
C1191 C1192 1.387 . S
C1191 H1194 0.950 . S
C1192 C1191 1.387 . S
C1192 C1195 1.387 . S
H1193 C1189 0.950 . S
H1194 C1191 0.950 . S
C1195 C1186 1.390 . S
C1195 H1188 0.950 . S
C1195 C1192 1.387 . S
C1196 C1197 1.387 . S
C1196 H1200 0.950 . S
C1196 C1205 1.390 . S
C1197 C1196 1.387 . S
C1197 C1199 1.387 . S
H1198 C1205 0.950 . S
C1199 C1197 1.387 . S
C1199 C1201 1.390 . S
C1199 H1203 0.950 . S
H1200 C1196 0.950 . S
C1201 C1199 1.390 . S
C1201 C1202 1.387 . S
C1201 H1204 0.950 . S
C1202 C1201 1.387 . S
C1202 C1205 1.387 . S
H1203 C1199 0.950 . S
H1204 C1201 0.950 . S
C1205 C1196 1.390 . S
C1205 H1198 0.950 . S
C1205 C1202 1.387 . S
C1206 C1207 1.387 . S
C1206 H1210 0.950 . S
C1206 C1215 1.390 . S
C1207 C1206 1.387 . S
C1207 C1209 1.387 . S
H1208 C1215 0.950 . S
C1209 C1207 1.387 . S
C1209 C1211 1.390 . S
C1209 H1213 0.950 . S
H1210 C1206 0.950 . S
C1211 C1209 1.390 . S
C1211 C1212 1.387 . S
C1211 H1214 0.950 . S
C1212 C1211 1.387 . S
C1212 C1215 1.387 . S
H1213 C1209 0.950 . S
H1214 C1211 0.950 . S
C1215 C1206 1.390 . S
C1215 H1208 0.950 . S
C1215 C1212 1.387 . S
C1216 C1217 1.387 . S
C1216 H1220 0.950 . S
C1216 C1225 1.390 . S
C1217 C1216 1.387 . S
C1217 C1219 1.387 . S
H1218 C1225 0.950 . S
C1219 C1217 1.387 . S
C1219 C1221 1.390 . S
C1219 H1223 0.950 . S
H1220 C1216 0.950 . S
C1221 C1219 1.390 . S
C1221 C1222 1.387 . S
C1221 H1224 0.950 . S
C1222 C1221 1.387 . S
C1222 C1225 1.387 . S
H1223 C1219 0.950 . S
H1224 C1221 0.950 . S
C1225 C1216 1.390 . S
C1225 H1218 0.950 . S
C1225 C1222 1.387 . S
C1226 C1227 1.387 . S
C1226 H1230 0.950 . S
C1226 C1235 1.390 . S
C1227 C1226 1.387 . S
C1227 C1229 1.387 . S
H1228 C1235 0.950 . S
C1229 C1227 1.387 . S
C1229 C1231 1.390 . S
C1229 H1233 0.950 . S
H1230 C1226 0.950 . S
C1231 C1229 1.390 . S
C1231 C1232 1.387 . S
C1231 H1234 0.950 . S
C1232 C1231 1.387 . S
C1232 C1235 1.387 . S
H1233 C1229 0.950 . S
H1234 C1231 0.950 . S
C1235 C1226 1.390 . S
C1235 H1228 0.950 . S
C1235 C1232 1.387 . S
C1236 C1237 1.387 . S
C1236 H1240 0.950 1_554 S
C1236 C1245 1.390 . S
C1237 C1236 1.387 . S
C1237 C1239 1.387 . S
H1238 C1245 0.950 1_556 S
C1239 C1237 1.387 . S
C1239 C1241 1.390 . S
C1239 H1243 0.950 . S
H1240 C1236 0.950 1_556 S
C1241 C1239 1.390 . S
C1241 C1242 1.387 . S
C1241 H1244 0.950 . S
C1242 C1241 1.387 . S
C1242 C1245 1.387 . S
H1243 C1239 0.950 . S
H1244 C1241 0.950 . S
C1245 C1236 1.390 . S
C1245 H1238 0.950 1_554 S
C1245 C1242 1.387 . S
C1246 C1247 1.387 . S
C1246 H1250 0.950 . S
C1246 C1255 1.390 1_455 S
C1247 C1246 1.387 . S
C1247 C1249 1.387 . S
H1248 C1255 0.950 . S
C1249 C1247 1.387 . S
C1249 C1251 1.390 1_455 S
C1249 H1253 0.950 . S
H1250 C1246 0.950 . S
C1251 C1249 1.390 1_655 S
C1251 C1252 1.387 . S
C1251 H1254 0.950 . S
C1252 C1251 1.387 . S
C1252 C1255 1.387 . S
H1253 C1249 0.950 . S
H1254 C1251 0.950 . S
C1255 C1246 1.390 1_655 S
C1255 H1248 0.950 . S
C1255 C1252 1.387 . S
C1256 C1257 1.387 . S
C1256 H1260 0.950 . S
C1256 C1265 1.390 1_565 S
C1257 C1256 1.387 . S
C1257 C1259 1.387 . S
H1258 C1265 0.950 . S
C1259 C1257 1.387 . S
C1259 C1261 1.390 1_565 S
C1259 H1263 0.950 . S
H1260 C1256 0.950 . S
C1261 C1259 1.390 1_545 S
C1261 C1262 1.387 . S
C1261 H1264 0.950 . S
C1262 C1261 1.387 . S
C1262 C1265 1.387 . S
H1263 C1259 0.950 . S
H1264 C1261 0.950 . S
C1265 C1256 1.390 1_545 S
C1265 H1258 0.950 . S
C1265 C1262 1.387 . S
C1266 C1267 1.387 . S
C1266 H1270 0.950 . S
C1266 C1275 1.390 . S
C1267 C1266 1.387 . S
C1267 C1269 1.387 . S
H1268 C1275 0.950 . S
C1269 C1267 1.387 . S
C1269 C1271 1.390 . S
C1269 H1273 0.950 . S
H1270 C1266 0.950 . S
C1271 C1269 1.390 . S
C1271 C1272 1.387 . S
C1271 H1274 0.950 . S
C1272 C1271 1.387 . S
C1272 C1275 1.387 . S
H1273 C1269 0.950 . S
H1274 C1271 0.950 . S
C1275 C1266 1.390 . S
C1275 H1268 0.950 . S
C1275 C1272 1.387 . S
C1276 C1277 1.387 . S
C1276 H1280 0.950 1_556 S
C1276 C1285 1.390 1_655 S
C1277 C1276 1.387 . S
C1277 C1279 1.387 . S
H1278 C1285 0.950 1_554 S
C1279 C1277 1.387 . S
C1279 C1281 1.390 1_655 S
C1279 H1283 0.950 . S
H1280 C1276 0.950 1_554 S
C1281 C1279 1.390 1_455 S
C1281 C1282 1.387 . S
C1281 H1284 0.950 . S
C1282 C1281 1.387 . S
C1282 C1285 1.387 . S
H1283 C1279 0.950 . S
H1284 C1281 0.950 . S
C1285 C1276 1.390 1_455 S
C1285 H1278 0.950 1_556 S
C1285 C1282 1.387 . S
C1286 C1287 1.387 . S
C1286 H1290 0.950 . S
C1286 C1295 1.390 1_545 S
C1287 C1286 1.387 . S
C1287 C1289 1.387 . S
H1288 C1295 0.950 . S
C1289 C1287 1.387 . S
C1289 C1291 1.390 1_545 S
C1289 H1293 0.950 . S
H1290 C1286 0.950 . S
C1291 C1289 1.390 1_565 S
C1291 C1292 1.387 . S
C1291 H1294 0.950 . S
C1292 C1291 1.387 . S
C1292 C1295 1.387 . S
H1293 C1289 0.950 . S
H1294 C1291 0.950 . S
C1295 C1286 1.390 1_565 S
C1295 H1288 0.950 . S
C1295 C1292 1.387 . S
C1057 C673 1.687 . S
C1062 C29 1.687 . S
C1067 C137 1.685 . S
C1072 C753 1.682 . S
C1077 C233 1.682 . S
C1082 C849 1.685 . S
C1087 C284 1.687 . S
C1092 C929 1.687 . S
C1097 C1025 1.685 . S
C1102 C372 1.682 . S
C1107 C557 1.685 . S
C1112 C460 1.683 . S
C1117 C909 1.064 . S
C1122 C49 1.064 . S
C1127 C117 1.063 . S
C1132 C988 1.064 . S
C1137 C196 1.063 . S
C1142 C577 1.063 . S
C1147 C636 1.063 . S
C1152 C321 1.063 . S
C1157 C733 1.063 . S
C1162 C409 1.064 . S
C1167 C812 1.064 . S
C1172 C497 1.064 . S
C1177 C20 1.636 . S
C1182 C761 1.637 . S
C1187 C145 1.636 . S
C1192 C841 1.636 . S
C1197 C937 1.637 . S
C1202 C225 1.636 . S
C1207 C293 1.637 . S
C1212 C1017 1.636 . S
C1217 C548 1.636 . S
C1222 C381 1.636 . S
C1227 C665 1.636 . S
C1232 C469 1.636 . S
C1237 C313 2.270 . S
C1242 C57 2.270 . S
C1247 C401 2.274 . S
C1252 C108 2.274 . S
C1257 C205 2.274 . S
C1262 C489 2.274 . S
C1267 C585 2.270 . S
C1272 C821 2.270 . S
C1277 C645 2.270 . S
C1282 C900 2.270 . S
C1287 C997 2.270 . S
C1292 C724 2.270 . S
