# Generated by pormake.
# Topology uno, (4)-cn, num edge types: 1
# Building blocks:
#     Node 0, Type 0, BuildingBlock: NAWXER_clean_sbu_0, # of connection points: 4
#     Node 1, Type 0, BuildingBlock: NAWXER_clean_sbu_0, # of connection points: 4
#     Node 2, Type 0, BuildingBlock: NAWXER_clean_sbu_0, # of connection points: 4
#     Node 3, Type 0, BuildingBlock: NAWXER_clean_sbu_0, # of connection points: 4
#     Node 4, Type 0, BuildingBlock: NAWXER_clean_sbu_0, # of connection points: 4
#     Node 5, Type 0, BuildingBlock: NAWXER_clean_sbu_0, # of connection points: 4
#     Node 6, Type 0, BuildingBlock: NAWXER_clean_sbu_0, # of connection points: 4
#     Node 7, Type 0, BuildingBlock: NAWXER_clean_sbu_0, # of connection points: 4
#     Node 8, Type 0, BuildingBlock: NAWXER_clean_sbu_0, # of connection points: 4
#     Node 9, Type 0, BuildingBlock: NAWXER_clean_sbu_0, # of connection points: 4
#     Node 10, Type 0, BuildingBlock: NAWXER_clean_sbu_0, # of connection points: 4
#     Node 11, Type 0, BuildingBlock: NAWXER_clean_sbu_0, # of connection points: 4
#     Node 12, Type 0, BuildingBlock: NAWXER_clean_sbu_0, # of connection points: 4
#     Node 13, Type 0, BuildingBlock: NAWXER_clean_sbu_0, # of connection points: 4
#     Node 14, Type 0, BuildingBlock: NAWXER_clean_sbu_0, # of connection points: 4
#     Node 15, Type 0, BuildingBlock: NAWXER_clean_sbu_0, # of connection points: 4
#     Node 16, Type 0, BuildingBlock: NAWXER_clean_sbu_0, # of connection points: 4
#     Node 17, Type 0, BuildingBlock: NAWXER_clean_sbu_0, # of connection points: 4
#     Node 18, Type 0, BuildingBlock: NAWXER_clean_sbu_0, # of connection points: 4
#     Node 19, Type 0, BuildingBlock: NAWXER_clean_sbu_0, # of connection points: 4
#     Node 20, Type 0, BuildingBlock: NAWXER_clean_sbu_0, # of connection points: 4
#     Node 21, Type 0, BuildingBlock: NAWXER_clean_sbu_0, # of connection points: 4
#     Node 22, Type 0, BuildingBlock: NAWXER_clean_sbu_0, # of connection points: 4
#     Node 23, Type 0, BuildingBlock: NAWXER_clean_sbu_0, # of connection points: 4
#     Edge 24, Type (0, 0), BuildingBlock: CIFDUS_clean_linker_0, # of connection points: 2
#     Edge 25, Type (0, 0), BuildingBlock: CIFDUS_clean_linker_0, # of connection points: 2
#     Edge 26, Type (0, 0), BuildingBlock: CIFDUS_clean_linker_0, # of connection points: 2
#     Edge 27, Type (0, 0), BuildingBlock: CIFDUS_clean_linker_0, # of connection points: 2
#     Edge 28, Type (0, 0), BuildingBlock: CIFDUS_clean_linker_0, # of connection points: 2
#     Edge 29, Type (0, 0), BuildingBlock: CIFDUS_clean_linker_0, # of connection points: 2
#     Edge 30, Type (0, 0), BuildingBlock: CIFDUS_clean_linker_0, # of connection points: 2
#     Edge 31, Type (0, 0), BuildingBlock: CIFDUS_clean_linker_0, # of connection points: 2
#     Edge 32, Type (0, 0), BuildingBlock: CIFDUS_clean_linker_0, # of connection points: 2
#     Edge 33, Type (0, 0), BuildingBlock: CIFDUS_clean_linker_0, # of connection points: 2
#     Edge 34, Type (0, 0), BuildingBlock: CIFDUS_clean_linker_0, # of connection points: 2
#     Edge 35, Type (0, 0), BuildingBlock: CIFDUS_clean_linker_0, # of connection points: 2
#     Edge 36, Type (0, 0), BuildingBlock: CIFDUS_clean_linker_0, # of connection points: 2
#     Edge 37, Type (0, 0), BuildingBlock: CIFDUS_clean_linker_0, # of connection points: 2
#     Edge 38, Type (0, 0), BuildingBlock: CIFDUS_clean_linker_0, # of connection points: 2
#     Edge 39, Type (0, 0), BuildingBlock: CIFDUS_clean_linker_0, # of connection points: 2
#     Edge 40, Type (0, 0), BuildingBlock: CIFDUS_clean_linker_0, # of connection points: 2
#     Edge 41, Type (0, 0), BuildingBlock: CIFDUS_clean_linker_0, # of connection points: 2
#     Edge 42, Type (0, 0), BuildingBlock: CIFDUS_clean_linker_0, # of connection points: 2
#     Edge 43, Type (0, 0), BuildingBlock: CIFDUS_clean_linker_0, # of connection points: 2
#     Edge 44, Type (0, 0), BuildingBlock: CIFDUS_clean_linker_0, # of connection points: 2
#     Edge 45, Type (0, 0), BuildingBlock: CIFDUS_clean_linker_0, # of connection points: 2
#     Edge 46, Type (0, 0), BuildingBlock: CIFDUS_clean_linker_0, # of connection points: 2
#     Edge 47, Type (0, 0), BuildingBlock: CIFDUS_clean_linker_0, # of connection points: 2
#     Edge 48, Type (0, 0), BuildingBlock: CIFDUS_clean_linker_0, # of connection points: 2
#     Edge 49, Type (0, 0), BuildingBlock: CIFDUS_clean_linker_0, # of connection points: 2
#     Edge 50, Type (0, 0), BuildingBlock: CIFDUS_clean_linker_0, # of connection points: 2
#     Edge 51, Type (0, 0), BuildingBlock: CIFDUS_clean_linker_0, # of connection points: 2
#     Edge 52, Type (0, 0), BuildingBlock: CIFDUS_clean_linker_0, # of connection points: 2
#     Edge 53, Type (0, 0), BuildingBlock: CIFDUS_clean_linker_0, # of connection points: 2
#     Edge 54, Type (0, 0), BuildingBlock: CIFDUS_clean_linker_0, # of connection points: 2
#     Edge 55, Type (0, 0), BuildingBlock: CIFDUS_clean_linker_0, # of connection points: 2
#     Edge 56, Type (0, 0), BuildingBlock: CIFDUS_clean_linker_0, # of connection points: 2
#     Edge 57, Type (0, 0), BuildingBlock: CIFDUS_clean_linker_0, # of connection points: 2
#     Edge 58, Type (0, 0), BuildingBlock: CIFDUS_clean_linker_0, # of connection points: 2
#     Edge 59, Type (0, 0), BuildingBlock: CIFDUS_clean_linker_0, # of connection points: 2
#     Edge 60, Type (0, 0), BuildingBlock: CIFDUS_clean_linker_0, # of connection points: 2
#     Edge 61, Type (0, 0), BuildingBlock: CIFDUS_clean_linker_0, # of connection points: 2
#     Edge 62, Type (0, 0), BuildingBlock: CIFDUS_clean_linker_0, # of connection points: 2
#     Edge 63, Type (0, 0), BuildingBlock: CIFDUS_clean_linker_0, # of connection points: 2
#     Edge 64, Type (0, 0), BuildingBlock: CIFDUS_clean_linker_0, # of connection points: 2
#     Edge 65, Type (0, 0), BuildingBlock: CIFDUS_clean_linker_0, # of connection points: 2
#     Edge 66, Type (0, 0), BuildingBlock: CIFDUS_clean_linker_0, # of connection points: 2
#     Edge 67, Type (0, 0), BuildingBlock: CIFDUS_clean_linker_0, # of connection points: 2
#     Edge 68, Type (0, 0), BuildingBlock: CIFDUS_clean_linker_0, # of connection points: 2
#     Edge 69, Type (0, 0), BuildingBlock: CIFDUS_clean_linker_0, # of connection points: 2
#     Edge 70, Type (0, 0), BuildingBlock: CIFDUS_clean_linker_0, # of connection points: 2
#     Edge 71, Type (0, 0), BuildingBlock: CIFDUS_clean_linker_0, # of connection points: 2
# Relax obj value: 0.465
# Max RMSD: 0.255
# Mean RMSD: 0.237
data_MOF--net-uno--node1-NAWXER_clean_sbu_0--edge1-CIFDUS_clean_linker_0
_symmetry_space_group_name_H-M    P1
_symmetry_Int_Tables_number       1
_symmetry_cell_setting            triclinic
loop_
_symmetry_equiv_pos_as_xyz
'x, y, z'
_cell_length_a     44.12794
_cell_length_b     44.193908
_cell_length_c     44.143186
_cell_angle_alpha  89.731942
_cell_angle_beta   89.776993
_cell_angle_gamma 89.817601
loop_
_atom_site_label
_atom_site_type_symbol
_atom_site_fract_x
_atom_site_fract_y
_atom_site_fract_z
_atom_type_partial_charge
C0 C 0.02646 0.27215 0.27257 0.0
C1 C 0.11529 0.29763 0.21474 0.0
O2 O 0.02949 0.27425 0.24408 0.0
Zn3 Zn 0.06911 0.2916 0.24298 0.0
O4 O 0.04563 0.28562 0.28965 0.0
Zn5 Zn 0.08773 0.3103 0.28186 0.0
O6 O 0.08109 0.35367 0.28883 0.0
O7 O 0.06541 0.33953 0.24388 0.0
O8 O 0.11764 0.30784 0.2419 0.0
O9 O 0.09037 0.28634 0.20608 0.0
O10 O 0.09524 0.26124 0.27189 0.0
O11 O 0.11339 0.28816 0.30993 0.0
C12 C 0.07086 0.36055 0.26289 0.0
C13 C 0.11066 0.26289 0.29644 0.0
C14 C 0.98204 0.77414 0.52018 0.0
C15 C 0.94205 0.86363 0.47153 0.0
O16 O 0.97825 0.77933 0.49215 0.0
Zn17 Zn 0.95648 0.81627 0.49604 0.0
O18 O 0.96884 0.7913 0.53972 0.0
Zn19 Zn 0.94156 0.83301 0.53781 0.0
O20 O 0.9003 0.82375 0.55074 0.0
O21 O 0.91157 0.80279 0.50696 0.0
O22 O 0.9364 0.86415 0.50006 0.0
O23 O 0.95264 0.83967 0.45977 0.0
O24 O 0.98876 0.84287 0.52168 0.0
O25 O 0.96613 0.8582 0.5638 0.0
C26 C 0.89263 0.80757 0.52845 0.0
C27 C 0.98958 0.85717 0.54691 0.0
C28 C 0.46318 0.7376 0.78297 0.0
C29 C 0.38107 0.68373 0.73747 0.0
O30 O 0.45819 0.73207 0.75529 0.0
Zn31 Zn 0.42581 0.7048 0.76106 0.0
O32 O 0.44906 0.72241 0.80359 0.0
Zn33 Zn 0.41219 0.68861 0.80317 0.0
O34 O 0.42764 0.64989 0.81691 0.0
O35 O 0.44637 0.66276 0.7724 0.0
O36 O 0.38125 0.67863 0.76614 0.0
O37 O 0.40357 0.69682 0.72531 0.0
O38 O 0.39434 0.7329 0.78697 0.0
O39 O 0.38389 0.7085 0.82975 0.0
C40 C 0.44463 0.64406 0.79453 0.0
C41 C 0.38055 0.73149 0.81263 0.0
C42 C 0.62527 0.1897 0.01962 0.0
C43 C 0.53734 0.12324 0.02954 0.0
O44 O 0.6198 0.16944 0.03927 0.0
Zn45 Zn 0.57906 0.15827 0.02638 0.0
O46 O 0.60482 0.19673 1.00034 0.0
Zn47 Zn 0.56043 0.18129 0.9898 0.0
O48 O 0.53377 0.21456 0.99478 0.0
O49 O 0.54616 0.19383 0.03846 0.0
O50 O 0.53451 0.143 0.00823 0.0
O51 O 0.56038 0.12406 0.04678 0.0
O52 O 0.58604 0.13764 0.98169 0.0
O53 O 0.56503 0.1691 0.94893 0.0
C54 C 0.53021 0.21296 0.02319 0.0
C55 C 0.57887 0.14447 0.95427 0.0
C56 C 0.97709 0.00772 0.36908 0.0
C57 C 0.98653 0.106 0.31887 0.0
O58 O 0.95916 0.03022 0.37145 0.0
Zn59 Zn 0.98247 0.05657 0.3452 0.0
O60 O 0.00149 0.01019 0.35329 0.0
Zn61 Zn 0.02365 0.0445 0.32532 0.0
O62 O 0.06108 0.05065 0.34595 0.0
O63 O 0.02171 0.06314 0.374 0.0
O64 O 0.0087 0.08851 0.31217 0.0
O65 O 0.96638 0.09699 0.33729 0.0
O66 O 0.97953 0.0299 0.30316 0.0
O67 O 0.02682 0.02325 0.28815 0.0
C68 C 0.05047 0.05956 0.37111 0.0
C69 C 0.99879 0.01805 0.28464 0.0
C70 C 0.22272 0.72758 0.54902 0.0
C71 C 0.19007 0.78788 0.63381 0.0
O72 O 0.21868 0.75595 0.55062 0.0
Zn73 Zn 0.20044 0.75687 0.5896 0.0
O74 O 0.21147 0.71039 0.5698 0.0
Zn75 Zn 0.18771 0.718 0.61307 0.0
O76 O 0.1463 0.70386 0.60963 0.0
O77 O 0.15423 0.7449 0.58233 0.0
O78 O 0.18485 0.75975 0.6391 0.0
O79 O 0.19841 0.796 0.6075 0.0
O80 O 0.23534 0.73463 0.61692 0.0
O81 O 0.21404 0.69511 0.63938 0.0
C82 C 0.13644 0.72404 0.59175 0.0
C83 C 0.23731 0.71136 0.63439 0.0
C84 C 0.51148 0.90861 0.8089 0.0
C85 C 0.54886 0.99822 0.85888 0.0
O86 O 0.53408 0.9123 0.826 0.0
Zn87 Zn 0.53005 0.95497 0.83265 0.0
O88 O 0.49523 0.93158 0.80141 0.0
Zn89 Zn 0.49593 0.97937 0.81157 0.0
O90 O 0.50176 0.99882 0.77365 0.0
O91 O 0.544 0.97919 0.79149 0.0
O92 O 0.52629 0.00463 0.8416 0.0
O93 O 0.55827 0.9711 0.86091 0.0
O94 O 0.48816 0.9604 0.85859 0.0
O95 O 0.45747 0.98782 0.83006 0.0
C96 C 0.53022 0.99552 0.77163 0.0
C97 C 0.46272 0.97417 0.8548 0.0
C98 C 0.3649 0.26473 0.07033 0.0
C99 C 0.27501 0.28054 0.13295 0.0
O100 O 0.35867 0.28619 0.08821 0.0
Zn101 Zn 0.31875 0.27304 0.1014 0.0
O102 O 0.34544 0.24381 0.06597 0.0
Zn103 Zn 0.3018 0.23292 0.08366 0.0
O104 O 0.2745 0.23206 0.05049 0.0
O105 O 0.28546 0.27857 0.06473 0.0
O106 O 0.27363 0.25641 0.11691 0.0
O107 O 0.29851 0.29717 0.13181 0.0
O108 O 0.32706 0.23293 0.12872 0.0
O109 O 0.30813 0.19487 0.10297 0.0
C110 C 0.26955 0.26029 0.04873 0.0
C111 C 0.32137 0.20456 0.12643 0.0
C112 C 0.30113 0.12816 0.28572 0.0
C113 C 0.27495 0.06369 0.37173 0.0
O114 O 0.31609 0.12515 0.31016 0.0
Zn115 Zn 0.2881 0.09634 0.32766 0.0
O116 O 0.27578 0.11444 0.28234 0.0
Zn117 Zn 0.24782 0.08252 0.30787 0.0
O118 O 0.21114 0.10459 0.31305 0.0
O119 O 0.24985 0.12678 0.33491 0.0
O120 O 0.25491 0.06181 0.35095 0.0
O121 O 0.29789 0.08036 0.36758 0.0
O122 O 0.29262 0.06076 0.29276 0.0
O123 O 0.24567 0.05088 0.27897 0.0
C124 C 0.2217 0.12679 0.32765 0.0
C125 C 0.27394 0.04721 0.2751 0.0
C126 C 0.12736 0.96705 0.57708 0.0
C127 C 0.21327 0.01929 0.53406 0.0
O128 O 0.15107 0.9565 0.56466 0.0
Zn129 Zn 0.17292 0.99348 0.56086 0.0
O130 O 0.12615 0.99531 0.58361 0.0
Zn131 Zn 0.15589 0.03401 0.57802 0.0
O132 O 0.12847 0.06036 0.55606 0.0
O133 O 0.14372 0.01984 0.53086 0.0
O134 O 0.19644 0.03804 0.54883 0.0
O135 O 0.2087 0.99111 0.53695 0.0
O136 O 0.18797 0.00243 0.60589 0.0
O137 O 0.16639 0.04534 0.61925 0.0
C138 C 0.12855 0.04466 0.53196 0.0
C139 C 0.18317 0.02294 0.62575 0.0
C140 C 0.20784 0.87921 0.78747 0.0
C141 C 0.23409 0.92756 0.88247 0.0
O142 O 0.19359 0.87822 0.81259 0.0
Zn143 Zn 0.21872 0.90749 0.8325 0.0
O144 O 0.2312 0.89635 0.7846 0.0
Zn145 Zn 0.2567 0.92728 0.81392 0.0
O146 O 0.29534 0.90941 0.81105 0.0
O147 O 0.26104 0.88055 0.83353 0.0
O148 O 0.254 0.9332 0.86208 0.0
O149 O 0.2091 0.91589 0.87488 0.0
O150 O 0.20893 0.94715 0.80416 0.0
O151 O 0.25397 0.96557 0.79385 0.0
C152 C 0.28833 0.88465 0.82393 0.0
C153 C 0.22554 0.96672 0.79037 0.0
C154 C 0.40586 0.00882 0.07118 0.0
C155 C 0.31602 0.95332 0.03728 0.0
O156 O 0.38352 0.02511 0.0624 0.0
Zn157 Zn 0.33799 0.02121 0.04797 0.0
O158 O 0.40243 0.98041 0.07495 0.0
Zn159 Zn 0.35994 0.97893 0.06147 0.0
O160 O 0.36722 0.99378 0.01639 0.0
O161 O 0.34404 0.03692 0.00603 0.0
O162 O 0.33857 0.94148 0.05096 0.0
O163 O 0.31328 0.98212 0.03652 0.0
O164 O 0.31411 0.04108 0.07945 0.0
O165 O 0.33552 0.9996 0.0974 0.0
C166 C 0.36074 0.0148 0.99753 0.0
C167 C 0.31908 0.02316 0.10155 0.0
C168 C 0.7886 0.22683 0.95796 0.0
C169 C 0.82485 0.2783 0.86857 0.0
O170 O 0.79219 0.25488 0.9532 0.0
Zn171 Zn 0.81255 0.25266 0.91487 0.0
O172 O 0.80194 0.20784 0.94039 0.0
Zn173 Zn 0.82974 0.21172 0.89948 0.0
O174 O 0.87181 0.20161 0.90898 0.0
O175 O 0.86036 0.24836 0.9216 0.0
O176 O 0.8331 0.25036 0.86807 0.0
O177 O 0.81182 0.28885 0.89198 0.0
O178 O 0.78229 0.22535 0.88734 0.0
O179 O 0.80795 0.18465 0.87308 0.0
C180 C 0.88014 0.22742 0.91811 0.0
C181 C 0.78365 0.20026 0.87281 0.0
C182 C 0.04784 0.52529 0.12431 0.0
C183 C 0.03035 0.61775 0.18199 0.0
O184 O 0.06304 0.54967 0.12286 0.0
Zn185 Zn 0.03914 0.57066 0.15302 0.0
O186 O 0.02464 0.52347 0.14196 0.0
Zn187 Zn 1.00041 0.553 0.17378 0.0
O188 O 0.96141 0.5564 0.15541 0.0
O189 O 0.99774 0.57592 0.12721 0.0
O190 O 0.01034 0.59773 0.1881 0.0
O191 O 0.05124 0.61179 0.16318 0.0
O192 O 0.04704 0.54076 0.19243 0.0
O193 O 0.00154 0.53002 0.2104 0.0
C194 C 0.96973 0.56902 0.13092 0.0
C195 C 0.03006 0.52686 0.21176 0.0
C196 C 0.72817 0.77601 0.47044 0.0
C197 C 0.68909 0.73071 0.37939 0.0
O198 O 0.72467 0.74832 0.46409 0.0
Zn199 Zn 0.70353 0.75313 0.4267 0.0
O200 O 0.71469 0.79614 0.45423 0.0
Zn201 Zn 0.68646 0.79541 0.41385 0.0
O202 O 0.64473 0.80565 0.42555 0.0
O203 O 0.65658 0.75842 0.43628 0.0
O204 O 0.6815 0.7588 0.38077 0.0
O205 O 0.70242 0.71836 0.40175 0.0
O206 O 0.73356 0.78141 0.39987 0.0
O207 O 0.70878 0.82349 0.38825 0.0
C208 C 0.63683 0.77962 0.43479 0.0
C209 C 0.73267 0.80731 0.38662 0.0
C210 C 0.88624 0.81208 0.29319 0.0
C211 C 0.9692 0.77732 0.2303 0.0
O212 O 0.91193 0.80159 0.30074 0.0
Zn213 Zn 0.9295 0.79967 0.26119 0.0
O214 O 0.88103 0.81805 0.26518 0.0
Zn215 Zn 0.90615 0.8143 0.22279 0.0
O216 O 0.87871 0.78904 0.20028 0.0
O217 O 0.90077 0.7664 0.23919 0.0
O218 O 0.94858 0.78984 0.2139 0.0
O219 O 0.96796 0.7801 0.25887 0.0
O220 O 0.93766 0.84612 0.25007 0.0
O221 O 0.91076 0.85583 0.20922 0.0
C222 C 0.88304 0.76535 0.21621 0.0
C223 C 0.92867 0.86473 0.22965 0.0
C224 C 0.62873 0.19626 0.78352 0.0
C225 C 0.54528 0.23743 0.72594 0.0
O226 O 0.603 0.20552 0.79244 0.0
Zn227 Zn 0.58522 0.21231 0.75372 0.0
O228 O 0.63381 0.19351 0.75499 0.0
Zn229 Zn 0.60833 0.20169 0.71368 0.0
O230 O 0.63511 0.22961 0.69321 0.0
O231 O 0.61347 0.24781 0.73457 0.0
O232 O 0.56571 0.22664 0.7081 0.0
O233 O 0.54692 0.23207 0.75415 0.0
O234 O 0.57567 0.16822 0.73722 0.0
O235 O 0.60289 0.16203 0.6957 0.0
C236 C 0.63079 0.25148 0.7114 0.0
C237 C 0.58414 0.15179 0.71493 0.0
C238 C 0.48242 0.50269 0.64671 0.0
C239 C 0.4936 0.40288 0.69259 0.0
O240 O 0.46622 0.47938 0.64228 0.0
Zn241 Zn 0.48881 0.45288 0.66874 0.0
O242 O 0.50562 0.50083 0.66412 0.0
Zn243 Zn 0.52745 0.46648 0.69212 0.0
O244 O 0.56683 0.46316 0.6745 0.0
O245 O 0.53082 0.44886 0.64335 0.0
O246 O 0.51415 0.42105 0.70168 0.0
O247 O 0.47437 0.41171 0.67321 0.0
O248 O 0.48081 0.47599 0.71192 0.0
O249 O 0.52618 0.4855 0.73048 0.0
C250 C 0.55896 0.45385 0.6486 0.0
C251 C 0.49758 0.48784 0.73247 0.0
C252 C 0.0351 0.30686 0.94685 0.0
C253 C 0.07255 0.3911 0.00883 0.0
O254 O 0.0335 0.30257 0.97545 0.0
Zn255 Zn 0.04443 0.32431 0.01628 0.0
O256 O 0.04938 0.3298 0.93657 0.0
Zn257 Zn 0.05954 0.34853 0.97551 0.0
O258 O 0.09379 0.32145 0.99569 0.0
O259 O 0.07424 0.29778 0.0353 0.0
O260 O 0.07528 0.3899 0.98007 0.0
O261 O 0.06223 0.36814 0.02328 0.0
O262 O 0.00237 0.33126 0.03128 0.0
O263 O 0.01472 0.35661 0.98989 0.0
C264 C 0.09689 0.30338 0.01824 0.0
C265 C 0.99506 0.34952 0.00996 0.0
C266 C 0.38496 0.69412 0.4856 0.0
C267 C 0.48398 0.64776 0.46891 0.0
O268 O 0.39347 0.67716 0.46412 0.0
Zn269 Zn 0.43503 0.67058 0.47698 0.0
O270 O 0.40368 0.70124 0.50645 0.0
Zn271 Zn 0.44964 0.69126 0.51722 0.0
O272 O 0.46967 0.7298 0.51714 0.0
O273 O 0.46048 0.71259 0.47124 0.0
O274 O 0.48275 0.66405 0.49289 0.0
O275 O 0.46046 0.64426 0.45269 0.0
O276 O 0.43168 0.6425 0.51689 0.0
O277 O 0.44782 0.66983 0.55519 0.0
C278 C 0.47309 0.73209 0.48865 0.0
C279 C 0.43789 0.6449 0.54513 0.0
C280 C 0.63025 0.54581 0.4495 0.0
C281 C 0.72674 0.50905 0.48477 0.0
O282 O 0.65204 0.55973 0.46187 0.0
Zn283 Zn 0.67971 0.52714 0.46218 0.0
O284 O 0.63355 0.51783 0.44217 0.0
Zn285 Zn 0.67039 0.48411 0.44608 0.0
O286 O 0.64875 0.45376 0.46892 0.0
O287 O 0.65696 0.49648 0.49359 0.0
O288 O 0.71194 0.4872 0.47272 0.0
O289 O 0.71739 0.53589 0.48091 0.0
O290 O 0.68753 0.52253 0.41497 0.0
O291 O 0.68125 0.47442 0.40424 0.0
C292 C 0.64635 0.46944 0.49291 0.0
C293 C 0.68722 0.50113 0.39559 0.0
C294 C 0.80407 0.39269 0.73126 0.0
C295 C 0.79571 0.44544 0.63448 0.0
O296 O 0.82236 0.39077 0.70893 0.0
Zn297 Zn 0.80098 0.4199 0.68407 0.0
O298 O 0.78059 0.4098 0.72948 0.0
Zn299 Zn 0.75995 0.44065 0.69702 0.0
O300 O 0.72174 0.42064 0.69159 0.0
O301 O 0.76078 0.39354 0.67583 0.0
O302 O 0.77346 0.45182 0.65203 0.0
O303 O 0.81702 0.42868 0.644 0.0
O304 O 0.80569 0.45888 0.71354 0.0
O305 O 0.75979 0.47782 0.71968 0.0
C306 C 0.73218 0.39629 0.68036 0.0
C307 C 0.78777 0.47803 0.72621 0.0
C308 C 0.85329 0.45206 0.96741 0.0
C309 C 0.76666 0.51683 0.98358 0.0
O310 O 0.82741 0.44515 0.97799 0.0
Zn311 Zn 0.80914 0.48368 0.97 0.0
O312 O 0.85792 0.47865 0.9563 0.0
Zn313 Zn 0.83196 0.52093 0.95201 0.0
O314 O 0.85757 0.54705 0.97551 0.0
O315 O 0.83513 0.51075 0.00184 0.0
O316 O 0.78852 0.53189 0.97171 0.0
O317 O 0.76823 0.4882 0.98408 0.0
O318 O 0.80868 0.48573 0.92111 0.0
O319 O 0.82932 0.5295 0.90906 0.0
C320 C 0.85258 0.53395 1.00076 0.0
C321 C 0.81694 0.50505 0.90094 0.0
C322 C 0.70578 0.62576 0.23498 0.0
C323 C 0.71001 0.57435 0.13774 0.0
O324 O 0.68704 0.6287 0.21328 0.0
Zn325 Zn 0.70836 0.60161 0.18616 0.0
O326 O 0.72955 0.60927 0.23167 0.0
Zn327 Zn 0.74985 0.58061 0.19721 0.0
O328 O 0.78736 0.60105 0.18934 0.0
O329 O 0.74775 0.62896 0.17719 0.0
O330 O 0.73287 0.56782 0.15428 0.0
O331 O 0.69038 0.59317 0.14698 0.0
O332 O 0.70549 0.56049 0.21358 0.0
O333 O 0.75216 0.54308 0.21903 0.0
C334 C 0.77653 0.62603 0.18001 0.0
C335 C 0.72409 0.54124 0.22519 0.0
H336 H 0.21712 0.26918 0.11925 0.0
H337 H 0.27302 0.31203 0.18637 0.0
H338 H 0.22786 0.32305 0.21717 0.0
H339 H 0.1728 0.31733 0.22612 0.0
H340 H 0.11776 0.27519 0.1575 0.0
H341 H 0.16237 0.26742 0.12595 0.0
C342 C 0.21942 0.28095 0.14065 0.0
C343 C 0.24826 0.28933 0.15092 0.0
C344 C 0.19355 0.28736 0.15787 0.0
C345 C 0.25096 0.30523 0.17821 0.0
C346 C 0.2252 0.31145 0.19578 0.0
C347 C 0.17053 0.30674 0.20414 0.0
C348 C 0.14199 0.29653 0.19441 0.0
C349 C 0.1964 0.30219 0.18602 0.0
C350 C 0.13943 0.28307 0.16573 0.0
C351 C 0.16495 0.27851 0.14765 0.0
H352 H 0.96744 0.87387 0.41662 0.0
H353 H 0.91407 0.91711 0.48625 0.0
H354 H 0.91825 0.96558 0.45947 0.0
H355 H 0.94086 0.99645 0.41828 0.0
H356 H 0.99713 0.95271 0.3512 0.0
H357 H 0.98804 0.90376 0.37498 0.0
C358 C 0.95625 0.89375 0.42575 0.0
C359 C 0.94047 0.89185 0.4534 0.0
C360 C 0.95964 0.92161 0.41085 0.0
C361 C 0.92638 0.91796 0.46499 0.0
C362 C 0.92888 0.94571 0.44976 0.0
C363 C 0.95089 0.97613 0.40881 0.0
C364 C 0.96988 0.97824 0.38322 0.0
C365 C 0.94607 0.94795 0.42302 0.0
C366 C 0.98279 0.95177 0.37116 0.0
C367 C 0.9775 0.92372 0.38466 0.0
H368 H 0.24823 0.67915 0.68621 0.0
H369 H 0.29272 0.7263 0.61271 0.0
H370 H 0.34182 0.71752 0.6362 0.0
H371 H 0.37146 0.70109 0.67952 0.0
H372 H 0.32756 0.65743 0.75547 0.0
H373 H 0.27904 0.65952 0.72882 0.0
C374 C 0.26875 0.68716 0.67526 0.0
C375 C 0.26685 0.70366 0.64799 0.0
C376 C 0.297 0.68266 0.68929 0.0
C377 C 0.29356 0.71396 0.63397 0.0
C378 C 0.32167 0.70886 0.64731 0.0
C379 C 0.35144 0.69152 0.69014 0.0
C380 C 0.35314 0.67932 0.71956 0.0
C381 C 0.32357 0.69389 0.67527 0.0
C382 C 0.32689 0.66702 0.73286 0.0
C383 C 0.29909 0.6684 0.71771 0.0
H384 H 0.59573 0.08542 0.95986 0.0
H385 H 0.56648 0.15202 0.8942 0.0
H386 H 0.55709 0.11219 0.85749 0.0
H387 H 0.54995 0.05826 0.84684 0.0
H388 H 0.57902 0.99153 0.91226 0.0
H389 H 0.59579 0.03162 0.94621 0.0
C390 C 0.58804 0.09132 0.93728 0.0
C391 C 0.58123 0.1216 0.93004 0.0
C392 C 0.58207 0.06824 0.91642 0.0
C393 C 0.57153 0.12884 0.90055 0.0
C394 C 0.56595 0.10607 0.87956 0.0
C395 C 0.56027 0.05254 0.8684 0.0
C396 C 0.56271 0.02211 0.87736 0.0
C397 C 0.56987 0.07565 0.88774 0.0
C398 C 0.57671 0.01487 0.905 0.0
C399 C 0.58624 0.03777 0.92444 0.0
H400 H 0.16174 0.13243 0.31651 0.0
H401 H 0.23897 0.18265 0.34827 0.0
H402 H 0.20968 0.22967 0.34534 0.0
H403 H 0.16431 0.25718 0.32671 0.0
H404 H 0.08902 0.20614 0.29184 0.0
H405 H 0.11523 0.15888 0.30321 0.0
C406 C 0.17209 0.15356 0.3233 0.0
C407 C 0.20263 0.15405 0.33215 0.0
C408 C 0.1555 0.1805 0.32064 0.0
C409 C 0.21552 0.18162 0.34121 0.0
C410 C 0.19884 0.20858 0.33935 0.0
C411 C 0.15351 0.23566 0.32223 0.0
C412 C 0.12501 0.23506 0.30812 0.0
C413 C 0.16914 0.20842 0.32803 0.0
C414 C 0.11118 0.2071 0.30228 0.0
C415 C 0.12612 0.18007 0.30879 0.0
H416 H 0.99721 0.90851 0.58031 0.0
H417 H 0.04611 0.83836 0.53297 0.0
H418 H 0.09378 0.86443 0.54186 0.0
H419 H 0.12084 0.90928 0.55822 0.0
H420 H 0.07241 0.98173 0.60252 0.0
H421 H 0.02549 0.95251 0.60015 0.0
C422 C 0.0184 0.89881 0.5724 0.0
C423 C 0.01819 0.87178 0.55576 0.0
C424 C 0.04579 0.9144 0.57688 0.0
C425 C 0.04571 0.8594 0.54548 0.0
C426 C 0.07299 0.87424 0.55059 0.0
C427 C 0.10016 0.91857 0.56781 0.0
C428 C 0.10014 0.94777 0.58029 0.0
C429 C 0.0732 0.90212 0.56552 0.0
C430 C 0.07307 0.95935 0.59264 0.0
C431 C 0.04618 0.9427 0.59118 0.0
H432 H 0.28118 0.82769 0.84721 0.0
H433 H 0.34631 0.8861 0.80302 0.0
H434 H 0.38127 0.84389 0.7976 0.0
H435 H 0.39147 0.78981 0.80081 0.0
H436 H 0.32784 0.73065 0.84556 0.0
H437 H 0.29416 0.77384 0.85559 0.0
C438 C 0.30318 0.83125 0.83677 0.0
C439 C 0.31086 0.85991 0.82509 0.0
C440 C 0.32329 0.80676 0.83356 0.0
C441 C 0.33962 0.86423 0.81193 0.0
C442 C 0.35966 0.84009 0.80872 0.0
C443 C 0.37028 0.78644 0.81294 0.0
C444 C 0.36172 0.75725 0.822 0.0
C445 C 0.35136 0.81118 0.81867 0.0
C446 C 0.33468 0.75307 0.83829 0.0
C447 C 0.31545 0.77768 0.8439 0.0
H448 H 0.4275 0.03383 0.02141 0.0
H449 H 0.45065 0.01605 0.11445 0.0
H450 H 0.49553 0.04893 0.10932 0.0
H451 H 0.52493 0.08688 0.07901 0.0
H452 H 0.49792 0.10522 0.98672 0.0
H453 H 0.45773 0.06806 0.99091 0.0
C454 C 0.44272 0.03676 0.04045 0.0
C455 C 0.43603 0.02268 0.06821 0.0
C456 C 0.46746 0.05619 0.03752 0.0
C457 C 0.45569 0.0265 0.09277 0.0
C458 C 0.48107 0.04553 0.08986 0.0
C459 C 0.51035 0.08251 0.05982 0.0
C460 C 0.5142 0.09919 0.03271 0.0
C461 C 0.48671 0.06118 0.0625 0.0
C462 C 0.4952 0.09319 0.00799 0.0
C463 C 0.47225 0.0718 0.01028 0.0
H464 H 0.0361 0.07801 0.42856 0.0
H465 H 0.11041 0.04501 0.37378 0.0
H466 H 0.14158 0.03923 0.41876 0.0
H467 H 0.14615 0.03848 0.47399 0.0
H468 H 0.07335 0.07296 0.52939 0.0
H469 H 0.0432 0.08337 0.48386 0.0
C470 C 0.05927 0.07003 0.42641 0.0
C471 C 0.07066 0.06154 0.3978 0.0
C472 C 0.07722 0.06667 0.45251 0.0
C473 C 0.10088 0.05153 0.39544 0.0
C474 C 0.11875 0.04806 0.42121 0.0
C475 C 0.12376 0.04854 0.47603 0.0
C476 C 0.11169 0.05454 0.50486 0.0
C477 C 0.10686 0.0547 0.44988 0.0
C478 C 0.08298 0.06809 0.50733 0.0
C479 C 0.06575 0.07392 0.48134 0.0
H480 H 0.17192 0.77942 0.69256 0.0
H481 H 0.20869 0.84655 0.63133 0.0
H482 H 0.2161 0.88114 0.67336 0.0
H483 H 0.21619 0.8909 0.72792 0.0
H484 H 0.17815 0.82505 0.78947 0.0
H485 H 0.16708 0.7915 0.74693 0.0
C486 C 0.18117 0.80177 0.68835 0.0
C487 C 0.19005 0.81016 0.65882 0.0
C488 C 0.18543 0.8217 0.71273 0.0
C489 C 0.20176 0.83934 0.65379 0.0
C490 C 0.20616 0.85917 0.67785 0.0
C491 C 0.2053 0.86927 0.73198 0.0
C492 C 0.19836 0.86024 0.76175 0.0
C493 C 0.19877 0.85031 0.70747 0.0
C494 C 0.18376 0.83244 0.7667 0.0
C495 C 0.17752 0.81322 0.74241 0.0
H496 H 0.38708 0.9652 0.97448 0.0
H497 H 0.36422 0.05744 0.95112 0.0
H498 H 0.39159 0.05179 0.90273 0.0
H499 H 0.42576 0.02148 0.86943 0.0
H500 H 0.45137 0.93118 0.89707 0.0
H501 H 0.41904 0.93529 0.94184 0.0
C502 C 0.38789 0.98428 0.95894 0.0
C503 C 0.37387 0.01192 0.96666 0.0
C504 C 0.40429 0.98113 0.93204 0.0
C505 C 0.37484 0.03599 0.94581 0.0
C506 C 0.39061 0.03275 0.91825 0.0
C507 C 0.42382 0.0026 0.8851 0.0
C508 C 0.4408 0.97596 0.88002 0.0
C509 C 0.40595 0.00557 0.91144 0.0
C510 C 0.43856 0.95183 0.9006 0.0
C511 C 0.42012 0.95421 0.92615 0.0
H512 H 0.30236 0.10878 0.22872 0.0
H513 H 0.32775 0.18412 0.28466 0.0
H514 H 0.34094 0.2137 0.2392 0.0
H515 H 0.33848 0.21977 0.18364 0.0
H516 H 0.31264 0.1436 0.12851 0.0
H517 H 0.30713 0.1123 0.17371 0.0
C518 C 0.31116 0.13159 0.23089 0.0
C519 C 0.31359 0.14469 0.25965 0.0
C520 C 0.31857 0.14817 0.20489 0.0
C521 C 0.32558 0.17385 0.26255 0.0
C522 C 0.33298 0.19069 0.23662 0.0
C523 C 0.33234 0.19614 0.18145 0.0
C524 C 0.3254 0.18422 0.15277 0.0
C525 C 0.32864 0.17836 0.20764 0.0
C526 C 0.31773 0.15348 0.15032 0.0
C527 C 0.31442 0.13557 0.17616 0.0
H528 H 0.83564 0.34005 0.73975 0.0
H529 H 0.78443 0.40879 0.78689 0.0
H530 H 0.78945 0.38092 0.83417 0.0
H531 H 0.80438 0.33545 0.86125 0.0
H532 H 0.8526 0.26431 0.81462 0.0
H533 H 0.85292 0.29472 0.76812 0.0
C534 C 0.82591 0.34896 0.76048 0.0
C535 C 0.80956 0.37628 0.75982 0.0
C536 C 0.82811 0.33231 0.78762 0.0
C537 C 0.79689 0.38763 0.78675 0.0
C538 C 0.79975 0.37174 0.81384 0.0
C539 C 0.81527 0.32662 0.84105 0.0
C540 C 0.82823 0.29758 0.84135 0.0
C541 C 0.8147 0.34379 0.81438 0.0
C542 C 0.8423 0.28659 0.81495 0.0
C543 C 0.84244 0.30392 0.78833 0.0
H544 H 0.91189 0.54858 0.12875 0.0
H545 H 0.97956 0.59502 0.0753 0.0
H546 H 0.94741 0.59128 0.03054 0.0
H547 H 0.90283 0.56938 0.00541 0.0
H548 H 0.83695 0.52042 0.05885 0.0
H549 H 0.86557 0.53076 0.10474 0.0
C550 C 0.91944 0.55838 0.10746 0.0
C551 C 0.94824 0.57178 0.10536 0.0
C552 C 0.90128 0.55537 0.08167 0.0
C553 C 0.95757 0.58441 0.07755 0.0
C554 C 0.93925 0.58216 0.05189 0.0
C555 C 0.8945 0.56142 0.02717 0.0
C556 C 0.86799 0.54387 0.02866 0.0
C557 C 0.91148 0.56684 0.05347 0.0
C558 C 0.8575 0.53367 0.05702 0.0
C559 C 0.87384 0.53958 0.0833 0.0
H560 H 0.70636 0.67299 0.36855 0.0
H561 H 0.66243 0.74974 0.32653 0.0
H562 H 0.66108 0.72287 0.27822 0.0
H563 H 0.67659 0.67904 0.24689 0.0
H564 H 0.72296 0.60408 0.28947 0.0
H565 H 0.7189 0.62866 0.33856 0.0
C566 C 0.69616 0.6838 0.34895 0.0
C567 C 0.68476 0.71343 0.35112 0.0
C568 C 0.6961 0.66857 0.32122 0.0
C569 C 0.67153 0.72698 0.32547 0.0
C570 C 0.67081 0.71166 0.2978 0.0
C571 C 0.68544 0.66806 0.26704 0.0
C572 C 0.70036 0.64004 0.26459 0.0
C573 C 0.68367 0.68269 0.29524 0.0
C574 C 0.71181 0.62592 0.29077 0.0
C575 C 0.70945 0.63991 0.31886 0.0
H576 H 0.83243 0.63312 0.20385 0.0
H577 H 0.76398 0.68003 0.15208 0.0
H578 H 0.79223 0.72732 0.15673 0.0
H579 H 0.83383 0.75626 0.17998 0.0
H580 H 0.8999 0.70915 0.23471 0.0
H581 H 0.87509 0.66116 0.22451 0.0
C582 C 0.82398 0.65352 0.193 0.0
C583 C 0.79614 0.65303 0.17765 0.0
C584 C 0.83967 0.68078 0.19678 0.0
C585 C 0.78537 0.6798 0.16404 0.0
C586 C 0.80141 0.70689 0.16686 0.0
C587 C 0.8429 0.73544 0.18944 0.0
C588 C 0.86846 0.73635 0.20835 0.0
C589 C 0.82815 0.70783 0.18394 0.0
C590 C 0.87998 0.70918 0.22044 0.0
C591 C 0.8659 0.68166 0.21452 0.0
H592 H 0.67667 0.26578 0.67219 0.0
H593 H 0.61543 0.30476 0.73793 0.0
H594 H 0.63872 0.35414 0.73072 0.0
H595 H 0.67896 0.38543 0.70901 0.0
H596 H 0.74248 0.34627 0.64574 0.0
H597 H 0.71546 0.29809 0.6482 0.0
C598 C 0.66833 0.28513 0.68478 0.0
C599 C 0.64461 0.28146 0.70582 0.0
C600 C 0.68214 0.31353 0.68087 0.0
C601 C 0.63398 0.3068 0.7219 0.0
C602 C 0.64717 0.33514 0.71771 0.0
C603 C 0.68649 0.36657 0.69522 0.0
C604 C 0.71264 0.36941 0.67721 0.0
C605 C 0.67158 0.33867 0.69764 0.0
C606 C 0.72237 0.34462 0.65981 0.0
C607 C 0.70705 0.31702 0.66135 0.0
H608 H 0.4691 0.636 0.59715 0.0
H609 H 0.40786 0.59183 0.5357 0.0
H610 H 0.41488 0.54396 0.56283 0.0
H611 H 0.44181 0.51378 0.6014 0.0
H612 H 0.5053 0.55796 0.66068 0.0
H613 H 0.49409 0.60655 0.63693 0.0
C614 C 0.4568 0.61606 0.59005 0.0
C615 C 0.43795 0.61749 0.56449 0.0
C616 C 0.46175 0.58843 0.60507 0.0
C617 C 0.42251 0.59132 0.55534 0.0
C618 C 0.42664 0.5639 0.57073 0.0
C619 C 0.45305 0.53407 0.60922 0.0
C620 C 0.47457 0.53213 0.63259 0.0
C621 C 0.4468 0.56202 0.59517 0.0
C622 C 0.4889 0.55868 0.64249 0.0
C623 C 0.48242 0.58655 0.62901 0.0
H624 H 0.72494 0.20897 0.88693 0.0
H625 H 0.78335 0.17111 0.81833 0.0
H626 H 0.73965 0.16381 0.785 0.0
H627 H 0.68567 0.17361 0.7736 0.0
H628 H 0.62766 0.21034 0.84349 0.0
H629 H 0.67028 0.21221 0.8782 0.0
C630 C 0.72799 0.19871 0.86482 0.0
C631 C 0.75722 0.19094 0.85484 0.0
C632 C 0.70287 0.19455 0.84598 0.0
C633 C 0.76097 0.17725 0.82643 0.0
C634 C 0.73603 0.17327 0.80734 0.0
C635 C 0.68227 0.18159 0.79656 0.0
C636 C 0.65358 0.19231 0.80569 0.0
C637 C 0.70699 0.18264 0.81657 0.0
C638 C 0.6495 0.20218 0.83569 0.0
C639 C 0.6739 0.20338 0.8556 0.0
H640 H 0.06796 0.52212 0.0656 0.0
H641 H 0.04815 0.46795 0.14475 0.0
H642 H 0.05956 0.42196 0.11676 0.0
H643 H 0.06999 0.39701 0.06936 0.0
H644 H 0.08376 0.44912 0.98756 0.0
H645 H 0.08069 0.49609 0.01705 0.0
C646 C 0.06658 0.5002 0.07664 0.0
C647 C 0.05724 0.4983 0.10715 0.0
C648 C 0.07199 0.47357 0.05993 0.0
C649 C 0.05517 0.46988 0.12128 0.0
C650 C 0.0617 0.4436 0.1053 0.0
C651 C 0.07267 0.41856 0.0578 0.0
C652 C 0.0768 0.41948 0.02617 0.0
C653 C 0.06938 0.44516 0.07451 0.0
C654 C 0.08057 0.44771 0.01186 0.0
C655 C 0.07854 0.47456 0.0287 0.0
H656 H 0.79112 0.79434 0.39795 0.0
H657 H 0.73345 0.84121 0.33451 0.0
H658 H 0.77683 0.84909 0.30045 0.0
H659 H 0.83008 0.83773 0.28667 0.0
H660 H 0.88724 0.79154 0.3514 0.0
H661 H 0.84519 0.78862 0.38709 0.0
C662 C 0.78815 0.80665 0.37683 0.0
C663 C 0.75917 0.81686 0.3685 0.0
C664 C 0.81305 0.811 0.35751 0.0
C665 C 0.75562 0.83317 0.34136 0.0
C666 C 0.78036 0.83747 0.32183 0.0
C667 C 0.83342 0.82737 0.30873 0.0
C668 C 0.86171 0.81446 0.3161 0.0
C669 C 0.80903 0.82574 0.32932 0.0
C670 C 0.86573 0.80148 0.34497 0.0
C671 C 0.84164 0.7997 0.36542 0.0
H672 H 0.55212 0.42974 0.59217 0.0
H673 H 0.61659 0.47558 0.64911 0.0
H674 H 0.65069 0.48201 0.60612 0.0
H675 H 0.65952 0.48008 0.55135 0.0
H676 H 0.59647 0.43311 0.49412 0.0
H677 H 0.56461 0.42137 0.53824 0.0
C678 C 0.57383 0.4407 0.59525 0.0
C679 C 0.58151 0.45261 0.62372 0.0
C680 C 0.59347 0.44437 0.57035 0.0
C681 C 0.60995 0.46637 0.62744 0.0
C682 C 0.62946 0.47021 0.60282 0.0
C683 C 0.63901 0.46688 0.54868 0.0
C684 C 0.63003 0.4578 0.51966 0.0
C685 C 0.62102 0.46016 0.57404 0.0
C686 C 0.60375 0.44032 0.51636 0.0
C687 C 0.58548 0.43378 0.54152 0.0
H688 H 0.97446 0.37903 0.96102 0.0
H689 H 0.94663 0.35047 0.05054 0.0
H690 H 0.89822 0.37757 0.04387 0.0
H691 H 0.86591 0.41286 0.01358 0.0
H692 H 0.89781 0.44367 0.92623 0.0
H693 H 0.9429 0.41196 0.93108 0.0
C694 C 0.95798 0.37857 0.97931 0.0
C695 C 0.96444 0.36306 0.00652 0.0
C696 C 0.93099 0.39467 0.97559 0.0
C697 C 0.94234 0.36236 0.02948 0.0
C698 C 0.91475 0.37792 0.02565 0.0
C699 C 0.88261 0.41218 0.9955 0.0
C700 C 0.87867 0.43044 0.96949 0.0
C701 C 0.90909 0.39463 0.99897 0.0
C702 C 0.90051 0.42985 0.94639 0.0
C703 C 0.92623 0.41177 0.94919 0.0
H704 H 0.61864 0.60503 0.45874 0.0
H705 H 0.57578 0.52186 0.43164 0.0
H706 H 0.52631 0.54719 0.4317 0.0
H707 H 0.49476 0.59194 0.44478 0.0
H708 H 0.53874 0.67347 0.47478 0.0
H709 H 0.58827 0.64995 0.46792 0.0
C710 C 0.59856 0.59241 0.45256 0.0
C711 C 0.60086 0.56151 0.4456 0.0
C712 C 0.57033 0.60687 0.45329 0.0
C713 C 0.57462 0.54566 0.43727 0.0
C714 C 0.54631 0.56011 0.43739 0.0
C715 C 0.51528 0.60456 0.44926 0.0
C716 C 0.51327 0.6342 0.4605 0.0
C717 C 0.5438 0.59054 0.44613 0.0
C718 C 0.53986 0.65046 0.46645 0.0
C719 C 0.56816 0.63705 0.46255 0.0
H720 H 0.98382 0.15978 0.34837 0.0
H721 H 0.98787 0.12024 0.25942 0.0
H722 H 0.99347 0.17043 0.23657 0.0
H723 H 0.0046 0.22393 0.2424 0.0
H724 H 0.00851 0.26307 0.33163 0.0
H725 H 0.99151 0.2151 0.35387 0.0
C726 C 0.98523 0.16241 0.32396 0.0
C727 C 0.98528 0.13657 0.30546 0.0
C728 C 0.98997 0.19128 0.31112 0.0
C729 C 0.98774 0.13993 0.27395 0.0
C730 C 0.99098 0.16858 0.26094 0.0
C731 C 1.00087 0.22238 0.26666 0.0
C732 C 0.00782 0.24718 0.2853 0.0
C733 C 0.99311 0.19428 0.27936 0.0
C734 C 0.00322 0.24443 0.31673 0.0
C735 C 0.99382 0.21687 0.32948 0.0
H736 H 0.11132 0.71921 0.53629 0.0
H737 H 0.08967 0.73335 0.63034 0.0
H738 H 0.03722 0.74601 0.61705 0.0
H739 H 1.00002 0.75997 0.5778 0.0
H740 H 0.02151 0.74342 0.48378 0.0
H741 H 0.07102 0.72377 0.49799 0.0
C742 C 0.09482 0.72437 0.55382 0.0
C743 C 0.10408 0.72564 0.58413 0.0
C744 C 0.06472 0.73122 0.54602 0.0
C745 C 0.08277 0.73221 0.60684 0.0
C746 C 0.05289 0.73956 0.59923 0.0
C747 C 0.01515 0.75125 0.56048 0.0
C748 C 0.00718 0.75385 0.52971 0.0
C749 C 0.04387 0.74009 0.56877 0.0
C750 C 0.02704 0.74207 0.50763 0.0
C751 C 0.05557 0.73102 0.51569 0.0
H752 H 0.52047 0.8555 0.8388 0.0
H753 H 0.48405 0.8931 0.7562 0.0
H754 H 0.46954 0.84251 0.73951 0.0
H755 H 0.46468 0.78844 0.74956 0.0
H756 H 0.49517 0.75097 0.83455 0.0
H757 H 0.51503 0.80068 0.84914 0.0
C758 C 0.50959 0.8525 0.81704 0.0
C759 C 0.50345 0.87792 0.79862 0.0
C760 C 0.50042 0.82345 0.80807 0.0
C761 C 0.48891 0.87388 0.77074 0.0
C762 C 0.48071 0.84498 0.76118 0.0
C763 C 0.47626 0.79094 0.77104 0.0
C764 C 0.47903 0.76594 0.79075 0.0
C765 C 0.4861 0.8197 0.77978 0.0
C766 C 0.49316 0.7698 0.81889 0.0
C767 C 0.5043 0.79823 0.82725 0.0
H768 H 0.41807 0.2588 0.09999 0.0
H769 H 0.37916 0.26251 0.0107 0.0
H770 H 0.42869 0.25118 0.98814 0.0
H771 H 0.48129 0.23534 0.99411 0.0
H772 H 0.51925 0.22475 0.08348 0.0
H773 H 0.47203 0.24399 0.10588 0.0
C774 C 0.42076 0.25772 0.07558 0.0
C775 C 0.39533 0.26189 0.05685 0.0
C776 C 0.44901 0.24975 0.06293 0.0
C777 C 0.3986 0.25965 0.02536 0.0
C778 C 0.42684 0.25308 0.01255 0.0
C779 C 0.47958 0.23778 0.0185 0.0
C780 C 0.50393 0.2288 0.0371 0.0
C781 C 0.452 0.24742 0.03115 0.0
C782 C 0.50095 0.23162 0.06866 0.0
C783 C 0.47389 0.24248 0.08145 0.0
H784 H 0.24903 0.05918 0.22113 0.0
H785 H 0.32432 0.01254 0.26234 0.0
H786 H 0.34435 0.99992 0.21185 0.0
H787 H 0.34117 0.00413 0.15597 0.0
H788 H 0.26859 0.05603 0.1158 0.0
H789 H 0.24686 0.06502 0.16602 0.0
C790 C 0.26948 0.04565 0.21908 0.0
C791 C 0.28472 0.03593 0.2454 0.0
C792 C 0.28152 0.03994 0.19018 0.0
C793 C 0.31189 0.01964 0.24241 0.0
C794 C 0.3234 0.01267 0.21357 0.0
C795 C 0.3205 0.01729 0.15823 0.0
C796 C 0.30634 0.02919 0.13211 0.0
C797 C 0.30855 0.023 0.18729 0.0
C798 C 0.27991 0.04664 0.13546 0.0
C799 C 0.26742 0.05167 0.16416 0.0
H800 H 0.22806 0.98885 0.48331 0.0
H801 H 0.24088 0.07465 0.52753 0.0
H802 H 0.26549 0.0947 0.48175 0.0
H803 H 0.2779 0.08941 0.42721 0.0
H804 H 0.25793 0.00567 0.38196 0.0
H805 H 0.24177 0.98302 0.43006 0.0
C806 C 0.23688 0.01173 0.48327 0.0
C807 C 0.23292 0.03015 0.50895 0.0
C808 C 0.24944 0.02349 0.45645 0.0
C809 C 0.24384 0.05997 0.50816 0.0
C810 C 0.25775 0.07145 0.48192 0.0
C811 C 0.27063 0.066 0.42816 0.0
C812 C 0.26942 0.04899 0.4013 0.0
C813 C 0.25991 0.05368 0.45565 0.0
C814 C 0.25921 0.019 0.40245 0.0
C815 C 0.24991 0.00613 0.4299 0.0
H816 H 0.2565 0.98932 0.74254 0.0
H817 H 0.16631 0.98355 0.78012 0.0
H818 H 0.14541 0.00462 0.73308 0.0
H819 H 0.15251 0.01886 0.67901 0.0
H820 H 0.24231 0.01734 0.64042 0.0
H821 H 0.26377 0.00504 0.69004 0.0
C822 C 0.2323 0.99334 0.74084 0.0
C823 C 0.21302 0.98508 0.76502 0.0
C824 C 0.22041 0.0038 0.71325 0.0
C825 C 0.18168 0.9899 0.762 0.0
C826 C 0.16972 0.00173 0.735 0.0
C827 C 0.17681 0.01641 0.68177 0.0
C828 C 0.19598 0.01931 0.65636 0.0
C829 C 0.1888 0.00791 0.71014 0.0
C830 C 0.2273 0.01539 0.65981 0.0
C831 C 0.2395 0.0083 0.68812 0.0
H832 H 0.27991 0.90062 0.91246 0.0
H833 H 0.20507 0.96223 0.92458 0.0
H834 H 0.22082 0.97141 0.97705 0.0
H835 H 0.25955 0.96641 0.0169 0.0
H836 H 0.33371 0.90373 0.00503 0.0
H837 H 0.31381 0.8893 0.95559 0.0
C838 C 0.26697 0.91584 0.9268 0.0
C839 C 0.24182 0.93132 0.91472 0.0
C840 C 0.27579 0.9204 0.95703 0.0
C841 C 0.22471 0.95043 0.93345 0.0
C842 C 0.23367 0.95557 0.9634 0.0
C843 C 0.27074 0.94877 0.00397 0.0
C844 C 0.2982 0.93629 0.01464 0.0
C845 C 0.25959 0.9412 0.97518 0.0
C846 C 0.31243 0.91348 0.99761 0.0
C847 C 0.30134 0.90563 0.96902 0.0
H848 H 0.15156 0.3269 0.00274 0.0
H849 H 0.11027 0.25088 0.04842 0.0
H850 H 0.16046 0.22949 0.05866 0.0
H851 H 0.21582 0.23325 0.05612 0.0
H852 H 0.25751 0.31187 0.01588 0.0
H853 H 0.20732 0.33134 0.00144 0.0
C854 C 0.15355 0.30552 0.01474 0.0
C855 C 0.1272 0.29032 0.02459 0.0
C856 C 0.1825 0.2938 0.02123 0.0
C857 C 0.13016 0.26298 0.04062 0.0
C858 C 0.15884 0.25071 0.04637 0.0
C859 C 0.21395 0.25433 0.04355 0.0
C860 C 0.24031 0.27074 0.0362 0.0
C861 C 0.18511 0.26597 0.03683 0.0
C862 C 0.23755 0.29862 0.02114 0.0
C863 C 0.20888 0.30978 0.01314 0.0
H864 H 0.74127 0.26017 0.9783 0.0
H865 H 0.77933 0.17022 0.98226 0.0
H866 H 0.73298 0.15164 0.00672 0.0
H867 H 0.67905 0.15973 0.0203 0.0
H868 H 0.63968 0.24844 0.00937 0.0
H869 H 0.68906 0.26888 0.99461 0.0
C870 C 0.73984 0.23663 0.98522 0.0
C871 C 0.76389 0.21664 0.97855 0.0
C872 C 0.71258 0.22586 0.99772 0.0
C873 C 0.76126 0.18611 0.98722 0.0
C874 C 0.73466 0.17546 0.00102 0.0
C875 C 0.68158 0.18368 0.01545 0.0
C876 C 0.65592 0.2027 0.0162 0.0
C877 C 0.70978 0.19491 0.00544 0.0
C878 C 0.65919 0.2335 0.00911 0.0
C879 C 0.68738 0.24512 1.00055 0.0
H880 H 0.04523 0.4095 0.29129 0.0
H881 H 0.09387 0.38245 0.21094 0.0
H882 H 0.09093 0.43391 0.19088 0.0
H883 H 0.07036 0.48516 0.1937 0.0
H884 H 0.0147 0.51081 0.26972 0.0
H885 H 0.02521 0.46208 0.29449 0.0
C886 C 0.05538 0.41512 0.26958 0.0
C887 C 0.06961 0.39232 0.2525 0.0
C888 C 0.05254 0.44465 0.25757 0.0
C889 C 0.08252 0.39965 0.22428 0.0
C890 C 0.08099 0.42907 0.21287 0.0
C891 C 0.06127 0.48038 0.21608 0.0
C892 C 0.04223 0.50164 0.23013 0.0
C893 C 0.06558 0.45161 0.22902 0.0
C894 C 0.02982 0.49489 0.25873 0.0
C895 C 0.03554 0.46691 0.27269 0.0
H896 H 0.83976 0.83889 0.53139 0.0
H897 H 0.87682 0.74964 0.51787 0.0
H898 H 0.82666 0.73059 0.50452 0.0
H899 H 0.77451 0.74087 0.48976 0.0
H900 H 0.73854 0.83151 0.49615 0.0
H901 H 0.78563 0.84843 0.51982 0.0
C902 C 0.83653 0.81514 0.52627 0.0
C903 C 0.86169 0.79553 0.52581 0.0
C904 C 0.80786 0.80473 0.5171 0.0
C905 C 0.85762 0.76498 0.51846 0.0
C906 C 0.82901 0.75416 0.51075 0.0
C907 C 0.77656 0.76418 0.49705 0.0
C908 C 0.75296 0.7849 0.49117 0.0
C909 C 0.80421 0.77404 0.50901 0.0
C910 C 0.7563 0.81509 0.50044 0.0
C911 C 0.78333 0.82481 0.51377 0.0
H912 H 0.26396 0.76021 0.51745 0.0
H913 H 0.2359 0.66836 0.53526 0.0
H914 H 0.28278 0.64951 0.5121 0.0
H915 H 0.33518 0.65965 0.49444 0.0
H916 H 0.36488 0.75183 0.48376 0.0
H917 H 0.314 0.77018 0.49637 0.0
C918 C 0.26761 0.73601 0.51559 0.0
C919 C 0.24641 0.71574 0.52821 0.0
C920 C 0.29528 0.72547 0.50392 0.0
C921 C 0.25179 0.68447 0.52574 0.0
C922 C 0.27874 0.6737 0.51273 0.0
C923 C 0.33011 0.68368 0.49416 0.0
C924 C 0.35338 0.70449 0.48796 0.0
C925 C 0.30117 0.69403 0.5029 0.0
C926 C 0.34708 0.73557 0.4883 0.0
C927 C 0.31808 0.746 0.4956 0.0
H928 H 0.94129 0.99931 0.27121 0.0
H929 H 0.03556 0.97977 0.25301 0.0
H930 H 0.02195 0.93097 0.23191 0.0
H931 H 0.98406 0.89057 0.22579 0.0
H932 H 0.88971 0.91052 0.24118 0.0
H933 H 0.90245 0.96228 0.25613 0.0
C934 C 0.95879 0.98476 0.26188 0.0
C935 C 0.98945 0.9931 0.2643 0.0
C936 C 0.95083 0.95648 0.24972 0.0
C937 C 0.01177 0.97399 0.25176 0.0
C938 C 0.00406 0.94585 0.23984 0.0
C939 C 0.96634 0.90659 0.23172 0.0
C940 C 0.9361 0.89699 0.2326 0.0
C941 C 0.97382 0.93636 0.23986 0.0
C942 C 0.91316 0.91769 0.24025 0.0
C943 C 0.92046 0.94717 0.24893 0.0
H944 H 0.5072 0.03567 0.73118 0.0
H945 H 0.59188 0.00299 0.76767 0.0
H946 H 0.61782 0.04757 0.74752 0.0
H947 H 0.61409 0.10039 0.72901 0.0
H948 H 0.52803 0.13473 0.69837 0.0
H949 H 0.50489 0.08509 0.70662 0.0
C950 C 0.5315 0.03781 0.73407 0.0
C951 C 0.54742 0.01627 0.75148 0.0
C952 C 0.54589 0.06422 0.72388 0.0
C953 C 0.57897 0.0193 0.75459 0.0
C954 C 0.59378 0.04499 0.74333 0.0
C955 C 0.59054 0.09653 0.72326 0.0
C956 C 0.57266 0.12078 0.71293 0.0
C957 C 0.57716 0.0683 0.72939 0.0
C958 C 0.54207 0.1161 0.70611 0.0
C959 C 0.52888 0.08783 0.71099 0.0
H960 H 0.51953 0.28125 0.75973 0.0
H961 H 0.52771 0.24997 0.66762 0.0
H962 H 0.50681 0.29801 0.64915 0.0
H963 H 0.49465 0.3518 0.65902 0.0
H964 H 0.49445 0.38429 0.75088 0.0
H965 H 0.50362 0.33298 0.76978 0.0
C966 C 0.51592 0.2845 0.73564 0.0
C967 C 0.52522 0.26205 0.71507 0.0
C968 C 0.5058 0.31275 0.72518 0.0
C969 C 0.52071 0.26689 0.68392 0.0
C970 C 0.50902 0.29446 0.67335 0.0
C971 C 0.49586 0.34733 0.68317 0.0
C972 C 0.49377 0.37149 0.70367 0.0
C973 C 0.50276 0.31802 0.69371 0.0
C974 C 0.49598 0.36585 0.73485 0.0
C975 C 0.50128 0.33659 0.74559 0.0
H976 H 0.90955 0.27526 0.89423 0.0
H977 H 0.92339 0.19526 0.94864 0.0
H978 H 0.97622 0.21005 0.95745 0.0
H979 H 0.01587 0.24924 0.95493 0.0
H980 H 0.00213 0.32859 0.89941 0.0
H981 H 0.95233 0.30991 0.88452 0.0
C982 C 0.92429 0.261 0.90782 0.0
C983 C 0.91259 0.23464 0.92149 0.0
C984 C 0.9547 0.26931 0.91213 0.0
C985 C 0.93193 0.21584 0.93832 0.0
C986 C 0.96208 0.22427 0.94324 0.0
C987 C 0.00245 0.26185 0.93861 0.0
C988 C 0.01267 0.29035 0.9284 0.0
C989 C 0.97346 0.25135 0.93087 0.0
C990 C 0.99505 0.30647 0.90733 0.0
C991 C 0.96626 0.29606 0.89929 0.0
H992 H 0.99586 0.73065 0.25969 0.0
H993 H 0.98632 0.77047 0.17082 0.0
H994 H 0.00944 0.72543 0.14808 0.0
H995 H 0.0253 0.67178 0.15311 0.0
H996 H 0.02754 0.63051 0.24168 0.0
H997 H 0.01456 0.67898 0.26502 0.0
C998 C 0.99957 0.72992 0.2354 0.0
C999 C 0.98943 0.75399 0.21698 0.0
C1000 C 0.01121 0.70336 0.22244 0.0
C1001 C 0.994 0.75232 0.1855 0.0
C1002 C 0.007 0.72646 0.17249 0.0
C1003 C 0.02366 0.67376 0.17755 0.0
C1004 C 0.02762 0.64789 0.19581 0.0
C1005 C 0.01466 0.70139 0.19065 0.0
C1006 C 0.02474 0.65029 0.22734 0.0
C1007 C 0.01723 0.67793 0.24062 0.0
H1008 H 0.50875 0.71919 0.44105 0.0
H1009 H 0.49512 0.78567 0.51096 0.0
H1010 H 0.54397 0.809 0.49817 0.0
H1011 H 0.5936 0.80626 0.47103 0.0
H1012 H 0.60828 0.73469 0.40652 0.0
H1013 H 0.55627 0.71744 0.41332 0.0
C1014 C 0.51597 0.73936 0.45291 0.0
C1015 C 0.49813 0.75094 0.47664 0.0
C1016 C 0.54475 0.75131 0.44678 0.0
C1017 C 0.50831 0.77655 0.49235 0.0
C1018 C 0.53639 0.78968 0.48524 0.0
C1019 C 0.58511 0.78718 0.45828 0.0
C1020 C 0.6046 0.77166 0.43837 0.0
C1021 C 0.55531 0.77661 0.46317 0.0
C1022 C 0.59364 0.74678 0.42213 0.0
C1023 C 0.5639 0.73698 0.42591 0.0
H1024 H 0.71729 0.4716 0.34975 0.0
H1025 H 0.65983 0.54836 0.36905 0.0
H1026 H 0.66158 0.56386 0.3161 0.0
H1027 H 0.68259 0.55847 0.26576 0.0
H1028 H 0.74632 0.48694 0.24652 0.0
H1029 H 0.73836 0.46587 0.29756 0.0
C1030 C 0.70506 0.49154 0.34213 0.0
C1031 C 0.68864 0.50897 0.36316 0.0
C1032 C 0.70703 0.50102 0.31163 0.0
C1033 C 0.67295 0.53486 0.35326 0.0
C1034 C 0.67375 0.54363 0.32298 0.0
C1035 C 0.69409 0.53772 0.27234 0.0
C1036 C 0.71458 0.52393 0.25226 0.0
C1037 C 0.69106 0.52718 0.30211 0.0
C1038 C 0.73007 0.49766 0.26151 0.0
C1039 C 0.72577 0.48586 0.29077 0.0
H1040 H 0.75289 0.4549 0.50051 0.0
H1041 H 0.75173 0.54984 0.5233 0.0
H1042 H 0.77666 0.53887 0.57108 0.0
H1043 H 0.79035 0.50144 0.61024 0.0
H1044 H 0.79445 0.40699 0.58712 0.0
H1045 H 0.77712 0.41857 0.53568 0.0
C1046 C 0.75889 0.47327 0.51551 0.0
C1047 C 0.7497 0.50302 0.50854 0.0
C1048 C 0.77337 0.46686 0.54319 0.0
C1049 C 0.7581 0.52662 0.52812 0.0
C1050 C 0.77223 0.5204 0.55567 0.0
C1051 C 0.78835 0.48361 0.59355 0.0
C1052 C 0.79346 0.45349 0.60222 0.0
C1053 C 0.77866 0.49049 0.56403 0.0
C1054 C 0.79082 0.43041 0.58067 0.0
C1055 C 0.78067 0.437 0.55138 0.0
H1056 H 0.79614 0.54014 0.8543 0.0
H1057 H 0.83442 0.45266 0.87523 0.0
H1058 H 0.83398 0.43926 0.8216 0.0
H1059 H 0.82025 0.45112 0.76949 0.0
H1060 H 0.77351 0.53433 0.74875 0.0
H1061 H 0.78046 0.55135 0.80125 0.0
C1062 C 0.80436 0.51821 0.84694 0.0
C1063 C 0.81526 0.49733 0.86852 0.0
C1064 C 0.8029 0.51019 0.8161 0.0
C1065 C 0.82566 0.46889 0.85897 0.0
C1066 C 0.82561 0.46133 0.82833 0.0
C1067 C 0.81218 0.47329 0.77626 0.0
C1068 C 0.79705 0.4918 0.75516 0.0
C1069 C 0.81409 0.48169 0.80677 0.0
C1070 C 0.78581 0.52003 0.76449 0.0
C1071 C 0.78946 0.52953 0.79455 0.0
H1072 H 0.71652 0.6019 0.08345 0.0
H1073 H 0.70045 0.51544 0.12581 0.0
H1074 H 0.70918 0.48982 0.07753 0.0
H1075 H 0.73109 0.49155 0.02684 0.0
H1076 H 0.75403 0.57752 0.98623 0.0
H1077 H 0.73196 0.60392 0.0296 0.0
C1078 C 0.71396 0.57756 0.08166 0.0
C1079 C 0.70772 0.56041 0.10778 0.0
C1080 C 0.72057 0.56295 0.05418 0.0
C1081 C 0.70506 0.5289 0.10574 0.0
C1082 C 0.71021 0.51431 0.07823 0.0
C1083 C 0.7304 0.51609 0.02693 0.0
C1084 C 0.74466 0.53251 0.00353 0.0
C1085 C 0.71938 0.531 0.0527 0.0
C1086 C 0.74345 0.56431 0.00407 0.0
C1087 C 0.73109 0.57943 0.02902 0.0
H1088 H 0.41855 0.58918 0.79234 0.0
H1089 H 0.50493 0.63422 0.78961 0.0
H1090 H 0.53012 0.5866 0.77636 0.0
H1091 H 0.52629 0.53485 0.7581 0.0
H1092 H 0.43894 0.49166 0.75291 0.0
H1093 H 0.4153 0.53547 0.77738 0.0
C1094 C 0.44298 0.58818 0.78961 0.0
C1095 C 0.4601 0.61477 0.79217 0.0
C1096 C 0.45695 0.56113 0.78036 0.0
C1097 C 0.49155 0.61378 0.78791 0.0
C1098 C 0.50585 0.58665 0.78024 0.0
C1099 C 0.5022 0.53458 0.76311 0.0
C1100 C 0.48436 0.51003 0.75374 0.0
C1101 C 0.48862 0.56049 0.77537 0.0
C1102 C 0.45313 0.51028 0.75996 0.0
C1103 C 0.4396 0.53542 0.77373 0.0
loop_
_geom_bond_atom_site_label_1
_geom_bond_atom_site_label_2
_geom_bond_distance
_geom_bond_site_symmetry_2
_ccdc_geom_bond_type
C0 O2 1.247 . S
C0 O4 1.258 . S
C1 O8 1.247 . S
C1 O9 1.258 . S
O2 C0 1.247 . S
O2 Zn3 2.028 . S
Zn3 O2 2.028 . S
Zn3 O7 2.035 . S
Zn3 O9 2.035 . S
Zn3 O10 2.028 . S
O4 C0 1.258 . S
O4 Zn5 2.035 . S
Zn5 O4 2.035 . S
Zn5 O6 2.028 . S
Zn5 O8 2.028 . S
Zn5 O11 2.035 . S
O6 Zn5 2.028 . S
O6 C12 1.247 . S
O7 Zn3 2.035 . S
O7 C12 1.258 . S
O8 C1 1.247 . S
O8 Zn5 2.028 . S
O9 C1 1.258 . S
O9 Zn3 2.035 . S
O10 Zn3 2.028 . S
O10 C13 1.247 . S
O11 Zn5 2.035 . S
O11 C13 1.258 . S
C12 O6 1.247 . S
C12 O7 1.258 . S
C13 O10 1.247 . S
C13 O11 1.258 . S
C14 O16 1.247 . S
C14 O18 1.258 . S
C15 O22 1.247 . S
C15 O23 1.258 . S
O16 C14 1.247 . S
O16 Zn17 2.028 . S
Zn17 O16 2.028 . S
Zn17 O21 2.035 1_455 S
Zn17 O23 2.035 1_455 S
Zn17 O24 2.028 . S
O18 C14 1.258 . S
O18 Zn19 2.035 1_455 S
Zn19 O18 2.035 1_655 S
Zn19 O20 2.028 . S
Zn19 O22 2.028 . S
Zn19 O25 2.035 1_655 S
O20 Zn19 2.028 . S
O20 C26 1.247 . S
O21 Zn17 2.035 1_655 S
O21 C26 1.258 . S
O22 C15 1.247 . S
O22 Zn19 2.028 . S
O23 C15 1.258 . S
O23 Zn17 2.035 1_655 S
O24 Zn17 2.028 . S
O24 C27 1.247 . S
O25 Zn19 2.035 1_455 S
O25 C27 1.258 . S
C26 O20 1.247 . S
C26 O21 1.258 . S
C27 O24 1.247 . S
C27 O25 1.258 . S
C28 O30 1.247 . S
C28 O32 1.258 . S
C29 O36 1.247 . S
C29 O37 1.258 . S
O30 C28 1.247 . S
O30 Zn31 2.028 . S
Zn31 O30 2.028 . S
Zn31 O35 2.035 . S
Zn31 O37 2.035 . S
Zn31 O38 2.028 . S
O32 C28 1.258 . S
O32 Zn33 2.035 . S
Zn33 O32 2.035 . S
Zn33 O34 2.028 . S
Zn33 O36 2.028 . S
Zn33 O39 2.035 . S
O34 Zn33 2.028 . S
O34 C40 1.247 . S
O35 Zn31 2.035 . S
O35 C40 1.258 . S
O36 C29 1.247 . S
O36 Zn33 2.028 . S
O37 C29 1.258 . S
O37 Zn31 2.035 . S
O38 Zn31 2.028 . S
O38 C41 1.247 . S
O39 Zn33 2.035 . S
O39 C41 1.258 . S
C40 O34 1.247 . S
C40 O35 1.258 . S
C41 O38 1.247 . S
C41 O39 1.258 . S
C42 O44 1.247 1_556 S
C42 O46 1.258 . S
C43 O50 1.247 1_554 S
C43 O51 1.258 . S
O44 C42 1.247 1_554 S
O44 Zn45 2.028 . S
Zn45 O44 2.028 . S
Zn45 O49 2.035 . S
Zn45 O51 2.035 . S
Zn45 O52 2.028 1_554 S
O46 C42 1.258 . S
O46 Zn47 2.035 . S
Zn47 O46 2.035 . S
Zn47 O48 2.028 1_556 S
Zn47 O50 2.028 . S
Zn47 O53 2.035 . S
O48 Zn47 2.028 1_554 S
O48 C54 1.247 . S
O49 Zn45 2.035 . S
O49 C54 1.258 . S
O50 C43 1.247 1_556 S
O50 Zn47 2.028 . S
O51 C43 1.258 . S
O51 Zn45 2.035 . S
O52 Zn45 2.028 1_556 S
O52 C55 1.247 . S
O53 Zn47 2.035 . S
O53 C55 1.258 . S
C54 O48 1.247 . S
C54 O49 1.258 . S
C55 O52 1.247 . S
C55 O53 1.258 . S
C56 O58 1.247 . S
C56 O60 1.258 1_655 S
C57 O64 1.247 . S
C57 O65 1.258 1_455 S
O58 C56 1.247 . S
O58 Zn59 2.028 1_565 S
Zn59 O58 2.028 1_545 S
Zn59 O63 2.035 1_655 S
Zn59 O65 2.035 . S
Zn59 O66 2.028 1_545 S
O60 C56 1.258 1_455 S
O60 Zn61 2.035 . S
Zn61 O60 2.035 . S
Zn61 O62 2.028 1_565 S
Zn61 O64 2.028 1_565 S
Zn61 O67 2.035 1_455 S
O62 Zn61 2.028 1_545 S
O62 C68 1.247 . S
O63 Zn59 2.035 1_455 S
O63 C68 1.258 . S
O64 C57 1.247 . S
O64 Zn61 2.028 1_545 S
O65 C57 1.258 1_655 S
O65 Zn59 2.035 . S
O66 Zn59 2.028 1_565 S
O66 C69 1.247 . S
O67 Zn61 2.035 1_655 S
O67 C69 1.258 . S
C68 O62 1.247 . S
C68 O63 1.258 . S
C69 O66 1.247 . S
C69 O67 1.258 . S
C70 O72 1.247 . S
C70 O74 1.258 . S
C71 O78 1.247 . S
C71 O79 1.258 . S
O72 C70 1.247 . S
O72 Zn73 2.028 . S
Zn73 O72 2.028 . S
Zn73 O77 2.035 . S
Zn73 O79 2.035 . S
Zn73 O80 2.028 . S
O74 C70 1.258 . S
O74 Zn75 2.035 . S
Zn75 O74 2.035 . S
Zn75 O76 2.028 . S
Zn75 O78 2.028 . S
Zn75 O81 2.035 . S
O76 Zn75 2.028 . S
O76 C82 1.247 . S
O77 Zn73 2.035 . S
O77 C82 1.258 . S
O78 C71 1.247 . S
O78 Zn75 2.028 . S
O79 C71 1.258 . S
O79 Zn73 2.035 . S
O80 Zn73 2.028 . S
O80 C83 1.247 . S
O81 Zn75 2.035 . S
O81 C83 1.258 . S
C82 O76 1.247 . S
C82 O77 1.258 . S
C83 O80 1.247 . S
C83 O81 1.258 . S
C84 O86 1.247 . S
C84 O88 1.258 . S
C85 O92 1.247 . S
C85 O93 1.258 . S
O86 C84 1.247 . S
O86 Zn87 2.028 . S
Zn87 O86 2.028 . S
Zn87 O91 2.035 1_565 S
Zn87 O93 2.035 1_565 S
Zn87 O94 2.028 . S
O88 C84 1.258 . S
O88 Zn89 2.035 1_565 S
Zn89 O88 2.035 1_545 S
Zn89 O90 2.028 . S
Zn89 O92 2.028 . S
Zn89 O95 2.035 1_545 S
O90 Zn89 2.028 . S
O90 C96 1.247 . S
O91 Zn87 2.035 1_545 S
O91 C96 1.258 . S
O92 C85 1.247 . S
O92 Zn89 2.028 . S
O93 C85 1.258 . S
O93 Zn87 2.035 1_545 S
O94 Zn87 2.028 . S
O94 C97 1.247 . S
O95 Zn89 2.035 1_565 S
O95 C97 1.258 . S
C96 O90 1.247 . S
C96 O91 1.258 . S
C97 O94 1.247 . S
C97 O95 1.258 . S
C98 O100 1.247 . S
C98 O102 1.258 . S
C99 O106 1.247 . S
C99 O107 1.258 . S
O100 C98 1.247 . S
O100 Zn101 2.028 . S
Zn101 O100 2.028 . S
Zn101 O105 2.035 . S
Zn101 O107 2.035 . S
Zn101 O108 2.028 . S
O102 C98 1.258 . S
O102 Zn103 2.035 . S
Zn103 O102 2.035 . S
Zn103 O104 2.028 . S
Zn103 O106 2.028 . S
Zn103 O109 2.035 . S
O104 Zn103 2.028 . S
O104 C110 1.247 . S
O105 Zn101 2.035 . S
O105 C110 1.258 . S
O106 C99 1.247 . S
O106 Zn103 2.028 . S
O107 C99 1.258 . S
O107 Zn101 2.035 . S
O108 Zn101 2.028 . S
O108 C111 1.247 . S
O109 Zn103 2.035 . S
O109 C111 1.258 . S
C110 O104 1.247 . S
C110 O105 1.258 . S
C111 O108 1.247 . S
C111 O109 1.258 . S
C112 O114 1.247 . S
C112 O116 1.258 . S
C113 O120 1.247 . S
C113 O121 1.258 . S
O114 C112 1.247 . S
O114 Zn115 2.028 . S
Zn115 O114 2.028 . S
Zn115 O119 2.035 . S
Zn115 O121 2.035 . S
Zn115 O122 2.028 . S
O116 C112 1.258 . S
O116 Zn117 2.035 . S
Zn117 O116 2.035 . S
Zn117 O118 2.028 . S
Zn117 O120 2.028 . S
Zn117 O123 2.035 . S
O118 Zn117 2.028 . S
O118 C124 1.247 . S
O119 Zn115 2.035 . S
O119 C124 1.258 . S
O120 C113 1.247 . S
O120 Zn117 2.028 . S
O121 C113 1.258 . S
O121 Zn115 2.035 . S
O122 Zn115 2.028 . S
O122 C125 1.247 . S
O123 Zn117 2.035 . S
O123 C125 1.258 . S
C124 O118 1.247 . S
C124 O119 1.258 . S
C125 O122 1.247 . S
C125 O123 1.258 . S
C126 O128 1.247 . S
C126 O130 1.258 . S
C127 O134 1.247 . S
C127 O135 1.258 . S
O128 C126 1.247 . S
O128 Zn129 2.028 . S
Zn129 O128 2.028 . S
Zn129 O133 2.035 . S
Zn129 O135 2.035 1_565 S
Zn129 O136 2.028 . S
O130 C126 1.258 . S
O130 Zn131 2.035 1_565 S
Zn131 O130 2.035 1_545 S
Zn131 O132 2.028 . S
Zn131 O134 2.028 . S
Zn131 O137 2.035 . S
O132 Zn131 2.028 . S
O132 C138 1.247 . S
O133 Zn129 2.035 . S
O133 C138 1.258 1_565 S
O134 C127 1.247 . S
O134 Zn131 2.028 . S
O135 C127 1.258 . S
O135 Zn129 2.035 1_545 S
O136 Zn129 2.028 . S
O136 C139 1.247 . S
O137 Zn131 2.035 . S
O137 C139 1.258 1_545 S
C138 O132 1.247 . S
C138 O133 1.258 1_545 S
C139 O136 1.247 . S
C139 O137 1.258 1_565 S
C140 O142 1.247 . S
C140 O144 1.258 . S
C141 O148 1.247 . S
C141 O149 1.258 . S
O142 C140 1.247 . S
O142 Zn143 2.028 . S
Zn143 O142 2.028 . S
Zn143 O147 2.035 . S
Zn143 O149 2.035 . S
Zn143 O150 2.028 . S
O144 C140 1.258 . S
O144 Zn145 2.035 . S
Zn145 O144 2.035 . S
Zn145 O146 2.028 . S
Zn145 O148 2.028 . S
Zn145 O151 2.035 . S
O146 Zn145 2.028 . S
O146 C152 1.247 . S
O147 Zn143 2.035 . S
O147 C152 1.258 . S
O148 C141 1.247 . S
O148 Zn145 2.028 . S
O149 C141 1.258 . S
O149 Zn143 2.035 . S
O150 Zn143 2.028 . S
O150 C153 1.247 . S
O151 Zn145 2.035 . S
O151 C153 1.258 . S
C152 O146 1.247 . S
C152 O147 1.258 . S
C153 O150 1.247 . S
C153 O151 1.258 . S
C154 O156 1.247 . S
C154 O158 1.258 . S
C155 O162 1.247 . S
C155 O163 1.258 . S
O156 C154 1.247 . S
O156 Zn157 2.028 1_554 S
Zn157 O156 2.028 1_556 S
Zn157 O161 2.035 . S
Zn157 O163 2.035 1_545 S
Zn157 O164 2.028 1_556 S
O158 C154 1.258 . S
O158 Zn159 2.035 1_545 S
Zn159 O158 2.035 1_565 S
Zn159 O160 2.028 1_554 S
Zn159 O162 2.028 1_554 S
Zn159 O165 2.035 . S
O160 Zn159 2.028 1_556 S
O160 C166 1.247 . S
O161 Zn157 2.035 . S
O161 C166 1.258 1_545 S
O162 C155 1.247 . S
O162 Zn159 2.028 1_556 S
O163 C155 1.258 . S
O163 Zn157 2.035 1_565 S
O164 Zn157 2.028 1_554 S
O164 C167 1.247 . S
O165 Zn159 2.035 . S
O165 C167 1.258 1_565 S
C166 O160 1.247 . S
C166 O161 1.258 1_565 S
C167 O164 1.247 . S
C167 O165 1.258 1_545 S
C168 O170 1.247 . S
C168 O172 1.258 . S
C169 O176 1.247 . S
C169 O177 1.258 . S
O170 C168 1.247 . S
O170 Zn171 2.028 . S
Zn171 O170 2.028 . S
Zn171 O175 2.035 . S
Zn171 O177 2.035 . S
Zn171 O178 2.028 . S
O172 C168 1.258 . S
O172 Zn173 2.035 . S
Zn173 O172 2.035 . S
Zn173 O174 2.028 . S
Zn173 O176 2.028 . S
Zn173 O179 2.035 . S
O174 Zn173 2.028 . S
O174 C180 1.247 . S
O175 Zn171 2.035 . S
O175 C180 1.258 . S
O176 C169 1.247 . S
O176 Zn173 2.028 . S
O177 C169 1.258 . S
O177 Zn171 2.035 . S
O178 Zn171 2.028 . S
O178 C181 1.247 . S
O179 Zn173 2.035 . S
O179 C181 1.258 . S
C180 O174 1.247 . S
C180 O175 1.258 . S
C181 O178 1.247 . S
C181 O179 1.258 . S
C182 O184 1.247 . S
C182 O186 1.258 1_455 S
C183 O190 1.247 . S
C183 O191 1.258 1_655 S
O184 C182 1.247 . S
O184 Zn185 2.028 . S
Zn185 O184 2.028 . S
Zn185 O189 2.035 1_455 S
Zn185 O191 2.035 . S
Zn185 O192 2.028 . S
O186 C182 1.258 1_655 S
O186 Zn187 2.035 . S
Zn187 O186 2.035 . S
Zn187 O188 2.028 . S
Zn187 O190 2.028 . S
Zn187 O193 2.035 1_655 S
O188 Zn187 2.028 . S
O188 C194 1.247 . S
O189 Zn185 2.035 1_655 S
O189 C194 1.258 . S
O190 C183 1.247 . S
O190 Zn187 2.028 . S
O191 C183 1.258 1_455 S
O191 Zn185 2.035 . S
O192 Zn185 2.028 . S
O192 C195 1.247 . S
O193 Zn187 2.035 1_455 S
O193 C195 1.258 . S
C194 O188 1.247 . S
C194 O189 1.258 . S
C195 O192 1.247 . S
C195 O193 1.258 . S
C196 O198 1.247 . S
C196 O200 1.258 . S
C197 O204 1.247 . S
C197 O205 1.258 . S
O198 C196 1.247 . S
O198 Zn199 2.028 . S
Zn199 O198 2.028 . S
Zn199 O203 2.035 . S
Zn199 O205 2.035 . S
Zn199 O206 2.028 . S
O200 C196 1.258 . S
O200 Zn201 2.035 . S
Zn201 O200 2.035 . S
Zn201 O202 2.028 . S
Zn201 O204 2.028 . S
Zn201 O207 2.035 . S
O202 Zn201 2.028 . S
O202 C208 1.247 . S
O203 Zn199 2.035 . S
O203 C208 1.258 . S
O204 C197 1.247 . S
O204 Zn201 2.028 . S
O205 C197 1.258 . S
O205 Zn199 2.035 . S
O206 Zn199 2.028 . S
O206 C209 1.247 . S
O207 Zn201 2.035 . S
O207 C209 1.258 . S
C208 O202 1.247 . S
C208 O203 1.258 . S
C209 O206 1.247 . S
C209 O207 1.258 . S
C210 O212 1.247 . S
C210 O214 1.258 . S
C211 O218 1.247 . S
C211 O219 1.258 . S
O212 C210 1.247 . S
O212 Zn213 2.028 . S
Zn213 O212 2.028 . S
Zn213 O217 2.035 . S
Zn213 O219 2.035 . S
Zn213 O220 2.028 . S
O214 C210 1.258 . S
O214 Zn215 2.035 . S
Zn215 O214 2.035 . S
Zn215 O216 2.028 . S
Zn215 O218 2.028 . S
Zn215 O221 2.035 . S
O216 Zn215 2.028 . S
O216 C222 1.247 . S
O217 Zn213 2.035 . S
O217 C222 1.258 . S
O218 C211 1.247 . S
O218 Zn215 2.028 . S
O219 C211 1.258 . S
O219 Zn213 2.035 . S
O220 Zn213 2.028 . S
O220 C223 1.247 . S
O221 Zn215 2.035 . S
O221 C223 1.258 . S
C222 O216 1.247 . S
C222 O217 1.258 . S
C223 O220 1.247 . S
C223 O221 1.258 . S
C224 O226 1.247 . S
C224 O228 1.258 . S
C225 O232 1.247 . S
C225 O233 1.258 . S
O226 C224 1.247 . S
O226 Zn227 2.028 . S
Zn227 O226 2.028 . S
Zn227 O231 2.035 . S
Zn227 O233 2.035 . S
Zn227 O234 2.028 . S
O228 C224 1.258 . S
O228 Zn229 2.035 . S
Zn229 O228 2.035 . S
Zn229 O230 2.028 . S
Zn229 O232 2.028 . S
Zn229 O235 2.035 . S
O230 Zn229 2.028 . S
O230 C236 1.247 . S
O231 Zn227 2.035 . S
O231 C236 1.258 . S
O232 C225 1.247 . S
O232 Zn229 2.028 . S
O233 C225 1.258 . S
O233 Zn227 2.035 . S
O234 Zn227 2.028 . S
O234 C237 1.247 . S
O235 Zn229 2.035 . S
O235 C237 1.258 . S
C236 O230 1.247 . S
C236 O231 1.258 . S
C237 O234 1.247 . S
C237 O235 1.258 . S
C238 O240 1.247 . S
C238 O242 1.258 . S
C239 O246 1.247 . S
C239 O247 1.258 . S
O240 C238 1.247 . S
O240 Zn241 2.028 . S
Zn241 O240 2.028 . S
Zn241 O245 2.035 . S
Zn241 O247 2.035 . S
Zn241 O248 2.028 . S
O242 C238 1.258 . S
O242 Zn243 2.035 . S
Zn243 O242 2.035 . S
Zn243 O244 2.028 . S
Zn243 O246 2.028 . S
Zn243 O249 2.035 . S
O244 Zn243 2.028 . S
O244 C250 1.247 . S
O245 Zn241 2.035 . S
O245 C250 1.258 . S
O246 C239 1.247 . S
O246 Zn243 2.028 . S
O247 C239 1.258 . S
O247 Zn241 2.035 . S
O248 Zn241 2.028 . S
O248 C251 1.247 . S
O249 Zn243 2.035 . S
O249 C251 1.258 . S
C250 O244 1.247 . S
C250 O245 1.258 . S
C251 O248 1.247 . S
C251 O249 1.258 . S
C252 O254 1.247 . S
C252 O256 1.258 . S
C253 O260 1.247 . S
C253 O261 1.258 . S
O254 C252 1.247 . S
O254 Zn255 2.028 1_556 S
Zn255 O254 2.028 1_554 S
Zn255 O259 2.035 1_655 S
Zn255 O261 2.035 1_655 S
Zn255 O262 2.028 . S
O256 C252 1.258 . S
O256 Zn257 2.035 1_655 S
Zn257 O256 2.035 1_455 S
Zn257 O258 2.028 . S
Zn257 O260 2.028 1_556 S
Zn257 O263 2.035 1_455 S
O258 Zn257 2.028 . S
O258 C264 1.247 1_556 S
O259 Zn255 2.035 1_455 S
O259 C264 1.258 . S
O260 C253 1.247 . S
O260 Zn257 2.028 1_554 S
O261 C253 1.258 . S
O261 Zn255 2.035 1_455 S
O262 Zn255 2.028 . S
O262 C265 1.247 1_554 S
O263 Zn257 2.035 1_655 S
O263 C265 1.258 . S
C264 O258 1.247 1_554 S
C264 O259 1.258 . S
C265 O262 1.247 1_556 S
C265 O263 1.258 . S
C266 O268 1.247 . S
C266 O270 1.258 . S
C267 O274 1.247 . S
C267 O275 1.258 . S
O268 C266 1.247 . S
O268 Zn269 2.028 . S
Zn269 O268 2.028 . S
Zn269 O273 2.035 . S
Zn269 O275 2.035 . S
Zn269 O276 2.028 . S
O270 C266 1.258 . S
O270 Zn271 2.035 . S
Zn271 O270 2.035 . S
Zn271 O272 2.028 . S
Zn271 O274 2.028 . S
Zn271 O277 2.035 . S
O272 Zn271 2.028 . S
O272 C278 1.247 . S
O273 Zn269 2.035 . S
O273 C278 1.258 . S
O274 C267 1.247 . S
O274 Zn271 2.028 . S
O275 C267 1.258 . S
O275 Zn269 2.035 . S
O276 Zn269 2.028 . S
O276 C279 1.247 . S
O277 Zn271 2.035 . S
O277 C279 1.258 . S
C278 O272 1.247 . S
C278 O273 1.258 . S
C279 O276 1.247 . S
C279 O277 1.258 . S
C280 O282 1.247 . S
C280 O284 1.258 . S
C281 O288 1.247 . S
C281 O289 1.258 . S
O282 C280 1.247 . S
O282 Zn283 2.028 . S
Zn283 O282 2.028 . S
Zn283 O287 2.035 . S
Zn283 O289 2.035 . S
Zn283 O290 2.028 . S
O284 C280 1.258 . S
O284 Zn285 2.035 . S
Zn285 O284 2.035 . S
Zn285 O286 2.028 . S
Zn285 O288 2.028 . S
Zn285 O291 2.035 . S
O286 Zn285 2.028 . S
O286 C292 1.247 . S
O287 Zn283 2.035 . S
O287 C292 1.258 . S
O288 C281 1.247 . S
O288 Zn285 2.028 . S
O289 C281 1.258 . S
O289 Zn283 2.035 . S
O290 Zn283 2.028 . S
O290 C293 1.247 . S
O291 Zn285 2.035 . S
O291 C293 1.258 . S
C292 O286 1.247 . S
C292 O287 1.258 . S
C293 O290 1.247 . S
C293 O291 1.258 . S
C294 O296 1.247 . S
C294 O298 1.258 . S
C295 O302 1.247 . S
C295 O303 1.258 . S
O296 C294 1.247 . S
O296 Zn297 2.028 . S
Zn297 O296 2.028 . S
Zn297 O301 2.035 . S
Zn297 O303 2.035 . S
Zn297 O304 2.028 . S
O298 C294 1.258 . S
O298 Zn299 2.035 . S
Zn299 O298 2.035 . S
Zn299 O300 2.028 . S
Zn299 O302 2.028 . S
Zn299 O305 2.035 . S
O300 Zn299 2.028 . S
O300 C306 1.247 . S
O301 Zn297 2.035 . S
O301 C306 1.258 . S
O302 C295 1.247 . S
O302 Zn299 2.028 . S
O303 C295 1.258 . S
O303 Zn297 2.035 . S
O304 Zn297 2.028 . S
O304 C307 1.247 . S
O305 Zn299 2.035 . S
O305 C307 1.258 . S
C306 O300 1.247 . S
C306 O301 1.258 . S
C307 O304 1.247 . S
C307 O305 1.258 . S
C308 O310 1.247 . S
C308 O312 1.258 . S
C309 O316 1.247 . S
C309 O317 1.258 . S
O310 C308 1.247 . S
O310 Zn311 2.028 1_556 S
Zn311 O310 2.028 1_554 S
Zn311 O315 2.035 . S
Zn311 O317 2.035 . S
Zn311 O318 2.028 1_554 S
O312 C308 1.258 . S
O312 Zn313 2.035 . S
Zn313 O312 2.035 . S
Zn313 O314 2.028 1_556 S
Zn313 O316 2.028 1_556 S
Zn313 O319 2.035 . S
O314 Zn313 2.028 1_554 S
O314 C320 1.247 . S
O315 Zn311 2.035 . S
O315 C320 1.258 . S
O316 C309 1.247 . S
O316 Zn313 2.028 1_554 S
O317 C309 1.258 . S
O317 Zn311 2.035 . S
O318 Zn311 2.028 1_556 S
O318 C321 1.247 . S
O319 Zn313 2.035 . S
O319 C321 1.258 . S
C320 O314 1.247 . S
C320 O315 1.258 . S
C321 O318 1.247 . S
C321 O319 1.258 . S
C322 O324 1.247 . S
C322 O326 1.258 . S
C323 O330 1.247 . S
C323 O331 1.258 . S
O324 C322 1.247 . S
O324 Zn325 2.028 . S
Zn325 O324 2.028 . S
Zn325 O329 2.035 . S
Zn325 O331 2.035 . S
Zn325 O332 2.028 . S
O326 C322 1.258 . S
O326 Zn327 2.035 . S
Zn327 O326 2.035 . S
Zn327 O328 2.028 . S
Zn327 O330 2.028 . S
Zn327 O333 2.035 . S
O328 Zn327 2.028 . S
O328 C334 1.247 . S
O329 Zn325 2.035 . S
O329 C334 1.258 . S
O330 C323 1.247 . S
O330 Zn327 2.028 . S
O331 C323 1.258 . S
O331 Zn325 2.035 . S
O332 Zn325 2.028 . S
O332 C335 1.247 . S
O333 Zn327 2.035 . S
O333 C335 1.258 . S
C334 O328 1.247 . S
C334 O329 1.258 . S
C335 O332 1.247 . S
C335 O333 1.258 . S
H336 C342 0.930 . S
H337 C345 0.930 . S
H338 C346 0.930 . S
H339 C347 0.930 . S
H340 C350 0.930 . S
H341 C351 0.930 . S
C342 H336 0.930 . S
C342 C343 1.355 . S
C342 C344 1.415 . S
C343 C342 1.355 . S
C343 C345 1.419 . S
C344 C342 1.415 . S
C344 C349 1.425 . S
C344 C351 1.409 . S
C345 H337 0.930 . S
C345 C343 1.419 . S
C345 C346 1.362 . S
C346 H338 0.930 . S
C346 C345 1.362 . S
C346 C349 1.409 . S
C347 H339 0.930 . S
C347 C348 1.355 . S
C347 C349 1.415 . S
C348 C347 1.355 . S
C348 C350 1.419 . S
C349 C344 1.425 . S
C349 C346 1.409 . S
C349 C347 1.415 . S
C350 H340 0.930 . S
C350 C348 1.419 . S
C350 C351 1.362 . S
C351 H341 0.930 . S
C351 C344 1.409 . S
C351 C350 1.362 . S
H352 C358 0.930 1_455 S
H353 C361 0.930 . S
H354 C362 0.930 . S
H355 C363 0.930 . S
H356 C366 0.930 . S
H357 C367 0.930 . S
C358 H352 0.930 1_655 S
C358 C359 1.355 . S
C358 C360 1.415 . S
C359 C358 1.355 . S
C359 C361 1.419 . S
C360 C358 1.415 . S
C360 C365 1.425 . S
C360 C367 1.409 1_655 S
C361 H353 0.930 . S
C361 C359 1.419 . S
C361 C362 1.362 . S
C362 H354 0.930 . S
C362 C361 1.362 . S
C362 C365 1.409 . S
C363 H355 0.930 . S
C363 C364 1.355 . S
C363 C365 1.415 . S
C364 C363 1.355 . S
C364 C366 1.419 1_655 S
C365 C360 1.425 . S
C365 C362 1.409 . S
C365 C363 1.415 . S
C366 H356 0.930 . S
C366 C364 1.419 1_455 S
C366 C367 1.362 . S
C367 H357 0.930 . S
C367 C360 1.409 1_455 S
C367 C366 1.362 . S
H368 C374 0.930 . S
H369 C377 0.930 . S
H370 C378 0.930 . S
H371 C379 0.930 . S
H372 C382 0.930 . S
H373 C383 0.930 . S
C374 H368 0.930 . S
C374 C375 1.355 . S
C374 C376 1.415 . S
C375 C374 1.355 . S
C375 C377 1.419 . S
C376 C374 1.415 . S
C376 C381 1.425 . S
C376 C383 1.409 . S
C377 H369 0.930 . S
C377 C375 1.419 . S
C377 C378 1.362 . S
C378 H370 0.930 . S
C378 C377 1.362 . S
C378 C381 1.409 . S
C379 H371 0.930 . S
C379 C380 1.355 . S
C379 C381 1.415 . S
C380 C379 1.355 . S
C380 C382 1.419 . S
C381 C376 1.425 . S
C381 C378 1.409 . S
C381 C379 1.415 . S
C382 H372 0.930 . S
C382 C380 1.419 . S
C382 C383 1.362 . S
C383 H373 0.930 . S
C383 C376 1.409 . S
C383 C382 1.362 . S
H384 C390 0.930 . S
H385 C393 0.930 . S
H386 C394 0.930 . S
H387 C395 0.930 . S
H388 C398 0.930 . S
H389 C399 0.930 . S
C390 H384 0.930 . S
C390 C391 1.355 . S
C390 C392 1.415 . S
C391 C390 1.355 . S
C391 C393 1.419 . S
C392 C390 1.415 . S
C392 C397 1.425 . S
C392 C399 1.409 . S
C393 H385 0.930 . S
C393 C391 1.419 . S
C393 C394 1.362 . S
C394 H386 0.930 . S
C394 C393 1.362 . S
C394 C397 1.409 . S
C395 H387 0.930 . S
C395 C396 1.355 . S
C395 C397 1.415 . S
C396 C395 1.355 . S
C396 C398 1.419 . S
C397 C392 1.425 . S
C397 C394 1.409 . S
C397 C395 1.415 . S
C398 H388 0.930 . S
C398 C396 1.419 . S
C398 C399 1.362 . S
C399 H389 0.930 . S
C399 C392 1.409 . S
C399 C398 1.362 . S
H400 C406 0.930 . S
H401 C409 0.930 . S
H402 C410 0.930 . S
H403 C411 0.930 . S
H404 C414 0.930 . S
H405 C415 0.930 . S
C406 H400 0.930 . S
C406 C407 1.355 . S
C406 C408 1.415 . S
C407 C406 1.355 . S
C407 C409 1.419 . S
C408 C406 1.415 . S
C408 C413 1.425 . S
C408 C415 1.409 . S
C409 H401 0.930 . S
C409 C407 1.419 . S
C409 C410 1.362 . S
C410 H402 0.930 . S
C410 C409 1.362 . S
C410 C413 1.409 . S
C411 H403 0.930 . S
C411 C412 1.355 . S
C411 C413 1.415 . S
C412 C411 1.355 . S
C412 C414 1.419 . S
C413 C408 1.425 . S
C413 C410 1.409 . S
C413 C411 1.415 . S
C414 H404 0.930 . S
C414 C412 1.419 . S
C414 C415 1.362 . S
C415 H405 0.930 . S
C415 C408 1.409 . S
C415 C414 1.362 . S
H416 C422 0.930 . S
H417 C425 0.930 . S
H418 C426 0.930 . S
H419 C427 0.930 . S
H420 C430 0.930 . S
H421 C431 0.930 . S
C422 H416 0.930 . S
C422 C423 1.355 . S
C422 C424 1.415 . S
C423 C422 1.355 . S
C423 C425 1.419 . S
C424 C422 1.415 . S
C424 C429 1.425 . S
C424 C431 1.409 . S
C425 H417 0.930 . S
C425 C423 1.419 . S
C425 C426 1.362 . S
C426 H418 0.930 . S
C426 C425 1.362 . S
C426 C429 1.409 . S
C427 H419 0.930 . S
C427 C428 1.355 . S
C427 C429 1.415 . S
C428 C427 1.355 . S
C428 C430 1.419 . S
C429 C424 1.425 . S
C429 C426 1.409 . S
C429 C427 1.415 . S
C430 H420 0.930 . S
C430 C428 1.419 . S
C430 C431 1.362 . S
C431 H421 0.930 . S
C431 C424 1.409 . S
C431 C430 1.362 . S
H432 C438 0.930 . S
H433 C441 0.930 . S
H434 C442 0.930 . S
H435 C443 0.930 . S
H436 C446 0.930 . S
H437 C447 0.930 . S
C438 H432 0.930 . S
C438 C439 1.355 . S
C438 C440 1.415 . S
C439 C438 1.355 . S
C439 C441 1.419 . S
C440 C438 1.415 . S
C440 C445 1.425 . S
C440 C447 1.409 . S
C441 H433 0.930 . S
C441 C439 1.419 . S
C441 C442 1.362 . S
C442 H434 0.930 . S
C442 C441 1.362 . S
C442 C445 1.409 . S
C443 H435 0.930 . S
C443 C444 1.355 . S
C443 C445 1.415 . S
C444 C443 1.355 . S
C444 C446 1.419 . S
C445 C440 1.425 . S
C445 C442 1.409 . S
C445 C443 1.415 . S
C446 H436 0.930 . S
C446 C444 1.419 . S
C446 C447 1.362 . S
C447 H437 0.930 . S
C447 C440 1.409 . S
C447 C446 1.362 . S
H448 C454 0.930 1_556 S
H449 C457 0.930 . S
H450 C458 0.930 . S
H451 C459 0.930 . S
H452 C462 0.930 . S
H453 C463 0.930 . S
C454 H448 0.930 1_554 S
C454 C455 1.355 . S
C454 C456 1.415 . S
C455 C454 1.355 . S
C455 C457 1.419 . S
C456 C454 1.415 . S
C456 C461 1.425 . S
C456 C463 1.409 1_554 S
C457 H449 0.930 . S
C457 C455 1.419 . S
C457 C458 1.362 . S
C458 H450 0.930 . S
C458 C457 1.362 . S
C458 C461 1.409 . S
C459 H451 0.930 . S
C459 C460 1.355 . S
C459 C461 1.415 . S
C460 C459 1.355 . S
C460 C462 1.419 1_554 S
C461 C456 1.425 . S
C461 C458 1.409 . S
C461 C459 1.415 . S
C462 H452 0.930 . S
C462 C460 1.419 1_556 S
C462 C463 1.362 . S
C463 H453 0.930 . S
C463 C456 1.409 1_556 S
C463 C462 1.362 . S
H464 C470 0.930 . S
H465 C473 0.930 . S
H466 C474 0.930 . S
H467 C475 0.930 . S
H468 C478 0.930 1_565 S
H469 C479 0.930 1_565 S
C470 H464 0.930 . S
C470 C471 1.355 . S
C470 C472 1.415 . S
C471 C470 1.355 . S
C471 C473 1.419 . S
C472 C470 1.415 . S
C472 C477 1.425 . S
C472 C479 1.409 . S
C473 H465 0.930 . S
C473 C471 1.419 . S
C473 C474 1.362 . S
C474 H466 0.930 . S
C474 C473 1.362 . S
C474 C477 1.409 . S
C475 H467 0.930 . S
C475 C476 1.355 . S
C475 C477 1.415 . S
C476 C475 1.355 . S
C476 C478 1.419 . S
C477 C472 1.425 . S
C477 C474 1.409 . S
C477 C475 1.415 . S
C478 H468 0.930 1_545 S
C478 C476 1.419 . S
C478 C479 1.362 . S
C479 H469 0.930 1_545 S
C479 C472 1.409 . S
C479 C478 1.362 . S
H480 C486 0.930 . S
H481 C489 0.930 . S
H482 C490 0.930 . S
H483 C491 0.930 . S
H484 C494 0.930 . S
H485 C495 0.930 . S
C486 H480 0.930 . S
C486 C487 1.355 . S
C486 C488 1.415 . S
C487 C486 1.355 . S
C487 C489 1.419 . S
C488 C486 1.415 . S
C488 C493 1.425 . S
C488 C495 1.409 . S
C489 H481 0.930 . S
C489 C487 1.419 . S
C489 C490 1.362 . S
C490 H482 0.930 . S
C490 C489 1.362 . S
C490 C493 1.409 . S
C491 H483 0.930 . S
C491 C492 1.355 . S
C491 C493 1.415 . S
C492 C491 1.355 . S
C492 C494 1.419 . S
C493 C488 1.425 . S
C493 C490 1.409 . S
C493 C491 1.415 . S
C494 H484 0.930 . S
C494 C492 1.419 . S
C494 C495 1.362 . S
C495 H485 0.930 . S
C495 C488 1.409 . S
C495 C494 1.362 . S
H496 C502 0.930 . S
H497 C505 0.930 . S
H498 C506 0.930 . S
H499 C507 0.927 1_545 S
H500 C510 0.930 . S
H501 C511 0.930 . S
C502 H496 0.930 . S
C502 C503 1.355 . S
C502 C504 1.415 . S
C503 C502 1.355 . S
C503 C505 1.419 1_565 S
C504 C502 1.415 . S
C504 C509 1.425 . S
C504 C511 1.409 . S
C505 H497 0.930 . S
C505 C503 1.419 1_545 S
C505 C506 1.362 . S
C506 H498 0.930 . S
C506 C505 1.362 . S
C506 C509 1.409 1_545 S
C507 H499 0.927 1_565 S
C507 C508 1.355 . S
C507 C509 1.415 . S
C508 C507 1.355 . S
C508 C510 1.419 . S
C509 C504 1.425 . S
C509 C506 1.409 1_565 S
C509 C507 1.415 . S
C510 H500 0.930 . S
C510 C508 1.419 . S
C510 C511 1.362 . S
C511 H501 0.930 . S
C511 C504 1.409 . S
C511 C510 1.362 . S
H512 C518 0.930 . S
H513 C521 0.930 . S
H514 C522 0.930 . S
H515 C523 0.930 . S
H516 C526 0.930 . S
H517 C527 0.930 . S
C518 H512 0.930 . S
C518 C519 1.355 . S
C518 C520 1.415 . S
C519 C518 1.355 . S
C519 C521 1.419 . S
C520 C518 1.415 . S
C520 C525 1.425 . S
C520 C527 1.409 . S
C521 H513 0.930 . S
C521 C519 1.419 . S
C521 C522 1.362 . S
C522 H514 0.930 . S
C522 C521 1.362 . S
C522 C525 1.409 . S
C523 H515 0.930 . S
C523 C524 1.355 . S
C523 C525 1.415 . S
C524 C523 1.355 . S
C524 C526 1.419 . S
C525 C520 1.425 . S
C525 C522 1.409 . S
C525 C523 1.415 . S
C526 H516 0.930 . S
C526 C524 1.419 . S
C526 C527 1.362 . S
C527 H517 0.930 . S
C527 C520 1.409 . S
C527 C526 1.362 . S
H528 C534 0.930 . S
H529 C537 0.930 . S
H530 C538 0.930 . S
H531 C539 0.930 . S
H532 C542 0.930 . S
H533 C543 0.930 . S
C534 H528 0.930 . S
C534 C535 1.355 . S
C534 C536 1.415 . S
C535 C534 1.355 . S
C535 C537 1.419 . S
C536 C534 1.415 . S
C536 C541 1.425 . S
C536 C543 1.409 . S
C537 H529 0.930 . S
C537 C535 1.419 . S
C537 C538 1.362 . S
C538 H530 0.930 . S
C538 C537 1.362 . S
C538 C541 1.409 . S
C539 H531 0.930 . S
C539 C540 1.355 . S
C539 C541 1.415 . S
C540 C539 1.355 . S
C540 C542 1.419 . S
C541 C536 1.425 . S
C541 C538 1.409 . S
C541 C539 1.415 . S
C542 H532 0.930 . S
C542 C540 1.419 . S
C542 C543 1.362 . S
C543 H533 0.930 . S
C543 C536 1.409 . S
C543 C542 1.362 . S
H544 C550 0.930 . S
H545 C553 0.930 . S
H546 C554 0.930 . S
H547 C555 0.930 . S
H548 C558 0.930 . S
H549 C559 0.930 . S
C550 H544 0.930 . S
C550 C551 1.355 . S
C550 C552 1.415 . S
C551 C550 1.355 . S
C551 C553 1.419 . S
C552 C550 1.415 . S
C552 C557 1.425 . S
C552 C559 1.409 . S
C553 H545 0.930 . S
C553 C551 1.419 . S
C553 C554 1.362 . S
C554 H546 0.930 . S
C554 C553 1.362 . S
C554 C557 1.409 . S
C555 H547 0.930 . S
C555 C556 1.355 . S
C555 C557 1.415 . S
C556 C555 1.355 . S
C556 C558 1.419 . S
C557 C552 1.425 . S
C557 C554 1.409 . S
C557 C555 1.415 . S
C558 H548 0.930 . S
C558 C556 1.419 . S
C558 C559 1.362 . S
C559 H549 0.930 . S
C559 C552 1.409 . S
C559 C558 1.362 . S
H560 C566 0.930 . S
H561 C569 0.930 . S
H562 C570 0.930 . S
H563 C571 0.930 . S
H564 C574 0.930 . S
H565 C575 0.930 . S
C566 H560 0.930 . S
C566 C567 1.355 . S
C566 C568 1.415 . S
C567 C566 1.355 . S
C567 C569 1.419 . S
C568 C566 1.415 . S
C568 C573 1.425 . S
C568 C575 1.409 . S
C569 H561 0.930 . S
C569 C567 1.419 . S
C569 C570 1.362 . S
C570 H562 0.930 . S
C570 C569 1.362 . S
C570 C573 1.409 . S
C571 H563 0.930 . S
C571 C572 1.355 . S
C571 C573 1.415 . S
C572 C571 1.355 . S
C572 C574 1.419 . S
C573 C568 1.425 . S
C573 C570 1.409 . S
C573 C571 1.415 . S
C574 H564 0.930 . S
C574 C572 1.419 . S
C574 C575 1.362 . S
C575 H565 0.930 . S
C575 C568 1.409 . S
C575 C574 1.362 . S
H576 C582 0.930 . S
H577 C585 0.930 . S
H578 C586 0.930 . S
H579 C587 0.930 . S
H580 C590 0.930 . S
H581 C591 0.930 . S
C582 H576 0.930 . S
C582 C583 1.355 . S
C582 C584 1.415 . S
C583 C582 1.355 . S
C583 C585 1.419 . S
C584 C582 1.415 . S
C584 C589 1.425 . S
C584 C591 1.409 . S
C585 H577 0.930 . S
C585 C583 1.419 . S
C585 C586 1.362 . S
C586 H578 0.930 . S
C586 C585 1.362 . S
C586 C589 1.409 . S
C587 H579 0.930 . S
C587 C588 1.355 . S
C587 C589 1.415 . S
C588 C587 1.355 . S
C588 C590 1.419 . S
C589 C584 1.425 . S
C589 C586 1.409 . S
C589 C587 1.415 . S
C590 H580 0.930 . S
C590 C588 1.419 . S
C590 C591 1.362 . S
C591 H581 0.930 . S
C591 C584 1.409 . S
C591 C590 1.362 . S
H592 C598 0.930 . S
H593 C601 0.930 . S
H594 C602 0.930 . S
H595 C603 0.930 . S
H596 C606 0.930 . S
H597 C607 0.930 . S
C598 H592 0.930 . S
C598 C599 1.355 . S
C598 C600 1.415 . S
C599 C598 1.355 . S
C599 C601 1.419 . S
C600 C598 1.415 . S
C600 C605 1.425 . S
C600 C607 1.409 . S
C601 H593 0.930 . S
C601 C599 1.419 . S
C601 C602 1.362 . S
C602 H594 0.930 . S
C602 C601 1.362 . S
C602 C605 1.409 . S
C603 H595 0.930 . S
C603 C604 1.355 . S
C603 C605 1.415 . S
C604 C603 1.355 . S
C604 C606 1.419 . S
C605 C600 1.425 . S
C605 C602 1.409 . S
C605 C603 1.415 . S
C606 H596 0.930 . S
C606 C604 1.419 . S
C606 C607 1.362 . S
C607 H597 0.930 . S
C607 C600 1.409 . S
C607 C606 1.362 . S
H608 C614 0.930 . S
H609 C617 0.930 . S
H610 C618 0.930 . S
H611 C619 0.930 . S
H612 C622 0.930 . S
H613 C623 0.930 . S
C614 H608 0.930 . S
C614 C615 1.355 . S
C614 C616 1.415 . S
C615 C614 1.355 . S
C615 C617 1.419 . S
C616 C614 1.415 . S
C616 C621 1.425 . S
C616 C623 1.409 . S
C617 H609 0.930 . S
C617 C615 1.419 . S
C617 C618 1.362 . S
C618 H610 0.930 . S
C618 C617 1.362 . S
C618 C621 1.409 . S
C619 H611 0.930 . S
C619 C620 1.355 . S
C619 C621 1.415 . S
C620 C619 1.355 . S
C620 C622 1.419 . S
C621 C616 1.425 . S
C621 C618 1.409 . S
C621 C619 1.415 . S
C622 H612 0.930 . S
C622 C620 1.419 . S
C622 C623 1.362 . S
C623 H613 0.930 . S
C623 C616 1.409 . S
C623 C622 1.362 . S
H624 C630 0.930 . S
H625 C633 0.930 . S
H626 C634 0.930 . S
H627 C635 0.930 . S
H628 C638 0.930 . S
H629 C639 0.930 . S
C630 H624 0.930 . S
C630 C631 1.355 . S
C630 C632 1.415 . S
C631 C630 1.355 . S
C631 C633 1.419 . S
C632 C630 1.415 . S
C632 C637 1.425 . S
C632 C639 1.409 . S
C633 H625 0.930 . S
C633 C631 1.419 . S
C633 C634 1.362 . S
C634 H626 0.930 . S
C634 C633 1.362 . S
C634 C637 1.409 . S
C635 H627 0.930 . S
C635 C636 1.355 . S
C635 C637 1.415 . S
C636 C635 1.355 . S
C636 C638 1.419 . S
C637 C632 1.425 . S
C637 C634 1.409 . S
C637 C635 1.415 . S
C638 H628 0.930 . S
C638 C636 1.419 . S
C638 C639 1.362 . S
C639 H629 0.930 . S
C639 C632 1.409 . S
C639 C638 1.362 . S
H640 C646 0.930 1_655 S
H641 C649 0.930 . S
H642 C650 0.930 . S
H643 C651 0.930 . S
H644 C654 0.930 1_655 S
H645 C655 0.930 . S
C646 H640 0.930 1_455 S
C646 C647 1.355 . S
C646 C648 1.415 . S
C647 C646 1.355 . S
C647 C649 1.419 . S
C648 C646 1.415 . S
C648 C653 1.425 . S
C648 C655 1.409 1_455 S
C649 H641 0.930 . S
C649 C647 1.419 . S
C649 C650 1.362 . S
C650 H642 0.930 . S
C650 C649 1.362 . S
C650 C653 1.409 . S
C651 H643 0.930 . S
C651 C652 1.355 . S
C651 C653 1.415 . S
C652 C651 1.355 . S
C652 C654 1.419 . S
C653 C648 1.425 . S
C653 C650 1.409 . S
C653 C651 1.415 . S
C654 H644 0.930 1_455 S
C654 C652 1.419 . S
C654 C655 1.362 1_455 S
C655 H645 0.930 . S
C655 C648 1.409 1_655 S
C655 C654 1.362 1_655 S
H656 C662 0.930 . S
H657 C665 0.930 . S
H658 C666 0.930 . S
H659 C667 0.930 . S
H660 C670 0.930 . S
H661 C671 0.930 . S
C662 H656 0.930 . S
C662 C663 1.355 . S
C662 C664 1.415 . S
C663 C662 1.355 . S
C663 C665 1.419 . S
C664 C662 1.415 . S
C664 C669 1.425 . S
C664 C671 1.409 . S
C665 H657 0.930 . S
C665 C663 1.419 . S
C665 C666 1.362 . S
C666 H658 0.930 . S
C666 C665 1.362 . S
C666 C669 1.409 . S
C667 H659 0.930 . S
C667 C668 1.355 . S
C667 C669 1.415 . S
C668 C667 1.355 . S
C668 C670 1.419 . S
C669 C664 1.425 . S
C669 C666 1.409 . S
C669 C667 1.415 . S
C670 H660 0.930 . S
C670 C668 1.419 . S
C670 C671 1.362 . S
C671 H661 0.930 . S
C671 C664 1.409 . S
C671 C670 1.362 . S
H672 C678 0.930 . S
H673 C681 0.930 . S
H674 C682 0.930 . S
H675 C683 0.930 . S
H676 C686 0.930 . S
H677 C687 0.930 . S
C678 H672 0.930 . S
C678 C679 1.355 . S
C678 C680 1.415 . S
C679 C678 1.355 . S
C679 C681 1.419 . S
C680 C678 1.415 . S
C680 C685 1.425 . S
C680 C687 1.409 . S
C681 H673 0.930 . S
C681 C679 1.419 . S
C681 C682 1.362 . S
C682 H674 0.930 . S
C682 C681 1.362 . S
C682 C685 1.409 . S
C683 H675 0.930 . S
C683 C684 1.355 . S
C683 C685 1.415 . S
C684 C683 1.355 . S
C684 C686 1.419 . S
C685 C680 1.425 . S
C685 C682 1.409 . S
C685 C683 1.415 . S
C686 H676 0.930 . S
C686 C684 1.419 . S
C686 C687 1.362 . S
C687 H677 0.930 . S
C687 C680 1.409 . S
C687 C686 1.362 . S
H688 C694 0.930 . S
H689 C697 0.930 . S
H690 C698 0.930 . S
H691 C699 0.930 . S
H692 C702 0.930 . S
H693 C703 0.930 . S
C694 H688 0.930 . S
C694 C695 1.355 . S
C694 C696 1.415 . S
C695 C694 1.355 . S
C695 C697 1.419 . S
C696 C694 1.415 . S
C696 C701 1.425 . S
C696 C703 1.409 . S
C697 H689 0.930 . S
C697 C695 1.419 . S
C697 C698 1.362 . S
C698 H690 0.930 . S
C698 C697 1.362 . S
C698 C701 1.409 . S
C699 H691 0.930 . S
C699 C700 1.355 . S
C699 C701 1.415 . S
C700 C699 1.355 . S
C700 C702 1.419 . S
C701 C696 1.425 . S
C701 C698 1.409 . S
C701 C699 1.415 . S
C702 H692 0.930 . S
C702 C700 1.419 . S
C702 C703 1.362 . S
C703 H693 0.930 . S
C703 C696 1.409 . S
C703 C702 1.362 . S
H704 C710 0.930 . S
H705 C713 0.930 . S
H706 C714 0.930 . S
H707 C715 0.930 . S
H708 C718 0.930 . S
H709 C719 0.930 . S
C710 H704 0.930 . S
C710 C711 1.355 . S
C710 C712 1.415 . S
C711 C710 1.355 . S
C711 C713 1.419 . S
C712 C710 1.415 . S
C712 C717 1.425 . S
C712 C719 1.409 . S
C713 H705 0.930 . S
C713 C711 1.419 . S
C713 C714 1.362 . S
C714 H706 0.930 . S
C714 C713 1.362 . S
C714 C717 1.409 . S
C715 H707 0.930 . S
C715 C716 1.355 . S
C715 C717 1.415 . S
C716 C715 1.355 . S
C716 C718 1.419 . S
C717 C712 1.425 . S
C717 C714 1.409 . S
C717 C715 1.415 . S
C718 H708 0.930 . S
C718 C716 1.419 . S
C718 C719 1.362 . S
C719 H709 0.930 . S
C719 C712 1.409 . S
C719 C718 1.362 . S
H720 C726 0.930 . S
H721 C729 0.930 . S
H722 C730 0.930 . S
H723 C731 0.930 . S
H724 C734 0.930 . S
H725 C735 0.930 . S
C726 H720 0.930 . S
C726 C727 1.355 . S
C726 C728 1.415 . S
C727 C726 1.355 . S
C727 C729 1.419 . S
C728 C726 1.415 . S
C728 C733 1.425 . S
C728 C735 1.409 . S
C729 H721 0.930 . S
C729 C727 1.419 . S
C729 C730 1.362 . S
C730 H722 0.930 . S
C730 C729 1.362 . S
C730 C733 1.409 . S
C731 H723 0.930 . S
C731 C732 1.355 . S
C731 C733 1.415 . S
C732 C731 1.355 . S
C732 C734 1.419 . S
C733 C728 1.425 . S
C733 C730 1.409 . S
C733 C731 1.415 . S
C734 H724 0.930 . S
C734 C732 1.419 . S
C734 C735 1.362 . S
C735 H725 0.930 . S
C735 C728 1.409 . S
C735 C734 1.362 . S
H736 C742 0.930 . S
H737 C745 0.930 . S
H738 C746 0.930 . S
H739 C747 0.930 . S
H740 C750 0.930 . S
H741 C751 0.930 . S
C742 H736 0.930 . S
C742 C743 1.355 . S
C742 C744 1.415 . S
C743 C742 1.355 . S
C743 C745 1.419 . S
C744 C742 1.415 . S
C744 C749 1.425 . S
C744 C751 1.409 . S
C745 H737 0.930 . S
C745 C743 1.419 . S
C745 C746 1.362 . S
C746 H738 0.930 . S
C746 C745 1.362 . S
C746 C749 1.409 . S
C747 H739 0.930 . S
C747 C748 1.355 . S
C747 C749 1.415 . S
C748 C747 1.355 . S
C748 C750 1.419 . S
C749 C744 1.425 . S
C749 C746 1.409 . S
C749 C747 1.415 . S
C750 H740 0.930 . S
C750 C748 1.419 . S
C750 C751 1.362 . S
C751 H741 0.930 . S
C751 C744 1.409 . S
C751 C750 1.362 . S
H752 C758 0.930 . S
H753 C761 0.930 . S
H754 C762 0.930 . S
H755 C763 0.930 . S
H756 C766 0.930 . S
H757 C767 0.930 . S
C758 H752 0.930 . S
C758 C759 1.355 . S
C758 C760 1.415 . S
C759 C758 1.355 . S
C759 C761 1.419 . S
C760 C758 1.415 . S
C760 C765 1.425 . S
C760 C767 1.409 . S
C761 H753 0.930 . S
C761 C759 1.419 . S
C761 C762 1.362 . S
C762 H754 0.930 . S
C762 C761 1.362 . S
C762 C765 1.409 . S
C763 H755 0.930 . S
C763 C764 1.355 . S
C763 C765 1.415 . S
C764 C763 1.355 . S
C764 C766 1.419 . S
C765 C760 1.425 . S
C765 C762 1.409 . S
C765 C763 1.415 . S
C766 H756 0.930 . S
C766 C764 1.419 . S
C766 C767 1.362 . S
C767 H757 0.930 . S
C767 C760 1.409 . S
C767 C766 1.362 . S
H768 C774 0.930 . S
H769 C777 0.930 . S
H770 C778 0.930 . S
H771 C779 0.930 . S
H772 C782 0.930 . S
H773 C783 0.930 . S
C774 H768 0.930 . S
C774 C775 1.355 . S
C774 C776 1.415 . S
C775 C774 1.355 . S
C775 C777 1.419 . S
C776 C774 1.415 . S
C776 C781 1.425 . S
C776 C783 1.409 . S
C777 H769 0.930 . S
C777 C775 1.419 . S
C777 C778 1.362 . S
C778 H770 0.930 . S
C778 C777 1.362 . S
C778 C781 1.409 . S
C779 H771 0.930 . S
C779 C780 1.355 . S
C779 C781 1.415 . S
C780 C779 1.355 . S
C780 C782 1.419 . S
C781 C776 1.425 . S
C781 C778 1.409 . S
C781 C779 1.415 . S
C782 H772 0.930 . S
C782 C780 1.419 . S
C782 C783 1.362 . S
C783 H773 0.930 . S
C783 C776 1.409 . S
C783 C782 1.362 . S
H784 C790 0.930 . S
H785 C793 0.930 . S
H786 C794 0.930 . S
H787 C795 0.930 . S
H788 C798 0.930 . S
H789 C799 0.930 . S
C790 H784 0.930 . S
C790 C791 1.355 . S
C790 C792 1.415 . S
C791 C790 1.355 . S
C791 C793 1.419 . S
C792 C790 1.415 . S
C792 C797 1.425 . S
C792 C799 1.409 . S
C793 H785 0.930 . S
C793 C791 1.419 . S
C793 C794 1.362 . S
C794 H786 0.930 . S
C794 C793 1.362 . S
C794 C797 1.409 . S
C795 H787 0.930 . S
C795 C796 1.355 . S
C795 C797 1.415 . S
C796 C795 1.355 . S
C796 C798 1.419 . S
C797 C792 1.425 . S
C797 C794 1.409 . S
C797 C795 1.415 . S
C798 H788 0.930 . S
C798 C796 1.419 . S
C798 C799 1.362 . S
C799 H789 0.930 . S
C799 C792 1.409 . S
C799 C798 1.362 . S
H800 C806 0.930 . S
H801 C809 0.930 . S
H802 C810 0.930 . S
H803 C811 0.930 . S
H804 C814 0.930 . S
H805 C815 0.930 . S
C806 H800 0.930 . S
C806 C807 1.355 . S
C806 C808 1.415 . S
C807 C806 1.355 . S
C807 C809 1.419 . S
C808 C806 1.415 . S
C808 C813 1.425 . S
C808 C815 1.409 . S
C809 H801 0.930 . S
C809 C807 1.419 . S
C809 C810 1.362 . S
C810 H802 0.930 . S
C810 C809 1.362 . S
C810 C813 1.409 . S
C811 H803 0.930 . S
C811 C812 1.355 . S
C811 C813 1.415 . S
C812 C811 1.355 . S
C812 C814 1.419 . S
C813 C808 1.425 . S
C813 C810 1.409 . S
C813 C811 1.415 . S
C814 H804 0.930 . S
C814 C812 1.419 . S
C814 C815 1.362 . S
C815 H805 0.930 . S
C815 C808 1.409 . S
C815 C814 1.362 . S
H816 C822 0.930 . S
H817 C825 0.930 . S
H818 C826 0.930 . S
H819 C827 0.930 . S
H820 C830 0.930 1_545 S
H821 C831 0.930 . S
C822 H816 0.930 . S
C822 C823 1.355 . S
C822 C824 1.415 . S
C823 C822 1.355 . S
C823 C825 1.419 . S
C824 C822 1.415 . S
C824 C829 1.425 . S
C824 C831 1.409 . S
C825 H817 0.930 . S
C825 C823 1.419 . S
C825 C826 1.362 . S
C826 H818 0.930 . S
C826 C825 1.362 . S
C826 C829 1.409 . S
C827 H819 0.930 . S
C827 C828 1.355 . S
C827 C829 1.415 . S
C828 C827 1.355 . S
C828 C830 1.419 . S
C829 C824 1.425 . S
C829 C826 1.409 . S
C829 C827 1.415 . S
C830 H820 0.930 1_565 S
C830 C828 1.419 . S
C830 C831 1.362 . S
C831 H821 0.930 . S
C831 C824 1.409 . S
C831 C830 1.362 . S
H832 C838 0.930 . S
H833 C841 0.930 . S
H834 C842 0.930 . S
H835 C843 0.930 . S
H836 C846 0.930 . S
H837 C847 0.930 . S
C838 H832 0.930 . S
C838 C839 1.355 . S
C838 C840 1.415 . S
C839 C838 1.355 . S
C839 C841 1.419 . S
C840 C838 1.415 . S
C840 C845 1.425 . S
C840 C847 1.409 . S
C841 H833 0.930 . S
C841 C839 1.419 . S
C841 C842 1.362 . S
C842 H834 0.930 . S
C842 C841 1.362 . S
C842 C845 1.409 . S
C843 H835 0.930 . S
C843 C844 1.355 . S
C843 C845 1.415 . S
C844 C843 1.355 . S
C844 C846 1.419 . S
C845 C840 1.425 . S
C845 C842 1.409 . S
C845 C843 1.415 . S
C846 H836 0.930 . S
C846 C844 1.419 . S
C846 C847 1.362 . S
C847 H837 0.930 . S
C847 C840 1.409 . S
C847 C846 1.362 . S
H848 C854 0.951 . S
H849 C857 0.930 . S
H850 C858 0.930 . S
H851 C859 0.930 . S
H852 C862 0.930 . S
H853 C863 0.915 1_556 S
C854 H848 0.951 . S
C854 C855 1.355 . S
C854 C856 1.415 . S
C855 C854 1.355 . S
C855 C857 1.419 . S
C856 C854 1.415 . S
C856 C861 1.425 . S
C856 C863 1.409 . S
C857 H849 0.930 . S
C857 C855 1.419 . S
C857 C858 1.362 . S
C858 H850 0.930 . S
C858 C857 1.362 . S
C858 C861 1.409 . S
C859 H851 0.930 . S
C859 C860 1.355 . S
C859 C861 1.415 . S
C860 C859 1.355 . S
C860 C862 1.419 . S
C861 C856 1.425 . S
C861 C858 1.409 . S
C861 C859 1.415 . S
C862 H852 0.930 . S
C862 C860 1.419 . S
C862 C863 1.362 . S
C863 H853 0.915 1_554 S
C863 C856 1.409 . S
C863 C862 1.362 . S
H864 C870 0.930 . S
H865 C873 0.930 . S
H866 C874 0.930 . S
H867 C875 0.930 . S
H868 C878 0.930 . S
H869 C879 0.930 . S
C870 H864 0.930 . S
C870 C871 1.355 . S
C870 C872 1.415 . S
C871 C870 1.355 . S
C871 C873 1.419 . S
C872 C870 1.415 . S
C872 C877 1.425 . S
C872 C879 1.409 . S
C873 H865 0.930 . S
C873 C871 1.419 . S
C873 C874 1.362 . S
C874 H866 0.930 . S
C874 C873 1.362 . S
C874 C877 1.409 . S
C875 H867 0.930 . S
C875 C876 1.355 . S
C875 C877 1.415 . S
C876 C875 1.355 . S
C876 C878 1.419 . S
C877 C872 1.425 . S
C877 C874 1.409 . S
C877 C875 1.415 . S
C878 H868 0.930 . S
C878 C876 1.419 . S
C878 C879 1.362 . S
C879 H869 0.930 . S
C879 C872 1.409 . S
C879 C878 1.362 . S
H880 C886 0.930 . S
H881 C889 0.930 . S
H882 C890 0.930 . S
H883 C891 0.930 . S
H884 C894 0.930 . S
H885 C895 0.930 1_655 S
C886 H880 0.930 . S
C886 C887 1.355 . S
C886 C888 1.415 . S
C887 C886 1.355 . S
C887 C889 1.419 . S
C888 C886 1.415 . S
C888 C893 1.425 . S
C888 C895 1.409 . S
C889 H881 0.930 . S
C889 C887 1.419 . S
C889 C890 1.362 . S
C890 H882 0.930 . S
C890 C889 1.362 . S
C890 C893 1.409 . S
C891 H883 0.930 . S
C891 C892 1.355 . S
C891 C893 1.415 . S
C892 C891 1.355 . S
C892 C894 1.419 . S
C893 C888 1.425 . S
C893 C890 1.409 . S
C893 C891 1.415 . S
C894 H884 0.930 . S
C894 C892 1.419 . S
C894 C895 1.362 . S
C895 H885 0.930 1_455 S
C895 C888 1.409 . S
C895 C894 1.362 . S
H896 C902 0.930 . S
H897 C905 0.930 . S
H898 C906 0.930 . S
H899 C907 0.930 . S
H900 C910 0.930 . S
H901 C911 0.930 . S
C902 H896 0.930 . S
C902 C903 1.355 . S
C902 C904 1.415 . S
C903 C902 1.355 . S
C903 C905 1.419 . S
C904 C902 1.415 . S
C904 C909 1.425 . S
C904 C911 1.409 . S
C905 H897 0.930 . S
C905 C903 1.419 . S
C905 C906 1.362 . S
C906 H898 0.930 . S
C906 C905 1.362 . S
C906 C909 1.409 . S
C907 H899 0.930 . S
C907 C908 1.355 . S
C907 C909 1.415 . S
C908 C907 1.355 . S
C908 C910 1.419 . S
C909 C904 1.425 . S
C909 C906 1.409 . S
C909 C907 1.415 . S
C910 H900 0.930 . S
C910 C908 1.419 . S
C910 C911 1.362 . S
C911 H901 0.930 . S
C911 C904 1.409 . S
C911 C910 1.362 . S
H912 C918 0.930 . S
H913 C921 0.930 . S
H914 C922 0.930 . S
H915 C923 0.930 . S
H916 C926 0.930 . S
H917 C927 0.930 . S
C918 H912 0.930 . S
C918 C919 1.355 . S
C918 C920 1.415 . S
C919 C918 1.355 . S
C919 C921 1.419 . S
C920 C918 1.415 . S
C920 C925 1.425 . S
C920 C927 1.409 . S
C921 H913 0.930 . S
C921 C919 1.419 . S
C921 C922 1.362 . S
C922 H914 0.930 . S
C922 C921 1.362 . S
C922 C925 1.409 . S
C923 H915 0.930 . S
C923 C924 1.355 . S
C923 C925 1.415 . S
C924 C923 1.355 . S
C924 C926 1.419 . S
C925 C920 1.425 . S
C925 C922 1.409 . S
C925 C923 1.415 . S
C926 H916 0.930 . S
C926 C924 1.419 . S
C926 C927 1.362 . S
C927 H917 0.930 . S
C927 C920 1.409 . S
C927 C926 1.362 . S
H928 C934 0.930 . S
H929 C937 0.930 . S
H930 C938 0.930 . S
H931 C939 0.930 . S
H932 C942 0.930 . S
H933 C943 0.930 . S
C934 H928 0.930 . S
C934 C935 1.355 . S
C934 C936 1.415 . S
C935 C934 1.355 . S
C935 C937 1.419 . S
C936 C934 1.415 . S
C936 C941 1.425 . S
C936 C943 1.409 . S
C937 H929 0.930 . S
C937 C935 1.419 . S
C937 C938 1.362 . S
C938 H930 0.930 . S
C938 C937 1.362 . S
C938 C941 1.409 . S
C939 H931 0.930 . S
C939 C940 1.355 . S
C939 C941 1.415 . S
C940 C939 1.355 . S
C940 C942 1.419 . S
C941 C936 1.425 . S
C941 C938 1.409 . S
C941 C939 1.415 . S
C942 H932 0.930 . S
C942 C940 1.419 . S
C942 C943 1.362 . S
C943 H933 0.930 . S
C943 C936 1.409 . S
C943 C942 1.362 . S
H944 C950 0.930 . S
H945 C953 0.930 . S
H946 C954 0.930 . S
H947 C955 0.930 . S
H948 C958 0.930 . S
H949 C959 0.930 . S
C950 H944 0.930 . S
C950 C951 1.355 . S
C950 C952 1.415 . S
C951 C950 1.355 . S
C951 C953 1.419 . S
C952 C950 1.415 . S
C952 C957 1.425 . S
C952 C959 1.409 . S
C953 H945 0.930 . S
C953 C951 1.419 . S
C953 C954 1.362 . S
C954 H946 0.930 . S
C954 C953 1.362 . S
C954 C957 1.409 . S
C955 H947 0.930 . S
C955 C956 1.355 . S
C955 C957 1.415 . S
C956 C955 1.355 . S
C956 C958 1.419 . S
C957 C952 1.425 . S
C957 C954 1.409 . S
C957 C955 1.415 . S
C958 H948 0.930 . S
C958 C956 1.419 . S
C958 C959 1.362 . S
C959 H949 0.930 . S
C959 C952 1.409 . S
C959 C958 1.362 . S
H960 C966 0.930 . S
H961 C969 0.930 . S
H962 C970 0.930 . S
H963 C971 0.930 . S
H964 C974 0.930 . S
H965 C975 0.930 . S
C966 H960 0.930 . S
C966 C967 1.355 . S
C966 C968 1.415 . S
C967 C966 1.355 . S
C967 C969 1.419 . S
C968 C966 1.415 . S
C968 C973 1.425 . S
C968 C975 1.409 . S
C969 H961 0.930 . S
C969 C967 1.419 . S
C969 C970 1.362 . S
C970 H962 0.930 . S
C970 C969 1.362 . S
C970 C973 1.409 . S
C971 H963 0.930 . S
C971 C972 1.355 . S
C971 C973 1.415 . S
C972 C971 1.355 . S
C972 C974 1.419 . S
C973 C968 1.425 . S
C973 C970 1.409 . S
C973 C971 1.415 . S
C974 H964 0.930 . S
C974 C972 1.419 . S
C974 C975 1.362 . S
C975 H965 0.930 . S
C975 C968 1.409 . S
C975 C974 1.362 . S
H976 C982 0.930 . S
H977 C985 0.930 . S
H978 C986 0.930 . S
H979 C987 0.930 . S
H980 C990 0.930 . S
H981 C991 0.930 . S
C982 H976 0.930 . S
C982 C983 1.355 . S
C982 C984 1.415 . S
C983 C982 1.355 . S
C983 C985 1.419 . S
C984 C982 1.415 . S
C984 C989 1.425 . S
C984 C991 1.409 . S
C985 H977 0.930 . S
C985 C983 1.419 . S
C985 C986 1.362 . S
C986 H978 0.930 . S
C986 C985 1.362 . S
C986 C989 1.409 . S
C987 H979 0.930 . S
C987 C988 1.355 . S
C987 C989 1.415 . S
C988 C987 1.355 . S
C988 C990 1.419 . S
C989 C984 1.425 . S
C989 C986 1.409 . S
C989 C987 1.415 . S
C990 H980 0.930 . S
C990 C988 1.419 . S
C990 C991 1.362 . S
C991 H981 0.930 . S
C991 C984 1.409 . S
C991 C990 1.362 . S
H992 C998 0.930 . S
H993 C1001 0.930 . S
H994 C1002 0.930 . S
H995 C1003 0.930 . S
H996 C1006 0.930 . S
H997 C1007 0.930 . S
C998 H992 0.930 . S
C998 C999 1.355 . S
C998 C1000 1.415 . S
C999 C998 1.355 . S
C999 C1001 1.419 . S
C1000 C998 1.415 . S
C1000 C1005 1.425 . S
C1000 C1007 1.409 . S
C1001 H993 0.930 . S
C1001 C999 1.419 . S
C1001 C1002 1.362 . S
C1002 H994 0.930 . S
C1002 C1001 1.362 . S
C1002 C1005 1.409 . S
C1003 H995 0.930 . S
C1003 C1004 1.355 . S
C1003 C1005 1.415 . S
C1004 C1003 1.355 . S
C1004 C1006 1.419 . S
C1005 C1000 1.425 . S
C1005 C1002 1.409 . S
C1005 C1003 1.415 . S
C1006 H996 0.930 . S
C1006 C1004 1.419 . S
C1006 C1007 1.362 . S
C1007 H997 0.930 . S
C1007 C1000 1.409 . S
C1007 C1006 1.362 . S
H1008 C1014 0.930 . S
H1009 C1017 0.930 . S
H1010 C1018 0.930 . S
H1011 C1019 0.930 . S
H1012 C1022 0.930 . S
H1013 C1023 0.930 . S
C1014 H1008 0.930 . S
C1014 C1015 1.355 . S
C1014 C1016 1.415 . S
C1015 C1014 1.355 . S
C1015 C1017 1.419 . S
C1016 C1014 1.415 . S
C1016 C1021 1.425 . S
C1016 C1023 1.409 . S
C1017 H1009 0.930 . S
C1017 C1015 1.419 . S
C1017 C1018 1.362 . S
C1018 H1010 0.930 . S
C1018 C1017 1.362 . S
C1018 C1021 1.409 . S
C1019 H1011 0.930 . S
C1019 C1020 1.355 . S
C1019 C1021 1.415 . S
C1020 C1019 1.355 . S
C1020 C1022 1.419 . S
C1021 C1016 1.425 . S
C1021 C1018 1.409 . S
C1021 C1019 1.415 . S
C1022 H1012 0.930 . S
C1022 C1020 1.419 . S
C1022 C1023 1.362 . S
C1023 H1013 0.930 . S
C1023 C1016 1.409 . S
C1023 C1022 1.362 . S
H1024 C1030 0.930 . S
H1025 C1033 0.930 . S
H1026 C1034 0.930 . S
H1027 C1035 0.930 . S
H1028 C1038 0.930 . S
H1029 C1039 0.930 . S
C1030 H1024 0.930 . S
C1030 C1031 1.355 . S
C1030 C1032 1.415 . S
C1031 C1030 1.355 . S
C1031 C1033 1.419 . S
C1032 C1030 1.415 . S
C1032 C1037 1.425 . S
C1032 C1039 1.409 . S
C1033 H1025 0.930 . S
C1033 C1031 1.419 . S
C1033 C1034 1.362 . S
C1034 H1026 0.930 . S
C1034 C1033 1.362 . S
C1034 C1037 1.409 . S
C1035 H1027 0.930 . S
C1035 C1036 1.355 . S
C1035 C1037 1.415 . S
C1036 C1035 1.355 . S
C1036 C1038 1.419 . S
C1037 C1032 1.425 . S
C1037 C1034 1.409 . S
C1037 C1035 1.415 . S
C1038 H1028 0.930 . S
C1038 C1036 1.419 . S
C1038 C1039 1.362 . S
C1039 H1029 0.930 . S
C1039 C1032 1.409 . S
C1039 C1038 1.362 . S
H1040 C1046 0.930 . S
H1041 C1049 0.930 . S
H1042 C1050 0.930 . S
H1043 C1051 0.930 . S
H1044 C1054 0.930 . S
H1045 C1055 0.930 . S
C1046 H1040 0.930 . S
C1046 C1047 1.355 . S
C1046 C1048 1.415 . S
C1047 C1046 1.355 . S
C1047 C1049 1.419 . S
C1048 C1046 1.415 . S
C1048 C1053 1.425 . S
C1048 C1055 1.409 . S
C1049 H1041 0.930 . S
C1049 C1047 1.419 . S
C1049 C1050 1.362 . S
C1050 H1042 0.930 . S
C1050 C1049 1.362 . S
C1050 C1053 1.409 . S
C1051 H1043 0.930 . S
C1051 C1052 1.355 . S
C1051 C1053 1.415 . S
C1052 C1051 1.355 . S
C1052 C1054 1.419 . S
C1053 C1048 1.425 . S
C1053 C1050 1.409 . S
C1053 C1051 1.415 . S
C1054 H1044 0.930 . S
C1054 C1052 1.419 . S
C1054 C1055 1.362 . S
C1055 H1045 0.930 . S
C1055 C1048 1.409 . S
C1055 C1054 1.362 . S
H1056 C1062 0.930 . S
H1057 C1065 0.930 . S
H1058 C1066 0.930 . S
H1059 C1067 0.930 . S
H1060 C1070 0.930 . S
H1061 C1071 0.930 . S
C1062 H1056 0.930 . S
C1062 C1063 1.355 . S
C1062 C1064 1.415 . S
C1063 C1062 1.355 . S
C1063 C1065 1.419 . S
C1064 C1062 1.415 . S
C1064 C1069 1.425 . S
C1064 C1071 1.409 . S
C1065 H1057 0.930 . S
C1065 C1063 1.419 . S
C1065 C1066 1.362 . S
C1066 H1058 0.930 . S
C1066 C1065 1.362 . S
C1066 C1069 1.409 . S
C1067 H1059 0.930 . S
C1067 C1068 1.355 . S
C1067 C1069 1.415 . S
C1068 C1067 1.355 . S
C1068 C1070 1.419 . S
C1069 C1064 1.425 . S
C1069 C1066 1.409 . S
C1069 C1067 1.415 . S
C1070 H1060 0.930 . S
C1070 C1068 1.419 . S
C1070 C1071 1.362 . S
C1071 H1061 0.930 . S
C1071 C1064 1.409 . S
C1071 C1070 1.362 . S
H1072 C1078 0.930 . S
H1073 C1081 0.930 . S
H1074 C1082 0.930 . S
H1075 C1083 0.930 . S
H1076 C1086 0.930 . S
H1077 C1087 0.930 . S
C1078 H1072 0.930 . S
C1078 C1079 1.355 . S
C1078 C1080 1.415 . S
C1079 C1078 1.355 . S
C1079 C1081 1.419 . S
C1080 C1078 1.415 . S
C1080 C1085 1.425 . S
C1080 C1087 1.409 . S
C1081 H1073 0.930 . S
C1081 C1079 1.419 . S
C1081 C1082 1.362 . S
C1082 H1074 0.930 . S
C1082 C1081 1.362 . S
C1082 C1085 1.409 . S
C1083 H1075 0.930 . S
C1083 C1084 1.355 . S
C1083 C1085 1.415 . S
C1084 C1083 1.355 . S
C1084 C1086 1.419 . S
C1085 C1080 1.425 . S
C1085 C1082 1.409 . S
C1085 C1083 1.415 . S
C1086 H1076 0.930 . S
C1086 C1084 1.419 . S
C1086 C1087 1.362 . S
C1087 H1077 0.930 . S
C1087 C1080 1.409 . S
C1087 C1086 1.362 . S
H1088 C1094 0.930 . S
H1089 C1097 0.930 . S
H1090 C1098 0.930 . S
H1091 C1099 0.930 . S
H1092 C1102 0.930 . S
H1093 C1103 0.930 . S
C1094 H1088 0.930 . S
C1094 C1095 1.355 . S
C1094 C1096 1.415 . S
C1095 C1094 1.355 . S
C1095 C1097 1.419 . S
C1096 C1094 1.415 . S
C1096 C1101 1.425 . S
C1096 C1103 1.409 . S
C1097 H1089 0.930 . S
C1097 C1095 1.419 . S
C1097 C1098 1.362 . S
C1098 H1090 0.930 . S
C1098 C1097 1.362 . S
C1098 C1101 1.409 . S
C1099 H1091 0.930 . S
C1099 C1100 1.355 . S
C1099 C1101 1.415 . S
C1100 C1099 1.355 . S
C1100 C1102 1.419 . S
C1101 C1096 1.425 . S
C1101 C1098 1.409 . S
C1101 C1099 1.415 . S
C1102 H1092 0.930 . S
C1102 C1100 1.419 . S
C1102 C1103 1.362 . S
C1103 H1093 0.930 . S
C1103 C1096 1.409 . S
C1103 C1102 1.362 . S
C343 C99 1.427 . S
C348 C1 1.310 . S
C359 C15 0.995 . S
C364 C56 0.908 . S
C375 C83 1.295 . S
C380 C29 1.322 . S
C391 C55 1.122 . S
C396 C85 1.175 . S
C407 C124 1.347 . S
C412 C13 1.443 . S
C423 C27 1.195 . S
C428 C126 1.202 . S
C439 C152 1.383 . S
C444 C41 1.419 . S
C455 C154 0.982 . S
C460 C43 0.947 . S
C471 C68 0.953 . S
C476 C138 0.865 . S
C487 C71 1.239 . S
C492 C140 1.240 . S
C503 C166 0.955 . S
C508 C97 1.000 . S
C519 C112 1.380 . S
C524 C111 1.393 . S
C535 C294 1.450 . S
C540 C169 1.447 . S
C551 C194 1.182 . S
C556 C320 1.207 . S
C567 C197 1.263 . S
C572 C322 1.343 . S
C583 C334 1.218 . S
C588 C222 1.318 . S
C599 C236 1.313 . S
C604 C306 1.313 . S
C615 C279 1.134 . S
C620 C238 1.096 . S
C631 C181 1.243 . S
C636 C224 1.195 . S
C647 C182 0.916 . S
C652 C253 0.877 . S
C663 C209 1.419 . S
C668 C210 1.421 . S
C679 C250 1.076 . S
C684 C292 1.040 . S
C695 C265 0.983 . S
C700 C308 0.988 . S
C711 C280 1.051 . S
C716 C267 1.143 . S
C727 C57 2.486 . S
C732 C0 2.404 . S
C743 C82 1.462 . S
C748 C14 1.423 . S
C759 C84 2.602 . S
C764 C28 2.510 . S
C775 C98 2.119 . S
C780 C54 2.086 . S
C791 C125 2.345 . S
C796 C167 2.445 . S
C807 C127 2.066 . S
C812 C113 2.137 . S
C823 C153 2.063 . S
C828 C139 2.166 . S
C839 C141 1.382 . S
C844 C155 1.366 . S
C855 C264 2.458 . S
C860 C110 2.380 . S
C871 C168 2.061 . S
C876 C42 2.149 . S
C887 C12 2.092 . S
C892 C195 2.046 . S
C903 C26 2.606 . S
C908 C196 2.551 . S
C919 C70 2.069 . S
C924 C266 2.123 . S
C935 C69 1.277 . S
C940 C223 1.337 . S
C951 C96 1.482 . S
C956 C237 1.491 . S
C967 C225 2.070 . S
C972 C239 2.119 . S
C983 C180 1.369 . S
C988 C252 1.306 . S
C999 C211 2.135 . S
C1004 C183 2.212 . S
C1015 C278 2.297 . S
C1020 C208 2.343 . S
C1031 C293 2.111 . S
C1036 C335 2.054 . S
C1047 C281 2.288 . S
C1052 C295 2.354 . S
C1063 C321 2.586 . S
C1068 C307 2.521 . S
C1079 C323 1.489 . S
C1084 C309 1.479 . S
C1095 C40 2.394 . S
C1100 C251 2.330 . S
