# Generated by pormake.
# Topology upa, (4)-cn, num edge types: 1
# Building blocks:
#     Node 0, Type 0, BuildingBlock: NAHDIM_clean_sbu_0, # of connection points: 4
#     Node 1, Type 0, BuildingBlock: NAHDIM_clean_sbu_0, # of connection points: 4
#     Node 2, Type 0, BuildingBlock: NAHDIM_clean_sbu_0, # of connection points: 4
#     Node 3, Type 0, BuildingBlock: NAHDIM_clean_sbu_0, # of connection points: 4
#     Node 4, Type 0, BuildingBlock: NAHDIM_clean_sbu_0, # of connection points: 4
#     Node 5, Type 0, BuildingBlock: NAHDIM_clean_sbu_0, # of connection points: 4
#     Node 6, Type 0, BuildingBlock: NAHDIM_clean_sbu_0, # of connection points: 4
#     Node 7, Type 0, BuildingBlock: NAHDIM_clean_sbu_0, # of connection points: 4
#     Edge 8, Type (0, 0), BuildingBlock: FUNLAD_clean_linker_1, # of connection points: 2
#     Edge 9, Type (0, 0), BuildingBlock: FUNLAD_clean_linker_1, # of connection points: 2
#     Edge 10, Type (0, 0), BuildingBlock: FUNLAD_clean_linker_1, # of connection points: 2
#     Edge 11, Type (0, 0), BuildingBlock: FUNLAD_clean_linker_1, # of connection points: 2
#     Edge 12, Type (0, 0), BuildingBlock: FUNLAD_clean_linker_1, # of connection points: 2
#     Edge 13, Type (0, 0), BuildingBlock: FUNLAD_clean_linker_1, # of connection points: 2
#     Edge 14, Type (0, 0), BuildingBlock: FUNLAD_clean_linker_1, # of connection points: 2
#     Edge 15, Type (0, 0), BuildingBlock: FUNLAD_clean_linker_1, # of connection points: 2
#     Edge 16, Type (0, 0), BuildingBlock: FUNLAD_clean_linker_1, # of connection points: 2
#     Edge 17, Type (0, 0), BuildingBlock: FUNLAD_clean_linker_1, # of connection points: 2
#     Edge 18, Type (0, 0), BuildingBlock: FUNLAD_clean_linker_1, # of connection points: 2
#     Edge 19, Type (0, 0), BuildingBlock: FUNLAD_clean_linker_1, # of connection points: 2
#     Edge 20, Type (0, 0), BuildingBlock: FUNLAD_clean_linker_1, # of connection points: 2
#     Edge 21, Type (0, 0), BuildingBlock: FUNLAD_clean_linker_1, # of connection points: 2
#     Edge 22, Type (0, 0), BuildingBlock: FUNLAD_clean_linker_1, # of connection points: 2
#     Edge 23, Type (0, 0), BuildingBlock: FUNLAD_clean_linker_1, # of connection points: 2
# Relax obj value: 0.273
# Max RMSD: 0.206
# Mean RMSD: 0.206
data_MOF--net-upa--node1-NAHDIM_clean_sbu_0--edge1-FUNLAD_clean_linker_1
_symmetry_space_group_name_H-M    P1
_symmetry_Int_Tables_number       1
_symmetry_cell_setting            triclinic
loop_
_symmetry_equiv_pos_as_xyz
'x, y, z'
_cell_length_a     27.730827
_cell_length_b     27.717258
_cell_length_c     43.368095
_cell_angle_alpha  90.016732
_cell_angle_beta   89.9966
_cell_angle_gamma 90.009571
loop_
_atom_site_label
_atom_site_type_symbol
_atom_site_fract_x
_atom_site_fract_y
_atom_site_fract_z
_atom_type_partial_charge
C0 C 0.27313 0.19528 0.30382 0.0
O1 O 0.27233 0.16419 0.32669 0.0
O2 O 0.12656 0.26264 0.30821 0.0
Zn3 Zn 0.17546 0.21453 0.32331 0.0
O4 O 0.19126 0.22542 0.36839 0.0
C5 C 0.09989 0.14749 0.3268 0.0
O6 O 0.08231 0.18355 0.34285 0.0
O7 O 0.23582 0.22016 0.29793 0.0
C8 C 0.18599 0.19261 0.38856 0.0
O9 O 0.17072 0.14971 0.3802 0.0
C10 C 0.10122 0.29007 0.32524 0.0
O11 O 0.11066 0.29302 0.35483 0.0
O12 O 0.14271 0.15024 0.31638 0.0
C13 C 0.29213 0.75834 0.7732 0.0
O14 O 0.3294 0.73222 0.76476 0.0
O15 O 0.22402 0.62632 0.79368 0.0
Zn16 Zn 0.26714 0.67636 0.81315 0.0
O17 O 0.25241 0.68468 0.85849 0.0
C18 C 0.33719 0.60671 0.82329 0.0
O19 O 0.30211 0.59267 0.84151 0.0
O20 O 0.26195 0.74139 0.79238 0.0
C21 C 0.28592 0.69816 0.87649 0.0
O22 O 0.32894 0.7072 0.86516 0.0
C23 C 0.19728 0.59831 0.80939 0.0
O24 O 0.19032 0.60713 0.83878 0.0
O25 O 0.33289 0.64612 0.80851 0.0
C26 C 0.76018 0.75711 0.27467 0.0
O27 O 0.79783 0.73312 0.26462 0.0
O28 O 0.87699 0.74322 0.30745 0.0
Zn29 Zn 0.82777 0.79278 0.32028 0.0
O30 O 0.81834 0.79126 0.36672 0.0
C31 C 0.87979 0.85961 0.28214 0.0
O32 O 0.87676 0.82448 0.26193 0.0
O33 O 0.76431 0.78432 0.29812 0.0
C34 C 0.83606 0.82447 0.38354 0.0
O35 O 0.86012 0.85991 0.37069 0.0
C36 C 0.91887 0.7504 0.31838 0.0
O37 O 0.92471 0.78397 0.33946 0.0
O38 O 0.8583 0.85568 0.30792 0.0
C39 C 0.72278 0.26383 0.77313 0.0
O40 O 0.74282 0.30423 0.76393 0.0
O41 O 0.7312 0.37603 0.81331 0.0
Zn42 Zn 0.68315 0.32354 0.82199 0.0
O43 O 0.68228 0.30778 0.86758 0.0
C44 C 0.61614 0.37279 0.78273 0.0
O45 O 0.65118 0.36822 0.76261 0.0
O46 O 0.69642 0.26365 0.79711 0.0
C47 C 0.64598 0.3183 0.8842 0.0
O48 O 0.60856 0.33961 0.87168 0.0
C49 C 0.72044 0.41643 0.82529 0.0
O50 O 0.68427 0.41864 0.84484 0.0
O51 O 0.62009 0.35317 0.80912 0.0
C52 C 0.79157 0.31447 0.19317 0.0
O53 O 0.78884 0.32976 0.16459 0.0
O54 O 0.64613 0.24512 0.20122 0.0
Zn55 Zn 0.69248 0.29288 0.18186 0.0
O56 O 0.70699 0.27827 0.13703 0.0
C57 C 0.65108 0.38506 0.16233 0.0
O58 O 0.66872 0.37468 0.13505 0.0
O59 O 0.75451 0.29627 0.20592 0.0
C60 C 0.67722 0.25988 0.11814 0.0
O61 O 0.63454 0.24611 0.12783 0.0
C62 C 0.60145 0.25343 0.19723 0.0
O63 O 0.58834 0.28919 0.17922 0.0
O64 O 0.65932 0.35724 0.185 0.0
C65 C 0.23859 0.26402 0.70627 0.0
O66 O 0.27483 0.25085 0.68871 0.0
O67 O 0.2538 0.12583 0.7015 0.0
Zn68 Zn 0.2031 0.17238 0.68655 0.0
O69 O 0.20962 0.1855 0.64101 0.0
C70 C 0.13994 0.0961 0.67754 0.0
O71 O 0.1758 0.08533 0.65903 0.0
O72 O 0.20316 0.23544 0.70986 0.0
C73 C 0.17201 0.19887 0.6266 0.0
O74 O 0.13164 0.20517 0.64188 0.0
C75 C 0.28337 0.10455 0.68368 0.0
O76 O 0.28745 0.1188 0.65495 0.0
O77 O 0.14131 0.13534 0.69275 0.0
C78 C 0.26244 0.72652 0.22565 0.0
O79 O 0.30254 0.74347 0.23751 0.0
O80 O 0.37523 0.74771 0.19001 0.0
Zn81 Zn 0.32582 0.69896 0.17588 0.0
O82 O 0.31471 0.70426 0.1297 0.0
C83 C 0.37883 0.62813 0.21046 0.0
O84 O 0.37678 0.66118 0.23209 0.0
O85 O 0.26333 0.70616 0.19937 0.0
C86 C 0.33574 0.67493 0.11154 0.0
O87 O 0.3643 0.64164 0.12285 0.0
C88 C 0.41778 0.74067 0.18016 0.0
O89 O 0.42504 0.70731 0.15914 0.0
O90 O 0.35634 0.63471 0.18526 0.0
C91 C 0.74741 0.76291 0.73644 0.0
O92 O 0.73106 0.80415 0.747 0.0
O93 O 0.73435 0.87518 0.69761 0.0
Zn94 Zn 0.7777 0.82095 0.68428 0.0
O95 O 0.76639 0.80638 0.63914 0.0
C96 C 0.85526 0.86547 0.71682 0.0
O97 O 0.82493 0.86107 0.73987 0.0
O98 O 0.76809 0.76143 0.71028 0.0
C99 C 0.80126 0.80529 0.62015 0.0
O100 O 0.8454 0.81259 0.63011 0.0
C101 C 0.74434 0.91556 0.68534 0.0
O102 O 0.77699 0.91725 0.66339 0.0
O103 O 0.84443 0.84772 0.69068 0.0
H104 H 0.03263 0.10642 0.33043 0.0
C105 C 0.06865 0.10582 0.3205 0.0
H106 H 0.11749 0.06628 0.29266 0.0
H107 H 0.98775 0.88222 0.33188 0.0
H108 H 0.06089 0.86595 0.36073 0.0
H109 H 0.12826 0.92418 0.36078 0.0
H110 H 0.12285 0.99903 0.33175 0.0
C111 C 0.08158 0.06857 0.30256 0.0
C112 C 0.04643 0.02906 0.297 0.0
C113 C 0.05042 0.98547 0.31374 0.0
C114 C 0.01155 0.95208 0.31376 0.0
C115 C 0.01609 0.90905 0.33115 0.0
C116 C 0.05792 0.89921 0.34779 0.0
C117 C 0.09585 0.93197 0.34779 0.0
C118 C 0.09227 0.97478 0.33112 0.0
H119 H 0.93311 0.90065 0.25486 0.0
C120 C 0.91439 0.89911 0.27686 0.0
H121 H 0.91052 0.92631 0.32224 0.0
H122 H 0.03237 0.10431 0.25741 0.0
H123 H 0.9608 0.11937 0.22647 0.0
H124 H 0.89163 0.06341 0.22812 0.0
H125 H 0.89395 0.99159 0.26009 0.0
C126 C 0.92702 0.92945 0.2996 0.0
C127 C 0.96914 0.96218 0.29665 0.0
C128 C 0.96665 0.00418 0.27808 0.0
C129 C 0.00577 0.03731 0.27792 0.0
C130 C 0.00307 0.0786 0.25881 0.0
C131 C 0.96236 0.08751 0.24088 0.0
C132 C 0.92344 0.05596 0.24178 0.0
C133 C 0.9253 0.01478 0.26017 0.0
H134 H 0.37971 0.54177 0.83277 0.0
C135 C 0.37831 0.5741 0.81858 0.0
H136 H 0.41136 0.61224 0.78189 0.0
H137 H 0.60418 0.49323 0.81563 0.0
H138 H 0.62808 0.57431 0.83044 0.0
H139 H 0.57018 0.64175 0.82776 0.0
H140 H 0.48799 0.62856 0.81009 0.0
C141 C 0.41147 0.5803 0.7964 0.0
C142 C 0.44899 0.54274 0.79165 0.0
C143 C 0.49683 0.55127 0.80159 0.0
C144 C 0.53017 0.51241 0.80305 0.0
C145 C 0.57749 0.52155 0.81387 0.0
C146 C 0.59163 0.56787 0.8225 0.0
C147 C 0.55902 0.60586 0.82099 0.0
C148 C 0.51201 0.59781 0.81086 0.0
H149 H 0.57308 0.42138 0.75321 0.0
C150 C 0.57656 0.40679 0.77636 0.0
H151 H 0.55391 0.41211 0.82275 0.0
H152 H 0.36342 0.51718 0.76485 0.0
H153 H 0.34114 0.43735 0.74649 0.0
H154 H 0.39793 0.36917 0.75067 0.0
H155 H 0.47796 0.38066 0.77232 0.0
C156 C 0.54879 0.42419 0.79913 0.0
C157 C 0.51568 0.46542 0.79401 0.0
C158 C 0.46904 0.45775 0.78166 0.0
C159 C 0.43578 0.49667 0.78015 0.0
C160 C 0.38964 0.48848 0.76719 0.0
C161 C 0.37651 0.44296 0.75645 0.0
C162 C 0.40854 0.40458 0.75873 0.0
C163 C 0.45432 0.41165 0.77121 0.0
H164 H 0.60821 0.44645 0.14521 0.0
C165 C 0.61604 0.42468 0.16545 0.0
H166 H 0.59656 0.40832 0.21138 0.0
H167 H 0.49352 0.62139 0.17814 0.0
H168 H 0.57491 0.65292 0.1737 0.0
H169 H 0.6453 0.59943 0.17967 0.0
H170 H 0.6348 0.51375 0.18897 0.0
C171 C 0.59056 0.4314 0.19149 0.0
C172 C 0.54887 0.46507 0.19237 0.0
C173 C 0.55584 0.51539 0.18848 0.0
C174 C 0.51532 0.54663 0.18672 0.0
C175 C 0.52309 0.59627 0.18075 0.0
C176 C 0.56959 0.61483 0.17803 0.0
C177 C 0.60924 0.58469 0.1813 0.0
C178 C 0.60268 0.53552 0.18644 0.0
H179 H 0.43417 0.58552 0.23477 0.0
C180 C 0.41405 0.58864 0.21334 0.0
H181 H 0.40692 0.56362 0.16743 0.0
H182 H 0.52263 0.37028 0.20015 0.0
H183 H 0.44132 0.33958 0.20637 0.0
H184 H 0.37157 0.3947 0.20648 0.0
H185 H 0.38257 0.48096 0.1995 0.0
C186 C 0.42596 0.56068 0.18924 0.0
C187 C 0.46815 0.52787 0.19073 0.0
C188 C 0.46122 0.47787 0.19557 0.0
C189 C 0.5016 0.44629 0.19618 0.0
C190 C 0.49344 0.39616 0.20001 0.0
C191 C 0.44692 0.37798 0.2036 0.0
C192 C 0.4076 0.40901 0.20357 0.0
C193 C 0.41443 0.4584 0.19956 0.0
H194 H 0.10226 0.02841 0.66728 0.0
C195 C 0.10038 0.06123 0.68099 0.0
H196 H 0.0599 0.10012 0.7141 0.0
H197 H 0.87453 0.97929 0.66983 0.0
H198 H 0.85522 0.05854 0.64971 0.0
H199 H 0.91351 0.12553 0.65372 0.0
H200 H 0.99161 0.11351 0.67789 0.0
C201 C 0.06345 0.06731 0.70057 0.0
C202 C 0.02558 0.02952 0.7028 0.0
C203 C 0.98005 0.03732 0.68894 0.0
C204 C 0.94648 0.99873 0.68669 0.0
C205 C 0.90153 0.00725 0.67214 0.0
C206 C 0.88993 0.05262 0.66049 0.0
C207 C 0.92272 0.09034 0.66279 0.0
C208 C 0.9674 0.08294 0.67669 0.0
H209 H 0.90516 0.91183 0.74307 0.0
C210 C 0.8975 0.8972 0.72033 0.0
H211 H 0.91382 0.90048 0.67283 0.0
H212 H 0.1067 0.00507 0.73512 0.0
H213 H 0.1257 0.92625 0.75632 0.0
H214 H 0.06889 0.85829 0.75072 0.0
H215 H 0.99238 0.86895 0.72441 0.0
C216 C 0.92297 0.91264 0.69593 0.0
C217 C 0.95819 0.95276 0.69896 0.0
C218 C 0.00302 0.94551 0.71397 0.0
C219 C 0.03649 0.98419 0.71626 0.0
C220 C 0.08053 0.9765 0.73204 0.0
C221 C 0.09176 0.93154 0.74445 0.0
C222 C 0.05973 0.89331 0.74135 0.0
C223 C 0.01584 0.89998 0.72629 0.0
H224 H 0.21749 0.23516 0.42666 0.0
C225 C 0.19666 0.20306 0.42116 0.0
H226 H 0.15939 0.14254 0.43839 0.0
H227 H 0.25332 0.11776 0.56726 0.0
H228 H 0.28028 0.04579 0.54078 0.0
H229 H 0.26841 0.0365 0.48473 0.0
H230 H 0.22888 0.09892 0.45493 0.0
C231 C 0.17994 0.1748 0.44394 0.0
C232 C 0.19144 0.18369 0.47703 0.0
C233 C 0.21612 0.14754 0.49399 0.0
C234 C 0.22411 0.15345 0.52616 0.0
C235 C 0.24703 0.11575 0.54269 0.0
C236 C 0.26267 0.07409 0.52778 0.0
C237 C 0.25592 0.06883 0.49625 0.0
C238 C 0.23298 0.10494 0.47944 0.0
H239 H 0.13667 0.20642 0.58153 0.0
C240 C 0.17152 0.20261 0.59275 0.0
H241 H 0.24653 0.19455 0.58648 0.0
H242 H 0.13832 0.25845 0.45265 0.0
H243 H 0.11754 0.33318 0.47824 0.0
H244 H 0.14089 0.34756 0.53236 0.0
H245 H 0.18384 0.28634 0.56143 0.0
C246 C 0.21163 0.19933 0.5755 0.0
C247 C 0.20839 0.19604 0.54124 0.0
C248 C 0.1866 0.23358 0.52389 0.0
C249 C 0.1763 0.22666 0.49206 0.0
C250 C 0.14992 0.26279 0.47626 0.0
C251 C 0.13727 0.3058 0.49079 0.0
C252 C 0.15017 0.31379 0.5213 0.0
C253 C 0.17448 0.27821 0.53778 0.0
H254 H 0.23998 0.69782 0.91814 0.0
C255 C 0.27685 0.70139 0.90993 0.0
H256 H 0.3499 0.71051 0.92219 0.0
H257 H 0.32884 0.79569 0.05433 0.0
H258 H 0.35966 0.86469 0.02617 0.0
H259 H 0.3646 0.86346 0.96938 0.0
H260 H 0.3392 0.79305 0.94042 0.0
C261 C 0.31306 0.70619 0.9303 0.0
C262 C 0.30471 0.70826 0.96422 0.0
C263 C 0.31852 0.75021 0.98078 0.0
C264 C 0.31488 0.75127 0.01349 0.0
C265 C 0.33036 0.79308 0.02946 0.0
C266 C 0.34813 0.83298 0.01358 0.0
C267 C 0.35096 0.83227 0.98162 0.0
C268 C 0.33638 0.79152 0.96528 0.0
H269 H 0.35008 0.65241 0.06389 0.0
C270 C 0.3294 0.67758 0.07787 0.0
H271 H 0.2798 0.73549 0.0773 0.0
H272 H 0.27845 0.61998 0.94033 0.0
H273 H 0.24233 0.55368 0.96826 0.0
H274 H 0.22816 0.55925 0.02431 0.0
H275 H 0.25142 0.63094 0.05281 0.0
C276 C 0.2998 0.70908 0.06391 0.0
C277 C 0.29698 0.71057 0.02959 0.0
C278 C 0.28021 0.66983 0.01292 0.0
C279 C 0.28559 0.66792 0.98032 0.0
C280 C 0.27274 0.6248 0.96477 0.0
C281 C 0.25234 0.58613 0.9806 0.0
C282 C 0.24457 0.58916 0.01217 0.0
C283 C 0.25838 0.63037 0.02827 0.0
H284 H 0.75466 0.79171 0.57969 0.0
C285 C 0.7916 0.79815 0.58701 0.0
H286 H 0.86398 0.80671 0.5729 0.0
H287 H 0.85124 0.70898 0.44327 0.0
H288 H 0.89453 0.64766 0.47197 0.0
H289 H 0.9022 0.65295 0.52855 0.0
H290 H 0.8669 0.71981 0.55675 0.0
C291 C 0.82677 0.80144 0.5658 0.0
C292 C 0.81714 0.79592 0.53221 0.0
C293 C 0.83713 0.75611 0.51612 0.0
C294 C 0.83212 0.7527 0.48355 0.0
C295 C 0.85355 0.71318 0.46802 0.0
C296 C 0.87852 0.6777 0.48422 0.0
C297 C 0.88288 0.6807 0.51606 0.0
C298 C 0.86254 0.71935 0.53195 0.0
H299 H 0.84856 0.85258 0.43022 0.0
C300 C 0.83132 0.82363 0.41736 0.0
H301 H 0.79143 0.75882 0.4205 0.0
H302 H 0.77585 0.87846 0.55547 0.0
H303 H 0.72832 0.93675 0.52714 0.0
H304 H 0.71409 0.92699 0.47134 0.0
H305 H 0.74835 0.85924 0.44345 0.0
C306 C 0.80762 0.78892 0.43277 0.0
C307 C 0.80696 0.78902 0.46714 0.0
C308 C 0.7844 0.82725 0.48344 0.0
C309 C 0.79054 0.83146 0.51589 0.0
C310 C 0.77067 0.87211 0.53111 0.0
C311 C 0.74352 0.90613 0.51507 0.0
C312 C 0.73566 0.90074 0.48364 0.0
C313 C 0.7558 0.86188 0.46788 0.0
H314 H 0.61396 0.31958 0.93059 0.0
C315 C 0.64543 0.30814 0.91753 0.0
H316 H 0.7131 0.27303 0.91957 0.0
H317 H 0.6593 0.34529 0.06307 0.0
H318 H 0.67302 0.42592 0.04357 0.0
H319 H 0.69199 0.43952 0.98868 0.0
H320 H 0.6963 0.37243 0.95288 0.0
C321 C 0.68196 0.2862 0.93225 0.0
C322 C 0.67926 0.27729 0.96606 0.0
C323 C 0.67939 0.31664 0.98698 0.0
C324 C 0.67093 0.30851 0.01889 0.0
C325 C 0.66778 0.34891 0.03885 0.0
C326 C 0.67523 0.39556 0.02792 0.0
C327 C 0.68571 0.40324 0.99701 0.0
C328 C 0.68776 0.36441 0.97667 0.0
H329 H 0.72423 0.27324 0.07802 0.0
C330 C 0.68866 0.2608 0.08497 0.0
H331 H 0.61953 0.23914 0.06976 0.0
H332 H 0.67991 0.19379 0.93238 0.0
H333 H 0.67029 0.11247 0.9522 0.0
H334 H 0.65867 0.09804 0.00785 0.0
H335 H 0.65635 0.16488 0.04402 0.0
C336 C 0.65516 0.25197 0.06333 0.0
C337 C 0.66496 0.26071 0.03006 0.0
C338 C 0.66679 0.22126 0.0093 0.0
C339 C 0.67396 0.22956 0.97725 0.0
C340 C 0.67487 0.18952 0.95696 0.0
C341 C 0.66939 0.14266 0.96804 0.0
C342 C 0.66282 0.13453 0.99937 0.0
C343 C 0.6615 0.17322 0.01987 0.0
H344 H 0.57671 0.20058 0.23217 0.0
C345 C 0.5649 0.22728 0.21545 0.0
H346 H 0.50631 0.26727 0.19776 0.0
H347 H 0.37368 0.1011 0.26347 0.0
H348 H 0.40632 0.04584 0.22533 0.0
H349 H 0.47355 0.07046 0.19155 0.0
H350 H 0.50873 0.15042 0.19575 0.0
C351 C 0.51802 0.23918 0.21355 0.0
C352 C 0.48178 0.22147 0.23605 0.0
C353 C 0.46203 0.1745 0.23342 0.0
C354 C 0.42302 0.16044 0.25276 0.0
C355 C 0.40336 0.11359 0.24938 0.0
C356 C 0.42173 0.08156 0.22757 0.0
C357 C 0.4596 0.09541 0.20856 0.0
C358 C 0.47954 0.14137 0.21125 0.0
H359 H 0.31639 0.23153 0.26814 0.0
C360 C 0.31749 0.20403 0.28602 0.0
H361 H 0.36099 0.15266 0.30903 0.0
H362 H 0.51504 0.31222 0.24913 0.0
H363 H 0.48385 0.36674 0.28804 0.0
H364 H 0.41677 0.34208 0.32195 0.0
H365 H 0.38031 0.26292 0.31693 0.0
C366 C 0.35917 0.18108 0.29182 0.0
C367 C 0.40358 0.19362 0.27431 0.0
C368 C 0.42525 0.2396 0.27813 0.0
C369 C 0.46421 0.2536 0.25886 0.0
C370 C 0.48501 0.29988 0.26297 0.0
C371 C 0.46763 0.33146 0.28533 0.0
C372 C 0.42983 0.3176 0.30438 0.0
C373 C 0.40896 0.27217 0.30106 0.0
H374 H 0.25631 0.8292 0.77166 0.0
C375 C 0.28586 0.80823 0.76205 0.0
H376 H 0.3458 0.80867 0.73205 0.0
H377 H 0.20875 0.00056 0.6948 0.0
H378 H 0.14792 0.94245 0.67959 0.0
H379 H 0.16075 0.85532 0.68763 0.0
H380 H 0.23466 0.82577 0.71075 0.0
C381 C 0.31538 0.82875 0.74125 0.0
C382 C 0.30979 0.88053 0.73248 0.0
C383 C 0.26677 0.89706 0.71819 0.0
C384 C 0.25976 0.94722 0.71298 0.0
C385 C 0.21611 0.96285 0.69919 0.0
C386 C 0.18089 0.92988 0.69026 0.0
C387 C 0.1881 0.88083 0.69482 0.0
C388 C 0.23052 0.86439 0.70845 0.0
H389 H 0.3289 0.03997 0.67698 0.0
C390 C 0.3041 0.0576 0.69279 0.0
H391 H 0.25982 0.04919 0.73204 0.0
H392 H 0.39827 0.86087 0.7578 0.0
H393 H 0.46102 0.91876 0.76983 0.0
H394 H 0.4492 0.00556 0.75981 0.0
H395 H 0.37436 0.035 0.7377 0.0
C396 C 0.28708 0.03313 0.71724 0.0
C397 C 0.29634 0.98065 0.7211 0.0
C398 C 0.34041 0.96398 0.73366 0.0
C399 C 0.34718 0.91385 0.73938 0.0
C400 C 0.39121 0.89839 0.75267 0.0
C401 C 0.42755 0.93128 0.75977 0.0
C402 C 0.4209 0.98016 0.75414 0.0
C403 C 0.37783 0.99656 0.74137 0.0
H404 H 0.7113 0.7258 0.23993 0.0
C405 C 0.71357 0.75175 0.25868 0.0
H406 H 0.67637 0.80512 0.2842 0.0
H407 H 0.52486 0.8337 0.17502 0.0
H408 H 0.57114 0.90786 0.17085 0.0
H409 H 0.64378 0.92068 0.20269 0.0
H410 H 0.67077 0.85939 0.23877 0.0
C411 C 0.67444 0.77773 0.26631 0.0
C412 C 0.62834 0.77172 0.24921 0.0
C413 C 0.61252 0.80839 0.22878 0.0
C414 C 0.57053 0.80114 0.2105 0.0
C415 C 0.55634 0.83759 0.18954 0.0
C416 C 0.58258 0.88027 0.18693 0.0
C417 C 0.62348 0.88749 0.20486 0.0
C418 C 0.63854 0.85205 0.22551 0.0
H419 H 0.45199 0.78737 0.21534 0.0
C420 C 0.45904 0.7623 0.19659 0.0
H421 H 0.51117 0.71975 0.17383 0.0
H422 H 0.64539 0.69666 0.28891 0.0
H423 H 0.59764 0.62374 0.29404 0.0
H424 H 0.52402 0.61195 0.26294 0.0
H425 H 0.49783 0.67305 0.22661 0.0
C426 C 0.50416 0.74662 0.1915 0.0
C427 C 0.5442 0.75758 0.21309 0.0
C428 C 0.55837 0.72216 0.23484 0.0
C429 C 0.60065 0.72906 0.25281 0.0
C430 C 0.61404 0.69294 0.27427 0.0
C431 C 0.58675 0.65104 0.27761 0.0
C432 C 0.5453 0.64441 0.26014 0.0
C433 C 0.53088 0.67961 0.23918 0.0
H434 H 0.75472 0.22075 0.73551 0.0
C435 C 0.73129 0.21909 0.75558 0.0
H436 H 0.6865 0.17486 0.78309 0.0
H437 H 0.65427 0.02031 0.67749 0.0
H438 H 0.57608 0.05955 0.67835 0.0
H439 H 0.5625 0.13232 0.70995 0.0
H440 H 0.62711 0.16647 0.74073 0.0
C441 C 0.71123 0.17684 0.7637 0.0
C442 C 0.71948 0.13229 0.74534 0.0
C443 C 0.68103 0.11226 0.72797 0.0
C444 C 0.68867 0.07 0.71002 0.0
C445 C 0.65016 0.05176 0.69202 0.0
C446 C 0.60515 0.07407 0.69219 0.0
C447 C 0.59752 0.11506 0.70996 0.0
C448 C 0.6349 0.13421 0.7276 0.0
H449 H 0.70111 0.9577 0.7186 0.0
C450 C 0.72595 0.9604 0.69928 0.0
H451 H 0.77033 0.00644 0.67282 0.0
H452 H 0.80007 0.1592 0.77784 0.0
H453 H 0.87788 0.11939 0.77732 0.0
H454 H 0.8907 0.04544 0.7467 0.0
H455 H 0.82565 0.01092 0.71662 0.0
C456 C 0.74352 0.00369 0.69103 0.0
C457 C 0.73449 0.0474 0.70998 0.0
C458 C 0.7727 0.06691 0.7278 0.0
C459 C 0.76527 0.10946 0.74546 0.0
C460 C 0.8039 0.12759 0.76344 0.0
C461 C 0.84873 0.10487 0.76354 0.0
C462 C 0.85596 0.06326 0.74633 0.0
C463 C 0.81841 0.04408 0.72889 0.0
H464 H 0.03225 0.32972 0.32898 0.0
C465 C 0.0551 0.30916 0.31342 0.0
H466 H 0.05945 0.27244 0.27084 0.0
H467 H 0.84153 0.22153 0.25994 0.0
H468 H 0.87163 0.14741 0.28247 0.0
H469 H 0.95401 0.14298 0.30366 0.0
H470 H 0.00746 0.2121 0.30137 0.0
C471 C 0.03792 0.29536 0.28581 0.0
C472 C 0.9863 0.30113 0.27756 0.0
C473 C 0.95545 0.26041 0.27914 0.0
C474 C 0.90752 0.26341 0.26772 0.0
C475 C 0.87799 0.22169 0.26878 0.0
C476 C 0.89481 0.17881 0.28163 0.0
C477 C 0.94127 0.17624 0.29345 0.0
C478 C 0.97156 0.21624 0.29199 0.0
H479 H 0.86995 0.32621 0.19615 0.0
C480 C 0.83804 0.31713 0.20953 0.0
H481 H 0.81068 0.29888 0.25342 0.0
H482 H 0.03522 0.38653 0.27331 0.0
H483 H 0.00291 0.46302 0.25541 0.0
H484 H 0.91826 0.46957 0.23838 0.0
H485 H 0.86562 0.39956 0.23869 0.0
C486 C 0.84222 0.30858 0.2399 0.0
C487 C 0.89044 0.30734 0.25501 0.0
C488 C 0.92014 0.34909 0.25574 0.0
C489 C 0.96846 0.34575 0.26656 0.0
C490 C 0.99801 0.38737 0.26584 0.0
C491 C 0.97992 0.43145 0.25562 0.0
C492 C 0.93229 0.43511 0.24596 0.0
C493 C 0.90257 0.39456 0.24601 0.0
H494 H 0.26993 0.33547 0.71611 0.0
C495 C 0.23858 0.31272 0.72004 0.0
H496 H 0.16841 0.30895 0.73883 0.0
H497 H 0.27041 0.50033 0.80725 0.0
H498 H 0.32324 0.4426 0.83213 0.0
H499 H 0.31952 0.35615 0.81877 0.0
H500 H 0.26316 0.32702 0.78025 0.0
C501 C 0.20082 0.33049 0.73581 0.0
C502 C 0.20012 0.38168 0.74636 0.0
C503 C 0.23237 0.39784 0.76959 0.0
C504 C 0.23355 0.44746 0.77794 0.0
C505 C 0.26718 0.4629 0.80049 0.0
C506 C 0.29777 0.43014 0.81497 0.0
C507 C 0.2958 0.3815 0.80736 0.0
C508 C 0.26352 0.36532 0.78501 0.0
H509 H 0.16162 0.52714 0.81121 0.0
C510 C 0.18383 0.55057 0.79699 0.0
H511 H 0.22832 0.55497 0.75742 0.0
H512 H 0.1327 0.36261 0.70176 0.0
H513 H 0.07811 0.42017 0.67821 0.0
H514 H 0.07919 0.50587 0.69359 0.0
H515 H 0.13506 0.53458 0.73265 0.0
C516 C 0.20459 0.53273 0.77139 0.0
C517 C 0.20157 0.48058 0.76367 0.0
C518 C 0.16842 0.46427 0.74116 0.0
C519 C 0.16762 0.41476 0.73249 0.0
C520 C 0.13463 0.39968 0.70949 0.0
C521 C 0.10312 0.43237 0.69572 0.0
C522 C 0.10374 0.48064 0.70436 0.0
C523 C 0.13598 0.49663 0.72678 0.0
H524 H 0.21797 0.75239 0.26436 0.0
C525 C 0.21695 0.73228 0.24284 0.0
H526 H 0.17328 0.69235 0.21204 0.0
H527 H 0.01841 0.65159 0.3176 0.0
H528 H 0.05429 0.57224 0.3119 0.0
H529 H 0.12489 0.55989 0.27819 0.0
H530 H 0.16023 0.62689 0.25009 0.0
C531 C 0.17486 0.71399 0.2329 0.0
C532 C 0.12987 0.72082 0.25109 0.0
C533 C 0.10899 0.68106 0.26676 0.0
C534 C 0.06791 0.68805 0.28592 0.0
C535 C 0.04898 0.64812 0.30228 0.0
C536 C 0.06937 0.60242 0.29932 0.0
C537 C 0.10915 0.59547 0.28036 0.0
C538 C 0.12902 0.63422 0.26432 0.0
H539 H 0.95525 0.7059 0.28305 0.0
C540 C 0.96117 0.72922 0.30285 0.0
H541 H 0.01198 0.76874 0.32881 0.0
H542 H 0.15742 0.80357 0.22125 0.0
H543 H 0.12003 0.88234 0.22571 0.0
H544 H 0.04835 0.89431 0.2585 0.0
H545 H 0.01379 0.8276 0.28707 0.0
C546 C 0.00611 0.74352 0.30997 0.0
C547 C 0.04736 0.73464 0.28886 0.0
C548 C 0.06708 0.77402 0.27219 0.0
C549 C 0.10835 0.76712 0.25328 0.0
C550 C 0.12676 0.80695 0.23651 0.0
C551 C 0.10542 0.85233 0.23867 0.0
C552 C 0.06509 0.85909 0.25714 0.0
C553 C 0.04583 0.8205 0.27361 0.0
H554 H 0.76713 0.45791 0.79371 0.0
C555 C 0.74079 0.461 0.81217 0.0
H556 H 0.69545 0.50819 0.83731 0.0
H557 H 0.81893 0.69019 0.79018 0.0
H558 H 0.86009 0.6776 0.83888 0.0
H559 H 0.84329 0.60554 0.8705 0.0
H560 H 0.78543 0.54534 0.85342 0.0
C561 C 0.72234 0.50441 0.81926 0.0
C562 C 0.73297 0.54747 0.80014 0.0
C563 C 0.76619 0.58256 0.81065 0.0
C564 C 0.7752 0.6245 0.79267 0.0
C565 C 0.80979 0.65825 0.80325 0.0
C566 C 0.83388 0.65133 0.8311 0.0
C567 C 0.82446 0.61073 0.84889 0.0
C568 C 0.79115 0.57653 0.83886 0.0
H569 H 0.72328 0.72191 0.77721 0.0
C570 C 0.74169 0.71891 0.75516 0.0
H571 H 0.77544 0.67184 0.72345 0.0
H572 H 0.66577 0.48758 0.77379 0.0
H573 H 0.62284 0.50112 0.72598 0.0
H574 H 0.6379 0.57421 0.69495 0.0
H575 H 0.69583 0.6343 0.71176 0.0
C576 C 0.75829 0.6758 0.74584 0.0
C577 C 0.75008 0.6316 0.76452 0.0
C578 C 0.71675 0.59644 0.75404 0.0
C579 C 0.70811 0.55434 0.7719 0.0
C580 C 0.67394 0.5202 0.76116 0.0
C581 C 0.64896 0.52752 0.73371 0.0
C582 C 0.65743 0.56866 0.71626 0.0
C583 C 0.69087 0.60283 0.72617 0.0
loop_
_geom_bond_atom_site_label_1
_geom_bond_atom_site_label_2
_geom_bond_distance
_geom_bond_site_symmetry_2
_ccdc_geom_bond_type
C0 O1 1.160 . S
C0 O7 1.185 . S
O1 C0 1.160 . S
O2 Zn3 1.899 . S
O2 C10 1.284 . S
Zn3 O2 1.899 . S
Zn3 O4 2.032 . S
Zn3 O7 2.086 . S
Zn3 O12 1.977 . S
O4 Zn3 2.032 . S
O4 C8 1.278 . S
C5 O6 1.203 . S
C5 O12 1.267 . S
O6 C5 1.203 . S
O7 C0 1.185 . S
O7 Zn3 2.086 . S
C8 O4 1.278 . S
C8 O9 1.211 . S
O9 C8 1.211 . S
C10 O2 1.284 . S
C10 O11 1.273 . S
O11 C10 1.273 . S
O12 Zn3 1.977 . S
O12 C5 1.267 . S
C13 O14 1.160 . S
C13 O20 1.185 . S
O14 C13 1.160 . S
O15 Zn16 1.899 . S
O15 C23 1.284 . S
Zn16 O15 1.899 . S
Zn16 O17 2.032 . S
Zn16 O20 2.086 . S
Zn16 O25 1.977 . S
O17 Zn16 2.032 . S
O17 C21 1.278 . S
C18 O19 1.203 . S
C18 O25 1.267 . S
O19 C18 1.203 . S
O20 C13 1.185 . S
O20 Zn16 2.086 . S
C21 O17 1.278 . S
C21 O22 1.211 . S
O22 C21 1.211 . S
C23 O15 1.284 . S
C23 O24 1.273 . S
O24 C23 1.273 . S
O25 Zn16 1.977 . S
O25 C18 1.267 . S
C26 O27 1.160 . S
C26 O33 1.185 . S
O27 C26 1.160 . S
O28 Zn29 1.899 . S
O28 C36 1.284 . S
Zn29 O28 1.899 . S
Zn29 O30 2.032 . S
Zn29 O33 2.086 . S
Zn29 O38 1.977 . S
O30 Zn29 2.032 . S
O30 C34 1.278 . S
C31 O32 1.203 . S
C31 O38 1.267 . S
O32 C31 1.203 . S
O33 C26 1.185 . S
O33 Zn29 2.086 . S
C34 O30 1.278 . S
C34 O35 1.211 . S
O35 C34 1.211 . S
C36 O28 1.284 . S
C36 O37 1.273 . S
O37 C36 1.273 . S
O38 Zn29 1.977 . S
O38 C31 1.267 . S
C39 O40 1.160 . S
C39 O46 1.185 . S
O40 C39 1.160 . S
O41 Zn42 1.899 . S
O41 C49 1.284 . S
Zn42 O41 1.899 . S
Zn42 O43 2.032 . S
Zn42 O46 2.086 . S
Zn42 O51 1.977 . S
O43 Zn42 2.032 . S
O43 C47 1.278 . S
C44 O45 1.203 . S
C44 O51 1.267 . S
O45 C44 1.203 . S
O46 C39 1.185 . S
O46 Zn42 2.086 . S
C47 O43 1.278 . S
C47 O48 1.211 . S
O48 C47 1.211 . S
C49 O41 1.284 . S
C49 O50 1.273 . S
O50 C49 1.273 . S
O51 Zn42 1.977 . S
O51 C44 1.267 . S
C52 O53 1.160 . S
C52 O59 1.185 . S
O53 C52 1.160 . S
O54 Zn55 1.899 . S
O54 C62 1.284 . S
Zn55 O54 1.899 . S
Zn55 O56 2.032 . S
Zn55 O59 2.086 . S
Zn55 O64 1.977 . S
O56 Zn55 2.032 . S
O56 C60 1.278 . S
C57 O58 1.203 . S
C57 O64 1.267 . S
O58 C57 1.203 . S
O59 C52 1.185 . S
O59 Zn55 2.086 . S
C60 O56 1.278 . S
C60 O61 1.211 . S
O61 C60 1.211 . S
C62 O54 1.284 . S
C62 O63 1.273 . S
O63 C62 1.273 . S
O64 Zn55 1.977 . S
O64 C57 1.267 . S
C65 O66 1.160 . S
C65 O72 1.185 . S
O66 C65 1.160 . S
O67 Zn68 1.899 . S
O67 C75 1.284 . S
Zn68 O67 1.899 . S
Zn68 O69 2.032 . S
Zn68 O72 2.086 . S
Zn68 O77 1.977 . S
O69 Zn68 2.032 . S
O69 C73 1.278 . S
C70 O71 1.203 . S
C70 O77 1.267 . S
O71 C70 1.203 . S
O72 C65 1.185 . S
O72 Zn68 2.086 . S
C73 O69 1.278 . S
C73 O74 1.211 . S
O74 C73 1.211 . S
C75 O67 1.284 . S
C75 O76 1.273 . S
O76 C75 1.273 . S
O77 Zn68 1.977 . S
O77 C70 1.267 . S
C78 O79 1.160 . S
C78 O85 1.185 . S
O79 C78 1.160 . S
O80 Zn81 1.899 . S
O80 C88 1.284 . S
Zn81 O80 1.899 . S
Zn81 O82 2.032 . S
Zn81 O85 2.086 . S
Zn81 O90 1.977 . S
O82 Zn81 2.032 . S
O82 C86 1.278 . S
C83 O84 1.203 . S
C83 O90 1.267 . S
O84 C83 1.203 . S
O85 C78 1.185 . S
O85 Zn81 2.086 . S
C86 O82 1.278 . S
C86 O87 1.211 . S
O87 C86 1.211 . S
C88 O80 1.284 . S
C88 O89 1.273 . S
O89 C88 1.273 . S
O90 Zn81 1.977 . S
O90 C83 1.267 . S
C91 O92 1.160 . S
C91 O98 1.185 . S
O92 C91 1.160 . S
O93 Zn94 1.899 . S
O93 C101 1.284 . S
Zn94 O93 1.899 . S
Zn94 O95 2.032 . S
Zn94 O98 2.086 . S
Zn94 O103 1.977 . S
O95 Zn94 2.032 . S
O95 C99 1.278 . S
C96 O97 1.203 . S
C96 O103 1.267 . S
O97 C96 1.203 . S
O98 C91 1.185 . S
O98 Zn94 2.086 . S
C99 O95 1.278 . S
C99 O100 1.211 . S
O100 C99 1.211 . S
C101 O93 1.284 . S
C101 O102 1.273 . S
O102 C101 1.273 . S
O103 Zn94 1.977 . S
O103 C96 1.267 . S
H104 C105 0.951 . S
C105 H104 0.951 . S
C105 C111 1.265 . S
H106 C111 0.950 . S
H107 C115 0.949 . S
H108 C116 0.948 1_655 S
H109 C117 0.951 . S
H110 C118 0.951 . S
C111 C105 1.265 . S
C111 H106 0.950 . S
C111 C112 1.478 . S
C112 C111 1.478 . S
C112 C113 1.406 . S
C112 C129 1.394 . S
C113 C112 1.406 . S
C113 C114 1.428 1_445 S
C113 C118 1.429 . S
C114 C113 1.428 1_665 S
C114 C115 1.428 . S
C114 C127 1.394 . S
C115 H107 0.949 . S
C115 C114 1.428 . S
C115 C116 1.342 1_655 S
C116 H108 0.948 1_455 S
C116 C115 1.342 1_455 S
C116 C117 1.428 . S
C117 H109 0.951 . S
C117 C116 1.428 . S
C117 C118 1.347 1_565 S
C118 H110 0.951 . S
C118 C113 1.429 . S
C118 C117 1.347 1_545 S
H119 C120 0.951 . S
C120 H119 0.951 . S
C120 C126 1.265 . S
H121 C126 0.950 . S
H122 C130 0.949 . S
H123 C131 0.948 1_455 S
H124 C132 0.951 . S
H125 C133 0.951 . S
C126 C120 1.265 . S
C126 H121 0.950 . S
C126 C127 1.478 . S
C127 C114 1.394 . S
C127 C126 1.478 . S
C127 C128 1.406 . S
C128 C127 1.406 . S
C128 C129 1.428 1_665 S
C128 C133 1.429 . S
C129 C112 1.394 . S
C129 C128 1.428 1_445 S
C129 C130 1.428 . S
C130 H122 0.949 . S
C130 C129 1.428 . S
C130 C131 1.342 1_455 S
C131 H123 0.948 1_655 S
C131 C130 1.342 1_655 S
C131 C132 1.428 . S
C132 H124 0.951 . S
C132 C131 1.428 . S
C132 C133 1.347 1_545 S
C133 H125 0.951 . S
C133 C128 1.429 . S
C133 C132 1.347 1_565 S
H134 C135 0.951 . S
C135 H134 0.951 . S
C135 C141 1.265 . S
H136 C141 0.950 . S
H137 C145 0.949 . S
H138 C146 0.950 . S
H139 C147 0.951 . S
H140 C148 0.951 . S
C141 C135 1.265 . S
C141 H136 0.950 . S
C141 C142 1.478 . S
C142 C141 1.478 . S
C142 C143 1.397 . S
C142 C159 1.394 . S
C143 C142 1.397 . S
C143 C144 1.438 . S
C143 C148 1.429 . S
C144 C143 1.438 . S
C144 C145 1.428 . S
C144 C157 1.394 . S
C145 H137 0.949 . S
C145 C144 1.428 . S
C145 C146 1.345 . S
C146 H138 0.950 . S
C146 C145 1.345 . S
C146 C147 1.424 . S
C147 H139 0.951 . S
C147 C146 1.424 . S
C147 C148 1.347 . S
C148 H140 0.951 . S
C148 C143 1.429 . S
C148 C147 1.347 . S
H149 C150 0.951 . S
C150 H149 0.951 . S
C150 C156 1.265 . S
H151 C156 0.950 . S
H152 C160 0.949 . S
H153 C161 0.950 . S
H154 C162 0.951 . S
H155 C163 0.951 . S
C156 C150 1.265 . S
C156 H151 0.950 . S
C156 C157 1.478 . S
C157 C144 1.394 . S
C157 C156 1.478 . S
C157 C158 1.397 . S
C158 C157 1.397 . S
C158 C159 1.438 . S
C158 C163 1.429 . S
C159 C142 1.394 . S
C159 C158 1.438 . S
C159 C160 1.428 . S
C160 H152 0.949 . S
C160 C159 1.428 . S
C160 C161 1.345 . S
C161 H153 0.950 . S
C161 C160 1.345 . S
C161 C162 1.424 . S
C162 H154 0.951 . S
C162 C161 1.424 . S
C162 C163 1.347 . S
C163 H155 0.951 . S
C163 C158 1.429 . S
C163 C162 1.347 . S
H164 C165 0.951 . S
C165 H164 0.951 . S
C165 C171 1.265 . S
H166 C171 0.950 . S
H167 C175 0.949 . S
H168 C176 0.950 . S
H169 C177 0.951 . S
H170 C178 0.951 . S
C171 C165 1.265 . S
C171 H166 0.950 . S
C171 C172 1.478 . S
C172 C171 1.478 . S
C172 C173 1.397 . S
C172 C189 1.394 . S
C173 C172 1.397 . S
C173 C174 1.438 . S
C173 C178 1.429 . S
C174 C173 1.438 . S
C174 C175 1.428 . S
C174 C187 1.394 . S
C175 H167 0.949 . S
C175 C174 1.428 . S
C175 C176 1.345 . S
C176 H168 0.950 . S
C176 C175 1.345 . S
C176 C177 1.424 . S
C177 H169 0.951 . S
C177 C176 1.424 . S
C177 C178 1.347 . S
C178 H170 0.951 . S
C178 C173 1.429 . S
C178 C177 1.347 . S
H179 C180 0.951 . S
C180 H179 0.951 . S
C180 C186 1.265 . S
H181 C186 0.950 . S
H182 C190 0.949 . S
H183 C191 0.950 . S
H184 C192 0.951 . S
H185 C193 0.951 . S
C186 C180 1.265 . S
C186 H181 0.950 . S
C186 C187 1.478 . S
C187 C174 1.394 . S
C187 C186 1.478 . S
C187 C188 1.397 . S
C188 C187 1.397 . S
C188 C189 1.438 . S
C188 C193 1.429 . S
C189 C172 1.394 . S
C189 C188 1.438 . S
C189 C190 1.428 . S
C190 H182 0.949 . S
C190 C189 1.428 . S
C190 C191 1.345 . S
C191 H183 0.950 . S
C191 C190 1.345 . S
C191 C192 1.424 . S
C192 H184 0.951 . S
C192 C191 1.424 . S
C192 C193 1.347 . S
C193 H185 0.951 . S
C193 C188 1.429 . S
C193 C192 1.347 . S
H194 C195 0.951 . S
C195 H194 0.951 . S
C195 C201 1.265 . S
H196 C201 0.950 . S
H197 C205 0.949 . S
H198 C206 0.950 . S
H199 C207 0.951 . S
H200 C208 0.951 1_455 S
C201 C195 1.265 . S
C201 H196 0.950 . S
C201 C202 1.478 . S
C202 C201 1.478 . S
C202 C203 1.397 1_455 S
C202 C219 1.394 . S
C203 C202 1.397 1_655 S
C203 C204 1.438 1_545 S
C203 C208 1.429 . S
C204 C203 1.438 1_565 S
C204 C205 1.428 . S
C204 C217 1.394 . S
C205 H197 0.949 . S
C205 C204 1.428 . S
C205 C206 1.345 1_565 S
C206 H198 0.950 . S
C206 C205 1.345 1_545 S
C206 C207 1.424 . S
C207 H199 0.951 . S
C207 C206 1.424 . S
C207 C208 1.347 . S
C208 H200 0.951 1_655 S
C208 C203 1.429 . S
C208 C207 1.347 . S
H209 C210 0.951 . S
C210 H209 0.951 . S
C210 C216 1.265 . S
H211 C216 0.950 . S
H212 C220 0.949 . S
H213 C221 0.950 . S
H214 C222 0.951 . S
H215 C223 0.951 1_655 S
C216 C210 1.265 . S
C216 H211 0.950 . S
C216 C217 1.478 . S
C217 C204 1.394 . S
C217 C216 1.478 . S
C217 C218 1.397 1_655 S
C218 C217 1.397 1_455 S
C218 C219 1.438 1_565 S
C218 C223 1.429 . S
C219 C202 1.394 . S
C219 C218 1.438 1_545 S
C219 C220 1.428 . S
C220 H212 0.949 . S
C220 C219 1.428 . S
C220 C221 1.345 1_545 S
C221 H213 0.950 . S
C221 C220 1.345 1_565 S
C221 C222 1.424 . S
C222 H214 0.951 . S
C222 C221 1.424 . S
C222 C223 1.347 . S
C223 H215 0.951 1_455 S
C223 C218 1.429 . S
C223 C222 1.347 . S
H224 C225 0.951 . S
C225 H224 0.951 . S
C225 C231 1.265 . S
H226 C231 0.950 . S
H227 C235 0.949 . S
H228 C236 0.950 . S
H229 C237 0.951 . S
H230 C238 0.951 . S
C231 C225 1.265 . S
C231 H226 0.950 . S
C231 C232 1.478 . S
C232 C231 1.478 . S
C232 C233 1.397 . S
C232 C249 1.394 . S
C233 C232 1.397 . S
C233 C234 1.438 . S
C233 C238 1.429 . S
C234 C233 1.438 . S
C234 C235 1.428 . S
C234 C247 1.394 . S
C235 H227 0.949 . S
C235 C234 1.428 . S
C235 C236 1.345 . S
C236 H228 0.950 . S
C236 C235 1.345 . S
C236 C237 1.424 . S
C237 H229 0.951 . S
C237 C236 1.424 . S
C237 C238 1.347 . S
C238 H230 0.951 . S
C238 C233 1.429 . S
C238 C237 1.347 . S
H239 C240 0.951 . S
C240 H239 0.951 . S
C240 C246 1.265 . S
H241 C246 0.950 . S
H242 C250 0.949 . S
H243 C251 0.950 . S
H244 C252 0.951 . S
H245 C253 0.951 . S
C246 C240 1.265 . S
C246 H241 0.950 . S
C246 C247 1.478 . S
C247 C234 1.394 . S
C247 C246 1.478 . S
C247 C248 1.397 . S
C248 C247 1.397 . S
C248 C249 1.438 . S
C248 C253 1.429 . S
C249 C232 1.394 . S
C249 C248 1.438 . S
C249 C250 1.428 . S
C250 H242 0.949 . S
C250 C249 1.428 . S
C250 C251 1.345 . S
C251 H243 0.950 . S
C251 C250 1.345 . S
C251 C252 1.424 . S
C252 H244 0.951 . S
C252 C251 1.424 . S
C252 C253 1.347 . S
C253 H245 0.951 . S
C253 C248 1.429 . S
C253 C252 1.347 . S
H254 C255 0.951 . S
C255 H254 0.951 . S
C255 C261 1.265 . S
H256 C261 0.950 . S
H257 C265 0.949 . S
H258 C266 0.950 . S
H259 C267 0.951 . S
H260 C268 0.951 . S
C261 C255 1.265 . S
C261 H256 0.950 . S
C261 C262 1.478 . S
C262 C261 1.478 . S
C262 C263 1.397 . S
C262 C279 1.394 . S
C263 C262 1.397 . S
C263 C264 1.438 1_556 S
C263 C268 1.429 . S
C264 C263 1.438 1_554 S
C264 C265 1.428 . S
C264 C277 1.394 . S
C265 H257 0.949 . S
C265 C264 1.428 . S
C265 C266 1.345 . S
C266 H258 0.950 . S
C266 C265 1.345 . S
C266 C267 1.424 1_554 S
C267 H259 0.951 . S
C267 C266 1.424 1_556 S
C267 C268 1.347 . S
C268 H260 0.951 . S
C268 C263 1.429 . S
C268 C267 1.347 . S
H269 C270 0.951 . S
C270 H269 0.951 . S
C270 C276 1.265 . S
H271 C276 0.950 . S
H272 C280 0.949 . S
H273 C281 0.950 . S
H274 C282 0.951 . S
H275 C283 0.951 . S
C276 C270 1.265 . S
C276 H271 0.950 . S
C276 C277 1.478 . S
C277 C264 1.394 . S
C277 C276 1.478 . S
C277 C278 1.397 . S
C278 C277 1.397 . S
C278 C279 1.438 1_554 S
C278 C283 1.429 . S
C279 C262 1.394 . S
C279 C278 1.438 1_556 S
C279 C280 1.428 . S
C280 H272 0.949 . S
C280 C279 1.428 . S
C280 C281 1.345 . S
C281 H273 0.950 . S
C281 C280 1.345 . S
C281 C282 1.424 1_556 S
C282 H274 0.951 . S
C282 C281 1.424 1_554 S
C282 C283 1.347 . S
C283 H275 0.951 . S
C283 C278 1.429 . S
C283 C282 1.347 . S
H284 C285 0.951 . S
C285 H284 0.951 . S
C285 C291 1.265 . S
H286 C291 0.950 . S
H287 C295 0.949 . S
H288 C296 0.950 . S
H289 C297 0.951 . S
H290 C298 0.951 . S
C291 C285 1.265 . S
C291 H286 0.950 . S
C291 C292 1.478 . S
C292 C291 1.478 . S
C292 C293 1.397 . S
C292 C309 1.394 . S
C293 C292 1.397 . S
C293 C294 1.438 . S
C293 C298 1.429 . S
C294 C293 1.438 . S
C294 C295 1.428 . S
C294 C307 1.394 . S
C295 H287 0.949 . S
C295 C294 1.428 . S
C295 C296 1.345 . S
C296 H288 0.950 . S
C296 C295 1.345 . S
C296 C297 1.424 . S
C297 H289 0.951 . S
C297 C296 1.424 . S
C297 C298 1.347 . S
C298 H290 0.951 . S
C298 C293 1.429 . S
C298 C297 1.347 . S
H299 C300 0.951 . S
C300 H299 0.951 . S
C300 C306 1.265 . S
H301 C306 0.950 . S
H302 C310 0.949 . S
H303 C311 0.950 . S
H304 C312 0.951 . S
H305 C313 0.951 . S
C306 C300 1.265 . S
C306 H301 0.950 . S
C306 C307 1.478 . S
C307 C294 1.394 . S
C307 C306 1.478 . S
C307 C308 1.397 . S
C308 C307 1.397 . S
C308 C309 1.438 . S
C308 C313 1.429 . S
C309 C292 1.394 . S
C309 C308 1.438 . S
C309 C310 1.428 . S
C310 H302 0.949 . S
C310 C309 1.428 . S
C310 C311 1.345 . S
C311 H303 0.950 . S
C311 C310 1.345 . S
C311 C312 1.424 . S
C312 H304 0.951 . S
C312 C311 1.424 . S
C312 C313 1.347 . S
C313 H305 0.951 . S
C313 C308 1.429 . S
C313 C312 1.347 . S
H314 C315 0.951 . S
C315 H314 0.951 . S
C315 C321 1.265 . S
H316 C321 0.950 . S
H317 C325 0.949 . S
H318 C326 0.950 . S
H319 C327 0.951 . S
H320 C328 0.951 . S
C321 C315 1.265 . S
C321 H316 0.950 . S
C321 C322 1.478 . S
C322 C321 1.478 . S
C322 C323 1.397 . S
C322 C339 1.394 . S
C323 C322 1.397 . S
C323 C324 1.438 1_556 S
C323 C328 1.429 . S
C324 C323 1.438 1_554 S
C324 C325 1.428 . S
C324 C337 1.394 . S
C325 H317 0.949 . S
C325 C324 1.428 . S
C325 C326 1.345 . S
C326 H318 0.950 . S
C326 C325 1.345 . S
C326 C327 1.424 . S
C327 H319 0.951 . S
C327 C326 1.424 . S
C327 C328 1.347 1_554 S
C328 H320 0.951 . S
C328 C323 1.429 . S
C328 C327 1.347 1_556 S
H329 C330 0.951 . S
C330 H329 0.951 . S
C330 C336 1.265 . S
H331 C336 0.950 . S
H332 C340 0.949 . S
H333 C341 0.950 . S
H334 C342 0.951 . S
H335 C343 0.951 . S
C336 C330 1.265 . S
C336 H331 0.950 . S
C336 C337 1.478 . S
C337 C324 1.394 . S
C337 C336 1.478 . S
C337 C338 1.397 . S
C338 C337 1.397 . S
C338 C339 1.438 1_554 S
C338 C343 1.429 . S
C339 C322 1.394 . S
C339 C338 1.438 1_556 S
C339 C340 1.428 . S
C340 H332 0.949 . S
C340 C339 1.428 . S
C340 C341 1.345 . S
C341 H333 0.950 . S
C341 C340 1.345 . S
C341 C342 1.424 . S
C342 H334 0.951 . S
C342 C341 1.424 . S
C342 C343 1.347 1_556 S
C343 H335 0.951 . S
C343 C338 1.429 . S
C343 C342 1.347 1_554 S
H344 C345 0.951 . S
C345 H344 0.951 . S
C345 C351 1.265 . S
H346 C351 0.950 . S
H347 C355 0.949 . S
H348 C356 0.950 . S
H349 C357 0.951 . S
H350 C358 0.951 . S
C351 C345 1.265 . S
C351 H346 0.950 . S
C351 C352 1.478 . S
C352 C351 1.478 . S
C352 C353 1.397 . S
C352 C369 1.394 . S
C353 C352 1.397 . S
C353 C354 1.438 . S
C353 C358 1.429 . S
C354 C353 1.438 . S
C354 C355 1.428 . S
C354 C367 1.394 . S
C355 H347 0.949 . S
C355 C354 1.428 . S
C355 C356 1.345 . S
C356 H348 0.950 . S
C356 C355 1.345 . S
C356 C357 1.424 . S
C357 H349 0.951 . S
C357 C356 1.424 . S
C357 C358 1.347 . S
C358 H350 0.951 . S
C358 C353 1.429 . S
C358 C357 1.347 . S
H359 C360 0.951 . S
C360 H359 0.951 . S
C360 C366 1.265 . S
H361 C366 0.950 . S
H362 C370 0.949 . S
H363 C371 0.950 . S
H364 C372 0.951 . S
H365 C373 0.951 . S
C366 C360 1.265 . S
C366 H361 0.950 . S
C366 C367 1.478 . S
C367 C354 1.394 . S
C367 C366 1.478 . S
C367 C368 1.397 . S
C368 C367 1.397 . S
C368 C369 1.438 . S
C368 C373 1.429 . S
C369 C352 1.394 . S
C369 C368 1.438 . S
C369 C370 1.428 . S
C370 H362 0.949 . S
C370 C369 1.428 . S
C370 C371 1.345 . S
C371 H363 0.950 . S
C371 C370 1.345 . S
C371 C372 1.424 . S
C372 H364 0.951 . S
C372 C371 1.424 . S
C372 C373 1.347 . S
C373 H365 0.951 . S
C373 C368 1.429 . S
C373 C372 1.347 . S
H374 C375 0.951 . S
C375 H374 0.951 . S
C375 C381 1.265 . S
H376 C381 0.950 . S
H377 C385 0.949 . S
H378 C386 0.950 . S
H379 C387 0.951 . S
H380 C388 0.951 . S
C381 C375 1.265 . S
C381 H376 0.950 . S
C381 C382 1.478 . S
C382 C381 1.478 . S
C382 C383 1.397 . S
C382 C399 1.394 . S
C383 C382 1.397 . S
C383 C384 1.438 . S
C383 C388 1.429 . S
C384 C383 1.438 . S
C384 C385 1.428 . S
C384 C397 1.394 . S
C385 H377 0.949 . S
C385 C384 1.428 . S
C385 C386 1.345 . S
C386 H378 0.950 . S
C386 C385 1.345 . S
C386 C387 1.424 . S
C387 H379 0.951 . S
C387 C386 1.424 . S
C387 C388 1.347 . S
C388 H380 0.951 . S
C388 C383 1.429 . S
C388 C387 1.347 . S
H389 C390 0.951 1_565 S
C390 H389 0.951 1_545 S
C390 C396 1.265 1_545 S
H391 C396 0.950 1_545 S
H392 C400 0.949 . S
H393 C401 0.950 . S
H394 C402 0.951 . S
H395 C403 0.951 . S
C396 C390 1.265 1_565 S
C396 H391 0.950 1_565 S
C396 C397 1.478 . S
C397 C384 1.394 . S
C397 C396 1.478 . S
C397 C398 1.397 . S
C398 C397 1.397 . S
C398 C399 1.438 . S
C398 C403 1.429 . S
C399 C382 1.394 . S
C399 C398 1.438 . S
C399 C400 1.428 . S
C400 H392 0.949 . S
C400 C399 1.428 . S
C400 C401 1.345 . S
C401 H393 0.950 . S
C401 C400 1.345 . S
C401 C402 1.424 . S
C402 H394 0.951 . S
C402 C401 1.424 . S
C402 C403 1.347 . S
C403 H395 0.951 . S
C403 C398 1.429 . S
C403 C402 1.347 . S
H404 C405 0.951 . S
C405 H404 0.951 . S
C405 C411 1.265 . S
H406 C411 0.950 . S
H407 C415 0.949 . S
H408 C416 0.950 . S
H409 C417 0.951 . S
H410 C418 0.951 . S
C411 C405 1.265 . S
C411 H406 0.950 . S
C411 C412 1.478 . S
C412 C411 1.478 . S
C412 C413 1.397 . S
C412 C429 1.394 . S
C413 C412 1.397 . S
C413 C414 1.438 . S
C413 C418 1.429 . S
C414 C413 1.438 . S
C414 C415 1.428 . S
C414 C427 1.394 . S
C415 H407 0.949 . S
C415 C414 1.428 . S
C415 C416 1.345 . S
C416 H408 0.950 . S
C416 C415 1.345 . S
C416 C417 1.424 . S
C417 H409 0.951 . S
C417 C416 1.424 . S
C417 C418 1.347 . S
C418 H410 0.951 . S
C418 C413 1.429 . S
C418 C417 1.347 . S
H419 C420 0.951 . S
C420 H419 0.951 . S
C420 C426 1.265 . S
H421 C426 0.950 . S
H422 C430 0.949 . S
H423 C431 0.950 . S
H424 C432 0.951 . S
H425 C433 0.951 . S
C426 C420 1.265 . S
C426 H421 0.950 . S
C426 C427 1.478 . S
C427 C414 1.394 . S
C427 C426 1.478 . S
C427 C428 1.397 . S
C428 C427 1.397 . S
C428 C429 1.438 . S
C428 C433 1.429 . S
C429 C412 1.394 . S
C429 C428 1.438 . S
C429 C430 1.428 . S
C430 H422 0.949 . S
C430 C429 1.428 . S
C430 C431 1.345 . S
C431 H423 0.950 . S
C431 C430 1.345 . S
C431 C432 1.424 . S
C432 H424 0.951 . S
C432 C431 1.424 . S
C432 C433 1.347 . S
C433 H425 0.951 . S
C433 C428 1.429 . S
C433 C432 1.347 . S
H434 C435 0.951 . S
C435 H434 0.951 . S
C435 C441 1.265 . S
H436 C441 0.950 . S
H437 C445 0.949 . S
H438 C446 0.950 . S
H439 C447 0.951 . S
H440 C448 0.951 . S
C441 C435 1.265 . S
C441 H436 0.950 . S
C441 C442 1.478 . S
C442 C441 1.478 . S
C442 C443 1.397 . S
C442 C459 1.394 . S
C443 C442 1.397 . S
C443 C444 1.438 . S
C443 C448 1.429 . S
C444 C443 1.438 . S
C444 C445 1.428 . S
C444 C457 1.394 . S
C445 H437 0.949 . S
C445 C444 1.428 . S
C445 C446 1.345 . S
C446 H438 0.950 . S
C446 C445 1.345 . S
C446 C447 1.424 . S
C447 H439 0.951 . S
C447 C446 1.424 . S
C447 C448 1.347 . S
C448 H440 0.951 . S
C448 C443 1.429 . S
C448 C447 1.347 . S
H449 C450 0.951 . S
C450 H449 0.951 . S
C450 C456 1.265 1_565 S
H451 C456 0.950 . S
H452 C460 0.949 . S
H453 C461 0.950 . S
H454 C462 0.951 . S
H455 C463 0.951 . S
C456 C450 1.265 1_545 S
C456 H451 0.950 . S
C456 C457 1.478 . S
C457 C444 1.394 . S
C457 C456 1.478 . S
C457 C458 1.397 . S
C458 C457 1.397 . S
C458 C459 1.438 . S
C458 C463 1.429 . S
C459 C442 1.394 . S
C459 C458 1.438 . S
C459 C460 1.428 . S
C460 H452 0.949 . S
C460 C459 1.428 . S
C460 C461 1.345 . S
C461 H453 0.950 . S
C461 C460 1.345 . S
C461 C462 1.424 . S
C462 H454 0.951 . S
C462 C461 1.424 . S
C462 C463 1.347 . S
C463 H455 0.951 . S
C463 C458 1.429 . S
C463 C462 1.347 . S
H464 C465 0.951 1_655 S
C465 H464 0.951 1_455 S
C465 C471 1.265 1_455 S
H466 C471 0.950 1_455 S
H467 C475 0.949 . S
H468 C476 0.950 . S
H469 C477 0.951 . S
H470 C478 0.951 . S
C471 C465 1.265 1_655 S
C471 H466 0.950 1_655 S
C471 C472 1.478 . S
C472 C471 1.478 . S
C472 C473 1.397 . S
C472 C489 1.394 . S
C473 C472 1.397 . S
C473 C474 1.438 . S
C473 C478 1.429 . S
C474 C473 1.438 . S
C474 C475 1.428 . S
C474 C487 1.394 . S
C475 H467 0.949 . S
C475 C474 1.428 . S
C475 C476 1.345 . S
C476 H468 0.950 . S
C476 C475 1.345 . S
C476 C477 1.424 . S
C477 H469 0.951 . S
C477 C476 1.424 . S
C477 C478 1.347 . S
C478 H470 0.951 . S
C478 C473 1.429 . S
C478 C477 1.347 . S
H479 C480 0.951 . S
C480 H479 0.951 . S
C480 C486 1.265 . S
H481 C486 0.950 . S
H482 C490 0.949 . S
H483 C491 0.950 . S
H484 C492 0.951 . S
H485 C493 0.951 . S
C486 C480 1.265 . S
C486 H481 0.950 . S
C486 C487 1.478 . S
C487 C474 1.394 . S
C487 C486 1.478 . S
C487 C488 1.397 . S
C488 C487 1.397 . S
C488 C489 1.438 . S
C488 C493 1.429 . S
C489 C472 1.394 . S
C489 C488 1.438 . S
C489 C490 1.428 . S
C490 H482 0.949 . S
C490 C489 1.428 . S
C490 C491 1.345 . S
C491 H483 0.950 . S
C491 C490 1.345 . S
C491 C492 1.424 . S
C492 H484 0.951 . S
C492 C491 1.424 . S
C492 C493 1.347 . S
C493 H485 0.951 . S
C493 C488 1.429 . S
C493 C492 1.347 . S
H494 C495 0.951 . S
C495 H494 0.951 . S
C495 C501 1.265 . S
H496 C501 0.950 . S
H497 C505 0.949 . S
H498 C506 0.950 . S
H499 C507 0.951 . S
H500 C508 0.951 . S
C501 C495 1.265 . S
C501 H496 0.950 . S
C501 C502 1.478 . S
C502 C501 1.478 . S
C502 C503 1.397 . S
C502 C519 1.394 . S
C503 C502 1.397 . S
C503 C504 1.438 . S
C503 C508 1.429 . S
C504 C503 1.438 . S
C504 C505 1.428 . S
C504 C517 1.394 . S
C505 H497 0.949 . S
C505 C504 1.428 . S
C505 C506 1.345 . S
C506 H498 0.950 . S
C506 C505 1.345 . S
C506 C507 1.424 . S
C507 H499 0.951 . S
C507 C506 1.424 . S
C507 C508 1.347 . S
C508 H500 0.951 . S
C508 C503 1.429 . S
C508 C507 1.347 . S
H509 C510 0.951 . S
C510 H509 0.951 . S
C510 C516 1.265 . S
H511 C516 0.950 . S
H512 C520 0.949 . S
H513 C521 0.950 . S
H514 C522 0.951 . S
H515 C523 0.951 . S
C516 C510 1.265 . S
C516 H511 0.950 . S
C516 C517 1.478 . S
C517 C504 1.394 . S
C517 C516 1.478 . S
C517 C518 1.397 . S
C518 C517 1.397 . S
C518 C519 1.438 . S
C518 C523 1.429 . S
C519 C502 1.394 . S
C519 C518 1.438 . S
C519 C520 1.428 . S
C520 H512 0.949 . S
C520 C519 1.428 . S
C520 C521 1.345 . S
C521 H513 0.950 . S
C521 C520 1.345 . S
C521 C522 1.424 . S
C522 H514 0.951 . S
C522 C521 1.424 . S
C522 C523 1.347 . S
C523 H515 0.951 . S
C523 C518 1.429 . S
C523 C522 1.347 . S
H524 C525 0.951 . S
C525 H524 0.951 . S
C525 C531 1.265 . S
H526 C531 0.950 . S
H527 C535 0.949 . S
H528 C536 0.950 . S
H529 C537 0.951 . S
H530 C538 0.951 . S
C531 C525 1.265 . S
C531 H526 0.950 . S
C531 C532 1.478 . S
C532 C531 1.478 . S
C532 C533 1.397 . S
C532 C549 1.394 . S
C533 C532 1.397 . S
C533 C534 1.438 . S
C533 C538 1.429 . S
C534 C533 1.438 . S
C534 C535 1.428 . S
C534 C547 1.394 . S
C535 H527 0.949 . S
C535 C534 1.428 . S
C535 C536 1.345 . S
C536 H528 0.950 . S
C536 C535 1.345 . S
C536 C537 1.424 . S
C537 H529 0.951 . S
C537 C536 1.424 . S
C537 C538 1.347 . S
C538 H530 0.951 . S
C538 C533 1.429 . S
C538 C537 1.347 . S
H539 C540 0.951 . S
C540 H539 0.951 . S
C540 C546 1.265 1_655 S
H541 C546 0.950 . S
H542 C550 0.949 . S
H543 C551 0.950 . S
H544 C552 0.951 . S
H545 C553 0.951 . S
C546 C540 1.265 1_455 S
C546 H541 0.950 . S
C546 C547 1.478 . S
C547 C534 1.394 . S
C547 C546 1.478 . S
C547 C548 1.397 . S
C548 C547 1.397 . S
C548 C549 1.438 . S
C548 C553 1.429 . S
C549 C532 1.394 . S
C549 C548 1.438 . S
C549 C550 1.428 . S
C550 H542 0.949 . S
C550 C549 1.428 . S
C550 C551 1.345 . S
C551 H543 0.950 . S
C551 C550 1.345 . S
C551 C552 1.424 . S
C552 H544 0.951 . S
C552 C551 1.424 . S
C552 C553 1.347 . S
C553 H545 0.951 . S
C553 C548 1.429 . S
C553 C552 1.347 . S
H554 C555 0.951 . S
C555 H554 0.951 . S
C555 C561 1.265 . S
H556 C561 0.950 . S
H557 C565 0.949 . S
H558 C566 0.950 . S
H559 C567 0.951 . S
H560 C568 0.951 . S
C561 C555 1.265 . S
C561 H556 0.950 . S
C561 C562 1.478 . S
C562 C561 1.478 . S
C562 C563 1.397 . S
C562 C579 1.394 . S
C563 C562 1.397 . S
C563 C564 1.438 . S
C563 C568 1.429 . S
C564 C563 1.438 . S
C564 C565 1.428 . S
C564 C577 1.394 . S
C565 H557 0.949 . S
C565 C564 1.428 . S
C565 C566 1.345 . S
C566 H558 0.950 . S
C566 C565 1.345 . S
C566 C567 1.424 . S
C567 H559 0.951 . S
C567 C566 1.424 . S
C567 C568 1.347 . S
C568 H560 0.951 . S
C568 C563 1.429 . S
C568 C567 1.347 . S
H569 C570 0.951 . S
C570 H569 0.951 . S
C570 C576 1.265 . S
H571 C576 0.950 . S
H572 C580 0.949 . S
H573 C581 0.950 . S
H574 C582 0.951 . S
H575 C583 0.951 . S
C576 C570 1.265 . S
C576 H571 0.950 . S
C576 C577 1.478 . S
C577 C564 1.394 . S
C577 C576 1.478 . S
C577 C578 1.397 . S
C578 C577 1.397 . S
C578 C579 1.438 . S
C578 C583 1.429 . S
C579 C562 1.394 . S
C579 C578 1.438 . S
C579 C580 1.428 . S
C580 H572 0.949 . S
C580 C579 1.428 . S
C580 C581 1.345 . S
C581 H573 0.950 . S
C581 C580 1.345 . S
C581 C582 1.424 . S
C582 H574 0.951 . S
C582 C581 1.424 . S
C582 C583 1.347 . S
C583 H575 0.951 . S
C583 C578 1.429 . S
C583 C582 1.347 . S
C105 C5 0.377 . S
C120 C31 0.370 . S
C135 C18 0.374 . S
C150 C44 0.371 . S
C165 C57 0.455 . S
C180 C83 0.514 . S
C195 C70 0.370 . S
C210 C96 0.391 . S
C225 C8 1.401 . S
C240 C73 1.298 . S
C255 C21 1.387 . S
C270 C86 1.297 . S
C285 C99 1.431 . S
C300 C34 1.346 . S
C315 C47 1.302 . S
C330 C60 1.363 . S
C345 C62 1.483 . S
C360 C0 1.508 . S
C375 C13 1.545 . S
C390 C75 1.449 . S
C405 C26 1.504 . S
C420 C88 1.507 . S
C435 C39 1.517 . S
C450 C101 1.531 . S
C465 C10 1.469 . S
C480 C52 1.548 . S
C495 C65 1.534 . S
C510 C23 1.516 . S
C525 C78 1.504 . S
C540 C36 1.514 . S
C555 C49 1.530 . S
C570 C91 1.520 . S
