# Generated by pormake.
# Topology yfg, (5)-cn, num edge types: 1
# Building blocks:
#     Node 0, Type 0, BuildingBlock: XOMCOT_clean_sbu_1, # of connection points: 5
#     Node 1, Type 0, BuildingBlock: XOMCOT_clean_sbu_1, # of connection points: 5
#     Node 2, Type 0, BuildingBlock: XOMCOT_clean_sbu_1, # of connection points: 5
#     Node 3, Type 0, BuildingBlock: XOMCOT_clean_sbu_1, # of connection points: 5
#     Node 4, Type 0, BuildingBlock: XOMCOT_clean_sbu_1, # of connection points: 5
#     Node 5, Type 0, BuildingBlock: XOMCOT_clean_sbu_1, # of connection points: 5
#     Node 6, Type 0, BuildingBlock: XOMCOT_clean_sbu_1, # of connection points: 5
#     Node 7, Type 0, BuildingBlock: XOMCOT_clean_sbu_1, # of connection points: 5
#     Edge 8, Type (0, 0), BuildingBlock: UVAHIK_clean_linker_0, # of connection points: 2
#     Edge 9, Type (0, 0), BuildingBlock: UVAHIK_clean_linker_0, # of connection points: 2
#     Edge 10, Type (0, 0), BuildingBlock: UVAHIK_clean_linker_0, # of connection points: 2
#     Edge 11, Type (0, 0), BuildingBlock: UVAHIK_clean_linker_0, # of connection points: 2
#     Edge 12, Type (0, 0), BuildingBlock: UVAHIK_clean_linker_0, # of connection points: 2
#     Edge 13, Type (0, 0), BuildingBlock: UVAHIK_clean_linker_0, # of connection points: 2
#     Edge 14, Type (0, 0), BuildingBlock: UVAHIK_clean_linker_0, # of connection points: 2
#     Edge 15, Type (0, 0), BuildingBlock: UVAHIK_clean_linker_0, # of connection points: 2
#     Edge 16, Type (0, 0), BuildingBlock: UVAHIK_clean_linker_0, # of connection points: 2
#     Edge 17, Type (0, 0), BuildingBlock: UVAHIK_clean_linker_0, # of connection points: 2
#     Edge 18, Type (0, 0), BuildingBlock: UVAHIK_clean_linker_0, # of connection points: 2
#     Edge 19, Type (0, 0), BuildingBlock: UVAHIK_clean_linker_0, # of connection points: 2
#     Edge 20, Type (0, 0), BuildingBlock: UVAHIK_clean_linker_0, # of connection points: 2
#     Edge 21, Type (0, 0), BuildingBlock: UVAHIK_clean_linker_0, # of connection points: 2
#     Edge 22, Type (0, 0), BuildingBlock: UVAHIK_clean_linker_0, # of connection points: 2
#     Edge 23, Type (0, 0), BuildingBlock: UVAHIK_clean_linker_0, # of connection points: 2
#     Edge 24, Type (0, 0), BuildingBlock: UVAHIK_clean_linker_0, # of connection points: 2
#     Edge 25, Type (0, 0), BuildingBlock: UVAHIK_clean_linker_0, # of connection points: 2
#     Edge 26, Type (0, 0), BuildingBlock: UVAHIK_clean_linker_0, # of connection points: 2
#     Edge 27, Type (0, 0), BuildingBlock: UVAHIK_clean_linker_0, # of connection points: 2
# Relax obj value: 0.436
# Max RMSD: 0.199
# Mean RMSD: 0.199
data_MOF--net-yfg--node1-XOMCOT_clean_sbu_1--edge1-UVAHIK_clean_linker_0
_symmetry_space_group_name_H-M    P1
_symmetry_Int_Tables_number       1
_symmetry_cell_setting            triclinic
loop_
_symmetry_equiv_pos_as_xyz
'x, y, z'
_cell_length_a     44.914187
_cell_length_b     44.924816
_cell_length_c     49.429106
_cell_angle_alpha  89.968157
_cell_angle_beta   90.00274
_cell_angle_gamma 89.990448
loop_
_atom_site_label
_atom_site_type_symbol
_atom_site_fract_x
_atom_site_fract_y
_atom_site_fract_z
_atom_type_partial_charge
C0 C 0.19436 0.49462 0.0669 0.0
C1 C 0.18739 0.49456 0.09399 0.0
N2 N 0.21193 0.48671 0.10794 0.0
N3 N 0.223 0.48628 0.06381 0.0
C4 C 0.23322 0.48189 0.08919 0.0
H5 H 0.1797 0.50084 0.05048 0.0
Co6 Co 0.24403 0.48537 0.03144 0.0
C7 C 0.27302 0.42469 0.04138 0.0
O8 O 0.2578 0.40947 0.02341 0.0
N9 N 0.26542 0.48596 0.99892 0.0
C10 C 0.28945 0.47668 0.96049 0.0
C11 C 0.2743 0.46419 0.98192 0.0
C12 C 0.27502 0.51134 0.98717 0.0
N13 N 0.28998 0.50643 0.96392 0.0
O14 O 0.27262 0.51146 0.04699 0.0
H15 H 0.26976 0.44083 0.98444 0.0
H16 H 0.27054 0.53318 0.99536 0.0
O17 O 0.26813 0.45244 0.04473 0.0
C18 C 0.26532 0.53838 0.05134 0.0
O19 O 0.23884 0.54761 0.04372 0.0
N20 N 0.21442 0.46079 0.01622 0.0
C21 C 0.15803 0.44068 0.00107 0.0
C22 C 0.17311 0.42755 0.02288 0.0
C23 C 0.20129 0.43805 0.03024 0.0
C24 C 0.20097 0.47221 0.99377 0.0
C25 C 0.17303 0.46215 0.9856 0.0
H26 H 0.21107 0.43005 0.04886 0.0
H27 H 0.21067 0.49105 0.9834 0.0
H28 H 0.25598 0.47581 0.09383 0.0
H29 H 0.16625 0.50087 0.10281 0.0
H30 H 0.29949 0.46468 0.94385 0.0
H31 H 0.16223 0.41128 0.03567 0.0
H32 H 0.16236 0.47268 0.96842 0.0
C33 C 0.50237 0.19983 0.31373 0.0
C34 C 0.50165 0.19283 0.34076 0.0
N35 N 0.51263 0.21609 0.35482 0.0
N36 N 0.51401 0.22724 0.3107 0.0
C37 C 0.51985 0.23675 0.33604 0.0
H38 H 0.49447 0.18608 0.29727 0.0
Co39 Co 0.51696 0.24666 0.27779 0.0
C40 C 0.57677 0.27716 0.2893 0.0
O41 O 0.59313 0.26196 0.27215 0.0
N42 N 0.51797 0.26613 0.24433 0.0
C43 C 0.52745 0.29142 0.2066 0.0
C44 C 0.53986 0.27778 0.22892 0.0
C45 C 0.49272 0.27239 0.23066 0.0
N46 N 0.49764 0.28819 0.20785 0.0
O47 O 0.49014 0.27587 0.29098 0.0
H48 H 0.56327 0.2769 0.23341 0.0
H49 H 0.47099 0.26538 0.23746 0.0
O50 O 0.54898 0.27176 0.29171 0.0
C51 C 0.46249 0.27048 0.29342 0.0
O52 O 0.45183 0.24495 0.2848 0.0
N53 N 0.54269 0.21655 0.2654 0.0
C54 C 0.56619 0.1599 0.25606 0.0
C55 C 0.57769 0.17808 0.27661 0.0
C56 C 0.56523 0.20601 0.28131 0.0
C57 C 0.53275 0.20019 0.24401 0.0
C58 C 0.54427 0.17181 0.23889 0.0
H59 H 0.57185 0.21785 0.29934 0.0
H60 H 0.51391 0.20793 0.23233 0.0
H61 H 0.52892 0.25849 0.3406 0.0
H62 H 0.49281 0.17253 0.34938 0.0
H63 H 0.5395 0.30347 0.19113 0.0
H64 H 0.59477 0.17001 0.29023 0.0
H65 H 0.5343 0.15848 0.22306 0.0
C66 C 0.80376 0.50167 0.56305 0.0
C67 C 0.81178 0.49898 0.58974 0.0
N68 N 0.78817 0.50635 0.6053 0.0
N69 N 0.7754 0.51123 0.56161 0.0
C70 C 0.76639 0.5137 0.58757 0.0
H71 H 0.81758 0.49665 0.54572 0.0
Co72 Co 0.75352 0.51549 0.52993 0.0
C73 C 0.72684 0.57599 0.54465 0.0
O74 O 0.74195 0.5919 0.52707 0.0
N75 N 0.73136 0.51793 0.49796 0.0
C76 C 0.70083 0.5286 0.46385 0.0
C77 C 0.71569 0.53995 0.48595 0.0
C78 C 0.72603 0.49369 0.48256 0.0
N79 N 0.7074 0.49947 0.46182 0.0
O80 O 0.72465 0.48885 0.54418 0.0
H81 H 0.71429 0.56261 0.49283 0.0
H82 H 0.73479 0.47183 0.48716 0.0
O83 O 0.73065 0.54785 0.54614 0.0
C84 C 0.73097 0.46135 0.5462 0.0
O85 O 0.75676 0.45186 0.53707 0.0
N86 N 0.78338 0.54068 0.51583 0.0
C87 C 0.84006 0.56099 0.50186 0.0
C88 C 0.82528 0.57258 0.52449 0.0
C89 C 0.79707 0.56187 0.53133 0.0
C90 C 0.7965 0.53095 0.49258 0.0
C91 C 0.82474 0.54099 0.48511 0.0
H92 H 0.78773 0.56829 0.55061 0.0
H93 H 0.78642 0.51322 0.48102 0.0
H94 H 0.74388 0.51961 0.59315 0.0
H95 H 0.83337 0.49186 0.59691 0.0
H96 H 0.68606 0.54077 0.45052 0.0
H97 H 0.83654 0.58754 0.5383 0.0
H98 H 0.8354 0.53148 0.46745 0.0
C99 C 0.50448 0.8036 0.81319 0.0
C100 C 0.50697 0.81104 0.84005 0.0
N101 N 0.49614 0.78836 0.855 0.0
N102 N 0.49186 0.77651 0.81117 0.0
C103 C 0.48723 0.76764 0.83692 0.0
H104 H 0.51183 0.81681 0.79615 0.0
Co105 Co 0.48635 0.75612 0.77902 0.0
C106 C 0.42618 0.72864 0.79398 0.0
O107 O 0.40991 0.74361 0.77655 0.0
N108 N 0.48284 0.73543 0.7463 0.0
C109 C 0.47202 0.7051 0.71209 0.0
C110 C 0.4609 0.7194 0.73458 0.0
C111 C 0.50676 0.73095 0.73025 0.0
N112 N 0.50095 0.71236 0.7095 0.0
O113 O 0.51283 0.72644 0.79179 0.0
H114 H 0.43859 0.71693 0.7421 0.0
H115 H 0.52858 0.73991 0.73459 0.0
O116 O 0.45426 0.73286 0.79527 0.0
C117 C 0.54082 0.73042 0.79231 0.0
O118 O 0.5521 0.75491 0.782 0.0
N119 N 0.46086 0.78666 0.76682 0.0
C120 C 0.43621 0.8423 0.75499 0.0
C121 C 0.4269 0.82616 0.77775 0.0
C122 C 0.43983 0.79869 0.78355 0.0
C123 C 0.469 0.80122 0.74376 0.0
C124 C 0.45679 0.829 0.73734 0.0
H125 H 0.43452 0.7882 0.80262 0.0
H126 H 0.48672 0.79245 0.7313 0.0
H127 H 0.47777 0.74629 0.84226 0.0
H128 H 0.51684 0.83122 0.84793 0.0
H129 H 0.45997 0.68989 0.69912 0.0
H130 H 0.41097 0.83543 0.79188 0.0
H131 H 0.46508 0.84084 0.71981 0.0
C132 C 0.19551 0.49523 0.439 0.0
C133 C 0.18793 0.49253 0.41221 0.0
N134 N 0.21192 0.49944 0.39699 0.0
N135 N 0.22398 0.50436 0.44083 0.0
C136 C 0.23347 0.50661 0.41499 0.0
H137 H 0.18132 0.49034 0.45612 0.0
Co138 Co 0.24546 0.50807 0.47275 0.0
C139 C 0.27373 0.56859 0.46151 0.0
O140 O 0.26118 0.58311 0.48152 0.0
N141 N 0.26723 0.51037 0.50529 0.0
C142 C 0.28522 0.52199 0.54598 0.0
C143 C 0.26912 0.53214 0.52409 0.0
C144 C 0.28218 0.48728 0.51641 0.0
N145 N 0.29347 0.49374 0.54099 0.0
O146 O 0.27505 0.48282 0.4577 0.0
H147 H 0.25807 0.55341 0.52294 0.0
H148 H 0.2835 0.46545 0.50737 0.0
O149 O 0.26784 0.54115 0.45761 0.0
C150 C 0.27069 0.455 0.45522 0.0
O151 O 0.24643 0.44309 0.46538 0.0
N152 N 0.21499 0.53206 0.48703 0.0
C153 C 0.15832 0.55231 0.50098 0.0
C154 C 0.1742 0.56575 0.4798 0.0
C155 C 0.20249 0.55511 0.47298 0.0
C156 C 0.20066 0.52008 0.50875 0.0
C157 C 0.1725 0.53014 0.5163 0.0
H158 H 0.21291 0.56335 0.45475 0.0
H159 H 0.21008 0.50101 0.51901 0.0
H160 H 0.25617 0.51209 0.40969 0.0
H161 H 0.16639 0.4856 0.40476 0.0
H162 H 0.28988 0.53422 0.56436 0.0
H163 H 0.16389 0.58248 0.4671 0.0
H164 H 0.16114 0.51929 0.53293 0.0
C165 C 0.50546 0.19407 0.68469 0.0
C166 C 0.50805 0.18754 0.65768 0.0
N167 N 0.50064 0.21199 0.64333 0.0
N168 N 0.49619 0.22241 0.68748 0.0
C169 C 0.49362 0.23286 0.66198 0.0
H170 H 0.51094 0.17938 0.7013 0.0
Co171 Co 0.49283 0.24194 0.72037 0.0
C172 C 0.43781 0.27985 0.71375 0.0
O173 O 0.42799 0.27486 0.73832 0.0
N174 N 0.49091 0.26136 0.75447 0.0
C175 C 0.48219 0.27238 0.79782 0.0
C176 C 0.47221 0.25689 0.77559 0.0
C177 C 0.51206 0.2797 0.76466 0.0
N178 N 0.50729 0.28671 0.79082 0.0
O179 O 0.52059 0.27072 0.70771 0.0
H180 H 0.45302 0.24237 0.77542 0.0
H181 H 0.53181 0.28643 0.75381 0.0
O182 O 0.46166 0.26736 0.70548 0.0
C183 C 0.54773 0.26411 0.70354 0.0
O184 O 0.55725 0.2373 0.70974 0.0
N185 N 0.4663 0.21232 0.73179 0.0
C186 C 0.43891 0.15738 0.74019 0.0
C187 C 0.42634 0.17839 0.72252 0.0
C188 C 0.44052 0.20571 0.71842 0.0
C189 C 0.47806 0.19279 0.74998 0.0
C190 C 0.46455 0.16532 0.75472 0.0
H191 H 0.43211 0.22029 0.70283 0.0
H192 H 0.49919 0.19776 0.75947 0.0
H193 H 0.48754 0.25555 0.65729 0.0
H194 H 0.51603 0.16673 0.64939 0.0
H195 H 0.47225 0.27243 0.81777 0.0
H196 H 0.40662 0.17314 0.71086 0.0
H197 H 0.47541 0.14962 0.7681 0.0
C198 C 0.80491 0.50235 0.93656 0.0
C199 C 0.81259 0.50354 0.90963 0.0
N200 N 0.78844 0.49629 0.89489 0.0
N201 N 0.77623 0.49378 0.93873 0.0
C202 C 0.76669 0.49061 0.913 0.0
H203 H 0.81918 0.5077 0.95351 0.0
Co204 Co 0.75441 0.49078 0.97055 0.0
C205 C 0.72657 0.43003 0.95774 0.0
O206 O 0.74078 0.41435 0.97609 0.0
N207 N 0.73225 0.48958 0.00271 0.0
C208 C 0.70329 0.47908 0.038 0.0
C209 C 0.71876 0.46735 0.01646 0.0
C210 C 0.72516 0.51442 0.01672 0.0
N211 N 0.70735 0.50873 0.03807 0.0
O212 O 0.72561 0.51668 0.9553 0.0
H213 H 0.71956 0.44413 0.01139 0.0
H214 H 0.73221 0.53651 0.01085 0.0
O215 O 0.73141 0.45792 0.9553 0.0
C216 C 0.73031 0.54448 0.95322 0.0
O217 O 0.75472 0.55591 0.96353 0.0
N218 N 0.78406 0.46599 0.98534 0.0
C219 C 0.84012 0.44454 0.99989 0.0
C220 C 0.82478 0.43226 0.97788 0.0
C221 C 0.79691 0.44357 0.97071 0.0
C222 C 0.79772 0.47662 0.00799 0.0
C223 C 0.82571 0.46608 0.01572 0.0
H224 H 0.78719 0.43644 0.9518 0.0
H225 H 0.78819 0.49524 0.01879 0.0
H226 H 0.74413 0.48466 0.90764 0.0
H227 H 0.83398 0.51013 0.9015 0.0
H228 H 0.69 0.46676 0.05245 0.0
H229 H 0.83537 0.41614 0.96474 0.0
H230 H 0.83687 0.47618 0.03284 0.0
C231 C 0.49463 0.80518 0.18601 0.0
C232 C 0.49322 0.81253 0.15909 0.0
N233 N 0.50278 0.78904 0.14449 0.0
N234 N 0.50527 0.77729 0.18847 0.0
C235 C 0.50987 0.76789 0.16287 0.0
H236 H 0.48772 0.81899 0.2028 0.0
Co237 Co 0.50823 0.75724 0.22115 0.0
C238 C 0.56762 0.72645 0.20964 0.0
O239 O 0.58354 0.74107 0.2275 0.0
N240 N 0.50938 0.73714 0.25439 0.0
C241 C 0.51981 0.71449 0.29331 0.0
C242 C 0.5316 0.7294 0.27138 0.0
C243 C 0.48443 0.72736 0.26678 0.0
N244 N 0.49002 0.71308 0.29028 0.0
O245 O 0.48091 0.72843 0.20781 0.0
H246 H 0.55479 0.73457 0.26854 0.0
H247 H 0.46237 0.73116 0.25881 0.0
O248 O 0.53992 0.73205 0.20669 0.0
C249 C 0.45375 0.73504 0.20373 0.0
O250 O 0.44417 0.76172 0.21028 0.0
N251 N 0.53442 0.78687 0.23377 0.0
C252 C 0.55966 0.84236 0.2448 0.0
C253 C 0.57015 0.82492 0.22331 0.0
C254 C 0.55693 0.79751 0.21787 0.0
C255 C 0.52515 0.80265 0.25577 0.0
C256 C 0.53763 0.83039 0.26178 0.0
H257 H 0.5631 0.78608 0.19948 0.0
H258 H 0.50632 0.79491 0.26745 0.0
H259 H 0.51781 0.74583 0.15787 0.0
H260 H 0.48473 0.83321 0.15093 0.0
H261 H 0.53235 0.70521 0.30999 0.0
H262 H 0.58719 0.83318 0.20974 0.0
H263 H 0.52842 0.84326 0.2783 0.0
C264 C 0.19281 0.48228 0.35258 0.0
C265 C 0.21444 0.49752 0.36784 0.0
C266 C 0.1952 0.48017 0.32452 0.0
C267 C 0.23206 0.51451 0.26513 0.0
H268 H 0.20459 0.4426 0.22961 0.0
C269 C 0.24168 0.49469 0.14936 0.0
C270 C 0.21504 0.48569 0.13688 0.0
C271 C 0.24405 0.49509 0.17758 0.0
C272 C 0.21228 0.46283 0.23927 0.0
H273 H 0.25564 0.52268 0.36488 0.0
H274 H 0.26027 0.51804 0.31607 0.0
H275 H 0.20485 0.44521 0.27884 0.0
H276 H 0.17038 0.46936 0.14397 0.0
H277 H 0.1746 0.46967 0.19327 0.0
H278 H 0.23972 0.53187 0.22531 0.0
C279 C 0.24114 0.50815 0.32592 0.0
C280 C 0.21231 0.46443 0.26748 0.0
C281 C 0.23863 0.51051 0.35407 0.0
C282 C 0.19106 0.47656 0.15311 0.0
C283 C 0.19358 0.47653 0.18126 0.0
C284 C 0.23236 0.51275 0.23688 0.0
C285 C 0.21945 0.4929 0.31079 0.0
C286 C 0.22165 0.4905 0.28079 0.0
C287 C 0.22 0.48604 0.19378 0.0
C288 C 0.22198 0.48708 0.22369 0.0
H289 H 0.17399 0.47165 0.36215 0.0
H290 H 0.17772 0.46874 0.31356 0.0
H291 H 0.2391 0.53506 0.27462 0.0
H292 H 0.26039 0.50212 0.13731 0.0
H293 H 0.2647 0.50241 0.18675 0.0
C294 C 0.51684 0.19272 0.39984 0.0
C295 C 0.51484 0.21849 0.38383 0.0
C296 C 0.51761 0.1947 0.42798 0.0
C297 C 0.4974 0.24428 0.48449 0.0
H298 H 0.54491 0.18826 0.52575 0.0
C299 C 0.50512 0.24352 0.60224 0.0
C300 C 0.50202 0.21528 0.6143 0.0
C301 C 0.50788 0.24629 0.57414 0.0
C302 C 0.53146 0.20398 0.51448 0.0
H303 H 0.51243 0.26671 0.38501 0.0
H304 H 0.51448 0.27022 0.43426 0.0
H305 H 0.54903 0.18923 0.47663 0.0
H306 H 0.49808 0.16801 0.60592 0.0
H307 H 0.50345 0.17286 0.55724 0.0
H308 H 0.47988 0.25894 0.5226 0.0
C309 C 0.51505 0.24841 0.42494 0.0
C310 C 0.53375 0.20451 0.48635 0.0
C311 C 0.51422 0.24642 0.39669 0.0
C312 C 0.50115 0.19003 0.59752 0.0
C313 C 0.50418 0.19278 0.56956 0.0
C314 C 0.49529 0.2439 0.51273 0.0
C315 C 0.51658 0.22254 0.44091 0.0
C316 C 0.51627 0.2242 0.47095 0.0
C317 C 0.50786 0.22088 0.5576 0.0
C318 C 0.51184 0.2233 0.52793 0.0
H319 H 0.51778 0.17089 0.39065 0.0
H320 H 0.51837 0.17428 0.4396 0.0
H321 H 0.48342 0.25955 0.47324 0.0
H322 H 0.50617 0.26346 0.61446 0.0
H323 H 0.51079 0.26822 0.56541 0.0
C324 C 0.7623 0.5182 0.64846 0.0
C325 C 0.78625 0.505 0.63451 0.0
C326 C 0.76037 0.51643 0.67668 0.0
C327 C 0.7905 0.47408 0.73546 0.0
H328 H 0.76238 0.54185 0.77677 0.0
C329 C 0.81054 0.48728 0.85 0.0
C330 C 0.78612 0.49597 0.86587 0.0
C331 C 0.80856 0.48736 0.82181 0.0
C332 C 0.76999 0.52266 0.76545 0.0
H333 H 0.82695 0.47945 0.64002 0.0
H334 H 0.82421 0.47758 0.68872 0.0
H335 H 0.76288 0.54429 0.72743 0.0
H336 H 0.74058 0.51185 0.86476 0.0
H337 H 0.73722 0.51235 0.81528 0.0
H338 H 0.79853 0.45292 0.77361 0.0
C339 C 0.80647 0.48869 0.67785 0.0
C340 C 0.7702 0.52398 0.73717 0.0
C341 C 0.80826 0.49019 0.6497 0.0
C342 C 0.75964 0.50478 0.85299 0.0
C343 C 0.7578 0.50529 0.82474 0.0
C344 C 0.79063 0.47293 0.76369 0.0
C345 C 0.78244 0.50162 0.69174 0.0
C346 C 0.78075 0.4998 0.72181 0.0
C347 C 0.78224 0.49653 0.8089 0.0
C348 C 0.78062 0.49728 0.77896 0.0
H349 H 0.74501 0.53007 0.63774 0.0
H350 H 0.74137 0.52643 0.68664 0.0
H351 H 0.7981 0.45475 0.72436 0.0
H352 H 0.83111 0.48021 0.85943 0.0
H353 H 0.82782 0.48072 0.81007 0.0
C354 C 0.49488 0.81252 0.89986 0.0
C355 C 0.49526 0.78648 0.88412 0.0
C356 C 0.49473 0.81092 0.92804 0.0
C357 C 0.51299 0.76104 0.98508 0.0
H358 H 0.46624 0.81807 0.02585 0.0
C359 C 0.50115 0.75902 0.1024 0.0
C360 C 0.50333 0.78681 0.11538 0.0
C361 C 0.49994 0.75727 0.07414 0.0
C362 C 0.47957 0.80212 0.01474 0.0
H363 H 0.49583 0.73822 0.88588 0.0
H364 H 0.49486 0.73542 0.93516 0.0
H365 H 0.46347 0.81789 0.97666 0.0
H366 H 0.50738 0.83436 0.10866 0.0
H367 H 0.50496 0.83131 0.05962 0.0
H368 H 0.52901 0.74531 0.02339 0.0
C369 C 0.49503 0.75711 0.9256 0.0
C370 C 0.47802 0.80203 0.98655 0.0
C371 C 0.49522 0.75873 0.89733 0.0
C372 C 0.505 0.81267 0.09942 0.0
C373 C 0.50364 0.81093 0.07129 0.0
C374 C 0.51443 0.76103 0.01336 0.0
C375 C 0.49482 0.78322 0.94129 0.0
C376 C 0.49506 0.78182 0.97134 0.0
C377 C 0.50073 0.78328 0.05833 0.0
C378 C 0.49807 0.7819 0.02844 0.0
H379 H 0.49455 0.83425 0.89043 0.0
H380 H 0.49498 0.83148 0.93947 0.0
H381 H 0.52662 0.74536 0.97397 0.0
H382 H 0.49952 0.73867 0.11402 0.0
H383 H 0.49754 0.73566 0.06469 0.0
C384 C 0.10685 0.4602 0.99232 0.0
C385 C 0.12556 0.43569 0.99714 0.0
C386 C 0.07609 0.45665 0.99089 0.0
C387 C 0.01503 0.40724 0.01254 0.0
H388 H 0.96959 0.45832 0.96458 0.0
C389 C 0.88445 0.41005 0.00073 0.0
C390 C 0.8725 0.43889 0.00313 0.0
C391 C 0.91537 0.40574 1.00006 0.0
C392 C 0.98201 0.44389 0.97805 0.0
H393 H 0.12646 0.38803 0.00397 0.0
H394 H 0.07232 0.3817 0.00113 0.0
H395 H 0.02362 0.45695 0.96089 0.0
H396 H 0.8836 0.4857 0.00703 0.0
H397 H 0.93726 0.47815 0.00569 0.0
H398 H 0.9729 0.39424 0.02952 0.0
C399 C 0.08165 0.40376 0.99871 0.0
C400 C 0.01296 0.44316 0.97603 0.0
C401 C 0.11264 0.40736 1.00024 0.0
C402 C 0.89205 0.46316 0.0056 0.0
C403 C 0.92277 0.45891 0.00453 0.0
C404 C 0.98388 0.40769 0.0143 0.0
C405 C 0.06301 0.42846 0.99415 0.0
C406 C 0.02997 0.42559 0.99382 0.0
C407 C 0.93471 0.43028 0.00123 0.0
C408 C 0.96723 0.42672 0.99759 0.0
H409 H 0.11585 0.48249 0.99067 0.0
H410 H 0.06249 0.47633 0.98811 0.0
H411 H 0.02742 0.39357 0.02665 0.0
H412 H 0.86989 0.39096 0.99875 0.0
H413 H 0.92413 0.38345 0.99751 0.0
C414 C 0.57555 0.11216 0.23045 0.0
C415 C 0.57379 0.12763 0.25513 0.0
C416 C 0.57938 0.08121 0.23012 0.0
C417 C 0.56542 0.01571 0.27317 0.0
H418 H 0.61267 0.97384 0.21973 0.0
C419 C 0.57233 0.88764 0.27265 0.0
C420 C 0.56864 0.87413 0.24722 0.0
C421 C 0.57763 0.91826 0.27463 0.0
C422 C 0.59929 0.98523 0.23473 0.0
H423 H 0.57518 0.12244 0.29884 0.0
H424 H 0.58278 0.06904 0.29815 0.0
H425 H 0.61326 0.02823 0.22083 0.0
H426 H 0.56791 0.88237 0.20392 0.0
H427 H 0.5772 0.93542 0.2074 0.0
H428 H 0.55092 0.97292 0.28674 0.0
C429 C 0.58083 0.08071 0.27905 0.0
C430 C 0.5996 0.01637 0.23532 0.0
C431 C 0.57694 0.1115 0.27939 0.0
C432 C 0.57127 0.89183 0.22384 0.0
C433 C 0.57657 0.92236 0.22582 0.0
C434 C 0.5651 0.98464 0.27258 0.0
C435 C 0.58145 0.06508 0.25447 0.0
C436 C 0.58246 0.03198 0.25442 0.0
C437 C 0.5793 0.93606 0.25123 0.0
C438 C 0.58178 0.96901 0.25319 0.0
H439 H 0.57343 0.12387 0.2114 0.0
H440 H 0.57959 0.06982 0.21082 0.0
H441 H 0.55151 0.02699 0.28784 0.0
H442 H 0.57072 0.8746 0.29103 0.0
H443 H 0.58005 0.92808 0.29451 0.0
C444 C 0.10643 0.53389 0.508 0.0
C445 C 0.12593 0.55803 0.50447 0.0
C446 C 0.07576 0.53832 0.50925 0.0
C447 C 0.01643 0.59116 0.48989 0.0
H448 H 0.96905 0.53906 0.53531 0.0
C449 C 0.88593 0.59345 0.50256 0.0
C450 C 0.87266 0.56539 0.49874 0.0
C451 C 0.91703 0.59629 0.50318 0.0
C452 C 0.98202 0.55379 0.52255 0.0
H453 H 0.12841 0.60591 0.49966 0.0
H454 H 0.07447 0.61382 0.50229 0.0
H455 H 0.02309 0.53791 0.53879 0.0
H456 H 0.88161 0.51845 0.49232 0.0
H457 H 0.93554 0.52345 0.49356 0.0
H458 H 0.97482 0.60704 0.47388 0.0
C459 C 0.08306 0.59136 0.5038 0.0
C460 C 0.01298 0.55306 0.52443 0.0
C461 C 0.11394 0.58687 0.5024 0.0
C462 C 0.89107 0.54045 0.49484 0.0
C463 C 0.92195 0.54323 0.49586 0.0
C464 C 0.98528 0.59216 0.48828 0.0
C465 C 0.0636 0.56707 0.50714 0.0
C466 C 0.03066 0.57105 0.50755 0.0
C467 C 0.93522 0.57102 0.50054 0.0
C468 C 0.9679 0.57284 0.50408 0.0
H469 H 0.11477 0.51128 0.50886 0.0
H470 H 0.06153 0.51897 0.51107 0.0
H471 H 0.02932 0.60521 0.47648 0.0
H472 H 0.87227 0.61302 0.50565 0.0
H473 H 0.92681 0.61796 0.50682 0.0
C474 C 0.42737 0.11004 0.76528 0.0
C475 C 0.42789 0.12617 0.74091 0.0
C476 C 0.42116 0.07953 0.76527 0.0
C477 C 0.42772 0.01471 0.72069 0.0
H478 H 0.38476 0.97433 0.77796 0.0
C479 C 0.42202 0.8863 0.72594 0.0
C480 C 0.42744 0.87404 0.75165 0.0
C481 C 0.41637 0.9168 0.723 0.0
C482 C 0.39691 0.98527 0.76185 0.0
H483 H 0.42128 0.12301 0.69751 0.0
H484 H 0.40997 0.06998 0.6976 0.0
H485 H 0.38475 0.02864 0.77611 0.0
H486 H 0.43122 0.88444 0.79442 0.0
H487 H 0.42141 0.93717 0.7893 0.0
H488 H 0.44074 0.9715 0.70692 0.0
C489 C 0.41463 0.08087 0.71668 0.0
C490 C 0.39688 0.01637 0.7608 0.0
C491 C 0.42074 0.11137 0.7167 0.0
C492 C 0.42644 0.89289 0.77436 0.0
C493 C 0.42082 0.92326 0.77143 0.0
C494 C 0.42782 0.98362 0.72178 0.0
C495 C 0.41546 0.06445 0.74088 0.0
C496 C 0.41274 0.03147 0.74049 0.0
C497 C 0.41609 0.9357 0.74571 0.0
C498 C 0.41292 0.96852 0.74269 0.0
H499 H 0.43258 0.12084 0.78429 0.0
H500 H 0.42219 0.06752 0.78426 0.0
H501 H 0.44051 0.02562 0.70498 0.0
H502 H 0.42239 0.87237 0.70807 0.0
H503 H 0.41249 0.92563 0.70291 0.0
C504 C 0.44405 0.68514 0.18306 0.0
C505 C 0.4338 0.71367 0.1901 0.0
C506 C 0.42578 0.66563 0.16864 0.0
C507 C 0.3622 0.66551 0.12214 0.0
H508 H 0.35682 0.58172 0.14041 0.0
C509 C 0.27643 0.58758 0.07254 0.0
C510 C 0.28555 0.55853 0.06609 0.0
C511 C 0.29493 0.6063 0.08751 0.0
C512 C 0.3584 0.60499 0.13484 0.0
H513 H 0.39615 0.74387 0.18809 0.0
H514 H 0.36426 0.70974 0.163 0.0
H515 H 0.38798 0.61459 0.16768 0.0
H516 H 0.3214 0.52643 0.06997 0.0
H517 H 0.35394 0.55935 0.09575 0.0
H518 H 0.33286 0.65598 0.08921 0.0
C519 C 0.38653 0.70261 0.16839 0.0
C520 C 0.37617 0.6238 0.1505 0.0
C521 C 0.40473 0.72207 0.18291 0.0
C522 C 0.31372 0.5487 0.07465 0.0
C523 C 0.33227 0.56747 0.08959 0.0
C524 C 0.34454 0.6467 0.10643 0.0
C525 C 0.39698 0.67432 0.16087 0.0
C526 C 0.37814 0.65427 0.14436 0.0
C527 C 0.323 0.59644 0.0963 0.0
C528 C 0.34234 0.61625 0.11266 0.0
H529 H 0.46636 0.67801 0.18829 0.0
H530 H 0.4345 0.64405 0.16294 0.0
H531 H 0.36372 0.6888 0.11664 0.0
H532 H 0.25479 0.59579 0.06636 0.0
H533 H 0.28694 0.62834 0.09265 0.0
C534 C 0.45551 0.31145 0.3268 0.0
C535 C 0.44317 0.29148 0.30808 0.0
C536 C 0.43714 0.32979 0.3423 0.0
C537 C 0.35864 0.33702 0.36519 0.0
H538 H 0.38541 0.41526 0.38746 0.0
C539 C 0.31022 0.45006 0.42013 0.0
C540 C 0.29178 0.43673 0.4396 0.0
C541 C 0.32893 0.43266 0.40408 0.0
C542 C 0.37735 0.39363 0.38119 0.0
H543 H 0.40216 0.27565 0.2901 0.0
H544 H 0.37004 0.30863 0.31619 0.0
H545 H 0.41641 0.3856 0.35769 0.0
H546 H 0.27896 0.39499 0.45818 0.0
H547 H 0.31263 0.36464 0.43109 0.0
H548 H 0.3189 0.34566 0.38752 0.0
C549 C 0.39382 0.30947 0.3197 0.0
C550 C 0.39541 0.37636 0.3644 0.0
C551 C 0.4122 0.29073 0.30456 0.0
C552 C 0.29283 0.40578 0.44316 0.0
C553 C 0.31197 0.3884 0.42746 0.0
C554 C 0.34036 0.35449 0.3816 0.0
C555 C 0.40601 0.32894 0.33907 0.0
C556 C 0.38638 0.34775 0.35629 0.0
C557 C 0.33002 0.40157 0.40747 0.0
C558 C 0.34953 0.38297 0.38995 0.0
H559 H 0.47935 0.31223 0.33015 0.0
H560 H 0.44737 0.34402 0.35732 0.0
H561 H 0.35108 0.31493 0.35978 0.0
H562 H 0.30958 0.47388 0.41673 0.0
H563 H 0.342 0.44359 0.38859 0.0
C564 C 0.59587 0.2766 0.68075 0.0
C565 C 0.56747 0.28544 0.68956 0.0
C566 C 0.61357 0.29599 0.66561 0.0
C567 C 0.62456 0.37496 0.64845 0.0
H568 H 0.66271 0.34341 0.58418 0.0
C569 C 0.71949 0.41129 0.56566 0.0
C570 C 0.71087 0.44088 0.56082 0.0
C571 C 0.70148 0.3924 0.58098 0.0
C572 C 0.65249 0.35251 0.60222 0.0
H573 H 0.5357 0.32185 0.69006 0.0
H574 H 0.5667 0.3557 0.6637 0.0
H575 H 0.63319 0.31055 0.61282 0.0
H576 H 0.67625 0.47369 0.56775 0.0
H577 H 0.64451 0.44051 0.59408 0.0
H578 H 0.64406 0.41686 0.63803 0.0
C579 C 0.57527 0.3338 0.66856 0.0
C580 C 0.63559 0.33367 0.61862 0.0
C581 C 0.55749 0.31436 0.68357 0.0
C582 C 0.68356 0.45102 0.57118 0.0
C583 C 0.66548 0.43208 0.58644 0.0
C584 C 0.64158 0.39379 0.63211 0.0
C585 C 0.60332 0.32467 0.65912 0.0
C586 C 0.62148 0.34469 0.64192 0.0
C587 C 0.67437 0.40263 0.59173 0.0
C588 C 0.65577 0.38277 0.60881 0.0
H589 H 0.60422 0.25448 0.68505 0.0
H590 H 0.63527 0.28849 0.65891 0.0
H591 H 0.61418 0.38399 0.66645 0.0
H592 H 0.74047 0.40282 0.55807 0.0
H593 H 0.70919 0.36998 0.58496 0.0
C594 C 0.70903 0.59412 0.94114 0.0
C595 C 0.70981 0.56317 0.93733 0.0
C596 C 0.69031 0.61186 0.92532 0.0
C597 C 0.6333 0.63789 0.89967 0.0
H598 H 0.63833 0.63141 0.82149 0.0
C599 C 0.54778 0.69071 0.82702 0.0
C600 C 0.56001 0.70931 0.80703 0.0
C601 C 0.56615 0.67237 0.84253 0.0
C602 C 0.63677 0.6334 0.84329 0.0
H603 H 0.692 0.52644 0.91386 0.0
H604 H 0.65975 0.55762 0.88584 0.0
H605 H 0.67033 0.60027 0.85007 0.0
H606 H 0.60081 0.72271 0.78701 0.0
H607 H 0.63292 0.68984 0.81376 0.0
H608 H 0.59941 0.67065 0.89293 0.0
C609 C 0.67338 0.56803 0.90124 0.0
C610 C 0.65488 0.61555 0.85957 0.0
C611 C 0.69164 0.55024 0.91739 0.0
C612 C 0.59084 0.70861 0.80231 0.0
C613 C 0.60916 0.68981 0.81751 0.0
C614 C 0.6148 0.65532 0.88341 0.0
C615 C 0.67257 0.59897 0.90509 0.0
C616 C 0.65335 0.61775 0.88788 0.0
C617 C 0.59698 0.67189 0.83799 0.0
C618 C 0.61645 0.65326 0.8551 0.0
H619 H 0.72284 0.60462 0.95636 0.0
H620 H 0.6901 0.63571 0.92854 0.0
H621 H 0.63169 0.63984 0.92147 0.0
H622 H 0.5241 0.69095 0.83122 0.0
H623 H 0.55629 0.65859 0.85813 0.0
C624 C 0.31529 0.42653 0.07451 0.0
C625 C 0.29638 0.40978 0.05769 0.0
C626 C 0.3376 0.4126 0.08965 0.0
C627 C 0.35855 0.34066 0.11947 0.0
H628 H 0.4375 0.37541 0.12337 0.0
C629 C 0.44581 0.30429 0.19853 0.0
C630 C 0.47544 0.30054 0.18982 0.0
C631 C 0.42439 0.31663 0.18139 0.0
C632 C 0.41563 0.36532 0.12231 0.0
H633 H 0.28605 0.36517 0.04378 0.0
H634 H 0.32489 0.34086 0.0704 0.0
H635 H 0.39934 0.39886 0.09525 0.0
H636 H 0.50539 0.30682 0.15584 0.0
H637 H 0.46799 0.32879 0.12608 0.0
H638 H 0.37477 0.3072 0.14662 0.0
C639 C 0.32238 0.36479 0.07185 0.0
C640 C 0.39371 0.3789 0.10643 0.0
C641 C 0.30021 0.37874 0.05651 0.0
C642 C 0.48298 0.3096 0.16343 0.0
C643 C 0.46153 0.32218 0.14632 0.0
C644 C 0.38039 0.32723 0.13553 0.0
C645 C 0.34138 0.38157 0.08852 0.0
C646 C 0.36489 0.36678 0.10491 0.0
C647 C 0.43198 0.32579 0.15512 0.0
C648 C 0.40914 0.33948 0.13723 0.0
H649 H 0.31297 0.45049 0.07593 0.0
H650 H 0.35164 0.42611 0.10255 0.0
H651 H 0.33651 0.3309 0.11887 0.0
H652 H 0.43911 0.2983 0.21882 0.0
H653 H 0.40194 0.31958 0.18894 0.0
C654 C 0.57289 0.32117 0.32027 0.0
C655 C 0.59066 0.3004 0.3064 0.0
C656 C 0.58598 0.3432 0.33633 0.0
C657 C 0.65253 0.36004 0.37579 0.0
H658 H 0.6289 0.44253 0.36734 0.0
C659 C 0.7123 0.45405 0.43403 0.0
C660 C 0.69517 0.47825 0.44301 0.0
C661 C 0.70012 0.43286 0.4165 0.0
C662 C 0.63549 0.41958 0.37032 0.0
H663 H 0.63608 0.28627 0.29879 0.0
H664 H 0.65886 0.32445 0.32731 0.0
H665 H 0.60609 0.40437 0.33906 0.0
H666 H 0.65178 0.49907 0.44096 0.0
H667 H 0.63012 0.46176 0.41115 0.0
H668 H 0.68116 0.3748 0.40759 0.0
C669 C 0.63483 0.32374 0.32555 0.0
C670 C 0.62247 0.39775 0.35398 0.0
C671 C 0.62178 0.30199 0.30913 0.0
C672 C 0.66563 0.48089 0.43403 0.0
C673 C 0.65328 0.45948 0.41685 0.0
C674 C 0.66523 0.38178 0.39243 0.0
C675 C 0.61706 0.34463 0.33921 0.0
C676 C 0.63091 0.36779 0.35652 0.0
C677 C 0.67032 0.43509 0.40786 0.0
C678 C 0.65694 0.4119 0.38992 0.0
H679 H 0.54885 0.32055 0.3186 0.0
H680 H 0.57176 0.35889 0.34682 0.0
H681 H 0.65919 0.33704 0.37838 0.0
H682 H 0.73524 0.45168 0.4404 0.0
H683 H 0.71421 0.41484 0.40963 0.0
C684 C 0.54686 0.7166 0.68221 0.0
C685 C 0.52236 0.69976 0.69106 0.0
C686 C 0.56865 0.7038 0.66566 0.0
C687 C 0.6026 0.63218 0.64948 0.0
H688 H 0.63092 0.67114 0.5844 0.0
C689 C 0.6828 0.57324 0.57566 0.0
C690 C 0.70413 0.59045 0.56194 0.0
C691 C 0.66074 0.58687 0.59131 0.0
C692 C 0.62368 0.66013 0.60274 0.0
H693 H 0.50149 0.65631 0.68952 0.0
H694 H 0.53969 0.63385 0.66082 0.0
H695 H 0.59219 0.6947 0.61159 0.0
H696 H 0.71945 0.63545 0.55443 0.0
H697 H 0.68171 0.65919 0.58246 0.0
H698 H 0.63447 0.59804 0.6413 0.0
C699 C 0.54193 0.657 0.66659 0.0
C700 C 0.60135 0.67361 0.61821 0.0
C701 C 0.51993 0.66993 0.68278 0.0
C702 C 0.70319 0.62157 0.56457 0.0
C703 C 0.68136 0.63519 0.58052 0.0
C704 C 0.62521 0.6189 0.63425 0.0
C705 C 0.5666 0.67375 0.658 0.0
C706 C 0.59046 0.65967 0.64164 0.0
C707 C 0.65968 0.61806 0.59398 0.0
C708 C 0.63597 0.63258 0.61055 0.0
H709 H 0.5492 0.73967 0.68818 0.0
H710 H 0.5875 0.71718 0.65942 0.0
H711 H 0.59492 0.62115 0.66768 0.0
H712 H 0.68276 0.5492 0.57394 0.0
H713 H 0.6442 0.57288 0.6009 0.0
C714 C 0.31219 0.55636 0.9572 0.0
C715 C 0.30381 0.52847 0.94672 0.0
C716 C 0.3255 0.57777 0.94064 0.0
C717 C 0.33527 0.59924 0.86884 0.0
H718 H 0.3991 0.64799 0.89755 0.0
C719 C 0.3812 0.70131 0.81109 0.0
C720 C 0.41213 0.70604 0.81173 0.0
C721 C 0.36807 0.67964 0.82755 0.0
C722 C 0.38147 0.63442 0.88911 0.0
H723 H 0.30292 0.50147 0.91036 0.0
H724 H 0.32674 0.53856 0.88162 0.0
H725 H 0.37679 0.60962 0.92582 0.0
H726 H 0.45352 0.69162 0.83026 0.0
H727 H 0.4307 0.65366 0.85863 0.0
H728 H 0.34045 0.62359 0.83192 0.0
C729 C 0.32262 0.54399 0.90264 0.0
C730 C 0.36841 0.61263 0.90546 0.0
C731 C 0.30925 0.52256 0.91921 0.0
C732 C 0.42961 0.68867 0.8293 0.0
C733 C 0.41649 0.66697 0.84571 0.0
C734 C 0.34838 0.621 0.85248 0.0
C735 C 0.33091 0.57189 0.91314 0.0
C736 C 0.34508 0.5948 0.89557 0.0
C737 C 0.38556 0.66213 0.84501 0.0
C738 C 0.37162 0.63891 0.86241 0.0
H739 H 0.30879 0.56164 0.97832 0.0
H740 H 0.33126 0.59911 0.94937 0.0
H741 H 0.31716 0.58614 0.86064 0.0
H742 H 0.36706 0.71436 0.79788 0.0
H743 H 0.34414 0.67684 0.82678 0.0
C744 C 0.31148 0.56757 0.42413 0.0
C745 C 0.29547 0.5838 0.44362 0.0
C746 C 0.33262 0.5816 0.40775 0.0
C747 C 0.37935 0.64972 0.40326 0.0
H748 H 0.38772 0.62541 0.32842 0.0
C749 C 0.47526 0.69266 0.33506 0.0
C750 C 0.46852 0.69878 0.30781 0.0
C751 C 0.4544 0.67864 0.35184 0.0
C752 C 0.38554 0.63271 0.3492 0.0
H753 H 0.28892 0.62768 0.46089 0.0
H754 H 0.3253 0.65231 0.43192 0.0
H755 H 0.35021 0.60191 0.35671 0.0
H756 H 0.43434 0.69432 0.27697 0.0
H757 H 0.39794 0.67105 0.30627 0.0
H758 H 0.41408 0.68121 0.39545 0.0
C759 C 0.32198 0.62857 0.42966 0.0
C760 C 0.36425 0.6189 0.36557 0.0
C761 C 0.30093 0.61448 0.44616 0.0
C762 C 0.44035 0.69049 0.29786 0.0
C763 C 0.4195 0.67665 0.31464 0.0
C764 C 0.40057 0.66366 0.38682 0.0
C765 C 0.3382 0.6123 0.4103 0.0
C766 C 0.36085 0.6272 0.39284 0.0
C767 C 0.42623 0.67043 0.34184 0.0
C768 C 0.40393 0.65537 0.35955 0.0
H769 H 0.30798 0.54386 0.42169 0.0
H770 H 0.34495 0.56822 0.39339 0.0
H771 H 0.37767 0.65645 0.42423 0.0
H772 H 0.49656 0.69886 0.34356 0.0
H773 H 0.46052 0.67392 0.37259 0.0
C774 C 0.3056 0.47543 0.58695 0.0
C775 C 0.30905 0.47356 0.55873 0.0
C776 C 0.31957 0.45482 0.60399 0.0
C777 C 0.38191 0.40181 0.6073 0.0
H778 H 0.33567 0.36384 0.66384 0.0
C779 C 0.42858 0.30261 0.66813 0.0
C780 C 0.42181 0.30097 0.69585 0.0
C781 C 0.41445 0.32347 0.6515 0.0
C782 C 0.34908 0.3745 0.64843 0.0
H783 H 0.33053 0.44919 0.52635 0.0
H784 H 0.35508 0.41334 0.55608 0.0
H785 H 0.31253 0.40152 0.6352 0.0
H786 H 0.39473 0.31995 0.7278 0.0
H787 H 0.37064 0.35678 0.69902 0.0
H788 H 0.41861 0.37532 0.62067 0.0
C789 C 0.34149 0.43066 0.56501 0.0
C790 C 0.33575 0.39607 0.63198 0.0
C791 C 0.32725 0.45103 0.54798 0.0
C792 C 0.40033 0.32047 0.70649 0.0
C793 C 0.3864 0.34154 0.68992 0.0
C794 C 0.39533 0.38047 0.6239 0.0
C795 C 0.3376 0.43216 0.59319 0.0
C796 C 0.35198 0.40985 0.61115 0.0
C797 C 0.39338 0.34346 0.66221 0.0
C798 C 0.37907 0.36638 0.64462 0.0
H799 H 0.29153 0.49238 0.59581 0.0
H800 H 0.31635 0.45666 0.62564 0.0
H801 H 0.39509 0.41232 0.59162 0.0
H802 H 0.44479 0.28776 0.6592 0.0
H803 H 0.41998 0.32379 0.63018 0.0
C804 C 0.69245 0.38742 0.94711 0.0
C805 C 0.70392 0.41559 0.94037 0.0
C806 C 0.67039 0.37422 0.93114 0.0
C807 C 0.64024 0.37239 0.86278 0.0
H808 H 0.56816 0.34254 0.89634 0.0
C809 C 0.54326 0.3274 0.7982 0.0
C810 C 0.52714 0.30301 0.80823 0.0
C811 C 0.56379 0.34226 0.81461 0.0
C812 C 0.5883 0.3503 0.88661 0.0
H813 H 0.7013 0.45185 0.91144 0.0
H814 H 0.66341 0.42836 0.88319 0.0
H815 H 0.60671 0.36526 0.92426 0.0
H816 H 0.51992 0.27491 0.84318 0.0
H817 H 0.55637 0.30003 0.87162 0.0
H818 H 0.62265 0.35663 0.82529 0.0
C819 C 0.67141 0.41666 0.90094 0.0
C820 C 0.61031 0.36345 0.90266 0.0
C821 C 0.69307 0.4301 0.91715 0.0
C822 C 0.53174 0.29393 0.83508 0.0
C823 C 0.55262 0.30845 0.85138 0.0
C824 C 0.61848 0.3588 0.84677 0.0
C825 C 0.65973 0.38869 0.90787 0.0
C826 C 0.63645 0.37466 0.89088 0.0
C827 C 0.5691 0.33274 0.84134 0.0
C828 C 0.59214 0.3476 0.85843 0.0
H829 H 0.70022 0.37572 0.96492 0.0
H830 H 0.66187 0.35255 0.93682 0.0
H831 H 0.66035 0.38061 0.85324 0.0
H832 H 0.53987 0.33502 0.77764 0.0
H833 H 0.57544 0.36126 0.80628 0.0
C834 C 0.61315 0.70369 0.18888 0.0
C835 C 0.58205 0.70397 0.19211 0.0
C836 C 0.62678 0.68268 0.17208 0.0
C837 C 0.61782 0.60829 0.14431 0.0
H838 H 0.6731 0.63388 0.08874 0.0
C839 C 0.66481 0.52573 0.06567 0.0
C840 C 0.69385 0.53014 0.05596 0.0
C841 C 0.65126 0.54695 0.08229 0.0
C842 C 0.65816 0.62619 0.10444 0.0
H843 H 0.54088 0.68226 0.18041 0.0
H844 H 0.56487 0.64503 0.15159 0.0
H845 H 0.64962 0.67074 0.11797 0.0
H846 H 0.73176 0.55982 0.05651 0.0
H847 H 0.70874 0.59638 0.08638 0.0
H848 H 0.6269 0.56375 0.13166 0.0
C849 C 0.57859 0.66127 0.16193 0.0
C850 C 0.64457 0.6474 0.12106 0.0
C851 C 0.56489 0.68264 0.17833 0.0
C852 C 0.70923 0.55604 0.06349 0.0
C853 C 0.6959 0.57705 0.0805 0.0
C854 C 0.63178 0.58701 0.12803 0.0
C855 C 0.60964 0.66118 0.15857 0.0
C856 C 0.62417 0.63866 0.14106 0.0
C857 C 0.66661 0.57293 0.09002 0.0
C858 C 0.65206 0.59563 0.10773 0.0
H859 H 0.62697 0.71991 0.19913 0.0
H860 H 0.65078 0.68298 0.16993 0.0
H861 H 0.60241 0.60095 0.15981 0.0
H862 H 0.65227 0.50619 0.05982 0.0
H863 H 0.62851 0.54315 0.08862 0.0
loop_
_geom_bond_atom_site_label_1
_geom_bond_atom_site_label_2
_geom_bond_distance
_geom_bond_site_symmetry_2
_ccdc_geom_bond_type
C0 C1 1.351 . S
C0 N3 1.368 . S
C0 H5 0.931 . S
C1 C0 1.351 . S
C1 N2 1.373 . S
C1 H29 0.930 . S
N2 C1 1.373 . S
N2 C4 1.340 . S
N3 C0 1.368 . S
N3 C4 1.321 . S
N3 Co6 2.135 . S
C4 N2 1.340 . S
C4 N3 1.321 . S
C4 H28 0.930 . S
H5 C0 0.931 . S
Co6 N3 2.135 . S
Co6 N9 2.121 . S
Co6 O14 2.055 . S
Co6 O17 2.039 . S
Co6 N20 2.140 . S
C7 O8 1.227 . S
C7 O17 1.265 . S
O8 C7 1.227 . S
N9 Co6 2.121 . S
N9 C11 1.375 . S
N9 C12 1.313 . S
C10 C11 1.338 1_556 S
C10 N13 1.377 . S
C10 H30 0.930 . S
C11 N9 1.375 . S
C11 C10 1.338 1_554 S
C11 H15 0.931 . S
C12 N9 1.313 . S
C12 N13 1.344 1_554 S
C12 H16 0.930 . S
N13 C10 1.377 . S
N13 C12 1.344 1_556 S
O14 Co6 2.055 . S
O14 C18 1.253 . S
H15 C11 0.931 . S
H16 C12 0.930 . S
O17 Co6 2.039 . S
O17 C7 1.265 . S
C18 O14 1.253 . S
C18 O19 1.227 . S
O19 C18 1.227 . S
N20 Co6 2.140 . S
N20 C23 1.346 . S
N20 C24 1.345 . S
C21 C22 1.387 . S
C21 C25 1.391 . S
C22 C21 1.387 . S
C22 C23 1.369 . S
C22 H31 0.929 . S
C23 N20 1.346 . S
C23 C22 1.369 . S
C23 H26 0.928 . S
C24 N20 1.345 . S
C24 C25 1.371 . S
C24 H27 0.931 . S
C25 C21 1.391 . S
C25 C24 1.371 . S
C25 H32 0.930 1_554 S
H26 C23 0.928 . S
H27 C24 0.931 . S
H28 C4 0.930 . S
H29 C1 0.930 . S
H30 C10 0.930 . S
H31 C22 0.929 . S
H32 C25 0.930 1_556 S
C33 C34 1.351 . S
C33 N36 1.368 . S
C33 H38 0.931 . S
C34 C33 1.351 . S
C34 N35 1.373 . S
C34 H62 0.930 . S
N35 C34 1.373 . S
N35 C37 1.340 . S
N36 C33 1.368 . S
N36 C37 1.321 . S
N36 Co39 2.135 . S
C37 N35 1.340 . S
C37 N36 1.321 . S
C37 H61 0.930 . S
H38 C33 0.931 . S
Co39 N36 2.135 . S
Co39 N42 2.121 . S
Co39 O47 2.055 . S
Co39 O50 2.039 . S
Co39 N53 2.140 . S
C40 O41 1.227 . S
C40 O50 1.265 . S
O41 C40 1.227 . S
N42 Co39 2.121 . S
N42 C44 1.375 . S
N42 C45 1.313 . S
C43 C44 1.338 . S
C43 N46 1.377 . S
C43 H63 0.930 . S
C44 N42 1.375 . S
C44 C43 1.338 . S
C44 H48 0.931 . S
C45 N42 1.313 . S
C45 N46 1.344 . S
C45 H49 0.930 . S
N46 C43 1.377 . S
N46 C45 1.344 . S
O47 Co39 2.055 . S
O47 C51 1.253 . S
H48 C44 0.931 . S
H49 C45 0.930 . S
O50 Co39 2.039 . S
O50 C40 1.265 . S
C51 O47 1.253 . S
C51 O52 1.227 . S
O52 C51 1.227 . S
N53 Co39 2.140 . S
N53 C56 1.346 . S
N53 C57 1.345 . S
C54 C55 1.387 . S
C54 C58 1.391 . S
C55 C54 1.387 . S
C55 C56 1.369 . S
C55 H64 0.929 . S
C56 N53 1.346 . S
C56 C55 1.369 . S
C56 H59 0.928 . S
C57 N53 1.345 . S
C57 C58 1.371 . S
C57 H60 0.931 . S
C58 C54 1.391 . S
C58 C57 1.371 . S
C58 H65 0.930 . S
H59 C56 0.928 . S
H60 C57 0.931 . S
H61 C37 0.930 . S
H62 C34 0.930 . S
H63 C43 0.930 . S
H64 C55 0.929 . S
H65 C58 0.930 . S
C66 C67 1.351 . S
C66 N69 1.368 . S
C66 H71 0.931 . S
C67 C66 1.351 . S
C67 N68 1.373 . S
C67 H95 0.930 . S
N68 C67 1.373 . S
N68 C70 1.340 . S
N69 C66 1.368 . S
N69 C70 1.321 . S
N69 Co72 2.135 . S
C70 N68 1.340 . S
C70 N69 1.321 . S
C70 H94 0.930 . S
H71 C66 0.931 . S
Co72 N69 2.135 . S
Co72 N75 2.121 . S
Co72 O80 2.055 . S
Co72 O83 2.039 . S
Co72 N86 2.140 . S
C73 O74 1.227 . S
C73 O83 1.265 . S
O74 C73 1.227 . S
N75 Co72 2.121 . S
N75 C77 1.375 . S
N75 C78 1.313 . S
C76 C77 1.338 . S
C76 N79 1.377 . S
C76 H96 0.930 . S
C77 N75 1.375 . S
C77 C76 1.338 . S
C77 H81 0.931 . S
C78 N75 1.313 . S
C78 N79 1.344 . S
C78 H82 0.930 . S
N79 C76 1.377 . S
N79 C78 1.344 . S
O80 Co72 2.055 . S
O80 C84 1.253 . S
H81 C77 0.931 . S
H82 C78 0.930 . S
O83 Co72 2.039 . S
O83 C73 1.265 . S
C84 O80 1.253 . S
C84 O85 1.227 . S
O85 C84 1.227 . S
N86 Co72 2.140 . S
N86 C89 1.346 . S
N86 C90 1.345 . S
C87 C88 1.387 . S
C87 C91 1.391 . S
C88 C87 1.387 . S
C88 C89 1.369 . S
C88 H97 0.929 . S
C89 N86 1.346 . S
C89 C88 1.369 . S
C89 H92 0.928 . S
C90 N86 1.345 . S
C90 C91 1.371 . S
C90 H93 0.931 . S
C91 C87 1.391 . S
C91 C90 1.371 . S
C91 H98 0.930 . S
H92 C89 0.928 . S
H93 C90 0.931 . S
H94 C70 0.930 . S
H95 C67 0.930 . S
H96 C76 0.930 . S
H97 C88 0.929 . S
H98 C91 0.930 . S
C99 C100 1.351 . S
C99 N102 1.368 . S
C99 H104 0.931 . S
C100 C99 1.351 . S
C100 N101 1.373 . S
C100 H128 0.930 . S
N101 C100 1.373 . S
N101 C103 1.340 . S
N102 C99 1.368 . S
N102 C103 1.321 . S
N102 Co105 2.135 . S
C103 N101 1.340 . S
C103 N102 1.321 . S
C103 H127 0.930 . S
H104 C99 0.931 . S
Co105 N102 2.135 . S
Co105 N108 2.121 . S
Co105 O113 2.055 . S
Co105 O116 2.039 . S
Co105 N119 2.140 . S
C106 O107 1.227 . S
C106 O116 1.265 . S
O107 C106 1.227 . S
N108 Co105 2.121 . S
N108 C110 1.375 . S
N108 C111 1.313 . S
C109 C110 1.338 . S
C109 N112 1.377 . S
C109 H129 0.930 . S
C110 N108 1.375 . S
C110 C109 1.338 . S
C110 H114 0.931 . S
C111 N108 1.313 . S
C111 N112 1.344 . S
C111 H115 0.930 . S
N112 C109 1.377 . S
N112 C111 1.344 . S
O113 Co105 2.055 . S
O113 C117 1.253 . S
H114 C110 0.931 . S
H115 C111 0.930 . S
O116 Co105 2.039 . S
O116 C106 1.265 . S
C117 O113 1.253 . S
C117 O118 1.227 . S
O118 C117 1.227 . S
N119 Co105 2.140 . S
N119 C122 1.346 . S
N119 C123 1.345 . S
C120 C121 1.387 . S
C120 C124 1.391 . S
C121 C120 1.387 . S
C121 C122 1.369 . S
C121 H130 0.929 . S
C122 N119 1.346 . S
C122 C121 1.369 . S
C122 H125 0.928 . S
C123 N119 1.345 . S
C123 C124 1.371 . S
C123 H126 0.931 . S
C124 C120 1.391 . S
C124 C123 1.371 . S
C124 H131 0.930 . S
H125 C122 0.928 . S
H126 C123 0.931 . S
H127 C103 0.930 . S
H128 C100 0.930 . S
H129 C109 0.930 . S
H130 C121 0.929 . S
H131 C124 0.930 . S
C132 C133 1.351 . S
C132 N135 1.368 . S
C132 H137 0.931 . S
C133 C132 1.351 . S
C133 N134 1.373 . S
C133 H161 0.930 . S
N134 C133 1.373 . S
N134 C136 1.340 . S
N135 C132 1.368 . S
N135 C136 1.321 . S
N135 Co138 2.135 . S
C136 N134 1.340 . S
C136 N135 1.321 . S
C136 H160 0.930 . S
H137 C132 0.931 . S
Co138 N135 2.135 . S
Co138 N141 2.121 . S
Co138 O146 2.055 . S
Co138 O149 2.039 . S
Co138 N152 2.140 . S
C139 O140 1.227 . S
C139 O149 1.265 . S
O140 C139 1.227 . S
N141 Co138 2.121 . S
N141 C143 1.375 . S
N141 C144 1.313 . S
C142 C143 1.338 . S
C142 N145 1.377 . S
C142 H162 0.930 . S
C143 N141 1.375 . S
C143 C142 1.338 . S
C143 H147 0.931 . S
C144 N141 1.313 . S
C144 N145 1.344 . S
C144 H148 0.930 . S
N145 C142 1.377 . S
N145 C144 1.344 . S
O146 Co138 2.055 . S
O146 C150 1.253 . S
H147 C143 0.931 . S
H148 C144 0.930 . S
O149 Co138 2.039 . S
O149 C139 1.265 . S
C150 O146 1.253 . S
C150 O151 1.227 . S
O151 C150 1.227 . S
N152 Co138 2.140 . S
N152 C155 1.346 . S
N152 C156 1.345 . S
C153 C154 1.387 . S
C153 C157 1.391 . S
C154 C153 1.387 . S
C154 C155 1.369 . S
C154 H163 0.929 . S
C155 N152 1.346 . S
C155 C154 1.369 . S
C155 H158 0.928 . S
C156 N152 1.345 . S
C156 C157 1.371 . S
C156 H159 0.931 . S
C157 C153 1.391 . S
C157 C156 1.371 . S
C157 H164 0.930 . S
H158 C155 0.928 . S
H159 C156 0.931 . S
H160 C136 0.930 . S
H161 C133 0.930 . S
H162 C142 0.930 . S
H163 C154 0.929 . S
H164 C157 0.930 . S
C165 C166 1.351 . S
C165 N168 1.368 . S
C165 H170 0.931 . S
C166 C165 1.351 . S
C166 N167 1.373 . S
C166 H194 0.930 . S
N167 C166 1.373 . S
N167 C169 1.340 . S
N168 C165 1.368 . S
N168 C169 1.321 . S
N168 Co171 2.135 . S
C169 N167 1.340 . S
C169 N168 1.321 . S
C169 H193 0.930 . S
H170 C165 0.931 . S
Co171 N168 2.135 . S
Co171 N174 2.121 . S
Co171 O179 2.055 . S
Co171 O182 2.039 . S
Co171 N185 2.140 . S
C172 O173 1.227 . S
C172 O182 1.265 . S
O173 C172 1.227 . S
N174 Co171 2.121 . S
N174 C176 1.375 . S
N174 C177 1.313 . S
C175 C176 1.338 . S
C175 N178 1.377 . S
C175 H195 0.930 . S
C176 N174 1.375 . S
C176 C175 1.338 . S
C176 H180 0.931 . S
C177 N174 1.313 . S
C177 N178 1.344 . S
C177 H181 0.930 . S
N178 C175 1.377 . S
N178 C177 1.344 . S
O179 Co171 2.055 . S
O179 C183 1.253 . S
H180 C176 0.931 . S
H181 C177 0.930 . S
O182 Co171 2.039 . S
O182 C172 1.265 . S
C183 O179 1.253 . S
C183 O184 1.227 . S
O184 C183 1.227 . S
N185 Co171 2.140 . S
N185 C188 1.346 . S
N185 C189 1.345 . S
C186 C187 1.387 . S
C186 C190 1.391 . S
C187 C186 1.387 . S
C187 C188 1.369 . S
C187 H196 0.929 . S
C188 N185 1.346 . S
C188 C187 1.369 . S
C188 H191 0.928 . S
C189 N185 1.345 . S
C189 C190 1.371 . S
C189 H192 0.931 . S
C190 C186 1.391 . S
C190 C189 1.371 . S
C190 H197 0.930 . S
H191 C188 0.928 . S
H192 C189 0.931 . S
H193 C169 0.930 . S
H194 C166 0.930 . S
H195 C175 0.930 . S
H196 C187 0.929 . S
H197 C190 0.930 . S
C198 C199 1.351 . S
C198 N201 1.368 . S
C198 H203 0.931 . S
C199 C198 1.351 . S
C199 N200 1.373 . S
C199 H227 0.930 . S
N200 C199 1.373 . S
N200 C202 1.340 . S
N201 C198 1.368 . S
N201 C202 1.321 . S
N201 Co204 2.135 . S
C202 N200 1.340 . S
C202 N201 1.321 . S
C202 H226 0.930 . S
H203 C198 0.931 . S
Co204 N201 2.135 . S
Co204 N207 2.121 . S
Co204 O212 2.055 . S
Co204 O215 2.039 . S
Co204 N218 2.140 . S
C205 O206 1.227 . S
C205 O215 1.265 . S
O206 C205 1.227 . S
N207 Co204 2.121 . S
N207 C209 1.375 . S
N207 C210 1.313 . S
C208 C209 1.338 1_554 S
C208 N211 1.377 . S
C208 H228 0.930 . S
C209 N207 1.375 . S
C209 C208 1.338 1_556 S
C209 H213 0.931 . S
C210 N207 1.313 . S
C210 N211 1.344 1_556 S
C210 H214 0.930 . S
N211 C208 1.377 . S
N211 C210 1.344 1_554 S
O212 Co204 2.055 . S
O212 C216 1.253 . S
H213 C209 0.931 . S
H214 C210 0.930 . S
O215 Co204 2.039 . S
O215 C205 1.265 . S
C216 O212 1.253 . S
C216 O217 1.227 . S
O217 C216 1.227 . S
N218 Co204 2.140 . S
N218 C221 1.346 . S
N218 C222 1.345 . S
C219 C220 1.387 . S
C219 C223 1.391 . S
C220 C219 1.387 . S
C220 C221 1.369 . S
C220 H229 0.929 . S
C221 N218 1.346 . S
C221 C220 1.369 . S
C221 H224 0.928 . S
C222 N218 1.345 . S
C222 C223 1.371 . S
C222 H225 0.931 . S
C223 C219 1.391 . S
C223 C222 1.371 . S
C223 H230 0.930 1_556 S
H224 C221 0.928 . S
H225 C222 0.931 . S
H226 C202 0.930 . S
H227 C199 0.930 . S
H228 C208 0.930 . S
H229 C220 0.929 . S
H230 C223 0.930 1_554 S
C231 C232 1.351 . S
C231 N234 1.368 . S
C231 H236 0.931 . S
C232 C231 1.351 . S
C232 N233 1.373 . S
C232 H260 0.930 . S
N233 C232 1.373 . S
N233 C235 1.340 . S
N234 C231 1.368 . S
N234 C235 1.321 . S
N234 Co237 2.135 . S
C235 N233 1.340 . S
C235 N234 1.321 . S
C235 H259 0.930 . S
H236 C231 0.931 . S
Co237 N234 2.135 . S
Co237 N240 2.121 . S
Co237 O245 2.055 . S
Co237 O248 2.039 . S
Co237 N251 2.140 . S
C238 O239 1.227 . S
C238 O248 1.265 . S
O239 C238 1.227 . S
N240 Co237 2.121 . S
N240 C242 1.375 . S
N240 C243 1.313 . S
C241 C242 1.338 . S
C241 N244 1.377 . S
C241 H261 0.930 . S
C242 N240 1.375 . S
C242 C241 1.338 . S
C242 H246 0.931 . S
C243 N240 1.313 . S
C243 N244 1.344 . S
C243 H247 0.930 . S
N244 C241 1.377 . S
N244 C243 1.344 . S
O245 Co237 2.055 . S
O245 C249 1.253 . S
H246 C242 0.931 . S
H247 C243 0.930 . S
O248 Co237 2.039 . S
O248 C238 1.265 . S
C249 O245 1.253 . S
C249 O250 1.227 . S
O250 C249 1.227 . S
N251 Co237 2.140 . S
N251 C254 1.346 . S
N251 C255 1.345 . S
C252 C253 1.387 . S
C252 C256 1.391 . S
C253 C252 1.387 . S
C253 C254 1.369 . S
C253 H262 0.929 . S
C254 N251 1.346 . S
C254 C253 1.369 . S
C254 H257 0.928 . S
C255 N251 1.345 . S
C255 C256 1.371 . S
C255 H258 0.931 . S
C256 C252 1.391 . S
C256 C255 1.371 . S
C256 H263 0.930 . S
H257 C254 0.928 . S
H258 C255 0.931 . S
H259 C235 0.930 . S
H260 C232 0.930 . S
H261 C241 0.930 . S
H262 C253 0.929 . S
H263 C256 0.930 . S
C264 C265 1.349 . S
C264 C266 1.327 . S
C264 H289 0.950 . S
C265 C264 1.349 . S
C265 C281 1.349 . S
C266 C264 1.327 . S
C266 C285 1.429 . S
C266 H290 0.950 . S
C267 C284 1.574 . S
C267 C286 1.368 . S
C267 H291 0.949 . S
H268 C272 0.949 . S
C269 C270 1.349 . S
C269 C271 1.327 . S
C269 H292 0.950 . S
C270 C269 1.349 . S
C270 C282 1.349 . S
C271 C269 1.327 . S
C271 C287 1.429 . S
C271 H293 0.950 . S
C272 H268 0.949 . S
C272 C280 1.574 . S
C272 C288 1.368 . S
H273 C281 0.950 . S
H274 C279 0.950 . S
H275 C280 0.949 . S
H276 C282 0.950 . S
H277 C283 0.950 . S
H278 C284 0.949 . S
C279 H274 0.950 . S
C279 C281 1.327 . S
C279 C285 1.429 . S
C280 C272 1.574 . S
C280 H275 0.949 . S
C280 C286 1.368 . S
C281 C265 1.349 . S
C281 H273 0.950 . S
C281 C279 1.327 . S
C282 C270 1.349 . S
C282 H276 0.950 . S
C282 C283 1.327 . S
C283 H277 0.950 . S
C283 C282 1.327 . S
C283 C287 1.429 . S
C284 C267 1.574 . S
C284 H278 0.949 . S
C284 C288 1.368 . S
C285 C266 1.429 . S
C285 C279 1.429 . S
C285 C286 1.523 . S
C286 C267 1.368 . S
C286 C280 1.368 . S
C286 C285 1.523 . S
C287 C271 1.429 . S
C287 C283 1.429 . S
C287 C288 1.523 . S
C288 C272 1.368 . S
C288 C284 1.368 . S
C288 C287 1.523 . S
H289 C264 0.950 . S
H290 C266 0.950 . S
H291 C267 0.949 . S
H292 C269 0.950 . S
H293 C271 0.950 . S
C294 C295 1.349 . S
C294 C296 1.327 . S
C294 H319 0.950 . S
C295 C294 1.349 . S
C295 C311 1.349 . S
C296 C294 1.327 . S
C296 C315 1.429 . S
C296 H320 0.950 . S
C297 C314 1.574 . S
C297 C316 1.368 . S
C297 H321 0.949 . S
H298 C302 0.949 . S
C299 C300 1.349 . S
C299 C301 1.327 . S
C299 H322 0.950 . S
C300 C299 1.349 . S
C300 C312 1.349 . S
C301 C299 1.327 . S
C301 C317 1.429 . S
C301 H323 0.950 . S
C302 H298 0.949 . S
C302 C310 1.574 . S
C302 C318 1.368 . S
H303 C311 0.950 . S
H304 C309 0.950 . S
H305 C310 0.949 . S
H306 C312 0.950 . S
H307 C313 0.950 . S
H308 C314 0.949 . S
C309 H304 0.950 . S
C309 C311 1.327 . S
C309 C315 1.429 . S
C310 C302 1.574 . S
C310 H305 0.949 . S
C310 C316 1.368 . S
C311 C295 1.349 . S
C311 H303 0.950 . S
C311 C309 1.327 . S
C312 C300 1.349 . S
C312 H306 0.950 . S
C312 C313 1.327 . S
C313 H307 0.950 . S
C313 C312 1.327 . S
C313 C317 1.429 . S
C314 C297 1.574 . S
C314 H308 0.949 . S
C314 C318 1.368 . S
C315 C296 1.429 . S
C315 C309 1.429 . S
C315 C316 1.523 . S
C316 C297 1.368 . S
C316 C310 1.368 . S
C316 C315 1.523 . S
C317 C301 1.429 . S
C317 C313 1.429 . S
C317 C318 1.523 . S
C318 C302 1.368 . S
C318 C314 1.368 . S
C318 C317 1.523 . S
H319 C294 0.950 . S
H320 C296 0.950 . S
H321 C297 0.949 . S
H322 C299 0.950 . S
H323 C301 0.950 . S
C324 C325 1.349 . S
C324 C326 1.327 . S
C324 H349 0.950 . S
C325 C324 1.349 . S
C325 C341 1.349 . S
C326 C324 1.327 . S
C326 C345 1.429 . S
C326 H350 0.950 . S
C327 C344 1.574 . S
C327 C346 1.368 . S
C327 H351 0.949 . S
H328 C332 0.949 . S
C329 C330 1.349 . S
C329 C331 1.327 . S
C329 H352 0.950 . S
C330 C329 1.349 . S
C330 C342 1.349 . S
C331 C329 1.327 . S
C331 C347 1.429 . S
C331 H353 0.950 . S
C332 H328 0.949 . S
C332 C340 1.574 . S
C332 C348 1.368 . S
H333 C341 0.950 . S
H334 C339 0.950 . S
H335 C340 0.949 . S
H336 C342 0.950 . S
H337 C343 0.950 . S
H338 C344 0.949 . S
C339 H334 0.950 . S
C339 C341 1.327 . S
C339 C345 1.429 . S
C340 C332 1.574 . S
C340 H335 0.949 . S
C340 C346 1.368 . S
C341 C325 1.349 . S
C341 H333 0.950 . S
C341 C339 1.327 . S
C342 C330 1.349 . S
C342 H336 0.950 . S
C342 C343 1.327 . S
C343 H337 0.950 . S
C343 C342 1.327 . S
C343 C347 1.429 . S
C344 C327 1.574 . S
C344 H338 0.949 . S
C344 C348 1.368 . S
C345 C326 1.429 . S
C345 C339 1.429 . S
C345 C346 1.523 . S
C346 C327 1.368 . S
C346 C340 1.368 . S
C346 C345 1.523 . S
C347 C331 1.429 . S
C347 C343 1.429 . S
C347 C348 1.523 . S
C348 C332 1.368 . S
C348 C344 1.368 . S
C348 C347 1.523 . S
H349 C324 0.950 . S
H350 C326 0.950 . S
H351 C327 0.949 . S
H352 C329 0.950 . S
H353 C331 0.950 . S
C354 C355 1.349 . S
C354 C356 1.327 . S
C354 H379 0.950 . S
C355 C354 1.349 . S
C355 C371 1.349 . S
C356 C354 1.327 . S
C356 C375 1.429 . S
C356 H380 0.950 . S
C357 C374 1.574 1_556 S
C357 C376 1.368 . S
C357 H381 0.949 . S
H358 C362 0.949 . S
C359 C360 1.349 . S
C359 C361 1.327 . S
C359 H382 0.950 . S
C360 C359 1.349 . S
C360 C372 1.349 . S
C361 C359 1.327 . S
C361 C377 1.429 . S
C361 H383 0.950 . S
C362 H358 0.949 . S
C362 C370 1.574 1_554 S
C362 C378 1.368 . S
H363 C371 0.950 . S
H364 C369 0.950 . S
H365 C370 0.949 . S
H366 C372 0.950 . S
H367 C373 0.950 . S
H368 C374 0.949 . S
C369 H364 0.950 . S
C369 C371 1.327 . S
C369 C375 1.429 . S
C370 C362 1.574 1_556 S
C370 H365 0.949 . S
C370 C376 1.368 . S
C371 C355 1.349 . S
C371 H363 0.950 . S
C371 C369 1.327 . S
C372 C360 1.349 . S
C372 H366 0.950 . S
C372 C373 1.327 . S
C373 H367 0.950 . S
C373 C372 1.327 . S
C373 C377 1.429 . S
C374 C357 1.574 1_554 S
C374 H368 0.949 . S
C374 C378 1.368 . S
C375 C356 1.429 . S
C375 C369 1.429 . S
C375 C376 1.523 . S
C376 C357 1.368 . S
C376 C370 1.368 . S
C376 C375 1.523 . S
C377 C361 1.429 . S
C377 C373 1.429 . S
C377 C378 1.523 . S
C378 C362 1.368 . S
C378 C374 1.368 . S
C378 C377 1.523 . S
H379 C354 0.950 . S
H380 C356 0.950 . S
H381 C357 0.949 . S
H382 C359 0.950 . S
H383 C361 0.950 . S
C384 C385 1.355 . S
C384 C386 1.326 1_554 S
C384 H409 0.945 1_554 S
C385 C384 1.355 . S
C385 C401 1.349 . S
C386 C384 1.326 1_556 S
C386 C405 1.429 1_556 S
C386 H410 0.950 . S
C387 C404 1.574 1_455 S
C387 C406 1.368 . S
C387 H411 0.949 . S
H388 C392 0.949 . S
C389 C390 1.355 . S
C389 C391 1.326 1_556 S
C389 H412 0.945 1_556 S
C390 C389 1.355 . S
C390 C402 1.349 . S
C391 C389 1.326 1_554 S
C391 C407 1.429 1_554 S
C391 H413 0.950 . S
C392 H388 0.949 . S
C392 C400 1.574 1_655 S
C392 C408 1.368 . S
H393 C401 0.950 . S
H394 C399 0.950 . S
H395 C400 0.949 . S
H396 C402 0.950 . S
H397 C403 0.950 . S
H398 C404 0.949 . S
C399 H394 0.950 . S
C399 C401 1.327 . S
C399 C405 1.429 . S
C400 C392 1.574 1_455 S
C400 H395 0.949 . S
C400 C406 1.368 1_556 S
C401 C385 1.349 . S
C401 H393 0.950 . S
C401 C399 1.327 . S
C402 C390 1.349 . S
C402 H396 0.950 . S
C402 C403 1.327 . S
C403 H397 0.950 . S
C403 C402 1.327 . S
C403 C407 1.429 . S
C404 C387 1.574 1_655 S
C404 H398 0.949 . S
C404 C408 1.368 1_554 S
C405 C386 1.429 1_554 S
C405 C399 1.429 . S
C405 C406 1.523 . S
C406 C387 1.368 . S
C406 C400 1.368 1_554 S
C406 C405 1.523 . S
C407 C391 1.429 1_556 S
C407 C403 1.429 . S
C407 C408 1.523 . S
C408 C392 1.368 . S
C408 C404 1.368 1_556 S
C408 C407 1.523 . S
H409 C384 0.945 1_556 S
H410 C386 0.950 . S
H411 C387 0.949 . S
H412 C389 0.945 1_554 S
H413 C391 0.950 . S
C414 C415 1.349 . S
C414 C416 1.327 . S
C414 H439 0.950 . S
C415 C414 1.349 . S
C415 C431 1.349 . S
C416 C414 1.327 . S
C416 C435 1.429 . S
C416 H440 0.950 . S
C417 C434 1.574 1_545 S
C417 C436 1.368 . S
C417 H441 0.949 . S
H418 C422 0.949 . S
C419 C420 1.349 . S
C419 C421 1.327 . S
C419 H442 0.950 . S
C420 C419 1.349 . S
C420 C432 1.349 . S
C421 C419 1.327 . S
C421 C437 1.429 . S
C421 H443 0.950 . S
C422 H418 0.949 . S
C422 C430 1.574 1_565 S
C422 C438 1.368 . S
H423 C431 0.950 . S
H424 C429 0.950 . S
H425 C430 0.949 . S
H426 C432 0.950 . S
H427 C433 0.950 . S
H428 C434 0.949 . S
C429 H424 0.950 . S
C429 C431 1.327 . S
C429 C435 1.429 . S
C430 C422 1.574 1_545 S
C430 H425 0.949 . S
C430 C436 1.368 . S
C431 C415 1.349 . S
C431 H423 0.950 . S
C431 C429 1.327 . S
C432 C420 1.349 . S
C432 H426 0.950 . S
C432 C433 1.327 . S
C433 H427 0.950 . S
C433 C432 1.327 . S
C433 C437 1.429 . S
C434 C417 1.574 1_565 S
C434 H428 0.949 . S
C434 C438 1.368 . S
C435 C416 1.429 . S
C435 C429 1.429 . S
C435 C436 1.523 . S
C436 C417 1.368 . S
C436 C430 1.368 . S
C436 C435 1.523 . S
C437 C421 1.429 . S
C437 C433 1.429 . S
C437 C438 1.523 . S
C438 C422 1.368 . S
C438 C434 1.368 . S
C438 C437 1.523 . S
H439 C414 0.950 . S
H440 C416 0.950 . S
H441 C417 0.949 . S
H442 C419 0.950 . S
H443 C421 0.950 . S
C444 C445 1.349 . S
C444 C446 1.327 . S
C444 H469 0.950 . S
C445 C444 1.349 . S
C445 C461 1.349 . S
C446 C444 1.327 . S
C446 C465 1.429 . S
C446 H470 0.950 . S
C447 C464 1.574 1_455 S
C447 C466 1.368 . S
C447 H471 0.949 . S
H448 C452 0.949 . S
C449 C450 1.349 . S
C449 C451 1.327 . S
C449 H472 0.950 . S
C450 C449 1.349 . S
C450 C462 1.349 . S
C451 C449 1.327 . S
C451 C467 1.429 . S
C451 H473 0.950 . S
C452 H448 0.949 . S
C452 C460 1.574 1_655 S
C452 C468 1.368 . S
H453 C461 0.950 . S
H454 C459 0.950 . S
H455 C460 0.949 . S
H456 C462 0.950 . S
H457 C463 0.950 . S
H458 C464 0.949 . S
C459 H454 0.950 . S
C459 C461 1.327 . S
C459 C465 1.429 . S
C460 C452 1.574 1_455 S
C460 H455 0.949 . S
C460 C466 1.368 . S
C461 C445 1.349 . S
C461 H453 0.950 . S
C461 C459 1.327 . S
C462 C450 1.349 . S
C462 H456 0.950 . S
C462 C463 1.327 . S
C463 H457 0.950 . S
C463 C462 1.327 . S
C463 C467 1.429 . S
C464 C447 1.574 1_655 S
C464 H458 0.949 . S
C464 C468 1.368 . S
C465 C446 1.429 . S
C465 C459 1.429 . S
C465 C466 1.523 . S
C466 C447 1.368 . S
C466 C460 1.368 . S
C466 C465 1.523 . S
C467 C451 1.429 . S
C467 C463 1.429 . S
C467 C468 1.523 . S
C468 C452 1.368 . S
C468 C464 1.368 . S
C468 C467 1.523 . S
H469 C444 0.950 . S
H470 C446 0.950 . S
H471 C447 0.949 . S
H472 C449 0.950 . S
H473 C451 0.950 . S
C474 C475 1.349 . S
C474 C476 1.327 . S
C474 H499 0.950 . S
C475 C474 1.349 . S
C475 C491 1.349 . S
C476 C474 1.327 . S
C476 C495 1.429 . S
C476 H500 0.950 . S
C477 C494 1.574 1_545 S
C477 C496 1.368 . S
C477 H501 0.949 . S
H478 C482 0.949 . S
C479 C480 1.349 . S
C479 C481 1.327 . S
C479 H502 0.950 . S
C480 C479 1.349 . S
C480 C492 1.349 . S
C481 C479 1.327 . S
C481 C497 1.429 . S
C481 H503 0.950 . S
C482 H478 0.949 . S
C482 C490 1.574 1_565 S
C482 C498 1.368 . S
H483 C491 0.950 . S
H484 C489 0.950 . S
H485 C490 0.949 . S
H486 C492 0.950 . S
H487 C493 0.950 . S
H488 C494 0.949 . S
C489 H484 0.950 . S
C489 C491 1.327 . S
C489 C495 1.429 . S
C490 C482 1.574 1_545 S
C490 H485 0.949 . S
C490 C496 1.368 . S
C491 C475 1.349 . S
C491 H483 0.950 . S
C491 C489 1.327 . S
C492 C480 1.349 . S
C492 H486 0.950 . S
C492 C493 1.327 . S
C493 H487 0.950 . S
C493 C492 1.327 . S
C493 C497 1.429 . S
C494 C477 1.574 1_565 S
C494 H488 0.949 . S
C494 C498 1.368 . S
C495 C476 1.429 . S
C495 C489 1.429 . S
C495 C496 1.523 . S
C496 C477 1.368 . S
C496 C490 1.368 . S
C496 C495 1.523 . S
C497 C481 1.429 . S
C497 C493 1.429 . S
C497 C498 1.523 . S
C498 C482 1.368 . S
C498 C494 1.368 . S
C498 C497 1.523 . S
H499 C474 0.950 . S
H500 C476 0.950 . S
H501 C477 0.949 . S
H502 C479 0.950 . S
H503 C481 0.950 . S
C504 C505 1.349 . S
C504 C506 1.327 . S
C504 H529 0.950 . S
C505 C504 1.349 . S
C505 C521 1.349 . S
C506 C504 1.327 . S
C506 C525 1.429 . S
C506 H530 0.950 . S
C507 C524 1.574 . S
C507 C526 1.368 . S
C507 H531 0.949 . S
H508 C512 0.949 . S
C509 C510 1.349 . S
C509 C511 1.327 . S
C509 H532 0.950 . S
C510 C509 1.349 . S
C510 C522 1.349 . S
C511 C509 1.327 . S
C511 C527 1.429 . S
C511 H533 0.950 . S
C512 H508 0.949 . S
C512 C520 1.574 . S
C512 C528 1.368 . S
H513 C521 0.950 . S
H514 C519 0.950 . S
H515 C520 0.949 . S
H516 C522 0.950 . S
H517 C523 0.950 . S
H518 C524 0.949 . S
C519 H514 0.950 . S
C519 C521 1.327 . S
C519 C525 1.429 . S
C520 C512 1.574 . S
C520 H515 0.949 . S
C520 C526 1.368 . S
C521 C505 1.349 . S
C521 H513 0.950 . S
C521 C519 1.327 . S
C522 C510 1.349 . S
C522 H516 0.950 . S
C522 C523 1.327 . S
C523 H517 0.950 . S
C523 C522 1.327 . S
C523 C527 1.429 . S
C524 C507 1.574 . S
C524 H518 0.949 . S
C524 C528 1.368 . S
C525 C506 1.429 . S
C525 C519 1.429 . S
C525 C526 1.523 . S
C526 C507 1.368 . S
C526 C520 1.368 . S
C526 C525 1.523 . S
C527 C511 1.429 . S
C527 C523 1.429 . S
C527 C528 1.523 . S
C528 C512 1.368 . S
C528 C524 1.368 . S
C528 C527 1.523 . S
H529 C504 0.950 . S
H530 C506 0.950 . S
H531 C507 0.949 . S
H532 C509 0.950 . S
H533 C511 0.950 . S
C534 C535 1.349 . S
C534 C536 1.327 . S
C534 H559 0.950 . S
C535 C534 1.349 . S
C535 C551 1.349 . S
C536 C534 1.327 . S
C536 C555 1.429 . S
C536 H560 0.950 . S
C537 C554 1.574 . S
C537 C556 1.368 . S
C537 H561 0.949 . S
H538 C542 0.949 . S
C539 C540 1.349 . S
C539 C541 1.327 . S
C539 H562 0.950 . S
C540 C539 1.349 . S
C540 C552 1.349 . S
C541 C539 1.327 . S
C541 C557 1.429 . S
C541 H563 0.950 . S
C542 H538 0.949 . S
C542 C550 1.574 . S
C542 C558 1.368 . S
H543 C551 0.950 . S
H544 C549 0.950 . S
H545 C550 0.949 . S
H546 C552 0.950 . S
H547 C553 0.950 . S
H548 C554 0.949 . S
C549 H544 0.950 . S
C549 C551 1.327 . S
C549 C555 1.429 . S
C550 C542 1.574 . S
C550 H545 0.949 . S
C550 C556 1.368 . S
C551 C535 1.349 . S
C551 H543 0.950 . S
C551 C549 1.327 . S
C552 C540 1.349 . S
C552 H546 0.950 . S
C552 C553 1.327 . S
C553 H547 0.950 . S
C553 C552 1.327 . S
C553 C557 1.429 . S
C554 C537 1.574 . S
C554 H548 0.949 . S
C554 C558 1.368 . S
C555 C536 1.429 . S
C555 C549 1.429 . S
C555 C556 1.523 . S
C556 C537 1.368 . S
C556 C550 1.368 . S
C556 C555 1.523 . S
C557 C541 1.429 . S
C557 C553 1.429 . S
C557 C558 1.523 . S
C558 C542 1.368 . S
C558 C554 1.368 . S
C558 C557 1.523 . S
H559 C534 0.950 . S
H560 C536 0.950 . S
H561 C537 0.949 . S
H562 C539 0.950 . S
H563 C541 0.950 . S
C564 C565 1.349 . S
C564 C566 1.327 . S
C564 H589 0.950 . S
C565 C564 1.349 . S
C565 C581 1.349 . S
C566 C564 1.327 . S
C566 C585 1.429 . S
C566 H590 0.950 . S
C567 C584 1.574 . S
C567 C586 1.368 . S
C567 H591 0.949 . S
H568 C572 0.949 . S
C569 C570 1.349 . S
C569 C571 1.327 . S
C569 H592 0.950 . S
C570 C569 1.349 . S
C570 C582 1.349 . S
C571 C569 1.327 . S
C571 C587 1.429 . S
C571 H593 0.950 . S
C572 H568 0.949 . S
C572 C580 1.574 . S
C572 C588 1.368 . S
H573 C581 0.950 . S
H574 C579 0.950 . S
H575 C580 0.949 . S
H576 C582 0.950 . S
H577 C583 0.950 . S
H578 C584 0.949 . S
C579 H574 0.950 . S
C579 C581 1.327 . S
C579 C585 1.429 . S
C580 C572 1.574 . S
C580 H575 0.949 . S
C580 C586 1.368 . S
C581 C565 1.349 . S
C581 H573 0.950 . S
C581 C579 1.327 . S
C582 C570 1.349 . S
C582 H576 0.950 . S
C582 C583 1.327 . S
C583 H577 0.950 . S
C583 C582 1.327 . S
C583 C587 1.429 . S
C584 C567 1.574 . S
C584 H578 0.949 . S
C584 C588 1.368 . S
C585 C566 1.429 . S
C585 C579 1.429 . S
C585 C586 1.523 . S
C586 C567 1.368 . S
C586 C580 1.368 . S
C586 C585 1.523 . S
C587 C571 1.429 . S
C587 C583 1.429 . S
C587 C588 1.523 . S
C588 C572 1.368 . S
C588 C584 1.368 . S
C588 C587 1.523 . S
H589 C564 0.950 . S
H590 C566 0.950 . S
H591 C567 0.949 . S
H592 C569 0.950 . S
H593 C571 0.950 . S
C594 C595 1.349 . S
C594 C596 1.327 . S
C594 H619 0.950 . S
C595 C594 1.349 . S
C595 C611 1.349 . S
C596 C594 1.327 . S
C596 C615 1.429 . S
C596 H620 0.950 . S
C597 C614 1.574 . S
C597 C616 1.368 . S
C597 H621 0.949 . S
H598 C602 0.949 . S
C599 C600 1.349 . S
C599 C601 1.327 . S
C599 H622 0.950 . S
C600 C599 1.349 . S
C600 C612 1.349 . S
C601 C599 1.327 . S
C601 C617 1.429 . S
C601 H623 0.950 . S
C602 H598 0.949 . S
C602 C610 1.574 . S
C602 C618 1.368 . S
H603 C611 0.950 . S
H604 C609 0.950 . S
H605 C610 0.949 . S
H606 C612 0.950 . S
H607 C613 0.950 . S
H608 C614 0.949 . S
C609 H604 0.950 . S
C609 C611 1.327 . S
C609 C615 1.429 . S
C610 C602 1.574 . S
C610 H605 0.949 . S
C610 C616 1.368 . S
C611 C595 1.349 . S
C611 H603 0.950 . S
C611 C609 1.327 . S
C612 C600 1.349 . S
C612 H606 0.950 . S
C612 C613 1.327 . S
C613 H607 0.950 . S
C613 C612 1.327 . S
C613 C617 1.429 . S
C614 C597 1.574 . S
C614 H608 0.949 . S
C614 C618 1.368 . S
C615 C596 1.429 . S
C615 C609 1.429 . S
C615 C616 1.523 . S
C616 C597 1.368 . S
C616 C610 1.368 . S
C616 C615 1.523 . S
C617 C601 1.429 . S
C617 C613 1.429 . S
C617 C618 1.523 . S
C618 C602 1.368 . S
C618 C614 1.368 . S
C618 C617 1.523 . S
H619 C594 0.950 . S
H620 C596 0.950 . S
H621 C597 0.949 . S
H622 C599 0.950 . S
H623 C601 0.950 . S
C624 C625 1.349 . S
C624 C626 1.327 . S
C624 H649 0.950 . S
C625 C624 1.349 . S
C625 C641 1.349 . S
C626 C624 1.327 . S
C626 C645 1.429 . S
C626 H650 0.950 . S
C627 C644 1.574 . S
C627 C646 1.368 . S
C627 H651 0.949 . S
H628 C632 0.949 . S
C629 C630 1.349 . S
C629 C631 1.327 . S
C629 H652 0.950 . S
C630 C629 1.349 . S
C630 C642 1.349 . S
C631 C629 1.327 . S
C631 C647 1.429 . S
C631 H653 0.950 . S
C632 H628 0.949 . S
C632 C640 1.574 . S
C632 C648 1.368 . S
H633 C641 0.950 . S
H634 C639 0.950 . S
H635 C640 0.949 . S
H636 C642 0.950 . S
H637 C643 0.950 . S
H638 C644 0.949 . S
C639 H634 0.950 . S
C639 C641 1.327 . S
C639 C645 1.429 . S
C640 C632 1.574 . S
C640 H635 0.949 . S
C640 C646 1.368 . S
C641 C625 1.349 . S
C641 H633 0.950 . S
C641 C639 1.327 . S
C642 C630 1.349 . S
C642 H636 0.950 . S
C642 C643 1.327 . S
C643 H637 0.950 . S
C643 C642 1.327 . S
C643 C647 1.429 . S
C644 C627 1.574 . S
C644 H638 0.949 . S
C644 C648 1.368 . S
C645 C626 1.429 . S
C645 C639 1.429 . S
C645 C646 1.523 . S
C646 C627 1.368 . S
C646 C640 1.368 . S
C646 C645 1.523 . S
C647 C631 1.429 . S
C647 C643 1.429 . S
C647 C648 1.523 . S
C648 C632 1.368 . S
C648 C644 1.368 . S
C648 C647 1.523 . S
H649 C624 0.950 . S
H650 C626 0.950 . S
H651 C627 0.949 . S
H652 C629 0.950 . S
H653 C631 0.950 . S
C654 C655 1.349 . S
C654 C656 1.327 . S
C654 H679 0.950 . S
C655 C654 1.349 . S
C655 C671 1.349 . S
C656 C654 1.327 . S
C656 C675 1.429 . S
C656 H680 0.950 . S
C657 C674 1.574 . S
C657 C676 1.368 . S
C657 H681 0.949 . S
H658 C662 0.949 . S
C659 C660 1.349 . S
C659 C661 1.327 . S
C659 H682 0.950 . S
C660 C659 1.349 . S
C660 C672 1.349 . S
C661 C659 1.327 . S
C661 C677 1.429 . S
C661 H683 0.950 . S
C662 H658 0.949 . S
C662 C670 1.574 . S
C662 C678 1.368 . S
H663 C671 0.950 . S
H664 C669 0.950 . S
H665 C670 0.949 . S
H666 C672 0.950 . S
H667 C673 0.950 . S
H668 C674 0.949 . S
C669 H664 0.950 . S
C669 C671 1.327 . S
C669 C675 1.429 . S
C670 C662 1.574 . S
C670 H665 0.949 . S
C670 C676 1.368 . S
C671 C655 1.349 . S
C671 H663 0.950 . S
C671 C669 1.327 . S
C672 C660 1.349 . S
C672 H666 0.950 . S
C672 C673 1.327 . S
C673 H667 0.950 . S
C673 C672 1.327 . S
C673 C677 1.429 . S
C674 C657 1.574 . S
C674 H668 0.949 . S
C674 C678 1.368 . S
C675 C656 1.429 . S
C675 C669 1.429 . S
C675 C676 1.523 . S
C676 C657 1.368 . S
C676 C670 1.368 . S
C676 C675 1.523 . S
C677 C661 1.429 . S
C677 C673 1.429 . S
C677 C678 1.523 . S
C678 C662 1.368 . S
C678 C674 1.368 . S
C678 C677 1.523 . S
H679 C654 0.950 . S
H680 C656 0.950 . S
H681 C657 0.949 . S
H682 C659 0.950 . S
H683 C661 0.950 . S
C684 C685 1.349 . S
C684 C686 1.327 . S
C684 H709 0.950 . S
C685 C684 1.349 . S
C685 C701 1.349 . S
C686 C684 1.327 . S
C686 C705 1.429 . S
C686 H710 0.950 . S
C687 C704 1.574 . S
C687 C706 1.368 . S
C687 H711 0.949 . S
H688 C692 0.949 . S
C689 C690 1.349 . S
C689 C691 1.327 . S
C689 H712 0.950 . S
C690 C689 1.349 . S
C690 C702 1.349 . S
C691 C689 1.327 . S
C691 C707 1.429 . S
C691 H713 0.950 . S
C692 H688 0.949 . S
C692 C700 1.574 . S
C692 C708 1.368 . S
H693 C701 0.950 . S
H694 C699 0.950 . S
H695 C700 0.949 . S
H696 C702 0.950 . S
H697 C703 0.950 . S
H698 C704 0.949 . S
C699 H694 0.950 . S
C699 C701 1.327 . S
C699 C705 1.429 . S
C700 C692 1.574 . S
C700 H695 0.949 . S
C700 C706 1.368 . S
C701 C685 1.349 . S
C701 H693 0.950 . S
C701 C699 1.327 . S
C702 C690 1.349 . S
C702 H696 0.950 . S
C702 C703 1.327 . S
C703 H697 0.950 . S
C703 C702 1.327 . S
C703 C707 1.429 . S
C704 C687 1.574 . S
C704 H698 0.949 . S
C704 C708 1.368 . S
C705 C686 1.429 . S
C705 C699 1.429 . S
C705 C706 1.523 . S
C706 C687 1.368 . S
C706 C700 1.368 . S
C706 C705 1.523 . S
C707 C691 1.429 . S
C707 C703 1.429 . S
C707 C708 1.523 . S
C708 C692 1.368 . S
C708 C704 1.368 . S
C708 C707 1.523 . S
H709 C684 0.950 . S
H710 C686 0.950 . S
H711 C687 0.949 . S
H712 C689 0.950 . S
H713 C691 0.950 . S
C714 C715 1.349 . S
C714 C716 1.327 . S
C714 H739 0.950 . S
C715 C714 1.349 . S
C715 C731 1.349 . S
C716 C714 1.327 . S
C716 C735 1.429 . S
C716 H740 0.950 . S
C717 C734 1.574 . S
C717 C736 1.368 . S
C717 H741 0.949 . S
H718 C722 0.949 . S
C719 C720 1.349 . S
C719 C721 1.327 . S
C719 H742 0.950 . S
C720 C719 1.349 . S
C720 C732 1.349 . S
C721 C719 1.327 . S
C721 C737 1.429 . S
C721 H743 0.950 . S
C722 H718 0.949 . S
C722 C730 1.574 . S
C722 C738 1.368 . S
H723 C731 0.950 . S
H724 C729 0.950 . S
H725 C730 0.949 . S
H726 C732 0.950 . S
H727 C733 0.950 . S
H728 C734 0.949 . S
C729 H724 0.950 . S
C729 C731 1.327 . S
C729 C735 1.429 . S
C730 C722 1.574 . S
C730 H725 0.949 . S
C730 C736 1.368 . S
C731 C715 1.349 . S
C731 H723 0.950 . S
C731 C729 1.327 . S
C732 C720 1.349 . S
C732 H726 0.950 . S
C732 C733 1.327 . S
C733 H727 0.950 . S
C733 C732 1.327 . S
C733 C737 1.429 . S
C734 C717 1.574 . S
C734 H728 0.949 . S
C734 C738 1.368 . S
C735 C716 1.429 . S
C735 C729 1.429 . S
C735 C736 1.523 . S
C736 C717 1.368 . S
C736 C730 1.368 . S
C736 C735 1.523 . S
C737 C721 1.429 . S
C737 C733 1.429 . S
C737 C738 1.523 . S
C738 C722 1.368 . S
C738 C734 1.368 . S
C738 C737 1.523 . S
H739 C714 0.950 . S
H740 C716 0.950 . S
H741 C717 0.949 . S
H742 C719 0.950 . S
H743 C721 0.950 . S
C744 C745 1.349 . S
C744 C746 1.327 . S
C744 H769 0.950 . S
C745 C744 1.349 . S
C745 C761 1.349 . S
C746 C744 1.327 . S
C746 C765 1.429 . S
C746 H770 0.950 . S
C747 C764 1.574 . S
C747 C766 1.368 . S
C747 H771 0.949 . S
H748 C752 0.949 . S
C749 C750 1.349 . S
C749 C751 1.327 . S
C749 H772 0.950 . S
C750 C749 1.349 . S
C750 C762 1.349 . S
C751 C749 1.327 . S
C751 C767 1.429 . S
C751 H773 0.950 . S
C752 H748 0.949 . S
C752 C760 1.574 . S
C752 C768 1.368 . S
H753 C761 0.950 . S
H754 C759 0.950 . S
H755 C760 0.949 . S
H756 C762 0.950 . S
H757 C763 0.950 . S
H758 C764 0.949 . S
C759 H754 0.950 . S
C759 C761 1.327 . S
C759 C765 1.429 . S
C760 C752 1.574 . S
C760 H755 0.949 . S
C760 C766 1.368 . S
C761 C745 1.349 . S
C761 H753 0.950 . S
C761 C759 1.327 . S
C762 C750 1.349 . S
C762 H756 0.950 . S
C762 C763 1.327 . S
C763 H757 0.950 . S
C763 C762 1.327 . S
C763 C767 1.429 . S
C764 C747 1.574 . S
C764 H758 0.949 . S
C764 C768 1.368 . S
C765 C746 1.429 . S
C765 C759 1.429 . S
C765 C766 1.523 . S
C766 C747 1.368 . S
C766 C760 1.368 . S
C766 C765 1.523 . S
C767 C751 1.429 . S
C767 C763 1.429 . S
C767 C768 1.523 . S
C768 C752 1.368 . S
C768 C764 1.368 . S
C768 C767 1.523 . S
H769 C744 0.950 . S
H770 C746 0.950 . S
H771 C747 0.949 . S
H772 C749 0.950 . S
H773 C751 0.950 . S
C774 C775 1.349 . S
C774 C776 1.327 . S
C774 H799 0.950 . S
C775 C774 1.349 . S
C775 C791 1.349 . S
C776 C774 1.327 . S
C776 C795 1.429 . S
C776 H800 0.950 . S
C777 C794 1.574 . S
C777 C796 1.368 . S
C777 H801 0.949 . S
H778 C782 0.949 . S
C779 C780 1.349 . S
C779 C781 1.327 . S
C779 H802 0.950 . S
C780 C779 1.349 . S
C780 C792 1.349 . S
C781 C779 1.327 . S
C781 C797 1.429 . S
C781 H803 0.950 . S
C782 H778 0.949 . S
C782 C790 1.574 . S
C782 C798 1.368 . S
H783 C791 0.950 . S
H784 C789 0.950 . S
H785 C790 0.949 . S
H786 C792 0.950 . S
H787 C793 0.950 . S
H788 C794 0.949 . S
C789 H784 0.950 . S
C789 C791 1.327 . S
C789 C795 1.429 . S
C790 C782 1.574 . S
C790 H785 0.949 . S
C790 C796 1.368 . S
C791 C775 1.349 . S
C791 H783 0.950 . S
C791 C789 1.327 . S
C792 C780 1.349 . S
C792 H786 0.950 . S
C792 C793 1.327 . S
C793 H787 0.950 . S
C793 C792 1.327 . S
C793 C797 1.429 . S
C794 C777 1.574 . S
C794 H788 0.949 . S
C794 C798 1.368 . S
C795 C776 1.429 . S
C795 C789 1.429 . S
C795 C796 1.523 . S
C796 C777 1.368 . S
C796 C790 1.368 . S
C796 C795 1.523 . S
C797 C781 1.429 . S
C797 C793 1.429 . S
C797 C798 1.523 . S
C798 C782 1.368 . S
C798 C794 1.368 . S
C798 C797 1.523 . S
H799 C774 0.950 . S
H800 C776 0.950 . S
H801 C777 0.949 . S
H802 C779 0.950 . S
H803 C781 0.950 . S
C804 C805 1.349 . S
C804 C806 1.327 . S
C804 H829 0.950 . S
C805 C804 1.349 . S
C805 C821 1.349 . S
C806 C804 1.327 . S
C806 C825 1.429 . S
C806 H830 0.950 . S
C807 C824 1.574 . S
C807 C826 1.368 . S
C807 H831 0.949 . S
H808 C812 0.949 . S
C809 C810 1.349 . S
C809 C811 1.327 . S
C809 H832 0.950 . S
C810 C809 1.349 . S
C810 C822 1.349 . S
C811 C809 1.327 . S
C811 C827 1.429 . S
C811 H833 0.950 . S
C812 H808 0.949 . S
C812 C820 1.574 . S
C812 C828 1.368 . S
H813 C821 0.950 . S
H814 C819 0.950 . S
H815 C820 0.949 . S
H816 C822 0.950 . S
H817 C823 0.950 . S
H818 C824 0.949 . S
C819 H814 0.950 . S
C819 C821 1.327 . S
C819 C825 1.429 . S
C820 C812 1.574 . S
C820 H815 0.949 . S
C820 C826 1.368 . S
C821 C805 1.349 . S
C821 H813 0.950 . S
C821 C819 1.327 . S
C822 C810 1.349 . S
C822 H816 0.950 . S
C822 C823 1.327 . S
C823 H817 0.950 . S
C823 C822 1.327 . S
C823 C827 1.429 . S
C824 C807 1.574 . S
C824 H818 0.949 . S
C824 C828 1.368 . S
C825 C806 1.429 . S
C825 C819 1.429 . S
C825 C826 1.523 . S
C826 C807 1.368 . S
C826 C820 1.368 . S
C826 C825 1.523 . S
C827 C811 1.429 . S
C827 C823 1.429 . S
C827 C828 1.523 . S
C828 C812 1.368 . S
C828 C824 1.368 . S
C828 C827 1.523 . S
H829 C804 0.950 . S
H830 C806 0.950 . S
H831 C807 0.949 . S
H832 C809 0.950 . S
H833 C811 0.950 . S
C834 C835 1.349 . S
C834 C836 1.327 . S
C834 H859 0.950 . S
C835 C834 1.349 . S
C835 C851 1.349 . S
C836 C834 1.327 . S
C836 C855 1.429 . S
C836 H860 0.950 . S
C837 C854 1.574 . S
C837 C856 1.368 . S
C837 H861 0.949 . S
H838 C842 0.949 . S
C839 C840 1.349 . S
C839 C841 1.327 . S
C839 H862 0.950 . S
C840 C839 1.349 . S
C840 C852 1.349 . S
C841 C839 1.327 . S
C841 C857 1.429 . S
C841 H863 0.950 . S
C842 H838 0.949 . S
C842 C850 1.574 . S
C842 C858 1.368 . S
H843 C851 0.950 . S
H844 C849 0.950 . S
H845 C850 0.949 . S
H846 C852 0.950 . S
H847 C853 0.950 . S
H848 C854 0.949 . S
C849 H844 0.950 . S
C849 C851 1.327 . S
C849 C855 1.429 . S
C850 C842 1.574 . S
C850 H845 0.949 . S
C850 C856 1.368 . S
C851 C835 1.349 . S
C851 H843 0.950 . S
C851 C849 1.327 . S
C852 C840 1.349 . S
C852 H846 0.950 . S
C852 C853 1.327 . S
C853 H847 0.950 . S
C853 C852 1.327 . S
C853 C857 1.429 . S
C854 C837 1.574 . S
C854 H848 0.949 . S
C854 C858 1.368 . S
C855 C836 1.429 . S
C855 C849 1.429 . S
C855 C856 1.523 . S
C856 C837 1.368 . S
C856 C850 1.368 . S
C856 C855 1.523 . S
C857 C841 1.429 . S
C857 C853 1.429 . S
C857 C858 1.523 . S
C858 C842 1.368 . S
C858 C854 1.368 . S
C858 C857 1.523 . S
H859 C834 0.950 . S
H860 C836 0.950 . S
H861 C837 0.949 . S
H862 C839 0.950 . S
H863 C841 0.950 . S
C265 N134 0.461 . S
C270 N2 0.461 . S
C295 N35 0.461 . S
C300 N167 0.461 . S
C325 N68 0.461 . S
C330 N200 0.461 . S
C355 N101 0.461 . S
C360 N233 0.461 . S
C385 C21 0.809 . S
C390 C219 0.809 . S
C415 C54 0.809 . S
C420 C252 0.809 . S
C445 C153 0.809 . S
C450 C87 0.809 . S
C475 C186 0.809 . S
C480 C120 0.809 . S
C505 C249 0.426 . S
C510 C18 0.426 . S
C535 C51 0.426 . S
C540 C150 0.426 . S
C565 C183 0.426 . S
C570 C84 0.426 . S
C595 C216 0.426 . S
C600 C117 0.426 . S
C625 C7 1.895 . S
C630 N46 1.959 . S
C655 C40 1.895 . S
C660 N79 1.959 . S
C685 N112 1.959 . S
C690 C73 1.896 . S
C715 N13 1.959 . S
C720 C106 1.895 . S
C745 C139 1.895 . S
C750 N244 1.959 . S
C775 N145 1.959 . S
C780 C172 1.895 . S
C805 C205 1.896 . S
C810 N178 1.959 . S
C835 C238 1.895 . S
C840 N211 1.959 . S
