# Generated by pormake.
# Topology wgz, (6)-cn, num edge types: 1
# Building blocks:
#     Node 0, Type 0, BuildingBlock: VOLQOD_clean_sbu_1, # of connection points: 6
#     Node 1, Type 0, BuildingBlock: VOLQOD_clean_sbu_1, # of connection points: 6
#     Node 2, Type 0, BuildingBlock: VOLQOD_clean_sbu_1, # of connection points: 6
#     Node 3, Type 0, BuildingBlock: VOLQOD_clean_sbu_1, # of connection points: 6
#     Node 4, Type 0, BuildingBlock: VOLQOD_clean_sbu_1, # of connection points: 6
#     Node 5, Type 0, BuildingBlock: VOLQOD_clean_sbu_1, # of connection points: 6
#     Node 6, Type 0, BuildingBlock: VOLQOD_clean_sbu_1, # of connection points: 6
#     Node 7, Type 0, BuildingBlock: VOLQOD_clean_sbu_1, # of connection points: 6
#     Node 8, Type 0, BuildingBlock: VOLQOD_clean_sbu_1, # of connection points: 6
#     Node 9, Type 0, BuildingBlock: VOLQOD_clean_sbu_1, # of connection points: 6
#     Node 10, Type 0, BuildingBlock: VOLQOD_clean_sbu_1, # of connection points: 6
#     Node 11, Type 0, BuildingBlock: VOLQOD_clean_sbu_1, # of connection points: 6
#     Node 12, Type 0, BuildingBlock: VOLQOD_clean_sbu_1, # of connection points: 6
#     Node 13, Type 0, BuildingBlock: VOLQOD_clean_sbu_1, # of connection points: 6
#     Node 14, Type 0, BuildingBlock: VOLQOD_clean_sbu_1, # of connection points: 6
#     Node 15, Type 0, BuildingBlock: VOLQOD_clean_sbu_1, # of connection points: 6
#     Edge 16, Type (0, 0), BuildingBlock: OJICUG_clean_linker_0, # of connection points: 2
#     Edge 17, Type (0, 0), BuildingBlock: OJICUG_clean_linker_0, # of connection points: 2
#     Edge 18, Type (0, 0), BuildingBlock: OJICUG_clean_linker_0, # of connection points: 2
#     Edge 19, Type (0, 0), BuildingBlock: OJICUG_clean_linker_0, # of connection points: 2
#     Edge 20, Type (0, 0), BuildingBlock: OJICUG_clean_linker_0, # of connection points: 2
#     Edge 21, Type (0, 0), BuildingBlock: OJICUG_clean_linker_0, # of connection points: 2
#     Edge 22, Type (0, 0), BuildingBlock: OJICUG_clean_linker_0, # of connection points: 2
#     Edge 23, Type (0, 0), BuildingBlock: OJICUG_clean_linker_0, # of connection points: 2
#     Edge 24, Type (0, 0), BuildingBlock: OJICUG_clean_linker_0, # of connection points: 2
#     Edge 25, Type (0, 0), BuildingBlock: OJICUG_clean_linker_0, # of connection points: 2
#     Edge 26, Type (0, 0), BuildingBlock: OJICUG_clean_linker_0, # of connection points: 2
#     Edge 27, Type (0, 0), BuildingBlock: OJICUG_clean_linker_0, # of connection points: 2
#     Edge 28, Type (0, 0), BuildingBlock: OJICUG_clean_linker_0, # of connection points: 2
#     Edge 29, Type (0, 0), BuildingBlock: OJICUG_clean_linker_0, # of connection points: 2
#     Edge 30, Type (0, 0), BuildingBlock: OJICUG_clean_linker_0, # of connection points: 2
#     Edge 31, Type (0, 0), BuildingBlock: OJICUG_clean_linker_0, # of connection points: 2
#     Edge 32, Type (0, 0), BuildingBlock: OJICUG_clean_linker_0, # of connection points: 2
#     Edge 33, Type (0, 0), BuildingBlock: OJICUG_clean_linker_0, # of connection points: 2
#     Edge 34, Type (0, 0), BuildingBlock: OJICUG_clean_linker_0, # of connection points: 2
#     Edge 35, Type (0, 0), BuildingBlock: OJICUG_clean_linker_0, # of connection points: 2
#     Edge 36, Type (0, 0), BuildingBlock: OJICUG_clean_linker_0, # of connection points: 2
#     Edge 37, Type (0, 0), BuildingBlock: OJICUG_clean_linker_0, # of connection points: 2
#     Edge 38, Type (0, 0), BuildingBlock: OJICUG_clean_linker_0, # of connection points: 2
#     Edge 39, Type (0, 0), BuildingBlock: OJICUG_clean_linker_0, # of connection points: 2
#     Edge 40, Type (0, 0), BuildingBlock: OJICUG_clean_linker_0, # of connection points: 2
#     Edge 41, Type (0, 0), BuildingBlock: OJICUG_clean_linker_0, # of connection points: 2
#     Edge 42, Type (0, 0), BuildingBlock: OJICUG_clean_linker_0, # of connection points: 2
#     Edge 43, Type (0, 0), BuildingBlock: OJICUG_clean_linker_0, # of connection points: 2
#     Edge 44, Type (0, 0), BuildingBlock: OJICUG_clean_linker_0, # of connection points: 2
#     Edge 45, Type (0, 0), BuildingBlock: OJICUG_clean_linker_0, # of connection points: 2
#     Edge 46, Type (0, 0), BuildingBlock: OJICUG_clean_linker_0, # of connection points: 2
#     Edge 47, Type (0, 0), BuildingBlock: OJICUG_clean_linker_0, # of connection points: 2
#     Edge 48, Type (0, 0), BuildingBlock: OJICUG_clean_linker_0, # of connection points: 2
#     Edge 49, Type (0, 0), BuildingBlock: OJICUG_clean_linker_0, # of connection points: 2
#     Edge 50, Type (0, 0), BuildingBlock: OJICUG_clean_linker_0, # of connection points: 2
#     Edge 51, Type (0, 0), BuildingBlock: OJICUG_clean_linker_0, # of connection points: 2
#     Edge 52, Type (0, 0), BuildingBlock: OJICUG_clean_linker_0, # of connection points: 2
#     Edge 53, Type (0, 0), BuildingBlock: OJICUG_clean_linker_0, # of connection points: 2
#     Edge 54, Type (0, 0), BuildingBlock: OJICUG_clean_linker_0, # of connection points: 2
#     Edge 55, Type (0, 0), BuildingBlock: OJICUG_clean_linker_0, # of connection points: 2
#     Edge 56, Type (0, 0), BuildingBlock: OJICUG_clean_linker_0, # of connection points: 2
#     Edge 57, Type (0, 0), BuildingBlock: OJICUG_clean_linker_0, # of connection points: 2
#     Edge 58, Type (0, 0), BuildingBlock: OJICUG_clean_linker_0, # of connection points: 2
#     Edge 59, Type (0, 0), BuildingBlock: OJICUG_clean_linker_0, # of connection points: 2
#     Edge 60, Type (0, 0), BuildingBlock: OJICUG_clean_linker_0, # of connection points: 2
#     Edge 61, Type (0, 0), BuildingBlock: OJICUG_clean_linker_0, # of connection points: 2
#     Edge 62, Type (0, 0), BuildingBlock: OJICUG_clean_linker_0, # of connection points: 2
#     Edge 63, Type (0, 0), BuildingBlock: OJICUG_clean_linker_0, # of connection points: 2
# Relax obj value: 0.567
# Max RMSD: 0.288
# Mean RMSD: 0.288
data_MOF--net-wgz--node1-VOLQOD_clean_sbu_1--edge1-OJICUG_clean_linker_0
_symmetry_space_group_name_H-M    P1
_symmetry_Int_Tables_number       1
_symmetry_cell_setting            triclinic
loop_
_symmetry_equiv_pos_as_xyz
'x, y, z'
_cell_length_a     26.747481
_cell_length_b     26.897821
_cell_length_c     40.326108
_cell_angle_alpha  90.368105
_cell_angle_beta   89.102067
_cell_angle_gamma 89.182017
loop_
_atom_site_label
_atom_site_type_symbol
_atom_site_fract_x
_atom_site_fract_y
_atom_site_fract_z
_atom_type_partial_charge
O0 O 0.10615 0.29354 0.16052 0.0
Zn1 Zn 0.11497 0.30798 0.1089 0.0
O2 O 0.17838 0.33927 0.11074 0.0
Zn3 Zn 0.22915 0.28933 0.10667 0.0
Zn4 Zn 0.18511 0.37503 0.15097 0.0
Zn5 Zn 0.1856 0.38491 0.07631 0.0
O6 O 0.28034 0.31754 0.07646 0.0
O7 O 0.22398 0.34679 0.0414 0.0
O8 O 0.12731 0.24932 0.07281 0.0
O9 O 0.20671 0.22894 0.08195 0.0
O10 O 0.26052 0.27546 0.15025 0.0
O11 O 0.23607 0.34174 0.17993 0.0
O12 O 0.2109 0.44344 0.14462 0.0
O13 O 0.06519 0.36343 0.09241 0.0
O14 O 0.22928 0.4418 0.09088 0.0
O15 O 0.11701 0.41414 0.06561 0.0
C16 C 0.10909 0.32957 0.18165 0.0
C17 C 0.26844 0.33182 0.04761 0.0
C18 C 0.26194 0.3019 0.17655 0.0
C19 C 0.16642 0.22197 0.06631 0.0
C20 C 0.23247 0.46212 0.11938 0.0
C21 C 0.07286 0.40302 0.0754 0.0
O22 O 0.11792 0.37286 0.171 0.0
O23 O 0.61897 0.16815 0.2129 0.0
Zn24 Zn 0.60877 0.16087 0.16172 0.0
O25 O 0.56188 0.21298 0.15262 0.0
Zn26 Zn 0.57334 0.23864 0.1095 0.0
Zn27 Zn 0.55989 0.26819 0.18294 0.0
Zn28 Zn 0.49658 0.18895 0.15918 0.0
O29 O 0.50742 0.24748 0.08712 0.0
O30 O 0.4536 0.21686 0.12415 0.0
O31 O 0.66925 0.17527 0.12827 0.0
O32 O 0.62309 0.19494 0.0847 0.0
O33 O 0.60789 0.30417 0.11256 0.0
O34 O 0.60253 0.32391 0.16603 0.0
O35 O 0.4877 0.28893 0.1928 0.0
O36 O 0.57395 0.09218 0.15335 0.0
O37 O 0.46859 0.21134 0.20282 0.0
O38 O 0.49406 0.11575 0.15579 0.0
C39 C 0.60583 0.20228 0.23398 0.0
C40 C 0.46281 0.23846 0.09681 0.0
C41 C 0.61826 0.33277 0.13668 0.0
C42 C 0.66565 0.18482 0.09705 0.0
C43 C 0.45763 0.25729 0.20511 0.0
C44 C 0.52719 0.08167 0.15288 0.0
O45 O 0.58509 0.2427 0.22504 0.0
O46 O 0.87965 0.66614 0.14896 0.0
Zn47 Zn 0.86864 0.64921 0.09917 0.0
O48 O 0.80505 0.6192 0.10304 0.0
Zn49 Zn 0.75463 0.66957 0.09873 0.0
Zn50 Zn 0.7965 0.58607 0.14411 0.0
Zn51 Zn 0.79861 0.57146 0.06927 0.0
O52 O 0.70415 0.64014 0.06925 0.0
O53 O 0.76031 0.60758 0.034 0.0
O54 O 0.85886 0.70825 0.0643 0.0
O55 O 0.77915 0.7289 0.0741 0.0
O56 O 0.72097 0.68582 0.14212 0.0
O57 O 0.7425 0.61959 0.17166 0.0
O58 O 0.77236 0.51669 0.13894 0.0
O59 O 0.91842 0.59298 0.08371 0.0
O60 O 0.755 0.51569 0.08537 0.0
O61 O 0.86735 0.53975 0.05933 0.0
C62 C 0.87639 0.63453 0.17276 0.0
C63 C 0.71552 0.62219 0.04083 0.0
C64 C 0.71727 0.6596 0.16822 0.0
C65 C 0.82033 0.73629 0.0588 0.0
C66 C 0.75164 0.49663 0.11414 0.0
C67 C 0.91116 0.55157 0.06862 0.0
O68 O 0.8605 0.59096 0.16734 0.0
O69 O 0.35716 0.79644 0.21126 0.0
Zn70 Zn 0.3736 0.79827 0.16056 0.0
O71 O 0.42219 0.7461 0.15428 0.0
Zn72 Zn 0.41607 0.71614 0.11158 0.0
Zn73 Zn 0.41972 0.69443 0.18694 0.0
Zn74 Zn 0.48676 0.7714 0.1614 0.0
O75 O 0.4844 0.70892 0.08985 0.0
O76 O 0.53389 0.74405 0.12691 0.0
O77 O 0.31659 0.77878 0.12705 0.0
O78 O 0.36638 0.75553 0.08485 0.0
O79 O 0.38311 0.64973 0.11594 0.0
O80 O 0.37755 0.63817 0.17037 0.0
O81 O 0.49122 0.67303 0.1969 0.0
O82 O 0.40832 0.86687 0.15124 0.0
O83 O 0.51041 0.75081 0.20578 0.0
O84 O 0.4878 0.84447 0.15782 0.0
C85 C 0.36845 0.76581 0.23446 0.0
C86 C 0.52783 0.72088 0.09968 0.0
C87 C 0.36753 0.62501 0.14079 0.0
C88 C 0.32269 0.76557 0.09644 0.0
C89 C 0.52187 0.70503 0.2077 0.0
C90 C 0.45489 0.87793 0.15279 0.0
O91 O 0.3912 0.72483 0.2282 0.0
O92 O 0.14919 0.63532 0.89524 0.0
Zn93 Zn 0.16133 0.60923 0.94356 0.0
O94 O 0.2203 0.56916 0.9389 0.0
Zn95 Zn 0.26404 0.57883 0.97508 0.0
Zn96 Zn 0.26069 0.58009 0.90108 0.0
Zn97 Zn 0.20501 0.5026 0.9293 0.0
O98 O 0.29924 0.51466 0.98472 0.0
O99 O 0.25598 0.4637 0.9527 0.0
O100 O 0.18113 0.66124 0.98145 0.0
O101 O 0.22558 0.60983 1.01292 0.0
O102 O 0.31693 0.62782 0.96344 0.0
O103 O 0.31153 0.63022 0.90878 0.0
O104 O 0.29259 0.5172 0.88375 0.0
O105 O 0.10175 0.56136 0.95566 0.0
O106 O 0.21866 0.48334 0.88157 0.0
O107 O 0.13459 0.48672 0.94344 0.0
C108 C 0.17361 0.62549 0.86812 0.0
C109 C 0.29222 0.4719 0.972 0.0
C110 C 0.33078 0.645 0.93555 0.0
C111 C 0.20425 0.65194 1.00868 0.0
C112 C 0.26464 0.48318 0.87287 0.0
C113 C 0.0976 0.51379 0.95323 0.0
O114 O 0.21591 0.60374 0.86797 0.0
O115 O 0.31987 0.12589 0.84355 0.0
Zn116 Zn 0.3248 0.11072 0.89503 0.0
O117 O 0.35603 0.16858 0.90868 0.0
Zn118 Zn 0.30769 0.21702 0.92192 0.0
Zn119 Zn 0.3998 0.19693 0.87727 0.0
Zn120 Zn 0.38866 0.15004 0.94819 0.0
O121 O 0.3294 0.2415 0.96613 0.0
O122 O 0.34476 0.16737 0.98684 0.0
O123 O 0.26446 0.11116 0.93222 0.0
O124 O 0.24016 0.18946 0.9271 0.0
O125 O 0.30424 0.27222 0.89065 0.0
O126 O 0.37737 0.26724 0.86399 0.0
O127 O 0.46739 0.19975 0.89713 0.0
O128 O 0.37868 0.05402 0.90051 0.0
O129 O 0.45154 0.18818 0.95099 0.0
O130 O 0.41295 0.07955 0.94717 0.0
C131 C 0.35677 0.13913 0.82451 0.0
C132 C 0.33655 0.21362 0.991 0.0
C133 C 0.33565 0.28931 0.86997 0.0
C134 C 0.23461 0.14755 0.94062 0.0
C135 C 0.48102 0.19982 0.92731 0.0
C136 C 0.41006 0.04774 0.92388 0.0
O137 O 0.39725 0.15533 0.8365 0.0
O138 O 0.84067 0.30255 0.88979 0.0
Zn139 Zn 0.83554 0.3255 0.94068 0.0
O140 O 0.77818 0.36821 0.94184 0.0
Zn141 Zn 0.73808 0.35896 0.98078 0.0
Zn142 Zn 0.73221 0.36232 0.90738 0.0
Zn143 Zn 0.79592 0.43412 0.9342 0.0
O144 O 0.70325 0.42337 0.99239 0.0
O145 O 0.74548 0.4737 0.95882 0.0
O146 O 0.81496 0.27362 0.97885 0.0
O147 O 0.78218 0.32872 1.01466 0.0
O148 O 0.68398 0.30931 0.97284 0.0
O149 O 0.67859 0.31691 0.91837 0.0
O150 O 0.70661 0.42841 0.89204 0.0
O151 O 0.89797 0.37026 0.95185 0.0
O152 O 0.78368 0.45461 0.88726 0.0
O153 O 0.86637 0.44703 0.94762 0.0
C154 C 0.80988 0.31091 0.86603 0.0
C155 C 0.70966 0.46572 0.97913 0.0
C156 C 0.66446 0.29751 0.94542 0.0
C157 C 0.79694 0.28445 1.00805 0.0
C158 C 0.73755 0.45956 0.88046 0.0
C159 C 0.90317 0.41782 0.95332 0.0
O160 O 0.7686 0.33339 0.87108 0.0
O161 O 0.67435 0.84005 0.84288 0.0
Zn162 Zn 0.667 0.84725 0.89501 0.0
O163 O 0.64135 0.78447 0.90827 0.0
Zn164 Zn 0.69372 0.74176 0.9237 0.0
Zn165 Zn 0.60523 0.74869 0.87646 0.0
Zn166 Zn 0.60034 0.80006 0.94588 0.0
O167 O 0.67641 0.72197 0.9709 0.0
O168 O 0.63858 0.7916 0.98725 0.0
O169 O 0.72707 0.85203 0.9303 0.0
O170 O 0.75779 0.77703 0.92058 0.0
O171 O 0.70155 0.68073 0.89679 0.0
O172 O 0.63039 0.67769 0.86952 0.0
O173 O 0.53388 0.7465 0.89119 0.0
O174 O 0.60992 0.90094 0.90213 0.0
O175 O 0.54228 0.75512 0.9458 0.0
O176 O 0.56796 0.86701 0.94368 0.0
C177 C 0.647 0.81444 0.82305 0.0
C178 C 0.65803 0.7496 0.9939 0.0
C179 C 0.67219 0.65846 0.8775 0.0
C180 C 0.76 0.81778 0.93623 0.0
C181 C 0.51634 0.7439 0.92071 0.0
C182 C 0.57358 0.90217 0.9232 0.0
O183 O 0.61625 0.78232 0.83375 0.0
O184 O 0.6307 0.81277 0.65955 0.0
Zn185 Zn 0.64379 0.83232 0.60945 0.0
O186 O 0.70241 0.8704 0.61533 0.0
Zn187 Zn 0.76104 0.83138 0.60882 0.0
Zn188 Zn 0.70031 0.90041 0.65826 0.0
Zn189 Zn 0.70509 0.92105 0.58462 0.0
O190 O 0.80904 0.87141 0.58091 0.0
O191 O 0.74798 0.89433 0.54747 0.0
O192 O 0.66548 0.77917 0.57167 0.0
O193 O 0.74728 0.77202 0.58045 0.0
O194 O 0.78769 0.81389 0.6533 0.0
O195 O 0.74542 0.86323 0.68886 0.0
O196 O 0.72475 0.97014 0.65882 0.0
O197 O 0.58937 0.88297 0.59426 0.0
O198 O 0.74266 0.97669 0.60515 0.0
O199 O 0.63469 0.94543 0.57462 0.0
C200 C 0.6258 0.84755 0.68159 0.0
C201 C 0.79445 0.8865 0.5527 0.0
C202 C 0.77785 0.82931 0.68272 0.0
C203 C 0.70865 0.75931 0.5646 0.0
C204 C 0.74556 -0.00731 0.63485 0.0
C205 C 0.59225 0.92644 0.58139 0.0
O206 O 0.63064 0.8923 0.67254 0.0
O207 O 0.12928 0.6605 0.7105 0.0
Zn208 Zn 0.10766 0.67004 0.66149 0.0
O209 O 0.075 0.73639 0.66024 0.0
Zn210 Zn 0.1127 0.77958 0.63176 0.0
Zn211 Zn 0.06915 0.77254 0.70283 0.0
Zn212 Zn 0.008 0.72957 0.64405 0.0
O213 O 0.06945 0.81187 0.59842 0.0
O214 O -0.00229 0.77181 0.60406 0.0
O215 O 0.16661 0.66565 0.62441 0.0
O216 O 0.16532 0.74365 0.60649 0.0
O217 O 0.14782 0.83144 0.65651 0.0
O218 O 0.11076 0.83439 0.70601 0.0
O219 O -0.00096 0.78901 0.71859 0.0
O220 O 0.05317 0.61606 0.65416 0.0
O221 O 0.95916 0.75118 0.6782 0.0
O222 O 0.98744 0.65925 0.6368 0.0
C223 C 0.11736 0.68542 0.73686 0.0
C224 C 0.02484 0.80397 0.58966 0.0
C225 C 0.14272 0.85038 0.68523 0.0
C226 C 0.18368 0.70003 0.60534 0.0
C227 C 0.95903 0.77343 0.70599 0.0
C228 C 0.00768 0.61799 0.6445 0.0
O229 O 0.09435 0.72686 0.73568 0.0
O230 O 0.36476 0.16797 0.659 0.0
Zn231 Zn 0.35653 0.15029 0.60682 0.0
O232 O 0.29303 0.11739 0.60534 0.0
Zn233 Zn 0.25228 0.13688 0.56891 0.0
Zn234 Zn 0.24959 0.12531 0.64253 0.0
Zn235 Zn 0.3025 0.04793 0.60826 0.0
O236 O 0.21368 0.07816 0.55264 0.0
O237 O 0.24778 0.01803 0.58294 0.0
O238 O 0.34905 0.20663 0.56862 0.0
O239 O 0.29575 0.16852 0.5349 0.0
O240 O 0.19973 0.18829 0.5825 0.0
O241 O 0.19714 0.17506 0.63649 0.0
O242 O 0.21951 0.06201 0.65812 0.0
O243 O 0.41268 0.09706 0.59339 0.0
O244 O 0.29162 0.02227 0.6543 0.0
O245 O 0.37031 0.02651 0.59222 0.0
C246 C 0.33303 0.16239 0.68322 0.0
C247 C 0.21475 0.0335 0.56294 0.0
C248 C 0.18144 0.19771 0.61121 0.0
C249 C 0.32664 0.20319 0.54037 0.0
C250 C 0.24741 0.02559 0.66618 0.0
C251 C 0.41118 0.04973 0.58857 0.0
O252 O 0.2894 0.14704 0.67821 0.0
O253 O 0.80652 0.33724 0.70627 0.0
Zn254 Zn 0.8089 0.3574 0.65581 0.0
O255 O 0.85578 0.30936 0.63713 0.0
Zn256 Zn 0.8312 0.26484 0.60475 0.0
Zn257 Zn 0.89243 0.27031 0.66778 0.0
Zn258 Zn 0.89899 0.34252 0.60794 0.0
O259 O 0.87283 0.26358 0.56391 0.0
O260 O 0.86763 0.34401 0.56389 0.0
O261 O 0.74058 0.3473 0.6279 0.0
O262 O 0.76505 0.28543 0.59374 0.0
O263 O 0.82784 0.19778 0.62125 0.0
O264 O 0.86872 0.19851 0.6687 0.0
O265 O 0.96502 0.27123 0.65511 0.0
O266 O 0.84409 0.42893 0.65363 0.0
O267 O 0.96564 0.30866 0.60602 0.0
O268 O 0.91174 0.40889 0.62349 0.0
C269 C 0.84069 0.31807 0.72473 0.0
C270 C 0.88078 0.30419 0.54916 0.0
C271 C 0.84345 0.17604 0.64688 0.0
C272 C 0.73227 0.31653 0.6038 0.0
C273 C 0.9879 0.28508 0.62884 0.0
C274 C 0.88711 0.43998 0.64102 0.0
O275 O 0.88012 0.2977 0.71257 0.0
O276 O 0.59911 0.17086 0.39954 0.0
Zn277 Zn 0.61676 0.14748 0.44807 0.0
O278 O 0.68391 0.11888 0.44348 0.0
Zn279 Zn 0.73019 0.13813 0.47726 0.0
Zn280 Zn 0.719 0.12892 0.40223 0.0
Zn281 Zn 0.67697 0.04877 0.43999 0.0
O282 O 0.76696 0.07672 0.49403 0.0
O283 O 0.73657 0.01889 0.4605 0.0
O284 O 0.6219 0.2032 0.48557 0.0
O285 O 0.69283 0.18105 0.51103 0.0
O286 O 0.78656 0.17999 0.45882 0.0
O287 O 0.77771 0.17189 0.40458 0.0
O288 O 0.74522 0.06601 0.38185 0.0
O289 O 0.56588 0.09109 0.46278 0.0
O290 O 0.67797 0.02374 0.39321 0.0
O291 O 0.61462 0.02369 0.46083 0.0
C292 C 0.62576 0.16966 0.37263 0.0
C293 C 0.76858 0.03299 0.48143 0.0
C294 C 0.80121 0.1884 0.42923 0.0
C295 C 0.65296 0.20776 0.50955 0.0
C296 C 0.71866 0.02811 0.37703 0.0
C297 C 0.57224 0.04399 0.46686 0.0
O298 O 0.67103 0.15527 0.37188 0.0
O299 O 0.85935 0.67206 0.33512 0.0
Zn300 Zn 0.87782 0.68053 0.38537 0.0
O301 O 0.9104 0.74581 0.38885 0.0
Zn302 Zn 0.87233 0.78924 0.41799 0.0
Zn303 Zn 0.91674 0.78378 0.34757 0.0
Zn304 Zn 0.97697 0.73665 0.4056 0.0
O305 O 0.91517 0.82205 0.45121 0.0
O306 O 0.98495 0.77622 0.44714 0.0
O307 O 0.81914 0.67641 0.42311 0.0
O308 O 0.82251 0.75299 0.44403 0.0
O309 O 0.83317 0.83917 0.3935 0.0
O310 O 0.87067 0.84319 0.34426 0.0
O311 O 0.98702 0.80339 0.33455 0.0
O312 O 0.93235 0.62546 0.39183 0.0
O313 O 0.02651 0.76099 0.37332 0.0
O314 O -0.0017 0.66535 0.41064 0.0
C315 C 0.87284 0.69809 0.3099 0.0
C316 C 0.95867 0.81051 0.46108 0.0
C317 C 0.83698 0.85766 0.36476 0.0
C318 C 0.8038 0.71005 0.44408 0.0
C319 C 0.02705 0.78661 0.34706 0.0
C320 C 0.97773 0.62524 0.40169 0.0
O321 O 0.89546 0.73887 0.31312 0.0
O322 O 0.36372 0.79748 0.39705 0.0
Zn323 Zn 0.35199 0.82031 0.44638 0.0
O324 O 0.29459 0.86082 0.44068 0.0
Zn325 Zn 0.23688 0.821 0.44381 0.0
Zn326 Zn 0.29543 0.89418 0.39936 0.0
Zn327 Zn 0.29142 0.90702 0.47556 0.0
O328 O 0.18647 0.86162 0.46966 0.0
O329 O 0.24168 0.8793 0.50815 0.0
O330 O 0.32945 0.76833 0.48346 0.0
O331 O 0.249 0.76078 0.47136 0.0
O332 O 0.21099 0.80623 0.39883 0.0
O333 O 0.24093 0.86961 0.36983 0.0
O334 O 0.28374 0.96765 0.40508 0.0
O335 O 0.40688 0.86947 0.46138 0.0
O336 O 0.26397 0.9713 0.45882 0.0
O337 O 0.3612 0.92528 0.48989 0.0
C338 C 0.36696 0.82827 0.37278 0.0
C339 C 0.19629 0.87641 0.49886 0.0
C340 C 0.21332 0.83168 0.37231 0.0
C341 C 0.28652 0.74822 0.4886 0.0
C342 C 0.26724 0.99155 0.43045 0.0
C343 C 0.40356 0.90957 0.47882 0.0
O344 O 0.35973 0.87461 0.37791 0.0
O345 O 0.16905 0.33721 0.33992 0.0
Zn346 Zn 0.17199 0.35606 0.39087 0.0
O347 O 0.12618 0.30992 0.41017 0.0
Zn348 Zn 0.15311 0.2848 0.45041 0.0
Zn349 Zn 0.10587 0.25439 0.38465 0.0
Zn350 Zn 0.0712 0.34483 0.42792 0.0
O351 O 0.09784 0.27745 0.48275 0.0
O352 O 0.08478 0.35645 0.47512 0.0
O353 O 0.23967 0.33866 0.41817 0.0
O354 O 0.20101 0.33412 0.46663 0.0
O355 O 0.18557 0.21872 0.44248 0.0
O356 O 0.14914 0.19486 0.39589 0.0
O357 O 0.03198 0.24068 0.39352 0.0
O358 O 0.13909 0.42965 0.39541 0.0
O359 O 0.00955 0.30602 0.42458 0.0
O360 O 0.06079 0.40778 0.40659 0.0
C361 C 0.14383 0.30532 0.32316 0.0
C362 C 0.07422 0.31707 0.49052 0.0
C363 C 0.17925 0.18677 0.41956 0.0
C364 C 0.24155 0.33451 0.45008 0.0
C365 C -0.00097 0.26548 0.41022 0.0
C366 C 0.09196 0.44035 0.39802 0.0
O367 O 0.11738 0.27245 0.33745 0.0
C368 C 0.13975 0.35985 0.23668 0.0
C369 C 0.1186 0.32119 0.21772 0.0
H370 H 0.16557 0.38488 0.28388 0.0
C371 C 0.10946 0.27577 0.23346 0.0
H372 H 0.14826 0.39537 0.22561 0.0
C373 C 0.1195 0.26998 0.26742 0.0
C374 C 0.13976 0.30916 0.28634 0.0
H375 H 0.09389 0.24507 0.21974 0.0
H376 H 0.11065 0.23491 0.27901 0.0
C377 C 0.15048 0.35381 0.27026 0.0
C378 C 0.60385 0.22672 0.32695 0.0
C379 C 0.60519 0.17843 0.33963 0.0
H380 H 0.60431 0.2721 0.28356 0.0
C381 C 0.6059 0.13788 0.31733 0.0
H382 H 0.60557 0.25853 0.3435 0.0
C383 C 0.60748 0.14534 0.28303 0.0
C384 C 0.60796 0.19365 0.27024 0.0
H385 H 0.60887 0.1002 0.32656 0.0
H386 H 0.60867 0.11331 0.2666 0.0
C387 C 0.60469 0.23427 0.29261 0.0
C388 C 0.87449 0.70118 0.21636 0.0
C389 C 0.87776 0.65066 0.20797 0.0
H390 H 0.86763 0.75537 0.25502 0.0
C391 C 0.8752 0.61517 0.23365 0.0
H392 H 0.87502 0.72942 0.19733 0.0
C393 C 0.87023 0.62999 0.26695 0.0
C394 C 0.86776 0.6806 0.27523 0.0
H395 H 0.87695 0.57575 0.22802 0.0
H396 H 0.87017 0.60201 0.28615 0.0
C397 C 0.86934 0.7159 0.24949 0.0
C398 C 0.37246 0.7606 0.32882 0.0
C399 C 0.36779 0.81108 0.33752 0.0
H400 H 0.37534 0.70652 0.28953 0.0
C401 C 0.35954 0.84589 0.31201 0.0
H402 H 0.37803 0.73272 0.34771 0.0
C403 C 0.35677 0.8309 0.27883 0.0
C404 C 0.36276 0.78068 0.26998 0.0
H405 H 0.35498 0.88515 0.31756 0.0
H406 H 0.35163 0.85902 0.26003 0.0
C407 C 0.37028 0.74562 0.29544 0.0
C408 C 0.17375 0.61221 0.80697 0.0
C409 C 0.15419 0.63794 0.8351 0.0
H410 H 0.17775 0.60682 0.75395 0.0
C411 C 0.1198 0.67673 0.83064 0.0
H412 H 0.19985 0.58136 0.80961 0.0
C413 C 0.10732 0.69124 0.79859 0.0
C414 C 0.12878 0.66701 0.7704 0.0
H415 H 0.10406 0.69698 0.85173 0.0
H416 H 0.08136 0.72219 0.79599 0.0
C417 C 0.16115 0.62655 0.77498 0.0
C418 C 0.38959 0.14755 0.73211 0.0
C419 C 0.34485 0.16646 0.71916 0.0
H420 H 0.42806 0.12304 0.7757 0.0
C421 C 0.3046 0.17661 0.74153 0.0
H422 H 0.42082 0.13813 0.71573 0.0
C423 C 0.30758 0.16521 0.77523 0.0
C424 C 0.35151 0.14476 0.78803 0.0
H425 H 0.26935 0.19111 0.73253 0.0
H426 H 0.27569 0.17322 0.79139 0.0
C427 C 0.39307 0.13752 0.7663 0.0
C428 C 0.78069 0.29697 0.80871 0.0
C429 C 0.82142 0.30136 0.83043 0.0
H430 H 0.7543 0.30144 0.75889 0.0
C431 C 0.86914 0.30927 0.81678 0.0
H432 H 0.74328 0.29074 0.81837 0.0
C433 C 0.87529 0.31504 0.78234 0.0
C434 C 0.83374 0.31417 0.76112 0.0
H435 H 0.90098 0.31382 0.83273 0.0
H436 H 0.91241 0.32173 0.77236 0.0
C437 C 0.78661 0.30411 0.77465 0.0
C438 C 0.64661 0.87693 0.73908 0.0
C439 C 0.63252 0.83768 0.7177 0.0
H440 H 0.66395 0.90029 0.7886 0.0
C441 C 0.62771 0.79005 0.73113 0.0
H442 H 0.65158 0.91422 0.72973 0.0
C443 C 0.6348 0.78239 0.76516 0.0
C444 C 0.6478 0.82192 0.78652 0.0
H445 H 0.61766 0.75895 0.71553 0.0
H446 H 0.62924 0.74542 0.77493 0.0
C447 C 0.65459 0.86906 0.7729 0.0
C448 C 0.00314 0.52718 0.06482 0.0
C449 C 0.95265 0.51335 0.06603 0.0
H450 H 0.08007 0.50353 0.06578 0.0
C451 C 0.94204 0.46214 0.06798 0.0
H452 H 0.01288 0.56606 0.06336 0.0
C453 C 0.98065 0.42614 0.07038 0.0
C454 C 0.03116 0.44008 0.06988 0.0
H455 H 0.90365 0.44992 0.06922 0.0
H456 H 0.9709 0.38743 0.07311 0.0
C457 C 0.04173 0.49109 0.06619 0.0
C458 C 0.52469 0.9399 0.15019 0.0
C459 C 0.4728 0.93024 0.15004 0.0
H460 H 0.58262 -0.0056 0.15111 0.0
C461 C 0.4395 0.97089 0.14892 0.0
H462 H 0.55181 0.90966 0.15084 0.0
C463 C 0.45749 0.01968 0.14901 0.0
C464 C 0.50933 0.02934 0.15021 0.0
H465 H 0.39951 0.96513 0.14873 0.0
H466 H 0.43039 0.04997 0.14873 0.0
C467 C 0.54266 0.98866 0.15029 0.0
C468 C 0.95697 0.49295 0.96342 0.0
C469 C 0.95326 0.44096 0.9588 0.0
H470 H 0.00453 0.5566 0.96571 0.0
C471 C -0.00207 0.41297 0.95628 0.0
H472 H 0.92355 0.51598 0.96589 0.0
C473 C 0.04459 0.43653 0.95621 0.0
C474 C 0.04817 0.48884 0.95873 0.0
H475 H -0.00311 0.37304 0.95284 0.0
H476 H 0.07794 0.41361 0.9529 0.0
C477 C 0.00362 0.51649 0.96342 0.0
C478 C 0.51584 0.96148 0.89285 0.0
C479 C 0.53369 0.94164 0.92275 0.0
H480 H 0.46128 0.00893 0.86948 0.0
C481 C 0.50837 0.95488 0.95244 0.0
H482 H 0.53376 0.95127 0.86947 0.0
C483 C 0.46718 0.98768 0.95245 0.0
C484 C 0.4489 0.00727 0.92267 0.0
H485 H 0.52059 0.93988 0.97588 0.0
H486 H 0.44967 -0.00201 0.97596 0.0
C487 C 0.4736 -0.00642 0.89279 0.0
C488 C 0.54865 0.01033 0.57623 0.0
C489 C 0.54593 0.95796 0.57798 0.0
H490 H 0.50891 0.08053 0.57837 0.0
C491 C 0.49837 0.93666 0.57973 0.0
H492 H 0.58461 0.02826 0.57482 0.0
C493 C 0.45505 0.96664 0.58131 0.0
C494 C 0.4577 0.01909 0.58179 0.0
H495 H 0.49457 0.89667 0.58082 0.0
H496 H 0.41936 0.94834 0.58352 0.0
C497 C 0.50516 0.0405 0.57835 0.0
C498 C -0.00467 0.52626 0.65407 0.0
C499 C 0.9755 0.57276 0.64519 0.0
H500 H 0.98215 0.44867 0.66075 0.0
C501 C 0.92361 0.57619 0.63872 0.0
H502 H 0.03461 0.52198 0.65968 0.0
C503 C 0.893 0.53395 0.63993 0.0
C504 C 0.91358 0.48729 0.64764 0.0
H505 H 0.90661 0.61151 0.63222 0.0
H506 H 0.85406 0.53737 0.63324 0.0
C507 C 0.96492 0.4843 0.65513 0.0
C508 C 0.44129 -0.00533 0.48737 0.0
C509 C 0.44784 0.94301 0.48159 0.0
H510 H 0.47454 0.06723 0.48705 0.0
C511 C 0.49636 0.92516 0.47437 0.0
H512 H 0.40445 0.01005 0.49294 0.0
C513 C 0.53656 0.95792 0.4715 0.0
C514 C 0.52963 0.00995 0.47503 0.0
H515 H 0.50312 0.88588 0.46986 0.0
H516 H 0.57294 0.94226 0.46496 0.0
C517 C 0.4815 0.02772 0.48383 0.0
C518 C 0.02167 0.49391 0.37929 0.0
C519 C 0.06964 0.49084 0.39328 0.0
H520 H 0.95511 0.53715 0.37161 0.0
C521 C 0.08815 0.53322 0.40916 0.0
H522 H 0.00598 0.46177 0.36714 0.0
C523 C 0.05836 0.57683 0.41202 0.0
C524 C 0.00928 0.57882 0.39936 0.0
H525 H 0.12425 0.5318 0.42093 0.0
H526 H 0.07339 0.60862 0.42489 0.0
C527 C 0.99197 0.53697 0.38236 0.0
C528 C 0.3189 0.24427 0.20556 0.0
C529 C 0.3043 0.29315 0.19846 0.0
H530 H 0.37955 0.19465 0.21518 0.0
C531 C 0.3383 0.33184 0.20315 0.0
H532 H 0.29314 0.21398 0.20219 0.0
C533 C 0.3885 0.32081 0.20934 0.0
C534 C 0.40466 0.27108 0.21159 0.0
H535 H 0.32776 0.36994 0.1977 0.0
H536 H 0.41521 0.35071 0.20896 0.0
C537 C 0.36863 0.23338 0.21273 0.0
C538 C 0.70218 0.44233 0.15196 0.0
C539 C 0.71927 0.45335 0.11972 0.0
H540 H 0.65638 0.3964 0.18254 0.0
C541 C 0.7027 0.42456 0.09301 0.0
H542 H 0.71391 0.46408 0.17309 0.0
C543 C 0.66943 0.38573 0.09843 0.0
C544 C 0.6519 0.37509 0.13069 0.0
H545 H 0.71549 0.43196 0.06793 0.0
H546 H 0.65759 0.36403 0.07731 0.0
C547 C 0.66877 0.40378 0.15737 0.0
C548 C 0.6413 0.63114 0.19783 0.0
C549 C 0.6745 0.66976 0.19055 0.0
H550 H 0.56548 0.61207 0.20921 0.0
C551 C 0.66004 0.71896 0.19746 0.0
H552 H 0.65175 0.59279 0.19257 0.0
C553 C 0.61116 0.72991 0.2078 0.0
C554 C 0.57555 0.69188 0.21005 0.0
H555 H 0.68521 0.74921 0.19214 0.0
H556 H 0.60022 0.76868 0.21041 0.0
C557 C 0.59183 0.64216 0.20721 0.0
C558 C 0.28961 0.52801 0.09734 0.0
C559 C 0.26553 0.50515 0.12433 0.0
H560 H 0.34089 0.58366 0.08131 0.0
C561 C 0.27587 0.52165 0.15665 0.0
H562 H 0.28271 0.51604 0.07216 0.0
C563 C 0.30971 0.55975 0.16196 0.0
C564 C 0.33386 0.58265 0.13506 0.0
H565 H 0.25832 0.50468 0.17809 0.0
H566 H 0.31658 0.57147 0.18719 0.0
C567 C 0.32324 0.56653 0.10266 0.0
C568 C 0.38816 0.69741 0.90254 0.0
C569 C 0.37365 0.67821 0.93346 0.0
H570 H 0.4449 0.73336 0.87431 0.0
C571 C 0.40368 0.68629 0.96117 0.0
H572 H 0.36535 0.69251 0.88083 0.0
C573 C 0.44947 0.70977 0.95739 0.0
C574 C 0.46564 0.72534 0.92586 0.0
H575 H 0.39314 0.67223 0.98537 0.0
H576 H 0.47312 0.71353 0.97881 0.0
C577 C 0.43384 0.72064 0.89875 0.0
C578 C 0.25625 0.39812 0.84916 0.0
C579 C 0.28732 0.43676 0.85933 0.0
H580 H 0.24852 0.31955 0.84368 0.0
C581 C 0.33879 0.42684 0.86313 0.0
H582 H 0.21669 0.4047 0.84542 0.0
C583 C 0.35713 0.37786 0.86181 0.0
C584 C 0.32413 0.33868 0.85662 0.0
H585 H 0.36385 0.45597 0.87064 0.0
H586 H 0.39546 0.37037 0.86876 0.0
C587 C 0.27453 0.34938 0.84794 0.0
C588 C 0.58844 0.25967 0.97075 0.0
C589 C 0.62266 0.26322 0.94419 0.0
H590 H 0.51541 0.23647 0.98609 0.0
C591 C 0.61315 0.23894 0.9141 0.0
H592 H 0.59531 0.27794 0.99423 0.0
C593 C 0.56792 0.21575 0.9094 0.0
C594 C 0.53154 0.21626 0.93475 0.0
H595 H 0.6396 0.24022 0.8935 0.0
H596 H 0.5606 0.19941 0.88535 0.0
C597 C 0.54285 0.23619 0.96603 0.0
C598 C 0.66756 0.51983 0.86971 0.0
C599 C 0.71908 0.50819 0.86861 0.0
H600 H 0.6118 0.57788 0.87294 0.0
C601 C 0.75325 0.54633 0.86249 0.0
H602 H 0.64023 0.49117 0.87407 0.0
C603 C 0.73694 0.59567 0.86215 0.0
C604 C 0.68618 0.60762 0.8673 0.0
H605 H 0.79309 0.53861 0.86094 0.0
H606 H 0.76451 0.62472 0.86035 0.0
C607 C 0.65117 0.56941 0.86897 0.0
C608 C 0.82412 0.76367 0.7112 0.0
C609 C 0.81248 0.8143 0.70846 0.0
H610 H 0.8832 0.71005 0.7148 0.0
C611 C 0.84674 0.84974 0.71934 0.0
H612 H 0.79787 0.7359 0.70317 0.0
C613 C 0.89604 0.83506 0.72541 0.0
C614 C 0.91008 0.78508 0.72085 0.0
H615 H 0.83808 0.8891 0.71748 0.0
H616 H 0.92414 0.86338 0.72802 0.0
C617 C 0.87298 0.74899 0.7178 0.0
C618 C 0.25016 0.9357 0.68009 0.0
C619 C 0.22501 0.98185 0.68204 0.0
H620 H 0.24267 0.85668 0.6799 0.0
C621 C 0.17508 0.98375 0.6936 0.0
H622 H 0.28876 0.93296 0.67166 0.0
C623 C 0.14902 0.93981 0.699 0.0
C624 C 0.17267 0.8939 0.69258 0.0
H625 H 0.15496 0.01889 0.69575 0.0
H626 H 0.10932 0.94185 0.70472 0.0
C627 C 0.22393 0.89199 0.68493 0.0
C628 C 0.06296 0.26878 0.59256 0.0
C629 C 0.04087 0.27136 0.62437 0.0
H630 H 0.12557 0.2431 0.56308 0.0
C631 C 0.06891 0.2575 0.65192 0.0
H632 H 0.04235 0.28038 0.57109 0.0
C633 C 0.11666 0.23746 0.64756 0.0
C634 C 0.13695 0.23001 0.61549 0.0
H635 H 0.05329 0.26038 0.67683 0.0
H636 H 0.13638 0.22512 0.66935 0.0
C637 C 0.11065 0.24781 0.58805 0.0
C638 C 0.79882 0.10761 0.67534 0.0
C639 C 0.83067 0.12377 0.64976 0.0
H640 H 0.74583 0.05266 0.69058 0.0
C641 C 0.83838 0.09405 0.62149 0.0
H642 H 0.79167 0.13077 0.69702 0.0
C643 C 0.81126 0.05109 0.61729 0.0
C644 C 0.77646 0.03636 0.64147 0.0
H645 H 0.86245 0.10627 0.60133 0.0
H646 H 0.81614 0.03054 0.59443 0.0
C647 C 0.77199 0.06365 0.6713 0.0
C648 C 0.86773 0.24841 0.44399 0.0
C649 C 0.85016 0.21094 0.42316 0.0
H650 H 0.92795 0.29663 0.45503 0.0
C651 C 0.88122 0.19227 0.39735 0.0
H652 H 0.84445 0.26332 0.46402 0.0
C653 C 0.92977 0.20971 0.39307 0.0
C654 C 0.94756 0.24708 0.41398 0.0
H655 H 0.86857 0.16289 0.38114 0.0
H656 H 0.95326 0.19394 0.37344 0.0
C657 C 0.91563 0.26706 0.43896 0.0
C658 C 0.72193 0.93668 0.36863 0.0
C659 C 0.74221 0.98348 0.36189 0.0
H660 H 0.73741 0.85922 0.37498 0.0
C661 C 0.7905 0.98611 0.34764 0.0
H662 H 0.6846 0.93323 0.37911 0.0
C663 C 0.8205 0.94333 0.34483 0.0
C664 C 0.80237 0.89799 0.35646 0.0
H665 H 0.80679 0.02168 0.34173 0.0
H666 H 0.8592 0.94668 0.33692 0.0
C667 C 0.75213 0.89428 0.36638 0.0
C668 C 0.16243 0.77358 0.34047 0.0
C669 C 0.17481 0.82281 0.34771 0.0
H670 H 0.10283 0.72328 0.33246 0.0
C671 C 0.14019 0.86123 0.34131 0.0
H672 H 0.18884 0.74353 0.34499 0.0
C673 C 0.09059 0.8496 0.33452 0.0
C674 C 0.07631 0.79969 0.33387 0.0
H675 H 0.1492 0.89955 0.34674 0.0
H676 H 0.06258 0.87911 0.33504 0.0
C677 C 0.11324 0.76207 0.33326 0.0
C678 C 0.23114 0.05969 0.3962 0.0
C679 C 0.24905 0.04304 0.42678 0.0
H680 H 0.19441 0.11832 0.36997 0.0
C681 C 0.24668 0.07507 0.45441 0.0
H682 H 0.23243 0.03564 0.37454 0.0
C683 C 0.22556 0.1225 0.45171 0.0
C684 C 0.20558 0.13842 0.42148 0.0
H685 H 0.26053 0.06323 0.47824 0.0
H686 H 0.22347 0.14603 0.47362 0.0
C687 C 0.20916 0.10686 0.39363 0.0
C688 C 0.14609 0.20149 1.0064 0.0
C689 C 0.17088 0.189 0.03579 0.0
H690 H 0.14594 0.19683 0.95318 0.0
C691 C 0.20925 0.15224 0.03335 0.0
H692 H 0.117 0.22993 1.00685 0.0
C693 C 0.22559 0.13253 1.00237 0.0
C694 C 0.20453 0.14936 0.97263 0.0
H695 H 0.22954 0.14153 0.05527 0.0
H696 H 0.25822 0.10823 1.00157 0.0
C697 C 0.16283 0.18224 0.97541 0.0
C698 C 0.78024 0.25255 0.06562 0.0
C699 C 0.77718 0.24556 0.031 0.0
H700 H 0.74888 0.23714 0.11388 0.0
C701 C 0.74304 0.21048 1.0193 0.0
H702 H 0.80514 0.28021 0.07547 0.0
C703 C 0.70974 0.18677 0.04132 0.0
C704 C 0.71046 0.19641 0.07576 0.0
H705 H 0.73844 0.20522 0.99287 0.0
H706 H 0.68092 0.16357 0.03111 0.0
C707 C 0.74787 0.22778 0.08773 0.0
C708 C 0.83008 0.78248 0.97011 0.0
C709 C 0.78777 0.81453 0.96833 0.0
H710 H 0.87446 0.73326 0.99996 0.0
C711 C 0.76462 0.82933 0.9984 0.0
H712 H 0.84876 0.76983 0.94749 0.0
C713 C 0.77947 0.80804 0.02866 0.0
C714 C 0.81791 0.77139 0.02984 0.0
H715 H 0.73165 0.85317 0.99827 0.0
H716 H 0.75794 0.8173 0.05086 0.0
C717 C 0.84499 0.7613 1.00036 0.0
C718 C 0.21789 0.68438 0.06644 0.0
C719 C 0.21963 0.69232 0.03191 0.0
H720 H 0.24737 0.7031 0.11418 0.0
C721 C 0.24909 0.73147 1.01995 0.0
H722 H 0.19684 0.65362 0.0764 0.0
C723 C 0.27936 0.75886 0.04154 0.0
C724 C 0.27983 0.74896 0.07583 0.0
H725 H 0.25274 0.73757 0.9935 0.0
H726 H 0.30507 0.78551 0.03108 0.0
C727 C 0.24693 0.71286 0.08816 0.0
C728 C 0.78291 0.68185 0.50157 0.0
C729 C 0.76634 0.7018 0.47146 0.0
H730 H 0.77683 0.68344 0.55475 0.0
C731 C 0.72242 0.73166 0.47255 0.0
H732 H 0.81744 0.66032 0.50205 0.0
C733 C 0.6987 0.74495 0.50296 0.0
C734 C 0.71883 0.72958 0.53333 0.0
H735 H 0.70949 0.74922 0.45008 0.0
H736 H 0.66822 0.77189 0.50276 0.0
C737 C 0.75968 0.69564 0.53198 0.0
C738 C 0.2663 0.72117 0.57971 0.0
C739 C 0.22296 0.69181 0.579 0.0
H740 H 0.32202 0.76064 0.5517 0.0
C741 C 0.20922 0.67162 0.5483 0.0
H742 H 0.27711 0.73867 0.60273 0.0
C743 C 0.23457 0.68496 0.51883 0.0
C744 C 0.27468 0.71862 0.51917 0.0
H745 H 0.17529 0.65031 0.54652 0.0
H746 H 0.21958 0.67273 0.49539 0.0
C747 C 0.29214 0.73399 0.55027 0.0
C748 C 0.29407 0.32612 0.50078 0.0
C749 C 0.28475 0.31113 0.46778 0.0
H750 H 0.31656 0.3043 0.54969 0.0
C751 C 0.30243 0.26384 0.45772 0.0
H752 H 0.27991 0.36178 0.5097 0.0
C753 C 0.32276 0.23048 0.48093 0.0
C754 C 0.32682 0.2436 0.51479 0.0
H755 H 0.29477 0.25023 0.433 0.0
H756 H 0.33057 0.19255 0.47301 0.0
C757 C 0.31514 0.29299 0.5239 0.0
C758 C 0.65781 0.26718 0.59394 0.0
C759 C 0.6842 0.31079 0.58633 0.0
H760 H 0.62791 0.19898 0.57511 0.0
C761 C 0.68343 0.32692 0.55312 0.0
H762 H 0.65827 0.25291 0.61901 0.0
C763 C 0.66576 0.29579 0.52771 0.0
C764 C 0.64768 0.24817 0.53501 0.0
H765 H 0.70414 0.35962 0.54604 0.0
H766 H 0.67232 0.30634 0.50215 0.0
C767 C 0.64096 0.23563 0.56857 0.0
C768 C 0.30829 0.38217 0.97007 0.0
C769 C 0.32009 0.42849 0.98393 0.0
H770 H 0.2761 0.31299 0.98246 0.0
C771 C 0.34106 0.4302 1.01558 0.0
H772 H 0.29496 0.37936 0.94487 0.0
C773 C 0.33545 0.38935 0.0363 0.0
C774 C 0.30714 0.34917 1.0252 0.0
H775 H 0.35289 0.46506 1.0263 0.0
H776 H 0.34315 0.39401 0.06244 0.0
C777 C 0.29889 0.34308 0.99131 0.0
C778 C 0.42944 0.27295 0.04444 0.0
C779 C 0.42153 0.24625 0.07377 0.0
H780 H 0.40633 0.28433 0.99462 0.0
C781 C 0.37691 0.21984 0.0782 0.0
H782 H 0.46302 0.29438 0.04065 0.0
C783 C 0.34474 0.21379 0.05174 0.0
C784 C 0.35621 0.23532 1.02114 0.0
H785 H 0.36938 0.19956 0.10081 0.0
H786 H 0.3136 0.18872 0.05427 0.0
C787 C 0.39677 0.26759 1.01822 0.0
C788 C 0.65513 0.55685 0.0376 0.0
C789 C 0.67655 0.59822 1.02208 0.0
H790 H 0.65118 0.47754 0.03541 0.0
C791 C 0.68269 0.59796 0.9876 0.0
H792 H 0.64779 0.55718 0.06412 0.0
C793 C 0.68343 0.5527 0.97095 0.0
C794 C 0.67895 0.50872 0.98936 0.0
H795 H 0.69775 0.62989 0.97494 0.0
H796 H 0.69669 0.55179 0.9454 0.0
C797 C 0.65778 0.51101 1.02132 0.0
C798 C 0.56706 0.68627 0.04777 0.0
C799 C 0.57111 0.71482 0.07683 0.0
H800 H 0.59427 0.67405 0.99826 0.0
C801 C 0.61359 0.74439 0.08108 0.0
H802 H 0.53516 0.66264 0.04399 0.0
C803 C 0.64722 0.75109 0.05477 0.0
C804 C 0.63971 0.72698 1.02444 0.0
H805 H 0.61812 0.76645 0.10337 0.0
H806 H 0.67603 0.77869 0.05706 0.0
C807 C 0.60129 0.69227 1.02175 0.0
C808 C 0.80573 0.94785 0.4782 0.0
C809 C 0.80395 -0.00498 0.4936 0.0
H810 H 0.81118 0.86979 0.48663 0.0
C811 C 0.82839 0.0014 0.52383 0.0
H812 H 0.7902 0.94208 0.45383 0.0
C813 C 0.84282 0.9594 0.54179 0.0
C814 C 0.82872 0.91234 0.53041 0.0
H815 H 0.83051 0.03777 0.53534 0.0
H816 H 0.85424 0.96418 0.56724 0.0
C817 C 0.81926 0.90629 0.49659 0.0
C818 C 0.93982 0.83101 0.51963 0.0
C819 C 0.9747 0.8291 0.49326 0.0
H820 H 0.92894 0.8244 0.57205 0.0
C821 C 0.02584 0.83269 0.49972 0.0
H822 H 0.90014 0.82813 0.51514 0.0
C823 C 0.04227 0.83134 0.53228 0.0
C824 C 0.00761 0.82507 0.5584 0.0
H825 H 0.05323 0.83167 0.47962 0.0
H826 H 0.08213 0.82911 0.53652 0.0
C827 C 0.95626 0.82847 0.55215 0.0
C828 C 0.15328 0.95572 0.50007 0.0
C829 C 0.1611 0.90996 0.51596 0.0
H830 H 0.16783 0.03367 0.50302 0.0
C831 C 0.16224 0.90898 0.55063 0.0
H832 H 0.15015 0.95719 0.47333 0.0
C833 C 0.17277 0.95259 0.56767 0.0
C834 C 0.18019 -0.00328 0.54985 0.0
H835 H 0.16606 0.8739 0.5635 0.0
H836 H 0.18224 0.95021 0.59366 0.0
C837 C 0.16438 -0.00045 0.51694 0.0
C838 C 0.95345 0.26286 0.52107 0.0
C839 C 0.92503 0.30627 0.52752 0.0
H840 H 0.02387 0.23227 0.50526 0.0
C841 C 0.94502 0.35279 0.51971 0.0
H842 H 0.93886 0.22642 0.5266 0.0
C843 C -0.00592 0.35619 0.50857 0.0
C844 C 0.02359 0.31307 0.50422 0.0
H845 H 0.92386 0.3869 0.52416 0.0
H846 H 0.00902 0.39272 0.50376 0.0
C847 C 0.00243 0.26625 0.50947 0.0
loop_
_geom_bond_atom_site_label_1
_geom_bond_atom_site_label_2
_geom_bond_distance
_geom_bond_site_symmetry_2
_ccdc_geom_bond_type
O0 Zn1 1.953 . S
O0 C16 1.225 . S
Zn1 O0 1.953 . S
Zn1 O2 1.949 . S
Zn1 O8 1.919 . S
Zn1 O13 1.924 . S
O2 Zn1 1.949 . S
O2 Zn3 1.923 . S
O2 Zn4 1.950 . S
O2 Zn5 1.945 . S
Zn3 O2 1.923 . S
Zn3 O6 1.933 . S
Zn3 O9 1.941 . S
Zn3 O10 1.965 . S
Zn4 O2 1.950 . S
Zn4 O11 1.938 . S
Zn4 O12 1.906 . S
Zn4 O22 1.953 . S
Zn5 O2 1.945 . S
Zn5 O7 1.932 . S
Zn5 O14 1.977 . S
Zn5 O15 1.910 . S
O6 Zn3 1.933 . S
O6 C17 1.226 . S
O7 Zn5 1.932 . S
O7 C17 1.307 . S
O8 Zn1 1.919 . S
O8 C19 1.253 . S
O9 Zn3 1.941 . S
O9 C19 1.283 . S
O10 Zn3 1.965 . S
O10 C18 1.303 . S
O11 Zn4 1.938 . S
O11 C18 1.247 . S
O12 Zn4 1.906 . S
O12 C20 1.304 . S
O13 Zn1 1.924 . S
O13 C21 1.311 . S
O14 Zn5 1.977 . S
O14 C20 1.272 . S
O15 Zn5 1.910 . S
O15 C21 1.231 . S
C16 O0 1.225 . S
C16 O22 1.298 . S
C17 O6 1.226 . S
C17 O7 1.307 . S
C18 O10 1.303 . S
C18 O11 1.247 . S
C19 O8 1.253 . S
C19 O9 1.283 . S
C20 O12 1.304 . S
C20 O14 1.272 . S
C21 O13 1.311 . S
C21 O15 1.231 . S
O22 Zn4 1.953 . S
O22 C16 1.298 . S
O23 Zn24 1.953 . S
O23 C39 1.225 . S
Zn24 O23 1.953 . S
Zn24 O25 1.949 . S
Zn24 O31 1.919 . S
Zn24 O36 1.924 . S
O25 Zn24 1.949 . S
O25 Zn26 1.923 . S
O25 Zn27 1.950 . S
O25 Zn28 1.945 . S
Zn26 O25 1.923 . S
Zn26 O29 1.933 . S
Zn26 O32 1.941 . S
Zn26 O33 1.965 . S
Zn27 O25 1.950 . S
Zn27 O34 1.938 . S
Zn27 O35 1.906 . S
Zn27 O45 1.953 . S
Zn28 O25 1.945 . S
Zn28 O30 1.932 . S
Zn28 O37 1.977 . S
Zn28 O38 1.910 . S
O29 Zn26 1.933 . S
O29 C40 1.226 . S
O30 Zn28 1.932 . S
O30 C40 1.307 . S
O31 Zn24 1.919 . S
O31 C42 1.253 . S
O32 Zn26 1.941 . S
O32 C42 1.283 . S
O33 Zn26 1.965 . S
O33 C41 1.303 . S
O34 Zn27 1.938 . S
O34 C41 1.247 . S
O35 Zn27 1.906 . S
O35 C43 1.304 . S
O36 Zn24 1.924 . S
O36 C44 1.311 . S
O37 Zn28 1.977 . S
O37 C43 1.272 . S
O38 Zn28 1.910 . S
O38 C44 1.231 . S
C39 O23 1.225 . S
C39 O45 1.298 . S
C40 O29 1.226 . S
C40 O30 1.307 . S
C41 O33 1.303 . S
C41 O34 1.247 . S
C42 O31 1.253 . S
C42 O32 1.283 . S
C43 O35 1.304 . S
C43 O37 1.272 . S
C44 O36 1.311 . S
C44 O38 1.231 . S
O45 Zn27 1.953 . S
O45 C39 1.298 . S
O46 Zn47 1.953 . S
O46 C62 1.225 . S
Zn47 O46 1.953 . S
Zn47 O48 1.949 . S
Zn47 O54 1.919 . S
Zn47 O59 1.924 . S
O48 Zn47 1.949 . S
O48 Zn49 1.923 . S
O48 Zn50 1.950 . S
O48 Zn51 1.945 . S
Zn49 O48 1.923 . S
Zn49 O52 1.933 . S
Zn49 O55 1.941 . S
Zn49 O56 1.965 . S
Zn50 O48 1.950 . S
Zn50 O57 1.938 . S
Zn50 O58 1.906 . S
Zn50 O68 1.953 . S
Zn51 O48 1.945 . S
Zn51 O53 1.932 . S
Zn51 O60 1.977 . S
Zn51 O61 1.910 . S
O52 Zn49 1.933 . S
O52 C63 1.226 . S
O53 Zn51 1.932 . S
O53 C63 1.307 . S
O54 Zn47 1.919 . S
O54 C65 1.253 . S
O55 Zn49 1.941 . S
O55 C65 1.283 . S
O56 Zn49 1.965 . S
O56 C64 1.303 . S
O57 Zn50 1.938 . S
O57 C64 1.247 . S
O58 Zn50 1.906 . S
O58 C66 1.304 . S
O59 Zn47 1.924 . S
O59 C67 1.311 . S
O60 Zn51 1.977 . S
O60 C66 1.272 . S
O61 Zn51 1.910 . S
O61 C67 1.231 . S
C62 O46 1.225 . S
C62 O68 1.298 . S
C63 O52 1.226 . S
C63 O53 1.307 . S
C64 O56 1.303 . S
C64 O57 1.247 . S
C65 O54 1.253 . S
C65 O55 1.283 . S
C66 O58 1.304 . S
C66 O60 1.272 . S
C67 O59 1.311 . S
C67 O61 1.231 . S
O68 Zn50 1.953 . S
O68 C62 1.298 . S
O69 Zn70 1.953 . S
O69 C85 1.225 . S
Zn70 O69 1.953 . S
Zn70 O71 1.949 . S
Zn70 O77 1.919 . S
Zn70 O82 1.924 . S
O71 Zn70 1.949 . S
O71 Zn72 1.923 . S
O71 Zn73 1.950 . S
O71 Zn74 1.945 . S
Zn72 O71 1.923 . S
Zn72 O75 1.933 . S
Zn72 O78 1.941 . S
Zn72 O79 1.965 . S
Zn73 O71 1.950 . S
Zn73 O80 1.938 . S
Zn73 O81 1.906 . S
Zn73 O91 1.953 . S
Zn74 O71 1.945 . S
Zn74 O76 1.932 . S
Zn74 O83 1.977 . S
Zn74 O84 1.910 . S
O75 Zn72 1.933 . S
O75 C86 1.226 . S
O76 Zn74 1.932 . S
O76 C86 1.307 . S
O77 Zn70 1.919 . S
O77 C88 1.253 . S
O78 Zn72 1.941 . S
O78 C88 1.283 . S
O79 Zn72 1.965 . S
O79 C87 1.303 . S
O80 Zn73 1.938 . S
O80 C87 1.247 . S
O81 Zn73 1.906 . S
O81 C89 1.304 . S
O82 Zn70 1.924 . S
O82 C90 1.311 . S
O83 Zn74 1.977 . S
O83 C89 1.272 . S
O84 Zn74 1.910 . S
O84 C90 1.231 . S
C85 O69 1.225 . S
C85 O91 1.298 . S
C86 O75 1.226 . S
C86 O76 1.307 . S
C87 O79 1.303 . S
C87 O80 1.247 . S
C88 O77 1.253 . S
C88 O78 1.283 . S
C89 O81 1.304 . S
C89 O83 1.272 . S
C90 O82 1.311 . S
C90 O84 1.231 . S
O91 Zn73 1.953 . S
O91 C85 1.298 . S
O92 Zn93 1.953 . S
O92 C108 1.225 . S
Zn93 O92 1.953 . S
Zn93 O94 1.949 . S
Zn93 O100 1.919 . S
Zn93 O105 1.924 . S
O94 Zn93 1.949 . S
O94 Zn95 1.923 . S
O94 Zn96 1.950 . S
O94 Zn97 1.945 . S
Zn95 O94 1.923 . S
Zn95 O98 1.933 . S
Zn95 O101 1.941 . S
Zn95 O102 1.965 . S
Zn96 O94 1.950 . S
Zn96 O103 1.938 . S
Zn96 O104 1.906 . S
Zn96 O114 1.953 . S
Zn97 O94 1.945 . S
Zn97 O99 1.932 . S
Zn97 O106 1.977 . S
Zn97 O107 1.910 . S
O98 Zn95 1.933 . S
O98 C109 1.226 . S
O99 Zn97 1.932 . S
O99 C109 1.307 . S
O100 Zn93 1.919 . S
O100 C111 1.253 . S
O101 Zn95 1.941 . S
O101 C111 1.283 . S
O102 Zn95 1.965 . S
O102 C110 1.303 . S
O103 Zn96 1.938 . S
O103 C110 1.247 . S
O104 Zn96 1.906 . S
O104 C112 1.304 . S
O105 Zn93 1.924 . S
O105 C113 1.311 . S
O106 Zn97 1.977 . S
O106 C112 1.272 . S
O107 Zn97 1.910 . S
O107 C113 1.231 . S
C108 O92 1.225 . S
C108 O114 1.298 . S
C109 O98 1.226 . S
C109 O99 1.307 . S
C110 O102 1.303 . S
C110 O103 1.247 . S
C111 O100 1.253 . S
C111 O101 1.283 . S
C112 O104 1.304 . S
C112 O106 1.272 . S
C113 O105 1.311 . S
C113 O107 1.231 . S
O114 Zn96 1.953 . S
O114 C108 1.298 . S
O115 Zn116 1.953 . S
O115 C131 1.225 . S
Zn116 O115 1.953 . S
Zn116 O117 1.949 . S
Zn116 O123 1.919 . S
Zn116 O128 1.924 . S
O117 Zn116 1.949 . S
O117 Zn118 1.923 . S
O117 Zn119 1.950 . S
O117 Zn120 1.945 . S
Zn118 O117 1.923 . S
Zn118 O121 1.933 . S
Zn118 O124 1.941 . S
Zn118 O125 1.965 . S
Zn119 O117 1.950 . S
Zn119 O126 1.938 . S
Zn119 O127 1.906 . S
Zn119 O137 1.953 . S
Zn120 O117 1.945 . S
Zn120 O122 1.932 . S
Zn120 O129 1.977 . S
Zn120 O130 1.910 . S
O121 Zn118 1.933 . S
O121 C132 1.226 . S
O122 Zn120 1.932 . S
O122 C132 1.307 . S
O123 Zn116 1.919 . S
O123 C134 1.253 . S
O124 Zn118 1.941 . S
O124 C134 1.283 . S
O125 Zn118 1.965 . S
O125 C133 1.303 . S
O126 Zn119 1.938 . S
O126 C133 1.247 . S
O127 Zn119 1.906 . S
O127 C135 1.304 . S
O128 Zn116 1.924 . S
O128 C136 1.311 . S
O129 Zn120 1.977 . S
O129 C135 1.272 . S
O130 Zn120 1.910 . S
O130 C136 1.231 . S
C131 O115 1.225 . S
C131 O137 1.298 . S
C132 O121 1.226 . S
C132 O122 1.307 . S
C133 O125 1.303 . S
C133 O126 1.247 . S
C134 O123 1.253 . S
C134 O124 1.283 . S
C135 O127 1.304 . S
C135 O129 1.272 . S
C136 O128 1.311 . S
C136 O130 1.231 . S
O137 Zn119 1.953 . S
O137 C131 1.298 . S
O138 Zn139 1.953 . S
O138 C154 1.225 . S
Zn139 O138 1.953 . S
Zn139 O140 1.949 . S
Zn139 O146 1.919 . S
Zn139 O151 1.924 . S
O140 Zn139 1.949 . S
O140 Zn141 1.923 . S
O140 Zn142 1.950 . S
O140 Zn143 1.945 . S
Zn141 O140 1.923 . S
Zn141 O144 1.933 . S
Zn141 O147 1.941 . S
Zn141 O148 1.965 . S
Zn142 O140 1.950 . S
Zn142 O149 1.938 . S
Zn142 O150 1.906 . S
Zn142 O160 1.953 . S
Zn143 O140 1.945 . S
Zn143 O145 1.932 . S
Zn143 O152 1.977 . S
Zn143 O153 1.910 . S
O144 Zn141 1.933 . S
O144 C155 1.226 . S
O145 Zn143 1.932 . S
O145 C155 1.307 . S
O146 Zn139 1.919 . S
O146 C157 1.253 . S
O147 Zn141 1.941 . S
O147 C157 1.283 . S
O148 Zn141 1.965 . S
O148 C156 1.303 . S
O149 Zn142 1.938 . S
O149 C156 1.247 . S
O150 Zn142 1.906 . S
O150 C158 1.304 . S
O151 Zn139 1.924 . S
O151 C159 1.311 . S
O152 Zn143 1.977 . S
O152 C158 1.272 . S
O153 Zn143 1.910 . S
O153 C159 1.231 . S
C154 O138 1.225 . S
C154 O160 1.298 . S
C155 O144 1.226 . S
C155 O145 1.307 . S
C156 O148 1.303 . S
C156 O149 1.247 . S
C157 O146 1.253 . S
C157 O147 1.283 . S
C158 O150 1.304 . S
C158 O152 1.272 . S
C159 O151 1.311 . S
C159 O153 1.231 . S
O160 Zn142 1.953 . S
O160 C154 1.298 . S
O161 Zn162 1.953 . S
O161 C177 1.225 . S
Zn162 O161 1.953 . S
Zn162 O163 1.949 . S
Zn162 O169 1.919 . S
Zn162 O174 1.924 . S
O163 Zn162 1.949 . S
O163 Zn164 1.923 . S
O163 Zn165 1.950 . S
O163 Zn166 1.945 . S
Zn164 O163 1.923 . S
Zn164 O167 1.933 . S
Zn164 O170 1.941 . S
Zn164 O171 1.965 . S
Zn165 O163 1.950 . S
Zn165 O172 1.938 . S
Zn165 O173 1.906 . S
Zn165 O183 1.953 . S
Zn166 O163 1.945 . S
Zn166 O168 1.932 . S
Zn166 O175 1.977 . S
Zn166 O176 1.910 . S
O167 Zn164 1.933 . S
O167 C178 1.226 . S
O168 Zn166 1.932 . S
O168 C178 1.307 . S
O169 Zn162 1.919 . S
O169 C180 1.253 . S
O170 Zn164 1.941 . S
O170 C180 1.283 . S
O171 Zn164 1.965 . S
O171 C179 1.303 . S
O172 Zn165 1.938 . S
O172 C179 1.247 . S
O173 Zn165 1.906 . S
O173 C181 1.304 . S
O174 Zn162 1.924 . S
O174 C182 1.311 . S
O175 Zn166 1.977 . S
O175 C181 1.272 . S
O176 Zn166 1.910 . S
O176 C182 1.231 . S
C177 O161 1.225 . S
C177 O183 1.298 . S
C178 O167 1.226 . S
C178 O168 1.307 . S
C179 O171 1.303 . S
C179 O172 1.247 . S
C180 O169 1.253 . S
C180 O170 1.283 . S
C181 O173 1.304 . S
C181 O175 1.272 . S
C182 O174 1.311 . S
C182 O176 1.231 . S
O183 Zn165 1.953 . S
O183 C177 1.298 . S
O184 Zn185 1.953 . S
O184 C200 1.225 . S
Zn185 O184 1.953 . S
Zn185 O186 1.949 . S
Zn185 O192 1.919 . S
Zn185 O197 1.924 . S
O186 Zn185 1.949 . S
O186 Zn187 1.923 . S
O186 Zn188 1.950 . S
O186 Zn189 1.945 . S
Zn187 O186 1.923 . S
Zn187 O190 1.933 . S
Zn187 O193 1.941 . S
Zn187 O194 1.965 . S
Zn188 O186 1.950 . S
Zn188 O195 1.938 . S
Zn188 O196 1.906 . S
Zn188 O206 1.953 . S
Zn189 O186 1.945 . S
Zn189 O191 1.932 . S
Zn189 O198 1.977 1_565 S
Zn189 O199 1.910 . S
O190 Zn187 1.933 . S
O190 C201 1.226 . S
O191 Zn189 1.932 . S
O191 C201 1.307 . S
O192 Zn185 1.919 . S
O192 C203 1.253 . S
O193 Zn187 1.941 . S
O193 C203 1.283 . S
O194 Zn187 1.965 . S
O194 C202 1.303 . S
O195 Zn188 1.938 . S
O195 C202 1.247 . S
O196 Zn188 1.906 . S
O196 C204 1.304 1_565 S
O197 Zn185 1.924 . S
O197 C205 1.311 . S
O198 Zn189 1.977 1_545 S
O198 C204 1.272 . S
O199 Zn189 1.910 . S
O199 C205 1.231 . S
C200 O184 1.225 . S
C200 O206 1.298 . S
C201 O190 1.226 . S
C201 O191 1.307 . S
C202 O194 1.303 . S
C202 O195 1.247 . S
C203 O192 1.253 . S
C203 O193 1.283 . S
C204 O196 1.304 1_545 S
C204 O198 1.272 . S
C205 O197 1.311 . S
C205 O199 1.231 . S
O206 Zn188 1.953 . S
O206 C200 1.298 . S
O207 Zn208 1.953 . S
O207 C223 1.225 . S
Zn208 O207 1.953 . S
Zn208 O209 1.949 . S
Zn208 O215 1.919 . S
Zn208 O220 1.924 . S
O209 Zn208 1.949 . S
O209 Zn210 1.923 . S
O209 Zn211 1.950 . S
O209 Zn212 1.945 . S
Zn210 O209 1.923 . S
Zn210 O213 1.933 . S
Zn210 O216 1.941 . S
Zn210 O217 1.965 . S
Zn211 O209 1.950 . S
Zn211 O218 1.938 . S
Zn211 O219 1.906 . S
Zn211 O229 1.953 . S
Zn212 O209 1.945 . S
Zn212 O214 1.932 . S
Zn212 O221 1.977 1_455 S
Zn212 O222 1.910 . S
O213 Zn210 1.933 . S
O213 C224 1.226 . S
O214 Zn212 1.932 . S
O214 C224 1.307 . S
O215 Zn208 1.919 . S
O215 C226 1.253 . S
O216 Zn210 1.941 . S
O216 C226 1.283 . S
O217 Zn210 1.965 . S
O217 C225 1.303 . S
O218 Zn211 1.938 . S
O218 C225 1.247 . S
O219 Zn211 1.906 . S
O219 C227 1.304 1_455 S
O220 Zn208 1.924 . S
O220 C228 1.311 . S
O221 Zn212 1.977 1_655 S
O221 C227 1.272 . S
O222 Zn212 1.910 . S
O222 C228 1.231 . S
C223 O207 1.225 . S
C223 O229 1.298 . S
C224 O213 1.226 . S
C224 O214 1.307 . S
C225 O217 1.303 . S
C225 O218 1.247 . S
C226 O215 1.253 . S
C226 O216 1.283 . S
C227 O219 1.304 1_655 S
C227 O221 1.272 . S
C228 O220 1.311 . S
C228 O222 1.231 . S
O229 Zn211 1.953 . S
O229 C223 1.298 . S
O230 Zn231 1.953 . S
O230 C246 1.225 . S
Zn231 O230 1.953 . S
Zn231 O232 1.949 . S
Zn231 O238 1.919 . S
Zn231 O243 1.924 . S
O232 Zn231 1.949 . S
O232 Zn233 1.923 . S
O232 Zn234 1.950 . S
O232 Zn235 1.945 . S
Zn233 O232 1.923 . S
Zn233 O236 1.933 . S
Zn233 O239 1.941 . S
Zn233 O240 1.965 . S
Zn234 O232 1.950 . S
Zn234 O241 1.938 . S
Zn234 O242 1.906 . S
Zn234 O252 1.953 . S
Zn235 O232 1.945 . S
Zn235 O237 1.932 . S
Zn235 O244 1.977 1_545 S
Zn235 O245 1.910 . S
O236 Zn233 1.933 . S
O236 C247 1.226 . S
O237 Zn235 1.932 . S
O237 C247 1.307 . S
O238 Zn231 1.919 . S
O238 C249 1.253 . S
O239 Zn233 1.941 . S
O239 C249 1.283 . S
O240 Zn233 1.965 . S
O240 C248 1.303 . S
O241 Zn234 1.938 . S
O241 C248 1.247 . S
O242 Zn234 1.906 . S
O242 C250 1.304 1_545 S
O243 Zn231 1.924 . S
O243 C251 1.311 . S
O244 Zn235 1.977 1_565 S
O244 C250 1.272 . S
O245 Zn235 1.910 . S
O245 C251 1.231 . S
C246 O230 1.225 . S
C246 O252 1.298 . S
C247 O236 1.226 . S
C247 O237 1.307 . S
C248 O240 1.303 . S
C248 O241 1.247 . S
C249 O238 1.253 . S
C249 O239 1.283 . S
C250 O242 1.304 1_565 S
C250 O244 1.272 . S
C251 O243 1.311 . S
C251 O245 1.231 . S
O252 Zn234 1.953 . S
O252 C246 1.298 . S
O253 Zn254 1.953 . S
O253 C269 1.225 . S
Zn254 O253 1.953 . S
Zn254 O255 1.949 . S
Zn254 O261 1.919 . S
Zn254 O266 1.924 . S
O255 Zn254 1.949 . S
O255 Zn256 1.923 . S
O255 Zn257 1.950 . S
O255 Zn258 1.945 . S
Zn256 O255 1.923 . S
Zn256 O259 1.933 . S
Zn256 O262 1.941 . S
Zn256 O263 1.965 . S
Zn257 O255 1.950 . S
Zn257 O264 1.938 . S
Zn257 O265 1.906 . S
Zn257 O275 1.953 . S
Zn258 O255 1.945 . S
Zn258 O260 1.932 . S
Zn258 O267 1.977 1_655 S
Zn258 O268 1.910 . S
O259 Zn256 1.933 . S
O259 C270 1.226 . S
O260 Zn258 1.932 . S
O260 C270 1.307 . S
O261 Zn254 1.919 . S
O261 C272 1.253 . S
O262 Zn256 1.941 . S
O262 C272 1.283 . S
O263 Zn256 1.965 . S
O263 C271 1.303 . S
O264 Zn257 1.938 . S
O264 C271 1.247 . S
O265 Zn257 1.906 . S
O265 C273 1.304 1_655 S
O266 Zn254 1.924 . S
O266 C274 1.311 . S
O267 Zn258 1.977 1_455 S
O267 C273 1.272 . S
O268 Zn258 1.910 . S
O268 C274 1.231 . S
C269 O253 1.225 . S
C269 O275 1.298 . S
C270 O259 1.226 . S
C270 O260 1.307 . S
C271 O263 1.303 . S
C271 O264 1.247 . S
C272 O261 1.253 . S
C272 O262 1.283 . S
C273 O265 1.304 1_455 S
C273 O267 1.272 . S
C274 O266 1.311 . S
C274 O268 1.231 . S
O275 Zn257 1.953 . S
O275 C269 1.298 . S
O276 Zn277 1.953 . S
O276 C292 1.225 . S
Zn277 O276 1.953 . S
Zn277 O278 1.949 . S
Zn277 O284 1.919 . S
Zn277 O289 1.924 . S
O278 Zn277 1.949 . S
O278 Zn279 1.923 . S
O278 Zn280 1.950 . S
O278 Zn281 1.945 . S
Zn279 O278 1.923 . S
Zn279 O282 1.933 . S
Zn279 O285 1.941 . S
Zn279 O286 1.965 . S
Zn280 O278 1.950 . S
Zn280 O287 1.938 . S
Zn280 O288 1.906 . S
Zn280 O298 1.953 . S
Zn281 O278 1.945 . S
Zn281 O283 1.932 . S
Zn281 O290 1.977 1_545 S
Zn281 O291 1.910 . S
O282 Zn279 1.933 . S
O282 C293 1.226 . S
O283 Zn281 1.932 . S
O283 C293 1.307 . S
O284 Zn277 1.919 . S
O284 C295 1.253 . S
O285 Zn279 1.941 . S
O285 C295 1.283 . S
O286 Zn279 1.965 . S
O286 C294 1.303 . S
O287 Zn280 1.938 . S
O287 C294 1.247 . S
O288 Zn280 1.906 . S
O288 C296 1.304 1_545 S
O289 Zn277 1.924 . S
O289 C297 1.311 . S
O290 Zn281 1.977 1_565 S
O290 C296 1.272 . S
O291 Zn281 1.910 . S
O291 C297 1.231 . S
C292 O276 1.225 . S
C292 O298 1.298 . S
C293 O282 1.226 . S
C293 O283 1.307 . S
C294 O286 1.303 . S
C294 O287 1.247 . S
C295 O284 1.253 . S
C295 O285 1.283 . S
C296 O288 1.304 1_565 S
C296 O290 1.272 . S
C297 O289 1.311 . S
C297 O291 1.231 . S
O298 Zn280 1.953 . S
O298 C292 1.298 . S
O299 Zn300 1.953 . S
O299 C315 1.225 . S
Zn300 O299 1.953 . S
Zn300 O301 1.949 . S
Zn300 O307 1.919 . S
Zn300 O312 1.924 . S
O301 Zn300 1.949 . S
O301 Zn302 1.923 . S
O301 Zn303 1.950 . S
O301 Zn304 1.945 . S
Zn302 O301 1.923 . S
Zn302 O305 1.933 . S
Zn302 O308 1.941 . S
Zn302 O309 1.965 . S
Zn303 O301 1.950 . S
Zn303 O310 1.938 . S
Zn303 O311 1.906 . S
Zn303 O321 1.953 . S
Zn304 O301 1.945 . S
Zn304 O306 1.932 . S
Zn304 O313 1.977 1_655 S
Zn304 O314 1.910 . S
O305 Zn302 1.933 . S
O305 C316 1.226 . S
O306 Zn304 1.932 . S
O306 C316 1.307 . S
O307 Zn300 1.919 . S
O307 C318 1.253 . S
O308 Zn302 1.941 . S
O308 C318 1.283 . S
O309 Zn302 1.965 . S
O309 C317 1.303 . S
O310 Zn303 1.938 . S
O310 C317 1.247 . S
O311 Zn303 1.906 . S
O311 C319 1.304 1_655 S
O312 Zn300 1.924 . S
O312 C320 1.311 . S
O313 Zn304 1.977 1_455 S
O313 C319 1.272 . S
O314 Zn304 1.910 . S
O314 C320 1.231 . S
C315 O299 1.225 . S
C315 O321 1.298 . S
C316 O305 1.226 . S
C316 O306 1.307 . S
C317 O309 1.303 . S
C317 O310 1.247 . S
C318 O307 1.253 . S
C318 O308 1.283 . S
C319 O311 1.304 1_455 S
C319 O313 1.272 . S
C320 O312 1.311 . S
C320 O314 1.231 . S
O321 Zn303 1.953 . S
O321 C315 1.298 . S
O322 Zn323 1.953 . S
O322 C338 1.225 . S
Zn323 O322 1.953 . S
Zn323 O324 1.949 . S
Zn323 O330 1.919 . S
Zn323 O335 1.924 . S
O324 Zn323 1.949 . S
O324 Zn325 1.923 . S
O324 Zn326 1.950 . S
O324 Zn327 1.945 . S
Zn325 O324 1.923 . S
Zn325 O328 1.933 . S
Zn325 O331 1.941 . S
Zn325 O332 1.965 . S
Zn326 O324 1.950 . S
Zn326 O333 1.938 . S
Zn326 O334 1.906 . S
Zn326 O344 1.953 . S
Zn327 O324 1.945 . S
Zn327 O329 1.932 . S
Zn327 O336 1.977 1_565 S
Zn327 O337 1.910 . S
O328 Zn325 1.933 . S
O328 C339 1.226 . S
O329 Zn327 1.932 . S
O329 C339 1.307 . S
O330 Zn323 1.919 . S
O330 C341 1.253 . S
O331 Zn325 1.941 . S
O331 C341 1.283 . S
O332 Zn325 1.965 . S
O332 C340 1.303 . S
O333 Zn326 1.938 . S
O333 C340 1.247 . S
O334 Zn326 1.906 . S
O334 C342 1.304 1_565 S
O335 Zn323 1.924 . S
O335 C343 1.311 . S
O336 Zn327 1.977 1_545 S
O336 C342 1.272 . S
O337 Zn327 1.910 . S
O337 C343 1.231 . S
C338 O322 1.225 . S
C338 O344 1.298 . S
C339 O328 1.226 . S
C339 O329 1.307 . S
C340 O332 1.303 . S
C340 O333 1.247 . S
C341 O330 1.253 . S
C341 O331 1.283 . S
C342 O334 1.304 1_545 S
C342 O336 1.272 . S
C343 O335 1.311 . S
C343 O337 1.231 . S
O344 Zn326 1.953 . S
O344 C338 1.298 . S
O345 Zn346 1.953 . S
O345 C361 1.225 . S
Zn346 O345 1.953 . S
Zn346 O347 1.949 . S
Zn346 O353 1.919 . S
Zn346 O358 1.924 . S
O347 Zn346 1.949 . S
O347 Zn348 1.923 . S
O347 Zn349 1.950 . S
O347 Zn350 1.945 . S
Zn348 O347 1.923 . S
Zn348 O351 1.933 . S
Zn348 O354 1.941 . S
Zn348 O355 1.965 . S
Zn349 O347 1.950 . S
Zn349 O356 1.938 . S
Zn349 O357 1.906 . S
Zn349 O367 1.953 . S
Zn350 O347 1.945 . S
Zn350 O352 1.932 . S
Zn350 O359 1.977 1_455 S
Zn350 O360 1.910 . S
O351 Zn348 1.933 . S
O351 C362 1.226 . S
O352 Zn350 1.932 . S
O352 C362 1.307 . S
O353 Zn346 1.919 . S
O353 C364 1.253 . S
O354 Zn348 1.941 . S
O354 C364 1.283 . S
O355 Zn348 1.965 . S
O355 C363 1.303 . S
O356 Zn349 1.938 . S
O356 C363 1.247 . S
O357 Zn349 1.906 . S
O357 C365 1.304 1_455 S
O358 Zn346 1.924 . S
O358 C366 1.311 . S
O359 Zn350 1.977 1_655 S
O359 C365 1.272 . S
O360 Zn350 1.910 . S
O360 C366 1.231 . S
C361 O345 1.225 . S
C361 O367 1.298 . S
C362 O351 1.226 . S
C362 O352 1.307 . S
C363 O355 1.303 . S
C363 O356 1.247 . S
C364 O353 1.253 . S
C364 O354 1.283 . S
C365 O357 1.304 1_655 S
C365 O359 1.272 . S
C366 O358 1.311 . S
C366 O360 1.231 . S
O367 Zn349 1.953 . S
O367 C361 1.298 . S
C368 C369 1.387 . S
C368 H372 0.950 . S
C368 C377 1.390 . S
C369 C368 1.387 . S
C369 C371 1.387 . S
H370 C377 0.950 . S
C371 C369 1.387 . S
C371 C373 1.390 . S
C371 H375 0.950 . S
H372 C368 0.950 . S
C373 C371 1.390 . S
C373 C374 1.387 . S
C373 H376 0.950 . S
C374 C373 1.387 . S
C374 C377 1.387 . S
H375 C371 0.950 . S
H376 C373 0.950 . S
C377 C368 1.390 . S
C377 H370 0.950 . S
C377 C374 1.387 . S
C378 C379 1.387 . S
C378 H382 0.950 . S
C378 C387 1.390 . S
C379 C378 1.387 . S
C379 C381 1.387 . S
H380 C387 0.950 . S
C381 C379 1.387 . S
C381 C383 1.390 . S
C381 H385 0.950 . S
H382 C378 0.950 . S
C383 C381 1.390 . S
C383 C384 1.387 . S
C383 H386 0.950 . S
C384 C383 1.387 . S
C384 C387 1.387 . S
H385 C381 0.950 . S
H386 C383 0.950 . S
C387 C378 1.390 . S
C387 H380 0.950 . S
C387 C384 1.387 . S
C388 C389 1.387 . S
C388 H392 0.950 . S
C388 C397 1.390 . S
C389 C388 1.387 . S
C389 C391 1.387 . S
H390 C397 0.950 . S
C391 C389 1.387 . S
C391 C393 1.390 . S
C391 H395 0.950 . S
H392 C388 0.950 . S
C393 C391 1.390 . S
C393 C394 1.387 . S
C393 H396 0.950 . S
C394 C393 1.387 . S
C394 C397 1.387 . S
H395 C391 0.950 . S
H396 C393 0.950 . S
C397 C388 1.390 . S
C397 H390 0.950 . S
C397 C394 1.387 . S
C398 C399 1.387 . S
C398 H402 0.950 . S
C398 C407 1.390 . S
C399 C398 1.387 . S
C399 C401 1.387 . S
H400 C407 0.950 . S
C401 C399 1.387 . S
C401 C403 1.390 . S
C401 H405 0.950 . S
H402 C398 0.950 . S
C403 C401 1.390 . S
C403 C404 1.387 . S
C403 H406 0.950 . S
C404 C403 1.387 . S
C404 C407 1.387 . S
H405 C401 0.950 . S
H406 C403 0.950 . S
C407 C398 1.390 . S
C407 H400 0.950 . S
C407 C404 1.387 . S
C408 C409 1.387 . S
C408 H412 0.950 . S
C408 C417 1.390 . S
C409 C408 1.387 . S
C409 C411 1.387 . S
H410 C417 0.950 . S
C411 C409 1.387 . S
C411 C413 1.390 . S
C411 H415 0.950 . S
H412 C408 0.950 . S
C413 C411 1.390 . S
C413 C414 1.387 . S
C413 H416 0.950 . S
C414 C413 1.387 . S
C414 C417 1.387 . S
H415 C411 0.950 . S
H416 C413 0.950 . S
C417 C408 1.390 . S
C417 H410 0.950 . S
C417 C414 1.387 . S
C418 C419 1.387 . S
C418 H422 0.950 . S
C418 C427 1.390 . S
C419 C418 1.387 . S
C419 C421 1.387 . S
H420 C427 0.950 . S
C421 C419 1.387 . S
C421 C423 1.390 . S
C421 H425 0.950 . S
H422 C418 0.950 . S
C423 C421 1.390 . S
C423 C424 1.387 . S
C423 H426 0.950 . S
C424 C423 1.387 . S
C424 C427 1.387 . S
H425 C421 0.950 . S
H426 C423 0.950 . S
C427 C418 1.390 . S
C427 H420 0.950 . S
C427 C424 1.387 . S
C428 C429 1.387 . S
C428 H432 0.950 . S
C428 C437 1.390 . S
C429 C428 1.387 . S
C429 C431 1.387 . S
H430 C437 0.950 . S
C431 C429 1.387 . S
C431 C433 1.390 . S
C431 H435 0.950 . S
H432 C428 0.950 . S
C433 C431 1.390 . S
C433 C434 1.387 . S
C433 H436 0.950 . S
C434 C433 1.387 . S
C434 C437 1.387 . S
H435 C431 0.950 . S
H436 C433 0.950 . S
C437 C428 1.390 . S
C437 H430 0.950 . S
C437 C434 1.387 . S
C438 C439 1.387 . S
C438 H442 0.950 . S
C438 C447 1.390 . S
C439 C438 1.387 . S
C439 C441 1.387 . S
H440 C447 0.950 . S
C441 C439 1.387 . S
C441 C443 1.390 . S
C441 H445 0.950 . S
H442 C438 0.950 . S
C443 C441 1.390 . S
C443 C444 1.387 . S
C443 H446 0.950 . S
C444 C443 1.387 . S
C444 C447 1.387 . S
H445 C441 0.950 . S
H446 C443 0.950 . S
C447 C438 1.390 . S
C447 H440 0.950 . S
C447 C444 1.387 . S
C448 C449 1.387 . S
C448 H452 0.950 . S
C448 C457 1.390 1_655 S
C449 C448 1.387 . S
C449 C451 1.387 . S
H450 C457 0.950 . S
C451 C449 1.387 . S
C451 C453 1.390 1_655 S
C451 H455 0.950 . S
H452 C448 0.950 . S
C453 C451 1.390 1_455 S
C453 C454 1.387 . S
C453 H456 0.950 . S
C454 C453 1.387 . S
C454 C457 1.387 . S
H455 C451 0.950 . S
H456 C453 0.950 . S
C457 C448 1.390 1_455 S
C457 H450 0.950 . S
C457 C454 1.387 . S
C458 C459 1.387 . S
C458 H462 0.950 . S
C458 C467 1.390 1_565 S
C459 C458 1.387 . S
C459 C461 1.387 . S
H460 C467 0.950 . S
C461 C459 1.387 . S
C461 C463 1.390 1_565 S
C461 H465 0.950 . S
H462 C458 0.950 . S
C463 C461 1.390 1_545 S
C463 C464 1.387 . S
C463 H466 0.950 . S
C464 C463 1.387 . S
C464 C467 1.387 . S
H465 C461 0.950 . S
H466 C463 0.950 . S
C467 C458 1.390 1_545 S
C467 H460 0.950 . S
C467 C464 1.387 . S
C468 C469 1.387 . S
C468 H472 0.950 . S
C468 C477 1.390 1_655 S
C469 C468 1.387 . S
C469 C471 1.387 . S
H470 C477 0.950 . S
C471 C469 1.387 . S
C471 C473 1.390 1_655 S
C471 H475 0.950 . S
H472 C468 0.950 . S
C473 C471 1.390 1_455 S
C473 C474 1.387 . S
C473 H476 0.950 . S
C474 C473 1.387 . S
C474 C477 1.387 . S
H475 C471 0.950 . S
H476 C473 0.950 . S
C477 C468 1.390 1_455 S
C477 H470 0.950 . S
C477 C474 1.387 . S
C478 C479 1.387 . S
C478 H482 0.950 . S
C478 C487 1.390 1_565 S
C479 C478 1.387 . S
C479 C481 1.387 . S
H480 C487 0.950 . S
C481 C479 1.387 . S
C481 C483 1.390 1_565 S
C481 H485 0.950 . S
H482 C478 0.950 . S
C483 C481 1.390 1_545 S
C483 C484 1.387 . S
C483 H486 0.950 . S
C484 C483 1.387 . S
C484 C487 1.387 . S
H485 C481 0.950 . S
H486 C483 0.950 . S
C487 C478 1.390 1_545 S
C487 H480 0.950 . S
C487 C484 1.387 . S
C488 C489 1.387 . S
C488 H492 0.950 . S
C488 C497 1.390 1_565 S
C489 C488 1.387 . S
C489 C491 1.387 . S
H490 C497 0.950 . S
C491 C489 1.387 . S
C491 C493 1.390 1_565 S
C491 H495 0.950 . S
H492 C488 0.950 . S
C493 C491 1.390 1_545 S
C493 C494 1.387 . S
C493 H496 0.950 . S
C494 C493 1.387 . S
C494 C497 1.387 . S
H495 C491 0.950 . S
H496 C493 0.950 . S
C497 C488 1.390 1_545 S
C497 H490 0.950 . S
C497 C494 1.387 . S
C498 C499 1.387 . S
C498 H502 0.950 . S
C498 C507 1.390 1_455 S
C499 C498 1.387 . S
C499 C501 1.387 . S
H500 C507 0.950 . S
C501 C499 1.387 . S
C501 C503 1.390 1_455 S
C501 H505 0.950 . S
H502 C498 0.950 . S
C503 C501 1.390 1_655 S
C503 C504 1.387 . S
C503 H506 0.950 . S
C504 C503 1.387 . S
C504 C507 1.387 . S
H505 C501 0.950 . S
H506 C503 0.950 . S
C507 C498 1.390 1_655 S
C507 H500 0.950 . S
C507 C504 1.387 . S
C508 C509 1.387 . S
C508 H512 0.950 . S
C508 C517 1.390 1_565 S
C509 C508 1.387 . S
C509 C511 1.387 . S
H510 C517 0.950 . S
C511 C509 1.387 . S
C511 C513 1.390 1_565 S
C511 H515 0.950 . S
H512 C508 0.950 . S
C513 C511 1.390 1_545 S
C513 C514 1.387 . S
C513 H516 0.950 . S
C514 C513 1.387 . S
C514 C517 1.387 . S
H515 C511 0.950 . S
H516 C513 0.950 . S
C517 C508 1.390 1_545 S
C517 H510 0.950 . S
C517 C514 1.387 . S
C518 C519 1.387 . S
C518 H522 0.950 . S
C518 C527 1.390 1_455 S
C519 C518 1.387 . S
C519 C521 1.387 . S
H520 C527 0.950 . S
C521 C519 1.387 . S
C521 C523 1.390 1_455 S
C521 H525 0.950 . S
H522 C518 0.950 . S
C523 C521 1.390 1_655 S
C523 C524 1.387 . S
C523 H526 0.950 . S
C524 C523 1.387 . S
C524 C527 1.387 . S
H525 C521 0.950 . S
H526 C523 0.950 . S
C527 C518 1.390 1_655 S
C527 H520 0.950 . S
C527 C524 1.387 . S
C528 C529 1.387 . S
C528 H532 0.950 . S
C528 C537 1.390 . S
C529 C528 1.387 . S
C529 C531 1.387 . S
H530 C537 0.950 . S
C531 C529 1.387 . S
C531 C533 1.390 . S
C531 H535 0.950 . S
H532 C528 0.950 . S
C533 C531 1.390 . S
C533 C534 1.387 . S
C533 H536 0.950 . S
C534 C533 1.387 . S
C534 C537 1.387 . S
H535 C531 0.950 . S
H536 C533 0.950 . S
C537 C528 1.390 . S
C537 H530 0.950 . S
C537 C534 1.387 . S
C538 C539 1.387 . S
C538 H542 0.950 . S
C538 C547 1.390 . S
C539 C538 1.387 . S
C539 C541 1.387 . S
H540 C547 0.950 . S
C541 C539 1.387 . S
C541 C543 1.390 . S
C541 H545 0.950 . S
H542 C538 0.950 . S
C543 C541 1.390 . S
C543 C544 1.387 . S
C543 H546 0.950 . S
C544 C543 1.387 . S
C544 C547 1.387 . S
H545 C541 0.950 . S
H546 C543 0.950 . S
C547 C538 1.390 . S
C547 H540 0.950 . S
C547 C544 1.387 . S
C548 C549 1.387 . S
C548 H552 0.950 . S
C548 C557 1.390 . S
C549 C548 1.387 . S
C549 C551 1.387 . S
H550 C557 0.950 . S
C551 C549 1.387 . S
C551 C553 1.390 . S
C551 H555 0.950 . S
H552 C548 0.950 . S
C553 C551 1.390 . S
C553 C554 1.387 . S
C553 H556 0.950 . S
C554 C553 1.387 . S
C554 C557 1.387 . S
H555 C551 0.950 . S
H556 C553 0.950 . S
C557 C548 1.390 . S
C557 H550 0.950 . S
C557 C554 1.387 . S
C558 C559 1.387 . S
C558 H562 0.950 . S
C558 C567 1.390 . S
C559 C558 1.387 . S
C559 C561 1.387 . S
H560 C567 0.950 . S
C561 C559 1.387 . S
C561 C563 1.390 . S
C561 H565 0.950 . S
H562 C558 0.950 . S
C563 C561 1.390 . S
C563 C564 1.387 . S
C563 H566 0.950 . S
C564 C563 1.387 . S
C564 C567 1.387 . S
H565 C561 0.950 . S
H566 C563 0.950 . S
C567 C558 1.390 . S
C567 H560 0.950 . S
C567 C564 1.387 . S
C568 C569 1.387 . S
C568 H572 0.950 . S
C568 C577 1.390 . S
C569 C568 1.387 . S
C569 C571 1.387 . S
H570 C577 0.950 . S
C571 C569 1.387 . S
C571 C573 1.390 . S
C571 H575 0.950 . S
H572 C568 0.950 . S
C573 C571 1.390 . S
C573 C574 1.387 . S
C573 H576 0.950 . S
C574 C573 1.387 . S
C574 C577 1.387 . S
H575 C571 0.950 . S
H576 C573 0.950 . S
C577 C568 1.390 . S
C577 H570 0.950 . S
C577 C574 1.387 . S
C578 C579 1.387 . S
C578 H582 0.950 . S
C578 C587 1.390 . S
C579 C578 1.387 . S
C579 C581 1.387 . S
H580 C587 0.950 . S
C581 C579 1.387 . S
C581 C583 1.390 . S
C581 H585 0.950 . S
H582 C578 0.950 . S
C583 C581 1.390 . S
C583 C584 1.387 . S
C583 H586 0.950 . S
C584 C583 1.387 . S
C584 C587 1.387 . S
H585 C581 0.950 . S
H586 C583 0.950 . S
C587 C578 1.390 . S
C587 H580 0.950 . S
C587 C584 1.387 . S
C588 C589 1.387 . S
C588 H592 0.950 . S
C588 C597 1.390 . S
C589 C588 1.387 . S
C589 C591 1.387 . S
H590 C597 0.950 . S
C591 C589 1.387 . S
C591 C593 1.390 . S
C591 H595 0.950 . S
H592 C588 0.950 . S
C593 C591 1.390 . S
C593 C594 1.387 . S
C593 H596 0.950 . S
C594 C593 1.387 . S
C594 C597 1.387 . S
H595 C591 0.950 . S
H596 C593 0.950 . S
C597 C588 1.390 . S
C597 H590 0.950 . S
C597 C594 1.387 . S
C598 C599 1.387 . S
C598 H602 0.950 . S
C598 C607 1.390 . S
C599 C598 1.387 . S
C599 C601 1.387 . S
H600 C607 0.950 . S
C601 C599 1.387 . S
C601 C603 1.390 . S
C601 H605 0.950 . S
H602 C598 0.950 . S
C603 C601 1.390 . S
C603 C604 1.387 . S
C603 H606 0.950 . S
C604 C603 1.387 . S
C604 C607 1.387 . S
H605 C601 0.950 . S
H606 C603 0.950 . S
C607 C598 1.390 . S
C607 H600 0.950 . S
C607 C604 1.387 . S
C608 C609 1.387 . S
C608 H612 0.950 . S
C608 C617 1.390 . S
C609 C608 1.387 . S
C609 C611 1.387 . S
H610 C617 0.950 . S
C611 C609 1.387 . S
C611 C613 1.390 . S
C611 H615 0.950 . S
H612 C608 0.950 . S
C613 C611 1.390 . S
C613 C614 1.387 . S
C613 H616 0.950 . S
C614 C613 1.387 . S
C614 C617 1.387 . S
H615 C611 0.950 . S
H616 C613 0.950 . S
C617 C608 1.390 . S
C617 H610 0.950 . S
C617 C614 1.387 . S
C618 C619 1.387 . S
C618 H622 0.950 . S
C618 C627 1.390 . S
C619 C618 1.387 . S
C619 C621 1.387 . S
H620 C627 0.950 . S
C621 C619 1.387 . S
C621 C623 1.390 . S
C621 H625 0.950 . S
H622 C618 0.950 . S
C623 C621 1.390 . S
C623 C624 1.387 . S
C623 H626 0.950 . S
C624 C623 1.387 . S
C624 C627 1.387 . S
H625 C621 0.950 . S
H626 C623 0.950 . S
C627 C618 1.390 . S
C627 H620 0.950 . S
C627 C624 1.387 . S
C628 C629 1.387 . S
C628 H632 0.950 . S
C628 C637 1.390 . S
C629 C628 1.387 . S
C629 C631 1.387 . S
H630 C637 0.950 . S
C631 C629 1.387 . S
C631 C633 1.390 . S
C631 H635 0.950 . S
H632 C628 0.950 . S
C633 C631 1.390 . S
C633 C634 1.387 . S
C633 H636 0.950 . S
C634 C633 1.387 . S
C634 C637 1.387 . S
H635 C631 0.950 . S
H636 C633 0.950 . S
C637 C628 1.390 . S
C637 H630 0.950 . S
C637 C634 1.387 . S
C638 C639 1.387 . S
C638 H642 0.950 . S
C638 C647 1.390 . S
C639 C638 1.387 . S
C639 C641 1.387 . S
H640 C647 0.950 . S
C641 C639 1.387 . S
C641 C643 1.390 . S
C641 H645 0.950 . S
H642 C638 0.950 . S
C643 C641 1.390 . S
C643 C644 1.387 . S
C643 H646 0.950 . S
C644 C643 1.387 . S
C644 C647 1.387 . S
H645 C641 0.950 . S
H646 C643 0.950 . S
C647 C638 1.390 . S
C647 H640 0.950 . S
C647 C644 1.387 . S
C648 C649 1.387 . S
C648 H652 0.950 . S
C648 C657 1.390 . S
C649 C648 1.387 . S
C649 C651 1.387 . S
H650 C657 0.950 . S
C651 C649 1.387 . S
C651 C653 1.390 . S
C651 H655 0.950 . S
H652 C648 0.950 . S
C653 C651 1.390 . S
C653 C654 1.387 . S
C653 H656 0.950 . S
C654 C653 1.387 . S
C654 C657 1.387 . S
H655 C651 0.950 . S
H656 C653 0.950 . S
C657 C648 1.390 . S
C657 H650 0.950 . S
C657 C654 1.387 . S
C658 C659 1.387 . S
C658 H662 0.950 . S
C658 C667 1.390 . S
C659 C658 1.387 . S
C659 C661 1.387 . S
H660 C667 0.950 . S
C661 C659 1.387 . S
C661 C663 1.390 . S
C661 H665 0.950 . S
H662 C658 0.950 . S
C663 C661 1.390 . S
C663 C664 1.387 . S
C663 H666 0.950 . S
C664 C663 1.387 . S
C664 C667 1.387 . S
H665 C661 0.950 . S
H666 C663 0.950 . S
C667 C658 1.390 . S
C667 H660 0.950 . S
C667 C664 1.387 . S
C668 C669 1.387 . S
C668 H672 0.950 . S
C668 C677 1.390 . S
C669 C668 1.387 . S
C669 C671 1.387 . S
H670 C677 0.950 . S
C671 C669 1.387 . S
C671 C673 1.390 . S
C671 H675 0.950 . S
H672 C668 0.950 . S
C673 C671 1.390 . S
C673 C674 1.387 . S
C673 H676 0.950 . S
C674 C673 1.387 . S
C674 C677 1.387 . S
H675 C671 0.950 . S
H676 C673 0.950 . S
C677 C668 1.390 . S
C677 H670 0.950 . S
C677 C674 1.387 . S
C678 C679 1.387 . S
C678 H682 0.950 . S
C678 C687 1.390 . S
C679 C678 1.387 . S
C679 C681 1.387 . S
H680 C687 0.950 . S
C681 C679 1.387 . S
C681 C683 1.390 . S
C681 H685 0.950 . S
H682 C678 0.950 . S
C683 C681 1.390 . S
C683 C684 1.387 . S
C683 H686 0.950 . S
C684 C683 1.387 . S
C684 C687 1.387 . S
H685 C681 0.950 . S
H686 C683 0.950 . S
C687 C678 1.390 . S
C687 H680 0.950 . S
C687 C684 1.387 . S
C688 C689 1.387 1_556 S
C688 H692 0.950 . S
C688 C697 1.390 . S
C689 C688 1.387 1_554 S
C689 C691 1.387 . S
H690 C697 0.950 . S
C691 C689 1.387 . S
C691 C693 1.390 . S
C691 H695 0.950 . S
H692 C688 0.950 . S
C693 C691 1.390 . S
C693 C694 1.387 1_554 S
C693 H696 0.950 . S
C694 C693 1.387 1_556 S
C694 C697 1.387 . S
H695 C691 0.950 . S
H696 C693 0.950 . S
C697 C688 1.390 . S
C697 H690 0.950 . S
C697 C694 1.387 . S
C698 C699 1.387 . S
C698 H702 0.950 . S
C698 C707 1.390 1_556 S
C699 C698 1.387 . S
C699 C701 1.387 . S
H700 C707 0.950 . S
C701 C699 1.387 . S
C701 C703 1.390 1_556 S
C701 H705 0.950 . S
H702 C698 0.950 . S
C703 C701 1.390 1_554 S
C703 C704 1.387 . S
C703 H706 0.950 . S
C704 C703 1.387 . S
C704 C707 1.387 . S
H705 C701 0.950 . S
H706 C703 0.950 . S
C707 C698 1.390 1_554 S
C707 H700 0.950 . S
C707 C704 1.387 . S
C708 C709 1.387 . S
C708 H712 0.950 . S
C708 C717 1.390 1_556 S
C709 C708 1.387 . S
C709 C711 1.387 . S
H710 C717 0.950 . S
C711 C709 1.387 . S
C711 C713 1.390 1_556 S
C711 H715 0.950 . S
H712 C708 0.950 . S
C713 C711 1.390 1_554 S
C713 C714 1.387 . S
C713 H716 0.950 . S
C714 C713 1.387 . S
C714 C717 1.387 . S
H715 C711 0.950 . S
H716 C713 0.950 . S
C717 C708 1.390 1_554 S
C717 H710 0.950 . S
C717 C714 1.387 . S
C718 C719 1.387 . S
C718 H722 0.950 . S
C718 C727 1.390 1_556 S
C719 C718 1.387 . S
C719 C721 1.387 . S
H720 C727 0.950 . S
C721 C719 1.387 . S
C721 C723 1.390 1_556 S
C721 H725 0.950 . S
H722 C718 0.950 . S
C723 C721 1.390 1_554 S
C723 C724 1.387 . S
C723 H726 0.950 . S
C724 C723 1.387 . S
C724 C727 1.387 . S
H725 C721 0.950 . S
H726 C723 0.950 . S
C727 C718 1.390 1_554 S
C727 H720 0.950 . S
C727 C724 1.387 . S
C728 C729 1.387 . S
C728 H732 0.950 . S
C728 C737 1.390 . S
C729 C728 1.387 . S
C729 C731 1.387 . S
H730 C737 0.950 . S
C731 C729 1.387 . S
C731 C733 1.390 . S
C731 H735 0.950 . S
H732 C728 0.950 . S
C733 C731 1.390 . S
C733 C734 1.387 . S
C733 H736 0.950 . S
C734 C733 1.387 . S
C734 C737 1.387 . S
H735 C731 0.950 . S
H736 C733 0.950 . S
C737 C728 1.390 . S
C737 H730 0.950 . S
C737 C734 1.387 . S
C738 C739 1.387 . S
C738 H742 0.950 . S
C738 C747 1.390 . S
C739 C738 1.387 . S
C739 C741 1.387 . S
H740 C747 0.950 . S
C741 C739 1.387 . S
C741 C743 1.390 . S
C741 H745 0.950 . S
H742 C738 0.950 . S
C743 C741 1.390 . S
C743 C744 1.387 . S
C743 H746 0.950 . S
C744 C743 1.387 . S
C744 C747 1.387 . S
H745 C741 0.950 . S
H746 C743 0.950 . S
C747 C738 1.390 . S
C747 H740 0.950 . S
C747 C744 1.387 . S
C748 C749 1.387 . S
C748 H752 0.950 . S
C748 C757 1.390 . S
C749 C748 1.387 . S
C749 C751 1.387 . S
H750 C757 0.950 . S
C751 C749 1.387 . S
C751 C753 1.390 . S
C751 H755 0.950 . S
H752 C748 0.950 . S
C753 C751 1.390 . S
C753 C754 1.387 . S
C753 H756 0.950 . S
C754 C753 1.387 . S
C754 C757 1.387 . S
H755 C751 0.950 . S
H756 C753 0.950 . S
C757 C748 1.390 . S
C757 H750 0.950 . S
C757 C754 1.387 . S
C758 C759 1.387 . S
C758 H762 0.950 . S
C758 C767 1.390 . S
C759 C758 1.387 . S
C759 C761 1.387 . S
H760 C767 0.950 . S
C761 C759 1.387 . S
C761 C763 1.390 . S
C761 H765 0.950 . S
H762 C758 0.950 . S
C763 C761 1.390 . S
C763 C764 1.387 . S
C763 H766 0.950 . S
C764 C763 1.387 . S
C764 C767 1.387 . S
H765 C761 0.950 . S
H766 C763 0.950 . S
C767 C758 1.390 . S
C767 H760 0.950 . S
C767 C764 1.387 . S
C768 C769 1.387 . S
C768 H772 0.950 . S
C768 C777 1.390 1_556 S
C769 C768 1.387 . S
C769 C771 1.387 . S
H770 C777 0.950 . S
C771 C769 1.387 . S
C771 C773 1.390 1_556 S
C771 H775 0.950 . S
H772 C768 0.950 . S
C773 C771 1.390 1_554 S
C773 C774 1.387 . S
C773 H776 0.950 . S
C774 C773 1.387 . S
C774 C777 1.387 . S
H775 C771 0.950 . S
H776 C773 0.950 . S
C777 C768 1.390 1_554 S
C777 H770 0.950 . S
C777 C774 1.387 . S
C778 C779 1.387 . S
C778 H782 0.950 . S
C778 C787 1.390 1_554 S
C779 C778 1.387 . S
C779 C781 1.387 . S
H780 C787 0.950 . S
C781 C779 1.387 . S
C781 C783 1.390 1_554 S
C781 H785 0.950 . S
H782 C778 0.950 . S
C783 C781 1.390 1_556 S
C783 C784 1.387 . S
C783 H786 0.950 . S
C784 C783 1.387 . S
C784 C787 1.387 . S
H785 C781 0.950 . S
H786 C783 0.950 . S
C787 C778 1.390 1_556 S
C787 H780 0.950 . S
C787 C784 1.387 . S
C788 C789 1.387 . S
C788 H792 0.950 . S
C788 C797 1.390 1_554 S
C789 C788 1.387 . S
C789 C791 1.387 . S
H790 C797 0.950 . S
C791 C789 1.387 . S
C791 C793 1.390 1_554 S
C791 H795 0.950 . S
H792 C788 0.950 . S
C793 C791 1.390 1_556 S
C793 C794 1.387 . S
C793 H796 0.950 . S
C794 C793 1.387 . S
C794 C797 1.387 . S
H795 C791 0.950 . S
H796 C793 0.950 . S
C797 C788 1.390 1_556 S
C797 H790 0.950 . S
C797 C794 1.387 . S
C798 C799 1.387 . S
C798 H802 0.950 . S
C798 C807 1.390 1_554 S
C799 C798 1.387 . S
C799 C801 1.387 . S
H800 C807 0.950 . S
C801 C799 1.387 . S
C801 C803 1.390 1_554 S
C801 H805 0.950 . S
H802 C798 0.950 . S
C803 C801 1.390 1_556 S
C803 C804 1.387 . S
C803 H806 0.950 . S
C804 C803 1.387 . S
C804 C807 1.387 . S
H805 C801 0.950 . S
H806 C803 0.950 . S
C807 C798 1.390 1_556 S
C807 H800 0.950 . S
C807 C804 1.387 . S
C808 C809 1.387 . S
C808 H812 0.950 . S
C808 C817 1.390 1_545 S
C809 C808 1.387 . S
C809 C811 1.387 . S
H810 C817 0.950 . S
C811 C809 1.387 . S
C811 C813 1.390 1_545 S
C811 H815 0.950 . S
H812 C808 0.950 . S
C813 C811 1.390 1_565 S
C813 C814 1.387 . S
C813 H816 0.950 . S
C814 C813 1.387 . S
C814 C817 1.387 . S
H815 C811 0.950 . S
H816 C813 0.950 . S
C817 C808 1.390 1_565 S
C817 H810 0.950 . S
C817 C814 1.387 . S
C818 C819 1.387 . S
C818 H822 0.950 . S
C818 C827 1.390 1_655 S
C819 C818 1.387 . S
C819 C821 1.387 . S
H820 C827 0.950 . S
C821 C819 1.387 . S
C821 C823 1.390 1_655 S
C821 H825 0.950 . S
H822 C818 0.950 . S
C823 C821 1.390 1_455 S
C823 C824 1.387 . S
C823 H826 0.950 . S
C824 C823 1.387 . S
C824 C827 1.387 . S
H825 C821 0.950 . S
H826 C823 0.950 . S
C827 C818 1.390 1_455 S
C827 H820 0.950 . S
C827 C824 1.387 . S
C828 C829 1.387 . S
C828 H832 0.950 . S
C828 C837 1.390 1_565 S
C829 C828 1.387 . S
C829 C831 1.387 . S
H830 C837 0.950 . S
C831 C829 1.387 . S
C831 C833 1.390 1_565 S
C831 H835 0.950 . S
H832 C828 0.950 . S
C833 C831 1.390 1_545 S
C833 C834 1.387 . S
C833 H836 0.950 . S
C834 C833 1.387 . S
C834 C837 1.387 . S
H835 C831 0.950 . S
H836 C833 0.950 . S
C837 C828 1.390 1_545 S
C837 H830 0.950 . S
C837 C834 1.387 . S
C838 C839 1.387 . S
C838 H842 0.950 . S
C838 C847 1.390 1_655 S
C839 C838 1.387 . S
C839 C841 1.387 . S
H840 C847 0.950 . S
C841 C839 1.387 . S
C841 C843 1.390 1_655 S
C841 H845 0.950 . S
H842 C838 0.950 . S
C843 C841 1.390 1_455 S
C843 C844 1.387 . S
C843 H846 0.950 . S
C844 C843 1.387 . S
C844 C847 1.387 . S
H845 C841 0.950 . S
H846 C843 0.950 . S
C847 C838 1.390 1_455 S
C847 H840 0.950 . S
C847 C844 1.387 . S
C369 C16 1.344 . S
C374 C361 1.344 . S
C379 C292 1.347 . S
C384 C39 1.347 . S
C389 C62 1.346 . S
C394 C315 1.347 . S
C399 C338 1.347 . S
C404 C85 1.346 . S
C409 C108 1.346 . S
C414 C223 1.347 . S
C419 C246 1.345 . S
C424 C131 1.346 . S
C429 C154 1.345 . S
C434 C269 1.344 . S
C439 C200 1.344 . S
C444 C177 1.345 . S
C449 C67 1.742 . S
C454 C21 1.742 . S
C459 C90 1.746 . S
C464 C44 1.746 . S
C469 C159 1.742 . S
C474 C113 1.742 . S
C479 C182 1.746 . S
C484 C136 1.746 . S
C489 C205 1.742 . S
C494 C251 1.742 . S
C499 C228 1.742 . S
C504 C274 1.742 . S
C509 C343 1.742 . S
C514 C297 1.742 . S
C519 C366 1.746 . S
C524 C320 1.746 . S
C529 C18 1.188 . S
C534 C43 1.181 . S
C539 C66 1.182 . S
C544 C41 1.186 . S
C549 C64 1.186 . S
C554 C89 1.183 . S
C559 C20 1.181 . S
C564 C87 1.188 . S
C569 C110 1.186 . S
C574 C181 1.182 . S
C579 C112 1.182 . S
C584 C133 1.186 . S
C589 C156 1.188 . S
C594 C135 1.181 . S
C599 C158 1.182 . S
C604 C179 1.186 . S
C609 C202 1.186 . S
C614 C227 1.182 . S
C619 C250 1.181 . S
C624 C225 1.188 . S
C629 C273 1.181 . S
C634 C248 1.188 . S
C639 C271 1.186 . S
C644 C204 1.182 . S
C649 C294 1.188 . S
C654 C365 1.181 . S
C659 C296 1.182 . S
C664 C317 1.186 . S
C669 C340 1.188 . S
C674 C319 1.181 . S
C679 C342 1.182 . S
C684 C363 1.186 . S
C689 C19 1.987 . S
C694 C134 1.985 . S
C699 C157 1.987 . S
C704 C42 1.985 . S
C709 C180 1.985 . S
C714 C65 1.987 . S
C719 C111 1.987 . S
C724 C88 1.986 . S
C729 C318 1.987 . S
C734 C203 1.986 . S
C739 C226 1.987 . S
C744 C341 1.987 . S
C749 C364 1.987 . S
C754 C249 1.984 . S
C759 C272 1.986 . S
C764 C295 1.987 . S
C769 C109 0.848 . S
C774 C17 0.848 . S
C779 C40 0.843 . S
C784 C132 0.843 . S
C789 C63 0.848 . S
C794 C155 0.848 . S
C799 C86 0.843 . S
C804 C178 0.843 . S
C809 C293 0.843 . S
C814 C201 0.843 . S
C819 C316 0.848 . S
C824 C224 0.848 . S
C829 C339 0.843 . S
C834 C247 0.843 . S
C839 C270 0.843 . S
C844 C362 0.843 . S
