# Generated by pormake.
# Topology wgf, (5)-cn, num edge types: 1
# Building blocks:
#     Node 0, Type 0, BuildingBlock: BEQFEK_clean_sbu_0, # of connection points: 5
#     Node 1, Type 0, BuildingBlock: BEQFEK_clean_sbu_0, # of connection points: 5
#     Node 2, Type 0, BuildingBlock: BEQFEK_clean_sbu_0, # of connection points: 5
#     Node 3, Type 0, BuildingBlock: BEQFEK_clean_sbu_0, # of connection points: 5
#     Node 4, Type 0, BuildingBlock: BEQFEK_clean_sbu_0, # of connection points: 5
#     Node 5, Type 0, BuildingBlock: BEQFEK_clean_sbu_0, # of connection points: 5
#     Node 6, Type 0, BuildingBlock: BEQFEK_clean_sbu_0, # of connection points: 5
#     Node 7, Type 0, BuildingBlock: BEQFEK_clean_sbu_0, # of connection points: 5
#     Node 8, Type 0, BuildingBlock: BEQFEK_clean_sbu_0, # of connection points: 5
#     Node 9, Type 0, BuildingBlock: BEQFEK_clean_sbu_0, # of connection points: 5
#     Node 10, Type 0, BuildingBlock: BEQFEK_clean_sbu_0, # of connection points: 5
#     Node 11, Type 0, BuildingBlock: BEQFEK_clean_sbu_0, # of connection points: 5
#     Node 12, Type 0, BuildingBlock: BEQFEK_clean_sbu_0, # of connection points: 5
#     Node 13, Type 0, BuildingBlock: BEQFEK_clean_sbu_0, # of connection points: 5
#     Node 14, Type 0, BuildingBlock: BEQFEK_clean_sbu_0, # of connection points: 5
#     Node 15, Type 0, BuildingBlock: BEQFEK_clean_sbu_0, # of connection points: 5
#     Node 16, Type 0, BuildingBlock: BEQFEK_clean_sbu_0, # of connection points: 5
#     Node 17, Type 0, BuildingBlock: BEQFEK_clean_sbu_0, # of connection points: 5
#     Node 18, Type 0, BuildingBlock: BEQFEK_clean_sbu_0, # of connection points: 5
#     Node 19, Type 0, BuildingBlock: BEQFEK_clean_sbu_0, # of connection points: 5
#     Node 20, Type 0, BuildingBlock: BEQFEK_clean_sbu_0, # of connection points: 5
#     Node 21, Type 0, BuildingBlock: BEQFEK_clean_sbu_0, # of connection points: 5
#     Node 22, Type 0, BuildingBlock: BEQFEK_clean_sbu_0, # of connection points: 5
#     Node 23, Type 0, BuildingBlock: BEQFEK_clean_sbu_0, # of connection points: 5
#     Node 24, Type 0, BuildingBlock: BEQFEK_clean_sbu_0, # of connection points: 5
#     Node 25, Type 0, BuildingBlock: BEQFEK_clean_sbu_0, # of connection points: 5
#     Node 26, Type 0, BuildingBlock: BEQFEK_clean_sbu_0, # of connection points: 5
#     Node 27, Type 0, BuildingBlock: BEQFEK_clean_sbu_0, # of connection points: 5
#     Node 28, Type 0, BuildingBlock: BEQFEK_clean_sbu_0, # of connection points: 5
#     Node 29, Type 0, BuildingBlock: BEQFEK_clean_sbu_0, # of connection points: 5
#     Node 30, Type 0, BuildingBlock: BEQFEK_clean_sbu_0, # of connection points: 5
#     Node 31, Type 0, BuildingBlock: BEQFEK_clean_sbu_0, # of connection points: 5
#     Edge 32, Type (0, 0), None
#     Edge 33, Type (0, 0), None
#     Edge 34, Type (0, 0), None
#     Edge 35, Type (0, 0), None
#     Edge 36, Type (0, 0), None
#     Edge 37, Type (0, 0), None
#     Edge 38, Type (0, 0), None
#     Edge 39, Type (0, 0), None
#     Edge 40, Type (0, 0), None
#     Edge 41, Type (0, 0), None
#     Edge 42, Type (0, 0), None
#     Edge 43, Type (0, 0), None
#     Edge 44, Type (0, 0), None
#     Edge 45, Type (0, 0), None
#     Edge 46, Type (0, 0), None
#     Edge 47, Type (0, 0), None
#     Edge 48, Type (0, 0), None
#     Edge 49, Type (0, 0), None
#     Edge 50, Type (0, 0), None
#     Edge 51, Type (0, 0), None
#     Edge 52, Type (0, 0), None
#     Edge 53, Type (0, 0), None
#     Edge 54, Type (0, 0), None
#     Edge 55, Type (0, 0), None
#     Edge 56, Type (0, 0), None
#     Edge 57, Type (0, 0), None
#     Edge 58, Type (0, 0), None
#     Edge 59, Type (0, 0), None
#     Edge 60, Type (0, 0), None
#     Edge 61, Type (0, 0), None
#     Edge 62, Type (0, 0), None
#     Edge 63, Type (0, 0), None
#     Edge 64, Type (0, 0), None
#     Edge 65, Type (0, 0), None
#     Edge 66, Type (0, 0), None
#     Edge 67, Type (0, 0), None
#     Edge 68, Type (0, 0), None
#     Edge 69, Type (0, 0), None
#     Edge 70, Type (0, 0), None
#     Edge 71, Type (0, 0), None
#     Edge 72, Type (0, 0), None
#     Edge 73, Type (0, 0), None
#     Edge 74, Type (0, 0), None
#     Edge 75, Type (0, 0), None
#     Edge 76, Type (0, 0), None
#     Edge 77, Type (0, 0), None
#     Edge 78, Type (0, 0), None
#     Edge 79, Type (0, 0), None
#     Edge 80, Type (0, 0), None
#     Edge 81, Type (0, 0), None
#     Edge 82, Type (0, 0), None
#     Edge 83, Type (0, 0), None
#     Edge 84, Type (0, 0), None
#     Edge 85, Type (0, 0), None
#     Edge 86, Type (0, 0), None
#     Edge 87, Type (0, 0), None
#     Edge 88, Type (0, 0), None
#     Edge 89, Type (0, 0), None
#     Edge 90, Type (0, 0), None
#     Edge 91, Type (0, 0), None
#     Edge 92, Type (0, 0), None
#     Edge 93, Type (0, 0), None
#     Edge 94, Type (0, 0), None
#     Edge 95, Type (0, 0), None
#     Edge 96, Type (0, 0), None
#     Edge 97, Type (0, 0), None
#     Edge 98, Type (0, 0), None
#     Edge 99, Type (0, 0), None
#     Edge 100, Type (0, 0), None
#     Edge 101, Type (0, 0), None
#     Edge 102, Type (0, 0), None
#     Edge 103, Type (0, 0), None
#     Edge 104, Type (0, 0), None
#     Edge 105, Type (0, 0), None
#     Edge 106, Type (0, 0), None
#     Edge 107, Type (0, 0), None
#     Edge 108, Type (0, 0), None
#     Edge 109, Type (0, 0), None
#     Edge 110, Type (0, 0), None
#     Edge 111, Type (0, 0), None
# Relax obj value: 0.947
# Max RMSD: 0.170
# Mean RMSD: 0.167
data_MOF--net-wgf--node1-BEQFEK_clean_sbu_0--edge1-none
_symmetry_space_group_name_H-M    P1
_symmetry_Int_Tables_number       1
_symmetry_cell_setting            triclinic
loop_
_symmetry_equiv_pos_as_xyz
'x, y, z'
_cell_length_a     39.821312
_cell_length_b     39.84409
_cell_length_c     12.364011
_cell_angle_alpha  89.989187
_cell_angle_beta   90.007044
_cell_angle_gamma 89.994443
loop_
_atom_site_label
_atom_site_type_symbol
_atom_site_fract_x
_atom_site_fract_y
_atom_site_fract_z
_atom_type_partial_charge
Co0 Co 0.10042 0.06091 0.2867 0.0
Co1 Co 0.05958 0.11148 0.18899 0.0
C2 C 0.03051 0.08579 0.39002 0.0
O3 O 0.05947 0.07169 0.39544 0.0
O4 O 0.02318 0.10203 0.30411 0.0
C5 C 0.09703 1.01094 0.37696 0.0
O6 O 0.06822 1.00958 0.32508 0.0
C7 C 0.0172 0.15477 0.06218 0.0
C8 C 0.05499 0.17809 0.95585 0.0
C9 C 0.02077 0.17305 0.9671 0.0
N10 N 0.0477 0.14698 0.09829 0.0
N11 N 0.07027 0.1627 1.03882 0.0
C12 C 0.98596 0.13763 0.10176 0.0
H13 H 0.98176 0.14451 0.18765 0.0
H14 H 0.9893 0.11001 0.09873 0.0
H15 H 0.96358 0.14498 0.05372 0.0
C16 C 0.09396 0.02209 0.07961 0.0
N17 N 0.08853 0.04916 0.14455 0.0
N18 N 0.06983 0.07128 0.09538 0.0
C19 C 0.06298 0.05844 0.99543 0.0
C20 C 0.07744 0.02655 0.98203 0.0
C21 C 0.11599 0.99286 0.10741 0.0
H22 H 0.1402 1.00199 0.14055 0.0
H23 H 0.1035 0.97716 0.16951 0.0
H24 H 0.12107 0.97695 1.03556 0.0
O25 O 0.13586 0.09514 0.29551 0.0
O26 O 0.09935 0.13487 0.26159 0.0
H27 H 0.05568 0.09879 0.88924 0.0
H28 H 0.03682 0.05969 0.84337 0.0
C29 C 0.04221 0.07575 0.91467 0.0
H30 H 0.01861 0.08264 0.95578 0.0
H31 H 0.09617 0.15989 0.04784 0.0
O32 O 0.12262 0.02121 0.32842 0.0
C33 C 0.12847 0.12595 0.29233 0.0
Co34 Co 0.21895 0.85048 0.53666 0.0
Co35 Co 0.1683 0.80972 0.43905 0.0
C36 C 0.194 0.78064 0.64008 0.0
O37 O 0.20814 0.80956 0.64544 0.0
O38 O 0.17774 0.77334 0.55422 0.0
C39 C 0.26894 0.84704 0.62687 0.0
O40 O 0.2703 0.81826 0.57501 0.0
C41 C 0.125 0.76734 0.31239 0.0
C42 C 0.10165 0.80508 0.20593 0.0
C43 C 0.1067 0.77088 0.21732 0.0
N44 N 0.13278 0.79783 0.3484 0.0
N45 N 0.11704 0.82037 0.28884 0.0
C46 C 0.14216 0.73614 0.35207 0.0
H47 H 0.13528 0.73194 0.43796 0.0
H48 H 0.1698 0.73948 0.34905 0.0
H49 H 0.13484 0.71375 0.30408 0.0
C50 C 0.25776 0.84399 0.32952 0.0
N51 N 0.23067 0.83859 0.3945 0.0
N52 N 0.20852 0.81992 0.34538 0.0
C53 C 0.22135 0.81307 0.24542 0.0
C54 C 0.25326 0.8275 0.23196 0.0
C55 C 0.28701 0.866 0.35725 0.0
H56 H 0.27789 0.89021 0.39035 0.0
H57 H 0.30272 0.85351 0.41935 0.0
H58 H 0.30292 0.87106 0.28537 0.0
O59 O 0.18474 0.88593 0.54552 0.0
O60 O 0.14494 0.84951 0.51157 0.0
H61 H 0.18094 0.80579 0.13935 0.0
H62 H 0.22005 0.78695 0.09333 0.0
C63 C 0.20401 0.79232 0.16469 0.0
H64 H 0.19713 0.76873 0.20581 0.0
H65 H 0.11985 0.84627 0.29776 0.0
O66 O 0.25872 0.87263 0.57826 0.0
C67 C 0.1539 0.8786 0.54232 0.0
Co68 Co 0.42926 0.9691 0.78669 0.0
Co69 Co 0.47011 0.91853 0.68912 0.0
C70 C 0.49917 0.94423 0.89013 0.0
O71 O 0.47021 0.95833 0.8955 0.0
O72 O 0.5065 0.92799 0.80427 0.0
C73 C 0.43264 0.01908 0.87687 0.0
O74 O 0.46145 0.02044 0.82501 0.0
C75 C 0.51252 0.87525 0.56245 0.0
C76 C 0.47475 0.85192 0.45608 0.0
C77 C 0.50896 0.85696 0.46741 0.0
N78 N 0.48201 0.88303 0.59849 0.0
N79 N 0.45945 0.8673 0.539 0.0
C80 C 0.54374 0.8924 0.60208 0.0
H81 H 0.54795 0.88552 0.68798 0.0
H82 H 0.54039 0.92003 0.59903 0.0
H83 H 0.56613 0.88507 0.55407 0.0
C84 C 0.43574 1.00792 0.57955 0.0
N85 N 0.44115 0.98085 0.64453 0.0
N86 N 0.45986 0.95873 0.59543 0.0
C87 C 0.46672 0.97157 0.49548 0.0
C88 C 0.45226 1.00345 0.48201 0.0
C89 C 0.41369 0.03714 0.60727 0.0
H90 H 0.38948 0.02801 0.6404 0.0
H91 H 0.42618 0.05285 0.66935 0.0
H92 H 0.40862 0.05304 0.53538 0.0
O93 O 0.39383 0.93486 0.7955 0.0
O94 O 0.43033 0.89514 0.76167 0.0
H95 H 0.47403 0.93121 0.38936 0.0
H96 H 0.49289 0.97031 0.34345 0.0
C97 C 0.48751 0.95425 0.41477 0.0
H98 H 0.5111 0.94736 0.45592 0.0
H99 H 0.43354 0.87011 0.54796 0.0
O100 O 0.40706 1.0088 0.82834 0.0
C101 C 0.40121 0.90405 0.79236 0.0
Co102 Co 0.31074 0.17955 1.03672 0.0
Co103 Co 0.36138 0.22031 0.93907 0.0
C104 C 0.33569 0.24939 0.14009 0.0
O105 O 0.32156 0.22046 0.14548 0.0
O106 O 0.35195 0.25669 0.05421 0.0
C107 C 0.26077 0.18297 0.12696 0.0
O108 O 0.2594 0.21176 0.07508 0.0
C109 C 0.40469 0.26269 0.81239 0.0
C110 C 0.42804 0.22494 0.70602 0.0
C111 C 0.42299 0.25914 0.71734 0.0
N112 N 0.3969 0.2322 0.84843 0.0
N113 N 0.41264 0.20965 0.78894 0.0
C114 C 0.38753 0.29389 0.852 0.0
H115 H 0.39441 0.29809 0.9379 0.0
H116 H 0.35989 0.29056 0.84893 0.0
H117 H 0.39487 0.31627 0.80399 0.0
C118 C 0.27192 0.18604 0.82959 0.0
N119 N 0.299 0.19144 0.89456 0.0
N120 N 0.32115 0.21011 0.84541 0.0
C121 C 0.30832 0.21696 0.74543 0.0
C122 C 0.2764 0.20254 0.732 0.0
C123 C 0.24266 0.16404 0.85734 0.0
H124 H 0.25178 0.13983 0.89045 0.0
H125 H 0.22696 0.17653 0.91946 0.0
H126 H 0.22674 0.15899 0.78548 0.0
O127 O 0.34496 0.1441 1.04554 0.0
O128 O 0.38475 0.18052 1.0116 0.0
H129 H 0.34873 0.22423 0.63937 0.0
H130 H 0.30961 0.24307 0.5933 0.0
C131 C 0.32566 0.2377 0.66468 0.0
H132 H 0.33254 0.26129 0.70576 0.0
H133 H 0.40983 0.18376 0.79789 0.0
O134 O 0.27099 0.15739 0.07837 0.0
C135 C 0.37579 0.15143 1.04233 0.0
Co136 Co 0.10043 0.96907 0.5794 0.0
Co137 Co 0.0596 0.91849 0.67699 0.0
C138 C 0.03053 0.94422 0.47595 0.0
O139 O 0.05948 0.95833 0.4706 0.0
O140 O 0.02321 0.92796 0.56181 0.0
C141 C 0.09704 0.01914 0.48942 0.0
O142 O 0.06821 0.02045 0.54118 0.0
C143 C 0.01718 0.87521 0.80369 0.0
C144 C 0.05496 0.85186 0.91006 0.0
C145 C 0.02074 0.85692 0.89875 0.0
N146 N 0.04769 0.88298 0.76763 0.0
N147 N 0.07025 0.86724 0.82712 0.0
C148 C 0.98596 0.89238 0.76407 0.0
H149 H 0.98175 0.88549 0.67819 0.0
H150 H 0.98932 0.92 0.76706 0.0
H151 H 0.96357 0.88506 0.81211 0.0
C152 C 0.09398 1.00785 0.78659 0.0
N153 N 0.08855 0.9808 0.72158 0.0
N154 N 0.06984 0.95867 0.77068 0.0
C155 C 0.06299 0.9715 0.87064 0.0
C156 C 0.07747 1.00336 0.88415 0.0
C157 C 0.11602 0.03708 0.7589 0.0
H158 H 0.14022 0.02795 0.7257 0.0
H159 H 0.10352 0.05281 0.69687 0.0
H160 H 0.1211 0.05295 0.83081 0.0
O161 O 0.13586 0.93484 0.5705 0.0
O162 O 0.09937 0.8951 0.60442 0.0
H163 H 0.05567 0.93113 0.97676 0.0
H164 H 0.03681 0.97022 1.02265 0.0
C165 C 0.0422 0.95417 0.95134 0.0
H166 H 0.01861 0.9473 0.91017 0.0
H167 H 0.09616 0.87004 0.81815 0.0
O168 O 0.12262 1.00879 0.53781 0.0
C169 C 0.12849 0.90402 0.57366 0.0
Co170 Co 0.31075 0.8505 0.8293 0.0
Co171 Co 0.36141 0.80973 0.92694 0.0
C172 C 0.3357 0.78067 0.72591 0.0
O173 O 0.32155 0.80959 0.72055 0.0
O174 O 0.35197 0.77337 0.81177 0.0
C175 C 0.26068 0.84706 0.73929 0.0
O176 O 0.25938 0.81825 0.79111 0.0
C177 C 0.40471 0.76734 0.05364 0.0
C178 C 0.42806 0.80507 0.16005 0.0
C179 C 0.42302 0.77087 0.1487 0.0
N180 N 0.39693 0.79783 1.0176 0.0
N181 N 0.41267 0.82037 0.07712 0.0
C182 C 0.38755 0.73614 1.01399 0.0
H183 H 0.39444 0.73194 0.92811 0.0
H184 H 0.35991 0.73949 1.01696 0.0
H185 H 0.39487 0.71376 0.06202 0.0
C186 C 0.27195 0.84401 1.03648 0.0
N187 N 0.29903 0.83861 0.97148 0.0
N188 N 0.32118 0.81993 1.0206 0.0
C189 C 0.30836 0.81307 0.12057 0.0
C190 C 0.27645 0.82752 0.13406 0.0
C191 C 0.24269 0.86603 1.00877 0.0
H192 H 0.2518 0.89022 0.97558 0.0
H193 H 0.22696 0.85353 0.94674 0.0
H194 H 0.2268 0.87109 0.08068 0.0
O195 O 0.34496 0.88595 0.82041 0.0
O196 O 0.38476 0.84953 0.85444 0.0
H197 H 0.34878 0.80578 0.22661 0.0
H198 H 0.30967 0.78694 0.27266 0.0
C199 C 0.32571 0.79231 0.20129 0.0
H200 H 0.33258 0.76873 0.16017 0.0
H201 H 0.40986 0.84626 0.06817 0.0
O202 O 0.27097 0.87264 0.7877 0.0
C203 C 0.3758 0.87862 0.82366 0.0
Co204 Co 0.42927 0.06095 0.07933 0.0
Co205 Co 0.47011 0.11152 0.17688 0.0
C206 C 0.49916 0.0858 0.97587 0.0
O207 O 0.47021 0.07169 0.97051 0.0
O208 O 0.50649 0.10205 0.06172 0.0
C209 C 0.43264 1.01089 0.98935 0.0
O210 O 0.46146 1.00958 1.04111 0.0
C211 C 0.51253 0.1548 0.30354 0.0
C212 C 0.47476 0.17816 0.40984 0.0
C213 C 0.50898 0.1731 0.39855 0.0
N214 N 0.48202 0.14702 0.26748 0.0
N215 N 0.45946 0.16277 0.32693 0.0
C216 C 0.54375 0.13763 0.26396 0.0
H217 H 0.54796 0.14451 0.17807 0.0
H218 H 0.5404 0.11001 0.26701 0.0
H219 H 0.56614 0.14495 0.312 0.0
C220 C 0.43573 0.02215 0.28653 0.0
N221 N 0.44116 0.04921 0.22151 0.0
N222 N 0.45987 0.07133 0.2706 0.0
C223 C 0.46672 0.05851 0.37058 0.0
C224 C 0.45225 0.02664 0.3841 0.0
C225 C 0.41369 0.99293 0.25885 0.0
H226 H 0.38948 1.00206 0.22565 0.0
H227 H 0.42618 0.97721 0.19682 0.0
H228 H 0.40861 0.97705 0.33077 0.0
O229 O 0.39383 0.09519 0.07046 0.0
O230 O 0.43033 0.13491 0.10433 0.0
H231 H 0.47403 0.09887 0.47667 0.0
H232 H 0.4929 0.05978 0.52261 0.0
C233 C 0.48751 0.07583 0.45128 0.0
H234 H 0.5111 0.08271 0.41013 0.0
H235 H 0.43356 0.15997 0.31795 0.0
O236 O 0.40706 0.02124 1.03773 0.0
C237 C 0.40121 0.126 0.07362 0.0
Co238 Co 0.21894 0.1795 0.32932 0.0
Co239 Co 0.16827 0.22027 0.42683 0.0
C240 C 0.194 0.24933 0.22579 0.0
O241 O 0.20815 0.22041 0.22049 0.0
O242 O 0.17772 0.25663 0.31161 0.0
C243 C 0.26902 0.18295 0.23939 0.0
O244 O 0.27032 0.21175 0.29119 0.0
C245 C 0.12499 0.2627 0.55336 0.0
C246 C 0.10162 0.22499 0.65985 0.0
C247 C 0.10668 0.25918 0.6484 0.0
N248 N 0.13275 0.23219 0.51741 0.0
N249 N 0.11701 0.20967 0.57698 0.0
C250 C 0.14216 0.29388 0.51365 0.0
H251 H 0.13526 0.29808 0.42777 0.0
H252 H 0.1698 0.29051 0.51662 0.0
H253 H 0.13486 0.31627 0.56164 0.0
C254 C 0.25772 0.186 0.53655 0.0
N255 N 0.23065 0.1914 0.4715 0.0
N256 N 0.20849 0.21008 0.52055 0.0
C257 C 0.22131 0.21695 0.62052 0.0
C258 C 0.25321 0.20251 0.63408 0.0
C259 C 0.28698 0.16398 0.50893 0.0
H260 H 0.27786 0.13978 0.47574 0.0
H261 H 0.30272 0.17647 0.44693 0.0
H262 H 0.30286 0.15891 0.58088 0.0
O263 O 0.18472 0.14405 0.32043 0.0
O264 O 0.14492 0.18047 0.35438 0.0
H265 H 0.18089 0.22426 0.72649 0.0
H266 H 0.22 0.2431 0.77256 0.0
C267 C 0.20396 0.23772 0.70117 0.0
H268 H 0.19709 0.26131 0.66001 0.0
H269 H 0.11981 0.18377 0.56811 0.0
O270 O 0.25872 0.15736 0.2878 0.0
C271 C 0.15388 0.15138 0.32364 0.0
Co272 Co 0.97042 0.92985 0.06539 0.0
Co273 Co 0.92014 0.96876 0.17944 0.0
C274 C 0.94806 1.00127 0.97697 0.0
O275 O 0.96377 0.97321 0.96365 0.0
O276 O 0.9304 1.00516 0.06287 0.0
C277 C 1.00157 0.86777 0.99127 0.0
O278 O 0.97553 0.8503 1.02273 0.0
C279 C 0.87353 1.00979 0.30418 0.0
C280 C 0.84538 0.97039 0.39067 0.0
C281 C 0.84934 1.00482 0.38411 0.0
N282 N 0.88497 0.97997 0.27282 0.0
N283 N 0.86704 0.95642 0.32097 0.0
C284 C 0.88564 0.04213 0.25583 0.0
H285 H 0.86939 0.04841 0.1858 0.0
H286 H 0.91163 0.03919 0.22546 0.0
H287 H 0.88466 0.06343 0.3128 0.0
C288 C 1.01171 0.9343 0.27345 0.0
N289 N 0.98411 0.94024 0.21097 0.0
N290 N 0.96094 0.95532 0.26843 0.0
C291 C 0.97326 0.95842 0.37159 0.0
C292 C 1.00624 0.94556 0.37923 0.0
C293 C 0.04255 0.91667 0.23407 0.0
H294 H 0.03542 0.89312 0.1923 0.0
H295 H 0.05574 0.93295 0.1752 0.0
H296 H 0.05997 0.9107 0.30146 0.0
O297 O 0.932 0.89791 0.05867 0.0
O298 O 0.89285 0.93248 0.10792 0.0
H299 H 0.94721 0.95262 0.51999 0.0
H300 H 0.97 0.99119 0.50822 0.0
C301 C 0.95409 0.97307 0.4632 0.0
H302 H 0.93106 0.98543 0.43315 0.0
H303 H 0.87074 0.9307 0.31038 0.0
O304 O 1.00346 0.89909 1.00957 0.0
C305 C 0.90132 0.90421 0.07137 0.0
Co306 Co 0.85006 0.22054 0.81546 0.0
Co307 Co 0.81109 0.17034 0.92955 0.0
C308 C 0.77858 0.19823 0.7271 0.0
O309 O 0.80668 0.21388 0.71372 0.0
O310 O 0.77465 0.18061 0.81308 0.0
C311 C 0.91213 0.25169 0.74112 0.0
O312 O 0.92964 0.2257 0.77278 0.0
C313 C 0.77008 0.12374 0.0544 0.0
C314 C 0.80954 0.09562 0.14084 0.0
C315 C 0.77509 0.09956 0.13434 0.0
N316 N 0.79991 0.13519 1.02298 0.0
N317 N 0.8235 0.11728 0.0711 0.0
C318 C 0.73771 0.13583 1.00612 0.0
H319 H 0.73139 0.11956 0.93622 0.0
H320 H 0.74064 0.16179 0.97559 0.0
H321 H 0.71642 0.13489 0.06319 0.0
C322 C 0.84563 0.26183 1.02343 0.0
N323 N 0.83967 0.23425 0.961 0.0
N324 N 0.82457 0.21111 1.0185 0.0
C325 C 0.82148 0.22342 0.12164 0.0
C326 C 0.83436 0.25638 0.12923 0.0
C327 C 0.86328 0.29264 0.98399 0.0
H328 H 0.88683 0.2855 0.94221 0.0
H329 H 0.84699 0.30583 0.92511 0.0
H330 H 0.86926 0.31005 0.05136 0.0
O331 O 0.88202 0.18214 0.80887 0.0
O332 O 0.84736 0.14305 0.85786 0.0
H333 H 0.82729 0.19742 0.2701 0.0
H334 H 0.7887 0.22018 0.25829 0.0
C335 C 0.80683 0.20428 0.21331 0.0
H336 H 0.79447 0.18125 0.1833 0.0
H337 H 0.84922 0.12098 0.06046 0.0
O338 O 0.88079 0.25355 0.75948 0.0
C339 C 0.87567 0.15148 0.82143 0.0
Co340 Co 0.55927 0.10017 0.56536 0.0
Co341 Co 0.60955 0.06125 0.67948 0.0
C342 C 0.58163 0.02875 0.47703 0.0
O343 O 0.56593 0.05681 0.46366 0.0
O344 O 0.59929 0.02484 0.56296 0.0
C345 C 0.52814 0.16224 0.49111 0.0
O346 O 0.55419 0.17971 0.52254 0.0
C347 C 0.65617 0.02023 0.8043 0.0
C348 C 0.68432 0.05963 0.89073 0.0
C349 C 0.68036 0.02521 0.88424 0.0
N350 N 0.64472 0.05005 0.77289 0.0
N351 N 0.66265 0.0736 0.821 0.0
C352 C 0.64406 0.98789 0.75603 0.0
H353 H 0.66032 0.98158 0.68608 0.0
H354 H 0.61807 0.99083 0.72557 0.0
H355 H 0.64501 0.96659 0.81307 0.0
C356 C 0.51798 0.09571 0.77336 0.0
N357 N 0.54558 0.08977 0.71092 0.0
N358 N 0.56875 0.07469 0.76842 0.0
C359 C 0.55644 0.07159 0.87158 0.0
C360 C 0.52345 0.08445 0.87917 0.0
C361 C 0.48714 0.11334 0.73393 0.0
H362 H 0.49427 0.13688 0.6921 0.0
H363 H 0.47395 0.09705 0.67512 0.0
H364 H 0.46973 0.11932 0.80131 0.0
O365 O 0.59769 0.13211 0.55871 0.0
O366 O 0.63685 0.09752 0.60791 0.0
H367 H 0.58248 0.07741 1.01998 0.0
H368 H 0.5597 0.03884 1.00829 0.0
C369 C 0.5756 0.05696 0.96324 0.0
H370 H 0.59864 0.0446 0.93322 0.0
H371 H 0.65895 0.09932 0.81037 0.0
O372 O 0.52624 0.13093 0.50946 0.0
C373 C 0.62838 0.1258 0.57139 0.0
Co374 Co 0.67963 0.80949 0.31532 0.0
Co375 Co 0.71863 0.85966 0.42939 0.0
C376 C 0.75111 0.83179 0.22695 0.0
O377 O 0.72301 0.81616 0.21357 0.0
O378 O 0.75506 0.84939 0.31294 0.0
C379 C 0.61755 0.77838 0.24079 0.0
O380 O 0.60006 0.80441 0.27219 0.0
C381 C 0.75964 0.90628 0.55418 0.0
C382 C 0.72019 0.9344 0.64053 0.0
C383 C 0.75464 0.93046 0.63406 0.0
N384 N 0.72981 0.89481 0.52279 0.0
N385 N 0.70623 0.91273 0.57085 0.0
C386 C 0.79201 0.8942 0.5059 0.0
H387 H 0.79832 0.91048 0.43599 0.0
H388 H 0.78909 0.86824 0.47539 0.0
H389 H 0.81331 0.89515 0.56297 0.0
C390 C 0.68407 0.76817 0.52329 0.0
N391 N 0.69004 0.79576 0.46085 0.0
N392 N 0.70515 0.8189 0.51834 0.0
C393 C 0.70824 0.80657 0.62149 0.0
C394 C 0.69535 0.77362 0.62909 0.0
C395 C 0.6664 0.73738 0.48388 0.0
H396 H 0.64285 0.74454 0.44207 0.0
H397 H 0.68267 0.72418 0.42502 0.0
H398 H 0.66041 0.71997 0.55126 0.0
O399 O 0.64767 0.84789 0.30885 0.0
O400 O 0.68237 0.88698 0.35769 0.0
H401 H 0.70245 0.83256 0.76995 0.0
H402 H 0.74104 0.8098 0.75813 0.0
C403 C 0.7229 0.82571 0.71315 0.0
H404 H 0.73525 0.84873 0.68314 0.0
H405 H 0.6805 0.90902 0.56021 0.0
O406 O 0.64888 0.7765 0.25931 0.0
C407 C 0.65404 0.87855 0.32137 0.0
Co408 Co 0.97044 0.10011 0.80058 0.0
Co409 Co 0.92013 0.06125 0.68649 0.0
C410 C 0.94807 0.0287 0.8889 0.0
O411 O 0.96378 0.05675 0.90226 0.0
O412 O 0.93039 0.02482 0.80299 0.0
C413 C 1.00162 0.16218 0.87455 0.0
O414 O 0.97562 0.17967 0.84285 0.0
C415 C 0.87354 0.0203 0.56138 0.0
C416 C 0.84543 0.05979 0.47494 0.0
C417 C 0.84942 0.02537 0.48134 0.0
N418 N 0.88496 0.0501 0.59303 0.0
N419 N 0.86706 0.0737 0.54492 0.0
C420 C 0.88563 0.98792 0.60953 0.0
H421 H 0.86927 0.98151 0.67915 0.0
H422 H 0.91157 0.99086 0.64042 0.0
H423 H 0.88479 0.96669 0.55226 0.0
C424 C 1.01171 0.09567 0.59255 0.0
N425 N 0.98411 0.08974 0.655 0.0
N426 N 0.96092 0.0747 0.59751 0.0
C427 C 0.97322 0.07163 0.49432 0.0
C428 C 1.00622 0.08446 0.48672 0.0
C429 C 0.04256 0.11326 0.63198 0.0
H430 H 0.03546 0.13681 0.67377 0.0
H431 H 0.05573 0.09696 0.69084 0.0
H432 H 0.05999 0.11921 0.56461 0.0
O433 O 0.93202 0.13207 0.80738 0.0
O434 O 0.89285 0.09752 0.75814 0.0
H435 H 0.94716 0.07757 0.34598 0.0
H436 H 0.96989 0.03896 0.35747 0.0
C437 C 0.95401 0.05708 0.40262 0.0
H438 H 0.93097 0.04474 0.4326 0.0
H439 H 0.87076 0.0994 0.55571 0.0
O440 O 1.00348 0.13085 0.85642 0.0
C441 C 0.90133 0.12578 0.79472 0.0
Co442 Co 0.67967 0.22054 0.55062 0.0
Co443 Co 0.71862 0.17033 0.43661 0.0
C444 C 0.75114 0.19823 0.639 0.0
O445 O 0.72305 0.21388 0.65236 0.0
O446 O 0.75507 0.18061 0.55304 0.0
C447 C 0.61759 0.25171 0.62491 0.0
O448 O 0.60009 0.22571 0.59332 0.0
C449 C 0.75961 0.12376 0.31157 0.0
C450 C 0.7201 0.09564 0.22526 0.0
C451 C 0.75454 0.09963 0.2316 0.0
N452 N 0.72979 0.13518 0.34319 0.0
N453 N 0.70618 0.11727 0.29516 0.0
C454 C 0.79201 0.13584 0.35969 0.0
H455 H 0.79842 0.1195 0.42934 0.0
H456 H 0.78906 0.16177 0.39053 0.0
H457 H 0.81325 0.135 0.30242 0.0
C458 C 0.6841 0.26183 0.34261 0.0
N459 N 0.69006 0.23425 0.40507 0.0
N460 N 0.70514 0.21109 0.34759 0.0
C461 C 0.70821 0.22339 0.24441 0.0
C462 C 0.69534 0.25636 0.23679 0.0
C463 C 0.66647 0.29265 0.38201 0.0
H464 H 0.64291 0.28552 0.42382 0.0
H465 H 0.68276 0.30583 0.44086 0.0
H466 H 0.66048 0.31006 0.31463 0.0
O467 O 0.6477 0.18215 0.55721 0.0
O468 O 0.68237 0.14304 0.50836 0.0
H469 H 0.7023 0.19737 0.09603 0.0
H470 H 0.74092 0.2201 0.10761 0.0
C471 C 0.72279 0.20422 0.15272 0.0
H472 H 0.73514 0.18118 0.18271 0.0
H473 H 0.68046 0.12097 0.30596 0.0
O474 O 0.64893 0.25356 0.60655 0.0
C475 C 0.65406 0.15148 0.54473 0.0
Co476 Co 0.55927 0.9299 0.3007 0.0
Co477 Co 0.60955 0.96879 0.1866 0.0
C478 C 0.58163 1.00132 0.38898 0.0
O479 O 0.56594 0.97326 0.40237 0.0
O480 O 0.59928 1.00522 0.30305 0.0
C481 C 0.52813 0.86783 0.37489 0.0
O482 O 0.55417 0.85035 0.34343 0.0
C483 C 0.65615 1.00975 0.06149 0.0
C484 C 0.68426 0.97025 0.97517 0.0
C485 C 0.68028 1.00466 0.9815 0.0
N486 N 0.64472 0.97994 0.09314 0.0
N487 N 0.66262 0.95634 1.0451 0.0
C488 C 0.64407 0.04213 0.1096 0.0
H489 H 0.66045 0.04853 0.17919 0.0
H490 H 0.61815 0.03919 0.14053 0.0
H491 H 0.6449 0.06336 0.05229 0.0
C492 C 0.51797 0.93435 0.09268 0.0
N493 N 0.54557 0.94029 0.15514 0.0
N494 N 0.56876 0.95534 0.09763 0.0
C495 C 0.55645 0.9584 0.99443 0.0
C496 C 0.52346 0.94557 0.98684 0.0
C497 C 0.48713 0.91676 0.13212 0.0
H498 H 0.49424 0.89321 0.17397 0.0
H499 H 0.47395 0.93306 0.19093 0.0
H500 H 0.4697 0.91078 0.06475 0.0
O501 O 0.59768 0.89795 0.30735 0.0
O502 O 0.63684 0.93253 0.25828 0.0
H503 H 0.5825 0.95247 0.84609 0.0
H504 H 0.55977 0.99108 0.85756 0.0
C505 C 0.57565 0.97296 0.90272 0.0
H506 H 0.5987 0.98529 0.93269 0.0
H507 H 0.65891 0.93064 0.05591 0.0
O508 O 0.52624 0.89915 0.3566 0.0
C509 C 0.62837 0.90425 0.29475 0.0
Co510 Co 0.85002 0.80947 0.05057 0.0
Co511 Co 0.81108 0.85969 0.93649 0.0
C512 C 0.77855 0.83179 0.13886 0.0
O513 O 0.80664 0.81614 0.15226 0.0
O514 O 0.77462 0.84941 0.05288 0.0
C515 C 0.91209 0.7783 0.12489 0.0
O516 O 0.92961 0.80428 0.09318 0.0
C517 C 0.7701 0.90626 0.81134 0.0
C518 C 0.80962 0.93438 0.72505 0.0
C519 C 0.77518 0.93039 0.73135 0.0
N520 N 0.79992 0.89485 0.84303 0.0
N521 N 0.82353 0.91275 0.79501 0.0
C522 C 0.7377 0.89417 0.8594 0.0
H523 H 0.73126 0.91053 0.92896 0.0
H524 H 0.74065 0.86826 0.89034 0.0
H525 H 0.71647 0.89499 0.80205 0.0
C526 C 0.84559 0.76819 0.8426 0.0
N527 N 0.83964 0.79577 0.90503 0.0
N528 N 0.82456 0.81893 0.84751 0.0
C529 C 0.8215 0.80664 0.74433 0.0
C530 C 0.83436 0.77366 0.73676 0.0
C531 C 0.86321 0.73736 0.88206 0.0
H532 H 0.88677 0.74448 0.92391 0.0
H533 H 0.84691 0.72418 0.94089 0.0
H534 H 0.8692 0.71995 0.8147 0.0
O535 O 0.882 0.84786 0.05717 0.0
O536 O 0.84733 0.88697 1.00829 0.0
H537 H 0.82743 0.83267 0.59596 0.0
H538 H 0.7888 0.80995 0.60746 0.0
C539 C 0.80693 0.82582 0.65261 0.0
H540 H 0.79459 0.84886 0.68255 0.0
H541 H 0.84925 0.90905 0.80586 0.0
O542 O 0.88076 0.77645 0.10655 0.0
C543 C 0.87564 0.87853 1.04468 0.0
Co544 Co 0.60041 0.56092 0.78668 0.0
Co545 Co 0.55958 0.61149 0.68898 0.0
C546 C 0.5305 0.5858 0.89001 0.0
O547 O 0.55946 0.5717 0.89542 0.0
O548 O 0.52317 0.60204 0.8041 0.0
C549 C 0.59702 0.51095 0.87694 0.0
O550 O 0.56822 0.50959 0.82506 0.0
C551 C 0.51719 0.65478 0.56216 0.0
C552 C 0.55499 0.67809 0.45583 0.0
C553 C 0.52077 0.67306 0.46708 0.0
N554 N 0.54769 0.64699 0.59828 0.0
N555 N 0.57027 0.66271 0.53881 0.0
C556 C 0.48596 0.63764 0.60175 0.0
H557 H 0.48175 0.64452 0.68765 0.0
H558 H 0.48929 0.61002 0.59872 0.0
H559 H 0.46358 0.64499 0.55371 0.0
C560 C 0.59395 0.52209 0.5796 0.0
N561 N 0.58853 0.54916 0.64453 0.0
N562 N 0.56983 0.57128 0.59537 0.0
C563 C 0.56298 0.55844 0.49542 0.0
C564 C 0.57744 0.52656 0.48202 0.0
C565 C 0.61599 0.49287 0.60739 0.0
H566 H 0.6402 0.502 0.64053 0.0
H567 H 0.6035 0.47717 0.6695 0.0
H568 H 0.62106 0.47696 0.53554 0.0
O569 O 0.63585 0.59515 0.7955 0.0
O570 O 0.59935 0.63488 0.76159 0.0
H571 H 0.55568 0.5988 0.38923 0.0
H572 H 0.53681 0.5597 0.34336 0.0
C573 C 0.5422 0.57576 0.41466 0.0
H574 H 0.51861 0.58264 0.45578 0.0
H575 H 0.59617 0.65989 0.54783 0.0
O576 O 0.62261 0.52121 0.82841 0.0
C577 C 0.62847 0.62596 0.79232 0.0
Co578 Co 0.71895 0.35049 1.03667 0.0
Co579 Co 0.66829 0.30973 0.93905 0.0
C580 C 0.694 0.28065 0.14009 0.0
O581 O 0.70814 0.30957 0.14545 0.0
O582 O 0.67774 0.27335 0.05422 0.0
C583 C 0.76894 0.34705 0.12687 0.0
O584 O 0.7703 0.31826 0.075 0.0
C585 C 0.62501 0.26733 0.81244 0.0
C586 C 0.60165 0.30508 0.70589 0.0
C587 C 0.60674 0.2709 0.71736 0.0
N588 N 0.63277 0.29783 0.84843 0.0
N589 N 0.61702 0.32037 0.78886 0.0
C590 C 0.64221 0.23614 0.85207 0.0
H591 H 0.63532 0.23192 0.93795 0.0
H592 H 0.66984 0.23951 0.84907 0.0
H593 H 0.6349 0.21376 0.80404 0.0
C594 C 0.75775 0.34401 0.82953 0.0
N595 N 0.73067 0.33861 0.8945 0.0
N596 N 0.70852 0.31994 0.84537 0.0
C597 C 0.72136 0.31308 0.74541 0.0
C598 C 0.75327 0.32751 0.73197 0.0
C599 C 0.78701 0.36602 0.85726 0.0
H600 H 0.77789 0.39022 0.89038 0.0
H601 H 0.80272 0.35352 0.91937 0.0
H602 H 0.80292 0.37107 0.78539 0.0
O603 O 0.68473 0.38594 1.04553 0.0
O604 O 0.64493 0.34952 1.01156 0.0
H605 H 0.68094 0.30578 0.63939 0.0
H606 H 0.72006 0.28698 0.5933 0.0
C607 C 0.70402 0.29233 0.66468 0.0
H608 H 0.69717 0.26873 0.70579 0.0
H609 H 0.61981 0.34626 0.79779 0.0
O610 O 0.75871 0.37264 0.07828 0.0
C611 C 0.65389 0.37861 1.04232 0.0
Co612 Co 0.92927 0.46909 0.28668 0.0
Co613 Co 0.97011 0.41852 0.18912 0.0
C614 C 0.99917 0.44422 0.39013 0.0
O615 O 0.97021 0.45832 0.3955 0.0
O616 O 1.0065 0.42798 0.30426 0.0
C617 C 0.93265 0.51907 0.37687 0.0
O618 O 0.96145 0.52044 0.32501 0.0
C619 C 1.01252 0.37525 0.06246 0.0
C620 C 0.97475 0.35192 0.95609 0.0
C621 C 1.00897 0.35696 0.96741 0.0
N622 N 0.98202 0.38303 0.09849 0.0
N623 N 0.95946 0.3673 1.039 0.0
C624 C 0.04375 0.3924 0.10209 0.0
H625 H 0.04795 0.38552 0.18798 0.0
H626 H 0.0404 0.42002 0.09903 0.0
H627 H 0.06614 0.38506 0.05408 0.0
C628 C 0.93574 0.50791 0.07955 0.0
N629 N 0.94116 0.48084 0.14453 0.0
N630 N 0.95987 0.45872 0.09544 0.0
C631 C 0.96673 0.47156 0.99548 0.0
C632 C 0.95227 0.50344 0.98201 0.0
C633 C 0.9137 0.53713 0.10726 0.0
H634 H 0.88949 0.528 0.14039 0.0
H635 H 0.92618 0.55284 0.16935 0.0
H636 H 0.90863 0.55303 1.03537 0.0
O637 O 0.89383 0.43486 0.29549 0.0
O638 O 0.93034 0.39513 0.26168 0.0
H639 H 0.97404 0.4312 0.88936 0.0
H640 H 0.9929 0.4703 0.84345 0.0
C641 C 0.98751 0.45424 0.91477 0.0
H642 H 1.0111 0.44736 0.95593 0.0
H643 H 0.93355 0.37011 0.04796 0.0
O644 O 0.90706 0.5088 0.32834 0.0
C645 C 0.90122 0.40405 0.29236 0.0
Co646 Co 0.81075 0.67954 0.53673 0.0
Co647 Co 0.86139 0.7203 0.43907 0.0
C648 C 0.83569 0.74938 0.64009 0.0
O649 O 0.82156 0.72045 0.64549 0.0
O650 O 0.85195 0.75668 0.55421 0.0
C651 C 0.76077 0.68296 0.62696 0.0
O652 O 0.75941 0.71175 0.57508 0.0
C653 C 0.90468 0.7627 0.31244 0.0
C654 C 0.92804 0.72494 0.20598 0.0
C655 C 0.92295 0.75912 0.21739 0.0
N656 N 0.89691 0.7322 0.34846 0.0
N657 N 0.91266 0.70966 0.28895 0.0
C658 C 0.88749 0.79389 0.35199 0.0
H659 H 0.89436 0.79811 0.43788 0.0
H660 H 0.85985 0.79053 0.34894 0.0
H661 H 0.8948 0.81627 0.30394 0.0
C662 C 0.77192 0.68603 0.3296 0.0
N663 N 0.799 0.69143 0.39456 0.0
N664 N 0.82115 0.7101 0.34541 0.0
C665 C 0.80831 0.71695 0.24543 0.0
C666 C 0.7764 0.70252 0.23201 0.0
C667 C 0.74266 0.66403 0.35736 0.0
H668 H 0.75179 0.63982 0.39048 0.0
H669 H 0.72697 0.67652 0.41948 0.0
H670 H 0.72674 0.65898 0.28551 0.0
O671 O 0.84496 0.64409 0.54556 0.0
O672 O 0.88475 0.68051 0.5116 0.0
H673 H 0.84873 0.72424 0.1394 0.0
H674 H 0.80961 0.74305 0.09327 0.0
C675 C 0.82565 0.7377 0.16467 0.0
H676 H 0.8325 0.76129 0.20573 0.0
H677 H 0.90986 0.68376 0.29793 0.0
O678 O 0.77099 0.65738 0.57838 0.0
C679 C 0.8758 0.65142 0.54233 0.0
Co680 Co 0.60042 0.46908 0.07939 0.0
Co681 Co 0.55959 0.4185 0.17696 0.0
C682 C 0.53052 0.44423 0.97593 0.0
O683 O 0.55947 0.45834 0.97058 0.0
O684 O 0.5232 0.42797 0.06179 0.0
C685 C 0.59703 0.51915 0.9894 0.0
O686 O 0.56821 0.52046 1.04116 0.0
C687 C 0.51718 0.37523 0.30367 0.0
C688 C 0.55495 0.35188 0.41004 0.0
C689 C 0.52074 0.35693 0.39872 0.0
N690 N 0.54769 0.383 0.26761 0.0
N691 N 0.57025 0.36726 0.3271 0.0
C692 C 0.48596 0.39239 0.26404 0.0
H693 H 0.48174 0.3855 0.17816 0.0
H694 H 0.48931 0.42001 0.26703 0.0
H695 H 0.46357 0.38507 0.31208 0.0
C696 C 0.59397 0.50786 0.28658 0.0
N697 N 0.58854 0.48081 0.22156 0.0
N698 N 0.56984 0.45868 0.27065 0.0
C699 C 0.56298 0.47151 0.37062 0.0
C700 C 0.57746 0.50337 0.38414 0.0
C701 C 0.61601 0.53709 0.25889 0.0
H702 H 0.64022 0.52796 0.22569 0.0
H703 H 0.60352 0.55282 0.19686 0.0
H704 H 0.6211 0.55296 0.3308 0.0
O705 O 0.63586 0.43485 0.07049 0.0
O706 O 0.59937 0.39511 0.1044 0.0
H707 H 0.55567 0.43114 0.47674 0.0
H708 H 0.5368 0.47023 0.52263 0.0
C709 C 0.54219 0.45418 0.45131 0.0
H710 H 0.5186 0.44731 0.41014 0.0
H711 H 0.59615 0.37006 0.31813 0.0
O712 O 0.62262 0.5088 1.0378 0.0
C713 C 0.62848 0.40404 0.07365 0.0
Co714 Co 0.81075 0.3505 0.3293 0.0
Co715 Co 0.86142 0.30973 0.42694 0.0
C716 C 0.8357 0.28066 0.2259 0.0
O717 O 0.82155 0.30959 0.22053 0.0
O718 O 0.85197 0.27336 0.31176 0.0
C719 C 0.76068 0.34706 0.2393 0.0
O720 O 0.75938 0.31826 0.29111 0.0
C721 C 0.9047 0.26731 0.55358 0.0
C722 C 0.92808 0.30505 0.66006 0.0
C723 C 0.92298 0.27088 0.64863 0.0
N724 N 0.89695 0.29782 0.51755 0.0
N725 N 0.9127 0.32035 0.57708 0.0
C726 C 0.8875 0.23613 0.51399 0.0
H727 H 0.89439 0.2319 0.42812 0.0
H728 H 0.85986 0.23951 0.51695 0.0
H729 H 0.89479 0.21374 0.56207 0.0
C730 C 0.77196 0.34402 0.53648 0.0
N731 N 0.79904 0.33861 0.47149 0.0
N732 N 0.82119 0.31994 0.52061 0.0
C733 C 0.80836 0.31308 0.62059 0.0
C734 C 0.77646 0.32753 0.63407 0.0
C735 C 0.7427 0.36603 0.50877 0.0
H736 H 0.75182 0.39023 0.47557 0.0
H737 H 0.72697 0.35354 0.44674 0.0
H738 H 0.72681 0.3711 0.58067 0.0
O739 O 0.84497 0.38595 0.3204 0.0
O740 O 0.88477 0.34953 0.35444 0.0
H741 H 0.84879 0.30577 0.72658 0.0
H742 H 0.80967 0.28697 0.77271 0.0
C743 C 0.82571 0.29232 0.70131 0.0
H744 H 0.83255 0.26872 0.66022 0.0
H745 H 0.90991 0.34624 0.56811 0.0
O746 O 0.77098 0.37265 0.2877 0.0
C747 C 0.87581 0.37862 0.32366 0.0
Co748 Co 0.92927 0.56094 0.57933 0.0
Co749 Co 0.97011 0.61151 0.67687 0.0
C750 C 0.99917 0.58579 0.47586 0.0
O751 O 0.97021 0.57168 0.47051 0.0
O752 O 1.00649 0.60204 0.56172 0.0
C753 C 0.93264 0.51088 0.48935 0.0
O754 O 0.96147 0.50957 0.54111 0.0
C755 C 1.01253 0.65479 0.80353 0.0
C756 C 0.97476 0.67814 0.90983 0.0
C757 C 1.00898 0.67309 0.89854 0.0
N758 N 0.98202 0.64701 0.76747 0.0
N759 N 0.95946 0.66275 0.82692 0.0
C760 C 0.04375 0.63762 0.76395 0.0
H761 H 0.04796 0.6445 0.67806 0.0
H762 H 0.0404 0.61 0.76699 0.0
H763 H 0.06614 0.64495 0.81199 0.0
C764 C 0.93574 0.52215 0.78653 0.0
N765 N 0.94116 0.5492 0.7215 0.0
N766 N 0.95987 0.57132 0.77059 0.0
C767 C 0.96673 0.5585 0.87057 0.0
C768 C 0.95225 0.52663 0.8841 0.0
C769 C 0.91369 0.49292 0.75885 0.0
H770 H 0.88949 0.50205 0.72565 0.0
H771 H 0.92618 0.4772 0.69683 0.0
H772 H 0.90861 0.47704 0.83077 0.0
O773 O 0.89384 0.59518 0.57046 0.0
O774 O 0.93034 0.6349 0.60432 0.0
H775 H 0.97404 0.59886 0.97666 0.0
H776 H 0.99291 0.55977 1.0226 0.0
C777 C 0.98752 0.57582 0.95127 0.0
H778 H 1.0111 0.58271 0.91011 0.0
H779 H 0.93356 0.65995 0.81794 0.0
O780 O 0.90706 0.52123 0.53773 0.0
C781 C 0.90121 0.62599 0.57362 0.0
Co782 Co 0.71893 0.6795 0.82932 0.0
Co783 Co 0.66827 0.72028 0.92682 0.0
C784 C 0.694 0.74934 0.72579 0.0
O785 O 0.70815 0.72041 0.72048 0.0
O786 O 0.67772 0.75664 0.81161 0.0
C787 C 0.76902 0.68294 0.7394 0.0
O788 O 0.77032 0.71174 0.79119 0.0
C789 C 0.625 0.76272 0.05331 0.0
C790 C 0.6016 0.725 0.15987 0.0
C791 C 0.60672 0.75918 0.14835 0.0
N792 N 0.63274 0.73221 1.01737 0.0
N793 N 0.61698 0.70969 0.07695 0.0
C794 C 0.64221 0.7939 1.01366 0.0
H795 H 0.63531 0.79812 0.92779 0.0
H796 H 0.66985 0.7905 1.01662 0.0
H797 H 0.63494 0.81629 0.0617 0.0
C798 C 0.75771 0.68599 1.03655 0.0
N799 N 0.73064 0.69139 0.97151 0.0
N800 N 0.70848 0.71008 1.02056 0.0
C801 C 0.72131 0.71694 0.12054 0.0
C802 C 0.75321 0.70249 0.13409 0.0
C803 C 0.78697 0.66397 1.00892 0.0
H804 H 0.77785 0.63978 0.97573 0.0
H805 H 0.80271 0.67646 0.94692 0.0
H806 H 0.80285 0.6589 0.08087 0.0
O807 O 0.68472 0.64406 0.82041 0.0
O808 O 0.64491 0.68048 0.85438 0.0
H809 H 0.68088 0.72427 0.22647 0.0
H810 H 0.71999 0.74307 0.27261 0.0
C811 C 0.70396 0.73772 0.2012 0.0
H812 H 0.69712 0.76131 0.16006 0.0
H813 H 0.61976 0.68379 0.06805 0.0
O814 O 0.75871 0.65736 0.7878 0.0
C815 C 0.65388 0.65139 0.82363 0.0
Co816 Co 0.47042 0.42986 0.56538 0.0
Co817 Co 0.42013 0.46877 0.67942 0.0
C818 C 0.44805 0.50127 0.47695 0.0
O819 O 0.46376 0.47322 0.46363 0.0
O820 O 0.43039 0.50517 0.56285 0.0
C821 C 0.50157 0.36778 0.49124 0.0
O822 O 0.47552 0.35031 0.52267 0.0
C823 C 0.37352 0.5098 0.80415 0.0
C824 C 0.34537 0.47041 0.89064 0.0
C825 C 0.34933 0.50483 0.88408 0.0
N826 N 0.38496 0.47998 0.7728 0.0
N827 N 0.36703 0.45643 0.82095 0.0
C828 C 0.38563 0.54214 0.7558 0.0
H829 H 0.36939 0.54842 0.68576 0.0
H830 H 0.41163 0.5392 0.72545 0.0
H831 H 0.38465 0.56345 0.81276 0.0
C832 C 0.5117 0.43431 0.77343 0.0
N833 N 0.4841 0.44025 0.71096 0.0
N834 N 0.46093 0.45533 0.76841 0.0
C835 C 0.47325 0.45843 0.87157 0.0
C836 C 0.50623 0.44557 0.87921 0.0
C837 C 0.54254 0.41668 0.73405 0.0
H838 H 0.53541 0.39313 0.69228 0.0
H839 H 0.55573 0.43296 0.67518 0.0
H840 H 0.55996 0.41071 0.80144 0.0
O841 O 0.432 0.39792 0.55867 0.0
O842 O 0.39284 0.43248 0.60792 0.0
H843 H 0.44721 0.45263 1.01997 0.0
H844 H 0.47 0.4912 1.00821 0.0
C845 C 0.45408 0.47308 0.96319 0.0
H846 H 0.43106 0.48544 0.93313 0.0
H847 H 0.37072 0.43071 0.81037 0.0
O848 O 0.50345 0.3991 0.50955 0.0
C849 C 0.40131 0.40422 0.57138 0.0
Co850 Co 0.35006 0.72057 0.31544 0.0
Co851 Co 0.3111 0.67036 0.42954 0.0
C852 C 0.27858 0.69826 0.22711 0.0
O853 O 0.30667 0.71391 0.21372 0.0
O854 O 0.27466 0.68063 0.31308 0.0
C855 C 0.41216 0.7517 0.2412 0.0
O856 O 0.42964 0.72566 0.27261 0.0
C857 C 0.27009 0.62375 0.55441 0.0
C858 C 0.30955 0.59564 0.64086 0.0
C859 C 0.2751 0.59958 0.63437 0.0
N860 N 0.29992 0.6352 0.52299 0.0
N861 N 0.32351 0.6173 0.57111 0.0
C862 C 0.23772 0.63583 0.50613 0.0
H863 H 0.2314 0.61956 0.43625 0.0
H864 H 0.24064 0.66179 0.47557 0.0
H865 H 0.21643 0.63489 0.56321 0.0
C866 C 0.34563 0.76185 0.52343 0.0
N867 N 0.33968 0.73426 0.46099 0.0
N868 N 0.32457 0.71112 0.51848 0.0
C869 C 0.32148 0.72343 0.62163 0.0
C870 C 0.33436 0.75639 0.62923 0.0
C871 C 0.36328 0.79266 0.484 0.0
H872 H 0.38685 0.78552 0.44229 0.0
H873 H 0.347 0.80583 0.42506 0.0
H874 H 0.36924 0.81007 0.55136 0.0
O875 O 0.38202 0.68215 0.30882 0.0
O876 O 0.34736 0.64306 0.35786 0.0
H877 H 0.3273 0.69742 0.77008 0.0
H878 H 0.28871 0.72019 0.75828 0.0
C879 C 0.30684 0.70428 0.71329 0.0
H880 H 0.29448 0.68126 0.68329 0.0
H881 H 0.34923 0.62101 0.56047 0.0
O882 O 0.38082 0.75358 0.25952 0.0
C883 C 0.37566 0.65149 0.32139 0.0
Co884 Co 0.05928 0.60016 0.06536 0.0
Co885 Co 0.10955 0.56124 0.17948 0.0
C886 C 0.08164 0.52874 0.97703 0.0
O887 O 0.06594 0.55681 0.96365 0.0
O888 O 0.0993 0.52484 0.06296 0.0
C889 C 0.02814 0.66224 0.99109 0.0
O890 O 0.05419 0.6797 1.0225 0.0
C891 C 0.15618 0.52022 0.3043 0.0
C892 C 0.18433 0.55963 0.39073 0.0
C893 C 0.18037 0.5252 0.38424 0.0
N894 N 0.14473 0.55004 0.2729 0.0
N895 N 0.16266 0.5736 0.32101 0.0
C896 C 0.14406 0.48788 0.25602 0.0
H897 H 0.16032 0.48158 0.18607 0.0
H898 H 0.11808 0.49082 0.22557 0.0
H899 H 0.14502 0.46659 0.31306 0.0
C900 C 0.01798 0.5957 0.27336 0.0
N901 N 0.04558 0.58977 0.21092 0.0
N902 N 0.06876 0.57468 0.26842 0.0
C903 C 0.05644 0.57159 0.37157 0.0
C904 C 0.02345 0.58444 0.37916 0.0
C905 C 0.98714 0.61333 0.23393 0.0
H906 H 0.99427 0.63687 0.19209 0.0
H907 H 0.97395 0.59704 0.1751 0.0
H908 H 0.96973 0.61931 0.3013 0.0
O909 O 0.0977 0.63211 0.05872 0.0
O910 O 0.13685 0.59752 0.10792 0.0
H911 H 0.08248 0.5774 0.51997 0.0
H912 H 0.0597 0.53884 0.50828 0.0
C913 C 0.07561 0.55695 0.46323 0.0
H914 H 0.09864 0.5446 0.43322 0.0
H915 H 0.15896 0.59932 0.31037 0.0
O916 O 0.02625 0.63092 1.00945 0.0
C917 C 0.12838 0.6258 0.07141 0.0
Co918 Co 0.17963 0.30946 0.81529 0.0
Co919 Co 0.21863 0.35965 0.92938 0.0
C920 C 0.25111 0.33176 0.72695 0.0
O921 O 0.22301 0.31613 0.71356 0.0
O922 O 0.25505 0.34937 0.81294 0.0
C923 C 0.11752 0.27838 0.74085 0.0
O924 O 0.10005 0.30445 0.772 0.0
C925 C 0.25963 0.40626 0.05419 0.0
C926 C 0.22017 0.43438 0.14054 0.0
C927 C 0.25462 0.43045 0.13408 0.0
N928 N 0.22981 0.3948 1.02279 0.0
N929 N 0.20622 0.4127 0.07086 0.0
C930 C 0.29201 0.3942 1.00591 0.0
H931 H 0.29832 0.41048 0.93602 0.0
H932 H 0.28909 0.36824 0.97537 0.0
H933 H 0.31331 0.39515 0.06298 0.0
C934 C 0.18407 0.26816 1.02328 0.0
N935 N 0.19003 0.29574 0.96083 0.0
N936 N 0.20514 0.31888 1.01832 0.0
C937 C 0.20824 0.30656 0.12147 0.0
C938 C 0.19534 0.27361 0.12908 0.0
C939 C 0.1664 0.23736 0.98388 0.0
H940 H 0.14284 0.24452 0.94213 0.0
H941 H 0.18267 0.22418 0.92497 0.0
H942 H 0.16043 0.21995 0.05125 0.0
O943 O 0.14768 0.34788 0.8088 0.0
O944 O 0.18237 0.38696 0.85769 0.0
H945 H 0.20244 0.33256 0.26993 0.0
H946 H 0.24103 0.30979 0.25811 0.0
C947 C 0.22289 0.3257 0.21313 0.0
H948 H 0.23525 0.34873 0.18311 0.0
H949 H 0.18049 0.40899 0.06021 0.0
O950 O 0.14885 0.27647 0.75934 0.0
C951 C 0.15405 0.37854 0.82134 0.0
Co952 Co 0.47043 0.60012 0.30057 0.0
Co953 Co 0.42013 0.56126 0.18647 0.0
C954 C 0.44806 0.52871 0.38888 0.0
O955 O 0.46377 0.55676 0.40224 0.0
O956 O 0.43038 0.52483 0.30297 0.0
C957 C 0.50162 0.66218 0.37454 0.0
O958 O 0.47561 0.67968 0.34285 0.0
C959 C 0.37354 0.52031 0.06136 0.0
C960 C 0.34543 0.5598 0.97491 0.0
C961 C 0.34941 0.52539 0.98131 0.0
N962 N 0.38495 0.55011 0.09301 0.0
N963 N 0.36705 0.57371 1.0449 0.0
C964 C 0.38562 0.48793 0.1095 0.0
H965 H 0.36926 0.48152 0.17911 0.0
H966 H 0.41155 0.49087 0.1404 0.0
H967 H 0.38479 0.4667 0.05222 0.0
C968 C 0.5117 0.59568 0.09253 0.0
N969 N 0.4841 0.58975 0.15499 0.0
N970 N 0.46091 0.57471 0.09749 0.0
C971 C 0.47321 0.57164 0.9943 0.0
C972 C 0.50621 0.58447 0.9867 0.0
C973 C 0.54256 0.61326 0.13196 0.0
H974 H 0.53546 0.63682 0.17375 0.0
H975 H 0.55573 0.59696 0.19083 0.0
H976 H 0.55999 0.61922 0.0646 0.0
O977 O 0.43202 0.63208 0.30735 0.0
O978 O 0.39285 0.59753 0.25812 0.0
H979 H 0.44715 0.57758 0.84596 0.0
H980 H 0.46988 0.53897 0.85745 0.0
C981 C 0.45401 0.55709 0.9026 0.0
H982 H 0.43096 0.54476 0.93258 0.0
H983 H 0.37076 0.59942 0.05568 0.0
O984 O 0.50347 0.63085 0.3564 0.0
C985 C 0.40133 0.6258 0.29469 0.0
Co986 Co 0.17966 0.72056 0.05065 0.0
Co987 Co 0.21862 0.67034 0.93663 0.0
C988 C 0.25114 0.69825 0.13901 0.0
O989 O 0.22304 0.71391 0.15237 0.0
O990 O 0.25507 0.68062 0.05307 0.0
C991 C 0.11756 0.7517 0.12485 0.0
O992 O 0.10008 0.72565 0.09353 0.0
C993 C 0.25962 0.62378 0.8116 0.0
C994 C 0.22012 0.59565 0.72528 0.0
C995 C 0.25455 0.59964 0.73163 0.0
N996 N 0.2298 0.63519 0.84322 0.0
N997 N 0.20619 0.61728 0.79519 0.0
C998 C 0.29201 0.63586 0.85972 0.0
H999 H 0.29842 0.61953 0.92939 0.0
H1000 H 0.28906 0.66179 0.89054 0.0
H1001 H 0.31326 0.63502 0.80247 0.0
C1002 C 0.18409 0.76183 0.8426 0.0
N1003 N 0.19005 0.73425 0.90508 0.0
N1004 N 0.20513 0.71109 0.84762 0.0
C1005 C 0.2082 0.72339 0.74443 0.0
C1006 C 0.19534 0.75636 0.73679 0.0
C1007 C 0.16646 0.79265 0.88199 0.0
H1008 H 0.14289 0.78553 0.92375 0.0
H1009 H 0.18274 0.80583 0.94088 0.0
H1010 H 0.16049 0.81007 0.81461 0.0
O1011 O 0.14771 0.68215 0.05727 0.0
O1012 O 0.18237 0.64304 1.00837 0.0
H1013 H 0.20231 0.69736 0.59607 0.0
H1014 H 0.24092 0.72009 0.60764 0.0
C1015 C 0.2228 0.70421 0.65275 0.0
H1016 H 0.23515 0.68118 0.68275 0.0
H1017 H 0.18047 0.62097 0.80599 0.0
O1018 O 0.14889 0.75358 0.10651 0.0
C1019 C 0.15406 0.65148 1.04476 0.0
Co1020 Co 0.05928 0.42989 0.8007 0.0
Co1021 Co 0.10955 0.46879 0.6866 0.0
C1022 C 0.08164 0.50131 0.88898 0.0
O1023 O 0.06594 0.47325 0.90237 0.0
O1024 O 0.09929 0.50521 0.80305 0.0
C1025 C 0.02813 0.36782 0.8749 0.0
O1026 O 0.05418 0.35035 0.84346 0.0
C1027 C 0.15615 0.50974 0.56149 0.0
C1028 C 0.18427 0.47024 0.47516 0.0
C1029 C 0.18029 0.50466 0.4815 0.0
N1030 N 0.14472 0.47994 0.59314 0.0
N1031 N 0.16263 0.45634 0.5451 0.0
C1032 C 0.14408 0.54212 0.6096 0.0
H1033 H 0.16046 0.54853 0.67918 0.0
H1034 H 0.11815 0.53918 0.64053 0.0
H1035 H 0.14491 0.56335 0.55229 0.0
C1036 C 0.01798 0.43435 0.59268 0.0
N1037 N 0.04558 0.44028 0.65514 0.0
N1038 N 0.06876 0.45533 0.59763 0.0
C1039 C 0.05646 0.4584 0.49443 0.0
C1040 C 0.02346 0.44557 0.48684 0.0
C1041 C 0.98713 0.41675 0.63212 0.0
H1042 H 0.99425 0.39321 0.67397 0.0
H1043 H 0.97395 0.43305 0.69093 0.0
H1044 H 0.96971 0.41078 0.56475 0.0
O1045 O 0.09769 0.39794 0.80734 0.0
O1046 O 0.13685 0.43252 0.75826 0.0
H1047 H 0.08251 0.45246 0.3461 0.0
H1048 H 0.05978 0.49107 0.35755 0.0
C1049 C 0.07566 0.47295 0.40272 0.0
H1050 H 0.09871 0.48529 0.43269 0.0
H1051 H 0.15892 0.43063 0.55591 0.0
O1052 O 0.02625 0.39914 0.85659 0.0
C1053 C 0.12838 0.40424 0.79472 0.0
Co1054 Co 0.35003 0.30946 0.5506 0.0
Co1055 Co 0.31108 0.35968 0.43651 0.0
C1056 C 0.27855 0.33177 0.63887 0.0
O1057 O 0.30665 0.31611 0.65228 0.0
O1058 O 0.27462 0.3494 0.5529 0.0
C1059 C 0.41213 0.27831 0.62483 0.0
O1060 O 0.42961 0.30434 0.5934 0.0
C1061 C 0.27009 0.40625 0.31136 0.0
C1062 C 0.3096 0.43437 0.22507 0.0
C1063 C 0.27517 0.43038 0.23137 0.0
N1064 N 0.29991 0.39484 0.34305 0.0
N1065 N 0.32352 0.41275 0.29503 0.0
C1066 C 0.2377 0.39415 0.35942 0.0
H1067 H 0.23126 0.4105 0.429 0.0
H1068 H 0.24065 0.36824 0.39035 0.0
H1069 H 0.21646 0.39497 0.30209 0.0
C1070 C 0.34559 0.26818 0.3426 0.0
N1071 N 0.33964 0.29577 0.40504 0.0
N1072 N 0.32457 0.31893 0.34753 0.0
C1073 C 0.3215 0.30664 0.24435 0.0
C1074 C 0.33436 0.27366 0.23677 0.0
C1075 C 0.36322 0.23736 0.38204 0.0
H1076 H 0.38678 0.24448 0.42384 0.0
H1077 H 0.34693 0.22419 0.4409 0.0
H1078 H 0.36919 0.21995 0.31468 0.0
O1079 O 0.38199 0.34786 0.55722 0.0
O1080 O 0.34732 0.38697 0.50829 0.0
H1081 H 0.32742 0.33267 0.09599 0.0
H1082 H 0.2888 0.30995 0.10748 0.0
C1083 C 0.30693 0.32582 0.15263 0.0
H1084 H 0.29458 0.34885 0.18259 0.0
H1085 H 0.34924 0.40905 0.30588 0.0
O1086 O 0.38079 0.27644 0.60651 0.0
C1087 C 0.37563 0.37853 0.54471 0.0
loop_
_geom_bond_atom_site_label_1
_geom_bond_atom_site_label_2
_geom_bond_distance
_geom_bond_site_symmetry_2
_ccdc_geom_bond_type
Co0 O3 1.970 . S
Co0 N17 1.989 . S
Co0 O25 1.967 . S
Co0 O32 1.920 . S
Co1 O4 1.966 . S
Co1 N10 2.022 . S
Co1 N18 1.993 . S
Co1 O26 1.941 . S
C2 O3 1.258 . S
C2 O4 1.263 . S
O3 Co0 1.970 . S
O3 C2 1.258 . S
O4 Co1 1.966 . S
O4 C2 1.263 . S
C5 O6 1.235 1_545 S
C5 O32 1.289 . S
O6 C5 1.235 1_565 S
C7 C9 1.400 . S
C7 N10 1.351 1_556 S
C7 C12 1.501 1_456 S
C8 C9 1.387 . S
C8 N11 1.341 . S
C9 C7 1.400 . S
C9 C8 1.387 . S
N10 Co1 2.022 . S
N10 C7 1.351 1_554 S
N10 N11 1.365 1_554 S
N11 C8 1.341 . S
N11 N10 1.365 1_556 S
N11 H31 0.862 . S
C12 C7 1.501 1_654 S
C12 H13 0.961 1_655 S
C12 H14 0.961 . S
C12 H15 0.960 . S
H13 C12 0.961 1_455 S
H14 C12 0.961 . S
H15 C12 0.960 . S
C16 N17 1.342 . S
C16 C20 1.401 1_554 S
C16 C21 1.499 1_545 S
N17 Co0 1.989 . S
N17 C16 1.342 . S
N17 N18 1.388 . S
N18 Co1 1.993 . S
N18 N17 1.388 . S
N18 C19 1.346 1_554 S
C19 N18 1.346 1_556 S
C19 C20 1.396 . S
C19 C29 1.510 . S
C20 C16 1.401 1_556 S
C20 C19 1.396 . S
C21 C16 1.499 1_565 S
C21 H22 0.959 1_565 S
C21 H23 0.960 . S
C21 H24 0.961 . S
H22 C21 0.959 1_545 S
H23 C21 0.960 . S
H24 C21 0.961 . S
O25 Co0 1.967 . S
O25 C33 1.258 . S
O26 Co1 1.941 . S
O26 C33 1.266 . S
H27 C29 0.959 . S
H28 C29 0.961 . S
C29 C19 1.510 . S
C29 H27 0.959 . S
C29 H28 0.961 . S
C29 H30 0.960 . S
H30 C29 0.960 . S
H31 N11 0.862 . S
O32 Co0 1.920 . S
O32 C5 1.289 . S
C33 O25 1.258 . S
C33 O26 1.266 . S
Co34 O37 1.970 . S
Co34 N51 1.989 . S
Co34 O59 1.967 . S
Co34 O66 1.920 . S
Co35 O38 1.966 . S
Co35 N44 2.022 . S
Co35 N52 1.993 . S
Co35 O60 1.941 . S
C36 O37 1.258 . S
C36 O38 1.263 . S
O37 Co34 1.970 . S
O37 C36 1.258 . S
O38 Co35 1.966 . S
O38 C36 1.263 . S
C39 O40 1.235 . S
C39 O66 1.289 . S
O40 C39 1.235 . S
C41 C43 1.400 . S
C41 N44 1.351 . S
C41 C46 1.501 . S
C42 C43 1.387 . S
C42 N45 1.341 . S
C43 C41 1.400 . S
C43 C42 1.387 . S
N44 Co35 2.022 . S
N44 C41 1.351 . S
N44 N45 1.365 . S
N45 C42 1.341 . S
N45 N44 1.365 . S
N45 H65 0.862 . S
C46 C41 1.501 . S
C46 H47 0.961 . S
C46 H48 0.961 . S
C46 H49 0.960 . S
H47 C46 0.961 . S
H48 C46 0.961 . S
H49 C46 0.960 . S
C50 N51 1.342 . S
C50 C54 1.401 . S
C50 C55 1.499 . S
N51 Co34 1.989 . S
N51 C50 1.342 . S
N51 N52 1.388 . S
N52 Co35 1.993 . S
N52 N51 1.388 . S
N52 C53 1.346 . S
C53 N52 1.346 . S
C53 C54 1.396 . S
C53 C63 1.510 . S
C54 C50 1.401 . S
C54 C53 1.396 . S
C55 C50 1.499 . S
C55 H56 0.959 . S
C55 H57 0.960 . S
C55 H58 0.961 . S
H56 C55 0.959 . S
H57 C55 0.960 . S
H58 C55 0.961 . S
O59 Co34 1.967 . S
O59 C67 1.258 . S
O60 Co35 1.941 . S
O60 C67 1.266 . S
H61 C63 0.959 . S
H62 C63 0.961 . S
C63 C53 1.510 . S
C63 H61 0.959 . S
C63 H62 0.961 . S
C63 H64 0.960 . S
H64 C63 0.960 . S
H65 N45 0.862 . S
O66 Co34 1.920 . S
O66 C39 1.289 . S
C67 O59 1.258 . S
C67 O60 1.266 . S
Co68 O71 1.970 . S
Co68 N85 1.989 . S
Co68 O93 1.967 . S
Co68 O100 1.920 . S
Co69 O72 1.966 . S
Co69 N78 2.022 . S
Co69 N86 1.993 . S
Co69 O94 1.941 . S
C70 O71 1.258 . S
C70 O72 1.263 . S
O71 Co68 1.970 . S
O71 C70 1.258 . S
O72 Co69 1.966 . S
O72 C70 1.263 . S
C73 O74 1.235 1_565 S
C73 O100 1.289 . S
O74 C73 1.235 1_545 S
C75 C77 1.400 . S
C75 N78 1.351 . S
C75 C80 1.501 . S
C76 C77 1.387 . S
C76 N79 1.341 . S
C77 C75 1.400 . S
C77 C76 1.387 . S
N78 Co69 2.022 . S
N78 C75 1.351 . S
N78 N79 1.365 . S
N79 C76 1.341 . S
N79 N78 1.365 . S
N79 H99 0.862 . S
C80 C75 1.501 . S
C80 H81 0.961 . S
C80 H82 0.961 . S
C80 H83 0.960 . S
H81 C80 0.961 . S
H82 C80 0.961 . S
H83 C80 0.960 . S
C84 N85 1.342 . S
C84 C88 1.401 . S
C84 C89 1.499 1_565 S
N85 Co68 1.989 . S
N85 C84 1.342 . S
N85 N86 1.388 . S
N86 Co69 1.993 . S
N86 N85 1.388 . S
N86 C87 1.346 . S
C87 N86 1.346 . S
C87 C88 1.396 . S
C87 C97 1.510 . S
C88 C84 1.401 . S
C88 C87 1.396 . S
C89 C84 1.499 1_545 S
C89 H90 0.959 1_545 S
C89 H91 0.960 . S
C89 H92 0.961 . S
H90 C89 0.959 1_565 S
H91 C89 0.960 . S
H92 C89 0.961 . S
O93 Co68 1.967 . S
O93 C101 1.258 . S
O94 Co69 1.941 . S
O94 C101 1.266 . S
H95 C97 0.959 . S
H96 C97 0.961 . S
C97 C87 1.510 . S
C97 H95 0.959 . S
C97 H96 0.961 . S
C97 H98 0.960 . S
H98 C97 0.960 . S
H99 N79 0.862 . S
O100 Co68 1.920 . S
O100 C73 1.289 . S
C101 O93 1.258 . S
C101 O94 1.266 . S
Co102 O105 1.970 . S
Co102 N119 1.989 1_554 S
Co102 O127 1.967 . S
Co102 O134 1.920 . S
Co103 O106 1.966 . S
Co103 N112 2.022 . S
Co103 N120 1.993 . S
Co103 O128 1.941 . S
C104 O105 1.258 . S
C104 O106 1.263 1_554 S
O105 Co102 1.970 . S
O105 C104 1.258 . S
O106 Co103 1.966 . S
O106 C104 1.263 1_556 S
C107 O108 1.235 . S
C107 O134 1.289 . S
O108 C107 1.235 . S
C109 C111 1.400 . S
C109 N112 1.351 . S
C109 C114 1.501 . S
C110 C111 1.387 . S
C110 N113 1.341 . S
C111 C109 1.400 . S
C111 C110 1.387 . S
N112 Co103 2.022 . S
N112 C109 1.351 . S
N112 N113 1.365 . S
N113 C110 1.341 . S
N113 N112 1.365 . S
N113 H133 0.862 . S
C114 C109 1.501 . S
C114 H115 0.961 . S
C114 H116 0.961 . S
C114 H117 0.960 . S
H115 C114 0.961 . S
H116 C114 0.961 . S
H117 C114 0.960 . S
C118 N119 1.342 . S
C118 C122 1.401 . S
C118 C123 1.499 . S
N119 Co102 1.989 1_556 S
N119 C118 1.342 . S
N119 N120 1.388 . S
N120 Co103 1.993 . S
N120 N119 1.388 . S
N120 C121 1.346 . S
C121 N120 1.346 . S
C121 C122 1.396 . S
C121 C131 1.510 . S
C122 C118 1.401 . S
C122 C121 1.396 . S
C123 C118 1.499 . S
C123 H124 0.959 . S
C123 H125 0.960 . S
C123 H126 0.961 . S
H124 C123 0.959 . S
H125 C123 0.960 . S
H126 C123 0.961 . S
O127 Co102 1.967 . S
O127 C135 1.258 1_554 S
O128 Co103 1.941 . S
O128 C135 1.266 . S
H129 C131 0.959 . S
H130 C131 0.961 . S
C131 C121 1.510 . S
C131 H129 0.959 . S
C131 H130 0.961 . S
C131 H132 0.960 . S
H132 C131 0.960 . S
H133 N113 0.862 . S
O134 Co102 1.920 . S
O134 C107 1.289 . S
C135 O127 1.258 1_556 S
C135 O128 1.266 . S
Co136 O139 1.970 . S
Co136 N153 1.989 . S
Co136 O161 1.967 . S
Co136 O168 1.920 . S
Co137 O140 1.966 . S
Co137 N146 2.022 . S
Co137 N154 1.993 . S
Co137 O162 1.941 . S
C138 O139 1.258 . S
C138 O140 1.263 . S
O139 Co136 1.970 . S
O139 C138 1.258 . S
O140 Co137 1.966 . S
O140 C138 1.263 . S
C141 O142 1.235 1_565 S
C141 O168 1.289 . S
O142 C141 1.235 1_545 S
C143 C145 1.400 . S
C143 N146 1.351 . S
C143 C148 1.501 1_455 S
C144 C145 1.387 . S
C144 N147 1.341 . S
C145 C143 1.400 . S
C145 C144 1.387 . S
N146 Co137 2.022 . S
N146 C143 1.351 . S
N146 N147 1.365 . S
N147 C144 1.341 . S
N147 N146 1.365 . S
N147 H167 0.862 . S
C148 C143 1.501 1_655 S
C148 H149 0.961 1_655 S
C148 H150 0.961 . S
C148 H151 0.960 . S
H149 C148 0.961 1_455 S
H150 C148 0.961 . S
H151 C148 0.960 . S
C152 N153 1.342 . S
C152 C156 1.401 . S
C152 C157 1.499 1_565 S
N153 Co136 1.989 . S
N153 C152 1.342 . S
N153 N154 1.388 . S
N154 Co137 1.993 . S
N154 N153 1.388 . S
N154 C155 1.346 . S
C155 N154 1.346 . S
C155 C156 1.396 . S
C155 C165 1.510 . S
C156 C152 1.401 . S
C156 C155 1.396 . S
C157 C152 1.499 1_545 S
C157 H158 0.959 1_545 S
C157 H159 0.960 . S
C157 H160 0.961 . S
H158 C157 0.959 1_565 S
H159 C157 0.960 . S
H160 C157 0.961 . S
O161 Co136 1.967 . S
O161 C169 1.258 . S
O162 Co137 1.941 . S
O162 C169 1.266 . S
H163 C165 0.959 . S
H164 C165 0.961 . S
C165 C155 1.510 . S
C165 H163 0.959 . S
C165 H164 0.961 . S
C165 H166 0.960 . S
H166 C165 0.960 . S
H167 N147 0.862 . S
O168 Co136 1.920 . S
O168 C141 1.289 . S
C169 O161 1.258 . S
C169 O162 1.266 . S
Co170 O173 1.970 . S
Co170 N187 1.989 . S
Co170 O195 1.967 . S
Co170 O202 1.920 . S
Co171 O174 1.966 . S
Co171 N180 2.022 1_556 S
Co171 N188 1.993 . S
Co171 O196 1.941 . S
C172 O173 1.258 . S
C172 O174 1.263 . S
O173 Co170 1.970 . S
O173 C172 1.258 . S
O174 Co171 1.966 . S
O174 C172 1.263 . S
C175 O176 1.235 . S
C175 O202 1.289 . S
O176 C175 1.235 . S
C177 C179 1.400 . S
C177 N180 1.351 . S
C177 C182 1.501 1_554 S
C178 C179 1.387 . S
C178 N181 1.341 . S
C179 C177 1.400 . S
C179 C178 1.387 . S
N180 Co171 2.022 1_554 S
N180 C177 1.351 . S
N180 N181 1.365 . S
N181 C178 1.341 . S
N181 N180 1.365 . S
N181 H201 0.862 . S
C182 C177 1.501 1_556 S
C182 H183 0.961 . S
C182 H184 0.961 . S
C182 H185 0.960 . S
H183 C182 0.961 . S
H184 C182 0.961 . S
H185 C182 0.960 . S
C186 N187 1.342 . S
C186 C190 1.401 1_556 S
C186 C191 1.499 . S
N187 Co170 1.989 . S
N187 C186 1.342 . S
N187 N188 1.388 . S
N188 Co171 1.993 . S
N188 N187 1.388 . S
N188 C189 1.346 1_556 S
C189 N188 1.346 1_554 S
C189 C190 1.396 . S
C189 C199 1.510 . S
C190 C186 1.401 1_554 S
C190 C189 1.396 . S
C191 C186 1.499 . S
C191 H192 0.959 . S
C191 H193 0.960 . S
C191 H194 0.961 . S
H192 C191 0.959 . S
H193 C191 0.960 . S
H194 C191 0.961 . S
O195 Co170 1.967 . S
O195 C203 1.258 . S
O196 Co171 1.941 . S
O196 C203 1.266 . S
H197 C199 0.959 . S
H198 C199 0.961 . S
C199 C189 1.510 . S
C199 H197 0.959 . S
C199 H198 0.961 . S
C199 H200 0.960 . S
H200 C199 0.960 . S
H201 N181 0.862 . S
O202 Co170 1.920 . S
O202 C175 1.289 . S
C203 O195 1.258 . S
C203 O196 1.266 . S
Co204 O207 1.970 . S
Co204 N221 1.989 1_556 S
Co204 O229 1.967 . S
Co204 O236 1.920 . S
Co205 O208 1.966 . S
Co205 N214 2.022 . S
Co205 N222 1.993 . S
Co205 O230 1.941 . S
C206 O207 1.258 . S
C206 O208 1.263 1_556 S
O207 Co204 1.970 . S
O207 C206 1.258 . S
O208 Co205 1.966 . S
O208 C206 1.263 1_554 S
C209 O210 1.235 1_545 S
C209 O236 1.289 . S
O210 C209 1.235 1_565 S
C211 C213 1.400 . S
C211 N214 1.351 . S
C211 C216 1.501 . S
C212 C213 1.387 . S
C212 N215 1.341 . S
C213 C211 1.400 . S
C213 C212 1.387 . S
N214 Co205 2.022 . S
N214 C211 1.351 . S
N214 N215 1.365 . S
N215 C212 1.341 . S
N215 N214 1.365 . S
N215 H235 0.862 . S
C216 C211 1.501 . S
C216 H217 0.961 . S
C216 H218 0.961 . S
C216 H219 0.960 . S
H217 C216 0.961 . S
H218 C216 0.961 . S
H219 C216 0.960 . S
C220 N221 1.342 . S
C220 C224 1.401 . S
C220 C225 1.499 1_545 S
N221 Co204 1.989 1_554 S
N221 C220 1.342 . S
N221 N222 1.388 . S
N222 Co205 1.993 . S
N222 N221 1.388 . S
N222 C223 1.346 . S
C223 N222 1.346 . S
C223 C224 1.396 . S
C223 C233 1.510 . S
C224 C220 1.401 . S
C224 C223 1.396 . S
C225 C220 1.499 1_565 S
C225 H226 0.959 1_565 S
C225 H227 0.960 . S
C225 H228 0.961 . S
H226 C225 0.959 1_545 S
H227 C225 0.960 . S
H228 C225 0.961 . S
O229 Co204 1.967 . S
O229 C237 1.258 1_556 S
O230 Co205 1.941 . S
O230 C237 1.266 . S
H231 C233 0.959 . S
H232 C233 0.961 . S
C233 C223 1.510 . S
C233 H231 0.959 . S
C233 H232 0.961 . S
C233 H234 0.960 . S
H234 C233 0.960 . S
H235 N215 0.862 . S
O236 Co204 1.920 . S
O236 C209 1.289 . S
C237 O229 1.258 1_554 S
C237 O230 1.266 . S
Co238 O241 1.970 . S
Co238 N255 1.989 . S
Co238 O263 1.967 . S
Co238 O270 1.920 . S
Co239 O242 1.966 . S
Co239 N248 2.022 . S
Co239 N256 1.993 . S
Co239 O264 1.941 . S
C240 O241 1.258 . S
C240 O242 1.263 . S
O241 Co238 1.970 . S
O241 C240 1.258 . S
O242 Co239 1.966 . S
O242 C240 1.263 . S
C243 O244 1.235 . S
C243 O270 1.289 . S
O244 C243 1.235 . S
C245 C247 1.400 . S
C245 N248 1.351 . S
C245 C250 1.501 . S
C246 C247 1.387 . S
C246 N249 1.341 . S
C247 C245 1.400 . S
C247 C246 1.387 . S
N248 Co239 2.022 . S
N248 C245 1.351 . S
N248 N249 1.365 . S
N249 C246 1.341 . S
N249 N248 1.365 . S
N249 H269 0.862 . S
C250 C245 1.501 . S
C250 H251 0.961 . S
C250 H252 0.961 . S
C250 H253 0.960 . S
H251 C250 0.961 . S
H252 C250 0.961 . S
H253 C250 0.960 . S
C254 N255 1.342 . S
C254 C258 1.401 . S
C254 C259 1.499 . S
N255 Co238 1.989 . S
N255 C254 1.342 . S
N255 N256 1.388 . S
N256 Co239 1.993 . S
N256 N255 1.388 . S
N256 C257 1.346 . S
C257 N256 1.346 . S
C257 C258 1.396 . S
C257 C267 1.510 . S
C258 C254 1.401 . S
C258 C257 1.396 . S
C259 C254 1.499 . S
C259 H260 0.959 . S
C259 H261 0.960 . S
C259 H262 0.961 . S
H260 C259 0.959 . S
H261 C259 0.960 . S
H262 C259 0.961 . S
O263 Co238 1.967 . S
O263 C271 1.258 . S
O264 Co239 1.941 . S
O264 C271 1.266 . S
H265 C267 0.959 . S
H266 C267 0.961 . S
C267 C257 1.510 . S
C267 H265 0.959 . S
C267 H266 0.961 . S
C267 H268 0.960 . S
H268 C267 0.960 . S
H269 N249 0.862 . S
O270 Co238 1.920 . S
O270 C243 1.289 . S
C271 O263 1.258 . S
C271 O264 1.266 . S
Co272 O275 1.970 . S
Co272 N289 1.989 1_556 S
Co272 O297 1.967 . S
Co272 O304 1.920 . S
Co273 O276 1.966 . S
Co273 N282 2.022 . S
Co273 N290 1.993 . S
Co273 O298 1.941 . S
C274 O275 1.258 . S
C274 O276 1.263 1_556 S
O275 Co272 1.970 . S
O275 C274 1.258 . S
O276 Co273 1.966 . S
O276 C274 1.263 1_554 S
C277 O278 1.235 . S
C277 O304 1.289 . S
O278 C277 1.235 . S
C279 C281 1.400 . S
C279 N282 1.351 . S
C279 C284 1.501 1_565 S
C280 C281 1.387 . S
C280 N283 1.341 . S
C281 C279 1.400 . S
C281 C280 1.387 . S
N282 Co273 2.022 . S
N282 C279 1.351 . S
N282 N283 1.365 . S
N283 C280 1.341 . S
N283 N282 1.365 . S
N283 H303 0.862 . S
C284 C279 1.501 1_545 S
C284 H285 0.961 1_545 S
C284 H286 0.961 . S
C284 H287 0.960 . S
H285 C284 0.961 1_565 S
H286 C284 0.961 . S
H287 C284 0.960 . S
C288 N289 1.342 . S
C288 C292 1.401 . S
C288 C293 1.499 1_655 S
N289 Co272 1.989 1_554 S
N289 C288 1.342 . S
N289 N290 1.388 . S
N290 Co273 1.993 . S
N290 N289 1.388 . S
N290 C291 1.346 . S
C291 N290 1.346 . S
C291 C292 1.396 . S
C291 C301 1.510 . S
C292 C288 1.401 . S
C292 C291 1.396 . S
C293 C288 1.499 1_455 S
C293 H294 0.959 1_455 S
C293 H295 0.960 . S
C293 H296 0.961 . S
H294 C293 0.959 1_655 S
H295 C293 0.960 . S
H296 C293 0.961 . S
O297 Co272 1.967 . S
O297 C305 1.258 1_556 S
O298 Co273 1.941 . S
O298 C305 1.266 . S
H299 C301 0.959 . S
H300 C301 0.961 . S
C301 C291 1.510 . S
C301 H299 0.959 . S
C301 H300 0.961 . S
C301 H302 0.960 . S
H302 C301 0.960 . S
H303 N283 0.862 . S
O304 Co272 1.920 . S
O304 C277 1.289 . S
C305 O297 1.258 1_554 S
C305 O298 1.266 . S
Co306 O309 1.970 . S
Co306 N323 1.989 . S
Co306 O331 1.967 . S
Co306 O338 1.920 . S
Co307 O310 1.966 . S
Co307 N316 2.022 1_556 S
Co307 N324 1.993 . S
Co307 O332 1.941 . S
C308 O309 1.258 . S
C308 O310 1.263 . S
O309 Co306 1.970 . S
O309 C308 1.258 . S
O310 Co307 1.966 . S
O310 C308 1.263 . S
C311 O312 1.235 . S
C311 O338 1.289 . S
O312 C311 1.235 . S
C313 C315 1.400 . S
C313 N316 1.351 . S
C313 C318 1.501 1_554 S
C314 C315 1.387 . S
C314 N317 1.341 . S
C315 C313 1.400 . S
C315 C314 1.387 . S
N316 Co307 2.022 1_554 S
N316 C313 1.351 . S
N316 N317 1.365 . S
N317 C314 1.341 . S
N317 N316 1.365 . S
N317 H337 0.862 . S
C318 C313 1.501 1_556 S
C318 H319 0.961 . S
C318 H320 0.959 1_556 S
C318 H321 0.960 . S
H319 C318 0.961 . S
H320 C318 0.959 1_554 S
H321 C318 0.960 . S
C322 N323 1.342 . S
C322 C326 1.401 1_556 S
C322 C327 1.499 . S
N323 Co306 1.989 . S
N323 C322 1.342 . S
N323 N324 1.388 . S
N324 Co307 1.993 . S
N324 N323 1.388 . S
N324 C325 1.346 1_556 S
C325 N324 1.346 1_554 S
C325 C326 1.396 . S
C325 C335 1.510 . S
C326 C322 1.401 1_554 S
C326 C325 1.396 . S
C327 C322 1.499 . S
C327 H328 0.959 . S
C327 H329 0.960 . S
C327 H330 0.961 . S
H328 C327 0.959 . S
H329 C327 0.960 . S
H330 C327 0.961 . S
O331 Co306 1.967 . S
O331 C339 1.258 . S
O332 Co307 1.941 . S
O332 C339 1.266 . S
H333 C335 0.959 . S
H334 C335 0.961 . S
C335 C325 1.510 . S
C335 H333 0.959 . S
C335 H334 0.961 . S
C335 H336 0.960 . S
H336 C335 0.960 . S
H337 N317 0.862 . S
O338 Co306 1.920 . S
O338 C311 1.289 . S
C339 O331 1.258 . S
C339 O332 1.266 . S
Co340 O343 1.970 . S
Co340 N357 1.989 . S
Co340 O365 1.967 . S
Co340 O372 1.920 . S
Co341 O344 1.966 . S
Co341 N350 2.022 . S
Co341 N358 1.993 . S
Co341 O366 1.941 . S
C342 O343 1.258 . S
C342 O344 1.263 . S
O343 Co340 1.970 . S
O343 C342 1.258 . S
O344 Co341 1.966 . S
O344 C342 1.263 . S
C345 O346 1.235 . S
C345 O372 1.289 . S
O346 C345 1.235 . S
C347 C349 1.400 . S
C347 N350 1.351 . S
C347 C352 1.501 1_545 S
C348 C349 1.387 . S
C348 N351 1.341 . S
C349 C347 1.400 . S
C349 C348 1.387 . S
N350 Co341 2.022 . S
N350 C347 1.351 . S
N350 N351 1.365 . S
N351 C348 1.341 . S
N351 N350 1.365 . S
N351 H371 0.862 . S
C352 C347 1.501 1_565 S
C352 H353 0.961 1_565 S
C352 H354 0.961 . S
C352 H355 0.960 . S
H353 C352 0.961 1_545 S
H354 C352 0.961 . S
H355 C352 0.960 . S
C356 N357 1.342 . S
C356 C360 1.401 . S
C356 C361 1.499 . S
N357 Co340 1.989 . S
N357 C356 1.342 . S
N357 N358 1.388 . S
N358 Co341 1.993 . S
N358 N357 1.388 . S
N358 C359 1.346 . S
C359 N358 1.346 . S
C359 C360 1.396 . S
C359 C369 1.510 . S
C360 C356 1.401 . S
C360 C359 1.396 . S
C361 C356 1.499 . S
C361 H362 0.959 . S
C361 H363 0.960 . S
C361 H364 0.961 . S
H362 C361 0.959 . S
H363 C361 0.960 . S
H364 C361 0.961 . S
O365 Co340 1.967 . S
O365 C373 1.258 . S
O366 Co341 1.941 . S
O366 C373 1.266 . S
H367 C369 0.959 . S
H368 C369 0.961 . S
C369 C359 1.510 . S
C369 H367 0.959 . S
C369 H368 0.961 . S
C369 H370 0.960 . S
H370 C369 0.960 . S
H371 N351 0.862 . S
O372 Co340 1.920 . S
O372 C345 1.289 . S
C373 O365 1.258 . S
C373 O366 1.266 . S
Co374 O377 1.970 . S
Co374 N391 1.989 . S
Co374 O399 1.967 . S
Co374 O406 1.920 . S
Co375 O378 1.966 . S
Co375 N384 2.022 . S
Co375 N392 1.993 . S
Co375 O400 1.941 . S
C376 O377 1.258 . S
C376 O378 1.263 . S
O377 Co374 1.970 . S
O377 C376 1.258 . S
O378 Co375 1.966 . S
O378 C376 1.263 . S
C379 O380 1.235 . S
C379 O406 1.289 . S
O380 C379 1.235 . S
C381 C383 1.400 . S
C381 N384 1.351 . S
C381 C386 1.501 . S
C382 C383 1.387 . S
C382 N385 1.341 . S
C383 C381 1.400 . S
C383 C382 1.387 . S
N384 Co375 2.022 . S
N384 C381 1.351 . S
N384 N385 1.365 . S
N385 C382 1.341 . S
N385 N384 1.365 . S
N385 H405 0.862 . S
C386 C381 1.501 . S
C386 H387 0.961 . S
C386 H388 0.961 . S
C386 H389 0.960 . S
H387 C386 0.961 . S
H388 C386 0.961 . S
H389 C386 0.960 . S
C390 N391 1.342 . S
C390 C394 1.401 . S
C390 C395 1.499 . S
N391 Co374 1.989 . S
N391 C390 1.342 . S
N391 N392 1.388 . S
N392 Co375 1.993 . S
N392 N391 1.388 . S
N392 C393 1.346 . S
C393 N392 1.346 . S
C393 C394 1.396 . S
C393 C403 1.510 . S
C394 C390 1.401 . S
C394 C393 1.396 . S
C395 C390 1.499 . S
C395 H396 0.959 . S
C395 H397 0.960 . S
C395 H398 0.961 . S
H396 C395 0.959 . S
H397 C395 0.960 . S
H398 C395 0.961 . S
O399 Co374 1.967 . S
O399 C407 1.258 . S
O400 Co375 1.941 . S
O400 C407 1.266 . S
H401 C403 0.959 . S
H402 C403 0.961 . S
C403 C393 1.510 . S
C403 H401 0.959 . S
C403 H402 0.961 . S
C403 H404 0.960 . S
H404 C403 0.960 . S
H405 N385 0.862 . S
O406 Co374 1.920 . S
O406 C379 1.289 . S
C407 O399 1.258 . S
C407 O400 1.266 . S
Co408 O411 1.970 . S
Co408 N425 1.989 . S
Co408 O433 1.967 . S
Co408 O440 1.920 . S
Co409 O412 1.966 . S
Co409 N418 2.022 . S
Co409 N426 1.993 . S
Co409 O434 1.941 . S
C410 O411 1.258 . S
C410 O412 1.263 . S
O411 Co408 1.970 . S
O411 C410 1.258 . S
O412 Co409 1.966 . S
O412 C410 1.263 . S
C413 O414 1.235 . S
C413 O440 1.289 . S
O414 C413 1.235 . S
C415 C417 1.400 . S
C415 N418 1.351 . S
C415 C420 1.501 1_545 S
C416 C417 1.387 . S
C416 N419 1.341 . S
C417 C415 1.400 . S
C417 C416 1.387 . S
N418 Co409 2.022 . S
N418 C415 1.351 . S
N418 N419 1.365 . S
N419 C416 1.341 . S
N419 N418 1.365 . S
N419 H439 0.862 . S
C420 C415 1.501 1_565 S
C420 H421 0.961 1_565 S
C420 H422 0.961 . S
C420 H423 0.960 . S
H421 C420 0.961 1_545 S
H422 C420 0.961 . S
H423 C420 0.960 . S
C424 N425 1.342 . S
C424 C428 1.401 . S
C424 C429 1.499 1_655 S
N425 Co408 1.989 . S
N425 C424 1.342 . S
N425 N426 1.388 . S
N426 Co409 1.993 . S
N426 N425 1.388 . S
N426 C427 1.346 . S
C427 N426 1.346 . S
C427 C428 1.396 . S
C427 C437 1.510 . S
C428 C424 1.401 . S
C428 C427 1.396 . S
C429 C424 1.499 1_455 S
C429 H430 0.959 1_455 S
C429 H431 0.960 . S
C429 H432 0.961 . S
H430 C429 0.959 1_655 S
H431 C429 0.960 . S
H432 C429 0.961 . S
O433 Co408 1.967 . S
O433 C441 1.258 . S
O434 Co409 1.941 . S
O434 C441 1.266 . S
H435 C437 0.959 . S
H436 C437 0.961 . S
C437 C427 1.510 . S
C437 H435 0.959 . S
C437 H436 0.961 . S
C437 H438 0.960 . S
H438 C437 0.960 . S
H439 N419 0.862 . S
O440 Co408 1.920 . S
O440 C413 1.289 . S
C441 O433 1.258 . S
C441 O434 1.266 . S
Co442 O445 1.970 . S
Co442 N459 1.989 . S
Co442 O467 1.967 . S
Co442 O474 1.920 . S
Co443 O446 1.966 . S
Co443 N452 2.022 . S
Co443 N460 1.993 . S
Co443 O468 1.941 . S
C444 O445 1.258 . S
C444 O446 1.263 . S
O445 Co442 1.970 . S
O445 C444 1.258 . S
O446 Co443 1.966 . S
O446 C444 1.263 . S
C447 O448 1.235 . S
C447 O474 1.289 . S
O448 C447 1.235 . S
C449 C451 1.400 . S
C449 N452 1.351 . S
C449 C454 1.501 . S
C450 C451 1.387 . S
C450 N453 1.341 . S
C451 C449 1.400 . S
C451 C450 1.387 . S
N452 Co443 2.022 . S
N452 C449 1.351 . S
N452 N453 1.365 . S
N453 C450 1.341 . S
N453 N452 1.365 . S
N453 H473 0.862 . S
C454 C449 1.501 . S
C454 H455 0.961 . S
C454 H456 0.961 . S
C454 H457 0.960 . S
H455 C454 0.961 . S
H456 C454 0.961 . S
H457 C454 0.960 . S
C458 N459 1.342 . S
C458 C462 1.401 . S
C458 C463 1.499 . S
N459 Co442 1.989 . S
N459 C458 1.342 . S
N459 N460 1.388 . S
N460 Co443 1.993 . S
N460 N459 1.388 . S
N460 C461 1.346 . S
C461 N460 1.346 . S
C461 C462 1.396 . S
C461 C471 1.510 . S
C462 C458 1.401 . S
C462 C461 1.396 . S
C463 C458 1.499 . S
C463 H464 0.959 . S
C463 H465 0.960 . S
C463 H466 0.961 . S
H464 C463 0.959 . S
H465 C463 0.960 . S
H466 C463 0.961 . S
O467 Co442 1.967 . S
O467 C475 1.258 . S
O468 Co443 1.941 . S
O468 C475 1.266 . S
H469 C471 0.959 . S
H470 C471 0.961 . S
C471 C461 1.510 . S
C471 H469 0.959 . S
C471 H470 0.961 . S
C471 H472 0.960 . S
H472 C471 0.960 . S
H473 N453 0.862 . S
O474 Co442 1.920 . S
O474 C447 1.289 . S
C475 O467 1.258 . S
C475 O468 1.266 . S
Co476 O479 1.970 . S
Co476 N493 1.989 . S
Co476 O501 1.967 . S
Co476 O508 1.920 . S
Co477 O480 1.966 . S
Co477 N486 2.022 1_554 S
Co477 N494 1.993 . S
Co477 O502 1.941 . S
C478 O479 1.258 . S
C478 O480 1.263 . S
O479 Co476 1.970 . S
O479 C478 1.258 . S
O480 Co477 1.966 . S
O480 C478 1.263 . S
C481 O482 1.235 . S
C481 O508 1.289 . S
O482 C481 1.235 . S
C483 C485 1.400 . S
C483 N486 1.351 . S
C483 C488 1.501 1_566 S
C484 C485 1.387 . S
C484 N487 1.341 . S
C485 C483 1.400 . S
C485 C484 1.387 . S
N486 Co477 2.022 1_556 S
N486 C483 1.351 . S
N486 N487 1.365 . S
N487 C484 1.341 . S
N487 N486 1.365 . S
N487 H507 0.862 . S
C488 C483 1.501 1_544 S
C488 H489 0.961 1_545 S
C488 H490 0.961 . S
C488 H491 0.960 . S
H489 C488 0.961 1_565 S
H490 C488 0.961 . S
H491 C488 0.960 . S
C492 N493 1.342 . S
C492 C496 1.401 . S
C492 C497 1.499 . S
N493 Co476 1.989 . S
N493 C492 1.342 . S
N493 N494 1.388 . S
N494 Co477 1.993 . S
N494 N493 1.388 . S
N494 C495 1.346 1_554 S
C495 N494 1.346 1_556 S
C495 C496 1.396 1_556 S
C495 C505 1.510 . S
C496 C492 1.401 . S
C496 C495 1.396 1_554 S
C497 C492 1.499 . S
C497 H498 0.959 . S
C497 H499 0.960 . S
C497 H500 0.961 . S
H498 C497 0.959 . S
H499 C497 0.960 . S
H500 C497 0.961 . S
O501 Co476 1.967 . S
O501 C509 1.258 . S
O502 Co477 1.941 . S
O502 C509 1.266 . S
H503 C505 0.959 . S
H504 C505 0.961 . S
C505 C495 1.510 . S
C505 H503 0.959 . S
C505 H504 0.961 . S
C505 H506 0.960 . S
H506 C505 0.960 . S
H507 N487 0.862 . S
O508 Co476 1.920 . S
O508 C481 1.289 . S
C509 O501 1.258 . S
C509 O502 1.266 . S
Co510 O513 1.970 . S
Co510 N527 1.989 1_554 S
Co510 O535 1.967 . S
Co510 O542 1.920 . S
Co511 O514 1.966 . S
Co511 N520 2.022 . S
Co511 N528 1.993 . S
Co511 O536 1.941 . S
C512 O513 1.258 . S
C512 O514 1.263 1_554 S
O513 Co510 1.970 . S
O513 C512 1.258 . S
O514 Co511 1.966 . S
O514 C512 1.263 1_556 S
C515 O516 1.235 . S
C515 O542 1.289 . S
O516 C515 1.235 . S
C517 C519 1.400 . S
C517 N520 1.351 . S
C517 C522 1.501 . S
C518 C519 1.387 . S
C518 N521 1.341 . S
C519 C517 1.400 . S
C519 C518 1.387 . S
N520 Co511 2.022 . S
N520 C517 1.351 . S
N520 N521 1.365 . S
N521 C518 1.341 . S
N521 N520 1.365 . S
N521 H541 0.862 . S
C522 C517 1.501 . S
C522 H523 0.961 . S
C522 H524 0.961 . S
C522 H525 0.960 . S
H523 C522 0.961 . S
H524 C522 0.961 . S
H525 C522 0.960 . S
C526 N527 1.342 . S
C526 C530 1.401 . S
C526 C531 1.499 . S
N527 Co510 1.989 1_556 S
N527 C526 1.342 . S
N527 N528 1.388 . S
N528 Co511 1.993 . S
N528 N527 1.388 . S
N528 C529 1.346 . S
C529 N528 1.346 . S
C529 C530 1.396 . S
C529 C539 1.510 . S
C530 C526 1.401 . S
C530 C529 1.396 . S
C531 C526 1.499 . S
C531 H532 0.959 . S
C531 H533 0.960 . S
C531 H534 0.961 . S
H532 C531 0.959 . S
H533 C531 0.960 . S
H534 C531 0.961 . S
O535 Co510 1.967 . S
O535 C543 1.258 1_554 S
O536 Co511 1.941 . S
O536 C543 1.266 . S
H537 C539 0.959 . S
H538 C539 0.961 . S
C539 C529 1.510 . S
C539 H537 0.959 . S
C539 H538 0.961 . S
C539 H540 0.960 . S
H540 C539 0.960 . S
H541 N521 0.862 . S
O542 Co510 1.920 . S
O542 C515 1.289 . S
C543 O535 1.258 1_556 S
C543 O536 1.266 . S
Co544 O547 1.970 . S
Co544 N561 1.989 . S
Co544 O569 1.967 . S
Co544 O576 1.920 . S
Co545 O548 1.966 . S
Co545 N554 2.022 . S
Co545 N562 1.993 . S
Co545 O570 1.941 . S
C546 O547 1.258 . S
C546 O548 1.263 . S
O547 Co544 1.970 . S
O547 C546 1.258 . S
O548 Co545 1.966 . S
O548 C546 1.263 . S
C549 O550 1.235 . S
C549 O576 1.289 . S
O550 C549 1.235 . S
C551 C553 1.400 . S
C551 N554 1.351 . S
C551 C556 1.501 . S
C552 C553 1.387 . S
C552 N555 1.341 . S
C553 C551 1.400 . S
C553 C552 1.387 . S
N554 Co545 2.022 . S
N554 C551 1.351 . S
N554 N555 1.365 . S
N555 C552 1.341 . S
N555 N554 1.365 . S
N555 H575 0.862 . S
C556 C551 1.501 . S
C556 H557 0.961 . S
C556 H558 0.961 . S
C556 H559 0.960 . S
H557 C556 0.961 . S
H558 C556 0.961 . S
H559 C556 0.960 . S
C560 N561 1.342 . S
C560 C564 1.401 . S
C560 C565 1.499 . S
N561 Co544 1.989 . S
N561 C560 1.342 . S
N561 N562 1.388 . S
N562 Co545 1.993 . S
N562 N561 1.388 . S
N562 C563 1.346 . S
C563 N562 1.346 . S
C563 C564 1.396 . S
C563 C573 1.510 . S
C564 C560 1.401 . S
C564 C563 1.396 . S
C565 C560 1.499 . S
C565 H566 0.959 . S
C565 H567 0.960 . S
C565 H568 0.961 . S
H566 C565 0.959 . S
H567 C565 0.960 . S
H568 C565 0.961 . S
O569 Co544 1.967 . S
O569 C577 1.258 . S
O570 Co545 1.941 . S
O570 C577 1.266 . S
H571 C573 0.959 . S
H572 C573 0.961 . S
C573 C563 1.510 . S
C573 H571 0.959 . S
C573 H572 0.961 . S
C573 H574 0.960 . S
H574 C573 0.960 . S
H575 N555 0.862 . S
O576 Co544 1.920 . S
O576 C549 1.289 . S
C577 O569 1.258 . S
C577 O570 1.266 . S
Co578 O581 1.970 . S
Co578 N595 1.989 1_554 S
Co578 O603 1.967 . S
Co578 O610 1.920 . S
Co579 O582 1.966 . S
Co579 N588 2.022 . S
Co579 N596 1.993 . S
Co579 O604 1.941 . S
C580 O581 1.258 . S
C580 O582 1.263 1_554 S
O581 Co578 1.970 . S
O581 C580 1.258 . S
O582 Co579 1.966 . S
O582 C580 1.263 1_556 S
C583 O584 1.235 . S
C583 O610 1.289 . S
O584 C583 1.235 . S
C585 C587 1.400 . S
C585 N588 1.351 . S
C585 C590 1.501 . S
C586 C587 1.387 . S
C586 N589 1.341 . S
C587 C585 1.400 . S
C587 C586 1.387 . S
N588 Co579 2.022 . S
N588 C585 1.351 . S
N588 N589 1.365 . S
N589 C586 1.341 . S
N589 N588 1.365 . S
N589 H609 0.862 . S
C590 C585 1.501 . S
C590 H591 0.961 . S
C590 H592 0.961 . S
C590 H593 0.960 . S
H591 C590 0.961 . S
H592 C590 0.961 . S
H593 C590 0.960 . S
C594 N595 1.342 . S
C594 C598 1.401 . S
C594 C599 1.499 . S
N595 Co578 1.989 1_556 S
N595 C594 1.342 . S
N595 N596 1.388 . S
N596 Co579 1.993 . S
N596 N595 1.388 . S
N596 C597 1.346 . S
C597 N596 1.346 . S
C597 C598 1.396 . S
C597 C607 1.510 . S
C598 C594 1.401 . S
C598 C597 1.396 . S
C599 C594 1.499 . S
C599 H600 0.959 . S
C599 H601 0.960 . S
C599 H602 0.961 . S
H600 C599 0.959 . S
H601 C599 0.960 . S
H602 C599 0.961 . S
O603 Co578 1.967 . S
O603 C611 1.258 1_554 S
O604 Co579 1.941 . S
O604 C611 1.266 . S
H605 C607 0.959 . S
H606 C607 0.961 . S
C607 C597 1.510 . S
C607 H605 0.959 . S
C607 H606 0.961 . S
C607 H608 0.960 . S
H608 C607 0.960 . S
H609 N589 0.862 . S
O610 Co578 1.920 . S
O610 C583 1.289 . S
C611 O603 1.258 1_556 S
C611 O604 1.266 . S
Co612 O615 1.970 . S
Co612 N629 1.989 . S
Co612 O637 1.967 . S
Co612 O644 1.920 . S
Co613 O616 1.966 . S
Co613 N622 2.022 . S
Co613 N630 1.993 . S
Co613 O638 1.941 . S
C614 O615 1.258 . S
C614 O616 1.263 . S
O615 Co612 1.970 . S
O615 C614 1.258 . S
O616 Co613 1.966 . S
O616 C614 1.263 . S
C617 O618 1.235 . S
C617 O644 1.289 . S
O618 C617 1.235 . S
C619 C621 1.400 . S
C619 N622 1.351 1_556 S
C619 C624 1.501 1_656 S
C620 C621 1.387 . S
C620 N623 1.341 . S
C621 C619 1.400 . S
C621 C620 1.387 . S
N622 Co613 2.022 . S
N622 C619 1.351 1_554 S
N622 N623 1.365 1_554 S
N623 C620 1.341 . S
N623 N622 1.365 1_556 S
N623 H643 0.862 . S
C624 C619 1.501 1_454 S
C624 H625 0.961 1_455 S
C624 H626 0.961 . S
C624 H627 0.960 . S
H625 C624 0.961 1_655 S
H626 C624 0.961 . S
H627 C624 0.960 . S
C628 N629 1.342 . S
C628 C632 1.401 1_554 S
C628 C633 1.499 . S
N629 Co612 1.989 . S
N629 C628 1.342 . S
N629 N630 1.388 . S
N630 Co613 1.993 . S
N630 N629 1.388 . S
N630 C631 1.346 1_554 S
C631 N630 1.346 1_556 S
C631 C632 1.396 . S
C631 C641 1.510 . S
C632 C628 1.401 1_556 S
C632 C631 1.396 . S
C633 C628 1.499 . S
C633 H634 0.959 . S
C633 H635 0.960 . S
C633 H636 0.961 . S
H634 C633 0.959 . S
H635 C633 0.960 . S
H636 C633 0.961 . S
O637 Co612 1.967 . S
O637 C645 1.258 . S
O638 Co613 1.941 . S
O638 C645 1.266 . S
H639 C641 0.959 . S
H640 C641 0.961 . S
C641 C631 1.510 . S
C641 H639 0.959 . S
C641 H640 0.961 . S
C641 H642 0.960 . S
H642 C641 0.960 . S
H643 N623 0.862 . S
O644 Co612 1.920 . S
O644 C617 1.289 . S
C645 O637 1.258 . S
C645 O638 1.266 . S
Co646 O649 1.970 . S
Co646 N663 1.989 . S
Co646 O671 1.967 . S
Co646 O678 1.920 . S
Co647 O650 1.966 . S
Co647 N656 2.022 . S
Co647 N664 1.993 . S
Co647 O672 1.941 . S
C648 O649 1.258 . S
C648 O650 1.263 . S
O649 Co646 1.970 . S
O649 C648 1.258 . S
O650 Co647 1.966 . S
O650 C648 1.263 . S
C651 O652 1.235 . S
C651 O678 1.289 . S
O652 C651 1.235 . S
C653 C655 1.400 . S
C653 N656 1.351 . S
C653 C658 1.501 . S
C654 C655 1.387 . S
C654 N657 1.341 . S
C655 C653 1.400 . S
C655 C654 1.387 . S
N656 Co647 2.022 . S
N656 C653 1.351 . S
N656 N657 1.365 . S
N657 C654 1.341 . S
N657 N656 1.365 . S
N657 H677 0.862 . S
C658 C653 1.501 . S
C658 H659 0.961 . S
C658 H660 0.961 . S
C658 H661 0.960 . S
H659 C658 0.961 . S
H660 C658 0.961 . S
H661 C658 0.960 . S
C662 N663 1.342 . S
C662 C666 1.401 . S
C662 C667 1.499 . S
N663 Co646 1.989 . S
N663 C662 1.342 . S
N663 N664 1.388 . S
N664 Co647 1.993 . S
N664 N663 1.388 . S
N664 C665 1.346 . S
C665 N664 1.346 . S
C665 C666 1.396 . S
C665 C675 1.510 . S
C666 C662 1.401 . S
C666 C665 1.396 . S
C667 C662 1.499 . S
C667 H668 0.959 . S
C667 H669 0.960 . S
C667 H670 0.961 . S
H668 C667 0.959 . S
H669 C667 0.960 . S
H670 C667 0.961 . S
O671 Co646 1.967 . S
O671 C679 1.258 . S
O672 Co647 1.941 . S
O672 C679 1.266 . S
H673 C675 0.959 . S
H674 C675 0.961 . S
C675 C665 1.510 . S
C675 H673 0.959 . S
C675 H674 0.961 . S
C675 H676 0.960 . S
H676 C675 0.960 . S
H677 N657 0.862 . S
O678 Co646 1.920 . S
O678 C651 1.289 . S
C679 O671 1.258 . S
C679 O672 1.266 . S
Co680 O683 1.970 . S
Co680 N697 1.989 1_556 S
Co680 O705 1.967 . S
Co680 O712 1.920 . S
Co681 O684 1.966 . S
Co681 N690 2.022 . S
Co681 N698 1.993 . S
Co681 O706 1.941 . S
C682 O683 1.258 . S
C682 O684 1.263 1_556 S
O683 Co680 1.970 . S
O683 C682 1.258 . S
O684 Co681 1.966 . S
O684 C682 1.263 1_554 S
C685 O686 1.235 . S
C685 O712 1.289 . S
O686 C685 1.235 . S
C687 C689 1.400 . S
C687 N690 1.351 . S
C687 C692 1.501 . S
C688 C689 1.387 . S
C688 N691 1.341 . S
C689 C687 1.400 . S
C689 C688 1.387 . S
N690 Co681 2.022 . S
N690 C687 1.351 . S
N690 N691 1.365 . S
N691 C688 1.341 . S
N691 N690 1.365 . S
N691 H711 0.862 . S
C692 C687 1.501 . S
C692 H693 0.961 . S
C692 H694 0.961 . S
C692 H695 0.960 . S
H693 C692 0.961 . S
H694 C692 0.961 . S
H695 C692 0.960 . S
C696 N697 1.342 . S
C696 C700 1.401 . S
C696 C701 1.499 . S
N697 Co680 1.989 1_554 S
N697 C696 1.342 . S
N697 N698 1.388 . S
N698 Co681 1.993 . S
N698 N697 1.388 . S
N698 C699 1.346 . S
C699 N698 1.346 . S
C699 C700 1.396 . S
C699 C709 1.510 . S
C700 C696 1.401 . S
C700 C699 1.396 . S
C701 C696 1.499 . S
C701 H702 0.959 . S
C701 H703 0.960 . S
C701 H704 0.961 . S
H702 C701 0.959 . S
H703 C701 0.960 . S
H704 C701 0.961 . S
O705 Co680 1.967 . S
O705 C713 1.258 1_556 S
O706 Co681 1.941 . S
O706 C713 1.266 . S
H707 C709 0.959 . S
H708 C709 0.961 . S
C709 C699 1.510 . S
C709 H707 0.959 . S
C709 H708 0.961 . S
C709 H710 0.960 . S
H710 C709 0.960 . S
H711 N691 0.862 . S
O712 Co680 1.920 . S
O712 C685 1.289 . S
C713 O705 1.258 1_554 S
C713 O706 1.266 . S
Co714 O717 1.970 . S
Co714 N731 1.989 . S
Co714 O739 1.967 . S
Co714 O746 1.920 . S
Co715 O718 1.966 . S
Co715 N724 2.022 . S
Co715 N732 1.993 . S
Co715 O740 1.941 . S
C716 O717 1.258 . S
C716 O718 1.263 . S
O717 Co714 1.970 . S
O717 C716 1.258 . S
O718 Co715 1.966 . S
O718 C716 1.263 . S
C719 O720 1.235 . S
C719 O746 1.289 . S
O720 C719 1.235 . S
C721 C723 1.400 . S
C721 N724 1.351 . S
C721 C726 1.501 . S
C722 C723 1.387 . S
C722 N725 1.341 . S
C723 C721 1.400 . S
C723 C722 1.387 . S
N724 Co715 2.022 . S
N724 C721 1.351 . S
N724 N725 1.365 . S
N725 C722 1.341 . S
N725 N724 1.365 . S
N725 H745 0.862 . S
C726 C721 1.501 . S
C726 H727 0.961 . S
C726 H728 0.961 . S
C726 H729 0.960 . S
H727 C726 0.961 . S
H728 C726 0.961 . S
H729 C726 0.960 . S
C730 N731 1.342 . S
C730 C734 1.401 . S
C730 C735 1.499 . S
N731 Co714 1.989 . S
N731 C730 1.342 . S
N731 N732 1.388 . S
N732 Co715 1.993 . S
N732 N731 1.388 . S
N732 C733 1.346 . S
C733 N732 1.346 . S
C733 C734 1.396 . S
C733 C743 1.510 . S
C734 C730 1.401 . S
C734 C733 1.396 . S
C735 C730 1.499 . S
C735 H736 0.959 . S
C735 H737 0.960 . S
C735 H738 0.961 . S
H736 C735 0.959 . S
H737 C735 0.960 . S
H738 C735 0.961 . S
O739 Co714 1.967 . S
O739 C747 1.258 . S
O740 Co715 1.941 . S
O740 C747 1.266 . S
H741 C743 0.959 . S
H742 C743 0.961 . S
C743 C733 1.510 . S
C743 H741 0.959 . S
C743 H742 0.961 . S
C743 H744 0.960 . S
H744 C743 0.960 . S
H745 N725 0.862 . S
O746 Co714 1.920 . S
O746 C719 1.289 . S
C747 O739 1.258 . S
C747 O740 1.266 . S
Co748 O751 1.970 . S
Co748 N765 1.989 . S
Co748 O773 1.967 . S
Co748 O780 1.920 . S
Co749 O752 1.966 . S
Co749 N758 2.022 . S
Co749 N766 1.993 . S
Co749 O774 1.941 . S
C750 O751 1.258 . S
C750 O752 1.263 . S
O751 Co748 1.970 . S
O751 C750 1.258 . S
O752 Co749 1.966 . S
O752 C750 1.263 . S
C753 O754 1.235 . S
C753 O780 1.289 . S
O754 C753 1.235 . S
C755 C757 1.400 . S
C755 N758 1.351 . S
C755 C760 1.501 1_655 S
C756 C757 1.387 . S
C756 N759 1.341 . S
C757 C755 1.400 . S
C757 C756 1.387 . S
N758 Co749 2.022 . S
N758 C755 1.351 . S
N758 N759 1.365 . S
N759 C756 1.341 . S
N759 N758 1.365 . S
N759 H779 0.862 . S
C760 C755 1.501 1_455 S
C760 H761 0.961 1_455 S
C760 H762 0.961 . S
C760 H763 0.960 . S
H761 C760 0.961 1_655 S
H762 C760 0.961 . S
H763 C760 0.960 . S
C764 N765 1.342 . S
C764 C768 1.401 . S
C764 C769 1.499 . S
N765 Co748 1.989 . S
N765 C764 1.342 . S
N765 N766 1.388 . S
N766 Co749 1.993 . S
N766 N765 1.388 . S
N766 C767 1.346 . S
C767 N766 1.346 . S
C767 C768 1.396 . S
C767 C777 1.510 . S
C768 C764 1.401 . S
C768 C767 1.396 . S
C769 C764 1.499 . S
C769 H770 0.959 . S
C769 H771 0.960 . S
C769 H772 0.961 . S
H770 C769 0.959 . S
H771 C769 0.960 . S
H772 C769 0.961 . S
O773 Co748 1.967 . S
O773 C781 1.258 . S
O774 Co749 1.941 . S
O774 C781 1.266 . S
H775 C777 0.959 . S
H776 C777 0.961 . S
C777 C767 1.510 . S
C777 H775 0.959 . S
C777 H776 0.961 . S
C777 H778 0.960 . S
H778 C777 0.960 . S
H779 N759 0.862 . S
O780 Co748 1.920 . S
O780 C753 1.289 . S
C781 O773 1.258 . S
C781 O774 1.266 . S
Co782 O785 1.970 . S
Co782 N799 1.989 . S
Co782 O807 1.967 . S
Co782 O814 1.920 . S
Co783 O786 1.966 . S
Co783 N792 2.022 1_556 S
Co783 N800 1.993 . S
Co783 O808 1.941 . S
C784 O785 1.258 . S
C784 O786 1.263 . S
O785 Co782 1.970 . S
O785 C784 1.258 . S
O786 Co783 1.966 . S
O786 C784 1.263 . S
C787 O788 1.235 . S
C787 O814 1.289 . S
O788 C787 1.235 . S
C789 C791 1.400 . S
C789 N792 1.351 . S
C789 C794 1.501 1_554 S
C790 C791 1.387 . S
C790 N793 1.341 . S
C791 C789 1.400 . S
C791 C790 1.387 . S
N792 Co783 2.022 1_554 S
N792 C789 1.351 . S
N792 N793 1.365 . S
N793 C790 1.341 . S
N793 N792 1.365 . S
N793 H813 0.862 . S
C794 C789 1.501 1_556 S
C794 H795 0.961 . S
C794 H796 0.961 . S
C794 H797 0.960 . S
H795 C794 0.961 . S
H796 C794 0.961 . S
H797 C794 0.960 . S
C798 N799 1.342 . S
C798 C802 1.401 1_556 S
C798 C803 1.499 . S
N799 Co782 1.989 . S
N799 C798 1.342 . S
N799 N800 1.388 . S
N800 Co783 1.993 . S
N800 N799 1.388 . S
N800 C801 1.346 1_556 S
C801 N800 1.346 1_554 S
C801 C802 1.396 . S
C801 C811 1.510 . S
C802 C798 1.401 1_554 S
C802 C801 1.396 . S
C803 C798 1.499 . S
C803 H804 0.959 . S
C803 H805 0.960 . S
C803 H806 0.961 . S
H804 C803 0.959 . S
H805 C803 0.960 . S
H806 C803 0.961 . S
O807 Co782 1.967 . S
O807 C815 1.258 . S
O808 Co783 1.941 . S
O808 C815 1.266 . S
H809 C811 0.959 . S
H810 C811 0.961 . S
C811 C801 1.510 . S
C811 H809 0.959 . S
C811 H810 0.961 . S
C811 H812 0.960 . S
H812 C811 0.960 . S
H813 N793 0.862 . S
O814 Co782 1.920 . S
O814 C787 1.289 . S
C815 O807 1.258 . S
C815 O808 1.266 . S
Co816 O819 1.970 . S
Co816 N833 1.989 . S
Co816 O841 1.967 . S
Co816 O848 1.920 . S
Co817 O820 1.966 . S
Co817 N826 2.022 . S
Co817 N834 1.993 . S
Co817 O842 1.941 . S
C818 O819 1.258 . S
C818 O820 1.263 . S
O819 Co816 1.970 . S
O819 C818 1.258 . S
O820 Co817 1.966 . S
O820 C818 1.263 . S
C821 O822 1.235 . S
C821 O848 1.289 . S
O822 C821 1.235 . S
C823 C825 1.400 . S
C823 N826 1.351 . S
C823 C828 1.501 . S
C824 C825 1.387 . S
C824 N827 1.341 . S
C825 C823 1.400 . S
C825 C824 1.387 . S
N826 Co817 2.022 . S
N826 C823 1.351 . S
N826 N827 1.365 . S
N827 C824 1.341 . S
N827 N826 1.365 . S
N827 H847 0.862 . S
C828 C823 1.501 . S
C828 H829 0.961 . S
C828 H830 0.961 . S
C828 H831 0.960 . S
H829 C828 0.961 . S
H830 C828 0.961 . S
H831 C828 0.960 . S
C832 N833 1.342 . S
C832 C836 1.401 . S
C832 C837 1.499 . S
N833 Co816 1.989 . S
N833 C832 1.342 . S
N833 N834 1.388 . S
N834 Co817 1.993 . S
N834 N833 1.388 . S
N834 C835 1.346 . S
C835 N834 1.346 . S
C835 C836 1.396 . S
C835 C845 1.510 . S
C836 C832 1.401 . S
C836 C835 1.396 . S
C837 C832 1.499 . S
C837 H838 0.959 . S
C837 H839 0.960 . S
C837 H840 0.961 . S
H838 C837 0.959 . S
H839 C837 0.960 . S
H840 C837 0.961 . S
O841 Co816 1.967 . S
O841 C849 1.258 . S
O842 Co817 1.941 . S
O842 C849 1.266 . S
H843 C845 0.959 . S
H844 C845 0.961 . S
C845 C835 1.510 . S
C845 H843 0.959 . S
C845 H844 0.961 . S
C845 H846 0.960 . S
H846 C845 0.960 . S
H847 N827 0.862 . S
O848 Co816 1.920 . S
O848 C821 1.289 . S
C849 O841 1.258 . S
C849 O842 1.266 . S
Co850 O853 1.970 . S
Co850 N867 1.989 . S
Co850 O875 1.967 . S
Co850 O882 1.920 . S
Co851 O854 1.966 . S
Co851 N860 2.022 . S
Co851 N868 1.993 . S
Co851 O876 1.941 . S
C852 O853 1.258 . S
C852 O854 1.263 . S
O853 Co850 1.970 . S
O853 C852 1.258 . S
O854 Co851 1.966 . S
O854 C852 1.263 . S
C855 O856 1.235 . S
C855 O882 1.289 . S
O856 C855 1.235 . S
C857 C859 1.400 . S
C857 N860 1.351 . S
C857 C862 1.501 . S
C858 C859 1.387 . S
C858 N861 1.341 . S
C859 C857 1.400 . S
C859 C858 1.387 . S
N860 Co851 2.022 . S
N860 C857 1.351 . S
N860 N861 1.365 . S
N861 C858 1.341 . S
N861 N860 1.365 . S
N861 H881 0.862 . S
C862 C857 1.501 . S
C862 H863 0.961 . S
C862 H864 0.961 . S
C862 H865 0.960 . S
H863 C862 0.961 . S
H864 C862 0.961 . S
H865 C862 0.960 . S
C866 N867 1.342 . S
C866 C870 1.401 . S
C866 C871 1.499 . S
N867 Co850 1.989 . S
N867 C866 1.342 . S
N867 N868 1.388 . S
N868 Co851 1.993 . S
N868 N867 1.388 . S
N868 C869 1.346 . S
C869 N868 1.346 . S
C869 C870 1.396 . S
C869 C879 1.510 . S
C870 C866 1.401 . S
C870 C869 1.396 . S
C871 C866 1.499 . S
C871 H872 0.959 . S
C871 H873 0.960 . S
C871 H874 0.961 . S
H872 C871 0.959 . S
H873 C871 0.960 . S
H874 C871 0.961 . S
O875 Co850 1.967 . S
O875 C883 1.258 . S
O876 Co851 1.941 . S
O876 C883 1.266 . S
H877 C879 0.959 . S
H878 C879 0.961 . S
C879 C869 1.510 . S
C879 H877 0.959 . S
C879 H878 0.961 . S
C879 H880 0.960 . S
H880 C879 0.960 . S
H881 N861 0.862 . S
O882 Co850 1.920 . S
O882 C855 1.289 . S
C883 O875 1.258 . S
C883 O876 1.266 . S
Co884 O887 1.970 . S
Co884 N901 1.989 1_556 S
Co884 O909 1.967 . S
Co884 O916 1.920 . S
Co885 O888 1.966 . S
Co885 N894 2.022 . S
Co885 N902 1.993 . S
Co885 O910 1.941 . S
C886 O887 1.258 . S
C886 O888 1.263 1_556 S
O887 Co884 1.970 . S
O887 C886 1.258 . S
O888 Co885 1.966 . S
O888 C886 1.263 1_554 S
C889 O890 1.235 . S
C889 O916 1.289 . S
O890 C889 1.235 . S
C891 C893 1.400 . S
C891 N894 1.351 . S
C891 C896 1.501 . S
C892 C893 1.387 . S
C892 N895 1.341 . S
C893 C891 1.400 . S
C893 C892 1.387 . S
N894 Co885 2.022 . S
N894 C891 1.351 . S
N894 N895 1.365 . S
N895 C892 1.341 . S
N895 N894 1.365 . S
N895 H915 0.862 . S
C896 C891 1.501 . S
C896 H897 0.961 . S
C896 H898 0.961 . S
C896 H899 0.960 . S
H897 C896 0.961 . S
H898 C896 0.961 . S
H899 C896 0.960 . S
C900 N901 1.342 . S
C900 C904 1.401 . S
C900 C905 1.499 1_455 S
N901 Co884 1.989 1_554 S
N901 C900 1.342 . S
N901 N902 1.388 . S
N902 Co885 1.993 . S
N902 N901 1.388 . S
N902 C903 1.346 . S
C903 N902 1.346 . S
C903 C904 1.396 . S
C903 C913 1.510 . S
C904 C900 1.401 . S
C904 C903 1.396 . S
C905 C900 1.499 1_655 S
C905 H906 0.959 1_655 S
C905 H907 0.960 . S
C905 H908 0.961 . S
H906 C905 0.959 1_455 S
H907 C905 0.960 . S
H908 C905 0.961 . S
O909 Co884 1.967 . S
O909 C917 1.258 1_556 S
O910 Co885 1.941 . S
O910 C917 1.266 . S
H911 C913 0.959 . S
H912 C913 0.961 . S
C913 C903 1.510 . S
C913 H911 0.959 . S
C913 H912 0.961 . S
C913 H914 0.960 . S
H914 C913 0.960 . S
H915 N895 0.862 . S
O916 Co884 1.920 . S
O916 C889 1.289 . S
C917 O909 1.258 1_554 S
C917 O910 1.266 . S
Co918 O921 1.970 . S
Co918 N935 1.989 . S
Co918 O943 1.967 . S
Co918 O950 1.920 . S
Co919 O922 1.966 . S
Co919 N928 2.022 1_556 S
Co919 N936 1.993 . S
Co919 O944 1.941 . S
C920 O921 1.258 . S
C920 O922 1.263 . S
O921 Co918 1.970 . S
O921 C920 1.258 . S
O922 Co919 1.966 . S
O922 C920 1.263 . S
C923 O924 1.235 . S
C923 O950 1.289 . S
O924 C923 1.235 . S
C925 C927 1.400 . S
C925 N928 1.351 . S
C925 C930 1.501 1_554 S
C926 C927 1.387 . S
C926 N929 1.341 . S
C927 C925 1.400 . S
C927 C926 1.387 . S
N928 Co919 2.022 1_554 S
N928 C925 1.351 . S
N928 N929 1.365 . S
N929 C926 1.341 . S
N929 N928 1.365 . S
N929 H949 0.862 . S
C930 C925 1.501 1_556 S
C930 H931 0.961 . S
C930 H932 0.959 1_556 S
C930 H933 0.960 . S
H931 C930 0.961 . S
H932 C930 0.959 1_554 S
H933 C930 0.960 . S
C934 N935 1.342 . S
C934 C938 1.401 1_556 S
C934 C939 1.499 . S
N935 Co918 1.989 . S
N935 C934 1.342 . S
N935 N936 1.388 . S
N936 Co919 1.993 . S
N936 N935 1.388 . S
N936 C937 1.346 1_556 S
C937 N936 1.346 1_554 S
C937 C938 1.396 . S
C937 C947 1.510 . S
C938 C934 1.401 1_554 S
C938 C937 1.396 . S
C939 C934 1.499 . S
C939 H940 0.959 . S
C939 H941 0.960 . S
C939 H942 0.961 . S
H940 C939 0.959 . S
H941 C939 0.960 . S
H942 C939 0.961 . S
O943 Co918 1.967 . S
O943 C951 1.258 . S
O944 Co919 1.941 . S
O944 C951 1.266 . S
H945 C947 0.959 . S
H946 C947 0.961 . S
C947 C937 1.510 . S
C947 H945 0.959 . S
C947 H946 0.961 . S
C947 H948 0.960 . S
H948 C947 0.960 . S
H949 N929 0.862 . S
O950 Co918 1.920 . S
O950 C923 1.289 . S
C951 O943 1.258 . S
C951 O944 1.266 . S
Co952 O955 1.970 . S
Co952 N969 1.989 . S
Co952 O977 1.967 . S
Co952 O984 1.920 . S
Co953 O956 1.966 . S
Co953 N962 2.022 1_554 S
Co953 N970 1.993 . S
Co953 O978 1.941 . S
C954 O955 1.258 . S
C954 O956 1.263 . S
O955 Co952 1.970 . S
O955 C954 1.258 . S
O956 Co953 1.966 . S
O956 C954 1.263 . S
C957 O958 1.235 . S
C957 O984 1.289 . S
O958 C957 1.235 . S
C959 C961 1.400 . S
C959 N962 1.351 . S
C959 C964 1.501 1_556 S
C960 C961 1.387 . S
C960 N963 1.341 . S
C961 C959 1.400 . S
C961 C960 1.387 . S
N962 Co953 2.022 1_556 S
N962 C959 1.351 . S
N962 N963 1.365 . S
N963 C960 1.341 . S
N963 N962 1.365 . S
N963 H983 0.862 . S
C964 C959 1.501 1_554 S
C964 H965 0.961 . S
C964 H966 0.961 . S
C964 H967 0.960 . S
H965 C964 0.961 . S
H966 C964 0.961 . S
H967 C964 0.960 . S
C968 N969 1.342 . S
C968 C972 1.401 . S
C968 C973 1.499 . S
N969 Co952 1.989 . S
N969 C968 1.342 . S
N969 N970 1.388 . S
N970 Co953 1.993 . S
N970 N969 1.388 . S
N970 C971 1.346 1_554 S
C971 N970 1.346 1_556 S
C971 C972 1.396 1_556 S
C971 C981 1.510 . S
C972 C968 1.401 . S
C972 C971 1.396 1_554 S
C973 C968 1.499 . S
C973 H974 0.959 . S
C973 H975 0.960 . S
C973 H976 0.961 . S
H974 C973 0.959 . S
H975 C973 0.960 . S
H976 C973 0.961 . S
O977 Co952 1.967 . S
O977 C985 1.258 . S
O978 Co953 1.941 . S
O978 C985 1.266 . S
H979 C981 0.959 . S
H980 C981 0.961 . S
C981 C971 1.510 . S
C981 H979 0.959 . S
C981 H980 0.961 . S
C981 H982 0.960 . S
H982 C981 0.960 . S
H983 N963 0.862 . S
O984 Co952 1.920 . S
O984 C957 1.289 . S
C985 O977 1.258 . S
C985 O978 1.266 . S
Co986 O989 1.970 . S
Co986 N1003 1.989 1_554 S
Co986 O1011 1.967 . S
Co986 O1018 1.920 . S
Co987 O990 1.966 . S
Co987 N996 2.022 . S
Co987 N1004 1.993 . S
Co987 O1012 1.941 . S
C988 O989 1.258 . S
C988 O990 1.263 1_554 S
O989 Co986 1.970 . S
O989 C988 1.258 . S
O990 Co987 1.966 . S
O990 C988 1.263 1_556 S
C991 O992 1.235 . S
C991 O1018 1.289 . S
O992 C991 1.235 . S
C993 C995 1.400 . S
C993 N996 1.351 . S
C993 C998 1.501 . S
C994 C995 1.387 . S
C994 N997 1.341 . S
C995 C993 1.400 . S
C995 C994 1.387 . S
N996 Co987 2.022 . S
N996 C993 1.351 . S
N996 N997 1.365 . S
N997 C994 1.341 . S
N997 N996 1.365 . S
N997 H1017 0.862 . S
C998 C993 1.501 . S
C998 H999 0.961 . S
C998 H1000 0.961 . S
C998 H1001 0.960 . S
H999 C998 0.961 . S
H1000 C998 0.961 . S
H1001 C998 0.960 . S
C1002 N1003 1.342 . S
C1002 C1006 1.401 . S
C1002 C1007 1.499 . S
N1003 Co986 1.989 1_556 S
N1003 C1002 1.342 . S
N1003 N1004 1.388 . S
N1004 Co987 1.993 . S
N1004 N1003 1.388 . S
N1004 C1005 1.346 . S
C1005 N1004 1.346 . S
C1005 C1006 1.396 . S
C1005 C1015 1.510 . S
C1006 C1002 1.401 . S
C1006 C1005 1.396 . S
C1007 C1002 1.499 . S
C1007 H1008 0.959 . S
C1007 H1009 0.960 . S
C1007 H1010 0.961 . S
H1008 C1007 0.959 . S
H1009 C1007 0.960 . S
H1010 C1007 0.961 . S
O1011 Co986 1.967 . S
O1011 C1019 1.258 1_554 S
O1012 Co987 1.941 . S
O1012 C1019 1.266 . S
H1013 C1015 0.959 . S
H1014 C1015 0.961 . S
C1015 C1005 1.510 . S
C1015 H1013 0.959 . S
C1015 H1014 0.961 . S
C1015 H1016 0.960 . S
H1016 C1015 0.960 . S
H1017 N997 0.862 . S
O1018 Co986 1.920 . S
O1018 C991 1.289 . S
C1019 O1011 1.258 1_556 S
C1019 O1012 1.266 . S
Co1020 O1023 1.970 . S
Co1020 N1037 1.989 . S
Co1020 O1045 1.967 . S
Co1020 O1052 1.920 . S
Co1021 O1024 1.966 . S
Co1021 N1030 2.022 . S
Co1021 N1038 1.993 . S
Co1021 O1046 1.941 . S
C1022 O1023 1.258 . S
C1022 O1024 1.263 . S
O1023 Co1020 1.970 . S
O1023 C1022 1.258 . S
O1024 Co1021 1.966 . S
O1024 C1022 1.263 . S
C1025 O1026 1.235 . S
C1025 O1052 1.289 . S
O1026 C1025 1.235 . S
C1027 C1029 1.400 . S
C1027 N1030 1.351 . S
C1027 C1032 1.501 . S
C1028 C1029 1.387 . S
C1028 N1031 1.341 . S
C1029 C1027 1.400 . S
C1029 C1028 1.387 . S
N1030 Co1021 2.022 . S
N1030 C1027 1.351 . S
N1030 N1031 1.365 . S
N1031 C1028 1.341 . S
N1031 N1030 1.365 . S
N1031 H1051 0.862 . S
C1032 C1027 1.501 . S
C1032 H1033 0.961 . S
C1032 H1034 0.961 . S
C1032 H1035 0.960 . S
H1033 C1032 0.961 . S
H1034 C1032 0.961 . S
H1035 C1032 0.960 . S
C1036 N1037 1.342 . S
C1036 C1040 1.401 . S
C1036 C1041 1.499 1_455 S
N1037 Co1020 1.989 . S
N1037 C1036 1.342 . S
N1037 N1038 1.388 . S
N1038 Co1021 1.993 . S
N1038 N1037 1.388 . S
N1038 C1039 1.346 . S
C1039 N1038 1.346 . S
C1039 C1040 1.396 . S
C1039 C1049 1.510 . S
C1040 C1036 1.401 . S
C1040 C1039 1.396 . S
C1041 C1036 1.499 1_655 S
C1041 H1042 0.959 1_655 S
C1041 H1043 0.960 . S
C1041 H1044 0.961 . S
H1042 C1041 0.959 1_455 S
H1043 C1041 0.960 . S
H1044 C1041 0.961 . S
O1045 Co1020 1.967 . S
O1045 C1053 1.258 . S
O1046 Co1021 1.941 . S
O1046 C1053 1.266 . S
H1047 C1049 0.959 . S
H1048 C1049 0.961 . S
C1049 C1039 1.510 . S
C1049 H1047 0.959 . S
C1049 H1048 0.961 . S
C1049 H1050 0.960 . S
H1050 C1049 0.960 . S
H1051 N1031 0.862 . S
O1052 Co1020 1.920 . S
O1052 C1025 1.289 . S
C1053 O1045 1.258 . S
C1053 O1046 1.266 . S
Co1054 O1057 1.970 . S
Co1054 N1071 1.989 . S
Co1054 O1079 1.967 . S
Co1054 O1086 1.920 . S
Co1055 O1058 1.966 . S
Co1055 N1064 2.022 . S
Co1055 N1072 1.993 . S
Co1055 O1080 1.941 . S
C1056 O1057 1.258 . S
C1056 O1058 1.263 . S
O1057 Co1054 1.970 . S
O1057 C1056 1.258 . S
O1058 Co1055 1.966 . S
O1058 C1056 1.263 . S
C1059 O1060 1.235 . S
C1059 O1086 1.289 . S
O1060 C1059 1.235 . S
C1061 C1063 1.400 . S
C1061 N1064 1.351 . S
C1061 C1066 1.501 . S
C1062 C1063 1.387 . S
C1062 N1065 1.341 . S
C1063 C1061 1.400 . S
C1063 C1062 1.387 . S
N1064 Co1055 2.022 . S
N1064 C1061 1.351 . S
N1064 N1065 1.365 . S
N1065 C1062 1.341 . S
N1065 N1064 1.365 . S
N1065 H1085 0.862 . S
C1066 C1061 1.501 . S
C1066 H1067 0.961 . S
C1066 H1068 0.961 . S
C1066 H1069 0.960 . S
H1067 C1066 0.961 . S
H1068 C1066 0.961 . S
H1069 C1066 0.960 . S
C1070 N1071 1.342 . S
C1070 C1074 1.401 . S
C1070 C1075 1.499 . S
N1071 Co1054 1.989 . S
N1071 C1070 1.342 . S
N1071 N1072 1.388 . S
N1072 Co1055 1.993 . S
N1072 N1071 1.388 . S
N1072 C1073 1.346 . S
C1073 N1072 1.346 . S
C1073 C1074 1.396 . S
C1073 C1083 1.510 . S
C1074 C1070 1.401 . S
C1074 C1073 1.396 . S
C1075 C1070 1.499 . S
C1075 H1076 0.959 . S
C1075 H1077 0.960 . S
C1075 H1078 0.961 . S
H1076 C1075 0.959 . S
H1077 C1075 0.960 . S
H1078 C1075 0.961 . S
O1079 Co1054 1.967 . S
O1079 C1087 1.258 . S
O1080 Co1055 1.941 . S
O1080 C1087 1.266 . S
H1081 C1083 0.959 . S
H1082 C1083 0.961 . S
C1083 C1073 1.510 . S
C1083 H1081 0.959 . S
C1083 H1082 0.961 . S
C1083 H1084 0.960 . S
H1084 C1083 0.960 . S
H1085 N1065 0.862 . S
O1086 Co1054 1.920 . S
O1086 C1059 1.289 . S
C1087 O1079 1.258 . S
C1087 O1080 1.266 . S
C156 C20 3.429 1_565 S
C54 C190 3.429 . S
C88 C224 3.429 1_565 S
C122 C258 3.429 . S
C417 C281 1.545 1_545 S
C315 C451 1.543 . S
C349 C485 1.545 1_545 S
C519 C383 1.543 . S
C564 C700 3.429 . S
C598 C734 3.429 . S
C768 C632 3.429 . S
C666 C802 3.429 . S
C825 C961 1.545 . S
C859 C995 1.543 . S
C1029 C893 1.545 . S
C927 C1063 1.543 . S
C413 C9 1.702 1_655 S
C43 C991 1.703 . S
C481 C77 1.702 . S
C111 C1059 1.703 . S
C145 C277 1.702 1_455 S
C855 C179 1.704 . S
C345 C213 1.702 . S
C247 C923 1.704 . S
C292 C138 3.689 1_655 S
C326 C716 3.689 . S
C360 C206 3.689 . S
C394 C784 3.689 . S
C2 C428 3.689 1_455 S
C580 C462 3.689 . S
C496 C70 3.689 1_554 S
C648 C530 3.689 . S
C553 C957 1.702 . S
C587 C447 1.703 . S
C621 C1025 1.702 1_655 S
C655 C515 1.703 . S
C689 C821 1.702 . S
C311 C723 1.704 . S
C889 C757 1.702 1_455 S
C791 C379 1.703 . S
C682 C836 3.689 . S
C172 C870 3.689 . S
C750 C904 3.689 1_655 S
C240 C938 3.689 . S
C972 C546 3.689 1_554 S
C36 C1006 3.689 . S
C1040 C614 3.689 1_455 S
C104 C1074 3.689 . S
C5 C141 0.923 1_545 S
C175 C39 0.921 . S
C209 C73 0.922 1_545 S
C107 C243 0.921 . S
C274 C410 3.978 1_565 S
C308 C444 3.977 . S
C478 C342 3.978 1_565 S
C376 C512 3.977 . S
C685 C549 0.923 . S
C583 C719 0.921 . S
C753 C617 0.922 . S
C651 C787 0.921 . S
C954 C818 3.978 . S
C852 C988 3.977 . S
C1022 C886 3.978 . S
C920 C1056 3.977 . S
C271 C33 0.951 . S
C67 C169 0.950 . S
C101 C203 0.951 . S
C237 C135 0.950 1_554 S
C305 C543 0.990 1_554 S
C441 C339 0.994 . S
C475 C373 0.990 . S
C407 C509 0.994 . S
C815 C577 0.949 . S
C611 C713 0.952 1_556 S
C747 C645 0.950 . S
C679 C781 0.951 . S
C849 C1087 0.992 . S
C883 C985 0.992 . S
C917 C1019 0.992 1_554 S
C1053 C951 0.992 . S
