# Generated by pormake.
# Topology snp, (6)-cn, num edge types: 1
# Building blocks:
#     Node 0, Type 0, BuildingBlock: GEDQOX_clean_sbu_0, # of connection points: 6
#     Node 1, Type 0, BuildingBlock: GEDQOX_clean_sbu_0, # of connection points: 6
#     Node 2, Type 0, BuildingBlock: GEDQOX_clean_sbu_0, # of connection points: 6
#     Node 3, Type 0, BuildingBlock: GEDQOX_clean_sbu_0, # of connection points: 6
#     Edge 4, Type (0, 0), BuildingBlock: TEMPAE_clean_linker_10, # of connection points: 2
#     Edge 5, Type (0, 0), BuildingBlock: TEMPAE_clean_linker_10, # of connection points: 2
#     Edge 6, Type (0, 0), BuildingBlock: TEMPAE_clean_linker_10, # of connection points: 2
#     Edge 7, Type (0, 0), BuildingBlock: TEMPAE_clean_linker_10, # of connection points: 2
#     Edge 8, Type (0, 0), BuildingBlock: TEMPAE_clean_linker_10, # of connection points: 2
#     Edge 9, Type (0, 0), BuildingBlock: TEMPAE_clean_linker_10, # of connection points: 2
#     Edge 10, Type (0, 0), BuildingBlock: TEMPAE_clean_linker_10, # of connection points: 2
#     Edge 11, Type (0, 0), BuildingBlock: TEMPAE_clean_linker_10, # of connection points: 2
#     Edge 12, Type (0, 0), BuildingBlock: TEMPAE_clean_linker_10, # of connection points: 2
#     Edge 13, Type (0, 0), BuildingBlock: TEMPAE_clean_linker_10, # of connection points: 2
#     Edge 14, Type (0, 0), BuildingBlock: TEMPAE_clean_linker_10, # of connection points: 2
#     Edge 15, Type (0, 0), BuildingBlock: TEMPAE_clean_linker_10, # of connection points: 2
# Relax obj value: 0.198
# Max RMSD: 0.223
# Mean RMSD: 0.210
data_MOF--net-snp--node1-GEDQOX_clean_sbu_0--edge1-TEMPAE_clean_linker_10
_symmetry_space_group_name_H-M    P1
_symmetry_Int_Tables_number       1
_symmetry_cell_setting            triclinic
loop_
_symmetry_equiv_pos_as_xyz
'x, y, z'
_cell_length_a     25.959727
_cell_length_b     25.310688
_cell_length_c     36.461677
_cell_angle_alpha  85.573238
_cell_angle_beta   104.08421
_cell_angle_gamma 97.069378
loop_
_atom_site_label
_atom_site_type_symbol
_atom_site_fract_x
_atom_site_fract_y
_atom_site_fract_z
_atom_type_partial_charge
Nd0 Nd 0.26209 -5e-05 0.09604 0.0
Nd1 Nd 0.29972 0.10332 0.14049 0.0
C2 C 0.24827 0.91173 0.05913 0.0
C3 C 0.22757 0.90184 1.01855 0.0
C4 C 0.21003 0.94372 0.99273 0.0
C5 C 0.18949 0.93461 0.95428 0.0
C6 C 0.18628 0.88341 0.94079 0.0
C7 C 0.20426 0.84161 0.96678 0.0
C8 C 0.22461 0.85076 1.00533 0.0
C9 C 0.18908 0.07224 0.08398 0.0
C10 C 0.28952 0.11229 0.05057 0.0
C11 C 0.31462 0.17987 0.18887 0.0
C12 C 0.29598 0.18715 0.22328 0.0
C13 C 0.25311 0.15367 0.23253 0.0
C14 C 0.23825 0.15884 0.26652 0.0
C15 C 0.26573 0.1979 0.29189 0.0
C16 C 0.30816 0.23174 0.28211 0.0
C17 C 0.32315 0.22629 0.24828 0.0
C18 C 0.37824 0.04897 0.1281 0.0
C19 C 0.24878 -0.0042 0.18325 0.0
O20 O 0.2944 0.94118 0.06802 0.0
O21 O 0.21329 0.92486 0.07643 0.0
O22 O 0.19251 0.04131 0.05815 0.0
O23 O 0.22022 0.06061 0.11499 0.0
O24 O 0.29431 0.06046 0.05408 0.0
O25 O 0.28495 0.1387 0.07941 0.0
O26 O 0.27887 0.17954 0.15654 0.0
O27 O 0.34706 0.14322 0.19199 0.0
O28 O 0.37997 0.10058 0.12502 0.0
O29 O 0.33708 0.02797 0.13819 0.0
O30 O 0.26792 0.04655 0.18384 0.0
O31 O 0.24381 0.9673 0.1533 0.0
H32 H 0.2122 0.98354 1.00234 0.0
H33 H 0.17673 0.96783 0.93503 0.0
H34 H 0.20189 0.80164 0.95738 0.0
H35 H 0.23783 0.81793 1.02481 0.0
H36 H 0.23135 0.12322 0.21365 0.0
H37 H 0.20511 0.13236 0.27284 0.0
H38 H 0.3308 0.26169 0.3011 0.0
H39 H 0.3566 0.25225 0.2419 0.0
Nd40 Nd 0.1046 0.25285 0.69603 0.0
Nd41 Nd 0.00361 0.25685 0.72897 0.0
C42 C 0.18861 0.26303 0.66611 0.0
C43 C 0.1951 0.25679 0.62732 0.0
C44 C 0.16223 0.28024 0.59523 0.0
C45 C 0.16748 0.27217 0.55873 0.0
C46 C 0.20545 0.24009 0.55325 0.0
C47 C 0.23801 0.21645 0.58553 0.0
C48 C 0.23295 0.22482 0.62202 0.0
C49 C 0.04381 0.15855 0.70195 0.0
C50 C 0.98976 0.2538 0.63534 0.0
C51 C 0.91855 0.24044 0.75866 0.0
C52 C 0.90814 0.22874 0.79708 0.0
C53 C 0.94383 0.20268 0.82606 0.0
C54 C 0.93328 0.19177 0.8621 0.0
C55 C 0.88674 0.20671 0.87026 0.0
C56 C 0.85135 0.23319 0.84108 0.0
C57 C 0.86197 0.24405 0.80506 0.0
C58 C 0.06338 0.35266 0.72094 0.0
C59 C 0.11897 0.24474 0.78813 0.0
O60 O 0.16468 0.30367 0.67113 0.0
O61 O 0.17377 0.2193 0.68419 0.0
O62 O 0.0675 0.17122 0.67461 0.0
O63 O 0.05464 0.19361 0.72601 0.0
O64 O 0.04214 0.26393 0.64088 0.0
O65 O 0.96569 0.24869 0.66403 0.0
O66 O 0.93672 0.20294 0.74405 0.0
O67 O 0.94186 0.28786 0.75211 0.0
O68 O 0.04015 0.34036 0.74867 0.0
O69 O 0.0521 0.31613 0.69784 0.0
O70 O 0.06645 0.23449 0.7819 0.0
O71 O 0.14291 0.26009 0.76019 0.0
H72 H 0.13225 0.30472 0.59827 0.0
H73 H 0.14208 0.29165 0.53481 0.0
H74 H 0.267 0.19069 0.58267 0.0
H75 H 0.25832 0.20573 0.64619 0.0
H76 H 0.97979 0.19041 0.82078 0.0
H77 H 0.96127 0.17068 0.88339 0.0
H78 H 0.81554 0.2461 0.84613 0.0
H79 H 0.83393 0.26449 0.78333 0.0
Nd80 Nd 0.84541 0.92714 0.1658 0.0
Nd81 Nd 0.81561 0.02047 0.21109 0.0
C82 C 0.88795 0.87098 0.12403 0.0
C83 C 0.88699 0.86064 0.08392 0.0
C84 C 0.93038 0.88058 0.0682 0.0
C85 C 0.93208 0.8676 0.0317 0.0
C86 C 0.89067 0.83362 1.00984 0.0
C87 C 0.84705 0.81408 1.0256 0.0
C88 C 0.84522 0.82736 0.06196 0.0
C89 C 0.73877 0.93434 0.1593 0.0
C90 C 0.82827 0.04591 0.12244 0.0
C91 C 0.77471 0.07639 0.25371 0.0
C92 C 0.79135 0.09226 0.29369 0.0
C93 C 0.76139 0.12532 0.30742 0.0
C94 C 0.77783 0.14197 0.3448 0.0
C95 C 0.82484 0.12607 0.36952 0.0
C96 C 0.8544 0.09232 0.35559 0.0
C97 C 0.83787 0.07567 0.31821 0.0
C98 C 0.92182 0.02056 0.21689 0.0
C99 C 0.83776 0.89991 0.25261 0.0
O100 O 0.91008 0.91732 0.13707 0.0
O101 O 0.84604 0.85292 0.13716 0.0
O102 O 0.75721 0.88979 0.15638 0.0
O103 O 0.77481 0.9725 0.16128 0.0
O104 O 0.84918 0.0003 0.12581 0.0
O105 O 0.80716 0.06137 0.14948 0.0
O106 O 0.76011 0.02556 0.24831 0.0
O107 O 0.80481 0.09804 0.23126 0.0
O108 O 0.90138 0.05878 0.22815 0.0
O109 O 0.88796 0.97983 0.21337 0.0
O110 O 0.81439 0.94421 0.25059 0.0
O111 O 0.85918 0.88707 0.22545 0.0
H112 H 0.96366 0.90555 0.08449 0.0
H113 H 0.9661 0.88422 1.02071 0.0
H114 H 0.81471 0.78712 1.01029 0.0
H115 H 0.81144 0.8105 0.07314 0.0
H116 H 0.72529 0.13856 0.28914 0.0
H117 H 0.75338 0.16714 0.35437 0.0
H118 H 0.8911 0.07961 0.37329 0.0
H119 H 0.86181 0.05026 0.30829 0.0
Nd120 Nd 0.03775 0.81438 0.57613 0.0
Nd121 Nd 0.95402 0.73103 0.60289 0.0
C122 C 0.09047 0.88372 0.53605 0.0
C123 C 0.10018 0.88978 0.49721 0.0
C124 C 0.05848 0.89351 0.46445 0.0
C125 C 0.06939 0.89942 0.42831 0.0
C126 C 0.12209 0.90094 0.424 0.0
C127 C 0.16352 0.89726 0.45688 0.0
C128 C 0.15272 0.89196 0.49288 0.0
C129 C 0.07038 0.71624 0.60211 0.0
C130 C 0.94555 0.74534 0.51241 0.0
C131 C 0.9045 0.65918 0.64123 0.0
C132 C 0.89458 0.66912 0.67881 0.0
C133 C 0.92076 0.64223 0.71208 0.0
C134 C 0.92035 0.65872 0.74802 0.0
C135 C 0.89421 0.703 0.75173 0.0
C136 C 0.86644 0.72858 0.71842 0.0
C137 C 0.86642 0.71183 0.68261 0.0
C138 C 0.93152 0.83273 0.60332 0.0
C139 C 0.04172 0.80661 0.66357 0.0
O140 O 0.04276 0.8893 0.54018 0.0
O141 O 0.1121 0.84522 0.55809 0.0
O142 O 0.10063 0.76058 0.61026 0.0
O143 O 0.0259 0.72497 0.58109 0.0
O144 O 0.98989 0.77819 0.52109 0.0
O145 O 0.92163 0.72101 0.53845 0.0
O146 O 0.95488 0.65805 0.64105 0.0
O147 O 0.87846 0.68574 0.6114 0.0
O148 O 0.92126 0.79503 0.62704 0.0
O149 O 0.95135 0.8163 0.57849 0.0
O150 O 0.01808 0.7579 0.6562 0.0
O151 O 0.04779 0.842 0.63593 0.0
H152 H 0.01745 0.8918 0.46667 0.0
H153 H 0.03647 0.90215 0.40372 0.0
H154 H 0.20467 0.89934 0.45487 0.0
H155 H 0.18571 0.88959 0.51752 0.0
H156 H 0.94345 0.60975 0.71032 0.0
H157 H 0.94247 0.63811 0.77291 0.0
H158 H 0.84501 0.76214 0.71996 0.0
H159 H 0.84587 0.73391 0.65787 0.0
C160 C 0.94623 0.08341 0.16762 0.0
C161 C 0.95444 0.03581 0.18967 0.0
C162 C 0.9753 0.09986 0.14073 0.0
C163 C 0.01526 0.06927 0.13714 0.0
C164 C 0.02408 0.02109 0.15937 0.0
C165 C 0.99253 0.0043 0.18513 0.0
C166 C 0.96277 0.14949 0.11599 0.0
C167 C 0.06802 0.98845 0.157 0.0
C168 C 0.09173 0.07252 0.06294 0.0
C169 C 0.14073 0.09588 0.0837 0.0
C170 C 0.04652 0.06969 0.07769 0.0
C171 C 0.05209 0.09038 0.11352 0.0
C172 C 0.0987 0.12324 0.13019 0.0
C173 C 0.14244 0.12686 0.11412 0.0
C174 C 0.99587 0.0377 0.05787 0.0
C175 C 0.1059 0.14682 0.1682 0.0
H176 H 0.91605 0.1076 0.17079 0.0
H177 H 0.99859 0.96771 0.20238 0.0
H178 H 0.99957 0.17587 0.1142 0.0
H179 H 0.94293 0.13733 0.08699 0.0
H180 H 0.9357 0.17271 0.12603 0.0
H181 H 0.06218 0.97595 0.12765 0.0
H182 H 0.10729 0.01295 0.16442 0.0
H183 H 0.06939 0.95222 0.17631 0.0
H184 H 0.09021 0.05 0.0385 0.0
H185 H 0.18034 0.1464 0.12912 0.0
H186 H 0.96016 0.05053 0.06482 0.0
H187 H 0.99803 -0.00494 0.06695 0.0
H188 H 0.9911 0.04122 1.0267 0.0
H189 H 0.07019 0.16576 0.16959 0.0
H190 H 0.14137 0.17702 0.1744 0.0
H191 H 0.11144 0.11452 0.19077 0.0
C192 C 0.88414 0.89265 0.62936 0.0
C193 C 0.91854 0.88637 0.60608 0.0
C194 C 0.88603 0.94105 0.64556 0.0
C195 C 0.92241 0.98363 0.63737 0.0
C196 C 0.94967 0.9801 0.60843 0.0
C197 C 0.94781 0.93067 0.59317 0.0
C198 C 0.85532 0.94359 0.67551 0.0
C199 C 0.98667 0.02619 0.59756 0.0
C200 C 0.95225 0.11869 0.67664 0.0
C201 C 0.00291 0.11357 0.70014 0.0
C202 C 0.92177 0.07496 0.65821 0.0
C203 C 0.94249 0.02534 0.6647 0.0
C204 C 0.98927 0.01837 0.69347 0.0
C205 C 0.01964 0.06321 0.71057 0.0
C206 C 0.87163 0.08378 0.62826 0.0
C207 C 0.01097 0.96498 0.70259 0.0
H208 H 0.85992 0.85829 0.63825 0.0
H209 H 0.97337 0.92571 0.5745 0.0
H210 H 0.88026 0.93142 0.70347 0.0
H211 H 0.84514 0.98444 0.67732 0.0
H212 H 0.81796 0.91582 0.66993 0.0
H213 H 0.99594 0.02062 0.57002 0.0
H214 H 0.96889 0.06428 0.59571 0.0
H215 H 0.02473 0.02946 0.6196 0.0
H216 H 0.93859 0.15733 0.66932 0.0
H217 H 0.05892 0.05957 0.72892 0.0
H218 H 0.85266 0.11791 0.63463 0.0
H219 H 0.84212 0.04784 0.6253 0.0
H220 H 0.88224 0.09312 0.60061 0.0
H221 H 0.04322 0.96524 0.72893 0.0
H222 H 0.02749 0.95482 0.67899 0.0
H223 H 0.97878 0.93316 0.70592 0.0
C224 C 0.64133 0.90497 0.13655 0.0
C225 C 0.68238 0.94174 0.15507 0.0
C226 C 0.5877 0.91522 0.12959 0.0
C227 C 0.57538 0.96215 0.1429 0.0
C228 C 0.61684 -0.00193 0.16304 0.0
C229 C 0.66985 0.9881 0.16788 0.0
C230 C 0.54464 0.87726 0.10664 0.0
C231 C 0.60547 0.04773 0.17886 0.0
C232 C 0.45485 0.03555 0.10186 0.0
C233 C 0.42386 0.02028 0.12808 0.0
C234 C 0.50211 0.01273 0.10421 0.0
C235 C 0.51969 0.97585 0.1346 0.0
C236 C 0.48714 0.95866 0.16019 0.0
C237 C 0.43884 0.98044 0.15612 0.0
C238 C 0.53472 0.03046 0.07549 0.0
C239 C 0.50534 0.92093 0.19372 0.0
H240 H 0.65125 0.86948 0.12613 0.0
H241 H 0.70165 0.01698 0.18151 0.0
H242 H 0.51231 0.86527 0.12162 0.0
H243 H 0.52642 0.89763 0.07934 0.0
H244 H 0.56041 0.84084 0.1006 0.0
H245 H 0.64175 0.06793 0.19752 0.0
H246 H 0.58982 0.07628 0.15533 0.0
H247 H 0.5745 0.03773 0.19532 0.0
H248 H 0.44255 0.066 0.07993 0.0
H249 H 0.41462 0.96897 0.17643 0.0
H250 H 0.54977 -0.00422 0.06623 0.0
H251 H 0.5699 0.05805 0.08852 0.0
H252 H 0.51122 0.05143 0.0502 0.0
H253 H 0.52053 0.88603 0.18495 0.0
H254 H 0.47277 0.90652 0.20813 0.0
H255 H 0.53876 0.94177 0.21446 0.0
C256 C 0.10626 0.41773 0.67983 0.0
C257 C 0.08248 0.40767 0.71061 0.0
C258 C 0.11638 0.46983 0.6654 0.0
C259 C 0.10029 0.51249 0.68126 0.0
C260 C 0.0795 0.50292 0.71395 0.0
C261 C 0.07156 0.45048 0.72862 0.0
C262 C 0.14009 0.47856 0.63121 0.0
C263 C 0.06076 0.54724 0.73117 0.0
C264 C 0.12838 0.65703 0.6482 0.0
C265 C 0.08132 0.6637 0.62054 0.0
C266 C 0.13625 0.60739 0.66761 0.0
C267 C 0.09544 0.56441 0.65966 0.0
C268 C 0.04841 0.57096 0.63117 0.0
C269 C 0.04251 0.62021 0.61146 0.0
C270 C 0.18759 0.60116 0.69693 0.0
C271 C 0.00341 0.52646 0.62222 0.0
H272 H 0.11456 0.38476 0.66578 0.0
H273 H 0.05323 0.44278 0.7525 0.0
H274 H 0.10793 0.48476 0.60547 0.0
H275 H 0.16942 0.51468 0.63378 0.0
H276 H 0.16015 0.44381 0.62721 0.0
H277 H 0.05101 0.53436 0.75875 0.0
H278 H 0.09158 0.58207 0.73542 0.0
H279 H 0.02443 0.56066 0.71148 0.0
H280 H 0.15863 0.69064 0.65497 0.0
H281 H 0.00639 0.62515 0.5897 0.0
H282 H 0.20517 0.56537 0.69186 0.0
H283 H 0.17934 0.59522 0.72549 0.0
H284 H 0.21748 0.63656 0.69685 0.0
H285 H 0.01782 0.49173 0.61256 0.0
H286 H 0.96894 0.53877 0.59992 0.0
H287 H 0.98917 0.51306 0.6481 0.0
C288 C 0.16666 0.22698 0.48335 0.0
C289 C 0.2114 0.23164 0.51421 0.0
C290 C 0.17204 0.22014 0.4465 0.0
C291 C 0.22334 0.21735 0.44012 0.0
C292 C 0.2685 0.22115 0.47116 0.0
C293 C 0.26206 0.22853 0.5076 0.0
C294 C 0.12279 0.21636 0.4143 0.0
C295 C 0.32392 0.21806 0.46582 0.0
C296 C 0.23928 0.15718 0.35099 0.0
C297 C 0.25133 0.20276 0.32881 0.0
C298 C 0.22887 0.16118 0.38679 0.0
C299 C 0.23032 0.21211 0.40094 0.0
C300 C 0.24092 0.25829 0.37823 0.0
C301 C 0.25137 0.25308 0.34262 0.0
C302 C 0.21795 0.1108 0.40992 0.0
C303 C 0.24214 0.31337 0.39184 0.0
H304 H 0.12717 0.2283 0.48798 0.0
H305 H 0.29711 0.23287 0.53086 0.0
H306 H 0.12636 0.24923 0.39279 0.0
H307 H 0.11903 0.17838 0.40011 0.0
H308 H 0.08569 0.21851 0.42394 0.0
H309 H 0.35466 0.21942 0.49301 0.0
H310 H 0.32505 0.18066 0.45218 0.0
H311 H 0.33459 0.25171 0.44674 0.0
H312 H 0.23958 0.11821 0.34085 0.0
H313 H 0.25966 0.28861 0.32553 0.0
H314 H 0.18059 0.11154 0.41943 0.0
H315 H 0.25087 0.10813 0.43568 0.0
H316 H 0.2143 0.07442 0.39385 0.0
H317 H 0.20415 0.31748 0.39965 0.0
H318 H 0.24836 0.34521 0.37012 0.0
H319 H 0.27482 0.31964 0.41763 0.0
C320 C 0.82237 0.17779 0.91236 0.0
C321 C 0.87483 0.1938 0.90867 0.0
C322 C 0.81128 0.16193 0.9479 0.0
C323 C 0.8535 0.16154 0.98098 0.0
C324 C 0.90615 0.18009 0.97767 0.0
C325 C 0.91608 0.19593 0.94183 0.0
C326 C 0.75449 0.14291 0.94971 0.0
C327 C 0.95265 0.18096 1.01179 0.0
C328 C 0.82441 0.13227 0.08027 0.0
C329 C 0.82941 0.07743 0.08584 0.0
C330 C 0.83152 0.16053 0.04626 0.0
C331 C 0.84401 0.13343 1.01721 0.0
C332 C 0.84762 0.07798 1.02253 0.0
C333 C 0.83993 0.05104 0.05616 0.0
C334 C 0.82719 0.2196 0.04188 0.0
C335 C 0.86047 0.04671 0.99277 0.0
H336 H 0.78994 0.17553 0.88721 0.0
H337 H 0.95658 0.20943 0.93977 0.0
H338 H 0.75036 0.09904 0.95519 0.0
H339 H 0.74409 0.161 0.97336 0.0
H340 H 0.72538 0.15266 0.92294 0.0
H341 H 0.99054 0.19953 1.00507 0.0
H342 H 0.94436 0.20332 0.03432 0.0
H343 H 0.95825 0.13964 1.02315 0.0
H344 H 0.81665 0.15335 0.10279 0.0
H345 H 0.84313 0.00856 0.05927 0.0
H346 H 0.80147 0.23004 1.01382 0.0
H347 H 0.86738 0.24133 0.04332 0.0
H348 H 0.81071 0.23362 0.06436 0.0
H349 H 0.82844 0.04818 0.9664 0.0
H350 H 0.86458 0.00426 1.00203 0.0
H351 H 0.89828 0.0647 0.98576 0.0
C352 C 0.8663 0.74261 0.45656 0.0
C353 C 0.92143 0.74227 0.47121 0.0
C354 C 0.84586 0.75821 0.41825 0.0
C355 C 0.88153 0.77468 0.39454 0.0
C356 C 0.93656 0.76926 0.40843 0.0
C357 C 0.95557 0.75238 0.44631 0.0
C358 C 0.78662 0.76104 0.40396 0.0
C359 C 0.9762 0.78562 0.38429 0.0
C360 C 0.84352 0.81098 0.2885 0.0
C361 C 0.84421 0.86649 0.28834 0.0
C362 C 0.85184 0.77981 0.32277 0.0
C363 C 0.86349 0.80506 0.35769 0.0
C364 C 0.86368 0.86116 0.35747 0.0
C365 C 0.85305 0.89092 0.32286 0.0
C366 C 0.84956 0.72013 0.32142 0.0
C367 C 0.87813 0.8903 0.39384 0.0
H368 H 0.83965 0.73494 0.47555 0.0
H369 H 0.99822 0.75138 0.45733 0.0
H370 H 0.7781 0.80315 0.40243 0.0
H371 H 0.77245 0.74607 0.375 0.0
H372 H 0.76361 0.73761 0.42287 0.0
H373 H 0.01809 0.78208 0.40015 0.0
H374 H 0.96706 0.76027 0.35957 0.0
H375 H 0.97308 0.82747 0.37321 0.0
H376 H 0.83629 0.79188 0.26184 0.0
H377 H 0.85412 0.93389 0.3229 0.0
H378 H 0.8322 0.69929 0.34427 0.0
H379 H 0.89058 0.70887 0.32542 0.0
H380 H 0.82561 0.70583 0.29371 0.0
H381 H 0.85174 0.87379 0.41266 0.0
H382 H 0.8749 0.93376 0.38882 0.0
H383 H 0.91979 0.88459 0.4091 0.0
C384 C 0.09757 0.86618 0.71394 0.0
C385 C 0.06195 0.82045 0.70382 0.0
C386 C 0.11734 0.87861 0.75216 0.0
C387 C 0.10106 0.84458 0.78096 0.0
C388 C 0.06437 0.79889 0.77083 0.0
C389 C 0.04536 0.78738 0.7325 0.0
C390 C 0.15609 0.9279 0.76175 0.0
C391 C 0.04543 0.76193 0.80057 0.0
C392 C 0.19011 0.84277 0.88087 0.0
C393 C 0.16448 0.87378 0.89977 0.0
C394 C 0.17027 0.83359 0.84218 0.0
C395 C 0.1234 0.85566 0.82178 0.0
C396 C 0.0972 0.88686 0.84071 0.0
C397 C 0.11817 0.89574 0.87938 0.0
C398 C 0.19937 0.80001 0.82313 0.0
C399 C 0.04709 0.91102 0.82012 0.0
H400 H 0.11044 0.89206 0.69202 0.0
H401 H 0.01726 0.7523 0.72505 0.0
H402 H 0.14072 0.95381 0.77892 0.0
H403 H 0.19487 0.91643 0.77909 0.0
H404 H 0.16318 0.95136 0.73607 0.0
H405 H 0.01705 0.72793 0.78809 0.0
H406 H 0.08005 0.74588 0.8206 0.0
H407 H 0.0256 0.78423 0.81727 0.0
H408 H 0.22622 0.82619 0.89627 0.0
H409 H 0.09781 0.91931 0.89384 0.0
H410 H 0.21112 0.82304 0.79876 0.0
H411 H 0.1725 0.76439 0.81185 0.0
H412 H 0.23578 0.78652 0.84275 0.0
H413 H 0.05682 0.94197 0.79889 0.0
H414 H 0.02863 0.92973 0.83963 0.0
H415 H 0.0173 0.88028 0.8046 0.0
C416 C 0.84669 0.80952 0.9422 0.0
C417 C 0.8933 0.81751 0.97133 0.0
C418 C 0.84805 0.79216 0.9066 0.0
C419 C 0.89728 0.78272 0.89932 0.0
C420 C 0.94472 0.79189 0.92815 0.0
C421 C 0.94215 0.80883 0.96366 0.0
C422 C 0.79647 0.78352 0.87678 0.0
C423 C 0.99825 0.78307 0.92168 0.0
C424 C 0.89187 0.68795 0.8209 0.0
C425 C 0.89664 0.7233 0.78994 0.0
C426 C 0.89269 0.70668 0.85655 0.0
C427 C 0.89876 0.76228 0.86183 0.0
C428 C 0.90469 0.79817 0.83091 0.0
C429 C 0.90348 0.77836 0.79553 0.0
C430 C 0.88614 0.66682 0.88851 0.0
C431 C 0.91189 0.85765 0.8351 0.0
H432 H 0.80879 0.81707 0.94709 0.0
H433 H 0.97853 0.81408 0.98573 0.0
H434 H 0.79929 0.80854 0.85084 0.0
H435 H 0.78931 0.74134 0.86882 0.0
H436 H 0.76155 0.79324 0.88653 0.0
H437 H 0.03172 0.79397 0.94625 0.0
H438 H 0.99837 0.74056 0.91624 0.0
H439 H 0.00555 0.80695 0.89625 0.0
H440 H 0.88625 0.64543 0.81705 0.0
H441 H 0.90846 0.8062 0.77221 0.0
H442 H 0.84954 0.6724 0.89774 0.0
H443 H 0.92047 0.67346 0.91324 0.0
H444 H 0.88318 0.625 0.88028 0.0
H445 H 0.87682 0.87011 0.84319 0.0
H446 H 0.91677 0.88034 0.80862 0.0
H447 H 0.94747 0.86865 0.85812 0.0
C448 C 0.25098 -0.00275 0.252 0.0
C449 C 0.23014 0.97294 0.21732 0.0
C450 C 0.23057 0.98162 0.28393 0.0
C451 C 0.18783 0.94051 0.28152 0.0
C452 C 0.16705 0.915 0.24681 0.0
C453 C 0.18864 0.9313 0.21515 0.0
C454 C 0.25482 0.00948 0.32031 0.0
C455 C 0.12106 0.87152 0.24283 0.0
C456 C 0.17302 0.87823 0.37759 0.0
C457 C 0.13449 0.90707 0.38567 0.0
C458 C 0.18867 0.88668 0.34304 0.0
C459 C 0.16541 0.925 0.3156 0.0
C460 C 0.12483 0.95264 0.32284 0.0
C461 C 0.10986 0.94333 0.35768 0.0
C462 C 0.23172 0.85598 0.33657 0.0
C463 C 0.09923 -0.00578 0.29462 0.0
H464 H 0.28323 0.0293 0.25415 0.0
H465 H 0.17172 0.91283 0.18839 0.0
H466 H 0.22315 0.02334 0.33166 0.0
H467 H 0.27562 0.98104 0.34189 0.0
H468 H 0.28399 0.04424 0.31651 0.0
H469 H 0.11138 0.85357 0.21479 0.0
H470 H 0.13046 0.83966 0.26532 0.0
H471 H 0.08506 0.88807 0.24647 0.0
H472 H 0.19158 0.84933 0.39859 0.0
H473 H 0.08035 0.96613 0.36357 0.0
H474 H 0.26829 0.88361 0.33626 0.0
H475 H 0.21879 0.83777 0.30863 0.0
H476 H 0.24209 0.82402 0.35888 0.0
H477 H 0.12886 0.02953 0.2935 0.0
H478 H 0.064 0.00737 0.30216 0.0
H479 H 0.08653 0.97864 0.26581 0.0
C480 C 0.20724 0.24061 0.83601 0.0
C481 C 0.15115 0.23357 0.82717 0.0
C482 C 0.23716 0.22589 0.87233 0.0
C483 C 0.2104 0.20314 0.90031 0.0
C484 C 0.15387 0.19718 0.89177 0.0
C485 C 0.12512 0.21269 0.85556 0.0
C486 C 0.29736 0.23351 0.88051 0.0
C487 C 0.12349 0.17284 0.92054 0.0
C488 C 0.27137 0.10771 0.98013 0.0
C489 C 0.27988 0.13857 1.01191 0.0
C490 C 0.25154 0.12908 0.94339 0.0
C491 C 0.24069 0.18299 0.93804 0.0
C492 C 0.25296 0.21544 0.96967 0.0
C493 C 0.27206 0.19279 1.00624 0.0
C494 C 0.23853 0.09272 0.91066 0.0
C495 C 0.24274 0.27327 0.96519 0.0
H496 H 0.22783 0.25679 0.81442 0.0
H497 H 0.08188 0.20711 0.84934 0.0
H498 H 0.31386 0.25567 0.90666 0.0
H499 H 0.3131 0.19411 0.88552 0.0
H500 H 0.31214 0.25546 0.85686 0.0
H501 H 0.07954 0.17225 0.90975 0.0
H502 H 0.13297 0.1313 0.92847 0.0
H503 H 0.13582 0.19543 0.94671 0.0
H504 H 0.27728 0.06581 0.98399 0.0
H505 H 0.27869 0.21712 0.03048 0.0
H506 H 0.25477 0.11174 0.88681 0.0
H507 H 0.19452 0.08528 0.90024 0.0
H508 H 0.25464 0.0537 0.91882 0.0
H509 H 0.25804 0.29357 0.94128 0.0
H510 H 0.26163 0.29494 0.99129 0.0
H511 H 0.19908 0.27596 0.9586 0.0
C512 C 0.86821 0.11213 0.43946 0.0
C513 C 0.84351 0.1454 0.40922 0.0
C514 C 0.88782 0.13053 0.4764 0.0
C515 C 0.88268 0.18363 0.48378 0.0
C516 C 0.85668 0.217 0.45367 0.0
C517 C 0.83766 0.19767 0.41697 0.0
C518 C 0.91502 0.0933 0.50749 0.0
C519 C 0.85024 0.27383 0.45997 0.0
C520 C 0.90556 0.21965 0.58761 0.0
C521 C 0.95918 0.24192 0.59573 0.0
C522 C 0.87971 0.20146 0.55123 0.0
C523 C 0.90804 0.20534 0.52215 0.0
C524 C 0.96161 0.22916 0.52997 0.0
C525 C 0.9862 0.24724 0.56628 0.0
C526 C 0.82244 0.17687 0.54417 0.0
C527 C 0.99382 0.2341 0.50024 0.0
H528 H 0.87225 0.07143 0.43431 0.0
H529 H 0.81942 0.22424 0.39406 0.0
H530 H 0.95698 0.10995 0.51895 0.0
H531 H 0.89471 0.08942 0.53118 0.0
H532 H 0.91506 0.05293 0.49751 0.0
H533 H 0.82548 0.2934 0.43457 0.0
H534 H 0.83153 0.27513 0.48415 0.0
H535 H 0.89008 0.29723 0.46729 0.0
H536 H 0.88419 0.21493 0.60994 0.0
H537 H 0.02757 0.26427 0.5718 0.0
H538 H 0.81989 0.13464 0.53708 0.0
H539 H 0.79765 0.19783 0.51955 0.0
H540 H 0.80526 0.17837 0.5691 0.0
H541 H 0.99777 0.19387 0.49181 0.0
H542 H 0.0345 0.25501 0.51036 0.0
H543 H 0.97297 0.25612 0.4745 0.0
loop_
_geom_bond_atom_site_label_1
_geom_bond_atom_site_label_2
_geom_bond_distance
_geom_bond_site_symmetry_2
_ccdc_geom_bond_type
Nd0 C2 2.836 1_554 S
Nd0 O20 2.500 . S
Nd0 O21 2.492 . S
Nd0 O22 2.487 . S
Nd0 O23 2.682 1_565 S
Nd0 O24 2.410 1_565 S
Nd0 O29 2.414 1_565 S
Nd0 O31 2.424 . S
Nd1 C11 2.836 . S
Nd1 O23 2.414 . S
Nd1 O25 2.424 . S
Nd1 O26 2.500 . S
Nd1 O27 2.492 . S
Nd1 O28 2.487 . S
Nd1 O29 2.682 . S
Nd1 O30 2.410 . S
C2 Nd0 2.836 1_556 S
C2 C3 1.498 . S
C2 O20 1.258 1_556 S
C2 O21 1.239 1_556 S
C3 C2 1.498 . S
C3 C4 1.366 . S
C3 C8 1.407 . S
C4 C3 1.366 . S
C4 C5 1.392 . S
C4 H32 0.930 . S
C5 C4 1.392 . S
C5 C6 1.398 . S
C5 H33 0.929 . S
C6 C5 1.398 . S
C6 C7 1.352 . S
C7 C6 1.352 . S
C7 C8 1.384 . S
C7 H34 0.930 . S
C8 C3 1.407 . S
C8 C7 1.384 . S
C8 H35 0.929 . S
C9 O22 1.241 1_545 S
C9 O23 1.273 . S
C10 O24 1.251 . S
C10 O25 1.268 . S
C11 Nd1 2.836 . S
C11 C12 1.498 . S
C11 O26 1.258 . S
C11 O27 1.239 . S
C12 C11 1.498 . S
C12 C13 1.366 . S
C12 C17 1.407 . S
C13 C12 1.366 . S
C13 C14 1.392 . S
C13 H36 0.930 . S
C14 C13 1.392 . S
C14 C15 1.398 . S
C14 H37 0.929 . S
C15 C14 1.398 . S
C15 C16 1.352 . S
C16 C15 1.352 . S
C16 C17 1.384 . S
C16 H38 0.930 . S
C17 C12 1.407 . S
C17 C16 1.384 . S
C17 H39 0.929 . S
C18 O28 1.241 . S
C18 O29 1.273 . S
C19 O30 1.251 1_565 S
C19 O31 1.268 . S
O20 Nd0 2.500 . S
O20 C2 1.258 1_554 S
O21 Nd0 2.492 . S
O21 C2 1.239 1_554 S
O22 Nd0 2.487 . S
O22 C9 1.241 1_565 S
O23 Nd0 2.682 1_545 S
O23 Nd1 2.414 . S
O23 C9 1.273 . S
O24 Nd0 2.410 1_545 S
O24 C10 1.251 . S
O25 Nd1 2.424 . S
O25 C10 1.268 . S
O26 Nd1 2.500 . S
O26 C11 1.258 . S
O27 Nd1 2.492 . S
O27 C11 1.239 . S
O28 Nd1 2.487 . S
O28 C18 1.241 . S
O29 Nd0 2.414 1_545 S
O29 Nd1 2.682 . S
O29 C18 1.273 . S
O30 Nd1 2.410 . S
O30 C19 1.251 1_545 S
O31 Nd0 2.424 . S
O31 C19 1.268 . S
H32 C4 0.930 . S
H33 C5 0.929 . S
H34 C7 0.930 . S
H35 C8 0.929 . S
H36 C13 0.930 . S
H37 C14 0.929 . S
H38 C16 0.930 . S
H39 C17 0.929 . S
Nd40 C42 2.836 . S
Nd40 O60 2.500 . S
Nd40 O61 2.492 . S
Nd40 O62 2.487 . S
Nd40 O63 2.682 . S
Nd40 O64 2.410 . S
Nd40 O69 2.414 . S
Nd40 O71 2.424 . S
Nd41 C51 2.836 . S
Nd41 O63 2.414 1_655 S
Nd41 O65 2.424 . S
Nd41 O66 2.500 . S
Nd41 O67 2.492 . S
Nd41 O68 2.487 1_655 S
Nd41 O69 2.682 1_655 S
Nd41 O70 2.410 1_655 S
C42 Nd40 2.836 . S
C42 C43 1.498 . S
C42 O60 1.258 . S
C42 O61 1.239 . S
C43 C42 1.498 . S
C43 C44 1.366 . S
C43 C48 1.407 . S
C44 C43 1.366 . S
C44 C45 1.392 . S
C44 H72 0.930 . S
C45 C44 1.392 . S
C45 C46 1.398 . S
C45 H73 0.929 . S
C46 C45 1.398 . S
C46 C47 1.352 . S
C47 C46 1.352 . S
C47 C48 1.384 . S
C47 H74 0.930 . S
C48 C43 1.407 . S
C48 C47 1.384 . S
C48 H75 0.929 . S
C49 O62 1.241 . S
C49 O63 1.273 . S
C50 O64 1.251 . S
C50 O65 1.268 1_455 S
C51 Nd41 2.836 . S
C51 C52 1.498 . S
C51 O66 1.258 . S
C51 O67 1.239 . S
C52 C51 1.498 . S
C52 C53 1.366 . S
C52 C57 1.407 . S
C53 C52 1.366 . S
C53 C54 1.392 . S
C53 H76 0.930 . S
C54 C53 1.392 . S
C54 C55 1.398 . S
C54 H77 0.929 . S
C55 C54 1.398 . S
C55 C56 1.352 . S
C56 C55 1.352 . S
C56 C57 1.384 . S
C56 H78 0.930 . S
C57 C52 1.407 . S
C57 C56 1.384 . S
C57 H79 0.929 . S
C58 O68 1.241 . S
C58 O69 1.273 . S
C59 O70 1.251 . S
C59 O71 1.268 . S
O60 Nd40 2.500 . S
O60 C42 1.258 . S
O61 Nd40 2.492 . S
O61 C42 1.239 . S
O62 Nd40 2.487 . S
O62 C49 1.241 . S
O63 Nd40 2.682 . S
O63 Nd41 2.414 1_455 S
O63 C49 1.273 . S
O64 Nd40 2.410 . S
O64 C50 1.251 . S
O65 Nd41 2.424 . S
O65 C50 1.268 1_655 S
O66 Nd41 2.500 . S
O66 C51 1.258 . S
O67 Nd41 2.492 . S
O67 C51 1.239 . S
O68 Nd41 2.487 1_455 S
O68 C58 1.241 . S
O69 Nd40 2.414 . S
O69 Nd41 2.682 1_455 S
O69 C58 1.273 . S
O70 Nd41 2.410 1_455 S
O70 C59 1.251 . S
O71 Nd40 2.424 . S
O71 C59 1.268 . S
H72 C44 0.930 . S
H73 C45 0.929 . S
H74 C47 0.930 . S
H75 C48 0.929 . S
H76 C53 0.930 . S
H77 C54 0.929 . S
H78 C56 0.930 . S
H79 C57 0.929 . S
Nd80 C82 2.836 . S
Nd80 O100 2.500 . S
Nd80 O101 2.492 . S
Nd80 O102 2.487 . S
Nd80 O103 2.682 1_565 S
Nd80 O104 2.410 1_565 S
Nd80 O109 2.402 1_565 S
Nd80 O111 2.424 . S
Nd81 C91 2.836 . S
Nd81 O103 2.414 . S
Nd81 O105 2.424 . S
Nd81 O106 2.500 . S
Nd81 O107 2.492 . S
Nd81 O108 2.487 . S
Nd81 O109 2.700 . S
Nd81 O110 2.410 1_545 S
C82 Nd80 2.836 . S
C82 C83 1.498 . S
C82 O100 1.258 . S
C82 O101 1.239 . S
C83 C82 1.498 . S
C83 C84 1.366 . S
C83 C88 1.407 1_554 S
C84 C83 1.366 . S
C84 C85 1.392 1_554 S
C84 H112 0.930 . S
C85 C84 1.392 1_556 S
C85 C86 1.398 . S
C85 H113 0.929 . S
C86 C85 1.398 . S
C86 C87 1.352 . S
C87 C86 1.352 . S
C87 C88 1.384 . S
C87 H114 0.930 . S
C88 C83 1.407 1_556 S
C88 C87 1.384 . S
C88 H115 0.929 1_556 S
C89 O102 1.241 . S
C89 O103 1.273 1_565 S
C90 O104 1.251 . S
C90 O105 1.268 . S
C91 Nd81 2.836 . S
C91 C92 1.498 . S
C91 O106 1.258 . S
C91 O107 1.239 . S
C92 C91 1.498 . S
C92 C93 1.366 . S
C92 C97 1.407 . S
C93 C92 1.366 . S
C93 C94 1.392 . S
C93 H116 0.930 . S
C94 C93 1.392 . S
C94 C95 1.398 . S
C94 H117 0.929 . S
C95 C94 1.398 . S
C95 C96 1.352 . S
C96 C95 1.352 . S
C96 C97 1.384 . S
C96 H118 0.930 . S
C97 C92 1.407 . S
C97 C96 1.384 . S
C97 H119 0.929 . S
C98 O108 1.241 . S
C98 O109 1.280 . S
C99 O110 1.251 . S
C99 O111 1.268 . S
O100 Nd80 2.500 . S
O100 C82 1.258 . S
O101 Nd80 2.492 . S
O101 C82 1.239 . S
O102 Nd80 2.487 . S
O102 C89 1.241 . S
O103 Nd80 2.682 1_545 S
O103 Nd81 2.414 . S
O103 C89 1.273 1_545 S
O104 Nd80 2.410 1_545 S
O104 C90 1.251 . S
O105 Nd81 2.424 . S
O105 C90 1.268 . S
O106 Nd81 2.500 . S
O106 C91 1.258 . S
O107 Nd81 2.492 . S
O107 C91 1.239 . S
O108 Nd81 2.487 . S
O108 C98 1.241 . S
O109 Nd80 2.402 1_545 S
O109 Nd81 2.700 . S
O109 C98 1.280 . S
O110 Nd81 2.410 1_565 S
O110 C99 1.251 . S
O111 Nd80 2.424 . S
O111 C99 1.268 . S
H112 C84 0.930 . S
H113 C85 0.929 . S
H114 C87 0.930 . S
H115 C88 0.929 1_554 S
H116 C93 0.930 . S
H117 C94 0.929 . S
H118 C96 0.930 . S
H119 C97 0.929 . S
Nd120 C122 2.836 . S
Nd120 O140 2.500 . S
Nd120 O141 2.492 . S
Nd120 O142 2.487 . S
Nd120 O143 2.682 1_455 S
Nd120 O144 2.410 1_455 S
Nd120 O149 2.414 . S
Nd120 O151 2.424 . S
Nd121 C131 2.836 . S
Nd121 O143 2.414 . S
Nd121 O145 2.424 . S
Nd121 O146 2.500 . S
Nd121 O147 2.492 . S
Nd121 O148 2.487 . S
Nd121 O149 2.682 1_655 S
Nd121 O150 2.410 1_655 S
C122 Nd120 2.836 . S
C122 C123 1.498 . S
C122 O140 1.258 . S
C122 O141 1.239 . S
C123 C122 1.498 . S
C123 C124 1.366 . S
C123 C128 1.407 . S
C124 C123 1.366 . S
C124 C125 1.392 . S
C124 H152 0.930 . S
C125 C124 1.392 . S
C125 C126 1.398 . S
C125 H153 0.929 . S
C126 C125 1.398 . S
C126 C127 1.352 . S
C127 C126 1.352 . S
C127 C128 1.384 . S
C127 H154 0.930 . S
C128 C123 1.407 . S
C128 C127 1.384 . S
C128 H155 0.929 . S
C129 O142 1.241 . S
C129 O143 1.273 1_455 S
C130 O144 1.251 . S
C130 O145 1.268 . S
C131 Nd121 2.836 . S
C131 C132 1.498 . S
C131 O146 1.258 . S
C131 O147 1.239 . S
C132 C131 1.498 . S
C132 C133 1.366 . S
C132 C137 1.407 . S
C133 C132 1.366 . S
C133 C134 1.392 . S
C133 H156 0.930 . S
C134 C133 1.392 . S
C134 C135 1.398 . S
C134 H157 0.929 . S
C135 C134 1.398 . S
C135 C136 1.352 . S
C136 C135 1.352 . S
C136 C137 1.384 . S
C136 H158 0.930 . S
C137 C132 1.407 . S
C137 C136 1.384 . S
C137 H159 0.929 . S
C138 O148 1.241 . S
C138 O149 1.273 1_655 S
C139 O150 1.251 . S
C139 O151 1.268 . S
O140 Nd120 2.500 . S
O140 C122 1.258 . S
O141 Nd120 2.492 . S
O141 C122 1.239 . S
O142 Nd120 2.487 . S
O142 C129 1.241 . S
O143 Nd120 2.682 1_655 S
O143 Nd121 2.414 . S
O143 C129 1.273 1_655 S
O144 Nd120 2.410 1_655 S
O144 C130 1.251 . S
O145 Nd121 2.424 . S
O145 C130 1.268 . S
O146 Nd121 2.500 . S
O146 C131 1.258 . S
O147 Nd121 2.492 . S
O147 C131 1.239 . S
O148 Nd121 2.487 . S
O148 C138 1.241 . S
O149 Nd120 2.414 . S
O149 Nd121 2.682 1_455 S
O149 C138 1.273 1_455 S
O150 Nd121 2.410 1_455 S
O150 C139 1.251 . S
O151 Nd120 2.424 . S
O151 C139 1.268 . S
H152 C124 0.930 . S
H153 C125 0.929 . S
H154 C127 0.930 . S
H155 C128 0.929 . S
H156 C133 0.930 . S
H157 C134 0.929 . S
H158 C136 0.930 . S
H159 C137 0.929 . S
C160 C161 1.391 . S
C160 C162 1.394 . S
C160 H176 0.931 . S
C161 C160 1.391 . S
C161 C165 1.376 1_545 S
C162 C160 1.394 . S
C162 C163 1.369 1_655 S
C162 C166 1.531 . S
C163 C162 1.369 1_455 S
C163 C164 1.410 1_545 S
C163 C171 1.503 . S
C164 C163 1.410 1_565 S
C164 C165 1.392 1_455 S
C164 C167 1.511 . S
C165 C161 1.376 1_565 S
C165 C164 1.392 1_655 S
C165 H177 0.929 . S
C166 C162 1.531 . S
C166 H178 0.960 . S
C166 H179 0.962 . S
C166 H180 0.960 . S
C167 C164 1.511 . S
C167 H181 0.961 . S
C167 H182 0.961 . S
C167 H183 0.961 1_565 S
C168 C169 1.370 1_565 S
C168 C170 1.363 . S
C168 H184 0.931 . S
C169 C168 1.370 1_545 S
C169 C173 1.408 . S
C170 C168 1.363 . S
C170 C171 1.370 1_565 S
C170 C174 1.524 . S
C171 C163 1.503 . S
C171 C170 1.370 1_545 S
C171 C172 1.403 . S
C172 C171 1.403 . S
C172 C173 1.404 . S
C172 C175 1.539 . S
C173 C169 1.408 . S
C173 C172 1.404 . S
C173 H185 0.930 . S
C174 C170 1.524 . S
C174 H186 0.956 1_455 S
C174 H187 0.961 . S
C174 H188 0.961 . S
C175 C172 1.539 . S
C175 H189 0.958 . S
C175 H190 0.961 . S
C175 H191 0.960 . S
H176 C160 0.931 . S
H177 C165 0.929 . S
H178 C166 0.960 . S
H179 C166 0.962 . S
H180 C166 0.960 . S
H181 C167 0.961 . S
H182 C167 0.961 . S
H183 C167 0.961 1_545 S
H184 C168 0.931 . S
H185 C173 0.930 . S
H186 C174 0.956 1_655 S
H187 C174 0.961 . S
H188 C174 0.961 . S
H189 C175 0.958 . S
H190 C175 0.961 . S
H191 C175 0.960 . S
C192 C193 1.391 1_655 S
C192 C194 1.394 . S
C192 H208 0.931 . S
C193 C192 1.391 1_455 S
C193 C197 1.376 . S
C194 C192 1.394 . S
C194 C195 1.369 1_655 S
C194 C198 1.531 . S
C195 C194 1.369 1_455 S
C195 C196 1.410 . S
C195 C203 1.503 1_565 S
C196 C195 1.410 . S
C196 C197 1.392 . S
C196 C199 1.511 1_565 S
C197 C193 1.376 . S
C197 C196 1.392 . S
C197 H209 0.929 . S
C198 C194 1.531 . S
C198 H210 0.960 . S
C198 H211 0.962 . S
C198 H212 0.960 . S
C199 C196 1.511 1_545 S
C199 H213 0.961 . S
C199 H214 0.961 . S
C199 H215 0.966 . S
C200 C201 1.370 . S
C200 C202 1.363 . S
C200 H216 0.931 . S
C201 C200 1.370 . S
C201 C205 1.408 . S
C202 C200 1.363 . S
C202 C203 1.370 . S
C202 C206 1.524 1_455 S
C203 C195 1.503 1_545 S
C203 C202 1.370 . S
C203 C204 1.403 . S
C204 C203 1.403 . S
C204 C205 1.404 . S
C204 C207 1.539 1_545 S
C205 C201 1.408 . S
C205 C204 1.404 . S
C205 H217 0.930 . S
C206 C202 1.524 1_655 S
C206 H218 0.956 . S
C206 H219 0.961 1_655 S
C206 H220 0.961 . S
C207 C204 1.539 1_565 S
C207 H221 0.958 . S
C207 H222 0.961 . S
C207 H223 0.960 . S
H208 C192 0.931 . S
H209 C197 0.929 . S
H210 C198 0.960 . S
H211 C198 0.962 . S
H212 C198 0.960 . S
H213 C199 0.961 . S
H214 C199 0.961 . S
H215 C199 0.966 . S
H216 C200 0.931 . S
H217 C205 0.930 . S
H218 C206 0.956 . S
H219 C206 0.961 1_455 S
H220 C206 0.961 . S
H221 C207 0.958 . S
H222 C207 0.961 . S
H223 C207 0.960 . S
C224 C225 1.391 1_565 S
C224 C226 1.394 . S
C224 H240 0.931 . S
C225 C224 1.391 1_545 S
C225 C229 1.376 . S
C226 C224 1.394 . S
C226 C227 1.369 1_565 S
C226 C230 1.531 . S
C227 C226 1.369 1_545 S
C227 C228 1.410 . S
C227 C235 1.503 . S
C228 C227 1.410 . S
C228 C229 1.392 . S
C228 C231 1.511 . S
C229 C225 1.376 . S
C229 C228 1.392 . S
C229 H241 0.929 . S
C230 C226 1.531 . S
C230 H242 0.960 . S
C230 H243 0.962 . S
C230 H244 0.960 . S
C231 C228 1.511 . S
C231 H245 0.961 . S
C231 H246 0.961 . S
C231 H247 0.961 . S
C232 C233 1.370 . S
C232 C234 1.363 . S
C232 H248 0.931 . S
C233 C232 1.370 . S
C233 C237 1.408 1_545 S
C234 C232 1.363 . S
C234 C235 1.370 . S
C234 C238 1.524 . S
C235 C227 1.503 . S
C235 C234 1.370 . S
C235 C236 1.403 1_545 S
C236 C235 1.403 1_565 S
C236 C237 1.404 . S
C236 C239 1.539 . S
C237 C233 1.408 1_565 S
C237 C236 1.404 . S
C237 H249 0.930 . S
C238 C234 1.524 . S
C238 H250 0.956 . S
C238 H251 0.961 . S
C238 H252 0.961 . S
C239 C236 1.539 . S
C239 H253 0.958 . S
C239 H254 0.961 . S
C239 H255 0.960 . S
H240 C224 0.931 . S
H241 C229 0.929 . S
H242 C230 0.960 . S
H243 C230 0.962 . S
H244 C230 0.960 . S
H245 C231 0.961 . S
H246 C231 0.961 . S
H247 C231 0.961 . S
H248 C232 0.931 . S
H249 C237 0.930 . S
H250 C238 0.956 . S
H251 C238 0.961 . S
H252 C238 0.961 . S
H253 C239 0.958 . S
H254 C239 0.961 . S
H255 C239 0.960 . S
C256 C257 1.391 . S
C256 C258 1.394 . S
C256 H272 0.931 . S
C257 C256 1.391 . S
C257 C261 1.376 . S
C258 C256 1.394 . S
C258 C259 1.369 . S
C258 C262 1.531 . S
C259 C258 1.369 . S
C259 C260 1.410 1_455 S
C259 C267 1.503 . S
C260 C259 1.410 1_655 S
C260 C261 1.392 1_655 S
C260 C263 1.511 . S
C261 C257 1.376 . S
C261 C260 1.392 1_455 S
C261 H273 0.929 1_455 S
C262 C258 1.531 . S
C262 H274 0.960 . S
C262 H275 0.962 . S
C262 H276 0.960 . S
C263 C260 1.511 . S
C263 H277 0.961 . S
C263 H278 0.961 . S
C263 H279 0.961 . S
C264 C265 1.371 . S
C264 C266 1.363 . S
C264 H280 0.931 . S
C265 C264 1.371 . S
C265 C269 1.408 1_455 S
C266 C264 1.363 . S
C266 C267 1.370 . S
C266 C270 1.524 . S
C267 C259 1.503 . S
C267 C266 1.370 . S
C267 C268 1.403 1_455 S
C268 C267 1.403 1_655 S
C268 C269 1.404 . S
C268 C271 1.539 . S
C269 C265 1.408 1_655 S
C269 C268 1.404 . S
C269 H281 0.930 . S
C270 C266 1.524 . S
C270 H282 0.956 . S
C270 H283 0.961 . S
C270 H284 0.961 . S
C271 C268 1.539 . S
C271 H285 0.958 . S
C271 H286 0.961 . S
C271 H287 0.960 . S
H272 C256 0.931 . S
H273 C261 0.929 1_655 S
H274 C262 0.960 . S
H275 C262 0.962 . S
H276 C262 0.960 . S
H277 C263 0.961 . S
H278 C263 0.961 . S
H279 C263 0.961 . S
H280 C264 0.931 . S
H281 C269 0.930 . S
H282 C270 0.956 . S
H283 C270 0.961 . S
H284 C270 0.961 . S
H285 C271 0.958 . S
H286 C271 0.961 . S
H287 C271 0.960 . S
C288 C289 1.391 . S
C288 C290 1.394 . S
C288 H304 0.931 . S
C289 C288 1.391 . S
C289 C293 1.376 . S
C290 C288 1.394 . S
C290 C291 1.369 . S
C290 C294 1.531 . S
C291 C290 1.369 . S
C291 C292 1.410 . S
C291 C299 1.503 . S
C292 C291 1.410 . S
C292 C293 1.392 . S
C292 C295 1.511 . S
C293 C289 1.376 . S
C293 C292 1.392 . S
C293 H305 0.929 . S
C294 C290 1.531 . S
C294 H306 0.960 . S
C294 H307 0.962 . S
C294 H308 0.960 . S
C295 C292 1.511 . S
C295 H309 0.961 . S
C295 H310 0.961 . S
C295 H311 0.961 . S
C296 C297 1.370 . S
C296 C298 1.363 . S
C296 H312 0.931 . S
C297 C296 1.370 . S
C297 C301 1.408 . S
C298 C296 1.363 . S
C298 C299 1.370 . S
C298 C302 1.524 . S
C299 C291 1.503 . S
C299 C298 1.370 . S
C299 C300 1.403 . S
C300 C299 1.403 . S
C300 C301 1.404 . S
C300 C303 1.539 . S
C301 C297 1.408 . S
C301 C300 1.404 . S
C301 H313 0.930 . S
C302 C298 1.524 . S
C302 H314 0.956 . S
C302 H315 0.961 . S
C302 H316 0.961 . S
C303 C300 1.539 . S
C303 H317 0.958 . S
C303 H318 0.961 . S
C303 H319 0.960 . S
H304 C288 0.931 . S
H305 C293 0.929 . S
H306 C294 0.960 . S
H307 C294 0.962 . S
H308 C294 0.960 . S
H309 C295 0.961 . S
H310 C295 0.961 . S
H311 C295 0.961 . S
H312 C296 0.931 . S
H313 C301 0.930 . S
H314 C302 0.956 . S
H315 C302 0.961 . S
H316 C302 0.961 . S
H317 C303 0.958 . S
H318 C303 0.961 . S
H319 C303 0.960 . S
C320 C321 1.391 . S
C320 C322 1.394 . S
C320 H336 0.931 . S
C321 C320 1.391 . S
C321 C325 1.376 . S
C322 C320 1.394 . S
C322 C323 1.369 . S
C322 C326 1.531 . S
C323 C322 1.369 . S
C323 C324 1.410 . S
C323 C331 1.503 . S
C324 C323 1.410 . S
C324 C325 1.392 . S
C324 C327 1.511 . S
C325 C321 1.376 . S
C325 C324 1.392 . S
C325 H337 0.929 . S
C326 C322 1.531 . S
C326 H338 0.960 . S
C326 H339 0.962 . S
C326 H340 0.960 . S
C327 C324 1.511 . S
C327 H341 0.961 . S
C327 H342 0.961 1_556 S
C327 H343 0.961 . S
C328 C329 1.370 . S
C328 C330 1.349 1_554 S
C328 H344 0.931 . S
C329 C328 1.370 . S
C329 C333 1.408 . S
C330 C328 1.349 1_556 S
C330 C331 1.381 . S
C330 C334 1.529 . S
C331 C323 1.503 . S
C331 C330 1.381 . S
C331 C332 1.403 . S
C332 C331 1.403 . S
C332 C333 1.404 1_556 S
C332 C335 1.539 . S
C333 C329 1.408 . S
C333 C332 1.404 1_554 S
C333 H345 0.930 . S
C334 C330 1.529 . S
C334 H346 0.956 . S
C334 H347 0.961 . S
C334 H348 0.961 1_556 S
C335 C332 1.539 . S
C335 H349 0.958 . S
C335 H350 0.961 . S
C335 H351 0.960 . S
H336 C320 0.931 . S
H337 C325 0.929 . S
H338 C326 0.960 . S
H339 C326 0.962 . S
H340 C326 0.960 . S
H341 C327 0.961 . S
H342 C327 0.961 1_554 S
H343 C327 0.961 . S
H344 C328 0.931 . S
H345 C333 0.930 . S
H346 C334 0.956 . S
H347 C334 0.961 . S
H348 C334 0.961 1_554 S
H349 C335 0.958 . S
H350 C335 0.961 . S
H351 C335 0.960 . S
C352 C353 1.391 . S
C352 C354 1.394 . S
C352 H368 0.931 . S
C353 C352 1.391 . S
C353 C357 1.376 . S
C354 C352 1.394 . S
C354 C355 1.369 . S
C354 C358 1.531 . S
C355 C354 1.369 . S
C355 C356 1.410 . S
C355 C363 1.503 . S
C356 C355 1.410 . S
C356 C357 1.392 . S
C356 C359 1.511 . S
C357 C353 1.376 . S
C357 C356 1.392 . S
C357 H369 0.929 . S
C358 C354 1.531 . S
C358 H370 0.960 . S
C358 H371 0.962 . S
C358 H372 0.960 . S
C359 C356 1.511 . S
C359 H373 0.961 1_655 S
C359 H374 0.961 . S
C359 H375 0.961 . S
C360 C361 1.370 . S
C360 C362 1.363 . S
C360 H376 0.931 . S
C361 C360 1.370 . S
C361 C365 1.408 . S
C362 C360 1.363 . S
C362 C363 1.370 . S
C362 C366 1.524 . S
C363 C355 1.503 . S
C363 C362 1.370 . S
C363 C364 1.403 . S
C364 C363 1.403 . S
C364 C365 1.404 . S
C364 C367 1.539 . S
C365 C361 1.408 . S
C365 C364 1.404 . S
C365 H377 0.924 1_565 S
C366 C362 1.524 . S
C366 H378 0.956 . S
C366 H379 0.961 . S
C366 H380 0.961 . S
C367 C364 1.539 . S
C367 H381 0.958 1_565 S
C367 H382 0.961 1_565 S
C367 H383 0.960 . S
H368 C352 0.931 . S
H369 C357 0.929 . S
H370 C358 0.960 . S
H371 C358 0.962 . S
H372 C358 0.960 . S
H373 C359 0.961 1_455 S
H374 C359 0.961 . S
H375 C359 0.961 . S
H376 C360 0.931 . S
H377 C365 0.924 1_545 S
H378 C366 0.956 . S
H379 C366 0.961 . S
H380 C366 0.961 . S
H381 C367 0.958 1_545 S
H382 C367 0.961 1_545 S
H383 C367 0.960 . S
C384 C385 1.391 . S
C384 C386 1.394 . S
C384 H400 0.931 . S
C385 C384 1.391 . S
C385 C389 1.376 . S
C386 C384 1.394 . S
C386 C387 1.369 . S
C386 C390 1.531 . S
C387 C386 1.369 . S
C387 C388 1.410 . S
C387 C395 1.503 . S
C388 C387 1.410 . S
C388 C389 1.392 . S
C388 C391 1.511 . S
C389 C385 1.376 . S
C389 C388 1.392 . S
C389 H401 0.929 . S
C390 C386 1.531 . S
C390 H402 0.960 . S
C390 H403 0.962 . S
C390 H404 0.960 . S
C391 C388 1.511 . S
C391 H405 0.961 1_455 S
C391 H406 0.961 . S
C391 H407 0.961 . S
C392 C393 1.370 . S
C392 C394 1.363 . S
C392 H408 0.931 . S
C393 C392 1.370 . S
C393 C397 1.408 . S
C394 C392 1.363 . S
C394 C395 1.370 . S
C394 C398 1.524 . S
C395 C387 1.503 . S
C395 C394 1.370 . S
C395 C396 1.403 . S
C396 C395 1.403 . S
C396 C397 1.404 . S
C396 C399 1.539 . S
C397 C393 1.408 . S
C397 C396 1.404 . S
C397 H409 0.930 . S
C398 C394 1.524 . S
C398 H410 0.956 . S
C398 H411 0.961 . S
C398 H412 0.961 . S
C399 C396 1.539 . S
C399 H413 0.958 . S
C399 H414 0.961 . S
C399 H415 0.960 . S
H400 C384 0.931 . S
H401 C389 0.929 . S
H402 C390 0.960 . S
H403 C390 0.962 . S
H404 C390 0.960 . S
H405 C391 0.961 1_655 S
H406 C391 0.961 . S
H407 C391 0.961 . S
H408 C392 0.931 . S
H409 C397 0.930 . S
H410 C398 0.956 . S
H411 C398 0.961 . S
H412 C398 0.961 . S
H413 C399 0.958 . S
H414 C399 0.961 . S
H415 C399 0.960 . S
C416 C417 1.391 . S
C416 C418 1.394 . S
C416 H432 0.931 . S
C417 C416 1.391 . S
C417 C421 1.376 . S
C418 C416 1.394 . S
C418 C419 1.369 . S
C418 C422 1.531 . S
C419 C418 1.369 . S
C419 C420 1.410 . S
C419 C427 1.503 . S
C420 C419 1.410 . S
C420 C421 1.392 . S
C420 C423 1.511 . S
C421 C417 1.376 . S
C421 C420 1.392 . S
C421 H433 0.929 . S
C422 C418 1.531 . S
C422 H434 0.960 . S
C422 H435 0.962 . S
C422 H436 0.960 . S
C423 C420 1.511 . S
C423 H437 0.961 . S
C423 H438 0.961 . S
C423 H439 0.961 . S
C424 C425 1.370 . S
C424 C426 1.363 . S
C424 H440 0.931 . S
C425 C424 1.370 . S
C425 C429 1.408 . S
C426 C424 1.363 . S
C426 C427 1.370 . S
C426 C430 1.524 . S
C427 C419 1.503 . S
C427 C426 1.370 . S
C427 C428 1.403 . S
C428 C427 1.403 . S
C428 C429 1.404 . S
C428 C431 1.539 . S
C429 C425 1.408 . S
C429 C428 1.404 . S
C429 H441 0.930 . S
C430 C426 1.524 . S
C430 H442 0.956 . S
C430 H443 0.961 . S
C430 H444 0.961 . S
C431 C428 1.539 . S
C431 H445 0.958 . S
C431 H446 0.961 . S
C431 H447 0.960 . S
H432 C416 0.931 . S
H433 C421 0.929 . S
H434 C422 0.960 . S
H435 C422 0.962 . S
H436 C422 0.960 . S
H437 C423 0.961 . S
H438 C423 0.961 . S
H439 C423 0.961 . S
H440 C424 0.931 . S
H441 C429 0.930 . S
H442 C430 0.956 . S
H443 C430 0.961 . S
H444 C430 0.961 . S
H445 C431 0.958 . S
H446 C431 0.961 . S
H447 C431 0.960 . S
C448 C449 1.391 . S
C448 C450 1.394 . S
C448 H464 0.931 . S
C449 C448 1.391 . S
C449 C453 1.376 . S
C450 C448 1.394 . S
C450 C451 1.369 . S
C450 C454 1.531 . S
C451 C450 1.369 . S
C451 C452 1.410 . S
C451 C459 1.503 . S
C452 C451 1.410 . S
C452 C453 1.392 . S
C452 C455 1.511 . S
C453 C449 1.376 . S
C453 C452 1.392 . S
C453 H465 0.929 . S
C454 C450 1.531 . S
C454 H466 0.960 . S
C454 H467 0.962 . S
C454 H468 0.960 . S
C455 C452 1.511 . S
C455 H469 0.961 . S
C455 H470 0.961 . S
C455 H471 0.961 . S
C456 C457 1.370 . S
C456 C458 1.363 . S
C456 H472 0.931 . S
C457 C456 1.370 . S
C457 C461 1.408 . S
C458 C456 1.363 . S
C458 C459 1.370 . S
C458 C462 1.524 . S
C459 C451 1.503 . S
C459 C458 1.370 . S
C459 C460 1.403 . S
C460 C459 1.403 . S
C460 C461 1.404 . S
C460 C463 1.539 . S
C461 C457 1.408 . S
C461 C460 1.404 . S
C461 H473 0.930 . S
C462 C458 1.524 . S
C462 H474 0.956 . S
C462 H475 0.961 . S
C462 H476 0.961 . S
C463 C460 1.539 . S
C463 H477 0.958 1_565 S
C463 H478 0.961 . S
C463 H479 0.960 . S
H464 C448 0.931 . S
H465 C453 0.929 . S
H466 C454 0.960 . S
H467 C454 0.962 . S
H468 C454 0.960 . S
H469 C455 0.961 . S
H470 C455 0.961 . S
H471 C455 0.961 . S
H472 C456 0.931 . S
H473 C461 0.930 . S
H474 C462 0.956 . S
H475 C462 0.961 . S
H476 C462 0.961 . S
H477 C463 0.958 1_545 S
H478 C463 0.961 . S
H479 C463 0.960 . S
C480 C481 1.391 . S
C480 C482 1.394 . S
C480 H496 0.931 . S
C481 C480 1.391 . S
C481 C485 1.376 . S
C482 C480 1.394 . S
C482 C483 1.369 . S
C482 C486 1.531 . S
C483 C482 1.369 . S
C483 C484 1.410 . S
C483 C491 1.503 . S
C484 C483 1.410 . S
C484 C485 1.392 . S
C484 C487 1.511 . S
C485 C481 1.376 . S
C485 C484 1.392 . S
C485 H497 0.929 . S
C486 C482 1.531 . S
C486 H498 0.960 . S
C486 H499 0.962 . S
C486 H500 0.960 . S
C487 C484 1.511 . S
C487 H501 0.961 . S
C487 H502 0.961 . S
C487 H503 0.961 . S
C488 C489 1.370 . S
C488 C490 1.363 . S
C488 H504 0.931 . S
C489 C488 1.370 . S
C489 C493 1.408 . S
C490 C488 1.363 . S
C490 C491 1.370 . S
C490 C494 1.524 . S
C491 C483 1.503 . S
C491 C490 1.370 . S
C491 C492 1.403 . S
C492 C491 1.403 . S
C492 C493 1.404 . S
C492 C495 1.539 . S
C493 C489 1.408 . S
C493 C492 1.404 . S
C493 H505 0.930 . S
C494 C490 1.524 . S
C494 H506 0.956 . S
C494 H507 0.961 . S
C494 H508 0.961 . S
C495 C492 1.539 . S
C495 H509 0.958 . S
C495 H510 0.961 . S
C495 H511 0.960 . S
H496 C480 0.931 . S
H497 C485 0.929 . S
H498 C486 0.960 . S
H499 C486 0.962 . S
H500 C486 0.960 . S
H501 C487 0.961 . S
H502 C487 0.961 . S
H503 C487 0.961 . S
H504 C488 0.931 . S
H505 C493 0.930 . S
H506 C494 0.956 . S
H507 C494 0.961 . S
H508 C494 0.961 . S
H509 C495 0.958 . S
H510 C495 0.961 . S
H511 C495 0.960 . S
C512 C513 1.391 . S
C512 C514 1.394 . S
C512 H528 0.931 . S
C513 C512 1.391 . S
C513 C517 1.376 . S
C514 C512 1.394 . S
C514 C515 1.369 . S
C514 C518 1.531 1_655 S
C515 C514 1.369 . S
C515 C516 1.410 . S
C515 C523 1.503 . S
C516 C515 1.410 . S
C516 C517 1.392 . S
C516 C519 1.511 . S
C517 C513 1.376 . S
C517 C516 1.392 . S
C517 H529 0.929 . S
C518 C514 1.531 1_455 S
C518 H530 0.960 . S
C518 H531 0.962 . S
C518 H532 0.960 . S
C519 C516 1.511 . S
C519 H533 0.961 . S
C519 H534 0.961 . S
C519 H535 0.961 . S
C520 C521 1.370 . S
C520 C522 1.363 . S
C520 H536 0.931 . S
C521 C520 1.370 . S
C521 C525 1.408 . S
C522 C520 1.363 . S
C522 C523 1.370 . S
C522 C526 1.524 . S
C523 C515 1.503 . S
C523 C522 1.370 . S
C523 C524 1.403 . S
C524 C523 1.403 . S
C524 C525 1.404 . S
C524 C527 1.539 . S
C525 C521 1.408 . S
C525 C524 1.404 . S
C525 H537 0.930 1_655 S
C526 C522 1.524 . S
C526 H538 0.956 . S
C526 H539 0.961 . S
C526 H540 0.961 . S
C527 C524 1.539 . S
C527 H541 0.938 1_655 S
C527 H542 0.961 . S
C527 H543 0.960 . S
H528 C512 0.931 . S
H529 C517 0.929 . S
H530 C518 0.960 . S
H531 C518 0.962 . S
H532 C518 0.960 . S
H533 C519 0.961 . S
H534 C519 0.961 . S
H535 C519 0.961 . S
H536 C520 0.931 . S
H537 C525 0.930 1_455 S
H538 C526 0.956 . S
H539 C526 0.961 . S
H540 C526 0.961 . S
H541 C527 0.938 1_455 S
H542 C527 0.961 . S
H543 C527 0.960 . S
C161 C98 0.354 . S
C169 C9 0.422 . S
C193 C138 0.591 1_455 S
C201 C49 0.695 . S
C225 C89 0.982 1_545 S
C233 C18 0.978 . S
C257 C58 1.077 . S
C265 C129 1.104 . S
C289 C46 1.079 . S
C297 C15 1.060 . S
C321 C55 1.706 . S
C329 C90 1.734 . S
C353 C130 2.138 . S
C361 C99 2.093 . S
C385 C139 1.304 . S
C393 C6 1.348 . S
C417 C86 1.042 . S
C425 C135 1.032 . S
C449 C19 1.728 . S
C457 C126 1.717 . S
C481 C59 2.147 . S
C489 C10 2.100 1_556 S
C513 C95 1.352 . S
C521 C50 1.351 1_655 S
