# Generated by pormake.
# Topology wfe, (8)-cn, num edge types: 1
# Building blocks:
#     Node 0, Type 0, BuildingBlock: TAGTUT_clean_sbu_1, # of connection points: 8
#     Node 1, Type 0, BuildingBlock: TAGTUT_clean_sbu_1, # of connection points: 8
#     Node 2, Type 0, BuildingBlock: TAGTUT_clean_sbu_1, # of connection points: 8
#     Node 3, Type 0, BuildingBlock: TAGTUT_clean_sbu_1, # of connection points: 8
#     Node 4, Type 0, BuildingBlock: TAGTUT_clean_sbu_1, # of connection points: 8
#     Node 5, Type 0, BuildingBlock: TAGTUT_clean_sbu_1, # of connection points: 8
#     Node 6, Type 0, BuildingBlock: TAGTUT_clean_sbu_1, # of connection points: 8
#     Node 7, Type 0, BuildingBlock: TAGTUT_clean_sbu_1, # of connection points: 8
#     Edge 8, Type (0, 0), BuildingBlock: UVAHIK_clean_linker_0, # of connection points: 2
#     Edge 9, Type (0, 0), BuildingBlock: UVAHIK_clean_linker_0, # of connection points: 2
#     Edge 10, Type (0, 0), BuildingBlock: UVAHIK_clean_linker_0, # of connection points: 2
#     Edge 11, Type (0, 0), BuildingBlock: UVAHIK_clean_linker_0, # of connection points: 2
#     Edge 12, Type (0, 0), BuildingBlock: UVAHIK_clean_linker_0, # of connection points: 2
#     Edge 13, Type (0, 0), BuildingBlock: UVAHIK_clean_linker_0, # of connection points: 2
#     Edge 14, Type (0, 0), BuildingBlock: UVAHIK_clean_linker_0, # of connection points: 2
#     Edge 15, Type (0, 0), BuildingBlock: UVAHIK_clean_linker_0, # of connection points: 2
#     Edge 16, Type (0, 0), BuildingBlock: UVAHIK_clean_linker_0, # of connection points: 2
#     Edge 17, Type (0, 0), BuildingBlock: UVAHIK_clean_linker_0, # of connection points: 2
#     Edge 18, Type (0, 0), BuildingBlock: UVAHIK_clean_linker_0, # of connection points: 2
#     Edge 19, Type (0, 0), BuildingBlock: UVAHIK_clean_linker_0, # of connection points: 2
#     Edge 20, Type (0, 0), BuildingBlock: UVAHIK_clean_linker_0, # of connection points: 2
#     Edge 21, Type (0, 0), BuildingBlock: UVAHIK_clean_linker_0, # of connection points: 2
#     Edge 22, Type (0, 0), BuildingBlock: UVAHIK_clean_linker_0, # of connection points: 2
#     Edge 23, Type (0, 0), BuildingBlock: UVAHIK_clean_linker_0, # of connection points: 2
#     Edge 24, Type (0, 0), BuildingBlock: UVAHIK_clean_linker_0, # of connection points: 2
#     Edge 25, Type (0, 0), BuildingBlock: UVAHIK_clean_linker_0, # of connection points: 2
#     Edge 26, Type (0, 0), BuildingBlock: UVAHIK_clean_linker_0, # of connection points: 2
#     Edge 27, Type (0, 0), BuildingBlock: UVAHIK_clean_linker_0, # of connection points: 2
#     Edge 28, Type (0, 0), BuildingBlock: UVAHIK_clean_linker_0, # of connection points: 2
#     Edge 29, Type (0, 0), BuildingBlock: UVAHIK_clean_linker_0, # of connection points: 2
#     Edge 30, Type (0, 0), BuildingBlock: UVAHIK_clean_linker_0, # of connection points: 2
#     Edge 31, Type (0, 0), BuildingBlock: UVAHIK_clean_linker_0, # of connection points: 2
#     Edge 32, Type (0, 0), BuildingBlock: UVAHIK_clean_linker_0, # of connection points: 2
#     Edge 33, Type (0, 0), BuildingBlock: UVAHIK_clean_linker_0, # of connection points: 2
#     Edge 34, Type (0, 0), BuildingBlock: UVAHIK_clean_linker_0, # of connection points: 2
#     Edge 35, Type (0, 0), BuildingBlock: UVAHIK_clean_linker_0, # of connection points: 2
#     Edge 36, Type (0, 0), BuildingBlock: UVAHIK_clean_linker_0, # of connection points: 2
#     Edge 37, Type (0, 0), BuildingBlock: UVAHIK_clean_linker_0, # of connection points: 2
#     Edge 38, Type (0, 0), BuildingBlock: UVAHIK_clean_linker_0, # of connection points: 2
#     Edge 39, Type (0, 0), BuildingBlock: UVAHIK_clean_linker_0, # of connection points: 2
# Relax obj value: 0.273
# Max RMSD: 0.306
# Mean RMSD: 0.306
data_MOF--net-wfe--node1-TAGTUT_clean_sbu_1--edge1-UVAHIK_clean_linker_0
_symmetry_space_group_name_H-M    P1
_symmetry_Int_Tables_number       1
_symmetry_cell_setting            triclinic
loop_
_symmetry_equiv_pos_as_xyz
'x, y, z'
_cell_length_a     46.797278
_cell_length_b     46.819233
_cell_length_c     31.607729
_cell_angle_alpha  90.098616
_cell_angle_beta   89.916518
_cell_angle_gamma 89.996547
loop_
_atom_site_label
_atom_site_type_symbol
_atom_site_fract_x
_atom_site_fract_y
_atom_site_fract_z
_atom_type_partial_charge
C0 C 0.51212 0.36541 0.10928 0.0
C1 C 0.47623 0.31245 0.20357 0.0
C2 C 0.59301 0.31206 0.25922 0.0
Mg3 Mg 0.50944 0.29959 0.11932 0.0
O4 O 0.54236 0.30668 0.1518 0.0
Mg5 Mg 0.54428 0.33732 0.19595 0.0
Mg6 Mg 0.56367 0.27677 0.18188 0.0
O7 O 0.58628 0.24645 0.21076 0.0
Mg8 Mg 0.62443 0.25721 0.21878 0.0
Mg9 Mg 0.58126 0.21367 0.16969 0.0
C10 C 0.54564 0.24475 0.08908 0.0
C11 C 0.51915 0.22698 0.21249 0.0
O12 O 0.52382 0.36664 0.14595 0.0
O13 O 0.50622 0.34163 0.09103 0.0
O14 O 0.4983 0.32557 0.21811 0.0
O15 O 0.47653 0.29945 0.16775 0.0
O16 O 0.52507 0.26219 0.08069 0.0
O17 O 0.55961 0.24678 0.12406 0.0
C18 C 0.60619 0.32882 0.15321 0.0
O19 O 0.60264 0.30152 0.15458 0.0
O20 O 0.5878 0.34606 0.16893 0.0
O21 O 0.60467 0.18715 0.22191 0.0
O22 O 0.63563 0.21874 0.25059 0.0
O23 O 0.62347 0.21935 0.13461 0.0
C24 C 0.62473 0.19369 0.24811 0.0
O25 O 0.64578 0.25811 0.15849 0.0
O26 O 0.61548 0.29668 0.25348 0.0
C27 C 0.64292 0.23816 0.13143 0.0
O28 O 0.56888 0.30626 0.24083 0.0
O29 O 0.52323 0.25387 0.20746 0.0
O30 O 0.53812 0.20853 0.20224 0.0
C31 C 0.63679 0.02884 0.61168 0.0
C32 C 0.68805 0.98372 0.70061 0.0
C33 C 0.705 0.0967 0.76559 0.0
Mg34 Mg 0.70196 0.01742 0.61744 0.0
O35 O 0.70107 0.04867 0.65421 0.0
Mg36 Mg 0.67125 0.05454 0.6984 0.0
Mg37 Mg 0.73446 0.06469 0.6838 0.0
O38 O 0.76809 0.08275 0.71166 0.0
Mg39 Mg 0.76335 0.12149 0.7248 0.0
Mg40 Mg 0.79853 0.07462 0.66777 0.0
C41 C 0.76045 0.04692 0.5875 0.0
C42 C 0.77937 0.0147 0.71166 0.0
O43 O 0.63781 0.03962 0.64902 0.0
O44 O 0.65927 0.02052 0.592 0.0
O45 O 0.67749 0.00654 0.71741 0.0
O46 O 0.70001 0.98362 0.66398 0.0
O47 O 0.73911 0.03089 0.57747 0.0
O48 O 0.76258 0.0573 0.62497 0.0
C49 C 0.68959 0.11464 0.65635 0.0
O50 O 0.71585 0.1066 0.65796 0.0
O51 O 0.66938 0.0995 0.67213 0.0
O52 O 0.83007 0.09347 0.71791 0.0
O53 O 0.80376 0.12547 0.75467 0.0
O54 O 0.79509 0.11713 0.63327 0.0
C55 C 0.82723 0.11226 0.7474 0.0
O56 O 0.76521 0.14619 0.66756 0.0
O57 O 0.72404 0.11641 0.76192 0.0
C58 C 0.78118 0.1404 0.63594 0.0
O59 O 0.70625 0.07327 0.74353 0.0
O60 O 0.75276 0.02125 0.70835 0.0
O61 O 0.79929 0.03156 0.69964 0.0
C62 C 0.98941 0.13799 0.10973 0.0
C63 C 0.02784 0.19272 0.20168 0.0
C64 C 0.91397 0.19647 0.26527 0.0
Mg65 Mg 0.99364 0.20407 0.11808 0.0
O66 O 0.96205 0.19899 0.15359 0.0
Mg67 Mg 0.95953 0.16822 0.19719 0.0
Mg68 Mg 0.94131 0.22983 0.18304 0.0
O69 O 0.91866 0.2605 0.21116 0.0
Mg70 Mg 0.88101 0.2493 0.22304 0.0
Mg71 Mg 0.9214 0.29109 0.16626 0.0
C72 C 0.95712 0.25873 0.08756 0.0
C73 C 0.98489 0.28191 0.20722 0.0
O74 O 0.97841 0.13735 0.14696 0.0
O75 O 0.99546 0.16151 0.091 0.0
O76 O 0.00605 0.17958 0.21721 0.0
O77 O 0.02709 0.20526 0.16555 0.0
O78 O 0.97684 0.24034 0.07892 0.0
O79 O 0.94432 0.25821 0.12357 0.0
C80 C 0.89824 0.17853 0.15441 0.0
O81 O 0.90283 0.20552 0.15708 0.0
O82 O 0.91546 0.16027 0.17039 0.0
O83 O 0.89746 0.31956 0.21606 0.0
O84 O 0.86881 0.28876 0.25093 0.0
O85 O 0.87947 0.28021 0.13234 0.0
C86 C 0.87839 0.31397 0.24431 0.0
O87 O 0.85802 0.24413 0.1651 0.0
O88 O 0.89163 0.21225 0.26147 0.0
C89 C 0.86011 0.26112 0.13381 0.0
O90 O 0.9369 0.20082 0.24294 0.0
O91 O 0.98154 0.25461 0.20642 0.0
O92 O 0.96495 0.29902 0.1957 0.0
C93 C 0.86567 0.48394 0.61351 0.0
C94 C 0.81157 0.52407 0.70448 0.0
C95 C 0.80391 0.4094 0.76473 0.0
Mg96 Mg 0.79974 0.49061 0.62005 0.0
O97 O 0.80318 0.45856 0.65504 0.0
Mg98 Mg 0.8333 0.45478 0.69939 0.0
Mg99 Mg 0.77131 0.4389 0.68378 0.0
O100 O 0.73954 0.41759 0.71117 0.0
Mg101 Mg 0.74834 0.37958 0.72462 0.0
Mg102 Mg 0.70913 0.42203 0.66628 0.0
C103 C 0.74363 0.4565 0.58846 0.0
C104 C 0.72088 0.48485 0.70736 0.0
O105 O 0.86529 0.47286 0.6506 0.0
O106 O 0.84268 0.4908 0.59391 0.0
O107 O 0.82341 0.50161 0.72014 0.0
O108 O 0.79965 0.52409 0.66787 0.0
O109 O 0.7629 0.47545 0.5803 0.0
O110 O 0.74346 0.44338 0.62414 0.0
C111 C 0.8212 0.3938 0.65545 0.0
O112 O 0.79427 0.39911 0.65763 0.0
O113 O 0.83975 0.41063 0.67178 0.0
O114 O 0.67919 0.3998 0.71613 0.0
O115 O 0.70851 0.3711 0.75363 0.0
O116 O 0.71757 0.37974 0.63243 0.0
C117 C 0.68376 0.38141 0.74567 0.0
O118 O 0.74964 0.35431 0.66814 0.0
O119 O 0.78729 0.38768 0.76086 0.0
C120 C 0.73369 0.35802 0.63597 0.0
O121 O 0.79979 0.43287 0.74376 0.0
O122 O 0.74806 0.48044 0.70732 0.0
O123 O 0.70317 0.46558 0.69551 0.0
C124 C 0.39178 0.82437 0.76357 0.0
C125 C 0.3603 0.77741 0.87228 0.0
C126 C 0.45593 0.75895 0.92511 0.0
Mg127 Mg 0.38225 0.76031 0.78468 0.0
O128 O 0.42065 0.76543 0.80016 0.0
Mg129 Mg 0.42718 0.79566 0.84523 0.0
Mg130 Mg 0.43826 0.73201 0.82879 0.0
O131 O 0.45442 0.69897 0.85896 0.0
Mg132 Mg 0.48652 0.70119 0.89416 0.0
Mg133 Mg 0.45008 0.66932 0.81399 0.0
C134 C 0.40758 0.70129 0.74724 0.0
C135 C 0.38878 0.68613 0.85408 0.0
O136 O 0.40967 0.82719 0.79421 0.0
O137 O 0.37903 0.80085 0.755 0.0
O138 O 0.38337 0.79144 0.87648 0.0
O139 O 0.35564 0.76169 0.84006 0.0
O140 O 0.38742 0.71994 0.75002 0.0
O141 O 0.43121 0.7038 0.76849 0.0
C142 C 0.48926 0.77746 0.80725 0.0
O143 O 0.48208 0.75095 0.80738 0.0
O144 O 0.47204 0.79729 0.81863 0.0
O145 O 0.46539 0.63656 0.86364 0.0
O146 O 0.48461 0.65857 0.92007 0.0
O147 O 0.49801 0.67633 0.79528 0.0
C148 C 0.4764 0.6359 0.90079 0.0
O149 O 0.5205 0.70008 0.84759 0.0
O150 O 0.47339 0.73853 0.93401 0.0
C151 C 0.52067 0.68758 0.81139 0.0
O152 O 0.44367 0.75985 0.88876 0.0
O153 O 0.39609 0.71259 0.85219 0.0
O154 O 0.40481 0.66624 0.83928 0.0
C155 C 0.19286 0.87887 0.2658 0.0
C156 C 0.24447 0.86269 0.37783 0.0
C157 C 0.24427 0.96074 0.4222 0.0
Mg158 Mg 0.25714 0.88257 0.28831 0.0
O159 O 0.24566 0.92018 0.2996 0.0
Mg160 Mg 0.21409 0.92333 0.34307 0.0
Mg161 Mg 0.27557 0.94325 0.3286 0.0
O162 O 0.30562 0.96465 0.35867 0.0
Mg163 Mg 0.29965 0.99683 0.39283 0.0
Mg164 Mg 0.33714 0.96194 0.31602 0.0
C165 C 0.31125 0.91494 0.24903 0.0
C166 C 0.32661 0.90089 0.35957 0.0
O167 O 0.18676 0.89817 0.29346 0.0
O168 O 0.21828 0.86967 0.25955 0.0
O169 O 0.22523 0.88194 0.37874 0.0
O170 O 0.26152 0.86024 0.34662 0.0
O171 O 0.29557 0.89254 0.25247 0.0
O172 O 0.3059 0.93825 0.26996 0.0
C173 C 0.2242 0.98579 0.2992 0.0
O174 O 0.25137 0.98268 0.30316 0.0
O175 O 0.20645 0.96625 0.31028 0.0
O176 O 0.36666 0.98177 0.36658 0.0
O177 O 0.34168 0.99926 0.42157 0.0
O178 O 0.32592 0.00808 0.29415 0.0
C179 C 0.36547 0.99321 0.40346 0.0
O180 O 0.29957 0.02975 0.34458 0.0
O181 O 0.26237 0.98074 0.43077 0.0
C182 C 0.31264 0.03008 0.3088 0.0
O183 O 0.24576 0.94723 0.38674 0.0
O184 O 0.29962 0.90526 0.35632 0.0
O185 O 0.34496 0.91825 0.34408 0.0
C186 C 0.11626 0.67727 0.76791 0.0
C187 C 0.14311 0.72542 0.87806 0.0
C188 C 0.04615 0.74456 0.92301 0.0
Mg189 Mg 0.12458 0.74145 0.7882 0.0
O190 O 0.08581 0.73703 0.80111 0.0
Mg191 Mg 0.07755 0.70709 0.84564 0.0
Mg192 Mg 0.06662 0.77067 0.82759 0.0
O193 O 0.04911 0.80384 0.85608 0.0
Mg194 Mg 0.01616 0.80191 0.88963 0.0
Mg195 Mg 0.05538 0.83355 0.8119 0.0
C196 C 0.10081 0.80073 0.74863 0.0
C197 C 0.11485 0.81686 0.85713 0.0
O198 O 0.0976 0.67501 0.79764 0.0
O199 O 0.12901 0.70073 0.75905 0.0
O200 O 0.11971 0.7118 0.88143 0.0
O201 O 0.14907 0.7403 0.84549 0.0
O202 O 0.12026 0.7815 0.75321 0.0
O203 O 0.07627 0.79887 0.76788 0.0
C204 C 0.01791 0.72439 0.79895 0.0
O205 O 0.02398 0.75115 0.80156 0.0
O206 O 0.03496 0.70503 0.81234 0.0
O207 O 0.03806 0.86675 0.86044 0.0
O208 O 0.01704 0.84472 0.91538 0.0
O209 O 0.00834 0.82605 0.78949 0.0
C210 C 0.02576 0.86743 0.8968 0.0
O211 O 0.98403 0.80253 0.84029 0.0
O212 O 0.02867 0.76516 0.93103 0.0
C213 C 0.98521 0.81466 0.8039 0.0
O214 O 0.05868 0.74304 0.88688 0.0
O215 O 0.10755 0.7904 0.85487 0.0
O216 O 0.09951 0.8367 0.84088 0.0
C217 C 0.31091 0.62682 0.263 0.0
C218 C 0.26139 0.64663 0.37497 0.0
C219 C 0.25886 0.54784 0.4223 0.0
Mg220 Mg 0.24675 0.62485 0.28744 0.0
O221 O 0.2579 0.58721 0.29929 0.0
Mg222 Mg 0.28963 0.58417 0.34233 0.0
Mg223 Mg 0.2278 0.56463 0.3287 0.0
O224 O 0.19774 0.54356 0.35929 0.0
Mg225 Mg 0.20369 0.51125 0.39337 0.0
Mg226 Mg 0.16632 0.54632 0.31665 0.0
C227 C 0.19222 0.59269 0.24914 0.0
C228 C 0.17736 0.60743 0.3602 0.0
O229 O 0.31706 0.60786 0.29105 0.0
O230 O 0.28559 0.63642 0.25735 0.0
O231 O 0.28003 0.62675 0.37573 0.0
O232 O 0.2434 0.64862 0.34496 0.0
O233 O 0.20802 0.61503 0.25237 0.0
O234 O 0.19755 0.56942 0.27006 0.0
C235 C 0.27886 0.52109 0.30023 0.0
O236 O 0.2517 0.5245 0.30389 0.0
O237 O 0.29666 0.5406 0.3111 0.0
O238 O 0.13678 0.52698 0.36743 0.0
O239 O 0.16151 0.5094 0.42241 0.0
O240 O 0.17729 0.50008 0.29501 0.0
C241 C 0.13778 0.51568 0.40433 0.0
O242 O 0.20342 0.47805 0.34513 0.0
O243 O 0.24135 0.52734 0.43094 0.0
C244 C 0.19038 0.47793 0.30937 0.0
O245 O 0.25713 0.56146 0.38702 0.0
O246 O 0.2043 0.60311 0.35602 0.0
O247 O 0.1589 0.59016 0.34475 0.0
C248 C 0.61027 0.16328 0.30831 0.0
C249 C 0.63218 0.17427 0.28273 0.0
C250 C 0.61581 0.1564 0.35055 0.0
C251 C 0.66472 0.18186 0.43244 0.0
H252 H 0.63031 0.12337 0.50246 0.0
C253 C 0.70207 0.14791 0.59762 0.0
C254 C 0.68148 0.13714 0.62579 0.0
C255 C 0.69385 0.15879 0.55843 0.0
C256 C 0.63957 0.14018 0.48335 0.0
H257 H 0.67754 0.18288 0.27872 0.0
H258 H 0.68751 0.16961 0.35174 0.0
H259 H 0.62215 0.12283 0.42618 0.0
H260 H 0.63586 0.13423 0.6381 0.0
H261 H 0.62163 0.15302 0.56956 0.0
H262 H 0.68228 0.19902 0.48964 0.0
C263 C 0.6659 0.1674 0.33995 0.0
C264 C 0.63511 0.13969 0.43968 0.0
C265 C 0.66031 0.1745 0.298 0.0
C266 C 0.65238 0.14172 0.61678 0.0
C267 C 0.64415 0.15231 0.57741 0.0
C268 C 0.66916 0.18234 0.47605 0.0
C269 C 0.64338 0.1602 0.36735 0.0
C270 C 0.64803 0.16025 0.4137 0.0
C271 C 0.66488 0.15906 0.54693 0.0
C272 C 0.65696 0.1613 0.50183 0.0
H273 H 0.58834 0.16325 0.29734 0.0
H274 H 0.59805 0.15071 0.37085 0.0
H275 H 0.67425 0.19856 0.41339 0.0
H276 H 0.72456 0.14493 0.60358 0.0
H277 H 0.71031 0.16407 0.53561 0.0
C278 C 0.85425 0.14239 0.79676 0.0
C279 C 0.84891 0.11505 0.78046 0.0
C280 C 0.86124 0.14579 0.83927 0.0
C281 C 0.83944 0.14444 0.92832 0.0
H282 H 0.89149 0.10622 1.00477 0.0
C283 C 0.87338 0.13874 0.1164 0.0
C284 C 0.87818 0.16821 0.12178 0.0
C285 C 0.86401 0.12812 0.07741 0.0
C286 C 0.87631 0.11645 0.98386 0.0
H287 H 0.85073 0.0697 0.79345 0.0
H288 H 0.86325 0.07563 0.86802 0.0
H289 H 0.89429 0.09646 0.92868 0.0
H290 H 0.87501 0.20943 0.09121 0.0
H291 H 0.85697 0.19146 0.02523 0.0
H292 H 0.82173 0.16479 0.98298 0.0
C293 C 0.86186 0.0944 0.84812 0.0
C294 C 0.87821 0.11113 0.94038 0.0
C295 C 0.85505 0.09099 0.80532 0.0
C296 C 0.87036 0.18689 0.08914 0.0
C297 C 0.86045 0.17642 0.05073 0.0
C298 C 0.83743 0.1496 0.97158 0.0
C299 C 0.8628 0.12188 0.86594 0.0
C300 C 0.86042 0.12587 0.91219 0.0
C301 C 0.8588 0.14688 0.04365 0.0
C302 C 0.85642 0.13637 0.99967 0.0
H303 H 0.84958 0.16121 0.77808 0.0
H304 H 0.86266 0.16721 0.85215 0.0
H305 H 0.82478 0.15535 0.90733 0.0
H306 H 0.87934 0.12372 0.14088 0.0
H307 H 0.86261 0.10523 0.07281 0.0
C308 C 0.84318 0.33439 0.29393 0.0
C309 C 0.87071 0.33536 0.27634 0.0
C310 C 0.83841 0.34416 0.33498 0.0
C311 C 0.87938 0.34654 0.4325 0.0
H312 H 0.80844 0.37486 0.48001 0.0
C313 C 0.85969 0.37517 0.60818 0.0
C314 C 0.83135 0.37329 0.62301 0.0
C315 C 0.86643 0.36666 0.56699 0.0
C316 C 0.82821 0.36646 0.46718 0.0
H317 H 0.91397 0.35058 0.28527 0.0
H318 H 0.90552 0.36834 0.35702 0.0
H319 H 0.81576 0.37632 0.40379 0.0
H320 H 0.78974 0.35573 0.60948 0.0
H321 H 0.80144 0.34029 0.53817 0.0
H322 H 0.8918 0.33677 0.49611 0.0
C323 C 0.88778 0.35942 0.33943 0.0
C324 C 0.83251 0.36761 0.42356 0.0
C325 C 0.8925 0.34976 0.29811 0.0
C326 C 0.81139 0.35816 0.59866 0.0
C327 C 0.81808 0.34957 0.55759 0.0
C328 C 0.87513 0.34551 0.47624 0.0
C329 C 0.86115 0.35502 0.35911 0.0
C330 C 0.85803 0.35744 0.40566 0.0
C331 C 0.84504 0.35576 0.54037 0.0
C332 C 0.84937 0.35517 0.49395 0.0
H333 H 0.82607 0.3233 0.27768 0.0
H334 H 0.81762 0.34049 0.34907 0.0
H335 H 0.89904 0.33792 0.41964 0.0
H336 H 0.8759 0.38625 0.62632 0.0
H337 H 0.88756 0.37133 0.55481 0.0
C338 C 0.62252 0.36887 0.1076 0.0
C339 C 0.62721 0.3411 0.12332 0.0
C340 C 0.6323 0.37635 0.06744 0.0
C341 C 0.63659 0.33709 0.97148 0.0
H342 H 0.66109 0.40777 0.91927 0.0
C343 C 0.66161 0.34789 0.79563 0.0
C344 C 0.66174 0.37517 0.77736 0.0
C345 C 0.65272 0.34427 0.83731 0.0
C346 C 0.65351 0.38812 0.9334 0.0
H347 H 0.652 0.30267 0.11461 0.0
H348 H 0.6693 0.31578 0.04413 0.0
H349 H 0.66402 0.4025 0.99599 0.0
H350 H 0.64861 0.41916 0.78542 0.0
H351 H 0.63172 0.41267 0.85797 0.0
H352 H 0.62504 0.32291 0.9096 0.0
C353 C 0.65658 0.33091 0.06194 0.0
C354 C 0.65575 0.38498 0.97722 0.0
C355 C 0.6467 0.3234 0.10213 0.0
C356 C 0.64865 0.39789 0.79888 0.0
C357 C 0.6396 0.39427 0.84073 0.0
C358 C 0.63389 0.34038 0.92787 0.0
C359 C 0.64728 0.35634 0.04299 0.0
C360 C 0.64764 0.3593 0.99652 0.0
C361 C 0.64355 0.36789 0.86127 0.0
C362 C 0.64261 0.3658 0.90815 0.0
H363 H 0.60831 0.3836 0.12366 0.0
H364 H 0.6253 0.39639 0.05385 0.0
H365 H 0.62933 0.31736 0.98581 0.0
H366 H 0.67164 0.33006 0.77949 0.0
H367 H 0.65601 0.3236 0.85179 0.0
C368 C 0.41356 0.8527 0.70665 0.0
C369 C 0.38934 0.84653 0.73127 0.0
C370 C 0.41035 0.86014 0.66409 0.0
C371 C 0.3603 0.83904 0.58357 0.0
H372 H 0.39909 0.89145 0.50815 0.0
C373 C 0.31802 0.87269 0.42439 0.0
C374 C 0.33675 0.88051 0.39173 0.0
C375 C 0.32845 0.86206 0.46233 0.0
C376 C 0.38871 0.87617 0.52877 0.0
H377 H 0.34318 0.84772 0.73369 0.0
H378 H 0.33753 0.86194 0.66005 0.0
H379 H 0.40879 0.89344 0.58426 0.0
H380 H 0.38117 0.88107 0.37198 0.0
H381 H 0.39962 0.86311 0.43932 0.0
H382 H 0.33981 0.82208 0.52861 0.0
C383 C 0.3589 0.86008 0.67291 0.0
C384 C 0.39399 0.87761 0.57226 0.0
C385 C 0.3621 0.85244 0.71516 0.0
C386 C 0.36615 0.87511 0.39653 0.0
C387 C 0.37674 0.86501 0.43507 0.0
C388 C 0.35517 0.83749 0.54029 0.0
C389 C 0.38292 0.86166 0.64632 0.0
C390 C 0.37903 0.85971 0.60007 0.0
C391 C 0.35799 0.85971 0.46889 0.0
C392 C 0.3686 0.85664 0.51262 0.0
H393 H 0.43477 0.84794 0.71842 0.0
H394 H 0.42919 0.86153 0.64424 0.0
H395 H 0.34923 0.82429 0.60427 0.0
H396 H 0.29557 0.87785 0.42275 0.0
H397 H 0.31344 0.85856 0.48795 0.0
C398 C 0.17271 0.84222 0.21845 0.0
C399 C 0.1717 0.87026 0.23415 0.0
C400 C 0.1633 0.83627 0.17761 0.0
C401 C 0.16417 0.87406 0.07821 0.0
H402 H 0.13263 0.80384 0.03312 0.0
C403 C 0.13725 0.85387 0.90304 0.0
C404 C 0.13621 0.82529 0.88923 0.0
C405 C 0.14607 0.86029 0.94412 0.0
C406 C 0.14202 0.82334 0.04527 0.0
H407 H 0.1568 0.91326 0.22218 0.0
H408 H 0.13992 0.90279 0.15062 0.0
H409 H 0.13047 0.81288 0.10893 0.0
H410 H 0.14926 0.78222 0.90424 0.0
H411 H 0.16513 0.79336 0.97536 0.0
H412 H 0.17599 0.8844 0.0146 0.0
C413 C 0.14842 0.88554 0.16964 0.0
C414 C 0.14038 0.82865 0.08862 0.0
C415 C 0.15761 0.89143 0.21078 0.0
C416 C 0.14905 0.80421 0.91432 0.0
C417 C 0.15792 0.8106 0.95531 0.0
C418 C 0.16587 0.86872 0.03482 0.0
C419 C 0.15292 0.85835 0.15186 0.0
C420 C 0.15148 0.85404 0.10554 0.0
C421 C 0.15441 0.83829 0.97162 0.0
C422 C 0.15491 0.84325 0.0179 0.0
H423 H 0.18359 0.82561 0.23601 0.0
H424 H 0.16697 0.81509 0.16486 0.0
H425 H 0.17359 0.8935 0.09051 0.0
H426 H 0.12808 0.87086 0.88422 0.0
H427 H 0.14348 0.88197 0.95549 0.0
C428 C 0.09544 0.64405 0.71575 0.0
C429 C 0.11968 0.65418 0.73711 0.0
C430 C 0.09817 0.63285 0.67494 0.0
C431 C 0.15049 0.61287 0.59165 0.0
H432 H 0.10477 0.66233 0.52007 0.0
C433 C 0.18754 0.63387 0.42633 0.0
C434 C 0.16772 0.62627 0.39493 0.0
C435 C 0.17847 0.6395 0.46739 0.0
C436 C 0.11748 0.64825 0.53965 0.0
H437 H 0.1658 0.65701 0.73605 0.0
H438 H 0.17077 0.6367 0.66567 0.0
H439 H 0.09372 0.65853 0.59549 0.0
H440 H 0.12249 0.62311 0.38051 0.0
H441 H 0.10668 0.63237 0.45282 0.0
H442 H 0.17479 0.60325 0.53625 0.0
C443 C 0.14965 0.63762 0.67967 0.0
C444 C 0.11098 0.64576 0.58265 0.0
C445 C 0.14688 0.64918 0.72006 0.0
C446 C 0.13835 0.62862 0.40409 0.0
C447 C 0.12925 0.63382 0.44555 0.0
C448 C 0.157 0.61541 0.54885 0.0
C449 C 0.1252 0.63128 0.65566 0.0
C450 C 0.12796 0.62865 0.60924 0.0
C451 C 0.14946 0.63718 0.47795 0.0
C452 C 0.14114 0.63382 0.52275 0.0
H453 H 0.07422 0.64797 0.72827 0.0
H454 H 0.07905 0.62771 0.65722 0.0
H455 H 0.16373 0.59935 0.61135 0.0
H456 H 0.21022 0.63176 0.42091 0.0
H457 H 0.19443 0.64292 0.4917 0.0
C458 C 0.34437 0.6129 0.20609 0.0
C459 C 0.3317 0.63462 0.2303 0.0
C460 C 0.3527 0.61838 0.16439 0.0
C461 C 0.3609 0.67514 0.08322 0.0
H462 H 0.32424 0.61961 0.00984 0.0
C463 C 0.35301 0.699 0.90922 0.0
C464 C 0.36635 0.67781 0.88474 0.0
C465 C 0.34334 0.69281 0.94989 0.0
C466 C 0.33458 0.63526 0.02992 0.0
H467 H 0.32139 0.67965 0.23275 0.0
H468 H 0.33649 0.68942 0.16065 0.0
H469 H 0.32683 0.61076 0.0858 0.0
H470 H 0.37432 0.63219 0.88007 0.0
H471 H 0.35752 0.62138 0.9508 0.0
H472 H 0.36866 0.69968 0.02754 0.0
C473 C 0.33975 0.66815 0.17316 0.0
C474 C 0.33641 0.63005 0.07332 0.0
C475 C 0.33124 0.66262 0.21458 0.0
C476 C 0.36483 0.64927 0.89849 0.0
C477 C 0.35519 0.64302 0.93925 0.0
C478 C 0.35906 0.68036 0.03989 0.0
C479 C 0.34873 0.64568 0.14681 0.0
C480 C 0.34959 0.64995 0.10042 0.0
C481 C 0.34654 0.66518 0.96643 0.0
C482 C 0.34582 0.66051 0.01276 0.0
H483 H 0.34469 0.59108 0.21746 0.0
H484 H 0.36018 0.60081 0.14496 0.0
H485 H 0.37124 0.69081 0.10327 0.0
H486 H 0.35315 0.72095 0.89917 0.0
H487 H 0.33589 0.71017 0.96964 0.0
C488 C 0.4951 0.39313 0.04599 0.0
C489 C 0.50645 0.39267 0.08715 0.0
C490 C 0.49108 0.41909 0.02494 0.0
C491 C 0.51685 0.49337 0.02495 0.0
H492 H 0.44768 0.5094 0.96195 0.0
C493 C 0.4908 0.60591 0.96294 0.0
C494 C 0.47942 0.60788 0.92192 0.0
C495 C 0.49369 0.57937 0.98258 0.0
C496 C 0.46725 0.50511 0.97905 0.0
H497 H 0.52183 0.41929 0.13877 0.0
H498 H 0.51462 0.4642 0.10227 0.0
H499 H 0.45337 0.46314 0.99657 0.0
H500 H 0.46208 0.58336 0.86946 0.0
H501 H 0.46745 0.53718 0.90358 0.0
H502 H 0.5308 0.53521 0.00751 0.0
C503 C 0.50925 0.44454 0.08599 0.0
C504 C 0.47049 0.47863 0.99882 0.0
C505 C 0.51321 0.41872 0.10699 0.0
C506 C 0.4709 0.5827 0.90111 0.0
C507 C 0.4738 0.55619 0.92074 0.0
C508 C 0.51363 0.51977 1.00518 0.0
C509 C 0.49843 0.44502 0.04463 0.0
C510 C 0.49524 0.4726 0.02223 0.0
C511 C 0.48528 0.55422 0.96164 0.0
C512 C 0.48873 0.52601 0.98223 0.0
H513 H 0.48967 0.37346 0.0298 0.0
H514 H 0.48282 0.41883 0.99295 0.0
H515 H 0.53639 0.48913 0.04216 0.0
H516 H 0.49747 0.62486 0.97997 0.0
H517 H 0.50227 0.57857 0.01436 0.0
C518 C 0.58349 0.03458 0.61189 0.0
C519 C 0.60858 0.02598 0.59082 0.0
C520 C 0.55683 0.03158 0.59256 0.0
C521 C 0.52005 0.99131 0.50842 0.0
H522 H 0.46314 0.05128 0.51738 0.0
C523 C 0.41884 0.99139 0.4064 0.0
C524 C 0.39275 0.99849 0.42594 0.0
C525 C 0.44465 0.99519 0.42761 0.0
C526 C 0.4787 0.03422 0.51504 0.0
H527 H 0.62521 0.00776 0.53259 0.0
H528 H 0.57874 0.00279 0.49879 0.0
H529 H 0.50944 0.05718 0.55193 0.0
H530 H 0.37351 0.0156 0.48312 0.0
H531 H 0.41883 0.02218 0.52033 0.0
H532 H 0.48945 0.9684 0.47141 0.0
C533 C 0.57969 0.01149 0.53053 0.0
C534 C 0.50521 0.03759 0.53479 0.0
C535 C 0.60636 0.01449 0.54984 0.0
C536 C 0.39319 0.00992 0.46712 0.0
C537 C 0.41914 0.0138 0.48838 0.0
C538 C 0.49361 0.98796 0.48868 0.0
C539 C 0.55462 0.0199 0.55173 0.0
C540 C 0.52625 0.01624 0.53144 0.0
C541 C 0.44511 0.00621 0.46894 0.0
C542 C 0.47272 0.00946 0.49147 0.0
H543 H 0.58435 0.0435 0.6435 0.0
H544 H 0.53791 0.03797 0.60992 0.0
H545 H 0.53556 0.97421 0.50595 0.0
H546 H 0.41944 0.98267 0.37464 0.0
H547 H 0.46432 0.98962 0.41148 0.0
C548 C 0.98686 0.08452 0.10693 0.0
C549 C 0.9944 0.11047 0.0875 0.0
C550 C 0.99088 0.05856 0.08596 0.0
C551 C 1.00012 0.02736 0.97945 0.0
H552 H 0.02709 0.96151 0.04205 0.0
C553 C 0.03071 0.92084 0.89818 0.0
C554 C 0.02202 0.89545 0.91818 0.0
C555 C 0.02755 0.94721 0.91845 0.0
C556 C 0.01925 0.97962 0.02422 0.0
H557 H 0.01229 0.12929 0.03062 0.0
H558 H 0.0196 0.08386 0.9942 0.0
H559 H 0.02183 0.00731 0.07798 0.0
H560 H 0.00301 0.87805 0.97529 0.0
H561 H 0.99739 0.92407 0.01047 0.0
H562 H 0.99759 0.9996 0.92567 0.0
C563 C 0.01023 0.08371 0.02555 0.0
C564 C 0.01625 0.00588 0.0448 0.0
C565 C 0.0062 0.10975 0.04655 0.0
C566 C 0.01001 0.89712 0.95892 0.0
C567 C 0.00693 0.92351 0.97924 0.0
C568 C 0.00318 1.00108 0.95884 0.0
C569 C 1.00258 0.0578 0.04501 0.0
C570 C 0.00652 0.03006 0.02273 0.0
C571 C 0.01571 0.94885 0.95927 0.0
C572 C 0.01267 0.97687 0.98103 0.0
H573 H 0.97759 0.08418 0.13834 0.0
H574 H 0.98435 0.03907 0.10165 0.0
H575 H 0.99218 0.04544 0.96165 0.0
H576 H 0.0401 0.92041 0.86684 0.0
H577 H 0.03483 0.9663 0.90239 0.0
C578 C 0.9191 0.48078 0.61408 0.0
C579 C 0.89378 0.48801 0.59263 0.0
C580 C 0.94566 0.4838 0.59447 0.0
C581 C 0.98223 0.52101 0.50707 0.0
H582 H 0.03919 0.46155 0.52107 0.0
C583 C 0.0844 0.51753 0.40653 0.0
C584 C 0.11033 0.51099 0.42682 0.0
C585 C 0.05841 0.51449 0.42764 0.0
C586 C 0.02364 0.47849 0.51729 0.0
H587 H 0.87671 0.50425 0.5336 0.0
H588 H 0.92316 0.50933 0.49922 0.0
H589 H 0.99276 0.45688 0.55564 0.0
H590 H 0.12909 0.49568 0.48527 0.0
H591 H 0.08346 0.49043 0.52232 0.0
H592 H 0.01303 0.54255 0.4686 0.0
C593 C 0.92239 0.50159 0.53147 0.0
C594 C 0.99702 0.47582 0.53705 0.0
C595 C 0.89574 0.49856 0.55111 0.0
C596 C 0.10955 0.50087 0.46867 0.0
C597 C 0.08341 0.49778 0.48985 0.0
C598 C 0.0088 0.52366 0.48731 0.0
C599 C 0.94764 0.49412 0.5529 0.0
C600 C 0.97597 0.49701 0.53204 0.0
C601 C 0.05758 0.50484 0.46963 0.0
C602 C 0.02976 0.50236 0.49199 0.0
H603 H 0.91851 0.47268 0.64615 0.0
H604 H 0.9647 0.47828 0.6121 0.0
H605 H 0.96669 0.53794 0.50319 0.0
H606 H 0.08405 0.52522 0.37424 0.0
H607 H 0.0389 0.51959 0.41089 0.0
C608 C 0.68339 0.21715 0.0919 0.0
C609 C 0.6613 0.23714 0.09403 0.0
C610 C 0.70155 0.21669 0.05696 0.0
C611 C 0.73372 0.26969 0.99518 0.0
H612 H 0.78326 0.20412 0.98198 0.0
C613 C 0.84386 0.27489 0.06086 0.0
C614 C 0.84106 0.25747 0.09696 0.0
C615 C 0.82574 0.27113 0.02611 0.0
C616 C 0.76973 0.22288 0.98339 0.0
H617 H 0.63795 0.2695 0.05958 0.0
H618 H 0.67056 0.26962 0.99876 0.0
H619 H 0.73171 0.19764 0.98064 0.0
H620 H 0.81792 0.22172 0.12402 0.0
H621 H 0.78666 0.21518 0.06402 0.0
H622 H 0.77159 0.29425 1.00407 0.0
C623 C 0.67409 0.25454 0.02418 0.0
C624 C 0.74014 0.21915 0.9828 0.0
C625 C 0.65591 0.25494 0.05928 0.0
C626 C 0.82056 0.23564 0.09695 0.0
C627 C 0.80303 0.23149 0.06205 0.0
C628 C 0.76329 0.27339 0.99569 0.0
C629 C 0.69781 0.23619 0.02343 0.0
C630 C 0.72232 0.24189 0.99502 0.0
C631 C 0.80501 0.24951 0.02658 0.0
C632 C 0.78111 0.24929 0.99614 0.0
H633 H 0.68728 0.20269 0.118 0.0
H634 H 0.71983 0.20251 0.05791 0.0
H635 H 0.72047 0.28792 1.00303 0.0
H636 H 0.85963 0.29181 0.05974 0.0
H637 H 0.82725 0.28566 0.99955 0.0
C638 C 0.73398 0.34663 0.55851 0.0
C639 C 0.73492 0.33742 0.60093 0.0
C640 C 0.73879 0.32718 0.52547 0.0
C641 C 0.73499 0.25408 0.49534 0.0
H642 H 0.81678 0.24393 0.50502 0.0
C643 C 0.78701 0.18979 0.60973 0.0
C644 C 0.78337 0.16077 0.60095 0.0
C645 C 0.78735 0.20951 0.57692 0.0
C646 C 0.79406 0.24638 0.4995 0.0
H647 H 0.73986 0.30093 0.64219 0.0
H648 H 0.74705 0.26692 0.5848 0.0
H649 H 0.7969 0.29181 0.50346 0.0
H650 H 0.77806 0.12908 0.55145 0.0
H651 H 0.77622 0.16435 0.49371 0.0
H652 H 0.73201 0.20861 0.49783 0.0
C653 C 0.74308 0.28911 0.57705 0.0
C654 C 0.7826 0.27391 0.49857 0.0
C655 C 0.73912 0.30849 0.60982 0.0
C656 C 0.78095 0.15153 0.5587 0.0
C657 C 0.78018 0.1715 0.52578 0.0
C658 C 0.74649 0.22656 0.49548 0.0
C659 C 0.7436 0.29835 0.53478 0.0
C660 C 0.75295 0.27756 0.50276 0.0
C661 C 0.78315 0.20068 0.53482 0.0
C662 C 0.7757 0.22284 0.50372 0.0
H663 H 0.73101 0.36902 0.55107 0.0
H664 H 0.73958 0.33469 0.4931 0.0
H665 H 0.71202 0.25647 0.49781 0.0
H666 H 0.78911 0.19726 0.64205 0.0
H667 H 0.78902 0.23198 0.5848 0.0
C668 C 0.34889 0.77786 0.9496 0.0
C669 C 0.33954 0.77784 0.90722 0.0
C670 C 0.3292 0.77473 0.9827 0.0
C671 C 0.25491 0.78208 0.01121 0.0
H672 H 0.24708 0.69984 0.01377 0.0
C673 C 0.19259 0.72254 0.90497 0.0
C674 C 0.16336 0.72468 0.91343 0.0
C675 C 0.21225 0.72489 0.93768 0.0
C676 C 0.24891 0.72287 0.01594 0.0
H677 H 0.30267 0.77607 0.86612 0.0
H678 H 0.26826 0.77167 0.92373 0.0
H679 H 0.29438 0.72103 0.01125 0.0
H680 H 0.1313 0.72999 0.96246 0.0
H681 H 0.16632 0.73623 0.01996 0.0
H682 H 0.20939 0.78374 0.01015 0.0
C683 C 0.29072 0.77391 0.93139 0.0
C684 C 0.27611 0.73508 0.01426 0.0
C685 C 0.31032 0.77618 0.89847 0.0
C686 C 0.1539 0.72809 0.95545 0.0
C687 C 0.17375 0.73145 0.98826 0.0
C688 C 0.22774 0.76989 0.01377 0.0
C689 C 0.3 0.77259 0.97364 0.0
C690 C 0.27884 0.76437 1.00584 0.0
C691 C 0.20309 0.7302 0.97937 0.0
C692 C 0.22478 0.74017 0.00968 0.0
H693 H 0.37147 0.77874 0.95698 0.0
H694 H 0.33676 0.77309 0.01499 0.0
H695 H 0.25662 0.80484 1.00558 0.0
H696 H 0.20028 0.71983 0.87285 0.0
H697 H 0.23481 0.72452 0.92989 0.0
C698 C 0.26921 0.82274 0.41436 0.0
C699 C 0.24837 0.8442 0.41517 0.0
C700 C 0.27368 0.80561 0.44952 0.0
C701 C 0.23084 0.77136 0.52452 0.0
H702 H 0.30189 0.72957 0.51655 0.0
C703 C 0.23644 0.68529 0.41508 0.0
C704 C 0.25943 0.66628 0.41149 0.0
C705 C 0.23399 0.7031 0.45019 0.0
C706 C 0.28171 0.74046 0.52099 0.0
H707 H 0.21647 0.86523 0.45429 0.0
H708 H 0.22337 0.83403 0.51549 0.0
H709 H 0.30278 0.78086 0.52195 0.0
H710 H 0.29822 0.65143 0.44155 0.0
H711 H 0.2936 0.6819 0.5037 0.0
H712 H 0.20964 0.73104 0.52133 0.0
C713 C 0.23672 0.83108 0.48779 0.0
C714 C 0.2823 0.77018 0.52419 0.0
C715 C 0.23249 0.8486 0.45252 0.0
C716 C 0.27986 0.66538 0.44398 0.0
C717 C 0.27725 0.68295 0.47956 0.0
C718 C 0.23022 0.74157 0.52317 0.0
C719 C 0.25708 0.80906 0.48641 0.0
C720 C 0.2569 0.78556 0.51776 0.0
C721 C 0.2546 0.70257 0.48275 0.0
C722 C 0.2555 0.72654 0.51377 0.0
H723 H 0.28203 0.81892 0.38634 0.0
H724 H 0.28904 0.78842 0.44654 0.0
H725 H 0.21072 0.7827 0.52241 0.0
H726 H 0.22031 0.68659 0.3906 0.0
H727 H 0.21665 0.71838 0.4503 0.0
C728 C 0.58661 0.2229 0.05053 0.0
C729 C 0.55696 0.22532 0.05513 0.0
C730 C 0.59898 0.20657 0.01831 0.0
C731 C 0.58519 0.1507 0.93549 0.0
H732 H 0.65767 0.17903 0.89342 0.0
C733 C 0.65366 0.1033 0.79125 0.0
C734 C 0.68321 0.10176 0.79941 0.0
C735 C 0.63483 0.11569 0.8213 0.0
C736 C 0.63751 0.17065 0.90482 0.0
H737 H 0.51659 0.21322 0.02697 0.0
H738 H 0.53811 0.18474 0.96926 0.0
H739 H 0.63141 0.20653 0.94556 0.0
H740 H 0.71569 0.11053 0.84635 0.0
H741 H 0.68337 0.13147 0.89807 0.0
H742 H 0.59163 0.11486 0.89339 0.0
C743 C 0.55202 0.1949 0.9921 0.0
C744 C 0.62237 0.18642 0.93516 0.0
C745 C 0.53962 0.21132 0.02512 0.0
C746 C 0.69308 0.11126 0.83903 0.0
C747 C 0.67454 0.12357 0.86862 0.0
C748 C 0.60034 0.13494 0.90448 0.0
C749 C 0.58206 0.19251 0.98795 0.0
C750 C 0.59632 0.17645 0.95207 0.0
C751 C 0.64531 0.12699 0.85977 0.0
C752 C 0.62712 0.1444 0.88954 0.0
H753 H 0.60033 0.235 0.07094 0.0
H754 H 0.62207 0.20531 0.01713 0.0
H755 H 0.56526 0.14219 0.94747 0.0
H756 H 0.64541 0.09669 0.76077 0.0
H757 H 0.61244 0.11795 0.8134 0.0
C758 C 0.77301 0.05842 0.51185 0.0
C759 C 0.7816 0.05562 0.55429 0.0
C760 C 0.79142 0.07016 0.48129 0.0
C761 C 0.85904 0.11371 0.47143 0.0
H762 H 0.8497 0.09595 0.35253 0.0
C763 C 0.90748 0.18576 0.34125 0.0
C764 C 0.91248 0.17529 0.3002 0.0
C765 C 0.89602 0.16826 0.37293 0.0
C766 C 0.85316 0.10095 0.38556 0.0
H767 H 0.81713 0.06182 0.59706 0.0
H768 H 0.84958 0.08097 0.54397 0.0
H769 H 0.82158 0.07054 0.40486 0.0
H770 H 0.91002 0.1377 0.26064 0.0
H771 H 0.89156 0.10637 0.31655 0.0
H772 H 0.89149 0.14315 0.45241 0.0
C773 C 0.82819 0.07523 0.53421 0.0
C774 C 0.83642 0.08662 0.41588 0.0
C775 C 0.80957 0.06394 0.56491 0.0
C776 C 0.90722 0.14623 0.29225 0.0
C777 C 0.89592 0.12847 0.32425 0.0
C778 C 0.8761 0.12765 0.44122 0.0
C779 C 0.81934 0.07908 0.49188 0.0
C780 C 0.83863 0.09306 0.45942 0.0
C781 C 0.88914 0.13945 0.36483 0.0
C782 C 0.87312 0.12204 0.39754 0.0
H783 H 0.7515 0.05268 0.50252 0.0
H784 H 0.78322 0.07307 0.44961 0.0
H785 H 0.86149 0.11983 0.50424 0.0
H786 H 0.91045 0.20827 0.34804 0.0
H787 H 0.89085 0.17811 0.40296 0.0
C788 C 0.84959 0.38478 0.78207 0.0
C789 C 0.82881 0.40514 0.79321 0.0
C790 C 0.86751 0.37262 0.81279 0.0
C791 C 0.89044 0.37696 0.92706 0.0
H792 H 0.90267 0.29567 0.91223 0.0
C793 C 0.92966 0.30277 0.06385 0.0
C794 C 0.94751 0.27942 0.05407 0.0
C795 C 0.91787 0.31996 0.03186 0.0
C796 C 0.89992 0.31843 0.91681 0.0
H797 H 0.81087 0.42891 0.84553 0.0
H798 H 0.84211 0.40799 0.89926 0.0
H799 H 0.87845 0.32272 0.85744 0.0
H800 H 0.96757 0.25683 1.00199 0.0
H801 H 0.94751 0.2869 0.94648 0.0
H802 H 0.91153 0.37237 0.98699 0.0
C803 C 0.84516 0.40175 0.86658 0.0
C804 C 0.88597 0.33411 0.88509 0.0
C805 C 0.82733 0.41405 0.83565 0.0
C806 C 0.95399 0.27453 0.01111 0.0
C807 C 0.94215 0.29167 0.97906 0.0
C808 C 0.90438 0.36122 0.9589 0.0
C809 C 0.86485 0.38002 0.85591 0.0
C810 C 0.88091 0.36368 0.88956 0.0
C811 C 0.9235 0.31443 0.98882 0.0
C812 C 0.90932 0.33164 0.95437 0.0
H813 H 0.85077 0.3769 0.74986 0.0
H814 H 0.88272 0.35654 0.80282 0.0
H815 H 0.88734 0.39966 0.9318 0.0
H816 H 0.92436 0.30769 0.09625 0.0
H817 H 0.90355 0.33707 0.04097 0.0
C818 C 0.7283 0.4533 0.51182 0.0
C819 C 0.72251 0.44812 0.55489 0.0
C820 C 0.71041 0.44237 0.47989 0.0
C821 C 0.65525 0.38563 0.46136 0.0
H822 H 0.64392 0.42542 0.3553 0.0
C823 C 0.5846 0.33647 0.32889 0.0
C824 C 0.5968 0.33679 0.28824 0.0
C825 C 0.59592 0.35361 0.36151 0.0
C826 C 0.64689 0.4139 0.38465 0.0
H827 H 0.69194 0.42858 0.59743 0.0
H828 H 0.6609 0.4099 0.54249 0.0
H829 H 0.67173 0.4479 0.4115 0.0
H830 H 0.62964 0.3562 0.24962 0.0
H831 H 0.64875 0.38654 0.30557 0.0
H832 H 0.63066 0.35153 0.43437 0.0
C833 C 0.67974 0.42172 0.5331 0.0
C834 C 0.66302 0.42681 0.41699 0.0
C835 C 0.69765 0.43259 0.56492 0.0
C836 C 0.61928 0.35601 0.28031 0.0
C837 C 0.63039 0.3733 0.31264 0.0
C838 C 0.63903 0.37279 0.4291 0.0
C839 C 0.68602 0.42599 0.48995 0.0
C840 C 0.66773 0.41279 0.45582 0.0
C841 C 0.61967 0.37159 0.35422 0.0
C842 C 0.63481 0.38656 0.39001 0.0
H843 H 0.74731 0.46493 0.50259 0.0
H844 H 0.71633 0.44599 0.44722 0.0
H845 H 0.65868 0.37375 0.49027 0.0
H846 H 0.56782 0.32135 0.33633 0.0
H847 H 0.58679 0.35192 0.3929 0.0
C848 C 0.43256 0.80531 0.94898 0.0
C849 C 0.44806 0.78038 0.95869 0.0
C850 C 0.42186 0.82323 0.98106 0.0
C851 C 0.40328 0.82248 0.09637 0.0
H852 H 0.39472 0.90419 0.08134 0.0
C853 C 0.35744 0.89155 0.23161 0.0
C854 C 0.33638 0.91163 0.22066 0.0
C855 C 0.37493 0.879 0.20059 0.0
C856 C 0.39679 0.88139 0.08607 0.0
H857 H 0.4655 0.75585 0.01073 0.0
H858 H 0.44772 0.78731 0.06634 0.0
H859 H 0.41754 0.87559 0.02604 0.0
H860 H 0.31778 0.93478 0.16841 0.0
H861 H 0.34857 0.91338 0.11419 0.0
H862 H 0.38236 0.82811 0.15607 0.0
C863 C 0.44304 0.7927 0.03378 0.0
C864 C 0.40988 0.86487 0.05416 0.0
C865 C 0.45365 0.77474 1.00166 0.0
C866 C 0.33447 0.92017 0.17813 0.0
C867 C 0.35198 0.90756 0.14693 0.0
C868 C 0.39033 0.83896 0.12823 0.0
C869 C 0.42645 0.81699 0.02412 0.0
C870 C 0.41329 0.83506 0.05868 0.0
C871 C 0.37165 0.88585 0.15745 0.0
C872 C 0.38678 0.86871 0.12369 0.0
H873 H 0.42821 0.8109 0.91657 0.0
H874 H 0.40915 0.84153 0.97193 0.0
H875 H 0.40475 0.79962 0.10098 0.0
H876 H 0.35893 0.88393 0.26389 0.0
H877 H 0.39015 0.86289 0.2103 0.0
C878 C 0.13852 0.83317 0.72022 0.0
C879 C 0.10935 0.8258 0.72185 0.0
C880 C 0.14915 0.85218 0.68997 0.0
C881 C 0.13217 0.88436 0.58428 0.0
H882 H 0.20288 0.92451 0.60688 0.0
C883 C 0.20259 0.93017 0.44736 0.0
C884 C 0.22291 0.95169 0.4554 0.0
C885 C 0.1858 0.91851 0.48003 0.0
C886 C 0.1829 0.91402 0.5996 0.0
H887 H 0.06821 0.83416 0.69335 0.0
H888 H 0.0866 0.86846 0.64085 0.0
H889 H 0.17847 0.90039 0.66372 0.0
H890 H 0.23939 0.97932 0.50474 0.0
H891 H 0.20924 0.96052 0.56078 0.0
H892 H 0.13598 0.8992 0.52043 0.0
C893 C 0.10147 0.85881 0.66277 0.0
C894 C 0.16898 0.89947 0.63255 0.0
C895 C 0.09074 0.83945 0.69337 0.0
C896 C 0.22435 0.96254 0.49695 0.0
C897 C 0.20717 0.95128 0.52955 0.0
C898 C 0.14587 0.8994 0.55132 0.0
C899 C 0.13106 0.86509 0.66001 0.0
C900 C 0.14373 0.88367 0.62545 0.0
C901 C 0.18813 0.92836 0.52212 0.0
C902 C 0.1719 0.91409 0.55806 0.0
H903 H 0.15365 0.82322 0.74153 0.0
H904 H 0.172 0.85561 0.68912 0.0
H905 H 0.11292 0.87255 0.57696 0.0
H906 H 0.19998 0.92172 0.41592 0.0
H907 H 0.17173 0.90097 0.47214 0.0
C908 C 0.16821 0.5866 0.17893 0.0
C909 C 0.16695 0.59607 0.22114 0.0
C910 C 0.15062 0.59892 0.14769 0.0
C911 C 0.11338 0.66787 0.12715 0.0
H912 H 0.08372 0.6295 0.02784 0.0
C913 C 0.0493 0.73058 1.0002 0.0
C914 C 0.0539 0.72371 0.95731 0.0
C915 C 0.0601 0.71317 0.03273 0.0
C916 C 0.09208 0.64071 0.05512 0.0
H917 H 0.14544 0.62514 0.26379 0.0
H918 H 0.1141 0.64572 0.21021 0.0
H919 H 0.10694 0.60172 0.08344 0.0
H920 H 0.07206 0.69158 0.9159 0.0
H921 H 0.09152 0.66195 0.97187 0.0
H922 H 0.0993 0.70687 0.09873 0.0
C923 C 0.12888 0.62909 0.20075 0.0
C924 C 0.1054 0.62466 0.08721 0.0
C925 C 0.14644 0.61682 0.23179 0.0
C926 C 0.06855 0.69814 0.9482 0.0
C927 C 0.07947 0.68078 0.98066 0.0
C928 C 0.10023 0.68389 0.09508 0.0
C929 C 0.13152 0.62127 0.15784 0.0
C930 C 0.11627 0.63797 0.12384 0.0
C931 C 0.07591 0.68822 0.02358 0.0
C932 C 0.08932 0.67068 0.05841 0.0
H933 H 0.18446 0.57142 0.16937 0.0
H934 H 0.15351 0.59233 0.11512 0.0
H935 H 0.12202 0.67917 0.15417 0.0
H936 H 0.03814 0.75001 0.00879 0.0
H937 H 0.05622 0.7195 0.06518 0.0
C938 C 0.37537 0.66101 0.72677 0.0
C939 C 0.40116 0.67587 0.72025 0.0
C940 C 0.36444 0.6423 0.69598 0.0
C941 C 0.36504 0.63199 0.57996 0.0
H942 H 0.32095 0.56389 0.60496 0.0
C943 C 0.28116 0.58804 0.46293 0.0
C944 C 0.27895 0.5585 0.45575 0.0
C945 C 0.29852 0.59903 0.49523 0.0
C946 C 0.33339 0.58268 0.59725 0.0
H947 H 0.43592 0.68217 0.67616 0.0
H948 H 0.41697 0.64942 0.62215 0.0
H949 H 0.34783 0.58775 0.66141 0.0
H950 H 0.29227 0.51718 0.47916 0.0
H951 H 0.32329 0.53649 0.53548 0.0
H952 H 0.35009 0.62743 0.51617 0.0
C953 C 0.4052 0.65212 0.65141 0.0
C954 C 0.34869 0.59656 0.62978 0.0
C955 C 0.41638 0.67059 0.68266 0.0
C956 C 0.29401 0.5401 0.48305 0.0
C957 C 0.31166 0.5512 0.51549 0.0
C958 C 0.34951 0.61836 0.54766 0.0
C959 C 0.37864 0.63824 0.65711 0.0
C960 C 0.36452 0.62166 0.62179 0.0
C961 C 0.31442 0.58096 0.5217 0.0
C962 C 0.33307 0.5937 0.5558 0.0
H963 H 0.36282 0.66503 0.755 0.0
H964 H 0.34389 0.6324 0.70166 0.0
H965 H 0.37662 0.65134 0.57236 0.0
H966 H 0.26835 0.60269 0.44465 0.0
H967 H 0.29888 0.62184 0.50052 0.0
C968 C 0.46556 0.22798 0.21292 0.0
C969 C 0.4913 0.21623 0.22774 0.0
C970 C 0.43944 0.2145 0.22154 0.0
C971 C 0.40385 0.16331 0.29203 0.0
H972 H 0.36191 0.13753 0.19327 0.0
C973 C 0.31278 0.08361 0.31127 0.0
C974 C 0.31841 0.05823 0.28877 0.0
C975 C 0.32653 0.10908 0.3003 0.0
C976 C 0.37315 0.1449 0.22116 0.0
H977 H 0.50988 0.18211 0.2648 0.0
H978 H 0.46432 0.15919 0.28113 0.0
H979 H 0.40143 0.1715 0.18498 0.0
H980 H 0.3398 0.04085 0.23345 0.0
H981 H 0.36337 0.08531 0.21409 0.0
H982 H 0.37652 0.13601 0.32812 0.0
C983 C 0.46428 0.17861 0.26254 0.0
C984 C 0.39563 0.16443 0.21646 0.0
C985 C 0.49034 0.19168 0.25314 0.0
C986 C 0.33518 0.05985 0.25183 0.0
C987 C 0.3487 0.08541 0.24064 0.0
C988 C 0.38115 0.14419 0.29682 0.0
C989 C 0.43864 0.18944 0.24596 0.0
C990 C 0.41175 0.17309 0.25173 0.0
C991 C 0.34581 0.10984 0.2662 0.0
C992 C 0.36608 0.1341 0.26132 0.0
H993 H 0.46575 0.24659 0.19269 0.0
H994 H 0.41996 0.22326 0.20841 0.0
H995 H 0.41592 0.16967 0.31971 0.0
H996 H 0.29974 0.08336 0.33962 0.0
H997 H 0.32348 0.12774 0.32011 0.0
C998 C 0.78031 0.96117 0.70914 0.0
C999 C 0.78863 0.98689 0.72855 0.0
C1000 C 0.7964 0.93617 0.71559 0.0
C1001 C 0.83444 0.88468 0.74874 0.0
H1002 H 0.91403 0.90507 0.73215 0.0
C1003 C 0.93162 0.81736 0.80315 0.0
C1004 C 0.95785 0.82109 0.78193 0.0
C1005 C 0.90695 0.83139 0.78918 0.0
C1006 C 0.89193 0.89873 0.73608 0.0
H1007 H 0.81809 0.00621 0.77285 0.0
H1008 H 0.84547 0.96279 0.78491 0.0
H1009 H 0.87752 0.94156 0.7272 0.0
H1010 H 0.97759 0.83908 0.72586 0.0
H1011 H 0.93452 0.86285 0.70099 0.0
H1012 H 0.84926 0.84172 0.75855 0.0
C1013 C 0.82711 0.96185 0.76412 0.0
C1014 C 0.871 0.91982 0.73387 0.0
C1015 C 0.81129 0.98663 0.75754 0.0
C1016 C 0.95795 0.83616 0.74349 0.0
C1017 C 0.93325 0.84998 0.72937 0.0
C1018 C 0.85559 0.86342 0.75135 0.0
C1019 C 0.82084 0.93679 0.74148 0.0
C1020 C 0.84212 0.91323 0.74105 0.0
C1021 C 0.90794 0.84922 0.75347 0.0
C1022 C 0.88467 0.87032 0.74555 0.0
H1023 H 0.76311 0.96098 0.68624 0.0
H1024 H 0.79108 0.91708 0.69786 0.0
H1025 H 0.8123 0.87903 0.75417 0.0
H1026 H 0.93057 0.80566 0.83265 0.0
H1027 H 0.88784 0.83018 0.80845 0.0
C1028 C 0.19077 0.4242 0.30939 0.0
C1029 C 0.18481 0.45002 0.28835 0.0
C1030 C 0.17799 0.39861 0.29624 0.0
C1031 C 0.13173 0.36647 0.21158 0.0
H1032 H 0.0947 0.32874 0.30612 0.0
C1033 C 0.01873 0.32296 0.20504 0.0
C1034 C 0.01317 0.29463 0.21738 0.0
C1035 C 0.04546 0.33523 0.21149 0.0
C1036 C 0.10537 0.33856 0.27941 0.0
H1037 H 0.16342 0.46835 0.23392 0.0
H1038 H 0.14116 0.42425 0.21139 0.0
H1039 H 0.13342 0.36257 0.31929 0.0
H1040 H 0.03161 0.25706 0.24674 0.0
H1041 H 0.07859 0.27933 0.25974 0.0
H1042 H 0.10194 0.34411 0.17212 0.0
C1043 C 0.15558 0.4235 0.23812 0.0
C1044 C 0.12764 0.35795 0.28684 0.0
C1045 C 0.16833 0.44901 0.25122 0.0
C1046 C 0.03514 0.27896 0.23703 0.0
C1047 C 0.06198 0.29161 0.24436 0.0
C1048 C 0.10929 0.34739 0.20426 0.0
C1049 C 0.15911 0.39822 0.26162 0.0
C1050 C 0.14031 0.37306 0.25311 0.0
C1051 C 0.06738 0.31977 0.23106 0.0
C1052 C 0.09521 0.3341 0.23821 0.0
H1053 H 0.20359 0.42404 0.33789 0.0
H1054 H 0.18176 0.37943 0.3145 0.0
H1055 H 0.14139 0.37713 0.18475 0.0
H1056 H 1.00254 0.33572 0.18952 0.0
H1057 H 0.04893 0.35709 0.20148 0.0
C1058 C 0.55025 0.66439 0.75457 0.0
C1059 C 0.54882 0.68098 0.79165 0.0
C1060 C 0.57602 0.65183 0.74193 0.0
C1061 C 0.64144 0.62403 0.79046 0.0
H1062 H 0.65927 0.60407 0.67437 0.0
C1063 C 0.72263 0.53398 0.74181 0.0
C1064 C 0.7088 0.51357 0.7163 0.0
C1065 C 0.70962 0.56062 0.74976 0.0
C1066 C 0.65483 0.60974 0.70698 0.0
H1067 H 0.57425 0.69957 0.84213 0.0
H1068 H 0.61913 0.6778 0.81979 0.0
H1069 H 0.62421 0.64142 0.68892 0.0
H1070 H 0.6712 0.50579 0.67763 0.0
H1071 H 0.64925 0.55157 0.69087 0.0
H1072 H 0.67119 0.59128 0.8083 0.0
C1073 C 0.60015 0.67405 0.80101 0.0
C1074 C 0.63463 0.63102 0.71532 0.0
C1075 C 0.57438 0.68674 0.81358 0.0
C1076 C 0.68237 0.52071 0.69795 0.0
C1077 C 0.66984 0.54719 0.7051 0.0
C1078 C 0.66177 0.60276 0.78206 0.0
C1079 C 0.60105 0.65553 0.76599 0.0
C1080 C 0.62675 0.63759 0.75715 0.0
C1081 C 0.6831 0.56743 0.73121 0.0
C1082 C 0.66772 0.59456 0.74023 0.0
H1083 H 0.53111 0.65953 0.73673 0.0
H1084 H 0.57578 0.6376 0.71488 0.0
H1085 H 0.63581 0.62837 0.82309 0.0
H1086 H 0.74307 0.52917 0.75617 0.0
H1087 H 0.72024 0.57587 0.77018 0.0
C1088 C 0.67097 0.95416 0.76193 0.0
C1089 C 0.681 0.95574 0.72011 0.0
C1090 C 0.65762 0.92933 0.7767 0.0
C1091 C 0.63709 0.85393 0.74601 0.0
H1092 H 0.57079 0.87196 0.81457 0.0
C1093 C 0.5313 0.78717 0.75996 0.0
C1094 C 0.51915 0.78605 0.80054 0.0
C1095 C 0.55664 0.80263 0.75319 0.0
C1096 C 0.58941 0.86644 0.79586 0.0
H1097 H 0.68689 0.93151 0.66212 0.0
H1098 H 0.66273 0.88906 0.68697 0.0
H1099 H 0.60528 0.90896 0.79913 0.0
H1100 H 0.5245 0.79819 0.86612 0.0
H1101 H 0.56863 0.82477 0.85452 0.0
H1102 H 0.61963 0.81152 0.741 0.0
C1103 C 0.66554 0.90656 0.70899 0.0
C1104 C 0.60946 0.88768 0.78721 0.0
C1105 C 0.67944 0.93113 0.69458 0.0
C1106 C 0.53362 0.79871 0.83458 0.0
C1107 C 0.55874 0.81405 0.8279 0.0
C1108 C 0.61663 0.8327 0.75414 0.0
C1109 C 0.65331 0.9057 0.74967 0.0
C1110 C 0.63359 0.88191 0.76196 0.0
C1111 C 0.56985 0.81725 0.78691 0.0
C1112 C 0.59255 0.83881 0.77911 0.0
H1113 H 0.67215 0.97259 0.78263 0.0
H1114 H 0.64953 0.92921 0.8088 0.0
H1115 H 0.6555 0.84841 0.72691 0.0
H1116 H 0.52021 0.77789 0.7332 0.0
H1117 H 0.56471 0.80487 0.72123 0.0
C1118 C 0.22552 0.0393 0.29517 0.0
C1119 C 0.21245 0.01328 0.2842 0.0
C1120 C 0.21196 0.06531 0.28629 0.0
C1121 C 0.16245 0.1102 0.29332 0.0
H1122 H 0.13117 0.12621 0.18232 0.0
C1123 C 0.0582 0.17162 0.25904 0.0
C1124 C 0.05622 0.18727 0.22117 0.0
C1125 C 0.08375 0.15801 0.2701 0.0
C1126 C 0.14017 0.12243 0.21337 0.0
H1127 H 0.17578 0.99405 0.25357 0.0
H1128 H 0.1527 0.0394 0.23666 0.0
H1129 H 0.16399 0.08618 0.19147 0.0
H1130 H 0.08077 0.20401 0.16835 0.0
H1131 H 0.12509 0.1801 0.18761 0.0
H1132 H 0.13709 0.14539 0.31571 0.0
C1133 C 0.17318 0.0397 0.25261 0.0
C1134 C 0.1588 0.09939 0.21859 0.0
C1135 C 0.18634 0.01377 0.26237 0.0
C1136 C 0.0813 0.19186 0.19747 0.0
C1137 C 0.10674 0.17801 0.20831 0.0
C1138 C 0.14336 0.13301 0.28824 0.0
C1139 C 0.18552 0.06568 0.2653 0.0
C1140 C 0.16961 0.09268 0.25874 0.0
C1141 C 0.10775 0.15971 0.24345 0.0
C1142 C 0.13158 0.13899 0.24833 0.0
H1143 H 0.24549 0.03953 0.3124 0.0
H1144 H 0.22188 0.08509 0.29634 0.0
H1145 H 0.17036 0.1053 0.32467 0.0
H1146 H 0.03944 0.16785 0.27834 0.0
H1147 H 0.08388 0.14412 0.29747 0.0
C1148 C 0.96416 0.72538 0.79604 0.0
C1149 C 0.99038 0.71432 0.78166 0.0
C1150 C 0.93869 0.71007 0.78914 0.0
C1151 C 0.88703 0.67281 0.75463 0.0
H1152 H 0.90074 0.59352 0.7837 0.0
C1153 C 0.817 0.57733 0.701 0.0
C1154 C 0.8178 0.55201 0.72499 0.0
C1155 C 0.83166 0.60177 0.71459 0.0
C1156 C 0.89618 0.61562 0.77624 0.0
H1157 H 0.0103 0.68047 0.74535 0.0
H1158 H 0.96622 0.65436 0.73258 0.0
H1159 H 0.93908 0.62796 0.79013 0.0
H1160 H 0.83107 0.53399 0.78497 0.0
H1161 H 0.85574 0.57677 0.80923 0.0
H1162 H 0.84404 0.66005 0.73988 0.0
C1163 C 0.96519 0.67429 0.75001 0.0
C1164 C 0.91839 0.63533 0.77933 0.0
C1165 C 0.9904 0.68935 0.75703 0.0
C1166 C 0.83043 0.5529 0.7653 0.0
C1167 C 0.8448 0.57741 0.77906 0.0
C1168 C 0.86465 0.65289 0.75122 0.0
C1169 C 0.93931 0.68364 0.76778 0.0
C1170 C 0.91434 0.66398 0.76766 0.0
C1171 C 0.84715 0.60151 0.75268 0.0
C1172 C 0.86912 0.62391 0.7614 0.0
H1173 H 0.96364 0.74447 0.81542 0.0
H1174 H 0.91898 0.71783 0.803 0.0
H1175 H 0.8833 0.69481 0.74562 0.0
H1176 H 0.80737 0.57757 0.66987 0.0
H1177 H 0.83286 0.61991 0.69346 0.0
C1178 C 0.42272 0.31409 0.20043 0.0
C1179 C 0.44806 0.31869 0.22347 0.0
C1180 C 0.39755 0.32851 0.21132 0.0
C1181 C 0.36186 0.37475 0.29111 0.0
H1182 H 0.3394 0.41977 0.1937 0.0
C1183 C 0.27824 0.46742 0.298 0.0
C1184 C 0.29065 0.49345 0.28555 0.0
C1185 C 0.29216 0.44147 0.28957 0.0
C1186 C 0.34512 0.40708 0.22104 0.0
H1187 H 0.46553 0.33898 0.27953 0.0
H1188 H 0.42154 0.36362 0.29884 0.0
H1189 H 0.37262 0.38 0.18467 0.0
H1190 H 0.32647 0.51269 0.25277 0.0
H1191 H 0.3501 0.46746 0.23661 0.0
H1192 H 0.33492 0.40267 0.32759 0.0
C1193 C 0.42128 0.34928 0.27191 0.0
C1194 C 0.364 0.38419 0.21589 0.0
C1195 C 0.44657 0.33512 0.26077 0.0
C1196 C 0.3164 0.49295 0.2627 0.0
C1197 C 0.3299 0.46708 0.25338 0.0
C1198 C 0.34252 0.3974 0.29614 0.0
C1199 C 0.39701 0.34741 0.24591 0.0
C1200 C 0.37321 0.36824 0.25101 0.0
C1201 C 0.31829 0.44114 0.26755 0.0
C1202 C 0.33465 0.41428 0.2613 0.0
H1203 H 0.42286 0.30139 0.17176 0.0
H1204 H 0.379 0.32626 0.19113 0.0
H1205 H 0.36858 0.36286 0.31872 0.0
H1206 H 0.25857 0.46721 0.31607 0.0
H1207 H 0.28278 0.42172 0.30077 0.0
loop_
_geom_bond_atom_site_label_1
_geom_bond_atom_site_label_2
_geom_bond_distance
_geom_bond_site_symmetry_2
_ccdc_geom_bond_type
C0 O12 1.241 . S
C0 O13 1.280 . S
C1 O14 1.277 . S
C1 O15 1.245 . S
C2 O26 1.247 . S
C2 O28 1.289 . S
Mg3 O4 1.926 . S
Mg3 O13 1.984 . S
Mg3 O15 1.988 . S
Mg3 O16 2.061 . S
O4 Mg3 1.926 . S
O4 Mg5 1.986 . S
O4 Mg6 1.917 . S
Mg5 O4 1.986 . S
Mg5 O12 2.042 . S
Mg5 O14 2.041 . S
Mg5 O20 2.038 . S
Mg5 O28 2.238 . S
Mg6 O4 1.917 . S
Mg6 O7 1.917 . S
Mg6 O17 2.106 . S
Mg6 O19 2.079 . S
Mg6 O28 2.106 . S
Mg6 O29 2.079 . S
O7 Mg6 1.917 . S
O7 Mg8 1.926 . S
O7 Mg9 1.986 . S
Mg8 O7 1.926 . S
Mg8 O22 1.984 . S
Mg8 O25 1.988 . S
Mg8 O26 2.061 . S
Mg9 O7 1.986 . S
Mg9 O17 2.238 . S
Mg9 O21 2.042 . S
Mg9 O23 2.041 . S
Mg9 O30 2.038 . S
C10 O16 1.247 . S
C10 O17 1.289 . S
C11 O29 1.245 . S
C11 O30 1.274 . S
O12 C0 1.241 . S
O12 Mg5 2.042 . S
O13 C0 1.280 . S
O13 Mg3 1.984 . S
O14 C1 1.277 . S
O14 Mg5 2.041 . S
O15 C1 1.245 . S
O15 Mg3 1.988 . S
O16 Mg3 2.061 . S
O16 C10 1.247 . S
O17 Mg6 2.106 . S
O17 Mg9 2.238 . S
O17 C10 1.289 . S
C18 O19 1.245 . S
C18 O20 1.274 . S
O19 Mg6 2.079 . S
O19 C18 1.245 . S
O20 Mg5 2.038 . S
O20 C18 1.274 . S
O21 Mg9 2.042 . S
O21 C24 1.241 . S
O22 Mg8 1.984 . S
O22 C24 1.280 . S
O23 Mg9 2.041 . S
O23 C27 1.277 . S
C24 O21 1.241 . S
C24 O22 1.280 . S
O25 Mg8 1.988 . S
O25 C27 1.245 . S
O26 C2 1.247 . S
O26 Mg8 2.061 . S
C27 O23 1.277 . S
C27 O25 1.245 . S
O28 C2 1.289 . S
O28 Mg5 2.238 . S
O28 Mg6 2.106 . S
O29 Mg6 2.079 . S
O29 C11 1.245 . S
O30 Mg9 2.038 . S
O30 C11 1.274 . S
C31 O43 1.241 . S
C31 O44 1.283 . S
C32 O45 1.277 . S
C32 O46 1.245 . S
C33 O57 1.247 . S
C33 O59 1.289 . S
Mg34 O35 1.926 1_565 S
Mg34 O44 1.984 1_565 S
Mg34 O46 1.988 . S
Mg34 O47 2.061 1_565 S
O35 Mg34 1.926 1_545 S
O35 Mg36 1.986 . S
O35 Mg37 1.917 . S
Mg36 O35 1.986 . S
Mg36 O43 2.042 . S
Mg36 O45 2.041 1_545 S
Mg36 O51 2.038 . S
Mg36 O59 2.238 . S
Mg37 O35 1.917 . S
Mg37 O38 1.917 . S
Mg37 O48 2.106 . S
Mg37 O50 2.079 . S
Mg37 O59 2.106 . S
Mg37 O60 2.079 . S
O38 Mg37 1.917 . S
O38 Mg39 1.926 . S
O38 Mg40 1.986 . S
Mg39 O38 1.926 . S
Mg39 O53 1.984 . S
Mg39 O56 1.988 . S
Mg39 O57 2.061 . S
Mg40 O38 1.986 . S
Mg40 O48 2.238 . S
Mg40 O52 2.042 . S
Mg40 O54 2.041 . S
Mg40 O61 2.038 . S
C41 O47 1.247 . S
C41 O48 1.289 . S
C42 O60 1.245 . S
C42 O61 1.274 . S
O43 C31 1.241 . S
O43 Mg36 2.042 . S
O44 C31 1.283 . S
O44 Mg34 1.984 1_545 S
O45 C32 1.277 . S
O45 Mg36 2.041 1_565 S
O46 C32 1.245 . S
O46 Mg34 1.988 . S
O47 Mg34 2.061 1_545 S
O47 C41 1.247 . S
O48 Mg37 2.106 . S
O48 Mg40 2.238 . S
O48 C41 1.289 . S
C49 O50 1.245 . S
C49 O51 1.274 . S
O50 Mg37 2.079 . S
O50 C49 1.245 . S
O51 Mg36 2.038 . S
O51 C49 1.274 . S
O52 Mg40 2.042 . S
O52 C55 1.241 . S
O53 Mg39 1.984 . S
O53 C55 1.280 . S
O54 Mg40 2.041 . S
O54 C58 1.277 . S
C55 O52 1.241 . S
C55 O53 1.280 . S
O56 Mg39 1.988 . S
O56 C58 1.245 . S
O57 C33 1.247 . S
O57 Mg39 2.061 . S
C58 O54 1.277 . S
C58 O56 1.245 . S
O59 C33 1.289 . S
O59 Mg36 2.238 . S
O59 Mg37 2.106 . S
O60 Mg37 2.079 . S
O60 C42 1.245 . S
O61 Mg40 2.038 . S
O61 C42 1.274 . S
C62 O74 1.241 . S
C62 O75 1.283 . S
C63 O76 1.277 . S
C63 O77 1.245 . S
C64 O88 1.247 . S
C64 O90 1.289 . S
Mg65 O66 1.926 1_455 S
Mg65 O75 1.984 1_455 S
Mg65 O77 1.988 . S
Mg65 O78 2.061 1_455 S
O66 Mg65 1.926 1_655 S
O66 Mg67 1.986 . S
O66 Mg68 1.917 . S
Mg67 O66 1.986 . S
Mg67 O74 2.042 . S
Mg67 O76 2.041 1_655 S
Mg67 O82 2.038 . S
Mg67 O90 2.238 . S
Mg68 O66 1.917 . S
Mg68 O69 1.917 . S
Mg68 O79 2.106 . S
Mg68 O81 2.079 . S
Mg68 O90 2.106 . S
Mg68 O91 2.079 . S
O69 Mg68 1.917 . S
O69 Mg70 1.926 . S
O69 Mg71 1.986 . S
Mg70 O69 1.926 . S
Mg70 O84 1.984 . S
Mg70 O87 1.988 . S
Mg70 O88 2.061 . S
Mg71 O69 1.986 . S
Mg71 O79 2.238 . S
Mg71 O83 2.042 . S
Mg71 O85 2.041 . S
Mg71 O92 2.038 . S
C72 O78 1.247 . S
C72 O79 1.289 . S
C73 O91 1.245 . S
C73 O92 1.274 . S
O74 C62 1.241 . S
O74 Mg67 2.042 . S
O75 C62 1.283 . S
O75 Mg65 1.984 1_655 S
O76 C63 1.277 . S
O76 Mg67 2.041 1_455 S
O77 C63 1.245 . S
O77 Mg65 1.988 . S
O78 Mg65 2.061 1_655 S
O78 C72 1.247 . S
O79 Mg68 2.106 . S
O79 Mg71 2.238 . S
O79 C72 1.289 . S
C80 O81 1.245 . S
C80 O82 1.274 . S
O81 Mg68 2.079 . S
O81 C80 1.245 . S
O82 Mg67 2.038 . S
O82 C80 1.274 . S
O83 Mg71 2.042 . S
O83 C86 1.241 . S
O84 Mg70 1.984 . S
O84 C86 1.280 . S
O85 Mg71 2.041 . S
O85 C89 1.277 . S
C86 O83 1.241 . S
C86 O84 1.280 . S
O87 Mg70 1.988 . S
O87 C89 1.245 . S
O88 C64 1.247 . S
O88 Mg70 2.061 . S
C89 O85 1.277 . S
C89 O87 1.245 . S
O90 C64 1.289 . S
O90 Mg67 2.238 . S
O90 Mg68 2.106 . S
O91 Mg68 2.079 . S
O91 C73 1.245 . S
O92 Mg71 2.038 . S
O92 C73 1.274 . S
C93 O105 1.241 . S
C93 O106 1.280 . S
C94 O107 1.277 . S
C94 O108 1.245 . S
C95 O119 1.247 . S
C95 O121 1.289 . S
Mg96 O97 1.926 . S
Mg96 O106 1.984 . S
Mg96 O108 1.988 . S
Mg96 O109 2.061 . S
O97 Mg96 1.926 . S
O97 Mg98 1.986 . S
O97 Mg99 1.917 . S
Mg98 O97 1.986 . S
Mg98 O105 2.042 . S
Mg98 O107 2.041 . S
Mg98 O113 2.038 . S
Mg98 O121 2.238 . S
Mg99 O97 1.917 . S
Mg99 O100 1.917 . S
Mg99 O110 2.106 . S
Mg99 O112 2.079 . S
Mg99 O121 2.106 . S
Mg99 O122 2.079 . S
O100 Mg99 1.917 . S
O100 Mg101 1.926 . S
O100 Mg102 1.986 . S
Mg101 O100 1.926 . S
Mg101 O115 1.984 . S
Mg101 O118 1.988 . S
Mg101 O119 2.061 . S
Mg102 O100 1.986 . S
Mg102 O110 2.238 . S
Mg102 O114 2.042 . S
Mg102 O116 2.041 . S
Mg102 O123 2.038 . S
C103 O109 1.247 . S
C103 O110 1.289 . S
C104 O122 1.245 . S
C104 O123 1.274 . S
O105 C93 1.241 . S
O105 Mg98 2.042 . S
O106 C93 1.280 . S
O106 Mg96 1.984 . S
O107 C94 1.277 . S
O107 Mg98 2.041 . S
O108 C94 1.245 . S
O108 Mg96 1.988 . S
O109 Mg96 2.061 . S
O109 C103 1.247 . S
O110 Mg99 2.106 . S
O110 Mg102 2.238 . S
O110 C103 1.289 . S
C111 O112 1.245 . S
C111 O113 1.274 . S
O112 Mg99 2.079 . S
O112 C111 1.245 . S
O113 Mg98 2.038 . S
O113 C111 1.274 . S
O114 Mg102 2.042 . S
O114 C117 1.241 . S
O115 Mg101 1.984 . S
O115 C117 1.280 . S
O116 Mg102 2.041 . S
O116 C120 1.277 . S
C117 O114 1.241 . S
C117 O115 1.280 . S
O118 Mg101 1.988 . S
O118 C120 1.245 . S
O119 C95 1.247 . S
O119 Mg101 2.061 . S
C120 O116 1.277 . S
C120 O118 1.245 . S
O121 C95 1.289 . S
O121 Mg98 2.238 . S
O121 Mg99 2.106 . S
O122 Mg99 2.079 . S
O122 C104 1.245 . S
O123 Mg102 2.038 . S
O123 C104 1.274 . S
C124 O136 1.241 . S
C124 O137 1.280 . S
C125 O138 1.277 . S
C125 O139 1.245 . S
C126 O150 1.247 . S
C126 O152 1.289 . S
Mg127 O128 1.926 . S
Mg127 O137 1.984 . S
Mg127 O139 1.988 . S
Mg127 O140 2.061 . S
O128 Mg127 1.926 . S
O128 Mg129 1.986 . S
O128 Mg130 1.917 . S
Mg129 O128 1.986 . S
Mg129 O136 2.042 . S
Mg129 O138 2.041 . S
Mg129 O144 2.038 . S
Mg129 O152 2.238 . S
Mg130 O128 1.917 . S
Mg130 O131 1.917 . S
Mg130 O141 2.106 . S
Mg130 O143 2.079 . S
Mg130 O152 2.106 . S
Mg130 O153 2.079 . S
O131 Mg130 1.917 . S
O131 Mg132 1.926 . S
O131 Mg133 1.986 . S
Mg132 O131 1.926 . S
Mg132 O146 1.984 . S
Mg132 O149 1.988 . S
Mg132 O150 2.061 . S
Mg133 O131 1.986 . S
Mg133 O141 2.238 . S
Mg133 O145 2.042 . S
Mg133 O147 2.041 . S
Mg133 O154 2.038 . S
C134 O140 1.247 . S
C134 O141 1.289 . S
C135 O153 1.245 . S
C135 O154 1.274 . S
O136 C124 1.241 . S
O136 Mg129 2.042 . S
O137 C124 1.280 . S
O137 Mg127 1.984 . S
O138 C125 1.277 . S
O138 Mg129 2.041 . S
O139 C125 1.245 . S
O139 Mg127 1.988 . S
O140 Mg127 2.061 . S
O140 C134 1.247 . S
O141 Mg130 2.106 . S
O141 Mg133 2.238 . S
O141 C134 1.289 . S
C142 O143 1.245 . S
C142 O144 1.274 . S
O143 Mg130 2.079 . S
O143 C142 1.245 . S
O144 Mg129 2.038 . S
O144 C142 1.274 . S
O145 Mg133 2.042 . S
O145 C148 1.241 . S
O146 Mg132 1.984 . S
O146 C148 1.280 . S
O147 Mg133 2.041 . S
O147 C151 1.277 . S
C148 O145 1.241 . S
C148 O146 1.280 . S
O149 Mg132 1.988 . S
O149 C151 1.245 . S
O150 C126 1.247 . S
O150 Mg132 2.061 . S
C151 O147 1.277 . S
C151 O149 1.245 . S
O152 C126 1.289 . S
O152 Mg129 2.238 . S
O152 Mg130 2.106 . S
O153 Mg130 2.079 . S
O153 C135 1.245 . S
O154 Mg133 2.038 . S
O154 C135 1.274 . S
C155 O167 1.241 . S
C155 O168 1.280 . S
C156 O169 1.277 . S
C156 O170 1.245 . S
C157 O181 1.247 . S
C157 O183 1.289 . S
Mg158 O159 1.926 . S
Mg158 O168 1.984 . S
Mg158 O170 1.988 . S
Mg158 O171 2.061 . S
O159 Mg158 1.926 . S
O159 Mg160 1.986 . S
O159 Mg161 1.917 . S
Mg160 O159 1.986 . S
Mg160 O167 2.042 . S
Mg160 O169 2.041 . S
Mg160 O175 2.038 . S
Mg160 O183 2.238 . S
Mg161 O159 1.917 . S
Mg161 O162 1.917 . S
Mg161 O172 2.106 . S
Mg161 O174 2.079 . S
Mg161 O183 2.106 . S
Mg161 O184 2.079 . S
O162 Mg161 1.917 . S
O162 Mg163 1.926 1_565 S
O162 Mg164 1.986 . S
Mg163 O162 1.926 1_545 S
Mg163 O177 1.984 1_545 S
Mg163 O180 1.988 . S
Mg163 O181 2.061 1_545 S
Mg164 O162 1.986 . S
Mg164 O172 2.238 . S
Mg164 O176 2.042 . S
Mg164 O178 2.041 1_565 S
Mg164 O185 2.038 . S
C165 O171 1.247 . S
C165 O172 1.289 . S
C166 O184 1.245 . S
C166 O185 1.274 . S
O167 C155 1.241 . S
O167 Mg160 2.042 . S
O168 C155 1.280 . S
O168 Mg158 1.984 . S
O169 C156 1.277 . S
O169 Mg160 2.041 . S
O170 C156 1.245 . S
O170 Mg158 1.988 . S
O171 Mg158 2.061 . S
O171 C165 1.247 . S
O172 Mg161 2.106 . S
O172 Mg164 2.238 . S
O172 C165 1.289 . S
C173 O174 1.245 . S
C173 O175 1.274 . S
O174 Mg161 2.079 . S
O174 C173 1.245 . S
O175 Mg160 2.038 . S
O175 C173 1.274 . S
O176 Mg164 2.042 . S
O176 C179 1.241 . S
O177 Mg163 1.984 1_565 S
O177 C179 1.283 . S
O178 Mg164 2.041 1_545 S
O178 C182 1.277 . S
C179 O176 1.241 . S
C179 O177 1.283 . S
O180 Mg163 1.988 . S
O180 C182 1.245 . S
O181 C157 1.247 . S
O181 Mg163 2.061 1_565 S
C182 O178 1.277 . S
C182 O180 1.245 . S
O183 C157 1.289 . S
O183 Mg160 2.238 . S
O183 Mg161 2.106 . S
O184 Mg161 2.079 . S
O184 C166 1.245 . S
O185 Mg164 2.038 . S
O185 C166 1.274 . S
C186 O198 1.241 . S
C186 O199 1.280 . S
C187 O200 1.277 . S
C187 O201 1.245 . S
C188 O212 1.247 . S
C188 O214 1.289 . S
Mg189 O190 1.926 . S
Mg189 O199 1.984 . S
Mg189 O201 1.988 . S
Mg189 O202 2.061 . S
O190 Mg189 1.926 . S
O190 Mg191 1.986 . S
O190 Mg192 1.917 . S
Mg191 O190 1.986 . S
Mg191 O198 2.042 . S
Mg191 O200 2.041 . S
Mg191 O206 2.038 . S
Mg191 O214 2.238 . S
Mg192 O190 1.917 . S
Mg192 O193 1.917 . S
Mg192 O203 2.106 . S
Mg192 O205 2.079 . S
Mg192 O214 2.106 . S
Mg192 O215 2.079 . S
O193 Mg192 1.917 . S
O193 Mg194 1.926 1_455 S
O193 Mg195 1.986 . S
Mg194 O193 1.926 1_655 S
Mg194 O208 1.984 1_655 S
Mg194 O211 1.988 . S
Mg194 O212 2.061 1_655 S
Mg195 O193 1.986 . S
Mg195 O203 2.238 . S
Mg195 O207 2.042 . S
Mg195 O209 2.041 1_455 S
Mg195 O216 2.038 . S
C196 O202 1.247 . S
C196 O203 1.289 . S
C197 O215 1.245 . S
C197 O216 1.274 . S
O198 C186 1.241 . S
O198 Mg191 2.042 . S
O199 C186 1.280 . S
O199 Mg189 1.984 . S
O200 C187 1.277 . S
O200 Mg191 2.041 . S
O201 C187 1.245 . S
O201 Mg189 1.988 . S
O202 Mg189 2.061 . S
O202 C196 1.247 . S
O203 Mg192 2.106 . S
O203 Mg195 2.238 . S
O203 C196 1.289 . S
C204 O205 1.245 . S
C204 O206 1.274 . S
O205 Mg192 2.079 . S
O205 C204 1.245 . S
O206 Mg191 2.038 . S
O206 C204 1.274 . S
O207 Mg195 2.042 . S
O207 C210 1.241 . S
O208 Mg194 1.984 1_455 S
O208 C210 1.283 . S
O209 Mg195 2.041 1_655 S
O209 C213 1.277 . S
C210 O207 1.241 . S
C210 O208 1.283 . S
O211 Mg194 1.988 . S
O211 C213 1.245 . S
O212 C188 1.247 . S
O212 Mg194 2.061 1_455 S
C213 O209 1.277 . S
C213 O211 1.245 . S
O214 C188 1.289 . S
O214 Mg191 2.238 . S
O214 Mg192 2.106 . S
O215 Mg192 2.079 . S
O215 C197 1.245 . S
O216 Mg195 2.038 . S
O216 C197 1.274 . S
C217 O229 1.241 . S
C217 O230 1.280 . S
C218 O231 1.277 . S
C218 O232 1.245 . S
C219 O243 1.247 . S
C219 O245 1.289 . S
Mg220 O221 1.926 . S
Mg220 O230 1.984 . S
Mg220 O232 1.988 . S
Mg220 O233 2.061 . S
O221 Mg220 1.926 . S
O221 Mg222 1.986 . S
O221 Mg223 1.917 . S
Mg222 O221 1.986 . S
Mg222 O229 2.042 . S
Mg222 O231 2.041 . S
Mg222 O237 2.038 . S
Mg222 O245 2.238 . S
Mg223 O221 1.917 . S
Mg223 O224 1.917 . S
Mg223 O234 2.106 . S
Mg223 O236 2.079 . S
Mg223 O245 2.106 . S
Mg223 O246 2.079 . S
O224 Mg223 1.917 . S
O224 Mg225 1.926 . S
O224 Mg226 1.986 . S
Mg225 O224 1.926 . S
Mg225 O239 1.984 . S
Mg225 O242 1.988 . S
Mg225 O243 2.061 . S
Mg226 O224 1.986 . S
Mg226 O234 2.238 . S
Mg226 O238 2.042 . S
Mg226 O240 2.041 . S
Mg226 O247 2.038 . S
C227 O233 1.247 . S
C227 O234 1.289 . S
C228 O246 1.245 . S
C228 O247 1.274 . S
O229 C217 1.241 . S
O229 Mg222 2.042 . S
O230 C217 1.280 . S
O230 Mg220 1.984 . S
O231 C218 1.277 . S
O231 Mg222 2.041 . S
O232 C218 1.245 . S
O232 Mg220 1.988 . S
O233 Mg220 2.061 . S
O233 C227 1.247 . S
O234 Mg223 2.106 . S
O234 Mg226 2.238 . S
O234 C227 1.289 . S
C235 O236 1.245 . S
C235 O237 1.274 . S
O236 Mg223 2.079 . S
O236 C235 1.245 . S
O237 Mg222 2.038 . S
O237 C235 1.274 . S
O238 Mg226 2.042 . S
O238 C241 1.241 . S
O239 Mg225 1.984 . S
O239 C241 1.280 . S
O240 Mg226 2.041 . S
O240 C244 1.277 . S
C241 O238 1.241 . S
C241 O239 1.280 . S
O242 Mg225 1.988 . S
O242 C244 1.245 . S
O243 C219 1.247 . S
O243 Mg225 2.061 . S
C244 O240 1.277 . S
C244 O242 1.245 . S
O245 C219 1.289 . S
O245 Mg222 2.238 . S
O245 Mg223 2.106 . S
O246 Mg223 2.079 . S
O246 C228 1.245 . S
O247 Mg226 2.038 . S
O247 C228 1.274 . S
C248 C249 1.349 . S
C248 C250 1.327 . S
C248 H273 0.950 . S
C249 C248 1.349 . S
C249 C265 1.349 . S
C250 C248 1.327 . S
C250 C269 1.429 . S
C250 H274 0.950 . S
C251 C268 1.574 . S
C251 C270 1.368 . S
C251 H275 0.949 . S
H252 C256 0.949 . S
C253 C254 1.349 . S
C253 C255 1.327 . S
C253 H276 0.950 . S
C254 C253 1.349 . S
C254 C266 1.349 . S
C255 C253 1.327 . S
C255 C271 1.429 . S
C255 H277 0.950 . S
C256 H252 0.949 . S
C256 C264 1.574 . S
C256 C272 1.368 . S
H257 C265 0.950 . S
H258 C263 0.950 . S
H259 C264 0.949 . S
H260 C266 0.950 . S
H261 C267 0.950 . S
H262 C268 0.949 . S
C263 H258 0.950 . S
C263 C265 1.327 . S
C263 C269 1.429 . S
C264 C256 1.574 . S
C264 H259 0.949 . S
C264 C270 1.368 . S
C265 C249 1.349 . S
C265 H257 0.950 . S
C265 C263 1.327 . S
C266 C254 1.349 . S
C266 H260 0.950 . S
C266 C267 1.327 . S
C267 H261 0.950 . S
C267 C266 1.327 . S
C267 C271 1.429 . S
C268 C251 1.574 . S
C268 H262 0.949 . S
C268 C272 1.368 . S
C269 C250 1.429 . S
C269 C263 1.429 . S
C269 C270 1.523 . S
C270 C251 1.368 . S
C270 C264 1.368 . S
C270 C269 1.523 . S
C271 C255 1.429 . S
C271 C267 1.429 . S
C271 C272 1.523 . S
C272 C256 1.368 . S
C272 C268 1.368 . S
C272 C271 1.523 . S
H273 C248 0.950 . S
H274 C250 0.950 . S
H275 C251 0.949 . S
H276 C253 0.950 . S
H277 C255 0.950 . S
C278 C279 1.349 . S
C278 C280 1.327 . S
C278 H303 0.950 . S
C279 C278 1.349 . S
C279 C295 1.349 . S
C280 C278 1.327 . S
C280 C299 1.429 . S
C280 H304 0.950 . S
C281 C298 1.574 . S
C281 C300 1.368 . S
C281 H305 0.949 . S
H282 C286 0.949 . S
C283 C284 1.349 . S
C283 C285 1.327 . S
C283 H306 0.950 . S
C284 C283 1.349 . S
C284 C296 1.349 . S
C285 C283 1.327 . S
C285 C301 1.429 . S
C285 H307 0.950 . S
C286 H282 0.949 . S
C286 C294 1.574 . S
C286 C302 1.368 . S
H287 C295 0.950 . S
H288 C293 0.950 . S
H289 C294 0.949 . S
H290 C296 0.950 . S
H291 C297 0.950 . S
H292 C298 0.949 1_554 S
C293 H288 0.950 . S
C293 C295 1.327 . S
C293 C299 1.429 . S
C294 C286 1.574 . S
C294 H289 0.949 . S
C294 C300 1.368 . S
C295 C279 1.349 . S
C295 H287 0.950 . S
C295 C293 1.327 . S
C296 C284 1.349 . S
C296 H290 0.950 . S
C296 C297 1.327 . S
C297 H291 0.950 . S
C297 C296 1.327 . S
C297 C301 1.429 . S
C298 C281 1.574 . S
C298 H292 0.949 1_556 S
C298 C302 1.368 . S
C299 C280 1.429 . S
C299 C293 1.429 . S
C299 C300 1.523 . S
C300 C281 1.368 . S
C300 C294 1.368 . S
C300 C299 1.523 . S
C301 C285 1.429 . S
C301 C297 1.429 . S
C301 C302 1.523 1_554 S
C302 C286 1.368 . S
C302 C298 1.368 . S
C302 C301 1.523 1_556 S
H303 C278 0.950 . S
H304 C280 0.950 . S
H305 C281 0.949 . S
H306 C283 0.950 . S
H307 C285 0.950 . S
C308 C309 1.349 . S
C308 C310 1.327 . S
C308 H333 0.950 . S
C309 C308 1.349 . S
C309 C325 1.349 . S
C310 C308 1.327 . S
C310 C329 1.429 . S
C310 H334 0.950 . S
C311 C328 1.574 . S
C311 C330 1.368 . S
C311 H335 0.949 . S
H312 C316 0.949 . S
C313 C314 1.349 . S
C313 C315 1.327 . S
C313 H336 0.950 . S
C314 C313 1.349 . S
C314 C326 1.349 . S
C315 C313 1.327 . S
C315 C331 1.429 . S
C315 H337 0.950 . S
C316 H312 0.949 . S
C316 C324 1.574 . S
C316 C332 1.368 . S
H317 C325 0.950 . S
H318 C323 0.950 . S
H319 C324 0.949 . S
H320 C326 0.950 . S
H321 C327 0.950 . S
H322 C328 0.949 . S
C323 H318 0.950 . S
C323 C325 1.327 . S
C323 C329 1.429 . S
C324 C316 1.574 . S
C324 H319 0.949 . S
C324 C330 1.368 . S
C325 C309 1.349 . S
C325 H317 0.950 . S
C325 C323 1.327 . S
C326 C314 1.349 . S
C326 H320 0.950 . S
C326 C327 1.327 . S
C327 H321 0.950 . S
C327 C326 1.327 . S
C327 C331 1.429 . S
C328 C311 1.574 . S
C328 H322 0.949 . S
C328 C332 1.368 . S
C329 C310 1.429 . S
C329 C323 1.429 . S
C329 C330 1.523 . S
C330 C311 1.368 . S
C330 C324 1.368 . S
C330 C329 1.523 . S
C331 C315 1.429 . S
C331 C327 1.429 . S
C331 C332 1.523 . S
C332 C316 1.368 . S
C332 C328 1.368 . S
C332 C331 1.523 . S
H333 C308 0.950 . S
H334 C310 0.950 . S
H335 C311 0.949 . S
H336 C313 0.950 . S
H337 C315 0.950 . S
C338 C339 1.349 . S
C338 C340 1.327 . S
C338 H363 0.950 . S
C339 C338 1.349 . S
C339 C355 1.349 . S
C340 C338 1.327 . S
C340 C359 1.429 . S
C340 H364 0.950 . S
C341 C358 1.574 . S
C341 C360 1.368 . S
C341 H365 0.949 . S
H342 C346 0.949 . S
C343 C344 1.349 . S
C343 C345 1.327 . S
C343 H366 0.950 . S
C344 C343 1.349 . S
C344 C356 1.349 . S
C345 C343 1.327 . S
C345 C361 1.429 . S
C345 H367 0.950 . S
C346 H342 0.949 . S
C346 C354 1.574 . S
C346 C362 1.368 . S
H347 C355 0.950 . S
H348 C353 0.950 . S
H349 C354 0.949 1_554 S
H350 C356 0.950 . S
H351 C357 0.950 . S
H352 C358 0.949 . S
C353 H348 0.950 . S
C353 C355 1.327 . S
C353 C359 1.429 . S
C354 C346 1.574 . S
C354 H349 0.949 1_556 S
C354 C360 1.368 . S
C355 C339 1.349 . S
C355 H347 0.950 . S
C355 C353 1.327 . S
C356 C344 1.349 . S
C356 H350 0.950 . S
C356 C357 1.327 . S
C357 H351 0.950 . S
C357 C356 1.327 . S
C357 C361 1.429 . S
C358 C341 1.574 . S
C358 H352 0.949 . S
C358 C362 1.368 . S
C359 C340 1.429 . S
C359 C353 1.429 . S
C359 C360 1.523 1_554 S
C360 C341 1.368 . S
C360 C354 1.368 . S
C360 C359 1.523 1_556 S
C361 C345 1.429 . S
C361 C357 1.429 . S
C361 C362 1.523 . S
C362 C346 1.368 . S
C362 C358 1.368 . S
C362 C361 1.523 . S
H363 C338 0.950 . S
H364 C340 0.950 . S
H365 C341 0.949 . S
H366 C343 0.950 . S
H367 C345 0.950 . S
C368 C369 1.349 . S
C368 C370 1.327 . S
C368 H393 0.950 . S
C369 C368 1.349 . S
C369 C385 1.349 . S
C370 C368 1.327 . S
C370 C389 1.429 . S
C370 H394 0.950 . S
C371 C388 1.574 . S
C371 C390 1.368 . S
C371 H395 0.949 . S
H372 C376 0.949 . S
C373 C374 1.349 . S
C373 C375 1.327 . S
C373 H396 0.950 . S
C374 C373 1.349 . S
C374 C386 1.349 . S
C375 C373 1.327 . S
C375 C391 1.429 . S
C375 H397 0.950 . S
C376 H372 0.949 . S
C376 C384 1.574 . S
C376 C392 1.368 . S
H377 C385 0.950 . S
H378 C383 0.950 . S
H379 C384 0.949 . S
H380 C386 0.950 . S
H381 C387 0.950 . S
H382 C388 0.949 . S
C383 H378 0.950 . S
C383 C385 1.327 . S
C383 C389 1.429 . S
C384 C376 1.574 . S
C384 H379 0.949 . S
C384 C390 1.368 . S
C385 C369 1.349 . S
C385 H377 0.950 . S
C385 C383 1.327 . S
C386 C374 1.349 . S
C386 H380 0.950 . S
C386 C387 1.327 . S
C387 H381 0.950 . S
C387 C386 1.327 . S
C387 C391 1.429 . S
C388 C371 1.574 . S
C388 H382 0.949 . S
C388 C392 1.368 . S
C389 C370 1.429 . S
C389 C383 1.429 . S
C389 C390 1.523 . S
C390 C371 1.368 . S
C390 C384 1.368 . S
C390 C389 1.523 . S
C391 C375 1.429 . S
C391 C387 1.429 . S
C391 C392 1.523 . S
C392 C376 1.368 . S
C392 C388 1.368 . S
C392 C391 1.523 . S
H393 C368 0.950 . S
H394 C370 0.950 . S
H395 C371 0.949 . S
H396 C373 0.950 . S
H397 C375 0.950 . S
C398 C399 1.349 . S
C398 C400 1.327 . S
C398 H423 0.950 . S
C399 C398 1.349 . S
C399 C415 1.349 . S
C400 C398 1.327 . S
C400 C419 1.429 . S
C400 H424 0.950 . S
C401 C418 1.574 . S
C401 C420 1.368 . S
C401 H425 0.949 . S
H402 C406 0.949 . S
C403 C404 1.349 . S
C403 C405 1.327 . S
C403 H426 0.950 . S
C404 C403 1.349 . S
C404 C416 1.349 . S
C405 C403 1.327 . S
C405 C421 1.429 . S
C405 H427 0.950 . S
C406 H402 0.949 . S
C406 C414 1.574 . S
C406 C422 1.368 . S
H407 C415 0.950 . S
H408 C413 0.950 . S
H409 C414 0.949 . S
H410 C416 0.950 . S
H411 C417 0.950 . S
H412 C418 0.949 1_556 S
C413 H408 0.950 . S
C413 C415 1.327 . S
C413 C419 1.429 . S
C414 C406 1.574 . S
C414 H409 0.949 . S
C414 C420 1.368 . S
C415 C399 1.349 . S
C415 H407 0.950 . S
C415 C413 1.327 . S
C416 C404 1.349 . S
C416 H410 0.950 . S
C416 C417 1.327 . S
C417 H411 0.950 . S
C417 C416 1.327 . S
C417 C421 1.429 . S
C418 C401 1.574 . S
C418 H412 0.949 1_554 S
C418 C422 1.368 . S
C419 C400 1.429 . S
C419 C413 1.429 . S
C419 C420 1.523 . S
C420 C401 1.368 . S
C420 C414 1.368 . S
C420 C419 1.523 . S
C421 C405 1.429 . S
C421 C417 1.429 . S
C421 C422 1.523 1_556 S
C422 C406 1.368 . S
C422 C418 1.368 . S
C422 C421 1.523 1_554 S
H423 C398 0.950 . S
H424 C400 0.950 . S
H425 C401 0.949 . S
H426 C403 0.950 . S
H427 C405 0.950 . S
C428 C429 1.349 . S
C428 C430 1.327 . S
C428 H453 0.950 . S
C429 C428 1.349 . S
C429 C445 1.349 . S
C430 C428 1.327 . S
C430 C449 1.429 . S
C430 H454 0.950 . S
C431 C448 1.574 . S
C431 C450 1.368 . S
C431 H455 0.949 . S
H432 C436 0.949 . S
C433 C434 1.349 . S
C433 C435 1.327 . S
C433 H456 0.950 . S
C434 C433 1.349 . S
C434 C446 1.349 . S
C435 C433 1.327 . S
C435 C451 1.429 . S
C435 H457 0.950 . S
C436 H432 0.949 . S
C436 C444 1.574 . S
C436 C452 1.368 . S
H437 C445 0.950 . S
H438 C443 0.950 . S
H439 C444 0.949 . S
H440 C446 0.950 . S
H441 C447 0.950 . S
H442 C448 0.949 . S
C443 H438 0.950 . S
C443 C445 1.327 . S
C443 C449 1.429 . S
C444 C436 1.574 . S
C444 H439 0.949 . S
C444 C450 1.368 . S
C445 C429 1.349 . S
C445 H437 0.950 . S
C445 C443 1.327 . S
C446 C434 1.349 . S
C446 H440 0.950 . S
C446 C447 1.327 . S
C447 H441 0.950 . S
C447 C446 1.327 . S
C447 C451 1.429 . S
C448 C431 1.574 . S
C448 H442 0.949 . S
C448 C452 1.368 . S
C449 C430 1.429 . S
C449 C443 1.429 . S
C449 C450 1.523 . S
C450 C431 1.368 . S
C450 C444 1.368 . S
C450 C449 1.523 . S
C451 C435 1.429 . S
C451 C447 1.429 . S
C451 C452 1.523 . S
C452 C436 1.368 . S
C452 C448 1.368 . S
C452 C451 1.523 . S
H453 C428 0.950 . S
H454 C430 0.950 . S
H455 C431 0.949 . S
H456 C433 0.950 . S
H457 C435 0.950 . S
C458 C459 1.349 . S
C458 C460 1.327 . S
C458 H483 0.950 . S
C459 C458 1.349 . S
C459 C475 1.349 . S
C460 C458 1.327 . S
C460 C479 1.429 . S
C460 H484 0.950 . S
C461 C478 1.574 . S
C461 C480 1.368 . S
C461 H485 0.949 . S
H462 C466 0.949 1_556 S
C463 C464 1.349 . S
C463 C465 1.327 . S
C463 H486 0.950 . S
C464 C463 1.349 . S
C464 C476 1.349 . S
C465 C463 1.327 . S
C465 C481 1.429 . S
C465 H487 0.950 . S
C466 H462 0.949 1_554 S
C466 C474 1.574 . S
C466 C482 1.368 . S
H467 C475 0.950 . S
H468 C473 0.950 . S
H469 C474 0.949 . S
H470 C476 0.950 . S
H471 C477 0.950 . S
H472 C478 0.949 . S
C473 H468 0.950 . S
C473 C475 1.327 . S
C473 C479 1.429 . S
C474 C466 1.574 . S
C474 H469 0.949 . S
C474 C480 1.368 . S
C475 C459 1.349 . S
C475 H467 0.950 . S
C475 C473 1.327 . S
C476 C464 1.349 . S
C476 H470 0.950 . S
C476 C477 1.327 . S
C477 H471 0.950 . S
C477 C476 1.327 . S
C477 C481 1.429 . S
C478 C461 1.574 . S
C478 H472 0.949 . S
C478 C482 1.368 . S
C479 C460 1.429 . S
C479 C473 1.429 . S
C479 C480 1.523 . S
C480 C461 1.368 . S
C480 C474 1.368 . S
C480 C479 1.523 . S
C481 C465 1.429 . S
C481 C477 1.429 . S
C481 C482 1.523 1_556 S
C482 C466 1.368 . S
C482 C478 1.368 . S
C482 C481 1.523 1_554 S
H483 C458 0.950 . S
H484 C460 0.950 . S
H485 C461 0.949 . S
H486 C463 0.950 . S
H487 C465 0.950 . S
C488 C489 1.349 . S
C488 C490 1.327 . S
C488 H513 0.950 1_554 S
C489 C488 1.349 . S
C489 C505 1.349 . S
C490 C488 1.327 . S
C490 C509 1.429 . S
C490 H514 0.950 1_554 S
C491 C508 1.574 . S
C491 C510 1.368 . S
C491 H515 0.949 . S
H492 C496 0.949 . S
C493 C494 1.349 . S
C493 C495 1.327 . S
C493 H516 0.950 1_556 S
C494 C493 1.349 . S
C494 C506 1.349 . S
C495 C493 1.327 . S
C495 C511 1.429 . S
C495 H517 0.950 1_556 S
C496 H492 0.949 . S
C496 C504 1.574 . S
C496 C512 1.368 . S
H497 C505 0.950 . S
H498 C503 0.950 . S
H499 C504 0.949 . S
H500 C506 0.950 . S
H501 C507 0.950 . S
H502 C508 0.949 . S
C503 H498 0.950 . S
C503 C505 1.327 . S
C503 C509 1.429 . S
C504 C496 1.574 . S
C504 H499 0.949 . S
C504 C510 1.368 1_556 S
C505 C489 1.349 . S
C505 H497 0.950 . S
C505 C503 1.327 . S
C506 C494 1.349 . S
C506 H500 0.950 . S
C506 C507 1.327 . S
C507 H501 0.950 . S
C507 C506 1.327 . S
C507 C511 1.429 . S
C508 C491 1.574 . S
C508 H502 0.949 . S
C508 C512 1.368 1_554 S
C509 C490 1.429 . S
C509 C503 1.429 . S
C509 C510 1.523 . S
C510 C491 1.368 . S
C510 C504 1.368 1_554 S
C510 C509 1.523 . S
C511 C495 1.429 . S
C511 C507 1.429 . S
C511 C512 1.523 . S
C512 C496 1.368 . S
C512 C508 1.368 1_556 S
C512 C511 1.523 . S
H513 C488 0.950 1_556 S
H514 C490 0.950 1_556 S
H515 C491 0.949 . S
H516 C493 0.950 1_554 S
H517 C495 0.950 1_554 S
C518 C519 1.349 . S
C518 C520 1.327 . S
C518 H543 0.950 . S
C519 C518 1.349 . S
C519 C535 1.349 1_545 S
C520 C518 1.327 . S
C520 C539 1.429 . S
C520 H544 0.950 . S
C521 C538 1.574 . S
C521 C540 1.368 1_565 S
C521 H545 0.949 . S
H522 C526 0.949 . S
C523 C524 1.349 . S
C523 C525 1.327 . S
C523 H546 0.950 . S
C524 C523 1.349 . S
C524 C536 1.349 1_565 S
C525 C523 1.327 . S
C525 C541 1.429 . S
C525 H547 0.950 . S
C526 H522 0.949 . S
C526 C534 1.574 . S
C526 C542 1.368 1_545 S
H527 C535 0.950 . S
H528 C533 0.950 . S
H529 C534 0.949 . S
H530 C536 0.950 . S
H531 C537 0.950 . S
H532 C538 0.949 . S
C533 H528 0.950 . S
C533 C535 1.327 . S
C533 C539 1.429 1_565 S
C534 C526 1.574 . S
C534 H529 0.949 . S
C534 C540 1.368 . S
C535 C519 1.349 1_565 S
C535 H527 0.950 . S
C535 C533 1.327 . S
C536 C524 1.349 1_545 S
C536 H530 0.950 . S
C536 C537 1.327 . S
C537 H531 0.950 . S
C537 C536 1.327 . S
C537 C541 1.429 1_545 S
C538 C521 1.574 . S
C538 H532 0.949 . S
C538 C542 1.368 . S
C539 C520 1.429 . S
C539 C533 1.429 1_545 S
C539 C540 1.523 . S
C540 C521 1.368 1_545 S
C540 C534 1.368 . S
C540 C539 1.523 . S
C541 C525 1.429 . S
C541 C537 1.429 1_565 S
C541 C542 1.523 . S
C542 C526 1.368 1_565 S
C542 C538 1.368 . S
C542 C541 1.523 . S
H543 C518 0.950 . S
H544 C520 0.950 . S
H545 C521 0.949 . S
H546 C523 0.950 . S
H547 C525 0.950 . S
C548 C549 1.349 . S
C548 C550 1.327 . S
C548 H573 0.950 . S
C549 C548 1.349 . S
C549 C565 1.349 1_655 S
C550 C548 1.327 . S
C550 C569 1.429 . S
C550 H574 0.950 . S
C551 C568 1.574 1_545 S
C551 C570 1.368 1_456 S
C551 H575 0.949 . S
H552 C556 0.949 . S
C553 C554 1.349 . S
C553 C555 1.327 . S
C553 H576 0.950 . S
C554 C553 1.349 . S
C554 C566 1.349 1_455 S
C555 C553 1.327 . S
C555 C571 1.429 . S
C555 H577 0.950 . S
C556 H552 0.949 . S
C556 C564 1.574 1_565 S
C556 C572 1.368 1_654 S
H557 C565 0.950 . S
H558 C563 0.950 1_556 S
H559 C564 0.949 . S
H560 C566 0.950 . S
H561 C567 0.950 1_554 S
H562 C568 0.949 . S
C563 H558 0.950 1_554 S
C563 C565 1.327 . S
C563 C569 1.429 1_455 S
C564 C556 1.574 1_545 S
C564 H559 0.949 . S
C564 C570 1.368 . S
C565 C549 1.349 1_455 S
C565 H557 0.950 . S
C565 C563 1.327 . S
C566 C554 1.349 1_655 S
C566 H560 0.950 . S
C566 C567 1.327 . S
C567 H561 0.950 1_556 S
C567 C566 1.327 . S
C567 C571 1.429 1_655 S
C568 C551 1.574 1_565 S
C568 H562 0.949 . S
C568 C572 1.368 . S
C569 C550 1.429 . S
C569 C563 1.429 1_655 S
C569 C570 1.523 . S
C570 C551 1.368 1_654 S
C570 C564 1.368 . S
C570 C569 1.523 . S
C571 C555 1.429 . S
C571 C567 1.429 1_455 S
C571 C572 1.523 . S
C572 C556 1.368 1_456 S
C572 C568 1.368 . S
C572 C571 1.523 . S
H573 C548 0.950 . S
H574 C550 0.950 . S
H575 C551 0.949 . S
H576 C553 0.950 . S
H577 C555 0.950 . S
C578 C579 1.349 . S
C578 C580 1.327 . S
C578 H603 0.950 . S
C579 C578 1.349 . S
C579 C595 1.349 . S
C580 C578 1.327 . S
C580 C599 1.429 . S
C580 H604 0.950 . S
C581 C598 1.574 1_655 S
C581 C600 1.368 . S
C581 H605 0.949 . S
H582 C586 0.949 . S
C583 C584 1.349 . S
C583 C585 1.327 . S
C583 H606 0.950 . S
C584 C583 1.349 . S
C584 C596 1.349 . S
C585 C583 1.327 . S
C585 C601 1.429 . S
C585 H607 0.950 . S
C586 H582 0.949 . S
C586 C594 1.574 1_455 S
C586 C602 1.368 . S
H587 C595 0.950 . S
H588 C593 0.950 . S
H589 C594 0.949 . S
H590 C596 0.950 . S
H591 C597 0.950 . S
H592 C598 0.949 . S
C593 H588 0.950 . S
C593 C595 1.327 . S
C593 C599 1.429 . S
C594 C586 1.574 1_655 S
C594 H589 0.949 . S
C594 C600 1.368 . S
C595 C579 1.349 . S
C595 H587 0.950 . S
C595 C593 1.327 . S
C596 C584 1.349 . S
C596 H590 0.950 . S
C596 C597 1.327 . S
C597 H591 0.950 . S
C597 C596 1.327 . S
C597 C601 1.429 . S
C598 C581 1.574 1_455 S
C598 H592 0.949 . S
C598 C602 1.368 . S
C599 C580 1.429 . S
C599 C593 1.429 . S
C599 C600 1.523 . S
C600 C581 1.368 . S
C600 C594 1.368 . S
C600 C599 1.523 . S
C601 C585 1.429 . S
C601 C597 1.429 . S
C601 C602 1.523 . S
C602 C586 1.368 . S
C602 C598 1.368 . S
C602 C601 1.523 . S
H603 C578 0.950 . S
H604 C580 0.950 . S
H605 C581 0.949 . S
H606 C583 0.950 . S
H607 C585 0.950 . S
C608 C609 1.349 . S
C608 C610 1.327 . S
C608 H633 0.950 . S
C609 C608 1.349 . S
C609 C625 1.349 . S
C610 C608 1.327 . S
C610 C629 1.429 . S
C610 H634 0.950 . S
C611 C628 1.574 . S
C611 C630 1.368 . S
C611 H635 0.949 . S
H612 C616 0.949 . S
C613 C614 1.349 . S
C613 C615 1.327 . S
C613 H636 0.950 . S
C614 C613 1.349 . S
C614 C626 1.349 . S
C615 C613 1.327 . S
C615 C631 1.429 . S
C615 H637 0.950 . S
C616 H612 0.949 . S
C616 C624 1.574 . S
C616 C632 1.368 . S
H617 C625 0.950 . S
H618 C623 0.950 . S
H619 C624 0.949 . S
H620 C626 0.950 . S
H621 C627 0.950 . S
H622 C628 0.949 . S
C623 H618 0.950 . S
C623 C625 1.327 . S
C623 C629 1.429 . S
C624 C616 1.574 . S
C624 H619 0.949 . S
C624 C630 1.368 . S
C625 C609 1.349 . S
C625 H617 0.950 . S
C625 C623 1.327 . S
C626 C614 1.349 . S
C626 H620 0.950 . S
C626 C627 1.327 . S
C627 H621 0.950 . S
C627 C626 1.327 . S
C627 C631 1.429 . S
C628 C611 1.574 . S
C628 H622 0.949 . S
C628 C632 1.368 . S
C629 C610 1.429 . S
C629 C623 1.429 . S
C629 C630 1.523 . S
C630 C611 1.368 . S
C630 C624 1.368 . S
C630 C629 1.523 . S
C631 C615 1.429 . S
C631 C627 1.429 . S
C631 C632 1.523 . S
C632 C616 1.368 . S
C632 C628 1.368 . S
C632 C631 1.523 . S
H633 C608 0.950 . S
H634 C610 0.950 . S
H635 C611 0.949 . S
H636 C613 0.950 . S
H637 C615 0.950 . S
C638 C639 1.349 . S
C638 C640 1.327 . S
C638 H663 0.950 . S
C639 C638 1.349 . S
C639 C655 1.349 . S
C640 C638 1.327 . S
C640 C659 1.429 . S
C640 H664 0.950 . S
C641 C658 1.574 . S
C641 C660 1.368 . S
C641 H665 0.949 . S
H642 C646 0.949 . S
C643 C644 1.349 . S
C643 C645 1.327 . S
C643 H666 0.950 . S
C644 C643 1.349 . S
C644 C656 1.349 . S
C645 C643 1.327 . S
C645 C661 1.429 . S
C645 H667 0.950 . S
C646 H642 0.949 . S
C646 C654 1.574 . S
C646 C662 1.368 . S
H647 C655 0.950 . S
H648 C653 0.950 . S
H649 C654 0.949 . S
H650 C656 0.950 . S
H651 C657 0.950 . S
H652 C658 0.949 . S
C653 H648 0.950 . S
C653 C655 1.327 . S
C653 C659 1.429 . S
C654 C646 1.574 . S
C654 H649 0.949 . S
C654 C660 1.368 . S
C655 C639 1.349 . S
C655 H647 0.950 . S
C655 C653 1.327 . S
C656 C644 1.349 . S
C656 H650 0.950 . S
C656 C657 1.327 . S
C657 H651 0.950 . S
C657 C656 1.327 . S
C657 C661 1.429 . S
C658 C641 1.574 . S
C658 H652 0.949 . S
C658 C662 1.368 . S
C659 C640 1.429 . S
C659 C653 1.429 . S
C659 C660 1.523 . S
C660 C641 1.368 . S
C660 C654 1.368 . S
C660 C659 1.523 . S
C661 C645 1.429 . S
C661 C657 1.429 . S
C661 C662 1.523 . S
C662 C646 1.368 . S
C662 C658 1.368 . S
C662 C661 1.523 . S
H663 C638 0.950 . S
H664 C640 0.950 . S
H665 C641 0.949 . S
H666 C643 0.950 . S
H667 C645 0.950 . S
C668 C669 1.349 . S
C668 C670 1.327 . S
C668 H693 0.950 . S
C669 C668 1.349 . S
C669 C685 1.349 . S
C670 C668 1.327 . S
C670 C689 1.429 . S
C670 H694 0.950 . S
C671 C688 1.574 . S
C671 C690 1.368 . S
C671 H695 0.949 . S
H672 C676 0.949 . S
C673 C674 1.349 . S
C673 C675 1.327 . S
C673 H696 0.950 . S
C674 C673 1.349 . S
C674 C686 1.349 . S
C675 C673 1.327 . S
C675 C691 1.429 . S
C675 H697 0.950 . S
C676 H672 0.949 . S
C676 C684 1.574 . S
C676 C692 1.368 . S
H677 C685 0.950 . S
H678 C683 0.950 . S
H679 C684 0.949 . S
H680 C686 0.950 . S
H681 C687 0.950 . S
H682 C688 0.949 . S
C683 H678 0.950 . S
C683 C685 1.327 . S
C683 C689 1.429 . S
C684 C676 1.574 . S
C684 H679 0.949 . S
C684 C690 1.368 . S
C685 C669 1.349 . S
C685 H677 0.950 . S
C685 C683 1.327 . S
C686 C674 1.349 . S
C686 H680 0.950 . S
C686 C687 1.327 . S
C687 H681 0.950 . S
C687 C686 1.327 . S
C687 C691 1.429 . S
C688 C671 1.574 . S
C688 H682 0.949 . S
C688 C692 1.368 . S
C689 C670 1.429 . S
C689 C683 1.429 . S
C689 C690 1.523 . S
C690 C671 1.368 . S
C690 C684 1.368 . S
C690 C689 1.523 . S
C691 C675 1.429 . S
C691 C687 1.429 . S
C691 C692 1.523 . S
C692 C676 1.368 . S
C692 C688 1.368 . S
C692 C691 1.523 . S
H693 C668 0.950 . S
H694 C670 0.950 . S
H695 C671 0.949 . S
H696 C673 0.950 . S
H697 C675 0.950 . S
C698 C699 1.349 . S
C698 C700 1.327 . S
C698 H723 0.950 . S
C699 C698 1.349 . S
C699 C715 1.349 . S
C700 C698 1.327 . S
C700 C719 1.429 . S
C700 H724 0.950 . S
C701 C718 1.574 . S
C701 C720 1.368 . S
C701 H725 0.949 . S
H702 C706 0.949 . S
C703 C704 1.349 . S
C703 C705 1.327 . S
C703 H726 0.950 . S
C704 C703 1.349 . S
C704 C716 1.349 . S
C705 C703 1.327 . S
C705 C721 1.429 . S
C705 H727 0.950 . S
C706 H702 0.949 . S
C706 C714 1.574 . S
C706 C722 1.368 . S
H707 C715 0.950 . S
H708 C713 0.950 . S
H709 C714 0.949 . S
H710 C716 0.950 . S
H711 C717 0.950 . S
H712 C718 0.949 . S
C713 H708 0.950 . S
C713 C715 1.327 . S
C713 C719 1.429 . S
C714 C706 1.574 . S
C714 H709 0.949 . S
C714 C720 1.368 . S
C715 C699 1.349 . S
C715 H707 0.950 . S
C715 C713 1.327 . S
C716 C704 1.349 . S
C716 H710 0.950 . S
C716 C717 1.327 . S
C717 H711 0.950 . S
C717 C716 1.327 . S
C717 C721 1.429 . S
C718 C701 1.574 . S
C718 H712 0.949 . S
C718 C722 1.368 . S
C719 C700 1.429 . S
C719 C713 1.429 . S
C719 C720 1.523 . S
C720 C701 1.368 . S
C720 C714 1.368 . S
C720 C719 1.523 . S
C721 C705 1.429 . S
C721 C717 1.429 . S
C721 C722 1.523 . S
C722 C706 1.368 . S
C722 C718 1.368 . S
C722 C721 1.523 . S
H723 C698 0.950 . S
H724 C700 0.950 . S
H725 C701 0.949 . S
H726 C703 0.950 . S
H727 C705 0.950 . S
C728 C729 1.349 . S
C728 C730 1.327 1_554 S
C728 H753 0.950 . S
C729 C728 1.349 . S
C729 C745 1.349 . S
C730 C728 1.327 1_556 S
C730 C749 1.429 . S
C730 H754 0.950 . S
C731 C748 1.574 . S
C731 C750 1.368 . S
C731 H755 0.949 . S
H732 C736 0.949 . S
C733 C734 1.349 . S
C733 C735 1.327 . S
C733 H756 0.950 . S
C734 C733 1.349 . S
C734 C746 1.349 . S
C735 C733 1.327 . S
C735 C751 1.429 . S
C735 H757 0.950 . S
C736 H732 0.949 . S
C736 C744 1.574 . S
C736 C752 1.368 . S
H737 C745 0.950 . S
H738 C743 0.950 . S
H739 C744 0.949 . S
H740 C746 0.950 . S
H741 C747 0.950 . S
H742 C748 0.949 . S
C743 H738 0.950 . S
C743 C745 1.327 . S
C743 C749 1.429 1_554 S
C744 C736 1.574 . S
C744 H739 0.949 . S
C744 C750 1.368 . S
C745 C729 1.349 . S
C745 H737 0.950 . S
C745 C743 1.327 . S
C746 C734 1.349 . S
C746 H740 0.950 . S
C746 C747 1.327 . S
C747 H741 0.950 . S
C747 C746 1.327 . S
C747 C751 1.429 . S
C748 C731 1.574 . S
C748 H742 0.949 . S
C748 C752 1.368 . S
C749 C730 1.429 . S
C749 C743 1.429 1_556 S
C749 C750 1.523 . S
C750 C731 1.368 . S
C750 C744 1.368 . S
C750 C749 1.523 . S
C751 C735 1.429 . S
C751 C747 1.429 . S
C751 C752 1.523 . S
C752 C736 1.368 . S
C752 C748 1.368 . S
C752 C751 1.523 . S
H753 C728 0.950 . S
H754 C730 0.950 . S
H755 C731 0.949 . S
H756 C733 0.950 . S
H757 C735 0.950 . S
C758 C759 1.349 . S
C758 C760 1.327 . S
C758 H783 0.950 . S
C759 C758 1.349 . S
C759 C775 1.349 . S
C760 C758 1.327 . S
C760 C779 1.429 . S
C760 H784 0.950 . S
C761 C778 1.574 . S
C761 C780 1.368 . S
C761 H785 0.949 . S
H762 C766 0.949 . S
C763 C764 1.349 . S
C763 C765 1.327 . S
C763 H786 0.950 . S
C764 C763 1.349 . S
C764 C776 1.349 . S
C765 C763 1.327 . S
C765 C781 1.429 . S
C765 H787 0.950 . S
C766 H762 0.949 . S
C766 C774 1.574 . S
C766 C782 1.368 . S
H767 C775 0.950 . S
H768 C773 0.950 . S
H769 C774 0.949 . S
H770 C776 0.950 . S
H771 C777 0.950 . S
H772 C778 0.949 . S
C773 H768 0.950 . S
C773 C775 1.327 . S
C773 C779 1.429 . S
C774 C766 1.574 . S
C774 H769 0.949 . S
C774 C780 1.368 . S
C775 C759 1.349 . S
C775 H767 0.950 . S
C775 C773 1.327 . S
C776 C764 1.349 . S
C776 H770 0.950 . S
C776 C777 1.327 . S
C777 H771 0.950 . S
C777 C776 1.327 . S
C777 C781 1.429 . S
C778 C761 1.574 . S
C778 H772 0.949 . S
C778 C782 1.368 . S
C779 C760 1.429 . S
C779 C773 1.429 . S
C779 C780 1.523 . S
C780 C761 1.368 . S
C780 C774 1.368 . S
C780 C779 1.523 . S
C781 C765 1.429 . S
C781 C777 1.429 . S
C781 C782 1.523 . S
C782 C766 1.368 . S
C782 C778 1.368 . S
C782 C781 1.523 . S
H783 C758 0.950 . S
H784 C760 0.950 . S
H785 C761 0.949 . S
H786 C763 0.950 . S
H787 C765 0.950 . S
C788 C789 1.349 . S
C788 C790 1.327 . S
C788 H813 0.950 . S
C789 C788 1.349 . S
C789 C805 1.349 . S
C790 C788 1.327 . S
C790 C809 1.429 . S
C790 H814 0.950 . S
C791 C808 1.574 . S
C791 C810 1.368 . S
C791 H815 0.949 . S
H792 C796 0.949 . S
C793 C794 1.349 . S
C793 C795 1.327 . S
C793 H816 0.950 . S
C794 C793 1.349 . S
C794 C806 1.349 1_554 S
C795 C793 1.327 . S
C795 C811 1.429 1_554 S
C795 H817 0.950 . S
C796 H792 0.949 . S
C796 C804 1.574 . S
C796 C812 1.368 . S
H797 C805 0.950 . S
H798 C803 0.950 . S
H799 C804 0.949 . S
H800 C806 0.950 . S
H801 C807 0.950 . S
H802 C808 0.949 . S
C803 H798 0.950 . S
C803 C805 1.327 . S
C803 C809 1.429 . S
C804 C796 1.574 . S
C804 H799 0.949 . S
C804 C810 1.368 . S
C805 C789 1.349 . S
C805 H797 0.950 . S
C805 C803 1.327 . S
C806 C794 1.349 1_556 S
C806 H800 0.950 . S
C806 C807 1.327 . S
C807 H801 0.950 . S
C807 C806 1.327 . S
C807 C811 1.429 . S
C808 C791 1.574 . S
C808 H802 0.949 . S
C808 C812 1.368 . S
C809 C790 1.429 . S
C809 C803 1.429 . S
C809 C810 1.523 . S
C810 C791 1.368 . S
C810 C804 1.368 . S
C810 C809 1.523 . S
C811 C795 1.429 1_556 S
C811 C807 1.429 . S
C811 C812 1.523 . S
C812 C796 1.368 . S
C812 C808 1.368 . S
C812 C811 1.523 . S
H813 C788 0.950 . S
H814 C790 0.950 . S
H815 C791 0.949 . S
H816 C793 0.950 . S
H817 C795 0.950 . S
C818 C819 1.349 . S
C818 C820 1.327 . S
C818 H843 0.950 . S
C819 C818 1.349 . S
C819 C835 1.349 . S
C820 C818 1.327 . S
C820 C839 1.429 . S
C820 H844 0.950 . S
C821 C838 1.574 . S
C821 C840 1.368 . S
C821 H845 0.949 . S
H822 C826 0.949 . S
C823 C824 1.349 . S
C823 C825 1.327 . S
C823 H846 0.950 . S
C824 C823 1.349 . S
C824 C836 1.349 . S
C825 C823 1.327 . S
C825 C841 1.429 . S
C825 H847 0.950 . S
C826 H822 0.949 . S
C826 C834 1.574 . S
C826 C842 1.368 . S
H827 C835 0.950 . S
H828 C833 0.950 . S
H829 C834 0.949 . S
H830 C836 0.950 . S
H831 C837 0.950 . S
H832 C838 0.949 . S
C833 H828 0.950 . S
C833 C835 1.327 . S
C833 C839 1.429 . S
C834 C826 1.574 . S
C834 H829 0.949 . S
C834 C840 1.368 . S
C835 C819 1.349 . S
C835 H827 0.950 . S
C835 C833 1.327 . S
C836 C824 1.349 . S
C836 H830 0.950 . S
C836 C837 1.327 . S
C837 H831 0.950 . S
C837 C836 1.327 . S
C837 C841 1.429 . S
C838 C821 1.574 . S
C838 H832 0.949 . S
C838 C842 1.368 . S
C839 C820 1.429 . S
C839 C833 1.429 . S
C839 C840 1.523 . S
C840 C821 1.368 . S
C840 C834 1.368 . S
C840 C839 1.523 . S
C841 C825 1.429 . S
C841 C837 1.429 . S
C841 C842 1.523 . S
C842 C826 1.368 . S
C842 C838 1.368 . S
C842 C841 1.523 . S
H843 C818 0.950 . S
H844 C820 0.950 . S
H845 C821 0.949 . S
H846 C823 0.950 . S
H847 C825 0.950 . S
C848 C849 1.349 . S
C848 C850 1.327 . S
C848 H873 0.950 . S
C849 C848 1.349 . S
C849 C865 1.349 1_556 S
C850 C848 1.327 . S
C850 C869 1.429 1_556 S
C850 H874 0.950 . S
C851 C868 1.574 . S
C851 C870 1.368 . S
C851 H875 0.949 . S
H852 C856 0.949 . S
C853 C854 1.349 . S
C853 C855 1.327 . S
C853 H876 0.950 . S
C854 C853 1.349 . S
C854 C866 1.349 . S
C855 C853 1.327 . S
C855 C871 1.429 . S
C855 H877 0.950 . S
C856 H852 0.949 . S
C856 C864 1.574 . S
C856 C872 1.368 . S
H857 C865 0.950 . S
H858 C863 0.950 . S
H859 C864 0.949 . S
H860 C866 0.950 . S
H861 C867 0.950 . S
H862 C868 0.949 . S
C863 H858 0.950 . S
C863 C865 1.327 . S
C863 C869 1.429 . S
C864 C856 1.574 . S
C864 H859 0.949 . S
C864 C870 1.368 . S
C865 C849 1.349 1_554 S
C865 H857 0.950 . S
C865 C863 1.327 . S
C866 C854 1.349 . S
C866 H860 0.950 . S
C866 C867 1.327 . S
C867 H861 0.950 . S
C867 C866 1.327 . S
C867 C871 1.429 . S
C868 C851 1.574 . S
C868 H862 0.949 . S
C868 C872 1.368 . S
C869 C850 1.429 1_554 S
C869 C863 1.429 . S
C869 C870 1.523 . S
C870 C851 1.368 . S
C870 C864 1.368 . S
C870 C869 1.523 . S
C871 C855 1.429 . S
C871 C867 1.429 . S
C871 C872 1.523 . S
C872 C856 1.368 . S
C872 C868 1.368 . S
C872 C871 1.523 . S
H873 C848 0.950 . S
H874 C850 0.950 . S
H875 C851 0.949 . S
H876 C853 0.950 . S
H877 C855 0.950 . S
C878 C879 1.349 . S
C878 C880 1.327 . S
C878 H903 0.950 . S
C879 C878 1.349 . S
C879 C895 1.349 . S
C880 C878 1.327 . S
C880 C899 1.429 . S
C880 H904 0.950 . S
C881 C898 1.574 . S
C881 C900 1.368 . S
C881 H905 0.949 . S
H882 C886 0.949 . S
C883 C884 1.349 . S
C883 C885 1.327 . S
C883 H906 0.950 . S
C884 C883 1.349 . S
C884 C896 1.349 . S
C885 C883 1.327 . S
C885 C901 1.429 . S
C885 H907 0.950 . S
C886 H882 0.949 . S
C886 C894 1.574 . S
C886 C902 1.368 . S
H887 C895 0.950 . S
H888 C893 0.950 . S
H889 C894 0.949 . S
H890 C896 0.950 . S
H891 C897 0.950 . S
H892 C898 0.949 . S
C893 H888 0.950 . S
C893 C895 1.327 . S
C893 C899 1.429 . S
C894 C886 1.574 . S
C894 H889 0.949 . S
C894 C900 1.368 . S
C895 C879 1.349 . S
C895 H887 0.950 . S
C895 C893 1.327 . S
C896 C884 1.349 . S
C896 H890 0.950 . S
C896 C897 1.327 . S
C897 H891 0.950 . S
C897 C896 1.327 . S
C897 C901 1.429 . S
C898 C881 1.574 . S
C898 H892 0.949 . S
C898 C902 1.368 . S
C899 C880 1.429 . S
C899 C893 1.429 . S
C899 C900 1.523 . S
C900 C881 1.368 . S
C900 C894 1.368 . S
C900 C899 1.523 . S
C901 C885 1.429 . S
C901 C897 1.429 . S
C901 C902 1.523 . S
C902 C886 1.368 . S
C902 C898 1.368 . S
C902 C901 1.523 . S
H903 C878 0.950 . S
H904 C880 0.950 . S
H905 C881 0.949 . S
H906 C883 0.950 . S
H907 C885 0.950 . S
C908 C909 1.349 . S
C908 C910 1.327 . S
C908 H933 0.950 . S
C909 C908 1.349 . S
C909 C925 1.349 . S
C910 C908 1.327 . S
C910 C929 1.429 . S
C910 H934 0.950 . S
C911 C928 1.574 . S
C911 C930 1.368 . S
C911 H935 0.949 . S
H912 C916 0.949 . S
C913 C914 1.349 . S
C913 C915 1.327 1_556 S
C913 H936 0.950 . S
C914 C913 1.349 . S
C914 C926 1.349 . S
C915 C913 1.327 1_554 S
C915 C931 1.429 . S
C915 H937 0.950 . S
C916 H912 0.949 . S
C916 C924 1.574 . S
C916 C932 1.368 . S
H917 C925 0.950 . S
H918 C923 0.950 . S
H919 C924 0.949 . S
H920 C926 0.950 . S
H921 C927 0.950 . S
H922 C928 0.949 . S
C923 H918 0.950 . S
C923 C925 1.327 . S
C923 C929 1.429 . S
C924 C916 1.574 . S
C924 H919 0.949 . S
C924 C930 1.368 . S
C925 C909 1.349 . S
C925 H917 0.950 . S
C925 C923 1.327 . S
C926 C914 1.349 . S
C926 H920 0.950 . S
C926 C927 1.327 . S
C927 H921 0.950 . S
C927 C926 1.327 . S
C927 C931 1.429 1_556 S
C928 C911 1.574 . S
C928 H922 0.949 . S
C928 C932 1.368 . S
C929 C910 1.429 . S
C929 C923 1.429 . S
C929 C930 1.523 . S
C930 C911 1.368 . S
C930 C924 1.368 . S
C930 C929 1.523 . S
C931 C915 1.429 . S
C931 C927 1.429 1_554 S
C931 C932 1.523 . S
C932 C916 1.368 . S
C932 C928 1.368 . S
C932 C931 1.523 . S
H933 C908 0.950 . S
H934 C910 0.950 . S
H935 C911 0.949 . S
H936 C913 0.950 . S
H937 C915 0.950 . S
C938 C939 1.349 . S
C938 C940 1.327 . S
C938 H963 0.950 . S
C939 C938 1.349 . S
C939 C955 1.349 . S
C940 C938 1.327 . S
C940 C959 1.429 . S
C940 H964 0.950 . S
C941 C958 1.574 . S
C941 C960 1.368 . S
C941 H965 0.949 . S
H942 C946 0.949 . S
C943 C944 1.349 . S
C943 C945 1.327 . S
C943 H966 0.950 . S
C944 C943 1.349 . S
C944 C956 1.349 . S
C945 C943 1.327 . S
C945 C961 1.429 . S
C945 H967 0.950 . S
C946 H942 0.949 . S
C946 C954 1.574 . S
C946 C962 1.368 . S
H947 C955 0.950 . S
H948 C953 0.950 . S
H949 C954 0.949 . S
H950 C956 0.950 . S
H951 C957 0.950 . S
H952 C958 0.949 . S
C953 H948 0.950 . S
C953 C955 1.327 . S
C953 C959 1.429 . S
C954 C946 1.574 . S
C954 H949 0.949 . S
C954 C960 1.368 . S
C955 C939 1.349 . S
C955 H947 0.950 . S
C955 C953 1.327 . S
C956 C944 1.349 . S
C956 H950 0.950 . S
C956 C957 1.327 . S
C957 H951 0.950 . S
C957 C956 1.327 . S
C957 C961 1.429 . S
C958 C941 1.574 . S
C958 H952 0.949 . S
C958 C962 1.368 . S
C959 C940 1.429 . S
C959 C953 1.429 . S
C959 C960 1.523 . S
C960 C941 1.368 . S
C960 C954 1.368 . S
C960 C959 1.523 . S
C961 C945 1.429 . S
C961 C957 1.429 . S
C961 C962 1.523 . S
C962 C946 1.368 . S
C962 C958 1.368 . S
C962 C961 1.523 . S
H963 C938 0.950 . S
H964 C940 0.950 . S
H965 C941 0.949 . S
H966 C943 0.950 . S
H967 C945 0.950 . S
C968 C969 1.349 . S
C968 C970 1.327 . S
C968 H993 0.950 . S
C969 C968 1.349 . S
C969 C985 1.349 . S
C970 C968 1.327 . S
C970 C989 1.429 . S
C970 H994 0.950 . S
C971 C988 1.574 . S
C971 C990 1.368 . S
C971 H995 0.949 . S
H972 C976 0.949 . S
C973 C974 1.349 . S
C973 C975 1.327 . S
C973 H996 0.950 . S
C974 C973 1.349 . S
C974 C986 1.349 . S
C975 C973 1.327 . S
C975 C991 1.429 . S
C975 H997 0.950 . S
C976 H972 0.949 . S
C976 C984 1.574 . S
C976 C992 1.368 . S
H977 C985 0.950 . S
H978 C983 0.950 . S
H979 C984 0.949 . S
H980 C986 0.950 . S
H981 C987 0.950 . S
H982 C988 0.949 . S
C983 H978 0.950 . S
C983 C985 1.327 . S
C983 C989 1.429 . S
C984 C976 1.574 . S
C984 H979 0.949 . S
C984 C990 1.368 . S
C985 C969 1.349 . S
C985 H977 0.950 . S
C985 C983 1.327 . S
C986 C974 1.349 . S
C986 H980 0.950 . S
C986 C987 1.327 . S
C987 H981 0.950 . S
C987 C986 1.327 . S
C987 C991 1.429 . S
C988 C971 1.574 . S
C988 H982 0.949 . S
C988 C992 1.368 . S
C989 C970 1.429 . S
C989 C983 1.429 . S
C989 C990 1.523 . S
C990 C971 1.368 . S
C990 C984 1.368 . S
C990 C989 1.523 . S
C991 C975 1.429 . S
C991 C987 1.429 . S
C991 C992 1.523 . S
C992 C976 1.368 . S
C992 C988 1.368 . S
C992 C991 1.523 . S
H993 C968 0.950 . S
H994 C970 0.950 . S
H995 C971 0.949 . S
H996 C973 0.950 . S
H997 C975 0.950 . S
C998 C999 1.349 . S
C998 C1000 1.327 . S
C998 H1023 0.950 1_565 S
C999 C998 1.349 . S
C999 C1015 1.349 . S
C1000 C998 1.327 . S
C1000 C1019 1.429 . S
C1000 H1024 0.950 . S
C1001 C1018 1.574 . S
C1001 C1020 1.368 . S
C1001 H1025 0.949 . S
H1002 C1006 0.949 . S
C1003 C1004 1.349 . S
C1003 C1005 1.327 . S
C1003 H1026 0.950 . S
C1004 C1003 1.349 . S
C1004 C1016 1.349 . S
C1005 C1003 1.327 . S
C1005 C1021 1.429 . S
C1005 H1027 0.950 . S
C1006 H1002 0.949 . S
C1006 C1014 1.574 . S
C1006 C1022 1.368 . S
H1007 C1015 0.950 . S
H1008 C1013 0.950 . S
H1009 C1014 0.949 . S
H1010 C1016 0.950 . S
H1011 C1017 0.950 . S
H1012 C1018 0.949 . S
C1013 H1008 0.950 . S
C1013 C1015 1.327 . S
C1013 C1019 1.429 . S
C1014 C1006 1.574 . S
C1014 H1009 0.949 . S
C1014 C1020 1.368 . S
C1015 C999 1.349 . S
C1015 H1007 0.950 . S
C1015 C1013 1.327 . S
C1016 C1004 1.349 . S
C1016 H1010 0.950 . S
C1016 C1017 1.327 . S
C1017 H1011 0.950 . S
C1017 C1016 1.327 . S
C1017 C1021 1.429 . S
C1018 C1001 1.574 . S
C1018 H1012 0.949 . S
C1018 C1022 1.368 . S
C1019 C1000 1.429 . S
C1019 C1013 1.429 . S
C1019 C1020 1.523 . S
C1020 C1001 1.368 . S
C1020 C1014 1.368 . S
C1020 C1019 1.523 . S
C1021 C1005 1.429 . S
C1021 C1017 1.429 . S
C1021 C1022 1.523 . S
C1022 C1006 1.368 . S
C1022 C1018 1.368 . S
C1022 C1021 1.523 . S
H1023 C998 0.950 1_545 S
H1024 C1000 0.950 . S
H1025 C1001 0.949 . S
H1026 C1003 0.950 . S
H1027 C1005 0.950 . S
C1028 C1029 1.349 . S
C1028 C1030 1.327 . S
C1028 H1053 0.950 . S
C1029 C1028 1.349 . S
C1029 C1045 1.349 . S
C1030 C1028 1.327 . S
C1030 C1049 1.429 . S
C1030 H1054 0.950 . S
C1031 C1048 1.574 . S
C1031 C1050 1.368 . S
C1031 H1055 0.949 . S
H1032 C1036 0.949 . S
C1033 C1034 1.349 . S
C1033 C1035 1.327 . S
C1033 H1056 0.950 . S
C1034 C1033 1.349 . S
C1034 C1046 1.349 1_455 S
C1035 C1033 1.327 . S
C1035 C1051 1.429 . S
C1035 H1057 0.950 . S
C1036 H1032 0.949 . S
C1036 C1044 1.574 . S
C1036 C1052 1.368 . S
H1037 C1045 0.950 . S
H1038 C1043 0.950 . S
H1039 C1044 0.949 . S
H1040 C1046 0.950 . S
H1041 C1047 0.950 . S
H1042 C1048 0.949 . S
C1043 H1038 0.950 . S
C1043 C1045 1.327 . S
C1043 C1049 1.429 . S
C1044 C1036 1.574 . S
C1044 H1039 0.949 . S
C1044 C1050 1.368 . S
C1045 C1029 1.349 . S
C1045 H1037 0.950 . S
C1045 C1043 1.327 . S
C1046 C1034 1.349 1_655 S
C1046 H1040 0.950 . S
C1046 C1047 1.327 1_655 S
C1047 H1041 0.950 . S
C1047 C1046 1.327 1_455 S
C1047 C1051 1.429 . S
C1048 C1031 1.574 . S
C1048 H1042 0.949 . S
C1048 C1052 1.368 . S
C1049 C1030 1.429 . S
C1049 C1043 1.429 . S
C1049 C1050 1.523 . S
C1050 C1031 1.368 . S
C1050 C1044 1.368 . S
C1050 C1049 1.523 . S
C1051 C1035 1.429 . S
C1051 C1047 1.429 . S
C1051 C1052 1.523 . S
C1052 C1036 1.368 . S
C1052 C1048 1.368 . S
C1052 C1051 1.523 . S
H1053 C1028 0.950 . S
H1054 C1030 0.950 . S
H1055 C1031 0.949 . S
H1056 C1033 0.950 . S
H1057 C1035 0.950 . S
C1058 C1059 1.349 . S
C1058 C1060 1.327 . S
C1058 H1083 0.950 . S
C1059 C1058 1.349 . S
C1059 C1075 1.349 . S
C1060 C1058 1.327 . S
C1060 C1079 1.429 . S
C1060 H1084 0.950 . S
C1061 C1078 1.574 . S
C1061 C1080 1.368 . S
C1061 H1085 0.949 . S
H1062 C1066 0.949 . S
C1063 C1064 1.349 . S
C1063 C1065 1.327 . S
C1063 H1086 0.950 . S
C1064 C1063 1.349 . S
C1064 C1076 1.349 . S
C1065 C1063 1.327 . S
C1065 C1081 1.429 . S
C1065 H1087 0.950 . S
C1066 H1062 0.949 . S
C1066 C1074 1.574 . S
C1066 C1082 1.368 . S
H1067 C1075 0.950 . S
H1068 C1073 0.950 . S
H1069 C1074 0.949 . S
H1070 C1076 0.950 . S
H1071 C1077 0.950 . S
H1072 C1078 0.949 . S
C1073 H1068 0.950 . S
C1073 C1075 1.327 . S
C1073 C1079 1.429 . S
C1074 C1066 1.574 . S
C1074 H1069 0.949 . S
C1074 C1080 1.368 . S
C1075 C1059 1.349 . S
C1075 H1067 0.950 . S
C1075 C1073 1.327 . S
C1076 C1064 1.349 . S
C1076 H1070 0.950 . S
C1076 C1077 1.327 . S
C1077 H1071 0.950 . S
C1077 C1076 1.327 . S
C1077 C1081 1.429 . S
C1078 C1061 1.574 . S
C1078 H1072 0.949 . S
C1078 C1082 1.368 . S
C1079 C1060 1.429 . S
C1079 C1073 1.429 . S
C1079 C1080 1.523 . S
C1080 C1061 1.368 . S
C1080 C1074 1.368 . S
C1080 C1079 1.523 . S
C1081 C1065 1.429 . S
C1081 C1077 1.429 . S
C1081 C1082 1.523 . S
C1082 C1066 1.368 . S
C1082 C1078 1.368 . S
C1082 C1081 1.523 . S
H1083 C1058 0.950 . S
H1084 C1060 0.950 . S
H1085 C1061 0.949 . S
H1086 C1063 0.950 . S
H1087 C1065 0.950 . S
C1088 C1089 1.349 . S
C1088 C1090 1.327 . S
C1088 H1113 0.950 . S
C1089 C1088 1.349 . S
C1089 C1105 1.349 . S
C1090 C1088 1.327 . S
C1090 C1109 1.429 . S
C1090 H1114 0.950 . S
C1091 C1108 1.574 . S
C1091 C1110 1.368 . S
C1091 H1115 0.949 . S
H1092 C1096 0.949 . S
C1093 C1094 1.349 . S
C1093 C1095 1.327 . S
C1093 H1116 0.950 . S
C1094 C1093 1.349 . S
C1094 C1106 1.349 . S
C1095 C1093 1.327 . S
C1095 C1111 1.429 . S
C1095 H1117 0.950 . S
C1096 H1092 0.949 . S
C1096 C1104 1.574 . S
C1096 C1112 1.368 . S
H1097 C1105 0.950 . S
H1098 C1103 0.950 . S
H1099 C1104 0.949 . S
H1100 C1106 0.950 . S
H1101 C1107 0.950 . S
H1102 C1108 0.949 . S
C1103 H1098 0.950 . S
C1103 C1105 1.327 . S
C1103 C1109 1.429 . S
C1104 C1096 1.574 . S
C1104 H1099 0.949 . S
C1104 C1110 1.368 . S
C1105 C1089 1.349 . S
C1105 H1097 0.950 . S
C1105 C1103 1.327 . S
C1106 C1094 1.349 . S
C1106 H1100 0.950 . S
C1106 C1107 1.327 . S
C1107 H1101 0.950 . S
C1107 C1106 1.327 . S
C1107 C1111 1.429 . S
C1108 C1091 1.574 . S
C1108 H1102 0.949 . S
C1108 C1112 1.368 . S
C1109 C1090 1.429 . S
C1109 C1103 1.429 . S
C1109 C1110 1.523 . S
C1110 C1091 1.368 . S
C1110 C1104 1.368 . S
C1110 C1109 1.523 . S
C1111 C1095 1.429 . S
C1111 C1107 1.429 . S
C1111 C1112 1.523 . S
C1112 C1096 1.368 . S
C1112 C1108 1.368 . S
C1112 C1111 1.523 . S
H1113 C1088 0.950 . S
H1114 C1090 0.950 . S
H1115 C1091 0.949 . S
H1116 C1093 0.950 . S
H1117 C1095 0.950 . S
C1118 C1119 1.349 . S
C1118 C1120 1.327 . S
C1118 H1143 0.950 . S
C1119 C1118 1.349 . S
C1119 C1135 1.349 1_545 S
C1120 C1118 1.327 . S
C1120 C1139 1.429 . S
C1120 H1144 0.950 . S
C1121 C1138 1.574 . S
C1121 C1140 1.368 . S
C1121 H1145 0.949 . S
H1122 C1126 0.949 . S
C1123 C1124 1.349 . S
C1123 C1125 1.327 . S
C1123 H1146 0.950 . S
C1124 C1123 1.349 . S
C1124 C1136 1.349 . S
C1125 C1123 1.327 . S
C1125 C1141 1.429 . S
C1125 H1147 0.950 . S
C1126 H1122 0.949 . S
C1126 C1134 1.574 . S
C1126 C1142 1.368 . S
H1127 C1135 0.950 . S
H1128 C1133 0.950 . S
H1129 C1134 0.949 . S
H1130 C1136 0.950 . S
H1131 C1137 0.950 . S
H1132 C1138 0.949 . S
C1133 H1128 0.950 . S
C1133 C1135 1.327 1_545 S
C1133 C1139 1.429 . S
C1134 C1126 1.574 . S
C1134 H1129 0.949 . S
C1134 C1140 1.368 . S
C1135 C1119 1.349 1_565 S
C1135 H1127 0.950 . S
C1135 C1133 1.327 1_565 S
C1136 C1124 1.349 . S
C1136 H1130 0.950 . S
C1136 C1137 1.327 . S
C1137 H1131 0.950 . S
C1137 C1136 1.327 . S
C1137 C1141 1.429 . S
C1138 C1121 1.574 . S
C1138 H1132 0.949 . S
C1138 C1142 1.368 . S
C1139 C1120 1.429 . S
C1139 C1133 1.429 . S
C1139 C1140 1.523 . S
C1140 C1121 1.368 . S
C1140 C1134 1.368 . S
C1140 C1139 1.523 . S
C1141 C1125 1.429 . S
C1141 C1137 1.429 . S
C1141 C1142 1.523 . S
C1142 C1126 1.368 . S
C1142 C1138 1.368 . S
C1142 C1141 1.523 . S
H1143 C1118 0.950 . S
H1144 C1120 0.950 . S
H1145 C1121 0.949 . S
H1146 C1123 0.950 . S
H1147 C1125 0.950 . S
C1148 C1149 1.349 1_455 S
C1148 C1150 1.327 1_455 S
C1148 H1173 0.950 . S
C1149 C1148 1.349 1_655 S
C1149 C1165 1.349 . S
C1150 C1148 1.327 1_655 S
C1150 C1169 1.429 . S
C1150 H1174 0.950 . S
C1151 C1168 1.574 . S
C1151 C1170 1.368 . S
C1151 H1175 0.949 . S
H1152 C1156 0.949 . S
C1153 C1154 1.349 . S
C1153 C1155 1.327 . S
C1153 H1176 0.950 . S
C1154 C1153 1.349 . S
C1154 C1166 1.349 . S
C1155 C1153 1.327 . S
C1155 C1171 1.429 . S
C1155 H1177 0.950 . S
C1156 H1152 0.949 . S
C1156 C1164 1.574 . S
C1156 C1172 1.368 . S
H1157 C1165 0.950 . S
H1158 C1163 0.950 . S
H1159 C1164 0.949 . S
H1160 C1166 0.950 . S
H1161 C1167 0.950 . S
H1162 C1168 0.949 . S
C1163 H1158 0.950 . S
C1163 C1165 1.327 . S
C1163 C1169 1.429 . S
C1164 C1156 1.574 . S
C1164 H1159 0.949 . S
C1164 C1170 1.368 . S
C1165 C1149 1.349 . S
C1165 H1157 0.950 . S
C1165 C1163 1.327 . S
C1166 C1154 1.349 . S
C1166 H1160 0.950 . S
C1166 C1167 1.327 . S
C1167 H1161 0.950 . S
C1167 C1166 1.327 . S
C1167 C1171 1.429 . S
C1168 C1151 1.574 . S
C1168 H1162 0.949 . S
C1168 C1172 1.368 . S
C1169 C1150 1.429 . S
C1169 C1163 1.429 . S
C1169 C1170 1.523 . S
C1170 C1151 1.368 . S
C1170 C1164 1.368 . S
C1170 C1169 1.523 . S
C1171 C1155 1.429 . S
C1171 C1167 1.429 . S
C1171 C1172 1.523 . S
C1172 C1156 1.368 . S
C1172 C1168 1.368 . S
C1172 C1171 1.523 . S
H1173 C1148 0.950 . S
H1174 C1150 0.950 . S
H1175 C1151 0.949 . S
H1176 C1153 0.950 . S
H1177 C1155 0.950 . S
C1178 C1179 1.349 . S
C1178 C1180 1.327 . S
C1178 H1203 0.950 . S
C1179 C1178 1.349 . S
C1179 C1195 1.349 . S
C1180 C1178 1.327 . S
C1180 C1199 1.429 . S
C1180 H1204 0.950 . S
C1181 C1198 1.574 . S
C1181 C1200 1.368 . S
C1181 H1205 0.949 . S
H1182 C1186 0.949 . S
C1183 C1184 1.349 . S
C1183 C1185 1.327 . S
C1183 H1206 0.950 . S
C1184 C1183 1.349 . S
C1184 C1196 1.349 . S
C1185 C1183 1.327 . S
C1185 C1201 1.429 . S
C1185 H1207 0.950 . S
C1186 H1182 0.949 . S
C1186 C1194 1.574 . S
C1186 C1202 1.368 . S
H1187 C1195 0.950 . S
H1188 C1193 0.950 . S
H1189 C1194 0.949 . S
H1190 C1196 0.950 . S
H1191 C1197 0.950 . S
H1192 C1198 0.949 . S
C1193 H1188 0.950 . S
C1193 C1195 1.327 . S
C1193 C1199 1.429 . S
C1194 C1186 1.574 . S
C1194 H1189 0.949 . S
C1194 C1200 1.368 . S
C1195 C1179 1.349 . S
C1195 H1187 0.950 . S
C1195 C1193 1.327 . S
C1196 C1184 1.349 . S
C1196 H1190 0.950 . S
C1196 C1197 1.327 . S
C1197 H1191 0.950 . S
C1197 C1196 1.327 . S
C1197 C1201 1.429 . S
C1198 C1181 1.574 . S
C1198 H1192 0.949 . S
C1198 C1202 1.368 . S
C1199 C1180 1.429 . S
C1199 C1193 1.429 . S
C1199 C1200 1.523 . S
C1200 C1181 1.368 . S
C1200 C1194 1.368 . S
C1200 C1199 1.523 . S
C1201 C1185 1.429 . S
C1201 C1197 1.429 . S
C1201 C1202 1.523 . S
C1202 C1186 1.368 . S
C1202 C1198 1.368 . S
C1202 C1201 1.523 . S
H1203 C1178 0.950 . S
H1204 C1180 0.950 . S
H1205 C1181 0.949 . S
H1206 C1183 0.950 . S
H1207 C1185 0.950 . S
C249 C24 1.228 . S
C254 C49 1.219 . S
C279 C55 1.228 . S
C284 C80 1.219 . S
C309 C86 1.228 . S
C314 C111 1.219 . S
C339 C18 1.219 . S
C344 C117 1.228 . S
C369 C124 1.228 . S
C374 C166 1.219 . S
C399 C155 1.228 . S
C404 C197 1.219 . S
C429 C186 1.228 . S
C434 C228 1.219 . S
C459 C217 1.228 . S
C464 C135 1.219 . S
C489 C0 1.254 . S
C494 C148 1.254 . S
C519 C31 1.254 . S
C524 C179 1.254 . S
C549 C62 1.254 . S
C554 C210 1.254 . S
C579 C93 1.254 . S
C584 C241 1.254 . S
C609 C27 0.540 . S
C614 C89 0.540 . S
C639 C120 0.540 . S
C644 C58 0.540 . S
C669 C125 0.540 . S
C674 C187 0.540 . S
C699 C156 0.540 . S
C704 C218 0.540 . S
C729 C10 2.350 . S
C734 C33 2.074 . S
C759 C41 2.350 . S
C764 C64 2.074 . S
C789 C95 2.074 . S
C794 C72 2.350 . S
C819 C103 2.350 . S
C824 C2 2.074 . S
C849 C126 2.350 . S
C854 C165 2.074 . S
C879 C196 2.074 . S
C884 C157 2.350 . S
C909 C227 2.074 . S
C914 C188 2.350 . S
C939 C134 2.074 . S
C944 C219 2.350 . S
C969 C11 1.464 . S
C974 C182 1.500 . S
C999 C42 1.464 1_565 S
C1004 C213 1.501 . S
C1029 C244 1.500 . S
C1034 C73 1.464 1_455 S
C1059 C151 1.500 . S
C1064 C104 1.464 . S
C1089 C32 1.500 . S
C1094 C142 1.464 . S
C1119 C173 1.464 1_545 S
C1124 C63 1.501 . S
C1149 C204 1.464 1_655 S
C1154 C94 1.500 . S
C1179 C1 1.500 . S
C1184 C235 1.464 . S
