# Generated by pormake.
# Topology unu, (4)-cn, num edge types: 1
# Building blocks:
#     Node 0, Type 0, BuildingBlock: AZAVOO_clean_sbu_0, # of connection points: 4
#     Node 1, Type 0, BuildingBlock: AZAVOO_clean_sbu_0, # of connection points: 4
#     Node 2, Type 0, BuildingBlock: AZAVOO_clean_sbu_0, # of connection points: 4
#     Node 3, Type 0, BuildingBlock: AZAVOO_clean_sbu_0, # of connection points: 4
#     Node 4, Type 0, BuildingBlock: AZAVOO_clean_sbu_0, # of connection points: 4
#     Node 5, Type 0, BuildingBlock: AZAVOO_clean_sbu_0, # of connection points: 4
#     Node 6, Type 0, BuildingBlock: AZAVOO_clean_sbu_0, # of connection points: 4
#     Node 7, Type 0, BuildingBlock: AZAVOO_clean_sbu_0, # of connection points: 4
#     Node 8, Type 0, BuildingBlock: AZAVOO_clean_sbu_0, # of connection points: 4
#     Node 9, Type 0, BuildingBlock: AZAVOO_clean_sbu_0, # of connection points: 4
#     Node 10, Type 0, BuildingBlock: AZAVOO_clean_sbu_0, # of connection points: 4
#     Node 11, Type 0, BuildingBlock: AZAVOO_clean_sbu_0, # of connection points: 4
#     Node 12, Type 0, BuildingBlock: AZAVOO_clean_sbu_0, # of connection points: 4
#     Node 13, Type 0, BuildingBlock: AZAVOO_clean_sbu_0, # of connection points: 4
#     Node 14, Type 0, BuildingBlock: AZAVOO_clean_sbu_0, # of connection points: 4
#     Node 15, Type 0, BuildingBlock: AZAVOO_clean_sbu_0, # of connection points: 4
#     Node 16, Type 0, BuildingBlock: AZAVOO_clean_sbu_0, # of connection points: 4
#     Node 17, Type 0, BuildingBlock: AZAVOO_clean_sbu_0, # of connection points: 4
#     Node 18, Type 0, BuildingBlock: AZAVOO_clean_sbu_0, # of connection points: 4
#     Node 19, Type 0, BuildingBlock: AZAVOO_clean_sbu_0, # of connection points: 4
#     Node 20, Type 0, BuildingBlock: AZAVOO_clean_sbu_0, # of connection points: 4
#     Node 21, Type 0, BuildingBlock: AZAVOO_clean_sbu_0, # of connection points: 4
#     Node 22, Type 0, BuildingBlock: AZAVOO_clean_sbu_0, # of connection points: 4
#     Node 23, Type 0, BuildingBlock: AZAVOO_clean_sbu_0, # of connection points: 4
#     Node 24, Type 0, BuildingBlock: AZAVOO_clean_sbu_0, # of connection points: 4
#     Node 25, Type 0, BuildingBlock: AZAVOO_clean_sbu_0, # of connection points: 4
#     Node 26, Type 0, BuildingBlock: AZAVOO_clean_sbu_0, # of connection points: 4
#     Node 27, Type 0, BuildingBlock: AZAVOO_clean_sbu_0, # of connection points: 4
#     Node 28, Type 0, BuildingBlock: AZAVOO_clean_sbu_0, # of connection points: 4
#     Node 29, Type 0, BuildingBlock: AZAVOO_clean_sbu_0, # of connection points: 4
#     Node 30, Type 0, BuildingBlock: AZAVOO_clean_sbu_0, # of connection points: 4
#     Node 31, Type 0, BuildingBlock: AZAVOO_clean_sbu_0, # of connection points: 4
#     Node 32, Type 0, BuildingBlock: AZAVOO_clean_sbu_0, # of connection points: 4
#     Node 33, Type 0, BuildingBlock: AZAVOO_clean_sbu_0, # of connection points: 4
#     Node 34, Type 0, BuildingBlock: AZAVOO_clean_sbu_0, # of connection points: 4
#     Node 35, Type 0, BuildingBlock: AZAVOO_clean_sbu_0, # of connection points: 4
#     Edge 36, Type (0, 0), BuildingBlock: KIFKEQ_clean_linker_1, # of connection points: 2
#     Edge 37, Type (0, 0), BuildingBlock: KIFKEQ_clean_linker_1, # of connection points: 2
#     Edge 38, Type (0, 0), BuildingBlock: KIFKEQ_clean_linker_1, # of connection points: 2
#     Edge 39, Type (0, 0), BuildingBlock: KIFKEQ_clean_linker_1, # of connection points: 2
#     Edge 40, Type (0, 0), BuildingBlock: KIFKEQ_clean_linker_1, # of connection points: 2
#     Edge 41, Type (0, 0), BuildingBlock: KIFKEQ_clean_linker_1, # of connection points: 2
#     Edge 42, Type (0, 0), BuildingBlock: KIFKEQ_clean_linker_1, # of connection points: 2
#     Edge 43, Type (0, 0), BuildingBlock: KIFKEQ_clean_linker_1, # of connection points: 2
#     Edge 44, Type (0, 0), BuildingBlock: KIFKEQ_clean_linker_1, # of connection points: 2
#     Edge 45, Type (0, 0), BuildingBlock: KIFKEQ_clean_linker_1, # of connection points: 2
#     Edge 46, Type (0, 0), BuildingBlock: KIFKEQ_clean_linker_1, # of connection points: 2
#     Edge 47, Type (0, 0), BuildingBlock: KIFKEQ_clean_linker_1, # of connection points: 2
#     Edge 48, Type (0, 0), BuildingBlock: KIFKEQ_clean_linker_1, # of connection points: 2
#     Edge 49, Type (0, 0), BuildingBlock: KIFKEQ_clean_linker_1, # of connection points: 2
#     Edge 50, Type (0, 0), BuildingBlock: KIFKEQ_clean_linker_1, # of connection points: 2
#     Edge 51, Type (0, 0), BuildingBlock: KIFKEQ_clean_linker_1, # of connection points: 2
#     Edge 52, Type (0, 0), BuildingBlock: KIFKEQ_clean_linker_1, # of connection points: 2
#     Edge 53, Type (0, 0), BuildingBlock: KIFKEQ_clean_linker_1, # of connection points: 2
#     Edge 54, Type (0, 0), BuildingBlock: KIFKEQ_clean_linker_1, # of connection points: 2
#     Edge 55, Type (0, 0), BuildingBlock: KIFKEQ_clean_linker_1, # of connection points: 2
#     Edge 56, Type (0, 0), BuildingBlock: KIFKEQ_clean_linker_1, # of connection points: 2
#     Edge 57, Type (0, 0), BuildingBlock: KIFKEQ_clean_linker_1, # of connection points: 2
#     Edge 58, Type (0, 0), BuildingBlock: KIFKEQ_clean_linker_1, # of connection points: 2
#     Edge 59, Type (0, 0), BuildingBlock: KIFKEQ_clean_linker_1, # of connection points: 2
#     Edge 60, Type (0, 0), BuildingBlock: KIFKEQ_clean_linker_1, # of connection points: 2
#     Edge 61, Type (0, 0), BuildingBlock: KIFKEQ_clean_linker_1, # of connection points: 2
#     Edge 62, Type (0, 0), BuildingBlock: KIFKEQ_clean_linker_1, # of connection points: 2
#     Edge 63, Type (0, 0), BuildingBlock: KIFKEQ_clean_linker_1, # of connection points: 2
#     Edge 64, Type (0, 0), BuildingBlock: KIFKEQ_clean_linker_1, # of connection points: 2
#     Edge 65, Type (0, 0), BuildingBlock: KIFKEQ_clean_linker_1, # of connection points: 2
#     Edge 66, Type (0, 0), BuildingBlock: KIFKEQ_clean_linker_1, # of connection points: 2
#     Edge 67, Type (0, 0), BuildingBlock: KIFKEQ_clean_linker_1, # of connection points: 2
#     Edge 68, Type (0, 0), BuildingBlock: KIFKEQ_clean_linker_1, # of connection points: 2
#     Edge 69, Type (0, 0), BuildingBlock: KIFKEQ_clean_linker_1, # of connection points: 2
#     Edge 70, Type (0, 0), BuildingBlock: KIFKEQ_clean_linker_1, # of connection points: 2
#     Edge 71, Type (0, 0), BuildingBlock: KIFKEQ_clean_linker_1, # of connection points: 2
#     Edge 72, Type (0, 0), BuildingBlock: KIFKEQ_clean_linker_1, # of connection points: 2
#     Edge 73, Type (0, 0), BuildingBlock: KIFKEQ_clean_linker_1, # of connection points: 2
#     Edge 74, Type (0, 0), BuildingBlock: KIFKEQ_clean_linker_1, # of connection points: 2
#     Edge 75, Type (0, 0), BuildingBlock: KIFKEQ_clean_linker_1, # of connection points: 2
#     Edge 76, Type (0, 0), BuildingBlock: KIFKEQ_clean_linker_1, # of connection points: 2
#     Edge 77, Type (0, 0), BuildingBlock: KIFKEQ_clean_linker_1, # of connection points: 2
#     Edge 78, Type (0, 0), BuildingBlock: KIFKEQ_clean_linker_1, # of connection points: 2
#     Edge 79, Type (0, 0), BuildingBlock: KIFKEQ_clean_linker_1, # of connection points: 2
#     Edge 80, Type (0, 0), BuildingBlock: KIFKEQ_clean_linker_1, # of connection points: 2
#     Edge 81, Type (0, 0), BuildingBlock: KIFKEQ_clean_linker_1, # of connection points: 2
#     Edge 82, Type (0, 0), BuildingBlock: KIFKEQ_clean_linker_1, # of connection points: 2
#     Edge 83, Type (0, 0), BuildingBlock: KIFKEQ_clean_linker_1, # of connection points: 2
#     Edge 84, Type (0, 0), BuildingBlock: KIFKEQ_clean_linker_1, # of connection points: 2
#     Edge 85, Type (0, 0), BuildingBlock: KIFKEQ_clean_linker_1, # of connection points: 2
#     Edge 86, Type (0, 0), BuildingBlock: KIFKEQ_clean_linker_1, # of connection points: 2
#     Edge 87, Type (0, 0), BuildingBlock: KIFKEQ_clean_linker_1, # of connection points: 2
#     Edge 88, Type (0, 0), BuildingBlock: KIFKEQ_clean_linker_1, # of connection points: 2
#     Edge 89, Type (0, 0), BuildingBlock: KIFKEQ_clean_linker_1, # of connection points: 2
#     Edge 90, Type (0, 0), BuildingBlock: KIFKEQ_clean_linker_1, # of connection points: 2
#     Edge 91, Type (0, 0), BuildingBlock: KIFKEQ_clean_linker_1, # of connection points: 2
#     Edge 92, Type (0, 0), BuildingBlock: KIFKEQ_clean_linker_1, # of connection points: 2
#     Edge 93, Type (0, 0), BuildingBlock: KIFKEQ_clean_linker_1, # of connection points: 2
#     Edge 94, Type (0, 0), BuildingBlock: KIFKEQ_clean_linker_1, # of connection points: 2
#     Edge 95, Type (0, 0), BuildingBlock: KIFKEQ_clean_linker_1, # of connection points: 2
#     Edge 96, Type (0, 0), BuildingBlock: KIFKEQ_clean_linker_1, # of connection points: 2
#     Edge 97, Type (0, 0), BuildingBlock: KIFKEQ_clean_linker_1, # of connection points: 2
#     Edge 98, Type (0, 0), BuildingBlock: KIFKEQ_clean_linker_1, # of connection points: 2
#     Edge 99, Type (0, 0), BuildingBlock: KIFKEQ_clean_linker_1, # of connection points: 2
#     Edge 100, Type (0, 0), BuildingBlock: KIFKEQ_clean_linker_1, # of connection points: 2
#     Edge 101, Type (0, 0), BuildingBlock: KIFKEQ_clean_linker_1, # of connection points: 2
#     Edge 102, Type (0, 0), BuildingBlock: KIFKEQ_clean_linker_1, # of connection points: 2
#     Edge 103, Type (0, 0), BuildingBlock: KIFKEQ_clean_linker_1, # of connection points: 2
#     Edge 104, Type (0, 0), BuildingBlock: KIFKEQ_clean_linker_1, # of connection points: 2
#     Edge 105, Type (0, 0), BuildingBlock: KIFKEQ_clean_linker_1, # of connection points: 2
#     Edge 106, Type (0, 0), BuildingBlock: KIFKEQ_clean_linker_1, # of connection points: 2
#     Edge 107, Type (0, 0), BuildingBlock: KIFKEQ_clean_linker_1, # of connection points: 2
# Relax obj value: 0.298
# Max RMSD: 0.277
# Mean RMSD: 0.277
data_MOF--net-unu--node1-AZAVOO_clean_sbu_0--edge1-KIFKEQ_clean_linker_1
_symmetry_space_group_name_H-M    P1
_symmetry_Int_Tables_number       1
_symmetry_cell_setting            triclinic
loop_
_symmetry_equiv_pos_as_xyz
'x, y, z'
_cell_length_a     38.551234
_cell_length_b     38.550794
_cell_length_c     142.43461
_cell_angle_alpha  90.017729
_cell_angle_beta   89.978522
_cell_angle_gamma 120.00129
loop_
_atom_site_label
_atom_site_type_symbol
_atom_site_fract_x
_atom_site_fract_y
_atom_site_fract_z
_atom_type_partial_charge
Mg0 Mg 0.22676 0.00355 0.12222 0.0
O1 O 0.19973 0.04345 0.11904 0.0
O2 O 0.1626 0.02107 0.10605 0.0
Mg3 Mg 0.1674 0.96809 0.10064 0.0
C4 C 0.1767 0.04553 0.11291 0.0
C5 C 0.25757 0.04483 0.14152 0.0
O6 O 0.22523 0.01181 0.14412 0.0
O7 O 0.27317 0.03405 0.11064 0.0
O8 O 0.23448 0.00997 0.09792 0.0
O9 O 0.17157 0.96271 0.13017 0.0
O10 O 0.17938 0.95597 0.11504 0.0
C11 C 0.26869 0.03167 0.10175 0.0
C12 C 0.15624 0.94505 0.12228 0.0
O13 O 0.26738 0.04989 0.1329 0.0
Mg14 Mg 0.9864 0.22173 0.12204 0.0
O15 O 0.94692 0.15417 0.11961 0.0
O16 O 0.96755 0.1374 0.10663 0.0
Mg17 Mg 0.01944 0.19441 0.10057 0.0
C18 C 0.94417 0.12808 0.11368 0.0
C19 C 0.9378 0.19756 0.14038 0.0
O20 O 0.96081 0.18177 0.14153 0.0
O21 O 0.95375 0.23476 0.11044 0.0
O22 O 0.97678 0.21859 0.09777 0.0
O23 O 0.0292 0.20997 0.12996 0.0
O24 O 0.03327 0.22139 0.11469 0.0
C25 C 0.9552 0.23134 0.10156 0.0
C26 C 0.04566 0.21095 0.12197 0.0
O27 O 0.94135 0.2173 0.13295 0.0
Mg28 Mg 0.76866 0.76237 0.12435 0.0
O29 O 0.83484 0.78966 0.12035 0.0
O30 O 0.84805 0.8274 0.10752 0.0
Mg31 Mg 0.78894 0.82161 0.10283 0.0
C32 C 0.85923 0.81297 0.11415 0.0
C33 C 0.80606 0.74069 0.14063 0.0
O34 O 0.82833 0.77988 0.14023 0.0
O35 O 0.75088 0.71561 0.11276 0.0
O36 O 0.76411 0.75463 0.10013 0.0
O37 O 0.78412 0.81768 0.1324 0.0
O38 O 0.76688 0.80932 0.11742 0.0
C39 C 0.75211 0.72035 0.10387 0.0
C40 C 0.78028 0.83268 0.1246 0.0
O41 O 0.77704 0.72293 0.13491 0.0
Mg42 Mg 0.00584 0.22898 0.37233 0.0
O43 O 0.04578 0.20258 0.37601 0.0
O44 O 0.0231 0.16532 0.38896 0.0
Mg45 Mg 0.96957 0.17015 0.39398 0.0
C46 C 0.04792 0.17973 0.38217 0.0
C47 C 0.06387 0.25119 0.35584 0.0
O48 O 0.04716 0.21201 0.35621 0.0
O49 O 0.03522 0.27593 0.38384 0.0
O50 O 0.0107 0.23748 0.39659 0.0
O51 O 0.96594 0.17359 0.36437 0.0
O52 O 0.95807 0.1816 0.37944 0.0
C53 C 0.03227 0.27168 0.39274 0.0
C54 C 0.94784 0.15832 0.37223 0.0
O55 O 0.05267 0.26878 0.36162 0.0
Mg56 Mg 0.76526 0.77054 0.37059 0.0
O57 O 0.79264 0.83683 0.37447 0.0
O58 O 0.83022 0.85026 0.38734 0.0
Mg59 Mg 0.82439 0.79122 0.39213 0.0
C60 C 0.81591 0.86133 0.38066 0.0
C61 C 0.74316 0.80718 0.3542 0.0
O62 O 0.78243 0.82891 0.35436 0.0
O63 O 0.71858 0.7531 0.38218 0.0
O64 O 0.75738 0.76645 0.39485 0.0
O65 O 0.82051 0.7858 0.36254 0.0
O66 O 0.81223 0.76892 0.37755 0.0
C67 C 0.72316 0.75441 0.39107 0.0
C68 C 0.83557 0.78222 0.37035 0.0
O69 O 0.72563 0.77874 0.36007 0.0
Mg70 Mg 0.22441 0.99001 0.37247 0.0
O71 O 0.15704 0.95037 0.37511 0.0
O72 O 0.14044 0.9713 0.38806 0.0
Mg73 Mg 0.19762 0.0235 0.39397 0.0
C74 C 0.13105 0.94768 0.38106 0.0
C75 C 0.19798 0.94014 0.35437 0.0
O76 O 0.18154 0.96269 0.35345 0.0
O77 O 0.23851 0.95808 0.38407 0.0
O78 O 0.22228 0.98128 0.39671 0.0
O79 O 0.21192 0.03247 0.36459 0.0
O80 O 0.22429 0.03702 0.37981 0.0
C81 C 0.23525 0.95982 0.39296 0.0
C82 C 0.21338 0.04917 0.37257 0.0
O83 O 0.2192 0.94449 0.36158 0.0
Mg84 Mg 0.76227 0.98651 0.87271 0.0
O85 O 0.78818 0.94558 0.87579 0.0
O86 O 0.82304 0.96567 0.88918 0.0
Mg87 Mg 0.82064 0.02007 0.89448 0.0
C88 C 0.80954 0.94207 0.88215 0.0
C89 C 0.73722 0.93798 0.85429 0.0
O90 O 0.7757 0.96207 0.8529 0.0
O91 O 0.71509 0.95636 0.88419 0.0
O92 O 0.75332 0.97993 0.89701 0.0
O93 O 0.81805 0.02722 0.8649 0.0
O94 O 0.80991 0.03317 0.88005 0.0
C95 C 0.71919 0.95883 0.89311 0.0
C96 C 0.83332 0.0442 0.87286 0.0
O97 O 0.72148 0.94091 0.86188 0.0
Mg98 Mg 0.00598 0.76971 0.87374 0.0
O99 O 0.04796 0.83678 0.87642 0.0
O100 O 0.03156 0.85298 0.89011 0.0
Mg101 Mg 0.97914 0.79642 0.89623 0.0
C102 C 0.05314 0.86247 0.88273 0.0
C103 C 0.05351 0.79611 0.85528 0.0
O104 O 0.03334 0.81526 0.85495 0.0
O105 O 0.03916 0.75339 0.88456 0.0
O106 O 0.01934 0.76884 0.89786 0.0
O107 O 0.96281 0.78347 0.8666 0.0
O108 O 0.96213 0.77249 0.88185 0.0
C109 C 0.0391 0.75537 0.8935 0.0
C110 C 0.94871 0.78343 0.87484 0.0
O111 O 0.04823 0.77314 0.86219 0.0
Mg112 Mg 0.22187 0.22785 0.8717 0.0
O113 O 0.15517 0.19995 0.87523 0.0
O114 O 0.14179 0.16264 0.88816 0.0
Mg115 Mg 0.20051 0.16844 0.89321 0.0
C116 C 0.13064 0.17659 0.88142 0.0
C117 C 0.20847 0.25817 0.8526 0.0
O118 O 0.20838 0.22559 0.84987 0.0
O119 O 0.23836 0.27417 0.88334 0.0
O120 O 0.22509 0.23535 0.89601 0.0
O121 O 0.20746 0.17255 0.8637 0.0
O122 O 0.22371 0.18114 0.87873 0.0
C123 C 0.237 0.26957 0.89224 0.0
C124 C 0.21117 0.15778 0.87154 0.0
O125 O 0.21454 0.26815 0.8612 0.0
Mg126 Mg 0.98688 0.76037 0.62193 0.0
O127 O 0.94595 0.78642 0.61903 0.0
O128 O 0.96704 0.82406 0.6061 0.0
Mg129 Mg 0.02049 0.82067 0.60044 0.0
C130 C 0.943 0.80936 0.61303 0.0
C131 C 0.94671 0.72914 0.64129 0.0
O132 O 0.9799 0.76148 0.6438 0.0
O133 O 0.95681 0.71408 0.61028 0.0
O134 O 0.9799 0.75349 0.59764 0.0
O135 O 0.02737 0.81573 0.62989 0.0
O136 O 0.03371 0.8084 0.61472 0.0
C137 C 0.959 0.71897 0.6014 0.0
C138 C 0.04463 0.83137 0.62198 0.0
O139 O 0.94119 0.71921 0.63268 0.0
Mg140 Mg 0.22372 0.21867 0.62434 0.0
O141 O 0.19763 0.1527 0.62029 0.0
O142 O 0.161 0.1395 0.60727 0.0
Mg143 Mg 0.16602 0.19827 0.60256 0.0
C144 C 0.17509 0.12838 0.61398 0.0
C145 C 0.24549 0.18217 0.64082 0.0
O146 O 0.20627 0.15997 0.64051 0.0
O147 O 0.27135 0.23756 0.61293 0.0
O148 O 0.23342 0.22455 0.60012 0.0
O149 O 0.16776 0.2022 0.63218 0.0
O150 O 0.17671 0.21971 0.61722 0.0
C151 C 0.26745 0.2369 0.60403 0.0
C152 C 0.15296 0.20583 0.62433 0.0
O153 O 0.26312 0.21078 0.635 0.0
Mg154 Mg 0.76546 -0.00243 0.62422 0.0
O155 O 0.83187 0.03758 0.62058 0.0
O156 O 0.84662 0.01546 0.60755 0.0
Mg157 Mg 0.78816 0.96239 0.60242 0.0
C158 C 0.85695 0.03996 0.61441 0.0
C159 C 0.80131 0.05553 0.64079 0.0
O160 O 0.82403 0.0391 0.64045 0.0
O161 O 0.74809 0.02766 0.61284 0.0
O162 O 0.76258 0.00414 0.59999 0.0
O163 O 0.7809 0.9571 0.63198 0.0
O164 O 0.76486 0.95016 0.61692 0.0
C165 C 0.74989 0.02548 0.60393 0.0
C166 C 0.77785 0.9394 0.62404 0.0
O167 O 0.77244 0.044 0.63502 0.0
Mg168 Mg 0.89081 0.33944 0.45475 0.0
O169 O 0.86628 0.38105 0.45129 0.0
O170 O 0.83336 0.36291 0.43766 0.0
Mg171 Mg 0.83731 0.3092 0.43231 0.0
C172 C 0.84588 0.38563 0.44486 0.0
C173 C 0.94794 0.37899 0.47243 0.0
O174 O 0.9485 0.34524 0.47286 0.0
O175 O 0.94047 0.37039 0.44388 0.0
O176 O 0.9052 0.34892 0.43061 0.0
O177 O 0.83382 0.29848 0.46208 0.0
O178 O 0.84411 0.2943 0.44693 0.0
C179 C 0.93846 0.36908 0.43493 0.0
C180 C 0.81971 0.28273 0.45395 0.0
O181 O 0.92861 0.38424 0.46591 0.0
Mg182 Mg 0.6543 0.55949 0.45623 0.0
O183 O 0.61457 0.49295 0.45274 0.0
O184 O 0.63618 0.47784 0.43969 0.0
Mg185 Mg 0.68891 0.53621 0.43439 0.0
C186 C 0.612 0.46768 0.44661 0.0
C187 C 0.59972 0.5245 0.47328 0.0
O188 O 0.61875 0.5042 0.47299 0.0
O189 O 0.62356 0.57638 0.44488 0.0
O190 O 0.64715 0.56174 0.43205 0.0
O191 O 0.69572 0.54495 0.46387 0.0
O192 O 0.70167 0.56046 0.4488 0.0
C193 C 0.62578 0.57446 0.43597 0.0
C194 C 0.71311 0.548 0.45589 0.0
O195 O 0.60813 0.55179 0.46722 0.0
Mg196 Mg 0.43119 0.10128 0.45783 0.0
O197 O 0.49739 0.12706 0.45402 0.0
O198 O 0.5106 0.16098 0.44054 0.0
Mg199 Mg 0.45239 0.1568 0.43569 0.0
C200 C 0.52154 0.14805 0.44752 0.0
C201 C 0.46723 0.08042 0.47457 0.0
O202 O 0.4898 0.11956 0.47409 0.0
O203 O 0.4127 0.05258 0.44667 0.0
O204 O 0.42597 0.08928 0.43363 0.0
O205 O 0.4475 0.15782 0.46535 0.0
O206 O 0.43081 0.14783 0.45034 0.0
C207 C 0.4136 0.05566 0.43774 0.0
C208 C 0.4445 0.17212 0.45737 0.0
O209 O 0.43842 0.06259 0.46881 0.0
Mg210 Mg 0.67091 0.56896 0.70565 0.0
O211 O 0.70853 0.53971 0.70896 0.0
O212 O 0.68591 0.50245 0.72191 0.0
Mg213 Mg 0.63444 0.51008 0.7273 0.0
C214 C 0.71017 0.51618 0.715 0.0
C215 C 0.72493 0.58725 0.68858 0.0
O216 O 0.7043 0.54793 0.68876 0.0
O217 O 0.70321 0.61548 0.71715 0.0
O218 O 0.67839 0.57684 0.72987 0.0
O219 O 0.62802 0.51411 0.69784 0.0
O220 O 0.6225 0.52315 0.71297 0.0
C221 C 0.70091 0.61091 0.72605 0.0
C222 C 0.61038 0.49969 0.70578 0.0
O223 O 0.71781 0.60676 0.69474 0.0
Mg224 Mg 0.43073 0.11198 0.70813 0.0
O225 O 0.45517 0.17907 0.7107 0.0
O226 O 0.48885 0.19576 0.72426 0.0
Mg227 Mg 0.48627 0.13991 0.73035 0.0
C228 C 0.47593 0.20492 0.71696 0.0
C229 C 0.4038 0.12558 0.68859 0.0
O230 O 0.44087 0.13505 0.68672 0.0
O231 O 0.38227 0.09581 0.71923 0.0
O232 O 0.41856 0.1118 0.73237 0.0
O233 O 0.48722 0.1262 0.70068 0.0
O234 O 0.4785 0.11587 0.71598 0.0
C235 C 0.38497 0.09802 0.72816 0.0
C236 C 0.50221 0.12677 0.70884 0.0
O237 O 0.39002 0.11365 0.6968 0.0
Mg238 Mg 0.89181 0.33094 0.70439 0.0
O239 O 0.82513 0.29054 0.70781 0.0
O240 O 0.81184 0.31146 0.72128 0.0
Mg241 Mg 0.86946 0.36552 0.72633 0.0
C242 C 0.80092 0.28758 0.71429 0.0
C243 C 0.86465 0.27984 0.68634 0.0
O244 O 0.84815 0.30222 0.68518 0.0
O245 O 0.90925 0.30063 0.71573 0.0
O246 O 0.89569 0.32443 0.72867 0.0
O247 O 0.87634 0.3715 0.69669 0.0
O248 O 0.89183 0.37795 0.71177 0.0
C249 C 0.90805 0.30298 0.72465 0.0
C250 C 0.8787 0.38866 0.70466 0.0
O251 O 0.88585 0.28491 0.6936 0.0
Mg252 Mg 0.424 0.32255 0.20526 0.0
O253 O 0.4528 0.28463 0.20871 0.0
O254 O 0.48985 0.30749 0.22169 0.0
Mg255 Mg 0.48248 0.35928 0.22694 0.0
C256 C 0.47615 0.28304 0.21482 0.0
C257 C 0.40482 0.26753 0.18829 0.0
O258 O 0.44417 0.2875 0.18841 0.0
O259 O 0.37727 0.29077 0.21673 0.0
O260 O 0.41564 0.31557 0.22949 0.0
O261 O 0.47911 0.36485 0.19744 0.0
O262 O 0.46988 0.37092 0.21254 0.0
C263 C 0.38164 0.29314 0.22563 0.0
C264 C 0.49347 0.38265 0.20538 0.0
O265 O 0.38586 0.2755 0.19443 0.0
Mg266 Mg 0.66437 0.10427 0.20461 0.0
O267 O 0.70431 0.17035 0.20867 0.0
O268 O 0.68192 0.18242 0.22205 0.0
Mg269 Mg 0.62763 0.12388 0.22659 0.0
C270 C 0.70659 0.19397 0.21522 0.0
C271 C 0.7225 0.1409 0.18809 0.0
O272 O 0.70648 0.16395 0.18859 0.0
O273 O 0.69373 0.08539 0.21588 0.0
O274 O 0.66889 0.09778 0.22881 0.0
O275 O 0.62473 0.12073 0.19689 0.0
O276 O 0.61667 0.10332 0.21187 0.0
C277 C 0.69071 0.08584 0.2248 0.0
C278 C 0.60667 0.11729 0.20479 0.0
O279 O 0.71099 0.11186 0.1938 0.0
Mg280 Mg 0.88159 0.56346 0.20884 0.0
O281 O 0.81417 0.53812 0.21108 0.0
O282 O 0.79697 0.50539 0.22476 0.0
Mg283 Mg 0.85281 0.50927 0.23123 0.0
C284 C 0.78802 0.51753 0.2173 0.0
C285 C 0.86168 0.58603 0.1896 0.0
O286 O 0.84615 0.54716 0.18866 0.0
O287 O 0.89622 0.61247 0.21968 0.0
O288 O 0.87996 0.57702 0.23296 0.0
O289 O 0.86901 0.50691 0.20169 0.0
O290 O 0.87804 0.51663 0.217 0.0
C291 C 0.89352 0.61031 0.22862 0.0
C292 C 0.86807 0.49254 0.20995 0.0
O293 O 0.87973 0.60273 0.19718 0.0
Mg294 Mg 0.65943 0.09742 0.95778 0.0
O295 O 0.61895 0.12358 0.95444 0.0
O296 O 0.63968 0.15835 0.94106 0.0
Mg297 Mg 0.69397 0.15521 0.93596 0.0
C298 C 0.61583 0.145 0.94804 0.0
C299 C 0.60647 0.07365 0.97544 0.0
O300 O 0.62714 0.11283 0.97624 0.0
O301 O 0.62943 0.05005 0.94634 0.0
O302 O 0.65332 0.0879 0.93348 0.0
O303 O 0.69982 0.15328 0.96558 0.0
O304 O 0.70642 0.1447 0.95048 0.0
C305 C 0.63196 0.05391 0.93742 0.0
C306 C 0.71709 0.16832 0.95763 0.0
O307 O 0.61326 0.05707 0.96852 0.0
Mg308 Mg 0.89683 0.55679 0.95666 0.0
O309 O 0.86882 0.4898 0.95356 0.0
O310 O 0.83211 0.47478 0.94051 0.0
Mg311 Mg 0.83824 0.53305 0.93498 0.0
C312 C 0.84577 0.4645 0.94747 0.0
C313 C 0.91917 0.52657 0.97433 0.0
O314 O 0.88 0.50878 0.97506 0.0
O315 O 0.94346 0.57175 0.94519 0.0
O316 O 0.90531 0.55744 0.93237 0.0
O317 O 0.84161 0.54378 0.96447 0.0
O318 O 0.85044 0.55799 0.94932 0.0
C319 C 0.93933 0.56964 0.93628 0.0
C320 C 0.82696 0.54641 0.9565 0.0
O321 O 0.93633 0.54995 0.96745 0.0
Mg322 Mg 0.43985 0.33846 0.95553 0.0
O323 O 0.50632 0.38069 0.95222 0.0
O324 O 0.52166 0.36259 0.93865 0.0
Mg325 Mg 0.46453 0.30894 0.93312 0.0
C326 C 0.53155 0.38531 0.94585 0.0
C327 C 0.47237 0.39196 0.97289 0.0
O328 O 0.4951 0.37557 0.97239 0.0
O329 O 0.42153 0.36961 0.94459 0.0
O330 O 0.43631 0.34852 0.93138 0.0
O331 O 0.45543 0.29705 0.96287 0.0
O332 O 0.44234 0.29386 0.94768 0.0
C333 C 0.42283 0.3685 0.93565 0.0
C334 C 0.45453 0.28183 0.95472 0.0
O335 O 0.4445 0.38199 0.9669 0.0
Mg336 Mg 0.5616 0.67168 0.78862 0.0
O337 O 0.53771 0.71444 0.78557 0.0
O338 O 0.50786 0.69963 0.77152 0.0
Mg339 Mg 0.5109 0.6461 0.76575 0.0
C340 C 0.51902 0.72068 0.77899 0.0
C341 C 0.58084 0.72262 0.80643 0.0
O342 O 0.54187 0.70697 0.8057 0.0
O343 O 0.61266 0.70468 0.7781 0.0
O344 O 0.5789 0.68551 0.76458 0.0
O345 O 0.50371 0.62924 0.79544 0.0
O346 O 0.51559 0.62868 0.78025 0.0
C347 C 0.61165 0.70487 0.76914 0.0
C348 C 0.49043 0.61555 0.78712 0.0
O349 O 0.59908 0.71307 0.80044 0.0
Mg350 Mg 0.31801 0.88786 0.78888 0.0
O351 O 0.27606 0.82156 0.78538 0.0
O352 O 0.29383 0.80701 0.77166 0.0
Mg353 Mg 0.34681 0.86479 0.76617 0.0
C354 C 0.27138 0.79667 0.77891 0.0
C355 C 0.26393 0.85324 0.80613 0.0
O356 O 0.27878 0.8293 0.80519 0.0
O357 O 0.28592 0.90625 0.77823 0.0
O358 O 0.30655 0.89245 0.76482 0.0
O359 O 0.3601 0.87241 0.79591 0.0
O360 O 0.36248 0.88626 0.78077 0.0
C361 C 0.28653 0.9054 0.76927 0.0
C362 C 0.37514 0.87402 0.78769 0.0
O363 O 0.27506 0.88246 0.80048 0.0
Mg364 Mg 0.1015 0.43127 0.78956 0.0
O365 O 0.16817 0.45953 0.78598 0.0
O366 O 0.18117 0.49468 0.77269 0.0
Mg367 Mg 0.1224 0.48903 0.76777 0.0
C368 C 0.19238 0.48169 0.77961 0.0
C369 C 0.1367 0.41088 0.80654 0.0
O370 O 0.15675 0.45023 0.80652 0.0
O371 O 0.08524 0.38405 0.77811 0.0
O372 O 0.09806 0.42209 0.76532 0.0
O373 O 0.11522 0.48666 0.79736 0.0
O374 O 0.09943 0.47738 0.7823 0.0
C375 C 0.0865 0.38817 0.76921 0.0
C376 C 0.11175 0.50108 0.78944 0.0
O377 O 0.10985 0.39261 0.80035 0.0
Mg378 Mg 0.33295 0.89282 0.03947 0.0
O379 O 0.37514 0.86865 0.04292 0.0
O380 O 0.35749 0.83629 0.05663 0.0
Mg381 Mg 0.30454 0.84097 0.06217 0.0
C382 C 0.3799 0.84845 0.04937 0.0
C383 C 0.38731 0.9132 0.0222 0.0
O384 O 0.37278 0.8744 0.02301 0.0
O385 O 0.36506 0.94328 0.05012 0.0
O386 O 0.34491 0.90886 0.06353 0.0
O387 O 0.291 0.83526 0.03243 0.0
O388 O 0.28869 0.84665 0.04759 0.0
C389 C 0.36477 0.94181 0.05907 0.0
C390 C 0.27611 0.82176 0.04066 0.0
O391 O 0.37578 0.93074 0.02791 0.0
Mg392 Mg 0.09555 0.4334 0.0393 0.0
O393 O 0.11865 0.49979 0.0425 0.0
O394 O 0.14853 0.51485 0.05655 0.0
Mg395 Mg 0.14606 0.45838 0.06218 0.0
C396 C 0.13712 0.52466 0.0491 0.0
C397 C 0.07578 0.46582 0.02172 0.0
O398 O 0.11455 0.48998 0.02262 0.0
O399 O 0.04437 0.41462 0.04979 0.0
O400 O 0.07796 0.42924 0.06333 0.0
O401 O 0.15361 0.44965 0.03247 0.0
O402 O 0.14176 0.43675 0.04764 0.0
C403 C 0.04525 0.41568 0.05875 0.0
C404 C 0.16695 0.44914 0.04077 0.0
O405 O 0.05784 0.43711 0.02751 0.0
Mg406 Mg 0.55602 0.65803 0.03867 0.0
O407 O 0.48929 0.61764 0.04198 0.0
O408 O 0.47522 0.63821 0.05539 0.0
Mg409 Mg 0.53268 0.69233 0.06055 0.0
C410 C 0.4647 0.61446 0.04838 0.0
C411 C 0.53487 0.61125 0.0199 0.0
O412 O 0.52423 0.638 0.01805 0.0
O413 O 0.57329 0.62779 0.05009 0.0
O414 O 0.55927 0.6516 0.06296 0.0
O415 O 0.5409 0.69897 0.03098 0.0
O416 O 0.55603 0.70503 0.04607 0.0
C417 C 0.57193 0.63028 0.059 0.0
C418 C 0.54344 0.7162 0.03895 0.0
O419 O 0.55026 0.61202 0.02785 0.0
Mg420 Mg 0.09843 0.65742 0.53651 0.0
O421 O 0.1259 0.61961 0.54117 0.0
O422 O 0.16249 0.64462 0.55412 0.0
Mg423 Mg 0.15511 0.6976 0.55834 0.0
C424 C 0.1487 0.6188 0.54753 0.0
C425 C 0.08118 0.59766 0.52072 0.0
O426 O 0.12037 0.61632 0.52151 0.0
O427 O 0.05032 0.62846 0.54782 0.0
O428 O 0.08789 0.65484 0.56064 0.0
O429 O 0.1544 0.69739 0.52875 0.0
O430 O 0.14433 0.7069 0.54357 0.0
C431 C 0.05409 0.63223 0.55673 0.0
C432 C 0.16847 0.71669 0.53653 0.0
O433 O 0.06138 0.60834 0.52594 0.0
Mg434 Mg 0.33675 0.43849 0.53976 0.0
O435 O 0.37768 0.5053 0.54292 0.0
O436 O 0.35625 0.52074 0.55597 0.0
Mg437 Mg 0.30273 0.46355 0.56143 0.0
C438 C 0.38043 0.53068 0.54905 0.0
C439 C 0.37871 0.45114 0.52048 0.0
O440 O 0.34712 0.45359 0.51808 0.0
O441 O 0.36649 0.42132 0.55128 0.0
O442 O 0.34309 0.43656 0.56403 0.0
O443 O 0.29646 0.4539 0.53192 0.0
O444 O 0.28981 0.43933 0.54704 0.0
C445 C 0.36404 0.42322 0.56018 0.0
C446 C 0.27913 0.45194 0.53983 0.0
O447 O 0.38262 0.44354 0.52897 0.0
Mg448 Mg 0.5564 0.89741 0.53893 0.0
O449 O 0.48933 0.87093 0.54175 0.0
O450 O 0.47268 0.83382 0.55476 0.0
Mg451 Mg 0.52967 0.83778 0.56052 0.0
C452 C 0.46338 0.84818 0.54777 0.0
C453 C 0.53203 0.9224 0.52066 0.0
O454 O 0.5167 0.88374 0.51933 0.0
O455 O 0.57191 0.94389 0.55048 0.0
O456 O 0.55571 0.90497 0.56321 0.0
O457 O 0.54246 0.84192 0.53109 0.0
O458 O 0.55562 0.85 0.54628 0.0
C459 C 0.56909 0.93931 0.55938 0.0
C460 C 0.54409 0.82674 0.53906 0.0
O461 O 0.55172 0.93822 0.52812 0.0
Mg462 Mg 0.31933 0.4303 0.28824 0.0
O463 O 0.27567 0.45356 0.28573 0.0
O464 O 0.2894 0.48363 0.2717 0.0
Mg465 Mg 0.34331 0.4824 0.26557 0.0
C466 C 0.26873 0.47205 0.27923 0.0
C467 C 0.27669 0.40761 0.30749 0.0
O468 O 0.29944 0.44656 0.30842 0.0
O469 O 0.28635 0.38 0.27756 0.0
O470 O 0.30485 0.4144 0.26412 0.0
O471 O 0.36183 0.48793 0.29519 0.0
O472 O 0.3616 0.47721 0.27993 0.0
C473 C 0.28593 0.3814 0.26861 0.0
C474 C 0.37499 0.5019 0.28689 0.0
O475 O 0.27866 0.39103 0.29995 0.0
Mg476 Mg 0.55771 0.89156 0.2895 0.0
O477 O 0.53053 0.8246 0.28628 0.0
O478 O 0.49563 0.81084 0.27292 0.0
Mg479 Mg 0.49967 0.86851 0.26771 0.0
C480 C 0.50875 0.80011 0.2799 0.0
C481 C 0.58391 0.87118 0.30832 0.0
O482 O 0.54679 0.86115 0.31031 0.0
O483 O 0.60478 0.90776 0.27803 0.0
O484 O 0.56676 0.89391 0.2652 0.0
O485 O 0.50209 0.87732 0.29728 0.0
O486 O 0.51089 0.89203 0.28217 0.0
C487 C 0.60073 0.90611 0.26912 0.0
C488 C 0.4873 0.8798 0.28933 0.0
O489 O 0.598 0.88575 0.30028 0.0
Mg490 Mg 0.10006 0.67085 0.28903 0.0
O491 O 0.16652 0.71211 0.28558 0.0
O492 O 0.18081 0.69428 0.27184 0.0
Mg493 Mg 0.12266 0.64204 0.26628 0.0
C494 C 0.19135 0.71658 0.27911 0.0
C495 C 0.13481 0.72405 0.3064 0.0
O496 O 0.1579 0.70818 0.30555 0.0
O497 O 0.08267 0.70393 0.27843 0.0
O498 O 0.09621 0.6834 0.26498 0.0
O499 O 0.11458 0.62808 0.29602 0.0
O500 O 0.10102 0.6261 0.28088 0.0
C501 C 0.08374 0.70372 0.26948 0.0
C502 C 0.11291 0.61308 0.2878 0.0
O503 O 0.10608 0.71387 0.30066 0.0
H504 H 0.32341 0.11827 0.13834 0.0
H505 H 0.24335 0.04394 0.16032 0.0
H506 H 0.3588 0.17237 0.14961 0.0
H507 H 0.27921 0.09783 0.1716 0.0
H508 H 0.32382 0.21854 0.18637 0.0
H509 H 0.28883 0.16451 0.17503 0.0
H510 H 0.40235 0.18907 0.16335 0.0
H511 H 0.43729 0.2434 0.17455 0.0
C512 C 0.31358 0.11334 0.14559 0.0
C513 C 0.28053 0.07683 0.14843 0.0
C514 C 0.33394 0.1443 0.15205 0.0
C515 C 0.32168 0.1394 0.16148 0.0
C516 C 0.28898 0.10271 0.16435 0.0
C517 C 0.26863 0.07174 0.1579 0.0
C518 C 0.34128 0.21249 0.18136 0.0
C519 C 0.38331 0.2353 0.18134 0.0
C520 C 0.32126 0.18138 0.17491 0.0
C521 C 0.34286 0.17251 0.16831 0.0
C522 C 0.38486 0.19548 0.16827 0.0
C523 C 0.40487 0.22651 0.17472 0.0
H524 H 0.76 0.20583 0.17656 0.0
H525 H 0.75646 0.09527 0.18384 0.0
H526 H 0.81284 0.22068 0.16522 0.0
H527 H 0.80849 0.1095 0.17227 0.0
H528 H 0.9299 0.16648 0.15795 0.0
H529 H 0.87845 0.15367 0.16954 0.0
H530 H 0.82402 0.19925 0.15031 0.0
H531 H 0.87632 0.21331 0.13884 0.0
C532 C 0.77029 0.18452 0.17569 0.0
C533 C 0.75406 0.14936 0.18109 0.0
C534 C 0.80046 0.19295 0.16915 0.0
C535 C 0.81491 0.16629 0.16782 0.0
C536 C 0.79851 0.131 0.17321 0.0
C537 C 0.76849 0.1227 0.1798 0.0
C538 C 0.90703 0.17391 0.15621 0.0
C539 C 0.90715 0.1909 0.14748 0.0
C540 C 0.87737 0.16631 0.16283 0.0
C541 C 0.84696 0.17522 0.16085 0.0
C542 C 0.84729 0.19251 0.15213 0.0
C543 C 0.87717 0.20042 0.14553 0.0
H544 H 0.83303 0.56152 0.17188 0.0
H545 H 0.8773 0.66334 0.19053 0.0
H546 H 0.82109 0.59904 0.15981 0.0
H547 H 0.86417 0.70044 0.17857 0.0
H548 H 0.87118 0.76905 0.1521 0.0
H549 H 0.8865 0.73198 0.16359 0.0
H550 H 0.77641 0.62396 0.15654 0.0
H551 H 0.76168 0.66088 0.14483 0.0
C552 C 0.84016 0.59191 0.17341 0.0
C553 C 0.85608 0.60947 0.18216 0.0
C554 C 0.83306 0.61332 0.16651 0.0
C555 C 0.84146 0.65268 0.16823 0.0
C556 C 0.85785 0.67038 0.17696 0.0
C557 C 0.86522 0.64906 0.18383 0.0
C558 C 0.85023 0.73737 0.15299 0.0
C559 C 0.81513 0.7179 0.14757 0.0
C560 C 0.85894 0.71616 0.15962 0.0
C561 C 0.83264 0.67502 0.16101 0.0
C562 C 0.79761 0.6555 0.15555 0.0
C563 C 0.78901 0.6767 0.14888 0.0
H564 H 0.10149 0.22339 0.34449 0.0
H565 H 0.09874 0.33095 0.35163 0.0
H566 H 0.15449 0.26091 0.33316 0.0
H567 H 0.151 0.36833 0.34006 0.0
H568 H 0.2711 0.4318 0.32515 0.0
H569 H 0.22085 0.39385 0.33705 0.0
H570 H 0.16464 0.29257 0.3182 0.0
H571 H 0.21565 0.33006 0.30643 0.0
C572 C 0.11201 0.25502 0.34359 0.0
C573 C 0.09584 0.2742 0.34893 0.0
C574 C 0.14229 0.2765 0.33706 0.0
C575 C 0.15695 0.31762 0.33567 0.0
C576 C 0.14082 0.33682 0.34105 0.0
C577 C 0.11067 0.31536 0.34763 0.0
C578 C 0.24814 0.40134 0.32357 0.0
C579 C 0.24732 0.38392 0.31485 0.0
C580 C 0.21917 0.37968 0.33037 0.0
C581 C 0.18857 0.34023 0.32857 0.0
C582 C 0.18809 0.32269 0.31988 0.0
C583 C 0.21724 0.34424 0.3131 0.0
H584 H 0.77171 0.86986 0.34196 0.0
H585 H 0.66216 0.76621 0.35127 0.0
H586 H 0.73368 0.88658 0.33106 0.0
H587 H 0.62418 0.78241 0.34018 0.0
H588 H 0.56488 0.84624 0.32647 0.0
H589 H 0.60368 0.83155 0.33762 0.0
H590 H 0.6959 0.86297 0.31669 0.0
H591 H 0.65759 0.87871 0.30562 0.0
C592 C 0.73952 0.85046 0.34163 0.0
C593 C 0.71994 0.81666 0.34747 0.0
C594 C 0.71774 0.85997 0.33535 0.0
C595 C 0.6759 0.83583 0.33475 0.0
C596 C 0.65633 0.80195 0.34057 0.0
C597 C 0.67811 0.79251 0.34688 0.0
C598 C 0.59352 0.85019 0.32426 0.0
C599 C 0.60816 0.86363 0.31516 0.0
C600 C 0.61563 0.84149 0.33063 0.0
C601 C 0.65279 0.84589 0.32804 0.0
C602 C 0.6676 0.85973 0.31896 0.0
C603 C 0.64557 0.8686 0.3126 0.0
H604 H 0.214 0.87874 0.35569 0.0
H605 H 0.16398 0.93107 0.33713 0.0
H606 H 0.19786 0.82558 0.3443 0.0
H607 H 0.14912 0.87884 0.32561 0.0
H608 H 0.08918 0.75718 0.31141 0.0
H609 H 0.10467 0.80895 0.32314 0.0
H610 H 0.21663 0.81325 0.32921 0.0
H611 H 0.20052 0.76064 0.31771 0.0
C612 C 0.19996 0.87913 0.34913 0.0
C613 C 0.19017 0.90902 0.34731 0.0
C614 C 0.19083 0.84874 0.34258 0.0
C615 C 0.17203 0.84782 0.33405 0.0
C616 C 0.16287 0.87816 0.33219 0.0
C617 C 0.17167 0.90829 0.33876 0.0
C618 C 0.11701 0.76908 0.31528 0.0
C619 C 0.14358 0.75478 0.31365 0.0
C620 C 0.12604 0.79895 0.32196 0.0
C621 C 0.16199 0.8154 0.3271 0.0
C622 C 0.18843 0.80087 0.32548 0.0
C623 C 0.17926 0.77082 0.31886 0.0
H624 H 0.66055 0.75752 0.81066 0.0
H625 H 0.55173 0.75601 0.81875 0.0
H626 H 0.69762 0.80888 0.82242 0.0
H627 H 0.58896 0.80816 0.83029 0.0
H628 H 0.66137 0.87423 0.85631 0.0
H629 H 0.62348 0.82092 0.84501 0.0
H630 H 0.72084 0.87844 0.82513 0.0
H631 H 0.75911 0.93091 0.83653 0.0
C632 C 0.64456 0.76818 0.81494 0.0
C633 C 0.60323 0.75271 0.81378 0.0
C634 C 0.66584 0.79783 0.82164 0.0
C635 C 0.64631 0.81282 0.82727 0.0
C636 C 0.60486 0.79696 0.82616 0.0
C637 C 0.58355 0.76717 0.81951 0.0
C638 C 0.67458 0.87552 0.84951 0.0
C639 C 0.71326 0.9067 0.84731 0.0
C640 C 0.65283 0.84504 0.84302 0.0
C641 C 0.66919 0.84528 0.83417 0.0
C642 C 0.70765 0.87688 0.83195 0.0
C643 C 0.72948 0.90714 0.83845 0.0
H644 H 0.06431 0.83444 0.83853 0.0
H645 H 0.11053 0.77375 0.85551 0.0
H646 H 0.11474 0.84769 0.82663 0.0
H647 H 0.16196 0.78827 0.84376 0.0
H648 H 0.22319 0.78568 0.81668 0.0
H649 H 0.17157 0.77094 0.82835 0.0
H650 H 0.18486 0.88793 0.82389 0.0
H651 H 0.23556 0.90206 0.81195 0.0
C652 C 0.08535 0.82404 0.83974 0.0
C653 C 0.08341 0.803 0.84795 0.0
C654 C 0.11448 0.83191 0.83294 0.0
C655 C 0.14259 0.81924 0.83425 0.0
C656 C 0.14046 0.79798 0.84246 0.0
C657 C 0.11107 0.78978 0.84922 0.0
C658 C 0.21517 0.80831 0.81821 0.0
C659 C 0.23346 0.84506 0.8134 0.0
C660 C 0.18568 0.79992 0.82494 0.0
C661 C 0.17403 0.82824 0.82708 0.0
C662 C 0.1926 0.86515 0.82231 0.0
C663 C 0.22186 0.87339 0.81551 0.0
H664 H 0.19425 0.24482 0.8338 0.0
H665 H 0.20159 0.32422 0.85612 0.0
H666 H 0.17685 0.2819 0.82274 0.0
H667 H 0.18345 0.36082 0.84508 0.0
H668 H 0.19271 0.4416 0.82045 0.0
H669 H 0.21077 0.40515 0.83152 0.0
H670 H 0.12092 0.29312 0.81941 0.0
H671 H 0.10325 0.32961 0.8082 0.0
C672 C 0.19215 0.27018 0.83635 0.0
C673 C 0.19932 0.28158 0.84584 0.0
C674 C 0.18189 0.29123 0.83002 0.0
C675 C 0.17859 0.32416 0.83304 0.0
C676 C 0.18615 0.33582 0.84251 0.0
C677 C 0.19642 0.31476 0.84885 0.0
C678 C 0.1767 0.40919 0.82016 0.0
C679 C 0.14655 0.38849 0.81344 0.0
C680 C 0.18695 0.38831 0.82653 0.0
C681 C 0.16731 0.34627 0.82633 0.0
C682 C 0.13696 0.32554 0.81966 0.0
C683 C 0.12666 0.34644 0.81328 0.0
H684 H 0.77525 0.66799 0.68646 0.0
H685 H 0.74728 0.55329 0.67481 0.0
H686 H 0.82902 0.7016 0.67498 0.0
H687 H 0.80131 0.58682 0.66349 0.0
H688 H 0.87256 0.66397 0.63829 0.0
H689 H 0.81861 0.62992 0.64967 0.0
H690 H 0.89489 0.70942 0.67147 0.0
H691 H 0.94862 0.74394 0.66008 0.0
C692 C 0.78056 0.64997 0.68146 0.0
C693 C 0.75696 0.608 0.68154 0.0
C694 C 0.81151 0.66919 0.67493 0.0
C695 C 0.81944 0.64683 0.66835 0.0
C696 C 0.79565 0.6049 0.6684 0.0
C697 C 0.76479 0.5857 0.67492 0.0
C698 C 0.87791 0.67404 0.64552 0.0
C699 C 0.91486 0.7067 0.64828 0.0
C700 C 0.84703 0.65446 0.65204 0.0
C701 C 0.85245 0.66713 0.66145 0.0
C702 C 0.8896 0.69938 0.66423 0.0
C703 C 0.92048 0.71894 0.65772 0.0
H704 H 0.42287 0.14649 0.67021 0.0
H705 H 0.32981 0.11794 0.69075 0.0
H706 H 0.38422 0.15897 0.65855 0.0
H707 H 0.29162 0.13138 0.67914 0.0
H708 H 0.21655 0.12072 0.65342 0.0
H709 H 0.2542 0.10525 0.66473 0.0
H710 H 0.36405 0.20816 0.6553 0.0
H711 H 0.32646 0.22317 0.64382 0.0
C712 C 0.39416 0.14287 0.67224 0.0
C713 C 0.37943 0.13127 0.68141 0.0
C714 C 0.37214 0.15029 0.66557 0.0
C715 C 0.33495 0.1464 0.66793 0.0
C716 C 0.31996 0.13422 0.67707 0.0
C717 C 0.34192 0.12667 0.68373 0.0
C718 C 0.24874 0.14009 0.65376 0.0
C719 C 0.26852 0.17324 0.64774 0.0
C720 C 0.27029 0.1313 0.66027 0.0
C721 C 0.31211 0.15548 0.66092 0.0
C722 C 0.33191 0.18861 0.65488 0.0
C723 C 0.31035 0.19738 0.64835 0.0
H724 H 0.8297 0.26784 0.6691 0.0
H725 H 0.88182 0.21948 0.68821 0.0
H726 H 0.8151 0.21412 0.65802 0.0
H727 H 0.86598 0.16494 0.67728 0.0
H728 H 0.86805 0.09568 0.65164 0.0
H729 H 0.88445 0.15074 0.66241 0.0
H730 H 0.7714 0.14368 0.6561 0.0
H731 H 0.75561 0.08941 0.64507 0.0
C732 C 0.83792 0.24565 0.67095 0.0
C733 C 0.85693 0.2479 0.67952 0.0
C734 C 0.82929 0.21467 0.66463 0.0
C735 C 0.83917 0.18506 0.66678 0.0
C736 C 0.85844 0.18753 0.67534 0.0
C737 C 0.86738 0.21871 0.68162 0.0
C738 C 0.84663 0.10581 0.65257 0.0
C739 C 0.81049 0.08817 0.64752 0.0
C740 C 0.85597 0.13728 0.65878 0.0
C741 C 0.82924 0.15165 0.66014 0.0
C742 C 0.79296 0.13379 0.65511 0.0
C743 C 0.78376 0.1025 0.64884 0.0
H744 H 0.11428 0.56109 0.51078 0.0
H745 H 0.00224 0.55853 0.51551 0.0
H746 H 0.0816 0.50692 0.49942 0.0
H747 H 0.96952 0.50402 0.50415 0.0
H748 H 0.94233 0.44614 0.47478 0.0
H749 H 0.9737 0.4974 0.4868 0.0
H750 H 0.02932 0.43409 0.49866 0.0
H751 H -0.00205 0.38247 0.48655 0.0
C752 C 0.08265 0.54893 0.50941 0.0
C753 C 0.06087 0.56428 0.51399 0.0
C754 C 0.06391 0.51768 0.50295 0.0
C755 C 0.02308 0.50133 0.50089 0.0
C756 C 0.00116 0.51637 0.50554 0.0
C757 C 0.01984 0.54745 0.51206 0.0
C758 C 0.96128 0.44305 0.47993 0.0
C759 C 0.96772 0.41022 0.4797 0.0
C760 C 0.97897 0.47231 0.48686 0.0
C761 C 0.00375 0.46961 0.49369 0.0
C762 C 0.01048 0.43698 0.49344 0.0
C763 C 0.99246 0.40742 0.48654 0.0
H764 H 0.45057 0.45465 0.52337 0.0
H765 H 0.37906 0.46821 0.50188 0.0
H766 H 0.5045 0.47314 0.51205 0.0
H767 H 0.43266 0.48593 0.49055 0.0
H768 H 0.55355 0.55938 0.47584 0.0
H769 H 0.50016 0.54112 0.48732 0.0
H770 H 0.52006 0.44757 0.49798 0.0
H771 H 0.57379 0.46622 0.48665 0.0
C772 C 0.4462 0.46121 0.51621 0.0
C773 C 0.41055 0.46001 0.51353 0.0
C774 C 0.47706 0.47169 0.50972 0.0
C775 C 0.4729 0.48117 0.50041 0.0
C776 C 0.43703 0.47943 0.4977 0.0
C777 C 0.40619 0.46897 0.50419 0.0
C778 C 0.54662 0.53503 0.48066 0.0
C779 C 0.56794 0.5143 0.48034 0.0
C780 C 0.51587 0.52439 0.48719 0.0
C781 C 0.50584 0.49283 0.49354 0.0
C782 C 0.52738 0.47232 0.49326 0.0
C783 C 0.55807 0.48293 0.48673 0.0
H784 H 0.53227 0.10878 0.48608 0.0
H785 H 0.42348 0.00037 0.47855 0.0
H786 H 0.5491 0.07108 0.49704 0.0
H787 H 0.43969 0.96279 0.48974 0.0
H788 H 0.50081 0.9004 0.50306 0.0
H789 H 0.48579 0.93896 0.49192 0.0
H790 H 0.52932 0.03678 0.51176 0.0
H791 H 0.54559 -0.00133 0.52278 0.0
C792 C 0.51173 0.07694 0.48683 0.0
C793 C 0.47653 0.05754 0.48145 0.0
C794 C 0.52131 0.05535 0.49315 0.0
C795 C 0.49578 0.01389 0.49428 0.0
C796 C 0.46036 0.99457 0.48894 0.0
C797 C 0.4509 0.01615 0.48257 0.0
C798 C 0.50735 0.93022 0.50503 0.0
C799 C 0.52439 0.94651 0.51379 0.0
C800 C 0.49846 0.95222 0.49867 0.0
C801 C 0.5061 0.99088 0.50097 0.0
C802 C 0.52351 0.0073 0.50971 0.0
C803 C 0.53271 0.9854 0.51605 0.0
H804 H 0.42873 0.88751 0.01152 0.0
H805 H 0.41619 0.99103 0.01689 0.0
H806 H 0.48192 0.92603 0.0003 0.0
H807 H 0.46849 0.02927 0.0054 0.0
H808 H 0.59217 0.09823 0.99221 0.0
H809 H 0.53905 0.05914 0.00341 0.0
H810 H 0.4946 0.95597 0.98516 0.0
H811 H 0.54869 0.99476 0.97412 0.0
C812 C 0.43701 0.91839 0.01022 0.0
C813 C 0.41829 0.93626 0.01509 0.0
C814 C 0.46742 0.94044 0.00375 0.0
C815 C 0.47957 0.98079 0.00195 0.0
C816 C 0.46039 -0.00153 0.00674 0.0
C817 C 0.43021 0.97649 0.01327 0.0
C818 C 0.57113 0.06716 0.99061 0.0
C819 C 0.57465 0.04955 0.98229 0.0
C820 C 0.54047 0.04481 0.99699 0.0
C821 C 0.51238 0.00443 0.99517 0.0
C822 C 0.51602 0.98682 0.98685 0.0
C823 C 0.54693 0.00909 0.9805 0.0
H824 H -0.00242 0.54594 0.97312 0.0
H825 H 0.89351 0.48776 0.99108 0.0
H826 H 0.03532 0.52974 0.98425 0.0
H827 H 0.93159 0.47286 0.00238 0.0
H828 H -0.00205 0.41728 0.01632 0.0
H829 H 0.96051 0.43147 0.00463 0.0
H830 H 0.06491 0.54717 -0.0006 0.0
H831 H 0.10259 0.53235 0.0108 0.0
C832 C 0.98289 0.53004 0.97949 0.0
C833 C 0.94259 0.51813 0.98122 0.0
C834 C 0.00456 0.52088 0.98589 0.0
C835 C 0.98651 0.49994 0.99422 0.0
C836 C 0.94625 0.48836 0.99597 0.0
C837 C 0.92449 0.49718 0.98952 0.0
C838 C 0.01291 0.44563 0.01263 0.0
C839 C 0.05321 0.47365 0.01447 0.0
C840 C 0.9914 0.45391 0.00598 0.0
C841 C 0.00964 0.49055 0.00109 0.0
C842 C 0.05006 0.51841 0.00291 0.0
C843 C 0.07164 0.50998 0.00949 0.0
H844 H 0.53366 0.42402 0.98553 0.0
H845 H 0.43022 0.43047 0.97631 0.0
H846 H 0.54942 0.47723 0.99682 0.0
H847 H 0.44545 0.48309 0.9878 0.0
H848 H 0.50953 0.60575 0.00181 0.0
H849 H 0.49443 0.55247 0.99056 0.0
H850 H 0.5259 0.49091 0.01126 0.0
H851 H 0.54208 0.5448 0.02243 0.0
C852 C 0.51404 0.43653 0.98597 0.0
C853 C 0.48069 0.42304 0.98002 0.0
C854 C 0.523 0.46693 0.99248 0.0
C855 C 0.49874 0.48447 0.99321 0.0
C856 C 0.4651 0.47064 0.98732 0.0
C857 C 0.4562 0.44029 0.98078 0.0
C858 C 0.51337 0.58092 0.00395 0.0
C859 C 0.52701 0.5795 0.01301 0.0
C860 C 0.50443 0.55023 0.99752 0.0
C861 C 0.50872 0.51731 2e-05 0.0
C862 C 0.52269 0.51607 0.00907 0.0
C863 C 0.53184 0.54689 0.01549 0.0
H864 H 0.34656 0.05506 0.10636 0.0
H865 H 0.27137 0.04731 0.08307 0.0
H866 H 0.39722 0.05953 0.09538 0.0
H867 H 0.3207 0.05034 0.07219 0.0
H868 H 0.37897 0.01586 0.05343 0.0
H869 H 0.37983 0.06632 0.06392 0.0
H870 H 0.38768 0.00115 0.08776 0.0
H871 H 0.38817 0.95214 0.07733 0.0
C872 C 0.34144 0.05579 0.09891 0.0
C873 C 0.30427 0.04899 0.09556 0.0
C874 C 0.37045 0.05822 0.0926 0.0
C875 C 0.36242 0.05348 0.08289 0.0
C876 C 0.32807 0.05358 0.07959 0.0
C877 C 0.29928 0.0513 0.08586 0.0
C878 C 0.38286 0.01349 0.06088 0.0
C879 C 0.38166 0.97917 0.06462 0.0
C880 C 0.38315 0.04232 0.06691 0.0
C881 C 0.3818 0.03685 0.07672 0.0
C882 C 0.38801 0.00633 0.08029 0.0
C883 C 0.38786 0.97773 0.07428 0.0
H884 H 0.03355 0.42879 0.0769 0.0
H885 H 0.97186 0.35506 0.05293 0.0
H886 H 0.98411 0.37933 0.08725 0.0
H887 H 0.92087 0.30548 0.06333 0.0
H888 H 0.93066 0.2852 0.10594 0.0
H889 H 0.92584 0.33057 0.09478 0.0
H890 H 0.93587 0.26247 0.07186 0.0
H891 H 0.93908 0.21688 0.08292 0.0
C892 C 0.0083 0.40267 0.07381 0.0
C893 C 0.00757 0.39485 0.06417 0.0
C894 C 0.97942 0.37423 0.07976 0.0
C895 C 0.94932 0.33731 0.07617 0.0
C896 C 0.94456 0.33293 0.06636 0.0
C897 C 0.97368 0.36147 0.06038 0.0
C898 C 0.93001 0.27897 0.09851 0.0
C899 C 0.93718 0.24865 0.09529 0.0
C900 C 0.9274 0.30509 0.0921 0.0
C901 C 0.93244 0.30148 0.08242 0.0
C902 C 0.93249 0.26692 0.07923 0.0
C903 C 0.93486 0.2408 0.08561 0.0
H904 H 0.63138 0.61384 0.05442 0.0
H905 H 0.55629 0.6097 0.07738 0.0
H906 H 0.6782 0.61161 0.06561 0.0
H907 H 0.60301 0.60867 0.08849 0.0
H908 H 0.69403 0.6434 0.10811 0.0
H909 H 0.64799 0.59469 0.09675 0.0
H910 H 0.72187 0.67036 0.07411 0.0
H911 H 0.76784 0.71779 0.08538 0.0
C912 C 0.62402 0.6108 0.06183 0.0
C913 C 0.5911 0.6136 0.06507 0.0
C914 C 0.65096 0.60971 0.06825 0.0
C915 C 0.64536 0.61169 0.07797 0.0
C916 C 0.60885 0.6076 0.08109 0.0
C917 C 0.58205 0.60865 0.0747 0.0
C918 C 0.7013 0.6486 0.10071 0.0
C919 C 0.73357 0.6851 0.0976 0.0
C920 C 0.67482 0.62076 0.09419 0.0
C921 C 0.68022 0.62929 0.0845 0.0
C922 C 0.71621 0.66268 0.08148 0.0
C923 C 0.74255 0.69034 0.08797 0.0
H924 H 0.94776 0.38937 0.41646 0.0
H925 H 0.0128 0.38414 0.44057 0.0
H926 H -0.00324 0.38811 0.40615 0.0
H927 H 0.06314 0.38412 0.43019 0.0
H928 H 0.04681 0.27524 0.4115 0.0
H929 H 0.0478 0.32429 0.42217 0.0
H930 H 0.05634 0.39924 0.39869 0.0
H931 H 0.05403 0.34892 0.38791 0.0
C932 C 0.97359 0.38973 0.41957 0.0
C933 C 0.97551 0.38501 0.42929 0.0
C934 C 0.00218 0.38944 0.41363 0.0
C935 C 0.03317 0.38428 0.41732 0.0
C936 C 0.03886 0.38674 0.42712 0.0
C937 C 0.01008 0.38695 0.43308 0.0
C938 C 0.05027 0.30279 0.4086 0.0
C939 C 0.04848 0.3074 0.39887 0.0
C940 C 0.05135 0.3314 0.41476 0.0
C941 C 0.05055 0.36518 0.41129 0.0
C942 C 0.05564 0.37291 0.40158 0.0
C943 C 0.05446 0.34411 0.39539 0.0
H944 H 0.60473 0.5582 0.41762 0.0
H945 H 0.61094 0.63512 0.44036 0.0
H946 H 0.60628 0.60574 0.40637 0.0
H947 H 0.61132 0.68279 0.42903 0.0
H948 H 0.6458 0.69782 0.38668 0.0
H949 H 0.59562 0.65264 0.39791 0.0
H950 H 0.67161 0.72432 0.42075 0.0
H951 H 0.72057 0.76945 0.40961 0.0
C952 C 0.60457 0.58454 0.42022 0.0
C953 C 0.60949 0.59382 0.42983 0.0
C954 C 0.60506 0.61186 0.41375 0.0
C955 C 0.61065 0.64907 0.41677 0.0
C956 C 0.60833 0.65498 0.42647 0.0
C957 C 0.60789 0.62754 0.43297 0.0
C958 C 0.65086 0.7048 0.3941 0.0
C959 C 0.68775 0.73619 0.3973 0.0
C960 C 0.62215 0.67882 0.40054 0.0
C961 C 0.63013 0.68385 0.41025 0.0
C962 C 0.66427 0.719 0.41336 0.0
C963 C 0.69281 0.74483 0.40694 0.0
H964 H 0.35507 0.97972 0.44263 0.0
H965 H 0.42915 0.04955 0.41943 0.0
H966 H 0.30913 0.92881 0.43164 0.0
H967 H 0.38331 -0.0 0.40851 0.0
H968 H 0.29387 0.94143 0.38895 0.0
H969 H 0.3399 0.94008 0.40049 0.0
H970 H 0.26393 0.94025 0.42281 0.0
H971 H 0.21786 0.9402 0.41136 0.0
C972 C 0.36238 0.98347 0.43522 0.0
C973 C 0.39473 0.0193 0.43183 0.0
C974 C 0.33596 0.95436 0.4289 0.0
C975 C 0.34148 0.96095 0.41915 0.0
C976 C 0.37751 0.99375 0.41593 0.0
C977 C 0.40378 0.02266 0.42221 0.0
C978 C 0.28611 0.9392 0.39632 0.0
C979 C 0.25326 0.94274 0.39928 0.0
C980 C 0.31262 0.93863 0.40295 0.0
C981 C 0.30673 0.94201 0.4126 0.0
C982 C 0.27008 0.93825 0.41548 0.0
C983 C 0.24363 0.93867 0.40888 0.0
H984 H 0.71469 0.93927 0.91155 0.0
H985 H 0.64318 0.94223 0.88859 0.0
H986 H 0.66757 0.93949 0.92266 0.0
H987 H 0.5947 0.94115 0.89978 0.0
H988 H 0.61289 0.04945 0.91894 0.0
H989 H 0.61049 0.00068 0.90796 0.0
H990 H 0.60952 0.92726 0.93103 0.0
H991 H 0.61321 0.97737 0.9421 0.0
C992 C 0.68787 0.93821 0.90887 0.0
C993 C 0.68351 0.94257 0.89923 0.0
C994 C 0.66037 0.93787 0.91527 0.0
C995 C 0.62802 0.94205 0.91214 0.0
C996 C 0.62004 0.93928 0.90243 0.0
C997 C 0.64774 0.9397 0.896 0.0
C998 C 0.61078 0.02225 0.9217 0.0
C999 C 0.61503 0.01804 0.93135 0.0
C1000 C 0.60889 0.99379 0.91537 0.0
C1001 C 0.61141 0.96059 0.91858 0.0
C1002 C 0.60883 0.95315 0.92832 0.0
C1003 C 0.61079 0.9818 0.93467 0.0
H1004 H 0.0171 0.62371 0.94106 0.0
H1005 H 0.94268 0.55674 0.91761 0.0
H1006 H 0.06842 0.66973 0.93018 0.0
H1007 H 0.99272 0.60286 0.90683 0.0
H1008 H 0.05317 0.69516 0.88809 0.0
H1009 H 0.05268 0.64535 0.89873 0.0
H1010 H 0.05995 0.71899 0.92239 0.0
H1011 H 0.06179 0.76873 0.91182 0.0
C1012 C 0.01228 0.6179 0.9336 0.0
C1013 C 0.97517 0.58769 0.93017 0.0
C1014 C 0.04167 0.64439 0.92735 0.0
C1015 C 0.03413 0.64117 0.91762 0.0
C1016 C -0.00026 0.6069 0.91425 0.0
C1017 C 0.97056 0.58049 0.92047 0.0
C1018 C 0.05668 0.70153 0.89555 0.0
C1019 C 0.05566 0.73491 0.89917 0.0
C1020 C 0.05617 0.67284 0.90166 0.0
C1021 C 0.05424 0.67711 0.91144 0.0
C1022 C 0.0607 0.71404 0.91493 0.0
C1023 C 0.06136 0.74264 0.90884 0.0
H1024 H 0.36177 0.38153 0.94089 0.0
H1025 H 0.43621 0.39058 0.9173 0.0
H1026 H 0.31211 0.38073 0.93014 0.0
H1027 H 0.38666 0.38849 0.90662 0.0
H1028 H 0.22386 0.27187 0.91091 0.0
H1029 H 0.26993 0.32103 0.92187 0.0
H1030 H 0.33797 0.39783 0.89877 0.0
H1031 H 0.29196 0.34738 0.88771 0.0
C1032 C 0.36834 0.38505 0.93344 0.0
C1033 C 0.402 0.38438 0.92989 0.0
C1034 C 0.33975 0.38436 0.92726 0.0
C1035 C 0.3444 0.38264 0.91749 0.0
C1036 C 0.38146 0.38917 0.91407 0.0
C1037 C 0.40994 0.38997 0.92022 0.0
C1038 C 0.24788 0.29982 0.90816 0.0
C1039 C 0.25533 0.30501 0.89847 0.0
C1040 C 0.27425 0.32849 0.91447 0.0
C1041 C 0.30875 0.36293 0.91121 0.0
C1042 C 0.3124 0.37104 0.90151 0.0
C1043 C 0.28592 0.34217 0.89516 0.0
H1044 H 0.94152 0.64242 0.60561 0.0
H1045 H 0.9408 0.71607 0.58287 0.0
H1046 H 0.94068 0.59457 0.59427 0.0
H1047 H 0.94117 0.66946 0.57162 0.0
H1048 H 0.97784 0.6142 0.55204 0.0
H1049 H 0.92797 0.61106 0.56311 0.0
H1050 H 0.00079 0.6108 0.58617 0.0
H1051 H 0.04944 0.61287 0.57517 0.0
C1052 C 0.93955 0.64762 0.59821 0.0
C1053 C 0.94295 0.68379 0.5951 0.0
C1054 C 0.93923 0.62026 0.5917 0.0
C1055 C 0.9426 0.62892 0.58202 0.0
C1056 C 0.93905 0.66174 0.57898 0.0
C1057 C 0.9393 0.68893 0.58547 0.0
C1058 C 0.98215 0.61158 0.55946 0.0
C1059 C 0.01818 0.61535 0.56278 0.0
C1060 C 0.95365 0.60995 0.56582 0.0
C1061 C 0.96101 0.61227 0.57555 0.0
C1062 C 0.99399 0.60935 0.57876 0.0
C1063 C 0.02233 0.611 0.57243 0.0
H1064 H 0.27214 0.22403 0.58544 0.0
H1065 H 0.34371 0.29479 0.60884 0.0
H1066 H 0.32087 0.27159 0.57461 0.0
H1067 H 0.39365 0.34245 0.59793 0.0
H1068 H 0.38168 0.4367 0.57877 0.0
H1069 H 0.38064 0.38851 0.58974 0.0
H1070 H 0.3813 0.31599 0.56665 0.0
H1071 H 0.38117 0.36424 0.55559 0.0
C1072 C 0.29922 0.24901 0.58827 0.0
C1073 C 0.30332 0.25661 0.59796 0.0
C1074 C 0.32763 0.27626 0.58204 0.0
C1075 C 0.36065 0.31181 0.58538 0.0
C1076 C 0.36794 0.31596 0.59512 0.0
C1077 C 0.33938 0.28855 0.60139 0.0
C1078 C 0.38309 0.41122 0.57602 0.0
C1079 C 0.37972 0.40334 0.56634 0.0
C1080 C 0.38294 0.38358 0.58234 0.0
C1081 C 0.37928 0.34741 0.57909 0.0
C1082 C 0.38286 0.34296 0.56938 0.0
C1083 C 0.38296 0.37073 0.56303 0.0
H1084 H 0.76482 0.04482 0.58546 0.0
H1085 H 0.69215 0.04431 0.60859 0.0
H1086 H 0.71861 0.04745 0.57447 0.0
H1087 H 0.64587 0.0481 0.59751 0.0
H1088 H 0.55341 0.94286 0.57785 0.0
H1089 H 0.60034 0.98976 0.58906 0.0
H1090 H 0.67499 0.06391 0.56634 0.0
H1091 H 0.62801 0.01577 0.55504 0.0
C1092 C 0.73973 0.04695 0.58821 0.0
C1093 C 0.73114 0.04258 0.59785 0.0
C1094 C 0.71326 0.04896 0.58188 0.0
C1095 C 0.67751 0.04643 0.58508 0.0
C1096 C 0.6725 0.04886 0.59481 0.0
C1097 C 0.69912 0.04682 0.60117 0.0
C1098 C 0.57908 0.96991 0.57523 0.0
C1099 C 0.58799 0.97474 0.5656 0.0
C1100 C 0.606 -0.00272 0.58168 0.0
C1101 C 0.64245 0.02992 0.57862 0.0
C1102 C 0.6478 0.03835 0.56893 0.0
C1103 C 0.62077 0.01081 0.56245 0.0
H1104 H 0.71784 0.61283 0.74463 0.0
H1105 H 0.7249 0.68915 0.72166 0.0
H1106 H 0.72114 0.66155 0.75573 0.0
H1107 H 0.72983 0.73932 0.73286 0.0
H1108 H 0.62292 0.72997 0.75102 0.0
H1109 H 0.67205 0.72999 0.74055 0.0
H1110 H 0.73597 0.71926 0.7643 0.0
H1111 H 0.68524 0.71773 0.77482 0.0
C1112 C 0.72181 0.64091 0.74195 0.0
C1113 C 0.71913 0.64633 0.73229 0.0
C1114 C 0.72422 0.66935 0.74836 0.0
C1115 C 0.72391 0.70382 0.74521 0.0
C1116 C 0.72854 0.71239 0.73552 0.0
C1117 C 0.72591 0.68369 0.72909 0.0
C1118 C 0.64826 0.72909 0.75405 0.0
C1119 C 0.64924 0.72192 0.76368 0.0
C1120 C 0.67695 0.72954 0.74802 0.0
C1121 C 0.70715 0.72269 0.75153 0.0
C1122 C 0.71219 0.72302 0.76134 0.0
C1123 C 0.68323 0.72239 0.76739 0.0
H1124 H 0.30859 0.0422 0.72274 0.0
H1125 H 0.37818 0.10863 0.74681 0.0
H1126 H 0.25703 0.99355 0.73317 0.0
H1127 H 0.32814 0.05981 0.75715 0.0
H1128 H 0.26591 0.89468 0.75082 0.0
H1129 H 0.26668 0.94499 0.74066 0.0
H1130 H 0.26924 0.01386 0.7649 0.0
H1131 H 0.27007 0.96357 0.77513 0.0
C1132 C 0.31226 0.04725 0.73024 0.0
C1133 C 0.34826 0.07816 0.73398 0.0
C1134 C 0.28276 0.01922 0.73624 0.0
C1135 C 0.28916 0.02151 0.74601 0.0
C1136 C 0.32205 0.05634 0.74969 0.0
C1137 C 0.35128 0.08436 0.74372 0.0
C1138 C 0.26521 0.91986 0.75401 0.0
C1139 C 0.26993 0.92618 0.76374 0.0
C1140 C 0.2652 0.94878 0.74815 0.0
C1141 C 0.26996 0.98466 0.75193 0.0
C1142 C 0.26715 0.98732 0.76174 0.0
C1143 C 0.26739 0.95834 0.76762 0.0
H1144 H 0.89242 0.28234 0.74302 0.0
H1145 H 0.96602 0.28453 0.71993 0.0
H1146 H 0.93813 0.27896 0.75403 0.0
H1147 H 0.01182 0.27987 0.73101 0.0
H1148 H 0.10337 0.38441 0.75086 0.0
H1149 H 0.05715 0.3373 0.73959 0.0
H1150 H 0.98169 0.2631 0.76222 0.0
H1151 H 0.02797 0.31159 0.77357 0.0
C1152 C 0.91763 0.28043 0.74028 0.0
C1153 C 0.92664 0.28551 0.73066 0.0
C1154 C 0.94383 0.27796 0.74662 0.0
C1155 C 0.97973 0.28077 0.74345 0.0
C1156 C 0.9851 0.27896 0.73371 0.0
C1157 C 0.95877 0.28148 0.72734 0.0
C1158 C 0.07768 0.35728 0.75345 0.0
C1159 C 0.06829 0.35255 0.76306 0.0
C1160 C 0.05116 0.32979 0.74696 0.0
C1161 C 0.0146 0.29712 0.74997 0.0
C1162 C 0.00891 0.28872 0.75966 0.0
C1163 C 0.03555 0.31642 0.76618 0.0
H1164 H 0.30357 0.26922 0.2211 0.0
H1165 H 0.37918 0.27622 0.24423 0.0
H1166 H 0.25298 0.26409 0.23219 0.0
H1167 H 0.32999 0.27264 0.25522 0.0
H1168 H 0.2727 0.30757 0.2742 0.0
H1169 H 0.27161 0.25717 0.26365 0.0
H1170 H 0.26221 0.32194 0.23991 0.0
H1171 H 0.26183 0.3708 0.2504 0.0
C1172 C 0.30878 0.26815 0.22854 0.0
C1173 C 0.34605 0.27497 0.23182 0.0
C1174 C 0.27984 0.26538 0.23491 0.0
C1175 C 0.28806 0.26988 0.24462 0.0
C1176 C 0.32247 0.26964 0.24784 0.0
C1177 C 0.35118 0.27222 0.24149 0.0
C1178 C 0.26845 0.30987 0.26675 0.0
C1179 C 0.26921 0.34404 0.26306 0.0
C1180 C 0.26804 0.28108 0.26069 0.0
C1181 C 0.26888 0.28645 0.25089 0.0
C1182 C 0.2623 0.31682 0.24738 0.0
C1183 C 0.26252 0.34535 0.25342 0.0
H1184 H 0.60459 0.89009 0.25071 0.0
H1185 H 0.67756 0.96375 0.27362 0.0
H1186 H 0.65273 0.93604 0.23957 0.0
H1187 H 0.72707 0.00972 0.26239 0.0
H1188 H 0.71141 0.10122 0.24316 0.0
H1189 H 0.71328 0.05467 0.25417 0.0
H1190 H 0.71111 0.98043 0.23114 0.0
H1191 H 0.70799 0.0271 0.22006 0.0
C1192 C 0.63189 0.91534 0.25337 0.0
C1193 C 0.63646 0.92436 0.263 0.0
C1194 C 0.65999 0.94168 0.24696 0.0
C1195 C 0.69314 0.9777 0.25005 0.0
C1196 C 0.70114 0.98294 0.25976 0.0
C1197 C 0.67283 0.9565 0.26621 0.0
C1198 C 0.71278 0.0757 0.24042 0.0
C1199 C 0.70774 0.06682 0.2308 0.0
C1200 C 0.71435 0.04901 0.24676 0.0
C1201 C 0.71066 0.01274 0.24357 0.0
C1202 C 0.71266 0.00744 0.23384 0.0
C1203 C 0.71104 0.03428 0.22747 0.0
H1204 H 0.94966 0.68634 0.22305 0.0
H1205 H 0.88176 0.61828 0.24715 0.0
H1206 H -0.00148 0.73779 0.23346 0.0
H1207 H 0.93079 0.66816 0.25747 0.0
H1208 H 0.02735 0.72263 0.27541 0.0
H1209 H 0.97826 0.72598 0.26523 0.0
H1210 H 0.04586 0.72644 0.24093 0.0
H1211 H 0.09502 0.72473 0.25105 0.0
C1212 C 0.94431 0.68303 0.23055 0.0
C1213 C 0.913 0.64737 0.23431 0.0
C1214 C 0.97248 0.71247 0.23653 0.0
C1215 C 0.96993 0.70625 0.24632 0.0
C1216 C 0.93456 0.67402 0.25 0.0
C1217 C 0.90639 0.64488 0.24404 0.0
C1218 C 0.03259 0.72535 0.2679 0.0
C1219 C 0.06394 0.72148 0.26398 0.0
C1220 C 0.00431 0.72706 0.26205 0.0
C1221 C 0.00682 0.72436 0.25223 0.0
C1222 C 0.04215 0.72784 0.24843 0.0
C1223 C 0.07039 0.72638 0.25426 0.0
H1224 H 0.06373 0.17109 0.13518 0.0
H1225 H 0.0891 0.21368 0.10655 0.0
H1226 H 0.10138 0.13641 0.1329 0.0
H1227 H 0.12693 0.17916 0.1043 0.0
H1228 H 0.19283 0.0976 0.12756 0.0
H1229 H 0.16777 0.14396 0.12984 0.0
H1230 H 0.10687 0.10807 0.10313 0.0
H1231 H 0.13221 0.06231 0.10076 0.0
C1232 C 0.07788 0.17359 0.12845 0.0
C1233 C 0.07284 0.19452 0.12099 0.0
C1234 C 0.0996 0.15385 0.12716 0.0
C1235 C 0.11676 0.15471 0.11839 0.0
C1236 C 0.11342 0.17735 0.11108 0.0
C1237 C 0.09175 0.19712 0.11238 0.0
C1238 C 0.17448 0.09993 0.12213 0.0
C1239 C 0.16433 0.07601 0.11401 0.0
C1240 C 0.15999 0.12636 0.12346 0.0
C1241 C 0.13528 0.12958 0.11668 0.0
C1242 C 0.12625 0.10665 0.10843 0.0
C1243 C 0.14056 0.08017 0.10711 0.0
H1244 H 0.8971 0.09401 0.1292 0.0
H1245 H 0.92342 0.0654 0.1017 0.0
H1246 H 0.85134 0.02288 0.13212 0.0
H1247 H 0.87816 0.99462 0.10468 0.0
H1248 H 0.82533 0.89154 0.13725 0.0
H1249 H 0.85978 0.96374 0.13468 0.0
H1250 H 0.8068 0.94463 0.10709 0.0
H1251 H 0.77236 0.87246 0.10964 0.0
C1252 C 0.8929 0.07266 0.12375 0.0
C1253 C 0.91413 0.0854 0.11524 0.0
C1254 C 0.86683 0.03194 0.12545 0.0
C1255 C 0.86121 0.00321 0.11864 0.0
C1256 C 0.88148 0.01607 0.11002 0.0
C1257 C 0.90768 0.05667 0.10835 0.0
C1258 C 0.82053 0.90275 0.13069 0.0
C1259 C 0.79673 0.87628 0.12357 0.0
C1260 C 0.84015 0.94412 0.12924 0.0
C1261 C 0.83633 0.95979 0.12064 0.0
C1262 C 0.81087 0.93336 0.11372 0.0
C1263 C 0.79118 0.89203 0.11518 0.0
H1264 H 0.89643 0.79642 0.12841 0.0
H1265 H 0.91948 0.85799 0.10178 0.0
H1266 H 0.96803 0.82204 0.13038 0.0
H1267 H 0.99091 0.88372 0.10381 0.0
H1268 H 0.09857 0.92753 0.13552 0.0
H1269 H 0.02621 0.88967 0.13336 0.0
H1270 H 0.04262 0.8635 0.10476 0.0
H1271 H 0.11507 0.9013 0.1069 0.0
C1272 C 0.91665 0.81509 0.12294 0.0
C1273 C 0.90219 0.82543 0.11497 0.0
C1274 C 0.95767 0.82986 0.12409 0.0
C1275 C 0.98505 0.85499 0.11727 0.0
C1276 C 0.9705 0.86408 0.10915 0.0
C1277 C 0.92954 0.84954 0.10802 0.0
C1278 C 0.08678 0.91325 0.12881 0.0
C1279 C 0.11257 0.91805 0.12132 0.0
C1280 C 0.0453 0.8914 0.12759 0.0
C1281 C 0.02879 0.87395 0.11886 0.0
C1282 C 0.05455 0.87721 0.11151 0.0
C1283 C 0.09604 0.89889 0.11274 0.0
H1284 H 0.10053 0.19686 0.36761 0.0
H1285 H 0.06466 0.1349 0.39425 0.0
H1286 H 0.14669 0.17173 0.3652 0.0
H1287 H 0.1105 0.10964 0.39177 0.0
H1288 H 0.17271 0.067 0.35953 0.0
H1289 H 0.13805 0.1046 0.36198 0.0
H1290 H 0.18224 0.13037 0.39047 0.0
H1291 H 0.21692 0.0928 0.38802 0.0
C1292 C 0.1027 0.17822 0.37299 0.0
C1293 C 0.07861 0.16765 0.38109 0.0
C1294 C 0.12904 0.1637 0.37158 0.0
C1295 C 0.1321 0.13862 0.37828 0.0
C1296 C 0.10914 0.12927 0.38653 0.0
C1297 C 0.08265 0.14356 0.38791 0.0
C1298 C 0.17554 0.0812 0.36627 0.0
C1299 C 0.19693 0.0763 0.37364 0.0
C1300 C 0.15581 0.10287 0.36766 0.0
C1301 C 0.15709 0.12005 0.37645 0.0
C1302 C 0.18013 0.11683 0.38367 0.0
C1303 C 0.19997 0.09529 0.38227 0.0
H1304 H 0.93133 0.10051 0.3591 0.0
H1305 H 0.90351 0.11722 0.38756 0.0
H1306 H 0.89362 0.02816 0.3613 0.0
H1307 H 0.8659 0.04479 0.38975 0.0
H1308 H 0.80004 0.89836 0.36624 0.0
H1309 H 0.82577 0.96994 0.36418 0.0
H1310 H 0.8863 0.99317 0.3909 0.0
H1311 H 0.86046 0.92175 0.39303 0.0
C1312 C 0.91674 0.08877 0.36579 0.0
C1313 C 0.92103 0.11463 0.37321 0.0
C1314 C 0.89499 0.0473 0.36703 0.0
C1315 C 0.87713 0.03085 0.37573 0.0
C1316 C 0.87992 0.05667 0.38302 0.0
C1317 C 0.9015 0.09814 0.38176 0.0
C1318 C 0.81847 0.91865 0.37173 0.0
C1319 C 0.82846 0.9043 0.37977 0.0
C1320 C 0.83332 0.95966 0.37052 0.0
C1321 C 0.85815 0.98713 0.37736 0.0
C1322 C 0.86689 0.97269 0.38555 0.0
C1323 C 0.85229 0.93175 0.38674 0.0
H1324 H 0.06846 0.92721 0.39306 0.0
H1325 H 0.0969 0.89988 0.36565 0.0
H1326 H -0.00231 0.8816 0.39016 0.0
H1327 H 0.02579 0.85378 0.36281 0.0
H1328 H 0.87563 0.77518 0.38538 0.0
H1329 H 0.94783 0.81007 0.3879 0.0
H1330 H 0.96647 0.86182 0.36018 0.0
H1331 H 0.89426 0.82694 0.35764 0.0
C1332 C 0.0597 0.91117 0.38645 0.0
C1333 C 0.08838 0.91744 0.37956 0.0
C1334 C 0.01911 0.88477 0.38482 0.0
C1335 C 0.0062 0.86413 0.37625 0.0
C1336 C 0.03488 0.86957 0.36945 0.0
C1337 C 0.0756 0.89583 0.3711 0.0
C1338 C 0.89511 0.79382 0.3798 0.0
C1339 C 0.87921 0.7989 0.37138 0.0
C1340 C 0.93646 0.81378 0.38125 0.0
C1341 C 0.96277 0.83902 0.37428 0.0
C1342 C 0.94696 0.84237 0.36566 0.0
C1343 C 0.90557 0.8225 0.36423 0.0
H1344 H 0.82347 0.90231 0.89605 0.0
H1345 H 0.82229 0.91278 0.8659 0.0
H1346 H 0.84989 0.857 0.89446 0.0
H1347 H 0.85124 0.86957 0.86425 0.0
H1348 H 0.88879 0.77605 0.8634 0.0
H1349 H 0.84749 0.80732 0.86534 0.0
H1350 H 0.91139 0.86351 0.89095 0.0
H1351 H 0.95067 0.83106 0.88916 0.0
C1352 C 0.82888 0.8948 0.88908 0.0
C1353 C 0.82125 0.91128 0.8811 0.0
C1354 C 0.84432 0.86908 0.88815 0.0
C1355 C 0.85359 0.86014 0.87923 0.0
C1356 C 0.84421 0.87533 0.87123 0.0
C1357 C 0.82781 0.90033 0.87216 0.0
C1358 C 0.89336 0.79466 0.8695 0.0
C1359 C 0.92239 0.80051 0.87623 0.0
C1360 C 0.86994 0.81279 0.8706 0.0
C1361 C 0.87578 0.83787 0.87834 0.0
C1362 C 0.90493 0.84348 0.88505 0.0
C1363 C 0.92768 0.8248 0.88403 0.0
H1364 H 0.07581 0.92485 0.89492 0.0
H1365 H 0.09848 0.89686 0.86697 0.0
H1366 H 0.11979 0.9957 0.89185 0.0
H1367 H 0.1432 0.96809 0.86397 0.0
H1368 H 0.16636 0.0982 0.85903 0.0
H1369 H 0.1339 0.02615 0.86165 0.0
H1370 H 0.18917 0.04724 0.88902 0.0
H1371 H 0.22127 0.11925 0.88644 0.0
C1372 C 0.0906 0.93373 0.88816 0.0
C1373 C 0.08332 0.90512 0.88117 0.0
C1374 C 0.11609 0.9744 0.88642 0.0
C1375 C 0.13492 0.98752 0.87766 0.0
C1376 C 0.12876 0.9589 0.87076 0.0
C1377 C 0.10331 0.91809 0.87251 0.0
C1378 C 0.17205 0.08745 0.86555 0.0
C1379 C 0.1958 0.11438 0.8726 0.0
C1380 C 0.1536 0.04615 0.86704 0.0
C1381 C 0.15864 0.03101 0.87559 0.0
C1382 C 0.1841 0.05801 0.88243 0.0
C1383 C 0.2025 0.09925 0.88095 0.0
H1384 H 0.09337 0.19217 0.86699 0.0
H1385 H 0.07019 0.13125 0.89371 0.0
H1386 H 0.0217 0.16608 0.86494 0.0
H1387 H -0.00126 0.10492 0.89157 0.0
H1388 H 0.87436 0.08684 0.88837 0.0
H1389 H 0.94678 0.1243 0.89059 0.0
H1390 H 0.96356 0.09897 0.86193 0.0
H1391 H 0.89124 0.06157 0.8597 0.0
C1392 C 0.0731 0.17353 0.87246 0.0
C1393 C 0.08756 0.16359 0.88049 0.0
C1394 C 0.03204 0.15845 0.87126 0.0
C1395 C 0.0046 0.13335 0.87807 0.0
C1396 C 0.01915 0.12454 0.88624 0.0
C1397 C 0.06014 0.13943 0.88743 0.0
C1398 C 0.89348 0.08936 0.88253 0.0
C1399 C 0.87704 0.07066 0.87391 0.0
C1400 C 0.93495 0.11083 0.88381 0.0
C1401 C 0.96083 0.11429 0.87646 0.0
C1402 C 0.94441 0.09713 0.86771 0.0
C1403 C 0.90294 0.07554 0.86644 0.0
H1404 H 0.82144 0.9236 0.63668 0.0
H1405 H 0.77182 0.8942 0.60869 0.0
H1406 H 0.85591 0.886 0.63396 0.0
H1407 H 0.80625 0.85655 0.60599 0.0
H1408 H 0.92317 0.85207 0.60105 0.0
H1409 H 0.87751 0.8772 0.60393 0.0
H1410 H 0.84733 0.81881 0.63099 0.0
H1411 H 0.89348 0.79389 0.62818 0.0
C1412 C 0.8174 0.90863 0.63 0.0
C1413 C 0.7945 0.91249 0.62284 0.0
C1414 C 0.83701 0.88693 0.62846 0.0
C1415 C 0.83409 0.86867 0.61973 0.0
C1416 C 0.80961 0.87091 0.61273 0.0
C1417 C 0.78992 0.8925 0.61428 0.0
C1418 C 0.90655 0.8442 0.60758 0.0
C1419 C 0.91227 0.82122 0.61441 0.0
C1420 C 0.88014 0.8584 0.6092 0.0
C1421 C 0.85891 0.85006 0.6177 0.0
C1422 C 0.86361 0.82604 0.62441 0.0
C1423 C 0.88991 0.81162 0.62278 0.0
H1424 H 0.19135 0.09125 0.62832 0.0
H1425 H 0.13102 0.06823 0.60151 0.0
H1426 H 0.16607 0.01969 0.63026 0.0
H1427 H 0.10554 0.99685 0.60354 0.0
H1428 H 0.08818 0.87289 0.60663 0.0
H1429 H 0.12565 0.94537 0.60453 0.0
H1430 H 0.09887 0.96119 0.63313 0.0
H1431 H 0.06144 0.88879 0.63524 0.0
C1432 C 0.17304 0.07105 0.6228 0.0
C1433 C 0.16296 0.08549 0.61479 0.0
C1434 C 0.15843 0.03005 0.62394 0.0
C1435 C 0.1337 0.00268 0.61707 0.0
C1436 C 0.12488 0.01724 0.60891 0.0
C1437 C 0.13929 0.05817 0.60779 0.0
C1438 C 0.09039 0.89181 0.61248 0.0
C1439 C 0.07124 0.87509 0.62105 0.0
C1440 C 0.11188 0.93331 0.61128 0.0
C1441 C 0.11489 0.95893 0.61864 0.0
C1442 C 0.09736 0.94223 0.62735 0.0
C1443 C 0.07575 0.90073 0.62854 0.0
H1444 H 0.09418 0.16237 0.63711 0.0
H1445 H 0.11293 0.21095 0.60902 0.0
H1446 H 0.022 0.12754 0.63457 0.0
H1447 H 0.0407 0.17588 0.60649 0.0
H1448 H 0.91858 0.05796 0.60223 0.0
H1449 H 0.98971 0.10371 0.60477 0.0
H1450 H 0.96365 0.13718 0.63168 0.0
H1451 H 0.89237 0.09122 0.6292 0.0
C1452 C 0.08292 0.16606 0.63044 0.0
C1453 C 0.10931 0.18883 0.6232 0.0
C1454 C 0.04155 0.14622 0.629 0.0
C1455 C 0.02576 0.1487 0.6203 0.0
C1456 C 0.05208 0.17291 0.61321 0.0
C1457 C 0.09344 0.19294 0.61467 0.0
C1458 C 0.92789 0.07533 0.60865 0.0
C1459 C 0.89973 0.07059 0.61554 0.0
C1460 C 0.96866 0.10176 0.61007 0.0
C1461 C 0.98222 0.1239 0.61844 0.0
C1462 C 0.95405 0.12016 0.62521 0.0
C1463 C 0.91321 0.09392 0.62376 0.0
H1464 H 0.7299 0.50494 0.46846 0.0
H1465 H 0.75812 0.55466 0.44046 0.0
H1466 H 0.76824 0.47134 0.46565 0.0
H1467 H 0.79658 0.52112 0.43767 0.0
H1468 H 0.8034 0.40525 0.43272 0.0
H1469 H 0.77757 0.4504 0.43555 0.0
H1470 H 0.83554 0.48106 0.46266 0.0
H1471 H 0.86107 0.43546 0.45991 0.0
C1472 C 0.74478 0.50919 0.46176 0.0
C1473 C 0.7404 0.53187 0.45463 0.0
C1474 C 0.7669 0.49008 0.46016 0.0
C1475 C 0.78511 0.4933 0.4514 0.0
C1476 C 0.78229 0.51753 0.44443 0.0
C1477 C 0.76025 0.53672 0.44603 0.0
C1478 C 0.81108 0.42193 0.43925 0.0
C1479 C 0.83401 0.4164 0.44612 0.0
C1480 C 0.79646 0.44803 0.44084 0.0
C1481 C 0.80438 0.46913 0.44935 0.0
C1482 C 0.82855 0.4648 0.45608 0.0
C1483 C 0.84332 0.4388 0.45448 0.0
H1484 H 0.48748 0.23157 0.47002 0.0
H1485 H 0.44091 0.21142 0.44172 0.0
H1486 H 0.52293 0.30355 0.46725 0.0
H1487 H 0.47651 0.28352 0.43896 0.0
H1488 H 0.59427 0.40542 0.43464 0.0
H1489 H 0.54832 0.33444 0.43733 0.0
H1490 H 0.51434 0.36188 0.46401 0.0
H1491 H 0.56061 0.43298 0.4614 0.0
C1492 C 0.48436 0.24249 0.46325 0.0
C1493 C 0.46194 0.21573 0.45604 0.0
C1494 C 0.50456 0.28377 0.46167 0.0
C1495 C 0.50278 0.29915 0.45285 0.0
C1496 C 0.47896 0.27247 0.44577 0.0
C1497 C 0.4586 0.23118 0.44736 0.0
C1498 C 0.57675 0.39644 0.44105 0.0
C1499 C 0.58142 0.42493 0.44784 0.0
C1500 C 0.55021 0.35574 0.44255 0.0
C1501 C 0.52783 0.3426 0.4509 0.0
C1502 C 0.53153 0.37112 0.45756 0.0
C1503 C 0.55794 0.41187 0.45604 0.0
H1504 H 0.77449 0.28483 0.43957 0.0
H1505 H 0.76668 0.22402 0.46555 0.0
H1506 H 0.70259 0.24714 0.43794 0.0
H1507 H 0.69398 0.18406 0.46375 0.0
H1508 H 0.56475 0.16127 0.46356 0.0
H1509 H 0.63675 0.18923 0.46494 0.0
H1510 H 0.64596 0.18709 0.43468 0.0
H1511 H 0.5743 0.16176 0.43337 0.0
C1512 C 0.75746 0.26236 0.44478 0.0
C1513 C 0.77623 0.25698 0.45261 0.0
C1514 C 0.71594 0.24051 0.44385 0.0
C1515 C 0.69208 0.21211 0.45067 0.0
C1516 C 0.71115 0.20602 0.45842 0.0
C1517 C 0.75279 0.22864 0.45943 0.0
C1518 C 0.58223 0.16646 0.45722 0.0
C1519 C 0.56415 0.15989 0.44836 0.0
C1520 C 0.62356 0.18227 0.458 0.0
C1521 C 0.64757 0.19101 0.44992 0.0
C1522 C 0.62881 0.18199 0.44106 0.0
C1523 C 0.58767 0.16716 0.44029 0.0
H1524 H 0.72667 0.47053 0.72689 0.0
H1525 H 0.7614 0.53224 0.7002 0.0
H1526 H 0.77255 0.44533 0.72427 0.0
H1527 H 0.80755 0.50722 0.69766 0.0
H1528 H 0.8359 0.40458 0.69184 0.0
H1529 H 0.79959 0.44039 0.69446 0.0
H1530 H 0.8448 0.4672 0.72284 0.0
H1531 H 0.88128 0.43149 0.72023 0.0
C1532 C 0.74434 0.47906 0.7205 0.0
C1533 C 0.7401 0.50319 0.71373 0.0
C1534 C 0.77084 0.46483 0.71904 0.0
C1535 C 0.79358 0.47426 0.71075 0.0
C1536 C 0.7901 0.49915 0.70407 0.0
C1537 C 0.76376 0.51359 0.70556 0.0
C1538 C 0.83858 0.41858 0.6986 0.0
C1539 C 0.8609 0.41458 0.70588 0.0
C1540 C 0.81787 0.43922 0.70008 0.0
C1541 C 0.81904 0.45624 0.70889 0.0
C1542 C 0.84279 0.45377 0.71604 0.0
C1543 C 0.86367 0.43329 0.71453 0.0
H1544 H 0.51665 0.2675 0.72904 0.0
H1545 H 0.46206 0.23878 0.70151 0.0
H1546 H 0.5422 0.33815 0.72605 0.0
H1547 H 0.48722 0.30985 0.6986 0.0
H1548 H 0.59315 0.43997 0.69313 0.0
H1549 H 0.55379 0.36802 0.69583 0.0
H1550 H 0.5239 0.38951 0.72366 0.0
H1551 H 0.56366 0.46151 0.721 0.0
C1552 C 0.50957 0.27616 0.7224 0.0
C1553 C 0.48758 0.24742 0.71548 0.0
C1554 C 0.52399 0.31674 0.72072 0.0
C1555 C 0.51681 0.32962 0.71208 0.0
C1556 C 0.49361 0.30084 0.70528 0.0
C1557 C 0.47904 0.26012 0.70698 0.0
C1558 C 0.57768 0.42935 0.69977 0.0
C1559 C 0.5821 0.45639 0.70692 0.0
C1560 C 0.55494 0.38809 0.7013 0.0
C1561 C 0.53608 0.37308 0.71 0.0
C1562 C 0.53872 0.40018 0.71695 0.0
C1563 C 0.56147 0.44142 0.71542 0.0
H1564 H 0.75701 0.25814 0.69829 0.0
H1565 H 0.74878 0.24834 0.72849 0.0
H1566 H 0.68469 0.21479 0.69708 0.0
H1567 H 0.67692 0.20287 0.72734 0.0
H1568 H 0.549 0.17479 0.72299 0.0
H1569 H 0.62102 0.20828 0.72429 0.0
H1570 H 0.62679 0.15236 0.69844 0.0
H1571 H 0.55398 0.12014 0.69698 0.0
C1572 C 0.73974 0.24582 0.70466 0.0
C1573 C 0.75826 0.25694 0.71349 0.0
C1574 C 0.69827 0.22075 0.70398 0.0
C1575 C 0.67462 0.20564 0.71212 0.0
C1576 C 0.69383 0.21487 0.72092 0.0
C1577 C 0.73507 0.24068 0.7216 0.0
C1578 C 0.56541 0.16885 0.7177 0.0
C1579 C 0.5458 0.14437 0.70997 0.0
C1580 C 0.60699 0.18813 0.71844 0.0
C1581 C 0.63006 0.1829 0.71152 0.0
C1582 C 0.6102 0.15759 0.70385 0.0
C1583 C 0.5685 0.13889 0.70303 0.0
H1584 H 0.59088 0.16029 0.19201 0.0
H1585 H 0.5626 0.11327 0.22025 0.0
H1586 H 0.55399 0.19553 0.19458 0.0
H1587 H 0.52584 0.14874 0.22282 0.0
H1588 H 0.52113 0.26641 0.22689 0.0
H1589 H 0.54687 0.22092 0.22436 0.0
H1590 H 0.48636 0.18613 0.1976 0.0
H1591 H 0.46077 0.23186 0.20005 0.0
C1592 C 0.57638 0.15704 0.19873 0.0
C1593 C 0.58029 0.13457 0.20599 0.0
C1594 C 0.5551 0.17712 0.20018 0.0
C1595 C 0.53736 0.17518 0.20893 0.0
C1596 C 0.53979 0.1513 0.21606 0.0
C1597 C 0.56089 0.13103 0.21458 0.0
C1598 C 0.51299 0.24884 0.22049 0.0
C1599 C 0.48914 0.25307 0.21364 0.0
C1600 C 0.52753 0.22256 0.21908 0.0
C1601 C 0.5187 0.20006 0.21077 0.0
C1602 C 0.49397 0.20341 0.20403 0.0
C1603 C 0.4792 0.22952 0.20546 0.0
H1604 H 0.7391 0.23843 0.19943 0.0
H1605 H 0.743 0.2458 0.22968 0.0
H1606 H 0.78284 0.31062 0.19842 0.0
H1607 H 0.7889 0.31766 0.22875 0.0
H1608 H 0.81851 0.44609 0.22393 0.0
H1609 H 0.78496 0.37408 0.22535 0.0
H1610 H 0.84496 0.36806 0.20023 0.0
H1611 H 0.87714 0.44077 0.19864 0.0
C1612 C 0.75019 0.25546 0.20586 0.0
C1613 C 0.73731 0.2367 0.21463 0.0
C1614 C 0.77552 0.2969 0.2053 0.0
C1615 C 0.78918 0.32033 0.21351 0.0
C1616 C 0.7781 0.30093 0.22228 0.0
C1617 C 0.75203 0.25967 0.22283 0.0
C1618 C 0.82531 0.42961 0.21884 0.0
C1619 C 0.85083 0.4491 0.21125 0.0
C1620 C 0.80601 0.38804 0.21964 0.0
C1621 C 0.81228 0.36489 0.21294 0.0
C1622 C 0.83884 0.38468 0.20546 0.0
C1623 C 0.85753 0.42634 0.20457 0.0
H1624 H 0.75473 0.52986 0.20153 0.0
H1625 H 0.72485 0.47707 0.22924 0.0
H1626 H 0.68376 0.50426 0.19837 0.0
H1627 H 0.65431 0.45109 0.22601 0.0
H1628 H 0.53142 0.43006 0.2205 0.0
H1629 H 0.60334 0.46955 0.22326 0.0
H1630 H 0.6254 0.43769 0.19571 0.0
H1631 H 0.55348 0.39861 0.1929 0.0
C1632 C 0.73315 0.51315 0.20697 0.0
C1633 C 0.74551 0.5053 0.21562 0.0
C1634 C 0.69249 0.49834 0.20514 0.0
C1635 C 0.66342 0.47557 0.21192 0.0
C1636 C 0.67594 0.46896 0.22067 0.0
C1637 C 0.71646 0.48364 0.2225 0.0
C1638 C 0.55162 0.43176 0.215 0.0
C1639 C 0.5368 0.41069 0.20655 0.0
C1640 C 0.59281 0.45434 0.21659 0.0
C1641 C 0.62005 0.45635 0.20975 0.0
C1642 C 0.60522 0.43701 0.2011 0.0
C1643 C 0.56399 0.41445 0.1995 0.0
H1644 H 0.57635 0.15863 0.93402 0.0
H1645 H 0.58641 0.15831 0.96419 0.0
H1646 H 0.5306 0.18459 0.93545 0.0
H1647 H 0.54287 0.1869 0.96568 0.0
H1648 H 0.44836 0.22297 0.96635 0.0
H1649 H 0.48054 0.18246 0.96455 0.0
H1650 H 0.53563 0.24543 0.93877 0.0
H1651 H 0.5021 0.28379 0.94041 0.0
C1652 C 0.5687 0.16418 0.94096 0.0
C1653 C 0.58511 0.15684 0.94898 0.0
C1654 C 0.54273 0.17937 0.9418 0.0
C1655 C 0.5335 0.1887 0.95068 0.0
C1656 C 0.54879 0.17977 0.95873 0.0
C1657 C 0.574 0.16359 0.95789 0.0
C1658 C 0.46692 0.22749 0.96024 0.0
C1659 C 0.47214 0.25595 0.95342 0.0
C1660 C 0.4856 0.20454 0.95923 0.0
C1661 C 0.51067 0.21037 0.95148 0.0
C1662 C 0.51565 0.23898 0.94468 0.0
C1663 C 0.49637 0.2612 0.94561 0.0
H1664 H 0.86087 0.42929 0.96243 0.0
H1665 H 0.80149 0.40249 0.93545 0.0
H1666 H 0.83571 0.35805 0.96497 0.0
H1667 H 0.77609 0.33145 0.93808 0.0
H1668 H 0.76084 0.20871 0.94219 0.0
H1669 H 0.79723 0.28095 0.93968 0.0
H1670 H 0.76896 0.29907 0.96796 0.0
H1671 H 0.73259 0.22688 0.97049 0.0
C1672 C 0.84274 0.40831 0.95701 0.0
C1673 C 0.83301 0.42163 0.94875 0.0
C1674 C 0.82819 0.36749 0.95849 0.0
C1675 C 0.80386 0.33917 0.95174 0.0
C1676 C 0.79516 0.35258 0.94337 0.0
C1677 C 0.8095 0.39332 0.9419 0.0
C1678 C 0.7625 0.22808 0.94789 0.0
C1679 C 0.74324 0.21204 0.95648 0.0
C1680 C 0.78335 0.26946 0.94644 0.0
C1681 C 0.78561 0.29564 0.95358 0.0
C1682 C 0.76801 0.27968 0.96234 0.0
C1683 C 0.74703 0.23829 0.96377 0.0
H1684 H 0.76746 0.50425 0.96923 0.0
H1685 H 0.78828 0.55332 0.94118 0.0
H1686 H 0.69543 0.4712 0.96659 0.0
H1687 H 0.71623 0.52053 0.93857 0.0
H1688 H 0.59356 0.40555 0.93366 0.0
H1689 H 0.66448 0.45052 0.93646 0.0
H1690 H 0.6375 0.48014 0.96374 0.0
H1691 H 0.56629 0.43456 0.96102 0.0
C1692 C 0.75667 0.50853 0.96256 0.0
C1693 C 0.78355 0.5308 0.95535 0.0
C1694 C 0.71537 0.48974 0.96106 0.0
C1695 C 0.70015 0.49294 0.95233 0.0
C1696 C 0.72707 0.51692 0.9453 0.0
C1697 C 0.76834 0.5357 0.9468 0.0
C1698 C 0.60259 0.42194 0.94022 0.0
C1699 C 0.57418 0.41611 0.94714 0.0
C1700 C 0.64331 0.44797 0.9418 0.0
C1701 C 0.65662 0.46879 0.95034 0.0
C1702 C 0.62816 0.46414 0.95713 0.0
C1703 C 0.58735 0.43815 0.95555 0.0
H1704 H 0.43339 0.87931 0.7994 0.0
H1705 H 0.3763 0.8303 0.77281 0.0
H1706 H 0.47597 0.84961 0.79721 0.0
H1707 H 0.41692 0.79936 0.77076 0.0
H1708 H 0.50732 0.76384 0.76552 0.0
H1709 H 0.4796 0.80788 0.76755 0.0
H1710 H 0.47295 0.78758 0.79754 0.0
H1711 H 0.50304 0.74564 0.7955 0.0
C1712 C 0.43012 0.86233 0.79307 0.0
C1713 C 0.40206 0.85771 0.78619 0.0
C1714 C 0.45429 0.84511 0.79183 0.0
C1715 C 0.4502 0.82217 0.78377 0.0
C1716 C 0.42201 0.81778 0.77692 0.0
C1717 C 0.3985 0.83557 0.77809 0.0
C1718 C 0.50051 0.76941 0.77255 0.0
C1719 C 0.50696 0.75109 0.78034 0.0
C1720 C 0.48431 0.79438 0.77373 0.0
C1721 C 0.47316 0.80076 0.7827 0.0
C1722 C 0.48143 0.78381 0.79053 0.0
C1723 C 0.49852 0.75954 0.78937 0.0
H1724 H 0.22199 0.7614 0.79403 0.0
H1725 H 0.25166 0.73495 0.76665 0.0
H1726 H 0.17683 0.69009 0.79669 0.0
H1727 H 0.20699 0.66387 0.76939 0.0
H1728 H 0.1042 0.5396 0.77415 0.0
H1729 H 0.13675 0.61165 0.77153 0.0
H1730 H 0.1869 0.63267 0.79947 0.0
H1731 H 0.15423 0.56068 0.80211 0.0
C1732 C 0.21865 0.7405 0.78854 0.0
C1733 C 0.24078 0.75393 0.78015 0.0
C1734 C 0.19288 0.69963 0.79009 0.0
C1735 C 0.18852 0.67137 0.78328 0.0
C1736 C 0.20936 0.68491 0.77474 0.0
C1737 C 0.2352 0.72571 0.7732 0.0
C1738 C 0.12199 0.55959 0.77975 0.0
C1739 C 0.12723 0.54445 0.78828 0.0
C1740 C 0.14061 0.60085 0.77825 0.0
C1741 C 0.1647 0.62782 0.78525 0.0
C1742 C 0.16826 0.61267 0.79395 0.0
C1743 C 0.14969 0.57139 0.79545 0.0
H1744 H 0.43619 0.55475 0.79805 0.0
H1745 H 0.44681 0.62081 0.77277 0.0
H1746 H 0.36368 0.51571 0.79589 0.0
H1747 H 0.37492 0.584 0.77081 0.0
H1748 H 0.24641 0.4993 0.76553 0.0
H1749 H 0.31808 0.52499 0.76698 0.0
H1750 H 0.30679 0.5212 0.79726 0.0
H1751 H 0.23482 0.49293 0.79571 0.0
C1752 C 0.42293 0.56073 0.79201 0.0
C1753 C 0.44709 0.5903 0.78549 0.0
C1754 C 0.38138 0.53866 0.79079 0.0
C1755 C 0.36309 0.54652 0.78316 0.0
C1756 C 0.38766 0.57609 0.77663 0.0
C1757 C 0.42914 0.59741 0.77774 0.0
C1758 C 0.25933 0.50355 0.77248 0.0
C1759 C 0.2352 0.49442 0.7805 0.0
C1760 C 0.30048 0.51857 0.77333 0.0
C1761 C 0.31864 0.52588 0.78225 0.0
C1762 C 0.29408 0.51554 0.79027 0.0
C1763 C 0.25276 0.49956 0.7894 0.0
H1764 H 0.39963 0.80644 0.06161 0.0
H1765 H 0.42958 0.86296 0.03429 0.0
H1766 H 0.44481 0.78062 0.05891 0.0
H1767 H 0.4753 0.83745 0.03167 0.0
H1768 H 0.50057 0.73256 0.02623 0.0
H1769 H 0.46658 0.77064 0.02885 0.0
H1770 H 0.51513 0.7993 0.05694 0.0
H1771 H 0.54894 0.76096 0.05435 0.0
C1772 C 0.41626 0.81387 0.05508 0.0
C1773 C 0.41063 0.83648 0.04813 0.0
C1774 C 0.44239 0.79924 0.05356 0.0
C1775 C 0.46351 0.80686 0.04507 0.0
C1776 C 0.45904 0.83067 0.03825 0.0
C1777 C 0.43296 0.84544 0.03977 0.0
C1778 C 0.50445 0.74743 0.03292 0.0
C1779 C 0.52688 0.74319 0.04014 0.0
C1780 C 0.48512 0.76942 0.03441 0.0
C1781 C 0.4879 0.78768 0.04314 0.0
C1782 C 0.51187 0.78497 0.0502 0.0
C1783 C 0.53122 0.76301 0.04871 0.0
H1784 H 0.14813 0.57894 0.06268 0.0
H1785 H 0.15206 0.56585 0.03266 0.0
H1786 H 0.17437 0.65053 0.06075 0.0
H1787 H 0.18069 0.63773 0.03071 0.0
H1788 H 0.21785 0.76834 0.02902 0.0
H1789 H 0.17628 0.69594 0.03118 0.0
H1790 H 0.23638 0.70559 0.05752 0.0
H1791 H 0.27596 0.7772 0.05549 0.0
C1792 C 0.15456 0.59146 0.05566 0.0
C1793 C 0.14845 0.56698 0.04783 0.0
C1794 C 0.16991 0.63255 0.05454 0.0
C1795 C 0.18051 0.65027 0.04559 0.0
C1796 C 0.17259 0.62531 0.03771 0.0
C1797 C 0.15635 0.58404 0.03882 0.0
C1798 C 0.22155 0.75478 0.03532 0.0
C1799 C 0.24962 0.77847 0.04217 0.0
C1800 C 0.19796 0.71332 0.03654 0.0
C1801 C 0.20267 0.69467 0.04456 0.0
C1802 C 0.23081 0.71873 0.0514 0.0
C1803 C 0.25374 0.76008 0.05024 0.0
H1804 H 0.42249 0.58402 0.03222 0.0
H1805 H 0.41093 0.57598 0.06239 0.0
H1806 H 0.35057 0.53985 0.03062 0.0
H1807 H 0.33937 0.52961 0.06088 0.0
H1808 H 0.21048 0.49693 0.0553 0.0
H1809 H 0.2824 0.532 0.05725 0.0
H1810 H 0.29383 0.47717 0.03179 0.0
H1811 H 0.22131 0.44368 0.02965 0.0
C1812 C 0.40459 0.57196 0.03851 0.0
C1813 C 0.4221 0.58374 0.04743 0.0
C1814 C 0.3633 0.54637 0.03761 0.0
C1815 C 0.33876 0.53131 0.04562 0.0
C1816 C 0.35693 0.54145 0.05454 0.0
C1817 C 0.39803 0.56779 0.05543 0.0
C1818 C 0.2282 0.49167 0.05023 0.0
C1819 C 0.2103 0.46724 0.04239 0.0
C1820 C 0.26969 0.51182 0.05134 0.0
C1821 C 0.29431 0.50745 0.04471 0.0
C1822 C 0.27607 0.48192 0.03697 0.0
C1823 C 0.23452 0.46244 0.03577 0.0
H1824 H 0.19505 0.60544 0.55993 0.0
H1825 H 0.13106 0.56322 0.53367 0.0
H1826 H 0.2208 0.55956 0.5581 0.0
H1827 H 0.15674 0.51729 0.53191 0.0
H1828 H 0.2616 0.4919 0.52657 0.0
H1829 H 0.2246 0.52726 0.52873 0.0
H1830 H 0.20013 0.48697 0.55752 0.0
H1831 H 0.23693 0.45128 0.55536 0.0
C1832 C 0.18608 0.58609 0.55382 0.0
C1833 C 0.1613 0.58835 0.5469 0.0
C1834 C 0.20065 0.55963 0.55281 0.0
C1835 C 0.19091 0.53501 0.54484 0.0
C1836 C 0.1651 0.53627 0.53807 0.0
C1837 C 0.15031 0.56254 0.5391 0.0
C1838 C 0.2479 0.49011 0.53333 0.0
C1839 C 0.25283 0.46938 0.54085 0.0
C1840 C 0.22656 0.51024 0.53455 0.0
C1841 C 0.20979 0.51013 0.54332 0.0
C1842 C 0.21331 0.48807 0.55073 0.0
C1843 C 0.23443 0.46769 0.54949 0.0
H1844 H 0.43094 0.566 0.53411 0.0
H1845 H 0.39884 0.59237 0.5612 0.0
H1846 H 0.47669 0.63737 0.53157 0.0
H1847 H 0.44398 0.66341 0.55858 0.0
H1848 H 0.54863 0.78696 0.55444 0.0
H1849 H 0.51468 0.71476 0.5569 0.0
H1850 H 0.46817 0.69576 0.52863 0.0
H1851 H 0.50231 0.76798 0.52614 0.0
C1852 C 0.43389 0.5869 0.53956 0.0
C1853 C 0.41098 0.57344 0.54784 0.0
C1854 C 0.45994 0.62779 0.53808 0.0
C1855 C 0.46382 0.656 0.54486 0.0
C1856 C 0.44202 0.64241 0.55326 0.0
C1857 C 0.4159 0.60164 0.55473 0.0
C1858 C 0.53134 0.76739 0.54873 0.0
C1859 C 0.52759 0.78317 0.54015 0.0
C1860 C 0.5119 0.72604 0.55015 0.0
C1861 C 0.48842 0.69959 0.54299 0.0
C1862 C 0.4863 0.71535 0.53425 0.0
C1863 C 0.50572 0.75674 0.53284 0.0
H1864 H 0.40076 0.8065 0.55981 0.0
H1865 H 0.4295 0.86261 0.53244 0.0
H1866 H 0.32999 0.78139 0.55687 0.0
H1867 H 0.35847 0.83767 0.52957 0.0
H1868 H 0.22819 0.73174 0.52406 0.0
H1869 H 0.30014 0.76994 0.52683 0.0
H1870 H 0.27924 0.80202 0.55445 0.0
H1871 H 0.20717 0.76387 0.5517 0.0
C1872 C 0.39207 0.81391 0.55321 0.0
C1873 C 0.42082 0.83628 0.54633 0.0
C1874 C 0.35148 0.79975 0.55156 0.0
C1875 C 0.33868 0.80748 0.54297 0.0
C1876 C 0.36747 0.83094 0.53621 0.0
C1877 C 0.40815 0.84534 0.53788 0.0
C1878 C 0.23891 0.74743 0.53068 0.0
C1879 C 0.21195 0.74412 0.53773 0.0
C1880 C 0.28017 0.76947 0.53224 0.0
C1881 C 0.2953 0.78863 0.5409 0.0
C1882 C 0.26839 0.78697 0.54778 0.0
C1883 C 0.22712 0.76508 0.54619 0.0
H1884 H 0.22278 0.48014 0.26591 0.0
H1885 H 0.24509 0.4894 0.29576 0.0
H1886 H 0.17765 0.50655 0.26795 0.0
H1887 H 0.202 0.51828 0.29779 0.0
H1888 H 0.10931 0.55639 0.29979 0.0
H1889 H 0.13932 0.51405 0.29772 0.0
H1890 H 0.18551 0.56927 0.2707 0.0
H1891 H 0.15429 0.60962 0.27266 0.0
C1892 C 0.21785 0.48776 0.27292 0.0
C1893 C 0.23765 0.48314 0.28066 0.0
C1894 C 0.19225 0.50321 0.2741 0.0
C1895 C 0.18672 0.51545 0.28302 0.0
C1896 C 0.20511 0.50892 0.29083 0.0
C1897 C 0.23002 0.49254 0.28967 0.0
C1898 C 0.12542 0.55884 0.29336 0.0
C1899 C 0.1289 0.58585 0.28631 0.0
C1900 C 0.14283 0.5348 0.29219 0.0
C1901 C 0.1648 0.53796 0.28402 0.0
C1902 C 0.16788 0.56493 0.27697 0.0
C1903 C 0.14992 0.58831 0.27808 0.0
H1904 H 0.49659 0.75744 0.29602 0.0
H1905 H 0.49316 0.74661 0.26583 0.0
H1906 H 0.46833 0.68535 0.29751 0.0
H1907 H 0.46742 0.67493 0.26724 0.0
H1908 H 0.37045 0.54635 0.27262 0.0
H1909 H 0.40749 0.61834 0.27086 0.0
H1910 H 0.47403 0.62829 0.29616 0.0
H1911 H 0.43492 0.55565 0.2981 0.0
C1912 C 0.49064 0.73966 0.28971 0.0
C1913 C 0.49654 0.75742 0.28082 0.0
C1914 C 0.47465 0.6983 0.29054 0.0
C1915 C 0.46503 0.67396 0.28249 0.0
C1916 C 0.47324 0.69236 0.2736 0.0
C1917 C 0.4883 0.73352 0.27278 0.0
C1918 C 0.39353 0.56373 0.27768 0.0
C1919 C 0.40018 0.54537 0.28542 0.0
C1920 C 0.41497 0.60527 0.27669 0.0
C1921 C 0.44414 0.62949 0.28333 0.0
C1922 C 0.45143 0.61082 0.29097 0.0
C1923 C 0.4293 0.56921 0.29206 0.0
H1924 H 0.44785 0.88525 0.27397 0.0
H1925 H 0.42827 0.83722 0.30211 0.0
H1926 H 0.37568 0.85131 0.27143 0.0
H1927 H 0.35616 0.80312 0.29955 0.0
H1928 H 0.22678 0.76619 0.29418 0.0
H1929 H 0.29805 0.81181 0.29674 0.0
H1930 H 0.32408 0.78082 0.26952 0.0
H1931 H 0.25301 0.73573 0.26687 0.0
C1932 C 0.42817 0.86759 0.27962 0.0
C1933 C 0.44376 0.86336 0.28818 0.0
C1934 C 0.38683 0.84815 0.27816 0.0
C1935 C 0.36026 0.82423 0.28525 0.0
C1936 C 0.37585 0.82161 0.29397 0.0
C1937 C 0.41719 0.84101 0.29543 0.0
C1938 C 0.24762 0.76941 0.28869 0.0
C1939 C 0.23414 0.74701 0.28035 0.0
C1940 C 0.28848 0.79544 0.29019 0.0
C1941 C 0.31668 0.79977 0.28336 0.0
C1942 C 0.30308 0.7785 0.27488 0.0
C1943 C 0.2623 0.75242 0.27339 0.0
loop_
_geom_bond_atom_site_label_1
_geom_bond_atom_site_label_2
_geom_bond_distance
_geom_bond_site_symmetry_2
_ccdc_geom_bond_type
Mg0 O1 2.028 . S
Mg0 O7 1.986 . S
Mg0 O9 2.114 . S
Mg0 O10 2.251 . S
Mg0 O13 2.010 . S
O1 Mg0 2.028 . S
O1 C4 1.250 . S
O2 Mg3 2.028 . S
O2 C4 1.248 . S
Mg3 O2 2.028 . S
Mg3 O8 2.032 . S
Mg3 O10 2.079 . S
C4 O1 1.250 . S
C4 O2 1.248 . S
C5 O6 1.264 . S
C5 O13 1.249 . S
O6 C5 1.264 . S
O7 Mg0 1.986 . S
O7 C11 1.246 . S
O8 Mg3 2.032 . S
O8 C11 1.259 . S
O9 Mg0 2.114 . S
O9 C12 1.252 1_545 S
O10 Mg0 2.251 . S
O10 Mg3 2.079 . S
O10 C12 1.273 1_545 S
C11 O7 1.246 . S
C11 O8 1.259 . S
C12 O9 1.252 1_565 S
C12 O10 1.273 1_565 S
O13 Mg0 2.010 . S
O13 C5 1.249 . S
Mg14 O15 2.028 . S
Mg14 O21 1.986 . S
Mg14 O23 2.114 . S
Mg14 O24 2.251 . S
Mg14 O27 2.010 . S
O15 Mg14 2.028 . S
O15 C18 1.250 . S
O16 Mg17 2.028 . S
O16 C18 1.248 . S
Mg17 O16 2.028 . S
Mg17 O22 2.032 . S
Mg17 O24 2.079 . S
C18 O15 1.250 . S
C18 O16 1.248 . S
C19 O20 1.264 . S
C19 O27 1.249 . S
O20 C19 1.264 . S
O21 Mg14 1.986 . S
O21 C25 1.246 . S
O22 Mg17 2.032 . S
O22 C25 1.259 . S
O23 Mg14 2.114 . S
O23 C26 1.252 1_655 S
O24 Mg14 2.251 . S
O24 Mg17 2.079 . S
O24 C26 1.273 1_655 S
C25 O21 1.246 . S
C25 O22 1.259 . S
C26 O23 1.252 1_455 S
C26 O24 1.273 1_455 S
O27 Mg14 2.010 . S
O27 C19 1.249 . S
Mg28 O29 2.028 . S
Mg28 O35 1.986 . S
Mg28 O37 2.114 . S
Mg28 O38 2.251 . S
Mg28 O41 2.010 . S
O29 Mg28 2.028 . S
O29 C32 1.250 . S
O30 Mg31 2.028 . S
O30 C32 1.248 . S
Mg31 O30 2.028 . S
Mg31 O36 2.032 . S
Mg31 O38 2.079 . S
C32 O29 1.250 . S
C32 O30 1.248 . S
C33 O34 1.264 . S
C33 O41 1.249 . S
O34 C33 1.264 . S
O35 Mg28 1.986 . S
O35 C39 1.246 . S
O36 Mg31 2.032 . S
O36 C39 1.259 . S
O37 Mg28 2.114 . S
O37 C40 1.252 . S
O38 Mg28 2.251 . S
O38 Mg31 2.079 . S
O38 C40 1.273 . S
C39 O35 1.246 . S
C39 O36 1.259 . S
C40 O37 1.252 . S
C40 O38 1.273 . S
O41 Mg28 2.010 . S
O41 C33 1.249 . S
Mg42 O43 2.028 . S
Mg42 O49 1.986 . S
Mg42 O51 2.114 . S
Mg42 O52 2.251 . S
Mg42 O55 2.010 . S
O43 Mg42 2.028 . S
O43 C46 1.250 . S
O44 Mg45 2.028 . S
O44 C46 1.248 . S
Mg45 O44 2.028 . S
Mg45 O50 2.032 . S
Mg45 O52 2.079 . S
C46 O43 1.250 . S
C46 O44 1.248 . S
C47 O48 1.264 . S
C47 O55 1.249 . S
O48 C47 1.264 . S
O49 Mg42 1.986 . S
O49 C53 1.246 . S
O50 Mg45 2.032 . S
O50 C53 1.259 . S
O51 Mg42 2.114 . S
O51 C54 1.252 1_455 S
O52 Mg42 2.251 . S
O52 Mg45 2.079 . S
O52 C54 1.273 1_455 S
C53 O49 1.246 . S
C53 O50 1.259 . S
C54 O51 1.252 1_655 S
C54 O52 1.273 1_655 S
O55 Mg42 2.010 . S
O55 C47 1.249 . S
Mg56 O57 2.028 . S
Mg56 O63 1.986 . S
Mg56 O65 2.114 . S
Mg56 O66 2.251 . S
Mg56 O69 2.010 . S
O57 Mg56 2.028 . S
O57 C60 1.250 . S
O58 Mg59 2.028 . S
O58 C60 1.248 . S
Mg59 O58 2.028 . S
Mg59 O64 2.032 . S
Mg59 O66 2.079 . S
C60 O57 1.250 . S
C60 O58 1.248 . S
C61 O62 1.264 . S
C61 O69 1.249 . S
O62 C61 1.264 . S
O63 Mg56 1.986 . S
O63 C67 1.246 . S
O64 Mg59 2.032 . S
O64 C67 1.259 . S
O65 Mg56 2.114 . S
O65 C68 1.252 . S
O66 Mg56 2.251 . S
O66 Mg59 2.079 . S
O66 C68 1.273 . S
C67 O63 1.246 . S
C67 O64 1.259 . S
C68 O65 1.252 . S
C68 O66 1.273 . S
O69 Mg56 2.010 . S
O69 C61 1.249 . S
Mg70 O71 2.028 . S
Mg70 O77 1.986 . S
Mg70 O79 2.114 . S
Mg70 O80 2.251 . S
Mg70 O83 2.010 . S
O71 Mg70 2.028 . S
O71 C74 1.250 . S
O72 Mg73 2.028 . S
O72 C74 1.248 . S
Mg73 O72 2.028 . S
Mg73 O78 2.032 . S
Mg73 O80 2.079 . S
C74 O71 1.250 . S
C74 O72 1.248 . S
C75 O76 1.264 . S
C75 O83 1.249 . S
O76 C75 1.264 . S
O77 Mg70 1.986 . S
O77 C81 1.246 . S
O78 Mg73 2.032 . S
O78 C81 1.259 . S
O79 Mg70 2.114 . S
O79 C82 1.252 1_565 S
O80 Mg70 2.251 . S
O80 Mg73 2.079 . S
O80 C82 1.273 1_565 S
C81 O77 1.246 . S
C81 O78 1.259 . S
C82 O79 1.252 1_545 S
C82 O80 1.273 1_545 S
O83 Mg70 2.010 . S
O83 C75 1.249 . S
Mg84 O85 2.028 . S
Mg84 O91 1.986 . S
Mg84 O93 2.114 . S
Mg84 O94 2.251 . S
Mg84 O97 2.010 . S
O85 Mg84 2.028 . S
O85 C88 1.250 . S
O86 Mg87 2.028 . S
O86 C88 1.248 . S
Mg87 O86 2.028 . S
Mg87 O92 2.032 . S
Mg87 O94 2.079 . S
C88 O85 1.250 . S
C88 O86 1.248 . S
C89 O90 1.264 . S
C89 O97 1.249 . S
O90 C89 1.264 . S
O91 Mg84 1.986 . S
O91 C95 1.246 . S
O92 Mg87 2.032 . S
O92 C95 1.259 . S
O93 Mg84 2.114 . S
O93 C96 1.252 1_565 S
O94 Mg84 2.251 . S
O94 Mg87 2.079 . S
O94 C96 1.273 1_565 S
C95 O91 1.246 . S
C95 O92 1.259 . S
C96 O93 1.252 1_545 S
C96 O94 1.273 1_545 S
O97 Mg84 2.010 . S
O97 C89 1.249 . S
Mg98 O99 2.028 . S
Mg98 O105 1.986 . S
Mg98 O107 2.114 . S
Mg98 O108 2.251 . S
Mg98 O111 2.010 . S
O99 Mg98 2.028 . S
O99 C102 1.250 . S
O100 Mg101 2.028 . S
O100 C102 1.248 . S
Mg101 O100 2.028 . S
Mg101 O106 2.032 . S
Mg101 O108 2.079 . S
C102 O99 1.250 . S
C102 O100 1.248 . S
C103 O104 1.264 . S
C103 O111 1.249 . S
O104 C103 1.264 . S
O105 Mg98 1.986 . S
O105 C109 1.246 . S
O106 Mg101 2.032 . S
O106 C109 1.259 . S
O107 Mg98 2.114 . S
O107 C110 1.252 1_455 S
O108 Mg98 2.251 . S
O108 Mg101 2.079 . S
O108 C110 1.273 1_455 S
C109 O105 1.246 . S
C109 O106 1.259 . S
C110 O107 1.252 1_655 S
C110 O108 1.273 1_655 S
O111 Mg98 2.010 . S
O111 C103 1.249 . S
Mg112 O113 2.028 . S
Mg112 O119 1.986 . S
Mg112 O121 2.114 . S
Mg112 O122 2.251 . S
Mg112 O125 2.010 . S
O113 Mg112 2.028 . S
O113 C116 1.250 . S
O114 Mg115 2.028 . S
O114 C116 1.248 . S
Mg115 O114 2.028 . S
Mg115 O120 2.032 . S
Mg115 O122 2.079 . S
C116 O113 1.250 . S
C116 O114 1.248 . S
C117 O118 1.264 . S
C117 O125 1.249 . S
O118 C117 1.264 . S
O119 Mg112 1.986 . S
O119 C123 1.246 . S
O120 Mg115 2.032 . S
O120 C123 1.259 . S
O121 Mg112 2.114 . S
O121 C124 1.252 . S
O122 Mg112 2.251 . S
O122 Mg115 2.079 . S
O122 C124 1.273 . S
C123 O119 1.246 . S
C123 O120 1.259 . S
C124 O121 1.252 . S
C124 O122 1.273 . S
O125 Mg112 2.010 . S
O125 C117 1.249 . S
Mg126 O127 2.028 . S
Mg126 O133 1.986 . S
Mg126 O135 2.114 . S
Mg126 O136 2.251 . S
Mg126 O139 2.010 . S
O127 Mg126 2.028 . S
O127 C130 1.250 . S
O128 Mg129 2.028 . S
O128 C130 1.248 . S
Mg129 O128 2.028 . S
Mg129 O134 2.032 . S
Mg129 O136 2.079 . S
C130 O127 1.250 . S
C130 O128 1.248 . S
C131 O132 1.264 . S
C131 O139 1.249 . S
O132 C131 1.264 . S
O133 Mg126 1.986 . S
O133 C137 1.246 . S
O134 Mg129 2.032 . S
O134 C137 1.259 . S
O135 Mg126 2.114 . S
O135 C138 1.252 1_655 S
O136 Mg126 2.251 . S
O136 Mg129 2.079 . S
O136 C138 1.273 1_655 S
C137 O133 1.246 . S
C137 O134 1.259 . S
C138 O135 1.252 1_455 S
C138 O136 1.273 1_455 S
O139 Mg126 2.010 . S
O139 C131 1.249 . S
Mg140 O141 2.028 . S
Mg140 O147 1.986 . S
Mg140 O149 2.114 . S
Mg140 O150 2.251 . S
Mg140 O153 2.010 . S
O141 Mg140 2.028 . S
O141 C144 1.250 . S
O142 Mg143 2.028 . S
O142 C144 1.248 . S
Mg143 O142 2.028 . S
Mg143 O148 2.032 . S
Mg143 O150 2.079 . S
C144 O141 1.250 . S
C144 O142 1.248 . S
C145 O146 1.264 . S
C145 O153 1.249 . S
O146 C145 1.264 . S
O147 Mg140 1.986 . S
O147 C151 1.246 . S
O148 Mg143 2.032 . S
O148 C151 1.259 . S
O149 Mg140 2.114 . S
O149 C152 1.252 . S
O150 Mg140 2.251 . S
O150 Mg143 2.079 . S
O150 C152 1.273 . S
C151 O147 1.246 . S
C151 O148 1.259 . S
C152 O149 1.252 . S
C152 O150 1.273 . S
O153 Mg140 2.010 . S
O153 C145 1.249 . S
Mg154 O155 2.028 . S
Mg154 O161 1.986 . S
Mg154 O163 2.114 . S
Mg154 O164 2.251 . S
Mg154 O167 2.010 . S
O155 Mg154 2.028 . S
O155 C158 1.250 . S
O156 Mg157 2.028 . S
O156 C158 1.248 . S
Mg157 O156 2.028 . S
Mg157 O162 2.032 . S
Mg157 O164 2.079 . S
C158 O155 1.250 . S
C158 O156 1.248 . S
C159 O160 1.264 . S
C159 O167 1.249 . S
O160 C159 1.264 . S
O161 Mg154 1.986 . S
O161 C165 1.246 . S
O162 Mg157 2.032 . S
O162 C165 1.259 . S
O163 Mg154 2.114 . S
O163 C166 1.252 1_545 S
O164 Mg154 2.251 . S
O164 Mg157 2.079 . S
O164 C166 1.273 1_545 S
C165 O161 1.246 . S
C165 O162 1.259 . S
C166 O163 1.252 1_565 S
C166 O164 1.273 1_565 S
O167 Mg154 2.010 . S
O167 C159 1.249 . S
Mg168 O169 2.028 . S
Mg168 O175 1.986 . S
Mg168 O177 2.114 . S
Mg168 O178 2.251 . S
Mg168 O181 2.010 . S
O169 Mg168 2.028 . S
O169 C172 1.250 . S
O170 Mg171 2.028 . S
O170 C172 1.248 . S
Mg171 O170 2.028 . S
Mg171 O176 2.032 . S
Mg171 O178 2.079 . S
C172 O169 1.250 . S
C172 O170 1.248 . S
C173 O174 1.264 . S
C173 O181 1.249 . S
O174 C173 1.264 . S
O175 Mg168 1.986 . S
O175 C179 1.246 . S
O176 Mg171 2.032 . S
O176 C179 1.259 . S
O177 Mg168 2.114 . S
O177 C180 1.252 . S
O178 Mg168 2.251 . S
O178 Mg171 2.079 . S
O178 C180 1.273 . S
C179 O175 1.246 . S
C179 O176 1.259 . S
C180 O177 1.252 . S
C180 O178 1.273 . S
O181 Mg168 2.010 . S
O181 C173 1.249 . S
Mg182 O183 2.028 . S
Mg182 O189 1.986 . S
Mg182 O191 2.114 . S
Mg182 O192 2.251 . S
Mg182 O195 2.010 . S
O183 Mg182 2.028 . S
O183 C186 1.250 . S
O184 Mg185 2.028 . S
O184 C186 1.248 . S
Mg185 O184 2.028 . S
Mg185 O190 2.032 . S
Mg185 O192 2.079 . S
C186 O183 1.250 . S
C186 O184 1.248 . S
C187 O188 1.264 . S
C187 O195 1.249 . S
O188 C187 1.264 . S
O189 Mg182 1.986 . S
O189 C193 1.246 . S
O190 Mg185 2.032 . S
O190 C193 1.259 . S
O191 Mg182 2.114 . S
O191 C194 1.252 . S
O192 Mg182 2.251 . S
O192 Mg185 2.079 . S
O192 C194 1.273 . S
C193 O189 1.246 . S
C193 O190 1.259 . S
C194 O191 1.252 . S
C194 O192 1.273 . S
O195 Mg182 2.010 . S
O195 C187 1.249 . S
Mg196 O197 2.028 . S
Mg196 O203 1.986 . S
Mg196 O205 2.114 . S
Mg196 O206 2.251 . S
Mg196 O209 2.010 . S
O197 Mg196 2.028 . S
O197 C200 1.250 . S
O198 Mg199 2.028 . S
O198 C200 1.248 . S
Mg199 O198 2.028 . S
Mg199 O204 2.032 . S
Mg199 O206 2.079 . S
C200 O197 1.250 . S
C200 O198 1.248 . S
C201 O202 1.264 . S
C201 O209 1.249 . S
O202 C201 1.264 . S
O203 Mg196 1.986 . S
O203 C207 1.246 . S
O204 Mg199 2.032 . S
O204 C207 1.259 . S
O205 Mg196 2.114 . S
O205 C208 1.252 . S
O206 Mg196 2.251 . S
O206 Mg199 2.079 . S
O206 C208 1.273 . S
C207 O203 1.246 . S
C207 O204 1.259 . S
C208 O205 1.252 . S
C208 O206 1.273 . S
O209 Mg196 2.010 . S
O209 C201 1.249 . S
Mg210 O211 2.028 . S
Mg210 O217 1.986 . S
Mg210 O219 2.114 . S
Mg210 O220 2.251 . S
Mg210 O223 2.010 . S
O211 Mg210 2.028 . S
O211 C214 1.250 . S
O212 Mg213 2.028 . S
O212 C214 1.248 . S
Mg213 O212 2.028 . S
Mg213 O218 2.032 . S
Mg213 O220 2.079 . S
C214 O211 1.250 . S
C214 O212 1.248 . S
C215 O216 1.264 . S
C215 O223 1.249 . S
O216 C215 1.264 . S
O217 Mg210 1.986 . S
O217 C221 1.246 . S
O218 Mg213 2.032 . S
O218 C221 1.259 . S
O219 Mg210 2.114 . S
O219 C222 1.252 . S
O220 Mg210 2.251 . S
O220 Mg213 2.079 . S
O220 C222 1.273 . S
C221 O217 1.246 . S
C221 O218 1.259 . S
C222 O219 1.252 . S
C222 O220 1.273 . S
O223 Mg210 2.010 . S
O223 C215 1.249 . S
Mg224 O225 2.028 . S
Mg224 O231 1.986 . S
Mg224 O233 2.114 . S
Mg224 O234 2.251 . S
Mg224 O237 2.010 . S
O225 Mg224 2.028 . S
O225 C228 1.250 . S
O226 Mg227 2.028 . S
O226 C228 1.248 . S
Mg227 O226 2.028 . S
Mg227 O232 2.032 . S
Mg227 O234 2.079 . S
C228 O225 1.250 . S
C228 O226 1.248 . S
C229 O230 1.264 . S
C229 O237 1.249 . S
O230 C229 1.264 . S
O231 Mg224 1.986 . S
O231 C235 1.246 . S
O232 Mg227 2.032 . S
O232 C235 1.259 . S
O233 Mg224 2.114 . S
O233 C236 1.252 . S
O234 Mg224 2.251 . S
O234 Mg227 2.079 . S
O234 C236 1.273 . S
C235 O231 1.246 . S
C235 O232 1.259 . S
C236 O233 1.252 . S
C236 O234 1.273 . S
O237 Mg224 2.010 . S
O237 C229 1.249 . S
Mg238 O239 2.028 . S
Mg238 O245 1.986 . S
Mg238 O247 2.114 . S
Mg238 O248 2.251 . S
Mg238 O251 2.010 . S
O239 Mg238 2.028 . S
O239 C242 1.250 . S
O240 Mg241 2.028 . S
O240 C242 1.248 . S
Mg241 O240 2.028 . S
Mg241 O246 2.032 . S
Mg241 O248 2.079 . S
C242 O239 1.250 . S
C242 O240 1.248 . S
C243 O244 1.264 . S
C243 O251 1.249 . S
O244 C243 1.264 . S
O245 Mg238 1.986 . S
O245 C249 1.246 . S
O246 Mg241 2.032 . S
O246 C249 1.259 . S
O247 Mg238 2.114 . S
O247 C250 1.252 . S
O248 Mg238 2.251 . S
O248 Mg241 2.079 . S
O248 C250 1.273 . S
C249 O245 1.246 . S
C249 O246 1.259 . S
C250 O247 1.252 . S
C250 O248 1.273 . S
O251 Mg238 2.010 . S
O251 C243 1.249 . S
Mg252 O253 2.028 . S
Mg252 O259 1.986 . S
Mg252 O261 2.114 . S
Mg252 O262 2.251 . S
Mg252 O265 2.010 . S
O253 Mg252 2.028 . S
O253 C256 1.250 . S
O254 Mg255 2.028 . S
O254 C256 1.248 . S
Mg255 O254 2.028 . S
Mg255 O260 2.032 . S
Mg255 O262 2.079 . S
C256 O253 1.250 . S
C256 O254 1.248 . S
C257 O258 1.264 . S
C257 O265 1.249 . S
O258 C257 1.264 . S
O259 Mg252 1.986 . S
O259 C263 1.246 . S
O260 Mg255 2.032 . S
O260 C263 1.259 . S
O261 Mg252 2.114 . S
O261 C264 1.252 . S
O262 Mg252 2.251 . S
O262 Mg255 2.079 . S
O262 C264 1.273 . S
C263 O259 1.246 . S
C263 O260 1.259 . S
C264 O261 1.252 . S
C264 O262 1.273 . S
O265 Mg252 2.010 . S
O265 C257 1.249 . S
Mg266 O267 2.028 . S
Mg266 O273 1.986 . S
Mg266 O275 2.114 . S
Mg266 O276 2.251 . S
Mg266 O279 2.010 . S
O267 Mg266 2.028 . S
O267 C270 1.250 . S
O268 Mg269 2.028 . S
O268 C270 1.248 . S
Mg269 O268 2.028 . S
Mg269 O274 2.032 . S
Mg269 O276 2.079 . S
C270 O267 1.250 . S
C270 O268 1.248 . S
C271 O272 1.264 . S
C271 O279 1.249 . S
O272 C271 1.264 . S
O273 Mg266 1.986 . S
O273 C277 1.246 . S
O274 Mg269 2.032 . S
O274 C277 1.259 . S
O275 Mg266 2.114 . S
O275 C278 1.252 . S
O276 Mg266 2.251 . S
O276 Mg269 2.079 . S
O276 C278 1.273 . S
C277 O273 1.246 . S
C277 O274 1.259 . S
C278 O275 1.252 . S
C278 O276 1.273 . S
O279 Mg266 2.010 . S
O279 C271 1.249 . S
Mg280 O281 2.028 . S
Mg280 O287 1.986 . S
Mg280 O289 2.114 . S
Mg280 O290 2.251 . S
Mg280 O293 2.010 . S
O281 Mg280 2.028 . S
O281 C284 1.250 . S
O282 Mg283 2.028 . S
O282 C284 1.248 . S
Mg283 O282 2.028 . S
Mg283 O288 2.032 . S
Mg283 O290 2.079 . S
C284 O281 1.250 . S
C284 O282 1.248 . S
C285 O286 1.264 . S
C285 O293 1.249 . S
O286 C285 1.264 . S
O287 Mg280 1.986 . S
O287 C291 1.246 . S
O288 Mg283 2.032 . S
O288 C291 1.259 . S
O289 Mg280 2.114 . S
O289 C292 1.252 . S
O290 Mg280 2.251 . S
O290 Mg283 2.079 . S
O290 C292 1.273 . S
C291 O287 1.246 . S
C291 O288 1.259 . S
C292 O289 1.252 . S
C292 O290 1.273 . S
O293 Mg280 2.010 . S
O293 C285 1.249 . S
Mg294 O295 2.028 . S
Mg294 O301 1.986 . S
Mg294 O303 2.114 . S
Mg294 O304 2.251 . S
Mg294 O307 2.010 . S
O295 Mg294 2.028 . S
O295 C298 1.250 . S
O296 Mg297 2.028 . S
O296 C298 1.248 . S
Mg297 O296 2.028 . S
Mg297 O302 2.032 . S
Mg297 O304 2.079 . S
C298 O295 1.250 . S
C298 O296 1.248 . S
C299 O300 1.264 . S
C299 O307 1.249 . S
O300 C299 1.264 . S
O301 Mg294 1.986 . S
O301 C305 1.246 . S
O302 Mg297 2.032 . S
O302 C305 1.259 . S
O303 Mg294 2.114 . S
O303 C306 1.252 . S
O304 Mg294 2.251 . S
O304 Mg297 2.079 . S
O304 C306 1.273 . S
C305 O301 1.246 . S
C305 O302 1.259 . S
C306 O303 1.252 . S
C306 O304 1.273 . S
O307 Mg294 2.010 . S
O307 C299 1.249 . S
Mg308 O309 2.028 . S
Mg308 O315 1.986 . S
Mg308 O317 2.114 . S
Mg308 O318 2.251 . S
Mg308 O321 2.010 . S
O309 Mg308 2.028 . S
O309 C312 1.250 . S
O310 Mg311 2.028 . S
O310 C312 1.248 . S
Mg311 O310 2.028 . S
Mg311 O316 2.032 . S
Mg311 O318 2.079 . S
C312 O309 1.250 . S
C312 O310 1.248 . S
C313 O314 1.264 . S
C313 O321 1.249 . S
O314 C313 1.264 . S
O315 Mg308 1.986 . S
O315 C319 1.246 . S
O316 Mg311 2.032 . S
O316 C319 1.259 . S
O317 Mg308 2.114 . S
O317 C320 1.252 . S
O318 Mg308 2.251 . S
O318 Mg311 2.079 . S
O318 C320 1.273 . S
C319 O315 1.246 . S
C319 O316 1.259 . S
C320 O317 1.252 . S
C320 O318 1.273 . S
O321 Mg308 2.010 . S
O321 C313 1.249 . S
Mg322 O323 2.028 . S
Mg322 O329 1.986 . S
Mg322 O331 2.114 . S
Mg322 O332 2.251 . S
Mg322 O335 2.010 . S
O323 Mg322 2.028 . S
O323 C326 1.250 . S
O324 Mg325 2.028 . S
O324 C326 1.248 . S
Mg325 O324 2.028 . S
Mg325 O330 2.032 . S
Mg325 O332 2.079 . S
C326 O323 1.250 . S
C326 O324 1.248 . S
C327 O328 1.264 . S
C327 O335 1.249 . S
O328 C327 1.264 . S
O329 Mg322 1.986 . S
O329 C333 1.246 . S
O330 Mg325 2.032 . S
O330 C333 1.259 . S
O331 Mg322 2.114 . S
O331 C334 1.252 . S
O332 Mg322 2.251 . S
O332 Mg325 2.079 . S
O332 C334 1.273 . S
C333 O329 1.246 . S
C333 O330 1.259 . S
C334 O331 1.252 . S
C334 O332 1.273 . S
O335 Mg322 2.010 . S
O335 C327 1.249 . S
Mg336 O337 2.028 . S
Mg336 O343 1.986 . S
Mg336 O345 2.114 . S
Mg336 O346 2.251 . S
Mg336 O349 2.010 . S
O337 Mg336 2.028 . S
O337 C340 1.250 . S
O338 Mg339 2.028 . S
O338 C340 1.248 . S
Mg339 O338 2.028 . S
Mg339 O344 2.032 . S
Mg339 O346 2.079 . S
C340 O337 1.250 . S
C340 O338 1.248 . S
C341 O342 1.264 . S
C341 O349 1.249 . S
O342 C341 1.264 . S
O343 Mg336 1.986 . S
O343 C347 1.246 . S
O344 Mg339 2.032 . S
O344 C347 1.259 . S
O345 Mg336 2.114 . S
O345 C348 1.252 . S
O346 Mg336 2.251 . S
O346 Mg339 2.079 . S
O346 C348 1.273 . S
C347 O343 1.246 . S
C347 O344 1.259 . S
C348 O345 1.252 . S
C348 O346 1.273 . S
O349 Mg336 2.010 . S
O349 C341 1.249 . S
Mg350 O351 2.028 . S
Mg350 O357 1.986 . S
Mg350 O359 2.114 . S
Mg350 O360 2.251 . S
Mg350 O363 2.010 . S
O351 Mg350 2.028 . S
O351 C354 1.250 . S
O352 Mg353 2.028 . S
O352 C354 1.248 . S
Mg353 O352 2.028 . S
Mg353 O358 2.032 . S
Mg353 O360 2.079 . S
C354 O351 1.250 . S
C354 O352 1.248 . S
C355 O356 1.264 . S
C355 O363 1.249 . S
O356 C355 1.264 . S
O357 Mg350 1.986 . S
O357 C361 1.246 . S
O358 Mg353 2.032 . S
O358 C361 1.259 . S
O359 Mg350 2.114 . S
O359 C362 1.252 . S
O360 Mg350 2.251 . S
O360 Mg353 2.079 . S
O360 C362 1.273 . S
C361 O357 1.246 . S
C361 O358 1.259 . S
C362 O359 1.252 . S
C362 O360 1.273 . S
O363 Mg350 2.010 . S
O363 C355 1.249 . S
Mg364 O365 2.028 . S
Mg364 O371 1.986 . S
Mg364 O373 2.114 . S
Mg364 O374 2.251 . S
Mg364 O377 2.010 . S
O365 Mg364 2.028 . S
O365 C368 1.250 . S
O366 Mg367 2.028 . S
O366 C368 1.248 . S
Mg367 O366 2.028 . S
Mg367 O372 2.032 . S
Mg367 O374 2.079 . S
C368 O365 1.250 . S
C368 O366 1.248 . S
C369 O370 1.264 . S
C369 O377 1.249 . S
O370 C369 1.264 . S
O371 Mg364 1.986 . S
O371 C375 1.246 . S
O372 Mg367 2.032 . S
O372 C375 1.259 . S
O373 Mg364 2.114 . S
O373 C376 1.252 . S
O374 Mg364 2.251 . S
O374 Mg367 2.079 . S
O374 C376 1.273 . S
C375 O371 1.246 . S
C375 O372 1.259 . S
C376 O373 1.252 . S
C376 O374 1.273 . S
O377 Mg364 2.010 . S
O377 C369 1.249 . S
Mg378 O379 2.028 . S
Mg378 O385 1.986 . S
Mg378 O387 2.114 . S
Mg378 O388 2.251 . S
Mg378 O391 2.010 . S
O379 Mg378 2.028 . S
O379 C382 1.250 . S
O380 Mg381 2.028 . S
O380 C382 1.248 . S
Mg381 O380 2.028 . S
Mg381 O386 2.032 . S
Mg381 O388 2.079 . S
C382 O379 1.250 . S
C382 O380 1.248 . S
C383 O384 1.264 . S
C383 O391 1.249 . S
O384 C383 1.264 . S
O385 Mg378 1.986 . S
O385 C389 1.246 . S
O386 Mg381 2.032 . S
O386 C389 1.259 . S
O387 Mg378 2.114 . S
O387 C390 1.252 . S
O388 Mg378 2.251 . S
O388 Mg381 2.079 . S
O388 C390 1.273 . S
C389 O385 1.246 . S
C389 O386 1.259 . S
C390 O387 1.252 . S
C390 O388 1.273 . S
O391 Mg378 2.010 . S
O391 C383 1.249 . S
Mg392 O393 2.028 . S
Mg392 O399 1.986 . S
Mg392 O401 2.114 . S
Mg392 O402 2.251 . S
Mg392 O405 2.010 . S
O393 Mg392 2.028 . S
O393 C396 1.250 . S
O394 Mg395 2.028 . S
O394 C396 1.248 . S
Mg395 O394 2.028 . S
Mg395 O400 2.032 . S
Mg395 O402 2.079 . S
C396 O393 1.250 . S
C396 O394 1.248 . S
C397 O398 1.264 . S
C397 O405 1.249 . S
O398 C397 1.264 . S
O399 Mg392 1.986 . S
O399 C403 1.246 . S
O400 Mg395 2.032 . S
O400 C403 1.259 . S
O401 Mg392 2.114 . S
O401 C404 1.252 . S
O402 Mg392 2.251 . S
O402 Mg395 2.079 . S
O402 C404 1.273 . S
C403 O399 1.246 . S
C403 O400 1.259 . S
C404 O401 1.252 . S
C404 O402 1.273 . S
O405 Mg392 2.010 . S
O405 C397 1.249 . S
Mg406 O407 2.028 . S
Mg406 O413 1.986 . S
Mg406 O415 2.114 . S
Mg406 O416 2.251 . S
Mg406 O419 2.010 . S
O407 Mg406 2.028 . S
O407 C410 1.250 . S
O408 Mg409 2.028 . S
O408 C410 1.248 . S
Mg409 O408 2.028 . S
Mg409 O414 2.032 . S
Mg409 O416 2.079 . S
C410 O407 1.250 . S
C410 O408 1.248 . S
C411 O412 1.264 . S
C411 O419 1.249 . S
O412 C411 1.264 . S
O413 Mg406 1.986 . S
O413 C417 1.246 . S
O414 Mg409 2.032 . S
O414 C417 1.259 . S
O415 Mg406 2.114 . S
O415 C418 1.252 . S
O416 Mg406 2.251 . S
O416 Mg409 2.079 . S
O416 C418 1.273 . S
C417 O413 1.246 . S
C417 O414 1.259 . S
C418 O415 1.252 . S
C418 O416 1.273 . S
O419 Mg406 2.010 . S
O419 C411 1.249 . S
Mg420 O421 2.028 . S
Mg420 O427 1.986 . S
Mg420 O429 2.114 . S
Mg420 O430 2.251 . S
Mg420 O433 2.010 . S
O421 Mg420 2.028 . S
O421 C424 1.250 . S
O422 Mg423 2.028 . S
O422 C424 1.248 . S
Mg423 O422 2.028 . S
Mg423 O428 2.032 . S
Mg423 O430 2.079 . S
C424 O421 1.250 . S
C424 O422 1.248 . S
C425 O426 1.264 . S
C425 O433 1.249 . S
O426 C425 1.264 . S
O427 Mg420 1.986 . S
O427 C431 1.246 . S
O428 Mg423 2.032 . S
O428 C431 1.259 . S
O429 Mg420 2.114 . S
O429 C432 1.252 . S
O430 Mg420 2.251 . S
O430 Mg423 2.079 . S
O430 C432 1.273 . S
C431 O427 1.246 . S
C431 O428 1.259 . S
C432 O429 1.252 . S
C432 O430 1.273 . S
O433 Mg420 2.010 . S
O433 C425 1.249 . S
Mg434 O435 2.028 . S
Mg434 O441 1.986 . S
Mg434 O443 2.114 . S
Mg434 O444 2.251 . S
Mg434 O447 2.010 . S
O435 Mg434 2.028 . S
O435 C438 1.250 . S
O436 Mg437 2.028 . S
O436 C438 1.248 . S
Mg437 O436 2.028 . S
Mg437 O442 2.032 . S
Mg437 O444 2.079 . S
C438 O435 1.250 . S
C438 O436 1.248 . S
C439 O440 1.264 . S
C439 O447 1.249 . S
O440 C439 1.264 . S
O441 Mg434 1.986 . S
O441 C445 1.246 . S
O442 Mg437 2.032 . S
O442 C445 1.259 . S
O443 Mg434 2.114 . S
O443 C446 1.252 . S
O444 Mg434 2.251 . S
O444 Mg437 2.079 . S
O444 C446 1.273 . S
C445 O441 1.246 . S
C445 O442 1.259 . S
C446 O443 1.252 . S
C446 O444 1.273 . S
O447 Mg434 2.010 . S
O447 C439 1.249 . S
Mg448 O449 2.028 . S
Mg448 O455 1.986 . S
Mg448 O457 2.114 . S
Mg448 O458 2.251 . S
Mg448 O461 2.010 . S
O449 Mg448 2.028 . S
O449 C452 1.250 . S
O450 Mg451 2.028 . S
O450 C452 1.248 . S
Mg451 O450 2.028 . S
Mg451 O456 2.032 . S
Mg451 O458 2.079 . S
C452 O449 1.250 . S
C452 O450 1.248 . S
C453 O454 1.264 . S
C453 O461 1.249 . S
O454 C453 1.264 . S
O455 Mg448 1.986 . S
O455 C459 1.246 . S
O456 Mg451 2.032 . S
O456 C459 1.259 . S
O457 Mg448 2.114 . S
O457 C460 1.252 . S
O458 Mg448 2.251 . S
O458 Mg451 2.079 . S
O458 C460 1.273 . S
C459 O455 1.246 . S
C459 O456 1.259 . S
C460 O457 1.252 . S
C460 O458 1.273 . S
O461 Mg448 2.010 . S
O461 C453 1.249 . S
Mg462 O463 2.028 . S
Mg462 O469 1.986 . S
Mg462 O471 2.114 . S
Mg462 O472 2.251 . S
Mg462 O475 2.010 . S
O463 Mg462 2.028 . S
O463 C466 1.250 . S
O464 Mg465 2.028 . S
O464 C466 1.248 . S
Mg465 O464 2.028 . S
Mg465 O470 2.032 . S
Mg465 O472 2.079 . S
C466 O463 1.250 . S
C466 O464 1.248 . S
C467 O468 1.264 . S
C467 O475 1.249 . S
O468 C467 1.264 . S
O469 Mg462 1.986 . S
O469 C473 1.246 . S
O470 Mg465 2.032 . S
O470 C473 1.259 . S
O471 Mg462 2.114 . S
O471 C474 1.252 . S
O472 Mg462 2.251 . S
O472 Mg465 2.079 . S
O472 C474 1.273 . S
C473 O469 1.246 . S
C473 O470 1.259 . S
C474 O471 1.252 . S
C474 O472 1.273 . S
O475 Mg462 2.010 . S
O475 C467 1.249 . S
Mg476 O477 2.028 . S
Mg476 O483 1.986 . S
Mg476 O485 2.114 . S
Mg476 O486 2.251 . S
Mg476 O489 2.010 . S
O477 Mg476 2.028 . S
O477 C480 1.250 . S
O478 Mg479 2.028 . S
O478 C480 1.248 . S
Mg479 O478 2.028 . S
Mg479 O484 2.032 . S
Mg479 O486 2.079 . S
C480 O477 1.250 . S
C480 O478 1.248 . S
C481 O482 1.264 . S
C481 O489 1.249 . S
O482 C481 1.264 . S
O483 Mg476 1.986 . S
O483 C487 1.246 . S
O484 Mg479 2.032 . S
O484 C487 1.259 . S
O485 Mg476 2.114 . S
O485 C488 1.252 . S
O486 Mg476 2.251 . S
O486 Mg479 2.079 . S
O486 C488 1.273 . S
C487 O483 1.246 . S
C487 O484 1.259 . S
C488 O485 1.252 . S
C488 O486 1.273 . S
O489 Mg476 2.010 . S
O489 C481 1.249 . S
Mg490 O491 2.028 . S
Mg490 O497 1.986 . S
Mg490 O499 2.114 . S
Mg490 O500 2.251 . S
Mg490 O503 2.010 . S
O491 Mg490 2.028 . S
O491 C494 1.250 . S
O492 Mg493 2.028 . S
O492 C494 1.248 . S
Mg493 O492 2.028 . S
Mg493 O498 2.032 . S
Mg493 O500 2.079 . S
C494 O491 1.250 . S
C494 O492 1.248 . S
C495 O496 1.264 . S
C495 O503 1.249 . S
O496 C495 1.264 . S
O497 Mg490 1.986 . S
O497 C501 1.246 . S
O498 Mg493 2.032 . S
O498 C501 1.259 . S
O499 Mg490 2.114 . S
O499 C502 1.252 . S
O500 Mg490 2.251 . S
O500 Mg493 2.079 . S
O500 C502 1.273 . S
C501 O497 1.246 . S
C501 O498 1.259 . S
C502 O499 1.252 . S
C502 O500 1.273 . S
O503 Mg490 2.010 . S
O503 C495 1.249 . S
H504 C512 0.950 . S
H505 C517 0.950 . S
H506 C514 0.950 . S
H507 C516 0.950 . S
H508 C518 0.950 . S
H509 C520 0.950 . S
H510 C522 0.950 . S
H511 C523 0.950 . S
C512 H504 0.950 . S
C512 C513 1.386 . S
C512 C514 1.391 . S
C513 C512 1.386 . S
C513 C517 1.393 . S
C514 H506 0.950 . S
C514 C512 1.391 . S
C514 C515 1.400 . S
C515 C514 1.400 . S
C515 C516 1.398 . S
C515 C521 1.491 . S
C516 H507 0.950 . S
C516 C515 1.398 . S
C516 C517 1.391 . S
C517 H505 0.950 . S
C517 C513 1.393 . S
C517 C516 1.391 . S
C518 H508 0.950 . S
C518 C519 1.386 . S
C518 C520 1.391 . S
C519 C518 1.386 . S
C519 C523 1.393 . S
C520 H509 0.950 . S
C520 C518 1.391 . S
C520 C521 1.400 . S
C521 C515 1.491 . S
C521 C520 1.400 . S
C521 C522 1.398 . S
C522 H510 0.950 . S
C522 C521 1.398 . S
C522 C523 1.391 . S
C523 H511 0.950 . S
C523 C519 1.393 . S
C523 C522 1.391 . S
H524 C532 0.950 . S
H525 C537 0.950 . S
H526 C534 0.950 . S
H527 C536 0.950 . S
H528 C538 0.950 . S
H529 C540 0.950 . S
H530 C542 0.950 . S
H531 C543 0.950 . S
C532 H524 0.950 . S
C532 C533 1.386 . S
C532 C534 1.391 . S
C533 C532 1.386 . S
C533 C537 1.393 . S
C534 H526 0.950 . S
C534 C532 1.391 . S
C534 C535 1.400 . S
C535 C534 1.400 . S
C535 C536 1.398 . S
C535 C541 1.491 . S
C536 H527 0.950 . S
C536 C535 1.398 . S
C536 C537 1.391 . S
C537 H525 0.950 . S
C537 C533 1.393 . S
C537 C536 1.391 . S
C538 H528 0.950 . S
C538 C539 1.386 . S
C538 C540 1.391 . S
C539 C538 1.386 . S
C539 C543 1.393 . S
C540 H529 0.950 . S
C540 C538 1.391 . S
C540 C541 1.400 . S
C541 C535 1.491 . S
C541 C540 1.400 . S
C541 C542 1.398 . S
C542 H530 0.950 . S
C542 C541 1.398 . S
C542 C543 1.391 . S
C543 H531 0.950 . S
C543 C539 1.393 . S
C543 C542 1.391 . S
H544 C552 0.950 . S
H545 C557 0.950 . S
H546 C554 0.950 . S
H547 C556 0.950 . S
H548 C558 0.950 . S
H549 C560 0.950 . S
H550 C562 0.950 . S
H551 C563 0.950 . S
C552 H544 0.950 . S
C552 C553 1.386 . S
C552 C554 1.391 . S
C553 C552 1.386 . S
C553 C557 1.393 . S
C554 H546 0.950 . S
C554 C552 1.391 . S
C554 C555 1.400 . S
C555 C554 1.400 . S
C555 C556 1.398 . S
C555 C561 1.491 . S
C556 H547 0.950 . S
C556 C555 1.398 . S
C556 C557 1.391 . S
C557 H545 0.950 . S
C557 C553 1.393 . S
C557 C556 1.391 . S
C558 H548 0.950 . S
C558 C559 1.386 . S
C558 C560 1.391 . S
C559 C558 1.386 . S
C559 C563 1.393 . S
C560 H549 0.950 . S
C560 C558 1.391 . S
C560 C561 1.400 . S
C561 C555 1.491 . S
C561 C560 1.400 . S
C561 C562 1.398 . S
C562 H550 0.950 . S
C562 C561 1.398 . S
C562 C563 1.391 . S
C563 H551 0.950 . S
C563 C559 1.393 . S
C563 C562 1.391 . S
H564 C572 0.950 . S
H565 C577 0.950 . S
H566 C574 0.950 . S
H567 C576 0.950 . S
H568 C578 0.950 . S
H569 C580 0.950 . S
H570 C582 0.950 . S
H571 C583 0.950 . S
C572 H564 0.950 . S
C572 C573 1.386 . S
C572 C574 1.391 . S
C573 C572 1.386 . S
C573 C577 1.393 . S
C574 H566 0.950 . S
C574 C572 1.391 . S
C574 C575 1.400 . S
C575 C574 1.400 . S
C575 C576 1.398 . S
C575 C581 1.491 . S
C576 H567 0.950 . S
C576 C575 1.398 . S
C576 C577 1.391 . S
C577 H565 0.950 . S
C577 C573 1.393 . S
C577 C576 1.391 . S
C578 H568 0.950 . S
C578 C579 1.386 . S
C578 C580 1.391 . S
C579 C578 1.386 . S
C579 C583 1.393 . S
C580 H569 0.950 . S
C580 C578 1.391 . S
C580 C581 1.400 . S
C581 C575 1.491 . S
C581 C580 1.400 . S
C581 C582 1.398 . S
C582 H570 0.950 . S
C582 C581 1.398 . S
C582 C583 1.391 . S
C583 H571 0.950 . S
C583 C579 1.393 . S
C583 C582 1.391 . S
H584 C592 0.950 . S
H585 C597 0.950 . S
H586 C594 0.950 . S
H587 C596 0.950 . S
H588 C598 0.950 . S
H589 C600 0.950 . S
H590 C602 0.950 . S
H591 C603 0.950 . S
C592 H584 0.950 . S
C592 C593 1.386 . S
C592 C594 1.391 . S
C593 C592 1.386 . S
C593 C597 1.393 . S
C594 H586 0.950 . S
C594 C592 1.391 . S
C594 C595 1.400 . S
C595 C594 1.400 . S
C595 C596 1.398 . S
C595 C601 1.491 . S
C596 H587 0.950 . S
C596 C595 1.398 . S
C596 C597 1.391 . S
C597 H585 0.950 . S
C597 C593 1.393 . S
C597 C596 1.391 . S
C598 H588 0.950 . S
C598 C599 1.386 . S
C598 C600 1.391 . S
C599 C598 1.386 . S
C599 C603 1.393 . S
C600 H589 0.950 . S
C600 C598 1.391 . S
C600 C601 1.400 . S
C601 C595 1.491 . S
C601 C600 1.400 . S
C601 C602 1.398 . S
C602 H590 0.950 . S
C602 C601 1.398 . S
C602 C603 1.391 . S
C603 H591 0.950 . S
C603 C599 1.393 . S
C603 C602 1.391 . S
H604 C612 0.950 . S
H605 C617 0.950 . S
H606 C614 0.950 . S
H607 C616 0.950 . S
H608 C618 0.950 . S
H609 C620 0.950 . S
H610 C622 0.950 . S
H611 C623 0.950 . S
C612 H604 0.950 . S
C612 C613 1.386 . S
C612 C614 1.391 . S
C613 C612 1.386 . S
C613 C617 1.393 . S
C614 H606 0.950 . S
C614 C612 1.391 . S
C614 C615 1.400 . S
C615 C614 1.400 . S
C615 C616 1.398 . S
C615 C621 1.491 . S
C616 H607 0.950 . S
C616 C615 1.398 . S
C616 C617 1.391 . S
C617 H605 0.950 . S
C617 C613 1.393 . S
C617 C616 1.391 . S
C618 H608 0.950 . S
C618 C619 1.386 . S
C618 C620 1.391 . S
C619 C618 1.386 . S
C619 C623 1.393 . S
C620 H609 0.950 . S
C620 C618 1.391 . S
C620 C621 1.400 . S
C621 C615 1.491 . S
C621 C620 1.400 . S
C621 C622 1.398 . S
C622 H610 0.950 . S
C622 C621 1.398 . S
C622 C623 1.391 . S
C623 H611 0.950 . S
C623 C619 1.393 . S
C623 C622 1.391 . S
H624 C632 0.950 . S
H625 C637 0.950 . S
H626 C634 0.950 . S
H627 C636 0.950 . S
H628 C638 0.950 . S
H629 C640 0.950 . S
H630 C642 0.950 . S
H631 C643 0.950 . S
C632 H624 0.950 . S
C632 C633 1.386 . S
C632 C634 1.391 . S
C633 C632 1.386 . S
C633 C637 1.393 . S
C634 H626 0.950 . S
C634 C632 1.391 . S
C634 C635 1.400 . S
C635 C634 1.400 . S
C635 C636 1.398 . S
C635 C641 1.491 . S
C636 H627 0.950 . S
C636 C635 1.398 . S
C636 C637 1.391 . S
C637 H625 0.950 . S
C637 C633 1.393 . S
C637 C636 1.391 . S
C638 H628 0.950 . S
C638 C639 1.386 . S
C638 C640 1.391 . S
C639 C638 1.386 . S
C639 C643 1.393 . S
C640 H629 0.950 . S
C640 C638 1.391 . S
C640 C641 1.400 . S
C641 C635 1.491 . S
C641 C640 1.400 . S
C641 C642 1.398 . S
C642 H630 0.950 . S
C642 C641 1.398 . S
C642 C643 1.391 . S
C643 H631 0.950 . S
C643 C639 1.393 . S
C643 C642 1.391 . S
H644 C652 0.950 . S
H645 C657 0.950 . S
H646 C654 0.950 . S
H647 C656 0.950 . S
H648 C658 0.950 . S
H649 C660 0.950 . S
H650 C662 0.950 . S
H651 C663 0.950 . S
C652 H644 0.950 . S
C652 C653 1.386 . S
C652 C654 1.391 . S
C653 C652 1.386 . S
C653 C657 1.393 . S
C654 H646 0.950 . S
C654 C652 1.391 . S
C654 C655 1.400 . S
C655 C654 1.400 . S
C655 C656 1.398 . S
C655 C661 1.491 . S
C656 H647 0.950 . S
C656 C655 1.398 . S
C656 C657 1.391 . S
C657 H645 0.950 . S
C657 C653 1.393 . S
C657 C656 1.391 . S
C658 H648 0.950 . S
C658 C659 1.386 . S
C658 C660 1.391 . S
C659 C658 1.386 . S
C659 C663 1.393 . S
C660 H649 0.950 . S
C660 C658 1.391 . S
C660 C661 1.400 . S
C661 C655 1.491 . S
C661 C660 1.400 . S
C661 C662 1.398 . S
C662 H650 0.950 . S
C662 C661 1.398 . S
C662 C663 1.391 . S
C663 H651 0.950 . S
C663 C659 1.393 . S
C663 C662 1.391 . S
H664 C672 0.950 . S
H665 C677 0.950 . S
H666 C674 0.950 . S
H667 C676 0.950 . S
H668 C678 0.950 . S
H669 C680 0.950 . S
H670 C682 0.950 . S
H671 C683 0.950 . S
C672 H664 0.950 . S
C672 C673 1.386 . S
C672 C674 1.391 . S
C673 C672 1.386 . S
C673 C677 1.393 . S
C674 H666 0.950 . S
C674 C672 1.391 . S
C674 C675 1.400 . S
C675 C674 1.400 . S
C675 C676 1.398 . S
C675 C681 1.491 . S
C676 H667 0.950 . S
C676 C675 1.398 . S
C676 C677 1.391 . S
C677 H665 0.950 . S
C677 C673 1.393 . S
C677 C676 1.391 . S
C678 H668 0.950 . S
C678 C679 1.386 . S
C678 C680 1.391 . S
C679 C678 1.386 . S
C679 C683 1.393 . S
C680 H669 0.950 . S
C680 C678 1.391 . S
C680 C681 1.400 . S
C681 C675 1.491 . S
C681 C680 1.400 . S
C681 C682 1.398 . S
C682 H670 0.950 . S
C682 C681 1.398 . S
C682 C683 1.391 . S
C683 H671 0.950 . S
C683 C679 1.393 . S
C683 C682 1.391 . S
H684 C692 0.950 . S
H685 C697 0.950 . S
H686 C694 0.950 . S
H687 C696 0.950 . S
H688 C698 0.950 . S
H689 C700 0.950 . S
H690 C702 0.950 . S
H691 C703 0.950 . S
C692 H684 0.950 . S
C692 C693 1.386 . S
C692 C694 1.391 . S
C693 C692 1.386 . S
C693 C697 1.393 . S
C694 H686 0.950 . S
C694 C692 1.391 . S
C694 C695 1.400 . S
C695 C694 1.400 . S
C695 C696 1.398 . S
C695 C701 1.491 . S
C696 H687 0.950 . S
C696 C695 1.398 . S
C696 C697 1.391 . S
C697 H685 0.950 . S
C697 C693 1.393 . S
C697 C696 1.391 . S
C698 H688 0.950 . S
C698 C699 1.386 . S
C698 C700 1.391 . S
C699 C698 1.386 . S
C699 C703 1.393 . S
C700 H689 0.950 . S
C700 C698 1.391 . S
C700 C701 1.400 . S
C701 C695 1.491 . S
C701 C700 1.400 . S
C701 C702 1.398 . S
C702 H690 0.950 . S
C702 C701 1.398 . S
C702 C703 1.391 . S
C703 H691 0.950 . S
C703 C699 1.393 . S
C703 C702 1.391 . S
H704 C712 0.950 . S
H705 C717 0.950 . S
H706 C714 0.950 . S
H707 C716 0.950 . S
H708 C718 0.950 . S
H709 C720 0.950 . S
H710 C722 0.950 . S
H711 C723 0.950 . S
C712 H704 0.950 . S
C712 C713 1.386 . S
C712 C714 1.391 . S
C713 C712 1.386 . S
C713 C717 1.393 . S
C714 H706 0.950 . S
C714 C712 1.391 . S
C714 C715 1.400 . S
C715 C714 1.400 . S
C715 C716 1.398 . S
C715 C721 1.491 . S
C716 H707 0.950 . S
C716 C715 1.398 . S
C716 C717 1.391 . S
C717 H705 0.950 . S
C717 C713 1.393 . S
C717 C716 1.391 . S
C718 H708 0.950 . S
C718 C719 1.386 . S
C718 C720 1.391 . S
C719 C718 1.386 . S
C719 C723 1.393 . S
C720 H709 0.950 . S
C720 C718 1.391 . S
C720 C721 1.400 . S
C721 C715 1.491 . S
C721 C720 1.400 . S
C721 C722 1.398 . S
C722 H710 0.950 . S
C722 C721 1.398 . S
C722 C723 1.391 . S
C723 H711 0.950 . S
C723 C719 1.393 . S
C723 C722 1.391 . S
H724 C732 0.950 . S
H725 C737 0.950 . S
H726 C734 0.950 . S
H727 C736 0.950 . S
H728 C738 0.950 . S
H729 C740 0.950 . S
H730 C742 0.950 . S
H731 C743 0.950 . S
C732 H724 0.950 . S
C732 C733 1.386 . S
C732 C734 1.391 . S
C733 C732 1.386 . S
C733 C737 1.393 . S
C734 H726 0.950 . S
C734 C732 1.391 . S
C734 C735 1.400 . S
C735 C734 1.400 . S
C735 C736 1.398 . S
C735 C741 1.491 . S
C736 H727 0.950 . S
C736 C735 1.398 . S
C736 C737 1.391 . S
C737 H725 0.950 . S
C737 C733 1.393 . S
C737 C736 1.391 . S
C738 H728 0.950 . S
C738 C739 1.386 . S
C738 C740 1.391 . S
C739 C738 1.386 . S
C739 C743 1.393 . S
C740 H729 0.950 . S
C740 C738 1.391 . S
C740 C741 1.400 . S
C741 C735 1.491 . S
C741 C740 1.400 . S
C741 C742 1.398 . S
C742 H730 0.950 . S
C742 C741 1.398 . S
C742 C743 1.391 . S
C743 H731 0.950 . S
C743 C739 1.393 . S
C743 C742 1.391 . S
H744 C752 0.950 . S
H745 C757 0.950 1_655 S
H746 C754 0.950 . S
H747 C756 0.950 . S
H748 C758 0.950 . S
H749 C760 0.950 . S
H750 C762 0.950 . S
H751 C763 0.950 1_455 S
C752 H744 0.950 . S
C752 C753 1.386 . S
C752 C754 1.391 . S
C753 C752 1.386 . S
C753 C757 1.393 . S
C754 H746 0.950 . S
C754 C752 1.391 . S
C754 C755 1.400 . S
C755 C754 1.400 . S
C755 C756 1.398 1_455 S
C755 C761 1.491 1_455 S
C756 H747 0.950 . S
C756 C755 1.398 1_655 S
C756 C757 1.391 1_655 S
C757 H745 0.950 1_455 S
C757 C753 1.393 . S
C757 C756 1.391 1_455 S
C758 H748 0.950 . S
C758 C759 1.386 . S
C758 C760 1.391 . S
C759 C758 1.386 . S
C759 C763 1.393 . S
C760 H749 0.950 . S
C760 C758 1.391 . S
C760 C761 1.400 . S
C761 C755 1.491 1_655 S
C761 C760 1.400 . S
C761 C762 1.398 1_655 S
C762 H750 0.950 . S
C762 C761 1.398 1_455 S
C762 C763 1.391 1_455 S
C763 H751 0.950 1_655 S
C763 C759 1.393 . S
C763 C762 1.391 1_655 S
H764 C772 0.950 . S
H765 C777 0.950 . S
H766 C774 0.950 . S
H767 C776 0.950 . S
H768 C778 0.950 . S
H769 C780 0.950 . S
H770 C782 0.950 . S
H771 C783 0.950 . S
C772 H764 0.950 . S
C772 C773 1.386 . S
C772 C774 1.391 . S
C773 C772 1.386 . S
C773 C777 1.393 . S
C774 H766 0.950 . S
C774 C772 1.391 . S
C774 C775 1.400 . S
C775 C774 1.400 . S
C775 C776 1.398 . S
C775 C781 1.491 . S
C776 H767 0.950 . S
C776 C775 1.398 . S
C776 C777 1.391 . S
C777 H765 0.950 . S
C777 C773 1.393 . S
C777 C776 1.391 . S
C778 H768 0.950 . S
C778 C779 1.386 . S
C778 C780 1.391 . S
C779 C778 1.386 . S
C779 C783 1.393 . S
C780 H769 0.950 . S
C780 C778 1.391 . S
C780 C781 1.400 . S
C781 C775 1.491 . S
C781 C780 1.400 . S
C781 C782 1.398 . S
C782 H770 0.950 . S
C782 C781 1.398 . S
C782 C783 1.391 . S
C783 H771 0.950 . S
C783 C779 1.393 . S
C783 C782 1.391 . S
H784 C792 0.950 . S
H785 C797 0.950 . S
H786 C794 0.950 1_565 S
H787 C796 0.950 . S
H788 C798 0.950 . S
H789 C800 0.950 1_545 S
H790 C802 0.950 . S
H791 C803 0.950 . S
C792 H784 0.950 . S
C792 C793 1.386 . S
C792 C794 1.391 . S
C793 C792 1.386 . S
C793 C797 1.393 . S
C794 H786 0.950 1_545 S
C794 C792 1.391 . S
C794 C795 1.400 . S
C795 C794 1.400 . S
C795 C796 1.398 . S
C795 C801 1.491 1_545 S
C796 H787 0.950 . S
C796 C795 1.398 . S
C796 C797 1.391 . S
C797 H785 0.950 . S
C797 C793 1.393 . S
C797 C796 1.391 . S
C798 H788 0.950 . S
C798 C799 1.386 . S
C798 C800 1.391 . S
C799 C798 1.386 . S
C799 C803 1.393 . S
C800 H789 0.950 1_565 S
C800 C798 1.391 . S
C800 C801 1.400 . S
C801 C795 1.491 1_565 S
C801 C800 1.400 . S
C801 C802 1.398 . S
C802 H790 0.950 . S
C802 C801 1.398 . S
C802 C803 1.391 . S
C803 H791 0.950 . S
C803 C799 1.393 . S
C803 C802 1.391 . S
H804 C812 0.950 . S
H805 C817 0.950 1_545 S
H806 C814 0.934 1_556 S
H807 C816 0.950 . S
H808 C818 0.950 . S
H809 C820 0.934 1_554 S
H810 C822 0.950 . S
H811 C823 0.950 1_565 S
C812 H804 0.950 . S
C812 C813 1.386 . S
C812 C814 1.391 . S
C813 C812 1.386 . S
C813 C817 1.393 . S
C814 H806 0.934 1_554 S
C814 C812 1.391 . S
C814 C815 1.400 . S
C815 C814 1.400 . S
C815 C816 1.398 1_565 S
C815 C821 1.491 1_564 S
C816 H807 0.950 . S
C816 C815 1.398 1_545 S
C816 C817 1.391 1_545 S
C817 H805 0.950 1_565 S
C817 C813 1.393 . S
C817 C816 1.391 1_565 S
C818 H808 0.950 . S
C818 C819 1.386 . S
C818 C820 1.391 . S
C819 C818 1.386 . S
C819 C823 1.393 . S
C820 H809 0.934 1_556 S
C820 C818 1.391 . S
C820 C821 1.400 . S
C821 C815 1.491 1_546 S
C821 C820 1.400 . S
C821 C822 1.398 1_545 S
C822 H810 0.950 . S
C822 C821 1.398 1_565 S
C822 C823 1.391 1_565 S
C823 H811 0.950 1_545 S
C823 C819 1.393 . S
C823 C822 1.391 1_545 S
H824 C832 0.950 1_455 S
H825 C837 0.950 . S
H826 C834 0.950 . S
H827 C836 0.990 . S
H828 C838 0.950 1_655 S
H829 C840 0.950 . S
H830 C842 0.990 . S
H831 C843 0.950 . S
C832 H824 0.950 1_655 S
C832 C833 1.386 . S
C832 C834 1.391 1_655 S
C833 C832 1.386 . S
C833 C837 1.393 . S
C834 H826 0.950 . S
C834 C832 1.391 1_455 S
C834 C835 1.400 1_455 S
C835 C834 1.400 1_655 S
C835 C836 1.398 . S
C835 C841 1.491 1_656 S
C836 H827 0.990 . S
C836 C835 1.398 . S
C836 C837 1.391 . S
C837 H825 0.950 . S
C837 C833 1.393 . S
C837 C836 1.391 . S
C838 H828 0.950 1_455 S
C838 C839 1.386 . S
C838 C840 1.391 1_455 S
C839 C838 1.386 . S
C839 C843 1.393 . S
C840 H829 0.950 . S
C840 C838 1.391 1_655 S
C840 C841 1.400 1_655 S
C841 C835 1.491 1_454 S
C841 C840 1.400 1_455 S
C841 C842 1.398 . S
C842 H830 0.990 . S
C842 C841 1.398 . S
C842 C843 1.391 . S
C843 H831 0.950 . S
C843 C839 1.393 . S
C843 C842 1.391 . S
H844 C852 0.950 . S
H845 C857 0.950 . S
H846 C854 0.950 . S
H847 C856 0.950 . S
H848 C858 0.950 . S
H849 C860 0.950 . S
H850 C862 0.950 . S
H851 C863 0.950 . S
C852 H844 0.950 . S
C852 C853 1.386 . S
C852 C854 1.391 . S
C853 C852 1.386 . S
C853 C857 1.393 . S
C854 H846 0.950 . S
C854 C852 1.391 . S
C854 C855 1.400 . S
C855 C854 1.400 . S
C855 C856 1.398 . S
C855 C861 1.491 1_556 S
C856 H847 0.950 . S
C856 C855 1.398 . S
C856 C857 1.391 . S
C857 H845 0.950 . S
C857 C853 1.393 . S
C857 C856 1.391 . S
C858 H848 0.950 . S
C858 C859 1.386 . S
C858 C860 1.391 . S
C859 C858 1.386 . S
C859 C863 1.393 . S
C860 H849 0.950 . S
C860 C858 1.391 . S
C860 C861 1.400 . S
C861 C855 1.491 1_554 S
C861 C860 1.400 . S
C861 C862 1.398 . S
C862 H850 0.950 . S
C862 C861 1.398 . S
C862 C863 1.391 . S
C863 H851 0.950 . S
C863 C859 1.393 . S
C863 C862 1.391 . S
H864 C872 0.950 . S
H865 C877 0.950 . S
H866 C874 0.950 . S
H867 C876 0.950 1_565 S
H868 C878 0.950 . S
H869 C880 0.950 . S
H870 C882 0.950 1_545 S
H871 C883 0.950 . S
C872 H864 0.950 . S
C872 C873 1.386 . S
C872 C874 1.391 . S
C873 C872 1.386 . S
C873 C877 1.393 . S
C874 H866 0.950 . S
C874 C872 1.391 . S
C874 C875 1.400 . S
C875 C874 1.400 . S
C875 C876 1.398 . S
C875 C881 1.491 1_545 S
C876 H867 0.950 1_545 S
C876 C875 1.398 . S
C876 C877 1.391 . S
C877 H865 0.950 . S
C877 C873 1.393 . S
C877 C876 1.391 . S
C878 H868 0.950 . S
C878 C879 1.386 . S
C878 C880 1.391 . S
C879 C878 1.386 . S
C879 C883 1.393 . S
C880 H869 0.950 . S
C880 C878 1.391 . S
C880 C881 1.400 . S
C881 C875 1.491 1_565 S
C881 C880 1.400 . S
C881 C882 1.398 . S
C882 H870 0.950 1_565 S
C882 C881 1.398 . S
C882 C883 1.391 . S
C883 H871 0.950 . S
C883 C879 1.393 . S
C883 C882 1.391 . S
H884 C892 0.950 . S
H885 C897 0.950 . S
H886 C894 0.950 . S
H887 C896 0.950 . S
H888 C898 0.950 . S
H889 C900 0.950 . S
H890 C902 0.950 . S
H891 C903 0.950 1_455 S
C892 H884 0.950 . S
C892 C893 1.386 . S
C892 C894 1.391 . S
C893 C892 1.386 . S
C893 C897 1.393 . S
C894 H886 0.950 . S
C894 C892 1.391 . S
C894 C895 1.400 . S
C895 C894 1.400 . S
C895 C896 1.398 1_455 S
C895 C901 1.491 1_455 S
C896 H887 0.950 . S
C896 C895 1.398 1_655 S
C896 C897 1.391 1_655 S
C897 H885 0.950 . S
C897 C893 1.393 . S
C897 C896 1.391 1_455 S
C898 H888 0.950 . S
C898 C899 1.386 . S
C898 C900 1.391 . S
C899 C898 1.386 . S
C899 C903 1.393 . S
C900 H889 0.950 . S
C900 C898 1.391 . S
C900 C901 1.400 . S
C901 C895 1.491 1_655 S
C901 C900 1.400 . S
C901 C902 1.398 1_655 S
C902 H890 0.950 . S
C902 C901 1.398 1_455 S
C902 C903 1.391 1_455 S
C903 H891 0.950 1_655 S
C903 C899 1.393 . S
C903 C902 1.391 1_655 S
H904 C912 0.950 . S
H905 C917 0.950 . S
H906 C914 0.950 . S
H907 C916 0.950 . S
H908 C918 0.950 . S
H909 C920 0.950 . S
H910 C922 0.950 . S
H911 C923 0.950 . S
C912 H904 0.950 . S
C912 C913 1.386 . S
C912 C914 1.391 . S
C913 C912 1.386 . S
C913 C917 1.393 . S
C914 H906 0.950 . S
C914 C912 1.391 . S
C914 C915 1.400 . S
C915 C914 1.400 . S
C915 C916 1.398 . S
C915 C921 1.491 . S
C916 H907 0.950 . S
C916 C915 1.398 . S
C916 C917 1.391 . S
C917 H905 0.950 . S
C917 C913 1.393 . S
C917 C916 1.391 . S
C918 H908 0.950 . S
C918 C919 1.386 . S
C918 C920 1.391 . S
C919 C918 1.386 . S
C919 C923 1.393 . S
C920 H909 0.950 . S
C920 C918 1.391 . S
C920 C921 1.400 . S
C921 C915 1.491 . S
C921 C920 1.400 . S
C921 C922 1.398 . S
C922 H910 0.950 . S
C922 C921 1.398 . S
C922 C923 1.391 . S
C923 H911 0.950 . S
C923 C919 1.393 . S
C923 C922 1.391 . S
H924 C932 0.950 . S
H925 C937 0.950 . S
H926 C934 0.946 1_455 S
H927 C936 0.950 . S
H928 C938 0.950 . S
H929 C940 0.950 . S
H930 C942 0.950 . S
H931 C943 0.950 . S
C932 H924 0.950 . S
C932 C933 1.386 . S
C932 C934 1.397 . S
C933 C932 1.386 . S
C933 C937 1.393 . S
C934 H926 0.946 1_655 S
C934 C932 1.397 . S
C934 C935 1.398 . S
C935 C934 1.398 . S
C935 C936 1.398 . S
C935 C941 1.491 1_655 S
C936 H927 0.950 . S
C936 C935 1.398 . S
C936 C937 1.391 . S
C937 H925 0.950 . S
C937 C933 1.393 . S
C937 C936 1.391 . S
C938 H928 0.950 . S
C938 C939 1.386 . S
C938 C940 1.391 1_455 S
C939 C938 1.386 . S
C939 C943 1.393 . S
C940 H929 0.950 . S
C940 C938 1.391 1_655 S
C940 C941 1.400 1_655 S
C941 C935 1.491 1_455 S
C941 C940 1.400 1_455 S
C941 C942 1.398 . S
C942 H930 0.950 . S
C942 C941 1.398 . S
C942 C943 1.391 . S
C943 H931 0.950 . S
C943 C939 1.393 . S
C943 C942 1.391 . S
H944 C952 0.950 . S
H945 C957 0.950 . S
H946 C954 0.950 . S
H947 C956 0.950 . S
H948 C958 0.950 . S
H949 C960 0.950 . S
H950 C962 0.950 . S
H951 C963 0.950 . S
C952 H944 0.950 . S
C952 C953 1.386 . S
C952 C954 1.391 . S
C953 C952 1.386 . S
C953 C957 1.393 . S
C954 H946 0.950 . S
C954 C952 1.391 . S
C954 C955 1.400 . S
C955 C954 1.400 . S
C955 C956 1.398 . S
C955 C961 1.491 . S
C956 H947 0.950 . S
C956 C955 1.398 . S
C956 C957 1.391 . S
C957 H945 0.950 . S
C957 C953 1.393 . S
C957 C956 1.391 . S
C958 H948 0.950 . S
C958 C959 1.386 . S
C958 C960 1.391 . S
C959 C958 1.386 . S
C959 C963 1.393 . S
C960 H949 0.950 . S
C960 C958 1.391 . S
C960 C961 1.400 . S
C961 C955 1.491 . S
C961 C960 1.400 . S
C961 C962 1.398 . S
C962 H950 0.950 . S
C962 C961 1.398 . S
C962 C963 1.391 . S
C963 H951 0.950 . S
C963 C959 1.393 . S
C963 C962 1.391 . S
H964 C972 0.950 1_565 S
H965 C977 0.950 . S
H966 C974 0.950 . S
H967 C976 0.950 . S
H968 C978 0.950 1_545 S
H969 C980 0.950 . S
H970 C982 0.950 . S
H971 C983 0.950 . S
C972 H964 0.950 1_545 S
C972 C973 1.386 . S
C972 C974 1.391 1_545 S
C973 C972 1.386 . S
C973 C977 1.393 . S
C974 H966 0.950 . S
C974 C972 1.391 1_565 S
C974 C975 1.400 1_565 S
C975 C974 1.400 1_545 S
C975 C976 1.398 . S
C975 C981 1.491 1_545 S
C976 H967 0.950 . S
C976 C975 1.398 . S
C976 C977 1.391 . S
C977 H965 0.950 . S
C977 C973 1.393 . S
C977 C976 1.391 . S
C978 H968 0.950 1_565 S
C978 C979 1.386 . S
C978 C980 1.391 1_565 S
C979 C978 1.386 . S
C979 C983 1.393 . S
C980 H969 0.950 . S
C980 C978 1.391 1_545 S
C980 C981 1.400 1_545 S
C981 C975 1.491 1_565 S
C981 C980 1.400 1_565 S
C981 C982 1.398 . S
C982 H970 0.950 . S
C982 C981 1.398 . S
C982 C983 1.391 . S
C983 H971 0.950 . S
C983 C979 1.393 . S
C983 C982 1.391 . S
H984 C992 0.950 . S
H985 C997 0.950 . S
H986 C994 0.950 . S
H987 C996 0.950 . S
H988 C998 0.950 . S
H989 C1000 0.950 1_565 S
H990 C1002 0.950 . S
H991 C1003 0.950 . S
C992 H984 0.950 . S
C992 C993 1.386 . S
C992 C994 1.391 1_565 S
C993 C992 1.386 . S
C993 C997 1.393 . S
C994 H986 0.950 . S
C994 C992 1.391 1_545 S
C994 C995 1.400 1_545 S
C995 C994 1.400 1_565 S
C995 C996 1.398 . S
C995 C1001 1.491 1_565 S
C996 H987 0.950 . S
C996 C995 1.398 . S
C996 C997 1.391 . S
C997 H985 0.950 . S
C997 C993 1.393 . S
C997 C996 1.391 . S
C998 H988 0.950 . S
C998 C999 1.386 . S
C998 C1000 1.391 . S
C999 C998 1.386 . S
C999 C1003 1.393 . S
C1000 H989 0.950 1_545 S
C1000 C998 1.391 . S
C1000 C1001 1.400 . S
C1001 C995 1.491 1_545 S
C1001 C1000 1.400 . S
C1001 C1002 1.398 . S
C1002 H990 0.950 . S
C1002 C1001 1.398 . S
C1002 C1003 1.391 . S
C1003 H991 0.950 . S
C1003 C999 1.393 . S
C1003 C1002 1.391 . S
H1004 C1012 0.950 . S
H1005 C1017 0.950 . S
H1006 C1014 0.950 . S
H1007 C1016 0.950 . S
H1008 C1018 0.950 . S
H1009 C1020 0.950 . S
H1010 C1022 0.950 . S
H1011 C1023 0.950 . S
C1012 H1004 0.950 . S
C1012 C1013 1.386 . S
C1012 C1014 1.391 . S
C1013 C1012 1.386 . S
C1013 C1017 1.393 . S
C1014 H1006 0.950 . S
C1014 C1012 1.391 . S
C1014 C1015 1.400 . S
C1015 C1014 1.400 . S
C1015 C1016 1.398 1_655 S
C1015 C1021 1.491 1_655 S
C1016 H1007 0.950 . S
C1016 C1015 1.398 1_455 S
C1016 C1017 1.391 1_455 S
C1017 H1005 0.950 . S
C1017 C1013 1.393 . S
C1017 C1016 1.391 1_655 S
C1018 H1008 0.950 . S
C1018 C1019 1.386 . S
C1018 C1020 1.391 . S
C1019 C1018 1.386 . S
C1019 C1023 1.393 . S
C1020 H1009 0.950 . S
C1020 C1018 1.391 . S
C1020 C1021 1.400 . S
C1021 C1015 1.491 1_455 S
C1021 C1020 1.400 . S
C1021 C1022 1.398 1_455 S
C1022 H1010 0.950 . S
C1022 C1021 1.398 1_655 S
C1022 C1023 1.391 1_655 S
C1023 H1011 0.950 . S
C1023 C1019 1.393 . S
C1023 C1022 1.391 1_455 S
H1024 C1032 0.950 . S
H1025 C1037 0.950 . S
H1026 C1034 0.950 . S
H1027 C1036 0.950 . S
H1028 C1038 0.950 . S
H1029 C1040 0.950 . S
H1030 C1042 0.950 . S
H1031 C1043 0.950 . S
C1032 H1024 0.950 . S
C1032 C1033 1.386 . S
C1032 C1034 1.391 . S
C1033 C1032 1.386 . S
C1033 C1037 1.393 . S
C1034 H1026 0.950 . S
C1034 C1032 1.391 . S
C1034 C1035 1.400 . S
C1035 C1034 1.400 . S
C1035 C1036 1.398 . S
C1035 C1041 1.491 . S
C1036 H1027 0.950 . S
C1036 C1035 1.398 . S
C1036 C1037 1.391 . S
C1037 H1025 0.950 . S
C1037 C1033 1.393 . S
C1037 C1036 1.391 . S
C1038 H1028 0.950 . S
C1038 C1039 1.386 . S
C1038 C1040 1.391 . S
C1039 C1038 1.386 . S
C1039 C1043 1.393 . S
C1040 H1029 0.950 . S
C1040 C1038 1.391 . S
C1040 C1041 1.400 . S
C1041 C1035 1.491 . S
C1041 C1040 1.400 . S
C1041 C1042 1.398 . S
C1042 H1030 0.950 . S
C1042 C1041 1.398 . S
C1042 C1043 1.391 . S
C1043 H1031 0.950 . S
C1043 C1039 1.393 . S
C1043 C1042 1.391 . S
H1044 C1052 0.950 1_455 S
H1045 C1057 0.950 . S
H1046 C1054 0.950 . S
H1047 C1056 0.950 . S
H1048 C1058 0.950 1_655 S
H1049 C1060 0.950 . S
H1050 C1062 0.950 . S
H1051 C1063 0.950 . S
C1052 H1044 0.950 1_655 S
C1052 C1053 1.386 . S
C1052 C1054 1.391 1_655 S
C1053 C1052 1.386 . S
C1053 C1057 1.393 . S
C1054 H1046 0.950 . S
C1054 C1052 1.391 1_455 S
C1054 C1055 1.400 1_455 S
C1055 C1054 1.400 1_655 S
C1055 C1056 1.398 . S
C1055 C1061 1.491 1_655 S
C1056 H1047 0.950 . S
C1056 C1055 1.398 . S
C1056 C1057 1.391 . S
C1057 H1045 0.950 . S
C1057 C1053 1.393 . S
C1057 C1056 1.391 . S
C1058 H1048 0.950 1_455 S
C1058 C1059 1.386 . S
C1058 C1060 1.391 1_455 S
C1059 C1058 1.386 . S
C1059 C1063 1.393 . S
C1060 H1049 0.950 . S
C1060 C1058 1.391 1_655 S
C1060 C1061 1.400 1_655 S
C1061 C1055 1.491 1_455 S
C1061 C1060 1.400 1_455 S
C1061 C1062 1.398 . S
C1062 H1050 0.950 . S
C1062 C1061 1.398 . S
C1062 C1063 1.391 . S
C1063 H1051 0.950 . S
C1063 C1059 1.393 . S
C1063 C1062 1.391 . S
H1064 C1072 0.950 . S
H1065 C1077 0.950 . S
H1066 C1074 0.950 . S
H1067 C1076 0.950 . S
H1068 C1078 0.950 . S
H1069 C1080 0.950 . S
H1070 C1082 0.950 . S
H1071 C1083 0.950 . S
C1072 H1064 0.950 . S
C1072 C1073 1.386 . S
C1072 C1074 1.391 . S
C1073 C1072 1.386 . S
C1073 C1077 1.393 . S
C1074 H1066 0.950 . S
C1074 C1072 1.391 . S
C1074 C1075 1.400 . S
C1075 C1074 1.400 . S
C1075 C1076 1.398 . S
C1075 C1081 1.491 . S
C1076 H1067 0.950 . S
C1076 C1075 1.398 . S
C1076 C1077 1.391 . S
C1077 H1065 0.950 . S
C1077 C1073 1.393 . S
C1077 C1076 1.391 . S
C1078 H1068 0.950 . S
C1078 C1079 1.386 . S
C1078 C1080 1.391 . S
C1079 C1078 1.386 . S
C1079 C1083 1.393 . S
C1080 H1069 0.950 . S
C1080 C1078 1.391 . S
C1080 C1081 1.400 . S
C1081 C1075 1.491 . S
C1081 C1080 1.400 . S
C1081 C1082 1.398 . S
C1082 H1070 0.950 . S
C1082 C1081 1.398 . S
C1082 C1083 1.391 . S
C1083 H1071 0.950 . S
C1083 C1079 1.393 . S
C1083 C1082 1.391 . S
H1084 C1092 0.950 . S
H1085 C1097 0.950 . S
H1086 C1094 0.937 1_565 S
H1087 C1096 0.950 . S
H1088 C1098 0.950 . S
H1089 C1100 0.950 1_545 S
H1090 C1102 0.950 . S
H1091 C1103 0.950 . S
C1092 H1084 0.950 . S
C1092 C1093 1.386 . S
C1092 C1094 1.391 . S
C1093 C1092 1.386 . S
C1093 C1097 1.393 . S
C1094 H1086 0.937 1_545 S
C1094 C1092 1.391 . S
C1094 C1095 1.413 . S
C1095 C1094 1.413 . S
C1095 C1096 1.398 . S
C1095 C1101 1.491 1_545 S
C1096 H1087 0.950 . S
C1096 C1095 1.398 . S
C1096 C1097 1.391 . S
C1097 H1085 0.950 . S
C1097 C1093 1.393 . S
C1097 C1096 1.391 . S
C1098 H1088 0.950 . S
C1098 C1099 1.386 . S
C1098 C1100 1.391 . S
C1099 C1098 1.386 . S
C1099 C1103 1.393 . S
C1100 H1089 0.950 1_565 S
C1100 C1098 1.391 . S
C1100 C1101 1.400 . S
C1101 C1095 1.491 1_565 S
C1101 C1100 1.400 . S
C1101 C1102 1.398 . S
C1102 H1090 0.950 . S
C1102 C1101 1.398 . S
C1102 C1103 1.391 . S
C1103 H1091 0.950 . S
C1103 C1099 1.393 . S
C1103 C1102 1.391 . S
H1104 C1112 0.950 . S
H1105 C1117 0.950 . S
H1106 C1114 0.950 . S
H1107 C1116 0.950 . S
H1108 C1118 0.950 . S
H1109 C1120 0.950 . S
H1110 C1122 0.950 . S
H1111 C1123 0.950 . S
C1112 H1104 0.950 . S
C1112 C1113 1.386 . S
C1112 C1114 1.391 . S
C1113 C1112 1.386 . S
C1113 C1117 1.393 . S
C1114 H1106 0.950 . S
C1114 C1112 1.391 . S
C1114 C1115 1.400 . S
C1115 C1114 1.400 . S
C1115 C1116 1.398 . S
C1115 C1121 1.491 . S
C1116 H1107 0.950 . S
C1116 C1115 1.398 . S
C1116 C1117 1.391 . S
C1117 H1105 0.950 . S
C1117 C1113 1.393 . S
C1117 C1116 1.391 . S
C1118 H1108 0.950 . S
C1118 C1119 1.386 . S
C1118 C1120 1.391 . S
C1119 C1118 1.386 . S
C1119 C1123 1.393 . S
C1120 H1109 0.950 . S
C1120 C1118 1.391 . S
C1120 C1121 1.400 . S
C1121 C1115 1.491 . S
C1121 C1120 1.400 . S
C1121 C1122 1.398 . S
C1122 H1110 0.950 . S
C1122 C1121 1.398 . S
C1122 C1123 1.391 . S
C1123 H1111 0.950 . S
C1123 C1119 1.393 . S
C1123 C1122 1.391 . S
H1124 C1132 0.950 . S
H1125 C1137 0.950 . S
H1126 C1134 0.950 . S
H1127 C1136 0.950 . S
H1128 C1138 0.950 . S
H1129 C1140 0.950 . S
H1130 C1142 0.950 . S
H1131 C1143 0.950 . S
C1132 H1124 0.950 . S
C1132 C1133 1.386 . S
C1132 C1134 1.391 . S
C1133 C1132 1.386 . S
C1133 C1137 1.393 . S
C1134 H1126 0.950 . S
C1134 C1132 1.391 . S
C1134 C1135 1.400 . S
C1135 C1134 1.400 . S
C1135 C1136 1.398 . S
C1135 C1141 1.491 1_545 S
C1136 H1127 0.950 . S
C1136 C1135 1.398 . S
C1136 C1137 1.391 . S
C1137 H1125 0.950 . S
C1137 C1133 1.393 . S
C1137 C1136 1.391 . S
C1138 H1128 0.950 . S
C1138 C1139 1.386 . S
C1138 C1140 1.391 . S
C1139 C1138 1.386 . S
C1139 C1143 1.393 . S
C1140 H1129 0.950 . S
C1140 C1138 1.391 . S
C1140 C1141 1.400 . S
C1141 C1135 1.491 1_565 S
C1141 C1140 1.400 . S
C1141 C1142 1.398 . S
C1142 H1130 0.950 . S
C1142 C1141 1.398 . S
C1142 C1143 1.391 . S
C1143 H1131 0.950 . S
C1143 C1139 1.393 . S
C1143 C1142 1.391 . S
H1144 C1152 0.950 . S
H1145 C1157 0.950 . S
H1146 C1154 0.950 . S
H1147 C1156 0.950 . S
H1148 C1158 0.950 . S
H1149 C1160 0.950 . S
H1150 C1162 0.950 . S
H1151 C1163 0.950 . S
C1152 H1144 0.950 . S
C1152 C1153 1.386 . S
C1152 C1154 1.391 . S
C1153 C1152 1.386 . S
C1153 C1157 1.393 . S
C1154 H1146 0.950 . S
C1154 C1152 1.391 . S
C1154 C1155 1.400 . S
C1155 C1154 1.400 . S
C1155 C1156 1.398 . S
C1155 C1161 1.491 1_655 S
C1156 H1147 0.950 . S
C1156 C1155 1.398 . S
C1156 C1157 1.391 . S
C1157 H1145 0.950 . S
C1157 C1153 1.393 . S
C1157 C1156 1.391 . S
C1158 H1148 0.950 . S
C1158 C1159 1.386 . S
C1158 C1160 1.391 . S
C1159 C1158 1.386 . S
C1159 C1163 1.393 . S
C1160 H1149 0.950 . S
C1160 C1158 1.391 . S
C1160 C1161 1.400 . S
C1161 C1155 1.491 1_455 S
C1161 C1160 1.400 . S
C1161 C1162 1.398 . S
C1162 H1150 0.950 . S
C1162 C1161 1.398 . S
C1162 C1163 1.391 . S
C1163 H1151 0.950 . S
C1163 C1159 1.393 . S
C1163 C1162 1.391 . S
H1164 C1172 0.950 . S
H1165 C1177 0.950 . S
H1166 C1174 0.950 . S
H1167 C1176 0.950 . S
H1168 C1178 0.950 . S
H1169 C1180 0.950 . S
H1170 C1182 0.950 . S
H1171 C1183 0.950 . S
C1172 H1164 0.950 . S
C1172 C1173 1.386 . S
C1172 C1174 1.391 . S
C1173 C1172 1.386 . S
C1173 C1177 1.393 . S
C1174 H1166 0.950 . S
C1174 C1172 1.391 . S
C1174 C1175 1.400 . S
C1175 C1174 1.400 . S
C1175 C1176 1.398 . S
C1175 C1181 1.491 . S
C1176 H1167 0.950 . S
C1176 C1175 1.398 . S
C1176 C1177 1.391 . S
C1177 H1165 0.950 . S
C1177 C1173 1.393 . S
C1177 C1176 1.391 . S
C1178 H1168 0.950 . S
C1178 C1179 1.386 . S
C1178 C1180 1.391 . S
C1179 C1178 1.386 . S
C1179 C1183 1.393 . S
C1180 H1169 0.950 . S
C1180 C1178 1.391 . S
C1180 C1181 1.400 . S
C1181 C1175 1.491 . S
C1181 C1180 1.400 . S
C1181 C1182 1.398 . S
C1182 H1170 0.950 . S
C1182 C1181 1.398 . S
C1182 C1183 1.391 . S
C1183 H1171 0.950 . S
C1183 C1179 1.393 . S
C1183 C1182 1.391 . S
H1184 C1192 0.950 . S
H1185 C1197 0.950 . S
H1186 C1194 0.950 . S
H1187 C1196 0.931 1_545 S
H1188 C1198 0.950 . S
H1189 C1200 0.950 . S
H1190 C1202 0.933 1_565 S
H1191 C1203 0.950 . S
C1192 H1184 0.950 . S
C1192 C1193 1.386 . S
C1192 C1194 1.391 . S
C1193 C1192 1.386 . S
C1193 C1197 1.393 . S
C1194 H1186 0.950 . S
C1194 C1192 1.391 . S
C1194 C1195 1.400 . S
C1195 C1194 1.400 . S
C1195 C1196 1.398 . S
C1195 C1201 1.491 1_565 S
C1196 H1187 0.931 1_565 S
C1196 C1195 1.398 . S
C1196 C1197 1.391 . S
C1197 H1185 0.950 . S
C1197 C1193 1.393 . S
C1197 C1196 1.391 . S
C1198 H1188 0.950 . S
C1198 C1199 1.386 . S
C1198 C1200 1.391 . S
C1199 C1198 1.386 . S
C1199 C1203 1.393 . S
C1200 H1189 0.950 . S
C1200 C1198 1.391 . S
C1200 C1201 1.400 . S
C1201 C1195 1.491 1_545 S
C1201 C1200 1.400 . S
C1201 C1202 1.398 . S
C1202 H1190 0.933 1_545 S
C1202 C1201 1.398 . S
C1202 C1203 1.391 . S
C1203 H1191 0.950 . S
C1203 C1199 1.393 . S
C1203 C1202 1.391 . S
H1204 C1212 0.950 . S
H1205 C1217 0.950 . S
H1206 C1214 0.950 1_455 S
H1207 C1216 0.950 . S
H1208 C1218 0.950 . S
H1209 C1220 0.950 1_655 S
H1210 C1222 0.950 . S
H1211 C1223 0.950 . S
C1212 H1204 0.950 . S
C1212 C1213 1.386 . S
C1212 C1214 1.391 . S
C1213 C1212 1.386 . S
C1213 C1217 1.393 . S
C1214 H1206 0.950 1_655 S
C1214 C1212 1.391 . S
C1214 C1215 1.400 . S
C1215 C1214 1.400 . S
C1215 C1216 1.398 . S
C1215 C1221 1.491 1_655 S
C1216 H1207 0.950 . S
C1216 C1215 1.398 . S
C1216 C1217 1.391 . S
C1217 H1205 0.950 . S
C1217 C1213 1.393 . S
C1217 C1216 1.391 . S
C1218 H1208 0.950 . S
C1218 C1219 1.386 . S
C1218 C1220 1.391 . S
C1219 C1218 1.386 . S
C1219 C1223 1.393 . S
C1220 H1209 0.950 1_455 S
C1220 C1218 1.391 . S
C1220 C1221 1.400 . S
C1221 C1215 1.491 1_455 S
C1221 C1220 1.400 . S
C1221 C1222 1.398 . S
C1222 H1210 0.950 . S
C1222 C1221 1.398 . S
C1222 C1223 1.391 . S
C1223 H1211 0.950 . S
C1223 C1219 1.393 . S
C1223 C1222 1.391 . S
H1224 C1232 0.950 . S
H1225 C1237 0.950 . S
H1226 C1234 0.950 . S
H1227 C1236 0.950 . S
H1228 C1238 0.950 . S
H1229 C1240 0.950 . S
H1230 C1242 0.950 . S
H1231 C1243 0.950 . S
C1232 H1224 0.950 . S
C1232 C1233 1.386 . S
C1232 C1234 1.391 . S
C1233 C1232 1.386 . S
C1233 C1237 1.393 . S
C1234 H1226 0.950 . S
C1234 C1232 1.391 . S
C1234 C1235 1.400 . S
C1235 C1234 1.400 . S
C1235 C1236 1.398 . S
C1235 C1241 1.491 . S
C1236 H1227 0.950 . S
C1236 C1235 1.398 . S
C1236 C1237 1.391 . S
C1237 H1225 0.950 . S
C1237 C1233 1.393 . S
C1237 C1236 1.391 . S
C1238 H1228 0.950 . S
C1238 C1239 1.386 . S
C1238 C1240 1.391 . S
C1239 C1238 1.386 . S
C1239 C1243 1.393 . S
C1240 H1229 0.950 . S
C1240 C1238 1.391 . S
C1240 C1241 1.400 . S
C1241 C1235 1.491 . S
C1241 C1240 1.400 . S
C1241 C1242 1.398 . S
C1242 H1230 0.950 . S
C1242 C1241 1.398 . S
C1242 C1243 1.391 . S
C1243 H1231 0.950 . S
C1243 C1239 1.393 . S
C1243 C1242 1.391 . S
H1244 C1252 0.950 . S
H1245 C1257 0.950 . S
H1246 C1254 0.950 1_565 S
H1247 C1256 0.950 . S
H1248 C1258 0.950 . S
H1249 C1260 0.950 . S
H1250 C1262 0.950 . S
H1251 C1263 0.950 . S
C1252 H1244 0.950 . S
C1252 C1253 1.386 . S
C1252 C1254 1.391 . S
C1253 C1252 1.386 . S
C1253 C1257 1.393 . S
C1254 H1246 0.950 1_545 S
C1254 C1252 1.391 . S
C1254 C1255 1.400 1_545 S
C1255 C1254 1.400 1_565 S
C1255 C1256 1.398 1_565 S
C1255 C1261 1.491 . S
C1256 H1247 0.950 . S
C1256 C1255 1.398 1_545 S
C1256 C1257 1.391 . S
C1257 H1245 0.950 . S
C1257 C1253 1.393 . S
C1257 C1256 1.391 . S
C1258 H1248 0.950 . S
C1258 C1259 1.386 . S
C1258 C1260 1.391 . S
C1259 C1258 1.386 . S
C1259 C1263 1.393 . S
C1260 H1249 0.950 . S
C1260 C1258 1.391 . S
C1260 C1261 1.400 . S
C1261 C1255 1.491 . S
C1261 C1260 1.400 . S
C1261 C1262 1.398 . S
C1262 H1250 0.950 . S
C1262 C1261 1.398 . S
C1262 C1263 1.391 . S
C1263 H1251 0.950 . S
C1263 C1259 1.393 . S
C1263 C1262 1.391 . S
H1264 C1272 0.950 . S
H1265 C1277 0.950 . S
H1266 C1274 0.922 1_455 S
H1267 C1276 0.950 . S
H1268 C1278 0.950 1_545 S
H1269 C1280 0.950 . S
H1270 C1282 0.950 . S
H1271 C1283 0.950 . S
C1272 H1264 0.950 . S
C1272 C1273 1.386 . S
C1272 C1274 1.410 . S
C1273 C1272 1.386 . S
C1273 C1277 1.393 . S
C1274 H1266 0.922 1_655 S
C1274 C1272 1.410 . S
C1274 C1275 1.409 1_655 S
C1275 C1274 1.409 1_455 S
C1275 C1276 1.398 1_455 S
C1275 C1281 1.491 . S
C1276 H1267 0.950 . S
C1276 C1275 1.398 1_655 S
C1276 C1277 1.391 . S
C1277 H1265 0.950 . S
C1277 C1273 1.393 . S
C1277 C1276 1.391 . S
C1278 H1268 0.950 1_565 S
C1278 C1279 1.386 . S
C1278 C1280 1.391 . S
C1279 C1278 1.386 . S
C1279 C1283 1.393 . S
C1280 H1269 0.950 . S
C1280 C1278 1.391 . S
C1280 C1281 1.400 . S
C1281 C1275 1.491 . S
C1281 C1280 1.400 . S
C1281 C1282 1.398 . S
C1282 H1270 0.950 . S
C1282 C1281 1.398 . S
C1282 C1283 1.391 . S
C1283 H1271 0.950 . S
C1283 C1279 1.393 . S
C1283 C1282 1.391 . S
H1284 C1292 0.950 . S
H1285 C1297 0.950 . S
H1286 C1294 0.950 . S
H1287 C1296 0.950 . S
H1288 C1298 0.950 1_565 S
H1289 C1300 0.950 . S
H1290 C1302 0.950 . S
H1291 C1303 0.950 . S
C1292 H1284 0.950 . S
C1292 C1293 1.386 . S
C1292 C1294 1.391 . S
C1293 C1292 1.386 . S
C1293 C1297 1.393 . S
C1294 H1286 0.950 . S
C1294 C1292 1.391 . S
C1294 C1295 1.400 . S
C1295 C1294 1.400 . S
C1295 C1296 1.398 . S
C1295 C1301 1.491 . S
C1296 H1287 0.950 . S
C1296 C1295 1.398 . S
C1296 C1297 1.391 . S
C1297 H1285 0.950 . S
C1297 C1293 1.393 . S
C1297 C1296 1.391 . S
C1298 H1288 0.950 1_545 S
C1298 C1299 1.386 . S
C1298 C1300 1.391 . S
C1299 C1298 1.386 . S
C1299 C1303 1.393 . S
C1300 H1289 0.950 . S
C1300 C1298 1.391 . S
C1300 C1301 1.400 . S
C1301 C1295 1.491 . S
C1301 C1300 1.400 . S
C1301 C1302 1.398 . S
C1302 H1290 0.950 . S
C1302 C1301 1.398 . S
C1302 C1303 1.391 . S
C1303 H1291 0.950 . S
C1303 C1299 1.393 . S
C1303 C1302 1.391 . S
H1304 C1312 0.950 1_455 S
H1305 C1317 0.950 . S
H1306 C1314 0.950 . S
H1307 C1316 0.950 . S
H1308 C1318 0.950 . S
H1309 C1320 0.950 1_545 S
H1310 C1322 0.950 . S
H1311 C1323 0.950 . S
C1312 H1304 0.950 1_655 S
C1312 C1313 1.386 . S
C1312 C1314 1.391 . S
C1313 C1312 1.386 . S
C1313 C1317 1.393 . S
C1314 H1306 0.950 . S
C1314 C1312 1.391 . S
C1314 C1315 1.400 . S
C1315 C1314 1.400 . S
C1315 C1316 1.398 . S
C1315 C1321 1.491 . S
C1316 H1307 0.950 . S
C1316 C1315 1.398 . S
C1316 C1317 1.391 . S
C1317 H1305 0.950 . S
C1317 C1313 1.393 . S
C1317 C1316 1.391 . S
C1318 H1308 0.950 . S
C1318 C1319 1.386 . S
C1318 C1320 1.391 . S
C1319 C1318 1.386 . S
C1319 C1323 1.393 . S
C1320 H1309 0.950 1_565 S
C1320 C1318 1.391 . S
C1320 C1321 1.400 1_565 S
C1321 C1315 1.491 . S
C1321 C1320 1.400 1_545 S
C1321 C1322 1.398 1_545 S
C1322 H1310 0.950 . S
C1322 C1321 1.398 1_565 S
C1322 C1323 1.391 . S
C1323 H1311 0.950 . S
C1323 C1319 1.393 . S
C1323 C1322 1.391 . S
H1324 C1332 0.950 . S
H1325 C1337 0.950 . S
H1326 C1334 0.950 . S
H1327 C1336 0.950 1_655 S
H1328 C1338 0.950 . S
H1329 C1340 0.950 . S
H1330 C1342 0.950 . S
H1331 C1343 0.950 . S
C1332 H1324 0.950 . S
C1332 C1333 1.386 . S
C1332 C1334 1.391 . S
C1333 C1332 1.386 . S
C1333 C1337 1.393 . S
C1334 H1326 0.950 . S
C1334 C1332 1.391 . S
C1334 C1335 1.400 1_455 S
C1335 C1334 1.400 1_655 S
C1335 C1336 1.398 1_655 S
C1335 C1341 1.491 . S
C1336 H1327 0.950 1_455 S
C1336 C1335 1.398 1_455 S
C1336 C1337 1.391 . S
C1337 H1325 0.950 . S
C1337 C1333 1.393 . S
C1337 C1336 1.391 . S
C1338 H1328 0.950 . S
C1338 C1339 1.386 . S
C1338 C1340 1.391 . S
C1339 C1338 1.386 . S
C1339 C1343 1.393 . S
C1340 H1329 0.950 . S
C1340 C1338 1.391 . S
C1340 C1341 1.400 . S
C1341 C1335 1.491 . S
C1341 C1340 1.400 . S
C1341 C1342 1.398 . S
C1342 H1330 0.950 . S
C1342 C1341 1.398 . S
C1342 C1343 1.391 . S
C1343 H1331 0.950 . S
C1343 C1339 1.393 . S
C1343 C1342 1.391 . S
H1344 C1352 0.950 . S
H1345 C1357 0.950 . S
H1346 C1354 0.950 . S
H1347 C1356 0.950 . S
H1348 C1358 0.950 . S
H1349 C1360 0.950 . S
H1350 C1362 0.950 . S
H1351 C1363 0.941 1_455 S
C1352 H1344 0.950 . S
C1352 C1353 1.386 . S
C1352 C1354 1.391 . S
C1353 C1352 1.386 . S
C1353 C1357 1.393 . S
C1354 H1346 0.950 . S
C1354 C1352 1.391 . S
C1354 C1355 1.400 . S
C1355 C1354 1.400 . S
C1355 C1356 1.398 . S
C1355 C1361 1.491 . S
C1356 H1347 0.950 . S
C1356 C1355 1.398 . S
C1356 C1357 1.391 . S
C1357 H1345 0.950 . S
C1357 C1353 1.393 . S
C1357 C1356 1.391 . S
C1358 H1348 0.950 . S
C1358 C1359 1.386 . S
C1358 C1360 1.391 . S
C1359 C1358 1.386 . S
C1359 C1363 1.393 . S
C1360 H1349 0.950 . S
C1360 C1358 1.391 . S
C1360 C1361 1.400 . S
C1361 C1355 1.491 . S
C1361 C1360 1.400 . S
C1361 C1362 1.398 . S
C1362 H1350 0.950 . S
C1362 C1361 1.398 . S
C1362 C1363 1.391 . S
C1363 H1351 0.941 1_655 S
C1363 C1359 1.393 . S
C1363 C1362 1.391 . S
H1364 C1372 0.950 . S
H1365 C1377 0.950 . S
H1366 C1374 0.947 1_545 S
H1367 C1376 0.950 . S
H1368 C1378 0.950 . S
H1369 C1380 0.950 . S
H1370 C1382 0.950 . S
H1371 C1383 0.950 . S
C1372 H1364 0.950 . S
C1372 C1373 1.386 . S
C1372 C1374 1.401 . S
C1373 C1372 1.386 . S
C1373 C1377 1.393 . S
C1374 H1366 0.947 1_565 S
C1374 C1372 1.401 . S
C1374 C1375 1.394 1_565 S
C1375 C1374 1.394 1_545 S
C1375 C1376 1.398 1_545 S
C1375 C1381 1.491 . S
C1376 H1367 0.950 . S
C1376 C1375 1.398 1_565 S
C1376 C1377 1.391 . S
C1377 H1365 0.950 . S
C1377 C1373 1.393 . S
C1377 C1376 1.391 . S
C1378 H1368 0.950 . S
C1378 C1379 1.386 . S
C1378 C1380 1.391 . S
C1379 C1378 1.386 . S
C1379 C1383 1.393 . S
C1380 H1369 0.950 . S
C1380 C1378 1.391 . S
C1380 C1381 1.400 . S
C1381 C1375 1.491 . S
C1381 C1380 1.400 . S
C1381 C1382 1.398 . S
C1382 H1370 0.950 . S
C1382 C1381 1.398 . S
C1382 C1383 1.391 . S
C1383 H1371 0.950 . S
C1383 C1379 1.393 . S
C1383 C1382 1.391 . S
H1384 C1392 0.950 . S
H1385 C1397 0.950 . S
H1386 C1394 0.950 1_655 S
H1387 C1396 0.950 . S
H1388 C1398 0.950 1_565 S
H1389 C1400 0.950 . S
H1390 C1402 0.950 . S
H1391 C1403 0.950 . S
C1392 H1384 0.950 . S
C1392 C1393 1.386 . S
C1392 C1394 1.391 . S
C1393 C1392 1.386 . S
C1393 C1397 1.393 . S
C1394 H1386 0.950 1_455 S
C1394 C1392 1.391 . S
C1394 C1395 1.400 1_455 S
C1395 C1394 1.400 1_655 S
C1395 C1396 1.398 1_655 S
C1395 C1401 1.491 . S
C1396 H1387 0.950 . S
C1396 C1395 1.398 1_455 S
C1396 C1397 1.391 . S
C1397 H1385 0.950 . S
C1397 C1393 1.393 . S
C1397 C1396 1.391 . S
C1398 H1388 0.950 1_545 S
C1398 C1399 1.386 . S
C1398 C1400 1.391 . S
C1399 C1398 1.386 . S
C1399 C1403 1.393 . S
C1400 H1389 0.950 . S
C1400 C1398 1.391 . S
C1400 C1401 1.400 . S
C1401 C1395 1.491 . S
C1401 C1400 1.400 . S
C1401 C1402 1.398 . S
C1402 H1390 0.950 . S
C1402 C1401 1.398 . S
C1402 C1403 1.391 . S
C1403 H1391 0.950 . S
C1403 C1399 1.393 . S
C1403 C1402 1.391 . S
H1404 C1412 0.950 . S
H1405 C1417 0.950 . S
H1406 C1414 0.950 . S
H1407 C1416 0.950 . S
H1408 C1418 0.950 . S
H1409 C1420 0.950 . S
H1410 C1422 0.950 . S
H1411 C1423 0.950 . S
C1412 H1404 0.950 . S
C1412 C1413 1.386 . S
C1412 C1414 1.391 . S
C1413 C1412 1.386 . S
C1413 C1417 1.393 . S
C1414 H1406 0.950 . S
C1414 C1412 1.391 . S
C1414 C1415 1.400 . S
C1415 C1414 1.400 . S
C1415 C1416 1.398 . S
C1415 C1421 1.491 . S
C1416 H1407 0.950 . S
C1416 C1415 1.398 . S
C1416 C1417 1.391 . S
C1417 H1405 0.950 . S
C1417 C1413 1.393 . S
C1417 C1416 1.391 . S
C1418 H1408 0.950 . S
C1418 C1419 1.386 . S
C1418 C1420 1.391 . S
C1419 C1418 1.386 . S
C1419 C1423 1.393 . S
C1420 H1409 0.950 . S
C1420 C1418 1.391 . S
C1420 C1421 1.400 . S
C1421 C1415 1.491 . S
C1421 C1420 1.400 . S
C1421 C1422 1.398 . S
C1422 H1410 0.950 . S
C1422 C1421 1.398 . S
C1422 C1423 1.391 . S
C1423 H1411 0.950 . S
C1423 C1419 1.393 . S
C1423 C1422 1.391 . S
H1424 C1432 0.950 . S
H1425 C1437 0.950 . S
H1426 C1434 0.950 . S
H1427 C1436 0.950 1_565 S
H1428 C1438 0.950 . S
H1429 C1440 0.950 . S
H1430 C1442 0.950 . S
H1431 C1443 0.950 . S
C1432 H1424 0.950 . S
C1432 C1433 1.386 . S
C1432 C1434 1.391 . S
C1433 C1432 1.386 . S
C1433 C1437 1.393 . S
C1434 H1426 0.950 . S
C1434 C1432 1.391 . S
C1434 C1435 1.400 1_545 S
C1435 C1434 1.400 1_565 S
C1435 C1436 1.398 1_565 S
C1435 C1441 1.491 . S
C1436 H1427 0.950 1_545 S
C1436 C1435 1.398 1_545 S
C1436 C1437 1.390 . S
C1437 H1425 0.950 . S
C1437 C1433 1.393 . S
C1437 C1436 1.390 . S
C1438 H1428 0.950 . S
C1438 C1439 1.386 . S
C1438 C1440 1.391 . S
C1439 C1438 1.386 . S
C1439 C1443 1.393 . S
C1440 H1429 0.950 . S
C1440 C1438 1.391 . S
C1440 C1441 1.400 . S
C1441 C1435 1.491 . S
C1441 C1440 1.400 . S
C1441 C1442 1.398 . S
C1442 H1430 0.950 . S
C1442 C1441 1.398 . S
C1442 C1443 1.391 . S
C1443 H1431 0.950 . S
C1443 C1439 1.393 . S
C1443 C1442 1.391 . S
H1444 C1452 0.950 . S
H1445 C1457 0.950 . S
H1446 C1454 0.950 . S
H1447 C1456 0.950 . S
H1448 C1458 0.950 . S
H1449 C1460 0.950 1_455 S
H1450 C1462 0.950 . S
H1451 C1463 0.950 . S
C1452 H1444 0.950 . S
C1452 C1453 1.386 . S
C1452 C1454 1.391 . S
C1453 C1452 1.386 . S
C1453 C1457 1.393 . S
C1454 H1446 0.950 . S
C1454 C1452 1.391 . S
C1454 C1455 1.400 . S
C1455 C1454 1.400 . S
C1455 C1456 1.398 . S
C1455 C1461 1.491 . S
C1456 H1447 0.950 . S
C1456 C1455 1.398 . S
C1456 C1457 1.391 . S
C1457 H1445 0.950 . S
C1457 C1453 1.393 . S
C1457 C1456 1.391 . S
C1458 H1448 0.950 . S
C1458 C1459 1.386 . S
C1458 C1460 1.391 . S
C1459 C1458 1.386 . S
C1459 C1463 1.393 . S
C1460 H1449 0.950 1_655 S
C1460 C1458 1.391 . S
C1460 C1461 1.400 1_655 S
C1461 C1455 1.491 . S
C1461 C1460 1.400 1_455 S
C1461 C1462 1.398 1_455 S
C1462 H1450 0.950 . S
C1462 C1461 1.398 1_655 S
C1462 C1463 1.391 . S
C1463 H1451 0.950 . S
C1463 C1459 1.393 . S
C1463 C1462 1.391 . S
H1464 C1472 0.950 . S
H1465 C1477 0.950 . S
H1466 C1474 0.950 . S
H1467 C1476 0.950 . S
H1468 C1478 0.950 . S
H1469 C1480 0.950 . S
H1470 C1482 0.950 . S
H1471 C1483 0.950 . S
C1472 H1464 0.950 . S
C1472 C1473 1.386 . S
C1472 C1474 1.391 . S
C1473 C1472 1.386 . S
C1473 C1477 1.393 . S
C1474 H1466 0.950 . S
C1474 C1472 1.391 . S
C1474 C1475 1.400 . S
C1475 C1474 1.400 . S
C1475 C1476 1.398 . S
C1475 C1481 1.491 . S
C1476 H1467 0.950 . S
C1476 C1475 1.398 . S
C1476 C1477 1.391 . S
C1477 H1465 0.950 . S
C1477 C1473 1.393 . S
C1477 C1476 1.391 . S
C1478 H1468 0.950 . S
C1478 C1479 1.386 . S
C1478 C1480 1.391 . S
C1479 C1478 1.386 . S
C1479 C1483 1.393 . S
C1480 H1469 0.950 . S
C1480 C1478 1.391 . S
C1480 C1481 1.400 . S
C1481 C1475 1.491 . S
C1481 C1480 1.400 . S
C1481 C1482 1.398 . S
C1482 H1470 0.950 . S
C1482 C1481 1.398 . S
C1482 C1483 1.391 . S
C1483 H1471 0.950 . S
C1483 C1479 1.393 . S
C1483 C1482 1.391 . S
H1484 C1492 0.950 . S
H1485 C1497 0.950 . S
H1486 C1494 0.950 . S
H1487 C1496 0.950 . S
H1488 C1498 0.950 . S
H1489 C1500 0.950 . S
H1490 C1502 0.950 . S
H1491 C1503 0.950 . S
C1492 H1484 0.950 . S
C1492 C1493 1.386 . S
C1492 C1494 1.391 . S
C1493 C1492 1.386 . S
C1493 C1497 1.393 . S
C1494 H1486 0.950 . S
C1494 C1492 1.391 . S
C1494 C1495 1.400 . S
C1495 C1494 1.400 . S
C1495 C1496 1.398 . S
C1495 C1501 1.491 . S
C1496 H1487 0.950 . S
C1496 C1495 1.398 . S
C1496 C1497 1.391 . S
C1497 H1485 0.950 . S
C1497 C1493 1.393 . S
C1497 C1496 1.391 . S
C1498 H1488 0.950 . S
C1498 C1499 1.386 . S
C1498 C1500 1.391 . S
C1499 C1498 1.386 . S
C1499 C1503 1.393 . S
C1500 H1489 0.950 . S
C1500 C1498 1.391 . S
C1500 C1501 1.400 . S
C1501 C1495 1.491 . S
C1501 C1500 1.400 . S
C1501 C1502 1.398 . S
C1502 H1490 0.950 . S
C1502 C1501 1.398 . S
C1502 C1503 1.391 . S
C1503 H1491 0.950 . S
C1503 C1499 1.393 . S
C1503 C1502 1.391 . S
H1504 C1512 0.950 . S
H1505 C1517 0.950 . S
H1506 C1514 0.950 . S
H1507 C1516 0.950 . S
H1508 C1518 0.950 . S
H1509 C1520 0.950 . S
H1510 C1522 0.950 . S
H1511 C1523 0.950 . S
C1512 H1504 0.950 . S
C1512 C1513 1.386 . S
C1512 C1514 1.391 . S
C1513 C1512 1.386 . S
C1513 C1517 1.393 . S
C1514 H1506 0.950 . S
C1514 C1512 1.391 . S
C1514 C1515 1.400 . S
C1515 C1514 1.400 . S
C1515 C1516 1.398 . S
C1515 C1521 1.491 . S
C1516 H1507 0.950 . S
C1516 C1515 1.398 . S
C1516 C1517 1.391 . S
C1517 H1505 0.950 . S
C1517 C1513 1.393 . S
C1517 C1516 1.391 . S
C1518 H1508 0.950 . S
C1518 C1519 1.386 . S
C1518 C1520 1.391 . S
C1519 C1518 1.386 . S
C1519 C1523 1.393 . S
C1520 H1509 0.950 . S
C1520 C1518 1.391 . S
C1520 C1521 1.400 . S
C1521 C1515 1.491 . S
C1521 C1520 1.400 . S
C1521 C1522 1.398 . S
C1522 H1510 0.950 . S
C1522 C1521 1.398 . S
C1522 C1523 1.391 . S
C1523 H1511 0.950 . S
C1523 C1519 1.393 . S
C1523 C1522 1.391 . S
H1524 C1532 0.950 . S
H1525 C1537 0.950 . S
H1526 C1534 0.950 . S
H1527 C1536 0.950 . S
H1528 C1538 0.950 . S
H1529 C1540 0.950 . S
H1530 C1542 0.950 . S
H1531 C1543 0.950 . S
C1532 H1524 0.950 . S
C1532 C1533 1.386 . S
C1532 C1534 1.391 . S
C1533 C1532 1.386 . S
C1533 C1537 1.393 . S
C1534 H1526 0.950 . S
C1534 C1532 1.391 . S
C1534 C1535 1.400 . S
C1535 C1534 1.400 . S
C1535 C1536 1.398 . S
C1535 C1541 1.491 . S
C1536 H1527 0.950 . S
C1536 C1535 1.398 . S
C1536 C1537 1.391 . S
C1537 H1525 0.950 . S
C1537 C1533 1.393 . S
C1537 C1536 1.391 . S
C1538 H1528 0.950 . S
C1538 C1539 1.386 . S
C1538 C1540 1.391 . S
C1539 C1538 1.386 . S
C1539 C1543 1.393 . S
C1540 H1529 0.950 . S
C1540 C1538 1.391 . S
C1540 C1541 1.400 . S
C1541 C1535 1.491 . S
C1541 C1540 1.400 . S
C1541 C1542 1.398 . S
C1542 H1530 0.950 . S
C1542 C1541 1.398 . S
C1542 C1543 1.391 . S
C1543 H1531 0.950 . S
C1543 C1539 1.393 . S
C1543 C1542 1.391 . S
H1544 C1552 0.950 . S
H1545 C1557 0.950 . S
H1546 C1554 0.950 . S
H1547 C1556 0.950 . S
H1548 C1558 0.950 . S
H1549 C1560 0.950 . S
H1550 C1562 0.950 . S
H1551 C1563 0.950 . S
C1552 H1544 0.950 . S
C1552 C1553 1.386 . S
C1552 C1554 1.391 . S
C1553 C1552 1.386 . S
C1553 C1557 1.393 . S
C1554 H1546 0.950 . S
C1554 C1552 1.391 . S
C1554 C1555 1.400 . S
C1555 C1554 1.400 . S
C1555 C1556 1.398 . S
C1555 C1561 1.491 . S
C1556 H1547 0.950 . S
C1556 C1555 1.398 . S
C1556 C1557 1.391 . S
C1557 H1545 0.950 . S
C1557 C1553 1.393 . S
C1557 C1556 1.391 . S
C1558 H1548 0.950 . S
C1558 C1559 1.386 . S
C1558 C1560 1.391 . S
C1559 C1558 1.386 . S
C1559 C1563 1.393 . S
C1560 H1549 0.950 . S
C1560 C1558 1.391 . S
C1560 C1561 1.400 . S
C1561 C1555 1.491 . S
C1561 C1560 1.400 . S
C1561 C1562 1.398 . S
C1562 H1550 0.950 . S
C1562 C1561 1.398 . S
C1562 C1563 1.391 . S
C1563 H1551 0.950 . S
C1563 C1559 1.393 . S
C1563 C1562 1.391 . S
H1564 C1572 0.950 . S
H1565 C1577 0.950 . S
H1566 C1574 0.950 . S
H1567 C1576 0.950 . S
H1568 C1578 0.950 . S
H1569 C1580 0.950 . S
H1570 C1582 0.950 . S
H1571 C1583 0.950 . S
C1572 H1564 0.950 . S
C1572 C1573 1.386 . S
C1572 C1574 1.391 . S
C1573 C1572 1.386 . S
C1573 C1577 1.393 . S
C1574 H1566 0.950 . S
C1574 C1572 1.391 . S
C1574 C1575 1.400 . S
C1575 C1574 1.400 . S
C1575 C1576 1.398 . S
C1575 C1581 1.491 . S
C1576 H1567 0.950 . S
C1576 C1575 1.398 . S
C1576 C1577 1.391 . S
C1577 H1565 0.950 . S
C1577 C1573 1.393 . S
C1577 C1576 1.391 . S
C1578 H1568 0.950 . S
C1578 C1579 1.386 . S
C1578 C1580 1.391 . S
C1579 C1578 1.386 . S
C1579 C1583 1.393 . S
C1580 H1569 0.950 . S
C1580 C1578 1.391 . S
C1580 C1581 1.400 . S
C1581 C1575 1.491 . S
C1581 C1580 1.400 . S
C1581 C1582 1.398 . S
C1582 H1570 0.950 . S
C1582 C1581 1.398 . S
C1582 C1583 1.391 . S
C1583 H1571 0.950 . S
C1583 C1579 1.393 . S
C1583 C1582 1.391 . S
H1584 C1592 0.950 . S
H1585 C1597 0.950 . S
H1586 C1594 0.950 . S
H1587 C1596 0.950 . S
H1588 C1598 0.950 . S
H1589 C1600 0.950 . S
H1590 C1602 0.950 . S
H1591 C1603 0.950 . S
C1592 H1584 0.950 . S
C1592 C1593 1.386 . S
C1592 C1594 1.391 . S
C1593 C1592 1.386 . S
C1593 C1597 1.393 . S
C1594 H1586 0.950 . S
C1594 C1592 1.391 . S
C1594 C1595 1.400 . S
C1595 C1594 1.400 . S
C1595 C1596 1.398 . S
C1595 C1601 1.491 . S
C1596 H1587 0.950 . S
C1596 C1595 1.398 . S
C1596 C1597 1.391 . S
C1597 H1585 0.950 . S
C1597 C1593 1.393 . S
C1597 C1596 1.391 . S
C1598 H1588 0.950 . S
C1598 C1599 1.386 . S
C1598 C1600 1.391 . S
C1599 C1598 1.386 . S
C1599 C1603 1.393 . S
C1600 H1589 0.950 . S
C1600 C1598 1.391 . S
C1600 C1601 1.400 . S
C1601 C1595 1.491 . S
C1601 C1600 1.400 . S
C1601 C1602 1.398 . S
C1602 H1590 0.950 . S
C1602 C1601 1.398 . S
C1602 C1603 1.391 . S
C1603 H1591 0.950 . S
C1603 C1599 1.393 . S
C1603 C1602 1.391 . S
H1604 C1612 0.950 . S
H1605 C1617 0.950 . S
H1606 C1614 0.950 . S
H1607 C1616 0.950 . S
H1608 C1618 0.950 . S
H1609 C1620 0.950 . S
H1610 C1622 0.950 . S
H1611 C1623 0.950 . S
C1612 H1604 0.950 . S
C1612 C1613 1.386 . S
C1612 C1614 1.391 . S
C1613 C1612 1.386 . S
C1613 C1617 1.393 . S
C1614 H1606 0.950 . S
C1614 C1612 1.391 . S
C1614 C1615 1.400 . S
C1615 C1614 1.400 . S
C1615 C1616 1.398 . S
C1615 C1621 1.491 . S
C1616 H1607 0.950 . S
C1616 C1615 1.398 . S
C1616 C1617 1.391 . S
C1617 H1605 0.950 . S
C1617 C1613 1.393 . S
C1617 C1616 1.391 . S
C1618 H1608 0.950 . S
C1618 C1619 1.386 . S
C1618 C1620 1.391 . S
C1619 C1618 1.386 . S
C1619 C1623 1.393 . S
C1620 H1609 0.950 . S
C1620 C1618 1.391 . S
C1620 C1621 1.400 . S
C1621 C1615 1.491 . S
C1621 C1620 1.400 . S
C1621 C1622 1.398 . S
C1622 H1610 0.950 . S
C1622 C1621 1.398 . S
C1622 C1623 1.391 . S
C1623 H1611 0.950 . S
C1623 C1619 1.393 . S
C1623 C1622 1.391 . S
H1624 C1632 0.950 . S
H1625 C1637 0.950 . S
H1626 C1634 0.950 . S
H1627 C1636 0.950 . S
H1628 C1638 0.950 . S
H1629 C1640 0.950 . S
H1630 C1642 0.950 . S
H1631 C1643 0.950 . S
C1632 H1624 0.950 . S
C1632 C1633 1.386 . S
C1632 C1634 1.391 . S
C1633 C1632 1.386 . S
C1633 C1637 1.393 . S
C1634 H1626 0.950 . S
C1634 C1632 1.391 . S
C1634 C1635 1.400 . S
C1635 C1634 1.400 . S
C1635 C1636 1.398 . S
C1635 C1641 1.491 . S
C1636 H1627 0.950 . S
C1636 C1635 1.398 . S
C1636 C1637 1.391 . S
C1637 H1625 0.950 . S
C1637 C1633 1.393 . S
C1637 C1636 1.391 . S
C1638 H1628 0.950 . S
C1638 C1639 1.386 . S
C1638 C1640 1.391 . S
C1639 C1638 1.386 . S
C1639 C1643 1.393 . S
C1640 H1629 0.950 . S
C1640 C1638 1.391 . S
C1640 C1641 1.400 . S
C1641 C1635 1.491 . S
C1641 C1640 1.400 . S
C1641 C1642 1.398 . S
C1642 H1630 0.950 . S
C1642 C1641 1.398 . S
C1642 C1643 1.391 . S
C1643 H1631 0.950 . S
C1643 C1639 1.393 . S
C1643 C1642 1.391 . S
H1644 C1652 0.950 . S
H1645 C1657 0.950 . S
H1646 C1654 0.950 . S
H1647 C1656 0.950 . S
H1648 C1658 0.950 . S
H1649 C1660 0.950 . S
H1650 C1662 0.950 . S
H1651 C1663 0.950 . S
C1652 H1644 0.950 . S
C1652 C1653 1.386 . S
C1652 C1654 1.391 . S
C1653 C1652 1.386 . S
C1653 C1657 1.393 . S
C1654 H1646 0.950 . S
C1654 C1652 1.391 . S
C1654 C1655 1.400 . S
C1655 C1654 1.400 . S
C1655 C1656 1.398 . S
C1655 C1661 1.491 . S
C1656 H1647 0.950 . S
C1656 C1655 1.398 . S
C1656 C1657 1.391 . S
C1657 H1645 0.950 . S
C1657 C1653 1.393 . S
C1657 C1656 1.391 . S
C1658 H1648 0.950 . S
C1658 C1659 1.386 . S
C1658 C1660 1.391 . S
C1659 C1658 1.386 . S
C1659 C1663 1.393 . S
C1660 H1649 0.950 . S
C1660 C1658 1.391 . S
C1660 C1661 1.400 . S
C1661 C1655 1.491 . S
C1661 C1660 1.400 . S
C1661 C1662 1.398 . S
C1662 H1650 0.950 . S
C1662 C1661 1.398 . S
C1662 C1663 1.391 . S
C1663 H1651 0.950 . S
C1663 C1659 1.393 . S
C1663 C1662 1.391 . S
H1664 C1672 0.950 . S
H1665 C1677 0.950 . S
H1666 C1674 0.950 . S
H1667 C1676 0.950 . S
H1668 C1678 0.950 . S
H1669 C1680 0.950 . S
H1670 C1682 0.950 . S
H1671 C1683 0.950 . S
C1672 H1664 0.950 . S
C1672 C1673 1.386 . S
C1672 C1674 1.391 . S
C1673 C1672 1.386 . S
C1673 C1677 1.393 . S
C1674 H1666 0.950 . S
C1674 C1672 1.391 . S
C1674 C1675 1.400 . S
C1675 C1674 1.400 . S
C1675 C1676 1.398 . S
C1675 C1681 1.491 . S
C1676 H1667 0.950 . S
C1676 C1675 1.398 . S
C1676 C1677 1.391 . S
C1677 H1665 0.950 . S
C1677 C1673 1.393 . S
C1677 C1676 1.391 . S
C1678 H1668 0.950 . S
C1678 C1679 1.386 . S
C1678 C1680 1.391 . S
C1679 C1678 1.386 . S
C1679 C1683 1.393 . S
C1680 H1669 0.950 . S
C1680 C1678 1.391 . S
C1680 C1681 1.400 . S
C1681 C1675 1.491 . S
C1681 C1680 1.400 . S
C1681 C1682 1.398 . S
C1682 H1670 0.950 . S
C1682 C1681 1.398 . S
C1682 C1683 1.391 . S
C1683 H1671 0.950 . S
C1683 C1679 1.393 . S
C1683 C1682 1.391 . S
H1684 C1692 0.950 . S
H1685 C1697 0.950 . S
H1686 C1694 0.950 . S
H1687 C1696 0.950 . S
H1688 C1698 0.950 . S
H1689 C1700 0.950 . S
H1690 C1702 0.950 . S
H1691 C1703 0.950 . S
C1692 H1684 0.950 . S
C1692 C1693 1.386 . S
C1692 C1694 1.391 . S
C1693 C1692 1.386 . S
C1693 C1697 1.393 . S
C1694 H1686 0.950 . S
C1694 C1692 1.391 . S
C1694 C1695 1.400 . S
C1695 C1694 1.400 . S
C1695 C1696 1.398 . S
C1695 C1701 1.491 . S
C1696 H1687 0.950 . S
C1696 C1695 1.398 . S
C1696 C1697 1.391 . S
C1697 H1685 0.950 . S
C1697 C1693 1.393 . S
C1697 C1696 1.391 . S
C1698 H1688 0.950 . S
C1698 C1699 1.386 . S
C1698 C1700 1.391 . S
C1699 C1698 1.386 . S
C1699 C1703 1.393 . S
C1700 H1689 0.950 . S
C1700 C1698 1.391 . S
C1700 C1701 1.400 . S
C1701 C1695 1.491 . S
C1701 C1700 1.400 . S
C1701 C1702 1.398 . S
C1702 H1690 0.950 . S
C1702 C1701 1.398 . S
C1702 C1703 1.391 . S
C1703 H1691 0.950 . S
C1703 C1699 1.393 . S
C1703 C1702 1.391 . S
H1704 C1712 0.950 . S
H1705 C1717 0.950 . S
H1706 C1714 0.950 . S
H1707 C1716 0.950 . S
H1708 C1718 0.950 . S
H1709 C1720 0.950 . S
H1710 C1722 0.950 . S
H1711 C1723 0.950 . S
C1712 H1704 0.950 . S
C1712 C1713 1.386 . S
C1712 C1714 1.391 . S
C1713 C1712 1.386 . S
C1713 C1717 1.393 . S
C1714 H1706 0.950 . S
C1714 C1712 1.391 . S
C1714 C1715 1.400 . S
C1715 C1714 1.400 . S
C1715 C1716 1.398 . S
C1715 C1721 1.491 . S
C1716 H1707 0.950 . S
C1716 C1715 1.398 . S
C1716 C1717 1.391 . S
C1717 H1705 0.950 . S
C1717 C1713 1.393 . S
C1717 C1716 1.391 . S
C1718 H1708 0.950 . S
C1718 C1719 1.386 . S
C1718 C1720 1.391 . S
C1719 C1718 1.386 . S
C1719 C1723 1.393 . S
C1720 H1709 0.950 . S
C1720 C1718 1.391 . S
C1720 C1721 1.400 . S
C1721 C1715 1.491 . S
C1721 C1720 1.400 . S
C1721 C1722 1.398 . S
C1722 H1710 0.950 . S
C1722 C1721 1.398 . S
C1722 C1723 1.391 . S
C1723 H1711 0.950 . S
C1723 C1719 1.393 . S
C1723 C1722 1.391 . S
H1724 C1732 0.950 . S
H1725 C1737 0.950 . S
H1726 C1734 0.950 . S
H1727 C1736 0.950 . S
H1728 C1738 0.950 . S
H1729 C1740 0.950 . S
H1730 C1742 0.950 . S
H1731 C1743 0.950 . S
C1732 H1724 0.950 . S
C1732 C1733 1.386 . S
C1732 C1734 1.391 . S
C1733 C1732 1.386 . S
C1733 C1737 1.393 . S
C1734 H1726 0.950 . S
C1734 C1732 1.391 . S
C1734 C1735 1.400 . S
C1735 C1734 1.400 . S
C1735 C1736 1.398 . S
C1735 C1741 1.491 . S
C1736 H1727 0.950 . S
C1736 C1735 1.398 . S
C1736 C1737 1.391 . S
C1737 H1725 0.950 . S
C1737 C1733 1.393 . S
C1737 C1736 1.391 . S
C1738 H1728 0.950 . S
C1738 C1739 1.386 . S
C1738 C1740 1.391 . S
C1739 C1738 1.386 . S
C1739 C1743 1.393 . S
C1740 H1729 0.950 . S
C1740 C1738 1.391 . S
C1740 C1741 1.400 . S
C1741 C1735 1.491 . S
C1741 C1740 1.400 . S
C1741 C1742 1.398 . S
C1742 H1730 0.950 . S
C1742 C1741 1.398 . S
C1742 C1743 1.391 . S
C1743 H1731 0.950 . S
C1743 C1739 1.393 . S
C1743 C1742 1.391 . S
H1744 C1752 0.950 . S
H1745 C1757 0.950 . S
H1746 C1754 0.950 . S
H1747 C1756 0.950 . S
H1748 C1758 0.950 . S
H1749 C1760 0.950 . S
H1750 C1762 0.950 . S
H1751 C1763 0.950 . S
C1752 H1744 0.950 . S
C1752 C1753 1.386 . S
C1752 C1754 1.391 . S
C1753 C1752 1.386 . S
C1753 C1757 1.393 . S
C1754 H1746 0.950 . S
C1754 C1752 1.391 . S
C1754 C1755 1.400 . S
C1755 C1754 1.400 . S
C1755 C1756 1.398 . S
C1755 C1761 1.491 . S
C1756 H1747 0.950 . S
C1756 C1755 1.398 . S
C1756 C1757 1.391 . S
C1757 H1745 0.950 . S
C1757 C1753 1.393 . S
C1757 C1756 1.391 . S
C1758 H1748 0.950 . S
C1758 C1759 1.386 . S
C1758 C1760 1.391 . S
C1759 C1758 1.386 . S
C1759 C1763 1.393 . S
C1760 H1749 0.950 . S
C1760 C1758 1.391 . S
C1760 C1761 1.400 . S
C1761 C1755 1.491 . S
C1761 C1760 1.400 . S
C1761 C1762 1.398 . S
C1762 H1750 0.950 . S
C1762 C1761 1.398 . S
C1762 C1763 1.391 . S
C1763 H1751 0.950 . S
C1763 C1759 1.393 . S
C1763 C1762 1.391 . S
H1764 C1772 0.950 . S
H1765 C1777 0.950 . S
H1766 C1774 0.950 . S
H1767 C1776 0.950 . S
H1768 C1778 0.950 . S
H1769 C1780 0.950 . S
H1770 C1782 0.950 . S
H1771 C1783 0.950 . S
C1772 H1764 0.950 . S
C1772 C1773 1.386 . S
C1772 C1774 1.391 . S
C1773 C1772 1.386 . S
C1773 C1777 1.393 . S
C1774 H1766 0.950 . S
C1774 C1772 1.391 . S
C1774 C1775 1.400 . S
C1775 C1774 1.400 . S
C1775 C1776 1.398 . S
C1775 C1781 1.491 . S
C1776 H1767 0.950 . S
C1776 C1775 1.398 . S
C1776 C1777 1.391 . S
C1777 H1765 0.950 . S
C1777 C1773 1.393 . S
C1777 C1776 1.391 . S
C1778 H1768 0.950 . S
C1778 C1779 1.386 . S
C1778 C1780 1.391 . S
C1779 C1778 1.386 . S
C1779 C1783 1.393 . S
C1780 H1769 0.950 . S
C1780 C1778 1.391 . S
C1780 C1781 1.400 . S
C1781 C1775 1.491 . S
C1781 C1780 1.400 . S
C1781 C1782 1.398 . S
C1782 H1770 0.950 . S
C1782 C1781 1.398 . S
C1782 C1783 1.391 . S
C1783 H1771 0.950 . S
C1783 C1779 1.393 . S
C1783 C1782 1.391 . S
H1784 C1792 0.950 . S
H1785 C1797 0.950 . S
H1786 C1794 0.950 . S
H1787 C1796 0.950 . S
H1788 C1798 0.950 . S
H1789 C1800 0.950 . S
H1790 C1802 0.950 . S
H1791 C1803 0.950 . S
C1792 H1784 0.950 . S
C1792 C1793 1.386 . S
C1792 C1794 1.391 . S
C1793 C1792 1.386 . S
C1793 C1797 1.393 . S
C1794 H1786 0.950 . S
C1794 C1792 1.391 . S
C1794 C1795 1.400 . S
C1795 C1794 1.400 . S
C1795 C1796 1.398 . S
C1795 C1801 1.491 . S
C1796 H1787 0.950 . S
C1796 C1795 1.398 . S
C1796 C1797 1.391 . S
C1797 H1785 0.950 . S
C1797 C1793 1.393 . S
C1797 C1796 1.391 . S
C1798 H1788 0.950 . S
C1798 C1799 1.386 . S
C1798 C1800 1.391 . S
C1799 C1798 1.386 . S
C1799 C1803 1.393 . S
C1800 H1789 0.950 . S
C1800 C1798 1.391 . S
C1800 C1801 1.400 . S
C1801 C1795 1.491 . S
C1801 C1800 1.400 . S
C1801 C1802 1.398 . S
C1802 H1790 0.950 . S
C1802 C1801 1.398 . S
C1802 C1803 1.391 . S
C1803 H1791 0.950 . S
C1803 C1799 1.393 . S
C1803 C1802 1.391 . S
H1804 C1812 0.950 . S
H1805 C1817 0.950 . S
H1806 C1814 0.950 . S
H1807 C1816 0.950 . S
H1808 C1818 0.950 . S
H1809 C1820 0.950 . S
H1810 C1822 0.950 . S
H1811 C1823 0.950 . S
C1812 H1804 0.950 . S
C1812 C1813 1.386 . S
C1812 C1814 1.391 . S
C1813 C1812 1.386 . S
C1813 C1817 1.393 . S
C1814 H1806 0.950 . S
C1814 C1812 1.391 . S
C1814 C1815 1.400 . S
C1815 C1814 1.400 . S
C1815 C1816 1.398 . S
C1815 C1821 1.491 . S
C1816 H1807 0.950 . S
C1816 C1815 1.398 . S
C1816 C1817 1.391 . S
C1817 H1805 0.950 . S
C1817 C1813 1.393 . S
C1817 C1816 1.391 . S
C1818 H1808 0.950 . S
C1818 C1819 1.386 . S
C1818 C1820 1.391 . S
C1819 C1818 1.386 . S
C1819 C1823 1.393 . S
C1820 H1809 0.950 . S
C1820 C1818 1.391 . S
C1820 C1821 1.400 . S
C1821 C1815 1.491 . S
C1821 C1820 1.400 . S
C1821 C1822 1.398 . S
C1822 H1810 0.950 . S
C1822 C1821 1.398 . S
C1822 C1823 1.391 . S
C1823 H1811 0.950 . S
C1823 C1819 1.393 . S
C1823 C1822 1.391 . S
H1824 C1832 0.950 . S
H1825 C1837 0.950 . S
H1826 C1834 0.950 . S
H1827 C1836 0.950 . S
H1828 C1838 0.950 . S
H1829 C1840 0.950 . S
H1830 C1842 0.950 . S
H1831 C1843 0.950 . S
C1832 H1824 0.950 . S
C1832 C1833 1.386 . S
C1832 C1834 1.391 . S
C1833 C1832 1.386 . S
C1833 C1837 1.393 . S
C1834 H1826 0.950 . S
C1834 C1832 1.391 . S
C1834 C1835 1.400 . S
C1835 C1834 1.400 . S
C1835 C1836 1.398 . S
C1835 C1841 1.491 . S
C1836 H1827 0.950 . S
C1836 C1835 1.398 . S
C1836 C1837 1.391 . S
C1837 H1825 0.950 . S
C1837 C1833 1.393 . S
C1837 C1836 1.391 . S
C1838 H1828 0.950 . S
C1838 C1839 1.386 . S
C1838 C1840 1.391 . S
C1839 C1838 1.386 . S
C1839 C1843 1.393 . S
C1840 H1829 0.950 . S
C1840 C1838 1.391 . S
C1840 C1841 1.400 . S
C1841 C1835 1.491 . S
C1841 C1840 1.400 . S
C1841 C1842 1.398 . S
C1842 H1830 0.950 . S
C1842 C1841 1.398 . S
C1842 C1843 1.391 . S
C1843 H1831 0.950 . S
C1843 C1839 1.393 . S
C1843 C1842 1.391 . S
H1844 C1852 0.950 . S
H1845 C1857 0.950 . S
H1846 C1854 0.950 . S
H1847 C1856 0.950 . S
H1848 C1858 0.950 . S
H1849 C1860 0.950 . S
H1850 C1862 0.950 . S
H1851 C1863 0.950 . S
C1852 H1844 0.950 . S
C1852 C1853 1.386 . S
C1852 C1854 1.391 . S
C1853 C1852 1.386 . S
C1853 C1857 1.393 . S
C1854 H1846 0.950 . S
C1854 C1852 1.391 . S
C1854 C1855 1.400 . S
C1855 C1854 1.400 . S
C1855 C1856 1.398 . S
C1855 C1861 1.491 . S
C1856 H1847 0.950 . S
C1856 C1855 1.398 . S
C1856 C1857 1.391 . S
C1857 H1845 0.950 . S
C1857 C1853 1.393 . S
C1857 C1856 1.391 . S
C1858 H1848 0.950 . S
C1858 C1859 1.386 . S
C1858 C1860 1.391 . S
C1859 C1858 1.386 . S
C1859 C1863 1.393 . S
C1860 H1849 0.950 . S
C1860 C1858 1.391 . S
C1860 C1861 1.400 . S
C1861 C1855 1.491 . S
C1861 C1860 1.400 . S
C1861 C1862 1.398 . S
C1862 H1850 0.950 . S
C1862 C1861 1.398 . S
C1862 C1863 1.391 . S
C1863 H1851 0.950 . S
C1863 C1859 1.393 . S
C1863 C1862 1.391 . S
H1864 C1872 0.950 . S
H1865 C1877 0.950 . S
H1866 C1874 0.950 . S
H1867 C1876 0.950 . S
H1868 C1878 0.950 . S
H1869 C1880 0.950 . S
H1870 C1882 0.950 . S
H1871 C1883 0.950 . S
C1872 H1864 0.950 . S
C1872 C1873 1.386 . S
C1872 C1874 1.391 . S
C1873 C1872 1.386 . S
C1873 C1877 1.393 . S
C1874 H1866 0.950 . S
C1874 C1872 1.391 . S
C1874 C1875 1.400 . S
C1875 C1874 1.400 . S
C1875 C1876 1.398 . S
C1875 C1881 1.491 . S
C1876 H1867 0.950 . S
C1876 C1875 1.398 . S
C1876 C1877 1.391 . S
C1877 H1865 0.950 . S
C1877 C1873 1.393 . S
C1877 C1876 1.391 . S
C1878 H1868 0.950 . S
C1878 C1879 1.386 . S
C1878 C1880 1.391 . S
C1879 C1878 1.386 . S
C1879 C1883 1.393 . S
C1880 H1869 0.950 . S
C1880 C1878 1.391 . S
C1880 C1881 1.400 . S
C1881 C1875 1.491 . S
C1881 C1880 1.400 . S
C1881 C1882 1.398 . S
C1882 H1870 0.950 . S
C1882 C1881 1.398 . S
C1882 C1883 1.391 . S
C1883 H1871 0.950 . S
C1883 C1879 1.393 . S
C1883 C1882 1.391 . S
H1884 C1892 0.950 . S
H1885 C1897 0.950 . S
H1886 C1894 0.950 . S
H1887 C1896 0.950 . S
H1888 C1898 0.950 . S
H1889 C1900 0.950 . S
H1890 C1902 0.950 . S
H1891 C1903 0.950 . S
C1892 H1884 0.950 . S
C1892 C1893 1.386 . S
C1892 C1894 1.391 . S
C1893 C1892 1.386 . S
C1893 C1897 1.393 . S
C1894 H1886 0.950 . S
C1894 C1892 1.391 . S
C1894 C1895 1.400 . S
C1895 C1894 1.400 . S
C1895 C1896 1.398 . S
C1895 C1901 1.491 . S
C1896 H1887 0.950 . S
C1896 C1895 1.398 . S
C1896 C1897 1.391 . S
C1897 H1885 0.950 . S
C1897 C1893 1.393 . S
C1897 C1896 1.391 . S
C1898 H1888 0.950 . S
C1898 C1899 1.386 . S
C1898 C1900 1.391 . S
C1899 C1898 1.386 . S
C1899 C1903 1.393 . S
C1900 H1889 0.950 . S
C1900 C1898 1.391 . S
C1900 C1901 1.400 . S
C1901 C1895 1.491 . S
C1901 C1900 1.400 . S
C1901 C1902 1.398 . S
C1902 H1890 0.950 . S
C1902 C1901 1.398 . S
C1902 C1903 1.391 . S
C1903 H1891 0.950 . S
C1903 C1899 1.393 . S
C1903 C1902 1.391 . S
H1904 C1912 0.950 . S
H1905 C1917 0.950 . S
H1906 C1914 0.950 . S
H1907 C1916 0.950 . S
H1908 C1918 0.950 . S
H1909 C1920 0.950 . S
H1910 C1922 0.950 . S
H1911 C1923 0.950 . S
C1912 H1904 0.950 . S
C1912 C1913 1.386 . S
C1912 C1914 1.391 . S
C1913 C1912 1.386 . S
C1913 C1917 1.393 . S
C1914 H1906 0.950 . S
C1914 C1912 1.391 . S
C1914 C1915 1.400 . S
C1915 C1914 1.400 . S
C1915 C1916 1.398 . S
C1915 C1921 1.491 . S
C1916 H1907 0.950 . S
C1916 C1915 1.398 . S
C1916 C1917 1.391 . S
C1917 H1905 0.950 . S
C1917 C1913 1.393 . S
C1917 C1916 1.391 . S
C1918 H1908 0.950 . S
C1918 C1919 1.386 . S
C1918 C1920 1.391 . S
C1919 C1918 1.386 . S
C1919 C1923 1.393 . S
C1920 H1909 0.950 . S
C1920 C1918 1.391 . S
C1920 C1921 1.400 . S
C1921 C1915 1.491 . S
C1921 C1920 1.400 . S
C1921 C1922 1.398 . S
C1922 H1910 0.950 . S
C1922 C1921 1.398 . S
C1922 C1923 1.391 . S
C1923 H1911 0.950 . S
C1923 C1919 1.393 . S
C1923 C1922 1.391 . S
H1924 C1932 0.950 . S
H1925 C1937 0.950 . S
H1926 C1934 0.950 . S
H1927 C1936 0.950 . S
H1928 C1938 0.950 . S
H1929 C1940 0.950 . S
H1930 C1942 0.950 . S
H1931 C1943 0.950 . S
C1932 H1924 0.950 . S
C1932 C1933 1.386 . S
C1932 C1934 1.391 . S
C1933 C1932 1.386 . S
C1933 C1937 1.393 . S
C1934 H1926 0.950 . S
C1934 C1932 1.391 . S
C1934 C1935 1.400 . S
C1935 C1934 1.400 . S
C1935 C1936 1.398 . S
C1935 C1941 1.491 . S
C1936 H1927 0.950 . S
C1936 C1935 1.398 . S
C1936 C1937 1.391 . S
C1937 H1925 0.950 . S
C1937 C1933 1.393 . S
C1937 C1936 1.391 . S
C1938 H1928 0.950 . S
C1938 C1939 1.386 . S
C1938 C1940 1.391 . S
C1939 C1938 1.386 . S
C1939 C1943 1.393 . S
C1940 H1929 0.950 . S
C1940 C1938 1.391 . S
C1940 C1941 1.400 . S
C1941 C1935 1.491 . S
C1941 C1940 1.400 . S
C1941 C1942 1.398 . S
C1942 H1930 0.950 . S
C1942 C1941 1.398 . S
C1942 C1943 1.391 . S
C1943 H1931 0.950 . S
C1943 C1939 1.393 . S
C1943 C1942 1.391 . S
C513 C5 1.225 . S
C519 C257 1.225 . S
C533 C271 1.259 . S
C539 C19 1.259 . S
C553 C285 1.239 . S
C559 C33 1.239 . S
C573 C47 1.239 . S
C579 C467 1.239 . S
C593 C61 1.226 . S
C599 C481 1.226 . S
C613 C75 1.261 . S
C619 C495 1.261 . S
C633 C341 1.259 . S
C639 C89 1.259 . S
C653 C103 1.260 . S
C659 C355 1.260 . S
C673 C117 1.222 . S
C679 C369 1.222 . S
C693 C215 1.219 . S
C699 C131 1.219 . S
C713 C229 1.248 . S
C719 C145 1.248 . S
C733 C243 1.211 . S
C739 C159 1.211 . S
C753 C425 1.252 . S
C759 C173 1.252 . S
C773 C439 1.213 . S
C779 C187 1.213 . S
C793 C201 1.248 . S
C799 C453 1.248 . S
C813 C383 1.211 . S
C819 C299 1.211 . S
C833 C313 1.212 . S
C839 C397 1.212 . S
C853 C327 1.233 . S
C859 C411 1.233 . S
C873 C11 1.412 . S
C879 C389 1.433 . S
C893 C403 1.420 . S
C899 C25 1.427 . S
C913 C417 1.416 . S
C919 C39 1.430 . S
C933 C179 1.428 . S
C939 C53 1.417 . S
C953 C193 1.433 . S
C959 C67 1.414 . S
C973 C207 1.415 . S
C979 C81 1.431 . S
C993 C95 1.416 . S
C999 C305 1.429 . S
C1013 C319 1.430 . S
C1019 C109 1.415 . S
C1033 C333 1.415 . S
C1039 C123 1.432 . S
C1053 C137 1.431 . S
C1059 C431 1.414 . S
C1073 C151 1.421 . S
C1079 C445 1.424 . S
C1093 C165 1.415 . S
C1099 C459 1.430 . S
C1113 C221 1.434 . S
C1119 C347 1.411 . S
C1133 C235 1.424 . S
C1139 C361 1.422 . S
C1153 C249 1.425 . S
C1159 C375 1.419 . S
C1173 C263 1.434 . S
C1179 C473 1.411 . S
C1193 C487 1.412 . S
C1199 C277 1.433 . S
C1213 C291 1.434 . S
C1219 C501 1.412 . S
C1233 C26 0.905 . S
C1239 C4 0.849 . S
C1253 C18 0.883 . S
C1259 C40 0.915 . S
C1273 C32 0.875 . S
C1279 C12 0.918 . S
C1293 C46 0.868 . S
C1299 C82 0.919 . S
C1313 C54 0.897 . S
C1319 C60 0.861 . S
C1333 C74 0.864 . S
C1339 C68 0.896 . S
C1353 C88 0.897 . S
C1359 C110 0.908 . S
C1373 C102 0.870 . S
C1379 C124 0.894 . S
C1393 C116 0.862 . S
C1399 C96 0.897 . S
C1413 C166 0.917 . S
C1419 C130 0.845 . S
C1433 C144 0.855 . S
C1439 C138 0.920 . S
C1453 C152 0.917 . S
C1459 C158 0.846 . S
C1473 C194 0.894 . S
C1479 C172 0.902 . S
C1493 C208 0.891 . S
C1499 C186 0.884 . S
C1513 C180 0.909 . S
C1519 C200 0.844 . S
C1533 C214 0.859 . S
C1539 C250 0.920 . S
C1553 C228 0.860 . S
C1559 C222 0.920 . S
C1573 C242 0.889 . S
C1579 C236 0.913 . S
C1593 C278 0.911 . S
C1599 C256 0.844 . S
C1613 C270 0.844 . S
C1619 C292 0.910 . S
C1633 C284 0.865 . S
C1639 C264 0.919 . S
C1653 C298 0.898 . S
C1659 C334 0.907 . S
C1673 C312 0.853 . S
C1679 C306 0.920 . S
C1693 C320 0.920 . S
C1699 C326 0.859 . S
C1713 C362 0.900 . S
C1719 C340 0.903 . S
C1733 C354 0.887 . S
C1739 C376 0.891 . S
C1753 C348 0.905 . S
C1759 C368 0.899 . S
C1773 C382 0.844 . S
C1779 C418 0.915 . S
C1793 C396 0.845 . S
C1799 C390 0.909 . S
C1813 C410 0.903 . S
C1819 C404 0.900 . S
C1833 C424 0.892 . S
C1839 C446 0.891 . S
C1853 C438 0.844 . S
C1859 C460 0.915 . S
C1873 C452 0.900 . S
C1879 C432 0.893 . S
C1893 C466 0.903 . S
C1899 C502 0.902 . S
C1913 C480 0.850 . S
C1919 C474 0.903 . S
C1933 C488 0.892 . S
C1939 C494 0.899 . S
