# Generated by pormake.
# Topology noz, (5)-cn, num edge types: 1
# Building blocks:
#     Node 0, Type 0, BuildingBlock: BEQFEK_clean_sbu_0, # of connection points: 5
#     Node 1, Type 0, BuildingBlock: BEQFEK_clean_sbu_0, # of connection points: 5
#     Node 2, Type 0, BuildingBlock: BEQFEK_clean_sbu_0, # of connection points: 5
#     Node 3, Type 0, BuildingBlock: BEQFEK_clean_sbu_0, # of connection points: 5
#     Node 4, Type 0, BuildingBlock: BEQFEK_clean_sbu_0, # of connection points: 5
#     Node 5, Type 0, BuildingBlock: BEQFEK_clean_sbu_0, # of connection points: 5
#     Node 6, Type 0, BuildingBlock: BEQFEK_clean_sbu_0, # of connection points: 5
#     Node 7, Type 0, BuildingBlock: BEQFEK_clean_sbu_0, # of connection points: 5
#     Edge 8, Type (0, 0), BuildingBlock: XUDNAN_clean_linker_2, # of connection points: 2
#     Edge 9, Type (0, 0), BuildingBlock: XUDNAN_clean_linker_2, # of connection points: 2
#     Edge 10, Type (0, 0), BuildingBlock: XUDNAN_clean_linker_2, # of connection points: 2
#     Edge 11, Type (0, 0), BuildingBlock: XUDNAN_clean_linker_2, # of connection points: 2
#     Edge 12, Type (0, 0), BuildingBlock: XUDNAN_clean_linker_2, # of connection points: 2
#     Edge 13, Type (0, 0), BuildingBlock: XUDNAN_clean_linker_2, # of connection points: 2
#     Edge 14, Type (0, 0), BuildingBlock: XUDNAN_clean_linker_2, # of connection points: 2
#     Edge 15, Type (0, 0), BuildingBlock: XUDNAN_clean_linker_2, # of connection points: 2
#     Edge 16, Type (0, 0), BuildingBlock: XUDNAN_clean_linker_2, # of connection points: 2
#     Edge 17, Type (0, 0), BuildingBlock: XUDNAN_clean_linker_2, # of connection points: 2
#     Edge 18, Type (0, 0), BuildingBlock: XUDNAN_clean_linker_2, # of connection points: 2
#     Edge 19, Type (0, 0), BuildingBlock: XUDNAN_clean_linker_2, # of connection points: 2
#     Edge 20, Type (0, 0), BuildingBlock: XUDNAN_clean_linker_2, # of connection points: 2
#     Edge 21, Type (0, 0), BuildingBlock: XUDNAN_clean_linker_2, # of connection points: 2
#     Edge 22, Type (0, 0), BuildingBlock: XUDNAN_clean_linker_2, # of connection points: 2
#     Edge 23, Type (0, 0), BuildingBlock: XUDNAN_clean_linker_2, # of connection points: 2
#     Edge 24, Type (0, 0), BuildingBlock: XUDNAN_clean_linker_2, # of connection points: 2
#     Edge 25, Type (0, 0), BuildingBlock: XUDNAN_clean_linker_2, # of connection points: 2
#     Edge 26, Type (0, 0), BuildingBlock: XUDNAN_clean_linker_2, # of connection points: 2
#     Edge 27, Type (0, 0), BuildingBlock: XUDNAN_clean_linker_2, # of connection points: 2
# Relax obj value: 0.090
# Max RMSD: 0.172
# Mean RMSD: 0.118
data_MOF--net-noz--node1-BEQFEK_clean_sbu_0--edge1-XUDNAN_clean_linker_2
_symmetry_space_group_name_H-M    P1
_symmetry_Int_Tables_number       1
_symmetry_cell_setting            triclinic
loop_
_symmetry_equiv_pos_as_xyz
'x, y, z'
_cell_length_a     24.456714
_cell_length_b     43.451702
_cell_length_c     43.144187
_cell_angle_alpha  88.873682
_cell_angle_beta   96.561438
_cell_angle_gamma 82.889395
loop_
_atom_site_label
_atom_site_type_symbol
_atom_site_fract_x
_atom_site_fract_y
_atom_site_fract_z
_atom_type_partial_charge
Co0 Co 0.11333 0.36933 0.37803 0.0
Co1 Co 0.03913 0.33355 0.41767 0.0
C2 C 0.15751 0.31306 0.42264 0.0
O3 O 0.16139 0.33559 0.40393 0.0
O4 O 0.11061 0.30745 0.42998 0.0
C5 C 0.18408 0.36135 0.33102 0.0
O6 O 0.17844 0.33238 0.33781 0.0
C7 C 0.97174 0.29504 0.45258 0.0
C8 C 0.90132 0.33089 0.45813 0.0
C9 C 0.92246 0.30039 0.4658 0.0
N10 N 0.97921 0.3214 0.4376 0.0
N11 N 0.93669 0.34255 0.44086 0.0
C12 C 0.01303 0.26647 0.45622 0.0
H13 H 0.03427 0.26343 0.43488 0.0
H14 H 0.99264 0.2457 0.46098 0.0
H15 H 0.04483 0.26913 0.47616 0.0
C16 C 0.02132 0.36081 0.32913 0.0
N17 N 0.04871 0.35458 0.3579 0.0
N18 N 0.02002 0.33764 0.37393 0.0
C19 C 0.9742 0.33189 0.35563 0.0
C20 C 0.97309 0.34668 0.3267 0.0
C21 C 0.03942 0.38166 0.3053 0.0
H22 H 0.07639 0.36953 0.296 0.0
H23 H 1.0066 0.3879 0.28547 0.0
H24 H 0.05162 0.40297 0.31646 0.0
O25 O 0.09243 0.40361 0.40638 0.0
O26 O 0.04584 0.37485 0.43417 0.0
H27 H 0.90268 0.3071 0.34748 0.0
H28 H 0.94621 0.29712 0.38383 0.0
C29 C 0.92854 0.31639 0.36701 0.0
H30 H 0.90144 0.33357 0.3789 0.0
H31 H 0.9326 0.36532 0.43193 0.0
O32 O 0.1588 0.38281 0.3457 0.0
C33 C 0.06476 0.40022 0.42927 0.0
Co34 Co 0.49975 0.63681 0.87226 0.0
Co35 Co 0.59014 0.65188 0.92729 0.0
C36 C 0.47471 0.68335 0.92129 0.0
O37 O 0.46226 0.66749 0.89775 0.0
O38 O 0.52401 0.68123 0.93499 0.0
C39 C 0.42659 0.66172 0.82147 0.0
O40 O 0.44477 0.68637 0.83409 0.0
C41 C 0.66353 0.68944 0.96486 0.0
C42 C 0.73123 0.65441 0.98611 0.0
C43 C 0.71343 0.68601 0.98437 0.0
N44 N 0.65241 0.66124 0.95557 0.0
N45 N 0.69294 0.64038 0.96855 0.0
C46 C 0.62887 0.71909 0.95322 0.0
H47 H 0.60771 0.71626 0.92947 0.0
H48 H 0.65463 0.73837 0.95275 0.0
H49 H 0.59663 0.72504 0.969 0.0
C50 C 0.59048 0.64785 0.8352 0.0
N51 N 0.56882 0.64756 0.86254 0.0
N52 N 0.60616 0.6541 0.88512 0.0
C53 C 0.65282 0.65881 0.87277 0.0
C54 C 0.64442 0.65505 0.84074 0.0
C55 C 0.55945 0.64165 0.80443 0.0
H56 H 0.53863 0.62058 0.80669 0.0
H57 H 0.52709 0.66154 0.79761 0.0
H58 H 0.58655 0.63889 0.78555 0.0
O59 O 0.5099 0.59835 0.89868 0.0
O60 O 0.57208 0.60936 0.93771 0.0
H61 H 0.71754 0.64447 0.90961 0.0
H62 H 0.74074 0.66374 0.87725 0.0
C63 C 0.70616 0.66351 0.89172 0.0
H64 H 0.70052 0.68577 0.9038 0.0
H65 H 0.69487 0.61659 0.96506 0.0
O66 O 0.44607 0.63513 0.8337 0.0
C67 C 0.53934 0.5913 0.92484 0.0
Co68 Co 0.05799 0.6492 0.55666 0.0
Co69 Co 0.98679 0.62694 0.60642 0.0
C70 C 0.94054 0.676 0.55558 0.0
O71 O 0.98637 0.67603 0.5443 0.0
O72 O 0.93655 0.6581 0.57872 0.0
C73 C 0.11054 0.68847 0.51858 0.0
O74 O 0.06527 0.70801 0.51939 0.0
C75 C 0.92039 0.63725 0.65889 0.0
C76 C 0.91864 0.58942 0.67667 0.0
C77 C 0.90085 0.62022 0.68197 0.0
N78 N 0.94902 0.61742 0.64121 0.0
N79 N 0.94767 0.58887 0.65194 0.0
C80 C 0.91045 0.67171 0.65292 0.0
H81 H 0.91679 0.67798 0.6288 0.0
H82 H 0.94034 0.68292 0.66881 0.0
H83 H 0.86774 0.68101 0.65723 0.0
C84 C 0.13167 0.65979 0.61416 0.0
N85 N 0.08407 0.65152 0.59973 0.0
N86 N 0.05506 0.64151 0.62083 0.0
C87 C 0.08369 0.6427 0.64939 0.0
C88 C 0.13312 0.65449 0.64612 0.0
C89 C 0.17668 0.67035 0.59736 0.0
H90 H 0.18896 0.65279 0.5803 0.0
H91 H 0.1607 0.69247 0.58427 0.0
H92 H 0.2139 0.67368 0.61356 0.0
O93 O 0.04972 0.60576 0.54612 0.0
O94 O 1.0014 0.58904 0.58222 0.0
H95 H 0.05102 0.60942 0.67701 0.0
H96 H 0.09584 0.63308 0.6995 0.0
C97 C 0.06377 0.63297 0.67918 0.0
H98 H 0.02713 0.64923 0.68356 0.0
H99 H 0.96667 0.569 0.6424 0.0
O100 O 0.11473 0.662 0.53218 0.0
C101 C 0.02679 0.58441 0.55817 0.0
Co102 Co 0.49656 0.37287 0.11711 0.0
Co103 Co 0.59502 0.35284 0.07729 0.0
C104 C 0.49024 0.32304 0.06978 0.0
O105 O 0.47 0.33883 0.09133 0.0
O106 O 0.53783 0.32641 0.06188 0.0
C107 C 0.42408 0.36126 0.16257 0.0
O108 O 0.43914 0.33236 0.15568 0.0
C109 C 0.67674 0.31719 0.04207 0.0
C110 C 0.73981 0.34933 0.04062 0.0
C111 C 0.72657 0.32078 0.03075 0.0
N112 N 0.66119 0.34251 0.0579 0.0
N113 N 0.69904 0.36165 0.05685 0.0
C114 C 0.64507 0.28989 0.03869 0.0
H115 H 0.6271 0.28554 0.0606 0.0
H116 H 0.67208 0.26878 0.03307 0.0
H117 H 0.61045 0.29509 0.01962 0.0
C118 C 0.59098 0.36241 0.16789 0.0
N119 N 0.56954 0.36061 0.13786 0.0
N120 N 0.6098 0.35038 0.12141 0.0
C121 C 0.6577 0.34453 0.14059 0.0
C122 C 0.64753 0.35225 0.17065 0.0
C123 C 0.55831 0.37515 0.1931 0.0
H124 H 0.53397 0.3977 0.185 0.0
H125 H 0.52875 0.35884 0.19812 0.0
H126 H 0.58534 0.37814 0.21499 0.0
O127 O 0.49537 0.41024 0.08898 0.0
O128 O 0.56809 0.396 0.06357 0.0
H129 H 0.7277 0.35636 0.11976 0.0
H130 H 0.74468 0.32575 0.14906 0.0
C131 C 0.71325 0.33551 0.1297 0.0
H132 H 0.70998 0.31804 0.11144 0.0
H133 H 0.69666 0.38335 0.06692 0.0
O134 O 0.44358 0.38288 0.14871 0.0
C135 C 0.52815 0.41592 0.06921 0.0
Co136 Co 0.61213 0.86567 0.38284 0.0
Co137 Co 0.52076 0.84364 0.41983 0.0
C138 C 0.63852 0.81482 0.43321 0.0
O139 O 0.65511 0.83193 0.41269 0.0
O140 O 0.58766 0.81728 0.43749 0.0
C141 C 0.69384 0.85611 0.34045 0.0
O142 O 0.69192 0.82685 0.34803 0.0
C143 C 0.4471 0.80284 0.44308 0.0
C144 C 0.38205 0.83693 0.45882 0.0
C145 C 0.39725 0.80539 0.45597 0.0
N146 N 0.46005 0.83156 0.43836 0.0
N147 N 0.42144 0.8518 0.44814 0.0
C148 C 0.48007 0.77424 0.43295 0.0
H149 H 0.50717 0.78031 0.4154 0.0
H150 H 0.45215 0.75773 0.42298 0.0
H151 H 0.50692 0.76278 0.45346 0.0
C152 C 0.52837 0.85115 0.32923 0.0
N153 N 0.54707 0.85189 0.35997 0.0
N154 N 0.5095 0.84233 0.37618 0.0
C155 C 0.46624 0.83535 0.35659 0.0
C156 C 0.47685 0.84036 0.32627 0.0
C157 C 0.55862 0.861 0.30327 0.0
H158 H 0.57491 0.88322 0.30881 0.0
H159 H 0.59437 0.84318 0.30092 0.0
H160 H 0.53123 0.86368 0.28077 0.0
O161 O 0.58983 0.90407 0.40678 0.0
O162 O 0.52507 0.88604 0.43144 0.0
H163 H 0.39889 0.84242 0.38447 0.0
H164 H 0.38008 0.82756 0.34666 0.0
C165 C 0.41339 0.82651 0.36653 0.0
H166 H 0.42094 0.80252 0.3766 0.0
H167 H 0.42135 0.87581 0.44688 0.0
O168 O 0.66289 0.87702 0.35269 0.0
C169 C 0.55255 0.90783 0.42529 0.0
Co170 Co 0.01107 0.13356 0.87804 0.0
Co171 Co 0.09927 0.14936 0.93201 0.0
C172 C 0.98591 0.18613 0.91981 0.0
O173 O 0.973 0.16925 0.89712 0.0
O174 O 0.03391 0.18159 0.93538 0.0
C175 C 0.92923 0.14541 0.82554 0.0
O176 O 0.9341 0.17441 0.83211 0.0
C177 C 0.18253 0.18704 0.95956 0.0
C178 C 0.22591 0.157 0.99898 0.0
C179 C 0.22514 0.18547 0.98386 0.0
N180 N 0.15934 0.16059 0.96007 0.0
N181 N 0.18521 0.1428 0.98383 0.0
C182 C 0.16188 0.21395 0.93736 0.0
H183 H 0.12951 0.2077 0.91924 0.0
H184 H 0.19658 0.22172 0.9261 0.0
H185 H 0.14414 0.23369 0.95056 0.0
C186 C 0.10201 0.14094 0.83997 0.0
N187 N 0.08092 0.14148 0.86748 0.0
N188 N 0.11952 0.14652 0.89002 0.0
C189 C 0.16725 0.14836 0.87742 0.0
C190 C 0.15763 0.14519 0.84525 0.0
C191 C 0.06827 0.1379 0.80922 0.0
H192 H 0.05516 0.11436 0.80803 0.0
H193 H 0.03045 0.15502 0.80734 0.0
H194 H 0.0912 0.14215 0.78917 0.0
O195 O 0.0193 0.09783 0.90779 0.0
O196 O 0.08008 0.10863 0.94708 0.0
H197 H 0.22436 0.13828 0.91915 0.0
H198 H 0.25652 0.13864 0.88351 0.0
C199 C 0.22242 0.14991 0.8959 0.0
H200 H 0.22877 0.17452 0.89895 0.0
H201 H 0.17537 0.12087 0.98959 0.0
O202 O 0.96048 0.12377 0.84142 0.0
C203 C 0.04685 0.09086 0.93438 0.0
Co204 Co 0.57833 0.15151 0.5628 0.0
Co205 Co 0.48166 0.13504 0.60069 0.0
C206 C 0.46293 0.18721 0.55358 0.0
O207 O 0.51292 0.18156 0.54772 0.0
O208 O 0.44459 0.17143 0.57436 0.0
C209 C 0.65033 0.19454 0.55606 0.0
O210 O 0.6166 0.20831 0.57461 0.0
C211 C 0.4023 0.1424 0.64773 0.0
C212 C 0.39757 0.09368 0.6615 0.0
C213 C 0.3803 0.12401 0.66878 0.0
N214 N 0.43258 0.12375 0.62972 0.0
N215 N 0.42866 0.09466 0.63774 0.0
C216 C 0.39427 0.17709 0.64433 0.0
H217 H 0.39091 0.18441 0.61941 0.0
H218 H 0.43068 0.18642 0.65666 0.0
H219 H 0.35618 0.18715 0.65407 0.0
C220 C 0.63838 0.14747 0.62646 0.0
N221 N 0.5911 0.14803 0.60693 0.0
N222 N 0.55075 0.14216 0.62307 0.0
C223 C 0.57134 0.138 0.65351 0.0
C224 C 0.62722 0.14155 0.65652 0.0
C225 C 0.69487 0.14788 0.6163 0.0
H226 H 0.6966 0.13785 0.59297 0.0
H227 H 0.7043 0.17216 0.61533 0.0
H228 H 0.72727 0.13447 0.63313 0.0
O229 O 0.56584 0.11072 0.54598 0.0
O230 O 0.49579 0.10032 0.57176 0.0
H231 H 0.52375 0.10666 0.67404 0.0
H232 H 0.56482 0.12721 0.70215 0.0
C233 C 0.53923 0.12917 0.6791 0.0
H234 H 0.50328 0.14705 0.68033 0.0
H235 H 0.44898 0.07544 0.62778 0.0
O236 O 0.64214 0.16787 0.54635 0.0
C237 C 0.52961 0.09331 0.55171 0.0
Co238 Co 0.99939 0.87724 0.12668 0.0
Co239 Co 0.0757 0.84546 0.0799 0.0
C240 C 0.96773 0.82459 0.08331 0.0
O241 O 0.95858 0.84582 0.10283 0.0
O242 O 0.01435 0.81973 0.07259 0.0
C243 C 0.9418 0.86618 0.17744 0.0
O244 O 0.95877 0.83766 0.1701 0.0
C245 C 0.14527 0.80964 0.03764 0.0
C246 C 0.2189 0.83478 0.04275 0.0
C247 C 0.19865 0.80928 0.02899 0.0
N248 N 0.13597 0.83349 0.05653 0.0
N249 N 0.17955 0.84882 0.05881 0.0
C250 C 0.10179 0.78972 0.02643 0.0
H251 H 0.06002 0.80319 0.02518 0.0
H252 H 0.1036 0.76975 0.04312 0.0
H253 H 0.1078 0.78111 1.00287 0.0
C254 C 0.10327 0.85977 0.17062 0.0
N255 N 0.07322 0.86013 0.14229 0.0
N256 N 0.1034 0.84463 0.123 0.0
C257 C 0.15247 0.83263 0.13879 0.0
C258 C 0.15446 0.84221 0.16934 0.0
C259 C 0.08273 0.87531 0.19845 0.0
H260 H 0.0564 0.89748 0.19109 0.0
H261 H 0.05699 0.85999 0.20959 0.0
H262 H 0.1176 0.87967 0.21592 0.0
O263 O 1.00015 0.91393 0.09837 0.0
O264 O 0.04775 0.88814 0.06407 0.0
H265 H 0.22599 0.82812 0.11599 0.0
H266 H 0.22236 0.79638 0.14226 0.0
C267 C 0.19743 0.81297 0.12477 0.0
H268 H 0.17946 0.79968 0.10535 0.0
H269 H 0.18299 0.86843 0.07212 0.0
O270 O 0.95573 0.88861 0.16198 0.0
C271 C 0.02105 0.91287 0.07264 0.0
H272 H 0.24205 0.31996 0.29604 0.0
H273 H 0.20362 0.41866 0.30952 0.0
H274 H 0.26069 0.42974 0.26776 0.0
H275 H 0.38342 0.32134 0.28174 0.0
H276 H 0.38106 0.29206 0.25277 0.0
H277 H 0.33732 0.29222 0.28363 0.0
H278 H 0.25066 0.29414 0.24266 0.0
H279 H 0.29412 0.29402 0.21166 0.0
H280 H 0.23748 0.3246 0.21278 0.0
H281 H 0.32293 0.42965 0.22413 0.0
H282 H 0.38406 0.41847 0.18274 0.0
H283 H 0.38021 0.3198 0.19826 0.0
C284 C 0.24552 0.34396 0.2903 0.0
C285 C 0.21831 0.36845 0.30613 0.0
C286 C 0.22409 0.39949 0.29778 0.0
C287 C 0.25642 0.40601 0.27407 0.0
C288 C 0.28265 0.38124 0.25893 0.0
C289 C 0.27746 0.35084 0.26677 0.0
C290 C 0.30965 0.32833 0.24707 0.0
C291 C 0.35558 0.30725 0.26753 0.0
C292 C 0.27064 0.30915 0.22737 0.0
C293 C 0.33378 0.35077 0.2268 0.0
C294 C 0.31789 0.38119 0.23397 0.0
C295 C 0.3355 0.40591 0.21834 0.0
C296 C 0.37022 0.39932 0.19484 0.0
C297 C 0.3869 0.36827 0.18713 0.0
C298 C 0.36819 0.34381 0.20344 0.0
H299 H 0.36681 0.61764 0.79298 0.0
H300 H 0.39129 0.71478 0.78664 0.0
H301 H 0.31985 0.72297 0.7413 0.0
H302 H 0.3429 0.60649 0.70943 0.0
H303 H 0.29 0.58155 0.71264 0.0
H304 H 0.3443 0.58281 0.74437 0.0
H305 H 0.27043 0.59659 0.78207 0.0
H306 H 0.21591 0.59553 0.75042 0.0
H307 H 0.21876 0.62985 0.77304 0.0
H308 H 0.24507 0.72145 0.69739 0.0
H309 H 0.17112 0.70974 0.65692 0.0
H310 H 0.19378 0.61388 0.69069 0.0
C311 C 0.35737 0.64055 0.7819 0.0
C312 C 0.38481 0.66556 0.79344 0.0
C313 C 0.37091 0.69524 0.77837 0.0
C314 C 0.33034 0.70017 0.75253 0.0
C315 C 0.30373 0.67522 0.74192 0.0
C316 C 0.31657 0.64597 0.75601 0.0
C317 C 0.28077 0.62337 0.74003 0.0
C318 C 0.31664 0.597 0.72577 0.0
C319 C 0.24431 0.61059 0.76275 0.0
C320 C 0.246 0.64456 0.71487 0.0
C321 C 0.26006 0.67437 0.71644 0.0
C322 C 0.23373 0.69819 0.69586 0.0
C323 C 0.19192 0.69137 0.67298 0.0
C324 C 0.17685 0.66104 0.67088 0.0
C325 C 0.20429 0.63734 0.69207 0.0
H326 H 0.82403 0.59035 0.7075 0.0
H327 H 0.90396 0.67412 0.71483 0.0
H328 H 0.84494 0.69278 0.75475 0.0
H329 H 0.687 0.6241 0.71904 0.0
H330 H 0.6734 0.59191 0.74273 0.0
H331 H 0.72048 0.58555 0.71363 0.0
H332 H 0.79768 0.56008 0.75581 0.0
H333 H 0.75074 0.5662 0.78501 0.0
H334 H 0.81663 0.58113 0.79018 0.0
H335 H 0.77546 0.70296 0.79328 0.0
H336 H 0.70493 0.70196 0.83012 0.0
H337 H 0.6767 0.60973 0.80119 0.0
C338 C 0.82908 0.61266 0.71745 0.0
C339 C 0.86708 0.63134 0.70694 0.0
C340 C 0.87316 0.66009 0.72105 0.0
C341 C 0.84029 0.67073 0.74417 0.0
C342 C 0.80234 0.65207 0.75343 0.0
C343 C 0.7971 0.62345 0.74082 0.0
C344 C 0.75456 0.60741 0.75566 0.0
C345 C 0.70599 0.60193 0.73131 0.0
C346 C 0.78153 0.5769 0.77268 0.0
C347 C 0.73652 0.63157 0.77846 0.0
C348 C 0.76427 0.65727 0.77667 0.0
C349 C 0.75372 0.68288 0.79504 0.0
C350 C 0.7138 0.68213 0.81586 0.0
C351 C 0.68546 0.65588 0.81823 0.0
C352 C 0.69728 0.63027 0.79943 0.0
H353 H 0.72506 0.30845 0.20216 0.0
H354 H 0.66625 0.40686 0.19669 0.0
H355 H 0.74321 0.41618 0.23644 0.0
H356 H 0.77263 0.30312 0.28601 0.0
H357 H 0.83252 0.27565 0.28153 0.0
H358 H 0.77057 0.27664 0.25437 0.0
H359 H 0.82791 0.28418 0.20847 0.0
H360 H 0.88991 0.28355 0.23549 0.0
H361 H 0.86842 0.31614 0.20849 0.0
H362 H 0.82863 0.41505 0.27466 0.0
H363 H 0.91492 0.40319 0.31105 0.0
H364 H 0.9201 0.3057 0.29066 0.0
C365 C 0.72818 0.33184 0.20976 0.0
C366 C 0.6898 0.35697 0.19678 0.0
C367 C 0.695 0.38734 0.20686 0.0
C368 C 0.73867 0.39284 0.22921 0.0
C369 C 0.77665 0.36766 0.24113 0.0
C370 C 0.77167 0.33772 0.23197 0.0
C371 C 0.81902 0.31492 0.24776 0.0
C372 C 0.79738 0.29118 0.26866 0.0
C373 C 0.85334 0.29875 0.22361 0.0
C374 C 0.85165 0.33675 0.26701 0.0
C375 C 0.82641 0.36706 0.26285 0.0
C376 C 0.84878 0.39142 0.27811 0.0
C377 C 0.89786 0.38455 0.29849 0.0
C378 C 0.92403 0.35365 0.30324 0.0
C379 C 0.90078 0.32951 0.28721 0.0
H380 H 0.75952 0.8166 0.3073 0.0
H381 H 0.70986 0.91442 0.32053 0.0
H382 H 0.76958 0.928 0.28111 0.0
H383 H 0.90193 0.82252 0.29679 0.0
H384 H 0.9045 0.79363 0.26739 0.0
H385 H 0.85869 0.79181 0.29704 0.0
H386 H 0.77512 0.79195 0.25423 0.0
H387 H 0.82068 0.79374 0.22446 0.0
H388 H 0.76131 0.82275 0.22471 0.0
H389 H 0.83446 0.93069 0.2394 0.0
H390 H 0.89759 0.92215 0.19858 0.0
H391 H 0.90359 0.82258 0.21309 0.0
C392 C 0.7613 0.8409 0.30207 0.0
C393 C 0.7301 0.86444 0.31712 0.0
C394 C 0.73346 0.89596 0.30937 0.0
C395 C 0.7673 0.90391 0.28702 0.0
C396 C 0.79747 0.88008 0.2726 0.0
C397 C 0.79468 0.84922 0.27982 0.0
C398 C 0.83032 0.82799 0.26065 0.0
C399 C 0.8766 0.8078 0.28173 0.0
C400 C 0.79472 0.80794 0.23978 0.0
C401 C 0.85363 0.85169 0.24147 0.0
C402 C 0.83435 0.88163 0.24868 0.0
C403 C 0.84988 0.90733 0.23362 0.0
C404 C 0.88577 0.90226 0.21049 0.0
C405 C 0.90564 0.87171 0.20262 0.0
C406 C 0.88936 0.84623 0.21855 0.0
H407 H 0.69348 0.18246 0.68158 0.0
H408 H 0.65427 0.0887 0.69304 0.0
H409 H 0.72916 0.07884 0.73727 0.0
H410 H 0.84031 0.16522 0.69819 0.0
H411 H 0.84894 0.20011 0.71914 0.0
H412 H 0.79181 0.19978 0.6889 0.0
H413 H 0.72233 0.21807 0.72789 0.0
H414 H 0.77926 0.21875 0.75818 0.0
H415 H 0.72388 0.19626 0.76403 0.0
H416 H 0.81107 0.07885 0.77847 0.0
H417 H 0.88847 0.08993 0.81693 0.0
H418 H 0.87147 0.1845 0.77936 0.0
C419 C 0.70049 0.16001 0.69372 0.0
C420 C 0.66824 0.13637 0.68444 0.0
C421 C 0.67836 0.10714 0.70039 0.0
C422 C 0.72089 0.10133 0.72527 0.0
C423 C 0.75244 0.1251 0.73379 0.0
C424 C 0.74231 0.15397 0.71873 0.0
C425 C 0.78169 0.17565 0.73258 0.0
C426 C 0.81782 0.18577 0.70825 0.0
C427 C 0.74988 0.20384 0.74651 0.0
C428 C 0.81572 0.15446 0.75779 0.0
C429 C 0.79862 0.12532 0.75791 0.0
C430 C 0.8246 0.10165 0.77874 0.0
C431 C 0.86865 0.10812 0.80038 0.0
C432 C 0.88575 0.1381 0.80119 0.0
C433 C 0.85908 0.16142 0.77943 0.0
H434 H 0.17633 0.10497 0.79821 0.0
H435 H 0.22847 0.18831 0.83948 0.0
H436 H 0.29181 0.192 0.79909 0.0
H437 H 0.30855 0.07328 0.77504 0.0
H438 H 0.27854 0.05893 0.7389 0.0
H439 H 0.23955 0.06219 0.77192 0.0
H440 H 0.15928 0.09646 0.7383 0.0
H441 H 0.19809 0.0934 0.7052 0.0
H442 H 0.17336 0.13107 0.71856 0.0
H443 H 0.34903 0.18656 0.75387 0.0
H444 H 0.39584 0.17261 0.70758 0.0
H445 H 0.30155 0.09475 0.69351 0.0
C446 C 0.20096 0.12405 0.79863 0.0
C447 C 0.19743 0.14646 0.82185 0.0
C448 C 0.23096 0.17078 0.82203 0.0
C449 C 0.26675 0.17315 0.79909 0.0
C450 C 0.26841 0.15101 0.77612 0.0
C451 C 0.23642 0.12691 0.77574 0.0
C452 C 0.24506 0.10654 0.74815 0.0
C453 C 0.26938 0.07327 0.75917 0.0
C454 C 0.19071 0.1069 0.72626 0.0
C455 C 0.28687 0.12295 0.73301 0.0
C456 C 0.29991 0.14849 0.74955 0.0
C457 C 0.33842 0.16691 0.74045 0.0
C458 C 0.36422 0.15906 0.71374 0.0
C459 C 0.35082 0.13329 0.69607 0.0
C460 C 0.31195 0.11492 0.70616 0.0
H461 H 0.21555 0.88464 0.19811 0.0
H462 H 0.20133 0.78631 0.19532 0.0
H463 H 0.28814 0.77509 0.23138 0.0
H464 H 0.36366 0.87888 0.20136 0.0
H465 H 0.37112 0.90943 0.22861 0.0
H466 H 0.308 0.91005 0.20245 0.0
H467 H 0.25021 0.91276 0.2493 0.0
H468 H 0.31303 0.91288 0.27549 0.0
H469 H 0.26761 0.88401 0.28073 0.0
H470 H 0.37631 0.77442 0.26696 0.0
H471 H 0.45446 0.78471 0.30538 0.0
H472 H 0.41172 0.88351 0.28644 0.0
C473 C 0.23054 0.86083 0.20549 0.0
C474 C 0.20231 0.83622 0.19389 0.0
C475 C 0.22292 0.80535 0.20383 0.0
C476 C 0.27217 0.79879 0.22416 0.0
C477 C 0.30004 0.82345 0.23452 0.0
C478 C 0.27957 0.8539 0.22601 0.0
C479 C 0.31672 0.8761 0.24148 0.0
C480 C 0.34133 0.89471 0.21701 0.0
C481 C 0.28501 0.89771 0.26303 0.0
C482 C 0.36122 0.85336 0.26002 0.0
C483 C 0.35097 0.8231 0.25534 0.0
C484 C 0.38501 0.79798 0.27064 0.0
C485 C 0.42954 0.80398 0.29213 0.0
C486 C 0.43964 0.83476 0.29809 0.0
C487 C 0.40574 0.85975 0.28144 0.0
H488 H 0.07752 0.56594 0.50662 0.0
H489 H 0.97928 0.53396 0.57574 0.0
H490 H 0.97888 0.48392 0.54989 0.0
H491 H 0.01046 0.53039 0.44104 0.0
H492 H 0.07313 0.52009 0.42327 0.0
H493 H 0.06695 0.55341 0.4474 0.0
H494 H 0.15684 0.53091 0.4823 0.0
H495 H 0.16346 0.49757 0.45821 0.0
H496 H 0.162 0.49242 0.49965 0.0
H497 H 0.98687 0.43839 0.51658 0.0
H498 H 1.00491 0.39843 0.47855 0.0
H499 H 0.09914 0.45891 0.43035 0.0
C500 C 0.05609 0.54839 0.51644 0.0
C501 C 0.02836 0.55395 0.54328 0.0
C502 C 1.00083 0.53032 0.55529 0.0
C503 C 1.00031 0.50182 0.54074 0.0
C504 C 0.0276 0.49726 0.51426 0.0
C505 C 0.05521 0.51975 0.50224 0.0
C506 C 0.08109 0.50876 0.4734 0.0
C507 C 0.05642 0.52939 0.44458 0.0
C508 C 0.14462 0.50733 0.47872 0.0
C509 C 0.06346 0.47656 0.47105 0.0
C510 C 0.0326 0.47059 0.49491 0.0
C511 C 0.01115 0.44271 0.49785 0.0
C512 C 0.02174 0.42013 0.47599 0.0
C513 C 0.05371 0.42538 0.45133 0.0
C514 C 0.07466 0.45413 0.44885 0.0
H515 H 0.61327 0.55176 0.96463 0.0
H516 H 0.43972 0.57056 0.92716 0.0
H517 H 0.41705 0.53009 0.96281 0.0
H518 H 0.61405 0.46773 0.97125 0.0
H519 H 0.66226 0.46368 1.00639 0.0
H520 H 0.6643 0.49461 0.97831 0.0
H521 H 0.65339 0.53454 0.02173 0.0
H522 H 0.6503 0.50375 0.04981 0.0
H523 H 0.5949 0.5355 0.04378 0.0
H524 H 0.41222 0.49028 1.00526 0.0
H525 H 0.42815 0.44651 0.04424 0.0
H526 H 0.60546 0.45008 0.05044 0.0
C527 C 0.57067 0.54704 0.96375 0.0
C528 C 0.52823 0.56419 0.94317 0.0
C529 C 0.47293 0.5574 0.94253 0.0
C530 C 0.45955 0.53471 0.96291 0.0
C531 C 0.50211 0.51859 0.98336 0.0
C532 C 0.55677 0.52382 0.98335 0.0
C533 C 0.59495 0.50198 1.00643 0.0
C534 C 0.63632 0.48074 0.98958 0.0
C535 C 0.62515 0.52003 0.03194 0.0
C536 C 0.55314 0.48391 0.01957 0.0
C537 C 0.49969 0.4943 1.00644 0.0
C538 C 0.45393 0.48172 0.01549 0.0
C539 C 0.46326 0.45711 0.03781 0.0
C540 C 0.51791 0.44504 0.0502 0.0
C541 C 0.56324 0.45892 0.04123 0.0
H542 H 0.60579 0.06218 0.51705 0.0
H543 H 0.44032 0.06135 0.54437 0.0
H544 H 0.42745 0.01661 0.51153 0.0
H545 H 0.57489 0.03965 0.43702 0.0
H546 H 0.63956 0.01484 0.43658 0.0
H547 H 0.63608 0.04783 0.46128 0.0
H548 H 0.67435 0.01203 0.50961 0.0
H549 H 0.67848 0.97901 0.48502 0.0
H550 H 0.63973 0.9791 0.51815 0.0
H551 H 0.43087 0.97328 0.47628 0.0
H552 H 0.45391 0.92847 0.44456 0.0
H553 H 0.61913 0.95422 0.44053 0.0
C554 C 0.56684 0.05258 0.51604 0.0
C555 C 0.52391 0.06537 0.5332 0.0
C556 C 0.47383 0.05195 0.53156 0.0
C557 C 0.46593 0.02667 0.51278 0.0
C558 C 0.50865 0.01487 0.49596 0.0
C559 C 0.55845 0.02696 0.49765 0.0
C560 C 0.59841 0.00854 0.47829 0.0
C561 C 0.61309 0.02894 0.45171 0.0
C562 C 0.65084 0.99379 0.49901 0.0
C563 C 0.5632 0.98411 0.4657 0.0
C564 C 0.51137 0.98871 0.47597 0.0
C565 C 0.47134 0.9693 0.46817 0.0
C566 C 0.48502 0.94383 0.45016 0.0
C567 C 0.53855 0.93763 0.44029 0.0
C568 C 0.57783 0.95849 0.44754 0.0
H569 H 0.05859 0.96981 0.07901 0.0
H570 H 0.96473 0.91441 0.01543 0.0
H571 H 0.95907 0.95482 0.97374 0.0
H572 H 0.98844 0.04711 0.04864 0.0
H573 H 0.05193 0.06453 0.05306 0.0
H574 H 0.04316 0.03298 0.07903 0.0
H575 H 0.13376 0.00238 0.06427 0.0
H576 H 0.14237 0.03361 0.03792 0.0
H577 H 0.14047 0.99493 0.02383 0.0
H578 H 0.96883 0.99849 0.93828 0.0
H579 H 0.99033 0.04468 0.91064 0.0
H580 H 0.08099 0.07227 0.99604 0.0
C581 C 0.03544 0.96684 0.05657 0.0
C582 C 0.0109 0.93951 0.05038 0.0
C583 C 0.98279 0.93556 0.02053 0.0
C584 C 0.97957 0.95828 0.99676 0.0
C585 C 1.00525 0.98467 1.00319 0.0
C586 C 0.03243 0.98926 0.03232 0.0
C587 C 0.0594 0.01892 0.03214 0.0
C588 C 0.03421 0.04227 0.05455 0.0
C589 C 0.12275 0.01203 0.04 0.0
C590 C 0.04355 0.02997 0.99833 0.0
C591 C 0.01211 0.00984 0.98222 0.0
C592 C 0.99306 0.01459 0.95066 0.0
C593 C 1.00568 0.04091 0.93515 0.0
C594 C 0.03734 0.06221 0.95111 0.0
C595 C 0.05687 0.05642 0.98313 0.0
H596 H 0.16982 0.26935 0.47115 0.0
H597 H 0.26288 0.31635 0.4089 0.0
H598 H 0.35024 0.2908 0.43711 0.0
H599 H 0.26219 0.27434 0.5407 0.0
H600 H 0.25516 0.23639 0.5562 0.0
H601 H 0.19893 0.25755 0.53073 0.0
H602 H 0.19875 0.21154 0.49344 0.0
H603 H 0.25441 0.19007 0.51903 0.0
H604 H 0.26218 0.19643 0.47844 0.0
H605 H 0.42737 0.26207 0.47258 0.0
H606 H 0.49048 0.22786 0.51067 0.0
H607 H 0.34877 0.19872 0.5503 0.0
C608 C 0.20854 0.27399 0.46321 0.0
C609 C 0.20933 0.29497 0.4378 0.0
C610 C 0.261 0.30048 0.42831 0.0
C611 C 0.31098 0.28615 0.44424 0.0
C612 C 0.30877 0.26626 0.4696 0.0
C613 C 0.25904 0.25984 0.47889 0.0
C614 C 0.26873 0.23737 0.50692 0.0
C615 C 0.24483 0.25232 0.53531 0.0
C616 C 0.24459 0.20705 0.49897 0.0
C617 C 0.33165 0.23227 0.51186 0.0
C618 C 0.35372 0.24934 0.49014 0.0
C619 C 0.41067 0.24847 0.48967 0.0
C620 C 0.44618 0.229 0.51151 0.0
C621 C 0.42471 0.21052 0.53352 0.0
C622 C 0.36657 0.21267 0.53395 0.0
H623 H 0.45823 0.74344 0.94155 0.0
H624 H 0.38753 0.65668 0.93546 0.0
H625 H 0.30868 0.67949 0.96181 0.0
H626 H 0.41706 0.76537 0.01629 0.0
H627 H 0.39934 0.80599 1.0056 0.0
H628 H 0.45151 0.78276 0.98692 0.0
H629 H 0.39701 0.79887 0.93277 0.0
H630 H 0.34462 0.8221 0.95131 0.0
H631 H 0.32537 0.79242 0.92511 0.0
H632 H 0.24254 0.70958 0.99227 0.0
H633 H 0.1862 0.7473 0.02054 0.0
H634 H 0.29064 0.81756 1.00082 0.0
C635 C 0.42601 0.72945 0.94587 0.0
C636 C 0.42856 0.69841 0.93666 0.0
C637 C 0.38577 0.68062 0.9423 0.0
C638 C 0.34103 0.69328 0.9573 0.0
C639 C 0.33921 0.72397 0.96597 0.0
C640 C 0.37992 0.74206 0.96014 0.0
C641 C 0.36624 0.77476 0.97103 0.0
C642 C 0.41121 0.78267 0.99648 0.0
C643 C 0.3578 0.79843 0.9434 0.0
C644 C 0.31209 0.77189 0.9842 0.0
C645 C 0.29778 0.74229 0.98131 0.0
C646 C 0.25197 0.73323 0.99371 0.0
C647 C 0.21935 0.75517 1.00928 0.0
C648 C 0.23152 0.78616 0.0114 0.0
C649 C 0.27899 0.79437 0.99883 0.0
H650 H 0.11716 0.74395 0.48913 0.0
H651 H 0.21398 0.6558 0.51975 0.0
H652 H 0.29772 0.67478 0.50364 0.0
H653 H 0.19134 0.75812 0.42137 0.0
H654 H 0.18639 0.79923 0.42755 0.0
H655 H 0.13311 0.77744 0.43853 0.0
H656 H 0.148 0.79709 0.49486 0.0
H657 H 0.20156 0.81868 0.48417 0.0
H658 H 0.21632 0.79072 0.51638 0.0
H659 H 0.37262 0.7055 0.48997 0.0
H660 H 0.43182 0.74474 0.47699 0.0
H661 H 0.28516 0.81174 0.45331 0.0
C662 C 0.1557 0.7284 0.49189 0.0
C663 C 0.15903 0.69843 0.50565 0.0
C664 C 0.21039 0.67887 0.50914 0.0
C665 C 0.25822 0.68941 0.50007 0.0
C666 C 0.25377 0.7194 0.48728 0.0
C667 C 0.20371 0.73848 0.48286 0.0
C668 C 0.21056 0.77025 0.47018 0.0
C669 C 0.17845 0.77662 0.43746 0.0
C670 C 0.19309 0.79567 0.49275 0.0
C671 C 0.27249 0.76629 0.4689 0.0
C672 C 0.29673 0.73679 0.47869 0.0
C673 C 0.35399 0.72843 0.48141 0.0
C674 C 0.38731 0.75083 0.4737 0.0
C675 C 0.36306 0.78106 0.46319 0.0
C676 C 0.30493 0.78871 0.46087 0.0
H677 H 0.24961 0.21411 0.03862 0.0
H678 H 0.29419 0.20475 0.94459 0.0
H679 H 0.36776 0.23848 0.9566 0.0
H680 H 0.27055 0.29555 0.04493 0.0
H681 H 0.29752 0.29134 0.08566 0.0
H682 H 0.24839 0.26658 0.0695 0.0
H683 H 0.31737 0.21817 0.08918 0.0
H684 H 0.36688 0.24279 0.10516 0.0
H685 H 0.38647 0.21386 0.07773 0.0
H686 H 0.43972 0.27044 0.9798 0.0
H687 H 0.4992 0.30338 0.01069 0.0
H688 H 0.40455 0.2948 0.08896 0.0
C689 C 0.27469 0.21948 0.02059 0.0
C690 C 0.26614 0.20731 0.99059 0.0
C691 C 0.2996 0.21449 0.96749 0.0
C692 C 0.34169 0.23336 0.9742 0.0
C693 C 0.34929 0.24502 1.00404 0.0
C694 C 0.31624 0.23877 0.02674 0.0
C695 C 0.33243 0.25478 0.05671 0.0
C696 C 0.28436 0.27847 0.06465 0.0
C697 C 0.35195 0.23097 0.08379 0.0
C698 C 0.3801 0.27073 0.0474 0.0
C699 C 0.38951 0.26448 0.01704 0.0
C700 C 0.43245 0.27574 1.0035 0.0
C701 C 0.46621 0.29428 0.02131 0.0
C702 C 0.45638 0.30176 0.05218 0.0
C703 C 0.41278 0.28969 0.06534 0.0
H704 H 0.92973 0.71783 0.50505 0.0
H705 H 0.83662 0.6797 0.57342 0.0
H706 H 0.75133 0.71069 0.54898 0.0
H707 H 0.85391 0.79577 0.50125 0.0
H708 H 0.85547 0.80134 0.45987 0.0
H709 H 0.91036 0.77634 0.4827 0.0
H710 H 0.8925 0.73132 0.446 0.0
H711 H 0.83736 0.75612 0.42314 0.0
H712 H 0.82392 0.71975 0.43962 0.0
H713 H 0.67607 0.74351 0.51719 0.0
H714 H 0.61358 0.77947 0.48105 0.0
H715 H 0.75268 0.79894 0.43259 0.0
C716 C 0.89144 0.71613 0.51495 0.0
C717 C 0.89011 0.69614 0.54119 0.0
C718 C 0.83903 0.69467 0.55338 0.0
C719 C 0.79017 0.7122 0.53963 0.0
C720 C 0.79278 0.7313 0.51373 0.0
C721 C 0.84192 0.73369 0.50154 0.0
C722 C 0.83243 0.75632 0.4735 0.0
C723 C 0.86498 0.7841 0.47971 0.0
C724 C 0.84744 0.73989 0.44381 0.0
C725 C 0.77023 0.76607 0.47189 0.0
C726 C 0.74859 0.7511 0.49535 0.0
C727 C 0.69245 0.75555 0.49881 0.0
C728 C 0.65723 0.7761 0.47797 0.0
C729 C 0.67796 0.79231 0.45384 0.0
C730 C 0.73545 0.78706 0.45076 0.0
H731 H 0.8382 0.30193 0.03608 0.0
H732 H 0.68391 0.29514 0.97771 0.0
H733 H 0.7352 0.26305 0.94119 0.0
H734 H 0.92566 0.30529 0.97388 0.0
H735 H 0.98426 0.28145 0.99492 0.0
H736 H 0.93604 0.30507 0.01594 0.0
H737 H 0.91933 0.25649 0.04758 0.0
H738 H 0.96787 0.2328 0.02688 0.0
H739 H 0.89821 0.22334 0.02713 0.0
H740 H 0.8023 0.23231 0.91118 0.0
H741 H 0.87961 0.19973 0.89178 0.0
H742 H 0.99151 0.22413 0.97057 0.0
C743 C 0.81545 0.29365 0.01555 0.0
C744 C 0.75718 0.30065 1.00972 0.0
C745 C 0.72846 0.28948 0.98278 0.0
C746 C 0.75729 0.27155 0.9618 0.0
C747 C 0.81475 0.26495 0.96821 0.0
C748 C 0.84356 0.27529 0.99458 0.0
C749 C 0.90494 0.26342 0.99671 0.0
C750 C 0.93977 0.29042 0.99527 0.0
C751 C 0.92367 0.24278 0.02633 0.0
C752 C 0.906 0.24464 0.96748 0.0
C753 C 0.85357 0.2463 0.95122 0.0
C754 C 0.84354 0.23076 0.92371 0.0
C755 C 0.88795 0.21232 0.91287 0.0
C756 C 0.94185 0.20919 0.92968 0.0
C757 C 0.951 0.22609 0.95709 0.0
H758 H 0.8725 0.24864 0.45211 0.0
H759 H 0.91486 0.30981 0.52669 0.0
H760 H 0.8575 0.28437 0.56043 0.0
H761 H 0.73544 0.25196 0.4618 0.0
H762 H 0.72732 0.21215 0.45364 0.0
H763 H 0.78028 0.23029 0.43733 0.0
H764 H 0.8555 0.18693 0.46233 0.0
H765 H 0.80257 0.16829 0.47836 0.0
H766 H 0.86114 0.17827 0.50369 0.0
H767 H 0.78455 0.25957 0.58225 0.0
H768 H 0.70397 0.23389 0.59282 0.0
H769 H 0.70783 0.18739 0.50487 0.0
C770 C 0.87146 0.25555 0.47604 0.0
C771 C 0.89883 0.28053 0.48731 0.0
C772 C 0.89488 0.29021 0.51811 0.0
C773 C 0.86241 0.27595 0.53735 0.0
C774 C 0.83417 0.25207 0.52532 0.0
C775 C 0.8388 0.24157 0.49554 0.0
C776 C 0.79931 0.21785 0.48728 0.0
C777 C 0.75817 0.22873 0.45831 0.0
C778 C 0.83157 0.18594 0.48265 0.0
C779 C 0.7703 0.21767 0.51653 0.0
C780 C 0.79151 0.23742 0.53821 0.0
C781 C 0.76838 0.24349 0.56581 0.0
C782 C 0.72233 0.22901 0.57147 0.0
C783 C 0.70001 0.20857 0.54973 0.0
C784 C 0.7248 0.2025 0.5221 0.0
H785 H 0.82488 0.69088 0.99107 0.0
H786 H 0.66741 0.73522 0.01534 0.0
H787 H 0.71559 0.77477 0.04382 0.0
H788 H 0.90727 0.70327 0.06327 0.0
H789 H 0.96703 0.71121 0.04506 0.0
H790 H 0.92037 0.68621 0.02666 0.0
H791 H 0.90623 0.72107 0.97626 0.0
H792 H 0.95303 0.74608 0.99447 0.0
H793 H 0.88377 0.762 0.97843 0.0
H794 H 0.78105 0.80851 0.07103 0.0
H795 H 0.85813 0.83652 0.09195 0.0
H796 H 0.97365 0.77173 0.0485 0.0
C797 C 0.80065 0.70898 1.00238 0.0
C798 C 0.7423 0.71023 1.00072 0.0
C799 C 0.71193 0.73421 0.01575 0.0
C800 C 0.73903 0.75662 0.03221 0.0
C801 C 0.79654 0.75484 0.03331 0.0
C802 C 0.82702 0.73182 0.01855 0.0
C803 C 0.88828 0.73568 0.02275 0.0
C804 C 0.92276 0.70741 0.04049 0.0
C805 C 0.90903 0.74156 0.99109 0.0
C806 C 0.8875 0.76433 0.04233 0.0
C807 C 0.83419 0.77481 0.04835 0.0
C808 C 0.82293 0.8006 0.06633 0.0
C809 C 0.86715 0.81631 0.07822 0.0
C810 C 0.92213 0.80646 0.07187 0.0
C811 C 0.93219 0.77998 0.05373 0.0
loop_
_geom_bond_atom_site_label_1
_geom_bond_atom_site_label_2
_geom_bond_distance
_geom_bond_site_symmetry_2
_ccdc_geom_bond_type
Co0 O3 1.970 . S
Co0 N17 1.989 . S
Co0 O25 1.967 . S
Co0 O32 1.920 . S
Co1 O4 1.966 . S
Co1 N10 2.022 1_455 S
Co1 N18 1.993 1_455 S
Co1 O26 1.941 . S
C2 O3 1.258 . S
C2 O4 1.263 . S
O3 Co0 1.970 . S
O3 C2 1.258 . S
O4 Co1 1.966 . S
O4 C2 1.263 . S
C5 O6 1.235 . S
C5 O32 1.289 . S
O6 C5 1.235 . S
C7 C9 1.400 . S
C7 N10 1.351 . S
C7 C12 1.501 . S
C8 C9 1.387 . S
C8 N11 1.341 . S
C9 C7 1.400 . S
C9 C8 1.387 . S
N10 Co1 2.022 1_655 S
N10 C7 1.351 . S
N10 N11 1.365 . S
N11 C8 1.341 . S
N11 N10 1.365 . S
N11 H31 0.862 . S
C12 C7 1.501 . S
C12 H13 0.961 1_655 S
C12 H14 0.961 . S
C12 H15 0.960 . S
H13 C12 0.961 1_455 S
H14 C12 0.961 . S
H15 C12 0.960 . S
C16 N17 1.342 1_655 S
C16 C20 1.401 . S
C16 C21 1.499 1_655 S
N17 Co0 1.989 . S
N17 C16 1.342 1_455 S
N17 N18 1.388 1_455 S
N18 Co1 1.993 1_655 S
N18 N17 1.388 1_655 S
N18 C19 1.346 . S
C19 N18 1.346 . S
C19 C20 1.396 . S
C19 C29 1.510 . S
C20 C16 1.401 . S
C20 C19 1.396 . S
C21 C16 1.499 1_455 S
C21 H22 0.959 . S
C21 H23 0.960 . S
C21 H24 0.961 . S
H22 C21 0.959 . S
H23 C21 0.960 . S
H24 C21 0.961 . S
O25 Co0 1.967 . S
O25 C33 1.258 . S
O26 Co1 1.941 . S
O26 C33 1.266 . S
H27 C29 0.959 . S
H28 C29 0.961 . S
C29 C19 1.510 . S
C29 H27 0.959 . S
C29 H28 0.961 . S
C29 H30 0.960 . S
H30 C29 0.960 . S
H31 N11 0.862 . S
O32 Co0 1.920 . S
O32 C5 1.289 . S
C33 O25 1.258 . S
C33 O26 1.266 . S
Co34 O37 1.970 . S
Co34 N51 1.989 . S
Co34 O59 1.967 . S
Co34 O66 1.920 . S
Co35 O38 1.966 . S
Co35 N44 2.022 . S
Co35 N52 1.993 . S
Co35 O60 1.941 . S
C36 O37 1.258 . S
C36 O38 1.263 . S
O37 Co34 1.970 . S
O37 C36 1.258 . S
O38 Co35 1.966 . S
O38 C36 1.263 . S
C39 O40 1.235 . S
C39 O66 1.289 . S
O40 C39 1.235 . S
C41 C43 1.400 . S
C41 N44 1.351 . S
C41 C46 1.501 . S
C42 C43 1.387 . S
C42 N45 1.341 . S
C43 C41 1.400 . S
C43 C42 1.387 . S
N44 Co35 2.022 . S
N44 C41 1.351 . S
N44 N45 1.365 . S
N45 C42 1.341 . S
N45 N44 1.365 . S
N45 H65 0.862 . S
C46 C41 1.501 . S
C46 H47 0.961 . S
C46 H48 0.961 . S
C46 H49 0.960 . S
H47 C46 0.961 . S
H48 C46 0.961 . S
H49 C46 0.960 . S
C50 N51 1.342 . S
C50 C54 1.401 . S
C50 C55 1.499 . S
N51 Co34 1.989 . S
N51 C50 1.342 . S
N51 N52 1.388 . S
N52 Co35 1.993 . S
N52 N51 1.388 . S
N52 C53 1.346 . S
C53 N52 1.346 . S
C53 C54 1.396 . S
C53 C63 1.510 . S
C54 C50 1.401 . S
C54 C53 1.396 . S
C55 C50 1.499 . S
C55 H56 0.959 . S
C55 H57 0.960 . S
C55 H58 0.961 . S
H56 C55 0.959 . S
H57 C55 0.960 . S
H58 C55 0.961 . S
O59 Co34 1.967 . S
O59 C67 1.258 . S
O60 Co35 1.941 . S
O60 C67 1.266 . S
H61 C63 0.959 . S
H62 C63 0.961 . S
C63 C53 1.510 . S
C63 H61 0.959 . S
C63 H62 0.961 . S
C63 H64 0.960 . S
H64 C63 0.960 . S
H65 N45 0.862 . S
O66 Co34 1.920 . S
O66 C39 1.289 . S
C67 O59 1.258 . S
C67 O60 1.266 . S
Co68 O71 1.970 1_455 S
Co68 N85 1.989 . S
Co68 O93 1.967 . S
Co68 O100 1.920 . S
Co69 O72 1.966 . S
Co69 N78 2.022 . S
Co69 N86 1.993 1_655 S
Co69 O94 1.941 . S
C70 O71 1.258 . S
C70 O72 1.263 . S
O71 Co68 1.970 1_655 S
O71 C70 1.258 . S
O72 Co69 1.966 . S
O72 C70 1.263 . S
C73 O74 1.235 . S
C73 O100 1.289 . S
O74 C73 1.235 . S
C75 C77 1.400 . S
C75 N78 1.351 . S
C75 C80 1.501 . S
C76 C77 1.387 . S
C76 N79 1.341 . S
C77 C75 1.400 . S
C77 C76 1.387 . S
N78 Co69 2.022 . S
N78 C75 1.351 . S
N78 N79 1.365 . S
N79 C76 1.341 . S
N79 N78 1.365 . S
N79 H99 0.862 . S
C80 C75 1.501 . S
C80 H81 0.961 . S
C80 H82 0.961 . S
C80 H83 0.960 . S
H81 C80 0.961 . S
H82 C80 0.961 . S
H83 C80 0.960 . S
C84 N85 1.342 . S
C84 C88 1.401 . S
C84 C89 1.499 . S
N85 Co68 1.989 . S
N85 C84 1.342 . S
N85 N86 1.388 . S
N86 Co69 1.993 1_455 S
N86 N85 1.388 . S
N86 C87 1.346 . S
C87 N86 1.346 . S
C87 C88 1.396 . S
C87 C97 1.510 . S
C88 C84 1.401 . S
C88 C87 1.396 . S
C89 C84 1.499 . S
C89 H90 0.959 . S
C89 H91 0.960 . S
C89 H92 0.961 . S
H90 C89 0.959 . S
H91 C89 0.960 . S
H92 C89 0.961 . S
O93 Co68 1.967 . S
O93 C101 1.258 . S
O94 Co69 1.941 . S
O94 C101 1.266 1_655 S
H95 C97 0.959 . S
H96 C97 0.961 . S
C97 C87 1.510 . S
C97 H95 0.959 . S
C97 H96 0.961 . S
C97 H98 0.960 . S
H98 C97 0.960 . S
H99 N79 0.862 . S
O100 Co68 1.920 . S
O100 C73 1.289 . S
C101 O93 1.258 . S
C101 O94 1.266 1_455 S
Co102 O105 1.970 . S
Co102 N119 1.989 . S
Co102 O127 1.967 . S
Co102 O134 1.920 . S
Co103 O106 1.966 . S
Co103 N112 2.022 . S
Co103 N120 1.993 . S
Co103 O128 1.941 . S
C104 O105 1.258 . S
C104 O106 1.263 . S
O105 Co102 1.970 . S
O105 C104 1.258 . S
O106 Co103 1.966 . S
O106 C104 1.263 . S
C107 O108 1.235 . S
C107 O134 1.289 . S
O108 C107 1.235 . S
C109 C111 1.400 . S
C109 N112 1.351 . S
C109 C114 1.501 . S
C110 C111 1.387 . S
C110 N113 1.341 . S
C111 C109 1.400 . S
C111 C110 1.387 . S
N112 Co103 2.022 . S
N112 C109 1.351 . S
N112 N113 1.365 . S
N113 C110 1.341 . S
N113 N112 1.365 . S
N113 H133 0.862 . S
C114 C109 1.501 . S
C114 H115 0.961 . S
C114 H116 0.961 . S
C114 H117 0.960 . S
H115 C114 0.961 . S
H116 C114 0.961 . S
H117 C114 0.960 . S
C118 N119 1.342 . S
C118 C122 1.401 . S
C118 C123 1.499 . S
N119 Co102 1.989 . S
N119 C118 1.342 . S
N119 N120 1.388 . S
N120 Co103 1.993 . S
N120 N119 1.388 . S
N120 C121 1.346 . S
C121 N120 1.346 . S
C121 C122 1.396 . S
C121 C131 1.510 . S
C122 C118 1.401 . S
C122 C121 1.396 . S
C123 C118 1.499 . S
C123 H124 0.959 . S
C123 H125 0.960 . S
C123 H126 0.961 . S
H124 C123 0.959 . S
H125 C123 0.960 . S
H126 C123 0.961 . S
O127 Co102 1.967 . S
O127 C135 1.258 . S
O128 Co103 1.941 . S
O128 C135 1.266 . S
H129 C131 0.959 . S
H130 C131 0.961 . S
C131 C121 1.510 . S
C131 H129 0.959 . S
C131 H130 0.961 . S
C131 H132 0.960 . S
H132 C131 0.960 . S
H133 N113 0.862 . S
O134 Co102 1.920 . S
O134 C107 1.289 . S
C135 O127 1.258 . S
C135 O128 1.266 . S
Co136 O139 1.970 . S
Co136 N153 1.989 . S
Co136 O161 1.967 . S
Co136 O168 1.920 . S
Co137 O140 1.966 . S
Co137 N146 2.022 . S
Co137 N154 1.993 . S
Co137 O162 1.941 . S
C138 O139 1.258 . S
C138 O140 1.263 . S
O139 Co136 1.970 . S
O139 C138 1.258 . S
O140 Co137 1.966 . S
O140 C138 1.263 . S
C141 O142 1.235 . S
C141 O168 1.289 . S
O142 C141 1.235 . S
C143 C145 1.400 . S
C143 N146 1.351 . S
C143 C148 1.501 . S
C144 C145 1.387 . S
C144 N147 1.341 . S
C145 C143 1.400 . S
C145 C144 1.387 . S
N146 Co137 2.022 . S
N146 C143 1.351 . S
N146 N147 1.365 . S
N147 C144 1.341 . S
N147 N146 1.365 . S
N147 H167 0.862 . S
C148 C143 1.501 . S
C148 H149 0.961 . S
C148 H150 0.961 . S
C148 H151 0.960 . S
H149 C148 0.961 . S
H150 C148 0.961 . S
H151 C148 0.960 . S
C152 N153 1.342 . S
C152 C156 1.401 . S
C152 C157 1.499 . S
N153 Co136 1.989 . S
N153 C152 1.342 . S
N153 N154 1.388 . S
N154 Co137 1.993 . S
N154 N153 1.388 . S
N154 C155 1.346 . S
C155 N154 1.346 . S
C155 C156 1.396 . S
C155 C165 1.510 . S
C156 C152 1.401 . S
C156 C155 1.396 . S
C157 C152 1.499 . S
C157 H158 0.959 . S
C157 H159 0.960 . S
C157 H160 0.961 . S
H158 C157 0.959 . S
H159 C157 0.960 . S
H160 C157 0.961 . S
O161 Co136 1.967 . S
O161 C169 1.258 . S
O162 Co137 1.941 . S
O162 C169 1.266 . S
H163 C165 0.959 . S
H164 C165 0.961 . S
C165 C155 1.510 . S
C165 H163 0.959 . S
C165 H164 0.961 . S
C165 H166 0.960 . S
H166 C165 0.960 . S
H167 N147 0.862 . S
O168 Co136 1.920 . S
O168 C141 1.289 . S
C169 O161 1.258 . S
C169 O162 1.266 . S
Co170 O173 1.970 . S
Co170 N187 1.989 1_655 S
Co170 O195 1.967 1_655 S
Co170 O202 1.920 . S
Co171 O174 1.966 . S
Co171 N180 2.022 . S
Co171 N188 1.993 . S
Co171 O196 1.941 . S
C172 O173 1.258 . S
C172 O174 1.263 1_655 S
O173 Co170 1.970 . S
O173 C172 1.258 . S
O174 Co171 1.966 . S
O174 C172 1.263 1_455 S
C175 O176 1.235 . S
C175 O202 1.289 . S
O176 C175 1.235 . S
C177 C179 1.400 . S
C177 N180 1.351 . S
C177 C182 1.501 . S
C178 C179 1.387 . S
C178 N181 1.341 . S
C179 C177 1.400 . S
C179 C178 1.387 . S
N180 Co171 2.022 . S
N180 C177 1.351 . S
N180 N181 1.365 . S
N181 C178 1.341 . S
N181 N180 1.365 . S
N181 H201 0.862 . S
C182 C177 1.501 . S
C182 H183 0.961 . S
C182 H184 0.961 . S
C182 H185 0.960 . S
H183 C182 0.961 . S
H184 C182 0.961 . S
H185 C182 0.960 . S
C186 N187 1.342 . S
C186 C190 1.401 . S
C186 C191 1.499 . S
N187 Co170 1.989 1_455 S
N187 C186 1.342 . S
N187 N188 1.388 . S
N188 Co171 1.993 . S
N188 N187 1.388 . S
N188 C189 1.346 . S
C189 N188 1.346 . S
C189 C190 1.396 . S
C189 C199 1.510 . S
C190 C186 1.401 . S
C190 C189 1.396 . S
C191 C186 1.499 . S
C191 H192 0.959 . S
C191 H193 0.960 . S
C191 H194 0.961 . S
H192 C191 0.959 . S
H193 C191 0.960 . S
H194 C191 0.961 . S
O195 Co170 1.967 1_455 S
O195 C203 1.258 . S
O196 Co171 1.941 . S
O196 C203 1.266 . S
H197 C199 0.959 . S
H198 C199 0.961 . S
C199 C189 1.510 . S
C199 H197 0.959 . S
C199 H198 0.961 . S
C199 H200 0.960 . S
H200 C199 0.960 . S
H201 N181 0.862 . S
O202 Co170 1.920 . S
O202 C175 1.289 . S
C203 O195 1.258 . S
C203 O196 1.266 . S
Co204 O207 1.970 . S
Co204 N221 1.989 . S
Co204 O229 1.967 . S
Co204 O236 1.920 . S
Co205 O208 1.966 . S
Co205 N214 2.022 . S
Co205 N222 1.993 . S
Co205 O230 1.941 . S
C206 O207 1.258 . S
C206 O208 1.263 . S
O207 Co204 1.970 . S
O207 C206 1.258 . S
O208 Co205 1.966 . S
O208 C206 1.263 . S
C209 O210 1.235 . S
C209 O236 1.289 . S
O210 C209 1.235 . S
C211 C213 1.400 . S
C211 N214 1.351 . S
C211 C216 1.501 . S
C212 C213 1.387 . S
C212 N215 1.341 . S
C213 C211 1.400 . S
C213 C212 1.387 . S
N214 Co205 2.022 . S
N214 C211 1.351 . S
N214 N215 1.365 . S
N215 C212 1.341 . S
N215 N214 1.365 . S
N215 H235 0.862 . S
C216 C211 1.501 . S
C216 H217 0.961 . S
C216 H218 0.961 . S
C216 H219 0.960 . S
H217 C216 0.961 . S
H218 C216 0.961 . S
H219 C216 0.960 . S
C220 N221 1.342 . S
C220 C224 1.401 . S
C220 C225 1.499 . S
N221 Co204 1.989 . S
N221 C220 1.342 . S
N221 N222 1.388 . S
N222 Co205 1.993 . S
N222 N221 1.388 . S
N222 C223 1.346 . S
C223 N222 1.346 . S
C223 C224 1.396 . S
C223 C233 1.510 . S
C224 C220 1.401 . S
C224 C223 1.396 . S
C225 C220 1.499 . S
C225 H226 0.959 . S
C225 H227 0.960 . S
C225 H228 0.961 . S
H226 C225 0.959 . S
H227 C225 0.960 . S
H228 C225 0.961 . S
O229 Co204 1.967 . S
O229 C237 1.258 . S
O230 Co205 1.941 . S
O230 C237 1.266 . S
H231 C233 0.959 . S
H232 C233 0.961 . S
C233 C223 1.510 . S
C233 H231 0.959 . S
C233 H232 0.961 . S
C233 H234 0.960 . S
H234 C233 0.960 . S
H235 N215 0.862 . S
O236 Co204 1.920 . S
O236 C209 1.289 . S
C237 O229 1.258 . S
C237 O230 1.266 . S
Co238 O241 1.976 . S
Co238 N255 1.978 1_655 S
Co238 O263 1.965 . S
Co238 O270 1.929 . S
Co239 O242 1.966 . S
Co239 N248 2.022 . S
Co239 N256 1.993 . S
Co239 O264 1.941 . S
C240 O241 1.258 . S
C240 O242 1.263 1_655 S
O241 Co238 1.976 . S
O241 C240 1.258 . S
O242 Co239 1.966 . S
O242 C240 1.263 1_455 S
C243 O244 1.235 . S
C243 O270 1.289 . S
O244 C243 1.235 . S
C245 C247 1.400 . S
C245 N248 1.351 . S
C245 C250 1.501 . S
C246 C247 1.387 . S
C246 N249 1.341 . S
C247 C245 1.400 . S
C247 C246 1.387 . S
N248 Co239 2.022 . S
N248 C245 1.351 . S
N248 N249 1.365 . S
N249 C246 1.341 . S
N249 N248 1.365 . S
N249 H269 0.862 . S
C250 C245 1.501 . S
C250 H251 0.961 . S
C250 H252 0.961 . S
C250 H253 0.960 . S
H251 C250 0.961 . S
H252 C250 0.961 . S
H253 C250 0.960 . S
C254 N255 1.342 . S
C254 C258 1.401 . S
C254 C259 1.499 . S
N255 Co238 1.978 1_455 S
N255 C254 1.342 . S
N255 N256 1.388 . S
N256 Co239 1.993 . S
N256 N255 1.388 . S
N256 C257 1.346 . S
C257 N256 1.346 . S
C257 C258 1.396 . S
C257 C267 1.510 . S
C258 C254 1.401 . S
C258 C257 1.396 . S
C259 C254 1.499 . S
C259 H260 0.959 . S
C259 H261 0.960 . S
C259 H262 0.961 . S
H260 C259 0.959 . S
H261 C259 0.960 . S
H262 C259 0.961 . S
O263 Co238 1.965 . S
O263 C271 1.255 1_655 S
O264 Co239 1.941 . S
O264 C271 1.266 . S
H265 C267 0.959 . S
H266 C267 0.961 . S
C267 C257 1.510 . S
C267 H265 0.959 . S
C267 H266 0.961 . S
C267 H268 0.960 . S
H268 C267 0.960 . S
H269 N249 0.862 . S
O270 Co238 1.929 . S
O270 C243 1.289 . S
C271 O263 1.255 1_455 S
C271 O264 1.266 . S
H272 C284 0.930 . S
H273 C286 0.930 . S
H274 C287 0.930 . S
H275 C291 0.959 . S
H276 C291 0.959 . S
H277 C291 0.961 . S
H278 C292 0.960 . S
H279 C292 0.961 . S
H280 C292 0.959 . S
H281 C295 0.929 . S
H282 C296 0.931 . S
H283 C298 0.930 . S
C284 H272 0.930 . S
C284 C285 1.399 . S
C284 C289 1.399 . S
C285 C284 1.399 . S
C285 C286 1.376 . S
C286 H273 0.930 . S
C286 C285 1.376 . S
C286 C287 1.388 . S
C287 H274 0.930 . S
C287 C286 1.388 . S
C287 C288 1.390 . S
C288 C287 1.390 . S
C288 C289 1.394 . S
C288 C294 1.465 . S
C289 C284 1.399 . S
C289 C288 1.394 . S
C289 C290 1.516 . S
C290 C289 1.516 . S
C290 C291 1.502 . S
C290 C292 1.561 . S
C290 C293 1.526 . S
C291 H275 0.959 . S
C291 H276 0.959 . S
C291 H277 0.961 . S
C291 C290 1.502 . S
C292 H278 0.960 . S
C292 H279 0.961 . S
C292 H280 0.959 . S
C292 C290 1.561 . S
C293 C290 1.526 . S
C293 C294 1.396 . S
C293 C298 1.390 . S
C294 C288 1.465 . S
C294 C293 1.396 . S
C294 C295 1.399 . S
C295 H281 0.929 . S
C295 C294 1.399 . S
C295 C296 1.385 . S
C296 H282 0.931 . S
C296 C295 1.385 . S
C296 C297 1.389 . S
C297 C296 1.389 . S
C297 C298 1.387 . S
C298 H283 0.930 . S
C298 C293 1.390 . S
C298 C297 1.387 . S
H299 C311 0.930 . S
H300 C313 0.930 . S
H301 C314 0.930 . S
H302 C318 0.959 . S
H303 C318 0.959 . S
H304 C318 0.961 . S
H305 C319 0.960 . S
H306 C319 0.961 . S
H307 C319 0.959 . S
H308 C322 0.929 . S
H309 C323 0.931 . S
H310 C325 0.930 . S
C311 H299 0.930 . S
C311 C312 1.399 . S
C311 C316 1.399 . S
C312 C311 1.399 . S
C312 C313 1.376 . S
C313 H300 0.930 . S
C313 C312 1.376 . S
C313 C314 1.388 . S
C314 H301 0.930 . S
C314 C313 1.388 . S
C314 C315 1.390 . S
C315 C314 1.390 . S
C315 C316 1.394 . S
C315 C321 1.465 . S
C316 C311 1.399 . S
C316 C315 1.394 . S
C316 C317 1.516 . S
C317 C316 1.516 . S
C317 C318 1.502 . S
C317 C319 1.561 . S
C317 C320 1.526 . S
C318 H302 0.959 . S
C318 H303 0.959 . S
C318 H304 0.961 . S
C318 C317 1.502 . S
C319 H305 0.960 . S
C319 H306 0.961 . S
C319 H307 0.959 . S
C319 C317 1.561 . S
C320 C317 1.526 . S
C320 C321 1.396 . S
C320 C325 1.390 . S
C321 C315 1.465 . S
C321 C320 1.396 . S
C321 C322 1.399 . S
C322 H308 0.929 . S
C322 C321 1.399 . S
C322 C323 1.385 . S
C323 H309 0.931 . S
C323 C322 1.385 . S
C323 C324 1.389 . S
C324 C323 1.389 . S
C324 C325 1.387 . S
C325 H310 0.930 . S
C325 C320 1.390 . S
C325 C324 1.387 . S
H326 C338 0.930 . S
H327 C340 0.930 . S
H328 C341 0.930 . S
H329 C345 0.959 . S
H330 C345 0.959 . S
H331 C345 0.961 . S
H332 C346 0.960 . S
H333 C346 0.961 . S
H334 C346 0.959 . S
H335 C349 0.929 . S
H336 C350 0.931 . S
H337 C352 0.930 . S
C338 H326 0.930 . S
C338 C339 1.399 . S
C338 C343 1.399 . S
C339 C338 1.399 . S
C339 C340 1.376 . S
C340 H327 0.930 . S
C340 C339 1.376 . S
C340 C341 1.388 . S
C341 H328 0.930 . S
C341 C340 1.388 . S
C341 C342 1.390 . S
C342 C341 1.390 . S
C342 C343 1.394 . S
C342 C348 1.465 . S
C343 C338 1.399 . S
C343 C342 1.394 . S
C343 C344 1.516 . S
C344 C343 1.516 . S
C344 C345 1.502 . S
C344 C346 1.561 . S
C344 C347 1.526 . S
C345 H329 0.959 . S
C345 H330 0.959 . S
C345 H331 0.961 . S
C345 C344 1.502 . S
C346 H332 0.960 . S
C346 H333 0.961 . S
C346 H334 0.959 . S
C346 C344 1.561 . S
C347 C344 1.526 . S
C347 C348 1.396 . S
C347 C352 1.390 . S
C348 C342 1.465 . S
C348 C347 1.396 . S
C348 C349 1.399 . S
C349 H335 0.929 . S
C349 C348 1.399 . S
C349 C350 1.385 . S
C350 H336 0.931 . S
C350 C349 1.385 . S
C350 C351 1.389 . S
C351 C350 1.389 . S
C351 C352 1.387 . S
C352 H337 0.930 . S
C352 C347 1.390 . S
C352 C351 1.387 . S
H353 C365 0.930 . S
H354 C367 0.930 . S
H355 C368 0.930 . S
H356 C372 0.959 . S
H357 C372 0.959 . S
H358 C372 0.961 . S
H359 C373 0.960 . S
H360 C373 0.961 . S
H361 C373 0.959 . S
H362 C376 0.929 . S
H363 C377 0.931 . S
H364 C379 0.930 . S
C365 H353 0.930 . S
C365 C366 1.399 . S
C365 C370 1.399 . S
C366 C365 1.399 . S
C366 C367 1.376 . S
C367 H354 0.930 . S
C367 C366 1.376 . S
C367 C368 1.388 . S
C368 H355 0.930 . S
C368 C367 1.388 . S
C368 C369 1.390 . S
C369 C368 1.390 . S
C369 C370 1.394 . S
C369 C375 1.465 . S
C370 C365 1.399 . S
C370 C369 1.394 . S
C370 C371 1.516 . S
C371 C370 1.516 . S
C371 C372 1.502 . S
C371 C373 1.561 . S
C371 C374 1.526 . S
C372 H356 0.959 . S
C372 H357 0.959 . S
C372 H358 0.961 . S
C372 C371 1.502 . S
C373 H359 0.960 . S
C373 H360 0.961 . S
C373 H361 0.959 . S
C373 C371 1.561 . S
C374 C371 1.526 . S
C374 C375 1.396 . S
C374 C379 1.390 . S
C375 C369 1.465 . S
C375 C374 1.396 . S
C375 C376 1.399 . S
C376 H362 0.929 . S
C376 C375 1.399 . S
C376 C377 1.385 . S
C377 H363 0.931 . S
C377 C376 1.385 . S
C377 C378 1.389 . S
C378 C377 1.389 . S
C378 C379 1.387 . S
C379 H364 0.930 . S
C379 C374 1.390 . S
C379 C378 1.387 . S
H380 C392 0.930 . S
H381 C394 0.930 . S
H382 C395 0.930 . S
H383 C399 0.959 . S
H384 C399 0.959 . S
H385 C399 0.961 . S
H386 C400 0.960 . S
H387 C400 0.961 . S
H388 C400 0.959 . S
H389 C403 0.929 . S
H390 C404 0.931 . S
H391 C406 0.930 . S
C392 H380 0.930 . S
C392 C393 1.399 . S
C392 C397 1.399 . S
C393 C392 1.399 . S
C393 C394 1.376 . S
C394 H381 0.930 . S
C394 C393 1.376 . S
C394 C395 1.388 . S
C395 H382 0.930 . S
C395 C394 1.388 . S
C395 C396 1.390 . S
C396 C395 1.390 . S
C396 C397 1.394 . S
C396 C402 1.465 . S
C397 C392 1.399 . S
C397 C396 1.394 . S
C397 C398 1.516 . S
C398 C397 1.516 . S
C398 C399 1.502 . S
C398 C400 1.561 . S
C398 C401 1.526 . S
C399 H383 0.959 . S
C399 H384 0.959 . S
C399 H385 0.961 . S
C399 C398 1.502 . S
C400 H386 0.960 . S
C400 H387 0.961 . S
C400 H388 0.959 . S
C400 C398 1.561 . S
C401 C398 1.526 . S
C401 C402 1.396 . S
C401 C406 1.390 . S
C402 C396 1.465 . S
C402 C401 1.396 . S
C402 C403 1.399 . S
C403 H389 0.929 . S
C403 C402 1.399 . S
C403 C404 1.385 . S
C404 H390 0.931 . S
C404 C403 1.385 . S
C404 C405 1.389 . S
C405 C404 1.389 . S
C405 C406 1.387 . S
C406 H391 0.930 . S
C406 C401 1.390 . S
C406 C405 1.387 . S
H407 C419 0.930 . S
H408 C421 0.930 . S
H409 C422 0.930 . S
H410 C426 0.959 . S
H411 C426 0.959 . S
H412 C426 0.961 . S
H413 C427 0.960 . S
H414 C427 0.961 . S
H415 C427 0.959 . S
H416 C430 0.929 . S
H417 C431 0.931 . S
H418 C433 0.930 . S
C419 H407 0.930 . S
C419 C420 1.399 . S
C419 C424 1.399 . S
C420 C419 1.399 . S
C420 C421 1.376 . S
C421 H408 0.930 . S
C421 C420 1.376 . S
C421 C422 1.388 . S
C422 H409 0.930 . S
C422 C421 1.388 . S
C422 C423 1.390 . S
C423 C422 1.390 . S
C423 C424 1.394 . S
C423 C429 1.465 . S
C424 C419 1.399 . S
C424 C423 1.394 . S
C424 C425 1.516 . S
C425 C424 1.516 . S
C425 C426 1.502 . S
C425 C427 1.561 . S
C425 C428 1.526 . S
C426 H410 0.959 . S
C426 H411 0.959 . S
C426 H412 0.961 . S
C426 C425 1.502 . S
C427 H413 0.960 . S
C427 H414 0.961 . S
C427 H415 0.959 . S
C427 C425 1.561 . S
C428 C425 1.526 . S
C428 C429 1.396 . S
C428 C433 1.390 . S
C429 C423 1.465 . S
C429 C428 1.396 . S
C429 C430 1.399 . S
C430 H416 0.929 . S
C430 C429 1.399 . S
C430 C431 1.385 . S
C431 H417 0.931 . S
C431 C430 1.385 . S
C431 C432 1.389 . S
C432 C431 1.389 . S
C432 C433 1.387 . S
C433 H418 0.930 . S
C433 C428 1.390 . S
C433 C432 1.387 . S
H434 C446 0.930 . S
H435 C448 0.930 . S
H436 C449 0.930 . S
H437 C453 0.959 . S
H438 C453 0.959 . S
H439 C453 0.961 . S
H440 C454 0.960 . S
H441 C454 0.961 . S
H442 C454 0.959 . S
H443 C457 0.929 . S
H444 C458 0.931 . S
H445 C460 0.930 . S
C446 H434 0.930 . S
C446 C447 1.399 . S
C446 C451 1.399 . S
C447 C446 1.399 . S
C447 C448 1.376 . S
C448 H435 0.930 . S
C448 C447 1.376 . S
C448 C449 1.388 . S
C449 H436 0.930 . S
C449 C448 1.388 . S
C449 C450 1.390 . S
C450 C449 1.390 . S
C450 C451 1.394 . S
C450 C456 1.465 . S
C451 C446 1.399 . S
C451 C450 1.394 . S
C451 C452 1.516 . S
C452 C451 1.516 . S
C452 C453 1.502 . S
C452 C454 1.561 . S
C452 C455 1.526 . S
C453 H437 0.959 . S
C453 H438 0.959 . S
C453 H439 0.961 . S
C453 C452 1.502 . S
C454 H440 0.960 . S
C454 H441 0.961 . S
C454 H442 0.959 . S
C454 C452 1.561 . S
C455 C452 1.526 . S
C455 C456 1.396 . S
C455 C460 1.390 . S
C456 C450 1.465 . S
C456 C455 1.396 . S
C456 C457 1.399 . S
C457 H443 0.929 . S
C457 C456 1.399 . S
C457 C458 1.385 . S
C458 H444 0.931 . S
C458 C457 1.385 . S
C458 C459 1.389 . S
C459 C458 1.389 . S
C459 C460 1.387 . S
C460 H445 0.930 . S
C460 C455 1.390 . S
C460 C459 1.387 . S
H461 C473 0.930 . S
H462 C475 0.930 . S
H463 C476 0.930 . S
H464 C480 0.959 . S
H465 C480 0.959 . S
H466 C480 0.961 . S
H467 C481 0.960 . S
H468 C481 0.961 . S
H469 C481 0.959 . S
H470 C484 0.929 . S
H471 C485 0.931 . S
H472 C487 0.930 . S
C473 H461 0.930 . S
C473 C474 1.399 . S
C473 C478 1.399 . S
C474 C473 1.399 . S
C474 C475 1.376 . S
C475 H462 0.930 . S
C475 C474 1.376 . S
C475 C476 1.388 . S
C476 H463 0.930 . S
C476 C475 1.388 . S
C476 C477 1.390 . S
C477 C476 1.390 . S
C477 C478 1.394 . S
C477 C483 1.465 . S
C478 C473 1.399 . S
C478 C477 1.394 . S
C478 C479 1.516 . S
C479 C478 1.516 . S
C479 C480 1.502 . S
C479 C481 1.561 . S
C479 C482 1.526 . S
C480 H464 0.959 . S
C480 H465 0.959 . S
C480 H466 0.961 . S
C480 C479 1.502 . S
C481 H467 0.960 . S
C481 H468 0.961 . S
C481 H469 0.959 . S
C481 C479 1.561 . S
C482 C479 1.526 . S
C482 C483 1.396 . S
C482 C487 1.390 . S
C483 C477 1.465 . S
C483 C482 1.396 . S
C483 C484 1.399 . S
C484 H470 0.929 . S
C484 C483 1.399 . S
C484 C485 1.385 . S
C485 H471 0.931 . S
C485 C484 1.385 . S
C485 C486 1.389 . S
C486 C485 1.389 . S
C486 C487 1.387 . S
C487 H472 0.930 . S
C487 C482 1.390 . S
C487 C486 1.387 . S
H488 C500 0.930 . S
H489 C502 0.930 . S
H490 C503 0.930 . S
H491 C507 0.959 . S
H492 C507 0.959 . S
H493 C507 0.961 . S
H494 C508 0.960 . S
H495 C508 0.961 . S
H496 C508 0.959 . S
H497 C511 0.929 . S
H498 C512 0.931 . S
H499 C514 0.930 . S
C500 H488 0.930 . S
C500 C501 1.399 . S
C500 C505 1.399 . S
C501 C500 1.399 . S
C501 C502 1.376 . S
C502 H489 0.930 . S
C502 C501 1.376 . S
C502 C503 1.388 . S
C503 H490 0.930 . S
C503 C502 1.388 . S
C503 C504 1.390 . S
C504 C503 1.390 . S
C504 C505 1.394 . S
C504 C510 1.465 . S
C505 C500 1.399 . S
C505 C504 1.394 . S
C505 C506 1.516 . S
C506 C505 1.516 . S
C506 C507 1.502 1_455 S
C506 C508 1.561 . S
C506 C509 1.526 . S
C507 H491 0.959 . S
C507 H492 0.959 . S
C507 H493 0.961 . S
C507 C506 1.502 1_655 S
C508 H494 0.960 . S
C508 H495 0.961 . S
C508 H496 0.959 . S
C508 C506 1.561 . S
C509 C506 1.526 . S
C509 C510 1.396 . S
C509 C514 1.390 . S
C510 C504 1.465 . S
C510 C509 1.396 . S
C510 C511 1.399 . S
C511 H497 0.929 . S
C511 C510 1.399 . S
C511 C512 1.385 . S
C512 H498 0.931 . S
C512 C511 1.385 . S
C512 C513 1.389 . S
C513 C512 1.389 . S
C513 C514 1.387 . S
C514 H499 0.930 . S
C514 C509 1.390 . S
C514 C513 1.387 . S
H515 C527 0.930 . S
H516 C529 0.930 . S
H517 C530 0.930 . S
H518 C534 0.959 . S
H519 C534 0.959 . S
H520 C534 0.961 . S
H521 C535 0.960 . S
H522 C535 0.961 . S
H523 C535 0.959 . S
H524 C538 0.929 . S
H525 C539 0.931 . S
H526 C541 0.930 . S
C527 H515 0.930 . S
C527 C528 1.399 . S
C527 C532 1.399 . S
C528 C527 1.399 . S
C528 C529 1.376 . S
C529 H516 0.930 . S
C529 C528 1.376 . S
C529 C530 1.388 . S
C530 H517 0.930 . S
C530 C529 1.388 . S
C530 C531 1.390 . S
C531 C530 1.390 . S
C531 C532 1.394 . S
C531 C537 1.465 . S
C532 C527 1.399 . S
C532 C531 1.394 . S
C532 C533 1.516 1_556 S
C533 C532 1.516 1_554 S
C533 C534 1.502 . S
C533 C535 1.561 . S
C533 C536 1.526 . S
C534 H518 0.959 . S
C534 H519 0.959 . S
C534 H520 0.961 . S
C534 C533 1.502 . S
C535 H521 0.960 . S
C535 H522 0.961 . S
C535 H523 0.959 . S
C535 C533 1.561 . S
C536 C533 1.526 . S
C536 C537 1.396 1_554 S
C536 C541 1.390 . S
C537 C531 1.465 . S
C537 C536 1.396 1_556 S
C537 C538 1.399 . S
C538 H524 0.929 . S
C538 C537 1.399 . S
C538 C539 1.385 1_556 S
C539 H525 0.931 . S
C539 C538 1.385 1_554 S
C539 C540 1.389 . S
C540 C539 1.389 . S
C540 C541 1.387 . S
C541 H526 0.930 . S
C541 C536 1.390 . S
C541 C540 1.387 . S
H542 C554 0.930 . S
H543 C556 0.930 . S
H544 C557 0.930 . S
H545 C561 0.959 1_545 S
H546 C561 0.959 . S
H547 C561 0.961 1_545 S
H548 C562 0.960 . S
H549 C562 0.961 . S
H550 C562 0.959 . S
H551 C565 0.929 . S
H552 C566 0.931 . S
H553 C568 0.930 . S
C554 H542 0.930 . S
C554 C555 1.399 . S
C554 C559 1.399 . S
C555 C554 1.399 . S
C555 C556 1.376 . S
C556 H543 0.930 . S
C556 C555 1.376 . S
C556 C557 1.388 . S
C557 H544 0.930 . S
C557 C556 1.388 . S
C557 C558 1.390 . S
C558 C557 1.390 . S
C558 C559 1.394 . S
C558 C564 1.465 1_545 S
C559 C554 1.399 . S
C559 C558 1.394 . S
C559 C560 1.516 1_545 S
C560 C559 1.516 1_565 S
C560 C561 1.502 . S
C560 C562 1.561 . S
C560 C563 1.526 . S
C561 H545 0.959 1_565 S
C561 H546 0.959 . S
C561 H547 0.961 1_565 S
C561 C560 1.502 . S
C562 H548 0.960 . S
C562 H549 0.961 . S
C562 H550 0.959 . S
C562 C560 1.561 . S
C563 C560 1.526 . S
C563 C564 1.396 . S
C563 C568 1.390 . S
C564 C558 1.465 1_565 S
C564 C563 1.396 . S
C564 C565 1.399 . S
C565 H551 0.929 . S
C565 C564 1.399 . S
C565 C566 1.385 . S
C566 H552 0.931 . S
C566 C565 1.385 . S
C566 C567 1.389 . S
C567 C566 1.389 . S
C567 C568 1.387 . S
C568 H553 0.930 . S
C568 C563 1.390 . S
C568 C567 1.387 . S
H569 C581 0.930 . S
H570 C583 0.930 1_655 S
H571 C584 0.930 1_655 S
H572 C588 0.967 . S
H573 C588 0.959 . S
H574 C588 0.961 . S
H575 C589 0.960 . S
H576 C589 0.961 . S
H577 C589 0.959 . S
H578 C592 0.929 1_665 S
H579 C593 0.931 . S
H580 C595 0.930 . S
C581 H569 0.930 . S
C581 C582 1.399 . S
C581 C586 1.399 . S
C582 C581 1.399 . S
C582 C583 1.376 . S
C583 H570 0.930 1_455 S
C583 C582 1.376 . S
C583 C584 1.388 1_554 S
C584 H571 0.930 1_455 S
C584 C583 1.388 1_556 S
C584 C585 1.390 . S
C585 C584 1.390 . S
C585 C586 1.394 1_556 S
C585 C591 1.465 1_565 S
C586 C581 1.399 . S
C586 C585 1.394 1_554 S
C586 C587 1.516 1_565 S
C587 C586 1.516 1_545 S
C587 C588 1.502 . S
C587 C589 1.561 . S
C587 C590 1.526 1_554 S
C588 H572 0.967 . S
C588 H573 0.959 . S
C588 H574 0.961 . S
C588 C587 1.502 . S
C589 H575 0.960 . S
C589 H576 0.961 . S
C589 H577 0.959 . S
C589 C587 1.561 . S
C590 C587 1.526 1_556 S
C590 C591 1.396 . S
C590 C595 1.390 . S
C591 C585 1.465 1_545 S
C591 C590 1.396 . S
C591 C592 1.399 . S
C592 H578 0.929 1_445 S
C592 C591 1.399 . S
C592 C593 1.385 . S
C593 H579 0.931 . S
C593 C592 1.385 . S
C593 C594 1.389 . S
C594 C593 1.389 . S
C594 C595 1.387 . S
C595 H580 0.930 . S
C595 C590 1.390 . S
C595 C594 1.387 . S
H596 C608 0.930 . S
H597 C610 0.930 . S
H598 C611 0.930 . S
H599 C615 0.959 . S
H600 C615 0.959 . S
H601 C615 0.961 . S
H602 C616 0.960 . S
H603 C616 0.961 . S
H604 C616 0.959 . S
H605 C619 0.929 . S
H606 C620 0.931 . S
H607 C622 0.930 . S
C608 H596 0.930 . S
C608 C609 1.399 . S
C608 C613 1.399 . S
C609 C608 1.399 . S
C609 C610 1.376 . S
C610 H597 0.930 . S
C610 C609 1.376 . S
C610 C611 1.388 . S
C611 H598 0.930 . S
C611 C610 1.388 . S
C611 C612 1.390 . S
C612 C611 1.390 . S
C612 C613 1.394 . S
C612 C618 1.465 . S
C613 C608 1.399 . S
C613 C612 1.394 . S
C613 C614 1.516 . S
C614 C613 1.516 . S
C614 C615 1.502 . S
C614 C616 1.561 . S
C614 C617 1.526 . S
C615 H599 0.959 . S
C615 H600 0.959 . S
C615 H601 0.961 . S
C615 C614 1.502 . S
C616 H602 0.960 . S
C616 H603 0.961 . S
C616 H604 0.959 . S
C616 C614 1.561 . S
C617 C614 1.526 . S
C617 C618 1.396 . S
C617 C622 1.390 . S
C618 C612 1.465 . S
C618 C617 1.396 . S
C618 C619 1.399 . S
C619 H605 0.929 . S
C619 C618 1.399 . S
C619 C620 1.385 . S
C620 H606 0.931 . S
C620 C619 1.385 . S
C620 C621 1.389 . S
C621 C620 1.389 . S
C621 C622 1.387 . S
C622 H607 0.930 . S
C622 C617 1.390 . S
C622 C621 1.387 . S
H623 C635 0.930 . S
H624 C637 0.930 . S
H625 C638 0.930 . S
H626 C642 0.959 . S
H627 C642 0.959 . S
H628 C642 0.961 . S
H629 C643 0.960 . S
H630 C643 0.961 . S
H631 C643 0.959 . S
H632 C646 0.930 . S
H633 C647 0.931 . S
H634 C649 0.930 . S
C635 H623 0.930 . S
C635 C636 1.399 . S
C635 C640 1.399 . S
C636 C635 1.399 . S
C636 C637 1.376 . S
C637 H624 0.930 . S
C637 C636 1.376 . S
C637 C638 1.388 . S
C638 H625 0.930 . S
C638 C637 1.388 . S
C638 C639 1.390 . S
C639 C638 1.390 . S
C639 C640 1.394 . S
C639 C645 1.465 . S
C640 C635 1.399 . S
C640 C639 1.394 . S
C640 C641 1.516 . S
C641 C640 1.516 . S
C641 C642 1.502 . S
C641 C643 1.561 . S
C641 C644 1.526 . S
C642 H626 0.959 . S
C642 H627 0.959 . S
C642 H628 0.961 . S
C642 C641 1.502 . S
C643 H629 0.960 . S
C643 H630 0.961 . S
C643 H631 0.959 . S
C643 C641 1.561 . S
C644 C641 1.526 . S
C644 C645 1.396 . S
C644 C649 1.390 . S
C645 C639 1.465 . S
C645 C644 1.396 . S
C645 C646 1.382 1_556 S
C646 H632 0.930 . S
C646 C645 1.382 1_554 S
C646 C647 1.402 . S
C647 H633 0.931 . S
C647 C646 1.402 . S
C647 C648 1.389 . S
C648 C647 1.389 . S
C648 C649 1.387 1_554 S
C649 H634 0.930 . S
C649 C644 1.390 . S
C649 C648 1.387 1_556 S
H650 C662 0.930 . S
H651 C664 0.930 . S
H652 C665 0.930 . S
H653 C669 0.959 . S
H654 C669 0.959 . S
H655 C669 0.961 . S
H656 C670 0.960 . S
H657 C670 0.961 . S
H658 C670 0.959 . S
H659 C673 0.929 . S
H660 C674 0.931 . S
H661 C676 0.930 . S
C662 H650 0.930 . S
C662 C663 1.399 . S
C662 C667 1.399 . S
C663 C662 1.399 . S
C663 C664 1.376 . S
C664 H651 0.930 . S
C664 C663 1.376 . S
C664 C665 1.388 . S
C665 H652 0.930 . S
C665 C664 1.388 . S
C665 C666 1.390 . S
C666 C665 1.390 . S
C666 C667 1.394 . S
C666 C672 1.465 . S
C667 C662 1.399 . S
C667 C666 1.394 . S
C667 C668 1.516 . S
C668 C667 1.516 . S
C668 C669 1.502 . S
C668 C670 1.561 . S
C668 C671 1.526 . S
C669 H653 0.959 . S
C669 H654 0.959 . S
C669 H655 0.961 . S
C669 C668 1.502 . S
C670 H656 0.960 . S
C670 H657 0.961 . S
C670 H658 0.959 . S
C670 C668 1.561 . S
C671 C668 1.526 . S
C671 C672 1.396 . S
C671 C676 1.390 . S
C672 C666 1.465 . S
C672 C671 1.396 . S
C672 C673 1.399 . S
C673 H659 0.929 . S
C673 C672 1.399 . S
C673 C674 1.385 . S
C674 H660 0.931 . S
C674 C673 1.385 . S
C674 C675 1.389 . S
C675 C674 1.389 . S
C675 C676 1.387 . S
C676 H661 0.930 . S
C676 C671 1.390 . S
C676 C675 1.387 . S
H677 C689 0.930 . S
H678 C691 0.930 . S
H679 C692 0.930 . S
H680 C696 0.959 . S
H681 C696 0.959 . S
H682 C696 0.961 . S
H683 C697 0.960 . S
H684 C697 0.961 . S
H685 C697 0.959 . S
H686 C700 0.929 . S
H687 C701 0.931 . S
H688 C703 0.930 . S
C689 H677 0.930 . S
C689 C690 1.399 1_554 S
C689 C694 1.399 . S
C690 C689 1.399 1_556 S
C690 C691 1.376 . S
C691 H678 0.930 . S
C691 C690 1.376 . S
C691 C692 1.388 . S
C692 H679 0.930 . S
C692 C691 1.388 . S
C692 C693 1.390 . S
C693 C692 1.390 . S
C693 C694 1.394 1_556 S
C693 C699 1.465 1_556 S
C694 C689 1.399 . S
C694 C693 1.394 1_554 S
C694 C695 1.516 . S
C695 C694 1.516 . S
C695 C696 1.502 . S
C695 C697 1.561 . S
C695 C698 1.526 . S
C696 H680 0.959 . S
C696 H681 0.959 . S
C696 H682 0.961 . S
C696 C695 1.502 . S
C697 H683 0.960 . S
C697 H684 0.961 . S
C697 H685 0.959 . S
C697 C695 1.561 . S
C698 C695 1.526 . S
C698 C699 1.396 . S
C698 C703 1.390 . S
C699 C693 1.465 1_554 S
C699 C698 1.396 . S
C699 C700 1.399 1_554 S
C700 H686 0.929 . S
C700 C699 1.399 1_556 S
C700 C701 1.385 1_556 S
C701 H687 0.931 . S
C701 C700 1.385 1_554 S
C701 C702 1.389 . S
C702 C701 1.389 . S
C702 C703 1.387 . S
C703 H688 0.930 . S
C703 C698 1.390 . S
C703 C702 1.387 . S
H704 C716 0.930 . S
H705 C718 0.930 . S
H706 C719 0.930 . S
H707 C723 0.959 . S
H708 C723 0.959 . S
H709 C723 0.961 . S
H710 C724 0.960 . S
H711 C724 0.961 . S
H712 C724 0.959 . S
H713 C727 0.929 . S
H714 C728 0.931 . S
H715 C730 0.930 . S
C716 H704 0.930 . S
C716 C717 1.399 . S
C716 C721 1.399 . S
C717 C716 1.399 . S
C717 C718 1.376 . S
C718 H705 0.930 . S
C718 C717 1.376 . S
C718 C719 1.388 . S
C719 H706 0.930 . S
C719 C718 1.388 . S
C719 C720 1.390 . S
C720 C719 1.390 . S
C720 C721 1.394 . S
C720 C726 1.465 . S
C721 C716 1.399 . S
C721 C720 1.394 . S
C721 C722 1.516 . S
C722 C721 1.516 . S
C722 C723 1.502 . S
C722 C724 1.561 . S
C722 C725 1.526 . S
C723 H707 0.959 . S
C723 H708 0.959 . S
C723 H709 0.961 . S
C723 C722 1.502 . S
C724 H710 0.960 . S
C724 H711 0.961 . S
C724 H712 0.959 . S
C724 C722 1.561 . S
C725 C722 1.526 . S
C725 C726 1.396 . S
C725 C730 1.390 . S
C726 C720 1.465 . S
C726 C725 1.396 . S
C726 C727 1.399 . S
C727 H713 0.929 . S
C727 C726 1.399 . S
C727 C728 1.385 . S
C728 H714 0.931 . S
C728 C727 1.385 . S
C728 C729 1.389 . S
C729 C728 1.389 . S
C729 C730 1.387 . S
C730 H715 0.930 . S
C730 C725 1.390 . S
C730 C729 1.387 . S
H731 C743 0.930 . S
H732 C745 0.930 . S
H733 C746 0.930 . S
H734 C750 0.959 . S
H735 C750 0.959 . S
H736 C750 0.961 . S
H737 C751 0.960 . S
H738 C751 0.961 . S
H739 C751 0.959 . S
H740 C754 0.929 . S
H741 C755 0.931 . S
H742 C757 0.930 . S
C743 H731 0.930 . S
C743 C744 1.399 . S
C743 C748 1.399 1_554 S
C744 C743 1.399 . S
C744 C745 1.376 . S
C745 H732 0.930 . S
C745 C744 1.376 . S
C745 C746 1.388 1_554 S
C746 H733 0.930 . S
C746 C745 1.388 1_556 S
C746 C747 1.390 . S
C747 C746 1.390 . S
C747 C748 1.394 . S
C747 C753 1.465 . S
C748 C743 1.399 1_556 S
C748 C747 1.394 . S
C748 C749 1.516 . S
C749 C748 1.516 . S
C749 C750 1.502 . S
C749 C751 1.561 1_556 S
C749 C752 1.526 . S
C750 H734 0.959 . S
C750 H735 0.959 . S
C750 H736 0.961 . S
C750 C749 1.502 . S
C751 H737 0.960 . S
C751 H738 0.961 . S
C751 H739 0.959 . S
C751 C749 1.561 1_554 S
C752 C749 1.526 . S
C752 C753 1.396 . S
C752 C757 1.390 . S
C753 C747 1.465 . S
C753 C752 1.396 . S
C753 C754 1.399 . S
C754 H740 0.929 . S
C754 C753 1.399 . S
C754 C755 1.385 . S
C755 H741 0.931 . S
C755 C754 1.385 . S
C755 C756 1.389 . S
C756 C755 1.389 . S
C756 C757 1.387 . S
C757 H742 0.930 . S
C757 C752 1.390 . S
C757 C756 1.387 . S
H758 C770 0.930 . S
H759 C772 0.930 . S
H760 C773 0.930 . S
H761 C777 0.959 . S
H762 C777 0.959 . S
H763 C777 0.961 . S
H764 C778 0.960 . S
H765 C778 0.961 . S
H766 C778 0.959 . S
H767 C781 0.929 . S
H768 C782 0.931 . S
H769 C784 0.930 . S
C770 H758 0.930 . S
C770 C771 1.399 . S
C770 C775 1.399 . S
C771 C770 1.399 . S
C771 C772 1.376 . S
C772 H759 0.930 . S
C772 C771 1.376 . S
C772 C773 1.388 . S
C773 H760 0.930 . S
C773 C772 1.388 . S
C773 C774 1.390 . S
C774 C773 1.390 . S
C774 C775 1.394 . S
C774 C780 1.465 . S
C775 C770 1.399 . S
C775 C774 1.394 . S
C775 C776 1.516 . S
C776 C775 1.516 . S
C776 C777 1.502 . S
C776 C778 1.561 . S
C776 C779 1.526 . S
C777 H761 0.959 . S
C777 H762 0.959 . S
C777 H763 0.961 . S
C777 C776 1.502 . S
C778 H764 0.960 . S
C778 H765 0.961 . S
C778 H766 0.959 . S
C778 C776 1.561 . S
C779 C776 1.526 . S
C779 C780 1.396 . S
C779 C784 1.390 . S
C780 C774 1.465 . S
C780 C779 1.396 . S
C780 C781 1.399 . S
C781 H767 0.929 . S
C781 C780 1.399 . S
C781 C782 1.385 . S
C782 H768 0.931 . S
C782 C781 1.385 . S
C782 C783 1.389 . S
C783 C782 1.389 . S
C783 C784 1.387 . S
C784 H769 0.930 . S
C784 C779 1.390 . S
C784 C783 1.387 . S
H785 C797 0.930 . S
H786 C799 0.930 . S
H787 C800 0.930 . S
H788 C804 0.959 . S
H789 C804 0.959 . S
H790 C804 0.961 . S
H791 C805 0.960 . S
H792 C805 0.961 . S
H793 C805 0.959 . S
H794 C808 0.929 . S
H795 C809 0.931 . S
H796 C811 0.930 . S
C797 H785 0.930 . S
C797 C798 1.399 . S
C797 C802 1.399 . S
C798 C797 1.399 . S
C798 C799 1.376 1_556 S
C799 H786 0.930 . S
C799 C798 1.376 1_554 S
C799 C800 1.388 . S
C800 H787 0.930 . S
C800 C799 1.388 . S
C800 C801 1.390 . S
C801 C800 1.390 . S
C801 C802 1.394 1_554 S
C801 C807 1.465 . S
C802 C797 1.399 . S
C802 C801 1.394 1_556 S
C802 C803 1.516 . S
C803 C802 1.516 . S
C803 C804 1.502 . S
C803 C805 1.561 . S
C803 C806 1.526 1_556 S
C804 H788 0.959 . S
C804 H789 0.959 . S
C804 H790 0.961 . S
C804 C803 1.502 . S
C805 H791 0.960 . S
C805 H792 0.961 . S
C805 H793 0.959 . S
C805 C803 1.561 . S
C806 C803 1.526 1_554 S
C806 C807 1.396 . S
C806 C811 1.390 . S
C807 C801 1.465 . S
C807 C806 1.396 . S
C807 C808 1.399 . S
C808 H794 0.929 . S
C808 C807 1.399 . S
C808 C809 1.385 . S
C809 H795 0.931 . S
C809 C808 1.385 . S
C809 C810 1.389 . S
C810 C809 1.389 . S
C810 C811 1.387 . S
C811 H796 0.930 . S
C811 C806 1.390 . S
C811 C810 1.387 . S
C285 C5 1.708 . S
C297 C107 1.702 . S
C312 C39 1.443 . S
C324 C88 1.533 . S
C339 C77 1.528 . S
C351 C54 1.533 . S
C366 C122 1.332 . S
C378 C20 1.343 . S
C393 C141 1.718 . S
C405 C243 1.702 . S
C420 C224 1.533 . S
C432 C175 1.511 . S
C447 C190 1.531 . S
C459 C213 1.532 . S
C474 C258 1.341 . S
C486 C156 1.326 . S
C501 C101 1.665 . S
C513 C33 1.633 . S
C528 C67 1.482 . S
C540 C135 1.469 . S
C555 C237 1.664 . S
C567 C169 1.633 . S
C582 C271 1.441 . S
C594 C203 1.493 . S
C609 C2 1.959 . S
C621 C206 1.957 . S
C636 C36 1.190 . S
C648 C247 1.206 . S
C663 C73 1.309 . S
C675 C145 1.359 . S
C690 C179 1.592 . S
C702 C104 1.629 . S
C717 C70 1.961 . S
C729 C138 1.960 . S
C744 C111 1.208 . S
C756 C172 1.191 . S
C771 C9 1.356 . S
C783 C209 1.307 . S
C798 C43 1.610 . S
C810 C240 1.607 . S
