# Generated by pormake.
# Topology whr, (6)-cn, num edge types: 1
# Building blocks:
#     Node 0, Type 0, BuildingBlock: IZENUY_clean_sbu_0, # of connection points: 6
#     Node 1, Type 0, BuildingBlock: IZENUY_clean_sbu_0, # of connection points: 6
#     Node 2, Type 0, BuildingBlock: IZENUY_clean_sbu_0, # of connection points: 6
#     Node 3, Type 0, BuildingBlock: IZENUY_clean_sbu_0, # of connection points: 6
#     Node 4, Type 0, BuildingBlock: IZENUY_clean_sbu_0, # of connection points: 6
#     Node 5, Type 0, BuildingBlock: IZENUY_clean_sbu_0, # of connection points: 6
#     Node 6, Type 0, BuildingBlock: IZENUY_clean_sbu_0, # of connection points: 6
#     Node 7, Type 0, BuildingBlock: IZENUY_clean_sbu_0, # of connection points: 6
#     Node 8, Type 0, BuildingBlock: IZENUY_clean_sbu_0, # of connection points: 6
#     Node 9, Type 0, BuildingBlock: IZENUY_clean_sbu_0, # of connection points: 6
#     Node 10, Type 0, BuildingBlock: IZENUY_clean_sbu_0, # of connection points: 6
#     Node 11, Type 0, BuildingBlock: IZENUY_clean_sbu_0, # of connection points: 6
#     Node 12, Type 0, BuildingBlock: IZENUY_clean_sbu_0, # of connection points: 6
#     Node 13, Type 0, BuildingBlock: IZENUY_clean_sbu_0, # of connection points: 6
#     Node 14, Type 0, BuildingBlock: IZENUY_clean_sbu_0, # of connection points: 6
#     Node 15, Type 0, BuildingBlock: IZENUY_clean_sbu_0, # of connection points: 6
#     Edge 16, Type (0, 0), BuildingBlock: CIFDUS_clean_linker_0, # of connection points: 2
#     Edge 17, Type (0, 0), BuildingBlock: CIFDUS_clean_linker_0, # of connection points: 2
#     Edge 18, Type (0, 0), BuildingBlock: CIFDUS_clean_linker_0, # of connection points: 2
#     Edge 19, Type (0, 0), BuildingBlock: CIFDUS_clean_linker_0, # of connection points: 2
#     Edge 20, Type (0, 0), BuildingBlock: CIFDUS_clean_linker_0, # of connection points: 2
#     Edge 21, Type (0, 0), BuildingBlock: CIFDUS_clean_linker_0, # of connection points: 2
#     Edge 22, Type (0, 0), BuildingBlock: CIFDUS_clean_linker_0, # of connection points: 2
#     Edge 23, Type (0, 0), BuildingBlock: CIFDUS_clean_linker_0, # of connection points: 2
#     Edge 24, Type (0, 0), BuildingBlock: CIFDUS_clean_linker_0, # of connection points: 2
#     Edge 25, Type (0, 0), BuildingBlock: CIFDUS_clean_linker_0, # of connection points: 2
#     Edge 26, Type (0, 0), BuildingBlock: CIFDUS_clean_linker_0, # of connection points: 2
#     Edge 27, Type (0, 0), BuildingBlock: CIFDUS_clean_linker_0, # of connection points: 2
#     Edge 28, Type (0, 0), BuildingBlock: CIFDUS_clean_linker_0, # of connection points: 2
#     Edge 29, Type (0, 0), BuildingBlock: CIFDUS_clean_linker_0, # of connection points: 2
#     Edge 30, Type (0, 0), BuildingBlock: CIFDUS_clean_linker_0, # of connection points: 2
#     Edge 31, Type (0, 0), BuildingBlock: CIFDUS_clean_linker_0, # of connection points: 2
#     Edge 32, Type (0, 0), BuildingBlock: CIFDUS_clean_linker_0, # of connection points: 2
#     Edge 33, Type (0, 0), BuildingBlock: CIFDUS_clean_linker_0, # of connection points: 2
#     Edge 34, Type (0, 0), BuildingBlock: CIFDUS_clean_linker_0, # of connection points: 2
#     Edge 35, Type (0, 0), BuildingBlock: CIFDUS_clean_linker_0, # of connection points: 2
#     Edge 36, Type (0, 0), BuildingBlock: CIFDUS_clean_linker_0, # of connection points: 2
#     Edge 37, Type (0, 0), BuildingBlock: CIFDUS_clean_linker_0, # of connection points: 2
#     Edge 38, Type (0, 0), BuildingBlock: CIFDUS_clean_linker_0, # of connection points: 2
#     Edge 39, Type (0, 0), BuildingBlock: CIFDUS_clean_linker_0, # of connection points: 2
#     Edge 40, Type (0, 0), BuildingBlock: CIFDUS_clean_linker_0, # of connection points: 2
#     Edge 41, Type (0, 0), BuildingBlock: CIFDUS_clean_linker_0, # of connection points: 2
#     Edge 42, Type (0, 0), BuildingBlock: CIFDUS_clean_linker_0, # of connection points: 2
#     Edge 43, Type (0, 0), BuildingBlock: CIFDUS_clean_linker_0, # of connection points: 2
#     Edge 44, Type (0, 0), BuildingBlock: CIFDUS_clean_linker_0, # of connection points: 2
#     Edge 45, Type (0, 0), BuildingBlock: CIFDUS_clean_linker_0, # of connection points: 2
#     Edge 46, Type (0, 0), BuildingBlock: CIFDUS_clean_linker_0, # of connection points: 2
#     Edge 47, Type (0, 0), BuildingBlock: CIFDUS_clean_linker_0, # of connection points: 2
#     Edge 48, Type (0, 0), BuildingBlock: CIFDUS_clean_linker_0, # of connection points: 2
#     Edge 49, Type (0, 0), BuildingBlock: CIFDUS_clean_linker_0, # of connection points: 2
#     Edge 50, Type (0, 0), BuildingBlock: CIFDUS_clean_linker_0, # of connection points: 2
#     Edge 51, Type (0, 0), BuildingBlock: CIFDUS_clean_linker_0, # of connection points: 2
#     Edge 52, Type (0, 0), BuildingBlock: CIFDUS_clean_linker_0, # of connection points: 2
#     Edge 53, Type (0, 0), BuildingBlock: CIFDUS_clean_linker_0, # of connection points: 2
#     Edge 54, Type (0, 0), BuildingBlock: CIFDUS_clean_linker_0, # of connection points: 2
#     Edge 55, Type (0, 0), BuildingBlock: CIFDUS_clean_linker_0, # of connection points: 2
#     Edge 56, Type (0, 0), BuildingBlock: CIFDUS_clean_linker_0, # of connection points: 2
#     Edge 57, Type (0, 0), BuildingBlock: CIFDUS_clean_linker_0, # of connection points: 2
#     Edge 58, Type (0, 0), BuildingBlock: CIFDUS_clean_linker_0, # of connection points: 2
#     Edge 59, Type (0, 0), BuildingBlock: CIFDUS_clean_linker_0, # of connection points: 2
#     Edge 60, Type (0, 0), BuildingBlock: CIFDUS_clean_linker_0, # of connection points: 2
#     Edge 61, Type (0, 0), BuildingBlock: CIFDUS_clean_linker_0, # of connection points: 2
#     Edge 62, Type (0, 0), BuildingBlock: CIFDUS_clean_linker_0, # of connection points: 2
#     Edge 63, Type (0, 0), BuildingBlock: CIFDUS_clean_linker_0, # of connection points: 2
# Relax obj value: 0.339
# Max RMSD: 0.260
# Mean RMSD: 0.260
data_MOF--net-whr--node1-IZENUY_clean_sbu_0--edge1-CIFDUS_clean_linker_0
_symmetry_space_group_name_H-M    P1
_symmetry_Int_Tables_number       1
_symmetry_cell_setting            triclinic
loop_
_symmetry_equiv_pos_as_xyz
'x, y, z'
_cell_length_a     42.230341
_cell_length_b     42.090418
_cell_length_c     24.750085
_cell_angle_alpha  89.922518
_cell_angle_beta   89.94298
_cell_angle_gamma 90.139964
loop_
_atom_site_label
_atom_site_type_symbol
_atom_site_fract_x
_atom_site_fract_y
_atom_site_fract_z
_atom_type_partial_charge
Fe0 Fe 0.19295 0.06174 0.10827 0.0
Fe1 Fe 0.25527 0.042 0.05476 0.0
O2 O 0.22452 0.07038 0.06384 0.0
Fe3 Fe 0.22525 0.10724 0.02948 0.0
O4 O 0.18678 0.10109 0.9988 0.0
O5 O 0.16324 0.08588 0.07327 0.0
O6 O 0.18088 0.02868 0.06661 0.0
C7 C 0.19856 1.00523 0.05684 0.0
C8 C 0.20509 0.12301 0.13596 0.0
O9 O 0.22845 1.00728 0.06308 0.0
C10 C 0.28831 0.10173 0.04701 0.0
O11 O 0.21595 0.03569 0.1522 0.0
O12 O 0.26534 0.04204 0.12666 0.0
O13 O 0.20791 0.12973 0.08613 0.0
O14 O 0.20381 0.0945 0.15178 0.0
C15 C 0.24581 0.06206 0.95102 0.0
O16 O 0.28719 0.07175 0.04114 0.0
O17 O 0.26344 0.11671 0.05781 0.0
C18 C 0.24523 0.03326 0.16159 0.0
O19 O 0.24717 0.03926 0.98384 0.0
O20 O 0.24224 0.09053 0.96682 0.0
C21 C 0.16187 0.09646 0.02559 0.0
Fe22 Fe 0.03855 0.76063 0.9584 0.0
Fe23 Fe 0.10437 0.79016 0.97922 0.0
O24 O 0.06728 0.79079 0.94611 0.0
Fe25 Fe 0.0586 0.82154 0.89967 0.0
O26 O 0.02589 0.8348 0.94103 0.0
O27 O 1.00419 0.78741 0.94831 0.0
O28 O 0.03644 0.77058 0.02903 0.0
C29 C 0.05963 0.77236 0.06093 0.0
C30 C 0.03152 0.76765 0.85026 0.0
O31 O 0.08794 0.77483 0.04366 0.0
C32 C 0.11951 0.8086 0.87057 0.0
O33 O 0.06738 0.72863 0.97281 0.0
O34 O 0.11303 0.75086 0.95405 0.0
O35 O 0.03246 0.79731 0.85765 0.0
O36 O 0.0388 0.7486 0.88763 0.0
C37 C 0.09444 0.85403 0.97932 0.0
O38 O 0.12663 0.8059 0.92035 0.0
O39 O 0.09094 0.80988 0.8558 0.0
C40 C 0.09683 0.72639 0.9638 0.0
O41 O 0.09926 0.82953 1.0072 0.0
O42 O 0.08304 0.85199 0.93234 0.0
C43 C 1.0023 0.81752 0.95203 0.0
Fe44 Fe 0.78837 0.91359 0.03021 0.0
Fe45 Fe 0.82245 0.95807 0.10942 0.0
O46 O 0.79022 0.95036 0.06531 0.0
Fe47 Fe 0.76012 0.97948 0.05766 0.0
O48 O 0.76636 0.98191 0.98581 0.0
O49 O 0.77099 0.93071 0.96837 0.0
O50 O 0.82691 0.91936 0.99905 0.0
C51 C 0.85207 0.9233 0.02544 0.0
C52 C 0.72538 0.92091 0.05448 0.0
O53 O 0.85123 0.93345 0.07335 0.0
C54 C 0.77171 0.98668 0.16514 0.0
O55 O 0.80566 0.89048 0.08632 0.0
O56 O 0.81094 0.92519 0.15244 0.0
O57 O 0.72734 0.95075 0.04822 0.0
O58 O 0.74984 0.90401 0.05778 0.0
C59 C 0.81802 0.01461 0.05713 0.0
O60 O 0.80081 0.98456 0.15462 0.0
O61 O 0.75129 0.97947 0.13005 0.0
C62 C 0.80914 0.8968 0.13618 0.0
O63 O 0.83536 0.99121 0.06867 0.0
O64 O 0.78806 0.01341 0.06305 0.0
C65 C 0.76688 0.95916 0.95283 0.0
Fe66 Fe 0.95344 0.19843 0.90592 0.0
Fe67 Fe 0.97807 0.26035 0.95386 0.0
O68 O 0.94864 0.23035 0.95151 0.0
Fe69 Fe 0.91469 0.23149 0.99348 0.0
O70 O 0.92297 0.19249 0.02199 0.0
O71 O 0.92956 0.16952 0.94401 0.0
O72 O 0.98795 0.18495 0.94227 0.0
C73 C 0.01235 0.20205 0.94831 0.0
C74 C 0.89181 0.21253 0.88877 0.0
O75 O 0.01108 0.23209 0.94129 0.0
C76 C 0.92041 0.29493 0.96926 0.0
O77 O 0.97813 0.2202 0.85749 0.0
O78 O 0.97326 0.26963 0.88256 0.0
O79 O 0.88807 0.21476 0.93999 0.0
O80 O 0.91921 0.21121 0.86845 0.0
C81 C 0.96519 0.25359 0.06175 0.0
O82 O 0.95039 0.29315 0.96914 0.0
O83 O 0.90336 0.27037 0.96958 0.0
C84 C 0.97932 0.24945 0.84665 0.0
O85 O 0.98521 0.25366 0.02416 0.0
O86 O 0.9359 0.24857 0.05269 0.0
C87 C 0.92304 0.16774 0.99366 0.0
Fe88 Fe 0.82166 0.06343 0.61854 0.0
Fe89 Fe 0.7606 0.04597 0.55851 0.0
O90 O 0.79212 0.07317 0.57079 0.0
Fe91 Fe 0.79403 0.1099 0.53646 0.0
O92 O 0.83314 0.10219 0.50985 0.0
O93 O 0.85363 0.08617 0.58634 0.0
O94 O 0.83363 0.02973 0.57843 0.0
C95 C 0.8154 1.00691 0.56697 0.0
C96 C 0.81148 0.12537 0.64519 0.0
O97 O 0.78545 0.01016 0.57044 0.0
C98 C 0.73029 0.10659 0.54781 0.0
O99 O 0.79569 0.03879 0.66029 0.0
O100 O 0.74784 0.04761 0.62902 0.0
O101 O 0.8102 0.132 0.59502 0.0
O102 O 0.81107 0.09684 0.66106 0.0
C103 C 0.77459 0.0652 0.45561 0.0
O104 O 0.73056 0.07669 0.54129 0.0
O105 O 0.75531 0.12085 0.56064 0.0
C106 C 0.76606 0.03948 0.66703 0.0
O107 O 0.77122 0.04244 0.48829 0.0
O108 O 0.77859 0.09359 0.47204 0.0
C109 C 0.85692 0.09682 0.53895 0.0
Fe110 Fe 0.06448 0.19481 0.41277 0.0
Fe111 Fe 0.04456 0.25829 0.46206 0.0
O112 O 0.07324 0.22773 0.45443 0.0
Fe113 Fe 0.11045 0.22973 0.48754 0.0
O114 O 0.1051 0.19167 0.52107 0.0
O115 O 0.0894 0.16632 0.44876 0.0
O116 O 0.03223 0.18314 0.45657 0.0
C117 C 0.00872 0.20079 0.46588 0.0
C118 C 0.125 0.20728 0.38181 0.0
O119 O 0.0104 0.23066 0.45808 0.0
C120 C 0.1032 0.29245 0.46069 0.0
O121 O 0.03749 0.21609 0.36808 0.0
O122 O 0.04326 0.26626 0.38943 0.0
O123 O 0.13234 0.2113 0.43114 0.0
O124 O 0.0964 0.20523 0.36729 0.0
C125 C 0.0662 0.25203 0.5659 0.0
O126 O 0.07367 0.29103 0.46975 0.0
O127 O 0.11955 0.26763 0.45693 0.0
C128 C 0.03458 0.24511 0.35643 0.0
O129 O 0.04314 0.2525 0.53379 0.0
O130 O 0.09445 0.24819 0.54949 0.0
C131 C 0.10024 0.16607 0.49619 0.0
Fe132 Fe 0.19452 0.95321 0.60783 0.0
Fe133 Fe 0.2581 0.97481 0.56211 0.0
O134 O 0.22671 0.94681 0.56359 0.0
Fe135 Fe 0.22692 0.91256 0.52222 0.0
O136 O 0.18904 0.9226 0.49155 0.0
O137 O 0.16532 0.93068 0.56853 0.0
O138 O 0.18337 0.98842 0.5709 0.0
C139 C 0.20156 0.01214 0.56569 0.0
C140 C 0.2054 0.89075 0.62608 0.0
O141 O 0.23137 1.00939 0.5731 0.0
C142 C 0.28967 0.91515 0.55123 0.0
O143 O 0.2166 0.9769 0.65688 0.0
O144 O 0.266 0.96985 0.63386 0.0
O145 O 0.20794 0.88685 0.57499 0.0
O146 O 0.20495 0.91831 0.64614 0.0
C147 C 0.25258 0.9619 0.4543 0.0
O148 O 0.28977 0.94528 0.54883 0.0
O149 O 0.26429 0.89953 0.54926 0.0
C150 C 0.24559 0.97681 0.66886 0.0
O151 O 0.25282 0.98204 0.49165 0.0
O152 O 0.24623 0.93274 0.46355 0.0
C153 C 0.16397 0.92389 0.51896 0.0
Fe154 Fe 0.95337 0.82478 0.40599 0.0
Fe155 Fe 0.9748 0.76282 0.45987 0.0
O156 O 0.94553 0.79261 0.45044 0.0
Fe157 Fe 0.90844 0.79015 0.484 0.0
O158 O 0.91297 0.8289 0.51515 0.0
O159 O 0.9284 0.85361 0.44156 0.0
O160 O 0.98605 0.83814 0.44706 0.0
C161 C 0.00945 0.82098 0.45898 0.0
C162 C 0.89262 0.81098 0.37771 0.0
O163 O 0.00844 0.79093 0.45365 0.0
C164 C 0.91708 0.72701 0.46252 0.0
O165 O 0.9801 0.80272 0.36162 0.0
O166 O 0.97528 0.75316 0.38791 0.0
O167 O 0.88581 0.80718 0.42728 0.0
O168 O 0.92105 0.81302 0.3623 0.0
C169 C 0.95328 0.77018 0.56338 0.0
O170 O 0.94661 0.72966 0.47054 0.0
O171 O 0.90027 0.75136 0.4557 0.0
C172 C 0.98233 0.77337 0.35212 0.0
O173 O 0.97647 0.77019 0.53135 0.0
O174 O 0.92502 0.77308 0.54661 0.0
C175 C 0.91729 0.85422 0.48897 0.0
Fe176 Fe 0.75695 0.53912 0.55805 0.0
Fe177 Fe 0.72526 0.6044 0.54327 0.0
O178 O 0.72582 0.5662 0.57247 0.0
Fe179 Fe 0.69562 0.55487 0.61787 0.0
O180 O 0.68328 0.5237 0.57271 0.0
O181 O 0.73112 0.50337 0.56536 0.0
O182 O 0.74685 0.53849 0.48757 0.0
C183 C 0.74399 0.56253 0.45755 0.0
C184 C 0.75008 0.52811 0.6654 0.0
O185 O 0.74055 0.59034 0.47703 0.0
C186 C 0.70844 0.61472 0.65341 0.0
O187 O 0.78783 0.56996 0.54408 0.0
O188 O 0.76394 0.613 0.57014 0.0
O189 O 0.72054 0.5276 0.65704 0.0
O190 O 0.76886 0.53803 0.62919 0.0
C191 C 0.66204 0.59331 0.5426 0.0
O192 O 0.70942 0.62414 0.60454 0.0
O193 O 0.70702 0.58555 0.6648 0.0
C194 C 0.78857 0.59954 0.55384 0.0
O195 O 0.68627 0.59913 0.51484 0.0
O196 O 0.6645 0.58007 0.5883 0.0
C197 C 0.70117 0.50104 0.5595 0.0
Fe198 Fe 0.53518 0.25962 0.46387 0.0
Fe199 Fe 0.60197 0.28891 0.47565 0.0
O200 O 0.56317 0.29001 0.44878 0.0
Fe201 Fe 0.55186 0.32142 0.40542 0.0
O202 O 0.52192 0.33413 0.45293 0.0
O203 O 0.50053 0.28659 0.46008 0.0
O204 O 0.53667 0.26854 0.53487 0.0
C205 C 0.56131 0.27055 0.56343 0.0
C206 C 0.52235 0.26842 0.35761 0.0
O207 O 0.58875 0.27352 0.54238 0.0
C208 C 0.61043 0.30744 0.36512 0.0
O209 O 0.56446 0.22738 0.47312 0.0
O210 O 0.60903 0.24972 0.4487 0.0
O211 O 0.52313 0.29791 0.36696 0.0
O212 O 0.53201 0.2488 0.39255 0.0
C213 C 0.59308 0.35288 0.47873 0.0
O214 O 0.62092 0.30462 0.41318 0.0
O215 O 0.58115 0.30999 0.356 0.0
C216 C 0.59345 0.22522 0.46059 0.0
O217 O 0.59898 0.32808 0.50507 0.0
O218 O 0.57848 0.35143 0.43433 0.0
C219 C 0.49892 0.31658 0.46623 0.0
Fe220 Fe 0.25781 0.4811 0.56358 0.0
Fe221 Fe 0.28581 0.41403 0.5458 0.0
O222 O 0.28724 0.45202 0.57673 0.0
Fe223 Fe 0.31822 0.46112 0.62254 0.0
O224 O 0.33278 0.49232 0.57913 0.0
O225 O 0.28599 0.51492 0.56856 0.0
O226 O 0.26642 0.48113 0.49255 0.0
C227 C 0.2675 0.45731 0.4619 0.0
C228 C 0.26621 0.4913 0.67094 0.0
O229 O 0.27087 0.42929 0.48038 0.0
C230 C 0.3023 0.4015 0.65571 0.0
O231 O 0.22502 0.45253 0.55327 0.0
O232 O 0.24631 0.40609 0.57066 0.0
O233 O 0.29556 0.48957 0.66246 0.0
O234 O 0.24674 0.48316 0.63491 0.0
C235 C 0.3497 0.42259 0.54572 0.0
O236 O 0.30073 0.39285 0.60647 0.0
O237 O 0.30478 0.43045 0.66821 0.0
C238 C 0.22232 0.42305 0.56256 0.0
O239 O 0.32528 0.41804 0.51776 0.0
O240 O 0.34768 0.43464 0.59224 0.0
C241 C 0.31608 0.51556 0.56437 0.0
Fe242 Fe 0.47983 0.7582 0.4573 0.0
Fe243 Fe 0.41635 0.72964 0.49713 0.0
O244 O 0.45061 0.72799 0.45599 0.0
Fe245 Fe 0.45593 0.69523 0.41232 0.0
O246 O 0.48994 0.68251 0.45064 0.0
O247 O 0.51306 0.72968 0.44798 0.0
O248 O 0.48622 0.75322 0.52816 0.0
C249 C 0.46588 0.75374 0.56518 0.0
C250 C 0.48298 0.74495 0.35099 0.0
O251 O 0.43679 0.74805 0.55575 0.0
C252 C 0.39446 0.70906 0.39313 0.0
O253 O 0.45168 0.79124 0.4695 0.0
O254 O 0.40496 0.76783 0.47077 0.0
O255 O 0.4813 0.71593 0.36339 0.0
O256 O 0.47591 0.76581 0.38524 0.0
C257 C 0.42475 0.66603 0.5007 0.0
O258 O 0.39037 0.71185 0.4441 0.0
O259 O 0.42201 0.70732 0.37329 0.0
C260 C 0.42164 0.79262 0.46971 0.0
O261 O 0.42467 0.69123 0.52791 0.0
O262 O 0.43165 0.66705 0.45116 0.0
C263 C 0.51414 0.69981 0.45721 0.0
Fe264 Fe 0.32167 0.56006 0.12232 0.0
Fe265 Fe 0.25923 0.54364 0.06562 0.0
O266 O 0.29113 0.57054 0.07705 0.0
Fe267 Fe 0.29221 0.60782 0.04454 0.0
O268 O 0.33062 0.60071 0.01462 0.0
O269 O 0.35287 0.58325 0.08882 0.0
O270 O 0.33257 0.52697 0.07992 0.0
C271 C 0.314 0.50439 0.06872 0.0
C272 C 0.31222 0.62163 0.15209 0.0
O273 O 0.28417 0.5076 0.0745 0.0
C274 C 0.22902 0.60452 0.05922 0.0
O275 O 0.2966 0.53481 0.16476 0.0
O276 O 0.24808 0.54423 0.13703 0.0
O277 O 0.30988 0.62889 0.10243 0.0
O278 O 0.31219 0.59291 0.16699 0.0
C279 C 0.27091 0.56459 0.96304 0.0
O280 O 0.22895 0.57474 0.05124 0.0
O281 O 0.25427 0.61803 0.07281 0.0
C282 C 0.2671 0.53513 0.1733 0.0
O283 O 0.26839 0.54119 0.99464 0.0
O284 O 0.27511 0.59265 0.98072 0.0
C285 C 0.35505 0.59482 0.04184 0.0
Fe286 Fe 0.55756 0.69741 0.90984 0.0
Fe287 Fe 0.54147 0.75931 0.96788 0.0
O288 O 0.56907 0.72863 0.95333 0.0
Fe289 Fe 0.60774 0.72881 0.98107 0.0
O290 O 0.60343 0.68955 0.01046 0.0
O291 O 0.58396 0.66723 0.93813 0.0
O292 O 0.5277 0.68457 0.95735 0.0
C293 C 0.50492 0.70214 0.97127 0.0
C294 C 0.61613 0.71137 0.8705 0.0
O295 O 0.50669 0.73222 0.96578 0.0
C296 C 0.6005 0.79267 0.96251 0.0
O297 O 0.52868 0.72062 0.87188 0.0
O298 O 0.53735 0.76983 0.89662 0.0
O299 O 0.62642 0.71289 0.91884 0.0
O300 O 0.58687 0.70934 0.86078 0.0
C301 C 0.56744 0.74873 0.0677 0.0
O302 O 0.57139 0.79141 0.97501 0.0
O303 O 0.61612 0.7678 0.95425 0.0
C304 C 0.52686 0.75002 0.86283 0.0
O305 O 0.54314 0.75108 0.03868 0.0
O306 O 0.59487 0.74455 0.04754 0.0
C307 C 0.59737 0.66503 0.98344 0.0
Fe308 Fe 0.69624 0.45852 0.10856 0.0
Fe309 Fe 0.75992 0.47728 0.05886 0.0
O310 O 0.72956 0.44863 0.06877 0.0
Fe311 Fe 0.73238 0.41039 0.04004 0.0
O312 O 0.69516 0.41444 1.00498 0.0
O313 O 0.66823 0.43142 0.07439 0.0
O314 O 0.68505 0.48932 0.06127 0.0
C315 C 0.70265 0.51301 0.05186 0.0
C316 C 0.70944 0.39942 0.14719 0.0
O317 O 0.73233 0.51154 0.06092 0.0
C318 C 0.79444 0.41921 0.06616 0.0
O319 O 0.71742 0.48709 0.15151 0.0
O320 O 0.76747 0.4794 0.13141 0.0
O321 O 0.71367 0.38992 0.09883 0.0
O322 O 0.70627 0.42853 0.15767 0.0
C323 C 0.75417 0.45275 0.95703 0.0
O324 O 0.79275 0.44823 0.05274 0.0
O325 O 0.76978 0.40296 0.07271 0.0
C326 C 0.74639 0.48828 0.16434 0.0
O327 O 0.75414 0.47698 0.98688 0.0
O328 O 0.75118 0.42486 0.97664 0.0
C329 C 0.66914 0.41795 0.02872 0.0
Fe330 Fe 0.47767 0.26338 0.96522 0.0
Fe331 Fe 0.40919 0.2882 0.9778 0.0
O332 O 0.44778 0.29172 0.95042 0.0
Fe333 Fe 0.45694 0.32371 0.90673 0.0
O334 O 0.4855 0.33875 0.95442 0.0
O335 O 0.51042 0.29305 0.96217 0.0
O336 O 0.47548 0.27171 0.0363 0.0
C337 C 0.45076 0.2714 0.06488 0.0
C338 C 0.4901 0.27314 0.85881 0.0
O339 O 0.42323 0.2732 0.04407 0.0
C340 C 0.39944 0.30583 0.86744 0.0
O341 O 0.4504 0.22916 0.97389 0.0
O342 O 0.40431 0.24864 0.95065 0.0
O343 O 0.48751 0.30249 0.86831 0.0
O344 O 0.48165 0.25298 0.89385 0.0
C345 C 0.41493 0.35267 0.98105 0.0
O346 O 0.38936 0.30294 0.91576 0.0
O347 O 0.42851 0.30985 0.85765 0.0
C348 C 0.42147 0.22517 0.96198 0.0
O349 O 0.41018 0.32759 1.00751 0.0
O350 O 0.42842 0.35175 0.93557 0.0
C351 C 0.5091 0.32295 0.96991 0.0
H352 H 0.21784 0.12618 0.24302 0.0
H353 H 0.16921 0.17495 0.11426 0.0
H354 H 0.14252 0.20891 0.17993 0.0
H355 H 0.12705 0.21881 0.27433 0.0
H356 H 0.17675 0.17117 0.40309 0.0
H357 H 0.20943 0.1431 0.33718 0.0
C358 C 0.20197 0.14479 0.22944 0.0
C359 C 0.19514 0.14786 0.17417 0.0
C360 C 0.18673 0.16421 0.26739 0.0
C361 C 0.17485 0.17221 0.15671 0.0
C362 C 0.15939 0.19146 0.19424 0.0
C363 C 0.1456 0.20287 0.2878 0.0
C364 C 0.14932 0.19672 0.3432 0.0
C365 C 0.16425 0.18682 0.24973 0.0
C366 C 0.17356 0.17631 0.36053 0.0
C367 C 0.19205 0.16005 0.32288 0.0
H368 H 0.1193 0.79946 0.76124 0.0
H369 H 0.17494 0.83951 0.89061 0.0
H370 H 0.20989 0.86501 0.82497 0.0
H371 H 0.21953 0.88252 0.73159 0.0
H372 H 0.1658 0.84118 0.60138 0.0
H373 H 0.1356 0.80919 0.66629 0.0
C374 C 0.13951 0.8132 0.77498 0.0
C375 C 0.14423 0.81791 0.83082 0.0
C376 C 0.15969 0.82778 0.73685 0.0
C377 C 0.17072 0.83546 0.848 0.0
C378 C 0.19064 0.85025 0.81043 0.0
C379 C 0.20183 0.86579 0.71733 0.0
C380 C 0.19447 0.86467 0.66189 0.0
C381 C 0.18465 0.8475 0.75487 0.0
C382 C 0.17176 0.84267 0.64385 0.0
C383 C 0.15431 0.82455 0.68105 0.0
H384 H 0.88977 0.80061 0.26974 0.0
H385 H 0.84059 0.84621 0.40118 0.0
H386 H 0.807 0.87454 0.33702 0.0
H387 H 0.79745 0.89234 0.24359 0.0
H388 H 0.84537 0.8455 0.11208 0.0
H389 H 0.8732 0.81128 0.17603 0.0
C390 C 0.87114 0.81615 0.28419 0.0
C391 C 0.86785 0.82162 0.33989 0.0
C392 C 0.8519 0.83235 0.24709 0.0
C393 C 0.84349 0.84155 0.35841 0.0
C394 C 0.82446 0.85797 0.32175 0.0
C395 C 0.8134 0.87407 0.22904 0.0
C396 C 0.81965 0.87162 0.17345 0.0
C397 C 0.82929 0.85447 0.26601 0.0
C398 C 0.84011 0.84774 0.15477 0.0
C399 C 0.85624 0.82835 0.19133 0.0
H400 H 0.80105 0.12644 0.75428 0.0
H401 H 0.84352 0.18023 0.62434 0.0
H402 H 0.86824 0.21586 0.68953 0.0
H403 H 0.88444 0.22648 0.78303 0.0
H404 H 0.84111 0.17443 0.91377 0.0
H405 H 0.80958 0.14387 0.84894 0.0
C406 C 0.8152 0.14637 0.74029 0.0
C407 C 0.8208 0.15034 0.68447 0.0
C408 C 0.82934 0.16697 0.77816 0.0
C409 C 0.83882 0.17653 0.66694 0.0
C410 C 0.85314 0.19687 0.70426 0.0
C411 C 0.86734 0.20912 0.7974 0.0
C412 C 0.86557 0.20226 0.85302 0.0
C413 C 0.84947 0.19162 0.7599 0.0
C414 C 0.84311 0.17999 0.87118 0.0
C415 C 0.82528 0.16231 0.83402 0.0
H416 H 0.66984 0.67628 0.87304 0.0
H417 H 0.60993 0.73032 0.76627 0.0
H418 H 0.638 0.70917 0.68781 0.0
H419 H 0.67321 0.6685 0.64973 0.0
H420 H 0.72901 0.61039 0.75684 0.0
H421 H 0.7095 0.64013 0.83474 0.0
C422 C 0.66367 0.68416 0.83265 0.0
C423 C 0.63788 0.70471 0.82527 0.0
C424 C 0.67895 0.67077 0.78767 0.0
C425 C 0.6297 0.71439 0.77275 0.0
C426 C 0.64563 0.7022 0.7279 0.0
C427 C 0.6818 0.66307 0.69 0.0
C428 C 0.70238 0.63731 0.69773 0.0
C429 C 0.66938 0.67934 0.7348 0.0
C430 C 0.71301 0.6301 0.75011 0.0
C431 C 0.70178 0.647 0.79465 0.0
H432 H 0.66635 0.33976 0.36692 0.0
H433 H 0.60218 0.29075 0.26018 0.0
H434 H 0.6313 0.31058 0.18165 0.0
H435 H 0.66983 0.34852 0.14331 0.0
H436 H 0.73035 0.40167 0.25036 0.0
H437 H 0.7085 0.37335 0.32833 0.0
C438 C 0.65937 0.33269 0.32651 0.0
C439 C 0.63217 0.31385 0.31934 0.0
C440 C 0.67549 0.34526 0.28139 0.0
C441 C 0.62302 0.30532 0.26667 0.0
C442 C 0.63959 0.31675 0.22173 0.0
C443 C 0.67892 0.35304 0.18357 0.0
C444 C 0.70178 0.37692 0.1912 0.0
C445 C 0.66515 0.33769 0.22849 0.0
C446 C 0.71284 0.38322 0.24365 0.0
C447 C 0.70021 0.36719 0.28825 0.0
H448 H 0.34393 0.33794 0.87197 0.0
H449 H 0.40625 0.28893 0.76228 0.0
H450 H 0.37679 0.30981 0.68506 0.0
H451 H 0.33944 0.34926 0.64914 0.0
H452 H 0.28136 0.40289 0.75927 0.0
H453 H 0.3024 0.37272 0.83566 0.0
C454 C 0.35035 0.33104 0.83119 0.0
C455 C 0.37717 0.31199 0.82269 0.0
C456 C 0.33423 0.34437 0.78697 0.0
C457 C 0.38567 0.30365 0.76966 0.0
C458 C 0.36894 0.3157 0.72553 0.0
C459 C 0.33066 0.35352 0.68969 0.0
C460 C 0.30889 0.37814 0.69873 0.0
C461 C 0.34404 0.33716 0.73365 0.0
C462 C 0.29812 0.38398 0.75152 0.0
C463 C 0.31028 0.36687 0.79519 0.0
H464 H 0.30265 0.62288 0.2613 0.0
H465 H 0.34514 0.67557 0.13008 0.0
H466 H 0.37064 0.71119 0.19427 0.0
H467 H 0.3873 0.72213 0.28724 0.0
H468 H 0.34359 0.67163 0.41937 0.0
H469 H 0.31162 0.64087 0.35552 0.0
C470 C 0.317 0.64255 0.24688 0.0
C471 C 0.32239 0.64626 0.19106 0.0
C472 C 0.3315 0.66323 0.28415 0.0
C473 C 0.34064 0.67212 0.1728 0.0
C474 C 0.35538 0.69245 0.2095 0.0
C475 C 0.37005 0.70505 0.30207 0.0
C476 C 0.3683 0.69858 0.35771 0.0
C477 C 0.35186 0.68753 0.26519 0.0
C478 C 0.34561 0.67677 0.37663 0.0
C479 C 0.32751 0.659 0.34007 0.0
H480 H 0.13955 0.99473 0.01791 0.0
H481 H 0.22376 0.94596 0.07103 0.0
H482 H 0.19773 0.89472 0.05636 0.0
H483 H 0.15127 0.86377 0.02679 0.0
H484 H 0.06875 0.91263 0.9673 0.0
H485 H 0.09363 0.96396 0.98696 0.0
C486 C 0.1522 0.97288 0.02636 0.0
C487 C 0.18351 0.97415 0.04566 0.0
C488 C 0.13726 0.94357 0.01719 0.0
C489 C 0.19971 0.94564 0.05586 0.0
C490 C 0.18478 0.91634 0.04778 0.0
C491 C 0.1386 0.88571 0.01908 0.0
C492 C 0.10807 0.88461 0.99658 0.0
C493 C 0.15355 0.91503 0.0285 0.0
C494 C 0.09216 0.91306 0.98516 0.0
C495 C 0.10644 0.94232 0.99612 0.0
H496 H 0.86116 0.86462 0.98364 0.0
H497 H 0.91009 0.95077 0.02726 0.0
H498 H 0.96106 0.92581 1.00696 0.0
H499 H 0.99171 0.87872 0.98144 0.0
H500 H 0.94313 0.79109 0.94448 0.0
H501 H 0.89206 0.81718 0.95819 0.0
C502 C 0.88301 0.87804 0.98747 0.0
C503 C 0.88202 0.90964 1.00573 0.0
C504 C 0.91225 0.86308 0.97795 0.0
C505 C 0.91041 0.92655 0.01245 0.0
C506 C 0.9395 0.91223 1.00124 0.0
C507 C 0.96996 0.86531 0.97622 0.0
C508 C 0.97129 0.83297 0.96194 0.0
C509 C 0.94072 0.88035 0.98479 0.0
C510 C 0.94284 0.81593 0.95582 0.0
C511 C 0.9136 0.83089 0.96335 0.0
H512 H 0.87811 0.13391 0.94259 0.0
H513 H 0.93132 0.13777 0.09083 0.0
H514 H 0.90352 0.09015 0.12385 0.0
H515 H 0.86407 0.04719 0.10951 0.0
H516 H 0.80646 0.0481 0.9659 0.0
H517 H 0.83547 0.09462 0.93211 0.0
C518 C 0.88354 0.12434 0.98217 0.0
C519 C 0.90695 0.13893 0.01405 0.0
C520 C 0.86645 0.09808 1.00166 0.0
C521 C 0.91354 0.12667 0.06555 0.0
C522 C 0.89761 0.09957 0.08436 0.0
C523 C 0.85782 0.05786 0.07105 0.0
C524 C 0.83338 0.0444 0.03992 0.0
C525 C 0.87401 0.08508 0.05272 0.0
C526 C 0.82511 0.05833 0.99045 0.0
C527 C 0.8418 0.08472 0.97107 0.0
H528 H 0.02225 0.14244 0.98621 0.0
H529 H 0.07177 0.22603 0.93008 0.0
H530 H 0.12252 0.19931 0.94369 0.0
H531 H 0.1529 0.15278 0.97483 0.0
H532 H 0.10325 0.07097 0.03717 0.0
H533 H 0.0524 0.09612 0.01691 0.0
C534 C 0.04414 0.15479 0.97669 0.0
C535 C 0.0432 0.18619 0.95712 0.0
C536 C 0.07319 0.13946 0.98532 0.0
C537 C 0.07181 0.20194 0.94551 0.0
C538 C 0.10084 0.18661 0.95303 0.0
C539 C 0.1309 0.14027 0.98289 0.0
C540 C 0.13166 0.1099 1.00661 0.0
C541 C 0.10182 0.15542 0.97312 0.0
C542 C 0.1031 0.09425 0.01842 0.0
C543 C 0.0741 0.10868 1.00713 0.0
H544 H 0.87652 0.99452 0.54073 0.0
H545 H 0.78648 0.94836 0.56753 0.0
H546 H 0.81084 0.89658 0.55064 0.0
H547 H 0.85773 0.86445 0.52591 0.0
H548 H 0.9464 0.91149 0.49291 0.0
H549 H 0.9228 0.96288 0.51563 0.0
C550 C 0.86217 0.97315 0.54312 0.0
C551 C 0.82969 0.97539 0.55558 0.0
C552 C 0.87624 0.94357 0.53278 0.0
C553 C 0.81148 0.9474 0.55788 0.0
C554 C 0.82544 0.91775 0.54846 0.0
C555 C 0.87192 0.88596 0.52478 0.0
C556 C 0.90388 0.88432 0.50889 0.0
C557 C 0.85781 0.91554 0.53584 0.0
C558 C 0.92188 0.91231 0.50575 0.0
C559 C 0.90834 0.94163 0.5184 0.0
H560 H 0.86766 0.15317 0.49041 0.0
H561 H 0.91512 0.07106 0.55542 0.0
H562 H 0.96668 0.09599 0.538 0.0
H563 H 0.99794 0.14193 0.50701 0.0
H564 H 0.94997 0.22564 0.44858 0.0
H565 H 0.89881 0.19949 0.46143 0.0
C566 C 0.88935 0.14056 0.49982 0.0
C567 C 0.88782 0.11014 0.52313 0.0
C568 C 0.91869 0.15555 0.49175 0.0
C569 C 0.91592 0.09437 0.53683 0.0
C570 C 0.9453 0.10868 0.52717 0.0
C571 C 0.97627 0.15444 0.49714 0.0
C572 C 0.97775 0.18566 0.47685 0.0
C573 C 0.94693 0.13941 0.50521 0.0
C574 C 0.94948 0.20169 0.46466 0.0
C575 C 0.92023 0.18669 0.47164 0.0
H576 H 0.15878 0.1555 0.53757 0.0
H577 H 0.07092 0.10903 0.4971 0.0
H578 H 0.09439 0.05721 0.5167 0.0
H579 H 0.14061 0.02509 0.53933 0.0
H580 H 0.22987 0.07076 0.57448 0.0
H581 H 0.20531 0.1229 0.56232 0.0
C582 C 0.14467 0.134 0.5344 0.0
C583 C 0.11305 0.13592 0.51692 0.0
C584 C 0.15875 0.1042 0.54365 0.0
C585 C 0.09519 0.10798 0.51119 0.0
C586 C 0.10866 0.07841 0.52197 0.0
C587 C 0.15476 0.04641 0.54461 0.0
C588 C 0.1871 0.04393 0.55773 0.0
C589 C 0.14057 0.07621 0.53717 0.0
C590 C 0.20499 0.0719 0.56405 0.0
C591 C 0.19092 0.10175 0.55736 0.0
H592 H 0.12822 0.88144 0.5723 0.0
H593 H 0.13572 0.93031 0.41976 0.0
H594 H 0.08779 0.90295 0.38752 0.0
H595 H 0.04358 0.86501 0.40381 0.0
H596 H 0.04097 0.81166 0.55249 0.0
H597 H 0.08767 0.84043 0.5853 0.0
C598 C 0.11938 0.88605 0.53195 0.0
C599 C 0.13509 0.90811 0.49859 0.0
C600 C 0.09293 0.86923 0.51313 0.0
C601 C 0.12376 0.91359 0.44615 0.0
C602 C 0.09647 0.89792 0.42781 0.0
C603 C 0.0535 0.85968 0.4432 0.0
C604 C 0.03902 0.83651 0.47605 0.0
C605 C 0.08086 0.87567 0.46101 0.0
C606 C 0.05198 0.82937 0.52672 0.0
C607 C 0.07848 0.8459 0.54548 0.0
H608 H 0.64241 0.49215 0.51908 0.0
H609 H 0.72602 0.4411 0.56848 0.0
H610 H 0.69902 0.39053 0.55117 0.0
H611 H 0.65139 0.36094 0.52241 0.0
H612 H 0.56925 0.41241 0.46773 0.0
H613 H 0.59576 0.46286 0.48754 0.0
C614 C 0.65477 0.46995 0.52602 0.0
C615 C 0.68613 0.47036 0.54529 0.0
C616 C 0.63922 0.44112 0.51562 0.0
C617 C 0.70194 0.44143 0.55342 0.0
C618 C 0.68644 0.41253 0.54387 0.0
C619 C 0.6392 0.38324 0.51556 0.0
C620 C 0.60824 0.38309 0.49453 0.0
C621 C 0.65501 0.4121 0.52532 0.0
C622 C 0.59298 0.41205 0.48435 0.0
C623 C 0.60817 0.44083 0.49545 0.0
H624 H 0.35865 0.36463 0.50115 0.0
H625 H 0.4085 0.44794 0.55623 0.0
H626 H 0.45931 0.42252 0.53623 0.0
H627 H 0.48943 0.3761 0.50505 0.0
H628 H 0.43956 0.29122 0.45651 0.0
H629 H 0.38888 0.3175 0.4727 0.0
C630 C 0.38068 0.37731 0.50793 0.0
C631 C 0.38 0.40828 0.52911 0.0
C632 C 0.40973 0.36208 0.49831 0.0
C633 C 0.4086 0.4242 0.53936 0.0
C634 C 0.43757 0.40963 0.52819 0.0
C635 C 0.46746 0.36334 0.49809 0.0
C636 C 0.46828 0.33177 0.47949 0.0
C637 C 0.43842 0.37847 0.50809 0.0
C638 C 0.43961 0.31546 0.47116 0.0
C639 C 0.41061 0.33054 0.48007 0.0
H640 H 0.36099 0.54864 0.61858 0.0
H641 H 0.30758 0.54726 0.47032 0.0
H642 H 0.33814 0.59271 0.4363 0.0
H643 H 0.38096 0.63159 0.44802 0.0
H644 H 0.42992 0.63798 0.60026 0.0
H645 H 0.40058 0.59138 0.63369 0.0
C646 C 0.356 0.55857 0.57903 0.0
C647 C 0.3323 0.54477 0.54667 0.0
C648 C 0.37306 0.58519 0.56051 0.0
C649 C 0.32564 0.55776 0.49578 0.0
C650 C 0.34322 0.58353 0.4763 0.0
C651 C 0.38512 0.62283 0.48858 0.0
C652 C 0.40779 0.63783 0.52152 0.0
C653 C 0.36715 0.59721 0.50814 0.0
C654 C 0.41274 0.62656 0.57419 0.0
C655 C 0.39593 0.60005 0.59322 0.0
H656 H 0.52282 0.64277 0.50576 0.0
H657 H 0.57396 0.72156 0.43555 0.0
H658 H 0.62413 0.69436 0.45248 0.0
H659 H 0.65342 0.64844 0.48807 0.0
H660 H 0.60253 0.5714 0.56393 0.0
H661 H 0.55215 0.59749 0.54335 0.0
C662 C 0.54496 0.65397 0.49406 0.0
C663 C 0.54467 0.68409 0.46921 0.0
C664 C 0.57367 0.6384 0.50459 0.0
C665 C 0.57354 0.69847 0.45493 0.0
C666 C 0.60221 0.68285 0.46436 0.0
C667 C 0.63126 0.63717 0.49945 0.0
C668 C 0.63158 0.60782 0.52679 0.0
C669 C 0.60255 0.6528 0.48908 0.0
C670 C 0.60279 0.59387 0.54254 0.0
C671 C 0.57405 0.60883 0.53093 0.0
H672 H 0.3573 0.36231 0.02772 0.0
H673 H 0.44124 0.4111 0.97265 0.0
H674 H 0.41749 0.46227 0.99555 0.0
H675 H 0.37253 0.49316 0.02877 0.0
H676 H 0.28685 0.44529 0.07838 0.0
H677 H 0.31136 0.39376 0.05945 0.0
C678 C 0.37045 0.38418 0.02149 0.0
C679 C 0.40111 0.38304 0.99923 0.0
C680 C 0.35618 0.41362 0.03306 0.0
C681 C 0.41768 0.41149 0.99004 0.0
C682 C 0.40408 0.4407 1.00294 0.0
C683 C 0.35919 0.47146 0.03556 0.0
C684 C 0.32794 0.47308 0.05517 0.0
C685 C 0.37327 0.44207 0.024 0.0
C686 C 0.31088 0.44473 0.06308 0.0
C687 C 0.32495 0.41526 0.05253 0.0
H688 H 0.36448 0.65363 1.00182 0.0
H689 H 0.41349 0.56831 0.04889 0.0
H690 H 0.46457 0.59421 0.03142 0.0
H691 H 0.49502 0.64162 1.00525 0.0
H692 H 0.44583 0.72817 0.96446 0.0
H693 H 0.39497 0.7015 0.97799 0.0
C694 C 0.38639 0.6406 1.0072 0.0
C695 C 0.38544 0.60896 0.02535 0.0
C696 C 0.41551 0.65605 0.99926 0.0
C697 C 0.41385 0.59255 0.03412 0.0
C698 C 0.44295 0.60741 0.02451 0.0
C699 C 0.47316 0.65467 0.99944 0.0
C700 C 0.47421 0.68683 0.98381 0.0
C701 C 0.44404 0.63926 1.00763 0.0
C702 C 0.4457 0.70349 0.9769 0.0
C703 C 0.41661 0.68818 0.9842 0.0
H704 H 0.65564 0.65479 0.0257 0.0
H705 H 0.57114 0.60649 0.97257 0.0
H706 H 0.59627 0.55499 0.98892 0.0
H707 H 0.64279 0.52382 0.01585 0.0
H708 H 0.72858 0.57223 0.06324 0.0
H709 H 0.70265 0.62352 0.05077 0.0
C710 C 0.64262 0.63294 0.01862 0.0
C711 C 0.61144 0.63429 0.9989 0.0
C712 C 0.65764 0.60349 0.02617 0.0
C713 C 0.59507 0.6059 0.9883 0.0
C714 C 0.60948 0.57652 0.99735 0.0
C715 C 0.65585 0.54559 0.02336 0.0
C716 C 0.68759 0.54411 0.04051 0.0
C717 C 0.64087 0.57503 0.01573 0.0
C718 C 0.70421 0.5726 0.04966 0.0
C719 C 0.68933 0.60198 0.0429 0.0
H720 H 0.5683 0.32379 0.92764 0.0
H721 H 0.51069 0.36333 0.05435 0.0
H722 H 0.55477 0.39721 0.0833 0.0
H723 H 0.60957 0.41594 0.07178 0.0
H724 H 0.66603 0.37882 0.94078 0.0
H725 H 0.62251 0.34427 0.91372 0.0
C726 C 0.56573 0.33953 0.96204 0.0
C727 C 0.53675 0.34074 0.98971 0.0
C728 C 0.59077 0.35978 0.97707 0.0
C729 C 0.5331 0.36183 0.03314 0.0
C730 C 0.55818 0.3813 0.0494 0.0
C731 C 0.61229 0.40053 0.037 0.0
C732 C 0.64117 0.40004 1.0086 0.0
C733 C 0.58707 0.38067 0.02141 0.0
C734 C 0.64413 0.37986 0.96351 0.0
C735 C 0.61929 0.35986 0.94811 0.0
H736 H 0.22525 0.03286 0.70576 0.0
H737 H 0.28672 0.95455 0.74474 0.0
H738 H 0.29493 0.97636 0.8357 0.0
H739 H 0.27935 0.01434 0.90631 0.0
H740 H 0.21849 0.09314 0.86643 0.0
H741 H 0.21566 0.07484 0.77266 0.0
C742 C 0.24081 0.02089 0.7341 0.0
C743 C 0.25507 0.99202 0.71954 0.0
C744 C 0.24534 0.03358 0.78574 0.0
C745 C 0.27557 0.9768 0.75563 0.0
C746 C 0.28007 0.98917 0.80747 0.0
C747 C 0.26584 0.02773 0.87682 0.0
C748 C 0.24869 0.05471 0.89312 0.0
C749 C 0.26429 0.01702 0.82335 0.0
C750 C 0.23178 0.07227 0.85463 0.0
C751 C 0.23 0.0617 0.80125 0.0
H752 H 0.0355 0.79715 0.30791 0.0
H753 H 0.96103 0.72892 0.28055 0.0
H754 H 0.97987 0.72094 0.18762 0.0
H755 H 0.01426 0.73783 0.11193 0.0
H756 H 0.0902 0.80429 0.14109 0.0
H757 H 0.07434 0.80837 0.23604 0.0
C758 C 0.02381 0.7801 0.28177 0.0
C759 C 0.99684 0.76375 0.30051 0.0
C760 C 0.0349 0.77559 0.22887 0.0
C761 C 0.98193 0.74156 0.26682 0.0
C762 C 0.99256 0.73724 0.2137 0.0
C763 C 0.02756 0.75287 0.13935 0.0
C764 C 0.05311 0.77108 0.11958 0.0
C765 C 0.01849 0.75478 0.19391 0.0
C766 C 0.07049 0.79009 0.15548 0.0
C767 C 0.06131 0.79253 0.20962 0.0
H768 H 0.73761 0.01043 0.90884 0.0
H769 H 0.78638 0.92393 0.86658 0.0
H770 H 0.78569 0.93938 0.77134 0.0
H771 H 0.7776 0.98067 0.7025 0.0
H772 H 0.72924 0.06724 0.74403 0.0
H773 H 0.72268 0.04834 0.83733 0.0
C774 C 0.74776 0.99479 0.87868 0.0
C775 C 0.76257 0.96633 0.89479 0.0
C776 C 0.74724 1.00383 0.82407 0.0
C777 C 0.77505 0.94601 0.85524 0.0
C778 C 0.77472 0.95487 0.80083 0.0
C779 C 0.76475 0.99489 0.73176 0.0
C780 C 0.75377 0.02516 0.71694 0.0
C781 C 0.76172 0.98412 0.7851 0.0
C782 C 0.7374 0.04367 0.75471 0.0
C783 C 0.73407 0.03302 0.80805 0.0
H784 H 0.94167 0.23507 0.16043 0.0
H785 H 0.0163 0.2898 0.08555 0.0
H786 H 0.04226 0.29665 0.17237 0.0
H787 H 0.04789 0.28101 0.26776 0.0
H788 H 0.97501 0.22411 0.34209 0.0
H789 H 0.9442 0.22473 0.25859 0.0
C790 C 0.96324 0.249 0.16344 0.0
C791 C 0.97724 0.26136 0.11643 0.0
C792 C 0.97859 0.2524 0.2137 0.0
C793 C 1.00527 0.27943 0.12099 0.0
C794 C 0.0202 0.28348 0.17072 0.0
C795 C 0.02482 0.26968 0.26591 0.0
C796 C 0.01362 0.25268 0.31069 0.0
C797 C 1.0077 0.2692 0.21711 0.0
C798 C 0.98396 0.23746 0.30783 0.0
C799 C 0.96643 0.23761 0.26003 0.0
H800 H 0.79631 0.03992 0.20788 0.0
H801 H 0.72791 0.96594 0.23862 0.0
H802 H 0.72131 0.98511 0.33169 0.0
H803 H 0.73936 0.01965 0.40633 0.0
H804 H 0.80619 0.09497 0.37383 0.0
H805 H 0.80892 0.07877 0.27894 0.0
C806 C 0.77951 0.0284 0.23479 0.0
C807 C 0.76272 1.00148 0.2169 0.0
C808 C 0.77586 0.03962 0.28779 0.0
C809 C 0.74088 0.98681 0.25163 0.0
C810 C 0.73736 0.99761 0.30484 0.0
C811 C 0.75425 0.03271 0.37826 0.0
C812 C 0.77294 0.0582 0.3971 0.0
C813 C 0.75539 0.02346 0.32372 0.0
C814 C 0.79168 0.07528 0.36026 0.0
C815 C 0.79333 0.06593 0.30613 0.0
H816 H 0.01956 0.28663 0.61141 0.0
H817 H 0.09657 0.22342 0.64998 0.0
H818 H 0.07748 0.21928 0.74323 0.0
H819 H 0.03502 0.22826 0.80961 0.0
H820 H 0.95862 0.29223 0.77198 0.0
H821 H 0.98139 0.30174 0.68201 0.0
C822 C 0.03247 0.27242 0.64058 0.0
C823 C 0.05915 0.25499 0.62397 0.0
C824 C 0.02124 0.27005 0.69373 0.0
C825 C 0.07601 0.23705 0.66204 0.0
C826 C 0.06494 0.23447 0.7151 0.0
C827 C 0.02368 0.24462 0.78179 0.0
C828 C 0.99504 0.25922 0.79643 0.0
C829 C 0.037 0.25 0.73074 0.0
C830 C 0.98065 0.28076 0.76103 0.0
C831 C 0.99359 0.28604 0.70975 0.0
H832 H 0.23614 0.93808 0.35455 0.0
H833 H 0.28909 0.01314 0.43177 0.0
H834 H 0.29639 0.03984 0.34566 0.0
H835 H 0.28091 0.04635 0.25042 0.0
H836 H 0.22686 0.97248 0.17311 0.0
H837 H 0.22746 0.94082 0.25587 0.0
C838 C 0.24985 0.95986 0.35221 0.0
C839 C 0.26137 0.97383 0.39979 0.0
C840 C 0.25371 0.97558 0.3022 0.0
C841 C 0.27926 1.00211 0.39597 0.0
C842 C 0.28358 0.01749 0.34661 0.0
C843 C 0.27033 0.02284 0.25137 0.0
C844 C 0.254 0.01167 0.20601 0.0
C845 C 0.26993 1.00512 0.29971 0.0
C846 C 0.23974 0.98142 0.20778 0.0
C847 C 0.23982 0.96341 0.25521 0.0
H848 H 0.97432 0.78355 0.81296 0.0
H849 H 0.05705 0.72827 0.77485 0.0
H850 H 0.0383 0.7217 0.68163 0.0
H851 H 1.00195 0.73816 0.60904 0.0
H852 H 0.91894 0.7932 0.6479 0.0
H853 H 0.93397 0.7932 0.74338 0.0
C854 C 0.98771 0.76932 0.78445 0.0
C855 C 0.01693 0.75638 0.80009 0.0
C856 C 0.97695 0.76609 0.73123 0.0
C857 C 0.03432 0.73806 0.76341 0.0
C858 C 0.02376 0.73467 0.71015 0.0
C859 C 0.98696 0.7498 0.63858 0.0
C860 C 0.95968 0.76617 0.62155 0.0
C861 C 0.99571 0.74959 0.69323 0.0
C862 C 0.9401 0.78061 0.66015 0.0
C863 C 0.94874 0.7807 0.71461 0.0
H864 H 0.78135 0.52087 0.4045 0.0
H865 H 0.71002 0.59243 0.37885 0.0
H866 H 0.70625 0.57716 0.28347 0.0
H867 H 0.71922 0.5395 0.21052 0.0
H868 H 0.79207 0.4694 0.23514 0.0
H869 H 0.79963 0.48824 0.32801 0.0
C870 C 0.76533 0.53342 0.37773 0.0
C871 C 0.74566 0.55746 0.39858 0.0
C872 C 0.76348 0.52462 0.32313 0.0
C873 C 0.72536 0.5739 0.36357 0.0
C874 C 0.72308 0.56501 0.30923 0.0
C875 C 0.73708 0.5287 0.23608 0.0
C876 C 0.75486 0.50288 0.21655 0.0
C877 C 0.74139 0.53983 0.28904 0.0
C878 C 0.77821 0.48932 0.24947 0.0
C879 C 0.78236 0.49996 0.30256 0.0
H880 H 0.52099 0.23318 0.6202 0.0
H881 H 0.59196 0.30608 0.63922 0.0
H882 H 0.57777 0.31154 0.73485 0.0
H883 H 0.54087 0.29977 0.80975 0.0
H884 H 0.47158 0.22518 0.79199 0.0
H885 H 0.4896 0.21579 0.69912 0.0
C886 C 0.53372 0.24984 0.64564 0.0
C887 C 0.55727 0.26946 0.62277 0.0
C888 C 0.52555 0.25264 0.7005 0.0
C889 C 0.57386 0.29069 0.65605 0.0
C890 C 0.56556 0.29396 0.71056 0.0
C891 C 0.53015 0.28107 0.78575 0.0
C892 C 0.50476 0.26334 0.80725 0.0
C893 C 0.54083 0.27571 0.73274 0.0
C894 C 0.49122 0.23898 0.77624 0.0
C895 C 0.50138 0.23381 0.7231 0.0
H896 H 0.28538 0.47878 0.21291 0.0
H897 H 0.22496 0.55868 0.24669 0.0
H898 H 0.21723 0.53944 0.33953 0.0
H899 H 0.23377 0.50385 0.4134 0.0
H900 H 0.29395 0.42369 0.37906 0.0
H901 H 0.29548 0.43881 0.28345 0.0
C902 C 0.26991 0.49151 0.24038 0.0
C903 C 0.25585 0.52015 0.22355 0.0
C904 C 0.26595 0.48047 0.29342 0.0
C905 C 0.23575 0.53648 0.25892 0.0
C906 C 0.23166 0.52564 0.312 0.0
C907 C 0.24687 0.48945 0.38479 0.0
C908 C 0.26422 0.463 0.40324 0.0
C909 C 0.24758 0.4983 0.33012 0.0
C910 C 0.28055 0.44417 0.36577 0.0
C911 C 0.28153 0.45292 0.31125 0.0
H912 H 0.43787 0.74242 0.6636 0.0
H913 H 0.51984 0.78567 0.58909 0.0
H914 H 0.54367 0.79432 0.67699 0.0
H915 H 0.54516 0.78232 0.77395 0.0
H916 H 0.46507 0.73663 0.8488 0.0
H917 H 0.43638 0.73702 0.76297 0.0
C918 C 0.46064 0.75424 0.66679 0.0
C919 C 0.47726 0.76264 0.61972 0.0
C920 C 0.47467 0.7588 0.71784 0.0
C921 C 0.50674 0.77819 0.62457 0.0
C922 C 0.52046 0.78333 0.67493 0.0
C923 C 0.52096 0.77369 0.77166 0.0
C924 C 0.50701 0.75982 0.81721 0.0
C925 C 0.50519 0.77276 0.72173 0.0
C926 C 0.47598 0.7478 0.81392 0.0
C927 C 0.45974 0.74767 0.7648 0.0
H928 H 0.23605 0.5189 0.91343 0.0
H929 H 0.29887 0.5977 0.88132 0.0
H930 H 0.29951 0.58408 0.78525 0.0
H931 H 0.28728 0.54602 0.71299 0.0
H932 H 0.22361 0.46795 0.7438 0.0
H933 H 0.21758 0.48534 0.83793 0.0
C934 C 0.24958 0.53328 0.88522 0.0
C935 C 0.26786 0.55893 0.9044 0.0
C936 C 0.24959 0.52546 0.83007 0.0
C937 C 0.28478 0.57778 0.86746 0.0
C938 C 0.28521 0.56994 0.81264 0.0
C939 C 0.27143 0.53336 0.7401 0.0
C940 C 0.25591 0.50579 0.72201 0.0
C941 C 0.26839 0.54336 0.79384 0.0
C942 C 0.23545 0.48944 0.757 0.0
C943 C 0.23234 0.49918 0.81083 0.0
H944 H 0.52816 0.78815 0.1205 0.0
H945 H 0.59422 0.71165 0.14577 0.0
H946 H 0.5747 0.70498 0.23851 0.0
H947 H 0.53407 0.7165 0.30735 0.0
H948 H 0.46871 0.79369 0.28256 0.0
H949 H 0.4927 0.80464 0.19411 0.0
C950 C 0.53878 0.77053 0.14687 0.0
C951 C 0.5624 0.75023 0.12654 0.0
C952 C 0.52713 0.76663 0.1995 0.0
C953 C 0.57621 0.72765 0.16084 0.0
C954 C 0.56475 0.72361 0.21351 0.0
C955 C 0.52527 0.73586 0.28262 0.0
C956 C 0.49925 0.75389 0.30052 0.0
C957 C 0.53943 0.74218 0.23243 0.0
C958 C 0.48851 0.7794 0.26912 0.0
C959 C 0.5022 0.7856 0.21871 0.0
H960 H 0.78713 0.49928 0.90555 0.0
H961 H 0.72722 0.41799 0.87616 0.0
H962 H 0.72365 0.43249 0.78049 0.0
H963 H 0.73197 0.47213 0.70839 0.0
H964 H 0.7929 0.55264 0.73669 0.0
H965 H 0.80214 0.53443 0.82964 0.0
C966 C 0.77376 0.48442 0.87794 0.0
C967 C 0.75712 0.45779 0.89796 0.0
C968 C 0.7719 0.4929 0.82303 0.0
C969 C 0.74025 0.43853 0.86172 0.0
C970 C 0.73803 0.44696 0.80712 0.0
C971 C 0.74787 0.48524 0.73465 0.0
C972 C 0.76166 0.51375 0.71611 0.0
C973 C 0.75295 0.47462 0.78778 0.0
C974 C 0.78229 0.53053 0.7501 0.0
C975 C 0.78729 0.52026 0.80331 0.0
H976 H 0.46838 0.29056 0.31408 0.0
H977 H 0.54409 0.22401 0.28669 0.0
H978 H 0.52631 0.21663 0.19315 0.0
H979 H 0.49362 0.2349 0.1167 0.0
H980 H 0.41719 0.3006 0.14475 0.0
H981 H 0.43053 0.30234 0.2411 0.0
C982 C 0.48048 0.27387 0.28786 0.0
C983 C 0.5076 0.25797 0.30672 0.0
C984 C 0.47019 0.26995 0.2344 0.0
C985 C 0.52306 0.23627 0.27291 0.0
C986 C 0.51307 0.23234 0.21941 0.0
C987 C 0.47958 0.24918 0.14419 0.0
C988 C 0.45477 0.268 0.12382 0.0
C989 C 0.48736 0.24992 0.1993 0.0
C990 C 0.43639 0.28599 0.15966 0.0
C991 C 0.44415 0.2871 0.21458 0.0
H992 H 0.36601 0.20478 0.92029 0.0
H993 H 0.4396 0.17707 0.03104 0.0
H994 H 0.40623 0.13353 0.06483 0.0
H995 H 0.35262 0.1076 0.07077 0.0
H996 H 0.27971 0.1391 0.96116 0.0
H997 H 0.31606 0.17628 0.91932 0.0
C998 C 0.37508 0.18883 0.95105 0.0
C999 C 0.40521 0.19439 0.97318 0.0
C1000 C 0.35551 0.16453 0.97121 0.0
C1001 C 0.41658 0.1733 0.01288 0.0
C1002 C 0.3973 0.14856 0.03271 0.0
C1003 C 0.34504 0.12223 0.03713 0.0
C1004 C 0.31336 0.12056 0.01935 0.0
C1005 C 0.3662 0.14455 0.01347 0.0
C1006 C 0.30385 0.13984 0.97582 0.0
C1007 C 0.32463 0.16128 0.95177 0.0
H1008 H 0.16336 0.60662 0.06971 0.0
H1009 H 0.24254 0.64862 0.98508 0.0
H1010 H 0.20784 0.68671 0.94206 0.0
H1011 H 0.15664 0.7119 0.93474 0.0
H1012 H 0.07649 0.67393 0.02155 0.0
H1013 H 0.10942 0.63045 0.05614 0.0
C1014 C 0.17276 0.62393 0.04143 0.0
C1015 C 0.2056 0.62501 0.03131 0.0
C1016 C 0.1525 0.64666 0.01715 0.0
C1017 C 0.21747 0.64752 0.99432 0.0
C1018 C 0.19763 0.66936 0.96946 0.0
C1019 C 0.14613 0.69389 0.9606 0.0
C1020 C 0.11419 0.69644 0.97579 0.0
C1021 C 0.16533 0.6697 0.98155 0.0
C1022 C 0.10102 0.67259 1.00897 0.0
C1023 C 0.11996 0.64785 0.02923 0.0
H1024 H 0.71034 0.89244 0.96169 0.0
H1025 H 0.674 0.91132 0.12089 0.0
H1026 H 0.62822 0.87651 0.10305 0.0
H1027 H 0.6023 0.83551 0.04529 0.0
H1028 H 0.64152 0.81531 0.88826 0.0
H1029 H 0.68188 0.85625 0.90121 0.0
C1030 C 0.69201 0.88935 0.99203 0.0
C1031 C 0.69533 0.9043 0.04244 0.0
C1032 C 0.66625 0.86906 0.98164 0.0
C1033 C 0.67171 0.90012 0.0817 0.0
C1034 C 0.64567 0.88013 0.07149 0.0
C1035 C 0.61903 0.84095 0.0133 0.0
C1036 C 0.61872 0.82272 0.9655 0.0
C1037 C 0.64308 0.86382 0.02201 0.0
C1038 C 0.64111 0.82929 0.925 0.0
C1039 C 0.66436 0.85248 0.93263 0.0
H1040 H 0.8375 0.41898 0.984 0.0
H1041 H 0.81699 0.37774 0.13967 0.0
H1042 H 0.85751 0.33732 0.12515 0.0
H1043 H 0.89276 0.30911 0.06305 0.0
H1044 H 0.9122 0.34773 0.90536 0.0
H1045 H 0.87829 0.39379 0.92534 0.0
C1046 C 0.84283 0.40184 0.01543 0.0
C1047 C 0.82458 0.40149 0.06318 0.0
C1048 C 0.86542 0.37779 1.00577 0.0
C1049 C 0.831 0.37862 0.10297 0.0
C1050 C 0.85392 0.35533 0.09442 0.0
C1051 C 0.89 0.328 0.03353 0.0
C1052 C 0.90471 0.3252 0.98284 0.0
C1053 C 0.87032 0.35394 0.0452 0.0
C1054 C 0.90112 0.3496 0.94472 0.0
C1055 C 0.88165 0.37579 0.95614 0.0
H1056 H 0.66502 0.1076 0.56348 0.0
H1057 H 0.74095 0.14984 0.47103 0.0
H1058 H 0.70432 0.18691 0.42971 0.0
H1059 H 0.65247 0.21121 0.4261 0.0
H1060 H 0.57567 0.17283 0.52091 0.0
H1061 H 0.61034 0.13026 0.5537 0.0
C1062 C 0.67328 0.12471 0.53386 0.0
C1063 C 0.70577 0.12626 0.521 0.0
C1064 C 0.65192 0.14679 0.51058 0.0
C1065 C 0.71618 0.14849 0.48235 0.0
C1066 C 0.69523 0.1697 0.45847 0.0
C1067 C 0.64304 0.19327 0.45328 0.0
C1068 C 0.61153 0.19549 0.47123 0.0
C1069 C 0.66328 0.16964 0.47324 0.0
C1070 C 0.5998 0.17175 0.50614 0.0
C1071 C 0.61975 0.14754 0.5254 0.0
H1072 H 0.10164 0.33532 0.54285 0.0
H1073 H 0.14597 0.31572 0.38964 0.0
H1074 H 0.18471 0.35794 0.40552 0.0
H1075 H 0.21033 0.39508 0.4681 0.0
H1076 H 0.16939 0.41232 0.62459 0.0
H1077 H 0.12491 0.37666 0.60275 0.0
C1078 C 0.11914 0.34115 0.51227 0.0
C1079 C 0.12071 0.32283 0.46467 0.0
C1080 C 0.14228 0.36462 0.52289 0.0
C1081 C 0.14409 0.32982 0.4261 0.0
C1082 C 0.1664 0.35375 0.43543 0.0
C1083 C 0.19123 0.3915 0.49688 0.0
C1084 C 0.19284 0.40629 0.54767 0.0
C1085 C 0.16639 0.37049 0.48442 0.0
C1086 C 0.16835 0.40133 0.58508 0.0
C1087 C 0.14308 0.38084 0.57262 0.0
H1088 H 0.38635 0.8036 0.55676 0.0
H1089 H 0.41949 0.84839 0.4108 0.0
H1090 H 0.38426 0.89397 0.42764 0.0
H1091 H 0.33876 0.91732 0.47879 0.0
H1092 H 0.30548 0.86983 0.62253 0.0
H1093 H 0.3464 0.82944 0.61261 0.0
C1094 C 0.38622 0.82365 0.52911 0.0
C1095 C 0.40516 0.82268 0.48244 0.0
C1096 C 0.36584 0.84927 0.53888 0.0
C1097 C 0.40508 0.84874 0.44702 0.0
C1098 C 0.38483 0.87465 0.4566 0.0
C1099 C 0.34131 0.8987 0.50879 0.0
C1100 C 0.31938 0.89664 0.55172 0.0
C1101 C 0.36442 0.87478 0.50172 0.0
C1102 C 0.32229 0.87199 0.58959 0.0
C1103 C 0.3455 0.84876 0.58365 0.0
H1104 H 0.85761 0.71093 0.43284 0.0
H1105 H 0.939 0.67422 0.51698 0.0
H1106 H 0.9075 0.62903 0.54956 0.0
H1107 H 0.85431 0.60326 0.56288 0.0
H1108 H 0.77382 0.64356 0.48037 0.0
H1109 H 0.80726 0.68342 0.43864 0.0
C1110 C 0.8687 0.69279 0.45755 0.0
C1111 C 0.90057 0.69622 0.47267 0.0
C1112 C 0.85032 0.66744 0.47719 0.0
C1113 C 0.91451 0.67223 0.50443 0.0
C1114 C 0.89639 0.64647 0.52357 0.0
C1115 C 0.84437 0.62049 0.53512 0.0
C1116 C 0.8115 0.62049 0.52522 0.0
C1117 C 0.8639 0.64429 0.51162 0.0
C1118 C 0.79894 0.64306 0.48913 0.0
C1119 C 0.81805 0.66601 0.46513 0.0
loop_
_geom_bond_atom_site_label_1
_geom_bond_atom_site_label_2
_geom_bond_distance
_geom_bond_site_symmetry_2
_ccdc_geom_bond_type
Fe0 O2 1.918 . S
Fe0 O5 1.997 . S
Fe0 O6 2.002 . S
Fe0 O11 1.976 . S
Fe0 O14 1.996 . S
Fe1 O2 1.918 . S
Fe1 O9 1.997 1_545 S
Fe1 O12 1.996 . S
Fe1 O16 1.976 . S
Fe1 O19 2.002 1_554 S
O2 Fe0 1.918 . S
O2 Fe1 1.918 . S
O2 Fe3 1.918 . S
Fe3 O2 1.918 . S
Fe3 O4 2.002 . S
Fe3 O13 1.976 . S
Fe3 O17 1.996 . S
Fe3 O20 1.997 1_554 S
O4 Fe3 2.002 . S
O4 C21 1.295 . S
O5 Fe0 1.997 . S
O5 C21 1.235 . S
O6 Fe0 2.002 . S
O6 C7 1.295 1_545 S
C7 O6 1.295 1_565 S
C7 O9 1.235 . S
C8 O13 1.287 . S
C8 O14 1.255 . S
O9 Fe1 1.997 1_565 S
O9 C7 1.235 . S
C10 O16 1.287 . S
C10 O17 1.255 . S
O11 Fe0 1.976 . S
O11 C18 1.287 . S
O12 Fe1 1.996 . S
O12 C18 1.255 . S
O13 Fe3 1.976 . S
O13 C8 1.287 . S
O14 Fe0 1.996 . S
O14 C8 1.255 . S
C15 O19 1.295 . S
C15 O20 1.235 . S
O16 Fe1 1.976 . S
O16 C10 1.287 . S
O17 Fe3 1.996 . S
O17 C10 1.255 . S
C18 O11 1.287 . S
C18 O12 1.255 . S
O19 Fe1 2.002 1_556 S
O19 C15 1.295 . S
O20 Fe3 1.997 1_556 S
O20 C15 1.235 . S
C21 O4 1.295 . S
C21 O5 1.235 . S
Fe22 O24 1.918 . S
Fe22 O27 1.997 1_455 S
Fe22 O28 2.002 1_556 S
Fe22 O33 1.976 . S
Fe22 O36 1.996 . S
Fe23 O24 1.918 . S
Fe23 O31 1.997 1_556 S
Fe23 O34 1.996 . S
Fe23 O38 1.976 . S
Fe23 O41 2.002 . S
O24 Fe22 1.918 . S
O24 Fe23 1.918 . S
O24 Fe25 1.918 . S
Fe25 O24 1.918 . S
Fe25 O26 2.002 . S
Fe25 O35 1.976 . S
Fe25 O39 1.996 . S
Fe25 O42 1.997 . S
O26 Fe25 2.002 . S
O26 C43 1.295 1_455 S
O27 Fe22 1.997 1_655 S
O27 C43 1.235 . S
O28 Fe22 2.002 1_554 S
O28 C29 1.295 . S
C29 O28 1.295 . S
C29 O31 1.235 . S
C30 O35 1.287 . S
C30 O36 1.255 . S
O31 Fe23 1.997 1_554 S
O31 C29 1.235 . S
C32 O38 1.287 . S
C32 O39 1.255 . S
O33 Fe22 1.976 . S
O33 C40 1.287 . S
O34 Fe23 1.996 . S
O34 C40 1.255 . S
O35 Fe25 1.976 . S
O35 C30 1.287 . S
O36 Fe22 1.996 . S
O36 C30 1.255 . S
C37 O41 1.295 . S
C37 O42 1.235 . S
O38 Fe23 1.976 . S
O38 C32 1.287 . S
O39 Fe25 1.996 . S
O39 C32 1.255 . S
C40 O33 1.287 . S
C40 O34 1.255 . S
O41 Fe23 2.002 . S
O41 C37 1.295 . S
O42 Fe25 1.997 . S
O42 C37 1.235 . S
C43 O26 1.295 1_655 S
C43 O27 1.235 . S
Fe44 O46 1.918 . S
Fe44 O49 1.997 1_554 S
Fe44 O50 2.002 . S
Fe44 O55 1.976 . S
Fe44 O58 1.996 . S
Fe45 O46 1.918 . S
Fe45 O53 1.997 . S
Fe45 O56 1.996 . S
Fe45 O60 1.976 . S
Fe45 O63 2.002 . S
O46 Fe44 1.918 . S
O46 Fe45 1.918 . S
O46 Fe47 1.918 . S
Fe47 O46 1.918 . S
Fe47 O48 2.002 1_554 S
Fe47 O57 1.976 . S
Fe47 O61 1.996 . S
Fe47 O64 1.997 1_565 S
O48 Fe47 2.002 1_556 S
O48 C65 1.295 . S
O49 Fe44 1.997 1_556 S
O49 C65 1.235 . S
O50 Fe44 2.002 . S
O50 C51 1.295 . S
C51 O50 1.295 . S
C51 O53 1.235 . S
C52 O57 1.287 . S
C52 O58 1.255 . S
O53 Fe45 1.997 . S
O53 C51 1.235 . S
C54 O60 1.287 . S
C54 O61 1.255 . S
O55 Fe44 1.976 . S
O55 C62 1.287 . S
O56 Fe45 1.996 . S
O56 C62 1.255 . S
O57 Fe47 1.976 . S
O57 C52 1.287 . S
O58 Fe44 1.996 . S
O58 C52 1.255 . S
C59 O63 1.295 1_545 S
C59 O64 1.235 . S
O60 Fe45 1.976 . S
O60 C54 1.287 . S
O61 Fe47 1.996 . S
O61 C54 1.255 . S
C62 O55 1.287 . S
C62 O56 1.255 . S
O63 Fe45 2.002 . S
O63 C59 1.295 1_565 S
O64 Fe47 1.997 1_545 S
O64 C59 1.235 . S
C65 O48 1.295 . S
C65 O49 1.235 . S
Fe66 O68 1.918 . S
Fe66 O71 1.997 . S
Fe66 O72 2.002 . S
Fe66 O77 1.976 . S
Fe66 O80 1.996 . S
Fe67 O68 1.918 . S
Fe67 O75 1.997 1_655 S
Fe67 O78 1.996 . S
Fe67 O82 1.976 . S
Fe67 O85 2.002 1_556 S
O68 Fe66 1.918 . S
O68 Fe67 1.918 . S
O68 Fe69 1.918 . S
Fe69 O68 1.918 . S
Fe69 O70 2.002 . S
Fe69 O79 1.976 . S
Fe69 O83 1.996 . S
Fe69 O86 1.997 1_556 S
O70 Fe69 2.002 . S
O70 C87 1.295 . S
O71 Fe66 1.997 . S
O71 C87 1.235 . S
O72 Fe66 2.002 . S
O72 C73 1.295 1_655 S
C73 O72 1.295 1_455 S
C73 O75 1.235 . S
C74 O79 1.287 . S
C74 O80 1.255 . S
O75 Fe67 1.997 1_455 S
O75 C73 1.235 . S
C76 O82 1.287 . S
C76 O83 1.255 . S
O77 Fe66 1.976 . S
O77 C84 1.287 . S
O78 Fe67 1.996 . S
O78 C84 1.255 . S
O79 Fe69 1.976 . S
O79 C74 1.287 . S
O80 Fe66 1.996 . S
O80 C74 1.255 . S
C81 O85 1.295 . S
C81 O86 1.235 . S
O82 Fe67 1.976 . S
O82 C76 1.287 . S
O83 Fe69 1.996 . S
O83 C76 1.255 . S
C84 O77 1.287 . S
C84 O78 1.255 . S
O85 Fe67 2.002 1_554 S
O85 C81 1.295 . S
O86 Fe69 1.997 1_554 S
O86 C81 1.235 . S
C87 O70 1.295 . S
C87 O71 1.235 . S
Fe88 O90 1.918 . S
Fe88 O93 1.997 . S
Fe88 O94 2.002 . S
Fe88 O99 1.976 . S
Fe88 O102 1.996 . S
Fe89 O90 1.918 . S
Fe89 O97 1.997 1_545 S
Fe89 O100 1.996 . S
Fe89 O104 1.976 . S
Fe89 O107 2.002 . S
O90 Fe88 1.918 . S
O90 Fe89 1.918 . S
O90 Fe91 1.918 . S
Fe91 O90 1.918 . S
Fe91 O92 2.002 . S
Fe91 O101 1.976 . S
Fe91 O105 1.996 . S
Fe91 O108 1.997 . S
O92 Fe91 2.002 . S
O92 C109 1.295 . S
O93 Fe88 1.997 . S
O93 C109 1.235 . S
O94 Fe88 2.002 . S
O94 C95 1.295 1_545 S
C95 O94 1.295 1_565 S
C95 O97 1.235 . S
C96 O101 1.287 . S
C96 O102 1.255 . S
O97 Fe89 1.997 1_565 S
O97 C95 1.235 . S
C98 O104 1.287 . S
C98 O105 1.255 . S
O99 Fe88 1.976 . S
O99 C106 1.287 . S
O100 Fe89 1.996 . S
O100 C106 1.255 . S
O101 Fe91 1.976 . S
O101 C96 1.287 . S
O102 Fe88 1.996 . S
O102 C96 1.255 . S
C103 O107 1.295 . S
C103 O108 1.235 . S
O104 Fe89 1.976 . S
O104 C98 1.287 . S
O105 Fe91 1.996 . S
O105 C98 1.255 . S
C106 O99 1.287 . S
C106 O100 1.255 . S
O107 Fe89 2.002 . S
O107 C103 1.295 . S
O108 Fe91 1.997 . S
O108 C103 1.235 . S
C109 O92 1.295 . S
C109 O93 1.235 . S
Fe110 O112 1.918 . S
Fe110 O115 1.997 . S
Fe110 O116 2.002 . S
Fe110 O121 1.976 . S
Fe110 O124 1.996 . S
Fe111 O112 1.918 . S
Fe111 O119 1.997 1_455 S
Fe111 O122 1.996 . S
Fe111 O126 1.976 . S
Fe111 O129 2.002 . S
O112 Fe110 1.918 . S
O112 Fe111 1.918 . S
O112 Fe113 1.918 . S
Fe113 O112 1.918 . S
Fe113 O114 2.002 . S
Fe113 O123 1.976 . S
Fe113 O127 1.996 . S
Fe113 O130 1.997 . S
O114 Fe113 2.002 . S
O114 C131 1.295 . S
O115 Fe110 1.997 . S
O115 C131 1.235 . S
O116 Fe110 2.002 . S
O116 C117 1.295 1_455 S
C117 O116 1.295 1_655 S
C117 O119 1.235 . S
C118 O123 1.287 . S
C118 O124 1.255 . S
O119 Fe111 1.997 1_655 S
O119 C117 1.235 . S
C120 O126 1.287 . S
C120 O127 1.255 . S
O121 Fe110 1.976 . S
O121 C128 1.287 . S
O122 Fe111 1.996 . S
O122 C128 1.255 . S
O123 Fe113 1.976 . S
O123 C118 1.287 . S
O124 Fe110 1.996 . S
O124 C118 1.255 . S
C125 O129 1.295 . S
C125 O130 1.235 . S
O126 Fe111 1.976 . S
O126 C120 1.287 . S
O127 Fe113 1.996 . S
O127 C120 1.255 . S
C128 O121 1.287 . S
C128 O122 1.255 . S
O129 Fe111 2.002 . S
O129 C125 1.295 . S
O130 Fe113 1.997 . S
O130 C125 1.235 . S
C131 O114 1.295 . S
C131 O115 1.235 . S
Fe132 O134 1.918 . S
Fe132 O137 1.997 . S
Fe132 O138 2.002 . S
Fe132 O143 1.976 . S
Fe132 O146 1.996 . S
Fe133 O134 1.918 . S
Fe133 O141 1.997 1_565 S
Fe133 O144 1.996 . S
Fe133 O148 1.976 . S
Fe133 O151 2.002 . S
O134 Fe132 1.918 . S
O134 Fe133 1.918 . S
O134 Fe135 1.918 . S
Fe135 O134 1.918 . S
Fe135 O136 2.002 . S
Fe135 O145 1.976 . S
Fe135 O149 1.996 . S
Fe135 O152 1.997 . S
O136 Fe135 2.002 . S
O136 C153 1.295 . S
O137 Fe132 1.997 . S
O137 C153 1.235 . S
O138 Fe132 2.002 . S
O138 C139 1.295 1_565 S
C139 O138 1.295 1_545 S
C139 O141 1.235 . S
C140 O145 1.287 . S
C140 O146 1.255 . S
O141 Fe133 1.997 1_545 S
O141 C139 1.235 . S
C142 O148 1.287 . S
C142 O149 1.255 . S
O143 Fe132 1.976 . S
O143 C150 1.287 . S
O144 Fe133 1.996 . S
O144 C150 1.255 . S
O145 Fe135 1.976 . S
O145 C140 1.287 . S
O146 Fe132 1.996 . S
O146 C140 1.255 . S
C147 O151 1.295 . S
C147 O152 1.235 . S
O148 Fe133 1.976 . S
O148 C142 1.287 . S
O149 Fe135 1.996 . S
O149 C142 1.255 . S
C150 O143 1.287 . S
C150 O144 1.255 . S
O151 Fe133 2.002 . S
O151 C147 1.295 . S
O152 Fe135 1.997 . S
O152 C147 1.235 . S
C153 O136 1.295 . S
C153 O137 1.235 . S
Fe154 O156 1.918 . S
Fe154 O159 1.997 . S
Fe154 O160 2.002 . S
Fe154 O165 1.976 . S
Fe154 O168 1.996 . S
Fe155 O156 1.918 . S
Fe155 O163 1.997 1_655 S
Fe155 O166 1.996 . S
Fe155 O170 1.976 . S
Fe155 O173 2.002 . S
O156 Fe154 1.918 . S
O156 Fe155 1.918 . S
O156 Fe157 1.918 . S
Fe157 O156 1.918 . S
Fe157 O158 2.002 . S
Fe157 O167 1.976 . S
Fe157 O171 1.996 . S
Fe157 O174 1.997 . S
O158 Fe157 2.002 . S
O158 C175 1.295 . S
O159 Fe154 1.997 . S
O159 C175 1.235 . S
O160 Fe154 2.002 . S
O160 C161 1.295 1_655 S
C161 O160 1.295 1_455 S
C161 O163 1.235 . S
C162 O167 1.287 . S
C162 O168 1.255 . S
O163 Fe155 1.997 1_455 S
O163 C161 1.235 . S
C164 O170 1.287 . S
C164 O171 1.255 . S
O165 Fe154 1.976 . S
O165 C172 1.287 . S
O166 Fe155 1.996 . S
O166 C172 1.255 . S
O167 Fe157 1.976 . S
O167 C162 1.287 . S
O168 Fe154 1.996 . S
O168 C162 1.255 . S
C169 O173 1.295 . S
C169 O174 1.235 . S
O170 Fe155 1.976 . S
O170 C164 1.287 . S
O171 Fe157 1.996 . S
O171 C164 1.255 . S
C172 O165 1.287 . S
C172 O166 1.255 . S
O173 Fe155 2.002 . S
O173 C169 1.295 . S
O174 Fe157 1.997 . S
O174 C169 1.235 . S
C175 O158 1.295 . S
C175 O159 1.235 . S
Fe176 O178 1.918 . S
Fe176 O181 1.997 . S
Fe176 O182 2.002 . S
Fe176 O187 1.976 . S
Fe176 O190 1.996 . S
Fe177 O178 1.918 . S
Fe177 O185 1.997 . S
Fe177 O188 1.996 . S
Fe177 O192 1.976 . S
Fe177 O195 2.002 . S
O178 Fe176 1.918 . S
O178 Fe177 1.918 . S
O178 Fe179 1.918 . S
Fe179 O178 1.918 . S
Fe179 O180 2.002 . S
Fe179 O189 1.976 . S
Fe179 O193 1.996 . S
Fe179 O196 1.997 . S
O180 Fe179 2.002 . S
O180 C197 1.295 . S
O181 Fe176 1.997 . S
O181 C197 1.235 . S
O182 Fe176 2.002 . S
O182 C183 1.295 . S
C183 O182 1.295 . S
C183 O185 1.235 . S
C184 O189 1.287 . S
C184 O190 1.255 . S
O185 Fe177 1.997 . S
O185 C183 1.235 . S
C186 O192 1.287 . S
C186 O193 1.255 . S
O187 Fe176 1.976 . S
O187 C194 1.287 . S
O188 Fe177 1.996 . S
O188 C194 1.255 . S
O189 Fe179 1.976 . S
O189 C184 1.287 . S
O190 Fe176 1.996 . S
O190 C184 1.255 . S
C191 O195 1.295 . S
C191 O196 1.235 . S
O192 Fe177 1.976 . S
O192 C186 1.287 . S
O193 Fe179 1.996 . S
O193 C186 1.255 . S
C194 O187 1.287 . S
C194 O188 1.255 . S
O195 Fe177 2.002 . S
O195 C191 1.295 . S
O196 Fe179 1.997 . S
O196 C191 1.235 . S
C197 O180 1.295 . S
C197 O181 1.235 . S
Fe198 O200 1.918 . S
Fe198 O203 1.997 . S
Fe198 O204 2.002 . S
Fe198 O209 1.976 . S
Fe198 O212 1.996 . S
Fe199 O200 1.918 . S
Fe199 O207 1.997 . S
Fe199 O210 1.996 . S
Fe199 O214 1.976 . S
Fe199 O217 2.002 . S
O200 Fe198 1.918 . S
O200 Fe199 1.918 . S
O200 Fe201 1.918 . S
Fe201 O200 1.918 . S
Fe201 O202 2.002 . S
Fe201 O211 1.976 . S
Fe201 O215 1.996 . S
Fe201 O218 1.997 . S
O202 Fe201 2.002 . S
O202 C219 1.295 . S
O203 Fe198 1.997 . S
O203 C219 1.235 . S
O204 Fe198 2.002 . S
O204 C205 1.295 . S
C205 O204 1.295 . S
C205 O207 1.235 . S
C206 O211 1.287 . S
C206 O212 1.255 . S
O207 Fe199 1.997 . S
O207 C205 1.235 . S
C208 O214 1.287 . S
C208 O215 1.255 . S
O209 Fe198 1.976 . S
O209 C216 1.287 . S
O210 Fe199 1.996 . S
O210 C216 1.255 . S
O211 Fe201 1.976 . S
O211 C206 1.287 . S
O212 Fe198 1.996 . S
O212 C206 1.255 . S
C213 O217 1.295 . S
C213 O218 1.235 . S
O214 Fe199 1.976 . S
O214 C208 1.287 . S
O215 Fe201 1.996 . S
O215 C208 1.255 . S
C216 O209 1.287 . S
C216 O210 1.255 . S
O217 Fe199 2.002 . S
O217 C213 1.295 . S
O218 Fe201 1.997 . S
O218 C213 1.235 . S
C219 O202 1.295 . S
C219 O203 1.235 . S
Fe220 O222 1.918 . S
Fe220 O225 1.997 . S
Fe220 O226 2.002 . S
Fe220 O231 1.976 . S
Fe220 O234 1.996 . S
Fe221 O222 1.918 . S
Fe221 O229 1.997 . S
Fe221 O232 1.996 . S
Fe221 O236 1.976 . S
Fe221 O239 2.002 . S
O222 Fe220 1.918 . S
O222 Fe221 1.918 . S
O222 Fe223 1.918 . S
Fe223 O222 1.918 . S
Fe223 O224 2.002 . S
Fe223 O233 1.976 . S
Fe223 O237 1.996 . S
Fe223 O240 1.997 . S
O224 Fe223 2.002 . S
O224 C241 1.295 . S
O225 Fe220 1.997 . S
O225 C241 1.235 . S
O226 Fe220 2.002 . S
O226 C227 1.295 . S
C227 O226 1.295 . S
C227 O229 1.235 . S
C228 O233 1.287 . S
C228 O234 1.255 . S
O229 Fe221 1.997 . S
O229 C227 1.235 . S
C230 O236 1.287 . S
C230 O237 1.255 . S
O231 Fe220 1.976 . S
O231 C238 1.287 . S
O232 Fe221 1.996 . S
O232 C238 1.255 . S
O233 Fe223 1.976 . S
O233 C228 1.287 . S
O234 Fe220 1.996 . S
O234 C228 1.255 . S
C235 O239 1.295 . S
C235 O240 1.235 . S
O236 Fe221 1.976 . S
O236 C230 1.287 . S
O237 Fe223 1.996 . S
O237 C230 1.255 . S
C238 O231 1.287 . S
C238 O232 1.255 . S
O239 Fe221 2.002 . S
O239 C235 1.295 . S
O240 Fe223 1.997 . S
O240 C235 1.235 . S
C241 O224 1.295 . S
C241 O225 1.235 . S
Fe242 O244 1.918 . S
Fe242 O247 1.997 . S
Fe242 O248 2.002 . S
Fe242 O253 1.976 . S
Fe242 O256 1.996 . S
Fe243 O244 1.918 . S
Fe243 O251 1.997 . S
Fe243 O254 1.996 . S
Fe243 O258 1.976 . S
Fe243 O261 2.002 . S
O244 Fe242 1.918 . S
O244 Fe243 1.918 . S
O244 Fe245 1.918 . S
Fe245 O244 1.918 . S
Fe245 O246 2.002 . S
Fe245 O255 1.976 . S
Fe245 O259 1.996 . S
Fe245 O262 1.997 . S
O246 Fe245 2.002 . S
O246 C263 1.295 . S
O247 Fe242 1.997 . S
O247 C263 1.235 . S
O248 Fe242 2.002 . S
O248 C249 1.295 . S
C249 O248 1.295 . S
C249 O251 1.235 . S
C250 O255 1.287 . S
C250 O256 1.255 . S
O251 Fe243 1.997 . S
O251 C249 1.235 . S
C252 O258 1.287 . S
C252 O259 1.255 . S
O253 Fe242 1.976 . S
O253 C260 1.287 . S
O254 Fe243 1.996 . S
O254 C260 1.255 . S
O255 Fe245 1.976 . S
O255 C250 1.287 . S
O256 Fe242 1.996 . S
O256 C250 1.255 . S
C257 O261 1.295 . S
C257 O262 1.235 . S
O258 Fe243 1.976 . S
O258 C252 1.287 . S
O259 Fe245 1.996 . S
O259 C252 1.255 . S
C260 O253 1.287 . S
C260 O254 1.255 . S
O261 Fe243 2.002 . S
O261 C257 1.295 . S
O262 Fe245 1.997 . S
O262 C257 1.235 . S
C263 O246 1.295 . S
C263 O247 1.235 . S
Fe264 O266 1.918 . S
Fe264 O269 1.997 . S
Fe264 O270 2.002 . S
Fe264 O275 1.976 . S
Fe264 O278 1.996 . S
Fe265 O266 1.918 . S
Fe265 O273 1.997 . S
Fe265 O276 1.996 . S
Fe265 O280 1.976 . S
Fe265 O283 2.002 1_554 S
O266 Fe264 1.918 . S
O266 Fe265 1.918 . S
O266 Fe267 1.918 . S
Fe267 O266 1.918 . S
Fe267 O268 2.002 . S
Fe267 O277 1.976 . S
Fe267 O281 1.996 . S
Fe267 O284 1.997 1_554 S
O268 Fe267 2.002 . S
O268 C285 1.295 . S
O269 Fe264 1.997 . S
O269 C285 1.235 . S
O270 Fe264 2.002 . S
O270 C271 1.295 . S
C271 O270 1.295 . S
C271 O273 1.235 . S
C272 O277 1.287 . S
C272 O278 1.255 . S
O273 Fe265 1.997 . S
O273 C271 1.235 . S
C274 O280 1.287 . S
C274 O281 1.255 . S
O275 Fe264 1.976 . S
O275 C282 1.287 . S
O276 Fe265 1.996 . S
O276 C282 1.255 . S
O277 Fe267 1.976 . S
O277 C272 1.287 . S
O278 Fe264 1.996 . S
O278 C272 1.255 . S
C279 O283 1.295 . S
C279 O284 1.235 . S
O280 Fe265 1.976 . S
O280 C274 1.287 . S
O281 Fe267 1.996 . S
O281 C274 1.255 . S
C282 O275 1.287 . S
C282 O276 1.255 . S
O283 Fe265 2.002 1_556 S
O283 C279 1.295 . S
O284 Fe267 1.997 1_556 S
O284 C279 1.235 . S
C285 O268 1.295 . S
C285 O269 1.235 . S
Fe286 O288 1.918 . S
Fe286 O291 1.997 . S
Fe286 O292 2.002 . S
Fe286 O297 1.976 . S
Fe286 O300 1.996 . S
Fe287 O288 1.918 . S
Fe287 O295 1.997 . S
Fe287 O298 1.996 . S
Fe287 O302 1.976 . S
Fe287 O305 2.002 1_556 S
O288 Fe286 1.918 . S
O288 Fe287 1.918 . S
O288 Fe289 1.918 . S
Fe289 O288 1.918 . S
Fe289 O290 2.002 . S
Fe289 O299 1.976 . S
Fe289 O303 1.996 . S
Fe289 O306 1.997 1_556 S
O290 Fe289 2.002 . S
O290 C307 1.295 . S
O291 Fe286 1.997 . S
O291 C307 1.235 . S
O292 Fe286 2.002 . S
O292 C293 1.295 . S
C293 O292 1.295 . S
C293 O295 1.235 . S
C294 O299 1.287 . S
C294 O300 1.255 . S
O295 Fe287 1.997 . S
O295 C293 1.235 . S
C296 O302 1.287 . S
C296 O303 1.255 . S
O297 Fe286 1.976 . S
O297 C304 1.287 . S
O298 Fe287 1.996 . S
O298 C304 1.255 . S
O299 Fe289 1.976 . S
O299 C294 1.287 . S
O300 Fe286 1.996 . S
O300 C294 1.255 . S
C301 O305 1.295 . S
C301 O306 1.235 . S
O302 Fe287 1.976 . S
O302 C296 1.287 . S
O303 Fe289 1.996 . S
O303 C296 1.255 . S
C304 O297 1.287 . S
C304 O298 1.255 . S
O305 Fe287 2.002 1_554 S
O305 C301 1.295 . S
O306 Fe289 1.997 1_554 S
O306 C301 1.235 . S
C307 O290 1.295 . S
C307 O291 1.235 . S
Fe308 O310 1.918 . S
Fe308 O313 1.997 . S
Fe308 O314 2.002 . S
Fe308 O319 1.976 . S
Fe308 O322 1.996 . S
Fe309 O310 1.918 . S
Fe309 O317 1.997 . S
Fe309 O320 1.996 . S
Fe309 O324 1.976 . S
Fe309 O327 2.002 1_554 S
O310 Fe308 1.918 . S
O310 Fe309 1.918 . S
O310 Fe311 1.918 . S
Fe311 O310 1.918 . S
Fe311 O312 2.002 . S
Fe311 O321 1.976 . S
Fe311 O325 1.996 . S
Fe311 O328 1.997 1_554 S
O312 Fe311 2.002 . S
O312 C329 1.295 . S
O313 Fe308 1.997 . S
O313 C329 1.235 . S
O314 Fe308 2.002 . S
O314 C315 1.295 . S
C315 O314 1.295 . S
C315 O317 1.235 . S
C316 O321 1.287 . S
C316 O322 1.255 . S
O317 Fe309 1.997 . S
O317 C315 1.235 . S
C318 O324 1.287 . S
C318 O325 1.255 . S
O319 Fe308 1.976 . S
O319 C326 1.287 . S
O320 Fe309 1.996 . S
O320 C326 1.255 . S
O321 Fe311 1.976 . S
O321 C316 1.287 . S
O322 Fe308 1.996 . S
O322 C316 1.255 . S
C323 O327 1.295 . S
C323 O328 1.235 . S
O324 Fe309 1.976 . S
O324 C318 1.287 . S
O325 Fe311 1.996 . S
O325 C318 1.255 . S
C326 O319 1.287 . S
C326 O320 1.255 . S
O327 Fe309 2.002 1_556 S
O327 C323 1.295 . S
O328 Fe311 1.997 1_556 S
O328 C323 1.235 . S
C329 O312 1.295 . S
C329 O313 1.235 . S
Fe330 O332 1.918 . S
Fe330 O335 1.997 . S
Fe330 O336 2.002 1_556 S
Fe330 O341 1.976 . S
Fe330 O344 1.996 . S
Fe331 O332 1.918 . S
Fe331 O339 1.997 1_556 S
Fe331 O342 1.996 . S
Fe331 O346 1.976 . S
Fe331 O349 2.002 . S
O332 Fe330 1.918 . S
O332 Fe331 1.918 . S
O332 Fe333 1.918 . S
Fe333 O332 1.918 . S
Fe333 O334 2.002 . S
Fe333 O343 1.976 . S
Fe333 O347 1.996 . S
Fe333 O350 1.997 . S
O334 Fe333 2.002 . S
O334 C351 1.295 . S
O335 Fe330 1.997 . S
O335 C351 1.235 . S
O336 Fe330 2.002 1_554 S
O336 C337 1.295 . S
C337 O336 1.295 . S
C337 O339 1.235 . S
C338 O343 1.287 . S
C338 O344 1.255 . S
O339 Fe331 1.997 1_554 S
O339 C337 1.235 . S
C340 O346 1.287 . S
C340 O347 1.255 . S
O341 Fe330 1.976 . S
O341 C348 1.287 . S
O342 Fe331 1.996 . S
O342 C348 1.255 . S
O343 Fe333 1.976 . S
O343 C338 1.287 . S
O344 Fe330 1.996 . S
O344 C338 1.255 . S
C345 O349 1.295 . S
C345 O350 1.235 . S
O346 Fe331 1.976 . S
O346 C340 1.287 . S
O347 Fe333 1.996 . S
O347 C340 1.255 . S
C348 O341 1.287 . S
C348 O342 1.255 . S
O349 Fe331 2.002 . S
O349 C345 1.295 . S
O350 Fe333 1.997 . S
O350 C345 1.235 . S
C351 O334 1.295 . S
C351 O335 1.235 . S
H352 C358 0.930 . S
H353 C361 0.930 . S
H354 C362 0.930 . S
H355 C363 0.930 . S
H356 C366 0.930 . S
H357 C367 0.930 . S
C358 H352 0.930 . S
C358 C359 1.355 . S
C358 C360 1.415 . S
C359 C358 1.355 . S
C359 C361 1.419 . S
C360 C358 1.415 . S
C360 C365 1.425 . S
C360 C367 1.409 . S
C361 H353 0.930 . S
C361 C359 1.419 . S
C361 C362 1.362 . S
C362 H354 0.930 . S
C362 C361 1.362 . S
C362 C365 1.409 . S
C363 H355 0.930 . S
C363 C364 1.355 . S
C363 C365 1.415 . S
C364 C363 1.355 . S
C364 C366 1.419 . S
C365 C360 1.425 . S
C365 C362 1.409 . S
C365 C363 1.415 . S
C366 H356 0.930 . S
C366 C364 1.419 . S
C366 C367 1.362 . S
C367 H357 0.930 . S
C367 C360 1.409 . S
C367 C366 1.362 . S
H368 C374 0.930 . S
H369 C377 0.930 . S
H370 C378 0.930 . S
H371 C379 0.930 . S
H372 C382 0.930 . S
H373 C383 0.930 . S
C374 H368 0.930 . S
C374 C375 1.355 . S
C374 C376 1.415 . S
C375 C374 1.355 . S
C375 C377 1.419 . S
C376 C374 1.415 . S
C376 C381 1.425 . S
C376 C383 1.409 . S
C377 H369 0.930 . S
C377 C375 1.419 . S
C377 C378 1.362 . S
C378 H370 0.930 . S
C378 C377 1.362 . S
C378 C381 1.409 . S
C379 H371 0.930 . S
C379 C380 1.355 . S
C379 C381 1.415 . S
C380 C379 1.355 . S
C380 C382 1.419 . S
C381 C376 1.425 . S
C381 C378 1.409 . S
C381 C379 1.415 . S
C382 H372 0.930 . S
C382 C380 1.419 . S
C382 C383 1.362 . S
C383 H373 0.930 . S
C383 C376 1.409 . S
C383 C382 1.362 . S
H384 C390 0.930 . S
H385 C393 0.930 . S
H386 C394 0.930 . S
H387 C395 0.930 . S
H388 C398 0.930 . S
H389 C399 0.930 . S
C390 H384 0.930 . S
C390 C391 1.355 . S
C390 C392 1.415 . S
C391 C390 1.355 . S
C391 C393 1.419 . S
C392 C390 1.415 . S
C392 C397 1.425 . S
C392 C399 1.409 . S
C393 H385 0.930 . S
C393 C391 1.419 . S
C393 C394 1.362 . S
C394 H386 0.930 . S
C394 C393 1.362 . S
C394 C397 1.409 . S
C395 H387 0.930 . S
C395 C396 1.355 . S
C395 C397 1.415 . S
C396 C395 1.355 . S
C396 C398 1.419 . S
C397 C392 1.425 . S
C397 C394 1.409 . S
C397 C395 1.415 . S
C398 H388 0.930 . S
C398 C396 1.419 . S
C398 C399 1.362 . S
C399 H389 0.930 . S
C399 C392 1.409 . S
C399 C398 1.362 . S
H400 C406 0.930 . S
H401 C409 0.930 . S
H402 C410 0.930 . S
H403 C411 0.930 . S
H404 C414 0.930 . S
H405 C415 0.930 . S
C406 H400 0.930 . S
C406 C407 1.355 . S
C406 C408 1.415 . S
C407 C406 1.355 . S
C407 C409 1.419 . S
C408 C406 1.415 . S
C408 C413 1.425 . S
C408 C415 1.409 . S
C409 H401 0.930 . S
C409 C407 1.419 . S
C409 C410 1.362 . S
C410 H402 0.930 . S
C410 C409 1.362 . S
C410 C413 1.409 . S
C411 H403 0.930 . S
C411 C412 1.355 . S
C411 C413 1.415 . S
C412 C411 1.355 . S
C412 C414 1.419 . S
C413 C408 1.425 . S
C413 C410 1.409 . S
C413 C411 1.415 . S
C414 H404 0.930 . S
C414 C412 1.419 . S
C414 C415 1.362 . S
C415 H405 0.930 . S
C415 C408 1.409 . S
C415 C414 1.362 . S
H416 C422 0.930 . S
H417 C425 0.930 . S
H418 C426 0.930 . S
H419 C427 0.930 . S
H420 C430 0.930 . S
H421 C431 0.930 . S
C422 H416 0.930 . S
C422 C423 1.355 . S
C422 C424 1.415 . S
C423 C422 1.355 . S
C423 C425 1.419 . S
C424 C422 1.415 . S
C424 C429 1.425 . S
C424 C431 1.409 . S
C425 H417 0.930 . S
C425 C423 1.419 . S
C425 C426 1.362 . S
C426 H418 0.930 . S
C426 C425 1.362 . S
C426 C429 1.409 . S
C427 H419 0.930 . S
C427 C428 1.355 . S
C427 C429 1.415 . S
C428 C427 1.355 . S
C428 C430 1.419 . S
C429 C424 1.425 . S
C429 C426 1.409 . S
C429 C427 1.415 . S
C430 H420 0.930 . S
C430 C428 1.419 . S
C430 C431 1.362 . S
C431 H421 0.930 . S
C431 C424 1.409 . S
C431 C430 1.362 . S
H432 C438 0.930 . S
H433 C441 0.930 . S
H434 C442 0.930 . S
H435 C443 0.930 . S
H436 C446 0.930 . S
H437 C447 0.930 . S
C438 H432 0.930 . S
C438 C439 1.355 . S
C438 C440 1.415 . S
C439 C438 1.355 . S
C439 C441 1.419 . S
C440 C438 1.415 . S
C440 C445 1.425 . S
C440 C447 1.409 . S
C441 H433 0.930 . S
C441 C439 1.419 . S
C441 C442 1.362 . S
C442 H434 0.930 . S
C442 C441 1.362 . S
C442 C445 1.409 . S
C443 H435 0.930 . S
C443 C444 1.355 . S
C443 C445 1.415 . S
C444 C443 1.355 . S
C444 C446 1.419 . S
C445 C440 1.425 . S
C445 C442 1.409 . S
C445 C443 1.415 . S
C446 H436 0.930 . S
C446 C444 1.419 . S
C446 C447 1.362 . S
C447 H437 0.930 . S
C447 C440 1.409 . S
C447 C446 1.362 . S
H448 C454 0.930 . S
H449 C457 0.930 . S
H450 C458 0.930 . S
H451 C459 0.930 . S
H452 C462 0.930 . S
H453 C463 0.930 . S
C454 H448 0.930 . S
C454 C455 1.355 . S
C454 C456 1.415 . S
C455 C454 1.355 . S
C455 C457 1.419 . S
C456 C454 1.415 . S
C456 C461 1.425 . S
C456 C463 1.409 . S
C457 H449 0.930 . S
C457 C455 1.419 . S
C457 C458 1.362 . S
C458 H450 0.930 . S
C458 C457 1.362 . S
C458 C461 1.409 . S
C459 H451 0.930 . S
C459 C460 1.355 . S
C459 C461 1.415 . S
C460 C459 1.355 . S
C460 C462 1.419 . S
C461 C456 1.425 . S
C461 C458 1.409 . S
C461 C459 1.415 . S
C462 H452 0.930 . S
C462 C460 1.419 . S
C462 C463 1.362 . S
C463 H453 0.930 . S
C463 C456 1.409 . S
C463 C462 1.362 . S
H464 C470 0.930 . S
H465 C473 0.930 . S
H466 C474 0.930 . S
H467 C475 0.930 . S
H468 C478 0.930 . S
H469 C479 0.930 . S
C470 H464 0.930 . S
C470 C471 1.355 . S
C470 C472 1.415 . S
C471 C470 1.355 . S
C471 C473 1.419 . S
C472 C470 1.415 . S
C472 C477 1.425 . S
C472 C479 1.409 . S
C473 H465 0.930 . S
C473 C471 1.419 . S
C473 C474 1.362 . S
C474 H466 0.930 . S
C474 C473 1.362 . S
C474 C477 1.409 . S
C475 H467 0.930 . S
C475 C476 1.355 . S
C475 C477 1.415 . S
C476 C475 1.355 . S
C476 C478 1.419 . S
C477 C472 1.425 . S
C477 C474 1.409 . S
C477 C475 1.415 . S
C478 H468 0.930 . S
C478 C476 1.419 . S
C478 C479 1.362 . S
C479 H469 0.930 . S
C479 C472 1.409 . S
C479 C478 1.362 . S
H480 C486 0.930 . S
H481 C489 0.930 . S
H482 C490 0.930 . S
H483 C491 0.930 . S
H484 C494 0.930 . S
H485 C495 0.930 . S
C486 H480 0.930 . S
C486 C487 1.355 1_556 S
C486 C488 1.415 . S
C487 C486 1.355 1_554 S
C487 C489 1.419 . S
C488 C486 1.415 . S
C488 C493 1.425 1_556 S
C488 C495 1.409 . S
C489 H481 0.930 . S
C489 C487 1.419 . S
C489 C490 1.362 . S
C490 H482 0.930 . S
C490 C489 1.362 . S
C490 C493 1.409 . S
C491 H483 0.930 . S
C491 C492 1.355 1_554 S
C491 C493 1.415 . S
C492 C491 1.355 1_556 S
C492 C494 1.419 . S
C493 C488 1.425 1_554 S
C493 C490 1.409 . S
C493 C491 1.415 . S
C494 H484 0.930 . S
C494 C492 1.419 . S
C494 C495 1.362 . S
C495 H485 0.930 . S
C495 C488 1.409 . S
C495 C494 1.362 . S
H496 C502 0.930 . S
H497 C505 0.929 1_554 S
H498 C506 0.930 . S
H499 C507 0.930 . S
H500 C510 0.930 . S
H501 C511 0.930 . S
C502 H496 0.930 . S
C502 C503 1.355 . S
C502 C504 1.415 1_554 S
C503 C502 1.355 . S
C503 C505 1.419 1_554 S
C504 C502 1.415 1_556 S
C504 C509 1.425 . S
C504 C511 1.409 . S
C505 H497 0.929 1_556 S
C505 C503 1.419 1_556 S
C505 C506 1.362 . S
C506 H498 0.930 . S
C506 C505 1.362 . S
C506 C509 1.409 . S
C507 H499 0.930 . S
C507 C508 1.355 . S
C507 C509 1.415 . S
C508 C507 1.355 . S
C508 C510 1.419 . S
C509 C504 1.425 . S
C509 C506 1.409 . S
C509 C507 1.415 . S
C510 H500 0.930 . S
C510 C508 1.419 . S
C510 C511 1.362 . S
C511 H501 0.930 . S
C511 C504 1.409 . S
C511 C510 1.362 . S
H512 C518 0.930 . S
H513 C521 0.930 . S
H514 C522 0.930 . S
H515 C523 0.930 . S
H516 C526 0.930 . S
H517 C527 0.930 . S
C518 H512 0.930 . S
C518 C519 1.355 1_554 S
C518 C520 1.415 . S
C519 C518 1.355 1_556 S
C519 C521 1.419 . S
C520 C518 1.415 . S
C520 C525 1.425 . S
C520 C527 1.409 . S
C521 H513 0.930 . S
C521 C519 1.419 . S
C521 C522 1.362 . S
C522 H514 0.930 . S
C522 C521 1.362 . S
C522 C525 1.409 1_556 S
C523 H515 0.930 . S
C523 C524 1.355 . S
C523 C525 1.415 . S
C524 C523 1.355 . S
C524 C526 1.419 . S
C525 C520 1.425 . S
C525 C522 1.409 1_554 S
C525 C523 1.415 . S
C526 H516 0.930 . S
C526 C524 1.419 . S
C526 C527 1.362 . S
C527 H517 0.930 . S
C527 C520 1.409 . S
C527 C526 1.362 . S
H528 C534 0.930 . S
H529 C537 0.930 . S
H530 C538 0.930 . S
H531 C539 0.930 . S
H532 C542 0.930 . S
H533 C543 0.930 . S
C534 H528 0.930 . S
C534 C535 1.355 . S
C534 C536 1.415 . S
C535 C534 1.355 . S
C535 C537 1.419 . S
C536 C534 1.415 . S
C536 C541 1.425 . S
C536 C543 1.409 . S
C537 H529 0.930 . S
C537 C535 1.419 . S
C537 C538 1.362 . S
C538 H530 0.930 . S
C538 C537 1.362 . S
C538 C541 1.409 . S
C539 H531 0.930 . S
C539 C540 1.355 . S
C539 C541 1.415 1_554 S
C540 C539 1.355 . S
C540 C542 1.419 1_554 S
C541 C536 1.425 . S
C541 C538 1.409 . S
C541 C539 1.415 1_556 S
C542 H532 0.930 . S
C542 C540 1.419 1_556 S
C542 C543 1.362 . S
C543 H533 0.930 . S
C543 C536 1.409 . S
C543 C542 1.362 . S
H544 C550 0.930 . S
H545 C553 0.930 . S
H546 C554 0.930 . S
H547 C555 0.930 . S
H548 C558 0.930 . S
H549 C559 0.930 . S
C550 H544 0.930 . S
C550 C551 1.355 . S
C550 C552 1.415 . S
C551 C550 1.355 . S
C551 C553 1.419 . S
C552 C550 1.415 . S
C552 C557 1.425 . S
C552 C559 1.409 . S
C553 H545 0.930 . S
C553 C551 1.419 . S
C553 C554 1.362 . S
C554 H546 0.930 . S
C554 C553 1.362 . S
C554 C557 1.409 . S
C555 H547 0.930 . S
C555 C556 1.355 . S
C555 C557 1.415 . S
C556 C555 1.355 . S
C556 C558 1.419 . S
C557 C552 1.425 . S
C557 C554 1.409 . S
C557 C555 1.415 . S
C558 H548 0.930 . S
C558 C556 1.419 . S
C558 C559 1.362 . S
C559 H549 0.930 . S
C559 C552 1.409 . S
C559 C558 1.362 . S
H560 C566 0.930 . S
H561 C569 0.930 . S
H562 C570 0.930 . S
H563 C571 0.930 . S
H564 C574 0.930 . S
H565 C575 0.930 . S
C566 H560 0.930 . S
C566 C567 1.355 . S
C566 C568 1.415 . S
C567 C566 1.355 . S
C567 C569 1.419 . S
C568 C566 1.415 . S
C568 C573 1.425 . S
C568 C575 1.409 . S
C569 H561 0.930 . S
C569 C567 1.419 . S
C569 C570 1.362 . S
C570 H562 0.930 . S
C570 C569 1.362 . S
C570 C573 1.409 . S
C571 H563 0.930 . S
C571 C572 1.355 . S
C571 C573 1.415 . S
C572 C571 1.355 . S
C572 C574 1.419 . S
C573 C568 1.425 . S
C573 C570 1.409 . S
C573 C571 1.415 . S
C574 H564 0.930 . S
C574 C572 1.419 . S
C574 C575 1.362 . S
C575 H565 0.930 . S
C575 C568 1.409 . S
C575 C574 1.362 . S
H576 C582 0.930 . S
H577 C585 0.930 . S
H578 C586 0.930 . S
H579 C587 0.930 . S
H580 C590 0.930 . S
H581 C591 0.930 . S
C582 H576 0.930 . S
C582 C583 1.355 . S
C582 C584 1.415 . S
C583 C582 1.355 . S
C583 C585 1.419 . S
C584 C582 1.415 . S
C584 C589 1.425 . S
C584 C591 1.409 . S
C585 H577 0.930 . S
C585 C583 1.419 . S
C585 C586 1.362 . S
C586 H578 0.930 . S
C586 C585 1.362 . S
C586 C589 1.409 . S
C587 H579 0.930 . S
C587 C588 1.355 . S
C587 C589 1.415 . S
C588 C587 1.355 . S
C588 C590 1.419 . S
C589 C584 1.425 . S
C589 C586 1.409 . S
C589 C587 1.415 . S
C590 H580 0.930 . S
C590 C588 1.419 . S
C590 C591 1.362 . S
C591 H581 0.930 . S
C591 C584 1.409 . S
C591 C590 1.362 . S
H592 C598 0.930 . S
H593 C601 0.930 . S
H594 C602 0.930 . S
H595 C603 0.930 . S
H596 C606 0.930 . S
H597 C607 0.930 . S
C598 H592 0.930 . S
C598 C599 1.355 . S
C598 C600 1.415 . S
C599 C598 1.355 . S
C599 C601 1.419 . S
C600 C598 1.415 . S
C600 C605 1.425 . S
C600 C607 1.409 . S
C601 H593 0.930 . S
C601 C599 1.419 . S
C601 C602 1.362 . S
C602 H594 0.930 . S
C602 C601 1.362 . S
C602 C605 1.409 . S
C603 H595 0.930 . S
C603 C604 1.355 . S
C603 C605 1.415 . S
C604 C603 1.355 . S
C604 C606 1.419 . S
C605 C600 1.425 . S
C605 C602 1.409 . S
C605 C603 1.415 . S
C606 H596 0.930 . S
C606 C604 1.419 . S
C606 C607 1.362 . S
C607 H597 0.930 . S
C607 C600 1.409 . S
C607 C606 1.362 . S
H608 C614 0.930 . S
H609 C617 0.930 . S
H610 C618 0.930 . S
H611 C619 0.930 . S
H612 C622 0.930 . S
H613 C623 0.930 . S
C614 H608 0.930 . S
C614 C615 1.355 . S
C614 C616 1.415 . S
C615 C614 1.355 . S
C615 C617 1.419 . S
C616 C614 1.415 . S
C616 C621 1.425 . S
C616 C623 1.409 . S
C617 H609 0.930 . S
C617 C615 1.419 . S
C617 C618 1.362 . S
C618 H610 0.930 . S
C618 C617 1.362 . S
C618 C621 1.409 . S
C619 H611 0.930 . S
C619 C620 1.355 . S
C619 C621 1.415 . S
C620 C619 1.355 . S
C620 C622 1.419 . S
C621 C616 1.425 . S
C621 C618 1.409 . S
C621 C619 1.415 . S
C622 H612 0.930 . S
C622 C620 1.419 . S
C622 C623 1.362 . S
C623 H613 0.930 . S
C623 C616 1.409 . S
C623 C622 1.362 . S
H624 C630 0.930 . S
H625 C633 0.930 . S
H626 C634 0.930 . S
H627 C635 0.930 . S
H628 C638 0.930 . S
H629 C639 0.930 . S
C630 H624 0.930 . S
C630 C631 1.355 . S
C630 C632 1.415 . S
C631 C630 1.355 . S
C631 C633 1.419 . S
C632 C630 1.415 . S
C632 C637 1.425 . S
C632 C639 1.409 . S
C633 H625 0.930 . S
C633 C631 1.419 . S
C633 C634 1.362 . S
C634 H626 0.930 . S
C634 C633 1.362 . S
C634 C637 1.409 . S
C635 H627 0.930 . S
C635 C636 1.355 . S
C635 C637 1.415 . S
C636 C635 1.355 . S
C636 C638 1.419 . S
C637 C632 1.425 . S
C637 C634 1.409 . S
C637 C635 1.415 . S
C638 H628 0.930 . S
C638 C636 1.419 . S
C638 C639 1.362 . S
C639 H629 0.930 . S
C639 C632 1.409 . S
C639 C638 1.362 . S
H640 C646 0.930 . S
H641 C649 0.930 . S
H642 C650 0.930 . S
H643 C651 0.930 . S
H644 C654 0.930 . S
H645 C655 0.930 . S
C646 H640 0.930 . S
C646 C647 1.355 . S
C646 C648 1.415 . S
C647 C646 1.355 . S
C647 C649 1.419 . S
C648 C646 1.415 . S
C648 C653 1.425 . S
C648 C655 1.409 . S
C649 H641 0.930 . S
C649 C647 1.419 . S
C649 C650 1.362 . S
C650 H642 0.930 . S
C650 C649 1.362 . S
C650 C653 1.409 . S
C651 H643 0.930 . S
C651 C652 1.355 . S
C651 C653 1.415 . S
C652 C651 1.355 . S
C652 C654 1.419 . S
C653 C648 1.425 . S
C653 C650 1.409 . S
C653 C651 1.415 . S
C654 H644 0.930 . S
C654 C652 1.419 . S
C654 C655 1.362 . S
C655 H645 0.930 . S
C655 C648 1.409 . S
C655 C654 1.362 . S
H656 C662 0.930 . S
H657 C665 0.930 . S
H658 C666 0.930 . S
H659 C667 0.930 . S
H660 C670 0.930 . S
H661 C671 0.930 . S
C662 H656 0.930 . S
C662 C663 1.355 . S
C662 C664 1.415 . S
C663 C662 1.355 . S
C663 C665 1.419 . S
C664 C662 1.415 . S
C664 C669 1.425 . S
C664 C671 1.409 . S
C665 H657 0.930 . S
C665 C663 1.419 . S
C665 C666 1.362 . S
C666 H658 0.930 . S
C666 C665 1.362 . S
C666 C669 1.409 . S
C667 H659 0.930 . S
C667 C668 1.355 . S
C667 C669 1.415 . S
C668 C667 1.355 . S
C668 C670 1.419 . S
C669 C664 1.425 . S
C669 C666 1.409 . S
C669 C667 1.415 . S
C670 H660 0.930 . S
C670 C668 1.419 . S
C670 C671 1.362 . S
C671 H661 0.930 . S
C671 C664 1.409 . S
C671 C670 1.362 . S
H672 C678 0.930 . S
H673 C681 0.930 . S
H674 C682 0.930 . S
H675 C683 0.930 . S
H676 C686 0.930 . S
H677 C687 0.930 . S
C678 H672 0.930 . S
C678 C679 1.355 1_554 S
C678 C680 1.415 . S
C679 C678 1.355 1_556 S
C679 C681 1.419 . S
C680 C678 1.415 . S
C680 C685 1.425 . S
C680 C687 1.409 . S
C681 H673 0.930 . S
C681 C679 1.419 . S
C681 C682 1.362 . S
C682 H674 0.930 . S
C682 C681 1.362 . S
C682 C685 1.409 1_556 S
C683 H675 0.930 . S
C683 C684 1.355 . S
C683 C685 1.415 . S
C684 C683 1.355 . S
C684 C686 1.419 . S
C685 C680 1.425 . S
C685 C682 1.409 1_554 S
C685 C683 1.415 . S
C686 H676 0.930 . S
C686 C684 1.419 . S
C686 C687 1.362 . S
C687 H677 0.930 . S
C687 C680 1.409 . S
C687 C686 1.362 . S
H688 C694 0.930 . S
H689 C697 0.930 . S
H690 C698 0.930 . S
H691 C699 0.930 . S
H692 C702 0.930 . S
H693 C703 0.930 . S
C694 H688 0.930 . S
C694 C695 1.355 1_556 S
C694 C696 1.415 . S
C695 C694 1.355 1_554 S
C695 C697 1.419 . S
C696 C694 1.415 . S
C696 C701 1.425 1_556 S
C696 C703 1.409 . S
C697 H689 0.930 . S
C697 C695 1.419 . S
C697 C698 1.362 . S
C698 H690 0.930 . S
C698 C697 1.362 . S
C698 C701 1.409 . S
C699 H691 0.930 . S
C699 C700 1.355 1_554 S
C699 C701 1.415 . S
C700 C699 1.355 1_556 S
C700 C702 1.419 . S
C701 C696 1.425 1_554 S
C701 C698 1.409 . S
C701 C699 1.415 . S
C702 H692 0.930 . S
C702 C700 1.419 . S
C702 C703 1.362 . S
C703 H693 0.930 . S
C703 C696 1.409 . S
C703 C702 1.362 . S
H704 C710 0.930 . S
H705 C713 0.930 . S
H706 C714 0.930 . S
H707 C715 0.930 . S
H708 C718 0.930 1_556 S
H709 C719 0.930 . S
C710 H704 0.930 . S
C710 C711 1.355 . S
C710 C712 1.415 1_556 S
C711 C710 1.355 . S
C711 C713 1.419 1_556 S
C712 C710 1.415 1_554 S
C712 C717 1.425 . S
C712 C719 1.409 1_554 S
C713 H705 0.930 . S
C713 C711 1.419 1_554 S
C713 C714 1.362 . S
C714 H706 0.930 . S
C714 C713 1.362 . S
C714 C717 1.409 . S
C715 H707 0.930 . S
C715 C716 1.355 . S
C715 C717 1.415 . S
C716 C715 1.355 . S
C716 C718 1.419 . S
C717 C712 1.425 . S
C717 C714 1.409 . S
C717 C715 1.415 . S
C718 H708 0.930 1_554 S
C718 C716 1.419 . S
C718 C719 1.362 1_554 S
C719 H709 0.930 . S
C719 C712 1.409 1_556 S
C719 C718 1.362 1_556 S
H720 C726 0.930 . S
H721 C729 0.930 . S
H722 C730 0.930 . S
H723 C731 0.930 . S
H724 C734 0.930 . S
H725 C735 0.930 . S
C726 H720 0.930 . S
C726 C727 1.355 . S
C726 C728 1.415 . S
C727 C726 1.355 . S
C727 C729 1.419 . S
C728 C726 1.415 . S
C728 C733 1.425 . S
C728 C735 1.409 1_556 S
C729 H721 0.930 . S
C729 C727 1.419 . S
C729 C730 1.362 . S
C730 H722 0.930 . S
C730 C729 1.362 . S
C730 C733 1.409 . S
C731 H723 0.930 . S
C731 C732 1.355 1_556 S
C731 C733 1.415 . S
C732 C731 1.355 1_554 S
C732 C734 1.419 . S
C733 C728 1.425 . S
C733 C730 1.409 . S
C733 C731 1.415 . S
C734 H724 0.930 . S
C734 C732 1.419 . S
C734 C735 1.362 . S
C735 H725 0.930 . S
C735 C728 1.409 1_554 S
C735 C734 1.362 . S
H736 C742 0.930 . S
H737 C745 0.930 . S
H738 C746 0.930 . S
H739 C747 0.930 . S
H740 C750 0.930 . S
H741 C751 0.904 1_565 S
C742 H736 0.930 . S
C742 C743 1.355 . S
C742 C744 1.415 1_565 S
C743 C742 1.355 . S
C743 C745 1.419 1_565 S
C744 C742 1.415 1_545 S
C744 C749 1.425 . S
C744 C751 1.416 . S
C745 H737 0.930 . S
C745 C743 1.419 1_545 S
C745 C746 1.362 . S
C746 H738 0.930 . S
C746 C745 1.362 . S
C746 C749 1.409 . S
C747 H739 0.930 . S
C747 C748 1.355 . S
C747 C749 1.415 . S
C748 C747 1.355 . S
C748 C750 1.419 . S
C749 C744 1.425 . S
C749 C746 1.409 . S
C749 C747 1.415 . S
C750 H740 0.930 . S
C750 C748 1.419 . S
C750 C751 1.382 . S
C751 H741 0.904 1_545 S
C751 C744 1.416 . S
C751 C750 1.382 . S
H752 C758 0.930 . S
H753 C761 0.930 . S
H754 C762 0.930 . S
H755 C763 0.930 . S
H756 C766 0.930 . S
H757 C767 0.930 . S
C758 H752 0.930 . S
C758 C759 1.355 . S
C758 C760 1.415 1_655 S
C759 C758 1.355 . S
C759 C761 1.419 1_655 S
C760 C758 1.415 1_455 S
C760 C765 1.425 . S
C760 C767 1.409 1_455 S
C761 H753 0.930 . S
C761 C759 1.419 1_455 S
C761 C762 1.362 . S
C762 H754 0.930 . S
C762 C761 1.362 . S
C762 C765 1.409 . S
C763 H755 0.930 . S
C763 C764 1.355 . S
C763 C765 1.415 . S
C764 C763 1.355 . S
C764 C766 1.419 . S
C765 C760 1.425 . S
C765 C762 1.409 . S
C765 C763 1.415 . S
C766 H756 0.930 . S
C766 C764 1.419 . S
C766 C767 1.362 1_455 S
C767 H757 0.930 . S
C767 C760 1.409 1_655 S
C767 C766 1.362 1_655 S
H768 C774 0.930 . S
H769 C777 0.930 . S
H770 C778 0.930 . S
H771 C779 0.930 . S
H772 C782 0.930 . S
H773 C783 0.932 . S
C774 H768 0.930 . S
C774 C775 1.355 . S
C774 C776 1.415 . S
C775 C774 1.355 . S
C775 C777 1.419 . S
C776 C774 1.415 . S
C776 C781 1.425 . S
C776 C783 1.403 1_565 S
C777 H769 0.930 . S
C777 C775 1.419 . S
C777 C778 1.362 . S
C778 H770 0.930 . S
C778 C777 1.362 . S
C778 C781 1.409 . S
C779 H771 0.930 . S
C779 C780 1.355 1_565 S
C779 C781 1.415 . S
C780 C779 1.355 1_545 S
C780 C782 1.419 . S
C781 C776 1.425 . S
C781 C778 1.409 . S
C781 C779 1.415 . S
C782 H772 0.930 . S
C782 C780 1.419 . S
C782 C783 1.367 . S
C783 H773 0.932 . S
C783 C776 1.403 1_545 S
C783 C782 1.367 . S
H784 C790 0.930 . S
H785 C793 0.930 . S
H786 C794 0.930 1_455 S
H787 C795 0.930 . S
H788 C798 0.930 . S
H789 C799 0.930 . S
C790 H784 0.930 . S
C790 C791 1.355 . S
C790 C792 1.415 . S
C791 C790 1.355 . S
C791 C793 1.419 . S
C792 C790 1.415 . S
C792 C797 1.425 . S
C792 C799 1.409 . S
C793 H785 0.930 . S
C793 C791 1.419 . S
C793 C794 1.362 . S
C794 H786 0.930 1_655 S
C794 C793 1.362 . S
C794 C797 1.409 . S
C795 H787 0.930 . S
C795 C796 1.355 . S
C795 C797 1.415 1_455 S
C796 C795 1.355 . S
C796 C798 1.419 1_455 S
C797 C792 1.425 . S
C797 C794 1.409 . S
C797 C795 1.415 1_655 S
C798 H788 0.930 . S
C798 C796 1.419 1_655 S
C798 C799 1.362 . S
C799 H789 0.930 . S
C799 C792 1.409 . S
C799 C798 1.362 . S
H800 C806 0.930 . S
H801 C809 0.930 . S
H802 C810 0.930 . S
H803 C811 0.930 . S
H804 C814 0.930 . S
H805 C815 0.930 . S
C806 H800 0.930 . S
C806 C807 1.355 1_545 S
C806 C808 1.415 . S
C807 C806 1.355 1_565 S
C807 C809 1.419 . S
C808 C806 1.415 . S
C808 C813 1.425 . S
C808 C815 1.409 . S
C809 H801 0.930 . S
C809 C807 1.419 . S
C809 C810 1.362 1_565 S
C810 H802 0.930 . S
C810 C809 1.362 1_545 S
C810 C813 1.409 . S
C811 H803 0.930 . S
C811 C812 1.355 . S
C811 C813 1.415 . S
C812 C811 1.355 . S
C812 C814 1.419 . S
C813 C808 1.425 . S
C813 C810 1.409 . S
C813 C811 1.415 . S
C814 H804 0.930 . S
C814 C812 1.419 . S
C814 C815 1.362 . S
C815 H805 0.930 . S
C815 C808 1.409 . S
C815 C814 1.362 . S
H816 C822 0.930 . S
H817 C825 0.930 . S
H818 C826 0.930 . S
H819 C827 0.930 . S
H820 C830 0.930 . S
H821 C831 0.930 . S
C822 H816 0.930 . S
C822 C823 1.355 . S
C822 C824 1.415 . S
C823 C822 1.355 . S
C823 C825 1.419 . S
C824 C822 1.415 . S
C824 C829 1.425 . S
C824 C831 1.409 . S
C825 H817 0.930 . S
C825 C823 1.419 . S
C825 C826 1.362 1_455 S
C826 H818 0.930 . S
C826 C825 1.362 1_655 S
C826 C829 1.409 1_655 S
C827 H819 0.930 . S
C827 C828 1.355 . S
C827 C829 1.415 1_655 S
C828 C827 1.355 . S
C828 C830 1.419 1_655 S
C829 C824 1.425 . S
C829 C826 1.409 1_455 S
C829 C827 1.415 1_455 S
C830 H820 0.930 . S
C830 C828 1.419 1_455 S
C830 C831 1.362 . S
C831 H821 0.930 . S
C831 C824 1.409 . S
C831 C830 1.362 . S
H832 C838 0.930 . S
H833 C841 0.930 . S
H834 C842 0.930 . S
H835 C843 0.930 . S
H836 C846 0.930 . S
H837 C847 0.930 . S
C838 H832 0.930 . S
C838 C839 1.355 . S
C838 C840 1.415 . S
C839 C838 1.355 . S
C839 C841 1.419 . S
C840 C838 1.415 . S
C840 C845 1.425 . S
C840 C847 1.409 . S
C841 H833 0.930 . S
C841 C839 1.419 . S
C841 C842 1.362 1_565 S
C842 H834 0.930 . S
C842 C841 1.362 1_545 S
C842 C845 1.409 1_545 S
C843 H835 0.930 . S
C843 C844 1.355 . S
C843 C845 1.415 1_545 S
C844 C843 1.355 . S
C844 C846 1.419 1_545 S
C845 C840 1.425 . S
C845 C842 1.409 1_565 S
C845 C843 1.415 1_565 S
C846 H836 0.930 . S
C846 C844 1.419 1_565 S
C846 C847 1.362 . S
C847 H837 0.930 . S
C847 C840 1.409 . S
C847 C846 1.362 . S
H848 C854 0.930 . S
H849 C857 0.930 . S
H850 C858 0.930 . S
H851 C859 0.930 . S
H852 C862 0.930 . S
H853 C863 0.930 . S
C854 H848 0.930 . S
C854 C855 1.355 1_655 S
C854 C856 1.415 . S
C855 C854 1.355 1_455 S
C855 C857 1.419 . S
C856 C854 1.415 . S
C856 C861 1.425 . S
C856 C863 1.409 . S
C857 H849 0.930 . S
C857 C855 1.419 . S
C857 C858 1.362 . S
C858 H850 0.930 . S
C858 C857 1.362 . S
C858 C861 1.409 1_455 S
C859 H851 0.930 . S
C859 C860 1.355 . S
C859 C861 1.415 . S
C860 C859 1.355 . S
C860 C862 1.419 . S
C861 C856 1.425 . S
C861 C858 1.409 1_655 S
C861 C859 1.415 . S
C862 H852 0.930 . S
C862 C860 1.419 . S
C862 C863 1.362 . S
C863 H853 0.930 . S
C863 C856 1.409 . S
C863 C862 1.362 . S
H864 C870 0.930 . S
H865 C873 0.930 . S
H866 C874 0.930 . S
H867 C875 0.930 . S
H868 C878 0.930 . S
H869 C879 0.930 . S
C870 H864 0.930 . S
C870 C871 1.355 . S
C870 C872 1.415 . S
C871 C870 1.355 . S
C871 C873 1.419 . S
C872 C870 1.415 . S
C872 C877 1.425 . S
C872 C879 1.409 . S
C873 H865 0.930 . S
C873 C871 1.419 . S
C873 C874 1.362 . S
C874 H866 0.930 . S
C874 C873 1.362 . S
C874 C877 1.409 . S
C875 H867 0.930 . S
C875 C876 1.355 . S
C875 C877 1.415 . S
C876 C875 1.355 . S
C876 C878 1.419 . S
C877 C872 1.425 . S
C877 C874 1.409 . S
C877 C875 1.415 . S
C878 H868 0.930 . S
C878 C876 1.419 . S
C878 C879 1.362 . S
C879 H869 0.930 . S
C879 C872 1.409 . S
C879 C878 1.362 . S
H880 C886 0.930 . S
H881 C889 0.930 . S
H882 C890 0.930 . S
H883 C891 0.930 . S
H884 C894 0.930 . S
H885 C895 0.930 . S
C886 H880 0.930 . S
C886 C887 1.355 . S
C886 C888 1.415 . S
C887 C886 1.355 . S
C887 C889 1.419 . S
C888 C886 1.415 . S
C888 C893 1.425 . S
C888 C895 1.409 . S
C889 H881 0.930 . S
C889 C887 1.419 . S
C889 C890 1.362 . S
C890 H882 0.930 . S
C890 C889 1.362 . S
C890 C893 1.409 . S
C891 H883 0.930 . S
C891 C892 1.355 . S
C891 C893 1.415 . S
C892 C891 1.355 . S
C892 C894 1.419 . S
C893 C888 1.425 . S
C893 C890 1.409 . S
C893 C891 1.415 . S
C894 H884 0.930 . S
C894 C892 1.419 . S
C894 C895 1.362 . S
C895 H885 0.930 . S
C895 C888 1.409 . S
C895 C894 1.362 . S
H896 C902 0.930 . S
H897 C905 0.930 . S
H898 C906 0.930 . S
H899 C907 0.930 . S
H900 C910 0.930 . S
H901 C911 0.930 . S
C902 H896 0.930 . S
C902 C903 1.355 . S
C902 C904 1.415 . S
C903 C902 1.355 . S
C903 C905 1.419 . S
C904 C902 1.415 . S
C904 C909 1.425 . S
C904 C911 1.409 . S
C905 H897 0.930 . S
C905 C903 1.419 . S
C905 C906 1.362 . S
C906 H898 0.930 . S
C906 C905 1.362 . S
C906 C909 1.409 . S
C907 H899 0.930 . S
C907 C908 1.355 . S
C907 C909 1.415 . S
C908 C907 1.355 . S
C908 C910 1.419 . S
C909 C904 1.425 . S
C909 C906 1.409 . S
C909 C907 1.415 . S
C910 H900 0.930 . S
C910 C908 1.419 . S
C910 C911 1.362 . S
C911 H901 0.930 . S
C911 C904 1.409 . S
C911 C910 1.362 . S
H912 C918 0.930 . S
H913 C921 0.930 . S
H914 C922 0.930 . S
H915 C923 0.930 . S
H916 C926 0.930 . S
H917 C927 0.930 . S
C918 H912 0.930 . S
C918 C919 1.355 . S
C918 C920 1.415 . S
C919 C918 1.355 . S
C919 C921 1.419 . S
C920 C918 1.415 . S
C920 C925 1.425 . S
C920 C927 1.409 . S
C921 H913 0.930 . S
C921 C919 1.419 . S
C921 C922 1.362 . S
C922 H914 0.930 . S
C922 C921 1.362 . S
C922 C925 1.409 . S
C923 H915 0.930 . S
C923 C924 1.355 . S
C923 C925 1.415 . S
C924 C923 1.355 . S
C924 C926 1.419 . S
C925 C920 1.425 . S
C925 C922 1.409 . S
C925 C923 1.415 . S
C926 H916 0.930 . S
C926 C924 1.419 . S
C926 C927 1.362 . S
C927 H917 0.930 . S
C927 C920 1.409 . S
C927 C926 1.362 . S
H928 C934 0.930 . S
H929 C937 0.930 . S
H930 C938 0.930 . S
H931 C939 0.930 . S
H932 C942 0.930 . S
H933 C943 0.930 . S
C934 H928 0.930 . S
C934 C935 1.355 . S
C934 C936 1.415 . S
C935 C934 1.355 . S
C935 C937 1.419 . S
C936 C934 1.415 . S
C936 C941 1.425 . S
C936 C943 1.409 . S
C937 H929 0.930 . S
C937 C935 1.419 . S
C937 C938 1.362 . S
C938 H930 0.930 . S
C938 C937 1.362 . S
C938 C941 1.409 . S
C939 H931 0.930 . S
C939 C940 1.355 . S
C939 C941 1.415 . S
C940 C939 1.355 . S
C940 C942 1.419 . S
C941 C936 1.425 . S
C941 C938 1.409 . S
C941 C939 1.415 . S
C942 H932 0.930 . S
C942 C940 1.419 . S
C942 C943 1.362 . S
C943 H933 0.930 . S
C943 C936 1.409 . S
C943 C942 1.362 . S
H944 C950 0.930 . S
H945 C953 0.930 . S
H946 C954 0.930 . S
H947 C955 0.930 . S
H948 C958 0.930 . S
H949 C959 0.930 . S
C950 H944 0.930 . S
C950 C951 1.355 . S
C950 C952 1.415 . S
C951 C950 1.355 . S
C951 C953 1.419 . S
C952 C950 1.415 . S
C952 C957 1.425 . S
C952 C959 1.409 . S
C953 H945 0.930 . S
C953 C951 1.419 . S
C953 C954 1.362 . S
C954 H946 0.930 . S
C954 C953 1.362 . S
C954 C957 1.409 . S
C955 H947 0.930 . S
C955 C956 1.355 . S
C955 C957 1.415 . S
C956 C955 1.355 . S
C956 C958 1.419 . S
C957 C952 1.425 . S
C957 C954 1.409 . S
C957 C955 1.415 . S
C958 H948 0.930 . S
C958 C956 1.419 . S
C958 C959 1.362 . S
C959 H949 0.930 . S
C959 C952 1.409 . S
C959 C958 1.362 . S
H960 C966 0.930 . S
H961 C969 0.930 . S
H962 C970 0.930 . S
H963 C971 0.930 . S
H964 C974 0.930 . S
H965 C975 0.930 . S
C966 H960 0.930 . S
C966 C967 1.355 . S
C966 C968 1.415 . S
C967 C966 1.355 . S
C967 C969 1.419 . S
C968 C966 1.415 . S
C968 C973 1.425 . S
C968 C975 1.409 . S
C969 H961 0.930 . S
C969 C967 1.419 . S
C969 C970 1.362 . S
C970 H962 0.930 . S
C970 C969 1.362 . S
C970 C973 1.409 . S
C971 H963 0.930 . S
C971 C972 1.355 . S
C971 C973 1.415 . S
C972 C971 1.355 . S
C972 C974 1.419 . S
C973 C968 1.425 . S
C973 C970 1.409 . S
C973 C971 1.415 . S
C974 H964 0.930 . S
C974 C972 1.419 . S
C974 C975 1.362 . S
C975 H965 0.930 . S
C975 C968 1.409 . S
C975 C974 1.362 . S
H976 C982 0.930 . S
H977 C985 0.930 . S
H978 C986 0.930 . S
H979 C987 0.930 . S
H980 C990 0.930 . S
H981 C991 0.930 . S
C982 H976 0.930 . S
C982 C983 1.355 . S
C982 C984 1.415 . S
C983 C982 1.355 . S
C983 C985 1.419 . S
C984 C982 1.415 . S
C984 C989 1.425 . S
C984 C991 1.409 . S
C985 H977 0.930 . S
C985 C983 1.419 . S
C985 C986 1.362 . S
C986 H978 0.930 . S
C986 C985 1.362 . S
C986 C989 1.409 . S
C987 H979 0.930 . S
C987 C988 1.355 . S
C987 C989 1.415 . S
C988 C987 1.355 . S
C988 C990 1.419 . S
C989 C984 1.425 . S
C989 C986 1.409 . S
C989 C987 1.415 . S
C990 H980 0.930 . S
C990 C988 1.419 . S
C990 C991 1.362 . S
C991 H981 0.930 . S
C991 C984 1.409 . S
C991 C990 1.362 . S
H992 C998 0.930 . S
H993 C1001 0.930 . S
H994 C1002 0.930 . S
H995 C1003 0.930 . S
H996 C1006 0.930 . S
H997 C1007 0.930 . S
C998 H992 0.930 . S
C998 C999 1.355 . S
C998 C1000 1.415 . S
C999 C998 1.355 . S
C999 C1001 1.419 1_556 S
C1000 C998 1.415 . S
C1000 C1005 1.425 1_556 S
C1000 C1007 1.409 . S
C1001 H993 0.930 . S
C1001 C999 1.419 1_554 S
C1001 C1002 1.362 . S
C1002 H994 0.930 . S
C1002 C1001 1.362 . S
C1002 C1005 1.409 . S
C1003 H995 0.930 . S
C1003 C1004 1.355 . S
C1003 C1005 1.415 . S
C1004 C1003 1.355 . S
C1004 C1006 1.419 1_554 S
C1005 C1000 1.425 1_554 S
C1005 C1002 1.409 . S
C1005 C1003 1.415 . S
C1006 H996 0.930 . S
C1006 C1004 1.419 1_556 S
C1006 C1007 1.362 . S
C1007 H997 0.930 . S
C1007 C1000 1.409 . S
C1007 C1006 1.362 . S
H1008 C1014 0.930 . S
H1009 C1017 0.930 . S
H1010 C1018 0.930 . S
H1011 C1019 0.930 . S
H1012 C1022 0.930 . S
H1013 C1023 0.930 . S
C1014 H1008 0.930 . S
C1014 C1015 1.355 . S
C1014 C1016 1.415 . S
C1015 C1014 1.355 . S
C1015 C1017 1.419 1_554 S
C1016 C1014 1.415 . S
C1016 C1021 1.425 1_554 S
C1016 C1023 1.409 . S
C1017 H1009 0.930 . S
C1017 C1015 1.419 1_556 S
C1017 C1018 1.362 . S
C1018 H1010 0.930 . S
C1018 C1017 1.362 . S
C1018 C1021 1.409 . S
C1019 H1011 0.930 . S
C1019 C1020 1.355 . S
C1019 C1021 1.415 . S
C1020 C1019 1.355 . S
C1020 C1022 1.419 1_556 S
C1021 C1016 1.425 1_556 S
C1021 C1018 1.409 . S
C1021 C1019 1.415 . S
C1022 H1012 0.930 . S
C1022 C1020 1.419 1_554 S
C1022 C1023 1.362 . S
C1023 H1013 0.930 . S
C1023 C1016 1.409 . S
C1023 C1022 1.362 . S
H1024 C1030 0.930 1_556 S
H1025 C1033 0.930 . S
H1026 C1034 0.930 . S
H1027 C1035 0.930 1_554 S
H1028 C1038 0.930 . S
H1029 C1039 0.930 . S
C1030 H1024 0.930 1_554 S
C1030 C1031 1.355 . S
C1030 C1032 1.415 1_554 S
C1031 C1030 1.355 . S
C1031 C1033 1.419 . S
C1032 C1030 1.415 1_556 S
C1032 C1037 1.425 1_556 S
C1032 C1039 1.409 . S
C1033 H1025 0.930 . S
C1033 C1031 1.419 . S
C1033 C1034 1.362 . S
C1034 H1026 0.930 . S
C1034 C1033 1.362 . S
C1034 C1037 1.409 . S
C1035 H1027 0.930 1_556 S
C1035 C1036 1.355 . S
C1035 C1037 1.415 1_556 S
C1036 C1035 1.355 . S
C1036 C1038 1.419 . S
C1037 C1032 1.425 1_554 S
C1037 C1034 1.409 . S
C1037 C1035 1.415 1_554 S
C1038 H1028 0.930 . S
C1038 C1036 1.419 . S
C1038 C1039 1.362 . S
C1039 H1029 0.930 . S
C1039 C1032 1.409 . S
C1039 C1038 1.362 . S
H1040 C1046 0.930 1_556 S
H1041 C1049 0.930 . S
H1042 C1050 0.930 . S
H1043 C1051 0.930 1_554 S
H1044 C1054 0.930 . S
H1045 C1055 0.930 . S
C1046 H1040 0.930 1_554 S
C1046 C1047 1.355 . S
C1046 C1048 1.415 1_554 S
C1047 C1046 1.355 . S
C1047 C1049 1.419 . S
C1048 C1046 1.415 1_556 S
C1048 C1053 1.425 1_556 S
C1048 C1055 1.409 . S
C1049 H1041 0.930 . S
C1049 C1047 1.419 . S
C1049 C1050 1.362 . S
C1050 H1042 0.930 . S
C1050 C1049 1.362 . S
C1050 C1053 1.409 . S
C1051 H1043 0.930 1_556 S
C1051 C1052 1.355 . S
C1051 C1053 1.415 1_556 S
C1052 C1051 1.355 . S
C1052 C1054 1.419 . S
C1053 C1048 1.425 1_554 S
C1053 C1050 1.409 . S
C1053 C1051 1.415 1_554 S
C1054 H1044 0.930 . S
C1054 C1052 1.419 . S
C1054 C1055 1.362 . S
C1055 H1045 0.930 . S
C1055 C1048 1.409 . S
C1055 C1054 1.362 . S
H1056 C1062 0.930 . S
H1057 C1065 0.930 . S
H1058 C1066 0.930 . S
H1059 C1067 0.930 . S
H1060 C1070 0.930 . S
H1061 C1071 0.930 . S
C1062 H1056 0.930 . S
C1062 C1063 1.355 . S
C1062 C1064 1.415 . S
C1063 C1062 1.355 . S
C1063 C1065 1.419 . S
C1064 C1062 1.415 . S
C1064 C1069 1.425 . S
C1064 C1071 1.409 . S
C1065 H1057 0.930 . S
C1065 C1063 1.419 . S
C1065 C1066 1.362 . S
C1066 H1058 0.930 . S
C1066 C1065 1.362 . S
C1066 C1069 1.409 . S
C1067 H1059 0.930 . S
C1067 C1068 1.355 . S
C1067 C1069 1.415 . S
C1068 C1067 1.355 . S
C1068 C1070 1.419 . S
C1069 C1064 1.425 . S
C1069 C1066 1.409 . S
C1069 C1067 1.415 . S
C1070 H1060 0.930 . S
C1070 C1068 1.419 . S
C1070 C1071 1.362 . S
C1071 H1061 0.930 . S
C1071 C1064 1.409 . S
C1071 C1070 1.362 . S
H1072 C1078 0.930 . S
H1073 C1081 0.930 . S
H1074 C1082 0.930 . S
H1075 C1083 0.930 . S
H1076 C1086 0.930 . S
H1077 C1087 0.930 . S
C1078 H1072 0.930 . S
C1078 C1079 1.355 . S
C1078 C1080 1.415 . S
C1079 C1078 1.355 . S
C1079 C1081 1.419 . S
C1080 C1078 1.415 . S
C1080 C1085 1.425 . S
C1080 C1087 1.409 . S
C1081 H1073 0.930 . S
C1081 C1079 1.419 . S
C1081 C1082 1.362 . S
C1082 H1074 0.930 . S
C1082 C1081 1.362 . S
C1082 C1085 1.409 . S
C1083 H1075 0.930 . S
C1083 C1084 1.355 . S
C1083 C1085 1.415 . S
C1084 C1083 1.355 . S
C1084 C1086 1.419 . S
C1085 C1080 1.425 . S
C1085 C1082 1.409 . S
C1085 C1083 1.415 . S
C1086 H1076 0.930 . S
C1086 C1084 1.419 . S
C1086 C1087 1.362 . S
C1087 H1077 0.930 . S
C1087 C1080 1.409 . S
C1087 C1086 1.362 . S
H1088 C1094 0.930 . S
H1089 C1097 0.930 . S
H1090 C1098 0.930 . S
H1091 C1099 0.930 . S
H1092 C1102 0.930 . S
H1093 C1103 0.930 . S
C1094 H1088 0.930 . S
C1094 C1095 1.355 . S
C1094 C1096 1.415 . S
C1095 C1094 1.355 . S
C1095 C1097 1.419 . S
C1096 C1094 1.415 . S
C1096 C1101 1.425 . S
C1096 C1103 1.409 . S
C1097 H1089 0.930 . S
C1097 C1095 1.419 . S
C1097 C1098 1.362 . S
C1098 H1090 0.930 . S
C1098 C1097 1.362 . S
C1098 C1101 1.409 . S
C1099 H1091 0.930 . S
C1099 C1100 1.355 . S
C1099 C1101 1.415 . S
C1100 C1099 1.355 . S
C1100 C1102 1.419 . S
C1101 C1096 1.425 . S
C1101 C1098 1.409 . S
C1101 C1099 1.415 . S
C1102 H1092 0.930 . S
C1102 C1100 1.419 . S
C1102 C1103 1.362 . S
C1103 H1093 0.930 . S
C1103 C1096 1.409 . S
C1103 C1102 1.362 . S
H1104 C1110 0.930 . S
H1105 C1113 0.930 . S
H1106 C1114 0.930 . S
H1107 C1115 0.930 . S
H1108 C1118 0.930 . S
H1109 C1119 0.930 . S
C1110 H1104 0.930 . S
C1110 C1111 1.355 . S
C1110 C1112 1.415 . S
C1111 C1110 1.355 . S
C1111 C1113 1.419 . S
C1112 C1110 1.415 . S
C1112 C1117 1.425 . S
C1112 C1119 1.409 . S
C1113 H1105 0.930 . S
C1113 C1111 1.419 . S
C1113 C1114 1.362 . S
C1114 H1106 0.930 . S
C1114 C1113 1.362 . S
C1114 C1117 1.409 . S
C1115 H1107 0.930 . S
C1115 C1116 1.355 . S
C1115 C1117 1.415 . S
C1116 C1115 1.355 . S
C1116 C1118 1.419 . S
C1117 C1112 1.425 . S
C1117 C1114 1.409 . S
C1117 C1115 1.415 . S
C1118 H1108 0.930 . S
C1118 C1116 1.419 . S
C1118 C1119 1.362 . S
C1119 H1109 0.930 . S
C1119 C1112 1.409 . S
C1119 C1118 1.362 . S
C359 C8 1.226 . S
C364 C118 1.296 . S
C375 C32 1.250 . S
C380 C140 1.288 . S
C391 C162 1.226 . S
C396 C62 1.295 . S
C407 C96 1.297 . S
C412 C74 1.226 . S
C423 C294 1.281 . S
C428 C186 1.234 . S
C439 C208 1.230 . S
C444 C316 1.287 . S
C455 C340 1.282 . S
C460 C230 1.233 . S
C471 C272 1.298 . S
C476 C252 1.227 . S
C487 C7 1.510 . S
C492 C37 1.433 . S
C503 C51 1.492 . S
C508 C43 1.537 . S
C519 C87 1.421 . S
C524 C59 1.504 . S
C535 C73 1.504 . S
C540 C21 1.424 . S
C551 C95 1.504 . S
C556 C175 1.422 . S
C567 C109 1.493 . S
C572 C117 1.538 . S
C583 C131 1.503 . S
C588 C139 1.541 . S
C599 C153 1.421 . S
C604 C161 1.504 . S
C615 C197 1.539 . S
C620 C213 1.496 . S
C631 C235 1.453 . S
C636 C219 1.520 . S
C647 C241 1.513 . S
C652 C257 1.443 . S
C663 C263 1.506 . S
C668 C191 1.428 . S
C679 C345 1.478 . S
C684 C271 1.531 . S
C695 C285 1.443 . S
C700 C293 1.515 . S
C711 C307 1.501 . S
C716 C315 1.541 . S
C727 C351 1.507 . S
C732 C329 1.430 . S
C743 C150 1.377 . S
C748 C15 1.352 . S
C759 C172 1.370 . S
C764 C29 1.349 . S
C775 C65 1.372 . S
C780 C106 1.341 . S
C791 C81 1.361 . S
C796 C128 1.342 . S
C807 C54 1.395 . S
C812 C103 1.389 . S
C823 C125 1.350 . S
C828 C84 1.373 . S
C839 C147 1.354 . S
C844 C18 1.346 . S
C855 C30 1.388 . S
C860 C169 1.396 . S
C871 C183 1.386 . S
C876 C326 1.348 . S
C887 C205 1.397 . S
C892 C338 1.365 . S
C903 C282 1.353 . S
C908 C227 1.391 . S
C919 C249 1.351 . S
C924 C304 1.350 . S
C935 C279 1.384 . S
C940 C228 1.397 . S
C951 C301 1.359 . S
C956 C250 1.387 . S
C967 C323 1.369 . S
C972 C184 1.394 . S
C983 C206 1.367 . S
C988 C337 1.398 . S
C999 C348 1.416 . S
C1004 C10 1.415 . S
C1015 C274 1.421 . S
C1020 C40 1.411 . S
C1031 C52 1.479 . S
C1036 C296 1.429 . S
C1047 C318 1.484 . S
C1052 C76 1.455 . S
C1063 C98 1.405 . S
C1068 C216 1.441 . S
C1079 C120 1.446 . S
C1084 C238 1.484 . S
C1095 C260 1.481 . S
C1100 C142 1.467 . S
C1111 C164 1.448 . S
C1116 C194 1.406 . S
