# Generated by pormake.
# Topology wjd, (6)-cn, num edge types: 1
# Building blocks:
#     Node 0, Type 0, BuildingBlock: HISSIN_clean_sbu_0, # of connection points: 6
#     Node 1, Type 0, BuildingBlock: HISSIN_clean_sbu_0, # of connection points: 6
#     Node 2, Type 0, BuildingBlock: HISSIN_clean_sbu_0, # of connection points: 6
#     Node 3, Type 0, BuildingBlock: HISSIN_clean_sbu_0, # of connection points: 6
#     Node 4, Type 0, BuildingBlock: HISSIN_clean_sbu_0, # of connection points: 6
#     Node 5, Type 0, BuildingBlock: HISSIN_clean_sbu_0, # of connection points: 6
#     Node 6, Type 0, BuildingBlock: HISSIN_clean_sbu_0, # of connection points: 6
#     Node 7, Type 0, BuildingBlock: HISSIN_clean_sbu_0, # of connection points: 6
#     Node 8, Type 0, BuildingBlock: HISSIN_clean_sbu_0, # of connection points: 6
#     Node 9, Type 0, BuildingBlock: HISSIN_clean_sbu_0, # of connection points: 6
#     Node 10, Type 0, BuildingBlock: HISSIN_clean_sbu_0, # of connection points: 6
#     Node 11, Type 0, BuildingBlock: HISSIN_clean_sbu_0, # of connection points: 6
#     Edge 12, Type (0, 0), None
#     Edge 13, Type (0, 0), None
#     Edge 14, Type (0, 0), None
#     Edge 15, Type (0, 0), None
#     Edge 16, Type (0, 0), None
#     Edge 17, Type (0, 0), None
#     Edge 18, Type (0, 0), None
#     Edge 19, Type (0, 0), None
#     Edge 20, Type (0, 0), None
#     Edge 21, Type (0, 0), None
#     Edge 22, Type (0, 0), None
#     Edge 23, Type (0, 0), None
#     Edge 24, Type (0, 0), None
#     Edge 25, Type (0, 0), None
#     Edge 26, Type (0, 0), None
#     Edge 27, Type (0, 0), None
#     Edge 28, Type (0, 0), None
#     Edge 29, Type (0, 0), None
#     Edge 30, Type (0, 0), None
#     Edge 31, Type (0, 0), None
#     Edge 32, Type (0, 0), None
#     Edge 33, Type (0, 0), None
#     Edge 34, Type (0, 0), None
#     Edge 35, Type (0, 0), None
#     Edge 36, Type (0, 0), None
#     Edge 37, Type (0, 0), None
#     Edge 38, Type (0, 0), None
#     Edge 39, Type (0, 0), None
#     Edge 40, Type (0, 0), None
#     Edge 41, Type (0, 0), None
#     Edge 42, Type (0, 0), None
#     Edge 43, Type (0, 0), None
#     Edge 44, Type (0, 0), None
#     Edge 45, Type (0, 0), None
#     Edge 46, Type (0, 0), None
#     Edge 47, Type (0, 0), None
# Relax obj value: 0.118
# Max RMSD: 0.276
# Mean RMSD: 0.276
data_MOF--net-wjd--node1-HISSIN_clean_sbu_0--edge1-none
_symmetry_space_group_name_H-M    P1
_symmetry_Int_Tables_number       1
_symmetry_cell_setting            triclinic
loop_
_symmetry_equiv_pos_as_xyz
'x, y, z'
_cell_length_a     22.608626
_cell_length_b     22.61198
_cell_length_c     24.488596
_cell_angle_alpha  89.177817
_cell_angle_beta   90.425419
_cell_angle_gamma 120.00291
loop_
_atom_site_label
_atom_site_type_symbol
_atom_site_fract_x
_atom_site_fract_y
_atom_site_fract_z
_atom_type_partial_charge
Eu0 Eu 0.44771 0.23345 0.04929 0.0
Eu1 Eu 0.37627 0.08779 0.09146 0.0
C2 C 0.46436 0.19827 0.17526 0.0
C3 C 0.56401 0.42191 0.01546 0.0
C4 C 0.62569 0.42554 0.03031 0.0
C5 C 0.617 0.54501 0.02905 0.0
C6 C 0.68251 0.48814 0.04386 0.0
C7 C 0.55998 0.48205 0.01527 0.0
C8 C 0.67909 0.54879 0.04342 0.0
C9 C 0.50205 0.35528 0.00527 0.0
O10 O 0.31961 0.14262 0.11948 0.0
O11 O 0.33832 0.20282 0.04179 0.0
C12 C 0.3026 0.17743 0.08581 0.0
O13 O 0.38663 0.12797 0.00714 0.0
O14 O 0.31472 1.0057 0.14928 0.0
O15 O 0.31004 0.9839 0.06303 0.0
O16 O 0.38788 0.13039 0.0055 0.0
C17 C 0.37479 0.09974 -0.04168 0.0
O18 O 0.53556 0.21421 0.05375 0.0
O19 O 0.47857 0.09731 0.06923 0.0
O20 O 0.45332 0.14009 0.15567 0.0
O21 O 0.5098 0.30604 -0.01498 0.0
O22 O 0.45709 0.33385 0.04464 0.0
O23 O 0.45609 0.24164 0.14362 0.0
C24 C 0.20635 0.93749 0.1109 0.0
C25 C 0.18032 0.97517 0.08421 0.0
C26 C 0.09099 0.8518 0.13633 0.0
C27 C 0.10996 0.94988 0.08163 0.0
C28 C 0.16143 0.87647 0.13806 0.0
C29 C 1.06476 0.88749 0.1069 0.0
C30 C 0.28031 0.96305 0.1105 0.0
C31 C 0.535 0.15576 0.05752 0.0
H32 H 0.62987 0.37985 0.03209 0.0
H33 H 0.61267 0.59059 0.02785 0.0
H34 H 0.72928 0.48874 0.05495 0.0
H35 H 0.51237 0.48015 0.00498 0.0
H36 H 0.2143 1.02278 0.06332 0.0
H37 H 1.05673 0.80236 0.15459 0.0
H38 H 1.09069 0.97693 0.05717 0.0
H39 H 0.18061 0.84719 0.15941 0.0
Eu40 Eu 0.8331 0.77349 0.32059 0.0
Eu41 Eu 0.90141 0.69997 0.36335 0.0
C42 C 0.84222 0.77544 0.45461 0.0
C43 C 0.85276 0.9449 0.31077 0.0
C44 C 0.86084 0.97142 0.36339 0.0
C45 C 0.93716 1.0585 0.27705 0.0
C46 C 0.90615 1.04002 0.37277 0.0
C47 C 0.89294 0.9887 0.26796 0.0
C48 C 0.94294 0.08497 0.32951 0.0
C49 C 0.80708 0.87091 0.30197 0.0
O50 O 0.79509 0.61203 0.36074 0.0
O51 O 0.73785 0.67008 0.33904 0.0
C52 C 0.73802 0.61321 0.35339 0.0
O53 O 0.8072 0.69837 0.25589 0.0
O54 O 0.91218 0.63483 0.42474 0.0
O55 O 0.99513 0.69565 0.36772 0.0
O56 O 0.90553 0.69602 0.26848 0.0
C57 C 0.85438 0.68754 0.23643 0.0
O58 O 0.94898 0.83273 0.30066 0.0
O59 O 0.97577 0.80741 0.3817 0.0
O60 O 0.85376 0.75816 0.40597 0.0
O61 O 0.82548 0.84405 0.26344 0.0
O62 O 0.78556 0.83202 0.34577 0.0
O63 O 0.85505 0.75687 0.40792 0.0
C64 C 0.97908 0.58833 0.39148 0.0
C65 C 0.9247 0.53046 0.36798 0.0
C66 C 1.05111 0.53695 0.38179 0.0
C67 C 0.93291 0.47594 0.35254 0.0
C68 C 1.04277 0.59194 0.39725 0.0
C69 C 0.99578 0.47793 0.35998 0.0
C70 C 0.97136 0.64736 0.40502 0.0
C71 C 0.9953 0.84632 0.33888 0.0
H72 H 0.83198 0.9394 0.39766 0.0
H73 H 0.96474 0.0918 0.24295 0.0
H74 H 0.90979 1.0584 0.41399 0.0
H75 H 0.8899 0.96898 0.22747 0.0
H76 H 0.87574 0.52733 0.3615 0.0
H77 H 0.09989 0.53979 0.38842 0.0
H78 H 0.88925 0.43149 0.33541 0.0
H79 H 1.08598 0.63728 0.41372 0.0
Eu80 Eu 0.9158 0.24342 0.05194 0.0
Eu81 Eu 1.06081 0.31763 0.09224 0.0
C82 C 0.95193 0.29563 0.17664 0.0
C83 C 0.72755 0.16988 0.01963 0.0
C84 C 0.72457 0.22757 0.0355 0.0
C85 C 0.60408 0.10042 0.032 0.0
C86 C 0.66207 0.22201 0.04885 0.0
C87 C 0.66699 0.10615 0.0184 0.0
C88 C 0.60095 0.15849 0.04715 0.0
C89 C 0.79399 0.17441 0.00963 0.0
O90 O 1.00593 0.20557 0.12177 0.0
O91 O 0.94739 0.16561 0.04411 0.0
C92 C 0.97231 0.15446 0.08819 0.0
O93 O 1.02105 0.28838 0.00861 0.0
O94 O 0.14267 0.33707 0.14946 0.0
O95 O 0.165 0.35698 0.06312 0.0
O96 O 1.01856 0.28716 0.00689 0.0
C97 C 1.04937 0.30458 -0.04049 0.0
O98 O 0.93425 0.35035 0.05264 0.0
O99 O 1.05072 0.41048 0.06882 0.0
O100 O 1.0086 0.34356 0.15489 0.0
O101 O 0.84288 0.23118 -0.0123 0.0
O102 O 0.8157 0.15199 0.05009 0.0
O103 O 0.9087 0.24326 0.14657 0.0
C104 C 0.21324 0.30055 0.11068 0.0
C105 C 0.17311 0.23393 0.09065 0.0
C106 C 0.30578 0.27772 0.12691 0.0
C107 C 0.19994 0.19019 0.08725 0.0
C108 C 0.27927 0.32177 0.12965 0.0
C109 C 0.26675 0.21218 0.10476 0.0
C110 C 0.18601 0.34751 0.11048 0.0
C111 C 0.99245 0.40843 0.05605 0.0
H112 H 0.77067 0.27695 0.03813 0.0
H113 H 0.55804 1.05099 0.02983 0.0
H114 H 0.66186 0.2679 0.06064 0.0
H115 H 0.66849 1.0607 0.00733 0.0
H116 H 0.12207 0.21683 0.07542 0.0
H117 H 0.35838 0.29641 0.13887 0.0
H118 H 0.16998 0.14085 0.06824 0.0
H119 H 0.31104 0.37302 0.14483 0.0
Eu120 Eu 0.37963 0.09015 0.32016 0.0
Eu121 Eu 0.44464 0.23346 0.36001 0.0
C122 C 0.36635 0.09861 0.45272 0.0
C123 C 0.21085 0.9353 0.31107 0.0
C124 C 0.1821 0.91038 0.36264 0.0
C125 C 0.09852 0.9109 0.27762 0.0
C126 C 0.11328 0.8869 0.37181 0.0
C127 C 0.16865 0.93678 0.26889 0.0
C128 C 1.07 0.88488 0.32919 0.0
C129 C 0.28553 0.96529 0.30345 0.0
O130 O 0.5353 0.21856 0.3617 0.0
O131 O 0.48333 0.10312 0.34362 0.0
C132 C 0.5377 0.1618 0.35761 0.0
O133 O 0.4587 0.14346 0.2575 0.0
O134 O 0.50098 0.30661 0.42442 0.0
O135 O 0.45198 0.33306 0.35906 0.0
O136 O 0.45431 0.24121 0.26537 0.0
C137 C 0.46624 0.19977 0.23558 0.0
O138 O 0.32033 0.14251 0.28972 0.0
O139 O 0.3345 0.19946 0.36705 0.0
O140 O 0.38389 0.12739 0.40356 0.0
O141 O 0.31311 1.01026 0.26393 0.0
O142 O 0.3229 0.98397 0.34778 0.0
O143 O 0.38501 0.12999 0.40531 0.0
C144 C 0.5566 0.42159 0.39048 0.0
C145 C 0.55352 0.48223 0.38832 0.0
C146 C 0.67602 0.48637 0.36472 0.0
C147 C 0.61169 0.54488 0.37481 0.0
C148 C 0.6182 0.42422 0.378 0.0
C149 C 0.67377 0.54761 0.36314 0.0
C150 C 0.49411 0.35524 0.40044 0.0
C151 C 0.29976 0.17378 0.32293 0.0
H152 H 0.21278 0.90919 0.39637 0.0
H153 H 1.06669 0.91 0.24401 0.0
H154 H 0.09361 0.86785 0.4124 0.0
H155 H 0.18988 0.95804 0.22921 0.0
H156 H 0.50595 0.48103 0.3968 0.0
H157 H 0.72277 0.4862 0.35567 0.0
H158 H 0.60835 0.59102 0.37443 0.0
H159 H 0.62162 0.3781 0.378 0.0
Eu160 Eu 0.90698 0.70457 0.05105 0.0
Eu161 Eu 0.83036 0.77301 0.09064 0.0
C162 C 0.85429 0.6861 0.17603 0.0
C163 C 0.9803 0.58955 0.01875 0.0
C164 C 1.04437 0.59403 0.02499 0.0
C165 C 0.92569 0.46798 0.03852 0.0
C166 C 1.04913 0.53576 0.03768 0.0
C167 C 0.92105 0.52598 0.02594 0.0
C168 C 0.98972 0.47191 0.04463 0.0
C169 C 0.97625 0.65226 0.0093 0.0
O170 O 0.94177 0.83099 0.12045 0.0
O171 O 0.98513 0.8142 0.04405 0.0
C172 C 0.9941 0.84938 0.08766 0.0
O173 O 0.86362 0.76709 0.00733 0.0
O174 O 0.80871 0.83272 0.14794 0.0
O175 O 0.79051 0.83794 0.06147 0.0
O176 O 0.86494 0.766 0.00567 0.0
C177 C 0.85249 0.78453 -0.04196 0.0
O178 O 0.80025 0.61543 0.05301 0.0
O179 O 0.73885 0.67078 0.06624 0.0
O180 O 0.8057 0.69399 0.15422 0.0
O181 O 0.92055 0.64614 -0.01328 0.0
O182 O 0.99784 0.69476 0.05003 0.0
O183 O 0.9069 0.69628 0.14567 0.0
C184 C 0.84722 0.94126 0.10918 0.0
C185 C 0.91146 0.96806 0.08398 0.0
C186 C 0.87591 1.05604 0.13407 0.0
C187 C 0.95649 1.0385 0.08208 0.0
C188 C 0.83023 0.98552 0.13517 0.0
C189 C 0.93868 0.08303 0.1065 0.0
C190 C 0.79948 0.86712 0.10883 0.0
C191 C 0.74182 0.61501 0.05497 0.0
H192 H 0.09086 0.64287 0.02047 0.0
H193 H 0.87857 0.41989 0.0437 0.0
H194 H 0.09913 0.54068 0.04174 0.0
H195 H 0.87099 0.5211 0.0225 0.0
H196 H 0.92568 0.93462 0.06388 0.0
H197 H 0.86026 0.08983 0.15155 0.0
H198 H 1.00344 1.05839 0.05892 0.0
H199 H 0.78133 0.96576 0.15532 0.0
Eu200 Eu 1.06494 0.32128 0.32161 0.0
Eu201 Eu 0.92096 0.25136 0.36394 0.0
C202 C 1.05642 0.31025 0.4552 0.0
C203 C 0.21255 0.29881 0.30117 0.0
C204 C 0.17764 0.2378 0.33176 0.0
C205 C 0.29231 0.26389 0.27082 0.0
C206 C 0.20176 0.19177 0.33382 0.0
C207 C 0.26886 0.3107 0.26954 0.0
C208 C 0.26 0.20509 0.3042 0.0
C209 C 0.1884 0.34834 0.30162 0.0
O210 O 0.93993 0.35748 0.35506 0.0
O211 O 1.0569 0.41576 0.34125 0.0
C212 C 0.99863 0.41477 0.35103 0.0
O213 O 1.01179 0.34408 0.25629 0.0
O214 O 0.8492 0.24401 0.42672 0.0
O215 O 0.82077 0.16035 0.37002 0.0
O216 O 0.91135 0.24529 0.26943 0.0
C217 C 0.95375 0.29616 0.23699 0.0
O218 O 1.00942 0.20627 0.30176 0.0
O219 O 0.95378 0.17615 0.38134 0.0
O220 O 1.02741 0.29886 0.40634 0.0
O221 O 0.14486 0.34026 0.26311 0.0
O222 O 0.16957 0.35871 0.34922 0.0
O223 O 1.02507 0.29767 0.40814 0.0
C224 C 0.73258 0.17989 0.397 0.0
C225 C 0.67426 0.11496 0.39102 0.0
C226 C 0.66331 0.2315 0.37556 0.0
C227 C 0.61077 0.1083 0.37746 0.0
C228 C 0.72646 0.23806 0.38889 0.0
C229 C 0.60456 0.16662 0.36961 0.0
C230 C 0.79983 0.18586 0.40785 0.0
C231 C 0.9759 0.15904 0.33939 0.0
H232 H 0.13343 0.22717 0.35601 0.0
H233 H 0.33902 0.27649 0.24942 0.0
H234 H 0.17759 0.14805 0.3613 0.0
H235 H 0.29621 0.35736 0.2457 0.0
H236 H 0.67798 0.06929 0.39645 0.0
H237 H 0.66087 0.27781 0.36971 0.0
H238 H 0.56668 1.05769 0.37361 0.0
H239 H 0.77057 0.28876 0.39227 0.0
Eu240 Eu 0.12069 0.34756 0.59226 0.0
Eu241 Eu 0.26568 0.41835 0.55201 0.0
C242 C 0.13211 0.34589 0.45953 0.0
C243 C 0.96827 0.17804 0.61069 0.0
C244 C 1.0084 0.15154 0.59071 0.0
C245 C 0.87574 0.06269 0.62691 0.0
C246 C 0.98157 0.08098 0.58732 0.0
C247 C 0.90224 0.13325 0.62963 0.0
C248 C 0.91475 1.03615 0.60479 0.0
C249 C 0.9955 0.25224 0.61046 0.0
O250 O 0.24722 0.50683 0.55267 0.0
O251 O 0.13075 0.45048 0.5688 0.0
C252 C 0.18902 0.5067 0.55604 0.0
O253 O 0.1729 0.42574 0.6549 0.0
O254 O 0.33858 0.47899 0.48778 0.0
O255 O 0.36579 0.42702 0.55021 0.0
O256 O 0.27278 0.4253 0.64665 0.0
C257 C 0.22956 0.43447 0.67669 0.0
O258 O 0.17557 0.29038 0.62182 0.0
O259 O 0.23412 0.30895 0.54418 0.0
O260 O 0.16043 0.35802 0.50864 0.0
O261 O 1.03884 0.28517 0.64945 0.0
O262 O 1.01649 0.28267 0.5631 0.0
O263 O 0.16292 0.35931 0.50693 0.0
C264 C 0.45392 0.53303 0.51973 0.0
C265 C 0.45691 0.59371 0.5356 0.0
C266 C 0.5774 0.58705 0.5321 0.0
C267 C 0.51941 0.65065 0.54894 0.0
C268 C 0.51448 0.52986 0.5185 0.0
C269 C 0.58053 0.64825 0.54724 0.0
C270 C 0.38748 0.47113 0.50974 0.0
C271 C 0.20919 0.27288 0.58825 0.0
H272 H 1.05944 0.18546 0.57549 0.0
H273 H 0.82314 1.02879 0.63886 0.0
H274 H 1.01153 0.06158 0.56833 0.0
H275 H 0.87047 0.15274 0.64479 0.0
H276 H 0.41081 0.597 0.53823 0.0
H277 H 0.62345 0.58367 0.52992 0.0
H278 H 0.51963 0.69676 0.56072 0.0
H279 H 0.51298 0.48291 0.50743 0.0
Eu280 Eu 0.28005 0.88931 0.86328 0.0
Eu281 Eu 0.34832 1.03111 0.82053 0.0
C282 C 0.32706 0.92387 0.73637 0.0
C283 C 0.20237 0.7 0.89139 0.0
C284 C 0.2567 0.69651 0.86783 0.0
C285 C 0.13034 0.57658 0.88179 0.0
C286 C 0.24848 0.63377 0.8524 0.0
C287 C 0.1387 0.63992 0.89724 0.0
C288 C 0.18563 0.57289 0.85992 0.0
C289 C 0.2101 0.76676 0.90494 0.0
O290 O 0.23243 0.97448 0.80059 0.0
O291 O 0.2057 0.9224 0.88162 0.0
C292 C 0.18614 0.94177 0.83881 0.0
O293 O 0.32771 0.99515 0.9059 0.0
O294 O 0.35591 0.10928 0.76339 0.0
O295 O 0.39593 0.1372 0.8457 0.0
O296 O 0.32642 0.99257 0.90785 0.0
C297 C 0.33925 1.02399 0.95455 0.0
O298 O 0.38636 0.90768 0.86074 0.0
O299 O 0.44358 1.02295 0.839 0.0
O300 O 0.37423 0.98189 0.75585 0.0
O301 O 0.2693 0.8134 0.92467 0.0
O302 O 0.18632 0.79128 0.86763 0.0
O303 O 0.27592 0.88122 0.7684 0.0
C304 C 0.32878 0.18295 0.81072 0.0
C305 C 0.32102 0.2017 0.86331 0.0
C306 C 0.24417 0.21196 0.77712 0.0
C307 C 0.27575 0.22502 0.87274 0.0
C308 C 0.28835 0.18633 0.76799 0.0
C309 C 0.23867 0.23291 0.82955 0.0
C310 C 0.3744 0.15457 0.8019 0.0
C311 C 0.44343 0.96593 0.85338 0.0
H312 H 0.30563 0.74234 0.8613 0.0
H313 H 1.0816 0.53065 0.88848 0.0
H314 H 0.2921 0.63296 0.83523 0.0
H315 H 0.09553 0.64206 0.91377 0.0
H316 H 0.3501 0.19875 0.89752 0.0
H317 H 0.21637 0.21746 0.74307 0.0
H318 H 0.27235 0.23997 0.91394 0.0
H319 H 0.29115 0.16943 0.72753 0.0
Eu320 Eu 0.80525 0.80225 0.59153 0.0
Eu321 Eu 0.73377 0.87644 0.54932 0.0
C322 C 0.80669 0.81566 0.45838 0.0
C323 C 0.97518 0.82185 0.61087 0.0
C324 C 1.00115 0.8855 0.58409 0.0
C325 C 1.09058 0.85161 0.63628 0.0
C326 C 1.0715 0.93058 0.58147 0.0
C327 C 1.02015 0.80583 0.63806 0.0
C328 C 0.11675 0.91347 0.60678 0.0
C329 C 0.90121 0.77346 0.61054 0.0
O330 O 0.64592 0.76936 0.55378 0.0
O331 O 0.70293 0.70947 0.56933 0.0
C332 C 0.64649 0.71148 0.55759 0.0
O333 O 0.72828 0.77756 0.65575 0.0
O334 O 0.67165 0.88692 0.48503 0.0
O335 O 0.72438 0.96747 0.54466 0.0
O336 O 0.7254 0.87628 0.64365 0.0
C337 C 0.71716 0.82466 0.6753 0.0
O338 O 0.86195 0.91376 0.61953 0.0
O339 O 0.84315 0.95522 0.54183 0.0
O340 O 0.79485 0.83204 0.5072 0.0
O341 O 0.86691 0.78181 0.64934 0.0
O342 O 0.87138 0.76447 0.5631 0.0
O343 O 0.7936 0.83321 0.50556 0.0
C344 C 0.61745 0.94859 0.51546 0.0
C345 C 0.55571 0.8905 0.53012 0.0
C346 C 0.5645 1.0187 0.52921 0.0
C347 C 0.49888 0.89628 0.54365 0.0
C348 C 0.62152 1.01278 0.51544 0.0
C349 C 0.50236 0.96037 0.54339 0.0
C350 C 0.67939 0.94391 0.50528 0.0
C351 C 0.8789 0.96555 0.58585 0.0
H352 H 0.96712 0.89906 0.56318 0.0
H353 H 0.12488 0.8365 0.65457 0.0
H354 H 1.09072 0.97685 0.55696 0.0
H355 H 1.00101 0.75742 0.65946 0.0
H356 H 0.55148 0.84062 0.53176 0.0
H357 H 0.56888 0.06864 0.52815 0.0
H358 H 0.45208 0.85009 0.5546 0.0
H359 H 0.66917 1.0585 0.5053 0.0
Eu360 Eu 0.26052 0.42118 0.864 0.0
Eu361 Eu 0.11653 0.34708 0.82161 0.0
C362 C 0.22772 0.43315 0.73703 0.0
C363 C 0.44892 0.53811 0.89715 0.0
C364 C 0.50714 0.53143 0.8908 0.0
C365 C 0.51827 0.6591 0.87615 0.0
C366 C 0.57063 0.58826 0.87727 0.0
C367 C 0.45513 0.6025 0.88946 0.0
C368 C 0.57693 0.65288 0.8698 0.0
C369 C 0.38165 0.47684 0.90797 0.0
O370 O 0.17209 0.28762 0.80179 0.0
O371 O 0.22771 0.31316 0.8814 0.0
C372 C 0.20564 0.27394 0.83944 0.0
O373 O 0.15406 0.36223 0.90636 0.0
O374 O 1.03661 0.2861 0.76309 0.0
O375 O 1.01191 0.27986 0.84919 0.0
O376 O 0.1564 0.36338 0.90816 0.0
C377 C 0.12506 0.34462 0.95521 0.0
O378 O 0.24151 0.50831 0.85509 0.0
O379 O 0.12454 0.44959 0.84121 0.0
O380 O 0.16965 0.42299 0.7563 0.0
O381 O 0.33228 0.48562 0.92681 0.0
O382 O 0.36071 0.43037 0.87014 0.0
O383 O 0.27013 0.4247 0.7695 0.0
C384 C 0.96894 0.17697 0.80113 0.0
C385 C 1.00386 0.15088 0.83173 0.0
C386 C 0.88914 0.06228 0.77082 0.0
C387 C 0.97973 0.08074 0.83381 0.0
C388 C 0.91259 0.13254 0.76951 0.0
C389 C 0.92145 1.03578 0.80422 0.0
C390 C 0.99308 0.25065 0.80159 0.0
C391 C 0.1828 0.50688 0.85101 0.0
H392 H 0.50336 0.48197 0.89593 0.0
H393 H 0.52078 0.70791 0.87063 0.0
H394 H 0.61463 0.58166 0.8731 0.0
H395 H 0.4111 0.60917 0.89315 0.0
H396 H 1.0481 0.18448 0.85597 0.0
H397 H 0.8424 1.02816 0.74943 0.0
H398 H 1.00393 0.06121 0.86129 0.0
H399 H 0.88522 0.15183 0.74567 0.0
Eu400 Eu 0.35113 1.03335 0.5906 0.0
Eu401 Eu 0.27448 0.8883 0.55097 0.0
C402 C 0.32902 1.02276 0.45799 0.0
C403 C 0.33424 0.18472 0.60921 0.0
C404 C 0.27005 0.14735 0.5839 0.0
C405 C 0.30548 0.27071 0.63425 0.0
C406 C 0.22502 0.17276 0.58201 0.0
C407 C 0.35116 0.24587 0.63534 0.0
C408 C 0.24277 0.23503 0.60655 0.0
C409 C 0.382 0.15833 0.60884 0.0
O410 O 0.3812 0.90587 0.55296 0.0
O411 O 0.44263 1.02262 0.56623 0.0
C412 C 0.43964 0.96388 0.55494 0.0
O413 O 0.37578 0.97896 0.65418 0.0
O414 O 0.26088 0.81628 0.48665 0.0
O415 O 0.1836 0.78764 0.54993 0.0
O416 O 0.27455 0.88009 0.64559 0.0
C417 C 0.32717 0.9225 0.67597 0.0
O418 O 0.23972 0.97994 0.62037 0.0
O419 O 0.19635 0.91983 0.54393 0.0
O420 O 0.31786 0.99418 0.50728 0.0
O421 O 0.37281 0.1147 0.64794 0.0
O422 O 0.39094 0.13814 0.56147 0.0
O423 O 0.31655 0.99178 0.50561 0.0
C424 C 0.20113 0.69995 0.51869 0.0
C425 C 0.13707 0.64037 0.52496 0.0
C426 C 0.25576 0.63299 0.53847 0.0
C427 C 0.13232 0.57734 0.53767 0.0
C428 C 0.26039 0.69562 0.52587 0.0
C429 C 0.19173 0.5729 0.54461 0.0
C430 C 0.20518 0.7667 0.50923 0.0
C431 C 0.18739 0.94603 0.58755 0.0
H432 H 0.25587 0.09976 0.5637 0.0
H433 H 0.32109 0.3201 0.65183 0.0
H434 H 0.17812 0.14577 0.55876 0.0
H435 H 0.40003 0.27495 0.65559 0.0
H436 H 1.09058 0.64273 0.52045 0.0
H437 H 0.30289 0.63202 0.54364 0.0
H438 H 1.08232 0.53228 0.54174 0.0
H439 H 0.31045 0.74079 0.52241 0.0
Eu440 Eu 0.73685 0.87962 0.86004 0.0
Eu441 Eu 0.80179 0.80124 0.82021 0.0
C442 C 0.71518 0.82427 0.73562 0.0
C443 C 0.62492 0.95581 0.89049 0.0
C444 C 0.62799 1.01953 0.88825 0.0
C445 C 0.50545 0.90111 0.86482 0.0
C446 C 0.56979 1.02397 0.87475 0.0
C447 C 0.56329 0.89681 0.87809 0.0
C448 C 0.50769 0.9646 0.86315 0.0
C449 C 0.68742 0.95197 0.90044 0.0
O450 O 0.86112 0.91288 0.78976 0.0
O451 O 0.84699 0.95575 0.86708 0.0
C452 C 0.8817 0.96474 0.82297 0.0
O453 O 0.79762 0.8343 0.90359 0.0
O454 O 0.86823 0.78779 0.76396 0.0
O455 O 0.85855 0.75181 0.84783 0.0
O456 O 0.79651 0.83578 0.90534 0.0
C457 C 0.81517 0.82307 0.95276 0.0
O458 O 0.64619 0.77407 0.8618 0.0
O459 O 0.69811 0.71055 0.84372 0.0
O460 O 0.72265 0.77547 0.75757 0.0
O461 O 0.6806 0.89651 0.92446 0.0
O462 O 0.7295 0.97187 0.85904 0.0
O463 O 0.72716 0.87767 0.7654 0.0
C464 C 0.97055 0.81516 0.81108 0.0
C465 C 0.99936 0.8191 0.86266 0.0
C466 C 1.08284 0.90303 0.77757 0.0
C467 C 1.06819 0.86446 0.87179 0.0
C468 C 1.0127 0.85876 0.76886 0.0
C469 C 0.11142 0.90563 0.82914 0.0
C470 C 0.89586 0.77045 0.80349 0.0
C471 C 0.64378 0.7149 0.85773 0.0
H472 H 0.67557 0.06591 0.89666 0.0
H473 H 0.45868 0.85417 0.85583 0.0
H474 H 0.57313 0.07345 0.87429 0.0
H475 H 0.55987 0.84727 0.87816 0.0
H476 H 0.96873 0.7873 0.89641 0.0
H477 H 0.11464 0.9339 0.74393 0.0
H478 H 1.08791 0.86517 0.91239 0.0
H479 H 0.99143 0.85872 0.72917 0.0
loop_
_geom_bond_atom_site_label_1
_geom_bond_atom_site_label_2
_geom_bond_distance
_geom_bond_site_symmetry_2
_ccdc_geom_bond_type
Eu0 C9 2.828 . S
Eu0 O11 2.392 . S
Eu0 O13 2.418 1_554 S
Eu0 O18 2.373 . S
Eu0 O21 2.488 . S
Eu0 O22 2.471 . S
Eu0 O23 2.349 . S
Eu1 O10 2.373 . S
Eu1 O14 2.488 1_545 S
Eu1 O15 2.471 1_545 S
Eu1 O16 2.349 . S
Eu1 O19 2.392 . S
Eu1 O20 2.418 . S
Eu1 C30 2.828 1_545 S
C2 O20 1.244 . S
C2 O23 1.265 . S
C3 C4 1.379 . S
C3 C7 1.373 1_554 S
C3 C9 1.505 . S
C4 C3 1.379 . S
C4 C6 1.369 . S
C4 H32 0.930 . S
C5 C7 1.383 . S
C5 C8 1.382 1_556 S
C5 H33 0.930 . S
C6 C4 1.369 . S
C6 C8 1.392 . S
C6 H34 0.930 . S
C7 C3 1.373 1_556 S
C7 C5 1.383 . S
C7 H35 0.931 . S
C8 C5 1.382 1_554 S
C8 C6 1.392 . S
C9 Eu0 2.828 . S
C9 C3 1.505 . S
C9 O21 1.249 . S
C9 O22 1.244 . S
O10 Eu1 2.373 . S
O10 C12 1.258 . S
O11 Eu0 2.392 . S
O11 C12 1.242 . S
C12 O10 1.258 . S
C12 O11 1.242 . S
O13 Eu0 2.418 1_556 S
O13 C17 1.244 . S
O14 Eu1 2.488 1_565 S
O14 C30 1.249 . S
O15 Eu1 2.471 1_565 S
O15 C30 1.244 . S
O16 Eu1 2.349 . S
O16 C17 1.265 1_554 S
C17 O13 1.244 . S
C17 O16 1.265 1_556 S
O18 Eu0 2.373 . S
O18 C31 1.258 . S
O19 Eu1 2.392 . S
O19 C31 1.242 . S
O20 Eu1 2.418 . S
O20 C2 1.244 . S
O21 Eu0 2.488 . S
O21 C9 1.249 . S
O22 Eu0 2.471 . S
O22 C9 1.244 . S
O23 Eu0 2.349 . S
O23 C2 1.265 . S
C24 C25 1.379 . S
C24 C28 1.373 . S
C24 C30 1.505 . S
C25 C24 1.379 . S
C25 C27 1.369 . S
C25 H36 0.930 . S
C26 C28 1.383 . S
C26 C29 1.382 1_455 S
C26 H37 0.926 1_455 S
C27 C25 1.369 . S
C27 C29 1.392 1_455 S
C27 H38 0.930 1_455 S
C28 C24 1.373 . S
C28 C26 1.383 . S
C28 H39 0.931 . S
C29 C26 1.382 1_655 S
C29 C27 1.392 1_655 S
C30 Eu1 2.828 1_565 S
C30 O14 1.249 . S
C30 O15 1.244 . S
C30 C24 1.505 . S
C31 O18 1.258 . S
C31 O19 1.242 . S
H32 C4 0.930 . S
H33 C5 0.930 . S
H34 C6 0.930 . S
H35 C7 0.931 . S
H36 C25 0.930 . S
H37 C26 0.926 1_655 S
H38 C27 0.930 1_655 S
H39 C28 0.931 . S
Eu40 C49 2.828 . S
Eu40 O51 2.392 . S
Eu40 O53 2.418 . S
Eu40 O58 2.373 . S
Eu40 O61 2.488 . S
Eu40 O62 2.471 . S
Eu40 O63 2.349 . S
Eu41 O50 2.373 . S
Eu41 O54 2.488 . S
Eu41 O55 2.471 . S
Eu41 O56 2.349 . S
Eu41 O59 2.392 . S
Eu41 O60 2.418 . S
Eu41 C70 2.828 . S
C42 O60 1.244 . S
C42 O63 1.265 . S
C43 C44 1.379 . S
C43 C47 1.373 . S
C43 C49 1.505 . S
C44 C43 1.379 . S
C44 C46 1.369 . S
C44 H72 0.930 . S
C45 C47 1.383 . S
C45 C48 1.382 1_565 S
C45 H73 0.919 1_565 S
C46 C44 1.369 . S
C46 C48 1.392 1_565 S
C46 H74 0.930 1_565 S
C47 C43 1.373 . S
C47 C45 1.383 . S
C47 H75 0.931 . S
C48 C45 1.382 1_545 S
C48 C46 1.392 1_545 S
C49 Eu40 2.828 . S
C49 C43 1.505 . S
C49 O61 1.249 . S
C49 O62 1.244 . S
O50 Eu41 2.373 . S
O50 C52 1.258 . S
O51 Eu40 2.392 . S
O51 C52 1.242 . S
C52 O50 1.258 . S
C52 O51 1.242 . S
O53 Eu40 2.418 . S
O53 C57 1.244 . S
O54 Eu41 2.488 . S
O54 C70 1.249 . S
O55 Eu41 2.471 . S
O55 C70 1.244 . S
O56 Eu41 2.349 . S
O56 C57 1.265 . S
C57 O53 1.244 . S
C57 O56 1.265 . S
O58 Eu40 2.373 . S
O58 C71 1.258 . S
O59 Eu41 2.392 . S
O59 C71 1.242 . S
O60 Eu41 2.418 . S
O60 C42 1.244 . S
O61 Eu40 2.488 . S
O61 C49 1.249 . S
O62 Eu40 2.471 . S
O62 C49 1.244 . S
O63 Eu40 2.349 . S
O63 C42 1.265 . S
C64 C65 1.379 . S
C64 C68 1.373 . S
C64 C70 1.505 . S
C65 C64 1.379 . S
C65 C67 1.369 . S
C65 H76 0.930 . S
C66 C68 1.383 . S
C66 C69 1.382 . S
C66 H77 0.930 . S
C67 C65 1.369 . S
C67 C69 1.392 . S
C67 H78 0.930 . S
C68 C64 1.373 . S
C68 C66 1.383 . S
C68 H79 0.931 . S
C69 C66 1.382 . S
C69 C67 1.392 . S
C70 Eu41 2.828 . S
C70 O54 1.249 . S
C70 O55 1.244 . S
C70 C64 1.505 . S
C71 O58 1.258 . S
C71 O59 1.242 . S
H72 C44 0.930 . S
H73 C45 0.919 1_545 S
H74 C46 0.930 1_545 S
H75 C47 0.931 . S
H76 C65 0.930 . S
H77 C66 0.930 . S
H78 C67 0.930 . S
H79 C68 0.931 . S
Eu80 C89 2.828 . S
Eu80 O91 2.392 . S
Eu80 O93 2.418 1_554 S
Eu80 O98 2.373 . S
Eu80 O101 2.488 . S
Eu80 O102 2.471 . S
Eu80 O103 2.349 . S
Eu81 O90 2.373 . S
Eu81 O94 2.488 1_655 S
Eu81 O95 2.471 1_655 S
Eu81 O96 2.349 . S
Eu81 O99 2.392 . S
Eu81 O100 2.418 . S
Eu81 C110 2.828 1_655 S
C82 O100 1.244 . S
C82 O103 1.265 . S
C83 C84 1.379 . S
C83 C87 1.373 1_554 S
C83 C89 1.505 . S
C84 C83 1.379 . S
C84 C86 1.369 . S
C84 H112 0.930 . S
C85 C87 1.383 . S
C85 C88 1.382 1_556 S
C85 H113 0.930 . S
C86 C84 1.369 . S
C86 C88 1.392 . S
C86 H114 0.930 . S
C87 C83 1.373 1_556 S
C87 C85 1.383 . S
C87 H115 0.931 . S
C88 C85 1.382 1_554 S
C88 C86 1.392 . S
C89 Eu80 2.828 . S
C89 C83 1.505 . S
C89 O101 1.249 . S
C89 O102 1.244 . S
O90 Eu81 2.373 . S
O90 C92 1.258 . S
O91 Eu80 2.392 . S
O91 C92 1.242 . S
C92 O90 1.258 . S
C92 O91 1.242 . S
O93 Eu80 2.418 1_556 S
O93 C97 1.244 . S
O94 Eu81 2.488 1_455 S
O94 C110 1.249 . S
O95 Eu81 2.471 1_455 S
O95 C110 1.244 . S
O96 Eu81 2.349 . S
O96 C97 1.265 1_554 S
C97 O93 1.244 . S
C97 O96 1.265 1_556 S
O98 Eu80 2.373 . S
O98 C111 1.258 . S
O99 Eu81 2.392 . S
O99 C111 1.242 . S
O100 Eu81 2.418 . S
O100 C82 1.244 . S
O101 Eu80 2.488 . S
O101 C89 1.249 . S
O102 Eu80 2.471 . S
O102 C89 1.244 . S
O103 Eu80 2.349 . S
O103 C82 1.265 . S
C104 C105 1.379 . S
C104 C108 1.373 . S
C104 C110 1.505 . S
C105 C104 1.379 . S
C105 C107 1.369 . S
C105 H116 0.930 . S
C106 C108 1.383 . S
C106 C109 1.382 . S
C106 H117 0.930 . S
C107 C105 1.369 . S
C107 C109 1.392 . S
C107 H118 0.930 . S
C108 C104 1.373 . S
C108 C106 1.383 . S
C108 H119 0.931 . S
C109 C106 1.382 . S
C109 C107 1.392 . S
C110 Eu81 2.828 1_455 S
C110 O94 1.249 . S
C110 O95 1.244 . S
C110 C104 1.505 . S
C111 O98 1.258 . S
C111 O99 1.242 . S
H112 C84 0.930 . S
H113 C85 0.930 . S
H114 C86 0.930 . S
H115 C87 0.931 . S
H116 C105 0.930 . S
H117 C106 0.930 . S
H118 C107 0.930 . S
H119 C108 0.931 . S
Eu120 C129 2.828 1_545 S
Eu120 O131 2.392 . S
Eu120 O133 2.418 . S
Eu120 O138 2.373 . S
Eu120 O141 2.488 1_545 S
Eu120 O142 2.471 1_545 S
Eu120 O143 2.349 . S
Eu121 O130 2.373 . S
Eu121 O134 2.488 . S
Eu121 O135 2.471 . S
Eu121 O136 2.349 . S
Eu121 O139 2.392 . S
Eu121 O140 2.418 . S
Eu121 C150 2.828 . S
C122 O140 1.244 . S
C122 O143 1.265 . S
C123 C124 1.379 . S
C123 C127 1.373 . S
C123 C129 1.505 . S
C124 C123 1.379 . S
C124 C126 1.369 . S
C124 H152 0.930 . S
C125 C127 1.383 . S
C125 C128 1.382 1_455 S
C125 H153 0.926 1_455 S
C126 C124 1.369 . S
C126 C128 1.392 1_455 S
C126 H154 0.930 1_455 S
C127 C123 1.373 . S
C127 C125 1.383 . S
C127 H155 0.931 . S
C128 C125 1.382 1_655 S
C128 C126 1.392 1_655 S
C129 Eu120 2.828 1_565 S
C129 C123 1.505 . S
C129 O141 1.249 . S
C129 O142 1.244 . S
O130 Eu121 2.373 . S
O130 C132 1.258 . S
O131 Eu120 2.392 . S
O131 C132 1.242 . S
C132 O130 1.258 . S
C132 O131 1.242 . S
O133 Eu120 2.418 . S
O133 C137 1.244 . S
O134 Eu121 2.488 . S
O134 C150 1.249 . S
O135 Eu121 2.471 . S
O135 C150 1.244 . S
O136 Eu121 2.349 . S
O136 C137 1.265 . S
C137 O133 1.244 . S
C137 O136 1.265 . S
O138 Eu120 2.373 . S
O138 C151 1.258 . S
O139 Eu121 2.392 . S
O139 C151 1.242 . S
O140 Eu121 2.418 . S
O140 C122 1.244 . S
O141 Eu120 2.488 1_565 S
O141 C129 1.249 . S
O142 Eu120 2.471 1_565 S
O142 C129 1.244 . S
O143 Eu120 2.349 . S
O143 C122 1.265 . S
C144 C145 1.379 . S
C144 C148 1.373 . S
C144 C150 1.505 . S
C145 C144 1.379 . S
C145 C147 1.369 . S
C145 H156 0.930 . S
C146 C148 1.383 . S
C146 C149 1.382 . S
C146 H157 0.930 . S
C147 C145 1.369 . S
C147 C149 1.392 . S
C147 H158 0.930 . S
C148 C144 1.373 . S
C148 C146 1.383 . S
C148 H159 0.931 . S
C149 C146 1.382 . S
C149 C147 1.392 . S
C150 Eu121 2.828 . S
C150 O134 1.249 . S
C150 O135 1.244 . S
C150 C144 1.505 . S
C151 O138 1.258 . S
C151 O139 1.242 . S
H152 C124 0.930 . S
H153 C125 0.926 1_655 S
H154 C126 0.930 1_655 S
H155 C127 0.931 . S
H156 C145 0.930 . S
H157 C146 0.930 . S
H158 C147 0.930 . S
H159 C148 0.931 . S
Eu160 C169 2.828 . S
Eu160 O171 2.392 . S
Eu160 O173 2.418 1_554 S
Eu160 O178 2.373 . S
Eu160 O181 2.488 . S
Eu160 O182 2.471 . S
Eu160 O183 2.349 . S
Eu161 O170 2.373 . S
Eu161 O174 2.488 . S
Eu161 O175 2.471 . S
Eu161 O176 2.349 . S
Eu161 O179 2.392 . S
Eu161 O180 2.418 . S
Eu161 C190 2.828 . S
C162 O180 1.244 . S
C162 O183 1.265 . S
C163 C164 1.379 . S
C163 C167 1.373 1_554 S
C163 C169 1.505 . S
C164 C163 1.379 . S
C164 C166 1.369 . S
C164 H192 0.930 . S
C165 C167 1.383 . S
C165 C168 1.382 1_556 S
C165 H193 0.930 . S
C166 C164 1.369 . S
C166 C168 1.392 . S
C166 H194 0.930 . S
C167 C163 1.373 1_556 S
C167 C165 1.383 . S
C167 H195 0.931 . S
C168 C165 1.382 1_554 S
C168 C166 1.392 . S
C169 Eu160 2.828 . S
C169 C163 1.505 . S
C169 O181 1.249 . S
C169 O182 1.244 . S
O170 Eu161 2.373 . S
O170 C172 1.258 . S
O171 Eu160 2.392 . S
O171 C172 1.242 . S
C172 O170 1.258 . S
C172 O171 1.242 . S
O173 Eu160 2.418 1_556 S
O173 C177 1.244 . S
O174 Eu161 2.488 . S
O174 C190 1.249 . S
O175 Eu161 2.471 . S
O175 C190 1.244 . S
O176 Eu161 2.349 . S
O176 C177 1.265 1_554 S
C177 O173 1.244 . S
C177 O176 1.265 1_556 S
O178 Eu160 2.373 . S
O178 C191 1.258 . S
O179 Eu161 2.392 . S
O179 C191 1.242 . S
O180 Eu161 2.418 . S
O180 C162 1.244 . S
O181 Eu160 2.488 . S
O181 C169 1.249 . S
O182 Eu160 2.471 . S
O182 C169 1.244 . S
O183 Eu160 2.349 . S
O183 C162 1.265 . S
C184 C185 1.379 . S
C184 C188 1.373 . S
C184 C190 1.505 . S
C185 C184 1.379 . S
C185 C187 1.369 . S
C185 H196 0.930 . S
C186 C188 1.383 . S
C186 C189 1.382 1_565 S
C186 H197 0.919 1_565 S
C187 C185 1.369 . S
C187 C189 1.392 1_565 S
C187 H198 0.930 1_565 S
C188 C184 1.373 . S
C188 C186 1.383 . S
C188 H199 0.931 . S
C189 C186 1.382 1_545 S
C189 C187 1.392 1_545 S
C190 Eu161 2.828 . S
C190 O174 1.249 . S
C190 O175 1.244 . S
C190 C184 1.505 . S
C191 O178 1.258 . S
C191 O179 1.242 . S
H192 C164 0.930 . S
H193 C165 0.930 . S
H194 C166 0.930 . S
H195 C167 0.931 . S
H196 C185 0.930 . S
H197 C186 0.919 1_545 S
H198 C187 0.930 1_545 S
H199 C188 0.931 . S
Eu200 C209 2.828 1_655 S
Eu200 O211 2.392 . S
Eu200 O213 2.418 . S
Eu200 O218 2.373 . S
Eu200 O221 2.488 1_655 S
Eu200 O222 2.471 1_655 S
Eu200 O223 2.349 . S
Eu201 O210 2.373 . S
Eu201 O214 2.488 . S
Eu201 O215 2.471 . S
Eu201 O216 2.349 . S
Eu201 O219 2.392 . S
Eu201 O220 2.418 . S
Eu201 C230 2.828 . S
C202 O220 1.244 . S
C202 O223 1.265 . S
C203 C204 1.379 . S
C203 C207 1.373 . S
C203 C209 1.505 . S
C204 C203 1.379 . S
C204 C206 1.369 . S
C204 H232 0.930 . S
C205 C207 1.383 . S
C205 C208 1.382 . S
C205 H233 0.930 . S
C206 C204 1.369 . S
C206 C208 1.392 . S
C206 H234 0.930 . S
C207 C203 1.373 . S
C207 C205 1.383 . S
C207 H235 0.931 . S
C208 C205 1.382 . S
C208 C206 1.392 . S
C209 Eu200 2.828 1_455 S
C209 C203 1.505 . S
C209 O221 1.249 . S
C209 O222 1.244 . S
O210 Eu201 2.373 . S
O210 C212 1.258 . S
O211 Eu200 2.392 . S
O211 C212 1.242 . S
C212 O210 1.258 . S
C212 O211 1.242 . S
O213 Eu200 2.418 . S
O213 C217 1.244 . S
O214 Eu201 2.488 . S
O214 C230 1.249 . S
O215 Eu201 2.471 . S
O215 C230 1.244 . S
O216 Eu201 2.349 . S
O216 C217 1.265 . S
C217 O213 1.244 . S
C217 O216 1.265 . S
O218 Eu200 2.373 . S
O218 C231 1.258 . S
O219 Eu201 2.392 . S
O219 C231 1.242 . S
O220 Eu201 2.418 . S
O220 C202 1.244 . S
O221 Eu200 2.488 1_455 S
O221 C209 1.249 . S
O222 Eu200 2.471 1_455 S
O222 C209 1.244 . S
O223 Eu200 2.349 . S
O223 C202 1.265 . S
C224 C225 1.379 . S
C224 C228 1.373 . S
C224 C230 1.505 . S
C225 C224 1.379 . S
C225 C227 1.369 . S
C225 H236 0.930 . S
C226 C228 1.383 . S
C226 C229 1.382 . S
C226 H237 0.930 . S
C227 C225 1.369 . S
C227 C229 1.392 . S
C227 H238 0.930 . S
C228 C224 1.373 . S
C228 C226 1.383 . S
C228 H239 0.931 . S
C229 C226 1.382 . S
C229 C227 1.392 . S
C230 Eu201 2.828 . S
C230 O214 1.249 . S
C230 O215 1.244 . S
C230 C224 1.505 . S
C231 O218 1.258 . S
C231 O219 1.242 . S
H232 C204 0.930 . S
H233 C205 0.930 . S
H234 C206 0.930 . S
H235 C207 0.931 . S
H236 C225 0.930 . S
H237 C226 0.930 . S
H238 C227 0.930 . S
H239 C228 0.931 . S
Eu240 C249 2.828 1_455 S
Eu240 O251 2.392 . S
Eu240 O253 2.418 . S
Eu240 O258 2.373 . S
Eu240 O261 2.488 1_455 S
Eu240 O262 2.471 1_455 S
Eu240 O263 2.349 . S
Eu241 O250 2.373 . S
Eu241 O254 2.488 . S
Eu241 O255 2.471 . S
Eu241 O256 2.349 . S
Eu241 O259 2.392 . S
Eu241 O260 2.418 . S
Eu241 C270 2.828 . S
C242 O260 1.244 . S
C242 O263 1.265 . S
C243 C244 1.379 . S
C243 C247 1.373 . S
C243 C249 1.505 . S
C244 C243 1.379 . S
C244 C246 1.369 . S
C244 H272 0.930 . S
C245 C247 1.383 . S
C245 C248 1.382 1_545 S
C245 H273 0.926 1_545 S
C246 C244 1.369 . S
C246 C248 1.392 1_545 S
C246 H274 0.930 1_545 S
C247 C243 1.373 . S
C247 C245 1.383 . S
C247 H275 0.931 . S
C248 C245 1.382 1_565 S
C248 C246 1.392 1_565 S
C249 Eu240 2.828 1_655 S
C249 C243 1.505 . S
C249 O261 1.249 . S
C249 O262 1.244 . S
O250 Eu241 2.373 . S
O250 C252 1.258 . S
O251 Eu240 2.392 . S
O251 C252 1.242 . S
C252 O250 1.258 . S
C252 O251 1.242 . S
O253 Eu240 2.418 . S
O253 C257 1.244 . S
O254 Eu241 2.488 . S
O254 C270 1.249 . S
O255 Eu241 2.471 . S
O255 C270 1.244 . S
O256 Eu241 2.349 . S
O256 C257 1.265 . S
C257 O253 1.244 . S
C257 O256 1.265 . S
O258 Eu240 2.373 . S
O258 C271 1.258 . S
O259 Eu241 2.392 . S
O259 C271 1.242 . S
O260 Eu241 2.418 . S
O260 C242 1.244 . S
O261 Eu240 2.488 1_655 S
O261 C249 1.249 . S
O262 Eu240 2.471 1_655 S
O262 C249 1.244 . S
O263 Eu240 2.349 . S
O263 C242 1.265 . S
C264 C265 1.379 . S
C264 C268 1.373 . S
C264 C270 1.505 . S
C265 C264 1.379 . S
C265 C267 1.369 . S
C265 H276 0.930 . S
C266 C268 1.383 . S
C266 C269 1.382 . S
C266 H277 0.930 . S
C267 C265 1.369 . S
C267 C269 1.392 . S
C267 H278 0.930 . S
C268 C264 1.373 . S
C268 C266 1.383 . S
C268 H279 0.931 . S
C269 C266 1.382 . S
C269 C267 1.392 . S
C270 Eu241 2.828 . S
C270 O254 1.249 . S
C270 O255 1.244 . S
C270 C264 1.505 . S
C271 O258 1.258 . S
C271 O259 1.242 . S
H272 C244 0.930 . S
H273 C245 0.926 1_565 S
H274 C246 0.930 1_565 S
H275 C247 0.931 . S
H276 C265 0.930 . S
H277 C266 0.930 . S
H278 C267 0.930 . S
H279 C268 0.931 . S
Eu280 C289 2.828 . S
Eu280 O291 2.392 . S
Eu280 O293 2.418 1_556 S
Eu280 O298 2.373 . S
Eu280 O301 2.488 . S
Eu280 O302 2.471 . S
Eu280 O303 2.349 . S
Eu281 O290 2.373 . S
Eu281 O294 2.488 1_565 S
Eu281 O295 2.471 1_565 S
Eu281 O296 2.349 . S
Eu281 O299 2.392 . S
Eu281 O300 2.418 . S
Eu281 C310 2.828 1_565 S
C282 O300 1.244 . S
C282 O303 1.265 . S
C283 C284 1.379 . S
C283 C287 1.373 1_556 S
C283 C289 1.505 . S
C284 C283 1.379 . S
C284 C286 1.369 . S
C284 H312 0.930 . S
C285 C287 1.383 . S
C285 C288 1.382 1_554 S
C285 H313 0.930 . S
C286 C284 1.369 . S
C286 C288 1.392 . S
C286 H314 0.930 . S
C287 C283 1.373 1_554 S
C287 C285 1.383 . S
C287 H315 0.931 . S
C288 C285 1.382 1_556 S
C288 C286 1.392 . S
C289 Eu280 2.828 . S
C289 C283 1.505 . S
C289 O301 1.249 . S
C289 O302 1.244 . S
O290 Eu281 2.373 . S
O290 C292 1.258 . S
O291 Eu280 2.392 . S
O291 C292 1.242 . S
C292 O290 1.258 . S
C292 O291 1.242 . S
O293 Eu280 2.418 1_554 S
O293 C297 1.244 . S
O294 Eu281 2.488 1_545 S
O294 C310 1.249 . S
O295 Eu281 2.471 1_545 S
O295 C310 1.244 . S
O296 Eu281 2.349 . S
O296 C297 1.265 1_556 S
C297 O293 1.244 . S
C297 O296 1.265 1_554 S
O298 Eu280 2.373 . S
O298 C311 1.258 . S
O299 Eu281 2.392 . S
O299 C311 1.242 . S
O300 Eu281 2.418 . S
O300 C282 1.244 . S
O301 Eu280 2.488 . S
O301 C289 1.249 . S
O302 Eu280 2.471 . S
O302 C289 1.244 . S
O303 Eu280 2.349 . S
O303 C282 1.265 . S
C304 C305 1.379 . S
C304 C308 1.373 . S
C304 C310 1.505 . S
C305 C304 1.379 . S
C305 C307 1.369 . S
C305 H316 0.930 . S
C306 C308 1.383 . S
C306 C309 1.382 . S
C306 H317 0.930 . S
C307 C305 1.369 . S
C307 C309 1.392 . S
C307 H318 0.930 . S
C308 C304 1.373 . S
C308 C306 1.383 . S
C308 H319 0.931 . S
C309 C306 1.382 . S
C309 C307 1.392 . S
C310 Eu281 2.828 1_545 S
C310 O294 1.249 . S
C310 O295 1.244 . S
C310 C304 1.505 . S
C311 O298 1.258 . S
C311 O299 1.242 . S
H312 C284 0.930 . S
H313 C285 0.930 . S
H314 C286 0.930 . S
H315 C287 0.931 . S
H316 C305 0.930 . S
H317 C306 0.930 . S
H318 C307 0.930 . S
H319 C308 0.931 . S
Eu320 C329 2.828 . S
Eu320 O331 2.392 . S
Eu320 O333 2.418 . S
Eu320 O338 2.373 . S
Eu320 O341 2.488 . S
Eu320 O342 2.471 . S
Eu320 O343 2.349 . S
Eu321 O330 2.373 . S
Eu321 O334 2.488 . S
Eu321 O335 2.471 . S
Eu321 O336 2.349 . S
Eu321 O339 2.392 . S
Eu321 O340 2.418 . S
Eu321 C350 2.828 . S
C322 O340 1.244 . S
C322 O343 1.265 . S
C323 C324 1.379 . S
C323 C327 1.373 . S
C323 C329 1.505 . S
C324 C323 1.379 . S
C324 C326 1.369 . S
C324 H352 0.930 . S
C325 C327 1.383 . S
C325 C328 1.382 1_655 S
C325 H353 0.919 1_655 S
C326 C324 1.369 . S
C326 C328 1.392 1_655 S
C326 H354 0.930 1_655 S
C327 C323 1.373 . S
C327 C325 1.383 . S
C327 H355 0.931 . S
C328 C325 1.382 1_455 S
C328 C326 1.392 1_455 S
C329 Eu320 2.828 . S
C329 C323 1.505 . S
C329 O341 1.249 . S
C329 O342 1.244 . S
O330 Eu321 2.373 . S
O330 C332 1.258 . S
O331 Eu320 2.392 . S
O331 C332 1.242 . S
C332 O330 1.258 . S
C332 O331 1.242 . S
O333 Eu320 2.418 . S
O333 C337 1.244 . S
O334 Eu321 2.488 . S
O334 C350 1.249 . S
O335 Eu321 2.471 . S
O335 C350 1.244 . S
O336 Eu321 2.349 . S
O336 C337 1.265 . S
C337 O333 1.244 . S
C337 O336 1.265 . S
O338 Eu320 2.373 . S
O338 C351 1.258 . S
O339 Eu321 2.392 . S
O339 C351 1.242 . S
O340 Eu321 2.418 . S
O340 C322 1.244 . S
O341 Eu320 2.488 . S
O341 C329 1.249 . S
O342 Eu320 2.471 . S
O342 C329 1.244 . S
O343 Eu320 2.349 . S
O343 C322 1.265 . S
C344 C345 1.379 . S
C344 C348 1.373 . S
C344 C350 1.505 . S
C345 C344 1.379 . S
C345 C347 1.369 . S
C345 H356 0.930 . S
C346 C348 1.383 . S
C346 C349 1.382 . S
C346 H357 0.930 . S
C347 C345 1.369 . S
C347 C349 1.392 . S
C347 H358 0.930 . S
C348 C344 1.373 . S
C348 C346 1.383 . S
C348 H359 0.931 . S
C349 C346 1.382 . S
C349 C347 1.392 . S
C350 Eu321 2.828 . S
C350 O334 1.249 . S
C350 O335 1.244 . S
C350 C344 1.505 . S
C351 O338 1.258 . S
C351 O339 1.242 . S
H352 C324 0.930 . S
H353 C325 0.919 1_455 S
H354 C326 0.930 1_455 S
H355 C327 0.931 . S
H356 C345 0.930 . S
H357 C346 0.930 . S
H358 C347 0.930 . S
H359 C348 0.931 . S
Eu360 C369 2.828 . S
Eu360 O371 2.392 . S
Eu360 O373 2.418 1_556 S
Eu360 O378 2.373 . S
Eu360 O381 2.488 . S
Eu360 O382 2.471 . S
Eu360 O383 2.349 . S
Eu361 O370 2.373 . S
Eu361 O374 2.488 1_455 S
Eu361 O375 2.471 1_455 S
Eu361 O376 2.349 . S
Eu361 O379 2.392 . S
Eu361 O380 2.418 . S
Eu361 C390 2.828 1_455 S
C362 O380 1.244 . S
C362 O383 1.265 . S
C363 C364 1.379 . S
C363 C367 1.373 1_556 S
C363 C369 1.505 . S
C364 C363 1.379 . S
C364 C366 1.369 . S
C364 H392 0.930 . S
C365 C367 1.383 . S
C365 C368 1.382 1_554 S
C365 H393 0.930 . S
C366 C364 1.369 . S
C366 C368 1.392 . S
C366 H394 0.930 . S
C367 C363 1.373 1_554 S
C367 C365 1.383 . S
C367 H395 0.931 . S
C368 C365 1.382 1_556 S
C368 C366 1.392 . S
C369 Eu360 2.828 . S
C369 C363 1.505 . S
C369 O381 1.249 . S
C369 O382 1.244 . S
O370 Eu361 2.373 . S
O370 C372 1.258 . S
O371 Eu360 2.392 . S
O371 C372 1.242 . S
C372 O370 1.258 . S
C372 O371 1.242 . S
O373 Eu360 2.418 1_554 S
O373 C377 1.244 . S
O374 Eu361 2.488 1_655 S
O374 C390 1.249 . S
O375 Eu361 2.471 1_655 S
O375 C390 1.244 . S
O376 Eu361 2.349 . S
O376 C377 1.265 1_556 S
C377 O373 1.244 . S
C377 O376 1.265 1_554 S
O378 Eu360 2.373 . S
O378 C391 1.258 . S
O379 Eu361 2.392 . S
O379 C391 1.242 . S
O380 Eu361 2.418 . S
O380 C362 1.244 . S
O381 Eu360 2.488 . S
O381 C369 1.249 . S
O382 Eu360 2.471 . S
O382 C369 1.244 . S
O383 Eu360 2.349 . S
O383 C362 1.265 . S
C384 C385 1.379 . S
C384 C388 1.373 . S
C384 C390 1.505 . S
C385 C384 1.379 . S
C385 C387 1.369 . S
C385 H396 0.930 . S
C386 C388 1.383 . S
C386 C389 1.382 1_545 S
C386 H397 0.926 1_545 S
C387 C385 1.369 . S
C387 C389 1.392 1_545 S
C387 H398 0.930 1_545 S
C388 C384 1.373 . S
C388 C386 1.383 . S
C388 H399 0.931 . S
C389 C386 1.382 1_565 S
C389 C387 1.392 1_565 S
C390 Eu361 2.828 1_655 S
C390 O374 1.249 . S
C390 O375 1.244 . S
C390 C384 1.505 . S
C391 O378 1.258 . S
C391 O379 1.242 . S
H392 C364 0.930 . S
H393 C365 0.930 . S
H394 C366 0.930 . S
H395 C367 0.931 . S
H396 C385 0.930 . S
H397 C386 0.926 1_565 S
H398 C387 0.930 1_565 S
H399 C388 0.931 . S
Eu400 C409 2.828 1_565 S
Eu400 O411 2.392 . S
Eu400 O413 2.418 . S
Eu400 O418 2.373 . S
Eu400 O421 2.488 1_565 S
Eu400 O422 2.471 1_565 S
Eu400 O423 2.349 . S
Eu401 O410 2.373 . S
Eu401 O414 2.488 . S
Eu401 O415 2.471 . S
Eu401 O416 2.349 . S
Eu401 O419 2.392 . S
Eu401 O420 2.418 . S
Eu401 C430 2.828 . S
C402 O420 1.244 . S
C402 O423 1.265 . S
C403 C404 1.379 . S
C403 C407 1.373 . S
C403 C409 1.505 . S
C404 C403 1.379 . S
C404 C406 1.369 . S
C404 H432 0.930 . S
C405 C407 1.383 . S
C405 C408 1.382 . S
C405 H433 0.930 . S
C406 C404 1.369 . S
C406 C408 1.392 . S
C406 H434 0.930 . S
C407 C403 1.373 . S
C407 C405 1.383 . S
C407 H435 0.931 . S
C408 C405 1.382 . S
C408 C406 1.392 . S
C409 Eu400 2.828 1_545 S
C409 C403 1.505 . S
C409 O421 1.249 . S
C409 O422 1.244 . S
O410 Eu401 2.373 . S
O410 C412 1.258 . S
O411 Eu400 2.392 . S
O411 C412 1.242 . S
C412 O410 1.258 . S
C412 O411 1.242 . S
O413 Eu400 2.418 . S
O413 C417 1.244 . S
O414 Eu401 2.488 . S
O414 C430 1.249 . S
O415 Eu401 2.471 . S
O415 C430 1.244 . S
O416 Eu401 2.349 . S
O416 C417 1.265 . S
C417 O413 1.244 . S
C417 O416 1.265 . S
O418 Eu400 2.373 . S
O418 C431 1.258 . S
O419 Eu401 2.392 . S
O419 C431 1.242 . S
O420 Eu401 2.418 . S
O420 C402 1.244 . S
O421 Eu400 2.488 1_545 S
O421 C409 1.249 . S
O422 Eu400 2.471 1_545 S
O422 C409 1.244 . S
O423 Eu400 2.349 . S
O423 C402 1.265 . S
C424 C425 1.379 . S
C424 C428 1.373 . S
C424 C430 1.505 . S
C425 C424 1.379 . S
C425 C427 1.369 . S
C425 H436 0.930 . S
C426 C428 1.383 . S
C426 C429 1.382 . S
C426 H437 0.930 . S
C427 C425 1.369 . S
C427 C429 1.392 . S
C427 H438 0.930 . S
C428 C424 1.373 . S
C428 C426 1.383 . S
C428 H439 0.931 . S
C429 C426 1.382 . S
C429 C427 1.392 . S
C430 Eu401 2.828 . S
C430 O414 1.249 . S
C430 O415 1.244 . S
C430 C424 1.505 . S
C431 O418 1.258 . S
C431 O419 1.242 . S
H432 C404 0.930 . S
H433 C405 0.930 . S
H434 C406 0.930 . S
H435 C407 0.931 . S
H436 C425 0.930 . S
H437 C426 0.930 . S
H438 C427 0.930 . S
H439 C428 0.931 . S
Eu440 C449 2.828 . S
Eu440 O451 2.392 . S
Eu440 O453 2.418 1_556 S
Eu440 O458 2.373 . S
Eu440 O461 2.488 . S
Eu440 O462 2.471 . S
Eu440 O463 2.349 . S
Eu441 O450 2.373 . S
Eu441 O454 2.488 . S
Eu441 O455 2.471 . S
Eu441 O456 2.349 . S
Eu441 O459 2.392 . S
Eu441 O460 2.418 . S
Eu441 C470 2.828 . S
C442 O460 1.244 . S
C442 O463 1.265 . S
C443 C444 1.379 . S
C443 C447 1.373 1_556 S
C443 C449 1.505 . S
C444 C443 1.379 . S
C444 C446 1.369 . S
C444 H472 0.930 . S
C445 C447 1.383 . S
C445 C448 1.382 1_554 S
C445 H473 0.930 . S
C446 C444 1.369 . S
C446 C448 1.392 . S
C446 H474 0.930 . S
C447 C443 1.373 1_554 S
C447 C445 1.383 . S
C447 H475 0.931 . S
C448 C445 1.382 1_556 S
C448 C446 1.392 . S
C449 Eu440 2.828 . S
C449 C443 1.505 . S
C449 O461 1.249 . S
C449 O462 1.244 . S
O450 Eu441 2.373 . S
O450 C452 1.258 . S
O451 Eu440 2.392 . S
O451 C452 1.242 . S
C452 O450 1.258 . S
C452 O451 1.242 . S
O453 Eu440 2.418 1_554 S
O453 C457 1.244 . S
O454 Eu441 2.488 . S
O454 C470 1.249 . S
O455 Eu441 2.471 . S
O455 C470 1.244 . S
O456 Eu441 2.349 . S
O456 C457 1.265 1_556 S
C457 O453 1.244 . S
C457 O456 1.265 1_554 S
O458 Eu440 2.373 . S
O458 C471 1.258 . S
O459 Eu441 2.392 . S
O459 C471 1.242 . S
O460 Eu441 2.418 . S
O460 C442 1.244 . S
O461 Eu440 2.488 . S
O461 C449 1.249 . S
O462 Eu440 2.471 . S
O462 C449 1.244 . S
O463 Eu440 2.349 . S
O463 C442 1.265 . S
C464 C465 1.379 . S
C464 C468 1.373 . S
C464 C470 1.505 . S
C465 C464 1.379 . S
C465 C467 1.369 . S
C465 H476 0.930 . S
C466 C468 1.383 . S
C466 C469 1.382 1_655 S
C466 H477 0.919 1_655 S
C467 C465 1.369 . S
C467 C469 1.392 1_655 S
C467 H478 0.930 1_655 S
C468 C464 1.373 . S
C468 C466 1.383 . S
C468 H479 0.931 . S
C469 C466 1.382 1_455 S
C469 C467 1.392 1_455 S
C470 Eu441 2.828 . S
C470 O454 1.249 . S
C470 O455 1.244 . S
C470 C464 1.505 . S
C471 O458 1.258 . S
C471 O459 1.242 . S
H472 C444 0.930 . S
H473 C445 0.930 . S
H474 C446 0.930 . S
H475 C447 0.931 . S
H476 C465 0.930 . S
H477 C466 0.919 1_455 S
H478 C467 0.930 1_455 S
H479 C468 0.931 . S
C109 C12 1.850 . S
C128 C71 1.850 . S
C92 C189 1.850 . S
C151 C208 1.850 . S
C29 C172 1.850 . S
C48 C231 1.850 . S
C408 C271 1.850 . S
C292 C469 1.850 . S
C351 C248 1.850 . S
C372 C309 1.850 . S
C431 C328 1.850 . S
C389 C452 1.850 . S
C137 C2 1.780 . S
C57 C162 1.780 . S
C82 C217 1.780 . S
C257 C362 1.780 . S
C282 C417 1.780 . S
C337 C442 1.780 . S
C297 C17 4.826 1_564 S
C42 C322 4.825 . S
C377 C97 4.826 1_454 S
C122 C402 4.826 1_545 S
C177 C457 4.825 1_556 S
C242 C202 4.826 1_455 S
C88 C31 2.552 . S
C52 C149 2.552 . S
C111 C168 2.552 . S
C132 C229 2.552 . S
C8 C191 2.552 . S
C69 C212 2.552 . S
C429 C252 2.552 . S
C311 C448 2.552 . S
C332 C269 2.552 . S
C288 C391 2.552 . S
C412 C349 2.552 . S
C471 C368 2.552 . S
