# Generated by pormake.
# Topology wiu, (6)-cn, num edge types: 1
# Building blocks:
#     Node 0, Type 0, BuildingBlock: NUHQIS_clean_sbu_0, # of connection points: 6
#     Node 1, Type 0, BuildingBlock: NUHQIS_clean_sbu_0, # of connection points: 6
#     Node 2, Type 0, BuildingBlock: NUHQIS_clean_sbu_0, # of connection points: 6
#     Node 3, Type 0, BuildingBlock: NUHQIS_clean_sbu_0, # of connection points: 6
#     Node 4, Type 0, BuildingBlock: NUHQIS_clean_sbu_0, # of connection points: 6
#     Node 5, Type 0, BuildingBlock: NUHQIS_clean_sbu_0, # of connection points: 6
#     Node 6, Type 0, BuildingBlock: NUHQIS_clean_sbu_0, # of connection points: 6
#     Node 7, Type 0, BuildingBlock: NUHQIS_clean_sbu_0, # of connection points: 6
#     Node 8, Type 0, BuildingBlock: NUHQIS_clean_sbu_0, # of connection points: 6
#     Node 9, Type 0, BuildingBlock: NUHQIS_clean_sbu_0, # of connection points: 6
#     Node 10, Type 0, BuildingBlock: NUHQIS_clean_sbu_0, # of connection points: 6
#     Node 11, Type 0, BuildingBlock: NUHQIS_clean_sbu_0, # of connection points: 6
#     Node 12, Type 0, BuildingBlock: NUHQIS_clean_sbu_0, # of connection points: 6
#     Node 13, Type 0, BuildingBlock: NUHQIS_clean_sbu_0, # of connection points: 6
#     Node 14, Type 0, BuildingBlock: NUHQIS_clean_sbu_0, # of connection points: 6
#     Node 15, Type 0, BuildingBlock: NUHQIS_clean_sbu_0, # of connection points: 6
#     Edge 16, Type (0, 0), BuildingBlock: XUDNAN_clean_linker_2, # of connection points: 2
#     Edge 17, Type (0, 0), BuildingBlock: XUDNAN_clean_linker_2, # of connection points: 2
#     Edge 18, Type (0, 0), BuildingBlock: XUDNAN_clean_linker_2, # of connection points: 2
#     Edge 19, Type (0, 0), BuildingBlock: XUDNAN_clean_linker_2, # of connection points: 2
#     Edge 20, Type (0, 0), BuildingBlock: XUDNAN_clean_linker_2, # of connection points: 2
#     Edge 21, Type (0, 0), BuildingBlock: XUDNAN_clean_linker_2, # of connection points: 2
#     Edge 22, Type (0, 0), BuildingBlock: XUDNAN_clean_linker_2, # of connection points: 2
#     Edge 23, Type (0, 0), BuildingBlock: XUDNAN_clean_linker_2, # of connection points: 2
#     Edge 24, Type (0, 0), BuildingBlock: XUDNAN_clean_linker_2, # of connection points: 2
#     Edge 25, Type (0, 0), BuildingBlock: XUDNAN_clean_linker_2, # of connection points: 2
#     Edge 26, Type (0, 0), BuildingBlock: XUDNAN_clean_linker_2, # of connection points: 2
#     Edge 27, Type (0, 0), BuildingBlock: XUDNAN_clean_linker_2, # of connection points: 2
#     Edge 28, Type (0, 0), BuildingBlock: XUDNAN_clean_linker_2, # of connection points: 2
#     Edge 29, Type (0, 0), BuildingBlock: XUDNAN_clean_linker_2, # of connection points: 2
#     Edge 30, Type (0, 0), BuildingBlock: XUDNAN_clean_linker_2, # of connection points: 2
#     Edge 31, Type (0, 0), BuildingBlock: XUDNAN_clean_linker_2, # of connection points: 2
#     Edge 32, Type (0, 0), BuildingBlock: XUDNAN_clean_linker_2, # of connection points: 2
#     Edge 33, Type (0, 0), BuildingBlock: XUDNAN_clean_linker_2, # of connection points: 2
#     Edge 34, Type (0, 0), BuildingBlock: XUDNAN_clean_linker_2, # of connection points: 2
#     Edge 35, Type (0, 0), BuildingBlock: XUDNAN_clean_linker_2, # of connection points: 2
#     Edge 36, Type (0, 0), BuildingBlock: XUDNAN_clean_linker_2, # of connection points: 2
#     Edge 37, Type (0, 0), BuildingBlock: XUDNAN_clean_linker_2, # of connection points: 2
#     Edge 38, Type (0, 0), BuildingBlock: XUDNAN_clean_linker_2, # of connection points: 2
#     Edge 39, Type (0, 0), BuildingBlock: XUDNAN_clean_linker_2, # of connection points: 2
#     Edge 40, Type (0, 0), BuildingBlock: XUDNAN_clean_linker_2, # of connection points: 2
#     Edge 41, Type (0, 0), BuildingBlock: XUDNAN_clean_linker_2, # of connection points: 2
#     Edge 42, Type (0, 0), BuildingBlock: XUDNAN_clean_linker_2, # of connection points: 2
#     Edge 43, Type (0, 0), BuildingBlock: XUDNAN_clean_linker_2, # of connection points: 2
#     Edge 44, Type (0, 0), BuildingBlock: XUDNAN_clean_linker_2, # of connection points: 2
#     Edge 45, Type (0, 0), BuildingBlock: XUDNAN_clean_linker_2, # of connection points: 2
#     Edge 46, Type (0, 0), BuildingBlock: XUDNAN_clean_linker_2, # of connection points: 2
#     Edge 47, Type (0, 0), BuildingBlock: XUDNAN_clean_linker_2, # of connection points: 2
#     Edge 48, Type (0, 0), BuildingBlock: XUDNAN_clean_linker_2, # of connection points: 2
#     Edge 49, Type (0, 0), BuildingBlock: XUDNAN_clean_linker_2, # of connection points: 2
#     Edge 50, Type (0, 0), BuildingBlock: XUDNAN_clean_linker_2, # of connection points: 2
#     Edge 51, Type (0, 0), BuildingBlock: XUDNAN_clean_linker_2, # of connection points: 2
#     Edge 52, Type (0, 0), BuildingBlock: XUDNAN_clean_linker_2, # of connection points: 2
#     Edge 53, Type (0, 0), BuildingBlock: XUDNAN_clean_linker_2, # of connection points: 2
#     Edge 54, Type (0, 0), BuildingBlock: XUDNAN_clean_linker_2, # of connection points: 2
#     Edge 55, Type (0, 0), BuildingBlock: XUDNAN_clean_linker_2, # of connection points: 2
#     Edge 56, Type (0, 0), BuildingBlock: XUDNAN_clean_linker_2, # of connection points: 2
#     Edge 57, Type (0, 0), BuildingBlock: XUDNAN_clean_linker_2, # of connection points: 2
#     Edge 58, Type (0, 0), BuildingBlock: XUDNAN_clean_linker_2, # of connection points: 2
#     Edge 59, Type (0, 0), BuildingBlock: XUDNAN_clean_linker_2, # of connection points: 2
#     Edge 60, Type (0, 0), BuildingBlock: XUDNAN_clean_linker_2, # of connection points: 2
#     Edge 61, Type (0, 0), BuildingBlock: XUDNAN_clean_linker_2, # of connection points: 2
#     Edge 62, Type (0, 0), BuildingBlock: XUDNAN_clean_linker_2, # of connection points: 2
#     Edge 63, Type (0, 0), BuildingBlock: XUDNAN_clean_linker_2, # of connection points: 2
# Relax obj value: 0.525
# Max RMSD: 0.315
# Mean RMSD: 0.315
data_MOF--net-wiu--node1-NUHQIS_clean_sbu_0--edge1-XUDNAN_clean_linker_2
_symmetry_space_group_name_H-M    P1
_symmetry_Int_Tables_number       1
_symmetry_cell_setting            triclinic
loop_
_symmetry_equiv_pos_as_xyz
'x, y, z'
_cell_length_a     37.456281
_cell_length_b     37.275588
_cell_length_c     54.048479
_cell_angle_alpha  89.820579
_cell_angle_beta   89.531396
_cell_angle_gamma 90.165699
loop_
_atom_site_label
_atom_site_type_symbol
_atom_site_fract_x
_atom_site_fract_y
_atom_site_fract_z
_atom_type_partial_charge
Tb0 Tb 0.34451 0.18499 0.33984 0.0
Eu1 Eu 0.39462 0.12384 0.31741 0.0
C2 C 0.42217 0.20319 0.32337 0.0
C3 C 0.33359 0.16234 0.28255 0.0
C4 C 0.30478 0.27509 0.34095 0.0
C5 C 0.31268 0.33965 0.33514 0.0
C6 C 0.31868 0.30818 0.34883 0.0
C7 C 0.28409 0.27431 0.31936 0.0
C8 C 0.27797 0.30567 0.30579 0.0
C9 C 0.29261 0.33874 0.31322 0.0
C10 C 0.31365 0.24142 0.3544 0.0
O11 O 0.30869 0.13873 0.34191 0.0
O12 O 0.33948 0.1004 0.31602 0.0
O13 O 0.38951 0.10574 0.35723 0.0
O14 O 0.36727 0.1581 0.37342 0.0
C15 C 0.3106 0.10934 0.32846 0.0
O16 O 0.41204 0.06855 0.31202 0.0
O17 O 0.44281 0.11259 0.29636 0.0
O18 O 0.43036 0.17033 0.3296 0.0
O19 O 0.38852 0.20971 0.31868 0.0
O20 O 0.32209 0.1795 0.30245 0.0
O21 O 0.36359 0.1436 0.28318 0.0
C22 C 0.38011 0.12509 0.37642 0.0
O23 O 0.29683 0.21243 0.34772 0.0
O24 O 0.34753 0.23519 0.35767 0.0
C25 C 0.43858 0.06097 0.27292 0.0
C26 C 0.44834 0.0466 0.22261 0.0
C27 C 0.4746 0.03676 0.23981 0.0
C28 C 0.46977 0.04408 0.26485 0.0
C29 C 0.41082 0.06756 0.25624 0.0
C30 C 0.41571 0.06046 0.23114 0.0
C31 C 0.43798 0.07794 0.29713 0.0
H32 H 0.32458 0.3645 0.34139 0.0
H33 H 0.33484 0.30957 0.36533 0.0
H34 H 0.27295 0.24935 0.31264 0.0
H35 H 0.26171 0.3039 0.28936 0.0
H36 H 0.5002 1.02642 0.23374 0.0
H37 H 0.49145 0.03914 0.27756 0.0
H38 H 0.38652 0.08066 0.26232 0.0
H39 H 0.39502 0.06799 0.21825 0.0
Tb40 Tb 0.63711 0.59973 0.5831 0.0
Eu41 Eu 0.70396 0.64834 0.56512 0.0
C42 C 0.62536 0.68157 0.57075 0.0
C43 C 0.66242 0.59753 0.52617 0.0
C44 C 0.54437 0.56169 0.58523 0.0
C45 C 0.5058 0.54352 0.55124 0.0
C46 C 0.54001 0.54935 0.56084 0.0
C47 C 0.5138 0.56831 0.59968 0.0
C48 C 0.4796 0.56275 0.59003 0.0
C49 C 0.47512 0.55018 0.5657 0.0
C50 C 0.58035 0.56712 0.59603 0.0
O51 O 0.68132 0.56224 0.58745 0.0
O52 O 0.72681 0.59294 0.56728 0.0
O53 O 0.71996 0.63505 0.6042 0.0
O54 O 0.66395 0.6187 0.618 0.0
C55 C 0.7136 0.56375 0.57758 0.0
O56 O 0.74797 0.66044 0.53978 0.0
O57 O 0.73318 0.69896 0.56788 0.0
O58 O 0.65915 0.6858 0.57601 0.0
O59 O 0.6132 0.6489 0.56696 0.0
O60 O 0.64702 0.58029 0.54478 0.0
O61 O 0.67692 0.62933 0.52993 0.0
C62 C 0.69797 0.62731 0.62248 0.0
O63 O 0.60711 0.55208 0.58467 0.0
O64 O 0.58841 0.59949 0.60314 0.0
C65 C 0.74573 0.72124 0.52827 0.0
C66 C 0.73107 0.77599 0.49382 0.0
C67 C 0.75529 0.78194 0.51318 0.0
C68 C 0.76252 0.75473 0.53031 0.0
C69 C 0.72151 0.71532 0.50902 0.0
C70 C 0.71446 0.74228 0.4919 0.0
C71 C 0.75067 0.69355 0.5473 0.0
H72 H 0.50338 0.53426 0.53236 0.0
H73 H 0.56301 0.54415 0.54912 0.0
H74 H 0.51637 0.57766 0.61854 0.0
H75 H 0.45662 0.56779 0.6018 0.0
H76 H 0.76837 0.8077 0.51522 0.0
H77 H 0.78079 0.75996 0.54532 0.0
H78 H 0.70776 0.68987 0.50726 0.0
H79 H 0.69631 0.73644 0.47693 0.0
Tb80 Tb 0.20545 0.88925 0.83498 0.0
Eu81 Eu 0.16262 0.95369 0.8075 0.0
C82 C 0.12527 0.87671 0.81824 0.0
C83 C 0.21925 0.90424 0.77622 0.0
C84 C 0.24285 0.79788 0.84338 0.0
C85 C 0.27525 0.75991 0.81405 0.0
C86 C 0.26809 0.79381 0.82411 0.0
C87 C 0.22532 0.76709 0.85245 0.0
C88 C 0.23232 0.73321 0.84227 0.0
C89 C 0.25726 0.72914 0.82284 0.0
C90 C 0.23398 0.83388 0.85368 0.0
O91 O 0.24746 0.92974 0.82941 0.0
O92 O 0.21707 0.97743 0.81187 0.0
O93 O 0.17386 0.97644 0.84527 0.0
O94 O 0.188 0.9249 0.86653 0.0
C95 C 0.24657 0.96227 0.81965 0.0
O96 O 0.15021 0.98788 0.77598 0.0
O97 O 0.11751 0.99068 0.80907 0.0
O98 O 0.12171 0.91158 0.81794 0.0
O99 O 0.15744 0.86282 0.81944 0.0
O100 O 0.22696 0.88673 0.79684 0.0
O101 O 0.1923 0.92693 0.77539 0.0
C102 C 0.18018 0.95977 0.86627 0.0
O103 O 0.25184 0.86121 0.84507 0.0
O104 O 0.20022 0.84156 0.85596 0.0
C105 C 0.08805 0.99319 0.77102 0.0
C106 C 1.0257 0.98086 0.74336 0.0
C107 C 1.02791 1.01029 0.75958 0.0
C108 C 0.0589 1.01645 0.77323 0.0
C109 C 0.08552 0.96315 0.75555 0.0
C110 C 0.05485 0.95723 0.74171 0.0
C111 C 0.12033 0.99912 0.78574 0.0
H112 H 0.29432 0.75795 0.79895 0.0
H113 H 0.28207 0.81688 0.81653 0.0
H114 H 0.20589 0.76927 0.86732 0.0
H115 H 0.21826 0.71012 0.84974 0.0
H116 H 1.00581 1.02875 0.7616 0.0
H117 H 0.06013 0.03936 0.78548 0.0
H118 H 0.10745 0.94439 0.7539 0.0
H119 H 0.05458 0.93468 0.72914 0.0
Tb120 Tb 0.92569 0.47052 1.08388 0.0
Eu121 Eu 0.87009 0.40769 1.07061 0.0
C122 C 0.95344 0.38947 1.07504 0.0
C123 C 0.89675 0.46509 1.02806 0.0
C124 C 1.01166 0.52131 1.08473 0.0
C125 C 0.05397 0.54256 1.05342 0.0
C126 C 1.01885 0.53743 1.06162 0.0
C127 C 0.0405 0.5111 1.09962 0.0
C128 C 0.07571 0.51619 1.09137 0.0
C129 C 0.08285 0.53186 1.06812 0.0
C130 C 0.97432 0.51556 1.09333 0.0
O131 O 0.87626 0.50026 1.08277 0.0
O132 O 0.83879 0.45907 1.06456 0.0
O133 O 0.87329 0.40899 1.1125 0.0
O134 O 0.88876 0.46758 1.11622 0.0
C135 C 0.84655 0.49214 1.07133 0.0
O136 O 0.81694 0.38378 1.07541 0.0
O137 O 0.8595 0.35411 1.05729 0.0
O138 O 0.92404 0.38198 1.06314 0.0
O139 O 0.95615 0.41997 1.08718 0.0
O140 O 0.92368 0.4735 1.04274 0.0
O141 O 0.87295 0.44061 1.03494 0.0
C142 C 0.87307 0.43862 1.12541 0.0
O143 O 0.94953 0.52043 1.07694 0.0
O144 O 0.9678 0.48724 1.10691 0.0
C145 C 0.80144 0.33827 1.04685 0.0
C146 C 0.77306 0.29588 1.00924 0.0
C147 C 0.77231 0.28355 1.03378 0.0
C148 C 0.78656 0.3047 1.05252 0.0
C149 C 0.79868 0.35229 1.0229 0.0
C150 C 0.78436 0.3312 1.00416 0.0
C151 C 0.82615 0.35409 1.06441 0.0
H152 H 0.05845 0.55432 1.0353 0.0
H153 H 0.99737 0.54592 1.04968 0.0
H154 H 0.03586 0.49906 1.11763 0.0
H155 H 0.09735 0.50812 1.10331 0.0
H156 H 0.76382 0.25643 1.03815 0.0
H157 H 0.78875 0.29356 1.07099 0.0
H158 H 0.81019 0.3782 1.01832 0.0
H159 H 0.78462 0.34146 0.98538 0.0
Tb160 Tb 0.67873 0.93838 0.99855 0.0
Eu161 Eu 0.72695 0.87664 0.97605 0.0
C162 C 0.76076 0.95306 0.9877 0.0
C163 C 0.69004 0.93755 0.94037 0.0
C164 C 0.62587 1.00848 1.03388 0.0
C165 C 0.58265 0.05058 1.04996 0.0
C166 C 0.59854 0.0333 1.02994 0.0
C167 C 0.64011 1.00402 1.05756 0.0
C168 C 0.62431 1.02146 1.07763 0.0
C169 C 0.59399 0.04307 1.07411 0.0
C170 C 0.63398 0.98335 1.01407 0.0
O171 O 0.64344 0.89287 0.98742 0.0
O172 O 0.68246 0.85036 0.99783 0.0
O173 O 0.7489 0.88326 1.01502 0.0
O174 O 0.70755 0.92121 1.03263 0.0
C175 C 0.64935 0.85951 0.99419 0.0
O176 O 0.72786 0.83 0.95183 0.0
O177 O 0.77549 0.84451 0.97191 0.0
O178 O 0.76058 0.92649 0.97172 0.0
O179 O 0.73303 0.95954 1.00218 0.0
O180 O 0.68504 0.95701 0.96025 0.0
O181 O 0.70027 0.90373 0.94247 0.0
C182 C 0.73693 0.90147 1.03433 0.0
O183 O 0.65994 0.99151 0.99891 0.0
O184 O 0.63366 0.94941 1.02008 0.0
C185 C 0.76255 0.78272 0.96802 0.0
C186 C 0.76946 0.71253 0.98744 0.0
C187 C 0.79721 0.72818 0.97331 0.0
C188 C 0.79374 0.76293 0.96366 0.0
C189 C 0.73471 0.7671 0.98197 0.0
C190 C 0.73806 0.73235 0.99148 0.0
C191 C 0.75959 0.81995 0.95881 0.0
H192 H 0.55932 0.06696 1.04665 0.0
H193 H 0.58742 0.03698 1.01166 0.0
H194 H 0.66147 0.98507 1.06077 0.0
H195 H 0.63397 1.01582 1.09607 0.0
H196 H 0.82162 0.71353 0.96968 0.0
H197 H 0.81554 0.77449 0.95299 0.0
H198 H 0.71047 0.78192 0.98577 0.0
H199 H 0.7164 0.72137 1.00257 0.0
Tb200 Tb 0.35854 0.41955 0.74817 0.0
Eu201 Eu 0.42542 0.47068 0.73524 0.0
C202 C 0.34813 0.50547 0.74764 0.0
C203 C 0.36988 0.44376 0.69316 0.0
C204 C 0.28149 0.36632 0.7742 0.0
C205 C 0.23768 0.32252 0.78783 0.0
C206 C 0.2555 0.34055 0.76872 0.0
C207 C 0.2868 0.37681 0.79875 0.0
C208 C 0.26918 0.35867 0.81789 0.0
C209 C 0.24604 0.32989 0.81261 0.0
C210 C 0.3074 0.37617 0.75502 0.0
O211 O 0.40518 0.38724 0.7586 0.0
O212 O 0.44812 0.41365 0.73476 0.0
O213 O 0.4215 0.47246 0.77777 0.0
O214 O 0.36479 0.44951 0.78299 0.0
C215 C 0.43674 0.38597 0.74773 0.0
O216 O 0.45822 0.51826 0.74088 0.0
O217 O 0.47343 0.48015 0.71273 0.0
O218 O 0.38158 0.51074 0.74112 0.0
O219 O 0.33421 0.47305 0.75014 0.0
O220 O 0.36545 0.416 0.70782 0.0
O221 O 0.38888 0.47124 0.70111 0.0
C222 C 0.39218 0.46835 0.79136 0.0
O223 O 0.30384 0.40721 0.74427 0.0
O224 O 0.34049 0.36961 0.76054 0.0
C225 C 0.51945 0.50996 0.73458 0.0
C226 C 0.58686 0.51674 0.75712 0.0
C227 C 0.5668 0.48494 0.75982 0.0
C228 C 0.53328 0.48166 0.74874 0.0
C229 C 0.5397 0.54129 0.73134 0.0
C230 C 0.57309 0.54467 0.74248 0.0
C231 C 0.48275 0.50862 0.72512 0.0
H232 H 0.21952 0.30091 0.78325 0.0
H233 H 0.25108 0.33231 0.74978 0.0
H234 H 0.30687 0.39672 0.80322 0.0
H235 H 0.27642 0.36494 0.83674 0.0
H236 H 0.57651 0.46306 0.77112 0.0
H237 H 0.51778 0.45741 0.75172 0.0
H238 H 0.52934 0.5635 0.72061 0.0
H239 H 0.58808 0.56928 0.73972 0.0
Tb240 Tb 0.89137 0.11373 0.50438 0.0
Eu241 Eu 0.85346 0.18538 0.48282 0.0
C242 C 0.80829 0.11494 0.49497 0.0
C243 C 0.88195 0.1206 0.4459 0.0
C244 C 0.91483 0.03828 0.54475 0.0
C245 C 0.93344 0.99225 0.5736 0.0
C246 C 0.93729 1.00967 0.5508 0.0
C247 C 0.88698 0.0478 0.56096 0.0
C248 C 0.88343 1.03078 0.58388 0.0
C249 C 0.90735 1.00363 0.59067 0.0
C250 C 0.92262 0.06037 0.52289 0.0
O251 O 0.93469 0.15315 0.49529 0.0
O252 O 0.90491 0.20588 0.49907 0.0
O253 O 0.83576 0.1848 0.52342 0.0
O254 O 0.86376 0.134 0.53785 0.0
C255 C 0.93512 0.1885 0.49786 0.0
O256 O 0.85636 0.23592 0.46229 0.0
O257 O 0.80587 0.21817 0.47776 0.0
O258 O 0.81365 0.14061 0.47868 0.0
O259 O 0.83433 0.10298 0.50885 0.0
O260 O 0.88471 0.09936 0.46529 0.0
O261 O 0.87564 0.1554 0.44866 0.0
C262 C 0.84196 0.16139 0.54122 0.0
O263 O 0.89988 0.05802 0.50484 0.0
O264 O 0.93105 0.09363 0.52765 0.0
C265 C 0.8191 0.27941 0.48099 0.0
C266 C 0.80684 0.34225 0.50887 0.0
C267 C 0.83679 0.32065 0.5135 0.0
C268 C 0.84275 0.28947 0.49979 0.0
C269 C 0.78935 0.30097 0.47614 0.0
C270 C 0.78324 0.33213 0.48996 0.0
C271 C 0.82368 0.2449 0.46812 0.0
H272 H 0.95247 0.97169 0.57859 0.0
H273 H 0.95887 1.002 0.53845 0.0
H274 H 0.86912 0.06957 0.55644 0.0
H275 H 0.86317 0.03999 0.59678 0.0
H276 H 0.85523 0.32741 0.52811 0.0
H277 H 0.86554 0.27286 0.50419 0.0
H278 H 0.77057 0.29343 0.46192 0.0
H279 H 0.76014 0.3484 0.48576 0.0
Tb280 Tb 0.18854 0.64613 0.25145 0.0
Eu281 Eu 0.13324 0.59082 0.22683 0.0
C282 C 0.21126 0.56471 0.241 0.0
C283 C 0.19119 0.63099 0.19253 0.0
C284 C 0.26512 0.69849 0.28034 0.0
C285 C 0.31884 0.7337 0.28641 0.0
C286 C 0.29396 0.71817 0.27063 0.0
C287 C 0.26336 0.69133 0.30579 0.0
C288 C 0.28816 0.70693 0.3216 0.0
C289 C 0.31498 0.72985 0.31214 0.0
C290 C 0.23476 0.69135 0.26418 0.0
O291 O 0.13796 0.67644 0.25465 0.0
O292 O 0.10559 0.6452 0.22638 0.0
O293 O 0.13123 0.57906 0.26844 0.0
O294 O 0.17877 0.61081 0.28383 0.0
C295 C 0.10958 0.67351 0.24058 0.0
O296 O 0.08535 0.58092 0.20471 0.0
O297 O 0.10955 0.53746 0.22496 0.0
O298 O 0.18514 0.56122 0.22519 0.0
O299 O 0.2151 0.5938 0.25454 0.0
O300 O 0.19145 0.65428 0.21089 0.0
O301 O 0.17187 0.60154 0.19456 0.0
C302 C 0.15398 0.58572 0.28645 0.0
O303 O 0.23952 0.66869 0.24614 0.0
O304 O 0.20318 0.68852 0.27448 0.0
C305 C 0.04628 0.54006 0.22581 0.0
C306 C 0.98187 0.52863 0.25279 0.0
C307 C 0.9832 0.55325 0.233 0.0
C308 C 1.01506 0.55893 0.21968 0.0
C309 C 0.04443 0.51441 0.24496 0.0
C310 C 1.01274 0.50888 0.25829 0.0
C311 C 0.08109 0.54852 0.21355 0.0
H312 H 0.3395 0.75082 0.27863 0.0
H313 H 0.29579 0.72377 0.25097 0.0
H314 H 0.2414 0.67598 0.31364 0.0
H315 H 0.28426 0.7036 0.34136 0.0
H316 H 0.95992 0.56893 0.22828 0.0
H317 H 1.01545 0.57875 0.20498 0.0
H318 H 0.06773 0.49901 0.25008 0.0
H319 H 1.01249 0.48911 0.27302 0.0
Tb320 Tb 0.83878 0.68339 0.83937 0.0
Eu321 Eu 0.89413 0.62382 0.81989 0.0
C322 C 0.91797 0.70465 0.82601 0.0
C323 C 0.83269 0.65771 0.78242 0.0
C324 C 0.79826 0.77379 0.84175 0.0
C325 C 0.78398 0.81108 0.80598 0.0
C326 C 0.78911 0.77718 0.81664 0.0
C327 C 0.80228 0.80502 0.85591 0.0
C328 C 0.79748 0.83895 0.84519 0.0
C329 C 0.7883 0.84243 0.82007 0.0
C330 C 0.8043 0.73808 0.8532 0.0
O331 O 0.80458 0.63611 0.83908 0.0
O332 O 0.8408 0.5959 0.81825 0.0
O333 O 0.89101 0.60958 0.86052 0.0
O334 O 0.85189 0.65304 0.87394 0.0
C335 C 0.80971 0.60532 0.82769 0.0
O336 O 0.91766 0.57025 0.81886 0.0
O337 O 0.9429 0.61479 0.79916 0.0
O338 O 0.9268 0.67207 0.83224 0.0
O339 O 0.88426 0.71082 0.82122 0.0
O340 O 0.82047 0.67684 0.8012 0.0
O341 O 0.86248 0.63863 0.78448 0.0
C342 C 0.87208 0.62441 0.87824 0.0
O343 O 0.78998 0.71066 0.84212 0.0
O344 O 0.83684 0.73115 0.86022 0.0
C345 C 0.95584 0.55702 0.78505 0.0
C346 C 0.9899 0.52725 0.74379 0.0
C347 C 1.00549 0.52458 0.76727 0.0
C348 C 0.98848 0.53941 0.78778 0.0
C349 C 0.93841 0.55666 0.76224 0.0
C350 C 0.9553 0.54155 0.74169 0.0
C351 C 0.9442 0.58072 0.80481 0.0
H352 H 0.77734 0.81277 0.78654 0.0
H353 H 0.78615 0.75363 0.80512 0.0
H354 H 0.80931 0.80317 0.87527 0.0
H355 H 0.80066 0.86252 0.85664 0.0
H356 H 0.03216 0.51397 0.7695 0.0
H357 H 1.00218 0.53965 0.80537 0.0
H358 H 0.91306 0.57018 0.75999 0.0
H359 H 0.94239 0.54328 0.72387 0.0
Tb360 Tb 0.13814 0.10437 1.08334 0.0
Eu361 Eu 0.20602 0.14946 1.06499 0.0
C362 C 0.13055 0.18662 1.07431 0.0
C363 C 0.16218 0.10078 1.02587 0.0
C364 C 0.04683 0.06607 1.0826 0.0
C365 C 1.01029 0.07259 1.04584 0.0
C366 C 0.04117 0.08098 1.05908 0.0
C367 C 1.02074 0.04334 1.09292 0.0
C368 C 0.98976 0.03494 1.07969 0.0
C369 C 0.9844 0.04899 1.05578 0.0
C370 C 0.08079 0.07234 1.0956 0.0
O371 O 0.18318 0.06946 1.09127 0.0
O372 O 0.22063 0.09119 1.06118 0.0
O373 O 0.22015 0.14008 1.10495 0.0
O374 O 0.1639 0.12392 1.11851 0.0
C375 C 0.21073 0.06541 1.07635 0.0
O376 O 0.26257 0.15698 1.05606 0.0
O377 O 0.2253 0.20046 1.05047 0.0
O378 O 0.16445 0.18813 1.08016 0.0
O379 O 0.11733 0.15528 1.06803 0.0
O380 O 0.14669 0.0842 1.0448 0.0
O381 O 0.17875 0.13157 1.02954 0.0
C382 C 0.19778 0.13302 1.12315 0.0
O383 O 0.1085 0.05655 1.08596 0.0
O384 O 0.08808 0.10546 1.10142 0.0
C385 C 0.26794 0.19194 1.01989 0.0
C386 C 0.26858 0.20721 0.96902 0.0
C387 C 0.28233 0.23216 0.98602 0.0
C388 C 0.28172 0.22465 1.01133 0.0
C389 C 0.25737 0.1657 1.00286 0.0
C390 C 0.25766 0.17328 0.97761 0.0
C391 C 0.2572 0.18822 1.04582 0.0
H392 H 1.00686 0.08435 1.02767 0.0
H393 H 0.06101 0.09857 1.05076 0.0
H394 H 1.02471 1.0314 1.11099 0.0
H395 H 0.97065 1.01643 1.08784 0.0
H396 H 0.29184 0.2582 0.97989 0.0
H397 H 0.28979 0.24523 1.02427 0.0
H398 H 0.2464 0.14032 1.00918 0.0
H399 H 0.24685 0.15348 0.96509 0.0
Tb400 Tb 0.70868 0.3913 0.33203 0.0
Eu401 Eu 0.66236 0.45673 0.30925 0.0
C402 C 0.62695 0.37877 0.31904 0.0
C403 C 0.71191 0.41039 0.27376 0.0
C404 C 0.75184 0.30117 0.33429 0.0
C405 C 0.7851 0.26533 0.30413 0.0
C406 C 0.7773 0.29852 0.31502 0.0
C407 C 0.73489 0.26965 0.34262 0.0
C408 C 0.74261 0.23647 0.33166 0.0
C409 C 0.76767 0.23387 0.31216 0.0
C410 C 0.74319 0.33643 0.34583 0.0
O411 O 0.74372 0.43774 0.33619 0.0
O412 O 0.71988 0.47487 0.30656 0.0
O413 O 0.67611 0.47591 0.34744 0.0
O414 O 0.68994 0.42188 0.36574 0.0
C415 C 0.74659 0.46486 0.32062 0.0
O416 O 0.65148 0.49726 0.28114 0.0
O417 O 0.61446 0.48991 0.31165 0.0
O418 O 0.62292 0.41359 0.32064 0.0
O419 O 0.65939 0.36529 0.31805 0.0
O420 O 0.72872 0.39805 0.29339 0.0
O421 O 0.67962 0.42375 0.27626 0.0
C422 C 0.68226 0.45677 0.36742 0.0
O423 O 0.75763 0.36467 0.33568 0.0
O424 O 0.70996 0.34238 0.35194 0.0
C425 C 0.59007 0.49755 0.27228 0.0
C426 C 0.53225 0.48214 0.24091 0.0
C427 C 0.52986 0.51004 0.25836 0.0
C428 C 0.55859 0.51766 0.27394 0.0
C429 C 0.59235 0.46949 0.2551 0.0
C430 C 0.56392 0.46206 0.23947 0.0
C431 C 0.61944 0.50356 0.28967 0.0
H432 H 0.80428 0.26447 0.28905 0.0
H433 H 0.79111 0.32213 0.30814 0.0
H434 H 0.71552 0.27064 0.35759 0.0
H435 H 0.72904 0.21276 0.33861 0.0
H436 H 0.50576 0.52584 0.26009 0.0
H437 H 0.55612 0.53897 0.28743 0.0
H438 H 0.61617 0.45317 0.25374 0.0
H439 H 0.56715 0.44095 0.22593 0.0
Tb440 Tb 0.43407 0.96466 0.5894 0.0
Eu441 Eu 0.3737 0.91773 0.56341 0.0
C442 C 0.45238 0.88788 0.57095 0.0
C443 C 0.41659 0.97902 0.53155 0.0
C444 C 0.52244 1.00731 0.5978 0.0
C445 C 0.57045 1.00072 0.56742 0.0
C446 C 0.53903 0.98787 0.57866 0.0
C447 C 0.53824 0.03923 0.60596 0.0
C448 C 0.56938 0.05226 0.59458 0.0
C449 C 0.58544 0.03353 0.57486 0.0
C450 C 0.48725 0.99646 0.6079 0.0
O451 O 0.38614 0.99679 0.59456 0.0
O452 O 0.35464 0.97498 0.56173 0.0
O453 O 0.35269 0.92178 0.60277 0.0
O454 O 0.40568 0.93748 0.62089 0.0
C455 C 0.36116 1.00047 0.5778 0.0
O456 O 0.31966 0.90702 0.55021 0.0
O457 O 0.36085 0.86695 0.54598 0.0
O458 O 0.41879 0.87979 0.57515 0.0
O459 O 0.46052 0.92193 0.56839 0.0
O460 O 0.43027 0.99048 0.55262 0.0
O461 O 0.3998 0.94777 0.53067 0.0
C462 C 0.37168 0.92736 0.62273 0.0
O463 O 0.46 1.01293 0.59838 0.0
O464 O 0.48123 0.96212 0.61023 0.0
C465 C 0.32187 0.87354 0.51339 0.0
C466 C 0.32637 0.85783 0.46277 0.0
C467 C 0.30865 0.83423 0.4792 0.0
C468 C 0.30676 0.8419 0.5044 0.0
C469 C 0.33658 0.89869 0.49681 0.0
C470 C 0.33898 0.89085 0.47166 0.0
C471 C 0.32885 0.87691 0.5398 0.0
H472 H 0.58201 0.98592 0.55213 0.0
H473 H 0.52709 0.96339 0.57185 0.0
H474 H 0.52585 0.0547 0.62062 0.0
H475 H 0.58047 0.0775 0.60082 0.0
H476 H 0.29765 0.80907 0.47276 0.0
H477 H 0.29539 0.82222 0.51701 0.0
H478 H 0.34831 0.92333 0.50351 0.0
H479 H 0.35273 0.90961 0.45954 0.0
Tb480 Tb 0.16625 0.44321 0.49869 0.0
Eu481 Eu 0.22217 0.3835 0.48201 0.0
C482 C 0.24925 0.46269 0.49512 0.0
C483 C 0.18673 0.44056 0.44186 0.0
C484 C 0.11789 0.50837 0.53592 0.0
C485 C 0.08145 0.53066 0.56949 0.0
C486 C 0.0847 0.51935 0.54504 0.0
C487 C 0.14846 0.51211 0.55053 0.0
C488 C 0.14524 0.52318 0.57504 0.0
C489 C 0.1114 0.53069 0.58505 0.0
C490 C 0.11937 0.48619 0.51382 0.0
O491 O 0.13504 0.39481 0.48781 0.0
O492 O 0.17571 0.35502 0.50072 0.0
O493 O 0.23801 0.3917 0.52248 0.0
O494 O 0.1937 0.43116 0.53403 0.0
C495 C 0.14251 0.36202 0.4952 0.0
O496 O 0.22799 0.33193 0.46326 0.0
O497 O 0.27451 0.35857 0.47794 0.0
O498 O 0.25504 0.4342 0.48139 0.0
O499 O 0.21768 0.46933 0.505 0.0
O500 O 0.1756 0.46004 0.46049 0.0
O501 O 0.2002 0.40812 0.44567 0.0
C502 C 0.22292 0.41259 0.53923 0.0
O503 O 0.14371 0.49471 0.49746 0.0
O504 O 0.11891 0.45185 0.5185 0.0
C505 C 0.27181 0.29509 0.48228 0.0
C506 C 0.28831 0.23262 0.50987 0.0
C507 C 0.25979 0.2326 0.4931 0.0
C508 C 0.25165 0.26347 0.47945 0.0
C509 C 0.30107 0.29468 0.49842 0.0
C510 C 0.30914 0.26388 0.51208 0.0
C511 C 0.26152 0.32867 0.46929 0.0
H512 H 0.05497 0.53596 0.57678 0.0
H513 H 0.06089 0.51631 0.53398 0.0
H514 H 0.17431 0.50369 0.54362 0.0
H515 H 0.16871 0.52329 0.58663 0.0
H516 H 0.24315 0.20902 0.491 0.0
H517 H 0.22909 0.26276 0.46704 0.0
H518 H 0.3175 0.31834 0.50085 0.0
H519 H 0.33177 0.2646 0.52442 0.0
Tb520 Tb 0.86602 0.92295 0.25232 0.0
Eu521 Eu 0.93427 0.96616 0.23111 0.0
C522 C 0.85962 1.00717 0.24409 0.0
C523 C 0.8711 0.93527 0.19391 0.0
C524 C 0.79433 0.88829 0.29285 0.0
C525 C 0.74822 0.86378 0.31967 0.0
C526 C 0.7676 0.8628 0.29751 0.0
C527 C 0.80016 0.91605 0.30983 0.0
C528 C 0.78104 0.91688 0.33208 0.0
C529 C 0.75563 0.89014 0.33747 0.0
C530 C 0.81774 0.8843 0.27126 0.0
O531 O 0.90643 0.88405 0.23915 0.0
O532 O 0.95596 0.91502 0.24873 0.0
O533 O 0.93141 0.98549 0.27073 0.0
O534 O 0.88416 0.95238 0.28595 0.0
C535 C 0.94067 0.88407 0.24445 0.0
O536 O 0.96476 1.01455 0.22215 0.0
O537 O 0.98711 0.9627 0.21364 0.0
O538 O 0.89056 1.00828 0.23229 0.0
O539 O 0.84669 0.97759 0.25401 0.0
O540 O 0.85048 0.92903 0.21333 0.0
O541 O 0.9049 0.94511 0.19668 0.0
C542 C 0.90873 0.97772 0.28872 0.0
O543 O 0.8123 0.90671 0.25314 0.0
O544 O 0.85163 0.88098 0.27624 0.0
C545 C 1.02687 1.00676 0.22863 0.0
C546 C 0.09099 1.02047 0.2543 0.0
C547 C 0.05807 1.03212 0.26395 0.0
C548 C 1.02631 1.02514 0.25134 0.0
C549 C 0.0598 0.99587 0.21869 0.0
C550 C 0.09152 1.00255 0.23141 0.0
C551 C 0.9934 0.99693 0.2159 0.0
H552 H 0.72911 0.84258 0.32353 0.0
H553 H 0.76279 0.84128 0.28451 0.0
H554 H 0.82051 0.93618 0.30636 0.0
H555 H 0.78714 0.93748 0.3455 0.0
H556 H 0.05676 0.0457 0.28163 0.0
H557 H 1.00129 0.03356 0.25964 0.0
H558 H 0.06092 0.98162 0.20126 0.0
H559 H 0.11651 0.99361 0.22335 0.0
Tb560 Tb 0.40002 0.61218 1.00342 0.0
Eu561 Eu 0.35458 0.68201 0.98486 0.0
C562 C 0.31483 0.60668 0.99857 0.0
C563 C 0.38159 0.61928 0.94593 0.0
C564 C 0.4271 0.53456 1.04044 0.0
C565 C 0.44874 0.48958 1.06902 0.0
C566 C 0.45225 0.50847 1.04675 0.0
C567 C 0.39702 0.53978 1.05568 0.0
C568 C 0.39381 0.52137 1.07811 0.0
C569 C 0.42031 0.49705 1.08532 0.0
C570 C 0.43465 0.5596 1.02009 0.0
O571 O 0.43871 0.65686 1.00591 0.0
O572 O 0.41161 0.70309 0.9855 0.0
O573 O 0.35245 0.68337 1.02707 0.0
O574 O 0.36471 0.62453 1.03539 0.0
C575 C 0.43972 0.68947 0.99633 0.0
O576 O 0.30534 0.71296 0.98391 0.0
O577 O 0.35229 0.73378 0.96555 0.0
O578 O 0.31201 0.64027 0.99143 0.0
O579 O 0.34577 0.59129 1.00271 0.0
O580 O 0.40463 0.60828 0.96268 0.0
O581 O 0.35855 0.64515 0.95108 0.0
C582 C 0.34997 0.65522 1.04187 0.0
O583 O 0.41382 0.55758 1.00096 0.0
O584 O 0.43954 0.59269 1.02702 0.0
C585 C 0.31562 0.77468 0.98723 0.0
C586 C 0.30158 0.83695 1.01522 0.0
C587 C 0.31949 0.80771 1.02585 0.0
C588 C 0.32658 0.77695 1.01196 0.0
C589 C 0.2986 0.80409 0.9763 0.0
C590 C 0.29177 0.83509 0.99015 0.0
C591 C 0.32017 0.74085 0.97355 0.0
H592 H 0.46974 0.47125 1.07437 0.0
H593 H 0.47564 0.50421 1.03521 0.0
H594 H 0.37718 0.55964 1.05098 0.0
H595 H 0.37173 0.52759 1.09044 0.0
H596 H 0.32773 0.80848 1.04501 0.0
H597 H 0.33993 0.75459 1.02071 0.0
H598 H 0.28988 0.80278 0.95726 0.0
H599 H 0.27767 0.85708 0.98151 0.0
Tb600 Tb 0.6855 0.1509 0.75522 0.0
Eu601 Eu 0.62962 0.09795 0.72852 0.0
C602 C 0.70616 0.06812 0.74556 0.0
C603 C 0.69293 0.13993 0.69615 0.0
C604 C 0.74479 0.18909 0.80128 0.0
C605 C 0.76828 0.21735 0.83781 0.0
C606 C 0.75741 0.21965 0.81328 0.0
C607 C 0.74541 0.15566 0.81331 0.0
C608 C 0.75622 0.15336 0.83788 0.0
C609 C 0.76643 0.18443 0.8506 0.0
C610 C 0.72598 0.19303 0.77796 0.0
O611 O 0.6411 0.18564 0.74307 0.0
O612 O 0.59904 0.14309 0.74752 0.0
O613 O 0.63244 0.07497 0.76731 0.0
O614 O 0.66678 0.11714 0.78704 0.0
C615 C 0.60737 0.17718 0.74602 0.0
O616 O 0.60137 0.0473 0.72263 0.0
O617 O 0.58332 0.09532 0.70418 0.0
O618 O 0.67832 0.06289 0.73127 0.0
O619 O 0.71236 0.099 0.75658 0.0
O620 O 0.70405 0.15464 0.71685 0.0
O621 O 0.66468 0.1184 0.69588 0.0
C622 C 0.64892 0.08637 0.78727 0.0
O623 O 0.7368 0.17243 0.75996 0.0
O624 O 0.69127 0.19312 0.78026 0.0
C625 C 0.53944 0.05683 0.72158 0.0
C626 C 0.47272 0.04457 0.74526 0.0
C627 C 0.4942 0.07397 0.75185 0.0
C628 C 0.52711 0.07994 0.74022 0.0
C629 C 0.51827 1.02733 0.7149 0.0
C630 C 0.48519 1.0212 0.72666 0.0
C631 C 0.57536 0.06243 0.71066 0.0
H632 H 0.77557 0.24186 0.84725 0.0
H633 H 0.75677 0.24561 0.80422 0.0
H634 H 0.73566 0.13178 0.80418 0.0
H635 H 0.75501 0.12772 0.84727 0.0
H636 H 0.48588 0.09215 0.76638 0.0
H637 H 0.54317 0.10245 0.74608 0.0
H638 H 0.52744 1.0089 0.70077 0.0
H639 H 0.46923 0.99841 0.72103 0.0
H640 H 0.49723 0.20148 0.32992 0.0
H641 H 0.41022 0.2734 0.31176 0.0
H642 H 0.45273 0.3235 0.30813 0.0
H643 H 0.54771 0.26569 0.3665 0.0
H644 H 0.59095 0.25118 0.35569 0.0
H645 H 0.55412 0.21997 0.35666 0.0
H646 H 0.56348 0.20642 0.31019 0.0
H647 H 0.60033 0.23761 0.30909 0.0
H648 H 0.56347 0.24284 0.28816 0.0
H649 H 0.50367 0.36694 0.30695 0.0
H650 H 0.55971 0.40106 0.30822 0.0
H651 H 0.61732 0.30374 0.32665 0.0
C652 C 0.48713 0.22775 0.3251 0.0
C653 C 0.44981 0.23297 0.32107 0.0
C654 C 0.43823 0.26809 0.31489 0.0
C655 C 0.46236 0.29699 0.31278 0.0
C656 C 0.49861 0.29103 0.31683 0.0
C657 C 0.51118 0.25734 0.32283 0.0
C658 C 0.55179 0.25896 0.32632 0.0
C659 C 0.56173 0.24831 0.35287 0.0
C660 C 0.5709 0.23503 0.30731 0.0
C661 C 0.55987 0.29874 0.32143 0.0
C662 C 0.52853 0.31648 0.31601 0.0
C663 C 0.52833 0.35323 0.31116 0.0
C664 C 0.56063 0.37252 0.31199 0.0
C665 C 0.59357 0.3556 0.31756 0.0
C666 C 0.59296 0.3178 0.32218 0.0
H667 H 0.55016 0.69086 0.57571 0.0
H668 H 0.64849 0.749 0.56024 0.0
H669 H 0.61498 0.80536 0.55785 0.0
H670 H 0.49231 0.74586 0.53563 0.0
H671 H 0.45477 0.74531 0.55672 0.0
H672 H 0.48573 0.70836 0.55634 0.0
H673 H 0.49653 0.71662 0.60314 0.0
H674 H 0.46566 0.75362 0.60366 0.0
H675 H 0.51062 0.75976 0.61454 0.0
H676 H 0.57222 0.85644 0.55776 0.0
H677 H 0.5228 0.89931 0.5604 0.0
H678 H 0.4492 0.81204 0.57682 0.0
C679 C 0.56454 0.7154 0.57155 0.0
C680 C 0.60243 0.71491 0.56814 0.0
C681 C 0.61984 0.74806 0.56307 0.0
C682 C 0.6009 0.78051 0.5616 0.0
C683 C 0.56403 0.78025 0.56535 0.0
C684 C 0.54581 0.74869 0.57025 0.0
C685 C 0.50602 0.75689 0.5742 0.0
C686 C 0.48336 0.73797 0.55455 0.0
C687 C 0.494 0.74607 0.60045 0.0
C688 C 0.50497 0.79779 0.57081 0.0
C689 C 0.53895 0.81036 0.56562 0.0
C690 C 0.54551 0.84682 0.56182 0.0
C691 C 0.51696 0.87118 0.5634 0.0
C692 C 0.48156 0.85971 0.56886 0.0
C693 C 0.47568 0.82211 0.57255 0.0
H694 H 0.11405 0.8026 0.8285 0.0
H695 H 0.05896 0.89907 0.80494 0.0
H696 H 1.00234 0.86591 0.80421 0.0
H697 H 0.06048 0.73969 0.79147 0.0
H698 H 0.05941 0.70513 0.81487 0.0
H699 H 0.09665 0.7358 0.81311 0.0
H700 H 0.08629 0.75331 0.85883 0.0
H701 H 0.04896 0.72277 0.86072 0.0
H702 H 0.04305 0.76936 0.86854 0.0
H703 H 0.95029 0.82353 0.80686 0.0
H704 H 0.90687 0.7743 0.81192 0.0
H705 H 0.99245 0.70283 0.8337 0.0
C706 C 0.09014 0.81665 0.82298 0.0
C707 C 0.09162 0.85394 0.81682 0.0
C708 C 0.05922 0.8709 0.80991 0.0
C709 C 1.02658 0.85216 0.80939 0.0
C710 C 1.0259 0.81593 0.81582 0.0
C711 C 0.05675 0.79813 0.82242 0.0
C712 C 0.04782 0.75899 0.82877 0.0
C713 C 0.06725 0.73338 0.811 0.0
C714 C 0.05709 0.75062 0.85583 0.0
C715 C 1.00733 0.75781 0.82478 0.0
C716 C 0.99547 0.79113 0.81729 0.0
C717 C 0.95938 0.7973 0.81264 0.0
C718 C 0.93473 0.76894 0.81559 0.0
C719 C 0.94569 0.73421 0.82317 0.0
C720 C 0.98282 0.72882 0.82783 0.0
H721 H 0.05818 0.19783 1.06136 0.0
H722 H 0.15136 0.25318 1.0897 0.0
H723 H 0.11691 0.30908 1.0924 0.0
H724 H 1.02555 0.27295 1.0241 0.0
H725 H 0.97903 0.26432 1.03059 0.0
H726 H 1.0106 0.22791 1.03078 0.0
H727 H 0.99098 0.21126 1.07533 0.0
H728 H 0.95935 0.24761 1.07526 0.0
H729 H 0.99247 0.24489 1.0992 0.0
H730 H 0.07247 0.35984 1.09305 0.0
H731 H 1.02178 0.40163 1.09071 0.0
H732 H 0.95556 0.31651 1.06103 0.0
C733 C 0.07137 0.22171 1.06811 0.0
C734 C 0.10799 0.22047 1.07532 0.0
C735 C 0.12372 0.25276 1.084 0.0
C736 C 0.10422 0.28495 1.08564 0.0
C737 C 0.06851 0.28528 1.07847 0.0
C738 C 0.05212 0.25459 1.06977 0.0
C739 C 1.01325 0.26287 1.06321 0.0
C740 C 1.00673 0.25664 1.03552 0.0
C741 C 0.98749 0.24031 1.0792 0.0
C742 C 1.01047 0.30281 1.06965 0.0
C743 C 0.0428 0.31498 1.0785 0.0
C744 C 0.0471 0.35052 1.08607 0.0
C745 C 1.0179 0.37422 1.08468 0.0
C746 C 0.98421 0.36295 1.07562 0.0
C747 C 0.98077 0.32645 1.0679 0.0
H748 H 0.57624 0.86063 0.98011 0.0
H749 H 0.65604 0.79304 1.01457 0.0
H750 H 0.61205 0.74447 1.0187 0.0
H751 H 0.50031 0.82871 1.01784 0.0
H752 H 0.46891 0.82936 0.99275 0.0
H753 H 0.50627 0.85997 0.99261 0.0
H754 H 0.52575 0.83648 0.94963 0.0
H755 H 0.48848 0.80578 0.94967 0.0
H756 H 0.53324 0.78912 0.94542 0.0
H757 H 0.56004 0.70187 1.01925 0.0
H758 H 0.50366 0.66832 1.0159 0.0
H759 H 0.45456 0.76059 0.98082 0.0
C760 C 0.58438 0.8357 0.98866 0.0
C761 C 0.62023 0.83121 0.99698 0.0
C762 C 0.62928 0.79773 1.00788 0.0
C763 C 0.60426 0.76969 1.01039 0.0
C764 C 0.56958 0.77477 1.00194 0.0
C765 C 0.55941 0.80689 0.99128 0.0
C766 C 0.52017 0.80449 0.98352 0.0
C767 C 0.49758 0.83229 0.99751 0.0
C768 C 0.51671 0.80926 0.95538 0.0
C769 C 0.51014 0.76619 0.99146 0.0
C770 C 0.53924 0.74975 1.0021 0.0
C771 C 0.53711 0.71456 1.01094 0.0
C772 C 0.50466 0.69557 1.00893 0.0
C773 C 0.47402 0.71128 0.99808 0.0
C774 C 0.47714 0.74739 0.98922 0.0
H775 H 0.6087 0.25131 0.7341 0.0
H776 H 0.53914 0.16766 0.76319 0.0
H777 H 0.49036 0.21137 0.76724 0.0
H778 H 0.57407 0.32448 0.77247 0.0
H779 H 0.57647 0.3578 0.74827 0.0
H780 H 0.60697 0.32047 0.74811 0.0
H781 H 0.58679 0.30376 0.70399 0.0
H782 H 0.55627 0.34105 0.70402 0.0
H783 H 0.54004 0.29635 0.69809 0.0
H784 H 0.44827 0.26409 0.76894 0.0
H785 H 0.41519 0.32083 0.76604 0.0
H786 H 0.50884 0.37267 0.73416 0.0
C787 C 0.58327 0.24221 0.74145 0.0
C788 C 0.57832 0.20547 0.74841 0.0
C789 C 0.54418 0.19517 0.75765 0.0
C790 C 0.51606 0.22002 0.76011 0.0
C791 C 0.52171 0.25569 0.75308 0.0
C792 C 0.55437 0.26689 0.74376 0.0
C793 C 0.55252 0.30684 0.73694 0.0
C794 C 0.57909 0.32869 0.75237 0.0
C795 C 0.55931 0.31232 0.7091 0.0
C796 C 0.51388 0.31621 0.74392 0.0
C797 C 0.49687 0.28616 0.75338 0.0
C798 C 0.46141 0.2877 0.76147 0.0
C799 C 0.44272 0.32039 0.75979 0.0
C800 C 0.45888 0.35188 0.74985 0.0
C801 C 0.49528 0.34942 0.74181 0.0
H802 H 0.06683 0.36415 0.49166 0.0
H803 H 0.15511 0.29024 0.50072 0.0
H804 H 0.11291 0.2396 0.50225 0.0
H805 H 1.0053 0.31665 0.53334 0.0
H806 H 0.96626 0.32511 0.51496 0.0
H807 H 1.0032 0.35619 0.51412 0.0
H808 H 1.00723 0.34973 0.46657 0.0
H809 H 0.9703 0.31863 0.4673 0.0
H810 H 1.01209 0.30575 0.45319 0.0
H811 H 0.06087 0.19529 0.50219 0.0
H812 H 1.0036 0.16217 0.50188 0.0
H813 H 0.9469 0.26289 0.49433 0.0
C814 C 0.07732 0.33733 0.49393 0.0
C815 C 0.11493 0.3318 0.49604 0.0
C816 C 0.12688 0.29589 0.49911 0.0
C817 C 0.10292 0.26661 0.49997 0.0
C818 C 0.06633 0.2729 0.49792 0.0
C819 C 0.05344 0.3074 0.49509 0.0
C820 C 1.01258 0.30637 0.49372 0.0
C821 C 0.99585 0.32733 0.51532 0.0
C822 C 0.9998 0.32099 0.46871 0.0
C823 C 1.00469 0.2661 0.49614 0.0
C824 C 0.03622 0.24734 0.49842 0.0
C825 C 0.03608 0.20988 0.50051 0.0
C826 C 1.00318 0.19113 0.50029 0.0
C827 C 0.97015 0.2094 0.4982 0.0
C828 C 0.97133 0.24769 0.49614 0.0
H829 H 0.11092 0.7465 0.25586 0.0
H830 H 0.04084 0.66537 0.22516 0.0
H831 H 0.99202 0.70922 0.22368 0.0
H832 H 0.04303 0.79221 0.29349 0.0
H833 H 0.05982 0.83673 0.28727 0.0
H834 H 0.0898 0.79899 0.28681 0.0
H835 H 0.10974 0.81578 0.24236 0.0
H836 H 0.0798 0.85355 0.2427 0.0
H837 H 0.07665 0.82047 0.21855 0.0
H838 H 0.94948 0.76134 0.2255 0.0
H839 H 0.91715 0.81844 0.22895 0.0
H840 H 1.01281 0.86971 0.25694 0.0
C841 C 0.08525 0.73789 0.24897 0.0
C842 C 0.08024 0.7018 0.24069 0.0
C843 C 0.046 0.69237 0.23159 0.0
C844 C 1.01779 0.71728 0.2307 0.0
C845 C 1.02357 0.75234 0.23877 0.0
C846 C 0.05647 0.7629 0.24762 0.0
C847 C 0.05523 0.80285 0.25444 0.0
C848 C 0.0624 0.80799 0.28216 0.0
C849 C 0.08195 0.82444 0.23857 0.0
C850 C 1.01662 0.81286 0.24811 0.0
C851 C 0.99898 0.78301 0.23924 0.0
C852 C 0.96317 0.78485 0.23237 0.0
C853 C 0.94487 0.81772 0.23445 0.0
C854 C 0.96191 0.84927 0.2432 0.0
C855 C 0.99862 0.84647 0.25012 0.0
H856 H 0.4833 0.99616 0.19521 0.0
H857 H 0.43735 0.10269 0.19117 0.0
H858 H 0.46759 0.11283 1.15107 0.0
H859 H 0.5661 1.01962 0.17575 0.0
H860 H 0.57539 0.98015 1.15765 0.0
H861 H 0.54444 0.97765 0.1832 0.0
H862 H 0.49476 0.95351 1.15452 0.0
H863 H 0.52593 0.95465 1.12896 0.0
H864 H 0.48391 0.97783 1.12671 0.0
H865 H 0.51076 0.11509 1.11529 0.0
H866 H 0.55741 0.10572 1.08322 0.0
H867 H 0.57516 0.99823 1.11164 0.0
C868 C 0.47865 1.0211 0.18543 0.0
C869 C 0.45799 0.04854 0.19615 0.0
C870 C 0.45262 0.08103 0.18302 0.0
C871 C 0.46995 0.08719 0.16036 0.0
C872 C 0.49211 0.06043 1.15109 0.0
C873 C 0.49581 1.02769 0.16291 0.0
C874 C 0.52334 1.00451 1.15023 0.0
C875 C 0.55412 0.99495 0.16776 0.0
C876 C 0.50594 0.97063 1.13946 0.0
C877 C 0.53558 1.02988 1.13007 0.0
C878 C 0.51716 0.06189 1.13068 0.0
C879 C 0.52497 0.08989 1.11434 0.0
C880 C 0.55161 0.08447 1.09637 0.0
C881 C 0.57009 0.05142 1.09513 0.0
C882 C 0.56209 1.02408 1.11241 0.0
H883 H 0.77994 0.82069 0.47189 0.0
H884 H 0.66738 0.79299 0.47196 0.0
H885 H 0.65886 0.83033 0.43478 0.0
H886 H 0.76837 0.91581 0.44599 0.0
H887 H 0.80915 0.91168 0.4283 0.0
H888 H 0.80477 0.88956 0.45791 0.0
H889 H 0.82067 0.82882 0.4374 0.0
H890 H 0.82494 0.85058 0.40788 0.0
H891 H 0.79462 0.81327 0.41162 0.0
H892 H 0.66532 0.85853 0.39325 0.0
H893 H 0.68616 0.87781 0.35171 0.0
H894 H 0.79343 0.89029 0.37984 0.0
C895 C 0.75319 0.82379 0.46478 0.0
C896 C 0.72441 0.80381 0.47475 0.0
C897 C 0.68996 0.80771 0.46442 0.0
C898 C 0.68476 0.82917 0.44346 0.0
C899 C 0.71407 0.84724 0.43338 0.0
C900 C 0.74752 0.84536 0.444 0.0
C901 C 0.77547 0.86362 0.42797 0.0
C902 C 0.7903 0.89716 0.44081 0.0
C903 C 0.80565 0.8375 0.42079 0.0
C904 C 0.75303 0.87372 0.40591 0.0
C905 C 0.71753 0.86473 0.40954 0.0
C906 C 0.69277 0.86685 0.39045 0.0
C907 C 0.70479 0.87764 0.36693 0.0
C908 C 0.74119 0.88613 0.36283 0.0
C909 C 0.76522 0.88522 0.38276 0.0
H910 H 0.98795 0.03364 0.72007 0.0
H911 H 0.99442 0.91792 0.72771 0.0
H912 H 0.9532 0.91091 0.69275 0.0
H913 H 0.89007 0.03508 0.69862 0.0
H914 H 0.89997 0.07218 0.67821 0.0
H915 H 0.92298 0.06802 0.70726 0.0
H916 H 0.98364 0.07062 0.68392 0.0
H917 H 0.96104 0.07439 0.65494 0.0
H918 H 0.99261 0.03866 0.65968 0.0
H919 H 0.9251 0.91651 0.65129 0.0
H920 H 0.90822 0.93483 0.60888 0.0
H921 H 0.91511 0.0464 0.63032 0.0
C922 C 0.97937 1.00682 0.71529 0.0
C923 C 0.99479 0.97639 0.72653 0.0
C924 C 0.98355 0.94172 0.71909 0.0
C925 C 0.95977 0.93744 0.69942 0.0
C926 C 0.94661 0.96806 0.68785 0.0
C927 C 0.95528 1.00213 0.69596 0.0
C928 C 0.94112 1.03064 0.67869 0.0
C929 C 0.91178 0.05278 0.69146 0.0
C930 C 0.97141 0.05495 0.66872 0.0
C931 C 0.92572 1.00727 0.65858 0.0
C932 C 0.92851 0.97121 0.66436 0.0
C933 C 0.92139 0.9446 0.64693 0.0
C934 C 0.91197 0.95515 0.62291 0.0
C935 C 0.90956 0.99192 0.61671 0.0
C936 C 0.91538 1.01811 0.63499 0.0
H937 H 0.81691 0.28769 0.96973 0.0
H938 H 0.71976 0.24567 1.00317 0.0
H939 H 0.7143 0.20213 0.96877 0.0
H940 H 0.78801 0.28729 0.90956 0.0
H941 H 0.83059 0.27511 0.89632 0.0
H942 H 0.82881 0.29851 0.92527 0.0
H943 H 0.86587 0.24765 0.9455 0.0
H944 H 0.86709 0.22374 0.91656 0.0
H945 H 0.85005 0.20199 0.94407 0.0
H946 H 0.71579 0.16915 0.92831 0.0
H947 H 0.72047 0.15406 0.88401 0.0
H948 H 0.81771 0.21689 0.87799 0.0
C949 C 0.79444 0.26933 0.96983 0.0
C950 C 0.76844 0.27023 0.9888 0.0
C951 C 0.73985 0.24535 0.98865 0.0
C952 C 0.73677 0.22042 0.96936 0.0
C953 C 0.7629 0.22045 0.9508 0.0
C954 C 0.79116 0.24434 0.95096 0.0
C955 C 0.81381 0.24159 0.92784 0.0
C956 C 0.81535 0.27775 0.91393 0.0
C957 C 0.85143 0.22792 0.93387 0.0
C958 C 0.79275 0.21381 0.91387 0.0
C959 C 0.76401 0.20115 0.92765 0.0
C960 C 0.7386 0.17821 0.91756 0.0
C961 C 0.74162 0.16957 0.89242 0.0
C962 C 0.76961 0.18426 0.87776 0.0
C963 C 0.79634 0.20509 0.88895 0.0
H964 H 0.22593 0.3436 0.86061 0.0
H965 H 0.24887 0.257 0.80946 0.0
H966 H 0.25026 0.21427 0.84411 0.0
H967 H 0.28556 0.31976 0.90337 0.0
H968 H 0.25975 0.33085 0.93057 0.0
H969 H 0.25128 0.35355 0.90185 0.0
H970 H 0.18481 0.33425 0.90359 0.0
H971 H 0.19274 0.31226 0.93278 0.0
H972 H 0.17353 0.28751 0.90754 0.0
H973 H 0.26218 0.18379 0.88414 0.0
H974 H 0.27636 0.16625 0.92702 0.0
H975 H 0.24507 0.27223 0.95226 0.0
C976 C 0.22992 0.31543 0.85665 0.0
C977 C 0.23705 0.30367 0.83233 0.0
C978 C 0.24254 0.26662 0.82786 0.0
C979 C 0.24367 0.24209 0.84747 0.0
C980 C 0.23884 0.25497 0.87138 0.0
C981 C 0.23121 0.29062 0.87604 0.0
C982 C 0.23091 0.29829 0.9035 0.0
C983 C 0.25852 0.32731 0.91019 0.0
C984 C 0.19325 0.30868 0.91237 0.0
C985 C 0.24157 0.26193 0.91338 0.0
C986 C 0.2456 0.23718 0.89463 0.0
C987 C 0.25816 0.20263 0.8991 0.0
C988 C 0.26628 0.19296 0.92348 0.0
C989 C 0.26189 0.21784 0.94303 0.0
C990 C 0.24919 0.25267 0.93776 0.0
H991 H 0.34577 0.79122 0.447 0.0
H992 H 0.32466 0.89906 0.42045 0.0
H993 H 0.33542 0.87888 0.37759 0.0
H994 H 0.41214 0.7648 0.39783 0.0
H995 H 0.39413 0.71995 0.39659 0.0
H996 H 0.3934 0.74442 0.42532 0.0
H997 H 0.32487 0.73502 0.42888 0.0
H998 H 0.32558 0.71025 0.40049 0.0
H999 H 0.29686 0.74872 0.40359 0.0
H1000 H 0.33786 0.84559 0.33812 0.0
H1001 H 0.32499 0.80167 0.30562 0.0
H1002 H 0.34355 0.71479 0.35744 0.0
C1003 C 0.3437 0.81073 0.43221 0.0
C1004 C 0.3342 0.84667 0.43704 0.0
C1005 C 0.33225 0.87145 0.4172 0.0
C1006 C 0.33853 0.86027 0.39282 0.0
C1007 C 0.34705 0.82437 0.38868 0.0
C1008 C 0.34956 0.79997 0.40787 0.0
C1009 C 0.35363 0.76203 0.39847 0.0
C1010 C 0.39053 0.74692 0.40494 0.0
C1011 C 0.32343 0.73761 0.40843 0.0
C1012 C 0.35045 0.76856 0.37098 0.0
C1013 C 0.34803 0.80481 0.36565 0.0
C1014 C 0.34065 0.81722 0.34193 0.0
C1015 C 0.33357 0.79197 0.32351 0.0
C1016 C 0.33344 0.75477 0.32904 0.0
C1017 C 0.34382 0.74304 0.35272 0.0
H1018 H 0.06924 0.57643 0.61165 0.0
H1019 H 0.13895 0.48429 0.61875 0.0
H1020 H 0.11741 0.47471 0.66144 0.0
H1021 H 0.07446 0.60607 0.67814 0.0
H1022 H 1.02812 0.61897 0.67816 0.0
H1023 H 0.05428 0.62239 0.65012 0.0
H1024 H 1.00736 0.58314 0.62776 0.0
H1025 H 0.9817 0.5785 0.65586 0.0
H1026 H 0.99696 0.53909 0.63973 0.0
H1027 H 0.08092 0.46889 0.70023 0.0
H1028 H 0.03814 0.473 0.73522 0.0
H1029 H 0.99292 0.56907 0.70249 0.0
C1030 C 0.08084 0.55505 0.62255 0.0
C1031 C 0.10584 0.53127 0.61206 0.0
C1032 C 0.12025 0.50327 0.62665 0.0
C1033 C 0.10794 0.49738 0.65083 0.0
C1034 C 0.0816 0.52 0.6601 0.0
C1035 C 0.06887 0.54884 0.64666 0.0
C1036 C 0.03879 0.56752 0.66014 0.0
C1037 C 0.04957 0.60602 0.66706 0.0
C1038 C 1.00418 0.567 0.64496 0.0
C1039 C 0.03566 0.54381 0.68274 0.0
C1040 C 0.06063 0.51665 0.68248 0.0
C1041 C 0.06168 0.49048 0.70092 0.0
C1042 C 0.03721 0.49289 0.72059 0.0
C1043 C 1.01213 0.52124 0.72151 0.0
C1044 C 1.01128 0.54669 0.70215 0.0
H1045 H 0.4906 0.53161 0.21729 0.0
H1046 H 0.50889 0.41706 0.22338 0.0
H1047 H 0.47045 0.40686 0.18731 0.0
H1048 H 0.39427 0.52335 0.1932 0.0
H1049 H 0.40116 0.56188 0.17348 0.0
H1050 H 0.42302 0.55936 0.20305 0.0
H1051 H 0.48423 0.56905 0.18132 0.0
H1052 H 0.46277 0.57133 1.15184 0.0
H1053 H 0.49771 0.53903 1.15688 0.0
H1054 H 0.44398 0.41067 1.14536 0.0
H1055 H 0.42741 0.42828 1.10276 0.0
H1056 H 0.42136 0.53929 1.12563 0.0
C1057 C 0.48517 0.50423 0.21183 0.0
C1058 C 0.50309 0.47522 0.22303 0.0
C1059 C 0.496 0.43984 0.21481 0.0
C1060 C 0.47384 0.43371 0.1945 0.0
C1061 C 0.45811 0.46312 0.18302 0.0
C1062 C 0.46273 0.49765 0.19178 0.0
C1063 C 0.44646 0.52499 0.1745 0.0
C1064 C 0.41431 0.54348 0.1868 0.0
C1065 C 0.47447 0.55268 0.16561 0.0
C1066 C 0.43464 0.50073 1.15371 0.0
C1067 C 0.44095 0.46503 1.15913 0.0
C1068 C 0.43753 0.43832 1.14124 0.0
C1069 C 0.42826 0.44847 1.11711 0.0
C1070 C 0.42228 0.48493 1.11127 0.0
C1071 C 0.42438 0.51108 1.12999 0.0
H1072 H 0.28077 0.40868 0.32865 0.0
H1073 H 0.29254 0.34369 0.26255 0.0
H1074 H 0.27952 0.39648 0.23673 0.0
H1075 H 0.2092 0.46028 0.30895 0.0
H1076 H 0.22441 0.50193 0.32212 0.0
H1077 H 0.23753 0.46002 0.33579 0.0
H1078 H 0.30385 0.47843 0.33106 0.0
H1079 H 0.29046 0.5206 0.31765 0.0
H1080 H 0.32094 0.49179 0.30113 0.0
H1081 H 0.25871 0.45417 0.21818 0.0
H1082 H 0.23211 0.51307 0.20839 0.0
H1083 H 0.23702 0.54243 0.28584 0.0
C1084 C 0.28143 0.40567 0.30874 0.0
C1085 C 0.28738 0.37169 0.29775 0.0
C1086 C 0.28735 0.36907 0.27156 0.0
C1087 C 0.28037 0.39907 0.25666 0.0
C1088 C 0.274 0.4319 0.26807 0.0
C1089 C 0.27481 0.43553 0.2935 0.0
C1090 C 0.26523 0.47354 0.30105 0.0
C1091 C 0.23209 0.47386 0.31799 0.0
C1092 C 0.29703 0.49219 0.31345 0.0
C1093 C 0.25742 0.49022 0.27599 0.0
C1094 C 0.26307 0.46577 0.2572 0.0
C1095 C 0.25489 0.47379 0.23267 0.0
C1096 C 0.2398 0.50731 0.22727 0.0
C1097 C 0.23322 0.53259 0.24623 0.0
C1098 C 0.2429 0.52413 0.27084 0.0
H1099 H 0.4511 0.49361 0.53737 0.0
H1100 H 0.41628 0.59331 0.57092 0.0
H1101 H 0.35565 0.5835 0.55457 0.0
H1102 H 0.39904 0.50051 0.48144 0.0
H1103 H 0.38868 0.45329 0.48045 0.0
H1104 H 0.42956 0.46836 0.49441 0.0
H1105 H 0.41248 0.43531 0.53516 0.0
H1106 H 0.37175 0.41993 0.5212 0.0
H1107 H 0.37009 0.44462 0.5498 0.0
H1108 H 0.29805 0.56184 0.5356 0.0
H1109 H 0.24792 0.52936 0.51633 0.0
H1110 H 0.3204 0.44444 0.49426 0.0
C1111 C 0.43085 0.51362 0.54104 0.0
C1112 C 0.43861 0.54431 0.55545 0.0
C1113 C 0.41103 0.56943 0.56018 0.0
C1114 C 0.37651 0.5642 0.55082 0.0
C1115 C 0.3698 0.53368 0.53673 0.0
C1116 C 0.39617 0.50874 0.53192 0.0
C1117 C 0.38163 0.47762 0.51697 0.0
C1118 C 0.40088 0.47479 0.49182 0.0
C1119 C 0.38414 0.44229 0.53166 0.0
C1120 C 0.34309 0.48912 0.51391 0.0
C1121 C 0.33678 0.52148 0.52552 0.0
C1122 C 0.30281 0.53667 0.52622 0.0
C1123 C 0.27448 0.51807 0.51513 0.0
C1124 C 0.28019 0.48463 0.50333 0.0
C1125 C 0.31518 0.47036 0.50251 0.0
H1126 H 0.32156 0.69938 0.80817 0.0
H1127 H 0.2078 0.67732 0.81136 0.0
H1128 H 0.21813 0.61842 0.79177 0.0
H1129 H 0.33899 0.6595 0.7492 0.0
H1130 H 0.38148 0.64097 0.75794 0.0
H1131 H 0.36525 0.68104 0.77272 0.0
H1132 H 0.37168 0.65062 0.81558 0.0
H1133 H 0.3877 0.61023 0.80109 0.0
H1134 H 0.34951 0.60847 0.82154 0.0
H1135 H 0.2412 0.56118 0.77163 0.0
H1136 H 0.27521 0.51069 0.75346 0.0
H1137 H 0.37345 0.57106 0.76242 0.0
C1138 C 0.29876 0.68229 0.80463 0.0
C1139 C 0.2638 0.69319 0.81137 0.0
C1140 C 0.23486 0.66957 0.8067 0.0
C1141 C 0.24044 0.63608 0.79542 0.0
C1142 C 0.27518 0.6263 0.78891 0.0
C1143 C 0.30387 0.64867 0.79348 0.0
C1144 C 0.33859 0.63162 0.78499 0.0
C1145 C 0.35716 0.65466 0.76502 0.0
C1146 C 0.36333 0.62484 0.80711 0.0
C1147 C 0.32489 0.59661 0.77437 0.0
C1148 C 0.28828 0.59382 0.77702 0.0
C1149 C 0.26985 0.56325 0.76932 0.0
C1150 C 0.28937 0.53473 0.75891 0.0
C1151 C 0.32694 0.53704 0.75599 0.0
C1152 C 0.34468 0.56866 0.76373 0.0
H1153 H 0.1118 0.58961 1.04307 0.0
H1154 H 0.13833 0.48441 1.07217 0.0
H1155 H 0.19973 0.49102 1.05578 0.0
H1156 H 0.16277 0.58207 0.98646 0.0
H1157 H 0.1767 0.6284 0.98632 0.0
H1158 H 0.13485 0.61574 1.00057 0.0
H1159 H 0.15442 0.64501 1.04178 0.0
H1160 H 0.19599 0.6582 1.02742 0.0
H1161 H 0.19616 0.63201 1.05546 0.0
H1162 H 0.2579 0.50873 1.03581 0.0
H1163 H 0.31012 0.53793 1.01643 0.0
H1164 H 0.24559 0.63152 0.99982 0.0
C1165 C 0.13044 0.56783 1.04588 0.0
C1166 C 0.12016 0.53642 1.05891 0.0
C1167 C 0.14562 0.50886 1.06252 0.0
C1168 C 0.18047 0.51227 1.05309 0.0
C1169 C 0.18952 0.54336 1.04008 0.0
C1170 C 0.16534 0.57079 1.03661 0.0
C1171 C 0.18201 0.60162 1.02221 0.0
C1172 C 0.16295 0.60727 0.99742 0.0
C1173 C 0.18216 0.63623 1.03765 0.0
C1174 C 0.21944 0.58733 1.01828 0.0
C1175 C 0.2231 0.55357 1.02856 0.0
C1176 C 0.25533 0.5351 1.02762 0.0
C1177 C 0.28487 0.55191 1.01642 0.0
C1178 C 0.28209 0.58701 1.00637 0.0
C1179 C 0.24865 0.60454 1.00701 0.0
H1180 H 0.87045 0.55975 1.06229 0.0
H1181 H 0.77644 0.49232 1.05563 0.0
H1182 H 0.74578 0.54152 1.03322 0.0
H1183 H 0.82677 0.64485 1.07034 0.0
H1184 H 0.85935 0.66857 1.05173 0.0
H1185 H 0.87214 0.62896 1.06857 0.0
H1186 H 0.89521 0.59997 1.0277 0.0
H1187 H 0.88259 0.6398 1.01103 0.0
H1188 H 0.86555 0.59675 1.00173 0.0
H1189 H 0.72638 0.5988 1.0106 0.0
H1190 H 0.71997 0.65789 0.9901 0.0
H1191 H 0.82834 0.68533 1.01068 0.0
C1192 C 0.84303 0.55548 1.0568 0.0
C1193 C 0.82549 0.52241 1.06129 0.0
C1194 C 0.79012 0.51765 1.05282 0.0
C1195 C 0.77265 0.54536 1.03994 0.0
C1196 C 0.79115 0.57737 1.03542 0.0
C1197 C 0.82563 0.58237 1.04359 0.0
C1198 C 0.84061 0.61827 1.03541 0.0
C1199 C 0.85027 0.64154 1.05785 0.0
C1200 C 0.8729 0.61338 1.01794 0.0
C1201 C 0.80893 0.63326 1.02172 0.0
C1202 C 0.78063 0.60934 1.02183 0.0
C1203 C 0.74841 0.61765 1.01046 0.0
C1204 C 0.74498 0.65134 0.99893 0.0
C1205 C 0.77366 0.67628 0.99873 0.0
C1206 C 0.80607 0.66677 1.01018 0.0
H1207 H 0.61124 0.57607 0.78173 0.0
H1208 H 0.64119 0.46774 0.76126 0.0
H1209 H 0.69986 0.47639 0.78113 0.0
H1210 H 0.69403 0.6151 0.76896 0.0
H1211 H 0.69322 0.64661 0.79423 0.0
H1212 H 0.65205 0.63113 0.78101 0.0
H1213 H 0.62965 0.60866 0.82365 0.0
H1214 H 0.67024 0.62467 0.83755 0.0
H1215 H 0.65694 0.57846 0.84142 0.0
H1216 H 0.75735 0.49909 0.79988 0.0
H1217 H 0.80852 0.5338 0.81591 0.0
H1218 H 0.74017 0.62674 0.8247 0.0
C1219 C 0.63005 0.55407 0.78151 0.0
C1220 C 0.62162 0.52122 0.76991 0.0
C1221 C 0.64691 0.49302 0.77025 0.0
C1222 C 0.68031 0.4977 0.78146 0.0
C1223 C 0.68786 0.5306 0.79252 0.0
C1224 C 0.66332 0.5582 0.79275 0.0
C1225 C 0.67856 0.59156 0.80465 0.0
C1226 C 0.67953 0.62298 0.78612 0.0
C1227 C 0.65759 0.6014 0.82822 0.0
C1228 C 0.71578 0.57868 0.81071 0.0
C1229 C 0.72063 0.5434 0.80368 0.0
C1230 C 0.75365 0.52653 0.80584 0.0
C1231 C 0.78256 0.54644 0.81498 0.0
C1232 C 0.77822 0.58277 0.82199 0.0
C1233 C 0.74415 0.59873 0.82021 0.0
H1234 H 0.74318 0.36678 0.52814 0.0
H1235 H 0.85597 0.39278 0.52265 0.0
H1236 H 0.84531 0.44885 0.54568 0.0
H1237 H 0.7119 0.45368 0.51777 0.0
H1238 H 0.67454 0.45017 0.53886 0.0
H1239 H 0.69214 0.41049 0.52443 0.0
H1240 H 0.70132 0.38231 0.568 0.0
H1241 H 0.68435 0.42247 0.58236 0.0
H1242 H 0.72789 0.40585 0.59043 0.0
H1243 H 0.82153 0.50524 0.56436 0.0
H1244 H 0.78617 0.55811 0.57677 0.0
H1245 H 0.68896 0.49529 0.57147 0.0
C1246 C 0.76568 0.38412 0.53199 0.0
C1247 C 0.80045 0.37529 0.52364 0.0
C1248 C 0.82919 0.39868 0.52913 0.0
C1249 C 0.8234 0.4306 0.54222 0.0
C1250 C 0.78878 0.43861 0.55003 0.0
C1251 C 0.76042 0.41596 0.54524 0.0
C1252 C 0.72548 0.43206 0.55411 0.0
C1253 C 0.69946 0.43685 0.5325 0.0
C1254 C 0.70878 0.40931 0.57497 0.0
C1255 C 0.73842 0.46795 0.5637 0.0
C1256 C 0.77512 0.47098 0.56144 0.0
C1257 C 0.7929 0.50292 0.56671 0.0
C1258 C 0.7726 0.53281 0.57373 0.0
C1259 C 0.73493 0.53058 0.57548 0.0
C1260 C 0.7178 0.49742 0.57109 0.0
H1261 H 0.77441 0.49009 0.27713 0.0
H1262 H 0.79993 0.47393 0.35444 0.0
H1263 H 0.86209 0.49366 0.34607 0.0
H1264 H 0.85563 0.4534 0.25493 0.0
H1265 H 0.8577 0.48275 0.22833 0.0
H1266 H 0.8153 0.47153 0.24225 0.0
H1267 H 0.80233 0.53971 0.24667 0.0
H1268 H 0.8457 0.55052 0.23399 0.0
H1269 H 0.83282 0.56723 0.26402 0.0
H1270 H 0.92258 0.51033 0.32846 0.0
H1271 H 0.97667 0.52172 0.30322 0.0
H1272 H 0.91216 0.52415 0.23691 0.0
C1273 C 0.79278 0.49188 0.29245 0.0
C1274 C 0.78221 0.48128 0.31657 0.0
C1275 C 0.80741 0.48242 0.33592 0.0
C1276 C 0.84273 0.4936 0.33132 0.0
C1277 C 0.85252 0.50313 0.3072 0.0
C1278 C 0.82827 0.50229 0.28808 0.0
C1279 C 0.84638 0.51007 0.26342 0.0
C1280 C 0.84365 0.4775 0.24618 0.0
C1281 C 0.83088 0.54391 0.25132 0.0
C1282 C 0.88451 0.51588 0.27162 0.0
C1283 C 0.88751 0.51176 0.29695 0.0
C1284 C 0.92045 0.51383 0.30865 0.0
C1285 C 0.95109 0.52001 0.2941 0.0
C1286 C 0.94878 0.52381 0.26803 0.0
C1287 C 0.91485 0.52203 0.25679 0.0
H1288 H 0.73541 0.86515 0.78845 0.0
H1289 H 0.83085 0.90172 0.82581 0.0
H1290 H 0.82311 0.96201 0.80756 0.0
H1291 H 0.74741 0.9179 0.73147 0.0
H1292 H 0.70042 0.92733 0.7288 0.0
H1293 H 0.71492 0.88637 0.74335 0.0
H1294 H 0.67793 0.90231 0.78214 0.0
H1295 H 0.66389 0.94415 0.76867 0.0
H1296 H 0.68649 0.9438 0.79801 0.0
H1297 H 0.80363 1.01905 0.78675 0.0
H1298 H 0.772 0.06943 0.76708 0.0
H1299 H 0.68892 0.99625 0.74311 0.0
C1300 C 0.75502 0.88568 0.79245 0.0
C1301 C 0.78384 0.87859 0.80855 0.0
C1302 C 0.80841 0.90651 0.81374 0.0
C1303 C 0.80441 0.94078 0.80327 0.0
C1304 C 0.77568 0.94688 0.78758 0.0
C1305 C 0.75134 0.92014 0.78223 0.0
C1306 C 0.72152 0.93441 0.76611 0.0
C1307 C 0.72106 0.91536 0.74094 0.0
C1308 C 0.68528 0.93098 0.77951 0.0
C1309 C 0.73277 0.97338 0.76335 0.0
C1310 C 0.76427 0.9799 0.77571 0.0
C1311 C 0.77915 1.01416 0.7768 0.0
C1312 C 0.76099 0.04264 0.76548 0.0
C1313 C 0.72818 0.03687 0.75318 0.0
C1314 C 0.71436 1.00153 0.75177 0.0
H1315 H 0.78307 0.98508 1.0306 0.0
H1316 H 0.81629 0.9626 0.95515 0.0
H1317 H 0.87591 0.98794 0.96388 0.0
H1318 H 0.83454 0.06913 1.03813 0.0
H1319 H 0.84545 0.0591 1.06983 0.0
H1320 H 0.8043 0.04274 1.05693 0.0
H1321 H 0.82149 0.97809 1.06918 0.0
H1322 H 0.86279 0.99397 1.08196 0.0
H1323 H 0.86338 0.95975 1.05849 0.0
H1324 H 0.93293 1.01199 0.9814 0.0
H1325 H 0.98366 0.03258 1.00644 0.0
H1326 H 0.91422 0.03877 1.071 0.0
C1327 C 0.80257 0.98641 1.01572 0.0
C1328 C 0.79483 0.97238 0.99203 0.0
C1329 C 0.82151 0.97349 0.97333 0.0
C1330 C 0.85545 0.98783 0.97813 0.0
C1331 C 0.86245 1.00077 1.00179 0.0
C1332 C 0.83677 1.00028 1.02029 0.0
C1333 C 0.85194 1.01377 1.04454 0.0
C1334 C 0.83293 0.04824 1.05284 0.0
C1335 C 0.84978 0.98464 1.06473 0.0
C1336 C 0.89033 1.02132 1.03687 0.0
C1337 C 0.89565 1.014 1.01207 0.0
C1338 C 0.92897 1.01817 1.00078 0.0
C1339 C 0.95764 1.0301 1.01517 0.0
C1340 C 0.95306 0.03765 1.04071 0.0
C1341 C 0.91876 0.03317 1.05159 0.0
H1342 H 0.88614 0.07471 0.25396 0.0
H1343 H 0.7876 1.0144 0.24688 0.0
H1344 H 0.75341 0.06679 0.26154 0.0
H1345 H 0.863 0.11661 0.30966 0.0
H1346 H 0.88357 0.15933 0.30284 0.0
H1347 H 0.90062 0.11919 0.28867 0.0
H1348 H 0.8925 0.14642 0.24515 0.0
H1349 H 0.87607 0.18719 0.25896 0.0
H1350 H 0.84956 0.16388 0.2364 0.0
H1351 H 0.73015 0.12361 0.27995 0.0
H1352 H 0.71904 0.18199 0.29984 0.0
H1353 H 0.8325 0.20589 0.29644 0.0
C1354 C 0.85728 0.07303 0.25471 0.0
C1355 C 0.83943 0.04067 0.24881 0.0
C1356 C 0.80175 0.03903 0.251 0.0
C1357 C 0.7821 0.06864 0.25936 0.0
C1358 C 0.80047 0.09981 0.26565 0.0
C1359 C 0.83719 0.10238 0.26332 0.0
C1360 C 0.85039 0.13827 0.27297 0.0
C1361 C 0.87589 0.13302 0.29484 0.0
C1362 C 0.86818 0.16024 0.25212 0.0
C1363 C 0.81545 0.15521 0.28129 0.0
C1364 C 0.78702 0.13255 0.27678 0.0
C1365 C 0.7522 0.14166 0.28346 0.0
C1366 C 0.74619 0.17482 0.29497 0.0
C1367 C 0.77481 0.19868 0.29985 0.0
C1368 C 0.80992 0.18857 0.29275 0.0
H1369 H 0.78137 0.05059 0.51337 0.0
H1370 H 0.75136 0.15913 0.4931 0.0
H1371 H 0.69124 0.14892 0.51026 0.0
H1372 H 0.69019 1.01339 0.4974 0.0
H1373 H 0.69173 0.97989 0.52147 0.0
H1374 H 0.7324 0.99455 0.50643 0.0
H1375 H 0.75933 1.01148 0.54897 0.0
H1376 H 0.71888 0.99553 0.56353 0.0
H1377 H 0.73441 0.04021 0.56942 0.0
H1378 H 0.63756 0.13053 0.53359 0.0
H1379 H 0.58889 0.10169 0.5573 0.0
H1380 H 0.64959 1.00277 0.56021 0.0
C1381 C 0.76181 0.07185 0.51215 0.0
C1382 C 0.77101 0.10563 0.50176 0.0
C1383 C 0.74483 0.13289 0.50056 0.0
C1384 C 0.71062 0.12745 0.51043 0.0
C1385 C 0.70252 0.09424 0.52088 0.0
C1386 C 0.72687 0.06645 0.52125 0.0
C1387 C 0.71025 0.03304 0.53292 0.0
C1388 C 0.70588 1.00348 0.51339 0.0
C1389 C 0.73203 1.01934 0.555 0.0
C1390 C 0.67406 0.04762 0.54097 0.0
C1391 C 0.67022 0.08286 0.53347 0.0
C1392 C 0.63995 0.10279 0.53928 0.0
C1393 C 0.61259 0.08628 0.55295 0.0
C1394 C 0.61548 0.05009 0.56068 0.0
C1395 C 0.64659 1.03042 0.55442 0.0
H1396 H 0.28818 0.16157 0.49587 0.0
H1397 H 0.30625 0.23098 0.5589 0.0
H1398 H 0.32176 0.17824 0.58429 0.0
H1399 H 0.24969 0.08554 0.53119 0.0
H1400 H 0.2711 0.05266 0.51174 0.0
H1401 H 0.25871 0.09561 0.49909 0.0
H1402 H 0.32365 0.10538 0.48429 0.0
H1403 H 0.33703 0.06316 0.49743 0.0
H1404 H 0.35925 0.10405 0.50646 0.0
H1405 H 0.3393 0.11858 0.60207 0.0
H1406 H 0.35887 0.05651 0.61052 0.0
H1407 H 0.32807 1.02576 0.53627 0.0
C1408 C 0.29471 0.16562 0.51514 0.0
C1409 C 0.29606 0.20049 0.52535 0.0
C1410 C 0.30548 0.20462 0.55054 0.0
C1411 C 0.31401 0.17478 0.5652 0.0
C1412 C 0.31275 0.14086 0.5545 0.0
C1413 C 0.30322 0.13609 0.53007 0.0
C1414 C 0.30593 0.09699 0.52269 0.0
C1415 C 0.26916 0.08181 0.51577 0.0
C1416 C 0.33309 0.09209 0.50146 0.0
C1417 C 0.31921 0.08068 0.54663 0.0
C1418 C 0.32264 0.10638 0.56482 0.0
C1419 C 0.33628 0.09811 0.58808 0.0
C1420 C 0.3473 0.06278 0.59273 0.0
C1421 C 0.34457 0.03613 0.57423 0.0
C1422 C 0.32973 0.04524 0.55105 0.0
H1423 H 0.11403 0.08175 0.27775 0.0
H1424 H 0.14402 0.97168 0.26232 0.0
H1425 H 0.20076 0.98084 0.28437 0.0
H1426 H 0.19891 0.11839 0.2676 0.0
H1427 H 0.19636 0.15171 0.29169 0.0
H1428 H 0.15622 0.13589 0.27721 0.0
H1429 H 0.12997 0.11734 0.31977 0.0
H1430 H 0.1698 0.13343 0.33467 0.0
H1431 H 0.15501 0.08788 0.33961 0.0
H1432 H 0.2559 1.00293 0.30494 0.0
H1433 H 0.30711 0.03741 0.32089 0.0
H1434 H 0.24178 0.13316 0.32378 0.0
C1435 C 0.13226 0.0594 0.27945 0.0
C1436 C 0.12457 1.02596 0.26834 0.0
C1437 C 0.14948 0.99761 0.27048 0.0
C1438 C 0.18162 1.00245 0.28318 0.0
C1439 C 0.18851 0.03578 0.29375 0.0
C1440 C 0.1646 0.06382 0.29201 0.0
C1441 C 0.17982 0.09774 0.30332 0.0
C1442 C 0.18303 0.12772 0.2838 0.0
C1443 C 0.1573 0.1098 0.32567 0.0
C1444 C 0.21624 0.08454 0.31131 0.0
C1445 C 0.2205 0.04859 0.30582 0.0
C1446 C 0.2527 1.03091 0.30971 0.0
C1447 C 0.2816 0.05068 0.31882 0.0
C1448 C 0.27816 0.0877 0.32405 0.0
C1449 C 0.24479 0.10461 0.32077 0.0
H1450 H 0.25655 0.0422 1.04015 0.0
H1451 H 0.2035 1.00793 1.10792 0.0
H1452 H 0.22699 0.94667 1.10188 0.0
H1453 H 0.23531 0.9673 1.00713 0.0
H1454 H 0.27603 0.96504 0.98917 0.0
H1455 H 0.26075 1.0075 1.00089 0.0
H1456 H 0.32071 1.01685 1.02373 0.0
H1457 H 0.33659 0.97463 1.01182 0.0
H1458 H 0.33636 0.98272 1.04468 0.0
H1459 H 0.2508 0.88791 1.08611 0.0
H1460 H 0.27172 0.83622 1.06153 0.0
H1461 H 0.30767 0.90858 1.00342 0.0
C1462 C 0.25076 1.02214 1.05416 0.0
C1463 C 0.22844 1.02998 1.07465 0.0
C1464 C 0.2207 1.00263 1.09215 0.0
C1465 C 0.23405 0.96777 1.08892 0.0
C1466 C 0.25519 0.96072 1.06814 0.0
C1467 C 0.26369 0.98723 1.05114 0.0
C1468 C 0.28358 0.97197 1.02906 0.0
C1469 C 0.26272 0.97838 1.0051 0.0
C1470 C 0.32157 0.98746 1.02722 0.0
C1471 C 0.28404 0.93256 1.03589 0.0
C1472 C 0.2681 0.9267 1.05871 0.0
C1473 C 0.26379 0.89226 1.06839 0.0
C1474 C 0.27579 0.86306 1.0543 0.0
C1475 C 0.29147 0.86838 1.03061 0.0
C1476 C 0.29584 0.90369 1.02146 0.0
H1477 H 0.44258 0.98082 0.76173 0.0
H1478 H 0.42294 0.09537 0.75716 0.0
H1479 H 0.36572 0.08709 0.7793 0.0
H1480 H 0.35163 0.95258 0.75167 0.0
H1481 H 0.35476 0.91553 0.77311 0.0
H1482 H 0.39408 0.93141 0.75715 0.0
H1483 H 0.42429 0.93935 0.79998 0.0
H1484 H 0.38404 0.92474 0.81554 0.0
H1485 H 0.40348 0.96765 0.82289 0.0
H1486 H 0.30963 0.06657 0.80031 0.0
H1487 H 0.25683 0.03458 0.81693 0.0
H1488 H 0.31209 0.93317 0.80844 0.0
C1489 C 0.42615 1.00413 0.76527 0.0
C1490 C 0.43751 0.03883 0.75782 0.0
C1491 C 0.41523 0.06862 0.76301 0.0
C1492 C 0.38259 0.06419 0.77555 0.0
C1493 C 0.37245 1.02978 0.78291 0.0
C1494 C 0.39342 1.00021 0.77789 0.0
C1495 C 0.3757 0.96609 0.78735 0.0
C1496 C 0.36861 0.93989 0.76602 0.0
C1497 C 0.39823 0.94842 0.80765 0.0
C1498 C 0.34114 0.98103 0.79793 0.0
C1499 C 0.34005 1.01791 0.79536 0.0
C1500 C 0.3103 0.03773 0.80263 0.0
C1501 C 0.28045 1.01934 0.81211 0.0
C1502 C 0.2805 0.98147 0.81434 0.0
C1503 C 0.31161 0.9622 0.80763 0.0
H1504 H 0.34679 0.13911 0.23308 0.0
H1505 H 0.26342 0.18234 0.28053 0.0
H1506 H 0.22071 0.17795 0.24639 0.0
H1507 H 0.31724 0.18662 0.17713 0.0
H1508 H 0.32822 0.15034 1.15647 0.0
H1509 H 0.35276 0.15607 0.18474 0.0
H1510 H 0.33746 0.09098 0.19747 0.0
H1511 H 0.31263 0.08505 0.16935 0.0
H1512 H 0.29142 0.07686 0.1989 0.0
H1513 H 0.18415 0.16439 0.20746 0.0
H1514 H 0.16064 0.15258 0.16549 0.0
H1515 H 0.26702 0.12324 1.14089 0.0
C1516 C 0.3196 0.14781 0.23631 0.0
C1517 C 0.30909 0.16121 0.26005 0.0
C1518 C 0.27292 0.1722 0.26292 0.0
C1519 C 0.24804 0.16952 0.24351 0.0
C1520 C 0.259 0.15588 0.22068 0.0
C1521 C 0.29415 0.14587 0.21677 0.0
C1522 C 0.29904 0.13374 0.18988 0.0
C1523 C 0.32591 0.15815 0.17625 0.0
C1524 C 0.31084 0.09431 0.18885 0.0
C1525 C 0.26129 0.13826 0.17948 0.0
C1526 C 0.23847 0.15046 0.19776 0.0
C1527 C 0.20204 0.15528 0.19298 0.0
C1528 C 0.18872 0.14826 0.16898 0.0
C1529 C 0.21161 0.13713 1.14946 0.0
C1530 C 0.24853 0.132 1.15513 0.0
H1531 H 0.65076 0.44596 0.41548 0.0
H1532 H 0.71946 0.51778 0.37327 0.0
H1533 H 0.72037 0.55997 0.4081 0.0
H1534 H 0.59861 0.51617 0.4452 0.0
H1535 H 0.59474 0.49409 0.47482 0.0
H1536 H 0.59987 0.4679 0.44704 0.0
H1537 H 0.65485 0.4368 0.46552 0.0
H1538 H 0.65033 0.46295 0.49335 0.0
H1539 H 0.69182 0.46353 0.47605 0.0
H1540 H 0.71174 0.59709 0.44599 0.0
H1541 H 0.69883 0.6245 0.48624 0.0
H1542 H 0.63679 0.53059 0.50764 0.0
C1543 C 0.66661 0.47018 0.41382 0.0
C1544 C 0.68546 0.47802 0.39129 0.0
C1545 C 0.70498 0.5107 0.39004 0.0
C1546 C 0.70556 0.53511 0.40983 0.0
C1547 C 0.68632 0.5272 0.43136 0.0
C1548 C 0.66739 0.49546 0.43375 0.0
C1549 C 0.64886 0.4945 0.45924 0.0
C1550 C 0.6081 0.49307 0.4564 0.0
C1551 C 0.66227 0.46253 0.47447 0.0
C1552 C 0.66063 0.53038 0.47068 0.0
C1553 C 0.68188 0.54875 0.4539 0.0
C1554 C 0.69534 0.58275 0.45933 0.0
C1555 C 0.6876 0.59831 0.48247 0.0
C1556 C 0.66662 0.58028 0.50069 0.0
C1557 C 0.65283 0.54555 0.49441 0.0
H1558 H 0.21334 0.93095 0.72732 0.0
H1559 H 0.28476 0.87138 0.77499 0.0
H1560 H 0.33034 0.87126 0.74192 0.0
H1561 H 0.24011 0.88389 0.66998 0.0
H1562 H 0.23632 0.92336 0.65084 0.0
H1563 H 0.20874 0.91857 0.67814 0.0
H1564 H 0.23216 0.97943 0.69424 0.0
H1565 H 0.26007 0.98426 0.66711 0.0
H1566 H 0.27957 0.98628 0.69745 0.0
H1567 H 0.37215 0.8838 0.70487 0.0
H1568 H 0.4012 0.89732 0.66449 0.0
H1569 H 0.30226 0.94323 0.63829 0.0
C1570 C 0.2384 0.91753 0.73078 0.0
C1571 C 0.24485 0.90108 0.75424 0.0
C1572 C 0.2784 0.88401 0.75751 0.0
C1573 C 0.30488 0.88405 0.73875 0.0
C1574 C 0.29806 0.90117 0.71627 0.0
C1575 C 0.26527 0.91683 0.71194 0.0
C1576 C 0.26454 0.93216 0.68563 0.0
C1577 C 0.23571 0.91337 0.67024 0.0
C1578 C 0.25873 0.97296 0.68614 0.0
C1579 C 0.30202 0.92305 0.67603 0.0
C1580 C 0.32116 0.90578 0.69425 0.0
C1581 C 0.35704 0.89668 0.69037 0.0
C1582 C 0.37351 0.90466 0.66731 0.0
C1583 C 0.35423 0.92093 0.64782 0.0
C1584 C 0.31783 0.93022 0.65251 0.0
H1585 H 0.92716 0.59123 0.90491 0.0
H1586 H 0.81358 0.61278 0.90802 0.0
H1587 H 0.80818 0.5744 0.94533 0.0
H1588 H 0.92641 0.50078 0.92567 0.0
H1589 H 0.96501 0.50409 0.94525 0.0
H1590 H 0.96066 0.53358 0.91897 0.0
H1591 H 0.96723 0.58888 0.9474 0.0
H1592 H 0.97209 0.5595 0.97372 0.0
H1593 H 0.938 0.59352 0.97387 0.0
H1594 H 0.8138 0.52698 0.97944 0.0
H1595 H 0.83096 0.48467 1.01223 0.0
H1596 H 0.94259 0.49964 0.99285 0.0
C1597 C 0.90122 0.58832 0.91367 0.0
C1598 C 0.87068 0.60537 0.90318 0.0
C1599 C 0.83741 0.60061 0.9155 0.0
C1600 C 0.83406 0.57846 0.93671 0.0
C1601 C 0.86438 0.56157 0.94621 0.0
C1602 C 0.89759 0.56721 0.9356 0.0
C1603 C 0.9261 0.54718 0.95045 0.0
C1604 C 0.94571 0.51979 0.9341 0.0
C1605 C 0.95242 0.57386 0.96204 0.0
C1606 C 0.90366 0.52833 0.97048 0.0
C1607 C 0.86801 0.53667 0.96729 0.0
C1608 C 0.84172 0.5209 0.98222 0.0
C1609 C 0.85186 0.49658 1.00093 0.0
C1610 C 0.88824 0.48853 1.0057 0.0
C1611 C 0.91453 0.50505 0.99008 0.0
H1612 H 0.80101 0.94418 0.17633 0.0
H1613 H 0.90716 0.91281 1.15242 0.0
H1614 H 0.88395 0.89982 1.1107 0.0
H1615 H 0.75003 0.88064 1.14069 0.0
H1616 H 0.71526 0.91158 1.13225 0.0
H1617 H 0.73952 0.91797 0.16056 0.0
H1618 H 0.7568 0.98228 1.14674 0.0
H1619 H 0.73232 0.97611 1.11848 0.0
H1620 H 0.77873 0.98898 1.11725 0.0
H1621 H 0.84869 0.88651 1.07186 0.0
H1622 H 0.80683 0.88153 1.03737 0.0
H1623 H 0.72256 0.92638 1.08332 0.0
C1624 C 0.8194 0.93455 0.16232 0.0
C1625 C 0.85623 0.92924 0.16811 0.0
C1626 C 0.8791 0.91717 1.14884 0.0
C1627 C 0.86601 0.90953 1.12496 0.0
C1628 C 0.82978 0.91469 1.11997 0.0
C1629 C 0.80685 0.92771 1.13793 0.0
C1630 C 0.76943 0.9326 1.12702 0.0
C1631 C 0.74193 0.90932 1.14097 0.0
C1632 C 0.75868 0.97236 1.1274 0.0
C1633 C 0.77468 0.91944 1.10038 0.0
C1634 C 0.80974 0.90891 1.09698 0.0
C1635 C 0.82127 0.8949 1.0744 0.0
C1636 C 0.7969 0.89201 1.05476 0.0
C1637 C 0.76075 0.90323 1.05712 0.0
C1638 C 0.74973 0.91734 1.08055 0.0
H1639 H 0.43301 0.5776 0.92004 0.0
H1640 H 0.32413 0.61633 0.91518 0.0
H1641 H 0.31607 0.5822 0.87668 0.0
H1642 H 0.45027 0.58234 0.85227 0.0
H1643 H 0.47787 0.54281 0.85178 0.0
H1644 H 0.47569 0.57016 0.8792 0.0
H1645 H 0.45686 0.51457 0.90495 0.0
H1646 H 0.45872 0.48713 0.87757 0.0
H1647 H 0.41829 0.48891 0.89584 0.0
H1648 H 0.31728 0.5398 0.84038 0.0
H1649 H 0.32994 0.499 0.80583 0.0
H1650 H 0.4402 0.49076 0.82917 0.0
C1651 C 0.40754 0.57913 0.91079 0.0
C1652 C 0.37914 0.60006 0.92114 0.0
C1653 C 0.34646 0.60105 0.90801 0.0
C1654 C 0.34151 0.58143 0.88602 0.0
C1655 C 0.36962 0.56095 0.87656 0.0
C1656 C 0.40233 0.5602 0.88816 0.0
C1657 C 0.42834 0.5368 0.8732 0.0
C1658 C 0.45992 0.55937 0.86354 0.0
C1659 C 0.44133 0.50497 0.88883 0.0
C1660 C 0.40491 0.52395 0.85179 0.0
C1661 C 0.37099 0.53803 0.85447 0.0
C1662 C 0.34388 0.52899 0.83806 0.0
C1663 C 0.3514 0.50542 0.81839 0.0
C1664 C 0.3861 0.49117 0.81433 0.0
C1665 C 0.41336 0.50099 0.83142 0.0
H1666 H 0.70479 0.10032 0.65185 0.0
H1667 H 0.73018 0.20145 0.68725 0.0
H1668 H 0.7691 0.21783 0.65213 0.0
H1669 H 0.7915 0.083 0.62743 0.0
H1670 H 0.778 0.06568 0.59789 0.0
H1671 H 0.74862 0.06142 0.62434 0.0
H1672 H 0.69905 0.09199 0.60044 0.0
H1673 H 0.7266 0.1009 0.57352 0.0
H1674 H 0.70492 0.1372 0.58915 0.0
H1675 H 0.8062 0.22438 0.6126 0.0
H1676 H 0.84011 0.21836 0.57323 0.0
H1677 H 0.79587 0.11191 0.56345 0.0
C1678 C 0.71812 0.12612 0.65206 0.0
C1679 C 0.71382 0.14956 0.67273 0.0
C1680 C 0.73258 0.18278 0.67201 0.0
C1681 C 0.75495 0.19248 0.65197 0.0
C1682 C 0.75912 0.16878 0.63226 0.0
C1683 C 0.74128 0.13621 0.63206 0.0
C1684 C 0.7514 0.11559 0.60857 0.0
C1685 C 0.76835 0.07925 0.61494 0.0
C1686 C 0.71852 0.11105 0.59199 0.0
C1687 C 0.77867 0.14084 0.59632 0.0
C1688 C 0.78192 0.17184 0.61002 0.0
C1689 C 0.80405 0.19996 0.60193 0.0
C1690 C 0.82336 0.19634 0.57948 0.0
C1691 C 0.82154 0.16446 0.56537 0.0
C1692 C 0.79868 0.13635 0.57406 0.0
H1693 H 0.20171 0.50941 0.42438 0.0
H1694 H 0.15977 0.4068 0.40071 0.0
H1695 H 0.14477 0.43346 0.35998 0.0
H1696 H 0.14047 0.5673 0.39339 0.0
H1697 H 0.17327 0.60016 0.38391 0.0
H1698 H 0.18039 0.57353 0.41131 0.0
H1699 H 0.24097 0.55203 0.39374 0.0
H1700 H 0.23429 0.57871 0.3663 0.0
H1701 H 0.24278 0.5313 0.36368 0.0
H1702 H 0.12985 0.47316 0.3225 0.0
H1703 H 0.12595 0.51802 0.28914 0.0
H1704 H 0.18357 0.59453 0.33424 0.0
C1705 C 0.18964 0.49244 0.41053 0.0
C1706 C 0.1818 0.45573 0.41604 0.0
C1707 C 0.16628 0.43468 0.39715 0.0
C1708 C 0.15738 0.44981 0.37394 0.0
C1709 C 0.16484 0.48611 0.36931 0.0
C1710 C 0.18167 0.50689 0.38684 0.0
C1711 C 0.18874 0.54462 0.37652 0.0
C1712 C 0.16958 0.57309 0.39222 0.0
C1713 C 0.22909 0.55211 0.37496 0.0
C1714 C 0.17251 0.5422 0.35068 0.0
C1715 C 0.15828 0.5083 0.34718 0.0
C1716 C 0.14109 0.49963 0.32516 0.0
C1717 C 0.13887 0.52565 0.3062 0.0
C1718 C 0.15419 0.56041 0.30866 0.0
C1719 C 0.17135 0.56852 0.33148 0.0
H1720 H 0.76791 0.61952 0.63983 0.0
H1721 H 0.66055 0.64361 0.66523 0.0
H1722 H 0.68375 0.65448 0.70734 0.0
H1723 H 0.79431 0.57179 0.69684 0.0
H1724 H 0.83977 0.58773 0.69568 0.0
H1725 H 0.81507 0.58215 0.66746 0.0
H1726 H 0.82781 0.64829 0.65584 0.0
H1727 H 0.85234 0.65413 0.6841 0.0
H1728 H 0.81545 0.68333 0.67715 0.0
H1729 H 0.71951 0.66798 0.7462 0.0
H1730 H 0.76174 0.67323 0.7804 0.0
H1731 H 0.84736 0.63556 0.73255 0.0
C1732 C 0.74917 0.62691 0.65428 0.0
C1733 C 0.71201 0.63084 0.64878 0.0
C1734 C 0.68881 0.64023 0.66857 0.0
C1735 C 0.70193 0.64669 0.69266 0.0
C1736 C 0.73853 0.64307 0.69729 0.0
C1737 C 0.76178 0.63259 0.67877 0.0
C1738 C 0.79974 0.62929 0.68912 0.0
C1739 C 0.81301 0.59043 0.68715 0.0
C1740 C 0.82535 0.65531 0.67575 0.0
C1741 C 0.79438 0.64014 0.71625 0.0
C1742 C 0.75881 0.64842 0.72028 0.0
C1743 C 0.74718 0.66079 0.74326 0.0
C1744 C 0.77184 0.66404 0.7627 0.0
C1745 C 0.80855 0.65497 0.75976 0.0
C1746 C 0.81975 0.64267 0.73587 0.0
H1747 H 0.15735 0.94629 0.91649 0.0
H1748 H 0.20367 1.02819 0.86874 0.0
H1749 H 0.20219 0.07116 0.90304 0.0
H1750 H 0.0977 1.00819 0.95075 0.0
H1751 H 0.10325 0.98604 0.98016 0.0
H1752 H 0.10741 0.96088 0.95185 0.0
H1753 H 0.16843 0.93962 0.96587 0.0
H1754 H 0.16804 0.96664 0.9935 0.0
H1755 H 0.20357 0.97161 0.97087 0.0
H1756 H 0.19485 0.10715 0.94179 0.0
H1757 H 0.18524 0.13272 0.98308 0.0
H1758 H 0.14429 1.03018 1.00918 0.0
C1759 C 0.16748 0.97315 0.91333 0.0
C1760 C 0.18083 0.98333 0.88938 0.0
C1761 C 0.19323 1.01919 0.88646 0.0
C1762 C 0.19245 0.04411 0.906 0.0
C1763 C 0.17878 0.03364 0.92899 0.0
C1764 C 0.1664 0.99909 0.93291 0.0
C1765 C 0.15316 0.99559 0.95984 0.0
C1766 C 0.11299 0.98716 0.9607 0.0
C1767 C 0.17454 0.96664 0.9734 0.0
C1768 C 0.16068 0.03322 0.97037 0.0
C1769 C 0.17508 0.05462 0.9519 0.0
C1770 C 0.18374 0.09047 0.95638 0.0
C1771 C 0.17811 0.1049 0.98017 0.0
C1772 C 0.16404 0.084 1.00003 0.0
C1773 C 0.15494 0.04738 0.99472 0.0
H1774 H 0.85723 0.38564 0.1611 0.0
H1775 H 0.8344 0.49609 1.14156 0.0
H1776 H 0.7898 0.49895 0.17542 0.0
H1777 H 0.7682 0.35903 0.17967 0.0
H1778 H 0.78182 0.33253 0.20588 0.0
H1779 H 0.81156 0.33818 0.17976 0.0
H1780 H 0.86038 0.3624 0.20859 0.0
H1781 H 0.83101 0.35716 0.23494 0.0
H1782 H 0.85097 0.40017 0.22823 0.0
H1783 H 0.74329 0.48841 0.20906 0.0
H1784 H 0.70731 0.47017 0.24532 0.0
H1785 H 0.76414 0.36906 0.24842 0.0
C1786 C 0.84312 0.41057 0.16413 0.0
C1787 C 0.84962 0.44074 1.14835 0.0
C1788 C 0.83046 0.47273 1.15325 0.0
C1789 C 0.80467 0.47448 0.1724 0.0
C1790 C 0.79843 0.44426 0.18721 0.0
C1791 C 0.81789 0.4132 0.18388 0.0
C1792 C 0.80719 0.38542 0.20359 0.0
C1793 C 0.79125 0.35179 0.1915 0.0
C1794 C 0.83928 0.37572 0.21981 0.0
C1795 C 0.77869 0.40567 0.21843 0.0
C1796 C 0.77339 0.43914 0.208 0.0
C1797 C 0.74746 0.46233 0.21738 0.0
C1798 C 0.72687 0.45155 0.23805 0.0
C1799 C 0.73242 0.41807 0.25 0.0
C1800 C 0.75901 0.39485 0.23991 0.0
H1801 H 0.39325 0.96841 0.48219 0.0
H1802 H 0.43719 0.04966 0.53067 0.0
H1803 H 0.43152 0.09463 0.49758 0.0
H1804 H 0.43754 1.00173 0.42554 0.0
H1805 H 0.40021 0.99171 0.40586 0.0
H1806 H 0.4076 0.96538 0.43335 0.0
H1807 H 0.34363 0.9795 0.44852 0.0
H1808 H 0.33603 1.00612 0.42118 0.0
H1809 H 0.32971 1.02557 0.45139 0.0
H1810 H 0.41584 0.13354 0.45986 0.0
H1811 H 0.40132 0.15974 0.41895 0.0
H1812 H 0.37258 0.05401 0.39245 0.0
C1813 C 0.40206 0.99554 0.48582 0.0
C1814 C 0.41591 1.00484 0.50954 0.0
C1815 C 0.42681 0.04107 0.51301 0.0
C1816 C 0.42352 0.06718 0.49418 0.0
C1817 C 0.4093 0.05736 0.47137 0.0
C1818 C 0.39937 1.02221 0.4669 0.0
C1819 C 0.38573 1.01885 0.44036 0.0
C1820 C 0.40917 0.99287 0.42539 0.0
C1821 C 0.34644 1.00679 0.44037 0.0
C1822 C 0.38955 0.05743 0.4307 0.0
C1823 C 0.40243 0.07935 0.44916 0.0
C1824 C 0.40633 0.11636 0.44521 0.0
C1825 C 0.39777 0.13119 0.42183 0.0
C1826 C 0.38607 0.10928 0.40207 0.0
C1827 C 0.38186 0.07173 0.40688 0.0
H1828 H 0.3466 0.3874 0.66256 0.0
H1829 H 0.3472 0.50343 0.66801 0.0
H1830 H 0.30975 0.50721 0.63065 0.0
H1831 H 0.35243 0.3861 0.59386 0.0
H1832 H 0.32456 0.34684 0.59107 0.0
H1833 H 0.35141 0.35301 0.61827 0.0
H1834 H 0.29486 0.34671 0.64575 0.0
H1835 H 0.26784 0.34091 0.61861 0.0
H1836 H 0.25737 0.37589 0.64042 0.0
H1837 H 0.26732 0.49845 0.59438 0.0
H1838 H 0.23131 0.47893 0.55894 0.0
H1839 H 0.2621 0.3686 0.57243 0.0
C1840 C 0.33918 0.41366 0.65575 0.0
C1841 C 0.35021 0.44523 0.66863 0.0
C1842 C 0.33969 0.47885 0.65874 0.0
C1843 C 0.31806 0.48125 0.63747 0.0
C1844 C 0.30735 0.44981 0.6255 0.0
C1845 C 0.31827 0.41661 0.63392 0.0
C1846 C 0.30397 0.38713 0.61685 0.0
C1847 C 0.33494 0.36708 0.60427 0.0
C1848 C 0.27956 0.36112 0.63127 0.0
C1849 C 0.28267 0.40881 0.5979 0.0
C1850 C 0.28469 0.44491 0.60358 0.0
C1851 C 0.26599 0.47026 0.58975 0.0
C1852 C 0.24517 0.45876 0.56961 0.0
C1853 C 0.24323 0.42211 0.5626 0.0
C1854 C 0.26272 0.39682 0.57706 0.0
H1855 H 0.86658 0.05112 0.42899 0.0
H1856 H 0.90946 0.15341 0.40427 0.0
H1857 H 0.92168 0.12739 0.36301 0.0
H1858 H 0.92617 0.99309 0.39487 0.0
H1859 H 0.89252 0.96069 0.38662 0.0
H1860 H 0.88751 0.98663 0.4145 0.0
H1861 H 0.82592 1.00889 0.39979 0.0
H1862 H 0.8307 0.9828 0.37195 0.0
H1863 H 0.82226 1.0303 0.36996 0.0
H1864 H 0.93359 0.08911 0.32511 0.0
H1865 H 0.93591 0.04542 0.29128 0.0
H1866 H 0.88002 0.9675 0.33737 0.0
C1867 C 0.87852 0.06809 0.41488 0.0
C1868 C 0.88732 0.10462 0.42029 0.0
C1869 C 0.9024 0.12565 0.40094 0.0
C1870 C 0.90962 0.11092 0.37735 0.0
C1871 C 0.901 0.07499 0.37276 0.0
C1872 C 0.88501 0.05397 0.3908 0.0
C1873 C 0.87696 1.01653 0.38039 0.0
C1874 C 0.89699 0.98752 0.39497 0.0
C1875 C 0.83655 1.0092 0.38054 0.0
C1876 C 0.89146 1.0196 0.35386 0.0
C1877 C 0.90565 0.05352 0.35016 0.0
C1878 C 0.92206 0.06272 0.32778 0.0
C1879 C 0.92351 0.03727 0.30858 0.0
C1880 C 0.90838 1.00239 0.31119 0.0
C1881 C 0.89194 0.99367 0.33442 0.0
H1882 H 0.22212 0.58548 1.15621 0.0
H1883 H 0.20995 0.6976 0.17578 0.0
H1884 H 0.24812 0.71494 1.14042 0.0
H1885 H 0.31521 0.59244 1.13796 0.0
H1886 H 0.3123 0.56161 1.11244 0.0
H1887 H 0.28221 0.55714 1.13846 0.0
H1888 H 0.22845 0.56056 1.109 0.0
H1889 H 0.25819 0.56539 1.08281 0.0
H1890 H 0.22412 0.59841 1.08849 0.0
H1891 H 0.28859 0.72132 1.1029 0.0
H1892 H 0.32838 0.71585 1.0665 0.0
H1893 H 0.31843 0.59995 1.07032 0.0
C1894 C 0.22698 0.61371 1.1528 0.0
C1895 C 0.21221 0.64013 0.16906 0.0
C1896 C 0.22036 0.67666 0.16392 0.0
C1897 C 0.24222 0.68688 1.14371 0.0
C1898 C 0.25666 0.66046 1.12838 0.0
C1899 C 0.24945 0.62453 1.1326 0.0
C1900 C 0.26974 0.60174 1.11351 0.0
C1901 C 0.29644 0.57675 1.12637 0.0
C1902 C 0.24357 0.58025 1.0975 0.0
C1903 C 0.28929 0.63045 1.09809 0.0
C1904 C 0.28107 0.66413 1.10703 0.0
C1905 C 0.29525 0.695 1.09587 0.0
C1906 C 0.31809 0.69161 1.07509 0.0
C1907 C 0.32743 0.65756 1.06537 0.0
C1908 C 0.31265 0.62651 1.07732 0.0
H1909 H 0.6958 1.00944 0.92561 0.0
H1910 H 0.66796 0.90414 0.89776 0.0
H1911 H 0.6528 0.93128 0.85733 0.0
H1912 H 0.62914 0.06117 0.89308 0.0
H1913 H 0.65833 0.09844 0.88604 0.0
H1914 H 0.66601 0.07134 0.91314 0.0
H1915 H 0.73058 0.05837 0.89822 0.0
H1916 H 0.72277 0.08622 0.87158 0.0
H1917 H 0.73782 0.04072 0.86755 0.0
H1918 H 0.63617 0.97052 0.82067 0.0
H1919 H 0.62974 1.01565 0.78796 0.0
H1920 H 0.67356 0.09695 0.83659 0.0
C1921 C 0.68649 0.99204 0.911 0.0
C1922 C 0.68283 0.95431 0.91525 0.0
C1923 C 0.67107 0.93283 0.89529 0.0
C1924 C 0.66217 0.94817 0.87219 0.0
C1925 C 0.66572 0.98527 0.86875 0.0
C1926 C 0.67835 1.0069 0.88743 0.0
C1927 C 0.68149 0.04578 0.87824 0.0
C1928 C 0.6573 0.07065 0.89354 0.0
C1929 C 0.72052 0.05849 0.87893 0.0
C1930 C 0.66828 0.04276 0.85155 0.0
C1931 C 0.65876 1.00757 0.84681 0.0
C1932 C 0.6443 0.99792 0.8241 0.0
C1933 C 0.64039 1.02422 0.80555 0.0
C1934 C 0.65089 0.06055 0.80919 0.0
C1935 C 0.66509 0.06973 0.83284 0.0
loop_
_geom_bond_atom_site_label_1
_geom_bond_atom_site_label_2
_geom_bond_distance
_geom_bond_site_symmetry_2
_ccdc_geom_bond_type
Tb0 C10 2.825 . S
Tb0 O11 2.347 . S
Tb0 O14 2.366 . S
Tb0 O19 2.418 . S
Tb0 O20 2.384 . S
Tb0 O23 2.479 . S
Tb0 O24 2.471 . S
Eu1 O12 2.418 . S
Eu1 O13 2.384 . S
Eu1 O16 2.479 . S
Eu1 O17 2.471 . S
Eu1 O18 2.347 . S
Eu1 O21 2.366 . S
Eu1 C31 2.825 . S
C2 O18 1.259 . S
C2 O19 1.265 . S
C3 O20 1.255 . S
C3 O21 1.265 . S
C4 C6 1.380 . S
C4 C7 1.374 . S
C4 C10 1.507 . S
C5 C6 1.384 . S
C5 C9 1.387 . S
C5 H32 0.930 . S
C6 C4 1.380 . S
C6 C5 1.384 . S
C6 H33 0.931 . S
C7 C4 1.374 . S
C7 C8 1.390 . S
C7 H34 0.930 . S
C8 C7 1.390 . S
C8 C9 1.391 . S
C8 H35 0.930 . S
C9 C5 1.387 . S
C9 C8 1.391 . S
C10 Tb0 2.825 . S
C10 C4 1.507 . S
C10 O23 1.238 . S
C10 O24 1.247 . S
O11 Tb0 2.347 . S
O11 C15 1.259 . S
O12 Eu1 2.418 . S
O12 C15 1.265 . S
O13 Eu1 2.384 . S
O13 C22 1.255 . S
O14 Tb0 2.366 . S
O14 C22 1.265 . S
C15 O11 1.259 . S
C15 O12 1.265 . S
O16 Eu1 2.479 . S
O16 C31 1.238 . S
O17 Eu1 2.471 . S
O17 C31 1.247 . S
O18 Eu1 2.347 . S
O18 C2 1.259 . S
O19 Tb0 2.418 . S
O19 C2 1.265 . S
O20 Tb0 2.384 . S
O20 C3 1.255 . S
O21 Eu1 2.366 . S
O21 C3 1.265 . S
C22 O13 1.255 . S
C22 O14 1.265 . S
O23 Tb0 2.479 . S
O23 C10 1.238 . S
O24 Tb0 2.471 . S
O24 C10 1.247 . S
C25 C28 1.380 . S
C25 C29 1.374 . S
C25 C31 1.507 . S
C26 C27 1.387 1_545 S
C26 C30 1.391 . S
C27 C26 1.387 1_565 S
C27 C28 1.384 1_565 S
C27 H36 0.930 . S
C28 C25 1.380 . S
C28 C27 1.384 1_545 S
C28 H37 0.931 1_545 S
C29 C25 1.374 . S
C29 C30 1.390 . S
C29 H38 0.930 . S
C30 C26 1.391 . S
C30 C29 1.390 . S
C30 H39 0.930 . S
C31 Eu1 2.825 . S
C31 O16 1.238 . S
C31 O17 1.247 . S
C31 C25 1.507 . S
H32 C5 0.930 . S
H33 C6 0.931 . S
H34 C7 0.930 . S
H35 C8 0.930 . S
H36 C27 0.930 . S
H37 C28 0.931 1_565 S
H38 C29 0.930 . S
H39 C30 0.930 . S
Tb40 C50 2.825 . S
Tb40 O51 2.347 . S
Tb40 O54 2.366 . S
Tb40 O59 2.418 . S
Tb40 O60 2.384 . S
Tb40 O63 2.479 . S
Tb40 O64 2.471 . S
Eu41 O52 2.418 . S
Eu41 O53 2.384 . S
Eu41 O56 2.479 . S
Eu41 O57 2.471 . S
Eu41 O58 2.347 . S
Eu41 O61 2.366 . S
Eu41 C71 2.825 . S
C42 O58 1.259 . S
C42 O59 1.265 . S
C43 O60 1.255 . S
C43 O61 1.265 . S
C44 C46 1.380 . S
C44 C47 1.374 . S
C44 C50 1.507 . S
C45 C46 1.384 . S
C45 C49 1.387 . S
C45 H72 0.930 . S
C46 C44 1.380 . S
C46 C45 1.384 . S
C46 H73 0.931 . S
C47 C44 1.374 . S
C47 C48 1.390 . S
C47 H74 0.930 . S
C48 C47 1.390 . S
C48 C49 1.391 . S
C48 H75 0.930 . S
C49 C45 1.387 . S
C49 C48 1.391 . S
C50 Tb40 2.825 . S
C50 C44 1.507 . S
C50 O63 1.238 . S
C50 O64 1.247 . S
O51 Tb40 2.347 . S
O51 C55 1.259 . S
O52 Eu41 2.418 . S
O52 C55 1.265 . S
O53 Eu41 2.384 . S
O53 C62 1.255 . S
O54 Tb40 2.366 . S
O54 C62 1.265 . S
C55 O51 1.259 . S
C55 O52 1.265 . S
O56 Eu41 2.479 . S
O56 C71 1.238 . S
O57 Eu41 2.471 . S
O57 C71 1.247 . S
O58 Eu41 2.347 . S
O58 C42 1.259 . S
O59 Tb40 2.418 . S
O59 C42 1.265 . S
O60 Tb40 2.384 . S
O60 C43 1.255 . S
O61 Eu41 2.366 . S
O61 C43 1.265 . S
C62 O53 1.255 . S
C62 O54 1.265 . S
O63 Tb40 2.479 . S
O63 C50 1.238 . S
O64 Tb40 2.471 . S
O64 C50 1.247 . S
C65 C68 1.380 . S
C65 C69 1.374 . S
C65 C71 1.507 . S
C66 C67 1.387 . S
C66 C70 1.391 . S
C67 C66 1.387 . S
C67 C68 1.384 . S
C67 H76 0.930 . S
C68 C65 1.380 . S
C68 C67 1.384 . S
C68 H77 0.931 . S
C69 C65 1.374 . S
C69 C70 1.390 . S
C69 H78 0.930 . S
C70 C66 1.391 . S
C70 C69 1.390 . S
C70 H79 0.930 . S
C71 Eu41 2.825 . S
C71 O56 1.238 . S
C71 O57 1.247 . S
C71 C65 1.507 . S
H72 C45 0.930 . S
H73 C46 0.931 . S
H74 C47 0.930 . S
H75 C48 0.930 . S
H76 C67 0.930 . S
H77 C68 0.931 . S
H78 C69 0.930 . S
H79 C70 0.930 . S
Tb80 C90 2.825 . S
Tb80 O91 2.347 . S
Tb80 O94 2.366 . S
Tb80 O99 2.418 . S
Tb80 O100 2.384 . S
Tb80 O103 2.479 . S
Tb80 O104 2.471 . S
Eu81 O92 2.418 . S
Eu81 O93 2.384 . S
Eu81 O96 2.479 . S
Eu81 O97 2.471 . S
Eu81 O98 2.347 . S
Eu81 O101 2.366 . S
Eu81 C111 2.825 . S
C82 O98 1.259 . S
C82 O99 1.265 . S
C83 O100 1.255 . S
C83 O101 1.265 . S
C84 C86 1.380 . S
C84 C87 1.374 . S
C84 C90 1.507 . S
C85 C86 1.384 . S
C85 C89 1.387 . S
C85 H112 0.930 . S
C86 C84 1.380 . S
C86 C85 1.384 . S
C86 H113 0.931 . S
C87 C84 1.374 . S
C87 C88 1.390 . S
C87 H114 0.930 . S
C88 C87 1.390 . S
C88 C89 1.391 . S
C88 H115 0.930 . S
C89 C85 1.387 . S
C89 C88 1.391 . S
C90 Tb80 2.825 . S
C90 C84 1.507 . S
C90 O103 1.238 . S
C90 O104 1.247 . S
O91 Tb80 2.347 . S
O91 C95 1.259 . S
O92 Eu81 2.418 . S
O92 C95 1.265 . S
O93 Eu81 2.384 . S
O93 C102 1.255 . S
O94 Tb80 2.366 . S
O94 C102 1.265 . S
C95 O91 1.259 . S
C95 O92 1.265 . S
O96 Eu81 2.479 . S
O96 C111 1.238 . S
O97 Eu81 2.471 . S
O97 C111 1.247 . S
O98 Eu81 2.347 . S
O98 C82 1.259 . S
O99 Tb80 2.418 . S
O99 C82 1.265 . S
O100 Tb80 2.384 . S
O100 C83 1.255 . S
O101 Eu81 2.366 . S
O101 C83 1.265 . S
C102 O93 1.255 . S
C102 O94 1.265 . S
O103 Tb80 2.479 . S
O103 C90 1.238 . S
O104 Tb80 2.471 . S
O104 C90 1.247 . S
C105 C108 1.380 . S
C105 C109 1.374 . S
C105 C111 1.507 . S
C106 C107 1.387 1_565 S
C106 C110 1.391 . S
C107 C106 1.387 1_545 S
C107 C108 1.384 1_545 S
C107 H116 0.930 . S
C108 C105 1.380 . S
C108 C107 1.384 1_565 S
C108 H117 0.931 1_565 S
C109 C105 1.374 . S
C109 C110 1.390 . S
C109 H118 0.930 . S
C110 C106 1.391 . S
C110 C109 1.390 . S
C110 H119 0.930 . S
C111 Eu81 2.825 . S
C111 O96 1.238 . S
C111 O97 1.247 . S
C111 C105 1.507 . S
H112 C85 0.930 . S
H113 C86 0.931 . S
H114 C87 0.930 . S
H115 C88 0.930 . S
H116 C107 0.930 . S
H117 C108 0.931 1_545 S
H118 C109 0.930 . S
H119 C110 0.930 . S
Tb120 C130 2.825 . S
Tb120 O131 2.347 . S
Tb120 O134 2.366 . S
Tb120 O139 2.418 . S
Tb120 O140 2.384 . S
Tb120 O143 2.479 . S
Tb120 O144 2.471 . S
Eu121 O132 2.418 . S
Eu121 O133 2.384 . S
Eu121 O136 2.479 . S
Eu121 O137 2.471 . S
Eu121 O138 2.347 . S
Eu121 O141 2.366 . S
Eu121 C151 2.825 . S
C122 O138 1.259 . S
C122 O139 1.265 . S
C123 O140 1.255 . S
C123 O141 1.265 . S
C124 C126 1.380 . S
C124 C127 1.374 1_455 S
C124 C130 1.507 1_455 S
C125 C126 1.384 . S
C125 C129 1.387 . S
C125 H152 0.930 . S
C126 C124 1.380 . S
C126 C125 1.384 . S
C126 H153 0.931 . S
C127 C124 1.374 1_655 S
C127 C128 1.390 1_655 S
C127 H154 0.930 . S
C128 C127 1.390 1_455 S
C128 C129 1.391 . S
C128 H155 0.930 1_455 S
C129 C125 1.387 . S
C129 C128 1.391 . S
C130 Tb120 2.825 . S
C130 C124 1.507 1_655 S
C130 O143 1.238 . S
C130 O144 1.247 . S
O131 Tb120 2.347 . S
O131 C135 1.259 . S
O132 Eu121 2.418 . S
O132 C135 1.265 . S
O133 Eu121 2.384 . S
O133 C142 1.255 . S
O134 Tb120 2.366 . S
O134 C142 1.265 . S
C135 O131 1.259 . S
C135 O132 1.265 . S
O136 Eu121 2.479 . S
O136 C151 1.238 . S
O137 Eu121 2.471 . S
O137 C151 1.247 . S
O138 Eu121 2.347 . S
O138 C122 1.259 . S
O139 Tb120 2.418 . S
O139 C122 1.265 . S
O140 Tb120 2.384 . S
O140 C123 1.255 . S
O141 Eu121 2.366 . S
O141 C123 1.265 . S
C142 O133 1.255 . S
C142 O134 1.265 . S
O143 Tb120 2.479 . S
O143 C130 1.238 . S
O144 Tb120 2.471 . S
O144 C130 1.247 . S
C145 C148 1.380 . S
C145 C149 1.374 . S
C145 C151 1.507 . S
C146 C147 1.387 . S
C146 C150 1.391 . S
C147 C146 1.387 . S
C147 C148 1.384 . S
C147 H156 0.930 . S
C148 C145 1.380 . S
C148 C147 1.384 . S
C148 H157 0.931 . S
C149 C145 1.374 . S
C149 C150 1.390 . S
C149 H158 0.930 . S
C150 C146 1.391 . S
C150 C149 1.390 . S
C150 H159 0.930 . S
C151 Eu121 2.825 . S
C151 O136 1.238 . S
C151 O137 1.247 . S
C151 C145 1.507 . S
H152 C125 0.930 . S
H153 C126 0.931 . S
H154 C127 0.930 . S
H155 C128 0.930 1_655 S
H156 C147 0.930 . S
H157 C148 0.931 . S
H158 C149 0.930 . S
H159 C150 0.930 . S
Tb160 C170 2.825 . S
Tb160 O171 2.347 . S
Tb160 O174 2.366 . S
Tb160 O179 2.418 . S
Tb160 O180 2.384 . S
Tb160 O183 2.479 . S
Tb160 O184 2.471 . S
Eu161 O172 2.418 . S
Eu161 O173 2.384 . S
Eu161 O176 2.479 . S
Eu161 O177 2.471 . S
Eu161 O178 2.347 . S
Eu161 O181 2.366 . S
Eu161 C191 2.825 . S
C162 O178 1.259 . S
C162 O179 1.265 . S
C163 O180 1.255 . S
C163 O181 1.265 . S
C164 C166 1.380 . S
C164 C167 1.374 . S
C164 C170 1.507 . S
C165 C166 1.384 1_545 S
C165 C169 1.387 1_545 S
C165 H192 0.930 . S
C166 C164 1.380 . S
C166 C165 1.384 1_565 S
C166 H193 0.931 1_565 S
C167 C164 1.374 . S
C167 C168 1.390 . S
C167 H194 0.930 . S
C168 C167 1.390 . S
C168 C169 1.391 . S
C168 H195 0.930 . S
C169 C165 1.387 1_565 S
C169 C168 1.391 . S
C170 Tb160 2.825 . S
C170 C164 1.507 . S
C170 O183 1.238 . S
C170 O184 1.247 . S
O171 Tb160 2.347 . S
O171 C175 1.259 . S
O172 Eu161 2.418 . S
O172 C175 1.265 . S
O173 Eu161 2.384 . S
O173 C182 1.255 . S
O174 Tb160 2.366 . S
O174 C182 1.265 . S
C175 O171 1.259 . S
C175 O172 1.265 . S
O176 Eu161 2.479 . S
O176 C191 1.238 . S
O177 Eu161 2.471 . S
O177 C191 1.247 . S
O178 Eu161 2.347 . S
O178 C162 1.259 . S
O179 Tb160 2.418 . S
O179 C162 1.265 . S
O180 Tb160 2.384 . S
O180 C163 1.255 . S
O181 Eu161 2.366 . S
O181 C163 1.265 . S
C182 O173 1.255 . S
C182 O174 1.265 . S
O183 Tb160 2.479 . S
O183 C170 1.238 . S
O184 Tb160 2.471 . S
O184 C170 1.247 . S
C185 C188 1.380 . S
C185 C189 1.374 . S
C185 C191 1.507 . S
C186 C187 1.387 . S
C186 C190 1.391 . S
C187 C186 1.387 . S
C187 C188 1.384 . S
C187 H196 0.930 . S
C188 C185 1.380 . S
C188 C187 1.384 . S
C188 H197 0.931 . S
C189 C185 1.374 . S
C189 C190 1.390 . S
C189 H198 0.930 . S
C190 C186 1.391 . S
C190 C189 1.390 . S
C190 H199 0.930 . S
C191 Eu161 2.825 . S
C191 O176 1.238 . S
C191 O177 1.247 . S
C191 C185 1.507 . S
H192 C165 0.930 . S
H193 C166 0.931 1_545 S
H194 C167 0.930 . S
H195 C168 0.930 . S
H196 C187 0.930 . S
H197 C188 0.931 . S
H198 C189 0.930 . S
H199 C190 0.930 . S
Tb200 C210 2.825 . S
Tb200 O211 2.347 . S
Tb200 O214 2.366 . S
Tb200 O219 2.418 . S
Tb200 O220 2.384 . S
Tb200 O223 2.479 . S
Tb200 O224 2.471 . S
Eu201 O212 2.418 . S
Eu201 O213 2.384 . S
Eu201 O216 2.479 . S
Eu201 O217 2.471 . S
Eu201 O218 2.347 . S
Eu201 O221 2.366 . S
Eu201 C231 2.825 . S
C202 O218 1.259 . S
C202 O219 1.265 . S
C203 O220 1.255 . S
C203 O221 1.265 . S
C204 C206 1.380 . S
C204 C207 1.374 . S
C204 C210 1.507 . S
C205 C206 1.384 . S
C205 C209 1.387 . S
C205 H232 0.930 . S
C206 C204 1.380 . S
C206 C205 1.384 . S
C206 H233 0.931 . S
C207 C204 1.374 . S
C207 C208 1.390 . S
C207 H234 0.930 . S
C208 C207 1.390 . S
C208 C209 1.391 . S
C208 H235 0.930 . S
C209 C205 1.387 . S
C209 C208 1.391 . S
C210 Tb200 2.825 . S
C210 C204 1.507 . S
C210 O223 1.238 . S
C210 O224 1.247 . S
O211 Tb200 2.347 . S
O211 C215 1.259 . S
O212 Eu201 2.418 . S
O212 C215 1.265 . S
O213 Eu201 2.384 . S
O213 C222 1.255 . S
O214 Tb200 2.366 . S
O214 C222 1.265 . S
C215 O211 1.259 . S
C215 O212 1.265 . S
O216 Eu201 2.479 . S
O216 C231 1.238 . S
O217 Eu201 2.471 . S
O217 C231 1.247 . S
O218 Eu201 2.347 . S
O218 C202 1.259 . S
O219 Tb200 2.418 . S
O219 C202 1.265 . S
O220 Tb200 2.384 . S
O220 C203 1.255 . S
O221 Eu201 2.366 . S
O221 C203 1.265 . S
C222 O213 1.255 . S
C222 O214 1.265 . S
O223 Tb200 2.479 . S
O223 C210 1.238 . S
O224 Tb200 2.471 . S
O224 C210 1.247 . S
C225 C228 1.380 . S
C225 C229 1.374 . S
C225 C231 1.507 . S
C226 C227 1.387 . S
C226 C230 1.391 . S
C227 C226 1.387 . S
C227 C228 1.384 . S
C227 H236 0.930 . S
C228 C225 1.380 . S
C228 C227 1.384 . S
C228 H237 0.931 . S
C229 C225 1.374 . S
C229 C230 1.390 . S
C229 H238 0.930 . S
C230 C226 1.391 . S
C230 C229 1.390 . S
C230 H239 0.930 . S
C231 Eu201 2.825 . S
C231 O216 1.238 . S
C231 O217 1.247 . S
C231 C225 1.507 . S
H232 C205 0.930 . S
H233 C206 0.931 . S
H234 C207 0.930 . S
H235 C208 0.930 . S
H236 C227 0.930 . S
H237 C228 0.931 . S
H238 C229 0.930 . S
H239 C230 0.930 . S
Tb240 C250 2.825 . S
Tb240 O251 2.347 . S
Tb240 O254 2.366 . S
Tb240 O259 2.418 . S
Tb240 O260 2.384 . S
Tb240 O263 2.479 . S
Tb240 O264 2.471 . S
Eu241 O252 2.418 . S
Eu241 O253 2.384 . S
Eu241 O256 2.479 . S
Eu241 O257 2.471 . S
Eu241 O258 2.347 . S
Eu241 O261 2.366 . S
Eu241 C271 2.825 . S
C242 O258 1.259 . S
C242 O259 1.265 . S
C243 O260 1.255 . S
C243 O261 1.265 . S
C244 C246 1.380 . S
C244 C247 1.374 . S
C244 C250 1.507 . S
C245 C246 1.384 1_565 S
C245 C249 1.387 1_565 S
C245 H272 0.930 . S
C246 C244 1.380 . S
C246 C245 1.384 1_545 S
C246 H273 0.931 1_545 S
C247 C244 1.374 . S
C247 C248 1.390 . S
C247 H274 0.930 . S
C248 C247 1.390 . S
C248 C249 1.391 . S
C248 H275 0.930 . S
C249 C245 1.387 1_545 S
C249 C248 1.391 . S
C250 Tb240 2.825 . S
C250 C244 1.507 . S
C250 O263 1.238 . S
C250 O264 1.247 . S
O251 Tb240 2.347 . S
O251 C255 1.259 . S
O252 Eu241 2.418 . S
O252 C255 1.265 . S
O253 Eu241 2.384 . S
O253 C262 1.255 . S
O254 Tb240 2.366 . S
O254 C262 1.265 . S
C255 O251 1.259 . S
C255 O252 1.265 . S
O256 Eu241 2.479 . S
O256 C271 1.238 . S
O257 Eu241 2.471 . S
O257 C271 1.247 . S
O258 Eu241 2.347 . S
O258 C242 1.259 . S
O259 Tb240 2.418 . S
O259 C242 1.265 . S
O260 Tb240 2.384 . S
O260 C243 1.255 . S
O261 Eu241 2.366 . S
O261 C243 1.265 . S
C262 O253 1.255 . S
C262 O254 1.265 . S
O263 Tb240 2.479 . S
O263 C250 1.238 . S
O264 Tb240 2.471 . S
O264 C250 1.247 . S
C265 C268 1.380 . S
C265 C269 1.374 . S
C265 C271 1.507 . S
C266 C267 1.387 . S
C266 C270 1.391 . S
C267 C266 1.387 . S
C267 C268 1.384 . S
C267 H276 0.930 . S
C268 C265 1.380 . S
C268 C267 1.384 . S
C268 H277 0.931 . S
C269 C265 1.374 . S
C269 C270 1.390 . S
C269 H278 0.930 . S
C270 C266 1.391 . S
C270 C269 1.390 . S
C270 H279 0.930 . S
C271 Eu241 2.825 . S
C271 O256 1.238 . S
C271 O257 1.247 . S
C271 C265 1.507 . S
H272 C245 0.930 . S
H273 C246 0.931 1_565 S
H274 C247 0.930 . S
H275 C248 0.930 . S
H276 C267 0.930 . S
H277 C268 0.931 . S
H278 C269 0.930 . S
H279 C270 0.930 . S
Tb280 C290 2.825 . S
Tb280 O291 2.347 . S
Tb280 O294 2.366 . S
Tb280 O299 2.418 . S
Tb280 O300 2.384 . S
Tb280 O303 2.479 . S
Tb280 O304 2.471 . S
Eu281 O292 2.418 . S
Eu281 O293 2.384 . S
Eu281 O296 2.479 . S
Eu281 O297 2.471 . S
Eu281 O298 2.347 . S
Eu281 O301 2.366 . S
Eu281 C311 2.825 . S
C282 O298 1.259 . S
C282 O299 1.265 . S
C283 O300 1.255 . S
C283 O301 1.265 . S
C284 C286 1.380 . S
C284 C287 1.374 . S
C284 C290 1.507 . S
C285 C286 1.384 . S
C285 C289 1.387 . S
C285 H312 0.930 . S
C286 C284 1.380 . S
C286 C285 1.384 . S
C286 H313 0.931 . S
C287 C284 1.374 . S
C287 C288 1.390 . S
C287 H314 0.930 . S
C288 C287 1.390 . S
C288 C289 1.391 . S
C288 H315 0.930 . S
C289 C285 1.387 . S
C289 C288 1.391 . S
C290 Tb280 2.825 . S
C290 C284 1.507 . S
C290 O303 1.238 . S
C290 O304 1.247 . S
O291 Tb280 2.347 . S
O291 C295 1.259 . S
O292 Eu281 2.418 . S
O292 C295 1.265 . S
O293 Eu281 2.384 . S
O293 C302 1.255 . S
O294 Tb280 2.366 . S
O294 C302 1.265 . S
C295 O291 1.259 . S
C295 O292 1.265 . S
O296 Eu281 2.479 . S
O296 C311 1.238 . S
O297 Eu281 2.471 . S
O297 C311 1.247 . S
O298 Eu281 2.347 . S
O298 C282 1.259 . S
O299 Tb280 2.418 . S
O299 C282 1.265 . S
O300 Tb280 2.384 . S
O300 C283 1.255 . S
O301 Eu281 2.366 . S
O301 C283 1.265 . S
C302 O293 1.255 . S
C302 O294 1.265 . S
O303 Tb280 2.479 . S
O303 C290 1.238 . S
O304 Tb280 2.471 . S
O304 C290 1.247 . S
C305 C308 1.380 . S
C305 C309 1.374 1_655 S
C305 C311 1.507 1_655 S
C306 C307 1.387 . S
C306 C310 1.391 . S
C307 C306 1.387 . S
C307 C308 1.384 . S
C307 H316 0.930 . S
C308 C305 1.380 . S
C308 C307 1.384 . S
C308 H317 0.931 . S
C309 C305 1.374 1_455 S
C309 C310 1.390 1_455 S
C309 H318 0.930 . S
C310 C306 1.391 . S
C310 C309 1.390 1_655 S
C310 H319 0.930 1_655 S
C311 Eu281 2.825 . S
C311 O296 1.238 . S
C311 O297 1.247 . S
C311 C305 1.507 1_455 S
H312 C285 0.930 . S
H313 C286 0.931 . S
H314 C287 0.930 . S
H315 C288 0.930 . S
H316 C307 0.930 . S
H317 C308 0.931 . S
H318 C309 0.930 . S
H319 C310 0.930 1_455 S
Tb320 C330 2.825 . S
Tb320 O331 2.347 . S
Tb320 O334 2.366 . S
Tb320 O339 2.418 . S
Tb320 O340 2.384 . S
Tb320 O343 2.479 . S
Tb320 O344 2.471 . S
Eu321 O332 2.418 . S
Eu321 O333 2.384 . S
Eu321 O336 2.479 . S
Eu321 O337 2.471 . S
Eu321 O338 2.347 . S
Eu321 O341 2.366 . S
Eu321 C351 2.825 . S
C322 O338 1.259 . S
C322 O339 1.265 . S
C323 O340 1.255 . S
C323 O341 1.265 . S
C324 C326 1.380 . S
C324 C327 1.374 . S
C324 C330 1.507 . S
C325 C326 1.384 . S
C325 C329 1.387 . S
C325 H352 0.930 . S
C326 C324 1.380 . S
C326 C325 1.384 . S
C326 H353 0.931 . S
C327 C324 1.374 . S
C327 C328 1.390 . S
C327 H354 0.930 . S
C328 C327 1.390 . S
C328 C329 1.391 . S
C328 H355 0.930 . S
C329 C325 1.387 . S
C329 C328 1.391 . S
C330 Tb320 2.825 . S
C330 C324 1.507 . S
C330 O343 1.238 . S
C330 O344 1.247 . S
O331 Tb320 2.347 . S
O331 C335 1.259 . S
O332 Eu321 2.418 . S
O332 C335 1.265 . S
O333 Eu321 2.384 . S
O333 C342 1.255 . S
O334 Tb320 2.366 . S
O334 C342 1.265 . S
C335 O331 1.259 . S
C335 O332 1.265 . S
O336 Eu321 2.479 . S
O336 C351 1.238 . S
O337 Eu321 2.471 . S
O337 C351 1.247 . S
O338 Eu321 2.347 . S
O338 C322 1.259 . S
O339 Tb320 2.418 . S
O339 C322 1.265 . S
O340 Tb320 2.384 . S
O340 C323 1.255 . S
O341 Eu321 2.366 . S
O341 C323 1.265 . S
C342 O333 1.255 . S
C342 O334 1.265 . S
O343 Tb320 2.479 . S
O343 C330 1.238 . S
O344 Tb320 2.471 . S
O344 C330 1.247 . S
C345 C348 1.380 . S
C345 C349 1.374 . S
C345 C351 1.507 . S
C346 C347 1.387 . S
C346 C350 1.391 . S
C347 C346 1.387 . S
C347 C348 1.384 . S
C347 H356 0.930 . S
C348 C345 1.380 . S
C348 C347 1.384 . S
C348 H357 0.931 . S
C349 C345 1.374 . S
C349 C350 1.390 . S
C349 H358 0.930 . S
C350 C346 1.391 . S
C350 C349 1.390 . S
C350 H359 0.930 . S
C351 Eu321 2.825 . S
C351 O336 1.238 . S
C351 O337 1.247 . S
C351 C345 1.507 . S
H352 C325 0.930 . S
H353 C326 0.931 . S
H354 C327 0.930 . S
H355 C328 0.930 . S
H356 C347 0.930 . S
H357 C348 0.931 . S
H358 C349 0.930 . S
H359 C350 0.930 . S
Tb360 C370 2.825 . S
Tb360 O371 2.347 . S
Tb360 O374 2.366 . S
Tb360 O379 2.418 . S
Tb360 O380 2.384 . S
Tb360 O383 2.479 . S
Tb360 O384 2.471 1_545 S
Eu361 O372 2.418 . S
Eu361 O373 2.384 . S
Eu361 O376 2.479 . S
Eu361 O377 2.471 . S
Eu361 O378 2.347 . S
Eu361 O381 2.366 . S
Eu361 C391 2.825 . S
C362 O378 1.259 . S
C362 O379 1.265 . S
C363 O380 1.255 . S
C363 O381 1.265 . S
C364 C366 1.380 . S
C364 C367 1.374 1_655 S
C364 C370 1.507 1_665 S
C365 C366 1.384 . S
C365 C369 1.387 . S
C365 H392 0.930 . S
C366 C364 1.380 . S
C366 C365 1.384 . S
C366 H393 0.931 1_565 S
C367 C364 1.374 1_455 S
C367 C368 1.390 1_455 S
C367 H394 0.930 . S
C368 C367 1.390 1_655 S
C368 C369 1.391 . S
C368 H395 0.930 1_655 S
C369 C365 1.387 . S
C369 C368 1.391 . S
C370 Tb360 2.825 . S
C370 C364 1.507 1_445 S
C370 O383 1.238 . S
C370 O384 1.247 1_545 S
O371 Tb360 2.347 . S
O371 C375 1.259 . S
O372 Eu361 2.418 . S
O372 C375 1.265 . S
O373 Eu361 2.384 . S
O373 C382 1.255 . S
O374 Tb360 2.366 . S
O374 C382 1.265 . S
C375 O371 1.259 . S
C375 O372 1.265 . S
O376 Eu361 2.479 . S
O376 C391 1.238 . S
O377 Eu361 2.471 . S
O377 C391 1.247 . S
O378 Eu361 2.347 . S
O378 C362 1.259 . S
O379 Tb360 2.418 . S
O379 C362 1.265 . S
O380 Tb360 2.384 . S
O380 C363 1.255 . S
O381 Eu361 2.366 . S
O381 C363 1.265 . S
C382 O373 1.255 . S
C382 O374 1.265 . S
O383 Tb360 2.479 . S
O383 C370 1.238 . S
O384 Tb360 2.471 1_565 S
O384 C370 1.247 1_565 S
C385 C388 1.380 . S
C385 C389 1.374 . S
C385 C391 1.507 . S
C386 C387 1.387 . S
C386 C390 1.391 . S
C387 C386 1.387 . S
C387 C388 1.384 . S
C387 H396 0.930 . S
C388 C385 1.380 . S
C388 C387 1.384 . S
C388 H397 0.931 . S
C389 C385 1.374 . S
C389 C390 1.390 . S
C389 H398 0.930 . S
C390 C386 1.391 . S
C390 C389 1.390 . S
C390 H399 0.930 . S
C391 Eu361 2.825 . S
C391 O376 1.238 . S
C391 O377 1.247 . S
C391 C385 1.507 . S
H392 C365 0.930 . S
H393 C366 0.931 1_545 S
H394 C367 0.930 . S
H395 C368 0.930 1_455 S
H396 C387 0.930 . S
H397 C388 0.931 . S
H398 C389 0.930 . S
H399 C390 0.930 . S
Tb400 C410 2.825 . S
Tb400 O411 2.347 . S
Tb400 O414 2.366 . S
Tb400 O419 2.418 . S
Tb400 O420 2.384 . S
Tb400 O423 2.479 . S
Tb400 O424 2.471 . S
Eu401 O412 2.418 . S
Eu401 O413 2.384 . S
Eu401 O416 2.479 . S
Eu401 O417 2.471 . S
Eu401 O418 2.347 . S
Eu401 O421 2.366 . S
Eu401 C431 2.825 . S
C402 O418 1.259 . S
C402 O419 1.265 . S
C403 O420 1.255 . S
C403 O421 1.265 . S
C404 C406 1.380 . S
C404 C407 1.374 . S
C404 C410 1.507 . S
C405 C406 1.384 . S
C405 C409 1.387 . S
C405 H432 0.930 . S
C406 C404 1.380 . S
C406 C405 1.384 . S
C406 H433 0.931 . S
C407 C404 1.374 . S
C407 C408 1.390 . S
C407 H434 0.930 . S
C408 C407 1.390 . S
C408 C409 1.391 . S
C408 H435 0.930 . S
C409 C405 1.387 . S
C409 C408 1.391 . S
C410 Tb400 2.825 . S
C410 C404 1.507 . S
C410 O423 1.238 . S
C410 O424 1.247 . S
O411 Tb400 2.347 . S
O411 C415 1.259 . S
O412 Eu401 2.418 . S
O412 C415 1.265 . S
O413 Eu401 2.384 . S
O413 C422 1.255 . S
O414 Tb400 2.366 . S
O414 C422 1.265 . S
C415 O411 1.259 . S
C415 O412 1.265 . S
O416 Eu401 2.479 . S
O416 C431 1.238 . S
O417 Eu401 2.471 . S
O417 C431 1.247 . S
O418 Eu401 2.347 . S
O418 C402 1.259 . S
O419 Tb400 2.418 . S
O419 C402 1.265 . S
O420 Tb400 2.384 . S
O420 C403 1.255 . S
O421 Eu401 2.366 . S
O421 C403 1.265 . S
C422 O413 1.255 . S
C422 O414 1.265 . S
O423 Tb400 2.479 . S
O423 C410 1.238 . S
O424 Tb400 2.471 . S
O424 C410 1.247 . S
C425 C428 1.380 . S
C425 C429 1.374 . S
C425 C431 1.507 . S
C426 C427 1.387 . S
C426 C430 1.391 . S
C427 C426 1.387 . S
C427 C428 1.384 . S
C427 H436 0.930 . S
C428 C425 1.380 . S
C428 C427 1.384 . S
C428 H437 0.931 . S
C429 C425 1.374 . S
C429 C430 1.390 . S
C429 H438 0.930 . S
C430 C426 1.391 . S
C430 C429 1.390 . S
C430 H439 0.930 . S
C431 Eu401 2.825 . S
C431 O416 1.238 . S
C431 O417 1.247 . S
C431 C425 1.507 . S
H432 C405 0.930 . S
H433 C406 0.931 . S
H434 C407 0.930 . S
H435 C408 0.930 . S
H436 C427 0.930 . S
H437 C428 0.931 . S
H438 C429 0.930 . S
H439 C430 0.930 . S
Tb440 C450 2.825 . S
Tb440 O451 2.347 . S
Tb440 O454 2.366 . S
Tb440 O459 2.418 . S
Tb440 O460 2.384 . S
Tb440 O463 2.479 . S
Tb440 O464 2.471 1_565 S
Eu441 O452 2.418 . S
Eu441 O453 2.384 . S
Eu441 O456 2.479 . S
Eu441 O457 2.471 . S
Eu441 O458 2.347 . S
Eu441 O461 2.366 . S
Eu441 C471 2.825 . S
C442 O458 1.259 . S
C442 O459 1.265 . S
C443 O460 1.255 . S
C443 O461 1.265 . S
C444 C446 1.380 . S
C444 C447 1.374 . S
C444 C450 1.507 1_545 S
C445 C446 1.384 . S
C445 C449 1.387 . S
C445 H472 0.930 . S
C446 C444 1.380 . S
C446 C445 1.384 . S
C446 H473 0.931 1_545 S
C447 C444 1.374 . S
C447 C448 1.390 . S
C447 H474 0.930 . S
C448 C447 1.390 . S
C448 C449 1.391 . S
C448 H475 0.930 . S
C449 C445 1.387 . S
C449 C448 1.391 . S
C450 Tb440 2.825 . S
C450 C444 1.507 1_565 S
C450 O463 1.238 . S
C450 O464 1.247 1_565 S
O451 Tb440 2.347 . S
O451 C455 1.259 . S
O452 Eu441 2.418 . S
O452 C455 1.265 . S
O453 Eu441 2.384 . S
O453 C462 1.255 . S
O454 Tb440 2.366 . S
O454 C462 1.265 . S
C455 O451 1.259 . S
C455 O452 1.265 . S
O456 Eu441 2.479 . S
O456 C471 1.238 . S
O457 Eu441 2.471 . S
O457 C471 1.247 . S
O458 Eu441 2.347 . S
O458 C442 1.259 . S
O459 Tb440 2.418 . S
O459 C442 1.265 . S
O460 Tb440 2.384 . S
O460 C443 1.255 . S
O461 Eu441 2.366 . S
O461 C443 1.265 . S
C462 O453 1.255 . S
C462 O454 1.265 . S
O463 Tb440 2.479 . S
O463 C450 1.238 . S
O464 Tb440 2.471 1_545 S
O464 C450 1.247 1_545 S
C465 C468 1.380 . S
C465 C469 1.374 . S
C465 C471 1.507 . S
C466 C467 1.387 . S
C466 C470 1.391 . S
C467 C466 1.387 . S
C467 C468 1.384 . S
C467 H476 0.930 . S
C468 C465 1.380 . S
C468 C467 1.384 . S
C468 H477 0.931 . S
C469 C465 1.374 . S
C469 C470 1.390 . S
C469 H478 0.930 . S
C470 C466 1.391 . S
C470 C469 1.390 . S
C470 H479 0.930 . S
C471 Eu441 2.825 . S
C471 O456 1.238 . S
C471 O457 1.247 . S
C471 C465 1.507 . S
H472 C445 0.930 . S
H473 C446 0.931 1_565 S
H474 C447 0.930 . S
H475 C448 0.930 . S
H476 C467 0.930 . S
H477 C468 0.931 . S
H478 C469 0.930 . S
H479 C470 0.930 . S
Tb480 C490 2.825 . S
Tb480 O491 2.347 . S
Tb480 O494 2.366 . S
Tb480 O499 2.418 . S
Tb480 O500 2.384 . S
Tb480 O503 2.479 . S
Tb480 O504 2.471 . S
Eu481 O492 2.418 . S
Eu481 O493 2.384 . S
Eu481 O496 2.479 . S
Eu481 O497 2.471 . S
Eu481 O498 2.347 . S
Eu481 O501 2.366 . S
Eu481 C511 2.825 . S
C482 O498 1.259 . S
C482 O499 1.265 . S
C483 O500 1.255 . S
C483 O501 1.265 . S
C484 C486 1.380 . S
C484 C487 1.374 . S
C484 C490 1.507 . S
C485 C486 1.384 . S
C485 C489 1.387 . S
C485 H512 0.930 . S
C486 C484 1.380 . S
C486 C485 1.384 . S
C486 H513 0.931 . S
C487 C484 1.374 . S
C487 C488 1.390 . S
C487 H514 0.930 . S
C488 C487 1.390 . S
C488 C489 1.391 . S
C488 H515 0.930 . S
C489 C485 1.387 . S
C489 C488 1.391 . S
C490 Tb480 2.825 . S
C490 C484 1.507 . S
C490 O503 1.238 . S
C490 O504 1.247 . S
O491 Tb480 2.347 . S
O491 C495 1.259 . S
O492 Eu481 2.418 . S
O492 C495 1.265 . S
O493 Eu481 2.384 . S
O493 C502 1.255 . S
O494 Tb480 2.366 . S
O494 C502 1.265 . S
C495 O491 1.259 . S
C495 O492 1.265 . S
O496 Eu481 2.479 . S
O496 C511 1.238 . S
O497 Eu481 2.471 . S
O497 C511 1.247 . S
O498 Eu481 2.347 . S
O498 C482 1.259 . S
O499 Tb480 2.418 . S
O499 C482 1.265 . S
O500 Tb480 2.384 . S
O500 C483 1.255 . S
O501 Eu481 2.366 . S
O501 C483 1.265 . S
C502 O493 1.255 . S
C502 O494 1.265 . S
O503 Tb480 2.479 . S
O503 C490 1.238 . S
O504 Tb480 2.471 . S
O504 C490 1.247 . S
C505 C508 1.380 . S
C505 C509 1.374 . S
C505 C511 1.507 . S
C506 C507 1.387 . S
C506 C510 1.391 . S
C507 C506 1.387 . S
C507 C508 1.384 . S
C507 H516 0.930 . S
C508 C505 1.380 . S
C508 C507 1.384 . S
C508 H517 0.931 . S
C509 C505 1.374 . S
C509 C510 1.390 . S
C509 H518 0.930 . S
C510 C506 1.391 . S
C510 C509 1.390 . S
C510 H519 0.930 . S
C511 Eu481 2.825 . S
C511 O496 1.238 . S
C511 O497 1.247 . S
C511 C505 1.507 . S
H512 C485 0.930 . S
H513 C486 0.931 . S
H514 C487 0.930 . S
H515 C488 0.930 . S
H516 C507 0.930 . S
H517 C508 0.931 . S
H518 C509 0.930 . S
H519 C510 0.930 . S
Tb520 C530 2.825 . S
Tb520 O531 2.347 . S
Tb520 O534 2.366 . S
Tb520 O539 2.418 . S
Tb520 O540 2.384 . S
Tb520 O543 2.479 . S
Tb520 O544 2.471 . S
Eu521 O532 2.418 . S
Eu521 O533 2.384 . S
Eu521 O536 2.479 . S
Eu521 O537 2.471 1_565 S
Eu521 O538 2.347 . S
Eu521 O541 2.366 . S
Eu521 C551 2.825 . S
C522 O538 1.259 . S
C522 O539 1.265 . S
C523 O540 1.255 . S
C523 O541 1.265 . S
C524 C526 1.380 . S
C524 C527 1.374 . S
C524 C530 1.507 . S
C525 C526 1.384 . S
C525 C529 1.387 . S
C525 H552 0.930 . S
C526 C524 1.380 . S
C526 C525 1.384 . S
C526 H553 0.931 . S
C527 C524 1.374 . S
C527 C528 1.390 . S
C527 H554 0.930 . S
C528 C527 1.390 . S
C528 C529 1.391 . S
C528 H555 0.930 . S
C529 C525 1.387 . S
C529 C528 1.391 . S
C530 Tb520 2.825 . S
C530 C524 1.507 . S
C530 O543 1.238 . S
C530 O544 1.247 . S
O531 Tb520 2.347 . S
O531 C535 1.259 . S
O532 Eu521 2.418 . S
O532 C535 1.265 . S
O533 Eu521 2.384 . S
O533 C542 1.255 . S
O534 Tb520 2.366 . S
O534 C542 1.265 . S
C535 O531 1.259 . S
C535 O532 1.265 . S
O536 Eu521 2.479 . S
O536 C551 1.238 . S
O537 Eu521 2.471 1_545 S
O537 C551 1.247 1_545 S
O538 Eu521 2.347 . S
O538 C522 1.259 . S
O539 Tb520 2.418 . S
O539 C522 1.265 . S
O540 Tb520 2.384 . S
O540 C523 1.255 . S
O541 Eu521 2.366 . S
O541 C523 1.265 . S
C542 O533 1.255 . S
C542 O534 1.265 . S
O543 Tb520 2.479 . S
O543 C530 1.238 . S
O544 Tb520 2.471 . S
O544 C530 1.247 . S
C545 C548 1.380 . S
C545 C549 1.374 1_455 S
C545 C551 1.507 1_445 S
C546 C547 1.387 . S
C546 C550 1.391 . S
C547 C546 1.387 . S
C547 C548 1.384 . S
C547 H556 0.930 . S
C548 C545 1.380 . S
C548 C547 1.384 . S
C548 H557 0.931 1_545 S
C549 C545 1.374 1_655 S
C549 C550 1.390 1_655 S
C549 H558 0.930 . S
C550 C546 1.391 . S
C550 C549 1.390 1_455 S
C550 H559 0.930 1_455 S
C551 Eu521 2.825 . S
C551 O536 1.238 . S
C551 O537 1.247 1_565 S
C551 C545 1.507 1_665 S
H552 C525 0.930 . S
H553 C526 0.931 . S
H554 C527 0.930 . S
H555 C528 0.930 . S
H556 C547 0.930 . S
H557 C548 0.931 1_565 S
H558 C549 0.930 . S
H559 C550 0.930 1_655 S
Tb560 C570 2.825 . S
Tb560 O571 2.347 . S
Tb560 O574 2.366 . S
Tb560 O579 2.418 . S
Tb560 O580 2.384 . S
Tb560 O583 2.479 . S
Tb560 O584 2.471 . S
Eu561 O572 2.418 . S
Eu561 O573 2.384 . S
Eu561 O576 2.479 . S
Eu561 O577 2.471 . S
Eu561 O578 2.347 . S
Eu561 O581 2.366 . S
Eu561 C591 2.825 . S
C562 O578 1.259 . S
C562 O579 1.265 . S
C563 O580 1.255 . S
C563 O581 1.265 . S
C564 C566 1.380 . S
C564 C567 1.374 . S
C564 C570 1.507 . S
C565 C566 1.384 . S
C565 C569 1.387 . S
C565 H592 0.930 . S
C566 C564 1.380 . S
C566 C565 1.384 . S
C566 H593 0.931 . S
C567 C564 1.374 . S
C567 C568 1.390 . S
C567 H594 0.930 . S
C568 C567 1.390 . S
C568 C569 1.391 . S
C568 H595 0.930 . S
C569 C565 1.387 . S
C569 C568 1.391 . S
C570 Tb560 2.825 . S
C570 C564 1.507 . S
C570 O583 1.238 . S
C570 O584 1.247 . S
O571 Tb560 2.347 . S
O571 C575 1.259 . S
O572 Eu561 2.418 . S
O572 C575 1.265 . S
O573 Eu561 2.384 . S
O573 C582 1.255 . S
O574 Tb560 2.366 . S
O574 C582 1.265 . S
C575 O571 1.259 . S
C575 O572 1.265 . S
O576 Eu561 2.479 . S
O576 C591 1.238 . S
O577 Eu561 2.471 . S
O577 C591 1.247 . S
O578 Eu561 2.347 . S
O578 C562 1.259 . S
O579 Tb560 2.418 . S
O579 C562 1.265 . S
O580 Tb560 2.384 . S
O580 C563 1.255 . S
O581 Eu561 2.366 . S
O581 C563 1.265 . S
C582 O573 1.255 . S
C582 O574 1.265 . S
O583 Tb560 2.479 . S
O583 C570 1.238 . S
O584 Tb560 2.471 . S
O584 C570 1.247 . S
C585 C588 1.380 . S
C585 C589 1.374 . S
C585 C591 1.507 . S
C586 C587 1.387 . S
C586 C590 1.391 . S
C587 C586 1.387 . S
C587 C588 1.384 . S
C587 H596 0.930 . S
C588 C585 1.380 . S
C588 C587 1.384 . S
C588 H597 0.931 . S
C589 C585 1.374 . S
C589 C590 1.390 . S
C589 H598 0.930 . S
C590 C586 1.391 . S
C590 C589 1.390 . S
C590 H599 0.930 . S
C591 Eu561 2.825 . S
C591 O576 1.238 . S
C591 O577 1.247 . S
C591 C585 1.507 . S
H592 C565 0.930 . S
H593 C566 0.931 . S
H594 C567 0.930 . S
H595 C568 0.930 . S
H596 C587 0.930 . S
H597 C588 0.931 . S
H598 C589 0.930 . S
H599 C590 0.930 . S
Tb600 C610 2.825 . S
Tb600 O611 2.347 . S
Tb600 O614 2.366 . S
Tb600 O619 2.418 . S
Tb600 O620 2.384 . S
Tb600 O623 2.479 . S
Tb600 O624 2.471 . S
Eu601 O612 2.418 . S
Eu601 O613 2.384 . S
Eu601 O616 2.479 . S
Eu601 O617 2.471 1_545 S
Eu601 O618 2.347 . S
Eu601 O621 2.366 . S
Eu601 C631 2.825 . S
C602 O618 1.259 . S
C602 O619 1.265 . S
C603 O620 1.255 . S
C603 O621 1.265 . S
C604 C606 1.380 . S
C604 C607 1.374 . S
C604 C610 1.507 . S
C605 C606 1.384 . S
C605 C609 1.387 . S
C605 H632 0.930 . S
C606 C604 1.380 . S
C606 C605 1.384 . S
C606 H633 0.931 . S
C607 C604 1.374 . S
C607 C608 1.390 . S
C607 H634 0.930 . S
C608 C607 1.390 . S
C608 C609 1.391 . S
C608 H635 0.930 . S
C609 C605 1.387 . S
C609 C608 1.391 . S
C610 Tb600 2.825 . S
C610 C604 1.507 . S
C610 O623 1.238 . S
C610 O624 1.247 . S
O611 Tb600 2.347 . S
O611 C615 1.259 . S
O612 Eu601 2.418 . S
O612 C615 1.265 . S
O613 Eu601 2.384 . S
O613 C622 1.255 . S
O614 Tb600 2.366 . S
O614 C622 1.265 . S
C615 O611 1.259 . S
C615 O612 1.265 . S
O616 Eu601 2.479 . S
O616 C631 1.238 . S
O617 Eu601 2.471 1_565 S
O617 C631 1.247 1_565 S
O618 Eu601 2.347 . S
O618 C602 1.259 . S
O619 Tb600 2.418 . S
O619 C602 1.265 . S
O620 Tb600 2.384 . S
O620 C603 1.255 . S
O621 Eu601 2.366 . S
O621 C603 1.265 . S
C622 O613 1.255 . S
C622 O614 1.265 . S
O623 Tb600 2.479 . S
O623 C610 1.238 . S
O624 Tb600 2.471 . S
O624 C610 1.247 . S
C625 C628 1.380 . S
C625 C629 1.374 . S
C625 C631 1.507 1_565 S
C626 C627 1.387 . S
C626 C630 1.391 . S
C627 C626 1.387 . S
C627 C628 1.384 . S
C627 H636 0.930 . S
C628 C625 1.380 . S
C628 C627 1.384 . S
C628 H637 0.931 1_565 S
C629 C625 1.374 . S
C629 C630 1.390 . S
C629 H638 0.930 . S
C630 C626 1.391 . S
C630 C629 1.390 . S
C630 H639 0.930 . S
C631 Eu601 2.825 . S
C631 O616 1.238 . S
C631 O617 1.247 1_545 S
C631 C625 1.507 1_545 S
H632 C605 0.930 . S
H633 C606 0.931 . S
H634 C607 0.930 . S
H635 C608 0.930 . S
H636 C627 0.930 . S
H637 C628 0.931 1_545 S
H638 C629 0.930 . S
H639 C630 0.930 . S
H640 C652 0.930 . S
H641 C654 0.930 . S
H642 C655 0.930 . S
H643 C659 0.959 . S
H644 C659 0.959 . S
H645 C659 0.961 . S
H646 C660 0.960 . S
H647 C660 0.961 . S
H648 C660 0.959 . S
H649 C663 0.929 . S
H650 C664 0.931 . S
H651 C666 0.930 . S
C652 H640 0.930 . S
C652 C653 1.399 . S
C652 C657 1.399 . S
C653 C652 1.399 . S
C653 C654 1.376 . S
C654 H641 0.930 . S
C654 C653 1.376 . S
C654 C655 1.388 . S
C655 H642 0.930 . S
C655 C654 1.388 . S
C655 C656 1.390 . S
C656 C655 1.390 . S
C656 C657 1.394 . S
C656 C662 1.465 . S
C657 C652 1.399 . S
C657 C656 1.394 . S
C657 C658 1.516 . S
C658 C657 1.516 . S
C658 C659 1.502 . S
C658 C660 1.561 . S
C658 C661 1.526 . S
C659 H643 0.959 . S
C659 H644 0.959 . S
C659 H645 0.961 . S
C659 C658 1.502 . S
C660 H646 0.960 . S
C660 H647 0.961 . S
C660 H648 0.959 . S
C660 C658 1.561 . S
C661 C658 1.526 . S
C661 C662 1.396 . S
C661 C666 1.390 . S
C662 C656 1.465 . S
C662 C661 1.396 . S
C662 C663 1.399 . S
C663 H649 0.929 . S
C663 C662 1.399 . S
C663 C664 1.385 . S
C664 H650 0.931 . S
C664 C663 1.385 . S
C664 C665 1.389 . S
C665 C664 1.389 . S
C665 C666 1.387 . S
C666 H651 0.930 . S
C666 C661 1.390 . S
C666 C665 1.387 . S
H667 C679 0.930 . S
H668 C681 0.930 . S
H669 C682 0.930 . S
H670 C686 0.959 . S
H671 C686 0.959 . S
H672 C686 0.961 . S
H673 C687 0.960 . S
H674 C687 0.961 . S
H675 C687 0.959 . S
H676 C690 0.929 . S
H677 C691 0.931 . S
H678 C693 0.930 . S
C679 H667 0.930 . S
C679 C680 1.399 . S
C679 C684 1.399 . S
C680 C679 1.399 . S
C680 C681 1.376 . S
C681 H668 0.930 . S
C681 C680 1.376 . S
C681 C682 1.388 . S
C682 H669 0.930 . S
C682 C681 1.388 . S
C682 C683 1.390 . S
C683 C682 1.390 . S
C683 C684 1.394 . S
C683 C689 1.465 . S
C684 C679 1.399 . S
C684 C683 1.394 . S
C684 C685 1.516 . S
C685 C684 1.516 . S
C685 C686 1.502 . S
C685 C687 1.561 . S
C685 C688 1.526 . S
C686 H670 0.959 . S
C686 H671 0.959 . S
C686 H672 0.961 . S
C686 C685 1.502 . S
C687 H673 0.960 . S
C687 H674 0.961 . S
C687 H675 0.959 . S
C687 C685 1.561 . S
C688 C685 1.526 . S
C688 C689 1.396 . S
C688 C693 1.390 . S
C689 C683 1.465 . S
C689 C688 1.396 . S
C689 C690 1.399 . S
C690 H676 0.929 . S
C690 C689 1.399 . S
C690 C691 1.385 . S
C691 H677 0.931 . S
C691 C690 1.385 . S
C691 C692 1.389 . S
C692 C691 1.389 . S
C692 C693 1.387 . S
C693 H678 0.930 . S
C693 C688 1.390 . S
C693 C692 1.387 . S
H694 C706 0.930 . S
H695 C708 0.930 . S
H696 C709 0.930 . S
H697 C713 0.959 . S
H698 C713 0.959 . S
H699 C713 0.961 . S
H700 C714 0.960 1_455 S
H701 C714 0.961 . S
H702 C714 0.959 . S
H703 C717 0.929 . S
H704 C718 0.931 . S
H705 C720 0.930 . S
C706 H694 0.930 . S
C706 C707 1.399 . S
C706 C711 1.399 . S
C707 C706 1.399 . S
C707 C708 1.376 . S
C708 H695 0.930 . S
C708 C707 1.376 . S
C708 C709 1.388 . S
C709 H696 0.930 . S
C709 C708 1.388 . S
C709 C710 1.390 . S
C710 C709 1.390 . S
C710 C711 1.394 . S
C710 C716 1.465 1_455 S
C711 C706 1.399 . S
C711 C710 1.394 . S
C711 C712 1.516 . S
C712 C711 1.516 . S
C712 C713 1.502 . S
C712 C714 1.561 1_455 S
C712 C715 1.526 1_455 S
C713 H697 0.959 . S
C713 H698 0.959 . S
C713 H699 0.961 . S
C713 C712 1.502 . S
C714 H700 0.960 1_655 S
C714 H701 0.961 . S
C714 H702 0.959 . S
C714 C712 1.561 1_655 S
C715 C712 1.526 1_655 S
C715 C716 1.396 . S
C715 C720 1.390 . S
C716 C710 1.465 1_655 S
C716 C715 1.396 . S
C716 C717 1.399 . S
C717 H703 0.929 . S
C717 C716 1.399 . S
C717 C718 1.385 . S
C718 H704 0.931 . S
C718 C717 1.385 . S
C718 C719 1.389 . S
C719 C718 1.389 . S
C719 C720 1.387 . S
C720 H705 0.930 . S
C720 C715 1.390 . S
C720 C719 1.387 . S
H721 C733 0.930 . S
H722 C735 0.930 . S
H723 C736 0.930 . S
H724 C740 0.959 . S
H725 C740 0.959 . S
H726 C740 0.961 . S
H727 C741 0.960 . S
H728 C741 0.961 1_655 S
H729 C741 0.959 . S
H730 C744 0.929 . S
H731 C745 0.931 . S
H732 C747 0.930 . S
C733 H721 0.930 . S
C733 C734 1.399 . S
C733 C738 1.399 . S
C734 C733 1.399 . S
C734 C735 1.376 . S
C735 H722 0.930 . S
C735 C734 1.376 . S
C735 C736 1.388 . S
C736 H723 0.930 . S
C736 C735 1.388 . S
C736 C737 1.390 . S
C737 C736 1.390 . S
C737 C738 1.394 . S
C737 C743 1.465 . S
C738 C733 1.399 . S
C738 C737 1.394 . S
C738 C739 1.516 1_455 S
C739 C738 1.516 1_655 S
C739 C740 1.502 . S
C739 C741 1.561 1_655 S
C739 C742 1.526 . S
C740 H724 0.959 . S
C740 H725 0.959 . S
C740 H726 0.961 . S
C740 C739 1.502 . S
C741 H727 0.960 . S
C741 H728 0.961 1_455 S
C741 H729 0.959 . S
C741 C739 1.561 1_455 S
C742 C739 1.526 . S
C742 C743 1.396 1_655 S
C742 C747 1.390 . S
C743 C737 1.465 . S
C743 C742 1.396 1_455 S
C743 C744 1.399 . S
C744 H730 0.929 . S
C744 C743 1.399 . S
C744 C745 1.385 1_455 S
C745 H731 0.931 . S
C745 C744 1.385 1_655 S
C745 C746 1.389 . S
C746 C745 1.389 . S
C746 C747 1.387 . S
C747 H732 0.930 . S
C747 C742 1.390 . S
C747 C746 1.387 . S
H748 C760 0.930 . S
H749 C762 0.930 . S
H750 C763 0.930 . S
H751 C767 0.959 . S
H752 C767 0.959 . S
H753 C767 0.961 . S
H754 C768 0.960 . S
H755 C768 0.961 . S
H756 C768 0.959 . S
H757 C771 0.929 . S
H758 C772 0.931 . S
H759 C774 0.930 . S
C760 H748 0.930 . S
C760 C761 1.399 . S
C760 C765 1.399 . S
C761 C760 1.399 . S
C761 C762 1.376 . S
C762 H749 0.930 . S
C762 C761 1.376 . S
C762 C763 1.388 . S
C763 H750 0.930 . S
C763 C762 1.388 . S
C763 C764 1.390 . S
C764 C763 1.390 . S
C764 C765 1.394 . S
C764 C770 1.465 . S
C765 C760 1.399 . S
C765 C764 1.394 . S
C765 C766 1.516 . S
C766 C765 1.516 . S
C766 C767 1.502 . S
C766 C768 1.561 . S
C766 C769 1.526 . S
C767 H751 0.959 . S
C767 H752 0.959 . S
C767 H753 0.961 . S
C767 C766 1.502 . S
C768 H754 0.960 . S
C768 H755 0.961 . S
C768 H756 0.959 . S
C768 C766 1.561 . S
C769 C766 1.526 . S
C769 C770 1.396 . S
C769 C774 1.390 . S
C770 C764 1.465 . S
C770 C769 1.396 . S
C770 C771 1.399 . S
C771 H757 0.929 . S
C771 C770 1.399 . S
C771 C772 1.385 . S
C772 H758 0.931 . S
C772 C771 1.385 . S
C772 C773 1.389 . S
C773 C772 1.389 . S
C773 C774 1.387 . S
C774 H759 0.930 . S
C774 C769 1.390 . S
C774 C773 1.387 . S
H775 C787 0.930 . S
H776 C789 0.930 . S
H777 C790 0.930 . S
H778 C794 0.959 . S
H779 C794 0.959 . S
H780 C794 0.961 . S
H781 C795 0.960 . S
H782 C795 0.961 . S
H783 C795 0.959 . S
H784 C798 0.929 . S
H785 C799 0.931 . S
H786 C801 0.930 . S
C787 H775 0.930 . S
C787 C788 1.399 . S
C787 C792 1.399 . S
C788 C787 1.399 . S
C788 C789 1.376 . S
C789 H776 0.930 . S
C789 C788 1.376 . S
C789 C790 1.388 . S
C790 H777 0.930 . S
C790 C789 1.388 . S
C790 C791 1.390 . S
C791 C790 1.390 . S
C791 C792 1.394 . S
C791 C797 1.465 . S
C792 C787 1.399 . S
C792 C791 1.394 . S
C792 C793 1.516 . S
C793 C792 1.516 . S
C793 C794 1.502 . S
C793 C795 1.561 . S
C793 C796 1.526 . S
C794 H778 0.959 . S
C794 H779 0.959 . S
C794 H780 0.961 . S
C794 C793 1.502 . S
C795 H781 0.960 . S
C795 H782 0.961 . S
C795 H783 0.959 . S
C795 C793 1.561 . S
C796 C793 1.526 . S
C796 C797 1.396 . S
C796 C801 1.390 . S
C797 C791 1.465 . S
C797 C796 1.396 . S
C797 C798 1.399 . S
C798 H784 0.929 . S
C798 C797 1.399 . S
C798 C799 1.385 . S
C799 H785 0.931 . S
C799 C798 1.385 . S
C799 C800 1.389 . S
C800 C799 1.389 . S
C800 C801 1.387 . S
C801 H786 0.930 . S
C801 C796 1.390 . S
C801 C800 1.387 . S
H802 C814 0.930 . S
H803 C816 0.930 . S
H804 C817 0.930 . S
H805 C821 0.959 . S
H806 C821 0.959 . S
H807 C821 0.961 . S
H808 C822 0.960 1_455 S
H809 C822 0.961 . S
H810 C822 0.959 1_455 S
H811 C825 0.929 . S
H812 C826 0.931 . S
H813 C828 0.930 . S
C814 H802 0.930 . S
C814 C815 1.399 . S
C814 C819 1.399 . S
C815 C814 1.399 . S
C815 C816 1.376 . S
C816 H803 0.930 . S
C816 C815 1.376 . S
C816 C817 1.388 . S
C817 H804 0.930 . S
C817 C816 1.388 . S
C817 C818 1.390 . S
C818 C817 1.390 . S
C818 C819 1.394 . S
C818 C824 1.465 1_455 S
C819 C814 1.399 . S
C819 C818 1.394 . S
C819 C820 1.516 1_455 S
C820 C819 1.516 1_655 S
C820 C821 1.502 . S
C820 C822 1.561 . S
C820 C823 1.526 . S
C821 H805 0.959 . S
C821 H806 0.959 . S
C821 H807 0.961 . S
C821 C820 1.502 . S
C822 H808 0.960 1_655 S
C822 H809 0.961 . S
C822 H810 0.959 1_655 S
C822 C820 1.561 . S
C823 C820 1.526 . S
C823 C824 1.396 . S
C823 C828 1.390 . S
C824 C818 1.465 1_655 S
C824 C823 1.396 . S
C824 C825 1.399 . S
C825 H811 0.929 . S
C825 C824 1.399 . S
C825 C826 1.385 . S
C826 H812 0.931 . S
C826 C825 1.385 . S
C826 C827 1.389 . S
C827 C826 1.389 . S
C827 C828 1.387 . S
C828 H813 0.930 . S
C828 C823 1.390 . S
C828 C827 1.387 . S
H829 C841 0.930 . S
H830 C843 0.930 . S
H831 C844 0.930 . S
H832 C848 0.959 . S
H833 C848 0.959 . S
H834 C848 0.961 . S
H835 C849 0.960 1_455 S
H836 C849 0.961 . S
H837 C849 0.959 . S
H838 C852 0.929 . S
H839 C853 0.931 . S
H840 C855 0.930 . S
C841 H829 0.930 . S
C841 C842 1.399 . S
C841 C846 1.399 . S
C842 C841 1.399 . S
C842 C843 1.376 . S
C843 H830 0.930 . S
C843 C842 1.376 . S
C843 C844 1.388 1_455 S
C844 H831 0.930 . S
C844 C843 1.388 1_655 S
C844 C845 1.390 . S
C845 C844 1.390 . S
C845 C846 1.394 1_655 S
C845 C851 1.465 . S
C846 C841 1.399 . S
C846 C845 1.394 1_455 S
C846 C847 1.516 . S
C847 C846 1.516 . S
C847 C848 1.502 . S
C847 C849 1.561 1_455 S
C847 C850 1.526 1_455 S
C848 H832 0.959 . S
C848 H833 0.959 . S
C848 H834 0.961 . S
C848 C847 1.502 . S
C849 H835 0.960 1_655 S
C849 H836 0.961 . S
C849 H837 0.959 . S
C849 C847 1.561 1_655 S
C850 C847 1.526 1_655 S
C850 C851 1.396 . S
C850 C855 1.390 . S
C851 C845 1.465 . S
C851 C850 1.396 . S
C851 C852 1.399 . S
C852 H838 0.929 . S
C852 C851 1.399 . S
C852 C853 1.385 . S
C853 H839 0.931 . S
C853 C852 1.385 . S
C853 C854 1.389 . S
C854 C853 1.389 . S
C854 C855 1.387 . S
C855 H840 0.930 . S
C855 C850 1.390 . S
C855 C854 1.387 . S
H856 C868 0.930 . S
H857 C870 0.930 . S
H858 C871 0.930 . S
H859 C875 0.959 . S
H860 C875 0.959 . S
H861 C875 0.961 . S
H862 C876 0.960 . S
H863 C876 0.961 . S
H864 C876 0.959 . S
H865 C879 0.929 . S
H866 C880 0.931 . S
H867 C882 0.930 . S
C868 H856 0.930 . S
C868 C869 1.399 . S
C868 C873 1.399 . S
C869 C868 1.399 . S
C869 C870 1.376 1_565 S
C870 H857 0.930 . S
C870 C869 1.376 1_545 S
C870 C871 1.388 . S
C871 H858 0.930 . S
C871 C870 1.388 . S
C871 C872 1.396 . S
C872 C871 1.396 . S
C872 C873 1.397 1_545 S
C872 C878 1.458 1_554 S
C873 C868 1.399 . S
C873 C872 1.397 1_565 S
C873 C874 1.516 1_554 S
C874 C873 1.516 1_556 S
C874 C875 1.502 1_556 S
C874 C876 1.561 . S
C874 C877 1.526 . S
C875 H859 0.959 . S
C875 H860 0.959 . S
C875 H861 0.961 . S
C875 C874 1.502 1_554 S
C876 H862 0.960 . S
C876 H863 0.961 . S
C876 H864 0.959 . S
C876 C874 1.561 . S
C877 C874 1.526 . S
C877 C878 1.396 1_565 S
C877 C882 1.390 . S
C878 C872 1.458 1_556 S
C878 C877 1.396 1_545 S
C878 C879 1.399 . S
C879 H865 0.929 . S
C879 C878 1.399 . S
C879 C880 1.385 . S
C880 H866 0.931 . S
C880 C879 1.385 . S
C880 C881 1.389 . S
C881 C880 1.389 . S
C881 C882 1.387 1_545 S
C882 H867 0.930 . S
C882 C877 1.390 . S
C882 C881 1.387 1_565 S
H883 C895 0.930 . S
H884 C897 0.930 . S
H885 C898 0.930 . S
H886 C902 0.959 . S
H887 C902 0.959 . S
H888 C902 0.961 . S
H889 C903 0.960 . S
H890 C903 0.961 . S
H891 C903 0.959 . S
H892 C906 0.929 . S
H893 C907 0.931 . S
H894 C909 0.930 . S
C895 H883 0.930 . S
C895 C896 1.399 . S
C895 C900 1.399 . S
C896 C895 1.399 . S
C896 C897 1.376 . S
C897 H884 0.930 . S
C897 C896 1.376 . S
C897 C898 1.388 . S
C898 H885 0.930 . S
C898 C897 1.388 . S
C898 C899 1.390 . S
C899 C898 1.390 . S
C899 C900 1.394 . S
C899 C905 1.465 . S
C900 C895 1.399 . S
C900 C899 1.394 . S
C900 C901 1.516 . S
C901 C900 1.516 . S
C901 C902 1.502 . S
C901 C903 1.561 . S
C901 C904 1.526 . S
C902 H886 0.959 . S
C902 H887 0.959 . S
C902 H888 0.961 . S
C902 C901 1.502 . S
C903 H889 0.960 . S
C903 H890 0.961 . S
C903 H891 0.959 . S
C903 C901 1.561 . S
C904 C901 1.526 . S
C904 C905 1.396 . S
C904 C909 1.390 . S
C905 C899 1.465 . S
C905 C904 1.396 . S
C905 C906 1.399 . S
C906 H892 0.929 . S
C906 C905 1.399 . S
C906 C907 1.385 . S
C907 H893 0.931 . S
C907 C906 1.385 . S
C907 C908 1.389 . S
C908 C907 1.389 . S
C908 C909 1.387 . S
C909 H894 0.930 . S
C909 C904 1.390 . S
C909 C908 1.387 . S
H910 C922 0.930 . S
H911 C924 0.930 . S
H912 C925 0.930 . S
H913 C929 0.959 . S
H914 C929 0.959 . S
H915 C929 0.961 1_455 S
H916 C930 0.960 1_455 S
H917 C930 0.961 . S
H918 C930 0.955 1_455 S
H919 C933 0.929 . S
H920 C934 0.931 . S
H921 C936 0.930 . S
C922 H910 0.930 . S
C922 C923 1.399 . S
C922 C927 1.399 . S
C923 C922 1.399 . S
C923 C924 1.376 1_545 S
C924 H911 0.930 . S
C924 C923 1.376 1_565 S
C924 C925 1.388 . S
C925 H912 0.930 . S
C925 C924 1.388 . S
C925 C926 1.390 . S
C926 C925 1.390 . S
C926 C927 1.394 1_565 S
C926 C932 1.465 1_455 S
C927 C922 1.399 . S
C927 C926 1.394 1_545 S
C927 C928 1.516 1_455 S
C928 C927 1.516 1_655 S
C928 C929 1.502 . S
C928 C930 1.561 . S
C928 C931 1.526 . S
C929 H913 0.959 . S
C929 H914 0.959 . S
C929 H915 0.961 1_655 S
C929 C928 1.502 . S
C930 H916 0.960 1_655 S
C930 H917 0.961 . S
C930 H918 0.955 1_655 S
C930 C928 1.561 . S
C931 C928 1.526 . S
C931 C932 1.396 1_545 S
C931 C936 1.390 . S
C932 C926 1.465 1_655 S
C932 C931 1.396 1_565 S
C932 C933 1.399 . S
C933 H919 0.929 . S
C933 C932 1.399 . S
C933 C934 1.385 . S
C934 H920 0.931 . S
C934 C933 1.385 . S
C934 C935 1.389 . S
C935 C934 1.389 . S
C935 C936 1.387 1_565 S
C936 H921 0.930 . S
C936 C931 1.390 . S
C936 C935 1.387 1_545 S
H937 C949 0.930 . S
H938 C951 0.930 . S
H939 C952 0.930 . S
H940 C956 0.959 . S
H941 C956 0.959 . S
H942 C956 0.961 . S
H943 C957 0.960 . S
H944 C957 0.961 . S
H945 C957 0.959 . S
H946 C960 0.929 . S
H947 C961 0.931 . S
H948 C963 0.930 . S
C949 H937 0.930 . S
C949 C950 1.399 . S
C949 C954 1.399 . S
C950 C949 1.399 . S
C950 C951 1.376 . S
C951 H938 0.930 . S
C951 C950 1.376 . S
C951 C952 1.388 . S
C952 H939 0.930 . S
C952 C951 1.388 . S
C952 C953 1.390 . S
C953 C952 1.390 . S
C953 C954 1.394 . S
C953 C959 1.465 . S
C954 C949 1.399 . S
C954 C953 1.394 . S
C954 C955 1.516 . S
C955 C954 1.516 . S
C955 C956 1.502 . S
C955 C957 1.561 . S
C955 C958 1.526 . S
C956 H940 0.959 . S
C956 H941 0.959 . S
C956 H942 0.961 . S
C956 C955 1.502 . S
C957 H943 0.960 . S
C957 H944 0.961 . S
C957 H945 0.959 . S
C957 C955 1.561 . S
C958 C955 1.526 . S
C958 C959 1.396 . S
C958 C963 1.390 . S
C959 C953 1.465 . S
C959 C958 1.396 . S
C959 C960 1.399 . S
C960 H946 0.929 . S
C960 C959 1.399 . S
C960 C961 1.385 . S
C961 H947 0.931 . S
C961 C960 1.385 . S
C961 C962 1.389 . S
C962 C961 1.389 . S
C962 C963 1.387 . S
C963 H948 0.930 . S
C963 C958 1.390 . S
C963 C962 1.387 . S
H964 C976 0.930 . S
H965 C978 0.930 . S
H966 C979 0.930 . S
H967 C983 0.959 . S
H968 C983 0.959 . S
H969 C983 0.961 . S
H970 C984 0.960 . S
H971 C984 0.961 . S
H972 C984 0.959 . S
H973 C987 0.929 . S
H974 C988 0.931 . S
H975 C990 0.930 . S
C976 H964 0.930 . S
C976 C977 1.399 . S
C976 C981 1.399 . S
C977 C976 1.399 . S
C977 C978 1.376 . S
C978 H965 0.930 . S
C978 C977 1.376 . S
C978 C979 1.388 . S
C979 H966 0.930 . S
C979 C978 1.388 . S
C979 C980 1.390 . S
C980 C979 1.390 . S
C980 C981 1.394 . S
C980 C986 1.465 . S
C981 C976 1.399 . S
C981 C980 1.394 . S
C981 C982 1.516 . S
C982 C981 1.516 . S
C982 C983 1.502 . S
C982 C984 1.561 . S
C982 C985 1.526 . S
C983 H967 0.959 . S
C983 H968 0.959 . S
C983 H969 0.961 . S
C983 C982 1.502 . S
C984 H970 0.960 . S
C984 H971 0.961 . S
C984 H972 0.959 . S
C984 C982 1.561 . S
C985 C982 1.526 . S
C985 C986 1.396 . S
C985 C990 1.390 . S
C986 C980 1.465 . S
C986 C985 1.396 . S
C986 C987 1.399 . S
C987 H973 0.929 . S
C987 C986 1.399 . S
C987 C988 1.385 . S
C988 H974 0.931 . S
C988 C987 1.385 . S
C988 C989 1.389 . S
C989 C988 1.389 . S
C989 C990 1.387 . S
C990 H975 0.930 . S
C990 C985 1.390 . S
C990 C989 1.387 . S
H991 C1003 0.930 . S
H992 C1005 0.930 . S
H993 C1006 0.930 . S
H994 C1010 0.959 . S
H995 C1010 0.959 . S
H996 C1010 0.961 . S
H997 C1011 0.960 . S
H998 C1011 0.961 . S
H999 C1011 0.959 . S
H1000 C1014 0.929 . S
H1001 C1015 0.931 . S
H1002 C1017 0.930 . S
C1003 H991 0.930 . S
C1003 C1004 1.399 . S
C1003 C1008 1.399 . S
C1004 C1003 1.399 . S
C1004 C1005 1.376 . S
C1005 H992 0.930 . S
C1005 C1004 1.376 . S
C1005 C1006 1.388 . S
C1006 H993 0.930 . S
C1006 C1005 1.388 . S
C1006 C1007 1.390 . S
C1007 C1006 1.390 . S
C1007 C1008 1.394 . S
C1007 C1013 1.465 . S
C1008 C1003 1.399 . S
C1008 C1007 1.394 . S
C1008 C1009 1.516 . S
C1009 C1008 1.516 . S
C1009 C1010 1.502 . S
C1009 C1011 1.561 . S
C1009 C1012 1.526 . S
C1010 H994 0.959 . S
C1010 H995 0.959 . S
C1010 H996 0.961 . S
C1010 C1009 1.502 . S
C1011 H997 0.960 . S
C1011 H998 0.961 . S
C1011 H999 0.959 . S
C1011 C1009 1.561 . S
C1012 C1009 1.526 . S
C1012 C1013 1.396 . S
C1012 C1017 1.390 . S
C1013 C1007 1.465 . S
C1013 C1012 1.396 . S
C1013 C1014 1.399 . S
C1014 H1000 0.929 . S
C1014 C1013 1.399 . S
C1014 C1015 1.385 . S
C1015 H1001 0.931 . S
C1015 C1014 1.385 . S
C1015 C1016 1.389 . S
C1016 C1015 1.389 . S
C1016 C1017 1.387 . S
C1017 H1002 0.930 . S
C1017 C1012 1.390 . S
C1017 C1016 1.387 . S
H1018 C1030 0.930 . S
H1019 C1032 0.930 . S
H1020 C1033 0.930 . S
H1021 C1037 0.959 . S
H1022 C1037 0.959 1_655 S
H1023 C1037 0.961 . S
H1024 C1038 0.960 1_455 S
H1025 C1038 0.961 . S
H1026 C1038 0.959 . S
H1027 C1041 0.929 . S
H1028 C1042 0.931 . S
H1029 C1044 0.930 . S
C1030 H1018 0.930 . S
C1030 C1031 1.399 . S
C1030 C1035 1.399 . S
C1031 C1030 1.399 . S
C1031 C1032 1.376 . S
C1032 H1019 0.930 . S
C1032 C1031 1.376 . S
C1032 C1033 1.388 . S
C1033 H1020 0.930 . S
C1033 C1032 1.388 . S
C1033 C1034 1.390 . S
C1034 C1033 1.390 . S
C1034 C1035 1.394 . S
C1034 C1040 1.465 1_455 S
C1035 C1030 1.399 . S
C1035 C1034 1.394 . S
C1035 C1036 1.516 . S
C1036 C1035 1.516 . S
C1036 C1037 1.502 . S
C1036 C1038 1.561 1_455 S
C1036 C1039 1.526 1_455 S
C1037 H1021 0.959 . S
C1037 H1022 0.959 1_455 S
C1037 H1023 0.961 . S
C1037 C1036 1.502 . S
C1038 H1024 0.960 1_655 S
C1038 H1025 0.961 . S
C1038 H1026 0.959 . S
C1038 C1036 1.561 1_655 S
C1039 C1036 1.526 1_655 S
C1039 C1040 1.396 . S
C1039 C1044 1.390 . S
C1040 C1034 1.465 1_655 S
C1040 C1039 1.396 . S
C1040 C1041 1.399 . S
C1041 H1027 0.929 . S
C1041 C1040 1.399 . S
C1041 C1042 1.385 . S
C1042 H1028 0.931 . S
C1042 C1041 1.385 . S
C1042 C1043 1.389 . S
C1043 C1042 1.389 . S
C1043 C1044 1.387 . S
C1044 H1029 0.930 . S
C1044 C1039 1.390 . S
C1044 C1043 1.387 . S
H1045 C1057 0.930 . S
H1046 C1059 0.930 . S
H1047 C1060 0.924 1_556 S
H1048 C1064 0.959 . S
H1049 C1064 0.959 . S
H1050 C1064 0.961 . S
H1051 C1065 0.960 . S
H1052 C1065 0.961 . S
H1053 C1065 0.959 . S
H1054 C1068 0.929 . S
H1055 C1069 0.931 . S
H1056 C1071 0.930 . S
C1057 H1045 0.930 . S
C1057 C1058 1.399 . S
C1057 C1062 1.399 . S
C1058 C1057 1.399 . S
C1058 C1059 1.376 . S
C1059 H1046 0.930 . S
C1059 C1058 1.376 . S
C1059 C1060 1.397 . S
C1060 H1047 0.924 1_554 S
C1060 C1059 1.397 . S
C1060 C1061 1.387 1_554 S
C1061 C1060 1.387 1_556 S
C1061 C1062 1.386 1_556 S
C1061 C1067 1.475 . S
C1062 C1057 1.399 . S
C1062 C1061 1.386 1_554 S
C1062 C1063 1.515 . S
C1063 C1062 1.515 . S
C1063 C1064 1.498 . S
C1063 C1065 1.565 1_554 S
C1063 C1066 1.527 1_554 S
C1064 H1048 0.959 . S
C1064 H1049 0.959 . S
C1064 H1050 0.961 . S
C1064 C1063 1.498 . S
C1065 H1051 0.960 . S
C1065 H1052 0.961 . S
C1065 H1053 0.959 . S
C1065 C1063 1.565 1_556 S
C1066 C1063 1.527 1_556 S
C1066 C1067 1.396 . S
C1066 C1071 1.390 . S
C1067 C1061 1.475 . S
C1067 C1066 1.396 . S
C1067 C1068 1.399 . S
C1068 H1054 0.929 . S
C1068 C1067 1.399 . S
C1068 C1069 1.385 . S
C1069 H1055 0.931 . S
C1069 C1068 1.385 . S
C1069 C1070 1.389 . S
C1070 C1069 1.389 . S
C1070 C1071 1.387 . S
C1071 H1056 0.930 . S
C1071 C1066 1.390 . S
C1071 C1070 1.387 . S
H1072 C1084 0.930 . S
H1073 C1086 0.930 . S
H1074 C1087 0.930 . S
H1075 C1091 0.959 . S
H1076 C1091 0.959 . S
H1077 C1091 0.961 . S
H1078 C1092 0.960 . S
H1079 C1092 0.961 . S
H1080 C1092 0.959 . S
H1081 C1095 0.929 . S
H1082 C1096 0.931 . S
H1083 C1098 0.930 . S
C1084 H1072 0.930 . S
C1084 C1085 1.399 . S
C1084 C1089 1.399 . S
C1085 C1084 1.399 . S
C1085 C1086 1.376 . S
C1086 H1073 0.930 . S
C1086 C1085 1.376 . S
C1086 C1087 1.388 . S
C1087 H1074 0.930 . S
C1087 C1086 1.388 . S
C1087 C1088 1.390 . S
C1088 C1087 1.390 . S
C1088 C1089 1.394 . S
C1088 C1094 1.465 . S
C1089 C1084 1.399 . S
C1089 C1088 1.394 . S
C1089 C1090 1.516 . S
C1090 C1089 1.516 . S
C1090 C1091 1.502 . S
C1090 C1092 1.561 . S
C1090 C1093 1.526 . S
C1091 H1075 0.959 . S
C1091 H1076 0.959 . S
C1091 H1077 0.961 . S
C1091 C1090 1.502 . S
C1092 H1078 0.960 . S
C1092 H1079 0.961 . S
C1092 H1080 0.959 . S
C1092 C1090 1.561 . S
C1093 C1090 1.526 . S
C1093 C1094 1.396 . S
C1093 C1098 1.390 . S
C1094 C1088 1.465 . S
C1094 C1093 1.396 . S
C1094 C1095 1.399 . S
C1095 H1081 0.929 . S
C1095 C1094 1.399 . S
C1095 C1096 1.385 . S
C1096 H1082 0.931 . S
C1096 C1095 1.385 . S
C1096 C1097 1.389 . S
C1097 C1096 1.389 . S
C1097 C1098 1.387 . S
C1098 H1083 0.930 . S
C1098 C1093 1.390 . S
C1098 C1097 1.387 . S
H1099 C1111 0.930 . S
H1100 C1113 0.930 . S
H1101 C1114 0.930 . S
H1102 C1118 0.959 . S
H1103 C1118 0.959 . S
H1104 C1118 0.961 . S
H1105 C1119 0.960 . S
H1106 C1119 0.961 . S
H1107 C1119 0.959 . S
H1108 C1122 0.929 . S
H1109 C1123 0.931 . S
H1110 C1125 0.930 . S
C1111 H1099 0.930 . S
C1111 C1112 1.399 . S
C1111 C1116 1.399 . S
C1112 C1111 1.399 . S
C1112 C1113 1.376 . S
C1113 H1100 0.930 . S
C1113 C1112 1.376 . S
C1113 C1114 1.388 . S
C1114 H1101 0.930 . S
C1114 C1113 1.388 . S
C1114 C1115 1.390 . S
C1115 C1114 1.390 . S
C1115 C1116 1.394 . S
C1115 C1121 1.465 . S
C1116 C1111 1.399 . S
C1116 C1115 1.394 . S
C1116 C1117 1.516 . S
C1117 C1116 1.516 . S
C1117 C1118 1.502 . S
C1117 C1119 1.561 . S
C1117 C1120 1.526 . S
C1118 H1102 0.959 . S
C1118 H1103 0.959 . S
C1118 H1104 0.961 . S
C1118 C1117 1.502 . S
C1119 H1105 0.960 . S
C1119 H1106 0.961 . S
C1119 H1107 0.959 . S
C1119 C1117 1.561 . S
C1120 C1117 1.526 . S
C1120 C1121 1.396 . S
C1120 C1125 1.390 . S
C1121 C1115 1.465 . S
C1121 C1120 1.396 . S
C1121 C1122 1.399 . S
C1122 H1108 0.929 . S
C1122 C1121 1.399 . S
C1122 C1123 1.385 . S
C1123 H1109 0.931 . S
C1123 C1122 1.385 . S
C1123 C1124 1.389 . S
C1124 C1123 1.389 . S
C1124 C1125 1.387 . S
C1125 H1110 0.930 . S
C1125 C1120 1.390 . S
C1125 C1124 1.387 . S
H1126 C1138 0.930 . S
H1127 C1140 0.930 . S
H1128 C1141 0.930 . S
H1129 C1145 0.959 . S
H1130 C1145 0.959 . S
H1131 C1145 0.961 . S
H1132 C1146 0.960 . S
H1133 C1146 0.961 . S
H1134 C1146 0.959 . S
H1135 C1149 0.929 . S
H1136 C1150 0.931 . S
H1137 C1152 0.930 . S
C1138 H1126 0.930 . S
C1138 C1139 1.399 . S
C1138 C1143 1.399 . S
C1139 C1138 1.399 . S
C1139 C1140 1.376 . S
C1140 H1127 0.930 . S
C1140 C1139 1.376 . S
C1140 C1141 1.388 . S
C1141 H1128 0.930 . S
C1141 C1140 1.388 . S
C1141 C1142 1.390 . S
C1142 C1141 1.390 . S
C1142 C1143 1.394 . S
C1142 C1148 1.465 . S
C1143 C1138 1.399 . S
C1143 C1142 1.394 . S
C1143 C1144 1.516 . S
C1144 C1143 1.516 . S
C1144 C1145 1.502 . S
C1144 C1146 1.561 . S
C1144 C1147 1.526 . S
C1145 H1129 0.959 . S
C1145 H1130 0.959 . S
C1145 H1131 0.961 . S
C1145 C1144 1.502 . S
C1146 H1132 0.960 . S
C1146 H1133 0.961 . S
C1146 H1134 0.959 . S
C1146 C1144 1.561 . S
C1147 C1144 1.526 . S
C1147 C1148 1.396 . S
C1147 C1152 1.390 . S
C1148 C1142 1.465 . S
C1148 C1147 1.396 . S
C1148 C1149 1.399 . S
C1149 H1135 0.929 . S
C1149 C1148 1.399 . S
C1149 C1150 1.385 . S
C1150 H1136 0.931 . S
C1150 C1149 1.385 . S
C1150 C1151 1.389 . S
C1151 C1150 1.389 . S
C1151 C1152 1.387 . S
C1152 H1137 0.930 . S
C1152 C1147 1.390 . S
C1152 C1151 1.387 . S
H1153 C1165 0.930 . S
H1154 C1167 0.930 . S
H1155 C1168 0.930 . S
H1156 C1172 0.959 . S
H1157 C1172 0.959 . S
H1158 C1172 0.961 . S
H1159 C1173 0.960 . S
H1160 C1173 0.961 . S
H1161 C1173 0.959 . S
H1162 C1176 0.929 . S
H1163 C1177 0.931 . S
H1164 C1179 0.930 . S
C1165 H1153 0.930 . S
C1165 C1166 1.399 . S
C1165 C1170 1.399 . S
C1166 C1165 1.399 . S
C1166 C1167 1.376 . S
C1167 H1154 0.930 . S
C1167 C1166 1.376 . S
C1167 C1168 1.388 . S
C1168 H1155 0.930 . S
C1168 C1167 1.388 . S
C1168 C1169 1.390 . S
C1169 C1168 1.390 . S
C1169 C1170 1.394 . S
C1169 C1175 1.465 . S
C1170 C1165 1.399 . S
C1170 C1169 1.394 . S
C1170 C1171 1.516 . S
C1171 C1170 1.516 . S
C1171 C1172 1.502 . S
C1171 C1173 1.561 . S
C1171 C1174 1.526 . S
C1172 H1156 0.959 . S
C1172 H1157 0.959 . S
C1172 H1158 0.961 . S
C1172 C1171 1.502 . S
C1173 H1159 0.960 . S
C1173 H1160 0.961 . S
C1173 H1161 0.959 . S
C1173 C1171 1.561 . S
C1174 C1171 1.526 . S
C1174 C1175 1.396 . S
C1174 C1179 1.390 . S
C1175 C1169 1.465 . S
C1175 C1174 1.396 . S
C1175 C1176 1.399 . S
C1176 H1162 0.929 . S
C1176 C1175 1.399 . S
C1176 C1177 1.385 . S
C1177 H1163 0.931 . S
C1177 C1176 1.385 . S
C1177 C1178 1.389 . S
C1178 C1177 1.389 . S
C1178 C1179 1.387 . S
C1179 H1164 0.930 . S
C1179 C1174 1.390 . S
C1179 C1178 1.387 . S
H1180 C1192 0.930 . S
H1181 C1194 0.930 . S
H1182 C1195 0.930 . S
H1183 C1199 0.959 . S
H1184 C1199 0.959 . S
H1185 C1199 0.961 . S
H1186 C1200 0.960 . S
H1187 C1200 0.961 . S
H1188 C1200 0.959 . S
H1189 C1203 0.929 . S
H1190 C1204 0.931 . S
H1191 C1206 0.930 . S
C1192 H1180 0.930 . S
C1192 C1193 1.399 . S
C1192 C1197 1.399 . S
C1193 C1192 1.399 . S
C1193 C1194 1.376 . S
C1194 H1181 0.930 . S
C1194 C1193 1.376 . S
C1194 C1195 1.388 . S
C1195 H1182 0.930 . S
C1195 C1194 1.388 . S
C1195 C1196 1.390 . S
C1196 C1195 1.390 . S
C1196 C1197 1.394 . S
C1196 C1202 1.465 . S
C1197 C1192 1.399 . S
C1197 C1196 1.394 . S
C1197 C1198 1.516 . S
C1198 C1197 1.516 . S
C1198 C1199 1.502 . S
C1198 C1200 1.561 . S
C1198 C1201 1.526 . S
C1199 H1183 0.959 . S
C1199 H1184 0.959 . S
C1199 H1185 0.961 . S
C1199 C1198 1.502 . S
C1200 H1186 0.960 . S
C1200 H1187 0.961 . S
C1200 H1188 0.959 . S
C1200 C1198 1.561 . S
C1201 C1198 1.526 . S
C1201 C1202 1.396 . S
C1201 C1206 1.390 . S
C1202 C1196 1.465 . S
C1202 C1201 1.396 . S
C1202 C1203 1.399 . S
C1203 H1189 0.929 . S
C1203 C1202 1.399 . S
C1203 C1204 1.385 . S
C1204 H1190 0.931 . S
C1204 C1203 1.385 . S
C1204 C1205 1.389 . S
C1205 C1204 1.389 . S
C1205 C1206 1.387 . S
C1206 H1191 0.930 . S
C1206 C1201 1.390 . S
C1206 C1205 1.387 . S
H1207 C1219 0.930 . S
H1208 C1221 0.930 . S
H1209 C1222 0.930 . S
H1210 C1226 0.959 . S
H1211 C1226 0.959 . S
H1212 C1226 0.961 . S
H1213 C1227 0.960 . S
H1214 C1227 0.961 . S
H1215 C1227 0.959 . S
H1216 C1230 0.929 . S
H1217 C1231 0.931 . S
H1218 C1233 0.930 . S
C1219 H1207 0.930 . S
C1219 C1220 1.399 . S
C1219 C1224 1.399 . S
C1220 C1219 1.399 . S
C1220 C1221 1.376 . S
C1221 H1208 0.930 . S
C1221 C1220 1.376 . S
C1221 C1222 1.388 . S
C1222 H1209 0.930 . S
C1222 C1221 1.388 . S
C1222 C1223 1.390 . S
C1223 C1222 1.390 . S
C1223 C1224 1.394 . S
C1223 C1229 1.465 . S
C1224 C1219 1.399 . S
C1224 C1223 1.394 . S
C1224 C1225 1.516 . S
C1225 C1224 1.516 . S
C1225 C1226 1.502 . S
C1225 C1227 1.561 . S
C1225 C1228 1.526 . S
C1226 H1210 0.959 . S
C1226 H1211 0.959 . S
C1226 H1212 0.961 . S
C1226 C1225 1.502 . S
C1227 H1213 0.960 . S
C1227 H1214 0.961 . S
C1227 H1215 0.959 . S
C1227 C1225 1.561 . S
C1228 C1225 1.526 . S
C1228 C1229 1.396 . S
C1228 C1233 1.390 . S
C1229 C1223 1.465 . S
C1229 C1228 1.396 . S
C1229 C1230 1.399 . S
C1230 H1216 0.929 . S
C1230 C1229 1.399 . S
C1230 C1231 1.385 . S
C1231 H1217 0.931 . S
C1231 C1230 1.385 . S
C1231 C1232 1.389 . S
C1232 C1231 1.389 . S
C1232 C1233 1.387 . S
C1233 H1218 0.930 . S
C1233 C1228 1.390 . S
C1233 C1232 1.387 . S
H1234 C1246 0.930 . S
H1235 C1248 0.930 . S
H1236 C1249 0.930 . S
H1237 C1253 0.959 . S
H1238 C1253 0.959 . S
H1239 C1253 0.961 . S
H1240 C1254 0.960 . S
H1241 C1254 0.961 . S
H1242 C1254 0.959 . S
H1243 C1257 0.929 . S
H1244 C1258 0.931 . S
H1245 C1260 0.930 . S
C1246 H1234 0.930 . S
C1246 C1247 1.399 . S
C1246 C1251 1.399 . S
C1247 C1246 1.399 . S
C1247 C1248 1.376 . S
C1248 H1235 0.930 . S
C1248 C1247 1.376 . S
C1248 C1249 1.388 . S
C1249 H1236 0.930 . S
C1249 C1248 1.388 . S
C1249 C1250 1.390 . S
C1250 C1249 1.390 . S
C1250 C1251 1.394 . S
C1250 C1256 1.465 . S
C1251 C1246 1.399 . S
C1251 C1250 1.394 . S
C1251 C1252 1.516 . S
C1252 C1251 1.516 . S
C1252 C1253 1.502 . S
C1252 C1254 1.561 . S
C1252 C1255 1.526 . S
C1253 H1237 0.959 . S
C1253 H1238 0.959 . S
C1253 H1239 0.961 . S
C1253 C1252 1.502 . S
C1254 H1240 0.960 . S
C1254 H1241 0.961 . S
C1254 H1242 0.959 . S
C1254 C1252 1.561 . S
C1255 C1252 1.526 . S
C1255 C1256 1.396 . S
C1255 C1260 1.390 . S
C1256 C1250 1.465 . S
C1256 C1255 1.396 . S
C1256 C1257 1.399 . S
C1257 H1243 0.929 . S
C1257 C1256 1.399 . S
C1257 C1258 1.385 . S
C1258 H1244 0.931 . S
C1258 C1257 1.385 . S
C1258 C1259 1.389 . S
C1259 C1258 1.389 . S
C1259 C1260 1.387 . S
C1260 H1245 0.930 . S
C1260 C1255 1.390 . S
C1260 C1259 1.387 . S
H1261 C1273 0.930 . S
H1262 C1275 0.930 . S
H1263 C1276 0.930 . S
H1264 C1280 0.959 . S
H1265 C1280 0.959 . S
H1266 C1280 0.961 . S
H1267 C1281 0.960 . S
H1268 C1281 0.961 . S
H1269 C1281 0.959 . S
H1270 C1284 0.929 . S
H1271 C1285 0.931 . S
H1272 C1287 0.930 . S
C1273 H1261 0.930 . S
C1273 C1274 1.399 . S
C1273 C1278 1.399 . S
C1274 C1273 1.399 . S
C1274 C1275 1.376 . S
C1275 H1262 0.930 . S
C1275 C1274 1.376 . S
C1275 C1276 1.388 . S
C1276 H1263 0.930 . S
C1276 C1275 1.388 . S
C1276 C1277 1.390 . S
C1277 C1276 1.390 . S
C1277 C1278 1.394 . S
C1277 C1283 1.465 . S
C1278 C1273 1.399 . S
C1278 C1277 1.394 . S
C1278 C1279 1.516 . S
C1279 C1278 1.516 . S
C1279 C1280 1.502 . S
C1279 C1281 1.561 . S
C1279 C1282 1.526 . S
C1280 H1264 0.959 . S
C1280 H1265 0.959 . S
C1280 H1266 0.961 . S
C1280 C1279 1.502 . S
C1281 H1267 0.960 . S
C1281 H1268 0.961 . S
C1281 H1269 0.959 . S
C1281 C1279 1.561 . S
C1282 C1279 1.526 . S
C1282 C1283 1.396 . S
C1282 C1287 1.390 . S
C1283 C1277 1.465 . S
C1283 C1282 1.396 . S
C1283 C1284 1.399 . S
C1284 H1270 0.929 . S
C1284 C1283 1.399 . S
C1284 C1285 1.385 . S
C1285 H1271 0.931 . S
C1285 C1284 1.385 . S
C1285 C1286 1.389 . S
C1286 C1285 1.389 . S
C1286 C1287 1.387 . S
C1287 H1272 0.930 . S
C1287 C1282 1.390 . S
C1287 C1286 1.387 . S
H1288 C1300 0.930 . S
H1289 C1302 0.930 . S
H1290 C1303 0.930 . S
H1291 C1307 0.959 . S
H1292 C1307 0.959 . S
H1293 C1307 0.961 . S
H1294 C1308 0.960 . S
H1295 C1308 0.961 . S
H1296 C1308 0.959 . S
H1297 C1311 0.929 . S
H1298 C1312 0.931 . S
H1299 C1314 0.930 . S
C1300 H1288 0.930 . S
C1300 C1301 1.399 . S
C1300 C1305 1.399 . S
C1301 C1300 1.399 . S
C1301 C1302 1.376 . S
C1302 H1289 0.930 . S
C1302 C1301 1.376 . S
C1302 C1303 1.388 . S
C1303 H1290 0.930 . S
C1303 C1302 1.388 . S
C1303 C1304 1.390 . S
C1304 C1303 1.390 . S
C1304 C1305 1.394 . S
C1304 C1310 1.465 . S
C1305 C1300 1.399 . S
C1305 C1304 1.394 . S
C1305 C1306 1.516 . S
C1306 C1305 1.516 . S
C1306 C1307 1.502 . S
C1306 C1308 1.561 . S
C1306 C1309 1.526 . S
C1307 H1291 0.959 . S
C1307 H1292 0.959 . S
C1307 H1293 0.961 . S
C1307 C1306 1.502 . S
C1308 H1294 0.960 . S
C1308 H1295 0.961 . S
C1308 H1296 0.959 . S
C1308 C1306 1.561 . S
C1309 C1306 1.526 . S
C1309 C1310 1.396 . S
C1309 C1314 1.390 . S
C1310 C1304 1.465 . S
C1310 C1309 1.396 . S
C1310 C1311 1.399 . S
C1311 H1297 0.929 . S
C1311 C1310 1.399 . S
C1311 C1312 1.385 . S
C1312 H1298 0.931 . S
C1312 C1311 1.385 . S
C1312 C1313 1.389 . S
C1313 C1312 1.389 . S
C1313 C1314 1.387 . S
C1314 H1299 0.930 . S
C1314 C1309 1.390 . S
C1314 C1313 1.387 . S
H1315 C1327 0.930 . S
H1316 C1329 0.930 . S
H1317 C1330 0.930 . S
H1318 C1334 0.959 . S
H1319 C1334 0.959 . S
H1320 C1334 0.961 . S
H1321 C1335 0.960 . S
H1322 C1335 0.961 . S
H1323 C1335 0.959 . S
H1324 C1338 0.929 . S
H1325 C1339 0.931 . S
H1326 C1341 0.930 . S
C1327 H1315 0.930 . S
C1327 C1328 1.399 . S
C1327 C1332 1.399 . S
C1328 C1327 1.399 . S
C1328 C1329 1.376 . S
C1329 H1316 0.930 . S
C1329 C1328 1.376 . S
C1329 C1330 1.388 . S
C1330 H1317 0.930 . S
C1330 C1329 1.388 . S
C1330 C1331 1.390 . S
C1331 C1330 1.390 . S
C1331 C1332 1.394 . S
C1331 C1337 1.465 . S
C1332 C1327 1.399 . S
C1332 C1331 1.394 . S
C1332 C1333 1.516 . S
C1333 C1332 1.516 . S
C1333 C1334 1.502 . S
C1333 C1335 1.561 . S
C1333 C1336 1.526 . S
C1334 H1318 0.959 . S
C1334 H1319 0.959 . S
C1334 H1320 0.961 . S
C1334 C1333 1.502 . S
C1335 H1321 0.960 . S
C1335 H1322 0.961 . S
C1335 H1323 0.959 . S
C1335 C1333 1.561 . S
C1336 C1333 1.526 . S
C1336 C1337 1.396 . S
C1336 C1341 1.390 . S
C1337 C1331 1.465 . S
C1337 C1336 1.396 . S
C1337 C1338 1.399 . S
C1338 H1324 0.929 . S
C1338 C1337 1.399 . S
C1338 C1339 1.385 . S
C1339 H1325 0.931 . S
C1339 C1338 1.385 . S
C1339 C1340 1.389 . S
C1340 C1339 1.389 . S
C1340 C1341 1.387 . S
C1341 H1326 0.930 . S
C1341 C1336 1.390 . S
C1341 C1340 1.387 . S
H1342 C1354 0.930 . S
H1343 C1356 0.930 . S
H1344 C1357 0.930 . S
H1345 C1361 0.959 . S
H1346 C1361 0.959 . S
H1347 C1361 0.961 . S
H1348 C1362 0.960 . S
H1349 C1362 0.961 . S
H1350 C1362 0.959 . S
H1351 C1365 0.929 . S
H1352 C1366 0.931 . S
H1353 C1368 0.930 . S
C1354 H1342 0.930 . S
C1354 C1355 1.399 . S
C1354 C1359 1.399 . S
C1355 C1354 1.399 . S
C1355 C1356 1.376 . S
C1356 H1343 0.930 . S
C1356 C1355 1.376 . S
C1356 C1357 1.388 . S
C1357 H1344 0.930 . S
C1357 C1356 1.388 . S
C1357 C1358 1.390 . S
C1358 C1357 1.390 . S
C1358 C1359 1.394 . S
C1358 C1364 1.465 . S
C1359 C1354 1.399 . S
C1359 C1358 1.394 . S
C1359 C1360 1.516 . S
C1360 C1359 1.516 . S
C1360 C1361 1.502 . S
C1360 C1362 1.561 . S
C1360 C1363 1.526 . S
C1361 H1345 0.959 . S
C1361 H1346 0.959 . S
C1361 H1347 0.961 . S
C1361 C1360 1.502 . S
C1362 H1348 0.960 . S
C1362 H1349 0.961 . S
C1362 H1350 0.959 . S
C1362 C1360 1.561 . S
C1363 C1360 1.526 . S
C1363 C1364 1.396 . S
C1363 C1368 1.390 . S
C1364 C1358 1.465 . S
C1364 C1363 1.396 . S
C1364 C1365 1.399 . S
C1365 H1351 0.929 . S
C1365 C1364 1.399 . S
C1365 C1366 1.385 . S
C1366 H1352 0.931 . S
C1366 C1365 1.385 . S
C1366 C1367 1.389 . S
C1367 C1366 1.389 . S
C1367 C1368 1.387 . S
C1368 H1353 0.930 . S
C1368 C1363 1.390 . S
C1368 C1367 1.387 . S
H1369 C1381 0.930 . S
H1370 C1383 0.930 . S
H1371 C1384 0.930 . S
H1372 C1388 0.959 . S
H1373 C1388 0.959 1_565 S
H1374 C1388 0.961 . S
H1375 C1389 0.960 . S
H1376 C1389 0.961 . S
H1377 C1389 0.959 . S
H1378 C1392 0.929 . S
H1379 C1393 0.931 . S
H1380 C1395 0.930 . S
C1381 H1369 0.930 . S
C1381 C1382 1.399 . S
C1381 C1386 1.399 . S
C1382 C1381 1.399 . S
C1382 C1383 1.376 . S
C1383 H1370 0.930 . S
C1383 C1382 1.376 . S
C1383 C1384 1.388 . S
C1384 H1371 0.930 . S
C1384 C1383 1.388 . S
C1384 C1385 1.390 . S
C1385 C1384 1.390 . S
C1385 C1386 1.394 . S
C1385 C1391 1.465 . S
C1386 C1381 1.399 . S
C1386 C1385 1.394 . S
C1386 C1387 1.516 . S
C1387 C1386 1.516 . S
C1387 C1388 1.502 . S
C1387 C1389 1.561 . S
C1387 C1390 1.526 . S
C1388 H1372 0.959 . S
C1388 H1373 0.959 1_545 S
C1388 H1374 0.961 . S
C1388 C1387 1.502 . S
C1389 H1375 0.960 . S
C1389 H1376 0.961 . S
C1389 H1377 0.959 . S
C1389 C1387 1.561 . S
C1390 C1387 1.526 . S
C1390 C1391 1.396 . S
C1390 C1395 1.390 . S
C1391 C1385 1.465 . S
C1391 C1390 1.396 . S
C1391 C1392 1.399 . S
C1392 H1378 0.929 . S
C1392 C1391 1.399 . S
C1392 C1393 1.385 . S
C1393 H1379 0.931 . S
C1393 C1392 1.385 . S
C1393 C1394 1.389 . S
C1394 C1393 1.389 . S
C1394 C1395 1.387 . S
C1395 H1380 0.930 . S
C1395 C1390 1.390 . S
C1395 C1394 1.387 . S
H1396 C1408 0.930 . S
H1397 C1410 0.930 . S
H1398 C1411 0.930 . S
H1399 C1415 0.959 . S
H1400 C1415 0.959 . S
H1401 C1415 0.961 . S
H1402 C1416 0.960 . S
H1403 C1416 0.961 . S
H1404 C1416 0.959 . S
H1405 C1419 0.929 . S
H1406 C1420 0.931 . S
H1407 C1422 0.930 . S
C1408 H1396 0.930 . S
C1408 C1409 1.399 . S
C1408 C1413 1.399 . S
C1409 C1408 1.399 . S
C1409 C1410 1.376 . S
C1410 H1397 0.930 . S
C1410 C1409 1.376 . S
C1410 C1411 1.388 . S
C1411 H1398 0.930 . S
C1411 C1410 1.388 . S
C1411 C1412 1.390 . S
C1412 C1411 1.390 . S
C1412 C1413 1.394 . S
C1412 C1418 1.465 . S
C1413 C1408 1.399 . S
C1413 C1412 1.394 . S
C1413 C1414 1.516 . S
C1414 C1413 1.516 . S
C1414 C1415 1.502 . S
C1414 C1416 1.561 . S
C1414 C1417 1.526 . S
C1415 H1399 0.959 . S
C1415 H1400 0.959 . S
C1415 H1401 0.961 . S
C1415 C1414 1.502 . S
C1416 H1402 0.960 . S
C1416 H1403 0.961 . S
C1416 H1404 0.959 . S
C1416 C1414 1.561 . S
C1417 C1414 1.526 . S
C1417 C1418 1.396 . S
C1417 C1422 1.390 . S
C1418 C1412 1.465 . S
C1418 C1417 1.396 . S
C1418 C1419 1.399 . S
C1419 H1405 0.929 . S
C1419 C1418 1.399 . S
C1419 C1420 1.385 . S
C1420 H1406 0.931 . S
C1420 C1419 1.385 . S
C1420 C1421 1.389 . S
C1421 C1420 1.389 . S
C1421 C1422 1.387 . S
C1422 H1407 0.930 . S
C1422 C1417 1.390 . S
C1422 C1421 1.387 . S
H1423 C1435 0.930 . S
H1424 C1437 0.930 . S
H1425 C1438 0.930 . S
H1426 C1442 0.959 . S
H1427 C1442 0.959 . S
H1428 C1442 0.961 . S
H1429 C1443 0.960 . S
H1430 C1443 0.961 . S
H1431 C1443 0.959 . S
H1432 C1446 0.929 . S
H1433 C1447 0.931 . S
H1434 C1449 0.930 . S
C1435 H1423 0.930 . S
C1435 C1436 1.399 . S
C1435 C1440 1.399 . S
C1436 C1435 1.399 . S
C1436 C1437 1.376 . S
C1437 H1424 0.930 . S
C1437 C1436 1.376 . S
C1437 C1438 1.388 . S
C1438 H1425 0.930 . S
C1438 C1437 1.388 . S
C1438 C1439 1.390 . S
C1439 C1438 1.390 . S
C1439 C1440 1.394 . S
C1439 C1445 1.465 . S
C1440 C1435 1.399 . S
C1440 C1439 1.394 . S
C1440 C1441 1.516 . S
C1441 C1440 1.516 . S
C1441 C1442 1.502 . S
C1441 C1443 1.561 . S
C1441 C1444 1.526 . S
C1442 H1426 0.959 . S
C1442 H1427 0.959 . S
C1442 H1428 0.961 . S
C1442 C1441 1.502 . S
C1443 H1429 0.960 . S
C1443 H1430 0.961 . S
C1443 H1431 0.959 . S
C1443 C1441 1.561 . S
C1444 C1441 1.526 . S
C1444 C1445 1.396 . S
C1444 C1449 1.390 . S
C1445 C1439 1.465 . S
C1445 C1444 1.396 . S
C1445 C1446 1.399 . S
C1446 H1432 0.929 . S
C1446 C1445 1.399 . S
C1446 C1447 1.385 . S
C1447 H1433 0.931 . S
C1447 C1446 1.385 . S
C1447 C1448 1.389 . S
C1448 C1447 1.389 . S
C1448 C1449 1.387 . S
C1449 H1434 0.930 . S
C1449 C1444 1.390 . S
C1449 C1448 1.387 . S
H1450 C1462 0.930 . S
H1451 C1464 0.930 . S
H1452 C1465 0.930 . S
H1453 C1469 0.959 . S
H1454 C1469 0.959 . S
H1455 C1469 0.961 . S
H1456 C1470 0.960 . S
H1457 C1470 0.961 . S
H1458 C1470 0.959 . S
H1459 C1473 0.929 . S
H1460 C1474 0.931 . S
H1461 C1476 0.930 . S
C1462 H1450 0.930 . S
C1462 C1463 1.399 . S
C1462 C1467 1.399 . S
C1463 C1462 1.399 . S
C1463 C1464 1.376 . S
C1464 H1451 0.930 . S
C1464 C1463 1.376 . S
C1464 C1465 1.388 . S
C1465 H1452 0.930 . S
C1465 C1464 1.388 . S
C1465 C1466 1.390 . S
C1466 C1465 1.390 . S
C1466 C1467 1.394 . S
C1466 C1472 1.465 . S
C1467 C1462 1.399 . S
C1467 C1466 1.394 . S
C1467 C1468 1.516 . S
C1468 C1467 1.516 . S
C1468 C1469 1.502 . S
C1468 C1470 1.561 . S
C1468 C1471 1.526 . S
C1469 H1453 0.959 . S
C1469 H1454 0.959 . S
C1469 H1455 0.961 . S
C1469 C1468 1.502 . S
C1470 H1456 0.960 . S
C1470 H1457 0.961 . S
C1470 H1458 0.959 . S
C1470 C1468 1.561 . S
C1471 C1468 1.526 . S
C1471 C1472 1.396 . S
C1471 C1476 1.390 . S
C1472 C1466 1.465 . S
C1472 C1471 1.396 . S
C1472 C1473 1.399 . S
C1473 H1459 0.929 . S
C1473 C1472 1.399 . S
C1473 C1474 1.385 . S
C1474 H1460 0.931 . S
C1474 C1473 1.385 . S
C1474 C1475 1.389 . S
C1475 C1474 1.389 . S
C1475 C1476 1.387 . S
C1476 H1461 0.930 . S
C1476 C1471 1.390 . S
C1476 C1475 1.387 . S
H1477 C1489 0.930 . S
H1478 C1491 0.914 1_545 S
H1479 C1492 0.930 . S
H1480 C1496 0.959 . S
H1481 C1496 0.959 . S
H1482 C1496 0.961 . S
H1483 C1497 0.960 . S
H1484 C1497 0.961 . S
H1485 C1497 0.959 . S
H1486 C1500 0.929 . S
H1487 C1501 0.931 . S
H1488 C1503 0.930 . S
C1489 H1477 0.930 . S
C1489 C1490 1.399 . S
C1489 C1494 1.399 . S
C1490 C1489 1.399 . S
C1490 C1491 1.376 . S
C1491 H1478 0.914 1_565 S
C1491 C1490 1.376 . S
C1491 C1492 1.388 . S
C1492 H1479 0.930 . S
C1492 C1491 1.388 . S
C1492 C1493 1.390 . S
C1493 C1492 1.390 . S
C1493 C1494 1.394 . S
C1493 C1499 1.465 . S
C1494 C1489 1.399 . S
C1494 C1493 1.394 . S
C1494 C1495 1.516 . S
C1495 C1494 1.516 . S
C1495 C1496 1.502 . S
C1495 C1497 1.561 . S
C1495 C1498 1.526 . S
C1496 H1480 0.959 . S
C1496 H1481 0.959 . S
C1496 H1482 0.961 . S
C1496 C1495 1.502 . S
C1497 H1483 0.960 . S
C1497 H1484 0.961 . S
C1497 H1485 0.959 . S
C1497 C1495 1.561 . S
C1498 C1495 1.526 . S
C1498 C1499 1.396 . S
C1498 C1503 1.390 . S
C1499 C1493 1.465 . S
C1499 C1498 1.396 . S
C1499 C1500 1.399 . S
C1500 H1486 0.929 . S
C1500 C1499 1.399 . S
C1500 C1501 1.385 . S
C1501 H1487 0.931 . S
C1501 C1500 1.385 . S
C1501 C1502 1.389 . S
C1502 C1501 1.389 . S
C1502 C1503 1.387 . S
C1503 H1488 0.930 . S
C1503 C1498 1.390 . S
C1503 C1502 1.387 . S
H1504 C1516 0.930 1_554 S
H1505 C1518 0.930 . S
H1506 C1519 0.930 . S
H1507 C1523 0.959 . S
H1508 C1523 0.959 . S
H1509 C1523 0.961 . S
H1510 C1524 0.960 . S
H1511 C1524 0.961 . S
H1512 C1524 0.959 . S
H1513 C1527 0.929 . S
H1514 C1528 0.931 . S
H1515 C1530 0.930 . S
C1516 H1504 0.930 1_556 S
C1516 C1517 1.399 1_556 S
C1516 C1521 1.399 . S
C1517 C1516 1.399 1_554 S
C1517 C1518 1.376 . S
C1518 H1505 0.930 . S
C1518 C1517 1.376 . S
C1518 C1519 1.388 1_554 S
C1519 H1506 0.930 . S
C1519 C1518 1.388 1_556 S
C1519 C1520 1.390 . S
C1520 C1519 1.390 . S
C1520 C1521 1.394 . S
C1520 C1526 1.465 . S
C1521 C1516 1.399 . S
C1521 C1520 1.394 . S
C1521 C1522 1.516 . S
C1522 C1521 1.516 . S
C1522 C1523 1.502 . S
C1522 C1524 1.561 . S
C1522 C1525 1.526 . S
C1523 H1507 0.959 . S
C1523 H1508 0.959 . S
C1523 H1509 0.961 . S
C1523 C1522 1.502 . S
C1524 H1510 0.960 . S
C1524 H1511 0.961 . S
C1524 H1512 0.959 . S
C1524 C1522 1.561 . S
C1525 C1522 1.526 . S
C1525 C1526 1.396 . S
C1525 C1530 1.390 . S
C1526 C1520 1.465 . S
C1526 C1525 1.396 . S
C1526 C1527 1.399 . S
C1527 H1513 0.929 . S
C1527 C1526 1.399 . S
C1527 C1528 1.385 . S
C1528 H1514 0.931 . S
C1528 C1527 1.385 . S
C1528 C1529 1.389 . S
C1529 C1528 1.389 . S
C1529 C1530 1.387 . S
C1530 H1515 0.930 . S
C1530 C1525 1.390 . S
C1530 C1529 1.387 . S
H1531 C1543 0.930 . S
H1532 C1545 0.930 . S
H1533 C1546 0.930 . S
H1534 C1550 0.959 . S
H1535 C1550 0.959 . S
H1536 C1550 0.961 . S
H1537 C1551 0.960 . S
H1538 C1551 0.961 . S
H1539 C1551 0.959 . S
H1540 C1554 0.929 . S
H1541 C1555 0.931 . S
H1542 C1557 0.930 . S
C1543 H1531 0.930 . S
C1543 C1544 1.399 . S
C1543 C1548 1.399 . S
C1544 C1543 1.399 . S
C1544 C1545 1.376 . S
C1545 H1532 0.930 . S
C1545 C1544 1.376 . S
C1545 C1546 1.388 . S
C1546 H1533 0.930 . S
C1546 C1545 1.388 . S
C1546 C1547 1.390 . S
C1547 C1546 1.390 . S
C1547 C1548 1.394 . S
C1547 C1553 1.465 . S
C1548 C1543 1.399 . S
C1548 C1547 1.394 . S
C1548 C1549 1.516 . S
C1549 C1548 1.516 . S
C1549 C1550 1.502 . S
C1549 C1551 1.561 . S
C1549 C1552 1.526 . S
C1550 H1534 0.959 . S
C1550 H1535 0.959 . S
C1550 H1536 0.961 . S
C1550 C1549 1.502 . S
C1551 H1537 0.960 . S
C1551 H1538 0.961 . S
C1551 H1539 0.959 . S
C1551 C1549 1.561 . S
C1552 C1549 1.526 . S
C1552 C1553 1.396 . S
C1552 C1557 1.390 . S
C1553 C1547 1.465 . S
C1553 C1552 1.396 . S
C1553 C1554 1.399 . S
C1554 H1540 0.929 . S
C1554 C1553 1.399 . S
C1554 C1555 1.385 . S
C1555 H1541 0.931 . S
C1555 C1554 1.385 . S
C1555 C1556 1.389 . S
C1556 C1555 1.389 . S
C1556 C1557 1.387 . S
C1557 H1542 0.930 . S
C1557 C1552 1.390 . S
C1557 C1556 1.387 . S
H1558 C1570 0.930 . S
H1559 C1572 0.930 . S
H1560 C1573 0.930 . S
H1561 C1577 0.959 . S
H1562 C1577 0.959 . S
H1563 C1577 0.961 . S
H1564 C1578 0.960 . S
H1565 C1578 0.961 . S
H1566 C1578 0.959 . S
H1567 C1581 0.929 . S
H1568 C1582 0.931 . S
H1569 C1584 0.930 . S
C1570 H1558 0.930 . S
C1570 C1571 1.399 . S
C1570 C1575 1.399 . S
C1571 C1570 1.399 . S
C1571 C1572 1.376 . S
C1572 H1559 0.930 . S
C1572 C1571 1.376 . S
C1572 C1573 1.388 . S
C1573 H1560 0.930 . S
C1573 C1572 1.388 . S
C1573 C1574 1.390 . S
C1574 C1573 1.390 . S
C1574 C1575 1.394 . S
C1574 C1580 1.465 . S
C1575 C1570 1.399 . S
C1575 C1574 1.394 . S
C1575 C1576 1.516 . S
C1576 C1575 1.516 . S
C1576 C1577 1.502 . S
C1576 C1578 1.561 . S
C1576 C1579 1.526 . S
C1577 H1561 0.959 . S
C1577 H1562 0.959 . S
C1577 H1563 0.961 . S
C1577 C1576 1.502 . S
C1578 H1564 0.960 . S
C1578 H1565 0.961 . S
C1578 H1566 0.959 . S
C1578 C1576 1.561 . S
C1579 C1576 1.526 . S
C1579 C1580 1.396 . S
C1579 C1584 1.390 . S
C1580 C1574 1.465 . S
C1580 C1579 1.396 . S
C1580 C1581 1.399 . S
C1581 H1567 0.929 . S
C1581 C1580 1.399 . S
C1581 C1582 1.385 . S
C1582 H1568 0.931 . S
C1582 C1581 1.385 . S
C1582 C1583 1.389 . S
C1583 C1582 1.389 . S
C1583 C1584 1.387 . S
C1584 H1569 0.930 . S
C1584 C1579 1.390 . S
C1584 C1583 1.387 . S
H1585 C1597 0.930 . S
H1586 C1599 0.930 . S
H1587 C1600 0.930 . S
H1588 C1604 0.959 . S
H1589 C1604 0.959 . S
H1590 C1604 0.961 . S
H1591 C1605 0.960 . S
H1592 C1605 0.961 . S
H1593 C1605 0.959 . S
H1594 C1608 0.929 . S
H1595 C1609 0.931 . S
H1596 C1611 0.930 . S
C1597 H1585 0.930 . S
C1597 C1598 1.399 . S
C1597 C1602 1.399 . S
C1598 C1597 1.399 . S
C1598 C1599 1.376 . S
C1599 H1586 0.930 . S
C1599 C1598 1.376 . S
C1599 C1600 1.388 . S
C1600 H1587 0.930 . S
C1600 C1599 1.388 . S
C1600 C1601 1.390 . S
C1601 C1600 1.390 . S
C1601 C1602 1.394 . S
C1601 C1607 1.465 . S
C1602 C1597 1.399 . S
C1602 C1601 1.394 . S
C1602 C1603 1.516 . S
C1603 C1602 1.516 . S
C1603 C1604 1.502 . S
C1603 C1605 1.561 . S
C1603 C1606 1.526 . S
C1604 H1588 0.959 . S
C1604 H1589 0.959 . S
C1604 H1590 0.961 . S
C1604 C1603 1.502 . S
C1605 H1591 0.960 . S
C1605 H1592 0.961 . S
C1605 H1593 0.959 . S
C1605 C1603 1.561 . S
C1606 C1603 1.526 . S
C1606 C1607 1.396 . S
C1606 C1611 1.390 . S
C1607 C1601 1.465 . S
C1607 C1606 1.396 . S
C1607 C1608 1.399 . S
C1608 H1594 0.929 . S
C1608 C1607 1.399 . S
C1608 C1609 1.385 . S
C1609 H1595 0.931 . S
C1609 C1608 1.385 . S
C1609 C1610 1.389 . S
C1610 C1609 1.389 . S
C1610 C1611 1.387 . S
C1611 H1596 0.930 . S
C1611 C1606 1.390 . S
C1611 C1610 1.387 . S
H1612 C1624 0.930 . S
H1613 C1626 0.930 . S
H1614 C1627 0.930 . S
H1615 C1631 0.959 . S
H1616 C1631 0.959 . S
H1617 C1631 0.961 . S
H1618 C1632 0.960 . S
H1619 C1632 0.961 . S
H1620 C1632 0.959 . S
H1621 C1635 0.929 . S
H1622 C1636 0.931 . S
H1623 C1638 0.930 1_556 S
C1624 H1612 0.930 . S
C1624 C1625 1.399 . S
C1624 C1629 1.399 . S
C1625 C1624 1.399 . S
C1625 C1626 1.376 . S
C1626 H1613 0.930 . S
C1626 C1625 1.376 . S
C1626 C1627 1.388 . S
C1627 H1614 0.930 . S
C1627 C1626 1.388 . S
C1627 C1628 1.390 . S
C1628 C1627 1.390 . S
C1628 C1629 1.394 . S
C1628 C1634 1.465 . S
C1629 C1624 1.399 . S
C1629 C1628 1.394 . S
C1629 C1630 1.516 . S
C1630 C1629 1.516 . S
C1630 C1631 1.502 . S
C1630 C1632 1.561 . S
C1630 C1633 1.526 . S
C1631 H1615 0.959 . S
C1631 H1616 0.959 . S
C1631 H1617 0.961 . S
C1631 C1630 1.502 . S
C1632 H1618 0.960 . S
C1632 H1619 0.961 . S
C1632 H1620 0.959 . S
C1632 C1630 1.561 . S
C1633 C1630 1.526 . S
C1633 C1634 1.396 . S
C1633 C1638 1.390 . S
C1634 C1628 1.465 . S
C1634 C1633 1.396 . S
C1634 C1635 1.399 . S
C1635 H1621 0.929 . S
C1635 C1634 1.399 . S
C1635 C1636 1.385 1_554 S
C1636 H1622 0.931 . S
C1636 C1635 1.385 1_556 S
C1636 C1637 1.389 . S
C1637 C1636 1.389 . S
C1637 C1638 1.387 1_556 S
C1638 H1623 0.930 1_554 S
C1638 C1633 1.390 . S
C1638 C1637 1.387 1_554 S
H1639 C1651 0.930 . S
H1640 C1653 0.930 . S
H1641 C1654 0.930 . S
H1642 C1658 0.959 . S
H1643 C1658 0.959 . S
H1644 C1658 0.961 . S
H1645 C1659 0.960 . S
H1646 C1659 0.961 . S
H1647 C1659 0.959 . S
H1648 C1662 0.929 . S
H1649 C1663 0.931 . S
H1650 C1665 0.930 . S
C1651 H1639 0.930 . S
C1651 C1652 1.399 . S
C1651 C1656 1.399 . S
C1652 C1651 1.399 . S
C1652 C1653 1.376 . S
C1653 H1640 0.930 . S
C1653 C1652 1.376 . S
C1653 C1654 1.388 . S
C1654 H1641 0.930 . S
C1654 C1653 1.388 . S
C1654 C1655 1.390 . S
C1655 C1654 1.390 . S
C1655 C1656 1.394 . S
C1655 C1661 1.465 . S
C1656 C1651 1.399 . S
C1656 C1655 1.394 . S
C1656 C1657 1.516 . S
C1657 C1656 1.516 . S
C1657 C1658 1.502 . S
C1657 C1659 1.561 . S
C1657 C1660 1.526 . S
C1658 H1642 0.959 . S
C1658 H1643 0.959 . S
C1658 H1644 0.961 . S
C1658 C1657 1.502 . S
C1659 H1645 0.960 . S
C1659 H1646 0.961 . S
C1659 H1647 0.959 . S
C1659 C1657 1.561 . S
C1660 C1657 1.526 . S
C1660 C1661 1.396 . S
C1660 C1665 1.390 . S
C1661 C1655 1.465 . S
C1661 C1660 1.396 . S
C1661 C1662 1.399 . S
C1662 H1648 0.929 . S
C1662 C1661 1.399 . S
C1662 C1663 1.385 . S
C1663 H1649 0.931 . S
C1663 C1662 1.385 . S
C1663 C1664 1.389 . S
C1664 C1663 1.389 . S
C1664 C1665 1.387 . S
C1665 H1650 0.930 . S
C1665 C1660 1.390 . S
C1665 C1664 1.387 . S
H1666 C1678 0.930 . S
H1667 C1680 0.930 . S
H1668 C1681 0.930 . S
H1669 C1685 0.959 . S
H1670 C1685 0.959 . S
H1671 C1685 0.961 . S
H1672 C1686 0.960 . S
H1673 C1686 0.961 . S
H1674 C1686 0.959 . S
H1675 C1689 0.929 . S
H1676 C1690 0.931 . S
H1677 C1692 0.930 . S
C1678 H1666 0.930 . S
C1678 C1679 1.399 . S
C1678 C1683 1.399 . S
C1679 C1678 1.399 . S
C1679 C1680 1.376 . S
C1680 H1667 0.930 . S
C1680 C1679 1.376 . S
C1680 C1681 1.388 . S
C1681 H1668 0.930 . S
C1681 C1680 1.388 . S
C1681 C1682 1.390 . S
C1682 C1681 1.390 . S
C1682 C1683 1.394 . S
C1682 C1688 1.465 . S
C1683 C1678 1.399 . S
C1683 C1682 1.394 . S
C1683 C1684 1.516 . S
C1684 C1683 1.516 . S
C1684 C1685 1.502 . S
C1684 C1686 1.561 . S
C1684 C1687 1.526 . S
C1685 H1669 0.959 . S
C1685 H1670 0.959 . S
C1685 H1671 0.961 . S
C1685 C1684 1.502 . S
C1686 H1672 0.960 . S
C1686 H1673 0.961 . S
C1686 H1674 0.959 . S
C1686 C1684 1.561 . S
C1687 C1684 1.526 . S
C1687 C1688 1.396 . S
C1687 C1692 1.390 . S
C1688 C1682 1.465 . S
C1688 C1687 1.396 . S
C1688 C1689 1.399 . S
C1689 H1675 0.929 . S
C1689 C1688 1.399 . S
C1689 C1690 1.385 . S
C1690 H1676 0.931 . S
C1690 C1689 1.385 . S
C1690 C1691 1.389 . S
C1691 C1690 1.389 . S
C1691 C1692 1.387 . S
C1692 H1677 0.930 . S
C1692 C1687 1.390 . S
C1692 C1691 1.387 . S
H1693 C1705 0.930 . S
H1694 C1707 0.930 . S
H1695 C1708 0.930 . S
H1696 C1712 0.959 . S
H1697 C1712 0.959 . S
H1698 C1712 0.961 . S
H1699 C1713 0.960 . S
H1700 C1713 0.961 . S
H1701 C1713 0.959 . S
H1702 C1716 0.929 . S
H1703 C1717 0.931 . S
H1704 C1719 0.930 . S
C1705 H1693 0.930 . S
C1705 C1706 1.399 . S
C1705 C1710 1.399 . S
C1706 C1705 1.399 . S
C1706 C1707 1.376 . S
C1707 H1694 0.930 . S
C1707 C1706 1.376 . S
C1707 C1708 1.388 . S
C1708 H1695 0.930 . S
C1708 C1707 1.388 . S
C1708 C1709 1.390 . S
C1709 C1708 1.390 . S
C1709 C1710 1.394 . S
C1709 C1715 1.465 . S
C1710 C1705 1.399 . S
C1710 C1709 1.394 . S
C1710 C1711 1.516 . S
C1711 C1710 1.516 . S
C1711 C1712 1.502 . S
C1711 C1713 1.561 . S
C1711 C1714 1.526 . S
C1712 H1696 0.959 . S
C1712 H1697 0.959 . S
C1712 H1698 0.961 . S
C1712 C1711 1.502 . S
C1713 H1699 0.960 . S
C1713 H1700 0.961 . S
C1713 H1701 0.959 . S
C1713 C1711 1.561 . S
C1714 C1711 1.526 . S
C1714 C1715 1.396 . S
C1714 C1719 1.390 . S
C1715 C1709 1.465 . S
C1715 C1714 1.396 . S
C1715 C1716 1.399 . S
C1716 H1702 0.929 . S
C1716 C1715 1.399 . S
C1716 C1717 1.385 . S
C1717 H1703 0.931 . S
C1717 C1716 1.385 . S
C1717 C1718 1.389 . S
C1718 C1717 1.389 . S
C1718 C1719 1.387 . S
C1719 H1704 0.930 . S
C1719 C1714 1.390 . S
C1719 C1718 1.387 . S
H1720 C1732 0.930 . S
H1721 C1734 0.930 . S
H1722 C1735 0.930 . S
H1723 C1739 0.959 . S
H1724 C1739 0.959 . S
H1725 C1739 0.961 . S
H1726 C1740 0.960 . S
H1727 C1740 0.961 . S
H1728 C1740 0.959 . S
H1729 C1743 0.929 . S
H1730 C1744 0.931 . S
H1731 C1746 0.930 . S
C1732 H1720 0.930 . S
C1732 C1733 1.399 . S
C1732 C1737 1.399 . S
C1733 C1732 1.399 . S
C1733 C1734 1.376 . S
C1734 H1721 0.930 . S
C1734 C1733 1.376 . S
C1734 C1735 1.388 . S
C1735 H1722 0.930 . S
C1735 C1734 1.388 . S
C1735 C1736 1.390 . S
C1736 C1735 1.390 . S
C1736 C1737 1.394 . S
C1736 C1742 1.465 . S
C1737 C1732 1.399 . S
C1737 C1736 1.394 . S
C1737 C1738 1.516 . S
C1738 C1737 1.516 . S
C1738 C1739 1.502 . S
C1738 C1740 1.561 . S
C1738 C1741 1.526 . S
C1739 H1723 0.959 . S
C1739 H1724 0.959 . S
C1739 H1725 0.961 . S
C1739 C1738 1.502 . S
C1740 H1726 0.960 . S
C1740 H1727 0.961 . S
C1740 H1728 0.959 . S
C1740 C1738 1.561 . S
C1741 C1738 1.526 . S
C1741 C1742 1.396 . S
C1741 C1746 1.390 . S
C1742 C1736 1.465 . S
C1742 C1741 1.396 . S
C1742 C1743 1.399 . S
C1743 H1729 0.929 . S
C1743 C1742 1.399 . S
C1743 C1744 1.385 . S
C1744 H1730 0.931 . S
C1744 C1743 1.385 . S
C1744 C1745 1.389 . S
C1745 C1744 1.389 . S
C1745 C1746 1.387 . S
C1746 H1731 0.930 . S
C1746 C1741 1.390 . S
C1746 C1745 1.387 . S
H1747 C1759 0.930 . S
H1748 C1761 0.930 . S
H1749 C1762 0.930 . S
H1750 C1766 0.959 . S
H1751 C1766 0.959 . S
H1752 C1766 0.961 . S
H1753 C1767 0.960 . S
H1754 C1767 0.961 . S
H1755 C1767 0.959 . S
H1756 C1770 0.929 . S
H1757 C1771 0.931 . S
H1758 C1773 0.930 . S
C1759 H1747 0.930 . S
C1759 C1760 1.399 . S
C1759 C1764 1.399 . S
C1760 C1759 1.399 . S
C1760 C1761 1.376 . S
C1761 H1748 0.930 . S
C1761 C1760 1.376 . S
C1761 C1762 1.388 . S
C1762 H1749 0.930 . S
C1762 C1761 1.388 . S
C1762 C1763 1.390 . S
C1763 C1762 1.390 . S
C1763 C1764 1.394 . S
C1763 C1769 1.465 . S
C1764 C1759 1.399 . S
C1764 C1763 1.394 . S
C1764 C1765 1.516 . S
C1765 C1764 1.516 . S
C1765 C1766 1.502 . S
C1765 C1767 1.561 . S
C1765 C1768 1.526 . S
C1766 H1750 0.959 . S
C1766 H1751 0.959 . S
C1766 H1752 0.961 . S
C1766 C1765 1.502 . S
C1767 H1753 0.960 . S
C1767 H1754 0.961 . S
C1767 H1755 0.959 . S
C1767 C1765 1.561 . S
C1768 C1765 1.526 . S
C1768 C1769 1.396 . S
C1768 C1773 1.390 . S
C1769 C1763 1.465 . S
C1769 C1768 1.396 . S
C1769 C1770 1.399 1_565 S
C1770 H1756 0.929 . S
C1770 C1769 1.399 1_545 S
C1770 C1771 1.385 . S
C1771 H1757 0.931 . S
C1771 C1770 1.385 . S
C1771 C1772 1.389 1_545 S
C1772 C1771 1.389 1_565 S
C1772 C1773 1.387 . S
C1773 H1758 0.930 . S
C1773 C1768 1.390 . S
C1773 C1772 1.387 . S
H1774 C1786 0.930 . S
H1775 C1788 0.930 . S
H1776 C1789 0.930 . S
H1777 C1793 0.959 . S
H1778 C1793 0.959 . S
H1779 C1793 0.961 . S
H1780 C1794 0.960 . S
H1781 C1794 0.961 . S
H1782 C1794 0.959 . S
H1783 C1797 0.929 . S
H1784 C1798 0.931 . S
H1785 C1800 0.930 . S
C1786 H1774 0.930 . S
C1786 C1787 1.399 . S
C1786 C1791 1.399 . S
C1787 C1786 1.399 . S
C1787 C1788 1.376 . S
C1788 H1775 0.930 . S
C1788 C1787 1.376 . S
C1788 C1789 1.388 . S
C1789 H1776 0.930 . S
C1789 C1788 1.388 . S
C1789 C1790 1.390 . S
C1790 C1789 1.390 . S
C1790 C1791 1.394 . S
C1790 C1796 1.465 . S
C1791 C1786 1.399 . S
C1791 C1790 1.394 . S
C1791 C1792 1.516 . S
C1792 C1791 1.516 . S
C1792 C1793 1.502 . S
C1792 C1794 1.561 . S
C1792 C1795 1.526 . S
C1793 H1777 0.959 . S
C1793 H1778 0.959 . S
C1793 H1779 0.961 . S
C1793 C1792 1.502 . S
C1794 H1780 0.960 . S
C1794 H1781 0.961 . S
C1794 H1782 0.959 . S
C1794 C1792 1.561 . S
C1795 C1792 1.526 . S
C1795 C1796 1.396 . S
C1795 C1800 1.390 . S
C1796 C1790 1.465 . S
C1796 C1795 1.396 . S
C1796 C1797 1.399 . S
C1797 H1783 0.929 . S
C1797 C1796 1.399 . S
C1797 C1798 1.385 1_556 S
C1798 H1784 0.931 . S
C1798 C1797 1.385 1_554 S
C1798 C1799 1.389 . S
C1799 C1798 1.389 . S
C1799 C1800 1.387 1_554 S
C1800 H1785 0.930 . S
C1800 C1795 1.390 . S
C1800 C1799 1.387 1_556 S
H1801 C1813 0.930 . S
H1802 C1815 0.930 . S
H1803 C1816 0.930 . S
H1804 C1820 0.959 . S
H1805 C1820 0.959 . S
H1806 C1820 0.961 . S
H1807 C1821 0.960 . S
H1808 C1821 0.961 . S
H1809 C1821 0.959 . S
H1810 C1824 0.929 . S
H1811 C1825 0.931 . S
H1812 C1827 0.930 . S
C1813 H1801 0.930 . S
C1813 C1814 1.399 . S
C1813 C1818 1.399 . S
C1814 C1813 1.399 . S
C1814 C1815 1.376 1_545 S
C1815 H1802 0.930 . S
C1815 C1814 1.376 1_565 S
C1815 C1816 1.388 1_565 S
C1816 H1803 0.930 . S
C1816 C1815 1.388 1_545 S
C1816 C1817 1.390 . S
C1817 C1816 1.390 . S
C1817 C1818 1.394 . S
C1817 C1823 1.465 . S
C1818 C1813 1.399 . S
C1818 C1817 1.394 . S
C1818 C1819 1.516 . S
C1819 C1818 1.516 . S
C1819 C1820 1.502 . S
C1819 C1821 1.561 . S
C1819 C1822 1.526 . S
C1820 H1804 0.959 . S
C1820 H1805 0.959 . S
C1820 H1806 0.961 . S
C1820 C1819 1.502 . S
C1821 H1807 0.960 . S
C1821 H1808 0.961 . S
C1821 H1809 0.959 . S
C1821 C1819 1.561 . S
C1822 C1819 1.526 . S
C1822 C1823 1.396 . S
C1822 C1827 1.390 . S
C1823 C1817 1.465 . S
C1823 C1822 1.396 . S
C1823 C1824 1.399 . S
C1824 H1810 0.929 . S
C1824 C1823 1.399 . S
C1824 C1825 1.385 . S
C1825 H1811 0.931 . S
C1825 C1824 1.385 . S
C1825 C1826 1.389 . S
C1826 C1825 1.389 . S
C1826 C1827 1.387 . S
C1827 H1812 0.930 . S
C1827 C1822 1.390 . S
C1827 C1826 1.387 . S
H1828 C1840 0.930 . S
H1829 C1842 0.930 . S
H1830 C1843 0.930 . S
H1831 C1847 0.959 . S
H1832 C1847 0.959 . S
H1833 C1847 0.961 . S
H1834 C1848 0.960 . S
H1835 C1848 0.961 . S
H1836 C1848 0.959 . S
H1837 C1851 0.929 . S
H1838 C1852 0.931 . S
H1839 C1854 0.930 . S
C1840 H1828 0.930 . S
C1840 C1841 1.399 . S
C1840 C1845 1.399 . S
C1841 C1840 1.399 . S
C1841 C1842 1.376 . S
C1842 H1829 0.930 . S
C1842 C1841 1.376 . S
C1842 C1843 1.388 . S
C1843 H1830 0.930 . S
C1843 C1842 1.388 . S
C1843 C1844 1.390 . S
C1844 C1843 1.390 . S
C1844 C1845 1.394 . S
C1844 C1850 1.465 . S
C1845 C1840 1.399 . S
C1845 C1844 1.394 . S
C1845 C1846 1.516 . S
C1846 C1845 1.516 . S
C1846 C1847 1.502 . S
C1846 C1848 1.561 . S
C1846 C1849 1.526 . S
C1847 H1831 0.959 . S
C1847 H1832 0.959 . S
C1847 H1833 0.961 . S
C1847 C1846 1.502 . S
C1848 H1834 0.960 . S
C1848 H1835 0.961 . S
C1848 H1836 0.959 . S
C1848 C1846 1.561 . S
C1849 C1846 1.526 . S
C1849 C1850 1.396 . S
C1849 C1854 1.390 . S
C1850 C1844 1.465 . S
C1850 C1849 1.396 . S
C1850 C1851 1.399 . S
C1851 H1837 0.929 . S
C1851 C1850 1.399 . S
C1851 C1852 1.385 . S
C1852 H1838 0.931 . S
C1852 C1851 1.385 . S
C1852 C1853 1.389 . S
C1853 C1852 1.389 . S
C1853 C1854 1.387 . S
C1854 H1839 0.930 . S
C1854 C1849 1.390 . S
C1854 C1853 1.387 . S
H1855 C1867 0.930 . S
H1856 C1869 0.930 . S
H1857 C1870 0.930 . S
H1858 C1874 0.959 . S
H1859 C1874 0.959 1_565 S
H1860 C1874 0.961 . S
H1861 C1875 0.960 . S
H1862 C1875 0.961 . S
H1863 C1875 0.959 . S
H1864 C1878 0.929 . S
H1865 C1879 0.931 . S
H1866 C1881 0.930 1_565 S
C1867 H1855 0.930 . S
C1867 C1868 1.399 . S
C1867 C1872 1.399 . S
C1868 C1867 1.399 . S
C1868 C1869 1.376 . S
C1869 H1856 0.930 . S
C1869 C1868 1.376 . S
C1869 C1870 1.388 . S
C1870 H1857 0.930 . S
C1870 C1869 1.388 . S
C1870 C1871 1.390 . S
C1871 C1870 1.390 . S
C1871 C1872 1.394 . S
C1871 C1877 1.465 . S
C1872 C1867 1.399 . S
C1872 C1871 1.394 . S
C1872 C1873 1.516 . S
C1873 C1872 1.516 . S
C1873 C1874 1.502 . S
C1873 C1875 1.561 1_545 S
C1873 C1876 1.526 . S
C1874 H1858 0.959 . S
C1874 H1859 0.959 1_545 S
C1874 H1860 0.961 . S
C1874 C1873 1.502 . S
C1875 H1861 0.960 . S
C1875 H1862 0.961 . S
C1875 H1863 0.959 . S
C1875 C1873 1.561 1_565 S
C1876 C1873 1.526 . S
C1876 C1877 1.396 . S
C1876 C1881 1.390 . S
C1877 C1871 1.465 . S
C1877 C1876 1.396 . S
C1877 C1878 1.399 . S
C1878 H1864 0.929 . S
C1878 C1877 1.399 . S
C1878 C1879 1.385 . S
C1879 H1865 0.931 . S
C1879 C1878 1.385 . S
C1879 C1880 1.389 . S
C1880 C1879 1.389 . S
C1880 C1881 1.387 . S
C1881 H1866 0.930 1_545 S
C1881 C1876 1.390 . S
C1881 C1880 1.387 . S
H1882 C1894 0.930 . S
H1883 C1896 0.930 . S
H1884 C1897 0.930 . S
H1885 C1901 0.959 . S
H1886 C1901 0.959 . S
H1887 C1901 0.961 . S
H1888 C1902 0.960 . S
H1889 C1902 0.964 . S
H1890 C1902 0.959 . S
H1891 C1905 0.929 . S
H1892 C1906 0.931 1_556 S
H1893 C1908 0.957 . S
C1894 H1882 0.930 . S
C1894 C1895 1.399 . S
C1894 C1899 1.399 . S
C1895 C1894 1.399 . S
C1895 C1896 1.376 . S
C1896 H1883 0.930 . S
C1896 C1895 1.376 . S
C1896 C1897 1.388 . S
C1897 H1884 0.930 . S
C1897 C1896 1.388 . S
C1897 C1898 1.390 . S
C1898 C1897 1.390 . S
C1898 C1899 1.394 . S
C1898 C1904 1.465 . S
C1899 C1894 1.399 . S
C1899 C1898 1.394 . S
C1899 C1900 1.516 . S
C1900 C1899 1.516 . S
C1900 C1901 1.502 . S
C1900 C1902 1.561 . S
C1900 C1903 1.526 . S
C1901 H1885 0.959 . S
C1901 H1886 0.959 . S
C1901 H1887 0.961 . S
C1901 C1900 1.502 . S
C1902 H1888 0.960 . S
C1902 H1889 0.964 . S
C1902 H1890 0.959 . S
C1902 C1900 1.561 . S
C1903 C1900 1.526 . S
C1903 C1904 1.396 . S
C1903 C1908 1.346 1_554 S
C1904 C1898 1.465 . S
C1904 C1903 1.396 . S
C1904 C1905 1.399 . S
C1905 H1891 0.929 . S
C1905 C1904 1.399 . S
C1905 C1906 1.385 . S
C1906 H1892 0.931 1_554 S
C1906 C1905 1.385 . S
C1906 C1907 1.389 1_554 S
C1907 C1906 1.389 1_556 S
C1907 C1908 1.405 . S
C1908 H1893 0.957 . S
C1908 C1903 1.346 1_556 S
C1908 C1907 1.405 . S
H1909 C1921 0.930 . S
H1910 C1923 0.930 . S
H1911 C1924 0.930 . S
H1912 C1928 0.947 1_565 S
H1913 C1928 0.992 . S
H1914 C1928 0.960 1_565 S
H1915 C1929 0.960 . S
H1916 C1929 0.961 1_545 S
H1917 C1929 0.959 . S
H1918 C1932 0.929 . S
H1919 C1933 0.931 . S
H1920 C1935 0.962 . S
C1921 H1909 0.930 . S
C1921 C1922 1.399 . S
C1921 C1926 1.399 . S
C1922 C1921 1.399 . S
C1922 C1923 1.376 . S
C1923 H1910 0.930 . S
C1923 C1922 1.376 . S
C1923 C1924 1.388 . S
C1924 H1911 0.930 . S
C1924 C1923 1.388 . S
C1924 C1925 1.390 . S
C1925 C1924 1.390 . S
C1925 C1926 1.394 . S
C1925 C1931 1.465 . S
C1926 C1921 1.399 . S
C1926 C1925 1.394 . S
C1926 C1927 1.516 . S
C1927 C1926 1.516 . S
C1927 C1928 1.482 1_565 S
C1927 C1929 1.561 . S
C1927 C1930 1.526 . S
C1928 H1912 0.947 1_545 S
C1928 H1913 0.992 . S
C1928 H1914 0.960 1_545 S
C1928 C1927 1.482 1_545 S
C1929 H1915 0.960 . S
C1929 H1916 0.961 1_565 S
C1929 H1917 0.959 . S
C1929 C1927 1.561 . S
C1930 C1927 1.526 . S
C1930 C1931 1.396 . S
C1930 C1935 1.366 1_565 S
C1931 C1925 1.465 . S
C1931 C1930 1.396 . S
C1931 C1932 1.399 . S
C1932 H1918 0.929 . S
C1932 C1931 1.399 . S
C1932 C1933 1.385 . S
C1933 H1919 0.931 . S
C1933 C1932 1.385 . S
C1933 C1934 1.389 . S
C1934 C1933 1.389 . S
C1934 C1935 1.378 1_565 S
C1935 H1920 0.962 . S
C1935 C1930 1.366 1_545 S
C1935 C1934 1.378 1_545 S
C653 C2 2.711 . S
C665 C402 2.734 . S
C680 C42 2.738 . S
C692 C442 2.714 . S
C707 C82 2.742 . S
C719 C322 2.726 . S
C734 C362 2.743 . S
C746 C122 2.726 . S
C761 C175 2.712 . S
C773 C575 2.737 . S
C788 C615 2.727 . S
C800 C215 2.721 . S
C815 C495 2.717 . S
C827 C255 2.742 . S
C842 C295 2.720 . S
C854 C535 2.741 . S
C869 C26 0.907 1_565 S
C881 C169 0.991 1_545 S
C896 C66 0.964 . S
C908 C529 0.939 . S
C923 C106 0.954 1_545 S
C935 C249 0.949 1_565 S
C950 C146 0.923 . S
C962 C609 0.919 . S
C977 C209 0.916 . S
C989 C386 0.983 . S
C1004 C466 1.030 . S
C1016 C289 0.834 . S
C1031 C489 0.832 . S
C1043 C346 1.028 . S
C1058 C426 0.920 . S
C1070 C569 0.980 . S
C1085 C9 0.967 . S
C1097 C282 1.236 . S
C1112 C49 1.129 . S
C1124 C482 1.178 . S
C1139 C89 1.115 . S
C1151 C202 1.187 . S
C1166 C129 1.117 . S
C1178 C562 1.185 . S
C1193 C135 1.208 . S
C1205 C186 0.961 . S
C1220 C226 0.960 . S
C1232 C335 1.205 . S
C1247 C266 1.094 . S
C1259 C55 1.159 . S
C1274 C415 1.211 . S
C1286 C306 0.958 . S
C1301 C329 1.140 . S
C1313 C602 1.169 1_565 S
C1328 C162 1.229 . S
C1340 C369 1.009 . S
C1355 C522 1.159 1_545 S
C1367 C409 1.140 . S
C1382 C242 1.215 . S
C1394 C449 1.053 . S
C1409 C506 1.011 . S
C1421 C455 1.236 1_545 S
C1436 C546 1.132 . S
C1448 C15 1.164 . S
C1463 C375 1.208 1_565 S
C1475 C586 0.960 . S
C1490 C626 0.980 . S
C1502 C95 1.191 . S
C1517 C3 4.057 . S
C1529 C382 4.006 . S
C1544 C422 3.987 . S
C1556 C43 4.075 . S
C1571 C83 4.071 . S
C1583 C462 3.993 . S
C1598 C342 3.991 . S
C1610 C123 4.072 . S
C1625 C523 4.010 . S
C1637 C182 4.062 . S
C1652 C563 4.009 . S
C1664 C222 4.053 . S
C1679 C603 3.988 . S
C1691 C262 4.076 . S
C1706 C483 4.017 . S
C1718 C302 4.050 . S
C1733 C62 3.988 . S
C1745 C323 4.072 . S
C1760 C102 3.988 . S
C1772 C363 4.074 1_565 S
C1787 C142 4.014 . S
C1799 C403 4.055 . S
C1814 C443 4.069 1_545 S
C1826 C22 3.991 . S
C1841 C203 3.994 . S
C1853 C502 4.062 . S
C1868 C243 4.013 . S
C1880 C542 4.051 1_545 S
C1895 C283 4.005 . S
C1907 C582 4.066 . S
C1922 C163 4.018 . S
C1934 C622 4.050 1_565 S
