# Generated by pormake.
# Topology whp, (6)-cn, num edge types: 1
# Building blocks:
#     Node 0, Type 0, BuildingBlock: VOLQOD_clean_sbu_1, # of connection points: 6
#     Node 1, Type 0, BuildingBlock: VOLQOD_clean_sbu_1, # of connection points: 6
#     Node 2, Type 0, BuildingBlock: VOLQOD_clean_sbu_1, # of connection points: 6
#     Node 3, Type 0, BuildingBlock: VOLQOD_clean_sbu_1, # of connection points: 6
#     Node 4, Type 0, BuildingBlock: VOLQOD_clean_sbu_1, # of connection points: 6
#     Node 5, Type 0, BuildingBlock: VOLQOD_clean_sbu_1, # of connection points: 6
#     Node 6, Type 0, BuildingBlock: VOLQOD_clean_sbu_1, # of connection points: 6
#     Node 7, Type 0, BuildingBlock: VOLQOD_clean_sbu_1, # of connection points: 6
#     Node 8, Type 0, BuildingBlock: VOLQOD_clean_sbu_1, # of connection points: 6
#     Node 9, Type 0, BuildingBlock: VOLQOD_clean_sbu_1, # of connection points: 6
#     Node 10, Type 0, BuildingBlock: VOLQOD_clean_sbu_1, # of connection points: 6
#     Node 11, Type 0, BuildingBlock: VOLQOD_clean_sbu_1, # of connection points: 6
#     Node 12, Type 0, BuildingBlock: VOLQOD_clean_sbu_1, # of connection points: 6
#     Node 13, Type 0, BuildingBlock: VOLQOD_clean_sbu_1, # of connection points: 6
#     Node 14, Type 0, BuildingBlock: VOLQOD_clean_sbu_1, # of connection points: 6
#     Node 15, Type 0, BuildingBlock: VOLQOD_clean_sbu_1, # of connection points: 6
#     Edge 16, Type (0, 0), BuildingBlock: CIFDUS_clean_linker_0, # of connection points: 2
#     Edge 17, Type (0, 0), BuildingBlock: CIFDUS_clean_linker_0, # of connection points: 2
#     Edge 18, Type (0, 0), BuildingBlock: CIFDUS_clean_linker_0, # of connection points: 2
#     Edge 19, Type (0, 0), BuildingBlock: CIFDUS_clean_linker_0, # of connection points: 2
#     Edge 20, Type (0, 0), BuildingBlock: CIFDUS_clean_linker_0, # of connection points: 2
#     Edge 21, Type (0, 0), BuildingBlock: CIFDUS_clean_linker_0, # of connection points: 2
#     Edge 22, Type (0, 0), BuildingBlock: CIFDUS_clean_linker_0, # of connection points: 2
#     Edge 23, Type (0, 0), BuildingBlock: CIFDUS_clean_linker_0, # of connection points: 2
#     Edge 24, Type (0, 0), BuildingBlock: CIFDUS_clean_linker_0, # of connection points: 2
#     Edge 25, Type (0, 0), BuildingBlock: CIFDUS_clean_linker_0, # of connection points: 2
#     Edge 26, Type (0, 0), BuildingBlock: CIFDUS_clean_linker_0, # of connection points: 2
#     Edge 27, Type (0, 0), BuildingBlock: CIFDUS_clean_linker_0, # of connection points: 2
#     Edge 28, Type (0, 0), BuildingBlock: CIFDUS_clean_linker_0, # of connection points: 2
#     Edge 29, Type (0, 0), BuildingBlock: CIFDUS_clean_linker_0, # of connection points: 2
#     Edge 30, Type (0, 0), BuildingBlock: CIFDUS_clean_linker_0, # of connection points: 2
#     Edge 31, Type (0, 0), BuildingBlock: CIFDUS_clean_linker_0, # of connection points: 2
#     Edge 32, Type (0, 0), BuildingBlock: CIFDUS_clean_linker_0, # of connection points: 2
#     Edge 33, Type (0, 0), BuildingBlock: CIFDUS_clean_linker_0, # of connection points: 2
#     Edge 34, Type (0, 0), BuildingBlock: CIFDUS_clean_linker_0, # of connection points: 2
#     Edge 35, Type (0, 0), BuildingBlock: CIFDUS_clean_linker_0, # of connection points: 2
#     Edge 36, Type (0, 0), BuildingBlock: CIFDUS_clean_linker_0, # of connection points: 2
#     Edge 37, Type (0, 0), BuildingBlock: CIFDUS_clean_linker_0, # of connection points: 2
#     Edge 38, Type (0, 0), BuildingBlock: CIFDUS_clean_linker_0, # of connection points: 2
#     Edge 39, Type (0, 0), BuildingBlock: CIFDUS_clean_linker_0, # of connection points: 2
#     Edge 40, Type (0, 0), BuildingBlock: CIFDUS_clean_linker_0, # of connection points: 2
#     Edge 41, Type (0, 0), BuildingBlock: CIFDUS_clean_linker_0, # of connection points: 2
#     Edge 42, Type (0, 0), BuildingBlock: CIFDUS_clean_linker_0, # of connection points: 2
#     Edge 43, Type (0, 0), BuildingBlock: CIFDUS_clean_linker_0, # of connection points: 2
#     Edge 44, Type (0, 0), BuildingBlock: CIFDUS_clean_linker_0, # of connection points: 2
#     Edge 45, Type (0, 0), BuildingBlock: CIFDUS_clean_linker_0, # of connection points: 2
#     Edge 46, Type (0, 0), BuildingBlock: CIFDUS_clean_linker_0, # of connection points: 2
#     Edge 47, Type (0, 0), BuildingBlock: CIFDUS_clean_linker_0, # of connection points: 2
#     Edge 48, Type (0, 0), BuildingBlock: CIFDUS_clean_linker_0, # of connection points: 2
#     Edge 49, Type (0, 0), BuildingBlock: CIFDUS_clean_linker_0, # of connection points: 2
#     Edge 50, Type (0, 0), BuildingBlock: CIFDUS_clean_linker_0, # of connection points: 2
#     Edge 51, Type (0, 0), BuildingBlock: CIFDUS_clean_linker_0, # of connection points: 2
#     Edge 52, Type (0, 0), BuildingBlock: CIFDUS_clean_linker_0, # of connection points: 2
#     Edge 53, Type (0, 0), BuildingBlock: CIFDUS_clean_linker_0, # of connection points: 2
#     Edge 54, Type (0, 0), BuildingBlock: CIFDUS_clean_linker_0, # of connection points: 2
#     Edge 55, Type (0, 0), BuildingBlock: CIFDUS_clean_linker_0, # of connection points: 2
#     Edge 56, Type (0, 0), BuildingBlock: CIFDUS_clean_linker_0, # of connection points: 2
#     Edge 57, Type (0, 0), BuildingBlock: CIFDUS_clean_linker_0, # of connection points: 2
#     Edge 58, Type (0, 0), BuildingBlock: CIFDUS_clean_linker_0, # of connection points: 2
#     Edge 59, Type (0, 0), BuildingBlock: CIFDUS_clean_linker_0, # of connection points: 2
#     Edge 60, Type (0, 0), BuildingBlock: CIFDUS_clean_linker_0, # of connection points: 2
#     Edge 61, Type (0, 0), BuildingBlock: CIFDUS_clean_linker_0, # of connection points: 2
#     Edge 62, Type (0, 0), BuildingBlock: CIFDUS_clean_linker_0, # of connection points: 2
#     Edge 63, Type (0, 0), BuildingBlock: CIFDUS_clean_linker_0, # of connection points: 2
# Relax obj value: 0.402
# Max RMSD: 0.252
# Mean RMSD: 0.249
data_MOF--net-whp--node1-VOLQOD_clean_sbu_1--edge1-CIFDUS_clean_linker_0
_symmetry_space_group_name_H-M    P1
_symmetry_Int_Tables_number       1
_symmetry_cell_setting            triclinic
loop_
_symmetry_equiv_pos_as_xyz
'x, y, z'
_cell_length_a     46.604324
_cell_length_b     46.327577
_cell_length_c     25.822471
_cell_angle_alpha  89.919896
_cell_angle_beta   90.032264
_cell_angle_gamma 89.90127
loop_
_atom_site_label
_atom_site_type_symbol
_atom_site_fract_x
_atom_site_fract_y
_atom_site_fract_z
_atom_type_partial_charge
O0 O 0.32216 0.5672 0.37447 0.0
Zn1 Zn 0.30181 0.55666 0.30944 0.0
O2 O 0.30405 0.51614 0.29614 0.0
Zn3 Zn 0.26531 0.50005 0.29348 0.0
Zn4 Zn 0.32501 0.49927 0.3522 0.0
Zn5 Zn 0.32667 0.50954 0.23393 0.0
O6 O 0.26064 0.48017 0.22256 0.0
O7 O 0.29936 0.49549 0.17935 0.0
O8 O 0.26184 0.57104 0.31204 0.0
O9 O 0.23546 0.53226 0.2961 0.0
O10 O 0.25703 0.47641 0.3601 0.0
O11 O 0.29797 0.48299 0.40274 0.0
O12 O 0.34854 0.46658 0.32757 0.0
O13 O 0.32235 0.57873 0.25542 0.0
O14 O 0.35466 0.47632 0.24399 0.0
O15 O 0.34767 0.54651 0.21103 0.0
C16 C 0.34256 0.55481 0.39857 0.0
C17 C 0.27514 0.48261 0.18048 0.0
C18 C 0.27233 0.47382 0.40111 0.0
C19 C 0.23757 0.55923 0.30516 0.0
C20 C 0.35924 0.46064 0.2837 0.0
C21 C 0.34132 0.57266 0.22183 0.0
O22 O 0.34896 0.52853 0.38988 0.0
O23 O 0.90216 0.30435 0.88099 0.0
Zn24 Zn 0.90822 0.29693 0.80553 0.0
O25 O 0.94702 0.30197 0.784 0.0
Zn26 Zn 0.96363 0.26417 0.76984 0.0
Zn27 Zn 0.96439 0.32077 0.84164 0.0
Zn28 Zn 0.94926 0.32855 0.72627 0.0
O29 O 0.98196 0.26574 0.69652 0.0
O30 O 0.96218 0.30616 0.66506 0.0
O31 O 0.89283 0.25864 0.78681 0.0
O32 O 0.93186 0.23374 0.76559 0.0
O33 O -0.01155 0.25218 0.83307 0.0
O34 O 0.98433 0.29108 0.88318 0.0
O35 O -0.00769 0.35068 0.81944 0.0
O36 O 0.88471 0.32657 0.77151 0.0
O37 O 0.97998 0.3583 0.73767 0.0
O38 O 0.91153 0.34985 0.71419 0.0
C39 C 0.91168 0.32688 0.90309 0.0
C40 C 0.97674 0.28309 0.65873 0.0
C41 C -0.00713 0.26529 0.87609 0.0
C42 C 0.90481 0.23534 0.77263 0.0
C43 C -0.00445 0.36402 0.77678 0.0
C44 C 0.88775 0.34622 0.73766 0.0
O45 O 0.93444 0.33911 0.88703 0.0
O46 O 0.16673 0.91401 0.4065 0.0
Zn47 Zn 0.18481 0.91892 0.33666 0.0
O48 O 0.18351 0.9583 0.3126 0.0
Zn49 Zn 0.2228 0.97284 0.30862 0.0
Zn50 Zn 0.16173 0.98009 0.36231 0.0
Zn51 Zn 0.16343 0.96088 0.24646 0.0
O52 O 0.22853 -0.0077 0.23884 0.0
O53 O 0.19063 0.97681 0.19384 0.0
O54 O 0.22438 0.90288 0.33697 0.0
O55 O 0.25178 0.93984 0.31385 0.0
O56 O 0.23088 -0.00084 0.36998 0.0
O57 O 0.18787 0.00322 0.40609 0.0
O58 O 0.13289 0.00567 0.32907 0.0
O59 O 0.1621 0.89432 0.28932 0.0
O60 O 0.13123 -0.01018 0.24823 0.0
O61 O 0.14599 0.9223 0.2256 0.0
C62 C 0.14741 0.92918 0.42819 0.0
C63 C 0.21439 -0.00963 0.19654 0.0
C64 C 0.21458 0.00868 0.40588 0.0
C65 C 0.24886 0.91336 0.32635 0.0
C66 C 0.12225 0.0065 0.28376 0.0
C67 C 0.14781 0.89778 0.24786 0.0
O68 O 0.14099 0.9542 0.41151 0.0
O69 O 0.57647 0.16909 0.86778 0.0
Zn70 Zn 0.55788 0.18895 0.80804 0.0
O71 O 0.51672 0.18425 0.8086 0.0
Zn72 Zn 0.49825 0.22249 0.80731 0.0
Zn73 Zn 0.50618 0.16313 0.86995 0.0
Zn74 Zn 0.50648 0.1603 0.74988 0.0
O75 O 0.47629 0.22673 0.73825 0.0
O76 O 0.48662 0.18535 0.69798 0.0
O77 O 0.56908 0.22984 0.81269 0.0
O78 O 0.52834 0.25458 0.81124 0.0
O79 O 0.47464 0.22853 0.87386 0.0
O80 O 0.48576 0.18881 0.91829 0.0
O81 O 0.47972 0.13099 0.85502 0.0
O82 O 0.57615 0.17043 0.74672 0.0
O83 O 0.47873 0.12886 0.76944 0.0
O84 O 0.54187 0.14106 0.71913 0.0
C85 C 0.56694 0.15185 0.90187 0.0
C86 C 0.47491 0.21026 0.69842 0.0
C87 C 0.47348 0.21324 0.91511 0.0
C88 C 0.55565 0.25368 0.81432 0.0
C89 C 0.47056 0.11971 0.81349 0.0
C90 C 0.568 0.14916 0.71935 0.0
O91 O 0.5403 0.14649 0.90591 0.0
O92 O 0.80383 0.41169 0.11956 0.0
Zn93 Zn 0.78482 0.4201 0.18738 0.0
O94 O 0.78581 0.46055 0.20498 0.0
Zn95 Zn 0.74703 0.4744 0.21935 0.0
Zn96 Zn 0.80135 0.48056 0.14633 0.0
Zn97 Zn 0.81173 0.46656 0.26289 0.0
O98 O 0.74575 0.49273 0.29239 0.0
O99 O 0.78849 0.47971 0.32369 0.0
O100 O 0.74539 0.40366 0.18935 0.0
O101 O 0.7203 0.44003 0.2223 0.0
O102 O 0.73204 0.49867 0.15731 0.0
O103 O 0.76998 0.49777 0.10519 0.0
O104 O 0.82787 0.51154 0.1678 0.0
O105 O 0.80839 0.39792 0.23737 0.0
O106 O 0.8397 0.49848 0.24768 0.0
O107 O 0.83401 0.43007 0.28114 0.0
C108 C 0.82055 0.42696 0.09194 0.0
C109 C 0.76366 0.49078 0.33002 0.0
C110 C 0.74393 0.50433 0.1137 0.0
C111 C 0.72208 0.41391 0.20709 0.0
C112 C 0.84252 0.51511 0.20875 0.0
C113 C 0.82821 0.40402 0.26934 0.0
O114 O 0.8233 0.45389 0.1 0.0
O115 O 0.07989 0.81979 0.67973 0.0
Zn116 Zn 0.06099 0.79895 0.73892 0.0
O117 O 0.01973 0.80047 0.73468 0.0
Zn118 Zn 0.00395 0.76132 0.73564 0.0
Zn119 Zn 0.00955 0.82023 0.67253 0.0
Zn120 Zn 0.00614 0.8244 0.79126 0.0
O121 O 0.98316 0.75605 0.80577 0.0
O122 O -0.00886 0.79789 0.8463 0.0
O123 O 0.07541 0.75878 0.73789 0.0
O124 O 0.03643 0.7315 0.73361 0.0
O125 O 0.98104 0.75362 0.66809 0.0
O126 O -0.00735 0.79302 0.62334 0.0
O127 O 0.97959 0.84924 0.68411 0.0
O128 O 0.07508 0.81902 0.80199 0.0
O129 O 0.97412 0.85136 0.76915 0.0
O130 O 0.03897 0.84892 0.8183 0.0
C131 C 0.06967 0.83615 0.64472 0.0
C132 C 0.98184 0.77198 0.84641 0.0
C133 C 0.98087 0.76839 0.62606 0.0
C134 C 0.06368 0.73411 0.73478 0.0
C135 C 0.96693 0.85917 0.72367 0.0
C136 C 0.06526 0.84177 0.82311 0.0
O137 O 0.04279 0.8394 0.63904 0.0
O138 O 0.68178 0.05794 0.0936 0.0
Zn139 Zn 0.70355 0.04965 0.15932 0.0
O140 O 0.69644 0.0115 0.18498 0.0
Zn141 Zn 0.73253 -0.00886 0.19359 0.0
Zn142 Zn 0.6752 -0.00733 0.13318 0.0
Zn143 Zn 0.6718 0.01145 0.2456 0.0
O144 O 0.73262 0.97233 0.26491 0.0
O145 O 0.69496 -0.00631 0.30265 0.0
O146 O 0.74571 0.05765 0.15167 0.0
O147 O 0.76547 0.01941 0.18961 0.0
O148 O 0.74042 0.96454 0.13178 0.0
O149 O 0.70108 0.97291 0.08577 0.0
O150 O 0.64958 0.96406 0.16282 0.0
O151 O 0.68682 0.07778 0.20873 0.0
O152 O 0.63782 0.98351 0.23818 0.0
O153 O 0.65904 0.05297 0.26282 0.0
C154 C 0.65937 0.04543 0.07655 0.0
C155 C 0.71694 0.9772 0.30467 0.0
C156 C 0.7259 0.9619 0.09007 0.0
C157 C 0.76772 0.04415 0.16829 0.0
C158 C 0.63466 0.964 0.20381 0.0
C159 C 0.66843 0.077 0.24513 0.0
O160 O 0.65221 0.02054 0.09258 0.0
O161 O 0.40111 0.68575 0.61908 0.0
Zn162 Zn 0.41094 0.70527 0.68604 0.0
O163 O 0.45044 0.69865 0.70626 0.0
Zn164 Zn 0.47017 0.73565 0.7126 0.0
Zn165 Zn 0.46838 0.67577 0.65333 0.0
Zn166 Zn 0.45197 0.67664 0.77031 0.0
O167 O 0.48877 0.73857 0.7835 0.0
O168 O 0.47002 0.70093 0.82543 0.0
O169 O 0.40174 0.74709 0.68054 0.0
O170 O 0.44189 0.76877 0.70522 0.0
O171 O 0.49808 0.74145 0.65307 0.0
O172 O 0.49347 0.70028 0.61012 0.0
O173 O 0.49107 0.64352 0.68222 0.0
O174 O 0.3843 0.68732 0.7371 0.0
O175 O 0.47746 0.64185 0.76436 0.0
O176 O 0.41248 0.66226 0.79029 0.0
C177 C 0.41399 0.66576 0.59463 0.0
C178 C 0.48534 0.72373 0.82479 0.0
C179 C 0.50382 0.72554 0.61411 0.0
C180 C 0.41582 0.76992 0.69035 0.0
C181 C 0.49189 0.63183 0.72668 0.0
C182 C 0.38765 0.66956 0.77418 0.0
O183 O 0.43943 0.6583 0.60622 0.0
O184 O 0.66431 0.39509 0.66243 0.0
Zn185 Zn 0.67585 0.41735 0.72576 0.0
O186 O 0.66642 0.45762 0.72067 0.0
Zn187 Zn 0.70129 0.48081 0.71854 0.0
Zn188 Zn 0.6439 0.4626 0.65984 0.0
Zn189 Zn 0.64194 0.46733 0.77819 0.0
O190 O 0.70271 0.50522 0.78577 0.0
O191 O 0.66619 0.48683 0.8311 0.0
O192 O 0.71709 0.41163 0.73934 0.0
O193 O 0.73626 0.45481 0.72453 0.0
O194 O 0.70523 0.50049 0.64647 0.0
O195 O 0.66771 0.48114 0.60575 0.0
O196 O 0.61068 0.48872 0.67173 0.0
O197 O 0.65315 0.39836 0.78111 0.0
O198 O 0.61134 0.49506 0.75673 0.0
O199 O 0.62211 0.43173 0.80663 0.0
C200 C 0.64216 0.39988 0.63494 0.0
C201 C 0.68865 0.50246 0.82833 0.0
C202 C 0.69048 0.49626 0.60518 0.0
C203 C 0.73873 0.42809 0.73523 0.0
C204 C 0.60077 0.5005 0.71237 0.0
C205 C 0.6308 0.40565 0.80609 0.0
O206 O 0.63003 0.42451 0.6342 0.0
O207 O 0.07456 0.66576 0.13706 0.0
Zn208 Zn 0.06738 0.68262 0.20705 0.0
O209 O 0.0277 0.6799 0.22646 0.0
Zn210 Zn 0.01173 0.71829 0.24011 0.0
Zn211 Zn 0.00765 0.66248 0.17023 0.0
Zn212 Zn 0.02429 0.65332 0.28395 0.0
O213 O -0.00589 0.71789 0.31423 0.0
O214 O 0.01126 0.67602 0.34424 0.0
O215 O 0.08152 0.7229 0.21052 0.0
O216 O 0.04402 0.74798 0.23913 0.0
O217 O -0.01386 0.73119 0.17829 0.0
O218 O -0.01049 0.69264 0.12757 0.0
O219 O 0.97767 0.63558 0.19459 0.0
O220 O 0.0918 0.65873 0.25353 0.0
O221 O -0.0069 0.62413 0.2731 0.0
O222 O 0.06155 0.63238 0.29997 0.0
C223 C 0.06027 0.64685 0.11243 0.0
C224 C -0.00188 0.69981 0.35139 0.0
C225 C 0.98153 0.71853 0.13496 0.0
C226 C 0.07019 0.74654 0.22489 0.0
C227 C 0.97541 0.621 0.23607 0.0
C228 C 0.08698 0.63861 0.28587 0.0
O229 O 0.03449 0.64098 0.12448 0.0
O230 O 0.79602 0.06798 0.58789 0.0
Zn231 Zn 0.77963 0.06451 0.65938 0.0
O232 O 0.78222 0.02563 0.68541 0.0
Zn233 Zn 0.74368 0.01002 0.6937 0.0
Zn234 Zn 0.80308 0.00301 0.63577 0.0
Zn235 Zn 0.80387 0.02485 0.74973 0.0
O236 O 0.74164 -0.01047 0.76328 0.0
O237 O 0.77927 0.00805 0.80517 0.0
O238 O 0.73935 0.07915 0.66075 0.0
O239 O 0.71387 0.04228 0.69087 0.0
O240 O 0.73409 0.9836 0.63321 0.0
O241 O 0.77639 0.97908 0.59475 0.0
O242 O 0.8324 0.97791 0.66868 0.0
O243 O 0.80358 0.09064 0.70289 0.0
O244 O 0.83669 -0.0031 0.74692 0.0
O245 O 0.82082 0.06393 0.7673 0.0
C246 C 0.81534 0.05277 0.56623 0.0
C247 C 0.75687 -0.00771 0.8042 0.0
C248 C 0.74971 0.97363 0.59677 0.0
C249 C 0.71555 0.06835 0.67509 0.0
C250 C 0.84445 0.97879 0.71279 0.0
C251 C 0.81883 0.08798 0.74351 0.0
O252 O 0.82263 0.02828 0.58428 0.0
O253 O 0.40481 0.81342 0.13215 0.0
Zn254 Zn 0.41359 0.7923 0.19833 0.0
O255 O 0.45384 0.795 0.21544 0.0
Zn256 Zn 0.47027 0.7562 0.2187 0.0
Zn257 Zn 0.47272 0.81637 0.16188 0.0
Zn258 Zn 0.45912 0.81691 0.27906 0.0
O259 O 0.49153 0.75161 0.28684 0.0
O260 O 0.47749 0.79063 0.3309 0.0
O261 O 0.40036 0.75114 0.19351 0.0
O262 O 0.43906 0.72567 0.21448 0.0
O263 O 0.49478 0.74799 0.15524 0.0
O264 O 0.49199 0.78969 0.11324 0.0
O265 O 0.50152 0.84343 0.19031 0.0
O266 O 0.39011 0.81291 0.25159 0.0
O267 O 0.48735 0.84968 0.27144 0.0
O268 O 0.42149 0.83393 0.30425 0.0
C269 C 0.41858 0.83332 0.10893 0.0
C270 C 0.49103 0.7667 0.32827 0.0
C271 C 0.49986 0.76344 0.11535 0.0
C272 C 0.41263 0.72699 0.20194 0.0
C273 C 0.50381 0.85594 0.23387 0.0
C274 C 0.39576 0.82953 0.28945 0.0
O275 O 0.44455 0.8389 0.12009 0.0
O276 O 0.17919 0.57778 0.88133 0.0
Zn277 Zn 0.19265 0.56541 0.81133 0.0
O278 O 0.18644 0.52481 0.79932 0.0
Zn279 Zn 0.22311 0.50558 0.78532 0.0
Zn280 Zn 0.16914 0.50927 0.86031 0.0
Zn281 Zn 0.15843 0.52013 0.74457 0.0
O282 O 0.22084 0.48705 0.71222 0.0
O283 O 0.1792 0.50477 0.68317 0.0
O284 O 0.23357 0.57632 0.80435 0.0
O285 O 0.25527 0.53533 0.78328 0.0
O286 O 0.2347 0.48007 0.8482 0.0
O287 O 0.19851 0.48943 0.90173 0.0
O288 O 0.13841 0.48125 0.84482 0.0
O289 O 0.16864 0.58918 0.76385 0.0
O290 O 0.1283 0.49052 0.76271 0.0
O291 O 0.13844 0.55812 0.72786 0.0
C292 C 0.16054 0.56622 0.91057 0.0
C293 C 0.20253 0.49096 0.67563 0.0
C294 C 0.2229 0.47821 0.89293 0.0
C295 C 0.25616 0.5623 0.79306 0.0
C296 C 0.12363 0.47664 0.80442 0.0
C297 C 0.14646 0.58395 0.73673 0.0
O298 O 0.15239 0.54034 0.9039 0.0
O299 O 0.88511 0.16515 0.32141 0.0
Zn300 Zn 0.90546 0.18801 0.26648 0.0
O301 O 0.94661 0.18446 0.27189 0.0
Zn302 Zn 0.96429 0.22281 0.27371 0.0
Zn303 Zn 0.95556 0.16334 0.33322 0.0
Zn304 Zn 0.95906 0.16082 0.21421 0.0
O305 O 0.98603 0.22827 0.20466 0.0
O306 O 0.97677 0.18734 0.16209 0.0
O307 O 0.89316 0.22852 0.27417 0.0
O308 O 0.93328 0.2541 0.27758 0.0
O309 O -0.01288 0.22821 0.34201 0.0
O310 O 0.97302 0.189 0.38491 0.0
O311 O 0.9843 0.13316 0.32039 0.0
O312 O 0.8908 0.17241 0.19957 0.0
O313 O -0.01097 0.13117 0.23524 0.0
O314 O 0.92463 0.13988 0.18362 0.0
C315 C 0.89452 0.14804 0.35598 0.0
C316 C -0.01264 0.21272 0.16356 0.0
C317 C -0.01394 0.21304 0.38353 0.0
C318 C 0.90595 0.25258 0.27836 0.0
C319 C -0.00393 0.12263 0.2804 0.0
C320 C 0.8992 0.14947 0.17722 0.0
O321 O 0.92124 0.14464 0.36363 0.0
O322 O 0.29972 0.90144 0.87448 0.0
Zn323 Zn 0.27721 0.91641 0.81447 0.0
O324 O 0.28226 0.95742 0.80557 0.0
Zn325 Zn 0.24449 0.9764 0.80508 0.0
Zn326 Zn 0.30565 0.97181 0.86147 0.0
Zn327 Zn 0.30326 0.96374 0.74198 0.0
O328 O 0.23867 -0.00271 0.73603 0.0
O329 O 0.27763 0.9838 0.69215 0.0
O330 O 0.23677 0.90658 0.82795 0.0
O331 O 0.21227 0.94707 0.81565 0.0
O332 O 0.24042 0.00245 0.86805 0.0
O333 O 0.28115 -0.00618 0.91009 0.0
O334 O 0.33684 -0.00251 0.83632 0.0
O335 O 0.29154 0.89409 0.75369 0.0
O336 O 0.3367 -0.00983 0.75159 0.0
O337 O 0.31829 0.92636 0.71234 0.0
C338 C 0.31819 0.91288 0.9042 0.0
C339 C 0.25375 -0.00287 0.69464 0.0
C340 C 0.25633 0.00522 0.90801 0.0
C341 C 0.21316 0.92026 0.82693 0.0
C342 C 0.34715 0.00217 0.79155 0.0
C343 C 0.3099 0.90049 0.71915 0.0
O344 O 0.3238 0.9397 0.90192 0.0
O345 O 0.48168 0.25519 0.23503 0.0
Zn346 Zn 0.4843 0.27094 0.30916 0.0
O347 O 0.52479 0.27639 0.32701 0.0
Zn348 Zn 0.53681 0.25374 0.38517 0.0
Zn349 Zn 0.5505 0.26862 0.27087 0.0
Zn350 Zn 0.5294 0.31516 0.34927 0.0
O351 O 0.558 0.27804 0.43798 0.0
O352 O 0.53162 0.31731 0.42578 0.0
O353 O 0.46401 0.24891 0.36849 0.0
O354 O 0.50163 0.24059 0.42009 0.0
O355 O 0.55986 0.21908 0.36358 0.0
O356 O 0.57083 0.23022 0.28216 0.0
O357 O 0.58029 0.30047 0.26264 0.0
O358 O 0.46428 0.30981 0.30219 0.0
O359 O 0.56524 0.33171 0.32168 0.0
O360 O 0.49859 0.34059 0.32372 0.0
C361 C 0.49975 0.25974 0.19851 0.0
C362 C 0.54866 0.30242 0.45347 0.0
C363 C 0.5722 0.21312 0.32093 0.0
C364 C 0.47488 0.23948 0.41083 0.0
C365 C 0.583 0.32429 0.28689 0.0
C366 C 0.47356 0.33552 0.30691 0.0
O367 O 0.52578 0.26666 0.20762 0.0
H368 H 0.33115 0.60891 0.4323 0.0
H369 H 0.39196 0.53898 0.44867 0.0
H370 H 0.42025 0.56799 0.50884 0.0
H371 H 0.42723 0.61281 0.55741 0.0
H372 H 0.36549 0.68198 0.54292 0.0
H373 H 0.3381 0.65357 0.48058 0.0
C374 C 0.3506 0.59994 0.44894 0.0
C375 C 0.35942 0.57181 0.43602 0.0
C376 C 0.36663 0.61661 0.48351 0.0
C377 C 0.38462 0.56054 0.45813 0.0
C378 C 0.40086 0.57713 0.49237 0.0
C379 C 0.40793 0.62179 0.54024 0.0
C380 C 0.39843 0.64948 0.55456 0.0
C381 C 0.39203 0.60517 0.5053 0.0
C382 C 0.3732 0.6607 0.53252 0.0
C383 C 0.35753 0.64447 0.49699 0.0
H384 H 0.82184 0.36997 0.06742 0.0
H385 H 0.86087 0.45182 0.02935 0.0
H386 H 0.89373 0.42766 0.97002 0.0
H387 H 0.91147 0.38339 0.92922 0.0
H388 H 0.87155 0.30181 0.96523 0.0
H389 H 0.83918 0.32583 0.02593 0.0
C390 C 0.83741 0.3826 0.04597 0.0
C391 C 0.83885 0.41268 0.05289 0.0
C392 C 0.85631 0.3686 0.0121 0.0
C393 C 0.85921 0.42865 0.02472 0.0
C394 C 0.87812 0.41485 0.99096 0.0
C395 C 0.89594 0.37082 0.95088 0.0
C396 C 0.89405 0.34087 0.94321 0.0
C397 C 0.87699 0.38483 0.98466 0.0
C398 C 0.87346 0.32491 0.97072 0.0
C399 C 0.85489 0.33862 1.00521 0.0
H400 H 0.05843 0.88538 0.59286 0.0
H401 H 0.12456 0.8216 0.61819 0.0
H402 H 0.15526 0.84565 0.55453 0.0
H403 H 0.16192 0.88323 0.48831 0.0
H404 H 0.09593 0.9476 0.46545 0.0
H405 H 0.06656 0.9249 0.53203 0.0
C406 C 0.07959 0.87678 0.58451 0.0
C407 C 0.08912 0.85159 0.60947 0.0
C408 C 0.09707 0.89076 0.54839 0.0
C409 C 0.11677 0.84096 0.5992 0.0
C410 C 0.13426 0.85462 0.56277 0.0
C411 C 0.14117 0.89236 0.49811 0.0
C412 C 0.13097 0.91684 0.47161 0.0
C413 C 0.12443 0.87929 0.53659 0.0
C414 C 0.10425 0.92872 0.48521 0.0
C415 C 0.08739 0.91572 0.52313 0.0
H416 H 0.55923 0.09966 0.94559 0.0
H417 H 0.62083 0.16853 0.92994 0.0
H418 H 0.65556 0.14111 0.98141 0.0
H419 H 0.66805 0.0977 0.03114 0.0
H420 H 0.60662 0.02823 0.04336 0.0
H421 H 0.5723 0.0557 0.99211 0.0
C422 C 0.58018 0.10876 0.95386 0.0
C423 C 0.58743 0.13612 0.93468 0.0
C424 C 0.60013 0.09269 0.98227 0.0
C425 C 0.61481 0.14748 0.94463 0.0
C426 C 0.63465 0.13183 0.97387 0.0
C427 C 0.64724 0.08848 0.0223 0.0
C428 C 0.6399 0.06103 0.04125 0.0
C429 C 0.62753 0.10437 0.99278 0.0
C430 C 0.61288 0.04933 0.02924 0.0
C431 C 0.59314 0.06506 1.00015 0.0
H432 H 0.60294 0.29797 0.49088 0.0
H433 H 0.52102 0.33875 0.51805 0.0
H434 H 0.54295 0.37157 0.58016 0.0
H435 H 0.58606 0.39275 0.6171 0.0
H436 H 0.66856 0.35333 0.59018 0.0
H437 H 0.64582 0.31578 0.53731 0.0
C438 C 0.58985 0.31349 0.51163 0.0
C439 C 0.56056 0.31627 0.49976 0.0
C440 C 0.60279 0.33292 0.54612 0.0
C441 C 0.54371 0.33651 0.52645 0.0
C442 C 0.55623 0.35537 0.56162 0.0
C443 C 0.59905 0.37589 0.5997 0.0
C444 C 0.6289 0.37608 0.60611 0.0
C445 C 0.58589 0.35454 0.56995 0.0
C446 C 0.6455 0.35371 0.58494 0.0
C447 C 0.63252 0.33229 0.55488 0.0
H448 H 0.10793 0.55776 0.95072 0.0
H449 H 0.18093 0.61486 0.95723 0.0
H450 H 0.15581 0.64553 0.01956 0.0
H451 H 0.11319 0.65587 0.0718 0.0
H452 H 0.03967 0.59937 0.06249 0.0
H453 H 0.06493 0.56884 1.00074 0.0
C454 C 0.11845 0.57677 0.96617 0.0
C455 C 0.14628 0.58394 0.95001 0.0
C456 C 0.10373 0.59452 1.00087 0.0
C457 C 0.15949 0.60891 0.96942 0.0
C458 C 0.14515 0.62645 1.00486 0.0
C459 C 0.10262 0.63695 0.0561 0.0
C460 C 0.07465 0.62986 0.07186 0.0
C461 C 0.11723 0.61948 0.02068 0.0
C462 C 0.06119 0.60537 0.05093 0.0
C463 C 0.07565 0.5878 0.01584 0.0
H464 H 0.90402 0.09678 0.40186 0.0
H465 H 0.83974 0.16303 0.38234 0.0
H466 H 0.80826 0.13804 0.44359 0.0
H467 H 0.80099 0.09942 0.50763 0.0
H468 H 0.86543 0.03294 0.52523 0.0
H469 H 0.8948 0.0559 0.45909 0.0
C470 C 0.88305 0.10567 0.41088 0.0
C471 C 0.87431 0.13186 0.38854 0.0
C472 C 0.86519 0.09121 0.4457 0.0
C473 C 0.8469 0.1429 0.39944 0.0
C474 C 0.82899 0.12869 0.43449 0.0
C475 C 0.82135 0.08983 0.49667 0.0
C476 C 0.83121 0.06477 0.52184 0.0
C477 C 0.8382 0.10315 0.45864 0.0
C478 C 0.8574 0.05232 0.50666 0.0
C479 C 0.87429 0.06547 0.46898 0.0
H480 H 0.36885 0.92427 0.95122 0.0
H481 H 0.302 0.86014 0.94063 0.0
H482 H 0.32736 0.82968 1.00288 0.0
H483 H 0.36822 0.82153 0.06075 0.0
H484 H 0.43588 0.88495 0.06901 0.0
H485 H 0.4105 0.91537 0.00686 0.0
C486 C 0.35979 0.90367 0.9627 0.0
C487 C 0.33355 0.89454 0.94169 0.0
C488 C 0.37464 0.88611 0.99786 0.0
C489 C 0.32223 0.86763 0.95629 0.0
C490 C 0.33667 0.85022 0.99189 0.0
C491 C 0.37743 0.84199 0.04893 0.0
C492 C 0.4038 0.85102 0.06962 0.0
C493 C 0.36286 0.85928 0.01295 0.0
C494 C 0.41561 0.87746 0.05355 0.0
C495 C 0.40108 0.89493 0.01816 0.0
H496 H 0.41517 0.45515 0.25856 0.0
H497 H 0.33996 0.40691 0.30156 0.0
H498 H 0.36833 0.36251 0.30719 0.0
H499 H 0.41538 0.33857 0.30824 0.0
H500 H 0.49132 0.38806 0.27355 0.0
H501 H 0.46207 0.43069 0.25618 0.0
C502 C 0.40509 0.43472 0.26806 0.0
C503 C 0.37574 0.43391 0.27922 0.0
C504 C 0.42174 0.40963 0.27339 0.0
C505 C 0.36266 0.40768 0.29259 0.0
C506 C 0.37884 0.38242 0.29603 0.0
C507 C 0.4254 0.3586 0.29623 0.0
C508 C 0.45536 0.36028 0.29252 0.0
C509 C 0.40854 0.38328 0.28781 0.0
C510 C 0.46823 0.38639 0.27725 0.0
C511 C 0.45155 0.41076 0.26718 0.0
H512 H 0.03206 0.38092 0.85218 0.0
H513 H 0.00964 0.39718 0.69246 0.0
H514 H 0.04739 0.43361 0.68672 0.0
H515 H 0.0869 0.46062 0.72727 0.0
H516 H 0.10865 0.44354 0.88719 0.0
H517 H 0.07091 0.40758 0.89235 0.0
C518 C 0.03533 0.3924 0.81602 0.0
C519 C 0.01805 0.38631 0.77285 0.0
C520 C 0.05698 0.41316 0.81295 0.0
C521 C 0.02265 0.40145 0.72635 0.0
C522 C 0.04424 0.42227 0.723 0.0
C523 C 0.08339 0.44903 0.76322 0.0
C524 C 0.10063 0.45481 0.8067 0.0
C525 C 0.06156 0.42826 0.76609 0.0
C526 C 0.09576 0.43958 0.85303 0.0
C527 C 0.07415 0.41897 0.85613 0.0
H528 H 0.09156 0.03626 0.354 0.0
H529 H 0.10001 0.02256 0.18941 0.0
H530 H 0.06131 0.05728 0.17321 0.0
H531 H 0.02545 0.09208 0.20651 0.0
H532 H 0.01786 0.1041 0.37201 0.0
H533 H 0.05588 0.06941 0.38683 0.0
C534 C 0.08506 0.04085 0.31447 0.0
C535 C 0.09874 0.02701 0.27301 0.0
C536 C 0.0629 0.06054 0.30555 0.0
C537 C 0.08978 0.03299 0.22208 0.0
C538 C 0.0677 0.05284 0.21279 0.0
C539 C 0.03211 0.08704 0.24574 0.0
C540 C 0.0188 0.10079 0.28794 0.0
C541 C 0.05415 0.06683 0.25431 0.0
C542 C 0.02763 0.09393 0.33864 0.0
C543 C 0.04945 0.07407 0.34733 0.0
H544 H 0.37806 0.02633 0.8686 0.0
H545 H 0.37057 0.02336 0.70197 0.0
H546 H 0.40911 0.05875 0.69381 0.0
H547 H 0.44347 0.09198 0.73438 0.0
H548 H 0.45012 0.09457 0.9013 0.0
H549 H 0.41332 0.05774 0.90871 0.0
C550 C 0.38485 0.03334 0.83042 0.0
C551 C 0.37133 0.02241 0.78603 0.0
C552 C 0.40682 0.05366 0.826 0.0
C553 C 0.3806 0.03151 0.73684 0.0
C554 C 0.40259 0.05177 0.73211 0.0
C555 C 0.43698 0.08437 0.77234 0.0
C556 C 0.4494 0.09619 0.81714 0.0
C557 C 0.41564 0.06321 0.77649 0.0
C558 C 0.44082 0.086 0.86609 0.0
C559 C 0.41975 0.06492 0.87047 0.0
H560 H 0.93085 0.61468 0.17046 0.0
H561 H 0.96634 0.58117 0.31298 0.0
H562 H 0.92717 0.54626 0.31874 0.0
H563 H 0.88402 0.52415 0.28111 0.0
H564 H 0.84951 0.55803 0.13795 0.0
H565 H 0.88725 0.59414 0.13499 0.0
C566 C 0.93011 0.59977 0.20287 0.0
C567 C 0.95159 0.60033 0.24096 0.0
C568 C 0.90772 0.57987 0.20588 0.0
C569 C 0.95008 0.58108 0.28298 0.0
C570 C 0.92772 0.56113 0.28632 0.0
C571 C 0.88462 0.53959 0.24952 0.0
C572 C 0.86412 0.53826 0.20966 0.0
C573 C 0.90657 0.56019 0.24769 0.0
C574 C 0.86516 0.55842 0.16896 0.0
C575 C 0.88673 0.57909 0.16716 0.0
H576 H 0.94214 0.89555 0.79398 0.0
H577 H 0.93866 0.86891 0.63374 0.0
H578 H 0.90073 0.90353 0.61681 0.0
H579 H 0.86903 0.94145 0.64629 0.0
H580 H 0.87179 0.96954 0.80559 0.0
H581 H 0.90963 0.9343 0.82393 0.0
C582 C 0.93294 0.89728 0.75552 0.0
C583 C 0.94328 0.87975 0.71526 0.0
C584 C 0.91114 0.91752 0.74569 0.0
C585 C 0.93127 0.88229 0.66545 0.0
C586 C 0.90952 0.90206 0.65561 0.0
C587 C 0.87782 0.93993 0.68512 0.0
C588 C 0.86761 0.95806 0.72445 0.0
C589 C 0.89943 0.91983 0.69531 0.0
C590 C 0.87937 0.95584 0.77449 0.0
C591 C 0.90094 0.93567 0.78506 0.0
H592 H 0.5533 0.85756 0.18204 0.0
H593 H 0.50582 0.90209 0.30088 0.0
H594 H 0.54326 0.93934 0.30511 0.0
H595 H 0.58834 0.96061 0.2699 0.0
H596 H 0.63441 0.9138 0.15126 0.0
H597 H 0.59869 0.87609 0.1524 0.0
C598 C 0.55109 0.87541 0.20894 0.0
C599 C 0.52674 0.87744 0.24041 0.0
C600 C 0.57244 0.89639 0.21111 0.0
C601 C 0.52444 0.90025 0.27601 0.0
C602 C 0.54577 0.92153 0.27831 0.0
C603 C 0.5906 0.94201 0.24478 0.0
C604 C 0.61374 0.94038 0.20991 0.0
C605 C 0.56971 0.92006 0.24534 0.0
C606 C 0.61655 0.916 0.17781 0.0
C607 C 0.59616 0.89428 0.17841 0.0
H608 H 0.51262 0.59715 0.65197 0.0
H609 H 0.51125 0.60866 0.81784 0.0
H610 H 0.54368 0.56747 0.82838 0.0
H611 H 0.57449 0.53025 0.78973 0.0
H612 H 0.57543 0.51944 0.62346 0.0
H613 H 0.54076 0.55838 0.61398 0.0
C614 C 0.51938 0.59067 0.69049 0.0
C615 C 0.50993 0.60609 0.73401 0.0
C616 C 0.53789 0.56717 0.69618 0.0
C617 C 0.51839 0.59713 0.78372 0.0
C618 C 0.53694 0.57366 0.78974 0.0
C619 C 0.56696 0.53626 0.75144 0.0
C620 C 0.57778 0.52217 0.70737 0.0
C621 C 0.54714 0.55881 0.74614 0.0
C622 C 0.56761 0.53004 0.65806 0.0
C623 C 0.54781 0.55234 0.65252 0.0
H624 H 0.20075 0.45817 0.98275 0.0
H625 H 0.28124 0.47702 0.90768 0.0
H626 H 0.30557 0.47628 0.99174 0.0
H627 H 0.30205 0.47902 0.0868 0.0
H628 H 0.22065 0.46306 0.16139 0.0
H629 H 0.19862 0.45396 0.07721 0.0
C630 C 0.22379 0.46135 0.98458 0.0
C631 C 0.23909 0.46805 0.939 0.0
C632 C 0.23732 0.46213 0.03313 0.0
C633 C 0.26895 0.47174 0.94199 0.0
C634 C 0.28278 0.47175 0.99022 0.0
C635 C 0.27956 0.47316 0.08484 0.0
C636 C 0.26291 0.47235 0.13054 0.0
C637 C 0.26689 0.46841 0.03614 0.0
C638 C 0.23395 0.46417 0.12706 0.0
C639 C 0.22131 0.459 0.07883 0.0
H640 H -0.00144 0.23217 0.62095 0.0
H641 H 0.97553 0.31881 0.57487 0.0
H642 H 0.98185 0.30621 0.48434 0.0
H643 H -0.01381 0.26868 0.41755 0.0
H644 H 0.00792 0.18182 0.46315 0.0
H645 H 0.01065 0.19656 0.55364 0.0
C646 C -0.0045 0.24844 0.59121 0.0
C647 C 0.98589 0.27616 0.60497 0.0
C648 C -0.00114 0.241 0.53865 0.0
C649 C 0.98233 0.29705 0.56566 0.0
C650 C 0.98599 0.28992 0.5136 0.0
C651 C -0.00744 0.25327 0.44709 0.0
C652 C -0.00344 0.22419 0.43374 0.0
C653 C -0.00684 0.26169 0.49947 0.0
C654 C 0.00453 0.20435 0.47256 0.0
C655 C 0.00587 0.2127 0.52444 0.0
H656 H 0.28468 0.01783 0.99693 0.0
H657 H 0.19969 0.01509 0.93038 0.0
H658 H 0.17873 0.01456 0.0169 0.0
H659 H 0.18511 0.00455 0.1095 0.0
H660 H 0.2702 0.00436 0.17561 0.0
H661 H 0.29056 0.01635 0.0911 0.0
C662 C 0.26152 0.01791 1.00127 0.0
C663 C 0.24382 0.01565 0.95722 0.0
C664 C 0.24967 0.01631 0.05104 0.0
C665 C 0.21387 0.0165 0.96353 0.0
C666 C 0.20186 0.01583 0.01307 0.0
C667 C 0.20809 0.00754 0.10557 0.0
C668 C 0.22622 0.00278 0.14836 0.0
C669 C 0.21964 0.01397 0.05682 0.0
C670 C 0.25584 0.00751 0.14309 0.0
C671 C 0.26748 0.01432 0.09476 0.0
H672 H 0.45767 0.2735 0.48793 0.0
H673 H 0.45636 0.18556 0.43459 0.0
H674 H 0.45044 0.16846 0.52365 0.0
H675 H 0.4578 0.17829 0.616 0.0
H676 H 0.46425 0.26628 0.66939 0.0
H677 H 0.45561 0.28373 0.58135 0.0
C678 C 0.45443 0.2507 0.49575 0.0
C679 C 0.45703 0.23077 0.45494 0.0
C680 C 0.45303 0.24108 0.54731 0.0
C681 C 0.45375 0.20125 0.46532 0.0
C682 C 0.45099 0.1915 0.51638 0.0
C683 C 0.45666 0.20132 0.60866 0.0
C684 C 0.4624 0.22095 0.64906 0.0
C685 C 0.45253 0.21115 0.55771 0.0
C686 C 0.46022 0.25069 0.63903 0.0
C687 C 0.45541 0.26068 0.58857 0.0
H688 H 0.71037 0.50604 0.36626 0.0
H689 H 0.7982 0.49419 0.41523 0.0
H690 H 0.78404 0.49973 0.50532 0.0
H691 H 0.74582 0.50102 0.57126 0.0
H692 H 0.65793 0.51137 0.52238 0.0
H693 H 0.67304 0.51402 0.4321 0.0
C694 C 0.7265 0.50522 0.3965 0.0
C695 C 0.75522 0.49917 0.38364 0.0
C696 C 0.71819 0.50806 0.44876 0.0
C697 C 0.77581 0.49837 0.42368 0.0
C698 C 0.76777 0.50155 0.47548 0.0
C699 C 0.73012 0.50481 0.54097 0.0
C700 C 0.7008 0.50581 0.55358 0.0
C701 C 0.73888 0.50544 0.48869 0.0
C702 C 0.68066 0.51037 0.51371 0.0
C703 C 0.68925 0.5117 0.46194 0.0
H704 H 0.97907 0.79879 0.9405 0.0
H705 H 0.96352 0.71679 0.86617 0.0
H706 H 0.95631 0.69426 0.95066 0.0
H707 H 0.96164 0.69627 0.04483 0.0
H708 H 0.98067 0.77731 0.11949 0.0
H709 H 0.97834 0.80194 0.03565 0.0
C710 C 0.97364 0.77606 0.94254 0.0
C711 C 0.97236 0.75943 0.89672 0.0
C712 C 0.97019 0.76306 0.99142 0.0
C713 C 0.96496 0.73011 0.90051 0.0
C714 C 0.96088 0.71717 0.94892 0.0
C715 C 0.96467 0.71947 0.04307 0.0
C716 C 0.97177 0.73483 0.08849 0.0
C717 C 0.9645 0.73321 0.99457 0.0
C718 C 0.97518 0.76491 0.08538 0.0
C719 C 0.9742 0.77894 0.03725 0.0
H720 H 0.68356 0.97312 0.39032 0.0
H721 H 0.76861 0.95393 0.33359 0.0
H722 H 0.78453 0.94333 0.42173 0.0
H723 H 0.77662 0.94906 0.51473 0.0
H724 H 0.69255 0.97237 0.5714 0.0
H725 H 0.67362 0.9705 0.48338 0.0
C726 C 0.70549 0.96619 0.39708 0.0
C727 C 0.72512 0.96516 0.35566 0.0
C728 C 0.71464 0.96083 0.44788 0.0
C729 C 0.7532 0.95534 0.36486 0.0
C730 C 0.76232 0.94933 0.41528 0.0
C731 C 0.75395 0.95297 0.50812 0.0
C732 C 0.73624 0.96177 0.54943 0.0
C733 C 0.74358 0.95339 0.4572 0.0
C734 C 0.70679 0.96596 0.54032 0.0
C735 C 0.69601 0.96525 0.48983 0.0
H736 H 0.51704 0.79013 0.02716 0.0
H737 H 0.50201 0.7057 0.0927 0.0
H738 H 0.50029 0.68495 0.00597 0.0
H739 H 0.49338 0.69262 0.91274 0.0
H740 H 0.50563 0.7776 0.84761 0.0
H741 H 0.51812 0.79628 0.93306 0.0
C742 C 0.51414 0.76704 0.0226 0.0
C743 C 0.50889 0.74964 0.06634 0.0
C744 C 0.51195 0.75548 0.97264 0.0
C745 C 0.50583 0.71968 0.05977 0.0
C746 C 0.50449 0.70784 0.01009 0.0
C747 C 0.49917 0.71516 0.91709 0.0
C748 C 0.49783 0.73388 0.87415 0.0
C749 C 0.50588 0.72583 0.9664 0.0
C750 C 0.50611 0.76282 0.88014 0.0
C751 C 0.51321 0.77353 0.92902 0.0
H752 H 0.66228 0.50434 0.92246 0.0
H753 H 0.7417 0.52627 0.8459 0.0
H754 H 0.76436 0.53453 0.92988 0.0
H755 H 0.76389 0.52721 0.02392 0.0
H756 H 0.68547 0.50201 0.10034 0.0
H757 H 0.65998 0.50412 0.01756 0.0
C758 C 0.68442 0.51146 0.92394 0.0
C759 C 0.70041 0.51409 0.87768 0.0
C760 C 0.69755 0.51539 0.97245 0.0
C761 C 0.7289 0.52383 0.88062 0.0
C762 C 0.74194 0.52841 0.92875 0.0
C763 C 0.74104 0.52281 0.02279 0.0
C764 C 0.72674 0.51393 0.06829 0.0
C765 C 0.72682 0.523 0.97481 0.0
C766 C 0.69706 0.50881 0.0661 0.0
C767 C 0.68254 0.50971 0.01858 0.0
H768 H 0.97165 0.74865 0.38907 0.0
H769 H 0.00325 0.66481 0.43572 0.0
H770 H -0.00509 0.67647 0.52587 0.0
H771 H 0.98601 0.71306 0.59258 0.0
H772 H 0.95528 0.79712 0.54708 0.0
H773 H 0.95496 0.78249 0.45635 0.0
C774 C 0.97628 0.73279 0.41886 0.0
C775 C -0.01123 0.70622 0.40526 0.0
C776 C 0.97152 0.73961 0.47136 0.0
C777 C -0.00582 0.68576 0.44465 0.0
C778 C -0.01066 0.69231 0.49657 0.0
C779 C 0.97813 0.72773 0.56301 0.0
C780 C 0.97093 0.75614 0.57642 0.0
C781 C 0.97898 0.71952 0.51058 0.0
C782 C 0.96108 0.77509 0.53757 0.0
C783 C 0.96119 0.76686 0.48557 0.0
H784 H 0.69957 0.94257 1.00388 0.0
H785 H 0.78311 0.96273 0.06598 0.0
H786 H 0.80146 0.97022 0.97842 0.0
H787 H 0.79052 0.9822 0.88798 0.0
H788 H 0.70552 0.96672 0.82744 0.0
H789 H 0.6908 0.9467 0.91086 0.0
C790 C 0.72207 0.94764 0.99811 0.0
C791 C 0.73976 0.95292 0.04131 0.0
C792 C 0.73185 0.95391 0.94813 0.0
C793 C 0.76899 0.95875 0.03343 0.0
C794 C 0.77934 0.96361 0.98337 0.0
C795 C 0.76882 0.97422 0.89282 0.0
C796 C 0.74883 0.9768 0.8521 0.0
C797 C 0.76041 0.96321 0.94102 0.0
C798 C 0.72112 0.9655 0.85848 0.0
C799 C 0.71273 0.95398 0.90611 0.0
H800 H 0.50478 0.79706 0.41438 0.0
H801 H 0.50847 0.71141 0.34896 0.0
H802 H 0.52149 0.69163 0.43346 0.0
H803 H 0.52134 0.6976 0.5275 0.0
H804 H 0.51334 0.78281 0.59352 0.0
H805 H 0.51395 0.80396 0.50701 0.0
C806 C 0.50889 0.77411 0.4184 0.0
C807 C 0.50474 0.75558 0.37589 0.0
C808 C 0.51566 0.76283 0.46726 0.0
C809 C 0.51102 0.72606 0.38128 0.0
C810 C 0.51842 0.71473 0.42962 0.0
C811 C 0.52059 0.72088 0.52311 0.0
C812 C 0.51622 0.73852 0.56681 0.0
C813 C 0.51929 0.73274 0.47326 0.0
C814 C 0.51621 0.76866 0.56056 0.0
C815 C 0.51616 0.78076 0.51099 0.0
H816 H 0.25067 0.46365 0.63824 0.0
H817 H 0.1681 0.49698 0.59079 0.0
H818 H 0.18036 0.48936 0.50051 0.0
H819 H 0.21721 0.48046 0.43433 0.0
H820 H 0.29994 0.44783 0.48118 0.0
H821 H 0.28464 0.44714 0.57145 0.0
C822 C 0.23516 0.46877 0.60825 0.0
C823 C 0.20879 0.48151 0.62168 0.0
C824 C 0.24237 0.46449 0.5558 0.0
C825 C 0.18884 0.48762 0.582 0.0
C826 C 0.19577 0.48324 0.53003 0.0
C827 C 0.23149 0.47218 0.46406 0.0
C828 C 0.25974 0.46453 0.45107 0.0
C829 C 0.22285 0.47267 0.51632 0.0
C830 C 0.2781 0.45408 0.49022 0.0
C831 C 0.26947 0.45391 0.54201 0.0
H832 H -0.00647 0.18561 0.07047 0.0
H833 H 0.00584 0.26804 0.14524 0.0
H834 H 0.01489 0.29046 0.06122 0.0
H835 H 0.01137 0.28817 0.96676 0.0
H836 H -0.00469 0.2066 0.89164 0.0
H837 H -0.00334 0.18219 0.97567 0.0
C838 C -0.00134 0.20841 0.06867 0.0
C839 C -0.00159 0.22521 0.11432 0.0
C840 C 0.00312 0.22134 0.02004 0.0
C841 C 0.00556 0.25461 0.11095 0.0
C842 C 0.01067 0.26748 0.06281 0.0
C843 C 0.00882 0.26492 0.96849 0.0
C844 C 0.00271 0.24934 0.92286 0.0
C845 C 0.00834 0.25128 0.01706 0.0
C846 C -3e-05 0.21918 0.92594 0.0
C847 C 0.00039 0.20527 0.97415 0.0
H848 H 0.18633 0.02551 0.4928 0.0
H849 H 0.27155 0.01646 0.42896 0.0
H850 H 0.29184 0.01773 0.51601 0.0
H851 H 0.28434 0.01035 0.60881 0.0
H852 H 0.19874 0.01435 0.6723 0.0
H853 H 0.17964 0.02629 0.58669 0.0
C854 C 0.20944 0.02457 0.49765 0.0
C855 C 0.22732 0.01995 0.45438 0.0
C856 C 0.22081 0.02369 0.54788 0.0
C857 C 0.25722 0.01953 0.4615 0.0
C858 C 0.26883 0.01996 0.51138 0.0
C859 C 0.26153 0.01428 0.60417 0.0
C860 C 0.24284 0.01062 0.64654 0.0
C861 C 0.25066 0.02017 0.55471 0.0
C862 C 0.21351 0.01661 0.64019 0.0
C863 C 0.20259 0.02334 0.59119 0.0
H864 H 0.49067 0.26315 0.95675 0.0
H865 H 0.43719 0.18919 0.98522 0.0
H866 H 0.43707 0.19966 0.07813 0.0
H867 H 0.46024 0.22429 0.15224 0.0
H868 H 0.51866 0.29444 0.12202 0.0
H869 H 0.50898 0.29114 0.02961 0.0
C870 C 0.47791 0.25019 0.98312 0.0
C871 C 0.46369 0.22571 0.96438 0.0
C872 C 0.47974 0.25511 0.03666 0.0
C873 C 0.44794 0.20844 0.99895 0.0
C874 C 0.44829 0.21415 0.05214 0.0
C875 C 0.47038 0.23911 0.12537 0.0
C876 C 0.49054 0.25916 0.14374 0.0
C877 C 0.46542 0.23649 0.07171 0.0
C878 C 0.50353 0.27835 0.10863 0.0
C879 C 0.4979 0.27662 0.05575 0.0
H880 H 0.18151 0.5431 0.31876 0.0
H881 H 0.23581 0.61738 0.29428 0.0
H882 H 0.19402 0.64872 0.29207 0.0
H883 H 0.14223 0.6549 0.29089 0.0
H884 H 0.08684 0.58171 0.31558 0.0
H885 H 0.12886 0.55022 0.32528 0.0
C886 C 0.18412 0.56615 0.31308 0.0
C887 C 0.21174 0.57779 0.30611 0.0
C888 C 0.15986 0.58429 0.31226 0.0
C889 C 0.21484 0.60777 0.2996 0.0
C890 C 0.19094 0.62579 0.29833 0.0
C891 C 0.13933 0.63211 0.2991 0.0
C892 C 0.11155 0.62058 0.30204 0.0
C893 C 0.1634 0.61424 0.30386 0.0
C894 C 0.10807 0.59111 0.31335 0.0
C895 C 0.13208 0.57307 0.31835 0.0
H896 H 0.80961 0.14409 0.72086 0.0
H897 H 0.86855 0.08743 0.8004 0.0
H898 H 0.9014 0.12789 0.81465 0.0
H899 H 0.91415 0.17937 0.80102 0.0
H900 H 0.8535 0.23557 0.72477 0.0
H901 H 0.82076 0.19519 0.71178 0.0
C902 C 0.82953 0.1406 0.74173 0.0
C903 C 0.83668 0.11281 0.75933 0.0
C904 C 0.84823 0.16381 0.74956 0.0
C905 C 0.86245 0.1087 0.78676 0.0
C906 C 0.88137 0.13176 0.79446 0.0
C907 C 0.89385 0.18256 0.78124 0.0
C908 C 0.8863 0.21018 0.76321 0.0
C909 C 0.87469 0.15934 0.77525 0.0
C910 C 0.85973 0.21438 0.73867 0.0
C911 C 0.84099 0.19137 0.7314 0.0
H912 H 0.30558 0.92625 0.34124 0.0
H913 H 0.2478 0.85574 0.30922 0.0
H914 H 0.28821 0.82275 0.30086 0.0
H915 H 0.3399 0.81466 0.29517 0.0
H916 H 0.39838 0.88406 0.32954 0.0
H917 H 0.35785 0.91651 0.3458 0.0
C918 C 0.30192 0.90363 0.33275 0.0
C919 C 0.27377 0.89356 0.32519 0.0
C920 C 0.32534 0.88453 0.32872 0.0
C921 C 0.26926 0.86409 0.31509 0.0
C922 C 0.29235 0.84517 0.31024 0.0
C923 C 0.34377 0.83675 0.30719 0.0
C924 C 0.37202 0.84702 0.31074 0.0
C925 C 0.32046 0.85524 0.31605 0.0
C926 C 0.37678 0.8756 0.32681 0.0
C927 C 0.35361 0.89425 0.33554 0.0
H928 H 0.53667 0.30993 0.81962 0.0
H929 H 0.61332 0.25732 0.82698 0.0
H930 H 0.64264 0.30007 0.8358 0.0
H931 H 0.6475 0.35205 0.83209 0.0
H932 H 0.57233 0.406 0.81977 0.0
H933 H 0.54154 0.36324 0.82455 0.0
C934 C 0.55976 0.30786 0.82338 0.0
C935 C 0.57268 0.28036 0.82159 0.0
C936 C 0.57684 0.33279 0.82818 0.0
C937 C 0.60266 0.27811 0.82732 0.0
C938 C 0.61957 0.30258 0.8327 0.0
C939 C 0.62433 0.35454 0.83159 0.0
C940 C 0.61224 0.38206 0.82495 0.0
C941 C 0.60698 0.32997 0.83198 0.0
C942 C 0.5822 0.38501 0.82504 0.0
C943 C 0.5646 0.36052 0.82696 0.0
H944 H 0.67377 0.42381 0.26256 0.0
H945 H 0.71464 0.36015 0.16536 0.0
H946 H 0.67488 0.32686 0.18016 0.0
H947 H 0.62919 0.31521 0.22345 0.0
H948 H 0.58975 0.37902 0.32261 0.0
H949 H 0.62828 0.41266 0.30426 0.0
C950 C 0.6739 0.40277 0.24417 0.0
C951 C 0.69714 0.39452 0.21295 0.0
C952 C 0.65129 0.38359 0.25349 0.0
C953 C 0.69703 0.36704 0.18976 0.0
C954 C 0.67432 0.34796 0.19822 0.0
C955 C 0.62901 0.33649 0.24088 0.0
C956 C 0.60662 0.34442 0.27448 0.0
C957 C 0.65146 0.35588 0.23051 0.0
C958 C 0.60675 0.37214 0.2968 0.0
C959 C 0.62877 0.39153 0.28629 0.0
H960 H 0.04894 0.67769 0.71493 0.0
H961 H 0.1215 0.73291 0.74697 0.0
H962 H 0.15359 0.69177 0.74319 0.0
H963 H 0.16115 0.64019 0.73653 0.0
H964 H 0.08964 0.58347 0.70738 0.0
H965 H 0.05731 0.62519 0.70265 0.0
C966 C 0.07176 0.68068 0.72106 0.0
C967 C 0.08262 0.70842 0.73177 0.0
C968 C 0.0904 0.65672 0.71884 0.0
C969 C 0.11236 0.7119 0.73897 0.0
C970 C 0.13086 0.68836 0.73669 0.0
C971 C 0.13855 0.63686 0.72847 0.0
C972 C 0.12783 0.60872 0.72281 0.0
C973 C 0.1201 0.6607 0.72731 0.0
C974 C 0.09851 0.60492 0.71176 0.0
C975 C 0.07996 0.62876 0.70962 0.0
H976 H 0.78053 0.0961 0.12485 0.0
H977 H 0.81949 0.02288 0.20128 0.0
H978 H 0.86582 0.04733 0.20089 0.0
H979 H 0.89365 0.09188 0.18916 0.0
H980 H 0.85358 0.1662 0.11899 0.0
H981 H 0.80956 0.13864 0.10505 0.0
C982 C 0.79917 0.08531 0.14101 0.0
C983 C 0.79634 0.05787 0.16387 0.0
C984 C 0.82566 0.09966 0.14138 0.0
C985 C 0.82089 0.04415 0.18402 0.0
C986 C 0.84746 0.05809 0.18371 0.0
C987 C 0.87562 0.10166 0.16911 0.0
C988 C 0.8768 0.13092 0.15482 0.0
C989 C 0.84992 0.08614 0.16374 0.0
C990 C 0.85311 0.14362 0.12998 0.0
C991 C 0.82788 0.12798 0.12257 0.0
H992 H 0.36707 0.89638 0.70623 0.0
H993 H 0.28785 0.85042 0.68215 0.0
H994 H 0.31456 0.806 0.66471 0.0
H995 H 0.35957 0.77921 0.66922 0.0
H996 H 0.4387 0.82406 0.70192 0.0
H997 H 0.4129 0.87003 0.70319 0.0
C998 C 0.35578 0.87683 0.69542 0.0
C999 C 0.32564 0.87653 0.69503 0.0
C1000 C 0.37122 0.8511 0.68837 0.0
C1001 C 0.31109 0.85103 0.68227 0.0
C1002 C 0.32633 0.82564 0.67284 0.0
C1003 C 0.37132 0.79903 0.67606 0.0
C1004 C 0.40098 0.79811 0.68624 0.0
C1005 C 0.3563 0.82521 0.67795 0.0
C1006 C 0.41581 0.82409 0.69464 0.0
C1007 C 0.40108 0.8504 0.69525 0.0
H1008 H 0.84294 0.35275 0.80126 0.0
H1009 H 0.87805 0.38496 0.65775 0.0
H1010 H 0.83573 0.41618 0.64661 0.0
H1011 H 0.78696 0.43148 0.67581 0.0
H1012 H 0.75283 0.39602 0.8175 0.0
H1013 H 0.79702 0.36901 0.83173 0.0
C1014 C 0.84148 0.36644 0.76722 0.0
C1015 C 0.86334 0.36611 0.7298 0.0
C1016 C 0.81735 0.38386 0.7611 0.0
C1017 C 0.86131 0.38463 0.68681 0.0
C1018 C 0.83717 0.40244 0.68052 0.0
C1019 C 0.78961 0.41818 0.71009 0.0
C1020 C 0.76696 0.41555 0.74569 0.0
C1021 C 0.81484 0.40192 0.71716 0.0
C1022 C 0.77014 0.39813 0.78972 0.0
C1023 C 0.79527 0.38267 0.79774 0.0
H1024 H 0.16418 0.84235 0.25047 0.0
H1025 H 0.09386 0.89756 0.20585 0.0
H1026 H 0.06293 0.85518 0.19439 0.0
H1027 H 0.05508 0.80247 0.20509 0.0
H1028 H 0.12671 0.74814 0.24733 0.0
H1029 H 0.15791 0.79017 0.25231 0.0
C1030 C 0.14221 0.84504 0.23729 0.0
C1031 C 0.13118 0.87287 0.22924 0.0
C1032 C 0.12469 0.82079 0.2314 0.0
C1033 C 0.10282 0.87622 0.21183 0.0
C1034 C 0.08508 0.85205 0.20594 0.0
C1035 C 0.07752 0.79998 0.21535 0.0
C1036 C 0.08854 0.77239 0.22657 0.0
C1037 C 0.09559 0.82427 0.21709 0.0
C1038 C 0.11776 0.76921 0.23876 0.0
C1039 C 0.13562 0.7932 0.24155 0.0
H1040 H 0.65902 0.05223 0.67707 0.0
H1041 H 0.71428 0.12694 0.67186 0.0
H1042 H 0.67278 0.15868 0.67708 0.0
H1043 H 0.62151 0.16536 0.69174 0.0
H1044 H 0.56552 0.09139 0.6973 0.0
H1045 H 0.60641 0.05937 0.68162 0.0
C1046 C 0.66192 0.07545 0.67682 0.0
C1047 C 0.68978 0.08713 0.67491 0.0
C1048 C 0.63783 0.09377 0.67946 0.0
C1049 C 0.69314 0.11729 0.67364 0.0
C1050 C 0.66941 0.13554 0.67658 0.0
C1051 C 0.61814 0.14226 0.68843 0.0
C1052 C 0.59059 0.13077 0.69621 0.0
C1053 C 0.64175 0.12402 0.68058 0.0
C1054 C 0.58651 0.10083 0.69126 0.0
C1055 C 0.60995 0.08247 0.68296 0.0
H1056 H 0.43201 0.67121 0.19401 0.0
H1057 H 0.35449 0.7224 0.1994 0.0
H1058 H 0.32558 0.67875 0.19741 0.0
H1059 H 0.32217 0.62635 0.2029 0.0
H1060 H 0.39879 0.57419 0.19869 0.0
H1061 H 0.42815 0.61784 0.18969 0.0
C1062 C 0.4088 0.67279 0.19453 0.0
C1063 C 0.3955 0.70011 0.19773 0.0
C1064 C 0.39213 0.64745 0.19309 0.0
C1065 C 0.36536 0.70175 0.19737 0.0
C1066 C 0.34875 0.67677 0.19615 0.0
C1067 C 0.34528 0.62449 0.1988 0.0
C1068 C 0.35833 0.59716 0.20176 0.0
C1069 C 0.3619 0.64957 0.19507 0.0
C1070 C 0.38823 0.59499 0.19607 0.0
C1071 C 0.40502 0.61998 0.1917 0.0
H1072 H 0.38235 0.61191 0.78419 0.0
H1073 H 0.33565 0.69187 0.79862 0.0
H1074 H 0.29067 0.66526 0.80825 0.0
H1075 H 0.26445 0.61984 0.8042 0.0
H1076 H 0.31037 0.53967 0.78295 0.0
H1077 H 0.35593 0.56582 0.78358 0.0
C1078 C 0.36238 0.62336 0.791 0.0
C1079 C 0.36217 0.65369 0.79162 0.0
C1080 C 0.3365 0.60795 0.79386 0.0
C1081 C 0.33619 0.66849 0.79876 0.0
C1082 C 0.31052 0.6533 0.80371 0.0
C1083 C 0.28438 0.60796 0.79989 0.0
C1084 C 0.28393 0.57782 0.79314 0.0
C1085 C 0.31036 0.62311 0.79981 0.0
C1086 C 0.31005 0.56289 0.78769 0.0
C1087 C 0.33612 0.57781 0.78834 0.0
H1088 H 0.81169 0.34937 0.28417 0.0
H1089 H 0.88588 0.40459 0.29164 0.0
H1090 H 0.91723 0.36208 0.29829 0.0
H1091 H 0.92343 0.30892 0.2909 0.0
H1092 H 0.84782 0.25522 0.28037 0.0
H1093 H 0.81733 0.29742 0.28545 0.0
C1094 C 0.83471 0.35213 0.28825 0.0
C1095 C 0.84652 0.37994 0.28691 0.0
C1096 C 0.85243 0.32781 0.29036 0.0
C1097 C 0.8763 0.38332 0.29284 0.0
C1098 C 0.89422 0.35902 0.29594 0.0
C1099 C 0.9003 0.30649 0.29001 0.0
C1100 C 0.88809 0.27886 0.28433 0.0
C1101 C 0.88255 0.3311 0.29281 0.0
C1102 C 0.858 0.27612 0.28399 0.0
C1103 C 0.8404 0.30028 0.28709 0.0
H1104 H 0.1162 0.82951 0.8664 0.0
H1105 H 0.06262 0.9008 0.81948 0.0
H1106 H 0.10415 0.93311 0.82121 0.0
H1107 H 0.15709 0.93864 0.821 0.0
H1108 H 0.20982 0.86549 0.86367 0.0
H1109 H 0.16738 0.8365 0.87805 0.0
C1110 C 0.11347 0.85232 0.85806 0.0
C1111 C 0.08659 0.86269 0.84216 0.0
C1112 C 0.13751 0.87031 0.85679 0.0
C1113 C 0.08316 0.89232 0.83199 0.0
C1114 C 0.107 0.91069 0.83212 0.0
C1115 C 0.15923 0.91647 0.83395 0.0
C1116 C 0.18669 0.90414 0.83984 0.0
C1117 C 0.13454 0.89955 0.84186 0.0
C1118 C 0.18905 0.87547 0.85754 0.0
C1119 C 0.16476 0.8588 0.86616 0.0
H1120 H 0.62411 0.0869 0.31357 0.0
H1121 H 0.68422 0.13059 0.21306 0.0
H1122 H 0.65989 0.17607 0.22768 0.0
H1123 H 0.61982 0.2034 0.26396 0.0
H1124 H 0.56089 0.16164 0.36838 0.0
H1125 H 0.58638 0.11574 0.35729 0.0
C1126 C 0.63213 0.10643 0.29551 0.0
C1127 C 0.65579 0.105 0.26168 0.0
C1128 C 0.61803 0.13295 0.30421 0.0
C1129 C 0.66592 0.13071 0.23891 0.0
C1130 C 0.65197 0.1569 0.24705 0.0
C1131 C 0.61261 0.18424 0.28432 0.0
C1132 C 0.58834 0.18575 0.31628 0.0
C1133 C 0.62766 0.15818 0.27863 0.0
C1134 C 0.57952 0.16093 0.34333 0.0
C1135 C 0.59406 0.13469 0.33698 0.0
loop_
_geom_bond_atom_site_label_1
_geom_bond_atom_site_label_2
_geom_bond_distance
_geom_bond_site_symmetry_2
_ccdc_geom_bond_type
O0 Zn1 1.953 . S
O0 C16 1.225 . S
Zn1 O0 1.953 . S
Zn1 O2 1.949 . S
Zn1 O8 1.919 . S
Zn1 O13 1.924 . S
O2 Zn1 1.949 . S
O2 Zn3 1.923 . S
O2 Zn4 1.950 . S
O2 Zn5 1.945 . S
Zn3 O2 1.923 . S
Zn3 O6 1.933 . S
Zn3 O9 1.941 . S
Zn3 O10 1.965 . S
Zn4 O2 1.950 . S
Zn4 O11 1.938 . S
Zn4 O12 1.906 . S
Zn4 O22 1.953 . S
Zn5 O2 1.945 . S
Zn5 O7 1.932 . S
Zn5 O14 1.977 . S
Zn5 O15 1.910 . S
O6 Zn3 1.933 . S
O6 C17 1.226 . S
O7 Zn5 1.932 . S
O7 C17 1.307 . S
O8 Zn1 1.919 . S
O8 C19 1.253 . S
O9 Zn3 1.941 . S
O9 C19 1.283 . S
O10 Zn3 1.965 . S
O10 C18 1.303 . S
O11 Zn4 1.938 . S
O11 C18 1.247 . S
O12 Zn4 1.906 . S
O12 C20 1.304 . S
O13 Zn1 1.924 . S
O13 C21 1.311 . S
O14 Zn5 1.977 . S
O14 C20 1.272 . S
O15 Zn5 1.910 . S
O15 C21 1.231 . S
C16 O0 1.225 . S
C16 O22 1.298 . S
C17 O6 1.226 . S
C17 O7 1.307 . S
C18 O10 1.303 . S
C18 O11 1.247 . S
C19 O8 1.253 . S
C19 O9 1.283 . S
C20 O12 1.304 . S
C20 O14 1.272 . S
C21 O13 1.311 . S
C21 O15 1.231 . S
O22 Zn4 1.953 . S
O22 C16 1.298 . S
O23 Zn24 1.953 . S
O23 C39 1.225 . S
Zn24 O23 1.953 . S
Zn24 O25 1.949 . S
Zn24 O31 1.919 . S
Zn24 O36 1.924 . S
O25 Zn24 1.949 . S
O25 Zn26 1.923 . S
O25 Zn27 1.950 . S
O25 Zn28 1.945 . S
Zn26 O25 1.923 . S
Zn26 O29 1.931 1_655 S
Zn26 O32 1.941 . S
Zn26 O33 1.965 1_655 S
Zn27 O25 1.950 . S
Zn27 O34 1.938 1_655 S
Zn27 O35 1.906 1_655 S
Zn27 O45 1.953 . S
Zn28 O25 1.945 . S
Zn28 O30 1.932 . S
Zn28 O37 1.977 1_655 S
Zn28 O38 1.910 . S
O29 Zn26 1.931 1_455 S
O29 C40 1.227 . S
O30 Zn28 1.932 . S
O30 C40 1.307 1_655 S
O31 Zn24 1.919 . S
O31 C42 1.253 . S
O32 Zn26 1.941 . S
O32 C42 1.283 . S
O33 Zn26 1.965 1_455 S
O33 C41 1.303 . S
O34 Zn27 1.938 1_455 S
O34 C41 1.247 . S
O35 Zn27 1.906 1_455 S
O35 C43 1.304 . S
O36 Zn24 1.924 . S
O36 C44 1.311 . S
O37 Zn28 1.977 1_455 S
O37 C43 1.272 . S
O38 Zn28 1.910 . S
O38 C44 1.231 . S
C39 O23 1.225 . S
C39 O45 1.298 . S
C40 O29 1.227 . S
C40 O30 1.307 1_455 S
C41 O33 1.303 . S
C41 O34 1.247 . S
C42 O31 1.253 . S
C42 O32 1.283 . S
C43 O35 1.304 . S
C43 O37 1.272 . S
C44 O36 1.311 . S
C44 O38 1.231 . S
O45 Zn27 1.953 . S
O45 C39 1.298 . S
O46 Zn47 1.953 . S
O46 C62 1.225 . S
Zn47 O46 1.953 . S
Zn47 O48 1.949 . S
Zn47 O54 1.919 . S
Zn47 O59 1.924 . S
O48 Zn47 1.949 . S
O48 Zn49 1.923 . S
O48 Zn50 1.950 . S
O48 Zn51 1.945 . S
Zn49 O48 1.923 . S
Zn49 O52 1.925 1_565 S
Zn49 O55 1.941 . S
Zn49 O56 1.965 1_565 S
Zn50 O48 1.950 . S
Zn50 O57 1.938 1_565 S
Zn50 O58 1.906 1_565 S
Zn50 O68 1.953 . S
Zn51 O48 1.945 . S
Zn51 O53 1.932 . S
Zn51 O60 1.977 1_565 S
Zn51 O61 1.910 . S
O52 Zn49 1.925 1_545 S
O52 C63 1.228 . S
O53 Zn51 1.932 . S
O53 C63 1.307 1_565 S
O54 Zn47 1.919 . S
O54 C65 1.253 . S
O55 Zn49 1.941 . S
O55 C65 1.283 . S
O56 Zn49 1.965 1_545 S
O56 C64 1.303 . S
O57 Zn50 1.938 1_545 S
O57 C64 1.247 . S
O58 Zn50 1.906 1_545 S
O58 C66 1.304 . S
O59 Zn47 1.924 . S
O59 C67 1.311 . S
O60 Zn51 1.977 1_545 S
O60 C66 1.272 . S
O61 Zn51 1.910 . S
O61 C67 1.231 . S
C62 O46 1.225 . S
C62 O68 1.298 . S
C63 O52 1.228 . S
C63 O53 1.307 1_545 S
C64 O56 1.303 . S
C64 O57 1.247 . S
C65 O54 1.253 . S
C65 O55 1.283 . S
C66 O58 1.304 . S
C66 O60 1.272 . S
C67 O59 1.311 . S
C67 O61 1.231 . S
O68 Zn50 1.953 . S
O68 C62 1.298 . S
O69 Zn70 1.953 . S
O69 C85 1.225 . S
Zn70 O69 1.953 . S
Zn70 O71 1.949 . S
Zn70 O77 1.919 . S
Zn70 O82 1.924 . S
O71 Zn70 1.949 . S
O71 Zn72 1.923 . S
O71 Zn73 1.950 . S
O71 Zn74 1.945 . S
Zn72 O71 1.923 . S
Zn72 O75 1.933 . S
Zn72 O78 1.941 . S
Zn72 O79 1.965 . S
Zn73 O71 1.950 . S
Zn73 O80 1.938 . S
Zn73 O81 1.906 . S
Zn73 O91 1.953 . S
Zn74 O71 1.945 . S
Zn74 O76 1.932 . S
Zn74 O83 1.977 . S
Zn74 O84 1.910 . S
O75 Zn72 1.933 . S
O75 C86 1.226 . S
O76 Zn74 1.932 . S
O76 C86 1.307 . S
O77 Zn70 1.919 . S
O77 C88 1.253 . S
O78 Zn72 1.941 . S
O78 C88 1.283 . S
O79 Zn72 1.965 . S
O79 C87 1.303 . S
O80 Zn73 1.938 . S
O80 C87 1.247 . S
O81 Zn73 1.906 . S
O81 C89 1.304 . S
O82 Zn70 1.924 . S
O82 C90 1.311 . S
O83 Zn74 1.977 . S
O83 C89 1.272 . S
O84 Zn74 1.910 . S
O84 C90 1.231 . S
C85 O69 1.225 . S
C85 O91 1.298 . S
C86 O75 1.226 . S
C86 O76 1.307 . S
C87 O79 1.303 . S
C87 O80 1.247 . S
C88 O77 1.253 . S
C88 O78 1.283 . S
C89 O81 1.304 . S
C89 O83 1.272 . S
C90 O82 1.311 . S
C90 O84 1.231 . S
O91 Zn73 1.953 . S
O91 C85 1.298 . S
O92 Zn93 1.953 . S
O92 C108 1.225 . S
Zn93 O92 1.953 . S
Zn93 O94 1.949 . S
Zn93 O100 1.919 . S
Zn93 O105 1.924 . S
O94 Zn93 1.949 . S
O94 Zn95 1.923 . S
O94 Zn96 1.950 . S
O94 Zn97 1.945 . S
Zn95 O94 1.923 . S
Zn95 O98 1.933 . S
Zn95 O101 1.941 . S
Zn95 O102 1.965 . S
Zn96 O94 1.950 . S
Zn96 O103 1.938 . S
Zn96 O104 1.906 . S
Zn96 O114 1.953 . S
Zn97 O94 1.945 . S
Zn97 O99 1.932 . S
Zn97 O106 1.977 . S
Zn97 O107 1.910 . S
O98 Zn95 1.933 . S
O98 C109 1.226 . S
O99 Zn97 1.932 . S
O99 C109 1.307 . S
O100 Zn93 1.919 . S
O100 C111 1.253 . S
O101 Zn95 1.941 . S
O101 C111 1.283 . S
O102 Zn95 1.965 . S
O102 C110 1.303 . S
O103 Zn96 1.938 . S
O103 C110 1.247 . S
O104 Zn96 1.906 . S
O104 C112 1.304 . S
O105 Zn93 1.924 . S
O105 C113 1.311 . S
O106 Zn97 1.977 . S
O106 C112 1.272 . S
O107 Zn97 1.910 . S
O107 C113 1.231 . S
C108 O92 1.225 . S
C108 O114 1.298 . S
C109 O98 1.226 . S
C109 O99 1.307 . S
C110 O102 1.303 . S
C110 O103 1.247 . S
C111 O100 1.253 . S
C111 O101 1.283 . S
C112 O104 1.304 . S
C112 O106 1.272 . S
C113 O105 1.311 . S
C113 O107 1.231 . S
O114 Zn96 1.953 . S
O114 C108 1.298 . S
O115 Zn116 1.953 . S
O115 C131 1.225 . S
Zn116 O115 1.953 . S
Zn116 O117 1.949 . S
Zn116 O123 1.919 . S
Zn116 O128 1.924 . S
O117 Zn116 1.949 . S
O117 Zn118 1.923 . S
O117 Zn119 1.950 . S
O117 Zn120 1.945 . S
Zn118 O117 1.923 . S
Zn118 O121 1.922 1_455 S
Zn118 O124 1.941 . S
Zn118 O125 1.965 1_455 S
Zn119 O117 1.950 . S
Zn119 O126 1.938 1_455 S
Zn119 O127 1.906 1_455 S
Zn119 O137 1.953 . S
Zn120 O117 1.945 . S
Zn120 O122 1.932 . S
Zn120 O129 1.977 1_455 S
Zn120 O130 1.910 . S
O121 Zn118 1.922 1_655 S
O121 C132 1.228 . S
O122 Zn120 1.932 . S
O122 C132 1.307 1_455 S
O123 Zn116 1.919 . S
O123 C134 1.253 . S
O124 Zn118 1.941 . S
O124 C134 1.283 . S
O125 Zn118 1.965 1_655 S
O125 C133 1.303 . S
O126 Zn119 1.938 1_655 S
O126 C133 1.247 . S
O127 Zn119 1.906 1_655 S
O127 C135 1.304 . S
O128 Zn116 1.924 . S
O128 C136 1.311 . S
O129 Zn120 1.977 1_655 S
O129 C135 1.272 . S
O130 Zn120 1.910 . S
O130 C136 1.231 . S
C131 O115 1.225 . S
C131 O137 1.298 . S
C132 O121 1.228 . S
C132 O122 1.307 1_655 S
C133 O125 1.303 . S
C133 O126 1.247 . S
C134 O123 1.253 . S
C134 O124 1.283 . S
C135 O127 1.304 . S
C135 O129 1.272 . S
C136 O128 1.311 . S
C136 O130 1.231 . S
O137 Zn119 1.953 . S
O137 C131 1.298 . S
O138 Zn139 1.953 . S
O138 C154 1.225 . S
Zn139 O138 1.953 . S
Zn139 O140 1.949 . S
Zn139 O146 1.919 . S
Zn139 O151 1.924 . S
O140 Zn139 1.949 . S
O140 Zn141 1.923 . S
O140 Zn142 1.950 . S
O140 Zn143 1.945 . S
Zn141 O140 1.923 . S
Zn141 O144 1.930 1_545 S
Zn141 O147 1.941 . S
Zn141 O148 1.965 1_545 S
Zn142 O140 1.950 . S
Zn142 O149 1.938 1_545 S
Zn142 O150 1.906 1_545 S
Zn142 O160 1.953 . S
Zn143 O140 1.945 . S
Zn143 O145 1.932 . S
Zn143 O152 1.977 1_545 S
Zn143 O153 1.910 . S
O144 Zn141 1.930 1_565 S
O144 C155 1.227 . S
O145 Zn143 1.932 . S
O145 C155 1.307 1_545 S
O146 Zn139 1.919 . S
O146 C157 1.253 . S
O147 Zn141 1.941 . S
O147 C157 1.283 . S
O148 Zn141 1.965 1_565 S
O148 C156 1.303 . S
O149 Zn142 1.938 1_565 S
O149 C156 1.247 . S
O150 Zn142 1.906 1_565 S
O150 C158 1.304 . S
O151 Zn139 1.924 . S
O151 C159 1.311 . S
O152 Zn143 1.977 1_565 S
O152 C158 1.272 . S
O153 Zn143 1.910 . S
O153 C159 1.231 . S
C154 O138 1.225 . S
C154 O160 1.298 . S
C155 O144 1.227 . S
C155 O145 1.307 1_565 S
C156 O148 1.303 . S
C156 O149 1.247 . S
C157 O146 1.253 . S
C157 O147 1.283 . S
C158 O150 1.304 . S
C158 O152 1.272 . S
C159 O151 1.311 . S
C159 O153 1.231 . S
O160 Zn142 1.953 . S
O160 C154 1.298 . S
O161 Zn162 1.953 . S
O161 C177 1.225 . S
Zn162 O161 1.953 . S
Zn162 O163 1.949 . S
Zn162 O169 1.919 . S
Zn162 O174 1.924 . S
O163 Zn162 1.949 . S
O163 Zn164 1.923 . S
O163 Zn165 1.950 . S
O163 Zn166 1.945 . S
Zn164 O163 1.923 . S
Zn164 O167 1.933 . S
Zn164 O170 1.941 . S
Zn164 O171 1.965 . S
Zn165 O163 1.950 . S
Zn165 O172 1.938 . S
Zn165 O173 1.906 . S
Zn165 O183 1.953 . S
Zn166 O163 1.945 . S
Zn166 O168 1.932 . S
Zn166 O175 1.977 . S
Zn166 O176 1.910 . S
O167 Zn164 1.933 . S
O167 C178 1.226 . S
O168 Zn166 1.932 . S
O168 C178 1.307 . S
O169 Zn162 1.919 . S
O169 C180 1.253 . S
O170 Zn164 1.941 . S
O170 C180 1.283 . S
O171 Zn164 1.965 . S
O171 C179 1.303 . S
O172 Zn165 1.938 . S
O172 C179 1.247 . S
O173 Zn165 1.906 . S
O173 C181 1.304 . S
O174 Zn162 1.924 . S
O174 C182 1.311 . S
O175 Zn166 1.977 . S
O175 C181 1.272 . S
O176 Zn166 1.910 . S
O176 C182 1.231 . S
C177 O161 1.225 . S
C177 O183 1.298 . S
C178 O167 1.226 . S
C178 O168 1.307 . S
C179 O171 1.303 . S
C179 O172 1.247 . S
C180 O169 1.253 . S
C180 O170 1.283 . S
C181 O173 1.304 . S
C181 O175 1.272 . S
C182 O174 1.311 . S
C182 O176 1.231 . S
O183 Zn165 1.953 . S
O183 C177 1.298 . S
O184 Zn185 1.953 . S
O184 C200 1.225 . S
Zn185 O184 1.953 . S
Zn185 O186 1.949 . S
Zn185 O192 1.919 . S
Zn185 O197 1.924 . S
O186 Zn185 1.949 . S
O186 Zn187 1.923 . S
O186 Zn188 1.950 . S
O186 Zn189 1.945 . S
Zn187 O186 1.923 . S
Zn187 O190 1.933 . S
Zn187 O193 1.941 . S
Zn187 O194 1.965 . S
Zn188 O186 1.950 . S
Zn188 O195 1.938 . S
Zn188 O196 1.906 . S
Zn188 O206 1.953 . S
Zn189 O186 1.945 . S
Zn189 O191 1.932 . S
Zn189 O198 1.977 . S
Zn189 O199 1.910 . S
O190 Zn187 1.933 . S
O190 C201 1.226 . S
O191 Zn189 1.932 . S
O191 C201 1.307 . S
O192 Zn185 1.919 . S
O192 C203 1.253 . S
O193 Zn187 1.941 . S
O193 C203 1.283 . S
O194 Zn187 1.965 . S
O194 C202 1.303 . S
O195 Zn188 1.938 . S
O195 C202 1.247 . S
O196 Zn188 1.906 . S
O196 C204 1.304 . S
O197 Zn185 1.924 . S
O197 C205 1.311 . S
O198 Zn189 1.977 . S
O198 C204 1.272 . S
O199 Zn189 1.910 . S
O199 C205 1.231 . S
C200 O184 1.225 . S
C200 O206 1.298 . S
C201 O190 1.226 . S
C201 O191 1.307 . S
C202 O194 1.303 . S
C202 O195 1.247 . S
C203 O192 1.253 . S
C203 O193 1.283 . S
C204 O196 1.304 . S
C204 O198 1.272 . S
C205 O197 1.311 . S
C205 O199 1.231 . S
O206 Zn188 1.953 . S
O206 C200 1.298 . S
O207 Zn208 1.953 . S
O207 C223 1.225 . S
Zn208 O207 1.953 . S
Zn208 O209 1.949 . S
Zn208 O215 1.919 . S
Zn208 O220 1.924 . S
O209 Zn208 1.949 . S
O209 Zn210 1.923 . S
O209 Zn211 1.950 . S
O209 Zn212 1.945 . S
Zn210 O209 1.923 . S
Zn210 O213 1.926 1_455 S
Zn210 O216 1.941 . S
Zn210 O217 1.965 1_455 S
Zn211 O209 1.950 . S
Zn211 O218 1.938 1_455 S
Zn211 O219 1.906 1_455 S
Zn211 O229 1.953 . S
Zn212 O209 1.945 . S
Zn212 O214 1.932 . S
Zn212 O221 1.977 1_455 S
Zn212 O222 1.910 . S
O213 Zn210 1.926 1_655 S
O213 C224 1.227 . S
O214 Zn212 1.932 . S
O214 C224 1.307 1_455 S
O215 Zn208 1.919 . S
O215 C226 1.253 . S
O216 Zn210 1.941 . S
O216 C226 1.283 . S
O217 Zn210 1.965 1_655 S
O217 C225 1.303 . S
O218 Zn211 1.938 1_655 S
O218 C225 1.247 . S
O219 Zn211 1.906 1_655 S
O219 C227 1.304 . S
O220 Zn208 1.924 . S
O220 C228 1.311 . S
O221 Zn212 1.977 1_655 S
O221 C227 1.272 . S
O222 Zn212 1.910 . S
O222 C228 1.231 . S
C223 O207 1.225 . S
C223 O229 1.298 . S
C224 O213 1.227 . S
C224 O214 1.307 1_655 S
C225 O217 1.303 . S
C225 O218 1.247 . S
C226 O215 1.253 . S
C226 O216 1.283 . S
C227 O219 1.304 . S
C227 O221 1.272 . S
C228 O220 1.311 . S
C228 O222 1.231 . S
O229 Zn211 1.953 . S
O229 C223 1.298 . S
O230 Zn231 1.953 . S
O230 C246 1.225 . S
Zn231 O230 1.953 . S
Zn231 O232 1.949 . S
Zn231 O238 1.919 . S
Zn231 O243 1.924 . S
O232 Zn231 1.949 . S
O232 Zn233 1.923 . S
O232 Zn234 1.950 . S
O232 Zn235 1.945 . S
Zn233 O232 1.923 . S
Zn233 O236 1.933 1_545 S
Zn233 O239 1.941 . S
Zn233 O240 1.965 1_545 S
Zn234 O232 1.950 . S
Zn234 O241 1.938 1_545 S
Zn234 O242 1.906 1_545 S
Zn234 O252 1.953 . S
Zn235 O232 1.945 . S
Zn235 O237 1.932 . S
Zn235 O244 1.977 1_545 S
Zn235 O245 1.910 . S
O236 Zn233 1.933 1_565 S
O236 C247 1.226 . S
O237 Zn235 1.932 . S
O237 C247 1.307 1_545 S
O238 Zn231 1.919 . S
O238 C249 1.253 . S
O239 Zn233 1.941 . S
O239 C249 1.283 . S
O240 Zn233 1.965 1_565 S
O240 C248 1.303 . S
O241 Zn234 1.938 1_565 S
O241 C248 1.247 . S
O242 Zn234 1.906 1_565 S
O242 C250 1.304 . S
O243 Zn231 1.924 . S
O243 C251 1.311 . S
O244 Zn235 1.977 1_565 S
O244 C250 1.272 . S
O245 Zn235 1.910 . S
O245 C251 1.231 . S
C246 O230 1.225 . S
C246 O252 1.298 . S
C247 O236 1.226 . S
C247 O237 1.307 1_565 S
C248 O240 1.303 . S
C248 O241 1.247 . S
C249 O238 1.253 . S
C249 O239 1.283 . S
C250 O242 1.304 . S
C250 O244 1.272 . S
C251 O243 1.311 . S
C251 O245 1.231 . S
O252 Zn234 1.953 . S
O252 C246 1.298 . S
O253 Zn254 1.953 . S
O253 C269 1.225 . S
Zn254 O253 1.953 . S
Zn254 O255 1.949 . S
Zn254 O261 1.919 . S
Zn254 O266 1.924 . S
O255 Zn254 1.949 . S
O255 Zn256 1.923 . S
O255 Zn257 1.950 . S
O255 Zn258 1.945 . S
Zn256 O255 1.923 . S
Zn256 O259 1.933 . S
Zn256 O262 1.941 . S
Zn256 O263 1.965 . S
Zn257 O255 1.950 . S
Zn257 O264 1.938 . S
Zn257 O265 1.906 . S
Zn257 O275 1.953 . S
Zn258 O255 1.945 . S
Zn258 O260 1.932 . S
Zn258 O267 1.977 . S
Zn258 O268 1.910 . S
O259 Zn256 1.933 . S
O259 C270 1.226 . S
O260 Zn258 1.932 . S
O260 C270 1.307 . S
O261 Zn254 1.919 . S
O261 C272 1.253 . S
O262 Zn256 1.941 . S
O262 C272 1.283 . S
O263 Zn256 1.965 . S
O263 C271 1.303 . S
O264 Zn257 1.938 . S
O264 C271 1.247 . S
O265 Zn257 1.906 . S
O265 C273 1.304 . S
O266 Zn254 1.924 . S
O266 C274 1.311 . S
O267 Zn258 1.977 . S
O267 C273 1.272 . S
O268 Zn258 1.910 . S
O268 C274 1.231 . S
C269 O253 1.225 . S
C269 O275 1.298 . S
C270 O259 1.226 . S
C270 O260 1.307 . S
C271 O263 1.303 . S
C271 O264 1.247 . S
C272 O261 1.253 . S
C272 O262 1.283 . S
C273 O265 1.304 . S
C273 O267 1.272 . S
C274 O266 1.311 . S
C274 O268 1.231 . S
O275 Zn257 1.953 . S
O275 C269 1.298 . S
O276 Zn277 1.953 . S
O276 C292 1.225 . S
Zn277 O276 1.953 . S
Zn277 O278 1.949 . S
Zn277 O284 1.919 . S
Zn277 O289 1.924 . S
O278 Zn277 1.949 . S
O278 Zn279 1.923 . S
O278 Zn280 1.950 . S
O278 Zn281 1.945 . S
Zn279 O278 1.923 . S
Zn279 O282 1.933 . S
Zn279 O285 1.941 . S
Zn279 O286 1.965 . S
Zn280 O278 1.950 . S
Zn280 O287 1.938 . S
Zn280 O288 1.906 . S
Zn280 O298 1.953 . S
Zn281 O278 1.945 . S
Zn281 O283 1.932 . S
Zn281 O290 1.977 . S
Zn281 O291 1.910 . S
O282 Zn279 1.933 . S
O282 C293 1.226 . S
O283 Zn281 1.932 . S
O283 C293 1.307 . S
O284 Zn277 1.919 . S
O284 C295 1.253 . S
O285 Zn279 1.941 . S
O285 C295 1.283 . S
O286 Zn279 1.965 . S
O286 C294 1.303 . S
O287 Zn280 1.938 . S
O287 C294 1.247 . S
O288 Zn280 1.906 . S
O288 C296 1.304 . S
O289 Zn277 1.924 . S
O289 C297 1.311 . S
O290 Zn281 1.977 . S
O290 C296 1.272 . S
O291 Zn281 1.910 . S
O291 C297 1.231 . S
C292 O276 1.225 . S
C292 O298 1.298 . S
C293 O282 1.226 . S
C293 O283 1.307 . S
C294 O286 1.303 . S
C294 O287 1.247 . S
C295 O284 1.253 . S
C295 O285 1.283 . S
C296 O288 1.304 . S
C296 O290 1.272 . S
C297 O289 1.311 . S
C297 O291 1.231 . S
O298 Zn280 1.953 . S
O298 C292 1.298 . S
O299 Zn300 1.953 . S
O299 C315 1.225 . S
Zn300 O299 1.953 . S
Zn300 O301 1.949 . S
Zn300 O307 1.919 . S
Zn300 O312 1.924 . S
O301 Zn300 1.949 . S
O301 Zn302 1.923 . S
O301 Zn303 1.950 . S
O301 Zn304 1.945 . S
Zn302 O301 1.923 . S
Zn302 O305 1.929 1_655 S
Zn302 O308 1.941 . S
Zn302 O309 1.965 1_655 S
Zn303 O301 1.950 . S
Zn303 O310 1.938 1_655 S
Zn303 O311 1.906 1_655 S
Zn303 O321 1.953 . S
Zn304 O301 1.945 . S
Zn304 O306 1.932 . S
Zn304 O313 1.977 1_655 S
Zn304 O314 1.910 . S
O305 Zn302 1.929 1_455 S
O305 C316 1.227 . S
O306 Zn304 1.932 . S
O306 C316 1.307 1_655 S
O307 Zn300 1.919 . S
O307 C318 1.253 . S
O308 Zn302 1.941 . S
O308 C318 1.283 . S
O309 Zn302 1.965 1_455 S
O309 C317 1.303 . S
O310 Zn303 1.938 1_455 S
O310 C317 1.247 . S
O311 Zn303 1.906 1_455 S
O311 C319 1.304 . S
O312 Zn300 1.924 . S
O312 C320 1.311 . S
O313 Zn304 1.977 1_455 S
O313 C319 1.272 . S
O314 Zn304 1.910 . S
O314 C320 1.231 . S
C315 O299 1.225 . S
C315 O321 1.298 . S
C316 O305 1.227 . S
C316 O306 1.307 1_455 S
C317 O309 1.303 . S
C317 O310 1.247 . S
C318 O307 1.253 . S
C318 O308 1.283 . S
C319 O311 1.304 . S
C319 O313 1.272 . S
C320 O312 1.311 . S
C320 O314 1.231 . S
O321 Zn303 1.953 . S
O321 C315 1.298 . S
O322 Zn323 1.953 . S
O322 C338 1.225 . S
Zn323 O322 1.953 . S
Zn323 O324 1.949 . S
Zn323 O330 1.919 . S
Zn323 O335 1.924 . S
O324 Zn323 1.949 . S
O324 Zn325 1.923 . S
O324 Zn326 1.950 . S
O324 Zn327 1.945 . S
Zn325 O324 1.923 . S
Zn325 O328 1.924 1_565 S
Zn325 O331 1.941 . S
Zn325 O332 1.965 1_565 S
Zn326 O324 1.950 . S
Zn326 O333 1.938 1_565 S
Zn326 O334 1.906 1_565 S
Zn326 O344 1.953 . S
Zn327 O324 1.945 . S
Zn327 O329 1.932 . S
Zn327 O336 1.977 1_565 S
Zn327 O337 1.910 . S
O328 Zn325 1.924 1_545 S
O328 C339 1.228 . S
O329 Zn327 1.932 . S
O329 C339 1.307 1_565 S
O330 Zn323 1.919 . S
O330 C341 1.253 . S
O331 Zn325 1.941 . S
O331 C341 1.283 . S
O332 Zn325 1.965 1_545 S
O332 C340 1.303 . S
O333 Zn326 1.938 1_545 S
O333 C340 1.247 . S
O334 Zn326 1.906 1_545 S
O334 C342 1.304 . S
O335 Zn323 1.924 . S
O335 C343 1.311 . S
O336 Zn327 1.977 1_545 S
O336 C342 1.272 . S
O337 Zn327 1.910 . S
O337 C343 1.231 . S
C338 O322 1.225 . S
C338 O344 1.298 . S
C339 O328 1.228 . S
C339 O329 1.307 1_545 S
C340 O332 1.303 . S
C340 O333 1.247 . S
C341 O330 1.253 . S
C341 O331 1.283 . S
C342 O334 1.304 . S
C342 O336 1.272 . S
C343 O335 1.311 . S
C343 O337 1.231 . S
O344 Zn326 1.953 . S
O344 C338 1.298 . S
O345 Zn346 1.953 . S
O345 C361 1.225 . S
Zn346 O345 1.953 . S
Zn346 O347 1.949 . S
Zn346 O353 1.919 . S
Zn346 O358 1.924 . S
O347 Zn346 1.949 . S
O347 Zn348 1.923 . S
O347 Zn349 1.950 . S
O347 Zn350 1.945 . S
Zn348 O347 1.923 . S
Zn348 O351 1.933 . S
Zn348 O354 1.941 . S
Zn348 O355 1.965 . S
Zn349 O347 1.950 . S
Zn349 O356 1.938 . S
Zn349 O357 1.906 . S
Zn349 O367 1.953 . S
Zn350 O347 1.945 . S
Zn350 O352 1.932 . S
Zn350 O359 1.977 . S
Zn350 O360 1.910 . S
O351 Zn348 1.933 . S
O351 C362 1.226 . S
O352 Zn350 1.932 . S
O352 C362 1.307 . S
O353 Zn346 1.919 . S
O353 C364 1.253 . S
O354 Zn348 1.941 . S
O354 C364 1.283 . S
O355 Zn348 1.965 . S
O355 C363 1.303 . S
O356 Zn349 1.938 . S
O356 C363 1.247 . S
O357 Zn349 1.906 . S
O357 C365 1.304 . S
O358 Zn346 1.924 . S
O358 C366 1.311 . S
O359 Zn350 1.977 . S
O359 C365 1.272 . S
O360 Zn350 1.910 . S
O360 C366 1.231 . S
C361 O345 1.225 . S
C361 O367 1.298 . S
C362 O351 1.226 . S
C362 O352 1.307 . S
C363 O355 1.303 . S
C363 O356 1.247 . S
C364 O353 1.253 . S
C364 O354 1.283 . S
C365 O357 1.304 . S
C365 O359 1.272 . S
C366 O358 1.311 . S
C366 O360 1.231 . S
O367 Zn349 1.953 . S
O367 C361 1.298 . S
H368 C374 0.930 . S
H369 C377 0.930 . S
H370 C378 0.930 . S
H371 C379 0.930 . S
H372 C382 0.930 . S
H373 C383 0.930 . S
C374 H368 0.930 . S
C374 C375 1.355 . S
C374 C376 1.415 . S
C375 C374 1.355 . S
C375 C377 1.419 . S
C376 C374 1.415 . S
C376 C381 1.425 . S
C376 C383 1.409 . S
C377 H369 0.930 . S
C377 C375 1.419 . S
C377 C378 1.362 . S
C378 H370 0.930 . S
C378 C377 1.362 . S
C378 C381 1.409 . S
C379 H371 0.930 . S
C379 C380 1.355 . S
C379 C381 1.415 . S
C380 C379 1.355 . S
C380 C382 1.419 . S
C381 C376 1.425 . S
C381 C378 1.409 . S
C381 C379 1.415 . S
C382 H372 0.930 . S
C382 C380 1.419 . S
C382 C383 1.362 . S
C383 H373 0.930 . S
C383 C376 1.409 . S
C383 C382 1.362 . S
H384 C390 0.930 . S
H385 C393 0.930 . S
H386 C394 0.930 . S
H387 C395 0.930 . S
H388 C398 0.930 . S
H389 C399 0.930 . S
C390 H384 0.930 . S
C390 C391 1.355 . S
C390 C392 1.415 . S
C391 C390 1.355 . S
C391 C393 1.419 . S
C392 C390 1.415 . S
C392 C397 1.425 1_554 S
C392 C399 1.409 1_554 S
C393 H385 0.930 . S
C393 C391 1.419 . S
C393 C394 1.362 . S
C394 H386 0.930 . S
C394 C393 1.362 . S
C394 C397 1.409 1_554 S
C395 H387 0.930 . S
C395 C396 1.355 . S
C395 C397 1.415 . S
C396 C395 1.355 . S
C396 C398 1.419 . S
C397 C392 1.425 1_556 S
C397 C394 1.409 1_556 S
C397 C395 1.415 . S
C398 H388 0.930 . S
C398 C396 1.419 . S
C398 C399 1.362 . S
C399 H389 0.930 . S
C399 C392 1.409 1_556 S
C399 C398 1.362 . S
H400 C406 0.930 . S
H401 C409 0.930 . S
H402 C410 0.930 . S
H403 C411 0.930 . S
H404 C414 0.930 . S
H405 C415 0.930 . S
C406 H400 0.930 . S
C406 C407 1.355 . S
C406 C408 1.415 . S
C407 C406 1.355 . S
C407 C409 1.419 . S
C408 C406 1.415 . S
C408 C413 1.425 . S
C408 C415 1.409 . S
C409 H401 0.930 . S
C409 C407 1.419 . S
C409 C410 1.362 . S
C410 H402 0.930 . S
C410 C409 1.362 . S
C410 C413 1.409 . S
C411 H403 0.930 . S
C411 C412 1.355 . S
C411 C413 1.415 . S
C412 C411 1.355 . S
C412 C414 1.419 . S
C413 C408 1.425 . S
C413 C410 1.409 . S
C413 C411 1.415 . S
C414 H404 0.930 . S
C414 C412 1.419 . S
C414 C415 1.362 . S
C415 H405 0.930 . S
C415 C408 1.409 . S
C415 C414 1.362 . S
H416 C422 0.930 1_554 S
H417 C425 0.930 . S
H418 C426 0.930 . S
H419 C427 0.930 1_556 S
H420 C430 0.930 . S
H421 C431 0.930 . S
C422 H416 0.930 1_556 S
C422 C423 1.355 . S
C422 C424 1.415 1_556 S
C423 C422 1.355 . S
C423 C425 1.419 . S
C424 C422 1.415 1_554 S
C424 C429 1.425 1_554 S
C424 C431 1.409 . S
C425 H417 0.930 . S
C425 C423 1.419 . S
C425 C426 1.362 . S
C426 H418 0.930 . S
C426 C425 1.362 . S
C426 C429 1.409 . S
C427 H419 0.930 1_554 S
C427 C428 1.355 . S
C427 C429 1.415 1_554 S
C428 C427 1.355 . S
C428 C430 1.419 . S
C429 C424 1.425 1_556 S
C429 C426 1.409 . S
C429 C427 1.415 1_556 S
C430 H420 0.930 . S
C430 C428 1.419 . S
C430 C431 1.362 . S
C431 H421 0.930 . S
C431 C424 1.409 . S
C431 C430 1.362 . S
H432 C438 0.930 . S
H433 C441 0.930 . S
H434 C442 0.930 . S
H435 C443 0.930 . S
H436 C446 0.930 . S
H437 C447 0.930 . S
C438 H432 0.930 . S
C438 C439 1.355 . S
C438 C440 1.415 . S
C439 C438 1.355 . S
C439 C441 1.419 . S
C440 C438 1.415 . S
C440 C445 1.425 . S
C440 C447 1.409 . S
C441 H433 0.930 . S
C441 C439 1.419 . S
C441 C442 1.362 . S
C442 H434 0.930 . S
C442 C441 1.362 . S
C442 C445 1.409 . S
C443 H435 0.930 . S
C443 C444 1.355 . S
C443 C445 1.415 . S
C444 C443 1.355 . S
C444 C446 1.419 . S
C445 C440 1.425 . S
C445 C442 1.409 . S
C445 C443 1.415 . S
C446 H436 0.930 . S
C446 C444 1.419 . S
C446 C447 1.362 . S
C447 H437 0.930 . S
C447 C440 1.409 . S
C447 C446 1.362 . S
H448 C454 0.930 . S
H449 C457 0.930 . S
H450 C458 0.930 . S
H451 C459 0.930 . S
H452 C462 0.930 . S
H453 C463 0.930 . S
C454 H448 0.930 . S
C454 C455 1.355 . S
C454 C456 1.415 . S
C455 C454 1.355 . S
C455 C457 1.419 1_556 S
C456 C454 1.415 . S
C456 C461 1.425 1_556 S
C456 C463 1.409 . S
C457 H449 0.930 . S
C457 C455 1.419 1_554 S
C457 C458 1.362 . S
C458 H450 0.930 . S
C458 C457 1.362 . S
C458 C461 1.409 . S
C459 H451 0.930 . S
C459 C460 1.355 . S
C459 C461 1.415 . S
C460 C459 1.355 . S
C460 C462 1.419 1_554 S
C461 C456 1.425 1_554 S
C461 C458 1.409 . S
C461 C459 1.415 . S
C462 H452 0.930 . S
C462 C460 1.419 1_556 S
C462 C463 1.362 . S
C463 H453 0.930 . S
C463 C456 1.409 . S
C463 C462 1.362 . S
H464 C470 0.930 . S
H465 C473 0.930 . S
H466 C474 0.930 . S
H467 C475 0.930 . S
H468 C478 0.930 . S
H469 C479 0.930 . S
C470 H464 0.930 . S
C470 C471 1.355 . S
C470 C472 1.415 . S
C471 C470 1.355 . S
C471 C473 1.419 . S
C472 C470 1.415 . S
C472 C477 1.425 . S
C472 C479 1.409 . S
C473 H465 0.930 . S
C473 C471 1.419 . S
C473 C474 1.362 . S
C474 H466 0.930 . S
C474 C473 1.362 . S
C474 C477 1.409 . S
C475 H467 0.930 . S
C475 C476 1.355 . S
C475 C477 1.415 . S
C476 C475 1.355 . S
C476 C478 1.419 . S
C477 C472 1.425 . S
C477 C474 1.409 . S
C477 C475 1.415 . S
C478 H468 0.930 . S
C478 C476 1.419 . S
C478 C479 1.362 . S
C479 H469 0.930 . S
C479 C472 1.409 . S
C479 C478 1.362 . S
H480 C486 0.930 . S
H481 C489 0.930 . S
H482 C490 0.930 1_554 S
H483 C491 0.930 . S
H484 C494 0.930 . S
H485 C495 0.930 1_556 S
C486 H480 0.930 . S
C486 C487 1.355 . S
C486 C488 1.415 . S
C487 C486 1.355 . S
C487 C489 1.419 . S
C488 C486 1.415 . S
C488 C493 1.425 1_556 S
C488 C495 1.409 1_556 S
C489 H481 0.930 . S
C489 C487 1.419 . S
C489 C490 1.362 . S
C490 H482 0.930 1_556 S
C490 C489 1.362 . S
C490 C493 1.409 1_556 S
C491 H483 0.930 . S
C491 C492 1.355 . S
C491 C493 1.415 . S
C492 C491 1.355 . S
C492 C494 1.419 . S
C493 C488 1.425 1_554 S
C493 C490 1.409 1_554 S
C493 C491 1.415 . S
C494 H484 0.930 . S
C494 C492 1.419 . S
C494 C495 1.362 . S
C495 H485 0.930 1_554 S
C495 C488 1.409 1_554 S
C495 C494 1.362 . S
H496 C502 0.930 . S
H497 C505 0.930 . S
H498 C506 0.930 . S
H499 C507 0.930 . S
H500 C510 0.930 . S
H501 C511 0.930 . S
C502 H496 0.930 . S
C502 C503 1.355 . S
C502 C504 1.415 . S
C503 C502 1.355 . S
C503 C505 1.419 . S
C504 C502 1.415 . S
C504 C509 1.425 . S
C504 C511 1.409 . S
C505 H497 0.930 . S
C505 C503 1.419 . S
C505 C506 1.362 . S
C506 H498 0.930 . S
C506 C505 1.362 . S
C506 C509 1.409 . S
C507 H499 0.930 . S
C507 C508 1.355 . S
C507 C509 1.415 . S
C508 C507 1.355 . S
C508 C510 1.419 . S
C509 C504 1.425 . S
C509 C506 1.409 . S
C509 C507 1.415 . S
C510 H500 0.930 . S
C510 C508 1.419 . S
C510 C511 1.362 . S
C511 H501 0.930 . S
C511 C504 1.409 . S
C511 C510 1.362 . S
H512 C518 0.930 . S
H513 C521 0.930 . S
H514 C522 0.930 . S
H515 C523 0.930 . S
H516 C526 0.930 . S
H517 C527 0.930 . S
C518 H512 0.930 . S
C518 C519 1.355 . S
C518 C520 1.415 . S
C519 C518 1.355 . S
C519 C521 1.419 . S
C520 C518 1.415 . S
C520 C525 1.425 . S
C520 C527 1.409 . S
C521 H513 0.930 . S
C521 C519 1.419 . S
C521 C522 1.362 . S
C522 H514 0.930 . S
C522 C521 1.362 . S
C522 C525 1.409 . S
C523 H515 0.930 . S
C523 C524 1.355 . S
C523 C525 1.415 . S
C524 C523 1.355 . S
C524 C526 1.419 . S
C525 C520 1.425 . S
C525 C522 1.409 . S
C525 C523 1.415 . S
C526 H516 0.930 . S
C526 C524 1.419 . S
C526 C527 1.362 . S
C527 H517 0.930 . S
C527 C520 1.409 . S
C527 C526 1.362 . S
H528 C534 0.930 . S
H529 C537 0.930 . S
H530 C538 0.930 . S
H531 C539 0.930 . S
H532 C542 0.930 . S
H533 C543 0.930 . S
C534 H528 0.930 . S
C534 C535 1.355 . S
C534 C536 1.415 . S
C535 C534 1.355 . S
C535 C537 1.419 . S
C536 C534 1.415 . S
C536 C541 1.425 . S
C536 C543 1.409 . S
C537 H529 0.930 . S
C537 C535 1.419 . S
C537 C538 1.362 . S
C538 H530 0.930 . S
C538 C537 1.362 . S
C538 C541 1.409 . S
C539 H531 0.930 . S
C539 C540 1.355 . S
C539 C541 1.415 . S
C540 C539 1.355 . S
C540 C542 1.419 . S
C541 C536 1.425 . S
C541 C538 1.409 . S
C541 C539 1.415 . S
C542 H532 0.930 . S
C542 C540 1.419 . S
C542 C543 1.362 . S
C543 H533 0.930 . S
C543 C536 1.409 . S
C543 C542 1.362 . S
H544 C550 0.930 . S
H545 C553 0.930 . S
H546 C554 0.930 . S
H547 C555 0.930 . S
H548 C558 0.930 . S
H549 C559 0.930 . S
C550 H544 0.930 . S
C550 C551 1.355 . S
C550 C552 1.415 . S
C551 C550 1.355 . S
C551 C553 1.419 . S
C552 C550 1.415 . S
C552 C557 1.425 . S
C552 C559 1.409 . S
C553 H545 0.930 . S
C553 C551 1.419 . S
C553 C554 1.362 . S
C554 H546 0.930 . S
C554 C553 1.362 . S
C554 C557 1.409 . S
C555 H547 0.930 . S
C555 C556 1.355 . S
C555 C557 1.415 . S
C556 C555 1.355 . S
C556 C558 1.419 . S
C557 C552 1.425 . S
C557 C554 1.409 . S
C557 C555 1.415 . S
C558 H548 0.930 . S
C558 C556 1.419 . S
C558 C559 1.362 . S
C559 H549 0.930 . S
C559 C552 1.409 . S
C559 C558 1.362 . S
H560 C566 0.930 . S
H561 C569 0.930 . S
H562 C570 0.930 . S
H563 C571 0.930 . S
H564 C574 0.930 . S
H565 C575 0.930 . S
C566 H560 0.930 . S
C566 C567 1.355 . S
C566 C568 1.415 . S
C567 C566 1.355 . S
C567 C569 1.419 . S
C568 C566 1.415 . S
C568 C573 1.425 . S
C568 C575 1.409 . S
C569 H561 0.930 . S
C569 C567 1.419 . S
C569 C570 1.362 . S
C570 H562 0.930 . S
C570 C569 1.362 . S
C570 C573 1.409 . S
C571 H563 0.930 . S
C571 C572 1.355 . S
C571 C573 1.415 . S
C572 C571 1.355 . S
C572 C574 1.419 . S
C573 C568 1.425 . S
C573 C570 1.409 . S
C573 C571 1.415 . S
C574 H564 0.930 . S
C574 C572 1.419 . S
C574 C575 1.362 . S
C575 H565 0.930 . S
C575 C568 1.409 . S
C575 C574 1.362 . S
H576 C582 0.930 . S
H577 C585 0.930 . S
H578 C586 0.930 . S
H579 C587 0.930 . S
H580 C590 0.930 . S
H581 C591 0.930 . S
C582 H576 0.930 . S
C582 C583 1.355 . S
C582 C584 1.415 . S
C583 C582 1.355 . S
C583 C585 1.419 . S
C584 C582 1.415 . S
C584 C589 1.425 . S
C584 C591 1.409 . S
C585 H577 0.930 . S
C585 C583 1.419 . S
C585 C586 1.362 . S
C586 H578 0.930 . S
C586 C585 1.362 . S
C586 C589 1.409 . S
C587 H579 0.930 . S
C587 C588 1.355 . S
C587 C589 1.415 . S
C588 C587 1.355 . S
C588 C590 1.419 . S
C589 C584 1.425 . S
C589 C586 1.409 . S
C589 C587 1.415 . S
C590 H580 0.930 . S
C590 C588 1.419 . S
C590 C591 1.362 . S
C591 H581 0.930 . S
C591 C584 1.409 . S
C591 C590 1.362 . S
H592 C598 0.930 . S
H593 C601 0.930 . S
H594 C602 0.930 . S
H595 C603 0.930 . S
H596 C606 0.930 . S
H597 C607 0.930 . S
C598 H592 0.930 . S
C598 C599 1.355 . S
C598 C600 1.415 . S
C599 C598 1.355 . S
C599 C601 1.419 . S
C600 C598 1.415 . S
C600 C605 1.425 . S
C600 C607 1.409 . S
C601 H593 0.930 . S
C601 C599 1.419 . S
C601 C602 1.362 . S
C602 H594 0.930 . S
C602 C601 1.362 . S
C602 C605 1.409 . S
C603 H595 0.930 . S
C603 C604 1.355 . S
C603 C605 1.415 . S
C604 C603 1.355 . S
C604 C606 1.419 . S
C605 C600 1.425 . S
C605 C602 1.409 . S
C605 C603 1.415 . S
C606 H596 0.930 . S
C606 C604 1.419 . S
C606 C607 1.362 . S
C607 H597 0.930 . S
C607 C600 1.409 . S
C607 C606 1.362 . S
H608 C614 0.930 . S
H609 C617 0.930 . S
H610 C618 0.930 . S
H611 C619 0.930 . S
H612 C622 0.930 . S
H613 C623 0.930 . S
C614 H608 0.930 . S
C614 C615 1.355 . S
C614 C616 1.415 . S
C615 C614 1.355 . S
C615 C617 1.419 . S
C616 C614 1.415 . S
C616 C621 1.425 . S
C616 C623 1.409 . S
C617 H609 0.930 . S
C617 C615 1.419 . S
C617 C618 1.362 . S
C618 H610 0.930 . S
C618 C617 1.362 . S
C618 C621 1.409 . S
C619 H611 0.930 . S
C619 C620 1.355 . S
C619 C621 1.415 . S
C620 C619 1.355 . S
C620 C622 1.419 . S
C621 C616 1.425 . S
C621 C618 1.409 . S
C621 C619 1.415 . S
C622 H612 0.930 . S
C622 C620 1.419 . S
C622 C623 1.362 . S
C623 H613 0.930 . S
C623 C616 1.409 . S
C623 C622 1.362 . S
H624 C630 0.933 . S
H625 C633 0.930 . S
H626 C634 0.930 . S
H627 C635 0.930 . S
H628 C638 0.930 . S
H629 C639 0.930 . S
C630 H624 0.933 . S
C630 C631 1.370 . S
C630 C632 1.396 1_556 S
C631 C630 1.370 . S
C631 C633 1.419 . S
C632 C630 1.396 1_554 S
C632 C637 1.425 . S
C632 C639 1.409 . S
C633 H625 0.930 . S
C633 C631 1.419 . S
C633 C634 1.362 1_556 S
C634 H626 0.930 . S
C634 C633 1.362 1_554 S
C634 C637 1.409 . S
C635 H627 0.930 . S
C635 C636 1.355 . S
C635 C637 1.415 . S
C636 C635 1.355 . S
C636 C638 1.419 . S
C637 C632 1.425 . S
C637 C634 1.409 . S
C637 C635 1.415 . S
C638 H628 0.930 . S
C638 C636 1.419 . S
C638 C639 1.362 . S
C639 H629 0.930 . S
C639 C632 1.409 . S
C639 C638 1.362 . S
H640 C646 0.930 . S
H641 C649 0.930 . S
H642 C650 0.930 . S
H643 C651 0.930 . S
H644 C654 0.930 . S
H645 C655 0.930 . S
C646 H640 0.930 . S
C646 C647 1.355 . S
C646 C648 1.415 . S
C647 C646 1.355 . S
C647 C649 1.419 1_455 S
C648 C646 1.415 . S
C648 C653 1.425 1_455 S
C648 C655 1.409 . S
C649 H641 0.930 . S
C649 C647 1.419 1_655 S
C649 C650 1.362 . S
C650 H642 0.930 . S
C650 C649 1.362 . S
C650 C653 1.409 . S
C651 H643 0.930 . S
C651 C652 1.355 1_655 S
C651 C653 1.415 . S
C652 C651 1.355 1_455 S
C652 C654 1.419 . S
C653 C648 1.425 1_655 S
C653 C650 1.409 . S
C653 C651 1.415 . S
C654 H644 0.930 . S
C654 C652 1.419 . S
C654 C655 1.362 . S
C655 H645 0.930 . S
C655 C648 1.409 . S
C655 C654 1.362 . S
H656 C662 0.930 . S
H657 C665 0.930 . S
H658 C666 0.930 . S
H659 C667 0.930 . S
H660 C670 0.930 . S
H661 C671 0.930 . S
C662 H656 0.930 . S
C662 C663 1.355 1_565 S
C662 C664 1.415 1_566 S
C663 C662 1.355 1_545 S
C663 C665 1.419 . S
C664 C662 1.415 1_544 S
C664 C669 1.426 . S
C664 C671 1.408 1_545 S
C665 H657 0.930 . S
C665 C663 1.419 . S
C665 C666 1.362 1_556 S
C666 H658 0.930 . S
C666 C665 1.362 1_554 S
C666 C669 1.409 . S
C667 H659 0.930 . S
C667 C668 1.355 . S
C667 C669 1.415 . S
C668 C667 1.355 . S
C668 C670 1.419 1_545 S
C669 C664 1.426 . S
C669 C666 1.409 . S
C669 C667 1.415 . S
C670 H660 0.930 . S
C670 C668 1.419 1_565 S
C670 C671 1.362 . S
C671 H661 0.930 . S
C671 C664 1.408 1_565 S
C671 C670 1.362 . S
H672 C678 0.930 . S
H673 C681 0.930 . S
H674 C682 0.930 . S
H675 C683 0.930 . S
H676 C686 0.930 . S
H677 C687 0.930 . S
C678 H672 0.930 . S
C678 C679 1.355 . S
C678 C680 1.415 . S
C679 C678 1.355 . S
C679 C681 1.419 . S
C680 C678 1.415 . S
C680 C685 1.425 . S
C680 C687 1.409 . S
C681 H673 0.930 . S
C681 C679 1.419 . S
C681 C682 1.362 . S
C682 H674 0.930 . S
C682 C681 1.362 . S
C682 C685 1.409 . S
C683 H675 0.930 . S
C683 C684 1.355 . S
C683 C685 1.415 . S
C684 C683 1.355 . S
C684 C686 1.419 . S
C685 C680 1.425 . S
C685 C682 1.409 . S
C685 C683 1.415 . S
C686 H676 0.930 . S
C686 C684 1.419 . S
C686 C687 1.362 . S
C687 H677 0.930 . S
C687 C680 1.409 . S
C687 C686 1.362 . S
H688 C694 0.930 . S
H689 C697 0.930 . S
H690 C698 0.930 . S
H691 C699 0.930 . S
H692 C702 0.930 . S
H693 C703 0.930 . S
C694 H688 0.930 . S
C694 C695 1.355 . S
C694 C696 1.415 . S
C695 C694 1.355 . S
C695 C697 1.419 . S
C696 C694 1.415 . S
C696 C701 1.425 . S
C696 C703 1.409 . S
C697 H689 0.930 . S
C697 C695 1.419 . S
C697 C698 1.362 . S
C698 H690 0.930 . S
C698 C697 1.362 . S
C698 C701 1.409 . S
C699 H691 0.930 . S
C699 C700 1.355 . S
C699 C701 1.415 . S
C700 C699 1.355 . S
C700 C702 1.419 . S
C701 C696 1.425 . S
C701 C698 1.409 . S
C701 C699 1.415 . S
C702 H692 0.930 . S
C702 C700 1.419 . S
C702 C703 1.362 . S
C703 H693 0.930 . S
C703 C696 1.409 . S
C703 C702 1.362 . S
H704 C710 0.930 . S
H705 C713 0.930 . S
H706 C714 0.930 . S
H707 C715 0.930 . S
H708 C718 0.930 . S
H709 C719 0.930 . S
C710 H704 0.930 . S
C710 C711 1.355 1_455 S
C710 C712 1.415 . S
C711 C710 1.355 1_655 S
C711 C713 1.419 . S
C712 C710 1.415 . S
C712 C717 1.425 1_455 S
C712 C719 1.409 . S
C713 H705 0.930 . S
C713 C711 1.419 . S
C713 C714 1.362 . S
C714 H706 0.930 . S
C714 C713 1.362 . S
C714 C717 1.409 . S
C715 H707 0.930 . S
C715 C716 1.355 . S
C715 C717 1.415 1_554 S
C716 C715 1.355 . S
C716 C718 1.419 1_655 S
C717 C712 1.425 1_655 S
C717 C714 1.409 . S
C717 C715 1.415 1_556 S
C718 H708 0.930 . S
C718 C716 1.419 1_455 S
C718 C719 1.362 1_554 S
C719 H709 0.930 . S
C719 C712 1.409 . S
C719 C718 1.362 1_556 S
H720 C726 0.930 . S
H721 C729 0.930 . S
H722 C730 0.930 . S
H723 C731 0.930 . S
H724 C734 0.930 . S
H725 C735 0.930 . S
C726 H720 0.930 . S
C726 C727 1.355 1_545 S
C726 C728 1.415 1_545 S
C727 C726 1.355 1_565 S
C727 C729 1.419 . S
C728 C726 1.415 1_565 S
C728 C733 1.425 . S
C728 C735 1.409 1_565 S
C729 H721 0.930 . S
C729 C727 1.419 . S
C729 C730 1.362 . S
C730 H722 0.930 . S
C730 C729 1.362 . S
C730 C733 1.409 . S
C731 H723 0.930 . S
C731 C732 1.355 . S
C731 C733 1.415 . S
C732 C731 1.355 . S
C732 C734 1.419 1_565 S
C733 C728 1.425 . S
C733 C730 1.409 . S
C733 C731 1.415 . S
C734 H724 0.930 . S
C734 C732 1.419 1_545 S
C734 C735 1.362 . S
C735 H725 0.930 . S
C735 C728 1.409 1_545 S
C735 C734 1.362 . S
H736 C742 0.930 . S
H737 C745 0.930 . S
H738 C746 0.930 . S
H739 C747 0.930 . S
H740 C750 0.930 . S
H741 C751 0.930 . S
C742 H736 0.930 . S
C742 C743 1.355 . S
C742 C744 1.415 1_554 S
C743 C742 1.355 . S
C743 C745 1.419 . S
C744 C742 1.415 1_556 S
C744 C749 1.425 . S
C744 C751 1.409 . S
C745 H737 0.930 . S
C745 C743 1.419 . S
C745 C746 1.362 1_554 S
C746 H738 0.930 . S
C746 C745 1.362 1_556 S
C746 C749 1.409 . S
C747 H739 0.930 . S
C747 C748 1.355 . S
C747 C749 1.415 . S
C748 C747 1.355 . S
C748 C750 1.419 . S
C749 C744 1.425 . S
C749 C746 1.409 . S
C749 C747 1.415 . S
C750 H740 0.930 . S
C750 C748 1.419 . S
C750 C751 1.362 . S
C751 H741 0.930 . S
C751 C744 1.409 . S
C751 C750 1.362 . S
H752 C758 0.930 . S
H753 C761 0.930 . S
H754 C762 0.930 . S
H755 C763 0.930 . S
H756 C766 0.930 . S
H757 C767 0.930 . S
C758 H752 0.930 . S
C758 C759 1.355 . S
C758 C760 1.415 . S
C759 C758 1.355 . S
C759 C761 1.419 . S
C760 C758 1.415 . S
C760 C765 1.425 . S
C760 C767 1.409 . S
C761 H753 0.930 . S
C761 C759 1.419 . S
C761 C762 1.362 . S
C762 H754 0.930 . S
C762 C761 1.362 . S
C762 C765 1.409 . S
C763 H755 0.930 . S
C763 C764 1.360 . S
C763 C765 1.408 1_554 S
C764 C763 1.360 . S
C764 C766 1.419 . S
C765 C760 1.425 . S
C765 C762 1.409 . S
C765 C763 1.408 1_556 S
C766 H756 0.930 . S
C766 C764 1.419 . S
C766 C767 1.362 1_554 S
C767 H757 0.930 . S
C767 C760 1.409 . S
C767 C766 1.362 1_556 S
H768 C774 0.930 . S
H769 C777 0.930 . S
H770 C778 0.930 . S
H771 C779 0.930 1_455 S
H772 C782 0.930 . S
H773 C783 0.930 . S
C774 H768 0.930 . S
C774 C775 1.355 . S
C774 C776 1.415 . S
C775 C774 1.355 . S
C775 C777 1.419 1_655 S
C776 C774 1.415 . S
C776 C781 1.425 . S
C776 C783 1.409 . S
C777 H769 0.930 . S
C777 C775 1.419 1_455 S
C777 C778 1.362 . S
C778 H770 0.930 . S
C778 C777 1.362 . S
C778 C781 1.409 1_455 S
C779 H771 0.930 1_655 S
C779 C780 1.355 . S
C779 C781 1.415 . S
C780 C779 1.355 . S
C780 C782 1.419 . S
C781 C776 1.425 . S
C781 C778 1.409 1_655 S
C781 C779 1.415 . S
C782 H772 0.930 . S
C782 C780 1.419 . S
C782 C783 1.362 . S
C783 H773 0.930 . S
C783 C776 1.409 . S
C783 C782 1.362 . S
H784 C790 0.930 . S
H785 C793 0.930 . S
H786 C794 0.930 . S
H787 C795 0.930 . S
H788 C798 0.930 . S
H789 C799 0.930 . S
C790 H784 0.930 . S
C790 C791 1.355 . S
C790 C792 1.415 1_554 S
C791 C790 1.355 . S
C791 C793 1.419 1_565 S
C792 C790 1.415 1_556 S
C792 C797 1.425 1_565 S
C792 C799 1.409 . S
C793 H785 0.930 . S
C793 C791 1.419 1_545 S
C793 C794 1.362 1_554 S
C794 H786 0.930 . S
C794 C793 1.362 1_556 S
C794 C797 1.409 . S
C795 H787 0.930 . S
C795 C796 1.355 1_545 S
C795 C797 1.415 . S
C796 C795 1.355 1_565 S
C796 C798 1.419 . S
C797 C792 1.425 1_545 S
C797 C794 1.409 . S
C797 C795 1.415 . S
C798 H788 0.930 . S
C798 C796 1.419 . S
C798 C799 1.362 . S
C799 H789 0.930 . S
C799 C792 1.409 . S
C799 C798 1.362 . S
H800 C806 0.930 . S
H801 C809 0.930 . S
H802 C810 0.930 . S
H803 C811 0.930 . S
H804 C814 0.930 . S
H805 C815 0.930 . S
C806 H800 0.930 . S
C806 C807 1.355 . S
C806 C808 1.415 . S
C807 C806 1.355 . S
C807 C809 1.419 . S
C808 C806 1.415 . S
C808 C813 1.425 . S
C808 C815 1.409 . S
C809 H801 0.930 . S
C809 C807 1.419 . S
C809 C810 1.362 . S
C810 H802 0.930 . S
C810 C809 1.362 . S
C810 C813 1.409 . S
C811 H803 0.930 . S
C811 C812 1.355 . S
C811 C813 1.415 . S
C812 C811 1.355 . S
C812 C814 1.419 . S
C813 C808 1.425 . S
C813 C810 1.409 . S
C813 C811 1.415 . S
C814 H804 0.930 . S
C814 C812 1.419 . S
C814 C815 1.362 . S
C815 H805 0.930 . S
C815 C808 1.409 . S
C815 C814 1.362 . S
H816 C822 0.930 . S
H817 C825 0.930 . S
H818 C826 0.930 . S
H819 C827 0.930 . S
H820 C830 0.930 . S
H821 C831 0.930 . S
C822 H816 0.930 . S
C822 C823 1.355 . S
C822 C824 1.415 . S
C823 C822 1.355 . S
C823 C825 1.419 . S
C824 C822 1.415 . S
C824 C829 1.425 . S
C824 C831 1.409 . S
C825 H817 0.930 . S
C825 C823 1.419 . S
C825 C826 1.362 . S
C826 H818 0.930 . S
C826 C825 1.362 . S
C826 C829 1.409 . S
C827 H819 0.930 . S
C827 C828 1.355 . S
C827 C829 1.415 . S
C828 C827 1.355 . S
C828 C830 1.419 . S
C829 C824 1.425 . S
C829 C826 1.409 . S
C829 C827 1.415 . S
C830 H820 0.930 . S
C830 C828 1.419 . S
C830 C831 1.362 . S
C831 H821 0.930 . S
C831 C824 1.409 . S
C831 C830 1.362 . S
H832 C838 0.930 . S
H833 C841 0.930 . S
H834 C842 0.930 . S
H835 C843 0.928 1_556 S
H836 C846 0.930 . S
H837 C847 0.934 . S
C838 H832 0.930 . S
C838 C839 1.355 . S
C838 C840 1.415 . S
C839 C838 1.355 . S
C839 C841 1.419 . S
C840 C838 1.415 . S
C840 C845 1.425 . S
C840 C847 1.409 . S
C841 H833 0.930 . S
C841 C839 1.419 . S
C841 C842 1.362 . S
C842 H834 0.930 . S
C842 C841 1.362 . S
C842 C845 1.409 . S
C843 H835 0.928 1_554 S
C843 C844 1.345 1_554 S
C843 C845 1.426 . S
C844 C843 1.345 1_556 S
C844 C846 1.419 . S
C845 C840 1.425 . S
C845 C842 1.409 . S
C845 C843 1.426 . S
C846 H836 0.930 . S
C846 C844 1.419 . S
C846 C847 1.362 1_556 S
C847 H837 0.934 . S
C847 C840 1.409 . S
C847 C846 1.362 1_554 S
H848 C854 0.943 . S
H849 C857 0.930 . S
H850 C858 0.930 . S
H851 C859 0.930 . S
H852 C862 0.930 . S
H853 C863 0.930 . S
C854 H848 0.943 . S
C854 C855 1.344 1_565 S
C854 C856 1.413 1_565 S
C855 C854 1.344 1_545 S
C855 C857 1.419 . S
C856 C854 1.413 1_545 S
C856 C861 1.447 . S
C856 C863 1.391 1_545 S
C857 H849 0.930 . S
C857 C855 1.419 . S
C857 C858 1.362 . S
C858 H850 0.930 . S
C858 C857 1.362 . S
C858 C861 1.409 . S
C859 H851 0.930 . S
C859 C860 1.355 . S
C859 C861 1.415 . S
C860 C859 1.355 . S
C860 C862 1.419 1_545 S
C861 C856 1.447 . S
C861 C858 1.409 . S
C861 C859 1.415 . S
C862 H852 0.930 . S
C862 C860 1.419 1_565 S
C862 C863 1.362 . S
C863 H853 0.930 . S
C863 C856 1.391 1_565 S
C863 C862 1.362 . S
H864 C870 0.930 . S
H865 C873 0.930 . S
H866 C874 0.930 . S
H867 C875 0.930 . S
H868 C878 0.930 . S
H869 C879 0.930 . S
C870 H864 0.930 . S
C870 C871 1.355 . S
C870 C872 1.415 1_556 S
C871 C870 1.355 . S
C871 C873 1.419 . S
C872 C870 1.415 1_554 S
C872 C877 1.425 . S
C872 C879 1.409 . S
C873 H865 0.930 . S
C873 C871 1.419 . S
C873 C874 1.362 1_556 S
C874 H866 0.930 . S
C874 C873 1.362 1_554 S
C874 C877 1.409 . S
C875 H867 0.930 . S
C875 C876 1.355 . S
C875 C877 1.415 . S
C876 C875 1.355 . S
C876 C878 1.419 . S
C877 C872 1.425 . S
C877 C874 1.409 . S
C877 C875 1.415 . S
C878 H868 0.930 . S
C878 C876 1.419 . S
C878 C879 1.362 . S
C879 H869 0.930 . S
C879 C872 1.409 . S
C879 C878 1.362 . S
H880 C886 0.930 . S
H881 C889 0.930 . S
H882 C890 0.930 . S
H883 C891 0.930 . S
H884 C894 0.930 . S
H885 C895 0.930 . S
C886 H880 0.930 . S
C886 C887 1.355 . S
C886 C888 1.415 . S
C887 C886 1.355 . S
C887 C889 1.419 . S
C888 C886 1.415 . S
C888 C893 1.425 . S
C888 C895 1.409 . S
C889 H881 0.930 . S
C889 C887 1.419 . S
C889 C890 1.362 . S
C890 H882 0.930 . S
C890 C889 1.362 . S
C890 C893 1.409 . S
C891 H883 0.930 . S
C891 C892 1.355 . S
C891 C893 1.415 . S
C892 C891 1.355 . S
C892 C894 1.419 . S
C893 C888 1.425 . S
C893 C890 1.409 . S
C893 C891 1.415 . S
C894 H884 0.930 . S
C894 C892 1.419 . S
C894 C895 1.362 . S
C895 H885 0.930 . S
C895 C888 1.409 . S
C895 C894 1.362 . S
H896 C902 0.930 . S
H897 C905 0.930 . S
H898 C906 0.930 . S
H899 C907 0.930 . S
H900 C910 0.930 . S
H901 C911 0.930 . S
C902 H896 0.930 . S
C902 C903 1.355 . S
C902 C904 1.415 . S
C903 C902 1.355 . S
C903 C905 1.419 . S
C904 C902 1.415 . S
C904 C909 1.425 . S
C904 C911 1.409 . S
C905 H897 0.930 . S
C905 C903 1.419 . S
C905 C906 1.362 . S
C906 H898 0.930 . S
C906 C905 1.362 . S
C906 C909 1.409 . S
C907 H899 0.930 . S
C907 C908 1.355 . S
C907 C909 1.415 . S
C908 C907 1.355 . S
C908 C910 1.419 . S
C909 C904 1.425 . S
C909 C906 1.409 . S
C909 C907 1.415 . S
C910 H900 0.930 . S
C910 C908 1.419 . S
C910 C911 1.362 . S
C911 H901 0.930 . S
C911 C904 1.409 . S
C911 C910 1.362 . S
H912 C918 0.930 . S
H913 C921 0.930 . S
H914 C922 0.930 . S
H915 C923 0.930 . S
H916 C926 0.930 . S
H917 C927 0.930 . S
C918 H912 0.930 . S
C918 C919 1.355 . S
C918 C920 1.415 . S
C919 C918 1.355 . S
C919 C921 1.419 . S
C920 C918 1.415 . S
C920 C925 1.425 . S
C920 C927 1.409 . S
C921 H913 0.930 . S
C921 C919 1.419 . S
C921 C922 1.362 . S
C922 H914 0.930 . S
C922 C921 1.362 . S
C922 C925 1.409 . S
C923 H915 0.930 . S
C923 C924 1.355 . S
C923 C925 1.415 . S
C924 C923 1.355 . S
C924 C926 1.419 . S
C925 C920 1.425 . S
C925 C922 1.409 . S
C925 C923 1.415 . S
C926 H916 0.930 . S
C926 C924 1.419 . S
C926 C927 1.362 . S
C927 H917 0.930 . S
C927 C920 1.409 . S
C927 C926 1.362 . S
H928 C934 0.930 . S
H929 C937 0.930 . S
H930 C938 0.930 . S
H931 C939 0.930 . S
H932 C942 0.930 . S
H933 C943 0.930 . S
C934 H928 0.930 . S
C934 C935 1.355 . S
C934 C936 1.415 . S
C935 C934 1.355 . S
C935 C937 1.419 . S
C936 C934 1.415 . S
C936 C941 1.425 . S
C936 C943 1.409 . S
C937 H929 0.930 . S
C937 C935 1.419 . S
C937 C938 1.362 . S
C938 H930 0.930 . S
C938 C937 1.362 . S
C938 C941 1.409 . S
C939 H931 0.930 . S
C939 C940 1.355 . S
C939 C941 1.415 . S
C940 C939 1.355 . S
C940 C942 1.419 . S
C941 C936 1.425 . S
C941 C938 1.409 . S
C941 C939 1.415 . S
C942 H932 0.930 . S
C942 C940 1.419 . S
C942 C943 1.362 . S
C943 H933 0.930 . S
C943 C936 1.409 . S
C943 C942 1.362 . S
H944 C950 0.930 . S
H945 C953 0.930 . S
H946 C954 0.930 . S
H947 C955 0.930 . S
H948 C958 0.930 . S
H949 C959 0.930 . S
C950 H944 0.930 . S
C950 C951 1.355 . S
C950 C952 1.415 . S
C951 C950 1.355 . S
C951 C953 1.419 . S
C952 C950 1.415 . S
C952 C957 1.425 . S
C952 C959 1.409 . S
C953 H945 0.930 . S
C953 C951 1.419 . S
C953 C954 1.362 . S
C954 H946 0.930 . S
C954 C953 1.362 . S
C954 C957 1.409 . S
C955 H947 0.930 . S
C955 C956 1.355 . S
C955 C957 1.415 . S
C956 C955 1.355 . S
C956 C958 1.419 . S
C957 C952 1.425 . S
C957 C954 1.409 . S
C957 C955 1.415 . S
C958 H948 0.930 . S
C958 C956 1.419 . S
C958 C959 1.362 . S
C959 H949 0.930 . S
C959 C952 1.409 . S
C959 C958 1.362 . S
H960 C966 0.930 . S
H961 C969 0.930 . S
H962 C970 0.930 . S
H963 C971 0.930 . S
H964 C974 0.930 . S
H965 C975 0.930 . S
C966 H960 0.930 . S
C966 C967 1.355 . S
C966 C968 1.415 . S
C967 C966 1.355 . S
C967 C969 1.419 . S
C968 C966 1.415 . S
C968 C973 1.425 . S
C968 C975 1.409 . S
C969 H961 0.930 . S
C969 C967 1.419 . S
C969 C970 1.362 . S
C970 H962 0.930 . S
C970 C969 1.362 . S
C970 C973 1.409 . S
C971 H963 0.930 . S
C971 C972 1.355 . S
C971 C973 1.415 . S
C972 C971 1.355 . S
C972 C974 1.419 . S
C973 C968 1.425 . S
C973 C970 1.409 . S
C973 C971 1.415 . S
C974 H964 0.930 . S
C974 C972 1.419 . S
C974 C975 1.362 . S
C975 H965 0.930 . S
C975 C968 1.409 . S
C975 C974 1.362 . S
H976 C982 0.930 . S
H977 C985 0.930 . S
H978 C986 0.930 . S
H979 C987 0.930 . S
H980 C990 0.930 . S
H981 C991 0.930 . S
C982 H976 0.930 . S
C982 C983 1.355 . S
C982 C984 1.415 . S
C983 C982 1.355 . S
C983 C985 1.419 . S
C984 C982 1.415 . S
C984 C989 1.425 . S
C984 C991 1.409 . S
C985 H977 0.930 . S
C985 C983 1.419 . S
C985 C986 1.362 . S
C986 H978 0.930 . S
C986 C985 1.362 . S
C986 C989 1.409 . S
C987 H979 0.930 . S
C987 C988 1.355 . S
C987 C989 1.415 . S
C988 C987 1.355 . S
C988 C990 1.419 . S
C989 C984 1.425 . S
C989 C986 1.409 . S
C989 C987 1.415 . S
C990 H980 0.930 . S
C990 C988 1.419 . S
C990 C991 1.362 . S
C991 H981 0.930 . S
C991 C984 1.409 . S
C991 C990 1.362 . S
H992 C998 0.930 . S
H993 C1001 0.930 . S
H994 C1002 0.930 . S
H995 C1003 0.930 . S
H996 C1006 0.930 . S
H997 C1007 0.930 . S
C998 H992 0.930 . S
C998 C999 1.355 . S
C998 C1000 1.415 . S
C999 C998 1.355 . S
C999 C1001 1.419 . S
C1000 C998 1.415 . S
C1000 C1005 1.425 . S
C1000 C1007 1.409 . S
C1001 H993 0.930 . S
C1001 C999 1.419 . S
C1001 C1002 1.362 . S
C1002 H994 0.930 . S
C1002 C1001 1.362 . S
C1002 C1005 1.409 . S
C1003 H995 0.930 . S
C1003 C1004 1.355 . S
C1003 C1005 1.415 . S
C1004 C1003 1.355 . S
C1004 C1006 1.419 . S
C1005 C1000 1.425 . S
C1005 C1002 1.409 . S
C1005 C1003 1.415 . S
C1006 H996 0.930 . S
C1006 C1004 1.419 . S
C1006 C1007 1.362 . S
C1007 H997 0.930 . S
C1007 C1000 1.409 . S
C1007 C1006 1.362 . S
H1008 C1014 0.930 . S
H1009 C1017 0.930 . S
H1010 C1018 0.930 . S
H1011 C1019 0.930 . S
H1012 C1022 0.930 . S
H1013 C1023 0.930 . S
C1014 H1008 0.930 . S
C1014 C1015 1.355 . S
C1014 C1016 1.415 . S
C1015 C1014 1.355 . S
C1015 C1017 1.419 . S
C1016 C1014 1.415 . S
C1016 C1021 1.425 . S
C1016 C1023 1.409 . S
C1017 H1009 0.930 . S
C1017 C1015 1.419 . S
C1017 C1018 1.362 . S
C1018 H1010 0.930 . S
C1018 C1017 1.362 . S
C1018 C1021 1.409 . S
C1019 H1011 0.930 . S
C1019 C1020 1.355 . S
C1019 C1021 1.415 . S
C1020 C1019 1.355 . S
C1020 C1022 1.419 . S
C1021 C1016 1.425 . S
C1021 C1018 1.409 . S
C1021 C1019 1.415 . S
C1022 H1012 0.930 . S
C1022 C1020 1.419 . S
C1022 C1023 1.362 . S
C1023 H1013 0.930 . S
C1023 C1016 1.409 . S
C1023 C1022 1.362 . S
H1024 C1030 0.930 . S
H1025 C1033 0.930 . S
H1026 C1034 0.930 . S
H1027 C1035 0.930 . S
H1028 C1038 0.930 . S
H1029 C1039 0.930 . S
C1030 H1024 0.930 . S
C1030 C1031 1.355 . S
C1030 C1032 1.415 . S
C1031 C1030 1.355 . S
C1031 C1033 1.419 . S
C1032 C1030 1.415 . S
C1032 C1037 1.425 . S
C1032 C1039 1.409 . S
C1033 H1025 0.930 . S
C1033 C1031 1.419 . S
C1033 C1034 1.362 . S
C1034 H1026 0.930 . S
C1034 C1033 1.362 . S
C1034 C1037 1.409 . S
C1035 H1027 0.930 . S
C1035 C1036 1.355 . S
C1035 C1037 1.415 . S
C1036 C1035 1.355 . S
C1036 C1038 1.419 . S
C1037 C1032 1.425 . S
C1037 C1034 1.409 . S
C1037 C1035 1.415 . S
C1038 H1028 0.930 . S
C1038 C1036 1.419 . S
C1038 C1039 1.362 . S
C1039 H1029 0.930 . S
C1039 C1032 1.409 . S
C1039 C1038 1.362 . S
H1040 C1046 0.930 . S
H1041 C1049 0.930 . S
H1042 C1050 0.930 . S
H1043 C1051 0.930 . S
H1044 C1054 0.930 . S
H1045 C1055 0.930 . S
C1046 H1040 0.930 . S
C1046 C1047 1.355 . S
C1046 C1048 1.415 . S
C1047 C1046 1.355 . S
C1047 C1049 1.419 . S
C1048 C1046 1.415 . S
C1048 C1053 1.425 . S
C1048 C1055 1.409 . S
C1049 H1041 0.930 . S
C1049 C1047 1.419 . S
C1049 C1050 1.362 . S
C1050 H1042 0.930 . S
C1050 C1049 1.362 . S
C1050 C1053 1.409 . S
C1051 H1043 0.930 . S
C1051 C1052 1.355 . S
C1051 C1053 1.415 . S
C1052 C1051 1.355 . S
C1052 C1054 1.419 . S
C1053 C1048 1.425 . S
C1053 C1050 1.409 . S
C1053 C1051 1.415 . S
C1054 H1044 0.930 . S
C1054 C1052 1.419 . S
C1054 C1055 1.362 . S
C1055 H1045 0.930 . S
C1055 C1048 1.409 . S
C1055 C1054 1.362 . S
H1056 C1062 0.930 . S
H1057 C1065 0.930 . S
H1058 C1066 0.930 . S
H1059 C1067 0.930 . S
H1060 C1070 0.930 . S
H1061 C1071 0.930 . S
C1062 H1056 0.930 . S
C1062 C1063 1.355 . S
C1062 C1064 1.415 . S
C1063 C1062 1.355 . S
C1063 C1065 1.419 . S
C1064 C1062 1.415 . S
C1064 C1069 1.425 . S
C1064 C1071 1.409 . S
C1065 H1057 0.930 . S
C1065 C1063 1.419 . S
C1065 C1066 1.362 . S
C1066 H1058 0.930 . S
C1066 C1065 1.362 . S
C1066 C1069 1.409 . S
C1067 H1059 0.930 . S
C1067 C1068 1.355 . S
C1067 C1069 1.415 . S
C1068 C1067 1.355 . S
C1068 C1070 1.419 . S
C1069 C1064 1.425 . S
C1069 C1066 1.409 . S
C1069 C1067 1.415 . S
C1070 H1060 0.930 . S
C1070 C1068 1.419 . S
C1070 C1071 1.362 . S
C1071 H1061 0.930 . S
C1071 C1064 1.409 . S
C1071 C1070 1.362 . S
H1072 C1078 0.930 . S
H1073 C1081 0.930 . S
H1074 C1082 0.930 . S
H1075 C1083 0.930 . S
H1076 C1086 0.930 . S
H1077 C1087 0.930 . S
C1078 H1072 0.930 . S
C1078 C1079 1.355 . S
C1078 C1080 1.415 . S
C1079 C1078 1.355 . S
C1079 C1081 1.419 . S
C1080 C1078 1.415 . S
C1080 C1085 1.425 . S
C1080 C1087 1.409 . S
C1081 H1073 0.930 . S
C1081 C1079 1.419 . S
C1081 C1082 1.362 . S
C1082 H1074 0.930 . S
C1082 C1081 1.362 . S
C1082 C1085 1.409 . S
C1083 H1075 0.930 . S
C1083 C1084 1.355 . S
C1083 C1085 1.415 . S
C1084 C1083 1.355 . S
C1084 C1086 1.419 . S
C1085 C1080 1.425 . S
C1085 C1082 1.409 . S
C1085 C1083 1.415 . S
C1086 H1076 0.930 . S
C1086 C1084 1.419 . S
C1086 C1087 1.362 . S
C1087 H1077 0.930 . S
C1087 C1080 1.409 . S
C1087 C1086 1.362 . S
H1088 C1094 0.930 . S
H1089 C1097 0.930 . S
H1090 C1098 0.930 . S
H1091 C1099 0.930 . S
H1092 C1102 0.930 . S
H1093 C1103 0.930 . S
C1094 H1088 0.930 . S
C1094 C1095 1.355 . S
C1094 C1096 1.415 . S
C1095 C1094 1.355 . S
C1095 C1097 1.419 . S
C1096 C1094 1.415 . S
C1096 C1101 1.425 . S
C1096 C1103 1.409 . S
C1097 H1089 0.930 . S
C1097 C1095 1.419 . S
C1097 C1098 1.362 . S
C1098 H1090 0.930 . S
C1098 C1097 1.362 . S
C1098 C1101 1.409 . S
C1099 H1091 0.930 . S
C1099 C1100 1.355 . S
C1099 C1101 1.415 . S
C1100 C1099 1.355 . S
C1100 C1102 1.419 . S
C1101 C1096 1.425 . S
C1101 C1098 1.409 . S
C1101 C1099 1.415 . S
C1102 H1092 0.930 . S
C1102 C1100 1.419 . S
C1102 C1103 1.362 . S
C1103 H1093 0.930 . S
C1103 C1096 1.409 . S
C1103 C1102 1.362 . S
H1104 C1110 0.930 . S
H1105 C1113 0.930 . S
H1106 C1114 0.930 . S
H1107 C1115 0.930 . S
H1108 C1118 0.930 . S
H1109 C1119 0.930 . S
C1110 H1104 0.930 . S
C1110 C1111 1.355 . S
C1110 C1112 1.415 . S
C1111 C1110 1.355 . S
C1111 C1113 1.419 . S
C1112 C1110 1.415 . S
C1112 C1117 1.425 . S
C1112 C1119 1.409 . S
C1113 H1105 0.930 . S
C1113 C1111 1.419 . S
C1113 C1114 1.362 . S
C1114 H1106 0.930 . S
C1114 C1113 1.362 . S
C1114 C1117 1.409 . S
C1115 H1107 0.930 . S
C1115 C1116 1.355 . S
C1115 C1117 1.415 . S
C1116 C1115 1.355 . S
C1116 C1118 1.419 . S
C1117 C1112 1.425 . S
C1117 C1114 1.409 . S
C1117 C1115 1.415 . S
C1118 H1108 0.930 . S
C1118 C1116 1.419 . S
C1118 C1119 1.362 . S
C1119 H1109 0.930 . S
C1119 C1112 1.409 . S
C1119 C1118 1.362 . S
H1120 C1126 0.930 . S
H1121 C1129 0.930 . S
H1122 C1130 0.930 . S
H1123 C1131 0.930 . S
H1124 C1134 0.930 . S
H1125 C1135 0.930 . S
C1126 H1120 0.930 . S
C1126 C1127 1.355 . S
C1126 C1128 1.415 . S
C1127 C1126 1.355 . S
C1127 C1129 1.419 . S
C1128 C1126 1.415 . S
C1128 C1133 1.425 . S
C1128 C1135 1.409 . S
C1129 H1121 0.930 . S
C1129 C1127 1.419 . S
C1129 C1130 1.362 . S
C1130 H1122 0.930 . S
C1130 C1129 1.362 . S
C1130 C1133 1.409 . S
C1131 H1123 0.930 . S
C1131 C1132 1.355 . S
C1131 C1133 1.415 . S
C1132 C1131 1.355 . S
C1132 C1134 1.419 . S
C1133 C1128 1.425 . S
C1133 C1130 1.409 . S
C1133 C1131 1.415 . S
C1134 H1124 0.930 . S
C1134 C1132 1.419 . S
C1134 C1135 1.362 . S
C1135 H1125 0.930 . S
C1135 C1128 1.409 . S
C1135 C1134 1.362 . S
C375 C16 1.129 . S
C380 C177 1.128 . S
C391 C108 1.116 . S
C396 C39 1.116 . S
C407 C131 1.139 . S
C412 C62 1.139 . S
C423 C85 1.109 . S
C428 C154 1.110 . S
C439 C362 1.145 . S
C444 C200 1.144 . S
C455 C292 1.154 . S
C460 C223 1.154 . S
C471 C315 1.159 . S
C476 C246 1.160 . S
C487 C338 1.125 . S
C492 C269 1.125 . S
C503 C20 1.260 . S
C508 C366 1.207 . S
C519 C43 1.236 . S
C524 C296 1.208 . S
C535 C66 1.193 . S
C540 C319 1.240 . S
C551 C342 1.190 . S
C556 C89 1.233 . S
C567 C227 1.229 . S
C572 C112 1.204 . S
C583 C135 1.202 . S
C588 C250 1.235 . S
C599 C273 1.199 . S
C604 C158 1.231 . S
C615 C181 1.229 . S
C620 C204 1.171 . S
C631 C294 1.546 . S
C636 C17 1.526 . S
C647 C40 1.491 . S
C652 C317 1.509 . S
C663 C340 1.545 . S
C668 C63 1.518 . S
C679 C364 1.507 . S
C684 C86 1.560 . S
C695 C109 1.501 . S
C700 C202 1.514 . S
C711 C132 1.544 . S
C716 C225 1.524 . S
C727 C155 1.537 . S
C732 C248 1.548 . S
C743 C271 1.498 . S
C748 C178 1.529 . S
C759 C201 1.541 . S
C764 C110 1.530 . S
C775 C224 1.488 . S
C780 C133 1.511 . S
C791 C156 1.500 . S
C796 C247 1.531 . S
C807 C270 1.543 . S
C812 C179 1.534 . S
C823 C293 1.517 . S
C828 C18 1.498 . S
C839 C316 1.539 . S
C844 C41 1.538 . S
C855 C64 1.543 . S
C860 C339 1.503 . S
C871 C87 1.546 . S
C876 C361 1.548 . S
C887 C19 1.564 . S
C892 C228 1.563 . S
C903 C251 1.571 . S
C908 C42 1.582 . S
C919 C65 1.581 . S
C924 C274 1.563 . S
C935 C88 1.588 . S
C940 C205 1.582 . S
C951 C111 1.513 . S
C956 C365 1.543 . S
C967 C134 1.577 . S
C972 C297 1.567 . S
C983 C157 1.539 . S
C988 C320 1.503 . S
C999 C343 1.496 . S
C1004 C180 1.539 . S
C1015 C44 1.562 . S
C1020 C203 1.591 . S
C1031 C67 1.557 . S
C1036 C226 1.559 . S
C1047 C249 1.580 . S
C1052 C90 1.569 . S
C1063 C272 1.566 . S
C1068 C21 1.562 . S
C1079 C182 1.539 . S
C1084 C295 1.543 . S
C1095 C113 1.563 . S
C1100 C318 1.581 . S
C1111 C136 1.540 . S
C1116 C341 1.544 . S
C1127 C159 1.507 . S
C1132 C363 1.593 . S
