# Generated by pormake.
# Topology wns, (7)-cn, num edge types: 1
# Building blocks:
#     Node 0, Type 0, BuildingBlock: NUHQUE_clean_sbu_2, # of connection points: 7
#     Node 1, Type 0, BuildingBlock: NUHQUE_clean_sbu_2, # of connection points: 7
#     Node 2, Type 0, BuildingBlock: NUHQUE_clean_sbu_2, # of connection points: 7
#     Node 3, Type 0, BuildingBlock: NUHQUE_clean_sbu_2, # of connection points: 7
#     Node 4, Type 0, BuildingBlock: NUHQUE_clean_sbu_2, # of connection points: 7
#     Node 5, Type 0, BuildingBlock: NUHQUE_clean_sbu_2, # of connection points: 7
#     Node 6, Type 0, BuildingBlock: NUHQUE_clean_sbu_2, # of connection points: 7
#     Node 7, Type 0, BuildingBlock: NUHQUE_clean_sbu_2, # of connection points: 7
#     Node 8, Type 0, BuildingBlock: NUHQUE_clean_sbu_2, # of connection points: 7
#     Node 9, Type 0, BuildingBlock: NUHQUE_clean_sbu_2, # of connection points: 7
#     Node 10, Type 0, BuildingBlock: NUHQUE_clean_sbu_2, # of connection points: 7
#     Node 11, Type 0, BuildingBlock: NUHQUE_clean_sbu_2, # of connection points: 7
#     Edge 12, Type (0, 0), BuildingBlock: MIFKUJ_clean_linker_0, # of connection points: 2
#     Edge 13, Type (0, 0), BuildingBlock: MIFKUJ_clean_linker_0, # of connection points: 2
#     Edge 14, Type (0, 0), BuildingBlock: MIFKUJ_clean_linker_0, # of connection points: 2
#     Edge 15, Type (0, 0), BuildingBlock: MIFKUJ_clean_linker_0, # of connection points: 2
#     Edge 16, Type (0, 0), BuildingBlock: MIFKUJ_clean_linker_0, # of connection points: 2
#     Edge 17, Type (0, 0), BuildingBlock: MIFKUJ_clean_linker_0, # of connection points: 2
#     Edge 18, Type (0, 0), BuildingBlock: MIFKUJ_clean_linker_0, # of connection points: 2
#     Edge 19, Type (0, 0), BuildingBlock: MIFKUJ_clean_linker_0, # of connection points: 2
#     Edge 20, Type (0, 0), BuildingBlock: MIFKUJ_clean_linker_0, # of connection points: 2
#     Edge 21, Type (0, 0), BuildingBlock: MIFKUJ_clean_linker_0, # of connection points: 2
#     Edge 22, Type (0, 0), BuildingBlock: MIFKUJ_clean_linker_0, # of connection points: 2
#     Edge 23, Type (0, 0), BuildingBlock: MIFKUJ_clean_linker_0, # of connection points: 2
#     Edge 24, Type (0, 0), BuildingBlock: MIFKUJ_clean_linker_0, # of connection points: 2
#     Edge 25, Type (0, 0), BuildingBlock: MIFKUJ_clean_linker_0, # of connection points: 2
#     Edge 26, Type (0, 0), BuildingBlock: MIFKUJ_clean_linker_0, # of connection points: 2
#     Edge 27, Type (0, 0), BuildingBlock: MIFKUJ_clean_linker_0, # of connection points: 2
#     Edge 28, Type (0, 0), BuildingBlock: MIFKUJ_clean_linker_0, # of connection points: 2
#     Edge 29, Type (0, 0), BuildingBlock: MIFKUJ_clean_linker_0, # of connection points: 2
#     Edge 30, Type (0, 0), BuildingBlock: MIFKUJ_clean_linker_0, # of connection points: 2
#     Edge 31, Type (0, 0), BuildingBlock: MIFKUJ_clean_linker_0, # of connection points: 2
#     Edge 32, Type (0, 0), BuildingBlock: MIFKUJ_clean_linker_0, # of connection points: 2
#     Edge 33, Type (0, 0), BuildingBlock: MIFKUJ_clean_linker_0, # of connection points: 2
#     Edge 34, Type (0, 0), BuildingBlock: MIFKUJ_clean_linker_0, # of connection points: 2
#     Edge 35, Type (0, 0), BuildingBlock: MIFKUJ_clean_linker_0, # of connection points: 2
#     Edge 36, Type (0, 0), BuildingBlock: MIFKUJ_clean_linker_0, # of connection points: 2
#     Edge 37, Type (0, 0), BuildingBlock: MIFKUJ_clean_linker_0, # of connection points: 2
#     Edge 38, Type (0, 0), BuildingBlock: MIFKUJ_clean_linker_0, # of connection points: 2
#     Edge 39, Type (0, 0), BuildingBlock: MIFKUJ_clean_linker_0, # of connection points: 2
#     Edge 40, Type (0, 0), BuildingBlock: MIFKUJ_clean_linker_0, # of connection points: 2
#     Edge 41, Type (0, 0), BuildingBlock: MIFKUJ_clean_linker_0, # of connection points: 2
#     Edge 42, Type (0, 0), BuildingBlock: MIFKUJ_clean_linker_0, # of connection points: 2
#     Edge 43, Type (0, 0), BuildingBlock: MIFKUJ_clean_linker_0, # of connection points: 2
#     Edge 44, Type (0, 0), BuildingBlock: MIFKUJ_clean_linker_0, # of connection points: 2
#     Edge 45, Type (0, 0), BuildingBlock: MIFKUJ_clean_linker_0, # of connection points: 2
#     Edge 46, Type (0, 0), BuildingBlock: MIFKUJ_clean_linker_0, # of connection points: 2
#     Edge 47, Type (0, 0), BuildingBlock: MIFKUJ_clean_linker_0, # of connection points: 2
#     Edge 48, Type (0, 0), BuildingBlock: MIFKUJ_clean_linker_0, # of connection points: 2
#     Edge 49, Type (0, 0), BuildingBlock: MIFKUJ_clean_linker_0, # of connection points: 2
#     Edge 50, Type (0, 0), BuildingBlock: MIFKUJ_clean_linker_0, # of connection points: 2
#     Edge 51, Type (0, 0), BuildingBlock: MIFKUJ_clean_linker_0, # of connection points: 2
#     Edge 52, Type (0, 0), BuildingBlock: MIFKUJ_clean_linker_0, # of connection points: 2
#     Edge 53, Type (0, 0), BuildingBlock: MIFKUJ_clean_linker_0, # of connection points: 2
# Relax obj value: 0.179
# Max RMSD: 0.258
# Mean RMSD: 0.258
data_MOF--net-wns--node1-NUHQUE_clean_sbu_2--edge1-MIFKUJ_clean_linker_0
_symmetry_space_group_name_H-M    P1
_symmetry_Int_Tables_number       1
_symmetry_cell_setting            triclinic
loop_
_symmetry_equiv_pos_as_xyz
'x, y, z'
_cell_length_a     60.608149
_cell_length_b     60.60683
_cell_length_c     44.419147
_cell_angle_alpha  89.973334
_cell_angle_beta   89.966099
_cell_angle_gamma 120.00247
loop_
_atom_site_label
_atom_site_type_symbol
_atom_site_fract_x
_atom_site_fract_y
_atom_site_fract_z
_atom_type_partial_charge
O0 O 0.47033 0.25443 0.97096 0.0
Tb1 Tb 0.47299 0.255 0.01965 0.0
Eu2 Eu 0.44697 0.25683 0.08782 0.0
C3 C 0.44989 0.25163 0.9572 0.0
O4 O 0.43169 0.25181 0.97308 0.0
C5 C 0.42901 0.20751 0.04819 0.0
O6 O 0.45012 0.25514 0.13803 0.0
C7 C 0.41 0.26577 0.07613 0.0
C8 C 0.46042 0.27567 0.15493 0.0
O9 O 0.47034 0.29823 0.14223 0.0
C10 C 0.49486 0.30425 0.05633 0.0
C11 C 0.40027 0.28381 0.07982 0.0
C12 C 0.38756 0.28749 0.05539 0.0
C13 C 0.37448 0.30096 0.05938 0.0
C14 C 0.37443 0.31107 0.08762 0.0
C15 C 0.38666 0.30757 0.11237 0.0
C16 C 0.40001 0.29425 0.1083 0.0
O17 O 0.43479 0.22282 0.02505 0.0
O18 O 0.43788 0.21695 0.07495 0.0
O19 O 0.50356 0.24797 0.0063 0.0
O20 O 0.49533 0.24729 0.05288 0.0
C21 C 0.50999 0.24489 0.03319 0.0
O22 O 0.48634 0.29112 0.08152 0.0
O23 O 0.48418 0.29414 0.03033 0.0
O24 O 0.41121 0.25413 0.10046 0.0
O25 O 0.42863 0.27121 0.05695 0.0
H26 H 0.38685 0.27892 0.03373 0.0
H27 H 0.36417 0.32134 0.09047 0.0
H28 H 0.40895 0.29092 0.12753 0.0
O29 O 0.75846 0.21473 0.96748 0.0
Tb30 Tb 0.76018 0.21645 0.01631 0.0
Eu31 Eu 0.76068 0.18548 0.08493 0.0
C32 C 0.7635 0.19927 0.95202 0.0
O33 O 0.76825 0.18314 0.96636 0.0
C34 C 0.80834 0.21763 0.04083 0.0
O35 O 0.76357 0.18625 0.13546 0.0
C36 C 0.74576 0.13871 0.0684 0.0
C37 C 0.74416 0.18112 0.1531 0.0
O38 O 0.7222 0.17575 0.1412 0.0
C39 C 0.71541 0.1921 0.05947 0.0
C40 C 0.72738 0.1124 0.07847 0.0
C41 C 0.72064 0.09162 0.05882 0.0
C42 C 0.70549 0.06631 0.06912 0.0
C43 C 0.69649 0.06226 0.09883 0.0
C44 C 0.70354 0.08249 0.11881 0.0
C45 C 0.7188 0.10763 0.10863 0.0
O46 O 0.79246 0.21014 0.018 0.0
O47 O 0.79998 0.21534 0.06867 0.0
O48 O 0.75798 0.2509 0.0088 0.0
O49 O 0.77933 0.24985 0.04611 0.0
C50 C 0.77195 0.26373 0.03158 0.0
O51 O 0.72999 0.19643 0.08322 0.0
O52 O 0.72292 0.18849 0.03311 0.0
O53 O 0.76491 0.152 0.08666 0.0
O54 O 0.73659 0.15234 0.05653 0.0
H55 H 0.72813 0.09514 0.03608 0.0
H56 H 0.68451 0.04298 0.10708 0.0
H57 H 0.72475 0.12329 0.12432 0.0
O58 O 0.80549 0.54668 0.96754 0.0
Tb59 Tb 0.80094 0.54381 0.01638 0.0
Eu60 Eu 0.83109 0.573 0.08642 0.0
C61 C 0.8182 0.56887 0.95382 0.0
O62 O 0.83044 0.58969 0.97 0.0
C63 C 0.79569 0.58684 0.0463 0.0
O64 O 0.83137 0.57168 0.13715 0.0
C65 C 0.87676 0.60733 0.06924 0.0
C66 C 0.8271 0.58774 0.15248 0.0
O67 O 0.82239 0.60368 0.13763 0.0
C68 C 0.8269 0.52279 0.05698 0.0
C69 C 0.9039 0.61581 0.07569 0.0
C70 C 0.92235 0.62834 0.05301 0.0
C71 C 0.94836 0.63838 0.05935 0.0
C72 C 0.95587 0.63578 0.08826 0.0
C73 C 0.938 0.62386 0.11138 0.0
C74 C 0.91191 0.61381 0.10496 0.0
O75 O 0.80476 0.58103 0.02268 0.0
O76 O 0.79977 0.58141 0.07371 0.0
O77 O 0.76411 0.51209 0.00251 0.0
O78 O 0.76982 0.52239 0.04869 0.0
C79 C 0.75357 0.50678 0.029 0.0
O80 O 0.8224 0.53215 0.08153 0.0
O81 O 0.82896 0.53357 0.0306 0.0
O82 O 0.86406 0.6108 0.09089 0.0
O83 O 0.86313 0.58565 0.05489 0.0
H84 H 0.91657 0.63088 0.03079 0.0
H85 H 0.97605 0.6444 0.09312 0.0
H86 H 0.89798 0.60491 0.1228 0.0
O87 O 0.26717 0.4709 0.53087 0.0
Tb88 Tb 0.26871 0.47232 0.48196 0.0
Eu89 Eu 0.26885 0.44007 0.41374 0.0
C90 C 0.26336 0.45061 0.54599 0.0
O91 O 0.263 0.43155 0.53148 0.0
C92 C 0.22059 0.42576 0.45671 0.0
O93 O 0.26772 0.44097 0.36305 0.0
C94 C 0.28338 0.4077 0.42901 0.0
C95 C 0.24585 0.42748 0.34905 0.0
O96 O 0.22512 0.41405 0.36512 0.0
C97 C 0.31443 0.49166 0.44055 0.0
C98 C 0.30374 0.40151 0.42232 0.0
C99 C 0.31269 0.39199 0.44546 0.0
C100 C 0.33088 0.3846 0.43923 0.0
C101 C 0.33991 0.3867 0.40973 0.0
C102 C 0.3308 0.39535 0.38625 0.0
C103 C 0.31274 0.40285 0.39261 0.0
O104 O 0.23641 0.43403 0.47954 0.0
O105 O 0.22888 0.42956 0.42873 0.0
O106 O 0.26948 0.50815 0.49018 0.0
O107 O 0.25255 0.48801 0.44975 0.0
C108 C 0.25796 0.50825 0.46555 0.0
O109 O 0.30029 0.48145 0.41642 0.0
O110 O 0.30626 0.48096 0.46703 0.0
O111 O 0.26726 0.40384 0.40715 0.0
O112 O 0.2895 0.42844 0.44463 0.0
H113 H 0.30522 0.38995 0.4681 0.0
H114 H 0.353 0.3799 0.4046 0.0
H115 H 0.30541 0.40925 0.37439 0.0
O116 O 0.55192 0.80126 0.53384 0.0
Tb117 Tb 0.54966 0.80068 0.485 0.0
Eu118 Eu 0.5803 0.83448 0.41659 0.0
C119 C 0.57319 0.81649 0.54819 0.0
O120 O 0.59325 0.83298 0.53283 0.0
C121 C 0.59554 0.79947 0.45632 0.0
O122 O 0.58034 0.8348 0.36605 0.0
C123 C 0.61298 0.88116 0.43248 0.0
C124 C 0.5603 0.81917 0.35012 0.0
O125 O 0.53917 0.80283 0.36389 0.0
C126 C 0.52925 0.82747 0.44547 0.0
C127 C 0.61942 0.90717 0.42266 0.0
C128 C 0.63415 0.92843 0.44145 0.0
C129 C 0.64216 0.95337 0.43115 0.0
C130 C 0.63401 0.95652 0.40277 0.0
C131 C 0.62051 0.93596 0.38335 0.0
C132 C 0.61319 0.91122 0.39327 0.0
O133 O 0.58784 0.8062 0.48047 0.0
O134 O 0.58981 0.80384 0.42919 0.0
O135 O 0.5125 0.76676 0.49248 0.0
O136 O 0.53415 0.76775 0.45437 0.0
C137 C 0.51296 0.75409 0.46913 0.0
O138 O 0.53903 0.82442 0.42045 0.0
O139 O 0.54085 0.82979 0.47123 0.0
O140 O 0.61786 0.86802 0.4128 0.0
O141 O 0.59114 0.86722 0.44644 0.0
H142 H 0.64033 0.92563 0.46329 0.0
H143 H 0.63969 0.97555 0.39475 0.0
H144 H 0.60322 0.8953 0.37799 0.0
O145 O 0.2149 0.75015 0.53005 0.0
Tb146 Tb 0.21985 0.75578 0.48157 0.0
Eu147 Eu 0.18823 0.75096 0.41218 0.0
C148 C 0.20181 0.7582 0.54563 0.0
O149 O 0.18954 0.76775 0.5313 0.0
C150 C 0.21904 0.80066 0.45175 0.0
O151 O 0.19016 0.75226 0.36159 0.0
C152 C 0.14189 0.73835 0.42789 0.0
C153 C 0.17815 0.73185 0.34465 0.0
O154 O 0.16516 0.70933 0.35737 0.0
C155 C 0.19675 0.70727 0.44192 0.0
C156 C 0.11455 0.71917 0.42304 0.0
C157 C 0.09772 0.71116 0.44787 0.0
C158 C 0.07138 0.69524 0.44356 0.0
C159 C 0.06187 0.68761 0.41447 0.0
C160 C 0.07792 0.69628 0.38928 0.0
C161 C 0.10443 0.71151 0.39368 0.0
O162 O 0.21008 0.78534 0.47497 0.0
O163 O 0.21808 0.79124 0.42486 0.0
O164 O 0.25922 0.77133 0.49634 0.0
O165 O 0.25096 0.76372 0.44985 0.0
C166 C 0.26897 0.77208 0.47005 0.0
O167 O 0.19782 0.71944 0.41682 0.0
O168 O 0.19556 0.71623 0.46854 0.0
O169 O 0.1541 0.75326 0.40507 0.0
O170 O 0.15613 0.73192 0.44383 0.0
H171 H 0.10498 0.7179 0.47031 0.0
H172 H 0.04145 0.67575 0.41136 0.0
H173 H 0.11691 0.71849 0.37426 0.0
O174 O 0.5459 0.78317 0.01639 0.0
Tb175 Tb 0.53997 0.76816 0.97111 0.0
Eu176 Eu 0.59845 0.76388 0.92784 0.0
C177 C 0.56706 0.79017 0.03137 0.0
O178 O 0.58589 0.78894 0.01842 0.0
C179 C 0.59394 0.81267 0.95413 0.0
O180 O 0.60046 0.77396 0.87877 0.0
C181 C 0.63141 0.74953 0.94051 0.0
C182 C 0.58034 0.77224 0.86534 0.0
O183 O 0.55951 0.76518 0.8811 0.0
C184 C 0.54285 0.72429 0.94453 0.0
C185 C 0.63899 0.73051 0.93198 0.0
C186 C 0.64424 0.71741 0.95468 0.0
C187 C 0.65271 0.70031 0.947 0.0
C188 C 0.65639 0.69692 0.91662 0.0
C189 C 0.65256 0.71061 0.89381 0.0
C190 C 0.6432 0.72693 0.90153 0.0
O191 O 0.56929 0.80224 0.94886 0.0
O192 O 0.60628 0.79971 0.9539 0.0
O193 O 0.4992 0.75002 0.98086 0.0
O194 O 0.51256 0.76759 0.93833 0.0
C195 C 0.49249 0.75555 0.95542 0.0
O196 O 0.55918 0.72945 0.92269 0.0
O197 O 0.55061 0.7394 0.96782 0.0
O198 O 0.63535 0.76713 0.92048 0.0
O199 O 0.61 0.74143 0.95556 0.0
H200 H 0.64195 0.72066 0.97818 0.0
H201 H 0.66325 0.68402 0.91075 0.0
H202 H 0.64021 0.73757 0.88398 0.0
O203 O 0.21802 0.75615 0.00913 0.0
Tb204 Tb 0.23849 0.76515 0.96674 0.0
Eu205 Eu 0.25409 0.83234 0.9251 0.0
C206 C 0.21923 0.77421 0.0266 0.0
O207 O 0.23155 0.79792 0.01711 0.0
C208 C 0.2017 0.7826 0.94742 0.0
O209 O 0.24458 0.82268 0.87604 0.0
C210 C 0.27028 0.88049 0.93479 0.0
C211 C 0.2457 0.80355 0.86366 0.0
O212 O 0.25232 0.78987 0.88028 0.0
C213 C 0.28827 0.80966 0.94616 0.0
C214 C 0.28973 0.90738 0.92827 0.0
C215 C 0.29654 0.92575 0.95132 0.0
C216 C 0.31168 0.95185 0.94476 0.0
C217 C 0.32045 0.95944 0.91541 0.0
C218 C 0.31359 0.94172 0.89209 0.0
C219 C 0.29858 0.91556 0.8986 0.0
O220 O 0.21121 0.76843 0.93849 0.0
O221 O 0.21636 0.80762 0.94977 0.0
O222 O 0.24954 0.73704 0.97828 0.0
O223 O 0.23792 0.73818 0.93346 0.0
C224 C 0.24542 0.72652 0.95185 0.0
O225 O 0.2864 0.82347 0.92461 0.0
O226 O 0.27182 0.80243 0.96822 0.0
O227 O 0.25471 0.86727 0.91287 0.0
O228 O 0.27635 0.8668 0.95229 0.0
H229 H 0.28897 0.91986 0.97386 0.0
H230 H 0.33199 0.97963 0.9104 0.0
H231 H 0.29269 0.90183 0.88044 0.0
O232 O 0.24992 0.45021 0.01105 0.0
Tb233 Tb 0.24865 0.46416 0.96644 0.0
Eu234 Eu 0.18542 0.41543 0.92599 0.0
C235 C 0.22903 0.43645 0.02675 0.0
O236 O 0.20683 0.42936 0.01424 0.0
C237 C 0.23358 0.41064 0.94636 0.0
O238 O 0.19285 0.4142 0.87637 0.0
C239 C 0.13687 0.38698 0.93732 0.0
C240 C 0.18625 0.42616 0.85679 0.0
O241 O 0.17455 0.43814 0.86639 0.0
C242 C 0.20717 0.47389 0.94464 0.0
C243 C 0.11171 0.38285 0.9275 0.0
C244 C 0.09027 0.36985 0.94658 0.0
C245 C 0.0657 0.36303 0.93611 0.0
C246 C 0.06309 0.37045 0.90705 0.0
C247 C 0.08401 0.38283 0.88772 0.0
C248 C 0.10833 0.389 0.89791 0.0
O249 O 0.24779 0.43456 0.93849 0.0
O250 O 0.20884 0.40086 0.95024 0.0
O251 O 0.28418 0.49649 0.98238 0.0
O252 O 0.274 0.49554 0.93648 0.0
C253 C 0.29118 0.50843 0.95679 0.0
O254 O 0.19709 0.45734 0.92255 0.0
O255 O 0.21499 0.46768 0.96893 0.0
O256 O 0.1493 0.38115 0.91758 0.0
O257 O 0.15181 0.40787 0.95253 0.0
H258 H 0.09253 0.36385 0.9688 0.0
H259 H 0.04426 0.36517 0.89867 0.0
H260 H 0.12437 0.3978 0.88256 0.0
O261 O 0.79544 0.55472 0.4892 0.0
Tb262 Tb 0.77676 0.54239 0.53267 0.0
Eu263 Eu 0.77007 0.59959 0.57338 0.0
C264 C 0.79323 0.57176 0.47319 0.0
O265 O 0.7809 0.58247 0.48473 0.0
C266 C 0.81896 0.59551 0.55107 0.0
O267 O 0.77957 0.60073 0.62273 0.0
C268 C 0.75565 0.63254 0.56059 0.0
C269 C 0.77942 0.58099 0.63531 0.0
O270 O 0.77411 0.56107 0.61857 0.0
C271 C 0.72968 0.54213 0.55701 0.0
C272 C 0.73535 0.63907 0.56626 0.0
C273 C 0.72448 0.64507 0.54169 0.0
C274 C 0.7056 0.65169 0.54656 0.0
C275 C 0.69756 0.65212 0.57591 0.0
C276 C 0.71002 0.64922 0.601 0.0
C277 C 0.72851 0.64192 0.59587 0.0
O278 O 0.80705 0.57157 0.55978 0.0
O279 O 0.80686 0.60856 0.54911 0.0
O280 O 0.76594 0.50382 0.51781 0.0
O281 O 0.77521 0.51339 0.56373 0.0
C282 C 0.76848 0.4954 0.54376 0.0
O283 O 0.73588 0.5599 0.5775 0.0
O284 O 0.74371 0.54715 0.53278 0.0
O285 O 0.7709 0.63515 0.58306 0.0
O286 O 0.74991 0.61252 0.5437 0.0
H287 H 0.73097 0.64499 0.51897 0.0
H288 H 0.68233 0.65634 0.57891 0.0
H289 H 0.73837 0.63943 0.6147 0.0
O290 O 0.46567 0.25826 0.49205 0.0
Tb291 Tb 0.47485 0.24966 0.53607 0.0
Eu292 Eu 0.4194 0.1732 0.57784 0.0
C293 C 0.44818 0.2403 0.4751 0.0
O294 O 0.43507 0.21701 0.48581 0.0
C295 C 0.41993 0.22329 0.55627 0.0
O296 O 0.41917 0.17783 0.62804 0.0
C297 C 0.39051 0.12529 0.56401 0.0
C298 C 0.43731 0.19832 0.64116 0.0
O299 O 0.45573 0.21582 0.62461 0.0
C300 C 0.47879 0.20363 0.55797 0.0
C301 C 0.38558 0.09963 0.57268 0.0
C302 C 0.37224 0.07904 0.5527 0.0
C303 C 0.36445 0.05396 0.5619 0.0
C304 C 0.37116 0.04988 0.59072 0.0
C305 C 0.38416 0.07002 0.61101 0.0
C306 C 0.39132 0.09494 0.60193 0.0
O307 O 0.44315 0.23354 0.56683 0.0
O308 O 0.40534 0.19837 0.55757 0.0
O309 O 0.51623 0.27215 0.54051 0.0
O310 O 0.49308 0.28394 0.56375 0.0
C311 C 0.51639 0.28948 0.55804 0.0
O312 O 0.46188 0.18643 0.57655 0.0
O313 O 0.47099 0.21205 0.53545 0.0
O314 O 0.3845 0.13723 0.58421 0.0
O315 O 0.41184 0.14045 0.54966 0.0
H316 H 0.36674 0.08238 0.53069 0.0
H317 H 0.36506 0.03057 0.59799 0.0
H318 H 0.40073 0.11051 0.6178 0.0
O319 O 0.76272 0.22107 0.48518 0.0
Tb320 Tb 0.77104 0.2387 0.52929 0.0
Eu321 Eu 0.84522 0.25703 0.57474 0.0
C322 C 0.77912 0.2167 0.47083 0.0
O323 O 0.80094 0.22275 0.48365 0.0
C324 C 0.79442 0.20739 0.55098 0.0
O325 O 0.83749 0.25043 0.62445 0.0
C326 C 0.89344 0.2743 0.56373 0.0
C327 C 0.81786 0.25075 0.63657 0.0
O328 O 0.80309 0.25556 0.61945 0.0
C329 C 0.81784 0.28721 0.55249 0.0
C330 C 0.91913 0.29425 0.57373 0.0
C331 C 0.93958 0.30498 0.55296 0.0
C332 C 0.96451 0.3226 0.56262 0.0
C333 C 0.96859 0.32911 0.59321 0.0
C334 C 0.94869 0.31831 0.61406 0.0
C335 C 0.92395 0.30099 0.60439 0.0
O336 O 0.78258 0.21914 0.56086 0.0
O337 O 0.81951 0.21874 0.55254 0.0
O338 O 0.75111 0.26042 0.53241 0.0
O339 O 0.73609 0.22495 0.55543 0.0
C340 C 0.73255 0.24399 0.54936 0.0
O341 O 0.83444 0.28793 0.57216 0.0
O342 O 0.80994 0.27003 0.53108 0.0
O343 O 0.88 0.25616 0.58324 0.0
O344 O 0.87958 0.2815 0.54832 0.0
H345 H 0.93614 0.29935 0.5295 0.0
H346 H 0.98777 0.3417 0.60137 0.0
H347 H 0.90869 0.29234 0.6208 0.0
H348 H 0.29297 0.98385 0.94309 0.0
H349 H 0.31083 0.02523 0.96804 0.0
H350 H 0.36109 0.00853 0.01932 0.0
H351 H 0.34336 0.96695 0.99385 0.0
H352 H 0.33848 0.03847 0.05051 0.0
H353 H 0.38449 0.0369 0.96187 0.0
H354 H 0.38736 0.02678 0.90879 0.0
H355 H 0.35794 0.07485 0.88058 0.0
H356 H 0.35414 0.08465 0.93357 0.0
H357 H 0.42815 0.16942 0.08248 0.0
H358 H 0.40631 0.12378 0.07113 0.0
H359 H 0.37339 0.13694 0.99175 0.0
H360 H 0.39624 0.18255 0.00219 0.0
H361 H 0.38872 0.10722 0.97686 0.0
H362 H 0.33895 0.10721 0.06066 0.0
H363 H 0.33092 0.11627 0.11237 0.0
H364 H 0.36235 0.072 0.14797 0.0
H365 H 0.37086 0.06293 0.09644 0.0
C366 C 0.30713 0.9886 0.96056 0.0
C367 C 0.31672 0.97222 0.96673 0.0
C368 C 0.31741 0.01228 0.97465 0.0
C369 C 0.33746 0.02004 0.99525 0.0
C370 C 0.34557 1.00282 0.00351 0.0
C371 C 0.33536 0.97906 0.98914 0.0
C372 C 0.35185 0.04714 0.00483 0.0
C373 C 0.34982 0.05356 0.03463 0.0
C374 C 0.36597 0.06679 0.98376 0.0
C375 C 0.36867 0.06121 0.9518 0.0
C376 C 0.37831 0.04506 0.9444 0.0
C377 C 0.38014 0.0394 0.9143 0.0
C378 C 0.37272 0.05007 0.89132 0.0
C379 C 0.36356 0.0665 0.8984 0.0
C380 C 0.36154 0.07209 0.92848 0.0
C381 C 0.41603 0.16249 0.06279 0.0
C382 C 0.41391 0.17959 0.04324 0.0
C383 C 0.40343 0.13633 0.05636 0.0
C384 C 0.38787 0.12663 0.03067 0.0
C385 C 0.38532 0.14376 0.01161 0.0
C386 C 0.39832 0.16989 0.01767 0.0
C387 C 0.37514 0.09896 0.02268 0.0
C388 C 0.37753 0.09231 0.99302 0.0
C389 C 0.36087 0.07921 0.04371 0.0
C390 C 0.3558 0.08464 0.07471 0.0
C391 C 0.34433 0.09958 0.07952 0.0
C392 C 0.33966 0.10468 0.1088 0.0
C393 C 0.34619 0.09478 0.13344 0.0
C394 C 0.35734 0.07969 0.12886 0.0
C395 C 0.36208 0.07455 0.09962 0.0
H396 H 0.34255 0.09875 0.15609 0.0
H397 H 0.37416 0.04568 0.86803 0.0
H398 H 0.84766 0.24706 0.07933 0.0
H399 H 0.89337 0.27064 0.06795 0.0
H400 H 0.87785 0.2413 0.97734 0.0
H401 H 0.83219 0.21791 0.98838 0.0
H402 H 0.91918 0.23972 0.0044 0.0
H403 H 0.8889 0.29915 0.98936 0.0
H404 H 0.8675 0.3227 0.00544 0.0
H405 H 0.92204 0.35797 0.0766 0.0
H406 H 0.94351 0.33426 0.06125 0.0
H407 H 0.02418 0.32027 0.91588 0.0
H408 H 0.98307 0.29512 0.94031 0.0
H409 H 0.01214 0.3412 0.02029 0.0
H410 H 0.05356 0.36737 0.99504 0.0
H411 H 0.96608 0.33425 0.00669 0.0
H412 H 0.99933 0.27851 0.01877 0.0
H413 H 0.02038 0.25439 0.00369 0.0
H414 H 0.96067 0.21176 0.94004 0.0
H415 H 0.93941 0.23585 0.95443 0.0
C416 C 0.85397 0.24544 0.05705 0.0
C417 C 0.8362 0.2306 0.03475 0.0
C418 C 0.88012 0.25903 0.05056 0.0
C419 C 0.88905 0.25786 0.02174 0.0
C420 C 0.87142 0.24248 0.99974 0.0
C421 C 0.84529 0.22918 0.00607 0.0
C422 C 0.91665 0.27315 0.01407 0.0
C423 C 0.92942 0.26038 0.00474 0.0
C424 C 0.93025 0.30011 0.01547 0.0
C425 C 0.91763 0.3147 0.02438 0.0
C426 C 0.89621 0.31177 0.00859 0.0
C427 C 0.88408 0.32517 0.01755 0.0
C428 C 0.89335 0.34176 0.04209 0.0
C429 C 0.91484 0.34507 0.05764 0.0
C430 C 0.927 0.33166 0.04881 0.0
C431 C 0.02191 0.32505 0.93873 0.0
C432 C 0.04207 0.34599 0.95341 0.0
C433 C 0.99839 0.31045 0.95284 0.0
C434 C 0.99441 0.31597 0.98236 0.0
C435 C 0.01472 0.33649 0.99752 0.0
C436 C 0.03843 0.3513 0.98323 0.0
C437 C 0.96861 0.30083 0.99636 0.0
C438 C 0.95608 0.31358 0.00683 0.0
C439 C 0.95523 0.2738 0.99621 0.0
C440 C 0.96784 0.2591 0.98759 0.0
C441 C 0.99075 0.26409 0.00143 0.0
C442 C 1.00272 0.25041 0.99302 0.0
C443 C 0.99188 0.23158 0.9709 0.0
C444 C 0.96903 0.22635 0.95718 0.0
C445 C 0.95699 0.23999 0.9655 0.0
H446 H 1.00118 0.22101 0.96441 0.0
H447 H 0.88392 0.3521 0.04901 0.0
H448 H 0.79196 0.62243 0.08094 0.0
H449 H 0.7662 0.64248 0.07057 0.0
H450 H 0.7358 0.59574 0.99113 0.0
H451 H 0.76288 0.57735 0.00028 0.0
H452 H 0.74374 0.63774 0.97635 0.0
H453 H 0.7017 0.58728 0.06307 0.0
H454 H 0.6978 0.57144 0.11507 0.0
H455 H 0.72306 0.64661 0.14929 0.0
H456 H 0.72741 0.66296 0.09744 0.0
H457 H 0.63685 0.64976 0.9503 0.0
H458 H 0.65919 0.63062 0.97521 0.0
H459 H 0.70903 0.70214 0.01872 0.0
H460 H 0.68692 0.72163 0.99324 0.0
H461 H 0.692 0.65043 0.05366 0.0
H462 H 0.7311 0.69761 0.96053 0.0
H463 H 0.72857 0.70737 0.90719 0.0
H464 H 0.70119 0.62918 0.88373 0.0
H465 H 0.70315 0.61887 0.93705 0.0
C466 C 0.77974 0.61654 0.0613 0.0
C467 C 0.77953 0.59848 0.04132 0.0
C468 C 0.76481 0.62783 0.05547 0.0
C469 C 0.7486 0.62052 0.03018 0.0
C470 C 0.74817 0.60204 0.01064 0.0
C471 C 0.76364 0.59143 0.01593 0.0
C472 C 0.73269 0.63248 0.0232 0.0
C473 C 0.73231 0.64016 0.9934 0.0
C474 C 0.71779 0.63615 0.0452 0.0
C475 C 0.71516 0.62639 0.07638 0.0
C476 C 0.7066 0.60046 0.08168 0.0
C477 C 0.70428 0.59139 0.11113 0.0
C478 C 0.71025 0.60802 0.13546 0.0
C479 C 0.71849 0.63376 0.13041 0.0
C480 C 0.72086 0.64294 0.10101 0.0
C481 C 0.65196 0.66117 0.96604 0.0
C482 C 0.66025 0.68724 0.96969 0.0
C483 C 0.66475 0.65022 0.9802 0.0
C484 C 0.68595 0.66503 0.9985 0.0
C485 C 0.69267 0.69038 0.0047 0.0
C486 C 0.67994 0.70146 0.99029 0.0
C487 C 0.70307 0.6551 0.00708 0.0
C488 C 0.70366 0.64795 0.03697 0.0
C489 C 0.71751 0.65104 0.98502 0.0
C490 C 0.71699 0.65742 0.95285 0.0
C491 C 0.72432 0.68245 0.94404 0.0
C492 C 0.72299 0.68808 0.91379 0.0
C493 C 0.71455 0.66887 0.89208 0.0
C494 C 0.7076 0.64402 0.90057 0.0
C495 C 0.70885 0.63829 0.9308 0.0
H496 H 0.71348 0.67324 0.86869 0.0
H497 H 0.70845 0.60096 0.15824 0.0
H498 H 0.19852 0.43943 0.50008 0.0
H499 H 0.15344 0.42047 0.51201 0.0
H500 H 0.13501 0.36527 0.44108 0.0
H501 H 0.18043 0.38574 0.42758 0.0
H502 H 0.09993 0.3764 0.44199 0.0
H503 H 0.13671 0.35211 0.52073 0.0
H504 H 0.16763 0.3582 0.56051 0.0
H505 H 0.14612 0.40537 0.60998 0.0
H506 H 0.11533 0.39989 0.5703 0.0
H507 H 0.97674 0.29735 0.51999 0.0
H508 H 0.01837 0.31299 0.49546 0.0
H509 H 0.04566 0.38654 0.5365 0.0
H510 H 1.00416 0.37151 0.56 0.0
H511 H 0.07447 0.3603 0.54946 0.0
H512 H 0.03869 0.38473 0.46671 0.0
H513 H 1.00724 0.37606 0.42664 0.0
H514 H 0.02568 0.3232 0.38547 0.0
H515 H 0.05699 0.3313 0.42558 0.0
C516 C 0.18486 0.42323 0.48702 0.0
C517 C 0.19299 0.4138 0.4632 0.0
C518 C 0.15902 0.41223 0.494 0.0
C519 C 0.14064 0.39074 0.47825 0.0
C520 C 0.14871 0.38164 0.45386 0.0
C521 C 0.17465 0.39325 0.4462 0.0
C522 C 0.1132 0.37804 0.48746 0.0
C523 C 0.0944 0.37248 0.46547 0.0
C524 C 0.10565 0.37279 0.51812 0.0
C525 C 0.12381 0.37572 0.54238 0.0
C526 C 0.13864 0.36388 0.54002 0.0
C527 C 0.15616 0.36722 0.56256 0.0
C528 C 0.15888 0.38221 0.58772 0.0
C529 C 0.14401 0.39378 0.59047 0.0
C530 C 0.12649 0.39054 0.56797 0.0
C531 C 0.99132 0.31709 0.52292 0.0
C532 C 0.98717 0.33307 0.54226 0.0
C533 C 0.01517 0.32594 0.50909 0.0
C534 C 0.0352 0.35084 0.5145 0.0
C535 C 0.03056 0.36721 0.53224 0.0
C536 C 1.00679 0.35855 0.54566 0.0
C537 C 0.06162 0.3594 0.50413 0.0
C538 C 0.08013 0.36401 0.52599 0.0
C539 C 0.06873 0.36319 0.47344 0.0
C540 C 0.04994 0.35837 0.44935 0.0
C541 C 0.03584 0.37105 0.4493 0.0
C542 C 0.01809 0.36629 0.42653 0.0
C543 C 0.0144 0.34902 0.40358 0.0
C544 C 0.02851 0.33653 0.40329 0.0
C545 C 0.04628 0.34121 0.42602 0.0
H546 H 1.00065 0.34536 0.38597 0.0
H547 H 0.1725 0.38483 0.60511 0.0
H548 H 0.65806 0.62995 0.52206 0.0
H549 H 0.6394 0.65259 0.49648 0.0
H550 H 0.71294 0.72126 0.49639 0.0
H551 H 0.73163 0.6982 0.52053 0.0
H552 H 0.63339 0.68688 0.51933 0.0
H553 H 0.71652 0.76551 0.44818 0.0
H554 H 0.75106 0.76983 0.41491 0.0
H555 H 0.70914 0.6896 0.3963 0.0
H556 H 0.6742 0.68484 0.42911 0.0
H557 H 0.61547 0.79184 0.508 0.0
H558 H 0.63481 0.76527 0.51497 0.0
H559 H 0.62526 0.74664 0.42042 0.0
H560 H 0.60645 0.77384 0.41309 0.0
H561 H 0.66906 0.752 0.43847 0.0
H562 H 0.58362 0.70491 0.47329 0.0
H563 H 0.54563 0.69728 0.50205 0.0
H564 H 0.58594 0.70716 0.58497 0.0
H565 H 0.62432 0.71523 0.55667 0.0
C566 C 0.6704 0.64951 0.51508 0.0
C567 C 0.69639 0.66217 0.52261 0.0
C568 C 0.65969 0.66262 0.5009 0.0
C569 C 0.67462 0.6888 0.49442 0.0
C570 C 0.70094 0.70103 0.5004 0.0
C571 C 0.71172 0.68779 0.51411 0.0
C572 C 0.6623 0.70386 0.48494 0.0
C573 C 0.64119 0.70095 0.50146 0.0
C574 C 0.67198 0.72208 0.46133 0.0
C575 C 0.69282 0.7248 0.44133 0.0
C576 C 0.71461 0.74881 0.43688 0.0
C577 C 0.73428 0.75133 0.41812 0.0
C578 C 0.73233 0.72999 0.40357 0.0
C579 C 0.71067 0.70609 0.40767 0.0
C580 C 0.69094 0.70347 0.42639 0.0
C581 C 0.61764 0.78229 0.48858 0.0
C582 C 0.60919 0.78489 0.45999 0.0
C583 C 0.62863 0.76695 0.49264 0.0
C584 C 0.63108 0.75345 0.46836 0.0
C585 C 0.62353 0.75674 0.43957 0.0
C586 C 0.61272 0.7723 0.43542 0.0
C587 C 0.64072 0.73532 0.47337 0.0
C588 C 0.66126 0.73772 0.45611 0.0
C589 C 0.63005 0.71605 0.49568 0.0
C590 C 0.60691 0.71086 0.51284 0.0
C591 C 0.58443 0.70559 0.49765 0.0
C592 C 0.56282 0.70118 0.51387 0.0
C593 C 0.56338 0.70178 0.54532 0.0
C594 C 0.58554 0.70672 0.56061 0.0
C595 C 0.60722 0.71119 0.54449 0.0
H596 H 0.54664 0.69837 0.55784 0.0
H597 H 0.74758 0.73198 0.38907 0.0
H598 H 0.21807 0.8257 0.50236 0.0
H599 H 0.24124 0.87148 0.5119 0.0
H600 H 0.27291 0.88504 0.42236 0.0
H601 H 0.24959 0.83901 0.4125 0.0
H602 H 0.30946 0.91145 0.4666 0.0
H603 H 0.22912 0.90087 0.43702 0.0
H604 H 0.18233 0.88106 0.43702 0.0
H605 H 0.18366 0.89973 0.53048 0.0
H606 H 0.23044 0.91933 0.53118 0.0
H607 H 0.3698 0.04467 0.50227 0.0
H608 H 0.34369 1.0048 0.47429 0.0
H609 H 0.29515 0.97255 0.552 0.0
H610 H 0.32053 0.01217 0.5794 0.0
H611 H 0.26711 0.95835 0.5032 0.0
H612 H 0.34505 0.96142 0.5354 0.0
H613 H 0.39164 0.9797 0.53773 0.0
H614 H 0.39453 0.97393 0.44161 0.0
H615 H 0.34795 0.9559 0.4387 0.0
C616 C 0.22977 0.83837 0.48454 0.0
C617 C 0.2319 0.82864 0.45662 0.0
C618 C 0.24296 0.86459 0.49001 0.0
C619 C 0.25868 0.88175 0.46778 0.0
C620 C 0.26083 0.87217 0.43981 0.0
C621 C 0.24739 0.84587 0.43418 0.0
C622 C 0.27348 0.90953 0.47447 0.0
C623 C 0.30021 0.9219 0.47393 0.0
C624 C 0.26145 0.92307 0.48452 0.0
C625 C 0.23331 0.91144 0.48418 0.0
C626 C 0.21943 0.9006 0.45763 0.0
C627 C 0.19291 0.88943 0.4575 0.0
C628 C 0.18003 0.8891 0.48375 0.0
C629 C 0.19366 0.89999 0.51017 0.0
C630 C 0.22019 0.91117 0.51043 0.0
C631 C 0.35328 0.02918 0.51307 0.0
C632 C 0.34743 0.0314 0.54315 0.0
C633 C 0.33849 1.00635 0.49719 0.0
C634 C 0.31763 0.98544 0.51117 0.0
C635 C 0.31113 0.98826 0.54067 0.0
C636 C 0.3258 0.0109 0.55642 0.0
C637 C 0.30312 0.96009 0.4962 0.0
C638 C 0.2764 0.94811 0.49522 0.0
C639 C 0.31515 0.94683 0.48506 0.0
C640 C 0.34311 0.95765 0.48679 0.0
C641 C 0.35566 0.96425 0.51474 0.0
C642 C 0.38205 0.97453 0.51618 0.0
C643 C 0.39605 0.97806 0.48982 0.0
C644 C 0.38367 0.97124 0.462 0.0
C645 C 0.35728 0.961 0.46044 0.0
H646 H 0.41648 0.98601 0.49098 0.0
H647 H 0.15949 0.88044 0.4836 0.0
H648 H 0.57661 0.83963 0.98525 0.0
H649 H 0.59955 0.88484 0.99787 0.0
H650 H 0.66603 0.8936 0.9513 0.0
H651 H 0.64345 0.8478 0.94036 0.0
H652 H 0.68209 0.92082 0.99646 0.0
H653 H 0.62398 0.91541 0.92205 0.0
H654 H 0.58267 0.89912 0.89632 0.0
H655 H 0.55326 0.92009 0.97226 0.0
H656 H 0.59428 0.9362 0.99864 0.0
H657 H 0.69167 0.05697 0.00904 0.0
H658 H 0.67813 0.01716 0.98116 0.0
H659 H 0.69162 0.98412 0.06016 0.0
H660 H 0.70665 0.02384 0.08698 0.0
H661 H 0.64005 0.97279 0.9874 0.0
H662 H 0.70357 0.93832 0.04734 0.0
H663 H 0.74772 0.95679 0.06561 0.0
H664 H 0.77182 0.01979 0.00471 0.0
H665 H 0.72789 1.00153 0.98576 0.0
C666 C 0.59611 0.85122 0.97763 0.0
C667 C 0.60817 0.84021 0.9616 0.0
C668 C 0.6092 0.8772 0.98464 0.0
C669 C 0.63444 0.89308 0.97486 0.0
C670 C 0.64659 0.88197 0.95905 0.0
C671 C 0.63367 0.85577 0.95275 0.0
C672 C 0.64824 0.92099 0.98203 0.0
C673 C 0.67289 0.93216 0.99425 0.0
C674 C 0.63687 0.93638 0.97821 0.0
C675 C 0.61218 0.92688 0.96239 0.0
C676 C 0.60866 0.91642 0.93333 0.0
C677 C 0.5853 0.90723 0.91863 0.0
C678 C 0.56535 0.90854 0.93266 0.0
C679 C 0.56873 0.91909 0.96142 0.0
C680 C 0.59205 0.92829 0.97624 0.0
C681 C 0.69236 0.0414 0.02011 0.0
C682 C 0.69997 0.04359 0.05039 0.0
C683 C 0.68438 0.01854 0.00427 0.0
C684 C 0.68396 0.99747 0.01835 0.0
C685 C 0.6922 1.00003 0.04833 0.0
C686 C 0.70046 0.0228 0.06389 0.0
C687 C 0.67343 0.97224 0.00289 0.0
C688 C 0.64939 0.96155 0.98915 0.0
C689 C 0.68581 0.95763 0.00415 0.0
C690 C 0.71236 0.9686 0.01525 0.0
C691 C 0.7183 0.95603 0.0377 0.0
C692 C 0.74329 0.96649 0.04821 0.0
C693 C 0.76255 0.98947 0.03637 0.0
C694 C 0.75687 1.00202 0.01393 0.0
C695 C 0.73192 0.99164 0.00332 0.0
H696 H 0.78188 0.99754 0.04455 0.0
H697 H 0.54727 0.9014 0.92125 0.0
H698 H 0.17465 0.80386 0.97155 0.0
H699 H 0.1295 0.78189 0.98587 0.0
H700 H 0.12183 0.71027 0.95778 0.0
H701 H 0.16655 0.73195 0.94321 0.0
H702 H 0.08225 0.71361 0.93835 0.0
H703 H 0.1241 0.72419 0.03369 0.0
H704 H 0.15394 0.74722 0.07496 0.0
H705 H 0.12117 0.79527 0.08534 0.0
H706 H 0.09077 0.77218 0.04431 0.0
H707 H 0.97429 0.62284 0.0234 0.0
H708 H 0.01511 0.65033 0.99818 0.0
H709 H 0.01056 0.71659 0.02382 0.0
H710 H 0.96964 0.68899 0.04886 0.0
H711 H 0.05508 0.71948 0.04194 0.0
H712 H 1.0075 0.70123 0.95057 0.0
H713 H 0.97652 0.67404 0.91208 0.0
H714 H 0.02036 0.63743 0.8952 0.0
H715 H 0.05143 0.66416 0.93391 0.0
C716 C 0.16334 0.78345 0.96838 0.0
C717 C 0.17433 0.76974 0.9562 0.0
C718 C 0.13753 0.77087 0.9767 0.0
C719 C 0.1222 0.74434 0.97306 0.0
C720 C 0.13314 0.73073 0.96072 0.0
C721 C 0.15885 0.74321 0.95249 0.0
C722 C 0.09482 0.73056 0.98216 0.0
C723 C 0.07633 0.71479 0.96106 0.0
C724 C 0.0869 0.73239 0.01158 0.0
C725 C 0.10543 0.74671 0.03572 0.0
C726 C 0.12342 0.73982 0.0446 0.0
C727 C 0.14039 0.75284 0.068 0.0
C728 C 0.13967 0.77288 0.08259 0.0
C729 C 0.12179 0.77981 0.07395 0.0
C730 C 0.1046 0.76669 0.05071 0.0
C731 C 0.98155 0.64319 0.02249 0.0
C732 C 0.96865 0.65383 0.03739 0.0
C733 C 1.00493 0.65892 0.00826 0.0
C734 C 0.01592 0.68557 0.00901 0.0
C735 C 1.00243 0.69611 0.02283 0.0
C736 C 0.97896 0.68036 0.03682 0.0
C737 C 0.04252 0.70234 0.99823 0.0
C738 C 0.06089 0.71863 0.01907 0.0
C739 C 0.05032 0.70067 0.96869 0.0
C740 C 0.0317 0.68459 0.94533 0.0
C741 C 0.01044 0.68725 0.93883 0.0
C742 C 0.99288 0.67194 0.91693 0.0
C743 C 0.99644 0.65398 0.90124 0.0
C744 C 0.01761 0.65134 0.90738 0.0
C745 C 0.03522 0.66659 0.92928 0.0
H746 H 0.98282 0.64215 0.8843 0.0
H747 H 0.15287 0.78294 0.1007 0.0
H748 H 0.39109 0.33411 0.01216 0.0
H749 H 0.36524 0.34785 0.98385 0.0
H750 H 0.29734 0.28902 0.02684 0.0
H751 H 0.32314 0.2752 0.05478 0.0
H752 H 0.28748 0.29982 0.96864 0.0
H753 H 0.32988 0.34368 0.05942 0.0
H754 H 0.36809 0.3665 0.09109 0.0
H755 H 0.40133 0.42728 0.02644 0.0
H756 H 0.36383 0.4041 0.99351 0.0
H757 H 0.21298 0.3625 0.97099 0.0
H758 H 0.23542 0.33939 0.98362 0.0
H759 H 0.30529 0.40163 0.94851 0.0
H760 H 0.2833 0.42481 0.93635 0.0
H761 H 0.31365 0.38783 0.00139 0.0
H762 H 0.27102 0.34418 0.91054 0.0
H763 H 0.23404 0.31983 0.87729 0.0
H764 H 0.20085 0.25937 0.94236 0.0
H765 H 0.23749 0.28353 0.97619 0.0
C766 C 0.37054 0.3234 0.01437 0.0
C767 C 0.35901 0.30353 0.03539 0.0
C768 C 0.35578 0.33134 0.99841 0.0
C769 C 0.32938 0.31972 0.00362 0.0
C770 C 0.31762 0.29824 0.02241 0.0
C771 C 0.33235 0.29032 0.03832 0.0
C772 C 0.31489 0.33236 0.99387 0.0
C773 C 0.2931 0.31902 0.97587 0.0
C774 C 0.3222 0.35742 0.00333 0.0
C775 C 0.34417 0.37199 0.0238 0.0
C776 C 0.34541 0.36181 0.05181 0.0
C777 C 0.36698 0.37478 0.06996 0.0
C778 C 0.38711 0.39837 0.06084 0.0
C779 C 0.38573 0.40899 0.03347 0.0
C780 C 0.36438 0.39587 0.01495 0.0
C781 C 0.23308 0.37115 0.96577 0.0
C782 C 0.2463 0.39556 0.95273 0.0
C783 C 0.24588 0.35788 0.9729 0.0
C784 C 0.27209 0.36869 0.96688 0.0
C785 C 0.28513 0.39288 0.95349 0.0
C786 C 0.27244 0.40612 0.94649 0.0
C787 C 0.28639 0.35554 0.97555 0.0
C788 C 0.30808 0.36873 0.9938 0.0
C789 C 0.27888 0.33036 0.96635 0.0
C790 C 0.25687 0.31578 0.94602 0.0
C791 C 0.25574 0.32578 0.91786 0.0
C792 C 0.23485 0.312 0.89889 0.0
C793 C 0.21507 0.2881 0.90774 0.0
C794 C 0.21617 0.2779 0.93555 0.0
C795 C 0.237 0.29162 0.95462 0.0
H796 H 0.19892 0.27745 0.89302 0.0
H797 H 0.40376 0.40842 0.07499 0.0
H798 H 0.84928 0.57398 0.55173 0.0
H799 H 0.89451 0.59392 0.53993 0.0
H800 H 0.89701 0.6651 0.52219 0.0
H801 H 0.85141 0.6451 0.53361 0.0
H802 H 0.92242 0.65531 0.47961 0.0
H803 H 0.92201 0.65586 0.58731 0.0
H804 H 0.90849 0.63723 0.63798 0.0
H805 H 0.93687 0.5862 0.62068 0.0
H806 H 0.95022 0.60426 0.56971 0.0
H807 H 0.05563 0.72589 0.46802 0.0
H808 H 0.01495 0.71166 0.49396 0.0
H809 H 1.00239 0.63512 0.49742 0.0
H810 H 0.04287 0.6493 0.47093 0.0
H811 H 0.98348 0.65056 0.5501 0.0
H812 H 0.97903 0.64612 0.4416 0.0
H813 H 0.99247 0.6637 0.39051 0.0
H814 H 0.97306 0.72139 0.40956 0.0
H815 H 0.95979 0.7043 0.46098 0.0
C816 C 0.85937 0.59391 0.54543 0.0
C817 C 0.84662 0.60795 0.54383 0.0
C818 C 0.88536 0.60534 0.53881 0.0
C819 C 0.89937 0.63116 0.53064 0.0
C820 C 0.88667 0.64519 0.5286 0.0
C821 C 0.86058 0.63373 0.5352 0.0
C822 C 0.9271 0.64322 0.52362 0.0
C823 C 0.9358 0.65469 0.49532 0.0
C824 C 0.9446 0.64195 0.54377 0.0
C825 C 0.93694 0.63129 0.57458 0.0
C826 C 0.92523 0.64056 0.59423 0.0
C827 C 0.91761 0.63011 0.62302 0.0
C828 C 0.92176 0.61051 0.63252 0.0
C829 C 0.93364 0.60137 0.61328 0.0
C830 C 0.94127 0.61173 0.58445 0.0
C831 C 0.04474 0.70631 0.47563 0.0
C832 C 0.05251 0.68875 0.468 0.0
C833 C 0.02141 0.69814 0.49016 0.0
C834 C 1.00556 0.67229 0.49741 0.0
C835 C 0.01438 0.65516 0.49219 0.0
C836 C 0.03755 0.66327 0.47726 0.0
C837 C 0.97857 0.66257 0.50627 0.0
C838 C 0.97006 0.65145 0.53471 0.0
C839 C 0.96117 0.66405 0.48627 0.0
C840 C 0.96871 0.67412 0.45524 0.0
C841 C 0.97782 0.66268 0.43498 0.0
C842 C 0.98538 0.67253 0.40595 0.0
C843 C 0.98373 0.69372 0.39683 0.0
C844 C 0.97438 0.70501 0.41668 0.0
C845 C 0.96682 0.69523 0.44577 0.0
H846 H 0.98962 0.70134 0.37435 0.0
H847 H 0.91582 0.60242 0.65479 0.0
H848 H 0.44733 0.27316 0.53833 0.0
H849 H 0.43115 0.30068 0.52156 0.0
H850 H 0.35406 0.23869 0.53281 0.0
H851 H 0.37031 0.21052 0.54723 0.0
H852 H 0.35411 0.2632 0.48739 0.0
H853 H 0.38809 0.29115 0.58665 0.0
H854 H 0.42095 0.30583 0.62627 0.0
H855 H 0.47016 0.37173 0.57337 0.0
H856 H 0.4377 0.35731 0.53329 0.0
H857 H 0.30104 0.34344 0.47506 0.0
H858 H 0.3146 0.31655 0.50133 0.0
H859 H 0.39284 0.36989 0.47872 0.0
H860 H 0.37943 0.39695 0.4532 0.0
H861 H 0.38981 0.34896 0.53322 0.0
H862 H 0.35383 0.31911 0.4337 0.0
H863 H 0.31916 0.30387 0.39627 0.0
H864 H 0.27172 0.23984 0.4526 0.0
H865 H 0.3057 0.25511 0.49086 0.0
C866 C 0.42694 0.26524 0.53672 0.0
C867 C 0.41015 0.23958 0.544 0.0
C868 C 0.41764 0.28115 0.52755 0.0
C869 C 0.39128 0.27214 0.52678 0.0
C870 C 0.37447 0.2463 0.53333 0.0
C871 C 0.38379 0.23015 0.5416 0.0
C872 C 0.38124 0.2896 0.5193 0.0
C873 C 0.36167 0.28175 0.49787 0.0
C874 C 0.39117 0.31406 0.53257 0.0
C875 C 0.41052 0.32305 0.5569 0.0
C876 C 0.40595 0.30873 0.58344 0.0
C877 C 0.42451 0.317 0.60597 0.0
C878 C 0.44764 0.33967 0.6023 0.0
C879 C 0.45224 0.35417 0.57616 0.0
C880 C 0.43375 0.34598 0.55356 0.0
C881 C 0.32119 0.34987 0.47674 0.0
C882 C 0.33917 0.37221 0.46195 0.0
C883 C 0.32892 0.33435 0.49143 0.0
C884 C 0.35471 0.34087 0.49136 0.0
C885 C 0.37284 0.36432 0.47892 0.0
C886 C 0.36516 0.37979 0.46434 0.0
C887 C 0.36277 0.32248 0.50143 0.0
C888 C 0.38207 0.33023 0.52314 0.0
C889 C 0.35237 0.29781 0.48872 0.0
C890 C 0.33222 0.28841 0.46531 0.0
C891 C 0.33595 0.30187 0.43821 0.0
C892 C 0.31643 0.29324 0.41685 0.0
C893 C 0.29331 0.2709 0.42204 0.0
C894 C 0.28963 0.25715 0.44862 0.0
C895 C 0.30898 0.26582 0.47019 0.0
H896 H 0.27826 0.26424 0.40544 0.0
H897 H 0.462 0.34601 0.61975 0.0
H898 H 0.6436 0.9648 0.49193 0.0
H899 H 0.67131 1.00618 0.5161 0.0
H900 H 0.70874 0.03653 0.43092 0.0
H901 H 0.6833 0.99518 0.40797 0.0
H902 H 0.7417 0.05797 0.46733 0.0
H903 H 0.6572 0.04477 0.46335 0.0
H904 H 0.61091 0.02289 0.47281 0.0
H905 H 0.6244 0.03025 0.56815 0.0
H906 H 0.6708 0.05193 0.55924 0.0
H907 H 0.74607 0.18309 0.52759 0.0
H908 H 0.72192 0.13942 0.50874 0.0
H909 H 0.78386 0.12715 0.53352 0.0
H910 H 0.80881 0.17139 0.54966 0.0
H911 H 0.70137 0.09621 0.5292 0.0
H912 H 0.78685 0.08283 0.49474 0.0
H913 H 0.83004 0.10819 0.47332 0.0
H914 H 0.80941 0.16009 0.43408 0.0
H915 H 0.76608 0.13503 0.45514 0.0
C916 C 0.6582 0.98019 0.47868 0.0
C917 C 0.66071 0.97683 0.44781 0.0
C918 C 0.67381 1.00401 0.49237 0.0
C919 C 0.69179 0.02501 0.47526 0.0
C920 C 0.69511 0.02101 0.44487 0.0
C921 C 0.68018 0.99726 0.43156 0.0
C922 C 0.70672 0.05137 0.48809 0.0
C923 C 0.73276 0.06621 0.4809 0.0
C924 C 0.69526 0.06276 0.50515 0.0
C925 C 0.66743 0.04967 0.51064 0.0
C926 C 0.65028 0.04155 0.48634 0.0
C927 C 0.62403 0.02922 0.4916 0.0
C928 C 0.61472 0.02511 0.52107 0.0
C929 C 0.63164 0.03339 0.54534 0.0
C930 C 0.65791 0.04571 0.54021 0.0
C931 C 0.75469 0.17119 0.52844 0.0
C932 C 0.77958 0.1809 0.53947 0.0
C933 C 0.74075 0.14606 0.51793 0.0
C934 C 0.75106 0.12978 0.51907 0.0
C935 C 0.77563 0.13932 0.53119 0.0
C936 C 0.7899 0.16468 0.54065 0.0
C937 C 0.73615 0.1029 0.50783 0.0
C938 C 0.71025 0.08794 0.51558 0.0
C939 C 0.74726 0.09192 0.48944 0.0
C940 C 0.77332 0.10719 0.47681 0.0
C941 C 0.79154 0.09965 0.48152 0.0
C942 C 0.81604 0.11399 0.46948 0.0
C943 C 0.82249 0.13581 0.45249 0.0
C944 C 0.80443 0.1433 0.44743 0.0
C945 C 0.77991 0.12906 0.45946 0.0
H946 H 0.84146 0.14687 0.44316 0.0
H947 H 0.59439 0.01556 0.5251 0.0
H948 H 0.34227 0.29845 0.1381 0.0
H949 H 0.33624 0.31735 0.18351 0.0
H950 H 0.41717 0.35619 0.20014 0.0
H951 H 0.4233 0.33692 0.15434 0.0
H952 H 0.3905 0.3379 0.25189 0.0
H953 H 0.39035 0.39448 0.1747 0.0
H954 H 0.37826 0.40639 0.12695 0.0
H955 H 0.29911 0.3605 0.15003 0.0
H956 H 0.31085 0.3488 0.19825 0.0
H957 H 0.37908 0.41466 0.36445 0.0
H958 H 0.39175 0.40347 0.31708 0.0
H959 H 0.31275 0.35878 0.2914 0.0
H960 H 0.30009 0.37058 0.33839 0.0
H961 H 0.34261 0.38416 0.2435 0.0
H962 H 0.34549 0.33047 0.32409 0.0
H963 H 0.36047 0.32292 0.37262 0.0
H964 H 0.43798 0.36628 0.34253 0.0
H965 H 0.42352 0.37446 0.29402 0.0
C966 C 0.35882 0.31095 0.15147 0.0
C967 C 0.38332 0.31647 0.14241 0.0
C968 C 0.35536 0.32191 0.17734 0.0
C969 C 0.3763 0.33886 0.19484 0.0
C970 C 0.40073 0.34343 0.18681 0.0
C971 C 0.40422 0.33231 0.16077 0.0
C972 C 0.37228 0.35142 0.22149 0.0
C973 C 0.38052 0.34846 0.24993 0.0
C974 C 0.35869 0.36475 0.21928 0.0
C975 C 0.35145 0.37069 0.18987 0.0
C976 C 0.37038 0.38682 0.16944 0.0
C977 C 0.36359 0.39363 0.14239 0.0
C978 C 0.33792 0.38406 0.13533 0.0
C979 C 0.31898 0.36782 0.15545 0.0
C980 C 0.32569 0.36123 0.18273 0.0
C981 C 0.36449 0.40301 0.34828 0.0
C982 C 0.33859 0.39353 0.35504 0.0
C983 C 0.37172 0.39639 0.32138 0.0
C984 C 0.35319 0.37984 0.30089 0.0
C985 C 0.32741 0.37161 0.30679 0.0
C986 C 0.32017 0.37846 0.33358 0.0
C987 C 0.36047 0.37026 0.27394 0.0
C988 C 0.35278 0.37375 0.24543 0.0
C989 C 0.37484 0.35769 0.27614 0.0
C990 C 0.38344 0.35308 0.30548 0.0
C991 C 0.36573 0.33851 0.32791 0.0
C992 C 0.37411 0.33414 0.35541 0.0
C993 C 0.40012 0.34412 0.36068 0.0
C994 C 0.41783 0.35854 0.33844 0.0
C995 C 0.40956 0.36303 0.31094 0.0
H996 H 0.40653 0.34067 0.38197 0.0
H997 H 0.33272 0.38927 0.1143 0.0
H998 H 0.72726 0.06735 0.15775 0.0
H999 H 0.70889 0.04251 0.2037 0.0
H1000 H 0.64545 0.05566 0.19696 0.0
H1001 H 0.6637 0.08027 0.15037 0.0
H1002 H 0.66764 0.055 0.26072 0.0
H1003 H 0.63318 1.00664 0.16832 0.0
H1004 H 0.63875 0.99364 0.11758 0.0
H1005 H 0.68274 0.96243 0.15458 0.0
H1006 H 0.6779 0.97576 0.20551 0.0
H1007 H 0.59352 0.95726 0.36133 0.0
H1008 H 0.6029 0.98172 0.3145 0.0
H1009 H 0.65512 0.95618 0.28871 0.0
H1010 H 0.64497 0.93102 0.33501 0.0
H1011 H 0.63578 0.9635 0.24005 0.0
H1012 H 0.67352 0.01153 0.3295 0.0
H1013 H 0.67546 0.02849 0.38046 0.0
H1014 H 0.63282 0.06347 0.35049 0.0
H1015 H 0.63026 0.0464 0.2994 0.0
C1016 C 0.70997 0.06587 0.16684 0.0
C1017 C 0.69702 0.07594 0.15087 0.0
C1018 C 0.69939 0.05151 0.1929 0.0
C1019 C 0.6757 0.04703 0.20348 0.0
C1020 C 0.66377 0.05895 0.1891 0.0
C1021 C 0.67427 0.07316 0.16271 0.0
C1022 C 0.66219 0.02738 0.227 0.0
C1023 C 0.66012 0.03497 0.25612 0.0
C1024 C 0.65327 1.0013 0.22114 0.0
C1025 C 0.65534 0.99238 0.1907 0.0
C1026 C 0.64418 0.99715 0.16562 0.0
C1027 C 0.64719 0.98972 0.13683 0.0
C1028 C 0.66112 0.97726 0.13285 0.0
C1029 C 0.67197 0.97211 0.1577 0.0
C1030 C 0.66908 0.97958 0.18654 0.0
C1031 C 0.60601 0.95591 0.3449 0.0
C1032 C 0.61837 0.94212 0.3516 0.0
C1033 C 0.61172 0.97022 0.31838 0.0
C1034 C 0.63037 0.9715 0.29847 0.0
C1035 C 0.64081 0.9557 0.30375 0.0
C1036 C 0.63483 0.94109 0.3301 0.0
C1037 C 0.6409 0.99105 0.27406 0.0
C1038 C 0.6427 0.98348 0.24468 0.0
C1039 C 0.6501 0.0173 0.27987 0.0
C1040 C 0.65129 0.02727 0.31072 0.0
C1041 C 0.66427 0.02256 0.33385 0.0
C1042 C 0.66552 0.03224 0.36276 0.0
C1043 C 0.65412 0.04689 0.36877 0.0
C1044 C 0.64152 0.05199 0.34584 0.0
C1045 C 0.64014 0.0423 0.31691 0.0
H1046 H 0.65515 0.05438 0.39117 0.0
H1047 H 0.66346 0.97154 0.11054 0.0
H1048 H 0.97381 0.61185 0.12927 0.0
H1049 H 0.99662 0.62242 0.17709 0.0
H1050 H 0.94751 0.6491 0.21146 0.0
H1051 H 0.92494 0.639 0.16325 0.0
H1052 H 0.9945 0.68328 0.22137 0.0
H1053 H 0.94648 0.59375 0.23865 0.0
H1054 H 0.92877 0.54811 0.22778 0.0
H1055 H 1.00434 0.55905 0.22234 0.0
H1056 H 0.02255 0.60488 0.23285 0.0
H1057 H 0.03824 0.70194 0.37133 0.0
H1058 H 0.01435 0.68807 0.32457 0.0
H1059 H 0.06666 0.66517 0.29081 0.0
H1060 H 0.09029 0.67827 0.33865 0.0
H1061 H 0.01859 0.62904 0.28033 0.0
H1062 H 0.06573 0.71981 0.26463 0.0
H1063 H 0.08161 0.76484 0.27731 0.0
H1064 H 1.00481 0.7506 0.28193 0.0
H1065 H 0.98847 0.70536 0.26962 0.0
C1066 C 0.96749 0.61943 0.14729 0.0
C1067 C 0.94758 0.62462 0.14245 0.0
C1068 C 0.98049 0.62538 0.17473 0.0
C1069 C 0.97376 0.63644 0.19816 0.0
C1070 C 0.95302 0.64045 0.19388 0.0
C1071 C 0.93995 0.63446 0.16638 0.0
C1072 C 0.98969 0.64574 0.22594 0.0
C1073 C 0.9994 0.67125 0.23453 0.0
C1074 C 0.99676 0.63036 0.24274 0.0
C1075 C 0.98588 0.60282 0.2363 0.0
C1076 C 0.95934 0.58649 0.23493 0.0
C1077 C 0.94921 0.56056 0.22888 0.0
C1078 C 0.96542 0.5507 0.22431 0.0
C1079 C 0.99181 0.56673 0.22586 0.0
C1080 C 1.00204 0.59268 0.2319 0.0
C1081 C 0.04476 0.69402 0.35394 0.0
C1082 C 0.06601 0.69092 0.35885 0.0
C1083 C 0.0312 0.68633 0.32699 0.0
C1084 C 0.03881 0.67585 0.30383 0.0
C1085 C 0.06047 0.67333 0.30826 0.0
C1086 C 0.07408 0.68098 0.33548 0.0
C1087 C 0.02332 0.66654 0.27574 0.0
C1088 C 0.01371 0.64105 0.2671 0.0
C1089 C 0.01607 0.68186 0.25908 0.0
C1090 C 0.02589 0.70912 0.26636 0.0
C1091 C 0.05223 0.72622 0.26851 0.0
C1092 C 0.06131 0.7518 0.27561 0.0
C1093 C 0.04423 0.76057 0.28047 0.0
C1094 C 0.01803 0.74378 0.27817 0.0
C1095 C 1.00885 0.71817 0.27108 0.0
H1096 H 0.0513 0.78039 0.28598 0.0
H1097 H 0.95754 0.53062 0.21962 0.0
H1098 H 0.69378 0.68315 0.61563 0.0
H1099 H 0.68304 0.69255 0.6639 0.0
H1100 H 0.70863 0.64537 0.70666 0.0
H1101 H 0.71528 0.63197 0.65735 0.0
H1102 H 0.67326 0.64013 0.73737 0.0
H1103 H 0.74416 0.71662 0.70275 0.0
H1104 H 0.77078 0.75226 0.66859 0.0
H1105 H 0.71468 0.77579 0.66951 0.0
H1106 H 0.68755 0.74008 0.70335 0.0
H1107 H 0.69489 0.70953 0.87542 0.0
H1108 H 0.70442 0.70006 0.82538 0.0
H1109 H 0.63751 0.69875 0.79026 0.0
H1110 H 0.62695 0.707 0.84101 0.0
H1111 H 0.69467 0.72915 0.758 0.0
H1112 H 0.62462 0.64679 0.79556 0.0
H1113 H 0.60627 0.61477 0.83614 0.0
H1114 H 0.67314 0.60739 0.83615 0.0
H1115 H 0.69204 0.6397 0.79592 0.0
C1116 C 0.69627 0.67368 0.63486 0.0
C1117 C 0.70493 0.65605 0.63179 0.0
C1118 C 0.69089 0.67997 0.66297 0.0
C1119 C 0.6958 0.67052 0.68938 0.0
C1120 C 0.70477 0.65318 0.68674 0.0
C1121 C 0.70897 0.64578 0.65832 0.0
C1122 C 0.69092 0.6784 0.71943 0.0
C1123 C 0.6783 0.6597 0.74171 0.0
C1124 C 0.69746 0.70398 0.72578 0.0
C1125 C 0.71372 0.72551 0.70538 0.0
C1126 C 0.73742 0.72929 0.6955 0.0
C1127 C 0.75261 0.74952 0.67621 0.0
C1128 C 0.7444 0.76624 0.66682 0.0
C1129 C 0.721 0.7628 0.67677 0.0
C1130 C 0.70572 0.74258 0.69603 0.0
C1131 C 0.68201 0.70703 0.85718 0.0
C1132 C 0.65977 0.70836 0.86239 0.0
C1133 C 0.68765 0.70184 0.82857 0.0
C1134 C 0.6715 0.69842 0.80438 0.0
C1135 C 0.6501 0.70123 0.80886 0.0
C1136 C 0.64417 0.70605 0.83777 0.0
C1137 C 0.67671 0.69085 0.77481 0.0
C1138 C 0.68962 0.70965 0.75303 0.0
C1139 C 0.67153 0.66574 0.76945 0.0
C1140 C 0.65977 0.64574 0.79289 0.0
C1141 C 0.63545 0.63844 0.80435 0.0
C1142 C 0.62496 0.62024 0.82728 0.0
C1143 C 0.63856 0.60911 0.83878 0.0
C1144 C 0.66264 0.61606 0.82727 0.0
C1145 C 0.67323 0.63427 0.80438 0.0
H1146 H 0.63043 0.59505 0.85657 0.0
H1147 H 0.75619 0.78189 0.65189 0.0
H1148 H 0.36813 0.08262 0.66216 0.0
H1149 H 0.36246 0.06287 0.71174 0.0
H1150 H 0.40001 0.02263 0.68029 0.0
H1151 H 0.40514 0.04195 0.63052 0.0
H1152 H 0.35618 0.99038 0.70285 0.0
H1153 H 0.42513 0.06966 0.73628 0.0
H1154 H 0.45026 0.116 0.74479 0.0
H1155 H 0.38969 0.11281 0.7982 0.0
H1156 H 0.36388 0.06651 0.78947 0.0
H1157 H 0.34034 0.9315 0.84961 0.0
H1158 H 0.35772 0.95458 0.80191 0.0
H1159 H 0.32014 0.99803 0.81787 0.0
H1160 H 0.30295 0.97521 0.86505 0.0
H1161 H 0.36949 0.02885 0.80439 0.0
H1162 H 0.29871 0.95186 0.76443 0.0
H1163 H 0.2727 0.90555 0.75588 0.0
H1164 H 0.3369 0.90516 0.71556 0.0
H1165 H 0.3634 0.95148 0.72416 0.0
C1166 C 0.37598 0.07029 0.6662 0.0
C1167 C 0.38704 0.06378 0.64254 0.0
C1168 C 0.37269 0.05893 0.69455 0.0
C1169 C 0.38075 0.04116 0.69984 0.0
C1170 C 0.39349 0.03614 0.67677 0.0
C1171 C 0.39656 0.04729 0.6484 0.0
C1172 C 0.37319 0.02559 0.72791 0.0
C1173 C 0.35964 0.99888 0.72508 0.0
C1174 C 0.37708 0.03656 0.75697 0.0
C1175 C 0.39242 0.06455 0.76191 0.0
C1176 C 0.417 0.07884 0.74953 0.0
C1177 C 0.43139 0.10512 0.75444 0.0
C1178 C 0.42153 0.11735 0.77193 0.0
C1179 C 0.39726 0.10332 0.78458 0.0
C1180 C 0.38274 0.07705 0.77964 0.0
C1181 C 0.33539 0.94556 0.84244 0.0
C1182 C 0.32042 0.95167 0.86095 0.0
C1183 C 0.34541 0.95884 0.81537 0.0
C1184 C 0.34042 0.97823 0.80647 0.0
C1185 C 0.32451 0.98341 0.8244 0.0
C1186 C 0.31457 0.97024 0.85124 0.0
C1187 C 0.3522 0.99387 0.77908 0.0
C1188 C 0.36647 0.02051 0.7821 0.0
C1189 C 0.34892 0.98292 0.75019 0.0
C1190 C 0.33311 0.95507 0.74525 0.0
C1191 C 0.30735 0.94186 0.754 0.0
C1192 C 0.29251 0.91563 0.74908 0.0
C1193 C 0.30316 0.90243 0.73523 0.0
C1194 C 0.32869 0.91542 0.72629 0.0
C1195 C 0.34362 0.94166 0.73116 0.0
H1196 H 0.29159 0.88217 0.7313 0.0
H1197 H 0.43273 0.13768 0.77573 0.0
H1198 H 0.95933 0.36116 0.64495 0.0
H1199 H 0.98211 0.37485 0.69303 0.0
H1200 H 0.97876 0.30226 0.70138 0.0
H1201 H 0.95506 0.28831 0.65398 0.0
H1202 H 0.97672 0.31848 0.75501 0.0
H1203 H 0.03004 0.35445 0.66884 0.0
H1204 H 0.04364 0.37789 0.62076 0.0
H1205 H 0.05449 0.44571 0.6647 0.0
H1206 H 0.04048 0.42252 0.71296 0.0
H1207 H 0.08818 0.35683 0.84072 0.0
H1208 H 0.06606 0.34933 0.79233 0.0
H1209 H 0.04442 0.40506 0.81506 0.0
H1210 H 0.06589 0.41204 0.86389 0.0
H1211 H 0.05993 0.39866 0.74629 0.0
H1212 H 1.00309 0.35765 0.83343 0.0
H1213 H 0.99221 0.33197 0.8799 0.0
H1214 H 0.99191 0.27079 0.83083 0.0
H1215 H 1.00327 0.29636 0.78417 0.0
C1216 C 0.96257 0.34784 0.6578 0.0
C1217 C 0.95527 0.32363 0.64618 0.0
C1218 C 0.97587 0.35575 0.685 0.0
C1219 C 0.98277 0.33984 0.70044 0.0
C1220 C 0.97377 0.31492 0.68987 0.0
C1221 C 0.96011 0.30688 0.66292 0.0
C1222 C 1.00115 0.3498 0.7259 0.0
C1223 C 0.99489 0.33597 0.75295 0.0
C1224 C 0.02508 0.37255 0.72331 0.0
C1225 C 0.03397 0.38668 0.69445 0.0
C1226 C 0.03519 0.37433 0.66822 0.0
C1227 C 0.04296 0.38756 0.64093 0.0
C1228 C 0.04988 0.41326 0.63967 0.0
C1229 C 0.04909 0.42579 0.66571 0.0
C1230 C 0.04123 0.41261 0.69304 0.0
C1231 C 0.07967 0.36827 0.83476 0.0
C1232 C 0.07884 0.38514 0.85576 0.0
C1233 C 0.06693 0.36386 0.80727 0.0
C1234 C 0.05354 0.37655 0.80034 0.0
C1235 C 0.05479 0.39522 0.82003 0.0
C1236 C 0.06711 0.39927 0.84778 0.0
C1237 C 0.03517 0.36751 0.77514 0.0
C1238 C 0.04157 0.38138 0.74822 0.0
C1239 C 0.01163 0.34453 0.77754 0.0
C1240 C 1.00427 0.32899 0.80542 0.0
C1241 C 1.00092 0.33881 0.83262 0.0
C1242 C 0.99463 0.32427 0.85898 0.0
C1243 C 0.99141 0.29978 0.85833 0.0
C1244 C 0.99443 0.28977 0.8313 0.0
C1245 C 1.00078 0.30427 0.8049 0.0
H1246 H 0.98652 0.28853 0.87874 0.0
H1247 H 0.05589 0.42348 0.61853 0.0
H1248 H 0.535 0.25 0.08669 0.0
H1249 H 0.57013 0.2414 0.0958 0.0
H1250 H 0.56642 0.21852 0.00319 0.0
H1251 H 0.5321 0.22775 0.99383 0.0
H1252 H 0.56591 0.18317 0.04591 0.0
H1253 H 0.61331 0.27156 0.0197 0.0
H1254 H 0.63016 0.31792 0.02185 0.0
H1255 H 0.6564 0.31991 0.1121 0.0
H1256 H 0.63943 0.27346 0.11062 0.0
H1257 H 0.67968 0.18126 0.01576 0.0
H1258 H 0.64372 0.18879 0.01692 0.0
H1259 H 0.66261 0.21641 0.10805 0.0
H1260 H 0.69883 0.20896 0.10707 0.0
H1261 H 0.65444 0.2485 0.07217 0.0
H1262 H 0.61049 0.15936 0.09452 0.0
H1263 H 0.59816 0.1143 0.08732 0.0
H1264 H 0.56719 0.11446 0.00046 0.0
H1265 H 0.57967 0.15965 0.00694 0.0
C1266 C 0.54174 0.24313 0.06836 0.0
C1267 C 0.53077 0.23942 0.03959 0.0
C1268 C 0.56186 0.23837 0.07352 0.0
C1269 C 0.57089 0.22931 0.05014 0.0
C1270 C 0.55977 0.22548 0.02154 0.0
C1271 C 0.54015 0.23076 0.01623 0.0
C1272 C 0.59127 0.22288 0.05539 0.0
C1273 C 0.5853 0.19748 0.05157 0.0
C1274 C 0.61645 0.24145 0.06332 0.0
C1275 C 0.62475 0.26895 0.06521 0.0
C1276 C 0.62226 0.28178 0.04021 0.0
C1277 C 0.63207 0.30812 0.04119 0.0
C1278 C 0.6445 0.32187 0.06702 0.0
C1279 C 0.6469 0.30925 0.09205 0.0
C1280 C 0.63714 0.28292 0.09117 0.0
C1281 C 0.67608 0.18867 0.03622 0.0
C1282 C 0.69219 0.19448 0.06134 0.0
C1283 C 0.65541 0.1929 0.03687 0.0
C1284 C 0.6503 0.20302 0.06265 0.0
C1285 C 0.66614 0.20854 0.08793 0.0
C1286 C 0.68677 0.20415 0.08737 0.0
C1287 C 0.62913 0.20883 0.06249 0.0
C1288 C 0.63494 0.23409 0.06718 0.0
C1289 C 0.60383 0.19019 0.05508 0.0
C1290 C 0.59619 0.16297 0.05114 0.0
C1291 C 0.60122 0.14985 0.07379 0.0
C1292 C 0.59417 0.12427 0.06985 0.0
C1293 C 0.58194 0.11154 0.04343 0.0
C1294 C 0.57668 0.12435 0.02091 0.0
C1295 C 0.58371 0.14994 0.02472 0.0
H1296 H 0.5765 0.09174 0.04042 0.0
H1297 H 0.65207 0.34226 0.06774 0.0
H1298 H 0.74647 0.28799 0.01546 0.0
H1299 H 0.75911 0.33264 0.02331 0.0
H1300 H 0.82707 0.34481 0.06921 0.0
H1301 H 0.81355 0.2995 0.06281 0.0
H1302 H 0.81154 0.37212 0.09555 0.0
H1303 H 0.82728 0.36274 0.99313 0.0
H1304 H 0.81796 0.34407 0.9422 0.0
H1305 H 0.75918 0.36337 0.93179 0.0
H1306 H 0.76792 0.38185 0.98283 0.0
H1307 H 0.84936 0.50498 0.01813 0.0
H1308 H 0.84521 0.46273 0.01737 0.0
H1309 H 0.79702 0.44161 0.0961 0.0
H1310 H 0.80242 0.48431 0.09788 0.0
H1311 H 0.80852 0.42026 0.00682 0.0
H1312 H 0.79466 0.39286 0.13418 0.0
H1313 H 0.81086 0.41352 0.18338 0.0
H1314 H 0.87868 0.47211 0.141 0.0
H1315 H 0.86305 0.45163 0.09161 0.0
C1316 C 0.76399 0.30015 0.02748 0.0
C1317 C 0.77911 0.29037 0.0384 0.0
C1318 C 0.77134 0.32576 0.03178 0.0
C1319 C 0.79445 0.34245 0.04616 0.0
C1320 C 0.80922 0.33246 0.05793 0.0
C1321 C 0.80152 0.30659 0.05425 0.0
C1322 C 0.80325 0.37027 0.04817 0.0
C1323 C 0.81094 0.38267 0.07613 0.0
C1324 C 0.80338 0.38446 0.02271 0.0
C1325 C 0.79814 0.37352 0.9919 0.0
C1326 C 0.81227 0.36287 0.98004 0.0
C1327 C 0.80709 0.35234 0.95115 0.0
C1328 C 0.78795 0.35249 0.9338 0.0
C1329 C 0.77399 0.36325 0.94527 0.0
C1330 C 0.77906 0.37378 0.97417 0.0
C1331 C 0.83828 0.49145 0.03561 0.0
C1332 C 0.82635 0.49805 0.05816 0.0
C1333 C 0.83579 0.46721 0.03509 0.0
C1334 C 0.82092 0.44877 0.05679 0.0
C1335 C 0.80917 0.45549 0.07952 0.0
C1336 C 0.81217 0.47996 0.08045 0.0
C1337 C 0.81633 0.42214 0.05439 0.0
C1338 C 0.80935 0.40989 0.02629 0.0
C1339 C 0.81791 0.40848 0.07947 0.0
C1340 C 0.82755 0.42081 0.10914 0.0
C1341 C 0.81308 0.41009 0.13537 0.0
C1342 C 0.82215 0.42178 0.16329 0.0
C1343 C 0.84575 0.44415 0.1653 0.0
C1344 C 0.86036 0.45484 0.1394 0.0
C1345 C 0.85139 0.44321 0.11143 0.0
H1346 H 0.85273 0.45319 0.18694 0.0
H1347 H 0.78397 0.34432 0.91143 0.0
H1348 H 0.71721 0.47851 0.98785 0.0
H1349 H 0.67275 0.44625 0.99694 0.0
H1350 H 0.68504 0.45695 0.09269 0.0
H1351 H 0.72978 0.48969 0.08366 0.0
H1352 H 0.65597 0.40389 0.07327 0.0
H1353 H 0.65582 0.48266 0.06282 0.0
H1354 H 0.66662 0.52335 0.0383 0.0
H1355 H 0.6259 0.48317 0.95899 0.0
H1356 H 0.61519 0.44223 0.98288 0.0
H1357 H 0.52423 0.33029 0.10501 0.0
H1358 H 0.56706 0.36761 0.10438 0.0
H1359 H 0.56359 0.3714 0.00768 0.0
H1360 H 0.52068 0.33441 0.0081 0.0
H1361 H 0.58835 0.41883 0.03221 0.0
H1362 H 0.59006 0.34073 0.04056 0.0
H1363 H 0.57684 0.29932 0.06457 0.0
H1364 H 0.61463 0.33726 0.14621 0.0
H1365 H 0.62735 0.37896 0.12297 0.0
C1366 C 0.71051 0.47397 0.01087 0.0
C1367 C 0.72693 0.4867 0.03506 0.0
C1368 C 0.68508 0.45553 0.01602 0.0
C1369 C 0.67552 0.44928 0.04548 0.0
C1370 C 0.69203 0.46148 0.06978 0.0
C1371 C 0.71751 0.48022 0.0646 0.0
C1372 C 0.64807 0.43057 0.05048 0.0
C1373 C 0.64116 0.40733 0.06482 0.0
C1374 C 0.62875 0.43482 0.03887 0.0
C1375 C 0.63488 0.45938 0.02456 0.0
C1376 C 0.64932 0.4825 0.04007 0.0
C1377 C 0.65541 0.50562 0.0263 0.0
C1378 C 0.647 0.50585 0.99708 0.0
C1379 C 0.63242 0.48296 0.98161 0.0
C1380 C 0.62631 0.45979 0.99527 0.0
C1381 C 0.53236 0.33931 0.08363 0.0
C1382 C 0.51906 0.3291 0.05656 0.0
C1383 C 0.55691 0.36064 0.08331 0.0
C1384 C 0.56876 0.37205 0.05593 0.0
C1385 C 0.55491 0.36289 0.02908 0.0
C1386 C 0.53035 0.34163 0.02937 0.0
C1387 C 0.59618 0.39209 0.05487 0.0
C1388 C 0.60311 0.41551 0.04107 0.0
C1389 C 0.6155 0.38788 0.06676 0.0
C1390 C 0.60935 0.36298 0.08015 0.0
C1391 C 0.59539 0.34026 0.06372 0.0
C1392 C 0.58781 0.31671 0.07726 0.0
C1393 C 0.59464 0.31563 0.10702 0.0
C1394 C 0.6092 0.33812 0.12322 0.0
C1395 C 0.61655 0.36173 0.10989 0.0
H1396 H 0.58891 0.29737 0.11739 0.0
H1397 H 0.65173 0.52376 0.98645 0.0
H1398 H 0.21309 0.68801 0.48648 0.0
H1399 H 0.22179 0.65285 0.48328 0.0
H1400 H 0.19518 0.63882 0.39155 0.0
H1401 H 0.18703 0.67469 0.39422 0.0
H1402 H 0.17753 0.59275 0.43505 0.0
H1403 H 0.25022 0.66541 0.39338 0.0
H1404 H 0.28546 0.70982 0.3909 0.0
H1405 H 0.31817 0.69823 0.47084 0.0
H1406 H 0.28254 0.65417 0.47463 0.0
H1407 H 0.22994 0.50945 0.41759 0.0
H1408 H 0.21778 0.54181 0.407 0.0
H1409 H 0.25844 0.58341 0.48621 0.0
H1410 H 0.27068 0.55145 0.49664 0.0
H1411 H 0.26817 0.61509 0.43996 0.0
H1412 H 0.19329 0.54516 0.48553 0.0
H1413 H 0.1583 0.50064 0.48934 0.0
H1414 H 0.13054 0.50671 0.4026 0.0
H1415 H 0.16561 0.5512 0.3981 0.0
C1416 C 0.20874 0.6773 0.46569 0.0
C1417 C 0.19934 0.68417 0.44059 0.0
C1418 C 0.21382 0.65724 0.4639 0.0
C1419 C 0.20921 0.64331 0.43717 0.0
C1420 C 0.19884 0.64936 0.41239 0.0
C1421 C 0.19426 0.66986 0.41394 0.0
C1422 C 0.21648 0.62331 0.43514 0.0
C1423 C 0.19734 0.59757 0.4355 0.0
C1424 C 0.24233 0.62967 0.43621 0.0
C1425 C 0.26344 0.65651 0.43452 0.0
C1426 C 0.26462 0.67247 0.41081 0.0
C1427 C 0.2847 0.69762 0.40915 0.0
C1428 C 0.30397 0.70693 0.43081 0.0
C1429 C 0.30313 0.69114 0.45424 0.0
C1430 C 0.28294 0.66608 0.4562 0.0
C1431 C 0.23635 0.5256 0.43259 0.0
C1432 C 0.25123 0.52794 0.45795 0.0
C1433 C 0.22931 0.544 0.42661 0.0
C1434 C 0.23702 0.56499 0.44594 0.0
C1435 C 0.25227 0.56746 0.47093 0.0
C1436 C 0.25921 0.54912 0.47692 0.0
C1437 C 0.22925 0.58445 0.44068 0.0
C1438 C 0.24834 0.61018 0.43902 0.0
C1439 C 0.20338 0.57805 0.43856 0.0
C1440 C 0.18224 0.55139 0.44132 0.0
C1441 C 0.17985 0.53693 0.46716 0.0
C1442 C 0.15998 0.51172 0.46947 0.0
C1443 C 0.14226 0.50083 0.44618 0.0
C1444 C 0.14432 0.51516 0.42058 0.0
C1445 C 0.16417 0.54037 0.41815 0.0
H1446 H 0.12689 0.48131 0.448 0.0
H1447 H 0.31963 0.72631 0.42925 0.0
H1448 H 0.51802 0.71739 0.43926 0.0
H1449 H 0.48524 0.67275 0.43166 0.0
H1450 H 0.42961 0.68741 0.47389 0.0
H1451 H 0.4628 0.73138 0.48339 0.0
H1452 H 0.42092 0.64624 0.49349 0.0
H1453 H 0.43367 0.67749 0.39292 0.0
H1454 H 0.45768 0.6989 0.34692 0.0
H1455 H 0.48255 0.6441 0.33886 0.0
H1456 H 0.45894 0.62254 0.38505 0.0
H1457 H 0.32651 0.52841 0.39751 0.0
H1458 H 0.36078 0.57291 0.39922 0.0
H1459 H 0.38861 0.5578 0.4816 0.0
H1460 H 0.35372 0.51367 0.48069 0.0
H1461 H 0.40949 0.59941 0.39796 0.0
H1462 H 0.41124 0.60694 0.52877 0.0
H1463 H 0.38161 0.58746 0.57148 0.0
H1464 H 0.3181 0.56889 0.51332 0.0
H1465 H 0.34734 0.5886 0.47041 0.0
C1466 C 0.49871 0.71103 0.44665 0.0
C1467 C 0.49288 0.72779 0.46184 0.0
C1468 C 0.47988 0.6855 0.44217 0.0
C1469 C 0.45462 0.67647 0.45179 0.0
C1470 C 0.44884 0.69359 0.46636 0.0
C1471 C 0.4678 0.71882 0.47165 0.0
C1472 C 0.4344 0.64911 0.4479 0.0
C1473 C 0.41851 0.63615 0.47251 0.0
C1474 C 0.43057 0.6357 0.42043 0.0
C1475 C 0.44473 0.64855 0.39261 0.0
C1476 C 0.4444 0.67011 0.38145 0.0
C1477 C 0.45792 0.68225 0.35533 0.0
C1478 C 0.47169 0.67291 0.34002 0.0
C1479 C 0.47191 0.65134 0.35076 0.0
C1480 C 0.45844 0.63913 0.3769 0.0
C1481 C 0.34011 0.53451 0.41581 0.0
C1482 C 0.33723 0.51755 0.43914 0.0
C1483 C 0.35975 0.56 0.41677 0.0
C1484 C 0.37707 0.56902 0.4409 0.0
C1485 C 0.37513 0.55162 0.46317 0.0
C1486 C 0.35524 0.5263 0.46253 0.0
C1487 C 0.39635 0.59674 0.44359 0.0
C1488 C 0.41201 0.60965 0.41886 0.0
C1489 C 0.3992 0.61051 0.47048 0.0
C1490 C 0.38149 0.59902 0.49633 0.0
C1491 C 0.39096 0.59881 0.52514 0.0
C1492 C 0.37423 0.58771 0.54938 0.0
C1493 C 0.34798 0.57687 0.5451 0.0
C1494 C 0.33842 0.57722 0.5166 0.0
C1495 C 0.35507 0.58834 0.49231 0.0
H1496 H 0.33506 0.56824 0.56387 0.0
H1497 H 0.48215 0.68234 0.31981 0.0
H1498 H 0.49392 0.81042 0.39996 0.0
H1499 H 0.45036 0.80289 0.40192 0.0
H1500 H 0.46318 0.83228 0.49258 0.0
H1501 H 0.50641 0.83903 0.49109 0.0
H1502 H 0.42009 0.7908 0.49089 0.0
H1503 H 0.45862 0.86556 0.42897 0.0
H1504 H 0.48314 0.8923 0.3859 0.0
H1505 H 0.42882 0.83716 0.32459 0.0
H1506 H 0.40414 0.80992 0.36731 0.0
H1507 H 0.30826 0.7976 0.50882 0.0
H1508 H 0.35279 0.80926 0.50223 0.0
H1509 H 0.33565 0.77576 0.41355 0.0
H1510 H 0.29098 0.76478 0.41978 0.0
H1511 H 0.38052 0.81861 0.41305 0.0
H1512 H 0.34124 0.7451 0.47715 0.0
H1513 H 0.31715 0.71961 0.52123 0.0
H1514 H 0.37421 0.77465 0.5802 0.0
H1515 H 0.39836 0.80063 0.53647 0.0
C1516 C 0.48758 0.81558 0.42019 0.0
C1517 C 0.50371 0.82535 0.44537 0.0
C1518 C 0.46262 0.81134 0.42125 0.0
C1519 C 0.45337 0.8172 0.44732 0.0
C1520 C 0.46972 0.8275 0.47221 0.0
C1521 C 0.49453 0.83146 0.47129 0.0
C1522 C 0.42637 0.81147 0.44936 0.0
C1523 C 0.41162 0.79727 0.47407 0.0
C1524 C 0.41491 0.81922 0.42706 0.0
C1525 C 0.42968 0.83558 0.40134 0.0
C1526 C 0.45201 0.85904 0.4063 0.0
C1527 C 0.46592 0.87431 0.38195 0.0
C1528 C 0.45758 0.8664 0.35252 0.0
C1529 C 0.43528 0.84324 0.34739 0.0
C1530 C 0.42131 0.82789 0.37167 0.0
C1531 C 0.314 0.79285 0.48782 0.0
C1532 C 0.29613 0.78017 0.46486 0.0
C1533 C 0.33948 0.79942 0.48413 0.0
C1534 C 0.34761 0.79292 0.45765 0.0
C1535 C 0.32989 0.7809 0.43426 0.0
C1536 C 0.30437 0.77459 0.43782 0.0
C1537 C 0.37441 0.79824 0.45477 0.0
C1538 C 0.38906 0.81223 0.42988 0.0
C1539 C 0.38591 0.79053 0.4771 0.0
C1540 C 0.37148 0.77486 0.50348 0.0
C1541 C 0.34854 0.75179 0.49952 0.0
C1542 C 0.33489 0.73727 0.52444 0.0
C1543 C 0.34414 0.74552 0.5535 0.0
C1544 C 0.36706 0.76829 0.55768 0.0
C1545 C 0.38073 0.78291 0.53282 0.0
H1546 H 0.33356 0.73425 0.57277 0.0
H1547 H 0.46838 0.87824 0.3337 0.0
H1548 H 0.29561 0.78043 0.98724 0.0
H1549 H 0.32621 0.76549 0.98535 0.0
H1550 H 0.35374 0.80274 0.89963 0.0
H1551 H 0.32242 0.81715 0.90092 0.0
H1552 H 0.35153 0.75628 0.90103 0.0
H1553 H 0.38555 0.83095 0.96403 0.0
H1554 H 0.38479 0.85721 0.00598 0.0
H1555 H 0.37513 0.79934 0.0691 0.0
H1556 H 0.37551 0.77259 0.02746 0.0
H1557 H 0.47771 0.77265 0.90666 0.0
H1558 H 0.43906 0.77582 0.90203 0.0
H1559 H 0.41241 0.73771 0.98748 0.0
H1560 H 0.45098 0.73457 0.99221 0.0
H1561 H 0.41246 0.78217 0.9861 0.0
H1562 H 0.38384 0.70967 0.92314 0.0
H1563 H 0.38433 0.6834 0.88124 0.0
H1564 H 0.38445 0.7368 0.81761 0.0
H1565 H 0.38426 0.76365 0.85918 0.0
C1566 C 0.30793 0.78524 0.96776 0.0
C1567 C 0.30656 0.80009 0.94426 0.0
C1568 C 0.32554 0.77674 0.96679 0.0
C1569 C 0.34259 0.78326 0.94255 0.0
C1570 C 0.34083 0.79748 0.9186 0.0
C1571 C 0.32302 0.80585 0.91946 0.0
C1572 C 0.3631 0.77645 0.94316 0.0
C1573 C 0.36509 0.76221 0.9194 0.0
C1574 C 0.38039 0.78356 0.96753 0.0
C1575 C 0.38031 0.79968 0.99261 0.0
C1576 C 0.38309 0.82376 0.98684 0.0
C1577 C 0.38275 0.83874 0.01056 0.0
C1578 C 0.37985 0.82992 0.04018 0.0
C1579 C 0.37734 0.80613 0.04615 0.0
C1580 C 0.37764 0.79106 0.0225 0.0
C1581 C 0.46333 0.76444 0.92411 0.0
C1582 C 0.46742 0.75348 0.94987 0.0
C1583 C 0.44123 0.76625 0.92145 0.0
C1584 C 0.42282 0.75709 0.94447 0.0
C1585 C 0.42637 0.74503 0.9695 0.0
C1586 C 0.44838 0.74315 0.97212 0.0
C1587 C 0.40113 0.76214 0.94385 0.0
C1588 C 0.39891 0.77612 0.96768 0.0
C1589 C 0.38379 0.75482 0.91948 0.0
C1590 C 0.38425 0.73885 0.89438 0.0
C1591 C 0.38423 0.71601 0.90025 0.0
C1592 C 0.38438 0.70095 0.87653 0.0
C1593 C 0.38448 0.70845 0.84677 0.0
C1594 C 0.38438 0.73102 0.84068 0.0
C1595 C 0.38421 0.74615 0.86433 0.0
H1596 H 0.38459 0.69676 0.82843 0.0
H1597 H 0.37959 0.84154 0.05852 0.0
H1598 H 0.25779 0.69971 0.99027 0.0
H1599 H 0.25299 0.65773 0.98234 0.0
H1600 H 0.22776 0.65694 0.89134 0.0
H1601 H 0.23196 0.69901 0.8995 0.0
H1602 H 0.19694 0.61173 0.92204 0.0
H1603 H 0.28688 0.66173 0.89855 0.0
H1604 H 0.32879 0.69941 0.90891 0.0
H1605 H 0.32757 0.67198 0.99837 0.0
H1606 H 0.28553 0.63407 0.98846 0.0
H1607 H 0.19675 0.49536 0.8961 0.0
H1608 H 0.20619 0.53949 0.89072 0.0
H1609 H 0.23878 0.55653 0.97983 0.0
H1610 H 0.22987 0.5128 0.98517 0.0
H1611 H 0.26764 0.59481 0.94257 0.0
H1612 H 0.17781 0.54476 0.96596 0.0
H1613 H 0.13358 0.51008 0.95834 0.0
H1614 H 0.13261 0.53971 0.87082 0.0
H1615 H 0.17698 0.5744 0.87779 0.0
C1616 C 0.25154 0.69077 0.96843 0.0
C1617 C 0.24535 0.70262 0.94545 0.0
C1618 C 0.24886 0.66678 0.96389 0.0
C1619 C 0.2403 0.6543 0.93612 0.0
C1620 C 0.23445 0.66627 0.9129 0.0
C1621 C 0.23703 0.69032 0.91751 0.0
C1622 C 0.23687 0.62845 0.93206 0.0
C1623 C 0.21248 0.60803 0.92577 0.0
C1624 C 0.25704 0.62364 0.93751 0.0
C1625 C 0.28328 0.64496 0.94265 0.0
C1626 C 0.29574 0.66358 0.92028 0.0
C1627 C 0.31947 0.685 0.92611 0.0
C1628 C 0.33093 0.68801 0.95424 0.0
C1629 C 0.31874 0.66951 0.97652 0.0
C1630 C 0.29502 0.648 0.97077 0.0
C1631 C 0.2059 0.5085 0.91456 0.0
C1632 C 0.21231 0.50042 0.94117 0.0
C1633 C 0.2113 0.53374 0.91145 0.0
C1634 C 0.22302 0.55134 0.93499 0.0
C1635 C 0.22979 0.54338 0.96134 0.0
C1636 C 0.22447 0.51824 0.96443 0.0
C1637 C 0.22749 0.57779 0.93282 0.0
C1638 C 0.25214 0.59841 0.9381 0.0
C1639 C 0.20746 0.58276 0.92641 0.0
C1640 C 0.18079 0.56197 0.92224 0.0
C1641 C 0.16822 0.54376 0.945 0.0
C1642 C 0.14313 0.52412 0.94081 0.0
C1643 C 0.13032 0.52265 0.91407 0.0
C1644 C 0.14257 0.54085 0.8915 0.0
C1645 C 0.16768 0.5605 0.89555 0.0
H1646 H 0.11089 0.50743 0.91088 0.0
H1647 H 0.34915 0.70475 0.95888 0.0
H1648 H 0.32611 0.53762 0.99879 0.0
H1649 H 0.36731 0.57609 0.99072 0.0
H1650 H 0.35303 0.57108 0.89516 0.0
H1651 H 0.31152 0.53238 0.90317 0.0
H1652 H 0.40303 0.58074 0.91173 0.0
H1653 H 0.34626 0.61235 0.93297 0.0
H1654 H 0.31238 0.61229 0.96348 0.0
H1655 H 0.3628 0.64077 0.03942 0.0
H1656 H 0.39669 0.6398 0.00975 0.0
H1657 H 0.51679 0.70019 0.89313 0.0
H1658 H 0.4722 0.66624 0.88921 0.0
H1659 H 0.46364 0.66915 0.98539 0.0
H1660 H 0.50762 0.70372 0.98912 0.0
H1661 H 0.42271 0.66197 0.96119 0.0
H1662 H 0.47469 0.62299 0.94766 0.0
H1663 H 0.50778 0.61661 0.92361 0.0
H1664 H 0.46752 0.59962 0.83959 0.0
H1665 H 0.43434 0.6062 0.8631 0.0
C1666 C 0.33168 0.54476 0.97607 0.0
C1667 C 0.31561 0.53213 0.95161 0.0
C1668 C 0.35522 0.56672 0.97149 0.0
C1669 C 0.36316 0.57651 0.94236 0.0
C1670 C 0.34723 0.56382 0.9178 0.0
C1671 C 0.32352 0.54186 0.92242 0.0
C1672 C 0.38806 0.60013 0.93793 0.0
C1673 C 0.40725 0.59868 0.92198 0.0
C1674 C 0.39365 0.62331 0.95197 0.0
C1675 C 0.37397 0.62577 0.96917 0.0
C1676 C 0.35012 0.6185 0.95621 0.0
C1677 C 0.33087 0.61856 0.97341 0.0
C1678 C 0.3354 0.62649 0.00342 0.0
C1679 C 0.35929 0.63456 0.01621 0.0
C1680 C 0.37851 0.63417 0.99922 0.0
C1681 C 0.5053 0.69364 0.91337 0.0
C1682 C 0.51573 0.70448 0.94147 0.0
C1683 C 0.47984 0.67416 0.91114 0.0
C1684 C 0.46456 0.66468 0.93708 0.0
C1685 C 0.4749 0.67602 0.965 0.0
C1686 C 0.50013 0.69575 0.96714 0.0
C1687 C 0.43812 0.6425 0.93566 0.0
C1688 C 0.41852 0.64422 0.95045 0.0
C1689 C 0.43232 0.61935 0.92118 0.0
C1690 C 0.45223 0.6154 0.90703 0.0
C1691 C 0.47301 0.61808 0.924 0.0
C1692 C 0.49175 0.6144 0.91048 0.0
C1693 C 0.4898 0.6078 0.88006 0.0
C1694 C 0.46905 0.60479 0.86313 0.0
C1695 C 0.45026 0.60848 0.87654 0.0
H1696 H 0.50433 0.60495 0.86964 0.0
H1697 H 0.32042 0.62643 0.01675 0.0
H1698 H 0.75278 0.45602 0.50411 0.0
H1699 H 0.75631 0.41773 0.50936 0.0
H1700 H 0.78594 0.44078 0.59923 0.0
H1701 H 0.78286 0.47941 0.59375 0.0
H1702 H 0.81554 0.4293 0.56908 0.0
H1703 H 0.72363 0.37868 0.58907 0.0
H1704 H 0.67817 0.36414 0.57991 0.0
H1705 H 0.68602 0.34682 0.48816 0.0
H1706 H 0.73143 0.36099 0.49697 0.0
H1707 H 0.82082 0.31702 0.60027 0.0
H1708 H 0.80868 0.34993 0.60177 0.0
H1709 H 0.78373 0.33367 0.50943 0.0
H1710 H 0.79588 0.30076 0.50779 0.0
H1711 H 0.75036 0.34056 0.54329 0.0
H1712 H 0.84102 0.38488 0.52719 0.0
H1713 H 0.8855 0.39695 0.53841 0.0
H1714 H 0.88011 0.42623 0.62442 0.0
H1715 H 0.83545 0.41401 0.61388 0.0
C1716 C 0.75965 0.45269 0.52518 0.0
C1717 C 0.76756 0.47072 0.54852 0.0
C1718 C 0.76146 0.43063 0.52827 0.0
C1719 C 0.77114 0.42604 0.55484 0.0
C1720 C 0.77836 0.44376 0.57852 0.0
C1721 C 0.77655 0.46583 0.57541 0.0
C1722 C 0.77632 0.40441 0.55665 0.0
C1723 C 0.80109 0.40982 0.56403 0.0
C1724 C 0.75784 0.37901 0.54923 0.0
C1725 C 0.73091 0.37132 0.54352 0.0
C1726 C 0.71565 0.37195 0.5669 0.0
C1727 C 0.68989 0.36365 0.56182 0.0
C1728 C 0.67927 0.35477 0.5334 0.0
C1729 C 0.6943 0.35386 0.51011 0.0
C1730 C 0.72001 0.36193 0.51516 0.0
C1731 C 0.81266 0.32038 0.58031 0.0
C1732 C 0.80919 0.30617 0.55395 0.0
C1733 C 0.80577 0.33925 0.58118 0.0
C1734 C 0.7955 0.34449 0.55562 0.0
C1735 C 0.79156 0.32997 0.52946 0.0
C1736 C 0.7985 0.31114 0.52856 0.0
C1737 C 0.78949 0.36552 0.55586 0.0
C1738 C 0.76469 0.36001 0.54866 0.0
C1739 C 0.80794 0.39083 0.56355 0.0
C1740 C 0.83482 0.39829 0.56987 0.0
C1741 C 0.84926 0.39371 0.54859 0.0
C1742 C 0.87451 0.40061 0.55481 0.0
C1743 C 0.8856 0.41228 0.58215 0.0
C1744 C 0.87148 0.41715 0.60328 0.0
C1745 C 0.8462 0.41026 0.59719 0.0
H1746 H 0.90516 0.41761 0.58692 0.0
H1747 H 0.65938 0.34852 0.52943 0.0
H1748 H 0.51955 0.32601 0.59636 0.0
H1749 H 0.55569 0.36925 0.6027 0.0
H1750 H 0.60003 0.35216 0.54091 0.0
H1751 H 0.56428 0.30863 0.53536 0.0
H1752 H 0.62875 0.38142 0.58951 0.0
H1753 H 0.56961 0.38188 0.51592 0.0
H1754 H 0.52702 0.3728 0.4994 0.0
H1755 H 0.52543 0.4204 0.56995 0.0
H1756 H 0.56792 0.42953 0.58709 0.0
H1757 H 0.71704 0.49903 0.52512 0.0
H1758 H 0.67988 0.45672 0.5318 0.0
H1759 H 0.65303 0.485 0.60373 0.0
H1760 H 0.69059 0.52758 0.59756 0.0
H1761 H 0.61456 0.45159 0.55607 0.0
H1762 H 0.6695 0.44835 0.63301 0.0
H1763 H 0.71201 0.45886 0.65173 0.0
H1764 H 0.72123 0.41967 0.57669 0.0
H1765 H 0.67855 0.4084 0.5579 0.0
C1766 C 0.53721 0.33134 0.58466 0.0
C1767 C 0.53915 0.31406 0.56532 0.0
C1768 C 0.55777 0.35606 0.58816 0.0
C1769 C 0.58045 0.36399 0.57201 0.0
C1770 C 0.58273 0.34641 0.55363 0.0
C1771 C 0.5623 0.32157 0.55045 0.0
C1772 C 0.60119 0.39099 0.57268 0.0
C1773 C 0.62558 0.39666 0.58208 0.0
C1774 C 0.59702 0.41109 0.56376 0.0
C1775 C 0.57182 0.4062 0.55294 0.0
C1776 C 0.56013 0.39032 0.52798 0.0
C1777 C 0.53602 0.38518 0.5185 0.0
C1778 C 0.5235 0.39597 0.53366 0.0
C1779 C 0.53514 0.41204 0.55824 0.0
C1780 C 0.55925 0.41724 0.56782 0.0
C1781 C 0.70325 0.49635 0.54234 0.0
C1782 C 0.7068 0.51667 0.56085 0.0
C1783 C 0.68203 0.47215 0.5461 0.0
C1784 C 0.66376 0.46781 0.56821 0.0
C1785 C 0.66692 0.48806 0.58646 0.0
C1786 C 0.68842 0.5123 0.58299 0.0
C1787 C 0.64192 0.44176 0.57254 0.0
C1788 C 0.61747 0.43629 0.56393 0.0
C1789 C 0.64583 0.42187 0.58252 0.0
C1790 C 0.67087 0.42737 0.59426 0.0
C1791 C 0.68056 0.44177 0.62069 0.0
C1792 C 0.70462 0.4478 0.63134 0.0
C1793 C 0.7192 0.43966 0.61557 0.0
C1794 C 0.70975 0.42554 0.58912 0.0
C1795 C 0.68557 0.4192 0.57855 0.0
H1796 H 0.73785 0.44437 0.62381 0.0
H1797 H 0.50481 0.39191 0.52634 0.0
H1798 H 0.69337 0.21112 0.58511 0.0
H1799 H 0.65185 0.20806 0.59128 0.0
H1800 H 0.67638 0.27424 0.53476 0.0
H1801 H 0.71834 0.27778 0.52925 0.0
H1802 H 0.64644 0.2743 0.57894 0.0
H1803 H 0.64118 0.2137 0.50607 0.0
H1804 H 0.64646 0.1785 0.48664 0.0
H1805 H 0.59659 0.12893 0.55557 0.0
H1806 H 0.5913 0.16396 0.57569 0.0
H1807 H 0.51805 0.23314 0.5193 0.0
H1808 H 0.56292 0.245 0.52375 0.0
H1809 H 0.54613 0.20137 0.60563 0.0
H1810 H 0.50153 0.19071 0.60249 0.0
H1811 H 0.57222 0.19119 0.54994 0.0
H1812 H 0.57517 0.25306 0.61958 0.0
H1813 H 0.57153 0.28945 0.63782 0.0
H1814 H 0.62709 0.33826 0.57294 0.0
H1815 H 0.63017 0.30189 0.55323 0.0
C1816 C 0.69006 0.22527 0.57441 0.0
C1817 C 0.70896 0.24451 0.55644 0.0
C1818 C 0.66626 0.22342 0.57779 0.0
C1819 C 0.6607 0.24052 0.56286 0.0
C1820 C 0.6801 0.26069 0.54632 0.0
C1821 C 0.70406 0.26268 0.54314 0.0
C1822 C 0.63429 0.23637 0.56309 0.0
C1823 C 0.63022 0.25624 0.57226 0.0
C1824 C 0.61305 0.21268 0.55472 0.0
C1825 C 0.61605 0.19152 0.54256 0.0
C1826 C 0.63148 0.19534 0.51721 0.0
C1827 C 0.63446 0.17542 0.50606 0.0
C1828 C 0.62192 0.15151 0.51991 0.0
C1829 C 0.60632 0.14747 0.5449 0.0
C1830 C 0.60331 0.16734 0.55617 0.0
C1831 C 0.52399 0.2267 0.53878 0.0
C1832 C 0.50619 0.21139 0.56086 0.0
C1833 C 0.54965 0.23342 0.54119 0.0
C1834 C 0.55789 0.22437 0.56525 0.0
C1835 C 0.54019 0.20884 0.58712 0.0
C1836 C 0.51468 0.20268 0.58518 0.0
C1837 C 0.58436 0.22905 0.56595 0.0
C1838 C 0.58842 0.20925 0.55669 0.0
C1839 C 0.60551 0.25292 0.57384 0.0
C1840 C 0.60251 0.27452 0.58448 0.0
C1841 C 0.5861 0.27135 0.60858 0.0
C1842 C 0.58422 0.29204 0.6193 0.0
C1843 C 0.59902 0.31614 0.60649 0.0
C1844 C 0.61557 0.31956 0.58276 0.0
C1845 C 0.61727 0.29888 0.57169 0.0
H1846 H 0.5977 0.33218 0.61499 0.0
H1847 H 0.62425 0.13611 0.51124 0.0
H1848 H 0.40017 0.16772 0.68124 0.0
H1849 H 0.39833 0.17504 0.73512 0.0
H1850 H 0.47115 0.24421 0.72924 0.0
H1851 H 0.47288 0.23734 0.67536 0.0
H1852 H 0.42672 0.17825 0.78144 0.0
H1853 H 0.47319 0.2885 0.77627 0.0
H1854 H 0.47619 0.32127 0.74087 0.0
H1855 H 0.40588 0.26645 0.69947 0.0
H1856 H 0.40227 0.23345 0.73489 0.0
H1857 H 0.47773 0.23809 0.92131 0.0
H1858 H 0.47072 0.22605 0.86822 0.0
H1859 H 0.4072 0.23938 0.86619 0.0
H1860 H 0.4139 0.25123 0.91957 0.0
H1861 H 0.43972 0.26122 0.81823 0.0
H1862 H 0.39505 0.18088 0.86626 0.0
H1863 H 0.38672 0.14526 0.90006 0.0
H1864 H 0.44459 0.13639 0.85526 0.0
H1865 H 0.45371 0.17234 0.82163 0.0
C1866 C 0.4158 0.1845 0.69142 0.0
C1867 C 0.43658 0.20207 0.67397 0.0
C1868 C 0.41473 0.18862 0.72223 0.0
C1869 C 0.43439 0.21038 0.73612 0.0
C1870 C 0.45549 0.22757 0.71888 0.0
C1871 C 0.45651 0.22355 0.68809 0.0
C1872 C 0.43296 0.2152 0.76863 0.0
C1873 C 0.42958 0.19638 0.78952 0.0
C1874 C 0.43587 0.23858 0.7791 0.0
C1875 C 0.43759 0.25845 0.7581 0.0
C1876 C 0.4583 0.28348 0.75973 0.0
C1877 C 0.46012 0.30208 0.73963 0.0
C1878 C 0.44128 0.29593 0.71788 0.0
C1879 C 0.42051 0.27117 0.71626 0.0
C1880 C 0.41858 0.2525 0.73633 0.0
C1881 C 0.46231 0.23857 0.90959 0.0
C1882 C 0.44639 0.24568 0.92464 0.0
C1883 C 0.45822 0.23147 0.87931 0.0
C1884 C 0.43827 0.23155 0.8634 0.0
C1885 C 0.42261 0.23907 0.87816 0.0
C1886 C 0.42649 0.24587 0.90861 0.0
C1887 C 0.43446 0.22462 0.83106 0.0
C1888 C 0.43683 0.24306 0.81018 0.0
C1889 C 0.43006 0.20066 0.82065 0.0
C1890 C 0.4253 0.17959 0.84162 0.0
C1891 C 0.4063 0.17163 0.8639 0.0
C1892 C 0.40137 0.1513 0.88298 0.0
C1893 C 0.41517 0.13863 0.87988 0.0
C1894 C 0.43396 0.14627 0.85771 0.0
C1895 C 0.43903 0.16665 0.83864 0.0
H1896 H 0.41127 0.12284 0.89461 0.0
H1897 H 0.44274 0.31035 0.7023 0.0
H1898 H 0.78585 0.25969 0.67106 0.0
H1899 H 0.77581 0.24988 0.72449 0.0
H1900 H 0.82608 0.21882 0.72853 0.0
H1901 H 0.83653 0.2289 0.67515 0.0
H1902 H 0.77641 0.18748 0.75546 0.0
H1903 H 0.84698 0.27364 0.7573 0.0
H1904 H 0.87004 0.319 0.74283 0.0
H1905 H 0.80912 0.32818 0.77806 0.0
H1906 H 0.78551 0.28274 0.79235 0.0
H1907 H 0.78438 0.179 0.91424 0.0
H1908 H 0.79207 0.1864 0.86023 0.0
H1909 H 0.75597 0.23233 0.86072 0.0
H1910 H 0.74896 0.22567 0.91493 0.0
H1911 H 0.79808 0.25583 0.83065 0.0
H1912 H 0.72721 0.17094 0.8294 0.0
H1913 H 0.70237 0.12542 0.84284 0.0
H1914 H 0.76084 0.11323 0.80568 0.0
H1915 H 0.7862 0.15878 0.79237 0.0
C1916 C 0.7948 0.25081 0.68331 0.0
C1917 C 0.81203 0.24512 0.66893 0.0
C1918 C 0.78907 0.24525 0.71382 0.0
C1919 C 0.80025 0.23368 0.73038 0.0
C1920 C 0.81725 0.22773 0.71606 0.0
C1921 C 0.82329 0.23362 0.68564 0.0
C1922 C 0.79426 0.22791 0.76274 0.0
C1923 C 0.7814 0.20238 0.77205 0.0
C1924 C 0.80015 0.24738 0.78405 0.0
C1925 C 0.81436 0.27473 0.7756 0.0
C1926 C 0.83839 0.28527 0.76171 0.0
C1927 C 0.85159 0.31101 0.75359 0.0
C1928 C 0.84102 0.32644 0.75944 0.0
C1929 C 0.81727 0.31619 0.7735 0.0
C1930 C 0.80398 0.29045 0.78164 0.0
C1931 C 0.77781 0.19044 0.9028 0.0
C1932 C 0.76606 0.20175 0.91888 0.0
C1933 C 0.78215 0.19459 0.87185 0.0
C1934 C 0.7744 0.20974 0.85626 0.0
C1935 C 0.76218 0.22061 0.87222 0.0
C1936 C 0.75811 0.21672 0.90321 0.0
C1937 C 0.78007 0.21525 0.82366 0.0
C1938 C 0.79295 0.24081 0.8142 0.0
C1939 C 0.7739 0.19574 0.80216 0.0
C1940 C 0.75872 0.16834 0.81016 0.0
C1941 C 0.73487 0.1586 0.82432 0.0
C1942 C 0.72068 0.13278 0.83187 0.0
C1943 C 0.73005 0.11646 0.82519 0.0
C1944 C 0.75362 0.12591 0.81088 0.0
C1945 C 0.7679 0.15172 0.8033 0.0
H1946 H 0.71903 0.09647 0.83106 0.0
H1947 H 0.85127 0.34637 0.75315 0.0
H1948 H 0.83249 0.61171 0.92018 0.0
H1949 H 0.82707 0.6145 0.86604 0.0
H1950 H 0.79501 0.53326 0.85799 0.0
H1951 H 0.80008 0.53019 0.91234 0.0
H1952 H 0.83168 0.5624 0.81262 0.0
H1953 H 0.75626 0.55534 0.85858 0.0
H1954 H 0.73255 0.56757 0.89346 0.0
H1955 H 0.7663 0.64166 0.85268 0.0
H1956 H 0.7906 0.63002 0.81787 0.0
H1957 H 0.77598 0.54145 0.66854 0.0
H1958 H 0.78406 0.54073 0.7222 0.0
H1959 H 0.80313 0.61928 0.72981 0.0
H1960 H 0.79444 0.61996 0.67606 0.0
H1961 H 0.77444 0.59306 0.77572 0.0
H1962 H 0.84956 0.60198 0.7301 0.0
H1963 H 0.87489 0.59191 0.6951 0.0
H1964 H 0.84449 0.51776 0.735 0.0
H1965 H 0.81869 0.52726 0.76997 0.0
C1966 C 0.82446 0.59442 0.90692 0.0
C1967 C 0.81667 0.57069 0.92063 0.0
C1968 C 0.82128 0.59606 0.87597 0.0
C1969 C 0.81044 0.57407 0.85804 0.0
C1970 C 0.80337 0.55046 0.87145 0.0
C1971 C 0.80625 0.54874 0.90251 0.0
C1972 C 0.80607 0.57569 0.8254 0.0
C1973 C 0.81893 0.56879 0.80451 0.0
C1974 C 0.79008 0.58486 0.81488 0.0
C1975 C 0.77549 0.5919 0.83584 0.0
C1976 C 0.75885 0.57433 0.85725 0.0
C1977 C 0.74526 0.58114 0.87697 0.0
C1978 C 0.74798 0.60541 0.87535 0.0
C1979 C 0.76426 0.62289 0.85395 0.0
C1980 C 0.77794 0.61619 0.83422 0.0
C1981 C 0.78196 0.55863 0.68155 0.0
C1982 C 0.78468 0.58082 0.66792 0.0
C1983 C 0.78669 0.55822 0.71228 0.0
C1984 C 0.79461 0.58006 0.73007 0.0
C1985 C 0.79712 0.60219 0.71659 0.0
C1986 C 0.79221 0.60258 0.68582 0.0
C1987 C 0.79993 0.5796 0.76276 0.0
C1988 C 0.78727 0.58674 0.78372 0.0
C1989 C 0.81641 0.57101 0.77336 0.0
C1990 C 0.83201 0.56525 0.75249 0.0
C1991 C 0.84813 0.58345 0.73127 0.0
C1992 C 0.8626 0.57786 0.71146 0.0
C1993 C 0.86126 0.55419 0.71278 0.0
C1994 C 0.84549 0.53608 0.73398 0.0
C1995 C 0.83096 0.54157 0.75383 0.0
H1996 H 0.87247 0.5499 0.69742 0.0
H1997 H 0.73743 0.61064 0.89062 0.0
H1998 H 0.25575 0.48343 0.58074 0.0
H1999 H 0.24259 0.47836 0.63337 0.0
H2000 H 0.24337 0.40764 0.63777 0.0
H2001 H 0.2559 0.41225 0.58474 0.0
H2002 H 0.2021 0.40228 0.66454 0.0
H2003 H 0.2912 0.46365 0.67007 0.0
H2004 H 0.33082 0.50316 0.65705 0.0
H2005 H 0.29797 0.54773 0.68724 0.0
H2006 H 0.25802 0.50845 0.70008 0.0
H2007 H 0.20113 0.39634 0.82661 0.0
H2008 H 0.21369 0.39957 0.77355 0.0
H2009 H 0.20013 0.46239 0.76143 0.0
H2010 H 0.18714 0.45903 0.81416 0.0
H2011 H 0.24823 0.47119 0.73927 0.0
H2012 H 0.15907 0.40944 0.7333 0.0
H2013 H 0.11975 0.36981 0.74676 0.0
H2014 H 0.15356 0.32572 0.71805 0.0
H2015 H 0.19327 0.36515 0.70486 0.0
C2016 C 0.25335 0.46689 0.59292 0.0
C2017 C 0.25707 0.44833 0.57854 0.0
C2018 C 0.24586 0.46404 0.6231 0.0
C2019 C 0.2423 0.44278 0.63975 0.0
C2020 C 0.24603 0.42423 0.62545 0.0
C2021 C 0.25334 0.42697 0.59516 0.0
C2022 C 0.23433 0.43978 0.67191 0.0
C2023 C 0.21246 0.4172 0.68096 0.0
C2024 C 0.24747 0.45943 0.69329 0.0
C2025 C 0.27154 0.48309 0.68579 0.0
C2026 C 0.29237 0.48187 0.67374 0.0
C2027 C 0.31489 0.50422 0.66642 0.0
C2028 C 0.31689 0.52793 0.67124 0.0
C2029 C 0.29639 0.52934 0.68349 0.0
C2030 C 0.27381 0.50704 0.69082 0.0
C2031 C 0.2007 0.41075 0.81259 0.0
C2032 C 0.19313 0.42742 0.82457 0.0
C2033 C 0.20782 0.41254 0.7823 0.0
C2034 C 0.2078 0.43121 0.7636 0.0
C2035 C 0.20028 0.44787 0.77551 0.0
C2036 C 0.19278 0.44584 0.80562 0.0
C2037 C 0.21613 0.43377 0.73175 0.0
C2038 C 0.23802 0.45626 0.72281 0.0
C2039 C 0.20311 0.414 0.71056 0.0
C2040 C 0.17926 0.39027 0.71844 0.0
C2041 C 0.15823 0.39131 0.73015 0.0
C2042 C 0.13584 0.36888 0.73766 0.0
C2043 C 0.13419 0.34526 0.73335 0.0
C2044 C 0.15489 0.34403 0.72143 0.0
C2045 C 0.17733 0.36642 0.71392 0.0
H2046 H 0.11684 0.32792 0.73917 0.0
H2047 H 0.33434 0.54522 0.66555 0.0
H2048 H 0.5343 0.78891 0.5876 0.0
H2049 H 0.53742 0.783 0.64157 0.0
H2050 H 0.61902 0.83145 0.63718 0.0
H2051 H 0.6161 0.83758 0.58313 0.0
H2052 H 0.60327 0.78577 0.66917 0.0
H2053 H 0.58584 0.85491 0.66682 0.0
H2054 H 0.56225 0.87656 0.65191 0.0
H2055 H 0.49461 0.81748 0.69408 0.0
H2056 H 0.51772 0.79528 0.70887 0.0
H2057 H 0.62189 0.79584 0.82824 0.0
H2058 H 0.62237 0.80467 0.77441 0.0
H2059 H 0.54031 0.76847 0.77492 0.0
H2060 H 0.53982 0.76049 0.82882 0.0
H2061 H 0.55852 0.80989 0.74436 0.0
H2062 H 0.57449 0.73984 0.74606 0.0
H2063 H 0.59682 0.71671 0.76011 0.0
H2064 H 0.66535 0.77484 0.71851 0.0
H2065 H 0.64357 0.79858 0.70467 0.0
C2066 C 0.55291 0.79842 0.59811 0.0
C2067 C 0.57494 0.8138 0.58109 0.0
C2068 C 0.55465 0.79504 0.62896 0.0
C2069 C 0.57844 0.80687 0.64335 0.0
C2070 C 0.60049 0.82215 0.62645 0.0
C2071 C 0.59875 0.82575 0.59563 0.0
C2072 C 0.58021 0.80317 0.67607 0.0
C2073 C 0.59382 0.79135 0.68574 0.0
C2074 C 0.56736 0.80994 0.69747 0.0
C2075 C 0.55346 0.82332 0.68871 0.0
C2076 C 0.56588 0.84642 0.6727 0.0
C2077 C 0.55261 0.85882 0.66431 0.0
C2078 C 0.52693 0.84837 0.67198 0.0
C2079 C 0.51449 0.82554 0.68812 0.0
C2080 C 0.52768 0.81306 0.69654 0.0
C2081 C 0.60396 0.78976 0.81684 0.0
C2082 C 0.58082 0.77748 0.83276 0.0
C2083 C 0.60424 0.79468 0.78602 0.0
C2084 C 0.58134 0.78693 0.77044 0.0
C2085 C 0.55824 0.77467 0.78639 0.0
C2086 C 0.55798 0.77008 0.81723 0.0
C2087 C 0.58131 0.79208 0.73771 0.0
C2088 C 0.56805 0.80429 0.72795 0.0
C2089 C 0.59429 0.78539 0.71624 0.0
C2090 C 0.60745 0.77115 0.72463 0.0
C2091 C 0.59439 0.74782 0.74015 0.0
C2092 C 0.60694 0.73459 0.74805 0.0
C2093 C 0.63251 0.74434 0.7403 0.0
C2094 C 0.64556 0.76734 0.72457 0.0
C2095 C 0.63312 0.7807 0.7167 0.0
H2096 H 0.64219 0.73405 0.7464 0.0
H2097 H 0.51669 0.85799 0.66546 0.0
H2098 H 0.25608 0.77283 0.82858 0.0
H2099 H 0.24723 0.76366 0.77489 0.0
H2100 H 0.21325 0.81139 0.7718 0.0
H2101 H 0.22233 0.82097 0.82548 0.0
H2102 H 0.18419 0.76308 0.74251 0.0
H2103 H 0.26914 0.83461 0.74491 0.0
H2104 H 0.31417 0.85872 0.7605 0.0
H2105 H 0.327 0.80085 0.72286 0.0
H2106 H 0.28192 0.77619 0.70741 0.0
H2107 H 0.18105 0.77805 0.58421 0.0
H2108 H 0.18681 0.78337 0.6386 0.0
H2109 H 0.23151 0.74599 0.63721 0.0
H2110 H 0.22627 0.74106 0.58258 0.0
H2111 H 0.25478 0.78814 0.66946 0.0
H2112 H 0.17023 0.71661 0.66635 0.0
H2113 H 0.12517 0.69206 0.65095 0.0
H2114 H 0.11128 0.74875 0.69015 0.0
H2115 H 0.15637 0.77383 0.70543 0.0
C2116 C 0.24668 0.78136 0.81652 0.0
C2117 C 0.23996 0.79768 0.83127 0.0
C2118 C 0.2417 0.77613 0.78583 0.0
C2119 C 0.22967 0.78692 0.76939 0.0
C2120 C 0.22253 0.80287 0.78413 0.0
C2121 C 0.22783 0.8084 0.81475 0.0
C2122 C 0.22484 0.78176 0.73671 0.0
C2123 C 0.19959 0.7688 0.72643 0.0
C2124 C 0.24497 0.78868 0.71595 0.0
C2125 C 0.27208 0.80342 0.72528 0.0
C2126 C 0.2815 0.8269 0.7402 0.0
C2127 C 0.30705 0.8407 0.74896 0.0
C2128 C 0.32342 0.83129 0.74274 0.0
C2129 C 0.31429 0.80809 0.72769 0.0
C2130 C 0.28874 0.79421 0.71891 0.0
C2131 C 0.19187 0.77067 0.59547 0.0
C2132 C 0.2032 0.75912 0.57899 0.0
C2133 C 0.19507 0.77366 0.62665 0.0
C2134 C 0.20943 0.7649 0.64212 0.0
C2135 C 0.22036 0.75292 0.6258 0.0
C2136 C 0.21725 0.75001 0.59456 0.0
C2137 C 0.21402 0.76934 0.67506 0.0
C2138 C 0.23929 0.78225 0.68545 0.0
C2139 C 0.19388 0.76225 0.69593 0.0
C2140 C 0.16674 0.74722 0.68679 0.0
C2141 C 0.15762 0.72395 0.67147 0.0
C2142 C 0.13206 0.70992 0.66281 0.0
C2143 C 0.11539 0.71887 0.6695 0.0
C2144 C 0.12423 0.74185 0.68495 0.0
C2145 C 0.14978 0.75597 0.69365 0.0
H2146 H 0.09561 0.70798 0.66278 0.0
H2147 H 0.3432 0.84201 0.74952 0.0
H2148 H 0.52799 0.78283 0.06798 0.0
H2149 H 0.52974 0.79245 0.12135 0.0
H2150 H 0.61136 0.82452 0.12051 0.0
H2151 H 0.60958 0.81395 0.06697 0.0
H2152 H 0.59271 0.79545 0.16695 0.0
H2153 H 0.5825 0.86242 0.12675 0.0
H2154 H 0.56387 0.88248 0.09529 0.0
H2155 H 0.49225 0.8394 0.14104 0.0
H2156 H 0.51034 0.81881 0.17251 0.0
H2157 H 0.60314 0.84422 0.31567 0.0
H2158 H 0.60643 0.84339 0.26089 0.0
H2159 H 0.52501 0.79441 0.2546 0.0
H2160 H 0.5215 0.79489 0.30954 0.0
H2161 H 0.54722 0.83642 0.21207 0.0
H2162 H 0.55878 0.76761 0.24944 0.0
H2163 H 0.57931 0.74955 0.28107 0.0
H2164 H 0.65163 0.80006 0.24024 0.0
H2165 H 0.63157 0.81867 0.20865 0.0
C2166 C 0.54638 0.79215 0.07903 0.0
C2167 C 0.56867 0.79765 0.06327 0.0
C2168 C 0.54737 0.7978 0.10958 0.0
C2169 C 0.57073 0.80963 0.12491 0.0
C2170 C 0.59312 0.81546 0.10913 0.0
C2171 C 0.59209 0.80944 0.07857 0.0
C2172 C 0.57141 0.81448 0.15775 0.0
C2173 C 0.5832 0.8049 0.1767 0.0
C2174 C 0.5587 0.82649 0.17063 0.0
C2175 C 0.54775 0.83893 0.15186 0.0
C2176 C 0.56273 0.85709 0.12998 0.0
C2177 C 0.55227 0.86858 0.11216 0.0
C2178 C 0.52688 0.86218 0.11613 0.0
C2179 C 0.51191 0.84433 0.13798 0.0
C2180 C 0.52227 0.83277 0.15585 0.0
C2181 C 0.58589 0.83335 0.30267 0.0
C2182 C 0.56205 0.81948 0.31693 0.0
C2183 C 0.58784 0.8329 0.2714 0.0
C2184 C 0.56598 0.81874 0.25384 0.0
C2185 C 0.54208 0.80544 0.26787 0.0
C2186 C 0.54013 0.80565 0.29921 0.0
C2187 C 0.56817 0.8171 0.22089 0.0
C2188 C 0.55694 0.82728 0.20208 0.0
C2189 C 0.58171 0.80603 0.20809 0.0
C2190 C 0.59373 0.79472 0.22693 0.0
C2191 C 0.5791 0.77502 0.2474 0.0
C2192 C 0.59064 0.76465 0.26528 0.0
C2193 C 0.61677 0.77371 0.26273 0.0
C2194 C 0.6314 0.79309 0.24222 0.0
C2195 C 0.61995 0.80354 0.22431 0.0
H2196 H 0.62567 0.76566 0.27659 0.0
H2197 H 0.51882 0.87109 0.1023 0.0
H2198 H 0.21815 0.80661 0.06872 0.0
H2199 H 0.20693 0.79774 0.12198 0.0
H2200 H 0.18804 0.71971 0.10895 0.0
H2201 H 0.19888 0.7283 0.05558 0.0
H2202 H 0.15446 0.72345 0.14754 0.0
H2203 H 0.24542 0.76189 0.13578 0.0
H2204 H 0.28803 0.79488 0.11858 0.0
H2205 H 0.28184 0.85114 0.17084 0.0
H2206 H 0.23903 0.81853 0.18802 0.0
H2207 H 0.165 0.69471 0.30177 0.0
H2208 H 0.16822 0.70022 0.24698 0.0
H2209 H 0.19568 0.78058 0.25804 0.0
H2210 H 0.19338 0.77536 0.31252 0.0
H2211 H 0.224 0.77475 0.21965 0.0
H2212 H 0.13358 0.73549 0.23414 0.0
H2213 H 0.09116 0.70229 0.25134 0.0
H2214 H 0.09534 0.6475 0.19409 0.0
H2215 H 0.13819 0.68017 0.17716 0.0
C2216 C 0.21135 0.7875 0.07708 0.0
C2217 C 0.20969 0.76825 0.05796 0.0
C2218 C 0.20499 0.78246 0.10755 0.0
C2219 C 0.19704 0.75816 0.11952 0.0
C2220 C 0.19419 0.7386 0.1002 0.0
C2221 C 0.20048 0.74359 0.0697 0.0
C2222 C 0.19333 0.75359 0.15246 0.0
C2223 C 0.16968 0.73446 0.16338 0.0
C2224 C 0.21311 0.76823 0.17307 0.0
C2225 C 0.23893 0.78782 0.16295 0.0
C2226 C 0.25308 0.78133 0.14343 0.0
C2227 C 0.27727 0.79996 0.13371 0.0
C2228 C 0.28761 0.82511 0.14355 0.0
C2229 C 0.2738 0.83166 0.1632 0.0
C2230 C 0.24958 0.81311 0.17295 0.0
C2231 C 0.17163 0.71351 0.29247 0.0
C2232 C 0.17907 0.73461 0.31148 0.0
C2233 C 0.17332 0.71663 0.26113 0.0
C2234 C 0.18198 0.7408 0.24827 0.0
C2235 C 0.18903 0.76176 0.26733 0.0
C2236 C 0.18769 0.75873 0.29854 0.0
C2237 C 0.18492 0.74475 0.2151 0.0
C2238 C 0.2086 0.76373 0.20401 0.0
C2239 C 0.1651 0.72994 0.19447 0.0
C2240 C 0.13927 0.71027 0.2046 0.0
C2241 C 0.12559 0.71632 0.2254 0.0
C2242 C 0.10142 0.69759 0.23508 0.0
C2243 C 0.09051 0.67282 0.2238 0.0
C2244 C 0.1038 0.6667 0.20284 0.0
C2245 C 0.12806 0.68531 0.19322 0.0
H2246 H 0.07176 0.65839 0.23127 0.0
H2247 H 0.30634 0.8395 0.136 0.0
H2248 H 0.18986 0.41178 0.06691 0.0
H2249 H 0.19296 0.40822 0.12138 0.0
H2250 H 0.27493 0.44745 0.11472 0.0
H2251 H 0.27201 0.45079 0.06019 0.0
H2252 H 0.25774 0.40859 0.15465 0.0
H2253 H 0.24482 0.47931 0.13572 0.0
H2254 H 0.22312 0.50098 0.11442 0.0
H2255 H 0.15508 0.45053 0.16328 0.0
H2256 H 0.17628 0.42831 0.18456 0.0
H2257 H 0.28531 0.44762 0.30856 0.0
H2258 H 0.28253 0.44694 0.2535 0.0
H2259 H 0.20049 0.40601 0.25924 0.0
H2260 H 0.20308 0.40661 0.31414 0.0
H2261 H 0.21799 0.44565 0.21978 0.0
H2262 H 0.23074 0.37489 0.23854 0.0
H2263 H 0.25203 0.35251 0.25901 0.0
H2264 H 0.32037 0.40328 0.21083 0.0
H2265 H 0.29951 0.42602 0.19017 0.0
C2266 C 0.20855 0.4194 0.07696 0.0
C2267 C 0.2307 0.43178 0.05921 0.0
C2268 C 0.21029 0.41746 0.10813 0.0
C2269 C 0.2342 0.42799 0.12219 0.0
C2270 C 0.25629 0.4393 0.10438 0.0
C2271 C 0.25457 0.44124 0.07319 0.0
C2272 C 0.23619 0.42806 0.15553 0.0
C2273 C 0.24932 0.41698 0.16888 0.0
C2274 C 0.22483 0.4386 0.17415 0.0
C2275 C 0.21206 0.45198 0.16148 0.0
C2276 C 0.22517 0.47271 0.14174 0.0
C2277 C 0.21297 0.48511 0.1297 0.0
C2278 C 0.18771 0.47709 0.13743 0.0
C2279 C 0.17463 0.45669 0.15728 0.0
C2280 C 0.18673 0.4442 0.16935 0.0
C2281 C 0.26668 0.43846 0.29809 0.0
C2282 C 0.24442 0.42718 0.31574 0.0
C2283 C 0.26512 0.43797 0.26663 0.0
C2284 C 0.24129 0.42626 0.25226 0.0
C2285 C 0.21907 0.41513 0.26984 0.0
C2286 C 0.22061 0.41545 0.30124 0.0
C2287 C 0.23943 0.42609 0.21891 0.0
C2288 C 0.22639 0.43725 0.20556 0.0
C2289 C 0.25091 0.41567 0.20033 0.0
C2290 C 0.26364 0.4023 0.21305 0.0
C2291 C 0.25038 0.38142 0.23253 0.0
C2292 C 0.26233 0.36861 0.24408 0.0
C2293 C 0.2875 0.37644 0.2362 0.0
C2294 C 0.30084 0.39718 0.21686 0.0
C2295 C 0.28895 0.41001 0.20518 0.0
H2296 H 0.29658 0.36633 0.24494 0.0
H2297 H 0.1783 0.48673 0.12809 0.0
H2298 H 0.78939 0.60397 0.43318 0.0
H2299 H 0.79921 0.60837 0.37943 0.0
H2300 H 0.82603 0.55477 0.38711 0.0
H2301 H 0.81651 0.55043 0.44109 0.0
H2302 H 0.85597 0.59435 0.34859 0.0
H2303 H 0.76714 0.53444 0.36234 0.0
H2304 H 0.72375 0.51915 0.38176 0.0
H2305 H 0.7206 0.57959 0.33511 0.0
H2306 H 0.76415 0.59547 0.31575 0.0
H2307 H 0.84116 0.56129 0.19074 0.0
H2308 H 0.83988 0.56081 0.24595 0.0
H2309 H 0.81213 0.61391 0.24473 0.0
H2310 H 0.81335 0.61451 0.18983 0.0
H2311 H 0.78332 0.5732 0.28025 0.0
H2312 H 0.87225 0.63348 0.26689 0.0
H2313 H 0.91638 0.65013 0.24937 0.0
H2314 H 0.91955 0.58925 0.29484 0.0
H2315 H 0.87532 0.57213 0.31254 0.0
C2316 C 0.79766 0.59332 0.42357 0.0
C2317 C 0.80189 0.57662 0.4414 0.0
C2318 C 0.8032 0.59581 0.39279 0.0
C2319 C 0.81294 0.58156 0.37915 0.0
C2320 C 0.81842 0.56587 0.39714 0.0
C2321 C 0.81289 0.56336 0.42798 0.0
C2322 C 0.81597 0.58198 0.3459 0.0
C2323 C 0.84004 0.5894 0.33359 0.0
C2324 C 0.79525 0.57586 0.32636 0.0
C2325 C 0.769 0.56628 0.33783 0.0
C2326 C 0.75727 0.54459 0.35641 0.0
C2327 C 0.73264 0.5358 0.36738 0.0
C2328 C 0.71945 0.54843 0.35974 0.0
C2329 C 0.73085 0.56984 0.34104 0.0
C2330 C 0.75551 0.57874 0.33005 0.0
C2331 C 0.8349 0.57295 0.20226 0.0
C2332 C 0.82722 0.58783 0.18586 0.0
C2333 C 0.83434 0.57278 0.23381 0.0
C2334 C 0.82601 0.58742 0.24948 0.0
C2335 C 0.81863 0.60247 0.23312 0.0
C2336 C 0.81935 0.60279 0.2017 0.0
C2337 C 0.82343 0.58597 0.28279 0.0
C2338 C 0.79931 0.57815 0.29516 0.0
C2339 C 0.84411 0.59167 0.30226 0.0
C2340 C 0.87036 0.60136 0.29076 0.0
C2341 C 0.88223 0.62345 0.27285 0.0
C2342 C 0.90731 0.63303 0.26298 0.0
C2343 C 0.92075 0.62073 0.27096 0.0
C2344 C 0.9091 0.59875 0.2887 0.0
C2345 C 0.88404 0.58912 0.29869 0.0
H2346 H 0.94023 0.62831 0.26356 0.0
H2347 H 0.70037 0.5416 0.36825 0.0
H2348 H 0.41571 0.20724 0.43274 0.0
H2349 H 0.41583 0.21481 0.37866 0.0
H2350 H 0.47555 0.29272 0.3909 0.0
H2351 H 0.47526 0.28548 0.44504 0.0
H2352 H 0.44191 0.28932 0.34825 0.0
H2353 H 0.49024 0.24805 0.37052 0.0
H2354 H 0.49737 0.21466 0.3922 0.0
H2355 H 0.43671 0.15811 0.33817 0.0
H2356 H 0.42899 0.19114 0.31646 0.0
H2357 H 0.48723 0.31258 0.19702 0.0
H2358 H 0.48461 0.30784 0.25188 0.0
H2359 H 0.42802 0.22836 0.2423 0.0
H2360 H 0.43129 0.23273 0.18769 0.0
H2361 H 0.4604 0.2335 0.28403 0.0
H2362 H 0.41344 0.27622 0.26004 0.0
H2363 H 0.40986 0.31088 0.2358 0.0
H2364 H 0.46942 0.36573 0.29248 0.0
H2365 H 0.47382 0.33144 0.31655 0.0
C2366 C 0.42861 0.22609 0.42401 0.0
C2367 C 0.44574 0.24565 0.44314 0.0
C2368 C 0.4287 0.23037 0.39308 0.0
C2369 C 0.44606 0.25419 0.38069 0.0
C2370 C 0.46209 0.27416 0.39995 0.0
C2371 C 0.46195 0.26994 0.4309 0.0
C2372 C 0.44882 0.25774 0.34758 0.0
C2373 C 0.44611 0.27725 0.3342 0.0
C2374 C 0.45416 0.24188 0.32923 0.0
C2375 C 0.45888 0.22202 0.3421 0.0
C2376 C 0.47831 0.22847 0.36343 0.0
C2377 C 0.48247 0.20961 0.3757 0.0
C2378 C 0.46746 0.18427 0.36663 0.0
C2379 C 0.4483 0.17774 0.34521 0.0
C2380 C 0.44403 0.19652 0.3329 0.0
C2381 C 0.4743 0.2941 0.20666 0.0
C2382 C 0.45943 0.27305 0.18805 0.0
C2383 C 0.47272 0.29143 0.238 0.0
C2384 C 0.45578 0.26783 0.25126 0.0
C2385 C 0.44119 0.24676 0.23264 0.0
C2386 C 0.44307 0.24931 0.20139 0.0
C2387 C 0.45312 0.26485 0.28449 0.0
C2388 C 0.45598 0.24549 0.29797 0.0
C2389 C 0.44799 0.28089 0.30285 0.0
C2390 C 0.44417 0.30129 0.28984 0.0
C2391 C 0.42581 0.29568 0.26729 0.0
C2392 C 0.4237 0.31527 0.25352 0.0
C2393 C 0.43956 0.34052 0.26243 0.0
C2394 C 0.45729 0.34618 0.28546 0.0
C2395 C 0.45959 0.32667 0.29919 0.0
H2396 H 0.43807 0.3557 0.25157 0.0
H2397 H 0.47071 0.1697 0.37615 0.0
H2398 H 0.80549 0.19996 0.4368 0.0
H2399 H 0.79852 0.18721 0.3838 0.0
H2400 H 0.73417 0.1993 0.3813 0.0
H2401 H 0.74046 0.21114 0.43438 0.0
H2402 H 0.72472 0.1585 0.34859 0.0
H2403 H 0.79559 0.24602 0.35832 0.0
H2404 H 0.8378 0.27837 0.37735 0.0
H2405 H 0.87182 0.23846 0.3361 0.0
H2406 H 0.82975 0.20574 0.3171 0.0
H2407 H 0.71414 0.18493 0.19631 0.0
H2408 H 0.71982 0.18613 0.25088 0.0
H2409 H 0.78613 0.17807 0.23901 0.0
H2410 H 0.78111 0.17788 0.18441 0.0
H2411 H 0.79594 0.21212 0.27931 0.0
H2412 H 0.7273 0.12913 0.26141 0.0
H2413 H 0.68592 0.09688 0.24092 0.0
H2414 H 0.64764 0.1243 0.29804 0.0
H2415 H 0.68899 0.15784 0.31761 0.0
C2416 C 0.7897 0.19959 0.42503 0.0
C2417 C 0.77374 0.20685 0.43966 0.0
C2418 C 0.78575 0.19237 0.39472 0.0
C2419 C 0.76612 0.1928 0.3784 0.0
C2420 C 0.74947 0.1989 0.39339 0.0
C2421 C 0.7532 0.20577 0.42373 0.0
C2422 C 0.76375 0.18865 0.34533 0.0
C2423 C 0.74019 0.17029 0.33336 0.0
C2424 C 0.78424 0.20345 0.32553 0.0
C2425 C 0.80953 0.22335 0.33655 0.0
C2426 C 0.81207 0.24411 0.35343 0.0
C2427 C 0.83596 0.2625 0.3642 0.0
C2428 C 0.85747 0.26044 0.35801 0.0
C2429 C 0.85514 0.24002 0.34093 0.0
C2430 C 0.83129 0.22157 0.33013 0.0
C2431 C 0.72987 0.18334 0.20535 0.0
C2432 C 0.74716 0.18129 0.18612 0.0
C2433 C 0.73305 0.18391 0.23657 0.0
C2434 C 0.75319 0.18179 0.24915 0.0
C2435 C 0.77045 0.17972 0.22989 0.0
C2436 C 0.76753 0.17959 0.19869 0.0
C2437 C 0.75663 0.18237 0.28234 0.0
C2438 C 0.78044 0.20005 0.29437 0.0
C2439 C 0.73641 0.1667 0.30212 0.0
C2440 C 0.71137 0.14621 0.29083 0.0
C2441 C 0.71011 0.1285 0.26943 0.0
C2442 C 0.68662 0.10996 0.25795 0.0
C2443 C 0.66411 0.10836 0.26834 0.0
C2444 C 0.66509 0.12551 0.29004 0.0
C2445 C 0.68859 0.14442 0.30121 0.0
H2446 H 0.64594 0.09387 0.25955 0.0
H2447 H 0.87594 0.27467 0.36638 0.0
loop_
_geom_bond_atom_site_label_1
_geom_bond_atom_site_label_2
_geom_bond_distance
_geom_bond_site_symmetry_2
_ccdc_geom_bond_type
O0 Tb1 2.292 1_556 S
O0 C3 1.255 . S
Tb1 O0 2.292 1_554 S
Tb1 O17 2.326 . S
Tb1 O19 2.500 . S
Tb1 O20 2.473 . S
Tb1 O23 2.324 . S
Eu2 O6 2.292 . S
Eu2 C7 2.852 . S
Eu2 O18 2.324 . S
Eu2 O22 2.326 . S
Eu2 O24 2.500 . S
Eu2 O25 2.473 . S
C3 O0 1.255 . S
C3 O4 1.247 . S
O4 C3 1.247 . S
C5 O17 1.242 . S
C5 O18 1.258 . S
O6 Eu2 2.292 . S
O6 C8 1.255 . S
C7 Eu2 2.852 . S
C7 C11 1.503 . S
C7 O24 1.273 . S
C7 O25 1.257 . S
C8 O6 1.255 . S
C8 O9 1.247 . S
O9 C8 1.247 . S
C10 O22 1.242 . S
C10 O23 1.258 . S
C11 C7 1.503 . S
C11 C12 1.379 . S
C11 C16 1.392 . S
C12 C11 1.379 . S
C12 C13 1.404 . S
C12 H26 0.929 . S
C13 C12 1.404 . S
C13 C14 1.389 . S
C14 C13 1.389 . S
C14 C15 1.399 . S
C14 H27 0.931 . S
C15 C14 1.399 . S
C15 C16 1.390 . S
C16 C11 1.392 . S
C16 C15 1.390 . S
C16 H28 0.929 . S
O17 Tb1 2.326 . S
O17 C5 1.242 . S
O18 Eu2 2.324 . S
O18 C5 1.258 . S
O19 Tb1 2.500 . S
O19 C21 1.273 . S
O20 Tb1 2.473 . S
O20 C21 1.257 . S
C21 O19 1.273 . S
C21 O20 1.257 . S
O22 Eu2 2.326 . S
O22 C10 1.242 . S
O23 Tb1 2.324 . S
O23 C10 1.258 . S
O24 Eu2 2.500 . S
O24 C7 1.273 . S
O25 Eu2 2.473 . S
O25 C7 1.257 . S
H26 C12 0.929 . S
H27 C14 0.931 . S
H28 C16 0.929 . S
O29 Tb30 2.292 1_556 S
O29 C32 1.255 . S
Tb30 O29 2.292 1_554 S
Tb30 O46 2.326 . S
Tb30 O48 2.500 . S
Tb30 O49 2.473 . S
Tb30 O52 2.324 . S
Eu31 O35 2.292 . S
Eu31 C36 2.852 . S
Eu31 O47 2.324 . S
Eu31 O51 2.326 . S
Eu31 O53 2.500 . S
Eu31 O54 2.473 . S
C32 O29 1.255 . S
C32 O33 1.247 . S
O33 C32 1.247 . S
C34 O46 1.242 . S
C34 O47 1.258 . S
O35 Eu31 2.292 . S
O35 C37 1.255 . S
C36 Eu31 2.852 . S
C36 C40 1.503 . S
C36 O53 1.273 . S
C36 O54 1.257 . S
C37 O35 1.255 . S
C37 O38 1.247 . S
O38 C37 1.247 . S
C39 O51 1.242 . S
C39 O52 1.258 . S
C40 C36 1.503 . S
C40 C41 1.379 . S
C40 C45 1.392 . S
C41 C40 1.379 . S
C41 C42 1.404 . S
C41 H55 0.929 . S
C42 C41 1.404 . S
C42 C43 1.389 . S
C43 C42 1.389 . S
C43 C44 1.399 . S
C43 H56 0.931 . S
C44 C43 1.399 . S
C44 C45 1.390 . S
C45 C40 1.392 . S
C45 C44 1.390 . S
C45 H57 0.929 . S
O46 Tb30 2.326 . S
O46 C34 1.242 . S
O47 Eu31 2.324 . S
O47 C34 1.258 . S
O48 Tb30 2.500 . S
O48 C50 1.273 . S
O49 Tb30 2.473 . S
O49 C50 1.257 . S
C50 O48 1.273 . S
C50 O49 1.257 . S
O51 Eu31 2.326 . S
O51 C39 1.242 . S
O52 Tb30 2.324 . S
O52 C39 1.258 . S
O53 Eu31 2.500 . S
O53 C36 1.273 . S
O54 Eu31 2.473 . S
O54 C36 1.257 . S
H55 C41 0.929 . S
H56 C43 0.931 . S
H57 C45 0.929 . S
O58 Tb59 2.292 1_556 S
O58 C61 1.255 . S
Tb59 O58 2.292 1_554 S
Tb59 O75 2.326 . S
Tb59 O77 2.500 . S
Tb59 O78 2.473 . S
Tb59 O81 2.324 . S
Eu60 O64 2.292 . S
Eu60 C65 2.852 . S
Eu60 O76 2.324 . S
Eu60 O80 2.326 . S
Eu60 O82 2.500 . S
Eu60 O83 2.473 . S
C61 O58 1.255 . S
C61 O62 1.247 . S
O62 C61 1.247 . S
C63 O75 1.242 . S
C63 O76 1.258 . S
O64 Eu60 2.292 . S
O64 C66 1.255 . S
C65 Eu60 2.852 . S
C65 C69 1.503 . S
C65 O82 1.273 . S
C65 O83 1.257 . S
C66 O64 1.255 . S
C66 O67 1.247 . S
O67 C66 1.247 . S
C68 O80 1.242 . S
C68 O81 1.258 . S
C69 C65 1.503 . S
C69 C70 1.379 . S
C69 C74 1.392 . S
C70 C69 1.379 . S
C70 C71 1.404 . S
C70 H84 0.929 . S
C71 C70 1.404 . S
C71 C72 1.389 . S
C72 C71 1.389 . S
C72 C73 1.399 . S
C72 H85 0.931 . S
C73 C72 1.399 . S
C73 C74 1.390 . S
C74 C69 1.392 . S
C74 C73 1.390 . S
C74 H86 0.929 . S
O75 Tb59 2.326 . S
O75 C63 1.242 . S
O76 Eu60 2.324 . S
O76 C63 1.258 . S
O77 Tb59 2.500 . S
O77 C79 1.273 . S
O78 Tb59 2.473 . S
O78 C79 1.257 . S
C79 O77 1.273 . S
C79 O78 1.257 . S
O80 Eu60 2.326 . S
O80 C68 1.242 . S
O81 Tb59 2.324 . S
O81 C68 1.258 . S
O82 Eu60 2.500 . S
O82 C65 1.273 . S
O83 Eu60 2.473 . S
O83 C65 1.257 . S
H84 C70 0.929 . S
H85 C72 0.931 . S
H86 C74 0.929 . S
O87 Tb88 2.292 . S
O87 C90 1.255 . S
Tb88 O87 2.292 . S
Tb88 O104 2.326 . S
Tb88 O106 2.500 . S
Tb88 O107 2.473 . S
Tb88 O110 2.324 . S
Eu89 O93 2.292 . S
Eu89 C94 2.852 . S
Eu89 O105 2.324 . S
Eu89 O109 2.326 . S
Eu89 O111 2.500 . S
Eu89 O112 2.473 . S
C90 O87 1.255 . S
C90 O91 1.247 . S
O91 C90 1.247 . S
C92 O104 1.242 . S
C92 O105 1.258 . S
O93 Eu89 2.292 . S
O93 C95 1.255 . S
C94 Eu89 2.852 . S
C94 C98 1.503 . S
C94 O111 1.273 . S
C94 O112 1.257 . S
C95 O93 1.255 . S
C95 O96 1.247 . S
O96 C95 1.247 . S
C97 O109 1.242 . S
C97 O110 1.258 . S
C98 C94 1.503 . S
C98 C99 1.379 . S
C98 C103 1.392 . S
C99 C98 1.379 . S
C99 C100 1.404 . S
C99 H113 0.929 . S
C100 C99 1.404 . S
C100 C101 1.389 . S
C101 C100 1.389 . S
C101 C102 1.399 . S
C101 H114 0.931 . S
C102 C101 1.399 . S
C102 C103 1.390 . S
C103 C98 1.392 . S
C103 C102 1.390 . S
C103 H115 0.929 . S
O104 Tb88 2.326 . S
O104 C92 1.242 . S
O105 Eu89 2.324 . S
O105 C92 1.258 . S
O106 Tb88 2.500 . S
O106 C108 1.273 . S
O107 Tb88 2.473 . S
O107 C108 1.257 . S
C108 O106 1.273 . S
C108 O107 1.257 . S
O109 Eu89 2.326 . S
O109 C97 1.242 . S
O110 Tb88 2.324 . S
O110 C97 1.258 . S
O111 Eu89 2.500 . S
O111 C94 1.273 . S
O112 Eu89 2.473 . S
O112 C94 1.257 . S
H113 C99 0.929 . S
H114 C101 0.931 . S
H115 C103 0.929 . S
O116 Tb117 2.292 . S
O116 C119 1.255 . S
Tb117 O116 2.292 . S
Tb117 O133 2.326 . S
Tb117 O135 2.500 . S
Tb117 O136 2.473 . S
Tb117 O139 2.324 . S
Eu118 O122 2.292 . S
Eu118 C123 2.852 . S
Eu118 O134 2.324 . S
Eu118 O138 2.326 . S
Eu118 O140 2.500 . S
Eu118 O141 2.473 . S
C119 O116 1.255 . S
C119 O120 1.247 . S
O120 C119 1.247 . S
C121 O133 1.242 . S
C121 O134 1.258 . S
O122 Eu118 2.292 . S
O122 C124 1.255 . S
C123 Eu118 2.852 . S
C123 C127 1.503 . S
C123 O140 1.273 . S
C123 O141 1.257 . S
C124 O122 1.255 . S
C124 O125 1.247 . S
O125 C124 1.247 . S
C126 O138 1.242 . S
C126 O139 1.258 . S
C127 C123 1.503 . S
C127 C128 1.379 . S
C127 C132 1.392 . S
C128 C127 1.379 . S
C128 C129 1.404 . S
C128 H142 0.929 . S
C129 C128 1.404 . S
C129 C130 1.389 . S
C130 C129 1.389 . S
C130 C131 1.399 . S
C130 H143 0.931 . S
C131 C130 1.399 . S
C131 C132 1.390 . S
C132 C127 1.392 . S
C132 C131 1.390 . S
C132 H144 0.929 . S
O133 Tb117 2.326 . S
O133 C121 1.242 . S
O134 Eu118 2.324 . S
O134 C121 1.258 . S
O135 Tb117 2.500 . S
O135 C137 1.273 . S
O136 Tb117 2.473 . S
O136 C137 1.257 . S
C137 O135 1.273 . S
C137 O136 1.257 . S
O138 Eu118 2.326 . S
O138 C126 1.242 . S
O139 Tb117 2.324 . S
O139 C126 1.258 . S
O140 Eu118 2.500 . S
O140 C123 1.273 . S
O141 Eu118 2.473 . S
O141 C123 1.257 . S
H142 C128 0.929 . S
H143 C130 0.931 . S
H144 C132 0.929 . S
O145 Tb146 2.292 . S
O145 C148 1.255 . S
Tb146 O145 2.292 . S
Tb146 O162 2.326 . S
Tb146 O164 2.500 . S
Tb146 O165 2.473 . S
Tb146 O168 2.324 . S
Eu147 O151 2.292 . S
Eu147 C152 2.852 . S
Eu147 O163 2.324 . S
Eu147 O167 2.326 . S
Eu147 O169 2.500 . S
Eu147 O170 2.473 . S
C148 O145 1.255 . S
C148 O149 1.247 . S
O149 C148 1.247 . S
C150 O162 1.242 . S
C150 O163 1.258 . S
O151 Eu147 2.292 . S
O151 C153 1.255 . S
C152 Eu147 2.852 . S
C152 C156 1.503 . S
C152 O169 1.273 . S
C152 O170 1.257 . S
C153 O151 1.255 . S
C153 O154 1.247 . S
O154 C153 1.247 . S
C155 O167 1.242 . S
C155 O168 1.258 . S
C156 C152 1.503 . S
C156 C157 1.379 . S
C156 C161 1.392 . S
C157 C156 1.379 . S
C157 C158 1.404 . S
C157 H171 0.929 . S
C158 C157 1.404 . S
C158 C159 1.389 . S
C159 C158 1.389 . S
C159 C160 1.399 . S
C159 H172 0.931 . S
C160 C159 1.399 . S
C160 C161 1.390 . S
C161 C156 1.392 . S
C161 C160 1.390 . S
C161 H173 0.929 . S
O162 Tb146 2.326 . S
O162 C150 1.242 . S
O163 Eu147 2.324 . S
O163 C150 1.258 . S
O164 Tb146 2.500 . S
O164 C166 1.273 . S
O165 Tb146 2.473 . S
O165 C166 1.257 . S
C166 O164 1.273 . S
C166 O165 1.257 . S
O167 Eu147 2.326 . S
O167 C155 1.242 . S
O168 Tb146 2.324 . S
O168 C155 1.258 . S
O169 Eu147 2.500 . S
O169 C152 1.273 . S
O170 Eu147 2.473 . S
O170 C152 1.257 . S
H171 C157 0.929 . S
H172 C159 0.931 . S
H173 C161 0.929 . S
O174 Tb175 2.292 1_554 S
O174 C177 1.255 . S
Tb175 O174 2.292 1_556 S
Tb175 O191 2.326 . S
Tb175 O193 2.500 . S
Tb175 O194 2.473 . S
Tb175 O197 2.324 . S
Eu176 O180 2.292 . S
Eu176 C181 2.852 . S
Eu176 O192 2.324 . S
Eu176 O196 2.326 . S
Eu176 O198 2.500 . S
Eu176 O199 2.473 . S
C177 O174 1.255 . S
C177 O178 1.247 . S
O178 C177 1.247 . S
C179 O191 1.242 . S
C179 O192 1.258 . S
O180 Eu176 2.292 . S
O180 C182 1.255 . S
C181 Eu176 2.852 . S
C181 C185 1.503 . S
C181 O198 1.273 . S
C181 O199 1.257 . S
C182 O180 1.255 . S
C182 O183 1.247 . S
O183 C182 1.247 . S
C184 O196 1.242 . S
C184 O197 1.258 . S
C185 C181 1.503 . S
C185 C186 1.379 . S
C185 C190 1.392 . S
C186 C185 1.379 . S
C186 C187 1.404 . S
C186 H200 0.929 . S
C187 C186 1.404 . S
C187 C188 1.389 . S
C188 C187 1.389 . S
C188 C189 1.399 . S
C188 H201 0.931 . S
C189 C188 1.399 . S
C189 C190 1.390 . S
C190 C185 1.392 . S
C190 C189 1.390 . S
C190 H202 0.929 . S
O191 Tb175 2.326 . S
O191 C179 1.242 . S
O192 Eu176 2.324 . S
O192 C179 1.258 . S
O193 Tb175 2.500 . S
O193 C195 1.273 . S
O194 Tb175 2.473 . S
O194 C195 1.257 . S
C195 O193 1.273 . S
C195 O194 1.257 . S
O196 Eu176 2.326 . S
O196 C184 1.242 . S
O197 Tb175 2.324 . S
O197 C184 1.258 . S
O198 Eu176 2.500 . S
O198 C181 1.273 . S
O199 Eu176 2.473 . S
O199 C181 1.257 . S
H200 C186 0.929 . S
H201 C188 0.931 . S
H202 C190 0.929 . S
O203 Tb204 2.292 1_554 S
O203 C206 1.255 . S
Tb204 O203 2.292 1_556 S
Tb204 O220 2.326 . S
Tb204 O222 2.500 . S
Tb204 O223 2.473 . S
Tb204 O226 2.324 . S
Eu205 O209 2.292 . S
Eu205 C210 2.852 . S
Eu205 O221 2.324 . S
Eu205 O225 2.326 . S
Eu205 O227 2.500 . S
Eu205 O228 2.473 . S
C206 O203 1.255 . S
C206 O207 1.247 . S
O207 C206 1.247 . S
C208 O220 1.242 . S
C208 O221 1.258 . S
O209 Eu205 2.292 . S
O209 C211 1.255 . S
C210 Eu205 2.852 . S
C210 C214 1.503 . S
C210 O227 1.273 . S
C210 O228 1.257 . S
C211 O209 1.255 . S
C211 O212 1.247 . S
O212 C211 1.247 . S
C213 O225 1.242 . S
C213 O226 1.258 . S
C214 C210 1.503 . S
C214 C215 1.379 . S
C214 C219 1.392 . S
C215 C214 1.379 . S
C215 C216 1.404 . S
C215 H229 0.929 . S
C216 C215 1.404 . S
C216 C217 1.389 . S
C217 C216 1.389 . S
C217 C218 1.399 . S
C217 H230 0.931 . S
C218 C217 1.399 . S
C218 C219 1.390 . S
C219 C214 1.392 . S
C219 C218 1.390 . S
C219 H231 0.929 . S
O220 Tb204 2.326 . S
O220 C208 1.242 . S
O221 Eu205 2.324 . S
O221 C208 1.258 . S
O222 Tb204 2.500 . S
O222 C224 1.273 . S
O223 Tb204 2.473 . S
O223 C224 1.257 . S
C224 O222 1.273 . S
C224 O223 1.257 . S
O225 Eu205 2.326 . S
O225 C213 1.242 . S
O226 Tb204 2.324 . S
O226 C213 1.258 . S
O227 Eu205 2.500 . S
O227 C210 1.273 . S
O228 Eu205 2.473 . S
O228 C210 1.257 . S
H229 C215 0.929 . S
H230 C217 0.931 . S
H231 C219 0.929 . S
O232 Tb233 2.292 1_554 S
O232 C235 1.255 . S
Tb233 O232 2.292 1_556 S
Tb233 O249 2.326 . S
Tb233 O251 2.500 . S
Tb233 O252 2.473 . S
Tb233 O255 2.324 . S
Eu234 O238 2.292 . S
Eu234 C239 2.852 . S
Eu234 O250 2.324 . S
Eu234 O254 2.326 . S
Eu234 O256 2.500 . S
Eu234 O257 2.473 . S
C235 O232 1.255 . S
C235 O236 1.247 . S
O236 C235 1.247 . S
C237 O249 1.242 . S
C237 O250 1.258 . S
O238 Eu234 2.292 . S
O238 C240 1.255 . S
C239 Eu234 2.852 . S
C239 C243 1.503 . S
C239 O256 1.273 . S
C239 O257 1.257 . S
C240 O238 1.255 . S
C240 O241 1.247 . S
O241 C240 1.247 . S
C242 O254 1.242 . S
C242 O255 1.258 . S
C243 C239 1.503 . S
C243 C244 1.379 . S
C243 C248 1.392 . S
C244 C243 1.379 . S
C244 C245 1.404 . S
C244 H258 0.929 . S
C245 C244 1.404 . S
C245 C246 1.389 . S
C246 C245 1.389 . S
C246 C247 1.399 . S
C246 H259 0.931 . S
C247 C246 1.399 . S
C247 C248 1.390 . S
C248 C243 1.392 . S
C248 C247 1.390 . S
C248 H260 0.929 . S
O249 Tb233 2.326 . S
O249 C237 1.242 . S
O250 Eu234 2.324 . S
O250 C237 1.258 . S
O251 Tb233 2.500 . S
O251 C253 1.273 . S
O252 Tb233 2.473 . S
O252 C253 1.257 . S
C253 O251 1.273 . S
C253 O252 1.257 . S
O254 Eu234 2.326 . S
O254 C242 1.242 . S
O255 Tb233 2.324 . S
O255 C242 1.258 . S
O256 Eu234 2.500 . S
O256 C239 1.273 . S
O257 Eu234 2.473 . S
O257 C239 1.257 . S
H258 C244 0.929 . S
H259 C246 0.931 . S
H260 C248 0.929 . S
O261 Tb262 2.292 . S
O261 C264 1.255 . S
Tb262 O261 2.292 . S
Tb262 O278 2.326 . S
Tb262 O280 2.500 . S
Tb262 O281 2.473 . S
Tb262 O284 2.324 . S
Eu263 O267 2.292 . S
Eu263 C268 2.852 . S
Eu263 O279 2.324 . S
Eu263 O283 2.326 . S
Eu263 O285 2.500 . S
Eu263 O286 2.473 . S
C264 O261 1.255 . S
C264 O265 1.247 . S
O265 C264 1.247 . S
C266 O278 1.242 . S
C266 O279 1.258 . S
O267 Eu263 2.292 . S
O267 C269 1.255 . S
C268 Eu263 2.852 . S
C268 C272 1.503 . S
C268 O285 1.273 . S
C268 O286 1.257 . S
C269 O267 1.255 . S
C269 O270 1.247 . S
O270 C269 1.247 . S
C271 O283 1.242 . S
C271 O284 1.258 . S
C272 C268 1.503 . S
C272 C273 1.379 . S
C272 C277 1.392 . S
C273 C272 1.379 . S
C273 C274 1.404 . S
C273 H287 0.929 . S
C274 C273 1.404 . S
C274 C275 1.389 . S
C275 C274 1.389 . S
C275 C276 1.399 . S
C275 H288 0.931 . S
C276 C275 1.399 . S
C276 C277 1.390 . S
C277 C272 1.392 . S
C277 C276 1.390 . S
C277 H289 0.929 . S
O278 Tb262 2.326 . S
O278 C266 1.242 . S
O279 Eu263 2.324 . S
O279 C266 1.258 . S
O280 Tb262 2.500 . S
O280 C282 1.273 . S
O281 Tb262 2.473 . S
O281 C282 1.257 . S
C282 O280 1.273 . S
C282 O281 1.257 . S
O283 Eu263 2.326 . S
O283 C271 1.242 . S
O284 Tb262 2.324 . S
O284 C271 1.258 . S
O285 Eu263 2.500 . S
O285 C268 1.273 . S
O286 Eu263 2.473 . S
O286 C268 1.257 . S
H287 C273 0.929 . S
H288 C275 0.931 . S
H289 C277 0.929 . S
O290 Tb291 2.292 . S
O290 C293 1.255 . S
Tb291 O290 2.292 . S
Tb291 O307 2.326 . S
Tb291 O309 2.500 . S
Tb291 O310 2.473 . S
Tb291 O313 2.324 . S
Eu292 O296 2.292 . S
Eu292 C297 2.852 . S
Eu292 O308 2.324 . S
Eu292 O312 2.326 . S
Eu292 O314 2.500 . S
Eu292 O315 2.473 . S
C293 O290 1.255 . S
C293 O294 1.247 . S
O294 C293 1.247 . S
C295 O307 1.242 . S
C295 O308 1.258 . S
O296 Eu292 2.292 . S
O296 C298 1.255 . S
C297 Eu292 2.852 . S
C297 C301 1.503 . S
C297 O314 1.273 . S
C297 O315 1.257 . S
C298 O296 1.255 . S
C298 O299 1.247 . S
O299 C298 1.247 . S
C300 O312 1.242 . S
C300 O313 1.258 . S
C301 C297 1.503 . S
C301 C302 1.379 . S
C301 C306 1.392 . S
C302 C301 1.379 . S
C302 C303 1.404 . S
C302 H316 0.929 . S
C303 C302 1.404 . S
C303 C304 1.389 . S
C304 C303 1.389 . S
C304 C305 1.399 . S
C304 H317 0.931 . S
C305 C304 1.399 . S
C305 C306 1.390 . S
C306 C301 1.392 . S
C306 C305 1.390 . S
C306 H318 0.929 . S
O307 Tb291 2.326 . S
O307 C295 1.242 . S
O308 Eu292 2.324 . S
O308 C295 1.258 . S
O309 Tb291 2.500 . S
O309 C311 1.273 . S
O310 Tb291 2.473 . S
O310 C311 1.257 . S
C311 O309 1.273 . S
C311 O310 1.257 . S
O312 Eu292 2.326 . S
O312 C300 1.242 . S
O313 Tb291 2.324 . S
O313 C300 1.258 . S
O314 Eu292 2.500 . S
O314 C297 1.273 . S
O315 Eu292 2.473 . S
O315 C297 1.257 . S
H316 C302 0.929 . S
H317 C304 0.931 . S
H318 C306 0.929 . S
O319 Tb320 2.292 . S
O319 C322 1.255 . S
Tb320 O319 2.292 . S
Tb320 O336 2.326 . S
Tb320 O338 2.500 . S
Tb320 O339 2.473 . S
Tb320 O342 2.324 . S
Eu321 O325 2.292 . S
Eu321 C326 2.852 . S
Eu321 O337 2.324 . S
Eu321 O341 2.326 . S
Eu321 O343 2.500 . S
Eu321 O344 2.473 . S
C322 O319 1.255 . S
C322 O323 1.247 . S
O323 C322 1.247 . S
C324 O336 1.242 . S
C324 O337 1.258 . S
O325 Eu321 2.292 . S
O325 C327 1.255 . S
C326 Eu321 2.852 . S
C326 C330 1.503 . S
C326 O343 1.273 . S
C326 O344 1.257 . S
C327 O325 1.255 . S
C327 O328 1.247 . S
O328 C327 1.247 . S
C329 O341 1.242 . S
C329 O342 1.258 . S
C330 C326 1.503 . S
C330 C331 1.379 . S
C330 C335 1.392 . S
C331 C330 1.379 . S
C331 C332 1.404 . S
C331 H345 0.929 . S
C332 C331 1.404 . S
C332 C333 1.389 . S
C333 C332 1.389 . S
C333 C334 1.399 . S
C333 H346 0.931 . S
C334 C333 1.399 . S
C334 C335 1.390 . S
C335 C330 1.392 . S
C335 C334 1.390 . S
C335 H347 0.929 . S
O336 Tb320 2.326 . S
O336 C324 1.242 . S
O337 Eu321 2.324 . S
O337 C324 1.258 . S
O338 Tb320 2.500 . S
O338 C340 1.273 . S
O339 Tb320 2.473 . S
O339 C340 1.257 . S
C340 O338 1.273 . S
C340 O339 1.257 . S
O341 Eu321 2.326 . S
O341 C329 1.242 . S
O342 Tb320 2.324 . S
O342 C329 1.258 . S
O343 Eu321 2.500 . S
O343 C326 1.273 . S
O344 Eu321 2.473 . S
O344 C326 1.257 . S
H345 C331 0.929 . S
H346 C333 0.931 . S
H347 C335 0.929 . S
H348 C366 0.951 . S
H349 C368 0.954 . S
H350 C370 0.936 1_554 S
H351 C371 0.950 1_554 S
H352 C373 0.950 . S
H353 C376 0.950 . S
H354 C377 0.950 . S
H355 C379 0.950 . S
H356 C380 0.950 . S
H357 C381 0.951 . S
H358 C383 0.951 . S
H359 C385 0.949 . S
H360 C386 0.950 1_556 S
H361 C388 0.950 . S
H362 C391 0.950 . S
H363 C392 0.950 . S
H364 C394 0.950 . S
H365 C395 0.950 . S
C366 H348 0.951 . S
C366 C367 1.366 . S
C366 C368 1.384 1_565 S
C367 C366 1.366 . S
C367 C371 1.385 . S
C368 H349 0.954 . S
C368 C366 1.384 1_545 S
C368 C369 1.367 . S
C369 C368 1.367 . S
C369 C370 1.423 1_545 S
C369 C372 1.499 . S
C370 H350 0.936 1_556 S
C370 C369 1.423 1_565 S
C370 C371 1.379 . S
C371 H351 0.950 1_556 S
C371 C367 1.385 . S
C371 C370 1.379 . S
C372 C369 1.499 . S
C372 C373 1.373 1_556 S
C372 C374 1.389 . S
C373 H352 0.950 . S
C373 C372 1.373 1_554 S
C373 C389 1.377 . S
C374 C372 1.389 . S
C374 C375 1.524 . S
C374 C388 1.377 . S
C375 C374 1.524 . S
C375 C376 1.397 . S
C375 C380 1.363 . S
C376 H353 0.950 . S
C376 C375 1.397 . S
C376 C377 1.334 . S
C377 H354 0.950 . S
C377 C376 1.334 . S
C377 C378 1.287 . S
C378 C377 1.287 . S
C378 C379 1.524 . S
C378 H397 0.913 . S
C379 H355 0.950 . S
C379 C378 1.524 . S
C379 C380 1.415 . S
C380 H356 0.950 . S
C380 C375 1.363 . S
C380 C379 1.415 . S
C381 H357 0.951 . S
C381 C382 1.366 . S
C381 C383 1.388 . S
C382 C381 1.366 . S
C382 C386 1.385 . S
C383 H358 0.951 . S
C383 C381 1.388 . S
C383 C384 1.366 . S
C384 C383 1.366 . S
C384 C385 1.415 1_554 S
C384 C387 1.499 . S
C385 H359 0.949 . S
C385 C384 1.415 1_556 S
C385 C386 1.374 1_556 S
C386 H360 0.950 1_554 S
C386 C382 1.385 . S
C386 C385 1.374 1_554 S
C387 C384 1.499 . S
C387 C388 1.373 1_554 S
C387 C389 1.389 . S
C388 H361 0.950 . S
C388 C374 1.377 . S
C388 C387 1.373 1_556 S
C389 C373 1.377 . S
C389 C387 1.389 . S
C389 C390 1.524 . S
C390 C389 1.524 . S
C390 C391 1.397 . S
C390 C395 1.363 . S
C391 H362 0.950 . S
C391 C390 1.397 . S
C391 C392 1.334 . S
C392 H363 0.950 . S
C392 C391 1.334 . S
C392 C393 1.287 . S
C393 C392 1.287 . S
C393 C394 1.524 . S
C393 H396 0.999 . S
C394 H364 0.950 . S
C394 C393 1.524 . S
C394 C395 1.415 . S
C395 H365 0.950 . S
C395 C390 1.363 . S
C395 C394 1.415 . S
H396 C393 0.999 . S
H397 C378 0.913 . S
H398 C416 0.951 . S
H399 C418 0.951 . S
H400 C420 0.950 1_556 S
H401 C421 0.949 . S
H402 C423 0.950 . S
H403 C426 0.950 1_556 S
H404 C427 0.952 . S
H405 C429 0.950 . S
H406 C430 0.950 . S
H407 C431 0.951 . S
H408 C433 0.951 1_655 S
H409 C435 0.950 1_554 S
H410 C436 0.962 . S
H411 C438 0.950 . S
H412 C441 0.950 1_554 S
H413 C442 0.962 1_455 S
H414 C444 0.950 . S
H415 C445 0.950 . S
C416 H398 0.951 . S
C416 C417 1.366 . S
C416 C418 1.388 . S
C417 C416 1.366 . S
C417 C421 1.385 . S
C418 H399 0.951 . S
C418 C416 1.388 . S
C418 C419 1.366 . S
C419 C418 1.366 . S
C419 C420 1.414 . S
C419 C422 1.499 . S
C420 H400 0.950 1_554 S
C420 C419 1.414 . S
C420 C421 1.374 . S
C421 H401 0.949 . S
C421 C417 1.385 . S
C421 C420 1.374 . S
C422 C419 1.499 . S
C422 C423 1.373 1_554 S
C422 C424 1.389 . S
C423 H402 0.950 . S
C423 C422 1.373 1_556 S
C423 C439 1.377 . S
C424 C422 1.389 . S
C424 C425 1.524 . S
C424 C438 1.377 . S
C425 C424 1.524 . S
C425 C426 1.397 . S
C425 C430 1.363 . S
C426 H403 0.950 1_554 S
C426 C425 1.397 . S
C426 C427 1.334 . S
C427 H404 0.952 . S
C427 C426 1.334 . S
C427 C428 1.287 . S
C428 C427 1.287 . S
C428 C429 1.524 . S
C428 H447 0.913 . S
C429 H405 0.950 . S
C429 C428 1.524 . S
C429 C430 1.415 . S
C430 H406 0.950 . S
C430 C425 1.363 . S
C430 C429 1.415 . S
C431 H407 0.951 . S
C431 C432 1.366 . S
C431 C433 1.388 . S
C432 C431 1.366 . S
C432 C436 1.385 . S
C433 H408 0.951 1_455 S
C433 C431 1.388 . S
C433 C434 1.366 1_455 S
C434 C433 1.366 1_655 S
C434 C435 1.414 1_655 S
C434 C437 1.499 . S
C435 H409 0.950 1_556 S
C435 C434 1.414 1_455 S
C435 C436 1.374 . S
C436 H410 0.962 . S
C436 C432 1.385 . S
C436 C435 1.374 . S
C437 C434 1.499 . S
C437 C438 1.373 1_556 S
C437 C439 1.389 . S
C438 H411 0.950 . S
C438 C424 1.377 . S
C438 C437 1.373 1_554 S
C439 C423 1.377 . S
C439 C437 1.389 . S
C439 C440 1.524 . S
C440 C439 1.524 . S
C440 C441 1.397 . S
C440 C445 1.363 . S
C441 H412 0.950 1_556 S
C441 C440 1.397 . S
C441 C442 1.334 . S
C442 H413 0.962 1_655 S
C442 C441 1.334 . S
C442 C443 1.287 . S
C443 C442 1.287 . S
C443 C444 1.524 . S
C443 H446 0.999 . S
C444 H414 0.950 . S
C444 C443 1.524 . S
C444 C445 1.415 . S
C445 H415 0.950 . S
C445 C440 1.363 . S
C445 C444 1.415 . S
H446 C443 0.999 . S
H447 C428 0.913 . S
H448 C466 0.951 . S
H449 C468 0.951 . S
H450 C470 0.950 . S
H451 C471 0.950 . S
H452 C473 0.950 . S
H453 C476 0.950 . S
H454 C477 0.950 . S
H455 C479 0.950 . S
H456 C480 0.950 . S
H457 C481 0.951 . S
H458 C483 0.951 . S
H459 C485 0.950 . S
H460 C486 0.950 . S
H461 C488 0.950 . S
H462 C491 0.950 . S
H463 C492 0.950 . S
H464 C494 0.950 . S
H465 C495 0.950 . S
C466 H448 0.951 . S
C466 C467 1.366 . S
C466 C468 1.388 . S
C467 C466 1.366 . S
C467 C471 1.385 . S
C468 H449 0.951 . S
C468 C466 1.388 . S
C468 C469 1.366 . S
C469 C468 1.366 . S
C469 C470 1.414 . S
C469 C472 1.499 . S
C470 H450 0.950 . S
C470 C469 1.414 . S
C470 C471 1.374 . S
C471 H451 0.950 . S
C471 C467 1.385 . S
C471 C470 1.374 . S
C472 C469 1.499 . S
C472 C473 1.373 1_554 S
C472 C474 1.389 . S
C473 H452 0.950 . S
C473 C472 1.373 1_556 S
C473 C489 1.377 . S
C474 C472 1.389 . S
C474 C475 1.524 . S
C474 C488 1.377 . S
C475 C474 1.524 . S
C475 C476 1.397 . S
C475 C480 1.363 . S
C476 H453 0.950 . S
C476 C475 1.397 . S
C476 C477 1.334 . S
C477 H454 0.950 . S
C477 C476 1.334 . S
C477 C478 1.287 . S
C478 C477 1.287 . S
C478 C479 1.524 . S
C478 H497 0.913 . S
C479 H455 0.950 . S
C479 C478 1.524 . S
C479 C480 1.415 . S
C480 H456 0.950 . S
C480 C475 1.363 . S
C480 C479 1.415 . S
C481 H457 0.951 . S
C481 C482 1.366 . S
C481 C483 1.388 . S
C482 C481 1.366 . S
C482 C486 1.385 . S
C483 H458 0.951 . S
C483 C481 1.388 . S
C483 C484 1.366 . S
C484 C483 1.366 . S
C484 C485 1.414 . S
C484 C487 1.499 . S
C485 H459 0.950 . S
C485 C484 1.414 . S
C485 C486 1.374 . S
C486 H460 0.950 . S
C486 C482 1.385 . S
C486 C485 1.374 . S
C487 C484 1.499 . S
C487 C488 1.373 1_556 S
C487 C489 1.389 . S
C488 H461 0.950 . S
C488 C474 1.377 . S
C488 C487 1.373 1_554 S
C489 C473 1.377 . S
C489 C487 1.389 . S
C489 C490 1.524 . S
C490 C489 1.524 . S
C490 C491 1.397 . S
C490 C495 1.363 . S
C491 H462 0.950 . S
C491 C490 1.397 . S
C491 C492 1.334 . S
C492 H463 0.950 . S
C492 C491 1.334 . S
C492 C493 1.287 . S
C493 C492 1.287 . S
C493 C494 1.524 . S
C493 H496 0.999 . S
C494 H464 0.950 . S
C494 C493 1.524 . S
C494 C495 1.415 . S
C495 H465 0.950 . S
C495 C490 1.363 . S
C495 C494 1.415 . S
H496 C493 0.999 . S
H497 C478 0.913 . S
H498 C516 0.951 . S
H499 C518 0.951 . S
H500 C520 0.950 . S
H501 C521 0.950 . S
H502 C523 0.950 . S
H503 C526 0.950 . S
H504 C527 0.950 . S
H505 C529 0.950 . S
H506 C530 0.950 . S
H507 C531 0.951 . S
H508 C533 0.951 . S
H509 C535 0.950 1_455 S
H510 C536 0.950 . S
H511 C538 0.950 . S
H512 C541 0.950 . S
H513 C542 0.950 . S
H514 C544 0.946 . S
H515 C545 0.950 . S
C516 H498 0.951 . S
C516 C517 1.366 . S
C516 C518 1.388 . S
C517 C516 1.366 . S
C517 C521 1.385 . S
C518 H499 0.951 . S
C518 C516 1.388 . S
C518 C519 1.366 . S
C519 C518 1.366 . S
C519 C520 1.414 . S
C519 C522 1.499 . S
C520 H500 0.950 . S
C520 C519 1.414 . S
C520 C521 1.374 . S
C521 H501 0.950 . S
C521 C517 1.385 . S
C521 C520 1.374 . S
C522 C519 1.499 . S
C522 C523 1.373 . S
C522 C524 1.389 . S
C523 H502 0.950 . S
C523 C522 1.373 . S
C523 C539 1.377 . S
C524 C522 1.389 . S
C524 C525 1.524 . S
C524 C538 1.377 . S
C525 C524 1.524 . S
C525 C526 1.397 . S
C525 C530 1.363 . S
C526 H503 0.950 . S
C526 C525 1.397 . S
C526 C527 1.334 . S
C527 H504 0.950 . S
C527 C526 1.334 . S
C527 C528 1.287 . S
C528 C527 1.287 . S
C528 C529 1.524 . S
C528 H547 0.913 . S
C529 H505 0.950 . S
C529 C528 1.524 . S
C529 C530 1.415 . S
C530 H506 0.950 . S
C530 C525 1.363 . S
C530 C529 1.415 . S
C531 H507 0.951 . S
C531 C532 1.366 . S
C531 C533 1.388 . S
C532 C531 1.366 . S
C532 C536 1.385 . S
C533 H508 0.951 . S
C533 C531 1.388 . S
C533 C534 1.366 1_655 S
C534 C533 1.366 1_455 S
C534 C535 1.414 1_455 S
C534 C537 1.499 . S
C535 H509 0.950 1_655 S
C535 C534 1.414 1_655 S
C535 C536 1.374 . S
C536 H510 0.950 . S
C536 C532 1.385 . S
C536 C535 1.374 . S
C537 C534 1.499 . S
C537 C538 1.373 . S
C537 C539 1.389 . S
C538 H511 0.950 . S
C538 C524 1.377 . S
C538 C537 1.373 . S
C539 C523 1.377 . S
C539 C537 1.389 . S
C539 C540 1.524 . S
C540 C539 1.524 . S
C540 C541 1.397 . S
C540 C545 1.363 . S
C541 H512 0.950 . S
C541 C540 1.397 . S
C541 C542 1.334 1_455 S
C542 H513 0.950 . S
C542 C541 1.334 1_655 S
C542 C543 1.287 . S
C543 C542 1.287 . S
C543 C544 1.524 1_655 S
C543 H546 0.999 . S
C544 H514 0.946 . S
C544 C543 1.524 1_455 S
C544 C545 1.415 . S
C545 H515 0.950 . S
C545 C540 1.363 . S
C545 C544 1.415 . S
H546 C543 0.999 . S
H547 C528 0.913 . S
H548 C566 0.951 . S
H549 C568 0.951 . S
H550 C570 0.950 . S
H551 C571 0.950 . S
H552 C573 0.950 . S
H553 C576 0.950 . S
H554 C577 0.950 . S
H555 C579 0.950 . S
H556 C580 0.950 . S
H557 C581 0.951 . S
H558 C583 0.951 . S
H559 C585 0.950 . S
H560 C586 0.950 . S
H561 C588 0.950 . S
H562 C591 0.950 . S
H563 C592 0.950 . S
H564 C594 0.950 . S
H565 C595 0.950 . S
C566 H548 0.951 . S
C566 C567 1.366 . S
C566 C568 1.388 . S
C567 C566 1.366 . S
C567 C571 1.385 . S
C568 H549 0.951 . S
C568 C566 1.388 . S
C568 C569 1.366 . S
C569 C568 1.366 . S
C569 C570 1.414 . S
C569 C572 1.499 . S
C570 H550 0.950 . S
C570 C569 1.414 . S
C570 C571 1.374 . S
C571 H551 0.950 . S
C571 C567 1.385 . S
C571 C570 1.374 . S
C572 C569 1.499 . S
C572 C573 1.373 . S
C572 C574 1.389 . S
C573 H552 0.950 . S
C573 C572 1.373 . S
C573 C589 1.377 . S
C574 C572 1.389 . S
C574 C575 1.524 . S
C574 C588 1.377 . S
C575 C574 1.524 . S
C575 C576 1.397 . S
C575 C580 1.363 . S
C576 H553 0.950 . S
C576 C575 1.397 . S
C576 C577 1.334 . S
C577 H554 0.950 . S
C577 C576 1.334 . S
C577 C578 1.287 . S
C578 C577 1.287 . S
C578 C579 1.524 . S
C578 H597 0.913 . S
C579 H555 0.950 . S
C579 C578 1.524 . S
C579 C580 1.415 . S
C580 H556 0.950 . S
C580 C575 1.363 . S
C580 C579 1.415 . S
C581 H557 0.951 . S
C581 C582 1.366 . S
C581 C583 1.388 . S
C582 C581 1.366 . S
C582 C586 1.385 . S
C583 H558 0.951 . S
C583 C581 1.388 . S
C583 C584 1.366 . S
C584 C583 1.366 . S
C584 C585 1.414 . S
C584 C587 1.499 . S
C585 H559 0.950 . S
C585 C584 1.414 . S
C585 C586 1.374 . S
C586 H560 0.950 . S
C586 C582 1.385 . S
C586 C585 1.374 . S
C587 C584 1.499 . S
C587 C588 1.373 . S
C587 C589 1.389 . S
C588 H561 0.950 . S
C588 C574 1.377 . S
C588 C587 1.373 . S
C589 C573 1.377 . S
C589 C587 1.389 . S
C589 C590 1.524 . S
C590 C589 1.524 . S
C590 C591 1.397 . S
C590 C595 1.363 . S
C591 H562 0.950 . S
C591 C590 1.397 . S
C591 C592 1.334 . S
C592 H563 0.950 . S
C592 C591 1.334 . S
C592 C593 1.287 . S
C593 C592 1.287 . S
C593 C594 1.524 . S
C593 H596 0.999 . S
C594 H564 0.950 . S
C594 C593 1.524 . S
C594 C595 1.415 . S
C595 H565 0.950 . S
C595 C590 1.363 . S
C595 C594 1.415 . S
H596 C593 0.999 . S
H597 C578 0.913 . S
H598 C616 0.951 . S
H599 C618 0.951 . S
H600 C620 0.950 . S
H601 C621 0.950 . S
H602 C623 0.950 . S
H603 C626 0.950 . S
H604 C627 0.950 . S
H605 C629 0.950 . S
H606 C630 0.950 . S
H607 C631 0.951 . S
H608 C633 0.951 . S
H609 C635 0.936 1_565 S
H610 C636 0.950 . S
H611 C638 0.950 . S
H612 C641 0.950 . S
H613 C642 0.950 . S
H614 C644 0.950 . S
H615 C645 0.950 . S
C616 H598 0.951 . S
C616 C617 1.366 . S
C616 C618 1.388 . S
C617 C616 1.366 . S
C617 C621 1.385 . S
C618 H599 0.951 . S
C618 C616 1.388 . S
C618 C619 1.366 . S
C619 C618 1.366 . S
C619 C620 1.414 . S
C619 C622 1.499 . S
C620 H600 0.950 . S
C620 C619 1.414 . S
C620 C621 1.374 . S
C621 H601 0.950 . S
C621 C617 1.385 . S
C621 C620 1.374 . S
C622 C619 1.499 . S
C622 C623 1.373 . S
C622 C624 1.389 . S
C623 H602 0.950 . S
C623 C622 1.373 . S
C623 C639 1.377 . S
C624 C622 1.389 . S
C624 C625 1.524 . S
C624 C638 1.377 . S
C625 C624 1.524 . S
C625 C626 1.397 . S
C625 C630 1.363 . S
C626 H603 0.950 . S
C626 C625 1.397 . S
C626 C627 1.334 . S
C627 H604 0.950 . S
C627 C626 1.334 . S
C627 C628 1.287 . S
C628 C627 1.287 . S
C628 C629 1.524 . S
C628 H647 0.913 . S
C629 H605 0.950 . S
C629 C628 1.524 . S
C629 C630 1.415 . S
C630 H606 0.950 . S
C630 C625 1.363 . S
C630 C629 1.415 . S
C631 H607 0.951 . S
C631 C632 1.366 . S
C631 C633 1.388 . S
C632 C631 1.366 . S
C632 C636 1.385 . S
C633 H608 0.951 . S
C633 C631 1.388 . S
C633 C634 1.366 1_545 S
C634 C633 1.366 1_565 S
C634 C635 1.406 1_565 S
C634 C637 1.499 . S
C635 H609 0.936 1_545 S
C635 C634 1.406 1_545 S
C635 C636 1.397 . S
C636 H610 0.950 . S
C636 C632 1.385 . S
C636 C635 1.397 . S
C637 C634 1.499 . S
C637 C638 1.373 . S
C637 C639 1.389 . S
C638 H611 0.950 . S
C638 C624 1.377 . S
C638 C637 1.373 . S
C639 C623 1.377 . S
C639 C637 1.389 . S
C639 C640 1.524 . S
C640 C639 1.524 . S
C640 C641 1.397 . S
C640 C645 1.363 . S
C641 H612 0.950 . S
C641 C640 1.397 . S
C641 C642 1.334 . S
C642 H613 0.950 . S
C642 C641 1.334 . S
C642 C643 1.287 . S
C643 C642 1.287 . S
C643 C644 1.524 . S
C643 H646 0.999 . S
C644 H614 0.950 . S
C644 C643 1.524 . S
C644 C645 1.415 . S
C645 H615 0.950 . S
C645 C640 1.363 . S
C645 C644 1.415 . S
H646 C643 0.999 . S
H647 C628 0.913 . S
H648 C666 0.951 . S
H649 C668 0.951 1_554 S
H650 C670 0.950 . S
H651 C671 0.950 . S
H652 C673 0.950 . S
H653 C676 0.950 . S
H654 C677 0.950 . S
H655 C679 0.950 . S
H656 C680 0.950 . S
H657 C681 0.951 . S
H658 C683 0.951 1_556 S
H659 C685 0.949 1_565 S
H660 C686 0.950 . S
H661 C688 0.950 . S
H662 C691 0.950 . S
H663 C692 0.958 . S
H664 C694 0.950 . S
H665 C695 0.950 . S
C666 H648 0.951 . S
C666 C667 1.366 . S
C666 C668 1.388 . S
C667 C666 1.366 . S
C667 C671 1.385 . S
C668 H649 0.951 1_556 S
C668 C666 1.388 . S
C668 C669 1.366 . S
C669 C668 1.366 . S
C669 C670 1.414 . S
C669 C672 1.499 . S
C670 H650 0.950 . S
C670 C669 1.414 . S
C670 C671 1.374 . S
C671 H651 0.950 . S
C671 C667 1.385 . S
C671 C670 1.374 . S
C672 C669 1.499 . S
C672 C673 1.373 . S
C672 C674 1.384 1_556 S
C673 H652 0.950 . S
C673 C672 1.373 . S
C673 C689 1.377 1_556 S
C674 C672 1.384 1_554 S
C674 C675 1.524 1_554 S
C674 C688 1.382 . S
C675 C674 1.524 1_556 S
C675 C676 1.414 . S
C675 C680 1.347 1_556 S
C676 H653 0.950 . S
C676 C675 1.414 . S
C676 C677 1.334 . S
C677 H654 0.950 . S
C677 C676 1.334 . S
C677 C678 1.287 . S
C678 C677 1.287 . S
C678 C679 1.524 1_556 S
C678 H697 0.913 . S
C679 H655 0.950 . S
C679 C678 1.524 1_554 S
C679 C680 1.415 . S
C680 H656 0.950 . S
C680 C675 1.347 1_554 S
C680 C679 1.415 . S
C681 H657 0.951 . S
C681 C682 1.366 . S
C681 C683 1.388 . S
C682 C681 1.366 . S
C682 C686 1.385 . S
C683 H658 0.951 1_554 S
C683 C681 1.388 . S
C683 C684 1.366 1_545 S
C684 C683 1.366 1_565 S
C684 C685 1.412 1_565 S
C684 C687 1.499 . S
C685 H659 0.949 1_545 S
C685 C684 1.412 1_545 S
C685 C686 1.377 . S
C686 H660 0.950 . S
C686 C682 1.385 . S
C686 C685 1.377 . S
C687 C684 1.499 . S
C687 C688 1.373 . S
C687 C689 1.389 . S
C688 H661 0.950 . S
C688 C674 1.382 . S
C688 C687 1.373 . S
C689 C673 1.377 1_554 S
C689 C687 1.389 . S
C689 C690 1.524 . S
C690 C689 1.524 . S
C690 C691 1.397 . S
C690 C695 1.363 1_554 S
C691 H662 0.950 . S
C691 C690 1.397 . S
C691 C692 1.334 . S
C692 H663 0.958 . S
C692 C691 1.334 . S
C692 C693 1.287 . S
C693 C692 1.287 . S
C693 C694 1.524 1_554 S
C693 H696 0.999 1_565 S
C694 H664 0.950 . S
C694 C693 1.524 1_556 S
C694 C695 1.415 . S
C695 H665 0.950 . S
C695 C690 1.363 1_556 S
C695 C694 1.415 . S
H696 C693 0.999 1_545 S
H697 C678 0.913 . S
H698 C716 0.951 . S
H699 C718 0.951 . S
H700 C720 0.950 . S
H701 C721 0.950 . S
H702 C723 0.950 . S
H703 C726 0.950 . S
H704 C727 0.950 . S
H705 C729 0.950 . S
H706 C730 0.950 . S
H707 C731 0.951 . S
H708 C733 0.951 1_455 S
H709 C735 0.952 1_455 S
H710 C736 0.950 . S
H711 C738 0.950 . S
H712 C741 0.943 1_655 S
H713 C742 0.950 . S
H714 C744 0.950 . S
H715 C745 0.950 . S
C716 H698 0.951 . S
C716 C717 1.366 . S
C716 C718 1.388 . S
C717 C716 1.366 . S
C717 C721 1.385 . S
C718 H699 0.951 . S
C718 C716 1.388 . S
C718 C719 1.366 . S
C719 C718 1.366 . S
C719 C720 1.414 . S
C719 C722 1.499 . S
C720 H700 0.950 . S
C720 C719 1.414 . S
C720 C721 1.374 . S
C721 H701 0.950 . S
C721 C717 1.385 . S
C721 C720 1.374 . S
C722 C719 1.499 . S
C722 C723 1.373 . S
C722 C724 1.389 1_556 S
C723 H702 0.950 . S
C723 C722 1.373 . S
C723 C739 1.377 . S
C724 C722 1.389 1_554 S
C724 C725 1.524 . S
C724 C738 1.377 . S
C725 C724 1.524 . S
C725 C726 1.397 . S
C725 C730 1.363 . S
C726 H703 0.950 . S
C726 C725 1.397 . S
C726 C727 1.334 . S
C727 H704 0.950 . S
C727 C726 1.334 . S
C727 C728 1.287 . S
C728 C727 1.287 . S
C728 C729 1.524 . S
C728 H747 0.913 . S
C729 H705 0.950 . S
C729 C728 1.524 . S
C729 C730 1.415 . S
C730 H706 0.950 . S
C730 C725 1.363 . S
C730 C729 1.415 . S
C731 H707 0.951 . S
C731 C732 1.366 . S
C731 C733 1.388 . S
C732 C731 1.366 . S
C732 C736 1.385 . S
C733 H708 0.951 1_655 S
C733 C731 1.388 . S
C733 C734 1.366 1_655 S
C734 C733 1.366 1_455 S
C734 C735 1.414 1_455 S
C734 C737 1.499 . S
C735 H709 0.952 1_655 S
C735 C734 1.414 1_655 S
C735 C736 1.374 . S
C736 H710 0.950 . S
C736 C732 1.385 . S
C736 C735 1.374 . S
C737 C734 1.499 . S
C737 C738 1.373 . S
C737 C739 1.389 1_554 S
C738 H711 0.950 . S
C738 C724 1.377 . S
C738 C737 1.373 . S
C739 C723 1.377 . S
C739 C737 1.389 1_556 S
C739 C740 1.524 . S
C740 C739 1.524 . S
C740 C741 1.397 . S
C740 C745 1.363 . S
C741 H712 0.943 1_455 S
C741 C740 1.397 . S
C741 C742 1.334 1_455 S
C742 H713 0.950 . S
C742 C741 1.334 1_655 S
C742 C743 1.287 . S
C743 C742 1.287 . S
C743 C744 1.524 1_655 S
C743 H746 0.999 . S
C744 H714 0.950 . S
C744 C743 1.524 1_455 S
C744 C745 1.415 . S
C745 H715 0.950 . S
C745 C740 1.363 . S
C745 C744 1.415 . S
H746 C743 0.999 . S
H747 C728 0.913 . S
H748 C766 0.951 . S
H749 C768 0.951 . S
H750 C770 0.950 . S
H751 C771 0.950 . S
H752 C773 0.950 . S
H753 C776 0.950 . S
H754 C777 0.950 . S
H755 C779 0.950 . S
H756 C780 0.950 . S
H757 C781 0.951 . S
H758 C783 0.951 . S
H759 C785 0.950 . S
H760 C786 0.950 . S
H761 C788 0.950 . S
H762 C791 0.950 . S
H763 C792 0.950 . S
H764 C794 0.950 . S
H765 C795 0.950 . S
C766 H748 0.951 . S
C766 C767 1.366 . S
C766 C768 1.388 . S
C767 C766 1.366 . S
C767 C771 1.385 . S
C768 H749 0.951 . S
C768 C766 1.388 . S
C768 C769 1.366 . S
C769 C768 1.366 . S
C769 C770 1.414 . S
C769 C772 1.499 . S
C770 H750 0.950 . S
C770 C769 1.414 . S
C770 C771 1.374 . S
C771 H751 0.950 . S
C771 C767 1.385 . S
C771 C770 1.374 . S
C772 C769 1.499 . S
C772 C773 1.373 1_554 S
C772 C774 1.389 . S
C773 H752 0.950 . S
C773 C772 1.373 1_556 S
C773 C789 1.377 . S
C774 C772 1.389 . S
C774 C775 1.524 . S
C774 C788 1.377 . S
C775 C774 1.524 . S
C775 C776 1.397 . S
C775 C780 1.363 . S
C776 H753 0.950 . S
C776 C775 1.397 . S
C776 C777 1.334 . S
C777 H754 0.950 . S
C777 C776 1.334 . S
C777 C778 1.287 . S
C778 C777 1.287 . S
C778 C779 1.524 . S
C778 H797 0.913 . S
C779 H755 0.950 . S
C779 C778 1.524 . S
C779 C780 1.415 . S
C780 H756 0.950 . S
C780 C775 1.363 . S
C780 C779 1.415 . S
C781 H757 0.951 . S
C781 C782 1.366 . S
C781 C783 1.388 . S
C782 C781 1.366 . S
C782 C786 1.385 . S
C783 H758 0.951 . S
C783 C781 1.388 . S
C783 C784 1.366 . S
C784 C783 1.366 . S
C784 C785 1.414 . S
C784 C787 1.499 . S
C785 H759 0.950 . S
C785 C784 1.414 . S
C785 C786 1.374 . S
C786 H760 0.950 . S
C786 C782 1.385 . S
C786 C785 1.374 . S
C787 C784 1.499 . S
C787 C788 1.373 1_556 S
C787 C789 1.389 . S
C788 H761 0.950 . S
C788 C774 1.377 . S
C788 C787 1.373 1_554 S
C789 C773 1.377 . S
C789 C787 1.389 . S
C789 C790 1.524 . S
C790 C789 1.524 . S
C790 C791 1.397 . S
C790 C795 1.363 . S
C791 H762 0.950 . S
C791 C790 1.397 . S
C791 C792 1.334 . S
C792 H763 0.950 . S
C792 C791 1.334 . S
C792 C793 1.287 . S
C793 C792 1.287 . S
C793 C794 1.524 . S
C793 H796 0.999 . S
C794 H764 0.950 . S
C794 C793 1.524 . S
C794 C795 1.415 . S
C795 H765 0.950 . S
C795 C790 1.363 . S
C795 C794 1.415 . S
H796 C793 0.999 . S
H797 C778 0.913 . S
H798 C816 0.951 . S
H799 C818 0.951 . S
H800 C820 0.950 . S
H801 C821 0.950 . S
H802 C823 0.950 . S
H803 C826 0.950 . S
H804 C827 0.950 . S
H805 C829 0.950 . S
H806 C830 0.950 . S
H807 C831 0.951 . S
H808 C833 0.951 1_655 S
H809 C835 0.950 . S
H810 C836 0.950 . S
H811 C838 0.950 . S
H812 C841 0.950 . S
H813 C842 0.950 . S
H814 C844 0.950 . S
H815 C845 0.950 . S
C816 H798 0.951 . S
C816 C817 1.366 . S
C816 C818 1.388 . S
C817 C816 1.366 . S
C817 C821 1.385 . S
C818 H799 0.951 . S
C818 C816 1.388 . S
C818 C819 1.366 . S
C819 C818 1.366 . S
C819 C820 1.414 . S
C819 C822 1.499 . S
C820 H800 0.950 . S
C820 C819 1.414 . S
C820 C821 1.374 . S
C821 H801 0.950 . S
C821 C817 1.385 . S
C821 C820 1.374 . S
C822 C819 1.499 . S
C822 C823 1.373 . S
C822 C824 1.389 . S
C823 H802 0.950 . S
C823 C822 1.373 . S
C823 C839 1.377 . S
C824 C822 1.389 . S
C824 C825 1.524 . S
C824 C838 1.377 . S
C825 C824 1.524 . S
C825 C826 1.397 . S
C825 C830 1.363 . S
C826 H803 0.950 . S
C826 C825 1.397 . S
C826 C827 1.334 . S
C827 H804 0.950 . S
C827 C826 1.334 . S
C827 C828 1.287 . S
C828 C827 1.287 . S
C828 C829 1.524 . S
C828 H847 0.913 . S
C829 H805 0.950 . S
C829 C828 1.524 . S
C829 C830 1.415 . S
C830 H806 0.950 . S
C830 C825 1.363 . S
C830 C829 1.415 . S
C831 H807 0.951 . S
C831 C832 1.366 . S
C831 C833 1.388 . S
C832 C831 1.366 . S
C832 C836 1.385 . S
C833 H808 0.951 1_455 S
C833 C831 1.388 . S
C833 C834 1.366 1_455 S
C834 C833 1.366 1_655 S
C834 C835 1.414 1_655 S
C834 C837 1.499 . S
C835 H809 0.950 . S
C835 C834 1.414 1_455 S
C835 C836 1.374 . S
C836 H810 0.950 . S
C836 C832 1.385 . S
C836 C835 1.374 . S
C837 C834 1.499 . S
C837 C838 1.373 . S
C837 C839 1.389 . S
C838 H811 0.950 . S
C838 C824 1.377 . S
C838 C837 1.373 . S
C839 C823 1.377 . S
C839 C837 1.389 . S
C839 C840 1.524 . S
C840 C839 1.524 . S
C840 C841 1.397 . S
C840 C845 1.363 . S
C841 H812 0.950 . S
C841 C840 1.397 . S
C841 C842 1.334 . S
C842 H813 0.950 . S
C842 C841 1.334 . S
C842 C843 1.287 . S
C843 C842 1.287 . S
C843 C844 1.524 . S
C843 H846 0.999 . S
C844 H814 0.950 . S
C844 C843 1.524 . S
C844 C845 1.415 . S
C845 H815 0.950 . S
C845 C840 1.363 . S
C845 C844 1.415 . S
H846 C843 0.999 . S
H847 C828 0.913 . S
H848 C866 0.951 . S
H849 C868 0.951 . S
H850 C870 0.950 . S
H851 C871 0.950 . S
H852 C873 0.950 . S
H853 C876 0.950 . S
H854 C877 0.950 . S
H855 C879 0.950 . S
H856 C880 0.950 . S
H857 C881 0.951 . S
H858 C883 0.951 . S
H859 C885 0.950 . S
H860 C886 0.950 . S
H861 C888 0.950 . S
H862 C891 0.950 . S
H863 C892 0.950 . S
H864 C894 0.950 . S
H865 C895 0.950 . S
C866 H848 0.951 . S
C866 C867 1.366 . S
C866 C868 1.388 . S
C867 C866 1.366 . S
C867 C871 1.385 . S
C868 H849 0.951 . S
C868 C866 1.388 . S
C868 C869 1.366 . S
C869 C868 1.366 . S
C869 C870 1.414 . S
C869 C872 1.499 . S
C870 H850 0.950 . S
C870 C869 1.414 . S
C870 C871 1.374 . S
C871 H851 0.950 . S
C871 C867 1.385 . S
C871 C870 1.374 . S
C872 C869 1.499 . S
C872 C873 1.373 . S
C872 C874 1.389 . S
C873 H852 0.950 . S
C873 C872 1.373 . S
C873 C889 1.377 . S
C874 C872 1.389 . S
C874 C875 1.524 . S
C874 C888 1.377 . S
C875 C874 1.524 . S
C875 C876 1.397 . S
C875 C880 1.363 . S
C876 H853 0.950 . S
C876 C875 1.397 . S
C876 C877 1.334 . S
C877 H854 0.950 . S
C877 C876 1.334 . S
C877 C878 1.287 . S
C878 C877 1.287 . S
C878 C879 1.524 . S
C878 H897 0.913 . S
C879 H855 0.950 . S
C879 C878 1.524 . S
C879 C880 1.415 . S
C880 H856 0.950 . S
C880 C875 1.363 . S
C880 C879 1.415 . S
C881 H857 0.951 . S
C881 C882 1.366 . S
C881 C883 1.388 . S
C882 C881 1.366 . S
C882 C886 1.385 . S
C883 H858 0.951 . S
C883 C881 1.388 . S
C883 C884 1.366 . S
C884 C883 1.366 . S
C884 C885 1.414 . S
C884 C887 1.499 . S
C885 H859 0.950 . S
C885 C884 1.414 . S
C885 C886 1.374 . S
C886 H860 0.950 . S
C886 C882 1.385 . S
C886 C885 1.374 . S
C887 C884 1.499 . S
C887 C888 1.373 . S
C887 C889 1.389 . S
C888 H861 0.950 . S
C888 C874 1.377 . S
C888 C887 1.373 . S
C889 C873 1.377 . S
C889 C887 1.389 . S
C889 C890 1.524 . S
C890 C889 1.524 . S
C890 C891 1.397 . S
C890 C895 1.363 . S
C891 H862 0.950 . S
C891 C890 1.397 . S
C891 C892 1.334 . S
C892 H863 0.950 . S
C892 C891 1.334 . S
C892 C893 1.287 . S
C893 C892 1.287 . S
C893 C894 1.524 . S
C893 H896 0.999 . S
C894 H864 0.950 . S
C894 C893 1.524 . S
C894 C895 1.415 . S
C895 H865 0.950 . S
C895 C890 1.363 . S
C895 C894 1.415 . S
H896 C893 0.999 . S
H897 C878 0.913 . S
H898 C916 0.951 . S
H899 C918 0.951 . S
H900 C920 0.928 1_545 S
H901 C921 0.950 . S
H902 C923 0.950 . S
H903 C926 0.950 . S
H904 C927 0.950 . S
H905 C929 0.950 . S
H906 C930 0.950 . S
H907 C931 0.951 . S
H908 C933 0.951 . S
H909 C935 0.950 . S
H910 C936 0.950 . S
H911 C938 0.950 . S
H912 C941 0.950 . S
H913 C942 0.950 . S
H914 C944 0.950 . S
H915 C945 0.950 . S
C916 H898 0.951 . S
C916 C917 1.366 . S
C916 C918 1.388 . S
C917 C916 1.366 . S
C917 C921 1.385 . S
C918 H899 0.951 . S
C918 C916 1.388 . S
C918 C919 1.366 1_565 S
C919 C918 1.366 1_545 S
C919 C920 1.396 1_545 S
C919 C922 1.499 . S
C920 H900 0.928 1_565 S
C920 C919 1.396 1_565 S
C920 C921 1.417 . S
C921 H901 0.950 . S
C921 C917 1.385 . S
C921 C920 1.417 . S
C922 C919 1.499 . S
C922 C923 1.373 . S
C922 C924 1.389 . S
C923 H902 0.950 . S
C923 C922 1.373 . S
C923 C939 1.377 . S
C924 C922 1.389 . S
C924 C925 1.524 . S
C924 C938 1.377 . S
C925 C924 1.524 . S
C925 C926 1.397 . S
C925 C930 1.363 . S
C926 H903 0.950 . S
C926 C925 1.397 . S
C926 C927 1.334 . S
C927 H904 0.950 . S
C927 C926 1.334 . S
C927 C928 1.287 . S
C928 C927 1.287 . S
C928 C929 1.524 . S
C928 H947 0.913 . S
C929 H905 0.950 . S
C929 C928 1.524 . S
C929 C930 1.415 . S
C930 H906 0.950 . S
C930 C925 1.363 . S
C930 C929 1.415 . S
C931 H907 0.951 . S
C931 C932 1.366 . S
C931 C933 1.388 . S
C932 C931 1.366 . S
C932 C936 1.385 . S
C933 H908 0.951 . S
C933 C931 1.388 . S
C933 C934 1.366 . S
C934 C933 1.366 . S
C934 C935 1.414 . S
C934 C937 1.499 . S
C935 H909 0.950 . S
C935 C934 1.414 . S
C935 C936 1.374 . S
C936 H910 0.950 . S
C936 C932 1.385 . S
C936 C935 1.374 . S
C937 C934 1.499 . S
C937 C938 1.373 . S
C937 C939 1.389 . S
C938 H911 0.950 . S
C938 C924 1.377 . S
C938 C937 1.373 . S
C939 C923 1.377 . S
C939 C937 1.389 . S
C939 C940 1.524 . S
C940 C939 1.524 . S
C940 C941 1.397 . S
C940 C945 1.363 . S
C941 H912 0.950 . S
C941 C940 1.397 . S
C941 C942 1.334 . S
C942 H913 0.950 . S
C942 C941 1.334 . S
C942 C943 1.287 . S
C943 C942 1.287 . S
C943 C944 1.524 . S
C943 H946 0.999 . S
C944 H914 0.950 . S
C944 C943 1.524 . S
C944 C945 1.415 . S
C945 H915 0.950 . S
C945 C940 1.363 . S
C945 C944 1.415 . S
H946 C943 0.999 . S
H947 C928 0.913 . S
H948 C966 0.951 . S
H949 C968 0.951 . S
H950 C970 0.950 . S
H951 C971 0.950 . S
H952 C973 0.950 . S
H953 C976 0.950 . S
H954 C977 0.950 . S
H955 C979 0.950 . S
H956 C980 0.950 . S
H957 C981 0.951 . S
H958 C983 0.951 . S
H959 C985 0.950 . S
H960 C986 0.950 . S
H961 C988 0.950 . S
H962 C991 0.950 . S
H963 C992 0.950 . S
H964 C994 0.950 . S
H965 C995 0.950 . S
C966 H948 0.951 . S
C966 C967 1.366 . S
C966 C968 1.388 . S
C967 C966 1.366 . S
C967 C971 1.385 . S
C968 H949 0.951 . S
C968 C966 1.388 . S
C968 C969 1.366 . S
C969 C968 1.366 . S
C969 C970 1.414 . S
C969 C972 1.499 . S
C970 H950 0.950 . S
C970 C969 1.414 . S
C970 C971 1.374 . S
C971 H951 0.950 . S
C971 C967 1.385 . S
C971 C970 1.374 . S
C972 C969 1.499 . S
C972 C973 1.373 . S
C972 C974 1.389 . S
C973 H952 0.950 . S
C973 C972 1.373 . S
C973 C989 1.377 . S
C974 C972 1.389 . S
C974 C975 1.524 . S
C974 C988 1.377 . S
C975 C974 1.524 . S
C975 C976 1.397 . S
C975 C980 1.363 . S
C976 H953 0.950 . S
C976 C975 1.397 . S
C976 C977 1.334 . S
C977 H954 0.950 . S
C977 C976 1.334 . S
C977 C978 1.287 . S
C978 C977 1.287 . S
C978 C979 1.524 . S
C978 H997 0.913 . S
C979 H955 0.950 . S
C979 C978 1.524 . S
C979 C980 1.415 . S
C980 H956 0.950 . S
C980 C975 1.363 . S
C980 C979 1.415 . S
C981 H957 0.951 . S
C981 C982 1.366 . S
C981 C983 1.388 . S
C982 C981 1.366 . S
C982 C986 1.385 . S
C983 H958 0.951 . S
C983 C981 1.388 . S
C983 C984 1.366 . S
C984 C983 1.366 . S
C984 C985 1.414 . S
C984 C987 1.499 . S
C985 H959 0.950 . S
C985 C984 1.414 . S
C985 C986 1.374 . S
C986 H960 0.950 . S
C986 C982 1.385 . S
C986 C985 1.374 . S
C987 C984 1.499 . S
C987 C988 1.373 . S
C987 C989 1.389 . S
C988 H961 0.950 . S
C988 C974 1.377 . S
C988 C987 1.373 . S
C989 C973 1.377 . S
C989 C987 1.389 . S
C989 C990 1.524 . S
C990 C989 1.524 . S
C990 C991 1.397 . S
C990 C995 1.363 . S
C991 H962 0.950 . S
C991 C990 1.397 . S
C991 C992 1.334 . S
C992 H963 0.950 . S
C992 C991 1.334 . S
C992 C993 1.287 . S
C993 C992 1.287 . S
C993 C994 1.524 . S
C993 H996 0.999 . S
C994 H964 0.950 . S
C994 C993 1.524 . S
C994 C995 1.415 . S
C995 H965 0.950 . S
C995 C990 1.363 . S
C995 C994 1.415 . S
H996 C993 0.999 . S
H997 C978 0.913 . S
H998 C1016 0.951 . S
H999 C1018 0.951 . S
H1000 C1020 0.950 . S
H1001 C1021 0.950 . S
H1002 C1023 0.950 . S
H1003 C1026 0.950 . S
H1004 C1027 0.950 . S
H1005 C1029 0.950 . S
H1006 C1030 0.950 . S
H1007 C1031 0.951 . S
H1008 C1033 0.951 . S
H1009 C1035 0.950 . S
H1010 C1036 0.950 . S
H1011 C1038 0.950 . S
H1012 C1041 0.950 . S
H1013 C1042 0.950 . S
H1014 C1044 0.950 . S
H1015 C1045 0.950 . S
C1016 H998 0.951 . S
C1016 C1017 1.366 . S
C1016 C1018 1.388 . S
C1017 C1016 1.366 . S
C1017 C1021 1.385 . S
C1018 H999 0.951 . S
C1018 C1016 1.388 . S
C1018 C1019 1.366 . S
C1019 C1018 1.366 . S
C1019 C1020 1.414 . S
C1019 C1022 1.499 . S
C1020 H1000 0.950 . S
C1020 C1019 1.414 . S
C1020 C1021 1.374 . S
C1021 H1001 0.950 . S
C1021 C1017 1.385 . S
C1021 C1020 1.374 . S
C1022 C1019 1.499 . S
C1022 C1023 1.373 . S
C1022 C1024 1.389 1_545 S
C1023 H1002 0.950 . S
C1023 C1022 1.373 . S
C1023 C1039 1.377 . S
C1024 C1022 1.389 1_565 S
C1024 C1025 1.524 . S
C1024 C1038 1.377 . S
C1025 C1024 1.524 . S
C1025 C1026 1.397 . S
C1025 C1030 1.363 . S
C1026 H1003 0.950 . S
C1026 C1025 1.397 . S
C1026 C1027 1.334 . S
C1027 H1004 0.950 . S
C1027 C1026 1.334 . S
C1027 C1028 1.287 . S
C1028 C1027 1.287 . S
C1028 C1029 1.524 . S
C1028 H1047 0.913 . S
C1029 H1005 0.950 . S
C1029 C1028 1.524 . S
C1029 C1030 1.415 . S
C1030 H1006 0.950 . S
C1030 C1025 1.363 . S
C1030 C1029 1.415 . S
C1031 H1007 0.951 . S
C1031 C1032 1.366 . S
C1031 C1033 1.388 . S
C1032 C1031 1.366 . S
C1032 C1036 1.385 . S
C1033 H1008 0.951 . S
C1033 C1031 1.388 . S
C1033 C1034 1.366 . S
C1034 C1033 1.366 . S
C1034 C1035 1.414 . S
C1034 C1037 1.499 . S
C1035 H1009 0.950 . S
C1035 C1034 1.414 . S
C1035 C1036 1.374 . S
C1036 H1010 0.950 . S
C1036 C1032 1.385 . S
C1036 C1035 1.374 . S
C1037 C1034 1.499 . S
C1037 C1038 1.373 . S
C1037 C1039 1.389 1_565 S
C1038 H1011 0.950 . S
C1038 C1024 1.377 . S
C1038 C1037 1.373 . S
C1039 C1023 1.377 . S
C1039 C1037 1.389 1_545 S
C1039 C1040 1.524 . S
C1040 C1039 1.524 . S
C1040 C1041 1.397 . S
C1040 C1045 1.363 . S
C1041 H1012 0.950 . S
C1041 C1040 1.397 . S
C1041 C1042 1.334 . S
C1042 H1013 0.950 . S
C1042 C1041 1.334 . S
C1042 C1043 1.287 . S
C1043 C1042 1.287 . S
C1043 C1044 1.524 . S
C1043 H1046 0.999 . S
C1044 H1014 0.950 . S
C1044 C1043 1.524 . S
C1044 C1045 1.415 . S
C1045 H1015 0.950 . S
C1045 C1040 1.363 . S
C1045 C1044 1.415 . S
H1046 C1043 0.999 . S
H1047 C1028 0.913 . S
H1048 C1066 0.951 . S
H1049 C1068 0.951 . S
H1050 C1070 0.950 . S
H1051 C1071 0.950 . S
H1052 C1073 0.950 . S
H1053 C1076 0.950 . S
H1054 C1077 0.950 . S
H1055 C1079 0.950 . S
H1056 C1080 0.950 . S
H1057 C1081 0.951 . S
H1058 C1083 0.951 . S
H1059 C1085 0.950 . S
H1060 C1086 0.950 . S
H1061 C1088 0.950 . S
H1062 C1091 0.950 . S
H1063 C1092 0.950 . S
H1064 C1094 0.950 . S
H1065 C1095 0.950 . S
C1066 H1048 0.951 . S
C1066 C1067 1.366 . S
C1066 C1068 1.388 . S
C1067 C1066 1.366 . S
C1067 C1071 1.385 . S
C1068 H1049 0.951 . S
C1068 C1066 1.388 . S
C1068 C1069 1.366 . S
C1069 C1068 1.366 . S
C1069 C1070 1.414 . S
C1069 C1072 1.499 . S
C1070 H1050 0.950 . S
C1070 C1069 1.414 . S
C1070 C1071 1.374 . S
C1071 H1051 0.950 . S
C1071 C1067 1.385 . S
C1071 C1070 1.374 . S
C1072 C1069 1.499 . S
C1072 C1073 1.373 . S
C1072 C1074 1.389 1_655 S
C1073 H1052 0.950 . S
C1073 C1072 1.373 . S
C1073 C1089 1.377 . S
C1074 C1072 1.389 1_455 S
C1074 C1075 1.524 . S
C1074 C1088 1.377 . S
C1075 C1074 1.524 . S
C1075 C1076 1.397 1_455 S
C1075 C1080 1.363 . S
C1076 H1053 0.950 . S
C1076 C1075 1.397 1_655 S
C1076 C1077 1.334 . S
C1077 H1054 0.950 . S
C1077 C1076 1.334 . S
C1077 C1078 1.287 1_655 S
C1078 C1077 1.287 1_455 S
C1078 C1079 1.524 . S
C1078 H1097 0.913 . S
C1079 H1055 0.950 . S
C1079 C1078 1.524 . S
C1079 C1080 1.415 . S
C1080 H1056 0.950 . S
C1080 C1075 1.363 . S
C1080 C1079 1.415 . S
C1081 H1057 0.951 . S
C1081 C1082 1.366 . S
C1081 C1083 1.388 . S
C1082 C1081 1.366 . S
C1082 C1086 1.385 . S
C1083 H1058 0.951 . S
C1083 C1081 1.388 . S
C1083 C1084 1.366 . S
C1084 C1083 1.366 . S
C1084 C1085 1.414 . S
C1084 C1087 1.499 . S
C1085 H1059 0.950 . S
C1085 C1084 1.414 . S
C1085 C1086 1.374 . S
C1086 H1060 0.950 . S
C1086 C1082 1.385 . S
C1086 C1085 1.374 . S
C1087 C1084 1.499 . S
C1087 C1088 1.373 . S
C1087 C1089 1.389 1_455 S
C1088 H1061 0.950 . S
C1088 C1074 1.377 . S
C1088 C1087 1.373 . S
C1089 C1073 1.377 . S
C1089 C1087 1.389 1_655 S
C1089 C1090 1.524 . S
C1090 C1089 1.524 . S
C1090 C1091 1.397 1_655 S
C1090 C1095 1.363 . S
C1091 H1062 0.950 . S
C1091 C1090 1.397 1_455 S
C1091 C1092 1.334 . S
C1092 H1063 0.950 . S
C1092 C1091 1.334 . S
C1092 C1093 1.287 1_455 S
C1093 C1092 1.287 1_655 S
C1093 C1094 1.524 . S
C1093 H1096 0.999 . S
C1094 H1064 0.950 . S
C1094 C1093 1.524 . S
C1094 C1095 1.415 . S
C1095 H1065 0.950 . S
C1095 C1090 1.363 . S
C1095 C1094 1.415 . S
H1096 C1093 0.999 . S
H1097 C1078 0.913 . S
H1098 C1116 0.951 . S
H1099 C1118 0.951 . S
H1100 C1120 0.950 . S
H1101 C1121 0.950 . S
H1102 C1123 0.950 . S
H1103 C1126 0.950 . S
H1104 C1127 0.950 . S
H1105 C1129 0.950 . S
H1106 C1130 0.950 . S
H1107 C1131 0.951 . S
H1108 C1133 0.951 . S
H1109 C1135 0.950 . S
H1110 C1136 0.950 . S
H1111 C1138 0.950 . S
H1112 C1141 0.950 . S
H1113 C1142 0.950 . S
H1114 C1144 0.950 . S
H1115 C1145 0.950 . S
C1116 H1098 0.951 . S
C1116 C1117 1.366 . S
C1116 C1118 1.388 . S
C1117 C1116 1.366 . S
C1117 C1121 1.385 . S
C1118 H1099 0.951 . S
C1118 C1116 1.388 . S
C1118 C1119 1.366 . S
C1119 C1118 1.366 . S
C1119 C1120 1.414 . S
C1119 C1122 1.499 . S
C1120 H1100 0.950 . S
C1120 C1119 1.414 . S
C1120 C1121 1.374 . S
C1121 H1101 0.950 . S
C1121 C1117 1.385 . S
C1121 C1120 1.374 . S
C1122 C1119 1.499 . S
C1122 C1123 1.373 . S
C1122 C1124 1.389 . S
C1123 H1102 0.950 . S
C1123 C1122 1.373 . S
C1123 C1139 1.377 . S
C1124 C1122 1.389 . S
C1124 C1125 1.524 . S
C1124 C1138 1.377 . S
C1125 C1124 1.524 . S
C1125 C1126 1.397 . S
C1125 C1130 1.363 . S
C1126 H1103 0.950 . S
C1126 C1125 1.397 . S
C1126 C1127 1.334 . S
C1127 H1104 0.950 . S
C1127 C1126 1.334 . S
C1127 C1128 1.287 . S
C1128 C1127 1.287 . S
C1128 C1129 1.524 . S
C1128 H1147 0.913 . S
C1129 H1105 0.950 . S
C1129 C1128 1.524 . S
C1129 C1130 1.415 . S
C1130 H1106 0.950 . S
C1130 C1125 1.363 . S
C1130 C1129 1.415 . S
C1131 H1107 0.951 . S
C1131 C1132 1.366 . S
C1131 C1133 1.388 . S
C1132 C1131 1.366 . S
C1132 C1136 1.385 . S
C1133 H1108 0.951 . S
C1133 C1131 1.388 . S
C1133 C1134 1.366 . S
C1134 C1133 1.366 . S
C1134 C1135 1.414 . S
C1134 C1137 1.499 . S
C1135 H1109 0.950 . S
C1135 C1134 1.414 . S
C1135 C1136 1.374 . S
C1136 H1110 0.950 . S
C1136 C1132 1.385 . S
C1136 C1135 1.374 . S
C1137 C1134 1.499 . S
C1137 C1138 1.373 . S
C1137 C1139 1.389 . S
C1138 H1111 0.950 . S
C1138 C1124 1.377 . S
C1138 C1137 1.373 . S
C1139 C1123 1.377 . S
C1139 C1137 1.389 . S
C1139 C1140 1.524 . S
C1140 C1139 1.524 . S
C1140 C1141 1.397 . S
C1140 C1145 1.363 . S
C1141 H1112 0.950 . S
C1141 C1140 1.397 . S
C1141 C1142 1.334 . S
C1142 H1113 0.950 . S
C1142 C1141 1.334 . S
C1142 C1143 1.287 . S
C1143 C1142 1.287 . S
C1143 C1144 1.524 . S
C1143 H1146 0.999 . S
C1144 H1114 0.950 . S
C1144 C1143 1.524 . S
C1144 C1145 1.415 . S
C1145 H1115 0.950 . S
C1145 C1140 1.363 . S
C1145 C1144 1.415 . S
H1146 C1143 0.999 . S
H1147 C1128 0.913 . S
H1148 C1166 0.951 . S
H1149 C1168 0.951 . S
H1150 C1170 0.950 . S
H1151 C1171 0.950 . S
H1152 C1173 0.950 . S
H1153 C1176 0.950 . S
H1154 C1177 0.950 . S
H1155 C1179 0.950 . S
H1156 C1180 0.950 . S
H1157 C1181 0.951 . S
H1158 C1183 0.951 . S
H1159 C1185 0.950 . S
H1160 C1186 0.950 . S
H1161 C1188 0.950 . S
H1162 C1191 0.950 . S
H1163 C1192 0.950 . S
H1164 C1194 0.950 . S
H1165 C1195 0.950 . S
C1166 H1148 0.951 . S
C1166 C1167 1.366 . S
C1166 C1168 1.388 . S
C1167 C1166 1.366 . S
C1167 C1171 1.385 . S
C1168 H1149 0.951 . S
C1168 C1166 1.388 . S
C1168 C1169 1.366 . S
C1169 C1168 1.366 . S
C1169 C1170 1.414 . S
C1169 C1172 1.499 . S
C1170 H1150 0.950 . S
C1170 C1169 1.414 . S
C1170 C1171 1.374 . S
C1171 H1151 0.950 . S
C1171 C1167 1.385 . S
C1171 C1170 1.374 . S
C1172 C1169 1.499 . S
C1172 C1173 1.373 1_545 S
C1172 C1174 1.389 . S
C1173 H1152 0.950 . S
C1173 C1172 1.373 1_565 S
C1173 C1189 1.377 . S
C1174 C1172 1.389 . S
C1174 C1175 1.524 . S
C1174 C1188 1.377 . S
C1175 C1174 1.524 . S
C1175 C1176 1.397 . S
C1175 C1180 1.363 . S
C1176 H1153 0.950 . S
C1176 C1175 1.397 . S
C1176 C1177 1.334 . S
C1177 H1154 0.950 . S
C1177 C1176 1.334 . S
C1177 C1178 1.287 . S
C1178 C1177 1.287 . S
C1178 C1179 1.524 . S
C1178 H1197 0.913 . S
C1179 H1155 0.950 . S
C1179 C1178 1.524 . S
C1179 C1180 1.415 . S
C1180 H1156 0.950 . S
C1180 C1175 1.363 . S
C1180 C1179 1.415 . S
C1181 H1157 0.951 . S
C1181 C1182 1.366 . S
C1181 C1183 1.388 . S
C1182 C1181 1.366 . S
C1182 C1186 1.385 . S
C1183 H1158 0.951 . S
C1183 C1181 1.388 . S
C1183 C1184 1.366 . S
C1184 C1183 1.366 . S
C1184 C1185 1.414 . S
C1184 C1187 1.499 . S
C1185 H1159 0.950 . S
C1185 C1184 1.414 . S
C1185 C1186 1.374 . S
C1186 H1160 0.950 . S
C1186 C1182 1.385 . S
C1186 C1185 1.374 . S
C1187 C1184 1.499 . S
C1187 C1188 1.373 1_565 S
C1187 C1189 1.389 . S
C1188 H1161 0.950 . S
C1188 C1174 1.377 . S
C1188 C1187 1.373 1_545 S
C1189 C1173 1.377 . S
C1189 C1187 1.389 . S
C1189 C1190 1.524 . S
C1190 C1189 1.524 . S
C1190 C1191 1.397 . S
C1190 C1195 1.363 . S
C1191 H1162 0.950 . S
C1191 C1190 1.397 . S
C1191 C1192 1.334 . S
C1192 H1163 0.950 . S
C1192 C1191 1.334 . S
C1192 C1193 1.287 . S
C1193 C1192 1.287 . S
C1193 C1194 1.524 . S
C1193 H1196 0.999 . S
C1194 H1164 0.950 . S
C1194 C1193 1.524 . S
C1194 C1195 1.415 . S
C1195 H1165 0.950 . S
C1195 C1190 1.363 . S
C1195 C1194 1.415 . S
H1196 C1193 0.999 . S
H1197 C1178 0.913 . S
H1198 C1216 0.951 . S
H1199 C1218 0.951 . S
H1200 C1220 0.950 . S
H1201 C1221 0.950 . S
H1202 C1223 0.950 . S
H1203 C1226 0.950 . S
H1204 C1227 0.950 . S
H1205 C1229 0.950 . S
H1206 C1230 0.950 . S
H1207 C1231 0.951 . S
H1208 C1233 0.951 . S
H1209 C1235 0.950 . S
H1210 C1236 0.950 . S
H1211 C1238 0.950 . S
H1212 C1241 0.950 . S
H1213 C1242 0.950 . S
H1214 C1244 0.950 . S
H1215 C1245 0.950 . S
C1216 H1198 0.951 . S
C1216 C1217 1.366 . S
C1216 C1218 1.388 . S
C1217 C1216 1.366 . S
C1217 C1221 1.385 . S
C1218 H1199 0.951 . S
C1218 C1216 1.388 . S
C1218 C1219 1.366 . S
C1219 C1218 1.366 . S
C1219 C1220 1.414 . S
C1219 C1222 1.499 . S
C1220 H1200 0.950 . S
C1220 C1219 1.414 . S
C1220 C1221 1.374 . S
C1221 H1201 0.950 . S
C1221 C1217 1.385 . S
C1221 C1220 1.374 . S
C1222 C1219 1.499 . S
C1222 C1223 1.373 . S
C1222 C1224 1.389 . S
C1223 H1202 0.950 . S
C1223 C1222 1.373 . S
C1223 C1239 1.377 1_655 S
C1224 C1222 1.389 . S
C1224 C1225 1.524 . S
C1224 C1238 1.377 1_655 S
C1225 C1224 1.524 . S
C1225 C1226 1.397 . S
C1225 C1230 1.363 . S
C1226 H1203 0.950 . S
C1226 C1225 1.397 . S
C1226 C1227 1.334 . S
C1227 H1204 0.950 . S
C1227 C1226 1.334 . S
C1227 C1228 1.287 . S
C1228 C1227 1.287 . S
C1228 C1229 1.524 . S
C1228 H1247 0.913 . S
C1229 H1205 0.950 . S
C1229 C1228 1.524 . S
C1229 C1230 1.415 . S
C1230 H1206 0.950 . S
C1230 C1225 1.363 . S
C1230 C1229 1.415 . S
C1231 H1207 0.951 . S
C1231 C1232 1.366 . S
C1231 C1233 1.388 . S
C1232 C1231 1.366 . S
C1232 C1236 1.385 . S
C1233 H1208 0.951 . S
C1233 C1231 1.388 . S
C1233 C1234 1.366 . S
C1234 C1233 1.366 . S
C1234 C1235 1.414 . S
C1234 C1237 1.499 . S
C1235 H1209 0.950 . S
C1235 C1234 1.414 . S
C1235 C1236 1.374 . S
C1236 H1210 0.950 . S
C1236 C1232 1.385 . S
C1236 C1235 1.374 . S
C1237 C1234 1.499 . S
C1237 C1238 1.373 . S
C1237 C1239 1.389 . S
C1238 H1211 0.950 . S
C1238 C1224 1.377 1_455 S
C1238 C1237 1.373 . S
C1239 C1223 1.377 1_455 S
C1239 C1237 1.389 . S
C1239 C1240 1.524 . S
C1240 C1239 1.524 . S
C1240 C1241 1.397 . S
C1240 C1245 1.363 . S
C1241 H1212 0.950 . S
C1241 C1240 1.397 . S
C1241 C1242 1.334 . S
C1242 H1213 0.950 . S
C1242 C1241 1.334 . S
C1242 C1243 1.287 . S
C1243 C1242 1.287 . S
C1243 C1244 1.524 . S
C1243 H1246 0.999 . S
C1244 H1214 0.950 . S
C1244 C1243 1.524 . S
C1244 C1245 1.415 . S
C1245 H1215 0.950 . S
C1245 C1240 1.363 . S
C1245 C1244 1.415 . S
H1246 C1243 0.999 . S
H1247 C1228 0.913 . S
H1248 C1266 0.951 . S
H1249 C1268 0.951 . S
H1250 C1270 0.950 . S
H1251 C1271 0.950 . S
H1252 C1273 0.950 . S
H1253 C1276 0.950 . S
H1254 C1277 0.950 . S
H1255 C1279 0.950 . S
H1256 C1280 0.950 . S
H1257 C1281 0.951 . S
H1258 C1283 0.951 . S
H1259 C1285 0.950 . S
H1260 C1286 0.950 . S
H1261 C1288 0.950 . S
H1262 C1291 0.950 . S
H1263 C1292 0.950 . S
H1264 C1294 0.950 1_556 S
H1265 C1295 0.950 . S
C1266 H1248 0.951 . S
C1266 C1267 1.366 . S
C1266 C1268 1.388 . S
C1267 C1266 1.366 . S
C1267 C1271 1.385 . S
C1268 H1249 0.951 . S
C1268 C1266 1.388 . S
C1268 C1269 1.366 . S
C1269 C1268 1.366 . S
C1269 C1270 1.414 . S
C1269 C1272 1.499 . S
C1270 H1250 0.950 . S
C1270 C1269 1.414 . S
C1270 C1271 1.374 . S
C1271 H1251 0.950 . S
C1271 C1267 1.385 . S
C1271 C1270 1.374 . S
C1272 C1269 1.499 . S
C1272 C1273 1.373 . S
C1272 C1274 1.389 . S
C1273 H1252 0.950 . S
C1273 C1272 1.373 . S
C1273 C1289 1.377 . S
C1274 C1272 1.389 . S
C1274 C1275 1.524 . S
C1274 C1288 1.377 . S
C1275 C1274 1.524 . S
C1275 C1276 1.397 . S
C1275 C1280 1.363 . S
C1276 H1253 0.950 . S
C1276 C1275 1.397 . S
C1276 C1277 1.334 . S
C1277 H1254 0.950 . S
C1277 C1276 1.334 . S
C1277 C1278 1.287 . S
C1278 C1277 1.287 . S
C1278 C1279 1.524 . S
C1278 H1297 0.913 . S
C1279 H1255 0.950 . S
C1279 C1278 1.524 . S
C1279 C1280 1.415 . S
C1280 H1256 0.950 . S
C1280 C1275 1.363 . S
C1280 C1279 1.415 . S
C1281 H1257 0.951 . S
C1281 C1282 1.366 . S
C1281 C1283 1.388 . S
C1282 C1281 1.366 . S
C1282 C1286 1.385 . S
C1283 H1258 0.951 . S
C1283 C1281 1.388 . S
C1283 C1284 1.366 . S
C1284 C1283 1.366 . S
C1284 C1285 1.414 . S
C1284 C1287 1.499 . S
C1285 H1259 0.950 . S
C1285 C1284 1.414 . S
C1285 C1286 1.374 . S
C1286 H1260 0.950 . S
C1286 C1282 1.385 . S
C1286 C1285 1.374 . S
C1287 C1284 1.499 . S
C1287 C1288 1.373 . S
C1287 C1289 1.389 . S
C1288 H1261 0.950 . S
C1288 C1274 1.377 . S
C1288 C1287 1.373 . S
C1289 C1273 1.377 . S
C1289 C1287 1.389 . S
C1289 C1290 1.524 . S
C1290 C1289 1.524 . S
C1290 C1291 1.397 . S
C1290 C1295 1.363 . S
C1291 H1262 0.950 . S
C1291 C1290 1.397 . S
C1291 C1292 1.334 . S
C1292 H1263 0.950 . S
C1292 C1291 1.334 . S
C1292 C1293 1.287 . S
C1293 C1292 1.287 . S
C1293 C1294 1.524 . S
C1293 H1296 0.999 . S
C1294 H1264 0.950 1_554 S
C1294 C1293 1.524 . S
C1294 C1295 1.415 . S
C1295 H1265 0.950 . S
C1295 C1290 1.363 . S
C1295 C1294 1.415 . S
H1296 C1293 0.999 . S
H1297 C1278 0.913 . S
H1298 C1316 0.951 . S
H1299 C1318 0.951 . S
H1300 C1320 0.950 . S
H1301 C1321 0.950 . S
H1302 C1323 0.950 . S
H1303 C1326 0.950 . S
H1304 C1327 0.950 . S
H1305 C1329 0.950 . S
H1306 C1330 0.950 . S
H1307 C1331 0.951 . S
H1308 C1333 0.951 . S
H1309 C1335 0.950 . S
H1310 C1336 0.950 . S
H1311 C1338 0.950 . S
H1312 C1341 0.950 . S
H1313 C1342 0.950 . S
H1314 C1344 0.950 . S
H1315 C1345 0.950 . S
C1316 H1298 0.951 . S
C1316 C1317 1.366 . S
C1316 C1318 1.388 . S
C1317 C1316 1.366 . S
C1317 C1321 1.385 . S
C1318 H1299 0.951 . S
C1318 C1316 1.388 . S
C1318 C1319 1.366 . S
C1319 C1318 1.366 . S
C1319 C1320 1.414 . S
C1319 C1322 1.499 . S
C1320 H1300 0.950 . S
C1320 C1319 1.414 . S
C1320 C1321 1.374 . S
C1321 H1301 0.950 . S
C1321 C1317 1.385 . S
C1321 C1320 1.374 . S
C1322 C1319 1.499 . S
C1322 C1323 1.373 . S
C1322 C1324 1.389 . S
C1323 H1302 0.950 . S
C1323 C1322 1.373 . S
C1323 C1339 1.377 . S
C1324 C1322 1.389 . S
C1324 C1325 1.524 . S
C1324 C1338 1.377 . S
C1325 C1324 1.524 . S
C1325 C1326 1.397 . S
C1325 C1330 1.363 . S
C1326 H1303 0.950 . S
C1326 C1325 1.397 . S
C1326 C1327 1.334 1_554 S
C1327 H1304 0.950 . S
C1327 C1326 1.334 1_556 S
C1327 C1328 1.287 . S
C1328 C1327 1.287 . S
C1328 C1329 1.524 1_556 S
C1328 H1347 0.913 . S
C1329 H1305 0.950 . S
C1329 C1328 1.524 1_554 S
C1329 C1330 1.415 . S
C1330 H1306 0.950 . S
C1330 C1325 1.363 . S
C1330 C1329 1.415 . S
C1331 H1307 0.951 . S
C1331 C1332 1.366 . S
C1331 C1333 1.388 . S
C1332 C1331 1.366 . S
C1332 C1336 1.385 . S
C1333 H1308 0.951 . S
C1333 C1331 1.388 . S
C1333 C1334 1.366 . S
C1334 C1333 1.366 . S
C1334 C1335 1.414 . S
C1334 C1337 1.499 . S
C1335 H1309 0.950 . S
C1335 C1334 1.414 . S
C1335 C1336 1.374 . S
C1336 H1310 0.950 . S
C1336 C1332 1.385 . S
C1336 C1335 1.374 . S
C1337 C1334 1.499 . S
C1337 C1338 1.373 . S
C1337 C1339 1.389 . S
C1338 H1311 0.950 . S
C1338 C1324 1.377 . S
C1338 C1337 1.373 . S
C1339 C1323 1.377 . S
C1339 C1337 1.389 . S
C1339 C1340 1.524 . S
C1340 C1339 1.524 . S
C1340 C1341 1.397 . S
C1340 C1345 1.363 . S
C1341 H1312 0.950 . S
C1341 C1340 1.397 . S
C1341 C1342 1.334 . S
C1342 H1313 0.950 . S
C1342 C1341 1.334 . S
C1342 C1343 1.287 . S
C1343 C1342 1.287 . S
C1343 C1344 1.524 . S
C1343 H1346 0.999 . S
C1344 H1314 0.950 . S
C1344 C1343 1.524 . S
C1344 C1345 1.415 . S
C1345 H1315 0.950 . S
C1345 C1340 1.363 . S
C1345 C1344 1.415 . S
H1346 C1343 0.999 . S
H1347 C1328 0.913 . S
H1348 C1366 0.951 . S
H1349 C1368 0.951 . S
H1350 C1370 0.950 . S
H1351 C1371 0.950 . S
H1352 C1373 0.950 . S
H1353 C1376 0.950 . S
H1354 C1377 0.950 . S
H1355 C1379 0.950 . S
H1356 C1380 0.950 . S
H1357 C1381 0.951 . S
H1358 C1383 0.951 . S
H1359 C1385 0.950 . S
H1360 C1386 0.950 . S
H1361 C1388 0.950 . S
H1362 C1391 0.950 . S
H1363 C1392 0.950 . S
H1364 C1394 0.950 . S
H1365 C1395 0.950 . S
C1366 H1348 0.951 . S
C1366 C1367 1.366 . S
C1366 C1368 1.388 . S
C1367 C1366 1.366 . S
C1367 C1371 1.385 . S
C1368 H1349 0.951 . S
C1368 C1366 1.388 . S
C1368 C1369 1.366 . S
C1369 C1368 1.366 . S
C1369 C1370 1.414 . S
C1369 C1372 1.499 . S
C1370 H1350 0.950 . S
C1370 C1369 1.414 . S
C1370 C1371 1.374 . S
C1371 H1351 0.950 . S
C1371 C1367 1.385 . S
C1371 C1370 1.374 . S
C1372 C1369 1.499 . S
C1372 C1373 1.373 . S
C1372 C1374 1.389 . S
C1373 H1352 0.950 . S
C1373 C1372 1.373 . S
C1373 C1389 1.377 . S
C1374 C1372 1.389 . S
C1374 C1375 1.524 . S
C1374 C1388 1.377 . S
C1375 C1374 1.524 . S
C1375 C1376 1.397 . S
C1375 C1380 1.363 . S
C1376 H1353 0.950 . S
C1376 C1375 1.397 . S
C1376 C1377 1.334 . S
C1377 H1354 0.950 . S
C1377 C1376 1.334 . S
C1377 C1378 1.287 . S
C1378 C1377 1.287 . S
C1378 C1379 1.524 1_554 S
C1378 H1397 0.920 . S
C1379 H1355 0.950 . S
C1379 C1378 1.524 1_556 S
C1379 C1380 1.415 1_556 S
C1380 H1356 0.950 . S
C1380 C1375 1.363 . S
C1380 C1379 1.415 1_554 S
C1381 H1357 0.951 . S
C1381 C1382 1.366 . S
C1381 C1383 1.388 . S
C1382 C1381 1.366 . S
C1382 C1386 1.385 . S
C1383 H1358 0.951 . S
C1383 C1381 1.388 . S
C1383 C1384 1.366 . S
C1384 C1383 1.366 . S
C1384 C1385 1.414 . S
C1384 C1387 1.499 . S
C1385 H1359 0.950 . S
C1385 C1384 1.414 . S
C1385 C1386 1.374 . S
C1386 H1360 0.950 . S
C1386 C1382 1.385 . S
C1386 C1385 1.374 . S
C1387 C1384 1.499 . S
C1387 C1388 1.373 . S
C1387 C1389 1.389 . S
C1388 H1361 0.950 . S
C1388 C1374 1.377 . S
C1388 C1387 1.373 . S
C1389 C1373 1.377 . S
C1389 C1387 1.389 . S
C1389 C1390 1.524 . S
C1390 C1389 1.524 . S
C1390 C1391 1.397 . S
C1390 C1395 1.363 . S
C1391 H1362 0.950 . S
C1391 C1390 1.397 . S
C1391 C1392 1.334 . S
C1392 H1363 0.950 . S
C1392 C1391 1.334 . S
C1392 C1393 1.287 . S
C1393 C1392 1.287 . S
C1393 C1394 1.524 . S
C1393 H1396 0.999 . S
C1394 H1364 0.950 . S
C1394 C1393 1.524 . S
C1394 C1395 1.415 . S
C1395 H1365 0.950 . S
C1395 C1390 1.363 . S
C1395 C1394 1.415 . S
H1396 C1393 0.999 . S
H1397 C1378 0.920 . S
H1398 C1416 0.951 . S
H1399 C1418 0.951 . S
H1400 C1420 0.950 . S
H1401 C1421 0.950 . S
H1402 C1423 0.950 . S
H1403 C1426 0.950 . S
H1404 C1427 0.950 . S
H1405 C1429 0.950 . S
H1406 C1430 0.950 . S
H1407 C1431 0.951 . S
H1408 C1433 0.951 . S
H1409 C1435 0.950 . S
H1410 C1436 0.950 . S
H1411 C1438 0.950 . S
H1412 C1441 0.950 . S
H1413 C1442 0.950 . S
H1414 C1444 0.950 . S
H1415 C1445 0.950 . S
C1416 H1398 0.951 . S
C1416 C1417 1.366 . S
C1416 C1418 1.388 . S
C1417 C1416 1.366 . S
C1417 C1421 1.385 . S
C1418 H1399 0.951 . S
C1418 C1416 1.388 . S
C1418 C1419 1.366 . S
C1419 C1418 1.366 . S
C1419 C1420 1.414 . S
C1419 C1422 1.499 . S
C1420 H1400 0.950 . S
C1420 C1419 1.414 . S
C1420 C1421 1.374 . S
C1421 H1401 0.950 . S
C1421 C1417 1.385 . S
C1421 C1420 1.374 . S
C1422 C1419 1.499 . S
C1422 C1423 1.373 . S
C1422 C1424 1.389 . S
C1423 H1402 0.950 . S
C1423 C1422 1.373 . S
C1423 C1439 1.377 . S
C1424 C1422 1.389 . S
C1424 C1425 1.524 . S
C1424 C1438 1.377 . S
C1425 C1424 1.524 . S
C1425 C1426 1.397 . S
C1425 C1430 1.363 . S
C1426 H1403 0.950 . S
C1426 C1425 1.397 . S
C1426 C1427 1.334 . S
C1427 H1404 0.950 . S
C1427 C1426 1.334 . S
C1427 C1428 1.287 . S
C1428 C1427 1.287 . S
C1428 C1429 1.524 . S
C1428 H1447 0.913 . S
C1429 H1405 0.950 . S
C1429 C1428 1.524 . S
C1429 C1430 1.415 . S
C1430 H1406 0.950 . S
C1430 C1425 1.363 . S
C1430 C1429 1.415 . S
C1431 H1407 0.951 . S
C1431 C1432 1.366 . S
C1431 C1433 1.388 . S
C1432 C1431 1.366 . S
C1432 C1436 1.385 . S
C1433 H1408 0.951 . S
C1433 C1431 1.388 . S
C1433 C1434 1.366 . S
C1434 C1433 1.366 . S
C1434 C1435 1.414 . S
C1434 C1437 1.499 . S
C1435 H1409 0.950 . S
C1435 C1434 1.414 . S
C1435 C1436 1.374 . S
C1436 H1410 0.950 . S
C1436 C1432 1.385 . S
C1436 C1435 1.374 . S
C1437 C1434 1.499 . S
C1437 C1438 1.373 . S
C1437 C1439 1.389 . S
C1438 H1411 0.950 . S
C1438 C1424 1.377 . S
C1438 C1437 1.373 . S
C1439 C1423 1.377 . S
C1439 C1437 1.389 . S
C1439 C1440 1.524 . S
C1440 C1439 1.524 . S
C1440 C1441 1.397 . S
C1440 C1445 1.363 . S
C1441 H1412 0.950 . S
C1441 C1440 1.397 . S
C1441 C1442 1.334 . S
C1442 H1413 0.950 . S
C1442 C1441 1.334 . S
C1442 C1443 1.287 . S
C1443 C1442 1.287 . S
C1443 C1444 1.524 . S
C1443 H1446 0.999 . S
C1444 H1414 0.950 . S
C1444 C1443 1.524 . S
C1444 C1445 1.415 . S
C1445 H1415 0.950 . S
C1445 C1440 1.363 . S
C1445 C1444 1.415 . S
H1446 C1443 0.999 . S
H1447 C1428 0.913 . S
H1448 C1466 0.951 . S
H1449 C1468 0.951 . S
H1450 C1470 0.950 . S
H1451 C1471 0.950 . S
H1452 C1473 0.950 . S
H1453 C1476 0.950 . S
H1454 C1477 0.950 . S
H1455 C1479 0.950 . S
H1456 C1480 0.950 . S
H1457 C1481 0.951 . S
H1458 C1483 0.951 . S
H1459 C1485 0.950 . S
H1460 C1486 0.950 . S
H1461 C1488 0.950 . S
H1462 C1491 0.950 . S
H1463 C1492 0.950 . S
H1464 C1494 0.950 . S
H1465 C1495 0.950 . S
C1466 H1448 0.951 . S
C1466 C1467 1.366 . S
C1466 C1468 1.388 . S
C1467 C1466 1.366 . S
C1467 C1471 1.385 . S
C1468 H1449 0.951 . S
C1468 C1466 1.388 . S
C1468 C1469 1.366 . S
C1469 C1468 1.366 . S
C1469 C1470 1.414 . S
C1469 C1472 1.499 . S
C1470 H1450 0.950 . S
C1470 C1469 1.414 . S
C1470 C1471 1.374 . S
C1471 H1451 0.950 . S
C1471 C1467 1.385 . S
C1471 C1470 1.374 . S
C1472 C1469 1.499 . S
C1472 C1473 1.373 . S
C1472 C1474 1.389 . S
C1473 H1452 0.950 . S
C1473 C1472 1.373 . S
C1473 C1489 1.377 . S
C1474 C1472 1.389 . S
C1474 C1475 1.524 . S
C1474 C1488 1.377 . S
C1475 C1474 1.524 . S
C1475 C1476 1.397 . S
C1475 C1480 1.363 . S
C1476 H1453 0.950 . S
C1476 C1475 1.397 . S
C1476 C1477 1.334 . S
C1477 H1454 0.950 . S
C1477 C1476 1.334 . S
C1477 C1478 1.287 . S
C1478 C1477 1.287 . S
C1478 C1479 1.524 . S
C1478 H1497 0.913 . S
C1479 H1455 0.950 . S
C1479 C1478 1.524 . S
C1479 C1480 1.415 . S
C1480 H1456 0.950 . S
C1480 C1475 1.363 . S
C1480 C1479 1.415 . S
C1481 H1457 0.951 . S
C1481 C1482 1.366 . S
C1481 C1483 1.388 . S
C1482 C1481 1.366 . S
C1482 C1486 1.385 . S
C1483 H1458 0.951 . S
C1483 C1481 1.388 . S
C1483 C1484 1.366 . S
C1484 C1483 1.366 . S
C1484 C1485 1.414 . S
C1484 C1487 1.499 . S
C1485 H1459 0.950 . S
C1485 C1484 1.414 . S
C1485 C1486 1.374 . S
C1486 H1460 0.950 . S
C1486 C1482 1.385 . S
C1486 C1485 1.374 . S
C1487 C1484 1.499 . S
C1487 C1488 1.373 . S
C1487 C1489 1.389 . S
C1488 H1461 0.950 . S
C1488 C1474 1.377 . S
C1488 C1487 1.373 . S
C1489 C1473 1.377 . S
C1489 C1487 1.389 . S
C1489 C1490 1.524 . S
C1490 C1489 1.524 . S
C1490 C1491 1.397 . S
C1490 C1495 1.363 . S
C1491 H1462 0.950 . S
C1491 C1490 1.397 . S
C1491 C1492 1.334 . S
C1492 H1463 0.950 . S
C1492 C1491 1.334 . S
C1492 C1493 1.287 . S
C1493 C1492 1.287 . S
C1493 C1494 1.524 . S
C1493 H1496 0.999 . S
C1494 H1464 0.950 . S
C1494 C1493 1.524 . S
C1494 C1495 1.415 . S
C1495 H1465 0.950 . S
C1495 C1490 1.363 . S
C1495 C1494 1.415 . S
H1496 C1493 0.999 . S
H1497 C1478 0.913 . S
H1498 C1516 0.951 . S
H1499 C1518 0.951 . S
H1500 C1520 0.950 . S
H1501 C1521 0.950 . S
H1502 C1523 0.950 . S
H1503 C1526 0.950 . S
H1504 C1527 0.950 . S
H1505 C1529 0.950 . S
H1506 C1530 0.950 . S
H1507 C1531 0.951 . S
H1508 C1533 0.951 . S
H1509 C1535 0.950 . S
H1510 C1536 0.950 . S
H1511 C1538 0.950 . S
H1512 C1541 0.950 . S
H1513 C1542 0.950 . S
H1514 C1544 0.950 . S
H1515 C1545 0.950 . S
C1516 H1498 0.951 . S
C1516 C1517 1.366 . S
C1516 C1518 1.388 . S
C1517 C1516 1.366 . S
C1517 C1521 1.385 . S
C1518 H1499 0.951 . S
C1518 C1516 1.388 . S
C1518 C1519 1.366 . S
C1519 C1518 1.366 . S
C1519 C1520 1.414 . S
C1519 C1522 1.499 . S
C1520 H1500 0.950 . S
C1520 C1519 1.414 . S
C1520 C1521 1.374 . S
C1521 H1501 0.950 . S
C1521 C1517 1.385 . S
C1521 C1520 1.374 . S
C1522 C1519 1.499 . S
C1522 C1523 1.373 . S
C1522 C1524 1.389 . S
C1523 H1502 0.950 . S
C1523 C1522 1.373 . S
C1523 C1539 1.377 . S
C1524 C1522 1.389 . S
C1524 C1525 1.524 . S
C1524 C1538 1.377 . S
C1525 C1524 1.524 . S
C1525 C1526 1.397 . S
C1525 C1530 1.363 . S
C1526 H1503 0.950 . S
C1526 C1525 1.397 . S
C1526 C1527 1.334 . S
C1527 H1504 0.950 . S
C1527 C1526 1.334 . S
C1527 C1528 1.287 . S
C1528 C1527 1.287 . S
C1528 C1529 1.524 . S
C1528 H1547 0.913 . S
C1529 H1505 0.950 . S
C1529 C1528 1.524 . S
C1529 C1530 1.415 . S
C1530 H1506 0.950 . S
C1530 C1525 1.363 . S
C1530 C1529 1.415 . S
C1531 H1507 0.951 . S
C1531 C1532 1.366 . S
C1531 C1533 1.388 . S
C1532 C1531 1.366 . S
C1532 C1536 1.385 . S
C1533 H1508 0.951 . S
C1533 C1531 1.388 . S
C1533 C1534 1.366 . S
C1534 C1533 1.366 . S
C1534 C1535 1.414 . S
C1534 C1537 1.499 . S
C1535 H1509 0.950 . S
C1535 C1534 1.414 . S
C1535 C1536 1.374 . S
C1536 H1510 0.950 . S
C1536 C1532 1.385 . S
C1536 C1535 1.374 . S
C1537 C1534 1.499 . S
C1537 C1538 1.373 . S
C1537 C1539 1.389 . S
C1538 H1511 0.950 . S
C1538 C1524 1.377 . S
C1538 C1537 1.373 . S
C1539 C1523 1.377 . S
C1539 C1537 1.389 . S
C1539 C1540 1.524 . S
C1540 C1539 1.524 . S
C1540 C1541 1.397 . S
C1540 C1545 1.363 . S
C1541 H1512 0.950 . S
C1541 C1540 1.397 . S
C1541 C1542 1.334 . S
C1542 H1513 0.950 . S
C1542 C1541 1.334 . S
C1542 C1543 1.287 . S
C1543 C1542 1.287 . S
C1543 C1544 1.524 . S
C1543 H1546 0.999 . S
C1544 H1514 0.950 . S
C1544 C1543 1.524 . S
C1544 C1545 1.415 . S
C1545 H1515 0.950 . S
C1545 C1540 1.363 . S
C1545 C1544 1.415 . S
H1546 C1543 0.999 . S
H1547 C1528 0.913 . S
H1548 C1566 0.951 . S
H1549 C1568 0.951 . S
H1550 C1570 0.950 . S
H1551 C1571 0.950 . S
H1552 C1573 0.950 . S
H1553 C1576 0.950 . S
H1554 C1577 0.953 . S
H1555 C1579 0.950 . S
H1556 C1580 0.950 . S
H1557 C1581 0.951 . S
H1558 C1583 0.951 . S
H1559 C1585 0.950 . S
H1560 C1586 0.950 . S
H1561 C1588 0.950 . S
H1562 C1591 0.950 . S
H1563 C1592 0.950 . S
H1564 C1594 0.950 . S
H1565 C1595 0.950 . S
C1566 H1548 0.951 . S
C1566 C1567 1.366 . S
C1566 C1568 1.388 . S
C1567 C1566 1.366 . S
C1567 C1571 1.385 . S
C1568 H1549 0.951 . S
C1568 C1566 1.388 . S
C1568 C1569 1.366 . S
C1569 C1568 1.366 . S
C1569 C1570 1.414 . S
C1569 C1572 1.499 . S
C1570 H1550 0.950 . S
C1570 C1569 1.414 . S
C1570 C1571 1.374 . S
C1571 H1551 0.950 . S
C1571 C1567 1.385 . S
C1571 C1570 1.374 . S
C1572 C1569 1.499 . S
C1572 C1573 1.373 . S
C1572 C1574 1.389 . S
C1573 H1552 0.950 . S
C1573 C1572 1.373 . S
C1573 C1589 1.377 . S
C1574 C1572 1.389 . S
C1574 C1575 1.524 . S
C1574 C1588 1.377 . S
C1575 C1574 1.524 . S
C1575 C1576 1.397 . S
C1575 C1580 1.363 . S
C1576 H1553 0.950 . S
C1576 C1575 1.397 . S
C1576 C1577 1.334 . S
C1577 H1554 0.953 . S
C1577 C1576 1.334 . S
C1577 C1578 1.287 1_556 S
C1578 C1577 1.287 1_554 S
C1578 C1579 1.524 . S
C1578 H1597 0.913 . S
C1579 H1555 0.950 . S
C1579 C1578 1.524 . S
C1579 C1580 1.415 1_554 S
C1580 H1556 0.950 . S
C1580 C1575 1.363 . S
C1580 C1579 1.415 1_556 S
C1581 H1557 0.951 . S
C1581 C1582 1.366 . S
C1581 C1583 1.388 . S
C1582 C1581 1.366 . S
C1582 C1586 1.385 . S
C1583 H1558 0.951 . S
C1583 C1581 1.388 . S
C1583 C1584 1.366 . S
C1584 C1583 1.366 . S
C1584 C1585 1.414 . S
C1584 C1587 1.499 . S
C1585 H1559 0.950 . S
C1585 C1584 1.414 . S
C1585 C1586 1.374 . S
C1586 H1560 0.950 . S
C1586 C1582 1.385 . S
C1586 C1585 1.374 . S
C1587 C1584 1.499 . S
C1587 C1588 1.373 . S
C1587 C1589 1.389 . S
C1588 H1561 0.950 . S
C1588 C1574 1.377 . S
C1588 C1587 1.373 . S
C1589 C1573 1.377 . S
C1589 C1587 1.389 . S
C1589 C1590 1.524 . S
C1590 C1589 1.524 . S
C1590 C1591 1.397 . S
C1590 C1595 1.363 . S
C1591 H1562 0.950 . S
C1591 C1590 1.397 . S
C1591 C1592 1.334 . S
C1592 H1563 0.950 . S
C1592 C1591 1.334 . S
C1592 C1593 1.287 . S
C1593 C1592 1.287 . S
C1593 C1594 1.524 . S
C1593 H1596 0.999 . S
C1594 H1564 0.950 . S
C1594 C1593 1.524 . S
C1594 C1595 1.415 . S
C1595 H1565 0.950 . S
C1595 C1590 1.363 . S
C1595 C1594 1.415 . S
H1596 C1593 0.999 . S
H1597 C1578 0.913 . S
H1598 C1616 0.951 . S
H1599 C1618 0.951 . S
H1600 C1620 0.950 . S
H1601 C1621 0.950 . S
H1602 C1623 0.950 . S
H1603 C1626 0.950 . S
H1604 C1627 0.950 . S
H1605 C1629 0.950 . S
H1606 C1630 0.950 . S
H1607 C1631 0.951 . S
H1608 C1633 0.951 . S
H1609 C1635 0.950 . S
H1610 C1636 0.950 . S
H1611 C1638 0.950 . S
H1612 C1641 0.950 . S
H1613 C1642 0.952 1_554 S
H1614 C1644 0.950 . S
H1615 C1645 0.950 . S
C1616 H1598 0.951 . S
C1616 C1617 1.366 . S
C1616 C1618 1.388 . S
C1617 C1616 1.366 . S
C1617 C1621 1.385 . S
C1618 H1599 0.951 . S
C1618 C1616 1.388 . S
C1618 C1619 1.366 . S
C1619 C1618 1.366 . S
C1619 C1620 1.414 . S
C1619 C1622 1.499 . S
C1620 H1600 0.950 . S
C1620 C1619 1.414 . S
C1620 C1621 1.374 . S
C1621 H1601 0.950 . S
C1621 C1617 1.385 . S
C1621 C1620 1.374 . S
C1622 C1619 1.499 . S
C1622 C1623 1.373 . S
C1622 C1624 1.389 . S
C1623 H1602 0.950 . S
C1623 C1622 1.373 . S
C1623 C1639 1.377 . S
C1624 C1622 1.389 . S
C1624 C1625 1.524 . S
C1624 C1638 1.377 . S
C1625 C1624 1.524 . S
C1625 C1626 1.397 . S
C1625 C1630 1.363 . S
C1626 H1603 0.950 . S
C1626 C1625 1.397 . S
C1626 C1627 1.334 . S
C1627 H1604 0.950 . S
C1627 C1626 1.334 . S
C1627 C1628 1.287 . S
C1628 C1627 1.287 . S
C1628 C1629 1.524 . S
C1628 H1647 0.913 . S
C1629 H1605 0.950 . S
C1629 C1628 1.524 . S
C1629 C1630 1.415 . S
C1630 H1606 0.950 . S
C1630 C1625 1.363 . S
C1630 C1629 1.415 . S
C1631 H1607 0.951 . S
C1631 C1632 1.366 . S
C1631 C1633 1.388 . S
C1632 C1631 1.366 . S
C1632 C1636 1.385 . S
C1633 H1608 0.951 . S
C1633 C1631 1.388 . S
C1633 C1634 1.366 . S
C1634 C1633 1.366 . S
C1634 C1635 1.414 . S
C1634 C1637 1.499 . S
C1635 H1609 0.950 . S
C1635 C1634 1.414 . S
C1635 C1636 1.374 . S
C1636 H1610 0.950 . S
C1636 C1632 1.385 . S
C1636 C1635 1.374 . S
C1637 C1634 1.499 . S
C1637 C1638 1.373 . S
C1637 C1639 1.389 . S
C1638 H1611 0.950 . S
C1638 C1624 1.377 . S
C1638 C1637 1.373 . S
C1639 C1623 1.377 . S
C1639 C1637 1.389 . S
C1639 C1640 1.524 . S
C1640 C1639 1.524 . S
C1640 C1641 1.397 . S
C1640 C1645 1.363 . S
C1641 H1612 0.950 . S
C1641 C1640 1.397 . S
C1641 C1642 1.334 . S
C1642 H1613 0.952 1_556 S
C1642 C1641 1.334 . S
C1642 C1643 1.287 . S
C1643 C1642 1.287 . S
C1643 C1644 1.524 . S
C1643 H1646 0.999 1_556 S
C1644 H1614 0.950 . S
C1644 C1643 1.524 . S
C1644 C1645 1.415 . S
C1645 H1615 0.950 . S
C1645 C1640 1.363 . S
C1645 C1644 1.415 . S
H1646 C1643 0.999 1_554 S
H1647 C1628 0.913 . S
H1648 C1666 0.951 . S
H1649 C1668 0.951 . S
H1650 C1670 0.950 . S
H1651 C1671 0.950 . S
H1652 C1673 0.950 . S
H1653 C1676 0.950 . S
H1654 C1677 0.950 . S
H1655 C1679 0.950 . S
H1656 C1680 0.951 . S
H1657 C1681 0.951 . S
H1658 C1683 0.951 . S
H1659 C1685 0.950 . S
H1660 C1686 0.950 . S
H1661 C1688 0.950 . S
H1662 C1691 0.950 . S
H1663 C1692 0.950 . S
H1664 C1694 0.950 . S
H1665 C1695 0.950 . S
C1666 H1648 0.951 . S
C1666 C1667 1.366 . S
C1666 C1668 1.388 . S
C1667 C1666 1.366 . S
C1667 C1671 1.385 . S
C1668 H1649 0.951 . S
C1668 C1666 1.388 . S
C1668 C1669 1.366 . S
C1669 C1668 1.366 . S
C1669 C1670 1.414 . S
C1669 C1672 1.499 . S
C1670 H1650 0.950 . S
C1670 C1669 1.414 . S
C1670 C1671 1.374 . S
C1671 H1651 0.950 . S
C1671 C1667 1.385 . S
C1671 C1670 1.374 . S
C1672 C1669 1.499 . S
C1672 C1673 1.373 . S
C1672 C1674 1.389 . S
C1673 H1652 0.950 . S
C1673 C1672 1.373 . S
C1673 C1689 1.377 . S
C1674 C1672 1.389 . S
C1674 C1675 1.524 . S
C1674 C1688 1.377 . S
C1675 C1674 1.524 . S
C1675 C1676 1.397 . S
C1675 C1680 1.349 1_556 S
C1676 H1653 0.950 . S
C1676 C1675 1.397 . S
C1676 C1677 1.334 . S
C1677 H1654 0.950 . S
C1677 C1676 1.334 . S
C1677 C1678 1.287 1_556 S
C1678 C1677 1.287 1_554 S
C1678 C1679 1.524 . S
C1678 H1697 0.913 . S
C1679 H1655 0.950 . S
C1679 C1678 1.524 . S
C1679 C1680 1.428 . S
C1680 H1656 0.951 . S
C1680 C1675 1.349 1_554 S
C1680 C1679 1.428 . S
C1681 H1657 0.951 . S
C1681 C1682 1.366 . S
C1681 C1683 1.388 . S
C1682 C1681 1.366 . S
C1682 C1686 1.385 . S
C1683 H1658 0.951 . S
C1683 C1681 1.388 . S
C1683 C1684 1.366 . S
C1684 C1683 1.366 . S
C1684 C1685 1.414 . S
C1684 C1687 1.499 . S
C1685 H1659 0.950 . S
C1685 C1684 1.414 . S
C1685 C1686 1.374 . S
C1686 H1660 0.950 . S
C1686 C1682 1.385 . S
C1686 C1685 1.374 . S
C1687 C1684 1.499 . S
C1687 C1688 1.373 . S
C1687 C1689 1.389 . S
C1688 H1661 0.950 . S
C1688 C1674 1.377 . S
C1688 C1687 1.373 . S
C1689 C1673 1.377 . S
C1689 C1687 1.389 . S
C1689 C1690 1.524 . S
C1690 C1689 1.524 . S
C1690 C1691 1.397 . S
C1690 C1695 1.363 . S
C1691 H1662 0.950 . S
C1691 C1690 1.397 . S
C1691 C1692 1.334 . S
C1692 H1663 0.950 . S
C1692 C1691 1.334 . S
C1692 C1693 1.287 . S
C1693 C1692 1.287 . S
C1693 C1694 1.524 . S
C1693 H1696 0.999 . S
C1694 H1664 0.950 . S
C1694 C1693 1.524 . S
C1694 C1695 1.415 . S
C1695 H1665 0.950 . S
C1695 C1690 1.363 . S
C1695 C1694 1.415 . S
H1696 C1693 0.999 . S
H1697 C1678 0.913 . S
H1698 C1716 0.951 . S
H1699 C1718 0.951 . S
H1700 C1720 0.950 . S
H1701 C1721 0.950 . S
H1702 C1723 0.950 . S
H1703 C1726 0.950 . S
H1704 C1727 0.950 . S
H1705 C1729 0.950 . S
H1706 C1730 0.950 . S
H1707 C1731 0.951 . S
H1708 C1733 0.951 . S
H1709 C1735 0.950 . S
H1710 C1736 0.950 . S
H1711 C1738 0.950 . S
H1712 C1741 0.950 . S
H1713 C1742 0.950 . S
H1714 C1744 0.950 . S
H1715 C1745 0.950 . S
C1716 H1698 0.951 . S
C1716 C1717 1.366 . S
C1716 C1718 1.388 . S
C1717 C1716 1.366 . S
C1717 C1721 1.385 . S
C1718 H1699 0.951 . S
C1718 C1716 1.388 . S
C1718 C1719 1.366 . S
C1719 C1718 1.366 . S
C1719 C1720 1.414 . S
C1719 C1722 1.499 . S
C1720 H1700 0.950 . S
C1720 C1719 1.414 . S
C1720 C1721 1.374 . S
C1721 H1701 0.950 . S
C1721 C1717 1.385 . S
C1721 C1720 1.374 . S
C1722 C1719 1.499 . S
C1722 C1723 1.373 . S
C1722 C1724 1.389 . S
C1723 H1702 0.950 . S
C1723 C1722 1.373 . S
C1723 C1739 1.377 . S
C1724 C1722 1.389 . S
C1724 C1725 1.524 . S
C1724 C1738 1.377 . S
C1725 C1724 1.524 . S
C1725 C1726 1.397 . S
C1725 C1730 1.363 . S
C1726 H1703 0.950 . S
C1726 C1725 1.397 . S
C1726 C1727 1.334 . S
C1727 H1704 0.950 . S
C1727 C1726 1.334 . S
C1727 C1728 1.287 . S
C1728 C1727 1.287 . S
C1728 C1729 1.524 . S
C1728 H1747 0.913 . S
C1729 H1705 0.950 . S
C1729 C1728 1.524 . S
C1729 C1730 1.415 . S
C1730 H1706 0.950 . S
C1730 C1725 1.363 . S
C1730 C1729 1.415 . S
C1731 H1707 0.951 . S
C1731 C1732 1.366 . S
C1731 C1733 1.388 . S
C1732 C1731 1.366 . S
C1732 C1736 1.385 . S
C1733 H1708 0.951 . S
C1733 C1731 1.388 . S
C1733 C1734 1.366 . S
C1734 C1733 1.366 . S
C1734 C1735 1.414 . S
C1734 C1737 1.499 . S
C1735 H1709 0.950 . S
C1735 C1734 1.414 . S
C1735 C1736 1.374 . S
C1736 H1710 0.950 . S
C1736 C1732 1.385 . S
C1736 C1735 1.374 . S
C1737 C1734 1.499 . S
C1737 C1738 1.373 . S
C1737 C1739 1.389 . S
C1738 H1711 0.950 . S
C1738 C1724 1.377 . S
C1738 C1737 1.373 . S
C1739 C1723 1.377 . S
C1739 C1737 1.389 . S
C1739 C1740 1.524 . S
C1740 C1739 1.524 . S
C1740 C1741 1.397 . S
C1740 C1745 1.363 . S
C1741 H1712 0.950 . S
C1741 C1740 1.397 . S
C1741 C1742 1.334 . S
C1742 H1713 0.950 . S
C1742 C1741 1.334 . S
C1742 C1743 1.287 . S
C1743 C1742 1.287 . S
C1743 C1744 1.524 . S
C1743 H1746 0.999 . S
C1744 H1714 0.950 . S
C1744 C1743 1.524 . S
C1744 C1745 1.415 . S
C1745 H1715 0.950 . S
C1745 C1740 1.363 . S
C1745 C1744 1.415 . S
H1746 C1743 0.999 . S
H1747 C1728 0.913 . S
H1748 C1766 0.951 . S
H1749 C1768 0.951 . S
H1750 C1770 0.950 . S
H1751 C1771 0.950 . S
H1752 C1773 0.950 . S
H1753 C1776 0.950 . S
H1754 C1777 0.950 . S
H1755 C1779 0.950 . S
H1756 C1780 0.950 . S
H1757 C1781 0.951 . S
H1758 C1783 0.951 . S
H1759 C1785 0.950 . S
H1760 C1786 0.950 . S
H1761 C1788 0.950 . S
H1762 C1791 0.950 . S
H1763 C1792 0.950 . S
H1764 C1794 0.950 . S
H1765 C1795 0.950 . S
C1766 H1748 0.951 . S
C1766 C1767 1.366 . S
C1766 C1768 1.388 . S
C1767 C1766 1.366 . S
C1767 C1771 1.385 . S
C1768 H1749 0.951 . S
C1768 C1766 1.388 . S
C1768 C1769 1.366 . S
C1769 C1768 1.366 . S
C1769 C1770 1.414 . S
C1769 C1772 1.499 . S
C1770 H1750 0.950 . S
C1770 C1769 1.414 . S
C1770 C1771 1.374 . S
C1771 H1751 0.950 . S
C1771 C1767 1.385 . S
C1771 C1770 1.374 . S
C1772 C1769 1.499 . S
C1772 C1773 1.373 . S
C1772 C1774 1.389 . S
C1773 H1752 0.950 . S
C1773 C1772 1.373 . S
C1773 C1789 1.377 . S
C1774 C1772 1.389 . S
C1774 C1775 1.524 . S
C1774 C1788 1.377 . S
C1775 C1774 1.524 . S
C1775 C1776 1.397 . S
C1775 C1780 1.363 . S
C1776 H1753 0.950 . S
C1776 C1775 1.397 . S
C1776 C1777 1.334 . S
C1777 H1754 0.950 . S
C1777 C1776 1.334 . S
C1777 C1778 1.287 . S
C1778 C1777 1.287 . S
C1778 C1779 1.524 . S
C1778 H1797 0.913 . S
C1779 H1755 0.950 . S
C1779 C1778 1.524 . S
C1779 C1780 1.415 . S
C1780 H1756 0.950 . S
C1780 C1775 1.363 . S
C1780 C1779 1.415 . S
C1781 H1757 0.951 . S
C1781 C1782 1.366 . S
C1781 C1783 1.388 . S
C1782 C1781 1.366 . S
C1782 C1786 1.385 . S
C1783 H1758 0.951 . S
C1783 C1781 1.388 . S
C1783 C1784 1.366 . S
C1784 C1783 1.366 . S
C1784 C1785 1.414 . S
C1784 C1787 1.499 . S
C1785 H1759 0.950 . S
C1785 C1784 1.414 . S
C1785 C1786 1.374 . S
C1786 H1760 0.950 . S
C1786 C1782 1.385 . S
C1786 C1785 1.374 . S
C1787 C1784 1.499 . S
C1787 C1788 1.373 . S
C1787 C1789 1.389 . S
C1788 H1761 0.950 . S
C1788 C1774 1.377 . S
C1788 C1787 1.373 . S
C1789 C1773 1.377 . S
C1789 C1787 1.389 . S
C1789 C1790 1.524 . S
C1790 C1789 1.524 . S
C1790 C1791 1.397 . S
C1790 C1795 1.363 . S
C1791 H1762 0.950 . S
C1791 C1790 1.397 . S
C1791 C1792 1.334 . S
C1792 H1763 0.950 . S
C1792 C1791 1.334 . S
C1792 C1793 1.287 . S
C1793 C1792 1.287 . S
C1793 C1794 1.524 . S
C1793 H1796 0.999 . S
C1794 H1764 0.950 . S
C1794 C1793 1.524 . S
C1794 C1795 1.415 . S
C1795 H1765 0.950 . S
C1795 C1790 1.363 . S
C1795 C1794 1.415 . S
H1796 C1793 0.999 . S
H1797 C1778 0.913 . S
H1798 C1816 0.951 . S
H1799 C1818 0.951 . S
H1800 C1820 0.950 . S
H1801 C1821 0.950 . S
H1802 C1823 0.950 . S
H1803 C1826 0.950 . S
H1804 C1827 0.950 . S
H1805 C1829 0.950 . S
H1806 C1830 0.950 . S
H1807 C1831 0.951 . S
H1808 C1833 0.951 . S
H1809 C1835 0.950 . S
H1810 C1836 0.950 . S
H1811 C1838 0.950 . S
H1812 C1841 0.950 . S
H1813 C1842 0.950 . S
H1814 C1844 0.950 . S
H1815 C1845 0.950 . S
C1816 H1798 0.951 . S
C1816 C1817 1.366 . S
C1816 C1818 1.388 . S
C1817 C1816 1.366 . S
C1817 C1821 1.385 . S
C1818 H1799 0.951 . S
C1818 C1816 1.388 . S
C1818 C1819 1.366 . S
C1819 C1818 1.366 . S
C1819 C1820 1.414 . S
C1819 C1822 1.499 . S
C1820 H1800 0.950 . S
C1820 C1819 1.414 . S
C1820 C1821 1.374 . S
C1821 H1801 0.950 . S
C1821 C1817 1.385 . S
C1821 C1820 1.374 . S
C1822 C1819 1.499 . S
C1822 C1823 1.373 . S
C1822 C1824 1.389 . S
C1823 H1802 0.950 . S
C1823 C1822 1.373 . S
C1823 C1839 1.377 . S
C1824 C1822 1.389 . S
C1824 C1825 1.524 . S
C1824 C1838 1.377 . S
C1825 C1824 1.524 . S
C1825 C1826 1.397 . S
C1825 C1830 1.363 . S
C1826 H1803 0.950 . S
C1826 C1825 1.397 . S
C1826 C1827 1.334 . S
C1827 H1804 0.950 . S
C1827 C1826 1.334 . S
C1827 C1828 1.287 . S
C1828 C1827 1.287 . S
C1828 C1829 1.524 . S
C1828 H1847 0.913 . S
C1829 H1805 0.950 . S
C1829 C1828 1.524 . S
C1829 C1830 1.415 . S
C1830 H1806 0.950 . S
C1830 C1825 1.363 . S
C1830 C1829 1.415 . S
C1831 H1807 0.951 . S
C1831 C1832 1.366 . S
C1831 C1833 1.388 . S
C1832 C1831 1.366 . S
C1832 C1836 1.385 . S
C1833 H1808 0.951 . S
C1833 C1831 1.388 . S
C1833 C1834 1.366 . S
C1834 C1833 1.366 . S
C1834 C1835 1.414 . S
C1834 C1837 1.499 . S
C1835 H1809 0.950 . S
C1835 C1834 1.414 . S
C1835 C1836 1.374 . S
C1836 H1810 0.950 . S
C1836 C1832 1.385 . S
C1836 C1835 1.374 . S
C1837 C1834 1.499 . S
C1837 C1838 1.373 . S
C1837 C1839 1.389 . S
C1838 H1811 0.950 . S
C1838 C1824 1.377 . S
C1838 C1837 1.373 . S
C1839 C1823 1.377 . S
C1839 C1837 1.389 . S
C1839 C1840 1.524 . S
C1840 C1839 1.524 . S
C1840 C1841 1.397 . S
C1840 C1845 1.363 . S
C1841 H1812 0.950 . S
C1841 C1840 1.397 . S
C1841 C1842 1.334 . S
C1842 H1813 0.950 . S
C1842 C1841 1.334 . S
C1842 C1843 1.287 . S
C1843 C1842 1.287 . S
C1843 C1844 1.524 . S
C1843 H1846 0.999 . S
C1844 H1814 0.950 . S
C1844 C1843 1.524 . S
C1844 C1845 1.415 . S
C1845 H1815 0.950 . S
C1845 C1840 1.363 . S
C1845 C1844 1.415 . S
H1846 C1843 0.999 . S
H1847 C1828 0.913 . S
H1848 C1866 0.951 . S
H1849 C1868 0.951 . S
H1850 C1870 0.950 . S
H1851 C1871 0.950 . S
H1852 C1873 0.950 . S
H1853 C1876 0.950 . S
H1854 C1877 0.950 . S
H1855 C1879 0.950 . S
H1856 C1880 0.950 . S
H1857 C1881 0.951 . S
H1858 C1883 0.951 . S
H1859 C1885 0.950 . S
H1860 C1886 0.950 . S
H1861 C1888 0.950 . S
H1862 C1891 0.950 . S
H1863 C1892 0.950 . S
H1864 C1894 0.950 . S
H1865 C1895 0.950 . S
C1866 H1848 0.951 . S
C1866 C1867 1.366 . S
C1866 C1868 1.388 . S
C1867 C1866 1.366 . S
C1867 C1871 1.385 . S
C1868 H1849 0.951 . S
C1868 C1866 1.388 . S
C1868 C1869 1.366 . S
C1869 C1868 1.366 . S
C1869 C1870 1.414 . S
C1869 C1872 1.499 . S
C1870 H1850 0.950 . S
C1870 C1869 1.414 . S
C1870 C1871 1.374 . S
C1871 H1851 0.950 . S
C1871 C1867 1.385 . S
C1871 C1870 1.374 . S
C1872 C1869 1.499 . S
C1872 C1873 1.373 . S
C1872 C1874 1.389 . S
C1873 H1852 0.950 . S
C1873 C1872 1.373 . S
C1873 C1889 1.377 . S
C1874 C1872 1.389 . S
C1874 C1875 1.524 . S
C1874 C1888 1.377 . S
C1875 C1874 1.524 . S
C1875 C1876 1.397 . S
C1875 C1880 1.363 . S
C1876 H1853 0.950 . S
C1876 C1875 1.397 . S
C1876 C1877 1.334 . S
C1877 H1854 0.950 . S
C1877 C1876 1.334 . S
C1877 C1878 1.287 . S
C1878 C1877 1.287 . S
C1878 C1879 1.524 . S
C1878 H1897 0.913 . S
C1879 H1855 0.950 . S
C1879 C1878 1.524 . S
C1879 C1880 1.415 . S
C1880 H1856 0.950 . S
C1880 C1875 1.363 . S
C1880 C1879 1.415 . S
C1881 H1857 0.951 . S
C1881 C1882 1.366 . S
C1881 C1883 1.388 . S
C1882 C1881 1.366 . S
C1882 C1886 1.385 . S
C1883 H1858 0.951 . S
C1883 C1881 1.388 . S
C1883 C1884 1.366 . S
C1884 C1883 1.366 . S
C1884 C1885 1.414 . S
C1884 C1887 1.499 . S
C1885 H1859 0.950 . S
C1885 C1884 1.414 . S
C1885 C1886 1.374 . S
C1886 H1860 0.950 . S
C1886 C1882 1.385 . S
C1886 C1885 1.374 . S
C1887 C1884 1.499 . S
C1887 C1888 1.373 . S
C1887 C1889 1.389 . S
C1888 H1861 0.950 . S
C1888 C1874 1.377 . S
C1888 C1887 1.373 . S
C1889 C1873 1.377 . S
C1889 C1887 1.389 . S
C1889 C1890 1.524 . S
C1890 C1889 1.524 . S
C1890 C1891 1.397 . S
C1890 C1895 1.363 . S
C1891 H1862 0.950 . S
C1891 C1890 1.397 . S
C1891 C1892 1.334 . S
C1892 H1863 0.950 . S
C1892 C1891 1.334 . S
C1892 C1893 1.287 . S
C1893 C1892 1.287 . S
C1893 C1894 1.524 . S
C1893 H1896 0.999 . S
C1894 H1864 0.950 . S
C1894 C1893 1.524 . S
C1894 C1895 1.415 . S
C1895 H1865 0.950 . S
C1895 C1890 1.363 . S
C1895 C1894 1.415 . S
H1896 C1893 0.999 . S
H1897 C1878 0.913 . S
H1898 C1916 0.951 . S
H1899 C1918 0.951 . S
H1900 C1920 0.950 . S
H1901 C1921 0.950 . S
H1902 C1923 0.950 . S
H1903 C1926 0.950 . S
H1904 C1927 0.950 . S
H1905 C1929 0.950 . S
H1906 C1930 0.950 . S
H1907 C1931 0.951 . S
H1908 C1933 0.951 . S
H1909 C1935 0.950 . S
H1910 C1936 0.950 . S
H1911 C1938 0.950 . S
H1912 C1941 0.950 . S
H1913 C1942 0.950 . S
H1914 C1944 0.950 . S
H1915 C1945 0.950 . S
C1916 H1898 0.951 . S
C1916 C1917 1.366 . S
C1916 C1918 1.388 . S
C1917 C1916 1.366 . S
C1917 C1921 1.385 . S
C1918 H1899 0.951 . S
C1918 C1916 1.388 . S
C1918 C1919 1.366 . S
C1919 C1918 1.366 . S
C1919 C1920 1.414 . S
C1919 C1922 1.499 . S
C1920 H1900 0.950 . S
C1920 C1919 1.414 . S
C1920 C1921 1.374 . S
C1921 H1901 0.950 . S
C1921 C1917 1.385 . S
C1921 C1920 1.374 . S
C1922 C1919 1.499 . S
C1922 C1923 1.373 . S
C1922 C1924 1.389 . S
C1923 H1902 0.950 . S
C1923 C1922 1.373 . S
C1923 C1939 1.377 . S
C1924 C1922 1.389 . S
C1924 C1925 1.524 . S
C1924 C1938 1.377 . S
C1925 C1924 1.524 . S
C1925 C1926 1.397 . S
C1925 C1930 1.363 . S
C1926 H1903 0.950 . S
C1926 C1925 1.397 . S
C1926 C1927 1.334 . S
C1927 H1904 0.950 . S
C1927 C1926 1.334 . S
C1927 C1928 1.287 . S
C1928 C1927 1.287 . S
C1928 C1929 1.524 . S
C1928 H1947 0.913 . S
C1929 H1905 0.950 . S
C1929 C1928 1.524 . S
C1929 C1930 1.415 . S
C1930 H1906 0.950 . S
C1930 C1925 1.363 . S
C1930 C1929 1.415 . S
C1931 H1907 0.951 . S
C1931 C1932 1.366 . S
C1931 C1933 1.388 . S
C1932 C1931 1.366 . S
C1932 C1936 1.385 . S
C1933 H1908 0.951 . S
C1933 C1931 1.388 . S
C1933 C1934 1.366 . S
C1934 C1933 1.366 . S
C1934 C1935 1.414 . S
C1934 C1937 1.499 . S
C1935 H1909 0.950 . S
C1935 C1934 1.414 . S
C1935 C1936 1.374 . S
C1936 H1910 0.950 . S
C1936 C1932 1.385 . S
C1936 C1935 1.374 . S
C1937 C1934 1.499 . S
C1937 C1938 1.373 . S
C1937 C1939 1.389 . S
C1938 H1911 0.950 . S
C1938 C1924 1.377 . S
C1938 C1937 1.373 . S
C1939 C1923 1.377 . S
C1939 C1937 1.389 . S
C1939 C1940 1.524 . S
C1940 C1939 1.524 . S
C1940 C1941 1.397 . S
C1940 C1945 1.363 . S
C1941 H1912 0.950 . S
C1941 C1940 1.397 . S
C1941 C1942 1.334 . S
C1942 H1913 0.950 . S
C1942 C1941 1.334 . S
C1942 C1943 1.287 . S
C1943 C1942 1.287 . S
C1943 C1944 1.524 . S
C1943 H1946 0.999 . S
C1944 H1914 0.950 . S
C1944 C1943 1.524 . S
C1944 C1945 1.415 . S
C1945 H1915 0.950 . S
C1945 C1940 1.363 . S
C1945 C1944 1.415 . S
H1946 C1943 0.999 . S
H1947 C1928 0.913 . S
H1948 C1966 0.951 . S
H1949 C1968 0.951 . S
H1950 C1970 0.950 . S
H1951 C1971 0.950 . S
H1952 C1973 0.950 . S
H1953 C1976 0.950 . S
H1954 C1977 0.950 . S
H1955 C1979 0.950 . S
H1956 C1980 0.950 . S
H1957 C1981 0.951 . S
H1958 C1983 0.951 . S
H1959 C1985 0.950 . S
H1960 C1986 0.950 . S
H1961 C1988 0.950 . S
H1962 C1991 0.950 . S
H1963 C1992 0.950 . S
H1964 C1994 0.950 . S
H1965 C1995 0.950 . S
C1966 H1948 0.951 . S
C1966 C1967 1.366 . S
C1966 C1968 1.388 . S
C1967 C1966 1.366 . S
C1967 C1971 1.385 . S
C1968 H1949 0.951 . S
C1968 C1966 1.388 . S
C1968 C1969 1.366 . S
C1969 C1968 1.366 . S
C1969 C1970 1.414 . S
C1969 C1972 1.499 . S
C1970 H1950 0.950 . S
C1970 C1969 1.414 . S
C1970 C1971 1.374 . S
C1971 H1951 0.950 . S
C1971 C1967 1.385 . S
C1971 C1970 1.374 . S
C1972 C1969 1.499 . S
C1972 C1973 1.373 . S
C1972 C1974 1.389 . S
C1973 H1952 0.950 . S
C1973 C1972 1.373 . S
C1973 C1989 1.377 . S
C1974 C1972 1.389 . S
C1974 C1975 1.524 . S
C1974 C1988 1.377 . S
C1975 C1974 1.524 . S
C1975 C1976 1.397 . S
C1975 C1980 1.363 . S
C1976 H1953 0.950 . S
C1976 C1975 1.397 . S
C1976 C1977 1.334 . S
C1977 H1954 0.950 . S
C1977 C1976 1.334 . S
C1977 C1978 1.287 . S
C1978 C1977 1.287 . S
C1978 C1979 1.524 . S
C1978 H1997 0.913 . S
C1979 H1955 0.950 . S
C1979 C1978 1.524 . S
C1979 C1980 1.415 . S
C1980 H1956 0.950 . S
C1980 C1975 1.363 . S
C1980 C1979 1.415 . S
C1981 H1957 0.951 . S
C1981 C1982 1.366 . S
C1981 C1983 1.388 . S
C1982 C1981 1.366 . S
C1982 C1986 1.385 . S
C1983 H1958 0.951 . S
C1983 C1981 1.388 . S
C1983 C1984 1.366 . S
C1984 C1983 1.366 . S
C1984 C1985 1.414 . S
C1984 C1987 1.499 . S
C1985 H1959 0.950 . S
C1985 C1984 1.414 . S
C1985 C1986 1.374 . S
C1986 H1960 0.950 . S
C1986 C1982 1.385 . S
C1986 C1985 1.374 . S
C1987 C1984 1.499 . S
C1987 C1988 1.373 . S
C1987 C1989 1.389 . S
C1988 H1961 0.950 . S
C1988 C1974 1.377 . S
C1988 C1987 1.373 . S
C1989 C1973 1.377 . S
C1989 C1987 1.389 . S
C1989 C1990 1.524 . S
C1990 C1989 1.524 . S
C1990 C1991 1.397 . S
C1990 C1995 1.363 . S
C1991 H1962 0.950 . S
C1991 C1990 1.397 . S
C1991 C1992 1.334 . S
C1992 H1963 0.950 . S
C1992 C1991 1.334 . S
C1992 C1993 1.287 . S
C1993 C1992 1.287 . S
C1993 C1994 1.524 . S
C1993 H1996 0.999 . S
C1994 H1964 0.950 . S
C1994 C1993 1.524 . S
C1994 C1995 1.415 . S
C1995 H1965 0.950 . S
C1995 C1990 1.363 . S
C1995 C1994 1.415 . S
H1996 C1993 0.999 . S
H1997 C1978 0.913 . S
H1998 C2016 0.951 . S
H1999 C2018 0.951 . S
H2000 C2020 0.950 . S
H2001 C2021 0.950 . S
H2002 C2023 0.950 . S
H2003 C2026 0.950 . S
H2004 C2027 0.950 . S
H2005 C2029 0.950 . S
H2006 C2030 0.950 . S
H2007 C2031 0.951 . S
H2008 C2033 0.951 . S
H2009 C2035 0.950 . S
H2010 C2036 0.950 . S
H2011 C2038 0.950 . S
H2012 C2041 0.950 . S
H2013 C2042 0.950 . S
H2014 C2044 0.950 . S
H2015 C2045 0.950 . S
C2016 H1998 0.951 . S
C2016 C2017 1.366 . S
C2016 C2018 1.388 . S
C2017 C2016 1.366 . S
C2017 C2021 1.385 . S
C2018 H1999 0.951 . S
C2018 C2016 1.388 . S
C2018 C2019 1.366 . S
C2019 C2018 1.366 . S
C2019 C2020 1.414 . S
C2019 C2022 1.499 . S
C2020 H2000 0.950 . S
C2020 C2019 1.414 . S
C2020 C2021 1.374 . S
C2021 H2001 0.950 . S
C2021 C2017 1.385 . S
C2021 C2020 1.374 . S
C2022 C2019 1.499 . S
C2022 C2023 1.373 . S
C2022 C2024 1.389 . S
C2023 H2002 0.950 . S
C2023 C2022 1.373 . S
C2023 C2039 1.377 . S
C2024 C2022 1.389 . S
C2024 C2025 1.524 . S
C2024 C2038 1.377 . S
C2025 C2024 1.524 . S
C2025 C2026 1.397 . S
C2025 C2030 1.363 . S
C2026 H2003 0.950 . S
C2026 C2025 1.397 . S
C2026 C2027 1.334 . S
C2027 H2004 0.950 . S
C2027 C2026 1.334 . S
C2027 C2028 1.287 . S
C2028 C2027 1.287 . S
C2028 C2029 1.524 . S
C2028 H2047 0.913 . S
C2029 H2005 0.950 . S
C2029 C2028 1.524 . S
C2029 C2030 1.415 . S
C2030 H2006 0.950 . S
C2030 C2025 1.363 . S
C2030 C2029 1.415 . S
C2031 H2007 0.951 . S
C2031 C2032 1.366 . S
C2031 C2033 1.388 . S
C2032 C2031 1.366 . S
C2032 C2036 1.385 . S
C2033 H2008 0.951 . S
C2033 C2031 1.388 . S
C2033 C2034 1.366 . S
C2034 C2033 1.366 . S
C2034 C2035 1.414 . S
C2034 C2037 1.499 . S
C2035 H2009 0.950 . S
C2035 C2034 1.414 . S
C2035 C2036 1.374 . S
C2036 H2010 0.950 . S
C2036 C2032 1.385 . S
C2036 C2035 1.374 . S
C2037 C2034 1.499 . S
C2037 C2038 1.373 . S
C2037 C2039 1.389 . S
C2038 H2011 0.950 . S
C2038 C2024 1.377 . S
C2038 C2037 1.373 . S
C2039 C2023 1.377 . S
C2039 C2037 1.389 . S
C2039 C2040 1.524 . S
C2040 C2039 1.524 . S
C2040 C2041 1.397 . S
C2040 C2045 1.363 . S
C2041 H2012 0.950 . S
C2041 C2040 1.397 . S
C2041 C2042 1.334 . S
C2042 H2013 0.950 . S
C2042 C2041 1.334 . S
C2042 C2043 1.287 . S
C2043 C2042 1.287 . S
C2043 C2044 1.524 . S
C2043 H2046 0.999 . S
C2044 H2014 0.950 . S
C2044 C2043 1.524 . S
C2044 C2045 1.415 . S
C2045 H2015 0.950 . S
C2045 C2040 1.363 . S
C2045 C2044 1.415 . S
H2046 C2043 0.999 . S
H2047 C2028 0.913 . S
H2048 C2066 0.951 . S
H2049 C2068 0.951 . S
H2050 C2070 0.950 . S
H2051 C2071 0.950 . S
H2052 C2073 0.950 . S
H2053 C2076 0.950 . S
H2054 C2077 0.950 . S
H2055 C2079 0.950 . S
H2056 C2080 0.950 . S
H2057 C2081 0.951 . S
H2058 C2083 0.951 . S
H2059 C2085 0.950 . S
H2060 C2086 0.950 . S
H2061 C2088 0.950 . S
H2062 C2091 0.950 . S
H2063 C2092 0.950 . S
H2064 C2094 0.950 . S
H2065 C2095 0.950 . S
C2066 H2048 0.951 . S
C2066 C2067 1.366 . S
C2066 C2068 1.388 . S
C2067 C2066 1.366 . S
C2067 C2071 1.385 . S
C2068 H2049 0.951 . S
C2068 C2066 1.388 . S
C2068 C2069 1.366 . S
C2069 C2068 1.366 . S
C2069 C2070 1.414 . S
C2069 C2072 1.499 . S
C2070 H2050 0.950 . S
C2070 C2069 1.414 . S
C2070 C2071 1.374 . S
C2071 H2051 0.950 . S
C2071 C2067 1.385 . S
C2071 C2070 1.374 . S
C2072 C2069 1.499 . S
C2072 C2073 1.373 . S
C2072 C2074 1.389 . S
C2073 H2052 0.950 . S
C2073 C2072 1.373 . S
C2073 C2089 1.377 . S
C2074 C2072 1.389 . S
C2074 C2075 1.524 . S
C2074 C2088 1.377 . S
C2075 C2074 1.524 . S
C2075 C2076 1.397 . S
C2075 C2080 1.363 . S
C2076 H2053 0.950 . S
C2076 C2075 1.397 . S
C2076 C2077 1.334 . S
C2077 H2054 0.950 . S
C2077 C2076 1.334 . S
C2077 C2078 1.287 . S
C2078 C2077 1.287 . S
C2078 C2079 1.524 . S
C2078 H2097 0.913 . S
C2079 H2055 0.950 . S
C2079 C2078 1.524 . S
C2079 C2080 1.415 . S
C2080 H2056 0.950 . S
C2080 C2075 1.363 . S
C2080 C2079 1.415 . S
C2081 H2057 0.951 . S
C2081 C2082 1.366 . S
C2081 C2083 1.388 . S
C2082 C2081 1.366 . S
C2082 C2086 1.385 . S
C2083 H2058 0.951 . S
C2083 C2081 1.388 . S
C2083 C2084 1.366 . S
C2084 C2083 1.366 . S
C2084 C2085 1.414 . S
C2084 C2087 1.499 . S
C2085 H2059 0.950 . S
C2085 C2084 1.414 . S
C2085 C2086 1.374 . S
C2086 H2060 0.950 . S
C2086 C2082 1.385 . S
C2086 C2085 1.374 . S
C2087 C2084 1.499 . S
C2087 C2088 1.373 . S
C2087 C2089 1.389 . S
C2088 H2061 0.950 . S
C2088 C2074 1.377 . S
C2088 C2087 1.373 . S
C2089 C2073 1.377 . S
C2089 C2087 1.389 . S
C2089 C2090 1.524 . S
C2090 C2089 1.524 . S
C2090 C2091 1.397 . S
C2090 C2095 1.363 . S
C2091 H2062 0.950 . S
C2091 C2090 1.397 . S
C2091 C2092 1.334 . S
C2092 H2063 0.950 . S
C2092 C2091 1.334 . S
C2092 C2093 1.287 . S
C2093 C2092 1.287 . S
C2093 C2094 1.524 . S
C2093 H2096 0.999 . S
C2094 H2064 0.950 . S
C2094 C2093 1.524 . S
C2094 C2095 1.415 . S
C2095 H2065 0.950 . S
C2095 C2090 1.363 . S
C2095 C2094 1.415 . S
H2096 C2093 0.999 . S
H2097 C2078 0.913 . S
H2098 C2116 0.951 . S
H2099 C2118 0.951 . S
H2100 C2120 0.950 . S
H2101 C2121 0.950 . S
H2102 C2123 0.950 . S
H2103 C2126 0.950 . S
H2104 C2127 0.950 . S
H2105 C2129 0.950 . S
H2106 C2130 0.950 . S
H2107 C2131 0.951 . S
H2108 C2133 0.951 . S
H2109 C2135 0.950 . S
H2110 C2136 0.950 . S
H2111 C2138 0.950 . S
H2112 C2141 0.950 . S
H2113 C2142 0.950 . S
H2114 C2144 0.950 . S
H2115 C2145 0.950 . S
C2116 H2098 0.951 . S
C2116 C2117 1.366 . S
C2116 C2118 1.388 . S
C2117 C2116 1.366 . S
C2117 C2121 1.385 . S
C2118 H2099 0.951 . S
C2118 C2116 1.388 . S
C2118 C2119 1.366 . S
C2119 C2118 1.366 . S
C2119 C2120 1.414 . S
C2119 C2122 1.499 . S
C2120 H2100 0.950 . S
C2120 C2119 1.414 . S
C2120 C2121 1.374 . S
C2121 H2101 0.950 . S
C2121 C2117 1.385 . S
C2121 C2120 1.374 . S
C2122 C2119 1.499 . S
C2122 C2123 1.373 . S
C2122 C2124 1.389 . S
C2123 H2102 0.950 . S
C2123 C2122 1.373 . S
C2123 C2139 1.377 . S
C2124 C2122 1.389 . S
C2124 C2125 1.524 . S
C2124 C2138 1.377 . S
C2125 C2124 1.524 . S
C2125 C2126 1.397 . S
C2125 C2130 1.363 . S
C2126 H2103 0.950 . S
C2126 C2125 1.397 . S
C2126 C2127 1.334 . S
C2127 H2104 0.950 . S
C2127 C2126 1.334 . S
C2127 C2128 1.287 . S
C2128 C2127 1.287 . S
C2128 C2129 1.524 . S
C2128 H2147 0.913 . S
C2129 H2105 0.950 . S
C2129 C2128 1.524 . S
C2129 C2130 1.415 . S
C2130 H2106 0.950 . S
C2130 C2125 1.363 . S
C2130 C2129 1.415 . S
C2131 H2107 0.951 . S
C2131 C2132 1.366 . S
C2131 C2133 1.388 . S
C2132 C2131 1.366 . S
C2132 C2136 1.385 . S
C2133 H2108 0.951 . S
C2133 C2131 1.388 . S
C2133 C2134 1.366 . S
C2134 C2133 1.366 . S
C2134 C2135 1.414 . S
C2134 C2137 1.499 . S
C2135 H2109 0.950 . S
C2135 C2134 1.414 . S
C2135 C2136 1.374 . S
C2136 H2110 0.950 . S
C2136 C2132 1.385 . S
C2136 C2135 1.374 . S
C2137 C2134 1.499 . S
C2137 C2138 1.373 . S
C2137 C2139 1.389 . S
C2138 H2111 0.950 . S
C2138 C2124 1.377 . S
C2138 C2137 1.373 . S
C2139 C2123 1.377 . S
C2139 C2137 1.389 . S
C2139 C2140 1.524 . S
C2140 C2139 1.524 . S
C2140 C2141 1.397 . S
C2140 C2145 1.363 . S
C2141 H2112 0.950 . S
C2141 C2140 1.397 . S
C2141 C2142 1.334 . S
C2142 H2113 0.950 . S
C2142 C2141 1.334 . S
C2142 C2143 1.287 . S
C2143 C2142 1.287 . S
C2143 C2144 1.524 . S
C2143 H2146 0.999 . S
C2144 H2114 0.950 . S
C2144 C2143 1.524 . S
C2144 C2145 1.415 . S
C2145 H2115 0.950 . S
C2145 C2140 1.363 . S
C2145 C2144 1.415 . S
H2146 C2143 0.999 . S
H2147 C2128 0.913 . S
H2148 C2166 0.951 . S
H2149 C2168 0.951 . S
H2150 C2170 0.950 . S
H2151 C2171 0.950 . S
H2152 C2173 0.950 . S
H2153 C2176 0.950 . S
H2154 C2177 0.950 . S
H2155 C2179 0.950 . S
H2156 C2180 0.950 . S
H2157 C2181 0.951 . S
H2158 C2183 0.951 . S
H2159 C2185 0.950 . S
H2160 C2186 0.950 . S
H2161 C2188 0.950 . S
H2162 C2191 0.950 . S
H2163 C2192 0.950 . S
H2164 C2194 0.950 . S
H2165 C2195 0.950 . S
C2166 H2148 0.951 . S
C2166 C2167 1.366 . S
C2166 C2168 1.388 . S
C2167 C2166 1.366 . S
C2167 C2171 1.385 . S
C2168 H2149 0.951 . S
C2168 C2166 1.388 . S
C2168 C2169 1.366 . S
C2169 C2168 1.366 . S
C2169 C2170 1.414 . S
C2169 C2172 1.499 . S
C2170 H2150 0.950 . S
C2170 C2169 1.414 . S
C2170 C2171 1.374 . S
C2171 H2151 0.950 . S
C2171 C2167 1.385 . S
C2171 C2170 1.374 . S
C2172 C2169 1.499 . S
C2172 C2173 1.373 . S
C2172 C2174 1.389 . S
C2173 H2152 0.950 . S
C2173 C2172 1.373 . S
C2173 C2189 1.377 . S
C2174 C2172 1.389 . S
C2174 C2175 1.524 . S
C2174 C2188 1.377 . S
C2175 C2174 1.524 . S
C2175 C2176 1.397 . S
C2175 C2180 1.363 . S
C2176 H2153 0.950 . S
C2176 C2175 1.397 . S
C2176 C2177 1.334 . S
C2177 H2154 0.950 . S
C2177 C2176 1.334 . S
C2177 C2178 1.287 . S
C2178 C2177 1.287 . S
C2178 C2179 1.524 . S
C2178 H2197 0.913 . S
C2179 H2155 0.950 . S
C2179 C2178 1.524 . S
C2179 C2180 1.415 . S
C2180 H2156 0.950 . S
C2180 C2175 1.363 . S
C2180 C2179 1.415 . S
C2181 H2157 0.951 . S
C2181 C2182 1.366 . S
C2181 C2183 1.388 . S
C2182 C2181 1.366 . S
C2182 C2186 1.385 . S
C2183 H2158 0.951 . S
C2183 C2181 1.388 . S
C2183 C2184 1.366 . S
C2184 C2183 1.366 . S
C2184 C2185 1.414 . S
C2184 C2187 1.499 . S
C2185 H2159 0.950 . S
C2185 C2184 1.414 . S
C2185 C2186 1.374 . S
C2186 H2160 0.950 . S
C2186 C2182 1.385 . S
C2186 C2185 1.374 . S
C2187 C2184 1.499 . S
C2187 C2188 1.373 . S
C2187 C2189 1.389 . S
C2188 H2161 0.950 . S
C2188 C2174 1.377 . S
C2188 C2187 1.373 . S
C2189 C2173 1.377 . S
C2189 C2187 1.389 . S
C2189 C2190 1.524 . S
C2190 C2189 1.524 . S
C2190 C2191 1.397 . S
C2190 C2195 1.363 . S
C2191 H2162 0.950 . S
C2191 C2190 1.397 . S
C2191 C2192 1.334 . S
C2192 H2163 0.950 . S
C2192 C2191 1.334 . S
C2192 C2193 1.287 . S
C2193 C2192 1.287 . S
C2193 C2194 1.524 . S
C2193 H2196 0.999 . S
C2194 H2164 0.950 . S
C2194 C2193 1.524 . S
C2194 C2195 1.415 . S
C2195 H2165 0.950 . S
C2195 C2190 1.363 . S
C2195 C2194 1.415 . S
H2196 C2193 0.999 . S
H2197 C2178 0.913 . S
H2198 C2216 0.951 . S
H2199 C2218 0.951 . S
H2200 C2220 0.950 . S
H2201 C2221 0.950 . S
H2202 C2223 0.950 . S
H2203 C2226 0.950 . S
H2204 C2227 0.950 . S
H2205 C2229 0.950 . S
H2206 C2230 0.950 . S
H2207 C2231 0.951 . S
H2208 C2233 0.951 . S
H2209 C2235 0.950 . S
H2210 C2236 0.950 . S
H2211 C2238 0.950 . S
H2212 C2241 0.950 . S
H2213 C2242 0.950 . S
H2214 C2244 0.950 . S
H2215 C2245 0.950 . S
C2216 H2198 0.951 . S
C2216 C2217 1.366 . S
C2216 C2218 1.388 . S
C2217 C2216 1.366 . S
C2217 C2221 1.385 . S
C2218 H2199 0.951 . S
C2218 C2216 1.388 . S
C2218 C2219 1.366 . S
C2219 C2218 1.366 . S
C2219 C2220 1.414 . S
C2219 C2222 1.499 . S
C2220 H2200 0.950 . S
C2220 C2219 1.414 . S
C2220 C2221 1.374 . S
C2221 H2201 0.950 . S
C2221 C2217 1.385 . S
C2221 C2220 1.374 . S
C2222 C2219 1.499 . S
C2222 C2223 1.373 . S
C2222 C2224 1.389 . S
C2223 H2202 0.950 . S
C2223 C2222 1.373 . S
C2223 C2239 1.377 . S
C2224 C2222 1.389 . S
C2224 C2225 1.524 . S
C2224 C2238 1.377 . S
C2225 C2224 1.524 . S
C2225 C2226 1.397 . S
C2225 C2230 1.363 . S
C2226 H2203 0.950 . S
C2226 C2225 1.397 . S
C2226 C2227 1.334 . S
C2227 H2204 0.950 . S
C2227 C2226 1.334 . S
C2227 C2228 1.287 . S
C2228 C2227 1.287 . S
C2228 C2229 1.524 . S
C2228 H2247 0.913 . S
C2229 H2205 0.950 . S
C2229 C2228 1.524 . S
C2229 C2230 1.415 . S
C2230 H2206 0.950 . S
C2230 C2225 1.363 . S
C2230 C2229 1.415 . S
C2231 H2207 0.951 . S
C2231 C2232 1.366 . S
C2231 C2233 1.388 . S
C2232 C2231 1.366 . S
C2232 C2236 1.385 . S
C2233 H2208 0.951 . S
C2233 C2231 1.388 . S
C2233 C2234 1.366 . S
C2234 C2233 1.366 . S
C2234 C2235 1.414 . S
C2234 C2237 1.499 . S
C2235 H2209 0.950 . S
C2235 C2234 1.414 . S
C2235 C2236 1.374 . S
C2236 H2210 0.950 . S
C2236 C2232 1.385 . S
C2236 C2235 1.374 . S
C2237 C2234 1.499 . S
C2237 C2238 1.373 . S
C2237 C2239 1.389 . S
C2238 H2211 0.950 . S
C2238 C2224 1.377 . S
C2238 C2237 1.373 . S
C2239 C2223 1.377 . S
C2239 C2237 1.389 . S
C2239 C2240 1.524 . S
C2240 C2239 1.524 . S
C2240 C2241 1.397 . S
C2240 C2245 1.363 . S
C2241 H2212 0.950 . S
C2241 C2240 1.397 . S
C2241 C2242 1.334 . S
C2242 H2213 0.950 . S
C2242 C2241 1.334 . S
C2242 C2243 1.287 . S
C2243 C2242 1.287 . S
C2243 C2244 1.524 . S
C2243 H2246 0.999 . S
C2244 H2214 0.950 . S
C2244 C2243 1.524 . S
C2244 C2245 1.415 . S
C2245 H2215 0.950 . S
C2245 C2240 1.363 . S
C2245 C2244 1.415 . S
H2246 C2243 0.999 . S
H2247 C2228 0.913 . S
H2248 C2266 0.951 . S
H2249 C2268 0.951 . S
H2250 C2270 0.950 . S
H2251 C2271 0.950 . S
H2252 C2273 0.950 . S
H2253 C2276 0.950 . S
H2254 C2277 0.950 . S
H2255 C2279 0.950 . S
H2256 C2280 0.950 . S
H2257 C2281 0.951 . S
H2258 C2283 0.951 . S
H2259 C2285 0.950 . S
H2260 C2286 0.950 . S
H2261 C2288 0.950 . S
H2262 C2291 0.950 . S
H2263 C2292 0.950 . S
H2264 C2294 0.950 . S
H2265 C2295 0.950 . S
C2266 H2248 0.951 . S
C2266 C2267 1.366 . S
C2266 C2268 1.388 . S
C2267 C2266 1.366 . S
C2267 C2271 1.385 . S
C2268 H2249 0.951 . S
C2268 C2266 1.388 . S
C2268 C2269 1.366 . S
C2269 C2268 1.366 . S
C2269 C2270 1.414 . S
C2269 C2272 1.499 . S
C2270 H2250 0.950 . S
C2270 C2269 1.414 . S
C2270 C2271 1.374 . S
C2271 H2251 0.950 . S
C2271 C2267 1.385 . S
C2271 C2270 1.374 . S
C2272 C2269 1.499 . S
C2272 C2273 1.373 . S
C2272 C2274 1.389 . S
C2273 H2252 0.950 . S
C2273 C2272 1.373 . S
C2273 C2289 1.377 . S
C2274 C2272 1.389 . S
C2274 C2275 1.524 . S
C2274 C2288 1.377 . S
C2275 C2274 1.524 . S
C2275 C2276 1.397 . S
C2275 C2280 1.363 . S
C2276 H2253 0.950 . S
C2276 C2275 1.397 . S
C2276 C2277 1.334 . S
C2277 H2254 0.950 . S
C2277 C2276 1.334 . S
C2277 C2278 1.287 . S
C2278 C2277 1.287 . S
C2278 C2279 1.524 . S
C2278 H2297 0.913 . S
C2279 H2255 0.950 . S
C2279 C2278 1.524 . S
C2279 C2280 1.415 . S
C2280 H2256 0.950 . S
C2280 C2275 1.363 . S
C2280 C2279 1.415 . S
C2281 H2257 0.951 . S
C2281 C2282 1.366 . S
C2281 C2283 1.388 . S
C2282 C2281 1.366 . S
C2282 C2286 1.385 . S
C2283 H2258 0.951 . S
C2283 C2281 1.388 . S
C2283 C2284 1.366 . S
C2284 C2283 1.366 . S
C2284 C2285 1.414 . S
C2284 C2287 1.499 . S
C2285 H2259 0.950 . S
C2285 C2284 1.414 . S
C2285 C2286 1.374 . S
C2286 H2260 0.950 . S
C2286 C2282 1.385 . S
C2286 C2285 1.374 . S
C2287 C2284 1.499 . S
C2287 C2288 1.373 . S
C2287 C2289 1.389 . S
C2288 H2261 0.950 . S
C2288 C2274 1.377 . S
C2288 C2287 1.373 . S
C2289 C2273 1.377 . S
C2289 C2287 1.389 . S
C2289 C2290 1.524 . S
C2290 C2289 1.524 . S
C2290 C2291 1.397 . S
C2290 C2295 1.363 . S
C2291 H2262 0.950 . S
C2291 C2290 1.397 . S
C2291 C2292 1.334 . S
C2292 H2263 0.950 . S
C2292 C2291 1.334 . S
C2292 C2293 1.287 . S
C2293 C2292 1.287 . S
C2293 C2294 1.524 . S
C2293 H2296 0.999 . S
C2294 H2264 0.950 . S
C2294 C2293 1.524 . S
C2294 C2295 1.415 . S
C2295 H2265 0.950 . S
C2295 C2290 1.363 . S
C2295 C2294 1.415 . S
H2296 C2293 0.999 . S
H2297 C2278 0.913 . S
H2298 C2316 0.951 . S
H2299 C2318 0.951 . S
H2300 C2320 0.950 . S
H2301 C2321 0.950 . S
H2302 C2323 0.950 . S
H2303 C2326 0.950 . S
H2304 C2327 0.950 . S
H2305 C2329 0.950 . S
H2306 C2330 0.950 . S
H2307 C2331 0.951 . S
H2308 C2333 0.951 . S
H2309 C2335 0.950 . S
H2310 C2336 0.950 . S
H2311 C2338 0.950 . S
H2312 C2341 0.950 . S
H2313 C2342 0.950 . S
H2314 C2344 0.950 . S
H2315 C2345 0.950 . S
C2316 H2298 0.951 . S
C2316 C2317 1.366 . S
C2316 C2318 1.388 . S
C2317 C2316 1.366 . S
C2317 C2321 1.385 . S
C2318 H2299 0.951 . S
C2318 C2316 1.388 . S
C2318 C2319 1.366 . S
C2319 C2318 1.366 . S
C2319 C2320 1.414 . S
C2319 C2322 1.499 . S
C2320 H2300 0.950 . S
C2320 C2319 1.414 . S
C2320 C2321 1.374 . S
C2321 H2301 0.950 . S
C2321 C2317 1.385 . S
C2321 C2320 1.374 . S
C2322 C2319 1.499 . S
C2322 C2323 1.373 . S
C2322 C2324 1.389 . S
C2323 H2302 0.950 . S
C2323 C2322 1.373 . S
C2323 C2339 1.377 . S
C2324 C2322 1.389 . S
C2324 C2325 1.524 . S
C2324 C2338 1.377 . S
C2325 C2324 1.524 . S
C2325 C2326 1.397 . S
C2325 C2330 1.363 . S
C2326 H2303 0.950 . S
C2326 C2325 1.397 . S
C2326 C2327 1.334 . S
C2327 H2304 0.950 . S
C2327 C2326 1.334 . S
C2327 C2328 1.287 . S
C2328 C2327 1.287 . S
C2328 C2329 1.524 . S
C2328 H2347 0.913 . S
C2329 H2305 0.950 . S
C2329 C2328 1.524 . S
C2329 C2330 1.415 . S
C2330 H2306 0.950 . S
C2330 C2325 1.363 . S
C2330 C2329 1.415 . S
C2331 H2307 0.951 . S
C2331 C2332 1.366 . S
C2331 C2333 1.388 . S
C2332 C2331 1.366 . S
C2332 C2336 1.385 . S
C2333 H2308 0.951 . S
C2333 C2331 1.388 . S
C2333 C2334 1.366 . S
C2334 C2333 1.366 . S
C2334 C2335 1.414 . S
C2334 C2337 1.499 . S
C2335 H2309 0.950 . S
C2335 C2334 1.414 . S
C2335 C2336 1.374 . S
C2336 H2310 0.950 . S
C2336 C2332 1.385 . S
C2336 C2335 1.374 . S
C2337 C2334 1.499 . S
C2337 C2338 1.373 . S
C2337 C2339 1.389 . S
C2338 H2311 0.950 . S
C2338 C2324 1.377 . S
C2338 C2337 1.373 . S
C2339 C2323 1.377 . S
C2339 C2337 1.389 . S
C2339 C2340 1.524 . S
C2340 C2339 1.524 . S
C2340 C2341 1.397 . S
C2340 C2345 1.363 . S
C2341 H2312 0.950 . S
C2341 C2340 1.397 . S
C2341 C2342 1.334 . S
C2342 H2313 0.950 . S
C2342 C2341 1.334 . S
C2342 C2343 1.287 . S
C2343 C2342 1.287 . S
C2343 C2344 1.524 . S
C2343 H2346 0.999 . S
C2344 H2314 0.950 . S
C2344 C2343 1.524 . S
C2344 C2345 1.415 . S
C2345 H2315 0.950 . S
C2345 C2340 1.363 . S
C2345 C2344 1.415 . S
H2346 C2343 0.999 . S
H2347 C2328 0.913 . S
H2348 C2366 0.951 . S
H2349 C2368 0.951 . S
H2350 C2370 0.950 . S
H2351 C2371 0.950 . S
H2352 C2373 0.950 . S
H2353 C2376 0.950 . S
H2354 C2377 0.950 . S
H2355 C2379 0.950 . S
H2356 C2380 0.950 . S
H2357 C2381 0.951 . S
H2358 C2383 0.951 . S
H2359 C2385 0.950 . S
H2360 C2386 0.950 . S
H2361 C2388 0.950 . S
H2362 C2391 0.950 . S
H2363 C2392 0.950 . S
H2364 C2394 0.950 . S
H2365 C2395 0.950 . S
C2366 H2348 0.951 . S
C2366 C2367 1.366 . S
C2366 C2368 1.388 . S
C2367 C2366 1.366 . S
C2367 C2371 1.385 . S
C2368 H2349 0.951 . S
C2368 C2366 1.388 . S
C2368 C2369 1.366 . S
C2369 C2368 1.366 . S
C2369 C2370 1.414 . S
C2369 C2372 1.499 . S
C2370 H2350 0.950 . S
C2370 C2369 1.414 . S
C2370 C2371 1.374 . S
C2371 H2351 0.950 . S
C2371 C2367 1.385 . S
C2371 C2370 1.374 . S
C2372 C2369 1.499 . S
C2372 C2373 1.373 . S
C2372 C2374 1.389 . S
C2373 H2352 0.950 . S
C2373 C2372 1.373 . S
C2373 C2389 1.377 . S
C2374 C2372 1.389 . S
C2374 C2375 1.524 . S
C2374 C2388 1.377 . S
C2375 C2374 1.524 . S
C2375 C2376 1.397 . S
C2375 C2380 1.363 . S
C2376 H2353 0.950 . S
C2376 C2375 1.397 . S
C2376 C2377 1.334 . S
C2377 H2354 0.950 . S
C2377 C2376 1.334 . S
C2377 C2378 1.287 . S
C2378 C2377 1.287 . S
C2378 C2379 1.524 . S
C2378 H2397 0.913 . S
C2379 H2355 0.950 . S
C2379 C2378 1.524 . S
C2379 C2380 1.415 . S
C2380 H2356 0.950 . S
C2380 C2375 1.363 . S
C2380 C2379 1.415 . S
C2381 H2357 0.951 . S
C2381 C2382 1.366 . S
C2381 C2383 1.388 . S
C2382 C2381 1.366 . S
C2382 C2386 1.385 . S
C2383 H2358 0.951 . S
C2383 C2381 1.388 . S
C2383 C2384 1.366 . S
C2384 C2383 1.366 . S
C2384 C2385 1.414 . S
C2384 C2387 1.499 . S
C2385 H2359 0.950 . S
C2385 C2384 1.414 . S
C2385 C2386 1.374 . S
C2386 H2360 0.950 . S
C2386 C2382 1.385 . S
C2386 C2385 1.374 . S
C2387 C2384 1.499 . S
C2387 C2388 1.373 . S
C2387 C2389 1.389 . S
C2388 H2361 0.950 . S
C2388 C2374 1.377 . S
C2388 C2387 1.373 . S
C2389 C2373 1.377 . S
C2389 C2387 1.389 . S
C2389 C2390 1.524 . S
C2390 C2389 1.524 . S
C2390 C2391 1.397 . S
C2390 C2395 1.363 . S
C2391 H2362 0.950 . S
C2391 C2390 1.397 . S
C2391 C2392 1.334 . S
C2392 H2363 0.950 . S
C2392 C2391 1.334 . S
C2392 C2393 1.287 . S
C2393 C2392 1.287 . S
C2393 C2394 1.524 . S
C2393 H2396 0.999 . S
C2394 H2364 0.950 . S
C2394 C2393 1.524 . S
C2394 C2395 1.415 . S
C2395 H2365 0.950 . S
C2395 C2390 1.363 . S
C2395 C2394 1.415 . S
H2396 C2393 0.999 . S
H2397 C2378 0.913 . S
H2398 C2416 0.951 . S
H2399 C2418 0.951 . S
H2400 C2420 0.950 . S
H2401 C2421 0.950 . S
H2402 C2423 0.950 . S
H2403 C2426 0.950 . S
H2404 C2427 0.950 . S
H2405 C2429 0.950 . S
H2406 C2430 0.950 . S
H2407 C2431 0.951 . S
H2408 C2433 0.951 . S
H2409 C2435 0.950 . S
H2410 C2436 0.950 . S
H2411 C2438 0.950 . S
H2412 C2441 0.950 . S
H2413 C2442 0.950 . S
H2414 C2444 0.950 . S
H2415 C2445 0.950 . S
C2416 H2398 0.951 . S
C2416 C2417 1.366 . S
C2416 C2418 1.388 . S
C2417 C2416 1.366 . S
C2417 C2421 1.385 . S
C2418 H2399 0.951 . S
C2418 C2416 1.388 . S
C2418 C2419 1.366 . S
C2419 C2418 1.366 . S
C2419 C2420 1.414 . S
C2419 C2422 1.499 . S
C2420 H2400 0.950 . S
C2420 C2419 1.414 . S
C2420 C2421 1.374 . S
C2421 H2401 0.950 . S
C2421 C2417 1.385 . S
C2421 C2420 1.374 . S
C2422 C2419 1.499 . S
C2422 C2423 1.373 . S
C2422 C2424 1.389 . S
C2423 H2402 0.950 . S
C2423 C2422 1.373 . S
C2423 C2439 1.377 . S
C2424 C2422 1.389 . S
C2424 C2425 1.524 . S
C2424 C2438 1.377 . S
C2425 C2424 1.524 . S
C2425 C2426 1.397 . S
C2425 C2430 1.363 . S
C2426 H2403 0.950 . S
C2426 C2425 1.397 . S
C2426 C2427 1.334 . S
C2427 H2404 0.950 . S
C2427 C2426 1.334 . S
C2427 C2428 1.287 . S
C2428 C2427 1.287 . S
C2428 C2429 1.524 . S
C2428 H2447 0.913 . S
C2429 H2405 0.950 . S
C2429 C2428 1.524 . S
C2429 C2430 1.415 . S
C2430 H2406 0.950 . S
C2430 C2425 1.363 . S
C2430 C2429 1.415 . S
C2431 H2407 0.951 . S
C2431 C2432 1.366 . S
C2431 C2433 1.388 . S
C2432 C2431 1.366 . S
C2432 C2436 1.385 . S
C2433 H2408 0.951 . S
C2433 C2431 1.388 . S
C2433 C2434 1.366 . S
C2434 C2433 1.366 . S
C2434 C2435 1.414 . S
C2434 C2437 1.499 . S
C2435 H2409 0.950 . S
C2435 C2434 1.414 . S
C2435 C2436 1.374 . S
C2436 H2410 0.950 . S
C2436 C2432 1.385 . S
C2436 C2435 1.374 . S
C2437 C2434 1.499 . S
C2437 C2438 1.373 . S
C2437 C2439 1.389 . S
C2438 H2411 0.950 . S
C2438 C2424 1.377 . S
C2438 C2437 1.373 . S
C2439 C2423 1.377 . S
C2439 C2437 1.389 . S
C2439 C2440 1.524 . S
C2440 C2439 1.524 . S
C2440 C2441 1.397 . S
C2440 C2445 1.363 . S
C2441 H2412 0.950 . S
C2441 C2440 1.397 . S
C2441 C2442 1.334 . S
C2442 H2413 0.950 . S
C2442 C2441 1.334 . S
C2442 C2443 1.287 . S
C2443 C2442 1.287 . S
C2443 C2444 1.524 . S
C2443 H2446 0.999 . S
C2444 H2414 0.950 . S
C2444 C2443 1.524 . S
C2444 C2445 1.415 . S
C2445 H2415 0.950 . S
C2445 C2440 1.363 . S
C2445 C2444 1.415 . S
H2446 C2443 0.999 . S
H2447 C2428 0.913 . S
C367 C216 2.615 . S
C382 C5 2.814 . S
C417 C34 2.815 . S
C432 C245 2.615 . S
C467 C63 2.815 . S
C482 C187 2.615 . S
C517 C92 2.814 . S
C532 C332 2.614 . S
C567 C274 2.614 . S
C582 C121 2.814 . S
C617 C150 2.814 . S
C632 C303 2.615 . S
C667 C179 2.815 . S
C682 C42 2.615 . S
C717 C208 2.814 . S
C732 C71 2.614 . S
C767 C13 2.615 . S
C782 C237 2.815 . S
C817 C266 2.815 . S
C832 C158 2.615 . S
C867 C295 2.815 . S
C882 C100 2.615 . S
C917 C129 2.615 . S
C932 C324 2.814 . S
C967 C15 1.246 . S
C982 C102 1.246 . S
C1017 C44 1.245 . S
C1032 C131 1.246 . S
C1067 C73 1.245 . S
C1082 C160 1.246 . S
C1117 C276 1.246 . S
C1132 C189 1.245 . S
C1167 C305 1.246 . S
C1182 C218 1.246 . S
C1217 C334 1.245 . S
C1232 C247 1.246 . S
C1267 C21 1.612 . S
C1282 C39 1.478 . S
C1317 C50 1.611 . S
C1332 C68 1.477 . S
C1367 C79 1.610 . S
C1382 C10 1.478 . S
C1417 C155 1.478 . S
C1432 C108 1.611 . S
C1467 C137 1.610 . S
C1482 C97 1.479 . S
C1517 C126 1.477 . S
C1532 C166 1.611 . S
C1567 C213 1.479 . S
C1582 C195 1.611 . S
C1617 C224 1.611 . S
C1632 C242 1.479 . S
C1667 C253 1.611 . S
C1682 C184 1.477 . S
C1717 C282 1.612 . S
C1732 C329 1.478 . S
C1767 C311 1.610 . S
C1782 C271 1.478 . S
C1817 C340 1.611 . S
C1832 C300 1.478 . S
C1867 C298 0.973 . S
C1882 C3 1.004 . S
C1917 C327 0.971 . S
C1932 C32 1.005 . S
C1967 C61 1.004 . S
C1982 C269 0.973 . S
C2017 C90 1.005 . S
C2032 C240 0.972 . S
C2067 C119 1.005 . S
C2082 C182 0.971 . S
C2117 C211 0.971 . S
C2132 C148 1.005 . S
C2167 C177 1.005 . S
C2182 C124 0.973 . S
C2217 C206 1.005 . S
C2232 C153 0.971 . S
C2267 C235 1.005 . S
C2282 C95 0.972 . S
C2317 C264 1.005 . S
C2332 C66 0.972 . S
C2367 C293 1.005 . S
C2382 C8 0.971 . S
C2417 C322 1.004 . S
C2432 C37 0.971 . S
