# Generated by pormake.
# Topology umw, (4)-cn, num edge types: 1
# Building blocks:
#     Node 0, Type 0, BuildingBlock: TATPOV_clean_sbu_0, # of connection points: 4
#     Node 1, Type 0, BuildingBlock: TATPOV_clean_sbu_0, # of connection points: 4
#     Node 2, Type 0, BuildingBlock: TATPOV_clean_sbu_0, # of connection points: 4
#     Node 3, Type 0, BuildingBlock: TATPOV_clean_sbu_0, # of connection points: 4
#     Node 4, Type 0, BuildingBlock: TATPOV_clean_sbu_0, # of connection points: 4
#     Node 5, Type 0, BuildingBlock: TATPOV_clean_sbu_0, # of connection points: 4
#     Node 6, Type 0, BuildingBlock: TATPOV_clean_sbu_0, # of connection points: 4
#     Node 7, Type 0, BuildingBlock: TATPOV_clean_sbu_0, # of connection points: 4
#     Edge 8, Type (0, 0), BuildingBlock: KIFKEQ_clean_linker_1, # of connection points: 2
#     Edge 9, Type (0, 0), BuildingBlock: KIFKEQ_clean_linker_1, # of connection points: 2
#     Edge 10, Type (0, 0), BuildingBlock: KIFKEQ_clean_linker_1, # of connection points: 2
#     Edge 11, Type (0, 0), BuildingBlock: KIFKEQ_clean_linker_1, # of connection points: 2
#     Edge 12, Type (0, 0), BuildingBlock: KIFKEQ_clean_linker_1, # of connection points: 2
#     Edge 13, Type (0, 0), BuildingBlock: KIFKEQ_clean_linker_1, # of connection points: 2
#     Edge 14, Type (0, 0), BuildingBlock: KIFKEQ_clean_linker_1, # of connection points: 2
#     Edge 15, Type (0, 0), BuildingBlock: KIFKEQ_clean_linker_1, # of connection points: 2
#     Edge 16, Type (0, 0), BuildingBlock: KIFKEQ_clean_linker_1, # of connection points: 2
#     Edge 17, Type (0, 0), BuildingBlock: KIFKEQ_clean_linker_1, # of connection points: 2
#     Edge 18, Type (0, 0), BuildingBlock: KIFKEQ_clean_linker_1, # of connection points: 2
#     Edge 19, Type (0, 0), BuildingBlock: KIFKEQ_clean_linker_1, # of connection points: 2
#     Edge 20, Type (0, 0), BuildingBlock: KIFKEQ_clean_linker_1, # of connection points: 2
#     Edge 21, Type (0, 0), BuildingBlock: KIFKEQ_clean_linker_1, # of connection points: 2
#     Edge 22, Type (0, 0), BuildingBlock: KIFKEQ_clean_linker_1, # of connection points: 2
#     Edge 23, Type (0, 0), BuildingBlock: KIFKEQ_clean_linker_1, # of connection points: 2
# Relax obj value: 0.145
# Max RMSD: 0.109
# Mean RMSD: 0.109
data_MOF--net-umw--node1-TATPOV_clean_sbu_0--edge1-KIFKEQ_clean_linker_1
_symmetry_space_group_name_H-M    P1
_symmetry_Int_Tables_number       1
_symmetry_cell_setting            triclinic
loop_
_symmetry_equiv_pos_as_xyz
'x, y, z'
_cell_length_a     42.841266
_cell_length_b     42.704776
_cell_length_c     26.21496
_cell_angle_alpha  90.182327
_cell_angle_beta   89.967786
_cell_angle_gamma 89.942892
loop_
_atom_site_label
_atom_site_type_symbol
_atom_site_fract_x
_atom_site_fract_y
_atom_site_fract_z
_atom_type_partial_charge
Zn0 Zn 0.45794 0.13784 0.22922 0.0
Zn1 Zn 0.41578 0.17884 0.25245 0.0
O2 O 0.43826 0.1998 0.19021 0.0
O3 O 0.47827 0.16776 0.18196 0.0
O4 O 0.3826 0.20962 0.27618 0.0
O5 O 0.47344 0.13568 0.30108 0.0
O6 O 0.44315 0.17617 0.31674 0.0
C7 C 0.46438 0.19272 0.16953 0.0
C8 C 0.39845 0.11166 0.21786 0.0
O9 O 0.39107 0.13758 0.23897 0.0
O10 O 0.42638 0.10676 0.20436 0.0
C11 C 0.36174 0.19989 0.30691 0.0
O12 O 0.36167 0.17023 0.32005 0.0
C13 C 0.46403 0.15688 0.33117 0.0
Zn14 Zn 0.8614 0.46497 0.45848 0.0
Zn15 Zn 0.83042 0.41215 0.48414 0.0
O16 O 0.80747 0.42705 0.41838 0.0
O17 O 0.83118 0.47187 0.40222 0.0
O18 O 0.80582 0.37439 0.50857 0.0
O19 O 0.85122 0.48498 0.5258 0.0
O20 O 0.82545 0.44196 0.54497 0.0
C21 C 0.81012 0.45209 0.39226 0.0
C22 C 0.90078 0.41001 0.46112 0.0
O23 O 0.87599 0.39644 0.47652 0.0
O24 O 0.9002 0.43867 0.44887 0.0
C25 C 0.7788 0.37921 0.5273 0.0
O26 O 0.76757 0.40785 0.52726 0.0
C27 C 0.8345 0.46948 0.55641 0.0
Zn28 Zn 0.55435 0.88281 0.71611 0.0
Zn29 Zn 0.59772 0.84024 0.73477 0.0
O30 O 0.57406 0.82109 0.6721 0.0
O31 O 0.53581 0.85517 0.66333 0.0
O32 O 0.6295 0.80755 0.75558 0.0
O33 O 0.53698 0.87974 0.7869 0.0
O34 O 0.57099 0.84191 0.79946 0.0
C35 C 0.54872 0.82969 0.65055 0.0
C36 C 0.61578 0.90825 0.70918 0.0
O37 O 0.62351 0.88104 0.72475 0.0
O38 O 0.58752 0.91434 0.69922 0.0
C39 C 0.64406 0.81214 0.79727 0.0
O40 O 0.63935 0.83849 0.82217 0.0
C41 C 0.54839 0.85872 0.81521 0.0
Zn42 Zn 0.14722 0.54113 0.04403 0.0
Zn43 Zn 0.17703 0.5926 0.0334 0.0
O44 O 0.18938 0.56841 0.96723 0.0
O45 O 0.15573 0.5296 0.97213 0.0
O46 O 0.20263 0.63241 0.03677 0.0
O47 O 0.17625 0.52381 0.09584 0.0
O48 O 0.19451 0.57188 0.09808 0.0
C49 C 0.1772 0.54365 0.94831 0.0
C50 C 0.10666 0.59297 0.05392 0.0
O51 O 0.13065 0.60733 0.03717 0.0
O52 O 0.10835 0.56412 0.06439 0.0
C53 C 0.19603 0.65018 0.07437 0.0
O54 O 0.17166 0.64331 0.10266 0.0
C55 C 0.19409 0.54408 0.11526 0.0
Zn56 Zn 0.45454 0.87238 0.26932 0.0
Zn57 Zn 0.40946 0.83344 0.24482 0.0
O58 O 0.42941 0.81155 0.30851 0.0
O59 O 0.47035 0.84202 0.31998 0.0
O60 O 0.37619 0.80418 0.21798 0.0
O61 O 0.47346 0.87097 0.1997 0.0
O62 O 0.43807 0.83523 0.1821 0.0
C63 C 0.45507 0.81771 0.3313 0.0
C64 C 0.39475 0.90143 0.27537 0.0
O65 O 0.38591 0.87536 0.25644 0.0
O66 O 0.423 0.90538 0.28792 0.0
C67 C 0.35271 0.79372 0.24214 0.0
O68 O 0.34896 0.80132 0.29036 0.0
C69 C 0.46178 0.85131 0.16905 0.0
Zn70 Zn 0.16244 0.46107 0.53228 0.0
Zn71 Zn 0.19262 0.40641 0.52475 0.0
O72 O 0.20774 0.42356 0.59524 0.0
O73 O 0.18543 0.47018 0.59564 0.0
O74 O 0.21816 0.36739 0.51069 0.0
O75 O 0.18161 0.47758 0.46871 0.0
O76 O 0.20701 0.43277 0.46397 0.0
C77 C 0.20351 0.4504 0.61582 0.0
C78 C 0.12093 0.40816 0.52618 0.0
O79 O 0.14615 0.39258 0.52078 0.0
O80 O 0.12174 0.43749 0.53321 0.0
C81 C 0.2105 0.35027 0.4729 0.0
O82 O 0.18467 0.3567 0.44802 0.0
C83 C 0.20132 0.46003 0.44696 0.0
Zn84 Zn 0.56489 0.14012 0.78484 0.0
Zn85 Zn 0.60466 0.18193 0.76023 0.0
O86 O 0.58314 0.20125 0.8252 0.0
O87 O 0.54409 0.1683 0.8344 0.0
O88 O 0.63616 0.21441 0.73718 0.0
O89 O 0.54761 0.13784 0.71413 0.0
O90 O 0.57569 0.17965 0.69765 0.0
C91 C 0.55765 0.1934 0.84707 0.0
C92 C 0.62482 0.11474 0.78921 0.0
O93 O 0.63083 0.14089 0.76789 0.0
O94 O 0.59775 0.10962 0.80653 0.0
C95 C 0.65123 0.20913 0.69616 0.0
O96 O 0.64673 0.18246 0.67212 0.0
C97 C 0.55527 0.15962 0.68408 0.0
Zn98 Zn 0.84789 0.54634 0.00416 0.0
Zn99 Zn 0.81576 0.6005 -0.00174 0.0
O100 O 0.79403 0.5775 0.05876 0.0
O101 O 0.81987 0.53273 0.06029 0.0
O102 O 0.78995 0.63934 -0.01546 0.0
O103 O 0.83632 0.53321 0.93405 0.0
O104 O 0.81254 0.57885 0.92788 0.0
C105 C 0.79833 0.55016 0.07713 0.0
C106 C 0.88561 0.60213 0.01944 0.0
O107 O 0.86002 0.617 0.01413 0.0
O108 O 0.88639 0.57254 0.01655 0.0
C109 C 0.76329 0.63547 0.96406 0.0
O110 O 0.75287 0.6068 0.95755 0.0
C111 C 0.82076 0.55275 0.90851 0.0
H112 H 0.49959 0.1132 0.37914 0.0
H113 H 0.45845 0.20487 0.40028 0.0
H114 H 0.52118 0.11564 0.46485 0.0
H115 H 0.48041 0.20721 0.48652 0.0
H116 H 0.5591 0.20696 0.61387 0.0
H117 H 0.53622 0.20784 0.5282 0.0
H118 H 0.4964 0.1164 0.55376 0.0
H119 H 0.5189 0.1154 0.63887 0.0
C120 C 0.49522 0.13392 0.40201 0.0
C121 C 0.47724 0.15882 0.38303 0.0
C122 C 0.50749 0.13522 0.45113 0.0
C123 C 0.50231 0.16155 0.48213 0.0
C124 C 0.4848 0.18673 0.46309 0.0
C125 C 0.47213 0.18528 0.41399 0.0
C126 C 0.54535 0.18714 0.6012 0.0
C127 C 0.5409 0.16107 0.633 0.0
C128 C 0.53217 0.18774 0.55242 0.0
C129 C 0.51476 0.16212 0.53457 0.0
C130 C 0.51002 0.1363 0.56656 0.0
C131 C 0.52282 0.13583 0.61533 0.0
H132 H 0.82514 0.53101 0.57858 0.0
H133 H 0.82466 0.43878 0.6454 0.0
H134 H 0.81336 0.55404 0.66151 0.0
H135 H 0.81532 0.46158 0.72889 0.0
H136 H 0.78711 0.5038 0.87383 0.0
H137 H 0.78278 0.48596 0.78571 0.0
H138 H 0.83781 0.56557 0.73716 0.0
H139 H 0.83951 0.58438 0.82489 0.0
C140 C 0.82265 0.51573 0.61125 0.0
C141 C 0.82598 0.4832 0.60593 0.0
C142 C 0.81606 0.52889 0.65884 0.0
C143 C 0.81356 0.50982 0.70233 0.0
C144 C 0.81633 0.47712 0.69641 0.0
C145 C 0.82204 0.46395 0.64859 0.0
C146 C 0.79737 0.5178 0.84377 0.0
C147 C 0.81358 0.54533 0.85543 0.0
C148 C 0.79533 0.50745 0.79341 0.0
C149 C 0.81056 0.52385 0.75412 0.0
C150 C 0.82543 0.55241 0.76598 0.0
C151 C 0.82659 0.56322 0.81624 0.0
H152 H 0.43392 0.82665 0.08441 0.0
H153 H 0.51996 0.86816 0.13788 0.0
H154 H 0.45513 0.8247 -0.00225 0.0
H155 H 0.54111 0.8658 0.05149 0.0
H156 H 0.5762 0.82948 0.89572 0.0
H157 H 0.55536 0.82359 -0.01787 0.0
H158 H 0.47068 0.87069 0.93657 0.0
H159 H 0.49147 0.87698 0.85054 0.0
C160 C 0.45745 0.83496 0.07777 0.0
C161 C 0.47523 0.84777 0.11769 0.0
C162 C 0.46949 0.83392 0.02831 0.0
C163 C 0.49966 0.84512 0.0183 0.0
C164 C 0.51786 0.85681 0.05849 0.0
C165 C 0.50567 0.85835 0.10773 0.0
C166 C 0.55306 0.83837 0.90412 0.0
C167 C 0.5355 0.85385 0.86661 0.0
C168 C 0.54123 0.83505 0.95343 0.0
C169 C 0.51147 0.84662 0.9656 0.0
C170 C 0.49359 0.86132 0.9278 0.0
C171 C 0.50559 0.86512 0.87881 0.0
H172 H 0.22848 0.51635 0.43128 0.0
H173 H 0.20766 0.42821 0.35834 0.0
H174 H 0.24424 0.53829 0.34953 0.0
H175 H 0.22038 0.45044 0.27606 0.0
H176 H 0.22891 0.49194 0.12969 0.0
H177 H 0.24785 0.47225 0.21116 0.0
H178 H 0.21477 0.55711 0.2846 0.0
H179 H 0.19879 0.57742 0.20258 0.0
C180 C 0.22766 0.50166 0.39753 0.0
C181 C 0.21639 0.47094 0.40032 0.0
C182 C 0.23644 0.5142 0.35066 0.0
C183 C 0.23267 0.49664 0.30557 0.0
C184 C 0.22393 0.46488 0.30953 0.0
C185 C 0.21626 0.45205 0.3567 0.0
C186 C 0.22688 0.50664 0.16331 0.0
C187 C 0.21198 0.5358 0.16066 0.0
C188 C 0.23742 0.49534 0.21003 0.0
C189 C 0.23184 0.51244 0.25511 0.0
C190 C 0.21971 0.54307 0.25114 0.0
C191 C 0.21023 0.55479 0.20409 0.0
H192 H 0.36508 0.26385 0.31363 0.0
H193 H 0.30683 0.18512 0.35351 0.0
H194 H 0.32839 0.29923 0.35656 0.0
H195 H 0.27008 0.22052 0.39568 0.0
H196 H 0.19686 0.30207 0.40816 0.0
H197 H 0.23327 0.26535 0.36814 0.0
H198 H 0.30963 0.30791 0.45017 0.0
H199 H 0.27318 0.34444 0.49088 0.0
C200 C 0.34436 0.25414 0.33116 0.0
C201 C 0.33884 0.2217 0.33015 0.0
C202 C 0.32351 0.27434 0.35606 0.0
C203 C 0.29649 0.26257 0.37961 0.0
C204 C 0.29068 0.23023 0.37771 0.0
C205 C 0.31176 0.20999 0.35365 0.0
C206 C 0.22136 0.30337 0.41812 0.0
C207 C 0.23213 0.32612 0.45275 0.0
C208 C 0.24217 0.28234 0.39523 0.0
C209 C 0.27428 0.28396 0.40579 0.0
C210 C 0.28502 0.30637 0.44099 0.0
C211 C 0.26412 0.32706 0.46461 0.0
H212 H 0.79494 0.31717 0.53626 0.0
H213 H 0.72191 0.3832 0.57379 0.0
H214 H 0.76573 0.27572 0.57911 0.0
H215 H 0.69265 0.34184 0.61576 0.0
H216 H 0.66268 0.26859 0.73138 0.0
H217 H 0.69462 0.30899 0.69145 0.0
H218 H 0.71809 0.24493 0.56946 0.0
H219 H 0.68663 0.20443 0.6097 0.0
C220 C 0.77261 0.32282 0.55337 0.0
C221 C 0.7608 0.35353 0.55153 0.0
C222 C 0.75582 0.29905 0.57782 0.0
C223 C 0.72689 0.30546 0.60115 0.0
C224 C 0.71507 0.33615 0.59899 0.0
C225 C 0.73178 0.35984 0.57449 0.0
C226 C 0.67483 0.26305 0.69624 0.0
C227 C 0.67198 0.23327 0.67371 0.0
C228 C 0.69299 0.28628 0.67315 0.0
C229 C 0.7088 0.28029 0.62704 0.0
C230 C 0.70649 0.25028 0.60517 0.0
C231 C 0.68829 0.22709 0.62817 0.0
H232 H 0.70694 0.63411 0.91561 0.0
H233 H 0.77998 0.69754 0.96301 0.0
H234 H 0.67953 0.67722 0.87486 0.0
H235 H 0.75269 0.74071 0.92136 0.0
H236 H 0.67679 0.81466 0.88661 0.0
H237 H 0.70568 0.77264 0.9279 0.0
H238 H 0.68501 0.71123 0.80113 0.0
H239 H 0.65557 0.75313 0.76016 0.0
C240 C 0.71714 0.65728 0.9175 0.0
C241 C 0.74571 0.66233 0.9426 0.0
C242 C 0.70153 0.68198 0.89368 0.0
C243 C 0.71403 0.71239 0.89434 0.0
C244 C 0.74229 0.71761 0.92037 0.0
C245 C 0.75797 0.69285 0.9442 0.0
C246 C 0.67856 0.79226 0.8673 0.0
C247 C 0.66373 0.78725 0.82011 0.0
C248 C 0.69526 0.76819 0.89095 0.0
C249 C 0.69752 0.73848 0.86804 0.0
C250 C 0.6833 0.73368 0.82026 0.0
C251 C 0.66662 0.75778 0.79655 0.0
H252 H 0.18457 0.6966 0.1433 0.0
H253 H 0.25698 0.6593 0.04579 0.0
H254 H 0.22184 0.73278 0.18114 0.0
H255 H 0.29465 0.69487 0.08483 0.0
H256 H 0.35017 0.7795 0.14035 0.0
H257 H 0.31159 0.7477 0.0959 0.0
H258 H 0.26455 0.73037 0.23893 0.0
H259 H 0.30258 0.76299 0.28308 0.0
C260 C 0.20845 0.69628 0.12966 0.0
C261 C 0.21783 0.67496 0.09168 0.0
C262 C 0.22992 0.71685 0.15175 0.0
C263 C 0.26145 0.71646 0.13677 0.0
C264 C 0.27055 0.69602 0.09717 0.0
C265 C 0.24895 0.67557 0.07474 0.0
C266 C 0.33157 0.76893 0.16235 0.0
C267 C 0.32947 0.77384 0.21536 0.0
C268 C 0.30949 0.75055 0.13682 0.0
C269 C 0.28481 0.73647 0.16366 0.0
C270 C 0.28285 0.7413 0.21676 0.0
C271 C 0.30483 0.75983 0.24224 0.0
H272 H 0.39257 0.94856 0.34476 0.0
H273 H 0.35258 0.91779 0.20221 0.0
H274 H 0.37489 1.00164 0.32821 0.0
H275 H 0.33509 0.97134 0.18502 0.0
H276 H 0.39471 0.06489 0.14785 0.0
H277 H 0.37525 0.01244 0.16402 0.0
H278 H 0.33593 0.04388 0.30702 0.0
H279 H 0.35524 0.09678 0.29029 0.0
C280 C 0.37872 0.95294 0.31094 0.0
C281 C 0.3743 0.92925 0.27446 0.0
C282 C 0.36842 0.98338 0.30146 0.0
C283 C 0.35402 0.99081 0.25485 0.0
C284 C 0.34633 0.96632 0.22109 0.0
C285 C 0.35619 0.93564 0.23106 0.0
C286 C 0.3806 0.06095 0.18154 0.0
C287 C 0.3769 0.08471 0.21817 0.0
C288 C 0.36928 0.03087 0.19079 0.0
C289 C 0.35451 0.02387 0.23729 0.0
C290 C 0.34746 0.04856 0.27107 0.0
C291 C 0.35837 0.07889 0.26135 0.0
H292 H 0.94943 0.4164 0.39563 0.0
H293 H 0.92164 0.36966 0.53408 0.0
H294 H 0.00377 0.40248 0.41195 0.0
H295 H 0.97637 0.35644 0.55124 0.0
H296 H 0.07176 0.41429 0.58992 0.0
H297 H 0.01747 0.40114 0.57163 0.0
H298 H 0.0457 0.35783 0.42992 0.0
H299 H 0.10049 0.37016 0.44932 0.0
C300 C 0.95488 0.40222 0.42867 0.0
C301 C 0.93142 0.39422 0.46372 0.0
C302 C 0.98596 0.39413 0.43791 0.0
C303 C 0.99426 0.37852 0.48299 0.0
C304 C 0.97053 0.36842 0.51615 0.0
C305 C 0.93925 0.37588 0.50624 0.0
C306 C 0.06645 0.40085 0.55588 0.0
C307 C 0.09014 0.39316 0.52105 0.0
C308 C 0.03543 0.39321 0.54547 0.0
C309 C 0.0274 0.3785 0.49933 0.0
C310 C 0.05134 0.36905 0.46586 0.0
C311 C 0.0826 0.37597 0.47701 0.0
H312 H 0.66133 0.9194 0.77977 0.0
H313 H 0.61846 0.95767 0.64478 0.0
H314 H 0.68267 0.97106 0.80057 0.0
H315 H 0.63971 0.00888 0.66501 0.0
H316 H 0.66391 0.10116 0.70988 0.0
H317 H 0.68022 0.04828 0.68558 0.0
H318 H 0.64794 0.0137 0.83099 0.0
H319 H 0.63173 0.06622 0.85488 0.0
C320 C 0.65779 0.93847 0.75322 0.0
C321 C 0.63788 0.93474 0.71108 0.0
C322 C 0.66984 0.9681 0.76529 0.0
C323 C 0.66246 0.99424 0.73497 0.0
C324 C 0.64603 0.98936 0.68919 0.0
C325 C 0.63366 0.95997 0.67761 0.0
C326 C 0.66184 0.08252 0.73762 0.0
C327 C 0.64602 0.08761 0.78388 0.0
C328 C 0.67097 0.05217 0.72354 0.0
C329 C 0.66471 0.02664 0.75582 0.0
C330 C 0.65315 0.03271 0.8051 0.0
C331 C 0.64371 0.06288 0.81884 0.0
H332 H 0.91017 0.62379 0.10821 0.0
H333 H 0.92835 0.61484 0.94717 0.0
H334 H 0.96546 0.63527 0.12327 0.0
H335 H 0.98348 0.62584 0.96172 0.0
H336 H 0.08316 0.64098 -0.00406 0.0
H337 H 0.02833 0.65755 -0.00826 0.0
H338 H 0.0065 0.59567 0.11687 0.0
H339 H 0.06067 0.57941 0.1209 0.0
C340 C 0.92583 0.62564 0.07589 0.0
C341 C 0.91528 0.61866 0.02659 0.0
C342 C 0.95746 0.63196 0.08443 0.0
C343 C 0.97896 0.63107 0.04376 0.0
C344 C 0.9676 0.62704 -0.00616 0.0
C345 C 0.93605 0.62065 -0.01458 0.0
C346 C 0.06672 0.63176 0.02346 0.0
C347 C 0.07598 0.60857 0.05822 0.0
C348 C 0.03536 0.64111 0.02095 0.0
C349 C 0.01298 0.62777 0.05371 0.0
C350 C 0.02304 0.60671 0.09138 0.0
C351 C 0.0541 0.59712 0.09339 0.0
H352 H 0.58713 0.22972 0.91954 0.0
H353 H 0.49645 0.19823 0.86963 0.0
H354 H 0.56414 0.24736 0.00037 0.0
H355 H 0.47379 0.2146 0.94969 0.0
H356 H 0.43505 0.22953 0.09792 0.0
H357 H 0.45818 0.24746 0.01764 0.0
H358 H 0.54852 0.21469 0.06828 0.0
H359 H 0.52573 0.19808 0.14795 0.0
C360 C 0.56219 0.22747 0.92521 0.0
C361 C 0.54371 0.21187 0.88904 0.0
C362 C 0.54899 0.23736 0.97157 0.0
C363 C 0.51718 0.23174 -0.01771 0.0
C364 C 0.49827 0.2195 0.94327 0.0
C365 C 0.51139 0.20968 0.89733 0.0
C366 C 0.46002 0.22737 0.09244 0.0
C367 C 0.47845 0.21165 0.12842 0.0
C368 C 0.4733 0.23742 0.04636 0.0
C369 C 0.50513 0.23178 0.0357 0.0
C370 C 0.52402 0.21955 0.07466 0.0
C371 C 0.51082 0.20961 0.12037 0.0
H372 H 0.78957 0.57817 0.16927 0.0
H373 H 0.76842 0.49473 0.08316 0.0
H374 H 0.7776 0.55071 0.24811 0.0
H375 H 0.75474 0.46742 0.16157 0.0
H376 H 0.80783 0.42298 0.30042 0.0
H377 H 0.7898 0.44714 0.22188 0.0
H378 H 0.74857 0.5228 0.3091 0.0
H379 H 0.76815 0.49897 0.38734 0.0
C380 C 0.78069 0.55445 0.16716 0.0
C381 C 0.78016 0.5384 0.12055 0.0
C382 C 0.77379 0.53855 0.21238 0.0
C383 C 0.76591 0.50644 0.21145 0.0
C384 C 0.76158 0.49178 0.1639 0.0
C385 C 0.76905 0.5075 0.11894 0.0
C386 C 0.79365 0.44396 0.30273 0.0
C387 C 0.78929 0.45917 0.34951 0.0
C388 C 0.78326 0.45799 0.25769 0.0
C389 C 0.76821 0.48742 0.2589 0.0
C390 C 0.76071 0.50059 0.30658 0.0
C391 C 0.77152 0.48677 0.35144 0.0
H392 H 0.5751 0.78663 0.58445 0.0
H393 H 0.48763 0.83018 0.62567 0.0
H394 H 0.55053 0.76485 0.50766 0.0
H395 H 0.46362 0.80979 0.54951 0.0
H396 H 0.42259 0.78804 0.40767 0.0
H397 H 0.44466 0.77313 0.49032 0.0
H398 H 0.53737 0.79151 0.43229 0.0
H399 H 0.51543 0.80494 0.35041 0.0
C400 C 0.55053 0.79095 0.57771 0.0
C401 C 0.53355 0.81088 0.61011 0.0
C402 C 0.53642 0.77858 0.53371 0.0
C403 C 0.50516 0.78601 0.52157 0.0
C404 C 0.48758 0.80325 0.55717 0.0
C405 C 0.50158 0.81549 0.60073 0.0
C406 C 0.44772 0.78738 0.41217 0.0
C407 C 0.4673 0.79843 0.37336 0.0
C408 C 0.46042 0.77916 0.4596 0.0
C409 C 0.49278 0.7822 0.46873 0.0
C410 C 0.51242 0.78895 0.42727 0.0
C411 C 0.49979 0.79699 0.38018 0.0
H412 H 0.15316 0.49327 0.89914 0.0
H413 H 0.22871 0.56016 0.89103 0.0
H414 H 0.17272 0.46698 0.82422 0.0
H415 H 0.24876 0.53315 0.81495 0.0
H416 H 0.22685 0.50674 0.64153 0.0
H417 H 0.23027 0.52763 0.72748 0.0
H418 H 0.21423 0.43503 0.78816 0.0
H419 H 0.20996 0.41426 0.70124 0.0
C420 C 0.17417 0.50232 0.88154 0.0
C421 C 0.18922 0.52906 0.90095 0.0
C422 C 0.18572 0.4868 0.83887 0.0
C423 C 0.21269 0.49752 0.81412 0.0
C424 C 0.228 0.52422 0.83345 0.0
C425 C 0.2164 0.53984 0.87664 0.0
C426 C 0.22529 0.49064 0.67331 0.0
C427 C 0.21741 0.45908 0.66508 0.0
C428 C 0.22741 0.5026 0.72264 0.0
C429 C 0.22159 0.48316 0.76459 0.0
C430 C 0.21806 0.45069 0.75635 0.0
C431 C 0.21595 0.43868 0.70672 0.0
loop_
_geom_bond_atom_site_label_1
_geom_bond_atom_site_label_2
_geom_bond_distance
_geom_bond_site_symmetry_2
_ccdc_geom_bond_type
Zn0 O3 2.031 . S
Zn0 O5 2.049 . S
Zn0 O10 2.067 . S
Zn1 O2 1.962 . S
Zn1 O4 1.986 . S
Zn1 O6 1.996 . S
Zn1 O9 1.943 . S
O2 Zn1 1.962 . S
O2 C7 1.254 . S
O3 Zn0 2.031 . S
O3 C7 1.269 . S
O4 Zn1 1.986 . S
O4 C11 1.262 . S
O5 Zn0 2.049 . S
O5 C13 1.260 . S
O6 Zn1 1.996 . S
O6 C13 1.257 . S
C7 O2 1.254 . S
C7 O3 1.269 . S
C8 O9 1.249 . S
C8 O10 1.270 . S
O9 Zn1 1.943 . S
O9 C8 1.249 . S
O10 Zn0 2.067 . S
O10 C8 1.270 . S
C11 O4 1.262 . S
C11 O12 1.232 . S
O12 C11 1.232 . S
C13 O5 1.260 . S
C13 O6 1.257 . S
Zn14 O17 2.031 . S
Zn14 O19 2.049 . S
Zn14 O24 2.067 . S
Zn15 O16 1.962 . S
Zn15 O18 1.986 . S
Zn15 O20 1.996 . S
Zn15 O23 1.943 . S
O16 Zn15 1.962 . S
O16 C21 1.254 . S
O17 Zn14 2.031 . S
O17 C21 1.269 . S
O18 Zn15 1.986 . S
O18 C25 1.262 . S
O19 Zn14 2.049 . S
O19 C27 1.260 . S
O20 Zn15 1.996 . S
O20 C27 1.257 . S
C21 O16 1.254 . S
C21 O17 1.269 . S
C22 O23 1.249 . S
C22 O24 1.270 . S
O23 Zn15 1.943 . S
O23 C22 1.249 . S
O24 Zn14 2.067 . S
O24 C22 1.270 . S
C25 O18 1.262 . S
C25 O26 1.232 . S
O26 C25 1.232 . S
C27 O19 1.260 . S
C27 O20 1.257 . S
Zn28 O31 2.031 . S
Zn28 O33 2.049 . S
Zn28 O38 2.067 . S
Zn29 O30 1.962 . S
Zn29 O32 1.986 . S
Zn29 O34 1.996 . S
Zn29 O37 1.943 . S
O30 Zn29 1.962 . S
O30 C35 1.254 . S
O31 Zn28 2.031 . S
O31 C35 1.269 . S
O32 Zn29 1.986 . S
O32 C39 1.262 . S
O33 Zn28 2.049 . S
O33 C41 1.260 . S
O34 Zn29 1.996 . S
O34 C41 1.257 . S
C35 O30 1.254 . S
C35 O31 1.269 . S
C36 O37 1.249 . S
C36 O38 1.270 . S
O37 Zn29 1.943 . S
O37 C36 1.249 . S
O38 Zn28 2.067 . S
O38 C36 1.270 . S
C39 O32 1.262 . S
C39 O40 1.232 . S
O40 C39 1.232 . S
C41 O33 1.260 . S
C41 O34 1.257 . S
Zn42 O45 2.031 1_554 S
Zn42 O47 2.049 . S
Zn42 O52 2.067 . S
Zn43 O44 1.962 1_554 S
Zn43 O46 1.986 . S
Zn43 O48 1.996 . S
Zn43 O51 1.943 . S
O44 Zn43 1.962 1_556 S
O44 C49 1.254 . S
O45 Zn42 2.031 1_556 S
O45 C49 1.269 . S
O46 Zn43 1.986 . S
O46 C53 1.262 . S
O47 Zn42 2.049 . S
O47 C55 1.260 . S
O48 Zn43 1.996 . S
O48 C55 1.257 . S
C49 O44 1.254 . S
C49 O45 1.269 . S
C50 O51 1.249 . S
C50 O52 1.270 . S
O51 Zn43 1.943 . S
O51 C50 1.249 . S
O52 Zn42 2.067 . S
O52 C50 1.270 . S
C53 O46 1.262 . S
C53 O54 1.232 . S
O54 C53 1.232 . S
C55 O47 1.260 . S
C55 O48 1.257 . S
Zn56 O59 2.031 . S
Zn56 O61 2.049 . S
Zn56 O66 2.067 . S
Zn57 O58 1.962 . S
Zn57 O60 1.986 . S
Zn57 O62 1.996 . S
Zn57 O65 1.943 . S
O58 Zn57 1.962 . S
O58 C63 1.254 . S
O59 Zn56 2.031 . S
O59 C63 1.269 . S
O60 Zn57 1.986 . S
O60 C67 1.262 . S
O61 Zn56 2.049 . S
O61 C69 1.260 . S
O62 Zn57 1.996 . S
O62 C69 1.257 . S
C63 O58 1.254 . S
C63 O59 1.269 . S
C64 O65 1.249 . S
C64 O66 1.270 . S
O65 Zn57 1.943 . S
O65 C64 1.249 . S
O66 Zn56 2.067 . S
O66 C64 1.270 . S
C67 O60 1.262 . S
C67 O68 1.232 . S
O68 C67 1.232 . S
C69 O61 1.260 . S
C69 O62 1.257 . S
Zn70 O73 2.031 . S
Zn70 O75 2.049 . S
Zn70 O80 2.067 . S
Zn71 O72 1.962 . S
Zn71 O74 1.986 . S
Zn71 O76 1.996 . S
Zn71 O79 1.943 . S
O72 Zn71 1.962 . S
O72 C77 1.254 . S
O73 Zn70 2.031 . S
O73 C77 1.269 . S
O74 Zn71 1.986 . S
O74 C81 1.262 . S
O75 Zn70 2.049 . S
O75 C83 1.260 . S
O76 Zn71 1.996 . S
O76 C83 1.257 . S
C77 O72 1.254 . S
C77 O73 1.269 . S
C78 O79 1.249 . S
C78 O80 1.270 . S
O79 Zn71 1.943 . S
O79 C78 1.249 . S
O80 Zn70 2.067 . S
O80 C78 1.270 . S
C81 O74 1.262 . S
C81 O82 1.232 . S
O82 C81 1.232 . S
C83 O75 1.260 . S
C83 O76 1.257 . S
Zn84 O87 2.031 . S
Zn84 O89 2.049 . S
Zn84 O94 2.067 . S
Zn85 O86 1.962 . S
Zn85 O88 1.986 . S
Zn85 O90 1.996 . S
Zn85 O93 1.943 . S
O86 Zn85 1.962 . S
O86 C91 1.254 . S
O87 Zn84 2.031 . S
O87 C91 1.269 . S
O88 Zn85 1.986 . S
O88 C95 1.262 . S
O89 Zn84 2.049 . S
O89 C97 1.260 . S
O90 Zn85 1.996 . S
O90 C97 1.257 . S
C91 O86 1.254 . S
C91 O87 1.269 . S
C92 O93 1.249 . S
C92 O94 1.270 . S
O93 Zn85 1.943 . S
O93 C92 1.249 . S
O94 Zn84 2.067 . S
O94 C92 1.270 . S
C95 O88 1.262 . S
C95 O96 1.232 . S
O96 C95 1.232 . S
C97 O89 1.260 . S
C97 O90 1.257 . S
Zn98 O101 2.031 . S
Zn98 O103 2.049 1_554 S
Zn98 O108 2.067 . S
Zn99 O100 1.962 . S
Zn99 O102 1.986 1_554 S
Zn99 O104 1.996 1_554 S
Zn99 O107 1.943 . S
O100 Zn99 1.962 . S
O100 C105 1.254 . S
O101 Zn98 2.031 . S
O101 C105 1.269 . S
O102 Zn99 1.986 1_556 S
O102 C109 1.262 1_556 S
O103 Zn98 2.049 1_556 S
O103 C111 1.260 . S
O104 Zn99 1.996 1_556 S
O104 C111 1.257 . S
C105 O100 1.254 . S
C105 O101 1.269 . S
C106 O107 1.249 . S
C106 O108 1.270 . S
O107 Zn99 1.943 . S
O107 C106 1.249 . S
O108 Zn98 2.067 . S
O108 C106 1.270 . S
C109 O102 1.262 1_554 S
C109 O110 1.232 . S
O110 C109 1.232 . S
C111 O103 1.260 . S
C111 O104 1.257 . S
H112 C120 0.950 . S
H113 C125 0.950 . S
H114 C122 0.950 . S
H115 C124 0.950 . S
H116 C126 0.950 . S
H117 C128 0.950 . S
H118 C130 0.950 . S
H119 C131 0.950 . S
C120 H112 0.950 . S
C120 C121 1.386 . S
C120 C122 1.391 . S
C121 C120 1.386 . S
C121 C125 1.393 . S
C122 H114 0.950 . S
C122 C120 1.391 . S
C122 C123 1.400 . S
C123 C122 1.400 . S
C123 C124 1.398 . S
C123 C129 1.491 . S
C124 H115 0.950 . S
C124 C123 1.398 . S
C124 C125 1.391 . S
C125 H113 0.950 . S
C125 C121 1.393 . S
C125 C124 1.391 . S
C126 H116 0.950 . S
C126 C127 1.386 . S
C126 C128 1.391 . S
C127 C126 1.386 . S
C127 C131 1.393 . S
C128 H117 0.950 . S
C128 C126 1.391 . S
C128 C129 1.400 . S
C129 C123 1.491 . S
C129 C128 1.400 . S
C129 C130 1.398 . S
C130 H118 0.950 . S
C130 C129 1.398 . S
C130 C131 1.391 . S
C131 H119 0.950 . S
C131 C127 1.393 . S
C131 C130 1.391 . S
H132 C140 0.950 . S
H133 C145 0.950 . S
H134 C142 0.950 . S
H135 C144 0.950 . S
H136 C146 0.950 . S
H137 C148 0.950 . S
H138 C150 0.950 . S
H139 C151 0.950 . S
C140 H132 0.950 . S
C140 C141 1.386 . S
C140 C142 1.391 . S
C141 C140 1.386 . S
C141 C145 1.393 . S
C142 H134 0.950 . S
C142 C140 1.391 . S
C142 C143 1.400 . S
C143 C142 1.400 . S
C143 C144 1.398 . S
C143 C149 1.491 . S
C144 H135 0.950 . S
C144 C143 1.398 . S
C144 C145 1.391 . S
C145 H133 0.950 . S
C145 C141 1.393 . S
C145 C144 1.391 . S
C146 H136 0.950 . S
C146 C147 1.386 . S
C146 C148 1.391 . S
C147 C146 1.386 . S
C147 C151 1.393 . S
C148 H137 0.950 . S
C148 C146 1.391 . S
C148 C149 1.400 . S
C149 C143 1.491 . S
C149 C148 1.400 . S
C149 C150 1.398 . S
C150 H138 0.950 . S
C150 C149 1.398 . S
C150 C151 1.391 . S
C151 H139 0.950 . S
C151 C147 1.393 . S
C151 C150 1.391 . S
H152 C160 0.950 . S
H153 C165 0.950 . S
H154 C162 0.950 . S
H155 C164 0.950 . S
H156 C166 0.950 . S
H157 C168 0.950 1_554 S
H158 C170 0.950 . S
H159 C171 0.950 . S
C160 H152 0.950 . S
C160 C161 1.386 . S
C160 C162 1.391 . S
C161 C160 1.386 . S
C161 C165 1.393 . S
C162 H154 0.950 . S
C162 C160 1.391 . S
C162 C163 1.400 . S
C163 C162 1.400 . S
C163 C164 1.398 . S
C163 C169 1.491 . S
C164 H155 0.950 . S
C164 C163 1.398 . S
C164 C165 1.391 . S
C165 H153 0.950 . S
C165 C161 1.393 . S
C165 C164 1.391 . S
C166 H156 0.950 . S
C166 C167 1.386 . S
C166 C168 1.391 . S
C167 C166 1.386 . S
C167 C171 1.393 . S
C168 H157 0.950 1_556 S
C168 C166 1.391 . S
C168 C169 1.400 1_556 S
C169 C163 1.491 . S
C169 C168 1.400 1_554 S
C169 C170 1.398 1_554 S
C170 H158 0.950 . S
C170 C169 1.398 1_556 S
C170 C171 1.391 . S
C171 H159 0.950 . S
C171 C167 1.393 . S
C171 C170 1.391 . S
H172 C180 0.950 . S
H173 C185 0.950 . S
H174 C182 0.950 . S
H175 C184 0.950 . S
H176 C186 0.950 . S
H177 C188 0.950 . S
H178 C190 0.950 . S
H179 C191 0.950 . S
C180 H172 0.950 . S
C180 C181 1.386 . S
C180 C182 1.391 . S
C181 C180 1.386 . S
C181 C185 1.393 . S
C182 H174 0.950 . S
C182 C180 1.391 . S
C182 C183 1.400 . S
C183 C182 1.400 . S
C183 C184 1.398 . S
C183 C189 1.491 . S
C184 H175 0.950 . S
C184 C183 1.398 . S
C184 C185 1.391 . S
C185 H173 0.950 . S
C185 C181 1.393 . S
C185 C184 1.391 . S
C186 H176 0.950 . S
C186 C187 1.386 . S
C186 C188 1.391 . S
C187 C186 1.386 . S
C187 C191 1.393 . S
C188 H177 0.950 . S
C188 C186 1.391 . S
C188 C189 1.400 . S
C189 C183 1.491 . S
C189 C188 1.400 . S
C189 C190 1.398 . S
C190 H178 0.950 . S
C190 C189 1.398 . S
C190 C191 1.391 . S
C191 H179 0.950 . S
C191 C187 1.393 . S
C191 C190 1.391 . S
H192 C200 0.950 . S
H193 C205 0.950 . S
H194 C202 0.950 . S
H195 C204 0.950 . S
H196 C206 0.950 . S
H197 C208 0.950 . S
H198 C210 0.950 . S
H199 C211 0.950 . S
C200 H192 0.950 . S
C200 C201 1.386 . S
C200 C202 1.391 . S
C201 C200 1.386 . S
C201 C205 1.393 . S
C202 H194 0.950 . S
C202 C200 1.391 . S
C202 C203 1.400 . S
C203 C202 1.400 . S
C203 C204 1.398 . S
C203 C209 1.491 . S
C204 H195 0.950 . S
C204 C203 1.398 . S
C204 C205 1.391 . S
C205 H193 0.950 . S
C205 C201 1.393 . S
C205 C204 1.391 . S
C206 H196 0.950 . S
C206 C207 1.386 . S
C206 C208 1.391 . S
C207 C206 1.386 . S
C207 C211 1.393 . S
C208 H197 0.950 . S
C208 C206 1.391 . S
C208 C209 1.400 . S
C209 C203 1.491 . S
C209 C208 1.400 . S
C209 C210 1.398 . S
C210 H198 0.950 . S
C210 C209 1.398 . S
C210 C211 1.391 . S
C211 H199 0.950 . S
C211 C207 1.393 . S
C211 C210 1.391 . S
H212 C220 0.950 . S
H213 C225 0.950 . S
H214 C222 0.950 . S
H215 C224 0.950 . S
H216 C226 0.950 . S
H217 C228 0.950 . S
H218 C230 0.950 . S
H219 C231 0.950 . S
C220 H212 0.950 . S
C220 C221 1.386 . S
C220 C222 1.391 . S
C221 C220 1.386 . S
C221 C225 1.393 . S
C222 H214 0.950 . S
C222 C220 1.391 . S
C222 C223 1.400 . S
C223 C222 1.400 . S
C223 C224 1.398 . S
C223 C229 1.491 . S
C224 H215 0.950 . S
C224 C223 1.398 . S
C224 C225 1.391 . S
C225 H213 0.950 . S
C225 C221 1.393 . S
C225 C224 1.391 . S
C226 H216 0.950 . S
C226 C227 1.386 . S
C226 C228 1.391 . S
C227 C226 1.386 . S
C227 C231 1.393 . S
C228 H217 0.950 . S
C228 C226 1.391 . S
C228 C229 1.400 . S
C229 C223 1.491 . S
C229 C228 1.400 . S
C229 C230 1.398 . S
C230 H218 0.950 . S
C230 C229 1.398 . S
C230 C231 1.391 . S
C231 H219 0.950 . S
C231 C227 1.393 . S
C231 C230 1.391 . S
H232 C240 0.950 . S
H233 C245 0.950 . S
H234 C242 0.950 . S
H235 C244 0.950 . S
H236 C246 0.950 . S
H237 C248 0.950 . S
H238 C250 0.950 . S
H239 C251 0.950 . S
C240 H232 0.950 . S
C240 C241 1.386 1_554 S
C240 C242 1.391 1_554 S
C241 C240 1.386 1_556 S
C241 C245 1.393 . S
C242 H234 0.950 . S
C242 C240 1.391 1_556 S
C242 C243 1.400 . S
C243 C242 1.400 . S
C243 C244 1.398 . S
C243 C249 1.491 . S
C244 H235 0.950 . S
C244 C243 1.398 . S
C244 C245 1.391 . S
C245 H233 0.950 . S
C245 C241 1.393 . S
C245 C244 1.391 . S
C246 H236 0.950 . S
C246 C247 1.386 . S
C246 C248 1.391 . S
C247 C246 1.386 . S
C247 C251 1.393 . S
C248 H237 0.950 . S
C248 C246 1.391 . S
C248 C249 1.400 . S
C249 C243 1.491 . S
C249 C248 1.400 . S
C249 C250 1.398 . S
C250 H238 0.950 . S
C250 C249 1.398 . S
C250 C251 1.391 . S
C251 H239 0.950 . S
C251 C247 1.393 . S
C251 C250 1.391 . S
H252 C260 0.950 . S
H253 C265 0.950 . S
H254 C262 0.950 . S
H255 C264 0.950 . S
H256 C266 0.950 . S
H257 C268 0.950 . S
H258 C270 0.950 . S
H259 C271 0.950 . S
C260 H252 0.950 . S
C260 C261 1.386 . S
C260 C262 1.391 . S
C261 C260 1.386 . S
C261 C265 1.393 . S
C262 H254 0.950 . S
C262 C260 1.391 . S
C262 C263 1.400 . S
C263 C262 1.400 . S
C263 C264 1.398 . S
C263 C269 1.491 . S
C264 H255 0.950 . S
C264 C263 1.398 . S
C264 C265 1.391 . S
C265 H253 0.950 . S
C265 C261 1.393 . S
C265 C264 1.391 . S
C266 H256 0.950 . S
C266 C267 1.386 . S
C266 C268 1.391 . S
C267 C266 1.386 . S
C267 C271 1.393 . S
C268 H257 0.950 . S
C268 C266 1.391 . S
C268 C269 1.400 . S
C269 C263 1.491 . S
C269 C268 1.400 . S
C269 C270 1.398 . S
C270 H258 0.950 . S
C270 C269 1.398 . S
C270 C271 1.391 . S
C271 H259 0.950 . S
C271 C267 1.393 . S
C271 C270 1.391 . S
H272 C280 0.950 . S
H273 C285 0.950 . S
H274 C282 0.950 . S
H275 C284 0.950 . S
H276 C286 0.950 . S
H277 C288 0.950 . S
H278 C290 0.950 . S
H279 C291 0.950 . S
C280 H272 0.950 . S
C280 C281 1.386 . S
C280 C282 1.391 . S
C281 C280 1.386 . S
C281 C285 1.393 . S
C282 H274 0.950 . S
C282 C280 1.391 . S
C282 C283 1.400 . S
C283 C282 1.400 . S
C283 C284 1.398 . S
C283 C289 1.491 1_565 S
C284 H275 0.950 . S
C284 C283 1.398 . S
C284 C285 1.391 . S
C285 H273 0.950 . S
C285 C281 1.393 . S
C285 C284 1.391 . S
C286 H276 0.950 . S
C286 C287 1.386 . S
C286 C288 1.391 . S
C287 C286 1.386 . S
C287 C291 1.393 . S
C288 H277 0.950 . S
C288 C286 1.391 . S
C288 C289 1.400 . S
C289 C283 1.491 1_545 S
C289 C288 1.400 . S
C289 C290 1.398 . S
C290 H278 0.950 . S
C290 C289 1.398 . S
C290 C291 1.391 . S
C291 H279 0.950 . S
C291 C287 1.393 . S
C291 C290 1.391 . S
H292 C300 0.950 . S
H293 C305 0.950 . S
H294 C302 0.950 . S
H295 C304 0.950 . S
H296 C306 0.950 . S
H297 C308 0.950 . S
H298 C310 0.950 . S
H299 C311 0.950 . S
C300 H292 0.950 . S
C300 C301 1.386 . S
C300 C302 1.391 . S
C301 C300 1.386 . S
C301 C305 1.393 . S
C302 H294 0.950 . S
C302 C300 1.391 . S
C302 C303 1.400 . S
C303 C302 1.400 . S
C303 C304 1.398 . S
C303 C309 1.491 1_655 S
C304 H295 0.950 . S
C304 C303 1.398 . S
C304 C305 1.391 . S
C305 H293 0.950 . S
C305 C301 1.393 . S
C305 C304 1.391 . S
C306 H296 0.950 . S
C306 C307 1.386 . S
C306 C308 1.391 . S
C307 C306 1.386 . S
C307 C311 1.393 . S
C308 H297 0.950 . S
C308 C306 1.391 . S
C308 C309 1.400 . S
C309 C303 1.491 1_455 S
C309 C308 1.400 . S
C309 C310 1.398 . S
C310 H298 0.950 . S
C310 C309 1.398 . S
C310 C311 1.391 . S
C311 H299 0.950 . S
C311 C307 1.393 . S
C311 C310 1.391 . S
H312 C320 0.950 . S
H313 C325 0.950 . S
H314 C322 0.950 . S
H315 C324 0.950 . S
H316 C326 0.950 . S
H317 C328 0.950 . S
H318 C330 0.950 . S
H319 C331 0.950 . S
C320 H312 0.950 . S
C320 C321 1.386 . S
C320 C322 1.391 . S
C321 C320 1.386 . S
C321 C325 1.393 . S
C322 H314 0.950 . S
C322 C320 1.391 . S
C322 C323 1.400 . S
C323 C322 1.400 . S
C323 C324 1.398 . S
C323 C329 1.491 1_565 S
C324 H315 0.950 . S
C324 C323 1.398 . S
C324 C325 1.391 . S
C325 H313 0.950 . S
C325 C321 1.393 . S
C325 C324 1.391 . S
C326 H316 0.950 . S
C326 C327 1.386 . S
C326 C328 1.391 . S
C327 C326 1.386 . S
C327 C331 1.393 . S
C328 H317 0.950 . S
C328 C326 1.391 . S
C328 C329 1.400 . S
C329 C323 1.491 1_545 S
C329 C328 1.400 . S
C329 C330 1.398 . S
C330 H318 0.950 . S
C330 C329 1.398 . S
C330 C331 1.391 . S
C331 H319 0.950 . S
C331 C327 1.393 . S
C331 C330 1.391 . S
H332 C340 0.950 . S
H333 C345 0.950 1_556 S
H334 C342 0.950 . S
H335 C344 0.950 1_556 S
H336 C346 0.950 . S
H337 C348 0.950 . S
H338 C350 0.950 . S
H339 C351 0.950 . S
C340 H332 0.950 . S
C340 C341 1.386 . S
C340 C342 1.391 . S
C341 C340 1.386 . S
C341 C345 1.393 . S
C342 H334 0.950 . S
C342 C340 1.391 . S
C342 C343 1.400 . S
C343 C342 1.400 . S
C343 C344 1.398 . S
C343 C349 1.491 1_655 S
C344 H335 0.950 1_554 S
C344 C343 1.398 . S
C344 C345 1.391 . S
C345 H333 0.950 1_554 S
C345 C341 1.393 . S
C345 C344 1.391 . S
C346 H336 0.950 . S
C346 C347 1.386 . S
C346 C348 1.391 . S
C347 C346 1.386 . S
C347 C351 1.393 . S
C348 H337 0.950 . S
C348 C346 1.391 . S
C348 C349 1.400 . S
C349 C343 1.491 1_455 S
C349 C348 1.400 . S
C349 C350 1.398 . S
C350 H338 0.950 . S
C350 C349 1.398 . S
C350 C351 1.391 . S
C351 H339 0.950 . S
C351 C347 1.393 . S
C351 C350 1.391 . S
H352 C360 0.950 . S
H353 C365 0.950 . S
H354 C362 0.950 . S
H355 C364 0.950 . S
H356 C366 0.950 . S
H357 C368 0.950 . S
H358 C370 0.950 . S
H359 C371 0.950 . S
C360 H352 0.950 . S
C360 C361 1.386 . S
C360 C362 1.391 1_556 S
C361 C360 1.386 . S
C361 C365 1.393 . S
C362 H354 0.950 . S
C362 C360 1.391 1_554 S
C362 C363 1.400 . S
C363 C362 1.400 . S
C363 C364 1.398 1_554 S
C363 C369 1.491 . S
C364 H355 0.950 . S
C364 C363 1.398 1_556 S
C364 C365 1.391 . S
C365 H353 0.950 . S
C365 C361 1.393 . S
C365 C364 1.391 . S
C366 H356 0.950 . S
C366 C367 1.386 . S
C366 C368 1.391 . S
C367 C366 1.386 . S
C367 C371 1.393 . S
C368 H357 0.950 . S
C368 C366 1.391 . S
C368 C369 1.400 . S
C369 C363 1.491 . S
C369 C368 1.400 . S
C369 C370 1.398 . S
C370 H358 0.950 . S
C370 C369 1.398 . S
C370 C371 1.391 . S
C371 H359 0.950 . S
C371 C367 1.393 . S
C371 C370 1.391 . S
H372 C380 0.950 . S
H373 C385 0.950 . S
H374 C382 0.950 . S
H375 C384 0.950 . S
H376 C386 0.950 . S
H377 C388 0.950 . S
H378 C390 0.950 . S
H379 C391 0.950 . S
C380 H372 0.950 . S
C380 C381 1.386 . S
C380 C382 1.391 . S
C381 C380 1.386 . S
C381 C385 1.393 . S
C382 H374 0.950 . S
C382 C380 1.391 . S
C382 C383 1.400 . S
C383 C382 1.400 . S
C383 C384 1.398 . S
C383 C389 1.491 . S
C384 H375 0.950 . S
C384 C383 1.398 . S
C384 C385 1.391 . S
C385 H373 0.950 . S
C385 C381 1.393 . S
C385 C384 1.391 . S
C386 H376 0.950 . S
C386 C387 1.386 . S
C386 C388 1.391 . S
C387 C386 1.386 . S
C387 C391 1.393 . S
C388 H377 0.950 . S
C388 C386 1.391 . S
C388 C389 1.400 . S
C389 C383 1.491 . S
C389 C388 1.400 . S
C389 C390 1.398 . S
C390 H378 0.950 . S
C390 C389 1.398 . S
C390 C391 1.391 . S
C391 H379 0.950 . S
C391 C387 1.393 . S
C391 C390 1.391 . S
H392 C400 0.950 . S
H393 C405 0.950 . S
H394 C402 0.950 . S
H395 C404 0.950 . S
H396 C406 0.950 . S
H397 C408 0.950 . S
H398 C410 0.950 . S
H399 C411 0.950 . S
C400 H392 0.950 . S
C400 C401 1.386 . S
C400 C402 1.391 . S
C401 C400 1.386 . S
C401 C405 1.393 . S
C402 H394 0.950 . S
C402 C400 1.391 . S
C402 C403 1.400 . S
C403 C402 1.400 . S
C403 C404 1.398 . S
C403 C409 1.491 . S
C404 H395 0.950 . S
C404 C403 1.398 . S
C404 C405 1.391 . S
C405 H393 0.950 . S
C405 C401 1.393 . S
C405 C404 1.391 . S
C406 H396 0.950 . S
C406 C407 1.386 . S
C406 C408 1.391 . S
C407 C406 1.386 . S
C407 C411 1.393 . S
C408 H397 0.950 . S
C408 C406 1.391 . S
C408 C409 1.400 . S
C409 C403 1.491 . S
C409 C408 1.400 . S
C409 C410 1.398 . S
C410 H398 0.950 . S
C410 C409 1.398 . S
C410 C411 1.391 . S
C411 H399 0.950 . S
C411 C407 1.393 . S
C411 C410 1.391 . S
H412 C420 0.950 . S
H413 C425 0.950 . S
H414 C422 0.950 . S
H415 C424 0.950 . S
H416 C426 0.950 . S
H417 C428 0.950 . S
H418 C430 0.950 . S
H419 C431 0.950 . S
C420 H412 0.950 . S
C420 C421 1.386 . S
C420 C422 1.391 . S
C421 C420 1.386 . S
C421 C425 1.393 . S
C422 H414 0.950 . S
C422 C420 1.391 . S
C422 C423 1.400 . S
C423 C422 1.400 . S
C423 C424 1.398 . S
C423 C429 1.491 . S
C424 H415 0.950 . S
C424 C423 1.398 . S
C424 C425 1.391 . S
C425 H413 0.950 . S
C425 C421 1.393 . S
C425 C424 1.391 . S
C426 H416 0.950 . S
C426 C427 1.386 . S
C426 C428 1.391 . S
C427 C426 1.386 . S
C427 C431 1.393 . S
C428 H417 0.950 . S
C428 C426 1.391 . S
C428 C429 1.400 . S
C429 C423 1.491 . S
C429 C428 1.400 . S
C429 C430 1.398 . S
C430 H418 0.950 . S
C430 C429 1.398 . S
C430 C431 1.391 . S
C431 H419 0.950 . S
C431 C427 1.393 . S
C431 C430 1.391 . S
C121 C13 0.838 . S
C127 C97 0.862 . S
C141 C27 0.892 . S
C147 C111 0.867 . S
C161 C69 0.840 . S
C167 C41 0.845 . S
C181 C83 0.889 . S
C187 C55 0.859 . S
C201 C11 1.384 . S
C207 C81 1.377 . S
C221 C25 1.373 . S
C227 C95 1.382 . S
C241 C109 1.382 1_556 S
C247 C39 1.373 . S
C261 C53 1.370 . S
C267 C67 1.374 . S
C281 C64 1.209 . S
C287 C8 1.224 . S
C301 C22 1.208 . S
C307 C78 1.227 . S
C321 C36 1.240 . S
C327 C92 1.207 . S
C341 C106 1.212 . S
C347 C50 1.221 . S
C361 C91 1.645 . S
C367 C7 1.636 . S
C381 C105 1.635 . S
C387 C21 1.627 . S
C401 C35 1.630 . S
C407 C63 1.625 . S
C421 C49 1.640 . S
C427 C77 1.646 . S
