# Generated by pormake.
# Topology uke, (4)-cn, num edge types: 1
# Building blocks:
#     Node 0, Type 0, BuildingBlock: QUQFOY_clean_sbu_3, # of connection points: 4
#     Node 1, Type 0, BuildingBlock: QUQFOY_clean_sbu_3, # of connection points: 4
#     Node 2, Type 0, BuildingBlock: QUQFOY_clean_sbu_3, # of connection points: 4
#     Node 3, Type 0, BuildingBlock: QUQFOY_clean_sbu_3, # of connection points: 4
#     Node 4, Type 0, BuildingBlock: QUQFOY_clean_sbu_3, # of connection points: 4
#     Node 5, Type 0, BuildingBlock: QUQFOY_clean_sbu_3, # of connection points: 4
#     Node 6, Type 0, BuildingBlock: QUQFOY_clean_sbu_3, # of connection points: 4
#     Node 7, Type 0, BuildingBlock: QUQFOY_clean_sbu_3, # of connection points: 4
#     Node 8, Type 0, BuildingBlock: QUQFOY_clean_sbu_3, # of connection points: 4
#     Node 9, Type 0, BuildingBlock: QUQFOY_clean_sbu_3, # of connection points: 4
#     Node 10, Type 0, BuildingBlock: QUQFOY_clean_sbu_3, # of connection points: 4
#     Node 11, Type 0, BuildingBlock: QUQFOY_clean_sbu_3, # of connection points: 4
#     Node 12, Type 0, BuildingBlock: QUQFOY_clean_sbu_3, # of connection points: 4
#     Node 13, Type 0, BuildingBlock: QUQFOY_clean_sbu_3, # of connection points: 4
#     Node 14, Type 0, BuildingBlock: QUQFOY_clean_sbu_3, # of connection points: 4
#     Node 15, Type 0, BuildingBlock: QUQFOY_clean_sbu_3, # of connection points: 4
#     Node 16, Type 0, BuildingBlock: QUQFOY_clean_sbu_3, # of connection points: 4
#     Node 17, Type 0, BuildingBlock: QUQFOY_clean_sbu_3, # of connection points: 4
#     Node 18, Type 0, BuildingBlock: QUQFOY_clean_sbu_3, # of connection points: 4
#     Node 19, Type 0, BuildingBlock: QUQFOY_clean_sbu_3, # of connection points: 4
#     Node 20, Type 0, BuildingBlock: QUQFOY_clean_sbu_3, # of connection points: 4
#     Node 21, Type 0, BuildingBlock: QUQFOY_clean_sbu_3, # of connection points: 4
#     Node 22, Type 0, BuildingBlock: QUQFOY_clean_sbu_3, # of connection points: 4
#     Node 23, Type 0, BuildingBlock: QUQFOY_clean_sbu_3, # of connection points: 4
#     Node 24, Type 0, BuildingBlock: QUQFOY_clean_sbu_3, # of connection points: 4
#     Node 25, Type 0, BuildingBlock: QUQFOY_clean_sbu_3, # of connection points: 4
#     Node 26, Type 0, BuildingBlock: QUQFOY_clean_sbu_3, # of connection points: 4
#     Node 27, Type 0, BuildingBlock: QUQFOY_clean_sbu_3, # of connection points: 4
#     Node 28, Type 0, BuildingBlock: QUQFOY_clean_sbu_3, # of connection points: 4
#     Node 29, Type 0, BuildingBlock: QUQFOY_clean_sbu_3, # of connection points: 4
#     Node 30, Type 0, BuildingBlock: QUQFOY_clean_sbu_3, # of connection points: 4
#     Node 31, Type 0, BuildingBlock: QUQFOY_clean_sbu_3, # of connection points: 4
#     Edge 32, Type (0, 0), BuildingBlock: ZUJKAS_clean_linker_0, # of connection points: 2
#     Edge 33, Type (0, 0), BuildingBlock: ZUJKAS_clean_linker_0, # of connection points: 2
#     Edge 34, Type (0, 0), BuildingBlock: ZUJKAS_clean_linker_0, # of connection points: 2
#     Edge 35, Type (0, 0), BuildingBlock: ZUJKAS_clean_linker_0, # of connection points: 2
#     Edge 36, Type (0, 0), BuildingBlock: ZUJKAS_clean_linker_0, # of connection points: 2
#     Edge 37, Type (0, 0), BuildingBlock: ZUJKAS_clean_linker_0, # of connection points: 2
#     Edge 38, Type (0, 0), BuildingBlock: ZUJKAS_clean_linker_0, # of connection points: 2
#     Edge 39, Type (0, 0), BuildingBlock: ZUJKAS_clean_linker_0, # of connection points: 2
#     Edge 40, Type (0, 0), BuildingBlock: ZUJKAS_clean_linker_0, # of connection points: 2
#     Edge 41, Type (0, 0), BuildingBlock: ZUJKAS_clean_linker_0, # of connection points: 2
#     Edge 42, Type (0, 0), BuildingBlock: ZUJKAS_clean_linker_0, # of connection points: 2
#     Edge 43, Type (0, 0), BuildingBlock: ZUJKAS_clean_linker_0, # of connection points: 2
#     Edge 44, Type (0, 0), BuildingBlock: ZUJKAS_clean_linker_0, # of connection points: 2
#     Edge 45, Type (0, 0), BuildingBlock: ZUJKAS_clean_linker_0, # of connection points: 2
#     Edge 46, Type (0, 0), BuildingBlock: ZUJKAS_clean_linker_0, # of connection points: 2
#     Edge 47, Type (0, 0), BuildingBlock: ZUJKAS_clean_linker_0, # of connection points: 2
#     Edge 48, Type (0, 0), BuildingBlock: ZUJKAS_clean_linker_0, # of connection points: 2
#     Edge 49, Type (0, 0), BuildingBlock: ZUJKAS_clean_linker_0, # of connection points: 2
#     Edge 50, Type (0, 0), BuildingBlock: ZUJKAS_clean_linker_0, # of connection points: 2
#     Edge 51, Type (0, 0), BuildingBlock: ZUJKAS_clean_linker_0, # of connection points: 2
#     Edge 52, Type (0, 0), BuildingBlock: ZUJKAS_clean_linker_0, # of connection points: 2
#     Edge 53, Type (0, 0), BuildingBlock: ZUJKAS_clean_linker_0, # of connection points: 2
#     Edge 54, Type (0, 0), BuildingBlock: ZUJKAS_clean_linker_0, # of connection points: 2
#     Edge 55, Type (0, 0), BuildingBlock: ZUJKAS_clean_linker_0, # of connection points: 2
#     Edge 56, Type (0, 0), BuildingBlock: ZUJKAS_clean_linker_0, # of connection points: 2
#     Edge 57, Type (0, 0), BuildingBlock: ZUJKAS_clean_linker_0, # of connection points: 2
#     Edge 58, Type (0, 0), BuildingBlock: ZUJKAS_clean_linker_0, # of connection points: 2
#     Edge 59, Type (0, 0), BuildingBlock: ZUJKAS_clean_linker_0, # of connection points: 2
#     Edge 60, Type (0, 0), BuildingBlock: ZUJKAS_clean_linker_0, # of connection points: 2
#     Edge 61, Type (0, 0), BuildingBlock: ZUJKAS_clean_linker_0, # of connection points: 2
#     Edge 62, Type (0, 0), BuildingBlock: ZUJKAS_clean_linker_0, # of connection points: 2
#     Edge 63, Type (0, 0), BuildingBlock: ZUJKAS_clean_linker_0, # of connection points: 2
#     Edge 64, Type (0, 0), BuildingBlock: ZUJKAS_clean_linker_0, # of connection points: 2
#     Edge 65, Type (0, 0), BuildingBlock: ZUJKAS_clean_linker_0, # of connection points: 2
#     Edge 66, Type (0, 0), BuildingBlock: ZUJKAS_clean_linker_0, # of connection points: 2
#     Edge 67, Type (0, 0), BuildingBlock: ZUJKAS_clean_linker_0, # of connection points: 2
#     Edge 68, Type (0, 0), BuildingBlock: ZUJKAS_clean_linker_0, # of connection points: 2
#     Edge 69, Type (0, 0), BuildingBlock: ZUJKAS_clean_linker_0, # of connection points: 2
#     Edge 70, Type (0, 0), BuildingBlock: ZUJKAS_clean_linker_0, # of connection points: 2
#     Edge 71, Type (0, 0), BuildingBlock: ZUJKAS_clean_linker_0, # of connection points: 2
#     Edge 72, Type (0, 0), BuildingBlock: ZUJKAS_clean_linker_0, # of connection points: 2
#     Edge 73, Type (0, 0), BuildingBlock: ZUJKAS_clean_linker_0, # of connection points: 2
#     Edge 74, Type (0, 0), BuildingBlock: ZUJKAS_clean_linker_0, # of connection points: 2
#     Edge 75, Type (0, 0), BuildingBlock: ZUJKAS_clean_linker_0, # of connection points: 2
#     Edge 76, Type (0, 0), BuildingBlock: ZUJKAS_clean_linker_0, # of connection points: 2
#     Edge 77, Type (0, 0), BuildingBlock: ZUJKAS_clean_linker_0, # of connection points: 2
#     Edge 78, Type (0, 0), BuildingBlock: ZUJKAS_clean_linker_0, # of connection points: 2
#     Edge 79, Type (0, 0), BuildingBlock: ZUJKAS_clean_linker_0, # of connection points: 2
#     Edge 80, Type (0, 0), BuildingBlock: ZUJKAS_clean_linker_0, # of connection points: 2
#     Edge 81, Type (0, 0), BuildingBlock: ZUJKAS_clean_linker_0, # of connection points: 2
#     Edge 82, Type (0, 0), BuildingBlock: ZUJKAS_clean_linker_0, # of connection points: 2
#     Edge 83, Type (0, 0), BuildingBlock: ZUJKAS_clean_linker_0, # of connection points: 2
#     Edge 84, Type (0, 0), BuildingBlock: ZUJKAS_clean_linker_0, # of connection points: 2
#     Edge 85, Type (0, 0), BuildingBlock: ZUJKAS_clean_linker_0, # of connection points: 2
#     Edge 86, Type (0, 0), BuildingBlock: ZUJKAS_clean_linker_0, # of connection points: 2
#     Edge 87, Type (0, 0), BuildingBlock: ZUJKAS_clean_linker_0, # of connection points: 2
#     Edge 88, Type (0, 0), BuildingBlock: ZUJKAS_clean_linker_0, # of connection points: 2
#     Edge 89, Type (0, 0), BuildingBlock: ZUJKAS_clean_linker_0, # of connection points: 2
#     Edge 90, Type (0, 0), BuildingBlock: ZUJKAS_clean_linker_0, # of connection points: 2
#     Edge 91, Type (0, 0), BuildingBlock: ZUJKAS_clean_linker_0, # of connection points: 2
#     Edge 92, Type (0, 0), BuildingBlock: ZUJKAS_clean_linker_0, # of connection points: 2
#     Edge 93, Type (0, 0), BuildingBlock: ZUJKAS_clean_linker_0, # of connection points: 2
#     Edge 94, Type (0, 0), BuildingBlock: ZUJKAS_clean_linker_0, # of connection points: 2
#     Edge 95, Type (0, 0), BuildingBlock: ZUJKAS_clean_linker_0, # of connection points: 2
# Relax obj value: 0.082
# Max RMSD: 0.180
# Mean RMSD: 0.180
data_MOF--net-uke--node1-QUQFOY_clean_sbu_3--edge1-ZUJKAS_clean_linker_0
_symmetry_space_group_name_H-M    P1
_symmetry_Int_Tables_number       1
_symmetry_cell_setting            triclinic
loop_
_symmetry_equiv_pos_as_xyz
'x, y, z'
_cell_length_a     27.194697
_cell_length_b     145.3438
_cell_length_c     72.026406
_cell_angle_alpha  89.967097
_cell_angle_beta   89.993729
_cell_angle_gamma 90.015871
loop_
_atom_site_label
_atom_site_type_symbol
_atom_site_fract_x
_atom_site_fract_y
_atom_site_fract_z
_atom_type_partial_charge
C0 C 0.16605 0.02961 0.24235 0.0
O1 O 0.19763 0.03604 0.24162 0.0
Cd2 Cd 0.16896 0.05048 0.23102 0.0
O3 O 0.12027 0.03128 0.24181 0.0
Cd4 Cd 0.06262 0.04382 0.24412 0.0
C5 C 0.07215 0.04194 0.2016 0.0
O6 O 0.11845 0.05545 0.25501 0.0
O7 O 0.0548 0.06005 0.23946 0.0
O8 O 0.0451 0.03739 0.27342 0.0
C9 C 0.09182 0.06199 0.24941 0.0
O10 O 0.11386 0.04516 0.20641 0.0
C11 C -0.00044 0.03921 0.27265 0.0
O12 O 0.03847 0.04043 0.21335 0.0
O13 O 0.98335 0.04276 0.25781 0.0
C14 C 0.07466 0.18844 0.2432 0.0
O15 O 0.04479 0.18191 0.2397 0.0
Cd16 Cd 0.07456 0.16696 0.23135 0.0
O17 O 0.12075 0.18713 0.24427 0.0
Cd18 Cd 0.18841 0.17627 0.24475 0.0
C19 C 0.17489 0.17699 0.20438 0.0
O20 O 0.13503 0.16338 0.25313 0.0
O21 O 0.2053 0.16016 0.24083 0.0
O22 O 0.20189 0.18231 0.27456 0.0
C23 C 0.16436 0.15734 0.24704 0.0
O24 O 0.14038 0.17353 0.21387 0.0
C25 C 0.24818 0.1814 0.27369 0.0
O26 O 0.21186 0.18019 0.2129 0.0
O27 O 0.26691 0.17878 0.25842 0.0
C28 C 0.16714 0.18915 0.97793 0.0
O29 O 0.19815 0.18267 0.9795 0.0
Cd30 Cd 0.16894 0.16795 0.98857 0.0
O31 O 0.12126 0.18768 0.97845 0.0
Cd32 Cd 0.06224 0.17543 0.97805 0.0
C33 C 0.07536 0.17661 0.01137 0.0
O34 O 0.11236 0.16308 0.96654 0.0
O35 O 0.05535 0.15952 0.98631 0.0
O36 O 0.04564 0.17994 0.94779 0.0
C37 C 0.08765 0.15695 0.97475 0.0
O38 O 0.11508 0.17319 0.00503 0.0
C39 C -0.00044 0.17893 0.94927 0.0
O40 O 0.0407 0.17906 0.00069 0.0
O41 O 0.98217 0.17717 0.9652 0.0
C42 C 0.0814 0.02913 0.97903 0.0
O43 O 0.04897 0.03543 0.97932 0.0
Cd44 Cd 0.07586 0.05056 0.98785 0.0
O45 O 0.12697 0.03092 0.97963 0.0
Cd46 Cd 0.19033 0.04231 0.97814 0.0
C47 C 0.17469 0.04259 0.01022 0.0
O48 O 0.13814 0.05479 0.96754 0.0
O49 O 0.20306 0.05844 0.98324 0.0
O50 O 0.20095 0.03753 0.94765 0.0
C51 C 0.16478 0.061 0.9746 0.0
O52 O 0.1386 0.04557 0.00081 0.0
C53 C 0.24743 0.0379 0.94828 0.0
O54 O 0.21154 0.03919 0.00184 0.0
O55 O 0.26816 0.03932 0.96386 0.0
C56 C 0.82602 0.94455 0.72432 0.0
O57 O 0.79698 0.93781 0.72681 0.0
Cd58 Cd 0.82605 0.92315 0.73639 0.0
O59 O 0.87222 0.94347 0.7243 0.0
Cd60 Cd 0.93184 0.93143 0.7247 0.0
C61 C 0.92034 0.93127 0.7672 0.0
O62 O 0.88251 0.91848 0.71451 0.0
O63 O 0.94698 0.91563 0.73126 0.0
O64 O 0.9499 0.93644 0.69477 0.0
C65 C 0.91132 0.91264 0.72169 0.0
O66 O 0.88161 0.92727 0.76142 0.0
C67 C 0.9959 0.93557 0.69675 0.0
O68 O 0.94969 0.93529 0.75614 0.0
O69 O 0.01231 0.93329 0.71253 0.0
C70 C 0.92316 0.78563 0.72608 0.0
O71 O 0.95167 0.79239 0.7294 0.0
Cd72 Cd 0.92094 0.80723 0.73786 0.0
O73 O 0.87679 0.78657 0.72524 0.0
Cd74 Cd 0.80935 0.79739 0.72535 0.0
C75 C 0.8236 0.79685 0.76557 0.0
O76 O 0.85941 0.81058 0.71657 0.0
O77 O 0.79049 0.81331 0.73044 0.0
O78 O 0.79766 0.79375 0.69433 0.0
C79 C 0.82922 0.81641 0.72286 0.0
O80 O 0.85713 0.80044 0.7558 0.0
C81 C 0.75134 0.79323 0.6957 0.0
O82 O 0.78648 0.79349 0.75736 0.0
O83 O 0.73181 0.79364 0.71171 0.0
C84 C 0.8306 0.78518 -0.00987 0.0
O85 O 0.79853 0.79149 -0.01133 0.0
Cd86 Cd 0.82498 0.80603 0.98657 0.0
O87 O 0.87641 0.78684 -0.01035 0.0
Cd88 Cd 0.93841 0.79865 -0.00914 0.0
C89 C 0.92628 0.79702 0.95872 0.0
O90 O 0.88138 0.81052 0.00039 0.0
O91 O 0.94813 0.81495 -0.01345 0.0
O92 O 0.95056 0.79331 0.02122 0.0
C93 C 0.90851 0.817 -0.00514 0.0
O94 O 0.8886 0.80023 0.96678 0.0
C95 C 0.9964 0.79486 0.02114 0.0
O96 O 0.96389 0.79481 0.96812 0.0
O97 O 0.01582 0.7972 0.00588 0.0
C98 C 0.91549 0.94532 -0.00813 0.0
O99 O 0.94845 0.93913 -0.00827 0.0
Cd100 Cd 0.92234 0.92413 -0.01845 0.0
O101 O 0.87033 0.94333 -0.00893 0.0
Cd102 Cd 0.81403 0.93096 -0.00665 0.0
C103 C 0.82706 0.93149 0.95885 0.0
O104 O 0.86558 0.9183 0.00268 0.0
O105 O 0.79986 0.9152 -0.01315 0.0
O106 O 0.79954 0.93645 0.02315 0.0
C107 C 0.83824 0.91234 -0.00497 0.0
O108 O 0.86776 0.92787 0.96379 0.0
C109 C 0.75321 0.93563 0.02203 0.0
O110 O 0.79604 0.93448 0.97055 0.0
O111 O 0.73466 0.93322 0.00655 0.0
C112 C 0.16588 0.53311 0.74777 0.0
O113 O 0.19721 0.53958 0.74743 0.0
Cd114 Cd 0.16807 0.55425 0.73731 0.0
O115 O 0.1202 0.53467 0.74685 0.0
Cd116 Cd 0.06286 0.54696 0.74921 0.0
C117 C 0.07371 0.54641 0.70622 0.0
O118 O 0.11315 0.55958 0.75953 0.0
O119 O 0.05226 0.56281 0.74131 0.0
O120 O 0.04834 0.54171 0.77934 0.0
C121 C 0.08784 0.5656 0.75121 0.0
O122 O 0.1141 0.55021 0.71099 0.0
C123 C 0.00205 0.54258 0.77828 0.0
O124 O 0.04352 0.54329 0.7181 0.0
O125 O 0.98401 0.54479 0.76267 0.0
C126 C 0.07877 0.69289 0.7499 0.0
O127 O 0.0482 0.68639 0.74759 0.0
Cd128 Cd 0.07757 0.6715 0.73971 0.0
O129 O 0.12463 0.69142 0.75004 0.0
Cd130 Cd 0.18316 0.67915 0.74955 0.0
C131 C 0.16873 0.67914 0.707 0.0
O132 O 0.13394 0.66677 0.76204 0.0
O133 O 0.18739 0.66316 0.74109 0.0
O134 O 0.20691 0.68571 0.77788 0.0
C135 C 0.15564 0.66057 0.75286 0.0
O136 O 0.13016 0.67509 0.71297 0.0
C137 C 0.2515 0.68333 0.77632 0.0
O138 O 0.19862 0.68305 0.71802 0.0
O139 O 0.26525 0.67949 0.76134 0.0
C140 C 0.16837 0.69256 0.47397 0.0
O141 O 0.19901 0.68597 0.47417 0.0
Cd142 Cd 0.16924 0.67124 0.48401 0.0
O143 O 0.12254 0.69111 0.47449 0.0
Cd144 Cd 0.06314 0.67925 0.47231 0.0
C145 C 0.07641 0.67976 0.515 0.0
O146 O 0.11135 0.66612 0.46286 0.0
O147 O 0.0473 0.6638 0.48018 0.0
O148 O 0.04525 0.68511 0.44274 0.0
C149 C 0.08323 0.6605 0.47115 0.0
O150 O 0.11562 0.67568 0.50984 0.0
C151 C -0.00076 0.68399 0.44452 0.0
O152 O 0.04646 0.68325 0.50346 0.0
O153 O 0.98325 0.68113 0.45999 0.0
C154 C 0.07885 0.53274 0.47459 0.0
O155 O 0.04743 0.53915 0.47627 0.0
Cd156 Cd 0.07576 0.55378 0.48606 0.0
O157 O 0.12458 0.53438 0.47483 0.0
Cd158 Cd 0.18369 0.54641 0.47422 0.0
C159 C 0.17485 0.54638 0.51629 0.0
O160 O 0.12927 0.55843 0.46301 0.0
O161 O 0.19212 0.5625 0.47962 0.0
O162 O 0.20305 0.54009 0.4451 0.0
C163 C 0.15625 0.56476 0.46937 0.0
O164 O 0.13509 0.54992 0.51023 0.0
C165 C 0.24741 0.54274 0.44557 0.0
O166 O 0.20553 0.54265 0.50537 0.0
O167 O 0.26347 0.54633 0.46047 0.0
C168 C 0.82884 0.44062 0.22107 0.0
O169 O 0.79815 0.43403 0.22141 0.0
Cd170 Cd 0.82555 0.41902 0.23003 0.0
O171 O 0.87484 0.43923 0.22161 0.0
Cd172 Cd 0.93514 0.42715 0.21926 0.0
C173 C 0.91789 0.42698 0.26211 0.0
O174 O 0.88574 0.41457 0.20933 0.0
O175 O 0.95099 0.41118 0.225 0.0
O176 O 0.95238 0.43184 0.18919 0.0
C177 C 0.9119 0.40849 0.21708 0.0
O178 O 0.87765 0.42355 0.2562 0.0
C179 C 0.99846 0.432 0.19172 0.0
O180 O 0.95149 0.42968 0.25114 0.0
O181 O 0.01487 0.4305 0.20789 0.0
C182 C 0.91715 0.28095 0.22135 0.0
O183 O 0.94951 0.28724 0.22091 0.0
Cd184 Cd 0.92293 0.30186 0.23173 0.0
O185 O 0.87186 0.28278 0.22324 0.0
Cd186 Cd 0.814 0.29527 0.22169 0.0
C187 C 0.82872 0.2935 0.26319 0.0
O188 O 0.86665 0.3074 0.21028 0.0
O189 O 0.806 0.3113 0.22824 0.0
O190 O 0.79846 0.28983 0.19188 0.0
C191 C 0.84076 0.31366 0.21752 0.0
O192 O 0.86882 0.29666 0.2566 0.0
C193 C 0.75237 0.29102 0.19271 0.0
O194 O 0.79228 0.29177 0.25278 0.0
O195 O 0.73389 0.29357 0.2081 0.0
C196 C 0.82933 0.28161 0.49639 0.0
O197 O 0.79864 0.28809 0.4937 0.0
Cd198 Cd 0.82589 0.30304 0.48528 0.0
O199 O 0.87544 0.28306 0.49679 0.0
Cd200 Cd 0.93951 0.29482 0.49634 0.0
C201 C 0.92425 0.29373 0.45649 0.0
O202 O 0.8844 0.30696 0.50767 0.0
O203 O 0.9448 0.31119 0.49014 0.0
O204 O 0.96093 0.2884 0.52544 0.0
C205 C 0.90929 0.31341 0.50061 0.0
O206 O 0.89053 0.29694 0.46669 0.0
C207 C 0.0048 0.29096 0.52442 0.0
O208 O 0.96266 0.2907 0.46431 0.0
O209 O 0.01945 0.2948 0.50958 0.0
C210 C 0.91484 0.44058 0.4945 0.0
O211 O 0.94756 0.43438 0.49267 0.0
Cd212 Cd 0.92144 0.41935 0.48379 0.0
O213 O 0.86934 0.4386 0.49468 0.0
Cd214 Cd 0.80503 0.42714 0.49521 0.0
C215 C 0.81943 0.4278 0.45529 0.0
O216 O 0.8626 0.4153 0.50584 0.0
O217 O 0.79881 0.41067 0.4907 0.0
O218 O 0.79031 0.43429 0.52402 0.0
C219 C 0.83821 0.40868 0.49922 0.0
O220 O 0.85467 0.42488 0.46515 0.0
C221 C 0.74568 0.43183 0.52468 0.0
O222 O 0.78153 0.43092 0.46338 0.0
O223 O 0.72737 0.42791 0.51049 0.0
C224 C 0.66564 0.02958 0.74788 0.0
O225 O 0.69646 0.03613 0.74683 0.0
Cd226 Cd 0.66705 0.05066 0.73702 0.0
O227 O 0.61976 0.03108 0.74713 0.0
Cd228 Cd 0.56193 0.04358 0.74796 0.0
C229 C 0.57296 0.04214 0.70607 0.0
O230 O 0.61306 0.05577 0.75979 0.0
O231 O 0.55667 0.05959 0.74008 0.0
O232 O 0.54499 0.03773 0.77746 0.0
C233 C 0.58892 0.06203 0.75177 0.0
O234 O 0.61343 0.04553 0.71181 0.0
C235 C 0.49956 0.03961 0.77678 0.0
O236 O 0.53879 0.03998 0.71721 0.0
O237 O 0.48212 0.04267 0.76159 0.0
C238 C 0.58409 0.18953 0.7481 0.0
O239 O 0.55074 0.1834 0.74817 0.0
Cd240 Cd 0.57544 0.16818 0.73877 0.0
O241 O 0.62911 0.1874 0.74735 0.0
Cd242 Cd 0.68664 0.17521 0.74932 0.0
C243 C 0.67032 0.17512 0.70663 0.0
O244 O 0.63448 0.16285 0.75934 0.0
O245 O 0.6994 0.15916 0.74366 0.0
O246 O 0.70015 0.18126 0.77877 0.0
C247 C 0.65997 0.15665 0.7516 0.0
O248 O 0.63012 0.1716 0.71247 0.0
C249 C 0.74651 0.18045 0.77801 0.0
O250 O 0.70201 0.17848 0.71768 0.0
O251 O 0.76565 0.17777 0.7628 0.0
C252 C 0.67399 0.18895 0.47204 0.0
O253 O 0.70253 0.18233 0.47617 0.0
Cd254 Cd 0.67198 0.16734 0.48427 0.0
O255 O 0.62809 0.18776 0.47055 0.0
Cd256 Cd 0.56712 0.17609 0.47145 0.0
C257 C 0.57973 0.17577 0.51482 0.0
O258 O 0.61381 0.16273 0.46264 0.0
O259 O 0.54826 0.16037 0.47891 0.0
O260 O 0.5484 0.18001 0.44119 0.0
C261 C 0.58543 0.15707 0.47063 0.0
O262 O 0.61794 0.17126 0.51008 0.0
C263 C 0.50234 0.18007 0.44387 0.0
O264 O 0.55311 0.17995 0.50303 0.0
O265 O 0.48618 0.17935 0.46038 0.0
C266 C 0.57792 0.02944 0.47373 0.0
O267 O 0.54714 0.03577 0.47756 0.0
Cd268 Cd 0.57156 0.05065 0.48745 0.0
O269 O 0.62391 0.03095 0.47303 0.0
Cd270 Cd 0.68676 0.04269 0.47405 0.0
C271 C 0.67512 0.04226 0.51446 0.0
O272 O 0.62927 0.0548 0.4653 0.0
O273 O 0.69676 0.05915 0.47862 0.0
O274 O 0.70373 0.03962 0.44284 0.0
C275 C 0.6567 0.06127 0.47068 0.0
O276 O 0.63946 0.04514 0.50486 0.0
C277 C 0.74991 0.03949 0.44498 0.0
O278 O 0.71186 0.03888 0.50605 0.0
O279 O 0.76721 0.04004 0.46132 0.0
C280 C 0.33203 0.94447 0.22581 0.0
O281 O 0.2994 0.93837 0.22905 0.0
Cd282 Cd 0.32452 0.92324 0.23867 0.0
O283 O 0.37738 0.94244 0.22469 0.0
Cd284 Cd 0.44038 0.93071 0.22349 0.0
C285 C 0.43002 0.9322 0.26345 0.0
O286 O 0.37964 0.91892 0.21529 0.0
O287 O 0.45141 0.91441 0.22479 0.0
O288 O 0.44893 0.93582 0.19274 0.0
C289 C 0.40906 0.9124 0.21864 0.0
O290 O 0.39498 0.92908 0.25387 0.0
C291 C 0.49544 0.93546 0.19286 0.0
O292 O 0.46975 0.93418 0.25518 0.0
O293 O 0.5169 0.93349 0.20803 0.0
C294 C 0.41641 0.78504 0.22234 0.0
O295 O 0.44806 0.79144 0.2213 0.0
Cd296 Cd 0.42133 0.80644 0.2306 0.0
O297 O 0.37087 0.78676 0.22348 0.0
Cd298 Cd 0.31068 0.79856 0.22084 0.0
C299 C 0.32687 0.79922 0.26327 0.0
O300 O 0.36043 0.81123 0.2106 0.0
O301 O 0.29547 0.81454 0.22652 0.0
O302 O 0.29679 0.7927 0.19125 0.0
C303 C 0.33442 0.81728 0.21856 0.0
O304 O 0.36624 0.80272 0.25664 0.0
C305 C 0.25041 0.79343 0.19227 0.0
O306 O 0.29474 0.79558 0.25275 0.0
O307 O 0.2316 0.79575 0.20777 0.0
C308 C 0.33092 0.78487 0.49501 0.0
O309 O 0.29868 0.79119 0.4947 0.0
Cd310 Cd 0.3273 0.80583 0.48387 0.0
O311 O 0.37634 0.78673 0.49437 0.0
Cd312 Cd 0.43482 0.7988 0.49642 0.0
C313 C 0.42291 0.79716 0.45392 0.0
O314 O 0.38291 0.81146 0.50555 0.0
O315 O 0.44941 0.81444 0.49001 0.0
O316 O 0.44891 0.79279 0.52611 0.0
C317 C 0.41156 0.81736 0.49841 0.0
O318 O 0.38197 0.80066 0.45889 0.0
C319 C 0.49486 0.79421 0.52543 0.0
O320 O 0.45582 0.79498 0.46559 0.0
O321 O 0.51337 0.79718 0.51036 0.0
C322 C 0.42232 0.94394 0.49678 0.0
O323 O 0.45121 0.93722 0.49373 0.0
Cd324 Cd 0.42055 0.9225 0.48521 0.0
O325 O 0.37598 0.94291 0.4974 0.0
Cd326 Cd 0.30986 0.93176 0.49702 0.0
C327 C 0.32422 0.93249 0.45624 0.0
O328 O 0.36101 0.9188 0.507 0.0
O329 O 0.29427 0.91588 0.49185 0.0
O330 O 0.29132 0.93781 0.52647 0.0
C331 C 0.33159 0.91289 0.50047 0.0
O332 O 0.35965 0.92887 0.465 0.0
C333 C 0.246 0.93592 0.52518 0.0
O334 O 0.28803 0.93572 0.46523 0.0
O335 O 0.22966 0.93277 0.50996 0.0
C336 C 0.6694 0.53315 0.24385 0.0
O337 O 0.70019 0.53962 0.24132 0.0
Cd338 Cd 0.6712 0.55465 0.23361 0.0
O339 O 0.62344 0.53459 0.24441 0.0
Cd340 Cd 0.55888 0.54588 0.24497 0.0
C341 C 0.57336 0.54536 0.20434 0.0
O342 O 0.61052 0.55851 0.25495 0.0
O343 O 0.54606 0.56195 0.23878 0.0
O344 O 0.54431 0.54174 0.27567 0.0
C345 C 0.58355 0.56463 0.24775 0.0
O346 O 0.6093 0.54875 0.21321 0.0
C347 C 0.49799 0.54188 0.27401 0.0
O348 O 0.53714 0.54208 0.21326 0.0
O349 O 0.47938 0.5431 0.25802 0.0
C350 C 0.58293 0.69309 0.24349 0.0
O351 O 0.5513 0.68667 0.24344 0.0
Cd352 Cd 0.57916 0.67195 0.23331 0.0
O353 O 0.62853 0.69144 0.24254 0.0
Cd354 Cd 0.68419 0.67893 0.24467 0.0
C355 C 0.67364 0.67952 0.20204 0.0
O356 O 0.63385 0.66662 0.25567 0.0
O357 O 0.6909 0.66318 0.23578 0.0
O358 O 0.70339 0.68232 0.27545 0.0
C359 C 0.65845 0.66055 0.24726 0.0
O360 O 0.63257 0.67607 0.20703 0.0
C361 C 0.74941 0.68235 0.27275 0.0
O362 O 0.70525 0.68225 0.21374 0.0
O363 O 0.76556 0.6814 0.2563 0.0
C364 C 0.66856 0.69296 0.97684 0.0
O365 O 0.69987 0.68649 0.97608 0.0
Cd366 Cd 0.67221 0.67159 0.98568 0.0
O367 O 0.62295 0.6914 0.9783 0.0
Cd368 Cd 0.56176 0.67973 0.97667 0.0
C369 C 0.58022 0.67999 0.00993 0.0
O370 O 0.60939 0.66679 0.9665 0.0
O371 O 0.54639 0.66401 0.98398 0.0
O372 O 0.54749 0.68438 0.9464 0.0
C373 C 0.58301 0.66096 0.97497 0.0
O374 O 0.61834 0.67636 0.00266 0.0
C375 C 0.50115 0.68405 0.94798 0.0
O376 O 0.54648 0.68344 -9e-05 0.0
O377 O 0.4823 0.68245 0.96382 0.0
C378 C 0.58412 0.53247 0.9795 0.0
O379 O 0.55111 0.53866 0.98014 0.0
Cd380 Cd 0.57698 0.55352 -0.01728 0.0
O381 O 0.62932 0.5345 0.98049 0.0
Cd382 Cd 0.68544 0.54702 0.97874 0.0
C383 C 0.67635 0.54571 0.01219 0.0
O384 O 0.63059 0.55914 0.96889 0.0
O385 O 0.6961 0.5628 0.98461 0.0
O386 O 0.69628 0.54192 0.94842 0.0
C387 C 0.65887 0.56527 0.9753 0.0
O388 O 0.63507 0.54872 0.00647 0.0
C389 C 0.74268 0.54263 0.94862 0.0
O390 O 0.71084 0.54375 0.00104 0.0
O391 O 0.76337 0.54495 0.96377 0.0
C392 C 0.32538 0.44091 0.72555 0.0
O393 O 0.29514 0.43426 0.72609 0.0
Cd394 Cd 0.32591 0.41947 0.73524 0.0
O395 O 0.37128 0.43961 0.72599 0.0
Cd396 Cd 0.43125 0.42795 0.72388 0.0
C397 C 0.41794 0.42758 0.76691 0.0
O398 O 0.38523 0.41466 0.71431 0.0
O399 O 0.45051 0.41235 0.73084 0.0
O400 O 0.44616 0.43198 0.69335 0.0
C401 C 0.41392 0.40902 0.72221 0.0
O402 O 0.37917 0.4234 0.76156 0.0
C403 C 0.49239 0.43237 0.69547 0.0
O404 O 0.44691 0.43146 0.7555 0.0
O405 O 0.51029 0.43167 0.71173 0.0
C406 C 0.41529 0.28032 0.72399 0.0
O407 O 0.44785 0.28659 0.72404 0.0
Cd408 Cd 0.42433 0.30146 0.73496 0.0
O409 O 0.37003 0.2822 0.72566 0.0
Cd410 Cd 0.31231 0.29454 0.72575 0.0
C411 C 0.32916 0.29403 0.76729 0.0
O412 O 0.36443 0.30723 0.71536 0.0
O413 O 0.30192 0.31026 0.73315 0.0
O414 O 0.28906 0.28954 0.6959 0.0
C415 C 0.33768 0.31312 0.72349 0.0
O416 O 0.36778 0.29726 0.75968 0.0
C417 C 0.24375 0.29103 0.69866 0.0
O418 O 0.29463 0.29075 0.75745 0.0
O419 O 0.22991 0.29365 0.71464 0.0
C420 C 0.32563 0.2817 -0.00775 0.0
O421 O 0.29708 0.28853 -0.00989 0.0
Cd422 Cd 0.33066 0.30279 0.98883 0.0
O423 O 0.37191 0.28262 -0.00781 0.0
Cd424 Cd 0.43402 0.29424 -0.00678 0.0
C425 C 0.42303 0.29332 0.95861 0.0
O426 O 0.38697 0.30743 0.00285 0.0
O427 O 0.45137 0.30986 -0.01409 0.0
O428 O 0.44692 0.28916 0.02352 0.0
C429 C 0.41595 0.31311 -0.00473 0.0
O430 O 0.38332 0.29733 0.96346 0.0
C431 C 0.4932 0.2901 0.02274 0.0
O432 O 0.45388 0.29044 0.97049 0.0
O433 O 0.51256 0.29187 0.00705 0.0
C434 C 0.41702 0.44165 -0.00844 0.0
O435 O 0.44874 0.4353 -0.01031 0.0
Cd436 Cd 0.42112 0.42036 0.98826 0.0
O437 O 0.37145 0.4399 -0.00855 0.0
Cd438 Cd 0.3143 0.4276 -0.00772 0.0
C439 C 0.32306 0.4277 0.95827 0.0
O440 O 0.36782 0.41527 0.00264 0.0
O441 O 0.30328 0.41178 -0.01366 0.0
O442 O 0.29582 0.43396 0.02136 0.0
C443 C 0.33956 0.40918 -0.00397 0.0
O444 O 0.36346 0.4241 0.96349 0.0
C445 C 0.25093 0.43167 0.02069 0.0
O446 O 0.29296 0.4312 0.96972 0.0
O447 O 0.23458 0.42798 0.00593 0.0
H448 H 0.10674 0.05199 0.02941 0.0
H449 H 0.08997 0.05141 0.06231 0.0
H450 H 0.21529 0.0337 0.07063 0.0
H451 H 0.23261 0.03412 0.03695 0.0
H452 H 0.07303 0.03332 0.08053 0.0
H453 H 0.21898 0.05538 0.11196 0.0
H454 H 0.19845 0.05698 0.08832 0.0
H455 H 0.23583 0.04726 0.09412 0.0
C456 C 0.13128 0.048 0.03811 0.0
C457 C 0.17056 0.04295 0.03054 0.0
C458 C 0.12158 0.04772 0.05696 0.0
C459 C 0.15121 0.04251 0.06877 0.0
C460 C 0.19218 0.0378 0.06158 0.0
H461 H 0.12505 0.02946 0.18337 0.0
H462 H 0.13879 0.02932 0.14984 0.0
C463 C 0.20198 0.03803 0.04244 0.0
C464 C 0.13577 0.04153 0.08827 0.0
H465 H 0.16023 0.04883 0.13228 0.0
C466 C 0.09217 0.03665 0.0919 0.0
C467 C 0.16037 0.04611 0.10284 0.0
C468 C 0.20593 0.05178 0.09927 0.0
C469 C 0.07278 0.03612 0.10989 0.0
C470 C 0.09794 0.0405 0.12452 0.0
C471 C 0.14127 0.04547 0.1209 0.0
C472 C 0.08229 0.03938 0.14395 0.0
C473 C 0.02591 0.03082 0.11332 0.0
C474 C 0.04395 0.04469 0.15142 0.0
C475 C 0.03569 0.0447 0.1706 0.0
C476 C 0.06613 0.03945 0.1822 0.0
C477 C 0.10115 0.0335 0.1745 0.0
C478 C 0.10934 0.0335 0.15547 0.0
H479 H 0.01155 0.02754 0.10048 0.0
H480 H 0.03237 0.02541 0.12392 0.0
H481 H 0.99794 0.03554 0.11889 0.0
H482 H 0.02276 0.04925 0.14261 0.0
H483 H 0.00896 0.0494 0.17645 0.0
H484 H 0.14014 0.18709 0.02874 0.0
H485 H 0.15775 0.18699 0.06185 0.0
H486 H 0.02841 0.17043 0.07167 0.0
H487 H 0.01167 0.17024 0.03793 0.0
H488 H 0.1002 0.193 0.09116 0.0
H489 H 0.13995 0.15535 0.09682 0.0
H490 H 0.14558 0.16138 0.07499 0.0
H491 H 0.08598 0.15894 0.08434 0.0
C492 C 0.11484 0.18361 0.03804 0.0
C493 C 0.07465 0.1787 0.03107 0.0
C494 C 0.12519 0.18347 0.05687 0.0
C495 C 0.09513 0.17851 0.06908 0.0
C496 C 0.05268 0.1741 0.06231 0.0
H497 H 0.09624 0.17145 0.1847 0.0
H498 H 0.08277 0.17255 0.15159 0.0
C499 C 0.04248 0.17417 0.04323 0.0
C500 C 0.10876 0.17831 0.08888 0.0
H501 H 0.15153 0.16444 0.12349 0.0
C502 C 0.11146 0.18677 0.09827 0.0
C503 C 0.1241 0.17013 0.09786 0.0
C504 C 0.12412 0.16091 0.08807 0.0
C505 C 0.12854 0.18731 0.11658 0.0
C506 C 0.14294 0.17914 0.12567 0.0
C507 C 0.14078 0.17067 0.11626 0.0
C508 C 0.15273 0.17898 0.14575 0.0
C509 C 0.12956 0.19653 0.12629 0.0
C510 C 0.19682 0.18232 0.15341 0.0
C511 C 0.20484 0.18172 0.17262 0.0
C512 C 0.16879 0.17776 0.18415 0.0
C513 C 0.12489 0.1745 0.17625 0.0
C514 C 0.11698 0.17513 0.1573 0.0
H515 H 0.11755 0.20225 0.11708 0.0
H516 H 0.10517 0.19634 0.13864 0.0
H517 H 0.16735 0.19804 0.13125 0.0
H518 H 0.22488 0.18528 0.14456 0.0
H519 H 0.23895 0.18429 0.17839 0.0
H520 H 0.80295 0.91793 0.93538 0.0
H521 H 0.81926 0.91808 0.90188 0.0
H522 H 0.85288 0.94708 0.90476 0.0
H523 H 0.83684 0.9469 0.93833 0.0
H524 H 0.78211 0.92905 0.87162 0.0
H525 H 0.98153 0.93499 0.88493 0.0
H526 H 0.94133 0.92961 0.9017 0.0
H527 H 0.93929 0.94183 0.89827 0.0
C528 C 0.8119 0.92439 0.92862 0.0
C529 C 0.81837 0.93242 0.93908 0.0
C530 C 0.82183 0.92444 0.90964 0.0
C531 C 0.8385 0.93253 0.90106 0.0
C532 C 0.84098 0.94074 0.9113 0.0
H533 H 0.93263 0.94639 0.78908 0.0
H534 H 0.91008 0.94691 0.82221 0.0
C535 C 0.83089 0.94069 0.93029 0.0
C536 C 0.85474 0.93232 0.88152 0.0
H537 H 0.95517 0.93543 0.85382 0.0
C538 C 0.81989 0.93043 0.86767 0.0
C539 C 0.90435 0.93396 0.87659 0.0
C540 C 0.94407 0.93514 0.89109 0.0
C541 C 0.83308 0.93044 0.84883 0.0
C542 C 0.88235 0.93243 0.84392 0.0
C543 C 0.91728 0.93415 0.85777 0.0
C544 C 0.8993 0.93218 0.82453 0.0
C545 C 0.79437 0.9285 0.83429 0.0
C546 C 0.90397 0.9237 0.81554 0.0
C547 C 0.91808 0.92338 0.79702 0.0
C548 C 0.92694 0.93156 0.78722 0.0
C549 C 0.92655 0.94002 0.79656 0.0
C550 C 0.91262 0.94033 0.81525 0.0
H551 H 0.757 0.92784 0.84039 0.0
H552 H 0.79402 0.93409 0.82377 0.0
H553 H 0.80323 0.92199 0.82695 0.0
H554 H 0.8951 0.91735 0.8227 0.0
H555 H 0.91812 0.91681 0.78992 0.0
H556 H 0.99696 0.80007 0.93206 0.0
H557 H 0.98114 0.80092 0.89828 0.0
H558 H 0.83107 0.7924 0.90756 0.0
H559 H 0.84668 0.79137 0.94067 0.0
H560 H 0.94204 0.78577 0.8756 0.0
H561 H 0.81651 0.81606 0.87554 0.0
H562 H 0.86454 0.81451 0.89261 0.0
H563 H 0.80839 0.80811 0.8944 0.0
C564 C 0.96112 0.7982 0.92669 0.0
C565 C 0.92287 0.7957 0.93874 0.0
C566 C 0.95186 0.79885 0.90759 0.0
C567 C 0.90444 0.79704 0.90068 0.0
C568 C 0.86733 0.79413 0.91275 0.0
H569 H 0.75954 0.79083 0.7929 0.0
H570 H 0.77747 0.78992 0.8265 0.0
C571 C 0.87654 0.79341 0.93157 0.0
C572 C 0.89371 0.79722 0.88069 0.0
H573 H 0.81568 0.80652 0.8487 0.0
C574 C 0.91492 0.79037 0.8696 0.0
C575 C 0.8577 0.80319 0.87318 0.0
C576 C 0.83561 0.81094 0.88445 0.0
C577 C 0.90025 0.78914 0.85113 0.0
C578 C 0.86364 0.79499 0.84369 0.0
C579 C 0.84274 0.80192 0.85472 0.0
C580 C 0.85217 0.79491 0.82374 0.0
C581 C 0.92361 0.78158 0.83972 0.0
C582 C 0.88794 0.79812 0.81144 0.0
C583 C 0.87789 0.79871 0.79265 0.0
C584 C 0.8317 0.79609 0.78566 0.0
C585 C 0.79546 0.79285 0.79795 0.0
C586 C 0.80565 0.79231 0.81702 0.0
H587 H 0.94421 0.77661 0.84848 0.0
H588 H 0.8952 0.7778 0.83169 0.0
H589 H 0.94976 0.78465 0.82963 0.0
H590 H 0.92364 0.80032 0.81646 0.0
H591 H 0.90674 0.80125 0.78362 0.0
H592 H 0.04247 0.55928 0.68212 0.0
H593 H 0.05879 0.55909 0.64861 0.0
H594 H 0.10891 0.53098 0.65294 0.0
H595 H 0.09146 0.53114 0.6863 0.0
H596 H 0.15637 0.55622 0.63669 0.0
H597 H 0.02951 0.53082 0.60442 0.0
H598 H 0.01524 0.53683 0.62571 0.0
H599 H 0.05676 0.52723 0.62597 0.0
C600 C 0.05449 0.55294 0.67563 0.0
C601 C 0.06513 0.54518 0.68646 0.0
C602 C 0.06437 0.55287 0.65662 0.0
C603 C 0.08503 0.54502 0.64832 0.0
C604 C 0.09212 0.53704 0.659 0.0
H605 H 0.20983 0.53295 0.53976 0.0
H606 H 0.19734 0.53286 0.57369 0.0
C607 C 0.08187 0.5371 0.67799 0.0
C608 C 0.10501 0.54553 0.62924 0.0
H609 H 0.09799 0.5356 0.58644 0.0
C610 C 0.14353 0.55175 0.62566 0.0
C611 C 0.08809 0.53968 0.61494 0.0
C612 C 0.04485 0.53331 0.6178 0.0
C613 C 0.16617 0.55216 0.60815 0.0
C614 C 0.15001 0.54614 0.59399 0.0
C615 C 0.11121 0.54 0.59753 0.0
C616 C 0.16881 0.54678 0.57477 0.0
C617 C 0.20736 0.55897 0.60495 0.0
C618 C 0.15901 0.55474 0.56448 0.0
C619 C 0.16675 0.55483 0.54544 0.0
C620 C 0.18324 0.54689 0.53629 0.0
C621 C 0.19729 0.53915 0.54664 0.0
C622 C 0.18974 0.53908 0.5659 0.0
H623 H 0.22259 0.56164 0.61821 0.0
H624 H 0.23753 0.55577 0.59681 0.0
H625 H 0.19327 0.56492 0.5969 0.0
H626 H 0.14197 0.56067 0.57092 0.0
H627 H 0.15599 0.56089 0.53764 0.0
H628 H 0.19621 0.69392 0.68568 0.0
H629 H 0.18175 0.69529 0.65197 0.0
H630 H 0.1402 0.66665 0.6499 0.0
H631 H 0.15418 0.66528 0.68324 0.0
H632 H 0.21659 0.68377 0.61927 0.0
H633 H 0.01502 0.68091 0.63257 0.0
H634 H 0.05707 0.68552 0.64963 0.0
H635 H 0.05468 0.67337 0.64546 0.0
C636 C 0.18554 0.68788 0.67783 0.0
C637 C 0.17542 0.67953 0.68688 0.0
C638 C 0.17679 0.68869 0.65871 0.0
C639 C 0.1584 0.68113 0.6487 0.0
C640 C 0.15313 0.6726 0.65753 0.0
H641 H 0.05628 0.66661 0.53992 0.0
H642 H 0.07937 0.6673 0.57281 0.0
C643 C 0.16156 0.67181 0.67648 0.0
C644 C 0.14249 0.68207 0.6292 0.0
H645 H 0.04124 0.68022 0.60146 0.0
C646 C 0.17826 0.68315 0.61531 0.0
C647 C 0.09239 0.6811 0.62423 0.0
C648 C 0.05235 0.68021 0.63869 0.0
C649 C 0.16528 0.68302 0.59642 0.0
C650 C 0.1152 0.68199 0.59152 0.0
C651 C 0.0795 0.68102 0.6054 0.0
C652 C 0.09869 0.68175 0.57205 0.0
C653 C 0.20509 0.68357 0.58181 0.0
C654 C 0.09905 0.68979 0.56122 0.0
C655 C 0.08454 0.68945 0.54264 0.0
C656 C 0.07021 0.68104 0.53481 0.0
C657 C 0.06644 0.67317 0.54595 0.0
C658 C 0.08057 0.67352 0.56452 0.0
H659 H 0.24254 0.6836 0.58798 0.0
H660 H 0.20201 0.67763 0.57218 0.0
H661 H 0.20043 0.68993 0.57347 0.0
H662 H 0.11199 0.69623 0.567 0.0
H663 H 0.08863 0.69553 0.53405 0.0
H664 H 0.88298 0.41743 0.4361 0.0
H665 H 0.90116 0.41801 0.40319 0.0
H666 H 0.78737 0.43834 0.39533 0.0
H667 H 0.76947 0.43798 0.42893 0.0
H668 H 0.83693 0.41443 0.37313 0.0
H669 H 0.91266 0.45019 0.37189 0.0
H670 H 0.91166 0.44344 0.39294 0.0
H671 H 0.85571 0.44816 0.38391 0.0
C672 C 0.8617 0.42205 0.42745 0.0
C673 C 0.8252 0.42775 0.43506 0.0
C674 C 0.87211 0.42235 0.40863 0.0
C675 C 0.84613 0.42829 0.39694 0.0
C676 C 0.80832 0.43381 0.40428 0.0
H677 H 0.86027 0.43823 0.28127 0.0
H678 H 0.84639 0.43783 0.31472 0.0
C679 C 0.79781 0.43354 0.42334 0.0
C680 C 0.85949 0.42851 0.3771 0.0
H681 H 0.91574 0.44169 0.34421 0.0
C682 C 0.85404 0.42038 0.36671 0.0
C683 C 0.88253 0.43627 0.36906 0.0
C684 C 0.89138 0.44502 0.37994 0.0
C685 C 0.8705 0.41982 0.34828 0.0
C686 C 0.89292 0.42764 0.34018 0.0
C687 C 0.89875 0.43572 0.35063 0.0
C688 C 0.90474 0.42808 0.32023 0.0
C689 C 0.86243 0.41103 0.33744 0.0
C690 C 0.94381 0.42305 0.31245 0.0
C691 C 0.95209 0.42335 0.29325 0.0
C692 C 0.92123 0.42868 0.28194 0.0
C693 C 0.88456 0.43415 0.28991 0.0
C694 C 0.87629 0.43383 0.30891 0.0
H695 H 0.84415 0.40561 0.34589 0.0
H696 H 0.83944 0.41246 0.32503 0.0
H697 H 0.89816 0.40829 0.33246 0.0
H698 H 0.96674 0.41872 0.32111 0.0
H699 H 0.98014 0.419 0.28716 0.0
H700 H 0.75789 0.29869 0.28818 0.0
H701 H 0.77019 0.29952 0.32216 0.0
H702 H 0.91023 0.28588 0.31613 0.0
H703 H 0.89796 0.28496 0.2827 0.0
H704 H 0.79584 0.28379 0.34782 0.0
H705 H 0.94258 0.3105 0.34432 0.0
H706 H 0.89287 0.30985 0.3277 0.0
H707 H 0.9434 0.30197 0.32624 0.0
C708 C 0.79045 0.29566 0.29432 0.0
C709 C 0.82728 0.29182 0.28309 0.0
C710 C 0.79785 0.29628 0.31354 0.0
C711 C 0.84201 0.29308 0.32138 0.0
C712 C 0.87675 0.28866 0.31019 0.0
H713 H 0.9828 0.28574 0.42944 0.0
H714 H 0.96361 0.28468 0.39596 0.0
C715 C 0.86937 0.288 0.29121 0.0
C716 C 0.85199 0.29373 0.34139 0.0
H717 H 0.93705 0.30177 0.3722 0.0
C718 C 0.82619 0.28781 0.35328 0.0
C719 C 0.89207 0.29894 0.34822 0.0
C720 C 0.91925 0.30574 0.33605 0.0
C721 C 0.84066 0.28666 0.3718 0.0
C722 C 0.88157 0.29166 0.37851 0.0
C723 C 0.90668 0.29776 0.36674 0.0
C724 C 0.89378 0.29175 0.39839 0.0
C725 C 0.8128 0.28 0.38404 0.0
C726 C 0.86142 0.29621 0.41045 0.0
C727 C 0.87227 0.29689 0.42917 0.0
C728 C 0.9158 0.2931 0.43635 0.0
C729 C 0.94891 0.28869 0.42425 0.0
C730 C 0.93796 0.28805 0.40525 0.0
H731 H 0.7881 0.27544 0.37589 0.0
H732 H 0.83876 0.27567 0.39214 0.0
H733 H 0.78994 0.28389 0.39409 0.0
H734 H 0.82774 0.29927 0.40529 0.0
H735 H 0.84617 0.30042 0.43803 0.0
H736 H 0.50923 0.04919 0.68046 0.0
H737 H 0.52428 0.04933 0.64665 0.0
H738 H 0.64909 0.03139 0.65462 0.0
H739 H 0.63305 0.03101 0.68782 0.0
H740 H 0.61343 0.05607 0.63149 0.0
H741 H 0.58443 0.01971 0.61022 0.0
H742 H 0.5557 0.02464 0.63052 0.0
H743 H 0.61863 0.0209 0.63135 0.0
C744 C 0.53817 0.04494 0.6747 0.0
C745 C 0.56982 0.04 0.68641 0.0
C746 C 0.54723 0.04512 0.65555 0.0
C747 C 0.58765 0.04032 0.64816 0.0
C748 C 0.61709 0.03496 0.65993 0.0
H749 H 0.73717 0.03525 0.54151 0.0
H750 H 0.72418 0.0362 0.57538 0.0
C751 C 0.6079 0.03473 0.67886 0.0
C752 C 0.60265 0.04142 0.62858 0.0
H753 H 0.63265 0.02902 0.59006 0.0
C754 C 0.61714 0.05019 0.62231 0.0
C755 C 0.60795 0.03371 0.6168 0.0
C756 C 0.59045 0.02422 0.62246 0.0
C757 C 0.63759 0.05141 0.60455 0.0
C758 C 0.64378 0.04363 0.59297 0.0
C759 C 0.62912 0.0349 0.59924 0.0
C760 C 0.65809 0.04446 0.57329 0.0
C761 C 0.65278 0.06095 0.59832 0.0
C762 C 0.62545 0.0488 0.56114 0.0
C763 C 0.63242 0.0482 0.54213 0.0
C764 C 0.67207 0.04318 0.53474 0.0
C765 C 0.70621 0.03911 0.54686 0.0
C766 C 0.69901 0.03971 0.56611 0.0
H767 H 0.65556 0.06582 0.61016 0.0
H768 H 0.68867 0.06072 0.59097 0.0
H769 H 0.62506 0.06371 0.58848 0.0
H770 H 0.59297 0.05226 0.56633 0.0
H771 H 0.60556 0.05149 0.53322 0.0
H772 H 0.69366 0.19024 0.68597 0.0
H773 H 0.67782 0.19182 0.65241 0.0
H774 H 0.64404 0.16284 0.64925 0.0
H775 H 0.65902 0.16129 0.68255 0.0
H776 H 0.71533 0.18119 0.61939 0.0
H777 H 0.5151 0.17586 0.63251 0.0
H778 H 0.55558 0.18075 0.64979 0.0
H779 H 0.55723 0.16864 0.64503 0.0
C780 C 0.68449 0.18419 0.67789 0.0
C781 C 0.67698 0.17567 0.6866 0.0
C782 C 0.67489 0.18511 0.65887 0.0
C783 C 0.6583 0.17749 0.64862 0.0
C784 C 0.65556 0.16883 0.65709 0.0
H785 H 0.56309 0.16245 0.53981 0.0
H786 H 0.58433 0.1635 0.57281 0.0
C787 C 0.66468 0.16793 0.67599 0.0
C788 C 0.64196 0.1785 0.6292 0.0
H789 H 0.54143 0.17586 0.60137 0.0
C790 C 0.67725 0.18019 0.61539 0.0
C791 C 0.59223 0.17706 0.62418 0.0
C792 C 0.55261 0.17552 0.6386 0.0
C793 C 0.66433 0.18014 0.5965 0.0
C794 C 0.61468 0.17857 0.59154 0.0
C795 C 0.57935 0.17707 0.60536 0.0
C796 C 0.59853 0.17815 0.57203 0.0
C797 C 0.70393 0.18127 0.58195 0.0
C798 C 0.59648 0.18616 0.56115 0.0
C799 C 0.58299 0.18561 0.54247 0.0
C800 C 0.57229 0.17702 0.53461 0.0
C801 C 0.57064 0.16914 0.54582 0.0
C802 C 0.58367 0.16971 0.56448 0.0
H803 H 0.74126 0.18173 0.58815 0.0
H804 H 0.703 0.17538 0.57215 0.0
H805 H 0.69708 0.18762 0.57377 0.0
H806 H 0.6069 0.19276 0.56694 0.0
H807 H 0.58531 0.19171 0.53385 0.0
H808 H 0.25064 0.93425 0.42987 0.0
H809 H 0.26222 0.93371 0.39581 0.0
H810 H 0.41894 0.93128 0.40367 0.0
H811 H 0.40811 0.93186 0.43693 0.0
H812 H 0.32424 0.94638 0.37519 0.0
H813 H 0.39127 0.91041 0.36681 0.0
H814 H 0.35008 0.91382 0.38528 0.0
H815 H 0.41453 0.91634 0.38683 0.0
C816 C 0.28737 0.93363 0.42419 0.0
C817 C 0.32841 0.93301 0.43597 0.0
C818 C 0.2939 0.93321 0.40486 0.0
C819 C 0.34136 0.93214 0.39735 0.0
C820 C 0.38196 0.93176 0.4092 0.0
H821 H 0.49714 0.93377 0.29202 0.0
H822 H 0.47686 0.93496 0.32537 0.0
C823 C 0.37561 0.93219 0.42824 0.0
C824 C 0.35056 0.93243 0.37718 0.0
H825 H 0.41013 0.92098 0.34248 0.0
C826 C 0.34222 0.94079 0.3679 0.0
C827 C 0.37485 0.92514 0.36793 0.0
C828 C 0.38294 0.91588 0.37712 0.0
C829 C 0.35904 0.94218 0.3497 0.0
C830 C 0.38436 0.93498 0.34063 0.0
C831 C 0.39177 0.92654 0.34975 0.0
C832 C 0.39817 0.93564 0.32089 0.0
C833 C 0.35072 0.9514 0.34043 0.0
C834 C 0.36074 0.93581 0.30761 0.0
C835 C 0.37206 0.93512 0.28892 0.0
C836 C 0.42109 0.93417 0.28309 0.0
C837 C 0.45911 0.93448 0.29625 0.0
C838 C 0.44758 0.93514 0.31518 0.0
H839 H 0.33974 0.95679 0.35054 0.0
H840 H 0.38445 0.95369 0.33306 0.0
H841 H 0.32095 0.95075 0.32997 0.0
H842 H 0.32247 0.93607 0.31177 0.0
H843 H 0.342 0.93504 0.27904 0.0
H844 H 0.37765 0.78351 0.43622 0.0
H845 H 0.35782 0.78354 0.40309 0.0
H846 H 0.45557 0.80657 0.39473 0.0
H847 H 0.47528 0.80656 0.42811 0.0
H848 H 0.31608 0.80116 0.38656 0.0
H849 H 0.48276 0.78707 0.35145 0.0
H850 H 0.468 0.78422 0.37524 0.0
H851 H 0.49048 0.79547 0.36962 0.0
C852 C 0.3966 0.78828 0.4271 0.0
C853 C 0.42827 0.79496 0.43438 0.0
C854 C 0.38469 0.78839 0.40832 0.0
C855 C 0.40482 0.79511 0.39662 0.0
C856 C 0.43982 0.80133 0.40362 0.0
H857 H 0.36273 0.81203 0.28627 0.0
H858 H 0.37158 0.81091 0.31976 0.0
C859 C 0.45163 0.80124 0.42253 0.0
C860 C 0.38626 0.79593 0.37746 0.0
H861 H 0.41657 0.79163 0.33239 0.0
C862 C 0.33787 0.79906 0.37468 0.0
C863 C 0.41493 0.79317 0.36214 0.0
C864 C 0.46692 0.78975 0.3646 0.0
C865 C 0.31755 0.79956 0.35676 0.0
C866 C 0.34632 0.79679 0.34147 0.0
C867 C 0.3945 0.79361 0.34429 0.0
C868 C 0.33021 0.79827 0.32216 0.0
C869 C 0.26606 0.80318 0.35411 0.0
C870 C 0.30194 0.7917 0.31259 0.0
C871 C 0.29683 0.7923 0.29323 0.0
C872 C 0.32069 0.79941 0.2835 0.0
C873 C 0.34497 0.80637 0.29342 0.0
C874 C 0.34986 0.80578 0.31255 0.0
H875 H 0.24846 0.80513 0.36746 0.0
H876 H 0.26683 0.80929 0.34485 0.0
H877 H 0.24317 0.79786 0.34721 0.0
H878 H 0.28653 0.78586 0.3199 0.0
H879 H 0.2776 0.7869 0.28583 0.0
H880 H 0.62417 0.53292 0.02933 0.0
H881 H 0.60251 0.53308 0.06217 0.0
H882 H 0.71073 0.55428 0.072 0.0
H883 H 0.731 0.55439 0.03861 0.0
H884 H 0.66175 0.53003 0.09291 0.0
H885 H 0.58409 0.56566 0.09406 0.0
H886 H 0.58595 0.55896 0.07296 0.0
H887 H 0.64136 0.56379 0.08219 0.0
C888 C 0.64442 0.53739 0.03866 0.0
C889 C 0.67944 0.54356 0.03177 0.0
C890 C 0.63147 0.5376 0.05727 0.0
C891 C 0.65402 0.54388 0.06932 0.0
C892 C 0.69201 0.54958 0.06273 0.0
H893 H 0.64017 0.55426 0.18368 0.0
H894 H 0.65515 0.5529 0.15077 0.0
C895 C 0.70457 0.54946 0.04389 0.0
C896 C 0.63833 0.54406 0.08888 0.0
H897 H 0.58211 0.55716 0.12188 0.0
C898 C 0.64411 0.53594 0.09927 0.0
C899 C 0.61499 0.5518 0.0969 0.0
C900 C 0.60584 0.56056 0.08603 0.0
C901 C 0.62808 0.53536 0.1177 0.0
C902 C 0.60549 0.54313 0.12581 0.0
C903 C 0.59905 0.55122 0.11538 0.0
C904 C 0.59499 0.5435 0.14582 0.0
C905 C 0.63721 0.52663 0.12861 0.0
C906 C 0.5557 0.53864 0.15391 0.0
C907 C 0.54692 0.53934 0.17306 0.0
C908 C 0.57755 0.54491 0.18406 0.0
C909 C 0.61605 0.54985 0.17567 0.0
C910 C 0.62481 0.5491 0.15682 0.0
H911 H 0.6556 0.52124 0.12015 0.0
H912 H 0.66056 0.52816 0.14087 0.0
H913 H 0.60185 0.52383 0.13382 0.0
H914 H 0.53209 0.53435 0.14545 0.0
H915 H 0.51711 0.53546 0.17923 0.0
H916 H 0.64094 0.69441 0.18439 0.0
H917 H 0.62098 0.69507 0.15129 0.0
H918 H 0.69671 0.6693 0.14268 0.0
H919 H 0.71515 0.6685 0.1761 0.0
H920 H 0.67968 0.69436 0.1189 0.0
H921 H 0.55702 0.66357 0.12393 0.0
H922 H 0.57016 0.67064 0.14395 0.0
H923 H 0.61623 0.66306 0.1349 0.0
C924 C 0.65483 0.68908 0.17524 0.0
C925 C 0.67974 0.68145 0.18245 0.0
C926 C 0.64285 0.68939 0.15647 0.0
C927 C 0.65608 0.68209 0.14474 0.0
C928 C 0.68502 0.67486 0.15168 0.0
H929 H 0.6214 0.66784 0.03299 0.0
H930 H 0.63516 0.66953 0.06605 0.0
C931 C 0.69652 0.6745 0.17057 0.0
C932 C 0.63857 0.6821 0.12536 0.0
H933 H 0.56387 0.67081 0.09492 0.0
C934 C 0.65413 0.68926 0.11362 0.0
C935 C 0.60501 0.67542 0.11872 0.0
C936 C 0.58576 0.66774 0.13096 0.0
C937 C 0.63829 0.68978 0.09511 0.0
C938 C 0.60528 0.68303 0.08841 0.0
C939 C 0.58874 0.67601 0.10029 0.0
C940 C 0.5938 0.68219 0.06848 0.0
C941 C 0.65899 0.69719 0.0826 0.0
C942 C 0.56449 0.68864 0.05899 0.0
C943 C 0.55663 0.68771 0.03983 0.0
C944 C 0.57835 0.68034 0.03022 0.0
C945 C 0.60494 0.67366 0.04005 0.0
C946 C 0.61291 0.67461 0.05893 0.0
H947 H 0.68492 0.70181 0.09003 0.0
H948 H 0.67861 0.69398 0.07073 0.0
H949 H 0.62872 0.70143 0.07682 0.0
H950 H 0.54869 0.69444 0.06631 0.0
H951 H 0.53592 0.69293 0.03247 0.0
H952 H 0.42268 0.4132 0.78996 0.0
H953 H 0.40842 0.41368 0.82345 0.0
H954 H 0.41581 0.44335 0.82216 0.0
H955 H 0.42936 0.44287 0.78837 0.0
H956 H 0.45813 0.42139 0.85393 0.0
H957 H 0.27585 0.43801 0.84209 0.0
H958 H 0.30668 0.43136 0.82442 0.0
H959 H 0.32729 0.44278 0.82973 0.0
C960 C 0.4228 0.4198 0.79699 0.0
C961 C 0.42672 0.428 0.78684 0.0
C962 C 0.41429 0.42007 0.81602 0.0
C963 C 0.40968 0.42855 0.82512 0.0
C964 C 0.41815 0.43675 0.81523 0.0
H965 H 0.33031 0.44305 0.93759 0.0
H966 H 0.35582 0.44302 0.90487 0.0
C967 C 0.42678 0.43648 0.79608 0.0
C968 C 0.39369 0.42871 0.84472 0.0
H969 H 0.2994 0.43535 0.87293 0.0
C970 C 0.42354 0.42446 0.85815 0.0
C971 C 0.34789 0.43253 0.84998 0.0
C972 C 0.3122 0.43637 0.83586 0.0
C973 C 0.40934 0.42414 0.87689 0.0
C974 C 0.36429 0.42825 0.88215 0.0
C975 C 0.33428 0.43239 0.86873 0.0
C976 C 0.34686 0.42831 0.90149 0.0
C977 C 0.44279 0.41961 0.89096 0.0
C978 C 0.33042 0.42015 0.90982 0.0
C979 C 0.31485 0.42021 0.92823 0.0
C980 C 0.31577 0.42842 0.93843 0.0
C981 C 0.32824 0.43671 0.92971 0.0
C982 C 0.34399 0.43665 0.91128 0.0
H983 H 0.47777 0.41719 0.88465 0.0
H984 H 0.4514 0.42451 0.90232 0.0
H985 H 0.42396 0.4136 0.89728 0.0
H986 H 0.33118 0.41371 0.90226 0.0
H987 H 0.30615 0.41374 0.93497 0.0
H988 H 0.27049 0.28395 0.79147 0.0
H989 H 0.27913 0.28356 0.82562 0.0
H990 H 0.39253 0.30428 0.82224 0.0
H991 H 0.38255 0.30506 0.78912 0.0
H992 H 0.36663 0.27848 0.8424 0.0
H993 H 0.3205 0.31376 0.8662 0.0
H994 H 0.29662 0.30897 0.84487 0.0
H995 H 0.35758 0.31375 0.84568 0.0
C996 C 0.29606 0.28859 0.7982 0.0
C997 C 0.32654 0.2944 0.78766 0.0
C998 C 0.30104 0.28836 0.81762 0.0
C999 C 0.33604 0.294 0.8265 0.0
C1000 C 0.36429 0.30008 0.81588 0.0
H1001 H 0.48518 0.3003 0.93229 0.0
H1002 H 0.4706 0.29937 0.89852 0.0
C1003 C 0.35908 0.30038 0.79679 0.0
C1004 C 0.3491 0.29282 0.84631 0.0
H1005 H 0.37514 0.30504 0.88557 0.0
C1006 C 0.36761 0.28423 0.85199 0.0
C1007 C 0.35133 0.30041 0.85862 0.0
C1008 C 0.33003 0.30972 0.85361 0.0
C1009 C 0.38969 0.28308 0.86946 0.0
C1010 C 0.39285 0.29071 0.88157 0.0
C1011 C 0.37368 0.29927 0.87603 0.0
C1012 C 0.41007 0.28973 0.90093 0.0
C1013 C 0.41057 0.27379 0.87469 0.0
C1014 C 0.38228 0.28436 0.91322 0.0
C1015 C 0.39097 0.2848 0.9322 0.0
C1016 C 0.42717 0.2907 0.9392 0.0
C1017 C 0.45768 0.29559 0.92699 0.0
C1018 C 0.44904 0.29512 0.90783 0.0
H1019 H 0.4156 0.26928 0.86238 0.0
H1020 H 0.44649 0.27458 0.88186 0.0
H1021 H 0.38504 0.27026 0.88437 0.0
H1022 H 0.35135 0.28035 0.90828 0.0
H1023 H 0.36663 0.28112 0.94154 0.0
H1024 H 0.38684 0.9591 0.23634 0.0
H1025 H 0.36118 0.97522 0.23755 0.0
H1026 H 0.2229 0.96798 0.2121 0.0
H1027 H 0.24778 0.95174 0.21139 0.0
H1028 H 0.32212 0.9883 0.20967 0.0
H1029 H 0.1872 0.97837 0.2646 0.0
H1030 H 0.24247 0.97185 0.26016 0.0
H1031 H 0.19125 0.97102 0.2446 0.0
C1032 C 0.35116 0.96097 0.23081 0.0
C1033 C 0.3185 0.9542 0.22425 0.0
C1034 C 0.33674 0.97017 0.23145 0.0
C1035 C 0.28981 0.9727 0.22532 0.0
C1036 C 0.25885 0.96606 0.21729 0.0
H1037 H 0.11791 0.01515 0.22718 0.0
H1038 H 0.14854 -0.00059 0.22371 0.0
C1039 C 0.27289 0.95683 0.21695 0.0
C1040 C 0.27139 0.98206 0.22892 0.0
H1041 H 0.18618 -0.01343 0.25432 0.0
C1042 C 0.29253 0.98953 0.21945 0.0
C1043 C 0.23324 0.98357 0.24194 0.0
C1044 C 0.21227 0.97582 0.25356 0.0
C1045 C 0.27535 -0.00868 0.22223 0.0
C1046 C 0.23646 -0.00723 0.23492 0.0
C1047 C 0.21576 -0.01467 0.24453 0.0
C1048 C 0.21663 0.00202 0.23832 0.0
C1049 C 0.29741 -0.00081 0.21126 0.0
C1050 C 0.24427 0.00851 0.24826 0.0
C1051 C 0.22719 0.0175 0.25013 0.0
C1052 C 0.182 0.02001 0.24229 0.0
C1053 C 0.15301 0.01335 0.23332 0.0
C1054 C 0.1704 0.0044 0.23126 0.0
H1055 H 0.32551 -0.00319 0.20114 0.0
H1056 H 0.26801 0.00291 0.20363 0.0
H1057 H 0.31499 0.00419 0.22083 0.0
H1058 H 0.27961 0.00666 0.25412 0.0
H1059 H 0.24957 0.02251 0.25738 0.0
H1060 H 0.92393 0.2717 0.25315 0.0
H1061 H 0.94667 0.25552 0.25734 0.0
H1062 H 0.96016 0.25244 0.1979 0.0
H1063 H 0.93831 0.26879 0.19377 0.0
H1064 H 0.90911 0.23847 0.24293 0.0
H1065 H 0.09836 0.24665 0.21851 0.0
H1066 H 0.05681 0.25539 0.22691 0.0
H1067 H 0.04809 0.25049 0.20432 0.0
C1068 C 0.93229 0.26754 0.24105 0.0
C1069 C 0.93176 0.27141 0.22325 0.0
C1070 C 0.94449 0.25832 0.24342 0.0
C1071 C 0.95603 0.25288 0.22797 0.0
C1072 C 0.95243 0.25663 0.20999 0.0
H1073 H 0.05448 0.19818 0.21274 0.0
H1074 H 0.03238 0.2145 0.21091 0.0
C1075 C 0.9405 0.26591 0.20763 0.0
C1076 C 0.97644 0.2436 0.23102 0.0
H1077 H 0.08217 0.23126 0.22738 0.0
C1078 C 0.94703 0.23687 0.23957 0.0
C1079 C 0.02567 0.24167 0.22692 0.0
C1080 C 0.05937 0.24892 0.21878 0.0
C1081 C 0.96586 0.2281 0.24365 0.0
C1082 C 0.01472 0.2261 0.23912 0.0
C1083 C 0.04437 0.23289 0.23088 0.0
C1084 C 0.03376 0.21663 0.24064 0.0
C1085 C 0.93257 0.22089 0.25209 0.0
C1086 C 0.04281 0.21254 0.25801 0.0
C1087 C 0.05526 0.2032 0.25904 0.0
C1088 C 0.0578 0.19794 0.24275 0.0
C1089 C 0.05061 0.20211 0.22545 0.0
C1090 C 0.03886 0.21142 0.22439 0.0
H1091 H 0.89436 0.22342 0.25399 0.0
H1092 H 0.93169 0.21468 0.24311 0.0
H1093 H 0.94707 0.21875 0.26584 0.0
H1094 H 0.03955 0.21652 0.27066 0.0
H1095 H 0.06259 0.2001 0.27244 0.0
H1096 H 0.16175 0.20222 0.95102 0.0
H1097 H 0.18488 0.21857 0.9543 0.0
H1098 H 0.22326 0.21379 0.0033 0.0
H1099 H 0.20268 0.19749 -0.00028 0.0
H1100 H 0.15515 0.23289 0.9809 0.0
H1101 H 0.35182 0.2228 0.9878 0.0
H1102 H 0.30645 0.21559 0.9767 0.0
H1103 H 0.30952 0.21635 -0.00683 0.0
C1104 C 0.17615 0.2047 0.96413 0.0
C1105 C 0.18323 0.19864 0.97906 0.0
C1106 C 0.18848 0.21398 0.96608 0.0
C1107 C 0.20686 0.21722 0.9831 0.0
C1108 C 0.21057 0.21132 -0.01006 0.0
H1109 H 0.32067 0.26856 0.01912 0.0
H1110 H 0.29498 0.25241 0.01468 0.0
C1111 C 0.19945 0.20205 -0.01214 0.0
C1112 C 0.2262 0.22664 0.98484 0.0
H1113 H 0.33193 0.23845 -0.01361 0.0
C1114 C 0.19375 0.23412 0.98377 0.0
C1115 C 0.27666 0.22814 0.98853 0.0
C1116 C 0.31328 0.2203 0.98857 0.0
C1117 C 0.21039 0.24313 0.98691 0.0
C1118 C 0.26081 0.24469 -0.01736 0.0
C1119 C 0.29336 0.23722 -0.01654 0.0
C1120 C 0.28001 0.25406 -0.01469 0.0
C1121 C 0.17423 0.25103 0.9863 0.0
C1122 C 0.28065 0.26004 0.97858 0.0
C1123 C 0.29347 0.2692 0.98123 0.0
C1124 C 0.30662 0.27242 -0.00944 0.0
C1125 C 0.30866 0.26627 0.00554 0.0
C1126 C 0.29485 0.25709 0.00296 0.0
H1127 H 0.13552 0.24861 0.9857 0.0
H1128 H 0.17901 0.2556 -0.0097 0.0
H1129 H 0.1813 0.25532 0.97382 0.0
H1130 H 0.2705 0.25772 0.96481 0.0
H1131 H 0.29417 0.27382 0.9694 0.0
H1132 H 0.10267 0.01796 -0.00126 0.0
H1133 H 0.08017 0.00173 0.00191 0.0
H1134 H 0.01036 0.00244 0.95643 0.0
H1135 H 0.03284 0.01881 0.9533 0.0
H1136 H 0.97661 -0.00205 0.00069 0.0
H1137 H 0.08181 0.98396 0.95817 0.0
H1138 H 0.10711 -0.01296 0.96859 0.0
H1139 H 0.06133 -0.01205 0.9508 0.0
C1140 C 0.08278 0.01461 -0.01242 0.0
C1141 C 0.06756 0.0195 0.98029 0.0
C1142 C 0.07063 0.00537 -0.01072 0.0
C1143 C 0.04369 0.00089 0.98359 0.0
C1144 C 0.03136 0.00574 0.96734 0.0
H1145 H 0.88803 0.95744 0.97448 0.0
H1146 H 0.90857 0.97383 0.97328 0.0
C1147 C 0.04317 0.01506 0.96571 0.0
C1148 C 0.02094 -0.00807 0.98751 0.0
H1149 H 0.01708 0.97671 0.97414 0.0
C1150 C 0.98575 -0.00829 -0.00683 0.0
C1151 C 0.03319 -0.0161 0.97755 0.0
C1152 C 0.07316 -0.01617 0.96298 0.0
C1153 C 0.96097 -0.01647 -0.00262 0.0
C1154 C 0.97263 0.98274 -0.01277 0.0
C1155 C 0.00802 0.98295 0.98168 0.0
C1156 C 0.94933 0.97381 -0.00924 0.0
C1157 C 0.92181 -0.0165 0.01225 0.0
C1158 C 0.96475 0.96844 0.0059 0.0
C1159 C 0.95431 0.95903 0.00631 0.0
C1160 C 0.92803 0.95503 -0.00831 0.0
C1161 C 0.90941 0.96044 0.98565 0.0
C1162 C 0.92029 0.96978 0.98512 0.0
H1163 H 0.91484 -0.00951 0.01794 0.0
H1164 H 0.88676 0.98793 0.00652 0.0
H1165 H 0.93303 0.98613 0.02382 0.0
H1166 H 0.9874 0.9714 0.01673 0.0
H1167 H 0.96718 0.95488 0.01783 0.0
H1168 H 0.62002 0.0147 0.76325 0.0
H1169 H 0.64484 -0.00151 0.7601 0.0
H1170 H 0.77055 0.00691 0.72769 0.0
H1171 H 0.74705 0.023 0.73127 0.0
H1172 H 0.66232 -0.01142 0.72484 0.0
H1173 H 0.82963 -0.00926 0.76916 0.0
H1174 H 0.77683 -0.00188 0.77229 0.0
H1175 H 0.81984 0.00036 0.75395 0.0
C1176 C 0.65345 0.01305 0.75577 0.0
C1177 C 0.68249 0.02004 0.74784 0.0
C1178 C 0.66727 0.00383 0.75389 0.0
C1179 C 0.70993 0.00159 0.74394 0.0
C1180 C 0.73825 0.00858 0.73582 0.0
H1181 H 0.8651 0.95964 0.7072 0.0
H1182 H 0.83789 0.97569 0.71105 0.0
C1183 C 0.72502 0.01774 0.73795 0.0
C1184 C 0.72552 -0.00802 0.74156 0.0
H1185 H 0.82335 0.98502 0.74891 0.0
C1186 C 0.6972 -0.01385 0.73026 0.0
C1187 C 0.77118 -0.01106 0.74863 0.0
C1188 C 0.80106 -0.00519 0.76182 0.0
C1189 C 0.71424 0.9846 0.7253 0.0
C1190 C 0.7604 0.98167 0.73205 0.0
C1191 C 0.78843 0.98744 0.74352 0.0
C1192 C 0.77706 0.97217 0.72912 0.0
C1193 C 0.68372 0.97857 0.71263 0.0
C1194 C 0.75177 0.96504 0.73803 0.0
C1195 C 0.76625 0.95597 0.73553 0.0
C1196 C 0.80699 0.95393 0.7244 0.0
C1197 C 0.83294 0.96109 0.71559 0.0
C1198 C 0.81783 0.97021 0.71788 0.0
H1199 H 0.65299 0.98242 0.70609 0.0
H1200 H 0.70707 0.97556 0.70153 0.0
H1201 H 0.66781 0.97279 0.72072 0.0
H1202 H 0.72094 0.96651 0.74709 0.0
H1203 H 0.74677 0.95059 0.74293 0.0
H1204 H 0.10096 0.70704 0.77321 0.0
H1205 H 0.07808 0.72334 0.76893 0.0
H1206 H 0.00544 0.71633 0.71755 0.0
H1207 H 0.02576 0.70012 0.72232 0.0
H1208 H 0.09337 0.7361 0.73743 0.0
H1209 H 0.89678 0.7278 0.74983 0.0
H1210 H 0.94652 0.72074 0.75838 0.0
H1211 H 0.92863 0.72013 0.73444 0.0
C1212 C 0.07913 0.70904 0.76128 0.0
C1213 C 0.06262 0.7024 0.74855 0.0
C1214 C 0.06685 0.7183 0.75871 0.0
C1215 C 0.03906 0.72094 0.74316 0.0
C1216 C 0.02557 0.71434 0.7299 0.0
H1217 H 0.90946 0.77177 0.70107 0.0
H1218 H 0.93502 0.75557 0.70492 0.0
C1219 C 0.03656 0.70511 0.73273 0.0
C1220 C 0.02081 0.73043 0.74111 0.0
H1221 H 0.91467 0.7427 0.73786 0.0
C1222 C 0.05429 0.73758 0.73766 0.0
C1223 C 0.9703 0.73227 0.74145 0.0
C1224 C 0.93337 0.72487 0.74638 0.0
C1225 C 0.03773 0.74655 0.73399 0.0
C1226 C 0.98719 0.74835 0.73401 0.0
C1227 C 0.95374 0.74122 0.73759 0.0
C1228 C 0.96871 0.75782 0.7318 0.0
C1229 C 0.07465 0.75406 0.72979 0.0
C1230 C 0.97872 0.76429 0.74571 0.0
C1231 C 0.96609 0.77347 0.74322 0.0
C1232 C 0.94206 0.77626 0.72699 0.0
C1233 C 0.92963 0.76974 0.71339 0.0
C1234 C 0.94347 0.76053 0.71568 0.0
H1235 H 0.11211 0.75126 0.72736 0.0
H1236 H 0.06308 0.75804 0.71736 0.0
H1237 H 0.07662 0.75891 0.74165 0.0
H1238 H 0.99703 0.76223 0.75842 0.0
H1239 H 0.97378 0.77835 0.75422 0.0
H1240 H 0.70957 0.70367 0.95006 0.0
H1241 H 0.73216 0.72003 0.95315 0.0
H1242 H 0.68005 0.71997 0.0014 0.0
H1243 H 0.65792 0.7037 -0.00168 0.0
H1244 H 0.67749 0.73649 0.96535 0.0
H1245 H 0.82865 0.72617 0.005 0.0
H1246 H 0.80003 0.71823 -0.01097 0.0
H1247 H 0.76901 0.72148 0.01001 0.0
C1248 C 0.70371 0.70717 0.96315 0.0
C1249 C 0.68416 0.70246 0.97841 0.0
C1250 C 0.71572 0.71648 0.96483 0.0
C1251 C 0.70854 0.72102 0.98182 0.0
C1252 C 0.68663 0.71649 -0.01167 0.0
H1253 H 0.78263 0.77501 0.0162 0.0
H1254 H 0.75513 0.75893 0.01259 0.0
C1255 C 0.6745 0.70724 -0.01337 0.0
C1256 C 0.72831 0.73033 0.98466 0.0
H1257 H 0.81536 0.74214 0.00091 0.0
C1258 C 0.70762 0.73774 0.97489 0.0
C1259 C 0.76805 0.73191 -0.01132 0.0
C1260 C 0.79313 0.72404 -0.0013 0.0
C1261 C 0.72515 0.74672 0.97748 0.0
C1262 C 0.76428 0.74829 -0.01825 0.0
C1263 C 0.78512 0.74089 -0.00858 0.0
C1264 C 0.7845 0.75752 -0.01523 0.0
C1265 C 0.70174 0.7546 0.96694 0.0
C1266 C 0.81136 0.76166 0.97898 0.0
C1267 C 0.82704 0.77069 0.98107 0.0
C1268 C 0.81559 0.77565 -0.01111 0.0
C1269 C 0.79062 0.77133 0.00348 0.0
C1270 C 0.77535 0.76222 0.00146 0.0
H1271 H 0.66786 0.75245 0.95949 0.0
H1272 H 0.69246 0.76031 0.97658 0.0
H1273 H 0.72813 0.75734 0.95656 0.0
H1274 H 0.81936 0.75804 0.96618 0.0
H1275 H 0.8471 0.77397 0.96986 0.0
H1276 H 0.20568 0.5228 0.77539 0.0
H1277 H 0.22959 0.50646 0.77321 0.0
H1278 H 0.17957 0.50583 0.7163 0.0
H1279 H 0.15618 0.52207 0.71846 0.0
H1280 H 0.17659 0.48972 0.76131 0.0
H1281 H 0.32878 0.50003 0.71372 0.0
H1282 H 0.29946 0.50802 0.72939 0.0
H1283 H 0.26915 0.50461 0.70837 0.0
C1284 C 0.20054 0.51912 0.76244 0.0
C1285 C 0.18142 0.5236 0.74682 0.0
C1286 C 0.21336 0.50984 0.76128 0.0
C1287 C 0.20733 0.50509 0.74445 0.0
C1288 C 0.18536 0.50948 0.72923 0.0
H1289 H 0.27641 0.45165 0.70075 0.0
H1290 H 0.25213 0.46784 0.70549 0.0
C1291 C 0.17248 0.51871 0.73042 0.0
C1292 C 0.22794 0.49582 0.74212 0.0
H1293 H 0.3153 0.48403 0.71789 0.0
C1294 C 0.20707 0.48844 0.75194 0.0
C1295 C 0.26793 0.4943 0.72993 0.0
C1296 C 0.29303 0.50215 0.71983 0.0
C1297 C 0.22446 0.47945 0.74945 0.0
C1298 C 0.26357 0.47792 0.73689 0.0
C1299 C 0.28501 0.48531 0.72735 0.0
C1300 C 0.28198 0.4686 0.73334 0.0
C1301 C 0.2003 0.47159 0.75981 0.0
C1302 C 0.30784 0.46393 0.74726 0.0
C1303 C 0.32129 0.45481 0.74459 0.0
C1304 C 0.30868 0.45029 0.72806 0.0
C1305 C 0.28467 0.45502 0.7138 0.0
C1306 C 0.27151 0.46422 0.71642 0.0
H1307 H 0.16652 0.47379 0.76725 0.0
H1308 H 0.19064 0.46595 0.75006 0.0
H1309 H 0.22637 0.46873 0.77018 0.0
H1310 H 0.31683 0.4673 0.76024 0.0
H1311 H 0.34113 0.45124 0.75549 0.0
H1312 H 0.38076 0.77096 0.47889 0.0
H1313 H 0.35574 0.75486 0.47655 0.0
H1314 H 0.22667 0.76069 0.50936 0.0
H1315 H 0.25092 0.77696 0.51136 0.0
H1316 H 0.32811 0.74102 0.50517 0.0
H1317 H 0.17574 0.75143 0.45762 0.0
H1318 H 0.23127 0.75813 0.46015 0.0
H1319 H 0.1855 0.75831 0.47803 0.0
C1320 C 0.34723 0.76879 0.48576 0.0
C1321 C 0.31698 0.77517 0.495 0.0
C1322 C 0.33324 0.75961 0.48446 0.0
C1323 C 0.28912 0.7567 0.49253 0.0
C1324 C 0.26046 0.76293 0.50278 0.0
H1325 H 0.1253 0.70627 0.49315 0.0
H1326 H 0.15481 0.72206 0.49679 0.0
C1327 C 0.27405 0.77217 0.50385 0.0
C1328 C 0.27097 0.74736 0.48885 0.0
H1329 H 0.18057 0.73574 0.46594 0.0
C1330 C 0.29601 0.73982 0.49656 0.0
C1331 C 0.22947 0.74593 0.47738 0.0
C1332 C 0.20393 0.75384 0.46767 0.0
C1333 C 0.27946 0.73081 0.49355 0.0
C1334 C 0.23741 0.72942 0.48238 0.0
C1335 C 0.21269 0.73694 0.47453 0.0
C1336 C 0.21811 0.72015 0.47901 0.0
C1337 C 0.30577 0.72284 0.50272 0.0
C1338 C 0.24359 0.71401 0.46745 0.0
C1339 C 0.22731 0.70496 0.46555 0.0
C1340 C 0.18497 0.70208 0.47493 0.0
C1341 C 0.1582 0.70838 0.48579 0.0
C1342 C 0.17487 0.71736 0.4879 0.0
H1343 H 0.33635 0.72515 0.51181 0.0
H1344 H 0.27936 0.71877 0.51116 0.0
H1345 H 0.3211 0.71818 0.49198 0.0
H1346 H 0.27663 0.71618 0.46027 0.0
H1347 H 0.24777 0.70022 0.45688 0.0
H1348 H 0.85831 0.45521 0.48485 0.0
H1349 H 0.88402 0.47128 0.48245 0.0
H1350 H 0.02619 0.4641 0.50418 0.0
H1351 H 0.00121 0.44791 0.50621 0.0
H1352 H 0.9286 0.48411 0.51007 0.0
H1353 H 0.05193 0.4749 0.45106 0.0
H1354 H 0.99759 0.46843 0.45644 0.0
H1355 H 0.05082 0.4672 0.4706 0.0
C1356 C 0.89502 0.45707 0.48934 0.0
C1357 C 0.92862 0.45032 0.49535 0.0
C1358 C 0.90949 0.46624 0.48796 0.0
C1359 C 0.95747 0.46876 0.49277 0.0
C1360 C 0.98985 0.46217 0.50005 0.0
H1361 H 0.13006 0.51823 0.48785 0.0
H1362 H 0.09978 0.50256 0.4923 0.0
C1363 C 0.97567 0.45297 0.50118 0.0
C1364 C 0.97504 0.47814 0.48902 0.0
H1365 H 0.05606 0.49009 0.46234 0.0
C1366 C 0.95632 0.48547 0.49959 0.0
C1367 C 0.01038 0.47979 0.47519 0.0
C1368 C 0.02866 0.47221 0.46253 0.0
C1369 C 0.97393 0.49445 0.49705 0.0
C1370 C 0.0099 0.49602 0.48345 0.0
C1371 C 0.02827 0.48873 0.47281 0.0
C1372 C 0.02891 0.50527 0.47981 0.0
C1373 C 0.95476 0.50216 0.50917 0.0
C1374 C -0.00053 0.51175 0.47064 0.0
C1375 C 0.0164 0.52071 0.46816 0.0
C1376 C 0.0631 0.52316 0.47465 0.0
C1377 C 0.09374 0.51648 0.48276 0.0
C1378 C 0.07656 0.50757 0.48543 0.0
H1379 H 0.92848 0.49967 0.51986 0.0
H1380 H 0.98591 0.50566 0.51623 0.0
H1381 H 0.93587 0.50738 0.50049 0.0
H1382 H 0.96354 0.50993 0.46585 0.0
H1383 H 0.99325 0.52575 0.46161 0.0
H1384 H 0.68341 0.52117 0.27237 0.0
H1385 H 0.70535 0.50475 0.26958 0.0
H1386 H 0.70362 0.50729 0.20983 0.0
H1387 H 0.68399 0.52368 0.21268 0.0
H1388 H 0.6633 0.48906 0.24922 0.0
H1389 H 0.84612 0.49999 0.22218 0.0
H1390 H 0.80705 0.5075 0.23564 0.0
H1391 H 0.79407 0.50545 0.21156 0.0
C1392 C 0.68882 0.51818 0.25874 0.0
C1393 C 0.6851 0.52363 0.24273 0.0
C1394 C 0.70035 0.50884 0.25714 0.0
C1395 C 0.70733 0.50492 0.2395 0.0
C1396 C 0.69974 0.51028 0.22354 0.0
H1397 H 0.80276 0.4528 0.19415 0.0
H1398 H 0.77612 0.46885 0.19896 0.0
C1399 C 0.68922 0.51961 0.22515 0.0
C1400 C 0.7275 0.49555 0.23754 0.0
H1401 H 0.82729 0.48406 0.22055 0.0
C1402 C 0.69923 0.48794 0.2431 0.0
C1403 C 0.77457 0.49418 0.22963 0.0
C1404 C 0.80751 0.50219 0.22453 0.0
C1405 C 0.71642 0.47892 0.24039 0.0
C1406 C 0.76295 0.47758 0.23204 0.0
C1407 C 0.79145 0.48518 0.22675 0.0
C1408 C 0.78257 0.46825 0.22892 0.0
C1409 C 0.68446 0.47085 0.24595 0.0
C1410 C 0.79617 0.4628 0.24415 0.0
C1411 C 0.81073 0.45372 0.24142 0.0
C1412 C 0.81182 0.45002 0.22346 0.0
C1413 C 0.80049 0.45554 0.20811 0.0
C1414 C 0.78588 0.46466 0.21084 0.0
H1415 H 0.6468 0.47303 0.24998 0.0
H1416 H 0.68177 0.46584 0.23436 0.0
H1417 H 0.70128 0.46723 0.25794 0.0
H1418 H 0.79477 0.46554 0.25813 0.0
H1419 H 0.82092 0.44956 0.25332 0.0
H1420 H 0.77195 0.2746 0.46982 0.0
H1421 H 0.75025 0.25848 0.46495 0.0
H1422 H 0.83107 0.25091 0.51424 0.0
H1423 H 0.85383 0.26718 0.51895 0.0
H1424 H 0.81152 0.24235 0.46129 0.0
H1425 H 0.68673 0.24175 0.52292 0.0
H1426 H 0.70578 0.25239 0.51213 0.0
H1427 H 0.74831 0.24599 0.52606 0.0
C1428 C 0.78426 0.26951 0.47979 0.0
C1429 C 0.81281 0.27208 0.49511 0.0
C1430 C 0.77263 0.26032 0.47683 0.0
C1431 C 0.78851 0.25357 0.48935 0.0
C1432 C 0.81801 0.25607 0.50457 0.0
H1433 H 0.73974 0.19623 0.49575 0.0
H1434 H 0.76032 0.2125 0.49943 0.0
C1435 C 0.83054 0.26531 0.50734 0.0
C1436 C 0.77091 0.24406 0.48677 0.0
H1437 H 0.6892 0.22845 0.50408 0.0
C1438 C 0.78496 0.23927 0.47065 0.0
C1439 C 0.73545 0.24022 0.49888 0.0
C1440 C 0.71775 0.24533 0.51594 0.0
C1441 C 0.7648 0.23064 0.4664 0.0
C1442 C 0.73021 0.22673 0.47873 0.0
C1443 C 0.71564 0.23156 0.49471 0.0
C1444 C 0.71466 0.21708 0.47664 0.0
C1445 C 0.78128 0.22561 0.44907 0.0
C1446 C 0.682 0.21437 0.46259 0.0
C1447 C 0.67029 0.20506 0.46045 0.0
C1448 C 0.69178 0.19843 0.47216 0.0
C1449 C 0.72427 0.2012 0.48615 0.0
C1450 C 0.73526 0.21047 0.48847 0.0
H1451 H 0.80991 0.22947 0.44128 0.0
H1452 H 0.79607 0.21873 0.45279 0.0
H1453 H 0.74935 0.22451 0.43973 0.0
H1454 H 0.6656 0.21942 0.45341 0.0
H1455 H 0.64412 0.20305 0.44986 0.0
H1456 H 0.49076 0.27236 0.70503 0.0
H1457 H 0.5185 0.25633 0.70793 0.0
H1458 H 0.39955 0.25074 0.746 0.0
H1459 H 0.37105 0.26659 0.74277 0.0
H1460 H 0.54544 0.25021 0.7446 0.0
H1461 H 0.40432 0.22752 0.71219 0.0
H1462 H 0.41253 0.23939 0.70534 0.0
H1463 H 0.38152 0.23665 0.72663 0.0
C1464 C 0.47024 0.26763 0.71371 0.0
C1465 C 0.42937 0.27064 0.72383 0.0
C1466 C 0.48573 0.25852 0.71526 0.0
C1467 C 0.46081 0.25241 0.7271 0.0
C1468 C 0.41858 0.25532 0.73653 0.0
H1469 H 0.51451 0.19812 0.76909 0.0
H1470 H 0.49353 0.21457 0.76827 0.0
C1471 C 0.40266 0.26437 0.73477 0.0
C1472 C 0.48318 0.24353 0.7319 0.0
H1473 H 0.4652 0.22037 0.73051 0.0
C1474 C 0.52819 0.24366 0.74146 0.0
C1475 C 0.45999 0.23507 0.72787 0.0
C1476 C 0.41208 0.23458 0.71733 0.0
C1477 C 0.55091 0.23548 0.74714 0.0
C1478 C 0.52735 0.22703 0.7433 0.0
C1479 C 0.48246 0.22692 0.7337 0.0
C1480 C 0.54911 0.21807 0.74791 0.0
C1481 C 0.59964 0.23591 0.75712 0.0
C1482 C 0.58799 0.21474 0.73709 0.0
C1483 C 0.59971 0.20543 0.73751 0.0
C1484 C 0.57218 0.19932 0.74854 0.0
C1485 C 0.53515 0.20271 0.76016 0.0
C1486 C 0.5239 0.21208 0.75993 0.0
H1487 H 0.60912 0.24303 0.76147 0.0
H1488 H 0.5991 0.23139 0.76955 0.0
H1489 H 0.62905 0.23338 0.74774 0.0
H1490 H 0.60707 0.21923 0.72746 0.0
H1491 H 0.62881 0.20292 0.72856 0.0
H1492 H 0.60454 0.01547 0.45039 0.0
H1493 H 0.58223 -0.00092 0.45386 0.0
H1494 H 0.50083 0.00569 0.50357 0.0
H1495 H 0.52048 0.02193 0.49957 0.0
H1496 H 0.5936 -0.01361 0.48645 0.0
H1497 H 0.39851 -0.00612 0.46864 0.0
H1498 H 0.44907 0.00102 0.46106 0.0
H1499 H 0.42672 0.00184 0.48444 0.0
C1500 C 0.58094 0.01336 0.46174 0.0
C1501 C 0.56203 0.01989 0.47425 0.0
C1502 C 0.56895 0.00406 0.46387 0.0
C1503 C 0.53902 0.00128 0.47875 0.0
C1504 C 0.52276 0.00778 0.49173 0.0
H1505 H 0.40394 0.95812 0.52062 0.0
H1506 H 0.43026 0.97426 0.51663 0.0
C1507 C 0.5334 0.01703 0.48932 0.0
C1508 C 0.52145 -0.00826 0.48049 0.0
H1509 H 0.415 0.98649 0.4824 0.0
C1510 C 0.55476 -0.01522 0.48536 0.0
C1511 C 0.47066 -0.01023 0.47914 0.0
C1512 C 0.43411 -0.00302 0.47289 0.0
C1513 C 0.53798 0.98306 0.48946 0.0
C1514 C 0.48709 0.98114 0.48843 0.0
C1515 C 0.45387 0.98809 0.48343 0.0
C1516 C 0.46884 0.97168 0.49083 0.0
C1517 C 0.57452 0.97576 0.49525 0.0
C1518 C 0.48138 0.96504 0.47755 0.0
C1519 C 0.46816 0.9559 0.48014 0.0
C1520 C 0.44105 0.95332 0.49581 0.0
C1521 C 0.4263 0.96 0.50876 0.0
C1522 C 0.44067 0.96917 0.50638 0.0
H1523 H 0.61126 0.97871 0.4984 0.0
H1524 H 0.56097 0.972 0.50768 0.0
H1525 H 0.57896 0.97067 0.48389 0.0
H1526 H 0.50197 0.96694 0.46525 0.0
H1527 H 0.47785 0.95089 0.46961 0.0
H1528 H 0.51533 0.70143 0.26556 0.0
H1529 H 0.48859 0.71758 0.26354 0.0
H1530 H 0.59147 0.72221 0.21882 0.0
H1531 H 0.6182 0.70617 0.22084 0.0
H1532 H 0.54327 0.73496 0.26446 0.0
H1533 H 0.45405 0.72773 0.19617 0.0
H1534 H 0.46875 0.71874 0.21257 0.0
H1535 H 0.5164 0.7239 0.19886 0.0
C1536 C 0.53191 0.70594 0.25534 0.0
C1537 C 0.56767 0.70266 0.24307 0.0
C1538 C 0.51714 0.71511 0.2543 0.0
C1539 C 0.53746 0.72093 0.24077 0.0
C1540 C 0.57495 0.71773 0.22911 0.0
H1541 H 0.48998 0.77624 0.20379 0.0
H1542 H 0.51643 0.76021 0.20844 0.0
C1543 C 0.59007 0.70862 0.23028 0.0
C1544 C 0.51713 0.73017 0.23793 0.0
H1545 H 0.45326 0.74314 0.20674 0.0
C1546 C 0.52342 0.73678 0.25192 0.0
C1547 C 0.49106 0.73237 0.22152 0.0
C1548 C 0.4817 0.72532 0.20644 0.0
C1549 C 0.50496 0.74572 0.24976 0.0
C1550 C 0.47989 0.74797 0.23316 0.0
C1551 C 0.47293 0.74131 0.21932 0.0
C1552 C 0.46204 0.75732 0.22963 0.0
C1553 C 0.51323 0.75275 0.26495 0.0
C1554 C 0.42183 0.76074 0.23957 0.0
C1555 C 0.40652 0.76977 0.23677 0.0
C1556 C 0.43165 0.77547 0.22417 0.0
C1557 C 0.4709 0.77196 0.21379 0.0
C1558 C 0.48573 0.76287 0.21639 0.0
H1559 H 0.53786 0.75013 0.27607 0.0
H1560 H 0.52939 0.75913 0.25905 0.0
H1561 H 0.47749 0.75462 0.27136 0.0
H1562 H 0.4028 0.75648 0.2496 0.0
H1563 H 0.37591 0.77237 0.24486 0.0
H1564 H 0.50301 0.4485 0.00509 0.0
H1565 H 0.53094 0.46453 0.00315 0.0
H1566 H 0.39227 0.47225 0.98691 0.0
H1567 H 0.36382 0.45637 0.98911 0.0
H1568 H 0.53316 0.47216 0.97416 0.0
H1569 H 0.42625 0.49371 0.01565 0.0
H1570 H 0.43606 0.48153 0.01919 0.0
H1571 H 0.39226 0.4854 0.00231 0.0
C1572 C 0.47838 0.45369 -0.00041 0.0
C1573 C 0.43197 0.45128 -0.00725 0.0
C1574 C 0.49407 0.4628 -0.00137 0.0
C1575 C 0.46361 0.46954 -0.00928 0.0
C1576 C 0.41606 0.46724 -0.01508 0.0
H1577 H 0.50264 0.52508 0.96323 0.0
H1578 H 0.47891 0.50879 0.96325 0.0
C1579 C 0.40014 0.45817 -0.01393 0.0
C1580 C 0.48434 0.47851 -0.01436 0.0
H1581 H 0.47585 0.5015 -0.00622 0.0
C1582 C 0.52088 0.47857 0.98029 0.0
C1583 C 0.46758 0.48679 -0.00633 0.0
C1584 C 0.4286 0.48692 0.00862 0.0
C1585 C 0.54169 0.48688 0.97435 0.0
C1586 C 0.52446 0.49516 0.98223 0.0
C1587 C 0.48808 0.49509 -0.01239 0.0
C1588 C 0.54484 0.50417 0.97728 0.0
C1589 C 0.58179 0.48677 0.95984 0.0
C1590 C 0.59033 0.50679 0.98462 0.0
C1591 C 0.60369 0.51603 0.98471 0.0
C1592 C 0.57139 0.52274 0.97765 0.0
C1593 C 0.52743 0.52003 0.96914 0.0
C1594 C 0.51431 0.51076 0.96889 0.0
H1595 H 0.5861 0.47988 0.95334 0.0
H1596 H 0.57395 0.49191 0.94883 0.0
H1597 H 0.61726 0.48869 0.96641 0.0
H1598 H 0.61403 0.5019 -0.01696 0.0
H1599 H 0.63826 0.51806 -0.01714 0.0
H1600 H 0.20738 0.145 0.22402 0.0
H1601 H 0.18844 0.1287 0.22126 0.0
H1602 H 0.06473 0.13202 0.25814 0.0
H1603 H 0.08292 0.14855 0.26073 0.0
H1604 H 0.18934 0.11948 0.25943 0.0
H1605 H 0.02651 0.11241 0.21436 0.0
H1606 H 0.06461 0.12244 0.21062 0.0
H1607 H 0.02522 0.1219 0.2305 0.0
C1608 C 0.17566 0.14232 0.23134 0.0
C1609 C 0.1479 0.14791 0.24328 0.0
C1610 C 0.16461 0.13304 0.22956 0.0
C1611 C 0.12594 0.1292 0.23976 0.0
C1612 C 0.09494 0.13491 0.25026 0.0
H1613 H 0.0505 0.07536 0.26938 0.0
H1614 H 0.06914 0.0918 0.26748 0.0
C1615 C 0.10567 0.14429 0.25188 0.0
C1616 C 0.1249 0.11916 0.24196 0.0
H1617 H 0.06805 0.09964 0.22722 0.0
C1618 C 0.16284 0.11511 0.25243 0.0
C1619 C 0.09047 0.1136 0.23262 0.0
C1620 C 0.04929 0.11774 0.22132 0.0
C1621 C 0.16725 0.10554 0.25381 0.0
C1622 C 0.13251 0.09999 0.24463 0.0
C1623 C 0.09486 0.10402 0.23402 0.0
C1624 C 0.12941 0.09008 0.24818 0.0
C1625 C 0.20831 0.10137 0.26517 0.0
C1626 C 0.15886 0.08377 0.23849 0.0
C1627 C 0.14867 0.07437 0.23983 0.0
C1628 C 0.10879 0.07139 0.25064 0.0
C1629 C 0.08134 0.07764 0.26103 0.0
C1630 C 0.09194 0.08696 0.25994 0.0
H1631 H 0.23209 0.10669 0.27166 0.0
H1632 H 0.19276 0.09693 0.27626 0.0
H1633 H 0.23141 0.09693 0.25616 0.0
H1634 H 0.18777 0.08614 0.2293 0.0
H1635 H 0.16981 0.06953 0.23165 0.0
H1636 H 0.07372 0.14482 0.9474 0.0
H1637 H 0.08945 0.12826 0.9488 0.0
H1638 H 0.15669 0.13163 -0.00557 0.0
H1639 H 0.13878 0.14824 -0.00673 0.0
H1640 H 0.17213 0.11773 0.95335 0.0
H1641 H 0.04417 0.11367 0.00508 0.0
H1642 H 0.04364 0.12385 -0.00929 0.0
H1643 H 0.09236 0.12206 0.00709 0.0
C1644 C 0.09223 0.14196 0.95942 0.0
C1645 C 0.1041 0.1475 0.97457 0.0
C1646 C 0.10129 0.13257 0.96023 0.0
C1647 C 0.12281 0.12869 0.97612 0.0
C1648 C 0.13863 0.13449 -0.01767 0.0
H1649 H 0.18651 0.07326 -0.00656 0.0
H1650 H 0.16731 0.08964 -0.00615 0.0
C1651 C 0.12875 0.1439 -0.01837 0.0
C1652 C 0.12549 0.11859 0.97746 0.0
H1653 H 0.076 0.10022 -0.00846 0.0
C1654 C 0.15122 0.11386 0.96354 0.0
C1655 C 0.09771 0.11374 -0.01766 0.0
C1656 C 0.0676 0.11854 -0.00288 0.0
C1657 C 0.14965 0.10425 0.96239 0.0
C1658 C 0.12192 0.0993 0.97569 0.0
C1659 C 0.09663 0.10412 -0.01868 0.0
C1660 C 0.12482 0.08922 0.9768 0.0
C1661 C 0.17872 0.09944 0.94733 0.0
C1662 C 0.10473 0.08358 0.9629 0.0
C1663 C 0.11563 0.07419 0.96264 0.0
C1664 C 0.14713 0.07047 0.97614 0.0
C1665 C 0.16359 0.07607 -0.01748 0.0
C1666 C 0.15233 0.08539 -0.01714 0.0
H1667 H 0.19944 0.10435 0.93845 0.0
H1668 H 0.20513 0.09453 0.95366 0.0
H1669 H 0.15358 0.09544 0.93828 0.0
H1670 H 0.08262 0.08651 0.95188 0.0
H1671 H 0.10178 0.06997 0.95139 0.0
H1672 H 0.82258 0.90501 0.73036 0.0
H1673 H 0.80521 0.88843 0.73398 0.0
H1674 H 0.95469 0.88226 0.71807 0.0
H1675 H 0.97232 0.89865 0.71511 0.0
H1676 H 0.82101 0.87455 0.7045 0.0
H1677 H 0.93728 0.86754 0.76656 0.0
H1678 H 0.90618 0.87838 0.76284 0.0
H1679 H 0.9618 0.87581 0.75051 0.0
C1680 C 0.85137 0.90005 0.72761 0.0
C1681 C 0.89872 0.90294 0.72242 0.0
C1682 C 0.84162 0.89066 0.72984 0.0
C1683 C 0.87923 0.88421 0.72675 0.0
C1684 C 0.92584 0.88718 0.72108 0.0
H1685 H 0.9152 0.82482 0.71244 0.0
H1686 H 0.93225 0.84147 0.71273 0.0
C1687 C 0.93573 0.89649 0.71919 0.0
C1688 C 0.87043 0.87426 0.72787 0.0
H1689 H 0.9177 0.85476 0.74731 0.0
C1690 C 0.84136 0.8702 0.71403 0.0
C1691 C 0.89788 0.86868 0.7402 0.0
C1692 C 0.92727 0.87279 0.75599 0.0
C1693 C 0.84034 0.86064 0.71178 0.0
C1694 C 0.86856 0.85508 0.72388 0.0
C1695 C 0.89723 0.85912 0.73783 0.0
C1696 C 0.86142 0.84508 0.72439 0.0
C1697 C 0.80957 0.85649 0.69641 0.0
C1698 C 0.81721 0.84173 0.73161 0.0
C1699 C 0.80741 0.83237 0.73146 0.0
C1700 C 0.84183 0.8262 0.72408 0.0
C1701 C 0.88759 0.82949 0.71779 0.0
C1702 C 0.89742 0.83894 0.71797 0.0
H1703 H 0.79658 0.86176 0.68637 0.0
H1704 H 0.83097 0.85118 0.6888 0.0
H1705 H 0.77686 0.85305 0.70248 0.0
H1706 H 0.78974 0.84641 0.73704 0.0
H1707 H 0.77231 0.83001 0.73675 0.0
H1708 H 0.91804 0.90385 0.01063 0.0
H1709 H 0.93918 0.88747 0.00824 0.0
H1710 H 0.8178 0.88332 0.97878 0.0
H1711 H 0.79719 0.89949 0.98082 0.0
H1712 H 0.86814 0.8752 0.02063 0.0
H1713 H 0.91717 0.86619 0.95629 0.0
H1714 H 0.9283 0.87744 0.96613 0.0
H1715 H 0.8681 0.87438 0.95795 0.0
C1716 C 0.89666 0.89947 0.00153 0.0
C1717 C 0.8551 0.90287 -0.0078 0.0
C1718 C 0.90905 0.89017 4e-05 0.0
C1719 C 0.88026 0.88427 -0.01096 0.0
C1720 C 0.84113 0.88778 0.987 0.0
H1721 H 0.82631 0.8252 -0.01898 0.0
H1722 H 0.80834 0.84186 -0.01825 0.0
C1723 C 0.82874 0.897 0.98851 0.0
C1724 C 0.88316 0.87422 -0.00874 0.0
H1725 H 0.88396 0.85411 0.97505 0.0
C1726 C 0.87246 0.87058 0.00891 0.0
C1727 C 0.88744 0.86819 0.98417 0.0
C1728 C 0.90134 0.87172 0.9651 0.0
C1729 C 0.86508 0.86114 0.01149 0.0
C1730 C 0.86908 0.85523 -0.00401 0.0
C1731 C 0.8796 0.85875 0.98673 0.0
C1732 C 0.87243 0.84522 -0.00167 0.0
C1733 C 0.85277 0.85752 0.03066 0.0
C1734 C 0.91394 0.84173 0.00742 0.0
C1735 C 0.92462 0.83242 0.00662 0.0
C1736 C 0.89357 0.82649 -0.00305 0.0
C1737 C 0.8504 0.82979 -0.01139 0.0
C1738 C 0.84011 0.83922 -0.0109 0.0
H1739 H 0.84024 0.86308 0.04012 0.0
H1740 H 0.82373 0.85216 0.02985 0.0
H1741 H 0.88589 0.85431 0.0369 0.0
H1742 H 0.93981 0.8463 0.01419 0.0
H1743 H 0.95794 0.82989 0.01312 0.0
H1744 H 0.09075 0.5754 0.71929 0.0
H1745 H 0.10958 0.5918 0.71621 0.0
H1746 H 0.14676 0.59293 0.77447 0.0
H1747 H 0.12967 0.57643 0.77739 0.0
H1748 H 0.04835 0.60324 0.73802 0.0
H1749 H 0.24601 0.61078 0.75137 0.0
H1750 H 0.22541 0.6 0.74154 0.0
H1751 H 0.21835 0.60217 0.76592 0.0
C1752 C 0.10391 0.57915 0.73131 0.0
C1753 C 0.10699 0.57489 0.74876 0.0
C1754 C 0.11509 0.58845 0.72949 0.0
C1755 C 0.1289 0.59356 0.74515 0.0
C1756 C 0.13656 0.58907 0.7622 0.0
H1757 H 0.134 0.64905 0.78114 0.0
H1758 H 0.11331 0.63267 0.77839 0.0
C1759 C 0.12624 0.57971 0.76393 0.0
C1760 C 0.12576 0.60368 0.74458 0.0
H1761 H 0.19036 0.6233 0.75295 0.0
C1762 C 0.0795 0.60765 0.74104 0.0
C1763 C 0.16641 0.60935 0.74868 0.0
C1764 C 0.21701 0.6054 0.75197 0.0
C1765 C 0.0726 0.6172 0.74198 0.0
C1766 C 0.11299 0.62282 0.74658 0.0
C1767 C 0.15942 0.61888 0.74966 0.0
C1768 C 0.10895 0.63287 0.74837 0.0
C1769 C 0.02234 0.62124 0.73851 0.0
C1770 C 0.11086 0.63838 0.73242 0.0
C1771 C 0.12382 0.64763 0.73396 0.0
C1772 C 0.13428 0.6514 0.75149 0.0
C1773 C 0.12681 0.64616 0.76754 0.0
C1774 C 0.11464 0.63688 0.76598 0.0
H1775 H 0.99425 0.61585 0.73687 0.0
H1776 H 0.01182 0.62585 0.75015 0.0
H1777 H 0.02334 0.62549 0.72569 0.0
H1778 H 0.1065 0.63537 0.71876 0.0
H1779 H 0.12808 0.65172 0.72147 0.0
H1780 H 0.02532 0.64711 0.48483 0.0
H1781 H 0.0438 0.63082 0.48717 0.0
H1782 H 0.1898 0.63565 0.46582 0.0
H1783 H 0.17183 0.65224 0.46376 0.0
H1784 H 0.07445 0.62218 0.45068 0.0
H1785 H 0.19569 0.61591 0.51206 0.0
H1786 H 0.15508 0.62574 0.51138 0.0
H1787 H 0.20779 0.6254 0.49654 0.0
C1788 C 0.06165 0.64477 0.48088 0.0
C1789 C 0.09666 0.65085 0.47358 0.0
C1790 C 0.07221 0.63548 0.48235 0.0
C1791 C 0.11777 0.63212 0.47651 0.0
C1792 C 0.15434 0.63821 0.47034 0.0
H1793 H 0.21244 0.57846 0.45704 0.0
H1794 H 0.19417 0.5949 0.45833 0.0
C1795 C 0.14382 0.6476 0.46893 0.0
C1796 C 0.12265 0.62214 0.47446 0.0
H1797 H 0.16386 0.60291 0.49639 0.0
C1798 C 0.09425 0.61793 0.46055 0.0
C1799 C 0.1478 0.61676 0.48768 0.0
C1800 C 0.17839 0.62111 0.50283 0.0
C1801 C 0.08981 0.60836 0.45961 0.0
C1802 C 0.11542 0.60297 0.47268 0.0
C1803 C 0.14378 0.60717 0.48662 0.0
C1804 C 0.12148 0.59306 0.46995 0.0
C1805 C 0.05835 0.60404 0.44467 0.0
C1806 C 0.08555 0.58669 0.47552 0.0
C1807 C 0.09564 0.57728 0.4744 0.0
C1808 C 0.14183 0.57433 0.46802 0.0
C1809 C 0.17672 0.5807 0.46196 0.0
C1810 C 0.16636 0.59001 0.46273 0.0
H1811 H 0.0399 0.60926 0.43581 0.0
H1812 H 0.08132 0.59955 0.43571 0.0
H1813 H 0.02978 0.59962 0.45116 0.0
H1814 H 0.05081 0.589 0.48121 0.0
H1815 H 0.06865 0.57236 0.47931 0.0
H1816 H 0.80089 0.32642 0.19557 0.0
H1817 H 0.8141 0.34305 0.19746 0.0
H1818 H 0.92484 0.33887 0.2396 0.0
H1819 H 0.91203 0.3221 0.23744 0.0
H1820 H 0.79832 0.35167 0.23446 0.0
H1821 H 0.97908 0.35902 0.20081 0.0
H1822 H 0.94345 0.34891 0.19511 0.0
H1823 H 0.97504 0.34953 0.21689 0.0
C1824 C 0.82891 0.32908 0.20483 0.0
C1825 C 0.85548 0.32319 0.21637 0.0
C1826 C 0.83636 0.33852 0.20594 0.0
C1827 C 0.87005 0.34211 0.21873 0.0
C1828 C 0.89886 0.33616 0.2296 0.0
H1829 H 0.93752 0.3973 0.24569 0.0
H1830 H 0.9127 0.38133 0.25009 0.0
C1831 C 0.89159 0.32667 0.22838 0.0
C1832 C 0.87031 0.35208 0.22191 0.0
H1833 H 0.93433 0.37163 0.21255 0.0
C1834 C 0.82816 0.35607 0.22985 0.0
C1835 C 0.90911 0.35768 0.21557 0.0
C1836 C 0.95428 0.35364 0.20652 0.0
C1837 C 0.82359 0.36564 0.23146 0.0
C1838 C 0.86257 0.37123 0.22528 0.0
C1839 C 0.90477 0.36723 0.21741 0.0
C1840 C 0.8619 0.38128 0.22699 0.0
C1841 C 0.77734 0.36977 0.2395 0.0
C1842 C 0.83871 0.38662 0.21334 0.0
C1843 C 0.85297 0.39576 0.21072 0.0
C1844 C 0.89105 0.39947 0.22155 0.0
C1845 C 0.90967 0.39443 0.23663 0.0
C1846 C 0.89493 0.38538 0.23938 0.0
H1847 H 0.75122 0.36443 0.24445 0.0
H1848 H 0.78674 0.3744 0.25123 0.0
H1849 H 0.75877 0.374 0.22875 0.0
H1850 H 0.813 0.38352 0.20371 0.0
H1851 H 0.83695 0.39966 0.19942 0.0
H1852 H 0.91415 0.3253 0.529 0.0
H1853 H 0.89887 0.34191 0.52755 0.0
H1854 H 0.8482 0.33913 0.47101 0.0
H1855 H 0.86411 0.32246 0.47245 0.0
H1856 H 0.9548 0.35154 0.49788 0.0
H1857 H 0.75334 0.35859 0.498 0.0
H1858 H 0.77924 0.34839 0.5085 0.0
H1859 H 0.77546 0.34928 0.48374 0.0
C1860 C 0.89852 0.32824 0.51649 0.0
C1861 C 0.89096 0.3228 0.50075 0.0
C1862 C 0.88974 0.33767 0.51566 0.0
C1863 C 0.87284 0.34171 0.49915 0.0
C1864 C 0.86117 0.33611 0.48386 0.0
H1865 H 0.83773 0.39825 0.46809 0.0
H1866 H 0.86105 0.38203 0.46579 0.0
C1867 C 0.8705 0.32666 0.48464 0.0
C1868 C 0.87559 0.35179 0.4971 0.0
H1869 H 0.80654 0.37127 0.49389 0.0
C1870 C 0.92246 0.35588 0.49696 0.0
C1871 C 0.83325 0.35735 0.49594 0.0
C1872 C 0.78231 0.35325 0.49664 0.0
C1873 C 0.92813 0.36546 0.49584 0.0
C1874 C 0.8858 0.37102 0.4946 0.0
C1875 C 0.83893 0.36692 0.49459 0.0
C1876 C 0.88821 0.38116 0.49398 0.0
C1877 C 0.97901 0.36959 0.49598 0.0
C1878 C 0.8991 0.38615 0.51018 0.0
C1879 C 0.88605 0.39543 0.51147 0.0
C1880 C 0.86104 0.39965 0.49674 0.0
C1881 C 0.8553 0.39496 0.47985 0.0
C1882 C 0.86911 0.38576 0.47845 0.0
H1883 H 0.00762 0.36427 0.49485 0.0
H1884 H 0.98307 0.37456 0.48436 0.0
H1885 H 0.98462 0.37343 0.50912 0.0
H1886 H 0.91373 0.38269 0.52231 0.0
H1887 H 0.89172 0.39904 0.52445 0.0
H1888 H 0.64418 0.0701 0.72521 0.0
H1889 H 0.66305 0.08663 0.72278 0.0
H1890 H 0.5897 0.09122 0.77521 0.0
H1891 H 0.57296 0.07477 0.77789 0.0
H1892 H 0.58725 0.09925 0.72079 0.0
H1893 H 0.70517 0.10799 0.7813 0.0
H1894 H 0.70548 0.09676 0.77051 0.0
H1895 H 0.6578 0.09984 0.78661 0.0
C1896 C 0.63366 0.07469 0.73638 0.0
C1897 C 0.60708 0.07139 0.75169 0.0
C1898 C 0.6444 0.08406 0.73502 0.0
C1899 C 0.62823 0.09012 0.74893 0.0
C1900 C 0.6038 0.08663 0.76463 0.0
H1901 H 0.59123 0.14727 0.77157 0.0
H1902 H 0.56846 0.13106 0.76738 0.0
C1903 C 0.59374 0.07729 0.76609 0.0
C1904 C 0.62955 0.10015 0.74609 0.0
H1905 H 0.65697 0.12011 0.7685 0.0
C1906 C 0.60316 0.10385 0.73101 0.0
C1907 C 0.65008 0.10607 0.75957 0.0
C1908 C 0.68163 0.10249 0.77531 0.0
C1909 C 0.59487 0.11336 0.72952 0.0
C1910 C 0.61365 0.11921 0.74346 0.0
C1911 C 0.64126 0.11552 0.75819 0.0
C1912 C 0.61104 0.12931 0.74219 0.0
C1913 C 0.56507 0.11706 0.71344 0.0
C1914 C 0.64001 0.13375 0.72884 0.0
C1915 C 0.65384 0.14287 0.73145 0.0
C1916 C 0.63864 0.14764 0.74741 0.0
C1917 C 0.60445 0.14359 0.75948 0.0
C1918 C 0.59099 0.13441 0.75696 0.0
H1919 H 0.54497 0.11152 0.706 0.0
H1920 H 0.53821 0.12227 0.71837 0.0
H1921 H 0.58992 0.12049 0.70337 0.0
H1922 H 0.65601 0.12993 0.71743 0.0
H1923 H 0.67872 0.14601 0.72154 0.0
H1924 H 0.54941 0.14537 0.49676 0.0
H1925 H 0.5673 0.12901 0.49996 0.0
H1926 H 0.67554 0.13096 0.45634 0.0
H1927 H 0.65841 0.14748 0.45323 0.0
H1928 H 0.54949 0.11881 0.46436 0.0
H1929 H 0.7323 0.11218 0.49694 0.0
H1930 H 0.69666 0.12231 0.50255 0.0
H1931 H 0.72645 0.12145 0.48044 0.0
C1932 C 0.57749 0.14236 0.488 0.0
C1933 C 0.60102 0.14756 0.47415 0.0
C1934 C 0.58805 0.13305 0.49001 0.0
C1935 C 0.62204 0.12881 0.47819 0.0
C1936 C 0.64909 0.13415 0.46556 0.0
H1937 H 0.6886 0.07423 0.44728 0.0
H1938 H 0.66847 0.09065 0.44794 0.0
C1939 C 0.63885 0.14353 0.46364 0.0
C1940 C 0.62169 0.1187 0.47673 0.0
H1941 H 0.68767 0.09935 0.48607 0.0
C1942 C 0.57955 0.11452 0.46916 0.0
C1943 C 0.66107 0.11322 0.48302 0.0
C1944 C 0.70678 0.11745 0.49128 0.0
C1945 C 0.57588 0.10493 0.46761 0.0
C1946 C 0.61548 0.09946 0.47374 0.0
C1947 C 0.65736 0.10363 0.48148 0.0
C1948 C 0.61705 0.08946 0.47074 0.0
C1949 C 0.53036 0.10068 0.45923 0.0
C1950 C 0.59308 0.08338 0.48293 0.0
C1951 C 0.60438 0.07399 0.48245 0.0
C1952 C 0.63997 0.07074 0.46994 0.0
C1953 C 0.6615 0.07672 0.45711 0.0
C1954 C 0.64978 0.08602 0.45741 0.0
H1955 H 0.50378 0.10595 0.4543 0.0
H1956 H 0.54064 0.09618 0.44738 0.0
H1957 H 0.51193 0.09628 0.46975 0.0
H1958 H 0.56798 0.08595 0.49338 0.0
H1959 H 0.58736 0.06937 0.49237 0.0
H1960 H 0.45764 0.89935 0.20024 0.0
H1961 H 0.44315 0.88278 0.20177 0.0
H1962 H 0.31466 0.88737 0.23574 0.0
H1963 H 0.32844 0.90413 0.2337 0.0
H1964 H 0.44083 0.87433 0.23966 0.0
H1965 H 0.27955 0.86706 0.19393 0.0
H1966 H 0.31747 0.87713 0.19054 0.0
H1967 H 0.27667 0.87656 0.21001 0.0
C1968 C 0.42567 0.8968 0.20763 0.0
C1969 C 0.39429 0.90284 0.21696 0.0
C1970 C 0.41749 0.8874 0.20853 0.0
C1971 C 0.37836 0.88392 0.21903 0.0
C1972 C 0.34501 0.88998 0.22755 0.0
H1973 H 0.30044 0.82941 0.24415 0.0
H1974 H 0.32484 0.84542 0.24776 0.0
C1975 C 0.35277 0.89949 0.22636 0.0
C1976 C 0.37639 0.87395 0.2222 0.0
H1977 H 0.32016 0.85438 0.20742 0.0
C1978 C 0.4142 0.86993 0.23281 0.0
C1979 C 0.3421 0.86834 0.21288 0.0
C1980 C 0.30161 0.87242 0.20111 0.0
C1981 C 0.41883 0.86035 0.23421 0.0
C1982 C 0.38431 0.85476 0.225 0.0
C1983 C 0.34654 0.85878 0.21441 0.0
C1984 C 0.38298 0.84474 0.22735 0.0
C1985 C 0.46044 0.85621 0.24528 0.0
C1986 C 0.41005 0.83898 0.21552 0.0
C1987 C 0.39609 0.82978 0.21336 0.0
C1988 C 0.35449 0.82642 0.22276 0.0
C1989 C 0.33136 0.83194 0.23615 0.0
C1990 C 0.34569 0.84104 0.23846 0.0
H1991 H 0.48439 0.86154 0.25163 0.0
H1992 H 0.44541 0.85175 0.25644 0.0
H1993 H 0.48321 0.85179 0.23611 0.0
H1994 H 0.43918 0.84176 0.20693 0.0
H1995 H 0.41559 0.82553 0.20345 0.0
H1996 H 0.26858 0.89898 0.49539 0.0
H1997 H 0.28736 0.88275 0.49199 0.0
H1998 H 0.44217 0.88847 0.49852 0.0
H1999 H 0.42328 0.90498 0.50222 0.0
H2000 H 0.35268 0.87418 0.4649 0.0
H2001 H 0.40309 0.8687 0.53945 0.0
H2002 H 0.36752 0.87863 0.53269 0.0
H2003 H 0.43108 0.87788 0.52638 0.0
C2004 C 0.30665 0.8968 0.49612 0.0
C2005 C 0.34441 0.90316 0.49924 0.0
C2006 C 0.31733 0.88756 0.49406 0.0
C2007 C 0.36593 0.88448 0.49496 0.0
C2008 C 0.40434 0.89078 0.49788 0.0
H2009 H 0.47293 0.83155 0.494 0.0
H2010 H 0.45184 0.84767 0.49013 0.0
C2011 C 0.39353 0.90014 0.5001 0.0
C2012 C 0.3739 0.87452 0.49377 0.0
H2013 H 0.38498 0.85568 0.52149 0.0
C2014 C 0.36057 0.87009 0.47714 0.0
C2015 C 0.38272 0.86933 0.51001 0.0
C2016 C 0.39688 0.87381 0.52821 0.0
C2017 C 0.35523 0.86051 0.47639 0.0
C2018 C 0.36431 0.85535 0.49261 0.0
C2019 C 0.37723 0.85978 0.50923 0.0
C2020 C 0.37335 0.84546 0.49179 0.0
C2021 C 0.34023 0.85592 0.45842 0.0
C2022 C 0.33561 0.83894 0.49376 0.0
C2023 C 0.34769 0.82965 0.49608 0.0
C2024 C 0.39738 0.82696 0.49645 0.0
C2025 C 0.43447 0.8335 0.49387 0.0
C2026 C 0.4225 0.84267 0.49151 0.0
H2027 H 0.3305 0.86098 0.44747 0.0
H2028 H 0.3708 0.85154 0.45327 0.0
H2029 H 0.30818 0.85134 0.46088 0.0
H2030 H 0.29744 0.84106 0.49406 0.0
H2031 H 0.31856 0.82462 0.49763 0.0
H2032 H 0.66109 0.64879 0.27583 0.0
H2033 H 0.64555 0.63222 0.27442 0.0
H2034 H 0.59935 0.6349 0.21724 0.0
H2035 H 0.61745 0.65148 0.21846 0.0
H2036 H 0.56623 0.62145 0.26592 0.0
H2037 H 0.7154 0.61718 0.21329 0.0
H2038 H 0.71002 0.62742 0.22732 0.0
H2039 H 0.66846 0.62551 0.20837 0.0
C2040 C 0.64718 0.6458 0.26309 0.0
C2041 C 0.64164 0.65113 0.24712 0.0
C2042 C 0.63821 0.6364 0.26227 0.0
C2043 C 0.62287 0.63235 0.24556 0.0
C2044 C 0.61285 0.63789 0.23003 0.0
H2045 H 0.56885 0.57632 0.21902 0.0
H2046 H 0.58691 0.59279 0.21843 0.0
C2047 C 0.62289 0.64728 0.23074 0.0
C2048 C 0.62102 0.62226 0.24439 0.0
H2049 H 0.67765 0.60375 0.22464 0.0
C2050 C 0.59045 0.61756 0.2569 0.0
C2051 C 0.65336 0.61729 0.23269 0.0
C2052 C 0.68898 0.62207 0.21972 0.0
C2053 C 0.59128 0.60796 0.25809 0.0
C2054 C 0.62326 0.60299 0.24629 0.0
C2055 C 0.6536 0.60767 0.23369 0.0
C2056 C 0.62148 0.5929 0.24549 0.0
C2057 C 0.55711 0.60317 0.27158 0.0
C2058 C 0.6378 0.58752 0.26046 0.0
C2059 C 0.62768 0.57811 0.2608 0.0
C2060 C 0.60064 0.57412 0.2463 0.0
C2061 C 0.58824 0.57937 0.23063 0.0
C2062 C 0.59887 0.58872 0.23021 0.0
H2063 H 0.53322 0.60809 0.2792 0.0
H2064 H 0.53341 0.5982 0.26402 0.0
H2065 H 0.57882 0.59923 0.28192 0.0
H2066 H 0.65621 0.59067 0.27219 0.0
H2067 H 0.63842 0.57408 0.2728 0.0
H2068 H 0.66492 0.65275 0.9604 0.0
H2069 H 0.68557 0.63629 0.96203 0.0
H2070 H 0.56153 0.63181 -0.01025 0.0
H2071 H 0.54013 0.64803 -0.01202 0.0
H2072 H 0.69454 0.62284 -0.01292 0.0
H2073 H 0.53516 0.61684 0.94821 0.0
H2074 H 0.56987 0.62744 0.94839 0.0
H2075 H 0.52571 0.62515 0.96632 0.0
C2076 C 0.64223 0.64821 0.96872 0.0
C2077 C 0.59956 0.65147 0.97758 0.0
C2078 C 0.65428 0.63888 0.96973 0.0
C2079 C 0.62383 0.63287 0.97972 0.0
C2080 C 0.58451 0.6364 -0.01837 0.0
H2081 H 0.58434 0.57374 -0.0149 0.0
H2082 H 0.57466 0.59054 -0.0112 0.0
C2083 C 0.57207 0.64554 0.9889 0.0
C2084 C 0.62942 0.62287 0.97836 0.0
H2085 H 0.5673 0.60385 0.96375 0.0
C2086 C 0.6671 0.61857 0.98839 0.0
C2087 C 0.59332 0.61757 0.96913 0.0
C2088 C 0.55388 0.62195 0.95725 0.0
C2089 C 0.66891 0.60906 -0.01851 0.0
C2090 C 0.63186 0.6037 0.981 0.0
C2091 C 0.59452 0.60801 0.97089 0.0
C2092 C 0.63614 0.59373 0.97928 0.0
C2093 C 0.70943 0.60457 -0.00737 0.0
C2094 C 0.67218 0.59023 0.96735 0.0
C2095 C 0.67728 0.58083 0.96513 0.0
C2096 C 0.64593 0.57487 0.97463 0.0
C2097 C 0.60806 0.57828 0.98589 0.0
C2098 C 0.60308 0.58777 0.98822 0.0
H2099 H 0.73096 0.60965 0.00078 0.0
H2100 H 0.69371 0.59936 0.00225 0.0
H2101 H 0.73498 0.60093 -0.01688 0.0
H2102 H 0.69689 0.59481 0.95999 0.0
H2103 H 0.70674 0.57819 0.9565 0.0
H2104 H 0.4629 0.39625 0.74234 0.0
H2105 H 0.44323 0.38004 0.74561 0.0
H2106 H 0.31127 0.38386 0.71321 0.0
H2107 H 0.33125 0.40026 0.70957 0.0
H2108 H 0.36328 0.36989 0.75869 0.0
H2109 H 0.39284 0.36548 0.68227 0.0
H2110 H 0.41449 0.3756 0.69424 0.0
H2111 H 0.35005 0.37407 0.69 0.0
C2112 C 0.42961 0.39368 0.73591 0.0
C2113 C 0.39957 0.39941 0.7251 0.0
C2114 C 0.41815 0.38443 0.73797 0.0
C2115 C 0.37658 0.38075 0.72928 0.0
C2116 C 0.34424 0.38658 0.71963 0.0
H2117 H 0.28043 0.32712 0.71376 0.0
H2118 H 0.29732 0.34349 0.71758 0.0
C2119 C 0.35578 0.39589 0.71751 0.0
C2120 C 0.37141 0.37068 0.72893 0.0
H2121 H 0.38716 0.3522 0.70049 0.0
C2122 C 0.368 0.36598 0.74598 0.0
C2123 C 0.37902 0.3657 0.71229 0.0
C2124 C 0.38455 0.37041 0.69363 0.0
C2125 C 0.37174 0.35636 0.74684 0.0
C2126 C 0.37839 0.35142 0.73015 0.0
C2127 C 0.38262 0.35612 0.71319 0.0
C2128 C 0.3699 0.34147 0.72918 0.0
C2129 C 0.36769 0.35153 0.76538 0.0
C2130 C 0.40574 0.33499 0.73432 0.0
C2131 C 0.39631 0.32559 0.73182 0.0
C2132 C 0.35108 0.32277 0.72431 0.0
C2133 C 0.31563 0.32925 0.71936 0.0
C2134 C 0.3251 0.33854 0.72168 0.0
H2135 H 0.36488 0.35644 0.77715 0.0
H2136 H 0.33477 0.347 0.76546 0.0
H2137 H 0.40031 0.34707 0.7676 0.0
H2138 H 0.44063 0.33719 0.74006 0.0
H2139 H 0.4235 0.32057 0.73609 0.0
H2140 H 0.42676 0.40153 -0.01428 0.0
H2141 H 0.44276 0.3849 -0.0181 0.0
H2142 H 0.29709 0.37897 0.00257 0.0
H2143 H 0.28085 0.39539 0.00587 0.0
H2144 H 0.43187 0.37107 0.01201 0.0
H2145 H 0.30322 0.36429 0.96169 0.0
H2146 H 0.33573 0.37506 0.96454 0.0
H2147 H 0.28253 0.3726 0.97841 0.0
C2148 C 0.39871 0.39659 -0.01041 0.0
C2149 C 0.35273 0.39954 -0.00385 0.0
C2150 C 0.40755 0.38719 -0.01281 0.0
C2151 C 0.37035 0.38082 -0.00856 0.0
C2152 C 0.32542 0.38384 -0.00134 0.0
H2153 H 0.33297 0.32176 0.00796 0.0
H2154 H 0.31675 0.33842 0.00745 0.0
C2155 C 0.31643 0.39315 0.0008 0.0
C2156 C 0.37824 0.37089 -0.00999 0.0
H2157 H 0.32542 0.35145 0.98043 0.0
C2158 C 0.40943 0.36677 0.00307 0.0
C2159 C 0.34778 0.36531 0.98686 0.0
C2160 C 0.31566 0.3695 0.97195 0.0
C2161 C 0.40989 0.35722 0.0054 0.0
C2162 C 0.37897 0.35175 -0.00588 0.0
C2163 C 0.3482 0.35585 -0.01909 0.0
C2164 C 0.38512 0.34177 -0.00643 0.0
C2165 C 0.44303 0.35299 0.01997 0.0
C2166 C 0.42756 0.33828 -0.01478 0.0
C2167 C 0.43697 0.32892 -0.01445 0.0
C2168 C 0.40387 0.3229 -0.00579 0.0
C2169 C 0.35965 0.32633 0.00164 0.0
C2170 C 0.35024 0.33578 0.00131 0.0
H2171 H 0.45813 0.35823 0.02964 0.0
H2172 H 0.42269 0.34773 0.02811 0.0
H2173 H 0.47436 0.34949 0.01308 0.0
H2174 H 0.45389 0.34277 0.98721 0.0
H2175 H 0.47059 0.32635 0.98775 0.0
H2176 H 0.01425 0.02774 0.30178 0.0
H2177 H 0.97338 0.02839 0.33193 0.0
H2178 H 0.88039 0.0503 0.3118 0.0
H2179 H 0.92072 0.04952 0.28145 0.0
H2180 H 0.96719 0.04454 0.35558 0.0
H2181 H 0.78447 0.03096 0.3333 0.0
H2182 H 0.84024 0.02865 0.32052 0.0
H2183 H 0.81174 0.03974 0.31907 0.0
C2184 C 0.98475 0.03255 0.30371 0.0
C2185 C 0.97019 0.03849 0.28936 0.0
C2186 C 0.96161 0.03297 0.32091 0.0
C2187 C 0.92404 0.03937 0.32394 0.0
C2188 C 0.90897 0.04523 0.30953 0.0
H2189 H 0.74064 0.05163 0.41738 0.0
H2190 H 0.78829 0.05222 0.38859 0.0
C2191 C 0.93163 0.04473 0.29223 0.0
C2192 C 0.9006 0.03987 0.34227 0.0
H2193 H 0.79239 0.03581 0.36452 0.0
C2194 C 0.92902 0.04263 0.35762 0.0
C2195 C 0.85094 0.03733 0.34465 0.0
C2196 C 0.81996 0.03394 0.32859 0.0
C2197 C 0.9086 0.04297 0.37548 0.0
C2198 C 0.85895 0.04046 0.3778 0.0
C2199 C 0.83055 0.03773 0.36247 0.0
C2200 C 0.83515 0.04076 0.39603 0.0
C2201 C 0.93946 0.04618 0.39171 0.0
C2202 C 0.84706 0.03427 0.40978 0.0
C2203 C 0.82047 0.03402 0.42632 0.0
C2204 C 0.78133 0.04012 0.42884 0.0
C2205 C 0.7705 0.04679 0.41538 0.0
C2206 C 0.79756 0.04715 0.39907 0.0
H2207 H 0.97619 0.0487 0.38727 0.0
H2208 H 0.92021 0.05178 0.39929 0.0
H2209 H 0.94486 0.04042 0.40162 0.0
H2210 H 0.87576 0.02923 0.40744 0.0
H2211 H 0.82894 0.02886 0.43671 0.0
H2212 H 0.22274 0.18942 0.30622 0.0
H2213 H 0.26379 0.18742 0.33611 0.0
H2214 H 0.37676 0.17117 0.30974 0.0
H2215 H 0.33636 0.17326 0.27966 0.0
H2216 H 0.28929 0.16981 0.35429 0.0
H2217 H 0.44818 0.19271 0.33724 0.0
H2218 H 0.3902 0.19351 0.32516 0.0
H2219 H 0.43105 0.18413 0.32048 0.0
C2220 C 0.25686 0.18558 0.30676 0.0
C2221 C 0.27707 0.18163 0.29069 0.0
C2222 C 0.27972 0.18434 0.3238 0.0
C2223 C 0.32285 0.17914 0.32495 0.0
C2224 C 0.34349 0.17525 0.30893 0.0
H2225 H 0.52107 0.16993 0.41388 0.0
H2226 H 0.47067 0.16844 0.38612 0.0
C2227 C 0.32085 0.17655 0.29181 0.0
C2228 C 0.34731 0.17825 0.34294 0.0
H2229 H 0.44606 0.18607 0.36711 0.0
C2230 C 0.32368 0.1733 0.35717 0.0
C2231 C 0.3917 0.18295 0.34641 0.0
C2232 C 0.41684 0.18868 0.33161 0.0
C2233 C 0.34383 0.17292 0.37506 0.0
C2234 C 0.38818 0.17761 0.37844 0.0
C2235 C 0.41184 0.18251 0.3642 0.0
C2236 C 0.41258 0.17722 0.39646 0.0
C2237 C 0.31848 0.16745 0.39017 0.0
C2238 C 0.39518 0.18241 0.41154 0.0
C2239 C 0.42379 0.18323 0.42752 0.0
C2240 C 0.47006 0.17905 0.42806 0.0
C2241 C 0.486 0.17347 0.41335 0.0
C2242 C 0.45721 0.17251 0.39766 0.0
H2243 H 0.28533 0.1638 0.38498 0.0
H2244 H 0.34434 0.16233 0.39614 0.0
H2245 H 0.30723 0.17212 0.40159 0.0
H2246 H 0.36069 0.1861 0.41061 0.0
H2247 H 0.41092 0.1874 0.439 0.0
H2248 H 0.71306 0.18538 0.81202 0.0
H2249 H 0.75604 0.18366 0.84146 0.0
H2250 H 0.88586 0.17445 0.81246 0.0
H2251 H 0.84314 0.17619 0.78271 0.0
H2252 H 0.80389 0.1667 0.8557 0.0
H2253 H 0.92761 0.197 0.84534 0.0
H2254 H 0.86956 0.19593 0.83338 0.0
H2255 H 0.92083 0.18901 0.82645 0.0
C2256 C 0.75105 0.18314 0.81184 0.0
C2257 C 0.77511 0.181 0.7951 0.0
C2258 C 0.77516 0.18204 0.82866 0.0
C2259 C 0.82365 0.17889 0.82896 0.0
C2260 C 0.84826 0.17691 0.81232 0.0
H2261 H 0.03018 0.17294 0.91603 0.0
H2262 H 0.98274 0.17175 0.88761 0.0
C2263 C 0.82412 0.178 0.7954 0.0
C2264 C 0.8488 0.17814 0.84684 0.0
H2265 H 0.93486 0.18879 0.87343 0.0
C2266 C 0.83269 0.17147 0.85966 0.0
C2267 C 0.8856 0.18452 0.85176 0.0
C2268 C 0.90195 0.19207 0.83862 0.0
C2269 C 0.85326 0.17097 0.87747 0.0
C2270 C 0.89031 0.17731 0.88226 0.0
C2271 C 0.90623 0.18397 0.86947 0.0
C2272 C 0.91579 0.17687 0.90008 0.0
C2273 C 0.83633 0.16363 0.89094 0.0
C2274 C 0.8932 0.18 0.91643 0.0
C2275 C 0.92047 0.18065 0.93278 0.0
C2276 C 0.97045 0.17837 0.93258 0.0
C2277 C 0.99241 0.175 0.9163 0.0
C2278 C 0.9651 0.1742 0.90017 0.0
H2279 H 0.8083 0.15899 0.88475 0.0
H2280 H 0.86823 0.15943 0.89555 0.0
H2281 H 0.82034 0.16689 0.90348 0.0
H2282 H 0.85509 0.18216 0.91639 0.0
H2283 H 0.90305 0.18314 0.94534 0.0
H2284 H 0.21966 0.04726 0.91808 0.0
H2285 H 0.2643 0.04876 0.88881 0.0
H2286 H 0.38146 0.03193 0.91083 0.0
H2287 H 0.33675 0.03047 0.94043 0.0
H2288 H 0.36493 0.05532 0.88268 0.0
H2289 H 0.33308 0.01868 0.86229 0.0
H2290 H 0.29202 0.02476 0.87771 0.0
H2291 H 0.35079 0.02095 0.8859 0.0
C2292 C 0.25475 0.0438 0.91655 0.0
C2293 C 0.27467 0.03853 0.93106 0.0
C2294 C 0.28022 0.04475 0.89999 0.0
C2295 C 0.32541 0.04032 0.89775 0.0
C2296 C 0.34608 0.03526 0.91242 0.0
H2297 H 0.52523 0.03201 0.80971 0.0
H2298 H 0.48369 0.03405 0.8394 0.0
C2299 C 0.32082 0.03442 0.92917 0.0
C2300 C 0.35006 0.04081 0.87976 0.0
H2301 H 0.38102 0.02779 0.84239 0.0
C2302 C 0.3686 0.04934 0.87378 0.0
C2303 C 0.35351 0.03297 0.86829 0.0
C2304 C 0.33113 0.02381 0.87371 0.0
C2305 C 0.39242 0.05016 0.85662 0.0
C2306 C 0.39708 0.04223 0.84545 0.0
C2307 C 0.37743 0.03378 0.85126 0.0
C2308 C 0.42444 0.04222 0.82801 0.0
C2309 C 0.41374 0.05933 0.85079 0.0
C2310 C 0.40396 0.04605 0.81191 0.0
C2311 C 0.42723 0.04481 0.79487 0.0
C2312 C 0.47101 0.03972 0.79389 0.0
C2313 C 0.4912 0.03588 0.81008 0.0
C2314 C 0.46807 0.03715 0.82704 0.0
H2315 H 0.40828 0.06474 0.8615 0.0
H2316 H 0.45374 0.05859 0.84807 0.0
H2317 H 0.39625 0.06165 0.83768 0.0
H2318 H 0.36965 0.04982 0.81251 0.0
H2319 H 0.41155 0.04797 0.7826 0.0
H2320 H 0.22202 0.95034 0.54672 0.0
H2321 H 0.18188 0.94956 0.57722 0.0
H2322 H 0.16891 0.92005 0.5719 0.0
H2323 H 0.20852 0.92086 0.54126 0.0
H2324 H 0.08543 0.94172 0.5822 0.0
H2325 H 0.22915 0.92437 0.62508 0.0
H2326 H 0.24418 0.93095 0.60455 0.0
H2327 H 0.217 0.91976 0.60234 0.0
C2328 C 0.2098 0.94375 0.55207 0.0
C2329 C 0.21652 0.9357 0.5418 0.0
C2330 C 0.18773 0.94328 0.56943 0.0
C2331 C 0.17342 0.93474 0.57675 0.0
C2332 C 0.18051 0.92666 0.56648 0.0
H2333 H 0.01641 0.92068 0.6768 0.0
H2334 H 0.0545 0.92043 0.64591 0.0
C2335 C 0.20197 0.92715 0.54897 0.0
C2336 C 0.14658 0.93447 0.59433 0.0
H2337 H 0.15354 0.92757 0.63941 0.0
C2338 C 0.10017 0.93865 0.59476 0.0
C2339 C 0.1664 0.9304 0.61049 0.0
C2340 C 0.21703 0.92615 0.61078 0.0
C2341 C 0.07272 0.93892 0.61113 0.0
C2342 C 0.0926 0.93488 0.6273 0.0
C2343 C 0.13873 0.93059 0.62682 0.0
C2344 C 0.06701 0.93515 0.64513 0.0
C2345 C 0.0226 0.94338 0.61096 0.0
C2346 C 0.06284 0.94348 0.65482 0.0
C2347 C 0.04165 0.94361 0.67241 0.0
C2348 C 0.02557 0.93539 0.68038 0.0
C2349 C 0.03021 0.92703 0.67085 0.0
C2350 C 0.051 0.92691 0.65324 0.0
H2351 H 0.01102 0.94545 0.59676 0.0
H2352 H 0.99538 0.93857 0.61676 0.0
H2353 H 0.023 0.94961 0.61985 0.0
H2354 H 0.07609 0.94985 0.64879 0.0
H2355 H 0.0369 0.9501 0.67959 0.0
H2356 H 0.66905 0.7835 0.68744 0.0
H2357 H 0.62301 0.78425 0.65804 0.0
H2358 H 0.72037 0.80565 0.63842 0.0
H2359 H 0.7672 0.80466 0.66729 0.0
H2360 H 0.57703 0.79981 0.64176 0.0
H2361 H 0.72739 0.78615 0.59693 0.0
H2362 H 0.72522 0.78414 0.62167 0.0
H2363 H 0.7446 0.79511 0.61282 0.0
C2364 C 0.68041 0.78828 0.67671 0.0
C2365 C 0.72197 0.7938 0.67905 0.0
C2366 C 0.65445 0.78872 0.66008 0.0
C2367 C 0.6697 0.79478 0.64602 0.0
C2368 C 0.70952 0.80069 0.64891 0.0
H2369 H 0.56766 0.80587 0.53479 0.0
H2370 H 0.60512 0.80748 0.56554 0.0
C2371 C 0.73594 0.80013 0.66531 0.0
C2372 C 0.64329 0.79514 0.62839 0.0
H2373 H 0.65688 0.79178 0.58192 0.0
C2374 C 0.59418 0.79803 0.62865 0.0
C2375 C 0.6665 0.79284 0.61145 0.0
C2376 C 0.71871 0.78932 0.61059 0.0
C2377 C 0.56723 0.79868 0.61219 0.0
C2378 C 0.59057 0.79642 0.59528 0.0
C2379 C 0.63977 0.79362 0.59502 0.0
C2380 C 0.56418 0.79618 0.57764 0.0
C2381 C 0.51438 0.80181 0.61296 0.0
C2382 C 0.53016 0.78913 0.57441 0.0
C2383 C 0.50925 0.78814 0.55693 0.0
C2384 C 0.52296 0.7941 0.54252 0.0
C2385 C 0.55772 0.80105 0.54566 0.0
C2386 C 0.57817 0.80211 0.56321 0.0
H2387 H 0.50402 0.80443 0.62692 0.0
H2388 H 0.50787 0.8073 0.60252 0.0
H2389 H 0.48988 0.79595 0.60951 0.0
H2390 H 0.52035 0.78434 0.58534 0.0
H2391 H 0.482 0.78281 0.55471 0.0
H2392 H 0.15123 0.79558 0.189 0.0
H2393 H 0.1048 0.79705 0.15993 0.0
H2394 H 0.23859 0.7933 0.12861 0.0
H2395 H 0.28472 0.79153 0.15723 0.0
H2396 H 0.12133 0.80988 0.12954 0.0
H2397 H 0.14691 0.77333 0.10817 0.0
H2398 H 0.15203 0.77705 0.13202 0.0
H2399 H 0.20164 0.779 0.11605 0.0
C2400 C 0.17037 0.79486 0.17589 0.0
C2401 C 0.22116 0.79319 0.17531 0.0
C2402 C 0.14405 0.7958 0.15939 0.0
C2403 C 0.16845 0.79508 0.1423 0.0
C2404 C 0.21921 0.79362 0.14174 0.0
H2405 H 0.095 0.79538 0.02607 0.0
H2406 H 0.13855 0.79741 0.05563 0.0
C2407 C 0.24534 0.79257 0.15811 0.0
C2408 C 0.14144 0.79572 0.12478 0.0
H2409 H 0.1172 0.78366 0.08538 0.0
C2410 C 0.11988 0.80416 0.11988 0.0
C2411 C 0.14018 0.78819 0.11238 0.0
C2412 C 0.16101 0.77885 0.11742 0.0
C2413 C 0.09759 0.80532 0.10249 0.0
C2414 C 0.09754 0.79783 0.08998 0.0
C2415 C 0.11858 0.7894 0.09501 0.0
C2416 C 0.07209 0.79818 0.07212 0.0
C2417 C 0.07478 0.81448 0.0975 0.0
C2418 C 0.02077 0.7978 0.07193 0.0
C2419 C 0.99666 0.7964 0.0553 0.0
C2420 C 0.02259 0.79543 0.03864 0.0
C2421 C 0.07401 0.796 0.03879 0.0
C2422 C 0.09872 0.7973 0.05553 0.0
H2423 H 0.08449 0.81996 0.10762 0.0
H2424 H 0.08671 0.81666 0.08342 0.0
H2425 H 0.03415 0.81378 0.09724 0.0
H2426 H -6e-05 0.79826 0.08473 0.0
H2427 H 0.95684 0.79617 0.0555 0.0
H2428 H 0.78183 0.94237 0.05526 0.0
H2429 H 0.73859 0.94088 0.08467 0.0
H2430 H 0.61611 0.92806 0.05666 0.0
H2431 H 0.66003 0.92926 0.027 0.0
H2432 H 0.64595 0.94916 0.0902 0.0
H2433 H 0.64214 0.91119 0.10287 0.0
H2434 H 0.69009 0.91655 0.08928 0.0
H2435 H 0.62961 0.91534 0.07978 0.0
C2436 C 0.7456 0.93927 0.05532 0.0
C2437 C 0.72384 0.93602 0.03891 0.0
C2438 C 0.72132 0.93833 0.07212 0.0
C2439 C 0.67482 0.93423 0.07272 0.0
C2440 C 0.65253 0.93107 0.05637 0.0
H2441 H 0.46131 0.9313 0.15876 0.0
H2442 H 0.50768 0.93118 0.12976 0.0
C2443 C 0.67706 0.93195 0.03947 0.0
C2444 C 0.64807 0.93432 0.09033 0.0
H2445 H 0.60377 0.92077 0.12505 0.0
C2446 C 0.63675 0.94297 0.09789 0.0
C2447 C 0.63669 0.92617 0.10011 0.0
C2448 C 0.65031 0.91676 0.09274 0.0
C2449 C 0.61404 0.94373 0.11517 0.0
C2450 C 0.60228 0.9356 0.1249 0.0
C2451 C 0.61334 0.92693 0.11736 0.0
C2452 C 0.57518 0.93595 0.14237 0.0
C2453 C 0.60169 0.95317 0.12274 0.0
C2454 C 0.59842 0.93868 0.15886 0.0
C2455 C 0.57215 0.93874 0.17546 0.0
C2456 C 0.52253 0.93616 0.17552 0.0
C2457 C 0.49938 0.93351 0.15893 0.0
C2458 C 0.52572 0.93336 0.14244 0.0
H2459 H 0.61198 0.95877 0.113 0.0
H2460 H 0.56166 0.95362 0.12565 0.0
H2461 H 0.62132 0.9543 0.13606 0.0
H2462 H 0.63687 0.94063 0.15888 0.0
H2463 H 0.59052 0.94072 0.18819 0.0
H2464 H 0.90267 0.54249 0.78109 0.0
H2465 H 0.85461 0.54382 0.80983 0.0
H2466 H 0.98871 0.54419 0.84186 0.0
H2467 H 0.03614 0.54286 0.81353 0.0
H2468 H 0.86418 0.53047 0.83929 0.0
H2469 H 0.90888 0.56586 0.86393 0.0
H2470 H 0.91018 0.56268 0.83966 0.0
H2471 H 0.95957 0.55938 0.85476 0.0
C2472 C 0.92168 0.54283 0.79429 0.0
C2473 C 0.97312 0.54247 0.79518 0.0
C2474 C 0.89439 0.54371 0.81058 0.0
C2475 C 0.91849 0.54435 0.82777 0.0
C2476 C 0.96977 0.54397 0.82863 0.0
H2477 H 0.84211 0.54142 0.94432 0.0
H2478 H 0.88705 0.54114 0.91472 0.0
C2479 C 0.99695 0.54301 0.81247 0.0
C2480 C 0.89066 0.54414 0.84515 0.0
H2481 H 0.87342 0.55559 0.88588 0.0
C2482 C 0.86551 0.53599 0.84942 0.0
C2483 C 0.89362 0.55136 0.85827 0.0
C2484 C 0.91917 0.56036 0.85395 0.0
C2485 C 0.84368 0.53475 0.86679 0.0
C2486 C 0.84719 0.5419 0.88001 0.0
C2487 C 0.87191 0.5501 0.87569 0.0
C2488 C 0.82126 0.54137 0.89777 0.0
C2489 C 0.81763 0.52579 0.87099 0.0
C2490 C 0.76994 0.54168 0.89775 0.0
C2491 C 0.7445 0.54178 0.91442 0.0
C2492 C 0.77018 0.54169 0.93135 0.0
C2493 C 0.82169 0.5414 0.9314 0.0
C2494 C 0.84723 0.54124 0.91461 0.0
H2495 H 0.82632 0.52037 0.86061 0.0
H2496 H 0.82776 0.52325 0.88502 0.0
H2497 H 0.77729 0.52692 0.87082 0.0
H2498 H 0.74963 0.54205 0.88482 0.0
H2499 H 0.70474 0.5422 0.91398 0.0
H2500 H 0.3109 0.66965 0.78755 0.0
H2501 H 0.3491 0.66817 0.81822 0.0
H2502 H 0.29676 0.69527 0.83285 0.0
H2503 H 0.25694 0.69662 0.80244 0.0
H2504 H 0.42052 0.68024 0.83176 0.0
H2505 H 0.25722 0.68002 0.87857 0.0
H2506 H 0.25444 0.67602 0.85483 0.0
H2507 H 0.25562 0.68813 0.85974 0.0
C2508 C 0.3085 0.67534 0.79724 0.0
C2509 C 0.28226 0.68333 0.79274 0.0
C2510 C 0.32932 0.67442 0.81478 0.0
C2511 C 0.32445 0.68152 0.82782 0.0
C2512 C 0.29939 0.68962 0.8231 0.0
H2513 H 0.44691 0.69742 0.93188 0.0
H2514 H 0.40833 0.6965 0.90101 0.0
C2515 C 0.2778 0.69047 0.80569 0.0
C2516 C 0.3504 0.68094 0.84561 0.0
H2517 H 0.33459 0.68221 0.89244 0.0
C2518 C 0.40187 0.68055 0.84507 0.0
C2519 C 0.3255 0.68137 0.86282 0.0
C2520 C 0.27013 0.68134 0.86417 0.0
C2521 C 0.4295 0.68091 0.8614 0.0
C2522 C 0.40454 0.68166 0.87852 0.0
C2523 C 0.35314 0.68178 0.87912 0.0
C2524 C 0.43054 0.68237 0.8962 0.0
C2525 C 0.48489 0.68079 0.8602 0.0
C2526 C 0.45421 0.67465 0.90357 0.0
C2527 C 0.47534 0.67515 0.92108 0.0
C2528 C 0.47241 0.68335 0.93129 0.0
C2529 C 0.44833 0.69104 0.92413 0.0
C2530 C 0.42722 0.69054 0.90656 0.0
H2531 H 0.49823 0.68125 0.84565 0.0
H2532 H 0.50053 0.6866 0.86828 0.0
H2533 H 0.49901 0.67431 0.86635 0.0
H2534 H 0.45594 0.66826 0.89586 0.0
H2535 H 0.49468 0.66922 0.92656 0.0
H2536 H 0.00637 0.69619 0.4164 0.0
H2537 H 0.96533 0.69517 0.3863 0.0
H2538 H 0.88634 0.67114 0.4052 0.0
H2539 H 0.92655 0.67235 0.43556 0.0
H2540 H 0.96839 0.67953 0.36166 0.0
H2541 H 0.77906 0.68866 0.38528 0.0
H2542 H 0.83326 0.69175 0.39834 0.0
H2543 H 0.81153 0.68011 0.39851 0.0
C2544 C 0.97961 0.69086 0.41421 0.0
C2545 C 0.96871 0.68448 0.4282 0.0
C2546 C 0.95652 0.69021 0.39705 0.0
C2547 C 0.92295 0.6831 0.39369 0.0
C2548 C 0.91168 0.67675 0.40775 0.0
H2549 H 0.74815 0.66939 0.29884 0.0
H2550 H 0.79538 0.6692 0.32775 0.0
C2551 C 0.93411 0.6775 0.42505 0.0
C2552 C 0.8996 0.68244 0.37539 0.0
H2553 H 0.78959 0.68497 0.35352 0.0
C2554 C 0.92932 0.68071 0.35979 0.0
C2555 C 0.84877 0.68403 0.37326 0.0
C2556 C 0.81615 0.6863 0.38967 0.0
C2557 C 0.90916 0.6805 0.3419 0.0
C2558 C 0.85838 0.6821 0.33981 0.0
C2559 C 0.82864 0.68377 0.3554 0.0
C2560 C 0.83482 0.68177 0.32155 0.0
C2561 C 0.94161 0.67844 0.32535 0.0
C2562 C 0.84277 0.6888 0.30847 0.0
C2563 C 0.81649 0.68883 0.29184 0.0
C2564 C 0.7818 0.68193 0.28858 0.0
C2565 C 0.77492 0.67478 0.30138 0.0
C2566 C 0.80161 0.67467 0.31777 0.0
H2567 H 0.97961 0.67656 0.32953 0.0
H2568 H 0.92569 0.67273 0.31707 0.0
H2569 H 0.94357 0.68457 0.31618 0.0
H2570 H 0.86802 0.69438 0.3114 0.0
H2571 H 0.82155 0.6944 0.28201 0.0
H2572 H 0.49975 0.556 0.29742 0.0
H2573 H 0.45728 0.55713 0.32734 0.0
H2574 H 0.38933 0.5307 0.31752 0.0
H2575 H 0.43206 0.52958 0.28744 0.0
H2576 H 0.35244 0.55599 0.33369 0.0
H2577 H 0.45763 0.52805 0.36916 0.0
H2578 H 0.48359 0.53479 0.35049 0.0
H2579 H 0.43896 0.52605 0.34555 0.0
C2580 C 0.47538 0.55049 0.30172 0.0
C2581 C 0.46858 0.5427 0.29055 0.0
C2582 C 0.45151 0.55112 0.31869 0.0
C2583 C 0.42127 0.54391 0.32461 0.0
C2584 C 0.41345 0.53622 0.31315 0.0
H2585 H 0.24245 0.53084 0.41688 0.0
H2586 H 0.28115 0.53265 0.38641 0.0
C2587 C 0.43714 0.53562 0.29605 0.0
C2588 C 0.39686 0.54454 0.34264 0.0
H2589 H 0.39055 0.5344 0.38513 0.0
C2590 C 0.36078 0.55134 0.34504 0.0
C2591 C 0.40876 0.53847 0.35729 0.0
C2592 C 0.44952 0.53145 0.35568 0.0
C2593 C 0.33451 0.552 0.36169 0.0
C2594 C 0.34532 0.54571 0.37607 0.0
C2595 C 0.38241 0.53911 0.37385 0.0
C2596 C 0.31758 0.54543 0.39344 0.0
C2597 C 0.29443 0.55912 0.36359 0.0
C2598 C 0.32638 0.55196 0.40734 0.0
C2599 C 0.30543 0.55081 0.42484 0.0
C2600 C 0.27542 0.54315 0.42842 0.0
C2601 C 0.26624 0.5367 0.41441 0.0
C2602 C 0.28752 0.5378 0.39702 0.0
H2603 H 0.28923 0.56318 0.35065 0.0
H2604 H 0.25916 0.55571 0.3672 0.0
H2605 H 0.3036 0.56393 0.37505 0.0
H2606 H 0.35018 0.5578 0.40477 0.0
H2607 H 0.3116 0.55601 0.43537 0.0
H2608 H 0.05418 0.44576 0.17792 0.0
H2609 H 0.09696 0.44548 0.14778 0.0
H2610 H 0.05225 0.41722 0.13977 0.0
H2611 H 0.00898 0.41758 0.16958 0.0
H2612 H 0.17217 0.43297 0.13763 0.0
H2613 H 0.00945 0.42988 0.09092 0.0
H2614 H 0.00515 0.4346 0.11407 0.0
H2615 H 0.01064 0.4224 0.11079 0.0
C2616 C 0.05429 0.43951 0.1697 0.0
C2617 C 0.02929 0.43168 0.17569 0.0
C2618 C 0.07794 0.43937 0.15256 0.0
C2619 C 0.07632 0.43141 0.14152 0.0
C2620 C 0.05249 0.42348 0.14793 0.0
H2621 H 0.20259 0.41732 0.03533 0.0
H2622 H 0.16646 0.41653 0.06652 0.0
C2623 C 0.02869 0.42365 0.16495 0.0
C2624 C 0.10264 0.43116 0.12384 0.0
H2625 H 0.08748 0.42865 0.07721 0.0
C2626 C 0.15384 0.43208 0.12437 0.0
C2627 C 0.07804 0.42989 0.10674 0.0
C2628 C 0.02276 0.4292 0.10544 0.0
C2629 C 0.18159 0.43179 0.10807 0.0
C2630 C 0.15702 0.43053 0.09098 0.0
C2631 C 0.10584 0.42951 0.09047 0.0
C2632 C 0.18285 0.43074 0.07318 0.0
C2633 C 0.23675 0.43271 0.10926 0.0
C2634 C 0.20278 0.43904 0.06674 0.0
C2635 C 0.22319 0.43949 0.04906 0.0
C2636 C 0.22243 0.43172 0.03761 0.0
C2637 C 0.20185 0.42345 0.0439 0.0
C2638 C 0.18227 0.42294 0.06171 0.0
H2639 H 0.25019 0.43247 0.12383 0.0
H2640 H 0.2547 0.42712 0.10123 0.0
H2641 H 0.24825 0.43937 0.1031 0.0
H2642 H 0.20213 0.44516 0.07531 0.0
H2643 H 0.23987 0.44586 0.04438 0.0
H2644 H 0.65233 0.29084 0.18947 0.0
H2645 H 0.60517 0.2914 0.16035 0.0
H2646 H 0.74055 0.29174 0.12908 0.0
H2647 H 0.78744 0.29092 0.15768 0.0
H2648 H 0.61296 0.30529 0.13184 0.0
H2649 H 0.66372 0.27058 0.10523 0.0
H2650 H 0.66577 0.27348 0.12961 0.0
H2651 H 0.71411 0.27715 0.11431 0.0
C2652 C 0.67174 0.29086 0.17633 0.0
C2653 C 0.72326 0.29061 0.17573 0.0
C2654 C 0.64497 0.29122 0.15982 0.0
C2655 C 0.6697 0.29138 0.14271 0.0
C2656 C 0.72105 0.29132 0.14218 0.0
H2657 H 0.59166 0.29305 0.02639 0.0
H2658 H 0.63629 0.29579 0.05546 0.0
C2659 C 0.74766 0.29084 0.15854 0.0
C2660 C 0.64268 0.29194 0.12516 0.0
H2661 H 0.62827 0.28096 0.08381 0.0
C2662 C 0.61577 0.29997 0.12134 0.0
C2663 C 0.64718 0.28496 0.1116 0.0
C2664 C 0.67386 0.27602 0.11538 0.0
C2665 C 0.5934 0.30125 0.10402 0.0
C2666 C 0.59882 0.29433 0.0904 0.0
C2667 C 0.6256 0.28632 0.09426 0.0
C2668 C 0.57171 0.2945 0.07288 0.0
C2669 C 0.56432 0.30992 0.10034 0.0
C2670 C 0.52126 0.29272 0.07334 0.0
C2671 C 0.49621 0.29089 0.05699 0.0
C2672 C 0.52131 0.29088 0.03992 0.0
C2673 C 0.57177 0.29285 0.03942 0.0
C2674 C 0.59697 0.2946 0.05589 0.0
H2675 H 0.57072 0.31525 0.11114 0.0
H2676 H 0.57396 0.31282 0.08653 0.0
H2677 H 0.52448 0.30826 0.10016 0.0
H2678 H 0.50168 0.29238 0.08643 0.0
H2679 H 0.45707 0.28954 0.05776 0.0
H2680 H 0.03592 0.30619 0.54154 0.0
H2681 H 0.07395 0.30713 0.5724 0.0
H2682 H 0.07257 0.27746 0.57618 0.0
H2683 H 0.03401 0.27655 0.54538 0.0
H2684 H 0.0365 0.29919 0.60736 0.0
H2685 H 0.2179 0.28513 0.58507 0.0
H2686 H 0.17624 0.2908 0.56923 0.0
H2687 H 0.16435 0.27923 0.5766 0.0
C2688 C 0.04508 0.2999 0.54886 0.0
C2689 C 0.03406 0.29128 0.54116 0.0
C2690 C 0.06591 0.30044 0.56648 0.0
C2691 C 0.07637 0.29236 0.57633 0.0
C2692 C 0.06522 0.28375 0.56857 0.0
H2693 H 0.2049 0.27673 0.67986 0.0
H2694 H 0.16125 0.27768 0.65001 0.0
C2695 C 0.04376 0.28321 0.55105 0.0
C2696 C 0.09989 0.29288 0.59464 0.0
H2697 H 0.20465 0.28689 0.61748 0.0
C2698 C 0.07337 0.29658 0.60964 0.0
C2699 C 0.14805 0.28953 0.59728 0.0
C2700 C 0.17863 0.28601 0.58122 0.0
C2701 C 0.09347 0.29669 0.62757 0.0
C2702 C 0.141 0.29304 0.63029 0.0
C2703 C 0.16791 0.28957 0.6152 0.0
C2704 C 0.1632 0.29257 0.64883 0.0
C2705 C 0.06356 0.30042 0.64362 0.0
C2706 C 0.17773 0.30065 0.65792 0.0
C2707 C 0.20137 0.30011 0.67502 0.0
C2708 C 0.21101 0.29148 0.68293 0.0
C2709 C 0.19636 0.28341 0.67399 0.0
C2710 C 0.17207 0.28396 0.65701 0.0
H2711 H 0.02498 0.30192 0.63957 0.0
H2712 H 0.06338 0.29544 0.65532 0.0
H2713 H 0.08045 0.30689 0.64876 0.0
H2714 H 0.17203 0.30732 0.65156 0.0
H2715 H 0.21415 0.30637 0.68163 0.0
H2716 H 0.57508 0.44224 0.68819 0.0
H2717 H 0.62299 0.44166 0.65916 0.0
H2718 H 0.52818 0.4201 0.6386 0.0
H2719 H 0.4796 0.42091 0.66704 0.0
H2720 H 0.67081 0.42626 0.64263 0.0
H2721 H 0.52059 0.43977 0.59753 0.0
H2722 H 0.5221 0.44171 0.6223 0.0
H2723 H 0.50345 0.43074 0.61326 0.0
C2724 C 0.56476 0.43745 0.67734 0.0
C2725 C 0.52336 0.43185 0.67925 0.0
C2726 C 0.59178 0.43711 0.66092 0.0
C2727 C 0.57765 0.43106 0.64667 0.0
C2728 C 0.53815 0.42504 0.64921 0.0
H2729 H 0.67568 0.41985 0.53563 0.0
H2730 H 0.64212 0.41816 0.56695 0.0
C2731 C 0.51074 0.4255 0.66537 0.0
C2732 C 0.60458 0.43087 0.62914 0.0
H2733 H 0.59121 0.43413 0.58264 0.0
C2734 C 0.65376 0.42802 0.62948 0.0
C2735 C 0.58147 0.43313 0.61216 0.0
C2736 C 0.52912 0.43658 0.61119 0.0
C2737 C 0.68078 0.42731 0.61303 0.0
C2738 C 0.65749 0.42951 0.59607 0.0
C2739 C 0.60833 0.43234 0.59577 0.0
C2740 C 0.68356 0.42956 0.57834 0.0
C2741 C 0.73356 0.42416 0.61384 0.0
C2742 C 0.71696 0.43665 0.57455 0.0
C2743 C 0.73558 0.43771 0.55669 0.0
C2744 C 0.72036 0.43175 0.54246 0.0
C2745 C 0.68679 0.42468 0.5463 0.0
C2746 C 0.66859 0.42357 0.56419 0.0
H2747 H 0.74397 0.42164 0.62787 0.0
H2748 H 0.73986 0.41859 0.60357 0.0
H2749 H 0.75813 0.42998 0.61016 0.0
H2750 H 0.72759 0.44148 0.58528 0.0
H2751 H 0.76203 0.44313 0.55401 0.0
loop_
_geom_bond_atom_site_label_1
_geom_bond_atom_site_label_2
_geom_bond_distance
_geom_bond_site_symmetry_2
_ccdc_geom_bond_type
C0 O1 1.306 . S
C0 O3 1.160 . S
O1 C0 1.306 . S
O1 Cd2 2.228 . S
Cd2 O1 2.228 . S
Cd2 O6 2.273 . S
Cd2 O10 2.277 . S
O3 C0 1.160 . S
O3 Cd4 2.203 . S
Cd4 O3 2.203 . S
Cd4 O6 2.411 . S
Cd4 O7 2.333 . S
Cd4 O8 2.352 . S
Cd4 O12 2.277 . S
Cd4 O13 2.356 1_455 S
C5 O10 1.209 . S
C5 O12 1.226 . S
O6 Cd2 2.273 . S
O6 Cd4 2.411 . S
O6 C9 1.320 . S
O7 Cd4 2.333 . S
O7 C9 1.214 . S
O8 Cd4 2.352 . S
O8 C11 1.258 . S
C9 O6 1.320 . S
C9 O7 1.214 . S
O10 Cd2 2.277 . S
O10 C5 1.209 . S
C11 O8 1.258 . S
C11 O13 1.282 1_455 S
O12 Cd4 2.277 . S
O12 C5 1.226 . S
O13 Cd4 2.356 1_655 S
O13 C11 1.282 1_655 S
C14 O15 1.306 . S
C14 O17 1.160 . S
O15 C14 1.306 . S
O15 Cd16 2.228 . S
Cd16 O15 2.228 . S
Cd16 O20 2.273 . S
Cd16 O24 2.277 . S
O17 C14 1.160 . S
O17 Cd18 2.203 . S
Cd18 O17 2.203 . S
Cd18 O20 2.411 . S
Cd18 O21 2.333 . S
Cd18 O22 2.352 . S
Cd18 O26 2.277 . S
Cd18 O27 2.356 . S
C19 O24 1.209 . S
C19 O26 1.226 . S
O20 Cd16 2.273 . S
O20 Cd18 2.411 . S
O20 C23 1.320 . S
O21 Cd18 2.333 . S
O21 C23 1.214 . S
O22 Cd18 2.352 . S
O22 C25 1.258 . S
C23 O20 1.320 . S
C23 O21 1.214 . S
O24 Cd16 2.277 . S
O24 C19 1.209 . S
C25 O22 1.258 . S
C25 O27 1.282 . S
O26 Cd18 2.277 . S
O26 C19 1.226 . S
O27 Cd18 2.356 . S
O27 C25 1.282 . S
C28 O29 1.306 . S
C28 O31 1.160 . S
O29 C28 1.306 . S
O29 Cd30 2.228 1_556 S
Cd30 O29 2.228 1_554 S
Cd30 O34 2.273 1_554 S
Cd30 O38 2.277 . S
O31 C28 1.160 . S
O31 Cd32 2.203 . S
Cd32 O31 2.203 . S
Cd32 O34 2.411 . S
Cd32 O35 2.333 . S
Cd32 O36 2.352 . S
Cd32 O40 2.277 1_556 S
Cd32 O41 2.356 1_455 S
C33 O38 1.209 . S
C33 O40 1.226 . S
O34 Cd30 2.273 1_556 S
O34 Cd32 2.411 . S
O34 C37 1.320 . S
O35 Cd32 2.333 . S
O35 C37 1.214 . S
O36 Cd32 2.352 . S
O36 C39 1.258 . S
C37 O34 1.320 . S
C37 O35 1.214 . S
O38 Cd30 2.277 . S
O38 C33 1.209 . S
C39 O36 1.258 . S
C39 O41 1.282 1_455 S
O40 Cd32 2.277 1_554 S
O40 C33 1.226 . S
O41 Cd32 2.356 1_655 S
O41 C39 1.282 1_655 S
C42 O43 1.306 . S
C42 O45 1.160 . S
O43 C42 1.306 . S
O43 Cd44 2.228 1_556 S
Cd44 O43 2.228 1_554 S
Cd44 O48 2.273 1_554 S
Cd44 O52 2.277 . S
O45 C42 1.160 . S
O45 Cd46 2.203 . S
Cd46 O45 2.203 . S
Cd46 O48 2.411 . S
Cd46 O49 2.333 . S
Cd46 O50 2.352 . S
Cd46 O54 2.277 1_556 S
Cd46 O55 2.356 . S
C47 O52 1.209 . S
C47 O54 1.226 . S
O48 Cd44 2.273 1_556 S
O48 Cd46 2.411 . S
O48 C51 1.320 . S
O49 Cd46 2.333 . S
O49 C51 1.214 . S
O50 Cd46 2.352 . S
O50 C53 1.258 . S
C51 O48 1.320 . S
C51 O49 1.214 . S
O52 Cd44 2.277 . S
O52 C47 1.209 . S
C53 O50 1.258 . S
C53 O55 1.282 . S
O54 Cd46 2.277 1_554 S
O54 C47 1.226 . S
O55 Cd46 2.356 . S
O55 C53 1.282 . S
C56 O57 1.306 . S
C56 O59 1.160 . S
O57 C56 1.306 . S
O57 Cd58 2.228 . S
Cd58 O57 2.228 . S
Cd58 O62 2.273 . S
Cd58 O66 2.277 . S
O59 C56 1.160 . S
O59 Cd60 2.203 . S
Cd60 O59 2.203 . S
Cd60 O62 2.411 . S
Cd60 O63 2.333 . S
Cd60 O64 2.352 . S
Cd60 O68 2.277 . S
Cd60 O69 2.356 1_655 S
C61 O66 1.209 . S
C61 O68 1.226 . S
O62 Cd58 2.273 . S
O62 Cd60 2.411 . S
O62 C65 1.320 . S
O63 Cd60 2.333 . S
O63 C65 1.214 . S
O64 Cd60 2.352 . S
O64 C67 1.258 . S
C65 O62 1.320 . S
C65 O63 1.214 . S
O66 Cd58 2.277 . S
O66 C61 1.209 . S
C67 O64 1.258 . S
C67 O69 1.282 1_655 S
O68 Cd60 2.277 . S
O68 C61 1.226 . S
O69 Cd60 2.356 1_455 S
O69 C67 1.282 1_455 S
C70 O71 1.306 . S
C70 O73 1.160 . S
O71 C70 1.306 . S
O71 Cd72 2.228 . S
Cd72 O71 2.228 . S
Cd72 O76 2.273 . S
Cd72 O80 2.277 . S
O73 C70 1.160 . S
O73 Cd74 2.203 . S
Cd74 O73 2.203 . S
Cd74 O76 2.411 . S
Cd74 O77 2.333 . S
Cd74 O78 2.352 . S
Cd74 O82 2.277 . S
Cd74 O83 2.356 . S
C75 O80 1.209 . S
C75 O82 1.226 . S
O76 Cd72 2.273 . S
O76 Cd74 2.411 . S
O76 C79 1.320 . S
O77 Cd74 2.333 . S
O77 C79 1.214 . S
O78 Cd74 2.352 . S
O78 C81 1.258 . S
C79 O76 1.320 . S
C79 O77 1.214 . S
O80 Cd72 2.277 . S
O80 C75 1.209 . S
C81 O78 1.258 . S
C81 O83 1.282 . S
O82 Cd74 2.277 . S
O82 C75 1.226 . S
O83 Cd74 2.356 . S
O83 C81 1.282 . S
C84 O85 1.306 . S
C84 O87 1.160 . S
O85 C84 1.306 . S
O85 Cd86 2.228 1_554 S
Cd86 O85 2.228 1_556 S
Cd86 O90 2.273 1_556 S
Cd86 O94 2.277 . S
O87 C84 1.160 . S
O87 Cd88 2.203 . S
Cd88 O87 2.203 . S
Cd88 O90 2.411 . S
Cd88 O91 2.333 . S
Cd88 O92 2.352 . S
Cd88 O96 2.277 1_554 S
Cd88 O97 2.356 1_655 S
C89 O94 1.209 . S
C89 O96 1.226 . S
O90 Cd86 2.273 1_554 S
O90 Cd88 2.411 . S
O90 C93 1.320 . S
O91 Cd88 2.333 . S
O91 C93 1.214 . S
O92 Cd88 2.352 . S
O92 C95 1.258 . S
C93 O90 1.320 . S
C93 O91 1.214 . S
O94 Cd86 2.277 . S
O94 C89 1.209 . S
C95 O92 1.258 . S
C95 O97 1.282 1_655 S
O96 Cd88 2.277 1_556 S
O96 C89 1.226 . S
O97 Cd88 2.356 1_455 S
O97 C95 1.282 1_455 S
C98 O99 1.306 . S
C98 O101 1.160 . S
O99 C98 1.306 . S
O99 Cd100 2.228 1_554 S
Cd100 O99 2.228 1_556 S
Cd100 O104 2.273 1_556 S
Cd100 O108 2.277 . S
O101 C98 1.160 . S
O101 Cd102 2.203 . S
Cd102 O101 2.203 . S
Cd102 O104 2.411 . S
Cd102 O105 2.333 . S
Cd102 O106 2.352 . S
Cd102 O110 2.277 1_554 S
Cd102 O111 2.356 . S
C103 O108 1.209 . S
C103 O110 1.226 . S
O104 Cd100 2.273 1_554 S
O104 Cd102 2.411 . S
O104 C107 1.320 . S
O105 Cd102 2.333 . S
O105 C107 1.214 . S
O106 Cd102 2.352 . S
O106 C109 1.258 . S
C107 O104 1.320 . S
C107 O105 1.214 . S
O108 Cd100 2.277 . S
O108 C103 1.209 . S
C109 O106 1.258 . S
C109 O111 1.282 . S
O110 Cd102 2.277 1_556 S
O110 C103 1.226 . S
O111 Cd102 2.356 . S
O111 C109 1.282 . S
C112 O113 1.306 . S
C112 O115 1.160 . S
O113 C112 1.306 . S
O113 Cd114 2.228 . S
Cd114 O113 2.228 . S
Cd114 O118 2.273 . S
Cd114 O122 2.277 . S
O115 C112 1.160 . S
O115 Cd116 2.203 . S
Cd116 O115 2.203 . S
Cd116 O118 2.411 . S
Cd116 O119 2.333 . S
Cd116 O120 2.352 . S
Cd116 O124 2.277 . S
Cd116 O125 2.356 1_455 S
C117 O122 1.209 . S
C117 O124 1.226 . S
O118 Cd114 2.273 . S
O118 Cd116 2.411 . S
O118 C121 1.320 . S
O119 Cd116 2.333 . S
O119 C121 1.214 . S
O120 Cd116 2.352 . S
O120 C123 1.258 . S
C121 O118 1.320 . S
C121 O119 1.214 . S
O122 Cd114 2.277 . S
O122 C117 1.209 . S
C123 O120 1.258 . S
C123 O125 1.282 1_455 S
O124 Cd116 2.277 . S
O124 C117 1.226 . S
O125 Cd116 2.356 1_655 S
O125 C123 1.282 1_655 S
C126 O127 1.306 . S
C126 O129 1.160 . S
O127 C126 1.306 . S
O127 Cd128 2.228 . S
Cd128 O127 2.228 . S
Cd128 O132 2.273 . S
Cd128 O136 2.277 . S
O129 C126 1.160 . S
O129 Cd130 2.203 . S
Cd130 O129 2.203 . S
Cd130 O132 2.411 . S
Cd130 O133 2.333 . S
Cd130 O134 2.352 . S
Cd130 O138 2.277 . S
Cd130 O139 2.356 . S
C131 O136 1.209 . S
C131 O138 1.226 . S
O132 Cd128 2.273 . S
O132 Cd130 2.411 . S
O132 C135 1.320 . S
O133 Cd130 2.333 . S
O133 C135 1.214 . S
O134 Cd130 2.352 . S
O134 C137 1.258 . S
C135 O132 1.320 . S
C135 O133 1.214 . S
O136 Cd128 2.277 . S
O136 C131 1.209 . S
C137 O134 1.258 . S
C137 O139 1.282 . S
O138 Cd130 2.277 . S
O138 C131 1.226 . S
O139 Cd130 2.356 . S
O139 C137 1.282 . S
C140 O141 1.306 . S
C140 O143 1.160 . S
O141 C140 1.306 . S
O141 Cd142 2.228 . S
Cd142 O141 2.228 . S
Cd142 O146 2.273 . S
Cd142 O150 2.277 . S
O143 C140 1.160 . S
O143 Cd144 2.203 . S
Cd144 O143 2.203 . S
Cd144 O146 2.411 . S
Cd144 O147 2.333 . S
Cd144 O148 2.352 . S
Cd144 O152 2.277 . S
Cd144 O153 2.356 1_455 S
C145 O150 1.209 . S
C145 O152 1.226 . S
O146 Cd142 2.273 . S
O146 Cd144 2.411 . S
O146 C149 1.320 . S
O147 Cd144 2.333 . S
O147 C149 1.214 . S
O148 Cd144 2.352 . S
O148 C151 1.258 . S
C149 O146 1.320 . S
C149 O147 1.214 . S
O150 Cd142 2.277 . S
O150 C145 1.209 . S
C151 O148 1.258 . S
C151 O153 1.282 1_455 S
O152 Cd144 2.277 . S
O152 C145 1.226 . S
O153 Cd144 2.356 1_655 S
O153 C151 1.282 1_655 S
C154 O155 1.306 . S
C154 O157 1.160 . S
O155 C154 1.306 . S
O155 Cd156 2.228 . S
Cd156 O155 2.228 . S
Cd156 O160 2.273 . S
Cd156 O164 2.277 . S
O157 C154 1.160 . S
O157 Cd158 2.203 . S
Cd158 O157 2.203 . S
Cd158 O160 2.411 . S
Cd158 O161 2.333 . S
Cd158 O162 2.352 . S
Cd158 O166 2.277 . S
Cd158 O167 2.356 . S
C159 O164 1.209 . S
C159 O166 1.226 . S
O160 Cd156 2.273 . S
O160 Cd158 2.411 . S
O160 C163 1.320 . S
O161 Cd158 2.333 . S
O161 C163 1.214 . S
O162 Cd158 2.352 . S
O162 C165 1.258 . S
C163 O160 1.320 . S
C163 O161 1.214 . S
O164 Cd156 2.277 . S
O164 C159 1.209 . S
C165 O162 1.258 . S
C165 O167 1.282 . S
O166 Cd158 2.277 . S
O166 C159 1.226 . S
O167 Cd158 2.356 . S
O167 C165 1.282 . S
C168 O169 1.306 . S
C168 O171 1.160 . S
O169 C168 1.306 . S
O169 Cd170 2.228 . S
Cd170 O169 2.228 . S
Cd170 O174 2.273 . S
Cd170 O178 2.277 . S
O171 C168 1.160 . S
O171 Cd172 2.203 . S
Cd172 O171 2.203 . S
Cd172 O174 2.411 . S
Cd172 O175 2.333 . S
Cd172 O176 2.352 . S
Cd172 O180 2.277 . S
Cd172 O181 2.356 1_655 S
C173 O178 1.209 . S
C173 O180 1.226 . S
O174 Cd170 2.273 . S
O174 Cd172 2.411 . S
O174 C177 1.320 . S
O175 Cd172 2.333 . S
O175 C177 1.214 . S
O176 Cd172 2.352 . S
O176 C179 1.258 . S
C177 O174 1.320 . S
C177 O175 1.214 . S
O178 Cd170 2.277 . S
O178 C173 1.209 . S
C179 O176 1.258 . S
C179 O181 1.282 1_655 S
O180 Cd172 2.277 . S
O180 C173 1.226 . S
O181 Cd172 2.356 1_455 S
O181 C179 1.282 1_455 S
C182 O183 1.306 . S
C182 O185 1.160 . S
O183 C182 1.306 . S
O183 Cd184 2.228 . S
Cd184 O183 2.228 . S
Cd184 O188 2.273 . S
Cd184 O192 2.277 . S
O185 C182 1.160 . S
O185 Cd186 2.203 . S
Cd186 O185 2.203 . S
Cd186 O188 2.411 . S
Cd186 O189 2.333 . S
Cd186 O190 2.352 . S
Cd186 O194 2.277 . S
Cd186 O195 2.356 . S
C187 O192 1.209 . S
C187 O194 1.226 . S
O188 Cd184 2.273 . S
O188 Cd186 2.411 . S
O188 C191 1.320 . S
O189 Cd186 2.333 . S
O189 C191 1.214 . S
O190 Cd186 2.352 . S
O190 C193 1.258 . S
C191 O188 1.320 . S
C191 O189 1.214 . S
O192 Cd184 2.277 . S
O192 C187 1.209 . S
C193 O190 1.258 . S
C193 O195 1.282 . S
O194 Cd186 2.277 . S
O194 C187 1.226 . S
O195 Cd186 2.356 . S
O195 C193 1.282 . S
C196 O197 1.306 . S
C196 O199 1.160 . S
O197 C196 1.306 . S
O197 Cd198 2.228 . S
Cd198 O197 2.228 . S
Cd198 O202 2.273 . S
Cd198 O206 2.277 . S
O199 C196 1.160 . S
O199 Cd200 2.203 . S
Cd200 O199 2.203 . S
Cd200 O202 2.411 . S
Cd200 O203 2.333 . S
Cd200 O204 2.352 . S
Cd200 O208 2.277 . S
Cd200 O209 2.356 1_655 S
C201 O206 1.209 . S
C201 O208 1.226 . S
O202 Cd198 2.273 . S
O202 Cd200 2.411 . S
O202 C205 1.320 . S
O203 Cd200 2.333 . S
O203 C205 1.214 . S
O204 Cd200 2.352 . S
O204 C207 1.258 . S
C205 O202 1.320 . S
C205 O203 1.214 . S
O206 Cd198 2.277 . S
O206 C201 1.209 . S
C207 O204 1.258 . S
C207 O209 1.282 1_655 S
O208 Cd200 2.277 . S
O208 C201 1.226 . S
O209 Cd200 2.356 1_455 S
O209 C207 1.282 1_455 S
C210 O211 1.306 . S
C210 O213 1.160 . S
O211 C210 1.306 . S
O211 Cd212 2.228 . S
Cd212 O211 2.228 . S
Cd212 O216 2.273 . S
Cd212 O220 2.277 . S
O213 C210 1.160 . S
O213 Cd214 2.203 . S
Cd214 O213 2.203 . S
Cd214 O216 2.411 . S
Cd214 O217 2.333 . S
Cd214 O218 2.352 . S
Cd214 O222 2.277 . S
Cd214 O223 2.356 . S
C215 O220 1.209 . S
C215 O222 1.226 . S
O216 Cd212 2.273 . S
O216 Cd214 2.411 . S
O216 C219 1.320 . S
O217 Cd214 2.333 . S
O217 C219 1.214 . S
O218 Cd214 2.352 . S
O218 C221 1.258 . S
C219 O216 1.320 . S
C219 O217 1.214 . S
O220 Cd212 2.277 . S
O220 C215 1.209 . S
C221 O218 1.258 . S
C221 O223 1.282 . S
O222 Cd214 2.277 . S
O222 C215 1.226 . S
O223 Cd214 2.356 . S
O223 C221 1.282 . S
C224 O225 1.306 . S
C224 O227 1.160 . S
O225 C224 1.306 . S
O225 Cd226 2.228 . S
Cd226 O225 2.228 . S
Cd226 O230 2.273 . S
Cd226 O234 2.277 . S
O227 C224 1.160 . S
O227 Cd228 2.203 . S
Cd228 O227 2.203 . S
Cd228 O230 2.411 . S
Cd228 O231 2.333 . S
Cd228 O232 2.352 . S
Cd228 O236 2.277 . S
Cd228 O237 2.356 . S
C229 O234 1.209 . S
C229 O236 1.226 . S
O230 Cd226 2.273 . S
O230 Cd228 2.411 . S
O230 C233 1.320 . S
O231 Cd228 2.333 . S
O231 C233 1.214 . S
O232 Cd228 2.352 . S
O232 C235 1.258 . S
C233 O230 1.320 . S
C233 O231 1.214 . S
O234 Cd226 2.277 . S
O234 C229 1.209 . S
C235 O232 1.258 . S
C235 O237 1.282 . S
O236 Cd228 2.277 . S
O236 C229 1.226 . S
O237 Cd228 2.356 . S
O237 C235 1.282 . S
C238 O239 1.306 . S
C238 O241 1.160 . S
O239 C238 1.306 . S
O239 Cd240 2.228 . S
Cd240 O239 2.228 . S
Cd240 O244 2.273 . S
Cd240 O248 2.277 . S
O241 C238 1.160 . S
O241 Cd242 2.203 . S
Cd242 O241 2.203 . S
Cd242 O244 2.411 . S
Cd242 O245 2.333 . S
Cd242 O246 2.352 . S
Cd242 O250 2.277 . S
Cd242 O251 2.356 . S
C243 O248 1.209 . S
C243 O250 1.226 . S
O244 Cd240 2.273 . S
O244 Cd242 2.411 . S
O244 C247 1.320 . S
O245 Cd242 2.333 . S
O245 C247 1.214 . S
O246 Cd242 2.352 . S
O246 C249 1.258 . S
C247 O244 1.320 . S
C247 O245 1.214 . S
O248 Cd240 2.277 . S
O248 C243 1.209 . S
C249 O246 1.258 . S
C249 O251 1.282 . S
O250 Cd242 2.277 . S
O250 C243 1.226 . S
O251 Cd242 2.356 . S
O251 C249 1.282 . S
C252 O253 1.306 . S
C252 O255 1.160 . S
O253 C252 1.306 . S
O253 Cd254 2.228 . S
Cd254 O253 2.228 . S
Cd254 O258 2.273 . S
Cd254 O262 2.277 . S
O255 C252 1.160 . S
O255 Cd256 2.203 . S
Cd256 O255 2.203 . S
Cd256 O258 2.411 . S
Cd256 O259 2.333 . S
Cd256 O260 2.352 . S
Cd256 O264 2.277 . S
Cd256 O265 2.356 . S
C257 O262 1.209 . S
C257 O264 1.226 . S
O258 Cd254 2.273 . S
O258 Cd256 2.411 . S
O258 C261 1.320 . S
O259 Cd256 2.333 . S
O259 C261 1.214 . S
O260 Cd256 2.352 . S
O260 C263 1.258 . S
C261 O258 1.320 . S
C261 O259 1.214 . S
O262 Cd254 2.277 . S
O262 C257 1.209 . S
C263 O260 1.258 . S
C263 O265 1.282 . S
O264 Cd256 2.277 . S
O264 C257 1.226 . S
O265 Cd256 2.356 . S
O265 C263 1.282 . S
C266 O267 1.306 . S
C266 O269 1.160 . S
O267 C266 1.306 . S
O267 Cd268 2.228 . S
Cd268 O267 2.228 . S
Cd268 O272 2.273 . S
Cd268 O276 2.277 . S
O269 C266 1.160 . S
O269 Cd270 2.203 . S
Cd270 O269 2.203 . S
Cd270 O272 2.411 . S
Cd270 O273 2.333 . S
Cd270 O274 2.352 . S
Cd270 O278 2.277 . S
Cd270 O279 2.356 . S
C271 O276 1.209 . S
C271 O278 1.226 . S
O272 Cd268 2.273 . S
O272 Cd270 2.411 . S
O272 C275 1.320 . S
O273 Cd270 2.333 . S
O273 C275 1.214 . S
O274 Cd270 2.352 . S
O274 C277 1.258 . S
C275 O272 1.320 . S
C275 O273 1.214 . S
O276 Cd268 2.277 . S
O276 C271 1.209 . S
C277 O274 1.258 . S
C277 O279 1.282 . S
O278 Cd270 2.277 . S
O278 C271 1.226 . S
O279 Cd270 2.356 . S
O279 C277 1.282 . S
C280 O281 1.306 . S
C280 O283 1.160 . S
O281 C280 1.306 . S
O281 Cd282 2.228 . S
Cd282 O281 2.228 . S
Cd282 O286 2.273 . S
Cd282 O290 2.277 . S
O283 C280 1.160 . S
O283 Cd284 2.203 . S
Cd284 O283 2.203 . S
Cd284 O286 2.411 . S
Cd284 O287 2.333 . S
Cd284 O288 2.352 . S
Cd284 O292 2.277 . S
Cd284 O293 2.356 . S
C285 O290 1.209 . S
C285 O292 1.226 . S
O286 Cd282 2.273 . S
O286 Cd284 2.411 . S
O286 C289 1.320 . S
O287 Cd284 2.333 . S
O287 C289 1.214 . S
O288 Cd284 2.352 . S
O288 C291 1.258 . S
C289 O286 1.320 . S
C289 O287 1.214 . S
O290 Cd282 2.277 . S
O290 C285 1.209 . S
C291 O288 1.258 . S
C291 O293 1.282 . S
O292 Cd284 2.277 . S
O292 C285 1.226 . S
O293 Cd284 2.356 . S
O293 C291 1.282 . S
C294 O295 1.306 . S
C294 O297 1.160 . S
O295 C294 1.306 . S
O295 Cd296 2.228 . S
Cd296 O295 2.228 . S
Cd296 O300 2.273 . S
Cd296 O304 2.277 . S
O297 C294 1.160 . S
O297 Cd298 2.203 . S
Cd298 O297 2.203 . S
Cd298 O300 2.411 . S
Cd298 O301 2.333 . S
Cd298 O302 2.352 . S
Cd298 O306 2.277 . S
Cd298 O307 2.356 . S
C299 O304 1.209 . S
C299 O306 1.226 . S
O300 Cd296 2.273 . S
O300 Cd298 2.411 . S
O300 C303 1.320 . S
O301 Cd298 2.333 . S
O301 C303 1.214 . S
O302 Cd298 2.352 . S
O302 C305 1.258 . S
C303 O300 1.320 . S
C303 O301 1.214 . S
O304 Cd296 2.277 . S
O304 C299 1.209 . S
C305 O302 1.258 . S
C305 O307 1.282 . S
O306 Cd298 2.277 . S
O306 C299 1.226 . S
O307 Cd298 2.356 . S
O307 C305 1.282 . S
C308 O309 1.306 . S
C308 O311 1.160 . S
O309 C308 1.306 . S
O309 Cd310 2.228 . S
Cd310 O309 2.228 . S
Cd310 O314 2.273 . S
Cd310 O318 2.277 . S
O311 C308 1.160 . S
O311 Cd312 2.203 . S
Cd312 O311 2.203 . S
Cd312 O314 2.411 . S
Cd312 O315 2.333 . S
Cd312 O316 2.352 . S
Cd312 O320 2.277 . S
Cd312 O321 2.356 . S
C313 O318 1.209 . S
C313 O320 1.226 . S
O314 Cd310 2.273 . S
O314 Cd312 2.411 . S
O314 C317 1.320 . S
O315 Cd312 2.333 . S
O315 C317 1.214 . S
O316 Cd312 2.352 . S
O316 C319 1.258 . S
C317 O314 1.320 . S
C317 O315 1.214 . S
O318 Cd310 2.277 . S
O318 C313 1.209 . S
C319 O316 1.258 . S
C319 O321 1.282 . S
O320 Cd312 2.277 . S
O320 C313 1.226 . S
O321 Cd312 2.356 . S
O321 C319 1.282 . S
C322 O323 1.306 . S
C322 O325 1.160 . S
O323 C322 1.306 . S
O323 Cd324 2.228 . S
Cd324 O323 2.228 . S
Cd324 O328 2.273 . S
Cd324 O332 2.277 . S
O325 C322 1.160 . S
O325 Cd326 2.203 . S
Cd326 O325 2.203 . S
Cd326 O328 2.411 . S
Cd326 O329 2.333 . S
Cd326 O330 2.352 . S
Cd326 O334 2.277 . S
Cd326 O335 2.356 . S
C327 O332 1.209 . S
C327 O334 1.226 . S
O328 Cd324 2.273 . S
O328 Cd326 2.411 . S
O328 C331 1.320 . S
O329 Cd326 2.333 . S
O329 C331 1.214 . S
O330 Cd326 2.352 . S
O330 C333 1.258 . S
C331 O328 1.320 . S
C331 O329 1.214 . S
O332 Cd324 2.277 . S
O332 C327 1.209 . S
C333 O330 1.258 . S
C333 O335 1.282 . S
O334 Cd326 2.277 . S
O334 C327 1.226 . S
O335 Cd326 2.356 . S
O335 C333 1.282 . S
C336 O337 1.306 . S
C336 O339 1.160 . S
O337 C336 1.306 . S
O337 Cd338 2.228 . S
Cd338 O337 2.228 . S
Cd338 O342 2.273 . S
Cd338 O346 2.277 . S
O339 C336 1.160 . S
O339 Cd340 2.203 . S
Cd340 O339 2.203 . S
Cd340 O342 2.411 . S
Cd340 O343 2.333 . S
Cd340 O344 2.352 . S
Cd340 O348 2.277 . S
Cd340 O349 2.356 . S
C341 O346 1.209 . S
C341 O348 1.226 . S
O342 Cd338 2.273 . S
O342 Cd340 2.411 . S
O342 C345 1.320 . S
O343 Cd340 2.333 . S
O343 C345 1.214 . S
O344 Cd340 2.352 . S
O344 C347 1.258 . S
C345 O342 1.320 . S
C345 O343 1.214 . S
O346 Cd338 2.277 . S
O346 C341 1.209 . S
C347 O344 1.258 . S
C347 O349 1.282 . S
O348 Cd340 2.277 . S
O348 C341 1.226 . S
O349 Cd340 2.356 . S
O349 C347 1.282 . S
C350 O351 1.306 . S
C350 O353 1.160 . S
O351 C350 1.306 . S
O351 Cd352 2.228 . S
Cd352 O351 2.228 . S
Cd352 O356 2.273 . S
Cd352 O360 2.277 . S
O353 C350 1.160 . S
O353 Cd354 2.203 . S
Cd354 O353 2.203 . S
Cd354 O356 2.411 . S
Cd354 O357 2.333 . S
Cd354 O358 2.352 . S
Cd354 O362 2.277 . S
Cd354 O363 2.356 . S
C355 O360 1.209 . S
C355 O362 1.226 . S
O356 Cd352 2.273 . S
O356 Cd354 2.411 . S
O356 C359 1.320 . S
O357 Cd354 2.333 . S
O357 C359 1.214 . S
O358 Cd354 2.352 . S
O358 C361 1.258 . S
C359 O356 1.320 . S
C359 O357 1.214 . S
O360 Cd352 2.277 . S
O360 C355 1.209 . S
C361 O358 1.258 . S
C361 O363 1.282 . S
O362 Cd354 2.277 . S
O362 C355 1.226 . S
O363 Cd354 2.356 . S
O363 C361 1.282 . S
C364 O365 1.306 . S
C364 O367 1.160 . S
O365 C364 1.306 . S
O365 Cd366 2.228 1_556 S
Cd366 O365 2.228 1_554 S
Cd366 O370 2.273 1_554 S
Cd366 O374 2.277 . S
O367 C364 1.160 . S
O367 Cd368 2.203 . S
Cd368 O367 2.203 . S
Cd368 O370 2.411 . S
Cd368 O371 2.333 . S
Cd368 O372 2.352 . S
Cd368 O376 2.277 1_556 S
Cd368 O377 2.356 . S
C369 O374 1.209 . S
C369 O376 1.226 . S
O370 Cd366 2.273 1_556 S
O370 Cd368 2.411 . S
O370 C373 1.320 . S
O371 Cd368 2.333 . S
O371 C373 1.214 . S
O372 Cd368 2.352 . S
O372 C375 1.258 . S
C373 O370 1.320 . S
C373 O371 1.214 . S
O374 Cd366 2.277 . S
O374 C369 1.209 . S
C375 O372 1.258 . S
C375 O377 1.282 . S
O376 Cd368 2.277 1_554 S
O376 C369 1.226 . S
O377 Cd368 2.356 . S
O377 C375 1.282 . S
C378 O379 1.306 . S
C378 O381 1.160 . S
O379 C378 1.306 . S
O379 Cd380 2.228 1_556 S
Cd380 O379 2.228 1_554 S
Cd380 O384 2.273 1_554 S
Cd380 O388 2.277 . S
O381 C378 1.160 . S
O381 Cd382 2.203 . S
Cd382 O381 2.203 . S
Cd382 O384 2.411 . S
Cd382 O385 2.333 . S
Cd382 O386 2.352 . S
Cd382 O390 2.277 1_556 S
Cd382 O391 2.356 . S
C383 O388 1.209 . S
C383 O390 1.226 . S
O384 Cd380 2.273 1_556 S
O384 Cd382 2.411 . S
O384 C387 1.320 . S
O385 Cd382 2.333 . S
O385 C387 1.214 . S
O386 Cd382 2.352 . S
O386 C389 1.258 . S
C387 O384 1.320 . S
C387 O385 1.214 . S
O388 Cd380 2.277 . S
O388 C383 1.209 . S
C389 O386 1.258 . S
C389 O391 1.282 . S
O390 Cd382 2.277 1_554 S
O390 C383 1.226 . S
O391 Cd382 2.356 . S
O391 C389 1.282 . S
C392 O393 1.306 . S
C392 O395 1.160 . S
O393 C392 1.306 . S
O393 Cd394 2.228 . S
Cd394 O393 2.228 . S
Cd394 O398 2.273 . S
Cd394 O402 2.277 . S
O395 C392 1.160 . S
O395 Cd396 2.203 . S
Cd396 O395 2.203 . S
Cd396 O398 2.411 . S
Cd396 O399 2.333 . S
Cd396 O400 2.352 . S
Cd396 O404 2.277 . S
Cd396 O405 2.356 . S
C397 O402 1.209 . S
C397 O404 1.226 . S
O398 Cd394 2.273 . S
O398 Cd396 2.411 . S
O398 C401 1.320 . S
O399 Cd396 2.333 . S
O399 C401 1.214 . S
O400 Cd396 2.352 . S
O400 C403 1.258 . S
C401 O398 1.320 . S
C401 O399 1.214 . S
O402 Cd394 2.277 . S
O402 C397 1.209 . S
C403 O400 1.258 . S
C403 O405 1.282 . S
O404 Cd396 2.277 . S
O404 C397 1.226 . S
O405 Cd396 2.356 . S
O405 C403 1.282 . S
C406 O407 1.306 . S
C406 O409 1.160 . S
O407 C406 1.306 . S
O407 Cd408 2.228 . S
Cd408 O407 2.228 . S
Cd408 O412 2.273 . S
Cd408 O416 2.277 . S
O409 C406 1.160 . S
O409 Cd410 2.203 . S
Cd410 O409 2.203 . S
Cd410 O412 2.411 . S
Cd410 O413 2.333 . S
Cd410 O414 2.352 . S
Cd410 O418 2.277 . S
Cd410 O419 2.356 . S
C411 O416 1.209 . S
C411 O418 1.226 . S
O412 Cd408 2.273 . S
O412 Cd410 2.411 . S
O412 C415 1.320 . S
O413 Cd410 2.333 . S
O413 C415 1.214 . S
O414 Cd410 2.352 . S
O414 C417 1.258 . S
C415 O412 1.320 . S
C415 O413 1.214 . S
O416 Cd408 2.277 . S
O416 C411 1.209 . S
C417 O414 1.258 . S
C417 O419 1.282 . S
O418 Cd410 2.277 . S
O418 C411 1.226 . S
O419 Cd410 2.356 . S
O419 C417 1.282 . S
C420 O421 1.306 . S
C420 O423 1.160 . S
O421 C420 1.306 . S
O421 Cd422 2.228 1_554 S
Cd422 O421 2.228 1_556 S
Cd422 O426 2.273 1_556 S
Cd422 O430 2.277 . S
O423 C420 1.160 . S
O423 Cd424 2.203 . S
Cd424 O423 2.203 . S
Cd424 O426 2.411 . S
Cd424 O427 2.333 . S
Cd424 O428 2.352 . S
Cd424 O432 2.277 1_554 S
Cd424 O433 2.356 . S
C425 O430 1.209 . S
C425 O432 1.226 . S
O426 Cd422 2.273 1_554 S
O426 Cd424 2.411 . S
O426 C429 1.320 . S
O427 Cd424 2.333 . S
O427 C429 1.214 . S
O428 Cd424 2.352 . S
O428 C431 1.258 . S
C429 O426 1.320 . S
C429 O427 1.214 . S
O430 Cd422 2.277 . S
O430 C425 1.209 . S
C431 O428 1.258 . S
C431 O433 1.282 . S
O432 Cd424 2.277 1_556 S
O432 C425 1.226 . S
O433 Cd424 2.356 . S
O433 C431 1.282 . S
C434 O435 1.306 . S
C434 O437 1.160 . S
O435 C434 1.306 . S
O435 Cd436 2.228 1_554 S
Cd436 O435 2.228 1_556 S
Cd436 O440 2.273 1_556 S
Cd436 O444 2.277 . S
O437 C434 1.160 . S
O437 Cd438 2.203 . S
Cd438 O437 2.203 . S
Cd438 O440 2.411 . S
Cd438 O441 2.333 . S
Cd438 O442 2.352 . S
Cd438 O446 2.277 1_554 S
Cd438 O447 2.356 . S
C439 O444 1.209 . S
C439 O446 1.226 . S
O440 Cd436 2.273 1_554 S
O440 Cd438 2.411 . S
O440 C443 1.320 . S
O441 Cd438 2.333 . S
O441 C443 1.214 . S
O442 Cd438 2.352 . S
O442 C445 1.258 . S
C443 O440 1.320 . S
C443 O441 1.214 . S
O444 Cd436 2.277 . S
O444 C439 1.209 . S
C445 O442 1.258 . S
C445 O447 1.282 . S
O446 Cd438 2.277 1_556 S
O446 C439 1.226 . S
O447 Cd438 2.356 . S
O447 C445 1.282 . S
H448 C456 0.929 . S
H449 C458 0.930 . S
H450 C460 0.930 . S
H451 C463 0.929 . S
H452 C466 0.930 . S
H453 C468 0.960 . S
H454 C468 0.960 . S
H455 C468 0.960 . S
C456 H448 0.929 . S
C456 C457 1.377 . S
C456 C458 1.384 . S
C457 C456 1.377 . S
C457 C463 1.390 . S
C458 H449 0.930 . S
C458 C456 1.384 . S
C458 C459 1.372 . S
C459 C458 1.372 . S
C459 C460 1.400 . S
C459 C464 1.490 . S
C460 H450 0.930 . S
C460 C459 1.400 . S
C460 C463 1.386 . S
H461 C477 0.930 . S
H462 C478 0.931 . S
C463 H451 0.929 . S
C463 C457 1.390 . S
C463 C460 1.386 . S
C464 C459 1.490 . S
C464 C466 1.395 . S
C464 C467 1.403 . S
H465 C471 0.930 . S
C466 H452 0.930 . S
C466 C464 1.395 . S
C466 C469 1.403 . S
C467 C464 1.403 . S
C467 C468 1.524 . S
C467 C471 1.400 . S
C468 H453 0.960 . S
C468 H454 0.960 . S
C468 H455 0.960 . S
C468 C467 1.524 . S
C469 C466 1.403 . S
C469 C470 1.392 . S
C469 C473 1.495 . S
C470 C469 1.392 . S
C470 C471 1.385 . S
C470 C472 1.478 . S
C471 H465 0.930 . S
C471 C467 1.400 . S
C471 C470 1.385 . S
C472 C470 1.478 . S
C472 C474 1.381 . S
C472 C478 1.383 . S
C473 C469 1.495 . S
C473 H479 0.959 . S
C473 H480 0.961 . S
C473 H481 0.960 . S
C474 C472 1.381 . S
C474 C475 1.394 . S
C474 H482 0.930 . S
C475 C474 1.394 . S
C475 C476 1.383 . S
C475 H483 0.929 . S
C476 C475 1.383 . S
C476 C477 1.377 . S
C477 H461 0.930 . S
C477 C476 1.377 . S
C477 C478 1.379 . S
C478 H462 0.931 . S
C478 C472 1.383 . S
C478 C477 1.379 . S
H479 C473 0.959 . S
H480 C473 0.961 . S
H481 C473 0.960 . S
H482 C474 0.930 . S
H483 C475 0.929 . S
H484 C492 0.929 . S
H485 C494 0.930 . S
H486 C496 0.930 . S
H487 C499 0.929 . S
H488 C502 0.930 . S
H489 C504 0.960 . S
H490 C504 0.960 . S
H491 C504 0.960 . S
C492 H484 0.929 . S
C492 C493 1.377 . S
C492 C494 1.384 . S
C493 C492 1.377 . S
C493 C499 1.390 . S
C494 H485 0.930 . S
C494 C492 1.384 . S
C494 C495 1.372 . S
C495 C494 1.372 . S
C495 C496 1.400 . S
C495 C500 1.490 . S
C496 H486 0.930 . S
C496 C495 1.400 . S
C496 C499 1.386 . S
H497 C513 0.930 . S
H498 C514 0.931 . S
C499 H487 0.929 . S
C499 C493 1.390 . S
C499 C496 1.386 . S
C500 C495 1.490 . S
C500 C502 1.395 . S
C500 C503 1.403 . S
H501 C507 0.930 . S
C502 H488 0.930 . S
C502 C500 1.395 . S
C502 C505 1.403 . S
C503 C500 1.403 . S
C503 C504 1.524 . S
C503 C507 1.400 . S
C504 H489 0.960 . S
C504 H490 0.960 . S
C504 H491 0.960 . S
C504 C503 1.524 . S
C505 C502 1.403 . S
C505 C506 1.392 . S
C505 C509 1.495 . S
C506 C505 1.392 . S
C506 C507 1.385 . S
C506 C508 1.478 . S
C507 H501 0.930 . S
C507 C503 1.400 . S
C507 C506 1.385 . S
C508 C506 1.478 . S
C508 C510 1.381 . S
C508 C514 1.383 . S
C509 C505 1.495 . S
C509 H515 0.959 . S
C509 H516 0.961 . S
C509 H517 0.960 . S
C510 C508 1.381 . S
C510 C511 1.394 . S
C510 H518 0.930 . S
C511 C510 1.394 . S
C511 C512 1.383 . S
C511 H519 0.929 . S
C512 C511 1.383 . S
C512 C513 1.377 . S
C513 H497 0.930 . S
C513 C512 1.377 . S
C513 C514 1.379 . S
C514 H498 0.931 . S
C514 C508 1.383 . S
C514 C513 1.379 . S
H515 C509 0.959 . S
H516 C509 0.961 . S
H517 C509 0.960 . S
H518 C510 0.930 . S
H519 C511 0.929 . S
H520 C528 0.929 . S
H521 C530 0.930 . S
H522 C532 0.930 . S
H523 C535 0.929 . S
H524 C538 0.930 . S
H525 C540 0.960 . S
H526 C540 0.960 . S
H527 C540 0.960 . S
C528 H520 0.929 . S
C528 C529 1.377 . S
C528 C530 1.384 . S
C529 C528 1.377 . S
C529 C535 1.390 . S
C530 H521 0.930 . S
C530 C528 1.384 . S
C530 C531 1.372 . S
C531 C530 1.372 . S
C531 C532 1.400 . S
C531 C536 1.490 . S
C532 H522 0.930 . S
C532 C531 1.400 . S
C532 C535 1.386 . S
H533 C549 0.930 . S
H534 C550 0.931 . S
C535 H523 0.929 . S
C535 C529 1.390 . S
C535 C532 1.386 . S
C536 C531 1.490 . S
C536 C538 1.395 . S
C536 C539 1.403 . S
H537 C543 0.930 . S
C538 H524 0.930 . S
C538 C536 1.395 . S
C538 C541 1.403 . S
C539 C536 1.403 . S
C539 C540 1.524 . S
C539 C543 1.400 . S
C540 H525 0.960 . S
C540 H526 0.960 . S
C540 H527 0.960 . S
C540 C539 1.524 . S
C541 C538 1.403 . S
C541 C542 1.392 . S
C541 C545 1.495 . S
C542 C541 1.392 . S
C542 C543 1.385 . S
C542 C544 1.478 . S
C543 H537 0.930 . S
C543 C539 1.400 . S
C543 C542 1.385 . S
C544 C542 1.478 . S
C544 C546 1.381 . S
C544 C550 1.383 . S
C545 C541 1.495 . S
C545 H551 0.959 . S
C545 H552 0.961 . S
C545 H553 0.960 . S
C546 C544 1.381 . S
C546 C547 1.394 . S
C546 H554 0.930 . S
C547 C546 1.394 . S
C547 C548 1.383 . S
C547 H555 0.929 . S
C548 C547 1.383 . S
C548 C549 1.377 . S
C549 H533 0.930 . S
C549 C548 1.377 . S
C549 C550 1.379 . S
C550 H534 0.931 . S
C550 C544 1.383 . S
C550 C549 1.379 . S
H551 C545 0.959 . S
H552 C545 0.961 . S
H553 C545 0.960 . S
H554 C546 0.930 . S
H555 C547 0.929 . S
H556 C564 0.929 . S
H557 C566 0.930 . S
H558 C568 0.930 . S
H559 C571 0.929 . S
H560 C574 0.930 . S
H561 C576 0.960 . S
H562 C576 0.960 . S
H563 C576 0.960 . S
C564 H556 0.929 . S
C564 C565 1.377 . S
C564 C566 1.384 . S
C565 C564 1.377 . S
C565 C571 1.390 . S
C566 H557 0.930 . S
C566 C564 1.384 . S
C566 C567 1.372 . S
C567 C566 1.372 . S
C567 C568 1.400 . S
C567 C572 1.490 . S
C568 H558 0.930 . S
C568 C567 1.400 . S
C568 C571 1.386 . S
H569 C585 0.930 . S
H570 C586 0.931 . S
C571 H559 0.929 . S
C571 C565 1.390 . S
C571 C568 1.386 . S
C572 C567 1.490 . S
C572 C574 1.395 . S
C572 C575 1.403 . S
H573 C579 0.930 . S
C574 H560 0.930 . S
C574 C572 1.395 . S
C574 C577 1.403 . S
C575 C572 1.403 . S
C575 C576 1.524 . S
C575 C579 1.400 . S
C576 H561 0.960 . S
C576 H562 0.960 . S
C576 H563 0.960 . S
C576 C575 1.524 . S
C577 C574 1.403 . S
C577 C578 1.392 . S
C577 C581 1.495 . S
C578 C577 1.392 . S
C578 C579 1.385 . S
C578 C580 1.478 . S
C579 H573 0.930 . S
C579 C575 1.400 . S
C579 C578 1.385 . S
C580 C578 1.478 . S
C580 C582 1.381 . S
C580 C586 1.383 . S
C581 C577 1.495 . S
C581 H587 0.959 . S
C581 H588 0.961 . S
C581 H589 0.960 . S
C582 C580 1.381 . S
C582 C583 1.394 . S
C582 H590 0.930 . S
C583 C582 1.394 . S
C583 C584 1.383 . S
C583 H591 0.929 . S
C584 C583 1.383 . S
C584 C585 1.377 . S
C585 H569 0.930 . S
C585 C584 1.377 . S
C585 C586 1.379 . S
C586 H570 0.931 . S
C586 C580 1.383 . S
C586 C585 1.379 . S
H587 C581 0.959 . S
H588 C581 0.961 . S
H589 C581 0.960 . S
H590 C582 0.930 . S
H591 C583 0.929 . S
H592 C600 0.929 . S
H593 C602 0.930 . S
H594 C604 0.930 . S
H595 C607 0.929 . S
H596 C610 0.930 . S
H597 C612 0.960 . S
H598 C612 0.960 . S
H599 C612 0.960 . S
C600 H592 0.929 . S
C600 C601 1.377 . S
C600 C602 1.384 . S
C601 C600 1.377 . S
C601 C607 1.390 . S
C602 H593 0.930 . S
C602 C600 1.384 . S
C602 C603 1.372 . S
C603 C602 1.372 . S
C603 C604 1.400 . S
C603 C608 1.490 . S
C604 H594 0.930 . S
C604 C603 1.400 . S
C604 C607 1.386 . S
H605 C621 0.930 . S
H606 C622 0.931 . S
C607 H595 0.929 . S
C607 C601 1.390 . S
C607 C604 1.386 . S
C608 C603 1.490 . S
C608 C610 1.395 . S
C608 C611 1.403 . S
H609 C615 0.930 . S
C610 H596 0.930 . S
C610 C608 1.395 . S
C610 C613 1.403 . S
C611 C608 1.403 . S
C611 C612 1.524 . S
C611 C615 1.400 . S
C612 H597 0.960 . S
C612 H598 0.960 . S
C612 H599 0.960 . S
C612 C611 1.524 . S
C613 C610 1.403 . S
C613 C614 1.392 . S
C613 C617 1.495 . S
C614 C613 1.392 . S
C614 C615 1.385 . S
C614 C616 1.478 . S
C615 H609 0.930 . S
C615 C611 1.400 . S
C615 C614 1.385 . S
C616 C614 1.478 . S
C616 C618 1.381 . S
C616 C622 1.383 . S
C617 C613 1.495 . S
C617 H623 0.959 . S
C617 H624 0.961 . S
C617 H625 0.960 . S
C618 C616 1.381 . S
C618 C619 1.394 . S
C618 H626 0.930 . S
C619 C618 1.394 . S
C619 C620 1.383 . S
C619 H627 0.929 . S
C620 C619 1.383 . S
C620 C621 1.377 . S
C621 H605 0.930 . S
C621 C620 1.377 . S
C621 C622 1.379 . S
C622 H606 0.931 . S
C622 C616 1.383 . S
C622 C621 1.379 . S
H623 C617 0.959 . S
H624 C617 0.961 . S
H625 C617 0.960 . S
H626 C618 0.930 . S
H627 C619 0.929 . S
H628 C636 0.929 . S
H629 C638 0.930 . S
H630 C640 0.930 . S
H631 C643 0.929 . S
H632 C646 0.930 . S
H633 C648 0.960 . S
H634 C648 0.960 . S
H635 C648 0.960 . S
C636 H628 0.929 . S
C636 C637 1.377 . S
C636 C638 1.384 . S
C637 C636 1.377 . S
C637 C643 1.390 . S
C638 H629 0.930 . S
C638 C636 1.384 . S
C638 C639 1.372 . S
C639 C638 1.372 . S
C639 C640 1.400 . S
C639 C644 1.490 . S
C640 H630 0.930 . S
C640 C639 1.400 . S
C640 C643 1.386 . S
H641 C657 0.930 . S
H642 C658 0.931 . S
C643 H631 0.929 . S
C643 C637 1.390 . S
C643 C640 1.386 . S
C644 C639 1.490 . S
C644 C646 1.395 . S
C644 C647 1.403 . S
H645 C651 0.930 . S
C646 H632 0.930 . S
C646 C644 1.395 . S
C646 C649 1.403 . S
C647 C644 1.403 . S
C647 C648 1.524 . S
C647 C651 1.400 . S
C648 H633 0.960 . S
C648 H634 0.960 . S
C648 H635 0.960 . S
C648 C647 1.524 . S
C649 C646 1.403 . S
C649 C650 1.392 . S
C649 C653 1.495 . S
C650 C649 1.392 . S
C650 C651 1.385 . S
C650 C652 1.478 . S
C651 H645 0.930 . S
C651 C647 1.400 . S
C651 C650 1.385 . S
C652 C650 1.478 . S
C652 C654 1.381 . S
C652 C658 1.383 . S
C653 C649 1.495 . S
C653 H659 0.959 . S
C653 H660 0.961 . S
C653 H661 0.960 . S
C654 C652 1.381 . S
C654 C655 1.394 . S
C654 H662 0.930 . S
C655 C654 1.394 . S
C655 C656 1.383 . S
C655 H663 0.929 . S
C656 C655 1.383 . S
C656 C657 1.377 . S
C657 H641 0.930 . S
C657 C656 1.377 . S
C657 C658 1.379 . S
C658 H642 0.931 . S
C658 C652 1.383 . S
C658 C657 1.379 . S
H659 C653 0.959 . S
H660 C653 0.961 . S
H661 C653 0.960 . S
H662 C654 0.930 . S
H663 C655 0.929 . S
H664 C672 0.929 . S
H665 C674 0.930 . S
H666 C676 0.930 . S
H667 C679 0.929 . S
H668 C682 0.930 . S
H669 C684 0.960 . S
H670 C684 0.960 . S
H671 C684 0.960 . S
C672 H664 0.929 . S
C672 C673 1.377 . S
C672 C674 1.384 . S
C673 C672 1.377 . S
C673 C679 1.390 . S
C674 H665 0.930 . S
C674 C672 1.384 . S
C674 C675 1.372 . S
C675 C674 1.372 . S
C675 C676 1.400 . S
C675 C680 1.490 . S
C676 H666 0.930 . S
C676 C675 1.400 . S
C676 C679 1.386 . S
H677 C693 0.930 . S
H678 C694 0.931 . S
C679 H667 0.929 . S
C679 C673 1.390 . S
C679 C676 1.386 . S
C680 C675 1.490 . S
C680 C682 1.395 . S
C680 C683 1.403 . S
H681 C687 0.930 . S
C682 H668 0.930 . S
C682 C680 1.395 . S
C682 C685 1.403 . S
C683 C680 1.403 . S
C683 C684 1.524 . S
C683 C687 1.400 . S
C684 H669 0.960 . S
C684 H670 0.960 . S
C684 H671 0.960 . S
C684 C683 1.524 . S
C685 C682 1.403 . S
C685 C686 1.392 . S
C685 C689 1.495 . S
C686 C685 1.392 . S
C686 C687 1.385 . S
C686 C688 1.478 . S
C687 H681 0.930 . S
C687 C683 1.400 . S
C687 C686 1.385 . S
C688 C686 1.478 . S
C688 C690 1.381 . S
C688 C694 1.383 . S
C689 C685 1.495 . S
C689 H695 0.959 . S
C689 H696 0.961 . S
C689 H697 0.960 . S
C690 C688 1.381 . S
C690 C691 1.394 . S
C690 H698 0.930 . S
C691 C690 1.394 . S
C691 C692 1.383 . S
C691 H699 0.929 . S
C692 C691 1.383 . S
C692 C693 1.377 . S
C693 H677 0.930 . S
C693 C692 1.377 . S
C693 C694 1.379 . S
C694 H678 0.931 . S
C694 C688 1.383 . S
C694 C693 1.379 . S
H695 C689 0.959 . S
H696 C689 0.961 . S
H697 C689 0.960 . S
H698 C690 0.930 . S
H699 C691 0.929 . S
H700 C708 0.929 . S
H701 C710 0.930 . S
H702 C712 0.930 . S
H703 C715 0.929 . S
H704 C718 0.930 . S
H705 C720 0.960 . S
H706 C720 0.960 . S
H707 C720 0.960 . S
C708 H700 0.929 . S
C708 C709 1.377 . S
C708 C710 1.384 . S
C709 C708 1.377 . S
C709 C715 1.390 . S
C710 H701 0.930 . S
C710 C708 1.384 . S
C710 C711 1.372 . S
C711 C710 1.372 . S
C711 C712 1.400 . S
C711 C716 1.490 . S
C712 H702 0.930 . S
C712 C711 1.400 . S
C712 C715 1.386 . S
H713 C729 0.930 . S
H714 C730 0.931 . S
C715 H703 0.929 . S
C715 C709 1.390 . S
C715 C712 1.386 . S
C716 C711 1.490 . S
C716 C718 1.395 . S
C716 C719 1.403 . S
H717 C723 0.930 . S
C718 H704 0.930 . S
C718 C716 1.395 . S
C718 C721 1.403 . S
C719 C716 1.403 . S
C719 C720 1.524 . S
C719 C723 1.400 . S
C720 H705 0.960 . S
C720 H706 0.960 . S
C720 H707 0.960 . S
C720 C719 1.524 . S
C721 C718 1.403 . S
C721 C722 1.392 . S
C721 C725 1.495 . S
C722 C721 1.392 . S
C722 C723 1.385 . S
C722 C724 1.478 . S
C723 H717 0.930 . S
C723 C719 1.400 . S
C723 C722 1.385 . S
C724 C722 1.478 . S
C724 C726 1.381 . S
C724 C730 1.383 . S
C725 C721 1.495 . S
C725 H731 0.959 . S
C725 H732 0.961 . S
C725 H733 0.960 . S
C726 C724 1.381 . S
C726 C727 1.394 . S
C726 H734 0.930 . S
C727 C726 1.394 . S
C727 C728 1.383 . S
C727 H735 0.929 . S
C728 C727 1.383 . S
C728 C729 1.377 . S
C729 H713 0.930 . S
C729 C728 1.377 . S
C729 C730 1.379 . S
C730 H714 0.931 . S
C730 C724 1.383 . S
C730 C729 1.379 . S
H731 C725 0.959 . S
H732 C725 0.961 . S
H733 C725 0.960 . S
H734 C726 0.930 . S
H735 C727 0.929 . S
H736 C744 0.929 . S
H737 C746 0.930 . S
H738 C748 0.930 . S
H739 C751 0.929 . S
H740 C754 0.930 . S
H741 C756 0.960 . S
H742 C756 0.960 . S
H743 C756 0.960 . S
C744 H736 0.929 . S
C744 C745 1.377 . S
C744 C746 1.384 . S
C745 C744 1.377 . S
C745 C751 1.390 . S
C746 H737 0.930 . S
C746 C744 1.384 . S
C746 C747 1.372 . S
C747 C746 1.372 . S
C747 C748 1.400 . S
C747 C752 1.490 . S
C748 H738 0.930 . S
C748 C747 1.400 . S
C748 C751 1.386 . S
H749 C765 0.930 . S
H750 C766 0.931 . S
C751 H739 0.929 . S
C751 C745 1.390 . S
C751 C748 1.386 . S
C752 C747 1.490 . S
C752 C754 1.395 . S
C752 C755 1.403 . S
H753 C759 0.930 . S
C754 H740 0.930 . S
C754 C752 1.395 . S
C754 C757 1.403 . S
C755 C752 1.403 . S
C755 C756 1.524 . S
C755 C759 1.400 . S
C756 H741 0.960 . S
C756 H742 0.960 . S
C756 H743 0.960 . S
C756 C755 1.524 . S
C757 C754 1.403 . S
C757 C758 1.392 . S
C757 C761 1.495 . S
C758 C757 1.392 . S
C758 C759 1.385 . S
C758 C760 1.478 . S
C759 H753 0.930 . S
C759 C755 1.400 . S
C759 C758 1.385 . S
C760 C758 1.478 . S
C760 C762 1.381 . S
C760 C766 1.383 . S
C761 C757 1.495 . S
C761 H767 0.959 . S
C761 H768 0.961 . S
C761 H769 0.960 . S
C762 C760 1.381 . S
C762 C763 1.394 . S
C762 H770 0.930 . S
C763 C762 1.394 . S
C763 C764 1.383 . S
C763 H771 0.929 . S
C764 C763 1.383 . S
C764 C765 1.377 . S
C765 H749 0.930 . S
C765 C764 1.377 . S
C765 C766 1.379 . S
C766 H750 0.931 . S
C766 C760 1.383 . S
C766 C765 1.379 . S
H767 C761 0.959 . S
H768 C761 0.961 . S
H769 C761 0.960 . S
H770 C762 0.930 . S
H771 C763 0.929 . S
H772 C780 0.929 . S
H773 C782 0.930 . S
H774 C784 0.930 . S
H775 C787 0.929 . S
H776 C790 0.930 . S
H777 C792 0.960 . S
H778 C792 0.960 . S
H779 C792 0.960 . S
C780 H772 0.929 . S
C780 C781 1.377 . S
C780 C782 1.384 . S
C781 C780 1.377 . S
C781 C787 1.390 . S
C782 H773 0.930 . S
C782 C780 1.384 . S
C782 C783 1.372 . S
C783 C782 1.372 . S
C783 C784 1.400 . S
C783 C788 1.490 . S
C784 H774 0.930 . S
C784 C783 1.400 . S
C784 C787 1.386 . S
H785 C801 0.930 . S
H786 C802 0.931 . S
C787 H775 0.929 . S
C787 C781 1.390 . S
C787 C784 1.386 . S
C788 C783 1.490 . S
C788 C790 1.395 . S
C788 C791 1.403 . S
H789 C795 0.930 . S
C790 H776 0.930 . S
C790 C788 1.395 . S
C790 C793 1.403 . S
C791 C788 1.403 . S
C791 C792 1.524 . S
C791 C795 1.400 . S
C792 H777 0.960 . S
C792 H778 0.960 . S
C792 H779 0.960 . S
C792 C791 1.524 . S
C793 C790 1.403 . S
C793 C794 1.392 . S
C793 C797 1.495 . S
C794 C793 1.392 . S
C794 C795 1.385 . S
C794 C796 1.478 . S
C795 H789 0.930 . S
C795 C791 1.400 . S
C795 C794 1.385 . S
C796 C794 1.478 . S
C796 C798 1.381 . S
C796 C802 1.383 . S
C797 C793 1.495 . S
C797 H803 0.959 . S
C797 H804 0.961 . S
C797 H805 0.960 . S
C798 C796 1.381 . S
C798 C799 1.394 . S
C798 H806 0.930 . S
C799 C798 1.394 . S
C799 C800 1.383 . S
C799 H807 0.929 . S
C800 C799 1.383 . S
C800 C801 1.377 . S
C801 H785 0.930 . S
C801 C800 1.377 . S
C801 C802 1.379 . S
C802 H786 0.931 . S
C802 C796 1.383 . S
C802 C801 1.379 . S
H803 C797 0.959 . S
H804 C797 0.961 . S
H805 C797 0.960 . S
H806 C798 0.930 . S
H807 C799 0.929 . S
H808 C816 0.929 . S
H809 C818 0.930 . S
H810 C820 0.930 . S
H811 C823 0.929 . S
H812 C826 0.930 . S
H813 C828 0.960 . S
H814 C828 0.960 . S
H815 C828 0.960 . S
C816 H808 0.929 . S
C816 C817 1.377 . S
C816 C818 1.384 . S
C817 C816 1.377 . S
C817 C823 1.390 . S
C818 H809 0.930 . S
C818 C816 1.384 . S
C818 C819 1.372 . S
C819 C818 1.372 . S
C819 C820 1.400 . S
C819 C824 1.490 . S
C820 H810 0.930 . S
C820 C819 1.400 . S
C820 C823 1.386 . S
H821 C837 0.930 . S
H822 C838 0.931 . S
C823 H811 0.929 . S
C823 C817 1.390 . S
C823 C820 1.386 . S
C824 C819 1.490 . S
C824 C826 1.395 . S
C824 C827 1.403 . S
H825 C831 0.930 . S
C826 H812 0.930 . S
C826 C824 1.395 . S
C826 C829 1.403 . S
C827 C824 1.403 . S
C827 C828 1.524 . S
C827 C831 1.400 . S
C828 H813 0.960 . S
C828 H814 0.960 . S
C828 H815 0.960 . S
C828 C827 1.524 . S
C829 C826 1.403 . S
C829 C830 1.392 . S
C829 C833 1.495 . S
C830 C829 1.392 . S
C830 C831 1.385 . S
C830 C832 1.478 . S
C831 H825 0.930 . S
C831 C827 1.400 . S
C831 C830 1.385 . S
C832 C830 1.478 . S
C832 C834 1.381 . S
C832 C838 1.383 . S
C833 C829 1.495 . S
C833 H839 0.959 . S
C833 H840 0.961 . S
C833 H841 0.960 . S
C834 C832 1.381 . S
C834 C835 1.394 . S
C834 H842 0.930 . S
C835 C834 1.394 . S
C835 C836 1.383 . S
C835 H843 0.929 . S
C836 C835 1.383 . S
C836 C837 1.377 . S
C837 H821 0.930 . S
C837 C836 1.377 . S
C837 C838 1.379 . S
C838 H822 0.931 . S
C838 C832 1.383 . S
C838 C837 1.379 . S
H839 C833 0.959 . S
H840 C833 0.961 . S
H841 C833 0.960 . S
H842 C834 0.930 . S
H843 C835 0.929 . S
H844 C852 0.929 . S
H845 C854 0.930 . S
H846 C856 0.930 . S
H847 C859 0.929 . S
H848 C862 0.930 . S
H849 C864 0.960 . S
H850 C864 0.960 . S
H851 C864 0.960 . S
C852 H844 0.929 . S
C852 C853 1.377 . S
C852 C854 1.384 . S
C853 C852 1.377 . S
C853 C859 1.390 . S
C854 H845 0.930 . S
C854 C852 1.384 . S
C854 C855 1.372 . S
C855 C854 1.372 . S
C855 C856 1.400 . S
C855 C860 1.490 . S
C856 H846 0.930 . S
C856 C855 1.400 . S
C856 C859 1.386 . S
H857 C873 0.930 . S
H858 C874 0.931 . S
C859 H847 0.929 . S
C859 C853 1.390 . S
C859 C856 1.386 . S
C860 C855 1.490 . S
C860 C862 1.395 . S
C860 C863 1.403 . S
H861 C867 0.930 . S
C862 H848 0.930 . S
C862 C860 1.395 . S
C862 C865 1.403 . S
C863 C860 1.403 . S
C863 C864 1.524 . S
C863 C867 1.400 . S
C864 H849 0.960 . S
C864 H850 0.960 . S
C864 H851 0.960 . S
C864 C863 1.524 . S
C865 C862 1.403 . S
C865 C866 1.392 . S
C865 C869 1.495 . S
C866 C865 1.392 . S
C866 C867 1.385 . S
C866 C868 1.478 . S
C867 H861 0.930 . S
C867 C863 1.400 . S
C867 C866 1.385 . S
C868 C866 1.478 . S
C868 C870 1.381 . S
C868 C874 1.383 . S
C869 C865 1.495 . S
C869 H875 0.959 . S
C869 H876 0.961 . S
C869 H877 0.960 . S
C870 C868 1.381 . S
C870 C871 1.394 . S
C870 H878 0.930 . S
C871 C870 1.394 . S
C871 C872 1.383 . S
C871 H879 0.929 . S
C872 C871 1.383 . S
C872 C873 1.377 . S
C873 H857 0.930 . S
C873 C872 1.377 . S
C873 C874 1.379 . S
C874 H858 0.931 . S
C874 C868 1.383 . S
C874 C873 1.379 . S
H875 C869 0.959 . S
H876 C869 0.961 . S
H877 C869 0.960 . S
H878 C870 0.930 . S
H879 C871 0.929 . S
H880 C888 0.929 . S
H881 C890 0.930 . S
H882 C892 0.930 . S
H883 C895 0.929 . S
H884 C898 0.930 . S
H885 C900 0.960 . S
H886 C900 0.960 . S
H887 C900 0.960 . S
C888 H880 0.929 . S
C888 C889 1.377 . S
C888 C890 1.384 . S
C889 C888 1.377 . S
C889 C895 1.390 . S
C890 H881 0.930 . S
C890 C888 1.384 . S
C890 C891 1.372 . S
C891 C890 1.372 . S
C891 C892 1.400 . S
C891 C896 1.490 . S
C892 H882 0.930 . S
C892 C891 1.400 . S
C892 C895 1.386 . S
H893 C909 0.930 . S
H894 C910 0.931 . S
C895 H883 0.929 . S
C895 C889 1.390 . S
C895 C892 1.386 . S
C896 C891 1.490 . S
C896 C898 1.395 . S
C896 C899 1.403 . S
H897 C903 0.930 . S
C898 H884 0.930 . S
C898 C896 1.395 . S
C898 C901 1.403 . S
C899 C896 1.403 . S
C899 C900 1.524 . S
C899 C903 1.400 . S
C900 H885 0.960 . S
C900 H886 0.960 . S
C900 H887 0.960 . S
C900 C899 1.524 . S
C901 C898 1.403 . S
C901 C902 1.392 . S
C901 C905 1.495 . S
C902 C901 1.392 . S
C902 C903 1.385 . S
C902 C904 1.478 . S
C903 H897 0.930 . S
C903 C899 1.400 . S
C903 C902 1.385 . S
C904 C902 1.478 . S
C904 C906 1.381 . S
C904 C910 1.383 . S
C905 C901 1.495 . S
C905 H911 0.959 . S
C905 H912 0.961 . S
C905 H913 0.960 . S
C906 C904 1.381 . S
C906 C907 1.394 . S
C906 H914 0.930 . S
C907 C906 1.394 . S
C907 C908 1.383 . S
C907 H915 0.929 . S
C908 C907 1.383 . S
C908 C909 1.377 . S
C909 H893 0.930 . S
C909 C908 1.377 . S
C909 C910 1.379 . S
C910 H894 0.931 . S
C910 C904 1.383 . S
C910 C909 1.379 . S
H911 C905 0.959 . S
H912 C905 0.961 . S
H913 C905 0.960 . S
H914 C906 0.930 . S
H915 C907 0.929 . S
H916 C924 0.929 . S
H917 C926 0.930 . S
H918 C928 0.930 . S
H919 C931 0.929 . S
H920 C934 0.930 . S
H921 C936 0.960 . S
H922 C936 0.960 . S
H923 C936 0.960 . S
C924 H916 0.929 . S
C924 C925 1.377 . S
C924 C926 1.384 . S
C925 C924 1.377 . S
C925 C931 1.390 . S
C926 H917 0.930 . S
C926 C924 1.384 . S
C926 C927 1.372 . S
C927 C926 1.372 . S
C927 C928 1.400 . S
C927 C932 1.490 . S
C928 H918 0.930 . S
C928 C927 1.400 . S
C928 C931 1.386 . S
H929 C945 0.930 . S
H930 C946 0.931 . S
C931 H919 0.929 . S
C931 C925 1.390 . S
C931 C928 1.386 . S
C932 C927 1.490 . S
C932 C934 1.395 . S
C932 C935 1.403 . S
H933 C939 0.930 . S
C934 H920 0.930 . S
C934 C932 1.395 . S
C934 C937 1.403 . S
C935 C932 1.403 . S
C935 C936 1.524 . S
C935 C939 1.400 . S
C936 H921 0.960 . S
C936 H922 0.960 . S
C936 H923 0.960 . S
C936 C935 1.524 . S
C937 C934 1.403 . S
C937 C938 1.392 . S
C937 C941 1.495 . S
C938 C937 1.392 . S
C938 C939 1.385 . S
C938 C940 1.478 . S
C939 H933 0.930 . S
C939 C935 1.400 . S
C939 C938 1.385 . S
C940 C938 1.478 . S
C940 C942 1.381 . S
C940 C946 1.383 . S
C941 C937 1.495 . S
C941 H947 0.959 . S
C941 H948 0.961 . S
C941 H949 0.960 . S
C942 C940 1.381 . S
C942 C943 1.394 . S
C942 H950 0.930 . S
C943 C942 1.394 . S
C943 C944 1.383 . S
C943 H951 0.929 . S
C944 C943 1.383 . S
C944 C945 1.377 . S
C945 H929 0.930 . S
C945 C944 1.377 . S
C945 C946 1.379 . S
C946 H930 0.931 . S
C946 C940 1.383 . S
C946 C945 1.379 . S
H947 C941 0.959 . S
H948 C941 0.961 . S
H949 C941 0.960 . S
H950 C942 0.930 . S
H951 C943 0.929 . S
H952 C960 0.929 . S
H953 C962 0.930 . S
H954 C964 0.930 . S
H955 C967 0.929 . S
H956 C970 0.930 . S
H957 C972 0.960 . S
H958 C972 0.960 . S
H959 C972 0.960 . S
C960 H952 0.929 . S
C960 C961 1.377 . S
C960 C962 1.384 . S
C961 C960 1.377 . S
C961 C967 1.390 . S
C962 H953 0.930 . S
C962 C960 1.384 . S
C962 C963 1.372 . S
C963 C962 1.372 . S
C963 C964 1.400 . S
C963 C968 1.490 . S
C964 H954 0.930 . S
C964 C963 1.400 . S
C964 C967 1.386 . S
H965 C981 0.930 . S
H966 C982 0.931 . S
C967 H955 0.929 . S
C967 C961 1.390 . S
C967 C964 1.386 . S
C968 C963 1.490 . S
C968 C970 1.395 . S
C968 C971 1.403 . S
H969 C975 0.930 . S
C970 H956 0.930 . S
C970 C968 1.395 . S
C970 C973 1.403 . S
C971 C968 1.403 . S
C971 C972 1.524 . S
C971 C975 1.400 . S
C972 H957 0.960 . S
C972 H958 0.960 . S
C972 H959 0.960 . S
C972 C971 1.524 . S
C973 C970 1.403 . S
C973 C974 1.392 . S
C973 C977 1.495 . S
C974 C973 1.392 . S
C974 C975 1.385 . S
C974 C976 1.478 . S
C975 H969 0.930 . S
C975 C971 1.400 . S
C975 C974 1.385 . S
C976 C974 1.478 . S
C976 C978 1.381 . S
C976 C982 1.383 . S
C977 C973 1.495 . S
C977 H983 0.959 . S
C977 H984 0.961 . S
C977 H985 0.960 . S
C978 C976 1.381 . S
C978 C979 1.394 . S
C978 H986 0.930 . S
C979 C978 1.394 . S
C979 C980 1.383 . S
C979 H987 0.929 . S
C980 C979 1.383 . S
C980 C981 1.377 . S
C981 H965 0.930 . S
C981 C980 1.377 . S
C981 C982 1.379 . S
C982 H966 0.931 . S
C982 C976 1.383 . S
C982 C981 1.379 . S
H983 C977 0.959 . S
H984 C977 0.961 . S
H985 C977 0.960 . S
H986 C978 0.930 . S
H987 C979 0.929 . S
H988 C996 0.929 . S
H989 C998 0.930 . S
H990 C1000 0.930 . S
H991 C1003 0.929 . S
H992 C1006 0.930 . S
H993 C1008 0.960 . S
H994 C1008 0.960 . S
H995 C1008 0.960 . S
C996 H988 0.929 . S
C996 C997 1.377 . S
C996 C998 1.384 . S
C997 C996 1.377 . S
C997 C1003 1.390 . S
C998 H989 0.930 . S
C998 C996 1.384 . S
C998 C999 1.372 . S
C999 C998 1.372 . S
C999 C1000 1.400 . S
C999 C1004 1.490 . S
C1000 H990 0.930 . S
C1000 C999 1.400 . S
C1000 C1003 1.386 . S
H1001 C1017 0.930 . S
H1002 C1018 0.931 . S
C1003 H991 0.929 . S
C1003 C997 1.390 . S
C1003 C1000 1.386 . S
C1004 C999 1.490 . S
C1004 C1006 1.395 . S
C1004 C1007 1.403 . S
H1005 C1011 0.930 . S
C1006 H992 0.930 . S
C1006 C1004 1.395 . S
C1006 C1009 1.403 . S
C1007 C1004 1.403 . S
C1007 C1008 1.524 . S
C1007 C1011 1.400 . S
C1008 H993 0.960 . S
C1008 H994 0.960 . S
C1008 H995 0.960 . S
C1008 C1007 1.524 . S
C1009 C1006 1.403 . S
C1009 C1010 1.392 . S
C1009 C1013 1.495 . S
C1010 C1009 1.392 . S
C1010 C1011 1.385 . S
C1010 C1012 1.478 . S
C1011 H1005 0.930 . S
C1011 C1007 1.400 . S
C1011 C1010 1.385 . S
C1012 C1010 1.478 . S
C1012 C1014 1.381 . S
C1012 C1018 1.383 . S
C1013 C1009 1.495 . S
C1013 H1019 0.959 . S
C1013 H1020 0.961 . S
C1013 H1021 0.960 . S
C1014 C1012 1.381 . S
C1014 C1015 1.394 . S
C1014 H1022 0.930 . S
C1015 C1014 1.394 . S
C1015 C1016 1.383 . S
C1015 H1023 0.929 . S
C1016 C1015 1.383 . S
C1016 C1017 1.377 . S
C1017 H1001 0.930 . S
C1017 C1016 1.377 . S
C1017 C1018 1.379 . S
C1018 H1002 0.931 . S
C1018 C1012 1.383 . S
C1018 C1017 1.379 . S
H1019 C1013 0.959 . S
H1020 C1013 0.961 . S
H1021 C1013 0.960 . S
H1022 C1014 0.930 . S
H1023 C1015 0.929 . S
H1024 C1032 0.929 . S
H1025 C1034 0.930 . S
H1026 C1036 0.930 . S
H1027 C1039 0.929 . S
H1028 C1042 0.960 . S
H1029 C1044 0.960 . S
H1030 C1044 0.960 . S
H1031 C1044 0.960 . S
C1032 H1024 0.929 . S
C1032 C1033 1.377 . S
C1032 C1034 1.384 . S
C1033 C1032 1.377 . S
C1033 C1039 1.390 . S
C1034 H1025 0.930 . S
C1034 C1032 1.384 . S
C1034 C1035 1.372 . S
C1035 C1034 1.372 . S
C1035 C1036 1.400 . S
C1035 C1040 1.490 . S
C1036 H1026 0.930 . S
C1036 C1035 1.400 . S
C1036 C1039 1.386 . S
H1037 C1053 0.930 . S
H1038 C1054 0.931 . S
C1039 H1027 0.929 . S
C1039 C1033 1.390 . S
C1039 C1036 1.386 . S
C1040 C1035 1.490 . S
C1040 C1042 1.493 . S
C1040 C1043 1.403 . S
H1041 C1047 0.930 . S
C1042 H1028 0.960 . S
C1042 C1040 1.493 . S
C1042 C1045 1.286 1_565 S
C1043 C1040 1.403 . S
C1043 C1044 1.524 . S
C1043 C1047 1.400 1_565 S
C1044 H1029 0.960 . S
C1044 H1030 0.960 . S
C1044 H1031 0.960 . S
C1044 C1043 1.524 . S
C1045 C1042 1.286 1_545 S
C1045 C1046 1.392 . S
C1045 C1049 1.495 . S
C1046 C1045 1.392 . S
C1046 C1047 1.385 . S
C1046 C1048 1.478 . S
C1047 H1041 0.930 . S
C1047 C1043 1.400 1_545 S
C1047 C1046 1.385 . S
C1048 C1046 1.478 . S
C1048 C1050 1.381 . S
C1048 C1054 1.383 . S
C1049 C1045 1.495 . S
C1049 H1055 0.959 . S
C1049 H1056 0.961 . S
C1049 H1057 0.960 . S
C1050 C1048 1.381 . S
C1050 C1051 1.394 . S
C1050 H1058 0.930 . S
C1051 C1050 1.394 . S
C1051 C1052 1.383 . S
C1051 H1059 0.929 . S
C1052 C1051 1.383 . S
C1052 C1053 1.377 . S
C1053 H1037 0.930 . S
C1053 C1052 1.377 . S
C1053 C1054 1.379 . S
C1054 H1038 0.931 . S
C1054 C1048 1.383 . S
C1054 C1053 1.379 . S
H1055 C1049 0.959 . S
H1056 C1049 0.961 . S
H1057 C1049 0.960 . S
H1058 C1050 0.930 . S
H1059 C1051 0.929 . S
H1060 C1068 0.929 . S
H1061 C1070 0.930 . S
H1062 C1072 0.930 . S
H1063 C1075 0.929 . S
H1064 C1078 0.930 . S
H1065 C1080 0.960 . S
H1066 C1080 0.960 . S
H1067 C1080 0.960 . S
C1068 H1060 0.929 . S
C1068 C1069 1.377 . S
C1068 C1070 1.384 . S
C1069 C1068 1.377 . S
C1069 C1075 1.390 . S
C1070 H1061 0.930 . S
C1070 C1068 1.384 . S
C1070 C1071 1.372 . S
C1071 C1070 1.372 . S
C1071 C1072 1.400 . S
C1071 C1076 1.490 . S
C1072 H1062 0.930 . S
C1072 C1071 1.400 . S
C1072 C1075 1.386 . S
H1073 C1089 0.930 . S
H1074 C1090 0.931 . S
C1075 H1063 0.929 . S
C1075 C1069 1.390 . S
C1075 C1072 1.386 . S
C1076 C1071 1.490 . S
C1076 C1078 1.395 . S
C1076 C1079 1.403 1_655 S
H1077 C1083 0.930 . S
C1078 H1064 0.930 . S
C1078 C1076 1.395 . S
C1078 C1081 1.403 . S
C1079 C1076 1.403 1_455 S
C1079 C1080 1.524 . S
C1079 C1083 1.400 . S
C1080 H1065 0.960 . S
C1080 H1066 0.960 . S
C1080 H1067 0.960 . S
C1080 C1079 1.524 . S
C1081 C1078 1.403 . S
C1081 C1082 1.392 1_655 S
C1081 C1085 1.495 . S
C1082 C1081 1.392 1_455 S
C1082 C1083 1.385 . S
C1082 C1084 1.478 . S
C1083 H1077 0.930 . S
C1083 C1079 1.400 . S
C1083 C1082 1.385 . S
C1084 C1082 1.478 . S
C1084 C1086 1.381 . S
C1084 C1090 1.383 . S
C1085 C1081 1.495 . S
C1085 H1091 0.959 . S
C1085 H1092 0.961 . S
C1085 H1093 0.960 . S
C1086 C1084 1.381 . S
C1086 C1087 1.394 . S
C1086 H1094 0.930 . S
C1087 C1086 1.394 . S
C1087 C1088 1.383 . S
C1087 H1095 0.929 . S
C1088 C1087 1.383 . S
C1088 C1089 1.377 . S
C1089 H1073 0.930 . S
C1089 C1088 1.377 . S
C1089 C1090 1.379 . S
C1090 H1074 0.931 . S
C1090 C1084 1.383 . S
C1090 C1089 1.379 . S
H1091 C1085 0.959 . S
H1092 C1085 0.961 . S
H1093 C1085 0.960 . S
H1094 C1086 0.930 . S
H1095 C1087 0.929 . S
H1096 C1104 0.929 . S
H1097 C1106 0.930 . S
H1098 C1108 0.930 . S
H1099 C1111 0.929 . S
H1100 C1114 0.930 . S
H1101 C1116 0.974 . S
H1102 C1116 0.909 1_556 S
H1103 C1116 1.002 . S
C1104 H1096 0.929 . S
C1104 C1105 1.377 . S
C1104 C1106 1.384 . S
C1105 C1104 1.377 . S
C1105 C1111 1.390 1_556 S
C1106 H1097 0.930 . S
C1106 C1104 1.384 . S
C1106 C1107 1.372 . S
C1107 C1106 1.372 . S
C1107 C1108 1.400 1_556 S
C1107 C1112 1.490 . S
C1108 H1098 0.930 . S
C1108 C1107 1.400 1_554 S
C1108 C1111 1.386 . S
H1109 C1125 0.930 . S
H1110 C1126 0.931 . S
C1111 H1099 0.929 . S
C1111 C1105 1.390 1_554 S
C1111 C1108 1.386 . S
C1112 C1107 1.490 . S
C1112 C1114 1.395 . S
C1112 C1115 1.403 1_556 S
H1113 C1119 0.930 . S
C1114 H1100 0.930 . S
C1114 C1112 1.395 . S
C1114 C1117 1.403 . S
C1115 C1112 1.403 1_554 S
C1115 C1116 1.523 . S
C1115 C1119 1.400 . S
C1116 H1101 0.974 . S
C1116 H1102 0.909 1_554 S
C1116 H1103 1.002 . S
C1116 C1115 1.523 . S
C1117 C1114 1.403 . S
C1117 C1118 1.392 1_556 S
C1117 C1121 1.495 . S
C1118 C1117 1.392 1_554 S
C1118 C1119 1.385 . S
C1118 C1120 1.478 . S
C1119 H1113 0.930 . S
C1119 C1115 1.400 . S
C1119 C1118 1.385 . S
C1120 C1118 1.478 . S
C1120 C1122 1.381 1_554 S
C1120 C1126 1.383 . S
C1121 C1117 1.495 . S
C1121 H1127 0.959 . S
C1121 H1128 0.961 1_556 S
C1121 H1129 0.960 . S
C1122 C1120 1.381 1_556 S
C1122 C1123 1.394 . S
C1122 H1130 0.930 . S
C1123 C1122 1.394 . S
C1123 C1124 1.383 1_556 S
C1123 H1131 0.929 . S
C1124 C1123 1.383 1_554 S
C1124 C1125 1.377 . S
C1125 H1109 0.930 . S
C1125 C1124 1.377 . S
C1125 C1126 1.379 . S
C1126 H1110 0.931 . S
C1126 C1120 1.383 . S
C1126 C1125 1.379 . S
H1127 C1121 0.959 . S
H1128 C1121 0.961 1_554 S
H1129 C1121 0.960 . S
H1130 C1122 0.930 . S
H1131 C1123 0.929 . S
H1132 C1140 0.929 . S
H1133 C1142 0.930 . S
H1134 C1144 0.930 . S
H1135 C1147 0.929 . S
H1136 C1150 0.930 . S
H1137 C1152 0.960 1_565 S
H1138 C1152 0.960 . S
H1139 C1152 0.960 . S
C1140 H1132 0.929 . S
C1140 C1141 1.377 1_554 S
C1140 C1142 1.384 . S
C1141 C1140 1.377 1_556 S
C1141 C1147 1.390 . S
C1142 H1133 0.930 . S
C1142 C1140 1.384 . S
C1142 C1143 1.372 1_554 S
C1143 C1142 1.372 1_556 S
C1143 C1144 1.400 . S
C1143 C1148 1.490 . S
C1144 H1134 0.930 . S
C1144 C1143 1.400 . S
C1144 C1147 1.386 . S
H1145 C1161 0.930 . S
H1146 C1162 0.931 . S
C1147 H1135 0.929 . S
C1147 C1141 1.390 . S
C1147 C1144 1.386 . S
C1148 C1143 1.490 . S
C1148 C1150 1.395 1_456 S
C1148 C1151 1.502 . S
H1149 C1155 0.930 . S
C1150 H1136 0.930 . S
C1150 C1148 1.395 1_654 S
C1150 C1153 1.348 1_545 S
C1151 C1148 1.502 . S
C1151 C1152 1.531 . S
C1151 C1155 1.297 1_545 S
C1152 H1137 0.960 1_545 S
C1152 H1138 0.960 . S
C1152 H1139 0.960 . S
C1152 C1151 1.531 . S
C1153 C1150 1.348 1_565 S
C1153 C1154 1.444 . S
C1153 C1157 1.494 . S
C1154 C1153 1.444 . S
C1154 C1155 1.385 1_654 S
C1154 C1156 1.478 . S
C1155 H1149 0.930 . S
C1155 C1151 1.297 1_565 S
C1155 C1154 1.385 1_456 S
C1156 C1154 1.478 . S
C1156 C1158 1.381 . S
C1156 C1162 1.383 1_554 S
C1157 C1153 1.494 . S
C1157 H1163 0.848 1_565 S
C1157 H1164 1.002 . S
C1157 H1165 1.048 . S
C1158 C1156 1.381 . S
C1158 C1159 1.394 . S
C1158 H1166 0.930 . S
C1159 C1158 1.394 . S
C1159 C1160 1.383 . S
C1159 H1167 0.929 . S
C1160 C1159 1.383 . S
C1160 C1161 1.377 1_554 S
C1161 H1145 0.930 . S
C1161 C1160 1.377 1_556 S
C1161 C1162 1.379 . S
C1162 H1146 0.931 . S
C1162 C1156 1.383 1_556 S
C1162 C1161 1.379 . S
H1163 C1157 0.848 1_545 S
H1164 C1157 1.002 . S
H1165 C1157 1.048 . S
H1166 C1158 0.930 . S
H1167 C1159 0.929 . S
H1168 C1176 0.929 . S
H1169 C1178 0.930 . S
H1170 C1180 0.930 . S
H1171 C1183 0.929 . S
H1172 C1186 0.930 . S
H1173 C1188 0.960 . S
H1174 C1188 0.960 . S
H1175 C1188 0.960 . S
C1176 H1168 0.929 . S
C1176 C1177 1.377 . S
C1176 C1178 1.384 . S
C1177 C1176 1.377 . S
C1177 C1183 1.390 . S
C1178 H1169 0.930 . S
C1178 C1176 1.384 . S
C1178 C1179 1.372 . S
C1179 C1178 1.372 . S
C1179 C1180 1.400 . S
C1179 C1184 1.490 . S
C1180 H1170 0.930 . S
C1180 C1179 1.400 . S
C1180 C1183 1.386 . S
H1181 C1197 0.930 . S
H1182 C1198 0.931 . S
C1183 H1171 0.929 . S
C1183 C1177 1.390 . S
C1183 C1180 1.386 . S
C1184 C1179 1.490 . S
C1184 C1186 1.395 . S
C1184 C1187 1.403 . S
H1185 C1191 0.930 . S
C1186 H1172 0.930 . S
C1186 C1184 1.395 . S
C1186 C1189 1.403 1_545 S
C1187 C1184 1.403 . S
C1187 C1188 1.524 . S
C1187 C1191 1.400 1_545 S
C1188 H1173 0.960 . S
C1188 H1174 0.960 . S
C1188 H1175 0.960 . S
C1188 C1187 1.524 . S
C1189 C1186 1.403 1_565 S
C1189 C1190 1.392 . S
C1189 C1193 1.495 . S
C1190 C1189 1.392 . S
C1190 C1191 1.385 . S
C1190 C1192 1.478 . S
C1191 H1185 0.930 . S
C1191 C1187 1.400 1_565 S
C1191 C1190 1.385 . S
C1192 C1190 1.478 . S
C1192 C1194 1.381 . S
C1192 C1198 1.383 . S
C1193 C1189 1.495 . S
C1193 H1199 0.959 . S
C1193 H1200 0.961 . S
C1193 H1201 0.960 . S
C1194 C1192 1.381 . S
C1194 C1195 1.394 . S
C1194 H1202 0.930 . S
C1195 C1194 1.394 . S
C1195 C1196 1.383 . S
C1195 H1203 0.929 . S
C1196 C1195 1.383 . S
C1196 C1197 1.377 . S
C1197 H1181 0.930 . S
C1197 C1196 1.377 . S
C1197 C1198 1.379 . S
C1198 H1182 0.931 . S
C1198 C1192 1.383 . S
C1198 C1197 1.379 . S
H1199 C1193 0.959 . S
H1200 C1193 0.961 . S
H1201 C1193 0.960 . S
H1202 C1194 0.930 . S
H1203 C1195 0.929 . S
H1204 C1212 0.929 . S
H1205 C1214 0.930 . S
H1206 C1216 0.930 . S
H1207 C1219 0.929 . S
H1208 C1222 0.930 . S
H1209 C1224 0.960 . S
H1210 C1224 0.960 . S
H1211 C1224 0.960 . S
C1212 H1204 0.929 . S
C1212 C1213 1.377 . S
C1212 C1214 1.384 . S
C1213 C1212 1.377 . S
C1213 C1219 1.390 . S
C1214 H1205 0.930 . S
C1214 C1212 1.384 . S
C1214 C1215 1.372 . S
C1215 C1214 1.372 . S
C1215 C1216 1.400 . S
C1215 C1220 1.490 . S
C1216 H1206 0.930 . S
C1216 C1215 1.400 . S
C1216 C1219 1.386 . S
H1217 C1233 0.930 . S
H1218 C1234 0.931 . S
C1219 H1207 0.929 . S
C1219 C1213 1.390 . S
C1219 C1216 1.386 . S
C1220 C1215 1.490 . S
C1220 C1222 1.395 . S
C1220 C1223 1.403 1_455 S
H1221 C1227 0.930 . S
C1222 H1208 0.930 . S
C1222 C1220 1.395 . S
C1222 C1225 1.403 . S
C1223 C1220 1.403 1_655 S
C1223 C1224 1.524 . S
C1223 C1227 1.400 . S
C1224 H1209 0.960 . S
C1224 H1210 0.960 . S
C1224 H1211 0.960 . S
C1224 C1223 1.524 . S
C1225 C1222 1.403 . S
C1225 C1226 1.392 1_455 S
C1225 C1229 1.495 . S
C1226 C1225 1.392 1_655 S
C1226 C1227 1.385 . S
C1226 C1228 1.478 . S
C1227 H1221 0.930 . S
C1227 C1223 1.400 . S
C1227 C1226 1.385 . S
C1228 C1226 1.478 . S
C1228 C1230 1.381 . S
C1228 C1234 1.383 . S
C1229 C1225 1.495 . S
C1229 H1235 0.959 . S
C1229 H1236 0.961 . S
C1229 H1237 0.960 . S
C1230 C1228 1.381 . S
C1230 C1231 1.394 . S
C1230 H1238 0.930 . S
C1231 C1230 1.394 . S
C1231 C1232 1.383 . S
C1231 H1239 0.929 . S
C1232 C1231 1.383 . S
C1232 C1233 1.377 . S
C1233 H1217 0.930 . S
C1233 C1232 1.377 . S
C1233 C1234 1.379 . S
C1234 H1218 0.931 . S
C1234 C1228 1.383 . S
C1234 C1233 1.379 . S
H1235 C1229 0.959 . S
H1236 C1229 0.961 . S
H1237 C1229 0.960 . S
H1238 C1230 0.930 . S
H1239 C1231 0.929 . S
H1240 C1248 0.929 . S
H1241 C1250 0.930 . S
H1242 C1252 0.930 . S
H1243 C1255 0.929 . S
H1244 C1258 0.930 . S
H1245 C1260 0.960 . S
H1246 C1260 0.960 . S
H1247 C1260 0.960 . S
C1248 H1240 0.929 . S
C1248 C1249 1.377 . S
C1248 C1250 1.384 . S
C1249 C1248 1.377 . S
C1249 C1255 1.390 1_556 S
C1250 H1241 0.930 . S
C1250 C1248 1.384 . S
C1250 C1251 1.372 . S
C1251 C1250 1.372 . S
C1251 C1252 1.400 1_556 S
C1251 C1256 1.490 . S
C1252 H1242 0.930 . S
C1252 C1251 1.400 1_554 S
C1252 C1255 1.386 . S
H1253 C1269 0.930 . S
H1254 C1270 0.931 . S
C1255 H1243 0.929 . S
C1255 C1249 1.390 1_554 S
C1255 C1252 1.386 . S
C1256 C1251 1.490 . S
C1256 C1258 1.395 . S
C1256 C1259 1.403 1_556 S
H1257 C1263 0.930 . S
C1258 H1244 0.930 . S
C1258 C1256 1.395 . S
C1258 C1261 1.403 . S
C1259 C1256 1.403 1_554 S
C1259 C1260 1.524 . S
C1259 C1263 1.400 . S
C1260 H1245 0.960 . S
C1260 H1246 0.960 . S
C1260 H1247 0.960 . S
C1260 C1259 1.524 . S
C1261 C1258 1.403 . S
C1261 C1262 1.403 . S
C1261 C1265 1.495 . S
C1262 C1261 1.403 . S
C1262 C1263 1.376 1_556 S
C1262 C1264 1.475 1_556 S
C1263 H1257 0.930 . S
C1263 C1259 1.400 . S
C1263 C1262 1.376 1_554 S
C1264 C1262 1.475 1_554 S
C1264 C1266 1.381 1_554 S
C1264 C1270 1.383 . S
C1265 C1261 1.495 . S
C1265 H1271 0.959 . S
C1265 H1272 0.961 . S
C1265 H1273 0.960 . S
C1266 C1264 1.381 1_556 S
C1266 C1267 1.394 . S
C1266 H1274 0.930 . S
C1267 C1266 1.394 . S
C1267 C1268 1.383 1_556 S
C1267 H1275 0.929 . S
C1268 C1267 1.383 1_554 S
C1268 C1269 1.377 . S
C1269 H1253 0.930 . S
C1269 C1268 1.377 . S
C1269 C1270 1.379 . S
C1270 H1254 0.931 . S
C1270 C1264 1.383 . S
C1270 C1269 1.379 . S
H1271 C1265 0.959 . S
H1272 C1265 0.961 . S
H1273 C1265 0.960 . S
H1274 C1266 0.930 . S
H1275 C1267 0.929 . S
H1276 C1284 0.929 . S
H1277 C1286 0.930 . S
H1278 C1288 0.930 . S
H1279 C1291 0.929 . S
H1280 C1294 0.930 . S
H1281 C1296 0.960 . S
H1282 C1296 0.960 . S
H1283 C1296 0.960 . S
C1284 H1276 0.929 . S
C1284 C1285 1.377 . S
C1284 C1286 1.384 . S
C1285 C1284 1.377 . S
C1285 C1291 1.390 . S
C1286 H1277 0.930 . S
C1286 C1284 1.384 . S
C1286 C1287 1.372 . S
C1287 C1286 1.372 . S
C1287 C1288 1.400 . S
C1287 C1292 1.490 . S
C1288 H1278 0.930 . S
C1288 C1287 1.400 . S
C1288 C1291 1.386 . S
H1289 C1305 0.930 . S
H1290 C1306 0.931 . S
C1291 H1279 0.929 . S
C1291 C1285 1.390 . S
C1291 C1288 1.386 . S
C1292 C1287 1.490 . S
C1292 C1294 1.395 . S
C1292 C1295 1.403 . S
H1293 C1299 0.930 . S
C1294 H1280 0.930 . S
C1294 C1292 1.395 . S
C1294 C1297 1.403 . S
C1295 C1292 1.403 . S
C1295 C1296 1.524 . S
C1295 C1299 1.400 . S
C1296 H1281 0.960 . S
C1296 H1282 0.960 . S
C1296 H1283 0.960 . S
C1296 C1295 1.524 . S
C1297 C1294 1.403 . S
C1297 C1298 1.392 . S
C1297 C1301 1.495 . S
C1298 C1297 1.392 . S
C1298 C1299 1.385 . S
C1298 C1300 1.478 . S
C1299 H1293 0.930 . S
C1299 C1295 1.400 . S
C1299 C1298 1.385 . S
C1300 C1298 1.478 . S
C1300 C1302 1.381 . S
C1300 C1306 1.383 . S
C1301 C1297 1.495 . S
C1301 H1307 0.959 . S
C1301 H1308 0.961 . S
C1301 H1309 0.960 . S
C1302 C1300 1.381 . S
C1302 C1303 1.394 . S
C1302 H1310 0.930 . S
C1303 C1302 1.394 . S
C1303 C1304 1.383 . S
C1303 H1311 0.929 . S
C1304 C1303 1.383 . S
C1304 C1305 1.377 . S
C1305 H1289 0.930 . S
C1305 C1304 1.377 . S
C1305 C1306 1.379 . S
C1306 H1290 0.931 . S
C1306 C1300 1.383 . S
C1306 C1305 1.379 . S
H1307 C1301 0.959 . S
H1308 C1301 0.961 . S
H1309 C1301 0.960 . S
H1310 C1302 0.930 . S
H1311 C1303 0.929 . S
H1312 C1320 0.929 . S
H1313 C1322 0.930 . S
H1314 C1324 0.930 . S
H1315 C1327 0.929 . S
H1316 C1330 0.930 . S
H1317 C1332 0.960 . S
H1318 C1332 0.960 . S
H1319 C1332 0.960 . S
C1320 H1312 0.929 . S
C1320 C1321 1.377 . S
C1320 C1322 1.384 . S
C1321 C1320 1.377 . S
C1321 C1327 1.390 . S
C1322 H1313 0.930 . S
C1322 C1320 1.384 . S
C1322 C1323 1.372 . S
C1323 C1322 1.372 . S
C1323 C1324 1.400 . S
C1323 C1328 1.490 . S
C1324 H1314 0.930 . S
C1324 C1323 1.400 . S
C1324 C1327 1.386 . S
H1325 C1341 0.930 . S
H1326 C1342 0.931 . S
C1327 H1315 0.929 . S
C1327 C1321 1.390 . S
C1327 C1324 1.386 . S
C1328 C1323 1.490 . S
C1328 C1330 1.395 . S
C1328 C1331 1.403 . S
H1329 C1335 0.930 . S
C1330 H1316 0.930 . S
C1330 C1328 1.395 . S
C1330 C1333 1.403 . S
C1331 C1328 1.403 . S
C1331 C1332 1.524 . S
C1331 C1335 1.400 . S
C1332 H1317 0.960 . S
C1332 H1318 0.960 . S
C1332 H1319 0.960 . S
C1332 C1331 1.524 . S
C1333 C1330 1.403 . S
C1333 C1334 1.392 . S
C1333 C1337 1.495 . S
C1334 C1333 1.392 . S
C1334 C1335 1.385 . S
C1334 C1336 1.478 . S
C1335 H1329 0.930 . S
C1335 C1331 1.400 . S
C1335 C1334 1.385 . S
C1336 C1334 1.478 . S
C1336 C1338 1.381 . S
C1336 C1342 1.383 . S
C1337 C1333 1.495 . S
C1337 H1343 0.959 . S
C1337 H1344 0.961 . S
C1337 H1345 0.960 . S
C1338 C1336 1.381 . S
C1338 C1339 1.394 . S
C1338 H1346 0.930 . S
C1339 C1338 1.394 . S
C1339 C1340 1.383 . S
C1339 H1347 0.929 . S
C1340 C1339 1.383 . S
C1340 C1341 1.377 . S
C1341 H1325 0.930 . S
C1341 C1340 1.377 . S
C1341 C1342 1.379 . S
C1342 H1326 0.931 . S
C1342 C1336 1.383 . S
C1342 C1341 1.379 . S
H1343 C1337 0.959 . S
H1344 C1337 0.961 . S
H1345 C1337 0.960 . S
H1346 C1338 0.930 . S
H1347 C1339 0.929 . S
H1348 C1356 0.929 . S
H1349 C1358 0.930 . S
H1350 C1360 0.930 1_455 S
H1351 C1363 0.929 . S
H1352 C1366 0.930 . S
H1353 C1368 0.960 . S
H1354 C1368 0.960 . S
H1355 C1368 0.960 . S
C1356 H1348 0.929 . S
C1356 C1357 1.377 . S
C1356 C1358 1.384 . S
C1357 C1356 1.377 . S
C1357 C1363 1.390 . S
C1358 H1349 0.930 . S
C1358 C1356 1.384 . S
C1358 C1359 1.372 . S
C1359 C1358 1.372 . S
C1359 C1360 1.400 . S
C1359 C1364 1.490 . S
C1360 H1350 0.930 1_655 S
C1360 C1359 1.400 . S
C1360 C1363 1.386 . S
H1361 C1377 0.930 . S
H1362 C1378 0.931 . S
C1363 H1351 0.929 . S
C1363 C1357 1.390 . S
C1363 C1360 1.386 . S
C1364 C1359 1.490 . S
C1364 C1366 1.395 . S
C1364 C1367 1.403 1_655 S
H1365 C1371 0.930 . S
C1366 H1352 0.930 . S
C1366 C1364 1.395 . S
C1366 C1369 1.403 . S
C1367 C1364 1.403 1_455 S
C1367 C1368 1.524 . S
C1367 C1371 1.400 . S
C1368 H1353 0.960 . S
C1368 H1354 0.960 . S
C1368 H1355 0.960 . S
C1368 C1367 1.524 . S
C1369 C1366 1.403 . S
C1369 C1370 1.392 1_655 S
C1369 C1373 1.495 . S
C1370 C1369 1.392 1_455 S
C1370 C1371 1.385 . S
C1370 C1372 1.478 . S
C1371 H1365 0.930 . S
C1371 C1367 1.400 . S
C1371 C1370 1.385 . S
C1372 C1370 1.478 . S
C1372 C1374 1.381 . S
C1372 C1378 1.383 . S
C1373 C1369 1.495 . S
C1373 H1379 0.959 . S
C1373 H1380 0.961 . S
C1373 H1381 0.960 . S
C1374 C1372 1.381 . S
C1374 C1375 1.394 . S
C1374 H1382 0.930 1_455 S
C1375 C1374 1.394 . S
C1375 C1376 1.383 . S
C1375 H1383 0.929 . S
C1376 C1375 1.383 . S
C1376 C1377 1.377 . S
C1377 H1361 0.930 . S
C1377 C1376 1.377 . S
C1377 C1378 1.379 . S
C1378 H1362 0.931 . S
C1378 C1372 1.383 . S
C1378 C1377 1.379 . S
H1379 C1373 0.959 . S
H1380 C1373 0.961 . S
H1381 C1373 0.960 . S
H1382 C1374 0.930 1_655 S
H1383 C1375 0.929 . S
H1384 C1392 0.929 . S
H1385 C1394 0.930 . S
H1386 C1396 0.930 . S
H1387 C1399 0.929 . S
H1388 C1402 0.930 . S
H1389 C1404 0.960 . S
H1390 C1404 0.960 . S
H1391 C1404 0.960 . S
C1392 H1384 0.929 . S
C1392 C1393 1.377 . S
C1392 C1394 1.384 . S
C1393 C1392 1.377 . S
C1393 C1399 1.390 . S
C1394 H1385 0.930 . S
C1394 C1392 1.384 . S
C1394 C1395 1.372 . S
C1395 C1394 1.372 . S
C1395 C1396 1.400 . S
C1395 C1400 1.490 . S
C1396 H1386 0.930 . S
C1396 C1395 1.400 . S
C1396 C1399 1.386 . S
H1397 C1413 0.930 . S
H1398 C1414 0.931 . S
C1399 H1387 0.929 . S
C1399 C1393 1.390 . S
C1399 C1396 1.386 . S
C1400 C1395 1.490 . S
C1400 C1402 1.395 . S
C1400 C1403 1.403 . S
H1401 C1407 0.930 . S
C1402 H1388 0.930 . S
C1402 C1400 1.395 . S
C1402 C1405 1.403 . S
C1403 C1400 1.403 . S
C1403 C1404 1.524 . S
C1403 C1407 1.400 . S
C1404 H1389 0.960 . S
C1404 H1390 0.960 . S
C1404 H1391 0.960 . S
C1404 C1403 1.524 . S
C1405 C1402 1.403 . S
C1405 C1406 1.392 . S
C1405 C1409 1.495 . S
C1406 C1405 1.392 . S
C1406 C1407 1.385 . S
C1406 C1408 1.478 . S
C1407 H1401 0.930 . S
C1407 C1403 1.400 . S
C1407 C1406 1.385 . S
C1408 C1406 1.478 . S
C1408 C1410 1.381 . S
C1408 C1414 1.383 . S
C1409 C1405 1.495 . S
C1409 H1415 0.959 . S
C1409 H1416 0.961 . S
C1409 H1417 0.960 . S
C1410 C1408 1.381 . S
C1410 C1411 1.394 . S
C1410 H1418 0.930 . S
C1411 C1410 1.394 . S
C1411 C1412 1.383 . S
C1411 H1419 0.929 . S
C1412 C1411 1.383 . S
C1412 C1413 1.377 . S
C1413 H1397 0.930 . S
C1413 C1412 1.377 . S
C1413 C1414 1.379 . S
C1414 H1398 0.931 . S
C1414 C1408 1.383 . S
C1414 C1413 1.379 . S
H1415 C1409 0.959 . S
H1416 C1409 0.961 . S
H1417 C1409 0.960 . S
H1418 C1410 0.930 . S
H1419 C1411 0.929 . S
H1420 C1428 0.929 . S
H1421 C1430 0.930 . S
H1422 C1432 0.930 . S
H1423 C1435 0.929 . S
H1424 C1438 0.930 . S
H1425 C1440 0.960 . S
H1426 C1440 0.960 . S
H1427 C1440 0.960 . S
C1428 H1420 0.929 . S
C1428 C1429 1.377 . S
C1428 C1430 1.384 . S
C1429 C1428 1.377 . S
C1429 C1435 1.390 . S
C1430 H1421 0.930 . S
C1430 C1428 1.384 . S
C1430 C1431 1.372 . S
C1431 C1430 1.372 . S
C1431 C1432 1.400 . S
C1431 C1436 1.490 . S
C1432 H1422 0.930 . S
C1432 C1431 1.400 . S
C1432 C1435 1.386 . S
H1433 C1449 0.930 . S
H1434 C1450 0.931 . S
C1435 H1423 0.929 . S
C1435 C1429 1.390 . S
C1435 C1432 1.386 . S
C1436 C1431 1.490 . S
C1436 C1438 1.395 . S
C1436 C1439 1.403 . S
H1437 C1443 0.930 . S
C1438 H1424 0.930 . S
C1438 C1436 1.395 . S
C1438 C1441 1.403 . S
C1439 C1436 1.403 . S
C1439 C1440 1.524 . S
C1439 C1443 1.400 . S
C1440 H1425 0.960 . S
C1440 H1426 0.960 . S
C1440 H1427 0.960 . S
C1440 C1439 1.524 . S
C1441 C1438 1.403 . S
C1441 C1442 1.392 . S
C1441 C1445 1.495 . S
C1442 C1441 1.392 . S
C1442 C1443 1.385 . S
C1442 C1444 1.478 . S
C1443 H1437 0.930 . S
C1443 C1439 1.400 . S
C1443 C1442 1.385 . S
C1444 C1442 1.478 . S
C1444 C1446 1.381 . S
C1444 C1450 1.383 . S
C1445 C1441 1.495 . S
C1445 H1451 0.959 . S
C1445 H1452 0.961 . S
C1445 H1453 0.960 . S
C1446 C1444 1.381 . S
C1446 C1447 1.394 . S
C1446 H1454 0.930 . S
C1447 C1446 1.394 . S
C1447 C1448 1.383 . S
C1447 H1455 0.929 . S
C1448 C1447 1.383 . S
C1448 C1449 1.377 . S
C1449 H1433 0.930 . S
C1449 C1448 1.377 . S
C1449 C1450 1.379 . S
C1450 H1434 0.931 . S
C1450 C1444 1.383 . S
C1450 C1449 1.379 . S
H1451 C1445 0.959 . S
H1452 C1445 0.961 . S
H1453 C1445 0.960 . S
H1454 C1446 0.930 . S
H1455 C1447 0.929 . S
H1456 C1464 0.929 . S
H1457 C1466 0.930 . S
H1458 C1468 0.930 . S
H1459 C1471 0.929 . S
H1460 C1474 0.930 . S
H1461 C1476 0.960 . S
H1462 C1476 0.960 . S
H1463 C1476 0.960 . S
C1464 H1456 0.929 . S
C1464 C1465 1.377 . S
C1464 C1466 1.384 . S
C1465 C1464 1.377 . S
C1465 C1471 1.390 . S
C1466 H1457 0.930 . S
C1466 C1464 1.384 . S
C1466 C1467 1.372 . S
C1467 C1466 1.372 . S
C1467 C1468 1.400 . S
C1467 C1472 1.490 . S
C1468 H1458 0.930 . S
C1468 C1467 1.400 . S
C1468 C1471 1.386 . S
H1469 C1485 0.930 . S
H1470 C1486 0.931 . S
C1471 H1459 0.929 . S
C1471 C1465 1.390 . S
C1471 C1468 1.386 . S
C1472 C1467 1.490 . S
C1472 C1474 1.395 . S
C1472 C1475 1.403 . S
H1473 C1479 0.930 . S
C1474 H1460 0.930 . S
C1474 C1472 1.395 . S
C1474 C1477 1.403 . S
C1475 C1472 1.403 . S
C1475 C1476 1.524 . S
C1475 C1479 1.400 . S
C1476 H1461 0.960 . S
C1476 H1462 0.960 . S
C1476 H1463 0.960 . S
C1476 C1475 1.524 . S
C1477 C1474 1.403 . S
C1477 C1478 1.392 . S
C1477 C1481 1.495 . S
C1478 C1477 1.392 . S
C1478 C1479 1.385 . S
C1478 C1480 1.478 . S
C1479 H1473 0.930 . S
C1479 C1475 1.400 . S
C1479 C1478 1.385 . S
C1480 C1478 1.478 . S
C1480 C1482 1.381 . S
C1480 C1486 1.383 . S
C1481 C1477 1.495 . S
C1481 H1487 0.959 . S
C1481 H1488 0.961 . S
C1481 H1489 0.960 . S
C1482 C1480 1.381 . S
C1482 C1483 1.394 . S
C1482 H1490 0.930 . S
C1483 C1482 1.394 . S
C1483 C1484 1.383 . S
C1483 H1491 0.929 . S
C1484 C1483 1.383 . S
C1484 C1485 1.377 . S
C1485 H1469 0.930 . S
C1485 C1484 1.377 . S
C1485 C1486 1.379 . S
C1486 H1470 0.931 . S
C1486 C1480 1.383 . S
C1486 C1485 1.379 . S
H1487 C1481 0.959 . S
H1488 C1481 0.961 . S
H1489 C1481 0.960 . S
H1490 C1482 0.930 . S
H1491 C1483 0.929 . S
H1492 C1500 0.929 . S
H1493 C1502 0.930 . S
H1494 C1504 0.930 . S
H1495 C1507 0.929 . S
H1496 C1510 0.930 . S
H1497 C1512 0.960 . S
H1498 C1512 0.960 . S
H1499 C1512 0.960 . S
C1500 H1492 0.929 . S
C1500 C1501 1.377 . S
C1500 C1502 1.384 . S
C1501 C1500 1.377 . S
C1501 C1507 1.390 . S
C1502 H1493 0.930 . S
C1502 C1500 1.384 . S
C1502 C1503 1.372 . S
C1503 C1502 1.372 . S
C1503 C1504 1.400 . S
C1503 C1508 1.490 . S
C1504 H1494 0.930 . S
C1504 C1503 1.400 . S
C1504 C1507 1.386 . S
H1505 C1521 0.930 . S
H1506 C1522 0.931 . S
C1507 H1495 0.929 . S
C1507 C1501 1.390 . S
C1507 C1504 1.386 . S
C1508 C1503 1.490 . S
C1508 C1510 1.395 . S
C1508 C1511 1.403 . S
H1509 C1515 0.930 . S
C1510 H1496 0.930 . S
C1510 C1508 1.395 . S
C1510 C1513 1.403 1_545 S
C1511 C1508 1.403 . S
C1511 C1512 1.524 . S
C1511 C1515 1.400 1_545 S
C1512 H1497 0.960 . S
C1512 H1498 0.960 . S
C1512 H1499 0.960 . S
C1512 C1511 1.524 . S
C1513 C1510 1.403 1_565 S
C1513 C1514 1.392 . S
C1513 C1517 1.495 . S
C1514 C1513 1.392 . S
C1514 C1515 1.385 . S
C1514 C1516 1.478 . S
C1515 H1509 0.930 . S
C1515 C1511 1.400 1_565 S
C1515 C1514 1.385 . S
C1516 C1514 1.478 . S
C1516 C1518 1.381 . S
C1516 C1522 1.383 . S
C1517 C1513 1.495 . S
C1517 H1523 0.959 . S
C1517 H1524 0.961 . S
C1517 H1525 0.960 . S
C1518 C1516 1.381 . S
C1518 C1519 1.394 . S
C1518 H1526 0.930 . S
C1519 C1518 1.394 . S
C1519 C1520 1.383 . S
C1519 H1527 0.929 . S
C1520 C1519 1.383 . S
C1520 C1521 1.377 . S
C1521 H1505 0.930 . S
C1521 C1520 1.377 . S
C1521 C1522 1.379 . S
C1522 H1506 0.931 . S
C1522 C1516 1.383 . S
C1522 C1521 1.379 . S
H1523 C1517 0.959 . S
H1524 C1517 0.961 . S
H1525 C1517 0.960 . S
H1526 C1518 0.930 . S
H1527 C1519 0.929 . S
H1528 C1536 0.929 . S
H1529 C1538 0.930 . S
H1530 C1540 0.930 . S
H1531 C1543 0.929 . S
H1532 C1546 0.930 . S
H1533 C1548 0.960 . S
H1534 C1548 0.960 . S
H1535 C1548 0.960 . S
C1536 H1528 0.929 . S
C1536 C1537 1.377 . S
C1536 C1538 1.384 . S
C1537 C1536 1.377 . S
C1537 C1543 1.390 . S
C1538 H1529 0.930 . S
C1538 C1536 1.384 . S
C1538 C1539 1.372 . S
C1539 C1538 1.372 . S
C1539 C1540 1.400 . S
C1539 C1544 1.490 . S
C1540 H1530 0.930 . S
C1540 C1539 1.400 . S
C1540 C1543 1.386 . S
H1541 C1557 0.930 . S
H1542 C1558 0.931 . S
C1543 H1531 0.929 . S
C1543 C1537 1.390 . S
C1543 C1540 1.386 . S
C1544 C1539 1.490 . S
C1544 C1546 1.395 . S
C1544 C1547 1.403 . S
H1545 C1551 0.930 . S
C1546 H1532 0.930 . S
C1546 C1544 1.395 . S
C1546 C1549 1.403 . S
C1547 C1544 1.403 . S
C1547 C1548 1.524 . S
C1547 C1551 1.400 . S
C1548 H1533 0.960 . S
C1548 H1534 0.960 . S
C1548 H1535 0.960 . S
C1548 C1547 1.524 . S
C1549 C1546 1.403 . S
C1549 C1550 1.392 . S
C1549 C1553 1.495 . S
C1550 C1549 1.392 . S
C1550 C1551 1.385 . S
C1550 C1552 1.478 . S
C1551 H1545 0.930 . S
C1551 C1547 1.400 . S
C1551 C1550 1.385 . S
C1552 C1550 1.478 . S
C1552 C1554 1.381 . S
C1552 C1558 1.383 . S
C1553 C1549 1.495 . S
C1553 H1559 0.959 . S
C1553 H1560 0.961 . S
C1553 H1561 0.960 . S
C1554 C1552 1.381 . S
C1554 C1555 1.394 . S
C1554 H1562 0.930 . S
C1555 C1554 1.394 . S
C1555 C1556 1.383 . S
C1555 H1563 0.929 . S
C1556 C1555 1.383 . S
C1556 C1557 1.377 . S
C1557 H1541 0.930 . S
C1557 C1556 1.377 . S
C1557 C1558 1.379 . S
C1558 H1542 0.931 . S
C1558 C1552 1.383 . S
C1558 C1557 1.379 . S
H1559 C1553 0.959 . S
H1560 C1553 0.961 . S
H1561 C1553 0.960 . S
H1562 C1554 0.930 . S
H1563 C1555 0.929 . S
H1564 C1572 0.929 . S
H1565 C1574 0.930 . S
H1566 C1576 0.930 1_556 S
H1567 C1579 0.937 . S
H1568 C1582 0.930 . S
H1569 C1584 0.960 . S
H1570 C1584 0.960 . S
H1571 C1584 0.960 . S
C1572 H1564 0.929 . S
C1572 C1573 1.377 . S
C1572 C1574 1.384 . S
C1573 C1572 1.377 . S
C1573 C1579 1.390 . S
C1574 H1565 0.930 . S
C1574 C1572 1.384 . S
C1574 C1575 1.372 . S
C1575 C1574 1.372 . S
C1575 C1576 1.400 . S
C1575 C1580 1.490 . S
C1576 H1566 0.930 1_554 S
C1576 C1575 1.400 . S
C1576 C1579 1.386 . S
H1577 C1593 0.930 . S
H1578 C1594 0.931 . S
C1579 H1567 0.937 . S
C1579 C1573 1.390 . S
C1579 C1576 1.386 . S
C1580 C1575 1.490 . S
C1580 C1582 1.395 1_554 S
C1580 C1583 1.403 . S
H1581 C1587 0.930 . S
C1582 H1568 0.930 . S
C1582 C1580 1.395 1_556 S
C1582 C1585 1.403 . S
C1583 C1580 1.403 . S
C1583 C1584 1.524 . S
C1583 C1587 1.400 . S
C1584 H1569 0.960 . S
C1584 H1570 0.960 . S
C1584 H1571 0.960 . S
C1584 C1583 1.524 . S
C1585 C1582 1.403 . S
C1585 C1586 1.392 . S
C1585 C1589 1.495 . S
C1586 C1585 1.392 . S
C1586 C1587 1.385 1_556 S
C1586 C1588 1.478 . S
C1587 H1581 0.930 . S
C1587 C1583 1.400 . S
C1587 C1586 1.385 1_554 S
C1588 C1586 1.478 . S
C1588 C1590 1.381 . S
C1588 C1594 1.383 . S
C1589 C1585 1.495 . S
C1589 H1595 0.959 . S
C1589 H1596 0.961 . S
C1589 H1597 0.960 . S
C1590 C1588 1.381 . S
C1590 C1591 1.394 . S
C1590 H1598 0.930 1_556 S
C1591 C1590 1.394 . S
C1591 C1592 1.383 . S
C1591 H1599 0.929 1_556 S
C1592 C1591 1.383 . S
C1592 C1593 1.377 . S
C1593 H1577 0.930 . S
C1593 C1592 1.377 . S
C1593 C1594 1.379 . S
C1594 H1578 0.931 . S
C1594 C1588 1.383 . S
C1594 C1593 1.379 . S
H1595 C1589 0.959 . S
H1596 C1589 0.961 . S
H1597 C1589 0.960 . S
H1598 C1590 0.930 1_554 S
H1599 C1591 0.929 1_554 S
H1600 C1608 0.929 . S
H1601 C1610 0.930 . S
H1602 C1612 0.930 . S
H1603 C1615 0.929 . S
H1604 C1618 0.930 . S
H1605 C1620 0.960 . S
H1606 C1620 0.960 . S
H1607 C1620 0.960 . S
C1608 H1600 0.929 . S
C1608 C1609 1.377 . S
C1608 C1610 1.384 . S
C1609 C1608 1.377 . S
C1609 C1615 1.390 . S
C1610 H1601 0.930 . S
C1610 C1608 1.384 . S
C1610 C1611 1.372 . S
C1611 C1610 1.372 . S
C1611 C1612 1.400 . S
C1611 C1616 1.490 . S
C1612 H1602 0.930 . S
C1612 C1611 1.400 . S
C1612 C1615 1.386 . S
H1613 C1629 0.930 . S
H1614 C1630 0.931 . S
C1615 H1603 0.929 . S
C1615 C1609 1.390 . S
C1615 C1612 1.386 . S
C1616 C1611 1.490 . S
C1616 C1618 1.395 . S
C1616 C1619 1.403 . S
H1617 C1623 0.930 . S
C1618 H1604 0.930 . S
C1618 C1616 1.395 . S
C1618 C1621 1.403 . S
C1619 C1616 1.403 . S
C1619 C1620 1.524 . S
C1619 C1623 1.400 . S
C1620 H1605 0.960 . S
C1620 H1606 0.960 . S
C1620 H1607 0.960 . S
C1620 C1619 1.524 . S
C1621 C1618 1.403 . S
C1621 C1622 1.392 . S
C1621 C1625 1.495 . S
C1622 C1621 1.392 . S
C1622 C1623 1.385 . S
C1622 C1624 1.478 . S
C1623 H1617 0.930 . S
C1623 C1619 1.400 . S
C1623 C1622 1.385 . S
C1624 C1622 1.478 . S
C1624 C1626 1.381 . S
C1624 C1630 1.383 . S
C1625 C1621 1.495 . S
C1625 H1631 0.959 . S
C1625 H1632 0.961 . S
C1625 H1633 0.960 . S
C1626 C1624 1.381 . S
C1626 C1627 1.394 . S
C1626 H1634 0.930 . S
C1627 C1626 1.394 . S
C1627 C1628 1.383 . S
C1627 H1635 0.929 . S
C1628 C1627 1.383 . S
C1628 C1629 1.377 . S
C1629 H1613 0.930 . S
C1629 C1628 1.377 . S
C1629 C1630 1.379 . S
C1630 H1614 0.931 . S
C1630 C1624 1.383 . S
C1630 C1629 1.379 . S
H1631 C1625 0.959 . S
H1632 C1625 0.961 . S
H1633 C1625 0.960 . S
H1634 C1626 0.930 . S
H1635 C1627 0.929 . S
H1636 C1644 0.929 . S
H1637 C1646 0.930 . S
H1638 C1648 0.930 . S
H1639 C1651 0.929 . S
H1640 C1654 0.930 . S
H1641 C1656 0.960 . S
H1642 C1656 0.960 . S
H1643 C1656 0.960 . S
C1644 H1636 0.929 . S
C1644 C1645 1.377 . S
C1644 C1646 1.384 . S
C1645 C1644 1.377 . S
C1645 C1651 1.390 1_556 S
C1646 H1637 0.930 . S
C1646 C1644 1.384 . S
C1646 C1647 1.372 . S
C1647 C1646 1.372 . S
C1647 C1648 1.400 1_556 S
C1647 C1652 1.490 . S
C1648 H1638 0.930 . S
C1648 C1647 1.400 1_554 S
C1648 C1651 1.386 . S
H1649 C1665 0.930 . S
H1650 C1666 0.931 . S
C1651 H1639 0.929 . S
C1651 C1645 1.390 1_554 S
C1651 C1648 1.386 . S
C1652 C1647 1.490 . S
C1652 C1654 1.395 . S
C1652 C1655 1.403 1_556 S
H1653 C1659 0.960 . S
C1654 H1640 0.930 . S
C1654 C1652 1.395 . S
C1654 C1657 1.403 . S
C1655 C1652 1.403 1_554 S
C1655 C1656 1.524 . S
C1655 C1659 1.404 . S
C1656 H1641 0.960 . S
C1656 H1642 0.960 . S
C1656 H1643 0.960 . S
C1656 C1655 1.524 . S
C1657 C1654 1.403 . S
C1657 C1658 1.392 . S
C1657 C1661 1.495 . S
C1658 C1657 1.392 . S
C1658 C1659 1.354 1_556 S
C1658 C1660 1.478 . S
C1659 H1653 0.960 . S
C1659 C1655 1.404 . S
C1659 C1658 1.354 1_554 S
C1660 C1658 1.478 . S
C1660 C1662 1.381 . S
C1660 C1666 1.383 1_556 S
C1661 C1657 1.495 . S
C1661 H1667 0.959 . S
C1661 H1668 0.961 . S
C1661 H1669 0.960 . S
C1662 C1660 1.381 . S
C1662 C1663 1.394 . S
C1662 H1670 0.930 . S
C1663 C1662 1.394 . S
C1663 C1664 1.383 . S
C1663 H1671 0.929 . S
C1664 C1663 1.383 . S
C1664 C1665 1.377 1_556 S
C1665 H1649 0.930 . S
C1665 C1664 1.377 1_554 S
C1665 C1666 1.379 . S
C1666 H1650 0.931 . S
C1666 C1660 1.383 1_554 S
C1666 C1665 1.379 . S
H1667 C1661 0.959 . S
H1668 C1661 0.961 . S
H1669 C1661 0.960 . S
H1670 C1662 0.930 . S
H1671 C1663 0.929 . S
H1672 C1680 0.929 . S
H1673 C1682 0.930 . S
H1674 C1684 0.930 . S
H1675 C1687 0.929 . S
H1676 C1690 0.930 . S
H1677 C1692 0.960 . S
H1678 C1692 0.960 . S
H1679 C1692 0.960 . S
C1680 H1672 0.929 . S
C1680 C1681 1.377 . S
C1680 C1682 1.384 . S
C1681 C1680 1.377 . S
C1681 C1687 1.390 . S
C1682 H1673 0.930 . S
C1682 C1680 1.384 . S
C1682 C1683 1.372 . S
C1683 C1682 1.372 . S
C1683 C1684 1.400 . S
C1683 C1688 1.490 . S
C1684 H1674 0.930 . S
C1684 C1683 1.400 . S
C1684 C1687 1.386 . S
H1685 C1701 0.930 . S
H1686 C1702 0.931 . S
C1687 H1675 0.929 . S
C1687 C1681 1.390 . S
C1687 C1684 1.386 . S
C1688 C1683 1.490 . S
C1688 C1690 1.395 . S
C1688 C1691 1.403 . S
H1689 C1695 0.930 . S
C1690 H1676 0.930 . S
C1690 C1688 1.395 . S
C1690 C1693 1.403 . S
C1691 C1688 1.403 . S
C1691 C1692 1.524 . S
C1691 C1695 1.400 . S
C1692 H1677 0.960 . S
C1692 H1678 0.960 . S
C1692 H1679 0.960 . S
C1692 C1691 1.524 . S
C1693 C1690 1.403 . S
C1693 C1694 1.392 . S
C1693 C1697 1.495 . S
C1694 C1693 1.392 . S
C1694 C1695 1.385 . S
C1694 C1696 1.478 . S
C1695 H1689 0.930 . S
C1695 C1691 1.400 . S
C1695 C1694 1.385 . S
C1696 C1694 1.478 . S
C1696 C1698 1.381 . S
C1696 C1702 1.383 . S
C1697 C1693 1.495 . S
C1697 H1703 0.959 . S
C1697 H1704 0.961 . S
C1697 H1705 0.960 . S
C1698 C1696 1.381 . S
C1698 C1699 1.394 . S
C1698 H1706 0.930 . S
C1699 C1698 1.394 . S
C1699 C1700 1.383 . S
C1699 H1707 0.929 . S
C1700 C1699 1.383 . S
C1700 C1701 1.377 . S
C1701 H1685 0.930 . S
C1701 C1700 1.377 . S
C1701 C1702 1.379 . S
C1702 H1686 0.931 . S
C1702 C1696 1.383 . S
C1702 C1701 1.379 . S
H1703 C1697 0.959 . S
H1704 C1697 0.961 . S
H1705 C1697 0.960 . S
H1706 C1698 0.930 . S
H1707 C1699 0.929 . S
H1708 C1716 0.929 . S
H1709 C1718 0.930 . S
H1710 C1720 0.944 . S
H1711 C1723 0.951 . S
H1712 C1726 0.930 . S
H1713 C1728 0.960 . S
H1714 C1728 0.960 . S
H1715 C1728 0.960 . S
C1716 H1708 0.929 . S
C1716 C1717 1.377 . S
C1716 C1718 1.384 . S
C1717 C1716 1.377 . S
C1717 C1723 1.370 1_554 S
C1718 H1709 0.930 . S
C1718 C1716 1.384 . S
C1718 C1719 1.372 . S
C1719 C1718 1.372 . S
C1719 C1720 1.386 1_554 S
C1719 C1724 1.490 . S
C1720 H1710 0.944 . S
C1720 C1719 1.386 1_556 S
C1720 C1723 1.386 . S
H1721 C1737 0.930 1_556 S
H1722 C1738 0.931 1_556 S
C1723 H1711 0.951 . S
C1723 C1717 1.370 1_556 S
C1723 C1720 1.386 . S
C1724 C1719 1.490 . S
C1724 C1726 1.395 . S
C1724 C1727 1.403 1_554 S
H1725 C1731 0.930 . S
C1726 H1712 0.930 . S
C1726 C1724 1.395 . S
C1726 C1729 1.403 . S
C1727 C1724 1.403 1_556 S
C1727 C1728 1.524 . S
C1727 C1731 1.400 . S
C1728 H1713 0.960 . S
C1728 H1714 0.960 . S
C1728 H1715 0.960 . S
C1728 C1727 1.524 . S
C1729 C1726 1.403 . S
C1729 C1730 1.392 . S
C1729 C1733 1.495 . S
C1730 C1729 1.392 . S
C1730 C1731 1.385 1_554 S
C1730 C1732 1.478 . S
C1731 H1725 0.930 . S
C1731 C1727 1.400 . S
C1731 C1730 1.385 1_556 S
C1732 C1730 1.478 . S
C1732 C1734 1.381 . S
C1732 C1738 1.383 . S
C1733 C1729 1.495 . S
C1733 H1739 0.959 . S
C1733 H1740 0.961 . S
C1733 H1741 0.960 . S
C1734 C1732 1.381 . S
C1734 C1735 1.394 . S
C1734 H1742 0.930 . S
C1735 C1734 1.394 . S
C1735 C1736 1.383 . S
C1735 H1743 0.929 . S
C1736 C1735 1.383 . S
C1736 C1737 1.377 . S
C1737 H1721 0.930 1_554 S
C1737 C1736 1.377 . S
C1737 C1738 1.379 . S
C1738 H1722 0.931 1_554 S
C1738 C1732 1.383 . S
C1738 C1737 1.379 . S
H1739 C1733 0.959 . S
H1740 C1733 0.961 . S
H1741 C1733 0.960 . S
H1742 C1734 0.930 . S
H1743 C1735 0.929 . S
H1744 C1752 0.929 . S
H1745 C1754 0.930 . S
H1746 C1756 0.930 . S
H1747 C1759 0.929 . S
H1748 C1762 0.930 . S
H1749 C1764 0.960 . S
H1750 C1764 0.960 . S
H1751 C1764 0.960 . S
C1752 H1744 0.929 . S
C1752 C1753 1.377 . S
C1752 C1754 1.384 . S
C1753 C1752 1.377 . S
C1753 C1759 1.390 . S
C1754 H1745 0.930 . S
C1754 C1752 1.384 . S
C1754 C1755 1.372 . S
C1755 C1754 1.372 . S
C1755 C1756 1.400 . S
C1755 C1760 1.490 . S
C1756 H1746 0.930 . S
C1756 C1755 1.400 . S
C1756 C1759 1.386 . S
H1757 C1773 0.930 . S
H1758 C1774 0.931 . S
C1759 H1747 0.929 . S
C1759 C1753 1.390 . S
C1759 C1756 1.386 . S
C1760 C1755 1.490 . S
C1760 C1762 1.395 . S
C1760 C1763 1.403 . S
H1761 C1767 0.930 . S
C1762 H1748 0.930 . S
C1762 C1760 1.395 . S
C1762 C1765 1.403 . S
C1763 C1760 1.403 . S
C1763 C1764 1.524 . S
C1763 C1767 1.400 . S
C1764 H1749 0.960 . S
C1764 H1750 0.960 . S
C1764 H1751 0.960 . S
C1764 C1763 1.524 . S
C1765 C1762 1.403 . S
C1765 C1766 1.392 . S
C1765 C1769 1.495 . S
C1766 C1765 1.392 . S
C1766 C1767 1.385 . S
C1766 C1768 1.478 . S
C1767 H1761 0.930 . S
C1767 C1763 1.400 . S
C1767 C1766 1.385 . S
C1768 C1766 1.478 . S
C1768 C1770 1.381 . S
C1768 C1774 1.383 . S
C1769 C1765 1.495 . S
C1769 H1775 0.959 . S
C1769 H1776 0.961 . S
C1769 H1777 0.960 . S
C1770 C1768 1.381 . S
C1770 C1771 1.394 . S
C1770 H1778 0.930 . S
C1771 C1770 1.394 . S
C1771 C1772 1.383 . S
C1771 H1779 0.929 . S
C1772 C1771 1.383 . S
C1772 C1773 1.377 . S
C1773 H1757 0.930 . S
C1773 C1772 1.377 . S
C1773 C1774 1.379 . S
C1774 H1758 0.931 . S
C1774 C1768 1.383 . S
C1774 C1773 1.379 . S
H1775 C1769 0.959 . S
H1776 C1769 0.961 . S
H1777 C1769 0.960 . S
H1778 C1770 0.930 . S
H1779 C1771 0.929 . S
H1780 C1788 0.929 . S
H1781 C1790 0.930 . S
H1782 C1792 0.930 . S
H1783 C1795 0.929 . S
H1784 C1798 0.930 . S
H1785 C1800 0.960 . S
H1786 C1800 0.960 . S
H1787 C1800 0.960 . S
C1788 H1780 0.929 . S
C1788 C1789 1.377 . S
C1788 C1790 1.384 . S
C1789 C1788 1.377 . S
C1789 C1795 1.390 . S
C1790 H1781 0.930 . S
C1790 C1788 1.384 . S
C1790 C1791 1.372 . S
C1791 C1790 1.372 . S
C1791 C1792 1.400 . S
C1791 C1796 1.490 . S
C1792 H1782 0.930 . S
C1792 C1791 1.400 . S
C1792 C1795 1.386 . S
H1793 C1809 0.930 . S
H1794 C1810 0.931 . S
C1795 H1783 0.929 . S
C1795 C1789 1.390 . S
C1795 C1792 1.386 . S
C1796 C1791 1.490 . S
C1796 C1798 1.395 . S
C1796 C1799 1.403 . S
H1797 C1803 0.930 . S
C1798 H1784 0.930 . S
C1798 C1796 1.395 . S
C1798 C1801 1.403 . S
C1799 C1796 1.403 . S
C1799 C1800 1.524 . S
C1799 C1803 1.400 . S
C1800 H1785 0.960 . S
C1800 H1786 0.960 . S
C1800 H1787 0.960 . S
C1800 C1799 1.524 . S
C1801 C1798 1.403 . S
C1801 C1802 1.392 . S
C1801 C1805 1.495 . S
C1802 C1801 1.392 . S
C1802 C1803 1.385 . S
C1802 C1804 1.478 . S
C1803 H1797 0.930 . S
C1803 C1799 1.400 . S
C1803 C1802 1.385 . S
C1804 C1802 1.478 . S
C1804 C1806 1.381 . S
C1804 C1810 1.383 . S
C1805 C1801 1.495 . S
C1805 H1811 0.959 . S
C1805 H1812 0.961 . S
C1805 H1813 0.960 . S
C1806 C1804 1.381 . S
C1806 C1807 1.394 . S
C1806 H1814 0.930 . S
C1807 C1806 1.394 . S
C1807 C1808 1.383 . S
C1807 H1815 0.929 . S
C1808 C1807 1.383 . S
C1808 C1809 1.377 . S
C1809 H1793 0.930 . S
C1809 C1808 1.377 . S
C1809 C1810 1.379 . S
C1810 H1794 0.931 . S
C1810 C1804 1.383 . S
C1810 C1809 1.379 . S
H1811 C1805 0.959 . S
H1812 C1805 0.961 . S
H1813 C1805 0.960 . S
H1814 C1806 0.930 . S
H1815 C1807 0.929 . S
H1816 C1824 0.929 . S
H1817 C1826 0.930 . S
H1818 C1828 0.930 . S
H1819 C1831 0.929 . S
H1820 C1834 0.930 . S
H1821 C1836 0.960 . S
H1822 C1836 0.960 . S
H1823 C1836 0.960 . S
C1824 H1816 0.929 . S
C1824 C1825 1.377 . S
C1824 C1826 1.384 . S
C1825 C1824 1.377 . S
C1825 C1831 1.390 . S
C1826 H1817 0.930 . S
C1826 C1824 1.384 . S
C1826 C1827 1.372 . S
C1827 C1826 1.372 . S
C1827 C1828 1.400 . S
C1827 C1832 1.490 . S
C1828 H1818 0.930 . S
C1828 C1827 1.400 . S
C1828 C1831 1.386 . S
H1829 C1845 0.930 . S
H1830 C1846 0.931 . S
C1831 H1819 0.929 . S
C1831 C1825 1.390 . S
C1831 C1828 1.386 . S
C1832 C1827 1.490 . S
C1832 C1834 1.395 . S
C1832 C1835 1.403 . S
H1833 C1839 0.930 . S
C1834 H1820 0.930 . S
C1834 C1832 1.395 . S
C1834 C1837 1.403 . S
C1835 C1832 1.403 . S
C1835 C1836 1.524 . S
C1835 C1839 1.400 . S
C1836 H1821 0.960 . S
C1836 H1822 0.960 . S
C1836 H1823 0.960 . S
C1836 C1835 1.524 . S
C1837 C1834 1.403 . S
C1837 C1838 1.392 . S
C1837 C1841 1.495 . S
C1838 C1837 1.392 . S
C1838 C1839 1.385 . S
C1838 C1840 1.478 . S
C1839 H1833 0.930 . S
C1839 C1835 1.400 . S
C1839 C1838 1.385 . S
C1840 C1838 1.478 . S
C1840 C1842 1.381 . S
C1840 C1846 1.383 . S
C1841 C1837 1.495 . S
C1841 H1847 0.959 . S
C1841 H1848 0.961 . S
C1841 H1849 0.960 . S
C1842 C1840 1.381 . S
C1842 C1843 1.394 . S
C1842 H1850 0.930 . S
C1843 C1842 1.394 . S
C1843 C1844 1.383 . S
C1843 H1851 0.929 . S
C1844 C1843 1.383 . S
C1844 C1845 1.377 . S
C1845 H1829 0.930 . S
C1845 C1844 1.377 . S
C1845 C1846 1.379 . S
C1846 H1830 0.931 . S
C1846 C1840 1.383 . S
C1846 C1845 1.379 . S
H1847 C1841 0.959 . S
H1848 C1841 0.961 . S
H1849 C1841 0.960 . S
H1850 C1842 0.930 . S
H1851 C1843 0.929 . S
H1852 C1860 0.929 . S
H1853 C1862 0.930 . S
H1854 C1864 0.930 . S
H1855 C1867 0.929 . S
H1856 C1870 0.930 . S
H1857 C1872 0.960 . S
H1858 C1872 0.960 . S
H1859 C1872 0.960 . S
C1860 H1852 0.929 . S
C1860 C1861 1.377 . S
C1860 C1862 1.384 . S
C1861 C1860 1.377 . S
C1861 C1867 1.390 . S
C1862 H1853 0.930 . S
C1862 C1860 1.384 . S
C1862 C1863 1.372 . S
C1863 C1862 1.372 . S
C1863 C1864 1.400 . S
C1863 C1868 1.490 . S
C1864 H1854 0.930 . S
C1864 C1863 1.400 . S
C1864 C1867 1.386 . S
H1865 C1881 0.930 . S
H1866 C1882 0.931 . S
C1867 H1855 0.929 . S
C1867 C1861 1.390 . S
C1867 C1864 1.386 . S
C1868 C1863 1.490 . S
C1868 C1870 1.395 . S
C1868 C1871 1.403 . S
H1869 C1875 0.930 . S
C1870 H1856 0.930 . S
C1870 C1868 1.395 . S
C1870 C1873 1.403 . S
C1871 C1868 1.403 . S
C1871 C1872 1.524 . S
C1871 C1875 1.400 . S
C1872 H1857 0.960 . S
C1872 H1858 0.960 . S
C1872 H1859 0.960 . S
C1872 C1871 1.524 . S
C1873 C1870 1.403 . S
C1873 C1874 1.392 . S
C1873 C1877 1.495 . S
C1874 C1873 1.392 . S
C1874 C1875 1.385 . S
C1874 C1876 1.478 . S
C1875 H1869 0.930 . S
C1875 C1871 1.400 . S
C1875 C1874 1.385 . S
C1876 C1874 1.478 . S
C1876 C1878 1.381 . S
C1876 C1882 1.383 . S
C1877 C1873 1.495 . S
C1877 H1883 0.959 1_655 S
C1877 H1884 0.961 . S
C1877 H1885 0.960 . S
C1878 C1876 1.381 . S
C1878 C1879 1.394 . S
C1878 H1886 0.930 . S
C1879 C1878 1.394 . S
C1879 C1880 1.383 . S
C1879 H1887 0.929 . S
C1880 C1879 1.383 . S
C1880 C1881 1.377 . S
C1881 H1865 0.930 . S
C1881 C1880 1.377 . S
C1881 C1882 1.379 . S
C1882 H1866 0.931 . S
C1882 C1876 1.383 . S
C1882 C1881 1.379 . S
H1883 C1877 0.959 1_455 S
H1884 C1877 0.961 . S
H1885 C1877 0.960 . S
H1886 C1878 0.930 . S
H1887 C1879 0.929 . S
H1888 C1896 0.929 . S
H1889 C1898 0.930 . S
H1890 C1900 0.930 . S
H1891 C1903 0.929 . S
H1892 C1906 0.930 . S
H1893 C1908 0.960 . S
H1894 C1908 0.960 . S
H1895 C1908 0.960 . S
C1896 H1888 0.929 . S
C1896 C1897 1.377 . S
C1896 C1898 1.384 . S
C1897 C1896 1.377 . S
C1897 C1903 1.390 . S
C1898 H1889 0.930 . S
C1898 C1896 1.384 . S
C1898 C1899 1.372 . S
C1899 C1898 1.372 . S
C1899 C1900 1.400 . S
C1899 C1904 1.490 . S
C1900 H1890 0.930 . S
C1900 C1899 1.400 . S
C1900 C1903 1.386 . S
H1901 C1917 0.930 . S
H1902 C1918 0.931 . S
C1903 H1891 0.929 . S
C1903 C1897 1.390 . S
C1903 C1900 1.386 . S
C1904 C1899 1.490 . S
C1904 C1906 1.395 . S
C1904 C1907 1.403 . S
H1905 C1911 0.930 . S
C1906 H1892 0.930 . S
C1906 C1904 1.395 . S
C1906 C1909 1.403 . S
C1907 C1904 1.403 . S
C1907 C1908 1.524 . S
C1907 C1911 1.400 . S
C1908 H1893 0.960 . S
C1908 H1894 0.960 . S
C1908 H1895 0.960 . S
C1908 C1907 1.524 . S
C1909 C1906 1.403 . S
C1909 C1910 1.392 . S
C1909 C1913 1.495 . S
C1910 C1909 1.392 . S
C1910 C1911 1.385 . S
C1910 C1912 1.478 . S
C1911 H1905 0.930 . S
C1911 C1907 1.400 . S
C1911 C1910 1.385 . S
C1912 C1910 1.478 . S
C1912 C1914 1.381 . S
C1912 C1918 1.383 . S
C1913 C1909 1.495 . S
C1913 H1919 0.959 . S
C1913 H1920 0.961 . S
C1913 H1921 0.960 . S
C1914 C1912 1.381 . S
C1914 C1915 1.394 . S
C1914 H1922 0.930 . S
C1915 C1914 1.394 . S
C1915 C1916 1.383 . S
C1915 H1923 0.929 . S
C1916 C1915 1.383 . S
C1916 C1917 1.377 . S
C1917 H1901 0.930 . S
C1917 C1916 1.377 . S
C1917 C1918 1.379 . S
C1918 H1902 0.931 . S
C1918 C1912 1.383 . S
C1918 C1917 1.379 . S
H1919 C1913 0.959 . S
H1920 C1913 0.961 . S
H1921 C1913 0.960 . S
H1922 C1914 0.930 . S
H1923 C1915 0.929 . S
H1924 C1932 0.929 . S
H1925 C1934 0.930 . S
H1926 C1936 0.930 . S
H1927 C1939 0.929 . S
H1928 C1942 0.930 . S
H1929 C1944 0.960 . S
H1930 C1944 0.960 . S
H1931 C1944 0.960 . S
C1932 H1924 0.929 . S
C1932 C1933 1.377 . S
C1932 C1934 1.384 . S
C1933 C1932 1.377 . S
C1933 C1939 1.390 . S
C1934 H1925 0.930 . S
C1934 C1932 1.384 . S
C1934 C1935 1.372 . S
C1935 C1934 1.372 . S
C1935 C1936 1.400 . S
C1935 C1940 1.490 . S
C1936 H1926 0.930 . S
C1936 C1935 1.400 . S
C1936 C1939 1.386 . S
H1937 C1953 0.930 . S
H1938 C1954 0.931 . S
C1939 H1927 0.929 . S
C1939 C1933 1.390 . S
C1939 C1936 1.386 . S
C1940 C1935 1.490 . S
C1940 C1942 1.395 . S
C1940 C1943 1.403 . S
H1941 C1947 0.930 . S
C1942 H1928 0.930 . S
C1942 C1940 1.395 . S
C1942 C1945 1.403 . S
C1943 C1940 1.403 . S
C1943 C1944 1.524 . S
C1943 C1947 1.400 . S
C1944 H1929 0.960 . S
C1944 H1930 0.960 . S
C1944 H1931 0.960 . S
C1944 C1943 1.524 . S
C1945 C1942 1.403 . S
C1945 C1946 1.392 . S
C1945 C1949 1.495 . S
C1946 C1945 1.392 . S
C1946 C1947 1.385 . S
C1946 C1948 1.478 . S
C1947 H1941 0.930 . S
C1947 C1943 1.400 . S
C1947 C1946 1.385 . S
C1948 C1946 1.478 . S
C1948 C1950 1.381 . S
C1948 C1954 1.383 . S
C1949 C1945 1.495 . S
C1949 H1955 0.959 . S
C1949 H1956 0.961 . S
C1949 H1957 0.960 . S
C1950 C1948 1.381 . S
C1950 C1951 1.394 . S
C1950 H1958 0.930 . S
C1951 C1950 1.394 . S
C1951 C1952 1.383 . S
C1951 H1959 0.929 . S
C1952 C1951 1.383 . S
C1952 C1953 1.377 . S
C1953 H1937 0.930 . S
C1953 C1952 1.377 . S
C1953 C1954 1.379 . S
C1954 H1938 0.931 . S
C1954 C1948 1.383 . S
C1954 C1953 1.379 . S
H1955 C1949 0.959 . S
H1956 C1949 0.961 . S
H1957 C1949 0.960 . S
H1958 C1950 0.930 . S
H1959 C1951 0.929 . S
H1960 C1968 0.929 . S
H1961 C1970 0.930 . S
H1962 C1972 0.930 . S
H1963 C1975 0.929 . S
H1964 C1978 0.930 . S
H1965 C1980 0.960 . S
H1966 C1980 0.960 . S
H1967 C1980 0.960 . S
C1968 H1960 0.929 . S
C1968 C1969 1.377 . S
C1968 C1970 1.384 . S
C1969 C1968 1.377 . S
C1969 C1975 1.390 . S
C1970 H1961 0.930 . S
C1970 C1968 1.384 . S
C1970 C1971 1.372 . S
C1971 C1970 1.372 . S
C1971 C1972 1.400 . S
C1971 C1976 1.490 . S
C1972 H1962 0.930 . S
C1972 C1971 1.400 . S
C1972 C1975 1.386 . S
H1973 C1989 0.930 . S
H1974 C1990 0.931 . S
C1975 H1963 0.929 . S
C1975 C1969 1.390 . S
C1975 C1972 1.386 . S
C1976 C1971 1.490 . S
C1976 C1978 1.395 . S
C1976 C1979 1.403 . S
H1977 C1983 0.930 . S
C1978 H1964 0.930 . S
C1978 C1976 1.395 . S
C1978 C1981 1.403 . S
C1979 C1976 1.403 . S
C1979 C1980 1.524 . S
C1979 C1983 1.400 . S
C1980 H1965 0.960 . S
C1980 H1966 0.960 . S
C1980 H1967 0.960 . S
C1980 C1979 1.524 . S
C1981 C1978 1.403 . S
C1981 C1982 1.392 . S
C1981 C1985 1.495 . S
C1982 C1981 1.392 . S
C1982 C1983 1.385 . S
C1982 C1984 1.478 . S
C1983 H1977 0.930 . S
C1983 C1979 1.400 . S
C1983 C1982 1.385 . S
C1984 C1982 1.478 . S
C1984 C1986 1.381 . S
C1984 C1990 1.383 . S
C1985 C1981 1.495 . S
C1985 H1991 0.959 . S
C1985 H1992 0.961 . S
C1985 H1993 0.960 . S
C1986 C1984 1.381 . S
C1986 C1987 1.394 . S
C1986 H1994 0.930 . S
C1987 C1986 1.394 . S
C1987 C1988 1.383 . S
C1987 H1995 0.929 . S
C1988 C1987 1.383 . S
C1988 C1989 1.377 . S
C1989 H1973 0.930 . S
C1989 C1988 1.377 . S
C1989 C1990 1.379 . S
C1990 H1974 0.931 . S
C1990 C1984 1.383 . S
C1990 C1989 1.379 . S
H1991 C1985 0.959 . S
H1992 C1985 0.961 . S
H1993 C1985 0.960 . S
H1994 C1986 0.930 . S
H1995 C1987 0.929 . S
H1996 C2004 0.929 . S
H1997 C2006 0.930 . S
H1998 C2008 0.930 . S
H1999 C2011 0.929 . S
H2000 C2014 0.930 . S
H2001 C2016 0.960 . S
H2002 C2016 0.960 . S
H2003 C2016 0.960 . S
C2004 H1996 0.929 . S
C2004 C2005 1.377 . S
C2004 C2006 1.384 . S
C2005 C2004 1.377 . S
C2005 C2011 1.390 . S
C2006 H1997 0.930 . S
C2006 C2004 1.384 . S
C2006 C2007 1.372 . S
C2007 C2006 1.372 . S
C2007 C2008 1.400 . S
C2007 C2012 1.490 . S
C2008 H1998 0.930 . S
C2008 C2007 1.400 . S
C2008 C2011 1.386 . S
H2009 C2025 0.930 . S
H2010 C2026 0.931 . S
C2011 H1999 0.929 . S
C2011 C2005 1.390 . S
C2011 C2008 1.386 . S
C2012 C2007 1.490 . S
C2012 C2014 1.395 . S
C2012 C2015 1.403 . S
H2013 C2019 0.930 . S
C2014 H2000 0.930 . S
C2014 C2012 1.395 . S
C2014 C2017 1.403 . S
C2015 C2012 1.403 . S
C2015 C2016 1.524 . S
C2015 C2019 1.400 . S
C2016 H2001 0.960 . S
C2016 H2002 0.960 . S
C2016 H2003 0.960 . S
C2016 C2015 1.524 . S
C2017 C2014 1.403 . S
C2017 C2018 1.392 . S
C2017 C2021 1.495 . S
C2018 C2017 1.392 . S
C2018 C2019 1.385 . S
C2018 C2020 1.478 . S
C2019 H2013 0.930 . S
C2019 C2015 1.400 . S
C2019 C2018 1.385 . S
C2020 C2018 1.478 . S
C2020 C2022 1.381 . S
C2020 C2026 1.383 . S
C2021 C2017 1.495 . S
C2021 H2027 0.959 . S
C2021 H2028 0.961 . S
C2021 H2029 0.960 . S
C2022 C2020 1.381 . S
C2022 C2023 1.394 . S
C2022 H2030 0.930 . S
C2023 C2022 1.394 . S
C2023 C2024 1.383 . S
C2023 H2031 0.929 . S
C2024 C2023 1.383 . S
C2024 C2025 1.377 . S
C2025 H2009 0.930 . S
C2025 C2024 1.377 . S
C2025 C2026 1.379 . S
C2026 H2010 0.931 . S
C2026 C2020 1.383 . S
C2026 C2025 1.379 . S
H2027 C2021 0.959 . S
H2028 C2021 0.961 . S
H2029 C2021 0.960 . S
H2030 C2022 0.930 . S
H2031 C2023 0.929 . S
H2032 C2040 0.929 . S
H2033 C2042 0.930 . S
H2034 C2044 0.930 . S
H2035 C2047 0.929 . S
H2036 C2050 0.930 . S
H2037 C2052 0.960 . S
H2038 C2052 0.960 . S
H2039 C2052 0.960 . S
C2040 H2032 0.929 . S
C2040 C2041 1.377 . S
C2040 C2042 1.384 . S
C2041 C2040 1.377 . S
C2041 C2047 1.390 . S
C2042 H2033 0.930 . S
C2042 C2040 1.384 . S
C2042 C2043 1.372 . S
C2043 C2042 1.372 . S
C2043 C2044 1.400 . S
C2043 C2048 1.490 . S
C2044 H2034 0.930 . S
C2044 C2043 1.400 . S
C2044 C2047 1.386 . S
H2045 C2061 0.930 . S
H2046 C2062 0.931 . S
C2047 H2035 0.929 . S
C2047 C2041 1.390 . S
C2047 C2044 1.386 . S
C2048 C2043 1.490 . S
C2048 C2050 1.395 . S
C2048 C2051 1.403 . S
H2049 C2055 0.930 . S
C2050 H2036 0.930 . S
C2050 C2048 1.395 . S
C2050 C2053 1.403 . S
C2051 C2048 1.403 . S
C2051 C2052 1.524 . S
C2051 C2055 1.400 . S
C2052 H2037 0.960 . S
C2052 H2038 0.960 . S
C2052 H2039 0.960 . S
C2052 C2051 1.524 . S
C2053 C2050 1.403 . S
C2053 C2054 1.392 . S
C2053 C2057 1.495 . S
C2054 C2053 1.392 . S
C2054 C2055 1.385 . S
C2054 C2056 1.478 . S
C2055 H2049 0.930 . S
C2055 C2051 1.400 . S
C2055 C2054 1.385 . S
C2056 C2054 1.478 . S
C2056 C2058 1.381 . S
C2056 C2062 1.383 . S
C2057 C2053 1.495 . S
C2057 H2063 0.959 . S
C2057 H2064 0.961 . S
C2057 H2065 0.960 . S
C2058 C2056 1.381 . S
C2058 C2059 1.394 . S
C2058 H2066 0.930 . S
C2059 C2058 1.394 . S
C2059 C2060 1.383 . S
C2059 H2067 0.929 . S
C2060 C2059 1.383 . S
C2060 C2061 1.377 . S
C2061 H2045 0.930 . S
C2061 C2060 1.377 . S
C2061 C2062 1.379 . S
C2062 H2046 0.931 . S
C2062 C2056 1.383 . S
C2062 C2061 1.379 . S
H2063 C2057 0.959 . S
H2064 C2057 0.961 . S
H2065 C2057 0.960 . S
H2066 C2058 0.930 . S
H2067 C2059 0.929 . S
H2068 C2076 0.929 . S
H2069 C2078 0.930 . S
H2070 C2080 0.930 1_554 S
H2071 C2083 0.929 1_554 S
H2072 C2086 0.930 1_554 S
H2073 C2088 0.960 . S
H2074 C2088 0.960 . S
H2075 C2088 0.960 . S
C2076 H2068 0.929 . S
C2076 C2077 1.377 . S
C2076 C2078 1.384 . S
C2077 C2076 1.377 . S
C2077 C2083 1.390 . S
C2078 H2069 0.930 . S
C2078 C2076 1.384 . S
C2078 C2079 1.372 . S
C2079 C2078 1.372 . S
C2079 C2080 1.400 . S
C2079 C2084 1.490 . S
C2080 H2070 0.930 1_556 S
C2080 C2079 1.400 . S
C2080 C2083 1.386 . S
H2081 C2097 0.939 . S
H2082 C2098 0.931 . S
C2083 H2071 0.929 1_556 S
C2083 C2077 1.390 . S
C2083 C2080 1.386 . S
C2084 C2079 1.490 . S
C2084 C2086 1.395 . S
C2084 C2087 1.403 . S
H2085 C2091 0.930 . S
C2086 H2072 0.930 1_556 S
C2086 C2084 1.395 . S
C2086 C2089 1.403 1_556 S
C2087 C2084 1.403 . S
C2087 C2088 1.524 . S
C2087 C2091 1.400 . S
C2088 H2073 0.960 . S
C2088 H2074 0.960 . S
C2088 H2075 0.960 . S
C2088 C2087 1.524 . S
C2089 C2086 1.403 1_554 S
C2089 C2090 1.391 1_554 S
C2089 C2093 1.496 . S
C2090 C2089 1.391 1_556 S
C2090 C2091 1.385 . S
C2090 C2092 1.478 . S
C2091 H2085 0.930 . S
C2091 C2087 1.400 . S
C2091 C2090 1.385 . S
C2092 C2090 1.478 . S
C2092 C2094 1.381 . S
C2092 C2098 1.383 1_556 S
C2093 C2089 1.496 . S
C2093 H2099 0.959 . S
C2093 H2100 0.961 . S
C2093 H2101 0.960 . S
C2094 C2092 1.381 . S
C2094 C2095 1.394 . S
C2094 H2102 0.930 . S
C2095 C2094 1.394 . S
C2095 C2096 1.383 . S
C2095 H2103 0.929 . S
C2096 C2095 1.383 . S
C2096 C2097 1.367 1_556 S
C2097 H2081 0.939 . S
C2097 C2096 1.367 1_554 S
C2097 C2098 1.380 . S
C2098 H2082 0.931 . S
C2098 C2092 1.383 1_554 S
C2098 C2097 1.380 . S
H2099 C2093 0.959 . S
H2100 C2093 0.961 . S
H2101 C2093 0.960 . S
H2102 C2094 0.930 . S
H2103 C2095 0.929 . S
H2104 C2112 0.929 . S
H2105 C2114 0.930 . S
H2106 C2116 0.930 . S
H2107 C2119 0.929 . S
H2108 C2122 0.930 . S
H2109 C2124 0.960 . S
H2110 C2124 0.960 . S
H2111 C2124 0.960 . S
C2112 H2104 0.929 . S
C2112 C2113 1.377 . S
C2112 C2114 1.384 . S
C2113 C2112 1.377 . S
C2113 C2119 1.390 . S
C2114 H2105 0.930 . S
C2114 C2112 1.384 . S
C2114 C2115 1.372 . S
C2115 C2114 1.372 . S
C2115 C2116 1.400 . S
C2115 C2120 1.490 . S
C2116 H2106 0.930 . S
C2116 C2115 1.400 . S
C2116 C2119 1.386 . S
H2117 C2133 0.930 . S
H2118 C2134 0.931 . S
C2119 H2107 0.929 . S
C2119 C2113 1.390 . S
C2119 C2116 1.386 . S
C2120 C2115 1.490 . S
C2120 C2122 1.395 . S
C2120 C2123 1.403 . S
H2121 C2127 0.930 . S
C2122 H2108 0.930 . S
C2122 C2120 1.395 . S
C2122 C2125 1.403 . S
C2123 C2120 1.403 . S
C2123 C2124 1.524 . S
C2123 C2127 1.400 . S
C2124 H2109 0.960 . S
C2124 H2110 0.960 . S
C2124 H2111 0.960 . S
C2124 C2123 1.524 . S
C2125 C2122 1.403 . S
C2125 C2126 1.392 . S
C2125 C2129 1.495 . S
C2126 C2125 1.392 . S
C2126 C2127 1.385 . S
C2126 C2128 1.478 . S
C2127 H2121 0.930 . S
C2127 C2123 1.400 . S
C2127 C2126 1.385 . S
C2128 C2126 1.478 . S
C2128 C2130 1.381 . S
C2128 C2134 1.383 . S
C2129 C2125 1.495 . S
C2129 H2135 0.959 . S
C2129 H2136 0.961 . S
C2129 H2137 0.960 . S
C2130 C2128 1.381 . S
C2130 C2131 1.394 . S
C2130 H2138 0.930 . S
C2131 C2130 1.394 . S
C2131 C2132 1.383 . S
C2131 H2139 0.929 . S
C2132 C2131 1.383 . S
C2132 C2133 1.377 . S
C2133 H2117 0.930 . S
C2133 C2132 1.377 . S
C2133 C2134 1.379 . S
C2134 H2118 0.931 . S
C2134 C2128 1.383 . S
C2134 C2133 1.379 . S
H2135 C2129 0.959 . S
H2136 C2129 0.961 . S
H2137 C2129 0.960 . S
H2138 C2130 0.930 . S
H2139 C2131 0.929 . S
H2140 C2148 0.929 . S
H2141 C2150 0.930 . S
H2142 C2152 0.930 . S
H2143 C2155 0.929 . S
H2144 C2158 0.930 . S
H2145 C2160 0.960 . S
H2146 C2160 0.960 . S
H2147 C2160 0.960 . S
C2148 H2140 0.929 . S
C2148 C2149 1.377 . S
C2148 C2150 1.384 . S
C2149 C2148 1.377 . S
C2149 C2155 1.390 . S
C2150 H2141 0.930 . S
C2150 C2148 1.384 . S
C2150 C2151 1.372 . S
C2151 C2150 1.372 . S
C2151 C2152 1.400 . S
C2151 C2156 1.490 . S
C2152 H2142 0.930 . S
C2152 C2151 1.400 . S
C2152 C2155 1.386 . S
H2153 C2169 0.930 . S
H2154 C2170 0.931 . S
C2155 H2143 0.929 . S
C2155 C2149 1.390 . S
C2155 C2152 1.386 . S
C2156 C2151 1.490 . S
C2156 C2158 1.395 . S
C2156 C2159 1.403 1_554 S
H2157 C2163 0.930 1_556 S
C2158 H2144 0.930 . S
C2158 C2156 1.395 . S
C2158 C2161 1.403 . S
C2159 C2156 1.403 1_556 S
C2159 C2160 1.524 . S
C2159 C2163 1.400 1_556 S
C2160 H2145 0.960 . S
C2160 H2146 0.960 . S
C2160 H2147 0.960 . S
C2160 C2159 1.524 . S
C2161 C2158 1.403 . S
C2161 C2162 1.392 . S
C2161 C2165 1.495 . S
C2162 C2161 1.392 . S
C2162 C2163 1.385 . S
C2162 C2164 1.478 . S
C2163 H2157 0.930 1_554 S
C2163 C2159 1.400 1_554 S
C2163 C2162 1.385 . S
C2164 C2162 1.478 . S
C2164 C2166 1.381 . S
C2164 C2170 1.383 . S
C2165 C2161 1.495 . S
C2165 H2171 0.959 . S
C2165 H2172 0.961 . S
C2165 H2173 0.960 . S
C2166 C2164 1.381 . S
C2166 C2167 1.394 . S
C2166 H2174 0.930 . S
C2167 C2166 1.394 . S
C2167 C2168 1.383 . S
C2167 H2175 0.944 . S
C2168 C2167 1.383 . S
C2168 C2169 1.377 . S
C2169 H2153 0.930 . S
C2169 C2168 1.377 . S
C2169 C2170 1.379 . S
C2170 H2154 0.931 . S
C2170 C2164 1.383 . S
C2170 C2169 1.379 . S
H2171 C2165 0.959 . S
H2172 C2165 0.961 . S
H2173 C2165 0.960 . S
H2174 C2166 0.930 . S
H2175 C2167 0.944 . S
H2176 C2184 0.929 1_455 S
H2177 C2186 0.930 . S
H2178 C2188 0.930 . S
H2179 C2191 0.929 . S
H2180 C2194 0.930 . S
H2181 C2196 0.960 . S
H2182 C2196 0.960 . S
H2183 C2196 0.960 . S
C2184 H2176 0.929 1_655 S
C2184 C2185 1.377 . S
C2184 C2186 1.384 . S
C2185 C2184 1.377 . S
C2185 C2191 1.390 . S
C2186 H2177 0.930 . S
C2186 C2184 1.384 . S
C2186 C2187 1.372 . S
C2187 C2186 1.372 . S
C2187 C2188 1.400 . S
C2187 C2192 1.490 . S
C2188 H2178 0.930 . S
C2188 C2187 1.400 . S
C2188 C2191 1.386 . S
H2189 C2205 0.930 . S
H2190 C2206 0.931 . S
C2191 H2179 0.929 . S
C2191 C2185 1.390 . S
C2191 C2188 1.386 . S
C2192 C2187 1.490 . S
C2192 C2194 1.395 . S
C2192 C2195 1.403 . S
H2193 C2199 0.930 . S
C2194 H2180 0.930 . S
C2194 C2192 1.395 . S
C2194 C2197 1.403 . S
C2195 C2192 1.403 . S
C2195 C2196 1.524 . S
C2195 C2199 1.400 . S
C2196 H2181 0.960 . S
C2196 H2182 0.960 . S
C2196 H2183 0.960 . S
C2196 C2195 1.524 . S
C2197 C2194 1.403 . S
C2197 C2198 1.392 . S
C2197 C2201 1.495 . S
C2198 C2197 1.392 . S
C2198 C2199 1.385 . S
C2198 C2200 1.478 . S
C2199 H2193 0.930 . S
C2199 C2195 1.400 . S
C2199 C2198 1.385 . S
C2200 C2198 1.478 . S
C2200 C2202 1.381 . S
C2200 C2206 1.383 . S
C2201 C2197 1.495 . S
C2201 H2207 0.959 . S
C2201 H2208 0.961 . S
C2201 H2209 0.960 . S
C2202 C2200 1.381 . S
C2202 C2203 1.394 . S
C2202 H2210 0.930 . S
C2203 C2202 1.394 . S
C2203 C2204 1.383 . S
C2203 H2211 0.929 . S
C2204 C2203 1.383 . S
C2204 C2205 1.377 . S
C2205 H2189 0.930 . S
C2205 C2204 1.377 . S
C2205 C2206 1.379 . S
C2206 H2190 0.931 . S
C2206 C2200 1.383 . S
C2206 C2205 1.379 . S
H2207 C2201 0.959 . S
H2208 C2201 0.961 . S
H2209 C2201 0.960 . S
H2210 C2202 0.930 . S
H2211 C2203 0.929 . S
H2212 C2220 0.929 . S
H2213 C2222 0.930 . S
H2214 C2224 0.930 . S
H2215 C2227 0.929 . S
H2216 C2230 0.930 . S
H2217 C2232 0.960 . S
H2218 C2232 0.960 . S
H2219 C2232 0.960 . S
C2220 H2212 0.929 . S
C2220 C2221 1.377 . S
C2220 C2222 1.384 . S
C2221 C2220 1.377 . S
C2221 C2227 1.390 . S
C2222 H2213 0.930 . S
C2222 C2220 1.384 . S
C2222 C2223 1.372 . S
C2223 C2222 1.372 . S
C2223 C2224 1.400 . S
C2223 C2228 1.490 . S
C2224 H2214 0.930 . S
C2224 C2223 1.400 . S
C2224 C2227 1.386 . S
H2225 C2241 0.930 . S
H2226 C2242 0.931 . S
C2227 H2215 0.929 . S
C2227 C2221 1.390 . S
C2227 C2224 1.386 . S
C2228 C2223 1.490 . S
C2228 C2230 1.395 . S
C2228 C2231 1.403 . S
H2229 C2235 0.930 . S
C2230 H2216 0.930 . S
C2230 C2228 1.395 . S
C2230 C2233 1.403 . S
C2231 C2228 1.403 . S
C2231 C2232 1.524 . S
C2231 C2235 1.400 . S
C2232 H2217 0.960 . S
C2232 H2218 0.960 . S
C2232 H2219 0.960 . S
C2232 C2231 1.524 . S
C2233 C2230 1.403 . S
C2233 C2234 1.392 . S
C2233 C2237 1.495 . S
C2234 C2233 1.392 . S
C2234 C2235 1.385 . S
C2234 C2236 1.478 . S
C2235 H2229 0.930 . S
C2235 C2231 1.400 . S
C2235 C2234 1.385 . S
C2236 C2234 1.478 . S
C2236 C2238 1.381 . S
C2236 C2242 1.383 . S
C2237 C2233 1.495 . S
C2237 H2243 0.959 . S
C2237 H2244 0.961 . S
C2237 H2245 0.960 . S
C2238 C2236 1.381 . S
C2238 C2239 1.394 . S
C2238 H2246 0.930 . S
C2239 C2238 1.394 . S
C2239 C2240 1.383 . S
C2239 H2247 0.929 . S
C2240 C2239 1.383 . S
C2240 C2241 1.377 . S
C2241 H2225 0.930 . S
C2241 C2240 1.377 . S
C2241 C2242 1.379 . S
C2242 H2226 0.931 . S
C2242 C2236 1.383 . S
C2242 C2241 1.379 . S
H2243 C2237 0.959 . S
H2244 C2237 0.961 . S
H2245 C2237 0.960 . S
H2246 C2238 0.930 . S
H2247 C2239 0.929 . S
H2248 C2256 0.929 . S
H2249 C2258 0.930 . S
H2250 C2260 0.930 . S
H2251 C2263 0.929 . S
H2252 C2266 0.930 . S
H2253 C2268 0.960 . S
H2254 C2268 0.960 . S
H2255 C2268 0.960 . S
C2256 H2248 0.929 . S
C2256 C2257 1.377 . S
C2256 C2258 1.384 . S
C2257 C2256 1.377 . S
C2257 C2263 1.390 . S
C2258 H2249 0.930 . S
C2258 C2256 1.384 . S
C2258 C2259 1.372 . S
C2259 C2258 1.372 . S
C2259 C2260 1.400 . S
C2259 C2264 1.490 . S
C2260 H2250 0.930 . S
C2260 C2259 1.400 . S
C2260 C2263 1.386 . S
H2261 C2277 0.930 1_455 S
H2262 C2278 0.931 . S
C2263 H2251 0.929 . S
C2263 C2257 1.390 . S
C2263 C2260 1.386 . S
C2264 C2259 1.490 . S
C2264 C2266 1.395 . S
C2264 C2267 1.403 . S
H2265 C2271 0.930 . S
C2266 H2252 0.930 . S
C2266 C2264 1.395 . S
C2266 C2269 1.403 . S
C2267 C2264 1.403 . S
C2267 C2268 1.524 . S
C2267 C2271 1.400 . S
C2268 H2253 0.960 . S
C2268 H2254 0.960 . S
C2268 H2255 0.960 . S
C2268 C2267 1.524 . S
C2269 C2266 1.403 . S
C2269 C2270 1.392 . S
C2269 C2273 1.495 . S
C2270 C2269 1.392 . S
C2270 C2271 1.385 . S
C2270 C2272 1.478 . S
C2271 H2265 0.930 . S
C2271 C2267 1.400 . S
C2271 C2270 1.385 . S
C2272 C2270 1.478 . S
C2272 C2274 1.381 . S
C2272 C2278 1.383 . S
C2273 C2269 1.495 . S
C2273 H2279 0.959 . S
C2273 H2280 0.961 . S
C2273 H2281 0.960 . S
C2274 C2272 1.381 . S
C2274 C2275 1.394 . S
C2274 H2282 0.930 . S
C2275 C2274 1.394 . S
C2275 C2276 1.383 . S
C2275 H2283 0.929 . S
C2276 C2275 1.383 . S
C2276 C2277 1.377 . S
C2277 H2261 0.930 1_655 S
C2277 C2276 1.377 . S
C2277 C2278 1.379 . S
C2278 H2262 0.931 . S
C2278 C2272 1.383 . S
C2278 C2277 1.379 . S
H2279 C2273 0.959 . S
H2280 C2273 0.961 . S
H2281 C2273 0.960 . S
H2282 C2274 0.930 . S
H2283 C2275 0.929 . S
H2284 C2292 0.929 . S
H2285 C2294 0.930 . S
H2286 C2296 0.930 . S
H2287 C2299 0.929 . S
H2288 C2302 0.930 . S
H2289 C2304 0.960 . S
H2290 C2304 0.960 . S
H2291 C2304 0.960 . S
C2292 H2284 0.929 . S
C2292 C2293 1.377 . S
C2292 C2294 1.384 . S
C2293 C2292 1.377 . S
C2293 C2299 1.390 . S
C2294 H2285 0.930 . S
C2294 C2292 1.384 . S
C2294 C2295 1.372 . S
C2295 C2294 1.372 . S
C2295 C2296 1.400 . S
C2295 C2300 1.490 . S
C2296 H2286 0.930 . S
C2296 C2295 1.400 . S
C2296 C2299 1.386 . S
H2297 C2313 0.930 . S
H2298 C2314 0.931 . S
C2299 H2287 0.929 . S
C2299 C2293 1.390 . S
C2299 C2296 1.386 . S
C2300 C2295 1.490 . S
C2300 C2302 1.395 . S
C2300 C2303 1.403 . S
H2301 C2307 0.930 . S
C2302 H2288 0.930 . S
C2302 C2300 1.395 . S
C2302 C2305 1.403 . S
C2303 C2300 1.403 . S
C2303 C2304 1.524 . S
C2303 C2307 1.400 . S
C2304 H2289 0.960 . S
C2304 H2290 0.960 . S
C2304 H2291 0.960 . S
C2304 C2303 1.524 . S
C2305 C2302 1.403 . S
C2305 C2306 1.392 . S
C2305 C2309 1.495 . S
C2306 C2305 1.392 . S
C2306 C2307 1.385 . S
C2306 C2308 1.478 . S
C2307 H2301 0.930 . S
C2307 C2303 1.400 . S
C2307 C2306 1.385 . S
C2308 C2306 1.478 . S
C2308 C2310 1.381 . S
C2308 C2314 1.383 . S
C2309 C2305 1.495 . S
C2309 H2315 0.959 . S
C2309 H2316 0.961 . S
C2309 H2317 0.960 . S
C2310 C2308 1.381 . S
C2310 C2311 1.394 . S
C2310 H2318 0.930 . S
C2311 C2310 1.394 . S
C2311 C2312 1.383 . S
C2311 H2319 0.929 . S
C2312 C2311 1.383 . S
C2312 C2313 1.377 . S
C2313 H2297 0.930 . S
C2313 C2312 1.377 . S
C2313 C2314 1.379 . S
C2314 H2298 0.931 . S
C2314 C2308 1.383 . S
C2314 C2313 1.379 . S
H2315 C2309 0.959 . S
H2316 C2309 0.961 . S
H2317 C2309 0.960 . S
H2318 C2310 0.930 . S
H2319 C2311 0.929 . S
H2320 C2328 0.929 . S
H2321 C2330 0.930 . S
H2322 C2332 0.930 . S
H2323 C2335 0.929 . S
H2324 C2338 0.930 . S
H2325 C2340 0.960 . S
H2326 C2340 0.960 . S
H2327 C2340 0.960 . S
C2328 H2320 0.929 . S
C2328 C2329 1.377 . S
C2328 C2330 1.384 . S
C2329 C2328 1.377 . S
C2329 C2335 1.390 . S
C2330 H2321 0.930 . S
C2330 C2328 1.384 . S
C2330 C2331 1.372 . S
C2331 C2330 1.372 . S
C2331 C2332 1.400 . S
C2331 C2336 1.490 . S
C2332 H2322 0.930 . S
C2332 C2331 1.400 . S
C2332 C2335 1.386 . S
H2333 C2349 0.930 . S
H2334 C2350 0.931 . S
C2335 H2323 0.929 . S
C2335 C2329 1.390 . S
C2335 C2332 1.386 . S
C2336 C2331 1.490 . S
C2336 C2338 1.395 . S
C2336 C2339 1.403 . S
H2337 C2343 0.930 . S
C2338 H2324 0.930 . S
C2338 C2336 1.395 . S
C2338 C2341 1.403 . S
C2339 C2336 1.403 . S
C2339 C2340 1.524 . S
C2339 C2343 1.400 . S
C2340 H2325 0.960 . S
C2340 H2326 0.960 . S
C2340 H2327 0.960 . S
C2340 C2339 1.524 . S
C2341 C2338 1.403 . S
C2341 C2342 1.392 . S
C2341 C2345 1.495 . S
C2342 C2341 1.392 . S
C2342 C2343 1.385 . S
C2342 C2344 1.478 . S
C2343 H2337 0.930 . S
C2343 C2339 1.400 . S
C2343 C2342 1.385 . S
C2344 C2342 1.478 . S
C2344 C2346 1.381 . S
C2344 C2350 1.383 . S
C2345 C2341 1.495 . S
C2345 H2351 0.959 . S
C2345 H2352 0.959 1_455 S
C2345 H2353 0.960 . S
C2346 C2344 1.381 . S
C2346 C2347 1.394 . S
C2346 H2354 0.930 . S
C2347 C2346 1.394 . S
C2347 C2348 1.383 . S
C2347 H2355 0.929 . S
C2348 C2347 1.383 . S
C2348 C2349 1.377 . S
C2349 H2333 0.930 . S
C2349 C2348 1.377 . S
C2349 C2350 1.379 . S
C2350 H2334 0.931 . S
C2350 C2344 1.383 . S
C2350 C2349 1.379 . S
H2351 C2345 0.959 . S
H2352 C2345 0.959 1_655 S
H2353 C2345 0.960 . S
H2354 C2346 0.930 . S
H2355 C2347 0.929 . S
H2356 C2364 0.929 . S
H2357 C2366 0.930 . S
H2358 C2368 0.930 . S
H2359 C2371 0.929 . S
H2360 C2374 0.930 . S
H2361 C2376 0.960 . S
H2362 C2376 0.960 . S
H2363 C2376 0.960 . S
C2364 H2356 0.929 . S
C2364 C2365 1.377 . S
C2364 C2366 1.384 . S
C2365 C2364 1.377 . S
C2365 C2371 1.390 . S
C2366 H2357 0.930 . S
C2366 C2364 1.384 . S
C2366 C2367 1.372 . S
C2367 C2366 1.372 . S
C2367 C2368 1.400 . S
C2367 C2372 1.490 . S
C2368 H2358 0.930 . S
C2368 C2367 1.400 . S
C2368 C2371 1.386 . S
H2369 C2385 0.930 . S
H2370 C2386 0.931 . S
C2371 H2359 0.929 . S
C2371 C2365 1.390 . S
C2371 C2368 1.386 . S
C2372 C2367 1.490 . S
C2372 C2374 1.395 . S
C2372 C2375 1.403 . S
H2373 C2379 0.930 . S
C2374 H2360 0.930 . S
C2374 C2372 1.395 . S
C2374 C2377 1.403 . S
C2375 C2372 1.403 . S
C2375 C2376 1.524 . S
C2375 C2379 1.400 . S
C2376 H2361 0.960 . S
C2376 H2362 0.960 . S
C2376 H2363 0.960 . S
C2376 C2375 1.524 . S
C2377 C2374 1.403 . S
C2377 C2378 1.392 . S
C2377 C2381 1.495 . S
C2378 C2377 1.392 . S
C2378 C2379 1.385 . S
C2378 C2380 1.478 . S
C2379 H2373 0.930 . S
C2379 C2375 1.400 . S
C2379 C2378 1.385 . S
C2380 C2378 1.478 . S
C2380 C2382 1.381 . S
C2380 C2386 1.383 . S
C2381 C2377 1.495 . S
C2381 H2387 0.959 . S
C2381 H2388 0.961 . S
C2381 H2389 0.960 . S
C2382 C2380 1.381 . S
C2382 C2383 1.394 . S
C2382 H2390 0.930 . S
C2383 C2382 1.394 . S
C2383 C2384 1.383 . S
C2383 H2391 0.929 . S
C2384 C2383 1.383 . S
C2384 C2385 1.377 . S
C2385 H2369 0.930 . S
C2385 C2384 1.377 . S
C2385 C2386 1.379 . S
C2386 H2370 0.931 . S
C2386 C2380 1.383 . S
C2386 C2385 1.379 . S
H2387 C2381 0.959 . S
H2388 C2381 0.961 . S
H2389 C2381 0.960 . S
H2390 C2382 0.930 . S
H2391 C2383 0.929 . S
H2392 C2400 0.929 . S
H2393 C2402 0.930 . S
H2394 C2404 0.930 . S
H2395 C2407 0.929 . S
H2396 C2410 0.930 . S
H2397 C2412 0.960 . S
H2398 C2412 0.960 . S
H2399 C2412 0.960 . S
C2400 H2392 0.929 . S
C2400 C2401 1.377 . S
C2400 C2402 1.384 . S
C2401 C2400 1.377 . S
C2401 C2407 1.390 . S
C2402 H2393 0.930 . S
C2402 C2400 1.384 . S
C2402 C2403 1.372 . S
C2403 C2402 1.372 . S
C2403 C2404 1.400 . S
C2403 C2408 1.490 . S
C2404 H2394 0.930 . S
C2404 C2403 1.400 . S
C2404 C2407 1.386 . S
H2405 C2421 0.930 . S
H2406 C2422 0.931 . S
C2407 H2395 0.929 . S
C2407 C2401 1.390 . S
C2407 C2404 1.386 . S
C2408 C2403 1.490 . S
C2408 C2410 1.395 . S
C2408 C2411 1.403 . S
H2409 C2415 0.930 . S
C2410 H2396 0.930 . S
C2410 C2408 1.395 . S
C2410 C2413 1.403 . S
C2411 C2408 1.403 . S
C2411 C2412 1.524 . S
C2411 C2415 1.400 . S
C2412 H2397 0.960 . S
C2412 H2398 0.960 . S
C2412 H2399 0.960 . S
C2412 C2411 1.524 . S
C2413 C2410 1.403 . S
C2413 C2414 1.392 . S
C2413 C2417 1.495 . S
C2414 C2413 1.392 . S
C2414 C2415 1.385 . S
C2414 C2416 1.478 . S
C2415 H2409 0.930 . S
C2415 C2411 1.400 . S
C2415 C2414 1.385 . S
C2416 C2414 1.478 . S
C2416 C2418 1.381 . S
C2416 C2422 1.383 . S
C2417 C2413 1.495 . S
C2417 H2423 0.959 . S
C2417 H2424 0.961 . S
C2417 H2425 0.960 . S
C2418 C2416 1.381 . S
C2418 C2419 1.394 1_455 S
C2418 H2426 0.931 . S
C2419 C2418 1.394 1_655 S
C2419 C2420 1.383 1_655 S
C2419 H2427 0.929 . S
C2420 C2419 1.383 1_455 S
C2420 C2421 1.377 . S
C2421 H2405 0.930 . S
C2421 C2420 1.377 . S
C2421 C2422 1.379 . S
C2422 H2406 0.931 . S
C2422 C2416 1.383 . S
C2422 C2421 1.379 . S
H2423 C2417 0.959 . S
H2424 C2417 0.961 . S
H2425 C2417 0.960 . S
H2426 C2418 0.931 . S
H2427 C2419 0.929 . S
H2428 C2436 0.929 . S
H2429 C2438 0.930 . S
H2430 C2440 0.930 . S
H2431 C2443 0.929 . S
H2432 C2446 0.930 . S
H2433 C2448 0.960 . S
H2434 C2448 0.960 . S
H2435 C2448 0.960 . S
C2436 H2428 0.929 . S
C2436 C2437 1.377 . S
C2436 C2438 1.384 . S
C2437 C2436 1.377 . S
C2437 C2443 1.390 . S
C2438 H2429 0.930 . S
C2438 C2436 1.384 . S
C2438 C2439 1.372 . S
C2439 C2438 1.372 . S
C2439 C2440 1.400 . S
C2439 C2444 1.490 . S
C2440 H2430 0.930 . S
C2440 C2439 1.400 . S
C2440 C2443 1.386 . S
H2441 C2457 0.930 . S
H2442 C2458 0.931 . S
C2443 H2431 0.929 . S
C2443 C2437 1.390 . S
C2443 C2440 1.386 . S
C2444 C2439 1.490 . S
C2444 C2446 1.395 . S
C2444 C2447 1.403 . S
H2445 C2451 0.930 . S
C2446 H2432 0.930 . S
C2446 C2444 1.395 . S
C2446 C2449 1.403 . S
C2447 C2444 1.403 . S
C2447 C2448 1.524 . S
C2447 C2451 1.400 . S
C2448 H2433 0.960 . S
C2448 H2434 0.960 . S
C2448 H2435 0.960 . S
C2448 C2447 1.524 . S
C2449 C2446 1.403 . S
C2449 C2450 1.392 . S
C2449 C2453 1.495 . S
C2450 C2449 1.392 . S
C2450 C2451 1.385 . S
C2450 C2452 1.478 . S
C2451 H2445 0.930 . S
C2451 C2447 1.400 . S
C2451 C2450 1.385 . S
C2452 C2450 1.478 . S
C2452 C2454 1.381 . S
C2452 C2458 1.383 . S
C2453 C2449 1.495 . S
C2453 H2459 0.959 . S
C2453 H2460 0.961 . S
C2453 H2461 0.960 . S
C2454 C2452 1.381 . S
C2454 C2455 1.394 . S
C2454 H2462 0.930 . S
C2455 C2454 1.394 . S
C2455 C2456 1.383 . S
C2455 H2463 0.929 . S
C2456 C2455 1.383 . S
C2456 C2457 1.377 . S
C2457 H2441 0.930 . S
C2457 C2456 1.377 . S
C2457 C2458 1.379 . S
C2458 H2442 0.931 . S
C2458 C2452 1.383 . S
C2458 C2457 1.379 . S
H2459 C2453 0.959 . S
H2460 C2453 0.961 . S
H2461 C2453 0.960 . S
H2462 C2454 0.930 . S
H2463 C2455 0.929 . S
H2464 C2472 0.929 . S
H2465 C2474 0.930 . S
H2466 C2476 0.930 . S
H2467 C2479 0.929 . S
H2468 C2482 0.930 . S
H2469 C2484 0.960 . S
H2470 C2484 0.960 . S
H2471 C2484 0.960 . S
C2472 H2464 0.929 . S
C2472 C2473 1.377 . S
C2472 C2474 1.384 . S
C2473 C2472 1.377 . S
C2473 C2479 1.390 1_655 S
C2474 H2465 0.930 . S
C2474 C2472 1.384 . S
C2474 C2475 1.372 . S
C2475 C2474 1.372 . S
C2475 C2476 1.400 . S
C2475 C2480 1.490 . S
C2476 H2466 0.930 . S
C2476 C2475 1.400 . S
C2476 C2479 1.386 1_655 S
H2477 C2493 0.930 . S
H2478 C2494 0.931 . S
C2479 H2467 0.929 . S
C2479 C2473 1.390 1_455 S
C2479 C2476 1.386 1_455 S
C2480 C2475 1.490 . S
C2480 C2482 1.395 . S
C2480 C2483 1.403 . S
H2481 C2487 0.930 . S
C2482 H2468 0.930 . S
C2482 C2480 1.395 . S
C2482 C2485 1.403 . S
C2483 C2480 1.403 . S
C2483 C2484 1.524 . S
C2483 C2487 1.400 . S
C2484 H2469 0.960 . S
C2484 H2470 0.960 . S
C2484 H2471 0.960 . S
C2484 C2483 1.524 . S
C2485 C2482 1.403 . S
C2485 C2486 1.392 . S
C2485 C2489 1.495 . S
C2486 C2485 1.392 . S
C2486 C2487 1.385 . S
C2486 C2488 1.478 . S
C2487 H2481 0.930 . S
C2487 C2483 1.400 . S
C2487 C2486 1.385 . S
C2488 C2486 1.478 . S
C2488 C2490 1.381 . S
C2488 C2494 1.383 . S
C2489 C2485 1.495 . S
C2489 H2495 0.959 . S
C2489 H2496 0.961 . S
C2489 H2497 0.960 . S
C2490 C2488 1.381 . S
C2490 C2491 1.394 . S
C2490 H2498 0.930 . S
C2491 C2490 1.394 . S
C2491 C2492 1.383 . S
C2491 H2499 0.929 . S
C2492 C2491 1.383 . S
C2492 C2493 1.377 . S
C2493 H2477 0.930 . S
C2493 C2492 1.377 . S
C2493 C2494 1.379 . S
C2494 H2478 0.931 . S
C2494 C2488 1.383 . S
C2494 C2493 1.379 . S
H2495 C2489 0.959 . S
H2496 C2489 0.961 . S
H2497 C2489 0.960 . S
H2498 C2490 0.930 . S
H2499 C2491 0.929 . S
H2500 C2508 0.929 . S
H2501 C2510 0.930 . S
H2502 C2512 0.930 . S
H2503 C2515 0.929 . S
H2504 C2518 0.930 . S
H2505 C2520 0.960 . S
H2506 C2520 0.960 . S
H2507 C2520 0.960 . S
C2508 H2500 0.929 . S
C2508 C2509 1.377 . S
C2508 C2510 1.384 . S
C2509 C2508 1.377 . S
C2509 C2515 1.390 . S
C2510 H2501 0.930 . S
C2510 C2508 1.384 . S
C2510 C2511 1.372 . S
C2511 C2510 1.372 . S
C2511 C2512 1.400 . S
C2511 C2516 1.490 . S
C2512 H2502 0.930 . S
C2512 C2511 1.400 . S
C2512 C2515 1.386 . S
H2513 C2529 0.930 . S
H2514 C2530 0.931 . S
C2515 H2503 0.929 . S
C2515 C2509 1.390 . S
C2515 C2512 1.386 . S
C2516 C2511 1.490 . S
C2516 C2518 1.395 . S
C2516 C2519 1.403 . S
H2517 C2523 0.930 . S
C2518 H2504 0.930 . S
C2518 C2516 1.395 . S
C2518 C2521 1.403 . S
C2519 C2516 1.403 . S
C2519 C2520 1.524 . S
C2519 C2523 1.400 . S
C2520 H2505 0.960 . S
C2520 H2506 0.960 . S
C2520 H2507 0.960 . S
C2520 C2519 1.524 . S
C2521 C2518 1.403 . S
C2521 C2522 1.392 . S
C2521 C2525 1.495 . S
C2522 C2521 1.392 . S
C2522 C2523 1.385 . S
C2522 C2524 1.478 . S
C2523 H2517 0.930 . S
C2523 C2519 1.400 . S
C2523 C2522 1.385 . S
C2524 C2522 1.478 . S
C2524 C2526 1.381 . S
C2524 C2530 1.383 . S
C2525 C2521 1.495 . S
C2525 H2531 0.959 . S
C2525 H2532 0.961 . S
C2525 H2533 0.960 . S
C2526 C2524 1.381 . S
C2526 C2527 1.394 . S
C2526 H2534 0.930 . S
C2527 C2526 1.394 . S
C2527 C2528 1.383 . S
C2527 H2535 0.929 . S
C2528 C2527 1.383 . S
C2528 C2529 1.377 . S
C2529 H2513 0.930 . S
C2529 C2528 1.377 . S
C2529 C2530 1.379 . S
C2530 H2514 0.931 . S
C2530 C2524 1.383 . S
C2530 C2529 1.379 . S
H2531 C2525 0.959 . S
H2532 C2525 0.961 . S
H2533 C2525 0.960 . S
H2534 C2526 0.930 . S
H2535 C2527 0.929 . S
H2536 C2544 0.929 1_455 S
H2537 C2546 0.930 . S
H2538 C2548 0.930 . S
H2539 C2551 0.929 . S
H2540 C2554 0.930 . S
H2541 C2556 0.960 . S
H2542 C2556 0.960 . S
H2543 C2556 0.960 . S
C2544 H2536 0.929 1_655 S
C2544 C2545 1.377 . S
C2544 C2546 1.384 . S
C2545 C2544 1.377 . S
C2545 C2551 1.390 . S
C2546 H2537 0.930 . S
C2546 C2544 1.384 . S
C2546 C2547 1.372 . S
C2547 C2546 1.372 . S
C2547 C2548 1.400 . S
C2547 C2552 1.490 . S
C2548 H2538 0.930 . S
C2548 C2547 1.400 . S
C2548 C2551 1.386 . S
H2549 C2565 0.930 . S
H2550 C2566 0.931 . S
C2551 H2539 0.929 . S
C2551 C2545 1.390 . S
C2551 C2548 1.386 . S
C2552 C2547 1.490 . S
C2552 C2554 1.395 . S
C2552 C2555 1.403 . S
H2553 C2559 0.930 . S
C2554 H2540 0.930 . S
C2554 C2552 1.395 . S
C2554 C2557 1.403 . S
C2555 C2552 1.403 . S
C2555 C2556 1.524 . S
C2555 C2559 1.400 . S
C2556 H2541 0.960 . S
C2556 H2542 0.960 . S
C2556 H2543 0.960 . S
C2556 C2555 1.524 . S
C2557 C2554 1.403 . S
C2557 C2558 1.392 . S
C2557 C2561 1.495 . S
C2558 C2557 1.392 . S
C2558 C2559 1.385 . S
C2558 C2560 1.478 . S
C2559 H2553 0.930 . S
C2559 C2555 1.400 . S
C2559 C2558 1.385 . S
C2560 C2558 1.478 . S
C2560 C2562 1.381 . S
C2560 C2566 1.383 . S
C2561 C2557 1.495 . S
C2561 H2567 0.959 . S
C2561 H2568 0.961 . S
C2561 H2569 0.960 . S
C2562 C2560 1.381 . S
C2562 C2563 1.394 . S
C2562 H2570 0.930 . S
C2563 C2562 1.394 . S
C2563 C2564 1.383 . S
C2563 H2571 0.929 . S
C2564 C2563 1.383 . S
C2564 C2565 1.377 . S
C2565 H2549 0.930 . S
C2565 C2564 1.377 . S
C2565 C2566 1.379 . S
C2566 H2550 0.931 . S
C2566 C2560 1.383 . S
C2566 C2565 1.379 . S
H2567 C2561 0.959 . S
H2568 C2561 0.961 . S
H2569 C2561 0.960 . S
H2570 C2562 0.930 . S
H2571 C2563 0.929 . S
H2572 C2580 0.929 . S
H2573 C2582 0.930 . S
H2574 C2584 0.930 . S
H2575 C2587 0.929 . S
H2576 C2590 0.930 . S
H2577 C2592 0.960 . S
H2578 C2592 0.960 . S
H2579 C2592 0.960 . S
C2580 H2572 0.929 . S
C2580 C2581 1.377 . S
C2580 C2582 1.384 . S
C2581 C2580 1.377 . S
C2581 C2587 1.390 . S
C2582 H2573 0.930 . S
C2582 C2580 1.384 . S
C2582 C2583 1.372 . S
C2583 C2582 1.372 . S
C2583 C2584 1.400 . S
C2583 C2588 1.490 . S
C2584 H2574 0.930 . S
C2584 C2583 1.400 . S
C2584 C2587 1.386 . S
H2585 C2601 0.930 . S
H2586 C2602 0.931 . S
C2587 H2575 0.929 . S
C2587 C2581 1.390 . S
C2587 C2584 1.386 . S
C2588 C2583 1.490 . S
C2588 C2590 1.395 . S
C2588 C2591 1.403 . S
H2589 C2595 0.930 . S
C2590 H2576 0.930 . S
C2590 C2588 1.395 . S
C2590 C2593 1.403 . S
C2591 C2588 1.403 . S
C2591 C2592 1.524 . S
C2591 C2595 1.400 . S
C2592 H2577 0.960 . S
C2592 H2578 0.960 . S
C2592 H2579 0.960 . S
C2592 C2591 1.524 . S
C2593 C2590 1.403 . S
C2593 C2594 1.392 . S
C2593 C2597 1.495 . S
C2594 C2593 1.392 . S
C2594 C2595 1.385 . S
C2594 C2596 1.478 . S
C2595 H2589 0.930 . S
C2595 C2591 1.400 . S
C2595 C2594 1.385 . S
C2596 C2594 1.478 . S
C2596 C2598 1.381 . S
C2596 C2602 1.383 . S
C2597 C2593 1.495 . S
C2597 H2603 0.959 . S
C2597 H2604 0.961 . S
C2597 H2605 0.960 . S
C2598 C2596 1.381 . S
C2598 C2599 1.394 . S
C2598 H2606 0.930 . S
C2599 C2598 1.394 . S
C2599 C2600 1.383 . S
C2599 H2607 0.929 . S
C2600 C2599 1.383 . S
C2600 C2601 1.377 . S
C2601 H2585 0.930 . S
C2601 C2600 1.377 . S
C2601 C2602 1.379 . S
C2602 H2586 0.931 . S
C2602 C2596 1.383 . S
C2602 C2601 1.379 . S
H2603 C2597 0.959 . S
H2604 C2597 0.961 . S
H2605 C2597 0.960 . S
H2606 C2598 0.930 . S
H2607 C2599 0.929 . S
H2608 C2616 0.929 . S
H2609 C2618 0.930 . S
H2610 C2620 0.930 . S
H2611 C2623 0.929 . S
H2612 C2626 0.930 . S
H2613 C2628 0.960 . S
H2614 C2628 0.960 . S
H2615 C2628 0.960 . S
C2616 H2608 0.929 . S
C2616 C2617 1.377 . S
C2616 C2618 1.384 . S
C2617 C2616 1.377 . S
C2617 C2623 1.390 . S
C2618 H2609 0.930 . S
C2618 C2616 1.384 . S
C2618 C2619 1.372 . S
C2619 C2618 1.372 . S
C2619 C2620 1.400 . S
C2619 C2624 1.490 . S
C2620 H2610 0.930 . S
C2620 C2619 1.400 . S
C2620 C2623 1.386 . S
H2621 C2637 0.930 . S
H2622 C2638 0.931 . S
C2623 H2611 0.929 . S
C2623 C2617 1.390 . S
C2623 C2620 1.386 . S
C2624 C2619 1.490 . S
C2624 C2626 1.395 . S
C2624 C2627 1.403 . S
H2625 C2631 0.930 . S
C2626 H2612 0.930 . S
C2626 C2624 1.395 . S
C2626 C2629 1.403 . S
C2627 C2624 1.403 . S
C2627 C2628 1.524 . S
C2627 C2631 1.400 . S
C2628 H2613 0.960 . S
C2628 H2614 0.960 . S
C2628 H2615 0.960 . S
C2628 C2627 1.524 . S
C2629 C2626 1.403 . S
C2629 C2630 1.392 . S
C2629 C2633 1.495 . S
C2630 C2629 1.392 . S
C2630 C2631 1.385 . S
C2630 C2632 1.478 . S
C2631 H2625 0.930 . S
C2631 C2627 1.400 . S
C2631 C2630 1.385 . S
C2632 C2630 1.478 . S
C2632 C2634 1.381 . S
C2632 C2638 1.383 . S
C2633 C2629 1.495 . S
C2633 H2639 0.959 . S
C2633 H2640 0.961 . S
C2633 H2641 0.960 . S
C2634 C2632 1.381 . S
C2634 C2635 1.394 . S
C2634 H2642 0.930 . S
C2635 C2634 1.394 . S
C2635 C2636 1.383 . S
C2635 H2643 0.929 . S
C2636 C2635 1.383 . S
C2636 C2637 1.377 . S
C2637 H2621 0.930 . S
C2637 C2636 1.377 . S
C2637 C2638 1.379 . S
C2638 H2622 0.931 . S
C2638 C2632 1.383 . S
C2638 C2637 1.379 . S
H2639 C2633 0.959 . S
H2640 C2633 0.961 . S
H2641 C2633 0.960 . S
H2642 C2634 0.930 . S
H2643 C2635 0.929 . S
H2644 C2652 0.929 . S
H2645 C2654 0.930 . S
H2646 C2656 0.930 . S
H2647 C2659 0.929 . S
H2648 C2662 0.930 . S
H2649 C2664 0.960 . S
H2650 C2664 0.960 . S
H2651 C2664 0.960 . S
C2652 H2644 0.929 . S
C2652 C2653 1.377 . S
C2652 C2654 1.384 . S
C2653 C2652 1.377 . S
C2653 C2659 1.390 . S
C2654 H2645 0.930 . S
C2654 C2652 1.384 . S
C2654 C2655 1.372 . S
C2655 C2654 1.372 . S
C2655 C2656 1.400 . S
C2655 C2660 1.490 . S
C2656 H2646 0.930 . S
C2656 C2655 1.400 . S
C2656 C2659 1.386 . S
H2657 C2673 0.930 . S
H2658 C2674 0.931 . S
C2659 H2647 0.929 . S
C2659 C2653 1.390 . S
C2659 C2656 1.386 . S
C2660 C2655 1.490 . S
C2660 C2662 1.395 . S
C2660 C2663 1.403 . S
H2661 C2667 0.930 . S
C2662 H2648 0.930 . S
C2662 C2660 1.395 . S
C2662 C2665 1.403 . S
C2663 C2660 1.403 . S
C2663 C2664 1.524 . S
C2663 C2667 1.400 . S
C2664 H2649 0.960 . S
C2664 H2650 0.960 . S
C2664 H2651 0.960 . S
C2664 C2663 1.524 . S
C2665 C2662 1.403 . S
C2665 C2666 1.392 . S
C2665 C2669 1.495 . S
C2666 C2665 1.392 . S
C2666 C2667 1.385 . S
C2666 C2668 1.478 . S
C2667 H2661 0.930 . S
C2667 C2663 1.400 . S
C2667 C2666 1.385 . S
C2668 C2666 1.478 . S
C2668 C2670 1.381 . S
C2668 C2674 1.383 . S
C2669 C2665 1.495 . S
C2669 H2675 0.959 . S
C2669 H2676 0.961 . S
C2669 H2677 0.960 . S
C2670 C2668 1.381 . S
C2670 C2671 1.394 . S
C2670 H2678 0.930 . S
C2671 C2670 1.394 . S
C2671 C2672 1.383 . S
C2671 H2679 0.929 . S
C2672 C2671 1.383 . S
C2672 C2673 1.377 . S
C2673 H2657 0.930 . S
C2673 C2672 1.377 . S
C2673 C2674 1.379 . S
C2674 H2658 0.931 . S
C2674 C2668 1.383 . S
C2674 C2673 1.379 . S
H2675 C2669 0.959 . S
H2676 C2669 0.961 . S
H2677 C2669 0.960 . S
H2678 C2670 0.930 . S
H2679 C2671 0.929 . S
H2680 C2688 0.929 . S
H2681 C2690 0.930 . S
H2682 C2692 0.930 . S
H2683 C2695 0.929 . S
H2684 C2698 0.930 . S
H2685 C2700 0.960 . S
H2686 C2700 0.960 . S
H2687 C2700 0.960 . S
C2688 H2680 0.929 . S
C2688 C2689 1.377 . S
C2688 C2690 1.384 . S
C2689 C2688 1.377 . S
C2689 C2695 1.390 . S
C2690 H2681 0.930 . S
C2690 C2688 1.384 . S
C2690 C2691 1.372 . S
C2691 C2690 1.372 . S
C2691 C2692 1.400 . S
C2691 C2696 1.490 . S
C2692 H2682 0.930 . S
C2692 C2691 1.400 . S
C2692 C2695 1.386 . S
H2693 C2709 0.930 . S
H2694 C2710 0.931 . S
C2695 H2683 0.929 . S
C2695 C2689 1.390 . S
C2695 C2692 1.386 . S
C2696 C2691 1.490 . S
C2696 C2698 1.395 . S
C2696 C2699 1.403 . S
H2697 C2703 0.930 . S
C2698 H2684 0.930 . S
C2698 C2696 1.395 . S
C2698 C2701 1.403 . S
C2699 C2696 1.403 . S
C2699 C2700 1.524 . S
C2699 C2703 1.400 . S
C2700 H2685 0.960 . S
C2700 H2686 0.960 . S
C2700 H2687 0.960 . S
C2700 C2699 1.524 . S
C2701 C2698 1.403 . S
C2701 C2702 1.392 . S
C2701 C2705 1.495 . S
C2702 C2701 1.392 . S
C2702 C2703 1.385 . S
C2702 C2704 1.478 . S
C2703 H2697 0.930 . S
C2703 C2699 1.400 . S
C2703 C2702 1.385 . S
C2704 C2702 1.478 . S
C2704 C2706 1.381 . S
C2704 C2710 1.383 . S
C2705 C2701 1.495 . S
C2705 H2711 0.959 . S
C2705 H2712 0.961 . S
C2705 H2713 0.960 . S
C2706 C2704 1.381 . S
C2706 C2707 1.394 . S
C2706 H2714 0.930 . S
C2707 C2706 1.394 . S
C2707 C2708 1.383 . S
C2707 H2715 0.929 . S
C2708 C2707 1.383 . S
C2708 C2709 1.377 . S
C2709 H2693 0.930 . S
C2709 C2708 1.377 . S
C2709 C2710 1.379 . S
C2710 H2694 0.931 . S
C2710 C2704 1.383 . S
C2710 C2709 1.379 . S
H2711 C2705 0.959 . S
H2712 C2705 0.961 . S
H2713 C2705 0.960 . S
H2714 C2706 0.930 . S
H2715 C2707 0.929 . S
H2716 C2724 0.929 . S
H2717 C2726 0.930 . S
H2718 C2728 0.930 . S
H2719 C2731 0.929 . S
H2720 C2734 0.930 . S
H2721 C2736 0.960 . S
H2722 C2736 0.960 . S
H2723 C2736 0.960 . S
C2724 H2716 0.929 . S
C2724 C2725 1.377 . S
C2724 C2726 1.384 . S
C2725 C2724 1.377 . S
C2725 C2731 1.390 . S
C2726 H2717 0.930 . S
C2726 C2724 1.384 . S
C2726 C2727 1.372 . S
C2727 C2726 1.372 . S
C2727 C2728 1.400 . S
C2727 C2732 1.490 . S
C2728 H2718 0.930 . S
C2728 C2727 1.400 . S
C2728 C2731 1.386 . S
H2729 C2745 0.930 . S
H2730 C2746 0.931 . S
C2731 H2719 0.929 . S
C2731 C2725 1.390 . S
C2731 C2728 1.386 . S
C2732 C2727 1.490 . S
C2732 C2734 1.395 . S
C2732 C2735 1.403 . S
H2733 C2739 0.930 . S
C2734 H2720 0.930 . S
C2734 C2732 1.395 . S
C2734 C2737 1.403 . S
C2735 C2732 1.403 . S
C2735 C2736 1.524 . S
C2735 C2739 1.400 . S
C2736 H2721 0.960 . S
C2736 H2722 0.960 . S
C2736 H2723 0.960 . S
C2736 C2735 1.524 . S
C2737 C2734 1.403 . S
C2737 C2738 1.392 . S
C2737 C2741 1.495 . S
C2738 C2737 1.392 . S
C2738 C2739 1.385 . S
C2738 C2740 1.478 . S
C2739 H2733 0.930 . S
C2739 C2735 1.400 . S
C2739 C2738 1.385 . S
C2740 C2738 1.478 . S
C2740 C2742 1.381 . S
C2740 C2746 1.383 . S
C2741 C2737 1.495 . S
C2741 H2747 0.959 . S
C2741 H2748 0.961 . S
C2741 H2749 0.960 . S
C2742 C2740 1.381 . S
C2742 C2743 1.394 . S
C2742 H2750 0.930 . S
C2743 C2742 1.394 . S
C2743 C2744 1.383 . S
C2743 H2751 0.929 . S
C2744 C2743 1.383 . S
C2744 C2745 1.377 . S
C2745 H2729 0.930 . S
C2745 C2744 1.377 . S
C2745 C2746 1.379 . S
C2746 H2730 0.931 . S
C2746 C2740 1.383 . S
C2746 C2745 1.379 . S
H2747 C2741 0.959 . S
H2748 C2741 0.961 . S
H2749 C2741 0.960 . S
H2750 C2742 0.930 . S
H2751 C2743 0.929 . S
C457 C47 0.896 . S
C476 C5 0.924 . S
C493 C33 0.891 . S
C512 C19 0.896 . S
C529 C103 0.893 . S
C548 C61 0.865 . S
C565 C89 0.900 . S
C584 C75 0.882 . S
C601 C117 0.903 . S
C620 C159 0.918 . S
C637 C131 0.895 . S
C656 C145 0.865 . S
C673 C215 0.891 . S
C692 C173 0.882 . S
C709 C187 0.899 . S
C728 C201 0.878 . S
C745 C229 0.904 . S
C764 C271 0.900 . S
C781 C243 0.894 . S
C800 C257 0.865 . S
C817 C327 0.901 . S
C836 C285 0.892 . S
C853 C313 0.899 . S
C872 C299 0.923 . S
C889 C383 0.891 . S
C908 C341 0.889 . S
C925 C355 0.891 . S
C944 C369 0.881 . S
C961 C397 0.892 . S
C980 C439 0.866 . S
C997 C411 0.904 . S
C1016 C425 0.911 . S
C1033 C280 1.175 . S
C1052 C0 1.164 . S
C1069 C182 1.177 . S
C1088 C14 1.188 . S
C1105 C28 1.184 . S
C1124 C420 1.179 . S
C1141 C42 1.178 . S
C1160 C98 1.191 . S
C1177 C224 1.185 . S
C1196 C56 1.194 . S
C1213 C126 1.185 . S
C1232 C70 1.185 . S
C1249 C364 1.183 . S
C1268 C84 1.167 . S
C1285 C112 1.183 . S
C1304 C392 1.167 . S
C1321 C308 1.175 . S
C1340 C140 1.167 . S
C1357 C210 1.175 . S
C1376 C154 1.162 . S
C1393 C336 1.184 . S
C1412 C168 1.174 . S
C1429 C196 1.180 . S
C1448 C252 1.198 . S
C1465 C406 1.185 . S
C1484 C238 1.186 . S
C1501 C266 1.185 . S
C1520 C322 1.187 . S
C1537 C350 1.181 . S
C1556 C294 1.160 . S
C1573 C434 1.185 . S
C1592 C378 1.192 . S
C1609 C23 1.237 . S
C1628 C9 1.256 . S
C1645 C37 1.233 . S
C1664 C51 1.223 . S
C1681 C65 1.240 . S
C1700 C79 1.225 . S
C1717 C107 1.243 . S
C1736 C93 1.245 . S
C1753 C121 1.240 . S
C1772 C135 1.258 . S
C1789 C149 1.235 . S
C1808 C163 1.252 . S
C1825 C191 1.239 . S
C1844 C177 1.254 . S
C1861 C205 1.241 . S
C1880 C219 1.258 . S
C1897 C233 1.243 . S
C1916 C247 1.248 . S
C1933 C261 1.237 . S
C1952 C275 1.257 . S
C1969 C289 1.238 . S
C1988 C303 1.252 . S
C2005 C331 1.235 . S
C2024 C317 1.239 . S
C2041 C359 1.234 . S
C2060 C345 1.221 . S
C2077 C373 1.239 . S
C2096 C387 1.216 . S
C2113 C401 1.234 . S
C2132 C415 1.230 . S
C2149 C443 1.239 . S
C2168 C429 1.223 . S
C2185 C11 1.507 1_655 S
C2204 C277 1.505 . S
C2221 C25 1.507 . S
C2240 C263 1.503 . S
C2257 C249 1.506 . S
C2276 C39 1.500 1_655 S
C2293 C53 1.505 . S
C2312 C235 1.494 . S
C2329 C333 1.505 . S
C2348 C67 1.500 1_455 S
C2365 C81 1.507 . S
C2384 C319 1.494 . S
C2401 C305 1.507 . S
C2420 C95 1.495 1_455 S
C2437 C109 1.504 . S
C2456 C291 1.508 . S
C2473 C123 1.505 1_655 S
C2492 C389 1.507 . S
C2509 C137 1.504 . S
C2528 C375 1.497 . S
C2545 C151 1.507 1_655 S
C2564 C361 1.506 . S
C2581 C347 1.504 . S
C2600 C165 1.494 . S
C2617 C179 1.506 1_455 S
C2636 C445 1.497 . S
C2653 C193 1.507 . S
C2672 C431 1.494 . S
C2689 C207 1.505 1_455 S
C2708 C417 1.505 . S
C2725 C403 1.507 . S
C2744 C221 1.494 . S
