# Generated by pormake.
# Topology zff, (5)-cn, num edge types: 1
# Building blocks:
#     Node 0, Type 0, BuildingBlock: XOMCOT_clean_sbu_0, # of connection points: 5
#     Node 1, Type 0, BuildingBlock: XOMCOT_clean_sbu_0, # of connection points: 5
#     Node 2, Type 0, BuildingBlock: XOMCOT_clean_sbu_0, # of connection points: 5
#     Node 3, Type 0, BuildingBlock: XOMCOT_clean_sbu_0, # of connection points: 5
#     Node 4, Type 0, BuildingBlock: XOMCOT_clean_sbu_0, # of connection points: 5
#     Node 5, Type 0, BuildingBlock: XOMCOT_clean_sbu_0, # of connection points: 5
#     Node 6, Type 0, BuildingBlock: XOMCOT_clean_sbu_0, # of connection points: 5
#     Node 7, Type 0, BuildingBlock: XOMCOT_clean_sbu_0, # of connection points: 5
#     Node 8, Type 0, BuildingBlock: XOMCOT_clean_sbu_0, # of connection points: 5
#     Node 9, Type 0, BuildingBlock: XOMCOT_clean_sbu_0, # of connection points: 5
#     Node 10, Type 0, BuildingBlock: XOMCOT_clean_sbu_0, # of connection points: 5
#     Node 11, Type 0, BuildingBlock: XOMCOT_clean_sbu_0, # of connection points: 5
#     Node 12, Type 0, BuildingBlock: XOMCOT_clean_sbu_0, # of connection points: 5
#     Node 13, Type 0, BuildingBlock: XOMCOT_clean_sbu_0, # of connection points: 5
#     Node 14, Type 0, BuildingBlock: XOMCOT_clean_sbu_0, # of connection points: 5
#     Node 15, Type 0, BuildingBlock: XOMCOT_clean_sbu_0, # of connection points: 5
#     Edge 16, Type (0, 0), BuildingBlock: XUDNAN_clean_linker_2, # of connection points: 2
#     Edge 17, Type (0, 0), BuildingBlock: XUDNAN_clean_linker_2, # of connection points: 2
#     Edge 18, Type (0, 0), BuildingBlock: XUDNAN_clean_linker_2, # of connection points: 2
#     Edge 19, Type (0, 0), BuildingBlock: XUDNAN_clean_linker_2, # of connection points: 2
#     Edge 20, Type (0, 0), BuildingBlock: XUDNAN_clean_linker_2, # of connection points: 2
#     Edge 21, Type (0, 0), BuildingBlock: XUDNAN_clean_linker_2, # of connection points: 2
#     Edge 22, Type (0, 0), BuildingBlock: XUDNAN_clean_linker_2, # of connection points: 2
#     Edge 23, Type (0, 0), BuildingBlock: XUDNAN_clean_linker_2, # of connection points: 2
#     Edge 24, Type (0, 0), BuildingBlock: XUDNAN_clean_linker_2, # of connection points: 2
#     Edge 25, Type (0, 0), BuildingBlock: XUDNAN_clean_linker_2, # of connection points: 2
#     Edge 26, Type (0, 0), BuildingBlock: XUDNAN_clean_linker_2, # of connection points: 2
#     Edge 27, Type (0, 0), BuildingBlock: XUDNAN_clean_linker_2, # of connection points: 2
#     Edge 28, Type (0, 0), BuildingBlock: XUDNAN_clean_linker_2, # of connection points: 2
#     Edge 29, Type (0, 0), BuildingBlock: XUDNAN_clean_linker_2, # of connection points: 2
#     Edge 30, Type (0, 0), BuildingBlock: XUDNAN_clean_linker_2, # of connection points: 2
#     Edge 31, Type (0, 0), BuildingBlock: XUDNAN_clean_linker_2, # of connection points: 2
#     Edge 32, Type (0, 0), BuildingBlock: XUDNAN_clean_linker_2, # of connection points: 2
#     Edge 33, Type (0, 0), BuildingBlock: XUDNAN_clean_linker_2, # of connection points: 2
#     Edge 34, Type (0, 0), BuildingBlock: XUDNAN_clean_linker_2, # of connection points: 2
#     Edge 35, Type (0, 0), BuildingBlock: XUDNAN_clean_linker_2, # of connection points: 2
#     Edge 36, Type (0, 0), BuildingBlock: XUDNAN_clean_linker_2, # of connection points: 2
#     Edge 37, Type (0, 0), BuildingBlock: XUDNAN_clean_linker_2, # of connection points: 2
#     Edge 38, Type (0, 0), BuildingBlock: XUDNAN_clean_linker_2, # of connection points: 2
#     Edge 39, Type (0, 0), BuildingBlock: XUDNAN_clean_linker_2, # of connection points: 2
#     Edge 40, Type (0, 0), BuildingBlock: XUDNAN_clean_linker_2, # of connection points: 2
#     Edge 41, Type (0, 0), BuildingBlock: XUDNAN_clean_linker_2, # of connection points: 2
#     Edge 42, Type (0, 0), BuildingBlock: XUDNAN_clean_linker_2, # of connection points: 2
#     Edge 43, Type (0, 0), BuildingBlock: XUDNAN_clean_linker_2, # of connection points: 2
#     Edge 44, Type (0, 0), BuildingBlock: XUDNAN_clean_linker_2, # of connection points: 2
#     Edge 45, Type (0, 0), BuildingBlock: XUDNAN_clean_linker_2, # of connection points: 2
#     Edge 46, Type (0, 0), BuildingBlock: XUDNAN_clean_linker_2, # of connection points: 2
#     Edge 47, Type (0, 0), BuildingBlock: XUDNAN_clean_linker_2, # of connection points: 2
#     Edge 48, Type (0, 0), BuildingBlock: XUDNAN_clean_linker_2, # of connection points: 2
#     Edge 49, Type (0, 0), BuildingBlock: XUDNAN_clean_linker_2, # of connection points: 2
#     Edge 50, Type (0, 0), BuildingBlock: XUDNAN_clean_linker_2, # of connection points: 2
#     Edge 51, Type (0, 0), BuildingBlock: XUDNAN_clean_linker_2, # of connection points: 2
#     Edge 52, Type (0, 0), BuildingBlock: XUDNAN_clean_linker_2, # of connection points: 2
#     Edge 53, Type (0, 0), BuildingBlock: XUDNAN_clean_linker_2, # of connection points: 2
#     Edge 54, Type (0, 0), BuildingBlock: XUDNAN_clean_linker_2, # of connection points: 2
#     Edge 55, Type (0, 0), BuildingBlock: XUDNAN_clean_linker_2, # of connection points: 2
# Relax obj value: 0.156
# Max RMSD: 0.225
# Mean RMSD: 0.225
data_MOF--net-zff--node1-XOMCOT_clean_sbu_0--edge1-XUDNAN_clean_linker_2
_symmetry_space_group_name_H-M    P1
_symmetry_Int_Tables_number       1
_symmetry_cell_setting            triclinic
loop_
_symmetry_equiv_pos_as_xyz
'x, y, z'
_cell_length_a     37.562305
_cell_length_b     37.573379
_cell_length_c     66.678009
_cell_angle_alpha  89.897074
_cell_angle_beta   90.281504
_cell_angle_gamma 90.096493
loop_
_atom_site_label
_atom_site_type_symbol
_atom_site_fract_x
_atom_site_fract_y
_atom_site_fract_z
_atom_type_partial_charge
Co0 Co 0.0419 0.30078 0.39421 0.0
C1 C 0.05397 0.31311 0.35064 0.0
C2 C -0.00048 0.32107 0.35868 0.0
C3 C 0.00422 0.33276 0.33923 0.0
N4 N 0.03073 0.30842 0.36587 0.0
N5 N 0.03854 0.32765 0.33425 0.0
H6 H 0.08224 0.30936 0.35189 0.0
H7 H 0.97553 0.32385 0.36744 0.0
C8 C 0.98411 0.24985 0.38456 0.0
O9 O 0.00099 0.24299 0.36779 0.0
N10 N 0.05386 0.29492 0.42228 0.0
C11 C 0.08738 0.29079 0.42917 0.0
C12 C 0.08719 0.29254 0.4497 0.0
C13 C 0.03353 0.2993 0.4388 0.0
N14 N 0.05349 0.29805 0.45577 0.0
C15 C 0.10385 0.26255 0.37992 0.0
C16 C 0.08219 0.19691 0.39415 0.0
C17 C 0.11486 0.19946 0.38431 0.0
C18 C 0.12581 0.23289 0.37721 0.0
C19 C 0.06135 0.22706 0.39661 0.0
N20 N 0.07116 0.25913 0.3886 0.0
H21 H 0.11407 0.28846 0.37603 0.0
H22 H 0.03797 0.22454 0.40579 0.0
H23 H 0.1107 0.28824 0.41986 0.0
H24 H 0.00534 0.30521 0.43836 0.0
O25 O 0.07681 0.3388 0.39209 0.0
O26 O 0.01965 0.34488 0.4001 0.0
O27 O -0.00223 0.27097 0.39749 0.0
C28 C 0.05019 0.35958 0.39652 0.0
H29 H 0.98436 0.34533 0.32979 0.0
H30 H 0.11027 0.29091 0.45944 0.0
H31 H 0.07285 0.17186 0.40025 0.0
H32 H 0.15167 0.23636 0.37036 0.0
Co33 Co 0.68008 0.02029 0.39081 0.0
C34 C 0.65829 0.04367 0.34932 0.0
C35 C 0.66561 0.98713 0.3521 0.0
C36 C 0.65742 -0.00513 0.33247 0.0
N37 N 0.6665 0.01759 0.36268 0.0
N38 N 0.65283 0.03032 0.33066 0.0
H39 H 0.65766 0.07172 0.35298 0.0
H40 H 0.67126 0.96104 0.35821 0.0
C41 C 0.72309 0.95721 0.39555 0.0
O42 O 0.70137 0.95045 0.41046 0.0
N43 N 0.69474 0.0227 0.41903 0.0
C44 C 0.72889 0.02622 0.4251 0.0
C45 C 0.73056 0.0239 0.44564 0.0
C46 C 0.67595 0.01856 0.43625 0.0
N47 N 0.69736 0.019 0.45269 0.0
C48 C 0.70343 0.09164 0.39529 0.0
C49 C 0.76529 0.08448 0.37335 0.0
C50 C 0.76043 0.1152 0.38501 0.0
C51 C 0.72818 0.11928 0.39528 0.0
C52 C 0.73954 0.05767 0.37354 0.0
N53 N 0.71014 0.06079 0.38531 0.0
H54 H 0.67985 0.09403 0.40441 0.0
H55 H 0.74416 0.03368 0.36504 0.0
H56 H 0.75136 0.02935 0.41516 0.0
H57 H 0.64755 0.01408 0.43685 0.0
O58 O 0.63606 0.04446 0.39681 0.0
O59 O 0.64407 0.98583 0.39685 0.0
O60 O 0.71974 0.98596 0.38554 0.0
C61 C 0.62282 0.01266 0.3992 0.0
H62 H 0.65539 0.97588 0.32033 0.0
H63 H 0.75448 0.02554 0.45472 0.0
H64 H 0.78963 0.08008 0.3651 0.0
H65 H 0.72274 0.14295 0.40397 0.0
Co66 Co 0.96383 0.6578 0.39669 0.0
C67 C 0.95437 0.64373 0.35274 0.0
C68 C 0.00825 0.65708 0.36006 0.0
C69 C 0.0064 0.6489 0.33996 0.0
N70 N 0.97531 0.65532 0.36806 0.0
N71 N 0.97248 0.64041 0.33539 0.0
H72 H 0.92699 0.63574 0.3543 0.0
H73 H 0.03243 0.66229 0.36841 0.0
C74 C 0.0126 0.7193 0.39052 0.0
O75 O 0.99297 0.72871 0.37503 0.0
N76 N 0.95251 0.65868 0.42502 0.0
C77 C 0.91941 0.65859 0.4327 0.0
C78 C 0.92181 0.66083 0.45325 0.0
C79 C 0.97474 0.66026 0.44101 0.0
N80 N 0.95653 0.66183 0.45847 0.0
C81 C 0.90052 0.69176 0.3802 0.0
C82 C 0.91005 0.75502 0.40066 0.0
C83 C 0.8822 0.75224 0.38679 0.0
C84 C 0.87711 0.72004 0.37665 0.0
C85 C 0.93313 0.7265 0.4034 0.0
N86 N 0.92943 0.69594 0.39246 0.0
H87 H 0.89464 0.66641 0.37357 0.0
H88 H 0.95405 0.72901 0.41447 0.0
H89 H 0.89517 0.65741 0.4239 0.0
H90 H 0.00348 0.66092 0.4399 0.0
O91 O 0.93398 0.61604 0.3932 0.0
O92 O 0.99186 0.6164 0.40082 0.0
O93 O 0.00354 0.69278 0.40135 0.0
C94 C 0.96327 0.5984 0.39679 0.0
H95 H 0.02863 0.64764 0.32972 0.0
H96 H 0.89971 0.66133 0.4636 0.0
H97 H 0.9142 0.77922 0.40918 0.0
H98 H 0.85476 0.71649 0.36652 0.0
Co99 Co 0.31928 0.93793 0.39546 0.0
C100 C 0.34968 0.91607 0.35642 0.0
C101 C 0.33023 0.96969 0.35526 0.0
C102 C 0.34363 0.96089 0.33666 0.0
N103 N 0.33386 0.94151 0.36759 0.0
N104 N 0.35593 0.92715 0.33739 0.0
H105 H 0.35621 0.88988 0.3621 0.0
H106 H 0.31896 -0.00496 0.35949 0.0
C107 C 0.2498 0.97783 0.39813 0.0
O108 O 0.23832 0.95704 0.41258 0.0
N109 N 0.30563 0.934 0.42381 0.0
C110 C 0.30427 0.90398 0.43497 0.0
C111 C 0.29935 0.91261 0.45474 0.0
C112 C 0.30228 0.96071 0.4374 0.0
N113 N 0.29821 0.94825 0.45639 0.0
C114 C 0.30103 0.86335 0.39299 0.0
C115 C 0.23475 0.87396 0.37595 0.0
C116 C 0.24271 0.84054 0.38417 0.0
C117 C 0.27723 0.83476 0.39165 0.0
C118 C 0.25931 0.90152 0.37762 0.0
N119 N 0.29028 0.89693 0.3881 0.0
H120 H 0.32724 0.85891 0.39923 0.0
H121 H 0.25258 0.92673 0.37092 0.0
H122 H 0.30834 0.87731 0.42975 0.0
H123 H 0.30404 0.98865 0.43353 0.0
O124 O 0.36443 0.91545 0.40201 0.0
O125 O 0.35282 0.97348 0.40279 0.0
O126 O 0.27975 0.97235 0.38981 0.0
C127 C 0.37528 0.94785 0.40568 0.0
H128 H 0.34498 0.97834 0.32376 0.0
H129 H 0.29729 0.89388 0.46704 0.0
H130 H 0.20899 0.87968 0.36936 0.0
H131 H 0.28527 0.80887 0.39719 0.0
Co132 Co 0.0072 0.67891 0.66316 0.0
C133 C 0.0417 0.65184 0.70043 0.0
C134 C 0.98591 0.66174 0.70442 0.0
C135 C -0.00024 0.64901 0.7222 0.0
N136 N 0.01221 0.66366 0.69082 0.0
N137 N 0.03485 0.64273 0.71973 0.0
H138 H 0.06752 0.64999 0.6934 0.0
H139 H 0.9584 0.66852 0.70154 0.0
C140 C 0.93819 0.71354 0.66599 0.0
O141 O 0.9274 0.689 0.65334 0.0
N142 N 0.00198 0.69486 0.63539 0.0
C143 C -0.00541 0.72853 0.62969 0.0
C144 C 0.9921 0.72995 0.6091 0.0
C145 C 0.00467 0.67639 0.618 0.0
N146 N -0.00152 0.6972 0.60177 0.0
C147 C 0.07401 0.71223 0.65505 0.0
C148 C 0.06638 0.7663 0.6828 0.0
C149 C 0.09629 0.76658 0.67022 0.0
C150 C 0.10025 0.73853 0.65647 0.0
C151 C 0.04131 0.73914 0.68119 0.0
N152 N 0.04477 0.7133 0.66703 0.0
H153 H 0.07668 0.69134 0.64403 0.0
H154 H 0.01873 0.73933 0.69115 0.0
H155 H 0.99129 0.7507 0.63983 0.0
H156 H 0.01055 0.6483 0.61706 0.0
O157 O 0.03472 0.63824 0.65459 0.0
O158 O 0.97599 0.63952 0.65841 0.0
O159 O 0.97065 0.71446 0.67156 0.0
C160 C 0.00426 0.62157 0.65386 0.0
H161 H 0.98479 0.64373 0.73571 0.0
H162 H 0.98651 0.7534 0.60018 0.0
H163 H 0.06156 0.78737 0.69348 0.0
H164 H 0.1232 0.73693 0.64677 0.0
Co165 Co 0.30147 0.0324 0.65566 0.0
C166 C 0.33471 0.03177 0.69706 0.0
C167 C 0.27923 0.01829 0.69689 0.0
C168 C 0.29072 0.01984 0.71643 0.0
N169 N 0.30675 0.02501 0.68456 0.0
N170 N 0.32558 0.02838 0.71664 0.0
H171 H 0.3608 0.04009 0.6921 0.0
H172 H 0.25189 0.01543 0.69211 0.0
C173 C 0.26258 0.96503 0.64938 0.0
O174 O 0.29087 0.95325 0.64005 0.0
N175 N 0.29614 0.04218 0.62696 0.0
C176 C 0.29936 0.07558 0.61979 0.0
C177 C 0.29514 0.07536 0.59941 0.0
C178 C 0.29049 0.02169 0.61044 0.0
N179 N 0.28943 0.04163 0.59339 0.0
C180 C 0.27921 0.09857 0.67271 0.0
C181 C 0.21012 0.09492 0.65817 0.0
C182 C 0.22005 0.12346 0.67045 0.0
C183 C 0.25518 0.12555 0.67754 0.0
C184 C 0.23496 0.06891 0.65351 0.0
N185 N 0.2687 0.0706 0.66109 0.0
H186 H 0.30616 0.09978 0.67844 0.0
H187 H 0.2271 0.04744 0.64368 0.0
H188 H 0.30475 0.09879 0.62889 0.0
H189 H 0.28696 0.99321 0.61068 0.0
O190 O 0.34614 0.05827 0.65475 0.0
O191 O 0.33916 -0.00015 0.65064 0.0
O192 O 0.26129 -0.00298 0.65571 0.0
C193 C 0.3601 0.0272 0.65113 0.0
H194 H 0.27407 0.01708 0.72954 0.0
H195 H 0.29682 0.09837 0.58966 0.0
H196 H 0.18348 0.09302 0.65195 0.0
H197 H 0.26377 0.14746 0.68693 0.0
Co198 Co 0.95584 0.31378 0.65354 0.0
C199 C 0.9364 0.33283 0.69608 0.0
C200 C 0.99128 0.3425 0.68936 0.0
C201 C 0.98495 0.35344 0.70871 0.0
N202 N 0.96086 0.32953 0.68133 0.0
N203 N 0.95046 0.34725 0.71291 0.0
H204 H 0.9087 0.32593 0.69469 0.0
H205 H 0.01643 0.34416 0.68158 0.0
C206 C 0.00223 0.26053 0.67385 0.0
O207 O 0.98027 0.259 0.68909 0.0
N208 N 0.95143 0.29914 0.62577 0.0
C209 C 0.92093 0.29304 0.6156 0.0
C210 C 0.92853 0.2903 0.59549 0.0
C211 C 0.9771 0.30026 0.61169 0.0
N212 N 0.96383 0.2952 0.59298 0.0
C213 C 0.88445 0.29392 0.6639 0.0
C214 C 0.89483 0.22123 0.66176 0.0
C215 C 0.8609 0.23418 0.66624 0.0
C216 C 0.85573 0.27104 0.66717 0.0
C217 C 0.92264 0.24501 0.65839 0.0
N218 N 0.91772 0.28086 0.66033 0.0
H219 H 0.87985 0.32229 0.66399 0.0
H220 H 0.94762 0.23435 0.65333 0.0
H221 H 0.89464 0.29284 0.62209 0.0
H222 H 0.00462 0.30642 0.61506 0.0
O223 O 0.92876 0.35653 0.64739 0.0
O224 O 0.98751 0.35063 0.64544 0.0
O225 O -0.00567 0.27791 0.65801 0.0
C226 C 0.95966 0.37047 0.64309 0.0
H227 H 0.00425 0.36493 0.71893 0.0
H228 H 0.90913 0.28743 0.58354 0.0
H229 H 0.8995 0.19298 0.65993 0.0
H230 H 0.82967 0.28208 0.67014 0.0
Co231 Co 0.66087 0.96865 0.65698 0.0
C232 C 0.62923 0.95333 0.69779 0.0
C233 C 0.6324 0.00896 0.69083 0.0
C234 C 0.61445 0.00502 0.70861 0.0
N235 N 0.64227 0.97668 0.68402 0.0
N236 N 0.61242 0.97009 0.71302 0.0
H237 H 0.62929 0.92482 0.69613 0.0
H238 H 0.63627 0.03371 0.68283 0.0
C239 C 0.70982 0.02351 0.67446 0.0
O240 O 0.71268 0.00482 0.69107 0.0
N241 N 0.67799 0.96122 0.62974 0.0
C242 C 0.69222 0.93116 0.62221 0.0
C243 C 0.69651 0.93515 0.60183 0.0
C244 C 0.67318 0.98282 0.61366 0.0
N245 N 0.68428 0.96751 0.59641 0.0
C246 C 0.68831 0.90373 0.6741 0.0
C247 C 0.75937 0.92208 0.67081 0.0
C248 C 0.7504 0.88895 0.67889 0.0
C249 C 0.7144 0.87953 0.68029 0.0
C250 C 0.73259 0.94507 0.66449 0.0
N251 N 0.6975 0.93659 0.66701 0.0
H252 H 0.66085 0.89539 0.67417 0.0
H253 H 0.74037 0.96901 0.65673 0.0
H254 H 0.6977 0.90725 0.63071 0.0
H255 H 0.6608 0.00877 0.61447 0.0
O256 O 0.62227 0.93539 0.65187 0.0
O257 O 0.62147 -0.00607 0.64635 0.0
O258 O 0.69229 0.01163 0.65947 0.0
C259 C 0.60533 0.96351 0.64541 0.0
H260 H 0.60249 0.0262 0.71725 0.0
H261 H 0.70608 0.91501 0.59161 0.0
H262 H 0.78693 0.9295 0.66848 0.0
H263 H 0.70656 0.85353 0.68576 0.0
Co264 Co 0.53108 0.8151 0.88991 0.0
C265 C 0.53439 0.84176 0.84732 0.0
C266 C 0.48139 0.82874 0.85645 0.0
C267 C 0.47982 0.84443 0.83783 0.0
N268 N 0.51568 0.82606 0.86239 0.0
N269 N 0.51315 0.85278 0.83206 0.0
H270 H 0.56227 0.8484 0.84819 0.0
H271 H 0.45866 0.82198 0.86559 0.0
C272 C 0.47894 0.75733 0.88072 0.0
O273 O 0.49452 0.75256 0.86332 0.0
N274 N 0.54643 0.80609 0.9174 0.0
C275 C 0.58054 0.80119 0.92308 0.0
C276 C 0.58257 0.80164 0.94362 0.0
C277 C 0.52808 0.80988 0.93475 0.0
N278 N 0.54974 0.80743 0.95105 0.0
C279 C 0.59237 0.78635 0.86921 0.0
C280 C 0.58492 0.71847 0.88476 0.0
C281 C 0.61382 0.72606 0.87242 0.0
C282 C 0.61754 0.76029 0.86444 0.0
C283 C 0.5604 0.74498 0.88897 0.0
N284 N 0.56369 0.7783 0.8809 0.0
H285 H 0.59723 0.81329 0.8645 0.0
H286 H 0.53981 0.73906 0.8997 0.0
H287 H 0.60283 0.7991 0.91295 0.0
H288 H 0.50008 0.8165 0.93539 0.0
O289 O 0.5617 0.85668 0.88932 0.0
O290 O 0.5048 0.85486 0.89888 0.0
O291 O 0.49124 0.77998 0.89319 0.0
C292 C 0.53362 0.87311 0.89609 0.0
H293 H 0.45575 0.85072 0.82957 0.0
H294 H 0.60671 0.79902 0.95243 0.0
H295 H 0.58204 0.69251 0.89169 0.0
H296 H 0.64053 0.76724 0.85549 0.0
Co297 Co 0.17959 0.52996 0.8955 0.0
C298 C 0.1534 0.547 0.85419 0.0
C299 C 0.16795 0.49204 0.85782 0.0
C300 C 0.15857 0.49768 0.83811 0.0
N301 N 0.16507 0.52294 0.86786 0.0
N302 N 0.1495 0.53217 0.83581 0.0
H303 H 0.1494 0.57493 0.8574 0.0
H304 H 0.17715 0.46727 0.86429 0.0
C305 C 0.23038 0.47289 0.90068 0.0
O306 O 0.21161 0.46495 0.91665 0.0
N307 N 0.19509 0.53673 0.9233 0.0
C308 C 0.22842 0.54589 0.92892 0.0
C309 C 0.231 0.54462 0.94948 0.0
C310 C 0.17781 0.53003 0.94073 0.0
N311 N 0.19923 0.53453 0.95692 0.0
C312 C 0.19731 0.60363 0.89787 0.0
C313 C 0.25629 0.5991 0.8733 0.0
C314 C 0.2517 0.62963 0.88511 0.0
C315 C 0.22063 0.6325 0.89664 0.0
C316 C 0.23216 0.57108 0.87482 0.0
N317 N 0.2046 0.57281 0.888 0.0
H318 H 0.17494 0.60488 0.90799 0.0
H319 H 0.23698 0.54708 0.86636 0.0
H320 H 0.24984 0.55203 0.91869 0.0
H321 H 0.15074 0.52047 0.94168 0.0
O322 O 0.13308 0.54918 0.90149 0.0
O323 O 0.14866 0.49218 0.90338 0.0
O324 O 0.22267 0.50035 0.89035 0.0
C325 C 0.12416 0.51623 0.90521 0.0
H326 H 0.1588 0.47799 0.82627 0.0
H327 H 0.25465 0.55023 0.95827 0.0
H328 H 0.27967 0.59554 0.86409 0.0
H329 H 0.21541 0.65598 0.90554 0.0
Co330 Co 0.46125 0.17018 0.8891 0.0
C331 C 0.44014 0.14127 0.84921 0.0
C332 C 0.49402 0.15945 0.8486 0.0
C333 C 0.4861 0.14385 0.83034 0.0
N334 N 0.46475 0.15904 0.86033 0.0
N335 N 0.45222 0.13225 0.83084 0.0
H336 H 0.41442 0.13308 0.85475 0.0
H337 H 0.52018 0.16812 0.85329 0.0
C338 C 0.51466 0.22552 0.87651 0.0
O339 O 0.49477 0.23466 0.86108 0.0
N340 N 0.45723 0.17939 0.91776 0.0
C341 C 0.42676 0.18769 0.92727 0.0
C342 C 0.43358 0.19084 0.94746 0.0
C343 C 0.4821 0.1765 0.93247 0.0
N344 N 0.46826 0.18371 0.95077 0.0
C345 C 0.40021 0.20806 0.87283 0.0
C346 C 0.4178 0.27237 0.89047 0.0
C347 C 0.38697 0.27001 0.87879 0.0
C348 C 0.37816 0.23757 0.86977 0.0
C349 C 0.43926 0.24262 0.89284 0.0
N350 N 0.43081 0.21102 0.88384 0.0
H351 H 0.39195 0.18279 0.86689 0.0
H352 H 0.46232 0.24478 0.90251 0.0
H353 H 0.40114 0.19083 0.92001 0.0
H354 H 0.50953 0.1691 0.92987 0.0
O355 O 0.42616 0.13267 0.89205 0.0
O356 O 0.48523 0.12712 0.89485 0.0
O357 O 0.50496 0.20069 0.88835 0.0
C358 C 0.45392 0.11263 0.8954 0.0
H359 H 0.50456 0.1391 0.81822 0.0
H360 H 0.41423 0.1968 0.95895 0.0
H361 H 0.42502 0.29697 0.89793 0.0
H362 H 0.35384 0.23474 0.86112 0.0
Co363 Co 0.81571 0.46236 0.89382 0.0
C364 C 0.84032 0.43453 0.85446 0.0
C365 C 0.84063 0.49166 0.85577 0.0
C366 C 0.85341 0.48136 0.83738 0.0
N367 N 0.83252 0.46237 0.86646 0.0
N368 N 0.85321 0.44548 0.83655 0.0
H369 H 0.83731 0.40696 0.85888 0.0
H370 H 0.83776 0.51868 0.86109 0.0
C371 C 0.77772 0.5292 0.89456 0.0
O372 O 0.79839 0.5364 0.90998 0.0
N373 N 0.79806 0.46263 0.92129 0.0
C374 C 0.76334 0.46416 0.92631 0.0
C375 C 0.76055 0.46629 0.94683 0.0
C376 C 0.81594 0.46326 0.939 0.0
N377 N 0.79359 0.46569 0.95477 0.0
C378 C 0.7883 0.39256 0.8978 0.0
C379 C 0.72856 0.40204 0.87397 0.0
C380 C 0.73185 0.37067 0.88533 0.0
C381 C 0.7631 0.36549 0.89657 0.0
C382 C 0.75496 0.42818 0.87523 0.0
N383 N 0.78338 0.42381 0.88781 0.0
H384 H 0.81103 0.38909 0.90758 0.0
H385 H 0.75173 0.45242 0.8667 0.0
H386 H 0.74147 0.46444 0.9157 0.0
H387 H 0.84461 0.46308 0.94046 0.0
O388 O 0.857 0.43527 0.9019 0.0
O389 O 0.85369 0.49426 0.90082 0.0
O390 O 0.77957 0.49892 0.8861 0.0
C391 C 0.87259 0.46597 0.90422 0.0
H392 H 0.86188 0.49896 0.82544 0.0
H393 H 0.73611 0.46827 0.95529 0.0
H394 H 0.70506 0.40727 0.86499 0.0
H395 H 0.76753 0.34126 0.90503 0.0
Co396 Co 0.53651 0.18583 0.15416 0.0
C397 C 0.56295 0.15508 0.19247 0.0
C398 C 0.50925 0.17377 0.19515 0.0
C399 C 0.51998 0.15992 0.2134 0.0
N400 N 0.53624 0.17079 0.18207 0.0
N401 N 0.55381 0.14811 0.21176 0.0
H402 H 0.58863 0.14922 0.186 0.0
H403 H 0.48345 0.18499 0.19165 0.0
C404 C 0.47747 0.2342 0.15231 0.0
O405 O 0.46785 0.21404 0.13714 0.0
N406 N 0.53743 0.20146 0.12607 0.0
C407 C 0.5415 0.23558 0.12013 0.0
C408 C 0.53863 0.23741 0.09957 0.0
C409 C 0.53281 0.18286 0.1088 0.0
N410 N 0.5332 0.20431 0.09244 0.0
C411 C 0.6091 0.20472 0.14747 0.0
C412 C 0.60894 0.2622 0.17337 0.0
C413 C 0.63797 0.25768 0.16043 0.0
C414 C 0.63854 0.22744 0.14804 0.0
C415 C 0.58047 0.23854 0.17258 0.0
N416 N 0.58006 0.21156 0.15896 0.0
H417 H 0.60865 0.18278 0.137 0.0
H418 H 0.55791 0.24303 0.18223 0.0
H419 H 0.54566 0.25782 0.13015 0.0
H420 H 0.52832 0.15448 0.10806 0.0
O421 O 0.55474 0.13937 0.1467 0.0
O422 O 0.49776 0.15471 0.14879 0.0
O423 O 0.50696 0.22829 0.16124 0.0
C424 C 0.5212 0.13043 0.14517 0.0
H425 H 0.50371 0.15805 0.22671 0.0
H426 H 0.54047 0.26129 0.09052 0.0
H427 H 0.60689 0.285 0.18319 0.0
H428 H 0.66078 0.22217 0.13822 0.0
Co429 Co 0.82403 0.53647 0.15732 0.0
C430 C 0.8408 0.55722 0.19911 0.0
C431 C 0.8279 0.50195 0.19753 0.0
C432 C 0.84124 0.5092 0.21646 0.0
N433 N 0.82679 0.53234 0.18665 0.0
N434 N 0.84977 0.54398 0.21729 0.0
H435 H 0.84812 0.58368 0.19441 0.0
H436 H 0.82282 0.47565 0.19163 0.0
C437 C 0.76619 0.48386 0.16604 0.0
O438 O 0.75538 0.50328 0.1812 0.0
N439 N 0.82302 0.54122 0.12838 0.0
C440 C 0.82097 0.57241 0.11845 0.0
C441 C 0.8193 0.56567 0.09822 0.0
C442 C 0.82339 0.5158 0.11405 0.0
N443 N 0.82087 0.53019 0.09547 0.0
C444 C 0.78553 0.60063 0.16808 0.0
C445 C 0.72514 0.58312 0.1463 0.0
C446 C 0.72645 0.61555 0.15641 0.0
C447 C 0.75684 0.62433 0.16756 0.0
C448 C 0.75394 0.56011 0.1475 0.0
N449 N 0.78349 0.56851 0.15859 0.0
H450 H 0.80973 0.609 0.17529 0.0
H451 H 0.75298 0.53612 0.13863 0.0
H452 H 0.82026 0.59831 0.12549 0.0
H453 H 0.82477 0.48753 0.11713 0.0
O454 O 0.86364 0.56977 0.15833 0.0
O455 O 0.86706 0.51067 0.15567 0.0
O456 O 0.79224 0.49386 0.15525 0.0
C457 C 0.88309 0.54107 0.15726 0.0
H458 H 0.84755 0.48976 0.22793 0.0
H459 H 0.81736 0.58535 0.08639 0.0
H460 H 0.70226 0.57591 0.1372 0.0
H461 H 0.75898 0.64984 0.17502 0.0
Co462 Co 0.46224 0.82055 0.15203 0.0
C463 C 0.44702 0.83273 0.19622 0.0
C464 C 0.50263 0.82945 0.18942 0.0
C465 C 0.4991 0.83561 0.20962 0.0
N466 N 0.47006 0.82648 0.18094 0.0
N467 N 0.46418 0.83775 0.21392 0.0
H468 H 0.41851 0.83408 0.19467 0.0
H469 H 0.52747 0.82758 0.18135 0.0
C470 C 0.51069 0.7602 0.16303 0.0
O471 O 0.49269 0.75454 0.17958 0.0
N472 N 0.45521 0.81581 0.12326 0.0
C473 C 0.42378 0.81489 0.11346 0.0
C474 C 0.4301 0.81398 0.09312 0.0
C475 C 0.48023 0.8158 0.10875 0.0
N476 N 0.46562 0.81467 0.0901 0.0
C477 C 0.39358 0.79353 0.16373 0.0
C478 C 0.4054 0.72486 0.15064 0.0
C479 C 0.3726 0.7331 0.15936 0.0
C480 C 0.36666 0.76806 0.16583 0.0
C481 C 0.43119 0.75107 0.14864 0.0
N482 N 0.42595 0.78447 0.15608 0.0
H483 H 0.3879 0.82079 0.16758 0.0
H484 H 0.45492 0.74449 0.14045 0.0
H485 H 0.398 0.81576 0.12059 0.0
H486 H 0.5085 0.81708 0.11186 0.0
O487 O 0.43319 0.86287 0.15164 0.0
O488 O 0.49198 0.86072 0.14755 0.0
O489 O 0.50123 0.78437 0.15068 0.0
C490 C 0.46311 0.87955 0.14838 0.0
H491 H 0.52062 0.83908 0.22031 0.0
H492 H 0.40995 0.8142 0.08147 0.0
H493 H 0.41122 0.69836 0.14523 0.0
H494 H 0.34119 0.77592 0.17192 0.0
Co495 Co 0.17685 0.45971 0.15976 0.0
C496 C 0.15613 0.43631 0.20013 0.0
C497 C 0.15119 0.49297 0.19724 0.0
C498 C 0.13847 0.48283 0.21583 0.0
N499 N 0.16227 0.46369 0.18748 0.0
N500 N 0.1417 0.44717 0.21759 0.0
H501 H 0.16058 0.40875 0.19622 0.0
H502 H 0.15126 0.51959 0.19104 0.0
C503 C 0.23577 0.51231 0.15407 0.0
O504 O 0.2513 0.49083 0.14135 0.0
N505 N 0.19066 0.45531 0.13147 0.0
C506 C 0.21429 0.43272 0.12306 0.0
C507 C 0.21611 0.4392 0.10282 0.0
C508 C 0.1784 0.47514 0.11585 0.0
N509 N 0.19357 0.46582 0.09825 0.0
C510 C 0.21125 0.39226 0.16477 0.0
C511 C 0.27043 0.41797 0.18496 0.0
C512 C 0.2699 0.38241 0.17878 0.0
C513 C 0.23908 0.36913 0.16943 0.0
C514 C 0.24198 0.44008 0.18004 0.0
N515 N 0.21432 0.42778 0.16861 0.0
H516 H 0.18828 0.38209 0.15682 0.0
H517 H 0.24267 0.4672 0.18527 0.0
H518 H 0.23063 0.41359 0.13079 0.0
H519 H 0.15936 0.49651 0.11733 0.0
O520 O 0.13845 0.42603 0.15572 0.0
O521 O 0.13528 0.48479 0.15172 0.0
O522 O 0.20741 0.50306 0.16308 0.0
C523 C 0.1194 0.45414 0.15168 0.0
H524 H 0.12747 0.50031 0.22709 0.0
H525 H 0.23281 0.42524 0.09225 0.0
H526 H 0.29329 0.42915 0.19266 0.0
H527 H 0.23713 0.34146 0.16502 0.0
H528 H 0.97431 0.54703 0.42448 0.0
H529 H 0.96543 0.56668 0.36065 0.0
H530 H -0.00507 0.50918 0.35377 0.0
H531 H 0.05765 0.50843 0.42485 0.0
H532 H 0.04833 0.47455 0.44328 0.0
H533 H 0.02381 0.51569 0.44348 0.0
H534 H 0.96377 0.48177 0.44072 0.0
H535 H 0.98805 0.44054 0.44163 0.0
H536 H 0.95777 0.44922 0.42115 0.0
H537 H 0.03184 0.45329 0.3542 0.0
H538 H 0.05757 0.39404 0.36137 0.0
H539 H 0.03897 0.40948 0.42479 0.0
C540 C 0.97709 0.53827 0.40909 0.0
C541 C 0.967 0.56047 0.39305 0.0
C542 C 0.9721 0.54923 0.37306 0.0
C543 C 0.98944 0.51704 0.36905 0.0
C544 C 0.00094 0.49653 0.38526 0.0
C545 C 0.99368 0.50596 0.40486 0.0
C546 C 0.0081 0.47884 0.41954 0.0
C547 C 0.03613 0.49539 0.43361 0.0
C548 C 0.97761 0.46155 0.43145 0.0
C549 C 0.02496 0.45286 0.40517 0.0
C550 C 0.02135 0.46398 0.38548 0.0
C551 C 0.03472 0.44422 0.36954 0.0
C552 C 0.04995 0.41099 0.37376 0.0
C553 C 0.05091 0.39796 0.39365 0.0
C554 C 0.03949 0.41959 0.40956 0.0
H555 H 0.58302 0.95398 0.39161 0.0
H556 H 0.57942 0.05809 0.41952 0.0
H557 H 0.51691 0.04718 0.42938 0.0
H558 H 0.49883 0.95901 0.36988 0.0
H559 H 0.48829 0.9125 0.37298 0.0
H560 H 0.53394 0.92638 0.3709 0.0
H561 H 0.54837 0.8952 0.4047 0.0
H562 H 0.50253 0.88154 0.40697 0.0
H563 H 0.52344 0.90673 0.42678 0.0
H564 H 0.45477 0.02747 0.43362 0.0
H565 H 0.39428 0.00388 0.4285 0.0
H566 H 0.43723 0.91295 0.39684 0.0
C567 C 0.56918 0.97418 0.40012 0.0
C568 C 0.58578 0.00673 0.40502 0.0
C569 C 0.56689 0.03302 0.41567 0.0
C570 C 0.53165 0.02686 0.4215 0.0
C571 C 0.51596 -0.00559 0.41643 0.0
C572 C 0.53394 0.96867 0.40576 0.0
C573 C 0.50973 0.93802 0.40004 0.0
C574 C 0.50757 0.93376 0.3771 0.0
C575 C 0.52175 0.90332 0.41024 0.0
C576 C 0.47495 0.95108 0.40862 0.0
C577 C 0.47945 0.98325 0.41843 0.0
C578 C 0.45094 0.00212 0.42623 0.0
C579 C 0.41675 0.98854 0.4232 0.0
C580 C 0.41142 0.95662 0.41235 0.0
C581 C 0.44086 0.93696 0.40558 0.0
H582 H 0.92041 0.42845 0.65394 0.0
H583 H 0.01139 0.39526 0.61891 0.0
H584 H 0.02948 0.45781 0.61461 0.0
H585 H 0.90459 0.51621 0.62647 0.0
H586 H 0.89306 0.53805 0.64959 0.0
H587 H 0.88294 0.49152 0.64618 0.0
H588 H 0.91764 0.47698 0.67885 0.0
H589 H 0.92859 0.52318 0.68215 0.0
H590 H 0.96357 0.49047 0.68116 0.0
H591 H 0.04451 0.52121 0.61992 0.0
H592 H 0.05125 0.58362 0.63118 0.0
H593 H 0.95013 0.5762 0.66209 0.0
C594 C 0.9431 0.43463 0.6446 0.0
C595 C 0.96445 0.40741 0.63666 0.0
C596 C -0.00526 0.41604 0.62507 0.0
C597 C 0.00519 0.45142 0.62251 0.0
C598 C 0.98484 0.47774 0.63149 0.0
C599 C 0.954 0.46995 0.64197 0.0
C600 C 0.93924 0.50283 0.65196 0.0
C601 C 0.9028 0.51274 0.64301 0.0
C602 C 0.93717 0.49805 0.67488 0.0
C603 C 0.96744 0.52972 0.64624 0.0
C604 C 0.99338 0.51481 0.63432 0.0
C605 C 0.02391 0.53355 0.62879 0.0
C606 C 0.02773 0.56872 0.63541 0.0
C607 C 0.00108 0.58452 0.64731 0.0
C608 C 0.97058 0.56482 0.65268 0.0
H609 H 0.54813 0.93628 0.66472 0.0
H610 H 0.58105 0.99373 0.61159 0.0
H611 H 0.51956 0.01457 0.60624 0.0
H612 H 0.45355 0.91411 0.64643 0.0
H613 H 0.4364 0.92076 0.67134 0.0
H614 H 0.48072 0.90354 0.66799 0.0
H615 H 0.50499 0.95442 0.69039 0.0
H616 H 0.46116 0.9729 0.69307 0.0
H617 H 0.49672 -0.0 0.6833 0.0
H618 H 0.4596 0.04024 0.61116 0.0
H619 H 0.39906 0.05832 0.6218 0.0
H620 H 0.4043 0.98323 0.6711 0.0
C621 C 0.5417 0.95126 0.65128 0.0
C622 C 0.56867 0.96298 0.63831 0.0
C623 C 0.56019 0.98411 0.6214 0.0
C624 C 0.52551 -0.00371 0.61835 0.0
C625 C 0.49984 0.98674 0.63232 0.0
C626 C 0.5071 0.96375 0.64809 0.0
C627 C 0.4756 0.9606 0.66202 0.0
C628 C 0.46067 0.92249 0.66192 0.0
C629 C 0.48522 0.9727 0.68345 0.0
C630 C 0.45024 0.98639 0.65203 0.0
C631 C 0.46479 0.00136 0.635 0.0
C632 C 0.44748 0.02811 0.62419 0.0
C633 C 0.41358 0.03866 0.63047 0.0
C634 C 0.39775 0.02217 0.64723 0.0
C635 C 0.41629 -0.00392 0.65823 0.0
H636 H 0.52452 0.9241 0.86827 0.0
H637 H 0.53378 0.90485 0.93211 0.0
H638 H 0.50671 0.96353 0.93898 0.0
H639 H 0.54067 0.02198 0.86981 0.0
H640 H 0.50867 0.02964 0.85004 0.0
H641 H 0.53321 0.98855 0.85087 0.0
H642 H 0.47326 0.95432 0.85013 0.0
H643 H 0.44854 -0.00465 0.85044 0.0
H644 H 0.44095 0.96219 0.86953 0.0
H645 H 0.47426 0.02122 0.93877 0.0
H646 H 0.45002 0.08106 0.93152 0.0
H647 H 0.45941 0.06127 0.86785 0.0
C648 C 0.52262 0.9333 0.88363 0.0
C649 C 0.53224 0.91106 0.89973 0.0
C650 C 0.52765 0.92254 0.9197 0.0
C651 C 0.51171 0.95536 0.92369 0.0
C652 C 0.50036 0.97585 0.90747 0.0
C653 C 0.50646 0.96581 0.88784 0.0
C654 C 0.49071 0.99223 0.87316 0.0
C655 C 0.52006 0.00912 0.86022 0.0
C656 C 0.46165 0.97496 0.86005 0.0
C657 C 0.47492 0.01872 0.88764 0.0
C658 C 0.4803 0.00847 0.90736 0.0
C659 C 0.46958 0.02946 0.92343 0.0
C660 C 0.45522 0.06301 0.91922 0.0
C661 C 0.45181 0.07474 0.89919 0.0
C662 C 0.46037 0.05192 0.88323 0.0
H663 H 0.91463 0.52447 0.90115 0.0
H664 H 0.91506 0.41384 0.91994 0.0
H665 H 0.97951 0.41813 0.92721 0.0
H666 H 0.99249 0.52082 0.87476 0.0
H667 H 0.0078 0.5649 0.88108 0.0
H668 H 0.96095 0.55519 0.88089 0.0
H669 H 0.95603 0.5767 0.9177 0.0
H670 H 0.00301 0.5866 0.918 0.0
H671 H 0.98439 0.55735 0.93668 0.0
H672 H 0.04383 0.43199 0.92834 0.0
H673 H 0.10468 0.45338 0.92197 0.0
H674 H 0.06277 0.55496 0.90177 0.0
C675 C 0.92812 0.50143 0.90732 0.0
C676 C 0.91007 0.4689 0.91017 0.0
C677 C 0.92859 0.43902 0.91774 0.0
C678 C 0.96504 0.4413 0.92204 0.0
C679 C 0.98227 0.47364 0.91867 0.0
C680 C 0.96445 0.50319 0.91148 0.0
C681 C 0.98978 0.53343 0.90686 0.0
C682 C 0.98762 0.54418 0.88458 0.0
C683 C 0.98289 0.56541 0.92064 0.0
C684 C 0.02484 0.51579 0.91183 0.0
C685 C 0.0198 0.48157 0.919 0.0
C686 C 0.04815 0.45891 0.92307 0.0
C687 C 0.08256 0.47125 0.91929 0.0
C688 C 0.08822 0.50581 0.9114 0.0
C689 C 0.05909 0.52865 0.9081 0.0
H690 H 0.52178 0.92086 0.15194 0.0
H691 H 0.40888 0.92457 0.13789 0.0
H692 H 0.41391 0.98929 0.13131 0.0
H693 H 0.52467 0.00141 0.17856 0.0
H694 H 0.56842 0.01372 0.16996 0.0
H695 H 0.55625 0.96751 0.1717 0.0
H696 H 0.57235 0.95901 0.13423 0.0
H697 H 0.58419 0.00539 0.13231 0.0
H698 H 0.55145 0.98672 0.11549 0.0
H699 H 0.43074 0.05276 0.12765 0.0
H700 H 0.45609 0.11283 0.13088 0.0
H701 H 0.55809 0.06776 0.14815 0.0
C702 C 0.49816 0.93523 0.14728 0.0
C703 C 0.46497 0.918 0.14524 0.0
C704 C 0.43449 0.93757 0.13953 0.0
C705 C 0.4372 0.9741 0.13558 0.0
C706 C 0.47051 0.99023 0.13753 0.0
C707 C 0.50035 0.97153 0.14348 0.0
C708 C 0.53234 -0.00442 0.14611 0.0
C709 C 0.54621 -0.00551 0.16787 0.0
C710 C 0.56182 0.9861 0.13114 0.0
C711 C 0.51566 0.03103 0.14111 0.0
C712 C 0.48016 0.02716 0.13584 0.0
C713 C 0.45851 0.05615 0.13162 0.0
C714 C 0.47318 0.09009 0.13355 0.0
C715 C 0.509 0.09467 0.13982 0.0
C716 C 0.53082 0.06483 0.14306 0.0
H717 H 0.93634 0.54745 0.13019 0.0
H718 H 0.91307 0.52765 0.19275 0.0
H719 H 0.97031 0.49661 0.19678 0.0
H720 H 0.9736 0.46817 0.11923 0.0
H721 H 0.00943 0.48366 0.10357 0.0
H722 H 0.96937 0.50958 0.10572 0.0
H723 H 0.00501 0.56478 0.11774 0.0
H724 H 0.04538 0.53975 0.11438 0.0
H725 H 0.03618 0.5602 0.13823 0.0
H726 H 0.0229 0.45768 0.19221 0.0
H727 H 0.08089 0.4318 0.18301 0.0
H728 H 0.07317 0.48086 0.12429 0.0
C729 C 0.94452 0.53861 0.14498 0.0
C730 C 0.92103 0.54047 0.1613 0.0
C731 C 0.93146 0.5273 0.1803 0.0
C732 C 0.96351 0.50897 0.1826 0.0
C733 C 0.98486 0.50488 0.16581 0.0
C734 C 0.97687 0.52087 0.14763 0.0
C735 C 0.00461 0.51224 0.13201 0.0
C736 C 0.98824 0.49223 0.11408 0.0
C737 C 0.02396 0.54626 0.1252 0.0
C738 C 0.02878 0.48821 0.14415 0.0
C739 C 0.01629 0.48354 0.16343 0.0
C740 C 0.03336 0.46155 0.17727 0.0
C741 C 0.06579 0.4463 0.17177 0.0
C742 C 0.08085 0.4541 0.1529 0.0
C743 C 0.06154 0.47398 0.13863 0.0
H744 H 0.02515 0.38715 0.31187 0.0
H745 H 0.09345 0.29454 0.31625 0.0
H746 H 0.12699 0.31509 0.2866 0.0
H747 H 0.02198 0.39201 0.25725 0.0
H748 H 0.02325 0.43996 0.25665 0.0
H749 H 0.00368 0.41725 0.27772 0.0
H750 H 0.04618 0.45096 0.30181 0.0
H751 H 0.06599 0.47364 0.28081 0.0
H752 H 0.09357 0.44857 0.29791 0.0
H753 H 0.15344 0.34571 0.25679 0.0
H754 H 0.17185 0.38491 0.22898 0.0
H755 H 0.08729 0.45863 0.24391 0.0
C756 C 0.0468 0.37097 0.30637 0.0
C757 C 0.0566 0.33907 0.31629 0.0
C758 C 0.08563 0.31906 0.30892 0.0
C759 C 0.10474 0.33048 0.29207 0.0
C760 C 0.09469 0.36217 0.28276 0.0
C761 C 0.06645 0.38221 0.28963 0.0
C762 C 0.06198 0.41585 0.27721 0.0
C763 C 0.02556 0.41627 0.26658 0.0
C764 C 0.06725 0.44923 0.29022 0.0
C765 C 0.0921 0.41154 0.2623 0.0
C766 C 0.11047 0.38027 0.26575 0.0
C767 C 0.13921 0.37022 0.25392 0.0
C768 C 0.14938 0.3926 0.23808 0.0
C769 C 0.13106 0.42484 0.2342 0.0
C770 C 0.1021 0.43439 0.2466 0.0
H771 H 0.54497 0.15105 0.25264 0.0
H772 H 0.61081 0.10453 0.2062 0.0
H773 H 0.64581 0.07331 0.23207 0.0
H774 H 0.61558 0.16228 0.29005 0.0
H775 H 0.58736 0.15055 0.31083 0.0
H776 H 0.56847 0.17119 0.2888 0.0
H777 H 0.52418 0.11873 0.285 0.0
H778 H 0.54281 0.09802 0.30704 0.0
H779 H 0.54099 0.07388 0.28371 0.0
H780 H 0.67148 0.04399 0.26256 0.0
H781 H 0.68596 0.0183 0.2957 0.0
H782 H 0.60445 0.08322 0.32311 0.0
C783 C 0.56673 0.13437 0.24783 0.0
C784 C 0.57502 0.1306 0.22716 0.0
C785 C 0.60405 0.10854 0.22178 0.0
C786 C 0.62409 0.09049 0.23643 0.0
C787 C 0.61507 0.0947 0.25654 0.0
C788 C 0.58714 0.11612 0.26231 0.0
C789 C 0.58241 0.11504 0.28498 0.0
C790 C 0.58884 0.15197 0.29421 0.0
C791 C 0.5454 0.10055 0.2905 0.0
C792 C 0.61166 0.08914 0.29101 0.0
C793 C 0.63022 0.07793 0.2743 0.0
C794 C 0.65734 0.05283 0.27574 0.0
C795 C 0.66536 0.03833 0.29462 0.0
C796 C 0.64655 0.04892 0.31197 0.0
C797 C 0.6197 0.07517 0.31016 0.0
H798 H 0.84683 0.53549 0.25795 0.0
H799 H 0.90278 0.59153 0.21066 0.0
H800 H 0.94021 0.62159 0.23588 0.0
H801 H 0.84594 0.6086 0.29305 0.0
H802 H 0.8529 0.58105 0.31488 0.0
H803 H 0.83064 0.56309 0.29314 0.0
H804 H 0.87671 0.51195 0.29166 0.0
H805 H 0.8991 0.52977 0.3134 0.0
H806 H 0.9235 0.52247 0.29057 0.0
H807 H 0.97228 0.64524 0.26591 0.0
H808 H -0.00464 0.66285 0.29917 0.0
H809 H 0.91864 0.59301 0.32767 0.0
C810 C 0.86704 0.55404 0.25297 0.0
C811 C 0.87155 0.56139 0.2323 0.0
C812 C 0.89824 0.58594 0.22637 0.0
C813 C 0.91989 0.60298 0.2406 0.0
C814 C 0.91459 0.59542 0.26081 0.0
C815 C 0.88877 0.57167 0.26707 0.0
C816 C 0.88836 0.56901 0.28983 0.0
C817 C 0.85231 0.58117 0.29821 0.0
C818 C 0.89746 0.53104 0.29677 0.0
C819 C 0.91788 0.59501 0.2953 0.0
C820 C 0.93279 0.60966 0.27828 0.0
C821 C 0.96079 0.63396 0.27935 0.0
C822 C 0.97386 0.64369 0.29831 0.0
C823 C 0.95885 0.62944 0.31604 0.0
C824 C 0.93041 0.60474 0.31443 0.0
H825 H 0.4089 0.88157 0.22391 0.0
H826 H 0.48676 0.80849 0.24859 0.0
H827 H 0.46542 0.8214 0.2828 0.0
H828 H 0.41837 0.94697 0.26219 0.0
H829 H 0.37197 0.95907 0.2628 0.0
H830 H 0.39106 0.94193 0.24006 0.0
H831 H 0.34327 0.89221 0.23896 0.0
H832 H 0.32393 0.90931 0.26166 0.0
H833 H 0.33767 0.86344 0.26038 0.0
H834 H 0.43722 0.84358 0.31447 0.0
H835 H 0.40556 0.87508 0.34147 0.0
H836 H 0.34666 0.93557 0.29687 0.0
C837 C 0.42089 0.86787 0.23653 0.0
C838 C 0.44936 0.84379 0.2336 0.0
C839 C 0.465 0.82701 0.25052 0.0
C840 C 0.45296 0.8341 0.26999 0.0
C841 C 0.42532 0.85836 0.27246 0.0
C842 C 0.40949 0.87511 0.25622 0.0
C843 C 0.38163 0.90159 0.26323 0.0
C844 C 0.39135 0.93964 0.25668 0.0
C845 C 0.34441 0.89099 0.25561 0.0
C846 C 0.38455 0.89728 0.28588 0.0
C847 C 0.40966 0.8719 0.29083 0.0
C848 C 0.41735 0.86338 0.31075 0.0
C849 C 0.39906 0.88132 0.32603 0.0
C850 C 0.37348 0.90784 0.32143 0.0
C851 C 0.3662 0.91569 0.30098 0.0
H852 H 0.09743 0.58135 0.82917 0.0
H853 H 0.18034 0.52079 0.79998 0.0
H854 H 0.16237 0.54582 0.76719 0.0
H855 H 0.03231 0.56825 0.79132 0.0
H856 H 0.01294 0.61197 0.79323 0.0
H857 H 0.03445 0.59221 0.81471 0.0
H858 H 0.07602 0.64702 0.8178 0.0
H859 H 0.05453 0.66704 0.79636 0.0
H860 H 0.10209 0.66074 0.7965 0.0
H861 H 0.1336 0.5749 0.73731 0.0
H862 H 0.09474 0.60431 0.71239 0.0
H863 H 0.02947 0.64558 0.76057 0.0
C864 C 0.11215 0.57403 0.81589 0.0
C865 C 0.1404 0.54928 0.81708 0.0
C866 C 0.15857 0.5396 0.79935 0.0
C867 C 0.14865 0.55381 0.78068 0.0
C868 C 0.12029 0.57761 0.7799 0.0
C869 C 0.10222 0.58765 0.797 0.0
C870 C 0.07121 0.61187 0.79176 0.0
C871 C 0.03563 0.59506 0.79813 0.0
C872 C 0.07628 0.64886 0.80116 0.0
C873 C 0.07445 0.61343 0.76907 0.0
C874 C 0.10319 0.59381 0.76257 0.0
C875 C 0.11116 0.59058 0.74224 0.0
C876 C 0.08899 0.60757 0.72816 0.0
C877 C 0.05893 0.62737 0.73439 0.0
C878 C 0.05198 0.63047 0.75521 0.0
H879 H 0.4526 0.14021 0.79011 0.0
H880 H 0.41083 0.07488 0.83822 0.0
H881 H 0.37823 0.03821 0.81351 0.0
H882 H 0.37288 0.14171 0.76103 0.0
H883 H 0.39465 0.1399 0.73702 0.0
H884 H 0.4173 0.15924 0.75823 0.0
H885 H 0.46991 0.11574 0.75322 0.0
H886 H 0.44731 0.09616 0.73201 0.0
H887 H 0.46152 0.06849 0.75265 0.0
H888 H 0.34827 0.01017 0.78415 0.0
H889 H 0.31954 -0.00557 0.75209 0.0
H890 H 0.37833 0.07833 0.72212 0.0
C891 C 0.43693 0.11786 0.79533 0.0
C892 C 0.43421 0.11037 0.81612 0.0
C893 C 0.41301 0.08129 0.82244 0.0
C894 C 0.39462 0.06015 0.80848 0.0
C895 C 0.39748 0.06843 0.78815 0.0
C896 C 0.41792 0.09666 0.78152 0.0
C897 C 0.41443 0.10097 0.75888 0.0
C898 C 0.39888 0.13763 0.75348 0.0
C899 C 0.45044 0.09498 0.74858 0.0
C900 C 0.38836 0.07117 0.75391 0.0
C901 C 0.37944 0.05252 0.77106 0.0
C902 C 0.35512 0.02454 0.77062 0.0
C903 C 0.33882 0.01587 0.75232 0.0
C904 C 0.34649 0.03514 0.73456 0.0
C905 C 0.37224 0.06276 0.73534 0.0
H906 H 0.9058 0.46065 0.8101 0.0
H907 H 0.82575 0.38179 0.82491 0.0
H908 H 0.84247 0.34701 0.79484 0.0
H909 H 0.89362 0.45915 0.75718 0.0
H910 H 0.94025 0.46424 0.75158 0.0
H911 H 0.9226 0.48207 0.77452 0.0
H912 H 0.96896 0.44608 0.79505 0.0
H913 H 0.98685 0.42821 0.77217 0.0
H914 H 0.97185 0.39857 0.79167 0.0
H915 H 0.86583 0.323 0.76169 0.0
H916 H 0.89686 0.30944 0.72991 0.0
H917 H 0.9626 0.40336 0.73764 0.0
C918 C 0.89178 0.43606 0.80702 0.0
C919 C 0.86432 0.42398 0.81979 0.0
C920 C 0.84701 0.39137 0.81541 0.0
C921 C 0.85622 0.37158 0.79832 0.0
C922 C 0.88309 0.38457 0.78589 0.0
C923 C 0.90089 0.41587 0.79019 0.0
C924 C 0.92886 0.42407 0.77454 0.0
C925 C 0.92083 0.45948 0.76383 0.0
C926 C 0.96635 0.42423 0.78392 0.0
C927 C 0.92381 0.39271 0.76058 0.0
C928 C 0.89716 0.37029 0.76729 0.0
C929 C 0.88693 0.34024 0.75642 0.0
C930 C 0.90453 0.33285 0.73834 0.0
C931 C 0.93227 0.3552 0.73138 0.0
C932 C 0.94193 0.38546 0.74274 0.0
H933 H 0.57385 0.84777 0.8095 0.0
H934 H 0.47451 0.90557 0.815 0.0
H935 H 0.48877 0.93996 0.78462 0.0
H936 H 0.62673 0.92246 0.79165 0.0
H937 H 0.65235 0.89625 0.77432 0.0
H938 H 0.63464 0.87596 0.79666 0.0
H939 H 0.6029 0.82836 0.77496 0.0
H940 H 0.62033 0.84865 0.75254 0.0
H941 H 0.57302 0.84225 0.75521 0.0
H942 H 0.51326 0.96867 0.754 0.0
H943 H 0.54736 0.99086 0.72501 0.0
H944 H 0.63112 0.91484 0.73781 0.0
C945 C 0.55528 0.86781 0.80432 0.0
C946 C 0.52282 0.87367 0.81461 0.0
C947 C 0.49915 0.90006 0.80727 0.0
C948 C 0.50711 0.9199 0.79003 0.0
C949 C 0.53889 0.91313 0.78007 0.0
C950 C 0.56271 0.88781 0.78689 0.0
C951 C 0.59496 0.88603 0.77314 0.0
C952 C 0.6292 0.89576 0.78463 0.0
C953 C 0.59797 0.84912 0.76339 0.0
C954 C 0.58553 0.91439 0.75766 0.0
C955 C 0.55302 0.92963 0.76207 0.0
C956 C 0.53873 0.95693 0.7504 0.0
C957 C 0.55832 0.96945 0.73399 0.0
C958 C 0.59187 0.95467 0.72916 0.0
C959 C 0.60539 0.92636 0.74103 0.0
H960 H 0.12701 0.14774 0.41253 0.0
H961 H 0.15432 0.17898 0.35179 0.0
H962 H 0.19003 0.12409 0.34824 0.0
H963 H 0.21084 0.10922 0.42565 0.0
H964 H 0.19145 0.07367 0.44015 0.0
H965 H 0.16857 0.11555 0.43782 0.0
H966 H 0.11276 0.08271 0.42419 0.0
H967 H 0.13557 0.04072 0.42632 0.0
H968 H 0.11679 0.05425 0.40258 0.0
H969 H 0.22268 0.06612 0.35148 0.0
H970 H 0.25215 0.01024 0.36162 0.0
H971 H 0.20132 0.01597 0.41983 0.0
C972 C 0.14019 0.14294 0.39838 0.0
C973 C 0.13768 0.16752 0.38235 0.0
C974 C 0.1561 0.16064 0.3643 0.0
C975 C 0.17617 0.12944 0.3621 0.0
C976 C 0.17745 0.1055 0.37809 0.0
C977 C 0.16007 0.11196 0.39591 0.0
C978 C 0.16599 0.08222 0.4109 0.0
C979 C 0.18537 0.09599 0.42974 0.0
C980 C 0.13067 0.06389 0.41631 0.0
C981 C 0.18955 0.05794 0.39875 0.0
C982 C 0.19582 0.07186 0.37987 0.0
C983 C 0.21785 0.05489 0.36618 0.0
C984 C 0.23446 0.02321 0.37209 0.0
C985 C 0.22883 0.00879 0.39147 0.0
C986 C 0.2056 0.0261 0.40482 0.0
H987 H 0.9428 0.21234 0.35811 0.0
H988 H 0.94656 0.24984 0.41967 0.0
H989 H 0.88786 0.22237 0.42588 0.0
H990 H 0.84823 0.22636 0.35048 0.0
H991 H 0.84282 0.18701 0.33534 0.0
H992 H 0.88477 0.21033 0.33559 0.0
H993 H 0.91715 0.15228 0.34608 0.0
H994 H 0.87537 0.12876 0.34578 0.0
H995 H 0.90261 0.12856 0.36811 0.0
H996 H 0.83042 0.18854 0.42578 0.0
H997 H 0.77843 0.15018 0.41966 0.0
H998 H 0.81062 0.13741 0.35757 0.0
C999 C 0.93132 0.21479 0.37291 0.0
C1000 C 0.94927 0.23312 0.38843 0.0
C1001 C 0.93325 0.23591 0.40755 0.0
C1002 C 0.89991 0.22048 0.41121 0.0
C1003 C 0.88291 0.20267 0.39555 0.0
C1004 C 0.898 0.19982 0.37678 0.0
C1005 C 0.87445 0.17879 0.36262 0.0
C1006 C 0.86182 0.20202 0.34496 0.0
C1007 C 0.89354 0.1451 0.35522 0.0
C1008 C 0.84401 0.16967 0.37648 0.0
C1009 C 0.84934 0.18384 0.39537 0.0
C1010 C 0.82566 0.17773 0.41097 0.0
C1011 C 0.79596 0.15612 0.40726 0.0
C1012 C 0.79005 0.14096 0.38804 0.0
C1013 C 0.8143 0.1484 0.37243 0.0
H1014 H 0.84484 0.78814 0.41506 0.0
H1015 H 0.86607 0.78498 0.35127 0.0
H1016 H 0.82952 0.83934 0.34641 0.0
H1017 H 0.7534 0.81611 0.41053 0.0
H1018 H 0.75539 0.8436 0.43264 0.0
H1019 H 0.78352 0.80502 0.43073 0.0
H1020 H 0.83899 0.84468 0.4371 0.0
H1021 H 0.81104 0.88345 0.4388 0.0
H1022 H 0.84709 0.88248 0.42106 0.0
H1023 H 0.79264 0.89593 0.34917 0.0
H1024 H 0.75236 0.94535 0.35858 0.0
H1025 H 0.75369 0.90854 0.42026 0.0
C1026 C 0.84166 0.79891 0.40008 0.0
C1027 C 0.85821 0.78275 0.38352 0.0
C1028 C 0.85332 0.79713 0.36408 0.0
C1029 C 0.83289 0.82802 0.36124 0.0
C1030 C 0.81733 0.84373 0.37798 0.0
C1031 C 0.82103 0.82927 0.39696 0.0
C1032 C 0.8007 0.85033 0.4124 0.0
C1033 C 0.77151 0.8274 0.42214 0.0
C1034 C 0.82597 0.86617 0.42827 0.0
C1035 C 0.78497 0.87901 0.39918 0.0
C1036 C 0.7952 0.87516 0.37942 0.0
C1037 C 0.78429 0.89905 0.36458 0.0
C1038 C 0.76166 0.92711 0.37005 0.0
C1039 C 0.74991 0.93049 0.39009 0.0
C1040 C 0.7621 0.90637 0.40479 0.0
H1041 H 0.04954 0.76157 0.36438 0.0
H1042 H 0.05637 0.71203 0.42316 0.0
H1043 H 0.11822 0.73357 0.42672 0.0
H1044 H 0.13875 0.74133 0.34916 0.0
H1045 H 0.14506 0.78289 0.33609 0.0
H1046 H 0.10112 0.76399 0.33818 0.0
H1047 H 0.0781 0.82218 0.35443 0.0
H1048 H 0.1218 0.84143 0.35208 0.0
H1049 H 0.10056 0.8397 0.37625 0.0
H1050 H 0.17886 0.76119 0.42404 0.0
H1051 H 0.23225 0.79681 0.41649 0.0
H1052 H 0.1869 0.82522 0.35859 0.0
C1053 C 0.06387 0.75558 0.37811 0.0
C1054 C 0.04813 0.73525 0.39353 0.0
C1055 C 0.06793 0.72762 0.41116 0.0
C1056 C 0.10311 0.73957 0.41328 0.0
C1057 C 0.11811 0.75884 0.39758 0.0
C1058 C 0.09907 0.76698 0.38039 0.0
C1059 C 0.12125 0.7884 0.36583 0.0
C1060 C 0.12687 0.76792 0.34615 0.0
C1061 C 0.10443 0.8251 0.36193 0.0
C1062 C 0.15558 0.79151 0.37765 0.0
C1063 C 0.15332 0.77408 0.39586 0.0
C1064 C 0.18111 0.77466 0.40974 0.0
C1065 C 0.21155 0.79467 0.4052 0.0
C1066 C 0.21394 0.81383 0.38691 0.0
C1067 C 0.18592 0.81114 0.37276 0.0
H1068 H 0.23335 0.91123 0.62699 0.0
H1069 H 0.23063 0.9604 0.68573 0.0
H1070 H 0.18949 0.91405 0.69756 0.0
H1071 H 0.13874 0.88695 0.62646 0.0
H1072 H 0.14624 0.84585 0.61325 0.0
H1073 H 0.17562 0.88316 0.6094 0.0
H1074 H 0.22947 0.84355 0.61906 0.0
H1075 H 0.2002 0.80628 0.62326 0.0
H1076 H 0.2298 0.82096 0.64294 0.0
H1077 H 0.1536 0.85969 0.70395 0.0
H1078 H 0.11628 0.80604 0.70322 0.0
H1079 H 0.13586 0.79546 0.63923 0.0
C1080 C 0.22369 0.91233 0.64226 0.0
C1081 C 0.23495 0.93948 0.65546 0.0
C1082 C 0.22187 0.94026 0.6753 0.0
C1083 C 0.19878 0.91379 0.68223 0.0
C1084 C 0.18855 0.88709 0.66898 0.0
C1085 C 0.19981 0.88655 0.64928 0.0
C1086 C 0.18353 0.85549 0.63802 0.0
C1087 C 0.1596 0.86866 0.62076 0.0
C1088 C 0.21249 0.83007 0.63037 0.0
C1089 C 0.16185 0.83847 0.65459 0.0
C1090 C 0.16566 0.85685 0.67237 0.0
C1091 C 0.14963 0.8455 0.69001 0.0
C1092 C 0.1282 0.81504 0.68937 0.0
C1093 C 0.12217 0.79666 0.67107 0.0
C1094 C 0.1398 0.80849 0.65353 0.0
H1095 H 0.15259 0.11401 0.68434 0.0
H1096 H 0.22799 0.19518 0.66607 0.0
H1097 H 0.1808 0.24077 0.66856 0.0
H1098 H 0.08154 0.14392 0.65678 0.0
H1099 H 0.04765 0.13424 0.67506 0.0
H1100 H 0.08825 0.10896 0.67497 0.0
H1101 H 0.09993 0.12551 0.71213 0.0
H1102 H 0.05905 0.15056 0.71245 0.0
H1103 H 0.10039 0.17166 0.71948 0.0
H1104 H 0.12417 0.27456 0.66705 0.0
H1105 H 0.06232 0.29649 0.66523 0.0
H1106 H 0.02365 0.19448 0.68646 0.0
C1107 C 0.15926 0.14157 0.68137 0.0
C1108 C 0.19375 0.15131 0.67506 0.0
C1109 C 0.20174 0.18743 0.67116 0.0
C1110 C 0.17513 0.21339 0.67248 0.0
C1111 C 0.14102 0.20272 0.67808 0.0
C1112 C 0.13315 0.1678 0.68286 0.0
C1113 C 0.09387 0.16292 0.68715 0.0
C1114 C 0.07685 0.13592 0.67262 0.0
C1115 C 0.08797 0.15203 0.70911 0.0
C1116 C 0.08059 0.20026 0.68318 0.0
C1117 C 0.10829 0.22277 0.67801 0.0
C1118 C 0.10238 0.25753 0.6716 0.0
C1119 C 0.06726 0.26962 0.67046 0.0
C1120 C 0.03864 0.24714 0.67593 0.0
C1121 C 0.04533 0.21225 0.68265 0.0
H1122 H 0.77033 0.04844 0.69292 0.0
H1123 H 0.68473 0.0789 0.65251 0.0
H1124 H 0.7111 0.13871 0.64898 0.0
H1125 H 0.78306 0.13574 0.71711 0.0
H1126 H 0.83084 0.13148 0.71781 0.0
H1127 H 0.80315 0.09233 0.71913 0.0
H1128 H 0.83586 0.06569 0.68849 0.0
H1129 H 0.86365 0.10466 0.68712 0.0
H1130 H 0.8381 0.09096 0.66551 0.0
H1131 H 0.74783 0.19375 0.64835 0.0
H1132 H 0.79561 0.23898 0.64834 0.0
H1133 H 0.85881 0.17239 0.68802 0.0
C1134 C 0.75692 0.06798 0.68363 0.0
C1135 C 0.72546 0.05932 0.67309 0.0
C1136 C 0.70895 0.08513 0.66068 0.0
C1137 C 0.72355 0.11921 0.65869 0.0
C1138 C 0.7548 0.12691 0.6691 0.0
C1139 C 0.77152 0.10201 0.68119 0.0
C1140 C 0.80658 0.11613 0.68919 0.0
C1141 C 0.80584 0.1191 0.71218 0.0
C1142 C 0.83788 0.09298 0.68215 0.0
C1143 C 0.80718 0.15252 0.6794 0.0
C1144 C 0.77674 0.15844 0.6682 0.0
C1145 C 0.77168 0.18963 0.65722 0.0
C1146 C 0.79883 0.21521 0.65738 0.0
C1147 C 0.83073 0.20916 0.66824 0.0
C1148 C 0.83463 0.17764 0.67961 0.0
H1149 H 0.86742 0.71931 0.65682 0.0
H1150 H 0.95221 0.76951 0.69114 0.0
H1151 H 0.91058 0.81657 0.7017 0.0
H1152 H 0.83022 0.79727 0.63811 0.0
H1153 H 0.78472 0.78215 0.63942 0.0
H1154 H 0.82009 0.75043 0.63649 0.0
H1155 H 0.79872 0.71688 0.66826 0.0
H1156 H 0.76329 0.74868 0.67134 0.0
H1157 H 0.79431 0.7407 0.69156 0.0
H1158 H 0.86178 0.86123 0.70554 0.0
H1159 H 0.80945 0.90065 0.70194 0.0
H1160 H 0.75644 0.82069 0.6657 0.0
C1161 C 0.87715 0.73988 0.66681 0.0
C1162 C 0.91303 0.74073 0.67318 0.0
C1163 C 0.92479 0.76829 0.6861 0.0
C1164 C 0.90131 0.79504 0.69225 0.0
C1165 C 0.86617 0.79361 0.68551 0.0
C1166 C 0.8541 0.76667 0.67313 0.0
C1167 C 0.81583 0.77257 0.66682 0.0
C1168 C 0.81255 0.77581 0.64386 0.0
C1169 C 0.79161 0.74294 0.67499 0.0
C1170 C 0.80857 0.80766 0.67706 0.0
C1171 C 0.83781 0.81917 0.68796 0.0
C1172 C 0.83849 0.85223 0.69737 0.0
C1173 C 0.80877 0.87442 0.69523 0.0
C1174 C 0.77892 0.86337 0.68379 0.0
C1175 C 0.77856 0.82928 0.675 0.0
H1176 H 0.65932 0.70347 0.90103 0.0
H1177 H 0.62896 0.68699 0.83902 0.0
H1178 H 0.66944 0.63481 0.83731 0.0
H1179 H 0.75335 0.67722 0.89589 0.0
H1180 H 0.75411 0.65633 0.92025 0.0
H1181 H 0.72525 0.69374 0.91563 0.0
H1182 H 0.67121 0.65612 0.92727 0.0
H1183 H 0.69975 0.61845 0.93161 0.0
H1184 H 0.66183 0.6143 0.91511 0.0
H1185 H 0.70841 0.58082 0.84396 0.0
H1186 H 0.74743 0.53305 0.85715 0.0
H1187 H 0.75294 0.58709 0.91454 0.0
C1188 C 0.66199 0.6893 0.88698 0.0
C1189 C 0.64164 0.69903 0.87007 0.0
C1190 C 0.64497 0.67989 0.85197 0.0
C1191 C 0.66765 0.65026 0.85095 0.0
C1192 C 0.6868 0.64068 0.86812 0.0
C1193 C 0.6846 0.66004 0.88569 0.0
C1194 C 0.70682 0.64375 0.90225 0.0
C1195 C 0.73666 0.66928 0.90888 0.0
C1196 C 0.6835 0.63249 0.92011 0.0
C1197 C 0.72153 0.61181 0.89141 0.0
C1198 C 0.7096 0.61029 0.87177 0.0
C1199 C 0.71832 0.58203 0.85921 0.0
C1200 C 0.74024 0.55495 0.86686 0.0
C1201 C 0.75331 0.55661 0.8868 0.0
C1202 C 0.7437 0.58538 0.89916 0.0
H1203 H 0.43497 0.72148 0.85466 0.0
H1204 H 0.4456 0.7538 0.91692 0.0
H1205 H 0.38645 0.72847 0.92414 0.0
H1206 H 0.34136 0.74064 0.84996 0.0
H1207 H 0.33209 0.70278 0.8342 0.0
H1208 H 0.37546 0.72334 0.83375 0.0
H1209 H 0.40496 0.66278 0.84224 0.0
H1210 H 0.36175 0.64199 0.84245 0.0
H1211 H 0.39053 0.63842 0.86407 0.0
H1212 H 0.32714 0.69885 0.92484 0.0
H1213 H 0.27287 0.66345 0.91951 0.0
H1214 H 0.29899 0.65302 0.85635 0.0
C1215 C 0.42499 0.72295 0.86985 0.0
C1216 C 0.44489 0.73954 0.88524 0.0
C1217 C 0.43078 0.74123 0.90488 0.0
C1218 C 0.39717 0.72705 0.90913 0.0
C1219 C 0.37795 0.7115 0.89354 0.0
C1220 C 0.39135 0.70918 0.87433 0.0
C1221 C 0.36534 0.69069 0.86039 0.0
C1222 C 0.35283 0.71588 0.84358 0.0
C1223 C 0.38162 0.65644 0.85179 0.0
C1224 C 0.33549 0.68252 0.87486 0.0
C1225 C 0.34324 0.69497 0.89387 0.0
C1226 C 0.32052 0.68931 0.90997 0.0
C1227 C 0.28947 0.66946 0.90671 0.0
C1228 C 0.28133 0.65557 0.88745 0.0
C1229 C 0.30438 0.66307 0.87127 0.0
H1230 H 0.35557 0.30397 0.90969 0.0
H1231 H 0.36536 0.30536 0.84498 0.0
H1232 H 0.32889 0.36044 0.84348 0.0
H1233 H 0.26445 0.33255 0.91104 0.0
H1234 H 0.27053 0.35832 0.93358 0.0
H1235 H 0.29793 0.31991 0.92915 0.0
H1236 H 0.35445 0.359 0.93331 0.0
H1237 H 0.32718 0.39765 0.93748 0.0
H1238 H 0.35989 0.39795 0.91779 0.0
H1239 H 0.29299 0.4165 0.84963 0.0
H1240 H 0.25402 0.46448 0.86224 0.0
H1241 H 0.26628 0.42368 0.92279 0.0
C1242 C 0.34992 0.31594 0.89522 0.0
C1243 C 0.36318 0.30093 0.87743 0.0
C1244 C 0.35515 0.31674 0.85871 0.0
C1245 C 0.33478 0.34801 0.85777 0.0
C1246 C 0.32254 0.36257 0.87569 0.0
C1247 C 0.32936 0.34668 0.89402 0.0
C1248 C 0.31202 0.36655 0.91103 0.0
C1249 C 0.2846 0.34292 0.92182 0.0
C1250 C 0.34007 0.38115 0.92577 0.0
C1251 C 0.29423 0.39618 0.89945 0.0
C1252 C 0.301 0.39383 0.87913 0.0
C1253 C 0.28741 0.41852 0.86549 0.0
C1254 C 0.26553 0.44576 0.8728 0.0
C1255 C 0.25718 0.44758 0.89346 0.0
C1256 C 0.27218 0.42279 0.90692 0.0
H1257 H 0.68287 0.351 0.85613 0.0
H1258 H 0.7116 0.33332 0.91864 0.0
H1259 H 0.66091 0.29275 0.92229 0.0
H1260 H 0.58918 0.35468 0.86483 0.0
H1261 H 0.5771 0.33269 0.84177 0.0
H1262 H 0.61764 0.35824 0.84322 0.0
H1263 H 0.65378 0.30326 0.8318 0.0
H1264 H 0.61333 0.27756 0.83025 0.0
H1265 H 0.64988 0.26207 0.84553 0.0
H1266 H 0.60697 0.25582 0.91994 0.0
H1267 H 0.55103 0.22498 0.91181 0.0
H1268 H 0.55387 0.26879 0.85147 0.0
C1269 C 0.67859 0.3386 0.87059 0.0
C1270 C 0.70184 0.34501 0.88697 0.0
C1271 C 0.69509 0.3281 0.90562 0.0
C1272 C 0.66608 0.30521 0.90795 0.0
C1273 C 0.64371 0.29972 0.89159 0.0
C1274 C 0.64939 0.31595 0.87329 0.0
C1275 C 0.62012 0.30657 0.85846 0.0
C1276 C 0.59981 0.34004 0.85168 0.0
C1277 C 0.63519 0.28615 0.84044 0.0
C1278 C 0.59706 0.28278 0.87141 0.0
C1279 C 0.61147 0.27904 0.8904 0.0
C1280 C 0.59538 0.25842 0.90512 0.0
C1281 C 0.56362 0.24098 0.90032 0.0
C1282 C 0.54812 0.24448 0.88099 0.0
C1283 C 0.56505 0.26578 0.86638 0.0
H1284 H 0.66373 0.30315 0.18965 0.0
H1285 H 0.67204 0.27897 0.12609 0.0
H1286 H 0.70893 0.33225 0.12133 0.0
H1287 H 0.64917 0.3938 0.18268 0.0
H1288 H 0.67358 0.40807 0.20458 0.0
H1289 H 0.65322 0.36469 0.20409 0.0
H1290 H 0.71406 0.33526 0.21198 0.0
H1291 H 0.73457 0.37863 0.21281 0.0
H1292 H 0.75183 0.34496 0.19629 0.0
H1293 H 0.73994 0.39068 0.12258 0.0
H1294 H 0.76449 0.45013 0.13006 0.0
H1295 H 0.73129 0.4394 0.19206 0.0
C1296 C 0.67353 0.30872 0.17474 0.0
C1297 C 0.66493 0.28647 0.1583 0.0
C1298 C 0.6788 0.29482 0.13909 0.0
C1299 C 0.69956 0.32534 0.13616 0.0
C1300 C 0.70606 0.3474 0.15251 0.0
C1301 C 0.69363 0.33945 0.17144 0.0
C1302 C 0.70177 0.36915 0.18611 0.0
C1303 C 0.66739 0.38485 0.19487 0.0
C1304 C 0.72707 0.35622 0.20278 0.0
C1305 C 0.72003 0.39538 0.17231 0.0
C1306 C 0.72266 0.38203 0.15307 0.0
C1307 C 0.73825 0.40135 0.13761 0.0
C1308 C 0.75199 0.43509 0.142 0.0
C1309 C 0.74956 0.4493 0.16161 0.0
C1310 C 0.73313 0.42928 0.1769 0.0
H1311 H 0.5532 0.7226 0.18913 0.0
H1312 H 0.53993 0.7504 0.12628 0.0
H1313 H 0.59488 0.71798 0.11814 0.0
H1314 H 0.64834 0.73252 0.19028 0.0
H1315 H 0.65569 0.6955 0.20702 0.0
H1316 H 0.61458 0.72004 0.2081 0.0
H1317 H 0.57874 0.66182 0.20266 0.0
H1318 H 0.61971 0.63706 0.20177 0.0
H1319 H 0.58838 0.63423 0.18127 0.0
H1320 H 0.65011 0.68242 0.11653 0.0
H1321 H 0.70319 0.64461 0.12164 0.0
H1322 H 0.68278 0.64163 0.18556 0.0
C1323 C 0.56173 0.72151 0.17365 0.0
C1324 C 0.54235 0.73887 0.15832 0.0
C1325 C 0.55449 0.73733 0.13826 0.0
C1326 C 0.58565 0.71902 0.13348 0.0
C1327 C 0.60447 0.70267 0.14895 0.0
C1328 C 0.59309 0.70366 0.16862 0.0
C1329 C 0.61872 0.68414 0.18236 0.0
C1330 C 0.63531 0.70958 0.19785 0.0
C1331 C 0.60029 0.65242 0.19261 0.0
C1332 C 0.64606 0.67185 0.16727 0.0
C1333 C 0.6372 0.68285 0.14809 0.0
C1334 C 0.65753 0.67383 0.13147 0.0
C1335 C 0.68752 0.65248 0.13449 0.0
C1336 C 0.6969 0.64075 0.15397 0.0
C1337 C 0.67627 0.6509 0.17059 0.0
H1338 H 0.28129 0.54995 0.13042 0.0
H1339 H 0.22458 0.55418 0.18693 0.0
H1340 H 0.25021 0.61366 0.19363 0.0
H1341 H 0.36067 0.59138 0.14686 0.0
H1342 H 0.36751 0.61575 0.12389 0.0
H1343 H 0.34376 0.57414 0.12345 0.0
H1344 H 0.29004 0.60518 0.10626 0.0
H1345 H 0.3136 0.64698 0.10672 0.0
H1346 H 0.27016 0.6435 0.11794 0.0
H1347 H 0.28523 0.67103 0.19498 0.0
H1348 H 0.32675 0.72162 0.19074 0.0
H1349 H 0.3563 0.68102 0.13221 0.0
C1350 C 0.27432 0.56337 0.14422 0.0
C1351 C 0.25122 0.54752 0.15822 0.0
C1352 C 0.2423 0.566 0.176 0.0
C1353 C 0.25664 0.59975 0.17992 0.0
C1354 C 0.27931 0.61472 0.16575 0.0
C1355 C 0.28788 0.5972 0.14821 0.0
C1356 C 0.3131 0.61882 0.1355 0.0
C1357 C 0.34834 0.59883 0.13225 0.0
C1358 C 0.29567 0.62924 0.11542 0.0
C1359 C 0.31817 0.65082 0.14889 0.0
C1360 C 0.29842 0.64813 0.16624 0.0
C1361 C 0.30048 0.6737 0.18133 0.0
C1362 C 0.32395 0.70242 0.17874 0.0
C1363 C 0.34492 0.70519 0.1612 0.0
C1364 C 0.34109 0.67945 0.14594 0.0
H1365 H 0.29605 0.33976 0.14962 0.0
H1366 H 0.31844 0.37739 0.20987 0.0
H1367 H 0.37621 0.3456 0.20944 0.0
H1368 H 0.33389 0.25235 0.1556 0.0
H1369 H 0.35069 0.25158 0.13033 0.0
H1370 H 0.31134 0.2768 0.13604 0.0
H1371 H 0.34108 0.33329 0.12116 0.0
H1372 H 0.38078 0.30839 0.11574 0.0
H1373 H 0.38346 0.34794 0.13093 0.0
H1374 H 0.43231 0.3097 0.20172 0.0
H1375 H 0.47934 0.27023 0.18826 0.0
H1376 H 0.41826 0.25797 0.13326 0.0
C1377 C 0.31265 0.34073 0.16294 0.0
C1378 C 0.30265 0.36071 0.17985 0.0
C1379 C 0.32569 0.36219 0.19673 0.0
C1380 C 0.35849 0.34428 0.19661 0.0
C1381 C 0.36773 0.32526 0.17948 0.0
C1382 C 0.34526 0.32326 0.16304 0.0
C1383 C 0.36109 0.30143 0.14638 0.0
C1384 C 0.33788 0.26859 0.14184 0.0
C1385 C 0.36695 0.32413 0.12744 0.0
C1386 C 0.39597 0.29114 0.15601 0.0
C1387 C 0.39961 0.30518 0.17505 0.0
C1388 C 0.42972 0.2986 0.18682 0.0
C1389 C 0.45634 0.27637 0.17903 0.0
C1390 C 0.45235 0.26107 0.15975 0.0
C1391 C 0.42208 0.2692 0.14807 0.0
H1392 H -0.00533 0.27289 0.47502 0.0
H1393 H 0.08917 0.33785 0.48268 0.0
H1394 H 0.0758 0.3448 0.51863 0.0
H1395 H 0.93857 0.32115 0.51118 0.0
H1396 H 0.91753 0.28117 0.5203 0.0
H1397 H 0.93305 0.28338 0.4948 0.0
H1398 H 0.97099 0.22682 0.50081 0.0
H1399 H 0.95585 0.22463 0.52637 0.0
H1400 H 0.00286 0.2261 0.52111 0.0
H1401 H 0.05432 0.34245 0.55384 0.0
H1402 H 0.02455 0.33296 0.58619 0.0
H1403 H 0.9444 0.26795 0.55654 0.0
C1404 C 0.01201 0.28912 0.48426 0.0
C1405 C 0.04296 0.30486 0.47614 0.0
C1406 C 0.0655 0.3254 0.4887 0.0
C1407 C 0.05808 0.32956 0.5091 0.0
C1408 C 0.02797 0.31295 0.51681 0.0
C1409 C 0.00512 0.2933 0.50483 0.0
C1410 C 0.97539 0.27713 0.51723 0.0
C1411 C 0.93898 0.29158 0.51048 0.0
C1412 C 0.97635 0.23624 0.51632 0.0
C1413 C 0.98536 0.29058 0.53799 0.0
C1414 C 0.01574 0.31125 0.53734 0.0
C1415 C 0.03046 0.32632 0.55456 0.0
C1416 C 0.0135 0.32044 0.57296 0.0
C1417 C 0.98211 0.29954 0.57409 0.0
C1418 C 0.9681 0.28434 0.55626 0.0
H1419 H 0.72929 0.95612 0.56539 0.0
H1420 H 0.63045 0.00797 0.58124 0.0
H1421 H 0.62194 0.02629 0.5458 0.0
H1422 H 0.75778 0.02225 0.52923 0.0
H1423 H 0.7774 0.98982 0.51276 0.0
H1424 H 0.77532 0.98129 0.53931 0.0
H1425 H 0.74208 0.92204 0.53239 0.0
H1426 H 0.74383 0.93052 0.50582 0.0
H1427 H 0.7016 0.92255 0.51775 0.0
H1428 H 0.62316 0.03606 0.50758 0.0
H1429 H 0.63719 0.04157 0.47133 0.0
H1430 H 0.7361 0.98495 0.48129 0.0
C1431 C 0.70589 0.9714 0.5614 0.0
C1432 C 0.6805 0.98057 0.57609 0.0
C1433 C 0.65042 0.00095 0.5703 0.0
C1434 C 0.64526 0.01123 0.55016 0.0
C1435 C 0.67062 0.00128 0.53599 0.0
C1436 C 0.7006 0.98222 0.54147 0.0
C1437 C 0.72431 0.97539 0.52357 0.0
C1438 C 0.76086 0.99326 0.52639 0.0
C1439 C 0.72816 0.93524 0.51966 0.0
C1440 C 0.70296 0.99333 0.50709 0.0
C1441 C 0.67188 0.00785 0.51443 0.0
C1442 C 0.64759 0.02499 0.50175 0.0
C1443 C 0.65561 0.02782 0.48117 0.0
C1444 C 0.68784 0.014 0.4735 0.0
C1445 C 0.71152 -0.00369 0.48673 0.0
H1446 H 0.95407 0.72155 0.57272 0.0
H1447 H 0.0421 0.64965 0.58359 0.0
H1448 H 0.04286 0.63401 0.54744 0.0
H1449 H 0.90883 0.66585 0.537 0.0
H1450 H 0.89358 0.70267 0.52188 0.0
H1451 H 0.90112 0.70865 0.54835 0.0
H1452 H 0.94423 0.76085 0.54079 0.0
H1453 H 0.93696 0.7549 0.51428 0.0
H1454 H 0.98154 0.75368 0.52438 0.0
H1455 H 0.03474 0.6282 0.50931 0.0
H1456 H 0.01426 0.6277 0.47383 0.0
H1457 H 0.92976 0.70108 0.48884 0.0
C1458 C 0.97364 0.70268 0.56745 0.0
C1459 C -0.00175 0.68701 0.5809 0.0
C1460 C 0.02297 0.66185 0.57353 0.0
C1461 C 0.02371 0.65302 0.55302 0.0
C1462 C -0.00079 0.66924 0.54012 0.0
C1463 C 0.97432 0.69318 0.54715 0.0
C1464 C 0.94987 0.7058 0.53049 0.0
C1465 C 0.91106 0.69509 0.53468 0.0
C1466 C 0.95338 0.74621 0.5273 0.0
C1467 C 0.96485 0.68536 0.5129 0.0
C1468 C 0.99362 0.66475 0.51863 0.0
C1469 C 0.01212 0.64411 0.50474 0.0
C1470 C 0.0005 0.64412 0.48462 0.0
C1471 C 0.97036 0.66416 0.47866 0.0
C1472 C 0.95264 0.6852 0.49303 0.0
H1473 H 0.31166 0.98041 0.57489 0.0
H1474 H 0.25477 0.07922 0.56485 0.0
H1475 H 0.2513 0.06631 0.5287 0.0
H1476 H 0.36368 0.98361 0.53054 0.0
H1477 H 0.36132 0.93658 0.52541 0.0
H1478 H 0.35792 0.95235 0.55082 0.0
H1479 H 0.29754 0.91976 0.55479 0.0
H1480 H 0.30096 0.90357 0.52945 0.0
H1481 H 0.2622 0.92827 0.53703 0.0
H1482 H 0.25711 0.0448 0.49312 0.0
H1483 H 0.26739 0.0131 0.46113 0.0
H1484 H 0.31976 0.92797 0.49386 0.0
C1485 C 0.29787 -0.00111 0.56511 0.0
C1486 C 0.28371 0.03099 0.57276 0.0
C1487 C 0.26628 0.05473 0.55936 0.0
C1488 C 0.26407 0.0476 0.53876 0.0
C1489 C 0.27924 0.01641 0.53159 0.0
C1490 C 0.29541 0.99216 0.54435 0.0
C1491 C 0.30999 0.96089 0.53257 0.0
C1492 C 0.35064 0.95822 0.53499 0.0
C1493 C 0.29157 0.92606 0.53883 0.0
C1494 C 0.2997 0.97157 0.51131 0.0
C1495 C 0.28209 0.00375 0.51107 0.0
C1496 C 0.27067 0.01941 0.49313 0.0
C1497 C 0.27687 0.0014 0.475 0.0
C1498 C 0.29415 0.96795 0.47489 0.0
C1499 C 0.30593 0.95319 0.49338 0.0
H1500 H 0.48879 0.78977 0.97133 0.0
H1501 H 0.59236 0.83957 0.97833 0.0
H1502 H 0.58178 0.84672 1.01447 0.0
H1503 H 0.4427 0.84539 1.00821 0.0
H1504 H 0.41564 0.80934 1.0175 0.0
H1505 H 0.43061 0.80912 0.99186 0.0
H1506 H 0.45899 0.74711 0.99747 0.0
H1507 H 0.44429 0.74725 1.02314 0.0
H1508 H 0.49076 0.74104 1.01754 0.0
H1509 H 0.56149 0.84682 0.05007 0.0
H1510 H 0.53144 0.84203 0.08271 0.0
H1511 H 0.44074 0.79189 0.05356 0.0
C1512 C 0.50896 0.80256 0.98047 0.0
C1513 C 0.54159 0.81378 0.97194 0.0
C1514 C 0.56745 0.83016 0.98448 0.0
C1515 C 0.56163 0.83453 1.00507 0.0
C1516 C 0.52968 0.8225 1.01309 0.0
C1517 C 0.50361 0.80704 1.00123 0.0
C1518 C 0.47195 0.79591 1.01393 0.0
C1519 C 0.43823 0.81615 1.00749 0.0
C1520 C 0.46617 0.75542 1.01295 0.0
C1521 C 0.48447 0.8074 0.03467 0.0
C1522 C 0.51786 0.82266 0.03379 0.0
C1523 C 0.53528 0.83494 0.05096 0.0
C1524 C 0.51805 0.83184 0.06952 0.0
C1525 C 0.48362 0.81655 0.07092 0.0
C1526 C 0.46682 0.8041 0.05312 0.0
H1527 H 0.24176 0.47203 0.0683 0.0
H1528 H 0.13168 0.49299 0.08336 0.0
H1529 H 0.1207 0.51422 0.04862 0.0
H1530 H 0.25385 0.54816 0.03551 0.0
H1531 H 0.28212 0.52416 1.01848 0.0
H1532 H 0.28104 0.51202 0.04461 0.0
H1533 H 0.26482 0.4472 0.03489 0.0
H1534 H 0.26572 0.45916 1.00874 0.0
H1535 H 0.2264 0.43903 1.01924 0.0
H1536 H 0.12153 0.52958 1.01105 0.0
H1537 H 0.13506 0.54155 0.97531 0.0
H1538 H 0.24481 0.51087 0.98574 0.0
C1539 C 0.21533 0.48109 0.06432 0.0
C1540 C 0.1875 0.48067 0.07853 0.0
C1541 C 0.15344 0.49333 0.07277 0.0
C1542 C 0.14695 0.50523 0.05305 0.0
C1543 C 0.17492 0.50466 0.03932 0.0
C1544 C 0.20853 0.49326 0.04484 0.0
C1545 C 0.23415 0.49507 0.02741 0.0
C1546 C 0.26458 0.52143 0.03177 0.0
C1547 C 0.24861 0.4579 1.02227 0.0
C1548 C 0.2097 0.50886 1.01107 0.0
C1549 C 0.17558 0.51417 1.01813 0.0
C1550 C 0.14825 0.52576 1.00546 0.0
C1551 C 0.1561 0.5323 0.98515 0.0
C1552 C 0.19105 0.52747 0.97772 0.0
C1553 C 0.21801 0.51553 0.99098 0.0
H1554 H 0.49602 0.24134 0.06443 0.0
H1555 H 0.558 0.14552 0.0734 0.0
H1556 H 0.55103 0.13082 0.03727 0.0
H1557 H 0.43289 0.20251 0.03011 0.0
H1558 H 0.42843 0.24245 1.0153 0.0
H1559 H 0.43967 0.24547 0.04152 0.0
H1560 H 0.49596 0.28209 0.0326 0.0
H1561 H 0.48503 0.27892 1.00633 0.0
H1562 H 0.52785 0.264 1.01528 0.0
H1563 H 0.53841 0.12828 0.99923 0.0
H1564 H 0.51516 0.13412 0.9644 0.0
H1565 H 0.45891 0.22981 0.98138 0.0
C1566 C 0.50828 0.21736 0.05875 0.0
C1567 C 0.52786 0.1947 0.07165 0.0
C1568 C 0.54286 0.16316 0.06376 0.0
C1569 C 0.53921 0.15479 0.04325 0.0
C1570 C 0.52002 0.17797 0.03087 0.0
C1571 C 0.50434 0.20834 0.03846 0.0
C1572 C 0.48359 0.22804 1.02238 0.0
C1573 C 0.44379 0.22969 0.02764 0.0
C1574 C 0.49904 0.26548 1.01895 0.0
C1575 C 0.49006 0.20419 1.00447 0.0
C1576 C 0.51156 0.17569 1.00951 0.0
C1577 C 0.52145 0.15044 0.99521 0.0
C1578 C 0.50839 0.15406 0.97544 0.0
C1579 C 0.48525 0.18236 0.97024 0.0
C1580 C 0.47642 0.20782 0.98498 0.0
H1581 H 0.76147 0.50801 0.98197 0.0
H1582 H 0.8466 0.43158 0.97484 0.0
H1583 H 0.86106 0.4367 1.01112 0.0
H1584 H 0.80849 0.56483 1.0158 0.0
H1585 H 0.76954 0.57595 0.03016 0.0
H1586 H 0.76513 0.56439 1.00408 0.0
H1587 H 0.72014 0.51472 1.01339 0.0
H1588 H 0.72459 0.526 0.03954 0.0
H1589 H 0.73283 0.48108 0.03136 0.0
H1590 H 0.86493 0.45001 0.04888 0.0
H1591 H 0.86255 0.47554 0.08323 0.0
H1592 H 0.77714 0.5454 0.06445 0.0
C1593 C 0.78292 0.49209 0.98811 0.0
C1594 C 0.8027 0.46908 0.97571 0.0
C1595 C 0.83118 0.44934 0.98414 0.0
C1596 C 0.83937 0.45194 1.00472 0.0
C1597 C 0.81911 0.47477 1.01658 0.0
C1598 C 0.79178 0.49486 1.00845 0.0
C1599 C 0.7753 0.51899 1.02399 0.0
C1600 C 0.77991 0.55837 1.01816 0.0
C1601 C 0.73588 0.50962 0.02726 0.0
C1602 C 0.79761 0.5095 0.04217 0.0
C1603 C 0.82238 0.48353 0.03777 0.0
C1604 C 0.84569 0.47043 0.05242 0.0
C1605 C 0.84405 0.48483 0.07188 0.0
C1606 C 0.81978 0.51242 0.07636 0.0
C1607 C 0.79609 0.52447 0.06133 0.0
loop_
_geom_bond_atom_site_label_1
_geom_bond_atom_site_label_2
_geom_bond_distance
_geom_bond_site_symmetry_2
_ccdc_geom_bond_type
Co0 N4 2.148 . S
Co0 N10 2.128 . S
Co0 N20 2.194 . S
Co0 O25 2.351 . S
Co0 O26 2.155 . S
Co0 O27 2.096 1_455 S
C1 N4 1.301 . S
C1 N5 1.328 . S
C1 H6 0.930 . S
C2 C3 1.333 . S
C2 N4 1.317 . S
C2 H7 0.930 1_455 S
C3 C2 1.333 . S
C3 N5 1.350 . S
C3 H29 0.931 . S
N4 Co0 2.148 . S
N4 C1 1.301 . S
N4 C2 1.317 . S
N5 C1 1.328 . S
N5 C3 1.350 . S
H6 C1 0.930 . S
H7 C2 0.930 1_655 S
C8 O9 1.218 1_655 S
C8 O27 1.247 . S
O9 C8 1.218 1_455 S
N10 Co0 2.128 . S
N10 C11 1.355 . S
N10 C13 1.311 . S
C11 N10 1.355 . S
C11 C12 1.363 . S
C11 H23 0.929 . S
C12 C11 1.363 . S
C12 N14 1.375 . S
C12 H30 0.931 . S
C13 N10 1.311 . S
C13 N14 1.347 . S
C13 H24 0.929 1_455 S
N14 C12 1.375 . S
N14 C13 1.347 . S
C15 C18 1.365 . S
C15 N20 1.328 . S
C15 H21 0.929 . S
C16 C17 1.362 . S
C16 C19 1.378 . S
C16 H31 0.929 . S
C17 C16 1.362 . S
C17 C18 1.366 . S
C18 C15 1.365 . S
C18 C17 1.366 . S
C18 H32 0.930 . S
C19 C16 1.378 . S
C19 N20 1.315 . S
C19 H22 0.930 . S
N20 Co0 2.194 . S
N20 C15 1.328 . S
N20 C19 1.315 . S
H21 C15 0.929 . S
H22 C19 0.930 . S
H23 C11 0.929 . S
H24 C13 0.929 1_655 S
O25 Co0 2.351 . S
O25 C28 1.244 . S
O26 Co0 2.155 . S
O26 C28 1.240 . S
O27 Co0 2.096 1_655 S
O27 C8 1.247 . S
C28 O25 1.244 . S
C28 O26 1.240 . S
H29 C3 0.931 . S
H30 C12 0.931 . S
H31 C16 0.929 . S
H32 C18 0.930 . S
Co33 N37 2.148 . S
Co33 N43 2.128 . S
Co33 N53 2.194 . S
Co33 O58 2.351 . S
Co33 O59 2.155 . S
Co33 O60 2.096 1_545 S
C34 N37 1.301 . S
C34 N38 1.328 . S
C34 H39 0.930 . S
C35 C36 1.333 . S
C35 N37 1.317 . S
C35 H40 0.930 1_545 S
C36 C35 1.333 . S
C36 N38 1.350 . S
C36 H62 0.931 . S
N37 Co33 2.148 . S
N37 C34 1.301 . S
N37 C35 1.317 . S
N38 C34 1.328 . S
N38 C36 1.350 . S
H39 C34 0.930 . S
H40 C35 0.930 1_565 S
C41 O42 1.218 1_565 S
C41 O60 1.247 . S
O42 C41 1.218 1_545 S
N43 Co33 2.128 . S
N43 C44 1.355 . S
N43 C46 1.311 . S
C44 N43 1.355 . S
C44 C45 1.363 . S
C44 H56 0.929 . S
C45 C44 1.363 . S
C45 N47 1.375 . S
C45 H63 0.931 . S
C46 N43 1.311 . S
C46 N47 1.347 . S
C46 H57 0.929 1_545 S
N47 C45 1.375 . S
N47 C46 1.347 . S
C48 C51 1.365 . S
C48 N53 1.328 . S
C48 H54 0.929 . S
C49 C50 1.362 . S
C49 C52 1.378 . S
C49 H64 0.929 . S
C50 C49 1.362 . S
C50 C51 1.366 . S
C51 C48 1.365 . S
C51 C50 1.366 . S
C51 H65 0.930 . S
C52 C49 1.378 . S
C52 N53 1.315 . S
C52 H55 0.930 . S
N53 Co33 2.194 . S
N53 C48 1.328 . S
N53 C52 1.315 . S
H54 C48 0.929 . S
H55 C52 0.930 . S
H56 C44 0.929 . S
H57 C46 0.929 1_565 S
O58 Co33 2.351 . S
O58 C61 1.244 . S
O59 Co33 2.155 . S
O59 C61 1.240 . S
O60 Co33 2.096 1_565 S
O60 C41 1.247 . S
C61 O58 1.244 . S
C61 O59 1.240 . S
H62 C36 0.931 . S
H63 C45 0.931 . S
H64 C49 0.929 . S
H65 C51 0.930 . S
Co66 N70 2.148 . S
Co66 N76 2.128 . S
Co66 N86 2.194 . S
Co66 O91 2.351 . S
Co66 O92 2.155 . S
Co66 O93 2.096 1_655 S
C67 N70 1.301 . S
C67 N71 1.328 . S
C67 H72 0.930 . S
C68 C69 1.333 . S
C68 N70 1.317 . S
C68 H73 0.930 1_655 S
C69 C68 1.333 . S
C69 N71 1.350 . S
C69 H95 0.931 . S
N70 Co66 2.148 . S
N70 C67 1.301 . S
N70 C68 1.317 . S
N71 C67 1.328 . S
N71 C69 1.350 . S
H72 C67 0.930 . S
H73 C68 0.930 1_455 S
C74 O75 1.218 1_455 S
C74 O93 1.247 . S
O75 C74 1.218 1_655 S
N76 Co66 2.128 . S
N76 C77 1.355 . S
N76 C79 1.311 . S
C77 N76 1.355 . S
C77 C78 1.363 . S
C77 H89 0.929 . S
C78 C77 1.363 . S
C78 N80 1.375 . S
C78 H96 0.931 . S
C79 N76 1.311 . S
C79 N80 1.347 . S
C79 H90 0.929 1_655 S
N80 C78 1.375 . S
N80 C79 1.347 . S
C81 C84 1.365 . S
C81 N86 1.328 . S
C81 H87 0.929 . S
C82 C83 1.362 . S
C82 C85 1.378 . S
C82 H97 0.929 . S
C83 C82 1.362 . S
C83 C84 1.366 . S
C84 C81 1.365 . S
C84 C83 1.366 . S
C84 H98 0.930 . S
C85 C82 1.378 . S
C85 N86 1.315 . S
C85 H88 0.930 . S
N86 Co66 2.194 . S
N86 C81 1.328 . S
N86 C85 1.315 . S
H87 C81 0.929 . S
H88 C85 0.930 . S
H89 C77 0.929 . S
H90 C79 0.929 1_455 S
O91 Co66 2.351 . S
O91 C94 1.244 . S
O92 Co66 2.155 . S
O92 C94 1.240 . S
O93 Co66 2.096 1_455 S
O93 C74 1.247 . S
C94 O91 1.244 . S
C94 O92 1.240 . S
H95 C69 0.931 . S
H96 C78 0.931 . S
H97 C82 0.929 . S
H98 C84 0.930 . S
Co99 N103 2.148 . S
Co99 N109 2.128 . S
Co99 N119 2.194 . S
Co99 O124 2.351 . S
Co99 O125 2.155 . S
Co99 O126 2.096 1_565 S
C100 N103 1.301 . S
C100 N104 1.328 . S
C100 H105 0.930 . S
C101 C102 1.333 . S
C101 N103 1.317 . S
C101 H106 0.930 1_565 S
C102 C101 1.333 . S
C102 N104 1.350 . S
C102 H128 0.931 . S
N103 Co99 2.148 . S
N103 C100 1.301 . S
N103 C101 1.317 . S
N104 C100 1.328 . S
N104 C102 1.350 . S
H105 C100 0.930 . S
H106 C101 0.930 1_545 S
C107 O108 1.218 1_545 S
C107 O126 1.247 . S
O108 C107 1.218 1_565 S
N109 Co99 2.128 . S
N109 C110 1.355 . S
N109 C112 1.311 . S
C110 N109 1.355 . S
C110 C111 1.363 . S
C110 H122 0.929 . S
C111 C110 1.363 . S
C111 N113 1.375 . S
C111 H129 0.931 . S
C112 N109 1.311 . S
C112 N113 1.347 . S
C112 H123 0.929 1_565 S
N113 C111 1.375 . S
N113 C112 1.347 . S
C114 C117 1.365 . S
C114 N119 1.328 . S
C114 H120 0.929 . S
C115 C116 1.362 . S
C115 C118 1.378 . S
C115 H130 0.929 . S
C116 C115 1.362 . S
C116 C117 1.366 . S
C117 C114 1.365 . S
C117 C116 1.366 . S
C117 H131 0.930 . S
C118 C115 1.378 . S
C118 N119 1.315 . S
C118 H121 0.930 . S
N119 Co99 2.194 . S
N119 C114 1.328 . S
N119 C118 1.315 . S
H120 C114 0.929 . S
H121 C118 0.930 . S
H122 C110 0.929 . S
H123 C112 0.929 1_545 S
O124 Co99 2.351 . S
O124 C127 1.244 . S
O125 Co99 2.155 . S
O125 C127 1.240 . S
O126 Co99 2.096 1_545 S
O126 C107 1.247 . S
C127 O124 1.244 . S
C127 O125 1.240 . S
H128 C102 0.931 . S
H129 C111 0.931 . S
H130 C115 0.929 . S
H131 C117 0.930 . S
Co132 N136 2.148 . S
Co132 N142 2.128 . S
Co132 N152 2.194 . S
Co132 O157 2.351 . S
Co132 O158 2.155 . S
Co132 O159 2.096 1_455 S
C133 N136 1.301 . S
C133 N137 1.328 . S
C133 H138 0.930 . S
C134 C135 1.333 . S
C134 N136 1.317 . S
C134 H139 0.930 1_455 S
C135 C134 1.333 . S
C135 N137 1.350 . S
C135 H161 0.931 . S
N136 Co132 2.148 . S
N136 C133 1.301 . S
N136 C134 1.317 . S
N137 C133 1.328 . S
N137 C135 1.350 . S
H138 C133 0.930 . S
H139 C134 0.930 1_655 S
C140 O141 1.218 1_655 S
C140 O159 1.247 . S
O141 C140 1.218 1_455 S
N142 Co132 2.128 . S
N142 C143 1.355 . S
N142 C145 1.311 . S
C143 N142 1.355 . S
C143 C144 1.363 . S
C143 H155 0.929 . S
C144 C143 1.363 . S
C144 N146 1.375 . S
C144 H162 0.931 . S
C145 N142 1.311 . S
C145 N146 1.347 . S
C145 H156 0.929 1_455 S
N146 C144 1.375 . S
N146 C145 1.347 . S
C147 C150 1.365 . S
C147 N152 1.328 . S
C147 H153 0.929 . S
C148 C149 1.362 . S
C148 C151 1.378 . S
C148 H163 0.929 . S
C149 C148 1.362 . S
C149 C150 1.366 . S
C150 C147 1.365 . S
C150 C149 1.366 . S
C150 H164 0.930 . S
C151 C148 1.378 . S
C151 N152 1.315 . S
C151 H154 0.930 . S
N152 Co132 2.194 . S
N152 C147 1.328 . S
N152 C151 1.315 . S
H153 C147 0.929 . S
H154 C151 0.930 . S
H155 C143 0.929 . S
H156 C145 0.929 1_655 S
O157 Co132 2.351 . S
O157 C160 1.244 . S
O158 Co132 2.155 . S
O158 C160 1.240 . S
O159 Co132 2.096 1_655 S
O159 C140 1.247 . S
C160 O157 1.244 . S
C160 O158 1.240 . S
H161 C135 0.931 . S
H162 C144 0.931 . S
H163 C148 0.929 . S
H164 C150 0.930 . S
Co165 N169 2.148 . S
Co165 N175 2.128 . S
Co165 N185 2.194 . S
Co165 O190 2.351 . S
Co165 O191 2.155 . S
Co165 O192 2.096 1_545 S
C166 N169 1.301 . S
C166 N170 1.328 . S
C166 H171 0.930 . S
C167 C168 1.333 . S
C167 N169 1.317 . S
C167 H172 0.930 1_545 S
C168 C167 1.333 . S
C168 N170 1.350 . S
C168 H194 0.931 . S
N169 Co165 2.148 . S
N169 C166 1.301 . S
N169 C167 1.317 . S
N170 C166 1.328 . S
N170 C168 1.350 . S
H171 C166 0.930 . S
H172 C167 0.930 1_565 S
C173 O174 1.218 1_565 S
C173 O192 1.247 . S
O174 C173 1.218 1_545 S
N175 Co165 2.128 . S
N175 C176 1.355 . S
N175 C178 1.311 . S
C176 N175 1.355 . S
C176 C177 1.363 . S
C176 H188 0.929 . S
C177 C176 1.363 . S
C177 N179 1.375 . S
C177 H195 0.931 . S
C178 N175 1.311 . S
C178 N179 1.347 . S
C178 H189 0.929 1_545 S
N179 C177 1.375 . S
N179 C178 1.347 . S
C180 C183 1.365 . S
C180 N185 1.328 . S
C180 H186 0.929 . S
C181 C182 1.362 . S
C181 C184 1.378 . S
C181 H196 0.929 . S
C182 C181 1.362 . S
C182 C183 1.366 . S
C183 C180 1.365 . S
C183 C182 1.366 . S
C183 H197 0.930 . S
C184 C181 1.378 . S
C184 N185 1.315 . S
C184 H187 0.930 . S
N185 Co165 2.194 . S
N185 C180 1.328 . S
N185 C184 1.315 . S
H186 C180 0.929 . S
H187 C184 0.930 . S
H188 C176 0.929 . S
H189 C178 0.929 1_565 S
O190 Co165 2.351 . S
O190 C193 1.244 . S
O191 Co165 2.155 . S
O191 C193 1.240 . S
O192 Co165 2.096 1_565 S
O192 C173 1.247 . S
C193 O190 1.244 . S
C193 O191 1.240 . S
H194 C168 0.931 . S
H195 C177 0.931 . S
H196 C181 0.929 . S
H197 C183 0.930 . S
Co198 N202 2.148 . S
Co198 N208 2.128 . S
Co198 N218 2.194 . S
Co198 O223 2.351 . S
Co198 O224 2.155 . S
Co198 O225 2.096 1_655 S
C199 N202 1.301 . S
C199 N203 1.328 . S
C199 H204 0.930 . S
C200 C201 1.333 . S
C200 N202 1.317 . S
C200 H205 0.930 1_655 S
C201 C200 1.333 . S
C201 N203 1.350 . S
C201 H227 0.931 . S
N202 Co198 2.148 . S
N202 C199 1.301 . S
N202 C200 1.317 . S
N203 C199 1.328 . S
N203 C201 1.350 . S
H204 C199 0.930 . S
H205 C200 0.930 1_455 S
C206 O207 1.218 1_455 S
C206 O225 1.247 . S
O207 C206 1.218 1_655 S
N208 Co198 2.128 . S
N208 C209 1.355 . S
N208 C211 1.311 . S
C209 N208 1.355 . S
C209 C210 1.363 . S
C209 H221 0.929 . S
C210 C209 1.363 . S
C210 N212 1.375 . S
C210 H228 0.931 . S
C211 N208 1.311 . S
C211 N212 1.347 . S
C211 H222 0.929 1_655 S
N212 C210 1.375 . S
N212 C211 1.347 . S
C213 C216 1.365 . S
C213 N218 1.328 . S
C213 H219 0.929 . S
C214 C215 1.362 . S
C214 C217 1.378 . S
C214 H229 0.929 . S
C215 C214 1.362 . S
C215 C216 1.366 . S
C216 C213 1.365 . S
C216 C215 1.366 . S
C216 H230 0.930 . S
C217 C214 1.378 . S
C217 N218 1.315 . S
C217 H220 0.930 . S
N218 Co198 2.194 . S
N218 C213 1.328 . S
N218 C217 1.315 . S
H219 C213 0.929 . S
H220 C217 0.930 . S
H221 C209 0.929 . S
H222 C211 0.929 1_455 S
O223 Co198 2.351 . S
O223 C226 1.244 . S
O224 Co198 2.155 . S
O224 C226 1.240 . S
O225 Co198 2.096 1_455 S
O225 C206 1.247 . S
C226 O223 1.244 . S
C226 O224 1.240 . S
H227 C201 0.931 . S
H228 C210 0.931 . S
H229 C214 0.929 . S
H230 C216 0.930 . S
Co231 N235 2.148 . S
Co231 N241 2.128 . S
Co231 N251 2.194 . S
Co231 O256 2.351 . S
Co231 O257 2.155 . S
Co231 O258 2.096 1_565 S
C232 N235 1.301 . S
C232 N236 1.328 . S
C232 H237 0.930 . S
C233 C234 1.333 . S
C233 N235 1.317 . S
C233 H238 0.930 1_565 S
C234 C233 1.333 . S
C234 N236 1.350 . S
C234 H260 0.931 . S
N235 Co231 2.148 . S
N235 C232 1.301 . S
N235 C233 1.317 . S
N236 C232 1.328 . S
N236 C234 1.350 . S
H237 C232 0.930 . S
H238 C233 0.930 1_545 S
C239 O240 1.218 1_545 S
C239 O258 1.247 . S
O240 C239 1.218 1_565 S
N241 Co231 2.128 . S
N241 C242 1.355 . S
N241 C244 1.311 . S
C242 N241 1.355 . S
C242 C243 1.363 . S
C242 H254 0.929 . S
C243 C242 1.363 . S
C243 N245 1.375 . S
C243 H261 0.931 . S
C244 N241 1.311 . S
C244 N245 1.347 . S
C244 H255 0.929 1_565 S
N245 C243 1.375 . S
N245 C244 1.347 . S
C246 C249 1.365 . S
C246 N251 1.328 . S
C246 H252 0.929 . S
C247 C248 1.362 . S
C247 C250 1.378 . S
C247 H262 0.929 . S
C248 C247 1.362 . S
C248 C249 1.366 . S
C249 C246 1.365 . S
C249 C248 1.366 . S
C249 H263 0.930 . S
C250 C247 1.378 . S
C250 N251 1.315 . S
C250 H253 0.930 . S
N251 Co231 2.194 . S
N251 C246 1.328 . S
N251 C250 1.315 . S
H252 C246 0.929 . S
H253 C250 0.930 . S
H254 C242 0.929 . S
H255 C244 0.929 1_545 S
O256 Co231 2.351 . S
O256 C259 1.244 . S
O257 Co231 2.155 . S
O257 C259 1.240 . S
O258 Co231 2.096 1_545 S
O258 C239 1.247 . S
C259 O256 1.244 . S
C259 O257 1.240 . S
H260 C234 0.931 . S
H261 C243 0.931 . S
H262 C247 0.929 . S
H263 C249 0.930 . S
Co264 N268 2.148 . S
Co264 N274 2.128 . S
Co264 N284 2.194 . S
Co264 O289 2.351 . S
Co264 O290 2.155 . S
Co264 O291 2.096 . S
C265 N268 1.301 . S
C265 N269 1.328 . S
C265 H270 0.930 . S
C266 C267 1.333 . S
C266 N268 1.317 . S
C266 H271 0.930 . S
C267 C266 1.333 . S
C267 N269 1.350 . S
C267 H293 0.931 . S
N268 Co264 2.148 . S
N268 C265 1.301 . S
N268 C266 1.317 . S
N269 C265 1.328 . S
N269 C267 1.350 . S
H270 C265 0.930 . S
H271 C266 0.930 . S
C272 O273 1.224 . S
C272 O291 1.247 . S
O273 C272 1.224 . S
N274 Co264 2.128 . S
N274 C275 1.355 . S
N274 C277 1.311 . S
C275 N274 1.355 . S
C275 C276 1.363 . S
C275 H287 0.929 . S
C276 C275 1.363 . S
C276 N278 1.375 . S
C276 H294 0.931 . S
C277 N274 1.311 . S
C277 N278 1.347 . S
C277 H288 0.929 . S
N278 C276 1.375 . S
N278 C277 1.347 . S
C279 C282 1.365 . S
C279 N284 1.328 . S
C279 H285 0.929 . S
C280 C281 1.362 . S
C280 C283 1.378 . S
C280 H295 0.929 . S
C281 C280 1.362 . S
C281 C282 1.366 . S
C282 C279 1.365 . S
C282 C281 1.366 . S
C282 H296 0.930 . S
C283 C280 1.378 . S
C283 N284 1.315 . S
C283 H286 0.930 . S
N284 Co264 2.194 . S
N284 C279 1.328 . S
N284 C283 1.315 . S
H285 C279 0.929 . S
H286 C283 0.930 . S
H287 C275 0.929 . S
H288 C277 0.929 . S
O289 Co264 2.351 . S
O289 C292 1.244 . S
O290 Co264 2.155 . S
O290 C292 1.240 . S
O291 Co264 2.096 . S
O291 C272 1.247 . S
C292 O289 1.244 . S
C292 O290 1.240 . S
H293 C267 0.931 . S
H294 C276 0.931 . S
H295 C280 0.929 . S
H296 C282 0.930 . S
Co297 N301 2.148 . S
Co297 N307 2.128 . S
Co297 N317 2.194 . S
Co297 O322 2.351 . S
Co297 O323 2.155 . S
Co297 O324 2.096 . S
C298 N301 1.301 . S
C298 N302 1.328 . S
C298 H303 0.930 . S
C299 C300 1.333 . S
C299 N301 1.317 . S
C299 H304 0.930 . S
C300 C299 1.333 . S
C300 N302 1.350 . S
C300 H326 0.931 . S
N301 Co297 2.148 . S
N301 C298 1.301 . S
N301 C299 1.317 . S
N302 C298 1.328 . S
N302 C300 1.350 . S
H303 C298 0.930 . S
H304 C299 0.930 . S
C305 O306 1.224 . S
C305 O324 1.247 . S
O306 C305 1.224 . S
N307 Co297 2.128 . S
N307 C308 1.355 . S
N307 C310 1.311 . S
C308 N307 1.355 . S
C308 C309 1.363 . S
C308 H320 0.929 . S
C309 C308 1.363 . S
C309 N311 1.375 . S
C309 H327 0.931 . S
C310 N307 1.311 . S
C310 N311 1.347 . S
C310 H321 0.929 . S
N311 C309 1.375 . S
N311 C310 1.347 . S
C312 C315 1.365 . S
C312 N317 1.328 . S
C312 H318 0.929 . S
C313 C314 1.362 . S
C313 C316 1.378 . S
C313 H328 0.929 . S
C314 C313 1.362 . S
C314 C315 1.366 . S
C315 C312 1.365 . S
C315 C314 1.366 . S
C315 H329 0.930 . S
C316 C313 1.378 . S
C316 N317 1.315 . S
C316 H319 0.930 . S
N317 Co297 2.194 . S
N317 C312 1.328 . S
N317 C316 1.315 . S
H318 C312 0.929 . S
H319 C316 0.930 . S
H320 C308 0.929 . S
H321 C310 0.929 . S
O322 Co297 2.351 . S
O322 C325 1.244 . S
O323 Co297 2.155 . S
O323 C325 1.240 . S
O324 Co297 2.096 . S
O324 C305 1.247 . S
C325 O322 1.244 . S
C325 O323 1.240 . S
H326 C300 0.931 . S
H327 C309 0.931 . S
H328 C313 0.929 . S
H329 C315 0.930 . S
Co330 N334 2.148 . S
Co330 N340 2.128 . S
Co330 N350 2.194 . S
Co330 O355 2.351 . S
Co330 O356 2.155 . S
Co330 O357 2.096 . S
C331 N334 1.301 . S
C331 N335 1.328 . S
C331 H336 0.930 . S
C332 C333 1.333 . S
C332 N334 1.317 . S
C332 H337 0.930 . S
C333 C332 1.333 . S
C333 N335 1.350 . S
C333 H359 0.931 . S
N334 Co330 2.148 . S
N334 C331 1.301 . S
N334 C332 1.317 . S
N335 C331 1.328 . S
N335 C333 1.350 . S
H336 C331 0.930 . S
H337 C332 0.930 . S
C338 O339 1.224 . S
C338 O357 1.247 . S
O339 C338 1.224 . S
N340 Co330 2.128 . S
N340 C341 1.355 . S
N340 C343 1.311 . S
C341 N340 1.355 . S
C341 C342 1.363 . S
C341 H353 0.929 . S
C342 C341 1.363 . S
C342 N344 1.375 . S
C342 H360 0.931 . S
C343 N340 1.311 . S
C343 N344 1.347 . S
C343 H354 0.929 . S
N344 C342 1.375 . S
N344 C343 1.347 . S
C345 C348 1.365 . S
C345 N350 1.328 . S
C345 H351 0.929 . S
C346 C347 1.362 . S
C346 C349 1.378 . S
C346 H361 0.929 . S
C347 C346 1.362 . S
C347 C348 1.366 . S
C348 C345 1.365 . S
C348 C347 1.366 . S
C348 H362 0.930 . S
C349 C346 1.378 . S
C349 N350 1.315 . S
C349 H352 0.930 . S
N350 Co330 2.194 . S
N350 C345 1.328 . S
N350 C349 1.315 . S
H351 C345 0.929 . S
H352 C349 0.930 . S
H353 C341 0.929 . S
H354 C343 0.929 . S
O355 Co330 2.351 . S
O355 C358 1.244 . S
O356 Co330 2.155 . S
O356 C358 1.240 . S
O357 Co330 2.096 . S
O357 C338 1.247 . S
C358 O355 1.244 . S
C358 O356 1.240 . S
H359 C333 0.931 . S
H360 C342 0.931 . S
H361 C346 0.929 . S
H362 C348 0.930 . S
Co363 N367 2.148 . S
Co363 N373 2.128 . S
Co363 N383 2.194 . S
Co363 O388 2.351 . S
Co363 O389 2.155 . S
Co363 O390 2.096 . S
C364 N367 1.301 . S
C364 N368 1.328 . S
C364 H369 0.930 . S
C365 C366 1.333 . S
C365 N367 1.317 . S
C365 H370 0.930 . S
C366 C365 1.333 . S
C366 N368 1.350 . S
C366 H392 0.931 . S
N367 Co363 2.148 . S
N367 C364 1.301 . S
N367 C365 1.317 . S
N368 C364 1.328 . S
N368 C366 1.350 . S
H369 C364 0.930 . S
H370 C365 0.930 . S
C371 O372 1.224 . S
C371 O390 1.247 . S
O372 C371 1.224 . S
N373 Co363 2.128 . S
N373 C374 1.355 . S
N373 C376 1.311 . S
C374 N373 1.355 . S
C374 C375 1.363 . S
C374 H386 0.929 . S
C375 C374 1.363 . S
C375 N377 1.375 . S
C375 H393 0.931 . S
C376 N373 1.311 . S
C376 N377 1.347 . S
C376 H387 0.929 . S
N377 C375 1.375 . S
N377 C376 1.347 . S
C378 C381 1.365 . S
C378 N383 1.328 . S
C378 H384 0.929 . S
C379 C380 1.362 . S
C379 C382 1.378 . S
C379 H394 0.929 . S
C380 C379 1.362 . S
C380 C381 1.366 . S
C381 C378 1.365 . S
C381 C380 1.366 . S
C381 H395 0.930 . S
C382 C379 1.378 . S
C382 N383 1.315 . S
C382 H385 0.930 . S
N383 Co363 2.194 . S
N383 C378 1.328 . S
N383 C382 1.315 . S
H384 C378 0.929 . S
H385 C382 0.930 . S
H386 C374 0.929 . S
H387 C376 0.929 . S
O388 Co363 2.351 . S
O388 C391 1.244 . S
O389 Co363 2.155 . S
O389 C391 1.240 . S
O390 Co363 2.096 . S
O390 C371 1.247 . S
C391 O388 1.244 . S
C391 O389 1.240 . S
H392 C366 0.931 . S
H393 C375 0.931 . S
H394 C379 0.929 . S
H395 C381 0.930 . S
Co396 N400 2.148 . S
Co396 N406 2.128 . S
Co396 N416 2.194 . S
Co396 O421 2.351 . S
Co396 O422 2.155 . S
Co396 O423 2.096 . S
C397 N400 1.301 . S
C397 N401 1.328 . S
C397 H402 0.930 . S
C398 C399 1.333 . S
C398 N400 1.317 . S
C398 H403 0.930 . S
C399 C398 1.333 . S
C399 N401 1.350 . S
C399 H425 0.931 . S
N400 Co396 2.148 . S
N400 C397 1.301 . S
N400 C398 1.317 . S
N401 C397 1.328 . S
N401 C399 1.350 . S
H402 C397 0.930 . S
H403 C398 0.930 . S
C404 O405 1.224 . S
C404 O423 1.247 . S
O405 C404 1.224 . S
N406 Co396 2.128 . S
N406 C407 1.355 . S
N406 C409 1.311 . S
C407 N406 1.355 . S
C407 C408 1.363 . S
C407 H419 0.929 . S
C408 C407 1.363 . S
C408 N410 1.375 . S
C408 H426 0.931 . S
C409 N406 1.311 . S
C409 N410 1.347 . S
C409 H420 0.929 . S
N410 C408 1.375 . S
N410 C409 1.347 . S
C411 C414 1.365 . S
C411 N416 1.328 . S
C411 H417 0.929 . S
C412 C413 1.362 . S
C412 C415 1.378 . S
C412 H427 0.929 . S
C413 C412 1.362 . S
C413 C414 1.366 . S
C414 C411 1.365 . S
C414 C413 1.366 . S
C414 H428 0.930 . S
C415 C412 1.378 . S
C415 N416 1.315 . S
C415 H418 0.930 . S
N416 Co396 2.194 . S
N416 C411 1.328 . S
N416 C415 1.315 . S
H417 C411 0.929 . S
H418 C415 0.930 . S
H419 C407 0.929 . S
H420 C409 0.929 . S
O421 Co396 2.351 . S
O421 C424 1.244 . S
O422 Co396 2.155 . S
O422 C424 1.240 . S
O423 Co396 2.096 . S
O423 C404 1.247 . S
C424 O421 1.244 . S
C424 O422 1.240 . S
H425 C399 0.931 . S
H426 C408 0.931 . S
H427 C412 0.929 . S
H428 C414 0.930 . S
Co429 N433 2.148 . S
Co429 N439 2.128 . S
Co429 N449 2.194 . S
Co429 O454 2.351 . S
Co429 O455 2.155 . S
Co429 O456 2.096 . S
C430 N433 1.301 . S
C430 N434 1.328 . S
C430 H435 0.930 . S
C431 C432 1.333 . S
C431 N433 1.317 . S
C431 H436 0.930 . S
C432 C431 1.333 . S
C432 N434 1.350 . S
C432 H458 0.931 . S
N433 Co429 2.148 . S
N433 C430 1.301 . S
N433 C431 1.317 . S
N434 C430 1.328 . S
N434 C432 1.350 . S
H435 C430 0.930 . S
H436 C431 0.930 . S
C437 O438 1.224 . S
C437 O456 1.247 . S
O438 C437 1.224 . S
N439 Co429 2.128 . S
N439 C440 1.355 . S
N439 C442 1.311 . S
C440 N439 1.355 . S
C440 C441 1.363 . S
C440 H452 0.929 . S
C441 C440 1.363 . S
C441 N443 1.375 . S
C441 H459 0.931 . S
C442 N439 1.311 . S
C442 N443 1.347 . S
C442 H453 0.929 . S
N443 C441 1.375 . S
N443 C442 1.347 . S
C444 C447 1.365 . S
C444 N449 1.328 . S
C444 H450 0.929 . S
C445 C446 1.362 . S
C445 C448 1.378 . S
C445 H460 0.929 . S
C446 C445 1.362 . S
C446 C447 1.366 . S
C447 C444 1.365 . S
C447 C446 1.366 . S
C447 H461 0.930 . S
C448 C445 1.378 . S
C448 N449 1.315 . S
C448 H451 0.930 . S
N449 Co429 2.194 . S
N449 C444 1.328 . S
N449 C448 1.315 . S
H450 C444 0.929 . S
H451 C448 0.930 . S
H452 C440 0.929 . S
H453 C442 0.929 . S
O454 Co429 2.351 . S
O454 C457 1.244 . S
O455 Co429 2.155 . S
O455 C457 1.240 . S
O456 Co429 2.096 . S
O456 C437 1.247 . S
C457 O454 1.244 . S
C457 O455 1.240 . S
H458 C432 0.931 . S
H459 C441 0.931 . S
H460 C445 0.929 . S
H461 C447 0.930 . S
Co462 N466 2.148 . S
Co462 N472 2.128 . S
Co462 N482 2.194 . S
Co462 O487 2.351 . S
Co462 O488 2.155 . S
Co462 O489 2.096 . S
C463 N466 1.301 . S
C463 N467 1.328 . S
C463 H468 0.930 . S
C464 C465 1.333 . S
C464 N466 1.317 . S
C464 H469 0.930 . S
C465 C464 1.333 . S
C465 N467 1.350 . S
C465 H491 0.931 . S
N466 Co462 2.148 . S
N466 C463 1.301 . S
N466 C464 1.317 . S
N467 C463 1.328 . S
N467 C465 1.350 . S
H468 C463 0.930 . S
H469 C464 0.930 . S
C470 O471 1.224 . S
C470 O489 1.247 . S
O471 C470 1.224 . S
N472 Co462 2.128 . S
N472 C473 1.355 . S
N472 C475 1.311 . S
C473 N472 1.355 . S
C473 C474 1.363 . S
C473 H485 0.929 . S
C474 C473 1.363 . S
C474 N476 1.375 . S
C474 H492 0.931 . S
C475 N472 1.311 . S
C475 N476 1.347 . S
C475 H486 0.929 . S
N476 C474 1.375 . S
N476 C475 1.347 . S
C477 C480 1.365 . S
C477 N482 1.328 . S
C477 H483 0.929 . S
C478 C479 1.362 . S
C478 C481 1.378 . S
C478 H493 0.929 . S
C479 C478 1.362 . S
C479 C480 1.366 . S
C480 C477 1.365 . S
C480 C479 1.366 . S
C480 H494 0.930 . S
C481 C478 1.378 . S
C481 N482 1.315 . S
C481 H484 0.930 . S
N482 Co462 2.194 . S
N482 C477 1.328 . S
N482 C481 1.315 . S
H483 C477 0.929 . S
H484 C481 0.930 . S
H485 C473 0.929 . S
H486 C475 0.929 . S
O487 Co462 2.351 . S
O487 C490 1.244 . S
O488 Co462 2.155 . S
O488 C490 1.240 . S
O489 Co462 2.096 . S
O489 C470 1.247 . S
C490 O487 1.244 . S
C490 O488 1.240 . S
H491 C465 0.931 . S
H492 C474 0.931 . S
H493 C478 0.929 . S
H494 C480 0.930 . S
Co495 N499 2.148 . S
Co495 N505 2.128 . S
Co495 N515 2.194 . S
Co495 O520 2.351 . S
Co495 O521 2.155 . S
Co495 O522 2.096 . S
C496 N499 1.301 . S
C496 N500 1.328 . S
C496 H501 0.930 . S
C497 C498 1.333 . S
C497 N499 1.317 . S
C497 H502 0.930 . S
C498 C497 1.333 . S
C498 N500 1.350 . S
C498 H524 0.931 . S
N499 Co495 2.148 . S
N499 C496 1.301 . S
N499 C497 1.317 . S
N500 C496 1.328 . S
N500 C498 1.350 . S
H501 C496 0.930 . S
H502 C497 0.930 . S
C503 O504 1.224 . S
C503 O522 1.247 . S
O504 C503 1.224 . S
N505 Co495 2.128 . S
N505 C506 1.355 . S
N505 C508 1.311 . S
C506 N505 1.355 . S
C506 C507 1.363 . S
C506 H518 0.929 . S
C507 C506 1.363 . S
C507 N509 1.375 . S
C507 H525 0.931 . S
C508 N505 1.311 . S
C508 N509 1.347 . S
C508 H519 0.929 . S
N509 C507 1.375 . S
N509 C508 1.347 . S
C510 C513 1.365 . S
C510 N515 1.328 . S
C510 H516 0.929 . S
C511 C512 1.362 . S
C511 C514 1.378 . S
C511 H526 0.929 . S
C512 C511 1.362 . S
C512 C513 1.366 . S
C513 C510 1.365 . S
C513 C512 1.366 . S
C513 H527 0.930 . S
C514 C511 1.378 . S
C514 N515 1.315 . S
C514 H517 0.930 . S
N515 Co495 2.194 . S
N515 C510 1.328 . S
N515 C514 1.315 . S
H516 C510 0.929 . S
H517 C514 0.930 . S
H518 C506 0.929 . S
H519 C508 0.929 . S
O520 Co495 2.351 . S
O520 C523 1.244 . S
O521 Co495 2.155 . S
O521 C523 1.240 . S
O522 Co495 2.096 . S
O522 C503 1.247 . S
C523 O520 1.244 . S
C523 O521 1.240 . S
H524 C498 0.931 . S
H525 C507 0.931 . S
H526 C511 0.929 . S
H527 C513 0.930 . S
H528 C540 0.930 . S
H529 C542 0.930 . S
H530 C543 0.930 . S
H531 C547 0.959 . S
H532 C547 0.959 . S
H533 C547 0.961 . S
H534 C548 0.960 . S
H535 C548 0.961 . S
H536 C548 0.959 . S
H537 C551 0.929 . S
H538 C552 0.931 . S
H539 C554 0.930 . S
C540 H528 0.930 . S
C540 C541 1.399 . S
C540 C545 1.399 . S
C541 C540 1.399 . S
C541 C542 1.376 . S
C542 H529 0.930 . S
C542 C541 1.376 . S
C542 C543 1.388 . S
C543 H530 0.930 . S
C543 C542 1.388 . S
C543 C544 1.390 . S
C544 C543 1.390 . S
C544 C545 1.394 . S
C544 C550 1.465 1_655 S
C545 C540 1.399 . S
C545 C544 1.394 . S
C545 C546 1.516 1_655 S
C546 C545 1.516 1_455 S
C546 C547 1.502 . S
C546 C548 1.561 1_455 S
C546 C549 1.526 . S
C547 H531 0.959 . S
C547 H532 0.959 . S
C547 H533 0.961 . S
C547 C546 1.502 . S
C548 H534 0.960 . S
C548 H535 0.961 . S
C548 H536 0.959 . S
C548 C546 1.561 1_655 S
C549 C546 1.526 . S
C549 C550 1.396 . S
C549 C554 1.390 . S
C550 C544 1.465 1_455 S
C550 C549 1.396 . S
C550 C551 1.399 . S
C551 H537 0.929 . S
C551 C550 1.399 . S
C551 C552 1.385 . S
C552 H538 0.931 . S
C552 C551 1.385 . S
C552 C553 1.389 . S
C553 C552 1.389 . S
C553 C554 1.387 . S
C554 H539 0.930 . S
C554 C549 1.390 . S
C554 C553 1.387 . S
H555 C567 0.930 . S
H556 C569 0.930 . S
H557 C570 0.930 1_565 S
H558 C574 0.959 . S
H559 C574 0.959 . S
H560 C574 0.961 . S
H561 C575 0.960 . S
H562 C575 0.961 . S
H563 C575 0.959 . S
H564 C578 0.929 . S
H565 C579 0.931 . S
H566 C581 0.930 . S
C567 H555 0.930 . S
C567 C568 1.399 . S
C567 C572 1.399 . S
C568 C567 1.399 . S
C568 C569 1.376 . S
C569 H556 0.930 . S
C569 C568 1.376 . S
C569 C570 1.388 . S
C570 H557 0.930 1_545 S
C570 C569 1.388 . S
C570 C571 1.390 . S
C571 C570 1.390 . S
C571 C572 1.394 . S
C571 C577 1.465 1_545 S
C572 C567 1.399 . S
C572 C571 1.394 . S
C572 C573 1.516 . S
C573 C572 1.516 . S
C573 C574 1.502 . S
C573 C575 1.561 1_545 S
C573 C576 1.526 1_545 S
C574 H558 0.959 . S
C574 H559 0.959 . S
C574 H560 0.961 . S
C574 C573 1.502 . S
C575 H561 0.960 . S
C575 H562 0.961 . S
C575 H563 0.959 . S
C575 C573 1.561 1_565 S
C576 C573 1.526 1_565 S
C576 C577 1.396 . S
C576 C581 1.390 . S
C577 C571 1.465 1_565 S
C577 C576 1.396 . S
C577 C578 1.399 . S
C578 H564 0.929 . S
C578 C577 1.399 . S
C578 C579 1.385 . S
C579 H565 0.931 . S
C579 C578 1.385 . S
C579 C580 1.389 . S
C580 C579 1.389 . S
C580 C581 1.387 . S
C581 H566 0.930 . S
C581 C576 1.390 . S
C581 C580 1.387 . S
H582 C594 0.930 . S
H583 C596 0.930 . S
H584 C597 0.930 . S
H585 C601 0.959 . S
H586 C601 0.959 . S
H587 C601 0.961 . S
H588 C602 0.960 1_655 S
H589 C602 0.961 . S
H590 C602 0.959 . S
H591 C605 0.929 . S
H592 C606 0.931 . S
H593 C608 0.930 . S
C594 H582 0.930 . S
C594 C595 1.399 . S
C594 C599 1.399 . S
C595 C594 1.399 . S
C595 C596 1.376 . S
C596 H583 0.930 . S
C596 C595 1.376 . S
C596 C597 1.388 1_655 S
C597 H584 0.930 . S
C597 C596 1.388 1_455 S
C597 C598 1.390 . S
C598 C597 1.390 . S
C598 C599 1.394 1_455 S
C598 C604 1.465 . S
C599 C594 1.399 . S
C599 C598 1.394 1_655 S
C599 C600 1.516 . S
C600 C599 1.516 . S
C600 C601 1.502 . S
C600 C602 1.561 1_655 S
C600 C603 1.526 1_655 S
C601 H585 0.959 . S
C601 H586 0.959 . S
C601 H587 0.961 . S
C601 C600 1.502 . S
C602 H588 0.960 1_455 S
C602 H589 0.961 . S
C602 H590 0.959 . S
C602 C600 1.561 1_455 S
C603 C600 1.526 1_455 S
C603 C604 1.396 . S
C603 C608 1.390 . S
C604 C598 1.465 . S
C604 C603 1.396 . S
C604 C605 1.399 . S
C605 H591 0.929 . S
C605 C604 1.399 . S
C605 C606 1.385 . S
C606 H592 0.931 . S
C606 C605 1.385 . S
C606 C607 1.389 . S
C607 C606 1.389 . S
C607 C608 1.387 . S
C608 H593 0.930 . S
C608 C603 1.390 . S
C608 C607 1.387 . S
H609 C621 0.930 . S
H610 C623 0.930 . S
H611 C624 0.930 . S
H612 C628 0.959 . S
H613 C628 0.959 . S
H614 C628 0.961 . S
H615 C629 0.960 . S
H616 C629 0.961 . S
H617 C629 0.959 . S
H618 C632 0.929 . S
H619 C633 0.931 . S
H620 C635 0.930 . S
C621 H609 0.930 . S
C621 C622 1.399 . S
C621 C626 1.399 . S
C622 C621 1.399 . S
C622 C623 1.376 . S
C623 H610 0.930 . S
C623 C622 1.376 . S
C623 C624 1.388 . S
C624 H611 0.930 . S
C624 C623 1.388 . S
C624 C625 1.390 . S
C625 C624 1.390 . S
C625 C626 1.394 . S
C625 C631 1.465 1_565 S
C626 C621 1.399 . S
C626 C625 1.394 . S
C626 C627 1.517 . S
C627 C626 1.517 . S
C627 C628 1.503 . S
C627 C629 1.560 1_565 S
C627 C630 1.525 1_565 S
C628 H612 0.959 . S
C628 H613 0.959 . S
C628 H614 0.961 . S
C628 C627 1.503 . S
C629 H615 0.960 . S
C629 H616 0.961 . S
C629 H617 0.959 . S
C629 C627 1.560 1_545 S
C630 C627 1.525 1_545 S
C630 C631 1.396 . S
C630 C635 1.390 . S
C631 C625 1.465 1_545 S
C631 C630 1.396 . S
C631 C632 1.399 . S
C632 H618 0.929 . S
C632 C631 1.399 . S
C632 C633 1.385 . S
C633 H619 0.931 . S
C633 C632 1.385 . S
C633 C634 1.389 . S
C634 C633 1.389 . S
C634 C635 1.387 . S
C635 H620 0.930 . S
C635 C630 1.390 . S
C635 C634 1.387 . S
H636 C648 0.930 . S
H637 C650 0.930 . S
H638 C651 0.930 . S
H639 C655 0.959 . S
H640 C655 0.959 . S
H641 C655 0.961 . S
H642 C656 0.945 1_565 S
H643 C656 0.980 . S
H644 C656 0.950 1_565 S
H645 C659 0.929 . S
H646 C660 0.931 . S
H647 C662 0.930 . S
C648 H636 0.930 . S
C648 C649 1.399 . S
C648 C653 1.399 . S
C649 C648 1.399 . S
C649 C650 1.376 . S
C650 H637 0.930 . S
C650 C649 1.376 . S
C650 C651 1.388 . S
C651 H638 0.930 . S
C651 C650 1.388 . S
C651 C652 1.390 . S
C652 C651 1.390 . S
C652 C653 1.394 . S
C652 C658 1.465 1_565 S
C653 C648 1.399 . S
C653 C652 1.394 . S
C653 C654 1.516 1_565 S
C654 C653 1.516 1_545 S
C654 C655 1.502 . S
C654 C656 1.566 . S
C654 C657 1.526 . S
C655 H639 0.959 . S
C655 H640 0.959 . S
C655 H641 0.961 . S
C655 C654 1.502 . S
C656 H642 0.945 1_545 S
C656 H643 0.980 . S
C656 H644 0.950 1_545 S
C656 C654 1.566 . S
C657 C654 1.526 . S
C657 C658 1.396 . S
C657 C662 1.390 . S
C658 C652 1.465 1_545 S
C658 C657 1.396 . S
C658 C659 1.399 . S
C659 H645 0.929 . S
C659 C658 1.399 . S
C659 C660 1.385 . S
C660 H646 0.931 . S
C660 C659 1.385 . S
C660 C661 1.389 . S
C661 C660 1.389 . S
C661 C662 1.387 . S
C662 H647 0.930 . S
C662 C657 1.390 . S
C662 C661 1.387 . S
H663 C675 0.930 . S
H664 C677 0.930 . S
H665 C678 0.930 . S
H666 C682 0.959 . S
H667 C682 0.959 . S
H668 C682 0.961 . S
H669 C683 0.960 1_655 S
H670 C683 0.961 . S
H671 C683 0.959 . S
H672 C686 0.929 . S
H673 C687 0.931 . S
H674 C689 0.930 . S
C675 H663 0.930 . S
C675 C676 1.399 . S
C675 C680 1.399 . S
C676 C675 1.399 . S
C676 C677 1.376 . S
C677 H664 0.930 . S
C677 C676 1.376 . S
C677 C678 1.388 . S
C678 H665 0.930 . S
C678 C677 1.388 . S
C678 C679 1.390 . S
C679 C678 1.390 . S
C679 C680 1.394 . S
C679 C685 1.465 1_655 S
C680 C675 1.399 . S
C680 C679 1.394 . S
C680 C681 1.516 . S
C681 C680 1.516 . S
C681 C682 1.502 . S
C681 C683 1.561 1_655 S
C681 C684 1.526 1_655 S
C682 H666 0.959 . S
C682 H667 0.959 . S
C682 H668 0.961 . S
C682 C681 1.502 . S
C683 H669 0.960 1_455 S
C683 H670 0.961 . S
C683 H671 0.959 . S
C683 C681 1.561 1_455 S
C684 C681 1.526 1_455 S
C684 C685 1.396 . S
C684 C689 1.390 . S
C685 C679 1.465 1_455 S
C685 C684 1.396 . S
C685 C686 1.399 . S
C686 H672 0.929 . S
C686 C685 1.399 . S
C686 C687 1.385 . S
C687 H673 0.931 . S
C687 C686 1.385 . S
C687 C688 1.389 . S
C688 C687 1.389 . S
C688 C689 1.387 . S
C689 H674 0.930 . S
C689 C684 1.390 . S
C689 C688 1.387 . S
H690 C702 0.930 . S
H691 C704 0.930 . S
H692 C705 0.930 . S
H693 C709 0.959 . S
H694 C709 0.959 . S
H695 C709 0.961 . S
H696 C710 0.960 1_565 S
H697 C710 0.961 . S
H698 C710 0.959 . S
H699 C713 0.929 . S
H700 C714 0.931 . S
H701 C716 0.930 . S
C702 H690 0.930 . S
C702 C703 1.399 . S
C702 C707 1.399 . S
C703 C702 1.399 . S
C703 C704 1.376 . S
C704 H691 0.930 . S
C704 C703 1.376 . S
C704 C705 1.388 . S
C705 H692 0.930 . S
C705 C704 1.388 . S
C705 C706 1.390 . S
C706 C705 1.390 . S
C706 C707 1.394 . S
C706 C712 1.465 1_565 S
C707 C702 1.399 . S
C707 C706 1.394 . S
C707 C708 1.516 . S
C708 C707 1.516 . S
C708 C709 1.502 . S
C708 C710 1.561 1_565 S
C708 C711 1.526 1_565 S
C709 H693 0.959 . S
C709 H694 0.959 . S
C709 H695 0.961 . S
C709 C708 1.502 . S
C710 H696 0.960 1_545 S
C710 H697 0.961 . S
C710 H698 0.959 . S
C710 C708 1.561 1_545 S
C711 C708 1.526 1_545 S
C711 C712 1.396 . S
C711 C716 1.390 . S
C712 C706 1.465 1_545 S
C712 C711 1.396 . S
C712 C713 1.399 . S
C713 H699 0.929 . S
C713 C712 1.399 . S
C713 C714 1.385 . S
C714 H700 0.931 . S
C714 C713 1.385 . S
C714 C715 1.389 . S
C715 C714 1.389 . S
C715 C716 1.387 . S
C716 H701 0.930 . S
C716 C711 1.390 . S
C716 C715 1.387 . S
H717 C729 0.930 . S
H718 C731 0.930 . S
H719 C732 0.930 . S
H720 C736 0.959 . S
H721 C736 0.959 . S
H722 C736 0.961 . S
H723 C737 0.960 . S
H724 C737 0.961 1_455 S
H725 C737 0.959 1_455 S
H726 C740 0.929 . S
H727 C741 0.931 . S
H728 C743 0.930 . S
C729 H717 0.930 . S
C729 C730 1.399 . S
C729 C734 1.399 . S
C730 C729 1.399 . S
C730 C731 1.376 . S
C731 H718 0.930 . S
C731 C730 1.376 . S
C731 C732 1.388 . S
C732 H719 0.930 . S
C732 C731 1.388 . S
C732 C733 1.390 . S
C733 C732 1.390 . S
C733 C734 1.394 . S
C733 C739 1.465 1_655 S
C734 C729 1.399 . S
C734 C733 1.394 . S
C734 C735 1.516 . S
C735 C734 1.516 . S
C735 C736 1.502 . S
C735 C737 1.561 . S
C735 C738 1.526 1_655 S
C736 H720 0.959 . S
C736 H721 0.959 . S
C736 H722 0.961 . S
C736 C735 1.502 . S
C737 H723 0.960 . S
C737 H724 0.961 1_655 S
C737 H725 0.959 1_655 S
C737 C735 1.561 . S
C738 C735 1.526 1_455 S
C738 C739 1.396 . S
C738 C743 1.390 . S
C739 C733 1.465 1_455 S
C739 C738 1.396 . S
C739 C740 1.399 . S
C740 H726 0.929 . S
C740 C739 1.399 . S
C740 C741 1.385 . S
C741 H727 0.931 . S
C741 C740 1.385 . S
C741 C742 1.389 . S
C742 C741 1.389 . S
C742 C743 1.387 . S
C743 H728 0.930 . S
C743 C738 1.390 . S
C743 C742 1.387 . S
H744 C756 0.930 . S
H745 C758 0.930 . S
H746 C759 0.930 . S
H747 C763 0.959 . S
H748 C763 0.959 . S
H749 C763 0.961 . S
H750 C764 0.960 . S
H751 C764 0.961 . S
H752 C764 0.959 . S
H753 C767 0.929 . S
H754 C768 0.931 . S
H755 C770 0.930 . S
C756 H744 0.930 . S
C756 C757 1.399 . S
C756 C761 1.399 . S
C757 C756 1.399 . S
C757 C758 1.376 . S
C758 H745 0.930 . S
C758 C757 1.376 . S
C758 C759 1.388 . S
C759 H746 0.930 . S
C759 C758 1.388 . S
C759 C760 1.390 . S
C760 C759 1.390 . S
C760 C761 1.394 . S
C760 C766 1.465 . S
C761 C756 1.399 . S
C761 C760 1.394 . S
C761 C762 1.516 . S
C762 C761 1.516 . S
C762 C763 1.502 . S
C762 C764 1.561 . S
C762 C765 1.526 . S
C763 H747 0.959 . S
C763 H748 0.959 . S
C763 H749 0.961 . S
C763 C762 1.502 . S
C764 H750 0.960 . S
C764 H751 0.961 . S
C764 H752 0.959 . S
C764 C762 1.561 . S
C765 C762 1.526 . S
C765 C766 1.396 . S
C765 C770 1.390 . S
C766 C760 1.465 . S
C766 C765 1.396 . S
C766 C767 1.399 . S
C767 H753 0.929 . S
C767 C766 1.399 . S
C767 C768 1.385 . S
C768 H754 0.931 . S
C768 C767 1.385 . S
C768 C769 1.389 . S
C769 C768 1.389 . S
C769 C770 1.387 . S
C770 H755 0.930 . S
C770 C765 1.390 . S
C770 C769 1.387 . S
H771 C783 0.930 . S
H772 C785 0.930 . S
H773 C786 0.930 . S
H774 C790 0.959 . S
H775 C790 0.959 . S
H776 C790 0.961 . S
H777 C791 0.960 . S
H778 C791 0.961 . S
H779 C791 0.959 . S
H780 C794 0.929 . S
H781 C795 0.931 . S
H782 C797 0.930 . S
C783 H771 0.930 . S
C783 C784 1.399 . S
C783 C788 1.399 . S
C784 C783 1.399 . S
C784 C785 1.376 . S
C785 H772 0.930 . S
C785 C784 1.376 . S
C785 C786 1.388 . S
C786 H773 0.930 . S
C786 C785 1.388 . S
C786 C787 1.390 . S
C787 C786 1.390 . S
C787 C788 1.394 . S
C787 C793 1.465 . S
C788 C783 1.399 . S
C788 C787 1.394 . S
C788 C789 1.516 . S
C789 C788 1.516 . S
C789 C790 1.502 . S
C789 C791 1.561 . S
C789 C792 1.526 . S
C790 H774 0.959 . S
C790 H775 0.959 . S
C790 H776 0.961 . S
C790 C789 1.502 . S
C791 H777 0.960 . S
C791 H778 0.961 . S
C791 H779 0.959 . S
C791 C789 1.561 . S
C792 C789 1.526 . S
C792 C793 1.396 . S
C792 C797 1.390 . S
C793 C787 1.465 . S
C793 C792 1.396 . S
C793 C794 1.399 . S
C794 H780 0.929 . S
C794 C793 1.399 . S
C794 C795 1.385 . S
C795 H781 0.931 . S
C795 C794 1.385 . S
C795 C796 1.389 . S
C796 C795 1.389 . S
C796 C797 1.387 . S
C797 H782 0.930 . S
C797 C792 1.390 . S
C797 C796 1.387 . S
H798 C810 0.930 . S
H799 C812 0.930 . S
H800 C813 0.930 . S
H801 C817 0.959 . S
H802 C817 0.959 . S
H803 C817 0.961 . S
H804 C818 0.960 . S
H805 C818 0.961 . S
H806 C818 0.959 . S
H807 C821 0.929 . S
H808 C822 0.931 . S
H809 C824 0.930 . S
C810 H798 0.930 . S
C810 C811 1.399 . S
C810 C815 1.399 . S
C811 C810 1.399 . S
C811 C812 1.376 . S
C812 H799 0.930 . S
C812 C811 1.376 . S
C812 C813 1.388 . S
C813 H800 0.930 . S
C813 C812 1.388 . S
C813 C814 1.390 . S
C814 C813 1.390 . S
C814 C815 1.394 . S
C814 C820 1.465 . S
C815 C810 1.399 . S
C815 C814 1.394 . S
C815 C816 1.516 . S
C816 C815 1.516 . S
C816 C817 1.502 . S
C816 C818 1.561 . S
C816 C819 1.526 . S
C817 H801 0.959 . S
C817 H802 0.959 . S
C817 H803 0.961 . S
C817 C816 1.502 . S
C818 H804 0.960 . S
C818 H805 0.961 . S
C818 H806 0.959 . S
C818 C816 1.561 . S
C819 C816 1.526 . S
C819 C820 1.396 . S
C819 C824 1.390 . S
C820 C814 1.465 . S
C820 C819 1.396 . S
C820 C821 1.399 . S
C821 H807 0.929 . S
C821 C820 1.399 . S
C821 C822 1.385 . S
C822 H808 0.931 . S
C822 C821 1.385 . S
C822 C823 1.389 . S
C823 C822 1.389 . S
C823 C824 1.387 . S
C824 H809 0.930 . S
C824 C819 1.390 . S
C824 C823 1.387 . S
H825 C837 0.930 . S
H826 C839 0.930 . S
H827 C840 0.930 . S
H828 C844 0.959 . S
H829 C844 0.959 . S
H830 C844 0.961 . S
H831 C845 0.960 . S
H832 C845 0.961 . S
H833 C845 0.959 . S
H834 C848 0.929 . S
H835 C849 0.931 . S
H836 C851 0.930 . S
C837 H825 0.930 . S
C837 C838 1.399 . S
C837 C842 1.399 . S
C838 C837 1.399 . S
C838 C839 1.376 . S
C839 H826 0.930 . S
C839 C838 1.376 . S
C839 C840 1.388 . S
C840 H827 0.930 . S
C840 C839 1.388 . S
C840 C841 1.390 . S
C841 C840 1.390 . S
C841 C842 1.394 . S
C841 C847 1.465 . S
C842 C837 1.399 . S
C842 C841 1.394 . S
C842 C843 1.516 . S
C843 C842 1.516 . S
C843 C844 1.502 . S
C843 C845 1.561 . S
C843 C846 1.526 . S
C844 H828 0.959 . S
C844 H829 0.959 . S
C844 H830 0.961 . S
C844 C843 1.502 . S
C845 H831 0.960 . S
C845 H832 0.961 . S
C845 H833 0.959 . S
C845 C843 1.561 . S
C846 C843 1.526 . S
C846 C847 1.396 . S
C846 C851 1.390 . S
C847 C841 1.465 . S
C847 C846 1.396 . S
C847 C848 1.399 . S
C848 H834 0.929 . S
C848 C847 1.399 . S
C848 C849 1.385 . S
C849 H835 0.931 . S
C849 C848 1.385 . S
C849 C850 1.389 . S
C850 C849 1.389 . S
C850 C851 1.387 . S
C851 H836 0.930 . S
C851 C846 1.390 . S
C851 C850 1.387 . S
H852 C864 0.930 . S
H853 C866 0.930 . S
H854 C867 0.930 . S
H855 C871 0.959 . S
H856 C871 0.959 . S
H857 C871 0.961 . S
H858 C872 0.960 . S
H859 C872 0.961 . S
H860 C872 0.959 . S
H861 C875 0.929 . S
H862 C876 0.931 . S
H863 C878 0.930 . S
C864 H852 0.930 . S
C864 C865 1.399 . S
C864 C869 1.399 . S
C865 C864 1.399 . S
C865 C866 1.376 . S
C866 H853 0.930 . S
C866 C865 1.376 . S
C866 C867 1.388 . S
C867 H854 0.930 . S
C867 C866 1.388 . S
C867 C868 1.390 . S
C868 C867 1.390 . S
C868 C869 1.394 . S
C868 C874 1.465 . S
C869 C864 1.399 . S
C869 C868 1.394 . S
C869 C870 1.516 . S
C870 C869 1.516 . S
C870 C871 1.502 . S
C870 C872 1.561 . S
C870 C873 1.526 . S
C871 H855 0.959 . S
C871 H856 0.959 . S
C871 H857 0.961 . S
C871 C870 1.502 . S
C872 H858 0.960 . S
C872 H859 0.961 . S
C872 H860 0.959 . S
C872 C870 1.561 . S
C873 C870 1.526 . S
C873 C874 1.396 . S
C873 C878 1.390 . S
C874 C868 1.465 . S
C874 C873 1.396 . S
C874 C875 1.399 . S
C875 H861 0.929 . S
C875 C874 1.399 . S
C875 C876 1.385 . S
C876 H862 0.931 . S
C876 C875 1.385 . S
C876 C877 1.389 . S
C877 C876 1.389 . S
C877 C878 1.387 . S
C878 H863 0.930 . S
C878 C873 1.390 . S
C878 C877 1.387 . S
H879 C891 0.930 . S
H880 C893 0.930 . S
H881 C894 0.930 . S
H882 C898 0.959 . S
H883 C898 0.959 . S
H884 C898 0.961 . S
H885 C899 0.960 . S
H886 C899 0.961 . S
H887 C899 0.959 . S
H888 C902 0.929 . S
H889 C903 0.931 . S
H890 C905 0.930 . S
C891 H879 0.930 . S
C891 C892 1.399 . S
C891 C896 1.399 . S
C892 C891 1.399 . S
C892 C893 1.376 . S
C893 H880 0.930 . S
C893 C892 1.376 . S
C893 C894 1.388 . S
C894 H881 0.930 . S
C894 C893 1.388 . S
C894 C895 1.390 . S
C895 C894 1.390 . S
C895 C896 1.394 . S
C895 C901 1.465 . S
C896 C891 1.399 . S
C896 C895 1.394 . S
C896 C897 1.516 . S
C897 C896 1.516 . S
C897 C898 1.502 . S
C897 C899 1.561 . S
C897 C900 1.526 . S
C898 H882 0.959 . S
C898 H883 0.959 . S
C898 H884 0.961 . S
C898 C897 1.502 . S
C899 H885 0.960 . S
C899 H886 0.961 . S
C899 H887 0.959 . S
C899 C897 1.561 . S
C900 C897 1.526 . S
C900 C901 1.396 . S
C900 C905 1.390 . S
C901 C895 1.465 . S
C901 C900 1.396 . S
C901 C902 1.399 . S
C902 H888 0.929 . S
C902 C901 1.399 . S
C902 C903 1.385 . S
C903 H889 0.931 . S
C903 C902 1.385 . S
C903 C904 1.389 . S
C904 C903 1.389 . S
C904 C905 1.387 . S
C905 H890 0.930 . S
C905 C900 1.390 . S
C905 C904 1.387 . S
H906 C918 0.930 . S
H907 C920 0.930 . S
H908 C921 0.930 . S
H909 C925 0.959 . S
H910 C925 0.959 . S
H911 C925 0.961 . S
H912 C926 0.960 . S
H913 C926 0.961 . S
H914 C926 0.959 . S
H915 C929 0.929 . S
H916 C930 0.931 . S
H917 C932 0.930 . S
C918 H906 0.930 . S
C918 C919 1.399 . S
C918 C923 1.399 . S
C919 C918 1.399 . S
C919 C920 1.376 . S
C920 H907 0.930 . S
C920 C919 1.376 . S
C920 C921 1.388 . S
C921 H908 0.930 . S
C921 C920 1.388 . S
C921 C922 1.390 . S
C922 C921 1.390 . S
C922 C923 1.394 . S
C922 C928 1.465 . S
C923 C918 1.399 . S
C923 C922 1.394 . S
C923 C924 1.516 . S
C924 C923 1.516 . S
C924 C925 1.502 . S
C924 C926 1.561 . S
C924 C927 1.526 . S
C925 H909 0.959 . S
C925 H910 0.959 . S
C925 H911 0.961 . S
C925 C924 1.502 . S
C926 H912 0.960 . S
C926 H913 0.961 . S
C926 H914 0.959 . S
C926 C924 1.561 . S
C927 C924 1.526 . S
C927 C928 1.396 . S
C927 C932 1.390 . S
C928 C922 1.465 . S
C928 C927 1.396 . S
C928 C929 1.399 . S
C929 H915 0.929 . S
C929 C928 1.399 . S
C929 C930 1.385 . S
C930 H916 0.931 . S
C930 C929 1.385 . S
C930 C931 1.389 . S
C931 C930 1.389 . S
C931 C932 1.387 . S
C932 H917 0.930 . S
C932 C927 1.390 . S
C932 C931 1.387 . S
H933 C945 0.930 . S
H934 C947 0.930 . S
H935 C948 0.930 . S
H936 C952 0.959 . S
H937 C952 0.959 . S
H938 C952 0.961 . S
H939 C953 0.960 . S
H940 C953 0.961 . S
H941 C953 0.959 . S
H942 C956 0.929 . S
H943 C957 0.931 . S
H944 C959 0.930 . S
C945 H933 0.930 . S
C945 C946 1.399 . S
C945 C950 1.399 . S
C946 C945 1.399 . S
C946 C947 1.376 . S
C947 H934 0.930 . S
C947 C946 1.376 . S
C947 C948 1.388 . S
C948 H935 0.930 . S
C948 C947 1.388 . S
C948 C949 1.390 . S
C949 C948 1.390 . S
C949 C950 1.394 . S
C949 C955 1.465 . S
C950 C945 1.399 . S
C950 C949 1.394 . S
C950 C951 1.516 . S
C951 C950 1.516 . S
C951 C952 1.502 . S
C951 C953 1.561 . S
C951 C954 1.526 . S
C952 H936 0.959 . S
C952 H937 0.959 . S
C952 H938 0.961 . S
C952 C951 1.502 . S
C953 H939 0.960 . S
C953 H940 0.961 . S
C953 H941 0.959 . S
C953 C951 1.561 . S
C954 C951 1.526 . S
C954 C955 1.396 . S
C954 C959 1.390 . S
C955 C949 1.465 . S
C955 C954 1.396 . S
C955 C956 1.399 . S
C956 H942 0.929 . S
C956 C955 1.399 . S
C956 C957 1.385 . S
C957 H943 0.931 . S
C957 C956 1.385 . S
C957 C958 1.389 . S
C958 C957 1.389 . S
C958 C959 1.387 . S
C959 H944 0.930 . S
C959 C954 1.390 . S
C959 C958 1.387 . S
H960 C972 0.930 . S
H961 C974 0.930 . S
H962 C975 0.930 . S
H963 C979 0.959 . S
H964 C979 0.959 . S
H965 C979 0.961 . S
H966 C980 0.960 . S
H967 C980 0.961 . S
H968 C980 0.959 . S
H969 C983 0.929 . S
H970 C984 0.931 . S
H971 C986 0.930 . S
C972 H960 0.930 . S
C972 C973 1.399 . S
C972 C977 1.399 . S
C973 C972 1.399 . S
C973 C974 1.376 . S
C974 H961 0.930 . S
C974 C973 1.376 . S
C974 C975 1.388 . S
C975 H962 0.930 . S
C975 C974 1.388 . S
C975 C976 1.390 . S
C976 C975 1.390 . S
C976 C977 1.394 . S
C976 C982 1.465 . S
C977 C972 1.399 . S
C977 C976 1.394 . S
C977 C978 1.516 . S
C978 C977 1.516 . S
C978 C979 1.502 . S
C978 C980 1.561 . S
C978 C981 1.526 . S
C979 H963 0.959 . S
C979 H964 0.959 . S
C979 H965 0.961 . S
C979 C978 1.502 . S
C980 H966 0.960 . S
C980 H967 0.961 . S
C980 H968 0.959 . S
C980 C978 1.561 . S
C981 C978 1.526 . S
C981 C982 1.396 . S
C981 C986 1.390 . S
C982 C976 1.465 . S
C982 C981 1.396 . S
C982 C983 1.399 . S
C983 H969 0.929 . S
C983 C982 1.399 . S
C983 C984 1.385 . S
C984 H970 0.931 . S
C984 C983 1.385 . S
C984 C985 1.389 . S
C985 C984 1.389 . S
C985 C986 1.387 . S
C986 H971 0.930 . S
C986 C981 1.390 . S
C986 C985 1.387 . S
H987 C999 0.930 . S
H988 C1001 0.930 . S
H989 C1002 0.930 . S
H990 C1006 0.959 . S
H991 C1006 0.959 . S
H992 C1006 0.961 . S
H993 C1007 0.960 . S
H994 C1007 0.961 . S
H995 C1007 0.959 . S
H996 C1010 0.929 . S
H997 C1011 0.931 . S
H998 C1013 0.930 . S
C999 H987 0.930 . S
C999 C1000 1.399 . S
C999 C1004 1.399 . S
C1000 C999 1.399 . S
C1000 C1001 1.376 . S
C1001 H988 0.930 . S
C1001 C1000 1.376 . S
C1001 C1002 1.388 . S
C1002 H989 0.930 . S
C1002 C1001 1.388 . S
C1002 C1003 1.390 . S
C1003 C1002 1.390 . S
C1003 C1004 1.394 . S
C1003 C1009 1.465 . S
C1004 C999 1.399 . S
C1004 C1003 1.394 . S
C1004 C1005 1.516 . S
C1005 C1004 1.516 . S
C1005 C1006 1.502 . S
C1005 C1007 1.561 . S
C1005 C1008 1.526 . S
C1006 H990 0.959 . S
C1006 H991 0.959 . S
C1006 H992 0.961 . S
C1006 C1005 1.502 . S
C1007 H993 0.960 . S
C1007 H994 0.961 . S
C1007 H995 0.959 . S
C1007 C1005 1.561 . S
C1008 C1005 1.526 . S
C1008 C1009 1.396 . S
C1008 C1013 1.390 . S
C1009 C1003 1.465 . S
C1009 C1008 1.396 . S
C1009 C1010 1.399 . S
C1010 H996 0.929 . S
C1010 C1009 1.399 . S
C1010 C1011 1.385 . S
C1011 H997 0.931 . S
C1011 C1010 1.385 . S
C1011 C1012 1.389 . S
C1012 C1011 1.389 . S
C1012 C1013 1.387 . S
C1013 H998 0.930 . S
C1013 C1008 1.390 . S
C1013 C1012 1.387 . S
H1014 C1026 0.930 . S
H1015 C1028 0.930 . S
H1016 C1029 0.930 . S
H1017 C1033 0.959 . S
H1018 C1033 0.959 . S
H1019 C1033 0.961 . S
H1020 C1034 0.960 . S
H1021 C1034 0.961 . S
H1022 C1034 0.959 . S
H1023 C1037 0.929 . S
H1024 C1038 0.931 . S
H1025 C1040 0.930 . S
C1026 H1014 0.930 . S
C1026 C1027 1.399 . S
C1026 C1031 1.399 . S
C1027 C1026 1.399 . S
C1027 C1028 1.376 . S
C1028 H1015 0.930 . S
C1028 C1027 1.376 . S
C1028 C1029 1.388 . S
C1029 H1016 0.930 . S
C1029 C1028 1.388 . S
C1029 C1030 1.390 . S
C1030 C1029 1.390 . S
C1030 C1031 1.394 . S
C1030 C1036 1.465 . S
C1031 C1026 1.399 . S
C1031 C1030 1.394 . S
C1031 C1032 1.516 . S
C1032 C1031 1.516 . S
C1032 C1033 1.502 . S
C1032 C1034 1.561 . S
C1032 C1035 1.526 . S
C1033 H1017 0.959 . S
C1033 H1018 0.959 . S
C1033 H1019 0.961 . S
C1033 C1032 1.502 . S
C1034 H1020 0.960 . S
C1034 H1021 0.961 . S
C1034 H1022 0.959 . S
C1034 C1032 1.561 . S
C1035 C1032 1.526 . S
C1035 C1036 1.396 . S
C1035 C1040 1.390 . S
C1036 C1030 1.465 . S
C1036 C1035 1.396 . S
C1036 C1037 1.399 . S
C1037 H1023 0.929 . S
C1037 C1036 1.399 . S
C1037 C1038 1.385 . S
C1038 H1024 0.931 . S
C1038 C1037 1.385 . S
C1038 C1039 1.389 . S
C1039 C1038 1.389 . S
C1039 C1040 1.387 . S
C1040 H1025 0.930 . S
C1040 C1035 1.390 . S
C1040 C1039 1.387 . S
H1041 C1053 0.930 . S
H1042 C1055 0.930 . S
H1043 C1056 0.930 . S
H1044 C1060 0.959 . S
H1045 C1060 0.959 . S
H1046 C1060 0.961 . S
H1047 C1061 0.960 . S
H1048 C1061 0.961 . S
H1049 C1061 0.959 . S
H1050 C1064 0.929 . S
H1051 C1065 0.931 . S
H1052 C1067 0.930 . S
C1053 H1041 0.930 . S
C1053 C1054 1.399 . S
C1053 C1058 1.399 . S
C1054 C1053 1.399 . S
C1054 C1055 1.376 . S
C1055 H1042 0.930 . S
C1055 C1054 1.376 . S
C1055 C1056 1.388 . S
C1056 H1043 0.930 . S
C1056 C1055 1.388 . S
C1056 C1057 1.390 . S
C1057 C1056 1.390 . S
C1057 C1058 1.394 . S
C1057 C1063 1.465 . S
C1058 C1053 1.399 . S
C1058 C1057 1.394 . S
C1058 C1059 1.516 . S
C1059 C1058 1.516 . S
C1059 C1060 1.502 . S
C1059 C1061 1.561 . S
C1059 C1062 1.526 . S
C1060 H1044 0.959 . S
C1060 H1045 0.959 . S
C1060 H1046 0.961 . S
C1060 C1059 1.502 . S
C1061 H1047 0.960 . S
C1061 H1048 0.961 . S
C1061 H1049 0.959 . S
C1061 C1059 1.561 . S
C1062 C1059 1.526 . S
C1062 C1063 1.396 . S
C1062 C1067 1.390 . S
C1063 C1057 1.465 . S
C1063 C1062 1.396 . S
C1063 C1064 1.399 . S
C1064 H1050 0.929 . S
C1064 C1063 1.399 . S
C1064 C1065 1.385 . S
C1065 H1051 0.931 . S
C1065 C1064 1.385 . S
C1065 C1066 1.389 . S
C1066 C1065 1.389 . S
C1066 C1067 1.387 . S
C1067 H1052 0.930 . S
C1067 C1062 1.390 . S
C1067 C1066 1.387 . S
H1068 C1080 0.930 . S
H1069 C1082 0.930 . S
H1070 C1083 0.930 . S
H1071 C1087 0.959 . S
H1072 C1087 0.959 . S
H1073 C1087 0.961 . S
H1074 C1088 0.960 . S
H1075 C1088 0.961 . S
H1076 C1088 0.959 . S
H1077 C1091 0.929 . S
H1078 C1092 0.931 . S
H1079 C1094 0.930 . S
C1080 H1068 0.930 . S
C1080 C1081 1.399 . S
C1080 C1085 1.399 . S
C1081 C1080 1.399 . S
C1081 C1082 1.376 . S
C1082 H1069 0.930 . S
C1082 C1081 1.376 . S
C1082 C1083 1.388 . S
C1083 H1070 0.930 . S
C1083 C1082 1.388 . S
C1083 C1084 1.390 . S
C1084 C1083 1.390 . S
C1084 C1085 1.394 . S
C1084 C1090 1.465 . S
C1085 C1080 1.399 . S
C1085 C1084 1.394 . S
C1085 C1086 1.516 . S
C1086 C1085 1.516 . S
C1086 C1087 1.502 . S
C1086 C1088 1.561 . S
C1086 C1089 1.526 . S
C1087 H1071 0.959 . S
C1087 H1072 0.959 . S
C1087 H1073 0.961 . S
C1087 C1086 1.502 . S
C1088 H1074 0.960 . S
C1088 H1075 0.961 . S
C1088 H1076 0.959 . S
C1088 C1086 1.561 . S
C1089 C1086 1.526 . S
C1089 C1090 1.396 . S
C1089 C1094 1.390 . S
C1090 C1084 1.465 . S
C1090 C1089 1.396 . S
C1090 C1091 1.399 . S
C1091 H1077 0.929 . S
C1091 C1090 1.399 . S
C1091 C1092 1.385 . S
C1092 H1078 0.931 . S
C1092 C1091 1.385 . S
C1092 C1093 1.389 . S
C1093 C1092 1.389 . S
C1093 C1094 1.387 . S
C1094 H1079 0.930 . S
C1094 C1089 1.390 . S
C1094 C1093 1.387 . S
H1095 C1107 0.930 . S
H1096 C1109 0.930 . S
H1097 C1110 0.930 . S
H1098 C1114 0.959 . S
H1099 C1114 0.959 . S
H1100 C1114 0.961 . S
H1101 C1115 0.960 . S
H1102 C1115 0.961 . S
H1103 C1115 0.959 . S
H1104 C1118 0.929 . S
H1105 C1119 0.931 . S
H1106 C1121 0.930 . S
C1107 H1095 0.930 . S
C1107 C1108 1.399 . S
C1107 C1112 1.399 . S
C1108 C1107 1.399 . S
C1108 C1109 1.376 . S
C1109 H1096 0.930 . S
C1109 C1108 1.376 . S
C1109 C1110 1.388 . S
C1110 H1097 0.930 . S
C1110 C1109 1.388 . S
C1110 C1111 1.390 . S
C1111 C1110 1.390 . S
C1111 C1112 1.394 . S
C1111 C1117 1.465 . S
C1112 C1107 1.399 . S
C1112 C1111 1.394 . S
C1112 C1113 1.516 . S
C1113 C1112 1.516 . S
C1113 C1114 1.502 . S
C1113 C1115 1.561 . S
C1113 C1116 1.526 . S
C1114 H1098 0.959 . S
C1114 H1099 0.959 . S
C1114 H1100 0.961 . S
C1114 C1113 1.502 . S
C1115 H1101 0.960 . S
C1115 H1102 0.961 . S
C1115 H1103 0.959 . S
C1115 C1113 1.561 . S
C1116 C1113 1.526 . S
C1116 C1117 1.396 . S
C1116 C1121 1.390 . S
C1117 C1111 1.465 . S
C1117 C1116 1.396 . S
C1117 C1118 1.399 . S
C1118 H1104 0.929 . S
C1118 C1117 1.399 . S
C1118 C1119 1.385 . S
C1119 H1105 0.931 . S
C1119 C1118 1.385 . S
C1119 C1120 1.389 . S
C1120 C1119 1.389 . S
C1120 C1121 1.387 . S
C1121 H1106 0.930 . S
C1121 C1116 1.390 . S
C1121 C1120 1.387 . S
H1122 C1134 0.930 . S
H1123 C1136 0.930 . S
H1124 C1137 0.930 . S
H1125 C1141 0.959 . S
H1126 C1141 0.959 . S
H1127 C1141 0.961 . S
H1128 C1142 0.960 . S
H1129 C1142 0.961 . S
H1130 C1142 0.959 . S
H1131 C1145 0.929 . S
H1132 C1146 0.931 . S
H1133 C1148 0.930 . S
C1134 H1122 0.930 . S
C1134 C1135 1.399 . S
C1134 C1139 1.399 . S
C1135 C1134 1.399 . S
C1135 C1136 1.376 . S
C1136 H1123 0.930 . S
C1136 C1135 1.376 . S
C1136 C1137 1.388 . S
C1137 H1124 0.930 . S
C1137 C1136 1.388 . S
C1137 C1138 1.390 . S
C1138 C1137 1.390 . S
C1138 C1139 1.394 . S
C1138 C1144 1.465 . S
C1139 C1134 1.399 . S
C1139 C1138 1.394 . S
C1139 C1140 1.516 . S
C1140 C1139 1.516 . S
C1140 C1141 1.502 . S
C1140 C1142 1.561 . S
C1140 C1143 1.526 . S
C1141 H1125 0.959 . S
C1141 H1126 0.959 . S
C1141 H1127 0.961 . S
C1141 C1140 1.502 . S
C1142 H1128 0.960 . S
C1142 H1129 0.961 . S
C1142 H1130 0.959 . S
C1142 C1140 1.561 . S
C1143 C1140 1.526 . S
C1143 C1144 1.396 . S
C1143 C1148 1.390 . S
C1144 C1138 1.465 . S
C1144 C1143 1.396 . S
C1144 C1145 1.399 . S
C1145 H1131 0.929 . S
C1145 C1144 1.399 . S
C1145 C1146 1.385 . S
C1146 H1132 0.931 . S
C1146 C1145 1.385 . S
C1146 C1147 1.389 . S
C1147 C1146 1.389 . S
C1147 C1148 1.387 . S
C1148 H1133 0.930 . S
C1148 C1143 1.390 . S
C1148 C1147 1.387 . S
H1149 C1161 0.930 . S
H1150 C1163 0.930 . S
H1151 C1164 0.930 . S
H1152 C1168 0.959 . S
H1153 C1168 0.959 . S
H1154 C1168 0.961 . S
H1155 C1169 0.960 . S
H1156 C1169 0.961 . S
H1157 C1169 0.959 . S
H1158 C1172 0.929 . S
H1159 C1173 0.931 . S
H1160 C1175 0.930 . S
C1161 H1149 0.930 . S
C1161 C1162 1.399 . S
C1161 C1166 1.399 . S
C1162 C1161 1.399 . S
C1162 C1163 1.376 . S
C1163 H1150 0.930 . S
C1163 C1162 1.376 . S
C1163 C1164 1.388 . S
C1164 H1151 0.930 . S
C1164 C1163 1.388 . S
C1164 C1165 1.390 . S
C1165 C1164 1.390 . S
C1165 C1166 1.394 . S
C1165 C1171 1.465 . S
C1166 C1161 1.399 . S
C1166 C1165 1.394 . S
C1166 C1167 1.516 . S
C1167 C1166 1.516 . S
C1167 C1168 1.502 . S
C1167 C1169 1.561 . S
C1167 C1170 1.526 . S
C1168 H1152 0.959 . S
C1168 H1153 0.959 . S
C1168 H1154 0.961 . S
C1168 C1167 1.502 . S
C1169 H1155 0.960 . S
C1169 H1156 0.961 . S
C1169 H1157 0.959 . S
C1169 C1167 1.561 . S
C1170 C1167 1.526 . S
C1170 C1171 1.396 . S
C1170 C1175 1.390 . S
C1171 C1165 1.465 . S
C1171 C1170 1.396 . S
C1171 C1172 1.399 . S
C1172 H1158 0.929 . S
C1172 C1171 1.399 . S
C1172 C1173 1.385 . S
C1173 H1159 0.931 . S
C1173 C1172 1.385 . S
C1173 C1174 1.389 . S
C1174 C1173 1.389 . S
C1174 C1175 1.387 . S
C1175 H1160 0.930 . S
C1175 C1170 1.390 . S
C1175 C1174 1.387 . S
H1176 C1188 0.930 . S
H1177 C1190 0.930 . S
H1178 C1191 0.930 . S
H1179 C1195 0.959 . S
H1180 C1195 0.959 . S
H1181 C1195 0.961 . S
H1182 C1196 0.960 . S
H1183 C1196 0.961 . S
H1184 C1196 0.959 . S
H1185 C1199 0.929 . S
H1186 C1200 0.931 . S
H1187 C1202 0.930 . S
C1188 H1176 0.930 . S
C1188 C1189 1.399 . S
C1188 C1193 1.399 . S
C1189 C1188 1.399 . S
C1189 C1190 1.376 . S
C1190 H1177 0.930 . S
C1190 C1189 1.376 . S
C1190 C1191 1.388 . S
C1191 H1178 0.930 . S
C1191 C1190 1.388 . S
C1191 C1192 1.390 . S
C1192 C1191 1.390 . S
C1192 C1193 1.394 . S
C1192 C1198 1.465 . S
C1193 C1188 1.399 . S
C1193 C1192 1.394 . S
C1193 C1194 1.516 . S
C1194 C1193 1.516 . S
C1194 C1195 1.502 . S
C1194 C1196 1.561 . S
C1194 C1197 1.526 . S
C1195 H1179 0.959 . S
C1195 H1180 0.959 . S
C1195 H1181 0.961 . S
C1195 C1194 1.502 . S
C1196 H1182 0.960 . S
C1196 H1183 0.961 . S
C1196 H1184 0.959 . S
C1196 C1194 1.561 . S
C1197 C1194 1.526 . S
C1197 C1198 1.396 . S
C1197 C1202 1.390 . S
C1198 C1192 1.465 . S
C1198 C1197 1.396 . S
C1198 C1199 1.399 . S
C1199 H1185 0.929 . S
C1199 C1198 1.399 . S
C1199 C1200 1.385 . S
C1200 H1186 0.931 . S
C1200 C1199 1.385 . S
C1200 C1201 1.389 . S
C1201 C1200 1.389 . S
C1201 C1202 1.387 . S
C1202 H1187 0.930 . S
C1202 C1197 1.390 . S
C1202 C1201 1.387 . S
H1203 C1215 0.930 . S
H1204 C1217 0.930 . S
H1205 C1218 0.930 . S
H1206 C1222 0.959 . S
H1207 C1222 0.959 . S
H1208 C1222 0.961 . S
H1209 C1223 0.960 . S
H1210 C1223 0.961 . S
H1211 C1223 0.959 . S
H1212 C1226 0.929 . S
H1213 C1227 0.931 . S
H1214 C1229 0.930 . S
C1215 H1203 0.930 . S
C1215 C1216 1.399 . S
C1215 C1220 1.399 . S
C1216 C1215 1.399 . S
C1216 C1217 1.376 . S
C1217 H1204 0.930 . S
C1217 C1216 1.376 . S
C1217 C1218 1.388 . S
C1218 H1205 0.930 . S
C1218 C1217 1.388 . S
C1218 C1219 1.390 . S
C1219 C1218 1.390 . S
C1219 C1220 1.394 . S
C1219 C1225 1.465 . S
C1220 C1215 1.399 . S
C1220 C1219 1.394 . S
C1220 C1221 1.516 . S
C1221 C1220 1.516 . S
C1221 C1222 1.502 . S
C1221 C1223 1.561 . S
C1221 C1224 1.526 . S
C1222 H1206 0.959 . S
C1222 H1207 0.959 . S
C1222 H1208 0.961 . S
C1222 C1221 1.502 . S
C1223 H1209 0.960 . S
C1223 H1210 0.961 . S
C1223 H1211 0.959 . S
C1223 C1221 1.561 . S
C1224 C1221 1.526 . S
C1224 C1225 1.396 . S
C1224 C1229 1.390 . S
C1225 C1219 1.465 . S
C1225 C1224 1.396 . S
C1225 C1226 1.399 . S
C1226 H1212 0.929 . S
C1226 C1225 1.399 . S
C1226 C1227 1.385 . S
C1227 H1213 0.931 . S
C1227 C1226 1.385 . S
C1227 C1228 1.389 . S
C1228 C1227 1.389 . S
C1228 C1229 1.387 . S
C1229 H1214 0.930 . S
C1229 C1224 1.390 . S
C1229 C1228 1.387 . S
H1230 C1242 0.930 . S
H1231 C1244 0.930 . S
H1232 C1245 0.930 . S
H1233 C1249 0.959 . S
H1234 C1249 0.959 . S
H1235 C1249 0.961 . S
H1236 C1250 0.960 . S
H1237 C1250 0.961 . S
H1238 C1250 0.959 . S
H1239 C1253 0.929 . S
H1240 C1254 0.931 . S
H1241 C1256 0.930 . S
C1242 H1230 0.930 . S
C1242 C1243 1.399 . S
C1242 C1247 1.399 . S
C1243 C1242 1.399 . S
C1243 C1244 1.376 . S
C1244 H1231 0.930 . S
C1244 C1243 1.376 . S
C1244 C1245 1.388 . S
C1245 H1232 0.930 . S
C1245 C1244 1.388 . S
C1245 C1246 1.390 . S
C1246 C1245 1.390 . S
C1246 C1247 1.394 . S
C1246 C1252 1.465 . S
C1247 C1242 1.399 . S
C1247 C1246 1.394 . S
C1247 C1248 1.516 . S
C1248 C1247 1.516 . S
C1248 C1249 1.502 . S
C1248 C1250 1.561 . S
C1248 C1251 1.526 . S
C1249 H1233 0.959 . S
C1249 H1234 0.959 . S
C1249 H1235 0.961 . S
C1249 C1248 1.502 . S
C1250 H1236 0.960 . S
C1250 H1237 0.961 . S
C1250 H1238 0.959 . S
C1250 C1248 1.561 . S
C1251 C1248 1.526 . S
C1251 C1252 1.396 . S
C1251 C1256 1.390 . S
C1252 C1246 1.465 . S
C1252 C1251 1.396 . S
C1252 C1253 1.399 . S
C1253 H1239 0.929 . S
C1253 C1252 1.399 . S
C1253 C1254 1.385 . S
C1254 H1240 0.931 . S
C1254 C1253 1.385 . S
C1254 C1255 1.389 . S
C1255 C1254 1.389 . S
C1255 C1256 1.387 . S
C1256 H1241 0.930 . S
C1256 C1251 1.390 . S
C1256 C1255 1.387 . S
H1257 C1269 0.930 . S
H1258 C1271 0.930 . S
H1259 C1272 0.930 . S
H1260 C1276 0.959 . S
H1261 C1276 0.959 . S
H1262 C1276 0.961 . S
H1263 C1277 0.960 . S
H1264 C1277 0.961 . S
H1265 C1277 0.959 . S
H1266 C1280 0.929 . S
H1267 C1281 0.931 . S
H1268 C1283 0.930 . S
C1269 H1257 0.930 . S
C1269 C1270 1.399 . S
C1269 C1274 1.399 . S
C1270 C1269 1.399 . S
C1270 C1271 1.376 . S
C1271 H1258 0.930 . S
C1271 C1270 1.376 . S
C1271 C1272 1.388 . S
C1272 H1259 0.930 . S
C1272 C1271 1.388 . S
C1272 C1273 1.390 . S
C1273 C1272 1.390 . S
C1273 C1274 1.394 . S
C1273 C1279 1.465 . S
C1274 C1269 1.399 . S
C1274 C1273 1.394 . S
C1274 C1275 1.516 . S
C1275 C1274 1.516 . S
C1275 C1276 1.502 . S
C1275 C1277 1.561 . S
C1275 C1278 1.526 . S
C1276 H1260 0.959 . S
C1276 H1261 0.959 . S
C1276 H1262 0.961 . S
C1276 C1275 1.502 . S
C1277 H1263 0.960 . S
C1277 H1264 0.961 . S
C1277 H1265 0.959 . S
C1277 C1275 1.561 . S
C1278 C1275 1.526 . S
C1278 C1279 1.396 . S
C1278 C1283 1.390 . S
C1279 C1273 1.465 . S
C1279 C1278 1.396 . S
C1279 C1280 1.399 . S
C1280 H1266 0.929 . S
C1280 C1279 1.399 . S
C1280 C1281 1.385 . S
C1281 H1267 0.931 . S
C1281 C1280 1.385 . S
C1281 C1282 1.389 . S
C1282 C1281 1.389 . S
C1282 C1283 1.387 . S
C1283 H1268 0.930 . S
C1283 C1278 1.390 . S
C1283 C1282 1.387 . S
H1284 C1296 0.930 . S
H1285 C1298 0.930 . S
H1286 C1299 0.930 . S
H1287 C1303 0.959 . S
H1288 C1303 0.959 . S
H1289 C1303 0.961 . S
H1290 C1304 0.960 . S
H1291 C1304 0.961 . S
H1292 C1304 0.959 . S
H1293 C1307 0.929 . S
H1294 C1308 0.931 . S
H1295 C1310 0.930 . S
C1296 H1284 0.930 . S
C1296 C1297 1.399 . S
C1296 C1301 1.399 . S
C1297 C1296 1.399 . S
C1297 C1298 1.376 . S
C1298 H1285 0.930 . S
C1298 C1297 1.376 . S
C1298 C1299 1.388 . S
C1299 H1286 0.930 . S
C1299 C1298 1.388 . S
C1299 C1300 1.390 . S
C1300 C1299 1.390 . S
C1300 C1301 1.394 . S
C1300 C1306 1.465 . S
C1301 C1296 1.399 . S
C1301 C1300 1.394 . S
C1301 C1302 1.516 . S
C1302 C1301 1.516 . S
C1302 C1303 1.502 . S
C1302 C1304 1.561 . S
C1302 C1305 1.526 . S
C1303 H1287 0.959 . S
C1303 H1288 0.959 . S
C1303 H1289 0.961 . S
C1303 C1302 1.502 . S
C1304 H1290 0.960 . S
C1304 H1291 0.961 . S
C1304 H1292 0.959 . S
C1304 C1302 1.561 . S
C1305 C1302 1.526 . S
C1305 C1306 1.396 . S
C1305 C1310 1.390 . S
C1306 C1300 1.465 . S
C1306 C1305 1.396 . S
C1306 C1307 1.399 . S
C1307 H1293 0.929 . S
C1307 C1306 1.399 . S
C1307 C1308 1.385 . S
C1308 H1294 0.931 . S
C1308 C1307 1.385 . S
C1308 C1309 1.389 . S
C1309 C1308 1.389 . S
C1309 C1310 1.387 . S
C1310 H1295 0.930 . S
C1310 C1305 1.390 . S
C1310 C1309 1.387 . S
H1311 C1323 0.930 . S
H1312 C1325 0.930 . S
H1313 C1326 0.930 . S
H1314 C1330 0.959 . S
H1315 C1330 0.959 . S
H1316 C1330 0.961 . S
H1317 C1331 0.960 . S
H1318 C1331 0.961 . S
H1319 C1331 0.959 . S
H1320 C1334 0.929 . S
H1321 C1335 0.931 . S
H1322 C1337 0.930 . S
C1323 H1311 0.930 . S
C1323 C1324 1.399 . S
C1323 C1328 1.399 . S
C1324 C1323 1.399 . S
C1324 C1325 1.376 . S
C1325 H1312 0.930 . S
C1325 C1324 1.376 . S
C1325 C1326 1.388 . S
C1326 H1313 0.930 . S
C1326 C1325 1.388 . S
C1326 C1327 1.390 . S
C1327 C1326 1.390 . S
C1327 C1328 1.394 . S
C1327 C1333 1.465 . S
C1328 C1323 1.399 . S
C1328 C1327 1.394 . S
C1328 C1329 1.516 . S
C1329 C1328 1.516 . S
C1329 C1330 1.502 . S
C1329 C1331 1.561 . S
C1329 C1332 1.526 . S
C1330 H1314 0.959 . S
C1330 H1315 0.959 . S
C1330 H1316 0.961 . S
C1330 C1329 1.502 . S
C1331 H1317 0.960 . S
C1331 H1318 0.961 . S
C1331 H1319 0.959 . S
C1331 C1329 1.561 . S
C1332 C1329 1.526 . S
C1332 C1333 1.396 . S
C1332 C1337 1.390 . S
C1333 C1327 1.465 . S
C1333 C1332 1.396 . S
C1333 C1334 1.399 . S
C1334 H1320 0.929 . S
C1334 C1333 1.399 . S
C1334 C1335 1.385 . S
C1335 H1321 0.931 . S
C1335 C1334 1.385 . S
C1335 C1336 1.389 . S
C1336 C1335 1.389 . S
C1336 C1337 1.387 . S
C1337 H1322 0.930 . S
C1337 C1332 1.390 . S
C1337 C1336 1.387 . S
H1338 C1350 0.930 . S
H1339 C1352 0.930 . S
H1340 C1353 0.930 . S
H1341 C1357 0.959 . S
H1342 C1357 0.959 . S
H1343 C1357 0.961 . S
H1344 C1358 0.960 . S
H1345 C1358 0.961 . S
H1346 C1358 0.959 . S
H1347 C1361 0.929 . S
H1348 C1362 0.931 . S
H1349 C1364 0.930 . S
C1350 H1338 0.930 . S
C1350 C1351 1.399 . S
C1350 C1355 1.399 . S
C1351 C1350 1.399 . S
C1351 C1352 1.376 . S
C1352 H1339 0.930 . S
C1352 C1351 1.376 . S
C1352 C1353 1.388 . S
C1353 H1340 0.930 . S
C1353 C1352 1.388 . S
C1353 C1354 1.390 . S
C1354 C1353 1.390 . S
C1354 C1355 1.394 . S
C1354 C1360 1.465 . S
C1355 C1350 1.399 . S
C1355 C1354 1.394 . S
C1355 C1356 1.516 . S
C1356 C1355 1.516 . S
C1356 C1357 1.502 . S
C1356 C1358 1.561 . S
C1356 C1359 1.526 . S
C1357 H1341 0.959 . S
C1357 H1342 0.959 . S
C1357 H1343 0.961 . S
C1357 C1356 1.502 . S
C1358 H1344 0.960 . S
C1358 H1345 0.961 . S
C1358 H1346 0.959 . S
C1358 C1356 1.561 . S
C1359 C1356 1.526 . S
C1359 C1360 1.396 . S
C1359 C1364 1.390 . S
C1360 C1354 1.465 . S
C1360 C1359 1.396 . S
C1360 C1361 1.399 . S
C1361 H1347 0.929 . S
C1361 C1360 1.399 . S
C1361 C1362 1.385 . S
C1362 H1348 0.931 . S
C1362 C1361 1.385 . S
C1362 C1363 1.389 . S
C1363 C1362 1.389 . S
C1363 C1364 1.387 . S
C1364 H1349 0.930 . S
C1364 C1359 1.390 . S
C1364 C1363 1.387 . S
H1365 C1377 0.930 . S
H1366 C1379 0.930 . S
H1367 C1380 0.930 . S
H1368 C1384 0.959 . S
H1369 C1384 0.959 . S
H1370 C1384 0.961 . S
H1371 C1385 0.960 . S
H1372 C1385 0.961 . S
H1373 C1385 0.959 . S
H1374 C1388 0.929 . S
H1375 C1389 0.931 . S
H1376 C1391 0.930 . S
C1377 H1365 0.930 . S
C1377 C1378 1.399 . S
C1377 C1382 1.399 . S
C1378 C1377 1.399 . S
C1378 C1379 1.376 . S
C1379 H1366 0.930 . S
C1379 C1378 1.376 . S
C1379 C1380 1.388 . S
C1380 H1367 0.930 . S
C1380 C1379 1.388 . S
C1380 C1381 1.390 . S
C1381 C1380 1.390 . S
C1381 C1382 1.394 . S
C1381 C1387 1.465 . S
C1382 C1377 1.399 . S
C1382 C1381 1.394 . S
C1382 C1383 1.516 . S
C1383 C1382 1.516 . S
C1383 C1384 1.502 . S
C1383 C1385 1.561 . S
C1383 C1386 1.526 . S
C1384 H1368 0.959 . S
C1384 H1369 0.959 . S
C1384 H1370 0.961 . S
C1384 C1383 1.502 . S
C1385 H1371 0.960 . S
C1385 H1372 0.961 . S
C1385 H1373 0.959 . S
C1385 C1383 1.561 . S
C1386 C1383 1.526 . S
C1386 C1387 1.396 . S
C1386 C1391 1.390 . S
C1387 C1381 1.465 . S
C1387 C1386 1.396 . S
C1387 C1388 1.399 . S
C1388 H1374 0.929 . S
C1388 C1387 1.399 . S
C1388 C1389 1.385 . S
C1389 H1375 0.931 . S
C1389 C1388 1.385 . S
C1389 C1390 1.389 . S
C1390 C1389 1.389 . S
C1390 C1391 1.387 . S
C1391 H1376 0.930 . S
C1391 C1386 1.390 . S
C1391 C1390 1.387 . S
H1392 C1404 0.930 . S
H1393 C1406 0.930 . S
H1394 C1407 0.930 . S
H1395 C1411 0.959 . S
H1396 C1411 0.959 . S
H1397 C1411 0.961 . S
H1398 C1412 0.960 . S
H1399 C1412 0.961 . S
H1400 C1412 0.959 . S
H1401 C1415 0.929 . S
H1402 C1416 0.931 . S
H1403 C1418 0.930 . S
C1404 H1392 0.930 . S
C1404 C1405 1.399 1_655 S
C1404 C1409 1.399 . S
C1405 C1404 1.399 1_455 S
C1405 C1406 1.376 . S
C1406 H1393 0.930 . S
C1406 C1405 1.376 . S
C1406 C1407 1.388 . S
C1407 H1394 0.930 . S
C1407 C1406 1.388 . S
C1407 C1408 1.390 . S
C1408 C1407 1.390 . S
C1408 C1409 1.394 1_455 S
C1408 C1414 1.465 . S
C1409 C1404 1.399 . S
C1409 C1408 1.394 1_655 S
C1409 C1410 1.516 . S
C1410 C1409 1.516 . S
C1410 C1411 1.502 . S
C1410 C1412 1.561 1_655 S
C1410 C1413 1.526 . S
C1411 H1395 0.959 . S
C1411 H1396 0.959 . S
C1411 H1397 0.961 . S
C1411 C1410 1.502 . S
C1412 H1398 0.960 . S
C1412 H1399 0.961 . S
C1412 H1400 0.959 . S
C1412 C1410 1.561 1_455 S
C1413 C1410 1.526 . S
C1413 C1414 1.396 1_655 S
C1413 C1418 1.390 . S
C1414 C1408 1.465 . S
C1414 C1413 1.396 1_455 S
C1414 C1415 1.399 . S
C1415 H1401 0.929 . S
C1415 C1414 1.399 . S
C1415 C1416 1.385 . S
C1416 H1402 0.931 . S
C1416 C1415 1.385 . S
C1416 C1417 1.389 1_455 S
C1417 C1416 1.389 1_655 S
C1417 C1418 1.387 . S
C1418 H1403 0.930 . S
C1418 C1413 1.390 . S
C1418 C1417 1.387 . S
H1419 C1431 0.930 . S
H1420 C1433 0.930 . S
H1421 C1434 0.930 . S
H1422 C1438 0.959 . S
H1423 C1438 0.959 . S
H1424 C1438 0.961 . S
H1425 C1439 0.960 . S
H1426 C1439 0.961 . S
H1427 C1439 0.959 . S
H1428 C1442 0.929 . S
H1429 C1443 0.931 . S
H1430 C1445 0.930 . S
C1431 H1419 0.930 . S
C1431 C1432 1.399 . S
C1431 C1436 1.399 . S
C1432 C1431 1.399 . S
C1432 C1433 1.376 1_565 S
C1433 H1420 0.930 . S
C1433 C1432 1.376 1_545 S
C1433 C1434 1.388 . S
C1434 H1421 0.930 . S
C1434 C1433 1.388 . S
C1434 C1435 1.390 . S
C1435 C1434 1.390 . S
C1435 C1436 1.394 1_545 S
C1435 C1441 1.465 . S
C1436 C1431 1.399 . S
C1436 C1435 1.394 1_565 S
C1436 C1437 1.516 . S
C1437 C1436 1.516 . S
C1437 C1438 1.502 . S
C1437 C1439 1.561 . S
C1437 C1440 1.526 . S
C1438 H1422 0.959 . S
C1438 H1423 0.959 . S
C1438 H1424 0.961 . S
C1438 C1437 1.502 . S
C1439 H1425 0.960 . S
C1439 H1426 0.961 . S
C1439 H1427 0.959 . S
C1439 C1437 1.561 . S
C1440 C1437 1.526 . S
C1440 C1441 1.396 1_565 S
C1440 C1445 1.390 . S
C1441 C1435 1.465 . S
C1441 C1440 1.396 1_545 S
C1441 C1442 1.399 . S
C1442 H1428 0.929 . S
C1442 C1441 1.399 . S
C1442 C1443 1.385 . S
C1443 H1429 0.931 . S
C1443 C1442 1.385 . S
C1443 C1444 1.389 . S
C1444 C1443 1.389 . S
C1444 C1445 1.387 1_545 S
C1445 H1430 0.930 . S
C1445 C1440 1.390 . S
C1445 C1444 1.387 1_565 S
H1446 C1458 0.935 . S
H1447 C1460 0.930 . S
H1448 C1461 0.930 . S
H1449 C1465 0.959 . S
H1450 C1465 0.959 . S
H1451 C1465 0.961 . S
H1452 C1466 0.960 . S
H1453 C1466 0.961 . S
H1454 C1466 0.959 . S
H1455 C1469 0.929 . S
H1456 C1470 0.931 . S
H1457 C1472 0.930 . S
C1458 H1446 0.935 . S
C1458 C1459 1.395 1_655 S
C1458 C1463 1.398 1_655 S
C1459 C1458 1.395 1_455 S
C1459 C1460 1.376 . S
C1460 H1447 0.930 . S
C1460 C1459 1.376 . S
C1460 C1461 1.388 . S
C1461 H1448 0.930 . S
C1461 C1460 1.388 . S
C1461 C1462 1.390 . S
C1462 C1461 1.390 . S
C1462 C1463 1.400 . S
C1462 C1468 1.465 . S
C1463 C1458 1.398 1_455 S
C1463 C1462 1.400 . S
C1463 C1464 1.513 1_455 S
C1464 C1463 1.513 1_655 S
C1464 C1465 1.502 . S
C1464 C1466 1.561 1_655 S
C1464 C1467 1.526 . S
C1465 H1449 0.959 . S
C1465 H1450 0.959 . S
C1465 H1451 0.961 . S
C1465 C1464 1.502 . S
C1466 H1452 0.960 . S
C1466 H1453 0.961 . S
C1466 H1454 0.959 . S
C1466 C1464 1.561 1_455 S
C1467 C1464 1.526 . S
C1467 C1468 1.396 1_655 S
C1467 C1472 1.390 . S
C1468 C1462 1.465 . S
C1468 C1467 1.396 1_455 S
C1468 C1469 1.399 . S
C1469 H1455 0.929 . S
C1469 C1468 1.399 . S
C1469 C1470 1.385 . S
C1470 H1456 0.931 . S
C1470 C1469 1.385 . S
C1470 C1471 1.389 1_455 S
C1471 C1470 1.389 1_655 S
C1471 C1472 1.387 . S
C1472 H1457 0.930 . S
C1472 C1467 1.390 . S
C1472 C1471 1.387 . S
H1473 C1485 0.930 . S
H1474 C1487 0.930 . S
H1475 C1488 0.930 . S
H1476 C1492 0.959 . S
H1477 C1492 0.959 . S
H1478 C1492 0.961 . S
H1479 C1493 0.960 . S
H1480 C1493 0.961 . S
H1481 C1493 0.959 . S
H1482 C1496 0.929 . S
H1483 C1497 0.931 . S
H1484 C1499 0.930 . S
C1485 H1473 0.930 . S
C1485 C1486 1.399 1_565 S
C1485 C1490 1.399 . S
C1486 C1485 1.399 1_545 S
C1486 C1487 1.376 . S
C1487 H1474 0.930 . S
C1487 C1486 1.376 . S
C1487 C1488 1.388 . S
C1488 H1475 0.930 . S
C1488 C1487 1.388 . S
C1488 C1489 1.390 . S
C1489 C1488 1.390 . S
C1489 C1490 1.394 1_545 S
C1489 C1495 1.465 . S
C1490 C1485 1.399 . S
C1490 C1489 1.394 1_565 S
C1490 C1491 1.516 . S
C1491 C1490 1.516 . S
C1491 C1492 1.502 . S
C1491 C1493 1.561 . S
C1491 C1494 1.526 . S
C1492 H1476 0.959 . S
C1492 H1477 0.959 . S
C1492 H1478 0.961 . S
C1492 C1491 1.502 . S
C1493 H1479 0.960 . S
C1493 H1480 0.961 . S
C1493 H1481 0.959 . S
C1493 C1491 1.561 . S
C1494 C1491 1.526 . S
C1494 C1495 1.396 1_565 S
C1494 C1499 1.390 . S
C1495 C1489 1.465 . S
C1495 C1494 1.396 1_545 S
C1495 C1496 1.399 . S
C1496 H1482 0.929 . S
C1496 C1495 1.399 . S
C1496 C1497 1.385 . S
C1497 H1483 0.931 . S
C1497 C1496 1.385 . S
C1497 C1498 1.389 1_545 S
C1498 C1497 1.389 1_565 S
C1498 C1499 1.387 . S
C1499 H1484 0.930 . S
C1499 C1494 1.390 . S
C1499 C1498 1.387 . S
H1500 C1512 0.930 . S
H1501 C1514 0.930 . S
H1502 C1515 0.930 . S
H1503 C1519 0.959 1_554 S
H1504 C1519 0.941 1_554 S
H1505 C1519 0.981 . S
H1506 C1520 0.960 1_556 S
H1507 C1520 0.961 . S
H1508 C1520 0.959 . S
H1509 C1523 0.929 . S
H1510 C1524 0.931 . S
H1511 C1526 0.930 . S
C1512 H1500 0.930 . S
C1512 C1513 1.399 . S
C1512 C1517 1.399 . S
C1513 C1512 1.399 . S
C1513 C1514 1.376 . S
C1514 H1501 0.930 . S
C1514 C1513 1.376 . S
C1514 C1515 1.388 . S
C1515 H1502 0.930 . S
C1515 C1514 1.388 . S
C1515 C1516 1.390 . S
C1516 C1515 1.390 . S
C1516 C1517 1.394 . S
C1516 C1522 1.465 1_556 S
C1517 C1512 1.399 . S
C1517 C1516 1.394 . S
C1517 C1518 1.518 1_556 S
C1518 C1517 1.518 1_554 S
C1518 C1519 1.501 1_554 S
C1518 C1520 1.561 . S
C1518 C1521 1.523 . S
C1519 H1503 0.959 1_556 S
C1519 H1504 0.941 1_556 S
C1519 H1505 0.981 . S
C1519 C1518 1.501 1_556 S
C1520 H1506 0.960 1_554 S
C1520 H1507 0.961 . S
C1520 H1508 0.959 . S
C1520 C1518 1.561 . S
C1521 C1518 1.523 . S
C1521 C1522 1.396 . S
C1521 C1526 1.390 . S
C1522 C1516 1.465 1_554 S
C1522 C1521 1.396 . S
C1522 C1523 1.399 . S
C1523 H1509 0.929 . S
C1523 C1522 1.399 . S
C1523 C1524 1.385 . S
C1524 H1510 0.931 . S
C1524 C1523 1.385 . S
C1524 C1525 1.389 . S
C1525 C1524 1.389 . S
C1525 C1526 1.387 . S
C1526 H1511 0.930 . S
C1526 C1521 1.390 . S
C1526 C1525 1.387 . S
H1527 C1539 0.930 . S
H1528 C1541 0.930 . S
H1529 C1542 0.930 . S
H1530 C1546 0.959 . S
H1531 C1546 0.959 . S
H1532 C1546 0.961 1_554 S
H1533 C1547 0.960 1_554 S
H1534 C1547 0.961 . S
H1535 C1547 0.959 . S
H1536 C1550 0.929 . S
H1537 C1551 0.931 . S
H1538 C1553 0.930 . S
C1539 H1527 0.930 . S
C1539 C1540 1.399 . S
C1539 C1544 1.399 . S
C1540 C1539 1.399 . S
C1540 C1541 1.376 . S
C1541 H1528 0.930 . S
C1541 C1540 1.376 . S
C1541 C1542 1.388 . S
C1542 H1529 0.930 . S
C1542 C1541 1.388 . S
C1542 C1543 1.390 . S
C1543 C1542 1.390 . S
C1543 C1544 1.394 . S
C1543 C1549 1.465 1_554 S
C1544 C1539 1.399 . S
C1544 C1543 1.394 . S
C1544 C1545 1.468 1_554 S
C1545 C1544 1.468 1_556 S
C1545 C1546 1.504 . S
C1545 C1547 1.566 . S
C1545 C1548 1.572 . S
C1546 H1530 0.959 . S
C1546 H1531 0.959 . S
C1546 H1532 0.961 1_556 S
C1546 C1545 1.504 . S
C1547 H1533 0.960 1_556 S
C1547 H1534 0.961 . S
C1547 H1535 0.959 . S
C1547 C1545 1.566 . S
C1548 C1545 1.572 . S
C1548 C1549 1.396 . S
C1548 C1553 1.390 . S
C1549 C1543 1.465 1_556 S
C1549 C1548 1.396 . S
C1549 C1550 1.399 . S
C1550 H1536 0.929 . S
C1550 C1549 1.399 . S
C1550 C1551 1.385 . S
C1551 H1537 0.931 . S
C1551 C1550 1.385 . S
C1551 C1552 1.389 . S
C1552 C1551 1.389 . S
C1552 C1553 1.387 . S
C1553 H1538 0.930 . S
C1553 C1548 1.390 . S
C1553 C1552 1.387 . S
H1554 C1566 0.930 . S
H1555 C1568 0.930 . S
H1556 C1569 0.930 . S
H1557 C1573 0.958 . S
H1558 C1573 0.924 1_556 S
H1559 C1573 1.000 . S
H1560 C1574 0.924 1_554 S
H1561 C1574 0.994 . S
H1562 C1574 0.965 . S
H1563 C1577 0.929 . S
H1564 C1578 0.931 . S
H1565 C1580 0.930 . S
C1566 H1554 0.930 . S
C1566 C1567 1.399 . S
C1566 C1571 1.399 . S
C1567 C1566 1.399 . S
C1567 C1568 1.376 . S
C1568 H1555 0.930 . S
C1568 C1567 1.376 . S
C1568 C1569 1.388 . S
C1569 H1556 0.930 . S
C1569 C1568 1.388 . S
C1569 C1570 1.390 . S
C1570 C1569 1.390 . S
C1570 C1571 1.394 . S
C1570 C1576 1.465 1_554 S
C1571 C1566 1.399 . S
C1571 C1570 1.394 . S
C1571 C1572 1.519 . S
C1572 C1571 1.519 . S
C1572 C1573 1.501 . S
C1572 C1574 1.560 1_554 S
C1572 C1575 1.523 1_554 S
C1573 H1557 0.958 . S
C1573 H1558 0.924 1_554 S
C1573 H1559 1.000 . S
C1573 C1572 1.501 . S
C1574 H1560 0.924 1_556 S
C1574 H1561 0.994 . S
C1574 H1562 0.965 . S
C1574 C1572 1.560 1_556 S
C1575 C1572 1.523 1_556 S
C1575 C1576 1.396 . S
C1575 C1580 1.390 . S
C1576 C1570 1.465 1_556 S
C1576 C1575 1.396 . S
C1576 C1577 1.399 . S
C1577 H1563 0.929 . S
C1577 C1576 1.399 . S
C1577 C1578 1.385 . S
C1578 H1564 0.931 . S
C1578 C1577 1.385 . S
C1578 C1579 1.389 . S
C1579 C1578 1.389 . S
C1579 C1580 1.387 . S
C1580 H1565 0.930 . S
C1580 C1575 1.390 . S
C1580 C1579 1.387 . S
H1581 C1593 0.930 . S
H1582 C1595 0.930 . S
H1583 C1596 0.930 . S
H1584 C1600 0.959 . S
H1585 C1600 0.959 . S
H1586 C1600 0.961 1_556 S
H1587 C1601 0.960 1_556 S
H1588 C1601 0.961 . S
H1589 C1601 0.959 . S
H1590 C1604 0.929 . S
H1591 C1605 0.931 . S
H1592 C1607 0.930 . S
C1593 H1581 0.930 . S
C1593 C1594 1.399 . S
C1593 C1598 1.399 . S
C1594 C1593 1.399 . S
C1594 C1595 1.376 . S
C1595 H1582 0.930 . S
C1595 C1594 1.376 . S
C1595 C1596 1.388 . S
C1596 H1583 0.930 . S
C1596 C1595 1.388 . S
C1596 C1597 1.390 . S
C1597 C1596 1.390 . S
C1597 C1598 1.394 . S
C1597 C1603 1.465 1_556 S
C1598 C1593 1.399 . S
C1598 C1597 1.394 . S
C1598 C1599 1.516 1_556 S
C1599 C1598 1.516 1_554 S
C1599 C1600 1.502 . S
C1599 C1601 1.561 . S
C1599 C1602 1.526 . S
C1600 H1584 0.959 . S
C1600 H1585 0.959 . S
C1600 H1586 0.961 1_554 S
C1600 C1599 1.502 . S
C1601 H1587 0.960 1_554 S
C1601 H1588 0.961 . S
C1601 H1589 0.959 . S
C1601 C1599 1.561 . S
C1602 C1599 1.526 . S
C1602 C1603 1.396 . S
C1602 C1607 1.390 . S
C1603 C1597 1.465 1_554 S
C1603 C1602 1.396 . S
C1603 C1604 1.399 . S
C1604 H1590 0.929 . S
C1604 C1603 1.399 . S
C1604 C1605 1.385 . S
C1605 H1591 0.931 . S
C1605 C1604 1.385 . S
C1605 C1606 1.389 . S
C1606 C1605 1.389 . S
C1606 C1607 1.387 . S
C1607 H1592 0.930 . S
C1607 C1602 1.390 . S
C1607 C1606 1.387 . S
C541 C94 0.904 . S
C553 C28 0.845 . S
C568 C61 0.807 . S
C580 C127 0.878 . S
C595 C226 0.795 . S
C607 C160 0.895 . S
C622 C259 0.815 . S
C634 C193 0.870 . S
C649 C292 0.791 . S
C661 C358 0.900 . S
C676 C391 0.915 . S
C688 C325 0.829 . S
C703 C490 0.916 . S
C715 C424 0.828 . S
C730 C457 0.923 . S
C742 C523 0.814 . S
C757 N5 1.732 . S
C769 N500 1.732 . S
C784 N401 1.719 . S
C796 N38 1.720 . S
C811 N434 1.721 . S
C823 N71 1.722 . S
C838 N467 1.720 . S
C850 N104 1.720 . S
C865 N302 1.728 . S
C877 N137 1.727 . S
C892 N335 1.719 . S
C904 N170 1.720 . S
C919 N368 1.726 . S
C931 N203 1.725 . S
C946 N269 1.719 . S
C958 N236 1.720 . S
C973 C17 1.419 . S
C985 C107 1.491 . S
C1000 C8 1.472 . S
C1012 C50 1.449 . S
C1027 C83 1.446 . S
C1039 C41 1.491 . S
C1054 C74 1.475 . S
C1066 C116 1.471 . S
C1081 C173 1.487 . S
C1093 C149 1.406 . S
C1108 C182 1.474 . S
C1120 C206 1.477 . S
C1135 C239 1.473 . S
C1147 C215 1.436 . S
C1162 C140 1.484 . S
C1174 C248 1.405 . S
C1189 C281 1.409 . S
C1201 C371 1.489 . S
C1216 C272 1.473 . S
C1228 C314 1.442 . S
C1243 C347 1.407 . S
C1255 C305 1.488 . S
C1270 C380 1.475 . S
C1282 C338 1.478 . S
C1297 C413 1.475 . S
C1309 C437 1.478 . S
C1324 C470 1.472 . S
C1336 C446 1.448 . S
C1351 C503 1.491 . S
C1363 C479 1.449 . S
C1378 C512 1.404 . S
C1390 C404 1.486 . S
C1405 N14 1.499 . S
C1417 N212 1.537 . S
C1432 N245 1.545 . S
C1444 N47 1.499 . S
C1459 N146 1.500 . S
C1471 N80 1.532 . S
C1486 N179 1.540 . S
C1498 N113 1.581 . S
C1513 N278 1.502 . S
C1525 N476 1.528 . S
C1540 N509 1.531 . S
C1552 N311 1.502 . S
C1567 N410 1.499 . S
C1579 N344 1.535 . S
C1594 N377 1.540 . S
C1606 N443 1.499 . S
