# Generated by pormake.
# Topology umm, (4)-cn, num edge types: 1
# Building blocks:
#     Node 0, Type 0, BuildingBlock: NAWXER_clean_sbu_0, # of connection points: 4
#     Node 1, Type 0, BuildingBlock: NAWXER_clean_sbu_0, # of connection points: 4
#     Node 2, Type 0, BuildingBlock: NAWXER_clean_sbu_0, # of connection points: 4
#     Node 3, Type 0, BuildingBlock: NAWXER_clean_sbu_0, # of connection points: 4
#     Node 4, Type 0, BuildingBlock: NAWXER_clean_sbu_0, # of connection points: 4
#     Node 5, Type 0, BuildingBlock: NAWXER_clean_sbu_0, # of connection points: 4
#     Node 6, Type 0, BuildingBlock: NAWXER_clean_sbu_0, # of connection points: 4
#     Node 7, Type 0, BuildingBlock: NAWXER_clean_sbu_0, # of connection points: 4
#     Node 8, Type 0, BuildingBlock: NAWXER_clean_sbu_0, # of connection points: 4
#     Node 9, Type 0, BuildingBlock: NAWXER_clean_sbu_0, # of connection points: 4
#     Node 10, Type 0, BuildingBlock: NAWXER_clean_sbu_0, # of connection points: 4
#     Node 11, Type 0, BuildingBlock: NAWXER_clean_sbu_0, # of connection points: 4
#     Edge 12, Type (0, 0), BuildingBlock: AJUNOK_clean_linker_0, # of connection points: 2
#     Edge 13, Type (0, 0), BuildingBlock: AJUNOK_clean_linker_0, # of connection points: 2
#     Edge 14, Type (0, 0), BuildingBlock: AJUNOK_clean_linker_0, # of connection points: 2
#     Edge 15, Type (0, 0), BuildingBlock: AJUNOK_clean_linker_0, # of connection points: 2
#     Edge 16, Type (0, 0), BuildingBlock: AJUNOK_clean_linker_0, # of connection points: 2
#     Edge 17, Type (0, 0), BuildingBlock: AJUNOK_clean_linker_0, # of connection points: 2
#     Edge 18, Type (0, 0), BuildingBlock: AJUNOK_clean_linker_0, # of connection points: 2
#     Edge 19, Type (0, 0), BuildingBlock: AJUNOK_clean_linker_0, # of connection points: 2
#     Edge 20, Type (0, 0), BuildingBlock: AJUNOK_clean_linker_0, # of connection points: 2
#     Edge 21, Type (0, 0), BuildingBlock: AJUNOK_clean_linker_0, # of connection points: 2
#     Edge 22, Type (0, 0), BuildingBlock: AJUNOK_clean_linker_0, # of connection points: 2
#     Edge 23, Type (0, 0), BuildingBlock: AJUNOK_clean_linker_0, # of connection points: 2
#     Edge 24, Type (0, 0), BuildingBlock: AJUNOK_clean_linker_0, # of connection points: 2
#     Edge 25, Type (0, 0), BuildingBlock: AJUNOK_clean_linker_0, # of connection points: 2
#     Edge 26, Type (0, 0), BuildingBlock: AJUNOK_clean_linker_0, # of connection points: 2
#     Edge 27, Type (0, 0), BuildingBlock: AJUNOK_clean_linker_0, # of connection points: 2
#     Edge 28, Type (0, 0), BuildingBlock: AJUNOK_clean_linker_0, # of connection points: 2
#     Edge 29, Type (0, 0), BuildingBlock: AJUNOK_clean_linker_0, # of connection points: 2
#     Edge 30, Type (0, 0), BuildingBlock: AJUNOK_clean_linker_0, # of connection points: 2
#     Edge 31, Type (0, 0), BuildingBlock: AJUNOK_clean_linker_0, # of connection points: 2
#     Edge 32, Type (0, 0), BuildingBlock: AJUNOK_clean_linker_0, # of connection points: 2
#     Edge 33, Type (0, 0), BuildingBlock: AJUNOK_clean_linker_0, # of connection points: 2
#     Edge 34, Type (0, 0), BuildingBlock: AJUNOK_clean_linker_0, # of connection points: 2
#     Edge 35, Type (0, 0), BuildingBlock: AJUNOK_clean_linker_0, # of connection points: 2
# Relax obj value: 0.044
# Max RMSD: 0.161
# Mean RMSD: 0.161
data_MOF--net-umm--node1-NAWXER_clean_sbu_0--edge1-AJUNOK_clean_linker_0
_symmetry_space_group_name_H-M    P1
_symmetry_Int_Tables_number       1
_symmetry_cell_setting            triclinic
loop_
_symmetry_equiv_pos_as_xyz
'x, y, z'
_cell_length_a     41.423226
_cell_length_b     41.401722
_cell_length_c     21.203372
_cell_angle_alpha  89.96747
_cell_angle_beta   90.024421
_cell_angle_gamma 119.97092
loop_
_atom_site_label
_atom_site_type_symbol
_atom_site_fract_x
_atom_site_fract_y
_atom_site_fract_z
_atom_type_partial_charge
C0 C 0.32839 0.52506 0.06969 0.0
C1 C 0.44299 0.52095 0.11248 0.0
O2 O 0.35768 0.55723 0.07536 0.0
Zn3 Zn 0.41591 0.5808 0.09598 0.0
O4 O 0.33043 0.49605 0.08216 0.0
Zn5 Zn 0.38404 0.52158 0.09861 0.0
O6 O 0.39081 0.54814 0.18865 0.0
O7 O 0.42446 0.60876 0.17296 0.0
O8 O 0.40987 0.49347 0.10982 0.0
O9 O 0.4482 0.55406 0.10822 0.0
O10 O 0.4366 0.60736 0.01829 0.0
O11 O 0.40393 0.54615 1.00722 0.0
C12 C 0.40708 0.58151 0.21046 0.0
C13 C 0.42309 0.57871 0.98291 0.0
C14 C 0.85567 0.42552 0.31449 0.0
C15 C 0.83703 0.41207 0.5421 0.0
O16 O 0.86916 0.40678 0.34001 0.0
Zn17 Zn 0.8743 0.38833 0.43206 0.0
O18 O 0.84135 0.44034 0.34876 0.0
Zn19 Zn 0.84721 0.42051 0.4277 0.0
O20 O 0.90614 0.4527 0.44002 0.0
O21 O 0.92816 0.41418 0.44336 0.0
O22 O 0.82773 0.42972 0.50408 0.0
O23 O 0.85403 0.39553 0.52106 0.0
O24 O 0.84632 0.3347 0.41692 0.0
O25 O 0.81234 0.3619 0.40897 0.0
C26 C 0.93393 0.44737 0.44507 0.0
C27 C 0.81526 0.33256 0.40423 0.0
C28 C 0.43297 0.83636 0.87328 0.0
C29 C 0.44153 0.85534 0.64565 0.0
O30 O 0.46676 0.85183 0.8536 0.0
Zn31 Zn 0.49548 0.87068 0.76498 0.0
O32 O 0.40689 0.82774 0.8338 0.0
Zn33 Zn 0.43675 0.84639 0.75864 0.0
O34 O 0.45782 0.80915 0.7406 0.0
O35 O 0.5189 0.84045 0.75114 0.0
O36 O 0.41221 0.84211 0.67932 0.0
O37 O 0.47336 0.86727 0.67191 0.0
O38 O 0.52582 0.92427 0.77665 0.0
O39 O 0.46598 0.90556 0.77143 0.0
C40 C 0.48931 0.81031 0.73713 0.0
C41 C 0.49974 0.93204 0.77738 0.0
C42 C 0.58341 0.4327 0.98405 0.0
C43 C 0.60055 0.43021 0.2113 0.0
O44 O 0.60419 0.46519 1.00763 0.0
Zn45 Zn 0.62586 0.48981 0.09846 0.0
O46 O 0.56876 0.4043 0.02006 0.0
Zn47 Zn 0.59109 0.4309 0.09695 0.0
O48 O 0.56177 0.46073 0.10913 0.0
O49 O 0.60301 0.52066 0.10951 0.0
O50 O 0.58182 0.4031 0.17422 0.0
O51 O 0.61822 0.46345 0.18896 0.0
O52 O 0.67918 0.51242 0.08055 0.0
O53 O 0.64853 0.45114 0.07439 0.0
C54 C 0.5692 0.49465 0.11276 0.0
C55 C 0.67886 0.48225 0.06744 0.0
C56 C 0.18169 0.60244 0.5415 0.0
C57 C 0.16178 0.58819 0.3141 0.0
O58 O 0.16617 0.62056 0.52085 0.0
Zn59 Zn 0.14789 0.62989 0.4309 0.0
O60 O 0.19077 0.58506 0.50267 0.0
Zn61 Zn 0.17198 0.59525 0.42677 0.0
O62 O 0.20904 0.65279 0.4048 0.0
O63 O 0.17859 0.68347 0.41455 0.0
O64 O 0.17575 0.57336 0.3492 0.0
O65 O 0.15024 0.60889 0.33872 0.0
O66 O 0.09431 0.60721 0.44241 0.0
O67 O 0.11285 0.56583 0.43975 0.0
C68 C 0.20817 0.68318 0.39939 0.0
C69 C 0.08645 0.57332 0.44455 0.0
C70 C 0.59101 0.18119 0.87432 0.0
C71 C 0.58381 0.16153 0.64689 0.0
O72 O 0.55723 0.16469 0.85437 0.0
Zn73 Zn 0.52896 0.14522 0.76543 0.0
O74 O 0.61736 0.19082 0.83502 0.0
Zn75 Zn 0.58801 0.17118 0.75958 0.0
O76 O 0.56541 0.20668 0.73885 0.0
O77 O 0.50439 0.17449 0.74997 0.0
O78 O 0.61311 0.17554 0.68072 0.0
O79 O 0.55178 0.14899 0.67272 0.0
O80 O 0.49995 0.09127 0.77701 0.0
O81 O 0.56028 0.11228 0.77304 0.0
C82 C 0.53357 0.2046 0.73414 0.0
C83 C 0.527 0.08491 0.77865 0.0
C84 C 0.43356 0.58846 0.70997 0.0
C85 C 0.42548 0.59919 0.48219 0.0
O86 O 0.46553 0.607 0.68353 0.0
Zn87 Zn 0.48793 0.62468 0.59029 0.0
O88 O 0.40411 0.57358 0.6765 0.0
Zn89 Zn 0.42892 0.59285 0.59695 0.0
O90 O 0.45538 0.56032 0.58433 0.0
O91 O 0.51585 0.59871 0.57896 0.0
O92 O 0.39922 0.58291 0.5218 0.0
O93 O 0.45934 0.61604 0.50172 0.0
O94 O 0.5138 0.67852 0.60382 0.0
O95 O 0.45288 0.65154 0.61478 0.0
C96 C 0.4884 0.56552 0.5784 0.0
C97 C 0.48519 0.68085 0.61806 0.0
C98 C 0.8344 0.42837 0.81387 0.0
C99 C 0.85252 0.43425 0.04157 0.0
O100 O 0.8498 0.46199 0.83452 0.0
Zn101 Zn 0.86789 0.48975 0.92439 0.0
O102 O 0.82535 0.40185 0.85265 0.0
Zn103 Zn 0.84345 0.43093 0.92845 0.0
O104 O 0.80614 0.4517 0.9461 0.0
O105 O 0.83741 0.51296 0.9387 0.0
O106 O 0.83864 0.40543 1.00663 0.0
O107 O 0.86443 0.46647 0.01667 0.0
O108 O 0.92154 0.52028 0.91353 0.0
O109 O 0.90265 0.46031 0.91644 0.0
C110 C 0.80703 0.48302 0.9501 0.0
C111 C 0.9292 0.49412 0.91171 0.0
C112 C 0.44926 0.93168 0.24434 0.0
C113 C 0.33524 0.81155 0.28272 0.0
O114 O 0.4547 0.90391 0.24805 0.0
Zn115 Zn 0.42318 0.84491 0.25947 0.0
O116 O 0.41606 0.92582 0.24731 0.0
Zn117 Zn 0.39061 0.8717 0.25761 0.0
O118 O 0.41034 0.8667 0.34865 0.0
O119 O 0.44357 0.83879 0.33728 0.0
O120 O 0.33692 0.84274 0.2734 0.0
O121 O 0.36491 0.80936 0.27733 0.0
O122 O 0.43258 0.82645 0.18237 0.0
O123 O 0.39808 0.85259 0.1672 0.0
C124 C 0.42975 0.85355 0.37281 0.0
C125 C 0.41486 0.83605 0.14509 0.0
C126 C 0.5269 0.32849 0.61599 0.0
C127 C 0.51471 0.43925 0.57966 0.0
O128 O 0.55808 0.35914 0.61312 0.0
Zn129 Zn 0.57836 0.41743 0.59785 0.0
O130 O 0.4968 0.32865 0.60463 0.0
Zn131 Zn 0.51952 0.38238 0.59152 0.0
O132 O 0.54858 0.39316 0.50288 0.0
O133 O 0.60837 0.42967 0.52277 0.0
O134 O 0.48875 0.40535 0.5803 0.0
O135 O 0.54853 0.4467 0.58541 0.0
O136 O 0.60243 0.43722 0.67776 0.0
O137 O 0.54136 0.40075 0.68452 0.0
C138 C 0.58236 0.412 0.48323 0.0
C139 C 0.57302 0.42083 0.71113 0.0
C140 C 0.17838 0.58234 0.81331 0.0
C141 C 0.15951 0.57646 0.04112 0.0
O142 O 0.16153 0.54875 0.83417 0.0
Zn143 Zn 0.14135 0.52099 0.92317 0.0
O144 O 0.18757 0.60915 0.85152 0.0
Zn145 Zn 0.16821 0.58027 0.92783 0.0
O146 O 0.20324 0.55674 0.94638 0.0
O147 O 0.16967 0.49557 0.93829 0.0
O148 O 0.17382 0.60568 1.007 0.0
O149 O 0.14621 0.54432 0.01538 0.0
O150 O 0.08743 0.49283 0.91185 0.0
O151 O 0.10931 0.55334 0.91547 0.0
C152 C 0.20061 0.5246 0.95103 0.0
C153 C 0.08159 0.52022 0.9103 0.0
C154 C 0.59376 0.16145 0.3739 0.0
C155 C 0.60876 0.18007 0.14614 0.0
O156 O 0.61348 0.14869 0.34958 0.0
Zn157 Zn 0.63357 0.14463 0.25786 0.0
O158 O 0.57951 0.17579 0.33832 0.0
Zn159 Zn 0.60028 0.17021 0.26065 0.0
O160 O 0.56928 0.11084 0.24903 0.0
O161 O 0.60964 0.09105 0.24684 0.0
O162 O 0.5907 0.18899 0.18379 0.0
O163 O 0.62596 0.16385 0.16781 0.0
O164 O 0.68702 0.17364 0.27362 0.0
O165 O 0.65854 0.20639 0.28084 0.0
C166 C 0.57602 0.08389 0.24471 0.0
C167 C 0.68831 0.20431 0.28616 0.0
C168 C 0.43961 0.61894 0.30632 0.0
C169 C 0.40855 0.58783 0.27954 0.0
C170 C 0.44426 0.62298 0.37196 0.0
C171 C 0.41766 0.5965 0.41344 0.0
H172 H 0.46138 0.63951 0.27642 0.0
H173 H 0.4693 0.64669 0.39029 0.0
S174 S 0.32962 0.51175 0.36712 0.0
N175 N 0.34967 0.53124 0.29951 0.0
N176 N 0.35794 0.5392 0.42274 0.0
C177 C 0.38552 0.56626 0.38725 0.0
C178 C 0.38112 0.56181 0.32038 0.0
C179 C 0.83148 0.44428 0.63787 0.0
C180 C 0.83136 0.41317 0.61094 0.0
C181 C 0.83124 0.44839 0.70355 0.0
C182 C 0.83016 0.42121 0.74486 0.0
H183 H 0.83345 0.46648 0.60812 0.0
H184 H 0.83273 0.47348 0.72206 0.0
S185 S 0.82574 0.33267 0.69774 0.0
N186 N 0.82762 0.35354 0.63035 0.0
N187 N 0.82644 0.3608 0.75357 0.0
C188 C 0.82804 0.38901 0.71836 0.0
C189 C 0.82888 0.38514 0.65151 0.0
C190 C 0.4517 0.83132 0.98354 0.0
C191 C 0.42521 0.83145 0.94207 0.0
C192 C 0.44717 0.8309 0.04916 0.0
C193 C 0.41631 0.83131 0.07598 0.0
H194 H 0.4766 0.83233 0.96522 0.0
H195 H 0.46888 0.8319 0.07902 0.0
S196 S 0.33756 0.82898 0.98852 0.0
N197 N 0.3657 0.82955 0.93287 0.0
N198 N 0.35762 0.82948 0.05609 0.0
C199 C 0.38893 0.83009 0.03518 0.0
C200 C 0.39324 0.82992 0.9683 0.0
C201 C 0.56832 0.39266 0.30726 0.0
C202 C 0.59915 0.42399 0.28047 0.0
C203 C 0.56376 0.38846 0.37287 0.0
C204 C 0.59016 0.41506 0.41441 0.0
H205 H 0.54666 0.37192 0.27741 0.0
H206 H 0.5389 0.36449 0.39111 0.0
S207 S 0.6777 0.50044 0.36819 0.0
N208 N 0.65774 0.48092 0.30056 0.0
N209 N 0.64955 0.47275 0.42375 0.0
C210 C 0.62209 0.44559 0.38825 0.0
C211 C 0.62645 0.45014 0.32136 0.0
C212 C 0.18452 0.62514 0.65213 0.0
C213 C 0.18576 0.59926 0.61055 0.0
C214 C 0.18407 0.62048 0.71778 0.0
C215 C 0.18409 0.58935 0.74446 0.0
H216 H 0.18309 0.64883 0.63383 0.0
H217 H 0.18203 0.64058 0.74772 0.0
S218 S 0.18983 0.51481 0.65691 0.0
N219 N 0.18937 0.54253 0.60135 0.0
N220 N 0.18778 0.53349 0.72447 0.0
C221 C 0.18665 0.56397 0.70362 0.0
C222 C 0.18772 0.56901 0.6368 0.0
C223 C 0.57611 0.18507 0.0504 0.0
C224 C 0.6073 0.18522 0.07712 0.0
C225 C 0.57167 0.185 0.98476 0.0
C226 C 0.59859 0.18585 0.94321 0.0
H227 H 0.55411 0.18333 0.08032 0.0
H228 H 0.54653 0.18349 0.96647 0.0
S229 S 0.68709 0.19001 0.98945 0.0
N230 N 0.66667 0.18857 0.05707 0.0
N231 N 0.65876 0.1892 0.93389 0.0
C232 C 0.63084 0.18795 0.96939 0.0
C233 C 0.63505 0.18738 0.03625 0.0
C234 C 0.29575 0.55608 0.02225 0.0
C235 C 0.29431 0.52283 0.04153 0.0
C236 C 0.26586 0.55588 0.99138 0.0
C237 C 0.23267 0.52244 0.97833 0.0
H238 H 0.32044 0.58287 0.03044 0.0
H239 H 0.26889 0.58255 0.97823 0.0
S240 S 0.21394 0.42732 0.019 0.0
N241 N 0.25669 0.45515 0.04502 0.0
N242 N 0.19999 0.45481 0.98758 0.0
C243 C 0.23059 0.48878 0.9972 0.0
C244 C 0.2614 0.48897 0.0287 0.0
C245 C 0.75001 0.29806 0.36379 0.0
C246 C 0.78341 0.29822 0.37691 0.0
C247 C 0.72027 0.26812 0.33305 0.0
C248 C 0.72217 0.23654 0.31397 0.0
H249 H 0.74666 0.32152 0.37684 0.0
H250 H 0.69536 0.26983 0.32482 0.0
S251 S 0.80331 0.2226 0.33656 0.0
N252 N 0.81678 0.26395 0.36783 0.0
N253 N 0.76048 0.20722 0.31056 0.0
C254 C 0.75533 0.23607 0.32677 0.0
C255 C 0.78593 0.26689 0.35816 0.0
C256 C 0.45643 0.74532 0.69516 0.0
C257 C 0.49034 0.77769 0.70959 0.0
C258 C 0.45541 0.71507 0.66408 0.0
C259 C 0.48826 0.71538 0.64587 0.0
H260 H 0.43007 0.74323 0.70745 0.0
H261 H 0.42832 0.69101 0.65483 0.0
S262 S 0.58468 0.79326 0.67226 0.0
N263 N 0.55795 0.80834 0.70283 0.0
N264 N 0.55604 0.75103 0.64492 0.0
C265 C 0.52255 0.74748 0.65999 0.0
C266 C 0.52359 0.77861 0.69178 0.0
C267 C 0.74643 0.51544 0.03345 0.0
C268 C 0.71153 0.48248 0.03723 0.0
C269 C 0.77694 0.51598 1.003 0.0
C270 C 0.77369 0.48364 0.97488 0.0
H271 H 0.75036 0.54095 0.05464 0.0
H272 H 0.80348 0.54171 1.00295 0.0
S273 S 0.68755 0.39098 0.96604 0.0
N274 N 0.67521 0.41714 1.0063 0.0
N275 N 0.73199 0.4184 0.94921 0.0
C276 C 0.73865 0.45086 0.97664 0.0
C277 C 0.70779 0.45021 1.00778 0.0
C278 C 0.24405 0.75174 0.37128 0.0
C279 C 0.24003 0.7159 0.36829 0.0
C280 C 0.27394 0.78249 0.34106 0.0
C281 C 0.30077 0.77846 0.30646 0.0
H282 H 0.22435 0.75622 0.39797 0.0
H283 H 0.27668 0.80975 0.34658 0.0
S284 S 0.30034 0.68983 0.27697 0.0
N285 N 0.26395 0.6779 0.32282 0.0
N286 N 0.31941 0.7352 0.26644 0.0
C287 C 0.29612 0.74252 0.30096 0.0
C288 C 0.26601 0.71142 0.33176 0.0
C289 C 0.49892 0.23861 0.70645 0.0
C290 C 0.53125 0.23556 0.70247 0.0
C291 C 0.49673 0.26769 0.67576 0.0
C292 C 0.52672 0.29461 0.6397 0.0
H293 H 0.4754 0.21882 0.73435 0.0
H294 H 0.47192 0.26982 0.68218 0.0
S295 S 0.61558 0.29636 0.6069 0.0
N296 N 0.59257 0.26032 0.65421 0.0
N297 N 0.58825 0.31433 0.59716 0.0
C298 C 0.55846 0.29088 0.63315 0.0
C299 C 0.56079 0.26158 0.66435 0.0
C300 C 0.47042 0.47888 0.11721 0.0
C301 C 0.47569 0.51517 0.11722 0.0
C302 C 0.50079 0.47273 0.1173 0.0
C303 C 0.5379 0.50257 0.11734 0.0
H304 H 0.44257 0.45488 0.11597 0.0
H305 H 0.49494 0.44415 0.11618 0.0
S306 S 0.56719 0.60319 0.1212 0.0
N307 N 0.52124 0.58162 0.12024 0.0
N308 N 0.57808 0.56991 0.12018 0.0
C309 C 0.54364 0.53904 0.11911 0.0
C310 C 0.51267 0.54535 0.1191 0.0
C311 C 1.00335 0.47459 0.44849 0.0
C312 C 0.97242 0.47998 0.44966 0.0
C313 C 0.03988 0.5049 0.44833 0.0
C314 C 0.04724 0.54206 0.44933 0.0
H315 H 0.99943 0.44671 0.44646 0.0
H316 H 0.06254 0.49898 0.44628 0.0
S317 S 0.9762 0.57162 0.45673 0.0
N318 N 0.95172 0.52565 0.45501 0.0
N319 N 0.02029 0.5824 0.4545 0.0
C320 C 0.01662 0.54791 0.45233 0.0
C321 C 0.97932 0.51699 0.45254 0.0
C322 C 0.48436 0.01544 0.77825 0.0
C323 C 0.52059 0.0462 0.78344 0.0
C324 C 0.478 0.97881 0.77766 0.0
C325 C 0.50757 0.97123 0.78226 0.0
H326 H 0.46067 0.0196 0.77317 0.0
H327 H 0.44955 0.95628 0.77235 0.0
S328 S 0.60763 0.04174 0.80174 0.0
N329 N 0.58646 0.06645 0.79702 0.0
N330 N 0.57439 0.99776 0.79565 0.0
C331 C 0.54386 1.00167 0.78944 0.0
C332 C 0.55038 0.03903 0.7901 0.0
C333 C 0.53047 0.5381 0.57547 0.0
C334 C 0.49421 0.53282 0.57413 0.0
C335 C 0.53662 0.50771 0.57591 0.0
C336 C 0.5068 0.47058 0.575 0.0
H337 H 0.55444 0.56595 0.57741 0.0
H338 H 0.56517 0.51356 0.57801 0.0
S339 S 0.40632 0.44132 0.56728 0.0
N340 N 0.42786 0.48729 0.56877 0.0
N341 N 0.43955 0.4304 0.56979 0.0
C342 C 0.47038 0.46484 0.57186 0.0
C343 C 0.46407 0.49584 0.5714 0.0
C344 C 0.0121 0.47808 0.90863 0.0
C345 C 0.04307 0.51432 0.90591 0.0
C346 C 0.9756 0.47199 0.90915 0.0
C347 C 0.96834 0.50184 0.90697 0.0
H348 H 0.01598 0.45412 0.91165 0.0
H349 H 0.9529 0.44348 0.9124 0.0
S350 S 0.03951 0.60221 0.89512 0.0
N351 N 0.06389 0.58063 0.89771 0.0
N352 N 0.99541 0.56905 0.8989 0.0
C353 C 0.999 0.53821 0.90242 0.0
C354 C 0.03625 0.54446 0.90184 0.0
C355 C 0.47682 1.00132 0.24311 0.0
C356 C 0.48188 0.9702 0.23981 0.0
C357 C 0.50735 0.03779 0.24331 0.0
C358 C 0.54435 0.04485 0.24025 0.0
H359 H 0.44907 0.99756 0.24678 0.0
H360 H 0.50175 0.06063 0.24703 0.0
S361 S 0.57298 0.97326 0.22686 0.0
N362 N 0.52707 0.94908 0.23026 0.0
N363 N 0.58412 0.01743 0.23089 0.0
C364 C 0.54982 0.01404 0.2352 0.0
C365 C 0.51874 0.97686 0.23491 0.0
C366 C 0.40306 0.55494 0.80948 0.0
C367 C 0.43146 0.58654 0.77937 0.0
C368 C 0.40105 0.55262 0.87537 0.0
C369 C 0.42693 0.58214 0.91354 0.0
H370 H 0.38252 0.53164 0.78199 0.0
H371 H 0.37864 0.5276 0.89646 0.0
S372 S 0.50555 0.6719 0.85714 0.0
N373 N 0.4855 0.6485 0.79213 0.0
N374 N 0.48131 0.64433 0.91607 0.0
C375 C 0.45513 0.61418 0.88389 0.0
C376 C 0.45752 0.61631 0.81677 0.0
C377 C 0.85795 0.45891 0.21501 0.0
C378 C 0.85475 0.42729 0.24514 0.0
C379 C 0.85769 0.46098 0.1491 0.0
C380 C 0.8535 0.4312 0.11098 0.0
H381 H 0.86117 0.4824 0.2425 0.0
H382 H 0.86036 0.48603 0.12795 0.0
S383 S 0.84191 0.3412 0.16767 0.0
N384 N 0.84604 0.36498 0.23255 0.0
N385 N 0.84507 0.3687 0.10871 0.0
C386 C 0.84963 0.39913 0.14074 0.0
C387 C 0.85041 0.39724 0.20781 0.0
C388 C 0.41084 0.85843 0.54639 0.0
C389 C 0.43926 0.85511 0.57624 0.0
C390 C 0.40842 0.85833 0.48054 0.0
C391 C 0.43391 0.8542 0.44212 0.0
H392 H 0.39056 0.86152 0.57404 0.0
H393 H 0.386 0.86104 0.45969 0.0
S394 S 0.51252 0.84274 0.4977 0.0
N395 N 0.49295 0.84662 0.5629 0.0
N396 N 0.48803 0.84594 0.43905 0.0
C397 C 0.46217 0.85032 0.47149 0.0
C398 C 0.46496 0.85095 0.53857 0.0
C399 C 0.60326 0.45517 0.81019 0.0
C400 C 0.57491 0.4233 0.78057 0.0
C401 C 0.60522 0.45804 0.876 0.0
C402 C 0.57928 0.42889 0.91472 0.0
H403 H 0.62388 0.47822 0.78236 0.0
H404 H 0.6277 0.4832 0.89659 0.0
S405 S 0.50053 0.33874 0.85993 0.0
N406 N 0.52071 0.36153 0.79451 0.0
N407 N 0.52475 0.36682 0.91833 0.0
C408 C 0.55101 0.39665 0.88562 0.0
C409 C 0.54872 0.39391 0.81853 0.0
C410 C 0.15729 0.6077 0.14045 0.0
C411 C 0.16003 0.57896 0.11053 0.0
C412 C 0.15729 0.60997 0.20635 0.0
C413 C 0.16072 0.58399 0.24472 0.0
H414 H 0.1547 0.6283 0.1128 0.0
H415 H 0.1551 0.63266 0.2273 0.0
S416 S 0.17075 0.50456 0.18881 0.0
N417 N 0.1674 0.52457 0.1237 0.0
N418 N 0.16788 0.52917 0.24754 0.0
C419 C 0.16406 0.55544 0.21522 0.0
C420 C 0.16356 0.55283 0.14814 0.0
C421 C 0.61178 0.15434 0.5475 0.0
C422 C 0.58615 0.16185 0.57763 0.0
C423 C 0.61347 0.1537 0.48158 0.0
C424 C 0.59007 0.16125 0.44342 0.0
H425 H 0.63024 0.14838 0.575 0.0
H426 H 0.63366 0.14761 0.4605 0.0
S427 S 0.51999 0.18529 0.50059 0.0
N428 N 0.5379 0.17851 0.56538 0.0
N429 N 0.54146 0.17796 0.44145 0.0
C430 C 0.56481 0.16956 0.47332 0.0
C431 C 0.56275 0.16968 0.54044 0.0
loop_
_geom_bond_atom_site_label_1
_geom_bond_atom_site_label_2
_geom_bond_distance
_geom_bond_site_symmetry_2
_ccdc_geom_bond_type
C0 O2 1.247 . S
C0 O4 1.258 . S
C1 O8 1.247 . S
C1 O9 1.258 . S
O2 C0 1.247 . S
O2 Zn3 2.028 . S
Zn3 O2 2.028 . S
Zn3 O7 2.035 . S
Zn3 O9 2.035 . S
Zn3 O10 2.028 1_554 S
O4 C0 1.258 . S
O4 Zn5 2.035 . S
Zn5 O4 2.035 . S
Zn5 O6 2.028 . S
Zn5 O8 2.028 . S
Zn5 O11 2.035 1_554 S
O6 Zn5 2.028 . S
O6 C12 1.247 . S
O7 Zn3 2.035 . S
O7 C12 1.258 . S
O8 C1 1.247 . S
O8 Zn5 2.028 . S
O9 C1 1.258 . S
O9 Zn3 2.035 . S
O10 Zn3 2.028 1_556 S
O10 C13 1.247 . S
O11 Zn5 2.035 1_556 S
O11 C13 1.258 . S
C12 O6 1.247 . S
C12 O7 1.258 . S
C13 O10 1.247 . S
C13 O11 1.258 . S
C14 O16 1.247 . S
C14 O18 1.258 . S
C15 O22 1.247 . S
C15 O23 1.258 . S
O16 C14 1.247 . S
O16 Zn17 2.028 . S
Zn17 O16 2.028 . S
Zn17 O21 2.035 . S
Zn17 O23 2.035 . S
Zn17 O24 2.028 . S
O18 C14 1.258 . S
O18 Zn19 2.035 . S
Zn19 O18 2.035 . S
Zn19 O20 2.028 . S
Zn19 O22 2.028 . S
Zn19 O25 2.035 . S
O20 Zn19 2.028 . S
O20 C26 1.247 . S
O21 Zn17 2.035 . S
O21 C26 1.258 . S
O22 C15 1.247 . S
O22 Zn19 2.028 . S
O23 C15 1.258 . S
O23 Zn17 2.035 . S
O24 Zn17 2.028 . S
O24 C27 1.247 . S
O25 Zn19 2.035 . S
O25 C27 1.258 . S
C26 O20 1.247 . S
C26 O21 1.258 . S
C27 O24 1.247 . S
C27 O25 1.258 . S
C28 O30 1.247 . S
C28 O32 1.258 . S
C29 O36 1.247 . S
C29 O37 1.258 . S
O30 C28 1.247 . S
O30 Zn31 2.028 . S
Zn31 O30 2.028 . S
Zn31 O35 2.035 . S
Zn31 O37 2.035 . S
Zn31 O38 2.028 . S
O32 C28 1.258 . S
O32 Zn33 2.035 . S
Zn33 O32 2.035 . S
Zn33 O34 2.028 . S
Zn33 O36 2.028 . S
Zn33 O39 2.035 . S
O34 Zn33 2.028 . S
O34 C40 1.247 . S
O35 Zn31 2.035 . S
O35 C40 1.258 . S
O36 C29 1.247 . S
O36 Zn33 2.028 . S
O37 C29 1.258 . S
O37 Zn31 2.035 . S
O38 Zn31 2.028 . S
O38 C41 1.247 . S
O39 Zn33 2.035 . S
O39 C41 1.258 . S
C40 O34 1.247 . S
C40 O35 1.258 . S
C41 O38 1.247 . S
C41 O39 1.258 . S
C42 O44 1.247 . S
C42 O46 1.258 . S
C43 O50 1.247 . S
C43 O51 1.258 . S
O44 C42 1.247 . S
O44 Zn45 2.028 1_556 S
Zn45 O44 2.028 1_554 S
Zn45 O49 2.035 . S
Zn45 O51 2.035 . S
Zn45 O52 2.028 . S
O46 C42 1.258 . S
O46 Zn47 2.035 1_556 S
Zn47 O46 2.035 1_554 S
Zn47 O48 2.028 . S
Zn47 O50 2.028 . S
Zn47 O53 2.035 . S
O48 Zn47 2.028 . S
O48 C54 1.247 . S
O49 Zn45 2.035 . S
O49 C54 1.258 . S
O50 C43 1.247 . S
O50 Zn47 2.028 . S
O51 C43 1.258 . S
O51 Zn45 2.035 . S
O52 Zn45 2.028 . S
O52 C55 1.247 . S
O53 Zn47 2.035 . S
O53 C55 1.258 . S
C54 O48 1.247 . S
C54 O49 1.258 . S
C55 O52 1.247 . S
C55 O53 1.258 . S
C56 O58 1.247 . S
C56 O60 1.258 . S
C57 O64 1.247 . S
C57 O65 1.258 . S
O58 C56 1.247 . S
O58 Zn59 2.028 . S
Zn59 O58 2.028 . S
Zn59 O63 2.035 . S
Zn59 O65 2.035 . S
Zn59 O66 2.028 . S
O60 C56 1.258 . S
O60 Zn61 2.035 . S
Zn61 O60 2.035 . S
Zn61 O62 2.028 . S
Zn61 O64 2.028 . S
Zn61 O67 2.035 . S
O62 Zn61 2.028 . S
O62 C68 1.247 . S
O63 Zn59 2.035 . S
O63 C68 1.258 . S
O64 C57 1.247 . S
O64 Zn61 2.028 . S
O65 C57 1.258 . S
O65 Zn59 2.035 . S
O66 Zn59 2.028 . S
O66 C69 1.247 . S
O67 Zn61 2.035 . S
O67 C69 1.258 . S
C68 O62 1.247 . S
C68 O63 1.258 . S
C69 O66 1.247 . S
C69 O67 1.258 . S
C70 O72 1.247 . S
C70 O74 1.258 . S
C71 O78 1.247 . S
C71 O79 1.258 . S
O72 C70 1.247 . S
O72 Zn73 2.028 . S
Zn73 O72 2.028 . S
Zn73 O77 2.035 . S
Zn73 O79 2.035 . S
Zn73 O80 2.028 . S
O74 C70 1.258 . S
O74 Zn75 2.035 . S
Zn75 O74 2.035 . S
Zn75 O76 2.028 . S
Zn75 O78 2.028 . S
Zn75 O81 2.035 . S
O76 Zn75 2.028 . S
O76 C82 1.247 . S
O77 Zn73 2.035 . S
O77 C82 1.258 . S
O78 C71 1.247 . S
O78 Zn75 2.028 . S
O79 C71 1.258 . S
O79 Zn73 2.035 . S
O80 Zn73 2.028 . S
O80 C83 1.247 . S
O81 Zn75 2.035 . S
O81 C83 1.258 . S
C82 O76 1.247 . S
C82 O77 1.258 . S
C83 O80 1.247 . S
C83 O81 1.258 . S
C84 O86 1.247 . S
C84 O88 1.258 . S
C85 O92 1.247 . S
C85 O93 1.258 . S
O86 C84 1.247 . S
O86 Zn87 2.028 . S
Zn87 O86 2.028 . S
Zn87 O91 2.035 . S
Zn87 O93 2.035 . S
Zn87 O94 2.028 . S
O88 C84 1.258 . S
O88 Zn89 2.035 . S
Zn89 O88 2.035 . S
Zn89 O90 2.028 . S
Zn89 O92 2.028 . S
Zn89 O95 2.035 . S
O90 Zn89 2.028 . S
O90 C96 1.247 . S
O91 Zn87 2.035 . S
O91 C96 1.258 . S
O92 C85 1.247 . S
O92 Zn89 2.028 . S
O93 C85 1.258 . S
O93 Zn87 2.035 . S
O94 Zn87 2.028 . S
O94 C97 1.247 . S
O95 Zn89 2.035 . S
O95 C97 1.258 . S
C96 O90 1.247 . S
C96 O91 1.258 . S
C97 O94 1.247 . S
C97 O95 1.258 . S
C98 O100 1.247 . S
C98 O102 1.258 . S
C99 O106 1.247 . S
C99 O107 1.258 . S
O100 C98 1.247 . S
O100 Zn101 2.028 . S
Zn101 O100 2.028 . S
Zn101 O105 2.035 . S
Zn101 O107 2.035 1_556 S
Zn101 O108 2.028 . S
O102 C98 1.258 . S
O102 Zn103 2.035 . S
Zn103 O102 2.035 . S
Zn103 O104 2.028 . S
Zn103 O106 2.028 1_556 S
Zn103 O109 2.035 . S
O104 Zn103 2.028 . S
O104 C110 1.247 . S
O105 Zn101 2.035 . S
O105 C110 1.258 . S
O106 C99 1.247 . S
O106 Zn103 2.028 1_554 S
O107 C99 1.258 . S
O107 Zn101 2.035 1_554 S
O108 Zn101 2.028 . S
O108 C111 1.247 . S
O109 Zn103 2.035 . S
O109 C111 1.258 . S
C110 O104 1.247 . S
C110 O105 1.258 . S
C111 O108 1.247 . S
C111 O109 1.258 . S
C112 O114 1.247 . S
C112 O116 1.258 . S
C113 O120 1.247 . S
C113 O121 1.258 . S
O114 C112 1.247 . S
O114 Zn115 2.028 . S
Zn115 O114 2.028 . S
Zn115 O119 2.035 . S
Zn115 O121 2.035 . S
Zn115 O122 2.028 . S
O116 C112 1.258 . S
O116 Zn117 2.035 . S
Zn117 O116 2.035 . S
Zn117 O118 2.028 . S
Zn117 O120 2.028 . S
Zn117 O123 2.035 . S
O118 Zn117 2.028 . S
O118 C124 1.247 . S
O119 Zn115 2.035 . S
O119 C124 1.258 . S
O120 C113 1.247 . S
O120 Zn117 2.028 . S
O121 C113 1.258 . S
O121 Zn115 2.035 . S
O122 Zn115 2.028 . S
O122 C125 1.247 . S
O123 Zn117 2.035 . S
O123 C125 1.258 . S
C124 O118 1.247 . S
C124 O119 1.258 . S
C125 O122 1.247 . S
C125 O123 1.258 . S
C126 O128 1.247 . S
C126 O130 1.258 . S
C127 O134 1.247 . S
C127 O135 1.258 . S
O128 C126 1.247 . S
O128 Zn129 2.028 . S
Zn129 O128 2.028 . S
Zn129 O133 2.035 . S
Zn129 O135 2.035 . S
Zn129 O136 2.028 . S
O130 C126 1.258 . S
O130 Zn131 2.035 . S
Zn131 O130 2.035 . S
Zn131 O132 2.028 . S
Zn131 O134 2.028 . S
Zn131 O137 2.035 . S
O132 Zn131 2.028 . S
O132 C138 1.247 . S
O133 Zn129 2.035 . S
O133 C138 1.258 . S
O134 C127 1.247 . S
O134 Zn131 2.028 . S
O135 C127 1.258 . S
O135 Zn129 2.035 . S
O136 Zn129 2.028 . S
O136 C139 1.247 . S
O137 Zn131 2.035 . S
O137 C139 1.258 . S
C138 O132 1.247 . S
C138 O133 1.258 . S
C139 O136 1.247 . S
C139 O137 1.258 . S
C140 O142 1.247 . S
C140 O144 1.258 . S
C141 O148 1.247 . S
C141 O149 1.258 . S
O142 C140 1.247 . S
O142 Zn143 2.028 . S
Zn143 O142 2.028 . S
Zn143 O147 2.035 . S
Zn143 O149 2.035 1_556 S
Zn143 O150 2.028 . S
O144 C140 1.258 . S
O144 Zn145 2.035 . S
Zn145 O144 2.035 . S
Zn145 O146 2.028 . S
Zn145 O148 2.028 1_556 S
Zn145 O151 2.035 . S
O146 Zn145 2.028 . S
O146 C152 1.247 . S
O147 Zn143 2.035 . S
O147 C152 1.258 . S
O148 C141 1.247 . S
O148 Zn145 2.028 1_554 S
O149 C141 1.258 . S
O149 Zn143 2.035 1_554 S
O150 Zn143 2.028 . S
O150 C153 1.247 . S
O151 Zn145 2.035 . S
O151 C153 1.258 . S
C152 O146 1.247 . S
C152 O147 1.258 . S
C153 O150 1.247 . S
C153 O151 1.258 . S
C154 O156 1.247 . S
C154 O158 1.258 . S
C155 O162 1.247 . S
C155 O163 1.258 . S
O156 C154 1.247 . S
O156 Zn157 2.028 . S
Zn157 O156 2.028 . S
Zn157 O161 2.035 . S
Zn157 O163 2.035 . S
Zn157 O164 2.028 . S
O158 C154 1.258 . S
O158 Zn159 2.035 . S
Zn159 O158 2.035 . S
Zn159 O160 2.028 . S
Zn159 O162 2.028 . S
Zn159 O165 2.035 . S
O160 Zn159 2.028 . S
O160 C166 1.247 . S
O161 Zn157 2.035 . S
O161 C166 1.258 . S
O162 C155 1.247 . S
O162 Zn159 2.028 . S
O163 C155 1.258 . S
O163 Zn157 2.035 . S
O164 Zn157 2.028 . S
O164 C167 1.247 . S
O165 Zn159 2.035 . S
O165 C167 1.258 . S
C166 O160 1.247 . S
C166 O161 1.258 . S
C167 O164 1.247 . S
C167 O165 1.258 . S
C168 C169 1.369 . S
C168 C170 1.419 . S
C168 H172 0.930 . S
C169 C168 1.369 . S
C169 C178 1.429 . S
C170 C168 1.419 . S
C170 C171 1.363 . S
C170 H173 0.929 . S
C171 C170 1.363 . S
C171 C177 1.428 . S
H172 C168 0.930 . S
H173 C170 0.929 . S
S174 N175 1.613 . S
S174 N176 1.610 . S
N175 S174 1.613 . S
N175 C178 1.350 . S
N176 S174 1.610 . S
N176 C177 1.351 . S
C177 C171 1.428 . S
C177 N176 1.351 . S
C177 C178 1.434 . S
C178 C169 1.429 . S
C178 N175 1.350 . S
C178 C177 1.434 . S
C179 C180 1.369 . S
C179 C181 1.419 . S
C179 H183 0.930 . S
C180 C179 1.369 . S
C180 C189 1.429 . S
C181 C179 1.419 . S
C181 C182 1.363 . S
C181 H184 0.929 . S
C182 C181 1.363 . S
C182 C188 1.428 . S
H183 C179 0.930 . S
H184 C181 0.929 . S
S185 N186 1.613 . S
S185 N187 1.610 . S
N186 S185 1.613 . S
N186 C189 1.350 . S
N187 S185 1.610 . S
N187 C188 1.351 . S
C188 C182 1.428 . S
C188 N187 1.351 . S
C188 C189 1.434 . S
C189 C180 1.429 . S
C189 N186 1.350 . S
C189 C188 1.434 . S
C190 C191 1.369 . S
C190 C192 1.419 1_556 S
C190 H194 0.930 . S
C191 C190 1.369 . S
C191 C200 1.429 . S
C192 C190 1.419 1_554 S
C192 C193 1.363 . S
C192 H195 0.929 . S
C193 C192 1.363 . S
C193 C199 1.428 . S
H194 C190 0.930 . S
H195 C192 0.929 . S
S196 N197 1.613 . S
S196 N198 1.610 1_556 S
N197 S196 1.613 . S
N197 C200 1.350 . S
N198 S196 1.610 1_554 S
N198 C199 1.351 . S
C199 C193 1.428 . S
C199 N198 1.351 . S
C199 C200 1.434 1_554 S
C200 C191 1.429 . S
C200 N197 1.350 . S
C200 C199 1.434 1_556 S
C201 C202 1.369 . S
C201 C203 1.419 . S
C201 H205 0.930 . S
C202 C201 1.369 . S
C202 C211 1.429 . S
C203 C201 1.419 . S
C203 C204 1.363 . S
C203 H206 0.929 . S
C204 C203 1.363 . S
C204 C210 1.428 . S
H205 C201 0.930 . S
H206 C203 0.929 . S
S207 N208 1.613 . S
S207 N209 1.610 . S
N208 S207 1.613 . S
N208 C211 1.350 . S
N209 S207 1.610 . S
N209 C210 1.351 . S
C210 C204 1.428 . S
C210 N209 1.351 . S
C210 C211 1.434 . S
C211 C202 1.429 . S
C211 N208 1.350 . S
C211 C210 1.434 . S
C212 C213 1.369 . S
C212 C214 1.419 . S
C212 H216 0.930 . S
C213 C212 1.369 . S
C213 C222 1.429 . S
C214 C212 1.419 . S
C214 C215 1.363 . S
C214 H217 0.929 . S
C215 C214 1.363 . S
C215 C221 1.428 . S
H216 C212 0.930 . S
H217 C214 0.929 . S
S218 N219 1.613 . S
S218 N220 1.610 . S
N219 S218 1.613 . S
N219 C222 1.350 . S
N220 S218 1.610 . S
N220 C221 1.351 . S
C221 C215 1.428 . S
C221 N220 1.351 . S
C221 C222 1.434 . S
C222 C213 1.429 . S
C222 N219 1.350 . S
C222 C221 1.434 . S
C223 C224 1.369 . S
C223 C225 1.419 1_554 S
C223 H227 0.930 . S
C224 C223 1.369 . S
C224 C233 1.429 . S
C225 C223 1.419 1_556 S
C225 C226 1.363 . S
C225 H228 0.929 . S
C226 C225 1.363 . S
C226 C232 1.428 . S
H227 C223 0.930 . S
H228 C225 0.929 . S
S229 N230 1.613 1_556 S
S229 N231 1.610 . S
N230 S229 1.613 1_554 S
N230 C233 1.350 . S
N231 S229 1.610 . S
N231 C232 1.351 . S
C232 C226 1.428 . S
C232 N231 1.351 . S
C232 C233 1.434 1_556 S
C233 C224 1.429 . S
C233 N230 1.350 . S
C233 C232 1.434 1_554 S
C234 C235 1.369 . S
C234 C236 1.419 1_554 S
C234 H238 0.930 . S
C235 C234 1.369 . S
C235 C244 1.429 . S
C236 C234 1.419 1_556 S
C236 C237 1.363 . S
C236 H239 0.929 . S
C237 C236 1.363 . S
C237 C243 1.428 . S
H238 C234 0.930 . S
H239 C236 0.929 . S
S240 N241 1.613 . S
S240 N242 1.610 1_554 S
N241 S240 1.613 . S
N241 C244 1.350 . S
N242 S240 1.610 1_556 S
N242 C243 1.351 . S
C243 C237 1.428 . S
C243 N242 1.351 . S
C243 C244 1.434 1_556 S
C244 C235 1.429 . S
C244 N241 1.350 . S
C244 C243 1.434 1_554 S
C245 C246 1.369 . S
C245 C247 1.419 . S
C245 H249 0.930 . S
C246 C245 1.369 . S
C246 C255 1.429 . S
C247 C245 1.419 . S
C247 C248 1.363 . S
C247 H250 0.929 . S
C248 C247 1.363 . S
C248 C254 1.428 . S
H249 C245 0.930 . S
H250 C247 0.929 . S
S251 N252 1.613 . S
S251 N253 1.610 . S
N252 S251 1.613 . S
N252 C255 1.350 . S
N253 S251 1.610 . S
N253 C254 1.351 . S
C254 C248 1.428 . S
C254 N253 1.351 . S
C254 C255 1.434 . S
C255 C246 1.429 . S
C255 N252 1.350 . S
C255 C254 1.434 . S
C256 C257 1.369 . S
C256 C258 1.419 . S
C256 H260 0.930 . S
C257 C256 1.369 . S
C257 C266 1.429 . S
C258 C256 1.419 . S
C258 C259 1.363 . S
C258 H261 0.929 . S
C259 C258 1.363 . S
C259 C265 1.428 . S
H260 C256 0.930 . S
H261 C258 0.929 . S
S262 N263 1.613 . S
S262 N264 1.610 . S
N263 S262 1.613 . S
N263 C266 1.350 . S
N264 S262 1.610 . S
N264 C265 1.351 . S
C265 C259 1.428 . S
C265 N264 1.351 . S
C265 C266 1.434 . S
C266 C257 1.429 . S
C266 N263 1.350 . S
C266 C265 1.434 . S
C267 C268 1.369 . S
C267 C269 1.419 . S
C267 H271 0.930 . S
C268 C267 1.369 . S
C268 C277 1.429 1_554 S
C269 C267 1.419 . S
C269 C270 1.363 1_554 S
C269 H272 0.929 . S
C270 C269 1.363 1_556 S
C270 C276 1.428 . S
H271 C267 0.930 . S
H272 C269 0.929 . S
S273 N274 1.613 . S
S273 N275 1.610 . S
N274 S273 1.613 . S
N274 C277 1.350 . S
N275 S273 1.610 . S
N275 C276 1.351 . S
C276 C270 1.428 . S
C276 N275 1.351 . S
C276 C277 1.434 . S
C277 C268 1.429 1_556 S
C277 N274 1.350 . S
C277 C276 1.434 . S
C278 C279 1.369 . S
C278 C280 1.419 . S
C278 H282 0.930 . S
C279 C278 1.369 . S
C279 C288 1.429 . S
C280 C278 1.419 . S
C280 C281 1.363 . S
C280 H283 0.929 . S
C281 C280 1.363 . S
C281 C287 1.428 . S
H282 C278 0.930 . S
H283 C280 0.929 . S
S284 N285 1.613 . S
S284 N286 1.610 . S
N285 S284 1.613 . S
N285 C288 1.350 . S
N286 S284 1.610 . S
N286 C287 1.351 . S
C287 C281 1.428 . S
C287 N286 1.351 . S
C287 C288 1.434 . S
C288 C279 1.429 . S
C288 N285 1.350 . S
C288 C287 1.434 . S
C289 C290 1.369 . S
C289 C291 1.419 . S
C289 H293 0.930 . S
C290 C289 1.369 . S
C290 C299 1.429 . S
C291 C289 1.419 . S
C291 C292 1.363 . S
C291 H294 0.929 . S
C292 C291 1.363 . S
C292 C298 1.428 . S
H293 C289 0.930 . S
H294 C291 0.929 . S
S295 N296 1.613 . S
S295 N297 1.610 . S
N296 S295 1.613 . S
N296 C299 1.350 . S
N297 S295 1.610 . S
N297 C298 1.351 . S
C298 C292 1.428 . S
C298 N297 1.351 . S
C298 C299 1.434 . S
C299 C290 1.429 . S
C299 N296 1.350 . S
C299 C298 1.434 . S
C300 C301 1.369 . S
C300 C302 1.419 . S
C300 H304 0.930 . S
C301 C300 1.369 . S
C301 C310 1.429 . S
C302 C300 1.419 . S
C302 C303 1.363 . S
C302 H305 0.929 . S
C303 C302 1.363 . S
C303 C309 1.428 . S
H304 C300 0.930 . S
H305 C302 0.929 . S
S306 N307 1.613 . S
S306 N308 1.610 . S
N307 S306 1.613 . S
N307 C310 1.350 . S
N308 S306 1.610 . S
N308 C309 1.351 . S
C309 C303 1.428 . S
C309 N308 1.351 . S
C309 C310 1.434 . S
C310 C301 1.429 . S
C310 N307 1.350 . S
C310 C309 1.434 . S
C311 C312 1.369 . S
C311 C313 1.419 1_655 S
C311 H315 0.930 . S
C312 C311 1.369 . S
C312 C321 1.429 . S
C313 C311 1.419 1_455 S
C313 C314 1.363 . S
C313 H316 0.929 . S
C314 C313 1.363 . S
C314 C320 1.428 . S
H315 C311 0.930 . S
H316 C313 0.929 . S
S317 N318 1.613 1_455 S
S317 N319 1.610 . S
N318 S317 1.613 1_655 S
N318 C321 1.350 . S
N319 S317 1.610 . S
N319 C320 1.351 . S
C320 C314 1.428 . S
C320 N319 1.351 . S
C320 C321 1.434 1_455 S
C321 C312 1.429 . S
C321 N318 1.350 . S
C321 C320 1.434 1_655 S
C322 C323 1.369 . S
C322 C324 1.419 1_545 S
C322 H326 0.930 . S
C323 C322 1.369 . S
C323 C332 1.429 . S
C324 C322 1.419 1_565 S
C324 C325 1.363 . S
C324 H327 0.929 . S
C325 C324 1.363 . S
C325 C331 1.428 . S
H326 C322 0.930 . S
H327 C324 0.929 . S
S328 N329 1.613 1_565 S
S328 N330 1.610 . S
N329 S328 1.613 1_545 S
N329 C332 1.350 . S
N330 S328 1.610 . S
N330 C331 1.351 . S
C331 C325 1.428 . S
C331 N330 1.351 . S
C331 C332 1.434 1_565 S
C332 C323 1.429 . S
C332 N329 1.350 . S
C332 C331 1.434 1_545 S
C333 C334 1.369 . S
C333 C335 1.419 . S
C333 H337 0.930 . S
C334 C333 1.369 . S
C334 C343 1.429 . S
C335 C333 1.419 . S
C335 C336 1.363 . S
C335 H338 0.929 . S
C336 C335 1.363 . S
C336 C342 1.428 . S
H337 C333 0.930 . S
H338 C335 0.929 . S
S339 N340 1.613 . S
S339 N341 1.610 . S
N340 S339 1.613 . S
N340 C343 1.350 . S
N341 S339 1.610 . S
N341 C342 1.351 . S
C342 C336 1.428 . S
C342 N341 1.351 . S
C342 C343 1.434 . S
C343 C334 1.429 . S
C343 N340 1.350 . S
C343 C342 1.434 . S
C344 C345 1.369 . S
C344 C346 1.419 1_455 S
C344 H348 0.930 . S
C345 C344 1.369 . S
C345 C354 1.429 . S
C346 C344 1.419 1_655 S
C346 C347 1.363 . S
C346 H349 0.929 . S
C347 C346 1.363 . S
C347 C353 1.428 . S
H348 C344 0.930 . S
H349 C346 0.929 . S
S350 N351 1.613 1_655 S
S350 N352 1.610 . S
N351 S350 1.613 1_455 S
N351 C354 1.350 . S
N352 S350 1.610 . S
N352 C353 1.351 . S
C353 C347 1.428 . S
C353 N352 1.351 . S
C353 C354 1.434 1_655 S
C354 C345 1.429 . S
C354 N351 1.350 . S
C354 C353 1.434 1_455 S
C355 C356 1.369 . S
C355 C357 1.419 1_565 S
C355 H359 0.930 . S
C356 C355 1.369 . S
C356 C365 1.429 . S
C357 C355 1.419 1_545 S
C357 C358 1.363 . S
C357 H360 0.929 . S
C358 C357 1.363 . S
C358 C364 1.428 . S
H359 C355 0.930 . S
H360 C357 0.929 . S
S361 N362 1.613 1_545 S
S361 N363 1.610 . S
N362 S361 1.613 1_565 S
N362 C365 1.350 . S
N363 S361 1.610 . S
N363 C364 1.351 . S
C364 C358 1.428 . S
C364 N363 1.351 . S
C364 C365 1.434 1_545 S
C365 C356 1.429 . S
C365 N362 1.350 . S
C365 C364 1.434 1_565 S
C366 C367 1.369 . S
C366 C368 1.419 . S
C366 H370 0.930 . S
C367 C366 1.369 . S
C367 C376 1.429 . S
C368 C366 1.419 . S
C368 C369 1.363 . S
C368 H371 0.929 . S
C369 C368 1.363 . S
C369 C375 1.428 . S
H370 C366 0.930 . S
H371 C368 0.929 . S
S372 N373 1.613 . S
S372 N374 1.610 . S
N373 S372 1.613 . S
N373 C376 1.350 . S
N374 S372 1.610 . S
N374 C375 1.351 . S
C375 C369 1.428 . S
C375 N374 1.351 . S
C375 C376 1.434 . S
C376 C367 1.429 . S
C376 N373 1.350 . S
C376 C375 1.434 . S
C377 C378 1.369 . S
C377 C379 1.419 . S
C377 H381 0.930 . S
C378 C377 1.369 . S
C378 C387 1.429 . S
C379 C377 1.419 . S
C379 C380 1.363 . S
C379 H382 0.929 . S
C380 C379 1.363 . S
C380 C386 1.428 . S
H381 C377 0.930 . S
H382 C379 0.929 . S
S383 N384 1.613 . S
S383 N385 1.610 . S
N384 S383 1.613 . S
N384 C387 1.350 . S
N385 S383 1.610 . S
N385 C386 1.351 . S
C386 C380 1.428 . S
C386 N385 1.351 . S
C386 C387 1.434 . S
C387 C378 1.429 . S
C387 N384 1.350 . S
C387 C386 1.434 . S
C388 C389 1.369 . S
C388 C390 1.419 . S
C388 H392 0.930 . S
C389 C388 1.369 . S
C389 C398 1.429 . S
C390 C388 1.419 . S
C390 C391 1.363 . S
C390 H393 0.929 . S
C391 C390 1.363 . S
C391 C397 1.428 . S
H392 C388 0.930 . S
H393 C390 0.929 . S
S394 N395 1.613 . S
S394 N396 1.610 . S
N395 S394 1.613 . S
N395 C398 1.350 . S
N396 S394 1.610 . S
N396 C397 1.351 . S
C397 C391 1.428 . S
C397 N396 1.351 . S
C397 C398 1.434 . S
C398 C389 1.429 . S
C398 N395 1.350 . S
C398 C397 1.434 . S
C399 C400 1.369 . S
C399 C401 1.419 . S
C399 H403 0.930 . S
C400 C399 1.369 . S
C400 C409 1.429 . S
C401 C399 1.419 . S
C401 C402 1.363 . S
C401 H404 0.929 . S
C402 C401 1.363 . S
C402 C408 1.428 . S
H403 C399 0.930 . S
H404 C401 0.929 . S
S405 N406 1.613 . S
S405 N407 1.610 . S
N406 S405 1.613 . S
N406 C409 1.350 . S
N407 S405 1.610 . S
N407 C408 1.351 . S
C408 C402 1.428 . S
C408 N407 1.351 . S
C408 C409 1.434 . S
C409 C400 1.429 . S
C409 N406 1.350 . S
C409 C408 1.434 . S
C410 C411 1.369 . S
C410 C412 1.419 . S
C410 H414 0.930 . S
C411 C410 1.369 . S
C411 C420 1.429 . S
C412 C410 1.419 . S
C412 C413 1.363 . S
C412 H415 0.929 . S
C413 C412 1.363 . S
C413 C419 1.428 . S
H414 C410 0.930 . S
H415 C412 0.929 . S
S416 N417 1.613 . S
S416 N418 1.610 . S
N417 S416 1.613 . S
N417 C420 1.350 . S
N418 S416 1.610 . S
N418 C419 1.351 . S
C419 C413 1.428 . S
C419 N418 1.351 . S
C419 C420 1.434 . S
C420 C411 1.429 . S
C420 N417 1.350 . S
C420 C419 1.434 . S
C421 C422 1.369 . S
C421 C423 1.419 . S
C421 H425 0.930 . S
C422 C421 1.369 . S
C422 C431 1.429 . S
C423 C421 1.419 . S
C423 C424 1.363 . S
C423 H426 0.929 . S
C424 C423 1.363 . S
C424 C430 1.428 . S
H425 C421 0.930 . S
H426 C423 0.929 . S
S427 N428 1.613 . S
S427 N429 1.610 . S
N428 S427 1.613 . S
N428 C431 1.350 . S
N429 S427 1.610 . S
N429 C430 1.351 . S
C430 C424 1.428 . S
C430 N429 1.351 . S
C430 C431 1.434 . S
C431 C422 1.429 . S
C431 N428 1.350 . S
C431 C430 1.434 . S
C169 C12 1.646 . S
C171 C85 1.643 . S
C180 C15 1.644 . S
C182 C98 1.643 . S
C191 C28 1.645 . S
C193 C125 1.644 . S
C202 C43 1.645 . S
C204 C138 1.644 . S
C213 C56 1.643 . S
C215 C140 1.645 . S
C224 C155 1.643 . S
C226 C70 1.643 . S
C235 C0 1.763 . S
C237 C152 1.764 . S
C246 C27 1.761 . S
C248 C167 1.762 . S
C257 C40 1.763 . S
C259 C97 1.765 . S
C268 C55 1.765 . S
C270 C110 1.766 . S
C279 C68 1.764 . S
C281 C113 1.765 . S
C290 C82 1.766 . S
C292 C126 1.766 . S
C301 C1 1.764 . S
C303 C54 1.762 . S
C312 C26 1.768 . S
C314 C69 1.759 . S
C323 C83 1.766 . S
C325 C41 1.759 . S
C334 C96 1.766 . S
C336 C127 1.759 . S
C345 C153 1.766 . S
C347 C111 1.760 . S
C356 C112 1.764 . S
C358 C166 1.762 . S
C367 C84 1.209 . S
C369 C13 1.205 . S
C378 C14 1.209 . S
C380 C99 1.206 . S
C389 C29 1.206 . S
C391 C124 1.206 . S
C400 C139 1.207 . S
C402 C42 1.206 . S
C411 C141 1.207 . S
C413 C57 1.205 . S
C422 C71 1.208 . S
C424 C154 1.207 . S
