# Generated by pormake.
# Topology unf, (4)-cn, num edge types: 1
# Building blocks:
#     Node 0, Type 0, BuildingBlock: CEKHIL_clean_sbu_0, # of connection points: 4
#     Node 1, Type 0, BuildingBlock: CEKHIL_clean_sbu_0, # of connection points: 4
#     Node 2, Type 0, BuildingBlock: CEKHIL_clean_sbu_0, # of connection points: 4
#     Node 3, Type 0, BuildingBlock: CEKHIL_clean_sbu_0, # of connection points: 4
#     Node 4, Type 0, BuildingBlock: CEKHIL_clean_sbu_0, # of connection points: 4
#     Node 5, Type 0, BuildingBlock: CEKHIL_clean_sbu_0, # of connection points: 4
#     Node 6, Type 0, BuildingBlock: CEKHIL_clean_sbu_0, # of connection points: 4
#     Node 7, Type 0, BuildingBlock: CEKHIL_clean_sbu_0, # of connection points: 4
#     Node 8, Type 0, BuildingBlock: CEKHIL_clean_sbu_0, # of connection points: 4
#     Node 9, Type 0, BuildingBlock: CEKHIL_clean_sbu_0, # of connection points: 4
#     Node 10, Type 0, BuildingBlock: CEKHIL_clean_sbu_0, # of connection points: 4
#     Node 11, Type 0, BuildingBlock: CEKHIL_clean_sbu_0, # of connection points: 4
#     Edge 12, Type (0, 0), BuildingBlock: AJUNOK_clean_linker_0, # of connection points: 2
#     Edge 13, Type (0, 0), BuildingBlock: AJUNOK_clean_linker_0, # of connection points: 2
#     Edge 14, Type (0, 0), BuildingBlock: AJUNOK_clean_linker_0, # of connection points: 2
#     Edge 15, Type (0, 0), BuildingBlock: AJUNOK_clean_linker_0, # of connection points: 2
#     Edge 16, Type (0, 0), BuildingBlock: AJUNOK_clean_linker_0, # of connection points: 2
#     Edge 17, Type (0, 0), BuildingBlock: AJUNOK_clean_linker_0, # of connection points: 2
#     Edge 18, Type (0, 0), BuildingBlock: AJUNOK_clean_linker_0, # of connection points: 2
#     Edge 19, Type (0, 0), BuildingBlock: AJUNOK_clean_linker_0, # of connection points: 2
#     Edge 20, Type (0, 0), BuildingBlock: AJUNOK_clean_linker_0, # of connection points: 2
#     Edge 21, Type (0, 0), BuildingBlock: AJUNOK_clean_linker_0, # of connection points: 2
#     Edge 22, Type (0, 0), BuildingBlock: AJUNOK_clean_linker_0, # of connection points: 2
#     Edge 23, Type (0, 0), BuildingBlock: AJUNOK_clean_linker_0, # of connection points: 2
#     Edge 24, Type (0, 0), BuildingBlock: AJUNOK_clean_linker_0, # of connection points: 2
#     Edge 25, Type (0, 0), BuildingBlock: AJUNOK_clean_linker_0, # of connection points: 2
#     Edge 26, Type (0, 0), BuildingBlock: AJUNOK_clean_linker_0, # of connection points: 2
#     Edge 27, Type (0, 0), BuildingBlock: AJUNOK_clean_linker_0, # of connection points: 2
#     Edge 28, Type (0, 0), BuildingBlock: AJUNOK_clean_linker_0, # of connection points: 2
#     Edge 29, Type (0, 0), BuildingBlock: AJUNOK_clean_linker_0, # of connection points: 2
#     Edge 30, Type (0, 0), BuildingBlock: AJUNOK_clean_linker_0, # of connection points: 2
#     Edge 31, Type (0, 0), BuildingBlock: AJUNOK_clean_linker_0, # of connection points: 2
#     Edge 32, Type (0, 0), BuildingBlock: AJUNOK_clean_linker_0, # of connection points: 2
#     Edge 33, Type (0, 0), BuildingBlock: AJUNOK_clean_linker_0, # of connection points: 2
#     Edge 34, Type (0, 0), BuildingBlock: AJUNOK_clean_linker_0, # of connection points: 2
#     Edge 35, Type (0, 0), BuildingBlock: AJUNOK_clean_linker_0, # of connection points: 2
# Relax obj value: 0.233
# Max RMSD: 0.183
# Mean RMSD: 0.177
data_MOF--net-unf--node1-CEKHIL_clean_sbu_0--edge1-AJUNOK_clean_linker_0
_symmetry_space_group_name_H-M    P1
_symmetry_Int_Tables_number       1
_symmetry_cell_setting            triclinic
loop_
_symmetry_equiv_pos_as_xyz
'x, y, z'
_cell_length_a     28.049602
_cell_length_b     27.770573
_cell_length_c     26.185357
_cell_angle_alpha  89.577303
_cell_angle_beta   90.536961
_cell_angle_gamma 120.5182
loop_
_atom_site_label
_atom_site_type_symbol
_atom_site_fract_x
_atom_site_fract_y
_atom_site_fract_z
_atom_type_partial_charge
Co0 Co 0.10664 0.41234 0.095 0.0
O1 O 0.16351 0.46134 0.14342 0.0
O2 O 0.10496 0.37141 0.15564 0.0
C3 C 0.07017 0.46551 0.07099 0.0
O4 O 0.04229 0.34915 0.05598 0.0
Co5 Co 0.11744 0.44383 0.97996 0.0
O6 O 0.03822 0.38424 0.97925 0.0
C7 C 0.18663 0.40217 0.02214 0.0
C8 C 0.14765 0.4173 0.17202 0.0
C9 C 0.01718 0.34682 0.01385 0.0
O10 O 0.16033 0.39306 0.06428 0.0
O11 O 0.17819 0.42558 0.98363 0.0
O12 O 0.05688 0.43904 0.11453 0.0
O13 O 0.1118 0.46682 0.04859 0.0
Co14 Co 0.57684 0.68083 0.10157 0.0
O15 O 0.52822 0.69162 0.14598 0.0
O16 O 0.61559 0.71932 0.16347 0.0
C17 C 0.52011 0.5907 0.07862 0.0
O18 O 0.63854 0.67541 0.06627 0.0
Co19 Co 0.54725 0.65641 0.98561 0.0
O20 O 0.60599 0.63639 0.98903 0.0
C21 C 0.59287 0.77036 0.02404 0.0
C22 C 0.57005 0.71725 0.17705 0.0
C23 C 0.64185 0.65238 0.02493 0.0
O24 O 0.60217 0.75536 0.06777 0.0
O25 O 0.56672 0.73643 0.98761 0.0
O26 O 0.54498 0.60255 0.12289 0.0
O27 O 0.52298 0.63287 0.05479 0.0
Co28 Co 0.31543 0.89181 0.09772 0.0
O29 O 0.30219 0.83319 0.14648 0.0
O30 O 0.28017 0.89811 0.15834 0.0
C31 C 0.40345 0.92111 0.07291 0.0
O32 O 0.32335 0.95896 0.05903 0.0
Co33 Co 0.33384 0.88011 0.98232 0.0
O34 O 0.35332 0.95959 0.97955 0.0
C35 C 0.22317 0.81328 0.02528 0.0
C36 C 0.27845 0.85308 0.17504 0.0
C37 C 0.34189 0.98272 0.01552 0.0
O38 O 0.23989 0.84219 0.06652 0.0
O39 O 0.25548 0.81789 0.98906 0.0
O40 O 0.39431 0.93742 0.11641 0.0
O41 O 0.3598 0.8812 0.05134 0.0
Co42 Co 0.57185 0.88652 0.42954 0.0
O43 O 0.52356 0.82397 0.3857 0.0
O44 O 0.6103 0.88728 0.36845 0.0
C45 C 0.5154 0.91898 0.45173 0.0
O46 O 0.63362 0.95694 0.4623 0.0
Co47 Co 0.54798 0.88733 0.54569 0.0
O48 O 0.60888 0.96641 0.54139 0.0
C49 C 0.59677 0.82193 0.51016 0.0
C50 C 0.5656 0.84154 0.35514 0.0
C51 C 0.64148 0.98525 0.50336 0.0
O52 O 0.59929 0.84002 0.46441 0.0
O53 O 0.5751 0.83329 0.54745 0.0
O54 O 0.53852 0.93041 0.40694 0.0
O55 O 0.51921 0.88088 0.47693 0.0
Co56 Co 0.11015 0.68679 0.43049 0.0
O57 O 0.16506 0.69769 0.38027 0.0
O58 O 0.10896 0.73133 0.37334 0.0
C59 C 0.07295 0.59457 0.44697 0.0
O60 O 0.04737 0.68209 0.47398 0.0
Co61 Co 0.12368 0.65272 0.54133 0.0
O62 O 0.04784 0.64022 0.54793 0.0
C63 C 0.19297 0.76936 0.50874 0.0
C64 C 0.14994 0.72785 0.35448 0.0
C65 C 0.02599 0.65982 0.51756 0.0
O66 O 0.16578 0.7579 0.46636 0.0
O67 O 0.18548 0.7321 0.54181 0.0
O68 O 0.05804 0.61083 0.40616 0.0
O69 O 0.1158 0.63361 0.47003 0.0
Co70 Co 0.31672 0.42093 0.42692 0.0
O71 O 0.30774 0.46761 0.37648 0.0
O72 O 0.2789 0.37801 0.36688 0.0
C73 C 0.40625 0.47784 0.45136 0.0
O74 O 0.31899 0.35963 0.46803 0.0
Co75 Co 0.33568 0.45387 0.54131 0.0
O76 O 0.3577 0.39626 0.54428 0.0
C77 C 0.22421 0.40816 0.49837 0.0
C78 C 0.28064 0.42264 0.34895 0.0
C79 C 0.34167 0.35824 0.51052 0.0
O80 O 0.24241 0.39984 0.45648 0.0
O81 O 0.25566 0.43244 0.53688 0.0
O82 O 0.39453 0.44994 0.40879 0.0
O83 O 0.36441 0.47716 0.47258 0.0
Co84 Co 0.89491 0.58343 0.9304 0.0
O85 O 0.94063 0.55124 0.91544 0.0
O86 O 0.88903 0.53283 0.98411 0.0
C87 C 0.85421 0.57613 0.85279 0.0
O88 O 0.842 0.60609 0.95978 0.0
Co89 Co 0.92055 0.69594 0.8827 0.0
O90 O 0.86013 0.68866 0.92662 0.0
C91 C 0.99795 0.69486 0.95547 0.0
C92 C 0.92625 0.52722 0.96012 0.0
C93 C 0.83268 0.64684 0.95584 0.0
O94 O 0.96061 0.64506 0.968 0.0
O95 O 0.99252 0.72177 0.91842 0.0
O96 O 0.83583 0.53287 0.88297 0.0
O97 O 0.90051 0.6191 0.86728 0.0
Co98 Co 0.41994 0.31158 0.92518 0.0
O99 O 0.46834 0.30176 0.87903 0.0
O100 O 0.38179 0.27809 0.86206 0.0
C101 C 0.47707 0.39892 0.95412 0.0
O102 O 0.35822 0.31702 0.96049 0.0
Co103 Co 0.44266 0.3246 0.04226 0.0
O104 O 0.38528 0.3462 0.04112 0.0
C105 C 0.40129 0.21511 0.9954 0.0
C106 C 0.42607 0.27796 0.84806 0.0
C107 C 0.35229 0.33564 1.0035 0.0
O108 O 0.39325 0.23437 0.95349 0.0
O109 O 0.42434 0.24543 0.03473 0.0
O110 O 0.45408 0.39126 0.9091 0.0
O111 O 0.47227 0.35452 0.97519 0.0
Co112 Co 0.68916 0.09528 0.92009 0.0
O113 O 0.61053 0.04922 0.90718 0.0
O114 O 0.64753 0.09983 0.97661 0.0
C115 C 0.71901 0.13726 0.84241 0.0
O116 O 0.76693 0.1478 0.94731 0.0
Co117 Co 0.77157 0.07035 0.86435 0.0
O118 O 0.82848 0.13532 0.90319 0.0
C119 C 0.69914 0.99273 0.94194 0.0
C120 C 0.60331 0.06208 0.95307 0.0
C121 C 0.8167 0.16004 0.93727 0.0
O122 O 0.6859 0.02881 0.95496 0.0
O123 O 0.72971 0.99898 0.90368 0.0
O124 O 0.69702 0.15586 0.87469 0.0
O125 O 0.71467 0.09022 0.85536 0.0
Co126 Co 0.41204 0.10156 0.5986 0.0
O127 O 0.44304 0.05414 0.61069 0.0
O128 O 0.45771 0.10618 0.54176 0.0
C129 C 0.42489 0.14274 0.67631 0.0
O130 O 0.38816 0.15547 0.57293 0.0
Co131 Co 0.30444 0.07468 0.65466 0.0
O132 O 0.3123 0.13999 0.61604 0.0
C133 C 0.30467 0.9955 0.58393 0.0
C134 C 0.46339 0.06773 0.56485 0.0
C135 C 0.35011 0.16678 0.58318 0.0
O136 O 0.34764 0.03637 0.5636 0.0
O137 O 0.28393 4e-05 0.62552 0.0
O138 O 0.46577 0.16106 0.64416 0.0
O139 O 0.38175 0.09596 0.66335 0.0
Co140 Co 0.8957 0.30876 0.59328 0.0
O141 O 0.83595 0.2965 0.63869 0.0
O142 O 0.89837 0.27237 0.65564 0.0
C143 C 0.92581 0.39727 0.56749 0.0
O144 O 0.96444 0.3167 0.55852 0.0
Co145 Co 0.88983 0.32818 0.47662 0.0
O146 O 0.96887 0.34957 0.4788 0.0
C147 C 0.81996 0.21611 0.51926 0.0
C148 C 0.85363 0.27178 0.66935 0.0
C149 C 0.99025 0.33731 0.51618 0.0
O150 O 0.84607 0.23293 0.56204 0.0
O151 O 0.8281 0.24888 0.48158 0.0
O152 O 0.9406 0.38778 0.61207 0.0
O153 O 0.88724 0.35363 0.54474 0.0
Co154 Co 0.70055 0.59825 0.59764 0.0
O155 O 0.62236 0.56707 0.60914 0.0
O156 O 0.65747 0.55356 0.53937 0.0
C157 C 0.72598 0.58159 0.67601 0.0
O158 O 0.77919 0.623 0.57315 0.0
Co159 Co 0.78316 0.70339 0.6595 0.0
O160 O 0.83814 0.68819 0.62879 0.0
C161 C 0.7118 0.7121 0.58345 0.0
C162 C 0.614 0.5473 0.56303 0.0
C163 C 0.82828 0.65499 0.59161 0.0
O164 O 0.70177 0.66508 0.56495 0.0
O165 O 0.73921 0.73225 0.62474 0.0
O166 O 0.70389 0.5419 0.64205 0.0
O167 O 0.72453 0.62584 0.66357 0.0
C168 C 0.24701 0.37881 0.97008 0.0
C169 C 0.22789 0.38378 0.01819 0.0
C170 C 0.28578 0.36135 0.96552 0.0
C171 C 0.30743 0.3487 1.00892 0.0
H172 H 0.23195 0.38844 0.93551 0.0
H173 H 0.29989 0.35916 0.92771 0.0
S174 S 0.27012 0.35342 0.14385 0.0
N175 N 0.23311 0.37341 0.11028 0.0
N176 N 0.30562 0.34072 0.1016 0.0
C177 C 0.28817 0.35277 0.05724 0.0
C178 C 0.24853 0.37022 0.06191 0.0
C179 C 0.59018 0.85522 0.9979 0.0
C180 C 0.62095 0.83009 0.0119 0.0
C181 C 0.61657 0.9097 0.97814 0.0
C182 C 0.67408 0.93954 0.97004 0.0
H183 H 0.54548 0.8321 1.00093 0.0
H184 H 0.59152 0.92739 0.96652 0.0
S185 S 0.77282 0.89259 1.00272 0.0
N186 N 0.71176 0.83968 0.01933 0.0
N187 N 0.76111 0.94127 0.97981 0.0
C188 C 0.70531 0.91535 0.98523 0.0
C189 C 0.67871 0.86068 1.0068 0.0
C190 C 0.12796 0.79866 0.02551 0.0
C191 C 0.16335 0.77765 0.01611 0.0
C192 C 0.07316 0.77049 1.00747 0.0
C193 C 0.05194 0.71977 0.98111 0.0
H194 H 0.14368 0.83877 0.04397 0.0
H195 H 0.04782 0.78923 0.01277 0.0
S196 S 0.12649 0.64556 0.95022 0.0
N197 N 0.17262 0.70219 0.98092 0.0
N198 N 0.06906 0.64836 0.94857 0.0
C199 C 0.08587 0.69684 0.97413 0.0
C200 C 0.14184 0.72605 0.99132 0.0
C201 C 0.63911 0.71339 0.52789 0.0
C202 C 0.68731 0.74248 0.55826 0.0
C203 C 0.6104 0.73963 0.51037 0.0
C204 C 0.62916 0.79551 0.52285 0.0
H205 H 0.62199 0.66946 0.51955 0.0
H206 H 0.57238 0.71563 0.48877 0.0
S207 S 0.75617 0.89216 0.59498 0.0
N208 N 0.75504 0.83214 0.59522 0.0
N209 N 0.70044 0.88058 0.56284 0.0
C210 C 0.67846 0.82575 0.55069 0.0
C211 C 0.70779 0.79946 0.56825 0.0
C212 C 0.22431 0.87097 0.49747 0.0
C213 C 0.22933 0.82886 0.52317 0.0
C214 C 0.25034 0.9258 0.51627 0.0
C215 C 0.28182 0.93997 0.56137 0.0
H216 H 0.19809 0.8611 0.46395 0.0
H217 H 0.24408 0.95664 0.49661 0.0
S218 S 0.31614 0.84926 0.6383 0.0
N219 N 0.27481 0.80814 0.59264 0.0
N220 N 0.32239 0.91092 0.62802 0.0
C221 C 0.29019 0.89978 0.58559 0.0
C222 C 0.26434 0.84425 0.56641 0.0
C223 C 0.08295 0.36498 0.55459 0.0
C224 C 0.04846 0.35076 0.51121 0.0
C225 C 0.13957 0.38351 0.55014 0.0
C226 C 0.16393 0.38799 0.50216 0.0
H227 H 0.06648 0.36341 0.59222 0.0
H228 H 0.16441 0.39455 0.58469 0.0
S229 S 0.09066 0.35272 0.37677 0.0
N230 N 0.04221 0.34024 0.41883 0.0
N231 N 0.14808 0.37473 0.41032 0.0
C232 C 0.12943 0.3725 0.45854 0.0
C233 C 0.07195 0.35404 0.46309 0.0
C234 C 0.74408 0.69307 0.02316 0.0
C235 C 0.69064 0.64679 0.01637 0.0
C236 C 0.7906 0.69183 1.00578 0.0
C237 C 0.7852 0.6437 0.98259 0.0
H238 H 0.74967 0.73159 0.03893 0.0
H239 H 0.83089 0.72939 1.00884 0.0
S240 S 0.65456 0.50992 0.96063 0.0
N241 N 0.63509 0.55069 0.98765 0.0
N242 N 0.72272 0.54758 0.95696 0.0
C243 C 0.73234 0.59599 0.9788 0.0
C244 C 0.68494 0.59776 0.99518 0.0
C245 C 0.37075 0.12825 0.04644 0.0
C246 C 0.38315 0.15504 0.99859 0.0
C247 C 0.35585 0.07215 0.05116 0.0
C248 C 0.35332 0.04061 1.00828 0.0
H249 H 0.37279 0.15085 0.08072 0.0
H250 H 0.34759 0.05392 0.08907 0.0
S251 S 0.38117 0.09108 0.87399 0.0
N252 N 0.3911 0.14575 0.9072 0.0
N253 N 0.36319 0.04019 0.91597 0.0
C254 C 0.36473 0.06665 0.95996 0.0
C255 C 0.37953 0.12382 0.95514 0.0
C256 C 0.95551 0.24443 1.00263 0.0
C257 C 0.96246 0.29813 1.00329 0.0
C258 C 0.90682 0.1991 0.98304 0.0
C259 C 0.86322 0.20597 0.96495 0.0
H260 H 0.98908 0.2381 0.01441 0.0
H261 H 0.90387 0.15873 0.9806 0.0
S262 S 0.85971 0.33754 0.96334 0.0
N263 N 0.9212 0.35542 0.98726 0.0
N264 N 0.82869 0.26968 0.95217 0.0
C265 C 0.86841 0.2588 0.96853 0.0
C266 C 0.91845 0.30513 0.98725 0.0
C267 C 0.30244 0.20878 0.53638 0.0
C268 C 0.35125 0.21478 0.55797 0.0
C269 C 0.3005 0.25532 0.51812 0.0
C270 C 0.34683 0.30933 0.5225 0.0
H271 H 0.26521 0.16798 0.53465 0.0
H272 H 0.2618 0.24934 0.50294 0.0
S273 S 0.4849 0.34699 0.57415 0.0
N274 N 0.44764 0.27828 0.58029 0.0
N275 N 0.44337 0.36618 0.54775 0.0
C276 C 0.39624 0.3157 0.54272 0.0
C277 C 0.39864 0.26821 0.56001 0.0
C278 C 0.75299 0.1236 0.5579 0.0
C279 C 0.77723 0.1563 0.51398 0.0
C280 C 0.70973 0.06809 0.55407 0.0
C281 C 0.68946 0.04284 0.5062 0.0
H282 H 0.76646 0.14136 0.59566 0.0
H283 H 0.6918 0.04496 0.58899 0.0
S284 S 0.74073 0.10929 0.37946 0.0
N285 N 0.77933 0.15855 0.42101 0.0
N286 N 0.69805 0.05427 0.41388 0.0
C287 C 0.71437 0.0745 0.46196 0.0
C288 C 0.75817 0.13119 0.46584 0.0
C289 C 0.93354 0.6529 0.50136 0.0
C290 C 0.97509 0.65823 0.53558 0.0
C291 C 0.88461 0.64956 0.51929 0.0
C292 C 0.87629 0.6524 0.57189 0.0
H293 H 0.93864 0.6508 0.46064 0.0
H294 H 0.85391 0.64623 0.49189 0.0
S295 S 0.97171 0.66544 0.67717 0.0
N296 N 1.00387 0.66582 0.62464 0.0
N297 N 0.91266 0.659 0.65779 0.0
C298 C 0.91724 0.65706 0.60624 0.0
C299 C 0.96644 0.6602 0.58825 0.0
C300 C 0.25491 0.4702 0.28043 0.0
C301 C 0.24785 0.42064 0.30274 0.0
C302 C 0.22214 0.46889 0.23867 0.0
C303 C 0.18016 0.41797 0.21796 0.0
H304 H 0.28609 0.51046 0.29528 0.0
H305 H 0.22973 0.50821 0.22261 0.0
S306 S 0.1442 0.27614 0.26256 0.0
N307 N 0.19533 0.319 0.30058 0.0
N308 N 0.13369 0.31658 0.22323 0.0
C309 C 0.17249 0.36813 0.24013 0.0
C310 C 0.2063 0.36946 0.28209 0.0
C311 C 0.61633 0.78949 0.24572 0.0
C312 C 0.56729 0.74661 0.22347 0.0
C313 C 0.61509 0.82032 0.2875 0.0
C314 C 0.56478 0.80915 0.30952 0.0
H315 H 0.65619 0.80012 0.2302 0.0
H316 H 0.65415 0.85291 0.30297 0.0
S317 S 0.42448 0.70021 0.26654 0.0
N318 N 0.46673 0.69426 0.22702 0.0
N319 N 0.4645 0.75132 0.30607 0.0
C320 C 0.51539 0.7659 0.2881 0.0
C321 C 0.51662 0.73495 0.245 0.0
C322 C 0.2507 0.77835 0.24247 0.0
C323 C 0.24642 0.82294 0.22168 0.0
C324 C 0.21904 0.74769 0.28489 0.0
C325 C 0.18098 0.75961 0.30804 0.0
H326 H 0.27885 0.76696 0.22593 0.0
H327 H 0.22442 0.71417 0.29954 0.0
S328 S 0.15338 0.87185 0.26825 0.0
N329 N 0.2007 0.87732 0.22782 0.0
N330 N 0.1411 0.8195 0.30675 0.0
C331 C 0.17603 0.80388 0.28748 0.0
C332 C 0.20875 0.83556 0.24466 0.0
C333 C 0.78822 0.5294 0.77857 0.0
C334 C 0.82163 0.57769 0.80784 0.0
C335 C 0.75736 0.53062 0.73604 0.0
C336 C 0.75714 0.57971 0.72216 0.0
H337 H 0.7867 0.4906 0.78799 0.0
H338 H 0.73341 0.49277 0.71404 0.0
S339 S 0.83366 0.71615 0.78947 0.0
N340 N 0.85122 0.67542 0.82015 0.0
N341 N 0.79039 0.67666 0.74434 0.0
C342 C 0.7888 0.62751 0.75251 0.0
C343 C 0.82175 0.62679 0.79418 0.0
C344 C 0.47395 0.25927 0.77602 0.0
C345 C 0.42533 0.24492 0.8031 0.0
C346 C 0.47357 0.22625 0.73509 0.0
C347 C 0.42494 0.17659 0.72066 0.0
H348 H 0.51248 0.29651 0.78626 0.0
H349 H 0.51182 0.23958 0.71488 0.0
S350 S 0.2876 0.11817 0.78272 0.0
N351 N 0.32769 0.17691 0.8136 0.0
N352 N 0.32754 0.11362 0.73953 0.0
C353 C 0.37648 0.16123 0.74859 0.0
C354 C 0.37652 0.19568 0.78897 0.0
C355 C 0.75696 0.22229 0.78471 0.0
C356 C 0.75271 0.1708 0.79756 0.0
C357 C 0.78963 0.25499 0.74337 0.0
C358 C 0.8206 0.2383 0.7141 0.0
H359 H 0.73471 0.23746 0.80661 0.0
H360 H 0.79111 0.29391 0.73462 0.0
S361 S 0.82153 0.10583 0.72911 0.0
N362 N 0.78022 0.10355 0.77471 0.0
N363 N 0.84293 0.16584 0.69928 0.0
C364 C 0.81658 0.18699 0.72631 0.0
C365 C 0.78236 0.15308 0.76737 0.0
C366 C 0.0434 0.50004 0.99268 0.0
C367 C 0.03222 0.48018 0.0434 0.0
C368 C 0.00714 0.51162 0.96491 0.0
C369 C 0.95847 0.50493 0.98684 0.0
H370 H 0.08064 0.50687 0.97405 0.0
H371 H 0.01841 0.52771 0.92639 0.0
S372 S 0.90755 0.45017 0.11721 0.0
N373 N 0.96671 0.45114 0.11331 0.0
N374 N 0.89944 0.47383 0.06176 0.0
C375 C 0.94594 0.4836 0.03706 0.0
C376 C 0.98263 0.47131 0.06519 0.0
C377 C 0.47935 0.52906 1.00215 0.0
C378 C 0.50613 0.53893 0.05001 0.0
C379 C 0.47186 0.48504 0.97062 0.0
C380 C 0.49063 0.44874 0.98563 0.0
H381 H 0.46458 0.55611 0.98848 0.0
H382 H 0.45038 0.479 0.93453 0.0
S383 S 0.56457 0.45683 0.10657 0.0
N384 N 0.55224 0.50883 0.11041 0.0
N385 N 0.5379 0.42603 0.05143 0.0
C386 C 0.51722 0.45784 0.03349 0.0
C387 C 0.52491 0.50277 0.06563 0.0
C388 C 0.49528 0.00996 0.05922 0.0
C389 C 0.45529 0.95582 0.04301 0.0
C390 C 0.54191 0.04486 0.02917 0.0
C391 C 0.55022 0.02754 0.98121 0.0
H392 H 0.49041 0.0258 0.09527 0.0
H393 H 0.57192 0.08568 0.04387 0.0
S394 S 0.45893 0.88881 0.92187 0.0
N395 N 0.4287 0.88589 0.97648 0.0
N396 N 0.51444 0.9518 0.91954 0.0
C397 C 0.51033 0.97361 0.96447 0.0
C398 C 0.46356 0.93774 0.99546 0.0
C399 C 0.47709 0.94305 0.52727 0.0
C400 C 0.50139 0.95752 0.47851 0.0
C401 C 0.46734 0.97991 0.55568 0.0
C402 C 0.48127 0.03304 0.53666 0.0
H403 H 0.46542 0.90272 0.54386 0.0
H404 H 0.44742 0.96589 0.59242 0.0
S405 S 0.54821 0.09279 0.41206 0.0
N406 N 0.54097 0.02996 0.41324 0.0
N407 N 0.52214 0.09884 0.46628 0.0
C408 C 0.50611 0.04839 0.48817 0.0
C409 C 0.51619 0.01081 0.45921 0.0
C410 C 0.01795 0.48263 0.55036 0.0
C411 C 0.96159 0.44895 0.53778 0.0
C412 C 0.05388 0.52792 0.51933 0.0
C413 C 0.035 0.54181 0.47461 0.0
H414 H 0.03484 0.47327 0.58381 0.0
H415 H 0.09687 0.55265 0.53092 0.0
S416 S 0.89059 0.46733 0.42542 0.0
N417 N 0.88831 0.43266 0.47771 0.0
N418 N 0.9556 0.51815 0.41987 0.0
C419 C 0.97867 0.5084 0.46159 0.0
C420 C 0.94209 0.46206 0.49311 0.0
C421 C 0.49877 0.48345 0.46184 0.0
C422 C 0.45978 0.49724 0.47941 0.0
C423 C 0.54785 0.4985 0.48944 0.0
C424 C 0.55979 0.5274 0.53616 0.0
H425 H 0.49124 0.46044 0.42659 0.0
H426 H 0.57665 0.48738 0.47399 0.0
S427 S 0.47289 0.57607 0.59781 0.0
N428 N 0.43806 0.54373 0.54574 0.0
N429 N 0.52893 0.57088 0.5977 0.0
C430 C 0.52118 0.54155 0.55402 0.0
C431 C 0.47169 0.52686 0.52568 0.0
loop_
_geom_bond_atom_site_label_1
_geom_bond_atom_site_label_2
_geom_bond_distance
_geom_bond_site_symmetry_2
_ccdc_geom_bond_type
Co0 O1 2.216 . S
Co0 O2 2.091 . S
Co0 O4 2.004 . S
Co0 O10 2.021 . S
Co0 O12 2.137 . S
Co0 O13 2.244 . S
O1 Co0 2.216 . S
O1 C8 1.247 . S
O2 Co0 2.091 . S
O2 C8 1.261 . S
C3 O12 1.247 . S
C3 O13 1.272 . S
O4 Co0 2.004 . S
O4 C9 1.259 1_455 S
Co5 O6 2.061 . S
Co5 O11 2.052 . S
Co5 O13 2.135 1_556 S
O6 Co5 2.061 . S
O6 C9 1.235 1_456 S
C7 O10 1.238 . S
C7 O11 1.241 1_554 S
C8 O1 1.247 . S
C8 O2 1.261 . S
C9 O4 1.259 1_655 S
C9 O6 1.235 1_654 S
O10 Co0 2.021 . S
O10 C7 1.238 . S
O11 Co5 2.052 . S
O11 C7 1.241 1_556 S
O12 Co0 2.137 . S
O12 C3 1.247 . S
O13 Co0 2.244 . S
O13 C3 1.272 . S
O13 Co5 2.135 1_554 S
Co14 O15 2.216 . S
Co14 O16 2.091 . S
Co14 O18 2.004 . S
Co14 O24 2.021 . S
Co14 O26 2.137 . S
Co14 O27 2.244 . S
O15 Co14 2.216 . S
O15 C22 1.247 . S
O16 Co14 2.091 . S
O16 C22 1.261 . S
C17 O26 1.247 . S
C17 O27 1.272 . S
O18 Co14 2.004 . S
O18 C23 1.259 . S
Co19 O20 2.061 . S
Co19 O25 2.052 . S
Co19 O27 2.135 1_556 S
O20 Co19 2.061 . S
O20 C23 1.235 1_556 S
C21 O24 1.238 . S
C21 O25 1.241 1_554 S
C22 O15 1.247 . S
C22 O16 1.261 . S
C23 O18 1.259 . S
C23 O20 1.235 1_554 S
O24 Co14 2.021 . S
O24 C21 1.238 . S
O25 Co19 2.052 . S
O25 C21 1.241 1_556 S
O26 Co14 2.137 . S
O26 C17 1.247 . S
O27 Co14 2.244 . S
O27 C17 1.272 . S
O27 Co19 2.135 1_554 S
Co28 O29 2.216 . S
Co28 O30 2.091 . S
Co28 O32 2.004 1_565 S
Co28 O38 2.021 . S
Co28 O40 2.137 . S
Co28 O41 2.244 . S
O29 Co28 2.216 . S
O29 C36 1.247 . S
O30 Co28 2.091 . S
O30 C36 1.261 . S
C31 O40 1.247 . S
C31 O41 1.272 . S
O32 Co28 2.004 1_545 S
O32 C37 1.259 . S
Co33 O34 2.061 . S
Co33 O39 2.052 . S
Co33 O41 2.135 1_556 S
O34 Co33 2.061 . S
O34 C37 1.235 1_566 S
C35 O38 1.238 . S
C35 O39 1.241 1_554 S
C36 O29 1.247 . S
C36 O30 1.261 . S
C37 O32 1.259 . S
C37 O34 1.235 1_544 S
O38 Co28 2.021 . S
O38 C35 1.238 . S
O39 Co33 2.052 . S
O39 C35 1.241 1_556 S
O40 Co28 2.137 . S
O40 C31 1.247 . S
O41 Co28 2.244 . S
O41 C31 1.272 . S
O41 Co33 2.135 1_554 S
Co42 O43 2.216 . S
Co42 O44 2.091 . S
Co42 O46 2.004 1_565 S
Co42 O52 2.021 . S
Co42 O54 2.137 . S
Co42 O55 2.244 . S
O43 Co42 2.216 . S
O43 C50 1.247 . S
O44 Co42 2.091 . S
O44 C50 1.261 . S
C45 O54 1.247 . S
C45 O55 1.272 . S
O46 Co42 2.004 1_545 S
O46 C51 1.259 . S
Co47 O48 2.061 . S
Co47 O53 2.052 . S
Co47 O55 2.135 . S
O48 Co47 2.061 . S
O48 C51 1.235 1_565 S
C49 O52 1.238 . S
C49 O53 1.241 . S
C50 O43 1.247 . S
C50 O44 1.261 . S
C51 O46 1.259 . S
C51 O48 1.235 1_545 S
O52 Co42 2.021 . S
O52 C49 1.238 . S
O53 Co47 2.052 . S
O53 C49 1.241 . S
O54 Co42 2.137 . S
O54 C45 1.247 . S
O55 Co42 2.244 . S
O55 C45 1.272 . S
O55 Co47 2.135 . S
Co56 O57 2.216 . S
Co56 O58 2.091 . S
Co56 O60 2.004 . S
Co56 O66 2.021 . S
Co56 O68 2.137 . S
Co56 O69 2.244 . S
O57 Co56 2.216 . S
O57 C64 1.247 . S
O58 Co56 2.091 . S
O58 C64 1.261 . S
C59 O68 1.247 . S
C59 O69 1.272 . S
O60 Co56 2.004 . S
O60 C65 1.259 1_455 S
Co61 O62 2.061 . S
Co61 O67 2.052 . S
Co61 O69 2.135 . S
O62 Co61 2.061 . S
O62 C65 1.235 1_455 S
C63 O66 1.238 . S
C63 O67 1.241 . S
C64 O57 1.247 . S
C64 O58 1.261 . S
C65 O60 1.259 1_655 S
C65 O62 1.235 1_655 S
O66 Co56 2.021 . S
O66 C63 1.238 . S
O67 Co61 2.052 . S
O67 C63 1.241 . S
O68 Co56 2.137 . S
O68 C59 1.247 . S
O69 Co56 2.244 . S
O69 C59 1.272 . S
O69 Co61 2.135 . S
Co70 O71 2.216 . S
Co70 O72 2.091 . S
Co70 O74 2.004 . S
Co70 O80 2.021 . S
Co70 O82 2.137 . S
Co70 O83 2.244 . S
O71 Co70 2.216 . S
O71 C78 1.247 . S
O72 Co70 2.091 . S
O72 C78 1.261 . S
C73 O82 1.247 . S
C73 O83 1.272 . S
O74 Co70 2.004 . S
O74 C79 1.259 . S
Co75 O76 2.061 . S
Co75 O81 2.052 . S
Co75 O83 2.135 . S
O76 Co75 2.061 . S
O76 C79 1.235 . S
C77 O80 1.238 . S
C77 O81 1.241 . S
C78 O71 1.247 . S
C78 O72 1.261 . S
C79 O74 1.259 . S
C79 O76 1.235 . S
O80 Co70 2.021 . S
O80 C77 1.238 . S
O81 Co75 2.052 . S
O81 C77 1.241 . S
O82 Co70 2.137 . S
O82 C73 1.247 . S
O83 Co70 2.244 . S
O83 C73 1.272 . S
O83 Co75 2.135 . S
Co84 O85 2.216 . S
Co84 O86 2.091 . S
Co84 O88 2.004 . S
Co84 O94 2.021 . S
Co84 O96 2.137 . S
Co84 O97 2.244 . S
O85 Co84 2.216 . S
O85 C92 1.247 . S
O86 Co84 2.091 . S
O86 C92 1.261 . S
C87 O96 1.247 . S
C87 O97 1.272 . S
O88 Co84 2.004 . S
O88 C93 1.259 . S
Co89 O90 2.061 . S
Co89 O95 2.052 1_655 S
Co89 O97 2.135 . S
O90 Co89 2.061 . S
O90 C93 1.235 . S
C91 O94 1.238 1_455 S
C91 O95 1.241 . S
C92 O85 1.247 . S
C92 O86 1.261 . S
C93 O88 1.259 . S
C93 O90 1.235 . S
O94 Co84 2.021 . S
O94 C91 1.238 1_655 S
O95 Co89 2.052 1_455 S
O95 C91 1.241 . S
O96 Co84 2.137 . S
O96 C87 1.247 . S
O97 Co84 2.244 . S
O97 C87 1.272 . S
O97 Co89 2.135 . S
Co98 O99 2.216 . S
Co98 O100 2.091 . S
Co98 O102 2.004 . S
Co98 O108 2.021 . S
Co98 O110 2.137 . S
Co98 O111 2.244 . S
O99 Co98 2.216 . S
O99 C106 1.247 . S
O100 Co98 2.091 . S
O100 C106 1.261 . S
C101 O110 1.247 . S
C101 O111 1.272 . S
O102 Co98 2.004 . S
O102 C107 1.259 . S
Co103 O104 2.061 . S
Co103 O109 2.052 . S
Co103 O111 2.135 1_554 S
O104 Co103 2.061 . S
O104 C107 1.235 1_554 S
C105 O108 1.238 . S
C105 O109 1.241 1_556 S
C106 O99 1.247 . S
C106 O100 1.261 . S
C107 O102 1.259 . S
C107 O104 1.235 1_556 S
O108 Co98 2.021 . S
O108 C105 1.238 . S
O109 Co103 2.052 . S
O109 C105 1.241 1_554 S
O110 Co98 2.137 . S
O110 C101 1.247 . S
O111 Co98 2.244 . S
O111 C101 1.272 . S
O111 Co103 2.135 1_556 S
Co112 O113 2.216 . S
Co112 O114 2.091 . S
Co112 O116 2.004 . S
Co112 O122 2.021 . S
Co112 O124 2.137 . S
Co112 O125 2.244 . S
O113 Co112 2.216 . S
O113 C120 1.247 . S
O114 Co112 2.091 . S
O114 C120 1.261 . S
C115 O124 1.247 . S
C115 O125 1.272 . S
O116 Co112 2.004 . S
O116 C121 1.259 . S
Co117 O118 2.061 . S
Co117 O123 2.052 1_545 S
Co117 O125 2.135 . S
O118 Co117 2.061 . S
O118 C121 1.235 . S
C119 O122 1.238 1_565 S
C119 O123 1.241 . S
C120 O113 1.247 . S
C120 O114 1.261 . S
C121 O116 1.259 . S
C121 O118 1.235 . S
O122 Co112 2.021 . S
O122 C119 1.238 1_545 S
O123 Co117 2.052 1_565 S
O123 C119 1.241 . S
O124 Co112 2.137 . S
O124 C115 1.247 . S
O125 Co112 2.244 . S
O125 C115 1.272 . S
O125 Co117 2.135 . S
Co126 O127 2.216 . S
Co126 O128 2.091 . S
Co126 O130 2.004 . S
Co126 O136 2.021 . S
Co126 O138 2.137 . S
Co126 O139 2.244 . S
O127 Co126 2.216 . S
O127 C134 1.247 . S
O128 Co126 2.091 . S
O128 C134 1.261 . S
C129 O138 1.247 . S
C129 O139 1.272 . S
O130 Co126 2.004 . S
O130 C135 1.259 . S
Co131 O132 2.061 . S
Co131 O137 2.052 1_545 S
Co131 O139 2.135 . S
O132 Co131 2.061 . S
O132 C135 1.235 . S
C133 O136 1.238 1_565 S
C133 O137 1.241 . S
C134 O127 1.247 . S
C134 O128 1.261 . S
C135 O130 1.259 . S
C135 O132 1.235 . S
O136 Co126 2.021 . S
O136 C133 1.238 1_545 S
O137 Co131 2.052 1_565 S
O137 C133 1.241 . S
O138 Co126 2.137 . S
O138 C129 1.247 . S
O139 Co126 2.244 . S
O139 C129 1.272 . S
O139 Co131 2.135 . S
Co140 O141 2.216 . S
Co140 O142 2.091 . S
Co140 O144 2.004 1_655 S
Co140 O150 2.021 . S
Co140 O152 2.137 . S
Co140 O153 2.244 . S
O141 Co140 2.216 . S
O141 C148 1.247 . S
O142 Co140 2.091 . S
O142 C148 1.261 . S
C143 O152 1.247 . S
C143 O153 1.272 . S
O144 Co140 2.004 1_455 S
O144 C149 1.259 . S
Co145 O146 2.061 . S
Co145 O151 2.052 . S
Co145 O153 2.135 . S
O146 Co145 2.061 . S
O146 C149 1.235 1_655 S
C147 O150 1.238 . S
C147 O151 1.241 . S
C148 O141 1.247 . S
C148 O142 1.261 . S
C149 O144 1.259 . S
C149 O146 1.235 1_455 S
O150 Co140 2.021 . S
O150 C147 1.238 . S
O151 Co145 2.052 . S
O151 C147 1.241 . S
O152 Co140 2.137 . S
O152 C143 1.247 . S
O153 Co140 2.244 . S
O153 C143 1.272 . S
O153 Co145 2.135 . S
Co154 O155 2.216 . S
Co154 O156 2.091 . S
Co154 O158 2.004 . S
Co154 O164 2.021 . S
Co154 O166 2.137 . S
Co154 O167 2.244 . S
O155 Co154 2.216 . S
O155 C162 1.247 . S
O156 Co154 2.091 . S
O156 C162 1.261 . S
C157 O166 1.247 . S
C157 O167 1.272 . S
O158 Co154 2.004 . S
O158 C163 1.259 . S
Co159 O160 2.061 . S
Co159 O165 2.052 . S
Co159 O167 2.135 . S
O160 Co159 2.061 . S
O160 C163 1.235 . S
C161 O164 1.238 . S
C161 O165 1.241 . S
C162 O155 1.247 . S
C162 O156 1.261 . S
C163 O158 1.259 . S
C163 O160 1.235 . S
O164 Co154 2.021 . S
O164 C161 1.238 . S
O165 Co159 2.052 . S
O165 C161 1.241 . S
O166 Co154 2.137 . S
O166 C157 1.247 . S
O167 Co154 2.244 . S
O167 C157 1.272 . S
O167 Co159 2.135 . S
C168 C169 1.369 1_556 S
C168 C170 1.419 . S
C168 H172 0.930 . S
C169 C168 1.369 1_554 S
C169 C178 1.429 . S
C170 C168 1.419 . S
C170 C171 1.363 . S
C170 H173 0.929 . S
C171 C170 1.363 . S
C171 C177 1.428 1_556 S
H172 C168 0.930 . S
H173 C170 0.929 . S
S174 N175 1.613 . S
S174 N176 1.610 . S
N175 S174 1.613 . S
N175 C178 1.350 . S
N176 S174 1.610 . S
N176 C177 1.351 . S
C177 C171 1.428 1_554 S
C177 N176 1.351 . S
C177 C178 1.434 . S
C178 C169 1.429 . S
C178 N175 1.350 . S
C178 C177 1.434 . S
C179 C180 1.369 1_556 S
C179 C181 1.419 . S
C179 H183 0.930 . S
C180 C179 1.369 1_554 S
C180 C189 1.429 . S
C181 C179 1.419 . S
C181 C182 1.363 . S
C181 H184 0.929 . S
C182 C181 1.363 . S
C182 C188 1.428 1_556 S
H183 C179 0.930 . S
H184 C181 0.929 . S
S185 N186 1.613 . S
S185 N187 1.610 . S
N186 S185 1.613 . S
N186 C189 1.350 . S
N187 S185 1.610 . S
N187 C188 1.351 . S
C188 C182 1.428 1_554 S
C188 N187 1.351 . S
C188 C189 1.434 . S
C189 C180 1.429 . S
C189 N186 1.350 . S
C189 C188 1.434 . S
C190 C191 1.369 . S
C190 C192 1.419 . S
C190 H194 0.930 . S
C191 C190 1.369 . S
C191 C200 1.429 1_554 S
C192 C190 1.419 . S
C192 C193 1.363 1_554 S
C192 H195 0.929 . S
C193 C192 1.363 1_556 S
C193 C199 1.428 . S
H194 C190 0.930 . S
H195 C192 0.929 . S
S196 N197 1.613 . S
S196 N198 1.610 . S
N197 S196 1.613 . S
N197 C200 1.350 . S
N198 S196 1.610 . S
N198 C199 1.351 . S
C199 C193 1.428 . S
C199 N198 1.351 . S
C199 C200 1.434 . S
C200 C191 1.429 1_556 S
C200 N197 1.350 . S
C200 C199 1.434 . S
C201 C202 1.369 . S
C201 C203 1.419 . S
C201 H205 0.930 . S
C202 C201 1.369 . S
C202 C211 1.429 . S
C203 C201 1.419 . S
C203 C204 1.363 . S
C203 H206 0.929 . S
C204 C203 1.363 . S
C204 C210 1.428 . S
H205 C201 0.930 . S
H206 C203 0.929 . S
S207 N208 1.613 . S
S207 N209 1.610 . S
N208 S207 1.613 . S
N208 C211 1.350 . S
N209 S207 1.610 . S
N209 C210 1.351 . S
C210 C204 1.428 . S
C210 N209 1.351 . S
C210 C211 1.434 . S
C211 C202 1.429 . S
C211 N208 1.350 . S
C211 C210 1.434 . S
C212 C213 1.369 . S
C212 C214 1.419 . S
C212 H216 0.930 . S
C213 C212 1.369 . S
C213 C222 1.429 . S
C214 C212 1.419 . S
C214 C215 1.363 . S
C214 H217 0.929 . S
C215 C214 1.363 . S
C215 C221 1.428 . S
H216 C212 0.930 . S
H217 C214 0.929 . S
S218 N219 1.613 . S
S218 N220 1.610 . S
N219 S218 1.613 . S
N219 C222 1.350 . S
N220 S218 1.610 . S
N220 C221 1.351 . S
C221 C215 1.428 . S
C221 N220 1.351 . S
C221 C222 1.434 . S
C222 C213 1.429 . S
C222 N219 1.350 . S
C222 C221 1.434 . S
C223 C224 1.369 . S
C223 C225 1.419 . S
C223 H227 0.930 . S
C224 C223 1.369 . S
C224 C233 1.429 . S
C225 C223 1.419 . S
C225 C226 1.363 . S
C225 H228 0.929 . S
C226 C225 1.363 . S
C226 C232 1.428 . S
H227 C223 0.930 . S
H228 C225 0.929 . S
S229 N230 1.613 . S
S229 N231 1.610 . S
N230 S229 1.613 . S
N230 C233 1.350 . S
N231 S229 1.610 . S
N231 C232 1.351 . S
C232 C226 1.428 . S
C232 N231 1.351 . S
C232 C233 1.434 . S
C233 C224 1.429 . S
C233 N230 1.350 . S
C233 C232 1.434 . S
C234 C235 1.369 . S
C234 C236 1.419 . S
C234 H238 0.930 . S
C235 C234 1.369 . S
C235 C244 1.429 1_554 S
C236 C234 1.419 . S
C236 C237 1.363 1_554 S
C236 H239 0.929 . S
C237 C236 1.363 1_556 S
C237 C243 1.428 . S
H238 C234 0.930 . S
H239 C236 0.929 . S
S240 N241 1.613 . S
S240 N242 1.610 . S
N241 S240 1.613 . S
N241 C244 1.350 . S
N242 S240 1.610 . S
N242 C243 1.351 . S
C243 C237 1.428 . S
C243 N242 1.351 . S
C243 C244 1.434 . S
C244 C235 1.429 1_556 S
C244 N241 1.350 . S
C244 C243 1.434 . S
C245 C246 1.369 1_554 S
C245 C247 1.419 . S
C245 H249 0.930 . S
C246 C245 1.369 1_556 S
C246 C255 1.429 . S
C247 C245 1.419 . S
C247 C248 1.363 . S
C247 H250 0.929 . S
C248 C247 1.363 . S
C248 C254 1.428 1_554 S
H249 C245 0.930 . S
H250 C247 0.929 . S
S251 N252 1.613 . S
S251 N253 1.610 . S
N252 S251 1.613 . S
N252 C255 1.350 . S
N253 S251 1.610 . S
N253 C254 1.351 . S
C254 C248 1.428 1_556 S
C254 N253 1.351 . S
C254 C255 1.434 . S
C255 C246 1.429 . S
C255 N252 1.350 . S
C255 C254 1.434 . S
C256 C257 1.369 . S
C256 C258 1.419 . S
C256 H260 0.930 . S
C257 C256 1.369 . S
C257 C266 1.429 1_554 S
C258 C256 1.419 . S
C258 C259 1.363 1_554 S
C258 H261 0.929 . S
C259 C258 1.363 1_556 S
C259 C265 1.428 . S
H260 C256 0.930 . S
H261 C258 0.929 . S
S262 N263 1.613 . S
S262 N264 1.610 . S
N263 S262 1.613 . S
N263 C266 1.350 . S
N264 S262 1.610 . S
N264 C265 1.351 . S
C265 C259 1.428 . S
C265 N264 1.351 . S
C265 C266 1.434 . S
C266 C257 1.429 1_556 S
C266 N263 1.350 . S
C266 C265 1.434 . S
C267 C268 1.369 . S
C267 C269 1.419 . S
C267 H271 0.930 . S
C268 C267 1.369 . S
C268 C277 1.429 . S
C269 C267 1.419 . S
C269 C270 1.363 . S
C269 H272 0.929 . S
C270 C269 1.363 . S
C270 C276 1.428 . S
H271 C267 0.930 . S
H272 C269 0.929 . S
S273 N274 1.613 . S
S273 N275 1.610 . S
N274 S273 1.613 . S
N274 C277 1.350 . S
N275 S273 1.610 . S
N275 C276 1.351 . S
C276 C270 1.428 . S
C276 N275 1.351 . S
C276 C277 1.434 . S
C277 C268 1.429 . S
C277 N274 1.350 . S
C277 C276 1.434 . S
C278 C279 1.369 . S
C278 C280 1.419 . S
C278 H282 0.930 . S
C279 C278 1.369 . S
C279 C288 1.429 . S
C280 C278 1.419 . S
C280 C281 1.363 . S
C280 H283 0.929 . S
C281 C280 1.363 . S
C281 C287 1.428 . S
H282 C278 0.930 . S
H283 C280 0.929 . S
S284 N285 1.613 . S
S284 N286 1.610 . S
N285 S284 1.613 . S
N285 C288 1.350 . S
N286 S284 1.610 . S
N286 C287 1.351 . S
C287 C281 1.428 . S
C287 N286 1.351 . S
C287 C288 1.434 . S
C288 C279 1.429 . S
C288 N285 1.350 . S
C288 C287 1.434 . S
C289 C290 1.369 . S
C289 C291 1.419 . S
C289 H293 0.930 . S
C290 C289 1.369 . S
C290 C299 1.429 . S
C291 C289 1.419 . S
C291 C292 1.363 . S
C291 H294 0.929 . S
C292 C291 1.363 . S
C292 C298 1.428 . S
H293 C289 0.930 . S
H294 C291 0.929 . S
S295 N296 1.613 . S
S295 N297 1.610 . S
N296 S295 1.613 . S
N296 C299 1.350 . S
N297 S295 1.610 . S
N297 C298 1.351 . S
C298 C292 1.428 . S
C298 N297 1.351 . S
C298 C299 1.434 . S
C299 C290 1.429 . S
C299 N296 1.350 . S
C299 C298 1.434 . S
C300 C301 1.369 . S
C300 C302 1.419 . S
C300 H304 0.930 . S
C301 C300 1.369 . S
C301 C310 1.429 . S
C302 C300 1.419 . S
C302 C303 1.363 . S
C302 H305 0.929 . S
C303 C302 1.363 . S
C303 C309 1.428 . S
H304 C300 0.930 . S
H305 C302 0.929 . S
S306 N307 1.613 . S
S306 N308 1.610 . S
N307 S306 1.613 . S
N307 C310 1.350 . S
N308 S306 1.610 . S
N308 C309 1.351 . S
C309 C303 1.428 . S
C309 N308 1.351 . S
C309 C310 1.434 . S
C310 C301 1.429 . S
C310 N307 1.350 . S
C310 C309 1.434 . S
C311 C312 1.369 . S
C311 C313 1.419 . S
C311 H315 0.930 . S
C312 C311 1.369 . S
C312 C321 1.429 . S
C313 C311 1.419 . S
C313 C314 1.363 . S
C313 H316 0.929 . S
C314 C313 1.363 . S
C314 C320 1.428 . S
H315 C311 0.930 . S
H316 C313 0.929 . S
S317 N318 1.613 . S
S317 N319 1.610 . S
N318 S317 1.613 . S
N318 C321 1.350 . S
N319 S317 1.610 . S
N319 C320 1.351 . S
C320 C314 1.428 . S
C320 N319 1.351 . S
C320 C321 1.434 . S
C321 C312 1.429 . S
C321 N318 1.350 . S
C321 C320 1.434 . S
C322 C323 1.369 . S
C322 C324 1.419 . S
C322 H326 0.930 . S
C323 C322 1.369 . S
C323 C332 1.429 . S
C324 C322 1.419 . S
C324 C325 1.363 . S
C324 H327 0.929 . S
C325 C324 1.363 . S
C325 C331 1.428 . S
H326 C322 0.930 . S
H327 C324 0.929 . S
S328 N329 1.613 . S
S328 N330 1.610 . S
N329 S328 1.613 . S
N329 C332 1.350 . S
N330 S328 1.610 . S
N330 C331 1.351 . S
C331 C325 1.428 . S
C331 N330 1.351 . S
C331 C332 1.434 . S
C332 C323 1.429 . S
C332 N329 1.350 . S
C332 C331 1.434 . S
C333 C334 1.369 . S
C333 C335 1.419 . S
C333 H337 0.930 . S
C334 C333 1.369 . S
C334 C343 1.429 . S
C335 C333 1.419 . S
C335 C336 1.363 . S
C335 H338 0.929 . S
C336 C335 1.363 . S
C336 C342 1.428 . S
H337 C333 0.930 . S
H338 C335 0.929 . S
S339 N340 1.613 . S
S339 N341 1.610 . S
N340 S339 1.613 . S
N340 C343 1.350 . S
N341 S339 1.610 . S
N341 C342 1.351 . S
C342 C336 1.428 . S
C342 N341 1.351 . S
C342 C343 1.434 . S
C343 C334 1.429 . S
C343 N340 1.350 . S
C343 C342 1.434 . S
C344 C345 1.369 . S
C344 C346 1.419 . S
C344 H348 0.930 . S
C345 C344 1.369 . S
C345 C354 1.429 . S
C346 C344 1.419 . S
C346 C347 1.363 . S
C346 H349 0.929 . S
C347 C346 1.363 . S
C347 C353 1.428 . S
H348 C344 0.930 . S
H349 C346 0.929 . S
S350 N351 1.613 . S
S350 N352 1.610 . S
N351 S350 1.613 . S
N351 C354 1.350 . S
N352 S350 1.610 . S
N352 C353 1.351 . S
C353 C347 1.428 . S
C353 N352 1.351 . S
C353 C354 1.434 . S
C354 C345 1.429 . S
C354 N351 1.350 . S
C354 C353 1.434 . S
C355 C356 1.369 . S
C355 C357 1.419 . S
C355 H359 0.930 . S
C356 C355 1.369 . S
C356 C365 1.429 . S
C357 C355 1.419 . S
C357 C358 1.363 . S
C357 H360 0.929 . S
C358 C357 1.363 . S
C358 C364 1.428 . S
H359 C355 0.930 . S
H360 C357 0.929 . S
S361 N362 1.613 . S
S361 N363 1.610 . S
N362 S361 1.613 . S
N362 C365 1.350 . S
N363 S361 1.610 . S
N363 C364 1.351 . S
C364 C358 1.428 . S
C364 N363 1.351 . S
C364 C365 1.434 . S
C365 C356 1.429 . S
C365 N362 1.350 . S
C365 C364 1.434 . S
C366 C367 1.369 1_556 S
C366 C368 1.419 . S
C366 H370 0.930 . S
C367 C366 1.369 1_554 S
C367 C376 1.429 1_455 S
C368 C366 1.419 . S
C368 C369 1.363 1_455 S
C368 H371 0.929 . S
C369 C368 1.363 1_655 S
C369 C375 1.428 1_556 S
H370 C366 0.930 . S
H371 C368 0.929 . S
S372 N373 1.613 . S
S372 N374 1.610 . S
N373 S372 1.613 . S
N373 C376 1.350 . S
N374 S372 1.610 . S
N374 C375 1.351 . S
C375 C369 1.428 1_554 S
C375 N374 1.351 . S
C375 C376 1.434 . S
C376 C367 1.429 1_655 S
C376 N373 1.350 . S
C376 C375 1.434 . S
C377 C378 1.369 1_556 S
C377 C379 1.419 . S
C377 H381 0.930 . S
C378 C377 1.369 1_554 S
C378 C387 1.429 . S
C379 C377 1.419 . S
C379 C380 1.363 . S
C379 H382 0.929 . S
C380 C379 1.363 . S
C380 C386 1.428 1_556 S
H381 C377 0.930 . S
H382 C379 0.929 . S
S383 N384 1.613 . S
S383 N385 1.610 . S
N384 S383 1.613 . S
N384 C387 1.350 . S
N385 S383 1.610 . S
N385 C386 1.351 . S
C386 C380 1.428 1_554 S
C386 N385 1.351 . S
C386 C387 1.434 . S
C387 C378 1.429 . S
C387 N384 1.350 . S
C387 C386 1.434 . S
C388 C389 1.369 . S
C388 C390 1.419 1_565 S
C388 H392 0.930 . S
C389 C388 1.369 . S
C389 C398 1.429 1_554 S
C390 C388 1.419 1_545 S
C390 C391 1.363 1_554 S
C390 H393 0.929 . S
C391 C390 1.363 1_556 S
C391 C397 1.428 . S
H392 C388 0.930 . S
H393 C390 0.929 . S
S394 N395 1.613 1_545 S
S394 N396 1.610 . S
N395 S394 1.613 1_565 S
N395 C398 1.350 . S
N396 S394 1.610 . S
N396 C397 1.351 . S
C397 C391 1.428 . S
C397 N396 1.351 . S
C397 C398 1.434 1_545 S
C398 C389 1.429 1_556 S
C398 N395 1.350 . S
C398 C397 1.434 1_565 S
C399 C400 1.369 . S
C399 C401 1.419 1_565 S
C399 H403 0.930 . S
C400 C399 1.369 . S
C400 C409 1.429 . S
C401 C399 1.419 1_545 S
C401 C402 1.363 . S
C401 H404 0.929 . S
C402 C401 1.363 . S
C402 C408 1.428 . S
H403 C399 0.930 . S
H404 C401 0.929 . S
S405 N406 1.613 . S
S405 N407 1.610 1_565 S
N406 S405 1.613 . S
N406 C409 1.350 . S
N407 S405 1.610 1_545 S
N407 C408 1.351 . S
C408 C402 1.428 . S
C408 N407 1.351 . S
C408 C409 1.434 1_545 S
C409 C400 1.429 . S
C409 N406 1.350 . S
C409 C408 1.434 1_565 S
C410 C411 1.369 1_455 S
C410 C412 1.419 . S
C410 H414 0.930 . S
C411 C410 1.369 1_655 S
C411 C420 1.429 . S
C412 C410 1.419 . S
C412 C413 1.363 . S
C412 H415 0.929 . S
C413 C412 1.363 . S
C413 C419 1.428 1_455 S
H414 C410 0.930 . S
H415 C412 0.929 . S
S416 N417 1.613 . S
S416 N418 1.610 . S
N417 S416 1.613 . S
N417 C420 1.350 . S
N418 S416 1.610 . S
N418 C419 1.351 . S
C419 C413 1.428 1_655 S
C419 N418 1.351 . S
C419 C420 1.434 . S
C420 C411 1.429 . S
C420 N417 1.350 . S
C420 C419 1.434 . S
C421 C422 1.369 . S
C421 C423 1.419 . S
C421 H425 0.930 . S
C422 C421 1.369 . S
C422 C431 1.429 . S
C423 C421 1.419 . S
C423 C424 1.363 . S
C423 H426 0.929 . S
C424 C423 1.363 . S
C424 C430 1.428 . S
H425 C421 0.930 . S
H426 C423 0.929 . S
S427 N428 1.613 . S
S427 N429 1.610 . S
N428 S427 1.613 . S
N428 C431 1.350 . S
N429 S427 1.610 . S
N429 C430 1.351 . S
C430 C424 1.428 . S
C430 N429 1.351 . S
C430 C431 1.434 . S
C431 C422 1.429 . S
C431 N428 1.350 . S
C431 C430 1.434 . S
C169 C7 1.005 . S
C171 C107 0.995 . S
C180 C21 0.987 . S
C182 C119 0.983 . S
C191 C35 0.974 . S
C193 C91 0.977 . S
C202 C161 0.975 . S
C204 C49 0.974 . S
C213 C63 0.982 . S
C215 C133 0.981 . S
C224 C149 1.001 . S
C226 C77 1.002 . S
C235 C23 0.977 . S
C237 C93 0.971 . S
C246 C105 0.951 . S
C248 C37 0.944 . S
C257 C9 0.967 . S
C259 C121 0.958 . S
C268 C135 0.954 . S
C270 C79 0.969 . S
C279 C147 0.949 . S
C281 C51 0.943 . S
C290 C65 0.977 . S
C292 C163 0.965 . S
C301 C78 1.596 . S
C303 C8 1.596 . S
C312 C22 1.642 . S
C314 C50 1.649 . S
C323 C36 1.647 . S
C325 C64 1.639 . S
C334 C87 1.627 . S
C336 C157 1.634 . S
C345 C106 1.644 . S
C347 C129 1.632 . S
C356 C115 1.633 . S
C358 C148 1.645 . S
C367 C3 1.682 . S
C369 C92 1.684 . S
C378 C17 1.697 . S
C380 C101 1.696 . S
C389 C31 1.693 . S
C391 C120 1.698 . S
C400 C45 1.698 . S
C402 C134 1.692 . S
C411 C143 1.699 . S
C413 C59 1.694 . S
C422 C73 1.688 . S
C424 C162 1.681 . S
