# Generated by pormake.
# Topology wip, (6)-cn, num edge types: 1
# Building blocks:
#     Node 0, Type 0, BuildingBlock: GEDQOX_clean_sbu_0, # of connection points: 6
#     Node 1, Type 0, BuildingBlock: GEDQOX_clean_sbu_0, # of connection points: 6
#     Node 2, Type 0, BuildingBlock: GEDQOX_clean_sbu_0, # of connection points: 6
#     Node 3, Type 0, BuildingBlock: GEDQOX_clean_sbu_0, # of connection points: 6
#     Node 4, Type 0, BuildingBlock: GEDQOX_clean_sbu_0, # of connection points: 6
#     Node 5, Type 0, BuildingBlock: GEDQOX_clean_sbu_0, # of connection points: 6
#     Node 6, Type 0, BuildingBlock: GEDQOX_clean_sbu_0, # of connection points: 6
#     Node 7, Type 0, BuildingBlock: GEDQOX_clean_sbu_0, # of connection points: 6
#     Node 8, Type 0, BuildingBlock: GEDQOX_clean_sbu_0, # of connection points: 6
#     Node 9, Type 0, BuildingBlock: GEDQOX_clean_sbu_0, # of connection points: 6
#     Node 10, Type 0, BuildingBlock: GEDQOX_clean_sbu_0, # of connection points: 6
#     Node 11, Type 0, BuildingBlock: GEDQOX_clean_sbu_0, # of connection points: 6
#     Node 12, Type 0, BuildingBlock: GEDQOX_clean_sbu_0, # of connection points: 6
#     Node 13, Type 0, BuildingBlock: GEDQOX_clean_sbu_0, # of connection points: 6
#     Node 14, Type 0, BuildingBlock: GEDQOX_clean_sbu_0, # of connection points: 6
#     Node 15, Type 0, BuildingBlock: GEDQOX_clean_sbu_0, # of connection points: 6
#     Node 16, Type 0, BuildingBlock: GEDQOX_clean_sbu_0, # of connection points: 6
#     Node 17, Type 0, BuildingBlock: GEDQOX_clean_sbu_0, # of connection points: 6
#     Node 18, Type 0, BuildingBlock: GEDQOX_clean_sbu_0, # of connection points: 6
#     Node 19, Type 0, BuildingBlock: GEDQOX_clean_sbu_0, # of connection points: 6
#     Node 20, Type 0, BuildingBlock: GEDQOX_clean_sbu_0, # of connection points: 6
#     Node 21, Type 0, BuildingBlock: GEDQOX_clean_sbu_0, # of connection points: 6
#     Node 22, Type 0, BuildingBlock: GEDQOX_clean_sbu_0, # of connection points: 6
#     Node 23, Type 0, BuildingBlock: GEDQOX_clean_sbu_0, # of connection points: 6
#     Node 24, Type 0, BuildingBlock: GEDQOX_clean_sbu_0, # of connection points: 6
#     Node 25, Type 0, BuildingBlock: GEDQOX_clean_sbu_0, # of connection points: 6
#     Node 26, Type 0, BuildingBlock: GEDQOX_clean_sbu_0, # of connection points: 6
#     Node 27, Type 0, BuildingBlock: GEDQOX_clean_sbu_0, # of connection points: 6
#     Node 28, Type 0, BuildingBlock: GEDQOX_clean_sbu_0, # of connection points: 6
#     Node 29, Type 0, BuildingBlock: GEDQOX_clean_sbu_0, # of connection points: 6
#     Node 30, Type 0, BuildingBlock: GEDQOX_clean_sbu_0, # of connection points: 6
#     Node 31, Type 0, BuildingBlock: GEDQOX_clean_sbu_0, # of connection points: 6
#     Edge 32, Type (0, 0), BuildingBlock: XIVTED_clean_linker_0, # of connection points: 2
#     Edge 33, Type (0, 0), BuildingBlock: XIVTED_clean_linker_0, # of connection points: 2
#     Edge 34, Type (0, 0), BuildingBlock: XIVTED_clean_linker_0, # of connection points: 2
#     Edge 35, Type (0, 0), BuildingBlock: XIVTED_clean_linker_0, # of connection points: 2
#     Edge 36, Type (0, 0), BuildingBlock: XIVTED_clean_linker_0, # of connection points: 2
#     Edge 37, Type (0, 0), BuildingBlock: XIVTED_clean_linker_0, # of connection points: 2
#     Edge 38, Type (0, 0), BuildingBlock: XIVTED_clean_linker_0, # of connection points: 2
#     Edge 39, Type (0, 0), BuildingBlock: XIVTED_clean_linker_0, # of connection points: 2
#     Edge 40, Type (0, 0), BuildingBlock: XIVTED_clean_linker_0, # of connection points: 2
#     Edge 41, Type (0, 0), BuildingBlock: XIVTED_clean_linker_0, # of connection points: 2
#     Edge 42, Type (0, 0), BuildingBlock: XIVTED_clean_linker_0, # of connection points: 2
#     Edge 43, Type (0, 0), BuildingBlock: XIVTED_clean_linker_0, # of connection points: 2
#     Edge 44, Type (0, 0), BuildingBlock: XIVTED_clean_linker_0, # of connection points: 2
#     Edge 45, Type (0, 0), BuildingBlock: XIVTED_clean_linker_0, # of connection points: 2
#     Edge 46, Type (0, 0), BuildingBlock: XIVTED_clean_linker_0, # of connection points: 2
#     Edge 47, Type (0, 0), BuildingBlock: XIVTED_clean_linker_0, # of connection points: 2
#     Edge 48, Type (0, 0), BuildingBlock: XIVTED_clean_linker_0, # of connection points: 2
#     Edge 49, Type (0, 0), BuildingBlock: XIVTED_clean_linker_0, # of connection points: 2
#     Edge 50, Type (0, 0), BuildingBlock: XIVTED_clean_linker_0, # of connection points: 2
#     Edge 51, Type (0, 0), BuildingBlock: XIVTED_clean_linker_0, # of connection points: 2
#     Edge 52, Type (0, 0), BuildingBlock: XIVTED_clean_linker_0, # of connection points: 2
#     Edge 53, Type (0, 0), BuildingBlock: XIVTED_clean_linker_0, # of connection points: 2
#     Edge 54, Type (0, 0), BuildingBlock: XIVTED_clean_linker_0, # of connection points: 2
#     Edge 55, Type (0, 0), BuildingBlock: XIVTED_clean_linker_0, # of connection points: 2
#     Edge 56, Type (0, 0), BuildingBlock: XIVTED_clean_linker_0, # of connection points: 2
#     Edge 57, Type (0, 0), BuildingBlock: XIVTED_clean_linker_0, # of connection points: 2
#     Edge 58, Type (0, 0), BuildingBlock: XIVTED_clean_linker_0, # of connection points: 2
#     Edge 59, Type (0, 0), BuildingBlock: XIVTED_clean_linker_0, # of connection points: 2
#     Edge 60, Type (0, 0), BuildingBlock: XIVTED_clean_linker_0, # of connection points: 2
#     Edge 61, Type (0, 0), BuildingBlock: XIVTED_clean_linker_0, # of connection points: 2
#     Edge 62, Type (0, 0), BuildingBlock: XIVTED_clean_linker_0, # of connection points: 2
#     Edge 63, Type (0, 0), BuildingBlock: XIVTED_clean_linker_0, # of connection points: 2
#     Edge 64, Type (0, 0), BuildingBlock: XIVTED_clean_linker_0, # of connection points: 2
#     Edge 65, Type (0, 0), BuildingBlock: XIVTED_clean_linker_0, # of connection points: 2
#     Edge 66, Type (0, 0), BuildingBlock: XIVTED_clean_linker_0, # of connection points: 2
#     Edge 67, Type (0, 0), BuildingBlock: XIVTED_clean_linker_0, # of connection points: 2
#     Edge 68, Type (0, 0), BuildingBlock: XIVTED_clean_linker_0, # of connection points: 2
#     Edge 69, Type (0, 0), BuildingBlock: XIVTED_clean_linker_0, # of connection points: 2
#     Edge 70, Type (0, 0), BuildingBlock: XIVTED_clean_linker_0, # of connection points: 2
#     Edge 71, Type (0, 0), BuildingBlock: XIVTED_clean_linker_0, # of connection points: 2
#     Edge 72, Type (0, 0), BuildingBlock: XIVTED_clean_linker_0, # of connection points: 2
#     Edge 73, Type (0, 0), BuildingBlock: XIVTED_clean_linker_0, # of connection points: 2
#     Edge 74, Type (0, 0), BuildingBlock: XIVTED_clean_linker_0, # of connection points: 2
#     Edge 75, Type (0, 0), BuildingBlock: XIVTED_clean_linker_0, # of connection points: 2
#     Edge 76, Type (0, 0), BuildingBlock: XIVTED_clean_linker_0, # of connection points: 2
#     Edge 77, Type (0, 0), BuildingBlock: XIVTED_clean_linker_0, # of connection points: 2
#     Edge 78, Type (0, 0), BuildingBlock: XIVTED_clean_linker_0, # of connection points: 2
#     Edge 79, Type (0, 0), BuildingBlock: XIVTED_clean_linker_0, # of connection points: 2
#     Edge 80, Type (0, 0), BuildingBlock: XIVTED_clean_linker_0, # of connection points: 2
#     Edge 81, Type (0, 0), BuildingBlock: XIVTED_clean_linker_0, # of connection points: 2
#     Edge 82, Type (0, 0), BuildingBlock: XIVTED_clean_linker_0, # of connection points: 2
#     Edge 83, Type (0, 0), BuildingBlock: XIVTED_clean_linker_0, # of connection points: 2
#     Edge 84, Type (0, 0), BuildingBlock: XIVTED_clean_linker_0, # of connection points: 2
#     Edge 85, Type (0, 0), BuildingBlock: XIVTED_clean_linker_0, # of connection points: 2
#     Edge 86, Type (0, 0), BuildingBlock: XIVTED_clean_linker_0, # of connection points: 2
#     Edge 87, Type (0, 0), BuildingBlock: XIVTED_clean_linker_0, # of connection points: 2
#     Edge 88, Type (0, 0), BuildingBlock: XIVTED_clean_linker_0, # of connection points: 2
#     Edge 89, Type (0, 0), BuildingBlock: XIVTED_clean_linker_0, # of connection points: 2
#     Edge 90, Type (0, 0), BuildingBlock: XIVTED_clean_linker_0, # of connection points: 2
#     Edge 91, Type (0, 0), BuildingBlock: XIVTED_clean_linker_0, # of connection points: 2
#     Edge 92, Type (0, 0), BuildingBlock: XIVTED_clean_linker_0, # of connection points: 2
#     Edge 93, Type (0, 0), BuildingBlock: XIVTED_clean_linker_0, # of connection points: 2
#     Edge 94, Type (0, 0), BuildingBlock: XIVTED_clean_linker_0, # of connection points: 2
#     Edge 95, Type (0, 0), BuildingBlock: XIVTED_clean_linker_0, # of connection points: 2
#     Edge 96, Type (0, 0), BuildingBlock: XIVTED_clean_linker_0, # of connection points: 2
#     Edge 97, Type (0, 0), BuildingBlock: XIVTED_clean_linker_0, # of connection points: 2
#     Edge 98, Type (0, 0), BuildingBlock: XIVTED_clean_linker_0, # of connection points: 2
#     Edge 99, Type (0, 0), BuildingBlock: XIVTED_clean_linker_0, # of connection points: 2
#     Edge 100, Type (0, 0), BuildingBlock: XIVTED_clean_linker_0, # of connection points: 2
#     Edge 101, Type (0, 0), BuildingBlock: XIVTED_clean_linker_0, # of connection points: 2
#     Edge 102, Type (0, 0), BuildingBlock: XIVTED_clean_linker_0, # of connection points: 2
#     Edge 103, Type (0, 0), BuildingBlock: XIVTED_clean_linker_0, # of connection points: 2
#     Edge 104, Type (0, 0), BuildingBlock: XIVTED_clean_linker_0, # of connection points: 2
#     Edge 105, Type (0, 0), BuildingBlock: XIVTED_clean_linker_0, # of connection points: 2
#     Edge 106, Type (0, 0), BuildingBlock: XIVTED_clean_linker_0, # of connection points: 2
#     Edge 107, Type (0, 0), BuildingBlock: XIVTED_clean_linker_0, # of connection points: 2
#     Edge 108, Type (0, 0), BuildingBlock: XIVTED_clean_linker_0, # of connection points: 2
#     Edge 109, Type (0, 0), BuildingBlock: XIVTED_clean_linker_0, # of connection points: 2
#     Edge 110, Type (0, 0), BuildingBlock: XIVTED_clean_linker_0, # of connection points: 2
#     Edge 111, Type (0, 0), BuildingBlock: XIVTED_clean_linker_0, # of connection points: 2
#     Edge 112, Type (0, 0), BuildingBlock: XIVTED_clean_linker_0, # of connection points: 2
#     Edge 113, Type (0, 0), BuildingBlock: XIVTED_clean_linker_0, # of connection points: 2
#     Edge 114, Type (0, 0), BuildingBlock: XIVTED_clean_linker_0, # of connection points: 2
#     Edge 115, Type (0, 0), BuildingBlock: XIVTED_clean_linker_0, # of connection points: 2
#     Edge 116, Type (0, 0), BuildingBlock: XIVTED_clean_linker_0, # of connection points: 2
#     Edge 117, Type (0, 0), BuildingBlock: XIVTED_clean_linker_0, # of connection points: 2
#     Edge 118, Type (0, 0), BuildingBlock: XIVTED_clean_linker_0, # of connection points: 2
#     Edge 119, Type (0, 0), BuildingBlock: XIVTED_clean_linker_0, # of connection points: 2
#     Edge 120, Type (0, 0), BuildingBlock: XIVTED_clean_linker_0, # of connection points: 2
#     Edge 121, Type (0, 0), BuildingBlock: XIVTED_clean_linker_0, # of connection points: 2
#     Edge 122, Type (0, 0), BuildingBlock: XIVTED_clean_linker_0, # of connection points: 2
#     Edge 123, Type (0, 0), BuildingBlock: XIVTED_clean_linker_0, # of connection points: 2
#     Edge 124, Type (0, 0), BuildingBlock: XIVTED_clean_linker_0, # of connection points: 2
#     Edge 125, Type (0, 0), BuildingBlock: XIVTED_clean_linker_0, # of connection points: 2
#     Edge 126, Type (0, 0), BuildingBlock: XIVTED_clean_linker_0, # of connection points: 2
#     Edge 127, Type (0, 0), BuildingBlock: XIVTED_clean_linker_0, # of connection points: 2
# Relax obj value: 0.278
# Max RMSD: 0.258
# Mean RMSD: 0.233
data_MOF--net-wip--node1-GEDQOX_clean_sbu_0--edge1-XIVTED_clean_linker_0
_symmetry_space_group_name_H-M    P1
_symmetry_Int_Tables_number       1
_symmetry_cell_setting            triclinic
loop_
_symmetry_equiv_pos_as_xyz
'x, y, z'
_cell_length_a     65.052316
_cell_length_b     65.010536
_cell_length_c     35.744655
_cell_angle_alpha  90.00134
_cell_angle_beta   89.997655
_cell_angle_gamma 89.987958
loop_
_atom_site_label
_atom_site_type_symbol
_atom_site_fract_x
_atom_site_fract_y
_atom_site_fract_z
_atom_type_partial_charge
Nd0 Nd 0.0824 0.44186 0.08619 0.0
Nd1 Nd 0.05499 0.41213 0.13219 0.0
C2 C 0.09867 0.46736 0.0361 0.0
C3 C 0.09696 0.4746 0.99657 0.0
C4 C 0.08123 0.4881 0.98524 0.0
C5 C 0.08104 0.49639 0.94899 0.0
C6 C 0.09658 0.4915 0.92298 0.0
C7 C 0.11202 0.47759 0.93406 0.0
C8 C 0.11225 0.46934 0.97038 0.0
C9 C 0.10225 0.4094 0.11986 0.0
C10 C 0.05143 0.40853 0.04383 0.0
C11 C 0.03892 0.3874 0.1837 0.0
C12 C 0.03497 0.38757 0.2246 0.0
C13 C 0.05009 0.39355 0.25054 0.0
C14 C 0.04568 0.39401 0.289 0.0
C15 C 0.02604 0.38849 0.30241 0.0
C16 C 0.01107 0.38233 0.27623 0.0
C17 C 0.01549 0.3819 0.2379 0.0
C18 C 0.03525 0.4471 0.10783 0.0
C19 C 0.08162 0.44918 0.17535 0.0
O20 O 0.08431 0.47276 0.0599 0.0
O21 O 0.10546 0.44867 0.04191 0.0
O22 O 0.1103 0.42752 0.11551 0.0
O23 O 0.08511 0.40856 0.10329 0.0
O24 O 0.06093 0.42651 0.04315 0.0
O25 O 0.04979 0.39757 0.07483 0.0
O26 O 0.058 0.38625 0.17243 0.0
O27 O 0.02801 0.40011 0.16354 0.0
O28 O 0.02734 0.42877 0.10692 0.0
O29 O 0.05342 0.44606 0.1199 0.0
O30 O 0.07189 0.4313 0.17729 0.0
O31 O 0.08577 0.45811 0.1429 0.0
H32 H 0.06923 0.49259 1.00458 0.0
H33 H 0.0687 0.50677 0.94141 0.0
H34 H 0.12437 0.47358 0.9151 0.0
H35 H 0.12473 0.4592 0.97827 0.0
H36 H 0.06528 0.398 0.24113 0.0
H37 H 0.05757 0.39902 0.30814 0.0
H38 H -0.00408 0.37759 0.28535 0.0
H39 H 0.0036 0.37713 0.21852 0.0
Nd40 Nd 0.79654 0.83351 0.3364 0.0
Nd41 Nd 0.82597 0.80682 0.38312 0.0
C42 C 0.77056 0.84953 0.28686 0.0
C43 C 0.76292 0.84795 0.24762 0.0
C44 C 0.74818 0.83314 0.23739 0.0
C45 C 0.73941 0.83326 0.20155 0.0
C46 C 0.74504 0.84823 0.17492 0.0
C47 C 0.76019 0.86268 0.18485 0.0
C48 C 0.76892 0.8626 0.22076 0.0
C49 C 0.83062 0.85327 0.36453 0.0
C50 C 0.82809 0.80038 0.29542 0.0
C51 C 0.85112 0.79125 0.43441 0.0
C52 C 0.84998 0.78653 0.47471 0.0
C53 C 0.83251 0.79167 0.4958 0.0
C54 C 0.83147 0.78674 0.53393 0.0
C55 C 0.84788 0.77651 0.55172 0.0
C56 C 0.86534 0.77141 0.53028 0.0
C57 C 0.86636 0.77639 0.49222 0.0
C58 C 0.78961 0.78761 0.36481 0.0
C59 C 0.79106 0.83619 0.42582 0.0
O60 O 0.76549 0.83507 0.3107 0.0
O61 O 0.78925 0.8564 0.29213 0.0
O62 O 0.81265 0.86177 0.36102 0.0
O63 O 0.8304 0.83552 0.35013 0.0
O64 O 0.81023 0.81011 0.29476 0.0
O65 O 0.83963 0.79982 0.32578 0.0
O66 O 0.85078 0.81069 0.42521 0.0
O67 O 0.83961 0.78002 0.41255 0.0
O68 O 0.80757 0.779 0.36314 0.0
O69 O 0.79164 0.80616 0.37429 0.0
O70 O 0.80871 0.82609 0.42757 0.0
O71 O 0.7815 0.83932 0.39361 0.0
H72 H 0.74306 0.82168 0.2573 0.0
H73 H 0.72805 0.82167 0.19481 0.0
H74 H 0.76479 0.87456 0.16534 0.0
H75 H 0.78001 0.87441 0.22783 0.0
H76 H 0.81964 0.79942 0.48277 0.0
H77 H 0.8179 0.79114 0.54953 0.0
H78 H 0.87814 0.76326 0.54275 0.0
H79 H 0.87992 0.77217 0.47635 0.0
Nd80 Nd 0.40165 0.5444 0.58299 0.0
Nd81 Nd 0.42866 0.57443 0.62809 0.0
C82 C 0.38477 0.51801 0.53518 0.0
C83 C 0.38596 0.50928 0.49695 0.0
C84 C 0.39511 0.51992 0.46706 0.0
C85 C 0.39515 0.51142 0.43085 0.0
C86 C 0.38607 0.49208 0.42386 0.0
C87 C 0.37695 0.48159 0.45409 0.0
C88 C 0.37693 0.49007 0.49008 0.0
C89 C 0.38164 0.57781 0.61317 0.0
C90 C 0.43392 0.57614 0.54012 0.0
C91 C 0.44454 0.59968 0.67879 0.0
C92 C 0.44911 0.59886 0.71943 0.0
C93 C 0.43401 0.59351 0.74585 0.0
C94 C 0.43897 0.59205 0.78395 0.0
C95 C 0.45912 0.59597 0.79655 0.0
C96 C 0.4741 0.60156 0.76998 0.0
C97 C 0.46914 0.60297 0.73194 0.0
C98 C 0.44828 0.5386 0.60778 0.0
C99 C 0.40102 0.5388 0.67272 0.0
O100 O 0.39907 0.51282 0.55917 0.0
O101 O 0.37907 0.53724 0.5384 0.0
O102 O 0.37352 0.55967 0.6097 0.0
O103 O 0.39906 0.57815 0.59753 0.0
O104 O 0.42438 0.55816 0.54015 0.0
O105 O 0.43463 0.58789 0.57022 0.0
O106 O 0.42524 0.6001 0.66861 0.0
O107 O 0.45567 0.5878 0.65739 0.0
O108 O 0.45644 0.55677 0.60579 0.0
O109 O 0.42992 0.54016 0.6187 0.0
O110 O 0.41107 0.55651 0.67384 0.0
O111 O 0.39708 0.52936 0.64066 0.0
H112 H 0.40215 0.5348 0.47167 0.0
H113 H 0.40252 0.51988 0.40848 0.0
H114 H 0.3695 0.46688 0.44989 0.0
H115 H 0.36962 0.48166 0.51262 0.0
H116 H 0.4184 0.59029 0.73711 0.0
H117 H 0.42705 0.58752 0.80342 0.0
H118 H 0.48967 0.60506 0.77856 0.0
H119 H 0.48104 0.60721 0.71218 0.0
Nd120 Nd 0.69176 0.15114 0.83408 0.0
Nd121 Nd 0.66186 0.17893 0.87782 0.0
C122 C 0.71718 0.13363 0.78536 0.0
C123 C 0.72512 0.13541 0.74646 0.0
C124 C 0.73432 0.15357 0.73322 0.0
C125 C 0.74312 0.15427 0.69739 0.0
C126 C 0.74291 0.13686 0.67385 0.0
C127 C 0.73315 0.11891 0.68682 0.0
C128 C 0.72444 0.11819 0.72271 0.0
C129 C 0.65847 0.13188 0.86615 0.0
C130 C 0.66031 0.18318 0.78992 0.0
C131 C 0.63612 0.19519 0.92721 0.0
C132 C 0.63617 0.20007 0.96767 0.0
C133 C 0.64241 0.1856 0.99465 0.0
C134 C 0.64292 0.1909 0.03267 0.0
C135 C 0.6371 0.21073 0.04453 0.0
C136 C 0.63077 0.22508 1.01737 0.0
C137 C 0.63033 0.2198 0.97944 0.0
C138 C 0.69747 0.19836 0.85589 0.0
C139 C 0.69818 0.15259 0.92354 0.0
O140 O 0.72297 0.14745 0.8099 0.0
O141 O 0.698 0.12802 0.78956 0.0
O142 O 0.67664 0.12373 0.86371 0.0
O143 O 0.65815 0.14885 0.84896 0.0
O144 O 0.67827 0.17364 0.79053 0.0
O145 O 0.64843 0.18414 0.8198 0.0
O146 O 0.63585 0.1758 0.91757 0.0
O147 O 0.64838 0.20616 0.90627 0.0
O148 O 0.67926 0.20645 0.85387 0.0
O149 O 0.69601 0.18015 0.8677 0.0
O150 O 0.68042 0.16259 0.92446 0.0
O151 O 0.70732 0.1479 0.89153 0.0
H152 H 0.735 0.16716 0.75069 0.0
H153 H 0.75019 0.16847 0.68819 0.0
H154 H 0.73282 0.10516 0.66973 0.0
H155 H 0.71753 0.10397 0.73225 0.0
H156 H 0.64691 0.17022 0.9864 0.0
H157 H 0.64764 0.17938 0.0528 0.0
H158 H 0.62646 0.24056 0.02534 0.0
H159 H 0.62555 0.23123 0.95917 0.0
Nd160 Nd 0.0758 0.56133 0.58258 0.0
Nd161 Nd 0.04403 0.58469 0.63288 0.0
C162 C 0.10219 0.55225 0.52848 0.0
C163 C 0.10096 0.54223 0.49156 0.0
C164 C 0.11553 0.54681 0.46388 0.0
C165 C 0.11447 0.53731 0.42873 0.0
C166 C 0.09882 0.52303 0.42069 0.0
C167 C 0.08406 0.51876 0.44845 0.0
C168 C 0.08508 0.52831 0.48347 0.0
C169 C 0.04739 0.53607 0.61297 0.0
C170 C 0.03173 0.57982 0.54611 0.0
C171 C 0.0194 0.59957 0.68547 0.0
C172 C 0.01366 0.59598 0.72498 0.0
C173 C -0.00667 0.59946 0.73636 0.0
C174 C 0.98775 0.59753 0.77404 0.0
C175 C 0.00245 0.59216 0.80125 0.0
C176 C 0.02276 0.58822 0.78958 0.0
C177 C 0.02829 0.59005 0.75182 0.0
C178 C 0.07301 0.60797 0.59564 0.0
C179 C 0.08143 0.55863 0.67225 0.0
O180 O 0.09302 0.57005 0.53134 0.0
O181 O 0.09902 0.54048 0.55761 0.0
O182 O 0.06538 0.52975 0.60239 0.0
O183 O 0.04383 0.55426 0.60244 0.0
O184 O 0.05057 0.57245 0.54057 0.0
O185 O 0.02464 0.58401 0.5799 0.0
O186 O 0.01345 0.5859 0.66089 0.0
O187 O 0.03795 0.60654 0.67904 0.0
O188 O 0.05394 0.61343 0.59956 0.0
O189 O 0.07613 0.5913 0.61259 0.0
O190 O 0.06224 0.56508 0.67429 0.0
O191 O 0.09188 0.55869 0.6403 0.0
H192 H 0.12779 0.55766 0.46951 0.0
H193 H 0.12614 0.54087 0.40811 0.0
H194 H 0.07157 0.50816 0.44301 0.0
H195 H 0.07347 0.52481 0.50426 0.0
H196 H 0.9818 0.60408 0.71616 0.0
H197 H 0.97204 0.60088 0.78199 0.0
H198 H 0.03441 0.58376 0.80965 0.0
H199 H 0.04405 0.58714 0.7437 0.0
Nd200 Nd 0.68133 0.82202 0.83524 0.0
Nd201 Nd 0.65024 0.79779 0.88616 0.0
C202 C 0.70054 0.84806 0.79045 0.0
C203 C 0.70887 0.84802 0.75177 0.0
C204 C 0.70072 0.86132 0.72452 0.0
C205 C 0.70909 0.86191 0.68835 0.0
C206 C 0.72593 0.84936 0.67884 0.0
C207 C 0.73384 0.83588 0.70602 0.0
C208 C 0.72544 0.83519 0.74196 0.0
C209 C 0.697 0.78804 0.86842 0.0
C210 C 0.65881 0.78162 0.79952 0.0
C211 C 0.63089 0.77159 0.93082 0.0
C212 C 0.63249 0.76527 0.97046 0.0
C213 C 0.64816 0.77294 0.99357 0.0
C214 C 0.64926 0.76715 0.03133 0.0
C215 C 0.63466 0.75359 0.04688 0.0
C216 C 0.61901 0.74593 0.02341 0.0
C217 C 0.61796 0.75171 0.98566 0.0
C218 C 0.63448 0.82998 0.84447 0.0
C219 C 0.67727 0.8338 0.92552 0.0
O220 O 0.68049 0.84793 0.7944 0.0
O221 O 0.70995 0.83638 0.81491 0.0
O222 O 0.7026 0.79422 0.83531 0.0
O223 O 0.68467 0.80046 0.88369 0.0
O224 O 0.66875 0.79896 0.79224 0.0
O225 O 0.65189 0.77704 0.83347 0.0
O226 O 0.64612 0.76626 0.90886 0.0
O227 O 0.62457 0.79042 0.92477 0.0
O228 O 0.62719 0.82506 0.87708 0.0
O229 O 0.64764 0.81711 0.83492 0.0
O230 O 0.66679 0.81666 0.93031 0.0
O231 O 0.68245 0.84049 0.8916 0.0
H232 H 0.68801 0.87142 0.73132 0.0
H233 H 0.7027 0.87255 0.66814 0.0
H234 H 0.74655 0.82573 0.69948 0.0
H235 H 0.73208 0.82467 0.76209 0.0
H236 H 0.65953 0.78347 0.98244 0.0
H237 H 0.66168 0.77319 0.04824 0.0
H238 H 0.60729 0.73575 0.03433 0.0
H239 H 0.60567 0.74571 0.96838 0.0
Nd240 Nd 0.41408 0.42947 0.08174 0.0
Nd241 Nd 0.43963 0.39924 0.13272 0.0
C242 C 0.38732 0.44739 0.03667 0.0
C243 C 0.3879 0.45476 0.99758 0.0
C244 C 0.37011 0.45433 0.9754 0.0
C245 C 0.37038 0.46239 0.93899 0.0
C246 C 0.38844 0.47119 0.92437 0.0
C247 C 0.40637 0.47101 0.94635 0.0
C248 C 0.40614 0.46278 0.98245 0.0
C249 C 0.44825 0.446 0.11266 0.0
C250 C 0.45454 0.40735 0.04521 0.0
C251 C 0.46667 0.38057 0.17667 0.0
C252 C 0.47298 0.38172 0.21636 0.0
C253 C 0.46595 0.39758 0.23979 0.0
C254 C 0.47161 0.39809 0.27767 0.0
C255 C 0.48431 0.38266 0.29298 0.0
C256 C 0.49138 0.36689 0.26917 0.0
C257 C 0.48577 0.36645 0.23133 0.0
C258 C 0.4069 0.38272 0.09388 0.0
C259 C 0.4036 0.42604 0.17274 0.0
O260 O 0.38789 0.42743 0.04176 0.0
O261 O 0.3989 0.45748 0.0604 0.0
O262 O 0.44146 0.4512 0.07973 0.0
O263 O 0.43629 0.43362 0.12899 0.0
O264 O 0.43696 0.41695 0.03834 0.0
O265 O 0.4596 0.40072 0.07911 0.0
O266 O 0.47126 0.39638 0.15552 0.0
O267 O 0.44818 0.37346 0.1703 0.0
O268 O 0.41266 0.37567 0.1262 0.0
O269 O 0.41942 0.39585 0.08278 0.0
O270 O 0.42086 0.4157 0.17718 0.0
O271 O 0.39649 0.43106 0.139 0.0
H272 H 0.35591 0.4481 0.98647 0.0
H273 H 0.35633 0.46236 0.92275 0.0
H274 H 0.4206 0.47737 0.93565 0.0
H275 H 0.42017 0.46301 0.99879 0.0
H276 H 0.45591 0.40945 0.22888 0.0
H277 H 0.46567 0.41033 0.29514 0.0
H278 H 0.5014 0.35492 0.27971 0.0
H279 H 0.49136 0.35407 0.21375 0.0
Nd280 Nd 0.80959 0.16042 0.33364 0.0
Nd281 Nd 0.83484 0.19169 0.38109 0.0
C282 C 0.79773 0.13444 0.28062 0.0
C283 C 0.78866 0.13602 0.24292 0.0
C284 C 0.79163 0.12015 0.2169 0.0
C285 C 0.78269 0.12128 0.18129 0.0
C286 C 0.77055 0.13831 0.17112 0.0
C287 C 0.76798 0.15438 0.19712 0.0
C288 C 0.777 0.15328 0.2326 0.0
C289 C 0.78623 0.18934 0.36791 0.0
C290 C 0.82757 0.20418 0.2952 0.0
C291 C 0.85085 0.21689 0.4316 0.0
C292 C 0.84892 0.22244 0.47141 0.0
C293 C 0.8324 0.2155 0.49332 0.0
C294 C 0.83089 0.22125 0.53107 0.0
C295 C 0.84585 0.23409 0.54749 0.0
C296 C 0.86242 0.2408 0.52528 0.0
C297 C 0.86391 0.23504 0.48769 0.0
C298 C 0.85681 0.16278 0.34133 0.0
C299 C 0.80986 0.15422 0.4231 0.0
O300 O 0.81662 0.14096 0.28414 0.0
O301 O 0.78602 0.14005 0.30856 0.0
O302 O 0.77957 0.17099 0.36038 0.0
O303 O 0.80368 0.19259 0.35374 0.0
O304 O 0.81975 0.18546 0.29028 0.0
O305 O 0.83286 0.21112 0.32853 0.0
O306 O 0.83553 0.22193 0.40969 0.0
O307 O 0.85842 0.1987 0.42412 0.0
O308 O 0.86251 0.18181 0.34507 0.0
O309 O 0.84064 0.15955 0.35986 0.0
O310 O 0.81689 0.17323 0.4245 0.0
O311 O 0.80848 0.14395 0.39108 0.0
H312 H 0.8007 0.10677 0.22427 0.0
H313 H 0.78489 0.10859 0.16207 0.0
H314 H 0.75904 0.16788 0.19 0.0
H315 H 0.77476 0.16586 0.25208 0.0
H316 H 0.82066 0.20574 0.48121 0.0
H317 H 0.81785 0.21591 0.54719 0.0
H318 H 0.87443 0.25036 0.53703 0.0
H319 H 0.87682 0.24045 0.47127 0.0
Nd320 Nd 0.92956 0.57548 0.24054 0.0
Nd321 Nd 0.90324 0.54517 0.28589 0.0
C322 C 0.9447 0.60126 0.18986 0.0
C323 C 0.95001 0.6 0.14979 0.0
C324 C 0.95885 0.61697 0.13177 0.0
C325 C 0.96457 0.61573 0.09405 0.0
C326 C 0.96152 0.59747 0.07355 0.0
C327 C 0.95239 0.58056 0.09173 0.0
C328 C 0.94676 0.58179 0.12951 0.0
C329 C 0.94982 0.53978 0.25918 0.0
C330 C 0.90237 0.53936 0.19632 0.0
C331 C 0.88661 0.51856 0.33357 0.0
C332 C 0.88776 0.51005 0.37193 0.0
C333 C 0.89721 0.52072 0.40148 0.0
C334 C 0.89732 0.51239 0.4378 0.0
C335 C 0.88804 0.4932 0.44523 0.0
C336 C 0.8786 0.48269 0.41534 0.0
C337 C 0.8785 0.49101 0.37923 0.0
C338 C 0.88275 0.57852 0.25624 0.0
C339 C 0.93526 0.57706 0.3286 0.0
O340 O 0.92519 0.6001 0.19817 0.0
O341 O 0.9561 0.59039 0.21247 0.0
O342 O 0.95779 0.55802 0.26116 0.0
O343 O 0.93126 0.54116 0.24939 0.0
O344 O 0.91189 0.55735 0.19493 0.0
O345 O 0.89895 0.52985 0.22848 0.0
O346 O 0.90126 0.51366 0.31009 0.0
O347 O 0.88046 0.53761 0.32993 0.0
O348 O 0.87492 0.56023 0.25926 0.0
O349 O 0.90018 0.57895 0.27186 0.0
O350 O 0.92596 0.55898 0.32857 0.0
O351 O 0.93574 0.58888 0.29853 0.0
H352 H 0.96145 0.63116 0.14693 0.0
H353 H 0.97127 0.62914 0.08088 0.0
H354 H 0.95 0.5662 0.077 0.0
H355 H 0.9401 0.56845 0.14298 0.0
H356 H 0.90444 0.53547 0.39649 0.0
H357 H 0.90493 0.52085 0.45992 0.0
H358 H 0.87099 0.4681 0.4199 0.0
H359 H 0.87097 0.48259 0.35694 0.0
Nd360 Nd 0.15861 0.17797 0.98848 0.0
Nd361 Nd 0.1885 0.15171 0.03559 0.0
C362 C 0.13357 0.19284 0.93625 0.0
C363 C 0.13415 0.19731 0.8955 0.0
C364 C 0.14159 0.18293 0.86938 0.0
C365 C 0.1422 0.18774 0.83108 0.0
C366 C 0.1354 0.20704 0.81796 0.0
C367 C 0.12787 0.22129 0.84429 0.0
C368 C 0.12726 0.21648 0.88249 0.0
C369 C 0.1938 0.19833 1.00942 0.0
C370 C 0.19553 0.15071 0.94648 0.0
C371 C 0.2146 0.13587 0.08508 0.0
C372 C 0.22084 0.13694 0.12495 0.0
C373 C 0.22233 0.15574 0.14414 0.0
C374 C 0.22929 0.1563 0.18131 0.0
C375 C 0.23484 0.13808 0.20027 0.0
C376 C 0.23299 0.11928 0.18098 0.0
C377 C 0.22611 0.11875 0.14382 0.0
C378 C 0.1553 0.13137 1.00541 0.0
C379 C 0.15545 0.1832 0.07693 0.0
O380 O 0.13372 0.17357 0.94668 0.0
O381 O 0.145 0.20442 0.95765 0.0
O382 O 0.17549 0.20622 1.01048 0.0
O383 O 0.19272 0.17979 0.99925 0.0
O384 O 0.17748 0.16006 0.944 0.0
O385 O 0.20461 0.14755 0.9791 0.0
O386 O 0.21893 0.15163 0.06363 0.0
O387 O 0.19665 0.12778 0.07762 0.0
O388 O 0.17352 0.12339 1.00866 0.0
O389 O 0.15492 0.14888 1.02065 0.0
O390 O 0.17336 0.1736 0.07802 0.0
O391 O 0.14442 0.18439 0.04591 0.0
H392 H 0.14703 0.16802 0.87853 0.0
H393 H 0.14831 0.17641 0.81184 0.0
H394 H 0.12217 0.23615 0.83538 0.0
H395 H 0.12137 0.2278 0.90199 0.0
H396 H 0.21836 0.17002 0.1303 0.0
H397 H 0.23071 0.17112 0.19487 0.0
H398 H 0.23674 0.10489 0.19462 0.0
H399 H 0.22504 0.10406 0.12964 0.0
Nd400 Nd 0.55321 0.40851 0.73622 0.0
Nd401 Nd 0.57966 0.43842 0.7829 0.0
C402 C 0.538 0.38297 0.68504 0.0
C403 C 0.53331 0.3832 0.6445 0.0
C404 C 0.54392 0.39616 0.61972 0.0
C405 C 0.53897 0.39644 0.58151 0.0
C406 C 0.52325 0.38375 0.56722 0.0
C407 C 0.51267 0.3708 0.59231 0.0
C408 C 0.51765 0.37055 0.63046 0.0
C409 C 0.53299 0.44384 0.75705 0.0
C410 C 0.58074 0.44513 0.69362 0.0
C411 C 0.59566 0.46416 0.83292 0.0
C412 C 0.59402 0.4715 0.87233 0.0
C413 C 0.57673 0.48244 0.88513 0.0
C414 C 0.57644 0.49104 0.92115 0.0
C415 C 0.59342 0.48898 0.9454 0.0
C416 C 0.61043 0.47748 0.93293 0.0
C417 C 0.61075 0.46895 0.89685 0.0
C418 C 0.59984 0.40507 0.75274 0.0
C419 C 0.54779 0.40592 0.8245 0.0
O420 O 0.55737 0.38341 0.69473 0.0
O421 O 0.52661 0.39472 0.7062 0.0
O422 O 0.52503 0.42556 0.7581 0.0
O423 O 0.5515 0.4427 0.74675 0.0
O424 O 0.57112 0.42718 0.6915 0.0
O425 O 0.58413 0.45431 0.72611 0.0
O426 O 0.58119 0.46933 0.80921 0.0
O427 O 0.60261 0.44552 0.82729 0.0
O428 O 0.60787 0.42328 0.7559 0.0
O429 O 0.58236 0.40477 0.7681 0.0
O430 O 0.55715 0.42396 0.8251 0.0
O431 O 0.54697 0.39456 0.79386 0.0
H432 H 0.556 0.40609 0.62993 0.0
H433 H 0.54763 0.40645 0.56313 0.0
H434 H 0.50027 0.36106 0.58261 0.0
H435 H 0.50914 0.36054 0.6491 0.0
H436 H 0.56354 0.48471 0.86711 0.0
H437 H 0.56292 0.49947 0.9299 0.0
H438 H 0.62386 0.4757 0.95053 0.0
H439 H 0.62437 0.46077 0.88772 0.0
Nd440 Nd 0.32129 0.80875 0.48284 0.0
Nd441 Nd 0.29603 0.83571 0.53678 0.0
C442 C 0.34679 0.78929 0.43727 0.0
C443 C 0.34607 0.78299 0.3975 0.0
C444 C 0.36373 0.78468 0.37523 0.0
C445 C 0.36314 0.77938 0.33724 0.0
C446 C 0.34484 0.77221 0.3207 0.0
C447 C 0.32715 0.7705 0.34318 0.0
C448 C 0.32773 0.77592 0.38111 0.0
C449 C 0.28051 0.7992 0.48543 0.0
C450 C 0.28992 0.84257 0.44786 0.0
C451 C 0.27383 0.85361 0.58996 0.0
C452 C 0.26492 0.85102 0.62791 0.0
C453 C 0.25395 0.83331 0.63834 0.0
C454 C 0.24474 0.83198 0.6738 0.0
C455 C 0.24628 0.84832 0.69967 0.0
C456 C 0.25767 0.86581 0.68928 0.0
C457 C 0.26682 0.86713 0.65386 0.0
C458 C 0.33071 0.85379 0.5061 0.0
C459 C 0.322 0.79652 0.57151 0.0
O460 O 0.34775 0.80909 0.44356 0.0
O461 O 0.33429 0.77979 0.46023 0.0
O462 O 0.29159 0.79909 0.4554 0.0
O463 O 0.29114 0.80347 0.51397 0.0
O464 O 0.30825 0.83395 0.44437 0.0
O465 O 0.28015 0.84277 0.48043 0.0
O466 O 0.26575 0.84326 0.56207 0.0
O467 O 0.29384 0.85526 0.5876 0.0
O468 O 0.31349 0.8633 0.51193 0.0
O469 O 0.32935 0.83568 0.51845 0.0
O470 O 0.30913 0.81186 0.57751 0.0
O471 O 0.32963 0.79251 0.53802 0.0
H472 H 0.37801 0.7902 0.3872 0.0
H473 H 0.37709 0.78072 0.3209 0.0
H474 H 0.31273 0.76534 0.33131 0.0
H475 H 0.31379 0.77473 0.39752 0.0
H476 H 0.25233 0.82058 0.61902 0.0
H477 H 0.23639 0.81812 0.68094 0.0
H478 H 0.25905 0.87878 0.70811 0.0
H479 H 0.27513 0.88099 0.64646 0.0
Nd480 Nd 0.94261 0.40173 0.73715 0.0
Nd481 Nd 0.91713 0.43191 0.78787 0.0
C482 C 0.96979 0.38332 0.69311 0.0
C483 C 0.97607 0.38506 0.65346 0.0
C484 C 0.96808 0.40063 0.63044 0.0
C485 C 0.97378 0.40187 0.59265 0.0
C486 C 0.98756 0.3875 0.57696 0.0
C487 C -0.00445 0.37198 0.60035 0.0
C488 C 0.98986 0.37079 0.63814 0.0
C489 C 0.91061 0.38481 0.77754 0.0
C490 C 0.90647 0.42822 0.69688 0.0
C491 C 0.88971 0.45029 0.83115 0.0
C492 C 0.88793 0.45659 0.87061 0.0
C493 C 0.90149 0.44903 0.89792 0.0
C494 C 0.90093 0.45686 0.93447 0.0
C495 C 0.88694 0.47251 0.9442 0.0
C496 C 0.87305 0.47957 0.91689 0.0
C497 C 0.87356 0.47169 0.88049 0.0
C498 C 0.9512 0.44839 0.75654 0.0
C499 C 0.95736 0.40983 0.82478 0.0
O500 O 0.97436 0.39887 0.71488 0.0
O501 O 0.95128 0.37616 0.69915 0.0
O502 O 0.91584 0.378 0.74475 0.0
O503 O 0.92294 0.39831 0.78782 0.0
O504 O 0.9236 0.41769 0.69246 0.0
O505 O 0.89962 0.43361 0.73057 0.0
O506 O 0.88932 0.43051 0.82388 0.0
O507 O 0.90355 0.46021 0.81165 0.0
O508 O 0.94457 0.45355 0.78959 0.0
O509 O 0.9391 0.43609 0.74034 0.0
O510 O 0.93952 0.41896 0.83162 0.0
O511 O 0.96267 0.40358 0.79074 0.0
H512 H 0.95736 0.4118 0.64165 0.0
H513 H 0.96748 0.4142 0.57583 0.0
H514 H 0.00591 0.36044 0.58933 0.0
H515 H -0.00389 0.35858 0.65535 0.0
H516 H 0.91285 0.4375 0.89072 0.0
H517 H 0.91197 0.45121 0.95469 0.0
H518 H 0.8619 0.4914 0.92353 0.0
H519 H 0.86303 0.47777 0.85976 0.0
Nd520 Nd 0.33084 0.19137 0.48919 0.0
Nd521 Nd 0.30756 0.16013 0.54008 0.0
C522 C 0.34711 0.21519 0.43677 0.0
C523 C 0.34475 0.2219 0.39763 0.0
C524 C 0.32659 0.21854 0.37729 0.0
C525 C 0.32546 0.22416 0.33938 0.0
C526 C 0.34255 0.23303 0.32125 0.0
C527 C 0.3605 0.23665 0.34218 0.0
C528 C 0.36157 0.23113 0.37988 0.0
C529 C 0.3539 0.16131 0.52412 0.0
C530 C 0.30122 0.15663 0.45124 0.0
C531 C 0.298 0.13311 0.59281 0.0
C532 C 0.28846 0.13338 0.63033 0.0
C533 C 0.2942 0.14793 0.65749 0.0
C534 C 0.28452 0.14822 0.69247 0.0
C535 C 0.26877 0.13411 0.70087 0.0
C536 C 0.26319 0.1195 0.67368 0.0
C537 C 0.27298 0.11911 0.63884 0.0
C538 C 0.28266 0.18991 0.51283 0.0
C539 C 0.32796 0.20334 0.57635 0.0
O540 O 0.3337 0.2218 0.4613 0.0
O541 O 0.35238 0.19599 0.44198 0.0
O542 O 0.35967 0.1803 0.52069 0.0
O543 O 0.33684 0.15877 0.50814 0.0
O544 O 0.30796 0.17573 0.45004 0.0
O545 O 0.30336 0.1451 0.48166 0.0
O546 O 0.31619 0.14148 0.58951 0.0
O547 O 0.28591 0.13741 0.56466 0.0
O548 O 0.276 0.17196 0.52297 0.0
O549 O 0.3012 0.19259 0.52199 0.0
O550 O 0.32036 0.18459 0.58209 0.0
O551 O 0.33158 0.21053 0.54239 0.0
H552 H 0.31345 0.21132 0.39053 0.0
H553 H 0.31144 0.22105 0.32404 0.0
H554 H 0.37381 0.24378 0.32939 0.0
H555 H 0.37571 0.23387 0.39514 0.0
H556 H 0.30601 0.15922 0.6516 0.0
H557 H 0.28902 0.15982 0.71262 0.0
H558 H 0.2513 0.10827 0.6794 0.0
H559 H 0.26833 0.10774 0.61835 0.0
Nd560 Nd 0.54311 0.58399 0.23595 0.0
Nd561 Nd 0.57373 0.55898 0.28571 0.0
C562 C 0.51928 0.6006 0.18381 0.0
C563 C 0.51288 0.59778 0.14456 0.0
C564 C 0.51934 0.5808 0.1233 0.0
C565 C 0.51327 0.57885 0.08575 0.0
C566 C 0.5006 0.59382 0.06886 0.0
C567 C 0.49424 0.61075 0.09054 0.0
C568 C 0.5003 0.61267 0.1279 0.0
C569 C 0.57217 0.60608 0.27521 0.0
C570 C 0.57959 0.55701 0.19601 0.0
C571 C 0.5995 0.54822 0.33984 0.0
C572 C 0.59816 0.53816 0.37682 0.0
C573 C 0.6116 0.54408 0.40556 0.0
C574 C 0.61066 0.53455 0.44069 0.0
C575 C 0.59627 0.51885 0.44774 0.0
C576 C 0.58264 0.51316 0.41892 0.0
C577 C 0.58353 0.52276 0.3839 0.0
C578 C 0.54488 0.53509 0.25288 0.0
C579 C 0.52978 0.57791 0.32185 0.0
O580 O 0.51272 0.58708 0.20819 0.0
O581 O 0.53838 0.60608 0.18947 0.0
O582 O 0.55329 0.61202 0.27076 0.0
O583 O 0.57523 0.58953 0.25774 0.0
O584 O 0.56065 0.56411 0.19421 0.0
O585 O 0.58998 0.5564 0.22802 0.0
O586 O 0.59135 0.56654 0.33721 0.0
O587 O 0.59565 0.53675 0.31059 0.0
O588 O 0.56264 0.52811 0.26347 0.0
O589 O 0.54176 0.55312 0.26465 0.0
O590 O 0.54837 0.56998 0.32764 0.0
O591 O 0.52316 0.58283 0.28809 0.0
H592 H 0.52907 0.56912 0.13569 0.0
H593 H 0.51834 0.56552 0.07009 0.0
H594 H 0.48483 0.62278 0.07846 0.0
H595 H 0.49527 0.62595 0.14378 0.0
H596 H 0.62293 0.55601 0.40075 0.0
H597 H 0.62147 0.53923 0.46211 0.0
H598 H 0.57113 0.5014 0.42353 0.0
H599 H 0.57279 0.51812 0.36232 0.0
Nd600 Nd 0.15348 0.79096 0.99034 0.0
Nd601 Nd 0.1782 0.82247 0.03916 0.0
C602 C 0.13809 0.76549 0.93964 0.0
C603 C 0.13951 0.75999 0.89967 0.0
C604 C 0.15672 0.76514 0.87787 0.0
C605 C 0.1577 0.75922 0.84013 0.0
C606 C 0.14151 0.74803 0.82358 0.0
C607 C 0.12423 0.74322 0.84563 0.0
C608 C 0.12327 0.74913 0.8832 0.0
C609 C 0.13111 0.82008 0.02876 0.0
C610 C 0.17867 0.82855 0.94939 0.0
C611 C 0.18934 0.84907 0.09174 0.0
C612 C 0.19905 0.84913 0.12916 0.0
C613 C 0.19142 0.86223 0.15713 0.0
C614 C 0.20089 0.8631 0.19232 0.0
C615 C 0.21826 0.85093 0.2002 0.0
C616 C 0.2256 0.83753 0.17227 0.0
C617 C 0.21608 0.83659 0.13719 0.0
C618 C 0.20184 0.79328 1.00621 0.0
C619 C 0.1593 0.77888 0.07694 0.0
O620 O 0.15387 0.76097 0.96086 0.0
O621 O 0.12986 0.78332 0.9477 0.0
O622 O 0.1253 0.80111 0.02466 0.0
O623 O 0.14762 0.8232 1.01119 0.0
O624 O 0.17172 0.80953 0.94756 0.0
O625 O 0.17969 0.83878 0.98153 0.0
O626 O 0.17086 0.84129 0.08942 0.0
O627 O 0.20095 0.84408 0.06328 0.0
O628 O 0.20866 0.81149 1.01438 0.0
O629 O 0.18415 0.79031 1.01949 0.0
O630 O 0.16717 0.79757 0.08218 0.0
O631 O 0.15459 0.77186 0.04336 0.0
H632 H 0.16942 0.77357 0.89008 0.0
H633 H 0.1713 0.76309 0.82412 0.0
H634 H 0.11129 0.73502 0.83378 0.0
H635 H 0.1098 0.74513 0.89949 0.0
H636 H 0.17826 0.87199 0.15159 0.0
H637 H 0.19489 0.87367 0.21304 0.0
H638 H 0.23869 0.82766 0.17757 0.0
H639 H 0.22213 0.82616 0.11628 0.0
Nd640 Nd 0.58157 0.94252 0.58186 0.0
Nd641 Nd 0.55437 0.9131 0.628 0.0
C642 C 0.5989 0.96808 0.53314 0.0
C643 C 0.59762 0.97687 0.49497 0.0
C644 C 0.5882 0.96639 0.46514 0.0
C645 C 0.58795 0.97505 0.42906 0.0
C646 C 0.59706 -0.00562 0.42215 0.0
C647 C 0.60649 0.00467 0.45228 0.0
C648 C 0.60673 -0.00396 0.48814 0.0
C649 C 0.60151 0.91001 0.61538 0.0
C650 C 0.5498 0.90997 0.54002 0.0
C651 C 0.53814 0.88834 0.67916 0.0
C652 C 0.53376 0.88909 0.71978 0.0
C653 C 0.54787 0.89743 0.7454 0.0
C654 C 0.54293 0.89876 0.78353 0.0
C655 C 0.52376 0.89181 0.79684 0.0
C656 C 0.50981 0.88327 0.77102 0.0
C657 C 0.51476 0.88195 0.73299 0.0
C658 C 0.53459 0.94825 0.60449 0.0
C659 C 0.58118 0.94987 0.67099 0.0
O660 O 0.5851 0.97388 0.55764 0.0
O661 O 0.60388 0.94865 0.53629 0.0
O662 O 0.60947 0.92816 0.61114 0.0
O663 O 0.58437 0.90917 0.59887 0.0
O664 O 0.55917 0.92803 0.53934 0.0
O665 O 0.54893 0.89869 0.5707 0.0
O666 O 0.55739 0.88751 0.66879 0.0
O667 O 0.52724 0.90062 0.65817 0.0
O668 O 0.52668 0.92994 0.60338 0.0
O669 O 0.55283 0.94712 0.61613 0.0
O670 O 0.57155 0.93195 0.67318 0.0
O671 O 0.58499 0.95883 0.63848 0.0
H672 H 0.58107 0.95155 0.46973 0.0
H673 H 0.58036 0.96674 0.40674 0.0
H674 H 0.61398 0.01937 0.44812 0.0
H675 H 0.61424 0.00432 0.51062 0.0
H676 H 0.56263 0.90312 0.73594 0.0
H677 H 0.554 0.90559 0.80244 0.0
H678 H 0.49506 0.87743 0.78021 0.0
H679 H 0.50365 0.87544 0.71377 0.0
Nd680 Nd 0.29137 0.33154 0.83533 0.0
Nd681 Nd 0.32124 0.3045 0.88074 0.0
C682 C 0.26519 0.34858 0.7874 0.0
C683 C 0.2564 0.34732 0.74927 0.0
C684 C 0.26707 0.33833 0.71924 0.0
C685 C 0.25842 0.33814 0.68317 0.0
C686 C 0.23891 0.34688 0.67649 0.0
C687 C 0.22841 0.35588 0.70683 0.0
C688 C 0.23704 0.35607 0.74268 0.0
C689 C 0.32395 0.35179 0.86782 0.0
C690 C 0.32394 0.3001 0.79269 0.0
C691 C 0.34637 0.28807 0.93103 0.0
C692 C 0.34582 0.2834 0.9715 0.0
C693 C 0.33693 0.29702 0.99742 0.0
C694 C 0.33595 0.29185 0.03546 0.0
C695 C 0.34389 0.27297 0.04836 0.0
C696 C 0.35279 0.25944 1.0222 0.0
C697 C 0.35373 0.26461 0.98425 0.0
C698 C 0.2859 0.28463 0.85844 0.0
C699 C 0.28495 0.33136 0.92483 0.0
O700 O 0.25985 0.33441 0.81157 0.0
O701 O 0.28447 0.35407 0.79051 0.0
O702 O 0.30578 0.35969 0.86355 0.0
O703 O 0.32481 0.33455 0.85155 0.0
O704 O 0.30581 0.30932 0.79236 0.0
O705 O 0.33538 0.29932 0.82317 0.0
O706 O 0.34696 0.30742 0.92119 0.0
O707 O 0.3341 0.27721 0.90996 0.0
O708 O 0.3042 0.27675 0.85668 0.0
O709 O 0.28714 0.30289 0.86998 0.0
O710 O 0.30289 0.32176 0.92647 0.0
O711 O 0.27564 0.33505 0.89257 0.0
H712 H 0.28206 0.3315 0.72366 0.0
H713 H 0.26688 0.33088 0.66067 0.0
H714 H 0.21356 0.36308 0.70283 0.0
H715 H 0.22861 0.36325 0.76533 0.0
H716 H 0.3307 0.31162 0.98828 0.0
H717 H 0.32919 0.30274 0.0548 0.0
H718 H 0.35876 0.24465 0.03093 0.0
H719 H 0.3605 0.25381 0.96473 0.0
Nd720 Nd 0.90257 0.04304 0.08445 0.0
Nd721 Nd 0.92906 0.07316 0.12998 0.0
C722 C 0.88647 0.0171 0.03493 0.0
C723 C 0.88824 0.00962 0.99563 0.0
C724 C 0.9045 -0.0032 0.9842 0.0
C725 C 0.90483 0.98836 0.94807 0.0
C726 C 0.88891 -0.00756 0.92237 0.0
C727 C 0.87292 0.00566 0.93358 0.0
C728 C 0.87256 0.01405 0.96975 0.0
C729 C 0.88228 0.07643 0.11416 0.0
C730 C 0.93471 0.07501 0.04221 0.0
C731 C 0.9444 0.09896 0.18026 0.0
C732 C 0.9497 0.09849 0.22053 0.0
C733 C 0.93584 0.09112 0.24758 0.0
C734 C 0.9415 0.09031 0.2854 0.0
C735 C 0.96111 0.09693 0.29699 0.0
C736 C 0.97487 0.10437 0.26976 0.0
C737 C 0.96922 0.10513 0.23202 0.0
C738 C 0.94919 0.03755 0.10999 0.0
C739 C 0.9018 0.03693 0.17394 0.0
O740 O 0.90079 0.01192 0.05894 0.0
O741 O 0.87967 0.03583 0.04015 0.0
O742 O 0.87434 0.05818 0.11115 0.0
O743 O 0.89973 0.0768 0.09864 0.0
O744 O 0.92539 0.05695 0.04212 0.0
O745 O 0.93514 0.08678 0.07229 0.0
O746 O 0.92494 0.0983 0.17128 0.0
O747 O 0.95579 0.08767 0.15828 0.0
O748 O 0.9572 0.0558 0.10844 0.0
O749 O 0.93075 0.03889 0.12053 0.0
O750 O 0.91158 0.0548 0.17552 0.0
O751 O 0.89812 0.0276 0.14169 0.0
H752 H 0.91684 -0.00701 1.00332 0.0
H753 H 0.91757 0.97852 0.94034 0.0
H754 H 0.86028 0.00902 0.91484 0.0
H755 H 0.85969 0.02366 0.97779 0.0
H756 H 0.92064 0.08598 0.23955 0.0
H757 H 0.93042 0.08473 0.30559 0.0
H758 H 0.99018 0.10932 0.2775 0.0
H759 H 0.98019 0.11079 0.21168 0.0
Nd760 Nd 0.19071 0.6521 0.33768 0.0
Nd761 Nd 0.15977 0.6772 0.38272 0.0
C762 C 0.21726 0.63657 0.28866 0.0
C763 C 0.22468 0.63814 0.2494 0.0
C764 C 0.23333 0.65636 0.2352 0.0
C765 C 0.24192 0.65681 0.1992 0.0
C766 C 0.24207 0.6391 0.17644 0.0
C767 C 0.23284 0.62108 0.19033 0.0
C768 C 0.22433 0.62061 0.22639 0.0
C769 C 0.15785 0.63052 0.3665 0.0
C770 C 0.15788 0.68316 0.29501 0.0
C771 C 0.13407 0.69195 0.43377 0.0
C772 C 0.13506 0.69674 0.47431 0.0
C773 C 0.1406 0.6818 0.50096 0.0
C774 C 0.14218 0.687 0.53893 0.0
C775 C 0.13832 0.70725 0.5511 0.0
C776 C 0.1326 0.72207 0.52435 0.0
C777 C 0.13097 0.71686 0.48648 0.0
C778 C 0.19441 0.69891 0.36358 0.0
C779 C 0.1966 0.65096 0.42685 0.0
O780 O 0.22178 0.65145 0.31198 0.0
O781 O 0.19885 0.62906 0.29407 0.0
O782 O 0.17642 0.62333 0.36418 0.0
O783 O 0.157 0.64795 0.35098 0.0
O784 O 0.17621 0.67439 0.2951 0.0
O785 O 0.14604 0.68322 0.32501 0.0
O786 O 0.13458 0.67261 0.42384 0.0
O787 O 0.14514 0.7036 0.41187 0.0
O788 O 0.17578 0.7057 0.36011 0.0
O789 O 0.19404 0.68041 0.37422 0.0
O790 O 0.17834 0.65995 0.42831 0.0
O791 O 0.20624 0.64799 0.39473 0.0
H792 H 0.2338 0.67018 0.25209 0.0
H793 H 0.24858 0.67107 0.18926 0.0
H794 H 0.23281 0.60709 0.17387 0.0
H795 H 0.2179 0.60631 0.23667 0.0
H796 H 0.14391 0.66615 0.49249 0.0
H797 H 0.14679 0.67522 0.55865 0.0
H798 H 0.12919 0.73771 0.5327 0.0
H799 H 0.1266 0.72864 0.46656 0.0
Nd800 Nd 0.5667 0.05508 0.07878 0.0
Nd801 Nd 0.541 0.08464 0.12998 0.0
C802 C 0.59477 0.03786 0.03538 0.0
C803 C 0.59694 0.03235 0.99566 0.0
C804 C 0.58266 0.03919 0.96897 0.0
C805 C 0.5835 0.03181 0.93216 0.0
C806 C 0.59854 0.01736 0.92157 0.0
C807 C 0.61322 0.01115 0.94821 0.0
C808 C 0.61239 0.01857 0.9849 0.0
C809 C 0.5334 0.03759 0.11075 0.0
C810 C 0.52573 0.07611 0.04267 0.0
C811 C 0.51388 0.10267 0.17458 0.0
C812 C 0.50747 0.10142 0.21457 0.0
C813 C 0.49644 0.08445 0.22856 0.0
C814 C 0.49043 0.08368 0.26625 0.0
C815 C 0.49521 0.09987 0.29097 0.0
C816 C 0.50623 0.11683 0.27683 0.0
C817 C 0.51221 0.1176 0.23918 0.0
C818 C 0.57245 0.10202 0.08879 0.0
C819 C 0.57755 0.05856 0.16987 0.0
O820 O 0.59483 0.05751 0.04381 0.0
O821 O 0.58086 0.02742 0.05378 0.0
O822 O 0.53999 0.0326 0.07758 0.0
O823 O 0.54514 0.05032 0.12679 0.0
O824 O 0.54371 0.06738 0.03536 0.0
O825 O 0.52058 0.08226 0.07686 0.0
O826 O 0.50932 0.08715 0.15266 0.0
O827 O 0.53216 0.11026 0.1678 0.0
O828 O 0.56764 0.1086 0.12195 0.0
O829 O 0.5601 0.08848 0.07885 0.0
O830 O 0.56033 0.06892 0.17453 0.0
O831 O 0.58432 0.05333 0.13604 0.0
H832 H 0.57048 0.0497 0.97689 0.0
H833 H 0.57186 0.03676 0.91247 0.0
H834 H 0.62516 0.00027 0.94086 0.0
H835 H 0.6235 0.01309 1.00516 0.0
H836 H 0.49233 0.07176 0.21043 0.0
H837 H 0.48171 0.0705 0.27581 0.0
H838 H 0.51049 0.12947 0.29496 0.0
H839 H 0.52061 0.13092 0.2293 0.0
Nd840 Nd 0.17843 0.31796 0.3327 0.0
Nd841 Nd 0.14833 0.2922 0.38356 0.0
C842 C 0.19637 0.3456 0.28932 0.0
C843 C 0.20202 0.3474 0.24955 0.0
C844 C 0.19455 0.33338 0.22295 0.0
C845 C 0.20182 0.33392 0.18604 0.0
C846 C 0.2168 0.34838 0.17521 0.0
C847 C 0.22372 0.36277 0.20182 0.0
C848 C 0.21641 0.36225 0.23861 0.0
C849 C 0.19514 0.28399 0.36412 0.0
C850 C 0.15619 0.27781 0.29562 0.0
C851 C 0.13025 0.26487 0.42778 0.0
C852 C 0.13207 0.25855 0.46743 0.0
C853 C 0.14722 0.26703 0.49078 0.0
C854 C 0.14849 0.26126 0.52855 0.0
C855 C 0.1346 0.24689 0.54388 0.0
C856 C 0.1195 0.2384 0.52015 0.0
C857 C 0.11827 0.24418 0.4824 0.0
C858 C 0.13159 0.32478 0.34452 0.0
C859 C 0.17497 0.32835 0.42384 0.0
O860 O 0.17672 0.34609 0.29754 0.0
O861 O 0.20647 0.3316 0.30814 0.0
O862 O 0.20035 0.29068 0.33113 0.0
O863 O 0.18263 0.29593 0.38016 0.0
O864 O 0.16537 0.29564 0.28891 0.0
O865 O 0.14997 0.2724 0.32963 0.0
O866 O 0.14579 0.26042 0.40591 0.0
O867 O 0.12295 0.28335 0.42179 0.0
O868 O 0.12455 0.319 0.37685 0.0
O869 O 0.14485 0.31236 0.33353 0.0
O870 O 0.16446 0.31118 0.42815 0.0
O871 O 0.1803 0.3353 0.39018 0.0
H872 H 0.18356 0.32166 0.23097 0.0
H873 H 0.19631 0.32249 0.16641 0.0
H874 H 0.23502 0.37428 0.19433 0.0
H875 H 0.22239 0.37316 0.25879 0.0
H876 H 0.15804 0.27817 0.47983 0.0
H877 H 0.16049 0.26796 0.54564 0.0
H878 H 0.10833 0.22756 0.53088 0.0
H879 H 0.10639 0.23753 0.46495 0.0
Nd880 Nd 0.91218 0.9249 0.58263 0.0
Nd881 Nd 0.94389 0.90079 0.63181 0.0
C882 C 0.88591 0.93561 0.52931 0.0
C883 C 0.88699 0.94512 0.4919 0.0
C884 C 0.87214 0.94028 0.46485 0.0
C885 C 0.87275 0.94953 0.42947 0.0
C886 C 0.88822 0.96386 0.42054 0.0
C887 C 0.9033 0.96835 0.4476 0.0
C888 C 0.90273 0.95902 0.48286 0.0
C889 C 0.94115 0.94903 0.6149 0.0
C890 C 0.95584 0.90616 0.54504 0.0
C891 C 0.96973 0.88668 0.68304 0.0
C892 C 0.97459 0.8891 0.72313 0.0
C893 C -0.00517 0.886 0.73533 0.0
C894 C -0.00024 0.88745 0.77333 0.0
C895 C 0.98451 0.89199 0.80002 0.0
C896 C 0.96424 0.8954 0.78758 0.0
C897 C 0.95934 0.89402 0.74947 0.0
C898 C 0.91505 0.87786 0.5938 0.0
C899 C 0.90565 0.9255 0.67215 0.0
O900 O 0.89365 0.91714 0.53234 0.0
O901 O 0.89056 0.94739 0.55774 0.0
O902 O 0.92284 0.9556 0.6069 0.0
O903 O 0.9443 0.93127 0.60202 0.0
O904 O 0.93711 0.91388 0.53977 0.0
O905 O 0.96292 0.90163 0.57865 0.0
O906 O 0.97394 0.9023 0.66125 0.0
O907 O 0.95231 0.87769 0.67466 0.0
O908 O 0.93406 0.87222 0.59813 0.0
O909 O 0.91181 0.89443 0.61115 0.0
O910 O 0.92471 0.91868 0.67441 0.0
O911 O 0.8956 0.92647 0.63986 0.0
H912 H 0.85995 0.92947 0.47122 0.0
H913 H 0.86084 0.94581 0.4094 0.0
H914 H 0.91564 0.979 0.44145 0.0
H915 H 0.91454 0.96275 0.50313 0.0
H916 H 0.00681 0.88218 0.71545 0.0
H917 H 0.01546 0.88449 0.78189 0.0
H918 H 0.95217 0.8992 0.80727 0.0
H919 H 0.94365 0.89662 0.74062 0.0
Nd920 Nd 0.3069 0.65915 0.83495 0.0
Nd921 Nd 0.33196 0.69167 0.88035 0.0
C922 C 0.29417 0.63198 0.78467 0.0
C923 C 0.28594 0.63208 0.74619 0.0
C924 C 0.29364 0.6455 0.71873 0.0
C925 C 0.28487 0.64596 0.68295 0.0
C926 C 0.26814 0.63312 0.67404 0.0
C927 C 0.26071 0.61952 0.70151 0.0
C928 C 0.26954 0.619 0.73716 0.0
C929 C 0.28351 0.68811 0.86914 0.0
C930 C 0.3242 0.70232 0.79355 0.0
C931 C 0.34731 0.71771 0.9301 0.0
C932 C 0.34573 0.72265 0.97031 0.0
C933 C 0.32823 0.71755 0.99137 0.0
C934 C 0.32713 0.72267 0.02947 0.0
C935 C 0.34354 0.73297 0.04722 0.0
C936 C 0.36111 0.73774 0.02589 0.0
C937 C 0.36215 0.73266 0.98791 0.0
C938 C 0.35434 0.66297 0.84112 0.0
C939 C 0.30828 0.65398 0.92459 0.0
O940 O 0.31345 0.63712 0.78911 0.0
O941 O 0.28224 0.63977 0.81042 0.0
O942 O 0.27724 0.66944 0.86338 0.0
O943 O 0.30064 0.69148 0.85382 0.0
O944 O 0.31662 0.68341 0.7899 0.0
O945 O 0.32945 0.71 0.82642 0.0
O946 O 0.33131 0.72185 0.90917 0.0
O947 O 0.35605 0.70021 0.92152 0.0
O948 O 0.35973 0.68211 0.84463 0.0
O949 O 0.33831 0.65945 0.86 0.0
O950 O 0.3152 0.67304 0.92509 0.0
O951 O 0.30653 0.64338 0.893 0.0
H952 H 0.30623 0.65582 0.72507 0.0
H953 H 0.29082 0.65676 0.66259 0.0
H954 H 0.24804 0.60923 0.69545 0.0
H955 H 0.26339 0.60852 0.7579 0.0
H956 H 0.31538 0.70973 0.97833 0.0
H957 H 0.3133 0.71887 0.04483 0.0
H958 H 0.37422 0.74524 0.0386 0.0
H959 H 0.37586 0.73658 0.97223 0.0
Nd960 Nd 0.42581 0.07383 0.73507 0.0
Nd961 Nd 0.40044 0.04321 0.78204 0.0
C962 C 0.43925 0.09934 0.68238 0.0
C963 C 0.44397 0.09848 0.64168 0.0
C964 C 0.43378 0.11176 0.61685 0.0
C965 C 0.43844 0.11163 0.57853 0.0
C966 C 0.45348 0.09821 0.56401 0.0
C967 C 0.46346 0.08471 0.58895 0.0
C968 C 0.45876 0.08482 0.62723 0.0
C969 C 0.44728 0.03921 0.75552 0.0
C970 C 0.39976 0.03596 0.69289 0.0
C971 C 0.38506 0.01717 0.8321 0.0
C972 C 0.38693 0.00997 0.87147 0.0
C973 C 0.40508 0.00091 0.88507 0.0
C974 C 0.40576 0.99242 0.92113 0.0
C975 C 0.38832 -0.00725 0.94457 0.0
C976 C 0.37039 0.00242 0.9313 0.0
C977 C 0.3697 0.01084 0.89518 0.0
C978 C 0.37917 0.07585 0.75171 0.0
C979 C 0.43155 0.0766 0.82324 0.0
O980 O 0.41995 0.09788 0.69202 0.0
O981 O 0.45139 0.08928 0.70509 0.0
O982 O 0.45468 0.05774 0.7562 0.0
O983 O 0.42866 0.03976 0.74575 0.0
O984 O 0.40893 0.05412 0.6905 0.0
O985 O 0.39643 0.02694 0.72554 0.0
O986 O 0.39966 0.01232 0.80843 0.0
O987 O 0.37769 0.03565 0.82649 0.0
O988 O 0.37176 0.05739 0.75493 0.0
O989 O 0.39662 0.07671 0.7671 0.0
O990 O 0.42267 0.05831 0.82394 0.0
O991 O 0.43195 0.088 0.7926 0.0
H992 H 0.42222 0.12236 0.62713 0.0
H993 H 0.43014 0.122 0.56026 0.0
H994 H 0.47528 0.07432 0.57908 0.0
H995 H 0.46688 0.07431 0.64552 0.0
H996 H 0.41868 3e-05 0.86765 0.0
H997 H 0.41995 0.98541 0.93056 0.0
H998 H 0.35662 0.00284 0.94831 0.0
H999 H 0.35546 0.01759 0.88538 0.0
Nd1000 Nd 0.65779 0.68401 0.49059 0.0
Nd1001 Nd 0.68758 0.65699 0.53678 0.0
C1002 C 0.6328 0.69957 0.439 0.0
C1003 C 0.63327 0.704 0.39825 0.0
C1004 C 0.63941 0.68913 0.37191 0.0
C1005 C 0.64005 0.69392 0.33363 0.0
C1006 C 0.63458 0.71368 0.32075 0.0
C1007 C 0.6283 0.72842 0.34729 0.0
C1008 C 0.62767 0.72362 0.38548 0.0
C1009 C 0.69308 0.7039 0.5126 0.0
C1010 C 0.69447 0.65687 0.44753 0.0
C1011 C 0.71343 0.64064 0.58617 0.0
C1012 C 0.71999 0.64179 0.62593 0.0
C1013 C 0.72326 0.66067 0.64411 0.0
C1014 C 0.7304 0.6612 0.68118 0.0
C1015 C 0.73438 0.64286 0.7011 0.0
C1016 C 0.7308 0.62401 0.6828 0.0
C1017 C 0.72372 0.62351 0.64573 0.0
C1018 C 0.65462 0.63697 0.50506 0.0
C1019 C 0.65482 0.68846 0.57909 0.0
O1020 O 0.63245 0.68031 0.4495 0.0
O1021 O 0.64472 0.71082 0.4601 0.0
O1022 O 0.67485 0.71197 0.51353 0.0
O1023 O 0.69189 0.68549 0.50166 0.0
O1024 O 0.67657 0.66657 0.44556 0.0
O1025 O 0.70355 0.65312 0.47997 0.0
O1026 O 0.71821 0.656 0.56408 0.0
O1027 O 0.69515 0.63314 0.57931 0.0
O1028 O 0.67278 0.62892 0.50884 0.0
O1029 O 0.65406 0.65432 0.52098 0.0
O1030 O 0.67266 0.67874 0.57976 0.0
O1031 O 0.64371 0.68992 0.54822 0.0
H1032 H 0.6438 0.67384 0.38088 0.0
H1033 H 0.64517 0.68221 0.3142 0.0
H1034 H 0.62362 0.74366 0.33856 0.0
H1035 H 0.62279 0.73533 0.40515 0.0
H1036 H 0.72052 0.67503 0.62958 0.0
H1037 H 0.73319 0.67604 0.69394 0.0
H1038 H 0.7333 0.60957 0.69716 0.0
H1039 H 0.72129 0.60875 0.63238 0.0
Nd1040 Nd 0.05741 0.90896 0.23876 0.0
Nd1041 Nd 0.08314 0.93931 0.2847 0.0
C1042 C 0.04295 0.88303 0.18775 0.0
C1043 C 0.03753 0.88453 0.14782 0.0
C1044 C 0.02949 0.8674 0.12908 0.0
C1045 C 0.02381 0.86884 0.09138 0.0
C1046 C 0.02613 0.88746 0.07167 0.0
C1047 C 0.0344 0.90456 0.09061 0.0
C1048 C 0.03998 0.90311 0.12834 0.0
C1049 C 0.0365 0.94421 0.25784 0.0
C1050 C 0.08412 0.94578 0.1954 0.0
C1051 C 0.09911 0.96534 0.33411 0.0
C1052 C 0.09748 0.97275 0.3734 0.0
C1053 C 0.08042 0.98412 0.3859 0.0
C1054 C 0.08015 -0.00738 0.42196 0.0
C1055 C 0.09692 0.98999 0.44647 0.0
C1056 C 0.11372 0.97812 0.43425 0.0
C1057 C 0.11402 0.9697 0.39814 0.0
C1058 C 0.10403 0.90615 0.2554 0.0
C1059 C 0.05124 0.907 0.32647 0.0
O1060 O 0.06244 0.88478 0.19587 0.0
O1061 O 0.03127 0.89336 0.21074 0.0
O1062 O 0.02878 0.92584 0.2591 0.0
O1063 O 0.0551 0.94324 0.24811 0.0
O1064 O 0.07486 0.92766 0.19359 0.0
O1065 O 0.08739 0.9551 0.22778 0.0
O1066 O 0.08456 0.97036 0.31045 0.0
O1067 O 0.10611 0.94671 0.32875 0.0
O1068 O 0.11162 0.92456 0.25812 0.0
O1069 O 0.08655 0.90558 0.27076 0.0
O1070 O 0.06029 0.9252 0.32672 0.0
O1071 O 0.05116 0.89523 0.29638 0.0
H1072 H 0.02752 0.85292 0.14366 0.0
H1073 H 0.01777 0.8553 0.07758 0.0
H1074 H 0.03619 0.91918 0.07648 0.0
H1075 H 0.04601 0.91657 0.14241 0.0
H1076 H 0.06741 0.98679 0.36764 0.0
H1077 H 0.06681 0.00138 0.43056 0.0
H1078 H 0.12698 0.97592 0.45211 0.0
H1079 H 0.12747 0.96118 0.3892 0.0
Nd1080 Nd 0.82308 0.30394 0.98817 0.0
Nd1081 Nd 0.79299 0.33117 0.0324 0.0
C1082 C 0.8487 0.2881 0.93816 0.0
C1083 C 0.84823 0.28353 0.89759 0.0
C1084 C 0.84173 0.29822 0.87124 0.0
C1085 C 0.8406 0.29316 0.83316 0.0
C1086 C 0.8459 0.27331 0.82063 0.0
C1087 C 0.8526 0.25876 0.84714 0.0
C1088 C 0.85375 0.26383 0.88512 0.0
C1089 C 0.78791 0.28385 1.01025 0.0
C1090 C 0.78627 0.32981 0.94312 0.0
C1091 C 0.76746 0.34857 0.08104 0.0
C1092 C 0.75955 0.34694 0.11993 0.0
C1093 C 0.74985 0.32903 0.13308 0.0
C1094 C 0.74099 0.32854 0.16886 0.0
C1095 C 0.74165 0.34593 0.19241 0.0
C1096 C 0.7519 0.36362 0.17955 0.0
C1097 C 0.76066 0.36413 0.14371 0.0
C1098 C 0.82583 0.35098 0.99984 0.0
C1099 C 0.82499 0.29953 0.07611 0.0
O1100 O 0.84899 0.30742 0.94827 0.0
O1101 O 0.83664 0.27694 0.95915 0.0
O1102 O 0.80626 0.27608 1.01204 0.0
O1103 O 0.78895 0.30215 0.99873 0.0
O1104 O 0.80428 0.3203 0.94185 0.0
O1105 O 0.77706 0.33401 0.97527 0.0
O1106 O 0.7618 0.33458 0.05673 0.0
O1107 O 0.78659 0.35434 0.07672 0.0
O1108 O 0.80753 0.35879 1.00246 0.0
O1109 O 0.82648 0.33405 1.0171 0.0
O1110 O 0.80691 0.30886 0.0758 0.0
O1111 O 0.83675 0.29874 0.04606 0.0
H1112 H 0.83733 0.31354 0.88004 0.0
H1113 H 0.83519 0.30471 0.81366 0.0
H1114 H 0.85714 0.24345 0.83852 0.0
H1115 H 0.85885 0.25227 0.90489 0.0
H1116 H 0.7488 0.31547 0.11557 0.0
H1117 H 0.73353 0.31453 0.17801 0.0
H1118 H 0.75258 0.37734 0.19668 0.0
H1119 H 0.76795 0.37817 0.13422 0.0
Nd1120 Nd 0.44158 0.89981 0.23641 0.0
Nd1121 Nd 0.40956 0.92387 0.2851 0.0
C1122 C 0.46665 0.88422 0.18516 0.0
C1123 C 0.47321 0.88751 0.14612 0.0
C1124 C 0.46471 0.90319 0.12395 0.0
C1125 C 0.47077 0.90546 0.08647 0.0
C1126 C 0.48549 0.89213 0.07057 0.0
C1127 C 0.494 0.87658 0.09321 0.0
C1128 C 0.48791 0.87432 0.13051 0.0
C1129 C 0.41245 0.87694 0.27389 0.0
C1130 C 0.40462 0.9256 0.19531 0.0
C1131 C 0.38269 0.93431 0.33759 0.0
C1132 C 0.38302 0.94365 0.37533 0.0
C1133 C 0.39676 0.93691 0.40312 0.0
C1134 C 0.39715 0.94644 0.43828 0.0
C1135 C 0.38393 0.96302 0.44628 0.0
C1136 C 0.37006 0.96955 0.41849 0.0
C1137 C 0.3696 0.95994 0.38347 0.0
C1138 C 0.43828 0.94851 0.25379 0.0
C1139 C 0.45325 0.90562 0.3232 0.0
O1140 O 0.47241 0.89793 0.20985 0.0
O1141 O 0.44775 0.87792 0.19021 0.0
O1142 O 0.43153 0.87143 0.2704 0.0
O1143 O 0.40935 0.89347 0.25641 0.0
O1144 O 0.42384 0.91921 0.1942 0.0
O1145 O 0.39388 0.92585 0.22692 0.0
O1146 O 0.39029 0.91579 0.33408 0.0
O1147 O 0.38766 0.94636 0.30974 0.0
O1148 O 0.42015 0.95498 0.2632 0.0
O1149 O 0.44169 0.93055 0.26564 0.0
O1150 O 0.43439 0.91307 0.3282 0.0
O1151 O 0.46053 0.9011 0.2897 0.0
H1152 H 0.45336 0.91357 0.13555 0.0
H1153 H 0.46403 0.91773 0.07006 0.0
H1154 H 0.50509 0.86582 0.08191 0.0
H1155 H 0.49456 0.86206 0.14712 0.0
H1156 H 0.40738 0.92443 0.39759 0.0
H1157 H 0.40816 0.94117 0.45888 0.0
H1158 H 0.35948 0.98207 0.42385 0.0
H1159 H 0.35882 0.96535 0.36256 0.0
Nd1160 Nd 0.83211 0.69226 0.99129 0.0
Nd1161 Nd 0.80778 0.66162 0.04177 0.0
C1162 C 0.84842 0.71575 0.93844 0.0
C1163 C 0.84493 0.72334 0.90006 0.0
C1164 C 0.83243 0.71266 0.87457 0.0
C1165 C 0.83111 0.71913 0.83718 0.0
C1166 C 0.8423 0.73637 0.82463 0.0
C1167 C 0.85416 0.74739 0.85078 0.0
C1168 C 0.85547 0.74092 0.88801 0.0
C1169 C 0.85432 0.66155 0.02616 0.0
C1170 C 0.80104 0.6589 0.95297 0.0
C1171 C 0.79731 0.63491 0.09445 0.0
C1172 C 0.78787 0.63549 0.13217 0.0
C1173 C 0.79731 0.64585 0.16218 0.0
C1174 C 0.78779 0.64662 0.1973 0.0
C1175 C 0.76861 0.63715 0.20315 0.0
C1176 C 0.75938 0.62656 0.17322 0.0
C1177 C 0.76894 0.62569 0.13821 0.0
C1178 C 0.78396 0.69247 1.01511 0.0
C1179 C 0.82969 0.70395 0.07863 0.0
O1180 O 0.83668 0.72302 0.96511 0.0
O1181 O 0.85232 0.6961 0.9421 0.0
O1182 O 0.86076 0.68029 1.02217 0.0
O1183 O 0.83717 0.65947 1.01023 0.0
O1184 O 0.80839 0.67778 0.95232 0.0
O1185 O 0.8029 0.64706 0.98306 0.0
O1186 O 0.81584 0.64244 0.09087 0.0
O1187 O 0.78536 0.63968 0.06635 0.0
O1188 O 0.77664 0.67472 0.02488 0.0
O1189 O 0.80259 0.69436 0.02424 0.0
O1190 O 0.82136 0.68549 0.08409 0.0
O1191 O 0.8336 0.71115 0.04477 0.0
H1192 H 0.82415 0.69903 0.88332 0.0
H1193 H 0.8219 0.7102 0.81787 0.0
H1194 H 0.86264 0.76097 0.84241 0.0
H1195 H 0.86514 0.74942 0.90726 0.0
H1196 H 0.81193 0.65357 0.1585 0.0
H1197 H 0.79524 0.65506 0.21963 0.0
H1198 H 0.74477 0.61884 0.17687 0.0
H1199 H 0.76142 0.61747 0.11567 0.0
Nd1200 Nd 0.04226 0.08238 0.73725 0.0
Nd1201 Nd 0.0734 0.05685 0.7851 0.0
C1202 C 0.01709 0.09808 0.68646 0.0
C1203 C 0.01264 0.09697 0.64601 0.0
C1204 C 0.01521 0.0787 0.62552 0.0
C1205 C 0.01044 0.07811 0.58724 0.0
C1206 C 0.00318 0.09583 0.56876 0.0
C1207 C 0.0008 0.11407 0.58951 0.0
C1208 C 0.00546 0.11461 0.62767 0.0
C1209 C 0.07137 0.10416 0.77651 0.0
C1210 C 0.08014 0.05772 0.69572 0.0
C1211 C 0.09964 0.04406 0.83695 0.0
C1212 C 0.09925 0.03515 0.87496 0.0
C1213 C 0.08552 0.04219 0.9025 0.0
C1214 C 0.08516 0.033 0.93799 0.0
C1215 C 0.09838 0.01649 0.94647 0.0
C1216 C 0.11221 0.00967 0.91886 0.0
C1217 C 0.11265 0.01893 0.88356 0.0
C1218 C 0.0443 0.03397 0.75019 0.0
C1219 C 0.03008 0.07564 0.82354 0.0
O1220 O 0.01264 0.08189 0.70671 0.0
O1221 O 0.03442 0.10679 0.69617 0.0
O1222 O 0.05242 0.11012 0.77266 0.0
O1223 O 0.07446 0.08781 0.7584 0.0
O1224 O 0.06125 0.06501 0.69378 0.0
O1225 O 0.09009 0.05593 0.72797 0.0
O1226 O 0.09394 0.06325 0.83324 0.0
O1227 O 0.09283 0.03231 0.81 0.0
O1228 O 0.0626 0.02711 0.7574 0.0
O1229 O 0.04126 0.05133 0.76484 0.0
O1230 O 0.04875 0.06772 0.82855 0.0
O1231 O 0.02307 0.08069 0.79012 0.0
H1232 H 0.02086 0.0649 0.63908 0.0
H1233 H 0.01267 0.06388 0.57204 0.0
H1234 H -0.00501 0.12792 0.57638 0.0
H1235 H 0.00332 0.12884 0.64298 0.0
H1236 H 0.07493 0.05462 0.89651 0.0
H1237 H 0.07418 0.03849 0.95846 0.0
H1238 H 0.12279 -0.00281 0.92459 0.0
H1239 H 0.1234 0.01329 0.86278 0.0
Nd1240 Nd 0.65062 0.29117 0.48516 0.0
Nd1241 Nd 0.67632 0.32233 0.53213 0.0
C1242 C 0.63457 0.26614 0.43446 0.0
C1243 C 0.63576 0.26161 0.39402 0.0
C1244 C 0.65419 0.26367 0.37383 0.0
C1245 C 0.65485 0.25883 0.33559 0.0
C1246 C 0.63707 0.25201 0.31681 0.0
C1247 C 0.61867 0.25015 0.33724 0.0
C1248 C 0.61805 0.25488 0.37538 0.0
C1249 C 0.62896 0.31992 0.52558 0.0
C1250 C 0.67492 0.32909 0.44288 0.0
C1251 C 0.68942 0.34843 0.58396 0.0
C1252 C 0.69764 0.3478 0.62247 0.0
C1253 C 0.68948 0.33454 0.64976 0.0
C1254 C 0.69812 0.33378 0.68567 0.0
C1255 C 0.71517 0.34614 0.69485 0.0
C1256 C 0.72307 0.35955 0.66751 0.0
C1257 C 0.71438 0.36037 0.63177 0.0
C1258 C 0.69912 0.29356 0.49605 0.0
C1259 C 0.65846 0.27869 0.57088 0.0
O1260 O 0.65059 0.26142 0.45492 0.0
O1261 O 0.62616 0.28366 0.44399 0.0
O1262 O 0.62324 0.30089 0.5219 0.0
O1263 O 0.64503 0.32327 0.50681 0.0
O1264 O 0.66765 0.31018 0.44127 0.0
O1265 O 0.67691 0.33909 0.47506 0.0
O1266 O 0.67007 0.34364 0.57924 0.0
O1267 O 0.70127 0.34086 0.55786 0.0
O1268 O 0.70573 0.31201 0.50281 0.0
O1269 O 0.68201 0.29025 0.51146 0.0
O1270 O 0.66611 0.29748 0.57578 0.0
O1271 O 0.65316 0.2717 0.53759 0.0
H1272 H 0.66804 0.26899 0.38761 0.0
H1273 H 0.66922 0.26066 0.32064 0.0
H1274 H 0.60476 0.24469 0.32388 0.0
H1275 H 0.6037 0.25314 0.39045 0.0
H1276 H 0.67662 0.32458 0.64323 0.0
H1277 H 0.69178 0.32314 0.70593 0.0
H1278 H 0.73599 0.36947 0.67376 0.0
H1279 H 0.72088 0.37074 0.61119 0.0
H1280 H 0.0811 0.43293 0.24573 0.0
H1281 H 0.10567 0.53914 0.35044 0.0
H1282 H 0.09347 0.48947 0.18658 0.0
H1283 H 0.09006 0.48252 0.40669 0.0
H1284 H 0.10343 0.52116 0.29027 0.0
H1285 H 0.08656 0.45071 0.30474 0.0
C1286 C 0.08502 0.44911 0.24508 0.0
C1287 C 0.08665 0.45973 0.21101 0.0
C1288 C 0.10053 0.51269 0.3158 0.0
C1289 C 0.09296 0.48034 0.27901 0.0
C1290 C 0.1019 0.52291 0.3502 0.0
C1291 C 0.09793 0.51237 0.38377 0.0
C1292 C 0.09526 0.49173 0.31492 0.0
C1293 C 0.09291 0.49139 0.3816 0.0
C1294 C 0.08816 0.45928 0.27893 0.0
C1295 C 0.09205 0.48065 0.21214 0.0
N1296 N 0.09171 0.48182 0.34788 0.0
N1297 N 0.0949 0.4903 0.2456 0.0
H1298 H 0.76689 0.84925 0.66154 0.0
H1299 H 0.75044 0.84567 0.43929 0.0
H1300 H 0.70699 0.85192 0.60993 0.0
H1301 H 0.80923 0.83982 0.49422 0.0
H1302 H 0.73428 0.85135 0.50052 0.0
H1303 H 0.78262 0.84883 0.59969 0.0
C1304 C 0.75702 0.8497 0.63715 0.0
C1305 C 0.73555 0.85037 0.64103 0.0
C1306 C 0.75074 0.849 0.49907 0.0
C1307 C 0.75356 0.85006 0.56968 0.0
C1308 C 0.75999 0.84588 0.46411 0.0
C1309 C 0.7812 0.84213 0.46162 0.0
C1310 C 0.76282 0.84845 0.53169 0.0
C1311 C 0.79279 0.84242 0.49476 0.0
C1312 C 0.76603 0.84957 0.60175 0.0
C1313 C 0.7236 0.85144 0.60831 0.0
N1314 N 0.78345 0.8454 0.5283 0.0
N1315 N 0.73275 0.8511 0.57401 0.0
H1316 H 0.38647 0.49948 0.68591 0.0
H1317 H 0.40455 0.50859 0.90641 0.0
H1318 H 0.40406 0.55542 0.74252 0.0
H1319 H 0.37247 0.45711 0.85761 0.0
H1320 H 0.40556 0.52512 0.84525 0.0
H1321 H 0.38165 0.48294 0.74717 0.0
C1322 C 0.38912 0.50835 0.71109 0.0
C1323 C 0.39588 0.52885 0.70894 0.0
C1324 C 0.39822 0.51024 0.84778 0.0
C1325 C 0.39062 0.50998 0.77893 0.0
C1326 C 0.39777 0.50073 0.88271 0.0
C1327 C 0.38854 0.48138 0.88709 0.0
C1328 C 0.38955 0.50031 0.81663 0.0
C1329 C 0.37969 0.47207 0.85546 0.0
C1330 C 0.38641 0.49889 0.74603 0.0
C1331 C 0.3991 0.53955 0.74259 0.0
N1332 N 0.38055 0.48155 0.82145 0.0
N1333 N 0.3966 0.52997 0.776 0.0
H1334 H 0.78594 0.12732 0.10207 0.0
H1335 H 0.68206 0.15638 0.99372 0.0
H1336 H 0.73136 0.15109 0.15539 0.0
H1337 H 0.73776 0.1389 0.93631 0.0
H1338 H 0.6995 0.15194 0.05328 0.0
H1339 H 0.76829 0.12906 0.0415 0.0
C1340 C 0.77023 0.13281 0.1011 0.0
C1341 C 0.76017 0.13916 0.13395 0.0
C1342 C 0.70796 0.149 0.02774 0.0
C1343 C 0.7399 0.14122 0.06467 0.0
C1344 C 0.69797 0.15152 0.99355 0.0
C1345 C 0.70846 0.14816 0.95976 0.0
C1346 C 0.7287 0.14302 0.02847 0.0
C1347 C 0.72905 0.14168 0.96161 0.0
C1348 C 0.7602 0.13388 0.06648 0.0
C1349 C 0.73987 0.14633 0.13085 0.0
N1350 N 0.73853 0.1394 0.99539 0.0
N1351 N 0.73045 0.14714 0.09694 0.0
H1352 H 0.89456 0.49837 0.18331 0.0
H1353 H 0.88401 0.51343 0.96143 0.0
H1354 H 0.89914 0.55699 0.12725 0.0
H1355 H 0.89139 0.4539 1.0131 0.0
H1356 H 0.88569 0.52944 0.02306 0.0
H1357 H 0.88948 0.48169 0.12238 0.0
C1358 C 0.89425 0.50776 0.15829 0.0
C1359 C 0.89732 0.52911 0.16042 0.0
C1360 C 0.88688 0.51287 1.02101 0.0
C1361 C 0.89162 0.51013 0.09068 0.0
C1362 C 0.88578 0.50368 0.98578 0.0
C1363 C 0.8875 0.48224 0.98198 0.0
C1364 C 0.88964 0.5006 0.05297 0.0
C1365 C 0.89017 0.47048 1.01463 0.0
C1366 C 0.89149 0.49822 0.12351 0.0
C1367 C 0.89696 0.54048 0.127 0.0
N1368 N 0.89112 0.4798 0.04874 0.0
N1369 N 0.89419 0.53086 0.09363 0.0
H1370 H 0.23674 0.1434 0.93654 0.0
H1371 H 0.22742 0.13069 0.71407 0.0
H1372 H 0.17935 0.14664 0.87626 0.0
H1373 H 0.28521 0.1395 0.77107 0.0
H1374 H 0.20963 0.13271 0.77417 0.0
H1375 H 0.25476 0.138 0.87715 0.0
C1376 C 0.2279 0.14275 0.91089 0.0
C1377 C 0.2065 0.14557 0.91137 0.0
C1378 C 0.22621 0.13416 0.77358 0.0
C1379 C 0.22705 0.1395 0.84331 0.0
C1380 C 0.23639 0.13288 0.73927 0.0
C1381 C 0.25786 0.13494 0.73747 0.0
C1382 C 0.23753 0.13738 0.80653 0.0
C1383 C 0.26864 0.13805 0.77107 0.0
C1384 C 0.23822 0.1398 0.87697 0.0
C1385 C 0.19587 0.14473 0.87721 0.0
N1386 N 0.25837 0.13915 0.80419 0.0
N1387 N 0.20624 0.1418 0.84462 0.0
H1388 H 0.59992 0.5358 0.51808 0.0
H1389 H 0.58514 0.42811 0.6242 0.0
H1390 H 0.59108 0.47769 0.46201 0.0
H1391 H 0.58837 0.48629 0.68193 0.0
H1392 H 0.58998 0.44596 0.56487 0.0
H1393 H 0.59829 0.51797 0.57841 0.0
C1394 C 0.59777 0.51929 0.5184 0.0
C1395 C 0.59555 0.50827 0.48479 0.0
C1396 C 0.5897 0.45487 0.59046 0.0
C1397 C 0.5936 0.48775 0.5539 0.0
C1398 C 0.58686 0.44467 0.62443 0.0
C1399 C 0.58604 0.45573 0.65813 0.0
C1400 C 0.59179 0.47638 0.58997 0.0
C1401 C 0.5889 0.47713 0.65666 0.0
C1402 C 0.59674 0.50913 0.55289 0.0
C1403 C 0.59256 0.4869 0.48709 0.0
N1404 N 0.59152 0.48678 0.62313 0.0
N1405 N 0.59167 0.47739 0.52093 0.0
H1406 H 0.24865 0.85008 0.43732 0.0
H1407 H 0.25971 0.85126 0.21402 0.0
H1408 H 0.30663 0.84882 0.37864 0.0
H1409 H 0.20119 0.85407 0.27061 0.0
H1410 H 0.27703 0.85253 0.2745 0.0
H1411 H 0.23095 0.85449 0.37729 0.0
C1412 C 0.2577 0.85112 0.41195 0.0
C1413 C 0.27917 0.84892 0.41308 0.0
C1414 C 0.2604 0.85295 0.27379 0.0
C1415 C 0.25897 0.85366 0.3442 0.0
C1416 C 0.25047 0.85207 0.23919 0.0
C1417 C 0.22892 0.85237 0.2371 0.0
C1418 C 0.24876 0.85405 0.30686 0.0
C1419 C 0.21782 0.8539 0.27077 0.0
C1420 C 0.24756 0.85348 0.37763 0.0
C1421 C 0.29005 0.85024 0.3792 0.0
N1422 N 0.22785 0.85454 0.30422 0.0
N1423 N 0.27984 0.85235 0.34625 0.0
H1424 H 0.60417 0.97684 0.90375 0.0
H1425 H 0.58729 0.99119 0.68311 0.0
H1426 H 0.59173 0.03583 0.8532 0.0
H1427 H 0.58695 0.93255 0.73962 0.0
H1428 H 0.59319 0.00822 0.74353 0.0
H1429 H 0.60221 0.96084 0.84218 0.0
C1430 C 0.60125 0.98649 0.87963 0.0
C1431 C 0.59815 0.00775 0.88374 0.0
C1432 C 0.59191 0.99162 0.7426 0.0
C1433 C 0.59564 0.98939 0.81287 0.0
C1434 C 0.58868 0.98189 0.70813 0.0
C1435 C 0.5865 0.96043 0.70638 0.0
C1436 C 0.59319 0.97975 0.77541 0.0
C1437 C 0.58828 0.94914 0.73969 0.0
C1438 C 0.59998 0.9773 0.84445 0.0
C1439 C 0.59404 0.01937 0.85141 0.0
N1440 N 0.5915 0.95892 0.77275 0.0
N1441 N 0.59291 0.01005 0.81734 0.0
H1442 H 0.30304 0.33755 0.99261 0.0
H1443 H 0.19756 0.34221 0.10736 0.0
H1444 H 0.2437 0.33698 0.93873 0.0
H1445 H 0.25731 0.35281 0.1561 0.0
H1446 H 0.21372 0.3399 0.04547 0.0
H1447 H 0.28622 0.34308 0.05267 0.0
C1448 C 0.28643 0.33865 0.99341 0.0
C1449 C 0.27476 0.33667 0.9606 0.0
C1450 C 0.22325 0.34288 0.06971 0.0
C1451 C 0.25527 0.34296 0.02961 0.0
C1452 C 0.21405 0.34408 0.10508 0.0
C1453 C 0.22607 0.34775 0.13707 0.0
C1454 C 0.24466 0.34515 0.06632 0.0
C1455 C 0.24736 0.35024 0.13229 0.0
C1456 C 0.27682 0.34188 0.02777 0.0
C1457 C 0.2533 0.3385 0.96332 0.0
N1458 N 0.25594 0.34878 0.09773 0.0
N1459 N 0.24421 0.34136 0.9973 0.0
H1460 H 0.90132 0.05379 0.24386 0.0
H1461 H 0.88068 0.94741 0.35082 0.0
H1462 H 0.89102 -0.00355 0.18601 0.0
H1463 H 0.89625 0.00442 0.40575 0.0
H1464 H 0.88173 0.96522 0.29039 0.0
H1465 H 0.89666 0.03617 0.30333 0.0
C1466 C 0.898 0.03748 0.24361 0.0
C1467 C 0.89677 0.02657 0.20978 0.0
C1468 C 0.88488 0.97382 0.31569 0.0
C1469 C 0.89137 0.00617 0.27823 0.0
C1470 C 0.8842 0.96369 0.35023 0.0
C1471 C 0.8885 0.97439 0.38349 0.0
C1472 C 0.88979 -0.00514 0.31436 0.0
C1473 C 0.89316 -0.00456 0.38088 0.0
C1474 C 0.89532 0.0274 0.27769 0.0
C1475 C 0.89211 0.00549 0.21136 0.0
N1476 N 0.89368 0.00493 0.34703 0.0
N1477 N 0.8897 -0.00406 0.24503 0.0
H1478 H 0.17916 0.64755 0.49608 0.0
H1479 H 0.28622 0.63655 0.60467 0.0
H1480 H 0.23755 0.64298 0.43935 0.0
H1481 H 0.22692 0.6326 0.65829 0.0
H1482 H 0.26897 0.63927 0.54392 0.0
H1483 H 0.19657 0.64206 0.55566 0.0
C1484 C 0.19566 0.64529 0.49611 0.0
C1485 C 0.20692 0.64582 0.46262 0.0
C1486 C 0.25974 0.6377 0.56897 0.0
C1487 C 0.22705 0.63962 0.53104 0.0
C1488 C 0.26958 0.63628 0.60369 0.0
C1489 C 0.25802 0.63433 0.6367 0.0
C1490 C 0.23816 0.63735 0.56721 0.0
C1491 C 0.23649 0.63382 0.63362 0.0
C1492 C 0.2056 0.64213 0.53021 0.0
C1493 C 0.22825 0.64263 0.46445 0.0
N1494 N 0.2273 0.63542 0.5996 0.0
N1495 N 0.23765 0.63983 0.49812 0.0
H1496 H 0.39185 -0.00523 0.68274 0.0
H1497 H 0.3824 0.00451 0.45965 0.0
H1498 H 0.39708 0.05204 0.62241 0.0
H1499 H 0.38781 0.94627 0.51673 0.0
H1500 H 0.3844 0.02213 0.51986 0.0
H1501 H 0.38688 0.97677 0.62311 0.0
C1502 C 0.39173 0.00359 0.65704 0.0
C1503 C 0.39494 0.02495 0.65761 0.0
C1504 C 0.38512 0.00549 0.51929 0.0
C1505 C 0.38935 0.00444 0.58928 0.0
C1506 C 0.38385 -0.0046 0.48488 0.0
C1507 C 0.38492 0.97384 0.48303 0.0
C1508 C 0.38737 -0.00598 0.55234 0.0
C1509 C 0.38713 0.96291 0.51673 0.0
C1510 C 0.38902 -0.00671 0.62298 0.0
C1511 C 0.39479 0.03555 0.62337 0.0
N1512 N 0.38825 0.9731 0.54997 0.0
N1513 N 0.39207 0.0252 0.59069 0.0
H1514 H 0.78521 0.63404 0.27382 0.0
H1515 H 0.67832 0.6571 0.37701 0.0
H1516 H 0.7277 0.64405 0.21646 0.0
H1517 H 0.73473 0.6451 0.43672 0.0
H1518 H 0.69624 0.65135 0.31818 0.0
H1519 H 0.76723 0.63738 0.33378 0.0
C1520 C 0.76882 0.63699 0.2738 0.0
C1521 C 0.75796 0.63875 0.23996 0.0
C1522 C 0.70474 0.64987 0.34409 0.0
C1523 C 0.73727 0.64247 0.30854 0.0
C1524 C 0.69449 0.65317 0.37782 0.0
C1525 C 0.70504 0.6517 0.41198 0.0
C1526 C 0.72579 0.6451 0.34427 0.0
C1527 C 0.72596 0.64637 0.4111 0.0
C1528 C 0.75855 0.63878 0.30806 0.0
C1529 C 0.73669 0.6423 0.24174 0.0
N1530 N 0.73569 0.64338 0.37777 0.0
N1531 N 0.72709 0.6441 0.27536 0.0
H1532 H 0.09216 0.98684 0.18398 0.0
H1533 H 0.09979 0.97514 0.96102 0.0
H1534 H 0.08643 0.92907 0.12538 0.0
H1535 H 0.09481 0.03389 1.01645 0.0
H1536 H 0.09823 0.95807 1.02176 0.0
H1537 H 0.09667 0.00433 0.12373 0.0
C1538 C 0.0921 0.9778 0.15853 0.0
C1539 C 0.08887 0.95646 0.15977 0.0
C1540 C 0.09751 0.9747 1.02072 0.0
C1541 C 0.09389 0.97639 0.09075 0.0
C1542 C 0.09852 0.98448 0.986 0.0
C1543 C 0.09747 0.00602 0.98354 0.0
C1544 C 0.09553 0.98648 0.05348 0.0
C1545 C 0.09548 0.01726 1.01695 0.0
C1546 C 0.09453 0.98782 0.12413 0.0
C1547 C 0.08876 0.94556 0.12583 0.0
N1548 N 0.09462 0.00737 0.05051 0.0
N1549 N 0.0912 0.95564 0.09281 0.0
H1550 H 0.69678 0.34333 0.76413 0.0
H1551 H 0.80355 0.3319 0.87371 0.0
H1552 H 0.75631 0.34549 0.71105 0.0
H1553 H 0.74528 0.33781 0.93037 0.0
H1554 H 0.78617 0.33659 0.81397 0.0
H1555 H 0.7138 0.34067 0.82518 0.0
C1556 C 0.71341 0.3432 0.76528 0.0
C1557 C 0.72511 0.34468 0.73234 0.0
C1558 C 0.77714 0.33698 0.83941 0.0
C1559 C 0.7447 0.34173 0.80214 0.0
C1560 C 0.78707 0.33426 0.87362 0.0
C1561 C 0.77586 0.33437 0.90717 0.0
C1562 C 0.75572 0.33971 0.83847 0.0
C1563 C 0.75455 0.33769 0.90522 0.0
C1564 C 0.72312 0.34182 0.80016 0.0
C1565 C 0.74663 0.34466 0.73563 0.0
N1566 N 0.74514 0.34009 0.87142 0.0
N1567 N 0.75568 0.34314 0.76979 0.0
H1568 H 0.10665 0.31376 0.28776 0.0
H1569 H 0.12156 0.42164 0.18372 0.0
H1570 H 0.13554 0.36629 0.33881 0.0
H1571 H 0.09312 0.36886 0.13219 0.0
H1572 H 0.12521 0.40224 0.24176 0.0
H1573 H 0.09842 0.3347 0.23284 0.0
C1574 C 0.11056 0.32997 0.28784 0.0
C1575 C 0.1213 0.33855 0.318 0.0
C1576 C 0.11825 0.39482 0.21779 0.0
C1577 C 0.11295 0.36232 0.2547 0.0
C1578 C 0.11636 0.40582 0.18446 0.0
C1579 C 0.10698 0.3968 0.15313 0.0
C1580 C 0.11093 0.37454 0.21975 0.0
C1581 C 0.10042 0.37634 0.15578 0.0
C1582 C 0.10616 0.34183 0.25631 0.0
C1583 C 0.12676 0.35934 0.3164 0.0
N1584 N 0.10246 0.36589 0.18857 0.0
N1585 N 0.12269 0.37051 0.28505 0.0
H1586 H 0.92781 0.8578 0.53072 0.0
H1587 H 0.82128 0.87704 0.42483 0.0
H1588 H 0.874 0.88371 0.58313 0.0
H1589 H 0.87069 0.84175 0.37627 0.0
H1590 H 0.84166 0.88168 0.48131 0.0
H1591 H 0.90792 0.85233 0.47341 0.0
C1592 C 0.91169 0.86198 0.53037 0.0
C1593 C 0.90251 0.87134 0.56155 0.0
C1594 C 0.84815 0.873 0.45831 0.0
C1595 C 0.87982 0.86549 0.49598 0.0
C1596 C 0.8366 0.87054 0.42581 0.0
C1597 C 0.84429 0.85883 0.39593 0.0
C1598 C 0.86766 0.86388 0.46094 0.0
C1599 C 0.86421 0.85078 0.39883 0.0
C1600 C 0.9004 0.85902 0.49754 0.0
C1601 C 0.88164 0.87653 0.55958 0.0
N1602 N 0.87521 0.85335 0.43092 0.0
N1603 N 0.87104 0.87372 0.52722 0.0
H1604 H 0.37396 0.6756 0.77771 0.0
H1605 H 0.35963 0.56731 0.67496 0.0
H1606 H 0.34926 0.62159 0.83139 0.0
H1607 H 0.39177 0.61832 0.62465 0.0
H1608 H 0.35443 0.58768 0.73133 0.0
H1609 H 0.38053 0.6553 0.72135 0.0
C1610 C 0.3702 0.65936 0.7778 0.0
C1611 C 0.36089 0.65024 0.80909 0.0
C1612 C 0.36255 0.59452 0.70799 0.0
C1613 C 0.36809 0.62702 0.74454 0.0
C1614 C 0.36535 0.58296 0.67557 0.0
C1615 C 0.37624 0.59115 0.64513 0.0
C1616 C 0.37049 0.61456 0.70997 0.0
C1617 C 0.38335 0.61145 0.6476 0.0
C1618 C 0.37382 0.64783 0.74552 0.0
C1619 C 0.35632 0.6292 0.80771 0.0
N1620 N 0.38042 0.62247 0.67957 0.0
N1621 N 0.35979 0.61833 0.77582 0.0
H1622 H 0.61744 0.13991 0.87332 0.0
H1623 H 0.6141 0.10826 0.09047 0.0
H1624 H 0.66939 0.11509 0.93314 0.0
H1625 H 0.56003 0.11768 0.02303 0.0
H1626 H 0.63556 0.117 0.03592 0.0
H1627 H 0.59664 0.13657 0.93032 0.0
C1628 C 0.62435 0.13354 0.89835 0.0
C1629 C 0.64506 0.1277 0.89856 0.0
C1630 C 0.61898 0.11753 0.03333 0.0
C1631 C 0.62168 0.12429 0.96392 0.0
C1632 C 0.60681 0.11288 0.06456 0.0
C1633 C 0.58539 0.11254 0.06112 0.0
C1634 C 0.60952 0.12183 0.99874 0.0
C1635 C 0.57656 0.11801 0.02673 0.0
C1636 C 0.61258 0.13179 0.93091 0.0
C1637 C 0.65341 0.11966 0.93173 0.0
N1638 N 0.58865 0.12232 0.99683 0.0
N1639 N 0.64173 0.11833 0.96316 0.0
H1640 H 0.06028 0.6269 0.53142 0.0
H1641 H 0.16841 0.60955 0.42956 0.0
H1642 H 0.11424 0.60301 0.58639 0.0
H1643 H 0.11694 0.63916 0.37583 0.0
H1644 H 0.14798 0.60558 0.48618 0.0
H1645 H 0.08041 0.63171 0.4742 0.0
C1646 C 0.07648 0.62308 0.53164 0.0
C1647 C 0.08565 0.61447 0.56353 0.0
C1648 C 0.14104 0.61283 0.462 0.0
C1649 C 0.10862 0.61952 0.49809 0.0
C1650 C 0.15264 0.61489 0.42945 0.0
C1651 C 0.14436 0.62486 0.39806 0.0
C1652 C 0.12092 0.62062 0.46316 0.0
C1653 C 0.12387 0.63148 0.39956 0.0
C1654 C 0.08791 0.62563 0.49888 0.0
C1655 C 0.10663 0.60965 0.5623 0.0
N1656 N 0.11286 0.62937 0.43173 0.0
N1657 N 0.11737 0.61208 0.52999 0.0
H1658 H 0.59254 0.86945 0.62766 0.0
H1659 H 0.63188 0.87188 0.8407 0.0
H1660 H 0.62087 0.9223 0.67918 0.0
H1661 H 0.61538 0.81627 0.78253 0.0
H1662 H 0.62271 0.89181 0.78458 0.0
H1663 H 0.59707 0.85033 0.68635 0.0
C1664 C 0.59991 0.87691 0.6512 0.0
C1665 C 0.60633 0.89741 0.64862 0.0
C1666 C 0.62073 0.87527 0.78436 0.0
C1667 C 0.61122 0.87593 0.71588 0.0
C1668 C 0.62564 0.864 0.81653 0.0
C1669 C 0.62401 0.84255 0.81619 0.0
C1670 C 0.61426 0.8649 0.75182 0.0
C1671 C 0.61653 0.83288 0.78388 0.0
C1672 C 0.60236 0.86609 0.68474 0.0
C1673 C 0.61576 0.90646 0.67992 0.0
N1674 N 0.61203 0.84409 0.75292 0.0
N1675 N 0.61778 0.89572 0.71232 0.0
H1676 H 0.41737 0.35545 0.04021 0.0
H1677 H 0.31183 0.37288 0.9298 0.0
H1678 H 0.36597 0.38906 0.0851 0.0
H1679 H 0.36418 0.34178 0.88204 0.0
H1680 H 0.33071 0.37717 0.98812 0.0
H1681 H 0.39692 0.347 0.98473 0.0
C1682 C 0.40146 0.36036 0.03888 0.0
C1683 C 0.39306 0.37248 0.06747 0.0
C1684 C 0.33816 0.36949 0.96491 0.0
C1685 C 0.36995 0.36385 1.0035 0.0
C1686 C 0.32746 0.36721 0.9314 0.0
C1687 C 0.33646 0.35685 0.90107 0.0
C1688 C 0.35814 0.36154 0.96815 0.0
C1689 C 0.35669 0.34977 0.90486 0.0
C1690 C 0.38991 0.35584 1.00701 0.0
C1691 C 0.37273 0.37921 0.06399 0.0
N1692 N 0.36685 0.35216 0.93789 0.0
N1693 N 0.36189 0.37494 0.03239 0.0
H1694 H 0.87674 0.17489 0.27775 0.0
H1695 H 0.8603 0.06639 0.17629 0.0
H1696 H 0.85072 0.1216 0.33173 0.0
H1697 H 0.89218 0.11707 0.1244 0.0
H1698 H 0.85538 0.08714 0.23232 0.0
H1699 H 0.88255 0.15437 0.2213 0.0
C1700 C 0.87256 0.15876 0.2779 0.0
C1701 C 0.86311 0.1499 0.30931 0.0
C1702 C 0.86336 0.09383 0.20869 0.0
C1703 C 0.86941 0.12645 0.24469 0.0
C1704 C 0.86599 0.08205 0.17647 0.0
C1705 C 0.87677 0.09003 0.14571 0.0
C1706 C 0.87139 0.11385 0.21017 0.0
C1707 C 0.88386 0.11036 0.14761 0.0
C1708 C 0.87572 0.1471 0.24557 0.0
C1709 C 0.85795 0.129 0.30799 0.0
N1710 N 0.88114 0.12158 0.17942 0.0
N1711 N 0.861 0.11802 0.27609 0.0
H1712 H 0.89282 0.61908 0.24532 0.0
H1713 H 0.84703 0.62062 0.03662 0.0
H1714 H 0.8603 0.5684 0.19474 0.0
H1715 H 0.87589 0.67315 0.0882 0.0
H1716 H 0.85348 0.60068 0.0936 0.0
H1717 H 0.88717 0.63931 0.18813 0.0
C1718 C 0.88426 0.61235 0.22238 0.0
C1719 C 0.87713 0.59205 0.22464 0.0
C1720 C 0.85854 0.61653 0.0924 0.0
C1721 C 0.87087 0.61482 0.15914 0.0
C1722 C 0.855 0.62782 0.05977 0.0
C1723 C 0.86086 0.64853 0.05783 0.0
C1724 C 0.86799 0.62604 0.1233 0.0
C1725 C 0.87114 0.6572 0.08856 0.0
C1726 C 0.88116 0.6238 0.18969 0.0
C1727 C 0.8661 0.58401 0.19421 0.0
N1728 N 0.87422 0.64597 0.12016 0.0
N1729 N 0.86348 0.59533 0.16266 0.0
H1730 H 0.11247 0.09796 0.78556 0.0
H1731 H 0.1147 0.14113 0.99582 0.0
H1732 H 0.05948 0.12425 0.84003 0.0
H1733 H 0.16525 0.1094 0.94323 0.0
H1734 H 0.09413 0.1358 0.93899 0.0
H1735 H 0.13264 0.10409 0.84228 0.0
C1736 C 0.10519 0.10528 0.80935 0.0
C1737 C 0.08432 0.1105 0.8083 0.0
C1738 C 0.10967 0.12987 0.94003 0.0
C1739 C 0.10709 0.1173 0.87342 0.0
C1740 C 0.12132 0.13278 0.97251 0.0
C1741 C 0.14166 0.12575 0.97409 0.0
C1742 C 0.11853 0.11993 0.90902 0.0
C1743 C 0.1496 0.11506 0.94321 0.0
C1744 C 0.11663 0.10865 0.84181 0.0
C1745 C 0.07557 0.12 0.83976 0.0
N1746 N 0.13809 0.11264 0.91185 0.0
N1747 N 0.08696 0.12295 0.87119 0.0
H1748 H 0.63484 0.36114 0.53426 0.0
H1749 H 0.58975 0.36448 0.74318 0.0
H1750 H 0.60891 0.30812 0.58925 0.0
H1751 H 0.62234 0.41461 0.69098 0.0
H1752 H 0.59564 0.34356 0.6869 0.0
H1753 H 0.62821 0.38156 0.59053 0.0
C1754 C 0.62751 0.3539 0.55808 0.0
C1755 C 0.62253 0.33295 0.55728 0.0
C1756 C 0.60163 0.35909 0.68792 0.0
C1757 C 0.6151 0.35604 0.62189 0.0
C1758 C 0.59838 0.37094 0.72007 0.0
C1759 C 0.60552 0.39126 0.72163 0.0
C1760 C 0.61202 0.36772 0.65717 0.0
C1761 C 0.61659 0.39898 0.691 0.0
C1762 C 0.62386 0.36548 0.59028 0.0
C1763 C 0.613 0.32426 0.58877 0.0
N1764 N 0.61934 0.38727 0.65995 0.0
N1765 N 0.60972 0.33581 0.61993 0.0
H1766 H 0.32384 0.88303 0.45303 0.0
H1767 H 0.37099 0.88028 0.28091 0.0
H1768 H 0.36845 0.83784 0.4878 0.0
H1769 H 0.4251 0.86001 0.34003 0.0
H1770 H 0.35081 0.87541 0.33793 0.0
H1771 H 0.34301 0.8882 0.39537 0.0
C1772 C 0.3378 0.87428 0.44862 0.0
C1773 C 0.34435 0.85961 0.47481 0.0
C1774 C 0.36713 0.87223 0.33866 0.0
C1775 C 0.36596 0.86482 0.40795 0.0
C1776 C 0.37853 0.87464 0.30591 0.0
C1777 C 0.39969 0.87073 0.30599 0.0
C1778 C 0.37705 0.86611 0.37183 0.0
C1779 C 0.40878 0.86326 0.33892 0.0
C1780 C 0.34852 0.87692 0.41524 0.0
C1781 C 0.36271 0.84899 0.46788 0.0
N1782 N 0.39742 0.86133 0.37068 0.0
N1783 N 0.37284 0.85168 0.4349 0.0
H1784 H 0.86912 0.3776 0.77601 0.0
H1785 H 0.86694 0.34343 0.99193 0.0
H1786 H 0.92354 0.36899 0.8429 0.0
H1787 H 0.81443 0.36801 0.93339 0.0
H1788 H 0.88752 0.34769 0.93485 0.0
H1789 H 0.84801 0.36761 0.8303 0.0
C1790 C 0.87658 0.37294 0.80175 0.0
C1791 C 0.89798 0.37387 0.80514 0.0
C1792 C 0.8715 0.3522 0.93457 0.0
C1793 C 0.87423 0.36312 0.86719 0.0
C1794 C 0.85985 0.34992 0.96717 0.0
C1795 C 0.83906 0.35546 0.96734 0.0
C1796 C 0.8622 0.35994 0.90193 0.0
C1797 C 0.83048 0.36367 0.93451 0.0
C1798 C 0.8646 0.36756 0.83282 0.0
C1799 C 0.90702 0.36827 0.83927 0.0
N1800 N 0.84205 0.36554 0.90305 0.0
N1801 N 0.89511 0.36324 0.86904 0.0
H1802 H 0.37516 0.17303 0.58646 0.0
H1803 H 0.35857 0.06477 0.68862 0.0
H1804 H 0.34755 0.12019 0.53359 0.0
H1805 H 0.3873 0.11684 0.74203 0.0
H1806 H 0.35405 0.08513 0.63199 0.0
H1807 H 0.38092 0.15255 0.64289 0.0
C1808 C 0.37067 0.15698 0.5865 0.0
C1809 C 0.36073 0.14827 0.55548 0.0
C1810 C 0.36121 0.09221 0.65611 0.0
C1811 C 0.36691 0.12489 0.62014 0.0
C1812 C 0.3636 0.08065 0.68864 0.0
C1813 C 0.37343 0.08915 0.71996 0.0
C1814 C 0.36856 0.1125 0.6549 0.0
C1815 C 0.3797 0.10975 0.71837 0.0
C1816 C 0.37377 0.14537 0.61887 0.0
C1817 C 0.35518 0.12747 0.55704 0.0
N1818 N 0.37728 0.12072 0.68623 0.0
N1819 N 0.35818 0.11652 0.58898 0.0
H1820 H 0.61294 0.59864 0.28663 0.0
H1821 H 0.61423 0.64729 0.49318 0.0
H1822 H 0.56039 0.62843 0.33634 0.0
H1823 H 0.66499 0.61428 0.44399 0.0
H1824 H 0.59416 0.64115 0.43597 0.0
H1825 H 0.63277 0.60592 0.34331 0.0
C1826 C 0.60569 0.60696 0.30934 0.0
C1827 C 0.58502 0.61284 0.30696 0.0
C1828 C 0.60965 0.63516 0.43783 0.0
C1829 C 0.60743 0.62102 0.37209 0.0
C1830 C 0.62102 0.63856 0.47051 0.0
C1831 C 0.64128 0.63137 0.47321 0.0
C1832 C 0.61866 0.62448 0.40775 0.0
C1833 C 0.64941 0.6201 0.44314 0.0
C1834 C 0.61694 0.611 0.34179 0.0
C1835 C 0.57632 0.62361 0.33709 0.0
N1836 N 0.63814 0.61715 0.41163 0.0
N1837 N 0.58752 0.62723 0.36855 0.0
H1838 H 0.11051 0.80786 0.0916 0.0
H1839 H 0.12733 0.9158 0.19471 0.0
H1840 H 0.1376 0.86109 0.03917 0.0
H1841 H 0.09399 0.86554 0.24493 0.0
H1842 H 0.13293 0.89497 0.13905 0.0
H1843 H 0.10461 0.82816 0.1483 0.0
C1844 C 0.11489 0.82393 0.09183 0.0
C1845 C 0.12464 0.83284 0.06079 0.0
C1846 C 0.12447 0.88839 0.16223 0.0
C1847 C 0.11828 0.85601 0.12569 0.0
C1848 C 0.12144 0.90022 0.19426 0.0
C1849 C 0.11002 0.8924 0.22437 0.0
C1850 C 0.11614 0.8685 0.16027 0.0
C1851 C 0.10277 0.87214 0.22217 0.0
C1852 C 0.11169 0.83545 0.12431 0.0
C1853 C 0.1301 0.85366 0.0626 0.0
N1854 N 0.10583 0.86089 0.1905 0.0
N1855 N 0.12699 0.8645 0.09462 0.0
H1856 H 0.93685 0.5044 0.2256 0.0
H1857 H 0.04734 0.48413 0.13597 0.0
H1858 H 0.99167 0.53785 0.25626 0.0
H1859 H -0.0067 0.4487 0.10834 0.0
H1860 H 0.02637 0.50603 0.17601 0.0
H1861 H 0.95724 0.48352 0.1828 0.0
C1862 C 0.95328 0.50699 0.22407 0.0
C1863 C 0.96255 0.5231 0.24397 0.0
C1864 C 0.01904 0.49362 0.16082 0.0
C1865 C 0.98581 0.49971 0.19441 0.0
C1866 C 0.03094 0.48132 0.13748 0.0
C1867 C 0.0221 0.46428 0.11962 0.0
C1868 C -0.00181 0.48885 0.16607 0.0
C1869 C 0.00077 0.46148 0.1222 0.0
C1870 C 0.96485 0.49528 0.19918 0.0
C1871 C 0.98389 0.52572 0.24107 0.0
N1872 N 0.98957 0.47342 0.14568 0.0
N1873 N -0.00523 0.51433 0.21623 0.0
H1874 H 0.75481 0.80179 0.39885 0.0
H1875 H 0.72982 0.69113 0.48425 0.0
H1876 H 0.78584 0.74587 0.36621 0.0
H1877 H 0.69518 0.74585 0.51104 0.0
H1878 H 0.75249 0.71175 0.44505 0.0
H1879 H 0.73262 0.78174 0.44004 0.0
C1880 C 0.7566 0.78522 0.39961 0.0
C1881 C 0.77238 0.77548 0.37957 0.0
C1882 C 0.74007 0.7193 0.45982 0.0
C1883 C 0.7475 0.7526 0.42731 0.0
C1884 C 0.72731 0.70758 0.48267 0.0
C1885 C 0.71036 0.71675 0.50024 0.0
C1886 C 0.73585 0.74029 0.45474 0.0
C1887 C 0.70792 0.73814 0.4975 0.0
C1888 C 0.74413 0.77383 0.42355 0.0
C1889 C 0.77399 0.754 0.38152 0.0
N1890 N 0.72035 0.74917 0.47458 0.0
N1891 N 0.76189 0.74329 0.40546 0.0
H1892 H 0.49119 0.4465 0.75912 0.0
H1893 H 0.49005 0.53554 0.60534 0.0
H1894 H 0.54538 0.47924 0.72281 0.0
H1895 H 0.43567 0.50354 0.64286 0.0
H1896 H 0.51086 0.5137 0.64591 0.0
H1897 H 0.4703 0.46833 0.71866 0.0
C1898 C 0.49861 0.45864 0.74336 0.0
C1899 C 0.52005 0.46083 0.7437 0.0
C1900 C 0.4944 0.51132 0.64498 0.0
C1901 C 0.49642 0.48537 0.69667 0.0
C1902 C 0.48256 0.52356 0.6214 0.0
C1903 C 0.4611 0.52158 0.62134 0.0
C1904 C 0.48465 0.49703 0.66849 0.0
C1905 C 0.45217 0.50573 0.64243 0.0
C1906 C 0.48673 0.47089 0.71985 0.0
C1907 C 0.5289 0.47688 0.72301 0.0
N1908 N 0.46398 0.49425 0.66567 0.0
N1909 N 0.51706 0.48835 0.6998 0.0
H1910 H 0.73358 0.1858 0.8871 0.0
H1911 H 0.7514 0.29589 0.98002 0.0
H1912 H 0.69937 0.24029 0.85709 0.0
H1913 H 0.78684 0.24188 1.00815 0.0
H1914 H 0.73071 0.27516 0.93756 0.0
H1915 H 0.75438 0.20641 0.92962 0.0
C1916 C 0.73084 0.20223 0.88864 0.0
C1917 C 0.71441 0.2113 0.86931 0.0
C1918 C 0.74286 0.26778 0.95334 0.0
C1919 C 0.73769 0.23477 0.91854 0.0
C1920 C 0.75444 0.27953 0.97807 0.0
C1921 C 0.77116 0.27065 0.99686 0.0
C1922 C 0.74799 0.24704 0.94768 0.0
C1923 C 0.77429 0.24939 0.99365 0.0
C1924 C 0.74249 0.21391 0.91339 0.0
C1925 C 0.71167 0.23264 0.87202 0.0
N1926 N 0.76304 0.23833 0.96888 0.0
N1927 N 0.72296 0.24362 0.89683 0.0
H1928 H 0.96843 0.48444 0.77823 0.0
H1929 H 0.04629 0.49446 0.61113 0.0
H1930 H 0.9688 0.4394 0.68946 0.0
H1931 H 0.01549 0.54736 0.65741 0.0
H1932 H 0.02304 0.47203 0.64642 0.0
H1933 H -0.0082 0.50591 0.74157 0.0
C1934 C 0.97364 0.47898 0.7512 0.0
C1935 C 0.96674 0.46024 0.73657 0.0
C1936 C 0.02135 0.48857 0.64854 0.0
C1937 C -0.00673 0.48449 0.69506 0.0
C1938 C 0.03453 0.50131 0.62859 0.0
C1939 C 0.03258 0.52271 0.63152 0.0
C1940 C 0.00665 0.49741 0.67217 0.0
C1941 C 0.01724 0.53095 0.65437 0.0
C1942 C 0.98677 0.49127 0.7303 0.0
C1943 C 0.97384 0.45381 0.70149 0.0
N1944 N 0.00491 0.51824 0.67434 0.0
N1945 N 0.98688 0.46595 0.68179 0.0
H1946 H 0.79721 0.72391 0.97094 0.0
H1947 H 0.68682 0.77102 0.93529 0.0
H1948 H 0.74263 0.69596 1.01675 0.0
H1949 H 0.73409 0.77157 0.85054 0.0
H1950 H 0.70835 0.74828 0.97347 0.0
H1951 H 0.77547 0.74745 0.93464 0.0
C1952 C 0.78069 0.723 0.97372 0.0
C1953 C 0.77159 0.70813 0.99657 0.0
C1954 C 0.71388 0.75334 0.9464 0.0
C1955 C 0.74689 0.73467 0.95586 0.0
C1956 C 0.70164 0.76619 0.92469 0.0
C1957 C 0.70875 0.77299 0.88986 0.0
C1958 C 0.73343 0.74776 0.93334 0.0
C1959 C 0.72808 0.7665 0.87724 0.0
C1960 C 0.76834 0.73622 0.9529 0.0
C1961 C 0.75013 0.70727 0.99919 0.0
N1962 N 0.73991 0.75435 0.89923 0.0
N1963 N 0.73842 0.72046 0.97908 0.0
H1964 H 0.46613 0.43688 0.17934 0.0
H1965 H 0.5137 0.54756 0.2075 0.0
H1966 H 0.46479 0.48258 0.09175 0.0
H1967 H 0.54219 0.49367 0.25501 0.0
H1968 H 0.49019 0.52523 0.17232 0.0
H1969 H 0.48966 0.45884 0.21498 0.0
C1970 C 0.47096 0.45144 0.16755 0.0
C1971 C 0.46369 0.45799 0.13269 0.0
C1972 C 0.50157 0.51839 0.19063 0.0
C1973 C 0.48983 0.48316 0.17331 0.0
C1974 C 0.51475 0.53107 0.21083 0.0
C1975 C 0.52969 0.52233 0.234 0.0
C1976 C 0.50321 0.49698 0.19452 0.0
C1977 C 0.53081 0.50089 0.23722 0.0
C1978 C 0.48427 0.46392 0.18783 0.0
C1979 C 0.47019 0.47701 0.11855 0.0
N1980 N 0.51761 0.48886 0.21779 0.0
N1981 N 0.48278 0.48911 0.13918 0.0
H1982 H 0.79559 0.22976 0.37921 0.0
H1983 H 0.68988 0.25302 0.48561 0.0
H1984 H 0.74871 0.18411 0.3993 0.0
H1985 H 0.73599 0.29901 0.46245 0.0
H1986 H 0.7112 0.22739 0.4539 0.0
H1987 H 0.77407 0.25543 0.41031 0.0
C1988 C 0.78078 0.22519 0.39026 0.0
C1989 C 0.7738 0.20493 0.38675 0.0
C1990 C 0.71664 0.2431 0.45573 0.0
C1991 C 0.74918 0.23398 0.42201 0.0
C1992 C 0.70447 0.25768 0.47371 0.0
C1993 C 0.71131 0.27802 0.47659 0.0
C1994 C 0.73571 0.24901 0.4407 0.0
C1995 C 0.73028 0.28339 0.46089 0.0
C1996 C 0.76849 0.23979 0.40789 0.0
C1997 C 0.75454 0.19966 0.40138 0.0
N1998 N 0.74188 0.26893 0.44364 0.0
N1999 N 0.74285 0.21414 0.4184 0.0
H2000 H 0.24961 0.29685 0.88938 0.0
H2001 H 0.22972 0.1858 0.97727 0.0
H2002 H 0.2843 0.24267 0.85932 0.0
H2003 H 0.19568 0.24023 1.00826 0.0
H2004 H 0.25088 0.20664 0.93571 0.0
H2005 H 0.2283 0.27585 0.93043 0.0
C2006 C 0.25238 0.28042 0.89062 0.0
C2007 C 0.26901 0.27152 0.87161 0.0
C2008 C 0.23893 0.21407 0.95192 0.0
C2009 C 0.24513 0.24759 0.9192 0.0
C2010 C 0.22707 0.20224 0.97611 0.0
C2011 C 0.21066 0.21127 0.99559 0.0
C2012 C 0.23438 0.23504 0.94744 0.0
C2013 C 0.208 0.23263 0.99328 0.0
C2014 C 0.24042 0.2685 0.91453 0.0
C2015 C 0.27181 0.25018 0.87397 0.0
N2016 N 0.21953 0.24377 0.96906 0.0
N2017 N 0.26019 0.23895 0.89794 0.0
H2018 H 0.22578 0.69044 0.41221 0.0
H2019 H 0.24468 0.80925 0.45356 0.0
H2020 H 0.19637 0.74013 0.35252 0.0
H2021 H 0.27585 0.76072 0.51269 0.0
H2022 H 0.22257 0.7838 0.42383 0.0
H2023 H 0.24296 0.71562 0.4521 0.0
C2024 C 0.22337 0.70667 0.40684 0.0
C2025 C 0.20954 0.71327 0.37919 0.0
C2026 C 0.23383 0.77867 0.4441 0.0
C2027 C 0.22853 0.742 0.42544 0.0
C2028 C 0.24607 0.79325 0.46175 0.0
C2029 C 0.2619 0.78692 0.48553 0.0
C2030 C 0.23783 0.75769 0.44997 0.0
C2031 C 0.26356 0.76607 0.49471 0.0
C2032 C 0.23286 0.721 0.43009 0.0
C2033 C 0.20687 0.73443 0.37362 0.0
N2034 N 0.25199 0.75203 0.4761 0.0
N2035 N 0.21612 0.74806 0.39683 0.0
H2036 H 0.24126 0.19203 0.51518 0.0
H2037 H 0.23187 0.26747 0.34375 0.0
H2038 H 0.29457 0.22107 0.46678 0.0
H2039 H 0.18609 0.26662 0.4312 0.0
H2040 H 0.25364 0.24497 0.38178 0.0
H2041 H 0.21918 0.21477 0.47835 0.0
C2042 C 0.24828 0.20336 0.49699 0.0
C2043 C 0.26968 0.20491 0.49391 0.0
C2044 C 0.23879 0.24971 0.39245 0.0
C2045 C 0.24473 0.23031 0.45141 0.0
C2046 C 0.22632 0.26233 0.37075 0.0
C2047 C 0.20725 0.26882 0.3846 0.0
C2048 C 0.23185 0.24334 0.42769 0.0
C2049 C 0.20073 0.26187 0.4197 0.0
C2050 C 0.23573 0.21625 0.4761 0.0
C2051 C 0.27813 0.21967 0.47001 0.0
N2052 N 0.21303 0.24937 0.44015 0.0
N2053 N 0.26557 0.23174 0.44914 0.0
H2054 H 0.24741 0.68214 0.90526 0.0
H2055 H 0.23878 0.79883 0.97286 0.0
H2056 H 0.29233 0.72878 0.87883 0.0
H2057 H 0.19221 0.75301 0.99395 0.0
H2058 H 0.25898 0.7732 0.93926 0.0
H2059 H 0.22724 0.70776 0.93893 0.0
C2060 C 0.25299 0.69783 0.90657 0.0
C2061 C 0.27148 0.70348 0.88935 0.0
C2062 C 0.24434 0.76873 0.95119 0.0
C2063 C 0.24861 0.73276 0.92774 0.0
C2064 C 0.23285 0.78332 0.97039 0.0
C2065 C 0.21389 0.7779 0.98608 0.0
C2066 C 0.23678 0.74861 0.94779 0.0
C2067 C 0.20677 0.75772 0.98206 0.0
C2068 C 0.2415 0.71242 0.92578 0.0
C2069 C 0.27814 0.72388 0.89192 0.0
N2070 N 0.21827 0.74373 0.96326 0.0
N2071 N 0.26667 0.73785 0.91082 0.0
H2072 H 0.43553 0.00293 0.72374 0.0
H2073 H 0.54668 0.98462 0.63548 0.0
H2074 H 0.48919 0.03845 0.75348 0.0
H2075 H 0.49269 0.95006 0.60409 0.0
H2076 H 0.52548 0.00585 0.67634 0.0
H2077 H 0.45665 0.9823 0.68176 0.0
C2078 C 0.45188 0.00603 0.72221 0.0
C2079 C 0.46058 0.02268 0.74148 0.0
C2080 C 0.51822 -0.00621 0.66015 0.0
C2081 C 0.48465 -0.00043 0.69284 0.0
C2082 C 0.53025 0.98188 0.63636 0.0
C2083 C 0.52146 0.96526 0.61712 0.0
C2084 C 0.4973 0.98904 0.66448 0.0
C2085 C 0.50011 0.96252 0.61898 0.0
C2086 C 0.46386 -0.00553 0.69777 0.0
C2087 C 0.48183 0.02592 0.73868 0.0
N2088 N 0.48878 0.97406 0.64289 0.0
N2089 N 0.49312 0.01466 0.71425 0.0
H2090 H 0.04878 0.97997 0.22472 0.0
H2091 H 0.93667 0.00186 0.14304 0.0
H2092 H -0.00538 0.94601 0.25734 0.0
H2093 H 0.99103 0.03514 0.10928 0.0
H2094 H 0.95791 0.98012 0.18297 0.0
H2095 H 0.02754 0.00143 0.18432 0.0
C2096 C 0.03233 0.97737 0.22413 0.0
C2097 C 0.02346 0.96097 0.24386 0.0
C2098 C 0.96523 0.99202 0.1665 0.0
C2099 C -0.00079 0.98505 0.19703 0.0
C2100 C 0.95316 0.00424 0.14326 0.0
C2101 C 0.9621 0.02055 0.12342 0.0
C2102 C 0.98634 -0.00383 0.16971 0.0
C2103 C 0.98351 0.02288 0.12455 0.0
C2104 C 0.02025 0.98942 0.20062 0.0
C2105 C 0.00208 0.95835 0.24221 0.0
N2106 N -0.0051 0.01102 0.14786 0.0
N2107 N 0.9907 0.97009 0.21868 0.0
H2108 H 0.44093 0.98985 0.259 0.0
H2109 H 0.5166 0.00134 0.08882 0.0
H2110 H 0.4692 0.93709 0.20712 0.0
H2111 H 0.51671 0.04557 0.17894 0.0
H2112 H 0.49402 0.97919 0.12578 0.0
H2113 H 0.46434 0.01232 0.22429 0.0
C2114 C 0.45223 0.98304 0.24048 0.0
C2115 C 0.45342 0.96169 0.23584 0.0
C2116 C 0.499 -0.00623 0.13732 0.0
C2117 C 0.47956 0.98706 0.19582 0.0
C2118 C 0.51168 0.00645 0.11624 0.0
C2119 C 0.51842 0.02521 0.13108 0.0
C2120 C 0.49282 0.00017 0.17299 0.0
C2121 C 0.51173 0.03118 0.16668 0.0
C2122 C 0.46551 -0.00419 0.22086 0.0
C2123 C 0.46814 0.95348 0.21163 0.0
N2124 N 0.49913 0.01868 0.18654 0.0
N2125 N 0.48057 0.96625 0.19199 0.0
H2126 H 0.98155 0.93982 0.62591 0.0
H2127 H 0.004 0.04376 0.73851 0.0
H2128 H 0.93574 0.98646 0.64679 0.0
H2129 H 0.04982 -0.00253 0.71531 0.0
H2130 H 0.97868 0.02326 0.70424 0.0
H2131 H 0.00695 0.96094 0.65845 0.0
C2132 C 0.97689 0.95451 0.63745 0.0
C2133 C 0.95664 0.96148 0.63389 0.0
C2134 C -0.00571 0.01761 0.70662 0.0
C2135 C 0.98541 0.98568 0.67078 0.0
C2136 C 0.00868 0.02931 0.72606 0.0
C2137 C 0.02888 0.02219 0.72963 0.0
C2138 C 0.00025 -0.00128 0.69087 0.0
C2139 C 0.0343 0.00339 0.71326 0.0
C2140 C 0.99135 0.96657 0.65588 0.0
C2141 C 0.95129 0.98062 0.64898 0.0
N2142 N 0.02003 0.99226 0.69459 0.0
N2143 N 0.96562 0.9921 0.66686 0.0
H2144 H 0.06177 0.41557 0.9711 0.0
H2145 H 0.94784 0.40701 0.89917 0.0
H2146 H 0.01403 0.38933 0.03982 0.0
H2147 H -0.0009 0.40394 0.82277 0.0
H2148 H 0.97161 0.40215 0.95155 0.0
H2149 H 0.03928 0.41244 0.91645 0.0
C2150 C 0.04669 0.40873 0.9745 0.0
C2151 C 0.03977 0.40261 1.00998 0.0
C2152 C 0.97762 0.40234 0.9233 0.0
C2153 C 0.01372 0.39965 0.94784 0.0
C2154 C 0.96409 0.40527 0.8934 0.0
C2155 C 0.97152 0.406 0.85653 0.0
C2156 C -0.0012 0.40058 0.91641 0.0
C2157 C -0.00728 0.40346 0.85072 0.0
C2158 C 0.03386 0.407 0.94333 0.0
C2159 C 0.02004 0.39402 1.01289 0.0
N2160 N 0.00565 0.40116 0.88038 0.0
N2161 N 0.00754 0.39316 0.98235 0.0
H2162 H 0.83149 0.69407 0.15357 0.0
H2163 H 0.82059 0.80887 0.22219 0.0
H2164 H 0.83544 0.74555 0.0776 0.0
H2165 H 0.84663 0.76254 0.29431 0.0
H2166 H 0.82404 0.78536 0.16912 0.0
H2167 H 0.83494 0.71807 0.20638 0.0
C2168 C 0.8332 0.71036 0.14797 0.0
C2169 C 0.83308 0.7178 0.11107 0.0
C2170 C 0.82931 0.78043 0.19642 0.0
C2171 C 0.83681 0.74524 0.17121 0.0
C2172 C 0.82738 0.79385 0.22668 0.0
C2173 C 0.83348 0.78767 0.26257 0.0
C2174 C 0.83685 0.76043 0.20224 0.0
C2175 C 0.842 0.76796 0.26695 0.0
C2176 C 0.83527 0.72401 0.17808 0.0
C2177 C 0.83545 0.73906 0.1055 0.0
N2178 N 0.84311 0.75487 0.23722 0.0
N2179 N 0.83694 0.75202 0.13519 0.0
H2180 H 0.48795 0.58063 0.31909 0.0
H2181 H 0.47095 0.59617 0.53854 0.0
H2182 H 0.53859 0.58051 0.39711 0.0
H2183 H 0.4264 0.5667 0.46707 0.0
H2184 H 0.49457 0.59868 0.48499 0.0
H2185 H 0.46401 0.58336 0.37152 0.0
C2186 C 0.49408 0.58133 0.34724 0.0
C2187 C 0.51534 0.58022 0.35371 0.0
C2188 C 0.47951 0.59192 0.48104 0.0
C2189 C 0.48791 0.58361 0.41386 0.0
C2190 C 0.46595 0.5907 0.5114 0.0
C2191 C 0.44668 0.58126 0.50715 0.0
C2192 C 0.47355 0.58401 0.44612 0.0
C2193 C 0.44112 0.57408 0.47153 0.0
C2194 C 0.48037 0.58283 0.37714 0.0
C2195 C 0.52232 0.58114 0.39087 0.0
N2196 N 0.45447 0.57563 0.4424 0.0
N2197 N 0.50863 0.58285 0.4196 0.0
H2198 H 0.63988 0.22002 0.78761 0.0
H2199 H 0.65706 0.23685 0.56882 0.0
H2200 H 0.67086 0.17587 0.71734 0.0
H2201 H 0.65582 0.28786 0.64611 0.0
H2202 H 0.6546 0.21308 0.62145 0.0
H2203 H 0.63777 0.24366 0.73403 0.0
C2204 C 0.64576 0.2151 0.76071 0.0
C2205 C 0.65547 0.19592 0.75679 0.0
C2206 C 0.6548 0.22947 0.62689 0.0
C2207 C 0.6532 0.22284 0.69579 0.0
C2208 C 0.65615 0.24309 0.59688 0.0
C2209 C 0.65674 0.26442 0.60306 0.0
C2210 C 0.65367 0.23715 0.66347 0.0
C2211 C 0.65558 0.27154 0.64011 0.0
C2212 C 0.64478 0.22869 0.73036 0.0
C2213 C 0.66321 0.19049 0.72152 0.0
N2214 N 0.65401 0.25792 0.66899 0.0
N2215 N 0.66188 0.20386 0.69238 0.0
H2216 H -0.00333 0.61264 0.04107 0.0
H2217 H 0.96721 0.57663 0.83324 0.0
H2218 H 0.94138 0.57896 1.01468 0.0
H2219 H 0.0245 0.60619 0.86166 0.0
H2220 H 0.95744 0.57729 0.89934 0.0
H2221 H 0.00695 0.61056 0.97544 0.0
C2222 C 0.98661 0.60489 1.02147 0.0
C2223 C 0.96806 0.59605 0.03356 0.0
C2224 C 0.97218 0.58356 0.89115 0.0
C2225 C 0.97989 0.59343 0.95806 0.0
C2226 C 0.97775 0.58327 0.85334 0.0
C2227 C -0.00328 0.59142 0.8417 0.0
C2228 C 0.9856 0.59218 0.9177 0.0
C2229 C 0.00983 0.59954 0.86924 0.0
C2230 C -0.00742 0.60358 0.98397 0.0
C2231 C 0.95589 0.58586 1.00682 0.0
N2232 N 0.00399 0.59981 0.90581 0.0
N2233 N 0.96198 0.58491 0.9704 0.0
H2234 H 0.62428 0.68942 0.26021 0.0
H2235 H 0.64529 0.77757 0.10754 0.0
H2236 H 0.64657 0.75008 0.28776 0.0
H2237 H 0.62597 0.716 0.07915 0.0
H2238 H 0.64612 0.76767 0.17346 0.0
H2239 H 0.62507 0.69871 0.19391 0.0
C2240 C 0.62949 0.70464 0.25242 0.0
C2241 C 0.63531 0.71897 0.27994 0.0
C2242 C 0.64172 0.7563 0.15282 0.0
C2243 C 0.63602 0.72983 0.20363 0.0
C2244 C 0.64137 0.76192 0.11501 0.0
C2245 C 0.63553 0.74765 0.08739 0.0
C2246 C 0.63619 0.73623 0.16345 0.0
C2247 C 0.63027 0.72768 0.09925 0.0
C2248 C 0.62982 0.70999 0.21445 0.0
C2249 C 0.64161 0.73858 0.26783 0.0
N2250 N 0.63071 0.7226 0.13623 0.0
N2251 N 0.64177 0.74341 0.23074 0.0
H2252 H 0.52155 0.41692 0.51909 0.0
H2253 H 0.48709 0.34981 0.3412 0.0
H2254 H 0.5125 0.35117 0.522 0.0
H2255 H 0.49441 0.41575 0.33779 0.0
H2256 H 0.49681 0.35012 0.40717 0.0
H2257 H 0.5123 0.41687 0.45271 0.0
C2258 C 0.51775 0.40243 0.50582 0.0
C2259 C 0.51782 0.38401 0.52648 0.0
C2260 C 0.49631 0.36455 0.39205 0.0
C2261 C 0.50696 0.38391 0.45017 0.0
C2262 C 0.49086 0.36437 0.35419 0.0
C2263 C 0.48998 0.38278 0.33359 0.0
C2264 C 0.50101 0.38326 0.40979 0.0
C2265 C 0.49467 0.40119 0.35246 0.0
C2266 C 0.51233 0.40245 0.46788 0.0
C2267 C 0.51241 0.36581 0.50759 0.0
N2268 N 0.50001 0.40095 0.38934 0.0
N2269 N 0.50724 0.36623 0.47068 0.0
H2270 H 0.83251 0.23699 0.78955 0.0
H2271 H 0.85474 0.2718 0.5782 0.0
H2272 H 0.85601 0.29679 0.75923 0.0
H2273 H 0.83354 0.21112 0.60835 0.0
H2274 H 0.85389 0.28161 0.64409 0.0
H2275 H 0.83144 0.22768 0.72335 0.0
C2276 C 0.83753 0.24816 0.76903 0.0
C2277 C 0.84449 0.2677 0.78019 0.0
C2278 C 0.84938 0.26616 0.63634 0.0
C2279 C 0.84308 0.25714 0.70398 0.0
C2280 C 0.84997 0.26049 0.59865 0.0
C2281 C 0.84437 0.24051 0.58753 0.0
C2282 C 0.84314 0.2518 0.66341 0.0
C2283 C 0.83786 0.22672 0.61542 0.0
C2284 C 0.8368 0.24285 0.73114 0.0
C2285 C 0.85037 0.28163 0.75208 0.0
N2286 N 0.83752 0.23259 0.652 0.0
N2287 N 0.8496 0.27606 0.7154 0.0
H2288 H 0.04138 0.58263 0.47124 0.0
H2289 H 0.92681 0.56854 0.40154 0.0
H2290 H 0.98982 0.58264 0.54723 0.0
H2291 H 0.97268 0.59644 0.33085 0.0
H2292 H 0.95017 0.57171 0.45489 0.0
H2293 H 0.01726 0.58548 0.41853 0.0
C2294 C 0.02503 0.58327 0.47686 0.0
C2295 C 0.01763 0.58232 0.51374 0.0
C2296 C 0.95503 0.57744 0.42785 0.0
C2297 C 0.99003 0.58541 0.45365 0.0
C2298 C 0.94169 0.57567 0.39743 0.0
C2299 C 0.94777 0.58237 0.36182 0.0
C2300 C 0.97487 0.58546 0.4225 0.0
C2301 C 0.9673 0.59134 0.35797 0.0
C2302 C 0.0113 0.58503 0.44681 0.0
C2303 C -0.00373 0.58336 0.51934 0.0
N2304 N 0.98031 0.59232 0.38783 0.0
N2305 N 0.98325 0.58461 0.48967 0.0
H2306 H 0.15391 0.28733 0.22109 0.0
H2307 H 0.16214 0.17312 0.14983 0.0
H2308 H 0.14997 0.23609 0.29749 0.0
H2309 H 0.13661 0.22087 0.0802 0.0
H2310 H 0.15893 0.19581 0.20419 0.0
H2311 H 0.14926 0.26353 0.16863 0.0
C2312 C 0.15201 0.27108 0.22686 0.0
C2313 C 0.15244 0.26367 0.26377 0.0
C2314 C 0.15366 0.2012 0.17717 0.0
C2315 C 0.14728 0.23636 0.20377 0.0
C2316 C 0.15543 0.18825 0.14616 0.0
C2317 C 0.14952 0.1951 0.11051 0.0
C2318 C 0.14647 0.22138 0.17237 0.0
C2319 C 0.14112 0.21492 0.10726 0.0
C2320 C 0.14921 0.25753 0.1969 0.0
C2321 C 0.14973 0.24247 0.26952 0.0
N2322 N 0.14021 0.22752 0.13769 0.0
N2323 N 0.14755 0.22953 0.23984 0.0
H2324 H 0.4962 0.40128 0.04815 0.0
H2325 H 0.51043 0.3865 0.82732 0.0
H2326 H 0.44559 0.40499 0.97041 0.0
H2327 H 0.55711 0.41347 0.8975 0.0
H2328 H 0.48773 0.38388 0.88216 0.0
H2329 H 0.51984 0.3969 0.99522 0.0
C2330 C 0.49004 0.40098 1.02001 0.0
C2331 C 0.46891 0.40368 1.01368 0.0
C2332 C 0.50308 0.39003 0.88556 0.0
C2333 C 0.49582 0.39832 0.95318 0.0
C2334 C 0.51611 0.39131 0.85443 0.0
C2335 C 0.53567 0.40019 0.85795 0.0
C2336 C 0.50986 0.39731 0.92048 0.0
C2337 C 0.54212 0.40655 0.89361 0.0
C2338 C 0.50353 0.39852 0.98987 0.0
C2339 C 0.46179 0.40319 0.97656 0.0
N2340 N 0.52926 0.40501 0.92348 0.0
N2341 N 0.4752 0.40052 0.94772 0.0
H2342 H 0.33266 0.75554 0.56949 0.0
H2343 H 0.33101 0.74374 0.79239 0.0
H2344 H 0.32045 0.80542 0.64595 0.0
H2345 H 0.32182 0.69195 0.71866 0.0
H2346 H 0.33327 0.76627 0.73818 0.0
H2347 H 0.33495 0.7319 0.62311 0.0
C2348 C 0.33084 0.76159 0.59753 0.0
C2349 C 0.32634 0.78249 0.60327 0.0
C2350 C 0.33079 0.74997 0.73378 0.0
C2351 C 0.32888 0.7556 0.66447 0.0
C2352 C 0.32954 0.73703 0.76478 0.0
C2353 C 0.32606 0.71586 0.76021 0.0
C2354 C 0.32876 0.74179 0.69765 0.0
C2355 C 0.32432 0.70818 0.72357 0.0
C2356 C 0.33196 0.74806 0.62804 0.0
C2357 C 0.32386 0.78943 0.64018 0.0
N2358 N 0.32569 0.72114 0.69365 0.0
N2359 N 0.32517 0.77605 0.66927 0.0
H2360 H 0.05076 0.37811 0.36235 0.0
H2361 H 0.96322 0.39786 0.51666 0.0
H2362 H 0.9899 0.40039 0.33633 0.0
H2363 H 0.02514 0.37936 0.54414 0.0
H2364 H 0.97285 0.39899 0.45066 0.0
H2365 H 0.04185 0.37863 0.42888 0.0
C2366 C 0.03557 0.38325 0.37052 0.0
C2367 C 0.02107 0.38913 0.34336 0.0
C2368 C 0.98436 0.39471 0.47111 0.0
C2369 C 0.01066 0.38953 0.41989 0.0
C2370 C 0.9789 0.39419 0.50898 0.0
C2371 C -0.00666 0.38851 0.53637 0.0
C2372 C 0.00445 0.38949 0.46018 0.0
C2373 C 0.01333 0.38354 0.52422 0.0
C2374 C 0.03046 0.38343 0.40861 0.0
C2375 C 0.00153 0.39536 0.35595 0.0
N2376 N 0.01826 0.38413 0.48717 0.0
N2377 N -0.00307 0.39536 0.39312 0.0
H2378 H 0.31245 0.27947 0.09885 0.0
H2379 H 0.37273 0.2265 0.26929 0.0
H2380 H 0.37338 0.25358 0.09045 0.0
H2381 H 0.31139 0.25103 0.28019 0.0
H2382 H 0.37277 0.23624 0.20349 0.0
H2383 H 0.31146 0.26949 0.16497 0.0
C2384 C 0.32567 0.27179 0.11088 0.0
C2385 C 0.34302 0.26733 0.08884 0.0
C2386 C 0.35926 0.23952 0.22016 0.0
C2387 C 0.34188 0.25567 0.16456 0.0
C2388 C 0.35927 0.23404 0.25789 0.0
C2389 C 0.3421 0.23812 0.28055 0.0
C2390 C 0.34198 0.24924 0.20461 0.0
C2391 C 0.32493 0.2475 0.26381 0.0
C2392 C 0.32502 0.26598 0.14861 0.0
C2393 C 0.35954 0.25709 0.10601 0.0
N2394 N 0.32534 0.25284 0.22692 0.0
N2395 N 0.35856 0.25166 0.14269 0.0
H2396 H 0.52332 0.58032 1.00845 0.0
H2397 H 0.43593 0.60725 0.85771 0.0
H2398 H 0.46322 0.60351 0.03747 0.0
H2399 H 0.49473 0.58103 0.82836 0.0
H2400 H 0.44542 0.60515 0.92372 0.0
H2401 H 0.5129 0.57948 0.94267 0.0
C2402 C 0.50787 0.58506 1.00114 0.0
C2403 C 0.4942 0.59214 0.02876 0.0
C2404 C 0.45624 0.5998 0.90286 0.0
C2405 C 0.48223 0.59146 0.95312 0.0
C2406 C 0.45078 0.60089 0.86505 0.0
C2407 C 0.46454 0.59437 0.83714 0.0
C2408 C 0.47566 0.59216 0.91312 0.0
C2409 C 0.48371 0.58658 0.84867 0.0
C2410 C 0.50197 0.5847 0.96345 0.0
C2411 C 0.47446 0.59831 1.01726 0.0
N2412 N 0.48869 0.58573 0.88565 0.0
N2413 N 0.46913 0.59789 0.98045 0.0
H2414 H 0.12874 0.71134 0.79334 0.0
H2415 H 0.15455 0.74258 0.58145 0.0
H2416 H 0.15647 0.7692 0.76246 0.0
H2417 H 0.1264 0.68504 0.61299 0.0
H2418 H 0.15638 0.7522 0.6475 0.0
H2419 H 0.1288 0.70111 0.72766 0.0
C2420 C 0.13479 0.72196 0.77277 0.0
C2421 C 0.14245 0.74128 0.78364 0.0
C2422 C 0.14984 0.73745 0.64001 0.0
C2423 C 0.14276 0.72947 0.70795 0.0
C2424 C 0.14868 0.73197 0.60222 0.0
C2425 C 0.14019 0.71298 0.59144 0.0
C2426 C 0.14242 0.72389 0.66747 0.0
C2427 C 0.13323 0.69974 0.61983 0.0
C2428 C 0.13492 0.71603 0.7352 0.0
C2429 C 0.15052 0.75412 0.75559 0.0
N2430 N 0.13442 0.70548 0.65641 0.0
N2431 N 0.15037 0.74804 0.71911 0.0
H2432 H 0.44352 0.90389 0.39823 0.0
H2433 H 0.55829 0.91759 0.46678 0.0
H2434 H 0.49506 0.90237 0.32218 0.0
H2435 H 0.51234 0.89077 0.53871 0.0
H2436 H 0.5348 0.91403 0.41372 0.0
H2437 H 0.46767 0.90137 0.45099 0.0
C2438 C 0.45986 0.90299 0.39261 0.0
C2439 C 0.46727 0.90343 0.35571 0.0
C2440 C 0.52995 0.90862 0.44098 0.0
C2441 C 0.49486 0.90069 0.41577 0.0
C2442 C 0.54337 0.9106 0.47122 0.0
C2443 C 0.53729 0.90432 0.50707 0.0
C2444 C 0.51007 0.90083 0.44677 0.0
C2445 C 0.51771 0.89554 0.51138 0.0
C2446 C 0.4736 0.90142 0.42268 0.0
C2447 C 0.48861 0.90207 0.35009 0.0
N2448 N 0.50463 0.89436 0.48168 0.0
N2449 N 0.50162 0.901 0.37974 0.0
H2450 H 0.33077 0.19381 0.65132 0.0
H2451 H 0.31557 0.3083 0.71953 0.0
H2452 H 0.33159 0.24517 0.57478 0.0
H2453 H 0.34403 0.26308 0.79099 0.0
H2454 H 0.31946 0.28486 0.66642 0.0
H2455 H 0.33352 0.21811 0.7038 0.0
C2456 C 0.33163 0.21014 0.64552 0.0
C2457 C 0.33087 0.21745 0.60857 0.0
C2458 C 0.32515 0.28018 0.69359 0.0
C2459 C 0.3338 0.24523 0.66834 0.0
C2460 C 0.32297 0.29356 0.72386 0.0
C2461 C 0.32961 0.28767 0.75961 0.0
C2462 C 0.33351 0.2605 0.69925 0.0
C2463 C 0.33894 0.26831 0.76376 0.0
C2464 C 0.33331 0.22397 0.67544 0.0
C2465 C 0.33215 0.23879 0.60273 0.0
N2466 N 0.34031 0.25524 0.73405 0.0
N2467 N 0.33328 0.2519 0.63225 0.0
H2468 H 0.97211 0.09439 0.04113 0.0
H2469 H 0.98836 0.07888 0.8216 0.0
H2470 H 0.92699 0.06617 0.96918 0.0
H2471 H 0.03938 0.07779 0.89881 0.0
H2472 H 0.96476 0.08208 0.87425 0.0
H2473 H -0.00414 0.09654 0.98764 0.0
C2474 C 0.96702 0.08917 1.01388 0.0
C2475 C 0.94754 0.08019 1.00943 0.0
C2476 C 0.98112 0.08122 0.87968 0.0
C2477 C 0.97453 0.08248 0.94859 0.0
C2478 C -0.00535 0.07944 0.84964 0.0
C2479 C 0.01593 0.07794 0.85578 0.0
C2480 C 0.98883 0.08184 0.91628 0.0
C2481 C 0.02309 0.0787 0.89284 0.0
C2482 C 0.98064 0.09016 0.98359 0.0
C2483 C 0.94185 0.07325 0.97375 0.0
N2484 N 0.00956 0.08066 0.92177 0.0
N2485 N 0.95527 0.07456 0.94472 0.0
H2486 H 0.15584 0.73716 0.07476 0.0
H2487 H 0.13872 0.72071 0.29402 0.0
H2488 H 0.15645 0.7881 0.15223 0.0
H2489 H 0.16639 0.67529 0.22197 0.0
H2490 H 0.13699 0.7446 0.24062 0.0
H2491 H 0.15189 0.7135 0.12713 0.0
C2492 C 0.15503 0.74342 0.1028 0.0
C2493 C 0.15662 0.76469 0.10909 0.0
C2494 C 0.14313 0.72928 0.23651 0.0
C2495 C 0.15186 0.73751 0.16932 0.0
C2496 C 0.14386 0.71557 0.26675 0.0
C2497 C 0.15259 0.69597 0.26224 0.0
C2498 C 0.15082 0.72313 0.20153 0.0
C2499 C 0.15948 0.69023 0.22656 0.0
C2500 C 0.15281 0.72985 0.1327 0.0
C2501 C 0.1555 0.77181 0.14615 0.0
N2502 N 0.15844 0.70373 0.19761 0.0
N2503 N 0.15313 0.75823 0.17495 0.0
H2504 H 0.4938 0.06645 0.33859 0.0
H2505 H 0.45625 0.1316 0.51675 0.0
H2506 H 0.48164 0.13171 0.33562 0.0
H2507 H 0.46355 0.06561 0.51792 0.0
H2508 H 0.46578 0.13189 0.45067 0.0
H2509 H 0.48314 0.06581 0.4042 0.0
C2510 C 0.48878 0.08065 0.35154 0.0
C2511 C 0.48868 0.09918 0.3312 0.0
C2512 C 0.46527 0.11733 0.46534 0.0
C2513 C 0.47664 0.09856 0.40694 0.0
C2514 C 0.45968 0.11712 0.50315 0.0
C2515 C 0.45902 0.09854 0.52328 0.0
C2516 C 0.47034 0.09883 0.44718 0.0
C2517 C 0.46408 0.08036 0.50394 0.0
C2518 C 0.48279 0.08027 0.38919 0.0
C2519 C 0.48232 0.11709 0.35005 0.0
N2520 N 0.46952 0.08098 0.46713 0.0
N2521 N 0.47659 0.11633 0.38668 0.0
H2522 H 0.14359 0.2714 0.60473 0.0
H2523 H 0.12739 0.18206 0.75719 0.0
H2524 H 0.12789 0.20885 0.57606 0.0
H2525 H 0.14498 0.2442 0.78511 0.0
H2526 H 0.128 0.19136 0.69086 0.0
H2527 H 0.14466 0.26156 0.67067 0.0
C2528 C 0.14052 0.25555 0.61214 0.0
C2529 C 0.13562 0.24099 0.58443 0.0
C2530 C 0.13175 0.20297 0.7115 0.0
C2531 C 0.13657 0.22961 0.66054 0.0
C2532 C 0.13153 0.19762 0.74948 0.0
C2533 C 0.13608 0.21234 0.77712 0.0
C2534 C 0.13657 0.22321 0.70076 0.0
C2535 C 0.14102 0.23236 0.76509 0.0
C2536 C 0.141 0.24996 0.64997 0.0
C2537 C 0.13144 0.22075 0.59623 0.0
N2538 N 0.14111 0.23717 0.72799 0.0
N2539 N 0.132 0.2157 0.63323 0.0
H2540 H 0.04594 0.90742 1.01419 0.0
H2541 H 0.9622 0.87673 0.85911 0.0
H2542 H -0.00814 0.87123 0.03776 0.0
H2543 H 0.01877 0.90847 0.83375 0.0
H2544 H 0.97176 0.87648 0.92526 0.0
H2545 H 0.03529 0.90971 0.94869 0.0
C2546 C 0.03176 0.90004 1.00568 0.0
C2547 C 0.01982 0.88906 0.03164 0.0
C2548 C 0.98207 0.88354 0.90525 0.0
C2549 C 0.00757 0.89152 0.95642 0.0
C2550 C 0.97654 0.88383 0.86745 0.0
C2551 C 0.98971 0.89258 0.84067 0.0
C2552 C 0.00089 0.89215 0.91656 0.0
C2553 C 0.00825 0.90128 0.85324 0.0
C2554 C 0.02574 0.90127 0.96819 0.0
C2555 C 0.00173 0.87961 1.01874 0.0
N2556 N 0.01328 0.90083 0.89018 0.0
N2557 N -0.00383 0.88107 0.98213 0.0
H2558 H 0.36265 0.79259 0.26171 0.0
H2559 H 0.32662 0.71128 0.10612 0.0
H2560 H 0.32542 0.73945 0.28696 0.0
H2561 H 0.35798 0.76814 0.08095 0.0
H2562 H 0.32612 0.72096 0.17231 0.0
H2563 H 0.36169 0.78328 0.19552 0.0
C2564 C 0.35435 0.77889 0.2534 0.0
C2565 C 0.34416 0.76676 0.28012 0.0
C2566 C 0.33308 0.73132 0.15226 0.0
C2567 C 0.34285 0.75605 0.20396 0.0
C2568 C 0.33328 0.72586 0.11435 0.0
C2569 C 0.34248 0.73882 0.08767 0.0
C2570 C 0.34219 0.74989 0.16377 0.0
C2571 C 0.35108 0.7574 0.10037 0.0
C2572 C 0.35369 0.77364 0.21549 0.0
C2573 C 0.33335 0.74937 0.26741 0.0
N2574 N 0.35077 0.76232 0.13736 0.0
N2575 N 0.33305 0.7445 0.23034 0.0
H2576 H 0.46862 0.09661 0.82566 0.0
H2577 H 0.48393 0.08107 0.0462 0.0
H2578 H 0.42257 0.06895 0.89632 0.0
H2579 H 0.53433 0.07915 0.96781 0.0
H2580 H 0.46 0.08527 0.99365 0.0
H2581 H 0.49151 0.09944 0.88023 0.0
C2582 C 0.46311 0.0917 0.85283 0.0
C2583 C 0.44368 0.08257 0.85656 0.0
C2584 C 0.47633 0.08407 0.98807 0.0
C2585 C 0.46971 0.08565 0.91876 0.0
C2586 C 0.48998 0.08171 1.01799 0.0
C2587 C 0.51115 0.07957 1.01137 0.0
C2588 C 0.4839 0.08472 0.95129 0.0
C2589 C 0.51812 0.0805 0.97419 0.0
C2590 C 0.47625 0.09309 0.8838 0.0
C2591 C 0.43745 0.07608 0.89228 0.0
N2592 N 0.50455 0.08305 0.94556 0.0
N2593 N 0.45041 0.07771 0.92197 0.0
H2594 H 0.63552 0.72588 0.58265 0.0
H2595 H 0.65249 0.73996 0.80304 0.0
H2596 H 0.6625 0.67876 0.65194 0.0
H2597 H 0.65578 0.79041 0.72486 0.0
H2598 H 0.64731 0.71624 0.75039 0.0
H2599 H 0.63343 0.74848 0.63767 0.0
C2600 C 0.64043 0.72008 0.60962 0.0
C2601 C 0.64918 0.70043 0.61279 0.0
C2602 C 0.64902 0.73253 0.74489 0.0
C2603 C 0.64694 0.72615 0.67554 0.0
C2604 C 0.65194 0.74607 0.77486 0.0
C2605 C 0.65477 0.76716 0.76828 0.0
C2606 C 0.64846 0.74021 0.70817 0.0
C2607 C 0.65393 0.77423 0.73117 0.0
C2608 C 0.63946 0.73305 0.64085 0.0
C2609 C 0.65567 0.69382 0.6483 0.0
N2610 N 0.6508 0.7608 0.70252 0.0
N2611 N 0.65447 0.70666 0.67827 0.0
H2612 H 0.01391 0.88745 0.32733 0.0
H2613 H -0.00242 0.90279 0.54702 0.0
H2614 H 0.05894 0.91554 0.39959 0.0
H2615 H 0.94656 0.90358 0.46978 0.0
H2616 H 0.02118 0.89948 0.49441 0.0
H2617 H 0.99016 0.88504 0.38082 0.0
C2618 C 0.01899 0.89258 0.35464 0.0
C2619 C 0.03843 0.90161 0.35919 0.0
C2620 C 0.00482 0.90029 0.48897 0.0
C2621 C 0.01144 0.89903 0.42004 0.0
C2622 C 0.99128 0.90214 0.51899 0.0
C2623 C 0.97001 0.90361 0.51284 0.0
C2624 C -0.00287 0.89959 0.45236 0.0
C2625 C 0.96285 0.9027 0.47578 0.0
C2626 C 0.00536 0.89144 0.38494 0.0
C2627 C 0.0441 0.90843 0.39495 0.0
N2628 N 0.9764 0.9007 0.44686 0.0
N2629 N 0.03069 0.90698 0.42397 0.0
H2630 H 0.8455 0.26274 0.07813 0.0
H2631 H 0.82941 0.24602 0.29729 0.0
H2632 H 0.81499 0.30697 0.1489 0.0
H2633 H 0.82998 0.19502 0.21997 0.0
H2634 H 0.83183 0.26978 0.24463 0.0
H2635 H 0.84795 0.23915 0.13176 0.0
C2636 C 0.83981 0.26769 0.10515 0.0
C2637 C 0.83011 0.28687 0.10919 0.0
C2638 C 0.83151 0.25339 0.2392 0.0
C2639 C 0.83277 0.26002 0.17025 0.0
C2640 C 0.83018 0.23978 0.26922 0.0
C2641 C 0.82939 0.21846 0.26303 0.0
C2642 C 0.83242 0.24571 0.20259 0.0
C2643 C 0.83037 0.21134 0.22597 0.0
C2644 C 0.84098 0.25414 0.13553 0.0
C2645 C 0.82261 0.29234 0.14462 0.0
N2646 N 0.83192 0.22495 0.19707 0.0
N2647 N 0.82413 0.27901 0.17378 0.0
H2648 H 0.48638 0.90192 0.82791 0.0
H2649 H 0.52402 0.88749 0.03998 0.0
H2650 H 0.54844 0.88549 0.85847 0.0
H2651 H 0.46129 0.90105 1.00937 0.0
H2652 H 0.53358 0.88845 0.97392 0.0
H2653 H 0.47729 0.90329 0.89417 0.0
C2654 C 0.49811 0.89851 0.84849 0.0
C2655 C 0.51822 0.89343 0.83734 0.0
C2656 C 0.51773 0.89128 0.98162 0.0
C2657 C 0.50789 0.89523 0.9137 0.0
C2658 C 0.51222 0.89064 1.01941 0.0
C2659 C 0.49175 0.89403 0.03046 0.0
C2660 C 0.5027 0.89534 0.95437 0.0
C2661 C 0.47727 0.89848 1.00238 0.0
C2662 C 0.49291 0.89942 0.88642 0.0
C2663 C 0.53281 0.88963 0.86555 0.0
N2664 N 0.483 0.8989 0.96572 0.0
N2665 N 0.52734 0.89053 0.9023 0.0
H2666 H 0.87885 0.77806 0.60395 0.0
H2667 H 0.81003 0.73649 0.77436 0.0
H2668 H 0.81462 0.76265 0.59248 0.0
H2669 H 0.87485 0.74991 0.7825 0.0
H2670 H 0.81098 0.74638 0.70818 0.0
H2671 H 0.87725 0.76833 0.66976 0.0
C2672 C 0.8644 0.77253 0.61515 0.0
C2673 C 0.84687 0.77111 0.59234 0.0
C2674 C 0.82498 0.74719 0.72451 0.0
C2675 C 0.84486 0.7601 0.66833 0.0
C2676 C 0.82447 0.74145 0.76229 0.0
C2677 C 0.84236 0.74244 0.78429 0.0
C2678 C 0.84353 0.75393 0.70845 0.0
C2679 C 0.86057 0.74922 0.76703 0.0
C2680 C 0.86347 0.76707 0.65291 0.0
C2681 C 0.82849 0.76422 0.60892 0.0
N2682 N 0.86067 0.75466 0.73031 0.0
N2683 N 0.82798 0.75894 0.6458 0.0
H2684 H 0.01151 0.12514 0.5157 0.0
H2685 H 0.95301 0.06674 0.34909 0.0
H2686 H 0.98294 0.06569 0.52899 0.0
H2687 H 0.98328 0.12543 0.33685 0.0
H2688 H 0.96361 0.0659 0.41482 0.0
H2689 H 0.0014 0.12519 0.44997 0.0
C2690 C 0.00305 0.1121 0.50483 0.0
C2691 C -0.00203 0.09544 0.52811 0.0
C2692 C 0.96795 0.07894 0.39772 0.0
C2693 C 0.98639 0.09534 0.4524 0.0
C2694 C 0.96179 0.0795 0.36021 0.0
C2695 C 0.96726 0.09618 0.33722 0.0
C2696 C 0.97964 0.0952 0.41254 0.0
C2697 C 0.97892 0.11212 0.35321 0.0
C2698 C -0.00265 0.11209 0.46717 0.0
C2699 C 0.98733 0.0788 0.51211 0.0
N2700 N 0.98466 0.11124 0.38975 0.0
N2701 N 0.98181 0.07921 0.47534 0.0
H2702 H 0.66617 0.20092 0.09772 0.0
H2703 H 0.60833 0.26106 0.26313 0.0
H2704 H 0.60907 0.23384 0.0837 0.0
H2705 H 0.66687 0.23089 0.27769 0.0
H2706 H 0.60847 0.25098 0.19737 0.0
H2707 H 0.66668 0.21119 0.16367 0.0
C2708 C 0.65367 0.2102 0.1085 0.0
C2709 C 0.63756 0.21653 0.08494 0.0
C2710 C 0.62132 0.24657 0.21486 0.0
C2711 C 0.63816 0.22852 0.1605 0.0
C2712 C 0.62121 0.25225 0.25254 0.0
C2713 C 0.63756 0.24673 0.27617 0.0
C2714 C 0.63788 0.23518 0.20043 0.0
C2715 C 0.654 0.23563 0.26053 0.0
C2716 C 0.65405 0.21618 0.14613 0.0
C2717 C 0.62196 0.2288 0.10051 0.0
N2718 N 0.6537 0.23015 0.22374 0.0
N2719 N 0.62264 0.23434 0.13718 0.0
H2720 H 0.08096 0.57714 0.73977 0.0
H2721 H 0.10721 0.47444 0.85461 0.0
H2722 H 0.10017 0.5212 0.6856 0.0
H2723 H 0.08734 0.5315 0.90456 0.0
H2724 H 0.10763 0.49137 0.7932 0.0
H2725 H 0.08683 0.56118 0.80057 0.0
C2726 C 0.08691 0.56159 0.74076 0.0
C2727 C 0.09025 0.55056 0.70759 0.0
C2728 C 0.10325 0.50018 0.81764 0.0
C2729 C 0.09646 0.53175 0.77753 0.0
C2730 C 0.10304 0.49053 0.85281 0.0
C2731 C 0.09706 0.50144 0.88507 0.0
C2732 C 0.09753 0.52097 0.81454 0.0
C2733 C 0.09167 0.52225 0.88065 0.0
C2734 C 0.09012 0.55238 0.77555 0.0
C2735 C 0.09776 0.53036 0.7105 0.0
N2736 N 0.09201 0.53123 0.84625 0.0
N2737 N 0.10039 0.5215 0.74489 0.0
H2738 H 0.71532 0.85171 0.93627 0.0
H2739 H 0.70419 0.84225 0.15932 0.0
H2740 H 0.65946 0.83549 0.994 0.0
H2741 H 0.7617 0.85677 0.10531 0.0
H2742 H 0.68716 0.8431 0.09866 0.0
H2743 H 0.73189 0.85803 0.99719 0.0
C2744 C 0.70635 0.85014 0.96164 0.0
C2745 C 0.68595 0.84311 0.96002 0.0
C2746 C 0.70351 0.84617 0.09993 0.0
C2747 C 0.70489 0.84977 0.02974 0.0
C2748 C 0.71331 0.84551 0.13468 0.0
C2749 C 0.73453 0.84918 0.13764 0.0
C2750 C 0.71489 0.85049 0.06742 0.0
C2751 C 0.74533 0.85387 0.10455 0.0
C2752 C 0.71589 0.85346 0.99644 0.0
C2753 C 0.67521 0.84088 0.99387 0.0
N2754 N 0.73544 0.85425 0.07085 0.0
N2755 N 0.68482 0.844 0.02714 0.0
H2756 H 0.38107 0.51097 0.35493 0.0
H2757 H 0.40046 0.40699 0.23983 0.0
H2758 H 0.3915 0.45146 0.40498 0.0
H2759 H 0.38747 0.4647 0.18551 0.0
H2760 H 0.39396 0.42296 0.30033 0.0
H2761 H 0.38139 0.4947 0.29291 0.0
C2762 C 0.38347 0.49452 0.353 0.0
C2763 C 0.38623 0.48263 0.38555 0.0
C2764 C 0.39217 0.43216 0.27529 0.0
C2765 C 0.38634 0.46385 0.31439 0.0
C2766 C 0.3957 0.42296 0.24062 0.0
C2767 C 0.39435 0.43447 0.2075 0.0
C2768 C 0.38756 0.45325 0.27726 0.0
C2769 C 0.38837 0.45518 0.2103 0.0
C2770 C 0.38347 0.48522 0.31752 0.0
C2771 C 0.38899 0.46132 0.38102 0.0
N2772 N 0.38548 0.46401 0.24463 0.0
N2773 N 0.38903 0.45271 0.34633 0.0
H2774 H 0.77606 0.12928 0.43636 0.0
H2775 H 0.77995 0.15448 0.65627 0.0
H2776 H 0.82541 0.16122 0.49204 0.0
H2777 H 0.73046 0.11979 0.60653 0.0
H2778 H 0.79725 0.15528 0.5959 0.0
H2779 H 0.76002 0.12287 0.49788 0.0
C2780 C 0.7838 0.13441 0.4615 0.0
C2781 C 0.80211 0.14577 0.45905 0.0
C2782 C 0.78262 0.14742 0.59802 0.0
C2783 C 0.7837 0.13899 0.52922 0.0
C2784 C 0.77261 0.14712 0.63259 0.0
C2785 C 0.75356 0.13722 0.63666 0.0
C2786 C 0.7736 0.13783 0.56679 0.0
C2787 C 0.74515 0.12754 0.60487 0.0
C2788 C 0.77453 0.13099 0.49657 0.0
C2789 C 0.81126 0.15245 0.49253 0.0
N2790 N 0.75514 0.1282 0.57128 0.0
N2791 N 0.80192 0.14911 0.52595 0.0
H2792 H 0.9032 0.40888 0.63007 0.0
H2793 H 0.88349 0.5124 0.51393 0.0
H2794 H 0.89025 0.46679 0.68377 0.0
H2795 H 0.89329 0.45264 0.46447 0.0
H2796 H 0.88403 0.49637 0.57615 0.0
H2797 H 0.89645 0.4246 0.56944 0.0
C2798 C 0.8984 0.42484 0.62912 0.0
C2799 C 0.89714 0.43649 0.6621 0.0
C2800 C 0.88592 0.48678 0.55163 0.0
C2801 C 0.89006 0.45496 0.59219 0.0
C2802 C 0.8858 0.49594 0.51604 0.0
C2803 C 0.88832 0.48391 0.48362 0.0
C2804 C 0.88869 0.46541 0.55497 0.0
C2805 C 0.89097 0.46259 0.48835 0.0
C2806 C 0.89473 0.43389 0.59438 0.0
C2807 C 0.8911 0.45718 0.6591 0.0
N2808 N 0.89115 0.45412 0.52314 0.0
N2809 N 0.88806 0.46585 0.6247 0.0
H2810 H 0.22269 0.16351 0.25782 0.0
H2811 H 0.30349 0.12067 0.40946 0.0
H2812 H 0.2649 0.11403 0.23344 0.0
H2813 H 0.27086 0.17815 0.41857 0.0
H2814 H 0.28573 0.11414 0.34942 0.0
H2815 H 0.23672 0.16553 0.32092 0.0
C2816 C 0.23495 0.15309 0.26555 0.0
C2817 C 0.24269 0.13873 0.23975 0.0
C2818 C 0.28231 0.12804 0.3649 0.0
C2819 C 0.25873 0.14074 0.3129 0.0
C2820 C 0.29228 0.13163 0.39926 0.0
C2821 C 0.28861 0.14995 0.41891 0.0
C2822 C 0.26847 0.14278 0.35058 0.0
C2823 C 0.27418 0.16385 0.40423 0.0
C2824 C 0.24289 0.15416 0.30184 0.0
C2825 C 0.25827 0.12528 0.25221 0.0
N2826 N 0.26474 0.16001 0.3711 0.0
N2827 N 0.26582 0.12667 0.28774 0.0
H2828 H 0.57917 0.52752 0.96274 0.0
H2829 H 0.60215 0.52143 0.18341 0.0
H2830 H 0.60867 0.47496 1.01326 0.0
H2831 H 0.57451 0.57311 0.12708 0.0
H2832 H 0.60772 0.5049 0.12199 0.0
H2833 H 0.5794 0.54478 0.02314 0.0
C2834 C 0.58558 0.51949 0.98659 0.0
C2835 C 0.59371 0.49959 0.98269 0.0
C2836 C 0.60077 0.52002 0.12313 0.0
C2837 C 0.59432 0.51961 0.05268 0.0
C2838 C 0.59785 0.52956 0.15815 0.0
C2839 C 0.58795 0.54872 0.16036 0.0
C2840 C 0.59373 0.52978 0.09029 0.0
C2841 C 0.58222 0.55834 0.12674 0.0
C2842 C 0.58588 0.52948 1.0212 0.0
C2843 C 0.60228 0.49031 1.01475 0.0
N2844 N 0.58504 0.54875 0.09338 0.0
N2845 N 0.60225 0.50032 0.04838 0.0
H2846 H 0.21266 0.85333 0.93713 0.0
H2847 H 0.20809 0.83256 0.7155 0.0
H2848 H 0.16329 0.82215 0.88012 0.0
H2849 H 0.2597 0.86228 0.76868 0.0
H2850 H 0.19066 0.83111 0.77574 0.0
H2851 H 0.2289 0.86018 0.87596 0.0
C2852 C 0.20496 0.84846 0.91177 0.0
C2853 C 0.18657 0.83721 0.91372 0.0
C2854 C 0.20579 0.83801 0.77437 0.0
C2855 C 0.20518 0.84453 0.84392 0.0
C2856 C 0.21587 0.83867 0.73986 0.0
C2857 C 0.23555 0.8474 0.73676 0.0
C2858 C 0.21535 0.84608 0.80648 0.0
C2859 C 0.24452 0.85551 0.7695 0.0
C2860 C 0.21434 0.85213 0.8769 0.0
C2861 C 0.17748 0.83085 0.87999 0.0
N2862 N 0.23442 0.85457 0.80294 0.0
N2863 N 0.1869 0.83447 0.84673 0.0
H2864 H 0.59124 0.03506 0.40457 0.0
H2865 H 0.59505 0.02039 0.18151 0.0
H2866 H 0.60159 0.97604 0.35259 0.0
H2867 H 0.57997 0.07708 0.23767 0.0
H2868 H 0.602 0.00446 0.24281 0.0
H2869 H 0.59086 0.05102 0.34302 0.0
C2870 C 0.59362 0.02541 0.38025 0.0
C2871 C 0.59653 0.0041 0.3841 0.0
C2872 C 0.59751 0.02049 0.24161 0.0
C2873 C 0.59586 0.02246 0.31268 0.0
C2874 C 0.59384 0.02966 0.20659 0.0
C2875 C 0.587 0.05013 0.20446 0.0
C2876 C 0.59441 0.03193 0.2746 0.0
C2877 C 0.58522 0.06127 0.23796 0.0
C2878 C 0.5933 0.03458 0.34491 0.0
C2879 C 0.59908 -0.00752 0.35114 0.0
N2880 N 0.58874 0.05203 0.27146 0.0
N2881 N 0.59867 0.00179 0.31688 0.0
H2882 H 0.21295 0.34617 0.43587 0.0
H2883 H 0.19842 0.34023 0.65876 0.0
H2884 H 0.15653 0.32991 0.49174 0.0
H2885 H 0.25713 0.35241 0.60712 0.0
H2886 H 0.18248 0.34001 0.59722 0.0
H2887 H 0.2288 0.35284 0.49733 0.0
C2888 C 0.20372 0.34463 0.46093 0.0
C2889 C 0.18336 0.33755 0.45866 0.0
C2890 C 0.19885 0.34282 0.59918 0.0
C2891 C 0.20146 0.34464 0.52895 0.0
C2892 C 0.208 0.34304 0.63451 0.0
C2893 C 0.22922 0.34643 0.63844 0.0
C2894 C 0.21089 0.34595 0.56703 0.0
C2895 C 0.24077 0.34952 0.60558 0.0
C2896 C 0.21284 0.34816 0.49603 0.0
C2897 C 0.17226 0.33535 0.49213 0.0
N2898 N 0.23149 0.3492 0.57132 0.0
N2899 N 0.18146 0.33873 0.52569 0.0
H2900 H 0.87729 0.0089 0.85413 0.0
H2901 H 0.90686 0.90701 0.73977 0.0
H2902 H 0.89963 0.9528 0.90423 0.0
H2903 H 0.88562 0.96221 0.68551 0.0
H2904 H 0.90053 0.92282 0.80052 0.0
H2905 H 0.87719 0.9918 0.7929 0.0
C2906 C 0.88206 -0.00703 0.85239 0.0
C2907 C 0.88864 0.98238 0.88461 0.0
C2908 C 0.89691 0.93147 0.77549 0.0
C2909 C 0.88854 0.96268 0.81433 0.0
C2910 C 0.90039 0.92236 0.74073 0.0
C2911 C 0.89665 0.93326 0.70755 0.0
C2912 C 0.88986 0.95187 0.77742 0.0
C2913 C 0.8884 0.95316 0.71043 0.0
C2914 C 0.88204 0.98323 0.81733 0.0
C2915 C 0.89481 0.96179 0.88031 0.0
N2916 N 0.88551 0.96195 0.74479 0.0
N2917 N 0.89464 0.95271 0.84601 0.0
H2918 H 0.27859 0.65742 0.15771 0.0
H2919 H 0.27498 0.62864 0.93932 0.0
H2920 H 0.22991 0.62072 0.11011 0.0
H2921 H 0.32386 0.66227 0.99307 0.0
H2922 H 0.25915 0.62291 1.0012 0.0
H2923 H 0.29579 0.65767 0.09724 0.0
C2924 C 0.2714 0.64951 0.13447 0.0
C2925 C 0.25261 0.6392 0.13917 0.0
C2926 C 0.27352 0.63124 0.99941 0.0
C2927 C 0.27256 0.63916 0.06922 0.0
C2928 C 0.28268 0.63429 0.96414 0.0
C2929 C 0.30079 0.64592 0.96101 0.0
C2930 C 0.2826 0.6399 0.03158 0.0
C2931 C 0.30987 0.65326 0.99408 0.0
C2932 C 0.28136 0.64949 0.09986 0.0
C2933 C 0.2444 0.62881 0.10795 0.0
N2934 N 0.30064 0.65028 0.02771 0.0
N2935 N 0.25434 0.62916 0.0743 0.0
H2936 H 0.37994 0.95964 0.18209 0.0
H2937 H 0.40586 0.95573 0.96249 0.0
H2938 H 0.41162 0.91007 0.1265 0.0
H2939 H 0.37107 0.00535 1.01167 0.0
H2940 H 0.40641 0.93846 0.02286 0.0
H2941 H 0.37383 0.97583 0.12055 0.0
C2942 C 0.38507 0.95189 0.15694 0.0
C2943 C 0.39627 0.93347 0.1594 0.0
C2944 C 0.39859 0.95311 1.02063 0.0
C2945 C 0.38984 0.95203 0.08927 0.0
C2946 C 0.39844 0.96311 0.98606 0.0
C2947 C 0.38859 0.98219 0.98182 0.0
C2948 C 0.38888 0.96216 0.05171 0.0
C2949 C 0.37881 0.99065 1.01347 0.0
C2950 C 0.38182 0.96124 0.12188 0.0
C2951 C 0.40296 0.9243 0.12597 0.0
N2952 N 0.37931 0.98066 0.04709 0.0
N2953 N 0.3998 0.9337 0.09256 0.0
H2954 H 0.80108 0.62255 0.91185 0.0
H2955 H 0.72465 0.67019 0.75728 0.0
H2956 H 0.77255 0.68227 0.91887 0.0
H2957 H 0.7622 0.61674 0.73565 0.0
H2958 H 0.73872 0.67185 0.82037 0.0
H2959 H 0.7833 0.61688 0.85151 0.0
C2960 C 0.79076 0.63423 0.90113 0.0
C2961 C 0.78829 0.6529 0.92031 0.0
C2962 C 0.74387 0.65969 0.80191 0.0
C2963 C 0.76813 0.64668 0.8516 0.0
C2964 C 0.73591 0.65882 0.7656 0.0
C2965 C 0.74232 0.64344 0.74056 0.0
C2966 C 0.7584 0.64506 0.81379 0.0
C2967 C 0.75662 0.62882 0.75381 0.0
C2968 C 0.78079 0.6311 0.86659 0.0
C2969 C 0.77498 0.66767 0.90492 0.0
N2970 N 0.76422 0.63004 0.78935 0.0
N2971 N 0.76551 0.66428 0.87165 0.0
H2972 H 0.11106 0.97488 0.51412 0.0
H2973 H 0.07622 0.07526 0.62763 0.0
H2974 H 0.08376 0.02884 0.4644 0.0
H2975 H 0.10244 0.02229 0.68217 0.0
H2976 H 0.08275 0.05945 0.56709 0.0
H2977 H 0.11112 0.99242 0.57498 0.0
C2978 C 0.10518 0.99043 0.51588 0.0
C2979 C 0.09721 0.00029 0.48394 0.0
C2980 C 0.08741 0.0513 0.59211 0.0
C2981 C 0.09729 0.02048 0.55367 0.0
C2982 C 0.08383 0.06044 0.62677 0.0
C2983 C 0.0889 0.05013 0.66001 0.0
C2984 C 0.09588 0.03145 0.59033 0.0
C2985 C 0.09856 0.03087 0.6572 0.0
C2986 C 0.10519 0.00042 0.5507 0.0
C2987 C 0.08968 0.0204 0.48818 0.0
N2988 N 0.1015 0.022 0.62293 0.0
N2989 N 0.08989 0.02974 0.52222 0.0
H2990 H 0.70892 0.35366 0.42967 0.0
H2991 H 0.70404 0.32952 0.20958 0.0
H2992 H 0.65886 0.32279 0.37407 0.0
H2993 H 0.75457 0.36243 0.25982 0.0
H2994 H 0.68667 0.32906 0.26989 0.0
H2995 H 0.72483 0.36013 0.36813 0.0
C2996 C 0.701 0.34879 0.40453 0.0
C2997 C 0.68253 0.3377 0.40699 0.0
C2998 C 0.70154 0.33646 0.26789 0.0
C2999 C 0.70079 0.34455 0.3368 0.0
C3000 C 0.71158 0.33655 0.23337 0.0
C3001 C 0.73095 0.34583 0.22949 0.0
C3002 C 0.71085 0.34563 0.29924 0.0
C3003 C 0.73964 0.35515 0.26137 0.0
C3004 C 0.71019 0.35225 0.36945 0.0
C3005 C 0.67314 0.33136 0.37354 0.0
N3006 N 0.72961 0.35469 0.29492 0.0
N3007 N 0.68241 0.33472 0.34008 0.0
loop_
_geom_bond_atom_site_label_1
_geom_bond_atom_site_label_2
_geom_bond_distance
_geom_bond_site_symmetry_2
_ccdc_geom_bond_type
Nd0 C2 2.836 . S
Nd0 O20 2.500 . S
Nd0 O21 2.492 . S
Nd0 O22 2.487 . S
Nd0 O23 2.682 . S
Nd0 O24 2.410 . S
Nd0 O29 2.414 . S
Nd0 O31 2.424 . S
Nd1 C11 2.836 . S
Nd1 O23 2.414 . S
Nd1 O25 2.424 . S
Nd1 O26 2.500 . S
Nd1 O27 2.492 . S
Nd1 O28 2.487 . S
Nd1 O29 2.682 . S
Nd1 O30 2.410 . S
C2 Nd0 2.836 . S
C2 C3 1.498 1_554 S
C2 O20 1.258 . S
C2 O21 1.239 . S
C3 C2 1.498 1_556 S
C3 C4 1.366 . S
C3 C8 1.407 . S
C4 C3 1.366 . S
C4 C5 1.392 . S
C4 H32 0.930 . S
C5 C4 1.392 . S
C5 C6 1.398 . S
C5 H33 0.929 . S
C6 C5 1.398 . S
C6 C7 1.352 . S
C7 C6 1.352 . S
C7 C8 1.384 . S
C7 H34 0.930 . S
C8 C3 1.407 . S
C8 C7 1.384 . S
C8 H35 0.929 . S
C9 O22 1.241 . S
C9 O23 1.273 . S
C10 O24 1.251 . S
C10 O25 1.268 . S
C11 Nd1 2.836 . S
C11 C12 1.498 . S
C11 O26 1.258 . S
C11 O27 1.239 . S
C12 C11 1.498 . S
C12 C13 1.366 . S
C12 C17 1.370 1_455 S
C13 C12 1.366 . S
C13 C14 1.392 . S
C13 H36 0.930 . S
C14 C13 1.392 . S
C14 C15 1.398 . S
C14 H37 0.929 . S
C15 C14 1.398 . S
C15 C16 1.352 1_455 S
C16 C15 1.352 1_655 S
C16 C17 1.393 . S
C16 H38 0.930 . S
C17 C12 1.370 1_655 S
C17 C16 1.393 . S
C17 H39 0.958 . S
C18 O28 1.241 . S
C18 O29 1.273 . S
C19 O30 1.251 . S
C19 O31 1.268 . S
O20 Nd0 2.500 . S
O20 C2 1.258 . S
O21 Nd0 2.492 . S
O21 C2 1.239 . S
O22 Nd0 2.487 . S
O22 C9 1.241 . S
O23 Nd0 2.682 . S
O23 Nd1 2.414 . S
O23 C9 1.273 . S
O24 Nd0 2.410 . S
O24 C10 1.251 . S
O25 Nd1 2.424 . S
O25 C10 1.268 . S
O26 Nd1 2.500 . S
O26 C11 1.258 . S
O27 Nd1 2.492 . S
O27 C11 1.239 . S
O28 Nd1 2.487 . S
O28 C18 1.241 . S
O29 Nd0 2.414 . S
O29 Nd1 2.682 . S
O29 C18 1.273 . S
O30 Nd1 2.410 . S
O30 C19 1.251 . S
O31 Nd0 2.424 . S
O31 C19 1.268 . S
H32 C4 0.930 . S
H33 C5 0.929 . S
H34 C7 0.930 . S
H35 C8 0.929 . S
H36 C13 0.930 . S
H37 C14 0.929 . S
H38 C16 0.930 . S
H39 C17 0.958 . S
Nd40 C42 2.836 . S
Nd40 O60 2.500 . S
Nd40 O61 2.492 . S
Nd40 O62 2.487 . S
Nd40 O63 2.682 . S
Nd40 O64 2.410 . S
Nd40 O69 2.414 . S
Nd40 O71 2.424 . S
Nd41 C51 2.836 . S
Nd41 O63 2.414 . S
Nd41 O65 2.424 . S
Nd41 O66 2.500 . S
Nd41 O67 2.492 . S
Nd41 O68 2.487 . S
Nd41 O69 2.682 . S
Nd41 O70 2.410 . S
C42 Nd40 2.836 . S
C42 C43 1.498 . S
C42 O60 1.258 . S
C42 O61 1.239 . S
C43 C42 1.498 . S
C43 C44 1.366 . S
C43 C48 1.407 . S
C44 C43 1.366 . S
C44 C45 1.392 . S
C44 H72 0.930 . S
C45 C44 1.392 . S
C45 C46 1.398 . S
C45 H73 0.929 . S
C46 C45 1.398 . S
C46 C47 1.352 . S
C47 C46 1.352 . S
C47 C48 1.384 . S
C47 H74 0.930 . S
C48 C43 1.407 . S
C48 C47 1.384 . S
C48 H75 0.929 . S
C49 O62 1.241 . S
C49 O63 1.273 . S
C50 O64 1.251 . S
C50 O65 1.268 . S
C51 Nd41 2.836 . S
C51 C52 1.498 . S
C51 O66 1.258 . S
C51 O67 1.239 . S
C52 C51 1.498 . S
C52 C53 1.366 . S
C52 C57 1.407 . S
C53 C52 1.366 . S
C53 C54 1.392 . S
C53 H76 0.930 . S
C54 C53 1.392 . S
C54 C55 1.398 . S
C54 H77 0.929 . S
C55 C54 1.398 . S
C55 C56 1.352 . S
C56 C55 1.352 . S
C56 C57 1.384 . S
C56 H78 0.930 . S
C57 C52 1.407 . S
C57 C56 1.384 . S
C57 H79 0.929 . S
C58 O68 1.241 . S
C58 O69 1.273 . S
C59 O70 1.251 . S
C59 O71 1.268 . S
O60 Nd40 2.500 . S
O60 C42 1.258 . S
O61 Nd40 2.492 . S
O61 C42 1.239 . S
O62 Nd40 2.487 . S
O62 C49 1.241 . S
O63 Nd40 2.682 . S
O63 Nd41 2.414 . S
O63 C49 1.273 . S
O64 Nd40 2.410 . S
O64 C50 1.251 . S
O65 Nd41 2.424 . S
O65 C50 1.268 . S
O66 Nd41 2.500 . S
O66 C51 1.258 . S
O67 Nd41 2.492 . S
O67 C51 1.239 . S
O68 Nd41 2.487 . S
O68 C58 1.241 . S
O69 Nd40 2.414 . S
O69 Nd41 2.682 . S
O69 C58 1.273 . S
O70 Nd41 2.410 . S
O70 C59 1.251 . S
O71 Nd40 2.424 . S
O71 C59 1.268 . S
H72 C44 0.930 . S
H73 C45 0.929 . S
H74 C47 0.930 . S
H75 C48 0.929 . S
H76 C53 0.930 . S
H77 C54 0.929 . S
H78 C56 0.930 . S
H79 C57 0.929 . S
Nd80 C82 2.836 . S
Nd80 O100 2.500 . S
Nd80 O101 2.492 . S
Nd80 O102 2.487 . S
Nd80 O103 2.682 . S
Nd80 O104 2.410 . S
Nd80 O109 2.414 . S
Nd80 O111 2.424 . S
Nd81 C91 2.836 . S
Nd81 O103 2.414 . S
Nd81 O105 2.424 . S
Nd81 O106 2.500 . S
Nd81 O107 2.492 . S
Nd81 O108 2.487 . S
Nd81 O109 2.682 . S
Nd81 O110 2.410 . S
C82 Nd80 2.836 . S
C82 C83 1.498 . S
C82 O100 1.258 . S
C82 O101 1.239 . S
C83 C82 1.498 . S
C83 C84 1.366 . S
C83 C88 1.407 . S
C84 C83 1.366 . S
C84 C85 1.392 . S
C84 H112 0.930 . S
C85 C84 1.392 . S
C85 C86 1.398 . S
C85 H113 0.929 . S
C86 C85 1.398 . S
C86 C87 1.352 . S
C87 C86 1.352 . S
C87 C88 1.384 . S
C87 H114 0.930 . S
C88 C83 1.407 . S
C88 C87 1.384 . S
C88 H115 0.929 . S
C89 O102 1.241 . S
C89 O103 1.273 . S
C90 O104 1.251 . S
C90 O105 1.268 . S
C91 Nd81 2.836 . S
C91 C92 1.498 . S
C91 O106 1.258 . S
C91 O107 1.239 . S
C92 C91 1.498 . S
C92 C93 1.366 . S
C92 C97 1.407 . S
C93 C92 1.366 . S
C93 C94 1.392 . S
C93 H116 0.930 . S
C94 C93 1.392 . S
C94 C95 1.398 . S
C94 H117 0.929 . S
C95 C94 1.398 . S
C95 C96 1.352 . S
C96 C95 1.352 . S
C96 C97 1.384 . S
C96 H118 0.930 . S
C97 C92 1.407 . S
C97 C96 1.384 . S
C97 H119 0.929 . S
C98 O108 1.241 . S
C98 O109 1.273 . S
C99 O110 1.251 . S
C99 O111 1.268 . S
O100 Nd80 2.500 . S
O100 C82 1.258 . S
O101 Nd80 2.492 . S
O101 C82 1.239 . S
O102 Nd80 2.487 . S
O102 C89 1.241 . S
O103 Nd80 2.682 . S
O103 Nd81 2.414 . S
O103 C89 1.273 . S
O104 Nd80 2.410 . S
O104 C90 1.251 . S
O105 Nd81 2.424 . S
O105 C90 1.268 . S
O106 Nd81 2.500 . S
O106 C91 1.258 . S
O107 Nd81 2.492 . S
O107 C91 1.239 . S
O108 Nd81 2.487 . S
O108 C98 1.241 . S
O109 Nd80 2.414 . S
O109 Nd81 2.682 . S
O109 C98 1.273 . S
O110 Nd81 2.410 . S
O110 C99 1.251 . S
O111 Nd80 2.424 . S
O111 C99 1.268 . S
H112 C84 0.930 . S
H113 C85 0.929 . S
H114 C87 0.930 . S
H115 C88 0.929 . S
H116 C93 0.930 . S
H117 C94 0.929 . S
H118 C96 0.930 . S
H119 C97 0.929 . S
Nd120 C122 2.836 . S
Nd120 O140 2.500 . S
Nd120 O141 2.492 . S
Nd120 O142 2.487 . S
Nd120 O143 2.682 . S
Nd120 O144 2.410 . S
Nd120 O149 2.414 . S
Nd120 O151 2.424 . S
Nd121 C131 2.836 . S
Nd121 O143 2.414 . S
Nd121 O145 2.424 . S
Nd121 O146 2.500 . S
Nd121 O147 2.492 . S
Nd121 O148 2.487 . S
Nd121 O149 2.682 . S
Nd121 O150 2.410 . S
C122 Nd120 2.836 . S
C122 C123 1.498 . S
C122 O140 1.258 . S
C122 O141 1.239 . S
C123 C122 1.498 . S
C123 C124 1.366 . S
C123 C128 1.407 . S
C124 C123 1.366 . S
C124 C125 1.392 . S
C124 H152 0.930 . S
C125 C124 1.392 . S
C125 C126 1.398 . S
C125 H153 0.929 . S
C126 C125 1.398 . S
C126 C127 1.352 . S
C127 C126 1.352 . S
C127 C128 1.384 . S
C127 H154 0.930 . S
C128 C123 1.407 . S
C128 C127 1.384 . S
C128 H155 0.929 . S
C129 O142 1.241 . S
C129 O143 1.273 . S
C130 O144 1.251 . S
C130 O145 1.268 . S
C131 Nd121 2.836 . S
C131 C132 1.498 1_556 S
C131 O146 1.258 . S
C131 O147 1.239 . S
C132 C131 1.498 1_554 S
C132 C133 1.366 . S
C132 C137 1.407 . S
C133 C132 1.366 . S
C133 C134 1.392 . S
C133 H156 0.930 . S
C134 C133 1.392 . S
C134 C135 1.398 . S
C134 H157 0.929 . S
C135 C134 1.398 . S
C135 C136 1.352 . S
C136 C135 1.352 . S
C136 C137 1.384 . S
C136 H158 0.930 . S
C137 C132 1.407 . S
C137 C136 1.384 . S
C137 H159 0.929 . S
C138 O148 1.241 . S
C138 O149 1.273 . S
C139 O150 1.251 . S
C139 O151 1.268 . S
O140 Nd120 2.500 . S
O140 C122 1.258 . S
O141 Nd120 2.492 . S
O141 C122 1.239 . S
O142 Nd120 2.487 . S
O142 C129 1.241 . S
O143 Nd120 2.682 . S
O143 Nd121 2.414 . S
O143 C129 1.273 . S
O144 Nd120 2.410 . S
O144 C130 1.251 . S
O145 Nd121 2.424 . S
O145 C130 1.268 . S
O146 Nd121 2.500 . S
O146 C131 1.258 . S
O147 Nd121 2.492 . S
O147 C131 1.239 . S
O148 Nd121 2.487 . S
O148 C138 1.241 . S
O149 Nd120 2.414 . S
O149 Nd121 2.682 . S
O149 C138 1.273 . S
O150 Nd121 2.410 . S
O150 C139 1.251 . S
O151 Nd120 2.424 . S
O151 C139 1.268 . S
H152 C124 0.930 . S
H153 C125 0.929 . S
H154 C127 0.930 . S
H155 C128 0.929 . S
H156 C133 0.930 . S
H157 C134 0.929 . S
H158 C136 0.930 . S
H159 C137 0.929 . S
Nd160 C162 2.836 . S
Nd160 O180 2.500 . S
Nd160 O181 2.492 . S
Nd160 O182 2.487 . S
Nd160 O183 2.682 . S
Nd160 O184 2.410 . S
Nd160 O189 2.414 . S
Nd160 O191 2.424 . S
Nd161 C171 2.836 . S
Nd161 O183 2.414 . S
Nd161 O185 2.424 . S
Nd161 O186 2.500 . S
Nd161 O187 2.492 . S
Nd161 O188 2.487 . S
Nd161 O189 2.682 . S
Nd161 O190 2.410 . S
C162 Nd160 2.836 . S
C162 C163 1.498 . S
C162 O180 1.258 . S
C162 O181 1.239 . S
C163 C162 1.498 . S
C163 C164 1.366 . S
C163 C168 1.407 . S
C164 C163 1.366 . S
C164 C165 1.392 . S
C164 H192 0.930 . S
C165 C164 1.392 . S
C165 C166 1.398 . S
C165 H193 0.929 . S
C166 C165 1.398 . S
C166 C167 1.352 . S
C167 C166 1.352 . S
C167 C168 1.384 . S
C167 H194 0.930 . S
C168 C163 1.407 . S
C168 C167 1.384 . S
C168 H195 0.929 . S
C169 O182 1.241 . S
C169 O183 1.273 . S
C170 O184 1.251 . S
C170 O185 1.268 . S
C171 Nd161 2.836 . S
C171 C172 1.498 . S
C171 O186 1.258 . S
C171 O187 1.239 . S
C172 C171 1.498 . S
C172 C173 1.366 . S
C172 C177 1.407 . S
C173 C172 1.366 . S
C173 C174 1.392 . S
C173 H196 0.930 . S
C174 C173 1.392 . S
C174 C175 1.398 . S
C174 H197 0.929 . S
C175 C174 1.398 . S
C175 C176 1.352 . S
C176 C175 1.352 . S
C176 C177 1.384 . S
C176 H198 0.930 . S
C177 C172 1.407 . S
C177 C176 1.384 . S
C177 H199 0.929 . S
C178 O188 1.241 . S
C178 O189 1.273 . S
C179 O190 1.251 . S
C179 O191 1.268 . S
O180 Nd160 2.500 . S
O180 C162 1.258 . S
O181 Nd160 2.492 . S
O181 C162 1.239 . S
O182 Nd160 2.487 . S
O182 C169 1.241 . S
O183 Nd160 2.682 . S
O183 Nd161 2.414 . S
O183 C169 1.273 . S
O184 Nd160 2.410 . S
O184 C170 1.251 . S
O185 Nd161 2.424 . S
O185 C170 1.268 . S
O186 Nd161 2.500 . S
O186 C171 1.258 . S
O187 Nd161 2.492 . S
O187 C171 1.239 . S
O188 Nd161 2.487 . S
O188 C178 1.241 . S
O189 Nd160 2.414 . S
O189 Nd161 2.682 . S
O189 C178 1.273 . S
O190 Nd161 2.410 . S
O190 C179 1.251 . S
O191 Nd160 2.424 . S
O191 C179 1.268 . S
H192 C164 0.930 . S
H193 C165 0.929 . S
H194 C167 0.930 . S
H195 C168 0.929 . S
H196 C173 0.930 . S
H197 C174 0.929 . S
H198 C176 0.930 . S
H199 C177 0.929 . S
Nd200 C202 2.836 . S
Nd200 O220 2.500 . S
Nd200 O221 2.492 . S
Nd200 O222 2.487 . S
Nd200 O223 2.682 . S
Nd200 O224 2.410 . S
Nd200 O229 2.414 . S
Nd200 O231 2.424 . S
Nd201 C211 2.836 . S
Nd201 O223 2.414 . S
Nd201 O225 2.424 . S
Nd201 O226 2.500 . S
Nd201 O227 2.492 . S
Nd201 O228 2.487 . S
Nd201 O229 2.682 . S
Nd201 O230 2.410 . S
C202 Nd200 2.836 . S
C202 C203 1.498 . S
C202 O220 1.258 . S
C202 O221 1.239 . S
C203 C202 1.498 . S
C203 C204 1.366 . S
C203 C208 1.407 . S
C204 C203 1.366 . S
C204 C205 1.392 . S
C204 H232 0.930 . S
C205 C204 1.392 . S
C205 C206 1.398 . S
C205 H233 0.929 . S
C206 C205 1.398 . S
C206 C207 1.352 . S
C207 C206 1.352 . S
C207 C208 1.384 . S
C207 H234 0.930 . S
C208 C203 1.407 . S
C208 C207 1.384 . S
C208 H235 0.929 . S
C209 O222 1.241 . S
C209 O223 1.273 . S
C210 O224 1.251 . S
C210 O225 1.268 . S
C211 Nd201 2.836 . S
C211 C212 1.498 . S
C211 O226 1.258 . S
C211 O227 1.239 . S
C212 C211 1.498 . S
C212 C213 1.366 . S
C212 C217 1.407 . S
C213 C212 1.366 . S
C213 C214 1.392 1_556 S
C213 H236 0.930 . S
C214 C213 1.392 1_554 S
C214 C215 1.398 . S
C214 H237 0.929 . S
C215 C214 1.398 . S
C215 C216 1.352 . S
C216 C215 1.352 . S
C216 C217 1.384 1_554 S
C216 H238 0.930 . S
C217 C212 1.407 . S
C217 C216 1.384 1_556 S
C217 H239 0.929 . S
C218 O228 1.241 . S
C218 O229 1.273 . S
C219 O230 1.251 . S
C219 O231 1.268 . S
O220 Nd200 2.500 . S
O220 C202 1.258 . S
O221 Nd200 2.492 . S
O221 C202 1.239 . S
O222 Nd200 2.487 . S
O222 C209 1.241 . S
O223 Nd200 2.682 . S
O223 Nd201 2.414 . S
O223 C209 1.273 . S
O224 Nd200 2.410 . S
O224 C210 1.251 . S
O225 Nd201 2.424 . S
O225 C210 1.268 . S
O226 Nd201 2.500 . S
O226 C211 1.258 . S
O227 Nd201 2.492 . S
O227 C211 1.239 . S
O228 Nd201 2.487 . S
O228 C218 1.241 . S
O229 Nd200 2.414 . S
O229 Nd201 2.682 . S
O229 C218 1.273 . S
O230 Nd201 2.410 . S
O230 C219 1.251 . S
O231 Nd200 2.424 . S
O231 C219 1.268 . S
H232 C204 0.930 . S
H233 C205 0.929 . S
H234 C207 0.930 . S
H235 C208 0.929 . S
H236 C213 0.930 . S
H237 C214 0.929 . S
H238 C216 0.930 . S
H239 C217 0.929 . S
Nd240 C242 2.836 1_554 S
Nd240 O260 2.500 1_554 S
Nd240 O261 2.475 1_554 S
Nd240 O262 2.487 . S
Nd240 O263 2.682 . S
Nd240 O264 2.410 . S
Nd240 O269 2.414 . S
Nd240 O271 2.424 . S
Nd241 C251 2.836 . S
Nd241 O263 2.414 . S
Nd241 O265 2.424 . S
Nd241 O266 2.500 . S
Nd241 O267 2.492 . S
Nd241 O268 2.487 . S
Nd241 O269 2.682 . S
Nd241 O270 2.410 . S
C242 Nd240 2.836 1_556 S
C242 C243 1.498 . S
C242 O260 1.258 . S
C242 O261 1.252 . S
C243 C242 1.498 . S
C243 C244 1.366 . S
C243 C248 1.407 . S
C244 C243 1.366 . S
C244 C245 1.392 . S
C244 H272 0.930 . S
C245 C244 1.392 . S
C245 C246 1.398 . S
C245 H273 0.929 . S
C246 C245 1.398 . S
C246 C247 1.352 . S
C247 C246 1.352 . S
C247 C248 1.384 . S
C247 H274 0.930 . S
C248 C243 1.407 . S
C248 C247 1.384 . S
C248 H275 0.929 . S
C249 O262 1.241 . S
C249 O263 1.273 . S
C250 O264 1.251 . S
C250 O265 1.268 . S
C251 Nd241 2.836 . S
C251 C252 1.498 . S
C251 O266 1.258 . S
C251 O267 1.239 . S
C252 C251 1.498 . S
C252 C253 1.366 . S
C252 C257 1.407 . S
C253 C252 1.366 . S
C253 C254 1.392 . S
C253 H276 0.930 . S
C254 C253 1.392 . S
C254 C255 1.398 . S
C254 H277 0.929 . S
C255 C254 1.398 . S
C255 C256 1.352 . S
C256 C255 1.352 . S
C256 C257 1.384 . S
C256 H278 0.930 . S
C257 C252 1.407 . S
C257 C256 1.384 . S
C257 H279 0.929 . S
C258 O268 1.241 . S
C258 O269 1.273 . S
C259 O270 1.251 . S
C259 O271 1.268 . S
O260 Nd240 2.500 1_556 S
O260 C242 1.258 . S
O261 Nd240 2.475 1_556 S
O261 C242 1.252 . S
O262 Nd240 2.487 . S
O262 C249 1.241 . S
O263 Nd240 2.682 . S
O263 Nd241 2.414 . S
O263 C249 1.273 . S
O264 Nd240 2.410 . S
O264 C250 1.251 . S
O265 Nd241 2.424 . S
O265 C250 1.268 . S
O266 Nd241 2.500 . S
O266 C251 1.258 . S
O267 Nd241 2.492 . S
O267 C251 1.239 . S
O268 Nd241 2.487 . S
O268 C258 1.241 . S
O269 Nd240 2.414 . S
O269 Nd241 2.682 . S
O269 C258 1.273 . S
O270 Nd241 2.410 . S
O270 C259 1.251 . S
O271 Nd240 2.424 . S
O271 C259 1.268 . S
H272 C244 0.930 . S
H273 C245 0.929 . S
H274 C247 0.930 . S
H275 C248 0.929 . S
H276 C253 0.930 . S
H277 C254 0.929 . S
H278 C256 0.930 . S
H279 C257 0.929 . S
Nd280 C282 2.836 . S
Nd280 O300 2.500 . S
Nd280 O301 2.492 . S
Nd280 O302 2.487 . S
Nd280 O303 2.682 . S
Nd280 O304 2.410 . S
Nd280 O309 2.414 . S
Nd280 O311 2.424 . S
Nd281 C291 2.836 . S
Nd281 O303 2.414 . S
Nd281 O305 2.424 . S
Nd281 O306 2.500 . S
Nd281 O307 2.492 . S
Nd281 O308 2.487 . S
Nd281 O309 2.682 . S
Nd281 O310 2.410 . S
C282 Nd280 2.836 . S
C282 C283 1.498 . S
C282 O300 1.258 . S
C282 O301 1.239 . S
C283 C282 1.498 . S
C283 C284 1.366 . S
C283 C288 1.407 . S
C284 C283 1.366 . S
C284 C285 1.392 . S
C284 H312 0.930 . S
C285 C284 1.392 . S
C285 C286 1.398 . S
C285 H313 0.929 . S
C286 C285 1.398 . S
C286 C287 1.352 . S
C287 C286 1.352 . S
C287 C288 1.384 . S
C287 H314 0.930 . S
C288 C283 1.407 . S
C288 C287 1.384 . S
C288 H315 0.929 . S
C289 O302 1.241 . S
C289 O303 1.273 . S
C290 O304 1.251 . S
C290 O305 1.268 . S
C291 Nd281 2.836 . S
C291 C292 1.498 . S
C291 O306 1.258 . S
C291 O307 1.239 . S
C292 C291 1.498 . S
C292 C293 1.366 . S
C292 C297 1.407 . S
C293 C292 1.366 . S
C293 C294 1.392 . S
C293 H316 0.930 . S
C294 C293 1.392 . S
C294 C295 1.398 . S
C294 H317 0.929 . S
C295 C294 1.398 . S
C295 C296 1.352 . S
C296 C295 1.352 . S
C296 C297 1.384 . S
C296 H318 0.930 . S
C297 C292 1.407 . S
C297 C296 1.384 . S
C297 H319 0.929 . S
C298 O308 1.241 . S
C298 O309 1.273 . S
C299 O310 1.251 . S
C299 O311 1.268 . S
O300 Nd280 2.500 . S
O300 C282 1.258 . S
O301 Nd280 2.492 . S
O301 C282 1.239 . S
O302 Nd280 2.487 . S
O302 C289 1.241 . S
O303 Nd280 2.682 . S
O303 Nd281 2.414 . S
O303 C289 1.273 . S
O304 Nd280 2.410 . S
O304 C290 1.251 . S
O305 Nd281 2.424 . S
O305 C290 1.268 . S
O306 Nd281 2.500 . S
O306 C291 1.258 . S
O307 Nd281 2.492 . S
O307 C291 1.239 . S
O308 Nd281 2.487 . S
O308 C298 1.241 . S
O309 Nd280 2.414 . S
O309 Nd281 2.682 . S
O309 C298 1.273 . S
O310 Nd281 2.410 . S
O310 C299 1.251 . S
O311 Nd280 2.424 . S
O311 C299 1.268 . S
H312 C284 0.930 . S
H313 C285 0.929 . S
H314 C287 0.930 . S
H315 C288 0.929 . S
H316 C293 0.930 . S
H317 C294 0.929 . S
H318 C296 0.930 . S
H319 C297 0.929 . S
Nd320 C322 2.836 . S
Nd320 O340 2.500 . S
Nd320 O341 2.492 . S
Nd320 O342 2.487 . S
Nd320 O343 2.682 . S
Nd320 O344 2.410 . S
Nd320 O349 2.414 . S
Nd320 O351 2.424 . S
Nd321 C331 2.836 . S
Nd321 O343 2.414 . S
Nd321 O345 2.424 . S
Nd321 O346 2.500 . S
Nd321 O347 2.492 . S
Nd321 O348 2.487 . S
Nd321 O349 2.682 . S
Nd321 O350 2.410 . S
C322 Nd320 2.836 . S
C322 C323 1.498 . S
C322 O340 1.258 . S
C322 O341 1.239 . S
C323 C322 1.498 . S
C323 C324 1.366 . S
C323 C328 1.370 1_655 S
C324 C323 1.366 . S
C324 C325 1.392 . S
C324 H352 0.930 . S
C325 C324 1.392 . S
C325 C326 1.398 1_554 S
C325 H353 0.929 1_554 S
C326 C325 1.398 1_556 S
C326 C327 1.352 1_656 S
C327 C326 1.352 1_454 S
C327 C328 1.393 . S
C327 H354 0.942 . S
C328 C323 1.370 1_455 S
C328 C327 1.393 . S
C328 H355 0.958 . S
C329 O342 1.241 . S
C329 O343 1.273 . S
C330 O344 1.251 . S
C330 O345 1.268 . S
C331 Nd321 2.836 . S
C331 C332 1.498 . S
C331 O346 1.258 . S
C331 O347 1.239 . S
C332 C331 1.498 . S
C332 C333 1.366 . S
C332 C337 1.407 . S
C333 C332 1.366 . S
C333 C334 1.392 . S
C333 H356 0.930 . S
C334 C333 1.392 . S
C334 C335 1.398 . S
C334 H357 0.929 . S
C335 C334 1.398 . S
C335 C336 1.352 . S
C336 C335 1.352 . S
C336 C337 1.384 . S
C336 H358 0.930 . S
C337 C332 1.407 . S
C337 C336 1.384 . S
C337 H359 0.929 . S
C338 O348 1.241 . S
C338 O349 1.273 . S
C339 O350 1.251 . S
C339 O351 1.268 . S
O340 Nd320 2.500 . S
O340 C322 1.258 . S
O341 Nd320 2.492 . S
O341 C322 1.239 . S
O342 Nd320 2.487 . S
O342 C329 1.241 . S
O343 Nd320 2.682 . S
O343 Nd321 2.414 . S
O343 C329 1.273 . S
O344 Nd320 2.410 . S
O344 C330 1.251 . S
O345 Nd321 2.424 . S
O345 C330 1.268 . S
O346 Nd321 2.500 . S
O346 C331 1.258 . S
O347 Nd321 2.492 . S
O347 C331 1.239 . S
O348 Nd321 2.487 . S
O348 C338 1.241 . S
O349 Nd320 2.414 . S
O349 Nd321 2.682 . S
O349 C338 1.273 . S
O350 Nd321 2.410 . S
O350 C339 1.251 . S
O351 Nd320 2.424 . S
O351 C339 1.268 . S
H352 C324 0.930 . S
H353 C325 0.929 1_556 S
H354 C327 0.942 . S
H355 C328 0.958 . S
H356 C333 0.930 . S
H357 C334 0.929 . S
H358 C336 0.930 . S
H359 C337 0.929 . S
Nd360 C362 2.836 . S
Nd360 O380 2.500 . S
Nd360 O381 2.492 . S
Nd360 O382 2.487 . S
Nd360 O383 2.682 . S
Nd360 O384 2.410 . S
Nd360 O389 2.414 . S
Nd360 O391 2.424 . S
Nd361 C371 2.836 1_556 S
Nd361 O383 2.414 . S
Nd361 O385 2.424 . S
Nd361 O386 2.500 1_556 S
Nd361 O387 2.492 1_556 S
Nd361 O388 2.487 . S
Nd361 O389 2.682 . S
Nd361 O390 2.410 1_556 S
C362 Nd360 2.836 . S
C362 C363 1.498 . S
C362 O380 1.258 . S
C362 O381 1.239 . S
C363 C362 1.498 . S
C363 C364 1.366 . S
C363 C368 1.407 . S
C364 C363 1.366 . S
C364 C365 1.392 . S
C364 H392 0.930 . S
C365 C364 1.392 . S
C365 C366 1.398 . S
C365 H393 0.929 . S
C366 C365 1.398 . S
C366 C367 1.352 . S
C367 C366 1.352 . S
C367 C368 1.384 . S
C367 H394 0.930 . S
C368 C363 1.407 . S
C368 C367 1.384 . S
C368 H395 0.929 . S
C369 O382 1.241 . S
C369 O383 1.273 . S
C370 O384 1.251 . S
C370 O385 1.268 . S
C371 Nd361 2.836 1_554 S
C371 C372 1.498 . S
C371 O386 1.258 . S
C371 O387 1.239 . S
C372 C371 1.498 . S
C372 C373 1.366 . S
C372 C377 1.407 . S
C373 C372 1.366 . S
C373 C374 1.392 . S
C373 H396 0.930 . S
C374 C373 1.392 . S
C374 C375 1.398 . S
C374 H397 0.929 . S
C375 C374 1.398 . S
C375 C376 1.352 . S
C376 C375 1.352 . S
C376 C377 1.384 . S
C376 H398 0.930 . S
C377 C372 1.407 . S
C377 C376 1.384 . S
C377 H399 0.929 . S
C378 O388 1.241 . S
C378 O389 1.273 . S
C379 O390 1.251 . S
C379 O391 1.268 1_554 S
O380 Nd360 2.500 . S
O380 C362 1.258 . S
O381 Nd360 2.492 . S
O381 C362 1.239 . S
O382 Nd360 2.487 . S
O382 C369 1.241 . S
O383 Nd360 2.682 . S
O383 Nd361 2.414 . S
O383 C369 1.273 . S
O384 Nd360 2.410 . S
O384 C370 1.251 . S
O385 Nd361 2.424 . S
O385 C370 1.268 . S
O386 Nd361 2.500 1_554 S
O386 C371 1.258 . S
O387 Nd361 2.492 1_554 S
O387 C371 1.239 . S
O388 Nd361 2.487 . S
O388 C378 1.241 . S
O389 Nd360 2.414 . S
O389 Nd361 2.682 . S
O389 C378 1.273 . S
O390 Nd361 2.410 1_554 S
O390 C379 1.251 . S
O391 Nd360 2.424 . S
O391 C379 1.268 1_556 S
H392 C364 0.930 . S
H393 C365 0.929 . S
H394 C367 0.930 . S
H395 C368 0.929 . S
H396 C373 0.930 . S
H397 C374 0.929 . S
H398 C376 0.930 . S
H399 C377 0.929 . S
Nd400 C402 2.836 . S
Nd400 O420 2.500 . S
Nd400 O421 2.492 . S
Nd400 O422 2.487 . S
Nd400 O423 2.682 . S
Nd400 O424 2.410 . S
Nd400 O429 2.414 . S
Nd400 O431 2.424 . S
Nd401 C411 2.836 . S
Nd401 O423 2.414 . S
Nd401 O425 2.424 . S
Nd401 O426 2.500 . S
Nd401 O427 2.492 . S
Nd401 O428 2.487 . S
Nd401 O429 2.682 . S
Nd401 O430 2.410 . S
C402 Nd400 2.836 . S
C402 C403 1.498 . S
C402 O420 1.258 . S
C402 O421 1.239 . S
C403 C402 1.498 . S
C403 C404 1.366 . S
C403 C408 1.407 . S
C404 C403 1.366 . S
C404 C405 1.392 . S
C404 H432 0.930 . S
C405 C404 1.392 . S
C405 C406 1.398 . S
C405 H433 0.929 . S
C406 C405 1.398 . S
C406 C407 1.352 . S
C407 C406 1.352 . S
C407 C408 1.384 . S
C407 H434 0.930 . S
C408 C403 1.407 . S
C408 C407 1.384 . S
C408 H435 0.929 . S
C409 O422 1.241 . S
C409 O423 1.273 . S
C410 O424 1.251 . S
C410 O425 1.268 . S
C411 Nd401 2.836 . S
C411 C412 1.498 . S
C411 O426 1.258 . S
C411 O427 1.239 . S
C412 C411 1.498 . S
C412 C413 1.366 . S
C412 C417 1.407 . S
C413 C412 1.366 . S
C413 C414 1.392 . S
C413 H436 0.930 . S
C414 C413 1.392 . S
C414 C415 1.398 . S
C414 H437 0.929 . S
C415 C414 1.398 . S
C415 C416 1.352 . S
C416 C415 1.352 . S
C416 C417 1.384 . S
C416 H438 0.930 . S
C417 C412 1.407 . S
C417 C416 1.384 . S
C417 H439 0.929 . S
C418 O428 1.241 . S
C418 O429 1.273 . S
C419 O430 1.251 . S
C419 O431 1.268 . S
O420 Nd400 2.500 . S
O420 C402 1.258 . S
O421 Nd400 2.492 . S
O421 C402 1.239 . S
O422 Nd400 2.487 . S
O422 C409 1.241 . S
O423 Nd400 2.682 . S
O423 Nd401 2.414 . S
O423 C409 1.273 . S
O424 Nd400 2.410 . S
O424 C410 1.251 . S
O425 Nd401 2.424 . S
O425 C410 1.268 . S
O426 Nd401 2.500 . S
O426 C411 1.258 . S
O427 Nd401 2.492 . S
O427 C411 1.239 . S
O428 Nd401 2.487 . S
O428 C418 1.241 . S
O429 Nd400 2.414 . S
O429 Nd401 2.682 . S
O429 C418 1.273 . S
O430 Nd401 2.410 . S
O430 C419 1.251 . S
O431 Nd400 2.424 . S
O431 C419 1.268 . S
H432 C404 0.930 . S
H433 C405 0.929 . S
H434 C407 0.930 . S
H435 C408 0.929 . S
H436 C413 0.930 . S
H437 C414 0.929 . S
H438 C416 0.930 . S
H439 C417 0.929 . S
Nd440 C442 2.836 . S
Nd440 O460 2.500 . S
Nd440 O461 2.492 . S
Nd440 O462 2.487 . S
Nd440 O463 2.682 . S
Nd440 O464 2.410 . S
Nd440 O469 2.414 . S
Nd440 O471 2.424 . S
Nd441 C451 2.836 . S
Nd441 O463 2.414 . S
Nd441 O465 2.424 . S
Nd441 O466 2.500 . S
Nd441 O467 2.492 . S
Nd441 O468 2.487 . S
Nd441 O469 2.682 . S
Nd441 O470 2.410 . S
C442 Nd440 2.836 . S
C442 C443 1.498 . S
C442 O460 1.258 . S
C442 O461 1.239 . S
C443 C442 1.498 . S
C443 C444 1.366 . S
C443 C448 1.407 . S
C444 C443 1.366 . S
C444 C445 1.392 . S
C444 H472 0.930 . S
C445 C444 1.392 . S
C445 C446 1.398 . S
C445 H473 0.929 . S
C446 C445 1.398 . S
C446 C447 1.352 . S
C447 C446 1.352 . S
C447 C448 1.384 . S
C447 H474 0.930 . S
C448 C443 1.407 . S
C448 C447 1.384 . S
C448 H475 0.929 . S
C449 O462 1.241 . S
C449 O463 1.273 . S
C450 O464 1.251 . S
C450 O465 1.268 . S
C451 Nd441 2.836 . S
C451 C452 1.498 . S
C451 O466 1.258 . S
C451 O467 1.239 . S
C452 C451 1.498 . S
C452 C453 1.366 . S
C452 C457 1.407 . S
C453 C452 1.366 . S
C453 C454 1.392 . S
C453 H476 0.930 . S
C454 C453 1.392 . S
C454 C455 1.398 . S
C454 H477 0.929 . S
C455 C454 1.398 . S
C455 C456 1.352 . S
C456 C455 1.352 . S
C456 C457 1.384 . S
C456 H478 0.930 . S
C457 C452 1.407 . S
C457 C456 1.384 . S
C457 H479 0.929 . S
C458 O468 1.241 . S
C458 O469 1.273 . S
C459 O470 1.251 . S
C459 O471 1.268 . S
O460 Nd440 2.500 . S
O460 C442 1.258 . S
O461 Nd440 2.492 . S
O461 C442 1.239 . S
O462 Nd440 2.487 . S
O462 C449 1.241 . S
O463 Nd440 2.682 . S
O463 Nd441 2.414 . S
O463 C449 1.273 . S
O464 Nd440 2.410 . S
O464 C450 1.251 . S
O465 Nd441 2.424 . S
O465 C450 1.268 . S
O466 Nd441 2.500 . S
O466 C451 1.258 . S
O467 Nd441 2.492 . S
O467 C451 1.239 . S
O468 Nd441 2.487 . S
O468 C458 1.241 . S
O469 Nd440 2.414 . S
O469 Nd441 2.682 . S
O469 C458 1.273 . S
O470 Nd441 2.410 . S
O470 C459 1.251 . S
O471 Nd440 2.424 . S
O471 C459 1.268 . S
H472 C444 0.930 . S
H473 C445 0.929 . S
H474 C447 0.930 . S
H475 C448 0.929 . S
H476 C453 0.930 . S
H477 C454 0.929 . S
H478 C456 0.930 . S
H479 C457 0.929 . S
Nd480 C482 2.836 . S
Nd480 O500 2.500 . S
Nd480 O501 2.492 . S
Nd480 O502 2.487 . S
Nd480 O503 2.682 . S
Nd480 O504 2.410 . S
Nd480 O509 2.414 . S
Nd480 O511 2.424 . S
Nd481 C491 2.836 . S
Nd481 O503 2.414 . S
Nd481 O505 2.424 . S
Nd481 O506 2.500 . S
Nd481 O507 2.492 . S
Nd481 O508 2.487 . S
Nd481 O509 2.682 . S
Nd481 O510 2.410 . S
C482 Nd480 2.836 . S
C482 C483 1.498 . S
C482 O500 1.258 . S
C482 O501 1.239 . S
C483 C482 1.498 . S
C483 C484 1.366 . S
C483 C488 1.407 . S
C484 C483 1.366 . S
C484 C485 1.392 . S
C484 H512 0.930 . S
C485 C484 1.392 . S
C485 C486 1.398 . S
C485 H513 0.929 . S
C486 C485 1.398 . S
C486 C487 1.352 . S
C487 C486 1.352 . S
C487 C488 1.384 . S
C487 H514 0.930 . S
C488 C483 1.407 . S
C488 C487 1.384 . S
C488 H515 0.929 . S
C489 O502 1.241 . S
C489 O503 1.273 . S
C490 O504 1.251 . S
C490 O505 1.268 . S
C491 Nd481 2.836 . S
C491 C492 1.498 . S
C491 O506 1.258 . S
C491 O507 1.239 . S
C492 C491 1.498 . S
C492 C493 1.366 . S
C492 C497 1.407 . S
C493 C492 1.366 . S
C493 C494 1.392 . S
C493 H516 0.930 . S
C494 C493 1.392 . S
C494 C495 1.398 . S
C494 H517 0.929 . S
C495 C494 1.398 . S
C495 C496 1.352 . S
C496 C495 1.352 . S
C496 C497 1.384 . S
C496 H518 0.930 . S
C497 C492 1.407 . S
C497 C496 1.384 . S
C497 H519 0.929 . S
C498 O508 1.241 . S
C498 O509 1.273 . S
C499 O510 1.251 . S
C499 O511 1.268 . S
O500 Nd480 2.500 . S
O500 C482 1.258 . S
O501 Nd480 2.492 . S
O501 C482 1.239 . S
O502 Nd480 2.487 . S
O502 C489 1.241 . S
O503 Nd480 2.682 . S
O503 Nd481 2.414 . S
O503 C489 1.273 . S
O504 Nd480 2.410 . S
O504 C490 1.251 . S
O505 Nd481 2.424 . S
O505 C490 1.268 . S
O506 Nd481 2.500 . S
O506 C491 1.258 . S
O507 Nd481 2.492 . S
O507 C491 1.239 . S
O508 Nd481 2.487 . S
O508 C498 1.241 . S
O509 Nd480 2.414 . S
O509 Nd481 2.682 . S
O509 C498 1.273 . S
O510 Nd481 2.410 . S
O510 C499 1.251 . S
O511 Nd480 2.424 . S
O511 C499 1.268 . S
H512 C484 0.930 . S
H513 C485 0.929 . S
H514 C487 0.930 . S
H515 C488 0.929 . S
H516 C493 0.930 . S
H517 C494 0.929 . S
H518 C496 0.930 . S
H519 C497 0.929 . S
Nd520 C522 2.836 . S
Nd520 O540 2.500 . S
Nd520 O541 2.492 . S
Nd520 O542 2.487 . S
Nd520 O543 2.682 . S
Nd520 O544 2.410 . S
Nd520 O549 2.414 . S
Nd520 O551 2.424 . S
Nd521 C531 2.836 . S
Nd521 O543 2.414 . S
Nd521 O545 2.424 . S
Nd521 O546 2.500 . S
Nd521 O547 2.492 . S
Nd521 O548 2.487 . S
Nd521 O549 2.682 . S
Nd521 O550 2.410 . S
C522 Nd520 2.836 . S
C522 C523 1.498 . S
C522 O540 1.258 . S
C522 O541 1.239 . S
C523 C522 1.498 . S
C523 C524 1.366 . S
C523 C528 1.407 . S
C524 C523 1.366 . S
C524 C525 1.392 . S
C524 H552 0.930 . S
C525 C524 1.392 . S
C525 C526 1.398 . S
C525 H553 0.929 . S
C526 C525 1.398 . S
C526 C527 1.352 . S
C527 C526 1.352 . S
C527 C528 1.384 . S
C527 H554 0.930 . S
C528 C523 1.407 . S
C528 C527 1.384 . S
C528 H555 0.929 . S
C529 O542 1.241 . S
C529 O543 1.273 . S
C530 O544 1.251 . S
C530 O545 1.268 . S
C531 Nd521 2.836 . S
C531 C532 1.498 . S
C531 O546 1.258 . S
C531 O547 1.239 . S
C532 C531 1.498 . S
C532 C533 1.366 . S
C532 C537 1.407 . S
C533 C532 1.366 . S
C533 C534 1.392 . S
C533 H556 0.930 . S
C534 C533 1.392 . S
C534 C535 1.398 . S
C534 H557 0.929 . S
C535 C534 1.398 . S
C535 C536 1.352 . S
C536 C535 1.352 . S
C536 C537 1.384 . S
C536 H558 0.930 . S
C537 C532 1.407 . S
C537 C536 1.384 . S
C537 H559 0.929 . S
C538 O548 1.241 . S
C538 O549 1.273 . S
C539 O550 1.251 . S
C539 O551 1.268 . S
O540 Nd520 2.500 . S
O540 C522 1.258 . S
O541 Nd520 2.492 . S
O541 C522 1.239 . S
O542 Nd520 2.487 . S
O542 C529 1.241 . S
O543 Nd520 2.682 . S
O543 Nd521 2.414 . S
O543 C529 1.273 . S
O544 Nd520 2.410 . S
O544 C530 1.251 . S
O545 Nd521 2.424 . S
O545 C530 1.268 . S
O546 Nd521 2.500 . S
O546 C531 1.258 . S
O547 Nd521 2.492 . S
O547 C531 1.239 . S
O548 Nd521 2.487 . S
O548 C538 1.241 . S
O549 Nd520 2.414 . S
O549 Nd521 2.682 . S
O549 C538 1.273 . S
O550 Nd521 2.410 . S
O550 C539 1.251 . S
O551 Nd520 2.424 . S
O551 C539 1.268 . S
H552 C524 0.930 . S
H553 C525 0.929 . S
H554 C527 0.930 . S
H555 C528 0.929 . S
H556 C533 0.930 . S
H557 C534 0.929 . S
H558 C536 0.930 . S
H559 C537 0.929 . S
Nd560 C562 2.836 . S
Nd560 O580 2.500 . S
Nd560 O581 2.492 . S
Nd560 O582 2.487 . S
Nd560 O583 2.682 . S
Nd560 O584 2.410 . S
Nd560 O589 2.414 . S
Nd560 O591 2.424 . S
Nd561 C571 2.836 . S
Nd561 O583 2.414 . S
Nd561 O585 2.424 . S
Nd561 O586 2.500 . S
Nd561 O587 2.492 . S
Nd561 O588 2.487 . S
Nd561 O589 2.682 . S
Nd561 O590 2.410 . S
C562 Nd560 2.836 . S
C562 C563 1.498 . S
C562 O580 1.258 . S
C562 O581 1.239 . S
C563 C562 1.498 . S
C563 C564 1.366 . S
C563 C568 1.407 . S
C564 C563 1.366 . S
C564 C565 1.392 . S
C564 H592 0.930 . S
C565 C564 1.392 . S
C565 C566 1.398 . S
C565 H593 0.929 . S
C566 C565 1.398 . S
C566 C567 1.352 . S
C567 C566 1.352 . S
C567 C568 1.384 . S
C567 H594 0.930 . S
C568 C563 1.407 . S
C568 C567 1.384 . S
C568 H595 0.929 . S
C569 O582 1.241 . S
C569 O583 1.273 . S
C570 O584 1.251 . S
C570 O585 1.268 . S
C571 Nd561 2.836 . S
C571 C572 1.498 . S
C571 O586 1.258 . S
C571 O587 1.239 . S
C572 C571 1.498 . S
C572 C573 1.366 . S
C572 C577 1.407 . S
C573 C572 1.366 . S
C573 C574 1.392 . S
C573 H596 0.930 . S
C574 C573 1.392 . S
C574 C575 1.398 . S
C574 H597 0.929 . S
C575 C574 1.398 . S
C575 C576 1.352 . S
C576 C575 1.352 . S
C576 C577 1.384 . S
C576 H598 0.930 . S
C577 C572 1.407 . S
C577 C576 1.384 . S
C577 H599 0.929 . S
C578 O588 1.241 . S
C578 O589 1.273 . S
C579 O590 1.251 . S
C579 O591 1.268 . S
O580 Nd560 2.500 . S
O580 C562 1.258 . S
O581 Nd560 2.492 . S
O581 C562 1.239 . S
O582 Nd560 2.487 . S
O582 C569 1.241 . S
O583 Nd560 2.682 . S
O583 Nd561 2.414 . S
O583 C569 1.273 . S
O584 Nd560 2.410 . S
O584 C570 1.251 . S
O585 Nd561 2.424 . S
O585 C570 1.268 . S
O586 Nd561 2.500 . S
O586 C571 1.258 . S
O587 Nd561 2.492 . S
O587 C571 1.239 . S
O588 Nd561 2.487 . S
O588 C578 1.241 . S
O589 Nd560 2.414 . S
O589 Nd561 2.682 . S
O589 C578 1.273 . S
O590 Nd561 2.410 . S
O590 C579 1.251 . S
O591 Nd560 2.424 . S
O591 C579 1.268 . S
H592 C564 0.930 . S
H593 C565 0.929 . S
H594 C567 0.930 . S
H595 C568 0.929 . S
H596 C573 0.930 . S
H597 C574 0.929 . S
H598 C576 0.930 . S
H599 C577 0.929 . S
Nd600 C602 2.836 . S
Nd600 O620 2.500 . S
Nd600 O621 2.492 . S
Nd600 O622 2.487 . S
Nd600 O623 2.682 1_556 S
Nd600 O624 2.410 . S
Nd600 O629 2.414 . S
Nd600 O631 2.424 1_556 S
Nd601 C611 2.836 . S
Nd601 O623 2.414 . S
Nd601 O625 2.424 1_554 S
Nd601 O626 2.500 . S
Nd601 O627 2.492 . S
Nd601 O628 2.487 . S
Nd601 O629 2.682 1_554 S
Nd601 O630 2.410 . S
C602 Nd600 2.836 . S
C602 C603 1.498 . S
C602 O620 1.258 . S
C602 O621 1.239 . S
C603 C602 1.498 . S
C603 C604 1.366 . S
C603 C608 1.407 . S
C604 C603 1.366 . S
C604 C605 1.392 . S
C604 H632 0.930 . S
C605 C604 1.392 . S
C605 C606 1.398 . S
C605 H633 0.929 . S
C606 C605 1.398 . S
C606 C607 1.352 . S
C607 C606 1.352 . S
C607 C608 1.384 . S
C607 H634 0.930 . S
C608 C603 1.407 . S
C608 C607 1.384 . S
C608 H635 0.929 . S
C609 O622 1.241 1_554 S
C609 O623 1.273 . S
C610 O624 1.251 . S
C610 O625 1.268 . S
C611 Nd601 2.836 . S
C611 C612 1.498 . S
C611 O626 1.258 . S
C611 O627 1.239 . S
C612 C611 1.498 . S
C612 C613 1.366 . S
C612 C617 1.407 . S
C613 C612 1.366 . S
C613 C614 1.392 . S
C613 H636 0.930 . S
C614 C613 1.392 . S
C614 C615 1.398 . S
C614 H637 0.929 . S
C615 C614 1.398 . S
C615 C616 1.352 . S
C616 C615 1.352 . S
C616 C617 1.384 . S
C616 H638 0.930 . S
C617 C612 1.407 . S
C617 C616 1.384 . S
C617 H639 0.929 . S
C618 O628 1.241 1_556 S
C618 O629 1.273 . S
C619 O630 1.251 . S
C619 O631 1.268 . S
O620 Nd600 2.500 . S
O620 C602 1.258 . S
O621 Nd600 2.492 . S
O621 C602 1.239 . S
O622 Nd600 2.487 . S
O622 C609 1.241 1_556 S
O623 Nd600 2.682 1_554 S
O623 Nd601 2.414 . S
O623 C609 1.273 . S
O624 Nd600 2.410 . S
O624 C610 1.251 . S
O625 Nd601 2.424 1_556 S
O625 C610 1.268 . S
O626 Nd601 2.500 . S
O626 C611 1.258 . S
O627 Nd601 2.492 . S
O627 C611 1.239 . S
O628 Nd601 2.487 . S
O628 C618 1.241 1_554 S
O629 Nd600 2.414 . S
O629 Nd601 2.682 1_556 S
O629 C618 1.273 . S
O630 Nd601 2.410 . S
O630 C619 1.251 . S
O631 Nd600 2.424 1_554 S
O631 C619 1.268 . S
H632 C604 0.930 . S
H633 C605 0.929 . S
H634 C607 0.930 . S
H635 C608 0.929 . S
H636 C613 0.930 . S
H637 C614 0.929 . S
H638 C616 0.930 . S
H639 C617 0.929 . S
Nd640 C642 2.836 . S
Nd640 O660 2.500 . S
Nd640 O661 2.492 . S
Nd640 O662 2.487 . S
Nd640 O663 2.682 . S
Nd640 O664 2.410 . S
Nd640 O669 2.414 . S
Nd640 O671 2.424 . S
Nd641 C651 2.836 . S
Nd641 O663 2.414 . S
Nd641 O665 2.424 . S
Nd641 O666 2.500 . S
Nd641 O667 2.492 . S
Nd641 O668 2.487 . S
Nd641 O669 2.682 . S
Nd641 O670 2.410 . S
C642 Nd640 2.836 . S
C642 C643 1.498 . S
C642 O660 1.258 . S
C642 O661 1.239 . S
C643 C642 1.498 . S
C643 C644 1.366 . S
C643 C648 1.407 . S
C644 C643 1.366 . S
C644 C645 1.392 . S
C644 H672 0.930 . S
C645 C644 1.392 . S
C645 C646 1.398 . S
C645 H673 0.929 . S
C646 C645 1.398 . S
C646 C647 1.352 . S
C647 C646 1.352 . S
C647 C648 1.384 . S
C647 H674 0.930 . S
C648 C643 1.407 . S
C648 C647 1.384 . S
C648 H675 0.929 . S
C649 O662 1.241 . S
C649 O663 1.273 . S
C650 O664 1.251 . S
C650 O665 1.268 . S
C651 Nd641 2.836 . S
C651 C652 1.498 . S
C651 O666 1.258 . S
C651 O667 1.239 . S
C652 C651 1.498 . S
C652 C653 1.366 . S
C652 C657 1.407 . S
C653 C652 1.366 . S
C653 C654 1.392 . S
C653 H676 0.930 . S
C654 C653 1.392 . S
C654 C655 1.398 . S
C654 H677 0.929 . S
C655 C654 1.398 . S
C655 C656 1.352 . S
C656 C655 1.352 . S
C656 C657 1.384 . S
C656 H678 0.930 . S
C657 C652 1.407 . S
C657 C656 1.384 . S
C657 H679 0.929 . S
C658 O668 1.241 . S
C658 O669 1.273 . S
C659 O670 1.251 . S
C659 O671 1.268 . S
O660 Nd640 2.500 . S
O660 C642 1.258 . S
O661 Nd640 2.492 . S
O661 C642 1.239 . S
O662 Nd640 2.487 . S
O662 C649 1.241 . S
O663 Nd640 2.682 . S
O663 Nd641 2.414 . S
O663 C649 1.273 . S
O664 Nd640 2.410 . S
O664 C650 1.251 . S
O665 Nd641 2.424 . S
O665 C650 1.268 . S
O666 Nd641 2.500 . S
O666 C651 1.258 . S
O667 Nd641 2.492 . S
O667 C651 1.239 . S
O668 Nd641 2.487 . S
O668 C658 1.241 . S
O669 Nd640 2.414 . S
O669 Nd641 2.682 . S
O669 C658 1.273 . S
O670 Nd641 2.410 . S
O670 C659 1.251 . S
O671 Nd640 2.424 . S
O671 C659 1.268 . S
H672 C644 0.930 . S
H673 C645 0.929 . S
H674 C647 0.930 . S
H675 C648 0.929 . S
H676 C653 0.930 . S
H677 C654 0.929 . S
H678 C656 0.930 . S
H679 C657 0.929 . S
Nd680 C682 2.836 . S
Nd680 O700 2.500 . S
Nd680 O701 2.492 . S
Nd680 O702 2.487 . S
Nd680 O703 2.682 . S
Nd680 O704 2.410 . S
Nd680 O709 2.414 . S
Nd680 O711 2.424 . S
Nd681 C691 2.836 . S
Nd681 O703 2.414 . S
Nd681 O705 2.424 . S
Nd681 O706 2.500 . S
Nd681 O707 2.492 . S
Nd681 O708 2.487 . S
Nd681 O709 2.682 . S
Nd681 O710 2.410 . S
C682 Nd680 2.836 . S
C682 C683 1.498 . S
C682 O700 1.258 . S
C682 O701 1.239 . S
C683 C682 1.498 . S
C683 C684 1.366 . S
C683 C688 1.407 . S
C684 C683 1.366 . S
C684 C685 1.392 . S
C684 H712 0.930 . S
C685 C684 1.392 . S
C685 C686 1.398 . S
C685 H713 0.929 . S
C686 C685 1.398 . S
C686 C687 1.352 . S
C687 C686 1.352 . S
C687 C688 1.384 . S
C687 H714 0.930 . S
C688 C683 1.407 . S
C688 C687 1.384 . S
C688 H715 0.929 . S
C689 O702 1.241 . S
C689 O703 1.273 . S
C690 O704 1.251 . S
C690 O705 1.268 . S
C691 Nd681 2.836 . S
C691 C692 1.498 1_556 S
C691 O706 1.258 . S
C691 O707 1.239 . S
C692 C691 1.498 1_554 S
C692 C693 1.366 . S
C692 C697 1.407 . S
C693 C692 1.366 . S
C693 C694 1.392 . S
C693 H716 0.930 . S
C694 C693 1.392 . S
C694 C695 1.398 . S
C694 H717 0.929 . S
C695 C694 1.398 . S
C695 C696 1.352 . S
C696 C695 1.352 . S
C696 C697 1.384 . S
C696 H718 0.930 . S
C697 C692 1.407 . S
C697 C696 1.384 . S
C697 H719 0.929 . S
C698 O708 1.241 . S
C698 O709 1.273 . S
C699 O710 1.251 . S
C699 O711 1.268 . S
O700 Nd680 2.500 . S
O700 C682 1.258 . S
O701 Nd680 2.492 . S
O701 C682 1.239 . S
O702 Nd680 2.487 . S
O702 C689 1.241 . S
O703 Nd680 2.682 . S
O703 Nd681 2.414 . S
O703 C689 1.273 . S
O704 Nd680 2.410 . S
O704 C690 1.251 . S
O705 Nd681 2.424 . S
O705 C690 1.268 . S
O706 Nd681 2.500 . S
O706 C691 1.258 . S
O707 Nd681 2.492 . S
O707 C691 1.239 . S
O708 Nd681 2.487 . S
O708 C698 1.241 . S
O709 Nd680 2.414 . S
O709 Nd681 2.682 . S
O709 C698 1.273 . S
O710 Nd681 2.410 . S
O710 C699 1.251 . S
O711 Nd680 2.424 . S
O711 C699 1.268 . S
H712 C684 0.930 . S
H713 C685 0.929 . S
H714 C687 0.930 . S
H715 C688 0.929 . S
H716 C693 0.930 . S
H717 C694 0.929 . S
H718 C696 0.930 . S
H719 C697 0.929 . S
Nd720 C722 2.836 . S
Nd720 O740 2.500 . S
Nd720 O741 2.492 . S
Nd720 O742 2.487 . S
Nd720 O743 2.682 . S
Nd720 O744 2.410 . S
Nd720 O749 2.414 . S
Nd720 O751 2.424 . S
Nd721 C731 2.836 . S
Nd721 O743 2.414 . S
Nd721 O745 2.424 . S
Nd721 O746 2.500 . S
Nd721 O747 2.492 . S
Nd721 O748 2.487 . S
Nd721 O749 2.682 . S
Nd721 O750 2.410 . S
C722 Nd720 2.836 . S
C722 C723 1.498 1_554 S
C722 O740 1.258 . S
C722 O741 1.239 . S
C723 C722 1.498 1_556 S
C723 C724 1.366 . S
C723 C728 1.407 . S
C724 C723 1.366 . S
C724 C725 1.392 . S
C724 H752 0.930 . S
C725 C724 1.392 . S
C725 C726 1.398 . S
C725 H753 0.929 . S
C726 C725 1.398 . S
C726 C727 1.352 . S
C727 C726 1.352 . S
C727 C728 1.384 . S
C727 H754 0.930 . S
C728 C723 1.407 . S
C728 C727 1.384 . S
C728 H755 0.929 . S
C729 O742 1.241 . S
C729 O743 1.273 . S
C730 O744 1.251 . S
C730 O745 1.268 . S
C731 Nd721 2.836 . S
C731 C732 1.498 . S
C731 O746 1.258 . S
C731 O747 1.239 . S
C732 C731 1.498 . S
C732 C733 1.366 . S
C732 C737 1.370 1_655 S
C733 C732 1.366 . S
C733 C734 1.392 . S
C733 H756 0.930 . S
C734 C733 1.392 . S
C734 C735 1.398 . S
C734 H757 0.929 . S
C735 C734 1.398 . S
C735 C736 1.352 1_655 S
C736 C735 1.352 1_455 S
C736 C737 1.393 . S
C736 H758 0.930 . S
C737 C732 1.370 1_455 S
C737 C736 1.393 . S
C737 H759 0.958 . S
C738 O748 1.241 . S
C738 O749 1.273 . S
C739 O750 1.251 . S
C739 O751 1.268 . S
O740 Nd720 2.500 . S
O740 C722 1.258 . S
O741 Nd720 2.492 . S
O741 C722 1.239 . S
O742 Nd720 2.487 . S
O742 C729 1.241 . S
O743 Nd720 2.682 . S
O743 Nd721 2.414 . S
O743 C729 1.273 . S
O744 Nd720 2.410 . S
O744 C730 1.251 . S
O745 Nd721 2.424 . S
O745 C730 1.268 . S
O746 Nd721 2.500 . S
O746 C731 1.258 . S
O747 Nd721 2.492 . S
O747 C731 1.239 . S
O748 Nd721 2.487 . S
O748 C738 1.241 . S
O749 Nd720 2.414 . S
O749 Nd721 2.682 . S
O749 C738 1.273 . S
O750 Nd721 2.410 . S
O750 C739 1.251 . S
O751 Nd720 2.424 . S
O751 C739 1.268 . S
H752 C724 0.930 . S
H753 C725 0.929 . S
H754 C727 0.930 . S
H755 C728 0.929 . S
H756 C733 0.930 . S
H757 C734 0.929 . S
H758 C736 0.930 . S
H759 C737 0.958 . S
Nd760 C762 2.836 . S
Nd760 O780 2.500 . S
Nd760 O781 2.492 . S
Nd760 O782 2.487 . S
Nd760 O783 2.682 . S
Nd760 O784 2.410 . S
Nd760 O789 2.414 . S
Nd760 O791 2.424 . S
Nd761 C771 2.836 . S
Nd761 O783 2.414 . S
Nd761 O785 2.424 . S
Nd761 O786 2.500 . S
Nd761 O787 2.492 . S
Nd761 O788 2.487 . S
Nd761 O789 2.682 . S
Nd761 O790 2.410 . S
C762 Nd760 2.836 . S
C762 C763 1.498 . S
C762 O780 1.258 . S
C762 O781 1.239 . S
C763 C762 1.498 . S
C763 C764 1.366 . S
C763 C768 1.407 . S
C764 C763 1.366 . S
C764 C765 1.392 . S
C764 H792 0.930 . S
C765 C764 1.392 . S
C765 C766 1.398 . S
C765 H793 0.929 . S
C766 C765 1.398 . S
C766 C767 1.352 . S
C767 C766 1.352 . S
C767 C768 1.384 . S
C767 H794 0.930 . S
C768 C763 1.407 . S
C768 C767 1.384 . S
C768 H795 0.929 . S
C769 O782 1.241 . S
C769 O783 1.273 . S
C770 O784 1.251 . S
C770 O785 1.268 . S
C771 Nd761 2.836 . S
C771 C772 1.498 . S
C771 O786 1.258 . S
C771 O787 1.239 . S
C772 C771 1.498 . S
C772 C773 1.366 . S
C772 C777 1.407 . S
C773 C772 1.366 . S
C773 C774 1.392 . S
C773 H796 0.930 . S
C774 C773 1.392 . S
C774 C775 1.398 . S
C774 H797 0.929 . S
C775 C774 1.398 . S
C775 C776 1.352 . S
C776 C775 1.352 . S
C776 C777 1.384 . S
C776 H798 0.930 . S
C777 C772 1.407 . S
C777 C776 1.384 . S
C777 H799 0.929 . S
C778 O788 1.241 . S
C778 O789 1.273 . S
C779 O790 1.251 . S
C779 O791 1.268 . S
O780 Nd760 2.500 . S
O780 C762 1.258 . S
O781 Nd760 2.492 . S
O781 C762 1.239 . S
O782 Nd760 2.487 . S
O782 C769 1.241 . S
O783 Nd760 2.682 . S
O783 Nd761 2.414 . S
O783 C769 1.273 . S
O784 Nd760 2.410 . S
O784 C770 1.251 . S
O785 Nd761 2.424 . S
O785 C770 1.268 . S
O786 Nd761 2.500 . S
O786 C771 1.258 . S
O787 Nd761 2.492 . S
O787 C771 1.239 . S
O788 Nd761 2.487 . S
O788 C778 1.241 . S
O789 Nd760 2.414 . S
O789 Nd761 2.682 . S
O789 C778 1.273 . S
O790 Nd761 2.410 . S
O790 C779 1.251 . S
O791 Nd760 2.424 . S
O791 C779 1.268 . S
H792 C764 0.930 . S
H793 C765 0.929 . S
H794 C767 0.930 . S
H795 C768 0.929 . S
H796 C773 0.930 . S
H797 C774 0.929 . S
H798 C776 0.930 . S
H799 C777 0.929 . S
Nd800 C802 2.836 1_554 S
Nd800 O820 2.500 1_554 S
Nd800 O821 2.475 1_544 S
Nd800 O822 2.487 1_545 S
Nd800 O823 2.682 . S
Nd800 O824 2.410 . S
Nd800 O829 2.414 . S
Nd800 O831 2.424 . S
Nd801 C811 2.836 . S
Nd801 O823 2.414 . S
Nd801 O825 2.424 . S
Nd801 O826 2.500 . S
Nd801 O827 2.492 . S
Nd801 O828 2.487 . S
Nd801 O829 2.682 . S
Nd801 O830 2.410 . S
C802 Nd800 2.836 1_556 S
C802 C803 1.498 1_545 S
C802 O820 1.258 . S
C802 O821 1.252 1_545 S
C803 C802 1.498 1_565 S
C803 C804 1.366 1_565 S
C803 C808 1.407 . S
C804 C803 1.366 1_545 S
C804 C805 1.392 . S
C804 H832 0.930 . S
C805 C804 1.392 . S
C805 C806 1.398 1_545 S
C805 H833 0.929 . S
C806 C805 1.398 1_565 S
C806 C807 1.352 . S
C807 C806 1.352 . S
C807 C808 1.384 . S
C807 H834 0.930 . S
C808 C803 1.407 . S
C808 C807 1.384 . S
C808 H835 0.929 . S
C809 O822 1.241 1_545 S
C809 O823 1.273 . S
C810 O824 1.251 . S
C810 O825 1.268 . S
C811 Nd801 2.836 . S
C811 C812 1.498 . S
C811 O826 1.258 . S
C811 O827 1.239 . S
C812 C811 1.498 . S
C812 C813 1.366 . S
C812 C817 1.407 . S
C813 C812 1.366 . S
C813 C814 1.392 . S
C813 H836 0.930 . S
C814 C813 1.392 . S
C814 C815 1.398 . S
C814 H837 0.929 . S
C815 C814 1.398 . S
C815 C816 1.352 . S
C816 C815 1.352 . S
C816 C817 1.384 . S
C816 H838 0.930 . S
C817 C812 1.407 . S
C817 C816 1.384 . S
C817 H839 0.929 . S
C818 O828 1.241 . S
C818 O829 1.273 . S
C819 O830 1.251 . S
C819 O831 1.268 . S
O820 Nd800 2.500 1_556 S
O820 C802 1.258 . S
O821 Nd800 2.475 1_566 S
O821 C802 1.252 1_565 S
O822 Nd800 2.487 1_565 S
O822 C809 1.241 1_565 S
O823 Nd800 2.682 . S
O823 Nd801 2.414 . S
O823 C809 1.273 . S
O824 Nd800 2.410 . S
O824 C810 1.251 . S
O825 Nd801 2.424 . S
O825 C810 1.268 . S
O826 Nd801 2.500 . S
O826 C811 1.258 . S
O827 Nd801 2.492 . S
O827 C811 1.239 . S
O828 Nd801 2.487 . S
O828 C818 1.241 . S
O829 Nd800 2.414 . S
O829 Nd801 2.682 . S
O829 C818 1.273 . S
O830 Nd801 2.410 . S
O830 C819 1.251 . S
O831 Nd800 2.424 . S
O831 C819 1.268 . S
H832 C804 0.930 . S
H833 C805 0.929 . S
H834 C807 0.930 . S
H835 C808 0.929 . S
H836 C813 0.930 . S
H837 C814 0.929 . S
H838 C816 0.930 . S
H839 C817 0.929 . S
Nd840 C842 2.836 . S
Nd840 O860 2.500 . S
Nd840 O861 2.492 . S
Nd840 O862 2.487 . S
Nd840 O863 2.682 . S
Nd840 O864 2.410 . S
Nd840 O869 2.414 . S
Nd840 O871 2.424 . S
Nd841 C851 2.836 . S
Nd841 O863 2.414 . S
Nd841 O865 2.424 . S
Nd841 O866 2.500 . S
Nd841 O867 2.492 . S
Nd841 O868 2.487 . S
Nd841 O869 2.682 . S
Nd841 O870 2.410 . S
C842 Nd840 2.836 . S
C842 C843 1.498 . S
C842 O860 1.258 . S
C842 O861 1.239 . S
C843 C842 1.498 . S
C843 C844 1.366 . S
C843 C848 1.407 . S
C844 C843 1.366 . S
C844 C845 1.392 . S
C844 H872 0.930 . S
C845 C844 1.392 . S
C845 C846 1.398 . S
C845 H873 0.929 . S
C846 C845 1.398 . S
C846 C847 1.352 . S
C847 C846 1.352 . S
C847 C848 1.384 . S
C847 H874 0.930 . S
C848 C843 1.407 . S
C848 C847 1.384 . S
C848 H875 0.929 . S
C849 O862 1.241 . S
C849 O863 1.273 . S
C850 O864 1.251 . S
C850 O865 1.268 . S
C851 Nd841 2.836 . S
C851 C852 1.498 . S
C851 O866 1.258 . S
C851 O867 1.239 . S
C852 C851 1.498 . S
C852 C853 1.366 . S
C852 C857 1.407 . S
C853 C852 1.366 . S
C853 C854 1.392 . S
C853 H876 0.930 . S
C854 C853 1.392 . S
C854 C855 1.398 . S
C854 H877 0.929 . S
C855 C854 1.398 . S
C855 C856 1.352 . S
C856 C855 1.352 . S
C856 C857 1.384 . S
C856 H878 0.930 . S
C857 C852 1.407 . S
C857 C856 1.384 . S
C857 H879 0.929 . S
C858 O868 1.241 . S
C858 O869 1.273 . S
C859 O870 1.251 . S
C859 O871 1.268 . S
O860 Nd840 2.500 . S
O860 C842 1.258 . S
O861 Nd840 2.492 . S
O861 C842 1.239 . S
O862 Nd840 2.487 . S
O862 C849 1.241 . S
O863 Nd840 2.682 . S
O863 Nd841 2.414 . S
O863 C849 1.273 . S
O864 Nd840 2.410 . S
O864 C850 1.251 . S
O865 Nd841 2.424 . S
O865 C850 1.268 . S
O866 Nd841 2.500 . S
O866 C851 1.258 . S
O867 Nd841 2.492 . S
O867 C851 1.239 . S
O868 Nd841 2.487 . S
O868 C858 1.241 . S
O869 Nd840 2.414 . S
O869 Nd841 2.682 . S
O869 C858 1.273 . S
O870 Nd841 2.410 . S
O870 C859 1.251 . S
O871 Nd840 2.424 . S
O871 C859 1.268 . S
H872 C844 0.930 . S
H873 C845 0.929 . S
H874 C847 0.930 . S
H875 C848 0.929 . S
H876 C853 0.930 . S
H877 C854 0.929 . S
H878 C856 0.930 . S
H879 C857 0.929 . S
Nd880 C882 2.836 . S
Nd880 O900 2.500 . S
Nd880 O901 2.492 1_565 S
Nd880 O902 2.487 1_565 S
Nd880 O903 2.682 . S
Nd880 O904 2.410 . S
Nd880 O909 2.414 . S
Nd880 O911 2.424 . S
Nd881 C891 2.836 . S
Nd881 O903 2.414 . S
Nd881 O905 2.424 . S
Nd881 O906 2.500 . S
Nd881 O907 2.492 . S
Nd881 O908 2.487 . S
Nd881 O909 2.682 . S
Nd881 O910 2.410 . S
C882 Nd880 2.836 . S
C882 C883 1.498 1_565 S
C882 O900 1.258 . S
C882 O901 1.239 1_565 S
C883 C882 1.498 1_545 S
C883 C884 1.366 1_545 S
C883 C888 1.407 . S
C884 C883 1.366 1_565 S
C884 C885 1.392 . S
C884 H912 0.930 . S
C885 C884 1.392 . S
C885 C886 1.398 1_565 S
C885 H913 0.929 . S
C886 C885 1.398 1_545 S
C886 C887 1.352 . S
C887 C886 1.352 . S
C887 C888 1.384 . S
C887 H914 0.930 . S
C888 C883 1.407 . S
C888 C887 1.384 . S
C888 H915 0.929 . S
C889 O902 1.241 1_565 S
C889 O903 1.273 . S
C890 O904 1.251 . S
C890 O905 1.268 . S
C891 Nd881 2.836 . S
C891 C892 1.498 . S
C891 O906 1.258 . S
C891 O907 1.239 . S
C892 C891 1.498 . S
C892 C893 1.366 . S
C892 C897 1.407 . S
C893 C892 1.366 . S
C893 C894 1.392 . S
C893 H916 0.930 . S
C894 C893 1.392 . S
C894 C895 1.398 . S
C894 H917 0.929 . S
C895 C894 1.398 . S
C895 C896 1.352 . S
C896 C895 1.352 . S
C896 C897 1.384 . S
C896 H918 0.930 . S
C897 C892 1.407 . S
C897 C896 1.384 . S
C897 H919 0.929 . S
C898 O908 1.241 . S
C898 O909 1.273 . S
C899 O910 1.251 . S
C899 O911 1.268 . S
O900 Nd880 2.500 . S
O900 C882 1.258 . S
O901 Nd880 2.492 1_545 S
O901 C882 1.239 1_545 S
O902 Nd880 2.487 1_545 S
O902 C889 1.241 1_545 S
O903 Nd880 2.682 . S
O903 Nd881 2.414 . S
O903 C889 1.273 . S
O904 Nd880 2.410 . S
O904 C890 1.251 . S
O905 Nd881 2.424 . S
O905 C890 1.268 . S
O906 Nd881 2.500 . S
O906 C891 1.258 . S
O907 Nd881 2.492 . S
O907 C891 1.239 . S
O908 Nd881 2.487 . S
O908 C898 1.241 . S
O909 Nd880 2.414 . S
O909 Nd881 2.682 . S
O909 C898 1.273 . S
O910 Nd881 2.410 . S
O910 C899 1.251 . S
O911 Nd880 2.424 . S
O911 C899 1.268 . S
H912 C884 0.930 . S
H913 C885 0.929 . S
H914 C887 0.930 . S
H915 C888 0.929 . S
H916 C893 0.930 . S
H917 C894 0.929 . S
H918 C896 0.930 . S
H919 C897 0.929 . S
Nd920 C922 2.836 . S
Nd920 O940 2.500 . S
Nd920 O941 2.492 . S
Nd920 O942 2.487 . S
Nd920 O943 2.682 . S
Nd920 O944 2.410 . S
Nd920 O949 2.414 . S
Nd920 O951 2.424 . S
Nd921 C931 2.836 . S
Nd921 O943 2.414 . S
Nd921 O945 2.424 . S
Nd921 O946 2.500 . S
Nd921 O947 2.492 . S
Nd921 O948 2.487 . S
Nd921 O949 2.682 . S
Nd921 O950 2.410 . S
C922 Nd920 2.836 . S
C922 C923 1.498 . S
C922 O940 1.258 . S
C922 O941 1.239 . S
C923 C922 1.498 . S
C923 C924 1.366 . S
C923 C928 1.407 . S
C924 C923 1.366 . S
C924 C925 1.392 . S
C924 H952 0.930 . S
C925 C924 1.392 . S
C925 C926 1.398 . S
C925 H953 0.929 . S
C926 C925 1.398 . S
C926 C927 1.352 . S
C927 C926 1.352 . S
C927 C928 1.384 . S
C927 H954 0.930 . S
C928 C923 1.407 . S
C928 C927 1.384 . S
C928 H955 0.929 . S
C929 O942 1.241 . S
C929 O943 1.273 . S
C930 O944 1.251 . S
C930 O945 1.268 . S
C931 Nd921 2.836 . S
C931 C932 1.498 . S
C931 O946 1.258 . S
C931 O947 1.239 . S
C932 C931 1.498 . S
C932 C933 1.366 . S
C932 C937 1.407 . S
C933 C932 1.366 . S
C933 C934 1.392 1_556 S
C933 H956 0.930 . S
C934 C933 1.392 1_554 S
C934 C935 1.398 . S
C934 H957 0.929 . S
C935 C934 1.398 . S
C935 C936 1.352 . S
C936 C935 1.352 . S
C936 C937 1.384 1_554 S
C936 H958 0.930 . S
C937 C932 1.407 . S
C937 C936 1.384 1_556 S
C937 H959 0.929 . S
C938 O948 1.241 . S
C938 O949 1.273 . S
C939 O950 1.251 . S
C939 O951 1.268 . S
O940 Nd920 2.500 . S
O940 C922 1.258 . S
O941 Nd920 2.492 . S
O941 C922 1.239 . S
O942 Nd920 2.487 . S
O942 C929 1.241 . S
O943 Nd920 2.682 . S
O943 Nd921 2.414 . S
O943 C929 1.273 . S
O944 Nd920 2.410 . S
O944 C930 1.251 . S
O945 Nd921 2.424 . S
O945 C930 1.268 . S
O946 Nd921 2.500 . S
O946 C931 1.258 . S
O947 Nd921 2.492 . S
O947 C931 1.239 . S
O948 Nd921 2.487 . S
O948 C938 1.241 . S
O949 Nd920 2.414 . S
O949 Nd921 2.682 . S
O949 C938 1.273 . S
O950 Nd921 2.410 . S
O950 C939 1.251 . S
O951 Nd920 2.424 . S
O951 C939 1.268 . S
H952 C924 0.930 . S
H953 C925 0.929 . S
H954 C927 0.930 . S
H955 C928 0.929 . S
H956 C933 0.930 . S
H957 C934 0.929 . S
H958 C936 0.930 . S
H959 C937 0.929 . S
Nd960 C962 2.836 . S
Nd960 O980 2.500 . S
Nd960 O981 2.492 . S
Nd960 O982 2.487 . S
Nd960 O983 2.682 . S
Nd960 O984 2.410 . S
Nd960 O989 2.414 . S
Nd960 O991 2.424 . S
Nd961 C971 2.836 . S
Nd961 O983 2.414 . S
Nd961 O985 2.424 . S
Nd961 O986 2.500 . S
Nd961 O987 2.492 . S
Nd961 O988 2.487 . S
Nd961 O989 2.682 . S
Nd961 O990 2.410 . S
C962 Nd960 2.836 . S
C962 C963 1.498 . S
C962 O980 1.258 . S
C962 O981 1.239 . S
C963 C962 1.498 . S
C963 C964 1.366 . S
C963 C968 1.407 . S
C964 C963 1.366 . S
C964 C965 1.392 . S
C964 H992 0.930 . S
C965 C964 1.392 . S
C965 C966 1.398 . S
C965 H993 0.929 . S
C966 C965 1.398 . S
C966 C967 1.352 . S
C967 C966 1.352 . S
C967 C968 1.384 . S
C967 H994 0.930 . S
C968 C963 1.407 . S
C968 C967 1.384 . S
C968 H995 0.929 . S
C969 O982 1.241 . S
C969 O983 1.273 . S
C970 O984 1.251 . S
C970 O985 1.268 . S
C971 Nd961 2.836 . S
C971 C972 1.498 . S
C971 O986 1.258 . S
C971 O987 1.239 . S
C972 C971 1.498 . S
C972 C973 1.366 . S
C972 C977 1.407 . S
C973 C972 1.366 . S
C973 C974 1.392 . S
C973 H996 0.930 . S
C974 C973 1.392 . S
C974 C975 1.398 . S
C974 H997 0.929 . S
C975 C974 1.398 . S
C975 C976 1.352 . S
C976 C975 1.352 . S
C976 C977 1.384 . S
C976 H998 0.930 . S
C977 C972 1.407 . S
C977 C976 1.384 . S
C977 H999 0.929 . S
C978 O988 1.241 . S
C978 O989 1.273 . S
C979 O990 1.251 . S
C979 O991 1.268 . S
O980 Nd960 2.500 . S
O980 C962 1.258 . S
O981 Nd960 2.492 . S
O981 C962 1.239 . S
O982 Nd960 2.487 . S
O982 C969 1.241 . S
O983 Nd960 2.682 . S
O983 Nd961 2.414 . S
O983 C969 1.273 . S
O984 Nd960 2.410 . S
O984 C970 1.251 . S
O985 Nd961 2.424 . S
O985 C970 1.268 . S
O986 Nd961 2.500 . S
O986 C971 1.258 . S
O987 Nd961 2.492 . S
O987 C971 1.239 . S
O988 Nd961 2.487 . S
O988 C978 1.241 . S
O989 Nd960 2.414 . S
O989 Nd961 2.682 . S
O989 C978 1.273 . S
O990 Nd961 2.410 . S
O990 C979 1.251 . S
O991 Nd960 2.424 . S
O991 C979 1.268 . S
H992 C964 0.930 . S
H993 C965 0.929 . S
H994 C967 0.930 . S
H995 C968 0.929 . S
H996 C973 0.930 . S
H997 C974 0.929 . S
H998 C976 0.930 . S
H999 C977 0.929 . S
Nd1000 C1002 2.836 . S
Nd1000 O1020 2.500 . S
Nd1000 O1021 2.492 . S
Nd1000 O1022 2.487 . S
Nd1000 O1023 2.682 . S
Nd1000 O1024 2.410 . S
Nd1000 O1029 2.414 . S
Nd1000 O1031 2.424 . S
Nd1001 C1011 2.836 . S
Nd1001 O1023 2.414 . S
Nd1001 O1025 2.424 . S
Nd1001 O1026 2.500 . S
Nd1001 O1027 2.492 . S
Nd1001 O1028 2.487 . S
Nd1001 O1029 2.682 . S
Nd1001 O1030 2.410 . S
C1002 Nd1000 2.836 . S
C1002 C1003 1.498 . S
C1002 O1020 1.258 . S
C1002 O1021 1.239 . S
C1003 C1002 1.498 . S
C1003 C1004 1.366 . S
C1003 C1008 1.407 . S
C1004 C1003 1.366 . S
C1004 C1005 1.392 . S
C1004 H1032 0.930 . S
C1005 C1004 1.392 . S
C1005 C1006 1.398 . S
C1005 H1033 0.929 . S
C1006 C1005 1.398 . S
C1006 C1007 1.352 . S
C1007 C1006 1.352 . S
C1007 C1008 1.384 . S
C1007 H1034 0.930 . S
C1008 C1003 1.407 . S
C1008 C1007 1.384 . S
C1008 H1035 0.929 . S
C1009 O1022 1.241 . S
C1009 O1023 1.273 . S
C1010 O1024 1.251 . S
C1010 O1025 1.268 . S
C1011 Nd1001 2.836 . S
C1011 C1012 1.498 . S
C1011 O1026 1.258 . S
C1011 O1027 1.239 . S
C1012 C1011 1.498 . S
C1012 C1013 1.366 . S
C1012 C1017 1.407 . S
C1013 C1012 1.366 . S
C1013 C1014 1.392 . S
C1013 H1036 0.930 . S
C1014 C1013 1.392 . S
C1014 C1015 1.398 . S
C1014 H1037 0.929 . S
C1015 C1014 1.398 . S
C1015 C1016 1.352 . S
C1016 C1015 1.352 . S
C1016 C1017 1.384 . S
C1016 H1038 0.930 . S
C1017 C1012 1.407 . S
C1017 C1016 1.384 . S
C1017 H1039 0.929 . S
C1018 O1028 1.241 . S
C1018 O1029 1.273 . S
C1019 O1030 1.251 . S
C1019 O1031 1.268 . S
O1020 Nd1000 2.500 . S
O1020 C1002 1.258 . S
O1021 Nd1000 2.492 . S
O1021 C1002 1.239 . S
O1022 Nd1000 2.487 . S
O1022 C1009 1.241 . S
O1023 Nd1000 2.682 . S
O1023 Nd1001 2.414 . S
O1023 C1009 1.273 . S
O1024 Nd1000 2.410 . S
O1024 C1010 1.251 . S
O1025 Nd1001 2.424 . S
O1025 C1010 1.268 . S
O1026 Nd1001 2.500 . S
O1026 C1011 1.258 . S
O1027 Nd1001 2.492 . S
O1027 C1011 1.239 . S
O1028 Nd1001 2.487 . S
O1028 C1018 1.241 . S
O1029 Nd1000 2.414 . S
O1029 Nd1001 2.682 . S
O1029 C1018 1.273 . S
O1030 Nd1001 2.410 . S
O1030 C1019 1.251 . S
O1031 Nd1000 2.424 . S
O1031 C1019 1.268 . S
H1032 C1004 0.930 . S
H1033 C1005 0.929 . S
H1034 C1007 0.930 . S
H1035 C1008 0.929 . S
H1036 C1013 0.930 . S
H1037 C1014 0.929 . S
H1038 C1016 0.930 . S
H1039 C1017 0.929 . S
Nd1040 C1042 2.836 . S
Nd1040 O1060 2.500 . S
Nd1040 O1061 2.492 . S
Nd1040 O1062 2.487 . S
Nd1040 O1063 2.682 . S
Nd1040 O1064 2.410 . S
Nd1040 O1069 2.414 . S
Nd1040 O1071 2.424 . S
Nd1041 C1051 2.836 . S
Nd1041 O1063 2.414 . S
Nd1041 O1065 2.424 . S
Nd1041 O1066 2.500 . S
Nd1041 O1067 2.492 . S
Nd1041 O1068 2.487 . S
Nd1041 O1069 2.682 . S
Nd1041 O1070 2.410 . S
C1042 Nd1040 2.836 . S
C1042 C1043 1.498 . S
C1042 O1060 1.258 . S
C1042 O1061 1.239 . S
C1043 C1042 1.498 . S
C1043 C1044 1.366 . S
C1043 C1048 1.370 1_455 S
C1044 C1043 1.366 . S
C1044 C1045 1.392 . S
C1044 H1072 0.930 . S
C1045 C1044 1.392 . S
C1045 C1046 1.398 1_554 S
C1045 H1073 0.929 1_554 S
C1046 C1045 1.398 1_556 S
C1046 C1047 1.352 1_456 S
C1047 C1046 1.352 1_654 S
C1047 C1048 1.393 . S
C1047 H1074 0.942 . S
C1048 C1043 1.370 1_655 S
C1048 C1047 1.393 . S
C1048 H1075 0.958 . S
C1049 O1062 1.241 . S
C1049 O1063 1.273 . S
C1050 O1064 1.251 . S
C1050 O1065 1.268 . S
C1051 Nd1041 2.836 . S
C1051 C1052 1.498 . S
C1051 O1066 1.258 . S
C1051 O1067 1.239 . S
C1052 C1051 1.498 . S
C1052 C1053 1.366 . S
C1052 C1057 1.407 . S
C1053 C1052 1.366 . S
C1053 C1054 1.392 . S
C1053 H1076 0.930 . S
C1054 C1053 1.392 . S
C1054 C1055 1.398 . S
C1054 H1077 0.929 . S
C1055 C1054 1.398 . S
C1055 C1056 1.352 . S
C1056 C1055 1.352 . S
C1056 C1057 1.384 . S
C1056 H1078 0.930 . S
C1057 C1052 1.407 . S
C1057 C1056 1.384 . S
C1057 H1079 0.929 . S
C1058 O1068 1.241 . S
C1058 O1069 1.273 . S
C1059 O1070 1.251 . S
C1059 O1071 1.268 . S
O1060 Nd1040 2.500 . S
O1060 C1042 1.258 . S
O1061 Nd1040 2.492 . S
O1061 C1042 1.239 . S
O1062 Nd1040 2.487 . S
O1062 C1049 1.241 . S
O1063 Nd1040 2.682 . S
O1063 Nd1041 2.414 . S
O1063 C1049 1.273 . S
O1064 Nd1040 2.410 . S
O1064 C1050 1.251 . S
O1065 Nd1041 2.424 . S
O1065 C1050 1.268 . S
O1066 Nd1041 2.500 . S
O1066 C1051 1.258 . S
O1067 Nd1041 2.492 . S
O1067 C1051 1.239 . S
O1068 Nd1041 2.487 . S
O1068 C1058 1.241 . S
O1069 Nd1040 2.414 . S
O1069 Nd1041 2.682 . S
O1069 C1058 1.273 . S
O1070 Nd1041 2.410 . S
O1070 C1059 1.251 . S
O1071 Nd1040 2.424 . S
O1071 C1059 1.268 . S
H1072 C1044 0.930 . S
H1073 C1045 0.929 1_556 S
H1074 C1047 0.942 . S
H1075 C1048 0.958 . S
H1076 C1053 0.930 . S
H1077 C1054 0.929 . S
H1078 C1056 0.930 . S
H1079 C1057 0.929 . S
Nd1080 C1082 2.836 . S
Nd1080 O1100 2.500 . S
Nd1080 O1101 2.492 . S
Nd1080 O1102 2.487 . S
Nd1080 O1103 2.682 . S
Nd1080 O1104 2.410 . S
Nd1080 O1109 2.414 . S
Nd1080 O1111 2.424 . S
Nd1081 C1091 2.836 1_556 S
Nd1081 O1103 2.414 . S
Nd1081 O1105 2.424 . S
Nd1081 O1106 2.500 1_556 S
Nd1081 O1107 2.492 1_556 S
Nd1081 O1108 2.487 . S
Nd1081 O1109 2.682 . S
Nd1081 O1110 2.410 1_556 S
C1082 Nd1080 2.836 . S
C1082 C1083 1.498 . S
C1082 O1100 1.258 . S
C1082 O1101 1.239 . S
C1083 C1082 1.498 . S
C1083 C1084 1.366 . S
C1083 C1088 1.407 . S
C1084 C1083 1.366 . S
C1084 C1085 1.392 . S
C1084 H1112 0.930 . S
C1085 C1084 1.392 . S
C1085 C1086 1.398 . S
C1085 H1113 0.929 . S
C1086 C1085 1.398 . S
C1086 C1087 1.352 . S
C1087 C1086 1.352 . S
C1087 C1088 1.384 . S
C1087 H1114 0.930 . S
C1088 C1083 1.407 . S
C1088 C1087 1.384 . S
C1088 H1115 0.929 . S
C1089 O1102 1.241 . S
C1089 O1103 1.273 . S
C1090 O1104 1.251 . S
C1090 O1105 1.268 . S
C1091 Nd1081 2.836 1_554 S
C1091 C1092 1.498 . S
C1091 O1106 1.258 . S
C1091 O1107 1.239 . S
C1092 C1091 1.498 . S
C1092 C1093 1.366 . S
C1092 C1097 1.407 . S
C1093 C1092 1.366 . S
C1093 C1094 1.392 . S
C1093 H1116 0.930 . S
C1094 C1093 1.392 . S
C1094 C1095 1.398 . S
C1094 H1117 0.929 . S
C1095 C1094 1.398 . S
C1095 C1096 1.352 . S
C1096 C1095 1.352 . S
C1096 C1097 1.384 . S
C1096 H1118 0.930 . S
C1097 C1092 1.407 . S
C1097 C1096 1.384 . S
C1097 H1119 0.929 . S
C1098 O1108 1.241 . S
C1098 O1109 1.273 . S
C1099 O1110 1.251 . S
C1099 O1111 1.268 1_554 S
O1100 Nd1080 2.500 . S
O1100 C1082 1.258 . S
O1101 Nd1080 2.492 . S
O1101 C1082 1.239 . S
O1102 Nd1080 2.487 . S
O1102 C1089 1.241 . S
O1103 Nd1080 2.682 . S
O1103 Nd1081 2.414 . S
O1103 C1089 1.273 . S
O1104 Nd1080 2.410 . S
O1104 C1090 1.251 . S
O1105 Nd1081 2.424 . S
O1105 C1090 1.268 . S
O1106 Nd1081 2.500 1_554 S
O1106 C1091 1.258 . S
O1107 Nd1081 2.492 1_554 S
O1107 C1091 1.239 . S
O1108 Nd1081 2.487 . S
O1108 C1098 1.241 . S
O1109 Nd1080 2.414 . S
O1109 Nd1081 2.682 . S
O1109 C1098 1.273 . S
O1110 Nd1081 2.410 1_554 S
O1110 C1099 1.251 . S
O1111 Nd1080 2.424 . S
O1111 C1099 1.268 1_556 S
H1112 C1084 0.930 . S
H1113 C1085 0.929 . S
H1114 C1087 0.930 . S
H1115 C1088 0.929 . S
H1116 C1093 0.930 . S
H1117 C1094 0.929 . S
H1118 C1096 0.930 . S
H1119 C1097 0.929 . S
Nd1120 C1122 2.836 . S
Nd1120 O1140 2.500 . S
Nd1120 O1141 2.492 . S
Nd1120 O1142 2.487 . S
Nd1120 O1143 2.682 . S
Nd1120 O1144 2.410 . S
Nd1120 O1149 2.414 . S
Nd1120 O1151 2.424 . S
Nd1121 C1131 2.836 . S
Nd1121 O1143 2.414 . S
Nd1121 O1145 2.424 . S
Nd1121 O1146 2.500 . S
Nd1121 O1147 2.492 1_565 S
Nd1121 O1148 2.487 1_565 S
Nd1121 O1149 2.682 . S
Nd1121 O1150 2.410 . S
C1122 Nd1120 2.836 . S
C1122 C1123 1.498 . S
C1122 O1140 1.258 . S
C1122 O1141 1.239 . S
C1123 C1122 1.498 . S
C1123 C1124 1.366 . S
C1123 C1128 1.407 . S
C1124 C1123 1.366 . S
C1124 C1125 1.392 . S
C1124 H1152 0.930 . S
C1125 C1124 1.392 . S
C1125 C1126 1.398 . S
C1125 H1153 0.929 . S
C1126 C1125 1.398 . S
C1126 C1127 1.352 . S
C1127 C1126 1.352 . S
C1127 C1128 1.384 . S
C1127 H1154 0.930 . S
C1128 C1123 1.407 . S
C1128 C1127 1.384 . S
C1128 H1155 0.929 . S
C1129 O1142 1.241 . S
C1129 O1143 1.273 . S
C1130 O1144 1.251 . S
C1130 O1145 1.268 . S
C1131 Nd1121 2.836 . S
C1131 C1132 1.498 1_565 S
C1131 O1146 1.258 . S
C1131 O1147 1.239 1_565 S
C1132 C1131 1.498 1_545 S
C1132 C1133 1.366 1_545 S
C1132 C1137 1.407 . S
C1133 C1132 1.366 1_565 S
C1133 C1134 1.392 . S
C1133 H1156 0.930 . S
C1134 C1133 1.392 . S
C1134 C1135 1.398 1_565 S
C1134 H1157 0.929 . S
C1135 C1134 1.398 1_545 S
C1135 C1136 1.352 . S
C1136 C1135 1.352 . S
C1136 C1137 1.384 . S
C1136 H1158 0.930 . S
C1137 C1132 1.407 . S
C1137 C1136 1.384 . S
C1137 H1159 0.929 . S
C1138 O1148 1.241 1_565 S
C1138 O1149 1.273 . S
C1139 O1150 1.251 . S
C1139 O1151 1.268 . S
O1140 Nd1120 2.500 . S
O1140 C1122 1.258 . S
O1141 Nd1120 2.492 . S
O1141 C1122 1.239 . S
O1142 Nd1120 2.487 . S
O1142 C1129 1.241 . S
O1143 Nd1120 2.682 . S
O1143 Nd1121 2.414 . S
O1143 C1129 1.273 . S
O1144 Nd1120 2.410 . S
O1144 C1130 1.251 . S
O1145 Nd1121 2.424 . S
O1145 C1130 1.268 . S
O1146 Nd1121 2.500 . S
O1146 C1131 1.258 . S
O1147 Nd1121 2.492 1_545 S
O1147 C1131 1.239 1_545 S
O1148 Nd1121 2.487 1_545 S
O1148 C1138 1.241 1_545 S
O1149 Nd1120 2.414 . S
O1149 Nd1121 2.682 . S
O1149 C1138 1.273 . S
O1150 Nd1121 2.410 . S
O1150 C1139 1.251 . S
O1151 Nd1120 2.424 . S
O1151 C1139 1.268 . S
H1152 C1124 0.930 . S
H1153 C1125 0.929 . S
H1154 C1127 0.930 . S
H1155 C1128 0.929 . S
H1156 C1133 0.930 . S
H1157 C1134 0.929 . S
H1158 C1136 0.930 . S
H1159 C1137 0.929 . S
Nd1160 C1162 2.836 . S
Nd1160 O1180 2.500 . S
Nd1160 O1181 2.492 . S
Nd1160 O1182 2.487 . S
Nd1160 O1183 2.682 1_556 S
Nd1160 O1184 2.410 . S
Nd1160 O1189 2.414 . S
Nd1160 O1191 2.424 1_556 S
Nd1161 C1171 2.836 . S
Nd1161 O1183 2.414 . S
Nd1161 O1185 2.424 1_554 S
Nd1161 O1186 2.500 . S
Nd1161 O1187 2.492 . S
Nd1161 O1188 2.487 . S
Nd1161 O1189 2.682 1_554 S
Nd1161 O1190 2.410 . S
C1162 Nd1160 2.836 . S
C1162 C1163 1.498 . S
C1162 O1180 1.258 . S
C1162 O1181 1.239 . S
C1163 C1162 1.498 . S
C1163 C1164 1.366 . S
C1163 C1168 1.407 . S
C1164 C1163 1.366 . S
C1164 C1165 1.392 . S
C1164 H1192 0.930 . S
C1165 C1164 1.392 . S
C1165 C1166 1.398 . S
C1165 H1193 0.929 . S
C1166 C1165 1.398 . S
C1166 C1167 1.352 . S
C1167 C1166 1.352 . S
C1167 C1168 1.384 . S
C1167 H1194 0.930 . S
C1168 C1163 1.407 . S
C1168 C1167 1.384 . S
C1168 H1195 0.929 . S
C1169 O1182 1.241 1_554 S
C1169 O1183 1.273 . S
C1170 O1184 1.251 . S
C1170 O1185 1.268 . S
C1171 Nd1161 2.836 . S
C1171 C1172 1.498 . S
C1171 O1186 1.258 . S
C1171 O1187 1.239 . S
C1172 C1171 1.498 . S
C1172 C1173 1.366 . S
C1172 C1177 1.407 . S
C1173 C1172 1.366 . S
C1173 C1174 1.392 . S
C1173 H1196 0.930 . S
C1174 C1173 1.392 . S
C1174 C1175 1.398 . S
C1174 H1197 0.929 . S
C1175 C1174 1.398 . S
C1175 C1176 1.352 . S
C1176 C1175 1.352 . S
C1176 C1177 1.384 . S
C1176 H1198 0.930 . S
C1177 C1172 1.407 . S
C1177 C1176 1.384 . S
C1177 H1199 0.929 . S
C1178 O1188 1.241 1_556 S
C1178 O1189 1.273 . S
C1179 O1190 1.251 . S
C1179 O1191 1.268 . S
O1180 Nd1160 2.500 . S
O1180 C1162 1.258 . S
O1181 Nd1160 2.492 . S
O1181 C1162 1.239 . S
O1182 Nd1160 2.487 . S
O1182 C1169 1.241 1_556 S
O1183 Nd1160 2.682 1_554 S
O1183 Nd1161 2.414 . S
O1183 C1169 1.273 . S
O1184 Nd1160 2.410 . S
O1184 C1170 1.251 . S
O1185 Nd1161 2.424 1_556 S
O1185 C1170 1.268 . S
O1186 Nd1161 2.500 . S
O1186 C1171 1.258 . S
O1187 Nd1161 2.492 . S
O1187 C1171 1.239 . S
O1188 Nd1161 2.487 . S
O1188 C1178 1.241 1_554 S
O1189 Nd1160 2.414 . S
O1189 Nd1161 2.682 1_556 S
O1189 C1178 1.273 . S
O1190 Nd1161 2.410 . S
O1190 C1179 1.251 . S
O1191 Nd1160 2.424 1_554 S
O1191 C1179 1.268 . S
H1192 C1164 0.930 . S
H1193 C1165 0.929 . S
H1194 C1167 0.930 . S
H1195 C1168 0.929 . S
H1196 C1173 0.930 . S
H1197 C1174 0.929 . S
H1198 C1176 0.930 . S
H1199 C1177 0.929 . S
Nd1200 C1202 2.836 . S
Nd1200 O1220 2.500 . S
Nd1200 O1221 2.492 . S
Nd1200 O1222 2.487 . S
Nd1200 O1223 2.682 . S
Nd1200 O1224 2.410 . S
Nd1200 O1229 2.414 . S
Nd1200 O1231 2.424 . S
Nd1201 C1211 2.836 . S
Nd1201 O1223 2.414 . S
Nd1201 O1225 2.424 . S
Nd1201 O1226 2.500 . S
Nd1201 O1227 2.492 1_545 S
Nd1201 O1228 2.487 1_545 S
Nd1201 O1229 2.682 . S
Nd1201 O1230 2.410 . S
C1202 Nd1200 2.836 . S
C1202 C1203 1.498 . S
C1202 O1220 1.258 . S
C1202 O1221 1.239 . S
C1203 C1202 1.498 . S
C1203 C1204 1.366 . S
C1203 C1208 1.407 . S
C1204 C1203 1.366 . S
C1204 C1205 1.392 . S
C1204 H1232 0.930 . S
C1205 C1204 1.392 . S
C1205 C1206 1.398 . S
C1205 H1233 0.929 . S
C1206 C1205 1.398 . S
C1206 C1207 1.352 . S
C1207 C1206 1.352 . S
C1207 C1208 1.384 . S
C1207 H1234 0.930 . S
C1208 C1203 1.407 . S
C1208 C1207 1.384 . S
C1208 H1235 0.929 . S
C1209 O1222 1.241 . S
C1209 O1223 1.273 . S
C1210 O1224 1.251 . S
C1210 O1225 1.268 . S
C1211 Nd1201 2.836 . S
C1211 C1212 1.498 1_545 S
C1211 O1226 1.258 . S
C1211 O1227 1.239 1_545 S
C1212 C1211 1.498 1_565 S
C1212 C1213 1.366 1_565 S
C1212 C1217 1.407 . S
C1213 C1212 1.366 1_545 S
C1213 C1214 1.392 . S
C1213 H1236 0.930 . S
C1214 C1213 1.392 . S
C1214 C1215 1.398 1_545 S
C1214 H1237 0.929 . S
C1215 C1214 1.398 1_565 S
C1215 C1216 1.352 . S
C1216 C1215 1.352 . S
C1216 C1217 1.384 . S
C1216 H1238 0.930 . S
C1217 C1212 1.407 . S
C1217 C1216 1.384 . S
C1217 H1239 0.929 . S
C1218 O1228 1.241 1_545 S
C1218 O1229 1.273 . S
C1219 O1230 1.251 . S
C1219 O1231 1.268 . S
O1220 Nd1200 2.500 . S
O1220 C1202 1.258 . S
O1221 Nd1200 2.492 . S
O1221 C1202 1.239 . S
O1222 Nd1200 2.487 . S
O1222 C1209 1.241 . S
O1223 Nd1200 2.682 . S
O1223 Nd1201 2.414 . S
O1223 C1209 1.273 . S
O1224 Nd1200 2.410 . S
O1224 C1210 1.251 . S
O1225 Nd1201 2.424 . S
O1225 C1210 1.268 . S
O1226 Nd1201 2.500 . S
O1226 C1211 1.258 . S
O1227 Nd1201 2.492 1_565 S
O1227 C1211 1.239 1_565 S
O1228 Nd1201 2.487 1_565 S
O1228 C1218 1.241 1_565 S
O1229 Nd1200 2.414 . S
O1229 Nd1201 2.682 . S
O1229 C1218 1.273 . S
O1230 Nd1201 2.410 . S
O1230 C1219 1.251 . S
O1231 Nd1200 2.424 . S
O1231 C1219 1.268 . S
H1232 C1204 0.930 . S
H1233 C1205 0.929 . S
H1234 C1207 0.930 . S
H1235 C1208 0.929 . S
H1236 C1213 0.930 . S
H1237 C1214 0.929 . S
H1238 C1216 0.930 . S
H1239 C1217 0.929 . S
Nd1240 C1242 2.836 . S
Nd1240 O1260 2.500 . S
Nd1240 O1261 2.492 . S
Nd1240 O1262 2.487 . S
Nd1240 O1263 2.682 . S
Nd1240 O1264 2.410 . S
Nd1240 O1269 2.414 . S
Nd1240 O1271 2.424 . S
Nd1241 C1251 2.836 . S
Nd1241 O1263 2.414 . S
Nd1241 O1265 2.424 . S
Nd1241 O1266 2.500 . S
Nd1241 O1267 2.492 . S
Nd1241 O1268 2.487 . S
Nd1241 O1269 2.682 . S
Nd1241 O1270 2.410 . S
C1242 Nd1240 2.836 . S
C1242 C1243 1.498 . S
C1242 O1260 1.258 . S
C1242 O1261 1.239 . S
C1243 C1242 1.498 . S
C1243 C1244 1.366 . S
C1243 C1248 1.407 . S
C1244 C1243 1.366 . S
C1244 C1245 1.392 . S
C1244 H1272 0.930 . S
C1245 C1244 1.392 . S
C1245 C1246 1.398 . S
C1245 H1273 0.929 . S
C1246 C1245 1.398 . S
C1246 C1247 1.352 . S
C1247 C1246 1.352 . S
C1247 C1248 1.384 . S
C1247 H1274 0.930 . S
C1248 C1243 1.407 . S
C1248 C1247 1.384 . S
C1248 H1275 0.929 . S
C1249 O1262 1.241 . S
C1249 O1263 1.273 . S
C1250 O1264 1.251 . S
C1250 O1265 1.268 . S
C1251 Nd1241 2.836 . S
C1251 C1252 1.498 . S
C1251 O1266 1.258 . S
C1251 O1267 1.239 . S
C1252 C1251 1.498 . S
C1252 C1253 1.366 . S
C1252 C1257 1.407 . S
C1253 C1252 1.366 . S
C1253 C1254 1.392 . S
C1253 H1276 0.930 . S
C1254 C1253 1.392 . S
C1254 C1255 1.398 . S
C1254 H1277 0.929 . S
C1255 C1254 1.398 . S
C1255 C1256 1.352 . S
C1256 C1255 1.352 . S
C1256 C1257 1.384 . S
C1256 H1278 0.930 . S
C1257 C1252 1.407 . S
C1257 C1256 1.384 . S
C1257 H1279 0.929 . S
C1258 O1268 1.241 . S
C1258 O1269 1.273 . S
C1259 O1270 1.251 . S
C1259 O1271 1.268 . S
O1260 Nd1240 2.500 . S
O1260 C1242 1.258 . S
O1261 Nd1240 2.492 . S
O1261 C1242 1.239 . S
O1262 Nd1240 2.487 . S
O1262 C1249 1.241 . S
O1263 Nd1240 2.682 . S
O1263 Nd1241 2.414 . S
O1263 C1249 1.273 . S
O1264 Nd1240 2.410 . S
O1264 C1250 1.251 . S
O1265 Nd1241 2.424 . S
O1265 C1250 1.268 . S
O1266 Nd1241 2.500 . S
O1266 C1251 1.258 . S
O1267 Nd1241 2.492 . S
O1267 C1251 1.239 . S
O1268 Nd1241 2.487 . S
O1268 C1258 1.241 . S
O1269 Nd1240 2.414 . S
O1269 Nd1241 2.682 . S
O1269 C1258 1.273 . S
O1270 Nd1241 2.410 . S
O1270 C1259 1.251 . S
O1271 Nd1240 2.424 . S
O1271 C1259 1.268 . S
H1272 C1244 0.930 . S
H1273 C1245 0.929 . S
H1274 C1247 0.930 . S
H1275 C1248 0.929 . S
H1276 C1253 0.930 . S
H1277 C1254 0.929 . S
H1278 C1256 0.930 . S
H1279 C1257 0.929 . S
H1280 C1286 0.930 . S
H1281 C1290 0.930 . S
H1282 C1295 0.929 . S
H1283 C1293 0.929 . S
H1284 C1288 0.929 . S
H1285 C1294 0.929 . S
C1286 H1280 0.930 . S
C1286 C1287 1.367 . S
C1286 C1294 1.378 . S
C1287 C1286 1.367 . S
C1287 C1295 1.433 . S
C1288 H1284 0.929 . S
C1288 C1290 1.378 . S
C1288 C1292 1.350 . S
C1289 C1292 1.463 . S
C1289 C1294 1.350 . S
C1289 N1297 1.427 . S
C1290 H1281 0.930 . S
C1290 C1288 1.378 . S
C1290 C1291 1.367 . S
C1291 C1290 1.367 . S
C1291 C1293 1.433 . S
C1292 C1288 1.350 . S
C1292 C1289 1.463 . S
C1292 N1296 1.427 . S
C1293 H1283 0.929 . S
C1293 C1291 1.433 . S
C1293 N1296 1.384 . S
C1294 H1285 0.929 . S
C1294 C1286 1.378 . S
C1294 C1289 1.350 . S
C1295 H1282 0.929 . S
C1295 C1287 1.433 . S
C1295 N1297 1.384 . S
N1296 C1292 1.427 . S
N1296 C1293 1.384 . S
N1297 C1289 1.427 . S
N1297 C1295 1.384 . S
H1298 C1304 0.930 . S
H1299 C1308 0.930 . S
H1300 C1313 0.929 . S
H1301 C1311 0.929 . S
H1302 C1306 0.929 . S
H1303 C1312 0.929 . S
C1304 H1298 0.930 . S
C1304 C1305 1.367 . S
C1304 C1312 1.378 . S
C1305 C1304 1.367 . S
C1305 C1313 1.433 . S
C1306 H1302 0.929 . S
C1306 C1308 1.378 . S
C1306 C1310 1.350 . S
C1307 C1310 1.463 . S
C1307 C1312 1.350 . S
C1307 N1315 1.427 . S
C1308 H1299 0.930 . S
C1308 C1306 1.378 . S
C1308 C1309 1.367 . S
C1309 C1308 1.367 . S
C1309 C1311 1.433 . S
C1310 C1306 1.350 . S
C1310 C1307 1.463 . S
C1310 N1314 1.427 . S
C1311 H1301 0.929 . S
C1311 C1309 1.433 . S
C1311 N1314 1.384 . S
C1312 H1303 0.929 . S
C1312 C1304 1.378 . S
C1312 C1307 1.350 . S
C1313 H1300 0.929 . S
C1313 C1305 1.433 . S
C1313 N1315 1.384 . S
N1314 C1310 1.427 . S
N1314 C1311 1.384 . S
N1315 C1307 1.427 . S
N1315 C1313 1.384 . S
H1316 C1322 0.930 . S
H1317 C1326 0.930 . S
H1318 C1331 0.929 . S
H1319 C1329 0.929 . S
H1320 C1324 0.929 . S
H1321 C1330 0.929 . S
C1322 H1316 0.930 . S
C1322 C1323 1.367 . S
C1322 C1330 1.378 . S
C1323 C1322 1.367 . S
C1323 C1331 1.433 . S
C1324 H1320 0.929 . S
C1324 C1326 1.378 . S
C1324 C1328 1.350 . S
C1325 C1328 1.463 . S
C1325 C1330 1.350 . S
C1325 N1333 1.427 . S
C1326 H1317 0.930 . S
C1326 C1324 1.378 . S
C1326 C1327 1.367 . S
C1327 C1326 1.367 . S
C1327 C1329 1.433 . S
C1328 C1324 1.350 . S
C1328 C1325 1.463 . S
C1328 N1332 1.427 . S
C1329 H1319 0.929 . S
C1329 C1327 1.433 . S
C1329 N1332 1.384 . S
C1330 H1321 0.929 . S
C1330 C1322 1.378 . S
C1330 C1325 1.350 . S
C1331 H1318 0.929 . S
C1331 C1323 1.433 . S
C1331 N1333 1.384 . S
N1332 C1328 1.427 . S
N1332 C1329 1.384 . S
N1333 C1325 1.427 . S
N1333 C1331 1.384 . S
H1334 C1340 0.930 . S
H1335 C1344 0.930 . S
H1336 C1349 0.929 . S
H1337 C1347 0.929 . S
H1338 C1342 0.929 . S
H1339 C1348 0.929 . S
C1340 H1334 0.930 . S
C1340 C1341 1.367 . S
C1340 C1348 1.378 . S
C1341 C1340 1.367 . S
C1341 C1349 1.433 . S
C1342 H1338 0.929 . S
C1342 C1344 1.378 1_554 S
C1342 C1346 1.350 . S
C1343 C1346 1.463 . S
C1343 C1348 1.350 . S
C1343 N1351 1.427 . S
C1344 H1335 0.930 . S
C1344 C1342 1.378 1_556 S
C1344 C1345 1.367 . S
C1345 C1344 1.367 . S
C1345 C1347 1.433 . S
C1346 C1342 1.350 . S
C1346 C1343 1.463 . S
C1346 N1350 1.427 1_554 S
C1347 H1337 0.929 . S
C1347 C1345 1.433 . S
C1347 N1350 1.384 . S
C1348 H1339 0.929 . S
C1348 C1340 1.378 . S
C1348 C1343 1.350 . S
C1349 H1336 0.929 . S
C1349 C1341 1.433 . S
C1349 N1351 1.384 . S
N1350 C1346 1.427 1_556 S
N1350 C1347 1.384 . S
N1351 C1343 1.427 . S
N1351 C1349 1.384 . S
H1352 C1358 0.930 . S
H1353 C1362 0.930 . S
H1354 C1367 0.929 . S
H1355 C1365 0.929 . S
H1356 C1360 0.929 . S
H1357 C1366 0.929 . S
C1358 H1352 0.930 . S
C1358 C1359 1.367 . S
C1358 C1366 1.378 . S
C1359 C1358 1.367 . S
C1359 C1367 1.433 . S
C1360 H1356 0.929 . S
C1360 C1362 1.373 1_554 S
C1360 C1364 1.355 . S
C1361 C1364 1.463 . S
C1361 C1366 1.350 . S
C1361 N1369 1.427 . S
C1362 H1353 0.930 . S
C1362 C1360 1.373 1_556 S
C1362 C1363 1.367 . S
C1363 C1362 1.367 . S
C1363 C1365 1.433 . S
C1364 C1360 1.355 . S
C1364 C1361 1.463 . S
C1364 N1368 1.427 . S
C1365 H1355 0.929 . S
C1365 C1363 1.433 . S
C1365 N1368 1.384 1_556 S
C1366 H1357 0.929 . S
C1366 C1358 1.378 . S
C1366 C1361 1.350 . S
C1367 H1354 0.929 . S
C1367 C1359 1.433 . S
C1367 N1369 1.384 . S
N1368 C1364 1.427 . S
N1368 C1365 1.384 1_554 S
N1369 C1361 1.427 . S
N1369 C1367 1.384 . S
H1370 C1376 0.930 . S
H1371 C1380 0.930 . S
H1372 C1385 0.929 . S
H1373 C1383 0.929 . S
H1374 C1378 0.929 . S
H1375 C1384 0.929 . S
C1376 H1370 0.930 . S
C1376 C1377 1.367 . S
C1376 C1384 1.378 . S
C1377 C1376 1.367 . S
C1377 C1385 1.433 . S
C1378 H1374 0.929 . S
C1378 C1380 1.378 . S
C1378 C1382 1.350 . S
C1379 C1382 1.463 . S
C1379 C1384 1.350 . S
C1379 N1387 1.427 . S
C1380 H1371 0.930 . S
C1380 C1378 1.378 . S
C1380 C1381 1.367 . S
C1381 C1380 1.367 . S
C1381 C1383 1.433 . S
C1382 C1378 1.350 . S
C1382 C1379 1.463 . S
C1382 N1386 1.427 . S
C1383 H1373 0.929 . S
C1383 C1381 1.433 . S
C1383 N1386 1.384 . S
C1384 H1375 0.929 . S
C1384 C1376 1.378 . S
C1384 C1379 1.350 . S
C1385 H1372 0.929 . S
C1385 C1377 1.433 . S
C1385 N1387 1.384 . S
N1386 C1382 1.427 . S
N1386 C1383 1.384 . S
N1387 C1379 1.427 . S
N1387 C1385 1.384 . S
H1388 C1394 0.930 . S
H1389 C1398 0.930 . S
H1390 C1403 0.929 . S
H1391 C1401 0.929 . S
H1392 C1396 0.929 . S
H1393 C1402 0.929 . S
C1394 H1388 0.930 . S
C1394 C1395 1.367 . S
C1394 C1402 1.378 . S
C1395 C1394 1.367 . S
C1395 C1403 1.433 . S
C1396 H1392 0.929 . S
C1396 C1398 1.378 . S
C1396 C1400 1.350 . S
C1397 C1400 1.463 . S
C1397 C1402 1.350 . S
C1397 N1405 1.427 . S
C1398 H1389 0.930 . S
C1398 C1396 1.378 . S
C1398 C1399 1.367 . S
C1399 C1398 1.367 . S
C1399 C1401 1.433 . S
C1400 C1396 1.350 . S
C1400 C1397 1.463 . S
C1400 N1404 1.427 . S
C1401 H1391 0.929 . S
C1401 C1399 1.433 . S
C1401 N1404 1.384 . S
C1402 H1393 0.929 . S
C1402 C1394 1.378 . S
C1402 C1397 1.350 . S
C1403 H1390 0.929 . S
C1403 C1395 1.433 . S
C1403 N1405 1.384 . S
N1404 C1400 1.427 . S
N1404 C1401 1.384 . S
N1405 C1397 1.427 . S
N1405 C1403 1.384 . S
H1406 C1412 0.930 . S
H1407 C1416 0.930 . S
H1408 C1421 0.929 . S
H1409 C1419 0.929 . S
H1410 C1414 0.929 . S
H1411 C1420 0.929 . S
C1412 H1406 0.930 . S
C1412 C1413 1.367 . S
C1412 C1420 1.378 . S
C1413 C1412 1.367 . S
C1413 C1421 1.433 . S
C1414 H1410 0.929 . S
C1414 C1416 1.378 . S
C1414 C1418 1.350 . S
C1415 C1418 1.463 . S
C1415 C1420 1.350 . S
C1415 N1423 1.427 . S
C1416 H1407 0.930 . S
C1416 C1414 1.378 . S
C1416 C1417 1.367 . S
C1417 C1416 1.367 . S
C1417 C1419 1.433 . S
C1418 C1414 1.350 . S
C1418 C1415 1.463 . S
C1418 N1422 1.427 . S
C1419 H1409 0.929 . S
C1419 C1417 1.433 . S
C1419 N1422 1.384 . S
C1420 H1411 0.929 . S
C1420 C1412 1.378 . S
C1420 C1415 1.350 . S
C1421 H1408 0.929 . S
C1421 C1413 1.433 . S
C1421 N1423 1.384 . S
N1422 C1418 1.427 . S
N1422 C1419 1.384 . S
N1423 C1415 1.427 . S
N1423 C1421 1.384 . S
H1424 C1430 0.930 . S
H1425 C1434 0.930 . S
H1426 C1439 0.929 . S
H1427 C1437 0.929 . S
H1428 C1432 0.929 . S
H1429 C1438 0.929 . S
C1430 H1424 0.930 . S
C1430 C1431 1.367 . S
C1430 C1438 1.378 . S
C1431 C1430 1.367 . S
C1431 C1439 1.433 . S
C1432 H1428 0.929 . S
C1432 C1434 1.378 . S
C1432 C1436 1.350 . S
C1433 C1436 1.463 . S
C1433 C1438 1.350 . S
C1433 N1441 1.427 . S
C1434 H1425 0.930 . S
C1434 C1432 1.378 . S
C1434 C1435 1.367 . S
C1435 C1434 1.367 . S
C1435 C1437 1.433 . S
C1436 C1432 1.350 . S
C1436 C1433 1.463 . S
C1436 N1440 1.427 . S
C1437 H1427 0.929 . S
C1437 C1435 1.433 . S
C1437 N1440 1.384 . S
C1438 H1429 0.929 . S
C1438 C1430 1.378 . S
C1438 C1433 1.350 . S
C1439 H1426 0.929 . S
C1439 C1431 1.433 . S
C1439 N1441 1.384 . S
N1440 C1436 1.427 . S
N1440 C1437 1.384 . S
N1441 C1433 1.427 . S
N1441 C1439 1.384 . S
H1442 C1448 0.930 . S
H1443 C1452 0.930 . S
H1444 C1457 0.929 . S
H1445 C1455 0.929 . S
H1446 C1450 0.929 . S
H1447 C1456 0.929 . S
C1448 H1442 0.930 . S
C1448 C1449 1.367 . S
C1448 C1456 1.378 1_556 S
C1449 C1448 1.367 . S
C1449 C1457 1.433 . S
C1450 H1446 0.929 . S
C1450 C1452 1.378 . S
C1450 C1454 1.350 . S
C1451 C1454 1.463 . S
C1451 C1456 1.350 . S
C1451 N1459 1.427 1_554 S
C1452 H1443 0.930 . S
C1452 C1450 1.378 . S
C1452 C1453 1.367 . S
C1453 C1452 1.367 . S
C1453 C1455 1.433 . S
C1454 C1450 1.350 . S
C1454 C1451 1.463 . S
C1454 N1458 1.427 . S
C1455 H1445 0.929 . S
C1455 C1453 1.433 . S
C1455 N1458 1.384 . S
C1456 H1447 0.929 . S
C1456 C1448 1.378 1_554 S
C1456 C1451 1.350 . S
C1457 H1444 0.929 . S
C1457 C1449 1.433 . S
C1457 N1459 1.384 . S
N1458 C1454 1.427 . S
N1458 C1455 1.384 . S
N1459 C1451 1.427 1_556 S
N1459 C1457 1.384 . S
H1460 C1466 0.930 . S
H1461 C1470 0.930 1_565 S
H1462 C1475 0.929 . S
H1463 C1473 0.929 . S
H1464 C1468 0.929 . S
H1465 C1474 0.929 . S
C1466 H1460 0.930 . S
C1466 C1467 1.367 . S
C1466 C1474 1.378 . S
C1467 C1466 1.367 . S
C1467 C1475 1.433 . S
C1468 H1464 0.929 . S
C1468 C1470 1.378 . S
C1468 C1472 1.350 . S
C1469 C1472 1.463 . S
C1469 C1474 1.350 . S
C1469 N1477 1.427 . S
C1470 H1461 0.930 1_545 S
C1470 C1468 1.378 . S
C1470 C1471 1.367 . S
C1471 C1470 1.367 . S
C1471 C1473 1.433 . S
C1472 C1468 1.350 . S
C1472 C1469 1.463 . S
C1472 N1476 1.427 . S
C1473 H1463 0.929 . S
C1473 C1471 1.433 . S
C1473 N1476 1.384 . S
C1474 H1465 0.929 . S
C1474 C1466 1.378 . S
C1474 C1469 1.350 . S
C1475 H1462 0.929 . S
C1475 C1467 1.433 . S
C1475 N1477 1.384 . S
N1476 C1472 1.427 . S
N1476 C1473 1.384 . S
N1477 C1469 1.427 . S
N1477 C1475 1.384 . S
H1478 C1484 0.930 . S
H1479 C1488 0.930 . S
H1480 C1493 0.929 . S
H1481 C1491 0.929 . S
H1482 C1486 0.929 . S
H1483 C1492 0.929 . S
C1484 H1478 0.930 . S
C1484 C1485 1.367 . S
C1484 C1492 1.378 . S
C1485 C1484 1.367 . S
C1485 C1493 1.433 . S
C1486 H1482 0.929 . S
C1486 C1488 1.378 . S
C1486 C1490 1.350 . S
C1487 C1490 1.463 . S
C1487 C1492 1.350 . S
C1487 N1495 1.427 . S
C1488 H1479 0.930 . S
C1488 C1486 1.378 . S
C1488 C1489 1.367 . S
C1489 C1488 1.367 . S
C1489 C1491 1.433 . S
C1490 C1486 1.350 . S
C1490 C1487 1.463 . S
C1490 N1494 1.427 . S
C1491 H1481 0.929 . S
C1491 C1489 1.433 . S
C1491 N1494 1.384 . S
C1492 H1483 0.929 . S
C1492 C1484 1.378 . S
C1492 C1487 1.350 . S
C1493 H1480 0.929 . S
C1493 C1485 1.433 . S
C1493 N1495 1.384 . S
N1494 C1490 1.427 . S
N1494 C1491 1.384 . S
N1495 C1487 1.427 . S
N1495 C1493 1.384 . S
H1496 C1502 0.930 . S
H1497 C1506 0.930 . S
H1498 C1511 0.929 . S
H1499 C1509 0.929 . S
H1500 C1504 0.929 . S
H1501 C1510 0.929 . S
C1502 H1496 0.930 . S
C1502 C1503 1.367 . S
C1502 C1510 1.378 . S
C1503 C1502 1.367 . S
C1503 C1511 1.433 . S
C1504 H1500 0.929 . S
C1504 C1506 1.378 . S
C1504 C1508 1.350 . S
C1505 C1508 1.463 . S
C1505 C1510 1.350 . S
C1505 N1513 1.427 . S
C1506 H1497 0.930 . S
C1506 C1504 1.378 . S
C1506 C1507 1.367 . S
C1507 C1506 1.367 . S
C1507 C1509 1.433 . S
C1508 C1504 1.350 . S
C1508 C1505 1.463 . S
C1508 N1512 1.427 . S
C1509 H1499 0.929 . S
C1509 C1507 1.433 . S
C1509 N1512 1.384 . S
C1510 H1501 0.929 . S
C1510 C1502 1.378 . S
C1510 C1505 1.350 . S
C1511 H1498 0.929 . S
C1511 C1503 1.433 . S
C1511 N1513 1.384 . S
N1512 C1508 1.427 . S
N1512 C1509 1.384 . S
N1513 C1505 1.427 . S
N1513 C1511 1.384 . S
H1514 C1520 0.930 . S
H1515 C1524 0.930 . S
H1516 C1529 0.929 . S
H1517 C1527 0.929 . S
H1518 C1522 0.929 . S
H1519 C1528 0.929 . S
C1520 H1514 0.930 . S
C1520 C1521 1.367 . S
C1520 C1528 1.378 . S
C1521 C1520 1.367 . S
C1521 C1529 1.433 . S
C1522 H1518 0.929 . S
C1522 C1524 1.378 . S
C1522 C1526 1.350 . S
C1523 C1526 1.463 . S
C1523 C1528 1.350 . S
C1523 N1531 1.427 . S
C1524 H1515 0.930 . S
C1524 C1522 1.378 . S
C1524 C1525 1.367 . S
C1525 C1524 1.367 . S
C1525 C1527 1.433 . S
C1526 C1522 1.350 . S
C1526 C1523 1.463 . S
C1526 N1530 1.427 . S
C1527 H1517 0.929 . S
C1527 C1525 1.433 . S
C1527 N1530 1.384 . S
C1528 H1519 0.929 . S
C1528 C1520 1.378 . S
C1528 C1523 1.350 . S
C1529 H1516 0.929 . S
C1529 C1521 1.433 . S
C1529 N1531 1.384 . S
N1530 C1526 1.427 . S
N1530 C1527 1.384 . S
N1531 C1523 1.427 . S
N1531 C1529 1.384 . S
H1532 C1538 0.930 . S
H1533 C1542 0.930 . S
H1534 C1547 0.929 . S
H1535 C1545 0.926 . S
H1536 C1540 0.928 1_554 S
H1537 C1546 0.929 . S
C1538 H1532 0.930 . S
C1538 C1539 1.367 . S
C1538 C1546 1.378 . S
C1539 C1538 1.367 . S
C1539 C1547 1.433 . S
C1540 H1536 0.928 1_556 S
C1540 C1542 1.388 . S
C1540 C1544 1.341 1_556 S
C1541 C1544 1.463 . S
C1541 C1546 1.350 . S
C1541 N1549 1.427 . S
C1542 H1533 0.930 . S
C1542 C1540 1.388 . S
C1542 C1543 1.367 . S
C1543 C1542 1.367 . S
C1543 C1545 1.433 . S
C1544 C1540 1.341 1_554 S
C1544 C1541 1.463 . S
C1544 N1548 1.427 . S
C1545 H1535 0.926 . S
C1545 C1543 1.433 . S
C1545 N1548 1.384 1_556 S
C1546 H1537 0.929 . S
C1546 C1538 1.378 . S
C1546 C1541 1.350 . S
C1547 H1534 0.929 . S
C1547 C1539 1.433 . S
C1547 N1549 1.384 . S
N1548 C1544 1.427 . S
N1548 C1545 1.384 1_554 S
N1549 C1541 1.427 . S
N1549 C1547 1.384 . S
H1550 C1556 0.930 . S
H1551 C1560 0.930 . S
H1552 C1565 0.929 . S
H1553 C1563 0.929 . S
H1554 C1558 0.929 . S
H1555 C1564 0.929 . S
C1556 H1550 0.930 . S
C1556 C1557 1.367 . S
C1556 C1564 1.378 . S
C1557 C1556 1.367 . S
C1557 C1565 1.433 . S
C1558 H1554 0.929 . S
C1558 C1560 1.378 . S
C1558 C1562 1.350 . S
C1559 C1562 1.463 . S
C1559 C1564 1.350 . S
C1559 N1567 1.427 . S
C1560 H1551 0.930 . S
C1560 C1558 1.378 . S
C1560 C1561 1.367 . S
C1561 C1560 1.367 . S
C1561 C1563 1.433 . S
C1562 C1558 1.350 . S
C1562 C1559 1.463 . S
C1562 N1566 1.427 . S
C1563 H1553 0.929 . S
C1563 C1561 1.433 . S
C1563 N1566 1.384 . S
C1564 H1555 0.929 . S
C1564 C1556 1.378 . S
C1564 C1559 1.350 . S
C1565 H1552 0.929 . S
C1565 C1557 1.433 . S
C1565 N1567 1.384 . S
N1566 C1562 1.427 . S
N1566 C1563 1.384 . S
N1567 C1559 1.427 . S
N1567 C1565 1.384 . S
H1568 C1574 0.930 . S
H1569 C1578 0.930 . S
H1570 C1583 0.929 . S
H1571 C1581 0.929 . S
H1572 C1576 0.929 . S
H1573 C1582 0.929 . S
C1574 H1568 0.930 . S
C1574 C1575 1.367 . S
C1574 C1582 1.378 . S
C1575 C1574 1.367 . S
C1575 C1583 1.433 . S
C1576 H1572 0.929 . S
C1576 C1578 1.378 . S
C1576 C1580 1.350 . S
C1577 C1580 1.463 . S
C1577 C1582 1.350 . S
C1577 N1585 1.427 . S
C1578 H1569 0.930 . S
C1578 C1576 1.378 . S
C1578 C1579 1.367 . S
C1579 C1578 1.367 . S
C1579 C1581 1.433 . S
C1580 C1576 1.350 . S
C1580 C1577 1.463 . S
C1580 N1584 1.427 . S
C1581 H1571 0.929 . S
C1581 C1579 1.433 . S
C1581 N1584 1.384 . S
C1582 H1573 0.929 . S
C1582 C1574 1.378 . S
C1582 C1577 1.350 . S
C1583 H1570 0.929 . S
C1583 C1575 1.433 . S
C1583 N1585 1.384 . S
N1584 C1580 1.427 . S
N1584 C1581 1.384 . S
N1585 C1577 1.427 . S
N1585 C1583 1.384 . S
H1586 C1592 0.930 . S
H1587 C1596 0.930 . S
H1588 C1601 0.929 . S
H1589 C1599 0.929 . S
H1590 C1594 0.929 . S
H1591 C1600 0.929 . S
C1592 H1586 0.930 . S
C1592 C1593 1.367 . S
C1592 C1600 1.378 . S
C1593 C1592 1.367 . S
C1593 C1601 1.433 . S
C1594 H1590 0.929 . S
C1594 C1596 1.378 . S
C1594 C1598 1.350 . S
C1595 C1598 1.463 . S
C1595 C1600 1.350 . S
C1595 N1603 1.427 . S
C1596 H1587 0.930 . S
C1596 C1594 1.378 . S
C1596 C1597 1.367 . S
C1597 C1596 1.367 . S
C1597 C1599 1.433 . S
C1598 C1594 1.350 . S
C1598 C1595 1.463 . S
C1598 N1602 1.427 . S
C1599 H1589 0.929 . S
C1599 C1597 1.433 . S
C1599 N1602 1.384 . S
C1600 H1591 0.929 . S
C1600 C1592 1.378 . S
C1600 C1595 1.350 . S
C1601 H1588 0.929 . S
C1601 C1593 1.433 . S
C1601 N1603 1.384 . S
N1602 C1598 1.427 . S
N1602 C1599 1.384 . S
N1603 C1595 1.427 . S
N1603 C1601 1.384 . S
H1604 C1610 0.930 . S
H1605 C1614 0.930 . S
H1606 C1619 0.929 . S
H1607 C1617 0.929 . S
H1608 C1612 0.929 . S
H1609 C1618 0.929 . S
C1610 H1604 0.930 . S
C1610 C1611 1.367 . S
C1610 C1618 1.378 . S
C1611 C1610 1.367 . S
C1611 C1619 1.433 . S
C1612 H1608 0.929 . S
C1612 C1614 1.378 . S
C1612 C1616 1.350 . S
C1613 C1616 1.463 . S
C1613 C1618 1.350 . S
C1613 N1621 1.427 . S
C1614 H1605 0.930 . S
C1614 C1612 1.378 . S
C1614 C1615 1.367 . S
C1615 C1614 1.367 . S
C1615 C1617 1.433 . S
C1616 C1612 1.350 . S
C1616 C1613 1.463 . S
C1616 N1620 1.427 . S
C1617 H1607 0.929 . S
C1617 C1615 1.433 . S
C1617 N1620 1.384 . S
C1618 H1609 0.929 . S
C1618 C1610 1.378 . S
C1618 C1613 1.350 . S
C1619 H1606 0.929 . S
C1619 C1611 1.433 . S
C1619 N1621 1.384 . S
N1620 C1616 1.427 . S
N1620 C1617 1.384 . S
N1621 C1613 1.427 . S
N1621 C1619 1.384 . S
H1622 C1628 0.930 . S
H1623 C1632 0.930 1_556 S
H1624 C1637 0.929 . S
H1625 C1635 0.929 . S
H1626 C1630 0.929 . S
H1627 C1636 0.929 . S
C1628 H1622 0.930 . S
C1628 C1629 1.367 . S
C1628 C1636 1.378 . S
C1629 C1628 1.367 . S
C1629 C1637 1.433 . S
C1630 H1626 0.929 . S
C1630 C1632 1.378 1_556 S
C1630 C1634 1.350 . S
C1631 C1634 1.463 . S
C1631 C1636 1.350 . S
C1631 N1639 1.427 . S
C1632 H1623 0.930 1_554 S
C1632 C1630 1.378 1_554 S
C1632 C1633 1.367 . S
C1633 C1632 1.367 . S
C1633 C1635 1.433 . S
C1634 C1630 1.350 . S
C1634 C1631 1.463 . S
C1634 N1638 1.427 1_556 S
C1635 H1625 0.929 . S
C1635 C1633 1.433 . S
C1635 N1638 1.384 . S
C1636 H1627 0.929 . S
C1636 C1628 1.378 . S
C1636 C1631 1.350 . S
C1637 H1624 0.929 . S
C1637 C1629 1.433 . S
C1637 N1639 1.384 . S
N1638 C1634 1.427 1_554 S
N1638 C1635 1.384 . S
N1639 C1631 1.427 . S
N1639 C1637 1.384 . S
H1640 C1646 0.930 . S
H1641 C1650 0.930 . S
H1642 C1655 0.929 . S
H1643 C1653 0.929 . S
H1644 C1648 0.929 . S
H1645 C1654 0.929 . S
C1646 H1640 0.930 . S
C1646 C1647 1.367 . S
C1646 C1654 1.378 . S
C1647 C1646 1.367 . S
C1647 C1655 1.433 . S
C1648 H1644 0.929 . S
C1648 C1650 1.378 . S
C1648 C1652 1.350 . S
C1649 C1652 1.463 . S
C1649 C1654 1.350 . S
C1649 N1657 1.427 . S
C1650 H1641 0.930 . S
C1650 C1648 1.378 . S
C1650 C1651 1.367 . S
C1651 C1650 1.367 . S
C1651 C1653 1.433 . S
C1652 C1648 1.350 . S
C1652 C1649 1.463 . S
C1652 N1656 1.427 . S
C1653 H1643 0.929 . S
C1653 C1651 1.433 . S
C1653 N1656 1.384 . S
C1654 H1645 0.929 . S
C1654 C1646 1.378 . S
C1654 C1649 1.350 . S
C1655 H1642 0.929 . S
C1655 C1647 1.433 . S
C1655 N1657 1.384 . S
N1656 C1652 1.427 . S
N1656 C1653 1.384 . S
N1657 C1649 1.427 . S
N1657 C1655 1.384 . S
H1658 C1664 0.930 . S
H1659 C1668 0.930 . S
H1660 C1673 0.929 . S
H1661 C1671 0.929 . S
H1662 C1666 0.929 . S
H1663 C1672 0.929 . S
C1664 H1658 0.930 . S
C1664 C1665 1.367 . S
C1664 C1672 1.378 . S
C1665 C1664 1.367 . S
C1665 C1673 1.433 . S
C1666 H1662 0.929 . S
C1666 C1668 1.378 . S
C1666 C1670 1.350 . S
C1667 C1670 1.463 . S
C1667 C1672 1.350 . S
C1667 N1675 1.427 . S
C1668 H1659 0.930 . S
C1668 C1666 1.378 . S
C1668 C1669 1.367 . S
C1669 C1668 1.367 . S
C1669 C1671 1.433 . S
C1670 C1666 1.350 . S
C1670 C1667 1.463 . S
C1670 N1674 1.427 . S
C1671 H1661 0.929 . S
C1671 C1669 1.433 . S
C1671 N1674 1.384 . S
C1672 H1663 0.929 . S
C1672 C1664 1.378 . S
C1672 C1667 1.350 . S
C1673 H1660 0.929 . S
C1673 C1665 1.433 . S
C1673 N1675 1.384 . S
N1674 C1670 1.427 . S
N1674 C1671 1.384 . S
N1675 C1667 1.427 . S
N1675 C1673 1.384 . S
H1676 C1682 0.930 . S
H1677 C1686 0.930 . S
H1678 C1691 0.929 . S
H1679 C1689 0.929 . S
H1680 C1684 0.929 . S
H1681 C1690 0.929 . S
C1682 H1676 0.930 . S
C1682 C1683 1.367 . S
C1682 C1690 1.378 . S
C1683 C1682 1.367 . S
C1683 C1691 1.433 . S
C1684 H1680 0.929 . S
C1684 C1686 1.378 . S
C1684 C1688 1.350 . S
C1685 C1688 1.463 . S
C1685 C1690 1.350 1_556 S
C1685 N1693 1.427 . S
C1686 H1677 0.930 . S
C1686 C1684 1.378 . S
C1686 C1687 1.367 . S
C1687 C1686 1.367 . S
C1687 C1689 1.433 . S
C1688 C1684 1.350 . S
C1688 C1685 1.463 . S
C1688 N1692 1.427 . S
C1689 H1679 0.929 . S
C1689 C1687 1.433 . S
C1689 N1692 1.384 . S
C1690 H1681 0.929 . S
C1690 C1682 1.378 . S
C1690 C1685 1.350 1_554 S
C1691 H1678 0.929 . S
C1691 C1683 1.433 . S
C1691 N1693 1.384 1_554 S
N1692 C1688 1.427 . S
N1692 C1689 1.384 . S
N1693 C1685 1.427 . S
N1693 C1691 1.384 1_556 S
H1694 C1700 0.930 . S
H1695 C1704 0.930 . S
H1696 C1709 0.929 . S
H1697 C1707 0.929 . S
H1698 C1702 0.929 . S
H1699 C1708 0.929 . S
C1700 H1694 0.930 . S
C1700 C1701 1.367 . S
C1700 C1708 1.378 . S
C1701 C1700 1.367 . S
C1701 C1709 1.433 . S
C1702 H1698 0.929 . S
C1702 C1704 1.378 . S
C1702 C1706 1.350 . S
C1703 C1706 1.463 . S
C1703 C1708 1.350 . S
C1703 N1711 1.427 . S
C1704 H1695 0.930 . S
C1704 C1702 1.378 . S
C1704 C1705 1.367 . S
C1705 C1704 1.367 . S
C1705 C1707 1.433 . S
C1706 C1702 1.350 . S
C1706 C1703 1.463 . S
C1706 N1710 1.427 . S
C1707 H1697 0.929 . S
C1707 C1705 1.433 . S
C1707 N1710 1.384 . S
C1708 H1699 0.929 . S
C1708 C1700 1.378 . S
C1708 C1703 1.350 . S
C1709 H1696 0.929 . S
C1709 C1701 1.433 . S
C1709 N1711 1.384 . S
N1710 C1706 1.427 . S
N1710 C1707 1.384 . S
N1711 C1703 1.427 . S
N1711 C1709 1.384 . S
H1712 C1718 0.930 . S
H1713 C1722 0.930 . S
H1714 C1727 0.929 . S
H1715 C1725 0.929 . S
H1716 C1720 0.929 . S
H1717 C1726 0.929 . S
C1718 H1712 0.930 . S
C1718 C1719 1.367 . S
C1718 C1726 1.378 . S
C1719 C1718 1.367 . S
C1719 C1727 1.433 . S
C1720 H1716 0.929 . S
C1720 C1722 1.378 . S
C1720 C1724 1.350 . S
C1721 C1724 1.463 . S
C1721 C1726 1.350 . S
C1721 N1729 1.427 . S
C1722 H1713 0.930 . S
C1722 C1720 1.378 . S
C1722 C1723 1.367 . S
C1723 C1722 1.367 . S
C1723 C1725 1.433 . S
C1724 C1720 1.350 . S
C1724 C1721 1.463 . S
C1724 N1728 1.427 . S
C1725 H1715 0.929 . S
C1725 C1723 1.433 . S
C1725 N1728 1.384 . S
C1726 H1717 0.929 . S
C1726 C1718 1.378 . S
C1726 C1721 1.350 . S
C1727 H1714 0.929 . S
C1727 C1719 1.433 . S
C1727 N1729 1.384 . S
N1728 C1724 1.427 . S
N1728 C1725 1.384 . S
N1729 C1721 1.427 . S
N1729 C1727 1.384 . S
H1730 C1736 0.930 . S
H1731 C1740 0.930 . S
H1732 C1745 0.929 . S
H1733 C1743 0.929 . S
H1734 C1738 0.929 . S
H1735 C1744 0.929 . S
C1736 H1730 0.930 . S
C1736 C1737 1.367 . S
C1736 C1744 1.378 . S
C1737 C1736 1.367 . S
C1737 C1745 1.433 . S
C1738 H1734 0.929 . S
C1738 C1740 1.378 . S
C1738 C1742 1.350 . S
C1739 C1742 1.463 . S
C1739 C1744 1.350 . S
C1739 N1747 1.427 . S
C1740 H1731 0.930 . S
C1740 C1738 1.378 . S
C1740 C1741 1.367 . S
C1741 C1740 1.367 . S
C1741 C1743 1.433 . S
C1742 C1738 1.350 . S
C1742 C1739 1.463 . S
C1742 N1746 1.427 . S
C1743 H1733 0.929 . S
C1743 C1741 1.433 . S
C1743 N1746 1.384 . S
C1744 H1735 0.929 . S
C1744 C1736 1.378 . S
C1744 C1739 1.350 . S
C1745 H1732 0.929 . S
C1745 C1737 1.433 . S
C1745 N1747 1.384 . S
N1746 C1742 1.427 . S
N1746 C1743 1.384 . S
N1747 C1739 1.427 . S
N1747 C1745 1.384 . S
H1748 C1754 0.930 . S
H1749 C1758 0.930 . S
H1750 C1763 0.929 . S
H1751 C1761 0.929 . S
H1752 C1756 0.929 . S
H1753 C1762 0.929 . S
C1754 H1748 0.930 . S
C1754 C1755 1.367 . S
C1754 C1762 1.378 . S
C1755 C1754 1.367 . S
C1755 C1763 1.433 . S
C1756 H1752 0.929 . S
C1756 C1758 1.378 . S
C1756 C1760 1.350 . S
C1757 C1760 1.463 . S
C1757 C1762 1.350 . S
C1757 N1765 1.427 . S
C1758 H1749 0.930 . S
C1758 C1756 1.378 . S
C1758 C1759 1.367 . S
C1759 C1758 1.367 . S
C1759 C1761 1.433 . S
C1760 C1756 1.350 . S
C1760 C1757 1.463 . S
C1760 N1764 1.427 . S
C1761 H1751 0.929 . S
C1761 C1759 1.433 . S
C1761 N1764 1.384 . S
C1762 H1753 0.929 . S
C1762 C1754 1.378 . S
C1762 C1757 1.350 . S
C1763 H1750 0.929 . S
C1763 C1755 1.433 . S
C1763 N1765 1.384 . S
N1764 C1760 1.427 . S
N1764 C1761 1.384 . S
N1765 C1757 1.427 . S
N1765 C1763 1.384 . S
H1766 C1772 0.930 . S
H1767 C1776 0.930 . S
H1768 C1781 0.929 . S
H1769 C1779 0.929 . S
H1770 C1774 0.929 . S
H1771 C1780 0.929 . S
C1772 H1766 0.930 . S
C1772 C1773 1.367 . S
C1772 C1780 1.378 . S
C1773 C1772 1.367 . S
C1773 C1781 1.433 . S
C1774 H1770 0.929 . S
C1774 C1776 1.378 . S
C1774 C1778 1.350 . S
C1775 C1778 1.463 . S
C1775 C1780 1.350 . S
C1775 N1783 1.427 . S
C1776 H1767 0.930 . S
C1776 C1774 1.378 . S
C1776 C1777 1.367 . S
C1777 C1776 1.367 . S
C1777 C1779 1.433 . S
C1778 C1774 1.350 . S
C1778 C1775 1.463 . S
C1778 N1782 1.427 . S
C1779 H1769 0.929 . S
C1779 C1777 1.433 . S
C1779 N1782 1.384 . S
C1780 H1771 0.929 . S
C1780 C1772 1.378 . S
C1780 C1775 1.350 . S
C1781 H1768 0.929 . S
C1781 C1773 1.433 . S
C1781 N1783 1.384 . S
N1782 C1778 1.427 . S
N1782 C1779 1.384 . S
N1783 C1775 1.427 . S
N1783 C1781 1.384 . S
H1784 C1790 0.930 . S
H1785 C1794 0.930 . S
H1786 C1799 0.929 . S
H1787 C1797 0.929 . S
H1788 C1792 0.929 . S
H1789 C1798 0.929 . S
C1790 H1784 0.930 . S
C1790 C1791 1.367 . S
C1790 C1798 1.378 . S
C1791 C1790 1.367 . S
C1791 C1799 1.433 . S
C1792 H1788 0.929 . S
C1792 C1794 1.378 . S
C1792 C1796 1.350 . S
C1793 C1796 1.463 . S
C1793 C1798 1.350 . S
C1793 N1801 1.427 . S
C1794 H1785 0.930 . S
C1794 C1792 1.378 . S
C1794 C1795 1.367 . S
C1795 C1794 1.367 . S
C1795 C1797 1.433 . S
C1796 C1792 1.350 . S
C1796 C1793 1.463 . S
C1796 N1800 1.427 . S
C1797 H1787 0.929 . S
C1797 C1795 1.433 . S
C1797 N1800 1.384 . S
C1798 H1789 0.929 . S
C1798 C1790 1.378 . S
C1798 C1793 1.350 . S
C1799 H1786 0.929 . S
C1799 C1791 1.433 . S
C1799 N1801 1.384 . S
N1800 C1796 1.427 . S
N1800 C1797 1.384 . S
N1801 C1793 1.427 . S
N1801 C1799 1.384 . S
H1802 C1808 0.930 . S
H1803 C1812 0.930 . S
H1804 C1817 0.929 . S
H1805 C1815 0.929 . S
H1806 C1810 0.929 . S
H1807 C1816 0.929 . S
C1808 H1802 0.930 . S
C1808 C1809 1.367 . S
C1808 C1816 1.378 . S
C1809 C1808 1.367 . S
C1809 C1817 1.433 . S
C1810 H1806 0.929 . S
C1810 C1812 1.378 . S
C1810 C1814 1.350 . S
C1811 C1814 1.463 . S
C1811 C1816 1.350 . S
C1811 N1819 1.427 . S
C1812 H1803 0.930 . S
C1812 C1810 1.378 . S
C1812 C1813 1.367 . S
C1813 C1812 1.367 . S
C1813 C1815 1.433 . S
C1814 C1810 1.350 . S
C1814 C1811 1.463 . S
C1814 N1818 1.427 . S
C1815 H1805 0.929 . S
C1815 C1813 1.433 . S
C1815 N1818 1.384 . S
C1816 H1807 0.929 . S
C1816 C1808 1.378 . S
C1816 C1811 1.350 . S
C1817 H1804 0.929 . S
C1817 C1809 1.433 . S
C1817 N1819 1.384 . S
N1818 C1814 1.427 . S
N1818 C1815 1.384 . S
N1819 C1811 1.427 . S
N1819 C1817 1.384 . S
H1820 C1826 0.930 . S
H1821 C1830 0.930 . S
H1822 C1835 0.929 . S
H1823 C1833 0.929 . S
H1824 C1828 0.929 . S
H1825 C1834 0.929 . S
C1826 H1820 0.930 . S
C1826 C1827 1.367 . S
C1826 C1834 1.378 . S
C1827 C1826 1.367 . S
C1827 C1835 1.433 . S
C1828 H1824 0.929 . S
C1828 C1830 1.378 . S
C1828 C1832 1.350 . S
C1829 C1832 1.463 . S
C1829 C1834 1.350 . S
C1829 N1837 1.427 . S
C1830 H1821 0.930 . S
C1830 C1828 1.378 . S
C1830 C1831 1.367 . S
C1831 C1830 1.367 . S
C1831 C1833 1.433 . S
C1832 C1828 1.350 . S
C1832 C1829 1.463 . S
C1832 N1836 1.427 . S
C1833 H1823 0.929 . S
C1833 C1831 1.433 . S
C1833 N1836 1.384 . S
C1834 H1825 0.929 . S
C1834 C1826 1.378 . S
C1834 C1829 1.350 . S
C1835 H1822 0.929 . S
C1835 C1827 1.433 . S
C1835 N1837 1.384 . S
N1836 C1832 1.427 . S
N1836 C1833 1.384 . S
N1837 C1829 1.427 . S
N1837 C1835 1.384 . S
H1838 C1844 0.930 . S
H1839 C1848 0.930 . S
H1840 C1853 0.929 . S
H1841 C1851 0.929 . S
H1842 C1846 0.929 . S
H1843 C1852 0.929 . S
C1844 H1838 0.930 . S
C1844 C1845 1.367 . S
C1844 C1852 1.378 . S
C1845 C1844 1.367 . S
C1845 C1853 1.433 . S
C1846 H1842 0.929 . S
C1846 C1848 1.378 . S
C1846 C1850 1.350 . S
C1847 C1850 1.463 . S
C1847 C1852 1.350 . S
C1847 N1855 1.427 . S
C1848 H1839 0.930 . S
C1848 C1846 1.378 . S
C1848 C1849 1.367 . S
C1849 C1848 1.367 . S
C1849 C1851 1.433 . S
C1850 C1846 1.350 . S
C1850 C1847 1.463 . S
C1850 N1854 1.427 . S
C1851 H1841 0.929 . S
C1851 C1849 1.433 . S
C1851 N1854 1.384 . S
C1852 H1843 0.929 . S
C1852 C1844 1.378 . S
C1852 C1847 1.350 . S
C1853 H1840 0.929 . S
C1853 C1845 1.433 . S
C1853 N1855 1.384 . S
N1854 C1850 1.427 . S
N1854 C1851 1.384 . S
N1855 C1847 1.427 . S
N1855 C1853 1.384 . S
H1856 C1862 0.930 . S
H1857 C1866 0.930 . S
H1858 C1871 0.929 . S
H1859 C1869 0.929 . S
H1860 C1864 0.929 . S
H1861 C1870 0.929 . S
C1862 H1856 0.930 . S
C1862 C1863 1.367 . S
C1862 C1870 1.378 . S
C1863 C1862 1.367 . S
C1863 C1871 1.433 1_655 S
C1864 H1860 0.929 . S
C1864 C1866 1.378 . S
C1864 C1868 1.350 . S
C1865 C1868 1.463 1_655 S
C1865 C1870 1.350 . S
C1865 N1873 1.427 1_655 S
C1866 H1857 0.930 . S
C1866 C1864 1.378 . S
C1866 C1867 1.367 . S
C1867 C1866 1.367 . S
C1867 C1869 1.433 1_455 S
C1868 C1864 1.350 . S
C1868 C1865 1.463 1_455 S
C1868 N1872 1.427 1_455 S
C1869 H1859 0.929 . S
C1869 C1867 1.433 1_655 S
C1869 N1872 1.384 . S
C1870 H1861 0.929 . S
C1870 C1862 1.378 . S
C1870 C1865 1.350 . S
C1871 H1858 0.929 . S
C1871 C1863 1.433 1_455 S
C1871 N1873 1.384 . S
N1872 C1868 1.427 1_655 S
N1872 C1869 1.384 . S
N1873 C1865 1.427 1_455 S
N1873 C1871 1.384 . S
H1874 C1880 0.930 . S
H1875 C1884 0.930 . S
H1876 C1889 0.929 . S
H1877 C1887 0.929 . S
H1878 C1882 0.929 . S
H1879 C1888 0.929 . S
C1880 H1874 0.930 . S
C1880 C1881 1.367 . S
C1880 C1888 1.378 . S
C1881 C1880 1.367 . S
C1881 C1889 1.433 . S
C1882 H1878 0.929 . S
C1882 C1884 1.378 . S
C1882 C1886 1.350 . S
C1883 C1886 1.463 . S
C1883 C1888 1.350 . S
C1883 N1891 1.427 . S
C1884 H1875 0.930 . S
C1884 C1882 1.378 . S
C1884 C1885 1.367 . S
C1885 C1884 1.367 . S
C1885 C1887 1.433 . S
C1886 C1882 1.350 . S
C1886 C1883 1.463 . S
C1886 N1890 1.427 . S
C1887 H1877 0.929 . S
C1887 C1885 1.433 . S
C1887 N1890 1.384 . S
C1888 H1879 0.929 . S
C1888 C1880 1.378 . S
C1888 C1883 1.350 . S
C1889 H1876 0.929 . S
C1889 C1881 1.433 . S
C1889 N1891 1.384 . S
N1890 C1886 1.427 . S
N1890 C1887 1.384 . S
N1891 C1883 1.427 . S
N1891 C1889 1.384 . S
H1892 C1898 0.930 . S
H1893 C1902 0.930 . S
H1894 C1907 0.929 . S
H1895 C1905 0.929 . S
H1896 C1900 0.929 . S
H1897 C1906 0.929 . S
C1898 H1892 0.930 . S
C1898 C1899 1.367 . S
C1898 C1906 1.378 . S
C1899 C1898 1.367 . S
C1899 C1907 1.433 . S
C1900 H1896 0.929 . S
C1900 C1902 1.378 . S
C1900 C1904 1.350 . S
C1901 C1904 1.463 . S
C1901 C1906 1.350 . S
C1901 N1909 1.427 . S
C1902 H1893 0.930 . S
C1902 C1900 1.378 . S
C1902 C1903 1.367 . S
C1903 C1902 1.367 . S
C1903 C1905 1.433 . S
C1904 C1900 1.350 . S
C1904 C1901 1.463 . S
C1904 N1908 1.427 . S
C1905 H1895 0.929 . S
C1905 C1903 1.433 . S
C1905 N1908 1.384 . S
C1906 H1897 0.929 . S
C1906 C1898 1.378 . S
C1906 C1901 1.350 . S
C1907 H1894 0.929 . S
C1907 C1899 1.433 . S
C1907 N1909 1.384 . S
N1908 C1904 1.427 . S
N1908 C1905 1.384 . S
N1909 C1901 1.427 . S
N1909 C1907 1.384 . S
H1910 C1916 0.930 . S
H1911 C1920 0.930 . S
H1912 C1925 0.929 . S
H1913 C1923 0.929 . S
H1914 C1918 0.929 . S
H1915 C1924 0.929 . S
C1916 H1910 0.930 . S
C1916 C1917 1.367 . S
C1916 C1924 1.378 . S
C1917 C1916 1.367 . S
C1917 C1925 1.433 . S
C1918 H1914 0.929 . S
C1918 C1920 1.378 . S
C1918 C1922 1.350 . S
C1919 C1922 1.463 . S
C1919 C1924 1.350 . S
C1919 N1927 1.427 . S
C1920 H1911 0.930 . S
C1920 C1918 1.378 . S
C1920 C1921 1.367 . S
C1921 C1920 1.367 . S
C1921 C1923 1.433 . S
C1922 C1918 1.350 . S
C1922 C1919 1.463 . S
C1922 N1926 1.427 . S
C1923 H1913 0.929 . S
C1923 C1921 1.433 . S
C1923 N1926 1.384 . S
C1924 H1915 0.929 . S
C1924 C1916 1.378 . S
C1924 C1919 1.350 . S
C1925 H1912 0.929 . S
C1925 C1917 1.433 . S
C1925 N1927 1.384 . S
N1926 C1922 1.427 . S
N1926 C1923 1.384 . S
N1927 C1919 1.427 . S
N1927 C1925 1.384 . S
H1928 C1934 0.930 . S
H1929 C1938 0.930 . S
H1930 C1943 0.929 . S
H1931 C1941 0.929 . S
H1932 C1936 0.905 1_655 S
H1933 C1942 0.905 1_455 S
C1934 H1928 0.930 . S
C1934 C1935 1.367 . S
C1934 C1942 1.378 . S
C1935 C1934 1.367 . S
C1935 C1943 1.433 . S
C1936 H1932 0.905 1_455 S
C1936 C1938 1.378 . S
C1936 C1940 1.350 . S
C1937 C1940 1.463 1_655 S
C1937 C1942 1.350 . S
C1937 N1945 1.427 . S
C1938 H1929 0.930 . S
C1938 C1936 1.378 . S
C1938 C1939 1.367 . S
C1939 C1938 1.367 . S
C1939 C1941 1.433 . S
C1940 C1936 1.350 . S
C1940 C1937 1.463 1_455 S
C1940 N1944 1.427 . S
C1941 H1931 0.929 . S
C1941 C1939 1.433 . S
C1941 N1944 1.384 . S
C1942 H1933 0.905 1_655 S
C1942 C1934 1.378 . S
C1942 C1937 1.350 . S
C1943 H1930 0.929 . S
C1943 C1935 1.433 . S
C1943 N1945 1.384 . S
N1944 C1940 1.427 . S
N1944 C1941 1.384 . S
N1945 C1937 1.427 . S
N1945 C1943 1.384 . S
H1946 C1952 0.930 . S
H1947 C1956 0.930 . S
H1948 C1961 0.929 . S
H1949 C1959 0.929 . S
H1950 C1954 0.929 . S
H1951 C1960 0.929 . S
C1952 H1946 0.930 . S
C1952 C1953 1.367 . S
C1952 C1960 1.378 . S
C1953 C1952 1.367 . S
C1953 C1961 1.433 . S
C1954 H1950 0.929 . S
C1954 C1956 1.378 . S
C1954 C1958 1.350 . S
C1955 C1958 1.463 . S
C1955 C1960 1.350 . S
C1955 N1963 1.427 . S
C1956 H1947 0.930 . S
C1956 C1954 1.378 . S
C1956 C1957 1.367 . S
C1957 C1956 1.367 . S
C1957 C1959 1.433 . S
C1958 C1954 1.350 . S
C1958 C1955 1.463 . S
C1958 N1962 1.427 . S
C1959 H1949 0.929 . S
C1959 C1957 1.433 . S
C1959 N1962 1.384 . S
C1960 H1951 0.929 . S
C1960 C1952 1.378 . S
C1960 C1955 1.350 . S
C1961 H1948 0.929 . S
C1961 C1953 1.433 . S
C1961 N1963 1.384 . S
N1962 C1958 1.427 . S
N1962 C1959 1.384 . S
N1963 C1955 1.427 . S
N1963 C1961 1.384 . S
H1964 C1970 0.930 . S
H1965 C1974 0.930 . S
H1966 C1979 0.929 . S
H1967 C1977 0.929 . S
H1968 C1972 0.929 . S
H1969 C1978 0.929 . S
C1970 H1964 0.930 . S
C1970 C1971 1.367 . S
C1970 C1978 1.378 . S
C1971 C1970 1.367 . S
C1971 C1979 1.433 . S
C1972 H1968 0.929 . S
C1972 C1974 1.378 . S
C1972 C1976 1.350 . S
C1973 C1976 1.463 . S
C1973 C1978 1.350 . S
C1973 N1981 1.427 . S
C1974 H1965 0.930 . S
C1974 C1972 1.378 . S
C1974 C1975 1.367 . S
C1975 C1974 1.367 . S
C1975 C1977 1.433 . S
C1976 C1972 1.350 . S
C1976 C1973 1.463 . S
C1976 N1980 1.427 . S
C1977 H1967 0.929 . S
C1977 C1975 1.433 . S
C1977 N1980 1.384 . S
C1978 H1969 0.929 . S
C1978 C1970 1.378 . S
C1978 C1973 1.350 . S
C1979 H1966 0.929 . S
C1979 C1971 1.433 . S
C1979 N1981 1.384 . S
N1980 C1976 1.427 . S
N1980 C1977 1.384 . S
N1981 C1973 1.427 . S
N1981 C1979 1.384 . S
H1982 C1988 0.930 . S
H1983 C1992 0.930 . S
H1984 C1997 0.929 . S
H1985 C1995 0.929 . S
H1986 C1990 0.929 . S
H1987 C1996 0.929 . S
C1988 H1982 0.930 . S
C1988 C1989 1.367 . S
C1988 C1996 1.378 . S
C1989 C1988 1.367 . S
C1989 C1997 1.433 . S
C1990 H1986 0.929 . S
C1990 C1992 1.378 . S
C1990 C1994 1.350 . S
C1991 C1994 1.463 . S
C1991 C1996 1.350 . S
C1991 N1999 1.427 . S
C1992 H1983 0.930 . S
C1992 C1990 1.378 . S
C1992 C1993 1.367 . S
C1993 C1992 1.367 . S
C1993 C1995 1.433 . S
C1994 C1990 1.350 . S
C1994 C1991 1.463 . S
C1994 N1998 1.427 . S
C1995 H1985 0.929 . S
C1995 C1993 1.433 . S
C1995 N1998 1.384 . S
C1996 H1987 0.929 . S
C1996 C1988 1.378 . S
C1996 C1991 1.350 . S
C1997 H1984 0.929 . S
C1997 C1989 1.433 . S
C1997 N1999 1.384 . S
N1998 C1994 1.427 . S
N1998 C1995 1.384 . S
N1999 C1991 1.427 . S
N1999 C1997 1.384 . S
H2000 C2006 0.930 . S
H2001 C2010 0.930 . S
H2002 C2015 0.929 . S
H2003 C2013 0.929 . S
H2004 C2008 0.929 . S
H2005 C2014 0.929 . S
C2006 H2000 0.930 . S
C2006 C2007 1.367 . S
C2006 C2014 1.378 . S
C2007 C2006 1.367 . S
C2007 C2015 1.433 . S
C2008 H2004 0.929 . S
C2008 C2010 1.378 . S
C2008 C2012 1.350 . S
C2009 C2012 1.463 . S
C2009 C2014 1.350 . S
C2009 N2017 1.427 . S
C2010 H2001 0.930 . S
C2010 C2008 1.378 . S
C2010 C2011 1.367 . S
C2011 C2010 1.367 . S
C2011 C2013 1.433 . S
C2012 C2008 1.350 . S
C2012 C2009 1.463 . S
C2012 N2016 1.427 . S
C2013 H2003 0.929 . S
C2013 C2011 1.433 . S
C2013 N2016 1.384 . S
C2014 H2005 0.929 . S
C2014 C2006 1.378 . S
C2014 C2009 1.350 . S
C2015 H2002 0.929 . S
C2015 C2007 1.433 . S
C2015 N2017 1.384 . S
N2016 C2012 1.427 . S
N2016 C2013 1.384 . S
N2017 C2009 1.427 . S
N2017 C2015 1.384 . S
H2018 C2024 0.930 . S
H2019 C2028 0.930 . S
H2020 C2033 0.929 . S
H2021 C2031 0.929 . S
H2022 C2026 0.929 . S
H2023 C2032 0.929 . S
C2024 H2018 0.930 . S
C2024 C2025 1.367 . S
C2024 C2032 1.378 . S
C2025 C2024 1.367 . S
C2025 C2033 1.433 . S
C2026 H2022 0.929 . S
C2026 C2028 1.378 . S
C2026 C2030 1.350 . S
C2027 C2030 1.463 . S
C2027 C2032 1.350 . S
C2027 N2035 1.427 . S
C2028 H2019 0.930 . S
C2028 C2026 1.378 . S
C2028 C2029 1.367 . S
C2029 C2028 1.367 . S
C2029 C2031 1.433 . S
C2030 C2026 1.350 . S
C2030 C2027 1.463 . S
C2030 N2034 1.427 . S
C2031 H2021 0.929 . S
C2031 C2029 1.433 . S
C2031 N2034 1.384 . S
C2032 H2023 0.929 . S
C2032 C2024 1.378 . S
C2032 C2027 1.350 . S
C2033 H2020 0.929 . S
C2033 C2025 1.433 . S
C2033 N2035 1.384 . S
N2034 C2030 1.427 . S
N2034 C2031 1.384 . S
N2035 C2027 1.427 . S
N2035 C2033 1.384 . S
H2036 C2042 0.930 . S
H2037 C2046 0.930 . S
H2038 C2051 0.929 . S
H2039 C2049 0.929 . S
H2040 C2044 0.929 . S
H2041 C2050 0.929 . S
C2042 H2036 0.930 . S
C2042 C2043 1.367 . S
C2042 C2050 1.378 . S
C2043 C2042 1.367 . S
C2043 C2051 1.433 . S
C2044 H2040 0.929 . S
C2044 C2046 1.378 . S
C2044 C2048 1.350 . S
C2045 C2048 1.463 . S
C2045 C2050 1.350 . S
C2045 N2053 1.427 . S
C2046 H2037 0.930 . S
C2046 C2044 1.378 . S
C2046 C2047 1.367 . S
C2047 C2046 1.367 . S
C2047 C2049 1.433 . S
C2048 C2044 1.350 . S
C2048 C2045 1.463 . S
C2048 N2052 1.427 . S
C2049 H2039 0.929 . S
C2049 C2047 1.433 . S
C2049 N2052 1.384 . S
C2050 H2041 0.929 . S
C2050 C2042 1.378 . S
C2050 C2045 1.350 . S
C2051 H2038 0.929 . S
C2051 C2043 1.433 . S
C2051 N2053 1.384 . S
N2052 C2048 1.427 . S
N2052 C2049 1.384 . S
N2053 C2045 1.427 . S
N2053 C2051 1.384 . S
H2054 C2060 0.930 . S
H2055 C2064 0.930 . S
H2056 C2069 0.929 . S
H2057 C2067 0.929 1_554 S
H2058 C2062 0.929 . S
H2059 C2068 0.929 . S
C2060 H2054 0.930 . S
C2060 C2061 1.367 . S
C2060 C2068 1.378 . S
C2061 C2060 1.367 . S
C2061 C2069 1.433 . S
C2062 H2058 0.929 . S
C2062 C2064 1.378 . S
C2062 C2066 1.350 . S
C2063 C2066 1.463 . S
C2063 C2068 1.350 . S
C2063 N2071 1.427 . S
C2064 H2055 0.930 . S
C2064 C2062 1.378 . S
C2064 C2065 1.367 . S
C2065 C2064 1.367 . S
C2065 C2067 1.433 . S
C2066 C2062 1.350 . S
C2066 C2063 1.463 . S
C2066 N2070 1.427 . S
C2067 H2057 0.929 1_556 S
C2067 C2065 1.433 . S
C2067 N2070 1.384 . S
C2068 H2059 0.929 . S
C2068 C2060 1.378 . S
C2068 C2063 1.350 . S
C2069 H2056 0.929 . S
C2069 C2061 1.433 . S
C2069 N2071 1.384 . S
N2070 C2066 1.427 . S
N2070 C2067 1.384 . S
N2071 C2063 1.427 . S
N2071 C2069 1.384 . S
H2072 C2078 0.930 . S
H2073 C2082 0.930 . S
H2074 C2087 0.929 . S
H2075 C2085 0.929 . S
H2076 C2080 0.929 . S
H2077 C2086 0.929 . S
C2078 H2072 0.930 . S
C2078 C2079 1.367 . S
C2078 C2086 1.378 . S
C2079 C2078 1.367 . S
C2079 C2087 1.433 . S
C2080 H2076 0.929 . S
C2080 C2082 1.378 . S
C2080 C2084 1.350 . S
C2081 C2084 1.463 1_545 S
C2081 C2086 1.350 . S
C2081 N2089 1.427 . S
C2082 H2073 0.930 . S
C2082 C2080 1.378 . S
C2082 C2083 1.367 . S
C2083 C2082 1.367 . S
C2083 C2085 1.433 . S
C2084 C2080 1.350 . S
C2084 C2081 1.463 1_565 S
C2084 N2088 1.427 . S
C2085 H2075 0.929 . S
C2085 C2083 1.433 . S
C2085 N2088 1.384 . S
C2086 H2077 0.929 . S
C2086 C2078 1.378 . S
C2086 C2081 1.350 . S
C2087 H2074 0.929 . S
C2087 C2079 1.433 . S
C2087 N2089 1.384 . S
N2088 C2084 1.427 . S
N2088 C2085 1.384 . S
N2089 C2081 1.427 . S
N2089 C2087 1.384 . S
H2090 C2096 0.930 . S
H2091 C2100 0.930 . S
H2092 C2105 0.929 . S
H2093 C2103 0.929 . S
H2094 C2098 0.929 1_565 S
H2095 C2104 0.929 1_545 S
C2096 H2090 0.930 . S
C2096 C2097 1.367 . S
C2096 C2104 1.378 . S
C2097 C2096 1.367 . S
C2097 C2105 1.433 . S
C2098 H2094 0.929 1_545 S
C2098 C2100 1.378 . S
C2098 C2102 1.350 . S
C2099 C2102 1.463 1_465 S
C2099 C2104 1.350 . S
C2099 N2107 1.436 . S
C2100 H2091 0.930 . S
C2100 C2098 1.378 . S
C2100 C2101 1.367 . S
C2101 C2100 1.367 . S
C2101 C2103 1.433 . S
C2102 C2098 1.350 . S
C2102 C2099 1.463 1_645 S
C2102 N2106 1.436 . S
C2103 H2093 0.929 . S
C2103 C2101 1.433 . S
C2103 N2106 1.403 . S
C2104 H2095 0.929 1_565 S
C2104 C2096 1.378 . S
C2104 C2099 1.350 . S
C2105 H2092 0.929 . S
C2105 C2097 1.433 . S
C2105 N2107 1.403 . S
N2106 C2102 1.436 . S
N2106 C2103 1.403 . S
N2107 C2099 1.436 . S
N2107 C2105 1.403 . S
H2108 C2114 0.930 . S
H2109 C2118 0.930 . S
H2110 C2123 0.929 . S
H2111 C2121 0.929 . S
H2112 C2116 0.929 . S
H2113 C2122 0.929 . S
C2114 H2108 0.930 . S
C2114 C2115 1.367 1_545 S
C2114 C2122 1.378 . S
C2115 C2114 1.367 1_565 S
C2115 C2123 1.433 . S
C2116 H2112 0.929 . S
C2116 C2118 1.378 . S
C2116 C2120 1.350 1_565 S
C2117 C2120 1.463 1_565 S
C2117 C2122 1.350 1_565 S
C2117 N2125 1.427 . S
C2118 H2109 0.930 . S
C2118 C2116 1.378 . S
C2118 C2119 1.367 1_565 S
C2119 C2118 1.367 1_545 S
C2119 C2121 1.433 . S
C2120 C2116 1.350 1_545 S
C2120 C2117 1.463 1_545 S
C2120 N2124 1.427 . S
C2121 H2111 0.929 . S
C2121 C2119 1.433 . S
C2121 N2124 1.384 . S
C2122 H2113 0.929 . S
C2122 C2114 1.378 . S
C2122 C2117 1.350 1_545 S
C2123 H2110 0.929 . S
C2123 C2115 1.433 . S
C2123 N2125 1.384 . S
N2124 C2120 1.427 . S
N2124 C2121 1.384 . S
N2125 C2117 1.427 . S
N2125 C2123 1.384 . S
H2126 C2132 0.930 . S
H2127 C2136 0.930 . S
H2128 C2141 0.929 . S
H2129 C2139 0.929 . S
H2130 C2134 0.929 . S
H2131 C2140 0.929 . S
C2132 H2126 0.930 . S
C2132 C2133 1.367 . S
C2132 C2140 1.378 . S
C2133 C2132 1.367 . S
C2133 C2141 1.433 1_565 S
C2134 H2130 0.929 . S
C2134 C2136 1.378 . S
C2134 C2138 1.350 . S
C2135 C2138 1.463 1_665 S
C2135 C2140 1.350 . S
C2135 N2143 1.427 1_565 S
C2136 H2127 0.930 . S
C2136 C2134 1.378 . S
C2136 C2137 1.367 . S
C2137 C2136 1.367 . S
C2137 C2139 1.433 1_545 S
C2138 C2134 1.350 . S
C2138 C2135 1.463 1_445 S
C2138 N2142 1.427 1_545 S
C2139 H2129 0.929 . S
C2139 C2137 1.433 1_565 S
C2139 N2142 1.384 . S
C2140 H2131 0.929 . S
C2140 C2132 1.378 . S
C2140 C2135 1.350 . S
C2141 H2128 0.929 . S
C2141 C2133 1.433 1_545 S
C2141 N2143 1.384 . S
N2142 C2138 1.427 1_565 S
N2142 C2139 1.384 . S
N2143 C2135 1.427 1_545 S
N2143 C2141 1.384 . S
H2144 C2150 0.930 . S
H2145 C2154 0.930 . S
H2146 C2159 0.930 1_655 S
H2147 C2157 0.929 . S
H2148 C2152 0.929 . S
H2149 C2158 0.929 . S
C2150 H2144 0.930 . S
C2150 C2151 1.367 1_556 S
C2150 C2158 1.378 . S
C2151 C2150 1.367 1_554 S
C2151 C2159 1.433 . S
C2152 H2148 0.929 . S
C2152 C2154 1.378 . S
C2152 C2156 1.350 . S
C2153 C2156 1.463 . S
C2153 C2158 1.349 1_655 S
C2153 N2161 1.428 . S
C2154 H2145 0.930 . S
C2154 C2152 1.378 . S
C2154 C2155 1.367 . S
C2155 C2154 1.367 . S
C2155 C2157 1.433 . S
C2156 C2152 1.350 . S
C2156 C2153 1.463 . S
C2156 N2160 1.427 . S
C2157 H2147 0.929 . S
C2157 C2155 1.433 . S
C2157 N2160 1.384 . S
C2158 H2149 0.929 . S
C2158 C2150 1.378 . S
C2158 C2153 1.349 1_455 S
C2159 H2146 0.930 1_455 S
C2159 C2151 1.433 . S
C2159 N2161 1.384 1_454 S
N2160 C2156 1.427 . S
N2160 C2157 1.384 . S
N2161 C2153 1.428 . S
N2161 C2159 1.384 1_656 S
H2162 C2168 0.930 . S
H2163 C2172 0.930 . S
H2164 C2177 0.929 . S
H2165 C2175 0.929 . S
H2166 C2170 0.929 . S
H2167 C2176 0.929 . S
C2168 H2162 0.930 . S
C2168 C2169 1.367 . S
C2168 C2176 1.378 . S
C2169 C2168 1.367 . S
C2169 C2177 1.433 . S
C2170 H2166 0.929 . S
C2170 C2172 1.378 . S
C2170 C2174 1.350 . S
C2171 C2174 1.463 . S
C2171 C2176 1.350 . S
C2171 N2179 1.427 . S
C2172 H2163 0.930 . S
C2172 C2170 1.378 . S
C2172 C2173 1.367 . S
C2173 C2172 1.367 . S
C2173 C2175 1.433 . S
C2174 C2170 1.350 . S
C2174 C2171 1.463 . S
C2174 N2178 1.427 . S
C2175 H2165 0.929 . S
C2175 C2173 1.433 . S
C2175 N2178 1.384 . S
C2176 H2167 0.929 . S
C2176 C2168 1.378 . S
C2176 C2171 1.350 . S
C2177 H2164 0.929 . S
C2177 C2169 1.433 . S
C2177 N2179 1.384 . S
N2178 C2174 1.427 . S
N2178 C2175 1.384 . S
N2179 C2171 1.427 . S
N2179 C2177 1.384 . S
H2180 C2186 0.930 . S
H2181 C2190 0.930 . S
H2182 C2195 0.929 . S
H2183 C2193 0.929 . S
H2184 C2188 0.929 . S
H2185 C2194 0.929 . S
C2186 H2180 0.930 . S
C2186 C2187 1.367 . S
C2186 C2194 1.378 . S
C2187 C2186 1.367 . S
C2187 C2195 1.433 . S
C2188 H2184 0.929 . S
C2188 C2190 1.378 . S
C2188 C2192 1.350 . S
C2189 C2192 1.463 . S
C2189 C2194 1.350 . S
C2189 N2197 1.427 . S
C2190 H2181 0.930 . S
C2190 C2188 1.378 . S
C2190 C2191 1.367 . S
C2191 C2190 1.367 . S
C2191 C2193 1.433 . S
C2192 C2188 1.350 . S
C2192 C2189 1.463 . S
C2192 N2196 1.427 . S
C2193 H2183 0.929 . S
C2193 C2191 1.433 . S
C2193 N2196 1.384 . S
C2194 H2185 0.929 . S
C2194 C2186 1.378 . S
C2194 C2189 1.350 . S
C2195 H2182 0.929 . S
C2195 C2187 1.433 . S
C2195 N2197 1.384 . S
N2196 C2192 1.427 . S
N2196 C2193 1.384 . S
N2197 C2189 1.427 . S
N2197 C2195 1.384 . S
H2198 C2204 0.930 . S
H2199 C2208 0.930 . S
H2200 C2213 0.929 . S
H2201 C2211 0.929 . S
H2202 C2206 0.929 . S
H2203 C2212 0.929 . S
C2204 H2198 0.930 . S
C2204 C2205 1.367 . S
C2204 C2212 1.378 . S
C2205 C2204 1.367 . S
C2205 C2213 1.433 . S
C2206 H2202 0.929 . S
C2206 C2208 1.378 . S
C2206 C2210 1.350 . S
C2207 C2210 1.463 . S
C2207 C2212 1.350 . S
C2207 N2215 1.427 . S
C2208 H2199 0.930 . S
C2208 C2206 1.378 . S
C2208 C2209 1.367 . S
C2209 C2208 1.367 . S
C2209 C2211 1.433 . S
C2210 C2206 1.350 . S
C2210 C2207 1.463 . S
C2210 N2214 1.427 . S
C2211 H2201 0.929 . S
C2211 C2209 1.433 . S
C2211 N2214 1.384 . S
C2212 H2203 0.929 . S
C2212 C2204 1.378 . S
C2212 C2207 1.350 . S
C2213 H2200 0.929 . S
C2213 C2205 1.433 . S
C2213 N2215 1.384 . S
N2214 C2210 1.427 . S
N2214 C2211 1.384 . S
N2215 C2207 1.427 . S
N2215 C2213 1.384 . S
H2216 C2222 0.930 . S
H2217 C2226 0.930 . S
H2218 C2231 0.929 . S
H2219 C2229 0.929 . S
H2220 C2224 0.929 . S
H2221 C2230 0.929 . S
C2222 H2216 0.930 . S
C2222 C2223 1.367 1_455 S
C2222 C2230 1.378 . S
C2223 C2222 1.367 1_655 S
C2223 C2231 1.433 . S
C2224 H2220 0.929 . S
C2224 C2226 1.378 . S
C2224 C2228 1.350 . S
C2225 C2228 1.463 . S
C2225 C2230 1.350 . S
C2225 N2233 1.427 . S
C2226 H2217 0.930 . S
C2226 C2224 1.378 . S
C2226 C2227 1.367 . S
C2227 C2226 1.367 . S
C2227 C2229 1.433 . S
C2228 C2224 1.350 . S
C2228 C2225 1.463 . S
C2228 N2232 1.427 . S
C2229 H2219 0.929 . S
C2229 C2227 1.433 . S
C2229 N2232 1.384 . S
C2230 H2221 0.929 . S
C2230 C2222 1.378 . S
C2230 C2225 1.350 . S
C2231 H2218 0.929 . S
C2231 C2223 1.433 . S
C2231 N2233 1.384 1_655 S
N2232 C2228 1.427 . S
N2232 C2229 1.384 . S
N2233 C2225 1.427 . S
N2233 C2231 1.384 1_455 S
H2234 C2240 0.930 . S
H2235 C2244 0.930 . S
H2236 C2249 0.929 . S
H2237 C2247 0.929 . S
H2238 C2242 0.929 . S
H2239 C2248 0.929 . S
C2240 H2234 0.930 . S
C2240 C2241 1.367 . S
C2240 C2248 1.378 . S
C2241 C2240 1.367 . S
C2241 C2249 1.433 . S
C2242 H2238 0.929 . S
C2242 C2244 1.378 . S
C2242 C2246 1.350 . S
C2243 C2246 1.463 . S
C2243 C2248 1.350 . S
C2243 N2251 1.427 . S
C2244 H2235 0.930 . S
C2244 C2242 1.378 . S
C2244 C2245 1.367 . S
C2245 C2244 1.367 . S
C2245 C2247 1.433 . S
C2246 C2242 1.350 . S
C2246 C2243 1.463 . S
C2246 N2250 1.427 . S
C2247 H2237 0.929 . S
C2247 C2245 1.433 . S
C2247 N2250 1.384 . S
C2248 H2239 0.929 . S
C2248 C2240 1.378 . S
C2248 C2243 1.350 . S
C2249 H2236 0.929 . S
C2249 C2241 1.433 . S
C2249 N2251 1.384 . S
N2250 C2246 1.427 . S
N2250 C2247 1.384 . S
N2251 C2243 1.427 . S
N2251 C2249 1.384 . S
H2252 C2258 0.930 . S
H2253 C2262 0.930 . S
H2254 C2267 0.929 . S
H2255 C2265 0.929 . S
H2256 C2260 0.929 . S
H2257 C2266 0.929 . S
C2258 H2252 0.930 . S
C2258 C2259 1.367 . S
C2258 C2266 1.378 . S
C2259 C2258 1.367 . S
C2259 C2267 1.433 . S
C2260 H2256 0.929 . S
C2260 C2262 1.378 . S
C2260 C2264 1.350 . S
C2261 C2264 1.463 . S
C2261 C2266 1.350 . S
C2261 N2269 1.427 . S
C2262 H2253 0.930 . S
C2262 C2260 1.378 . S
C2262 C2263 1.367 . S
C2263 C2262 1.367 . S
C2263 C2265 1.433 . S
C2264 C2260 1.350 . S
C2264 C2261 1.463 . S
C2264 N2268 1.427 . S
C2265 H2255 0.929 . S
C2265 C2263 1.433 . S
C2265 N2268 1.384 . S
C2266 H2257 0.929 . S
C2266 C2258 1.378 . S
C2266 C2261 1.350 . S
C2267 H2254 0.929 . S
C2267 C2259 1.433 . S
C2267 N2269 1.384 . S
N2268 C2264 1.427 . S
N2268 C2265 1.384 . S
N2269 C2261 1.427 . S
N2269 C2267 1.384 . S
H2270 C2276 0.930 . S
H2271 C2280 0.930 . S
H2272 C2285 0.929 . S
H2273 C2283 0.929 . S
H2274 C2278 0.929 . S
H2275 C2284 0.929 . S
C2276 H2270 0.930 . S
C2276 C2277 1.367 . S
C2276 C2284 1.378 . S
C2277 C2276 1.367 . S
C2277 C2285 1.433 . S
C2278 H2274 0.929 . S
C2278 C2280 1.378 . S
C2278 C2282 1.350 . S
C2279 C2282 1.463 . S
C2279 C2284 1.350 . S
C2279 N2287 1.427 . S
C2280 H2271 0.930 . S
C2280 C2278 1.378 . S
C2280 C2281 1.367 . S
C2281 C2280 1.367 . S
C2281 C2283 1.433 . S
C2282 C2278 1.350 . S
C2282 C2279 1.463 . S
C2282 N2286 1.427 . S
C2283 H2273 0.929 . S
C2283 C2281 1.433 . S
C2283 N2286 1.384 . S
C2284 H2275 0.929 . S
C2284 C2276 1.378 . S
C2284 C2279 1.350 . S
C2285 H2272 0.929 . S
C2285 C2277 1.433 . S
C2285 N2287 1.384 . S
N2286 C2282 1.427 . S
N2286 C2283 1.384 . S
N2287 C2279 1.427 . S
N2287 C2285 1.384 . S
H2288 C2294 0.930 . S
H2289 C2298 0.930 . S
H2290 C2303 0.929 . S
H2291 C2301 0.929 . S
H2292 C2296 0.929 1_455 S
H2293 C2302 0.929 . S
C2294 H2288 0.930 . S
C2294 C2295 1.367 . S
C2294 C2302 1.378 . S
C2295 C2294 1.367 . S
C2295 C2303 1.433 . S
C2296 H2292 0.929 1_655 S
C2296 C2298 1.378 . S
C2296 C2300 1.345 1_655 S
C2297 C2300 1.478 . S
C2297 C2302 1.350 . S
C2297 N2305 1.427 . S
C2298 H2289 0.930 . S
C2298 C2296 1.378 . S
C2298 C2299 1.367 . S
C2299 C2298 1.367 . S
C2299 C2301 1.433 . S
C2300 C2296 1.345 1_455 S
C2300 C2297 1.478 . S
C2300 N2304 1.418 1_455 S
C2301 H2291 0.929 . S
C2301 C2299 1.433 . S
C2301 N2304 1.384 . S
C2302 H2293 0.929 . S
C2302 C2294 1.378 . S
C2302 C2297 1.350 . S
C2303 H2290 0.929 . S
C2303 C2295 1.433 . S
C2303 N2305 1.384 . S
N2304 C2300 1.418 1_655 S
N2304 C2301 1.384 . S
N2305 C2297 1.427 . S
N2305 C2303 1.384 . S
H2306 C2312 0.930 . S
H2307 C2316 0.930 . S
H2308 C2321 0.929 . S
H2309 C2319 0.929 . S
H2310 C2314 0.929 . S
H2311 C2320 0.929 . S
C2312 H2306 0.930 . S
C2312 C2313 1.367 . S
C2312 C2320 1.378 . S
C2313 C2312 1.367 . S
C2313 C2321 1.433 . S
C2314 H2310 0.929 . S
C2314 C2316 1.378 . S
C2314 C2318 1.350 . S
C2315 C2318 1.463 . S
C2315 C2320 1.350 . S
C2315 N2323 1.427 . S
C2316 H2307 0.930 . S
C2316 C2314 1.378 . S
C2316 C2317 1.367 . S
C2317 C2316 1.367 . S
C2317 C2319 1.433 . S
C2318 C2314 1.350 . S
C2318 C2315 1.463 . S
C2318 N2322 1.427 . S
C2319 H2309 0.929 . S
C2319 C2317 1.433 . S
C2319 N2322 1.384 . S
C2320 H2311 0.929 . S
C2320 C2312 1.378 . S
C2320 C2315 1.350 . S
C2321 H2308 0.929 . S
C2321 C2313 1.433 . S
C2321 N2323 1.384 . S
N2322 C2318 1.427 . S
N2322 C2319 1.384 . S
N2323 C2315 1.427 . S
N2323 C2321 1.384 . S
H2324 C2330 0.930 . S
H2325 C2334 0.930 . S
H2326 C2339 0.929 . S
H2327 C2337 0.929 . S
H2328 C2332 0.929 . S
H2329 C2338 0.929 . S
C2330 H2324 0.930 . S
C2330 C2331 1.367 . S
C2330 C2338 1.378 . S
C2331 C2330 1.367 . S
C2331 C2339 1.433 . S
C2332 H2328 0.929 . S
C2332 C2334 1.378 . S
C2332 C2336 1.350 . S
C2333 C2336 1.463 . S
C2333 C2338 1.350 . S
C2333 N2341 1.427 . S
C2334 H2325 0.930 . S
C2334 C2332 1.378 . S
C2334 C2335 1.367 . S
C2335 C2334 1.367 . S
C2335 C2337 1.433 . S
C2336 C2332 1.350 . S
C2336 C2333 1.463 . S
C2336 N2340 1.427 . S
C2337 H2327 0.929 . S
C2337 C2335 1.433 . S
C2337 N2340 1.384 . S
C2338 H2329 0.929 . S
C2338 C2330 1.378 . S
C2338 C2333 1.350 . S
C2339 H2326 0.929 . S
C2339 C2331 1.433 . S
C2339 N2341 1.384 . S
N2340 C2336 1.427 . S
N2340 C2337 1.384 . S
N2341 C2333 1.427 . S
N2341 C2339 1.384 . S
H2342 C2348 0.930 . S
H2343 C2352 0.930 . S
H2344 C2357 0.929 . S
H2345 C2355 0.929 . S
H2346 C2350 0.929 . S
H2347 C2356 0.929 . S
C2348 H2342 0.930 . S
C2348 C2349 1.367 . S
C2348 C2356 1.378 . S
C2349 C2348 1.367 . S
C2349 C2357 1.433 . S
C2350 H2346 0.929 . S
C2350 C2352 1.378 . S
C2350 C2354 1.350 . S
C2351 C2354 1.463 . S
C2351 C2356 1.350 . S
C2351 N2359 1.427 . S
C2352 H2343 0.930 . S
C2352 C2350 1.378 . S
C2352 C2353 1.367 . S
C2353 C2352 1.367 . S
C2353 C2355 1.433 . S
C2354 C2350 1.350 . S
C2354 C2351 1.463 . S
C2354 N2358 1.427 . S
C2355 H2345 0.929 . S
C2355 C2353 1.433 . S
C2355 N2358 1.384 . S
C2356 H2347 0.929 . S
C2356 C2348 1.378 . S
C2356 C2351 1.350 . S
C2357 H2344 0.929 . S
C2357 C2349 1.433 . S
C2357 N2359 1.384 . S
N2358 C2354 1.427 . S
N2358 C2355 1.384 . S
N2359 C2351 1.427 . S
N2359 C2357 1.384 . S
H2360 C2366 0.930 . S
H2361 C2370 0.930 . S
H2362 C2375 0.929 . S
H2363 C2373 0.929 . S
H2364 C2368 0.929 . S
H2365 C2374 0.929 . S
C2366 H2360 0.930 . S
C2366 C2367 1.367 . S
C2366 C2374 1.378 . S
C2367 C2366 1.367 . S
C2367 C2375 1.433 1_455 S
C2368 H2364 0.929 . S
C2368 C2370 1.378 . S
C2368 C2372 1.350 . S
C2369 C2372 1.463 . S
C2369 C2374 1.350 1_655 S
C2369 N2377 1.427 . S
C2370 H2361 0.930 . S
C2370 C2368 1.378 . S
C2370 C2371 1.367 . S
C2371 C2370 1.367 . S
C2371 C2373 1.433 . S
C2372 C2368 1.350 . S
C2372 C2369 1.463 . S
C2372 N2376 1.427 . S
C2373 H2363 0.929 . S
C2373 C2371 1.433 . S
C2373 N2376 1.384 . S
C2374 H2365 0.929 . S
C2374 C2366 1.378 . S
C2374 C2369 1.350 1_455 S
C2375 H2362 0.929 . S
C2375 C2367 1.433 1_655 S
C2375 N2377 1.384 . S
N2376 C2372 1.427 . S
N2376 C2373 1.384 . S
N2377 C2369 1.427 . S
N2377 C2375 1.384 . S
H2378 C2384 0.930 . S
H2379 C2388 0.930 . S
H2380 C2393 0.929 . S
H2381 C2391 0.929 . S
H2382 C2386 0.929 . S
H2383 C2392 0.929 . S
C2384 H2378 0.930 . S
C2384 C2385 1.367 . S
C2384 C2392 1.378 . S
C2385 C2384 1.367 . S
C2385 C2393 1.433 . S
C2386 H2382 0.929 . S
C2386 C2388 1.378 . S
C2386 C2390 1.350 . S
C2387 C2390 1.463 . S
C2387 C2392 1.350 . S
C2387 N2395 1.427 . S
C2388 H2379 0.930 . S
C2388 C2386 1.378 . S
C2388 C2389 1.367 . S
C2389 C2388 1.367 . S
C2389 C2391 1.433 . S
C2390 C2386 1.350 . S
C2390 C2387 1.463 . S
C2390 N2394 1.427 . S
C2391 H2381 0.929 . S
C2391 C2389 1.433 . S
C2391 N2394 1.384 . S
C2392 H2383 0.929 . S
C2392 C2384 1.378 . S
C2392 C2387 1.350 . S
C2393 H2380 0.929 . S
C2393 C2385 1.433 . S
C2393 N2395 1.384 . S
N2394 C2390 1.427 . S
N2394 C2391 1.384 . S
N2395 C2387 1.427 . S
N2395 C2393 1.384 . S
H2396 C2402 0.930 1_554 S
H2397 C2406 0.930 . S
H2398 C2411 0.929 . S
H2399 C2409 0.929 . S
H2400 C2404 0.929 . S
H2401 C2410 0.929 . S
C2402 H2396 0.930 1_556 S
C2402 C2403 1.367 1_556 S
C2402 C2410 1.378 . S
C2403 C2402 1.367 1_554 S
C2403 C2411 1.433 . S
C2404 H2400 0.929 . S
C2404 C2406 1.378 . S
C2404 C2408 1.350 . S
C2405 C2408 1.463 . S
C2405 C2410 1.350 . S
C2405 N2413 1.427 . S
C2406 H2397 0.930 . S
C2406 C2404 1.378 . S
C2406 C2407 1.367 . S
C2407 C2406 1.367 . S
C2407 C2409 1.433 . S
C2408 C2404 1.350 . S
C2408 C2405 1.463 . S
C2408 N2412 1.427 . S
C2409 H2399 0.929 . S
C2409 C2407 1.433 . S
C2409 N2412 1.384 . S
C2410 H2401 0.929 . S
C2410 C2402 1.378 . S
C2410 C2405 1.350 . S
C2411 H2398 0.929 . S
C2411 C2403 1.433 . S
C2411 N2413 1.384 1_554 S
N2412 C2408 1.427 . S
N2412 C2409 1.384 . S
N2413 C2405 1.427 . S
N2413 C2411 1.384 1_556 S
H2414 C2420 0.930 . S
H2415 C2424 0.930 . S
H2416 C2429 0.929 . S
H2417 C2427 0.929 . S
H2418 C2422 0.929 . S
H2419 C2428 0.929 . S
C2420 H2414 0.930 . S
C2420 C2421 1.367 . S
C2420 C2428 1.378 . S
C2421 C2420 1.367 . S
C2421 C2429 1.433 . S
C2422 H2418 0.929 . S
C2422 C2424 1.378 . S
C2422 C2426 1.350 . S
C2423 C2426 1.463 . S
C2423 C2428 1.350 . S
C2423 N2431 1.427 . S
C2424 H2415 0.930 . S
C2424 C2422 1.378 . S
C2424 C2425 1.367 . S
C2425 C2424 1.367 . S
C2425 C2427 1.433 . S
C2426 C2422 1.350 . S
C2426 C2423 1.463 . S
C2426 N2430 1.427 . S
C2427 H2417 0.929 . S
C2427 C2425 1.433 . S
C2427 N2430 1.384 . S
C2428 H2419 0.929 . S
C2428 C2420 1.378 . S
C2428 C2423 1.350 . S
C2429 H2416 0.929 . S
C2429 C2421 1.433 . S
C2429 N2431 1.384 . S
N2430 C2426 1.427 . S
N2430 C2427 1.384 . S
N2431 C2423 1.427 . S
N2431 C2429 1.384 . S
H2432 C2438 0.930 . S
H2433 C2442 0.930 . S
H2434 C2447 0.929 . S
H2435 C2445 0.929 . S
H2436 C2440 0.929 . S
H2437 C2446 0.929 . S
C2438 H2432 0.930 . S
C2438 C2439 1.367 . S
C2438 C2446 1.378 . S
C2439 C2438 1.367 . S
C2439 C2447 1.433 . S
C2440 H2436 0.929 . S
C2440 C2442 1.378 . S
C2440 C2444 1.350 . S
C2441 C2444 1.463 . S
C2441 C2446 1.350 . S
C2441 N2449 1.427 . S
C2442 H2433 0.930 . S
C2442 C2440 1.378 . S
C2442 C2443 1.367 . S
C2443 C2442 1.367 . S
C2443 C2445 1.433 . S
C2444 C2440 1.350 . S
C2444 C2441 1.463 . S
C2444 N2448 1.427 . S
C2445 H2435 0.929 . S
C2445 C2443 1.433 . S
C2445 N2448 1.384 . S
C2446 H2437 0.929 . S
C2446 C2438 1.378 . S
C2446 C2441 1.350 . S
C2447 H2434 0.929 . S
C2447 C2439 1.433 . S
C2447 N2449 1.384 . S
N2448 C2444 1.427 . S
N2448 C2445 1.384 . S
N2449 C2441 1.427 . S
N2449 C2447 1.384 . S
H2450 C2456 0.930 . S
H2451 C2460 0.930 . S
H2452 C2465 0.929 . S
H2453 C2463 0.929 . S
H2454 C2458 0.929 . S
H2455 C2464 0.929 . S
C2456 H2450 0.930 . S
C2456 C2457 1.367 . S
C2456 C2464 1.378 . S
C2457 C2456 1.367 . S
C2457 C2465 1.433 . S
C2458 H2454 0.929 . S
C2458 C2460 1.378 . S
C2458 C2462 1.350 . S
C2459 C2462 1.463 . S
C2459 C2464 1.350 . S
C2459 N2467 1.427 . S
C2460 H2451 0.930 . S
C2460 C2458 1.378 . S
C2460 C2461 1.367 . S
C2461 C2460 1.367 . S
C2461 C2463 1.433 . S
C2462 C2458 1.350 . S
C2462 C2459 1.463 . S
C2462 N2466 1.427 . S
C2463 H2453 0.929 . S
C2463 C2461 1.433 . S
C2463 N2466 1.384 . S
C2464 H2455 0.929 . S
C2464 C2456 1.378 . S
C2464 C2459 1.350 . S
C2465 H2452 0.929 . S
C2465 C2457 1.433 . S
C2465 N2467 1.384 . S
N2466 C2462 1.427 . S
N2466 C2463 1.384 . S
N2467 C2459 1.427 . S
N2467 C2465 1.384 . S
H2468 C2474 0.930 1_455 S
H2469 C2478 0.930 . S
H2470 C2483 0.929 . S
H2471 C2481 0.929 . S
H2472 C2476 0.929 1_655 S
H2473 C2482 0.929 . S
C2474 H2468 0.930 1_655 S
C2474 C2475 1.367 . S
C2474 C2482 1.378 1_654 S
C2475 C2474 1.367 . S
C2475 C2483 1.433 1_554 S
C2476 H2472 0.929 1_455 S
C2476 C2478 1.378 . S
C2476 C2480 1.350 . S
C2477 C2480 1.490 . S
C2477 C2482 1.372 . S
C2477 N2485 1.378 1_455 S
C2478 H2469 0.930 . S
C2478 C2476 1.378 . S
C2478 C2479 1.367 . S
C2479 C2478 1.367 . S
C2479 C2481 1.433 . S
C2480 C2476 1.350 . S
C2480 C2477 1.490 . S
C2480 N2484 1.427 . S
C2481 H2471 0.929 . S
C2481 C2479 1.433 . S
C2481 N2484 1.384 . S
C2482 H2473 0.929 . S
C2482 C2474 1.378 1_456 S
C2482 C2477 1.372 . S
C2483 H2470 0.929 . S
C2483 C2475 1.433 1_556 S
C2483 N2485 1.384 . S
N2484 C2480 1.427 . S
N2484 C2481 1.384 . S
N2485 C2477 1.378 1_655 S
N2485 C2483 1.384 . S
H2486 C2492 0.930 . S
H2487 C2496 0.930 . S
H2488 C2501 0.929 . S
H2489 C2499 0.929 . S
H2490 C2494 0.929 . S
H2491 C2500 0.929 . S
C2492 H2486 0.930 . S
C2492 C2493 1.367 . S
C2492 C2500 1.378 . S
C2493 C2492 1.367 . S
C2493 C2501 1.433 . S
C2494 H2490 0.929 . S
C2494 C2496 1.378 . S
C2494 C2498 1.350 . S
C2495 C2498 1.463 . S
C2495 C2500 1.350 . S
C2495 N2503 1.427 . S
C2496 H2487 0.930 . S
C2496 C2494 1.378 . S
C2496 C2497 1.367 . S
C2497 C2496 1.367 . S
C2497 C2499 1.433 . S
C2498 C2494 1.350 . S
C2498 C2495 1.463 . S
C2498 N2502 1.427 . S
C2499 H2489 0.929 . S
C2499 C2497 1.433 . S
C2499 N2502 1.384 . S
C2500 H2491 0.929 . S
C2500 C2492 1.378 . S
C2500 C2495 1.350 . S
C2501 H2488 0.929 . S
C2501 C2493 1.433 . S
C2501 N2503 1.384 . S
N2502 C2498 1.427 . S
N2502 C2499 1.384 . S
N2503 C2495 1.427 . S
N2503 C2501 1.384 . S
H2504 C2510 0.930 . S
H2505 C2514 0.930 . S
H2506 C2519 0.929 . S
H2507 C2517 0.929 . S
H2508 C2512 0.929 . S
H2509 C2518 0.929 . S
C2510 H2504 0.930 . S
C2510 C2511 1.367 . S
C2510 C2518 1.378 . S
C2511 C2510 1.367 . S
C2511 C2519 1.433 . S
C2512 H2508 0.929 . S
C2512 C2514 1.378 . S
C2512 C2516 1.350 . S
C2513 C2516 1.463 . S
C2513 C2518 1.350 . S
C2513 N2521 1.427 . S
C2514 H2505 0.930 . S
C2514 C2512 1.378 . S
C2514 C2515 1.367 . S
C2515 C2514 1.367 . S
C2515 C2517 1.433 . S
C2516 C2512 1.350 . S
C2516 C2513 1.463 . S
C2516 N2520 1.427 . S
C2517 H2507 0.929 . S
C2517 C2515 1.433 . S
C2517 N2520 1.384 . S
C2518 H2509 0.929 . S
C2518 C2510 1.378 . S
C2518 C2513 1.350 . S
C2519 H2506 0.929 . S
C2519 C2511 1.433 . S
C2519 N2521 1.384 . S
N2520 C2516 1.427 . S
N2520 C2517 1.384 . S
N2521 C2513 1.427 . S
N2521 C2519 1.384 . S
H2522 C2528 0.930 . S
H2523 C2532 0.930 . S
H2524 C2537 0.929 . S
H2525 C2535 0.929 . S
H2526 C2530 0.929 . S
H2527 C2536 0.929 . S
C2528 H2522 0.930 . S
C2528 C2529 1.367 . S
C2528 C2536 1.378 . S
C2529 C2528 1.367 . S
C2529 C2537 1.433 . S
C2530 H2526 0.929 . S
C2530 C2532 1.378 . S
C2530 C2534 1.350 . S
C2531 C2534 1.463 . S
C2531 C2536 1.350 . S
C2531 N2539 1.427 . S
C2532 H2523 0.930 . S
C2532 C2530 1.378 . S
C2532 C2533 1.367 . S
C2533 C2532 1.367 . S
C2533 C2535 1.433 . S
C2534 C2530 1.350 . S
C2534 C2531 1.463 . S
C2534 N2538 1.427 . S
C2535 H2525 0.929 . S
C2535 C2533 1.433 . S
C2535 N2538 1.384 . S
C2536 H2527 0.929 . S
C2536 C2528 1.378 . S
C2536 C2531 1.350 . S
C2537 H2524 0.929 . S
C2537 C2529 1.433 . S
C2537 N2539 1.384 . S
N2538 C2534 1.427 . S
N2538 C2535 1.384 . S
N2539 C2531 1.427 . S
N2539 C2537 1.384 . S
H2540 C2546 0.930 . S
H2541 C2550 0.930 . S
H2542 C2555 0.929 . S
H2543 C2553 0.929 . S
H2544 C2548 0.929 . S
H2545 C2554 0.929 . S
C2546 H2540 0.930 . S
C2546 C2547 1.367 . S
C2546 C2554 1.378 1_455 S
C2547 C2546 1.367 . S
C2547 C2555 1.433 1_455 S
C2548 H2544 0.929 . S
C2548 C2550 1.378 . S
C2548 C2552 1.350 . S
C2549 C2552 1.463 . S
C2549 C2554 1.350 . S
C2549 N2557 1.427 . S
C2550 H2541 0.930 . S
C2550 C2548 1.378 . S
C2550 C2551 1.367 . S
C2551 C2550 1.367 . S
C2551 C2553 1.433 . S
C2552 C2548 1.350 . S
C2552 C2549 1.463 . S
C2552 N2556 1.427 . S
C2553 H2543 0.929 . S
C2553 C2551 1.433 . S
C2553 N2556 1.384 . S
C2554 H2545 0.929 . S
C2554 C2546 1.378 1_655 S
C2554 C2549 1.350 . S
C2555 H2542 0.929 . S
C2555 C2547 1.433 1_655 S
C2555 N2557 1.384 . S
N2556 C2552 1.427 . S
N2556 C2553 1.384 . S
N2557 C2549 1.427 . S
N2557 C2555 1.384 . S
H2558 C2564 0.930 . S
H2559 C2568 0.930 . S
H2560 C2573 0.929 . S
H2561 C2571 0.929 . S
H2562 C2566 0.929 . S
H2563 C2572 0.929 . S
C2564 H2558 0.930 . S
C2564 C2565 1.367 . S
C2564 C2572 1.378 . S
C2565 C2564 1.367 . S
C2565 C2573 1.433 . S
C2566 H2562 0.929 . S
C2566 C2568 1.378 . S
C2566 C2570 1.350 . S
C2567 C2570 1.463 . S
C2567 C2572 1.350 . S
C2567 N2575 1.427 . S
C2568 H2559 0.930 . S
C2568 C2566 1.378 . S
C2568 C2569 1.367 . S
C2569 C2568 1.367 . S
C2569 C2571 1.433 . S
C2570 C2566 1.350 . S
C2570 C2567 1.463 . S
C2570 N2574 1.427 . S
C2571 H2561 0.929 . S
C2571 C2569 1.433 . S
C2571 N2574 1.384 . S
C2572 H2563 0.929 . S
C2572 C2564 1.378 . S
C2572 C2567 1.350 . S
C2573 H2560 0.929 . S
C2573 C2565 1.433 . S
C2573 N2575 1.384 . S
N2574 C2570 1.427 . S
N2574 C2571 1.384 . S
N2575 C2567 1.427 . S
N2575 C2573 1.384 . S
H2576 C2582 0.930 . S
H2577 C2586 0.930 . S
H2578 C2591 0.929 . S
H2579 C2589 0.929 . S
H2580 C2584 0.929 . S
H2581 C2590 0.929 . S
C2582 H2576 0.930 . S
C2582 C2583 1.367 . S
C2582 C2590 1.378 . S
C2583 C2582 1.367 . S
C2583 C2591 1.433 . S
C2584 H2580 0.929 . S
C2584 C2586 1.378 . S
C2584 C2588 1.350 . S
C2585 C2588 1.463 . S
C2585 C2590 1.350 . S
C2585 N2593 1.427 . S
C2586 H2577 0.930 . S
C2586 C2584 1.378 . S
C2586 C2587 1.367 . S
C2587 C2586 1.367 . S
C2587 C2589 1.433 . S
C2588 C2584 1.350 . S
C2588 C2585 1.463 . S
C2588 N2592 1.427 . S
C2589 H2579 0.929 . S
C2589 C2587 1.433 . S
C2589 N2592 1.384 . S
C2590 H2581 0.929 . S
C2590 C2582 1.378 . S
C2590 C2585 1.350 . S
C2591 H2578 0.929 . S
C2591 C2583 1.433 . S
C2591 N2593 1.384 . S
N2592 C2588 1.427 . S
N2592 C2589 1.384 . S
N2593 C2585 1.427 . S
N2593 C2591 1.384 . S
H2594 C2600 0.930 . S
H2595 C2604 0.930 . S
H2596 C2609 0.929 . S
H2597 C2607 0.929 . S
H2598 C2602 0.929 . S
H2599 C2608 0.929 . S
C2600 H2594 0.930 . S
C2600 C2601 1.367 . S
C2600 C2608 1.378 . S
C2601 C2600 1.367 . S
C2601 C2609 1.433 . S
C2602 H2598 0.929 . S
C2602 C2604 1.378 . S
C2602 C2606 1.350 . S
C2603 C2606 1.463 . S
C2603 C2608 1.350 . S
C2603 N2611 1.427 . S
C2604 H2595 0.930 . S
C2604 C2602 1.378 . S
C2604 C2605 1.367 . S
C2605 C2604 1.367 . S
C2605 C2607 1.433 . S
C2606 C2602 1.350 . S
C2606 C2603 1.463 . S
C2606 N2610 1.427 . S
C2607 H2597 0.929 . S
C2607 C2605 1.433 . S
C2607 N2610 1.384 . S
C2608 H2599 0.929 . S
C2608 C2600 1.378 . S
C2608 C2603 1.350 . S
C2609 H2596 0.929 . S
C2609 C2601 1.433 . S
C2609 N2611 1.384 . S
N2610 C2606 1.427 . S
N2610 C2607 1.384 . S
N2611 C2603 1.427 . S
N2611 C2609 1.384 . S
H2612 C2618 0.932 1_655 S
H2613 C2622 0.930 . S
H2614 C2627 0.929 . S
H2615 C2625 0.929 . S
H2616 C2620 0.929 1_455 S
H2617 C2626 0.929 . S
C2618 H2612 0.932 1_455 S
C2618 C2619 1.364 . S
C2618 C2626 1.379 1_455 S
C2619 C2618 1.364 . S
C2619 C2627 1.433 . S
C2620 H2616 0.929 1_655 S
C2620 C2622 1.378 . S
C2620 C2624 1.350 . S
C2621 C2624 1.463 . S
C2621 C2626 1.350 . S
C2621 N2629 1.427 1_655 S
C2622 H2613 0.930 . S
C2622 C2620 1.378 . S
C2622 C2623 1.367 . S
C2623 C2622 1.367 . S
C2623 C2625 1.433 . S
C2624 C2620 1.350 . S
C2624 C2621 1.463 . S
C2624 N2628 1.427 . S
C2625 H2615 0.929 . S
C2625 C2623 1.433 . S
C2625 N2628 1.384 . S
C2626 H2617 0.929 . S
C2626 C2618 1.379 1_655 S
C2626 C2621 1.350 . S
C2627 H2614 0.929 . S
C2627 C2619 1.433 . S
C2627 N2629 1.384 . S
N2628 C2624 1.427 . S
N2628 C2625 1.384 . S
N2629 C2621 1.427 1_455 S
N2629 C2627 1.384 . S
H2630 C2636 0.930 . S
H2631 C2640 0.930 . S
H2632 C2645 0.929 . S
H2633 C2643 0.929 . S
H2634 C2638 0.929 . S
H2635 C2644 0.929 . S
C2636 H2630 0.930 . S
C2636 C2637 1.367 . S
C2636 C2644 1.378 . S
C2637 C2636 1.367 . S
C2637 C2645 1.433 . S
C2638 H2634 0.929 . S
C2638 C2640 1.378 . S
C2638 C2642 1.350 . S
C2639 C2642 1.463 . S
C2639 C2644 1.350 . S
C2639 N2647 1.427 . S
C2640 H2631 0.930 . S
C2640 C2638 1.378 . S
C2640 C2641 1.367 . S
C2641 C2640 1.367 . S
C2641 C2643 1.433 . S
C2642 C2638 1.350 . S
C2642 C2639 1.463 . S
C2642 N2646 1.427 . S
C2643 H2633 0.929 . S
C2643 C2641 1.433 . S
C2643 N2646 1.384 . S
C2644 H2635 0.929 . S
C2644 C2636 1.378 . S
C2644 C2639 1.350 . S
C2645 H2632 0.929 . S
C2645 C2637 1.433 . S
C2645 N2647 1.384 . S
N2646 C2642 1.427 . S
N2646 C2643 1.384 . S
N2647 C2639 1.427 . S
N2647 C2645 1.384 . S
H2648 C2654 0.930 . S
H2649 C2658 0.930 . S
H2650 C2663 0.929 . S
H2651 C2661 0.929 . S
H2652 C2656 0.929 . S
H2653 C2662 0.929 . S
C2654 H2648 0.930 . S
C2654 C2655 1.367 . S
C2654 C2662 1.378 . S
C2655 C2654 1.367 . S
C2655 C2663 1.433 . S
C2656 H2652 0.929 . S
C2656 C2658 1.378 1_556 S
C2656 C2660 1.350 . S
C2657 C2660 1.463 . S
C2657 C2662 1.350 . S
C2657 N2665 1.427 . S
C2658 H2649 0.930 . S
C2658 C2656 1.378 1_554 S
C2658 C2659 1.367 . S
C2659 C2658 1.367 . S
C2659 C2661 1.433 1_554 S
C2660 C2656 1.350 . S
C2660 C2657 1.463 . S
C2660 N2664 1.427 . S
C2661 H2651 0.929 . S
C2661 C2659 1.433 1_556 S
C2661 N2664 1.384 . S
C2662 H2653 0.929 . S
C2662 C2654 1.378 . S
C2662 C2657 1.350 . S
C2663 H2650 0.929 . S
C2663 C2655 1.433 . S
C2663 N2665 1.384 . S
N2664 C2660 1.427 . S
N2664 C2661 1.384 . S
N2665 C2657 1.427 . S
N2665 C2663 1.384 . S
H2666 C2672 0.930 . S
H2667 C2676 0.930 . S
H2668 C2681 0.929 . S
H2669 C2679 0.929 . S
H2670 C2674 0.929 . S
H2671 C2680 0.929 . S
C2672 H2666 0.930 . S
C2672 C2673 1.367 . S
C2672 C2680 1.378 . S
C2673 C2672 1.367 . S
C2673 C2681 1.433 . S
C2674 H2670 0.929 . S
C2674 C2676 1.378 . S
C2674 C2678 1.350 . S
C2675 C2678 1.463 . S
C2675 C2680 1.350 . S
C2675 N2683 1.427 . S
C2676 H2667 0.930 . S
C2676 C2674 1.378 . S
C2676 C2677 1.367 . S
C2677 C2676 1.367 . S
C2677 C2679 1.433 . S
C2678 C2674 1.350 . S
C2678 C2675 1.463 . S
C2678 N2682 1.427 . S
C2679 H2669 0.929 . S
C2679 C2677 1.433 . S
C2679 N2682 1.384 . S
C2680 H2671 0.929 . S
C2680 C2672 1.378 . S
C2680 C2675 1.350 . S
C2681 H2668 0.929 . S
C2681 C2673 1.433 . S
C2681 N2683 1.384 . S
N2682 C2678 1.427 . S
N2682 C2679 1.384 . S
N2683 C2675 1.427 . S
N2683 C2681 1.384 . S
H2684 C2690 0.930 . S
H2685 C2694 0.930 . S
H2686 C2699 0.929 . S
H2687 C2697 0.929 . S
H2688 C2692 0.929 . S
H2689 C2698 0.929 . S
C2690 H2684 0.930 . S
C2690 C2691 1.367 . S
C2690 C2698 1.378 . S
C2691 C2690 1.367 . S
C2691 C2699 1.433 . S
C2692 H2688 0.929 . S
C2692 C2694 1.378 . S
C2692 C2696 1.350 1_655 S
C2693 C2696 1.463 . S
C2693 C2698 1.350 . S
C2693 N2701 1.427 . S
C2694 H2685 0.930 . S
C2694 C2692 1.378 . S
C2694 C2695 1.367 . S
C2695 C2694 1.367 . S
C2695 C2697 1.433 1_655 S
C2696 C2692 1.350 1_455 S
C2696 C2693 1.463 . S
C2696 N2700 1.427 . S
C2697 H2687 0.929 . S
C2697 C2695 1.433 1_455 S
C2697 N2700 1.384 . S
C2698 H2689 0.929 . S
C2698 C2690 1.378 . S
C2698 C2693 1.350 . S
C2699 H2686 0.929 . S
C2699 C2691 1.433 . S
C2699 N2701 1.384 . S
N2700 C2696 1.427 . S
N2700 C2697 1.384 . S
N2701 C2693 1.427 . S
N2701 C2699 1.384 . S
H2702 C2708 0.930 . S
H2703 C2712 0.930 . S
H2704 C2717 0.929 . S
H2705 C2715 0.929 . S
H2706 C2710 0.929 . S
H2707 C2716 0.929 . S
C2708 H2702 0.930 . S
C2708 C2709 1.367 . S
C2708 C2716 1.378 . S
C2709 C2708 1.367 . S
C2709 C2717 1.433 . S
C2710 H2706 0.929 . S
C2710 C2712 1.378 . S
C2710 C2714 1.350 . S
C2711 C2714 1.463 . S
C2711 C2716 1.350 . S
C2711 N2719 1.427 . S
C2712 H2703 0.930 . S
C2712 C2710 1.378 . S
C2712 C2713 1.367 . S
C2713 C2712 1.367 . S
C2713 C2715 1.433 . S
C2714 C2710 1.350 . S
C2714 C2711 1.463 . S
C2714 N2718 1.427 . S
C2715 H2705 0.929 . S
C2715 C2713 1.433 . S
C2715 N2718 1.384 . S
C2716 H2707 0.929 . S
C2716 C2708 1.378 . S
C2716 C2711 1.350 . S
C2717 H2704 0.929 . S
C2717 C2709 1.433 . S
C2717 N2719 1.384 . S
N2718 C2714 1.427 . S
N2718 C2715 1.384 . S
N2719 C2711 1.427 . S
N2719 C2717 1.384 . S
H2720 C2726 0.930 . S
H2721 C2730 0.930 . S
H2722 C2735 0.929 . S
H2723 C2733 0.929 . S
H2724 C2728 0.929 . S
H2725 C2734 0.929 . S
C2726 H2720 0.930 . S
C2726 C2727 1.367 . S
C2726 C2734 1.378 . S
C2727 C2726 1.367 . S
C2727 C2735 1.433 . S
C2728 H2724 0.929 . S
C2728 C2730 1.378 . S
C2728 C2732 1.350 . S
C2729 C2732 1.463 . S
C2729 C2734 1.350 . S
C2729 N2737 1.427 . S
C2730 H2721 0.930 . S
C2730 C2728 1.378 . S
C2730 C2731 1.367 . S
C2731 C2730 1.367 . S
C2731 C2733 1.433 . S
C2732 C2728 1.350 . S
C2732 C2729 1.463 . S
C2732 N2736 1.427 . S
C2733 H2723 0.929 . S
C2733 C2731 1.433 . S
C2733 N2736 1.384 . S
C2734 H2725 0.929 . S
C2734 C2726 1.378 . S
C2734 C2729 1.350 . S
C2735 H2722 0.929 . S
C2735 C2727 1.433 . S
C2735 N2737 1.384 . S
N2736 C2732 1.427 . S
N2736 C2733 1.384 . S
N2737 C2729 1.427 . S
N2737 C2735 1.384 . S
H2738 C2744 0.930 . S
H2739 C2748 0.930 . S
H2740 C2753 0.929 . S
H2741 C2751 0.929 . S
H2742 C2746 0.929 . S
H2743 C2752 0.929 . S
C2744 H2738 0.930 . S
C2744 C2745 1.367 . S
C2744 C2752 1.378 . S
C2745 C2744 1.367 . S
C2745 C2753 1.433 . S
C2746 H2742 0.929 . S
C2746 C2748 1.378 . S
C2746 C2750 1.350 . S
C2747 C2750 1.463 . S
C2747 C2752 1.350 1_554 S
C2747 N2755 1.427 . S
C2748 H2739 0.930 . S
C2748 C2746 1.378 . S
C2748 C2749 1.367 . S
C2749 C2748 1.367 . S
C2749 C2751 1.433 . S
C2750 C2746 1.350 . S
C2750 C2747 1.463 . S
C2750 N2754 1.427 . S
C2751 H2741 0.929 . S
C2751 C2749 1.433 . S
C2751 N2754 1.384 . S
C2752 H2743 0.929 . S
C2752 C2744 1.378 . S
C2752 C2747 1.350 1_556 S
C2753 H2740 0.929 . S
C2753 C2745 1.433 . S
C2753 N2755 1.384 1_556 S
N2754 C2750 1.427 . S
N2754 C2751 1.384 . S
N2755 C2747 1.427 . S
N2755 C2753 1.384 1_554 S
H2756 C2762 0.930 . S
H2757 C2766 0.930 . S
H2758 C2771 0.929 . S
H2759 C2769 0.929 . S
H2760 C2764 0.929 . S
H2761 C2770 0.929 . S
C2762 H2756 0.930 . S
C2762 C2763 1.367 . S
C2762 C2770 1.378 . S
C2763 C2762 1.367 . S
C2763 C2771 1.433 . S
C2764 H2760 0.929 . S
C2764 C2766 1.378 . S
C2764 C2768 1.350 . S
C2765 C2768 1.463 . S
C2765 C2770 1.350 . S
C2765 N2773 1.427 . S
C2766 H2757 0.930 . S
C2766 C2764 1.378 . S
C2766 C2767 1.367 . S
C2767 C2766 1.367 . S
C2767 C2769 1.433 . S
C2768 C2764 1.350 . S
C2768 C2765 1.463 . S
C2768 N2772 1.427 . S
C2769 H2759 0.929 . S
C2769 C2767 1.433 . S
C2769 N2772 1.384 . S
C2770 H2761 0.929 . S
C2770 C2762 1.378 . S
C2770 C2765 1.350 . S
C2771 H2758 0.929 . S
C2771 C2763 1.433 . S
C2771 N2773 1.384 . S
N2772 C2768 1.427 . S
N2772 C2769 1.384 . S
N2773 C2765 1.427 . S
N2773 C2771 1.384 . S
H2774 C2780 0.930 . S
H2775 C2784 0.930 . S
H2776 C2789 0.929 . S
H2777 C2787 0.929 . S
H2778 C2782 0.929 . S
H2779 C2788 0.929 . S
C2780 H2774 0.930 . S
C2780 C2781 1.367 . S
C2780 C2788 1.378 . S
C2781 C2780 1.367 . S
C2781 C2789 1.433 . S
C2782 H2778 0.929 . S
C2782 C2784 1.378 . S
C2782 C2786 1.350 . S
C2783 C2786 1.463 . S
C2783 C2788 1.350 . S
C2783 N2791 1.427 . S
C2784 H2775 0.930 . S
C2784 C2782 1.378 . S
C2784 C2785 1.367 . S
C2785 C2784 1.367 . S
C2785 C2787 1.433 . S
C2786 C2782 1.350 . S
C2786 C2783 1.463 . S
C2786 N2790 1.427 . S
C2787 H2777 0.929 . S
C2787 C2785 1.433 . S
C2787 N2790 1.384 . S
C2788 H2779 0.929 . S
C2788 C2780 1.378 . S
C2788 C2783 1.350 . S
C2789 H2776 0.929 . S
C2789 C2781 1.433 . S
C2789 N2791 1.384 . S
N2790 C2786 1.427 . S
N2790 C2787 1.384 . S
N2791 C2783 1.427 . S
N2791 C2789 1.384 . S
H2792 C2798 0.930 . S
H2793 C2802 0.930 . S
H2794 C2807 0.929 . S
H2795 C2805 0.929 . S
H2796 C2800 0.929 . S
H2797 C2806 0.929 . S
C2798 H2792 0.930 . S
C2798 C2799 1.367 . S
C2798 C2806 1.378 . S
C2799 C2798 1.367 . S
C2799 C2807 1.433 . S
C2800 H2796 0.929 . S
C2800 C2802 1.378 . S
C2800 C2804 1.350 . S
C2801 C2804 1.463 . S
C2801 C2806 1.350 . S
C2801 N2809 1.427 . S
C2802 H2793 0.930 . S
C2802 C2800 1.378 . S
C2802 C2803 1.367 . S
C2803 C2802 1.367 . S
C2803 C2805 1.433 . S
C2804 C2800 1.350 . S
C2804 C2801 1.463 . S
C2804 N2808 1.427 . S
C2805 H2795 0.929 . S
C2805 C2803 1.433 . S
C2805 N2808 1.384 . S
C2806 H2797 0.929 . S
C2806 C2798 1.378 . S
C2806 C2801 1.350 . S
C2807 H2794 0.929 . S
C2807 C2799 1.433 . S
C2807 N2809 1.384 . S
N2808 C2804 1.427 . S
N2808 C2805 1.384 . S
N2809 C2801 1.427 . S
N2809 C2807 1.384 . S
H2810 C2816 0.930 . S
H2811 C2820 0.930 . S
H2812 C2825 0.929 . S
H2813 C2823 0.929 . S
H2814 C2818 0.929 . S
H2815 C2824 0.929 . S
C2816 H2810 0.930 . S
C2816 C2817 1.367 . S
C2816 C2824 1.378 . S
C2817 C2816 1.367 . S
C2817 C2825 1.433 . S
C2818 H2814 0.929 . S
C2818 C2820 1.378 . S
C2818 C2822 1.350 . S
C2819 C2822 1.463 . S
C2819 C2824 1.350 . S
C2819 N2827 1.427 . S
C2820 H2811 0.930 . S
C2820 C2818 1.378 . S
C2820 C2821 1.367 . S
C2821 C2820 1.367 . S
C2821 C2823 1.433 . S
C2822 C2818 1.350 . S
C2822 C2819 1.463 . S
C2822 N2826 1.427 . S
C2823 H2813 0.929 . S
C2823 C2821 1.433 . S
C2823 N2826 1.384 . S
C2824 H2815 0.929 . S
C2824 C2816 1.378 . S
C2824 C2819 1.350 . S
C2825 H2812 0.929 . S
C2825 C2817 1.433 . S
C2825 N2827 1.384 . S
N2826 C2822 1.427 . S
N2826 C2823 1.384 . S
N2827 C2819 1.427 . S
N2827 C2825 1.384 . S
H2828 C2834 0.930 . S
H2829 C2838 0.930 . S
H2830 C2843 0.929 . S
H2831 C2841 0.929 . S
H2832 C2836 0.929 . S
H2833 C2842 0.929 . S
C2834 H2828 0.930 . S
C2834 C2835 1.367 . S
C2834 C2842 1.378 1_556 S
C2835 C2834 1.367 . S
C2835 C2843 1.433 . S
C2836 H2832 0.929 . S
C2836 C2838 1.378 . S
C2836 C2840 1.350 . S
C2837 C2840 1.463 . S
C2837 C2842 1.350 . S
C2837 N2845 1.427 . S
C2838 H2829 0.930 . S
C2838 C2836 1.378 . S
C2838 C2839 1.367 . S
C2839 C2838 1.367 . S
C2839 C2841 1.433 . S
C2840 C2836 1.350 . S
C2840 C2837 1.463 . S
C2840 N2844 1.427 . S
C2841 H2831 0.929 . S
C2841 C2839 1.433 . S
C2841 N2844 1.384 . S
C2842 H2833 0.929 . S
C2842 C2834 1.378 1_554 S
C2842 C2837 1.350 . S
C2843 H2830 0.929 . S
C2843 C2835 1.433 . S
C2843 N2845 1.384 1_556 S
N2844 C2840 1.427 . S
N2844 C2841 1.384 . S
N2845 C2837 1.427 . S
N2845 C2843 1.384 1_554 S
H2846 C2852 0.930 . S
H2847 C2856 0.930 . S
H2848 C2861 0.929 . S
H2849 C2859 0.929 . S
H2850 C2854 0.929 . S
H2851 C2860 0.929 . S
C2852 H2846 0.930 . S
C2852 C2853 1.367 . S
C2852 C2860 1.378 . S
C2853 C2852 1.367 . S
C2853 C2861 1.433 . S
C2854 H2850 0.929 . S
C2854 C2856 1.378 . S
C2854 C2858 1.350 . S
C2855 C2858 1.463 . S
C2855 C2860 1.350 . S
C2855 N2863 1.427 . S
C2856 H2847 0.930 . S
C2856 C2854 1.378 . S
C2856 C2857 1.367 . S
C2857 C2856 1.367 . S
C2857 C2859 1.433 . S
C2858 C2854 1.350 . S
C2858 C2855 1.463 . S
C2858 N2862 1.427 . S
C2859 H2849 0.929 . S
C2859 C2857 1.433 . S
C2859 N2862 1.384 . S
C2860 H2851 0.929 . S
C2860 C2852 1.378 . S
C2860 C2855 1.350 . S
C2861 H2848 0.929 . S
C2861 C2853 1.433 . S
C2861 N2863 1.384 . S
N2862 C2858 1.427 . S
N2862 C2859 1.384 . S
N2863 C2855 1.427 . S
N2863 C2861 1.384 . S
H2864 C2870 0.930 . S
H2865 C2874 0.927 1_565 S
H2866 C2879 0.929 . S
H2867 C2877 0.929 . S
H2868 C2872 0.929 . S
H2869 C2878 0.929 1_545 S
C2870 H2864 0.930 . S
C2870 C2871 1.367 . S
C2870 C2878 1.378 . S
C2871 C2870 1.367 . S
C2871 C2879 1.433 . S
C2872 H2868 0.929 . S
C2872 C2874 1.374 1_565 S
C2872 C2876 1.350 . S
C2873 C2876 1.463 . S
C2873 C2878 1.350 . S
C2873 N2881 1.427 . S
C2874 H2865 0.927 1_545 S
C2874 C2872 1.374 1_545 S
C2874 C2875 1.374 . S
C2875 C2874 1.374 . S
C2875 C2877 1.433 . S
C2876 C2872 1.350 . S
C2876 C2873 1.463 . S
C2876 N2880 1.427 1_565 S
C2877 H2867 0.929 . S
C2877 C2875 1.433 . S
C2877 N2880 1.384 . S
C2878 H2869 0.929 1_565 S
C2878 C2870 1.378 . S
C2878 C2873 1.350 . S
C2879 H2866 0.929 . S
C2879 C2871 1.433 . S
C2879 N2881 1.384 . S
N2880 C2876 1.427 1_545 S
N2880 C2877 1.384 . S
N2881 C2873 1.427 . S
N2881 C2879 1.384 . S
H2882 C2888 0.930 . S
H2883 C2892 0.930 . S
H2884 C2897 0.929 . S
H2885 C2895 0.929 . S
H2886 C2890 0.929 . S
H2887 C2896 0.929 . S
C2888 H2882 0.930 . S
C2888 C2889 1.367 . S
C2888 C2896 1.378 . S
C2889 C2888 1.367 . S
C2889 C2897 1.433 . S
C2890 H2886 0.929 . S
C2890 C2892 1.378 . S
C2890 C2894 1.350 . S
C2891 C2894 1.463 . S
C2891 C2896 1.350 . S
C2891 N2899 1.427 . S
C2892 H2883 0.930 . S
C2892 C2890 1.378 . S
C2892 C2893 1.367 . S
C2893 C2892 1.367 . S
C2893 C2895 1.433 . S
C2894 C2890 1.350 . S
C2894 C2891 1.463 . S
C2894 N2898 1.427 . S
C2895 H2885 0.929 . S
C2895 C2893 1.433 . S
C2895 N2898 1.384 . S
C2896 H2887 0.929 . S
C2896 C2888 1.378 . S
C2896 C2891 1.350 . S
C2897 H2884 0.929 . S
C2897 C2889 1.433 . S
C2897 N2899 1.384 . S
N2898 C2894 1.427 . S
N2898 C2895 1.384 . S
N2899 C2891 1.427 . S
N2899 C2897 1.384 . S
H2900 C2906 0.930 . S
H2901 C2910 0.930 . S
H2902 C2915 0.923 1_565 S
H2903 C2913 0.929 . S
H2904 C2908 0.929 . S
H2905 C2914 0.929 . S
C2906 H2900 0.930 . S
C2906 C2907 1.367 . S
C2906 C2914 1.378 . S
C2907 C2906 1.367 . S
C2907 C2915 1.433 . S
C2908 H2904 0.929 . S
C2908 C2910 1.378 . S
C2908 C2912 1.307 1_565 S
C2909 C2912 1.484 . S
C2909 C2914 1.350 . S
C2909 N2917 1.427 1_545 S
C2910 H2901 0.930 . S
C2910 C2908 1.378 . S
C2910 C2911 1.367 . S
C2911 C2910 1.367 . S
C2911 C2913 1.433 1_565 S
C2912 C2908 1.307 1_545 S
C2912 C2909 1.484 . S
C2912 N2916 1.453 . S
C2913 H2903 0.929 . S
C2913 C2911 1.433 1_545 S
C2913 N2916 1.384 . S
C2914 H2905 0.929 . S
C2914 C2906 1.378 . S
C2914 C2909 1.350 . S
C2915 H2902 0.923 1_545 S
C2915 C2907 1.433 . S
C2915 N2917 1.384 1_545 S
N2916 C2912 1.453 . S
N2916 C2913 1.384 . S
N2917 C2909 1.427 1_565 S
N2917 C2915 1.384 1_565 S
H2918 C2924 0.930 . S
H2919 C2928 0.930 . S
H2920 C2933 0.929 . S
H2921 C2931 0.929 . S
H2922 C2926 0.929 . S
H2923 C2932 0.929 . S
C2924 H2918 0.930 . S
C2924 C2925 1.367 . S
C2924 C2932 1.378 . S
C2925 C2924 1.367 . S
C2925 C2933 1.433 . S
C2926 H2922 0.929 . S
C2926 C2928 1.378 . S
C2926 C2930 1.350 1_556 S
C2927 C2930 1.463 . S
C2927 C2932 1.350 . S
C2927 N2935 1.427 . S
C2928 H2919 0.930 . S
C2928 C2926 1.378 . S
C2928 C2929 1.367 . S
C2929 C2928 1.367 . S
C2929 C2931 1.433 . S
C2930 C2926 1.350 1_554 S
C2930 C2927 1.463 . S
C2930 N2934 1.427 . S
C2931 H2921 0.929 . S
C2931 C2929 1.433 . S
C2931 N2934 1.384 1_556 S
C2932 H2923 0.929 . S
C2932 C2924 1.378 . S
C2932 C2927 1.350 . S
C2933 H2920 0.929 . S
C2933 C2925 1.433 . S
C2933 N2935 1.384 . S
N2934 C2930 1.427 . S
N2934 C2931 1.384 1_554 S
N2935 C2927 1.427 . S
N2935 C2933 1.384 . S
H2936 C2942 0.930 . S
H2937 C2946 0.955 . S
H2938 C2951 0.929 . S
H2939 C2949 0.929 . S
H2940 C2944 0.971 . S
H2941 C2950 0.929 . S
C2942 H2936 0.930 . S
C2942 C2943 1.367 1_545 S
C2942 C2950 1.378 . S
C2943 C2942 1.367 1_565 S
C2943 C2951 1.433 . S
C2944 H2940 0.971 . S
C2944 C2946 1.359 1_564 S
C2944 C2948 1.326 1_565 S
C2945 C2948 1.463 . S
C2945 C2950 1.350 . S
C2945 N2953 1.427 1_545 S
C2946 H2937 0.955 . S
C2946 C2944 1.359 1_546 S
C2946 C2947 1.367 . S
C2947 C2946 1.367 . S
C2947 C2949 1.433 . S
C2948 C2944 1.326 1_545 S
C2948 C2945 1.463 . S
C2948 N2952 1.427 . S
C2949 H2939 0.929 . S
C2949 C2947 1.433 . S
C2949 N2952 1.384 1_556 S
C2950 H2941 0.929 . S
C2950 C2942 1.378 . S
C2950 C2945 1.350 . S
C2951 H2938 0.929 . S
C2951 C2943 1.433 . S
C2951 N2953 1.384 . S
N2952 C2948 1.427 . S
N2952 C2949 1.384 1_554 S
N2953 C2945 1.427 1_565 S
N2953 C2951 1.384 . S
H2954 C2960 0.930 . S
H2955 C2964 0.930 . S
H2956 C2969 0.929 . S
H2957 C2967 0.929 . S
H2958 C2962 0.929 . S
H2959 C2968 0.929 . S
C2960 H2954 0.930 . S
C2960 C2961 1.367 . S
C2960 C2968 1.378 . S
C2961 C2960 1.367 . S
C2961 C2969 1.433 . S
C2962 H2958 0.929 . S
C2962 C2964 1.378 . S
C2962 C2966 1.350 . S
C2963 C2966 1.463 . S
C2963 C2968 1.350 . S
C2963 N2971 1.427 . S
C2964 H2955 0.930 . S
C2964 C2962 1.378 . S
C2964 C2965 1.367 . S
C2965 C2964 1.367 . S
C2965 C2967 1.433 . S
C2966 C2962 1.350 . S
C2966 C2963 1.463 . S
C2966 N2970 1.427 . S
C2967 H2957 0.929 . S
C2967 C2965 1.433 . S
C2967 N2970 1.384 . S
C2968 H2959 0.929 . S
C2968 C2960 1.378 . S
C2968 C2963 1.350 . S
C2969 H2956 0.929 . S
C2969 C2961 1.433 . S
C2969 N2971 1.384 . S
N2970 C2966 1.427 . S
N2970 C2967 1.384 . S
N2971 C2963 1.427 . S
N2971 C2969 1.384 . S
H2972 C2978 0.930 . S
H2973 C2982 0.930 . S
H2974 C2987 0.929 . S
H2975 C2985 0.931 . S
H2976 C2980 0.929 . S
H2977 C2986 0.929 . S
C2978 H2972 0.930 . S
C2978 C2979 1.367 . S
C2978 C2986 1.378 . S
C2979 C2978 1.367 . S
C2979 C2987 1.433 . S
C2980 H2976 0.929 . S
C2980 C2982 1.378 . S
C2980 C2984 1.350 1_545 S
C2981 C2984 1.463 . S
C2981 C2986 1.350 . S
C2981 N2989 1.427 . S
C2982 H2973 0.930 . S
C2982 C2980 1.378 . S
C2982 C2983 1.367 . S
C2983 C2982 1.367 . S
C2983 C2985 1.433 . S
C2984 C2980 1.350 1_565 S
C2984 C2981 1.463 . S
C2984 N2988 1.427 . S
C2985 H2975 0.931 . S
C2985 C2983 1.433 . S
C2985 N2988 1.384 1_545 S
C2986 H2977 0.929 . S
C2986 C2978 1.378 . S
C2986 C2981 1.350 . S
C2987 H2974 0.929 . S
C2987 C2979 1.433 . S
C2987 N2989 1.384 . S
N2988 C2984 1.427 . S
N2988 C2985 1.384 1_565 S
N2989 C2981 1.427 . S
N2989 C2987 1.384 . S
H2990 C2996 0.930 . S
H2991 C3000 0.930 . S
H2992 C3005 0.929 . S
H2993 C3003 0.929 . S
H2994 C2998 0.929 . S
H2995 C3004 0.929 . S
C2996 H2990 0.930 . S
C2996 C2997 1.367 . S
C2996 C3004 1.378 . S
C2997 C2996 1.367 . S
C2997 C3005 1.433 . S
C2998 H2994 0.929 . S
C2998 C3000 1.378 . S
C2998 C3002 1.350 . S
C2999 C3002 1.463 . S
C2999 C3004 1.350 . S
C2999 N3007 1.427 . S
C3000 H2991 0.930 . S
C3000 C2998 1.378 . S
C3000 C3001 1.367 . S
C3001 C3000 1.367 . S
C3001 C3003 1.433 . S
C3002 C2998 1.350 . S
C3002 C2999 1.463 . S
C3002 N3006 1.427 . S
C3003 H2993 0.929 . S
C3003 C3001 1.433 . S
C3003 N3006 1.384 . S
C3004 H2995 0.929 . S
C3004 C2996 1.378 . S
C3004 C2999 1.350 . S
C3005 H2992 0.929 . S
C3005 C2997 1.433 . S
C3005 N3007 1.384 . S
N3006 C3002 1.427 . S
N3006 C3003 1.384 . S
N3007 C2999 1.427 . S
N3007 C3005 1.384 . S
C1287 C19 0.417 . S
C1291 C166 0.396 . S
C1305 C206 0.391 . S
C1309 C59 0.386 . S
C1323 C99 0.386 . S
C1327 C246 0.392 . S
C1341 C286 0.389 . S
C1345 C139 0.421 . S
C1359 C330 0.405 . S
C1363 C495 0.375 . S
C1377 C370 0.401 . S
C1381 C535 0.376 . S
C1395 C575 0.381 . S
C1399 C410 0.423 . S
C1413 C450 0.386 . S
C1417 C615 0.405 . S
C1431 C806 0.373 . S
C1435 C659 0.410 . S
C1449 C699 0.408 . S
C1453 C846 0.402 . S
C1467 C739 0.414 . S
C1471 C886 0.399 . S
C1485 C779 0.406 . S
C1489 C926 0.404 . S
C1503 C970 0.404 . S
C1507 C1135 0.375 . S
C1521 C1175 0.406 . S
C1525 C1010 0.400 . S
C1539 C1050 0.402 . S
C1543 C1215 0.376 . S
C1557 C1255 0.406 . S
C1561 C1090 0.395 . S
C1575 C858 1.468 . S
C1579 C9 1.452 . S
C1593 C898 1.472 . S
C1597 C49 1.458 . S
C1611 C938 1.472 . S
C1615 C89 1.455 . S
C1629 C129 1.468 . S
C1633 C818 1.485 . S
C1647 C178 1.475 . S
C1651 C769 1.457 . S
C1665 C649 1.474 . S
C1669 C218 1.490 . S
C1683 C258 1.471 . S
C1687 C689 1.456 . S
C1701 C298 1.468 . S
C1705 C729 1.452 . S
C1719 C338 1.472 . S
C1723 C1169 1.489 . S
C1737 C1209 1.477 . S
C1741 C378 1.464 . S
C1755 C1249 1.487 . S
C1759 C418 1.473 . S
C1773 C458 1.460 . S
C1777 C1129 1.473 . S
C1791 C489 1.489 . S
C1795 C1098 1.473 . S
C1809 C529 1.470 . S
C1813 C978 1.453 . S
C1827 C569 1.482 . S
C1831 C1018 1.465 . S
C1845 C609 1.484 . S
C1849 C1058 1.473 . S
C1863 C329 0.714 . S
C1867 C18 0.714 . S
C1881 C58 0.719 . S
C1885 C1009 0.719 . S
C1899 C409 0.725 . S
C1903 C98 0.725 . S
C1917 C138 0.716 . S
C1921 C1089 0.716 . S
C1935 C498 0.455 . S
C1939 C169 0.455 . S
C1953 C1178 0.449 . S
C1957 C209 0.448 . S
C1971 C249 0.452 . S
C1975 C578 0.452 . S
C1989 C289 0.436 . S
C1993 C1258 0.436 . S
C2007 C698 0.711 . S
C2011 C369 0.711 . S
C2025 C778 0.732 . S
C2029 C449 0.732 . S
C2043 C538 0.440 . S
C2047 C849 0.440 . S
C2061 C929 0.432 . S
C2065 C618 0.431 . S
C2079 C969 0.697 . S
C2083 C658 0.697 . S
C2097 C1049 0.739 . S
C2101 C738 0.739 . S
C2115 C1138 0.454 . S
C2119 C809 0.454 . S
C2133 C889 0.436 . S
C2137 C1218 0.436 . S
C2151 C10 2.090 . S
C2155 C499 2.103 . S
C2169 C1179 2.101 . S
C2173 C50 2.094 . S
C2187 C579 2.102 . S
C2191 C90 2.084 . S
C2205 C130 2.083 . S
C2209 C1259 2.099 . S
C2223 C326 0.937 . S
C2227 C175 0.922 . S
C2241 C1006 0.941 . S
C2245 C215 0.929 . S
C2259 C406 0.931 . S
C2263 C255 0.940 . S
C2277 C1086 0.924 . S
C2281 C295 0.932 . S
C2295 C170 2.100 . S
C2299 C339 2.091 . S
C2313 C850 2.103 . S
C2317 C379 2.090 . S
C2331 C250 2.100 1_556 S
C2335 C419 2.083 . S
C2349 C459 2.085 . S
C2353 C930 2.103 . S
C2367 C15 0.941 . S
C2371 C486 0.931 . S
C2385 C695 0.931 . S
C2389 C526 0.940 . S
C2403 C566 0.927 . S
C2407 C95 0.940 . S
C2421 C606 0.930 . S
C2425 C775 0.920 . S
C2439 C1139 2.104 . S
C2443 C650 2.086 . S
C2457 C539 2.101 . S
C2461 C690 2.091 . S
C2475 C730 2.088 . S
C2479 C1219 2.098 . S
C2493 C619 2.098 . S
C2497 C770 2.090 . S
C2511 C815 0.924 . S
C2515 C966 0.939 . S
C2529 C855 0.926 . S
C2533 C366 0.940 . S
C2547 C1046 0.926 . S
C2551 C895 0.938 . S
C2565 C446 0.940 . S
C2569 C935 0.935 . S
C2583 C979 2.083 . S
C2587 C810 2.099 1_556 S
C2601 C1019 2.086 . S
C2605 C210 2.097 . S
C2619 C1059 2.085 . S
C2623 C890 2.097 . S
C2637 C1099 2.086 . S
C2641 C290 2.097 . S
C2655 C655 0.923 . S
C2659 C1126 0.930 . S
C2673 C55 0.934 . S
C2677 C1166 0.918 . S
C2691 C1206 0.939 . S
C2695 C735 0.931 . S
C2709 C135 0.931 . S
C2713 C1246 0.940 . S
C2727 C179 2.233 . S
C2731 C6 2.214 . S
C2745 C219 2.232 . S
C2749 C46 2.208 . S
C2763 C86 2.211 . S
C2767 C259 2.234 . S
C2781 C299 2.231 . S
C2785 C126 2.210 . S
C2799 C490 2.234 . S
C2803 C335 2.212 . S
C2817 C375 2.211 . S
C2821 C530 2.234 . S
C2835 C415 2.209 . S
C2839 C570 2.231 . S
C2853 C610 2.232 . S
C2857 C455 2.205 . S
C2871 C646 2.212 . S
C2875 C819 2.230 . S
C2889 C859 2.230 . S
C2893 C686 2.211 . S
C2907 C726 2.214 . S
C2911 C899 2.233 . S
C2925 C766 2.208 . S
C2929 C939 2.232 . S
C2943 C1130 2.230 . S
C2947 C975 2.210 . S
C2961 C1170 2.233 . S
C2965 C1015 2.205 . S
C2979 C1055 2.215 . S
C2983 C1210 2.232 . S
C2997 C1250 2.233 . S
C3001 C1095 2.208 . S
