# Generated by pormake.
# Topology unp, (4)-cn, num edge types: 1
# Building blocks:
#     Node 0, Type 0, BuildingBlock: CEKHIL_clean_sbu_0, # of connection points: 4
#     Node 1, Type 0, BuildingBlock: CEKHIL_clean_sbu_0, # of connection points: 4
#     Node 2, Type 0, BuildingBlock: CEKHIL_clean_sbu_0, # of connection points: 4
#     Node 3, Type 0, BuildingBlock: CEKHIL_clean_sbu_0, # of connection points: 4
#     Node 4, Type 0, BuildingBlock: CEKHIL_clean_sbu_0, # of connection points: 4
#     Node 5, Type 0, BuildingBlock: CEKHIL_clean_sbu_0, # of connection points: 4
#     Node 6, Type 0, BuildingBlock: CEKHIL_clean_sbu_0, # of connection points: 4
#     Node 7, Type 0, BuildingBlock: CEKHIL_clean_sbu_0, # of connection points: 4
#     Node 8, Type 0, BuildingBlock: CEKHIL_clean_sbu_0, # of connection points: 4
#     Node 9, Type 0, BuildingBlock: CEKHIL_clean_sbu_0, # of connection points: 4
#     Node 10, Type 0, BuildingBlock: CEKHIL_clean_sbu_0, # of connection points: 4
#     Node 11, Type 0, BuildingBlock: CEKHIL_clean_sbu_0, # of connection points: 4
#     Node 12, Type 0, BuildingBlock: CEKHIL_clean_sbu_0, # of connection points: 4
#     Node 13, Type 0, BuildingBlock: CEKHIL_clean_sbu_0, # of connection points: 4
#     Node 14, Type 0, BuildingBlock: CEKHIL_clean_sbu_0, # of connection points: 4
#     Node 15, Type 0, BuildingBlock: CEKHIL_clean_sbu_0, # of connection points: 4
#     Node 16, Type 0, BuildingBlock: CEKHIL_clean_sbu_0, # of connection points: 4
#     Node 17, Type 0, BuildingBlock: CEKHIL_clean_sbu_0, # of connection points: 4
#     Edge 18, Type (0, 0), BuildingBlock: EYOCIG_clean_linker_4, # of connection points: 2
#     Edge 19, Type (0, 0), BuildingBlock: EYOCIG_clean_linker_4, # of connection points: 2
#     Edge 20, Type (0, 0), BuildingBlock: EYOCIG_clean_linker_4, # of connection points: 2
#     Edge 21, Type (0, 0), BuildingBlock: EYOCIG_clean_linker_4, # of connection points: 2
#     Edge 22, Type (0, 0), BuildingBlock: EYOCIG_clean_linker_4, # of connection points: 2
#     Edge 23, Type (0, 0), BuildingBlock: EYOCIG_clean_linker_4, # of connection points: 2
#     Edge 24, Type (0, 0), BuildingBlock: EYOCIG_clean_linker_4, # of connection points: 2
#     Edge 25, Type (0, 0), BuildingBlock: EYOCIG_clean_linker_4, # of connection points: 2
#     Edge 26, Type (0, 0), BuildingBlock: EYOCIG_clean_linker_4, # of connection points: 2
#     Edge 27, Type (0, 0), BuildingBlock: EYOCIG_clean_linker_4, # of connection points: 2
#     Edge 28, Type (0, 0), BuildingBlock: EYOCIG_clean_linker_4, # of connection points: 2
#     Edge 29, Type (0, 0), BuildingBlock: EYOCIG_clean_linker_4, # of connection points: 2
#     Edge 30, Type (0, 0), BuildingBlock: EYOCIG_clean_linker_4, # of connection points: 2
#     Edge 31, Type (0, 0), BuildingBlock: EYOCIG_clean_linker_4, # of connection points: 2
#     Edge 32, Type (0, 0), BuildingBlock: EYOCIG_clean_linker_4, # of connection points: 2
#     Edge 33, Type (0, 0), BuildingBlock: EYOCIG_clean_linker_4, # of connection points: 2
#     Edge 34, Type (0, 0), BuildingBlock: EYOCIG_clean_linker_4, # of connection points: 2
#     Edge 35, Type (0, 0), BuildingBlock: EYOCIG_clean_linker_4, # of connection points: 2
#     Edge 36, Type (0, 0), BuildingBlock: EYOCIG_clean_linker_4, # of connection points: 2
#     Edge 37, Type (0, 0), BuildingBlock: EYOCIG_clean_linker_4, # of connection points: 2
#     Edge 38, Type (0, 0), BuildingBlock: EYOCIG_clean_linker_4, # of connection points: 2
#     Edge 39, Type (0, 0), BuildingBlock: EYOCIG_clean_linker_4, # of connection points: 2
#     Edge 40, Type (0, 0), BuildingBlock: EYOCIG_clean_linker_4, # of connection points: 2
#     Edge 41, Type (0, 0), BuildingBlock: EYOCIG_clean_linker_4, # of connection points: 2
#     Edge 42, Type (0, 0), BuildingBlock: EYOCIG_clean_linker_4, # of connection points: 2
#     Edge 43, Type (0, 0), BuildingBlock: EYOCIG_clean_linker_4, # of connection points: 2
#     Edge 44, Type (0, 0), BuildingBlock: EYOCIG_clean_linker_4, # of connection points: 2
#     Edge 45, Type (0, 0), BuildingBlock: EYOCIG_clean_linker_4, # of connection points: 2
#     Edge 46, Type (0, 0), BuildingBlock: EYOCIG_clean_linker_4, # of connection points: 2
#     Edge 47, Type (0, 0), BuildingBlock: EYOCIG_clean_linker_4, # of connection points: 2
#     Edge 48, Type (0, 0), BuildingBlock: EYOCIG_clean_linker_4, # of connection points: 2
#     Edge 49, Type (0, 0), BuildingBlock: EYOCIG_clean_linker_4, # of connection points: 2
#     Edge 50, Type (0, 0), BuildingBlock: EYOCIG_clean_linker_4, # of connection points: 2
#     Edge 51, Type (0, 0), BuildingBlock: EYOCIG_clean_linker_4, # of connection points: 2
#     Edge 52, Type (0, 0), BuildingBlock: EYOCIG_clean_linker_4, # of connection points: 2
#     Edge 53, Type (0, 0), BuildingBlock: EYOCIG_clean_linker_4, # of connection points: 2
# Relax obj value: 0.420
# Max RMSD: 0.187
# Mean RMSD: 0.187
data_MOF--net-unp--node1-CEKHIL_clean_sbu_0--edge1-EYOCIG_clean_linker_4
_symmetry_space_group_name_H-M    P1
_symmetry_Int_Tables_number       1
_symmetry_cell_setting            triclinic
loop_
_symmetry_equiv_pos_as_xyz
'x, y, z'
_cell_length_a     38.856249
_cell_length_b     38.845306
_cell_length_c     42.457821
_cell_angle_alpha  90.008164
_cell_angle_beta   89.99835
_cell_angle_gamma 119.98191
loop_
_atom_site_label
_atom_site_type_symbol
_atom_site_fract_x
_atom_site_fract_y
_atom_site_fract_z
_atom_type_partial_charge
Co0 Co 0.16876 0.1449 0.14379 0.0
O1 O 0.22467 0.16369 0.14246 0.0
O2 O 0.19714 0.1984 0.16 0.0
C3 C 0.15015 0.08474 0.16398 0.0
O4 O 0.11259 0.13493 0.1504 0.0
Co5 Co 0.10885 0.07107 0.10455 0.0
O6 O 0.06887 0.07421 0.13161 0.0
C7 C 0.16114 0.14734 0.073 0.0
C8 C 0.22892 0.19638 0.15431 0.0
C9 C 0.07715 0.1054 0.14721 0.0
O10 O 0.1715 0.16553 0.09962 0.0
O11 O 0.13916 0.1097 0.07011 0.0
O12 O 0.16335 0.11524 0.18266 0.0
O13 O 0.15236 0.09214 0.13429 0.0
Co14 Co 0.83842 0.02125 0.14391 0.0
O15 O 0.81951 0.05829 0.14257 0.0
O16 O 0.7849 -0.00397 0.16004 0.0
C17 C 0.89849 0.06284 0.1642 0.0
O18 O 0.84851 0.97511 0.15052 0.0
Co19 Co 0.91239 0.03533 0.1048 0.0
O20 O 0.90929 0.99221 0.13184 0.0
C21 C 0.83618 0.01127 0.07311 0.0
C22 C 0.78684 0.0298 0.15437 0.0
C23 C 0.87808 0.96925 0.14738 0.0
O24 O 0.81793 0.0034 0.0997 0.0
O25 O 0.87382 0.02697 0.07029 0.0
O26 O 0.86795 0.04546 0.18283 0.0
O27 O 0.89116 0.05768 0.1345 0.0
Co28 Co 0.96184 0.81423 0.1441 0.0
O29 O 0.92478 0.75829 0.14294 0.0
O30 O 0.9871 0.78595 0.16025 0.0
C31 C 0.92037 0.83287 0.16442 0.0
O32 O 0.008 0.87047 0.15051 0.0
Co33 Co 0.94757 0.87392 0.10486 0.0
O34 O -0.00919 0.91406 0.13174 0.0
C35 C 0.97149 0.82159 0.07327 0.0
C36 C 0.9533 0.75412 0.1547 0.0
C37 C 0.01384 0.90589 0.14726 0.0
O38 O 0.97948 0.81133 0.09987 0.0
O39 O 0.95579 0.84353 0.07041 0.0
O40 O 0.93781 0.81977 0.18306 0.0
O41 O 0.92538 0.83053 0.13472 0.0
Co42 Co 0.14095 0.17238 0.85777 0.0
O43 O 0.15982 0.22833 0.85893 0.0
O44 O 0.19447 0.20063 0.84163 0.0
C45 C 0.08086 0.15373 0.83746 0.0
O46 O 0.13092 0.11614 0.85137 0.0
Co47 Co 0.06705 0.11269 0.89702 0.0
O48 O 0.07018 0.07255 0.87015 0.0
C49 C 0.14327 0.16505 0.9286 0.0
C50 C 0.1925 0.23247 0.84718 0.0
C51 C 0.10137 0.08072 0.85462 0.0
O52 O 0.16149 0.17528 0.902 0.0
O53 O 0.10563 0.14312 0.93146 0.0
O54 O 0.11139 0.16683 0.81882 0.0
O55 O 0.08821 0.15608 0.86716 0.0
Co56 Co 0.81058 0.96538 0.85786 0.0
O57 O 0.75465 0.92832 0.8592 0.0
O58 O 0.78223 0.99059 0.84174 0.0
C59 C 0.8291 0.92382 0.83756 0.0
O60 O 0.86677 0.01154 0.85127 0.0
Co61 Co 0.87045 0.95128 0.89699 0.0
O62 O 0.91044 -0.00559 0.86996 0.0
C63 C 0.81826 0.97532 0.92866 0.0
C64 C 0.75043 0.9568 0.8474 0.0
C65 C 0.9022 0.01739 0.85442 0.0
O66 O 0.80789 0.98321 0.90208 0.0
O67 O 0.84021 0.95962 0.93149 0.0
O68 O 0.81592 0.94119 0.81893 0.0
O69 O 0.82692 0.92896 0.86727 0.0
Co70 Co 0.01732 0.84176 0.85809 0.0
O71 O 0.05439 0.82289 0.85942 0.0
O72 O -0.00782 0.78826 0.84189 0.0
C73 C 0.05889 0.90189 0.83789 0.0
O74 O 0.97117 0.8518 0.85147 0.0
Co75 Co 0.03128 0.91564 0.8973 0.0
O76 O 0.98819 0.91255 0.87022 0.0
C77 C 0.00726 0.83936 0.92888 0.0
C78 C 0.02595 0.79023 0.84757 0.0
C79 C 0.96528 0.88135 0.85464 0.0
O80 O -0.00057 0.82115 0.90227 0.0
O81 O 0.02291 0.877 0.93175 0.0
O82 O 0.04156 0.87137 0.81921 0.0
O83 O 0.05369 0.8945 0.86758 0.0
Co84 Co 0.83567 0.47812 0.47754 0.0
O85 O 0.8916 0.49702 0.47635 0.0
O86 O 0.86391 0.53167 0.49365 0.0
C87 C 0.8171 0.41804 0.49789 0.0
O88 O 0.77943 0.46804 0.48396 0.0
Co89 Co 0.77599 0.4041 0.43836 0.0
O90 O 0.73586 0.40725 0.46523 0.0
C91 C 0.82822 0.48032 0.40671 0.0
C92 C 0.89575 0.52971 0.48809 0.0
C93 C 0.74403 0.43847 0.48073 0.0
O94 O 0.83849 0.49859 0.4333 0.0
O95 O 0.80631 0.44267 0.40388 0.0
O96 O 0.83019 0.44861 0.51651 0.0
O97 O 0.8194 0.42536 0.46818 0.0
Co98 Co 0.5051 0.35464 0.47719 0.0
O99 O 0.48627 0.39175 0.47592 0.0
O100 O 0.45162 0.32949 0.4934 0.0
C101 C 0.56524 0.39615 0.4974 0.0
O102 O 0.51511 0.30844 0.48374 0.0
Co103 Co 0.57892 0.36861 0.43793 0.0
O104 O 0.57582 0.32546 0.46494 0.0
C105 C 0.50265 0.34463 0.40639 0.0
C106 C 0.45361 0.36329 0.48776 0.0
C107 C 0.54464 0.30253 0.48052 0.0
O108 O 0.48448 0.3368 0.43301 0.0
O109 O 0.54028 0.36028 0.4035 0.0
O110 O 0.53474 0.37882 0.51608 0.0
O111 O 0.55784 0.391 0.46771 0.0
Co112 Co 0.62879 0.14783 0.47719 0.0
O113 O 0.59172 0.09189 0.47581 0.0
O114 O 0.65395 0.11945 0.49333 0.0
C115 C 0.58722 0.16636 0.49745 0.0
O116 O 0.67494 0.20402 0.48384 0.0
Co117 Co 0.6148 0.20779 0.43807 0.0
O118 O 0.65788 0.24775 0.46517 0.0
C119 C 0.63878 0.15553 0.4064 0.0
C120 C 0.62017 0.08766 0.48763 0.0
C121 C 0.68081 0.23946 0.48072 0.0
O122 O 0.64666 0.14516 0.43299 0.0
O123 O 0.6231 0.17751 0.40357 0.0
O124 O 0.60456 0.15315 0.5161 0.0
O125 O 0.59241 0.16421 0.46775 0.0
Co126 Co 0.80776 0.50577 0.19152 0.0
O127 O 0.82658 0.56171 0.19289 0.0
O128 O 0.86124 0.53415 0.17531 0.0
C129 C 0.74762 0.48719 0.17134 0.0
O130 O 0.79777 0.44959 0.18485 0.0
Co131 Co 0.73396 0.44582 0.23073 0.0
O132 O 0.73707 0.40586 0.20361 0.0
C133 C 0.81022 0.49809 0.2623 0.0
C134 C 0.85924 0.56595 0.18103 0.0
C135 C 0.76824 0.41414 0.18801 0.0
O136 O 0.8284 0.50847 0.23568 0.0
O137 O 0.7726 0.4761 0.26518 0.0
O138 O 0.77811 0.50041 0.15266 0.0
O139 O 0.75503 0.48938 0.20103 0.0
Co140 Co 0.47716 0.29891 0.1912 0.0
O141 O 0.42123 0.26186 0.1924 0.0
O142 O 0.44889 0.32417 0.17505 0.0
C143 C 0.49575 0.25739 0.17089 0.0
O144 O 0.53339 0.34506 0.18475 0.0
Co145 Co 0.53686 0.28465 0.23043 0.0
O146 O 0.57697 0.32788 0.20353 0.0
C147 C 0.48462 0.30868 0.26202 0.0
C148 C 0.41706 0.29037 0.18063 0.0
C149 C 0.5688 0.3509 0.188 0.0
O150 O 0.47433 0.31662 0.23542 0.0
O151 O 0.50654 0.29296 0.26488 0.0
O152 O 0.48264 0.27482 0.15225 0.0
O153 O 0.49345 0.26244 0.2006 0.0
Co154 Co 0.68415 0.17542 0.19112 0.0
O155 O 0.7212 0.15652 0.19239 0.0
O156 O 0.65891 0.12187 0.175 0.0
C157 C 0.72567 0.23549 0.1708 0.0
O158 O 0.638 0.18549 0.18459 0.0
Co159 Co 0.69831 0.24943 0.23025 0.0
O160 O 0.65513 0.24629 0.20328 0.0
C161 C 0.67436 0.17322 0.26193 0.0
C162 C 0.6927 0.12383 0.18062 0.0
C163 C 0.63214 0.21507 0.18776 0.0
O164 O 0.66642 0.15494 0.23535 0.0
O165 O 0.69006 0.21087 0.26475 0.0
O166 O 0.70826 0.20493 0.15217 0.0
O167 O 0.72058 0.22817 0.20051 0.0
Co168 Co 0.50208 0.8114 0.8105 0.0
O169 O 0.55798 0.83014 0.80921 0.0
O170 O 0.53048 0.86486 0.82677 0.0
C171 C 0.48336 0.75119 0.83062 0.0
O172 O 0.44592 0.80148 0.81708 0.0
Co173 Co 0.44217 0.73768 0.77116 0.0
O174 O 0.40219 0.74081 0.79823 0.0
C175 C 0.49458 0.81399 0.73971 0.0
C176 C 0.56225 0.86282 0.8211 0.0
C177 C 0.41048 0.77198 0.81386 0.0
O178 O 0.50491 0.83212 0.76635 0.0
O179 O 0.47257 0.77636 0.73677 0.0
O180 O 0.49657 0.78167 0.84934 0.0
O181 O 0.48563 0.75865 0.80094 0.0
Co182 Co 0.17172 0.68769 0.81072 0.0
O183 O 0.15282 0.72474 0.80938 0.0
O184 O 0.11822 0.66249 0.82687 0.0
C185 C 0.2318 0.72928 0.83097 0.0
O186 O 0.18178 0.64154 0.81734 0.0
Co187 Co 0.24565 0.70171 0.77159 0.0
O188 O 0.24254 0.65859 0.79865 0.0
C189 C 0.16944 0.6777 0.73993 0.0
C190 C 0.12016 0.69626 0.8212 0.0
C191 C 0.21134 0.63565 0.81419 0.0
O192 O 0.15119 0.66982 0.76652 0.0
O193 O 0.20707 0.69338 0.7371 0.0
O194 O 0.20128 0.71192 0.84963 0.0
O195 O 0.22445 0.7241 0.80128 0.0
Co196 Co 0.29496 0.4807 0.81058 0.0
O197 O 0.25797 0.42475 0.80935 0.0
O198 O 0.32033 0.45245 0.82658 0.0
C199 C 0.25348 0.49921 0.83106 0.0
O200 O 0.34108 0.53696 0.81702 0.0
Co201 Co 0.2805 0.5404 0.77154 0.0
O202 O 0.32377 0.58052 0.7984 0.0
C203 C 0.30451 0.48825 0.73975 0.0
C204 C 0.28654 0.4206 0.82103 0.0
C205 C 0.34687 0.57236 0.81385 0.0
O206 O 0.31254 0.47795 0.7663 0.0
O207 O 0.28875 0.51016 0.73698 0.0
O208 O 0.27099 0.4861 0.84961 0.0
O209 O 0.25844 0.49695 0.80133 0.0
Co210 Co 0.47446 0.8394 0.52455 0.0
O211 O 0.49333 0.89535 0.52576 0.0
O212 O 0.52795 0.86766 0.50835 0.0
C213 C 0.41434 0.82079 0.50431 0.0
O214 O 0.46442 0.78317 0.51807 0.0
Co215 Co 0.4006 0.77966 0.56381 0.0
O216 O 0.40369 0.73955 0.53686 0.0
C217 C 0.47686 0.83198 0.59536 0.0
C218 C 0.52599 0.8995 0.51395 0.0
C219 C 0.43488 0.74775 0.5213 0.0
O220 O 0.49506 0.84225 0.56875 0.0
O221 O 0.43923 0.81003 0.59824 0.0
O222 O 0.44484 0.8339 0.48564 0.0
O223 O 0.42173 0.8231 0.534 0.0
Co224 Co 0.14402 0.63245 0.5246 0.0
O225 O 0.08809 0.59539 0.52589 0.0
O226 O 0.11568 0.65772 0.50857 0.0
C227 C 0.16256 0.59095 0.50417 0.0
O228 O 0.20022 0.67863 0.51807 0.0
Co229 Co 0.20386 0.61821 0.56363 0.0
O230 O 0.24387 0.66143 0.53668 0.0
C231 C 0.15165 0.64214 0.59542 0.0
C232 C 0.08388 0.62391 0.51418 0.0
C233 C 0.23564 0.68446 0.52121 0.0
O234 O 0.14131 0.65013 0.56886 0.0
O235 O 0.17359 0.62642 0.59819 0.0
O236 O 0.14939 0.60839 0.4856 0.0
O237 O 0.16035 0.596 0.53389 0.0
Co238 Co 0.35073 0.50882 0.52454 0.0
O239 O 0.38781 0.48996 0.52593 0.0
O240 O 0.32562 0.45533 0.50833 0.0
C241 C 0.39233 0.56896 0.50437 0.0
O242 O 0.30459 0.51888 0.51787 0.0
Co243 Co 0.36464 0.58269 0.56375 0.0
O244 O 0.32159 0.57961 0.53664 0.0
C245 C 0.34054 0.50639 0.59531 0.0
C246 C 0.35939 0.4573 0.51405 0.0
C247 C 0.29869 0.54843 0.52104 0.0
O248 O 0.33276 0.4882 0.5687 0.0
O249 O 0.3562 0.54403 0.5982 0.0
O250 O 0.37504 0.53846 0.48568 0.0
O251 O 0.38709 0.56156 0.53406 0.0
C252 C 0.34369 0.27272 0.1697 0.0
C253 C 0.37831 0.28397 0.1738 0.0
C254 C 0.30234 0.25204 0.16519 0.0
C255 C 0.26771 0.22868 0.16112 0.0
C256 C 0.73108 0.04743 0.16522 0.0
C257 C 0.75448 0.03621 0.16116 0.0
C258 C 0.71037 0.06809 0.16972 0.0
C259 C 0.69911 0.09147 0.1738 0.0
C260 C 0.91492 0.63937 0.17017 0.0
C261 C 0.89154 0.60474 0.17424 0.0
C262 C 0.93563 0.68073 0.16566 0.0
C263 C 0.94689 0.71536 0.16155 0.0
C264 C 0.26897 0.34721 0.83182 0.0
C265 C 0.2802 0.38184 0.82778 0.0
C266 C 0.24827 0.30584 0.83629 0.0
C267 C 0.22487 0.27122 0.84038 0.0
C268 C 0.67703 0.93909 0.83655 0.0
C269 C 0.71165 0.95035 0.84061 0.0
C270 C 0.63567 0.91842 0.83204 0.0
C271 C 0.60105 0.89508 0.82794 0.0
C272 C 0.06441 0.7139 0.8321 0.0
C273 C 0.08782 0.70269 0.82801 0.0
C274 C 0.04369 0.73455 0.83662 0.0
C275 C 0.03242 0.75791 0.84072 0.0
C276 C 0.9691 0.58551 0.49895 0.0
C277 C 0.93449 0.5621 0.49488 0.0
C278 C 0.01047 0.60623 0.50341 0.0
C279 C 0.0451 0.6175 0.50744 0.0
C280 C 0.37717 0.40163 0.50317 0.0
C281 C 0.36588 0.42499 0.50724 0.0
C282 C 0.39789 0.38099 0.49866 0.0
C283 C 0.42128 0.36975 0.49457 0.0
C284 C 0.60243 0.01422 0.49848 0.0
C285 C 0.61371 0.04886 0.49442 0.0
C286 C 0.58172 0.97286 0.503 0.0
C287 C 0.55833 0.93825 0.50711 0.0
C288 C 0.01375 0.10362 0.17074 0.0
C289 C 0.04467 0.10754 0.16113 0.0
C290 C 0.97393 0.09294 0.17653 0.0
C291 C 0.9385 0.07908 0.17504 0.0
C292 C 0.87986 0.90761 0.1709 0.0
C293 C 0.87597 0.93463 0.16128 0.0
C294 C 0.89046 0.87841 0.17672 0.0
C295 C 0.90426 0.85677 0.17524 0.0
C296 C 0.10471 0.00926 0.17625 0.0
C297 C 0.12631 0.04469 0.17476 0.0
C298 C 0.07554 0.96943 0.17054 0.0
C299 C 0.04851 0.93846 0.16104 0.0
C300 C 0.08894 0.97736 0.8256 0.0
C301 C 0.0751 0.94192 0.82709 0.0
C302 C 0.09958 0.01719 0.83133 0.0
C303 C 0.10349 0.04815 0.84084 0.0
C304 C 0.00543 0.10819 0.82517 0.0
C305 C 0.04084 0.12982 0.82665 0.0
C306 C 0.96562 0.07902 0.83095 0.0
C307 C 0.9347 0.05201 0.84054 0.0
C308 C 0.90368 0.88314 0.83107 0.0
C309 C 0.93068 0.87924 0.84071 0.0
C310 C 0.87451 0.89378 0.82524 0.0
C311 C 0.85292 0.90761 0.82671 0.0
C312 C 0.6805 0.43669 0.50399 0.0
C313 C 0.71146 0.44059 0.4945 0.0
C314 C 0.64068 0.42608 0.5097 0.0
C315 C 0.60527 0.41229 0.50819 0.0
C316 C 0.54645 0.24089 0.504 0.0
C317 C 0.54253 0.2679 0.49441 0.0
C318 C 0.55711 0.21172 0.50978 0.0
C319 C 0.57098 0.19015 0.50829 0.0
C320 C 0.77158 0.34261 0.51018 0.0
C321 C 0.79321 0.37804 0.50873 0.0
C322 C 0.7424 0.30282 0.50433 0.0
C323 C 0.7154 0.27193 0.49467 0.0
C324 C 0.75575 0.31095 0.1585 0.0
C325 C 0.74189 0.27551 0.15996 0.0
C326 C 0.76643 0.35076 0.16436 0.0
C327 C 0.77036 0.38167 0.17403 0.0
C328 C 0.67216 0.44178 0.15904 0.0
C329 C 0.70758 0.46337 0.16055 0.0
C330 C 0.63233 0.4126 0.16473 0.0
C331 C 0.60137 0.38557 0.17423 0.0
C332 C 0.54126 0.22744 0.15858 0.0
C333 C 0.51964 0.24125 0.16007 0.0
C334 C 0.57046 0.21683 0.16434 0.0
C335 C 0.59749 0.21294 0.17392 0.0
C336 C 0.30726 0.75946 0.84326 0.0
C337 C 0.27183 0.74557 0.8418 0.0
C338 C 0.34708 0.77017 0.83743 0.0
C339 C 0.378 0.7741 0.82781 0.0
C340 C 0.22362 0.54475 0.84351 0.0
C341 C 0.23739 0.5231 0.84199 0.0
C342 C 0.21305 0.57399 0.83772 0.0
C343 C 0.20919 0.60102 0.8281 0.0
C344 C 0.43781 0.67571 0.84284 0.0
C345 C 0.45945 0.71113 0.84137 0.0
C346 C 0.40859 0.63589 0.83711 0.0
C347 C 0.38155 0.60494 0.8276 0.0
C348 C 0.43307 0.68426 0.49789 0.0
C349 C 0.43698 0.71521 0.50746 0.0
C350 C 0.42243 0.64444 0.49211 0.0
C351 C 0.40858 0.60901 0.49358 0.0
C352 C 0.29908 0.74614 0.49782 0.0
C353 C 0.26815 0.71912 0.50738 0.0
C354 C 0.33889 0.77532 0.49205 0.0
C355 C 0.37431 0.79692 0.49352 0.0
C356 C 0.23711 0.55026 0.49749 0.0
C357 C 0.2641 0.54632 0.50711 0.0
C358 C 0.20795 0.56093 0.49172 0.0
C359 C 0.18637 0.57477 0.49326 0.0
C360 C 0.17894 0.18038 0.01727 0.0
C361 C 0.17355 0.16977 0.04435 0.0
C362 C 0.17628 0.18299 0.98435 0.0
C363 C 0.16566 0.17752 0.95727 0.0
C364 C 0.80055 0.99061 0.98443 0.0
C365 C 0.80592 0.98536 0.95735 0.0
C366 C 0.80321 -0.00404 0.01734 0.0
C367 C 0.81381 0.00122 0.04443 0.0
C368 C -0.00805 0.80632 0.98461 0.0
C369 C -0.00279 0.81694 0.95753 0.0
C370 C 0.98665 0.8037 0.01753 0.0
C371 C 0.98146 0.80915 0.04461 0.0
C372 C 0.84331 0.51588 0.31802 0.0
C373 C 0.83266 0.51049 0.29095 0.0
C374 C 0.84599 0.51326 0.35094 0.0
C375 C 0.8406 0.50268 0.37803 0.0
C376 C 0.46686 0.32397 0.31776 0.0
C377 C 0.47224 0.31872 0.29069 0.0
C378 C 0.46955 0.32932 0.35068 0.0
C379 C 0.4802 0.33459 0.37775 0.0
C380 C 0.65396 0.13772 0.35064 0.0
C381 C 0.64876 0.14314 0.37772 0.0
C382 C 0.65922 0.14032 0.31771 0.0
C383 C 0.6644 0.15088 0.29062 0.0
C384 C 0.50989 0.84982 0.6511 0.0
C385 C 0.49928 0.84441 0.62402 0.0
C386 C 0.5125 0.84714 0.68402 0.0
C387 C 0.50706 0.83647 0.71109 0.0
C388 C 0.13387 0.65723 0.65123 0.0
C389 C 0.13928 0.65207 0.62414 0.0
C390 C 0.13649 0.66248 0.68416 0.0
C391 C 0.14707 0.66769 0.71125 0.0
C392 C 0.3251 0.47328 0.65103 0.0
C393 C 0.33042 0.48394 0.62396 0.0
C394 C 0.31973 0.47058 0.68394 0.0
C395 C 0.31451 0.47594 0.71103 0.0
loop_
_geom_bond_atom_site_label_1
_geom_bond_atom_site_label_2
_geom_bond_distance
_geom_bond_site_symmetry_2
_ccdc_geom_bond_type
Co0 O1 2.216 . S
Co0 O2 2.091 . S
Co0 O4 2.004 . S
Co0 O10 2.021 . S
Co0 O12 2.137 . S
Co0 O13 2.244 . S
O1 Co0 2.216 . S
O1 C8 1.247 . S
O2 Co0 2.091 . S
O2 C8 1.261 . S
C3 O12 1.247 . S
C3 O13 1.272 . S
O4 Co0 2.004 . S
O4 C9 1.259 . S
Co5 O6 2.061 . S
Co5 O11 2.052 . S
Co5 O13 2.135 . S
O6 Co5 2.061 . S
O6 C9 1.235 . S
C7 O10 1.238 . S
C7 O11 1.241 . S
C8 O1 1.247 . S
C8 O2 1.261 . S
C9 O4 1.259 . S
C9 O6 1.235 . S
O10 Co0 2.021 . S
O10 C7 1.238 . S
O11 Co5 2.052 . S
O11 C7 1.241 . S
O12 Co0 2.137 . S
O12 C3 1.247 . S
O13 Co0 2.244 . S
O13 C3 1.272 . S
O13 Co5 2.135 . S
Co14 O15 2.216 . S
Co14 O16 2.102 1_545 S
Co14 O18 2.004 1_545 S
Co14 O24 2.021 1_545 S
Co14 O26 2.137 . S
Co14 O27 2.244 . S
O15 Co14 2.216 . S
O15 C22 1.247 . S
O16 Co14 2.102 1_565 S
O16 C22 1.234 1_565 S
C17 O26 1.247 . S
C17 O27 1.272 . S
O18 Co14 2.004 1_565 S
O18 C23 1.259 . S
Co19 O20 2.061 1_545 S
Co19 O25 2.038 . S
Co19 O27 2.135 . S
O20 Co19 2.061 1_565 S
O20 C23 1.235 . S
C21 O24 1.238 . S
C21 O25 1.247 1_565 S
C22 O15 1.247 . S
C22 O16 1.234 1_545 S
C23 O18 1.259 . S
C23 O20 1.235 . S
O24 Co14 2.021 1_565 S
O24 C21 1.238 . S
O25 Co19 2.038 . S
O25 C21 1.247 1_545 S
O26 Co14 2.137 . S
O26 C17 1.247 . S
O27 Co14 2.244 . S
O27 C17 1.272 . S
O27 Co19 2.135 . S
Co28 O29 2.216 . S
Co28 O30 2.091 1_655 S
Co28 O32 2.004 1_655 S
Co28 O38 2.021 1_655 S
Co28 O40 2.137 . S
Co28 O41 2.244 . S
O29 Co28 2.216 . S
O29 C36 1.247 . S
O30 Co28 2.091 1_455 S
O30 C36 1.261 1_455 S
C31 O40 1.247 . S
C31 O41 1.272 . S
O32 Co28 2.004 1_455 S
O32 C37 1.259 . S
Co33 O34 2.042 1_655 S
Co33 O39 2.039 1_655 S
Co33 O41 2.142 . S
O34 Co33 2.042 1_455 S
O34 C37 1.235 . S
C35 O38 1.238 . S
C35 O39 1.244 . S
C36 O29 1.247 . S
C36 O30 1.261 1_655 S
C37 O32 1.259 . S
C37 O34 1.235 . S
O38 Co28 2.021 1_455 S
O38 C35 1.238 . S
O39 Co33 2.039 1_455 S
O39 C35 1.244 . S
O40 Co28 2.137 . S
O40 C31 1.247 . S
O41 Co28 2.244 . S
O41 C31 1.272 . S
O41 Co33 2.142 . S
Co42 O43 2.216 . S
Co42 O44 2.091 . S
Co42 O46 2.004 . S
Co42 O52 2.021 . S
Co42 O54 2.137 . S
Co42 O55 2.244 . S
O43 Co42 2.216 . S
O43 C50 1.247 . S
O44 Co42 2.091 . S
O44 C50 1.261 . S
C45 O54 1.247 . S
C45 O55 1.272 . S
O46 Co42 2.004 . S
O46 C51 1.259 . S
Co47 O48 2.061 . S
Co47 O53 2.052 . S
Co47 O55 2.135 . S
O48 Co47 2.061 . S
O48 C51 1.235 . S
C49 O52 1.238 . S
C49 O53 1.241 . S
C50 O43 1.247 . S
C50 O44 1.261 . S
C51 O46 1.259 . S
C51 O48 1.235 . S
O52 Co42 2.021 . S
O52 C49 1.238 . S
O53 Co47 2.052 . S
O53 C49 1.241 . S
O54 Co42 2.137 . S
O54 C45 1.247 . S
O55 Co42 2.244 . S
O55 C45 1.272 . S
O55 Co47 2.135 . S
Co56 O57 2.216 . S
Co56 O58 2.091 1_565 S
Co56 O60 2.004 1_565 S
Co56 O66 2.021 1_565 S
Co56 O68 2.137 . S
Co56 O69 2.244 . S
O57 Co56 2.216 . S
O57 C64 1.247 . S
O58 Co56 2.091 1_545 S
O58 C64 1.261 1_545 S
C59 O68 1.247 . S
C59 O69 1.272 . S
O60 Co56 2.004 1_545 S
O60 C65 1.259 . S
Co61 O62 2.041 1_565 S
Co61 O67 2.039 1_565 S
Co61 O69 2.143 . S
O62 Co61 2.041 1_545 S
O62 C65 1.235 . S
C63 O66 1.238 . S
C63 O67 1.243 . S
C64 O57 1.247 . S
C64 O58 1.261 1_565 S
C65 O60 1.259 . S
C65 O62 1.235 . S
O66 Co56 2.021 1_545 S
O66 C63 1.238 . S
O67 Co61 2.039 1_545 S
O67 C63 1.243 . S
O68 Co56 2.137 . S
O68 C59 1.247 . S
O69 Co56 2.244 . S
O69 C59 1.272 . S
O69 Co61 2.143 . S
Co70 O71 2.216 . S
Co70 O72 2.102 1_455 S
Co70 O74 2.004 1_455 S
Co70 O80 2.021 1_455 S
Co70 O82 2.137 . S
Co70 O83 2.244 . S
O71 Co70 2.216 . S
O71 C78 1.247 . S
O72 Co70 2.102 1_655 S
O72 C78 1.234 1_655 S
C73 O82 1.247 . S
C73 O83 1.272 . S
O74 Co70 2.004 1_655 S
O74 C79 1.259 . S
Co75 O76 2.061 1_455 S
Co75 O81 2.052 . S
Co75 O83 2.135 . S
O76 Co75 2.061 1_655 S
O76 C79 1.235 . S
C77 O80 1.238 . S
C77 O81 1.241 1_655 S
C78 O71 1.247 . S
C78 O72 1.234 1_455 S
C79 O74 1.259 . S
C79 O76 1.235 . S
O80 Co70 2.021 1_655 S
O80 C77 1.238 . S
O81 Co75 2.052 . S
O81 C77 1.241 1_455 S
O82 Co70 2.137 . S
O82 C73 1.247 . S
O83 Co70 2.244 . S
O83 C73 1.272 . S
O83 Co75 2.135 . S
Co84 O85 2.216 . S
Co84 O86 2.091 . S
Co84 O88 2.004 . S
Co84 O94 2.021 . S
Co84 O96 2.137 . S
Co84 O97 2.244 . S
O85 Co84 2.216 . S
O85 C92 1.247 . S
O86 Co84 2.091 . S
O86 C92 1.261 . S
C87 O96 1.247 . S
C87 O97 1.272 . S
O88 Co84 2.004 . S
O88 C93 1.259 . S
Co89 O90 2.061 . S
Co89 O95 2.052 . S
Co89 O97 2.135 . S
O90 Co89 2.061 . S
O90 C93 1.235 . S
C91 O94 1.238 . S
C91 O95 1.241 . S
C92 O85 1.247 . S
C92 O86 1.261 . S
C93 O88 1.259 . S
C93 O90 1.235 . S
O94 Co84 2.021 . S
O94 C91 1.238 . S
O95 Co89 2.052 . S
O95 C91 1.241 . S
O96 Co84 2.137 . S
O96 C87 1.247 . S
O97 Co84 2.244 . S
O97 C87 1.272 . S
O97 Co89 2.135 . S
Co98 O99 2.216 . S
Co98 O100 2.091 . S
Co98 O102 2.004 . S
Co98 O108 2.021 . S
Co98 O110 2.137 . S
Co98 O111 2.244 . S
O99 Co98 2.216 . S
O99 C106 1.247 . S
O100 Co98 2.091 . S
O100 C106 1.261 . S
C101 O110 1.247 . S
C101 O111 1.272 . S
O102 Co98 2.004 . S
O102 C107 1.259 . S
Co103 O104 2.061 . S
Co103 O109 2.052 . S
Co103 O111 2.135 . S
O104 Co103 2.061 . S
O104 C107 1.235 . S
C105 O108 1.238 . S
C105 O109 1.241 . S
C106 O99 1.247 . S
C106 O100 1.261 . S
C107 O102 1.259 . S
C107 O104 1.235 . S
O108 Co98 2.021 . S
O108 C105 1.238 . S
O109 Co103 2.052 . S
O109 C105 1.241 . S
O110 Co98 2.137 . S
O110 C101 1.247 . S
O111 Co98 2.244 . S
O111 C101 1.272 . S
O111 Co103 2.135 . S
Co112 O113 2.216 . S
Co112 O114 2.091 . S
Co112 O116 2.004 . S
Co112 O122 2.021 . S
Co112 O124 2.137 . S
Co112 O125 2.244 . S
O113 Co112 2.216 . S
O113 C120 1.247 . S
O114 Co112 2.091 . S
O114 C120 1.261 . S
C115 O124 1.247 . S
C115 O125 1.272 . S
O116 Co112 2.004 . S
O116 C121 1.259 . S
Co117 O118 2.061 . S
Co117 O123 2.052 . S
Co117 O125 2.135 . S
O118 Co117 2.061 . S
O118 C121 1.235 . S
C119 O122 1.238 . S
C119 O123 1.241 . S
C120 O113 1.247 . S
C120 O114 1.261 . S
C121 O116 1.259 . S
C121 O118 1.235 . S
O122 Co112 2.021 . S
O122 C119 1.238 . S
O123 Co117 2.052 . S
O123 C119 1.241 . S
O124 Co112 2.137 . S
O124 C115 1.247 . S
O125 Co112 2.244 . S
O125 C115 1.272 . S
O125 Co117 2.135 . S
Co126 O127 2.216 . S
Co126 O128 2.091 . S
Co126 O130 2.004 . S
Co126 O136 2.021 . S
Co126 O138 2.137 . S
Co126 O139 2.244 . S
O127 Co126 2.216 . S
O127 C134 1.247 . S
O128 Co126 2.091 . S
O128 C134 1.261 . S
C129 O138 1.247 . S
C129 O139 1.272 . S
O130 Co126 2.004 . S
O130 C135 1.259 . S
Co131 O132 2.061 . S
Co131 O137 2.052 . S
Co131 O139 2.135 . S
O132 Co131 2.061 . S
O132 C135 1.235 . S
C133 O136 1.238 . S
C133 O137 1.241 . S
C134 O127 1.247 . S
C134 O128 1.261 . S
C135 O130 1.259 . S
C135 O132 1.235 . S
O136 Co126 2.021 . S
O136 C133 1.238 . S
O137 Co131 2.052 . S
O137 C133 1.241 . S
O138 Co126 2.137 . S
O138 C129 1.247 . S
O139 Co126 2.244 . S
O139 C129 1.272 . S
O139 Co131 2.135 . S
Co140 O141 2.216 . S
Co140 O142 2.091 . S
Co140 O144 2.004 . S
Co140 O150 2.021 . S
Co140 O152 2.137 . S
Co140 O153 2.244 . S
O141 Co140 2.216 . S
O141 C148 1.247 . S
O142 Co140 2.091 . S
O142 C148 1.261 . S
C143 O152 1.247 . S
C143 O153 1.272 . S
O144 Co140 2.004 . S
O144 C149 1.259 . S
Co145 O146 2.061 . S
Co145 O151 2.052 . S
Co145 O153 2.135 . S
O146 Co145 2.061 . S
O146 C149 1.235 . S
C147 O150 1.238 . S
C147 O151 1.241 . S
C148 O141 1.247 . S
C148 O142 1.261 . S
C149 O144 1.259 . S
C149 O146 1.235 . S
O150 Co140 2.021 . S
O150 C147 1.238 . S
O151 Co145 2.052 . S
O151 C147 1.241 . S
O152 Co140 2.137 . S
O152 C143 1.247 . S
O153 Co140 2.244 . S
O153 C143 1.272 . S
O153 Co145 2.135 . S
Co154 O155 2.216 . S
Co154 O156 2.091 . S
Co154 O158 2.004 . S
Co154 O164 2.021 . S
Co154 O166 2.137 . S
Co154 O167 2.244 . S
O155 Co154 2.216 . S
O155 C162 1.247 . S
O156 Co154 2.091 . S
O156 C162 1.261 . S
C157 O166 1.247 . S
C157 O167 1.272 . S
O158 Co154 2.004 . S
O158 C163 1.259 . S
Co159 O160 2.061 . S
Co159 O165 2.052 . S
Co159 O167 2.135 . S
O160 Co159 2.061 . S
O160 C163 1.235 . S
C161 O164 1.238 . S
C161 O165 1.241 . S
C162 O155 1.247 . S
C162 O156 1.261 . S
C163 O158 1.259 . S
C163 O160 1.235 . S
O164 Co154 2.021 . S
O164 C161 1.238 . S
O165 Co159 2.052 . S
O165 C161 1.241 . S
O166 Co154 2.137 . S
O166 C157 1.247 . S
O167 Co154 2.244 . S
O167 C157 1.272 . S
O167 Co159 2.135 . S
Co168 O169 2.216 . S
Co168 O170 2.091 . S
Co168 O172 2.004 . S
Co168 O178 2.021 . S
Co168 O180 2.137 . S
Co168 O181 2.244 . S
O169 Co168 2.216 . S
O169 C176 1.247 . S
O170 Co168 2.091 . S
O170 C176 1.261 . S
C171 O180 1.247 . S
C171 O181 1.272 . S
O172 Co168 2.004 . S
O172 C177 1.259 . S
Co173 O174 2.061 . S
Co173 O179 2.052 . S
Co173 O181 2.135 . S
O174 Co173 2.061 . S
O174 C177 1.235 . S
C175 O178 1.238 . S
C175 O179 1.241 . S
C176 O169 1.247 . S
C176 O170 1.261 . S
C177 O172 1.259 . S
C177 O174 1.235 . S
O178 Co168 2.021 . S
O178 C175 1.238 . S
O179 Co173 2.052 . S
O179 C175 1.241 . S
O180 Co168 2.137 . S
O180 C171 1.247 . S
O181 Co168 2.244 . S
O181 C171 1.272 . S
O181 Co173 2.135 . S
Co182 O183 2.216 . S
Co182 O184 2.091 . S
Co182 O186 2.004 . S
Co182 O192 2.021 . S
Co182 O194 2.137 . S
Co182 O195 2.244 . S
O183 Co182 2.216 . S
O183 C190 1.247 . S
O184 Co182 2.091 . S
O184 C190 1.261 . S
C185 O194 1.247 . S
C185 O195 1.272 . S
O186 Co182 2.004 . S
O186 C191 1.259 . S
Co187 O188 2.061 . S
Co187 O193 2.052 . S
Co187 O195 2.135 . S
O188 Co187 2.061 . S
O188 C191 1.235 . S
C189 O192 1.238 . S
C189 O193 1.241 . S
C190 O183 1.247 . S
C190 O184 1.261 . S
C191 O186 1.259 . S
C191 O188 1.235 . S
O192 Co182 2.021 . S
O192 C189 1.238 . S
O193 Co187 2.052 . S
O193 C189 1.241 . S
O194 Co182 2.137 . S
O194 C185 1.247 . S
O195 Co182 2.244 . S
O195 C185 1.272 . S
O195 Co187 2.135 . S
Co196 O197 2.216 . S
Co196 O198 2.091 . S
Co196 O200 2.004 . S
Co196 O206 2.021 . S
Co196 O208 2.137 . S
Co196 O209 2.244 . S
O197 Co196 2.216 . S
O197 C204 1.247 . S
O198 Co196 2.091 . S
O198 C204 1.261 . S
C199 O208 1.247 . S
C199 O209 1.272 . S
O200 Co196 2.004 . S
O200 C205 1.259 . S
Co201 O202 2.061 . S
Co201 O207 2.052 . S
Co201 O209 2.135 . S
O202 Co201 2.061 . S
O202 C205 1.235 . S
C203 O206 1.238 . S
C203 O207 1.241 . S
C204 O197 1.247 . S
C204 O198 1.261 . S
C205 O200 1.259 . S
C205 O202 1.235 . S
O206 Co196 2.021 . S
O206 C203 1.238 . S
O207 Co201 2.052 . S
O207 C203 1.241 . S
O208 Co196 2.137 . S
O208 C199 1.247 . S
O209 Co196 2.244 . S
O209 C199 1.272 . S
O209 Co201 2.135 . S
Co210 O211 2.216 . S
Co210 O212 2.091 . S
Co210 O214 2.004 . S
Co210 O220 2.021 . S
Co210 O222 2.137 . S
Co210 O223 2.244 . S
O211 Co210 2.216 . S
O211 C218 1.247 . S
O212 Co210 2.091 . S
O212 C218 1.261 . S
C213 O222 1.247 . S
C213 O223 1.272 . S
O214 Co210 2.004 . S
O214 C219 1.259 . S
Co215 O216 2.061 . S
Co215 O221 2.052 . S
Co215 O223 2.135 . S
O216 Co215 2.061 . S
O216 C219 1.235 . S
C217 O220 1.238 . S
C217 O221 1.241 . S
C218 O211 1.247 . S
C218 O212 1.261 . S
C219 O214 1.259 . S
C219 O216 1.235 . S
O220 Co210 2.021 . S
O220 C217 1.238 . S
O221 Co215 2.052 . S
O221 C217 1.241 . S
O222 Co210 2.137 . S
O222 C213 1.247 . S
O223 Co210 2.244 . S
O223 C213 1.272 . S
O223 Co215 2.135 . S
Co224 O225 2.216 . S
Co224 O226 2.091 . S
Co224 O228 2.004 . S
Co224 O234 2.021 . S
Co224 O236 2.137 . S
Co224 O237 2.244 . S
O225 Co224 2.216 . S
O225 C232 1.247 . S
O226 Co224 2.091 . S
O226 C232 1.261 . S
C227 O236 1.247 . S
C227 O237 1.272 . S
O228 Co224 2.004 . S
O228 C233 1.259 . S
Co229 O230 2.061 . S
Co229 O235 2.052 . S
Co229 O237 2.135 . S
O230 Co229 2.061 . S
O230 C233 1.235 . S
C231 O234 1.238 . S
C231 O235 1.241 . S
C232 O225 1.247 . S
C232 O226 1.261 . S
C233 O228 1.259 . S
C233 O230 1.235 . S
O234 Co224 2.021 . S
O234 C231 1.238 . S
O235 Co229 2.052 . S
O235 C231 1.241 . S
O236 Co224 2.137 . S
O236 C227 1.247 . S
O237 Co224 2.244 . S
O237 C227 1.272 . S
O237 Co229 2.135 . S
Co238 O239 2.216 . S
Co238 O240 2.091 . S
Co238 O242 2.004 . S
Co238 O248 2.021 . S
Co238 O250 2.137 . S
Co238 O251 2.244 . S
O239 Co238 2.216 . S
O239 C246 1.247 . S
O240 Co238 2.091 . S
O240 C246 1.261 . S
C241 O250 1.247 . S
C241 O251 1.272 . S
O242 Co238 2.004 . S
O242 C247 1.259 . S
Co243 O244 2.061 . S
Co243 O249 2.052 . S
Co243 O251 2.135 . S
O244 Co243 2.061 . S
O244 C247 1.235 . S
C245 O248 1.238 . S
C245 O249 1.241 . S
C246 O239 1.247 . S
C246 O240 1.261 . S
C247 O242 1.259 . S
C247 O244 1.235 . S
O248 Co238 2.021 . S
O248 C245 1.238 . S
O249 Co243 2.052 . S
O249 C245 1.241 . S
O250 Co238 2.137 . S
O250 C241 1.247 . S
O251 Co238 2.244 . S
O251 C241 1.272 . S
O251 Co243 2.135 . S
C252 C253 1.170 . S
C252 C254 1.380 . S
C253 C252 1.170 . S
C254 C252 1.380 . S
C254 C255 1.170 . S
C255 C254 1.170 . S
C256 C257 1.170 . S
C256 C258 1.380 . S
C257 C256 1.170 . S
C258 C256 1.380 . S
C258 C259 1.170 . S
C259 C258 1.170 . S
C260 C261 1.170 . S
C260 C262 1.380 . S
C261 C260 1.170 . S
C262 C260 1.380 . S
C262 C263 1.170 . S
C263 C262 1.170 . S
C264 C265 1.170 . S
C264 C266 1.380 . S
C265 C264 1.170 . S
C266 C264 1.380 . S
C266 C267 1.170 . S
C267 C266 1.170 . S
C268 C269 1.170 . S
C268 C270 1.380 . S
C269 C268 1.170 . S
C270 C268 1.380 . S
C270 C271 1.170 . S
C271 C270 1.170 . S
C272 C273 1.170 . S
C272 C274 1.380 . S
C273 C272 1.170 . S
C274 C272 1.380 . S
C274 C275 1.170 . S
C275 C274 1.170 . S
C276 C277 1.170 . S
C276 C278 1.380 1_655 S
C277 C276 1.170 . S
C278 C276 1.380 1_455 S
C278 C279 1.170 . S
C279 C278 1.170 . S
C280 C281 1.170 . S
C280 C282 1.380 . S
C281 C280 1.170 . S
C282 C280 1.380 . S
C282 C283 1.170 . S
C283 C282 1.170 . S
C284 C285 1.170 . S
C284 C286 1.380 1_545 S
C285 C284 1.170 . S
C286 C284 1.380 1_565 S
C286 C287 1.170 . S
C287 C286 1.170 . S
C288 C289 1.170 . S
C288 C290 1.380 1_455 S
C289 C288 1.170 . S
C290 C288 1.380 1_655 S
C290 C291 1.170 . S
C291 C290 1.170 . S
C292 C293 1.170 . S
C292 C294 1.380 . S
C293 C292 1.170 . S
C294 C292 1.380 . S
C294 C295 1.170 . S
C295 C294 1.170 . S
C296 C297 1.170 . S
C296 C298 1.380 1_545 S
C297 C296 1.170 . S
C298 C296 1.380 1_565 S
C298 C299 1.170 . S
C299 C298 1.170 . S
C300 C301 1.170 . S
C300 C302 1.380 1_565 S
C301 C300 1.170 . S
C302 C300 1.380 1_545 S
C302 C303 1.170 . S
C303 C302 1.170 . S
C304 C305 1.170 . S
C304 C306 1.380 1_455 S
C305 C304 1.170 . S
C306 C304 1.380 1_655 S
C306 C307 1.170 . S
C307 C306 1.170 . S
C308 C309 1.170 . S
C308 C310 1.380 . S
C309 C308 1.170 . S
C310 C308 1.380 . S
C310 C311 1.170 . S
C311 C310 1.170 . S
C312 C313 1.170 . S
C312 C314 1.380 . S
C313 C312 1.170 . S
C314 C312 1.380 . S
C314 C315 1.170 . S
C315 C314 1.170 . S
C316 C317 1.170 . S
C316 C318 1.380 . S
C317 C316 1.170 . S
C318 C316 1.380 . S
C318 C319 1.170 . S
C319 C318 1.170 . S
C320 C321 1.170 . S
C320 C322 1.380 . S
C321 C320 1.170 . S
C322 C320 1.380 . S
C322 C323 1.170 . S
C323 C322 1.170 . S
C324 C325 1.170 . S
C324 C326 1.380 . S
C325 C324 1.170 . S
C326 C324 1.380 . S
C326 C327 1.170 . S
C327 C326 1.170 . S
C328 C329 1.170 . S
C328 C330 1.380 . S
C329 C328 1.170 . S
C330 C328 1.380 . S
C330 C331 1.170 . S
C331 C330 1.170 . S
C332 C333 1.170 . S
C332 C334 1.380 . S
C333 C332 1.170 . S
C334 C332 1.380 . S
C334 C335 1.170 . S
C335 C334 1.170 . S
C336 C337 1.170 . S
C336 C338 1.380 . S
C337 C336 1.170 . S
C338 C336 1.380 . S
C338 C339 1.170 . S
C339 C338 1.170 . S
C340 C341 1.170 . S
C340 C342 1.380 . S
C341 C340 1.170 . S
C342 C340 1.380 . S
C342 C343 1.170 . S
C343 C342 1.170 . S
C344 C345 1.170 . S
C344 C346 1.380 . S
C345 C344 1.170 . S
C346 C344 1.380 . S
C346 C347 1.170 . S
C347 C346 1.170 . S
C348 C349 1.170 . S
C348 C350 1.380 . S
C349 C348 1.170 . S
C350 C348 1.380 . S
C350 C351 1.170 . S
C351 C350 1.170 . S
C352 C353 1.170 . S
C352 C354 1.380 . S
C353 C352 1.170 . S
C354 C352 1.380 . S
C354 C355 1.170 . S
C355 C354 1.170 . S
C356 C357 1.170 . S
C356 C358 1.380 . S
C357 C356 1.170 . S
C358 C356 1.380 . S
C358 C359 1.170 . S
C359 C358 1.170 . S
C360 C361 1.170 . S
C360 C362 1.380 1_554 S
C361 C360 1.170 . S
C362 C360 1.380 1_556 S
C362 C363 1.170 . S
C363 C362 1.170 . S
C364 C365 1.175 . S
C364 C366 1.377 1_546 S
C365 C364 1.175 . S
C366 C364 1.377 1_564 S
C366 C367 1.170 . S
C367 C366 1.170 . S
C368 C369 1.170 . S
C368 C370 1.380 1_656 S
C369 C368 1.170 . S
C370 C368 1.380 1_454 S
C370 C371 1.170 . S
C371 C370 1.170 . S
C372 C373 1.170 . S
C372 C374 1.380 . S
C373 C372 1.170 . S
C374 C372 1.380 . S
C374 C375 1.170 . S
C375 C374 1.170 . S
C376 C377 1.170 . S
C376 C378 1.380 . S
C377 C376 1.170 . S
C378 C376 1.380 . S
C378 C379 1.170 . S
C379 C378 1.170 . S
C380 C381 1.170 . S
C380 C382 1.380 . S
C381 C380 1.170 . S
C382 C380 1.380 . S
C382 C383 1.170 . S
C383 C382 1.170 . S
C384 C385 1.170 . S
C384 C386 1.380 . S
C385 C384 1.170 . S
C386 C384 1.380 . S
C386 C387 1.170 . S
C387 C386 1.170 . S
C388 C389 1.170 . S
C388 C390 1.380 . S
C389 C388 1.170 . S
C390 C388 1.380 . S
C390 C391 1.170 . S
C391 C390 1.170 . S
C392 C393 1.170 . S
C392 C394 1.380 . S
C393 C392 1.170 . S
C394 C392 1.380 . S
C394 C395 1.170 . S
C395 C394 1.170 . S
C253 C148 1.287 . S
C255 C8 1.279 . S
C257 C22 1.259 . S
C259 C162 1.277 . S
C261 C134 1.283 . S
C263 C36 1.284 . S
C265 C204 1.262 . S
C267 C50 1.285 . S
C269 C64 1.288 . S
C271 C176 1.266 . S
C273 C190 1.288 . S
C275 C78 1.275 . S
C277 C92 1.286 . S
C279 C232 1.263 . S
C281 C246 1.262 . S
C283 C106 1.268 . S
C285 C120 1.259 . S
C287 C218 1.277 . S
C289 C9 1.152 . S
C291 C17 1.246 . S
C293 C23 1.120 . S
C295 C31 1.232 . S
C297 C3 1.225 . S
C299 C37 1.110 . S
C301 C73 1.225 . S
C303 C51 1.111 . S
C305 C45 1.226 . S
C307 C65 1.110 . S
C309 C79 1.110 . S
C311 C59 1.225 . S
C313 C93 1.142 . S
C315 C101 1.242 . S
C317 C107 1.116 . S
C319 C115 1.225 . S
C321 C87 1.251 . S
C323 C121 1.167 . S
C325 C157 1.225 . S
C327 C135 1.109 . S
C329 C129 1.227 . S
C331 C149 1.111 . S
C333 C143 1.236 . S
C335 C163 1.147 . S
C337 C185 1.232 . S
C339 C177 1.136 . S
C341 C199 1.254 . S
C343 C191 1.178 . S
C345 C171 1.228 . S
C347 C205 1.112 . S
C349 C219 1.116 . S
C351 C241 1.226 . S
C353 C233 1.157 . S
C355 C213 1.240 . S
C357 C247 1.126 . S
C359 C227 1.235 . S
C361 C7 1.608 . S
C363 C49 1.583 . S
C365 C63 1.591 . S
C367 C21 1.623 . S
C369 C77 1.629 . S
C371 C35 1.602 . S
C373 C133 1.630 . S
C375 C91 1.605 . S
C377 C147 1.612 . S
C379 C105 1.630 . S
C381 C119 1.583 . S
C383 C161 1.597 . S
C385 C217 1.627 . S
C387 C175 1.622 . S
C389 C231 1.616 . S
C391 C189 1.586 . S
C393 C245 1.626 . S
C395 C203 1.596 . S
