# Generated by pormake.
# Topology uob, (4)-cn, num edge types: 1
# Building blocks:
#     Node 0, Type 0, BuildingBlock: KOZSID_clean_sbu_0, # of connection points: 4
#     Node 1, Type 0, BuildingBlock: KOZSID_clean_sbu_0, # of connection points: 4
#     Node 2, Type 0, BuildingBlock: KOZSID_clean_sbu_0, # of connection points: 4
#     Node 3, Type 0, BuildingBlock: KOZSID_clean_sbu_0, # of connection points: 4
#     Node 4, Type 0, BuildingBlock: KOZSID_clean_sbu_0, # of connection points: 4
#     Node 5, Type 0, BuildingBlock: KOZSID_clean_sbu_0, # of connection points: 4
#     Node 6, Type 0, BuildingBlock: KOZSID_clean_sbu_0, # of connection points: 4
#     Node 7, Type 0, BuildingBlock: KOZSID_clean_sbu_0, # of connection points: 4
#     Node 8, Type 0, BuildingBlock: KOZSID_clean_sbu_0, # of connection points: 4
#     Node 9, Type 0, BuildingBlock: KOZSID_clean_sbu_0, # of connection points: 4
#     Node 10, Type 0, BuildingBlock: KOZSID_clean_sbu_0, # of connection points: 4
#     Node 11, Type 0, BuildingBlock: KOZSID_clean_sbu_0, # of connection points: 4
#     Node 12, Type 0, BuildingBlock: KOZSID_clean_sbu_0, # of connection points: 4
#     Node 13, Type 0, BuildingBlock: KOZSID_clean_sbu_0, # of connection points: 4
#     Node 14, Type 0, BuildingBlock: KOZSID_clean_sbu_0, # of connection points: 4
#     Node 15, Type 0, BuildingBlock: KOZSID_clean_sbu_0, # of connection points: 4
#     Edge 16, Type (0, 0), BuildingBlock: XUDNAN_clean_linker_2, # of connection points: 2
#     Edge 17, Type (0, 0), BuildingBlock: XUDNAN_clean_linker_2, # of connection points: 2
#     Edge 18, Type (0, 0), BuildingBlock: XUDNAN_clean_linker_2, # of connection points: 2
#     Edge 19, Type (0, 0), BuildingBlock: XUDNAN_clean_linker_2, # of connection points: 2
#     Edge 20, Type (0, 0), BuildingBlock: XUDNAN_clean_linker_2, # of connection points: 2
#     Edge 21, Type (0, 0), BuildingBlock: XUDNAN_clean_linker_2, # of connection points: 2
#     Edge 22, Type (0, 0), BuildingBlock: XUDNAN_clean_linker_2, # of connection points: 2
#     Edge 23, Type (0, 0), BuildingBlock: XUDNAN_clean_linker_2, # of connection points: 2
#     Edge 24, Type (0, 0), BuildingBlock: XUDNAN_clean_linker_2, # of connection points: 2
#     Edge 25, Type (0, 0), BuildingBlock: XUDNAN_clean_linker_2, # of connection points: 2
#     Edge 26, Type (0, 0), BuildingBlock: XUDNAN_clean_linker_2, # of connection points: 2
#     Edge 27, Type (0, 0), BuildingBlock: XUDNAN_clean_linker_2, # of connection points: 2
#     Edge 28, Type (0, 0), BuildingBlock: XUDNAN_clean_linker_2, # of connection points: 2
#     Edge 29, Type (0, 0), BuildingBlock: XUDNAN_clean_linker_2, # of connection points: 2
#     Edge 30, Type (0, 0), BuildingBlock: XUDNAN_clean_linker_2, # of connection points: 2
#     Edge 31, Type (0, 0), BuildingBlock: XUDNAN_clean_linker_2, # of connection points: 2
#     Edge 32, Type (0, 0), BuildingBlock: XUDNAN_clean_linker_2, # of connection points: 2
#     Edge 33, Type (0, 0), BuildingBlock: XUDNAN_clean_linker_2, # of connection points: 2
#     Edge 34, Type (0, 0), BuildingBlock: XUDNAN_clean_linker_2, # of connection points: 2
#     Edge 35, Type (0, 0), BuildingBlock: XUDNAN_clean_linker_2, # of connection points: 2
#     Edge 36, Type (0, 0), BuildingBlock: XUDNAN_clean_linker_2, # of connection points: 2
#     Edge 37, Type (0, 0), BuildingBlock: XUDNAN_clean_linker_2, # of connection points: 2
#     Edge 38, Type (0, 0), BuildingBlock: XUDNAN_clean_linker_2, # of connection points: 2
#     Edge 39, Type (0, 0), BuildingBlock: XUDNAN_clean_linker_2, # of connection points: 2
#     Edge 40, Type (0, 0), BuildingBlock: XUDNAN_clean_linker_2, # of connection points: 2
#     Edge 41, Type (0, 0), BuildingBlock: XUDNAN_clean_linker_2, # of connection points: 2
#     Edge 42, Type (0, 0), BuildingBlock: XUDNAN_clean_linker_2, # of connection points: 2
#     Edge 43, Type (0, 0), BuildingBlock: XUDNAN_clean_linker_2, # of connection points: 2
#     Edge 44, Type (0, 0), BuildingBlock: XUDNAN_clean_linker_2, # of connection points: 2
#     Edge 45, Type (0, 0), BuildingBlock: XUDNAN_clean_linker_2, # of connection points: 2
#     Edge 46, Type (0, 0), BuildingBlock: XUDNAN_clean_linker_2, # of connection points: 2
#     Edge 47, Type (0, 0), BuildingBlock: XUDNAN_clean_linker_2, # of connection points: 2
# Relax obj value: 0.100
# Max RMSD: 0.277
# Mean RMSD: 0.244
data_MOF--net-uob--node1-KOZSID_clean_sbu_0--edge1-XUDNAN_clean_linker_2
_symmetry_space_group_name_H-M    P1
_symmetry_Int_Tables_number       1
_symmetry_cell_setting            triclinic
loop_
_symmetry_equiv_pos_as_xyz
'x, y, z'
_cell_length_a     55.936667
_cell_length_b     69.912594
_cell_length_c     34.233796
_cell_angle_alpha  89.935766
_cell_angle_beta   89.999474
_cell_angle_gamma 89.99208
loop_
_atom_site_label
_atom_site_type_symbol
_atom_site_fract_x
_atom_site_fract_y
_atom_site_fract_z
_atom_type_partial_charge
C0 C 0.18969 0.07549 0.32597 0.0
C1 C 0.20988 0.06398 0.32459 0.0
C2 C 0.20301 0.0471 0.30746 0.0
C3 C 0.17909 0.04921 0.29933 0.0
N4 N 0.17064 0.06643 0.30998 0.0
Co5 Co 0.13708 0.07511 0.30545 0.0
N6 N 0.12518 0.04844 0.30468 0.0
C7 C 0.13826 0.03289 0.29574 0.0
C8 C 0.12519 0.01628 0.29683 0.0
C9 C 0.10243 0.02179 0.30667 0.0
C10 C 0.10289 0.04154 0.31101 0.0
N11 N 0.10354 0.0837 0.3 0.0
C12 C 0.08284 0.07386 0.30541 0.0
C13 C 0.06336 0.08537 0.29678 0.0
C14 C 0.07238 0.10289 0.28538 0.0
C15 C 0.09687 0.10116 0.28753 0.0
N16 N 0.14983 0.10147 0.30789 0.0
C17 C 0.13833 0.11727 0.29583 0.0
C18 C 0.1511 0.13361 0.3043 0.0
C19 C 0.1717 0.12753 0.32292 0.0
C20 C 0.17044 0.10777 0.32496 0.0
N21 N 0.13885 0.07539 0.24718 0.0
C22 C 0.13086 0.08385 0.16667 0.0
C23 C 0.15054 0.09157 0.18709 0.0
C24 C 0.15438 0.08699 0.22704 0.0
C25 C 0.11628 0.07104 0.18738 0.0
C26 C 0.12059 0.06697 0.22677 0.0
N27 N 0.1338 0.07594 0.36258 0.0
C28 C 0.1194 0.09415 0.41719 0.0
C29 C 0.13011 0.08159 0.44344 0.0
C30 C 0.14195 0.0654 0.4286 0.0
C31 C 0.1435 0.06277 0.38767 0.0
C32 C 0.12168 0.09125 0.37751 0.0
H33 H 0.15297 0.0505 0.37632 0.0
H34 H 0.11412 0.10204 0.35904 0.0
H35 H 0.16923 0.09359 0.24204 0.0
H36 H 0.1077 0.05802 0.24119 0.0
C37 C 0.16317 0.03417 0.29194 0.0
C38 C 0.18918 0.09505 0.34166 0.0
C39 C 0.08144 0.05341 0.31629 0.0
C40 C 0.11388 0.11616 0.28527 0.0
H41 H 0.22756 0.06726 0.33554 0.0
H42 H 0.21378 0.03434 0.30409 0.0
H43 H 0.13152 1.00185 0.29195 0.0
H44 H 0.08716 1.01238 0.30936 0.0
H45 H 0.04466 0.08148 0.29837 0.0
H46 H 0.06224 0.11555 0.27786 0.0
H47 H 0.14551 0.14826 0.29972 0.0
H48 H 0.18582 0.13657 0.33417 0.0
H49 H 0.16273 0.10127 0.17256 0.0
H50 H 0.10062 0.06478 0.17394 0.0
H51 H 0.1099 0.10672 0.42732 0.0
H52 H 0.15048 0.05532 0.44817 0.0
C53 C 0.89878 0.63516 0.49076 0.0
C54 C 0.87586 0.63353 0.47569 0.0
C55 C 0.86066 0.63293 0.50713 0.0
C56 C 0.87511 0.63418 0.53949 0.0
N57 N 0.89841 0.63557 0.53031 0.0
Co58 Co 0.92529 0.63745 0.56783 0.0
N59 N 0.90584 0.62602 0.60996 0.0
C60 C 0.88178 0.62509 0.61081 0.0
C61 C 0.87323 0.61598 0.64343 0.0
C62 C 0.89312 0.61105 0.66449 0.0
C63 C 0.91284 0.61762 0.64359 0.0
N64 N 0.95204 0.63937 0.60515 0.0
C65 C 0.95517 0.63043 0.63999 0.0
C66 C 0.97636 0.6363 0.65724 0.0
C67 C 0.98662 0.64939 0.63215 0.0
C68 C 0.97116 0.65085 0.60102 0.0
N69 N 0.944 0.64883 0.52451 0.0
C70 C 0.9639 0.65941 0.52849 0.0
C71 C 0.97379 0.66401 0.4928 0.0
C72 C 0.95913 0.65574 0.46506 0.0
C73 C 0.94111 0.64648 0.48531 0.0
N74 N 0.91485 0.66357 0.58503 0.0
C75 C 0.91072 0.70219 0.61234 0.0
C76 C 0.9093 0.6975 0.57215 0.0
C77 C 0.91128 0.67829 0.55922 0.0
C78 C 0.91272 0.6867 0.63826 0.0
C79 C 0.91469 0.6678 0.62425 0.0
N80 N 0.9375 0.61169 0.55303 0.0
C81 C 0.97319 0.59271 0.5431 0.0
C82 C 0.96109 0.57579 0.55194 0.0
C83 C 0.93623 0.577 0.55812 0.0
C84 C 0.92473 0.59512 0.55829 0.0
C85 C 0.9613 0.61024 0.54389 0.0
H86 H 0.90587 0.59578 0.56498 0.0
H87 H 0.9722 0.62271 0.54001 0.0
H88 H 0.91093 0.67544 0.5282 0.0
H89 H 0.91747 0.65672 0.64563 0.0
C90 C 0.86826 0.62979 0.57775 0.0
C91 C 0.92051 0.63667 0.46707 0.0
C92 C 0.93755 0.61747 0.6583 0.0
C93 C 0.97546 0.66031 0.56515 0.0
H94 H 0.87067 0.63265 0.44531 0.0
H95 H 0.84152 0.63069 0.50645 0.0
H96 H 0.85482 0.61264 0.65038 0.0
H97 H 0.89299 0.60365 0.69226 0.0
H98 H 0.98353 0.6317 0.68508 0.0
H99 H 1.00367 0.65649 0.6357 0.0
H100 H 0.99046 0.67143 0.48752 0.0
H101 H 0.96146 0.65633 0.4337 0.0
H102 H 0.9071 0.70863 0.55046 0.0
H103 H 0.91404 0.68911 0.66941 0.0
H104 H 0.99229 0.59257 0.53781 0.0
H105 H 0.92605 0.56427 0.56501 0.0
C106 C 0.32685 0.45006 0.82474 0.0
C107 C 0.30624 0.46106 0.82214 0.0
C108 C 0.31224 0.4773 0.80183 0.0
C109 C 0.3361 0.47538 0.79318 0.0
N110 N 0.34539 0.45889 0.80666 0.0
Co111 Co 0.37923 0.45086 0.80183 0.0
N112 N 0.39003 0.47758 0.79436 0.0
C113 C 0.37616 0.49232 0.78314 0.0
C114 C 0.38857 0.5092 0.7802 0.0
C115 C 0.41172 0.50474 0.78989 0.0
C116 C 0.41214 0.48528 0.7981 0.0
N117 N 0.41298 0.44293 0.79572 0.0
C118 C 0.43333 0.45344 0.79865 0.0
C119 C 0.45317 0.44208 0.79154 0.0
C120 C 0.44473 0.42392 0.78387 0.0
C121 C 0.42021 0.42513 0.78654 0.0
N122 N 0.36782 0.42442 0.81092 0.0
C123 C 0.37987 0.40845 0.80162 0.0
C124 C 0.36791 0.39223 0.81354 0.0
C125 C 0.34721 0.39857 0.8314 0.0
C126 C 0.34761 0.41836 0.82956 0.0
N127 N 0.37581 0.44754 0.74426 0.0
C128 C 0.38151 0.43334 0.6671 0.0
C129 C 0.36251 0.42727 0.69111 0.0
C130 C 0.35968 0.43481 0.72909 0.0
C131 C 0.39614 0.44799 0.68153 0.0
C132 C 0.39311 0.45478 0.71989 0.0
N133 N 0.38386 0.45296 0.85868 0.0
C134 C 0.40005 0.43774 0.9159 0.0
C135 C 0.38698 0.44974 0.94016 0.0
C136 C 0.37319 0.46434 0.9231 0.0
C137 C 0.37217 0.4659 0.88191 0.0
C138 C 0.39794 0.43932 0.87584 0.0
H139 H 0.36116 0.4769 0.86895 0.0
H140 H 0.40679 0.4285 0.85913 0.0
H141 H 0.34538 0.42932 0.74709 0.0
H142 H 0.40616 0.4648 0.7306 0.0
C143 C 0.35125 0.4903 0.7816 0.0
C144 C 0.32814 0.43115 0.84355 0.0
C145 C 0.43401 0.47427 0.80578 0.0
C146 C 0.40393 0.40966 0.789 0.0
H147 H 0.28881 0.4579 0.83425 0.0
H148 H 0.30094 0.48958 0.79641 0.0
H149 H 0.38153 0.5232 0.7731 0.0
H150 H 0.42658 0.51464 0.79031 0.0
H151 H 0.47172 0.44648 0.79188 0.0
H152 H 0.45531 0.4112 0.77878 0.0
H153 H 0.374 0.37758 0.81132 0.0
H154 H 0.3335 0.3897 0.84443 0.0
H155 H 0.35035 0.41627 0.68111 0.0
H156 H 0.41101 0.45325 0.66434 0.0
H157 H 0.41075 0.42621 0.92794 0.0
H158 H 0.36266 0.47385 0.94115 0.0
C159 C 0.61491 0.89118 0.98619 0.0
C160 C 0.63735 0.89226 0.96898 0.0
C161 C 0.65353 0.89378 0.99883 0.0
C162 C 0.64015 0.89347 0.03246 0.0
N163 N 0.61657 0.89168 0.02564 0.0
Co164 Co 0.59099 0.89077 0.06573 0.0
N165 N 0.61175 0.9038 0.10443 0.0
C166 C 0.63567 0.90585 0.10191 0.0
C167 C 0.64513 0.91643 0.13179 0.0
C168 C 0.62609 0.92103 0.15498 0.0
C169 C 0.60591 0.91275 0.13813 0.0
N170 N 0.5657 0.88947 0.10603 0.0
C171 C 0.56472 0.89752 0.1421 0.0
C172 C 0.54452 0.89138 0.16201 0.0
C173 C 0.53271 0.87893 0.13765 0.0
C174 C 0.5463 0.8781 0.10426 0.0
N175 N 0.57067 0.87865 0.02514 0.0
C176 C 0.55051 0.86872 0.03172 0.0
C177 C 0.53951 0.86325 0.99754 0.0
C178 C 0.55364 0.8703 0.96781 0.0
C179 C 0.57257 0.87971 0.98546 0.0
N180 N 0.60202 0.86489 0.08501 0.0
C181 C 0.60433 0.82809 0.12231 0.0
C182 C 0.60082 0.82989 0.0816 0.0
C183 C 0.59994 0.84832 0.06355 0.0
C184 C 0.60889 0.84513 0.14255 0.0
C185 C 0.60751 0.86297 0.12391 0.0
N186 N 0.57853 0.91612 0.04925 0.0
C187 C 0.54384 0.93675 0.04294 0.0
C188 C 0.55811 0.95322 0.04373 0.0
C189 C 0.58311 0.95048 0.04441 0.0
C190 C 0.59292 0.93191 0.04687 0.0
C191 C 0.55429 0.91855 0.04567 0.0
H192 H 0.61209 0.93039 0.04869 0.0
H193 H 0.54242 0.90648 0.04711 0.0
H194 H 0.59636 0.84904 0.03259 0.0
H195 H 0.60941 0.87516 0.14248 0.0
C196 C 0.64813 0.89982 0.06879 0.0
C197 C 0.59254 0.8891 0.96437 0.0
C198 C 0.58337 0.90979 0.15949 0.0
C199 C 0.54038 0.86848 0.06938 0.0
H200 H 0.64154 0.89231 0.93812 0.0
H201 H 0.67257 0.89621 0.99616 0.0
H202 H 0.66362 0.92052 0.13601 0.0
H203 H 0.62722 0.9287 0.18235 0.0
H204 H 0.53912 0.89531 0.19129 0.0
H205 H 0.51605 0.87159 0.14346 0.0
H206 H 0.52253 0.85598 0.99447 0.0
H207 H 0.55021 0.86894 0.93684 0.0
H208 H 0.59756 0.81729 0.06406 0.0
H209 H 0.61257 0.84488 0.17362 0.0
H210 H 0.52454 0.93783 0.04255 0.0
H211 H 0.59511 0.96263 0.04406 0.0
C212 C 0.18897 0.45293 0.03754 0.0
C213 C 0.20849 0.46526 0.0367 0.0
C214 C 0.20186 0.48153 0.0561 0.0
C215 C 0.17861 0.47859 0.06713 0.0
N216 N 0.17021 0.46139 0.05597 0.0
Co217 Co 0.13677 0.45244 0.06272 0.0
N218 N 0.12468 0.47893 0.0682 0.0
C219 C 0.13788 0.49431 0.07769 0.0
C220 C 0.12468 0.51084 0.07957 0.0
C221 C 0.10169 0.50546 0.07101 0.0
C222 C 0.10218 0.48586 0.0645 0.0
N223 N 0.10349 0.44362 0.07078 0.0
C224 C 0.0826 0.45342 0.06761 0.0
C225 C 0.06343 0.44164 0.07651 0.0
C226 C 0.07287 0.42393 0.08558 0.0
C227 C 0.09727 0.42584 0.0819 0.0
N228 N 0.14935 0.42624 0.05547 0.0
C229 C 0.13817 0.41011 0.06651 0.0
C230 C 0.1506 0.39404 0.05517 0.0
C231 C 0.17067 0.40063 0.03585 0.0
C232 C 0.16946 0.42042 0.03624 0.0
N233 N 0.14097 0.45037 0.1204 0.0
C234 C 0.13559 0.43678 0.1981 0.0
C235 C 0.15479 0.43083 0.17441 0.0
C236 C 0.15747 0.43809 0.13614 0.0
C237 C 0.12069 0.45113 0.18315 0.0
C238 C 0.12358 0.45763 0.14455 0.0
N239 N 0.13123 0.45321 1.00591 0.0
C240 C 0.11437 0.43642 0.9512 0.0
C241 C 0.12595 0.44845 0.92498 0.0
C242 C 0.13926 0.46388 0.93988 0.0
C243 C 0.14147 0.46615 0.98087 0.0
C244 C 0.11761 0.43874 0.99083 0.0
H245 H 0.15212 0.47778 0.9922 0.0
H246 H 0.10988 0.42789 1.00892 0.0
H247 H 0.17188 0.43264 0.11835 0.0
H248 H 0.11025 0.46732 0.13346 0.0
C249 C 0.16282 0.49314 0.07814 0.0
C250 C 0.18851 0.43336 0.02104 0.0
C251 C 0.08082 0.47403 0.05849 0.0
C252 C 0.11427 0.41085 0.0801 0.0
H253 H 0.22554 0.46339 0.02254 0.0
H254 H 0.21216 0.49457 0.05883 0.0
H255 H 0.13109 0.52518 0.08513 0.0
H256 H 0.08634 0.51487 0.07019 0.0
H257 H 0.04468 0.44545 0.07641 0.0
H258 H 0.063 0.41102 0.09221 0.0
H259 H 0.14521 0.37928 0.05877 0.0
H260 H 0.18458 0.39192 0.02298 0.0
H261 H 0.16719 0.42008 0.18485 0.0
H262 H 0.10566 0.4563 0.20006 0.0
H263 H 0.10387 0.42438 0.941 0.0
H264 H 0.14855 0.47353 0.92033 0.0
C265 C 0.61445 0.63192 0.37759 0.0
C266 C 0.63736 0.6298 0.39263 0.0
C267 C 0.65251 0.62858 0.36125 0.0
C268 C 0.6381 0.63005 0.3289 0.0
N269 N 0.61486 0.63214 0.33799 0.0
Co270 Co 0.58819 0.63466 0.30021 0.0
N271 N 0.60726 0.62255 0.2584 0.0
C272 C 0.63127 0.62105 0.25767 0.0
C273 C 0.63955 0.61166 0.22524 0.0
C274 C 0.61954 0.60715 0.20415 0.0
C275 C 0.60003 0.61422 0.22486 0.0
N276 N 0.56162 0.63706 0.2626 0.0
C277 C 0.55823 0.62805 0.22792 0.0
C278 C 0.53732 0.63438 0.21038 0.0
C279 C 0.52751 0.64783 0.23508 0.0
C280 C 0.54295 0.64903 0.26628 0.0
N281 N 0.5699 0.64685 0.34313 0.0
C282 C 0.55054 0.65802 0.33844 0.0
C283 C 0.5412 0.66386 0.37366 0.0
C284 C 0.55566 0.65587 0.40196 0.0
C285 C 0.57312 0.64552 0.38252 0.0
N286 N 0.59968 0.66044 0.2825 0.0
C287 C 0.60412 0.69899 0.25471 0.0
C288 C 0.60575 0.69434 0.29491 0.0
C289 C 0.60363 0.67517 0.30807 0.0
C290 C 0.60195 0.68346 0.22897 0.0
C291 C 0.59984 0.6646 0.24322 0.0
N292 N 0.57499 0.60931 0.31554 0.0
C293 C 0.53868 0.59122 0.32607 0.0
C294 C 0.55014 0.57395 0.31753 0.0
C295 C 0.57504 0.57458 0.31133 0.0
C296 C 0.58717 0.59242 0.31067 0.0
C297 C 0.55118 0.60847 0.32478 0.0
H298 H 0.60604 0.59261 0.304 0.0
H299 H 0.54078 0.62123 0.32848 0.0
H300 H 0.60409 0.67239 0.33912 0.0
H301 H 0.59685 0.65349 0.22201 0.0
C302 C 0.64486 0.62546 0.29074 0.0
C303 C 0.59307 0.6351 0.40164 0.0
C304 C 0.57538 0.61461 0.20997 0.0
C305 C 0.53904 0.65888 0.30174 0.0
H306 H 0.64258 0.62921 0.42305 0.0
H307 H 0.67157 0.62594 0.36199 0.0
H308 H 0.65785 0.60787 0.21845 0.0
H309 H 0.61947 0.59969 0.17648 0.0
H310 H 0.53006 0.62986 0.18258 0.0
H311 H 0.51079 0.65538 0.23121 0.0
H312 H 0.52502 0.67203 0.37839 0.0
H313 H 0.55342 0.65729 0.43321 0.0
H314 H 0.60813 0.70549 0.31645 0.0
H315 H 0.60053 0.68585 0.19781 0.0
H316 H 0.51962 0.59156 0.33168 0.0
H317 H 0.58478 0.56158 0.30482 0.0
C318 C 0.3285 0.07277 0.53495 0.0
C319 C 0.30952 0.05995 0.53312 0.0
C320 C 0.31728 0.04317 0.54949 0.0
C321 C 0.34059 0.04639 0.55989 0.0
N322 N 0.34792 0.06425 0.55134 0.0
Co323 Co 0.38095 0.07408 0.55808 0.0
N324 N 0.39454 0.04788 0.55769 0.0
C325 C 0.38228 0.03168 0.56463 0.0
C326 C 0.3963 0.0156 0.56296 0.0
C327 C 0.41888 0.02212 0.55491 0.0
C328 C 0.41735 0.04193 0.55224 0.0
N329 N 0.41386 0.08381 0.56588 0.0
C330 C 0.43525 0.07484 0.56133 0.0
C331 C 0.4538 0.08691 0.57196 0.0
C332 C 0.44348 0.10388 0.58374 0.0
C333 C 0.41921 0.10128 0.57984 0.0
N334 N 0.36668 0.09996 0.55653 0.0
C335 C 0.37707 0.11597 0.56999 0.0
C336 C 0.36365 0.13198 0.56152 0.0
C337 C 0.34381 0.12548 0.54145 0.0
C338 C 0.34615 0.10581 0.53853 0.0
N339 N 0.37816 0.07334 0.61623 0.0
C340 C 0.38516 0.08129 0.69712 0.0
C341 C 0.36543 0.08879 0.67648 0.0
C342 C 0.36207 0.08443 0.63634 0.0
C343 C 0.40024 0.06886 0.67648 0.0
C344 C 0.39643 0.06504 0.6369 0.0
N345 N 0.38531 0.07603 0.50122 0.0
C346 C 0.40026 0.09558 0.44893 0.0
C347 C 0.39128 0.08303 0.42104 0.0
C348 C 0.38002 0.06616 0.43401 0.0
C349 C 0.37726 0.06288 0.47462 0.0
C350 C 0.39683 0.09203 0.48814 0.0
H351 H 0.36829 0.05006 0.4845 0.0
H352 H 0.40315 0.10281 0.50776 0.0
H353 H 0.34716 0.09088 0.62119 0.0
H354 H 0.40976 0.05649 0.62263 0.0
C355 C 0.35734 0.03195 0.56698 0.0
C356 C 0.32791 0.09282 0.52115 0.0
C357 C 0.43821 0.05463 0.54957 0.0
C358 C 0.4013 0.11558 0.58195 0.0
H359 H 0.29212 0.06187 0.52016 0.0
H360 H 0.30767 0.02974 0.55043 0.0
H361 H 0.39072 1.00086 0.56626 0.0
H362 H 0.43471 0.01332 0.55231 0.0
H363 H 0.47273 0.08373 0.57148 0.0
H364 H 0.45267 0.11677 0.59274 0.0
H365 H 0.36833 0.14674 0.5672 0.0
H366 H 0.32939 0.13417 0.53008 0.0
H367 H 0.35286 0.09817 0.69098 0.0
H368 H 0.41595 0.06278 0.69015 0.0
H369 H 0.40943 0.10861 0.44045 0.0
H370 H 0.37289 0.056 0.4132 0.0
C371 C 0.90038 0.89442 0.88107 0.0
C372 C 0.87782 0.89702 0.89701 0.0
C373 C 0.86256 0.89978 0.86622 0.0
C374 C 0.87663 0.89873 0.8334 0.0
N375 N 0.89975 0.8953 0.84159 0.0
Co376 Co 0.92614 0.89279 0.80313 0.0
N377 N 0.90763 0.90701 0.76306 0.0
C378 C 0.884 0.9108 0.76432 0.0
C379 C 0.87628 0.92178 0.73369 0.0
C380 C 0.89614 0.9248 0.7113 0.0
C381 C 0.91504 0.91525 0.72937 0.0
N382 N 0.95218 0.88977 0.76457 0.0
C383 C 0.95465 0.8974 0.72828 0.0
C384 C 0.97465 0.88993 0.70981 0.0
C385 C 0.98475 0.87703 0.73526 0.0
C386 C 0.97041 0.87727 0.76784 0.0
N387 N 0.94426 0.87953 0.84513 0.0
C388 C 0.96358 0.86838 0.84016 0.0
C389 C 0.97351 0.86288 0.87525 0.0
C390 C 0.95958 0.87122 0.90381 0.0
C391 C 0.94192 0.8814 0.88457 0.0
N392 N 0.91317 0.86757 0.78335 0.0
C393 C 0.91005 0.83107 0.7451 0.0
C394 C 0.9132 0.83252 0.78592 0.0
C395 C 0.91441 0.8508 0.80443 0.0
C396 C 0.90594 0.84832 0.72525 0.0
C397 C 0.90768 0.86601 0.74436 0.0
N398 N 0.94084 0.9174 0.82008 0.0
C399 C 0.97809 0.9344 0.82952 0.0
C400 C 0.96706 0.95215 0.82389 0.0
C401 C 0.94197 0.95221 0.82002 0.0
C402 C 0.92917 0.93468 0.81846 0.0
C403 C 0.96493 0.91749 0.82728 0.0
H404 H 0.91011 0.93513 0.81373 0.0
H405 H 0.97494 0.90443 0.82876 0.0
H406 H 0.91764 0.85118 0.83551 0.0
H407 H 0.90607 0.87832 0.72603 0.0
C408 C 0.87022 0.90571 0.79672 0.0
C409 C 0.92213 0.89164 0.90397 0.0
C410 C 0.93748 0.91044 0.70916 0.0
C411 C 0.97456 0.8674 0.80319 0.0
H412 H 0.87299 0.89744 0.92758 0.0
H413 H 0.84381 0.90356 0.8678 0.0
H414 H 0.85838 0.92707 0.72836 0.0
H415 H 0.89626 0.93229 0.68365 0.0
H416 H 0.981 0.89324 0.6807 0.0
H417 H 1.00074 0.86862 0.73063 0.0
H418 H 0.98977 0.85476 0.87964 0.0
H419 H 0.96214 0.87009 0.93506 0.0
H420 H 0.91595 0.81975 0.80323 0.0
H421 H 0.90238 0.84834 0.69415 0.0
H422 H 0.99726 0.93345 0.83363 0.0
H423 H 0.93248 0.96557 0.81601 0.0
C424 C 0.68581 0.57473 0.83312 0.0
C425 C 0.70464 0.56172 0.83357 0.0
C426 C 0.69716 0.54589 0.81345 0.0
C427 C 0.67412 0.54977 0.80237 0.0
N428 N 0.66665 0.56712 0.8142 0.0
Co429 Co 0.63371 0.57729 0.808 0.0
N430 N 0.62022 0.55131 0.80112 0.0
C431 C 0.63261 0.53565 0.79064 0.0
C432 C 0.61857 0.51961 0.78784 0.0
C433 C 0.5959 0.52561 0.79682 0.0
C434 C 0.59739 0.54509 0.80452 0.0
N435 N 0.60092 0.58738 0.80144 0.0
C436 C 0.57953 0.57824 0.80428 0.0
C437 C 0.56095 0.59081 0.79664 0.0
C438 C 0.57126 0.60833 0.78864 0.0
C439 C 0.59555 0.60552 0.7917 0.0
N440 N 0.64783 0.60297 0.81593 0.0
C441 C 0.63761 0.61957 0.80522 0.0
C442 C 0.65107 0.63509 0.81659 0.0
C443 C 0.6708 0.62765 0.83554 0.0
C444 C 0.66835 0.60793 0.83495 0.0
N445 N 0.63772 0.57985 0.75029 0.0
C446 C 0.63365 0.59322 0.67207 0.0
C447 C 0.65311 0.59845 0.69594 0.0
C448 C 0.65509 0.59132 0.73449 0.0
C449 C 0.61755 0.57982 0.68738 0.0
C450 C 0.61979 0.57346 0.72617 0.0
N451 N 0.62818 0.57586 0.86466 0.0
C452 C 0.61145 0.59171 0.92071 0.0
C453 C 0.61625 0.576 0.94463 0.0
C454 C 0.62714 0.55988 0.92734 0.0
C455 C 0.63304 0.56012 0.88713 0.0
C456 C 0.61764 0.59142 0.88161 0.0
H457 H 0.64126 0.54767 0.87416 0.0
H458 H 0.61332 0.60394 0.86497 0.0
H459 H 0.66984 0.59615 0.7523 0.0
H460 H 0.60569 0.56452 0.7373 0.0
C461 C 0.65759 0.53594 0.79043 0.0
C462 C 0.68652 0.59422 0.85002 0.0
C463 C 0.57666 0.5575 0.81145 0.0
C464 C 0.61346 0.61983 0.79286 0.0
H465 H 0.72175 0.5629 0.84783 0.0
H466 H 0.70676 0.53255 0.81016 0.0
H467 H 0.62424 0.50514 0.78147 0.0
H468 H 0.58009 0.5167 0.79721 0.0
H469 H 0.54202 0.58762 0.79664 0.0
H470 H 0.56205 0.62164 0.78277 0.0
H471 H 0.64651 0.65006 0.81345 0.0
H472 H 0.68526 0.63577 0.84842 0.0
H473 H 0.66638 0.60846 0.68533 0.0
H474 H 0.60222 0.57527 0.67045 0.0
H475 H 0.60239 0.60427 0.93182 0.0
H476 H 0.63116 0.54732 0.94464 0.0
C477 C 0.39892 0.13203 0.98475 0.0
C478 C 0.37614 0.12971 0.9695 0.0
C479 C 0.36093 0.12854 1.00082 0.0
C480 C 0.37526 0.13018 0.03325 0.0
N481 N 0.39849 0.1324 0.02429 0.0
Co482 Co 0.42522 0.13516 0.06198 0.0
N483 N 0.40625 0.12308 0.10413 0.0
C484 C 0.38231 0.12077 0.10417 0.0
C485 C 0.37407 0.11131 0.1365 0.0
C486 C 0.39396 0.10769 0.15848 0.0
C487 C 0.41344 0.11535 0.1384 0.0
N488 N 0.45179 0.13816 0.09952 0.0
C489 C 0.45468 0.13061 0.13579 0.0
C490 C 0.4754 0.13759 0.15292 0.0
C491 C 0.48552 0.15007 0.12655 0.0
C492 C 0.47049 0.15008 0.0948 0.0
N493 N 0.44352 0.14688 1.01842 0.0
C494 C 0.46304 0.15792 0.02209 0.0
C495 C 0.47279 0.16257 0.98635 0.0
C496 C 0.45846 0.15383 0.9588 0.0
C497 C 0.44077 0.14427 0.97925 0.0
N498 N 0.41358 0.16106 0.07879 0.0
C499 C 0.40931 0.19967 0.10633 0.0
C500 C 0.40849 0.19507 0.06604 0.0
C501 C 0.41053 0.17587 0.053 0.0
C502 C 0.41053 0.18408 0.13213 0.0
C503 C 0.41251 0.16521 0.118 0.0
N504 N 0.43858 0.10972 0.04753 0.0
C505 C 0.4749 0.09153 0.03772 0.0
C506 C 0.46328 0.07426 0.04561 0.0
C507 C 0.43833 0.07495 0.05119 0.0
C508 C 0.42628 0.09285 0.05183 0.0
C509 C 0.46249 0.10882 0.039 0.0
H510 H 0.40733 0.09307 0.05793 0.0
H511 H 0.47297 0.12156 0.03568 0.0
H512 H 0.41071 0.17313 0.02194 0.0
H513 H 0.41466 0.15411 0.13938 0.0
C514 C 0.36865 0.12515 0.07117 0.0
C515 C 0.42059 0.13392 0.9612 0.0
C516 C 0.43711 0.11838 0.15625 0.0
C517 C 0.47448 0.15932 0.05867 0.0
H518 H 0.37109 0.12863 0.93908 0.0
H519 H 0.34195 0.12556 1.00002 0.0
H520 H 0.35584 0.10719 0.14302 0.0
H521 H 0.39383 0.10089 0.18686 0.0
H522 H 0.48221 0.13428 0.18173 0.0
H523 H 0.50202 0.15796 0.12999 0.0
H524 H 0.48918 0.17035 0.98094 0.0
H525 H 0.46078 0.15431 0.92743 0.0
H526 H 0.40677 0.20625 0.04435 0.0
H527 H 0.41129 0.18636 0.16337 0.0
H528 H 0.49402 0.09184 0.03258 0.0
H529 H 0.42845 0.06197 0.05719 0.0
C530 C 0.82798 0.95302 0.32776 0.0
C531 C 0.80893 0.96579 0.32874 0.0
C532 C 0.8168 0.98251 0.31226 0.0
C533 C 0.84025 0.97931 0.30267 0.0
N534 N 0.84756 0.96152 0.31182 0.0
Co535 Co 0.88073 0.95178 0.30664 0.0
N536 N 0.89417 0.97802 0.30698 0.0
C537 C 0.88192 0.99415 0.29921 0.0
C538 C 0.89581 1.01029 0.30127 0.0
C539 C 0.91827 1.00389 0.31046 0.0
C540 C 0.91685 0.98409 0.31332 0.0
N541 N 0.91379 0.9421 0.30061 0.0
C542 C 0.93505 0.95115 0.30606 0.0
C543 C 0.95384 0.93908 0.2966 0.0
C544 C 0.94382 0.92202 0.28466 0.0
C545 C 0.91948 0.92458 0.28729 0.0
N546 N 0.86658 0.92587 0.308 0.0
C547 C 0.87722 0.90984 0.29514 0.0
C548 C 0.86375 0.89382 0.30328 0.0
C549 C 0.8436 0.90034 0.32249 0.0
C550 C 0.84583 0.92002 0.32526 0.0
N551 N 0.87884 0.95225 0.24841 0.0
C552 C 0.88667 0.94418 0.16779 0.0
C553 C 0.8666 0.93688 0.18783 0.0
C554 C 0.86285 0.94127 0.22785 0.0
C555 C 0.90172 0.95645 0.1889 0.0
C556 C 0.89749 0.96034 0.22833 0.0
N557 N 0.88419 0.95016 0.36365 0.0
C558 C 0.89808 0.93089 0.41718 0.0
C559 C 0.88939 0.94402 0.4442 0.0
C560 C 0.8787 0.96092 0.43021 0.0
C561 C 0.87627 0.96374 0.38943 0.0
C562 C 0.89513 0.93408 0.37771 0.0
H563 H 0.86776 0.9766 0.37874 0.0
H564 H 0.90146 0.92306 0.35866 0.0
H565 H 0.84768 0.93497 0.24258 0.0
H566 H 0.91074 0.96879 0.24303 0.0
C567 C 0.85702 0.99377 0.29592 0.0
C568 C 0.82734 0.93301 0.34189 0.0
C569 C 0.93772 0.97146 0.31729 0.0
C570 C 0.90167 0.91024 0.28441 0.0
H571 H 0.79139 0.96389 0.3412 0.0
H572 H 0.80715 0.99591 0.31077 0.0
H573 H 0.89018 0.02499 0.29758 0.0
H574 H 0.93396 1.01279 0.31379 0.0
H575 H 0.97274 0.94232 0.29791 0.0
H576 H 0.95323 0.90913 0.27633 0.0
H577 H 0.86859 0.87906 0.29803 0.0
H578 H 0.82906 0.89165 0.33345 0.0
H579 H 0.85405 0.92762 0.17296 0.0
H580 H 0.9177 0.96236 0.17575 0.0
H581 H 0.90675 0.9178 0.42655 0.0
H582 H 0.87179 0.97148 0.45038 0.0
C583 C 0.11443 0.39493 0.48842 0.0
C584 C 0.13709 0.39626 0.47206 0.0
C585 C 0.15295 0.39681 0.50252 0.0
C586 C 0.13917 0.39574 0.53564 0.0
N587 N 0.11565 0.39447 0.52795 0.0
Co588 Co 0.08967 0.39269 0.56725 0.0
N589 N 0.11027 0.40405 0.60813 0.0
C590 C 0.1343 0.40537 0.60685 0.0
C591 C 0.14378 0.41467 0.63844 0.0
C592 C 0.1246 0.41922 0.66134 0.0
C593 C 0.10429 0.41223 0.64254 0.0
N594 N 0.06384 0.39076 0.60651 0.0
C595 C 0.06223 0.39852 0.64279 0.0
C596 C 0.04154 0.39237 0.66133 0.0
C597 C 0.03009 0.38024 0.63582 0.0
C598 C 0.04435 0.37959 0.60316 0.0
N599 N 0.06968 0.38168 0.52494 0.0
C600 C 0.04958 0.37148 0.53014 0.0
C601 C 0.03906 0.36654 0.49524 0.0
C602 C 0.05349 0.37416 0.46652 0.0
C603 C 0.07212 0.38337 0.48544 0.0
N604 N 0.10018 0.3664 0.58357 0.0
C605 C 0.1038 0.32772 0.61099 0.0
C606 C 0.10379 0.33231 0.57066 0.0
C607 C 0.10209 0.35155 0.55767 0.0
C608 C 0.10362 0.34331 0.63679 0.0
C609 C 0.1019 0.36221 0.62271 0.0
N610 N 0.07773 0.41853 0.55327 0.0
C611 C 0.04321 0.43925 0.54611 0.0
C612 C 0.05733 0.45569 0.54993 0.0
C613 C 0.08228 0.45297 0.55287 0.0
C614 C 0.0921 0.43437 0.55418 0.0
C615 C 0.05363 0.42104 0.54787 0.0
H616 H 0.11118 0.4328 0.55765 0.0
H617 H 0.04176 0.40896 0.54703 0.0
H618 H 0.10133 0.35431 0.52663 0.0
H619 H 0.1006 0.37336 0.64416 0.0
C620 C 0.14693 0.40042 0.57315 0.0
C621 C 0.09236 0.39304 0.46562 0.0
C622 C 0.08087 0.41026 0.66177 0.0
C623 C 0.03894 0.37057 0.56741 0.0
H624 H 0.14168 0.3969 0.44137 0.0
H625 H 0.17209 0.39892 0.50071 0.0
H626 H 0.16236 0.41812 0.64381 0.0
H627 H 0.12566 0.4262 0.68948 0.0
H628 H 0.0356 0.39604 0.69045 0.0
H629 H 0.0132 0.37303 0.64037 0.0
H630 H 0.0222 0.35922 0.49109 0.0
H631 H 0.05049 0.37326 0.43536 0.0
H632 H 0.10462 0.32109 0.54895 0.0
H633 H 0.10351 0.34101 0.66806 0.0
H634 H 0.02394 0.44032 0.54404 0.0
H635 H 0.09418 0.46513 0.55505 0.0
C636 C 0.689 0.94904 0.53793 0.0
C637 C 0.70949 0.9602 0.53994 0.0
C638 C 0.70338 0.97653 0.5598 0.0
C639 C 0.67958 0.97449 0.5688 0.0
N640 N 0.67045 0.95784 0.556 0.0
Co641 Co 0.63677 0.94954 0.5616 0.0
N642 N 0.62565 0.97621 0.56814 0.0
C643 C 0.63934 0.99115 0.57874 0.0
C644 C 0.62667 1.00793 0.5813 0.0
C645 C 0.60355 1.00318 0.57201 0.0
C646 C 0.60342 0.98367 0.56435 0.0
N647 N 0.60318 0.94134 0.56844 0.0
C648 C 0.58267 0.95165 0.56539 0.0
C649 C 0.56303 0.94019 0.57322 0.0
C650 C 0.57176 0.92216 0.58151 0.0
C651 C 0.59625 0.92357 0.57844 0.0
N652 N 0.64853 0.92313 0.55344 0.0
C653 C 0.63678 0.90713 0.56357 0.0
C654 C 0.64893 0.89093 0.55211 0.0
C655 C 0.66943 0.89731 0.53366 0.0
C656 C 0.66873 0.91711 0.53473 0.0
N657 N 0.64045 0.94673 0.61925 0.0
C658 C 0.6347 0.93283 0.69665 0.0
C659 C 0.65378 0.92672 0.67288 0.0
C660 C 0.65665 0.93413 0.63477 0.0
C661 C 0.62007 0.94741 0.6819 0.0
C662 C 0.62313 0.95406 0.64344 0.0
N663 N 0.63182 0.95112 0.50478 0.0
C664 C 0.61549 0.93531 0.44846 0.0
C665 C 0.62781 0.9475 0.42349 0.0
C666 C 0.64129 0.96248 0.43979 0.0
C667 C 0.64282 0.96419 0.48091 0.0
C668 C 0.61803 0.93711 0.48838 0.0
H669 H 0.6536 0.97548 0.49331 0.0
H670 H 0.60968 0.92622 0.50564 0.0
H671 H 0.67099 0.9286 0.61693 0.0
H672 H 0.61003 0.96399 0.63249 0.0
C673 C 0.66429 0.98937 0.58009 0.0
C674 C 0.68785 0.93 0.5198 0.0
C675 C 0.5817 0.9724 0.55731 0.0
C676 C 0.61276 0.90823 0.57645 0.0
H677 H 0.72691 0.95704 0.52778 0.0
H678 H 0.71457 0.98892 0.5647 0.0
H679 H 0.63351 0.02204 0.58795 0.0
H680 H 0.58849 1.01289 0.57155 0.0
H681 H 0.54442 0.94443 0.57295 0.0
H682 H 0.56139 0.90941 0.58728 0.0
H683 H 0.64308 0.87624 0.55498 0.0
H684 H 0.68319 0.88847 0.52072 0.0
H685 H 0.66596 0.91578 0.68315 0.0
H686 H 0.60513 0.9527 0.6989 0.0
H687 H 0.60496 0.92354 0.43706 0.0
H688 H 0.6512 0.97217 0.42118 0.0
C689 C 0.11738 0.13671 0.88132 0.0
C690 C 0.13992 0.13607 0.89817 0.0
C691 C 0.15596 0.13495 0.86799 0.0
C692 C 0.14236 0.13493 0.83457 0.0
N693 N 0.11879 0.13617 0.84186 0.0
Co694 Co 0.09283 0.13633 0.80236 0.0
N695 N 0.11373 0.12376 0.76327 0.0
C696 C 0.13773 0.12226 0.76529 0.0
C697 C 0.14733 0.11191 0.73518 0.0
C698 C 0.12827 0.10689 0.71238 0.0
C699 C 0.10793 0.11468 0.7297 0.0
N700 N 0.06716 0.13703 0.76271 0.0
C701 C 0.06614 0.12893 0.72671 0.0
C702 C 0.04557 0.13463 0.70725 0.0
C703 C 0.03357 0.14686 0.73184 0.0
C704 C 0.04742 0.14802 0.76491 0.0
N705 N 0.07239 0.14787 0.84337 0.0
C706 C 0.05177 0.15728 0.83751 0.0
C707 C 0.04049 0.16164 0.87216 0.0
C708 C 0.05492 0.15436 0.90132 0.0
C709 C 0.07422 0.14591 0.88287 0.0
N710 N 0.10279 0.16241 0.78277 0.0
C711 C 0.10432 0.19924 0.74561 0.0
C712 C 0.10119 0.19738 0.7864 0.0
C713 C 0.10064 0.17892 0.80437 0.0
C714 C 0.10873 0.18227 0.72511 0.0
C715 C 0.10778 0.16442 0.74371 0.0
N716 N 0.08137 0.11071 0.81918 0.0
C717 C 0.0473 0.08953 0.82656 0.0
C718 C 0.06195 0.07329 0.82571 0.0
C719 C 0.08689 0.07644 0.82435 0.0
C720 C 0.0962 0.09518 0.82136 0.0
C721 C 0.05724 0.10787 0.82334 0.0
H722 H 0.11531 0.09702 0.81902 0.0
H723 H 0.04499 0.11969 0.82199 0.0
H724 H 0.09729 0.17811 0.8354 0.0
H725 H 0.10961 0.15225 0.72505 0.0
C726 C 0.15026 0.12864 0.79812 0.0
C727 C 0.09494 0.13731 0.90317 0.0
C728 C 0.08508 0.11708 0.70889 0.0
C729 C 0.04138 0.15744 0.80001 0.0
H730 H 0.14434 0.13585 0.92892 0.0
H731 H 0.17508 0.13285 0.87034 0.0
H732 H 0.16592 0.10827 0.73052 0.0
H733 H 0.12946 0.09926 0.68497 0.0
H734 H 0.04003 0.13056 0.67813 0.0
H735 H 0.01661 0.15383 0.72642 0.0
H736 H 0.02312 0.16823 0.87581 0.0
H737 H 0.05161 0.15504 0.93244 0.0
H738 H 0.09798 0.20996 0.80405 0.0
H739 H 0.11196 0.1826 0.69391 0.0
H740 H 0.02803 0.08817 0.82737 0.0
H741 H 0.0992 0.0645 0.82461 0.0
C742 C 0.82873 0.57593 0.04074 0.0
C743 C 0.80908 0.56387 0.04287 0.0
C744 C 0.81677 0.54735 0.06058 0.0
C745 C 0.84062 0.55021 0.06831 0.0
N746 N 0.84828 0.56755 0.05681 0.0
Co747 Co 0.88145 0.57721 0.06066 0.0
N748 N 0.89453 0.55089 0.06306 0.0
C749 C 0.88213 0.53512 0.07305 0.0
C750 C 0.89586 0.51885 0.07273 0.0
C751 C 0.91833 0.52481 0.0623 0.0
C752 C 0.91707 0.5445 0.05691 0.0
N753 N 0.91461 0.58682 0.06466 0.0
C754 C 0.93569 0.57747 0.05939 0.0
C755 C 0.95473 0.58967 0.06656 0.0
C756 C 0.94504 0.60711 0.07687 0.0
C757 C 0.92064 0.60466 0.07556 0.0
N758 N 0.86748 0.60319 0.05732 0.0
C759 C 0.87831 0.61939 0.06874 0.0
C760 C 0.86467 0.63529 0.06033 0.0
C761 C 0.84418 0.62851 0.04251 0.0
C762 C 0.84639 0.60879 0.04083 0.0
N763 N 0.87994 0.5781 0.11897 0.0
C764 C 0.88692 0.58633 0.19986 0.0
C765 C 0.86688 0.59338 0.17928 0.0
C766 C 0.86359 0.58894 0.1391 0.0
C767 C 0.90261 0.57453 0.17892 0.0
C768 C 0.89882 0.57058 0.13939 0.0
N769 N 0.88471 0.57726 1.00347 0.0
C770 C 0.90027 0.59406 0.94758 0.0
C771 C 0.89574 0.57848 0.92319 0.0
C772 C 0.88516 0.56211 0.94002 0.0
C773 C 0.87969 0.56182 0.98033 0.0
C774 C 0.89455 0.59322 0.9869 0.0
H775 H 0.8719 0.54909 0.99295 0.0
H776 H 0.89903 0.60551 1.00411 0.0
H777 H 0.84836 0.59494 0.12402 0.0
H778 H 0.9124 0.56234 0.12498 0.0
C779 C 0.85719 0.53575 0.07666 0.0
C780 C 0.82812 0.59548 0.02486 0.0
C781 C 0.93797 0.55684 0.0505 0.0
C782 C 0.90297 0.61912 0.0781 0.0
H783 H 0.79118 0.56659 0.0322 0.0
H784 H 0.80658 0.53435 0.0648 0.0
H785 H 0.89012 0.50432 0.07835 0.0
H786 H 0.93392 0.51573 0.05976 0.0
H787 H 0.97357 0.58626 0.06488 0.0
H788 H 0.95469 0.62014 0.08336 0.0
H789 H 0.86962 0.65012 0.06435 0.0
H790 H 0.82953 0.63706 0.03149 0.0
H791 H 0.85392 0.60236 0.19394 0.0
H792 H 0.91864 0.56891 0.19242 0.0
H793 H 0.90904 0.60683 0.93683 0.0
H794 H 0.88123 0.54967 0.92235 0.0
C795 C 0.39902 0.39093 0.37772 0.0
C796 C 0.37671 0.39197 0.39538 0.0
C797 C 0.3603 0.39346 0.36585 0.0
C798 C 0.37342 0.39319 0.33195 0.0
N799 N 0.39706 0.39142 0.33831 0.0
Co800 Co 0.42236 0.39065 0.29776 0.0
N801 N 0.4013 0.40375 0.25952 0.0
C802 C 0.3774 0.40578 0.26249 0.0
C803 C 0.36772 0.41645 0.23288 0.0
C804 C 0.38661 0.42113 0.20938 0.0
C805 C 0.4069 0.4128 0.22578 0.0
N806 N 0.44738 0.3895 0.257 0.0
C807 C 0.44808 0.39763 0.22095 0.0
C808 C 0.46814 0.39154 0.20061 0.0
C809 C 0.48015 0.37905 0.2247 0.0
C810 C 0.4668 0.37813 0.25835 0.0
N811 N 0.44298 0.37849 0.33792 0.0
C812 C 0.46312 0.3686 0.33095 0.0
C813 C 0.47441 0.36315 0.36493 0.0
C814 C 0.46049 0.37017 0.39492 0.0
C815 C 0.44139 0.37955 0.37764 0.0
N816 N 0.41129 0.36481 0.27848 0.0
C817 C 0.40906 0.32814 0.24079 0.0
C818 C 0.41281 0.3298 0.28146 0.0
C819 C 0.41366 0.34817 0.29971 0.0
C820 C 0.40422 0.34523 0.22083 0.0
C821 C 0.40555 0.363 0.23965 0.0
N822 N 0.43485 0.41597 0.31418 0.0
C823 C 0.46952 0.43662 0.32006 0.0
C824 C 0.45521 0.45306 0.31979 0.0
C825 C 0.4302 0.4503 0.31956 0.0
C826 C 0.42043 0.43172 0.31704 0.0
C827 C 0.4591 0.41842 0.31731 0.0
H828 H 0.40125 0.43018 0.31557 0.0
H829 H 0.471 0.40638 0.31549 0.0
H830 H 0.41746 0.34879 0.3306 0.0
H831 H 0.40343 0.37524 0.22124 0.0
C832 C 0.36518 0.39963 0.2958 0.0
C833 C 0.42158 0.38894 0.39909 0.0
C834 C 0.42929 0.40993 0.204 0.0
C835 C 0.47299 0.36844 0.29309 0.0
H836 H 0.37276 0.39202 0.42633 0.0
H837 H 0.34128 0.39589 0.3689 0.0
H838 H 0.34921 0.42054 0.22903 0.0
H839 H 0.38531 0.42889 0.1821 0.0
H840 H 0.47333 0.39552 0.17125 0.0
H841 H 0.49677 0.37172 0.21854 0.0
H842 H 0.49145 0.35593 0.36767 0.0
H843 H 0.46418 0.36883 0.42583 0.0
H844 H 0.4163 0.31715 0.29879 0.0
H845 H 0.40037 0.34507 0.18982 0.0
H846 H 0.48882 0.43772 0.32007 0.0
H847 H 0.41818 0.46242 0.32032 0.0
H848 H 0.27788 0.09208 0.52702 0.0
H849 H 0.33502 0.10856 0.44857 0.0
H850 H 0.30514 0.11492 0.39652 0.0
H851 H 0.24667 0.06483 0.45559 0.0
H852 H 0.21729 0.07045 0.47395 0.0
H853 H 0.24255 0.07043 0.50653 0.0
H854 H 0.23279 0.10523 0.52671 0.0
H855 H 0.20754 0.10537 0.49398 0.0
H856 H 0.23034 0.12347 0.48966 0.0
H857 H 0.26829 0.1171 0.35056 0.0
H858 H 0.22997 0.11261 0.31517 0.0
H859 H 0.19743 0.09091 0.42092 0.0
C860 C 0.28419 0.09697 0.49884 0.0
C861 C 0.3091 0.0995 0.49197 0.0
C862 C 0.31621 0.10656 0.4549 0.0
C863 C 0.29926 0.11011 0.425 0.0
C864 C 0.27501 0.10648 0.43216 0.0
C865 C 0.26754 0.09994 0.46827 0.0
C866 C 0.24087 0.0953 0.46752 0.0
C867 C 0.2366 0.07399 0.47642 0.0
C868 C 0.22707 0.10811 0.49618 0.0
C869 C 0.23442 0.10008 0.42534 0.0
C870 C 0.25425 0.1069 0.40559 0.0
C871 C 0.25273 0.11192 0.36605 0.0
C872 C 0.23076 0.1095 0.34614 0.0
C873 C 0.21041 0.1019 0.36532 0.0
C874 C 0.2124 0.09727 0.40563 0.0
H875 H 0.89493 0.79297 0.76211 0.0
H876 H 0.93225 0.82662 0.67457 0.0
H877 H 0.93543 0.79834 0.63262 0.0
H878 H 0.93031 0.74904 0.74671 0.0
H879 H 0.90534 0.73309 0.75357 0.0
H880 H 0.90578 0.75597 0.77779 0.0
H881 H 0.86494 0.76436 0.74684 0.0
H882 H 0.86443 0.74154 0.72241 0.0
H883 H 0.86152 0.7633 0.69452 0.0
H884 H 0.93419 0.76665 0.59803 0.0
H885 H 0.93044 0.73348 0.57522 0.0
H886 H 0.89434 0.71844 0.68336 0.0
C887 C 0.90391 0.79438 0.73426 0.0
C888 C 0.91284 0.81255 0.7218 0.0
C889 C 0.92453 0.81334 0.6849 0.0
C890 C 0.92663 0.79718 0.66067 0.0
C891 C 0.9172 0.77979 0.67322 0.0
C892 C 0.90624 0.77813 0.70927 0.0
C893 C 0.89786 0.75744 0.71521 0.0
C894 C 0.91058 0.74835 0.75042 0.0
C895 C 0.87056 0.75662 0.72003 0.0
C896 C 0.90569 0.74794 0.67691 0.0
C897 C 0.91677 0.76122 0.65322 0.0
C898 C 0.92547 0.75615 0.6164 0.0
C899 C 0.923 0.73712 0.60342 0.0
C900 C 0.91185 0.72287 0.62681 0.0
C901 C 0.9031 0.72864 0.66435 0.0
H902 H 0.31976 0.43418 0.92317 0.0
H903 H 0.28715 0.41462 0.81582 0.0
H904 H 0.24851 0.41041 0.85032 0.0
H905 H 0.28533 0.40114 0.98942 0.0
H906 H 0.28337 0.41885 0.02752 0.0
H907 H 0.30874 0.41866 0.99502 0.0
H908 H 0.30045 0.45397 0.97705 0.0
H909 H 0.27493 0.45424 1.0091 0.0
H910 H 0.27146 0.46062 0.9584 0.0
H911 H 0.21148 0.41294 0.89541 0.0
H912 H 0.18143 0.4192 0.94719 0.0
H913 H 0.23854 0.43279 0.02792 0.0
C914 C 0.30468 0.42832 0.90734 0.0
C915 C 0.30672 0.42431 0.86678 0.0
C916 C 0.28627 0.41731 0.84694 0.0
C917 C 0.26414 0.41505 0.86634 0.0
C918 C 0.26254 0.41952 0.90609 0.0
C919 C 0.28248 0.42558 0.92659 0.0
C920 C 0.27585 0.42987 0.96892 0.0
C921 C 0.28911 0.41632 0.99688 0.0
C922 C 0.28098 0.45092 0.97894 0.0
C923 C 0.24902 0.42584 0.96884 0.0
C924 C 0.24161 0.42004 0.93222 0.0
C925 C 0.2173 0.41714 0.9243 0.0
C926 C 0.20025 0.42063 0.95403 0.0
C927 C 0.20731 0.42687 0.99169 0.0
C928 C 0.23226 0.42862 0.99928 0.0
H929 H 0.61944 0.79004 0.10492 0.0
H930 H 0.58189 0.8234 0.19251 0.0
H931 H 0.57876 0.79502 0.23431 0.0
H932 H 0.58422 0.7459 0.12016 0.0
H933 H 0.60929 0.73005 0.11329 0.0
H934 H 0.60871 0.75297 0.0891 0.0
H935 H 0.64949 0.76146 0.12009 0.0
H936 H 0.65013 0.73861 0.1445 0.0
H937 H 0.65291 0.76035 0.17241 0.0
H938 H 0.58026 0.76333 0.26889 0.0
H939 H 0.58426 0.73016 0.29176 0.0
H940 H 0.62033 0.71532 0.18355 0.0
C941 C 0.61039 0.79134 0.13273 0.0
C942 C 0.60137 0.80947 0.14526 0.0
C943 C 0.58963 0.81015 0.18211 0.0
C944 C 0.58758 0.79393 0.20627 0.0
C945 C 0.59711 0.77659 0.19368 0.0
C946 C 0.60809 0.77503 0.15764 0.0
C947 C 0.61661 0.75438 0.15169 0.0
C948 C 0.60395 0.74529 0.11646 0.0
C949 C 0.64391 0.75366 0.14688 0.0
C950 C 0.60882 0.74479 0.18998 0.0
C951 C 0.59766 0.758 0.21367 0.0
C952 C 0.58903 0.75288 0.25051 0.0
C953 C 0.59165 0.73385 0.26353 0.0
C954 C 0.60286 0.71966 0.24013 0.0
C955 C 0.61154 0.72548 0.20256 0.0
H956 H 0.73655 0.59304 0.84287 0.0
H957 H 0.68039 0.60871 0.92382 0.0
H958 H 0.71089 0.61441 0.97517 0.0
H959 H 0.76893 0.56505 0.91246 0.0
H960 H 0.79797 0.57099 0.89313 0.0
H961 H 0.77223 0.5711 0.86155 0.0
H962 H 0.78138 0.60612 0.84207 0.0
H963 H 0.80709 0.60615 0.87382 0.0
H964 H 0.78419 0.62407 0.87957 0.0
H965 H 0.74828 0.61629 0.01985 0.0
H966 H 0.78723 0.61202 0.05353 0.0
H967 H 0.8185 0.59138 0.94596 0.0
C968 C 0.73055 0.5975 0.8715 0.0
C969 C 0.70574 0.6 0.87928 0.0
C970 C 0.6991 0.60665 0.91687 0.0
C971 C 0.7164 0.60985 0.94635 0.0
C972 C 0.74055 0.60628 0.93824 0.0
C973 C 0.74757 0.60012 0.90165 0.0
C974 C 0.77427 0.59564 0.90125 0.0
C975 C 0.7786 0.57444 0.89152 0.0
C976 C 0.78752 0.60878 0.87246 0.0
C977 C 0.78127 0.6001 0.94332 0.0
C978 C 0.76165 0.60659 0.96404 0.0
C979 C 0.76369 0.61134 1.00362 0.0
C980 C 0.78598 0.60904 0.02256 0.0
C981 C 0.80617 0.60182 1.00235 0.0
C982 C 0.80363 0.59741 0.96204 0.0
H983 H 0.39403 0.29 0.25757 0.0
H984 H 0.43148 0.32384 0.17053 0.0
H985 H 0.43467 0.29567 0.12824 0.0
H986 H 0.42928 0.24591 0.24141 0.0
H987 H 0.40421 0.23005 0.24807 0.0
H988 H 0.40484 0.25283 0.27269 0.0
H989 H 0.36402 0.26152 0.24203 0.0
H990 H 0.36333 0.23881 0.21719 0.0
H991 H 0.36053 0.2607 0.1897 0.0
H992 H 0.43334 0.26409 0.09322 0.0
H993 H 0.42937 0.23104 0.06985 0.0
H994 H 0.3929 0.21579 0.17757 0.0
C995 C 0.40308 0.29145 0.22978 0.0
C996 C 0.41207 0.30964 0.21756 0.0
C997 C 0.4238 0.31052 0.18071 0.0
C998 C 0.42587 0.29443 0.15628 0.0
C999 C 0.41637 0.27702 0.16857 0.0
C1000 C 0.40538 0.27527 0.20459 0.0
C1001 C 0.39685 0.2546 0.21016 0.0
C1002 C 0.40955 0.2453 0.24517 0.0
C1003 C 0.36956 0.25387 0.21507 0.0
C1004 C 0.40459 0.24522 0.17167 0.0
C1005 C 0.41581 0.25853 0.14825 0.0
C1006 C 0.4245 0.25357 0.11138 0.0
C1007 C 0.42188 0.23459 0.09806 0.0
C1008 C 0.41057 0.22031 0.12114 0.0
C1009 C 0.4018 0.22599 0.15875 0.0
H1010 H 0.77731 0.9338 0.3354 0.0
H1011 H 0.83409 0.91713 0.41439 0.0
H1012 H 0.80396 0.91054 0.46591 0.0
H1013 H 0.74568 0.96081 0.40699 0.0
H1014 H 0.71641 0.95524 0.3881 0.0
H1015 H 0.74185 0.95544 0.35588 0.0
H1016 H 0.73226 0.92073 0.3349 0.0
H1017 H 0.70685 0.9204 0.3673 0.0
H1018 H 0.72967 0.90231 0.37156 0.0
H1019 H 0.76694 0.90801 0.51118 0.0
H1020 H 0.72847 0.91227 0.54619 0.0
H1021 H 0.69634 0.93455 0.44058 0.0
C1022 C 0.7835 0.92889 0.36362 0.0
C1023 C 0.80838 0.92635 0.3708 0.0
C1024 C 0.81531 0.91916 0.40785 0.0
C1025 C 0.79822 0.91547 0.43744 0.0
C1026 C 0.774 0.9191 0.42999 0.0
C1027 C 0.76671 0.92579 0.39391 0.0
C1028 C 0.74002 0.9304 0.39439 0.0
C1029 C 0.73574 0.95174 0.38584 0.0
C1030 C 0.7264 0.9177 0.3653 0.0
C1031 C 0.73337 0.92542 0.43639 0.0
C1032 C 0.75313 0.91852 0.45624 0.0
C1033 C 0.75144 0.91327 0.49562 0.0
C1034 C 0.72939 0.91556 0.5153 0.0
C1035 C 0.70912 0.92328 0.49608 0.0
C1036 C 0.71126 0.92811 0.45589 0.0
H1037 H 0.12199 0.31122 0.68067 0.0
H1038 H 0.0815 0.29686 0.57643 0.0
H1039 H 0.07712 0.2639 0.60032 0.0
H1040 H 0.15314 0.26567 0.68963 0.0
H1041 H 0.15162 0.26494 0.74221 0.0
H1042 H 0.15207 0.28762 0.71715 0.0
H1043 H 0.11284 0.29732 0.7518 0.0
H1044 H 0.11222 0.27463 0.77685 0.0
H1045 H 0.08697 0.28207 0.74786 0.0
H1046 H 0.07587 0.23232 0.63557 0.0
H1047 H 0.07964 0.20403 0.67763 0.0
H1048 H 0.12102 0.23703 0.761 0.0
C1049 C 0.11212 0.30123 0.66274 0.0
C1050 C 0.10232 0.30712 0.62596 0.0
C1051 C 0.08976 0.29312 0.60397 0.0
C1052 C 0.08692 0.2742 0.61761 0.0
C1053 C 0.09665 0.26902 0.65368 0.0
C1054 C 0.10912 0.28207 0.67599 0.0
C1055 C 0.11786 0.27247 0.71373 0.0
C1056 C 0.14531 0.27269 0.7158 0.0
C1057 C 0.10682 0.28221 0.74969 0.0
C1058 C 0.10838 0.25203 0.70907 0.0
C1059 C 0.09612 0.25055 0.67412 0.0
C1060 C 0.08563 0.23335 0.66279 0.0
C1061 C 0.088 0.21721 0.68706 0.0
C1062 C 0.10096 0.21783 0.7228 0.0
C1063 C 0.11097 0.23581 0.73411 0.0
H1064 H 0.0481 0.04015 0.26353 0.0
H1065 H 0.06409 0.04262 0.38709 0.0
H1066 H 0.03027 0.02067 0.40075 0.0
H1067 H 0.98236 0.0374 0.27316 0.0
H1068 H 0.97943 0.02106 0.23276 0.0
H1069 H 1.00365 0.03804 0.23365 0.0
H1070 H 0.03378 1.01016 0.2257 0.0
H1071 H 0.00967 0.99307 0.22578 0.0
H1072 H 0.03368 0.99084 0.26062 0.0
H1073 H 0.99535 0.99732 0.40054 0.0
H1074 H 0.96031 0.97661 0.38691 0.0
H1075 H 0.96752 0.98834 0.26332 0.0
C1076 C 0.04392 0.0365 0.29351 0.0
C1077 C 0.05824 0.04349 0.32449 0.0
C1078 C 0.05292 0.03782 0.36319 0.0
C1079 C 0.0339 0.02521 0.3711 0.0
C1080 C 0.02041 0.01819 0.33991 0.0
C1081 C 0.02501 0.02381 0.30189 0.0
C1082 C 0.00819 0.01381 0.2736 0.0
C1083 C 0.99247 0.02845 0.25202 0.0
C1084 C 0.02217 1.00123 0.24472 0.0
C1085 C 0.99346 1.00166 0.30154 0.0
C1086 C 1.00083 1.00437 0.33969 0.0
C1087 C 0.98955 0.99505 0.37075 0.0
C1088 C 0.96983 0.98314 0.36278 0.0
C1089 C 0.96163 0.98051 0.3241 0.0
C1090 C 0.97388 0.98969 0.29307 0.0
H1091 H 0.95859 0.53959 0.51642 0.0
H1092 H 0.9973 0.57213 0.60366 0.0
H1093 H 0.02564 0.54545 0.61203 0.0
H1094 H 0.96687 0.49227 0.56382 0.0
H1095 H 0.97063 0.4798 0.51818 0.0
H1096 H 0.9524 0.50103 0.52027 0.0
H1097 H 0.97791 0.51629 0.46542 0.0
H1098 H 0.99636 0.49518 0.46345 0.0
H1099 H 0.00982 0.51825 0.47169 0.0
H1100 H 0.05147 0.5162 0.60875 0.0
H1101 H 0.07122 0.48519 0.59777 0.0
H1102 H 0.01673 0.47047 0.51256 0.0
C1103 C 0.97275 0.54088 0.5378 0.0
C1104 C 0.97563 0.55806 0.55946 0.0
C1105 C 0.99469 0.55922 0.5867 0.0
C1106 C 0.01096 0.54412 0.59164 0.0
C1107 C 0.00812 0.52765 0.56923 0.0
C1108 C 0.98937 0.52577 0.54315 0.0
C1109 C 0.99093 0.50649 0.52241 0.0
C1110 C 0.9689 0.49417 0.53173 0.0
C1111 C 0.99393 0.50923 0.47811 0.0
C1112 C 0.0135 0.49804 0.54067 0.0
C1113 C 0.0231 0.51057 0.56752 0.0
C1114 C 0.04406 0.50625 0.58781 0.0
C1115 C 0.05536 0.48858 0.58101 0.0
C1116 C 0.04585 0.47516 0.5541 0.0
C1117 C 0.02455 0.48018 0.53358 0.0
H1118 H 0.46489 0.49128 0.7534 0.0
H1119 H 0.45319 0.48216 0.87699 0.0
H1120 H 0.48697 0.50393 0.89221 0.0
H1121 H 0.53049 0.49428 0.75777 0.0
H1122 H 0.53201 0.51261 0.72079 0.0
H1123 H 0.5079 0.49553 0.72027 0.0
H1124 H 0.47744 0.52344 0.72092 0.0
H1125 H 0.50146 0.54059 0.72234 0.0
H1126 H 0.47868 0.5409 0.75958 0.0
H1127 H 0.52169 0.52756 0.89377 0.0
H1128 H 0.5563 0.54892 0.88142 0.0
H1129 H 0.54497 0.54352 0.75688 0.0
C1130 C 0.46989 0.49356 0.7836 0.0
C1131 C 0.45676 0.48479 0.81413 0.0
C1132 C 0.46333 0.48847 0.85329 0.0
C1133 C 0.48235 0.50095 0.86214 0.0
C1134 C 0.49461 0.50977 0.83145 0.0
C1135 C 0.48881 0.50607 0.79292 0.0
C1136 C 0.50463 0.51756 0.76542 0.0
C1137 C 0.51965 0.5042 0.73954 0.0
C1138 C 0.48965 0.53145 0.7406 0.0
C1139 C 0.52024 0.52832 0.79438 0.0
C1140 C 0.51412 0.52366 0.83236 0.0
C1141 C 0.52647 0.53138 0.86414 0.0
C1142 C 0.54594 0.54367 0.85693 0.0
C1143 C 0.55286 0.54828 0.81833 0.0
C1144 C 0.53957 0.5407 0.78671 0.0
H1145 H 0.51609 0.96748 1.00954 0.0
H1146 H 0.57412 0.98363 0.08709 0.0
H1147 H 0.55532 0.01507 0.09697 0.0
H1148 H 0.50836 0.01422 0.9647 0.0
H1149 H 0.47625 1.01253 0.96194 0.0
H1150 H 0.49422 0.99115 0.96042 0.0
H1151 H 0.47062 0.97745 0.01912 0.0
H1152 H 0.4527 0.99885 0.02101 0.0
H1153 H 0.46881 0.99105 0.06374 0.0
H1154 H 0.5302 0.04457 0.10022 0.0
H1155 H 0.50191 0.07128 0.09291 0.0
H1156 H 0.45911 0.03736 1.01315 0.0
C1157 C 0.52489 0.9776 0.02864 0.0
C1158 C 0.54692 0.97284 0.04727 0.0
C1159 C 0.55767 0.98677 0.07174 0.0
C1160 C 0.54693 1.00471 0.07792 0.0
C1161 C 0.52528 1.0088 0.05948 0.0
C1162 C 0.51439 0.99575 0.03507 0.0
C1163 C 0.49125 1.00408 1.01847 0.0
C1164 C 0.49261 1.00558 0.97373 0.0
C1165 C 0.46956 0.99214 0.03136 0.0
C1166 C 0.49088 0.02385 0.03736 0.0
C1167 C 0.5107 0.02609 0.06107 0.0
C1168 C 0.5147 0.04298 0.08158 0.0
C1169 C 0.49846 0.05812 0.07717 0.0
C1170 C 0.47825 0.05663 0.05227 0.0
C1171 C 0.47423 0.03901 0.0326 0.0
H1172 H 0.04956 0.49078 0.11047 0.0
H1173 H 0.06106 0.48068 0.98721 0.0
H1174 H 0.02698 0.50205 0.97133 0.0
H1175 H 0.98366 0.4937 0.10646 0.0
H1176 H 0.98236 0.51237 0.14267 0.0
H1177 H 1.00636 0.49519 0.14373 0.0
H1178 H 0.03697 0.52297 0.14175 0.0
H1179 H 0.01306 0.54021 0.1397 0.0
H1180 H 0.03577 0.54006 0.10233 0.0
H1181 H 0.99231 0.52569 0.96902 0.0
H1182 H 0.95799 0.54743 0.9807 0.0
H1183 H 0.96961 0.5431 0.10536 0.0
C1184 C 0.04437 0.49267 0.08024 0.0
C1185 C 0.05755 0.48376 0.04997 0.0
C1186 C 0.05083 0.48704 1.01072 0.0
C1187 C 0.03166 0.49931 1.0015 0.0
C1188 C 0.0194 0.50833 0.0319 0.0
C1189 C 0.02531 0.50498 0.07054 0.0
C1190 C 0.00964 0.5168 0.09766 0.0
C1191 C 0.99461 0.50373 0.1242 0.0
C1192 C 0.02477 0.53084 0.12178 0.0
C1193 C 0.99403 0.52735 0.06835 0.0
C1194 C 0.99999 0.52229 0.03053 0.0
C1195 C 0.98765 0.52981 0.99851 0.0
C1196 C 0.96835 0.54232 1.00532 0.0
C1197 C 0.96163 0.54737 0.04377 0.0
C1198 C 0.97489 0.53996 0.07562 0.0
H1199 H 0.49749 0.46714 0.35322 0.0
H1200 H 0.43876 0.4837 0.27735 0.0
H1201 H 0.4575 0.51518 0.26753 0.0
H1202 H 0.50575 0.51362 0.39859 0.0
H1203 H 0.53788 0.51186 0.40046 0.0
H1204 H 0.51989 0.4905 0.4021 0.0
H1205 H 0.54286 0.47707 0.34255 0.0
H1206 H 0.56081 0.49846 0.34054 0.0
H1207 H 0.54425 0.49089 0.29811 0.0
H1208 H 0.48263 0.54468 0.26413 0.0
H1209 H 0.51106 0.57131 0.27116 0.0
H1210 H 0.55453 0.53691 0.34924 0.0
C1211 C 0.48853 0.47735 0.33449 0.0
C1212 C 0.46633 0.47271 0.31633 0.0
C1213 C 0.45536 0.48676 0.29236 0.0
C1214 C 0.46605 0.50472 0.2862 0.0
C1215 C 0.48788 0.5087 0.30416 0.0
C1216 C 0.49898 0.49552 0.32808 0.0
C1217 C 0.5223 0.50373 0.34419 0.0
C1218 C 0.52139 0.505 0.389 0.0
C1219 C 0.54383 0.49183 0.33053 0.0
C1220 C 0.52251 0.52359 0.32563 0.0
C1221 C 0.50247 0.52598 0.30247 0.0
C1222 C 0.4983 0.54297 0.28234 0.0
C1223 C 0.51462 0.55807 0.28658 0.0
C1224 C 0.53505 0.5564 0.31095 0.0
C1225 C 0.53923 0.53868 0.33021 0.0
H1226 H 0.46838 0.03933 0.60499 0.0
H1227 H 0.46061 0.04791 0.48043 0.0
H1228 H 0.49574 0.02705 0.4686 0.0
H1229 H 0.53462 0.03728 0.60688 0.0
H1230 H 0.53503 0.01896 0.64397 0.0
H1231 H 0.51078 0.03591 0.64223 0.0
H1232 H 0.48066 1.00783 0.63888 0.0
H1233 H 0.50483 0.9908 0.63965 0.0
H1234 H 0.48337 0.99038 0.60039 0.0
H1235 H 0.53064 1.0037 0.47034 0.0
H1236 H 0.5643 0.98186 0.48578 0.0
H1237 H 0.54904 0.98758 0.60916 0.0
C1238 C 0.47467 0.0373 0.57537 0.0
C1239 C 0.46225 0.04565 0.54356 0.0
C1240 C 0.4703 0.04206 0.50511 0.0
C1241 C 0.49008 0.03007 0.49818 0.0
C1242 C 0.50159 0.02161 0.53004 0.0
C1243 C 0.49435 0.02525 0.56794 0.0
C1244 C 0.50929 0.01385 0.59691 0.0
C1245 C 0.52326 0.0273 0.6241 0.0
C1246 C 0.4936 0.99989 0.62034 0.0
C1247 C 0.52598 1.00316 0.56947 0.0
C1248 C 0.5212 1.00783 0.53099 0.0
C1249 C 0.53444 0.99995 0.50037 0.0
C1250 C 0.55338 0.98741 0.50932 0.0
C1251 C 0.55888 0.98271 0.54848 0.0
C1252 C 0.5448 0.99057 0.5789 0.0
H1253 H 0.02004 0.05891 0.86004 0.0
H1254 H 0.07862 0.04257 0.78373 0.0
H1255 H 0.06015 1.01096 0.77457 0.0
H1256 H 0.01206 1.01241 0.9059 0.0
H1257 H 0.97992 0.0141 0.90782 0.0
H1258 H 0.99785 0.0355 0.90931 0.0
H1259 H 0.97479 0.04887 0.84972 0.0
H1260 H 0.9569 0.02745 0.84789 0.0
H1261 H 0.9734 0.03503 0.80538 0.0
H1262 H 0.03506 0.98138 0.77143 0.0
H1263 H 1.00653 0.95485 0.77804 0.0
H1264 H 0.9631 0.9891 0.85638 0.0
C1265 C 0.02905 0.04873 0.84136 0.0
C1266 C 0.05113 0.0535 0.82287 0.0
C1267 C 0.06214 0.03944 0.799 0.0
C1268 C 0.05158 0.02139 0.79323 0.0
C1269 C 0.02985 0.01733 0.81144 0.0
C1270 C 0.01872 0.0305 0.83527 0.0
C1271 C 0.99543 0.02225 0.85148 0.0
C1272 C 0.99638 0.02099 0.89629 0.0
C1273 C 0.97385 0.03411 0.8378 0.0
C1274 C 0.99525 1.00237 0.83305 0.0
C1275 C 0.01531 1.00001 0.80991 0.0
C1276 C 0.01942 0.98306 0.78972 0.0
C1277 C 1.00304 0.96799 0.7938 0.0
C1278 C 0.98257 0.9696 0.81813 0.0
C1279 C 0.97846 0.9873 0.8375 0.0
H1280 H 0.07793 0.0854 0.66183 0.0
H1281 H 0.0982 0.14523 0.65956 0.0
H1282 H 0.11536 0.14105 0.59388 0.0
H1283 H 0.1271 0.0665 0.61363 0.0
H1284 H 0.11145 0.04941 0.58365 0.0
H1285 H 0.09888 0.05683 0.62967 0.0
H1286 H 0.05985 0.06767 0.59558 0.0
H1287 H 0.07188 0.05957 0.54965 0.0
H1288 H 0.06148 0.08385 0.55463 0.0
H1289 H 0.13634 0.1294 0.5351 0.0
H1290 H 0.14806 0.11407 0.47334 0.0
H1291 H 0.10997 0.06256 0.50687 0.0
C1292 C 0.08501 0.09775 0.64661 0.0
C1293 C 0.08674 0.11568 0.66559 0.0
C1294 C 0.09658 0.13147 0.64535 0.0
C1295 C 0.10667 0.12915 0.60828 0.0
C1296 C 0.10612 0.11106 0.59135 0.0
C1297 C 0.09455 0.09583 0.60877 0.0
C1298 C 0.09592 0.07815 0.58294 0.0
C1299 C 0.10912 0.06175 0.60373 0.0
C1300 C 0.07079 0.07195 0.56991 0.0
C1301 C 0.11048 0.0858 0.54878 0.0
C1302 C 0.11669 0.10468 0.55513 0.0
C1303 C 0.13108 0.11479 0.52925 0.0
C1304 C 0.1379 0.10587 0.4945 0.0
C1305 C 0.12975 0.08723 0.48521 0.0
C1306 C 0.11659 0.07676 0.51336 0.0
H1307 H 0.92671 0.63455 0.72683 0.0
H1308 H 0.9531 0.58165 0.67782 0.0
H1309 H 0.94634 0.56532 0.74136 0.0
H1310 H 0.9465 0.62782 0.8298 0.0
H1311 H 0.91913 0.638 0.84821 0.0
H1312 H 0.93098 0.64586 0.80196 0.0
H1313 H 0.89051 0.63756 0.76924 0.0
H1314 H 0.87875 0.6291 0.81502 0.0
H1315 H 0.87896 0.61356 0.77304 0.0
H1316 H 0.93255 0.55429 0.80986 0.0
H1317 H 0.91544 0.55028 0.87624 0.0
H1318 H 0.89334 0.60979 0.87486 0.0
C1319 C 0.93226 0.6198 0.73028 0.0
C1320 C 0.94122 0.60946 0.6981 0.0
C1321 C 0.94699 0.58989 0.70267 0.0
C1322 C 0.9429 0.58049 0.73849 0.0
C1323 C 0.93267 0.59085 0.76913 0.0
C1324 C 0.92759 0.61014 0.76529 0.0
C1325 C 0.91409 0.61761 0.80039 0.0
C1326 C 0.92854 0.63324 0.82134 0.0
C1327 C 0.88911 0.62488 0.7887 0.0
C1328 C 0.91243 0.59961 0.82479 0.0
C1329 C 0.92337 0.5843 0.80667 0.0
C1330 C 0.92401 0.56625 0.82427 0.0
C1331 C 0.91396 0.56402 0.86182 0.0
C1332 C 0.90317 0.57972 0.88123 0.0
C1333 C 0.90188 0.59753 0.86153 0.0
H1334 H 0.43922 0.44128 0.1573 0.0
H1335 H 0.4122 0.38321 0.15466 0.0
H1336 H 0.39466 0.38907 0.0897 0.0
H1337 H 0.3918 0.46408 0.1108 0.0
H1338 H 0.40915 0.48007 0.08072 0.0
H1339 H 0.42117 0.4715 0.12633 0.0
H1340 H 0.45847 0.45794 0.09115 0.0
H1341 H 0.44707 0.46717 0.04566 0.0
H1342 H 0.45459 0.44219 0.04998 0.0
H1343 H 0.3747 0.40253 0.03115 0.0
H1344 H 0.36485 0.41893 0.96945 0.0
H1345 H 0.40884 0.46714 1.00356 0.0
C1346 C 0.43052 0.42961 0.14215 0.0
C1347 C 0.42709 0.41174 0.1608 0.0
C1348 C 0.41517 0.39689 0.14064 0.0
C1349 C 0.40485 0.40019 0.10402 0.0
C1350 C 0.40721 0.41828 0.08741 0.0
C1351 C 0.42072 0.43247 0.10473 0.0
C1352 C 0.42122 0.45031 0.0792 0.0
C1353 C 0.41018 0.46751 0.10056 0.0
C1354 C 0.44686 0.45465 0.06568 0.0
C1355 C 0.40552 0.44396 0.0453 0.0
C1356 C 0.39711 0.42562 0.05151 0.0
C1357 C 0.38154 0.41674 0.02554 0.0
C1358 C 0.37573 0.42629 0.99089 0.0
C1359 C 0.38594 0.4443 0.98193 0.0
C1360 C 0.40045 0.45355 1.01004 0.0
H1361 H 0.60645 0.9657 0.36036 0.0
H1362 H 0.6482 0.91604 0.39371 0.0
H1363 H 0.63733 0.90013 0.33207 0.0
H1364 H 0.55945 0.94256 0.31418 0.0
H1365 H 0.55633 0.95853 0.27313 0.0
H1366 H 0.56844 0.96723 0.31853 0.0
H1367 H 0.60689 0.97877 0.28351 0.0
H1368 H 0.59443 0.97084 0.23779 0.0
H1369 H 0.62333 0.96228 0.25322 0.0
H1370 H 0.61662 0.88745 0.27369 0.0
H1371 H 0.59888 0.88234 0.20866 0.0
H1372 H 0.57461 0.94121 0.20652 0.0
C1373 C 0.61412 0.95186 0.35374 0.0
C1374 C 0.62821 0.94207 0.38168 0.0
C1375 C 0.63755 0.92379 0.37247 0.0
C1376 C 0.63119 0.91453 0.33783 0.0
C1377 C 0.616 0.92396 0.31205 0.0
C1378 C 0.60853 0.94255 0.3184 0.0
C1379 C 0.59312 0.94946 0.28457 0.0
C1380 C 0.56783 0.95476 0.29846 0.0
C1381 C 0.60516 0.96634 0.26352 0.0
C1382 C 0.59267 0.93168 0.259 0.0
C1383 C 0.60548 0.91702 0.27619 0.0
C1384 C 0.60697 0.89892 0.25946 0.0
C1385 C 0.59652 0.89605 0.2228 0.0
C1386 C 0.58536 0.91133 0.20275 0.0
C1387 C 0.58271 0.92922 0.22159 0.0
H1388 H 0.07327 0.44239 0.70716 0.0
H1389 H 0.09262 0.38243 0.7126 0.0
H1390 H 0.10957 0.38724 0.77828 0.0
H1391 H 0.12248 0.46129 0.75393 0.0
H1392 H 0.10732 0.479 0.78308 0.0
H1393 H 0.09438 0.4711 0.73769 0.0
H1394 H 0.05531 0.46121 0.7728 0.0
H1395 H 0.06768 0.46985 0.81807 0.0
H1396 H 0.05681 0.44563 0.81473 0.0
H1397 H 0.13118 0.39955 0.83592 0.0
H1398 H 0.1436 0.41566 0.89645 0.0
H1399 H 0.10585 0.46698 0.86074 0.0
C1400 C 0.07995 0.43015 0.72317 0.0
C1401 C 0.0815 0.41197 0.70509 0.0
C1402 C 0.09097 0.39633 0.72627 0.0
C1403 C 0.101 0.39902 0.76328 0.0
C1404 C 0.10074 0.41733 0.77922 0.0
C1405 C 0.08941 0.43245 0.76098 0.0
C1406 C 0.09123 0.45049 0.78571 0.0
C1407 C 0.10465 0.46641 0.76378 0.0
C1408 C 0.06627 0.45719 0.79861 0.0
C1409 C 0.1058 0.44317 0.82016 0.0
C1410 C 0.11165 0.42413 0.81487 0.0
C1411 C 0.12617 0.41429 0.84099 0.0
C1412 C 0.13343 0.42366 0.87499 0.0
C1413 C 0.12557 0.44249 0.88339 0.0
C1414 C 0.11228 0.45266 0.85493 0.0
H1415 H 0.58652 0.63169 0.14151 0.0
H1416 H 0.55934 0.57896 0.19032 0.0
H1417 H 0.56593 0.56266 0.12676 0.0
H1418 H 0.56664 0.62534 0.03858 0.0
H1419 H 0.59415 0.63531 0.0202 0.0
H1420 H 0.58243 0.64317 0.0665 0.0
H1421 H 0.62279 0.63443 0.09912 0.0
H1422 H 0.63442 0.62596 0.05329 0.0
H1423 H 0.634 0.61034 0.09522 0.0
H1424 H 0.57956 0.55163 0.05804 0.0
H1425 H 0.59645 0.5477 0.99144 0.0
H1426 H 0.6194 0.60697 0.99332 0.0
C1427 C 0.58077 0.61699 0.13801 0.0
C1428 C 0.5716 0.60669 0.17013 0.0
C1429 C 0.56559 0.58718 0.1655 0.0
C1430 C 0.56959 0.57779 0.12967 0.0
C1431 C 0.57999 0.5881 0.09907 0.0
C1432 C 0.58534 0.60734 0.10299 0.0
C1433 C 0.59892 0.61476 0.06792 0.0
C1434 C 0.58468 0.63058 0.04706 0.0
C1435 C 0.62401 0.62178 0.0796 0.0
C1436 C 0.60032 0.5968 0.04344 0.0
C1437 C 0.58919 0.58154 0.06149 0.0
C1438 C 0.58824 0.56355 0.0437 0.0
C1439 C 0.59816 0.56136 1.00603 0.0
C1440 C 0.60909 0.57703 0.98672 0.0
C1441 C 0.61074 0.59474 1.00663 0.0
H1442 H 0.41158 0.06396 0.35755 0.0
H1443 H 0.37585 0.1165 0.39135 0.0
H1444 H 0.38935 0.13195 0.33074 0.0
H1445 H 0.46178 0.08366 0.31087 0.0
H1446 H 0.46243 0.0677 0.26956 0.0
H1447 H 0.44972 0.05983 0.31521 0.0
H1448 H 0.40965 0.05165 0.28106 0.0
H1449 H 0.42265 0.05874 0.23513 0.0
H1450 H 0.39515 0.06954 0.2514 0.0
H1451 H 0.41103 0.14326 0.27252 0.0
H1452 H 0.42721 0.14704 0.20608 0.0
H1453 H 0.44478 0.08668 0.20304 0.0
C1454 C 0.40598 0.07848 0.35145 0.0
C1455 C 0.39307 0.08917 0.37955 0.0
C1456 C 0.38603 0.10816 0.37049 0.0
C1457 C 0.39383 0.11714 0.33636 0.0
C1458 C 0.408 0.10677 0.31067 0.0
C1459 C 0.413 0.08761 0.31651 0.0
C1460 C 0.42712 0.07968 0.28213 0.0
C1461 C 0.45172 0.07228 0.29525 0.0
C1462 C 0.41279 0.06397 0.26118 0.0
C1463 C 0.42958 0.09749 0.25679 0.0
C1464 C 0.41898 0.11302 0.27466 0.0
C1465 C 0.41909 0.13117 0.25786 0.0
C1466 C 0.42868 0.13326 0.22037 0.0
C1467 C 0.43737 0.11721 0.19966 0.0
C1468 C 0.43874 0.09923 0.21867 0.0
H1469 H 0.94623 0.94094 0.65963 0.0
H1470 H 0.92327 0.88176 0.66206 0.0
H1471 H 0.90579 0.88539 0.59646 0.0
H1472 H 0.89726 0.96024 0.61297 0.0
H1473 H 0.9128 0.9767 0.58133 0.0
H1474 H 0.92609 0.9695 0.62697 0.0
H1475 H 0.96403 0.95749 0.59134 0.0
H1476 H 0.95133 0.96538 0.54571 0.0
H1477 H 0.96105 0.94095 0.55126 0.0
H1478 H 0.8844 0.89682 0.53789 0.0
H1479 H 0.87155 0.91193 0.47646 0.0
H1480 H 0.91194 0.96295 0.50552 0.0
C1481 C 0.9386 0.92855 0.64536 0.0
C1482 C 0.93609 0.91103 0.66575 0.0
C1483 C 0.92546 0.89521 0.6468 0.0
C1484 C 0.9152 0.89723 0.60977 0.0
C1485 C 0.91636 0.91504 0.5916 0.0
C1486 C 0.92874 0.93019 0.60769 0.0
C1487 C 0.92741 0.94765 0.58113 0.0
C1488 C 0.91516 0.96452 0.60185 0.0
C1489 C 0.95245 0.95319 0.56648 0.0
C1490 C 0.91192 0.93998 0.54815 0.0
C1491 C 0.90532 0.92128 0.55562 0.0
C1492 C 0.88999 0.91127 0.53111 0.0
C1493 C 0.88255 0.92007 0.49653 0.0
C1494 C 0.89096 0.9385 0.48603 0.0
C1495 C 0.90514 0.9489 0.51288 0.0
H1496 H 0.11139 0.15091 0.97468 0.0
H1497 H 0.07805 0.10189 0.92002 0.0
H1498 H 0.08395 0.08312 0.98067 0.0
H1499 H 0.15631 0.12543 0.02537 0.0
H1500 H 0.15573 0.13979 0.06906 0.0
H1501 H 0.14707 0.1501 0.02292 0.0
H1502 H 0.10615 0.15997 0.05175 0.0
H1503 H 0.11482 0.15 0.09821 0.0
H1504 H 0.08764 0.14216 0.07493 0.0
H1505 H 0.09731 0.06863 0.04466 0.0
H1506 H 0.11209 0.06033 0.11004 0.0
H1507 H 0.13574 0.11892 0.12678 0.0
C1508 C 0.10467 0.13641 0.97606 0.0
C1509 C 0.09378 0.12795 0.94274 0.0
C1510 C 0.08589 0.10877 0.94531 0.0
C1511 C 0.08943 0.09795 0.97958 0.0
C1512 C 0.10088 0.10646 1.01144 0.0
C1513 C 0.10801 0.12537 1.01032 0.0
C1514 C 0.1204 0.13084 0.0485 0.0
C1515 C 0.14642 0.1369 0.041 0.0
C1516 C 0.10642 0.14668 0.0696 0.0
C1517 C 0.11931 0.11203 0.07113 0.0
C1518 C 0.10811 0.09818 0.0489 0.0
C1519 C 0.10563 0.07951 0.06255 0.0
C1520 C 0.11407 0.07495 0.10013 0.0
C1521 C 0.12473 0.08896 0.1247 0.0
C1522 C 0.12772 0.10775 0.10928 0.0
H1523 H 0.90231 0.65069 0.39676 0.0
H1524 H 0.9381 0.6018 0.44797 0.0
H1525 H 0.93262 0.5838 0.38633 0.0
H1526 H 0.85835 0.6247 0.34379 0.0
H1527 H 0.85847 0.63985 0.30115 0.0
H1528 H 0.86646 0.64957 0.3481 0.0
H1529 H 0.907 0.66112 0.32046 0.0
H1530 H 0.89899 0.65172 0.27323 0.0
H1531 H 0.92642 0.64427 0.29634 0.0
H1532 H 0.91998 0.57003 0.32159 0.0
H1533 H 0.90612 0.56246 0.25539 0.0
H1534 H 0.87984 0.62056 0.24202 0.0
C1535 C 0.90955 0.63638 0.39447 0.0
C1536 C 0.92107 0.62773 0.42708 0.0
C1537 C 0.92971 0.60881 0.42327 0.0
C1538 C 0.92644 0.59843 0.38843 0.0
C1539 C 0.91452 0.60713 0.3572 0.0
C1540 C 0.90656 0.62579 0.35953 0.0
C1541 C 0.89409 0.63156 0.32155 0.0
C1542 C 0.86778 0.63673 0.32911 0.0
C1543 C 0.90742 0.64815 0.30172 0.0
C1544 C 0.89613 0.61319 0.29763 0.0
C1545 C 0.90782 0.59929 0.31913 0.0
C1546 C 0.91127 0.58096 0.30428 0.0
C1547 C 0.90334 0.57682 0.26625 0.0
C1548 C 0.89226 0.59093 0.24235 0.0
C1549 C 0.88823 0.60934 0.25898 0.0
H1550 H 0.39305 0.44907 0.59444 0.0
H1551 H 0.38413 0.39477 0.65395 0.0
H1552 H 0.39658 0.37775 0.59403 0.0
H1553 H 0.36955 0.43263 0.50116 0.0
H1554 H 0.38982 0.44697 0.47256 0.0
H1555 H 0.38094 0.45481 0.52051 0.0
H1556 H 0.42548 0.45706 0.54063 0.0
H1557 H 0.43444 0.44896 0.49287 0.0
H1558 H 0.44441 0.43633 0.53581 0.0
H1559 H 0.41094 0.36638 0.52695 0.0
H1560 H 0.42074 0.36173 0.45694 0.0
H1561 H 0.41853 0.423 0.43918 0.0
C1562 C 0.3937 0.43359 0.59484 0.0
C1563 C 0.38752 0.42331 0.62928 0.0
C1564 C 0.38846 0.40304 0.62813 0.0
C1565 C 0.39575 0.39322 0.59419 0.0
C1566 C 0.40189 0.40374 0.56096 0.0
C1567 C 0.40052 0.42349 0.56079 0.0
C1568 C 0.40688 0.43132 0.52052 0.0
C1569 C 0.38552 0.44207 0.50263 0.0
C1570 C 0.42913 0.44418 0.5226 0.0
C1571 C 0.41216 0.41295 0.49816 0.0
C1572 C 0.40949 0.39719 0.5222 0.0
C1573 C 0.41318 0.37866 0.50804 0.0
C1574 C 0.41905 0.37612 0.46827 0.0
C1575 C 0.42115 0.39198 0.44271 0.0
C1576 C 0.41777 0.41063 0.4582 0.0
H1577 H 0.62255 0.94871 0.76881 0.0
H1578 H 0.63233 0.89428 0.71043 0.0
H1579 H 0.61948 0.87739 0.77036 0.0
H1580 H 0.64528 0.93264 0.863 0.0
H1581 H 0.62465 0.947 0.8908 0.0
H1582 H 0.63397 0.95471 0.84295 0.0
H1583 H 0.58962 0.95676 0.82161 0.0
H1584 H 0.58022 0.94876 0.86926 0.0
H1585 H 0.57076 0.93598 0.82627 0.0
H1586 H 0.60454 0.86617 0.83725 0.0
H1587 H 0.59407 0.8617 0.90706 0.0
H1588 H 0.59573 0.92304 0.92379 0.0
C1589 C 0.62203 0.93323 0.76866 0.0
C1590 C 0.62856 0.92288 0.73454 0.0
C1591 C 0.62774 0.9026 0.73601 0.0
C1592 C 0.62022 0.89286 0.76995 0.0
C1593 C 0.61372 0.90346 0.80284 0.0
C1594 C 0.61496 0.92321 0.80271 0.0
C1595 C 0.60816 0.93114 0.84266 0.0
C1596 C 0.62927 0.94201 0.86093 0.0
C1597 C 0.58586 0.94392 0.83976 0.0
C1598 C 0.60276 0.91282 0.86517 0.0
C1599 C 0.60577 0.897 0.8415 0.0
C1600 C 0.60205 0.8785 0.85588 0.0
C1601 C 0.59578 0.87607 0.89552 0.0
C1602 C 0.59334 0.892 0.92073 0.0
C1603 C 0.59675 0.91061 0.90502 0.0
H1604 H 0.09553 0.427 0.42485 0.0
H1605 H 0.09537 0.36561 0.40862 0.0
H1606 H 0.10638 0.37007 0.33904 0.0
H1607 H 0.07094 0.43921 0.32695 0.0
H1608 H 0.08922 0.46033 0.32248 0.0
H1609 H 0.07982 0.4522 0.37004 0.0
H1610 H 0.124 0.45125 0.39236 0.0
H1611 H 0.13359 0.45907 0.34472 0.0
H1612 H 0.14527 0.43721 0.36514 0.0
H1613 H 0.12143 0.38133 0.27232 0.0
H1614 H 0.13414 0.39824 0.21235 0.0
H1615 H 0.12277 0.45268 0.26998 0.0
C1616 C 0.09705 0.41454 0.40622 0.0
C1617 C 0.09388 0.39592 0.422 0.0
C1618 C 0.09692 0.37998 0.39701 0.0
C1619 C 0.10347 0.38241 0.3575 0.0
C1620 C 0.10686 0.40092 0.34302 0.0
C1621 C 0.1033 0.41675 0.36646 0.0
C1622 C 0.10841 0.43509 0.34379 0.0
C1623 C 0.08575 0.44744 0.34063 0.0
C1624 C 0.12904 0.44632 0.36263 0.0
C1625 C 0.11567 0.42716 0.30407 0.0
C1626 C 0.11491 0.40739 0.30443 0.0
C1627 C 0.12182 0.3968 0.27175 0.0
C1628 C 0.12926 0.40656 0.23778 0.0
C1629 C 0.12958 0.42685 0.23608 0.0
C1630 C 0.12265 0.43719 0.27 0.0
H1631 H 0.61943 0.57699 0.60119 0.0
H1632 H 0.63607 0.63151 0.65497 0.0
H1633 H 0.62508 0.64811 0.59375 0.0
H1634 H 0.64329 0.58934 0.50522 0.0
H1635 H 0.62074 0.57617 0.479 0.0
H1636 H 0.62952 0.56867 0.52727 0.0
H1637 H 0.58537 0.57054 0.54965 0.0
H1638 H 0.57653 0.57829 0.50155 0.0
H1639 H 0.56908 0.5926 0.54359 0.0
H1640 H 0.61091 0.65915 0.52623 0.0
H1641 H 0.59968 0.66311 0.45661 0.0
H1642 H 0.59401 0.60165 0.4447 0.0
C1643 C 0.62083 0.59243 0.60007 0.0
C1644 C 0.62874 0.60287 0.63331 0.0
C1645 C 0.63041 0.62307 0.63012 0.0
C1646 C 0.62397 0.63268 0.59542 0.0
C1647 C 0.61605 0.62201 0.56346 0.0
C1648 C 0.61486 0.60227 0.56524 0.0
C1649 C 0.60673 0.59415 0.52609 0.0
C1650 C 0.62623 0.58132 0.50835 0.0
C1651 C 0.58302 0.58325 0.5305 0.0
C1652 C 0.60336 0.61235 0.50213 0.0
C1653 C 0.60855 0.6283 0.52442 0.0
C1654 C 0.60676 0.64672 0.50868 0.0
C1655 C 0.6001 0.64888 0.46915 0.0
C1656 C 0.59532 0.63277 0.44535 0.0
C1657 C 0.59695 0.61427 0.46236 0.0
H1658 H 0.37966 0.11616 0.73732 0.0
H1659 H 0.40367 0.05761 0.75369 0.0
H1660 H 0.4181 0.06572 0.81932 0.0
H1661 H 0.42728 0.13937 0.78957 0.0
H1662 H 0.4086 0.15705 0.81271 0.0
H1663 H 0.40004 0.14709 0.76622 0.0
H1664 H 0.35928 0.13661 0.79494 0.0
H1665 H 0.36759 0.14683 0.84129 0.0
H1666 H 0.35864 0.12211 0.83852 0.0
H1667 H 0.43135 0.08001 0.88322 0.0
H1668 H 0.43735 0.09861 0.94395 0.0
H1669 H 0.40351 0.1477 0.89009 0.0
C1670 C 0.38767 0.10496 0.75483 0.0
C1671 C 0.39088 0.08624 0.73925 0.0
C1672 C 0.40151 0.07218 0.76378 0.0
C1673 C 0.40976 0.07663 0.80147 0.0
C1674 C 0.40709 0.09524 0.81529 0.0
C1675 C 0.39587 0.10913 0.79313 0.0
C1676 C 0.39462 0.12786 0.816 0.0
C1677 C 0.40846 0.14379 0.79485 0.0
C1678 C 0.36848 0.1337 0.82311 0.0
C1679 C 0.40695 0.12228 0.85416 0.0
C1680 C 0.4142 0.10341 0.85283 0.0
C1681 C 0.42577 0.09481 0.88451 0.0
C1682 C 0.42936 0.10554 0.91881 0.0
C1683 C 0.42144 0.12469 0.92157 0.0
C1684 C 0.41032 0.13322 0.8885 0.0
H1685 H 0.8806 0.90949 0.12719 0.0
H1686 H 0.90659 0.96756 0.11192 0.0
H1687 H 0.92157 0.95923 0.04674 0.0
H1688 H 0.92799 0.88532 0.07608 0.0
H1689 H 0.90894 0.86812 0.05226 0.0
H1690 H 0.90026 0.87816 0.09861 0.0
H1691 H 0.86018 0.88964 0.06892 0.0
H1692 H 0.86858 0.87932 0.02272 0.0
H1693 H 0.86048 0.90423 0.02547 0.0
H1694 H 0.93501 0.94478 0.98308 0.0
H1695 H 0.94062 0.92628 0.92213 0.0
H1696 H 0.90466 0.87784 0.97473 0.0
C1697 C 0.88917 0.92054 0.11003 0.0
C1698 C 0.89278 0.93917 0.12583 0.0
C1699 C 0.90413 0.95305 0.10172 0.0
C1700 C 0.9127 0.94847 0.06427 0.0
C1701 C 0.90962 0.92994 0.05027 0.0
C1702 C 0.89769 0.91626 0.07198 0.0
C1703 C 0.89601 0.89762 0.0489 0.0
C1704 C 0.90908 0.88134 0.07025 0.0
C1705 C 0.86975 0.8924 0.04104 0.0
C1706 C 0.90892 0.903 1.01113 0.0
C1707 C 0.91684 0.9217 1.01285 0.0
C1708 C 0.92893 0.93011 0.98151 0.0
C1709 C 0.93231 0.91943 0.94709 0.0
C1710 C 0.92365 0.9005 0.94388 0.0
C1711 C 0.91209 0.89211 0.97669 0.0
loop_
_geom_bond_atom_site_label_1
_geom_bond_atom_site_label_2
_geom_bond_distance
_geom_bond_site_symmetry_2
_ccdc_geom_bond_type
C0 C1 1.443 . S
C0 N4 1.376 . S
C0 C38 1.389 . S
C1 C0 1.443 . S
C1 C2 1.340 . S
C1 H41 0.951 . S
C2 C1 1.340 . S
C2 C3 1.439 . S
C2 H42 0.950 . S
C3 C2 1.439 . S
C3 N4 1.374 . S
C3 C37 1.395 . S
N4 C0 1.376 . S
N4 C3 1.374 . S
N4 Co5 2.008 . S
Co5 N4 2.008 . S
Co5 N6 1.995 . S
Co5 N11 2.008 . S
Co5 N16 1.995 . S
Co5 N21 2.282 . S
Co5 N27 2.282 . S
N6 Co5 1.995 . S
N6 C7 1.376 . S
N6 C10 1.383 . S
C7 N6 1.376 . S
C7 C8 1.446 . S
C7 C37 1.391 . S
C8 C7 1.446 . S
C8 C9 1.339 . S
C8 H43 0.949 . S
C9 C8 1.339 . S
C9 C10 1.439 . S
C9 H44 0.950 . S
C10 N6 1.383 . S
C10 C9 1.439 . S
C10 C39 1.392 . S
N11 Co5 2.008 . S
N11 C12 1.376 . S
N11 C15 1.374 . S
C12 N11 1.376 . S
C12 C13 1.443 . S
C12 C39 1.389 . S
C13 C12 1.443 . S
C13 C14 1.340 . S
C13 H45 0.951 . S
C14 C13 1.340 . S
C14 C15 1.439 . S
C14 H46 0.950 . S
C15 N11 1.374 . S
C15 C14 1.439 . S
C15 C40 1.395 . S
N16 Co5 1.995 . S
N16 C17 1.376 . S
N16 C20 1.383 . S
C17 N16 1.376 . S
C17 C18 1.446 . S
C17 C40 1.391 . S
C18 C17 1.446 . S
C18 C19 1.339 . S
C18 H47 0.949 . S
C19 C18 1.339 . S
C19 C20 1.439 . S
C19 H48 0.950 . S
C20 N16 1.383 . S
C20 C19 1.439 . S
C20 C38 1.392 . S
N21 Co5 2.282 . S
N21 C24 1.332 . S
N21 C26 1.332 . S
C22 C23 1.386 . S
C22 C25 1.388 . S
C23 C22 1.386 . S
C23 C24 1.382 . S
C23 H49 0.950 . S
C24 N21 1.332 . S
C24 C23 1.382 . S
C24 H35 0.952 . S
C25 C22 1.388 . S
C25 C26 1.382 . S
C25 H50 0.950 . S
C26 N21 1.332 . S
C26 C25 1.382 . S
C26 H36 0.948 . S
N27 Co5 2.282 . S
N27 C31 1.332 . S
N27 C32 1.332 . S
C28 C29 1.388 . S
C28 C32 1.382 . S
C28 H51 0.950 . S
C29 C28 1.388 . S
C29 C30 1.386 . S
C30 C29 1.386 . S
C30 C31 1.382 . S
C30 H52 0.950 . S
C31 N27 1.332 . S
C31 C30 1.382 . S
C31 H33 0.952 . S
C32 N27 1.332 . S
C32 C28 1.382 . S
C32 H34 0.948 . S
H33 C31 0.952 . S
H34 C32 0.948 . S
H35 C24 0.952 . S
H36 C26 0.948 . S
C37 C3 1.395 . S
C37 C7 1.391 . S
C38 C0 1.389 . S
C38 C20 1.392 . S
C39 C10 1.392 . S
C39 C12 1.389 . S
C40 C15 1.395 . S
C40 C17 1.391 . S
H41 C1 0.951 . S
H42 C2 0.950 . S
H43 C8 0.949 . S
H44 C9 0.950 . S
H45 C13 0.951 . S
H46 C14 0.950 . S
H47 C18 0.949 . S
H48 C19 0.950 . S
H49 C23 0.950 . S
H50 C25 0.950 . S
H51 C28 0.950 . S
H52 C30 0.950 . S
C53 C54 1.443 . S
C53 N57 1.376 . S
C53 C91 1.389 . S
C54 C53 1.443 . S
C54 C55 1.340 . S
C54 H94 0.951 . S
C55 C54 1.340 . S
C55 C56 1.439 . S
C55 H95 0.950 . S
C56 C55 1.439 . S
C56 N57 1.374 . S
C56 C90 1.395 . S
N57 C53 1.376 . S
N57 C56 1.374 . S
N57 Co58 2.008 . S
Co58 N57 2.008 . S
Co58 N59 1.995 . S
Co58 N64 2.008 . S
Co58 N69 1.995 . S
Co58 N74 2.282 . S
Co58 N80 2.282 . S
N59 Co58 1.995 . S
N59 C60 1.376 . S
N59 C63 1.383 . S
C60 N59 1.376 . S
C60 C61 1.446 . S
C60 C90 1.391 . S
C61 C60 1.446 . S
C61 C62 1.339 . S
C61 H96 0.949 . S
C62 C61 1.339 . S
C62 C63 1.439 . S
C62 H97 0.950 . S
C63 N59 1.383 . S
C63 C62 1.439 . S
C63 C92 1.392 . S
N64 Co58 2.008 . S
N64 C65 1.376 . S
N64 C68 1.374 . S
C65 N64 1.376 . S
C65 C66 1.443 . S
C65 C92 1.389 . S
C66 C65 1.443 . S
C66 C67 1.340 . S
C66 H98 0.951 . S
C67 C66 1.340 . S
C67 C68 1.439 . S
C67 H99 0.950 . S
C68 N64 1.374 . S
C68 C67 1.439 . S
C68 C93 1.395 . S
N69 Co58 1.995 . S
N69 C70 1.376 . S
N69 C73 1.383 . S
C70 N69 1.376 . S
C70 C71 1.446 . S
C70 C93 1.391 . S
C71 C70 1.446 . S
C71 C72 1.339 . S
C71 H100 0.949 . S
C72 C71 1.339 . S
C72 C73 1.439 . S
C72 H101 0.950 . S
C73 N69 1.383 . S
C73 C72 1.439 . S
C73 C91 1.392 . S
N74 Co58 2.282 . S
N74 C77 1.332 . S
N74 C79 1.332 . S
C75 C76 1.386 . S
C75 C78 1.388 . S
C76 C75 1.386 . S
C76 C77 1.382 . S
C76 H102 0.950 . S
C77 N74 1.332 . S
C77 C76 1.382 . S
C77 H88 0.952 . S
C78 C75 1.388 . S
C78 C79 1.382 . S
C78 H103 0.950 . S
C79 N74 1.332 . S
C79 C78 1.382 . S
C79 H89 0.948 . S
N80 Co58 2.282 . S
N80 C84 1.332 . S
N80 C85 1.332 . S
C81 C82 1.388 . S
C81 C85 1.382 . S
C81 H104 0.950 . S
C82 C81 1.388 . S
C82 C83 1.386 . S
C83 C82 1.386 . S
C83 C84 1.382 . S
C83 H105 0.950 . S
C84 N80 1.332 . S
C84 C83 1.382 . S
C84 H86 0.952 . S
C85 N80 1.332 . S
C85 C81 1.382 . S
C85 H87 0.948 . S
H86 C84 0.952 . S
H87 C85 0.948 . S
H88 C77 0.952 . S
H89 C79 0.948 . S
C90 C56 1.395 . S
C90 C60 1.391 . S
C91 C53 1.389 . S
C91 C73 1.392 . S
C92 C63 1.392 . S
C92 C65 1.389 . S
C93 C68 1.395 . S
C93 C70 1.391 . S
H94 C54 0.951 . S
H95 C55 0.950 . S
H96 C61 0.949 . S
H97 C62 0.950 . S
H98 C66 0.951 . S
H99 C67 0.950 . S
H100 C71 0.949 . S
H101 C72 0.950 . S
H102 C76 0.950 . S
H103 C78 0.950 . S
H104 C81 0.950 . S
H105 C83 0.950 . S
C106 C107 1.443 . S
C106 N110 1.376 . S
C106 C144 1.389 . S
C107 C106 1.443 . S
C107 C108 1.340 . S
C107 H147 0.951 . S
C108 C107 1.340 . S
C108 C109 1.439 . S
C108 H148 0.950 . S
C109 C108 1.439 . S
C109 N110 1.374 . S
C109 C143 1.395 . S
N110 C106 1.376 . S
N110 C109 1.374 . S
N110 Co111 2.008 . S
Co111 N110 2.008 . S
Co111 N112 1.995 . S
Co111 N117 2.008 . S
Co111 N122 1.995 . S
Co111 N127 2.282 . S
Co111 N133 2.282 . S
N112 Co111 1.995 . S
N112 C113 1.376 . S
N112 C116 1.383 . S
C113 N112 1.376 . S
C113 C114 1.446 . S
C113 C143 1.391 . S
C114 C113 1.446 . S
C114 C115 1.339 . S
C114 H149 0.949 . S
C115 C114 1.339 . S
C115 C116 1.439 . S
C115 H150 0.950 . S
C116 N112 1.383 . S
C116 C115 1.439 . S
C116 C145 1.392 . S
N117 Co111 2.008 . S
N117 C118 1.376 . S
N117 C121 1.374 . S
C118 N117 1.376 . S
C118 C119 1.443 . S
C118 C145 1.389 . S
C119 C118 1.443 . S
C119 C120 1.340 . S
C119 H151 0.951 . S
C120 C119 1.340 . S
C120 C121 1.439 . S
C120 H152 0.950 . S
C121 N117 1.374 . S
C121 C120 1.439 . S
C121 C146 1.395 . S
N122 Co111 1.995 . S
N122 C123 1.376 . S
N122 C126 1.383 . S
C123 N122 1.376 . S
C123 C124 1.446 . S
C123 C146 1.391 . S
C124 C123 1.446 . S
C124 C125 1.339 . S
C124 H153 0.949 . S
C125 C124 1.339 . S
C125 C126 1.439 . S
C125 H154 0.950 . S
C126 N122 1.383 . S
C126 C125 1.439 . S
C126 C144 1.392 . S
N127 Co111 2.282 . S
N127 C130 1.332 . S
N127 C132 1.332 . S
C128 C129 1.386 . S
C128 C131 1.388 . S
C129 C128 1.386 . S
C129 C130 1.382 . S
C129 H155 0.950 . S
C130 N127 1.332 . S
C130 C129 1.382 . S
C130 H141 0.952 . S
C131 C128 1.388 . S
C131 C132 1.382 . S
C131 H156 0.950 . S
C132 N127 1.332 . S
C132 C131 1.382 . S
C132 H142 0.948 . S
N133 Co111 2.282 . S
N133 C137 1.332 . S
N133 C138 1.332 . S
C134 C135 1.388 . S
C134 C138 1.382 . S
C134 H157 0.950 . S
C135 C134 1.388 . S
C135 C136 1.386 . S
C136 C135 1.386 . S
C136 C137 1.382 . S
C136 H158 0.950 . S
C137 N133 1.332 . S
C137 C136 1.382 . S
C137 H139 0.952 . S
C138 N133 1.332 . S
C138 C134 1.382 . S
C138 H140 0.948 . S
H139 C137 0.952 . S
H140 C138 0.948 . S
H141 C130 0.952 . S
H142 C132 0.948 . S
C143 C109 1.395 . S
C143 C113 1.391 . S
C144 C106 1.389 . S
C144 C126 1.392 . S
C145 C116 1.392 . S
C145 C118 1.389 . S
C146 C121 1.395 . S
C146 C123 1.391 . S
H147 C107 0.951 . S
H148 C108 0.950 . S
H149 C114 0.949 . S
H150 C115 0.950 . S
H151 C119 0.951 . S
H152 C120 0.950 . S
H153 C124 0.949 . S
H154 C125 0.950 . S
H155 C129 0.950 . S
H156 C131 0.950 . S
H157 C134 0.950 . S
H158 C136 0.950 . S
C159 C160 1.443 . S
C159 N163 1.376 1_556 S
C159 C197 1.389 . S
C160 C159 1.443 . S
C160 C161 1.340 . S
C160 H200 0.951 . S
C161 C160 1.340 . S
C161 C162 1.439 1_556 S
C161 H201 0.950 . S
C162 C161 1.439 1_554 S
C162 N163 1.374 . S
C162 C196 1.395 . S
N163 C159 1.376 1_554 S
N163 C162 1.374 . S
N163 Co164 2.008 . S
Co164 N163 2.008 . S
Co164 N165 1.995 . S
Co164 N170 2.008 . S
Co164 N175 1.995 . S
Co164 N180 2.282 . S
Co164 N186 2.282 . S
N165 Co164 1.995 . S
N165 C166 1.376 . S
N165 C169 1.383 . S
C166 N165 1.376 . S
C166 C167 1.446 . S
C166 C196 1.391 . S
C167 C166 1.446 . S
C167 C168 1.339 . S
C167 H202 0.949 . S
C168 C167 1.339 . S
C168 C169 1.439 . S
C168 H203 0.950 . S
C169 N165 1.383 . S
C169 C168 1.439 . S
C169 C198 1.392 . S
N170 Co164 2.008 . S
N170 C171 1.376 . S
N170 C174 1.374 . S
C171 N170 1.376 . S
C171 C172 1.443 . S
C171 C198 1.389 . S
C172 C171 1.443 . S
C172 C173 1.340 . S
C172 H204 0.951 . S
C173 C172 1.340 . S
C173 C174 1.439 . S
C173 H205 0.950 . S
C174 N170 1.374 . S
C174 C173 1.439 . S
C174 C199 1.395 . S
N175 Co164 1.995 . S
N175 C176 1.376 . S
N175 C179 1.383 1_554 S
C176 N175 1.376 . S
C176 C177 1.446 1_554 S
C176 C199 1.391 . S
C177 C176 1.446 1_556 S
C177 C178 1.339 . S
C177 H206 0.949 . S
C178 C177 1.339 . S
C178 C179 1.439 . S
C178 H207 0.950 . S
C179 N175 1.383 1_556 S
C179 C178 1.439 . S
C179 C197 1.392 . S
N180 Co164 2.282 . S
N180 C183 1.332 . S
N180 C185 1.332 . S
C181 C182 1.386 . S
C181 C184 1.388 . S
C182 C181 1.386 . S
C182 C183 1.382 . S
C182 H208 0.950 . S
C183 N180 1.332 . S
C183 C182 1.382 . S
C183 H194 0.952 . S
C184 C181 1.388 . S
C184 C185 1.382 . S
C184 H209 0.950 . S
C185 N180 1.332 . S
C185 C184 1.382 . S
C185 H195 0.948 . S
N186 Co164 2.282 . S
N186 C190 1.332 . S
N186 C191 1.332 . S
C187 C188 1.388 . S
C187 C191 1.382 . S
C187 H210 0.950 1_554 S
C188 C187 1.388 . S
C188 C189 1.386 . S
C189 C188 1.386 . S
C189 C190 1.382 . S
C189 H211 0.950 . S
C190 N186 1.332 . S
C190 C189 1.382 . S
C190 H192 0.952 . S
C191 N186 1.332 . S
C191 C187 1.382 . S
C191 H193 0.948 . S
H192 C190 0.952 . S
H193 C191 0.948 . S
H194 C183 0.952 . S
H195 C185 0.948 . S
C196 C162 1.395 . S
C196 C166 1.391 . S
C197 C159 1.389 . S
C197 C179 1.392 . S
C198 C169 1.392 . S
C198 C171 1.389 . S
C199 C174 1.395 . S
C199 C176 1.391 . S
H200 C160 0.951 . S
H201 C161 0.950 . S
H202 C167 0.949 . S
H203 C168 0.950 . S
H204 C172 0.951 . S
H205 C173 0.950 . S
H206 C177 0.949 . S
H207 C178 0.950 . S
H208 C182 0.950 . S
H209 C184 0.950 . S
H210 C187 0.950 1_556 S
H211 C189 0.950 . S
C212 C213 1.436 1_554 S
C212 N216 1.384 . S
C212 C250 1.388 1_554 S
C213 C212 1.436 1_556 S
C213 C214 1.340 . S
C213 H253 0.951 . S
C214 C213 1.340 . S
C214 C215 1.439 1_556 S
C214 H254 0.950 . S
C215 C214 1.439 1_554 S
C215 N216 1.374 . S
C215 C249 1.395 . S
N216 C212 1.384 . S
N216 C215 1.374 . S
N216 Co217 2.008 . S
Co217 N216 2.008 . S
Co217 N218 1.995 . S
Co217 N223 2.008 . S
Co217 N228 1.995 . S
Co217 N233 2.282 . S
Co217 N239 2.282 1_554 S
N218 Co217 1.995 . S
N218 C219 1.376 . S
N218 C222 1.383 . S
C219 N218 1.376 . S
C219 C220 1.446 . S
C219 C249 1.391 . S
C220 C219 1.446 . S
C220 C221 1.339 . S
C220 H255 0.949 . S
C221 C220 1.339 . S
C221 C222 1.439 . S
C221 H256 0.950 . S
C222 N218 1.383 . S
C222 C221 1.439 . S
C222 C251 1.392 . S
N223 Co217 2.008 . S
N223 C224 1.376 . S
N223 C227 1.374 . S
C224 N223 1.376 . S
C224 C225 1.443 . S
C224 C251 1.389 . S
C225 C224 1.443 . S
C225 C226 1.340 . S
C225 H257 0.951 . S
C226 C225 1.340 . S
C226 C227 1.439 . S
C226 H258 0.950 . S
C227 N223 1.374 . S
C227 C226 1.439 . S
C227 C252 1.395 . S
N228 Co217 1.995 . S
N228 C229 1.376 . S
N228 C232 1.383 . S
C229 N228 1.376 . S
C229 C230 1.446 . S
C229 C252 1.391 . S
C230 C229 1.446 . S
C230 C231 1.339 . S
C230 H259 0.949 . S
C231 C230 1.339 . S
C231 C232 1.439 . S
C231 H260 0.958 . S
C232 N228 1.383 . S
C232 C231 1.439 . S
C232 C250 1.389 1_554 S
N233 Co217 2.282 . S
N233 C236 1.332 . S
N233 C238 1.332 . S
C234 C235 1.386 . S
C234 C237 1.388 . S
C235 C234 1.386 . S
C235 C236 1.382 . S
C235 H261 0.950 . S
C236 N233 1.332 . S
C236 C235 1.382 . S
C236 H247 0.952 . S
C237 C234 1.388 . S
C237 C238 1.382 . S
C237 H262 0.950 . S
C238 N233 1.332 . S
C238 C237 1.382 . S
C238 H248 0.948 . S
N239 Co217 2.282 1_556 S
N239 C243 1.332 . S
N239 C244 1.332 . S
C240 C241 1.388 . S
C240 C244 1.382 . S
C240 H263 0.950 . S
C241 C240 1.388 . S
C241 C242 1.386 . S
C242 C241 1.386 . S
C242 C243 1.382 . S
C242 H264 0.950 . S
C243 N239 1.332 . S
C243 C242 1.382 . S
C243 H245 0.952 . S
C244 N239 1.332 . S
C244 C240 1.382 . S
C244 H246 0.948 . S
H245 C243 0.952 . S
H246 C244 0.948 . S
H247 C236 0.952 . S
H248 C238 0.948 . S
C249 C215 1.395 . S
C249 C219 1.391 . S
C250 C212 1.388 1_556 S
C250 C232 1.389 1_556 S
C251 C222 1.392 . S
C251 C224 1.389 . S
C252 C227 1.395 . S
C252 C229 1.391 . S
H253 C213 0.951 . S
H254 C214 0.950 . S
H255 C220 0.949 . S
H256 C221 0.950 . S
H257 C225 0.951 . S
H258 C226 0.950 . S
H259 C230 0.949 . S
H260 C231 0.958 . S
H261 C235 0.950 . S
H262 C237 0.950 . S
H263 C240 0.950 . S
H264 C242 0.950 . S
C265 C266 1.443 . S
C265 N269 1.376 . S
C265 C303 1.389 . S
C266 C265 1.443 . S
C266 C267 1.340 . S
C266 H306 0.951 . S
C267 C266 1.340 . S
C267 C268 1.439 . S
C267 H307 0.950 . S
C268 C267 1.439 . S
C268 N269 1.374 . S
C268 C302 1.395 . S
N269 C265 1.376 . S
N269 C268 1.374 . S
N269 Co270 2.008 . S
Co270 N269 2.008 . S
Co270 N271 1.995 . S
Co270 N276 2.008 . S
Co270 N281 1.995 . S
Co270 N286 2.282 . S
Co270 N292 2.282 . S
N271 Co270 1.995 . S
N271 C272 1.376 . S
N271 C275 1.383 . S
C272 N271 1.376 . S
C272 C273 1.446 . S
C272 C302 1.391 . S
C273 C272 1.446 . S
C273 C274 1.339 . S
C273 H308 0.949 . S
C274 C273 1.339 . S
C274 C275 1.439 . S
C274 H309 0.950 . S
C275 N271 1.383 . S
C275 C274 1.439 . S
C275 C304 1.392 . S
N276 Co270 2.008 . S
N276 C277 1.376 . S
N276 C280 1.374 . S
C277 N276 1.376 . S
C277 C278 1.443 . S
C277 C304 1.389 . S
C278 C277 1.443 . S
C278 C279 1.340 . S
C278 H310 0.951 . S
C279 C278 1.340 . S
C279 C280 1.439 . S
C279 H311 0.950 . S
C280 N276 1.374 . S
C280 C279 1.439 . S
C280 C305 1.395 . S
N281 Co270 1.995 . S
N281 C282 1.376 . S
N281 C285 1.383 . S
C282 N281 1.376 . S
C282 C283 1.446 . S
C282 C305 1.391 . S
C283 C282 1.446 . S
C283 C284 1.339 . S
C283 H312 0.949 . S
C284 C283 1.339 . S
C284 C285 1.439 . S
C284 H313 0.950 . S
C285 N281 1.383 . S
C285 C284 1.439 . S
C285 C303 1.392 . S
N286 Co270 2.282 . S
N286 C289 1.332 . S
N286 C291 1.332 . S
C287 C288 1.386 . S
C287 C290 1.388 . S
C288 C287 1.386 . S
C288 C289 1.382 . S
C288 H314 0.950 . S
C289 N286 1.332 . S
C289 C288 1.382 . S
C289 H300 0.952 . S
C290 C287 1.388 . S
C290 C291 1.382 . S
C290 H315 0.950 . S
C291 N286 1.332 . S
C291 C290 1.382 . S
C291 H301 0.948 . S
N292 Co270 2.282 . S
N292 C296 1.332 . S
N292 C297 1.332 . S
C293 C294 1.388 . S
C293 C297 1.382 . S
C293 H316 0.950 . S
C294 C293 1.388 . S
C294 C295 1.386 . S
C295 C294 1.386 . S
C295 C296 1.382 . S
C295 H317 0.950 . S
C296 N292 1.332 . S
C296 C295 1.382 . S
C296 H298 0.952 . S
C297 N292 1.332 . S
C297 C293 1.382 . S
C297 H299 0.948 . S
H298 C296 0.952 . S
H299 C297 0.948 . S
H300 C289 0.952 . S
H301 C291 0.948 . S
C302 C268 1.395 . S
C302 C272 1.391 . S
C303 C265 1.389 . S
C303 C285 1.392 . S
C304 C275 1.392 . S
C304 C277 1.389 . S
C305 C280 1.395 . S
C305 C282 1.391 . S
H306 C266 0.951 . S
H307 C267 0.950 . S
H308 C273 0.949 . S
H309 C274 0.950 . S
H310 C278 0.951 . S
H311 C279 0.950 . S
H312 C283 0.949 . S
H313 C284 0.950 . S
H314 C288 0.950 . S
H315 C290 0.950 . S
H316 C293 0.950 . S
H317 C295 0.950 . S
C318 C319 1.443 . S
C318 N322 1.376 . S
C318 C356 1.389 . S
C319 C318 1.443 . S
C319 C320 1.340 . S
C319 H359 0.951 . S
C320 C319 1.340 . S
C320 C321 1.439 . S
C320 H360 0.950 . S
C321 C320 1.439 . S
C321 N322 1.374 . S
C321 C355 1.395 . S
N322 C318 1.376 . S
N322 C321 1.374 . S
N322 Co323 2.008 . S
Co323 N322 2.008 . S
Co323 N324 1.995 . S
Co323 N329 2.008 . S
Co323 N334 1.995 . S
Co323 N339 2.282 . S
Co323 N345 2.282 . S
N324 Co323 1.995 . S
N324 C325 1.376 . S
N324 C328 1.383 . S
C325 N324 1.376 . S
C325 C326 1.446 . S
C325 C355 1.391 . S
C326 C325 1.446 . S
C326 C327 1.339 . S
C326 H361 0.949 . S
C327 C326 1.339 . S
C327 C328 1.439 . S
C327 H362 0.950 . S
C328 N324 1.383 . S
C328 C327 1.439 . S
C328 C357 1.392 . S
N329 Co323 2.008 . S
N329 C330 1.376 . S
N329 C333 1.374 . S
C330 N329 1.376 . S
C330 C331 1.443 . S
C330 C357 1.389 . S
C331 C330 1.443 . S
C331 C332 1.340 . S
C331 H363 0.951 . S
C332 C331 1.340 . S
C332 C333 1.439 . S
C332 H364 0.950 . S
C333 N329 1.374 . S
C333 C332 1.439 . S
C333 C358 1.395 . S
N334 Co323 1.995 . S
N334 C335 1.376 . S
N334 C338 1.383 . S
C335 N334 1.376 . S
C335 C336 1.446 . S
C335 C358 1.391 . S
C336 C335 1.446 . S
C336 C337 1.339 . S
C336 H365 0.949 . S
C337 C336 1.339 . S
C337 C338 1.439 . S
C337 H366 0.950 . S
C338 N334 1.383 . S
C338 C337 1.439 . S
C338 C356 1.392 . S
N339 Co323 2.282 . S
N339 C342 1.332 . S
N339 C344 1.332 . S
C340 C341 1.386 . S
C340 C343 1.388 . S
C341 C340 1.386 . S
C341 C342 1.382 . S
C341 H367 0.950 . S
C342 N339 1.332 . S
C342 C341 1.382 . S
C342 H353 0.952 . S
C343 C340 1.388 . S
C343 C344 1.382 . S
C343 H368 0.950 . S
C344 N339 1.332 . S
C344 C343 1.382 . S
C344 H354 0.948 . S
N345 Co323 2.282 . S
N345 C349 1.332 . S
N345 C350 1.332 . S
C346 C347 1.388 . S
C346 C350 1.382 . S
C346 H369 0.950 . S
C347 C346 1.388 . S
C347 C348 1.386 . S
C348 C347 1.386 . S
C348 C349 1.382 . S
C348 H370 0.950 . S
C349 N345 1.332 . S
C349 C348 1.382 . S
C349 H351 0.952 . S
C350 N345 1.332 . S
C350 C346 1.382 . S
C350 H352 0.948 . S
H351 C349 0.952 . S
H352 C350 0.948 . S
H353 C342 0.952 . S
H354 C344 0.948 . S
C355 C321 1.395 . S
C355 C325 1.391 . S
C356 C318 1.389 . S
C356 C338 1.392 . S
C357 C328 1.392 . S
C357 C330 1.389 . S
C358 C333 1.395 . S
C358 C335 1.391 . S
H359 C319 0.951 . S
H360 C320 0.950 . S
H361 C326 0.949 . S
H362 C327 0.950 . S
H363 C331 0.951 . S
H364 C332 0.950 . S
H365 C336 0.949 . S
H366 C337 0.950 . S
H367 C341 0.950 . S
H368 C343 0.950 . S
H369 C346 0.950 . S
H370 C348 0.950 . S
C371 C372 1.443 . S
C371 N375 1.376 . S
C371 C409 1.389 . S
C372 C371 1.443 . S
C372 C373 1.340 . S
C372 H412 0.951 . S
C373 C372 1.340 . S
C373 C374 1.439 . S
C373 H413 0.950 . S
C374 C373 1.439 . S
C374 N375 1.374 . S
C374 C408 1.395 . S
N375 C371 1.376 . S
N375 C374 1.374 . S
N375 Co376 2.008 . S
Co376 N375 2.008 . S
Co376 N377 1.995 . S
Co376 N382 2.008 . S
Co376 N387 1.995 . S
Co376 N392 2.282 . S
Co376 N398 2.282 . S
N377 Co376 1.995 . S
N377 C378 1.376 . S
N377 C381 1.383 . S
C378 N377 1.376 . S
C378 C379 1.446 . S
C378 C408 1.391 . S
C379 C378 1.446 . S
C379 C380 1.339 . S
C379 H414 0.949 . S
C380 C379 1.339 . S
C380 C381 1.439 . S
C380 H415 0.950 . S
C381 N377 1.383 . S
C381 C380 1.439 . S
C381 C410 1.392 . S
N382 Co376 2.008 . S
N382 C383 1.376 . S
N382 C386 1.374 . S
C383 N382 1.376 . S
C383 C384 1.443 . S
C383 C410 1.389 . S
C384 C383 1.443 . S
C384 C385 1.340 . S
C384 H416 0.951 . S
C385 C384 1.340 . S
C385 C386 1.439 . S
C385 H417 0.950 . S
C386 N382 1.374 . S
C386 C385 1.439 . S
C386 C411 1.395 . S
N387 Co376 1.995 . S
N387 C388 1.376 . S
N387 C391 1.383 . S
C388 N387 1.376 . S
C388 C389 1.446 . S
C388 C411 1.391 . S
C389 C388 1.446 . S
C389 C390 1.339 . S
C389 H418 0.949 . S
C390 C389 1.339 . S
C390 C391 1.439 . S
C390 H419 0.950 . S
C391 N387 1.383 . S
C391 C390 1.439 . S
C391 C409 1.392 . S
N392 Co376 2.282 . S
N392 C395 1.332 . S
N392 C397 1.332 . S
C393 C394 1.386 . S
C393 C396 1.388 . S
C394 C393 1.386 . S
C394 C395 1.382 . S
C394 H420 0.950 . S
C395 N392 1.332 . S
C395 C394 1.382 . S
C395 H406 0.952 . S
C396 C393 1.388 . S
C396 C397 1.382 . S
C396 H421 0.950 . S
C397 N392 1.332 . S
C397 C396 1.382 . S
C397 H407 0.948 . S
N398 Co376 2.282 . S
N398 C402 1.332 . S
N398 C403 1.332 . S
C399 C400 1.388 . S
C399 C403 1.382 . S
C399 H422 0.950 . S
C400 C399 1.388 . S
C400 C401 1.386 . S
C401 C400 1.386 . S
C401 C402 1.382 . S
C401 H423 0.950 . S
C402 N398 1.332 . S
C402 C401 1.382 . S
C402 H404 0.952 . S
C403 N398 1.332 . S
C403 C399 1.382 . S
C403 H405 0.948 . S
H404 C402 0.952 . S
H405 C403 0.948 . S
H406 C395 0.952 . S
H407 C397 0.948 . S
C408 C374 1.395 . S
C408 C378 1.391 . S
C409 C371 1.389 . S
C409 C391 1.392 . S
C410 C381 1.392 . S
C410 C383 1.389 . S
C411 C386 1.395 . S
C411 C388 1.391 . S
H412 C372 0.951 . S
H413 C373 0.950 . S
H414 C379 0.949 . S
H415 C380 0.950 . S
H416 C384 0.951 . S
H417 C385 0.950 . S
H418 C389 0.949 . S
H419 C390 0.950 . S
H420 C394 0.950 . S
H421 C396 0.950 . S
H422 C399 0.950 . S
H423 C401 0.950 . S
C424 C425 1.443 . S
C424 N428 1.376 . S
C424 C462 1.389 . S
C425 C424 1.443 . S
C425 C426 1.340 . S
C425 H465 0.951 . S
C426 C425 1.340 . S
C426 C427 1.439 . S
C426 H466 0.950 . S
C427 C426 1.439 . S
C427 N428 1.374 . S
C427 C461 1.395 . S
N428 C424 1.376 . S
N428 C427 1.374 . S
N428 Co429 2.008 . S
Co429 N428 2.008 . S
Co429 N430 1.995 . S
Co429 N435 2.008 . S
Co429 N440 1.995 . S
Co429 N445 2.282 . S
Co429 N451 2.282 . S
N430 Co429 1.995 . S
N430 C431 1.376 . S
N430 C434 1.383 . S
C431 N430 1.376 . S
C431 C432 1.446 . S
C431 C461 1.391 . S
C432 C431 1.446 . S
C432 C433 1.339 . S
C432 H467 0.949 . S
C433 C432 1.339 . S
C433 C434 1.439 . S
C433 H468 0.950 . S
C434 N430 1.383 . S
C434 C433 1.439 . S
C434 C463 1.392 . S
N435 Co429 2.008 . S
N435 C436 1.376 . S
N435 C439 1.374 . S
C436 N435 1.376 . S
C436 C437 1.443 . S
C436 C463 1.389 . S
C437 C436 1.443 . S
C437 C438 1.340 . S
C437 H469 0.951 . S
C438 C437 1.340 . S
C438 C439 1.439 . S
C438 H470 0.950 . S
C439 N435 1.374 . S
C439 C438 1.439 . S
C439 C464 1.395 . S
N440 Co429 1.995 . S
N440 C441 1.376 . S
N440 C444 1.383 . S
C441 N440 1.376 . S
C441 C442 1.446 . S
C441 C464 1.391 . S
C442 C441 1.446 . S
C442 C443 1.339 . S
C442 H471 0.949 . S
C443 C442 1.339 . S
C443 C444 1.439 . S
C443 H472 0.950 . S
C444 N440 1.383 . S
C444 C443 1.439 . S
C444 C462 1.392 . S
N445 Co429 2.282 . S
N445 C448 1.332 . S
N445 C450 1.332 . S
C446 C447 1.386 . S
C446 C449 1.388 . S
C447 C446 1.386 . S
C447 C448 1.382 . S
C447 H473 0.950 . S
C448 N445 1.332 . S
C448 C447 1.382 . S
C448 H459 0.952 . S
C449 C446 1.388 . S
C449 C450 1.382 . S
C449 H474 0.950 . S
C450 N445 1.332 . S
C450 C449 1.382 . S
C450 H460 0.948 . S
N451 Co429 2.282 . S
N451 C455 1.332 . S
N451 C456 1.332 . S
C452 C453 1.388 . S
C452 C456 1.382 . S
C452 H475 0.950 . S
C453 C452 1.388 . S
C453 C454 1.386 . S
C454 C453 1.386 . S
C454 C455 1.382 . S
C454 H476 0.950 . S
C455 N451 1.332 . S
C455 C454 1.382 . S
C455 H457 0.952 . S
C456 N451 1.332 . S
C456 C452 1.382 . S
C456 H458 0.948 . S
H457 C455 0.952 . S
H458 C456 0.948 . S
H459 C448 0.952 . S
H460 C450 0.948 . S
C461 C427 1.395 . S
C461 C431 1.391 . S
C462 C424 1.389 . S
C462 C444 1.392 . S
C463 C434 1.392 . S
C463 C436 1.389 . S
C464 C439 1.395 . S
C464 C441 1.391 . S
H465 C425 0.951 . S
H466 C426 0.950 . S
H467 C432 0.949 . S
H468 C433 0.950 . S
H469 C437 0.951 . S
H470 C438 0.950 . S
H471 C442 0.949 . S
H472 C443 0.950 . S
H473 C447 0.950 . S
H474 C449 0.950 . S
H475 C452 0.950 . S
H476 C454 0.950 . S
C477 C478 1.443 . S
C477 N481 1.376 1_556 S
C477 C515 1.389 . S
C478 C477 1.443 . S
C478 C479 1.340 . S
C478 H518 0.951 . S
C479 C478 1.340 . S
C479 C480 1.439 1_556 S
C479 H519 0.950 . S
C480 C479 1.439 1_554 S
C480 N481 1.374 . S
C480 C514 1.395 . S
N481 C477 1.376 1_554 S
N481 C480 1.374 . S
N481 Co482 2.008 . S
Co482 N481 2.008 . S
Co482 N483 1.995 . S
Co482 N488 2.008 . S
Co482 N493 1.995 . S
Co482 N498 2.282 . S
Co482 N504 2.282 . S
N483 Co482 1.995 . S
N483 C484 1.376 . S
N483 C487 1.383 . S
C484 N483 1.376 . S
C484 C485 1.446 . S
C484 C514 1.391 . S
C485 C484 1.446 . S
C485 C486 1.339 . S
C485 H520 0.949 . S
C486 C485 1.339 . S
C486 C487 1.439 . S
C486 H521 0.950 . S
C487 N483 1.383 . S
C487 C486 1.439 . S
C487 C516 1.392 . S
N488 Co482 2.008 . S
N488 C489 1.376 . S
N488 C492 1.374 . S
C489 N488 1.376 . S
C489 C490 1.443 . S
C489 C516 1.389 . S
C490 C489 1.443 . S
C490 C491 1.340 . S
C490 H522 0.951 . S
C491 C490 1.340 . S
C491 C492 1.439 . S
C491 H523 0.950 . S
C492 N488 1.374 . S
C492 C491 1.439 . S
C492 C517 1.395 . S
N493 Co482 1.995 . S
N493 C494 1.376 . S
N493 C497 1.383 1_554 S
C494 N493 1.376 . S
C494 C495 1.446 1_554 S
C494 C517 1.391 . S
C495 C494 1.446 1_556 S
C495 C496 1.339 . S
C495 H524 0.949 . S
C496 C495 1.339 . S
C496 C497 1.439 . S
C496 H525 0.950 . S
C497 N493 1.383 1_556 S
C497 C496 1.439 . S
C497 C515 1.392 . S
N498 Co482 2.282 . S
N498 C501 1.332 . S
N498 C503 1.332 . S
C499 C500 1.386 . S
C499 C502 1.388 . S
C500 C499 1.386 . S
C500 C501 1.382 . S
C500 H526 0.950 . S
C501 N498 1.332 . S
C501 C500 1.382 . S
C501 H512 0.952 . S
C502 C499 1.388 . S
C502 C503 1.382 . S
C502 H527 0.950 . S
C503 N498 1.332 . S
C503 C502 1.382 . S
C503 H513 0.948 . S
N504 Co482 2.282 . S
N504 C508 1.332 . S
N504 C509 1.332 . S
C505 C506 1.388 . S
C505 C509 1.382 . S
C505 H528 0.950 1_554 S
C506 C505 1.388 . S
C506 C507 1.386 . S
C507 C506 1.386 . S
C507 C508 1.382 . S
C507 H529 0.950 . S
C508 N504 1.332 . S
C508 C507 1.382 . S
C508 H510 0.952 . S
C509 N504 1.332 . S
C509 C505 1.382 . S
C509 H511 0.948 . S
H510 C508 0.952 . S
H511 C509 0.948 . S
H512 C501 0.952 . S
H513 C503 0.948 . S
C514 C480 1.395 . S
C514 C484 1.391 . S
C515 C477 1.389 . S
C515 C497 1.392 . S
C516 C487 1.392 . S
C516 C489 1.389 . S
C517 C492 1.395 . S
C517 C494 1.391 . S
H518 C478 0.951 . S
H519 C479 0.950 . S
H520 C485 0.949 . S
H521 C486 0.950 . S
H522 C490 0.951 . S
H523 C491 0.950 . S
H524 C495 0.949 . S
H525 C496 0.950 . S
H526 C500 0.950 . S
H527 C502 0.950 . S
H528 C505 0.950 1_556 S
H529 C507 0.950 . S
C530 C531 1.443 . S
C530 N534 1.376 . S
C530 C568 1.389 . S
C531 C530 1.443 . S
C531 C532 1.340 . S
C531 H571 0.951 . S
C532 C531 1.340 . S
C532 C533 1.439 . S
C532 H572 0.950 . S
C533 C532 1.439 . S
C533 N534 1.374 . S
C533 C567 1.395 . S
N534 C530 1.376 . S
N534 C533 1.374 . S
N534 Co535 2.008 . S
Co535 N534 2.008 . S
Co535 N536 1.995 . S
Co535 N541 2.008 . S
Co535 N546 1.995 . S
Co535 N551 2.282 . S
Co535 N557 2.282 . S
N536 Co535 1.995 . S
N536 C537 1.376 . S
N536 C540 1.383 . S
C537 N536 1.376 . S
C537 C538 1.446 . S
C537 C567 1.391 . S
C538 C537 1.446 . S
C538 C539 1.339 . S
C538 H573 0.949 . S
C539 C538 1.339 . S
C539 C540 1.439 . S
C539 H574 0.950 . S
C540 N536 1.383 . S
C540 C539 1.439 . S
C540 C569 1.392 . S
N541 Co535 2.008 . S
N541 C542 1.376 . S
N541 C545 1.374 . S
C542 N541 1.376 . S
C542 C543 1.443 . S
C542 C569 1.389 . S
C543 C542 1.443 . S
C543 C544 1.340 . S
C543 H575 0.951 . S
C544 C543 1.340 . S
C544 C545 1.439 . S
C544 H576 0.950 . S
C545 N541 1.374 . S
C545 C544 1.439 . S
C545 C570 1.395 . S
N546 Co535 1.995 . S
N546 C547 1.376 . S
N546 C550 1.383 . S
C547 N546 1.376 . S
C547 C548 1.446 . S
C547 C570 1.391 . S
C548 C547 1.446 . S
C548 C549 1.339 . S
C548 H577 0.949 . S
C549 C548 1.339 . S
C549 C550 1.439 . S
C549 H578 0.950 . S
C550 N546 1.383 . S
C550 C549 1.439 . S
C550 C568 1.392 . S
N551 Co535 2.282 . S
N551 C554 1.332 . S
N551 C556 1.332 . S
C552 C553 1.386 . S
C552 C555 1.388 . S
C553 C552 1.386 . S
C553 C554 1.382 . S
C553 H579 0.950 . S
C554 N551 1.332 . S
C554 C553 1.382 . S
C554 H565 0.952 . S
C555 C552 1.388 . S
C555 C556 1.382 . S
C555 H580 0.950 . S
C556 N551 1.332 . S
C556 C555 1.382 . S
C556 H566 0.948 . S
N557 Co535 2.282 . S
N557 C561 1.332 . S
N557 C562 1.332 . S
C558 C559 1.388 . S
C558 C562 1.382 . S
C558 H581 0.950 . S
C559 C558 1.388 . S
C559 C560 1.386 . S
C560 C559 1.386 . S
C560 C561 1.382 . S
C560 H582 0.950 . S
C561 N557 1.332 . S
C561 C560 1.382 . S
C561 H563 0.952 . S
C562 N557 1.332 . S
C562 C558 1.382 . S
C562 H564 0.948 . S
H563 C561 0.952 . S
H564 C562 0.948 . S
H565 C554 0.952 . S
H566 C556 0.948 . S
C567 C533 1.395 . S
C567 C537 1.391 . S
C568 C530 1.389 . S
C568 C550 1.392 . S
C569 C540 1.392 . S
C569 C542 1.389 . S
C570 C545 1.395 . S
C570 C547 1.391 . S
H571 C531 0.951 . S
H572 C532 0.950 . S
H573 C538 0.949 . S
H574 C539 0.950 . S
H575 C543 0.951 . S
H576 C544 0.950 . S
H577 C548 0.949 . S
H578 C549 0.950 . S
H579 C553 0.950 . S
H580 C555 0.950 . S
H581 C558 0.950 . S
H582 C560 0.950 . S
C583 C584 1.443 . S
C583 N587 1.376 . S
C583 C621 1.389 . S
C584 C583 1.443 . S
C584 C585 1.340 . S
C584 H624 0.951 . S
C585 C584 1.340 . S
C585 C586 1.439 . S
C585 H625 0.950 . S
C586 C585 1.439 . S
C586 N587 1.374 . S
C586 C620 1.395 . S
N587 C583 1.376 . S
N587 C586 1.374 . S
N587 Co588 2.008 . S
Co588 N587 2.008 . S
Co588 N589 1.995 . S
Co588 N594 2.008 . S
Co588 N599 1.995 . S
Co588 N604 2.282 . S
Co588 N610 2.282 . S
N589 Co588 1.995 . S
N589 C590 1.376 . S
N589 C593 1.383 . S
C590 N589 1.376 . S
C590 C591 1.446 . S
C590 C620 1.391 . S
C591 C590 1.446 . S
C591 C592 1.339 . S
C591 H626 0.949 . S
C592 C591 1.339 . S
C592 C593 1.439 . S
C592 H627 0.950 . S
C593 N589 1.383 . S
C593 C592 1.439 . S
C593 C622 1.392 . S
N594 Co588 2.008 . S
N594 C595 1.376 . S
N594 C598 1.374 . S
C595 N594 1.376 . S
C595 C596 1.443 . S
C595 C622 1.389 . S
C596 C595 1.443 . S
C596 C597 1.340 . S
C596 H628 0.951 . S
C597 C596 1.340 . S
C597 C598 1.439 . S
C597 H629 0.950 . S
C598 N594 1.374 . S
C598 C597 1.439 . S
C598 C623 1.395 . S
N599 Co588 1.995 . S
N599 C600 1.376 . S
N599 C603 1.383 . S
C600 N599 1.376 . S
C600 C601 1.446 . S
C600 C623 1.391 . S
C601 C600 1.446 . S
C601 C602 1.339 . S
C601 H630 0.949 . S
C602 C601 1.339 . S
C602 C603 1.439 . S
C602 H631 0.950 . S
C603 N599 1.383 . S
C603 C602 1.439 . S
C603 C621 1.392 . S
N604 Co588 2.282 . S
N604 C607 1.332 . S
N604 C609 1.332 . S
C605 C606 1.386 . S
C605 C608 1.388 . S
C606 C605 1.386 . S
C606 C607 1.382 . S
C606 H632 0.950 . S
C607 N604 1.332 . S
C607 C606 1.382 . S
C607 H618 0.952 . S
C608 C605 1.388 . S
C608 C609 1.382 . S
C608 H633 0.950 . S
C609 N604 1.332 . S
C609 C608 1.382 . S
C609 H619 0.948 . S
N610 Co588 2.282 . S
N610 C614 1.332 . S
N610 C615 1.332 . S
C611 C612 1.388 . S
C611 C615 1.382 . S
C611 H634 0.950 . S
C612 C611 1.388 . S
C612 C613 1.386 . S
C613 C612 1.386 . S
C613 C614 1.382 . S
C613 H635 0.950 . S
C614 N610 1.332 . S
C614 C613 1.382 . S
C614 H616 0.952 . S
C615 N610 1.332 . S
C615 C611 1.382 . S
C615 H617 0.948 . S
H616 C614 0.952 . S
H617 C615 0.948 . S
H618 C607 0.952 . S
H619 C609 0.948 . S
C620 C586 1.395 . S
C620 C590 1.391 . S
C621 C583 1.389 . S
C621 C603 1.392 . S
C622 C593 1.392 . S
C622 C595 1.389 . S
C623 C598 1.395 . S
C623 C600 1.391 . S
H624 C584 0.951 . S
H625 C585 0.950 . S
H626 C591 0.949 . S
H627 C592 0.950 . S
H628 C596 0.951 . S
H629 C597 0.950 . S
H630 C601 0.949 . S
H631 C602 0.950 . S
H632 C606 0.950 . S
H633 C608 0.950 . S
H634 C611 0.950 . S
H635 C613 0.950 . S
C636 C637 1.443 . S
C636 N640 1.376 . S
C636 C674 1.389 . S
C637 C636 1.443 . S
C637 C638 1.340 . S
C637 H677 0.951 . S
C638 C637 1.340 . S
C638 C639 1.439 . S
C638 H678 0.950 . S
C639 C638 1.439 . S
C639 N640 1.374 . S
C639 C673 1.395 . S
N640 C636 1.376 . S
N640 C639 1.374 . S
N640 Co641 2.008 . S
Co641 N640 2.008 . S
Co641 N642 1.995 . S
Co641 N647 2.008 . S
Co641 N652 1.995 . S
Co641 N657 2.282 . S
Co641 N663 2.282 . S
N642 Co641 1.995 . S
N642 C643 1.376 . S
N642 C646 1.383 . S
C643 N642 1.376 . S
C643 C644 1.446 . S
C643 C673 1.391 . S
C644 C643 1.446 . S
C644 C645 1.339 . S
C644 H679 0.949 . S
C645 C644 1.339 . S
C645 C646 1.439 . S
C645 H680 0.950 . S
C646 N642 1.383 . S
C646 C645 1.439 . S
C646 C675 1.392 . S
N647 Co641 2.008 . S
N647 C648 1.376 . S
N647 C651 1.374 . S
C648 N647 1.376 . S
C648 C649 1.443 . S
C648 C675 1.389 . S
C649 C648 1.443 . S
C649 C650 1.340 . S
C649 H681 0.951 . S
C650 C649 1.340 . S
C650 C651 1.439 . S
C650 H682 0.950 . S
C651 N647 1.374 . S
C651 C650 1.439 . S
C651 C676 1.395 . S
N652 Co641 1.995 . S
N652 C653 1.376 . S
N652 C656 1.383 . S
C653 N652 1.376 . S
C653 C654 1.446 . S
C653 C676 1.391 . S
C654 C653 1.446 . S
C654 C655 1.339 . S
C654 H683 0.949 . S
C655 C654 1.339 . S
C655 C656 1.439 . S
C655 H684 0.950 . S
C656 N652 1.383 . S
C656 C655 1.439 . S
C656 C674 1.392 . S
N657 Co641 2.282 . S
N657 C660 1.332 . S
N657 C662 1.332 . S
C658 C659 1.386 . S
C658 C661 1.388 . S
C659 C658 1.386 . S
C659 C660 1.382 . S
C659 H685 0.950 . S
C660 N657 1.332 . S
C660 C659 1.382 . S
C660 H671 0.952 . S
C661 C658 1.388 . S
C661 C662 1.382 . S
C661 H686 0.950 . S
C662 N657 1.332 . S
C662 C661 1.382 . S
C662 H672 0.948 . S
N663 Co641 2.282 . S
N663 C667 1.332 . S
N663 C668 1.332 . S
C664 C665 1.388 . S
C664 C668 1.382 . S
C664 H687 0.950 . S
C665 C664 1.388 . S
C665 C666 1.386 . S
C666 C665 1.386 . S
C666 C667 1.382 . S
C666 H688 0.950 . S
C667 N663 1.332 . S
C667 C666 1.382 . S
C667 H669 0.952 . S
C668 N663 1.332 . S
C668 C664 1.382 . S
C668 H670 0.948 . S
H669 C667 0.952 . S
H670 C668 0.948 . S
H671 C660 0.952 . S
H672 C662 0.948 . S
C673 C639 1.395 . S
C673 C643 1.391 . S
C674 C636 1.389 . S
C674 C656 1.392 . S
C675 C646 1.392 . S
C675 C648 1.389 . S
C676 C651 1.395 . S
C676 C653 1.391 . S
H677 C637 0.951 . S
H678 C638 0.950 . S
H679 C644 0.949 . S
H680 C645 0.950 . S
H681 C649 0.951 . S
H682 C650 0.950 . S
H683 C654 0.949 . S
H684 C655 0.950 . S
H685 C659 0.950 . S
H686 C661 0.950 . S
H687 C664 0.950 . S
H688 C666 0.950 . S
C689 C690 1.443 . S
C689 N693 1.376 . S
C689 C727 1.389 . S
C690 C689 1.443 . S
C690 C691 1.340 . S
C690 H730 0.951 . S
C691 C690 1.340 . S
C691 C692 1.439 . S
C691 H731 0.950 . S
C692 C691 1.439 . S
C692 N693 1.374 . S
C692 C726 1.395 . S
N693 C689 1.376 . S
N693 C692 1.374 . S
N693 Co694 2.008 . S
Co694 N693 2.008 . S
Co694 N695 1.995 . S
Co694 N700 2.008 . S
Co694 N705 1.995 . S
Co694 N710 2.282 . S
Co694 N716 2.282 . S
N695 Co694 1.995 . S
N695 C696 1.376 . S
N695 C699 1.383 . S
C696 N695 1.376 . S
C696 C697 1.446 . S
C696 C726 1.391 . S
C697 C696 1.446 . S
C697 C698 1.339 . S
C697 H732 0.949 . S
C698 C697 1.339 . S
C698 C699 1.439 . S
C698 H733 0.950 . S
C699 N695 1.383 . S
C699 C698 1.439 . S
C699 C728 1.392 . S
N700 Co694 2.008 . S
N700 C701 1.376 . S
N700 C704 1.374 . S
C701 N700 1.376 . S
C701 C702 1.443 . S
C701 C728 1.389 . S
C702 C701 1.443 . S
C702 C703 1.340 . S
C702 H734 0.951 . S
C703 C702 1.340 . S
C703 C704 1.439 . S
C703 H735 0.950 . S
C704 N700 1.374 . S
C704 C703 1.439 . S
C704 C729 1.395 . S
N705 Co694 1.995 . S
N705 C706 1.376 . S
N705 C709 1.383 . S
C706 N705 1.376 . S
C706 C707 1.446 . S
C706 C729 1.391 . S
C707 C706 1.446 . S
C707 C708 1.339 . S
C707 H736 0.949 . S
C708 C707 1.339 . S
C708 C709 1.439 . S
C708 H737 0.950 . S
C709 N705 1.383 . S
C709 C708 1.439 . S
C709 C727 1.392 . S
N710 Co694 2.282 . S
N710 C713 1.332 . S
N710 C715 1.332 . S
C711 C712 1.386 . S
C711 C714 1.388 . S
C712 C711 1.386 . S
C712 C713 1.382 . S
C712 H738 0.950 . S
C713 N710 1.332 . S
C713 C712 1.382 . S
C713 H724 0.952 . S
C714 C711 1.388 . S
C714 C715 1.382 . S
C714 H739 0.950 . S
C715 N710 1.332 . S
C715 C714 1.382 . S
C715 H725 0.948 . S
N716 Co694 2.282 . S
N716 C720 1.332 . S
N716 C721 1.332 . S
C717 C718 1.388 . S
C717 C721 1.382 . S
C717 H740 0.950 . S
C718 C717 1.388 . S
C718 C719 1.386 . S
C719 C718 1.386 . S
C719 C720 1.382 . S
C719 H741 0.950 . S
C720 N716 1.332 . S
C720 C719 1.382 . S
C720 H722 0.952 . S
C721 N716 1.332 . S
C721 C717 1.382 . S
C721 H723 0.948 . S
H722 C720 0.952 . S
H723 C721 0.948 . S
H724 C713 0.952 . S
H725 C715 0.948 . S
C726 C692 1.395 . S
C726 C696 1.391 . S
C727 C689 1.389 . S
C727 C709 1.392 . S
C728 C699 1.392 . S
C728 C701 1.389 . S
C729 C704 1.395 . S
C729 C706 1.391 . S
H730 C690 0.951 . S
H731 C691 0.950 . S
H732 C697 0.949 . S
H733 C698 0.950 . S
H734 C702 0.951 . S
H735 C703 0.950 . S
H736 C707 0.949 . S
H737 C708 0.950 . S
H738 C712 0.950 . S
H739 C714 0.950 . S
H740 C717 0.950 . S
H741 C719 0.950 . S
C742 C743 1.436 1_554 S
C742 N746 1.384 . S
C742 C780 1.388 1_554 S
C743 C742 1.436 1_556 S
C743 C744 1.340 . S
C743 H783 0.951 . S
C744 C743 1.340 . S
C744 C745 1.439 1_556 S
C744 H784 0.950 . S
C745 C744 1.439 1_554 S
C745 N746 1.374 . S
C745 C779 1.395 . S
N746 C742 1.384 . S
N746 C745 1.374 . S
N746 Co747 2.008 . S
Co747 N746 2.008 . S
Co747 N748 1.995 . S
Co747 N753 2.008 . S
Co747 N758 1.995 . S
Co747 N763 2.282 . S
Co747 N769 2.282 1_554 S
N748 Co747 1.995 . S
N748 C749 1.376 . S
N748 C752 1.383 . S
C749 N748 1.376 . S
C749 C750 1.446 . S
C749 C779 1.391 . S
C750 C749 1.446 . S
C750 C751 1.339 . S
C750 H785 0.949 . S
C751 C750 1.339 . S
C751 C752 1.439 . S
C751 H786 0.950 . S
C752 N748 1.383 . S
C752 C751 1.439 . S
C752 C781 1.392 . S
N753 Co747 2.008 . S
N753 C754 1.376 . S
N753 C757 1.374 . S
C754 N753 1.376 . S
C754 C755 1.443 . S
C754 C781 1.389 . S
C755 C754 1.443 . S
C755 C756 1.340 . S
C755 H787 0.951 . S
C756 C755 1.340 . S
C756 C757 1.439 . S
C756 H788 0.950 . S
C757 N753 1.374 . S
C757 C756 1.439 . S
C757 C782 1.395 . S
N758 Co747 1.995 . S
N758 C759 1.376 . S
N758 C762 1.383 . S
C759 N758 1.376 . S
C759 C760 1.446 . S
C759 C782 1.391 . S
C760 C759 1.446 . S
C760 C761 1.339 . S
C760 H789 0.949 . S
C761 C760 1.339 . S
C761 C762 1.439 . S
C761 H790 0.958 . S
C762 N758 1.383 . S
C762 C761 1.439 . S
C762 C780 1.389 1_554 S
N763 Co747 2.282 . S
N763 C766 1.332 . S
N763 C768 1.332 . S
C764 C765 1.386 . S
C764 C767 1.388 . S
C765 C764 1.386 . S
C765 C766 1.382 . S
C765 H791 0.950 . S
C766 N763 1.332 . S
C766 C765 1.382 . S
C766 H777 0.952 . S
C767 C764 1.388 . S
C767 C768 1.382 . S
C767 H792 0.950 . S
C768 N763 1.332 . S
C768 C767 1.382 . S
C768 H778 0.948 . S
N769 Co747 2.282 1_556 S
N769 C773 1.332 . S
N769 C774 1.332 . S
C770 C771 1.388 . S
C770 C774 1.382 . S
C770 H793 0.950 . S
C771 C770 1.388 . S
C771 C772 1.386 . S
C772 C771 1.386 . S
C772 C773 1.382 . S
C772 H794 0.950 . S
C773 N769 1.332 . S
C773 C772 1.382 . S
C773 H775 0.952 . S
C774 N769 1.332 . S
C774 C770 1.382 . S
C774 H776 0.948 . S
H775 C773 0.952 . S
H776 C774 0.948 . S
H777 C766 0.952 . S
H778 C768 0.948 . S
C779 C745 1.395 . S
C779 C749 1.391 . S
C780 C742 1.388 1_556 S
C780 C762 1.389 1_556 S
C781 C752 1.392 . S
C781 C754 1.389 . S
C782 C757 1.395 . S
C782 C759 1.391 . S
H783 C743 0.951 . S
H784 C744 0.950 . S
H785 C750 0.949 . S
H786 C751 0.950 . S
H787 C755 0.951 . S
H788 C756 0.950 . S
H789 C760 0.949 . S
H790 C761 0.958 . S
H791 C765 0.950 . S
H792 C767 0.950 . S
H793 C770 0.950 . S
H794 C772 0.950 . S
C795 C796 1.443 . S
C795 N799 1.376 . S
C795 C833 1.389 . S
C796 C795 1.443 . S
C796 C797 1.340 . S
C796 H836 0.951 . S
C797 C796 1.340 . S
C797 C798 1.439 . S
C797 H837 0.950 . S
C798 C797 1.439 . S
C798 N799 1.374 . S
C798 C832 1.395 . S
N799 C795 1.376 . S
N799 C798 1.374 . S
N799 Co800 2.008 . S
Co800 N799 2.008 . S
Co800 N801 1.995 . S
Co800 N806 2.008 . S
Co800 N811 1.995 . S
Co800 N816 2.282 . S
Co800 N822 2.282 . S
N801 Co800 1.995 . S
N801 C802 1.376 . S
N801 C805 1.383 . S
C802 N801 1.376 . S
C802 C803 1.446 . S
C802 C832 1.391 . S
C803 C802 1.446 . S
C803 C804 1.339 . S
C803 H838 0.949 . S
C804 C803 1.339 . S
C804 C805 1.439 . S
C804 H839 0.950 . S
C805 N801 1.383 . S
C805 C804 1.439 . S
C805 C834 1.392 . S
N806 Co800 2.008 . S
N806 C807 1.376 . S
N806 C810 1.374 . S
C807 N806 1.376 . S
C807 C808 1.443 . S
C807 C834 1.389 . S
C808 C807 1.443 . S
C808 C809 1.340 . S
C808 H840 0.951 . S
C809 C808 1.340 . S
C809 C810 1.439 . S
C809 H841 0.950 . S
C810 N806 1.374 . S
C810 C809 1.439 . S
C810 C835 1.395 . S
N811 Co800 1.995 . S
N811 C812 1.376 . S
N811 C815 1.383 . S
C812 N811 1.376 . S
C812 C813 1.446 . S
C812 C835 1.391 . S
C813 C812 1.446 . S
C813 C814 1.339 . S
C813 H842 0.949 . S
C814 C813 1.339 . S
C814 C815 1.439 . S
C814 H843 0.950 . S
C815 N811 1.383 . S
C815 C814 1.439 . S
C815 C833 1.392 . S
N816 Co800 2.282 . S
N816 C819 1.332 . S
N816 C821 1.332 . S
C817 C818 1.386 . S
C817 C820 1.388 . S
C818 C817 1.386 . S
C818 C819 1.382 . S
C818 H844 0.950 . S
C819 N816 1.332 . S
C819 C818 1.382 . S
C819 H830 0.952 . S
C820 C817 1.388 . S
C820 C821 1.382 . S
C820 H845 0.950 . S
C821 N816 1.332 . S
C821 C820 1.382 . S
C821 H831 0.948 . S
N822 Co800 2.282 . S
N822 C826 1.332 . S
N822 C827 1.332 . S
C823 C824 1.388 . S
C823 C827 1.382 . S
C823 H846 0.950 . S
C824 C823 1.388 . S
C824 C825 1.386 . S
C825 C824 1.386 . S
C825 C826 1.382 . S
C825 H847 0.950 . S
C826 N822 1.332 . S
C826 C825 1.382 . S
C826 H828 0.952 . S
C827 N822 1.332 . S
C827 C823 1.382 . S
C827 H829 0.948 . S
H828 C826 0.952 . S
H829 C827 0.948 . S
H830 C819 0.952 . S
H831 C821 0.948 . S
C832 C798 1.395 . S
C832 C802 1.391 . S
C833 C795 1.389 . S
C833 C815 1.392 . S
C834 C805 1.392 . S
C834 C807 1.389 . S
C835 C810 1.395 . S
C835 C812 1.391 . S
H836 C796 0.951 . S
H837 C797 0.950 . S
H838 C803 0.949 . S
H839 C804 0.950 . S
H840 C808 0.951 . S
H841 C809 0.950 . S
H842 C813 0.949 . S
H843 C814 0.950 . S
H844 C818 0.950 . S
H845 C820 0.950 . S
H846 C823 0.950 . S
H847 C825 0.950 . S
H848 C860 0.930 . S
H849 C862 0.930 . S
H850 C863 0.930 . S
H851 C867 0.959 . S
H852 C867 0.959 . S
H853 C867 0.961 . S
H854 C868 0.960 . S
H855 C868 0.961 . S
H856 C868 0.959 . S
H857 C871 0.929 . S
H858 C872 0.931 . S
H859 C874 0.930 . S
C860 H848 0.930 . S
C860 C861 1.399 . S
C860 C865 1.399 . S
C861 C860 1.399 . S
C861 C862 1.376 . S
C862 H849 0.930 . S
C862 C861 1.376 . S
C862 C863 1.388 . S
C863 H850 0.930 . S
C863 C862 1.388 . S
C863 C864 1.390 . S
C864 C863 1.390 . S
C864 C865 1.394 . S
C864 C870 1.465 . S
C865 C860 1.399 . S
C865 C864 1.394 . S
C865 C866 1.516 . S
C866 C865 1.516 . S
C866 C867 1.502 . S
C866 C868 1.561 . S
C866 C869 1.526 . S
C867 H851 0.959 . S
C867 H852 0.959 . S
C867 H853 0.961 . S
C867 C866 1.502 . S
C868 H854 0.960 . S
C868 H855 0.961 . S
C868 H856 0.959 . S
C868 C866 1.561 . S
C869 C866 1.526 . S
C869 C870 1.396 . S
C869 C874 1.390 . S
C870 C864 1.465 . S
C870 C869 1.396 . S
C870 C871 1.399 . S
C871 H857 0.929 . S
C871 C870 1.399 . S
C871 C872 1.385 . S
C872 H858 0.931 . S
C872 C871 1.385 . S
C872 C873 1.389 . S
C873 C872 1.389 . S
C873 C874 1.387 . S
C874 H859 0.930 . S
C874 C869 1.390 . S
C874 C873 1.387 . S
H875 C887 0.930 . S
H876 C889 0.930 . S
H877 C890 0.930 . S
H878 C894 0.959 . S
H879 C894 0.959 . S
H880 C894 0.961 . S
H881 C895 0.960 . S
H882 C895 0.961 . S
H883 C895 0.959 . S
H884 C898 0.929 . S
H885 C899 0.931 . S
H886 C901 0.930 . S
C887 H875 0.930 . S
C887 C888 1.399 . S
C887 C892 1.399 . S
C888 C887 1.399 . S
C888 C889 1.376 . S
C889 H876 0.930 . S
C889 C888 1.376 . S
C889 C890 1.388 . S
C890 H877 0.930 . S
C890 C889 1.388 . S
C890 C891 1.390 . S
C891 C890 1.390 . S
C891 C892 1.394 . S
C891 C897 1.465 . S
C892 C887 1.399 . S
C892 C891 1.394 . S
C892 C893 1.516 . S
C893 C892 1.516 . S
C893 C894 1.502 . S
C893 C895 1.561 . S
C893 C896 1.526 . S
C894 H878 0.959 . S
C894 H879 0.959 . S
C894 H880 0.961 . S
C894 C893 1.502 . S
C895 H881 0.960 . S
C895 H882 0.961 . S
C895 H883 0.959 . S
C895 C893 1.561 . S
C896 C893 1.526 . S
C896 C897 1.396 . S
C896 C901 1.390 . S
C897 C891 1.465 . S
C897 C896 1.396 . S
C897 C898 1.399 . S
C898 H884 0.929 . S
C898 C897 1.399 . S
C898 C899 1.385 . S
C899 H885 0.931 . S
C899 C898 1.385 . S
C899 C900 1.389 . S
C900 C899 1.389 . S
C900 C901 1.387 . S
C901 H886 0.930 . S
C901 C896 1.390 . S
C901 C900 1.387 . S
H902 C914 0.930 . S
H903 C916 0.930 . S
H904 C917 0.930 . S
H905 C921 0.959 . S
H906 C921 0.959 . S
H907 C921 0.961 . S
H908 C922 0.960 . S
H909 C922 0.961 . S
H910 C922 0.959 . S
H911 C925 0.929 . S
H912 C926 0.931 . S
H913 C928 0.930 . S
C914 H902 0.930 . S
C914 C915 1.399 . S
C914 C919 1.399 . S
C915 C914 1.399 . S
C915 C916 1.376 . S
C916 H903 0.930 . S
C916 C915 1.376 . S
C916 C917 1.388 . S
C917 H904 0.930 . S
C917 C916 1.388 . S
C917 C918 1.390 . S
C918 C917 1.390 . S
C918 C919 1.394 . S
C918 C924 1.465 . S
C919 C914 1.399 . S
C919 C918 1.394 . S
C919 C920 1.516 . S
C920 C919 1.516 . S
C920 C921 1.502 . S
C920 C922 1.561 . S
C920 C923 1.526 . S
C921 H905 0.959 . S
C921 H906 0.959 . S
C921 H907 0.961 . S
C921 C920 1.502 . S
C922 H908 0.960 . S
C922 H909 0.961 . S
C922 H910 0.959 . S
C922 C920 1.561 . S
C923 C920 1.526 . S
C923 C924 1.396 . S
C923 C928 1.390 . S
C924 C918 1.465 . S
C924 C923 1.396 . S
C924 C925 1.399 . S
C925 H911 0.929 . S
C925 C924 1.399 . S
C925 C926 1.385 . S
C926 H912 0.931 . S
C926 C925 1.385 . S
C926 C927 1.389 . S
C927 C926 1.389 . S
C927 C928 1.387 . S
C928 H913 0.930 . S
C928 C923 1.390 . S
C928 C927 1.387 . S
H929 C941 0.930 . S
H930 C943 0.930 . S
H931 C944 0.930 . S
H932 C948 0.959 . S
H933 C948 0.959 . S
H934 C948 0.961 . S
H935 C949 0.960 . S
H936 C949 0.961 . S
H937 C949 0.959 . S
H938 C952 0.929 . S
H939 C953 0.931 . S
H940 C955 0.930 . S
C941 H929 0.930 . S
C941 C942 1.399 . S
C941 C946 1.399 . S
C942 C941 1.399 . S
C942 C943 1.376 . S
C943 H930 0.930 . S
C943 C942 1.376 . S
C943 C944 1.388 . S
C944 H931 0.930 . S
C944 C943 1.388 . S
C944 C945 1.390 . S
C945 C944 1.390 . S
C945 C946 1.394 . S
C945 C951 1.465 . S
C946 C941 1.399 . S
C946 C945 1.394 . S
C946 C947 1.516 . S
C947 C946 1.516 . S
C947 C948 1.502 . S
C947 C949 1.561 . S
C947 C950 1.526 . S
C948 H932 0.959 . S
C948 H933 0.959 . S
C948 H934 0.961 . S
C948 C947 1.502 . S
C949 H935 0.960 . S
C949 H936 0.961 . S
C949 H937 0.959 . S
C949 C947 1.561 . S
C950 C947 1.526 . S
C950 C951 1.396 . S
C950 C955 1.390 . S
C951 C945 1.465 . S
C951 C950 1.396 . S
C951 C952 1.399 . S
C952 H938 0.929 . S
C952 C951 1.399 . S
C952 C953 1.385 . S
C953 H939 0.931 . S
C953 C952 1.385 . S
C953 C954 1.389 . S
C954 C953 1.389 . S
C954 C955 1.387 . S
C955 H940 0.930 . S
C955 C950 1.390 . S
C955 C954 1.387 . S
H956 C968 0.930 . S
H957 C970 0.930 . S
H958 C971 0.930 . S
H959 C975 0.959 . S
H960 C975 0.959 . S
H961 C975 0.961 . S
H962 C976 0.960 . S
H963 C976 0.961 . S
H964 C976 0.959 . S
H965 C979 0.929 . S
H966 C980 0.931 . S
H967 C982 0.930 . S
C968 H956 0.930 . S
C968 C969 1.399 . S
C968 C973 1.399 . S
C969 C968 1.399 . S
C969 C970 1.376 . S
C970 H957 0.930 . S
C970 C969 1.376 . S
C970 C971 1.388 . S
C971 H958 0.930 . S
C971 C970 1.388 . S
C971 C972 1.390 . S
C972 C971 1.390 . S
C972 C973 1.394 . S
C972 C978 1.465 . S
C973 C968 1.399 . S
C973 C972 1.394 . S
C973 C974 1.516 . S
C974 C973 1.516 . S
C974 C975 1.502 . S
C974 C976 1.561 . S
C974 C977 1.526 . S
C975 H959 0.959 . S
C975 H960 0.959 . S
C975 H961 0.961 . S
C975 C974 1.502 . S
C976 H962 0.960 . S
C976 H963 0.961 . S
C976 H964 0.959 . S
C976 C974 1.561 . S
C977 C974 1.526 . S
C977 C978 1.396 . S
C977 C982 1.390 . S
C978 C972 1.465 . S
C978 C977 1.396 . S
C978 C979 1.399 . S
C979 H965 0.929 . S
C979 C978 1.399 . S
C979 C980 1.385 . S
C980 H966 0.931 . S
C980 C979 1.385 . S
C980 C981 1.389 . S
C981 C980 1.389 . S
C981 C982 1.387 . S
C982 H967 0.930 . S
C982 C977 1.390 . S
C982 C981 1.387 . S
H983 C995 0.930 . S
H984 C997 0.930 . S
H985 C998 0.930 . S
H986 C1002 0.959 . S
H987 C1002 0.959 . S
H988 C1002 0.961 . S
H989 C1003 0.960 . S
H990 C1003 0.961 . S
H991 C1003 0.959 . S
H992 C1006 0.929 . S
H993 C1007 0.931 . S
H994 C1009 0.930 . S
C995 H983 0.930 . S
C995 C996 1.399 . S
C995 C1000 1.399 . S
C996 C995 1.399 . S
C996 C997 1.376 . S
C997 H984 0.930 . S
C997 C996 1.376 . S
C997 C998 1.388 . S
C998 H985 0.930 . S
C998 C997 1.388 . S
C998 C999 1.390 . S
C999 C998 1.390 . S
C999 C1000 1.394 . S
C999 C1005 1.465 . S
C1000 C995 1.399 . S
C1000 C999 1.394 . S
C1000 C1001 1.516 . S
C1001 C1000 1.516 . S
C1001 C1002 1.502 . S
C1001 C1003 1.561 . S
C1001 C1004 1.526 . S
C1002 H986 0.959 . S
C1002 H987 0.959 . S
C1002 H988 0.961 . S
C1002 C1001 1.502 . S
C1003 H989 0.960 . S
C1003 H990 0.961 . S
C1003 H991 0.959 . S
C1003 C1001 1.561 . S
C1004 C1001 1.526 . S
C1004 C1005 1.396 . S
C1004 C1009 1.390 . S
C1005 C999 1.465 . S
C1005 C1004 1.396 . S
C1005 C1006 1.399 . S
C1006 H992 0.929 . S
C1006 C1005 1.399 . S
C1006 C1007 1.385 . S
C1007 H993 0.931 . S
C1007 C1006 1.385 . S
C1007 C1008 1.389 . S
C1008 C1007 1.389 . S
C1008 C1009 1.387 . S
C1009 H994 0.930 . S
C1009 C1004 1.390 . S
C1009 C1008 1.387 . S
H1010 C1022 0.930 . S
H1011 C1024 0.930 . S
H1012 C1025 0.930 . S
H1013 C1029 0.959 . S
H1014 C1029 0.959 . S
H1015 C1029 0.961 . S
H1016 C1030 0.960 . S
H1017 C1030 0.961 . S
H1018 C1030 0.959 . S
H1019 C1033 0.929 . S
H1020 C1034 0.931 . S
H1021 C1036 0.930 . S
C1022 H1010 0.930 . S
C1022 C1023 1.399 . S
C1022 C1027 1.399 . S
C1023 C1022 1.399 . S
C1023 C1024 1.376 . S
C1024 H1011 0.930 . S
C1024 C1023 1.376 . S
C1024 C1025 1.388 . S
C1025 H1012 0.930 . S
C1025 C1024 1.388 . S
C1025 C1026 1.390 . S
C1026 C1025 1.390 . S
C1026 C1027 1.394 . S
C1026 C1032 1.465 . S
C1027 C1022 1.399 . S
C1027 C1026 1.394 . S
C1027 C1028 1.516 . S
C1028 C1027 1.516 . S
C1028 C1029 1.502 . S
C1028 C1030 1.561 . S
C1028 C1031 1.526 . S
C1029 H1013 0.959 . S
C1029 H1014 0.959 . S
C1029 H1015 0.961 . S
C1029 C1028 1.502 . S
C1030 H1016 0.960 . S
C1030 H1017 0.961 . S
C1030 H1018 0.959 . S
C1030 C1028 1.561 . S
C1031 C1028 1.526 . S
C1031 C1032 1.396 . S
C1031 C1036 1.390 . S
C1032 C1026 1.465 . S
C1032 C1031 1.396 . S
C1032 C1033 1.399 . S
C1033 H1019 0.929 . S
C1033 C1032 1.399 . S
C1033 C1034 1.385 . S
C1034 H1020 0.931 . S
C1034 C1033 1.385 . S
C1034 C1035 1.389 . S
C1035 C1034 1.389 . S
C1035 C1036 1.387 . S
C1036 H1021 0.930 . S
C1036 C1031 1.390 . S
C1036 C1035 1.387 . S
H1037 C1049 0.930 . S
H1038 C1051 0.930 . S
H1039 C1052 0.930 . S
H1040 C1056 0.959 . S
H1041 C1056 0.959 . S
H1042 C1056 0.961 . S
H1043 C1057 0.960 . S
H1044 C1057 0.961 . S
H1045 C1057 0.959 . S
H1046 C1060 0.929 . S
H1047 C1061 0.931 . S
H1048 C1063 0.930 . S
C1049 H1037 0.930 . S
C1049 C1050 1.399 . S
C1049 C1054 1.399 . S
C1050 C1049 1.399 . S
C1050 C1051 1.376 . S
C1051 H1038 0.930 . S
C1051 C1050 1.376 . S
C1051 C1052 1.388 . S
C1052 H1039 0.930 . S
C1052 C1051 1.388 . S
C1052 C1053 1.390 . S
C1053 C1052 1.390 . S
C1053 C1054 1.394 . S
C1053 C1059 1.465 . S
C1054 C1049 1.399 . S
C1054 C1053 1.394 . S
C1054 C1055 1.516 . S
C1055 C1054 1.516 . S
C1055 C1056 1.502 . S
C1055 C1057 1.561 . S
C1055 C1058 1.526 . S
C1056 H1040 0.959 . S
C1056 H1041 0.959 . S
C1056 H1042 0.961 . S
C1056 C1055 1.502 . S
C1057 H1043 0.960 . S
C1057 H1044 0.961 . S
C1057 H1045 0.959 . S
C1057 C1055 1.561 . S
C1058 C1055 1.526 . S
C1058 C1059 1.396 . S
C1058 C1063 1.390 . S
C1059 C1053 1.465 . S
C1059 C1058 1.396 . S
C1059 C1060 1.399 . S
C1060 H1046 0.929 . S
C1060 C1059 1.399 . S
C1060 C1061 1.385 . S
C1061 H1047 0.931 . S
C1061 C1060 1.385 . S
C1061 C1062 1.389 . S
C1062 C1061 1.389 . S
C1062 C1063 1.387 . S
C1063 H1048 0.930 . S
C1063 C1058 1.390 . S
C1063 C1062 1.387 . S
H1064 C1076 0.930 . S
H1065 C1078 0.930 . S
H1066 C1079 0.930 . S
H1067 C1083 0.959 . S
H1068 C1083 0.959 . S
H1069 C1083 0.961 . S
H1070 C1084 0.960 1_545 S
H1071 C1084 0.961 1_655 S
H1072 C1084 0.959 . S
H1073 C1087 0.929 1_455 S
H1074 C1088 0.931 . S
H1075 C1090 0.930 . S
C1076 H1064 0.930 . S
C1076 C1077 1.399 . S
C1076 C1081 1.399 . S
C1077 C1076 1.399 . S
C1077 C1078 1.376 . S
C1078 H1065 0.930 . S
C1078 C1077 1.376 . S
C1078 C1079 1.388 . S
C1079 H1066 0.930 . S
C1079 C1078 1.388 . S
C1079 C1080 1.390 . S
C1080 C1079 1.390 . S
C1080 C1081 1.394 . S
C1080 C1086 1.464 1_445 S
C1081 C1076 1.399 . S
C1081 C1080 1.394 . S
C1081 C1082 1.516 1_455 S
C1082 C1081 1.516 1_655 S
C1082 C1083 1.502 . S
C1082 C1084 1.561 1_645 S
C1082 C1085 1.526 1_545 S
C1083 H1067 0.959 . S
C1083 H1068 0.959 . S
C1083 H1069 0.961 . S
C1083 C1082 1.502 . S
C1084 H1070 0.960 1_565 S
C1084 H1071 0.961 1_455 S
C1084 H1072 0.959 . S
C1084 C1082 1.561 1_465 S
C1085 C1082 1.526 1_565 S
C1085 C1086 1.397 . S
C1085 C1090 1.390 . S
C1086 C1080 1.464 1_665 S
C1086 C1085 1.397 . S
C1086 C1087 1.399 . S
C1087 H1073 0.929 1_655 S
C1087 C1086 1.399 . S
C1087 C1088 1.385 . S
C1088 H1074 0.931 . S
C1088 C1087 1.385 . S
C1088 C1089 1.389 . S
C1089 C1088 1.389 . S
C1089 C1090 1.387 . S
C1090 H1075 0.930 . S
C1090 C1085 1.390 . S
C1090 C1089 1.387 . S
H1091 C1103 0.930 . S
H1092 C1105 0.930 . S
H1093 C1106 0.952 . S
H1094 C1110 0.959 . S
H1095 C1110 0.959 . S
H1096 C1110 0.961 . S
H1097 C1111 0.960 1_655 S
H1098 C1111 0.961 . S
H1099 C1111 0.959 . S
H1100 C1114 0.929 . S
H1101 C1115 0.931 . S
H1102 C1117 0.930 . S
C1103 H1091 0.930 . S
C1103 C1104 1.399 . S
C1103 C1108 1.399 . S
C1104 C1103 1.399 . S
C1104 C1105 1.376 . S
C1105 H1092 0.930 . S
C1105 C1104 1.376 . S
C1105 C1106 1.388 . S
C1106 H1093 0.952 . S
C1106 C1105 1.388 . S
C1106 C1107 1.390 . S
C1107 C1106 1.390 . S
C1107 C1108 1.394 . S
C1107 C1113 1.465 1_655 S
C1108 C1103 1.399 . S
C1108 C1107 1.394 . S
C1108 C1109 1.516 . S
C1109 C1108 1.516 . S
C1109 C1110 1.502 . S
C1109 C1111 1.561 1_655 S
C1109 C1112 1.526 1_655 S
C1110 H1094 0.959 . S
C1110 H1095 0.959 . S
C1110 H1096 0.961 . S
C1110 C1109 1.502 . S
C1111 H1097 0.960 1_455 S
C1111 H1098 0.961 . S
C1111 H1099 0.959 . S
C1111 C1109 1.561 1_455 S
C1112 C1109 1.526 1_455 S
C1112 C1113 1.396 . S
C1112 C1117 1.390 . S
C1113 C1107 1.465 1_455 S
C1113 C1112 1.396 . S
C1113 C1114 1.399 . S
C1114 H1100 0.929 . S
C1114 C1113 1.399 . S
C1114 C1115 1.385 . S
C1115 H1101 0.931 . S
C1115 C1114 1.385 . S
C1115 C1116 1.389 . S
C1116 C1115 1.389 . S
C1116 C1117 1.387 . S
C1117 H1102 0.930 . S
C1117 C1112 1.390 . S
C1117 C1116 1.387 . S
H1118 C1130 0.930 . S
H1119 C1132 0.930 . S
H1120 C1133 0.930 . S
H1121 C1137 0.959 . S
H1122 C1137 0.959 . S
H1123 C1137 0.961 . S
H1124 C1138 0.960 . S
H1125 C1138 0.961 . S
H1126 C1138 0.959 . S
H1127 C1141 0.929 . S
H1128 C1142 0.931 . S
H1129 C1144 0.930 . S
C1130 H1118 0.930 . S
C1130 C1131 1.399 . S
C1130 C1135 1.399 . S
C1131 C1130 1.399 . S
C1131 C1132 1.376 . S
C1132 H1119 0.930 . S
C1132 C1131 1.376 . S
C1132 C1133 1.388 . S
C1133 H1120 0.930 . S
C1133 C1132 1.388 . S
C1133 C1134 1.390 . S
C1134 C1133 1.390 . S
C1134 C1135 1.394 . S
C1134 C1140 1.465 . S
C1135 C1130 1.399 . S
C1135 C1134 1.394 . S
C1135 C1136 1.516 . S
C1136 C1135 1.516 . S
C1136 C1137 1.502 . S
C1136 C1138 1.561 . S
C1136 C1139 1.526 . S
C1137 H1121 0.959 . S
C1137 H1122 0.959 . S
C1137 H1123 0.961 . S
C1137 C1136 1.502 . S
C1138 H1124 0.960 . S
C1138 H1125 0.961 . S
C1138 H1126 0.959 . S
C1138 C1136 1.561 . S
C1139 C1136 1.526 . S
C1139 C1140 1.396 . S
C1139 C1144 1.390 . S
C1140 C1134 1.465 . S
C1140 C1139 1.396 . S
C1140 C1141 1.399 . S
C1141 H1127 0.929 . S
C1141 C1140 1.399 . S
C1141 C1142 1.385 . S
C1142 H1128 0.931 . S
C1142 C1141 1.385 . S
C1142 C1143 1.389 . S
C1143 C1142 1.389 . S
C1143 C1144 1.387 . S
C1144 H1129 0.930 . S
C1144 C1139 1.390 . S
C1144 C1143 1.387 . S
H1145 C1157 0.930 . S
H1146 C1159 0.930 . S
H1147 C1160 0.930 . S
H1148 C1164 0.959 . S
H1149 C1164 0.959 . S
H1150 C1164 0.993 . S
H1151 C1165 0.960 . S
H1152 C1165 0.961 . S
H1153 C1165 0.959 . S
H1154 C1168 0.929 . S
H1155 C1169 0.931 . S
H1156 C1171 0.930 . S
C1157 H1145 0.930 . S
C1157 C1158 1.399 1_556 S
C1157 C1162 1.399 . S
C1158 C1157 1.399 1_554 S
C1158 C1159 1.376 . S
C1159 H1146 0.930 . S
C1159 C1158 1.376 . S
C1159 C1160 1.388 . S
C1160 H1147 0.930 . S
C1160 C1159 1.388 . S
C1160 C1161 1.390 . S
C1161 C1160 1.390 . S
C1161 C1162 1.394 1_554 S
C1161 C1167 1.465 1_565 S
C1162 C1157 1.399 . S
C1162 C1161 1.394 1_556 S
C1162 C1163 1.516 . S
C1163 C1162 1.516 . S
C1163 C1164 1.502 1_565 S
C1163 C1165 1.561 . S
C1163 C1166 1.526 1_565 S
C1164 H1148 0.959 . S
C1164 H1149 0.959 . S
C1164 H1150 0.993 . S
C1164 C1163 1.502 1_545 S
C1165 H1151 0.960 . S
C1165 H1152 0.961 . S
C1165 H1153 0.959 . S
C1165 C1163 1.561 . S
C1166 C1163 1.526 1_545 S
C1166 C1167 1.396 1_556 S
C1166 C1171 1.390 . S
C1167 C1161 1.465 1_545 S
C1167 C1166 1.396 1_554 S
C1167 C1168 1.399 . S
C1168 H1154 0.929 . S
C1168 C1167 1.399 . S
C1168 C1169 1.385 . S
C1169 H1155 0.931 . S
C1169 C1168 1.385 . S
C1169 C1170 1.389 . S
C1170 C1169 1.389 . S
C1170 C1171 1.387 1_554 S
C1171 H1156 0.930 . S
C1171 C1166 1.390 . S
C1171 C1170 1.387 1_556 S
H1172 C1184 0.930 . S
H1173 C1186 0.930 1_556 S
H1174 C1187 0.930 1_656 S
H1175 C1191 0.959 1_655 S
H1176 C1191 0.959 . S
H1177 C1191 0.961 . S
H1178 C1192 0.960 . S
H1179 C1192 0.961 . S
H1180 C1192 0.959 . S
H1181 C1195 0.929 1_556 S
H1182 C1196 0.914 1_556 S
H1183 C1198 0.930 . S
C1184 H1172 0.930 . S
C1184 C1185 1.399 . S
C1184 C1189 1.399 . S
C1185 C1184 1.399 . S
C1185 C1186 1.376 . S
C1186 H1173 0.930 1_554 S
C1186 C1185 1.376 . S
C1186 C1187 1.388 . S
C1187 H1174 0.930 1_454 S
C1187 C1186 1.388 . S
C1187 C1188 1.390 . S
C1188 C1187 1.390 . S
C1188 C1189 1.394 . S
C1188 C1194 1.465 1_455 S
C1189 C1184 1.399 . S
C1189 C1188 1.394 . S
C1189 C1190 1.516 . S
C1190 C1189 1.516 . S
C1190 C1191 1.502 . S
C1190 C1192 1.561 . S
C1190 C1193 1.526 1_455 S
C1191 H1175 0.959 1_455 S
C1191 H1176 0.959 . S
C1191 H1177 0.961 . S
C1191 C1190 1.502 . S
C1192 H1178 0.960 . S
C1192 H1179 0.961 . S
C1192 H1180 0.959 . S
C1192 C1190 1.561 . S
C1193 C1190 1.526 1_655 S
C1193 C1194 1.396 . S
C1193 C1198 1.390 . S
C1194 C1188 1.465 1_655 S
C1194 C1193 1.396 . S
C1194 C1195 1.399 . S
C1195 H1181 0.929 1_554 S
C1195 C1194 1.399 . S
C1195 C1196 1.385 . S
C1196 H1182 0.914 1_554 S
C1196 C1195 1.385 . S
C1196 C1197 1.389 . S
C1197 C1196 1.389 . S
C1197 C1198 1.387 . S
C1198 H1183 0.930 . S
C1198 C1193 1.390 . S
C1198 C1197 1.387 . S
H1199 C1211 0.930 . S
H1200 C1213 0.930 . S
H1201 C1214 0.930 . S
H1202 C1218 0.959 . S
H1203 C1218 0.959 . S
H1204 C1218 0.961 . S
H1205 C1219 0.960 . S
H1206 C1219 0.961 . S
H1207 C1219 0.959 . S
H1208 C1222 0.929 . S
H1209 C1223 0.931 . S
H1210 C1225 0.930 . S
C1211 H1199 0.930 . S
C1211 C1212 1.399 . S
C1211 C1216 1.399 . S
C1212 C1211 1.399 . S
C1212 C1213 1.376 . S
C1213 H1200 0.930 . S
C1213 C1212 1.376 . S
C1213 C1214 1.388 . S
C1214 H1201 0.930 . S
C1214 C1213 1.388 . S
C1214 C1215 1.390 . S
C1215 C1214 1.390 . S
C1215 C1216 1.394 . S
C1215 C1221 1.465 . S
C1216 C1211 1.399 . S
C1216 C1215 1.394 . S
C1216 C1217 1.516 . S
C1217 C1216 1.516 . S
C1217 C1218 1.502 . S
C1217 C1219 1.561 . S
C1217 C1220 1.526 . S
C1218 H1202 0.959 . S
C1218 H1203 0.959 . S
C1218 H1204 0.961 . S
C1218 C1217 1.502 . S
C1219 H1205 0.960 . S
C1219 H1206 0.961 . S
C1219 H1207 0.959 . S
C1219 C1217 1.561 . S
C1220 C1217 1.526 . S
C1220 C1221 1.396 . S
C1220 C1225 1.390 . S
C1221 C1215 1.465 . S
C1221 C1220 1.396 . S
C1221 C1222 1.399 . S
C1222 H1208 0.929 . S
C1222 C1221 1.399 . S
C1222 C1223 1.385 . S
C1223 H1209 0.931 . S
C1223 C1222 1.385 . S
C1223 C1224 1.389 . S
C1224 C1223 1.389 . S
C1224 C1225 1.387 . S
C1225 H1210 0.930 . S
C1225 C1220 1.390 . S
C1225 C1224 1.387 . S
H1226 C1238 0.930 . S
H1227 C1240 0.930 . S
H1228 C1241 0.930 . S
H1229 C1245 0.959 . S
H1230 C1245 0.959 1_565 S
H1231 C1245 0.961 . S
H1232 C1246 0.960 1_545 S
H1233 C1246 0.961 . S
H1234 C1246 0.959 . S
H1235 C1249 0.929 . S
H1236 C1250 0.931 . S
H1237 C1252 0.930 . S
C1238 H1226 0.930 . S
C1238 C1239 1.399 . S
C1238 C1243 1.399 . S
C1239 C1238 1.399 . S
C1239 C1240 1.376 . S
C1240 H1227 0.930 . S
C1240 C1239 1.376 . S
C1240 C1241 1.388 . S
C1241 H1228 0.930 . S
C1241 C1240 1.388 . S
C1241 C1242 1.390 . S
C1242 C1241 1.390 . S
C1242 C1243 1.394 . S
C1242 C1248 1.465 1_545 S
C1243 C1238 1.399 . S
C1243 C1242 1.394 . S
C1243 C1244 1.523 . S
C1244 C1243 1.523 . S
C1244 C1245 1.505 . S
C1244 C1246 1.557 1_545 S
C1244 C1247 1.519 1_545 S
C1245 H1229 0.959 . S
C1245 H1230 0.959 1_545 S
C1245 H1231 0.961 . S
C1245 C1244 1.505 . S
C1246 H1232 0.960 1_565 S
C1246 H1233 0.961 . S
C1246 H1234 0.959 . S
C1246 C1244 1.557 1_565 S
C1247 C1244 1.519 1_565 S
C1247 C1248 1.396 . S
C1247 C1252 1.390 . S
C1248 C1242 1.465 1_565 S
C1248 C1247 1.396 . S
C1248 C1249 1.399 . S
C1249 H1235 0.929 . S
C1249 C1248 1.399 . S
C1249 C1250 1.385 . S
C1250 H1236 0.931 . S
C1250 C1249 1.385 . S
C1250 C1251 1.389 . S
C1251 C1250 1.389 . S
C1251 C1252 1.387 . S
C1252 H1237 0.930 . S
C1252 C1247 1.390 . S
C1252 C1251 1.387 . S
H1253 C1265 0.930 . S
H1254 C1267 0.930 . S
H1255 C1268 0.930 1_565 S
H1256 C1272 0.959 . S
H1257 C1272 0.959 . S
H1258 C1272 0.961 . S
H1259 C1273 0.960 . S
H1260 C1273 0.961 . S
H1261 C1273 0.959 . S
H1262 C1276 0.929 1_455 S
H1263 C1277 0.931 . S
H1264 C1279 0.930 . S
C1265 H1253 0.930 . S
C1265 C1266 1.399 . S
C1265 C1270 1.399 . S
C1266 C1265 1.399 . S
C1266 C1267 1.376 . S
C1267 H1254 0.930 . S
C1267 C1266 1.376 . S
C1267 C1268 1.388 . S
C1268 H1255 0.930 1_545 S
C1268 C1267 1.388 . S
C1268 C1269 1.390 . S
C1269 C1268 1.390 . S
C1269 C1270 1.394 . S
C1269 C1275 1.465 1_445 S
C1270 C1265 1.399 . S
C1270 C1269 1.394 . S
C1270 C1271 1.516 1_455 S
C1271 C1270 1.516 1_655 S
C1271 C1272 1.502 . S
C1271 C1273 1.561 . S
C1271 C1274 1.526 1_545 S
C1272 H1256 0.959 . S
C1272 H1257 0.959 . S
C1272 H1258 0.961 . S
C1272 C1271 1.502 . S
C1273 H1259 0.960 . S
C1273 H1260 0.961 . S
C1273 H1261 0.959 . S
C1273 C1271 1.561 . S
C1274 C1271 1.526 1_565 S
C1274 C1275 1.396 . S
C1274 C1279 1.390 . S
C1275 C1269 1.465 1_665 S
C1275 C1274 1.396 . S
C1275 C1276 1.399 . S
C1276 H1262 0.929 1_655 S
C1276 C1275 1.399 . S
C1276 C1277 1.385 . S
C1277 H1263 0.931 . S
C1277 C1276 1.385 . S
C1277 C1278 1.389 . S
C1278 C1277 1.389 . S
C1278 C1279 1.387 . S
C1279 H1264 0.930 . S
C1279 C1274 1.390 . S
C1279 C1278 1.387 . S
H1280 C1292 0.930 . S
H1281 C1294 0.930 . S
H1282 C1295 0.930 . S
H1283 C1299 0.959 . S
H1284 C1299 0.959 . S
H1285 C1299 0.961 . S
H1286 C1300 0.960 . S
H1287 C1300 0.961 . S
H1288 C1300 0.959 . S
H1289 C1303 0.929 . S
H1290 C1304 0.931 . S
H1291 C1306 0.930 . S
C1292 H1280 0.930 . S
C1292 C1293 1.399 . S
C1292 C1297 1.399 . S
C1293 C1292 1.399 . S
C1293 C1294 1.376 . S
C1294 H1281 0.930 . S
C1294 C1293 1.376 . S
C1294 C1295 1.388 . S
C1295 H1282 0.930 . S
C1295 C1294 1.388 . S
C1295 C1296 1.390 . S
C1296 C1295 1.390 . S
C1296 C1297 1.394 . S
C1296 C1302 1.465 . S
C1297 C1292 1.399 . S
C1297 C1296 1.394 . S
C1297 C1298 1.516 . S
C1298 C1297 1.516 . S
C1298 C1299 1.502 . S
C1298 C1300 1.561 . S
C1298 C1301 1.526 . S
C1299 H1283 0.959 . S
C1299 H1284 0.959 . S
C1299 H1285 0.961 . S
C1299 C1298 1.502 . S
C1300 H1286 0.960 . S
C1300 H1287 0.961 . S
C1300 H1288 0.959 . S
C1300 C1298 1.561 . S
C1301 C1298 1.526 . S
C1301 C1302 1.396 . S
C1301 C1306 1.390 . S
C1302 C1296 1.465 . S
C1302 C1301 1.396 . S
C1302 C1303 1.399 . S
C1303 H1289 0.929 . S
C1303 C1302 1.399 . S
C1303 C1304 1.385 . S
C1304 H1290 0.931 . S
C1304 C1303 1.385 . S
C1304 C1305 1.389 . S
C1305 C1304 1.389 . S
C1305 C1306 1.387 . S
C1306 H1291 0.930 . S
C1306 C1301 1.390 . S
C1306 C1305 1.387 . S
H1307 C1319 0.930 . S
H1308 C1321 0.930 . S
H1309 C1322 0.930 . S
H1310 C1326 0.959 . S
H1311 C1326 0.959 . S
H1312 C1326 0.961 . S
H1313 C1327 0.960 . S
H1314 C1327 0.961 . S
H1315 C1327 0.959 . S
H1316 C1330 0.929 . S
H1317 C1331 0.931 . S
H1318 C1333 0.930 . S
C1319 H1307 0.930 . S
C1319 C1320 1.399 . S
C1319 C1324 1.399 . S
C1320 C1319 1.399 . S
C1320 C1321 1.376 . S
C1321 H1308 0.930 . S
C1321 C1320 1.376 . S
C1321 C1322 1.388 . S
C1322 H1309 0.930 . S
C1322 C1321 1.388 . S
C1322 C1323 1.390 . S
C1323 C1322 1.390 . S
C1323 C1324 1.394 . S
C1323 C1329 1.465 . S
C1324 C1319 1.399 . S
C1324 C1323 1.394 . S
C1324 C1325 1.516 . S
C1325 C1324 1.516 . S
C1325 C1326 1.502 . S
C1325 C1327 1.561 . S
C1325 C1328 1.526 . S
C1326 H1310 0.959 . S
C1326 H1311 0.959 . S
C1326 H1312 0.961 . S
C1326 C1325 1.502 . S
C1327 H1313 0.960 . S
C1327 H1314 0.961 . S
C1327 H1315 0.959 . S
C1327 C1325 1.561 . S
C1328 C1325 1.526 . S
C1328 C1329 1.396 . S
C1328 C1333 1.390 . S
C1329 C1323 1.465 . S
C1329 C1328 1.396 . S
C1329 C1330 1.399 . S
C1330 H1316 0.929 . S
C1330 C1329 1.399 . S
C1330 C1331 1.385 . S
C1331 H1317 0.931 . S
C1331 C1330 1.385 . S
C1331 C1332 1.389 . S
C1332 C1331 1.389 . S
C1332 C1333 1.387 . S
C1333 H1318 0.930 . S
C1333 C1328 1.390 . S
C1333 C1332 1.387 . S
H1334 C1346 0.930 . S
H1335 C1348 0.930 . S
H1336 C1349 0.930 . S
H1337 C1353 0.959 . S
H1338 C1353 0.959 . S
H1339 C1353 0.961 . S
H1340 C1354 0.960 . S
H1341 C1354 0.961 . S
H1342 C1354 0.959 . S
H1343 C1357 0.929 . S
H1344 C1358 0.931 . S
H1345 C1360 0.930 . S
C1346 H1334 0.930 . S
C1346 C1347 1.399 . S
C1346 C1351 1.399 . S
C1347 C1346 1.399 . S
C1347 C1348 1.376 . S
C1348 H1335 0.930 . S
C1348 C1347 1.376 . S
C1348 C1349 1.388 . S
C1349 H1336 0.930 . S
C1349 C1348 1.388 . S
C1349 C1350 1.390 . S
C1350 C1349 1.390 . S
C1350 C1351 1.394 . S
C1350 C1356 1.465 . S
C1351 C1346 1.399 . S
C1351 C1350 1.394 . S
C1351 C1352 1.516 . S
C1352 C1351 1.516 . S
C1352 C1353 1.502 . S
C1352 C1354 1.561 . S
C1352 C1355 1.526 . S
C1353 H1337 0.959 . S
C1353 H1338 0.959 . S
C1353 H1339 0.961 . S
C1353 C1352 1.502 . S
C1354 H1340 0.960 . S
C1354 H1341 0.961 . S
C1354 H1342 0.959 . S
C1354 C1352 1.561 . S
C1355 C1352 1.526 . S
C1355 C1356 1.396 . S
C1355 C1360 1.390 . S
C1356 C1350 1.465 . S
C1356 C1355 1.396 . S
C1356 C1357 1.399 . S
C1357 H1343 0.929 . S
C1357 C1356 1.399 . S
C1357 C1358 1.385 1_554 S
C1358 H1344 0.931 . S
C1358 C1357 1.385 1_556 S
C1358 C1359 1.389 . S
C1359 C1358 1.389 . S
C1359 C1360 1.387 1_556 S
C1360 H1345 0.930 . S
C1360 C1355 1.390 . S
C1360 C1359 1.387 1_554 S
H1361 C1373 0.930 . S
H1362 C1375 0.930 . S
H1363 C1376 0.930 . S
H1364 C1380 0.959 . S
H1365 C1380 0.959 . S
H1366 C1380 0.961 . S
H1367 C1381 0.960 . S
H1368 C1381 0.961 . S
H1369 C1381 0.959 . S
H1370 C1384 0.929 . S
H1371 C1385 0.931 . S
H1372 C1387 0.930 . S
C1373 H1361 0.930 . S
C1373 C1374 1.399 . S
C1373 C1378 1.399 . S
C1374 C1373 1.399 . S
C1374 C1375 1.376 . S
C1375 H1362 0.930 . S
C1375 C1374 1.376 . S
C1375 C1376 1.388 . S
C1376 H1363 0.930 . S
C1376 C1375 1.388 . S
C1376 C1377 1.390 . S
C1377 C1376 1.390 . S
C1377 C1378 1.394 . S
C1377 C1383 1.465 . S
C1378 C1373 1.399 . S
C1378 C1377 1.394 . S
C1378 C1379 1.516 . S
C1379 C1378 1.516 . S
C1379 C1380 1.502 . S
C1379 C1381 1.561 . S
C1379 C1382 1.526 . S
C1380 H1364 0.959 . S
C1380 H1365 0.959 . S
C1380 H1366 0.961 . S
C1380 C1379 1.502 . S
C1381 H1367 0.960 . S
C1381 H1368 0.961 . S
C1381 H1369 0.959 . S
C1381 C1379 1.561 . S
C1382 C1379 1.526 . S
C1382 C1383 1.396 . S
C1382 C1387 1.390 . S
C1383 C1377 1.465 . S
C1383 C1382 1.396 . S
C1383 C1384 1.399 . S
C1384 H1370 0.929 . S
C1384 C1383 1.399 . S
C1384 C1385 1.385 . S
C1385 H1371 0.931 . S
C1385 C1384 1.385 . S
C1385 C1386 1.389 . S
C1386 C1385 1.389 . S
C1386 C1387 1.387 . S
C1387 H1372 0.930 . S
C1387 C1382 1.390 . S
C1387 C1386 1.387 . S
H1388 C1400 0.930 . S
H1389 C1402 0.930 . S
H1390 C1403 0.930 . S
H1391 C1407 0.959 . S
H1392 C1407 0.959 . S
H1393 C1407 0.961 . S
H1394 C1408 0.960 . S
H1395 C1408 0.961 . S
H1396 C1408 0.959 . S
H1397 C1411 0.929 . S
H1398 C1412 0.931 . S
H1399 C1414 0.930 . S
C1400 H1388 0.930 . S
C1400 C1401 1.399 . S
C1400 C1405 1.399 . S
C1401 C1400 1.399 . S
C1401 C1402 1.376 . S
C1402 H1389 0.930 . S
C1402 C1401 1.376 . S
C1402 C1403 1.388 . S
C1403 H1390 0.930 . S
C1403 C1402 1.388 . S
C1403 C1404 1.390 . S
C1404 C1403 1.390 . S
C1404 C1405 1.394 . S
C1404 C1410 1.465 . S
C1405 C1400 1.399 . S
C1405 C1404 1.394 . S
C1405 C1406 1.516 . S
C1406 C1405 1.516 . S
C1406 C1407 1.502 . S
C1406 C1408 1.561 . S
C1406 C1409 1.526 . S
C1407 H1391 0.959 . S
C1407 H1392 0.959 . S
C1407 H1393 0.961 . S
C1407 C1406 1.502 . S
C1408 H1394 0.960 . S
C1408 H1395 0.961 . S
C1408 H1396 0.959 . S
C1408 C1406 1.561 . S
C1409 C1406 1.526 . S
C1409 C1410 1.396 . S
C1409 C1414 1.390 . S
C1410 C1404 1.465 . S
C1410 C1409 1.396 . S
C1410 C1411 1.399 . S
C1411 H1397 0.929 . S
C1411 C1410 1.399 . S
C1411 C1412 1.385 . S
C1412 H1398 0.931 . S
C1412 C1411 1.385 . S
C1412 C1413 1.389 . S
C1413 C1412 1.389 . S
C1413 C1414 1.387 . S
C1414 H1399 0.930 . S
C1414 C1409 1.390 . S
C1414 C1413 1.387 . S
H1415 C1427 0.930 . S
H1416 C1429 0.930 . S
H1417 C1430 0.930 . S
H1418 C1434 0.959 . S
H1419 C1434 0.959 . S
H1420 C1434 0.961 . S
H1421 C1435 0.960 . S
H1422 C1435 0.961 . S
H1423 C1435 0.959 . S
H1424 C1438 0.929 . S
H1425 C1439 0.931 . S
H1426 C1441 0.930 . S
C1427 H1415 0.930 . S
C1427 C1428 1.399 . S
C1427 C1432 1.399 . S
C1428 C1427 1.399 . S
C1428 C1429 1.376 . S
C1429 H1416 0.930 . S
C1429 C1428 1.376 . S
C1429 C1430 1.388 . S
C1430 H1417 0.930 . S
C1430 C1429 1.388 . S
C1430 C1431 1.390 . S
C1431 C1430 1.390 . S
C1431 C1432 1.394 . S
C1431 C1437 1.465 . S
C1432 C1427 1.399 . S
C1432 C1431 1.394 . S
C1432 C1433 1.516 . S
C1433 C1432 1.516 . S
C1433 C1434 1.502 . S
C1433 C1435 1.561 . S
C1433 C1436 1.526 . S
C1434 H1418 0.959 . S
C1434 H1419 0.959 . S
C1434 H1420 0.961 . S
C1434 C1433 1.502 . S
C1435 H1421 0.960 . S
C1435 H1422 0.961 . S
C1435 H1423 0.959 . S
C1435 C1433 1.561 . S
C1436 C1433 1.526 . S
C1436 C1437 1.396 . S
C1436 C1441 1.390 1_554 S
C1437 C1431 1.465 . S
C1437 C1436 1.396 . S
C1437 C1438 1.399 . S
C1438 H1424 0.929 . S
C1438 C1437 1.399 . S
C1438 C1439 1.385 1_554 S
C1439 H1425 0.931 . S
C1439 C1438 1.385 1_556 S
C1439 C1440 1.389 . S
C1440 C1439 1.389 . S
C1440 C1441 1.387 . S
C1441 H1426 0.930 . S
C1441 C1436 1.390 1_556 S
C1441 C1440 1.387 . S
H1442 C1454 0.930 . S
H1443 C1456 0.930 . S
H1444 C1457 0.930 . S
H1445 C1461 0.959 . S
H1446 C1461 0.959 . S
H1447 C1461 0.961 . S
H1448 C1462 0.960 . S
H1449 C1462 0.961 . S
H1450 C1462 0.959 . S
H1451 C1465 0.929 . S
H1452 C1466 0.931 . S
H1453 C1468 0.930 . S
C1454 H1442 0.930 . S
C1454 C1455 1.399 . S
C1454 C1459 1.399 . S
C1455 C1454 1.399 . S
C1455 C1456 1.376 . S
C1456 H1443 0.930 . S
C1456 C1455 1.376 . S
C1456 C1457 1.388 . S
C1457 H1444 0.930 . S
C1457 C1456 1.388 . S
C1457 C1458 1.390 . S
C1458 C1457 1.390 . S
C1458 C1459 1.394 . S
C1458 C1464 1.465 . S
C1459 C1454 1.399 . S
C1459 C1458 1.394 . S
C1459 C1460 1.516 . S
C1460 C1459 1.516 . S
C1460 C1461 1.502 . S
C1460 C1462 1.561 . S
C1460 C1463 1.526 . S
C1461 H1445 0.959 . S
C1461 H1446 0.959 . S
C1461 H1447 0.961 . S
C1461 C1460 1.502 . S
C1462 H1448 0.960 . S
C1462 H1449 0.961 . S
C1462 H1450 0.959 . S
C1462 C1460 1.561 . S
C1463 C1460 1.526 . S
C1463 C1464 1.396 . S
C1463 C1468 1.390 . S
C1464 C1458 1.465 . S
C1464 C1463 1.396 . S
C1464 C1465 1.399 . S
C1465 H1451 0.929 . S
C1465 C1464 1.399 . S
C1465 C1466 1.385 . S
C1466 H1452 0.931 . S
C1466 C1465 1.385 . S
C1466 C1467 1.389 . S
C1467 C1466 1.389 . S
C1467 C1468 1.387 . S
C1468 H1453 0.930 . S
C1468 C1463 1.390 . S
C1468 C1467 1.387 . S
H1469 C1481 0.930 . S
H1470 C1483 0.930 . S
H1471 C1484 0.930 . S
H1472 C1488 0.959 . S
H1473 C1488 0.959 . S
H1474 C1488 0.961 . S
H1475 C1489 0.960 . S
H1476 C1489 0.961 . S
H1477 C1489 0.959 . S
H1478 C1492 0.929 . S
H1479 C1493 0.931 . S
H1480 C1495 0.930 . S
C1481 H1469 0.930 . S
C1481 C1482 1.399 . S
C1481 C1486 1.399 . S
C1482 C1481 1.399 . S
C1482 C1483 1.376 . S
C1483 H1470 0.930 . S
C1483 C1482 1.376 . S
C1483 C1484 1.388 . S
C1484 H1471 0.930 . S
C1484 C1483 1.388 . S
C1484 C1485 1.390 . S
C1485 C1484 1.390 . S
C1485 C1486 1.394 . S
C1485 C1491 1.465 . S
C1486 C1481 1.399 . S
C1486 C1485 1.394 . S
C1486 C1487 1.516 . S
C1487 C1486 1.516 . S
C1487 C1488 1.502 . S
C1487 C1489 1.561 . S
C1487 C1490 1.526 . S
C1488 H1472 0.959 . S
C1488 H1473 0.959 . S
C1488 H1474 0.961 . S
C1488 C1487 1.502 . S
C1489 H1475 0.960 . S
C1489 H1476 0.961 . S
C1489 H1477 0.959 . S
C1489 C1487 1.561 . S
C1490 C1487 1.526 . S
C1490 C1491 1.396 . S
C1490 C1495 1.390 . S
C1491 C1485 1.465 . S
C1491 C1490 1.396 . S
C1491 C1492 1.399 . S
C1492 H1478 0.929 . S
C1492 C1491 1.399 . S
C1492 C1493 1.385 . S
C1493 H1479 0.931 . S
C1493 C1492 1.385 . S
C1493 C1494 1.389 . S
C1494 C1493 1.389 . S
C1494 C1495 1.387 . S
C1495 H1480 0.930 . S
C1495 C1490 1.390 . S
C1495 C1494 1.387 . S
H1496 C1508 0.930 . S
H1497 C1510 0.930 . S
H1498 C1511 0.930 . S
H1499 C1515 0.959 . S
H1500 C1515 0.959 . S
H1501 C1515 0.961 . S
H1502 C1516 0.960 . S
H1503 C1516 0.961 . S
H1504 C1516 0.959 . S
H1505 C1519 0.929 . S
H1506 C1520 0.931 . S
H1507 C1522 0.930 . S
C1508 H1496 0.930 . S
C1508 C1509 1.399 . S
C1508 C1513 1.399 . S
C1509 C1508 1.399 . S
C1509 C1510 1.376 . S
C1510 H1497 0.930 . S
C1510 C1509 1.376 . S
C1510 C1511 1.388 . S
C1511 H1498 0.930 . S
C1511 C1510 1.388 . S
C1511 C1512 1.404 . S
C1512 C1511 1.404 . S
C1512 C1513 1.396 . S
C1512 C1518 1.448 1_556 S
C1513 C1508 1.399 . S
C1513 C1512 1.396 . S
C1513 C1514 1.516 1_556 S
C1514 C1513 1.516 1_554 S
C1514 C1515 1.502 . S
C1514 C1516 1.561 . S
C1514 C1517 1.526 . S
C1515 H1499 0.959 . S
C1515 H1500 0.959 . S
C1515 H1501 0.961 . S
C1515 C1514 1.502 . S
C1516 H1502 0.960 . S
C1516 H1503 0.961 . S
C1516 H1504 0.959 . S
C1516 C1514 1.561 . S
C1517 C1514 1.526 . S
C1517 C1518 1.396 . S
C1517 C1522 1.390 . S
C1518 C1512 1.448 1_554 S
C1518 C1517 1.396 . S
C1518 C1519 1.399 . S
C1519 H1505 0.929 . S
C1519 C1518 1.399 . S
C1519 C1520 1.385 . S
C1520 H1506 0.931 . S
C1520 C1519 1.385 . S
C1520 C1521 1.389 . S
C1521 C1520 1.389 . S
C1521 C1522 1.387 . S
C1522 H1507 0.930 . S
C1522 C1517 1.390 . S
C1522 C1521 1.387 . S
H1523 C1535 0.930 . S
H1524 C1537 0.930 . S
H1525 C1538 0.930 . S
H1526 C1542 0.959 . S
H1527 C1542 0.959 . S
H1528 C1542 0.961 . S
H1529 C1543 0.960 . S
H1530 C1543 0.961 . S
H1531 C1543 0.959 . S
H1532 C1546 0.929 . S
H1533 C1547 0.931 . S
H1534 C1549 0.930 . S
C1535 H1523 0.930 . S
C1535 C1536 1.399 . S
C1535 C1540 1.399 . S
C1536 C1535 1.399 . S
C1536 C1537 1.376 . S
C1537 H1524 0.930 . S
C1537 C1536 1.376 . S
C1537 C1538 1.388 . S
C1538 H1525 0.930 . S
C1538 C1537 1.388 . S
C1538 C1539 1.390 . S
C1539 C1538 1.390 . S
C1539 C1540 1.394 . S
C1539 C1545 1.465 . S
C1540 C1535 1.399 . S
C1540 C1539 1.394 . S
C1540 C1541 1.516 . S
C1541 C1540 1.516 . S
C1541 C1542 1.502 . S
C1541 C1543 1.561 . S
C1541 C1544 1.526 . S
C1542 H1526 0.959 . S
C1542 H1527 0.959 . S
C1542 H1528 0.961 . S
C1542 C1541 1.502 . S
C1543 H1529 0.960 . S
C1543 H1530 0.961 . S
C1543 H1531 0.959 . S
C1543 C1541 1.561 . S
C1544 C1541 1.526 . S
C1544 C1545 1.396 . S
C1544 C1549 1.390 . S
C1545 C1539 1.465 . S
C1545 C1544 1.396 . S
C1545 C1546 1.399 . S
C1546 H1532 0.929 . S
C1546 C1545 1.399 . S
C1546 C1547 1.385 . S
C1547 H1533 0.931 . S
C1547 C1546 1.385 . S
C1547 C1548 1.389 . S
C1548 C1547 1.389 . S
C1548 C1549 1.387 . S
C1549 H1534 0.930 . S
C1549 C1544 1.390 . S
C1549 C1548 1.387 . S
H1550 C1562 0.930 . S
H1551 C1564 0.930 . S
H1552 C1565 0.930 . S
H1553 C1569 0.959 . S
H1554 C1569 0.959 . S
H1555 C1569 0.961 . S
H1556 C1570 0.960 . S
H1557 C1570 0.961 . S
H1558 C1570 0.959 . S
H1559 C1573 0.929 . S
H1560 C1574 0.931 . S
H1561 C1576 0.930 . S
C1562 H1550 0.930 . S
C1562 C1563 1.399 . S
C1562 C1567 1.399 . S
C1563 C1562 1.399 . S
C1563 C1564 1.376 . S
C1564 H1551 0.930 . S
C1564 C1563 1.376 . S
C1564 C1565 1.388 . S
C1565 H1552 0.930 . S
C1565 C1564 1.388 . S
C1565 C1566 1.390 . S
C1566 C1565 1.390 . S
C1566 C1567 1.394 . S
C1566 C1572 1.465 . S
C1567 C1562 1.399 . S
C1567 C1566 1.394 . S
C1567 C1568 1.516 . S
C1568 C1567 1.516 . S
C1568 C1569 1.502 . S
C1568 C1570 1.561 . S
C1568 C1571 1.526 . S
C1569 H1553 0.959 . S
C1569 H1554 0.959 . S
C1569 H1555 0.961 . S
C1569 C1568 1.502 . S
C1570 H1556 0.960 . S
C1570 H1557 0.961 . S
C1570 H1558 0.959 . S
C1570 C1568 1.561 . S
C1571 C1568 1.526 . S
C1571 C1572 1.396 . S
C1571 C1576 1.390 . S
C1572 C1566 1.465 . S
C1572 C1571 1.396 . S
C1572 C1573 1.399 . S
C1573 H1559 0.929 . S
C1573 C1572 1.399 . S
C1573 C1574 1.385 . S
C1574 H1560 0.931 . S
C1574 C1573 1.385 . S
C1574 C1575 1.389 . S
C1575 C1574 1.389 . S
C1575 C1576 1.387 . S
C1576 H1561 0.930 . S
C1576 C1571 1.390 . S
C1576 C1575 1.387 . S
H1577 C1589 0.930 . S
H1578 C1591 0.930 . S
H1579 C1592 0.930 . S
H1580 C1596 0.959 . S
H1581 C1596 0.959 . S
H1582 C1596 0.961 . S
H1583 C1597 0.960 . S
H1584 C1597 0.961 . S
H1585 C1597 0.959 . S
H1586 C1600 0.929 . S
H1587 C1601 0.931 . S
H1588 C1603 0.930 . S
C1589 H1577 0.930 . S
C1589 C1590 1.399 . S
C1589 C1594 1.399 . S
C1590 C1589 1.399 . S
C1590 C1591 1.376 . S
C1591 H1578 0.930 . S
C1591 C1590 1.376 . S
C1591 C1592 1.388 . S
C1592 H1579 0.930 . S
C1592 C1591 1.388 . S
C1592 C1593 1.390 . S
C1593 C1592 1.390 . S
C1593 C1594 1.394 . S
C1593 C1599 1.465 . S
C1594 C1589 1.399 . S
C1594 C1593 1.394 . S
C1594 C1595 1.516 . S
C1595 C1594 1.516 . S
C1595 C1596 1.502 . S
C1595 C1597 1.561 . S
C1595 C1598 1.526 . S
C1596 H1580 0.959 . S
C1596 H1581 0.959 . S
C1596 H1582 0.961 . S
C1596 C1595 1.502 . S
C1597 H1583 0.960 . S
C1597 H1584 0.961 . S
C1597 H1585 0.959 . S
C1597 C1595 1.561 . S
C1598 C1595 1.526 . S
C1598 C1599 1.396 . S
C1598 C1603 1.390 . S
C1599 C1593 1.465 . S
C1599 C1598 1.396 . S
C1599 C1600 1.399 . S
C1600 H1586 0.929 . S
C1600 C1599 1.399 . S
C1600 C1601 1.385 . S
C1601 H1587 0.931 . S
C1601 C1600 1.385 . S
C1601 C1602 1.389 . S
C1602 C1601 1.389 . S
C1602 C1603 1.387 . S
C1603 H1588 0.930 . S
C1603 C1598 1.390 . S
C1603 C1602 1.387 . S
H1604 C1616 0.930 . S
H1605 C1618 0.930 . S
H1606 C1619 0.930 . S
H1607 C1623 0.959 . S
H1608 C1623 0.959 . S
H1609 C1623 0.961 . S
H1610 C1624 0.960 . S
H1611 C1624 0.961 . S
H1612 C1624 0.959 . S
H1613 C1627 0.929 . S
H1614 C1628 0.931 . S
H1615 C1630 0.930 . S
C1616 H1604 0.930 . S
C1616 C1617 1.399 . S
C1616 C1621 1.399 . S
C1617 C1616 1.399 . S
C1617 C1618 1.376 . S
C1618 H1605 0.930 . S
C1618 C1617 1.376 . S
C1618 C1619 1.388 . S
C1619 H1606 0.930 . S
C1619 C1618 1.388 . S
C1619 C1620 1.390 . S
C1620 C1619 1.390 . S
C1620 C1621 1.394 . S
C1620 C1626 1.465 . S
C1621 C1616 1.399 . S
C1621 C1620 1.394 . S
C1621 C1622 1.516 . S
C1622 C1621 1.516 . S
C1622 C1623 1.502 . S
C1622 C1624 1.561 . S
C1622 C1625 1.526 . S
C1623 H1607 0.959 . S
C1623 H1608 0.959 . S
C1623 H1609 0.961 . S
C1623 C1622 1.502 . S
C1624 H1610 0.960 . S
C1624 H1611 0.961 . S
C1624 H1612 0.959 . S
C1624 C1622 1.561 . S
C1625 C1622 1.526 . S
C1625 C1626 1.396 . S
C1625 C1630 1.390 . S
C1626 C1620 1.465 . S
C1626 C1625 1.396 . S
C1626 C1627 1.399 . S
C1627 H1613 0.929 . S
C1627 C1626 1.399 . S
C1627 C1628 1.385 . S
C1628 H1614 0.931 . S
C1628 C1627 1.385 . S
C1628 C1629 1.389 . S
C1629 C1628 1.389 . S
C1629 C1630 1.387 . S
C1630 H1615 0.930 . S
C1630 C1625 1.390 . S
C1630 C1629 1.387 . S
H1631 C1643 0.930 . S
H1632 C1645 0.930 . S
H1633 C1646 0.930 . S
H1634 C1650 0.959 . S
H1635 C1650 0.959 . S
H1636 C1650 0.961 . S
H1637 C1651 0.960 . S
H1638 C1651 0.961 . S
H1639 C1651 0.959 . S
H1640 C1654 0.929 . S
H1641 C1655 0.931 . S
H1642 C1657 0.930 . S
C1643 H1631 0.930 . S
C1643 C1644 1.399 . S
C1643 C1648 1.399 . S
C1644 C1643 1.399 . S
C1644 C1645 1.376 . S
C1645 H1632 0.930 . S
C1645 C1644 1.376 . S
C1645 C1646 1.388 . S
C1646 H1633 0.930 . S
C1646 C1645 1.388 . S
C1646 C1647 1.390 . S
C1647 C1646 1.390 . S
C1647 C1648 1.394 . S
C1647 C1653 1.465 . S
C1648 C1643 1.399 . S
C1648 C1647 1.394 . S
C1648 C1649 1.516 . S
C1649 C1648 1.516 . S
C1649 C1650 1.502 . S
C1649 C1651 1.561 . S
C1649 C1652 1.526 . S
C1650 H1634 0.959 . S
C1650 H1635 0.959 . S
C1650 H1636 0.961 . S
C1650 C1649 1.502 . S
C1651 H1637 0.960 . S
C1651 H1638 0.961 . S
C1651 H1639 0.959 . S
C1651 C1649 1.561 . S
C1652 C1649 1.526 . S
C1652 C1653 1.396 . S
C1652 C1657 1.390 . S
C1653 C1647 1.465 . S
C1653 C1652 1.396 . S
C1653 C1654 1.399 . S
C1654 H1640 0.929 . S
C1654 C1653 1.399 . S
C1654 C1655 1.385 . S
C1655 H1641 0.931 . S
C1655 C1654 1.385 . S
C1655 C1656 1.389 . S
C1656 C1655 1.389 . S
C1656 C1657 1.387 . S
C1657 H1642 0.930 . S
C1657 C1652 1.390 . S
C1657 C1656 1.387 . S
H1658 C1670 0.930 . S
H1659 C1672 0.930 . S
H1660 C1673 0.930 . S
H1661 C1677 0.959 . S
H1662 C1677 0.959 . S
H1663 C1677 0.961 . S
H1664 C1678 0.960 . S
H1665 C1678 0.961 . S
H1666 C1678 0.959 . S
H1667 C1681 0.929 . S
H1668 C1682 0.931 . S
H1669 C1684 0.930 . S
C1670 H1658 0.930 . S
C1670 C1671 1.399 . S
C1670 C1675 1.399 . S
C1671 C1670 1.399 . S
C1671 C1672 1.376 . S
C1672 H1659 0.930 . S
C1672 C1671 1.376 . S
C1672 C1673 1.388 . S
C1673 H1660 0.930 . S
C1673 C1672 1.388 . S
C1673 C1674 1.390 . S
C1674 C1673 1.390 . S
C1674 C1675 1.394 . S
C1674 C1680 1.465 . S
C1675 C1670 1.399 . S
C1675 C1674 1.394 . S
C1675 C1676 1.516 . S
C1676 C1675 1.516 . S
C1676 C1677 1.502 . S
C1676 C1678 1.561 . S
C1676 C1679 1.526 . S
C1677 H1661 0.959 . S
C1677 H1662 0.959 . S
C1677 H1663 0.961 . S
C1677 C1676 1.502 . S
C1678 H1664 0.960 . S
C1678 H1665 0.961 . S
C1678 H1666 0.959 . S
C1678 C1676 1.561 . S
C1679 C1676 1.526 . S
C1679 C1680 1.396 . S
C1679 C1684 1.390 . S
C1680 C1674 1.465 . S
C1680 C1679 1.396 . S
C1680 C1681 1.399 . S
C1681 H1667 0.929 . S
C1681 C1680 1.399 . S
C1681 C1682 1.385 . S
C1682 H1668 0.931 . S
C1682 C1681 1.385 . S
C1682 C1683 1.389 . S
C1683 C1682 1.389 . S
C1683 C1684 1.387 . S
C1684 H1669 0.930 . S
C1684 C1679 1.390 . S
C1684 C1683 1.387 . S
H1685 C1697 0.930 . S
H1686 C1699 0.930 . S
H1687 C1700 0.930 . S
H1688 C1704 0.959 . S
H1689 C1704 0.959 . S
H1690 C1704 0.961 . S
H1691 C1705 0.960 . S
H1692 C1705 0.961 . S
H1693 C1705 0.959 . S
H1694 C1708 0.929 . S
H1695 C1709 0.931 . S
H1696 C1711 0.930 . S
C1697 H1685 0.930 . S
C1697 C1698 1.399 . S
C1697 C1702 1.399 . S
C1698 C1697 1.399 . S
C1698 C1699 1.376 . S
C1699 H1686 0.930 . S
C1699 C1698 1.376 . S
C1699 C1700 1.388 . S
C1700 H1687 0.930 . S
C1700 C1699 1.388 . S
C1700 C1701 1.390 . S
C1701 C1700 1.390 . S
C1701 C1702 1.394 . S
C1701 C1707 1.465 1_554 S
C1702 C1697 1.399 . S
C1702 C1701 1.394 . S
C1702 C1703 1.516 . S
C1703 C1702 1.516 . S
C1703 C1704 1.502 . S
C1703 C1705 1.561 . S
C1703 C1706 1.526 1_554 S
C1704 H1688 0.959 . S
C1704 H1689 0.959 . S
C1704 H1690 0.961 . S
C1704 C1703 1.502 . S
C1705 H1691 0.960 . S
C1705 H1692 0.961 . S
C1705 H1693 0.959 . S
C1705 C1703 1.561 . S
C1706 C1703 1.526 1_556 S
C1706 C1707 1.396 . S
C1706 C1711 1.390 . S
C1707 C1701 1.465 1_556 S
C1707 C1706 1.396 . S
C1707 C1708 1.399 . S
C1708 H1694 0.929 . S
C1708 C1707 1.399 . S
C1708 C1709 1.385 . S
C1709 H1695 0.931 . S
C1709 C1708 1.385 . S
C1709 C1710 1.389 . S
C1710 C1709 1.389 . S
C1710 C1711 1.387 . S
C1711 H1696 0.930 . S
C1711 C1706 1.390 . S
C1711 C1710 1.387 . S
C861 C356 2.327 . S
C873 C38 2.326 . S
C888 C393 2.189 . S
C900 C75 2.200 . S
C915 C144 2.326 . S
C927 C250 2.324 . S
C942 C181 2.205 . S
C954 C287 2.226 . S
C969 C462 2.285 . S
C981 C780 2.300 . S
C996 C817 2.209 . S
C1008 C499 2.227 . S
C1023 C568 2.290 . S
C1035 C674 2.302 . S
C1050 C605 2.211 . S
C1062 C711 2.191 . S
C1077 C39 2.682 . S
C1089 C569 2.708 . S
C1104 C82 1.960 . S
C1116 C612 1.998 . S
C1131 C145 2.688 . S
C1143 C463 2.695 . S
C1158 C188 1.967 . S
C1170 C506 1.980 . S
C1185 C251 2.693 . S
C1197 C781 2.689 . S
C1212 C824 1.969 . S
C1224 C294 1.976 . S
C1239 C357 2.684 . S
C1251 C675 2.701 . S
C1266 C718 1.987 . S
C1278 C400 1.963 . S
C1293 C728 1.075 . S
C1305 C29 1.020 . S
C1320 C92 1.021 . S
C1332 C771 1.080 . S
C1347 C834 1.071 . S
C1359 C135 1.019 . S
C1374 C665 1.060 . S
C1386 C198 1.064 . S
C1401 C622 1.076 . S
C1413 C241 1.021 . S
C1428 C304 1.016 . S
C1440 C453 1.054 . S
C1455 C347 1.048 . S
C1467 C516 1.075 . S
C1482 C410 1.081 . S
C1494 C559 1.027 . S
C1509 C727 1.706 . S
C1521 C22 1.716 . S
C1536 C91 1.708 . S
C1548 C764 1.715 . S
C1563 C128 1.687 . S
C1575 C833 1.722 . S
C1590 C658 1.686 . S
C1602 C197 1.721 . S
C1617 C621 1.702 . S
C1629 C234 1.690 . S
C1644 C446 1.686 . S
C1656 C303 1.721 . S
C1671 C340 1.715 . S
C1683 C515 1.689 . S
C1698 C552 1.708 . S
C1710 C409 1.689 . S
