# Generated by pormake.
# Topology ums, (4)-cn, num edge types: 1
# Building blocks:
#     Node 0, Type 0, BuildingBlock: AZAVOO_clean_sbu_0, # of connection points: 4
#     Node 1, Type 0, BuildingBlock: AZAVOO_clean_sbu_0, # of connection points: 4
#     Node 2, Type 0, BuildingBlock: AZAVOO_clean_sbu_0, # of connection points: 4
#     Node 3, Type 0, BuildingBlock: AZAVOO_clean_sbu_0, # of connection points: 4
#     Node 4, Type 0, BuildingBlock: AZAVOO_clean_sbu_0, # of connection points: 4
#     Node 5, Type 0, BuildingBlock: AZAVOO_clean_sbu_0, # of connection points: 4
#     Node 6, Type 0, BuildingBlock: AZAVOO_clean_sbu_0, # of connection points: 4
#     Node 7, Type 0, BuildingBlock: AZAVOO_clean_sbu_0, # of connection points: 4
#     Node 8, Type 0, BuildingBlock: AZAVOO_clean_sbu_0, # of connection points: 4
#     Node 9, Type 0, BuildingBlock: AZAVOO_clean_sbu_0, # of connection points: 4
#     Node 10, Type 0, BuildingBlock: AZAVOO_clean_sbu_0, # of connection points: 4
#     Node 11, Type 0, BuildingBlock: AZAVOO_clean_sbu_0, # of connection points: 4
#     Node 12, Type 0, BuildingBlock: AZAVOO_clean_sbu_0, # of connection points: 4
#     Node 13, Type 0, BuildingBlock: AZAVOO_clean_sbu_0, # of connection points: 4
#     Node 14, Type 0, BuildingBlock: AZAVOO_clean_sbu_0, # of connection points: 4
#     Node 15, Type 0, BuildingBlock: AZAVOO_clean_sbu_0, # of connection points: 4
#     Node 16, Type 0, BuildingBlock: AZAVOO_clean_sbu_0, # of connection points: 4
#     Node 17, Type 0, BuildingBlock: AZAVOO_clean_sbu_0, # of connection points: 4
#     Node 18, Type 0, BuildingBlock: AZAVOO_clean_sbu_0, # of connection points: 4
#     Node 19, Type 0, BuildingBlock: AZAVOO_clean_sbu_0, # of connection points: 4
#     Node 20, Type 0, BuildingBlock: AZAVOO_clean_sbu_0, # of connection points: 4
#     Node 21, Type 0, BuildingBlock: AZAVOO_clean_sbu_0, # of connection points: 4
#     Node 22, Type 0, BuildingBlock: AZAVOO_clean_sbu_0, # of connection points: 4
#     Node 23, Type 0, BuildingBlock: AZAVOO_clean_sbu_0, # of connection points: 4
#     Node 24, Type 0, BuildingBlock: AZAVOO_clean_sbu_0, # of connection points: 4
#     Node 25, Type 0, BuildingBlock: AZAVOO_clean_sbu_0, # of connection points: 4
#     Node 26, Type 0, BuildingBlock: AZAVOO_clean_sbu_0, # of connection points: 4
#     Node 27, Type 0, BuildingBlock: AZAVOO_clean_sbu_0, # of connection points: 4
#     Node 28, Type 0, BuildingBlock: AZAVOO_clean_sbu_0, # of connection points: 4
#     Node 29, Type 0, BuildingBlock: AZAVOO_clean_sbu_0, # of connection points: 4
#     Node 30, Type 0, BuildingBlock: AZAVOO_clean_sbu_0, # of connection points: 4
#     Node 31, Type 0, BuildingBlock: AZAVOO_clean_sbu_0, # of connection points: 4
#     Node 32, Type 0, BuildingBlock: AZAVOO_clean_sbu_0, # of connection points: 4
#     Node 33, Type 0, BuildingBlock: AZAVOO_clean_sbu_0, # of connection points: 4
#     Node 34, Type 0, BuildingBlock: AZAVOO_clean_sbu_0, # of connection points: 4
#     Node 35, Type 0, BuildingBlock: AZAVOO_clean_sbu_0, # of connection points: 4
#     Edge 36, Type (0, 0), BuildingBlock: ZUJKAS_clean_linker_0, # of connection points: 2
#     Edge 37, Type (0, 0), BuildingBlock: ZUJKAS_clean_linker_0, # of connection points: 2
#     Edge 38, Type (0, 0), BuildingBlock: ZUJKAS_clean_linker_0, # of connection points: 2
#     Edge 39, Type (0, 0), BuildingBlock: ZUJKAS_clean_linker_0, # of connection points: 2
#     Edge 40, Type (0, 0), BuildingBlock: ZUJKAS_clean_linker_0, # of connection points: 2
#     Edge 41, Type (0, 0), BuildingBlock: ZUJKAS_clean_linker_0, # of connection points: 2
#     Edge 42, Type (0, 0), BuildingBlock: ZUJKAS_clean_linker_0, # of connection points: 2
#     Edge 43, Type (0, 0), BuildingBlock: ZUJKAS_clean_linker_0, # of connection points: 2
#     Edge 44, Type (0, 0), BuildingBlock: ZUJKAS_clean_linker_0, # of connection points: 2
#     Edge 45, Type (0, 0), BuildingBlock: ZUJKAS_clean_linker_0, # of connection points: 2
#     Edge 46, Type (0, 0), BuildingBlock: ZUJKAS_clean_linker_0, # of connection points: 2
#     Edge 47, Type (0, 0), BuildingBlock: ZUJKAS_clean_linker_0, # of connection points: 2
#     Edge 48, Type (0, 0), BuildingBlock: ZUJKAS_clean_linker_0, # of connection points: 2
#     Edge 49, Type (0, 0), BuildingBlock: ZUJKAS_clean_linker_0, # of connection points: 2
#     Edge 50, Type (0, 0), BuildingBlock: ZUJKAS_clean_linker_0, # of connection points: 2
#     Edge 51, Type (0, 0), BuildingBlock: ZUJKAS_clean_linker_0, # of connection points: 2
#     Edge 52, Type (0, 0), BuildingBlock: ZUJKAS_clean_linker_0, # of connection points: 2
#     Edge 53, Type (0, 0), BuildingBlock: ZUJKAS_clean_linker_0, # of connection points: 2
#     Edge 54, Type (0, 0), BuildingBlock: ZUJKAS_clean_linker_0, # of connection points: 2
#     Edge 55, Type (0, 0), BuildingBlock: ZUJKAS_clean_linker_0, # of connection points: 2
#     Edge 56, Type (0, 0), BuildingBlock: ZUJKAS_clean_linker_0, # of connection points: 2
#     Edge 57, Type (0, 0), BuildingBlock: ZUJKAS_clean_linker_0, # of connection points: 2
#     Edge 58, Type (0, 0), BuildingBlock: ZUJKAS_clean_linker_0, # of connection points: 2
#     Edge 59, Type (0, 0), BuildingBlock: ZUJKAS_clean_linker_0, # of connection points: 2
#     Edge 60, Type (0, 0), BuildingBlock: ZUJKAS_clean_linker_0, # of connection points: 2
#     Edge 61, Type (0, 0), BuildingBlock: ZUJKAS_clean_linker_0, # of connection points: 2
#     Edge 62, Type (0, 0), BuildingBlock: ZUJKAS_clean_linker_0, # of connection points: 2
#     Edge 63, Type (0, 0), BuildingBlock: ZUJKAS_clean_linker_0, # of connection points: 2
#     Edge 64, Type (0, 0), BuildingBlock: ZUJKAS_clean_linker_0, # of connection points: 2
#     Edge 65, Type (0, 0), BuildingBlock: ZUJKAS_clean_linker_0, # of connection points: 2
#     Edge 66, Type (0, 0), BuildingBlock: ZUJKAS_clean_linker_0, # of connection points: 2
#     Edge 67, Type (0, 0), BuildingBlock: ZUJKAS_clean_linker_0, # of connection points: 2
#     Edge 68, Type (0, 0), BuildingBlock: ZUJKAS_clean_linker_0, # of connection points: 2
#     Edge 69, Type (0, 0), BuildingBlock: ZUJKAS_clean_linker_0, # of connection points: 2
#     Edge 70, Type (0, 0), BuildingBlock: ZUJKAS_clean_linker_0, # of connection points: 2
#     Edge 71, Type (0, 0), BuildingBlock: ZUJKAS_clean_linker_0, # of connection points: 2
#     Edge 72, Type (0, 0), BuildingBlock: ZUJKAS_clean_linker_0, # of connection points: 2
#     Edge 73, Type (0, 0), BuildingBlock: ZUJKAS_clean_linker_0, # of connection points: 2
#     Edge 74, Type (0, 0), BuildingBlock: ZUJKAS_clean_linker_0, # of connection points: 2
#     Edge 75, Type (0, 0), BuildingBlock: ZUJKAS_clean_linker_0, # of connection points: 2
#     Edge 76, Type (0, 0), BuildingBlock: ZUJKAS_clean_linker_0, # of connection points: 2
#     Edge 77, Type (0, 0), BuildingBlock: ZUJKAS_clean_linker_0, # of connection points: 2
#     Edge 78, Type (0, 0), BuildingBlock: ZUJKAS_clean_linker_0, # of connection points: 2
#     Edge 79, Type (0, 0), BuildingBlock: ZUJKAS_clean_linker_0, # of connection points: 2
#     Edge 80, Type (0, 0), BuildingBlock: ZUJKAS_clean_linker_0, # of connection points: 2
#     Edge 81, Type (0, 0), BuildingBlock: ZUJKAS_clean_linker_0, # of connection points: 2
#     Edge 82, Type (0, 0), BuildingBlock: ZUJKAS_clean_linker_0, # of connection points: 2
#     Edge 83, Type (0, 0), BuildingBlock: ZUJKAS_clean_linker_0, # of connection points: 2
#     Edge 84, Type (0, 0), BuildingBlock: ZUJKAS_clean_linker_0, # of connection points: 2
#     Edge 85, Type (0, 0), BuildingBlock: ZUJKAS_clean_linker_0, # of connection points: 2
#     Edge 86, Type (0, 0), BuildingBlock: ZUJKAS_clean_linker_0, # of connection points: 2
#     Edge 87, Type (0, 0), BuildingBlock: ZUJKAS_clean_linker_0, # of connection points: 2
#     Edge 88, Type (0, 0), BuildingBlock: ZUJKAS_clean_linker_0, # of connection points: 2
#     Edge 89, Type (0, 0), BuildingBlock: ZUJKAS_clean_linker_0, # of connection points: 2
#     Edge 90, Type (0, 0), BuildingBlock: ZUJKAS_clean_linker_0, # of connection points: 2
#     Edge 91, Type (0, 0), BuildingBlock: ZUJKAS_clean_linker_0, # of connection points: 2
#     Edge 92, Type (0, 0), BuildingBlock: ZUJKAS_clean_linker_0, # of connection points: 2
#     Edge 93, Type (0, 0), BuildingBlock: ZUJKAS_clean_linker_0, # of connection points: 2
#     Edge 94, Type (0, 0), BuildingBlock: ZUJKAS_clean_linker_0, # of connection points: 2
#     Edge 95, Type (0, 0), BuildingBlock: ZUJKAS_clean_linker_0, # of connection points: 2
#     Edge 96, Type (0, 0), BuildingBlock: ZUJKAS_clean_linker_0, # of connection points: 2
#     Edge 97, Type (0, 0), BuildingBlock: ZUJKAS_clean_linker_0, # of connection points: 2
#     Edge 98, Type (0, 0), BuildingBlock: ZUJKAS_clean_linker_0, # of connection points: 2
#     Edge 99, Type (0, 0), BuildingBlock: ZUJKAS_clean_linker_0, # of connection points: 2
#     Edge 100, Type (0, 0), BuildingBlock: ZUJKAS_clean_linker_0, # of connection points: 2
#     Edge 101, Type (0, 0), BuildingBlock: ZUJKAS_clean_linker_0, # of connection points: 2
#     Edge 102, Type (0, 0), BuildingBlock: ZUJKAS_clean_linker_0, # of connection points: 2
#     Edge 103, Type (0, 0), BuildingBlock: ZUJKAS_clean_linker_0, # of connection points: 2
#     Edge 104, Type (0, 0), BuildingBlock: ZUJKAS_clean_linker_0, # of connection points: 2
#     Edge 105, Type (0, 0), BuildingBlock: ZUJKAS_clean_linker_0, # of connection points: 2
#     Edge 106, Type (0, 0), BuildingBlock: ZUJKAS_clean_linker_0, # of connection points: 2
#     Edge 107, Type (0, 0), BuildingBlock: ZUJKAS_clean_linker_0, # of connection points: 2
# Relax obj value: 0.198
# Max RMSD: 0.160
# Mean RMSD: 0.152
data_MOF--net-ums--node1-AZAVOO_clean_sbu_0--edge1-ZUJKAS_clean_linker_0
_symmetry_space_group_name_H-M    P1
_symmetry_Int_Tables_number       1
_symmetry_cell_setting            triclinic
loop_
_symmetry_equiv_pos_as_xyz
'x, y, z'
_cell_length_a     131.07005
_cell_length_b     130.0707
_cell_length_c     29.99661
_cell_angle_alpha  89.112363
_cell_angle_beta   90.005242
_cell_angle_gamma 120.2981
loop_
_atom_site_label
_atom_site_type_symbol
_atom_site_fract_x
_atom_site_fract_y
_atom_site_fract_z
_atom_type_partial_charge
Mg0 Mg 0.17063 0.25161 0.18325 0.0
O1 O 0.17758 0.2713 0.16412 0.0
O2 O 0.16237 0.27234 0.13535 0.0
Mg3 Mg 0.146 0.25378 0.13553 0.0
C4 C 0.17321 0.27725 0.14666 0.0
C5 C 0.19707 0.26148 0.20106 0.0
O6 O 0.19729 0.26514 0.15981 0.0
O7 O 0.16104 0.25322 0.24427 0.0
O8 O 0.14586 0.25355 0.21179 0.0
O9 O 0.17494 0.24812 0.1149 0.0
O10 O 0.15795 0.24662 0.13421 0.0
C11 C 0.15145 0.2535 0.24661 0.0
C12 C 0.16473 0.24649 0.10343 0.0
O13 O 0.18728 0.25633 0.22218 0.0
Mg14 Mg 0.73813 0.91333 0.20951 0.0
O15 O 0.71864 0.90052 0.19479 0.0
O16 O 0.70822 0.89692 0.25772 0.0
Mg17 Mg 0.72125 0.9071 0.31329 0.0
C18 C 0.70882 0.8955 0.21599 0.0
C19 C 0.75213 0.92261 0.11976 0.0
O20 O 0.76088 0.9282 0.14777 0.0
O21 O 0.73446 0.92852 0.2146 0.0
O22 O 0.72504 0.92485 0.28026 0.0
O23 O 0.74112 0.89835 0.22633 0.0
O24 O 0.73582 0.90733 0.27538 0.0
C25 C 0.72959 0.93133 0.24521 0.0
C26 C 0.7383 0.89914 0.26699 0.0
O27 O 0.74169 0.9163 0.13507 0.0
Mg28 Mg 0.08766 0.84153 0.1502 0.0
O29 O 0.09794 0.83151 0.15381 0.0
O30 O 0.11701 0.84499 0.14194 0.0
Mg31 Mg 0.11894 0.86329 0.13156 0.0
C32 C 0.10875 0.83429 0.14943 0.0
C33 C 0.06648 0.81559 0.16066 0.0
O34 O 0.07159 0.81453 0.12475 0.0
O35 O 0.09424 0.84942 0.21915 0.0
O36 O 0.11301 0.86304 0.20397 0.0
O37 O 0.08566 0.83818 0.0774 0.0
O38 O 0.10068 0.85408 0.1068 0.0
C39 C 0.10432 0.85784 0.2313 0.0
C40 C 0.09594 0.84762 0.07222 0.0
O41 O 0.07125 0.82554 0.18028 0.0
Mg42 Mg 0.23811 0.16999 0.32532 0.0
O43 O 0.25699 0.17461 0.34395 0.0
O44 O 0.25575 0.15833 0.37558 0.0
Mg45 Mg 0.23659 0.14322 0.37324 0.0
C46 C 0.26175 0.16924 0.36317 0.0
C47 C 0.25127 0.19713 0.3066 0.0
O48 O 0.255 0.19672 0.34689 0.0
O49 O 0.23871 0.16002 0.2644 0.0
O50 O 0.23741 0.1438 0.2966 0.0
O51 O 0.23604 0.17497 0.39374 0.0
O52 O 0.23131 0.15673 0.3746 0.0
C53 C 0.2382 0.14998 0.26186 0.0
C54 C 0.23299 0.16418 0.40555 0.0
O55 O 0.24498 0.18741 0.28636 0.0
Mg56 Mg 0.82116 0.06788 0.30846 0.0
O57 O 0.81484 0.08097 0.324 0.0
O58 O 0.80811 0.08482 0.26127 0.0
Mg59 Mg 0.80948 0.07362 0.20624 0.0
C60 C 0.81038 0.08633 0.30283 0.0
C61 C 0.83314 0.06771 0.39402 0.0
O62 O 0.84088 0.06957 0.36253 0.0
O63 O 0.80217 0.05276 0.30715 0.0
O64 O 0.79565 0.05655 0.2435 0.0
O65 O 0.83881 0.08301 0.28884 0.0
O66 O 0.82408 0.07345 0.24186 0.0
C67 C 0.79404 0.05017 0.27857 0.0
C68 C 0.83467 0.08201 0.24897 0.0
O69 O 0.82294 0.06565 0.3828 0.0
Mg70 Mg 0.93018 0.75761 0.31125 0.0
O71 O 0.91625 0.73802 0.32781 0.0
O72 O 0.90092 0.73836 0.35907 0.0
Mg73 Mg 0.90454 0.75744 0.36039 0.0
C74 C 0.90598 0.73271 0.34611 0.0
C75 C 0.94724 0.74836 0.28955 0.0
O76 O 0.9452 0.74551 0.33213 0.0
O77 O 0.91948 0.75748 0.25081 0.0
O78 O 0.90441 0.7579 0.28378 0.0
O79 O 0.93724 0.75919 0.38006 0.0
O80 O 0.92339 0.76334 0.3613 0.0
C81 C 0.9099 0.75778 0.24874 0.0
C82 C 0.9294 0.76186 0.39205 0.0
O83 O 0.94134 0.75237 0.26979 0.0
Mg84 Mg 0.83311 0.74196 0.76547 0.0
O85 O 0.84568 0.7495 0.82476 0.0
O86 O 0.86161 0.76651 0.8026 0.0
Mg87 Mg 0.85894 0.77006 0.72982 0.0
C88 C 0.85583 0.75851 0.83239 0.0
C89 C 0.81102 0.71887 0.79548 0.0
O90 O 0.81193 0.71696 0.75317 0.0
O91 O 0.82729 0.75556 0.77346 0.0
O92 O 0.84315 0.77231 0.74885 0.0
O93 O 0.84266 0.73268 0.74469 0.0
O94 O 0.84726 0.75077 0.72159 0.0
C95 C 0.83255 0.76667 0.76394 0.0
C96 C 0.84974 0.74237 0.72273 0.0
O97 O 0.81854 0.72879 0.81179 0.0
Mg98 Mg 0.25656 0.08915 0.78542 0.0
O99 O 0.24928 0.09548 0.84149 0.0
O100 O 0.23287 0.09494 0.81772 0.0
Mg101 Mg 0.22929 0.08763 0.74715 0.0
C102 C 0.24063 0.09722 0.84761 0.0
C103 C 0.27934 0.0905 0.81899 0.0
O104 O 0.28143 0.09254 0.77597 0.0
O105 O 0.24239 0.06979 0.79909 0.0
O106 O 0.22631 0.06961 0.77307 0.0
O107 O 0.26628 0.10779 0.75823 0.0
O108 O 0.24825 0.09416 0.73836 0.0
C109 C 0.23134 0.06432 0.7906 0.0
C110 C 0.25678 0.10503 0.73608 0.0
O111 O 0.26938 0.08827 0.83429 0.0
Mg112 Mg 0.90494 0.1625 0.77498 0.0
O113 O 0.90002 0.15194 0.84078 0.0
O114 O 0.90227 0.13615 0.83254 0.0
Mg115 Mg 0.90871 0.13664 0.76129 0.0
C116 C 0.8995 0.14248 0.85615 0.0
C117 C 0.90009 0.18271 0.78809 0.0
O118 O 0.89694 0.17951 0.74671 0.0
O119 O 0.92447 0.16984 0.78798 0.0
O120 O 0.92622 0.1539 0.77512 0.0
O121 O 0.88647 0.15156 0.7512 0.0
O122 O 0.90045 0.14701 0.74088 0.0
C123 C 0.93075 0.16491 0.78445 0.0
C124 C 0.88955 0.14415 0.73726 0.0
O125 O 0.90467 0.17768 0.81019 0.0
Mg126 Mg 0.74783 0.8339 0.75173 0.0
O127 O 0.75176 0.84292 0.68302 0.0
O128 O 0.7699 0.85887 0.68248 0.0
Mg129 Mg 0.77739 0.86026 0.75255 0.0
C130 C 0.76021 0.85191 0.66302 0.0
C131 C 0.72245 0.81208 0.74301 0.0
O132 O 0.72182 0.81531 0.78374 0.0
O133 O 0.76005 0.82668 0.73804 0.0
O134 O 0.7779 0.843 0.74266 0.0
O135 O 0.74051 0.8451 0.77362 0.0
O136 O 0.75928 0.85022 0.7807 0.0
C137 C 0.77131 0.83178 0.73752 0.0
C138 C 0.75115 0.85296 0.78493 0.0
O139 O 0.73217 0.8177 0.7217 0.0
Mg140 Mg 0.17903 0.92009 0.67083 0.0
O141 O 0.16133 0.91303 0.63693 0.0
O142 O 0.14658 0.90675 0.6862 0.0
Mg143 Mg 0.15569 0.91128 0.75485 0.0
C144 C 0.15037 0.9083 0.64605 0.0
C145 C 0.19204 0.9263 0.57141 0.0
O146 O 0.1953 0.93325 0.53573 0.0
O147 O 0.17951 0.93717 0.68866 0.0
O148 O 0.16543 0.93155 0.74085 0.0
O149 O 0.17517 0.90099 0.67661 0.0
O150 O 0.17089 0.91023 0.72802 0.0
C151 C 0.17374 0.93961 0.71665 0.0
C152 C 0.17049 0.90071 0.71495 0.0
O153 O 0.18753 0.92881 0.6039 0.0
Mg154 Mg 0.08228 0.25072 0.7365 0.0
O155 O 0.08697 0.24542 0.67048 0.0
O156 O 0.08491 0.22739 0.6797 0.0
Mg157 Mg 0.07863 0.22108 0.75127 0.0
C158 C 0.08764 0.23663 0.65567 0.0
C159 C 0.08654 0.27597 0.71874 0.0
O160 O 0.09131 0.27708 0.7582 0.0
O161 O 0.06268 0.23816 0.72654 0.0
O162 O 0.06093 0.22041 0.73971 0.0
O163 O 0.101 0.25875 0.75628 0.0
O164 O 0.08743 0.23995 0.77041 0.0
C165 C 0.05637 0.22687 0.73101 0.0
C166 C 0.09838 0.24827 0.77084 0.0
O167 O 0.08156 0.26583 0.7006 0.0
Mg168 Mg 0.83996 0.58408 0.50986 0.0
O169 O 0.84577 0.603 0.48455 0.0
O170 O 0.83027 0.60242 0.45093 0.0
Mg171 Mg 0.81459 0.58337 0.45628 0.0
C172 C 0.84106 0.60809 0.46307 0.0
C173 C 0.85665 0.58377 0.57919 0.0
O174 O 0.84637 0.57455 0.59061 0.0
O175 O 0.82993 0.58619 0.56793 0.0
O176 O 0.81419 0.58463 0.5326 0.0
O177 O 0.84493 0.58027 0.44374 0.0
O178 O 0.82709 0.57692 0.46122 0.0
C179 C 0.81995 0.58572 0.56831 0.0
C180 C 0.83433 0.57726 0.43142 0.0
O181 O 0.85691 0.59081 0.54885 0.0
Mg182 Mg 0.40617 0.24837 0.54679 0.0
O183 O 0.3863 0.23762 0.5347 0.0
O184 O 0.37666 0.2358 0.59825 0.0
Mg185 Mg 0.39067 0.24563 0.65143 0.0
C186 C 0.37671 0.23382 0.55673 0.0
C187 C 0.41935 0.25543 0.45459 0.0
O188 O 0.42853 0.26105 0.48072 0.0
O189 O 0.40536 0.26532 0.5492 0.0
O190 O 0.39631 0.26349 0.61463 0.0
O191 O 0.4064 0.23191 0.56604 0.0
O192 O 0.40377 0.24319 0.6137 0.0
C193 C 0.40132 0.26932 0.57876 0.0
C194 C 0.40439 0.23378 0.60654 0.0
O195 O 0.40906 0.24993 0.47186 0.0
Mg196 Mg 0.75746 0.1742 0.47396 0.0
O197 O 0.76916 0.16571 0.47685 0.0
O198 O 0.78755 0.17998 0.45887 0.0
Mg199 Mg 0.78778 0.19751 0.44817 0.0
C200 C 0.78004 0.16918 0.46934 0.0
C201 C 0.735 0.15923 0.53072 0.0
O202 O 0.73734 0.17012 0.53846 0.0
O203 O 0.76453 0.18302 0.54089 0.0
O204 O 0.78273 0.19744 0.52196 0.0
O205 O 0.75476 0.16998 0.40207 0.0
O206 O 0.76921 0.18692 0.42804 0.0
C207 C 0.77448 0.19199 0.55095 0.0
C208 C 0.76446 0.17996 0.39474 0.0
O209 O 0.74218 0.15778 0.50689 0.0
Mg210 Mg 0.91121 0.50355 0.6413 0.0
O211 O 0.92995 0.50741 0.65763 0.0
O212 O 0.92828 0.49039 0.68353 0.0
Mg213 Mg 0.90886 0.47585 0.68289 0.0
C214 C 0.93451 0.50145 0.67329 0.0
C215 C 0.91152 0.52196 0.5771 0.0
O216 O 0.90205 0.512 0.56563 0.0
O217 O 0.91112 0.49403 0.57786 0.0
O218 O 0.90904 0.47711 0.60651 0.0
O219 O 0.90962 0.50796 0.71114 0.0
O220 O 0.90424 0.4898 0.68848 0.0
C221 C 0.90997 0.48376 0.5731 0.0
C222 C 0.9062 0.49695 0.72086 0.0
O223 O 0.91839 0.5214 0.60562 0.0
Mg224 Mg 0.49166 0.41165 0.62355 0.0
O225 O 0.48443 0.42415 0.63479 0.0
O226 O 0.47747 0.4269 0.57062 0.0
Mg227 Mg 0.48065 0.41629 0.51774 0.0
C228 C 0.47947 0.42878 0.6122 0.0
C229 C 0.4998 0.40774 0.71634 0.0
O230 O 0.50702 0.40627 0.69041 0.0
O231 O 0.47309 0.39596 0.61922 0.0
O232 O 0.46699 0.39864 0.55264 0.0
O233 O 0.50942 0.42692 0.60615 0.0
O234 O 0.49534 0.41707 0.55698 0.0
C235 C 0.46534 0.39257 0.58863 0.0
C236 C 0.50585 0.42567 0.56527 0.0
O237 O 0.49202 0.40952 0.6986 0.0
Mg238 Mg 0.59737 0.09551 0.65686 0.0
O239 O 0.58476 0.07584 0.67627 0.0
O240 O 0.56885 0.07482 0.70825 0.0
Mg241 Mg 0.5708 0.09327 0.70615 0.0
C242 C 0.57469 0.06992 0.69576 0.0
C243 C 0.61521 0.09778 0.58598 0.0
O244 O 0.61295 0.10617 0.57371 0.0
O245 O 0.58601 0.09377 0.59636 0.0
O246 O 0.57033 0.09293 0.62954 0.0
O247 O 0.60482 0.09826 0.7252 0.0
O248 O 0.58998 0.10088 0.70594 0.0
C249 C 0.57593 0.09306 0.59444 0.0
C250 C 0.59647 0.10025 0.73682 0.0
O251 O 0.60921 0.09076 0.61781 0.0
Mg252 Mg 0.49809 0.07409 0.11082 0.0
O253 O 0.5103 0.08194 0.17094 0.0
O254 O 0.52562 0.09957 0.15022 0.0
Mg255 Mg 0.52292 0.1032 0.07756 0.0
C256 C 0.52013 0.09129 0.17936 0.0
C257 C 0.47383 0.05281 0.13938 0.0
O258 O 0.47187 0.05418 0.09735 0.0
O259 O 0.49092 0.08665 0.1192 0.0
O260 O 0.50626 0.10397 0.09575 0.0
O261 O 0.50879 0.06606 0.08961 0.0
O262 O 0.51226 0.08387 0.06774 0.0
C263 C 0.49562 0.09776 0.11008 0.0
C264 C 0.51546 0.076 0.06832 0.0
O265 O 0.48383 0.05998 0.15588 0.0
Mg266 Mg 0.92176 0.41669 0.10715 0.0
O267 O 0.91566 0.42524 0.15906 0.0
O268 O 0.9001 0.42592 0.13223 0.0
Mg269 Mg 0.89579 0.41708 0.06432 0.0
C270 C 0.90771 0.42812 0.16265 0.0
C271 C 0.94368 0.41702 0.14455 0.0
O272 O 0.94607 0.41879 0.10163 0.0
O273 O 0.90644 0.39829 0.12553 0.0
O274 O 0.89108 0.39911 0.09715 0.0
O275 O 0.93284 0.43462 0.07551 0.0
O276 O 0.91437 0.42187 0.05691 0.0
C277 C 0.8954 0.39351 0.11765 0.0
C278 C 0.92354 0.43233 0.05283 0.0
O279 O 0.93382 0.41539 0.15853 0.0
Mg280 Mg 0.57858 0.50037 0.08926 0.0
O281 O 0.57421 0.49005 0.15534 0.0
O282 O 0.57595 0.47397 0.14716 0.0
Mg283 Mg 0.58129 0.47402 0.07434 0.0
C284 C 0.57364 0.4806 0.17101 0.0
C285 C 0.57949 0.52445 0.10548 0.0
O286 O 0.57917 0.52439 0.0617 0.0
O287 O 0.59814 0.5072 0.09814 0.0
O288 O 0.59931 0.49093 0.08554 0.0
O289 O 0.55971 0.48959 0.07063 0.0
O290 O 0.57322 0.48474 0.05466 0.0
C291 C 0.60416 0.50202 0.09398 0.0
C292 C 0.5623 0.48201 0.05439 0.0
O293 O 0.57973 0.51599 0.12622 0.0
Mg294 Mg 0.40836 0.16198 0.08621 0.0
O295 O 0.41218 0.17139 0.01809 0.0
O296 O 0.43022 0.18748 0.01873 0.0
Mg297 Mg 0.43808 0.18814 0.08749 0.0
C298 C 0.42054 0.18065 -0.00104 0.0
C299 C 0.38286 0.14056 0.07891 0.0
O300 O 0.38277 0.14373 0.12022 0.0
O301 O 0.42033 0.15455 0.07038 0.0
O302 O 0.43824 0.17078 0.07506 0.0
O303 O 0.40139 0.17332 0.11055 0.0
O304 O 0.42008 0.17808 0.11625 0.0
C305 C 0.43158 0.15959 0.06933 0.0
C306 C 0.41211 0.18098 0.12174 0.0
O307 O 0.39237 0.14607 0.05623 0.0
Mg308 Mg 0.84742 0.25313 0.00558 0.0
O309 O 0.83034 0.24597 0.96672 0.0
O310 O 0.8147 0.23779 0.01242 0.0
Mg311 Mg 0.82232 0.24099 0.08341 0.0
C312 C 0.8192 0.24045 0.97324 0.0
C313 C 0.86254 0.26233 0.91118 0.0
O314 O 0.86649 0.27007 0.87781 0.0
O315 O 0.84614 0.26895 0.02771 0.0
O316 O 0.83099 0.26142 0.07597 0.0
O317 O 0.84479 0.23455 0.00434 0.0
O318 O 0.83843 0.24147 0.05794 0.0
C319 C 0.83942 0.27025 0.05494 0.0
C320 C 0.83893 0.23273 0.04117 0.0
O321 O 0.8572 0.26395 0.94318 0.0
Mg322 Mg 0.75579 0.5914 0.06532 0.0
O323 O 0.76099 0.58642 -0.0003 0.0
O324 O 0.75954 0.56865 0.00903 0.0
Mg325 Mg 0.75345 0.56236 0.08089 0.0
C326 C 0.76197 0.5778 0.98497 0.0
C327 C 0.7545 0.6143 0.05194 0.0
O328 O 0.75463 0.61361 0.09567 0.0
O329 O 0.73636 0.5782 0.05451 0.0
O330 O 0.7354 0.56078 0.06759 0.0
O331 O 0.77455 0.59993 0.08544 0.0
O332 O 0.76117 0.5811 0.10033 0.0
C333 C 0.73046 0.56687 0.0584 0.0
C334 C 0.77205 0.58956 0.10091 0.0
O335 O 0.75452 0.60614 0.02927 0.0
Mg336 Mg 0.50604 0.91945 0.83997 0.0
O337 O 0.51435 0.9392 0.81842 0.0
O338 O 0.4998 0.94131 0.7891 0.0
Mg339 Mg 0.4826 0.92343 0.79099 0.0
C340 C 0.5106 0.9456 0.80001 0.0
C341 C 0.52159 0.91518 0.9045 0.0
O342 O 0.51096 0.90623 0.91384 0.0
O343 O 0.49724 0.92244 0.90051 0.0
O344 O 0.48266 0.92377 0.86736 0.0
O345 O 0.50959 0.91487 0.77233 0.0
O346 O 0.49329 0.91487 0.79153 0.0
C347 C 0.48808 0.92353 0.9024 0.0
C348 C 0.49962 0.91388 0.76099 0.0
O349 O 0.52256 0.92328 0.87767 0.0
Mg350 Mg 0.07589 0.57629 0.88704 0.0
O351 O 0.05634 0.56527 0.86892 0.0
O352 O 0.04553 0.56304 0.92967 0.0
Mg353 Mg 0.05824 0.57236 0.98698 0.0
C354 C 0.04637 0.5613 0.8884 0.0
C355 C 0.08844 0.57619 0.8023 0.0
O356 O 0.09353 0.57327 0.83379 0.0
O357 O 0.07458 0.59297 0.8886 0.0
O358 O 0.0643 0.59042 0.95147 0.0
O359 O 0.07601 0.5598 0.90658 0.0
O360 O 0.0721 0.57043 0.95304 0.0
C361 C 0.06986 0.59659 0.91689 0.0
C362 C 0.07301 0.56116 0.94621 0.0
O363 O 0.08063 0.57875 0.81332 0.0
Mg364 Mg 0.41078 0.49666 0.86157 0.0
O365 O 0.42458 0.492 0.83699 0.0
O366 O 0.43906 0.50824 0.80291 0.0
Mg367 Mg 0.43508 0.52334 0.80903 0.0
C368 C 0.43434 0.49733 0.81518 0.0
C369 C 0.39392 0.47848 0.93044 0.0
O370 O 0.3943 0.48833 0.9426 0.0
O371 O 0.42245 0.50675 0.92028 0.0
O372 O 0.4367 0.52297 0.88537 0.0
O373 O 0.40236 0.49156 0.79533 0.0
O374 O 0.41622 0.50986 0.81227 0.0
C375 C 0.43197 0.51686 0.92099 0.0
C376 C 0.40979 0.50236 0.78243 0.0
O377 O 0.40102 0.47916 0.90024 0.0
Mg378 Mg 0.57223 0.83063 0.97006 0.0
O379 O 0.59101 0.83527 0.9905 0.0
O380 O 0.58965 0.81885 0.02132 0.0
Mg381 Mg 0.57055 0.80371 0.01696 0.0
C382 C 0.59568 0.82984 0.00983 0.0
C383 C 0.57264 0.84907 0.90451 0.0
O384 O 0.56302 0.83925 0.89304 0.0
O385 O 0.57331 0.82105 0.90875 0.0
O386 O 0.57188 0.80471 0.94039 0.0
O387 O 0.56966 0.83528 0.03822 0.0
O388 O 0.56514 0.81714 0.01853 0.0
C389 C 0.57286 0.81104 0.90588 0.0
C390 C 0.56662 0.82447 0.04971 0.0
O391 O 0.57939 0.84833 0.93312 0.0
Mg392 Mg 0.15614 0.74029 0.96536 0.0
O393 O 0.14739 0.75111 0.98335 0.0
O394 O 0.13926 0.75363 0.92181 0.0
Mg395 Mg 0.14303 0.74463 0.86444 0.0
C396 C 0.14153 0.75517 0.96336 0.0
C397 C 0.16852 0.74014 0.04953 0.0
O398 O 0.17642 0.74302 0.01761 0.0
O399 O 0.13824 0.72354 0.9617 0.0
O400 O 0.13093 0.72632 0.89813 0.0
O401 O 0.17278 0.75695 0.94819 0.0
O402 O 0.15866 0.74659 0.8998 0.0
C403 C 0.13014 0.71999 0.93244 0.0
C404 C 0.16871 0.75588 0.90817 0.0
O405 O 0.15811 0.7375 0.03905 0.0
Mg406 Mg 0.26318 0.42506 0.98535 0.0
O407 O 0.24921 0.40636 0.01 0.0
O408 O 0.23468 0.40773 0.04312 0.0
Mg409 Mg 0.23896 0.42705 0.03682 0.0
C410 C 0.23939 0.40166 0.03126 0.0
C411 C 0.28021 0.42404 0.91828 0.0
O412 O 0.28047 0.43393 0.90627 0.0
O413 O 0.25155 0.42358 0.92623 0.0
O414 O 0.23757 0.42568 0.96045 0.0
O415 O 0.27146 0.42813 0.05203 0.0
O416 O 0.25776 0.43259 0.03388 0.0
C417 C 0.24223 0.42438 0.92513 0.0
C418 C 0.26406 0.43138 0.06424 0.0
O419 O 0.27275 0.41738 0.94774 0.0
Mg420 Mg 0.16523 0.40352 0.43511 0.0
O421 O 0.17659 0.41097 0.49738 0.0
O422 O 0.19158 0.42922 0.48115 0.0
Mg423 Mg 0.18981 0.43333 0.40803 0.0
C424 C 0.18596 0.42048 0.50844 0.0
C425 C 0.14077 0.38163 0.46103 0.0
O426 O 0.13883 0.38295 0.41892 0.0
O427 O 0.15742 0.41552 0.44345 0.0
O428 O 0.17261 0.43332 0.4233 0.0
O429 O 0.17659 0.39619 0.41478 0.0
O430 O 0.17987 0.41408 0.39503 0.0
C431 C 0.16185 0.42666 0.4357 0.0
C432 C 0.18335 0.40641 0.39539 0.0
O433 O 0.15072 0.38888 0.47773 0.0
Mg434 Mg 0.59829 0.75545 0.43069 0.0
O435 O 0.58954 0.76022 0.48646 0.0
O436 O 0.57229 0.75762 0.46237 0.0
Mg437 Mg 0.56965 0.75035 0.39177 0.0
C438 C 0.58016 0.76072 0.49241 0.0
C439 C 0.62193 0.75898 0.46673 0.0
O440 O 0.62432 0.76095 0.42386 0.0
O441 O 0.58588 0.73562 0.44373 0.0
O442 O 0.56883 0.73324 0.41782 0.0
O443 O 0.60617 0.77407 0.40405 0.0
O444 O 0.58893 0.75904 0.38333 0.0
C445 C 0.57491 0.72904 0.43524 0.0
C446 C 0.59652 0.77025 0.38154 0.0
O447 O 0.61166 0.75615 0.48053 0.0
Mg448 Mg 0.23972 0.83157 0.43243 0.0
O449 O 0.23496 0.82194 0.49988 0.0
O450 O 0.23686 0.80585 0.4964 0.0
Mg451 Mg 0.24297 0.80523 0.42552 0.0
C452 C 0.23433 0.81269 0.51787 0.0
C453 C 0.23396 0.85126 0.44475 0.0
O454 O 0.22981 0.84721 0.40498 0.0
O455 O 0.25929 0.83886 0.44494 0.0
O456 O 0.26066 0.82256 0.43624 0.0
O457 O 0.22116 0.82046 0.41007 0.0
O458 O 0.23493 0.81555 0.40144 0.0
C459 C 0.26539 0.83372 0.44307 0.0
C460 C 0.22406 0.81278 0.39778 0.0
O461 O 0.23964 0.84715 0.46526 0.0
Mg462 Mg 0.06949 0.48548 0.42694 0.0
O463 O 0.07366 0.49539 0.35966 0.0
O464 O 0.09141 0.51185 0.36373 0.0
Mg465 Mg 0.09866 0.51242 0.43354 0.0
C466 C 0.08206 0.50496 0.34224 0.0
C467 C 0.04453 0.46358 0.41683 0.0
O468 O 0.04411 0.46655 0.45817 0.0
O469 O 0.08229 0.47903 0.41168 0.0
O470 O 0.09978 0.49563 0.41981 0.0
O471 O 0.06143 0.49586 0.45133 0.0
O472 O 0.08038 0.50156 0.45799 0.0
C473 C 0.09356 0.48448 0.41226 0.0
C474 C 0.07199 0.5039 0.46261 0.0
O475 O 0.05416 0.46938 0.39498 0.0
Mg476 Mg 0.50721 0.57609 0.4064 0.0
O477 O 0.49547 0.5722 0.34522 0.0
O478 O 0.48007 0.57425 0.36311 0.0
Mg479 Mg 0.48241 0.58014 0.43578 0.0
C480 C 0.48578 0.57172 0.33513 0.0
C481 C 0.52867 0.57379 0.37814 0.0
O482 O 0.52777 0.57077 0.42058 0.0
O483 O 0.51466 0.596 0.39792 0.0
O484 O 0.49931 0.59789 0.4186 0.0
O485 O 0.4961 0.55704 0.42733 0.0
O486 O 0.49284 0.5714 0.44799 0.0
C487 C 0.51005 0.60241 0.40565 0.0
C488 C 0.48945 0.56024 0.44772 0.0
O489 O 0.52153 0.57673 0.362 0.0
Mg490 Mg 0.41616 0.91854 0.39042 0.0
O491 O 0.42195 0.9144 0.32426 0.0
O492 O 0.41986 0.8963 0.33042 0.0
Mg493 Mg 0.4128 0.88893 0.40046 0.0
C494 C 0.42287 0.90587 0.30814 0.0
C495 C 0.42024 0.94384 0.37781 0.0
O496 O 0.42446 0.9443 0.41792 0.0
O497 O 0.3968 0.90596 0.37599 0.0
O498 O 0.3951 0.88815 0.38722 0.0
O499 O 0.43451 0.92647 0.41444 0.0
O500 O 0.42097 0.90742 0.42354 0.0
C501 C 0.39055 0.89463 0.37862 0.0
C502 C 0.43181 0.91584 0.42735 0.0
O503 O 0.41568 0.93408 0.35709 0.0
H504 H 0.2593 0.21807 0.35056 0.0
H505 H 0.25463 0.23364 0.33277 0.0
H506 H 0.23917 0.21659 0.2088 0.0
H507 H 0.24366 0.2009 0.22637 0.0
H508 H 0.25721 0.24975 0.2537 0.0
H509 H 0.21167 0.21305 0.29379 0.0
H510 H 0.22464 0.21225 0.30794 0.0
H511 H 0.21933 0.20979 0.25167 0.0
C512 C 0.25524 0.21781 0.31884 0.0
C513 C 0.25158 0.20809 0.29036 0.0
C514 C 0.25261 0.22675 0.30872 0.0
C515 C 0.24639 0.22611 0.26991 0.0
C516 C 0.24389 0.21714 0.23915 0.0
H517 H 0.21695 0.26575 0.15573 0.0
H518 H 0.2309 0.25954 0.17834 0.0
C519 C 0.24645 0.20818 0.2493 0.0
C520 C 0.24075 0.23344 0.26524 0.0
H521 H 0.21365 0.23107 0.26673 0.0
C522 C 0.2477 0.24573 0.2567 0.0
C523 C 0.22838 0.22818 0.27032 0.0
C524 C 0.22054 0.21512 0.28183 0.0
C525 C 0.24249 0.25285 0.25149 0.0
C526 C 0.23004 0.24745 0.2546 0.0
C527 C 0.22319 0.23522 0.26447 0.0
C528 C 0.22366 0.25394 0.245 0.0
C529 C 0.25033 0.26604 0.24295 0.0
C530 C 0.21511 0.25316 0.27528 0.0
C531 C 0.20696 0.2565 0.26215 0.0
C532 C 0.20724 0.26072 0.2185 0.0
C533 C 0.21647 0.26252 0.18959 0.0
C534 C 0.22455 0.25905 0.2026 0.0
H535 H 0.25936 0.26931 0.25613 0.0
H536 H 0.25114 0.26783 0.20646 0.0
H537 H 0.2466 0.27116 0.25831 0.0
H538 H 0.21427 0.24924 0.30819 0.0
H539 H 0.20002 0.25511 0.28533 0.0
H540 H 0.7726 0.04428 0.2428 0.0
H541 H 0.75478 0.02456 0.24266 0.0
H542 H 0.77265 0.01065 0.32253 0.0
H543 H 0.79011 0.03034 0.32483 0.0
H544 H 0.75245 0.00648 0.20482 0.0
H545 H 0.7415 0.9927 0.37979 0.0
H546 H 0.75161 0.00803 0.36409 0.0
H547 H 0.75687 0.99771 0.3729 0.0
C548 C 0.77257 0.03705 0.26136 0.0
C549 C 0.78275 0.03883 0.28378 0.0
C550 C 0.76239 0.02579 0.26127 0.0
C551 C 0.76225 0.01609 0.28312 0.0
C552 C 0.7723 0.01801 0.30677 0.0
H553 H 0.7449 0.95051 0.19451 0.0
H554 H 0.74904 0.97082 0.20062 0.0
C555 C 0.78238 0.02929 0.30769 0.0
C556 C 0.75246 0.00373 0.27603 0.0
H557 H 0.73832 0.97657 0.32824 0.0
C558 C 0.74908 -0.0 0.23204 0.0
C559 C 0.7476 0.99522 0.31129 0.0
C560 C 0.7495 0.99871 0.35962 0.0
C561 C 0.7421 0.98789 0.22213 0.0
C562 C 0.73886 0.97929 0.25685 0.0
C563 C 0.74108 0.98309 0.30123 0.0
C564 C 0.73487 0.96663 0.24784 0.0
C565 C 0.73863 0.9845 0.17432 0.0
C566 C 0.72559 0.95739 0.27261 0.0
C567 C 0.72343 0.94573 0.27015 0.0
C568 C 0.73045 0.94309 0.24253 0.0
C569 C 0.73925 0.95221 0.21578 0.0
C570 C 0.74155 0.96386 0.21891 0.0
H571 H 0.73677 0.99104 0.15745 0.0
H572 H 0.74609 0.98469 0.15611 0.0
H573 H 0.7307 0.97549 0.17177 0.0
H574 H 0.72033 0.95928 0.29528 0.0
H575 H 0.71654 0.93887 0.29103 0.0
H576 H 0.9543 0.75407 0.20236 0.0
H577 H 0.9742 0.76143 0.17263 0.0
H578 H 0.98501 0.75435 0.29978 0.0
H579 H 0.96511 0.74667 0.32926 0.0
H580 H 0.99203 0.78097 0.20548 0.0
H581 H 0.00318 0.74532 0.21702 0.0
H582 H 0.98815 0.74229 0.22039 0.0
H583 H 0.99743 0.74704 0.26884 0.0
C584 C 0.9608 0.7537 0.22354 0.0
C585 C 0.95815 0.74993 0.26836 0.0
C586 C 0.97219 0.75793 0.2065 0.0
C587 C 0.98112 0.75845 0.23392 0.0
C588 C 0.97824 0.75384 0.27764 0.0
H589 H 0.05342 0.81489 0.23295 0.0
H590 H 0.03285 0.80008 0.25011 0.0
C591 C 0.96684 0.74951 0.29459 0.0
C592 C 0.99368 0.76557 0.21956 0.0
H593 H 0.01972 0.76554 0.21446 0.0
C594 C 0.99802 0.77751 0.20681 0.0
C595 C 0.00153 0.76109 0.22113 0.0
C596 C 0.9973 0.74819 0.23215 0.0
C597 C 0.01001 0.78518 0.19706 0.0
C598 C 0.01797 0.78089 0.20116 0.0
C599 C 0.01362 0.76885 0.21217 0.0
C600 C 0.03083 0.78891 0.19419 0.0
C601 C 0.01406 0.79784 0.18257 0.0
C602 C 0.03665 0.78722 0.15831 0.0
C603 C 0.04844 0.79565 0.14853 0.0
C604 C 0.05459 0.80589 0.17453 0.0
C605 C 0.04891 0.80718 0.21197 0.0
C606 C 0.03715 0.79874 0.22177 0.0
H607 H 0.00662 0.7988 0.16982 0.0
H608 H 0.01788 0.80376 0.21156 0.0
H609 H 0.02098 0.80093 0.15615 0.0
H610 H 0.03193 0.77965 0.1368 0.0
H611 H 0.05258 0.79435 0.11961 0.0
H612 H 0.84113 0.79058 0.75331 0.0
H613 H 0.82986 0.80083 0.74984 0.0
H614 H 0.79765 0.76759 0.77563 0.0
H615 H 0.80885 0.75725 0.77995 0.0
H616 H 0.81236 0.79628 0.68894 0.0
H617 H 0.79489 0.78993 0.8621 0.0
H618 H 0.80685 0.78752 0.84716 0.0
H619 H 0.79184 0.77643 0.83529 0.0
C620 C 0.83167 0.78545 0.75893 0.0
C621 C 0.8259 0.77308 0.76685 0.0
C622 C 0.82524 0.79133 0.75685 0.0
C623 C 0.81294 0.78499 0.76275 0.0
C624 C 0.80717 0.77269 0.77177 0.0
H625 H 0.76062 0.80743 0.74131 0.0
H626 H 0.77027 0.79549 0.74382 0.0
C627 C 0.8136 0.76679 0.77408 0.0
C628 C 0.80613 0.79115 0.75663 0.0
H629 H 0.78753 0.7983 0.8094 0.0
C630 C 0.80694 0.79674 0.7153 0.0
C631 C 0.79901 0.79165 0.79099 0.0
C632 C 0.79814 0.78616 0.83653 0.0
C633 C 0.80084 0.80287 0.70741 0.0
C634 C 0.79386 0.8035 0.74192 0.0
C635 C 0.79287 0.79774 0.783 0.0
C636 C 0.78798 0.81059 0.73688 0.0
C637 C 0.80186 0.80856 0.66218 0.0
C638 C 0.79477 0.82301 0.73182 0.0
C639 C 0.78931 0.82986 0.73046 0.0
C640 C 0.77695 0.82441 0.73425 0.0
C641 C 0.77015 0.81191 0.73813 0.0
C642 C 0.77564 0.80508 0.73973 0.0
H643 H 0.80499 0.80474 0.63632 0.0
H644 H 0.79323 0.80744 0.65172 0.0
H645 H 0.80831 0.81824 0.66386 0.0
H646 H 0.80432 0.82743 0.7302 0.0
H647 H 0.79483 0.83945 0.72747 0.0
H648 H 0.23936 0.04865 0.80239 0.0
H649 H 0.22775 0.02695 0.79669 0.0
H650 H 0.19582 0.02863 0.78571 0.0
H651 H 0.20732 0.05029 0.7907 0.0
H652 H 0.20795 0.00823 0.84293 0.0
H653 H 0.19766 0.0139 0.66756 0.0
H654 H 0.20882 0.02605 0.69925 0.0
H655 H 0.19346 0.0211 0.70829 0.0
C656 C 0.22984 0.04439 0.79968 0.0
C657 C 0.22429 0.05121 0.79621 0.0
C658 C 0.22323 0.03199 0.79636 0.0
C659 C 0.21098 0.02625 0.78971 0.0
C660 C 0.2053 0.03294 0.78981 0.0
H661 H 0.16513 0.94874 0.77842 0.0
H662 H 0.17324 0.96969 0.79691 0.0
C663 C 0.2119 0.04531 0.79282 0.0
C664 C 0.20431 0.01344 0.77918 0.0
H665 H 0.18905 0.99423 0.69575 0.0
C666 C 0.20375 0.00513 0.81089 0.0
C667 C 0.199 0.00949 0.73705 0.0
C668 C 0.19982 0.01808 0.70086 0.0
C669 C 0.19802 0.99293 0.80154 0.0
C670 C 0.19259 0.98899 0.7596 0.0
C671 C 0.19311 0.9973 0.72801 0.0
C672 C 0.18705 0.97637 0.74662 0.0
C673 C 0.19816 0.98443 0.83599 0.0
C674 C 0.1918 0.97326 0.71094 0.0
C675 C 0.18715 0.96134 0.69998 0.0
C676 C 0.17761 0.95228 0.7245 0.0
C677 C 0.17252 0.95548 0.75898 0.0
C678 C 0.17719 0.96743 0.76989 0.0
H679 H 0.20479 0.98916 0.86233 0.0
H680 H 0.18933 0.97937 0.85222 0.0
H681 H 0.20011 0.97794 0.8202 0.0
H682 H 0.19936 0.98006 0.69234 0.0
H683 H 0.19127 0.95923 0.67312 0.0
H684 H 0.04312 0.23779 0.72637 0.0
H685 H 0.02177 0.22851 0.73785 0.0
H686 H 0.01873 0.19396 0.7476 0.0
H687 H 0.04002 0.2031 0.73669 0.0
H688 H 0.00221 0.21039 0.69212 0.0
H689 H 0.00451 0.19668 0.8661 0.0
H690 H 0.01744 0.20736 0.83491 0.0
H691 H 0.01114 0.19167 0.82597 0.0
C692 C 0.03791 0.2282 0.73041 0.0
C693 C 0.04333 0.2212 0.73116 0.0
C694 C 0.02571 0.22292 0.73709 0.0
C695 C 0.01875 0.2106 0.74469 0.0
C696 C 0.02401 0.20353 0.74292 0.0
H697 H 0.94678 0.15736 0.78635 0.0
H698 H 0.96823 0.16956 0.77983 0.0
C699 C 0.03618 0.20877 0.73636 0.0
C700 C 0.00602 0.20511 0.7554 0.0
H701 H 0.98529 0.18832 0.83467 0.0
C702 C 0.9985 0.20568 0.72344 0.0
C703 C 0.00126 0.19906 0.7965 0.0
C704 C 0.00901 0.19873 0.83305 0.0
C705 C 0.98624 0.19986 0.73069 0.0
C706 C 0.98146 0.19349 0.7712 0.0
C707 C 0.98901 0.19321 0.80365 0.0
C708 C 0.96856 0.18635 0.77916 0.0
C709 C 0.97845 0.20018 0.69429 0.0
C710 C 0.9617 0.1918 0.78246 0.0
C711 C 0.9494 0.18485 0.78633 0.0
C712 C 0.94378 0.17234 0.78687 0.0
C713 C 0.95078 0.16696 0.7857 0.0
C714 C 0.96305 0.17391 0.782 0.0
H715 H 0.98332 0.20368 0.6622 0.0
H716 H 0.97078 0.19113 0.68891 0.0
H717 H 0.97498 0.20602 0.70438 0.0
H718 H 0.96584 0.20142 0.78109 0.0
H719 H 0.94428 0.18929 0.78728 0.0
H720 H 0.87951 0.6004 0.55588 0.0
H721 H 0.89661 0.59757 0.55903 0.0
H722 H 0.87554 0.56423 0.63018 0.0
H723 H 0.8587 0.56723 0.62895 0.0
H724 H 0.89808 0.57484 0.65598 0.0
H725 H 0.89613 0.57454 0.47025 0.0
H726 H 0.89962 0.58819 0.49683 0.0
H727 H 0.88516 0.57529 0.5039 0.0
C728 C 0.87864 0.59264 0.57336 0.0
C729 C 0.86765 0.58388 0.59117 0.0
C730 C 0.88839 0.59099 0.57477 0.0
C731 C 0.88723 0.58047 0.59335 0.0
C732 C 0.87663 0.57236 0.61518 0.0
H733 H 0.896 0.52575 0.52951 0.0
H734 H 0.89434 0.54351 0.52976 0.0
C735 C 0.86696 0.57408 0.61436 0.0
C736 C 0.89622 0.57694 0.58576 0.0
H737 H 0.90652 0.56646 0.50394 0.0
C738 C 0.9002 0.57325 0.62276 0.0
C739 C 0.89897 0.57491 0.54225 0.0
C740 C 0.89472 0.57836 0.50094 0.0
C741 C 0.90577 0.56653 0.61765 0.0
C742 C 0.90779 0.5638 0.57415 0.0
C743 C 0.90493 0.56856 0.53716 0.0
C744 C 0.91047 0.55416 0.56646 0.0
C745 C 0.90839 0.56149 0.65892 0.0
C746 C 0.92046 0.55442 0.58469 0.0
C747 C 0.92135 0.54413 0.58518 0.0
C748 C 0.91233 0.53351 0.56687 0.0
C749 C 0.90303 0.53371 0.54442 0.0
C750 C 0.90208 0.54391 0.54445 0.0
H751 H 0.90467 0.56306 0.68963 0.0
H752 H 0.90471 0.55175 0.65588 0.0
H753 H 0.91809 0.56577 0.66301 0.0
H754 H 0.92724 0.56235 0.60062 0.0
H755 H 0.92874 0.54432 0.60217 0.0
H756 H 0.41938 0.28765 0.53305 0.0
H757 H 0.4251 0.30858 0.53411 0.0
H758 H 0.39391 0.29976 0.61176 0.0
H759 H 0.38854 0.27876 0.6132 0.0
H760 H 0.41668 0.32178 0.50757 0.0
H761 H 0.41822 0.32278 0.69288 0.0
H762 H 0.41569 0.3099 0.66242 0.0
H763 H 0.40392 0.31303 0.67021 0.0
C764 C 0.41367 0.29013 0.54998 0.0
C765 C 0.40361 0.28161 0.57362 0.0
C766 C 0.41693 0.30212 0.55054 0.0
C767 C 0.41011 0.30582 0.57402 0.0
C768 C 0.39955 0.29719 0.59479 0.0
H769 H 0.44396 0.38415 0.54736 0.0
H770 H 0.42762 0.36348 0.5466 0.0
C771 C 0.39643 0.2852 0.59527 0.0
C772 C 0.41461 0.31877 0.57856 0.0
H773 H 0.42479 0.34088 0.65511 0.0
C774 C 0.41836 0.32597 0.53982 0.0
C775 C 0.41678 0.32422 0.62074 0.0
C776 C 0.41354 0.31712 0.66395 0.0
C777 C 0.42502 0.33843 0.54202 0.0
C778 C 0.42748 0.34388 0.58427 0.0
C779 C 0.4229 0.33669 0.62282 0.0
C780 C 0.43623 0.35671 0.58979 0.0
C781 C 0.4301 0.34551 0.49924 0.0
C782 C 0.44609 0.35994 0.61691 0.0
C783 C 0.45521 0.37176 0.61861 0.0
C784 C 0.45476 0.38058 0.59256 0.0
C785 C 0.44461 0.37749 0.56728 0.0
C786 C 0.43532 0.36567 0.5665 0.0
H787 H 0.42949 0.33976 0.47115 0.0
H788 H 0.42509 0.34999 0.48985 0.0
H789 H 0.43952 0.35242 0.50334 0.0
H790 H 0.44702 0.35323 0.63536 0.0
H791 H 0.46291 0.37383 0.6384 0.0
H792 H 0.7176 0.15943 0.5797 0.0
H793 H 0.69734 0.14322 0.5903 0.0
H794 H 0.70555 0.11948 0.52064 0.0
H795 H 0.7259 0.13579 0.50919 0.0
H796 H 0.68638 0.11927 0.48652 0.0
H797 H 0.68119 0.1138 0.66914 0.0
H798 H 0.68748 0.12918 0.65342 0.0
H799 H 0.69552 0.12161 0.6422 0.0
C800 C 0.71519 0.15071 0.5674 0.0
C801 C 0.72335 0.14893 0.54338 0.0
C802 C 0.70361 0.14141 0.57381 0.0
C803 C 0.69996 0.13009 0.55675 0.0
C804 C 0.70821 0.12813 0.53432 0.0
H805 H 0.62462 0.08422 0.61479 0.0
H806 H 0.64482 0.08844 0.60208 0.0
C807 C 0.71983 0.13746 0.52789 0.0
C808 C 0.68725 0.12087 0.55806 0.0
H809 H 0.66329 0.10871 0.62761 0.0
C810 C 0.68134 0.1167 0.51747 0.0
C811 C 0.68069 0.11726 0.59839 0.0
C812 C 0.68659 0.1206 0.64323 0.0
C813 C 0.66896 0.10993 0.51593 0.0
C814 C 0.66236 0.10749 0.55591 0.0
C815 C 0.66832 0.11072 0.59678 0.0
C816 C 0.6495 0.10316 0.55603 0.0
C817 C 0.6631 0.10581 0.47134 0.0
C818 C 0.64529 0.10977 0.53322 0.0
C819 C 0.63375 0.10735 0.54024 0.0
C820 C 0.62624 0.09839 0.57073 0.0
C821 C 0.63019 0.09122 0.59118 0.0
C822 C 0.64175 0.09363 0.58403 0.0
H823 H 0.66871 0.10408 0.44842 0.0
H824 H 0.65432 0.09758 0.47472 0.0
H825 H 0.6619 0.11292 0.45578 0.0
H826 H 0.65115 0.11733 0.51223 0.0
H827 H 0.631 0.11303 0.52389 0.0
H828 H 0.50296 0.12142 0.10069 0.0
H829 H 0.4907 0.13053 0.09374 0.0
H830 H 0.45938 0.0962 0.11451 0.0
H831 H 0.4716 0.08697 0.12215 0.0
H832 H 0.47367 0.12478 0.02819 0.0
H833 H 0.45393 0.11765 0.19795 0.0
H834 H 0.46673 0.11632 0.18644 0.0
H835 H 0.45225 0.10454 0.17193 0.0
C836 C 0.49348 0.1158 0.10452 0.0
C837 C 0.48827 0.10344 0.11186 0.0
C838 C 0.48649 0.12103 0.10043 0.0
C839 C 0.47415 0.11405 0.10376 0.0
C840 C 0.4689 0.10178 0.11251 0.0
H841 H 0.42083 0.13522 0.07325 0.0
H842 H 0.43046 0.12327 0.07706 0.0
C843 C 0.47591 0.09652 0.11678 0.0
C844 C 0.46683 0.11957 0.09514 0.0
H845 H 0.44712 0.12598 0.1432 0.0
C846 C 0.46785 0.12503 0.05331 0.0
C847 C 0.45917 0.11978 0.12784 0.0
C848 C 0.45798 0.11435 0.17372 0.0
C849 C 0.46152 0.13082 0.04344 0.0
C850 C 0.4541 0.13129 0.07649 0.0
C851 C 0.45282 0.12557 0.11792 0.0
C852 C 0.44818 0.13833 0.06986 0.0
C853 C 0.46283 0.13639 0.99774 0.0
C854 C 0.45497 0.15073 0.06406 0.0
C855 C 0.44953 0.15758 0.06189 0.0
C856 C 0.43717 0.15217 0.06568 0.0
C857 C 0.43036 0.13968 0.07003 0.0
C858 C 0.43583 0.13283 0.0724 0.0
H859 H 0.46604 0.13241 0.9728 0.0
H860 H 0.45431 0.13534 0.9862 0.0
H861 H 0.46938 0.14605 -0.00081 0.0
H862 H 0.46453 0.15516 0.06273 0.0
H863 H 0.45506 0.16716 0.05858 0.0
H864 H 0.85609 0.29098 0.01491 0.0
H865 H 0.8621 0.31122 0.03612 0.0
H866 H 0.83501 0.29775 0.13811 0.0
H867 H 0.82899 0.27731 0.1176 0.0
H868 H 0.84945 0.32315 0.03923 0.0
H869 H 0.86564 0.31923 0.20676 0.0
H870 H 0.86226 0.30838 0.16398 0.0
H871 H 0.85052 0.30857 0.19412 0.0
C872 C 0.85133 0.29226 0.04169 0.0
C873 C 0.84212 0.28249 0.06482 0.0
C874 C 0.85478 0.30386 0.05374 0.0
C875 C 0.84913 0.30596 0.08913 0.0
C876 C 0.83962 0.29629 0.11124 0.0
H877 H 0.87126 0.38127 0.12182 0.0
H878 H 0.85824 0.35965 0.12376 0.0
C879 C 0.83615 0.28463 0.09921 0.0
C880 C 0.85353 0.31836 0.10293 0.0
H881 H 0.86896 0.3381 0.18477 0.0
C882 C 0.85356 0.32642 0.07129 0.0
C883 C 0.85895 0.32254 0.14469 0.0
C884 C 0.85946 0.31429 0.17938 0.0
C885 C 0.85933 0.33866 0.07943 0.0
C886 C 0.86498 0.3429 0.12086 0.0
C887 C 0.86454 0.33478 0.15323 0.0
C888 C 0.87245 0.35581 0.12891 0.0
C889 C 0.85993 0.34699 0.04252 0.0
C890 C 0.88468 0.36078 0.13429 0.0
C891 C 0.89214 0.37312 0.13385 0.0
C892 C 0.88748 0.38069 0.12767 0.0
C893 C 0.87514 0.37567 0.12586 0.0
C894 C 0.86768 0.36333 0.12682 0.0
H895 H 0.85722 0.34248 0.0099 0.0
H896 H 0.8539 0.35036 0.05065 0.0
H897 H 0.86902 0.35475 0.03892 0.0
H898 H 0.88852 0.35511 0.13624 0.0
H899 H 0.90159 0.3767 0.13552 0.0
H900 H 0.61984 0.494 0.09335 0.0
H901 H 0.64135 0.50589 0.08899 0.0
H902 H 0.63967 0.53812 0.09365 0.0
H903 H 0.61808 0.52631 0.0978 0.0
H904 H 0.65366 0.53707 0.02208 0.0
H905 H 0.66536 0.52573 0.18619 0.0
H906 H 0.65497 0.5131 0.15486 0.0
H907 H 0.65087 0.52351 0.17456 0.0
C908 C 0.62401 0.50362 0.094 0.0
C909 C 0.61721 0.5092 0.09587 0.0
C910 C 0.63632 0.51039 0.0917 0.0
C911 C 0.64207 0.52286 0.09137 0.0
C912 C 0.63536 0.52848 0.09405 0.0
H913 H 0.71632 0.57677 0.05326 0.0
H914 H 0.69478 0.56644 0.05901 0.0
C915 C 0.62304 0.52172 0.09657 0.0
C916 C 0.65504 0.52997 0.08564 0.0
H917 H 0.68094 0.53548 0.13294 0.0
C918 C 0.65966 0.53684 0.04644 0.0
C919 C 0.66278 0.52957 0.11746 0.0
C920 C 0.65828 0.52267 0.16085 0.0
C921 C 0.67186 0.54306 0.03754 0.0
C922 C 0.67959 0.54253 0.06913 0.0
C923 C 0.67496 0.53581 0.10867 0.0
C924 C 0.69254 0.54878 0.06191 0.0
C925 C 0.67631 0.54982 0.99387 0.0
C926 C 0.69841 0.54227 0.06167 0.0
C927 C 0.71071 0.54814 0.05871 0.0
C928 C 0.7174 0.56065 0.0561 0.0
C929 C 0.71145 0.56713 0.05495 0.0
C930 C 0.69913 0.56124 0.05809 0.0
H931 H 0.66915 0.54687 0.9689 0.0
H932 H 0.67988 0.55944 -0.00042 0.0
H933 H 0.68352 0.5487 0.97976 0.0
H934 H 0.69347 0.53264 0.0646 0.0
H935 H 0.71498 0.54285 0.05959 0.0
H936 H 0.52229 0.8979 0.95462 0.0
H937 H 0.53824 0.89353 0.95714 0.0
H938 H 0.5607 0.92573 0.88157 0.0
H939 H 0.54459 0.93006 0.87795 0.0
H940 H 0.5594 0.9072 0.84201 0.0
H941 H 0.56889 0.90415 0.01854 0.0
H942 H 0.55323 0.89561 0.01081 0.0
H943 H 0.56097 0.9115 0.0006 0.0
C944 C 0.53072 0.90426 0.93963 0.0
C945 C 0.5321 0.91424 0.91559 0.0
C946 C 0.53991 0.9018 0.94144 0.0
C947 C 0.55074 0.90935 0.91984 0.0
C948 C 0.55244 0.9198 0.89859 0.0
H949 H 0.58936 0.87102 0.93449 0.0
H950 H 0.58825 0.88924 0.93156 0.0
C951 C 0.54322 0.92226 0.89665 0.0
C952 C 0.55932 0.90522 0.91361 0.0
H953 H 0.57063 0.89016 0.96881 0.0
C954 C 0.56217 0.90379 0.86984 0.0
C955 C 0.56326 0.90104 0.94971 0.0
C956 C 0.56153 0.9033 0.99751 0.0
C957 C 0.56771 0.89719 0.86119 0.0
C958 C 0.57019 0.89165 0.89714 0.0
C959 C 0.56852 0.89418 0.94103 0.0
C960 C 0.57266 0.88183 0.89033 0.0
C961 C 0.57038 0.8958 0.81349 0.0
C962 C 0.56454 0.87175 0.86676 0.0
C963 C 0.56518 0.86137 0.86815 0.0
C964 C 0.57385 0.86078 0.89375 0.0
C965 C 0.58253 0.87116 0.91459 0.0
C966 C 0.5819 0.88158 0.91304 0.0
H967 H 0.57274 0.90398 0.79351 0.0
H968 H 0.57773 0.89392 0.8111 0.0
H969 H 0.56237 0.88835 0.79844 0.0
H970 H 0.55716 0.87159 0.84985 0.0
H971 H 0.55838 0.85356 0.85165 0.0
H972 H 0.08787 0.61533 0.87236 0.0
H973 H 0.093 0.63611 0.87411 0.0
H974 H 0.06128 0.6262 0.94999 0.0
H975 H 0.05641 0.60537 0.95044 0.0
H976 H 0.08379 0.64894 0.84782 0.0
H977 H 0.08545 0.64906 0.03321 0.0
H978 H 0.0834 0.63652 0.0015 0.0
H979 H 0.07126 0.63905 0.01017 0.0
C980 C 0.0819 0.61754 0.88899 0.0
C981 C 0.07185 0.60877 0.91191 0.0
C982 C 0.08484 0.62943 0.88994 0.0
C983 C 0.07769 0.63277 0.91319 0.0
C984 C 0.06714 0.62389 0.93315 0.0
H985 H 0.10839 0.71076 0.89369 0.0
H986 H 0.09282 0.68977 0.89194 0.0
C987 C 0.06433 0.61199 0.93311 0.0
C988 C 0.08187 0.6456 0.91865 0.0
H989 H 0.0916 0.66728 0.99683 0.0
C990 C 0.08539 0.65297 0.88037 0.0
C991 C 0.08395 0.65081 0.96126 0.0
C992 C 0.08092 0.64349 0.00391 0.0
C993 C 0.09168 0.66542 0.88343 0.0
C994 C 0.09404 0.67063 0.92608 0.0
C995 C 0.08976 0.66325 0.96424 0.0
C996 C 0.10238 0.68351 0.9322 0.0
C997 C 0.09646 0.67278 0.84106 0.0
C998 C 0.11254 0.68704 0.95792 0.0
C999 C 0.12125 0.69901 0.96004 0.0
C1000 C 0.12007 0.70768 0.9359 0.0
C1001 C 0.10961 0.70423 0.91208 0.0
C1002 C 0.10076 0.69225 0.91078 0.0
H1003 H 0.09598 0.66728 0.81227 0.0
H1004 H 0.09117 0.67703 0.83283 0.0
H1005 H 0.10581 0.6799 0.84513 0.0
H1006 H 0.11398 0.68048 0.97491 0.0
H1007 H 0.12919 0.70137 0.97869 0.0
H1008 H 0.2994 0.43853 0.86649 0.0
H1009 H 0.31823 0.43922 0.86616 0.0
H1010 H 0.30314 0.4068 0.94544 0.0
H1011 H 0.28422 0.40626 0.94714 0.0
H1012 H 0.32141 0.42319 0.98539 0.0
H1013 H 0.33527 0.42457 0.81219 0.0
H1014 H 0.33032 0.43506 0.81631 0.0
H1015 H 0.32005 0.41942 0.82676 0.0
C1016 C 0.29993 0.43132 0.88268 0.0
C1017 C 0.29035 0.42247 0.9075 0.0
C1018 C 0.31074 0.43165 0.88209 0.0
C1019 C 0.31214 0.42302 0.90555 0.0
C1020 C 0.30228 0.41356 0.92706 0.0
H1021 H 0.38846 0.45641 0.90092 0.0
H1022 H 0.36891 0.43846 0.90273 0.0
C1023 C 0.29145 0.41326 0.92792 0.0
C1024 C 0.32425 0.42526 0.91409 0.0
H1025 H 0.35127 0.43809 0.86357 0.0
C1026 C 0.32789 0.42607 0.95862 0.0
C1027 C 0.33273 0.42864 0.87952 0.0
C1028 C 0.32931 0.42672 0.83107 0.0
C1029 C 0.33991 0.43157 0.96941 0.0
C1030 C 0.34847 0.43669 0.9349 0.0
C1031 C 0.34476 0.43448 0.89033 0.0
C1032 C 0.36087 0.44606 0.94363 0.0
C1033 C 0.34328 0.43237 0.01783 0.0
C1034 C 0.36301 0.45614 0.96772 0.0
C1035 C 0.37418 0.46635 0.96709 0.0
C1036 C 0.38338 0.4668 0.94158 0.0
C1037 C 0.38153 0.45639 0.92065 0.0
C1038 C 0.37034 0.44611 0.92158 0.0
H1039 H 0.33692 0.42411 0.03632 0.0
H1040 H 0.35232 0.43379 0.02195 0.0
H1041 H 0.34288 0.43987 0.03316 0.0
H1042 H 0.35585 0.4565 0.98412 0.0
H1043 H 0.3753 0.47419 0.98371 0.0
H1044 H 0.08366 0.4602 0.4098 0.0
H1045 H 0.09399 0.44892 0.41109 0.0
H1046 H 0.1275 0.48171 0.40677 0.0
H1047 H 0.11733 0.49309 0.4052 0.0
H1048 H 0.12548 0.46321 0.34852 0.0
H1049 H 0.11194 0.44759 0.524 0.0
H1050 H 0.10032 0.44488 0.48568 0.0
H1051 H 0.111 0.45989 0.49985 0.0
C1052 C 0.09322 0.46503 0.4086 0.0
C1053 C 0.09966 0.47756 0.40781 0.0
C1054 C 0.0991 0.45856 0.40963 0.0
C1055 C 0.11148 0.46451 0.40981 0.0
C1056 C 0.11793 0.47697 0.40697 0.0
H1057 H 0.16842 0.45017 0.42817 0.0
H1058 H 0.15558 0.45865 0.42221 0.0
C1059 C 0.11208 0.48345 0.4061 0.0
C1060 C 0.11782 0.45784 0.41423 0.0
H1061 H 0.12387 0.44141 0.48808 0.0
C1062 C 0.12509 0.45839 0.3789 0.0
C1063 C 0.11724 0.45154 0.45392 0.0
C1064 C 0.10978 0.45096 0.49326 0.0
C1065 C 0.13189 0.45286 0.3823 0.0
C1066 C 0.13159 0.44687 0.42249 0.0
C1067 C 0.12409 0.44606 0.45742 0.0
C1068 C 0.13932 0.44174 0.42931 0.0
C1069 C 0.13929 0.45345 0.34274 0.0
C1070 C 0.13444 0.42949 0.4375 0.0
C1071 C 0.14177 0.4246 0.44139 0.0
C1072 C 0.15411 0.4319 0.43722 0.0
C1073 C 0.15896 0.44426 0.43106 0.0
C1074 C 0.15163 0.44912 0.42733 0.0
H1075 H 0.13599 0.45526 0.31119 0.0
H1076 H 0.14852 0.46078 0.34736 0.0
H1077 H 0.13939 0.44501 0.33941 0.0
H1078 H 0.12494 0.42367 0.43962 0.0
H1079 H 0.13774 0.41506 0.44623 0.0
H1080 H 0.50302 0.6189 0.40977 0.0
H1081 H 0.51553 0.64043 0.41642 0.0
H1082 H 0.54664 0.63723 0.40653 0.0
H1083 H 0.5342 0.61568 0.39896 0.0
H1084 H 0.53129 0.65162 0.48419 0.0
H1085 H 0.55431 0.66457 0.3197 0.0
H1086 H 0.54127 0.65024 0.33003 0.0
H1087 H 0.55542 0.65309 0.34942 0.0
C1088 C 0.51252 0.62277 0.40826 0.0
C1089 C 0.5176 0.61555 0.40388 0.0
C1090 C 0.51966 0.63508 0.41219 0.0
C1091 C 0.53201 0.64043 0.41177 0.0
C1092 C 0.53713 0.63331 0.40616 0.0
H1093 H 0.58549 0.71558 0.4457 0.0
H1094 H 0.57579 0.69379 0.44559 0.0
C1095 C 0.52999 0.62098 0.40193 0.0
C1096 C 0.53942 0.65334 0.41994 0.0
H1097 H 0.56051 0.6797 0.37321 0.0
C1098 C 0.5377 0.65776 0.45996 0.0
C1099 C 0.54784 0.6613 0.38844 0.0
C1100 C 0.54978 0.65711 0.3443 0.0
C1101 C 0.54405 0.66996 0.46901 0.0
C1102 C 0.55225 0.67793 0.43708 0.0
C1103 C 0.55424 0.67351 0.39767 0.0
C1104 C 0.55808 0.69097 0.4421 0.0
C1105 C 0.54188 0.67424 0.5125 0.0
C1106 C 0.55129 0.69652 0.44072 0.0
C1107 C 0.55677 0.70891 0.44055 0.0
C1108 C 0.56916 0.71599 0.44179 0.0
C1109 C 0.57593 0.71038 0.44498 0.0
C1110 C 0.57042 0.69795 0.44473 0.0
H1111 H 0.5378 0.66694 0.53792 0.0
H1112 H 0.55025 0.6816 0.52593 0.0
H1113 H 0.53576 0.67768 0.50677 0.0
H1114 H 0.54176 0.69128 0.4381 0.0
H1115 H 0.55129 0.71294 0.43815 0.0
H1116 H 0.37422 0.87083 0.38341 0.0
H1117 H 0.35289 0.86166 0.39353 0.0
H1118 H 0.35592 0.89619 0.38296 0.0
H1119 H 0.37727 0.90548 0.37231 0.0
H1120 H 0.34277 0.86718 0.46546 0.0
H1121 H 0.32772 0.87544 0.30247 0.0
H1122 H 0.34187 0.87642 0.30921 0.0
H1123 H 0.33976 0.88829 0.32756 0.0
C1124 C 0.37036 0.87648 0.38232 0.0
C1125 C 0.3775 0.88891 0.37726 0.0
C1126 C 0.35816 0.87121 0.38824 0.0
C1127 C 0.35284 0.87824 0.38891 0.0
C1128 C 0.35983 0.89059 0.38194 0.0
H1129 H 0.27928 0.85808 0.43949 0.0
H1130 H 0.30081 0.86977 0.43109 0.0
C1131 C 0.37205 0.89588 0.37595 0.0
C1132 C 0.34015 0.87273 0.40051 0.0
H1133 H 0.31346 0.86705 0.36049 0.0
C1134 C 0.33635 0.86714 0.44252 0.0
C1135 C 0.33186 0.87284 0.3707 0.0
C1136 C 0.33544 0.87848 0.3248 0.0
C1137 C 0.32443 0.86155 0.45542 0.0
C1138 C 0.31608 0.86139 0.42521 0.0
C1139 C 0.31991 0.86722 0.3836 0.0
C1140 C 0.30324 0.85453 0.43484 0.0
C1141 C 0.32088 0.85589 0.50132 0.0
C1142 C 0.29753 0.84212 0.44027 0.0
C1143 C 0.28527 0.83542 0.4451 0.0
C1144 C 0.27846 0.841 0.44434 0.0
C1145 C 0.28425 0.8535 0.44043 0.0
C1146 C 0.29655 0.86019 0.43542 0.0
H1147 H 0.32847 0.85975 0.52454 0.0
H1148 H 0.31368 0.85699 0.51559 0.0
H1149 H 0.31763 0.84622 0.49901 0.0
H1150 H 0.30252 0.83755 0.43919 0.0
H1151 H 0.28112 0.82582 0.44801 0.0
H1152 H 0.11997 0.26453 0.80153 0.0
H1153 H 0.13444 0.26074 0.83718 0.0
H1154 H 0.1127 0.22324 0.81066 0.0
H1155 H 0.09792 0.22696 0.77684 0.0
H1156 H 0.11757 0.2257 0.89251 0.0
H1157 H 0.15985 0.25422 0.80689 0.0
H1158 H 0.15372 0.26336 0.82019 0.0
H1159 H 0.14601 0.25112 0.78248 0.0
C1160 C 0.11837 0.25551 0.80251 0.0
C1161 C 0.10772 0.24602 0.78699 0.0
C1162 C 0.12676 0.25336 0.82234 0.0
C1163 C 0.12482 0.24172 0.82591 0.0
C1164 C 0.11445 0.23231 0.80811 0.0
H1165 H 0.16782 0.23375 0.03861 0.0
H1166 H 0.15978 0.2304 0.96234 0.0
C1167 C 0.10594 0.23443 0.78906 0.0
C1168 C 0.13251 0.23927 0.85509 0.0
H1169 H 0.16111 0.25215 0.88965 0.0
C1170 C 0.12712 0.23113 0.89073 0.0
C1171 C 0.14501 0.24618 0.85279 0.0
C1172 C 0.15143 0.25409 0.81311 0.0
C1173 C 0.13377 0.2308 0.92659 0.0
C1174 C 0.14604 0.2389 0.92701 0.0
C1175 C 0.15164 0.24607 0.88935 0.0
C1176 C 0.15238 0.24186 0.96957 0.0
C1177 C 0.12751 0.22264 0.96595 0.0
C1178 C 0.15105 0.24957 0.99785 0.0
C1179 C 0.15544 0.25135 0.04094 0.0
C1180 C 0.16129 0.24549 0.05641 0.0
C1181 C 0.16326 0.2383 0.02726 0.0
C1182 C 0.15872 0.2364 0.98393 0.0
H1183 H 0.11857 0.21532 0.95701 0.0
H1184 H 0.13274 0.21873 0.97924 0.0
H1185 H 0.12654 0.22785 0.99289 0.0
H1186 H 0.14622 0.25389 0.98702 0.0
H1187 H 0.15417 0.25726 0.06214 0.0
H1188 H 0.77364 0.93124 0.07856 0.0
H1189 H 0.7773 0.92578 0.00511 0.0
H1190 H 0.7398 0.90618 0.98082 0.0
H1191 H 0.73607 0.91168 0.05365 0.0
H1192 H 0.76874 0.90227 0.99126 0.0
H1193 H 0.7527 0.92008 0.85764 0.0
H1194 H 0.75616 0.92631 0.91277 0.0
H1195 H 0.74206 0.9133 0.90202 0.0
C1196 C 0.76619 0.92609 0.057 0.0
C1197 C 0.75455 0.92172 0.07223 0.0
C1198 C 0.76831 0.92301 0.01498 0.0
C1199 C 0.75884 0.91563 0.98737 0.0
C1200 C 0.74727 0.91207 0.0011 0.0
H1201 H 0.73535 0.85962 0.80984 0.0
H1202 H 0.73937 0.87718 0.85188 0.0
C1203 C 0.74514 0.91513 0.04306 0.0
C1204 C 0.76071 0.9097 0.94909 0.0
H1205 H 0.75253 0.90173 0.84136 0.0
C1206 C 0.7655 0.90239 0.95808 0.0
C1207 C 0.75639 0.90981 0.90602 0.0
C1208 C 0.75165 0.9179 0.89392 0.0
C1209 C 0.76528 0.8945 0.92632 0.0
C1210 C 0.76041 0.89416 0.88384 0.0
C1211 C 0.75624 0.90199 0.87393 0.0
C1212 C 0.75836 0.88481 0.85162 0.0
C1213 C 0.76945 0.88599 0.93982 0.0
C1214 C 0.76773 0.88352 0.83596 0.0
C1215 C 0.76544 0.87336 0.81265 0.0
C1216 C 0.75375 0.86446 0.80378 0.0
C1217 C 0.74445 0.86627 0.81639 0.0
C1218 C 0.74674 0.87633 0.84025 0.0
H1219 H 0.77062 0.88578 0.97644 0.0
H1220 H 0.76309 0.87681 0.92907 0.0
H1221 H 0.7781 0.88884 0.92361 0.0
H1222 H 0.77678 0.8901 0.8435 0.0
H1223 H 0.77282 0.87232 0.80304 0.0
H1224 H 0.08877 0.83445 0.99635 0.0
H1225 H 0.10006 0.83791 0.92705 0.0
H1226 H 0.12927 0.86938 0.98242 0.0
H1227 H 0.11802 0.86621 0.05118 0.0
H1228 H 0.11147 0.86112 0.87235 0.0
H1229 H 0.14253 0.84722 0.9358 0.0
H1230 H 0.1281 0.84199 0.96035 0.0
H1231 H 0.14007 0.85665 0.97215 0.0
C1232 C 0.09759 0.84214 0.99377 0.0
C1233 C 0.10255 0.84999 0.0296 0.0
C1234 C 0.10402 0.84405 0.95422 0.0
C1235 C 0.11555 0.85376 0.95008 0.0
C1236 C 0.12045 0.8617 0.98541 0.0
H1237 H 0.17294 0.89895 0.80263 0.0
H1238 H 0.15869 0.88371 0.85353 0.0
C1239 C 0.114 0.85987 0.02472 0.0
C1240 C 0.12244 0.85602 0.90838 0.0
H1241 H 0.14844 0.85944 0.86956 0.0
C1242 C 0.1194 0.86049 0.87105 0.0
C1243 C 0.13269 0.85506 0.90702 0.0
C1244 C 0.13604 0.84988 0.9458 0.0
C1245 C 0.12696 0.86506 0.8337 0.0
C1246 C 0.13768 0.86488 0.83354 0.0
C1247 C 0.14021 0.85952 0.8696 0.0
C1248 C 0.14734 0.87235 0.80149 0.0
C1249 C 0.12387 0.87094 0.79649 0.0
C1250 C 0.14606 0.87072 0.7551 0.0
C1251 C 0.15434 0.87948 0.7257 0.0
C1252 C 0.1639 0.88989 0.74266 0.0
C1253 C 0.16565 0.89095 0.78886 0.0
C1254 C 0.1575 0.88226 0.81796 0.0
H1255 H 0.11592 0.87155 0.80442 0.0
H1256 H 0.13137 0.88006 0.7895 0.0
H1257 H 0.1221 0.86571 0.76568 0.0
H1258 H 0.13836 0.86305 0.74171 0.0
H1259 H 0.15275 0.87857 0.69015 0.0
H1260 H 0.23979 0.101 0.67599 0.0
H1261 H 0.23681 0.11559 0.63544 0.0
H1262 H 0.26705 0.14409 0.70013 0.0
H1263 H 0.27023 0.1294 0.74074 0.0
H1264 H 0.23257 0.13307 0.66765 0.0
H1265 H 0.2743 0.1526 0.56754 0.0
H1266 H 0.26882 0.13883 0.5988 0.0
H1267 H 0.27555 0.15275 0.62725 0.0
C1268 C 0.2458 0.11036 0.68182 0.0
C1269 C 0.25525 0.11406 0.71155 0.0
C1270 C 0.24407 0.11869 0.65865 0.0
C1271 C 0.25172 0.13091 0.66468 0.0
C1272 C 0.26113 0.13469 0.69462 0.0
H1273 H 0.24616 0.17932 0.4714 0.0
H1274 H 0.25064 0.17374 0.54419 0.0
C1275 C 0.26293 0.12631 0.71776 0.0
C1276 C 0.24978 0.13944 0.63817 0.0
H1277 H 0.26035 0.15789 0.54682 0.0
C1278 C 0.23875 0.13872 0.64183 0.0
C1279 C 0.2579 0.14685 0.60477 0.0
C1280 C 0.26979 0.14782 0.59893 0.0
C1281 C 0.23529 0.14453 0.61091 0.0
C1282 C 0.24304 0.15118 0.57558 0.0
C1283 C 0.25444 0.15275 0.5741 0.0
C1284 C 0.2389 0.15484 0.536 0.0
C1285 C 0.22314 0.14302 0.61485 0.0
C1286 C 0.23069 0.14604 0.50785 0.0
C1287 C 0.22824 0.14916 0.46624 0.0
C1288 C 0.23389 0.16114 0.45228 0.0
C1289 C 0.24159 0.17001 0.48157 0.0
C1290 C 0.24419 0.16686 0.52303 0.0
H1291 H 0.21973 0.1408 0.64967 0.0
H1292 H 0.22319 0.15123 0.60365 0.0
H1293 H 0.21695 0.13561 0.59336 0.0
H1294 H 0.22668 0.1367 0.51702 0.0
H1295 H 0.22228 0.14217 0.44427 0.0
H1296 H 0.81977 0.0597 0.4708 0.0
H1297 H 0.82633 0.06681 0.54662 0.0
H1298 H 0.86168 0.09022 0.49607 0.0
H1299 H 0.85541 0.08249 0.42187 0.0
H1300 H 0.86329 0.08278 0.57257 0.0
H1301 H 0.82986 0.09701 0.5865 0.0
H1302 H 0.82394 0.08126 0.58298 0.0
H1303 H 0.8318 0.09085 0.5361 0.0
C1304 C 0.82898 0.06619 0.47632 0.0
C1305 C 0.83707 0.07062 0.4405 0.0
C1306 C 0.8327 0.07035 0.51951 0.0
C1307 C 0.84443 0.07935 0.52702 0.0
C1308 C 0.85257 0.0833 0.49141 0.0
H1309 H 0.87476 0.14152 0.67053 0.0
H1310 H 0.86238 0.12353 0.62855 0.0
C1311 C 0.84897 0.07888 0.4488 0.0
C1312 C 0.84836 0.08542 0.57052 0.0
H1313 H 0.84427 0.10339 0.64115 0.0
C1314 C 0.85909 0.08724 0.58782 0.0
C1315 C 0.8428 0.09114 0.59072 0.0
C1316 C 0.83152 0.09007 0.57304 0.0
C1317 C 0.86507 0.09554 0.62127 0.0
C1318 C 0.85974 0.10162 0.6403 0.0
C1319 C 0.84841 0.09883 0.62626 0.0
C1320 C 0.86636 0.11209 0.66938 0.0
C1321 C 0.87745 0.0984 0.63274 0.0
C1322 C 0.87252 0.11168 0.70713 0.0
C1323 C 0.88001 0.12212 0.72991 0.0
C1324 C 0.88096 0.13296 0.7166 0.0
C1325 C 0.87413 0.13322 0.68123 0.0
C1326 C 0.86702 0.12292 0.65742 0.0
H1327 H 0.88117 0.095 0.6075 0.0
H1328 H 0.8835 0.10815 0.63525 0.0
H1329 H 0.87728 0.09413 0.66523 0.0
H1330 H 0.87179 0.10339 0.71831 0.0
H1331 H 0.88509 0.12175 0.75774 0.0
H1332 H 0.86393 0.75989 0.66389 0.0
H1333 H 0.8814 0.76238 0.6254 0.0
H1334 H 0.87792 0.73146 0.69489 0.0
H1335 H 0.86012 0.72871 0.73304 0.0
H1336 H 0.90275 0.76585 0.6553 0.0
H1337 H 0.87785 0.723 0.56517 0.0
H1338 H 0.87043 0.72918 0.59586 0.0
H1339 H 0.87735 0.72218 0.62504 0.0
C1340 C 0.8669 0.75364 0.67129 0.0
C1341 C 0.86061 0.74406 0.70124 0.0
C1342 C 0.87691 0.7551 0.64934 0.0
C1343 C 0.88089 0.74704 0.65696 0.0
C1344 C 0.87487 0.73766 0.68796 0.0
H1345 H 0.93168 0.74897 0.46013 0.0
H1346 H 0.92269 0.74541 0.53483 0.0
C1347 C 0.86474 0.73612 0.70974 0.0
C1348 C 0.89096 0.74833 0.63018 0.0
H1349 H 0.89719 0.7362 0.54164 0.0
C1350 C 0.90164 0.75925 0.6311 0.0
C1351 C 0.88952 0.73967 0.59887 0.0
C1352 C 0.87817 0.72787 0.59575 0.0
C1353 C 0.91056 0.7621 0.59931 0.0
C1354 C 0.90871 0.75382 0.56596 0.0
C1355 C 0.89852 0.74251 0.56744 0.0
C1356 C 0.91597 0.75741 0.52489 0.0
C1357 C 0.9216 0.77419 0.60002 0.0
C1358 C 0.91522 0.76541 0.49506 0.0
C1359 C 0.92014 0.7673 0.45246 0.0
C1360 C 0.92598 0.7613 0.43912 0.0
C1361 C 0.92731 0.75379 0.46982 0.0
C1362 C 0.92219 0.75173 0.51236 0.0
H1363 H 0.92332 0.77799 0.63395 0.0
H1364 H 0.9294 0.77371 0.58852 0.0
H1365 H 0.92048 0.78035 0.5772 0.0
H1366 H 0.91026 0.7697 0.50389 0.0
H1367 H 0.919 0.77313 0.42939 0.0
H1368 H 0.87782 0.77559 0.85979 0.0
H1369 H 0.8877 0.77584 0.9292 0.0
H1370 H 0.85661 0.7435 0.97342 0.0
H1371 H 0.84668 0.74305 0.90393 0.0
H1372 H 0.88161 0.77647 0.01737 0.0
H1373 H 0.88284 0.73524 0.98466 0.0
H1374 H 0.87949 0.74299 0.94192 0.0
H1375 H 0.86832 0.73337 0.98162 0.0
C1376 C 0.87304 0.76854 0.8843 0.0
C1377 C 0.86147 0.75924 0.87604 0.0
C1378 C 0.87872 0.7687 0.92394 0.0
C1379 C 0.87297 0.75956 0.956 0.0
C1380 C 0.8613 0.75049 0.94862 0.0
H1381 H 0.88962 0.75823 0.23228 0.0
H1382 H 0.88143 0.75906 0.16036 0.0
C1383 C 0.85561 0.7503 0.90898 0.0
C1384 C 0.87918 0.75956 0.99729 0.0
H1385 H 0.88816 0.7431 0.05763 0.0
C1386 C 0.8831 0.76921 0.02608 0.0
C1387 C 0.8813 0.75017 0.00817 0.0
C1388 C 0.87788 0.7399 0.9773 0.0
C1389 C 0.88877 0.76956 0.06618 0.0
C1390 C 0.8904 0.75991 0.07802 0.0
C1391 C 0.88681 0.75043 0.04861 0.0
C1392 C 0.89546 0.75932 0.1215 0.0
C1393 C 0.89302 0.78027 0.09541 0.0
C1394 C 0.90591 0.75884 0.12349 0.0
C1395 C 0.91063 0.75829 0.16475 0.0
C1396 C 0.90492 0.75814 0.20469 0.0
C1397 C 0.89433 0.75842 0.20232 0.0
C1398 C 0.88965 0.75897 0.16119 0.0
H1399 H 0.89414 0.78816 0.07624 0.0
H1400 H 0.8864 0.77823 0.12222 0.0
H1401 H 0.90156 0.78259 0.11127 0.0
H1402 H 0.91047 0.759 0.09313 0.0
H1403 H 0.91876 0.75804 0.1653 0.0
H1404 H 0.2242 0.10327 0.87161 0.0
H1405 H 0.22361 0.11306 0.93964 0.0
H1406 H 0.25462 0.11304 0.98747 0.0
H1407 H 0.25541 0.1034 0.91937 0.0
H1408 H 0.22156 0.10548 0.02757 0.0
H1409 H 0.26362 0.14794 -0.00116 0.0
H1410 H 0.25634 0.13721 0.9555 0.0
H1411 H 0.26513 0.13499 0.99632 0.0
C1412 C 0.2309 0.10533 0.89656 0.0
C1413 C 0.23989 0.10259 0.88984 0.0
C1414 C 0.23055 0.11094 0.9354 0.0
C1415 C 0.2392 0.11397 0.96816 0.0
C1416 C 0.24803 0.11102 0.96209 0.0
H1417 H 0.23743 0.12905 0.2443 0.0
H1418 H 0.23731 0.1208 0.17187 0.0
C1419 C 0.2484 0.10543 0.92326 0.0
C1420 C 0.23882 0.11996 0.00919 0.0
H1421 H 0.25494 0.14477 0.07137 0.0
C1422 C 0.22882 0.11411 0.03701 0.0
C1423 C 0.24822 0.1313 0.02103 0.0
C1424 C 0.25889 0.13829 0.99117 0.0
C1425 C 0.22813 0.11912 0.07716 0.0
C1426 C 0.23778 0.13018 0.09006 0.0
C1427 C 0.24761 0.13623 0.06155 0.0
C1428 C 0.238 0.1354 0.13381 0.0
C1429 C 0.21707 0.11253 0.10539 0.0
C1430 C 0.23877 0.14653 0.13642 0.0
C1431 C 0.2389 0.15135 0.17796 0.0
C1432 C 0.23834 0.14514 0.21757 0.0
C1433 C 0.23778 0.13407 0.2146 0.0
C1434 C 0.23765 0.12928 0.17318 0.0
H1435 H 0.2094 0.10612 0.08543 0.0
H1436 H 0.21852 0.10744 0.13216 0.0
H1437 H 0.21484 0.11881 0.1213 0.0
H1438 H 0.23914 0.15142 0.10631 0.0
H1439 H 0.23937 0.1599 0.179 0.0
H1440 H 0.82966 0.08025 0.16032 0.0
H1441 H 0.84224 0.09316 0.09973 0.0
H1442 H 0.86838 0.11572 0.19489 0.0
H1443 H 0.85594 0.10265 0.25584 0.0
H1444 H 0.8512 0.11674 0.08052 0.0
H1445 H 0.88742 0.10717 0.1124 0.0
H1446 H 0.8731 0.09874 0.13882 0.0
H1447 H 0.88365 0.11326 0.15864 0.0
C1448 C 0.83805 0.088 0.16845 0.0
C1449 C 0.84185 0.09039 0.21281 0.0
C1450 C 0.84522 0.09537 0.13377 0.0
C1451 C 0.85632 0.10527 0.14277 0.0
C1452 C 0.85996 0.10796 0.18717 0.0
H1453 H 0.89544 0.15468 0.92082 0.0
H1454 H 0.88619 0.14712 0.99396 0.0
C1455 C 0.85282 0.10053 0.22193 0.0
C1456 C 0.8641 0.11253 0.10528 0.0
H1457 H 0.89023 0.1204 0.05294 0.0
C1458 C 0.85978 0.11763 0.07461 0.0
C1459 C 0.87524 0.11357 0.09758 0.0
C1460 C 0.88012 0.10782 0.12832 0.0
C1461 C 0.86614 0.12348 0.03573 0.0
C1462 C 0.87727 0.1245 0.02795 0.0
C1463 C 0.88174 0.11967 0.05923 0.0
C1464 C 0.88391 0.12959 0.98575 0.0
C1465 C 0.86063 0.128 0.00239 0.0
C1466 C 0.8862 0.12242 0.95782 0.0
C1467 C 0.89163 0.12674 0.91633 0.0
C1468 C 0.89484 0.13833 0.90188 0.0
C1469 C 0.89295 0.14566 0.93071 0.0
C1470 C 0.88761 0.14135 0.97243 0.0
H1471 H 0.851 0.12412 0.00861 0.0
H1472 H 0.86489 0.13782 0.00486 0.0
H1473 H 0.86191 0.1259 0.96783 0.0
H1474 H 0.88346 0.11332 0.96757 0.0
H1475 H 0.89296 0.12086 0.89506 0.0
H1476 H 0.73089 0.89725 0.35345 0.0
H1477 H 0.73452 0.88719 0.41541 0.0
H1478 H 0.75119 0.87445 0.32542 0.0
H1479 H 0.74726 0.88421 0.26277 0.0
H1480 H 0.73775 0.85771 0.39001 0.0
H1481 H 0.7676 0.90133 0.46574 0.0
H1482 H 0.75305 0.89897 0.4568 0.0
H1483 H 0.76208 0.9 0.40979 0.0
C1484 C 0.73515 0.89215 0.3466 0.0
C1485 C 0.73888 0.89163 0.30322 0.0
C1486 C 0.7373 0.88648 0.38215 0.0
C1487 C 0.74342 0.88037 0.37515 0.0
C1488 C 0.74656 0.87923 0.33156 0.0
H1489 H 0.77691 0.86744 0.60334 0.0
H1490 H 0.77359 0.87323 0.52922 0.0
C1491 C 0.74429 0.8848 0.29582 0.0
C1492 C 0.74703 0.8757 0.41364 0.0
H1493 H 0.76192 0.88415 0.51182 0.0
C1494 C 0.74311 0.86348 0.41653 0.0
C1495 C 0.75431 0.8833 0.44756 0.0
C1496 C 0.75962 0.89665 0.44467 0.0
C1497 C 0.74587 0.85858 0.45348 0.0
C1498 C 0.75246 0.86609 0.48885 0.0
C1499 C 0.75676 0.87837 0.48498 0.0
C1500 C 0.75462 0.86144 0.53113 0.0
C1501 C 0.74175 0.84546 0.45401 0.0
C1502 C 0.74509 0.85279 0.55668 0.0
C1503 C 0.74697 0.84936 0.5988 0.0
C1504 C 0.75842 0.8547 0.61665 0.0
C1505 C 0.76799 0.8632 0.59066 0.0
C1506 C 0.7661 0.8665 0.54826 0.0
H1507 H 0.74068 0.84202 0.41962 0.0
H1508 H 0.74802 0.84356 0.47209 0.0
H1509 H 0.733 0.84051 0.47093 0.0
H1510 H 0.73611 0.849 0.54484 0.0
H1511 H 0.73939 0.84286 0.61805 0.0
H1512 H 0.12403 0.87656 0.26646 0.0
H1513 H 0.12708 0.88376 0.34247 0.0
H1514 H 0.09186 0.85606 0.37879 0.0
H1515 H 0.08865 0.84868 0.30222 0.0
H1516 H 0.11258 0.89129 0.39141 0.0
H1517 H 0.11442 0.85336 0.47219 0.0
H1518 H 0.11669 0.85631 0.41291 0.0
H1519 H 0.10216 0.85018 0.4365 0.0
C1520 C 0.1169 0.87193 0.29044 0.0
C1521 C 0.10609 0.86199 0.27807 0.0
C1522 C 0.11866 0.8761 0.33393 0.0
C1523 C 0.10973 0.87043 0.36626 0.0
C1524 C 0.09891 0.86051 0.35435 0.0
H1525 H 0.1269 0.89079 0.64777 0.0
H1526 H 0.11423 0.88134 0.58309 0.0
C1527 C 0.09709 0.85632 0.31057 0.0
C1528 C 0.11197 0.87507 0.4122 0.0
H1529 H 0.11962 0.8701 0.51571 0.0
C1530 C 0.11391 0.88658 0.41887 0.0
C1531 C 0.11358 0.86885 0.44804 0.0
C1532 C 0.11167 0.8565 0.4424 0.0
C1533 C 0.11801 0.89227 0.45977 0.0
C1534 C 0.12046 0.8864 0.4946 0.0
C1535 C 0.11776 0.87459 0.48894 0.0
C1536 C 0.12735 0.89288 0.53426 0.0
C1537 C 0.12002 0.90468 0.46486 0.0
C1538 C 0.13886 0.90253 0.52827 0.0
C1539 C 0.14608 0.90788 0.56486 0.0
C1540 C 0.14198 0.90369 0.60845 0.0
C1541 C 0.13028 0.8943 0.61465 0.0
C1542 C 0.12305 0.88886 0.57776 0.0
H1543 H 0.11405 0.90619 0.44293 0.0
H1544 H 0.11861 0.90635 0.49989 0.0
H1545 H 0.12925 0.91126 0.45494 0.0
H1546 H 0.14246 0.90563 0.49506 0.0
H1547 H 0.15504 0.91508 0.55884 0.0
H1548 H 0.0918 0.22045 0.61415 0.0
H1549 H 0.10307 0.22347 0.54551 0.0
H1550 H 0.1071 0.25828 0.5276 0.0
H1551 H 0.09595 0.25545 0.59644 0.0
H1552 H 0.09943 0.22847 0.458 0.0
H1553 H 0.14133 0.26499 0.52565 0.0
H1554 H 0.12878 0.25534 0.56066 0.0
H1555 H 0.12904 0.26743 0.52977 0.0
C1556 C 0.09497 0.22872 0.59547 0.0
C1557 C 0.09305 0.23776 0.61112 0.0
C1558 C 0.10144 0.23043 0.55629 0.0
C1559 C 0.10614 0.2412 0.53213 0.0
C1560 C 0.10378 0.25002 0.54642 0.0
H1561 H 0.13282 0.25672 0.26359 0.0
H1562 H 0.12243 0.25379 0.3341 0.0
C1563 C 0.09731 0.24833 0.58559 0.0
C1564 C 0.11356 0.24323 0.49208 0.0
H1565 H 0.14111 0.26144 0.44795 0.0
C1566 C 0.10855 0.23565 0.45584 0.0
C1567 C 0.12553 0.25246 0.48975 0.0
C1568 C 0.13155 0.26046 0.52866 0.0
C1569 C 0.11509 0.23727 0.41672 0.0
C1570 C 0.12689 0.24683 0.41364 0.0
C1571 C 0.13203 0.25419 0.45034 0.0
C1572 C 0.13386 0.24948 0.37195 0.0
C1573 C 0.10933 0.22871 0.37903 0.0
C1574 C 0.14406 0.24854 0.37035 0.0
C1575 C 0.15012 0.25027 0.32992 0.0
C1576 C 0.14605 0.253 0.29059 0.0
C1577 C 0.13614 0.25447 0.29303 0.0
C1578 C 0.13014 0.25276 0.33328 0.0
H1579 H 0.10155 0.22023 0.39076 0.0
H1580 H 0.10626 0.23282 0.35367 0.0
H1581 H 0.1157 0.22668 0.36266 0.0
H1582 H 0.14712 0.24611 0.40007 0.0
H1583 H 0.15773 0.2491 0.32924 0.0
H1584 H 0.84915 0.5865 0.35909 0.0
H1585 H 0.84342 0.58791 0.28223 0.0
H1586 H 0.80667 0.56723 0.32061 0.0
H1587 H 0.81228 0.56587 0.39712 0.0
H1588 H 0.81487 0.56308 0.22732 0.0
H1589 H 0.82694 0.60945 0.27071 0.0
H1590 H 0.83716 0.60426 0.28091 0.0
H1591 H 0.82394 0.59846 0.31395 0.0
C1592 C 0.83986 0.58199 0.35076 0.0
C1593 C 0.83113 0.57621 0.38402 0.0
C1594 C 0.83662 0.5828 0.30697 0.0
C1595 C 0.82465 0.5777 0.2961 0.0
C1596 C 0.81596 0.57117 0.32851 0.0
H1597 H 0.76918 0.57039 0.14913 0.0
H1598 H 0.78446 0.56776 0.18412 0.0
C1599 C 0.81917 0.57047 0.3722 0.0
C1600 C 0.82095 0.58053 0.25352 0.0
H1601 H 0.81445 0.60086 0.2101 0.0
C1602 C 0.81504 0.57146 0.22262 0.0
C1603 C 0.82134 0.59151 0.24745 0.0
C1604 C 0.82766 0.60153 0.27986 0.0
C1605 C 0.80876 0.5728 0.18733 0.0
C1606 C 0.80809 0.58331 0.18407 0.0
C1607 C 0.81489 0.59277 0.21272 0.0
C1608 C 0.79909 0.58406 0.15655 0.0
C1609 C 0.80257 0.56277 0.15496 0.0
C1610 C 0.80216 0.59419 0.12986 0.0
C1611 C 0.79338 0.59586 0.11065 0.0
C1612 C 0.78138 0.58739 0.11769 0.0
C1613 C 0.77834 0.57703 0.14284 0.0
C1614 C 0.78711 0.57544 0.16243 0.0
H1615 H 0.80772 0.55823 0.14967 0.0
H1616 H 0.79384 0.55605 0.16905 0.0
H1617 H 0.80121 0.56598 0.12221 0.0
H1618 H 0.81135 0.60102 0.12522 0.0
H1619 H 0.79597 0.6039 0.09118 0.0
H1620 H 0.43402 0.19994 0.13979 0.0
H1621 H 0.43854 0.21783 0.18049 0.0
H1622 H 0.40135 0.20578 0.19084 0.0
H1623 H 0.39676 0.18808 0.14849 0.0
H1624 H 0.41509 0.23037 0.17911 0.0
H1625 H 0.43278 0.21394 0.31386 0.0
H1626 H 0.44006 0.21655 0.26078 0.0
H1627 H 0.42488 0.20494 0.26701 0.0
C1628 C 0.4268 0.20118 0.14989 0.0
C1629 C 0.41501 0.1925 0.14136 0.0
C1630 C 0.42941 0.21141 0.17336 0.0
C1631 C 0.42027 0.21299 0.18957 0.0
C1632 C 0.40854 0.20471 0.17878 0.0
H1633 H 0.40223 0.24417 0.39217 0.0
H1634 H 0.40446 0.23715 0.32005 0.0
C1635 C 0.40593 0.19456 0.15473 0.0
C1636 C 0.42273 0.22253 0.22146 0.0
H1637 H 0.43217 0.23124 0.32751 0.0
C1638 C 0.41896 0.23067 0.21138 0.0
C1639 C 0.42779 0.22291 0.26354 0.0
C1640 C 0.43153 0.21408 0.27726 0.0
C1641 C 0.41981 0.23896 0.24283 0.0
C1642 C 0.42443 0.23899 0.28544 0.0
C1643 C 0.42872 0.23125 0.29466 0.0
C1644 C 0.42352 0.2457 0.32314 0.0
C1645 C 0.41555 0.24744 0.23049 0.0
C1646 C 0.43352 0.25307 0.34854 0.0
C1647 C 0.43226 0.25702 0.39015 0.0
C1648 C 0.42096 0.25355 0.40719 0.0
C1649 C 0.41106 0.24694 0.38015 0.0
C1650 C 0.41232 0.24302 0.33859 0.0
H1651 H 0.41622 0.2492 0.19393 0.0
H1652 H 0.40612 0.24339 0.24033 0.0
H1653 H 0.42068 0.25604 0.24785 0.0
H1654 H 0.44223 0.25518 0.33731 0.0
H1655 H 0.44008 0.26215 0.41004 0.0
H1656 H 0.8431 0.22456 0.11761 0.0
H1657 H 0.82788 0.20939 0.16629 0.0
H1658 H 0.80228 0.20005 0.06147 0.0
H1659 H 0.81763 0.21535 0.01266 0.0
H1660 H 0.79696 0.20841 0.1346 0.0
H1661 H 0.80719 0.17387 0.1888 0.0
H1662 H 0.81997 0.18847 0.192 0.0
H1663 H 0.81343 0.18277 0.13858 0.0
C1664 C 0.83439 0.21876 0.10416 0.0
C1665 C 0.83154 0.2209 0.06132 0.0
C1666 C 0.82567 0.21009 0.13201 0.0
C1667 C 0.81394 0.2035 0.11748 0.0
C1668 C 0.81131 0.20493 0.07317 0.0
H1669 H 0.75969 0.16472 0.32578 0.0
H1670 H 0.77026 0.16894 0.25434 0.0
C1671 C 0.82008 0.21358 0.04517 0.0
C1672 C 0.80434 0.19731 0.15108 0.0
H1673 H 0.79617 0.17864 0.24206 0.0
C1674 C 0.79659 0.20166 0.15736 0.0
C1675 C 0.80382 0.18851 0.18082 0.0
C1676 C 0.81148 0.18305 0.17442 0.0
C1677 C 0.78892 0.19807 0.19427 0.0
C1678 C 0.78909 0.18999 0.22585 0.0
C1679 C 0.79621 0.18498 0.21804 0.0
C1680 C 0.78259 0.18738 0.26868 0.0
C1681 C 0.781 0.20326 0.20012 0.0
C1682 C 0.7861 0.19636 0.30033 0.0
C1683 C 0.78014 0.19399 0.34116 0.0
C1684 C 0.77053 0.18259 0.35098 0.0
C1685 C 0.76701 0.17362 0.31907 0.0
C1686 C 0.77305 0.17598 0.27835 0.0
H1687 H 0.77974 0.2069 0.16818 0.0
H1688 H 0.77221 0.19644 0.21357 0.0
H1689 H 0.78507 0.21063 0.22422 0.0
H1690 H 0.79352 0.2052 0.29353 0.0
H1691 H 0.78305 0.20108 0.36497 0.0
H1692 H 0.89463 0.47446 0.75532 0.0
H1693 H 0.89813 0.46773 0.82716 0.0
H1694 H 0.92296 0.50407 0.86121 0.0
H1695 H 0.91938 0.51092 0.78934 0.0
H1696 H 0.93151 0.48699 0.86132 0.0
H1697 H 0.8904 0.47104 0.96038 0.0
H1698 H 0.88794 0.46663 0.90308 0.0
H1699 H 0.89486 0.48215 0.91623 0.0
C1700 C 0.90061 0.48104 0.77857 0.0
C1701 C 0.90675 0.49319 0.76686 0.0
C1702 C 0.90255 0.4772 0.81963 0.0
C1703 C 0.91072 0.48543 0.84946 0.0
C1704 C 0.91653 0.49762 0.83869 0.0
H1705 H 0.93825 0.45654 0.05591 0.0
H1706 H 0.93633 0.47179 0.01362 0.0
C1707 C 0.91445 0.5015 0.79778 0.0
C1708 C 0.91419 0.48099 0.88871 0.0
H1709 H 0.90234 0.46235 0.9788 0.0
C1710 C 0.9253 0.48186 0.88786 0.0
C1711 C 0.90603 0.47435 0.923 0.0
C1712 C 0.89417 0.47356 0.92611 0.0
C1713 C 0.92806 0.47534 0.91824 0.0
C1714 C 0.91955 0.46801 0.95072 0.0
C1715 C 0.90881 0.46793 0.95367 0.0
C1716 C 0.92084 0.45911 0.97755 0.0
C1717 C 0.93966 0.47561 0.9131 0.0
C1718 C 0.91269 0.447 0.97166 0.0
C1719 C 0.9137 0.43835 0.99587 0.0
C1720 C 0.9229 0.44163 0.02642 0.0
C1721 C 0.93113 0.45377 0.03225 0.0
C1722 C 0.93005 0.46248 0.00816 0.0
H1723 H 0.94439 0.48025 0.88181 0.0
H1724 H 0.94545 0.48037 0.94156 0.0
H1725 H 0.9382 0.46643 0.91325 0.0
H1726 H 0.90557 0.44422 0.94798 0.0
H1727 H 0.90728 0.42907 0.99042 0.0
H1728 H 0.56546 0.46615 0.00664 0.0
H1729 H 0.55049 0.44904 0.96612 0.0
H1730 H 0.52334 0.45497 0.01914 0.0
H1731 H 0.53833 0.47232 0.05905 0.0
H1732 H 0.52929 0.42775 0.98704 0.0
H1733 H 0.52164 0.45936 0.88491 0.0
H1734 H 0.53384 0.46438 0.92286 0.0
H1735 H 0.51916 0.45923 0.94384 0.0
C1736 C 0.55629 0.46372 0.01028 0.0
C1737 C 0.55309 0.4707 0.03538 0.0
C1738 C 0.54774 0.4539 0.98723 0.0
C1739 C 0.53585 0.45088 0.98904 0.0
C1740 C 0.53251 0.45731 0.01668 0.0
H1741 H 0.48653 0.41087 0.77915 0.0
H1742 H 0.49258 0.41828 0.85454 0.0
C1743 C 0.54108 0.46721 0.03944 0.0
C1744 C 0.52733 0.44191 0.95809 0.0
H1745 H 0.51201 0.43955 0.86328 0.0
C1746 C 0.52534 0.43025 0.96033 0.0
C1747 C 0.52219 0.44521 0.92332 0.0
C1748 C 0.52435 0.45773 0.91816 0.0
C1749 C 0.51867 0.4219 0.92774 0.0
C1750 C 0.51405 0.4254 0.89183 0.0
C1751 C 0.51552 0.43686 0.89099 0.0
C1752 C 0.50896 0.41805 0.85177 0.0
C1753 C 0.51683 0.40951 0.93164 0.0
C1754 C 0.51596 0.41504 0.8258 0.0
C1755 C 0.51251 0.41078 0.78272 0.0
C1756 C 0.50209 0.40962 0.76465 0.0
C1757 C 0.49467 0.41177 0.79195 0.0
C1758 C 0.49809 0.41597 0.83511 0.0
H1759 H 0.51697 0.40695 0.96706 0.0
H1760 H 0.50833 0.40283 0.91668 0.0
H1761 H 0.52413 0.40925 0.9139 0.0
H1762 H 0.5245 0.41681 0.83748 0.0
H1763 H 0.51842 0.40918 0.76261 0.0
H1764 H 0.58489 0.11045 0.77311 0.0
H1765 H 0.5761 0.10677 0.84761 0.0
H1766 H 0.59087 0.08458 0.88056 0.0
H1767 H 0.59992 0.08842 0.80591 0.0
H1768 H 0.56505 0.07378 0.88658 0.0
H1769 H 0.58892 0.11608 0.97785 0.0
H1770 H 0.58589 0.11795 0.92081 0.0
H1771 H 0.59561 0.1123 0.93302 0.0
C1772 C 0.58654 0.10505 0.79664 0.0
C1773 C 0.59305 0.0997 0.78388 0.0
C1774 C 0.58158 0.10302 0.83923 0.0
C1775 C 0.58296 0.09551 0.8696 0.0
C1776 C 0.58986 0.09053 0.85766 0.0
H1777 H 0.52729 0.06372 0.07796 0.0
H1778 H 0.54552 0.0678 0.03947 0.0
C1779 C 0.59502 0.09274 0.81515 0.0
C1780 C 0.57566 0.0916 0.91059 0.0
H1781 H 0.5686 0.10281 -0.00036 0.0
C1782 C 0.56596 0.07997 0.91224 0.0
C1783 C 0.57695 0.09975 0.94369 0.0
C1784 C 0.58747 0.1122 0.94411 0.0
C1785 C 0.55685 0.07661 0.94369 0.0
C1786 C 0.5577 0.08506 0.9749 0.0
C1787 C 0.56794 0.09637 0.97555 0.0
C1788 C 0.5474 0.08304 0.00204 0.0
C1789 C 0.54597 0.06441 0.94068 0.0
C1790 C 0.54268 0.09049 0.99492 0.0
C1791 C 0.53242 0.08828 0.01713 0.0
C1792 C 0.52663 0.07853 0.0468 0.0
C1793 C 0.53151 0.07122 0.05486 0.0
C1794 C 0.54189 0.07352 0.03287 0.0
H1795 H 0.54594 0.05975 0.90991 0.0
H1796 H 0.54562 0.05886 0.96976 0.0
H1797 H 0.53784 0.06506 0.94125 0.0
H1798 H 0.54676 0.09786 0.97115 0.0
H1799 H 0.52887 0.09406 0.01009 0.0
H1800 H 0.54145 0.10926 0.2086 0.0
H1801 H 0.55152 0.10976 0.27775 0.0
H1802 H 0.52185 0.07585 0.31838 0.0
H1803 H 0.51173 0.07517 0.24912 0.0
H1804 H 0.54484 0.10903 0.36623 0.0
H1805 H 0.54991 0.07023 0.32778 0.0
H1806 H 0.54588 0.0777 0.28617 0.0
H1807 H 0.53495 0.0672 0.32474 0.0
C1808 C 0.53701 0.10192 0.23228 0.0
C1809 C 0.52579 0.09213 0.22305 0.0
C1810 C 0.54281 0.10222 0.27177 0.0
C1811 C 0.53754 0.09273 0.30272 0.0
C1812 C 0.52619 0.08314 0.29442 0.0
H1813 H 0.5544 0.09083 0.57839 0.0
H1814 H 0.54578 0.09103 0.50672 0.0
C1815 C 0.52037 0.08282 0.25493 0.0
C1816 C 0.54389 0.09292 0.34385 0.0
H1817 H 0.55461 0.07759 0.40164 0.0
C1818 C 0.54703 0.10219 0.37389 0.0
C1819 C 0.54692 0.0841 0.35337 0.0
C1820 C 0.54435 0.0743 0.32116 0.0
C1821 C 0.55281 0.10268 0.41387 0.0
C1822 C 0.55535 0.09357 0.42432 0.0
C1823 C 0.55254 0.0845 0.39369 0.0
C1824 C 0.56059 0.09312 0.46757 0.0
C1825 C 0.55619 0.11299 0.44451 0.0
C1826 C 0.57163 0.09384 0.46928 0.0
C1827 C 0.57662 0.09368 0.51041 0.0
C1828 C 0.57058 0.09271 0.55048 0.0
C1829 C 0.55937 0.09169 0.54834 0.0
C1830 C 0.55443 0.09186 0.50736 0.0
H1831 H 0.55661 0.12073 0.4265 0.0
H1832 H 0.54944 0.11018 0.4714 0.0
H1833 H 0.56487 0.11589 0.46022 0.0
H1834 H 0.57648 0.09473 0.43883 0.0
H1835 H 0.58524 0.09444 0.51078 0.0
H1836 H 0.89288 0.43665 0.18093 0.0
H1837 H 0.89309 0.44786 0.24589 0.0
H1838 H 0.92229 0.44541 0.30001 0.0
H1839 H 0.92228 0.43435 0.235 0.0
H1840 H 0.88986 0.44084 0.33414 0.0
H1841 H 0.93392 0.48098 0.30758 0.0
H1842 H 0.92638 0.47022 0.26454 0.0
H1843 H 0.93433 0.46739 0.30732 0.0
C1844 C 0.89937 0.43851 0.20654 0.0
C1845 C 0.90759 0.43462 0.20262 0.0
C1846 C 0.89949 0.44494 0.2436 0.0
C1847 C 0.90785 0.44766 0.27728 0.0
C1848 C 0.91595 0.44366 0.27382 0.0
H1849 H 0.90715 0.46219 0.55136 0.0
H1850 H 0.90612 0.45434 0.47741 0.0
C1851 C 0.91586 0.43724 0.23678 0.0
C1852 C 0.90775 0.45419 0.31712 0.0
H1853 H 0.92524 0.4784 0.38027 0.0
C1854 C 0.89754 0.44913 0.34396 0.0
C1855 C 0.91772 0.4651 0.32943 0.0
C1856 C 0.92867 0.47132 0.30047 0.0
C1857 C 0.89722 0.4544 0.38394 0.0
C1858 C 0.90744 0.46489 0.39766 0.0
C1859 C 0.91746 0.47028 0.36981 0.0
C1860 C 0.90814 0.4699 0.44222 0.0
C1861 C 0.886 0.4486 0.41146 0.0
C1862 C 0.90995 0.48142 0.4469 0.0
C1863 C 0.91059 0.48602 0.48939 0.0
C1864 C 0.90953 0.47917 0.52779 0.0
C1865 C 0.90793 0.46771 0.52267 0.0
C1866 C 0.90727 0.46315 0.48037 0.0
H1867 H 0.87816 0.44288 0.39081 0.0
H1868 H 0.88664 0.44288 0.43782 0.0
H1869 H 0.88458 0.45538 0.42787 0.0
H1870 H 0.91075 0.4868 0.41771 0.0
H1871 H 0.91187 0.49488 0.49213 0.0
H1872 H 0.50015 0.42736 0.47883 0.0
H1873 H 0.51365 0.43829 0.41727 0.0
H1874 H 0.54317 0.45176 0.50712 0.0
H1875 H 0.52962 0.44119 0.5694 0.0
H1876 H 0.5459 0.4686 0.44724 0.0
H1877 H 0.53384 0.42688 0.35994 0.0
H1878 H 0.52117 0.42835 0.37025 0.0
H1879 H 0.52921 0.42697 0.41646 0.0
C1880 C 0.50948 0.43276 0.4857 0.0
C1881 C 0.51381 0.43333 0.52897 0.0
C1882 C 0.51721 0.43892 0.45035 0.0
C1883 C 0.52945 0.44555 0.45738 0.0
C1884 C 0.53377 0.4466 0.50088 0.0
H1885 H 0.57552 0.46421 0.22346 0.0
H1886 H 0.56676 0.45673 0.29737 0.0
C1887 C 0.52601 0.44056 0.53643 0.0
C1888 C 0.53771 0.4511 0.41908 0.0
H1889 H 0.54449 0.44491 0.31693 0.0
C1890 C 0.54569 0.46342 0.41889 0.0
C1891 C 0.53768 0.44429 0.3827 0.0
C1892 C 0.53011 0.43088 0.3825 0.0
C1893 C 0.55327 0.46919 0.38235 0.0
C1894 C 0.55258 0.46249 0.34452 0.0
C1895 C 0.54495 0.4501 0.34563 0.0
C1896 C 0.55918 0.46811 0.3025 0.0
C1897 C 0.56197 0.48236 0.38493 0.0
C1898 C 0.55797 0.47708 0.28097 0.0
C1899 C 0.56311 0.48149 0.23909 0.0
C1900 C 0.56934 0.47681 0.21735 0.0
C1901 C 0.57074 0.46797 0.23925 0.0
C1902 C 0.56574 0.4637 0.2815 0.0
H1903 H 0.56442 0.48511 0.42003 0.0
H1904 H 0.57015 0.48493 0.3655 0.0
H1905 H 0.55783 0.48737 0.37134 0.0
H1906 H 0.55265 0.48038 0.29571 0.0
H1907 H 0.56176 0.48822 0.22299 0.0
H1908 H 0.40308 0.23702 0.6955 0.0
H1909 H 0.40434 0.22527 0.75716 0.0
H1910 H 0.40496 0.20067 0.66394 0.0
H1911 H 0.40398 0.21257 0.60177 0.0
H1912 H 0.39066 0.20215 0.78524 0.0
H1913 H 0.43523 0.21133 0.7331 0.0
H1914 H 0.42836 0.21906 0.70864 0.0
H1915 H 0.42392 0.20416 0.69206 0.0
C1916 C 0.40334 0.22904 0.68804 0.0
C1917 C 0.40354 0.22578 0.64373 0.0
C1918 C 0.40407 0.22233 0.72336 0.0
C1919 C 0.40499 0.21224 0.7151 0.0
C1920 C 0.40455 0.20859 0.671 0.0
H1921 H 0.40231 0.16735 0.94219 0.0
H1922 H 0.39824 0.17366 0.87042 0.0
C1923 C 0.4039 0.21535 0.63555 0.0
C1924 C 0.40685 0.20589 0.75285 0.0
H1925 H 0.42692 0.19933 0.79749 0.0
C1926 C 0.39854 0.20144 0.78782 0.0
C1927 C 0.41722 0.20512 0.75628 0.0
C1928 C 0.42676 0.21025 0.72077 0.0
C1929 C 0.40041 0.19646 0.8266 0.0
C1930 C 0.41076 0.19565 0.82999 0.0
C1931 C 0.41896 0.19988 0.79461 0.0
C1932 C 0.41368 0.19132 0.87133 0.0
C1933 C 0.39154 0.19261 0.86434 0.0
C1934 C 0.424 0.19895 0.89461 0.0
C1935 C 0.42645 0.19533 0.93532 0.0
C1936 C 0.41859 0.184 0.95364 0.0
C1937 C 0.40849 0.17619 0.92931 0.0
C1938 C 0.4061 0.1798 0.88839 0.0
H1939 H 0.38564 0.19639 0.86056 0.0
H1940 H 0.38593 0.18276 0.8648 0.0
H1941 H 0.39605 0.19536 0.89697 0.0
H1942 H 0.43 0.20786 0.88192 0.0
H1943 H 0.43431 0.20156 0.95303 0.0
H1944 H 0.75994 0.18224 0.62449 0.0
H1945 H 0.76361 0.18989 0.70061 0.0
H1946 H 0.79735 0.21931 0.65835 0.0
H1947 H 0.79381 0.21184 0.58264 0.0
H1948 H 0.78285 0.19418 0.75662 0.0
H1949 H 0.78177 0.23558 0.7234 0.0
H1950 H 0.77565 0.22326 0.68548 0.0
H1951 H 0.79129 0.23372 0.68549 0.0
C1952 C 0.76812 0.19037 0.63135 0.0
C1953 C 0.77656 0.19643 0.5973 0.0
C1954 C 0.77019 0.19472 0.67485 0.0
C1955 C 0.78065 0.20528 0.68489 0.0
C1956 C 0.7891 0.21129 0.65111 0.0
H1957 H 0.82538 0.2474 0.88656 0.0
H1958 H 0.8137 0.23834 0.82033 0.0
C1959 C 0.78709 0.20694 0.60783 0.0
C1960 C 0.78315 0.20986 0.73094 0.0
H1961 H 0.7917 0.23509 0.79023 0.0
C1962 C 0.78454 0.20301 0.76439 0.0
C1963 C 0.78528 0.22137 0.74093 0.0
C1964 C 0.78331 0.22887 0.70704 0.0
C1965 C 0.78883 0.20771 0.80668 0.0
C1966 C 0.79161 0.21949 0.8158 0.0
C1967 C 0.78958 0.22607 0.78312 0.0
C1968 C 0.79799 0.22561 0.85673 0.0
C1969 C 0.79106 0.20032 0.84027 0.0
C1970 C 0.7929 0.22171 0.89931 0.0
C1971 C 0.79958 0.22691 0.93754 0.0
C1972 C 0.81146 0.23608 0.93367 0.0
C1973 C 0.81629 0.24031 0.89086 0.0
C1974 C 0.80962 0.23516 0.85288 0.0
H1975 H 0.79011 0.1921 0.82556 0.0
H1976 H 0.80008 0.20558 0.85421 0.0
H1977 H 0.78463 0.19768 0.86824 0.0
H1978 H 0.78386 0.21447 0.90297 0.0
H1979 H 0.79559 0.22344 0.96999 0.0
H1980 H 0.76061 0.56007 0.93287 0.0
H1981 H 0.7707 0.56228 0.86176 0.0
H1982 H 0.78566 0.60037 0.86568 0.0
H1983 H 0.7752 0.59818 0.93572 0.0
H1984 H 0.77912 0.59304 0.78463 0.0
H1985 H 0.80494 0.57299 0.84793 0.0
H1986 H 0.78935 0.56291 0.85353 0.0
H1987 H 0.79623 0.57656 0.88418 0.0
C1988 C 0.76598 0.56891 0.9184 0.0
C1989 C 0.76716 0.57895 0.94006 0.0
C1990 C 0.77184 0.57017 0.87797 0.0
C1991 C 0.77923 0.58153 0.85901 0.0
C1992 C 0.78009 0.59153 0.87983 0.0
H1993 H 0.83072 0.59322 0.64945 0.0
H1994 H 0.82143 0.59334 0.72024 0.0
C1995 C 0.77408 0.59025 0.91984 0.0
C1996 C 0.78603 0.58301 0.81743 0.0
H1997 H 0.80511 0.57579 0.76897 0.0
C1998 C 0.78487 0.58934 0.78134 0.0
C1999 C 0.79378 0.57845 0.81341 0.0
C2000 C 0.79626 0.57247 0.85201 0.0
C2001 C 0.79096 0.59094 0.74101 0.0
C2002 C 0.7981 0.58571 0.73604 0.0
C2003 C 0.79953 0.57968 0.77253 0.0
C2004 C 0.80386 0.58606 0.69296 0.0
C2005 C 0.78981 0.5984 0.7045 0.0
C2006 C 0.79708 0.58181 0.65426 0.0
C2007 C 0.80238 0.58191 0.61382 0.0
C2008 C 0.81456 0.586 0.61132 0.0
C2009 C 0.82133 0.59005 0.65026 0.0
C2010 C 0.81603 0.59011 0.6907 0.0
H2011 H 0.78769 0.60498 0.71839 0.0
H2012 H 0.79806 0.60327 0.6843 0.0
H2013 H 0.78248 0.59252 0.68219 0.0
H2014 H 0.78762 0.57825 0.65538 0.0
H2015 H 0.79685 0.57855 0.58465 0.0
H2016 H 0.43213 0.89488 0.42938 0.0
H2017 H 0.44649 0.89105 0.46683 0.0
H2018 H 0.46609 0.92778 0.50652 0.0
H2019 H 0.45212 0.93175 0.46738 0.0
H2020 H 0.48076 0.91986 0.48631 0.0
H2021 H 0.44491 0.88697 0.59928 0.0
H2022 H 0.4433 0.8835 0.54115 0.0
H2023 H 0.44247 0.89611 0.56006 0.0
C2024 C 0.43954 0.90214 0.44581 0.0
C2025 C 0.44088 0.91356 0.44622 0.0
C2026 C 0.44774 0.89994 0.46724 0.0
C2027 C 0.4572 0.90905 0.49045 0.0
C2028 C 0.45885 0.92059 0.4889 0.0
H2029 H 0.4929 0.92762 0.71645 0.0
H2030 H 0.48474 0.92467 0.64152 0.0
C2031 C 0.45082 0.92285 0.46671 0.0
C2032 C 0.46485 0.90661 0.51978 0.0
H2033 H 0.46429 0.89332 0.61949 0.0
C2034 C 0.47716 0.91382 0.51484 0.0
C2035 C 0.46014 0.89867 0.55694 0.0
C2036 C 0.447 0.89092 0.56506 0.0
C2037 C 0.48482 0.9141 0.54806 0.0
C2038 C 0.48002 0.90687 0.58657 0.0
C2039 C 0.46786 0.89879 0.58952 0.0
C2040 C 0.48682 0.90953 0.62803 0.0
C2041 C 0.49789 0.92276 0.54363 0.0
C2042 C 0.49083 0.90207 0.64469 0.0
C2043 C 0.49564 0.90385 0.68752 0.0
C2044 C 0.49611 0.91286 0.71418 0.0
C2045 C 0.49244 0.92051 0.69673 0.0
C2046 C 0.4879 0.91891 0.65387 0.0
H2047 H 0.50053 0.92578 0.5085 0.0
H2048 H 0.50023 0.93068 0.56407 0.0
H2049 H 0.50302 0.91866 0.55625 0.0
H2050 H 0.48991 0.89471 0.6252 0.0
H2051 H 0.49843 0.89786 0.7006 0.0
H2052 H 0.09775 0.56332 0.77007 0.0
H2053 H 0.09784 0.55766 0.69368 0.0
H2054 H 0.08379 0.57983 0.6502 0.0
H2055 H 0.08296 0.58495 0.72795 0.0
H2056 H 0.07182 0.56036 0.61408 0.0
H2057 H 0.1171 0.57053 0.58625 0.0
H2058 H 0.11253 0.56207 0.63725 0.0
H2059 H 0.1133 0.57635 0.63364 0.0
C2060 C 0.09493 0.56723 0.74424 0.0
C2061 C 0.09031 0.57455 0.75504 0.0
C2062 C 0.09512 0.56409 0.70022 0.0
C2063 C 0.09109 0.56852 0.66563 0.0
C2064 C 0.08701 0.57634 0.67613 0.0
H2065 H 0.09038 0.52613 0.44228 0.0
H2066 H 0.09505 0.54482 0.47778 0.0
C2067 C 0.08655 0.57927 0.72053 0.0
C2068 C 0.08959 0.5635 0.6203 0.0
H2069 H 0.10156 0.55133 0.55358 0.0
C2070 C 0.07847 0.55871 0.60005 0.0
C2071 C 0.09834 0.56175 0.60012 0.0
C2072 C 0.11101 0.56812 0.61533 0.0
C2073 C 0.07547 0.55105 0.56382 0.0
C2074 C 0.08353 0.54757 0.54917 0.0
C2075 C 0.09512 0.55354 0.56568 0.0
C2076 C 0.07977 0.53678 0.52192 0.0
C2077 C 0.06355 0.54655 0.54265 0.0
C2078 C 0.06952 0.52603 0.53407 0.0
C2079 C 0.0667 0.51546 0.51289 0.0
C2080 C 0.07432 0.51532 0.48052 0.0
C2081 C 0.08446 0.52602 0.46766 0.0
C2082 C 0.08709 0.5367 0.48784 0.0
H2083 H 0.06128 0.55371 0.5413 0.0
H2084 H 0.06327 0.54337 0.50831 0.0
H2085 H 0.05666 0.53917 0.56342 0.0
H2086 H 0.06396 0.52564 0.56144 0.0
H2087 H 0.05891 0.50727 0.52364 0.0
H2088 H 0.4205 0.52437 0.74351 0.0
H2089 H 0.42868 0.52968 0.66797 0.0
H2090 H 0.41417 0.49252 0.63883 0.0
H2091 H 0.40581 0.48711 0.71442 0.0
H2092 H 0.43949 0.5076 0.63083 0.0
H2093 H 0.41588 0.52634 0.53835 0.0
H2094 H 0.41931 0.53143 0.59467 0.0
H2095 H 0.40929 0.51591 0.58463 0.0
C2096 C 0.41876 0.51732 0.7206 0.0
C2097 C 0.41259 0.50535 0.73479 0.0
C2098 C 0.42335 0.52035 0.67738 0.0
C2099 C 0.42191 0.51147 0.6478 0.0
C2100 C 0.41523 0.49947 0.66109 0.0
H2101 H 0.47721 0.53596 0.43864 0.0
H2102 H 0.45879 0.52157 0.47699 0.0
C2103 C 0.41047 0.49641 0.70421 0.0
C2104 C 0.42908 0.51499 0.6065 0.0
H2105 H 0.43613 0.53352 0.51591 0.0
C2106 C 0.43862 0.51298 0.60481 0.0
C2107 C 0.42783 0.52197 0.57287 0.0
C2108 C 0.41745 0.52396 0.57238 0.0
C2109 C 0.44763 0.51877 0.57279 0.0
C2110 C 0.44685 0.5265 0.54102 0.0
C2111 C 0.43674 0.52764 0.54042 0.0
C2112 C 0.45716 0.53492 0.51344 0.0
C2113 C 0.45837 0.51736 0.57581 0.0
C2114 C 0.46207 0.54717 0.51994 0.0
C2115 C 0.47242 0.55535 0.4978 0.0
C2116 C 0.47814 0.55145 0.46882 0.0
C2117 C 0.47306 0.53919 0.46121 0.0
C2118 C 0.46257 0.53098 0.48312 0.0
H2119 H 0.45838 0.5126 0.60687 0.0
H2120 H 0.45852 0.51217 0.54707 0.0
H2121 H 0.4666 0.52619 0.57462 0.0
H2122 H 0.45807 0.5504 0.5433 0.0
H2123 H 0.47612 0.56472 0.50446 0.0
H2124 H 0.55679 0.80232 0.08732 0.0
H2125 H 0.56137 0.79706 0.16013 0.0
H2126 H 0.58325 0.83429 0.18996 0.0
H2127 H 0.57865 0.83965 0.11708 0.0
H2128 H 0.59466 0.82037 0.19258 0.0
H2129 H 0.55328 0.79929 0.29234 0.0
H2130 H 0.5512 0.79425 0.23587 0.0
H2131 H 0.55597 0.80959 0.24657 0.0
C2132 C 0.56232 0.80938 0.10986 0.0
C2133 C 0.56741 0.82137 0.09652 0.0
C2134 C 0.56486 0.80637 0.15154 0.0
C2135 C 0.57256 0.8153 0.18046 0.0
C2136 C 0.57719 0.8273 0.16819 0.0
H2137 H 0.6076 0.79462 0.38665 0.0
H2138 H 0.6025 0.8079 0.34574 0.0
C2139 C 0.57453 0.83032 0.12664 0.0
C2140 C 0.57703 0.81196 0.21996 0.0
H2141 H 0.56753 0.79335 0.31087 0.0
C2142 C 0.58885 0.81473 0.21928 0.0
C2143 C 0.5694 0.80464 0.25453 0.0
C2144 C 0.55678 0.80185 0.25772 0.0
C2145 C 0.59298 0.80947 0.25005 0.0
C2146 C 0.5851 0.80145 0.2828 0.0
C2147 C 0.57353 0.79946 0.28556 0.0
C2148 C 0.58805 0.79372 0.30981 0.0
C2149 C 0.60543 0.81178 0.24503 0.0
C2150 C 0.58148 0.78138 0.30374 0.0
C2151 C 0.5843 0.77383 0.32711 0.0
C2152 C 0.59376 0.77846 0.35707 0.0
C2153 C 0.60032 0.79083 0.36347 0.0
C2154 C 0.59743 0.79841 0.34015 0.0
H2155 H 0.60975 0.81676 0.21369 0.0
H2156 H 0.61081 0.81713 0.27344 0.0
H2157 H 0.60548 0.80327 0.24535 0.0
H2158 H 0.57426 0.77759 0.28027 0.0
H2159 H 0.57913 0.76436 0.32117 0.0
H2160 H 0.22017 0.79048 0.41711 0.0
H2161 H 0.20685 0.77207 0.37803 0.0
H2162 H 0.19591 0.79175 0.29264 0.0
H2163 H 0.20835 0.80976 0.33423 0.0
H2164 H 0.17828 0.77118 0.30565 0.0
H2165 H 0.21608 0.76472 0.26451 0.0
H2166 H 0.2124 0.76347 0.3226 0.0
H2167 H 0.21812 0.77759 0.29368 0.0
C2168 C 0.21476 0.79075 0.39035 0.0
C2169 C 0.21532 0.80148 0.37806 0.0
C2170 C 0.20724 0.78027 0.36779 0.0
C2171 C 0.20066 0.78055 0.33124 0.0
C2172 C 0.20089 0.79124 0.32055 0.0
H2173 H 0.19054 0.75519 0.07916 0.0
H2174 H 0.1965 0.76156 0.15497 0.0
C2175 C 0.20803 0.80156 0.34417 0.0
C2176 C 0.19414 0.77017 0.30166 0.0
H2177 H 0.19835 0.75277 0.22858 0.0
C2178 C 0.18263 0.76708 0.28896 0.0
C2179 C 0.19976 0.76466 0.28038 0.0
C2180 C 0.21229 0.76781 0.29065 0.0
C2181 C 0.17714 0.75976 0.25237 0.0
C2182 C 0.18303 0.75476 0.2296 0.0
C2183 C 0.19392 0.75672 0.24575 0.0
C2184 C 0.17934 0.74951 0.18467 0.0
C2185 C 0.1656 0.7584 0.23637 0.0
C2186 C 0.16778 0.74032 0.17579 0.0
C2187 C 0.16423 0.73693 0.13179 0.0
C2188 C 0.17233 0.74235 0.09636 0.0
C2189 C 0.1841 0.75083 0.10573 0.0
C2190 C 0.18752 0.75446 0.14926 0.0
H2191 H 0.1635 0.76475 0.25258 0.0
H2192 H 0.16583 0.75987 0.19974 0.0
H2193 H 0.1583 0.74926 0.24442 0.0
H2194 H 0.16141 0.73603 0.20258 0.0
H2195 H 0.15513 0.73025 0.1254 0.0
H2196 H 0.26813 0.42008 0.1336 0.0
H2197 H 0.25914 0.41614 0.20824 0.0
H2198 H 0.24386 0.43788 0.17581 0.0
H2199 H 0.25275 0.44184 0.1014 0.0
H2200 H 0.25347 0.43928 0.27011 0.0
H2201 H 0.22157 0.39389 0.20842 0.0
H2202 H 0.2372 0.39947 0.20327 0.0
H2203 H 0.23051 0.40604 0.17024 0.0
C2204 C 0.26314 0.42429 0.14287 0.0
C2205 C 0.26099 0.43114 0.11161 0.0
C2206 C 0.258 0.422 0.18539 0.0
C2207 C 0.25078 0.42664 0.19711 0.0
C2208 C 0.24942 0.43424 0.16721 0.0
H2209 H 0.19806 0.42612 0.34578 0.0
H2210 H 0.21632 0.43055 0.3084 0.0
C2211 C 0.25445 0.43645 0.12471 0.0
C2212 C 0.24334 0.42246 0.23765 0.0
H2213 H 0.21647 0.4 0.27341 0.0
C2214 C 0.24552 0.43059 0.27158 0.0
C2215 C 0.23304 0.41108 0.23944 0.0
C2216 C 0.23034 0.40207 0.20348 0.0
C2217 C 0.23726 0.42787 0.30602 0.0
C2218 C 0.22646 0.41691 0.30556 0.0
C2219 C 0.22473 0.40843 0.27358 0.0
C2220 C 0.21619 0.41476 0.33318 0.0
C2221 C 0.24001 0.43695 0.34163 0.0
C2222 C 0.20988 0.40426 0.3589 0.0
C2223 C 0.1993 0.40162 0.38005 0.0
C2224 C 0.19485 0.40942 0.37556 0.0
C2225 C 0.20131 0.42 0.35044 0.0
C2226 C 0.21183 0.42261 0.32931 0.0
H2227 H 0.24967 0.44224 0.34769 0.0
H2228 H 0.23712 0.44324 0.33031 0.0
H2229 H 0.23541 0.43267 0.37352 0.0
H2230 H 0.21302 0.39801 0.36178 0.0
H2231 H 0.1945 0.39339 0.39919 0.0
H2232 H 0.24493 0.41587 0.84541 0.0
H2233 H 0.23521 0.41508 0.7747 0.0
H2234 H 0.21756 0.43172 0.83618 0.0
H2235 H 0.22682 0.43211 0.907 0.0
H2236 H 0.20258 0.41378 0.78822 0.0
H2237 H 0.24298 0.44152 0.68671 0.0
H2238 H 0.24264 0.4287 0.71141 0.0
H2239 H 0.24336 0.44015 0.74652 0.0
C2240 C 0.23901 0.41939 0.84374 0.0
C2241 C 0.23665 0.42405 0.88182 0.0
C2242 C 0.23352 0.41901 0.80324 0.0
C2243 C 0.2258 0.42353 0.79987 0.0
C2244 C 0.22348 0.42819 0.83788 0.0
H2245 H 0.20264 0.44023 0.55168 0.0
H2246 H 0.21175 0.44093 0.62358 0.0
C2247 C 0.2288 0.42841 0.8784 0.0
C2248 C 0.21983 0.42315 0.75731 0.0
H2249 H 0.22483 0.43165 0.64751 0.0
C2250 C 0.20746 0.41773 0.75749 0.0
C2251 C 0.2262 0.42847 0.71735 0.0
C2252 C 0.23953 0.43515 0.71546 0.0
C2253 C 0.20127 0.41742 0.71889 0.0
C2254 C 0.20759 0.42232 0.67852 0.0
C2255 C 0.21997 0.42781 0.67837 0.0
C2256 C 0.20158 0.4219 0.63604 0.0
C2257 C 0.18805 0.41214 0.7222 0.0
C2258 C 0.19281 0.41098 0.61915 0.0
C2259 C 0.18744 0.41057 0.57844 0.0
C2260 C 0.19094 0.42106 0.55328 0.0
C2261 C 0.19974 0.43199 0.57024 0.0
C2262 C 0.20497 0.4324 0.61128 0.0
H2263 H 0.18521 0.41236 0.75689 0.0
H2264 H 0.18501 0.41694 0.70001 0.0
H2265 H 0.1836 0.40268 0.71219 0.0
H2266 H 0.19027 0.40272 0.63696 0.0
H2267 H 0.18082 0.40199 0.56607 0.0
H2268 H 0.57393 0.82104 0.82323 0.0
H2269 H 0.57422 0.81291 0.75034 0.0
H2270 H 0.57336 0.78267 0.81524 0.0
H2271 H 0.57293 0.79056 0.88782 0.0
H2272 H 0.59058 0.8073 0.71542 0.0
H2273 H 0.54599 0.76718 0.72754 0.0
H2274 H 0.5508 0.77965 0.76419 0.0
H2275 H 0.5551 0.76871 0.77452 0.0
C2276 C 0.57377 0.81265 0.82199 0.0
C2277 C 0.57332 0.80643 0.86146 0.0
C2278 C 0.57394 0.80802 0.78033 0.0
C2279 C 0.57358 0.79708 0.77745 0.0
C2280 C 0.57335 0.79098 0.81671 0.0
H2281 H 0.59463 0.76777 0.56515 0.0
H2282 H 0.59274 0.77692 0.63274 0.0
C2283 C 0.57318 0.79557 0.85823 0.0
C2284 C 0.57376 0.7921 0.73357 0.0
H2285 H 0.55881 0.76722 0.67071 0.0
C2286 C 0.58359 0.79859 0.70538 0.0
C2287 C 0.56454 0.78081 0.72031 0.0
C2288 C 0.55345 0.77372 0.74801 0.0
C2289 C 0.58465 0.7939 0.66497 0.0
C2290 C 0.57574 0.78232 0.65293 0.0
C2291 C 0.56571 0.77602 0.68031 0.0
C2292 C 0.57672 0.77654 0.61229 0.0
C2293 C 0.59529 0.80139 0.63551 0.0
C2294 C 0.5681 0.77288 0.57908 0.0
C2295 C 0.56908 0.76752 0.54052 0.0
C2296 C 0.57869 0.76569 0.53452 0.0
C2297 C 0.58716 0.76911 0.56845 0.0
C2298 C 0.58615 0.77443 0.607 0.0
H2299 H 0.5994 0.81101 0.64286 0.0
H2300 H 0.60201 0.79873 0.64149 0.0
H2301 H 0.59288 0.80008 0.59971 0.0
H2302 H 0.5607 0.77433 0.58272 0.0
H2303 H 0.56238 0.765 0.51516 0.0
H2304 H 0.18946 0.77691 0.91703 0.0
H2305 H 0.20196 0.79043 0.85726 0.0
H2306 H 0.1763 0.76819 0.76013 0.0
H2307 H 0.1637 0.75479 0.81953 0.0
H2308 H 0.21191 0.78457 0.79139 0.0
H2309 H 0.18402 0.80094 0.71749 0.0
H2310 H 0.18091 0.79367 0.77163 0.0
H2311 H 0.17617 0.78499 0.72172 0.0
C2312 C 0.18638 0.77503 0.883 0.0
C2313 C 0.17559 0.76479 0.87296 0.0
C2314 C 0.19354 0.78276 0.84893 0.0
C2315 C 0.19 0.7804 0.80433 0.0
C2316 C 0.17908 0.77036 0.79439 0.0
H2317 H 0.22824 0.79202 0.5638 0.0
H2318 H 0.21901 0.78596 0.63741 0.0
C2319 C 0.1719 0.76266 0.8284 0.0
C2320 C 0.19815 0.7877 0.76777 0.0
H2321 H 0.19928 0.8018 0.66957 0.0
C2322 C 0.20924 0.78853 0.76513 0.0
C2323 C 0.19477 0.79305 0.73396 0.0
C2324 C 0.18337 0.79323 0.73658 0.0
C2325 C 0.21674 0.79395 0.72822 0.0
C2326 C 0.21291 0.7984 0.69266 0.0
C2327 C 0.20214 0.79822 0.69656 0.0
C2328 C 0.21951 0.80256 0.64991 0.0
C2329 C 0.22862 0.79473 0.72749 0.0
C2330 C 0.22272 0.81385 0.63223 0.0
C2331 C 0.22787 0.81729 0.58984 0.0
C2332 C 0.22987 0.80947 0.56429 0.0
C2333 C 0.22691 0.79828 0.58263 0.0
C2334 C 0.2217 0.79484 0.6249 0.0
H2335 H 0.23184 0.79483 0.76183 0.0
H2336 H 0.22777 0.78679 0.71073 0.0
H2337 H 0.23532 0.80282 0.70912 0.0
H2338 H 0.22105 0.81992 0.65091 0.0
H2339 H 0.23007 0.82598 0.57679 0.0
H2340 H 0.06986 0.56344 0.03456 0.0
H2341 H 0.06963 0.55087 0.09623 0.0
H2342 H 0.07184 0.52715 0.00297 0.0
H2343 H 0.07238 0.53987 0.9409 0.0
H2344 H 0.0553 0.52746 0.12015 0.0
H2345 H 0.10069 0.53691 0.08007 0.0
H2346 H 0.09435 0.54496 0.05398 0.0
H2347 H 0.09016 0.53023 0.03609 0.0
C2348 C 0.07015 0.55548 0.02706 0.0
C2349 C 0.07126 0.55271 0.98289 0.0
C2350 C 0.07002 0.5483 0.06238 0.0
C2351 C 0.07096 0.53822 0.0542 0.0
C2352 C 0.0714 0.53505 0.01003 0.0
H2353 H 0.06465 0.49184 0.28219 0.0
H2354 H 0.06154 0.49842 0.20921 0.0
C2355 C 0.07162 0.54229 0.97462 0.0
C2356 C 0.07205 0.53145 0.09224 0.0
H2357 H 0.09123 0.5245 0.14244 0.0
C2358 C 0.0631 0.5267 0.1249 0.0
C2359 C 0.08231 0.53061 0.09847 0.0
C2360 C 0.09249 0.53603 0.06556 0.0
C2361 C 0.06425 0.52142 0.16425 0.0
C2362 C 0.07453 0.52061 0.17054 0.0
C2363 C 0.08334 0.52506 0.13732 0.0
C2364 C 0.0768 0.51615 0.21295 0.0
C2365 C 0.05472 0.51727 0.1996 0.0
C2366 C 0.08668 0.52376 0.23835 0.0
C2367 C 0.08858 0.51999 0.27973 0.0
C2368 C 0.0806 0.50853 0.29664 0.0
C2369 C 0.07091 0.50077 0.27038 0.0
C2370 C 0.06907 0.50453 0.22877 0.0
H2371 H 0.0488 0.52096 0.19382 0.0
H2372 H 0.04923 0.50742 0.1992 0.0
H2373 H 0.05863 0.5199 0.23327 0.0
H2374 H 0.09278 0.53275 0.22666 0.0
H2375 H 0.09614 0.5262 0.29894 0.0
H2376 H 0.45294 0.53735 0.93447 0.0
H2377 H 0.46183 0.5464 0.00518 0.0
H2378 H 0.43266 0.51744 0.0764 0.0
H2379 H 0.42369 0.50816 0.00556 0.0
H2380 H 0.45235 0.554 0.07055 0.0
H2381 H 0.46165 0.51948 0.13697 0.0
H2382 H 0.45806 0.52012 0.07928 0.0
H2383 H 0.44658 0.51402 0.12107 0.0
C2384 C 0.44841 0.53282 0.96509 0.0
C2385 C 0.43758 0.52199 0.96425 0.0
C2386 C 0.45352 0.53804 0.00551 0.0
C2387 C 0.44797 0.53256 0.04601 0.0
C2388 C 0.4372 0.52172 0.0455 0.0
H2389 H 0.4643 0.56724 0.30361 0.0
H2390 H 0.45507 0.55807 0.23317 0.0
C2391 C 0.43207 0.51645 0.00497 0.0
C2392 C 0.45335 0.53844 0.08854 0.0
H2393 H 0.46521 0.53516 0.18528 0.0
C2394 C 0.45516 0.54989 0.09569 0.0
C2395 C 0.45712 0.5331 0.12098 0.0
C2396 C 0.45587 0.52105 0.1142 0.0
C2397 C 0.46061 0.55613 0.13451 0.0
C2398 C 0.46417 0.5507 0.16733 0.0
C2399 C 0.4624 0.53927 0.16013 0.0
C2400 C 0.46995 0.55678 0.20913 0.0
C2401 C 0.46275 0.56859 0.13958 0.0
C2402 C 0.48134 0.55903 0.21912 0.0
C2403 C 0.48663 0.56422 0.25943 0.0
C2404 C 0.4806 0.56722 0.29072 0.0
C2405 C 0.46924 0.56513 0.28022 0.0
C2406 C 0.46395 0.55991 0.23989 0.0
H2407 H 0.46227 0.57254 0.10709 0.0
H2408 H 0.45588 0.56832 0.16203 0.0
H2409 H 0.47152 0.5745 0.15451 0.0
H2410 H 0.48611 0.55666 0.19582 0.0
H2411 H 0.49537 0.56567 0.26634 0.0
H2412 H 0.47081 0.92884 0.91847 0.0
H2413 H 0.46046 0.92671 0.98847 0.0
H2414 H 0.48287 0.9161 0.05561 0.0
H2415 H 0.49342 0.91829 0.98538 0.0
H2416 H 0.44808 0.90519 0.03651 0.0
H2417 H 0.48274 0.94102 0.13916 0.0
H2418 H 0.48391 0.94078 0.07922 0.0
H2419 H 0.48685 0.93119 0.11372 0.0
C2420 C 0.47368 0.92621 0.94816 0.0
C2421 C 0.48292 0.92368 0.94621 0.0
C2422 C 0.46773 0.92499 0.98816 0.0
C2423 C 0.47091 0.92128 0.02719 0.0
C2424 C 0.48038 0.91913 0.02592 0.0
H2425 H 0.42665 0.88996 0.2627 0.0
H2426 H 0.43802 0.89357 0.19388 0.0
C2427 C 0.48639 0.92037 0.98576 0.0
C2428 C 0.4637 0.91889 0.06819 0.0
H2429 H 0.4646 0.92771 0.1754 0.0
C2430 C 0.45169 0.91011 0.06691 0.0
C2431 C 0.46842 0.9254 0.10756 0.0
C2432 C 0.48116 0.9352 0.11015 0.0
C2433 C 0.44426 0.90763 0.10406 0.0
C2434 C 0.44901 0.91399 0.14369 0.0
C2435 C 0.46101 0.92282 0.14495 0.0
C2436 C 0.44166 0.91163 0.18424 0.0
C2437 C 0.43133 0.89836 0.10038 0.0
C2438 C 0.43996 0.92061 0.20161 0.0
C2439 C 0.43346 0.91859 0.24097 0.0
C2440 C 0.42863 0.90757 0.26392 0.0
C2441 C 0.43019 0.89853 0.24587 0.0
C2442 C 0.43667 0.90056 0.20646 0.0
H2443 H 0.42855 0.89639 0.06507 0.0
H2444 H 0.42971 0.88998 0.11696 0.0
H2445 H 0.42573 0.90132 0.11716 0.0
H2446 H 0.44376 0.92922 0.18489 0.0
H2447 H 0.43249 0.92578 0.25392 0.0
H2448 H 0.21962 0.38895 0.08349 0.0
H2449 H 0.21002 0.36792 0.1051 0.0
H2450 H 0.23609 0.3643 0.03032 0.0
H2451 H 0.24572 0.38532 0.00797 0.0
H2452 H 0.21298 0.34646 0.01398 0.0
H2453 H 0.22145 0.35208 0.19559 0.0
H2454 H 0.21462 0.36005 0.17374 0.0
H2455 H 0.22927 0.3641 0.15554 0.0
C2456 C 0.22334 0.38371 0.07156 0.0
C2457 C 0.23346 0.38885 0.04392 0.0
C2458 C 0.21789 0.37171 0.08432 0.0
C2459 C 0.22246 0.36462 0.06994 0.0
C2460 C 0.23248 0.36966 0.04205 0.0
H2461 H 0.19685 0.29138 0.16513 0.0
H2462 H 0.20963 0.31258 0.14648 0.0
C2463 C 0.23796 0.38167 0.0293 0.0
C2464 C 0.21647 0.35181 0.08247 0.0
H2465 H 0.20713 0.33255 0.17189 0.0
C2466 C 0.2118 0.34342 0.04847 0.0
C2467 C 0.21509 0.34787 0.12747 0.0
C2468 C 0.22047 0.35648 0.1652 0.0
C2469 C 0.20536 0.33117 0.05835 0.0
C2470 C 0.20345 0.32725 0.10342 0.0
C2471 C 0.20852 0.33561 0.13739 0.0
C2472 C 0.19575 0.31454 0.11582 0.0
C2473 C 0.2006 0.32251 0.0205 0.0
C2474 C 0.1837 0.30874 0.10556 0.0
C2475 C 0.17639 0.29669 0.11621 0.0
C2476 C 0.18097 0.29018 0.1375 0.0
C2477 C 0.19303 0.2961 0.14863 0.0
C2478 C 0.20035 0.3082 0.13803 0.0
H2479 H 0.20539 0.32663 0.98873 0.0
H2480 H 0.20123 0.31447 0.02805 0.0
H2481 H 0.19114 0.31964 0.01556 0.0
H2482 H 0.17995 0.31354 0.08915 0.0
H2483 H 0.16715 0.29247 0.10729 0.0
H2484 H 0.70623 0.89236 0.12567 0.0
H2485 H 0.68782 0.88168 0.08416 0.0
H2486 H 0.66796 0.87157 0.20751 0.0
H2487 H 0.68627 0.88237 0.24936 0.0
H2488 H 0.6701 0.85813 0.08629 0.0
H2489 H 0.65282 0.88733 0.13677 0.0
H2490 H 0.66798 0.89124 0.14536 0.0
H2491 H 0.65658 0.8811 0.18338 0.0
C2492 C 0.69796 0.88784 0.14407 0.0
C2493 C 0.69774 0.88832 0.19091 0.0
C2494 C 0.68744 0.88175 0.12023 0.0
C2495 C 0.67652 0.87605 0.14271 0.0
C2496 C 0.67628 0.87616 0.18946 0.0
H2497 H 0.60803 0.82192 0.05883 0.0
H2498 H 0.62821 0.83349 0.08558 0.0
C2499 C 0.68678 0.88229 0.21334 0.0
C2500 C 0.66536 0.86998 0.11735 0.0
H2501 H 0.63912 0.86909 0.1024 0.0
C2502 C 0.66336 0.86058 0.08948 0.0
C2503 C 0.65669 0.87335 0.12081 0.0
C2504 C 0.65865 0.88389 0.14783 0.0
C2505 C 0.6527 0.85416 0.06633 0.0
C2506 C 0.64375 0.85709 0.07192 0.0
C2507 C 0.64594 0.86678 0.09844 0.0
C2508 C 0.63183 0.8499 0.05242 0.0
C2509 C 0.65115 0.84432 0.03605 0.0
C2510 C 0.62707 0.85531 0.02533 0.0
C2511 C 0.61544 0.84874 0.01027 0.0
C2512 C 0.60833 0.83662 0.02221 0.0
C2513 C 0.61324 0.83119 0.04863 0.0
C2514 C 0.62484 0.83778 0.06378 0.0
H2515 H 0.65981 0.84574 0.02426 0.0
H2516 H 0.64662 0.83571 0.05476 0.0
H2517 H 0.64573 0.84365 0.0066 0.0
H2518 H 0.63231 0.86469 0.01642 0.0
H2519 H 0.61195 0.85321 0.99006 0.0
H2520 H 0.14677 0.76277 0.04956 0.0
H2521 H 0.14058 0.7749 0.09013 0.0
H2522 H 0.12059 0.7751 0.97624 0.0
H2523 H 0.12689 0.76319 0.9351 0.0
H2524 H 0.13496 0.79723 0.00806 0.0
H2525 H 0.10891 0.76624 0.14675 0.0
H2526 H 0.12362 0.7687 0.14096 0.0
H2527 H 0.11307 0.76139 0.09744 0.0
C2528 C 0.14097 0.7653 0.03324 0.0
C2529 C 0.13736 0.76203 0.98897 0.0
C2530 C 0.13737 0.77216 0.05665 0.0
C2531 C 0.13 0.77576 0.03643 0.0
C2532 C 0.12625 0.77237 0.99253 0.0
H2533 H 0.09359 0.81046 0.13709 0.0
H2534 H 0.09897 0.79575 0.11534 0.0
C2535 C 0.12988 0.76558 0.96904 0.0
C2536 C 0.12682 0.78374 0.05961 0.0
H2537 H 0.11286 0.78617 0.15168 0.0
C2538 C 0.13012 0.7948 0.03944 0.0
C2539 C 0.12042 0.78051 0.10038 0.0
C2540 C 0.11619 0.76852 0.12253 0.0
C2541 C 0.12724 0.80274 0.05887 0.0
C2542 C 0.12111 0.79965 0.10019 0.0
C2543 C 0.11771 0.78856 0.12033 0.0
C2544 C 0.11779 0.80773 0.12162 0.0
C2545 C 0.13054 0.81426 0.0344 0.0
C2546 C 0.12657 0.81911 0.13455 0.0
C2547 C 0.12355 0.82756 0.1467 0.0
C2548 C 0.11167 0.82471 0.14653 0.0
C2549 C 0.10282 0.81296 0.13744 0.0
C2550 C 0.10587 0.80454 0.12495 0.0
H2551 H 0.13268 0.814 0.99874 0.0
H2552 H 0.12326 0.81626 0.03622 0.0
H2553 H 0.13845 0.82167 0.05009 0.0
H2554 H 0.13581 0.82166 0.13302 0.0
H2555 H 0.13057 0.83648 0.15411 0.0
H2556 H 0.27794 0.19251 0.34141 0.0
H2557 H 0.2985 0.20404 0.36561 0.0
H2558 H 0.29472 0.17314 0.43612 0.0
H2559 H 0.27435 0.1615 0.41146 0.0
H2560 H 0.30615 0.20901 0.45029 0.0
H2561 H 0.32569 0.18468 0.37137 0.0
H2562 H 0.3115 0.1826 0.35535 0.0
H2563 H 0.31275 0.17493 0.40368 0.0
C2564 C 0.28154 0.18811 0.36145 0.0
C2565 C 0.27448 0.17606 0.37433 0.0
C2566 C 0.29329 0.19472 0.3753 0.0
C2567 C 0.2982 0.1894 0.40211 0.0
C2568 C 0.29123 0.17735 0.4145 0.0
H2569 H 0.35434 0.22241 0.59255 0.0
H2570 H 0.33562 0.21209 0.55283 0.0
C2571 C 0.27953 0.17073 0.40053 0.0
C2572 C 0.31029 0.19661 0.42011 0.0
H2573 H 0.33652 0.19729 0.43222 0.0
C2574 C 0.31284 0.20653 0.44589 0.0
C2575 C 0.31908 0.19348 0.41388 0.0
C2576 C 0.31716 0.18341 0.38416 0.0
C2577 C 0.32378 0.21314 0.46698 0.0
C2578 C 0.33229 0.20955 0.46303 0.0
C2579 C 0.32992 0.19992 0.43583 0.0
C2580 C 0.34366 0.21561 0.48715 0.0
C2581 C 0.32613 0.22393 0.49311 0.0
C2582 C 0.35439 0.22064 0.46355 0.0
C2583 C 0.36512 0.22642 0.48618 0.0
C2584 C 0.36532 0.22727 0.53295 0.0
C2585 C 0.35453 0.22202 0.55654 0.0
C2586 C 0.34381 0.21618 0.53386 0.0
H2587 H 0.32042 0.22751 0.48188 0.0
H2588 H 0.32415 0.22138 0.52889 0.0
H2589 H 0.33551 0.23111 0.48991 0.0
H2590 H 0.35448 0.22022 0.42751 0.0
H2591 H 0.37326 0.23034 0.46691 0.0
H2592 H 0.80101 0.17233 0.43798 0.0
H2593 H 0.80586 0.15698 0.42235 0.0
H2594 H 0.77273 0.13034 0.48118 0.0
H2595 H 0.76758 0.14564 0.49569 0.0
H2596 H 0.80834 0.14044 0.46923 0.0
H2597 H 0.76993 0.11854 0.35551 0.0
H2598 H 0.77462 0.13286 0.37936 0.0
H2599 H 0.7662 0.11947 0.41229 0.0
C2600 C 0.79479 0.16324 0.44824 0.0
C2601 C 0.7838 0.1602 0.46739 0.0
C2602 C 0.7976 0.15446 0.4393 0.0
C2603 C 0.78954 0.14247 0.44959 0.0
C2604 C 0.77895 0.1395 0.47185 0.0
H2605 H 0.80906 0.08824 0.39329 0.0
H2606 H 0.80376 0.10119 0.43306 0.0
C2607 C 0.77605 0.14827 0.48036 0.0
C2608 C 0.79193 0.13315 0.43372 0.0
H2609 H 0.78195 0.11001 0.3618 0.0
C2610 C 0.80254 0.13371 0.44602 0.0
C2611 C 0.78441 0.12449 0.40293 0.0
C2612 C 0.77321 0.12382 0.38635 0.0
C2613 C 0.80598 0.12605 0.42754 0.0
C2614 C 0.79844 0.11741 0.39676 0.0
C2615 C 0.78769 0.11663 0.38549 0.0
C2616 C 0.80184 0.1096 0.37334 0.0
C2617 C 0.81787 0.12766 0.43959 0.0
C2618 C 0.80226 0.10983 0.32656 0.0
C2619 C 0.80508 0.10231 0.30374 0.0
C2620 C 0.80761 0.09444 0.32725 0.0
C2621 C 0.80726 0.09427 0.37418 0.0
C2622 C 0.8043 0.10172 0.397 0.0
H2623 H 0.82372 0.13647 0.45468 0.0
H2624 H 0.81661 0.12067 0.46431 0.0
H2625 H 0.8224 0.1268 0.40981 0.0
H2626 H 0.80039 0.11584 0.30761 0.0
H2627 H 0.80531 0.1027 0.26763 0.0
H2628 H 0.91382 0.71716 0.32776 0.0
H2629 H 0.90384 0.69579 0.34567 0.0
H2630 H 0.87438 0.6974 0.40145 0.0
H2631 H 0.88421 0.71864 0.38414 0.0
H2632 H 0.88315 0.6859 0.45704 0.0
H2633 H 0.87449 0.66836 0.28472 0.0
H2634 H 0.88949 0.67949 0.29667 0.0
H2635 H 0.87817 0.68339 0.29692 0.0
C2636 C 0.90518 0.71295 0.34349 0.0
C2637 C 0.89983 0.71965 0.35443 0.0
C2638 C 0.89948 0.70073 0.35357 0.0
C2639 C 0.88834 0.69502 0.37459 0.0
C2640 C 0.88297 0.70165 0.3852 0.0
H2641 H 0.8347 0.62166 0.4126 0.0
H2642 H 0.84686 0.64268 0.39166 0.0
C2643 C 0.88862 0.71381 0.37514 0.0
C2644 C 0.88233 0.6822 0.38702 0.0
H2645 H 0.86874 0.65428 0.34384 0.0
C2646 C 0.88005 0.67897 0.43235 0.0
C2647 C 0.87823 0.67322 0.35464 0.0
C2648 C 0.88011 0.67622 0.30545 0.0
C2649 C 0.87368 0.66698 0.44621 0.0
C2650 C 0.8696 0.65799 0.41386 0.0
C2651 C 0.87195 0.66121 0.36853 0.0
C2652 C 0.8624 0.6452 0.42633 0.0
C2653 C 0.87103 0.66403 0.49523 0.0
C2654 C 0.86716 0.63963 0.45252 0.0
C2655 C 0.86022 0.6276 0.4647 0.0
C2656 C 0.84841 0.6209 0.45079 0.0
C2657 C 0.84373 0.62653 0.42418 0.0
C2658 C 0.85068 0.63854 0.41199 0.0
H2659 H 0.87261 0.67191 0.51458 0.0
H2660 H 0.86171 0.65684 0.50052 0.0
H2661 H 0.87683 0.66082 0.50868 0.0
H2662 H 0.87625 0.64459 0.46338 0.0
H2663 H 0.86415 0.62355 0.48496 0.0
H2664 H 0.80551 0.72027 0.8824 0.0
H2665 H 0.79216 0.7038 0.9321 0.0
H2666 H 0.78328 0.67924 0.8242 0.0
H2667 H 0.7963 0.69565 0.77408 0.0
H2668 H 0.76392 0.67402 0.87763 0.0
H2669 H 0.80238 0.68098 0.9793 0.0
H2670 H 0.8002 0.69352 0.97507 0.0
H2671 H 0.80413 0.6884 0.92623 0.0
C2672 C 0.80061 0.71138 0.86915 0.0
C2673 C 0.80209 0.70923 0.82448 0.0
C2674 C 0.79302 0.70198 0.89762 0.0
C2675 C 0.78693 0.69028 0.88203 0.0
C2676 C 0.78793 0.68821 0.83692 0.0
H2677 H 0.75436 0.61842 0.96244 0.0
H2678 H 0.75997 0.63735 0.92507 0.0
C2679 C 0.79542 0.6976 0.80836 0.0
C2680 C 0.78022 0.68003 0.91298 0.0
H2681 H 0.78389 0.6648 -0.00086 0.0
C2682 C 0.76823 0.67206 0.90457 0.0
C2683 C 0.78589 0.67751 0.94811 0.0
C2684 C 0.79887 0.68548 0.95765 0.0
C2685 C 0.76184 0.66145 0.92958 0.0
C2686 C 0.76764 0.65873 0.96346 0.0
C2687 C 0.77946 0.66696 0.97322 0.0
C2688 C 0.76217 0.64693 0.98601 0.0
C2689 C 0.74901 0.65314 0.91904 0.0
C2690 C 0.76145 0.646 0.0327 0.0
C2691 C 0.7583 0.63519 0.05423 0.0
C2692 C 0.75597 0.62516 0.02937 0.0
C2693 C 0.75613 0.62598 0.98256 0.0
C2694 C 0.75923 0.63678 0.9611 0.0
H2695 H 0.74498 0.65799 0.90305 0.0
H2696 H 0.74831 0.64634 0.89542 0.0
H2697 H 0.74386 0.64847 0.9496 0.0
H2698 H 0.76377 0.65377 0.05248 0.0
H2699 H 0.75823 0.63485 0.09034 0.0
H2700 H 0.36081 0.12802 0.11664 0.0
H2701 H 0.3421 0.11562 0.07863 0.0
H2702 H 0.3609 0.12125 0.95437 0.0
H2703 H 0.37964 0.1335 0.9921 0.0
H2704 H 0.33422 0.12433 0.01157 0.0
H2705 H 0.33695 0.08573 0.95147 0.0
H2706 H 0.34645 0.09537 0.99451 0.0
H2707 H 0.34971 0.09978 0.93673 0.0
C2708 C 0.36099 0.12642 0.0814 0.0
C2709 C 0.37172 0.1318 0.05736 0.0
C2710 C 0.35029 0.11933 0.05976 0.0
C2711 C 0.35012 0.11741 0.01379 0.0
C2712 C 0.36084 0.12239 0.99004 0.0
H2713 H 0.30208 0.09704 0.79717 0.0
H2714 H 0.31843 0.10204 0.84799 0.0
C2715 C 0.37155 0.12947 0.01164 0.0
C2716 C 0.33874 0.11143 0.98972 0.0
H2717 H 0.32253 0.08931 0.91634 0.0
C2718 C 0.33155 0.11654 0.99134 0.0
C2719 C 0.33534 0.10133 0.96317 0.0
C2720 C 0.34246 0.09516 0.96163 0.0
C2721 C 0.3213 0.11216 0.96564 0.0
C2722 C 0.31803 0.10224 0.93824 0.0
C2723 C 0.32505 0.09691 0.93746 0.0
C2724 C 0.30779 0.09782 0.90796 0.0
C2725 C 0.31437 0.11856 0.96647 0.0
C2726 C 0.29632 0.09343 0.92486 0.0
C2727 C 0.28695 0.09064 0.89589 0.0
C2728 C 0.28889 0.0921 0.84952 0.0
C2729 C 0.30028 0.09588 0.8327 0.0
C2730 C 0.30965 0.09871 0.86168 0.0
H2731 H 0.31945 0.12747 0.98172 0.0
H2732 H 0.31181 0.11969 0.93224 0.0
H2733 H 0.30617 0.11321 0.98642 0.0
H2734 H 0.29468 0.09248 0.96049 0.0
H2735 H 0.27826 0.08764 0.90991 0.0
H2736 H 0.89067 0.19505 0.74903 0.0
H2737 H 0.88379 0.20711 0.78539 0.0
H2738 H 0.89524 0.20085 0.91253 0.0
H2739 H 0.90229 0.18878 0.87629 0.0
H2740 H 0.86632 0.19854 0.85562 0.0
H2741 H 0.90928 0.23755 0.90547 0.0
H2742 H 0.90838 0.2274 0.86317 0.0
H2743 H 0.9065 0.22292 0.92083 0.0
C2744 C 0.89187 0.19633 0.78465 0.0
C2745 C 0.89702 0.19095 0.80977 0.0
C2746 C 0.88789 0.2032 0.80538 0.0
C2747 C 0.88903 0.20487 0.85156 0.0
C2748 C 0.8944 0.19976 0.87676 0.0
H2749 H 0.86787 0.25202 0.98057 0.0
H2750 H 0.87305 0.2363 0.9757 0.0
C2751 C 0.89841 0.19287 0.85599 0.0
C2752 C 0.88414 0.21166 0.87287 0.0
H2753 H 0.89214 0.23858 0.9181 0.0
C2754 C 0.87193 0.20722 0.86995 0.0
C2755 C 0.89148 0.2229 0.892 0.0
C2756 C 0.90466 0.22807 0.89552 0.0
C2757 C 0.86695 0.214 0.88351 0.0
C2758 C 0.87439 0.22555 0.89983 0.0
C2759 C 0.88648 0.2297 0.90554 0.0
C2760 C 0.87017 0.23408 0.90461 0.0
C2761 C 0.85382 0.20894 0.87877 0.0
C2762 C 0.86684 0.23794 0.86634 0.0
C2763 C 0.86397 0.24687 0.86902 0.0
C2764 C 0.86427 0.25201 0.9101 0.0
C2765 C 0.86734 0.24798 0.9487 0.0
C2766 C 0.87036 0.23909 0.94592 0.0
H2767 H 0.84898 0.19905 0.87892 0.0
H2768 H 0.85027 0.21197 0.90601 0.0
H2769 H 0.85207 0.21205 0.84654 0.0
H2770 H 0.86685 0.23433 0.83404 0.0
H2771 H 0.86172 0.24991 0.83875 0.0
H2772 H 0.70002 0.79915 0.77732 0.0
H2773 H 0.68188 0.78632 0.7367 0.0
H2774 H 0.70225 0.79223 0.61634 0.0
H2775 H 0.72041 0.80489 0.65669 0.0
H2776 H 0.67435 0.79444 0.66712 0.0
H2777 H 0.67916 0.75666 0.61218 0.0
H2778 H 0.68804 0.7665 0.6559 0.0
H2779 H 0.69181 0.77085 0.59828 0.0
C2780 C 0.70067 0.79753 0.74242 0.0
C2781 C 0.71166 0.8031 0.7202 0.0
C2782 C 0.69029 0.79018 0.71929 0.0
C2783 C 0.69072 0.78821 0.67363 0.0
C2784 C 0.70172 0.7934 0.65177 0.0
H2785 H 0.64518 0.76682 0.44865 0.0
H2786 H 0.66112 0.77246 0.50221 0.0
C2787 C 0.7121 0.80072 0.67486 0.0
C2788 C 0.67967 0.78195 0.64769 0.0
H2789 H 0.66493 0.75979 0.57284 0.0
C2790 C 0.67217 0.78673 0.6471 0.0
C2791 C 0.67691 0.77195 0.62141 0.0
C2792 C 0.68435 0.76612 0.62224 0.0
C2793 C 0.66225 0.78211 0.61949 0.0
C2794 C 0.65965 0.7723 0.59234 0.0
C2795 C 0.66697 0.76731 0.59373 0.0
C2796 C 0.64976 0.76762 0.56039 0.0
C2797 C 0.65495 0.78811 0.61813 0.0
C2798 C 0.63806 0.7627 0.57543 0.0
C2799 C 0.62892 0.75953 0.54493 0.0
C2800 C 0.63135 0.76115 0.49885 0.0
C2801 C 0.64302 0.76552 0.4839 0.0
C2802 C 0.65214 0.76872 0.51444 0.0
H2803 H 0.65956 0.797 0.63381 0.0
H2804 H 0.65278 0.78922 0.58324 0.0
H2805 H 0.64653 0.78249 0.63655 0.0
H2806 H 0.63603 0.7616 0.61079 0.0
H2807 H 0.62002 0.75608 0.55753 0.0
H2808 H 0.19013 0.91256 0.50196 0.0
H2809 H 0.19589 0.89745 0.49909 0.0
H2810 H 0.20416 0.90191 0.63916 0.0
H2811 H 0.19827 0.91714 0.64226 0.0
H2812 H 0.22294 0.90477 0.57871 0.0
H2813 H 0.18093 0.86291 0.54983 0.0
H2814 H 0.1825 0.87512 0.51583 0.0
H2815 H 0.18153 0.87569 0.57548 0.0
C2816 C 0.19291 0.91013 0.5324 0.0
C2817 C 0.19371 0.91593 0.57238 0.0
C2818 C 0.19614 0.90146 0.53077 0.0
C2819 C 0.20033 0.89849 0.569 0.0
C2820 C 0.20083 0.90401 0.60945 0.0
H2821 H 0.23746 0.85812 0.53216 0.0
H2822 H 0.22965 0.8692 0.57089 0.0
C2823 C 0.19741 0.91263 0.61123 0.0
C2824 C 0.20534 0.89061 0.56445 0.0
H2825 H 0.19866 0.86379 0.5219 0.0
C2826 C 0.21763 0.89568 0.56751 0.0
C2827 C 0.19837 0.87879 0.54984 0.0
C2828 C 0.18508 0.87275 0.54794 0.0
C2829 C 0.22324 0.88955 0.55272 0.0
C2830 C 0.21631 0.87805 0.53504 0.0
C2831 C 0.20395 0.87267 0.53506 0.0
C2832 C 0.22168 0.87192 0.51207 0.0
C2833 C 0.23656 0.89572 0.55315 0.0
C2834 C 0.21984 0.86986 0.46624 0.0
C2835 C 0.22425 0.86355 0.44411 0.0
C2836 C 0.23057 0.85913 0.46742 0.0
C2837 C 0.23269 0.86148 0.51319 0.0
C2838 C 0.22824 0.8678 0.53539 0.0
H2839 H 0.24067 0.90523 0.56231 0.0
H2840 H 0.23934 0.89118 0.57775 0.0
H2841 H 0.23999 0.8952 0.51993 0.0
H2842 H 0.21483 0.87302 0.44766 0.0
H2843 H 0.22246 0.86191 0.40889 0.0
H2844 H 0.14196 0.37666 0.54903 0.0
H2845 H 0.1286 0.35841 0.59056 0.0
H2846 H 0.10636 0.34478 0.47521 0.0
H2847 H 0.11972 0.363 0.4331 0.0
H2848 H 0.10298 0.34613 0.60784 0.0
H2849 H 0.11754 0.32052 0.50456 0.0
H2850 H 0.12566 0.33658 0.50574 0.0
H2851 H 0.1121 0.32895 0.47541 0.0
C2852 C 0.13416 0.36985 0.53256 0.0
C2853 C 0.13198 0.37121 0.48757 0.0
C2854 C 0.12652 0.35945 0.55642 0.0
C2855 C 0.1166 0.35023 0.53572 0.0
C2856 C 0.11406 0.35177 0.49153 0.0
H2857 H 0.07783 0.27681 0.63663 0.0
H2858 H 0.08263 0.29458 0.59176 0.0
C2859 C 0.12169 0.36219 0.4676 0.0
C2860 C 0.1095 0.3387 0.55958 0.0
H2861 H 0.10453 0.31033 0.56385 0.0
C2862 C 0.10318 0.33824 0.59803 0.0
C2863 C 0.10977 0.32845 0.54649 0.0
C2864 C 0.11668 0.32858 0.50599 0.0
C2865 C 0.09729 0.3278 0.62437 0.0
C2866 C 0.09802 0.31771 0.61238 0.0
C2867 C 0.10397 0.31807 0.57296 0.0
C2868 C 0.09363 0.30704 0.6419 0.0
C2869 C 0.09044 0.32773 0.66487 0.0
C2870 C 0.09809 0.30814 0.6852 0.0
C2871 C 0.09532 0.29802 0.71097 0.0
C2872 C 0.08818 0.28659 0.69368 0.0
C2873 C 0.08338 0.28549 0.65088 0.0
C2874 C 0.08611 0.29563 0.62521 0.0
H2875 H 0.08727 0.33416 0.66072 0.0
H2876 H 0.08271 0.31873 0.67169 0.0
H2877 H 0.0963 0.33043 0.69433 0.0
H2878 H 0.10415 0.31683 0.69838 0.0
H2879 H 0.0992 0.29918 0.74373 0.0
H2880 H 0.02381 0.55479 0.91342 0.0
H2881 H 0.00585 0.54423 0.86961 0.0
H2882 H 0.02603 0.54209 0.7603 0.0
H2883 H 0.04415 0.55294 0.8035 0.0
H2884 H 0.01044 0.54857 0.7319 0.0
H2885 H 0.98771 0.50911 0.8442 0.0
H2886 H 0.99218 0.52269 0.87303 0.0
H2887 H 0.00321 0.51997 0.84929 0.0
C2888 C 0.02445 0.55202 0.88017 0.0
C2889 C 0.03542 0.55465 0.86212 0.0
C2890 C 0.01415 0.54593 0.85524 0.0
C2891 C 0.01457 0.54216 0.81204 0.0
C2892 C 0.02551 0.54485 0.7937 0.0
H2893 H 0.94843 0.49163 0.68655 0.0
H2894 H 0.96875 0.50154 0.71322 0.0
C2895 C 0.03585 0.55104 0.81849 0.0
C2896 C 0.00359 0.53564 0.78581 0.0
H2897 H 0.97562 0.5117 0.7907 0.0
C2898 C 0.00286 0.54043 0.74446 0.0
C2899 C 0.99379 0.5249 0.8018 0.0
C2900 C 0.99429 0.5188 0.84428 0.0
C2901 C 0.99242 0.53501 0.71949 0.0
C2902 C 0.98238 0.52469 0.73691 0.0
C2903 C 0.98327 0.51968 0.77748 0.0
C2904 C 0.97072 0.51909 0.71471 0.0
C2905 C 0.9923 0.54036 0.67464 0.0
C2906 C 0.96513 0.52569 0.70579 0.0
C2907 C 0.95355 0.52007 0.68993 0.0
C2908 C 0.94727 0.50769 0.68362 0.0
C2909 C 0.95301 0.50117 0.69127 0.0
C2910 C 0.96463 0.50682 0.70653 0.0
H2911 H 0.00133 0.54542 0.65982 0.0
H2912 H 0.98643 0.53341 0.65095 0.0
H2913 H 0.98904 0.54668 0.67883 0.0
H2914 H 0.96951 0.5351 0.71292 0.0
H2915 H 0.94933 0.52532 0.6848 0.0
H2916 H 0.45385 0.50501 0.76167 0.0
H2917 H 0.46188 0.49322 0.73161 0.0
H2918 H 0.43577 0.46237 0.8055 0.0
H2919 H 0.42748 0.47404 0.83527 0.0
H2920 H 0.47119 0.48047 0.77142 0.0
H2921 H 0.43054 0.45082 0.67716 0.0
H2922 H 0.43299 0.46441 0.70208 0.0
H2923 H 0.42824 0.45122 0.73597 0.0
C2924 C 0.44983 0.49574 0.7719 0.0
C2925 C 0.43993 0.49045 0.80064 0.0
C2926 C 0.45446 0.48901 0.75464 0.0
C2927 C 0.4493 0.47688 0.76569 0.0
C2928 C 0.43973 0.47167 0.7958 0.0
H2929 H 0.47985 0.43276 0.7018 0.0
H2930 H 0.47281 0.44448 0.73995 0.0
C2931 C 0.43505 0.47838 0.81299 0.0
C2932 C 0.45377 0.46967 0.74459 0.0
H2933 H 0.44582 0.4462 0.67571 0.0
C2934 C 0.46565 0.47296 0.75056 0.0
C2935 C 0.44656 0.46 0.71681 0.0
C2936 C 0.4339 0.45644 0.70718 0.0
C2937 C 0.47052 0.46681 0.72964 0.0
C2938 C 0.46323 0.45697 0.70267 0.0
C2939 C 0.45136 0.4537 0.69663 0.0
C2940 C 0.46778 0.45006 0.67958 0.0
C2941 C 0.48348 0.4711 0.73565 0.0
C2942 C 0.46707 0.4491 0.633 0.0
C2943 C 0.47097 0.4423 0.61105 0.0
C2944 C 0.47566 0.4363 0.63528 0.0
C2945 C 0.47638 0.43732 0.68199 0.0
C2946 C 0.47242 0.44408 0.70391 0.0
H2947 H 0.48842 0.48045 0.74703 0.0
H2948 H 0.48449 0.46544 0.76129 0.0
H2949 H 0.48756 0.47048 0.70411 0.0
H2950 H 0.46347 0.45361 0.6136 0.0
H2951 H 0.47027 0.44171 0.5751 0.0
H2952 H 0.50615 0.96116 0.75395 0.0
H2953 H 0.51982 0.98202 0.73577 0.0
H2954 H 0.54778 0.98001 0.80363 0.0
H2955 H 0.53408 0.95897 0.82238 0.0
H2956 H 0.5455 1e-05 0.82604 0.0
H2957 H 0.54701 0.99554 0.64318 0.0
H2958 H 0.53223 0.98851 0.66532 0.0
H2959 H 0.54184 0.98301 0.68152 0.0
C2960 C 0.5152 0.96508 0.76505 0.0
C2961 C 0.519 0.95834 0.78961 0.0
C2962 C 0.52303 0.97701 0.75428 0.0
C2963 C 0.53485 0.98248 0.76765 0.0
C2964 C 0.5387 0.97589 0.79265 0.0
H2965 H 0.58371 0.0557 0.67226 0.0
H2966 H 0.57563 0.03456 0.6911 0.0
C2967 C 0.53086 0.96388 0.80333 0.0
C2968 C 0.54293 0.99524 0.75684 0.0
H2969 H 0.55324 0.01518 0.6696 0.0
C2970 C 0.54737 0.00333 0.79187 0.0
C2971 C 0.54549 -0.00047 0.71225 0.0
C2972 C 0.54149 0.99119 0.67338 0.0
C2973 C 0.55372 0.01566 0.78341 0.0
C2974 C 0.55553 0.01996 0.7388 0.0
C2975 C 0.55171 0.01186 0.70378 0.0
C2976 C 0.56061 0.03278 0.72791 0.0
C2977 C 0.55825 0.02399 0.82229 0.0
C2978 C 0.55471 0.03868 0.74164 0.0
C2979 C 0.55924 0.05069 0.73082 0.0
C2980 C 0.56977 0.05706 0.70583 0.0
C2981 C 0.5756 0.05108 0.69162 0.0
C2982 C 0.57102 0.03901 0.70239 0.0
H2983 H 0.5593 0.01955 0.85244 0.0
H2984 H 0.56687 0.03206 0.81414 0.0
H2985 H 0.55181 0.02686 0.83046 0.0
H2986 H 0.54652 0.03395 0.7605 0.0
H2987 H 0.55448 0.05496 0.74227 0.0
H2988 H 0.47525 0.04725 0.22658 0.0
H2989 H 0.46217 0.02855 0.26631 0.0
H2990 H 0.43967 0.01574 0.15135 0.0
H2991 H 0.45272 0.0344 0.11112 0.0
H2992 H 0.43621 0.01532 0.28383 0.0
H2993 H 0.45225 0.99215 0.17399 0.0
H2994 H 0.45997 0.00816 0.17836 0.0
H2995 H 0.44656 0.00065 0.14706 0.0
C2996 C 0.46744 0.04053 0.2099 0.0
C2997 C 0.46511 0.04224 0.16546 0.0
C2998 C 0.45996 0.02988 0.23273 0.0
C2999 C 0.45007 0.02076 0.2115 0.0
C3000 C 0.44735 0.02266 0.16806 0.0
H3001 H 0.41222 0.94599 0.29588 0.0
H3002 H 0.4171 0.96442 0.25551 0.0
C3003 C 0.45481 0.03333 0.14519 0.0
C3004 C 0.44326 0.00893 0.23356 0.0
H3005 H 0.43904 0.98085 0.23138 0.0
C3006 C 0.4367 0.00773 0.27222 0.0
C3007 C 0.44393 -0.00092 0.21812 0.0
C3008 C 0.4511 1e-05 0.17728 0.0
C3009 C 0.4309 0.9969 0.29634 0.0
C3010 C 0.43196 0.98717 0.28187 0.0
C3011 C 0.43821 0.9883 0.24237 0.0
C3012 C 0.42752 0.97603 0.3087 0.0
C3013 C 0.42372 0.99601 0.33705 0.0
C3014 C 0.43162 0.97643 0.35221 0.0
C3015 C 0.4288 0.96593 0.37543 0.0
C3016 C 0.42196 0.95482 0.35531 0.0
C3017 C 0.41753 0.95441 0.31227 0.0
C3018 C 0.4203 0.96493 0.28917 0.0
H3019 H 0.42041 0.00235 0.33466 0.0
H3020 H 0.41607 0.98686 0.34188 0.0
H3021 H 0.42941 0.99831 0.36694 0.0
H3022 H 0.43746 0.98489 0.36754 0.0
H3023 H 0.4324 0.96656 0.40845 0.0
H3024 H 0.02225 0.4508 0.45229 0.0
H3025 H 0.00383 0.43876 0.41212 0.0
H3026 H 0.02353 0.44496 0.28978 0.0
H3027 H 0.04199 0.45688 0.32965 0.0
H3028 H 0.99693 0.44842 0.34443 0.0
H3029 H -0.001 0.40955 0.28311 0.0
H3030 H 0.00819 0.41871 0.32778 0.0
H3031 H 0.0121 0.42353 0.27065 0.0
C3032 C 0.02269 0.44939 0.41702 0.0
C3033 C 0.03359 0.45487 0.39411 0.0
C3034 C 0.01215 0.4425 0.39415 0.0
C3035 C 0.01232 0.44088 0.34808 0.0
C3036 C 0.02321 0.44588 0.32549 0.0
H3037 H 0.96636 0.42279 0.12568 0.0
H3038 H 0.98211 0.42702 0.17857 0.0
C3039 C 0.03376 0.45278 0.34832 0.0
C3040 C 0.00115 0.43529 0.32269 0.0
H3041 H 0.98515 0.41379 0.24696 0.0
C3042 C 0.99423 0.44072 0.3237 0.0
C3043 C 0.99773 0.42531 0.29546 0.0
C3044 C 0.00458 0.41886 0.29442 0.0
C3045 C 0.98425 0.43676 0.29674 0.0
C3046 C 0.98095 0.42694 0.26873 0.0
C3047 C 0.98769 0.4213 0.26856 0.0
C3048 C 0.97102 0.42298 0.23718 0.0
C3049 C 0.97767 0.44352 0.29692 0.0
C3050 C 0.95948 0.41895 0.25261 0.0
C3051 C 0.95046 0.41661 0.22245 0.0
C3052 C 0.95282 0.41817 0.17633 0.0
C3053 C 0.96425 0.42157 0.16097 0.0
C3054 C 0.97327 0.42396 0.19114 0.0
H3055 H 0.98286 0.45235 0.31271 0.0
H3056 H 0.97543 0.44489 0.26246 0.0
H3057 H 0.96929 0.4383 0.31607 0.0
H3058 H 0.95753 0.41791 0.28802 0.0
H3059 H 0.94172 0.41389 0.23534 0.0
H3060 H 0.57901 0.52643 0.19588 0.0
H3061 H 0.57372 0.53914 0.23713 0.0
H3062 H 0.57141 0.55529 0.11382 0.0
H3063 H 0.57657 0.5425 0.07201 0.0
H3064 H 0.58315 0.56461 0.24009 0.0
H3065 H 0.53782 0.53958 0.16977 0.0
H3066 H 0.54814 0.53429 0.16596 0.0
H3067 H 0.54983 0.54626 0.13021 0.0
C3068 C 0.57754 0.53279 0.17747 0.0
C3069 C 0.57802 0.53333 0.13059 0.0
C3070 C 0.57456 0.54008 0.20115 0.0
C3071 C 0.57201 0.548 0.17842 0.0
C3072 C 0.57319 0.54909 0.13185 0.0
H3073 H 0.53318 0.57996 0.28975 0.0
H3074 H 0.54553 0.57616 0.23939 0.0
C3075 C 0.57616 0.5418 0.10806 0.0
C3076 C 0.5671 0.55425 0.20341 0.0
H3077 H 0.54139 0.55416 0.22206 0.0
C3078 C 0.57406 0.56245 0.23589 0.0
C3079 C 0.55524 0.55139 0.19777 0.0
C3080 C 0.54725 0.54234 0.16432 0.0
C3081 C 0.5694 0.56773 0.26348 0.0
C3082 C 0.55741 0.56452 0.25892 0.0
C3083 C 0.55059 0.55664 0.2254 0.0
C3084 C 0.55141 0.56844 0.29047 0.0
C3085 C 0.57733 0.57665 0.29731 0.0
C3086 C 0.55072 0.56548 0.336 0.0
C3087 C 0.5437 0.56767 0.3649 0.0
C3088 C 0.53711 0.57272 0.34865 0.0
C3089 C 0.53811 0.57602 0.3033 0.0
C3090 C 0.54518 0.57388 0.27447 0.0
H3091 H 0.58676 0.58104 0.28683 0.0
H3092 H 0.57493 0.5836 0.30262 0.0
H3093 H 0.57641 0.57196 0.3296 0.0
H3094 H 0.5552 0.561 0.3489 0.0
H3095 H 0.5431 0.56498 0.3996 0.0
loop_
_geom_bond_atom_site_label_1
_geom_bond_atom_site_label_2
_geom_bond_distance
_geom_bond_site_symmetry_2
_ccdc_geom_bond_type
Mg0 O1 2.028 . S
Mg0 O7 1.986 . S
Mg0 O9 2.114 . S
Mg0 O10 2.251 . S
Mg0 O13 2.010 . S
O1 Mg0 2.028 . S
O1 C4 1.250 . S
O2 Mg3 2.028 . S
O2 C4 1.248 . S
Mg3 O2 2.028 . S
Mg3 O8 2.032 . S
Mg3 O10 2.079 . S
C4 O1 1.250 . S
C4 O2 1.248 . S
C5 O6 1.264 . S
C5 O13 1.249 . S
O6 C5 1.264 . S
O7 Mg0 1.986 . S
O7 C11 1.246 . S
O8 Mg3 2.032 . S
O8 C11 1.259 . S
O9 Mg0 2.114 . S
O9 C12 1.252 . S
O10 Mg0 2.251 . S
O10 Mg3 2.079 . S
O10 C12 1.273 . S
C11 O7 1.246 . S
C11 O8 1.259 . S
C12 O9 1.252 . S
C12 O10 1.273 . S
O13 Mg0 2.010 . S
O13 C5 1.249 . S
Mg14 O15 2.028 . S
Mg14 O21 1.986 . S
Mg14 O23 2.114 . S
Mg14 O24 2.251 . S
Mg14 O27 2.010 . S
O15 Mg14 2.028 . S
O15 C18 1.250 . S
O16 Mg17 2.028 . S
O16 C18 1.248 . S
Mg17 O16 2.028 . S
Mg17 O22 2.032 . S
Mg17 O24 2.079 . S
C18 O15 1.250 . S
C18 O16 1.248 . S
C19 O20 1.264 . S
C19 O27 1.249 . S
O20 C19 1.264 . S
O21 Mg14 1.986 . S
O21 C25 1.246 . S
O22 Mg17 2.032 . S
O22 C25 1.259 . S
O23 Mg14 2.114 . S
O23 C26 1.252 . S
O24 Mg14 2.251 . S
O24 Mg17 2.079 . S
O24 C26 1.273 . S
C25 O21 1.246 . S
C25 O22 1.259 . S
C26 O23 1.252 . S
C26 O24 1.273 . S
O27 Mg14 2.010 . S
O27 C19 1.249 . S
Mg28 O29 2.028 . S
Mg28 O35 1.986 . S
Mg28 O37 2.114 . S
Mg28 O38 2.251 . S
Mg28 O41 2.010 . S
O29 Mg28 2.028 . S
O29 C32 1.250 . S
O30 Mg31 2.028 . S
O30 C32 1.248 . S
Mg31 O30 2.028 . S
Mg31 O36 2.032 . S
Mg31 O38 2.079 . S
C32 O29 1.250 . S
C32 O30 1.248 . S
C33 O34 1.264 . S
C33 O41 1.249 . S
O34 C33 1.264 . S
O35 Mg28 1.986 . S
O35 C39 1.246 . S
O36 Mg31 2.032 . S
O36 C39 1.259 . S
O37 Mg28 2.114 . S
O37 C40 1.252 . S
O38 Mg28 2.251 . S
O38 Mg31 2.079 . S
O38 C40 1.273 . S
C39 O35 1.246 . S
C39 O36 1.259 . S
C40 O37 1.252 . S
C40 O38 1.273 . S
O41 Mg28 2.010 . S
O41 C33 1.249 . S
Mg42 O43 2.028 . S
Mg42 O49 1.986 . S
Mg42 O51 2.114 . S
Mg42 O52 2.251 . S
Mg42 O55 2.010 . S
O43 Mg42 2.028 . S
O43 C46 1.250 . S
O44 Mg45 2.028 . S
O44 C46 1.248 . S
Mg45 O44 2.028 . S
Mg45 O50 2.032 . S
Mg45 O52 2.079 . S
C46 O43 1.250 . S
C46 O44 1.248 . S
C47 O48 1.264 . S
C47 O55 1.249 . S
O48 C47 1.264 . S
O49 Mg42 1.986 . S
O49 C53 1.246 . S
O50 Mg45 2.032 . S
O50 C53 1.259 . S
O51 Mg42 2.114 . S
O51 C54 1.252 . S
O52 Mg42 2.251 . S
O52 Mg45 2.079 . S
O52 C54 1.273 . S
C53 O49 1.246 . S
C53 O50 1.259 . S
C54 O51 1.252 . S
C54 O52 1.273 . S
O55 Mg42 2.010 . S
O55 C47 1.249 . S
Mg56 O57 2.028 . S
Mg56 O63 1.986 . S
Mg56 O65 2.114 . S
Mg56 O66 2.251 . S
Mg56 O69 2.010 . S
O57 Mg56 2.028 . S
O57 C60 1.250 . S
O58 Mg59 2.028 . S
O58 C60 1.248 . S
Mg59 O58 2.028 . S
Mg59 O64 2.032 . S
Mg59 O66 2.079 . S
C60 O57 1.250 . S
C60 O58 1.248 . S
C61 O62 1.264 . S
C61 O69 1.249 . S
O62 C61 1.264 . S
O63 Mg56 1.986 . S
O63 C67 1.246 . S
O64 Mg59 2.032 . S
O64 C67 1.259 . S
O65 Mg56 2.114 . S
O65 C68 1.252 . S
O66 Mg56 2.251 . S
O66 Mg59 2.079 . S
O66 C68 1.273 . S
C67 O63 1.246 . S
C67 O64 1.259 . S
C68 O65 1.252 . S
C68 O66 1.273 . S
O69 Mg56 2.010 . S
O69 C61 1.249 . S
Mg70 O71 2.028 . S
Mg70 O77 1.986 . S
Mg70 O79 2.114 . S
Mg70 O80 2.251 . S
Mg70 O83 2.010 . S
O71 Mg70 2.028 . S
O71 C74 1.250 . S
O72 Mg73 2.028 . S
O72 C74 1.248 . S
Mg73 O72 2.028 . S
Mg73 O78 2.032 . S
Mg73 O80 2.079 . S
C74 O71 1.250 . S
C74 O72 1.248 . S
C75 O76 1.264 . S
C75 O83 1.249 . S
O76 C75 1.264 . S
O77 Mg70 1.986 . S
O77 C81 1.246 . S
O78 Mg73 2.032 . S
O78 C81 1.259 . S
O79 Mg70 2.114 . S
O79 C82 1.252 . S
O80 Mg70 2.251 . S
O80 Mg73 2.079 . S
O80 C82 1.273 . S
C81 O77 1.246 . S
C81 O78 1.259 . S
C82 O79 1.252 . S
C82 O80 1.273 . S
O83 Mg70 2.010 . S
O83 C75 1.249 . S
Mg84 O85 2.028 . S
Mg84 O91 1.986 . S
Mg84 O93 2.114 . S
Mg84 O94 2.251 . S
Mg84 O97 2.010 . S
O85 Mg84 2.028 . S
O85 C88 1.250 . S
O86 Mg87 2.028 . S
O86 C88 1.248 . S
Mg87 O86 2.028 . S
Mg87 O92 2.032 . S
Mg87 O94 2.079 . S
C88 O85 1.250 . S
C88 O86 1.248 . S
C89 O90 1.264 . S
C89 O97 1.249 . S
O90 C89 1.264 . S
O91 Mg84 1.986 . S
O91 C95 1.246 . S
O92 Mg87 2.032 . S
O92 C95 1.259 . S
O93 Mg84 2.114 . S
O93 C96 1.252 . S
O94 Mg84 2.251 . S
O94 Mg87 2.079 . S
O94 C96 1.273 . S
C95 O91 1.246 . S
C95 O92 1.259 . S
C96 O93 1.252 . S
C96 O94 1.273 . S
O97 Mg84 2.010 . S
O97 C89 1.249 . S
Mg98 O99 2.028 . S
Mg98 O105 1.986 . S
Mg98 O107 2.114 . S
Mg98 O108 2.251 . S
Mg98 O111 2.010 . S
O99 Mg98 2.028 . S
O99 C102 1.250 . S
O100 Mg101 2.028 . S
O100 C102 1.248 . S
Mg101 O100 2.028 . S
Mg101 O106 2.032 . S
Mg101 O108 2.079 . S
C102 O99 1.250 . S
C102 O100 1.248 . S
C103 O104 1.264 . S
C103 O111 1.249 . S
O104 C103 1.264 . S
O105 Mg98 1.986 . S
O105 C109 1.246 . S
O106 Mg101 2.032 . S
O106 C109 1.259 . S
O107 Mg98 2.114 . S
O107 C110 1.252 . S
O108 Mg98 2.251 . S
O108 Mg101 2.079 . S
O108 C110 1.273 . S
C109 O105 1.246 . S
C109 O106 1.259 . S
C110 O107 1.252 . S
C110 O108 1.273 . S
O111 Mg98 2.010 . S
O111 C103 1.249 . S
Mg112 O113 2.028 . S
Mg112 O119 1.986 . S
Mg112 O121 2.114 . S
Mg112 O122 2.251 . S
Mg112 O125 2.010 . S
O113 Mg112 2.028 . S
O113 C116 1.250 . S
O114 Mg115 2.028 . S
O114 C116 1.248 . S
Mg115 O114 2.028 . S
Mg115 O120 2.032 . S
Mg115 O122 2.079 . S
C116 O113 1.250 . S
C116 O114 1.248 . S
C117 O118 1.264 . S
C117 O125 1.249 . S
O118 C117 1.264 . S
O119 Mg112 1.986 . S
O119 C123 1.246 . S
O120 Mg115 2.032 . S
O120 C123 1.259 . S
O121 Mg112 2.114 . S
O121 C124 1.252 . S
O122 Mg112 2.251 . S
O122 Mg115 2.079 . S
O122 C124 1.273 . S
C123 O119 1.246 . S
C123 O120 1.259 . S
C124 O121 1.252 . S
C124 O122 1.273 . S
O125 Mg112 2.010 . S
O125 C117 1.249 . S
Mg126 O127 2.028 . S
Mg126 O133 1.986 . S
Mg126 O135 2.114 . S
Mg126 O136 2.251 . S
Mg126 O139 2.010 . S
O127 Mg126 2.028 . S
O127 C130 1.250 . S
O128 Mg129 2.028 . S
O128 C130 1.248 . S
Mg129 O128 2.028 . S
Mg129 O134 2.032 . S
Mg129 O136 2.079 . S
C130 O127 1.250 . S
C130 O128 1.248 . S
C131 O132 1.264 . S
C131 O139 1.249 . S
O132 C131 1.264 . S
O133 Mg126 1.986 . S
O133 C137 1.246 . S
O134 Mg129 2.032 . S
O134 C137 1.259 . S
O135 Mg126 2.114 . S
O135 C138 1.252 . S
O136 Mg126 2.251 . S
O136 Mg129 2.079 . S
O136 C138 1.273 . S
C137 O133 1.246 . S
C137 O134 1.259 . S
C138 O135 1.252 . S
C138 O136 1.273 . S
O139 Mg126 2.010 . S
O139 C131 1.249 . S
Mg140 O141 2.028 . S
Mg140 O147 1.986 . S
Mg140 O149 2.114 . S
Mg140 O150 2.251 . S
Mg140 O153 2.010 . S
O141 Mg140 2.028 . S
O141 C144 1.250 . S
O142 Mg143 2.028 . S
O142 C144 1.248 . S
Mg143 O142 2.028 . S
Mg143 O148 2.032 . S
Mg143 O150 2.079 . S
C144 O141 1.250 . S
C144 O142 1.248 . S
C145 O146 1.264 . S
C145 O153 1.249 . S
O146 C145 1.264 . S
O147 Mg140 1.986 . S
O147 C151 1.246 . S
O148 Mg143 2.032 . S
O148 C151 1.259 . S
O149 Mg140 2.114 . S
O149 C152 1.252 . S
O150 Mg140 2.251 . S
O150 Mg143 2.079 . S
O150 C152 1.273 . S
C151 O147 1.246 . S
C151 O148 1.259 . S
C152 O149 1.252 . S
C152 O150 1.273 . S
O153 Mg140 2.010 . S
O153 C145 1.249 . S
Mg154 O155 2.028 . S
Mg154 O161 1.986 . S
Mg154 O163 2.114 . S
Mg154 O164 2.251 . S
Mg154 O167 2.010 . S
O155 Mg154 2.028 . S
O155 C158 1.250 . S
O156 Mg157 2.028 . S
O156 C158 1.248 . S
Mg157 O156 2.028 . S
Mg157 O162 2.032 . S
Mg157 O164 2.079 . S
C158 O155 1.250 . S
C158 O156 1.248 . S
C159 O160 1.264 . S
C159 O167 1.249 . S
O160 C159 1.264 . S
O161 Mg154 1.986 . S
O161 C165 1.246 . S
O162 Mg157 2.032 . S
O162 C165 1.259 . S
O163 Mg154 2.114 . S
O163 C166 1.252 . S
O164 Mg154 2.251 . S
O164 Mg157 2.079 . S
O164 C166 1.273 . S
C165 O161 1.246 . S
C165 O162 1.259 . S
C166 O163 1.252 . S
C166 O164 1.273 . S
O167 Mg154 2.010 . S
O167 C159 1.249 . S
Mg168 O169 2.028 . S
Mg168 O175 1.986 . S
Mg168 O177 2.114 . S
Mg168 O178 2.251 . S
Mg168 O181 2.010 . S
O169 Mg168 2.028 . S
O169 C172 1.250 . S
O170 Mg171 2.028 . S
O170 C172 1.248 . S
Mg171 O170 2.028 . S
Mg171 O176 2.032 . S
Mg171 O178 2.079 . S
C172 O169 1.250 . S
C172 O170 1.248 . S
C173 O174 1.264 . S
C173 O181 1.249 . S
O174 C173 1.264 . S
O175 Mg168 1.986 . S
O175 C179 1.246 . S
O176 Mg171 2.032 . S
O176 C179 1.259 . S
O177 Mg168 2.114 . S
O177 C180 1.252 . S
O178 Mg168 2.251 . S
O178 Mg171 2.079 . S
O178 C180 1.273 . S
C179 O175 1.246 . S
C179 O176 1.259 . S
C180 O177 1.252 . S
C180 O178 1.273 . S
O181 Mg168 2.010 . S
O181 C173 1.249 . S
Mg182 O183 2.028 . S
Mg182 O189 1.986 . S
Mg182 O191 2.114 . S
Mg182 O192 2.251 . S
Mg182 O195 2.010 . S
O183 Mg182 2.028 . S
O183 C186 1.250 . S
O184 Mg185 2.028 . S
O184 C186 1.248 . S
Mg185 O184 2.028 . S
Mg185 O190 2.032 . S
Mg185 O192 2.079 . S
C186 O183 1.250 . S
C186 O184 1.248 . S
C187 O188 1.264 . S
C187 O195 1.249 . S
O188 C187 1.264 . S
O189 Mg182 1.986 . S
O189 C193 1.246 . S
O190 Mg185 2.032 . S
O190 C193 1.259 . S
O191 Mg182 2.114 . S
O191 C194 1.252 . S
O192 Mg182 2.251 . S
O192 Mg185 2.079 . S
O192 C194 1.273 . S
C193 O189 1.246 . S
C193 O190 1.259 . S
C194 O191 1.252 . S
C194 O192 1.273 . S
O195 Mg182 2.010 . S
O195 C187 1.249 . S
Mg196 O197 2.028 . S
Mg196 O203 1.986 . S
Mg196 O205 2.114 . S
Mg196 O206 2.251 . S
Mg196 O209 2.010 . S
O197 Mg196 2.028 . S
O197 C200 1.250 . S
O198 Mg199 2.028 . S
O198 C200 1.248 . S
Mg199 O198 2.028 . S
Mg199 O204 2.032 . S
Mg199 O206 2.079 . S
C200 O197 1.250 . S
C200 O198 1.248 . S
C201 O202 1.264 . S
C201 O209 1.249 . S
O202 C201 1.264 . S
O203 Mg196 1.986 . S
O203 C207 1.246 . S
O204 Mg199 2.032 . S
O204 C207 1.259 . S
O205 Mg196 2.114 . S
O205 C208 1.252 . S
O206 Mg196 2.251 . S
O206 Mg199 2.079 . S
O206 C208 1.273 . S
C207 O203 1.246 . S
C207 O204 1.259 . S
C208 O205 1.252 . S
C208 O206 1.273 . S
O209 Mg196 2.010 . S
O209 C201 1.249 . S
Mg210 O211 2.028 . S
Mg210 O217 1.986 . S
Mg210 O219 2.114 . S
Mg210 O220 2.251 . S
Mg210 O223 2.010 . S
O211 Mg210 2.028 . S
O211 C214 1.250 . S
O212 Mg213 2.028 . S
O212 C214 1.248 . S
Mg213 O212 2.028 . S
Mg213 O218 2.032 . S
Mg213 O220 2.079 . S
C214 O211 1.250 . S
C214 O212 1.248 . S
C215 O216 1.264 . S
C215 O223 1.249 . S
O216 C215 1.264 . S
O217 Mg210 1.986 . S
O217 C221 1.246 . S
O218 Mg213 2.032 . S
O218 C221 1.259 . S
O219 Mg210 2.114 . S
O219 C222 1.252 . S
O220 Mg210 2.251 . S
O220 Mg213 2.079 . S
O220 C222 1.273 . S
C221 O217 1.246 . S
C221 O218 1.259 . S
C222 O219 1.252 . S
C222 O220 1.273 . S
O223 Mg210 2.010 . S
O223 C215 1.249 . S
Mg224 O225 2.028 . S
Mg224 O231 1.986 . S
Mg224 O233 2.114 . S
Mg224 O234 2.251 . S
Mg224 O237 2.010 . S
O225 Mg224 2.028 . S
O225 C228 1.250 . S
O226 Mg227 2.028 . S
O226 C228 1.248 . S
Mg227 O226 2.028 . S
Mg227 O232 2.032 . S
Mg227 O234 2.079 . S
C228 O225 1.250 . S
C228 O226 1.248 . S
C229 O230 1.264 . S
C229 O237 1.249 . S
O230 C229 1.264 . S
O231 Mg224 1.986 . S
O231 C235 1.246 . S
O232 Mg227 2.032 . S
O232 C235 1.259 . S
O233 Mg224 2.114 . S
O233 C236 1.252 . S
O234 Mg224 2.251 . S
O234 Mg227 2.079 . S
O234 C236 1.273 . S
C235 O231 1.246 . S
C235 O232 1.259 . S
C236 O233 1.252 . S
C236 O234 1.273 . S
O237 Mg224 2.010 . S
O237 C229 1.249 . S
Mg238 O239 2.028 . S
Mg238 O245 1.986 . S
Mg238 O247 2.114 . S
Mg238 O248 2.251 . S
Mg238 O251 2.010 . S
O239 Mg238 2.028 . S
O239 C242 1.250 . S
O240 Mg241 2.028 . S
O240 C242 1.248 . S
Mg241 O240 2.028 . S
Mg241 O246 2.032 . S
Mg241 O248 2.079 . S
C242 O239 1.250 . S
C242 O240 1.248 . S
C243 O244 1.264 . S
C243 O251 1.249 . S
O244 C243 1.264 . S
O245 Mg238 1.986 . S
O245 C249 1.246 . S
O246 Mg241 2.032 . S
O246 C249 1.259 . S
O247 Mg238 2.114 . S
O247 C250 1.252 . S
O248 Mg238 2.251 . S
O248 Mg241 2.079 . S
O248 C250 1.273 . S
C249 O245 1.246 . S
C249 O246 1.259 . S
C250 O247 1.252 . S
C250 O248 1.273 . S
O251 Mg238 2.010 . S
O251 C243 1.249 . S
Mg252 O253 2.028 . S
Mg252 O259 1.986 . S
Mg252 O261 2.114 . S
Mg252 O262 2.251 . S
Mg252 O265 2.010 . S
O253 Mg252 2.028 . S
O253 C256 1.250 . S
O254 Mg255 2.028 . S
O254 C256 1.248 . S
Mg255 O254 2.028 . S
Mg255 O260 2.032 . S
Mg255 O262 2.079 . S
C256 O253 1.250 . S
C256 O254 1.248 . S
C257 O258 1.264 . S
C257 O265 1.249 . S
O258 C257 1.264 . S
O259 Mg252 1.986 . S
O259 C263 1.246 . S
O260 Mg255 2.032 . S
O260 C263 1.259 . S
O261 Mg252 2.114 . S
O261 C264 1.252 . S
O262 Mg252 2.251 . S
O262 Mg255 2.079 . S
O262 C264 1.273 . S
C263 O259 1.246 . S
C263 O260 1.259 . S
C264 O261 1.252 . S
C264 O262 1.273 . S
O265 Mg252 2.010 . S
O265 C257 1.249 . S
Mg266 O267 2.028 . S
Mg266 O273 1.986 . S
Mg266 O275 2.114 . S
Mg266 O276 2.251 . S
Mg266 O279 2.010 . S
O267 Mg266 2.028 . S
O267 C270 1.250 . S
O268 Mg269 2.028 . S
O268 C270 1.248 . S
Mg269 O268 2.028 . S
Mg269 O274 2.032 . S
Mg269 O276 2.079 . S
C270 O267 1.250 . S
C270 O268 1.248 . S
C271 O272 1.264 . S
C271 O279 1.249 . S
O272 C271 1.264 . S
O273 Mg266 1.986 . S
O273 C277 1.246 . S
O274 Mg269 2.032 . S
O274 C277 1.259 . S
O275 Mg266 2.114 . S
O275 C278 1.252 . S
O276 Mg266 2.251 . S
O276 Mg269 2.079 . S
O276 C278 1.273 . S
C277 O273 1.246 . S
C277 O274 1.259 . S
C278 O275 1.252 . S
C278 O276 1.273 . S
O279 Mg266 2.010 . S
O279 C271 1.249 . S
Mg280 O281 2.028 . S
Mg280 O287 1.986 . S
Mg280 O289 2.114 . S
Mg280 O290 2.251 . S
Mg280 O293 2.010 . S
O281 Mg280 2.028 . S
O281 C284 1.250 . S
O282 Mg283 2.028 . S
O282 C284 1.248 . S
Mg283 O282 2.028 . S
Mg283 O288 2.032 . S
Mg283 O290 2.079 . S
C284 O281 1.250 . S
C284 O282 1.248 . S
C285 O286 1.264 . S
C285 O293 1.249 . S
O286 C285 1.264 . S
O287 Mg280 1.986 . S
O287 C291 1.246 . S
O288 Mg283 2.032 . S
O288 C291 1.259 . S
O289 Mg280 2.114 . S
O289 C292 1.252 . S
O290 Mg280 2.251 . S
O290 Mg283 2.079 . S
O290 C292 1.273 . S
C291 O287 1.246 . S
C291 O288 1.259 . S
C292 O289 1.252 . S
C292 O290 1.273 . S
O293 Mg280 2.010 . S
O293 C285 1.249 . S
Mg294 O295 2.028 1_554 S
Mg294 O301 1.986 . S
Mg294 O303 2.114 . S
Mg294 O304 2.251 . S
Mg294 O307 2.010 . S
O295 Mg294 2.028 1_556 S
O295 C298 1.250 . S
O296 Mg297 2.028 1_556 S
O296 C298 1.248 . S
Mg297 O296 2.028 1_554 S
Mg297 O302 2.032 . S
Mg297 O304 2.079 . S
C298 O295 1.250 . S
C298 O296 1.248 . S
C299 O300 1.264 1_556 S
C299 O307 1.249 1_556 S
O300 C299 1.264 1_554 S
O301 Mg294 1.986 . S
O301 C305 1.246 . S
O302 Mg297 2.032 . S
O302 C305 1.259 . S
O303 Mg294 2.114 . S
O303 C306 1.252 . S
O304 Mg294 2.251 . S
O304 Mg297 2.079 . S
O304 C306 1.273 . S
C305 O301 1.246 . S
C305 O302 1.259 . S
C306 O303 1.252 . S
C306 O304 1.273 . S
O307 Mg294 2.010 . S
O307 C299 1.249 1_554 S
Mg308 O309 2.028 1_554 S
Mg308 O315 1.986 . S
Mg308 O317 2.114 . S
Mg308 O318 2.251 . S
Mg308 O321 2.010 . S
O309 Mg308 2.028 1_556 S
O309 C312 1.250 . S
O310 Mg311 2.028 1_556 S
O310 C312 1.248 . S
Mg311 O310 2.028 1_554 S
Mg311 O316 2.032 . S
Mg311 O318 2.079 . S
C312 O309 1.250 . S
C312 O310 1.248 . S
C313 O314 1.264 . S
C313 O321 1.249 . S
O314 C313 1.264 . S
O315 Mg308 1.986 . S
O315 C319 1.246 . S
O316 Mg311 2.032 . S
O316 C319 1.259 . S
O317 Mg308 2.114 . S
O317 C320 1.252 . S
O318 Mg308 2.251 . S
O318 Mg311 2.079 . S
O318 C320 1.273 . S
C319 O315 1.246 . S
C319 O316 1.259 . S
C320 O317 1.252 . S
C320 O318 1.273 . S
O321 Mg308 2.010 . S
O321 C313 1.249 . S
Mg322 O323 2.028 1_554 S
Mg322 O329 1.986 . S
Mg322 O331 2.114 . S
Mg322 O332 2.251 . S
Mg322 O335 2.010 . S
O323 Mg322 2.028 1_556 S
O323 C326 1.250 . S
O324 Mg325 2.028 1_556 S
O324 C326 1.248 . S
Mg325 O324 2.028 1_554 S
Mg325 O330 2.032 . S
Mg325 O332 2.079 . S
C326 O323 1.250 . S
C326 O324 1.248 . S
C327 O328 1.264 . S
C327 O335 1.249 . S
O328 C327 1.264 . S
O329 Mg322 1.986 . S
O329 C333 1.246 . S
O330 Mg325 2.032 . S
O330 C333 1.259 . S
O331 Mg322 2.114 . S
O331 C334 1.252 . S
O332 Mg322 2.251 . S
O332 Mg325 2.079 . S
O332 C334 1.273 . S
C333 O329 1.246 . S
C333 O330 1.259 . S
C334 O331 1.252 . S
C334 O332 1.273 . S
O335 Mg322 2.010 . S
O335 C327 1.249 . S
Mg336 O337 2.028 . S
Mg336 O343 1.986 . S
Mg336 O345 2.114 . S
Mg336 O346 2.251 . S
Mg336 O349 2.010 . S
O337 Mg336 2.028 . S
O337 C340 1.250 . S
O338 Mg339 2.028 . S
O338 C340 1.248 . S
Mg339 O338 2.028 . S
Mg339 O344 2.032 . S
Mg339 O346 2.079 . S
C340 O337 1.250 . S
C340 O338 1.248 . S
C341 O342 1.264 . S
C341 O349 1.249 . S
O342 C341 1.264 . S
O343 Mg336 1.986 . S
O343 C347 1.246 . S
O344 Mg339 2.032 . S
O344 C347 1.259 . S
O345 Mg336 2.114 . S
O345 C348 1.252 . S
O346 Mg336 2.251 . S
O346 Mg339 2.079 . S
O346 C348 1.273 . S
C347 O343 1.246 . S
C347 O344 1.259 . S
C348 O345 1.252 . S
C348 O346 1.273 . S
O349 Mg336 2.010 . S
O349 C341 1.249 . S
Mg350 O351 2.028 . S
Mg350 O357 1.986 . S
Mg350 O359 2.114 . S
Mg350 O360 2.251 . S
Mg350 O363 2.010 . S
O351 Mg350 2.028 . S
O351 C354 1.250 . S
O352 Mg353 2.028 . S
O352 C354 1.248 . S
Mg353 O352 2.028 . S
Mg353 O358 2.032 . S
Mg353 O360 2.079 . S
C354 O351 1.250 . S
C354 O352 1.248 . S
C355 O356 1.264 . S
C355 O363 1.249 . S
O356 C355 1.264 . S
O357 Mg350 1.986 . S
O357 C361 1.246 . S
O358 Mg353 2.032 . S
O358 C361 1.259 . S
O359 Mg350 2.114 . S
O359 C362 1.252 . S
O360 Mg350 2.251 . S
O360 Mg353 2.079 . S
O360 C362 1.273 . S
C361 O357 1.246 . S
C361 O358 1.259 . S
C362 O359 1.252 . S
C362 O360 1.273 . S
O363 Mg350 2.010 . S
O363 C355 1.249 . S
Mg364 O365 2.028 . S
Mg364 O371 1.986 . S
Mg364 O373 2.114 . S
Mg364 O374 2.251 . S
Mg364 O377 2.010 . S
O365 Mg364 2.028 . S
O365 C368 1.250 . S
O366 Mg367 2.028 . S
O366 C368 1.248 . S
Mg367 O366 2.028 . S
Mg367 O372 2.032 . S
Mg367 O374 2.079 . S
C368 O365 1.250 . S
C368 O366 1.248 . S
C369 O370 1.264 . S
C369 O377 1.249 . S
O370 C369 1.264 . S
O371 Mg364 1.986 . S
O371 C375 1.246 . S
O372 Mg367 2.032 . S
O372 C375 1.259 . S
O373 Mg364 2.114 . S
O373 C376 1.252 . S
O374 Mg364 2.251 . S
O374 Mg367 2.079 . S
O374 C376 1.273 . S
C375 O371 1.246 . S
C375 O372 1.259 . S
C376 O373 1.252 . S
C376 O374 1.273 . S
O377 Mg364 2.010 . S
O377 C369 1.249 . S
Mg378 O379 2.028 . S
Mg378 O385 1.986 . S
Mg378 O387 2.114 1_556 S
Mg378 O388 2.251 1_556 S
Mg378 O391 2.010 . S
O379 Mg378 2.028 . S
O379 C382 1.250 . S
O380 Mg381 2.028 1_554 S
O380 C382 1.248 1_554 S
Mg381 O380 2.028 1_556 S
Mg381 O386 2.032 . S
Mg381 O388 2.079 1_556 S
C382 O379 1.250 . S
C382 O380 1.248 1_556 S
C383 O384 1.264 . S
C383 O391 1.249 . S
O384 C383 1.264 . S
O385 Mg378 1.986 . S
O385 C389 1.246 . S
O386 Mg381 2.032 . S
O386 C389 1.259 . S
O387 Mg378 2.114 1_554 S
O387 C390 1.252 . S
O388 Mg378 2.251 1_554 S
O388 Mg381 2.079 1_554 S
O388 C390 1.273 . S
C389 O385 1.246 . S
C389 O386 1.259 . S
C390 O387 1.252 . S
C390 O388 1.273 . S
O391 Mg378 2.010 . S
O391 C383 1.249 . S
Mg392 O393 2.028 1_556 S
Mg392 O399 1.986 1_556 S
Mg392 O401 2.114 . S
Mg392 O402 2.251 . S
Mg392 O405 2.010 1_556 S
O393 Mg392 2.028 1_554 S
O393 C396 1.243 1_554 S
O394 Mg395 2.028 . S
O394 C396 1.264 . S
Mg395 O394 2.028 . S
Mg395 O400 2.032 . S
Mg395 O402 2.079 . S
C396 O393 1.243 1_556 S
C396 O394 1.264 . S
C397 O398 1.264 . S
C397 O405 1.249 . S
O398 C397 1.264 . S
O399 Mg392 1.986 1_554 S
O399 C403 1.246 1_554 S
O400 Mg395 2.032 . S
O400 C403 1.259 . S
O401 Mg392 2.114 . S
O401 C404 1.252 . S
O402 Mg392 2.251 . S
O402 Mg395 2.079 . S
O402 C404 1.273 . S
C403 O399 1.246 1_556 S
C403 O400 1.259 . S
C404 O401 1.252 . S
C404 O402 1.273 . S
O405 Mg392 2.010 1_554 S
O405 C397 1.249 . S
Mg406 O407 2.028 . S
Mg406 O413 1.986 . S
Mg406 O415 2.114 1_556 S
Mg406 O416 2.251 1_556 S
Mg406 O419 2.010 . S
O407 Mg406 2.028 . S
O407 C410 1.253 . S
O408 Mg409 2.028 1_554 S
O408 C410 1.247 1_554 S
Mg409 O408 2.028 1_556 S
Mg409 O414 2.032 . S
Mg409 O416 2.079 1_556 S
C410 O407 1.253 . S
C410 O408 1.247 1_556 S
C411 O412 1.264 . S
C411 O419 1.249 . S
O412 C411 1.264 . S
O413 Mg406 1.986 . S
O413 C417 1.246 . S
O414 Mg409 2.032 . S
O414 C417 1.259 . S
O415 Mg406 2.114 1_554 S
O415 C418 1.252 . S
O416 Mg406 2.251 1_554 S
O416 Mg409 2.079 1_554 S
O416 C418 1.273 . S
C417 O413 1.246 . S
C417 O414 1.259 . S
C418 O415 1.252 . S
C418 O416 1.273 . S
O419 Mg406 2.010 . S
O419 C411 1.249 . S
Mg420 O421 2.028 . S
Mg420 O427 1.986 . S
Mg420 O429 2.114 . S
Mg420 O430 2.251 . S
Mg420 O433 2.010 . S
O421 Mg420 2.028 . S
O421 C424 1.250 . S
O422 Mg423 2.028 . S
O422 C424 1.248 . S
Mg423 O422 2.028 . S
Mg423 O428 2.032 . S
Mg423 O430 2.079 . S
C424 O421 1.250 . S
C424 O422 1.248 . S
C425 O426 1.264 . S
C425 O433 1.249 . S
O426 C425 1.264 . S
O427 Mg420 1.986 . S
O427 C431 1.246 . S
O428 Mg423 2.032 . S
O428 C431 1.259 . S
O429 Mg420 2.114 . S
O429 C432 1.252 . S
O430 Mg420 2.251 . S
O430 Mg423 2.079 . S
O430 C432 1.273 . S
C431 O427 1.246 . S
C431 O428 1.259 . S
C432 O429 1.252 . S
C432 O430 1.273 . S
O433 Mg420 2.010 . S
O433 C425 1.249 . S
Mg434 O435 2.028 . S
Mg434 O441 1.986 . S
Mg434 O443 2.114 . S
Mg434 O444 2.251 . S
Mg434 O447 2.010 . S
O435 Mg434 2.028 . S
O435 C438 1.250 . S
O436 Mg437 2.028 . S
O436 C438 1.248 . S
Mg437 O436 2.028 . S
Mg437 O442 2.032 . S
Mg437 O444 2.079 . S
C438 O435 1.250 . S
C438 O436 1.248 . S
C439 O440 1.264 . S
C439 O447 1.249 . S
O440 C439 1.264 . S
O441 Mg434 1.986 . S
O441 C445 1.246 . S
O442 Mg437 2.032 . S
O442 C445 1.259 . S
O443 Mg434 2.114 . S
O443 C446 1.252 . S
O444 Mg434 2.251 . S
O444 Mg437 2.079 . S
O444 C446 1.273 . S
C445 O441 1.246 . S
C445 O442 1.259 . S
C446 O443 1.252 . S
C446 O444 1.273 . S
O447 Mg434 2.010 . S
O447 C439 1.249 . S
Mg448 O449 2.028 . S
Mg448 O455 1.986 . S
Mg448 O457 2.114 . S
Mg448 O458 2.251 . S
Mg448 O461 2.010 . S
O449 Mg448 2.028 . S
O449 C452 1.250 . S
O450 Mg451 2.028 . S
O450 C452 1.248 . S
Mg451 O450 2.028 . S
Mg451 O456 2.032 . S
Mg451 O458 2.079 . S
C452 O449 1.250 . S
C452 O450 1.248 . S
C453 O454 1.264 . S
C453 O461 1.249 . S
O454 C453 1.264 . S
O455 Mg448 1.986 . S
O455 C459 1.246 . S
O456 Mg451 2.032 . S
O456 C459 1.259 . S
O457 Mg448 2.114 . S
O457 C460 1.252 . S
O458 Mg448 2.251 . S
O458 Mg451 2.079 . S
O458 C460 1.273 . S
C459 O455 1.246 . S
C459 O456 1.259 . S
C460 O457 1.252 . S
C460 O458 1.273 . S
O461 Mg448 2.010 . S
O461 C453 1.249 . S
Mg462 O463 2.028 . S
Mg462 O469 1.986 . S
Mg462 O471 2.114 . S
Mg462 O472 2.251 . S
Mg462 O475 2.010 . S
O463 Mg462 2.028 . S
O463 C466 1.250 . S
O464 Mg465 2.028 . S
O464 C466 1.248 . S
Mg465 O464 2.028 . S
Mg465 O470 2.032 . S
Mg465 O472 2.079 . S
C466 O463 1.250 . S
C466 O464 1.248 . S
C467 O468 1.264 . S
C467 O475 1.249 . S
O468 C467 1.264 . S
O469 Mg462 1.986 . S
O469 C473 1.246 . S
O470 Mg465 2.032 . S
O470 C473 1.259 . S
O471 Mg462 2.114 . S
O471 C474 1.252 . S
O472 Mg462 2.251 . S
O472 Mg465 2.079 . S
O472 C474 1.273 . S
C473 O469 1.246 . S
C473 O470 1.259 . S
C474 O471 1.252 . S
C474 O472 1.273 . S
O475 Mg462 2.010 . S
O475 C467 1.249 . S
Mg476 O477 2.028 . S
Mg476 O483 1.986 . S
Mg476 O485 2.114 . S
Mg476 O486 2.251 . S
Mg476 O489 2.010 . S
O477 Mg476 2.028 . S
O477 C480 1.250 . S
O478 Mg479 2.028 . S
O478 C480 1.248 . S
Mg479 O478 2.028 . S
Mg479 O484 2.032 . S
Mg479 O486 2.079 . S
C480 O477 1.250 . S
C480 O478 1.248 . S
C481 O482 1.264 . S
C481 O489 1.249 . S
O482 C481 1.264 . S
O483 Mg476 1.986 . S
O483 C487 1.246 . S
O484 Mg479 2.032 . S
O484 C487 1.259 . S
O485 Mg476 2.114 . S
O485 C488 1.252 . S
O486 Mg476 2.251 . S
O486 Mg479 2.079 . S
O486 C488 1.273 . S
C487 O483 1.246 . S
C487 O484 1.259 . S
C488 O485 1.252 . S
C488 O486 1.273 . S
O489 Mg476 2.010 . S
O489 C481 1.249 . S
Mg490 O491 2.028 . S
Mg490 O497 1.986 . S
Mg490 O499 2.114 . S
Mg490 O500 2.251 . S
Mg490 O503 2.010 . S
O491 Mg490 2.028 . S
O491 C494 1.250 . S
O492 Mg493 2.028 . S
O492 C494 1.248 . S
Mg493 O492 2.028 . S
Mg493 O498 2.032 . S
Mg493 O500 2.079 . S
C494 O491 1.250 . S
C494 O492 1.248 . S
C495 O496 1.264 . S
C495 O503 1.249 . S
O496 C495 1.264 . S
O497 Mg490 1.986 . S
O497 C501 1.246 . S
O498 Mg493 2.032 . S
O498 C501 1.259 . S
O499 Mg490 2.114 . S
O499 C502 1.252 . S
O500 Mg490 2.251 . S
O500 Mg493 2.079 . S
O500 C502 1.273 . S
C501 O497 1.246 . S
C501 O498 1.259 . S
C502 O499 1.252 . S
C502 O500 1.273 . S
O503 Mg490 2.010 . S
O503 C495 1.249 . S
H504 C512 0.929 . S
H505 C514 0.930 . S
H506 C516 0.930 . S
H507 C519 0.929 . S
H508 C522 0.930 . S
H509 C524 0.960 . S
H510 C524 0.960 . S
H511 C524 0.960 . S
C512 H504 0.929 . S
C512 C513 1.377 . S
C512 C514 1.384 . S
C513 C512 1.377 . S
C513 C519 1.390 . S
C514 H505 0.930 . S
C514 C512 1.384 . S
C514 C515 1.372 . S
C515 C514 1.372 . S
C515 C516 1.400 . S
C515 C520 1.490 . S
C516 H506 0.930 . S
C516 C515 1.400 . S
C516 C519 1.386 . S
H517 C533 0.930 . S
H518 C534 0.931 . S
C519 H507 0.929 . S
C519 C513 1.390 . S
C519 C516 1.386 . S
C520 C515 1.490 . S
C520 C522 1.395 . S
C520 C523 1.403 . S
H521 C527 0.930 . S
C522 H508 0.930 . S
C522 C520 1.395 . S
C522 C525 1.403 . S
C523 C520 1.403 . S
C523 C524 1.524 . S
C523 C527 1.400 . S
C524 H509 0.960 . S
C524 H510 0.960 . S
C524 H511 0.960 . S
C524 C523 1.524 . S
C525 C522 1.403 . S
C525 C526 1.392 . S
C525 C529 1.495 . S
C526 C525 1.392 . S
C526 C527 1.385 . S
C526 C528 1.478 . S
C527 H521 0.930 . S
C527 C523 1.400 . S
C527 C526 1.385 . S
C528 C526 1.478 . S
C528 C530 1.381 . S
C528 C534 1.383 . S
C529 C525 1.495 . S
C529 H535 0.959 . S
C529 H536 0.961 . S
C529 H537 0.960 . S
C530 C528 1.381 . S
C530 C531 1.394 . S
C530 H538 0.930 . S
C531 C530 1.394 . S
C531 C532 1.383 . S
C531 H539 0.929 . S
C532 C531 1.383 . S
C532 C533 1.377 . S
C533 H517 0.930 . S
C533 C532 1.377 . S
C533 C534 1.379 . S
C534 H518 0.931 . S
C534 C528 1.383 . S
C534 C533 1.379 . S
H535 C529 0.959 . S
H536 C529 0.961 . S
H537 C529 0.960 . S
H538 C530 0.930 . S
H539 C531 0.929 . S
H540 C548 0.929 . S
H541 C550 0.930 . S
H542 C552 0.930 . S
H543 C555 0.929 . S
H544 C558 0.930 . S
H545 C560 0.960 1_565 S
H546 C560 0.960 . S
H547 C560 0.960 . S
C548 H540 0.929 . S
C548 C549 1.377 . S
C548 C550 1.384 . S
C549 C548 1.377 . S
C549 C555 1.390 . S
C550 H541 0.930 . S
C550 C548 1.384 . S
C550 C551 1.372 . S
C551 C550 1.372 . S
C551 C552 1.400 . S
C551 C556 1.490 . S
C552 H542 0.930 . S
C552 C551 1.400 . S
C552 C555 1.386 . S
H553 C569 0.930 . S
H554 C570 0.931 . S
C555 H543 0.929 . S
C555 C549 1.390 . S
C555 C552 1.386 . S
C556 C551 1.490 . S
C556 C558 1.395 . S
C556 C559 1.403 . S
H557 C563 0.930 . S
C558 H544 0.930 . S
C558 C556 1.395 . S
C558 C561 1.403 1_545 S
C559 C556 1.403 . S
C559 C560 1.524 . S
C559 C563 1.400 1_545 S
C560 H545 0.960 1_545 S
C560 H546 0.960 . S
C560 H547 0.960 . S
C560 C559 1.524 . S
C561 C558 1.403 1_565 S
C561 C562 1.392 . S
C561 C565 1.495 . S
C562 C561 1.392 . S
C562 C563 1.385 . S
C562 C564 1.478 . S
C563 H557 0.930 . S
C563 C559 1.400 1_565 S
C563 C562 1.385 . S
C564 C562 1.478 . S
C564 C566 1.381 . S
C564 C570 1.383 . S
C565 C561 1.495 . S
C565 H571 0.959 1_565 S
C565 H572 0.961 . S
C565 H573 0.960 . S
C566 C564 1.381 . S
C566 C567 1.394 . S
C566 H574 0.930 . S
C567 C566 1.394 . S
C567 C568 1.383 . S
C567 H575 0.929 . S
C568 C567 1.383 . S
C568 C569 1.377 . S
C569 H553 0.930 . S
C569 C568 1.377 . S
C569 C570 1.379 . S
C570 H554 0.931 . S
C570 C564 1.383 . S
C570 C569 1.379 . S
H571 C565 0.959 1_545 S
H572 C565 0.961 . S
H573 C565 0.960 . S
H574 C566 0.930 . S
H575 C567 0.929 . S
H576 C584 0.929 . S
H577 C586 0.930 . S
H578 C588 0.930 . S
H579 C591 0.929 . S
H580 C594 0.930 . S
H581 C596 1.031 . S
H582 C596 0.960 . S
H583 C596 0.960 . S
C584 H576 0.929 . S
C584 C585 1.377 . S
C584 C586 1.384 . S
C585 C584 1.377 . S
C585 C591 1.390 . S
C586 H577 0.930 . S
C586 C584 1.384 . S
C586 C587 1.372 . S
C587 C586 1.372 . S
C587 C588 1.400 . S
C587 C592 1.490 . S
C588 H578 0.930 . S
C588 C587 1.400 . S
C588 C591 1.386 . S
H589 C605 0.930 . S
H590 C606 0.931 . S
C591 H579 0.929 . S
C591 C585 1.390 . S
C591 C588 1.386 . S
C592 C587 1.490 . S
C592 C594 1.395 . S
C592 C595 1.403 . S
H593 C599 0.930 . S
C594 H580 0.930 . S
C594 C592 1.395 . S
C594 C597 1.403 1_655 S
C595 C592 1.403 . S
C595 C596 1.524 . S
C595 C599 1.400 1_655 S
C596 H581 1.031 . S
C596 H582 0.960 . S
C596 H583 0.960 . S
C596 C595 1.524 . S
C597 C594 1.403 1_455 S
C597 C598 1.392 . S
C597 C601 1.495 . S
C598 C597 1.392 . S
C598 C599 1.385 . S
C598 C600 1.478 . S
C599 H593 0.930 . S
C599 C595 1.400 1_455 S
C599 C598 1.385 . S
C600 C598 1.478 . S
C600 C602 1.381 . S
C600 C606 1.383 . S
C601 C597 1.495 . S
C601 H607 0.978 . S
C601 H608 0.961 . S
C601 H609 0.960 . S
C602 C600 1.381 . S
C602 C603 1.394 . S
C602 H610 0.930 . S
C603 C602 1.394 . S
C603 C604 1.383 . S
C603 H611 0.929 . S
C604 C603 1.383 . S
C604 C605 1.377 . S
C605 H589 0.930 . S
C605 C604 1.377 . S
C605 C606 1.379 . S
C606 H590 0.931 . S
C606 C600 1.383 . S
C606 C605 1.379 . S
H607 C601 0.978 . S
H608 C601 0.961 . S
H609 C601 0.960 . S
H610 C602 0.930 . S
H611 C603 0.929 . S
H612 C620 0.929 . S
H613 C622 0.930 . S
H614 C624 0.930 . S
H615 C627 0.929 . S
H616 C630 0.930 . S
H617 C632 0.960 . S
H618 C632 0.960 . S
H619 C632 0.960 . S
C620 H612 0.929 . S
C620 C621 1.377 . S
C620 C622 1.384 . S
C621 C620 1.377 . S
C621 C627 1.390 . S
C622 H613 0.930 . S
C622 C620 1.384 . S
C622 C623 1.372 . S
C623 C622 1.372 . S
C623 C624 1.400 . S
C623 C628 1.490 . S
C624 H614 0.930 . S
C624 C623 1.400 . S
C624 C627 1.386 . S
H625 C641 0.930 . S
H626 C642 0.931 . S
C627 H615 0.929 . S
C627 C621 1.390 . S
C627 C624 1.386 . S
C628 C623 1.490 . S
C628 C630 1.395 . S
C628 C631 1.403 . S
H629 C635 0.930 . S
C630 H616 0.930 . S
C630 C628 1.395 . S
C630 C633 1.403 . S
C631 C628 1.403 . S
C631 C632 1.524 . S
C631 C635 1.400 . S
C632 H617 0.960 . S
C632 H618 0.960 . S
C632 H619 0.960 . S
C632 C631 1.524 . S
C633 C630 1.403 . S
C633 C634 1.392 . S
C633 C637 1.495 . S
C634 C633 1.392 . S
C634 C635 1.385 . S
C634 C636 1.478 . S
C635 H629 0.930 . S
C635 C631 1.400 . S
C635 C634 1.385 . S
C636 C634 1.478 . S
C636 C638 1.381 . S
C636 C642 1.383 . S
C637 C633 1.495 . S
C637 H643 0.959 . S
C637 H644 0.961 . S
C637 H645 0.960 . S
C638 C636 1.381 . S
C638 C639 1.394 . S
C638 H646 0.930 . S
C639 C638 1.394 . S
C639 C640 1.383 . S
C639 H647 0.929 . S
C640 C639 1.383 . S
C640 C641 1.377 . S
C641 H625 0.930 . S
C641 C640 1.377 . S
C641 C642 1.379 . S
C642 H626 0.931 . S
C642 C636 1.383 . S
C642 C641 1.379 . S
H643 C637 0.959 . S
H644 C637 0.961 . S
H645 C637 0.960 . S
H646 C638 0.930 . S
H647 C639 0.929 . S
H648 C656 0.929 . S
H649 C658 0.930 . S
H650 C660 0.930 . S
H651 C663 0.929 . S
H652 C666 0.930 . S
H653 C668 0.960 . S
H654 C668 0.960 . S
H655 C668 0.960 . S
C656 H648 0.929 . S
C656 C657 1.377 . S
C656 C658 1.384 . S
C657 C656 1.377 . S
C657 C663 1.390 . S
C658 H649 0.930 . S
C658 C656 1.384 . S
C658 C659 1.372 . S
C659 C658 1.372 . S
C659 C660 1.400 . S
C659 C664 1.490 . S
C660 H650 0.930 . S
C660 C659 1.400 . S
C660 C663 1.386 . S
H661 C677 0.930 . S
H662 C678 0.931 . S
C663 H651 0.929 . S
C663 C657 1.390 . S
C663 C660 1.386 . S
C664 C659 1.490 . S
C664 C666 1.395 . S
C664 C667 1.403 . S
H665 C671 0.930 . S
C666 H652 0.930 . S
C666 C664 1.395 . S
C666 C669 1.403 1_545 S
C667 C664 1.403 . S
C667 C668 1.524 . S
C667 C671 1.400 1_545 S
C668 H653 0.960 . S
C668 H654 0.960 . S
C668 H655 0.960 . S
C668 C667 1.524 . S
C669 C666 1.403 1_565 S
C669 C670 1.392 . S
C669 C673 1.495 . S
C670 C669 1.392 . S
C670 C671 1.385 . S
C670 C672 1.478 . S
C671 H665 0.930 . S
C671 C667 1.400 1_565 S
C671 C670 1.385 . S
C672 C670 1.478 . S
C672 C674 1.381 . S
C672 C678 1.383 . S
C673 C669 1.495 . S
C673 H679 0.959 . S
C673 H680 0.961 . S
C673 H681 0.960 . S
C674 C672 1.381 . S
C674 C675 1.394 . S
C674 H682 0.930 . S
C675 C674 1.394 . S
C675 C676 1.383 . S
C675 H683 0.929 . S
C676 C675 1.383 . S
C676 C677 1.377 . S
C677 H661 0.930 . S
C677 C676 1.377 . S
C677 C678 1.379 . S
C678 H662 0.931 . S
C678 C672 1.383 . S
C678 C677 1.379 . S
H679 C673 0.959 . S
H680 C673 0.961 . S
H681 C673 0.960 . S
H682 C674 0.930 . S
H683 C675 0.929 . S
H684 C692 0.929 . S
H685 C694 0.930 . S
H686 C696 0.930 . S
H687 C699 0.929 . S
H688 C702 0.930 . S
H689 C704 0.960 . S
H690 C704 0.960 . S
H691 C704 0.960 . S
C692 H684 0.929 . S
C692 C693 1.377 . S
C692 C694 1.384 . S
C693 C692 1.377 . S
C693 C699 1.390 . S
C694 H685 0.930 . S
C694 C692 1.384 . S
C694 C695 1.372 . S
C695 C694 1.372 . S
C695 C696 1.400 . S
C695 C700 1.490 . S
C696 H686 0.930 . S
C696 C695 1.400 . S
C696 C699 1.386 . S
H697 C713 0.930 . S
H698 C714 0.931 . S
C699 H687 0.929 . S
C699 C693 1.390 . S
C699 C696 1.386 . S
C700 C695 1.490 . S
C700 C702 1.395 . S
C700 C703 1.403 . S
H701 C707 0.930 . S
C702 H688 0.930 . S
C702 C700 1.395 . S
C702 C705 1.403 1_455 S
C703 C700 1.403 . S
C703 C704 1.524 . S
C703 C707 1.400 1_455 S
C704 H689 0.960 . S
C704 H690 0.960 . S
C704 H691 0.960 . S
C704 C703 1.524 . S
C705 C702 1.403 1_655 S
C705 C706 1.392 . S
C705 C709 1.495 . S
C706 C705 1.392 . S
C706 C707 1.385 . S
C706 C708 1.478 . S
C707 H701 0.930 . S
C707 C703 1.400 1_655 S
C707 C706 1.385 . S
C708 C706 1.478 . S
C708 C710 1.381 . S
C708 C714 1.383 . S
C709 C705 1.495 . S
C709 H715 0.959 . S
C709 H716 0.961 . S
C709 H717 0.960 . S
C710 C708 1.381 . S
C710 C711 1.394 . S
C710 H718 0.930 . S
C711 C710 1.394 . S
C711 C712 1.383 . S
C711 H719 0.929 . S
C712 C711 1.383 . S
C712 C713 1.377 . S
C713 H697 0.930 . S
C713 C712 1.377 . S
C713 C714 1.379 . S
C714 H698 0.931 . S
C714 C708 1.383 . S
C714 C713 1.379 . S
H715 C709 0.959 . S
H716 C709 0.961 . S
H717 C709 0.960 . S
H718 C710 0.930 . S
H719 C711 0.929 . S
H720 C728 0.929 . S
H721 C730 0.930 . S
H722 C732 0.930 . S
H723 C735 0.929 . S
H724 C738 0.930 . S
H725 C740 0.960 . S
H726 C740 0.960 . S
H727 C740 0.960 . S
C728 H720 0.929 . S
C728 C729 1.377 . S
C728 C730 1.384 . S
C729 C728 1.377 . S
C729 C735 1.390 . S
C730 H721 0.930 . S
C730 C728 1.384 . S
C730 C731 1.372 . S
C731 C730 1.372 . S
C731 C732 1.400 . S
C731 C736 1.490 . S
C732 H722 0.930 . S
C732 C731 1.400 . S
C732 C735 1.386 . S
H733 C749 0.930 . S
H734 C750 0.931 . S
C735 H723 0.929 . S
C735 C729 1.390 . S
C735 C732 1.386 . S
C736 C731 1.490 . S
C736 C738 1.395 . S
C736 C739 1.403 . S
H737 C743 0.930 . S
C738 H724 0.930 . S
C738 C736 1.395 . S
C738 C741 1.403 . S
C739 C736 1.403 . S
C739 C740 1.524 . S
C739 C743 1.400 . S
C740 H725 0.960 . S
C740 H726 0.960 . S
C740 H727 0.960 . S
C740 C739 1.524 . S
C741 C738 1.403 . S
C741 C742 1.392 . S
C741 C745 1.495 . S
C742 C741 1.392 . S
C742 C743 1.385 . S
C742 C744 1.478 . S
C743 H737 0.930 . S
C743 C739 1.400 . S
C743 C742 1.385 . S
C744 C742 1.478 . S
C744 C746 1.381 . S
C744 C750 1.383 . S
C745 C741 1.495 . S
C745 H751 0.959 . S
C745 H752 0.961 . S
C745 H753 0.960 . S
C746 C744 1.381 . S
C746 C747 1.394 . S
C746 H754 0.930 . S
C747 C746 1.394 . S
C747 C748 1.383 . S
C747 H755 0.929 . S
C748 C747 1.383 . S
C748 C749 1.377 . S
C749 H733 0.930 . S
C749 C748 1.377 . S
C749 C750 1.379 . S
C750 H734 0.931 . S
C750 C744 1.383 . S
C750 C749 1.379 . S
H751 C745 0.959 . S
H752 C745 0.961 . S
H753 C745 0.960 . S
H754 C746 0.930 . S
H755 C747 0.929 . S
H756 C764 0.929 . S
H757 C766 0.930 . S
H758 C768 0.930 . S
H759 C771 0.929 . S
H760 C774 0.930 . S
H761 C776 0.960 . S
H762 C776 0.960 . S
H763 C776 0.960 . S
C764 H756 0.929 . S
C764 C765 1.377 . S
C764 C766 1.384 . S
C765 C764 1.377 . S
C765 C771 1.390 . S
C766 H757 0.930 . S
C766 C764 1.384 . S
C766 C767 1.372 . S
C767 C766 1.372 . S
C767 C768 1.400 . S
C767 C772 1.490 . S
C768 H758 0.930 . S
C768 C767 1.400 . S
C768 C771 1.386 . S
H769 C785 0.930 . S
H770 C786 0.931 . S
C771 H759 0.929 . S
C771 C765 1.390 . S
C771 C768 1.386 . S
C772 C767 1.490 . S
C772 C774 1.395 . S
C772 C775 1.403 . S
H773 C779 0.930 . S
C774 H760 0.930 . S
C774 C772 1.395 . S
C774 C777 1.403 . S
C775 C772 1.403 . S
C775 C776 1.524 . S
C775 C779 1.400 . S
C776 H761 0.960 . S
C776 H762 0.960 . S
C776 H763 0.960 . S
C776 C775 1.524 . S
C777 C774 1.403 . S
C777 C778 1.392 . S
C777 C781 1.495 . S
C778 C777 1.392 . S
C778 C779 1.385 . S
C778 C780 1.478 . S
C779 H773 0.930 . S
C779 C775 1.400 . S
C779 C778 1.385 . S
C780 C778 1.478 . S
C780 C782 1.381 . S
C780 C786 1.383 . S
C781 C777 1.495 . S
C781 H787 0.959 . S
C781 H788 0.961 . S
C781 H789 0.960 . S
C782 C780 1.381 . S
C782 C783 1.394 . S
C782 H790 0.930 . S
C783 C782 1.394 . S
C783 C784 1.383 . S
C783 H791 0.929 . S
C784 C783 1.383 . S
C784 C785 1.377 . S
C785 H769 0.930 . S
C785 C784 1.377 . S
C785 C786 1.379 . S
C786 H770 0.931 . S
C786 C780 1.383 . S
C786 C785 1.379 . S
H787 C781 0.959 . S
H788 C781 0.961 . S
H789 C781 0.960 . S
H790 C782 0.930 . S
H791 C783 0.929 . S
H792 C800 0.929 . S
H793 C802 0.930 . S
H794 C804 0.930 . S
H795 C807 0.929 . S
H796 C810 0.930 . S
H797 C812 0.960 . S
H798 C812 0.960 . S
H799 C812 0.960 . S
C800 H792 0.929 . S
C800 C801 1.377 . S
C800 C802 1.384 . S
C801 C800 1.377 . S
C801 C807 1.390 . S
C802 H793 0.930 . S
C802 C800 1.384 . S
C802 C803 1.372 . S
C803 C802 1.372 . S
C803 C804 1.400 . S
C803 C808 1.490 . S
C804 H794 0.930 . S
C804 C803 1.400 . S
C804 C807 1.386 . S
H805 C821 0.930 . S
H806 C822 0.931 . S
C807 H795 0.929 . S
C807 C801 1.390 . S
C807 C804 1.386 . S
C808 C803 1.490 . S
C808 C810 1.395 . S
C808 C811 1.403 . S
H809 C815 0.930 . S
C810 H796 0.930 . S
C810 C808 1.395 . S
C810 C813 1.403 . S
C811 C808 1.403 . S
C811 C812 1.524 . S
C811 C815 1.400 . S
C812 H797 0.960 . S
C812 H798 0.960 . S
C812 H799 0.960 . S
C812 C811 1.524 . S
C813 C810 1.403 . S
C813 C814 1.392 . S
C813 C817 1.495 . S
C814 C813 1.392 . S
C814 C815 1.385 . S
C814 C816 1.478 . S
C815 H809 0.930 . S
C815 C811 1.400 . S
C815 C814 1.385 . S
C816 C814 1.478 . S
C816 C818 1.381 . S
C816 C822 1.383 . S
C817 C813 1.495 . S
C817 H823 0.959 . S
C817 H824 0.961 . S
C817 H825 0.960 . S
C818 C816 1.381 . S
C818 C819 1.394 . S
C818 H826 0.930 . S
C819 C818 1.394 . S
C819 C820 1.383 . S
C819 H827 0.929 . S
C820 C819 1.383 . S
C820 C821 1.377 . S
C821 H805 0.930 . S
C821 C820 1.377 . S
C821 C822 1.379 . S
C822 H806 0.931 . S
C822 C816 1.383 . S
C822 C821 1.379 . S
H823 C817 0.959 . S
H824 C817 0.961 . S
H825 C817 0.960 . S
H826 C818 0.930 . S
H827 C819 0.929 . S
H828 C836 0.929 . S
H829 C838 0.930 . S
H830 C840 0.930 . S
H831 C843 0.929 . S
H832 C846 0.930 . S
H833 C848 0.960 . S
H834 C848 0.960 . S
H835 C848 0.960 . S
C836 H828 0.929 . S
C836 C837 1.377 . S
C836 C838 1.384 . S
C837 C836 1.377 . S
C837 C843 1.390 . S
C838 H829 0.930 . S
C838 C836 1.384 . S
C838 C839 1.372 . S
C839 C838 1.372 . S
C839 C840 1.400 . S
C839 C844 1.490 . S
C840 H830 0.930 . S
C840 C839 1.400 . S
C840 C843 1.386 . S
H841 C857 0.930 . S
H842 C858 0.931 1_556 S
C843 H831 0.929 . S
C843 C837 1.390 . S
C843 C840 1.386 . S
C844 C839 1.490 . S
C844 C846 1.395 . S
C844 C847 1.403 . S
H845 C851 0.930 . S
C846 H832 0.930 . S
C846 C844 1.395 . S
C846 C849 1.403 . S
C847 C844 1.403 . S
C847 C848 1.524 . S
C847 C851 1.400 . S
C848 H833 0.960 . S
C848 H834 0.960 . S
C848 H835 0.960 . S
C848 C847 1.524 . S
C849 C846 1.403 . S
C849 C850 1.392 . S
C849 C853 1.495 . S
C850 C849 1.392 . S
C850 C851 1.385 . S
C850 C852 1.478 . S
C851 H845 0.930 . S
C851 C847 1.400 . S
C851 C850 1.385 . S
C852 C850 1.478 . S
C852 C854 1.381 . S
C852 C858 1.383 . S
C853 C849 1.495 . S
C853 H859 0.959 . S
C853 H860 0.961 . S
C853 H861 0.960 . S
C854 C852 1.381 . S
C854 C855 1.394 . S
C854 H862 0.930 . S
C855 C854 1.394 . S
C855 C856 1.383 . S
C855 H863 0.929 . S
C856 C855 1.383 . S
C856 C857 1.377 1_554 S
C857 H841 0.930 . S
C857 C856 1.377 1_556 S
C857 C858 1.379 1_556 S
C858 H842 0.931 1_554 S
C858 C852 1.383 . S
C858 C857 1.379 1_554 S
H859 C853 0.959 . S
H860 C853 0.961 . S
H861 C853 0.960 . S
H862 C854 0.930 . S
H863 C855 0.929 . S
H864 C872 0.929 1_556 S
H865 C874 0.930 . S
H866 C876 0.930 . S
H867 C879 0.929 . S
H868 C882 0.930 . S
H869 C884 0.960 . S
H870 C884 0.960 . S
H871 C884 0.960 . S
C872 H864 0.929 1_554 S
C872 C873 1.377 . S
C872 C874 1.384 . S
C873 C872 1.377 . S
C873 C879 1.390 . S
C874 H865 0.930 . S
C874 C872 1.384 . S
C874 C875 1.372 . S
C875 C874 1.372 . S
C875 C876 1.400 . S
C875 C880 1.490 . S
C876 H866 0.930 . S
C876 C875 1.400 . S
C876 C879 1.386 . S
H877 C893 0.930 . S
H878 C894 0.931 . S
C879 H867 0.929 . S
C879 C873 1.390 . S
C879 C876 1.386 . S
C880 C875 1.490 . S
C880 C882 1.395 . S
C880 C883 1.403 . S
H881 C887 0.930 . S
C882 H868 0.930 . S
C882 C880 1.395 . S
C882 C885 1.403 . S
C883 C880 1.403 . S
C883 C884 1.524 . S
C883 C887 1.400 . S
C884 H869 0.960 . S
C884 H870 0.960 . S
C884 H871 0.960 . S
C884 C883 1.524 . S
C885 C882 1.403 . S
C885 C886 1.392 . S
C885 C889 1.495 . S
C886 C885 1.392 . S
C886 C887 1.385 . S
C886 C888 1.478 . S
C887 H881 0.930 . S
C887 C883 1.400 . S
C887 C886 1.385 . S
C888 C886 1.478 . S
C888 C890 1.381 . S
C888 C894 1.383 . S
C889 C885 1.495 . S
C889 H895 0.959 1_554 S
C889 H896 0.961 . S
C889 H897 0.960 . S
C890 C888 1.381 . S
C890 C891 1.394 . S
C890 H898 0.930 . S
C891 C890 1.394 . S
C891 C892 1.383 . S
C891 H899 0.929 . S
C892 C891 1.383 . S
C892 C893 1.377 . S
C893 H877 0.930 . S
C893 C892 1.377 . S
C893 C894 1.379 . S
C894 H878 0.931 . S
C894 C888 1.383 . S
C894 C893 1.379 . S
H895 C889 0.959 1_556 S
H896 C889 0.961 . S
H897 C889 0.960 . S
H898 C890 0.930 . S
H899 C891 0.929 . S
H900 C908 0.929 . S
H901 C910 0.930 . S
H902 C912 0.930 . S
H903 C915 0.929 . S
H904 C918 0.930 . S
H905 C920 0.960 . S
H906 C920 0.960 . S
H907 C920 0.960 . S
C908 H900 0.929 . S
C908 C909 1.377 . S
C908 C910 1.384 . S
C909 C908 1.377 . S
C909 C915 1.390 . S
C910 H901 0.930 . S
C910 C908 1.384 . S
C910 C911 1.372 . S
C911 C910 1.372 . S
C911 C912 1.400 . S
C911 C916 1.490 . S
C912 H902 0.930 . S
C912 C911 1.400 . S
C912 C915 1.386 . S
H913 C929 0.930 . S
H914 C930 0.931 . S
C915 H903 0.929 . S
C915 C909 1.390 . S
C915 C912 1.386 . S
C916 C911 1.490 . S
C916 C918 1.395 . S
C916 C919 1.403 . S
H917 C923 0.930 . S
C918 H904 0.930 . S
C918 C916 1.395 . S
C918 C921 1.403 . S
C919 C916 1.403 . S
C919 C920 1.524 . S
C919 C923 1.400 . S
C920 H905 0.960 . S
C920 H906 0.960 . S
C920 H907 0.960 . S
C920 C919 1.524 . S
C921 C918 1.403 . S
C921 C922 1.392 . S
C921 C925 1.497 1_554 S
C922 C921 1.392 . S
C922 C923 1.385 . S
C922 C924 1.478 . S
C923 H917 0.930 . S
C923 C919 1.400 . S
C923 C922 1.385 . S
C924 C922 1.478 . S
C924 C926 1.381 . S
C924 C930 1.383 . S
C925 C921 1.497 1_556 S
C925 H931 0.958 . S
C925 H932 0.961 . S
C925 H933 0.958 . S
C926 C924 1.381 . S
C926 C927 1.394 . S
C926 H934 0.930 . S
C927 C926 1.394 . S
C927 C928 1.383 . S
C927 H935 0.929 1_554 S
C928 C927 1.383 . S
C928 C929 1.377 . S
C929 H913 0.930 . S
C929 C928 1.377 . S
C929 C930 1.379 . S
C930 H914 0.931 . S
C930 C924 1.383 . S
C930 C929 1.379 . S
H931 C925 0.958 . S
H932 C925 0.961 . S
H933 C925 0.958 . S
H934 C926 0.930 . S
H935 C927 0.929 1_556 S
H936 C944 0.929 . S
H937 C946 0.930 . S
H938 C948 0.930 . S
H939 C951 0.929 . S
H940 C954 0.930 . S
H941 C956 0.960 1_554 S
H942 C956 0.960 . S
H943 C956 0.960 . S
C944 H936 0.929 . S
C944 C945 1.377 . S
C944 C946 1.384 . S
C945 C944 1.377 . S
C945 C951 1.390 . S
C946 H937 0.930 . S
C946 C944 1.384 . S
C946 C947 1.372 . S
C947 C946 1.372 . S
C947 C948 1.400 . S
C947 C952 1.490 . S
C948 H938 0.930 . S
C948 C947 1.400 . S
C948 C951 1.386 . S
H949 C965 0.930 . S
H950 C966 0.931 . S
C951 H939 0.929 . S
C951 C945 1.390 . S
C951 C948 1.386 . S
C952 C947 1.490 . S
C952 C954 1.395 . S
C952 C955 1.403 . S
H953 C959 0.930 . S
C954 H940 0.930 . S
C954 C952 1.395 . S
C954 C957 1.403 . S
C955 C952 1.403 . S
C955 C956 1.524 . S
C955 C959 1.400 . S
C956 H941 0.960 1_556 S
C956 H942 0.960 . S
C956 H943 0.960 . S
C956 C955 1.524 . S
C957 C954 1.403 . S
C957 C958 1.392 . S
C957 C961 1.495 . S
C958 C957 1.392 . S
C958 C959 1.385 . S
C958 C960 1.478 . S
C959 H953 0.930 . S
C959 C955 1.400 . S
C959 C958 1.385 . S
C960 C958 1.478 . S
C960 C962 1.381 . S
C960 C966 1.383 . S
C961 C957 1.495 . S
C961 H967 0.959 . S
C961 H968 0.961 . S
C961 H969 0.960 . S
C962 C960 1.381 . S
C962 C963 1.394 . S
C962 H970 0.930 . S
C963 C962 1.394 . S
C963 C964 1.383 . S
C963 H971 0.929 . S
C964 C963 1.383 . S
C964 C965 1.377 . S
C965 H949 0.930 . S
C965 C964 1.377 . S
C965 C966 1.379 . S
C966 H950 0.931 . S
C966 C960 1.383 . S
C966 C965 1.379 . S
H967 C961 0.959 . S
H968 C961 0.961 . S
H969 C961 0.960 . S
H970 C962 0.930 . S
H971 C963 0.929 . S
H972 C980 0.929 . S
H973 C982 0.930 . S
H974 C984 0.930 . S
H975 C987 0.929 . S
H976 C990 0.930 . S
H977 C992 0.960 . S
H978 C992 0.960 . S
H979 C992 0.960 . S
C980 H972 0.929 . S
C980 C981 1.377 . S
C980 C982 1.384 . S
C981 C980 1.377 . S
C981 C987 1.390 . S
C982 H973 0.930 . S
C982 C980 1.384 . S
C982 C983 1.372 . S
C983 C982 1.372 . S
C983 C984 1.400 . S
C983 C988 1.490 . S
C984 H974 0.930 . S
C984 C983 1.400 . S
C984 C987 1.386 . S
H985 C1001 0.930 . S
H986 C1002 0.931 . S
C987 H975 0.929 . S
C987 C981 1.390 . S
C987 C984 1.386 . S
C988 C983 1.490 . S
C988 C990 1.395 . S
C988 C991 1.403 . S
H989 C995 0.930 . S
C990 H976 0.930 . S
C990 C988 1.395 . S
C990 C993 1.403 . S
C991 C988 1.403 . S
C991 C992 1.524 . S
C991 C995 1.400 . S
C992 H977 0.960 . S
C992 H978 0.960 . S
C992 H979 0.960 . S
C992 C991 1.524 . S
C993 C990 1.403 . S
C993 C994 1.392 . S
C993 C997 1.495 . S
C994 C993 1.392 . S
C994 C995 1.385 . S
C994 C996 1.478 . S
C995 H989 0.930 . S
C995 C991 1.400 . S
C995 C994 1.385 . S
C996 C994 1.478 . S
C996 C998 1.381 . S
C996 C1002 1.383 . S
C997 C993 1.495 . S
C997 H1003 0.959 . S
C997 H1004 0.961 . S
C997 H1005 0.960 . S
C998 C996 1.381 . S
C998 C999 1.394 . S
C998 H1006 0.930 . S
C999 C998 1.394 . S
C999 C1000 1.383 . S
C999 H1007 0.929 . S
C1000 C999 1.383 . S
C1000 C1001 1.377 . S
C1001 H985 0.930 . S
C1001 C1000 1.377 . S
C1001 C1002 1.379 . S
C1002 H986 0.931 . S
C1002 C996 1.383 . S
C1002 C1001 1.379 . S
H1003 C997 0.959 . S
H1004 C997 0.961 . S
H1005 C997 0.960 . S
H1006 C998 0.930 . S
H1007 C999 0.929 . S
H1008 C1016 0.929 . S
H1009 C1018 0.930 . S
H1010 C1020 0.930 . S
H1011 C1023 0.929 . S
H1012 C1026 0.930 . S
H1013 C1028 0.960 . S
H1014 C1028 0.960 . S
H1015 C1028 0.960 . S
C1016 H1008 0.929 . S
C1016 C1017 1.377 . S
C1016 C1018 1.384 . S
C1017 C1016 1.377 . S
C1017 C1023 1.390 . S
C1018 H1009 0.930 . S
C1018 C1016 1.384 . S
C1018 C1019 1.372 . S
C1019 C1018 1.372 . S
C1019 C1020 1.400 . S
C1019 C1024 1.490 . S
C1020 H1010 0.930 . S
C1020 C1019 1.400 . S
C1020 C1023 1.386 . S
H1021 C1037 0.930 . S
H1022 C1038 0.931 . S
C1023 H1011 0.929 . S
C1023 C1017 1.390 . S
C1023 C1020 1.386 . S
C1024 C1019 1.490 . S
C1024 C1026 1.395 . S
C1024 C1027 1.403 . S
H1025 C1031 0.930 . S
C1026 H1012 0.930 . S
C1026 C1024 1.395 . S
C1026 C1029 1.403 . S
C1027 C1024 1.403 . S
C1027 C1028 1.524 . S
C1027 C1031 1.400 . S
C1028 H1013 0.960 . S
C1028 H1014 0.960 . S
C1028 H1015 0.960 . S
C1028 C1027 1.524 . S
C1029 C1026 1.403 . S
C1029 C1030 1.392 . S
C1029 C1033 1.495 . S
C1030 C1029 1.392 . S
C1030 C1031 1.385 . S
C1030 C1032 1.478 . S
C1031 H1025 0.930 . S
C1031 C1027 1.400 . S
C1031 C1030 1.385 . S
C1032 C1030 1.478 . S
C1032 C1034 1.381 . S
C1032 C1038 1.383 . S
C1033 C1029 1.495 . S
C1033 H1039 0.959 1_556 S
C1033 H1040 0.961 . S
C1033 H1041 0.960 . S
C1034 C1032 1.381 . S
C1034 C1035 1.394 . S
C1034 H1042 0.930 . S
C1035 C1034 1.394 . S
C1035 C1036 1.383 . S
C1035 H1043 0.929 . S
C1036 C1035 1.383 . S
C1036 C1037 1.377 . S
C1037 H1021 0.930 . S
C1037 C1036 1.377 . S
C1037 C1038 1.379 . S
C1038 H1022 0.931 . S
C1038 C1032 1.383 . S
C1038 C1037 1.379 . S
H1039 C1033 0.959 1_554 S
H1040 C1033 0.961 . S
H1041 C1033 0.960 . S
H1042 C1034 0.930 . S
H1043 C1035 0.929 . S
H1044 C1052 0.929 . S
H1045 C1054 0.930 . S
H1046 C1056 0.930 . S
H1047 C1059 0.929 . S
H1048 C1062 0.930 . S
H1049 C1064 0.960 . S
H1050 C1064 0.960 . S
H1051 C1064 0.960 . S
C1052 H1044 0.929 . S
C1052 C1053 1.377 . S
C1052 C1054 1.384 . S
C1053 C1052 1.377 . S
C1053 C1059 1.390 . S
C1054 H1045 0.930 . S
C1054 C1052 1.384 . S
C1054 C1055 1.372 . S
C1055 C1054 1.372 . S
C1055 C1056 1.400 . S
C1055 C1060 1.490 . S
C1056 H1046 0.930 . S
C1056 C1055 1.400 . S
C1056 C1059 1.386 . S
H1057 C1073 0.930 . S
H1058 C1074 0.931 . S
C1059 H1047 0.929 . S
C1059 C1053 1.390 . S
C1059 C1056 1.386 . S
C1060 C1055 1.490 . S
C1060 C1062 1.395 . S
C1060 C1063 1.403 . S
H1061 C1067 0.930 . S
C1062 H1048 0.930 . S
C1062 C1060 1.395 . S
C1062 C1065 1.403 . S
C1063 C1060 1.403 . S
C1063 C1064 1.524 . S
C1063 C1067 1.400 . S
C1064 H1049 0.960 . S
C1064 H1050 0.960 . S
C1064 H1051 0.960 . S
C1064 C1063 1.524 . S
C1065 C1062 1.403 . S
C1065 C1066 1.392 . S
C1065 C1069 1.495 . S
C1066 C1065 1.392 . S
C1066 C1067 1.385 . S
C1066 C1068 1.478 . S
C1067 H1061 0.930 . S
C1067 C1063 1.400 . S
C1067 C1066 1.385 . S
C1068 C1066 1.478 . S
C1068 C1070 1.381 . S
C1068 C1074 1.383 . S
C1069 C1065 1.495 . S
C1069 H1075 0.959 . S
C1069 H1076 0.961 . S
C1069 H1077 0.960 . S
C1070 C1068 1.381 . S
C1070 C1071 1.394 . S
C1070 H1078 0.930 . S
C1071 C1070 1.394 . S
C1071 C1072 1.383 . S
C1071 H1079 0.929 . S
C1072 C1071 1.383 . S
C1072 C1073 1.377 . S
C1073 H1057 0.930 . S
C1073 C1072 1.377 . S
C1073 C1074 1.379 . S
C1074 H1058 0.931 . S
C1074 C1068 1.383 . S
C1074 C1073 1.379 . S
H1075 C1069 0.959 . S
H1076 C1069 0.961 . S
H1077 C1069 0.960 . S
H1078 C1070 0.930 . S
H1079 C1071 0.929 . S
H1080 C1088 0.929 . S
H1081 C1090 0.930 . S
H1082 C1092 0.930 . S
H1083 C1095 0.929 . S
H1084 C1098 0.930 . S
H1085 C1100 0.960 . S
H1086 C1100 0.960 . S
H1087 C1100 0.960 . S
C1088 H1080 0.929 . S
C1088 C1089 1.377 . S
C1088 C1090 1.384 . S
C1089 C1088 1.377 . S
C1089 C1095 1.390 . S
C1090 H1081 0.930 . S
C1090 C1088 1.384 . S
C1090 C1091 1.372 . S
C1091 C1090 1.372 . S
C1091 C1092 1.400 . S
C1091 C1096 1.490 . S
C1092 H1082 0.930 . S
C1092 C1091 1.400 . S
C1092 C1095 1.386 . S
H1093 C1109 0.930 . S
H1094 C1110 0.931 . S
C1095 H1083 0.929 . S
C1095 C1089 1.390 . S
C1095 C1092 1.386 . S
C1096 C1091 1.490 . S
C1096 C1098 1.395 . S
C1096 C1099 1.403 . S
H1097 C1103 0.930 . S
C1098 H1084 0.930 . S
C1098 C1096 1.395 . S
C1098 C1101 1.403 . S
C1099 C1096 1.403 . S
C1099 C1100 1.524 . S
C1099 C1103 1.400 . S
C1100 H1085 0.960 . S
C1100 H1086 0.960 . S
C1100 H1087 0.960 . S
C1100 C1099 1.524 . S
C1101 C1098 1.403 . S
C1101 C1102 1.392 . S
C1101 C1105 1.495 . S
C1102 C1101 1.392 . S
C1102 C1103 1.385 . S
C1102 C1104 1.478 . S
C1103 H1097 0.930 . S
C1103 C1099 1.400 . S
C1103 C1102 1.385 . S
C1104 C1102 1.478 . S
C1104 C1106 1.381 . S
C1104 C1110 1.383 . S
C1105 C1101 1.495 . S
C1105 H1111 0.959 . S
C1105 H1112 0.961 . S
C1105 H1113 0.960 . S
C1106 C1104 1.381 . S
C1106 C1107 1.394 . S
C1106 H1114 0.930 . S
C1107 C1106 1.394 . S
C1107 C1108 1.383 . S
C1107 H1115 0.929 . S
C1108 C1107 1.383 . S
C1108 C1109 1.377 . S
C1109 H1093 0.930 . S
C1109 C1108 1.377 . S
C1109 C1110 1.379 . S
C1110 H1094 0.931 . S
C1110 C1104 1.383 . S
C1110 C1109 1.379 . S
H1111 C1105 0.959 . S
H1112 C1105 0.961 . S
H1113 C1105 0.960 . S
H1114 C1106 0.930 . S
H1115 C1107 0.929 . S
H1116 C1124 0.929 . S
H1117 C1126 0.930 . S
H1118 C1128 0.930 . S
H1119 C1131 0.929 . S
H1120 C1134 0.930 . S
H1121 C1136 0.960 . S
H1122 C1136 0.960 . S
H1123 C1136 0.960 . S
C1124 H1116 0.929 . S
C1124 C1125 1.377 . S
C1124 C1126 1.384 . S
C1125 C1124 1.377 . S
C1125 C1131 1.390 . S
C1126 H1117 0.930 . S
C1126 C1124 1.384 . S
C1126 C1127 1.372 . S
C1127 C1126 1.372 . S
C1127 C1128 1.400 . S
C1127 C1132 1.490 . S
C1128 H1118 0.930 . S
C1128 C1127 1.400 . S
C1128 C1131 1.386 . S
H1129 C1145 0.930 . S
H1130 C1146 0.931 . S
C1131 H1119 0.929 . S
C1131 C1125 1.390 . S
C1131 C1128 1.386 . S
C1132 C1127 1.490 . S
C1132 C1134 1.395 . S
C1132 C1135 1.403 . S
H1133 C1139 0.930 . S
C1134 H1120 0.930 . S
C1134 C1132 1.395 . S
C1134 C1137 1.403 . S
C1135 C1132 1.403 . S
C1135 C1136 1.524 . S
C1135 C1139 1.400 . S
C1136 H1121 0.960 . S
C1136 H1122 0.960 . S
C1136 H1123 0.960 . S
C1136 C1135 1.524 . S
C1137 C1134 1.403 . S
C1137 C1138 1.392 . S
C1137 C1141 1.495 . S
C1138 C1137 1.392 . S
C1138 C1139 1.385 . S
C1138 C1140 1.478 . S
C1139 H1133 0.930 . S
C1139 C1135 1.400 . S
C1139 C1138 1.385 . S
C1140 C1138 1.478 . S
C1140 C1142 1.381 . S
C1140 C1146 1.383 . S
C1141 C1137 1.495 . S
C1141 H1147 0.959 . S
C1141 H1148 0.961 . S
C1141 H1149 0.960 . S
C1142 C1140 1.381 . S
C1142 C1143 1.394 . S
C1142 H1150 0.930 . S
C1143 C1142 1.394 . S
C1143 C1144 1.383 . S
C1143 H1151 0.929 . S
C1144 C1143 1.383 . S
C1144 C1145 1.377 . S
C1145 H1129 0.930 . S
C1145 C1144 1.377 . S
C1145 C1146 1.379 . S
C1146 H1130 0.931 . S
C1146 C1140 1.383 . S
C1146 C1145 1.379 . S
H1147 C1141 0.959 . S
H1148 C1141 0.961 . S
H1149 C1141 0.960 . S
H1150 C1142 0.930 . S
H1151 C1143 0.929 . S
H1152 C1160 0.929 . S
H1153 C1162 0.930 . S
H1154 C1164 0.930 . S
H1155 C1167 0.929 . S
H1156 C1170 0.930 . S
H1157 C1172 0.960 . S
H1158 C1172 0.960 . S
H1159 C1172 0.960 . S
C1160 H1152 0.929 . S
C1160 C1161 1.377 . S
C1160 C1162 1.384 . S
C1161 C1160 1.377 . S
C1161 C1167 1.390 . S
C1162 H1153 0.930 . S
C1162 C1160 1.384 . S
C1162 C1163 1.372 . S
C1163 C1162 1.372 . S
C1163 C1164 1.400 . S
C1163 C1168 1.490 . S
C1164 H1154 0.930 . S
C1164 C1163 1.400 . S
C1164 C1167 1.386 . S
H1165 C1181 0.930 . S
H1166 C1182 0.931 . S
C1167 H1155 0.929 . S
C1167 C1161 1.390 . S
C1167 C1164 1.386 . S
C1168 C1163 1.490 . S
C1168 C1170 1.395 . S
C1168 C1171 1.403 . S
H1169 C1175 0.930 . S
C1170 H1156 0.930 . S
C1170 C1168 1.395 . S
C1170 C1173 1.403 . S
C1171 C1168 1.403 . S
C1171 C1172 1.524 . S
C1171 C1175 1.400 . S
C1172 H1157 0.960 . S
C1172 H1158 0.960 . S
C1172 H1159 0.960 . S
C1172 C1171 1.524 . S
C1173 C1170 1.403 . S
C1173 C1174 1.392 . S
C1173 C1177 1.495 1_556 S
C1174 C1173 1.392 . S
C1174 C1175 1.385 . S
C1174 C1176 1.478 1_556 S
C1175 H1169 0.930 . S
C1175 C1171 1.400 . S
C1175 C1174 1.385 . S
C1176 C1174 1.478 1_554 S
C1176 C1178 1.381 . S
C1176 C1182 1.383 . S
C1177 C1173 1.495 1_554 S
C1177 H1183 0.959 . S
C1177 H1184 0.961 . S
C1177 H1185 0.960 . S
C1178 C1176 1.381 . S
C1178 C1179 1.394 . S
C1178 H1186 0.930 . S
C1179 C1178 1.394 . S
C1179 C1180 1.383 . S
C1179 H1187 0.929 . S
C1180 C1179 1.383 . S
C1180 C1181 1.377 . S
C1181 H1165 0.930 . S
C1181 C1180 1.377 . S
C1181 C1182 1.379 . S
C1182 H1166 0.931 . S
C1182 C1176 1.383 . S
C1182 C1181 1.379 . S
H1183 C1177 0.959 . S
H1184 C1177 0.961 . S
H1185 C1177 0.960 . S
H1186 C1178 0.930 . S
H1187 C1179 0.929 . S
H1188 C1196 0.929 . S
H1189 C1198 0.930 1_556 S
H1190 C1200 0.930 . S
H1191 C1203 0.929 . S
H1192 C1206 0.930 . S
H1193 C1208 0.960 . S
H1194 C1208 0.960 . S
H1195 C1208 0.960 . S
C1196 H1188 0.929 . S
C1196 C1197 1.377 . S
C1196 C1198 1.384 . S
C1197 C1196 1.377 . S
C1197 C1203 1.390 . S
C1198 H1189 0.930 1_554 S
C1198 C1196 1.384 . S
C1198 C1199 1.372 1_554 S
C1199 C1198 1.372 1_556 S
C1199 C1200 1.400 . S
C1199 C1204 1.490 . S
C1200 H1190 0.930 . S
C1200 C1199 1.400 . S
C1200 C1203 1.386 1_556 S
H1201 C1217 0.930 . S
H1202 C1218 0.931 . S
C1203 H1191 0.929 . S
C1203 C1197 1.390 . S
C1203 C1200 1.386 1_554 S
C1204 C1199 1.490 . S
C1204 C1206 1.395 . S
C1204 C1207 1.403 . S
H1205 C1211 0.930 . S
C1206 H1192 0.930 . S
C1206 C1204 1.395 . S
C1206 C1209 1.403 . S
C1207 C1204 1.403 . S
C1207 C1208 1.524 . S
C1207 C1211 1.400 . S
C1208 H1193 0.960 . S
C1208 H1194 0.960 . S
C1208 H1195 0.960 . S
C1208 C1207 1.524 . S
C1209 C1206 1.403 . S
C1209 C1210 1.392 . S
C1209 C1213 1.495 . S
C1210 C1209 1.392 . S
C1210 C1211 1.385 . S
C1210 C1212 1.478 . S
C1211 H1205 0.930 . S
C1211 C1207 1.400 . S
C1211 C1210 1.385 . S
C1212 C1210 1.478 . S
C1212 C1214 1.381 . S
C1212 C1218 1.383 . S
C1213 C1209 1.495 . S
C1213 H1219 0.959 . S
C1213 H1220 0.961 . S
C1213 H1221 0.960 . S
C1214 C1212 1.381 . S
C1214 C1215 1.394 . S
C1214 H1222 0.930 . S
C1215 C1214 1.394 . S
C1215 C1216 1.383 . S
C1215 H1223 0.929 . S
C1216 C1215 1.383 . S
C1216 C1217 1.377 . S
C1217 H1201 0.930 . S
C1217 C1216 1.377 . S
C1217 C1218 1.379 . S
C1218 H1202 0.931 . S
C1218 C1212 1.383 . S
C1218 C1217 1.379 . S
H1219 C1213 0.959 . S
H1220 C1213 0.961 . S
H1221 C1213 0.960 . S
H1222 C1214 0.930 . S
H1223 C1215 0.929 . S
H1224 C1232 0.929 . S
H1225 C1234 0.930 1_556 S
H1226 C1236 0.930 . S
H1227 C1239 0.929 . S
H1228 C1242 0.930 . S
H1229 C1244 0.960 . S
H1230 C1244 0.960 . S
H1231 C1244 0.960 . S
C1232 H1224 0.929 . S
C1232 C1233 1.377 . S
C1232 C1234 1.384 . S
C1233 C1232 1.377 . S
C1233 C1239 1.390 . S
C1234 H1225 0.930 1_554 S
C1234 C1232 1.384 . S
C1234 C1235 1.372 . S
C1235 C1234 1.372 . S
C1235 C1236 1.400 . S
C1235 C1240 1.490 1_554 S
C1236 H1226 0.930 . S
C1236 C1235 1.400 . S
C1236 C1239 1.386 . S
H1237 C1253 0.930 . S
H1238 C1254 0.931 . S
C1239 H1227 0.929 . S
C1239 C1233 1.390 . S
C1239 C1236 1.386 . S
C1240 C1235 1.490 1_556 S
C1240 C1242 1.395 . S
C1240 C1243 1.403 . S
H1241 C1247 0.930 . S
C1242 H1228 0.930 . S
C1242 C1240 1.395 . S
C1242 C1245 1.403 . S
C1243 C1240 1.403 . S
C1243 C1244 1.524 1_556 S
C1243 C1247 1.400 . S
C1244 H1229 0.960 . S
C1244 H1230 0.960 . S
C1244 H1231 0.960 . S
C1244 C1243 1.524 1_554 S
C1245 C1242 1.403 . S
C1245 C1246 1.392 . S
C1245 C1249 1.495 . S
C1246 C1245 1.392 . S
C1246 C1247 1.385 . S
C1246 C1248 1.478 . S
C1247 H1241 0.930 . S
C1247 C1243 1.400 . S
C1247 C1246 1.385 . S
C1248 C1246 1.478 . S
C1248 C1250 1.381 . S
C1248 C1254 1.383 . S
C1249 C1245 1.495 . S
C1249 H1255 0.959 . S
C1249 H1256 0.961 . S
C1249 H1257 0.960 . S
C1250 C1248 1.381 . S
C1250 C1251 1.394 . S
C1250 H1258 0.930 . S
C1251 C1250 1.394 . S
C1251 C1252 1.383 . S
C1251 H1259 0.929 . S
C1252 C1251 1.383 . S
C1252 C1253 1.377 . S
C1253 H1237 0.930 . S
C1253 C1252 1.377 . S
C1253 C1254 1.379 . S
C1254 H1238 0.931 . S
C1254 C1248 1.383 . S
C1254 C1253 1.379 . S
H1255 C1249 0.959 . S
H1256 C1249 0.961 . S
H1257 C1249 0.960 . S
H1258 C1250 0.930 . S
H1259 C1251 0.929 . S
H1260 C1268 0.929 . S
H1261 C1270 0.930 . S
H1262 C1272 0.930 . S
H1263 C1275 0.929 . S
H1264 C1278 0.930 . S
H1265 C1280 0.960 . S
H1266 C1280 0.960 . S
H1267 C1280 0.960 . S
C1268 H1260 0.929 . S
C1268 C1269 1.377 . S
C1268 C1270 1.384 . S
C1269 C1268 1.377 . S
C1269 C1275 1.390 . S
C1270 H1261 0.930 . S
C1270 C1268 1.384 . S
C1270 C1271 1.372 . S
C1271 C1270 1.372 . S
C1271 C1272 1.400 . S
C1271 C1276 1.490 . S
C1272 H1262 0.930 . S
C1272 C1271 1.400 . S
C1272 C1275 1.386 . S
H1273 C1289 0.930 . S
H1274 C1290 0.931 . S
C1275 H1263 0.929 . S
C1275 C1269 1.390 . S
C1275 C1272 1.386 . S
C1276 C1271 1.490 . S
C1276 C1278 1.395 . S
C1276 C1279 1.403 . S
H1277 C1283 0.930 . S
C1278 H1264 0.930 . S
C1278 C1276 1.395 . S
C1278 C1281 1.403 . S
C1279 C1276 1.403 . S
C1279 C1280 1.524 . S
C1279 C1283 1.400 . S
C1280 H1265 0.960 . S
C1280 H1266 0.960 . S
C1280 H1267 0.960 . S
C1280 C1279 1.524 . S
C1281 C1278 1.403 . S
C1281 C1282 1.392 . S
C1281 C1285 1.495 . S
C1282 C1281 1.392 . S
C1282 C1283 1.385 . S
C1282 C1284 1.478 . S
C1283 H1277 0.930 . S
C1283 C1279 1.400 . S
C1283 C1282 1.385 . S
C1284 C1282 1.478 . S
C1284 C1286 1.381 . S
C1284 C1290 1.383 . S
C1285 C1281 1.495 . S
C1285 H1291 0.959 . S
C1285 H1292 0.961 . S
C1285 H1293 0.960 . S
C1286 C1284 1.381 . S
C1286 C1287 1.394 . S
C1286 H1294 0.930 . S
C1287 C1286 1.394 . S
C1287 C1288 1.383 . S
C1287 H1295 0.929 . S
C1288 C1287 1.383 . S
C1288 C1289 1.377 . S
C1289 H1273 0.930 . S
C1289 C1288 1.377 . S
C1289 C1290 1.379 . S
C1290 H1274 0.931 . S
C1290 C1284 1.383 . S
C1290 C1289 1.379 . S
H1291 C1285 0.959 . S
H1292 C1285 0.961 . S
H1293 C1285 0.960 . S
H1294 C1286 0.930 . S
H1295 C1287 0.929 . S
H1296 C1304 0.929 . S
H1297 C1306 0.930 . S
H1298 C1308 0.930 . S
H1299 C1311 0.929 . S
H1300 C1314 0.930 . S
H1301 C1316 0.960 . S
H1302 C1316 0.960 . S
H1303 C1316 0.960 . S
C1304 H1296 0.929 . S
C1304 C1305 1.377 . S
C1304 C1306 1.384 . S
C1305 C1304 1.377 . S
C1305 C1311 1.390 . S
C1306 H1297 0.930 . S
C1306 C1304 1.384 . S
C1306 C1307 1.372 . S
C1307 C1306 1.372 . S
C1307 C1308 1.400 . S
C1307 C1312 1.490 . S
C1308 H1298 0.930 . S
C1308 C1307 1.400 . S
C1308 C1311 1.386 . S
H1309 C1325 0.930 . S
H1310 C1326 0.931 . S
C1311 H1299 0.929 . S
C1311 C1305 1.390 . S
C1311 C1308 1.386 . S
C1312 C1307 1.490 . S
C1312 C1314 1.395 . S
C1312 C1315 1.403 . S
H1313 C1319 0.930 . S
C1314 H1300 0.930 . S
C1314 C1312 1.395 . S
C1314 C1317 1.403 . S
C1315 C1312 1.403 . S
C1315 C1316 1.524 . S
C1315 C1319 1.400 . S
C1316 H1301 0.960 . S
C1316 H1302 0.960 . S
C1316 H1303 0.960 . S
C1316 C1315 1.524 . S
C1317 C1314 1.403 . S
C1317 C1318 1.392 . S
C1317 C1321 1.495 . S
C1318 C1317 1.392 . S
C1318 C1319 1.385 . S
C1318 C1320 1.478 . S
C1319 H1313 0.930 . S
C1319 C1315 1.400 . S
C1319 C1318 1.385 . S
C1320 C1318 1.478 . S
C1320 C1322 1.381 . S
C1320 C1326 1.383 . S
C1321 C1317 1.495 . S
C1321 H1327 0.959 . S
C1321 H1328 0.961 . S
C1321 H1329 0.960 . S
C1322 C1320 1.381 . S
C1322 C1323 1.394 . S
C1322 H1330 0.930 . S
C1323 C1322 1.394 . S
C1323 C1324 1.383 . S
C1323 H1331 0.929 . S
C1324 C1323 1.383 . S
C1324 C1325 1.377 . S
C1325 H1309 0.930 . S
C1325 C1324 1.377 . S
C1325 C1326 1.379 . S
C1326 H1310 0.931 . S
C1326 C1320 1.383 . S
C1326 C1325 1.379 . S
H1327 C1321 0.959 . S
H1328 C1321 0.961 . S
H1329 C1321 0.960 . S
H1330 C1322 0.930 . S
H1331 C1323 0.929 . S
H1332 C1340 0.929 . S
H1333 C1342 0.930 . S
H1334 C1344 0.930 . S
H1335 C1347 0.929 . S
H1336 C1350 0.930 . S
H1337 C1352 0.960 . S
H1338 C1352 0.960 . S
H1339 C1352 0.960 . S
C1340 H1332 0.929 . S
C1340 C1341 1.377 . S
C1340 C1342 1.384 . S
C1341 C1340 1.377 . S
C1341 C1347 1.390 . S
C1342 H1333 0.930 . S
C1342 C1340 1.384 . S
C1342 C1343 1.372 . S
C1343 C1342 1.372 . S
C1343 C1344 1.400 . S
C1343 C1348 1.490 . S
C1344 H1334 0.930 . S
C1344 C1343 1.400 . S
C1344 C1347 1.386 . S
H1345 C1361 0.930 . S
H1346 C1362 0.931 . S
C1347 H1335 0.929 . S
C1347 C1341 1.390 . S
C1347 C1344 1.386 . S
C1348 C1343 1.490 . S
C1348 C1350 1.395 . S
C1348 C1351 1.403 . S
H1349 C1355 0.930 . S
C1350 H1336 0.930 . S
C1350 C1348 1.395 . S
C1350 C1353 1.403 . S
C1351 C1348 1.403 . S
C1351 C1352 1.524 . S
C1351 C1355 1.400 . S
C1352 H1337 0.960 . S
C1352 H1338 0.960 . S
C1352 H1339 0.960 . S
C1352 C1351 1.524 . S
C1353 C1350 1.403 . S
C1353 C1354 1.392 . S
C1353 C1357 1.495 . S
C1354 C1353 1.392 . S
C1354 C1355 1.385 . S
C1354 C1356 1.478 . S
C1355 H1349 0.930 . S
C1355 C1351 1.400 . S
C1355 C1354 1.385 . S
C1356 C1354 1.478 . S
C1356 C1358 1.381 . S
C1356 C1362 1.383 . S
C1357 C1353 1.495 . S
C1357 H1363 0.959 . S
C1357 H1364 0.961 . S
C1357 H1365 0.960 . S
C1358 C1356 1.381 . S
C1358 C1359 1.394 . S
C1358 H1366 0.930 . S
C1359 C1358 1.394 . S
C1359 C1360 1.383 . S
C1359 H1367 0.929 . S
C1360 C1359 1.383 . S
C1360 C1361 1.377 . S
C1361 H1345 0.930 . S
C1361 C1360 1.377 . S
C1361 C1362 1.379 . S
C1362 H1346 0.931 . S
C1362 C1356 1.383 . S
C1362 C1361 1.379 . S
H1363 C1357 0.959 . S
H1364 C1357 0.961 . S
H1365 C1357 0.960 . S
H1366 C1358 0.930 . S
H1367 C1359 0.929 . S
H1368 C1376 0.929 . S
H1369 C1378 0.930 . S
H1370 C1380 0.930 1_554 S
H1371 C1383 0.929 . S
H1372 C1386 0.930 1_556 S
H1373 C1388 0.960 . S
H1374 C1388 0.960 . S
H1375 C1388 0.960 . S
C1376 H1368 0.929 . S
C1376 C1377 1.377 . S
C1376 C1378 1.384 . S
C1377 C1376 1.377 . S
C1377 C1383 1.390 . S
C1378 H1369 0.930 . S
C1378 C1376 1.384 . S
C1378 C1379 1.372 . S
C1379 C1378 1.372 . S
C1379 C1380 1.400 . S
C1379 C1384 1.490 1_556 S
C1380 H1370 0.930 1_556 S
C1380 C1379 1.400 . S
C1380 C1383 1.386 . S
H1381 C1397 0.930 . S
H1382 C1398 0.931 . S
C1383 H1371 0.929 . S
C1383 C1377 1.390 . S
C1383 C1380 1.386 . S
C1384 C1379 1.490 1_554 S
C1384 C1386 1.395 . S
C1384 C1387 1.403 . S
H1385 C1391 0.930 . S
C1386 H1372 0.930 1_554 S
C1386 C1384 1.395 . S
C1386 C1389 1.403 . S
C1387 C1384 1.403 . S
C1387 C1388 1.524 . S
C1387 C1391 1.400 . S
C1388 H1373 0.960 . S
C1388 H1374 0.960 . S
C1388 H1375 0.960 . S
C1388 C1387 1.524 . S
C1389 C1386 1.403 . S
C1389 C1390 1.392 . S
C1389 C1393 1.495 . S
C1390 C1389 1.392 . S
C1390 C1391 1.385 . S
C1390 C1392 1.478 . S
C1391 H1385 0.930 . S
C1391 C1387 1.400 . S
C1391 C1390 1.385 . S
C1392 C1390 1.478 . S
C1392 C1394 1.381 . S
C1392 C1398 1.383 . S
C1393 C1389 1.495 . S
C1393 H1399 0.959 . S
C1393 H1400 0.961 . S
C1393 H1401 0.960 . S
C1394 C1392 1.381 . S
C1394 C1395 1.394 . S
C1394 H1402 0.930 . S
C1395 C1394 1.394 . S
C1395 C1396 1.383 . S
C1395 H1403 0.929 . S
C1396 C1395 1.383 . S
C1396 C1397 1.377 . S
C1397 H1381 0.930 . S
C1397 C1396 1.377 . S
C1397 C1398 1.379 . S
C1398 H1382 0.931 . S
C1398 C1392 1.383 . S
C1398 C1397 1.379 . S
H1399 C1393 0.959 . S
H1400 C1393 0.961 . S
H1401 C1393 0.960 . S
H1402 C1394 0.930 . S
H1403 C1395 0.929 . S
H1404 C1412 0.929 . S
H1405 C1414 0.930 . S
H1406 C1416 0.930 1_554 S
H1407 C1419 0.929 . S
H1408 C1422 0.930 . S
H1409 C1424 0.960 . S
H1410 C1424 0.960 1_556 S
H1411 C1424 0.960 . S
C1412 H1404 0.929 . S
C1412 C1413 1.377 . S
C1412 C1414 1.384 . S
C1413 C1412 1.377 . S
C1413 C1419 1.390 . S
C1414 H1405 0.930 . S
C1414 C1412 1.384 . S
C1414 C1415 1.372 . S
C1415 C1414 1.372 . S
C1415 C1416 1.400 . S
C1415 C1420 1.490 1_556 S
C1416 H1406 0.930 1_556 S
C1416 C1415 1.400 . S
C1416 C1419 1.386 . S
H1417 C1433 0.930 . S
H1418 C1434 0.931 . S
C1419 H1407 0.929 . S
C1419 C1413 1.390 . S
C1419 C1416 1.386 . S
C1420 C1415 1.490 1_554 S
C1420 C1422 1.395 . S
C1420 C1423 1.403 . S
H1421 C1427 0.930 . S
C1422 H1408 0.930 . S
C1422 C1420 1.395 . S
C1422 C1425 1.403 . S
C1423 C1420 1.403 . S
C1423 C1424 1.524 . S
C1423 C1427 1.400 . S
C1424 H1409 0.960 . S
C1424 H1410 0.960 1_554 S
C1424 H1411 0.960 . S
C1424 C1423 1.524 . S
C1425 C1422 1.403 . S
C1425 C1426 1.392 . S
C1425 C1429 1.495 . S
C1426 C1425 1.392 . S
C1426 C1427 1.385 . S
C1426 C1428 1.478 . S
C1427 H1421 0.930 . S
C1427 C1423 1.400 . S
C1427 C1426 1.385 . S
C1428 C1426 1.478 . S
C1428 C1430 1.381 . S
C1428 C1434 1.383 . S
C1429 C1425 1.495 . S
C1429 H1435 0.959 . S
C1429 H1436 0.961 . S
C1429 H1437 0.960 . S
C1430 C1428 1.381 . S
C1430 C1431 1.394 . S
C1430 H1438 0.930 . S
C1431 C1430 1.394 . S
C1431 C1432 1.383 . S
C1431 H1439 0.929 . S
C1432 C1431 1.383 . S
C1432 C1433 1.377 . S
C1433 H1417 0.930 . S
C1433 C1432 1.377 . S
C1433 C1434 1.379 . S
C1434 H1418 0.931 . S
C1434 C1428 1.383 . S
C1434 C1433 1.379 . S
H1435 C1429 0.959 . S
H1436 C1429 0.961 . S
H1437 C1429 0.960 . S
H1438 C1430 0.930 . S
H1439 C1431 0.929 . S
H1440 C1448 0.929 . S
H1441 C1450 0.930 . S
H1442 C1452 0.930 . S
H1443 C1455 0.929 . S
H1444 C1458 0.930 . S
H1445 C1460 0.960 . S
H1446 C1460 0.960 . S
H1447 C1460 0.960 . S
C1448 H1440 0.929 . S
C1448 C1449 1.377 . S
C1448 C1450 1.384 . S
C1449 C1448 1.377 . S
C1449 C1455 1.390 . S
C1450 H1441 0.930 . S
C1450 C1448 1.384 . S
C1450 C1451 1.372 . S
C1451 C1450 1.372 . S
C1451 C1452 1.400 . S
C1451 C1456 1.490 . S
C1452 H1442 0.930 . S
C1452 C1451 1.400 . S
C1452 C1455 1.386 . S
H1453 C1469 0.930 . S
H1454 C1470 0.931 1_554 S
C1455 H1443 0.929 . S
C1455 C1449 1.390 . S
C1455 C1452 1.386 . S
C1456 C1451 1.490 . S
C1456 C1458 1.395 . S
C1456 C1459 1.403 . S
H1457 C1463 0.930 . S
C1458 H1444 0.930 . S
C1458 C1456 1.395 . S
C1458 C1461 1.403 . S
C1459 C1456 1.403 . S
C1459 C1460 1.524 . S
C1459 C1463 1.400 . S
C1460 H1445 0.960 . S
C1460 H1446 0.960 . S
C1460 H1447 0.960 . S
C1460 C1459 1.524 . S
C1461 C1458 1.403 . S
C1461 C1462 1.392 . S
C1461 C1465 1.495 1_554 S
C1462 C1461 1.392 . S
C1462 C1463 1.385 . S
C1462 C1464 1.478 . S
C1463 H1457 0.930 . S
C1463 C1459 1.400 . S
C1463 C1462 1.385 . S
C1464 C1462 1.478 . S
C1464 C1466 1.381 1_554 S
C1464 C1470 1.383 1_554 S
C1465 C1461 1.495 1_556 S
C1465 H1471 0.959 . S
C1465 H1472 0.961 . S
C1465 H1473 0.960 . S
C1466 C1464 1.381 1_556 S
C1466 C1467 1.394 . S
C1466 H1474 0.930 . S
C1467 C1466 1.394 . S
C1467 C1468 1.383 . S
C1467 H1475 0.929 . S
C1468 C1467 1.383 . S
C1468 C1469 1.377 . S
C1469 H1453 0.930 . S
C1469 C1468 1.377 . S
C1469 C1470 1.379 . S
C1470 H1454 0.931 1_556 S
C1470 C1464 1.383 1_556 S
C1470 C1469 1.379 . S
H1471 C1465 0.959 . S
H1472 C1465 0.961 . S
H1473 C1465 0.960 . S
H1474 C1466 0.930 . S
H1475 C1467 0.929 . S
H1476 C1484 0.929 . S
H1477 C1486 0.930 . S
H1478 C1488 0.930 . S
H1479 C1491 0.929 . S
H1480 C1494 0.930 . S
H1481 C1496 0.960 . S
H1482 C1496 0.960 . S
H1483 C1496 0.960 . S
C1484 H1476 0.929 . S
C1484 C1485 1.377 . S
C1484 C1486 1.384 . S
C1485 C1484 1.377 . S
C1485 C1491 1.390 . S
C1486 H1477 0.930 . S
C1486 C1484 1.384 . S
C1486 C1487 1.372 . S
C1487 C1486 1.372 . S
C1487 C1488 1.400 . S
C1487 C1492 1.490 . S
C1488 H1478 0.930 . S
C1488 C1487 1.400 . S
C1488 C1491 1.386 . S
H1489 C1505 0.930 . S
H1490 C1506 0.931 . S
C1491 H1479 0.929 . S
C1491 C1485 1.390 . S
C1491 C1488 1.386 . S
C1492 C1487 1.490 . S
C1492 C1494 1.395 . S
C1492 C1495 1.403 . S
H1493 C1499 0.930 . S
C1494 H1480 0.930 . S
C1494 C1492 1.395 . S
C1494 C1497 1.403 . S
C1495 C1492 1.403 . S
C1495 C1496 1.524 . S
C1495 C1499 1.400 . S
C1496 H1481 0.960 . S
C1496 H1482 0.960 . S
C1496 H1483 0.960 . S
C1496 C1495 1.524 . S
C1497 C1494 1.403 . S
C1497 C1498 1.392 . S
C1497 C1501 1.495 . S
C1498 C1497 1.392 . S
C1498 C1499 1.385 . S
C1498 C1500 1.478 . S
C1499 H1493 0.930 . S
C1499 C1495 1.400 . S
C1499 C1498 1.385 . S
C1500 C1498 1.478 . S
C1500 C1502 1.381 . S
C1500 C1506 1.383 . S
C1501 C1497 1.495 . S
C1501 H1507 0.959 . S
C1501 H1508 0.961 . S
C1501 H1509 0.960 . S
C1502 C1500 1.381 . S
C1502 C1503 1.394 . S
C1502 H1510 0.930 . S
C1503 C1502 1.394 . S
C1503 C1504 1.383 . S
C1503 H1511 0.929 . S
C1504 C1503 1.383 . S
C1504 C1505 1.377 . S
C1505 H1489 0.930 . S
C1505 C1504 1.377 . S
C1505 C1506 1.379 . S
C1506 H1490 0.931 . S
C1506 C1500 1.383 . S
C1506 C1505 1.379 . S
H1507 C1501 0.959 . S
H1508 C1501 0.961 . S
H1509 C1501 0.960 . S
H1510 C1502 0.930 . S
H1511 C1503 0.929 . S
H1512 C1520 0.929 . S
H1513 C1522 0.930 . S
H1514 C1524 0.930 . S
H1515 C1527 0.929 . S
H1516 C1530 0.930 . S
H1517 C1532 0.960 . S
H1518 C1532 0.960 . S
H1519 C1532 0.960 . S
C1520 H1512 0.929 . S
C1520 C1521 1.377 . S
C1520 C1522 1.384 . S
C1521 C1520 1.377 . S
C1521 C1527 1.390 . S
C1522 H1513 0.930 . S
C1522 C1520 1.384 . S
C1522 C1523 1.372 . S
C1523 C1522 1.372 . S
C1523 C1524 1.400 . S
C1523 C1528 1.490 . S
C1524 H1514 0.930 . S
C1524 C1523 1.400 . S
C1524 C1527 1.386 . S
H1525 C1541 0.930 . S
H1526 C1542 0.931 . S
C1527 H1515 0.929 . S
C1527 C1521 1.390 . S
C1527 C1524 1.386 . S
C1528 C1523 1.490 . S
C1528 C1530 1.395 . S
C1528 C1531 1.403 . S
H1529 C1535 0.930 . S
C1530 H1516 0.930 . S
C1530 C1528 1.395 . S
C1530 C1533 1.403 . S
C1531 C1528 1.403 . S
C1531 C1532 1.524 . S
C1531 C1535 1.400 . S
C1532 H1517 0.960 . S
C1532 H1518 0.960 . S
C1532 H1519 0.960 . S
C1532 C1531 1.524 . S
C1533 C1530 1.403 . S
C1533 C1534 1.392 . S
C1533 C1537 1.495 . S
C1534 C1533 1.392 . S
C1534 C1535 1.385 . S
C1534 C1536 1.478 . S
C1535 H1529 0.930 . S
C1535 C1531 1.400 . S
C1535 C1534 1.385 . S
C1536 C1534 1.478 . S
C1536 C1538 1.381 . S
C1536 C1542 1.383 . S
C1537 C1533 1.495 . S
C1537 H1543 0.959 . S
C1537 H1544 0.961 . S
C1537 H1545 0.960 . S
C1538 C1536 1.381 . S
C1538 C1539 1.394 . S
C1538 H1546 0.930 . S
C1539 C1538 1.394 . S
C1539 C1540 1.383 . S
C1539 H1547 0.929 . S
C1540 C1539 1.383 . S
C1540 C1541 1.377 . S
C1541 H1525 0.930 . S
C1541 C1540 1.377 . S
C1541 C1542 1.379 . S
C1542 H1526 0.931 . S
C1542 C1536 1.383 . S
C1542 C1541 1.379 . S
H1543 C1537 0.959 . S
H1544 C1537 0.961 . S
H1545 C1537 0.960 . S
H1546 C1538 0.930 . S
H1547 C1539 0.929 . S
H1548 C1556 0.929 . S
H1549 C1558 0.930 . S
H1550 C1560 0.930 . S
H1551 C1563 0.929 . S
H1552 C1566 0.930 . S
H1553 C1568 0.960 . S
H1554 C1568 0.960 . S
H1555 C1568 0.960 . S
C1556 H1548 0.929 . S
C1556 C1557 1.377 . S
C1556 C1558 1.384 . S
C1557 C1556 1.377 . S
C1557 C1563 1.390 . S
C1558 H1549 0.930 . S
C1558 C1556 1.384 . S
C1558 C1559 1.372 . S
C1559 C1558 1.372 . S
C1559 C1560 1.400 . S
C1559 C1564 1.490 . S
C1560 H1550 0.930 . S
C1560 C1559 1.400 . S
C1560 C1563 1.386 . S
H1561 C1577 0.930 . S
H1562 C1578 0.931 . S
C1563 H1551 0.929 . S
C1563 C1557 1.390 . S
C1563 C1560 1.386 . S
C1564 C1559 1.490 . S
C1564 C1566 1.395 . S
C1564 C1567 1.403 . S
H1565 C1571 0.930 . S
C1566 H1552 0.930 . S
C1566 C1564 1.395 . S
C1566 C1569 1.403 . S
C1567 C1564 1.403 . S
C1567 C1568 1.524 . S
C1567 C1571 1.400 . S
C1568 H1553 0.960 . S
C1568 H1554 0.960 . S
C1568 H1555 0.960 . S
C1568 C1567 1.524 . S
C1569 C1566 1.403 . S
C1569 C1570 1.392 . S
C1569 C1573 1.495 . S
C1570 C1569 1.392 . S
C1570 C1571 1.385 . S
C1570 C1572 1.478 . S
C1571 H1565 0.930 . S
C1571 C1567 1.400 . S
C1571 C1570 1.385 . S
C1572 C1570 1.478 . S
C1572 C1574 1.381 . S
C1572 C1578 1.383 . S
C1573 C1569 1.495 . S
C1573 H1579 0.959 . S
C1573 H1580 0.961 . S
C1573 H1581 0.960 . S
C1574 C1572 1.381 . S
C1574 C1575 1.394 . S
C1574 H1582 0.930 . S
C1575 C1574 1.394 . S
C1575 C1576 1.383 . S
C1575 H1583 0.929 . S
C1576 C1575 1.383 . S
C1576 C1577 1.377 . S
C1577 H1561 0.930 . S
C1577 C1576 1.377 . S
C1577 C1578 1.379 . S
C1578 H1562 0.931 . S
C1578 C1572 1.383 . S
C1578 C1577 1.379 . S
H1579 C1573 0.959 . S
H1580 C1573 0.961 . S
H1581 C1573 0.960 . S
H1582 C1574 0.930 . S
H1583 C1575 0.929 . S
H1584 C1592 0.929 . S
H1585 C1594 0.930 . S
H1586 C1596 0.930 . S
H1587 C1599 0.929 . S
H1588 C1602 0.930 . S
H1589 C1604 0.960 . S
H1590 C1604 0.960 . S
H1591 C1604 0.960 . S
C1592 H1584 0.929 . S
C1592 C1593 1.377 . S
C1592 C1594 1.384 . S
C1593 C1592 1.377 . S
C1593 C1599 1.390 . S
C1594 H1585 0.930 . S
C1594 C1592 1.384 . S
C1594 C1595 1.372 . S
C1595 C1594 1.372 . S
C1595 C1596 1.400 . S
C1595 C1600 1.490 . S
C1596 H1586 0.930 . S
C1596 C1595 1.400 . S
C1596 C1599 1.386 . S
H1597 C1613 0.930 . S
H1598 C1614 0.931 . S
C1599 H1587 0.929 . S
C1599 C1593 1.390 . S
C1599 C1596 1.386 . S
C1600 C1595 1.490 . S
C1600 C1602 1.395 . S
C1600 C1603 1.403 . S
H1601 C1607 0.930 . S
C1602 H1588 0.930 . S
C1602 C1600 1.395 . S
C1602 C1605 1.403 . S
C1603 C1600 1.403 . S
C1603 C1604 1.524 . S
C1603 C1607 1.400 . S
C1604 H1589 0.960 . S
C1604 H1590 0.960 . S
C1604 H1591 0.960 . S
C1604 C1603 1.524 . S
C1605 C1602 1.403 . S
C1605 C1606 1.392 . S
C1605 C1609 1.495 . S
C1606 C1605 1.392 . S
C1606 C1607 1.385 . S
C1606 C1608 1.478 . S
C1607 H1601 0.930 . S
C1607 C1603 1.400 . S
C1607 C1606 1.385 . S
C1608 C1606 1.478 . S
C1608 C1610 1.381 . S
C1608 C1614 1.383 . S
C1609 C1605 1.495 . S
C1609 H1615 0.959 . S
C1609 H1616 0.961 . S
C1609 H1617 0.960 . S
C1610 C1608 1.381 . S
C1610 C1611 1.394 . S
C1610 H1618 0.930 . S
C1611 C1610 1.394 . S
C1611 C1612 1.383 . S
C1611 H1619 0.929 . S
C1612 C1611 1.383 . S
C1612 C1613 1.377 . S
C1613 H1597 0.930 . S
C1613 C1612 1.377 . S
C1613 C1614 1.379 . S
C1614 H1598 0.931 . S
C1614 C1608 1.383 . S
C1614 C1613 1.379 . S
H1615 C1609 0.959 . S
H1616 C1609 0.961 . S
H1617 C1609 0.960 . S
H1618 C1610 0.930 . S
H1619 C1611 0.929 . S
H1620 C1628 0.929 . S
H1621 C1630 0.930 . S
H1622 C1632 0.930 . S
H1623 C1635 0.929 . S
H1624 C1638 0.930 . S
H1625 C1640 0.960 . S
H1626 C1640 0.960 . S
H1627 C1640 0.960 . S
C1628 H1620 0.929 . S
C1628 C1629 1.377 . S
C1628 C1630 1.384 . S
C1629 C1628 1.377 . S
C1629 C1635 1.390 . S
C1630 H1621 0.930 . S
C1630 C1628 1.384 . S
C1630 C1631 1.372 . S
C1631 C1630 1.372 . S
C1631 C1632 1.400 . S
C1631 C1636 1.490 . S
C1632 H1622 0.930 . S
C1632 C1631 1.400 . S
C1632 C1635 1.386 . S
H1633 C1649 0.930 . S
H1634 C1650 0.931 . S
C1635 H1623 0.929 . S
C1635 C1629 1.390 . S
C1635 C1632 1.386 . S
C1636 C1631 1.490 . S
C1636 C1638 1.395 . S
C1636 C1639 1.403 . S
H1637 C1643 0.930 . S
C1638 H1624 0.930 . S
C1638 C1636 1.395 . S
C1638 C1641 1.403 . S
C1639 C1636 1.403 . S
C1639 C1640 1.524 . S
C1639 C1643 1.400 . S
C1640 H1625 0.960 . S
C1640 H1626 0.960 . S
C1640 H1627 0.960 . S
C1640 C1639 1.524 . S
C1641 C1638 1.403 . S
C1641 C1642 1.392 . S
C1641 C1645 1.495 . S
C1642 C1641 1.392 . S
C1642 C1643 1.385 . S
C1642 C1644 1.478 . S
C1643 H1637 0.930 . S
C1643 C1639 1.400 . S
C1643 C1642 1.385 . S
C1644 C1642 1.478 . S
C1644 C1646 1.381 . S
C1644 C1650 1.383 . S
C1645 C1641 1.495 . S
C1645 H1651 0.959 . S
C1645 H1652 0.961 . S
C1645 H1653 0.960 . S
C1646 C1644 1.381 . S
C1646 C1647 1.394 . S
C1646 H1654 0.930 . S
C1647 C1646 1.394 . S
C1647 C1648 1.383 . S
C1647 H1655 0.929 . S
C1648 C1647 1.383 . S
C1648 C1649 1.377 . S
C1649 H1633 0.930 . S
C1649 C1648 1.377 . S
C1649 C1650 1.379 . S
C1650 H1634 0.931 . S
C1650 C1644 1.383 . S
C1650 C1649 1.379 . S
H1651 C1645 0.959 . S
H1652 C1645 0.961 . S
H1653 C1645 0.960 . S
H1654 C1646 0.930 . S
H1655 C1647 0.929 . S
H1656 C1664 0.929 . S
H1657 C1666 0.930 . S
H1658 C1668 0.930 . S
H1659 C1671 0.929 . S
H1660 C1674 0.930 . S
H1661 C1676 0.960 . S
H1662 C1676 0.960 . S
H1663 C1676 0.960 . S
C1664 H1656 0.929 . S
C1664 C1665 1.377 . S
C1664 C1666 1.384 . S
C1665 C1664 1.377 . S
C1665 C1671 1.390 . S
C1666 H1657 0.930 . S
C1666 C1664 1.384 . S
C1666 C1667 1.372 . S
C1667 C1666 1.372 . S
C1667 C1668 1.400 . S
C1667 C1672 1.490 . S
C1668 H1658 0.930 . S
C1668 C1667 1.400 . S
C1668 C1671 1.386 . S
H1669 C1685 0.930 . S
H1670 C1686 0.931 . S
C1671 H1659 0.929 . S
C1671 C1665 1.390 . S
C1671 C1668 1.386 . S
C1672 C1667 1.490 . S
C1672 C1674 1.395 . S
C1672 C1675 1.403 . S
H1673 C1679 0.930 . S
C1674 H1660 0.930 . S
C1674 C1672 1.395 . S
C1674 C1677 1.403 . S
C1675 C1672 1.403 . S
C1675 C1676 1.524 . S
C1675 C1679 1.400 . S
C1676 H1661 0.960 . S
C1676 H1662 0.960 . S
C1676 H1663 0.960 . S
C1676 C1675 1.524 . S
C1677 C1674 1.403 . S
C1677 C1678 1.392 . S
C1677 C1681 1.495 . S
C1678 C1677 1.392 . S
C1678 C1679 1.385 . S
C1678 C1680 1.478 . S
C1679 H1673 0.930 . S
C1679 C1675 1.400 . S
C1679 C1678 1.385 . S
C1680 C1678 1.478 . S
C1680 C1682 1.381 . S
C1680 C1686 1.383 . S
C1681 C1677 1.495 . S
C1681 H1687 0.959 . S
C1681 H1688 0.961 . S
C1681 H1689 0.960 . S
C1682 C1680 1.381 . S
C1682 C1683 1.394 . S
C1682 H1690 0.930 . S
C1683 C1682 1.394 . S
C1683 C1684 1.383 . S
C1683 H1691 0.929 . S
C1684 C1683 1.383 . S
C1684 C1685 1.377 . S
C1685 H1669 0.930 . S
C1685 C1684 1.377 . S
C1685 C1686 1.379 . S
C1686 H1670 0.931 . S
C1686 C1680 1.383 . S
C1686 C1685 1.379 . S
H1687 C1681 0.959 . S
H1688 C1681 0.961 . S
H1689 C1681 0.960 . S
H1690 C1682 0.930 . S
H1691 C1683 0.929 . S
H1692 C1700 0.929 . S
H1693 C1702 0.930 . S
H1694 C1704 0.930 . S
H1695 C1707 0.929 . S
H1696 C1710 0.930 . S
H1697 C1712 0.960 . S
H1698 C1712 0.960 . S
H1699 C1712 0.960 . S
C1700 H1692 0.929 . S
C1700 C1701 1.377 . S
C1700 C1702 1.384 . S
C1701 C1700 1.377 . S
C1701 C1707 1.390 . S
C1702 H1693 0.930 . S
C1702 C1700 1.384 . S
C1702 C1703 1.372 . S
C1703 C1702 1.372 . S
C1703 C1704 1.400 . S
C1703 C1708 1.490 . S
C1704 H1694 0.930 . S
C1704 C1703 1.400 . S
C1704 C1707 1.386 . S
H1705 C1721 0.930 . S
H1706 C1722 0.931 . S
C1707 H1695 0.929 . S
C1707 C1701 1.390 . S
C1707 C1704 1.386 . S
C1708 C1703 1.490 . S
C1708 C1710 1.395 . S
C1708 C1711 1.403 . S
H1709 C1715 0.930 . S
C1710 H1696 0.930 . S
C1710 C1708 1.395 . S
C1710 C1713 1.403 . S
C1711 C1708 1.403 . S
C1711 C1712 1.524 . S
C1711 C1715 1.400 . S
C1712 H1697 0.960 . S
C1712 H1698 0.960 . S
C1712 H1699 0.960 . S
C1712 C1711 1.524 . S
C1713 C1710 1.403 . S
C1713 C1714 1.392 . S
C1713 C1717 1.495 . S
C1714 C1713 1.392 . S
C1714 C1715 1.385 . S
C1714 C1716 1.478 . S
C1715 H1709 0.930 . S
C1715 C1711 1.400 . S
C1715 C1714 1.385 . S
C1716 C1714 1.478 . S
C1716 C1718 1.381 . S
C1716 C1722 1.383 1_556 S
C1717 C1713 1.495 . S
C1717 H1723 0.959 . S
C1717 H1724 0.961 . S
C1717 H1725 0.960 . S
C1718 C1716 1.381 . S
C1718 C1719 1.394 1_556 S
C1718 H1726 0.930 . S
C1719 C1718 1.394 1_554 S
C1719 C1720 1.383 . S
C1719 H1727 0.929 . S
C1720 C1719 1.383 . S
C1720 C1721 1.377 . S
C1721 H1705 0.930 . S
C1721 C1720 1.377 . S
C1721 C1722 1.379 . S
C1722 H1706 0.931 . S
C1722 C1716 1.383 1_554 S
C1722 C1721 1.379 . S
H1723 C1717 0.959 . S
H1724 C1717 0.961 . S
H1725 C1717 0.960 . S
H1726 C1718 0.930 . S
H1727 C1719 0.929 . S
H1728 C1736 0.929 . S
H1729 C1738 0.930 1_556 S
H1730 C1740 0.930 . S
H1731 C1743 0.929 . S
H1732 C1746 0.930 . S
H1733 C1748 0.960 . S
H1734 C1748 0.960 . S
H1735 C1748 0.960 . S
C1736 H1728 0.929 . S
C1736 C1737 1.377 . S
C1736 C1738 1.384 . S
C1737 C1736 1.377 . S
C1737 C1743 1.390 . S
C1738 H1729 0.930 1_554 S
C1738 C1736 1.384 . S
C1738 C1739 1.372 . S
C1739 C1738 1.372 . S
C1739 C1740 1.400 . S
C1739 C1744 1.490 1_554 S
C1740 H1730 0.930 . S
C1740 C1739 1.400 . S
C1740 C1743 1.386 . S
H1741 C1757 0.930 . S
H1742 C1758 0.931 . S
C1743 H1731 0.929 . S
C1743 C1737 1.390 . S
C1743 C1740 1.386 . S
C1744 C1739 1.490 1_556 S
C1744 C1746 1.395 . S
C1744 C1747 1.403 . S
H1745 C1751 0.930 . S
C1746 H1732 0.930 . S
C1746 C1744 1.395 . S
C1746 C1749 1.403 . S
C1747 C1744 1.403 . S
C1747 C1748 1.524 . S
C1747 C1751 1.400 . S
C1748 H1733 0.960 . S
C1748 H1734 0.960 . S
C1748 H1735 0.960 . S
C1748 C1747 1.524 . S
C1749 C1746 1.403 . S
C1749 C1750 1.392 . S
C1749 C1753 1.495 . S
C1750 C1749 1.392 . S
C1750 C1751 1.385 . S
C1750 C1752 1.478 . S
C1751 H1745 0.930 . S
C1751 C1747 1.400 . S
C1751 C1750 1.385 . S
C1752 C1750 1.478 . S
C1752 C1754 1.381 . S
C1752 C1758 1.383 . S
C1753 C1749 1.495 . S
C1753 H1759 0.959 . S
C1753 H1760 0.961 . S
C1753 H1761 0.960 . S
C1754 C1752 1.381 . S
C1754 C1755 1.394 . S
C1754 H1762 0.930 . S
C1755 C1754 1.394 . S
C1755 C1756 1.383 . S
C1755 H1763 0.929 . S
C1756 C1755 1.383 . S
C1756 C1757 1.377 . S
C1757 H1741 0.930 . S
C1757 C1756 1.377 . S
C1757 C1758 1.379 . S
C1758 H1742 0.931 . S
C1758 C1752 1.383 . S
C1758 C1757 1.379 . S
H1759 C1753 0.959 . S
H1760 C1753 0.961 . S
H1761 C1753 0.960 . S
H1762 C1754 0.930 . S
H1763 C1755 0.929 . S
H1764 C1772 0.929 . S
H1765 C1774 0.930 . S
H1766 C1776 0.930 . S
H1767 C1779 0.929 . S
H1768 C1782 0.930 . S
H1769 C1784 0.960 . S
H1770 C1784 0.960 . S
H1771 C1784 0.960 . S
C1772 H1764 0.929 . S
C1772 C1773 1.377 . S
C1772 C1774 1.384 . S
C1773 C1772 1.377 . S
C1773 C1779 1.390 . S
C1774 H1765 0.930 . S
C1774 C1772 1.384 . S
C1774 C1775 1.372 . S
C1775 C1774 1.372 . S
C1775 C1776 1.400 . S
C1775 C1780 1.490 . S
C1776 H1766 0.930 . S
C1776 C1775 1.400 . S
C1776 C1779 1.386 . S
H1777 C1793 0.930 . S
H1778 C1794 0.931 . S
C1779 H1767 0.929 . S
C1779 C1773 1.390 . S
C1779 C1776 1.386 . S
C1780 C1775 1.490 . S
C1780 C1782 1.395 . S
C1780 C1783 1.403 . S
H1781 C1787 0.930 . S
C1782 H1768 0.930 . S
C1782 C1780 1.395 . S
C1782 C1785 1.403 . S
C1783 C1780 1.403 . S
C1783 C1784 1.524 . S
C1783 C1787 1.400 . S
C1784 H1769 0.960 . S
C1784 H1770 0.960 . S
C1784 H1771 0.960 . S
C1784 C1783 1.524 . S
C1785 C1782 1.403 . S
C1785 C1786 1.392 . S
C1785 C1789 1.495 . S
C1786 C1785 1.392 . S
C1786 C1787 1.385 . S
C1786 C1788 1.478 . S
C1787 H1781 0.930 . S
C1787 C1783 1.400 . S
C1787 C1786 1.385 . S
C1788 C1786 1.478 . S
C1788 C1790 1.381 . S
C1788 C1794 1.383 . S
C1789 C1785 1.495 . S
C1789 H1795 0.959 . S
C1789 H1796 0.961 . S
C1789 H1797 0.960 . S
C1790 C1788 1.381 . S
C1790 C1791 1.394 1_556 S
C1790 H1798 0.930 . S
C1791 C1790 1.394 1_554 S
C1791 C1792 1.383 . S
C1791 H1799 0.929 . S
C1792 C1791 1.383 . S
C1792 C1793 1.377 . S
C1793 H1777 0.930 . S
C1793 C1792 1.377 . S
C1793 C1794 1.379 1_554 S
C1794 H1778 0.931 . S
C1794 C1788 1.383 . S
C1794 C1793 1.379 1_556 S
H1795 C1789 0.959 . S
H1796 C1789 0.961 . S
H1797 C1789 0.960 . S
H1798 C1790 0.930 . S
H1799 C1791 0.929 . S
H1800 C1808 0.929 . S
H1801 C1810 0.930 . S
H1802 C1812 0.930 . S
H1803 C1815 0.929 . S
H1804 C1818 0.930 . S
H1805 C1820 0.960 . S
H1806 C1820 0.960 . S
H1807 C1820 0.960 . S
C1808 H1800 0.929 . S
C1808 C1809 1.377 . S
C1808 C1810 1.384 . S
C1809 C1808 1.377 . S
C1809 C1815 1.390 . S
C1810 H1801 0.930 . S
C1810 C1808 1.384 . S
C1810 C1811 1.372 . S
C1811 C1810 1.372 . S
C1811 C1812 1.400 . S
C1811 C1816 1.490 . S
C1812 H1802 0.930 . S
C1812 C1811 1.400 . S
C1812 C1815 1.386 . S
H1813 C1829 0.930 . S
H1814 C1830 0.931 . S
C1815 H1803 0.929 . S
C1815 C1809 1.390 . S
C1815 C1812 1.386 . S
C1816 C1811 1.490 . S
C1816 C1818 1.395 . S
C1816 C1819 1.403 . S
H1817 C1823 0.930 . S
C1818 H1804 0.930 . S
C1818 C1816 1.395 . S
C1818 C1821 1.403 . S
C1819 C1816 1.403 . S
C1819 C1820 1.524 . S
C1819 C1823 1.400 . S
C1820 H1805 0.960 . S
C1820 H1806 0.960 . S
C1820 H1807 0.960 . S
C1820 C1819 1.524 . S
C1821 C1818 1.403 . S
C1821 C1822 1.392 . S
C1821 C1825 1.495 . S
C1822 C1821 1.392 . S
C1822 C1823 1.385 . S
C1822 C1824 1.478 . S
C1823 H1817 0.930 . S
C1823 C1819 1.400 . S
C1823 C1822 1.385 . S
C1824 C1822 1.478 . S
C1824 C1826 1.381 . S
C1824 C1830 1.383 . S
C1825 C1821 1.495 . S
C1825 H1831 0.959 . S
C1825 H1832 0.961 . S
C1825 H1833 0.960 . S
C1826 C1824 1.381 . S
C1826 C1827 1.394 . S
C1826 H1834 0.930 . S
C1827 C1826 1.394 . S
C1827 C1828 1.383 . S
C1827 H1835 0.929 . S
C1828 C1827 1.383 . S
C1828 C1829 1.377 . S
C1829 H1813 0.930 . S
C1829 C1828 1.377 . S
C1829 C1830 1.379 . S
C1830 H1814 0.931 . S
C1830 C1824 1.383 . S
C1830 C1829 1.379 . S
H1831 C1825 0.959 . S
H1832 C1825 0.961 . S
H1833 C1825 0.960 . S
H1834 C1826 0.930 . S
H1835 C1827 0.929 . S
H1836 C1844 0.929 . S
H1837 C1846 0.930 . S
H1838 C1848 0.930 . S
H1839 C1851 0.929 . S
H1840 C1854 0.930 . S
H1841 C1856 0.960 . S
H1842 C1856 0.960 . S
H1843 C1856 0.960 . S
C1844 H1836 0.929 . S
C1844 C1845 1.377 . S
C1844 C1846 1.384 . S
C1845 C1844 1.377 . S
C1845 C1851 1.390 . S
C1846 H1837 0.930 . S
C1846 C1844 1.384 . S
C1846 C1847 1.372 . S
C1847 C1846 1.372 . S
C1847 C1848 1.400 . S
C1847 C1852 1.490 . S
C1848 H1838 0.930 . S
C1848 C1847 1.400 . S
C1848 C1851 1.386 . S
H1849 C1865 0.930 . S
H1850 C1866 0.931 . S
C1851 H1839 0.929 . S
C1851 C1845 1.390 . S
C1851 C1848 1.386 . S
C1852 C1847 1.490 . S
C1852 C1854 1.395 . S
C1852 C1855 1.403 . S
H1853 C1859 0.930 . S
C1854 H1840 0.930 . S
C1854 C1852 1.395 . S
C1854 C1857 1.403 . S
C1855 C1852 1.403 . S
C1855 C1856 1.524 . S
C1855 C1859 1.400 . S
C1856 H1841 0.960 . S
C1856 H1842 0.960 . S
C1856 H1843 0.960 . S
C1856 C1855 1.524 . S
C1857 C1854 1.403 . S
C1857 C1858 1.392 . S
C1857 C1861 1.495 . S
C1858 C1857 1.392 . S
C1858 C1859 1.385 . S
C1858 C1860 1.478 . S
C1859 H1853 0.930 . S
C1859 C1855 1.400 . S
C1859 C1858 1.385 . S
C1860 C1858 1.478 . S
C1860 C1862 1.381 . S
C1860 C1866 1.383 . S
C1861 C1857 1.495 . S
C1861 H1867 0.959 . S
C1861 H1868 0.961 . S
C1861 H1869 0.960 . S
C1862 C1860 1.381 . S
C1862 C1863 1.394 . S
C1862 H1870 0.930 . S
C1863 C1862 1.394 . S
C1863 C1864 1.383 . S
C1863 H1871 0.929 . S
C1864 C1863 1.383 . S
C1864 C1865 1.377 . S
C1865 H1849 0.930 . S
C1865 C1864 1.377 . S
C1865 C1866 1.379 . S
C1866 H1850 0.931 . S
C1866 C1860 1.383 . S
C1866 C1865 1.379 . S
H1867 C1861 0.959 . S
H1868 C1861 0.961 . S
H1869 C1861 0.960 . S
H1870 C1862 0.930 . S
H1871 C1863 0.929 . S
H1872 C1880 0.929 . S
H1873 C1882 0.930 . S
H1874 C1884 0.930 . S
H1875 C1887 0.929 . S
H1876 C1890 0.930 . S
H1877 C1892 0.960 . S
H1878 C1892 0.960 . S
H1879 C1892 0.960 . S
C1880 H1872 0.929 . S
C1880 C1881 1.377 . S
C1880 C1882 1.384 . S
C1881 C1880 1.377 . S
C1881 C1887 1.390 . S
C1882 H1873 0.930 . S
C1882 C1880 1.384 . S
C1882 C1883 1.372 . S
C1883 C1882 1.372 . S
C1883 C1884 1.400 . S
C1883 C1888 1.490 . S
C1884 H1874 0.930 . S
C1884 C1883 1.400 . S
C1884 C1887 1.386 . S
H1885 C1901 0.930 . S
H1886 C1902 0.931 . S
C1887 H1875 0.929 . S
C1887 C1881 1.390 . S
C1887 C1884 1.386 . S
C1888 C1883 1.490 . S
C1888 C1890 1.395 . S
C1888 C1891 1.403 . S
H1889 C1895 0.930 . S
C1890 H1876 0.930 . S
C1890 C1888 1.395 . S
C1890 C1893 1.403 . S
C1891 C1888 1.403 . S
C1891 C1892 1.524 . S
C1891 C1895 1.400 . S
C1892 H1877 0.960 . S
C1892 H1878 0.960 . S
C1892 H1879 0.960 . S
C1892 C1891 1.524 . S
C1893 C1890 1.403 . S
C1893 C1894 1.392 . S
C1893 C1897 1.495 . S
C1894 C1893 1.392 . S
C1894 C1895 1.385 . S
C1894 C1896 1.478 . S
C1895 H1889 0.930 . S
C1895 C1891 1.400 . S
C1895 C1894 1.385 . S
C1896 C1894 1.478 . S
C1896 C1898 1.381 . S
C1896 C1902 1.383 . S
C1897 C1893 1.495 . S
C1897 H1903 0.959 . S
C1897 H1904 0.961 . S
C1897 H1905 0.960 . S
C1898 C1896 1.381 . S
C1898 C1899 1.394 . S
C1898 H1906 0.930 . S
C1899 C1898 1.394 . S
C1899 C1900 1.383 . S
C1899 H1907 0.929 . S
C1900 C1899 1.383 . S
C1900 C1901 1.377 . S
C1901 H1885 0.930 . S
C1901 C1900 1.377 . S
C1901 C1902 1.379 . S
C1902 H1886 0.931 . S
C1902 C1896 1.383 . S
C1902 C1901 1.379 . S
H1903 C1897 0.959 . S
H1904 C1897 0.961 . S
H1905 C1897 0.960 . S
H1906 C1898 0.930 . S
H1907 C1899 0.929 . S
H1908 C1916 0.929 . S
H1909 C1918 0.930 . S
H1910 C1920 0.930 . S
H1911 C1923 0.929 . S
H1912 C1926 0.930 . S
H1913 C1928 0.960 . S
H1914 C1928 0.960 . S
H1915 C1928 0.960 . S
C1916 H1908 0.929 . S
C1916 C1917 1.377 . S
C1916 C1918 1.384 . S
C1917 C1916 1.377 . S
C1917 C1923 1.390 . S
C1918 H1909 0.930 . S
C1918 C1916 1.384 . S
C1918 C1919 1.372 . S
C1919 C1918 1.372 . S
C1919 C1920 1.400 . S
C1919 C1924 1.490 . S
C1920 H1910 0.930 . S
C1920 C1919 1.400 . S
C1920 C1923 1.386 . S
H1921 C1937 0.930 . S
H1922 C1938 0.931 . S
C1923 H1911 0.929 . S
C1923 C1917 1.390 . S
C1923 C1920 1.386 . S
C1924 C1919 1.490 . S
C1924 C1926 1.395 . S
C1924 C1927 1.403 . S
H1925 C1931 0.930 . S
C1926 H1912 0.930 . S
C1926 C1924 1.395 . S
C1926 C1929 1.403 . S
C1927 C1924 1.403 . S
C1927 C1928 1.524 . S
C1927 C1931 1.400 . S
C1928 H1913 0.960 . S
C1928 H1914 0.960 . S
C1928 H1915 0.960 . S
C1928 C1927 1.524 . S
C1929 C1926 1.403 . S
C1929 C1930 1.392 . S
C1929 C1933 1.495 . S
C1930 C1929 1.392 . S
C1930 C1931 1.385 . S
C1930 C1932 1.478 . S
C1931 H1925 0.930 . S
C1931 C1927 1.400 . S
C1931 C1930 1.385 . S
C1932 C1930 1.478 . S
C1932 C1934 1.381 . S
C1932 C1938 1.383 . S
C1933 C1929 1.495 . S
C1933 H1939 0.959 . S
C1933 H1940 0.961 . S
C1933 H1941 0.960 . S
C1934 C1932 1.381 . S
C1934 C1935 1.394 . S
C1934 H1942 0.930 . S
C1935 C1934 1.394 . S
C1935 C1936 1.383 . S
C1935 H1943 0.929 . S
C1936 C1935 1.383 . S
C1936 C1937 1.377 . S
C1937 H1921 0.930 . S
C1937 C1936 1.377 . S
C1937 C1938 1.379 . S
C1938 H1922 0.931 . S
C1938 C1932 1.383 . S
C1938 C1937 1.379 . S
H1939 C1933 0.959 . S
H1940 C1933 0.961 . S
H1941 C1933 0.960 . S
H1942 C1934 0.930 . S
H1943 C1935 0.929 . S
H1944 C1952 0.929 . S
H1945 C1954 0.930 . S
H1946 C1956 0.930 . S
H1947 C1959 0.929 . S
H1948 C1962 0.930 . S
H1949 C1964 0.960 . S
H1950 C1964 0.960 . S
H1951 C1964 0.960 . S
C1952 H1944 0.929 . S
C1952 C1953 1.377 . S
C1952 C1954 1.384 . S
C1953 C1952 1.377 . S
C1953 C1959 1.390 . S
C1954 H1945 0.930 . S
C1954 C1952 1.384 . S
C1954 C1955 1.372 . S
C1955 C1954 1.372 . S
C1955 C1956 1.400 . S
C1955 C1960 1.490 . S
C1956 H1946 0.930 . S
C1956 C1955 1.400 . S
C1956 C1959 1.386 . S
H1957 C1973 0.930 . S
H1958 C1974 0.931 . S
C1959 H1947 0.929 . S
C1959 C1953 1.390 . S
C1959 C1956 1.386 . S
C1960 C1955 1.490 . S
C1960 C1962 1.395 . S
C1960 C1963 1.403 . S
H1961 C1967 0.930 . S
C1962 H1948 0.930 . S
C1962 C1960 1.395 . S
C1962 C1965 1.403 . S
C1963 C1960 1.403 . S
C1963 C1964 1.524 . S
C1963 C1967 1.400 . S
C1964 H1949 0.960 . S
C1964 H1950 0.960 . S
C1964 H1951 0.960 . S
C1964 C1963 1.524 . S
C1965 C1962 1.403 . S
C1965 C1966 1.392 . S
C1965 C1969 1.495 . S
C1966 C1965 1.392 . S
C1966 C1967 1.385 . S
C1966 C1968 1.478 . S
C1967 H1961 0.930 . S
C1967 C1963 1.400 . S
C1967 C1966 1.385 . S
C1968 C1966 1.478 . S
C1968 C1970 1.381 . S
C1968 C1974 1.383 . S
C1969 C1965 1.495 . S
C1969 H1975 0.959 . S
C1969 H1976 0.961 . S
C1969 H1977 0.960 . S
C1970 C1968 1.381 . S
C1970 C1971 1.394 . S
C1970 H1978 0.930 . S
C1971 C1970 1.394 . S
C1971 C1972 1.383 . S
C1971 H1979 0.929 . S
C1972 C1971 1.383 . S
C1972 C1973 1.377 . S
C1973 H1957 0.930 . S
C1973 C1972 1.377 . S
C1973 C1974 1.379 . S
C1974 H1958 0.931 . S
C1974 C1968 1.383 . S
C1974 C1973 1.379 . S
H1975 C1969 0.959 . S
H1976 C1969 0.961 . S
H1977 C1969 0.960 . S
H1978 C1970 0.930 . S
H1979 C1971 0.929 . S
H1980 C1988 0.929 . S
H1981 C1990 0.930 . S
H1982 C1992 0.930 . S
H1983 C1995 0.929 . S
H1984 C1998 0.930 . S
H1985 C2000 0.960 . S
H1986 C2000 0.960 . S
H1987 C2000 0.960 . S
C1988 H1980 0.929 . S
C1988 C1989 1.377 . S
C1988 C1990 1.384 . S
C1989 C1988 1.377 . S
C1989 C1995 1.390 . S
C1990 H1981 0.930 . S
C1990 C1988 1.384 . S
C1990 C1991 1.372 . S
C1991 C1990 1.372 . S
C1991 C1992 1.400 . S
C1991 C1996 1.490 . S
C1992 H1982 0.930 . S
C1992 C1991 1.400 . S
C1992 C1995 1.386 . S
H1993 C2009 0.930 . S
H1994 C2010 0.931 . S
C1995 H1983 0.929 . S
C1995 C1989 1.390 . S
C1995 C1992 1.386 . S
C1996 C1991 1.490 . S
C1996 C1998 1.395 . S
C1996 C1999 1.403 . S
H1997 C2003 0.930 . S
C1998 H1984 0.930 . S
C1998 C1996 1.395 . S
C1998 C2001 1.403 . S
C1999 C1996 1.403 . S
C1999 C2000 1.524 . S
C1999 C2003 1.400 . S
C2000 H1985 0.960 . S
C2000 H1986 0.960 . S
C2000 H1987 0.960 . S
C2000 C1999 1.524 . S
C2001 C1998 1.403 . S
C2001 C2002 1.392 . S
C2001 C2005 1.495 . S
C2002 C2001 1.392 . S
C2002 C2003 1.385 . S
C2002 C2004 1.478 . S
C2003 H1997 0.930 . S
C2003 C1999 1.400 . S
C2003 C2002 1.385 . S
C2004 C2002 1.478 . S
C2004 C2006 1.381 . S
C2004 C2010 1.383 . S
C2005 C2001 1.495 . S
C2005 H2011 0.959 . S
C2005 H2012 0.961 . S
C2005 H2013 0.960 . S
C2006 C2004 1.381 . S
C2006 C2007 1.394 . S
C2006 H2014 0.930 . S
C2007 C2006 1.394 . S
C2007 C2008 1.383 . S
C2007 H2015 0.929 . S
C2008 C2007 1.383 . S
C2008 C2009 1.377 . S
C2009 H1993 0.930 . S
C2009 C2008 1.377 . S
C2009 C2010 1.379 . S
C2010 H1994 0.931 . S
C2010 C2004 1.383 . S
C2010 C2009 1.379 . S
H2011 C2005 0.959 . S
H2012 C2005 0.961 . S
H2013 C2005 0.960 . S
H2014 C2006 0.930 . S
H2015 C2007 0.929 . S
H2016 C2024 0.929 . S
H2017 C2026 0.930 . S
H2018 C2028 0.930 . S
H2019 C2031 0.929 . S
H2020 C2034 0.930 . S
H2021 C2036 0.960 . S
H2022 C2036 0.960 . S
H2023 C2036 0.960 . S
C2024 H2016 0.929 . S
C2024 C2025 1.377 . S
C2024 C2026 1.384 . S
C2025 C2024 1.377 . S
C2025 C2031 1.390 . S
C2026 H2017 0.930 . S
C2026 C2024 1.384 . S
C2026 C2027 1.372 . S
C2027 C2026 1.372 . S
C2027 C2028 1.400 . S
C2027 C2032 1.490 . S
C2028 H2018 0.930 . S
C2028 C2027 1.400 . S
C2028 C2031 1.386 . S
H2029 C2045 0.930 . S
H2030 C2046 0.931 . S
C2031 H2019 0.929 . S
C2031 C2025 1.390 . S
C2031 C2028 1.386 . S
C2032 C2027 1.490 . S
C2032 C2034 1.395 . S
C2032 C2035 1.403 . S
H2033 C2039 0.930 . S
C2034 H2020 0.930 . S
C2034 C2032 1.395 . S
C2034 C2037 1.403 . S
C2035 C2032 1.403 . S
C2035 C2036 1.524 . S
C2035 C2039 1.400 . S
C2036 H2021 0.960 . S
C2036 H2022 0.960 . S
C2036 H2023 0.960 . S
C2036 C2035 1.524 . S
C2037 C2034 1.403 . S
C2037 C2038 1.392 . S
C2037 C2041 1.495 . S
C2038 C2037 1.392 . S
C2038 C2039 1.385 . S
C2038 C2040 1.478 . S
C2039 H2033 0.930 . S
C2039 C2035 1.400 . S
C2039 C2038 1.385 . S
C2040 C2038 1.478 . S
C2040 C2042 1.381 . S
C2040 C2046 1.383 . S
C2041 C2037 1.495 . S
C2041 H2047 0.959 . S
C2041 H2048 0.961 . S
C2041 H2049 0.960 . S
C2042 C2040 1.381 . S
C2042 C2043 1.394 . S
C2042 H2050 0.930 . S
C2043 C2042 1.394 . S
C2043 C2044 1.383 . S
C2043 H2051 0.929 . S
C2044 C2043 1.383 . S
C2044 C2045 1.377 . S
C2045 H2029 0.930 . S
C2045 C2044 1.377 . S
C2045 C2046 1.379 . S
C2046 H2030 0.931 . S
C2046 C2040 1.383 . S
C2046 C2045 1.379 . S
H2047 C2041 0.959 . S
H2048 C2041 0.961 . S
H2049 C2041 0.960 . S
H2050 C2042 0.930 . S
H2051 C2043 0.929 . S
H2052 C2060 0.929 . S
H2053 C2062 0.930 . S
H2054 C2064 0.930 . S
H2055 C2067 0.929 . S
H2056 C2070 0.930 . S
H2057 C2072 0.960 . S
H2058 C2072 0.960 . S
H2059 C2072 0.960 . S
C2060 H2052 0.929 . S
C2060 C2061 1.377 . S
C2060 C2062 1.384 . S
C2061 C2060 1.377 . S
C2061 C2067 1.390 . S
C2062 H2053 0.930 . S
C2062 C2060 1.384 . S
C2062 C2063 1.372 . S
C2063 C2062 1.372 . S
C2063 C2064 1.400 . S
C2063 C2068 1.490 . S
C2064 H2054 0.930 . S
C2064 C2063 1.400 . S
C2064 C2067 1.386 . S
H2065 C2081 0.930 . S
H2066 C2082 0.931 . S
C2067 H2055 0.929 . S
C2067 C2061 1.390 . S
C2067 C2064 1.386 . S
C2068 C2063 1.490 . S
C2068 C2070 1.395 . S
C2068 C2071 1.403 . S
H2069 C2075 0.930 . S
C2070 H2056 0.930 . S
C2070 C2068 1.395 . S
C2070 C2073 1.403 . S
C2071 C2068 1.403 . S
C2071 C2072 1.524 . S
C2071 C2075 1.400 . S
C2072 H2057 0.960 . S
C2072 H2058 0.960 . S
C2072 H2059 0.960 . S
C2072 C2071 1.524 . S
C2073 C2070 1.403 . S
C2073 C2074 1.392 . S
C2073 C2077 1.495 . S
C2074 C2073 1.392 . S
C2074 C2075 1.385 . S
C2074 C2076 1.478 . S
C2075 H2069 0.930 . S
C2075 C2071 1.400 . S
C2075 C2074 1.385 . S
C2076 C2074 1.478 . S
C2076 C2078 1.381 . S
C2076 C2082 1.383 . S
C2077 C2073 1.495 . S
C2077 H2083 0.959 . S
C2077 H2084 0.961 . S
C2077 H2085 0.960 . S
C2078 C2076 1.381 . S
C2078 C2079 1.394 . S
C2078 H2086 0.930 . S
C2079 C2078 1.394 . S
C2079 C2080 1.383 . S
C2079 H2087 0.929 . S
C2080 C2079 1.383 . S
C2080 C2081 1.377 . S
C2081 H2065 0.930 . S
C2081 C2080 1.377 . S
C2081 C2082 1.379 . S
C2082 H2066 0.931 . S
C2082 C2076 1.383 . S
C2082 C2081 1.379 . S
H2083 C2077 0.959 . S
H2084 C2077 0.961 . S
H2085 C2077 0.960 . S
H2086 C2078 0.930 . S
H2087 C2079 0.929 . S
H2088 C2096 0.929 . S
H2089 C2098 0.930 . S
H2090 C2100 0.930 . S
H2091 C2103 0.929 . S
H2092 C2106 0.930 . S
H2093 C2108 0.960 . S
H2094 C2108 0.960 . S
H2095 C2108 0.960 . S
C2096 H2088 0.929 . S
C2096 C2097 1.377 . S
C2096 C2098 1.384 . S
C2097 C2096 1.377 . S
C2097 C2103 1.390 . S
C2098 H2089 0.930 . S
C2098 C2096 1.384 . S
C2098 C2099 1.372 . S
C2099 C2098 1.372 . S
C2099 C2100 1.400 . S
C2099 C2104 1.490 . S
C2100 H2090 0.930 . S
C2100 C2099 1.400 . S
C2100 C2103 1.386 . S
H2101 C2117 0.930 . S
H2102 C2118 0.931 . S
C2103 H2091 0.929 . S
C2103 C2097 1.390 . S
C2103 C2100 1.386 . S
C2104 C2099 1.490 . S
C2104 C2106 1.395 . S
C2104 C2107 1.403 . S
H2105 C2111 0.930 . S
C2106 H2092 0.930 . S
C2106 C2104 1.395 . S
C2106 C2109 1.403 . S
C2107 C2104 1.403 . S
C2107 C2108 1.524 . S
C2107 C2111 1.400 . S
C2108 H2093 0.960 . S
C2108 H2094 0.960 . S
C2108 H2095 0.960 . S
C2108 C2107 1.524 . S
C2109 C2106 1.403 . S
C2109 C2110 1.392 . S
C2109 C2113 1.495 . S
C2110 C2109 1.392 . S
C2110 C2111 1.385 . S
C2110 C2112 1.478 . S
C2111 H2105 0.930 . S
C2111 C2107 1.400 . S
C2111 C2110 1.385 . S
C2112 C2110 1.478 . S
C2112 C2114 1.381 . S
C2112 C2118 1.383 . S
C2113 C2109 1.495 . S
C2113 H2119 0.959 . S
C2113 H2120 0.961 . S
C2113 H2121 0.960 . S
C2114 C2112 1.381 . S
C2114 C2115 1.394 . S
C2114 H2122 0.930 . S
C2115 C2114 1.394 . S
C2115 C2116 1.383 . S
C2115 H2123 0.929 . S
C2116 C2115 1.383 . S
C2116 C2117 1.377 . S
C2117 H2101 0.930 . S
C2117 C2116 1.377 . S
C2117 C2118 1.379 . S
C2118 H2102 0.931 . S
C2118 C2112 1.383 . S
C2118 C2117 1.379 . S
H2119 C2113 0.959 . S
H2120 C2113 0.961 . S
H2121 C2113 0.960 . S
H2122 C2114 0.930 . S
H2123 C2115 0.929 . S
H2124 C2132 0.929 . S
H2125 C2134 0.930 . S
H2126 C2136 0.930 . S
H2127 C2139 0.929 . S
H2128 C2142 0.930 . S
H2129 C2144 0.960 . S
H2130 C2144 0.960 . S
H2131 C2144 0.960 . S
C2132 H2124 0.929 . S
C2132 C2133 1.377 . S
C2132 C2134 1.384 . S
C2133 C2132 1.377 . S
C2133 C2139 1.390 . S
C2134 H2125 0.930 . S
C2134 C2132 1.384 . S
C2134 C2135 1.372 . S
C2135 C2134 1.372 . S
C2135 C2136 1.400 . S
C2135 C2140 1.490 . S
C2136 H2126 0.930 . S
C2136 C2135 1.400 . S
C2136 C2139 1.386 . S
H2137 C2153 0.930 . S
H2138 C2154 0.931 . S
C2139 H2127 0.929 . S
C2139 C2133 1.390 . S
C2139 C2136 1.386 . S
C2140 C2135 1.490 . S
C2140 C2142 1.395 . S
C2140 C2143 1.403 . S
H2141 C2147 0.930 . S
C2142 H2128 0.930 . S
C2142 C2140 1.395 . S
C2142 C2145 1.403 . S
C2143 C2140 1.403 . S
C2143 C2144 1.524 . S
C2143 C2147 1.400 . S
C2144 H2129 0.960 . S
C2144 H2130 0.960 . S
C2144 H2131 0.960 . S
C2144 C2143 1.524 . S
C2145 C2142 1.403 . S
C2145 C2146 1.392 . S
C2145 C2149 1.495 . S
C2146 C2145 1.392 . S
C2146 C2147 1.385 . S
C2146 C2148 1.478 . S
C2147 H2141 0.930 . S
C2147 C2143 1.400 . S
C2147 C2146 1.385 . S
C2148 C2146 1.478 . S
C2148 C2150 1.381 . S
C2148 C2154 1.383 . S
C2149 C2145 1.495 . S
C2149 H2155 0.959 . S
C2149 H2156 0.961 . S
C2149 H2157 0.960 . S
C2150 C2148 1.381 . S
C2150 C2151 1.394 . S
C2150 H2158 0.930 . S
C2151 C2150 1.394 . S
C2151 C2152 1.383 . S
C2151 H2159 0.929 . S
C2152 C2151 1.383 . S
C2152 C2153 1.377 . S
C2153 H2137 0.930 . S
C2153 C2152 1.377 . S
C2153 C2154 1.379 . S
C2154 H2138 0.931 . S
C2154 C2148 1.383 . S
C2154 C2153 1.379 . S
H2155 C2149 0.959 . S
H2156 C2149 0.961 . S
H2157 C2149 0.960 . S
H2158 C2150 0.930 . S
H2159 C2151 0.929 . S
H2160 C2168 0.929 . S
H2161 C2170 0.930 . S
H2162 C2172 0.930 . S
H2163 C2175 0.929 . S
H2164 C2178 0.930 . S
H2165 C2180 0.960 . S
H2166 C2180 0.960 . S
H2167 C2180 0.960 . S
C2168 H2160 0.929 . S
C2168 C2169 1.377 . S
C2168 C2170 1.384 . S
C2169 C2168 1.377 . S
C2169 C2175 1.390 . S
C2170 H2161 0.930 . S
C2170 C2168 1.384 . S
C2170 C2171 1.372 . S
C2171 C2170 1.372 . S
C2171 C2172 1.400 . S
C2171 C2176 1.490 . S
C2172 H2162 0.930 . S
C2172 C2171 1.400 . S
C2172 C2175 1.386 . S
H2173 C2189 0.930 . S
H2174 C2190 0.931 . S
C2175 H2163 0.929 . S
C2175 C2169 1.390 . S
C2175 C2172 1.386 . S
C2176 C2171 1.490 . S
C2176 C2178 1.395 . S
C2176 C2179 1.403 . S
H2177 C2183 0.930 . S
C2178 H2164 0.930 . S
C2178 C2176 1.395 . S
C2178 C2181 1.403 . S
C2179 C2176 1.403 . S
C2179 C2180 1.524 . S
C2179 C2183 1.400 . S
C2180 H2165 0.960 . S
C2180 H2166 0.960 . S
C2180 H2167 0.960 . S
C2180 C2179 1.524 . S
C2181 C2178 1.403 . S
C2181 C2182 1.392 . S
C2181 C2185 1.495 . S
C2182 C2181 1.392 . S
C2182 C2183 1.385 . S
C2182 C2184 1.478 . S
C2183 H2177 0.930 . S
C2183 C2179 1.400 . S
C2183 C2182 1.385 . S
C2184 C2182 1.478 . S
C2184 C2186 1.381 . S
C2184 C2190 1.383 . S
C2185 C2181 1.495 . S
C2185 H2191 0.959 . S
C2185 H2192 0.961 . S
C2185 H2193 0.960 . S
C2186 C2184 1.381 . S
C2186 C2187 1.394 . S
C2186 H2194 0.930 . S
C2187 C2186 1.394 . S
C2187 C2188 1.383 . S
C2187 H2195 0.929 . S
C2188 C2187 1.383 . S
C2188 C2189 1.377 . S
C2189 H2173 0.930 . S
C2189 C2188 1.377 . S
C2189 C2190 1.379 . S
C2190 H2174 0.931 . S
C2190 C2184 1.383 . S
C2190 C2189 1.379 . S
H2191 C2185 0.959 . S
H2192 C2185 0.961 . S
H2193 C2185 0.960 . S
H2194 C2186 0.930 . S
H2195 C2187 0.929 . S
H2196 C2204 0.929 . S
H2197 C2206 0.930 . S
H2198 C2208 0.930 . S
H2199 C2211 0.929 . S
H2200 C2214 0.930 . S
H2201 C2216 0.960 . S
H2202 C2216 0.960 . S
H2203 C2216 0.960 . S
C2204 H2196 0.929 . S
C2204 C2205 1.377 . S
C2204 C2206 1.384 . S
C2205 C2204 1.377 . S
C2205 C2211 1.390 . S
C2206 H2197 0.930 . S
C2206 C2204 1.384 . S
C2206 C2207 1.372 . S
C2207 C2206 1.372 . S
C2207 C2208 1.400 . S
C2207 C2212 1.490 . S
C2208 H2198 0.930 . S
C2208 C2207 1.400 . S
C2208 C2211 1.386 . S
H2209 C2225 0.930 . S
H2210 C2226 0.931 . S
C2211 H2199 0.929 . S
C2211 C2205 1.390 . S
C2211 C2208 1.386 . S
C2212 C2207 1.490 . S
C2212 C2214 1.395 . S
C2212 C2215 1.403 . S
H2213 C2219 0.930 . S
C2214 H2200 0.930 . S
C2214 C2212 1.395 . S
C2214 C2217 1.403 . S
C2215 C2212 1.403 . S
C2215 C2216 1.524 . S
C2215 C2219 1.400 . S
C2216 H2201 0.960 . S
C2216 H2202 0.960 . S
C2216 H2203 0.960 . S
C2216 C2215 1.524 . S
C2217 C2214 1.403 . S
C2217 C2218 1.392 . S
C2217 C2221 1.495 . S
C2218 C2217 1.392 . S
C2218 C2219 1.385 . S
C2218 C2220 1.478 . S
C2219 H2213 0.930 . S
C2219 C2215 1.400 . S
C2219 C2218 1.385 . S
C2220 C2218 1.478 . S
C2220 C2222 1.381 . S
C2220 C2226 1.383 . S
C2221 C2217 1.495 . S
C2221 H2227 0.959 . S
C2221 H2228 0.961 . S
C2221 H2229 0.960 . S
C2222 C2220 1.381 . S
C2222 C2223 1.394 . S
C2222 H2230 0.930 . S
C2223 C2222 1.394 . S
C2223 C2224 1.383 . S
C2223 H2231 0.929 . S
C2224 C2223 1.383 . S
C2224 C2225 1.377 . S
C2225 H2209 0.930 . S
C2225 C2224 1.377 . S
C2225 C2226 1.379 . S
C2226 H2210 0.931 . S
C2226 C2220 1.383 . S
C2226 C2225 1.379 . S
H2227 C2221 0.959 . S
H2228 C2221 0.961 . S
H2229 C2221 0.960 . S
H2230 C2222 0.930 . S
H2231 C2223 0.929 . S
H2232 C2240 0.929 . S
H2233 C2242 0.930 . S
H2234 C2244 0.930 . S
H2235 C2247 0.929 . S
H2236 C2250 0.930 . S
H2237 C2252 0.960 . S
H2238 C2252 0.960 . S
H2239 C2252 0.960 . S
C2240 H2232 0.929 . S
C2240 C2241 1.377 . S
C2240 C2242 1.384 . S
C2241 C2240 1.377 . S
C2241 C2247 1.390 . S
C2242 H2233 0.930 . S
C2242 C2240 1.384 . S
C2242 C2243 1.372 . S
C2243 C2242 1.372 . S
C2243 C2244 1.400 . S
C2243 C2248 1.490 . S
C2244 H2234 0.930 . S
C2244 C2243 1.400 . S
C2244 C2247 1.386 . S
H2245 C2261 0.930 . S
H2246 C2262 0.931 . S
C2247 H2235 0.929 . S
C2247 C2241 1.390 . S
C2247 C2244 1.386 . S
C2248 C2243 1.490 . S
C2248 C2250 1.395 . S
C2248 C2251 1.403 . S
H2249 C2255 0.930 . S
C2250 H2236 0.930 . S
C2250 C2248 1.395 . S
C2250 C2253 1.403 . S
C2251 C2248 1.403 . S
C2251 C2252 1.524 . S
C2251 C2255 1.400 . S
C2252 H2237 0.960 . S
C2252 H2238 0.960 . S
C2252 H2239 0.960 . S
C2252 C2251 1.524 . S
C2253 C2250 1.403 . S
C2253 C2254 1.392 . S
C2253 C2257 1.495 . S
C2254 C2253 1.392 . S
C2254 C2255 1.385 . S
C2254 C2256 1.478 . S
C2255 H2249 0.930 . S
C2255 C2251 1.400 . S
C2255 C2254 1.385 . S
C2256 C2254 1.478 . S
C2256 C2258 1.381 . S
C2256 C2262 1.383 . S
C2257 C2253 1.495 . S
C2257 H2263 0.959 . S
C2257 H2264 0.961 . S
C2257 H2265 0.960 . S
C2258 C2256 1.381 . S
C2258 C2259 1.394 . S
C2258 H2266 0.930 . S
C2259 C2258 1.394 . S
C2259 C2260 1.383 . S
C2259 H2267 0.929 . S
C2260 C2259 1.383 . S
C2260 C2261 1.377 . S
C2261 H2245 0.930 . S
C2261 C2260 1.377 . S
C2261 C2262 1.379 . S
C2262 H2246 0.931 . S
C2262 C2256 1.383 . S
C2262 C2261 1.379 . S
H2263 C2257 0.959 . S
H2264 C2257 0.961 . S
H2265 C2257 0.960 . S
H2266 C2258 0.930 . S
H2267 C2259 0.929 . S
H2268 C2276 0.929 . S
H2269 C2278 0.930 . S
H2270 C2280 0.930 . S
H2271 C2283 0.929 . S
H2272 C2286 0.930 . S
H2273 C2288 0.960 . S
H2274 C2288 0.960 . S
H2275 C2288 0.960 . S
C2276 H2268 0.929 . S
C2276 C2277 1.377 . S
C2276 C2278 1.384 . S
C2277 C2276 1.377 . S
C2277 C2283 1.390 . S
C2278 H2269 0.930 . S
C2278 C2276 1.384 . S
C2278 C2279 1.372 . S
C2279 C2278 1.372 . S
C2279 C2280 1.400 . S
C2279 C2284 1.490 . S
C2280 H2270 0.930 . S
C2280 C2279 1.400 . S
C2280 C2283 1.386 . S
H2281 C2297 0.930 . S
H2282 C2298 0.931 . S
C2283 H2271 0.929 . S
C2283 C2277 1.390 . S
C2283 C2280 1.386 . S
C2284 C2279 1.490 . S
C2284 C2286 1.395 . S
C2284 C2287 1.403 . S
H2285 C2291 0.930 . S
C2286 H2272 0.930 . S
C2286 C2284 1.395 . S
C2286 C2289 1.403 . S
C2287 C2284 1.403 . S
C2287 C2288 1.524 . S
C2287 C2291 1.400 . S
C2288 H2273 0.960 . S
C2288 H2274 0.960 . S
C2288 H2275 0.960 . S
C2288 C2287 1.524 . S
C2289 C2286 1.403 . S
C2289 C2290 1.392 . S
C2289 C2293 1.495 . S
C2290 C2289 1.392 . S
C2290 C2291 1.385 . S
C2290 C2292 1.478 . S
C2291 H2285 0.930 . S
C2291 C2287 1.400 . S
C2291 C2290 1.385 . S
C2292 C2290 1.478 . S
C2292 C2294 1.381 . S
C2292 C2298 1.383 . S
C2293 C2289 1.495 . S
C2293 H2299 0.959 . S
C2293 H2300 0.961 . S
C2293 H2301 0.960 . S
C2294 C2292 1.381 . S
C2294 C2295 1.394 . S
C2294 H2302 0.930 . S
C2295 C2294 1.394 . S
C2295 C2296 1.383 . S
C2295 H2303 0.929 . S
C2296 C2295 1.383 . S
C2296 C2297 1.377 . S
C2297 H2281 0.930 . S
C2297 C2296 1.377 . S
C2297 C2298 1.379 . S
C2298 H2282 0.931 . S
C2298 C2292 1.383 . S
C2298 C2297 1.379 . S
H2299 C2293 0.959 . S
H2300 C2293 0.961 . S
H2301 C2293 0.960 . S
H2302 C2294 0.930 . S
H2303 C2295 0.929 . S
H2304 C2312 0.929 . S
H2305 C2314 0.930 . S
H2306 C2316 0.930 . S
H2307 C2319 0.929 . S
H2308 C2322 0.930 . S
H2309 C2324 0.960 . S
H2310 C2324 0.960 . S
H2311 C2324 0.960 . S
C2312 H2304 0.929 . S
C2312 C2313 1.377 . S
C2312 C2314 1.384 . S
C2313 C2312 1.377 . S
C2313 C2319 1.390 . S
C2314 H2305 0.930 . S
C2314 C2312 1.384 . S
C2314 C2315 1.372 . S
C2315 C2314 1.372 . S
C2315 C2316 1.400 . S
C2315 C2320 1.490 . S
C2316 H2306 0.930 . S
C2316 C2315 1.400 . S
C2316 C2319 1.386 . S
H2317 C2333 0.930 . S
H2318 C2334 0.931 . S
C2319 H2307 0.929 . S
C2319 C2313 1.390 . S
C2319 C2316 1.386 . S
C2320 C2315 1.490 . S
C2320 C2322 1.395 . S
C2320 C2323 1.403 . S
H2321 C2327 0.930 . S
C2322 H2308 0.930 . S
C2322 C2320 1.395 . S
C2322 C2325 1.403 . S
C2323 C2320 1.403 . S
C2323 C2324 1.524 . S
C2323 C2327 1.400 . S
C2324 H2309 0.960 . S
C2324 H2310 0.960 . S
C2324 H2311 0.960 . S
C2324 C2323 1.524 . S
C2325 C2322 1.403 . S
C2325 C2326 1.392 . S
C2325 C2329 1.495 . S
C2326 C2325 1.392 . S
C2326 C2327 1.385 . S
C2326 C2328 1.478 . S
C2327 H2321 0.930 . S
C2327 C2323 1.400 . S
C2327 C2326 1.385 . S
C2328 C2326 1.478 . S
C2328 C2330 1.381 . S
C2328 C2334 1.383 . S
C2329 C2325 1.495 . S
C2329 H2335 0.959 . S
C2329 H2336 0.961 . S
C2329 H2337 0.960 . S
C2330 C2328 1.381 . S
C2330 C2331 1.394 . S
C2330 H2338 0.930 . S
C2331 C2330 1.394 . S
C2331 C2332 1.383 . S
C2331 H2339 0.929 . S
C2332 C2331 1.383 . S
C2332 C2333 1.377 . S
C2333 H2317 0.930 . S
C2333 C2332 1.377 . S
C2333 C2334 1.379 . S
C2334 H2318 0.931 . S
C2334 C2328 1.383 . S
C2334 C2333 1.379 . S
H2335 C2329 0.959 . S
H2336 C2329 0.961 . S
H2337 C2329 0.960 . S
H2338 C2330 0.930 . S
H2339 C2331 0.929 . S
H2340 C2348 0.929 . S
H2341 C2350 0.930 . S
H2342 C2352 0.930 . S
H2343 C2355 0.929 . S
H2344 C2358 0.930 . S
H2345 C2360 0.960 . S
H2346 C2360 0.960 1_556 S
H2347 C2360 0.960 1_556 S
C2348 H2340 0.929 . S
C2348 C2349 1.377 . S
C2348 C2350 1.384 1_556 S
C2349 C2348 1.377 . S
C2349 C2355 1.390 . S
C2350 H2341 0.930 . S
C2350 C2348 1.384 1_554 S
C2350 C2351 1.372 . S
C2351 C2350 1.372 . S
C2351 C2352 1.400 1_554 S
C2351 C2356 1.490 . S
C2352 H2342 0.930 . S
C2352 C2351 1.400 1_556 S
C2352 C2355 1.386 . S
H2353 C2369 0.930 . S
H2354 C2370 0.931 . S
C2355 H2343 0.929 . S
C2355 C2349 1.390 . S
C2355 C2352 1.386 . S
C2356 C2351 1.490 . S
C2356 C2358 1.395 . S
C2356 C2359 1.403 . S
H2357 C2363 0.930 . S
C2358 H2344 0.930 . S
C2358 C2356 1.395 . S
C2358 C2361 1.403 . S
C2359 C2356 1.403 . S
C2359 C2360 1.524 . S
C2359 C2363 1.400 . S
C2360 H2345 0.960 . S
C2360 H2346 0.960 1_554 S
C2360 H2347 0.960 1_554 S
C2360 C2359 1.524 . S
C2361 C2358 1.403 . S
C2361 C2362 1.392 . S
C2361 C2365 1.495 . S
C2362 C2361 1.392 . S
C2362 C2363 1.385 . S
C2362 C2364 1.478 . S
C2363 H2357 0.930 . S
C2363 C2359 1.400 . S
C2363 C2362 1.385 . S
C2364 C2362 1.478 . S
C2364 C2366 1.381 . S
C2364 C2370 1.383 . S
C2365 C2361 1.495 . S
C2365 H2371 0.959 . S
C2365 H2372 0.961 . S
C2365 H2373 0.960 . S
C2366 C2364 1.381 . S
C2366 C2367 1.394 . S
C2366 H2374 0.930 . S
C2367 C2366 1.394 . S
C2367 C2368 1.383 . S
C2367 H2375 0.929 . S
C2368 C2367 1.383 . S
C2368 C2369 1.377 . S
C2369 H2353 0.930 . S
C2369 C2368 1.377 . S
C2369 C2370 1.379 . S
C2370 H2354 0.931 . S
C2370 C2364 1.383 . S
C2370 C2369 1.379 . S
H2371 C2365 0.959 . S
H2372 C2365 0.961 . S
H2373 C2365 0.960 . S
H2374 C2366 0.930 . S
H2375 C2367 0.929 . S
H2376 C2384 0.929 . S
H2377 C2386 0.930 . S
H2378 C2388 0.930 . S
H2379 C2391 0.929 . S
H2380 C2394 0.930 . S
H2381 C2396 0.960 . S
H2382 C2396 0.960 . S
H2383 C2396 0.960 . S
C2384 H2376 0.929 . S
C2384 C2385 1.377 . S
C2384 C2386 1.384 1_556 S
C2385 C2384 1.377 . S
C2385 C2391 1.390 . S
C2386 H2377 0.930 . S
C2386 C2384 1.384 1_554 S
C2386 C2387 1.372 . S
C2387 C2386 1.372 . S
C2387 C2388 1.400 . S
C2387 C2392 1.490 . S
C2388 H2378 0.930 . S
C2388 C2387 1.400 . S
C2388 C2391 1.386 1_554 S
H2389 C2405 0.930 . S
H2390 C2406 0.931 . S
C2391 H2379 0.929 . S
C2391 C2385 1.390 . S
C2391 C2388 1.386 1_556 S
C2392 C2387 1.490 . S
C2392 C2394 1.395 . S
C2392 C2395 1.403 . S
H2393 C2399 0.930 . S
C2394 H2380 0.930 . S
C2394 C2392 1.395 . S
C2394 C2397 1.403 . S
C2395 C2392 1.403 . S
C2395 C2396 1.524 . S
C2395 C2399 1.400 . S
C2396 H2381 0.960 . S
C2396 H2382 0.960 . S
C2396 H2383 0.960 . S
C2396 C2395 1.524 . S
C2397 C2394 1.403 . S
C2397 C2398 1.392 . S
C2397 C2401 1.495 . S
C2398 C2397 1.392 . S
C2398 C2399 1.385 . S
C2398 C2400 1.478 . S
C2399 H2393 0.930 . S
C2399 C2395 1.400 . S
C2399 C2398 1.385 . S
C2400 C2398 1.478 . S
C2400 C2402 1.381 . S
C2400 C2406 1.383 . S
C2401 C2397 1.495 . S
C2401 H2407 0.959 . S
C2401 H2408 0.961 . S
C2401 H2409 0.960 . S
C2402 C2400 1.381 . S
C2402 C2403 1.394 . S
C2402 H2410 0.930 . S
C2403 C2402 1.394 . S
C2403 C2404 1.383 . S
C2403 H2411 0.929 . S
C2404 C2403 1.383 . S
C2404 C2405 1.377 . S
C2405 H2389 0.930 . S
C2405 C2404 1.377 . S
C2405 C2406 1.379 . S
C2406 H2390 0.931 . S
C2406 C2400 1.383 . S
C2406 C2405 1.379 . S
H2407 C2401 0.959 . S
H2408 C2401 0.961 . S
H2409 C2401 0.960 . S
H2410 C2402 0.930 . S
H2411 C2403 0.929 . S
H2412 C2420 0.929 . S
H2413 C2422 0.930 . S
H2414 C2424 0.930 . S
H2415 C2427 0.929 . S
H2416 C2430 0.930 . S
H2417 C2432 0.960 . S
H2418 C2432 0.960 . S
H2419 C2432 0.960 . S
C2420 H2412 0.929 . S
C2420 C2421 1.377 . S
C2420 C2422 1.384 1_556 S
C2421 C2420 1.377 . S
C2421 C2427 1.390 . S
C2422 H2413 0.930 . S
C2422 C2420 1.384 1_554 S
C2422 C2423 1.372 . S
C2423 C2422 1.372 . S
C2423 C2424 1.400 . S
C2423 C2428 1.490 . S
C2424 H2414 0.930 . S
C2424 C2423 1.400 . S
C2424 C2427 1.386 1_554 S
H2425 C2441 0.930 . S
H2426 C2442 0.931 . S
C2427 H2415 0.929 . S
C2427 C2421 1.390 . S
C2427 C2424 1.386 1_556 S
C2428 C2423 1.490 . S
C2428 C2430 1.395 . S
C2428 C2431 1.403 . S
H2429 C2435 0.930 . S
C2430 H2416 0.930 . S
C2430 C2428 1.395 . S
C2430 C2433 1.403 . S
C2431 C2428 1.403 . S
C2431 C2432 1.524 . S
C2431 C2435 1.400 . S
C2432 H2417 0.960 . S
C2432 H2418 0.960 . S
C2432 H2419 0.960 . S
C2432 C2431 1.524 . S
C2433 C2430 1.403 . S
C2433 C2434 1.392 . S
C2433 C2437 1.495 . S
C2434 C2433 1.392 . S
C2434 C2435 1.385 . S
C2434 C2436 1.478 . S
C2435 H2429 0.930 . S
C2435 C2431 1.400 . S
C2435 C2434 1.385 . S
C2436 C2434 1.478 . S
C2436 C2438 1.381 . S
C2436 C2442 1.383 . S
C2437 C2433 1.495 . S
C2437 H2443 0.959 . S
C2437 H2444 0.961 . S
C2437 H2445 0.960 . S
C2438 C2436 1.381 . S
C2438 C2439 1.394 . S
C2438 H2446 0.930 . S
C2439 C2438 1.394 . S
C2439 C2440 1.383 . S
C2439 H2447 0.929 . S
C2440 C2439 1.383 . S
C2440 C2441 1.377 . S
C2441 H2425 0.930 . S
C2441 C2440 1.377 . S
C2441 C2442 1.379 . S
C2442 H2426 0.931 . S
C2442 C2436 1.383 . S
C2442 C2441 1.379 . S
H2443 C2437 0.959 . S
H2444 C2437 0.961 . S
H2445 C2437 0.960 . S
H2446 C2438 0.930 . S
H2447 C2439 0.929 . S
H2448 C2456 0.929 . S
H2449 C2458 0.930 . S
H2450 C2460 0.930 . S
H2451 C2463 0.929 . S
H2452 C2466 0.930 . S
H2453 C2468 0.960 . S
H2454 C2468 0.960 . S
H2455 C2468 0.960 . S
C2456 H2448 0.929 . S
C2456 C2457 1.377 . S
C2456 C2458 1.384 . S
C2457 C2456 1.377 . S
C2457 C2463 1.390 . S
C2458 H2449 0.930 . S
C2458 C2456 1.384 . S
C2458 C2459 1.372 . S
C2459 C2458 1.372 . S
C2459 C2460 1.400 . S
C2459 C2464 1.490 . S
C2460 H2450 0.930 . S
C2460 C2459 1.400 . S
C2460 C2463 1.386 . S
H2461 C2477 0.930 . S
H2462 C2478 0.931 . S
C2463 H2451 0.929 . S
C2463 C2457 1.390 . S
C2463 C2460 1.386 . S
C2464 C2459 1.490 . S
C2464 C2466 1.395 . S
C2464 C2467 1.403 . S
H2465 C2471 0.930 . S
C2466 H2452 0.930 . S
C2466 C2464 1.395 . S
C2466 C2469 1.403 . S
C2467 C2464 1.403 . S
C2467 C2468 1.524 . S
C2467 C2471 1.400 . S
C2468 H2453 0.960 . S
C2468 H2454 0.960 . S
C2468 H2455 0.960 . S
C2468 C2467 1.524 . S
C2469 C2466 1.403 . S
C2469 C2470 1.392 . S
C2469 C2473 1.495 . S
C2470 C2469 1.392 . S
C2470 C2471 1.385 . S
C2470 C2472 1.478 . S
C2471 H2465 0.930 . S
C2471 C2467 1.400 . S
C2471 C2470 1.385 . S
C2472 C2470 1.478 . S
C2472 C2474 1.381 . S
C2472 C2478 1.383 . S
C2473 C2469 1.495 . S
C2473 H2479 0.959 . S
C2473 H2480 0.961 . S
C2473 H2481 0.960 . S
C2474 C2472 1.381 . S
C2474 C2475 1.394 . S
C2474 H2482 0.930 . S
C2475 C2474 1.394 . S
C2475 C2476 1.383 . S
C2475 H2483 0.929 . S
C2476 C2475 1.383 . S
C2476 C2477 1.377 . S
C2477 H2461 0.930 . S
C2477 C2476 1.377 . S
C2477 C2478 1.379 . S
C2478 H2462 0.931 . S
C2478 C2472 1.383 . S
C2478 C2477 1.379 . S
H2479 C2473 0.959 . S
H2480 C2473 0.961 . S
H2481 C2473 0.960 . S
H2482 C2474 0.930 . S
H2483 C2475 0.929 . S
H2484 C2492 0.929 . S
H2485 C2494 0.930 . S
H2486 C2496 0.930 . S
H2487 C2499 0.929 . S
H2488 C2502 0.930 . S
H2489 C2504 0.960 . S
H2490 C2504 0.960 . S
H2491 C2504 0.960 . S
C2492 H2484 0.929 . S
C2492 C2493 1.377 . S
C2492 C2494 1.384 . S
C2493 C2492 1.377 . S
C2493 C2499 1.390 . S
C2494 H2485 0.930 . S
C2494 C2492 1.384 . S
C2494 C2495 1.372 . S
C2495 C2494 1.372 . S
C2495 C2496 1.400 . S
C2495 C2500 1.490 . S
C2496 H2486 0.930 . S
C2496 C2495 1.400 . S
C2496 C2499 1.386 . S
H2497 C2513 0.930 . S
H2498 C2514 0.931 . S
C2499 H2487 0.929 . S
C2499 C2493 1.390 . S
C2499 C2496 1.386 . S
C2500 C2495 1.490 . S
C2500 C2502 1.395 . S
C2500 C2503 1.403 . S
H2501 C2507 0.930 . S
C2502 H2488 0.930 . S
C2502 C2500 1.395 . S
C2502 C2505 1.403 . S
C2503 C2500 1.403 . S
C2503 C2504 1.524 . S
C2503 C2507 1.400 . S
C2504 H2489 0.960 . S
C2504 H2490 0.960 . S
C2504 H2491 0.960 . S
C2504 C2503 1.524 . S
C2505 C2502 1.403 . S
C2505 C2506 1.392 . S
C2505 C2509 1.495 1_554 S
C2506 C2505 1.392 . S
C2506 C2507 1.385 . S
C2506 C2508 1.478 . S
C2507 H2501 0.930 . S
C2507 C2503 1.400 . S
C2507 C2506 1.385 . S
C2508 C2506 1.478 . S
C2508 C2510 1.381 1_554 S
C2508 C2514 1.383 . S
C2509 C2505 1.495 1_556 S
C2509 H2515 0.959 . S
C2509 H2516 0.961 1_556 S
C2509 H2517 0.960 . S
C2510 C2508 1.381 1_556 S
C2510 C2511 1.394 . S
C2510 H2518 0.930 . S
C2511 C2510 1.394 . S
C2511 C2512 1.383 1_556 S
C2511 H2519 0.929 . S
C2512 C2511 1.383 1_554 S
C2512 C2513 1.377 . S
C2513 H2497 0.930 . S
C2513 C2512 1.377 . S
C2513 C2514 1.379 . S
C2514 H2498 0.931 . S
C2514 C2508 1.383 . S
C2514 C2513 1.379 . S
H2515 C2509 0.959 . S
H2516 C2509 0.961 1_554 S
H2517 C2509 0.960 . S
H2518 C2510 0.930 . S
H2519 C2511 0.929 . S
H2520 C2528 0.929 . S
H2521 C2530 0.930 . S
H2522 C2532 0.930 . S
H2523 C2535 0.929 1_556 S
H2524 C2538 0.930 . S
H2525 C2540 0.960 . S
H2526 C2540 0.960 . S
H2527 C2540 0.960 . S
C2528 H2520 0.929 . S
C2528 C2529 1.377 . S
C2528 C2530 1.384 . S
C2529 C2528 1.377 . S
C2529 C2535 1.390 . S
C2530 H2521 0.930 . S
C2530 C2528 1.384 . S
C2530 C2531 1.372 . S
C2531 C2530 1.372 . S
C2531 C2532 1.400 . S
C2531 C2536 1.490 . S
C2532 H2522 0.930 . S
C2532 C2531 1.400 . S
C2532 C2535 1.386 . S
H2533 C2549 0.930 . S
H2534 C2550 0.931 . S
C2535 H2523 0.929 1_554 S
C2535 C2529 1.390 . S
C2535 C2532 1.386 . S
C2536 C2531 1.490 . S
C2536 C2538 1.395 . S
C2536 C2539 1.403 . S
H2537 C2543 0.930 . S
C2538 H2524 0.930 . S
C2538 C2536 1.395 . S
C2538 C2541 1.403 . S
C2539 C2536 1.403 . S
C2539 C2540 1.524 . S
C2539 C2543 1.400 . S
C2540 H2525 0.960 . S
C2540 H2526 0.960 . S
C2540 H2527 0.960 . S
C2540 C2539 1.524 . S
C2541 C2538 1.403 . S
C2541 C2542 1.392 . S
C2541 C2545 1.495 . S
C2542 C2541 1.392 . S
C2542 C2543 1.385 . S
C2542 C2544 1.478 . S
C2543 H2537 0.930 . S
C2543 C2539 1.400 . S
C2543 C2542 1.385 . S
C2544 C2542 1.478 . S
C2544 C2546 1.381 . S
C2544 C2550 1.383 . S
C2545 C2541 1.495 . S
C2545 H2551 0.959 . S
C2545 H2552 0.961 . S
C2545 H2553 0.960 . S
C2546 C2544 1.381 . S
C2546 C2547 1.394 . S
C2546 H2554 0.930 . S
C2547 C2546 1.394 . S
C2547 C2548 1.383 . S
C2547 H2555 0.929 . S
C2548 C2547 1.383 . S
C2548 C2549 1.377 . S
C2549 H2533 0.930 . S
C2549 C2548 1.377 . S
C2549 C2550 1.379 . S
C2550 H2534 0.931 . S
C2550 C2544 1.383 . S
C2550 C2549 1.379 . S
H2551 C2545 0.959 . S
H2552 C2545 0.961 . S
H2553 C2545 0.960 . S
H2554 C2546 0.930 . S
H2555 C2547 0.929 . S
H2556 C2564 0.929 . S
H2557 C2566 0.930 . S
H2558 C2568 0.930 . S
H2559 C2571 0.929 . S
H2560 C2574 0.930 . S
H2561 C2576 0.960 . S
H2562 C2576 0.960 . S
H2563 C2576 0.960 . S
C2564 H2556 0.929 . S
C2564 C2565 1.377 . S
C2564 C2566 1.384 . S
C2565 C2564 1.377 . S
C2565 C2571 1.390 . S
C2566 H2557 0.930 . S
C2566 C2564 1.384 . S
C2566 C2567 1.372 . S
C2567 C2566 1.372 . S
C2567 C2568 1.400 . S
C2567 C2572 1.490 . S
C2568 H2558 0.930 . S
C2568 C2567 1.400 . S
C2568 C2571 1.386 . S
H2569 C2585 0.930 . S
H2570 C2586 0.931 . S
C2571 H2559 0.929 . S
C2571 C2565 1.390 . S
C2571 C2568 1.386 . S
C2572 C2567 1.490 . S
C2572 C2574 1.395 . S
C2572 C2575 1.403 . S
H2573 C2579 0.930 . S
C2574 H2560 0.930 . S
C2574 C2572 1.395 . S
C2574 C2577 1.403 . S
C2575 C2572 1.403 . S
C2575 C2576 1.524 . S
C2575 C2579 1.400 . S
C2576 H2561 0.960 . S
C2576 H2562 0.960 . S
C2576 H2563 0.960 . S
C2576 C2575 1.524 . S
C2577 C2574 1.403 . S
C2577 C2578 1.392 . S
C2577 C2581 1.495 . S
C2578 C2577 1.392 . S
C2578 C2579 1.385 . S
C2578 C2580 1.478 . S
C2579 H2573 0.930 . S
C2579 C2575 1.400 . S
C2579 C2578 1.385 . S
C2580 C2578 1.478 . S
C2580 C2582 1.381 . S
C2580 C2586 1.383 . S
C2581 C2577 1.495 . S
C2581 H2587 0.959 . S
C2581 H2588 0.961 . S
C2581 H2589 0.960 . S
C2582 C2580 1.381 . S
C2582 C2583 1.394 . S
C2582 H2590 0.930 . S
C2583 C2582 1.394 . S
C2583 C2584 1.383 . S
C2583 H2591 0.929 . S
C2584 C2583 1.383 . S
C2584 C2585 1.377 . S
C2585 H2569 0.930 . S
C2585 C2584 1.377 . S
C2585 C2586 1.379 . S
C2586 H2570 0.931 . S
C2586 C2580 1.383 . S
C2586 C2585 1.379 . S
H2587 C2581 0.959 . S
H2588 C2581 0.961 . S
H2589 C2581 0.960 . S
H2590 C2582 0.930 . S
H2591 C2583 0.929 . S
H2592 C2600 0.929 . S
H2593 C2602 0.930 . S
H2594 C2604 0.930 . S
H2595 C2607 0.929 . S
H2596 C2610 0.930 . S
H2597 C2612 0.960 . S
H2598 C2612 0.960 . S
H2599 C2612 0.960 . S
C2600 H2592 0.929 . S
C2600 C2601 1.377 . S
C2600 C2602 1.384 . S
C2601 C2600 1.377 . S
C2601 C2607 1.390 . S
C2602 H2593 0.930 . S
C2602 C2600 1.384 . S
C2602 C2603 1.372 . S
C2603 C2602 1.372 . S
C2603 C2604 1.400 . S
C2603 C2608 1.490 . S
C2604 H2594 0.930 . S
C2604 C2603 1.400 . S
C2604 C2607 1.386 . S
H2605 C2621 0.930 . S
H2606 C2622 0.931 . S
C2607 H2595 0.929 . S
C2607 C2601 1.390 . S
C2607 C2604 1.386 . S
C2608 C2603 1.490 . S
C2608 C2610 1.395 . S
C2608 C2611 1.403 . S
H2609 C2615 0.930 . S
C2610 H2596 0.930 . S
C2610 C2608 1.395 . S
C2610 C2613 1.403 . S
C2611 C2608 1.403 . S
C2611 C2612 1.524 . S
C2611 C2615 1.400 . S
C2612 H2597 0.960 . S
C2612 H2598 0.960 . S
C2612 H2599 0.960 . S
C2612 C2611 1.524 . S
C2613 C2610 1.403 . S
C2613 C2614 1.392 . S
C2613 C2617 1.495 . S
C2614 C2613 1.392 . S
C2614 C2615 1.385 . S
C2614 C2616 1.478 . S
C2615 H2609 0.930 . S
C2615 C2611 1.400 . S
C2615 C2614 1.385 . S
C2616 C2614 1.478 . S
C2616 C2618 1.381 . S
C2616 C2622 1.383 . S
C2617 C2613 1.495 . S
C2617 H2623 0.959 . S
C2617 H2624 0.961 . S
C2617 H2625 0.960 . S
C2618 C2616 1.381 . S
C2618 C2619 1.394 . S
C2618 H2626 0.930 . S
C2619 C2618 1.394 . S
C2619 C2620 1.383 . S
C2619 H2627 0.929 . S
C2620 C2619 1.383 . S
C2620 C2621 1.377 . S
C2621 H2605 0.930 . S
C2621 C2620 1.377 . S
C2621 C2622 1.379 . S
C2622 H2606 0.931 . S
C2622 C2616 1.383 . S
C2622 C2621 1.379 . S
H2623 C2617 0.959 . S
H2624 C2617 0.961 . S
H2625 C2617 0.960 . S
H2626 C2618 0.930 . S
H2627 C2619 0.929 . S
H2628 C2636 0.929 . S
H2629 C2638 0.930 . S
H2630 C2640 0.930 . S
H2631 C2643 0.929 . S
H2632 C2646 0.930 . S
H2633 C2648 0.960 . S
H2634 C2648 0.960 . S
H2635 C2648 0.960 . S
C2636 H2628 0.929 . S
C2636 C2637 1.377 . S
C2636 C2638 1.384 . S
C2637 C2636 1.377 . S
C2637 C2643 1.390 . S
C2638 H2629 0.930 . S
C2638 C2636 1.384 . S
C2638 C2639 1.372 . S
C2639 C2638 1.372 . S
C2639 C2640 1.400 . S
C2639 C2644 1.490 . S
C2640 H2630 0.930 . S
C2640 C2639 1.400 . S
C2640 C2643 1.386 . S
H2641 C2657 0.930 . S
H2642 C2658 0.931 . S
C2643 H2631 0.929 . S
C2643 C2637 1.390 . S
C2643 C2640 1.386 . S
C2644 C2639 1.490 . S
C2644 C2646 1.395 . S
C2644 C2647 1.403 . S
H2645 C2651 0.930 . S
C2646 H2632 0.930 . S
C2646 C2644 1.395 . S
C2646 C2649 1.403 . S
C2647 C2644 1.403 . S
C2647 C2648 1.524 . S
C2647 C2651 1.400 . S
C2648 H2633 0.960 . S
C2648 H2634 0.960 . S
C2648 H2635 0.960 . S
C2648 C2647 1.524 . S
C2649 C2646 1.403 . S
C2649 C2650 1.392 . S
C2649 C2653 1.495 . S
C2650 C2649 1.392 . S
C2650 C2651 1.385 . S
C2650 C2652 1.478 . S
C2651 H2645 0.930 . S
C2651 C2647 1.400 . S
C2651 C2650 1.385 . S
C2652 C2650 1.478 . S
C2652 C2654 1.381 . S
C2652 C2658 1.383 . S
C2653 C2649 1.495 . S
C2653 H2659 0.959 . S
C2653 H2660 0.961 . S
C2653 H2661 0.960 . S
C2654 C2652 1.381 . S
C2654 C2655 1.394 . S
C2654 H2662 0.930 . S
C2655 C2654 1.394 . S
C2655 C2656 1.383 . S
C2655 H2663 0.929 . S
C2656 C2655 1.383 . S
C2656 C2657 1.377 . S
C2657 H2641 0.930 . S
C2657 C2656 1.377 . S
C2657 C2658 1.379 . S
C2658 H2642 0.931 . S
C2658 C2652 1.383 . S
C2658 C2657 1.379 . S
H2659 C2653 0.959 . S
H2660 C2653 0.961 . S
H2661 C2653 0.960 . S
H2662 C2654 0.930 . S
H2663 C2655 0.929 . S
H2664 C2672 0.929 . S
H2665 C2674 0.930 . S
H2666 C2676 0.930 . S
H2667 C2679 0.929 . S
H2668 C2682 0.930 . S
H2669 C2684 0.960 . S
H2670 C2684 0.960 . S
H2671 C2684 0.960 . S
C2672 H2664 0.929 . S
C2672 C2673 1.377 . S
C2672 C2674 1.384 . S
C2673 C2672 1.377 . S
C2673 C2679 1.390 . S
C2674 H2665 0.930 . S
C2674 C2672 1.384 . S
C2674 C2675 1.372 . S
C2675 C2674 1.372 . S
C2675 C2676 1.400 . S
C2675 C2680 1.490 . S
C2676 H2666 0.930 . S
C2676 C2675 1.400 . S
C2676 C2679 1.386 . S
H2677 C2693 0.930 . S
H2678 C2694 0.931 . S
C2679 H2667 0.929 . S
C2679 C2673 1.390 . S
C2679 C2676 1.386 . S
C2680 C2675 1.490 . S
C2680 C2682 1.395 . S
C2680 C2683 1.403 . S
H2681 C2687 0.930 . S
C2682 H2668 0.930 . S
C2682 C2680 1.395 . S
C2682 C2685 1.403 . S
C2683 C2680 1.403 . S
C2683 C2684 1.524 . S
C2683 C2687 1.400 . S
C2684 H2669 0.960 . S
C2684 H2670 0.960 . S
C2684 H2671 0.960 . S
C2684 C2683 1.524 . S
C2685 C2682 1.403 . S
C2685 C2686 1.392 . S
C2685 C2689 1.495 . S
C2686 C2685 1.392 . S
C2686 C2687 1.385 . S
C2686 C2688 1.478 . S
C2687 H2681 0.930 . S
C2687 C2683 1.400 . S
C2687 C2686 1.385 . S
C2688 C2686 1.478 . S
C2688 C2690 1.381 . S
C2688 C2694 1.383 . S
C2689 C2685 1.495 . S
C2689 H2695 0.959 . S
C2689 H2696 0.961 . S
C2689 H2697 0.960 . S
C2690 C2688 1.381 . S
C2690 C2691 1.394 . S
C2690 H2698 0.930 . S
C2691 C2690 1.394 . S
C2691 C2692 1.383 . S
C2691 H2699 0.929 1_556 S
C2692 C2691 1.383 . S
C2692 C2693 1.377 . S
C2693 H2677 0.930 . S
C2693 C2692 1.377 . S
C2693 C2694 1.379 . S
C2694 H2678 0.931 . S
C2694 C2688 1.383 . S
C2694 C2693 1.379 . S
H2695 C2689 0.959 . S
H2696 C2689 0.961 . S
H2697 C2689 0.960 . S
H2698 C2690 0.930 . S
H2699 C2691 0.929 1_554 S
H2700 C2708 0.929 1_554 S
H2701 C2710 0.930 1_554 S
H2702 C2712 0.930 . S
H2703 C2715 0.929 . S
H2704 C2718 0.930 . S
H2705 C2720 0.960 . S
H2706 C2720 0.960 . S
H2707 C2720 0.960 . S
C2708 H2700 0.929 1_556 S
C2708 C2709 1.377 . S
C2708 C2710 1.384 . S
C2709 C2708 1.377 . S
C2709 C2715 1.390 . S
C2710 H2701 0.930 1_556 S
C2710 C2708 1.384 . S
C2710 C2711 1.372 . S
C2711 C2710 1.372 . S
C2711 C2712 1.400 . S
C2711 C2716 1.490 . S
C2712 H2702 0.930 . S
C2712 C2711 1.400 . S
C2712 C2715 1.386 . S
H2713 C2729 0.930 . S
H2714 C2730 0.931 . S
C2715 H2703 0.929 . S
C2715 C2709 1.390 . S
C2715 C2712 1.386 . S
C2716 C2711 1.490 . S
C2716 C2718 1.395 . S
C2716 C2719 1.403 . S
H2717 C2723 0.930 . S
C2718 H2704 0.930 . S
C2718 C2716 1.395 . S
C2718 C2721 1.403 . S
C2719 C2716 1.403 . S
C2719 C2720 1.524 . S
C2719 C2723 1.400 . S
C2720 H2705 0.960 . S
C2720 H2706 0.960 . S
C2720 H2707 0.960 . S
C2720 C2719 1.524 . S
C2721 C2718 1.403 . S
C2721 C2722 1.392 . S
C2721 C2725 1.495 . S
C2722 C2721 1.392 . S
C2722 C2723 1.385 . S
C2722 C2724 1.478 . S
C2723 H2717 0.930 . S
C2723 C2719 1.400 . S
C2723 C2722 1.385 . S
C2724 C2722 1.478 . S
C2724 C2726 1.381 . S
C2724 C2730 1.383 . S
C2725 C2721 1.495 . S
C2725 H2731 0.959 . S
C2725 H2732 0.961 . S
C2725 H2733 0.960 . S
C2726 C2724 1.381 . S
C2726 C2727 1.394 . S
C2726 H2734 0.930 . S
C2727 C2726 1.394 . S
C2727 C2728 1.383 . S
C2727 H2735 0.929 . S
C2728 C2727 1.383 . S
C2728 C2729 1.377 . S
C2729 H2713 0.930 . S
C2729 C2728 1.377 . S
C2729 C2730 1.379 . S
C2730 H2714 0.931 . S
C2730 C2724 1.383 . S
C2730 C2729 1.379 . S
H2731 C2725 0.959 . S
H2732 C2725 0.961 . S
H2733 C2725 0.960 . S
H2734 C2726 0.930 . S
H2735 C2727 0.929 . S
H2736 C2744 0.929 . S
H2737 C2746 0.930 . S
H2738 C2748 0.930 . S
H2739 C2751 0.929 . S
H2740 C2754 0.930 . S
H2741 C2756 0.960 . S
H2742 C2756 0.960 . S
H2743 C2756 0.960 . S
C2744 H2736 0.929 . S
C2744 C2745 1.377 . S
C2744 C2746 1.384 . S
C2745 C2744 1.377 . S
C2745 C2751 1.390 . S
C2746 H2737 0.930 . S
C2746 C2744 1.384 . S
C2746 C2747 1.372 . S
C2747 C2746 1.372 . S
C2747 C2748 1.400 . S
C2747 C2752 1.490 . S
C2748 H2738 0.930 . S
C2748 C2747 1.400 . S
C2748 C2751 1.386 . S
H2749 C2765 0.930 . S
H2750 C2766 0.931 1_554 S
C2751 H2739 0.929 . S
C2751 C2745 1.390 . S
C2751 C2748 1.386 . S
C2752 C2747 1.490 . S
C2752 C2754 1.395 . S
C2752 C2755 1.403 . S
H2753 C2759 0.930 . S
C2754 H2740 0.930 . S
C2754 C2752 1.395 . S
C2754 C2757 1.403 . S
C2755 C2752 1.403 . S
C2755 C2756 1.524 . S
C2755 C2759 1.400 . S
C2756 H2741 0.960 . S
C2756 H2742 0.960 . S
C2756 H2743 0.960 . S
C2756 C2755 1.524 . S
C2757 C2754 1.403 . S
C2757 C2758 1.392 . S
C2757 C2761 1.495 . S
C2758 C2757 1.392 . S
C2758 C2759 1.385 . S
C2758 C2760 1.478 . S
C2759 H2753 0.930 . S
C2759 C2755 1.400 . S
C2759 C2758 1.385 . S
C2760 C2758 1.478 . S
C2760 C2762 1.381 . S
C2760 C2766 1.383 . S
C2761 C2757 1.495 . S
C2761 H2767 0.959 . S
C2761 H2768 0.961 . S
C2761 H2769 0.960 . S
C2762 C2760 1.381 . S
C2762 C2763 1.394 . S
C2762 H2770 0.930 . S
C2763 C2762 1.394 . S
C2763 C2764 1.383 . S
C2763 H2771 0.929 . S
C2764 C2763 1.383 . S
C2764 C2765 1.377 1_556 S
C2765 H2749 0.930 . S
C2765 C2764 1.377 1_554 S
C2765 C2766 1.379 1_554 S
C2766 H2750 0.931 1_556 S
C2766 C2760 1.383 . S
C2766 C2765 1.379 1_556 S
H2767 C2761 0.959 . S
H2768 C2761 0.961 . S
H2769 C2761 0.960 . S
H2770 C2762 0.930 . S
H2771 C2763 0.929 . S
H2772 C2780 0.929 . S
H2773 C2782 0.930 . S
H2774 C2784 0.930 . S
H2775 C2787 0.929 . S
H2776 C2790 0.930 . S
H2777 C2792 0.960 . S
H2778 C2792 0.960 . S
H2779 C2792 0.960 . S
C2780 H2772 0.929 . S
C2780 C2781 1.377 . S
C2780 C2782 1.384 . S
C2781 C2780 1.377 . S
C2781 C2787 1.390 . S
C2782 H2773 0.930 . S
C2782 C2780 1.384 . S
C2782 C2783 1.372 . S
C2783 C2782 1.372 . S
C2783 C2784 1.400 . S
C2783 C2788 1.490 . S
C2784 H2774 0.930 . S
C2784 C2783 1.400 . S
C2784 C2787 1.386 . S
H2785 C2801 0.930 . S
H2786 C2802 0.931 . S
C2787 H2775 0.929 . S
C2787 C2781 1.390 . S
C2787 C2784 1.386 . S
C2788 C2783 1.490 . S
C2788 C2790 1.395 . S
C2788 C2791 1.403 . S
H2789 C2795 0.930 . S
C2790 H2776 0.930 . S
C2790 C2788 1.395 . S
C2790 C2793 1.403 . S
C2791 C2788 1.403 . S
C2791 C2792 1.524 . S
C2791 C2795 1.400 . S
C2792 H2777 0.960 . S
C2792 H2778 0.960 . S
C2792 H2779 0.960 . S
C2792 C2791 1.524 . S
C2793 C2790 1.403 . S
C2793 C2794 1.392 . S
C2793 C2797 1.495 . S
C2794 C2793 1.392 . S
C2794 C2795 1.385 . S
C2794 C2796 1.478 . S
C2795 H2789 0.930 . S
C2795 C2791 1.400 . S
C2795 C2794 1.385 . S
C2796 C2794 1.478 . S
C2796 C2798 1.381 . S
C2796 C2802 1.383 . S
C2797 C2793 1.495 . S
C2797 H2803 0.959 . S
C2797 H2804 0.961 . S
C2797 H2805 0.960 . S
C2798 C2796 1.381 . S
C2798 C2799 1.394 . S
C2798 H2806 0.930 . S
C2799 C2798 1.394 . S
C2799 C2800 1.383 . S
C2799 H2807 0.929 . S
C2800 C2799 1.383 . S
C2800 C2801 1.377 . S
C2801 H2785 0.930 . S
C2801 C2800 1.377 . S
C2801 C2802 1.379 . S
C2802 H2786 0.931 . S
C2802 C2796 1.383 . S
C2802 C2801 1.379 . S
H2803 C2797 0.959 . S
H2804 C2797 0.961 . S
H2805 C2797 0.960 . S
H2806 C2798 0.930 . S
H2807 C2799 0.929 . S
H2808 C2816 0.929 . S
H2809 C2818 0.930 . S
H2810 C2820 0.930 . S
H2811 C2823 0.929 . S
H2812 C2826 0.930 . S
H2813 C2828 0.960 . S
H2814 C2828 0.960 . S
H2815 C2828 0.960 . S
C2816 H2808 0.929 . S
C2816 C2817 1.377 . S
C2816 C2818 1.384 . S
C2817 C2816 1.377 . S
C2817 C2823 1.390 . S
C2818 H2809 0.930 . S
C2818 C2816 1.384 . S
C2818 C2819 1.372 . S
C2819 C2818 1.372 . S
C2819 C2820 1.400 . S
C2819 C2824 1.490 . S
C2820 H2810 0.930 . S
C2820 C2819 1.400 . S
C2820 C2823 1.386 . S
H2821 C2837 0.930 . S
H2822 C2838 0.931 . S
C2823 H2811 0.929 . S
C2823 C2817 1.390 . S
C2823 C2820 1.386 . S
C2824 C2819 1.490 . S
C2824 C2826 1.395 . S
C2824 C2827 1.403 . S
H2825 C2831 0.930 . S
C2826 H2812 0.930 . S
C2826 C2824 1.395 . S
C2826 C2829 1.403 . S
C2827 C2824 1.403 . S
C2827 C2828 1.524 . S
C2827 C2831 1.400 . S
C2828 H2813 0.960 . S
C2828 H2814 0.960 . S
C2828 H2815 0.960 . S
C2828 C2827 1.524 . S
C2829 C2826 1.403 . S
C2829 C2830 1.392 . S
C2829 C2833 1.495 . S
C2830 C2829 1.392 . S
C2830 C2831 1.385 . S
C2830 C2832 1.478 . S
C2831 H2825 0.930 . S
C2831 C2827 1.400 . S
C2831 C2830 1.385 . S
C2832 C2830 1.478 . S
C2832 C2834 1.381 . S
C2832 C2838 1.383 . S
C2833 C2829 1.495 . S
C2833 H2839 0.959 . S
C2833 H2840 0.961 . S
C2833 H2841 0.960 . S
C2834 C2832 1.381 . S
C2834 C2835 1.394 . S
C2834 H2842 0.930 . S
C2835 C2834 1.394 . S
C2835 C2836 1.383 . S
C2835 H2843 0.929 . S
C2836 C2835 1.383 . S
C2836 C2837 1.377 . S
C2837 H2821 0.930 . S
C2837 C2836 1.377 . S
C2837 C2838 1.379 . S
C2838 H2822 0.931 . S
C2838 C2832 1.383 . S
C2838 C2837 1.379 . S
H2839 C2833 0.959 . S
H2840 C2833 0.961 . S
H2841 C2833 0.960 . S
H2842 C2834 0.930 . S
H2843 C2835 0.929 . S
H2844 C2852 0.929 . S
H2845 C2854 0.930 . S
H2846 C2856 0.930 . S
H2847 C2859 0.929 . S
H2848 C2862 0.930 . S
H2849 C2864 0.960 . S
H2850 C2864 0.960 . S
H2851 C2864 0.960 . S
C2852 H2844 0.929 . S
C2852 C2853 1.377 . S
C2852 C2854 1.384 . S
C2853 C2852 1.377 . S
C2853 C2859 1.390 . S
C2854 H2845 0.930 . S
C2854 C2852 1.384 . S
C2854 C2855 1.372 . S
C2855 C2854 1.372 . S
C2855 C2856 1.400 . S
C2855 C2860 1.490 . S
C2856 H2846 0.930 . S
C2856 C2855 1.400 . S
C2856 C2859 1.386 . S
H2857 C2873 0.930 . S
H2858 C2874 0.931 . S
C2859 H2847 0.929 . S
C2859 C2853 1.390 . S
C2859 C2856 1.386 . S
C2860 C2855 1.490 . S
C2860 C2862 1.395 . S
C2860 C2863 1.403 . S
H2861 C2867 0.930 . S
C2862 H2848 0.930 . S
C2862 C2860 1.395 . S
C2862 C2865 1.403 . S
C2863 C2860 1.403 . S
C2863 C2864 1.524 . S
C2863 C2867 1.400 . S
C2864 H2849 0.960 . S
C2864 H2850 0.960 . S
C2864 H2851 0.960 . S
C2864 C2863 1.524 . S
C2865 C2862 1.403 . S
C2865 C2866 1.392 . S
C2865 C2869 1.495 . S
C2866 C2865 1.392 . S
C2866 C2867 1.385 . S
C2866 C2868 1.478 . S
C2867 H2861 0.930 . S
C2867 C2863 1.400 . S
C2867 C2866 1.385 . S
C2868 C2866 1.478 . S
C2868 C2870 1.381 . S
C2868 C2874 1.383 . S
C2869 C2865 1.495 . S
C2869 H2875 0.959 . S
C2869 H2876 0.961 . S
C2869 H2877 0.960 . S
C2870 C2868 1.381 . S
C2870 C2871 1.394 . S
C2870 H2878 0.930 . S
C2871 C2870 1.394 . S
C2871 C2872 1.383 . S
C2871 H2879 0.929 . S
C2872 C2871 1.383 . S
C2872 C2873 1.377 . S
C2873 H2857 0.930 . S
C2873 C2872 1.377 . S
C2873 C2874 1.379 . S
C2874 H2858 0.931 . S
C2874 C2868 1.383 . S
C2874 C2873 1.379 . S
H2875 C2869 0.959 . S
H2876 C2869 0.961 . S
H2877 C2869 0.960 . S
H2878 C2870 0.930 . S
H2879 C2871 0.929 . S
H2880 C2888 0.929 . S
H2881 C2890 0.930 . S
H2882 C2892 0.930 . S
H2883 C2895 0.929 . S
H2884 C2898 0.930 . S
H2885 C2900 0.960 1_655 S
H2886 C2900 0.960 . S
H2887 C2900 0.960 . S
C2888 H2880 0.929 . S
C2888 C2889 1.377 . S
C2888 C2890 1.384 . S
C2889 C2888 1.377 . S
C2889 C2895 1.390 . S
C2890 H2881 0.930 . S
C2890 C2888 1.384 . S
C2890 C2891 1.372 . S
C2891 C2890 1.372 . S
C2891 C2892 1.400 . S
C2891 C2896 1.490 . S
C2892 H2882 0.930 . S
C2892 C2891 1.400 . S
C2892 C2895 1.386 . S
H2893 C2909 0.930 . S
H2894 C2910 0.931 . S
C2895 H2883 0.929 . S
C2895 C2889 1.390 . S
C2895 C2892 1.386 . S
C2896 C2891 1.490 . S
C2896 C2898 1.395 . S
C2896 C2899 1.403 . S
H2897 C2903 0.930 . S
C2898 H2884 0.930 . S
C2898 C2896 1.395 . S
C2898 C2901 1.403 1_455 S
C2899 C2896 1.403 . S
C2899 C2900 1.524 . S
C2899 C2903 1.400 1_455 S
C2900 H2885 0.960 1_455 S
C2900 H2886 0.960 . S
C2900 H2887 0.960 . S
C2900 C2899 1.524 . S
C2901 C2898 1.403 1_655 S
C2901 C2902 1.392 . S
C2901 C2905 1.495 . S
C2902 C2901 1.392 . S
C2902 C2903 1.385 . S
C2902 C2904 1.478 . S
C2903 H2897 0.930 . S
C2903 C2899 1.400 1_655 S
C2903 C2902 1.385 . S
C2904 C2902 1.478 . S
C2904 C2906 1.381 . S
C2904 C2910 1.383 . S
C2905 C2901 1.495 . S
C2905 H2911 0.959 1_655 S
C2905 H2912 0.961 . S
C2905 H2913 0.960 . S
C2906 C2904 1.381 . S
C2906 C2907 1.394 . S
C2906 H2914 0.930 . S
C2907 C2906 1.394 . S
C2907 C2908 1.383 . S
C2907 H2915 0.929 . S
C2908 C2907 1.383 . S
C2908 C2909 1.377 . S
C2909 H2893 0.930 . S
C2909 C2908 1.377 . S
C2909 C2910 1.379 . S
C2910 H2894 0.931 . S
C2910 C2904 1.383 . S
C2910 C2909 1.379 . S
H2911 C2905 0.959 1_455 S
H2912 C2905 0.961 . S
H2913 C2905 0.960 . S
H2914 C2906 0.930 . S
H2915 C2907 0.929 . S
H2916 C2924 0.929 . S
H2917 C2926 0.930 . S
H2918 C2928 0.930 . S
H2919 C2931 0.929 . S
H2920 C2934 0.930 . S
H2921 C2936 0.960 . S
H2922 C2936 0.960 . S
H2923 C2936 0.960 . S
C2924 H2916 0.929 . S
C2924 C2925 1.377 . S
C2924 C2926 1.384 . S
C2925 C2924 1.377 . S
C2925 C2931 1.390 . S
C2926 H2917 0.930 . S
C2926 C2924 1.384 . S
C2926 C2927 1.372 . S
C2927 C2926 1.372 . S
C2927 C2928 1.400 . S
C2927 C2932 1.490 . S
C2928 H2918 0.930 . S
C2928 C2927 1.400 . S
C2928 C2931 1.386 . S
H2929 C2945 0.930 . S
H2930 C2946 0.931 . S
C2931 H2919 0.929 . S
C2931 C2925 1.390 . S
C2931 C2928 1.386 . S
C2932 C2927 1.490 . S
C2932 C2934 1.395 . S
C2932 C2935 1.403 . S
H2933 C2939 0.930 . S
C2934 H2920 0.930 . S
C2934 C2932 1.395 . S
C2934 C2937 1.403 . S
C2935 C2932 1.403 . S
C2935 C2936 1.524 . S
C2935 C2939 1.400 . S
C2936 H2921 0.960 . S
C2936 H2922 0.960 . S
C2936 H2923 0.960 . S
C2936 C2935 1.524 . S
C2937 C2934 1.403 . S
C2937 C2938 1.392 . S
C2937 C2941 1.495 . S
C2938 C2937 1.392 . S
C2938 C2939 1.385 . S
C2938 C2940 1.478 . S
C2939 H2933 0.930 . S
C2939 C2935 1.400 . S
C2939 C2938 1.385 . S
C2940 C2938 1.478 . S
C2940 C2942 1.381 . S
C2940 C2946 1.383 . S
C2941 C2937 1.495 . S
C2941 H2947 0.959 . S
C2941 H2948 0.961 . S
C2941 H2949 0.960 . S
C2942 C2940 1.381 . S
C2942 C2943 1.394 . S
C2942 H2950 0.930 . S
C2943 C2942 1.394 . S
C2943 C2944 1.383 . S
C2943 H2951 0.929 . S
C2944 C2943 1.383 . S
C2944 C2945 1.377 . S
C2945 H2929 0.930 . S
C2945 C2944 1.377 . S
C2945 C2946 1.379 . S
C2946 H2930 0.931 . S
C2946 C2940 1.383 . S
C2946 C2945 1.379 . S
H2947 C2941 0.959 . S
H2948 C2941 0.961 . S
H2949 C2941 0.960 . S
H2950 C2942 0.930 . S
H2951 C2943 0.929 . S
H2952 C2960 0.929 . S
H2953 C2962 0.930 . S
H2954 C2964 0.930 . S
H2955 C2967 0.929 . S
H2956 C2970 0.930 . S
H2957 C2972 0.960 . S
H2958 C2972 0.960 . S
H2959 C2972 0.960 . S
C2960 H2952 0.929 . S
C2960 C2961 1.377 . S
C2960 C2962 1.384 . S
C2961 C2960 1.377 . S
C2961 C2967 1.390 . S
C2962 H2953 0.930 . S
C2962 C2960 1.384 . S
C2962 C2963 1.372 . S
C2963 C2962 1.372 . S
C2963 C2964 1.400 . S
C2963 C2968 1.490 . S
C2964 H2954 0.930 . S
C2964 C2963 1.400 . S
C2964 C2967 1.386 . S
H2965 C2981 0.930 . S
H2966 C2982 0.931 . S
C2967 H2955 0.929 . S
C2967 C2961 1.390 . S
C2967 C2964 1.386 . S
C2968 C2963 1.490 . S
C2968 C2970 1.395 . S
C2968 C2971 1.403 . S
H2969 C2975 0.930 . S
C2970 H2956 0.930 . S
C2970 C2968 1.395 . S
C2970 C2973 1.403 1_565 S
C2971 C2968 1.403 . S
C2971 C2972 1.524 . S
C2971 C2975 1.400 1_565 S
C2972 H2957 0.960 . S
C2972 H2958 0.960 . S
C2972 H2959 0.960 . S
C2972 C2971 1.524 . S
C2973 C2970 1.403 1_545 S
C2973 C2974 1.392 . S
C2973 C2977 1.495 . S
C2974 C2973 1.392 . S
C2974 C2975 1.385 . S
C2974 C2976 1.478 . S
C2975 H2969 0.930 . S
C2975 C2971 1.400 1_545 S
C2975 C2974 1.385 . S
C2976 C2974 1.478 . S
C2976 C2978 1.381 . S
C2976 C2982 1.383 . S
C2977 C2973 1.495 . S
C2977 H2983 0.959 . S
C2977 H2984 0.961 . S
C2977 H2985 0.960 . S
C2978 C2976 1.381 . S
C2978 C2979 1.394 . S
C2978 H2986 0.930 . S
C2979 C2978 1.394 . S
C2979 C2980 1.383 . S
C2979 H2987 0.929 . S
C2980 C2979 1.383 . S
C2980 C2981 1.377 . S
C2981 H2965 0.930 . S
C2981 C2980 1.377 . S
C2981 C2982 1.379 . S
C2982 H2966 0.931 . S
C2982 C2976 1.383 . S
C2982 C2981 1.379 . S
H2983 C2977 0.959 . S
H2984 C2977 0.961 . S
H2985 C2977 0.960 . S
H2986 C2978 0.930 . S
H2987 C2979 0.929 . S
H2988 C2996 0.929 . S
H2989 C2998 0.930 . S
H2990 C3000 0.930 . S
H2991 C3003 0.929 . S
H2992 C3006 0.930 . S
H2993 C3008 0.960 . S
H2994 C3008 0.960 . S
H2995 C3008 0.960 . S
C2996 H2988 0.929 . S
C2996 C2997 1.377 . S
C2996 C2998 1.384 . S
C2997 C2996 1.377 . S
C2997 C3003 1.390 . S
C2998 H2989 0.930 . S
C2998 C2996 1.384 . S
C2998 C2999 1.372 . S
C2999 C2998 1.372 . S
C2999 C3000 1.400 . S
C2999 C3004 1.490 . S
C3000 H2990 0.930 . S
C3000 C2999 1.400 . S
C3000 C3003 1.386 . S
H3001 C3017 0.930 . S
H3002 C3018 0.931 . S
C3003 H2991 0.929 . S
C3003 C2997 1.390 . S
C3003 C3000 1.386 . S
C3004 C2999 1.490 . S
C3004 C3006 1.395 . S
C3004 C3007 1.403 . S
H3005 C3011 0.930 . S
C3006 H2992 0.930 . S
C3006 C3004 1.395 . S
C3006 C3009 1.403 1_545 S
C3007 C3004 1.403 . S
C3007 C3008 1.524 . S
C3007 C3011 1.400 1_545 S
C3008 H2993 0.960 . S
C3008 H2994 0.960 . S
C3008 H2995 0.960 . S
C3008 C3007 1.524 . S
C3009 C3006 1.403 1_565 S
C3009 C3010 1.392 . S
C3009 C3013 1.495 . S
C3010 C3009 1.392 . S
C3010 C3011 1.385 . S
C3010 C3012 1.478 . S
C3011 H3005 0.930 . S
C3011 C3007 1.400 1_565 S
C3011 C3010 1.385 . S
C3012 C3010 1.478 . S
C3012 C3014 1.381 . S
C3012 C3018 1.383 . S
C3013 C3009 1.495 . S
C3013 H3019 0.959 . S
C3013 H3020 0.961 . S
C3013 H3021 0.960 . S
C3014 C3012 1.381 . S
C3014 C3015 1.394 . S
C3014 H3022 0.930 . S
C3015 C3014 1.394 . S
C3015 C3016 1.383 . S
C3015 H3023 0.929 . S
C3016 C3015 1.383 . S
C3016 C3017 1.377 . S
C3017 H3001 0.930 . S
C3017 C3016 1.377 . S
C3017 C3018 1.379 . S
C3018 H3002 0.931 . S
C3018 C3012 1.383 . S
C3018 C3017 1.379 . S
H3019 C3013 0.959 . S
H3020 C3013 0.961 . S
H3021 C3013 0.960 . S
H3022 C3014 0.930 . S
H3023 C3015 0.929 . S
H3024 C3032 0.929 . S
H3025 C3034 0.930 . S
H3026 C3036 0.930 . S
H3027 C3039 0.929 . S
H3028 C3042 0.930 . S
H3029 C3044 0.960 . S
H3030 C3044 0.960 . S
H3031 C3044 0.960 . S
C3032 H3024 0.929 . S
C3032 C3033 1.377 . S
C3032 C3034 1.384 . S
C3033 C3032 1.377 . S
C3033 C3039 1.390 . S
C3034 H3025 0.930 . S
C3034 C3032 1.384 . S
C3034 C3035 1.372 . S
C3035 C3034 1.372 . S
C3035 C3036 1.400 . S
C3035 C3040 1.490 . S
C3036 H3026 0.930 . S
C3036 C3035 1.400 . S
C3036 C3039 1.386 . S
H3037 C3053 0.930 . S
H3038 C3054 0.931 . S
C3039 H3027 0.929 . S
C3039 C3033 1.390 . S
C3039 C3036 1.386 . S
C3040 C3035 1.490 . S
C3040 C3042 1.395 . S
C3040 C3043 1.403 . S
H3041 C3047 0.930 . S
C3042 H3028 0.930 . S
C3042 C3040 1.395 . S
C3042 C3045 1.403 1_455 S
C3043 C3040 1.403 . S
C3043 C3044 1.524 . S
C3043 C3047 1.400 1_455 S
C3044 H3029 0.960 . S
C3044 H3030 0.960 . S
C3044 H3031 0.960 . S
C3044 C3043 1.524 . S
C3045 C3042 1.403 1_655 S
C3045 C3046 1.392 . S
C3045 C3049 1.495 . S
C3046 C3045 1.392 . S
C3046 C3047 1.385 . S
C3046 C3048 1.478 . S
C3047 H3041 0.930 . S
C3047 C3043 1.400 1_655 S
C3047 C3046 1.385 . S
C3048 C3046 1.478 . S
C3048 C3050 1.381 . S
C3048 C3054 1.383 . S
C3049 C3045 1.495 . S
C3049 H3055 0.959 . S
C3049 H3056 0.961 . S
C3049 H3057 0.960 . S
C3050 C3048 1.381 . S
C3050 C3051 1.394 . S
C3050 H3058 0.930 . S
C3051 C3050 1.394 . S
C3051 C3052 1.383 . S
C3051 H3059 0.929 . S
C3052 C3051 1.383 . S
C3052 C3053 1.377 . S
C3053 H3037 0.930 . S
C3053 C3052 1.377 . S
C3053 C3054 1.379 . S
C3054 H3038 0.931 . S
C3054 C3048 1.383 . S
C3054 C3053 1.379 . S
H3055 C3049 0.959 . S
H3056 C3049 0.961 . S
H3057 C3049 0.960 . S
H3058 C3050 0.930 . S
H3059 C3051 0.929 . S
H3060 C3068 0.929 . S
H3061 C3070 0.930 . S
H3062 C3072 0.930 . S
H3063 C3075 0.929 . S
H3064 C3078 0.930 . S
H3065 C3080 0.960 . S
H3066 C3080 0.960 . S
H3067 C3080 0.960 . S
C3068 H3060 0.929 . S
C3068 C3069 1.377 . S
C3068 C3070 1.384 . S
C3069 C3068 1.377 . S
C3069 C3075 1.390 . S
C3070 H3061 0.930 . S
C3070 C3068 1.384 . S
C3070 C3071 1.372 . S
C3071 C3070 1.372 . S
C3071 C3072 1.400 . S
C3071 C3076 1.490 . S
C3072 H3062 0.930 . S
C3072 C3071 1.400 . S
C3072 C3075 1.386 . S
H3073 C3089 0.930 . S
H3074 C3090 0.931 . S
C3075 H3063 0.929 . S
C3075 C3069 1.390 . S
C3075 C3072 1.386 . S
C3076 C3071 1.490 . S
C3076 C3078 1.395 . S
C3076 C3079 1.403 . S
H3077 C3083 0.930 . S
C3078 H3064 0.930 . S
C3078 C3076 1.395 . S
C3078 C3081 1.403 . S
C3079 C3076 1.403 . S
C3079 C3080 1.524 . S
C3079 C3083 1.400 . S
C3080 H3065 0.960 . S
C3080 H3066 0.960 . S
C3080 H3067 0.960 . S
C3080 C3079 1.524 . S
C3081 C3078 1.403 . S
C3081 C3082 1.392 . S
C3081 C3085 1.495 . S
C3082 C3081 1.392 . S
C3082 C3083 1.385 . S
C3082 C3084 1.478 . S
C3083 H3077 0.930 . S
C3083 C3079 1.400 . S
C3083 C3082 1.385 . S
C3084 C3082 1.478 . S
C3084 C3086 1.381 . S
C3084 C3090 1.383 . S
C3085 C3081 1.495 . S
C3085 H3091 0.959 . S
C3085 H3092 0.961 . S
C3085 H3093 0.960 . S
C3086 C3084 1.381 . S
C3086 C3087 1.394 . S
C3086 H3094 0.930 . S
C3087 C3086 1.394 . S
C3087 C3088 1.383 . S
C3087 H3095 0.929 . S
C3088 C3087 1.383 . S
C3088 C3089 1.377 . S
C3089 H3073 0.930 . S
C3089 C3088 1.377 . S
C3089 C3090 1.379 . S
C3090 H3074 0.931 . S
C3090 C3084 1.383 . S
C3090 C3089 1.379 . S
H3091 C3085 0.959 . S
H3092 C3085 0.961 . S
H3093 C3085 0.960 . S
H3094 C3086 0.930 . S
H3095 C3087 0.929 . S
C513 C47 0.972 . S
C532 C5 1.048 . S
C549 C67 1.082 . S
C568 C25 1.101 . S
C585 C75 0.990 . S
C604 C33 0.921 . S
C621 C95 1.111 . S
C640 C137 1.117 . S
C657 C109 1.055 . S
C676 C151 1.081 . S
C693 C165 1.107 . S
C712 C123 1.119 . S
C729 C173 0.991 . S
C748 C215 0.966 . S
C765 C193 1.080 . S
C784 C235 1.040 . S
C801 C201 0.959 . S
C820 C243 0.965 . S
C837 C263 1.108 . S
C856 C305 1.095 . S
C873 C319 1.053 . S
C892 C277 1.023 . S
C909 C291 1.115 . S
C928 C333 1.138 . S
C945 C341 0.961 . S
C964 C383 0.967 . S
C981 C361 1.069 . S
C1000 C403 1.054 . S
C1017 C411 0.963 . S
C1036 C369 0.954 . S
C1053 C473 1.122 . S
C1072 C431 1.091 . S
C1089 C487 1.049 . S
C1108 C445 1.063 . S
C1125 C501 1.106 . S
C1144 C459 1.110 . S
C1161 C166 1.092 . S
C1180 C12 1.082 . S
C1197 C19 0.905 . S
C1216 C138 0.979 . S
C1233 C40 0.996 . S
C1252 C152 1.008 . S
C1269 C110 1.014 . S
C1288 C54 1.028 . S
C1305 C61 0.921 . S
C1324 C124 0.987 . S
C1341 C96 1.096 . S
C1360 C82 1.094 . S
C1377 C88 1.242 . S
C1396 C81 1.247 . S
C1413 C102 1.267 . S
C1432 C53 1.260 . S
C1449 C68 1.223 . S
C1468 C116 1.205 . S
C1485 C26 1.224 . S
C1504 C130 1.226 . S
C1521 C39 1.265 . S
C1540 C144 1.284 . S
C1557 C158 1.243 . S
C1576 C11 1.212 . S
C1593 C180 1.075 . S
C1612 C334 1.088 . S
C1629 C306 0.957 . S
C1648 C187 0.945 . S
C1665 C320 1.011 . S
C1684 C208 1.020 . S
C1701 C222 1.010 . S
C1720 C278 1.002 . S
C1737 C292 0.971 . S
C1756 C229 0.863 . S
C1773 C250 1.087 . S
C1792 C264 1.093 . S
C1809 C256 1.237 . S
C1828 C249 1.202 . S
C1845 C270 1.259 . S
C1864 C221 1.253 . S
C1881 C236 1.232 . S
C1900 C284 1.236 . S
C1917 C194 1.241 . S
C1936 C298 1.226 . S
C1953 C207 1.250 . S
C1972 C312 1.250 . S
C1989 C326 1.254 . S
C2008 C179 1.213 . S
C2025 C502 1.092 . S
C2044 C348 1.080 . S
C2061 C355 0.896 . S
C2080 C474 0.957 . S
C2097 C376 1.009 . S
C2116 C488 1.002 . S
C2133 C390 1.008 . S
C2152 C446 1.007 . S
C2169 C460 1.000 . S
C2188 C397 0.987 . S
C2205 C418 1.076 . S
C2224 C432 1.087 . S
C2241 C417 1.242 . S
C2260 C424 1.251 . S
C2277 C389 1.252 . S
C2296 C438 1.252 . S
C2313 C404 1.197 . S
C2332 C452 1.188 . S
C2349 C362 1.231 . S
C2368 C466 1.214 . S
C2385 C375 1.248 . S
C2404 C480 1.272 . S
C2421 C347 1.224 . S
C2440 C494 1.249 . S
C2457 C410 1.618 1_554 S
C2476 C4 1.603 . S
C2493 C18 1.740 . S
C2512 C382 1.622 1_554 S
C2529 C396 1.737 1_554 S
C2548 C32 1.614 . S
C2565 C46 1.644 . S
C2584 C186 1.738 . S
C2601 C200 1.640 . S
C2620 C60 1.741 . S
C2637 C74 1.628 . S
C2656 C172 1.654 . S
C2673 C89 1.005 . S
C2692 C327 1.002 1_556 S
C2709 C299 0.955 . S
C2728 C103 0.992 . S
C2745 C117 0.951 . S
C2764 C313 1.008 1_556 S
C2781 C131 0.950 . S
C2800 C439 1.001 . S
C2817 C145 0.983 . S
C2836 C453 0.932 . S
C2853 C425 1.002 . S
C2872 C159 0.935 . S
C2889 C354 1.737 . S
C2908 C214 1.664 . S
C2925 C368 1.644 . S
C2944 C228 1.735 . S
C2961 C340 1.622 . S
C2980 C242 1.598 . S
C2997 C257 1.001 . S
C3016 C495 0.953 . S
C3033 C467 0.951 . S
C3052 C271 0.982 . S
C3069 C285 0.965 . S
C3088 C481 0.905 . S
