# Generated by pormake.
# Topology sra, (4)-cn, num edge types: 1
# Building blocks:
#     Node 0, Type 0, BuildingBlock: CEKHIL_clean_sbu_0, # of connection points: 4
#     Node 1, Type 0, BuildingBlock: CEKHIL_clean_sbu_0, # of connection points: 4
#     Node 2, Type 0, BuildingBlock: CEKHIL_clean_sbu_0, # of connection points: 4
#     Node 3, Type 0, BuildingBlock: CEKHIL_clean_sbu_0, # of connection points: 4
#     Node 4, Type 0, BuildingBlock: CEKHIL_clean_sbu_0, # of connection points: 4
#     Node 5, Type 0, BuildingBlock: CEKHIL_clean_sbu_0, # of connection points: 4
#     Node 6, Type 0, BuildingBlock: CEKHIL_clean_sbu_0, # of connection points: 4
#     Node 7, Type 0, BuildingBlock: CEKHIL_clean_sbu_0, # of connection points: 4
#     Edge 8, Type (0, 0), BuildingBlock: FUNLAD_clean_linker_0, # of connection points: 2
#     Edge 9, Type (0, 0), BuildingBlock: FUNLAD_clean_linker_0, # of connection points: 2
#     Edge 10, Type (0, 0), BuildingBlock: FUNLAD_clean_linker_0, # of connection points: 2
#     Edge 11, Type (0, 0), BuildingBlock: FUNLAD_clean_linker_0, # of connection points: 2
#     Edge 12, Type (0, 0), BuildingBlock: FUNLAD_clean_linker_0, # of connection points: 2
#     Edge 13, Type (0, 0), BuildingBlock: FUNLAD_clean_linker_0, # of connection points: 2
#     Edge 14, Type (0, 0), BuildingBlock: FUNLAD_clean_linker_0, # of connection points: 2
#     Edge 15, Type (0, 0), BuildingBlock: FUNLAD_clean_linker_0, # of connection points: 2
#     Edge 16, Type (0, 0), BuildingBlock: FUNLAD_clean_linker_0, # of connection points: 2
#     Edge 17, Type (0, 0), BuildingBlock: FUNLAD_clean_linker_0, # of connection points: 2
#     Edge 18, Type (0, 0), BuildingBlock: FUNLAD_clean_linker_0, # of connection points: 2
#     Edge 19, Type (0, 0), BuildingBlock: FUNLAD_clean_linker_0, # of connection points: 2
#     Edge 20, Type (0, 0), BuildingBlock: FUNLAD_clean_linker_0, # of connection points: 2
#     Edge 21, Type (0, 0), BuildingBlock: FUNLAD_clean_linker_0, # of connection points: 2
#     Edge 22, Type (0, 0), BuildingBlock: FUNLAD_clean_linker_0, # of connection points: 2
#     Edge 23, Type (0, 0), BuildingBlock: FUNLAD_clean_linker_0, # of connection points: 2
# Relax obj value: 0.033
# Max RMSD: 0.069
# Mean RMSD: 0.069
data_MOF--net-sra--node1-CEKHIL_clean_sbu_0--edge1-FUNLAD_clean_linker_0
_symmetry_space_group_name_H-M    P1
_symmetry_Int_Tables_number       1
_symmetry_cell_setting            triclinic
loop_
_symmetry_equiv_pos_as_xyz
'x, y, z'
_cell_length_a     31.589021
_cell_length_b     61.36551
_cell_length_c     36.266552
_cell_angle_alpha  90.069973
_cell_angle_beta   89.982008
_cell_angle_gamma 90.000943
loop_
_atom_site_label
_atom_site_type_symbol
_atom_site_fract_x
_atom_site_fract_y
_atom_site_fract_z
_atom_type_partial_charge
Co0 Co 0.01912 0.10507 0.1542 0.0
O1 O 0.01875 0.07407 0.14697 0.0
O2 O 0.99589 0.098 0.10599 0.0
C3 C 0.08582 0.10719 0.1762 0.0
O4 O 0.0162 0.13842 0.1522 0.0
Co5 Co 0.02852 0.12306 0.23395 0.0
O6 O 0.03512 0.15126 0.208 0.0
C7 C 0.94691 0.10463 0.21032 0.0
C8 C 0.00244 0.0777 0.11478 0.0
C9 C 0.02527 0.15427 0.17427 0.0
O10 O 0.96088 0.10346 0.17702 0.0
O11 O 0.97014 0.11031 0.23762 0.0
O12 O 0.07901 0.10647 0.14089 0.0
O13 O 0.05282 0.10438 0.19665 0.0
Co14 Co 0.99504 0.39794 0.14529 0.0
O15 O -0.00069 0.42858 0.13556 0.0
O16 O 0.0195 0.40272 0.0968 0.0
C17 C 0.9282 0.39902 0.16689 0.0
O18 O 0.99349 0.36455 0.14595 0.0
Co19 Co 0.98178 0.38223 0.22599 0.0
O20 O 0.96579 0.35475 0.20069 0.0
C21 C 0.06569 0.39795 0.20238 0.0
C22 C 0.01508 0.42344 0.10373 0.0
C23 C 0.97743 0.35022 0.16789 0.0
O24 O 0.05292 0.39834 0.16868 0.0
O25 O 0.04122 0.39363 0.22958 0.0
O26 O 0.93519 0.39827 0.13159 0.0
O27 O 0.9614 0.40108 0.1873 0.0
Co28 Co 0.01811 0.90092 0.84651 0.0
O29 O 0.01379 0.93199 0.8517 0.0
O30 O -0.00131 0.90839 0.89581 0.0
C31 C 0.08218 0.90131 0.8193 0.0
O32 O 0.02067 0.8676 0.85111 0.0
Co33 Co 0.02542 0.88011 0.76812 0.0
O34 O 0.04533 0.85472 0.79701 0.0
C35 C 0.94338 0.89742 0.79446 0.0
C36 C 0.00169 0.92864 0.88536 0.0
C37 C 0.03606 0.85217 0.83095 0.0
O38 O 0.95822 0.89978 0.82732 0.0
O39 O 0.96604 0.89148 0.76694 0.0
O40 O 0.07936 0.9024 0.85503 0.0
O41 O 0.04679 0.90176 0.80176 0.0
Co42 Co 0.00182 0.60792 0.85328 0.0
O43 O 0.00146 0.57711 0.86252 0.0
O44 O 0.02559 0.60192 0.90154 0.0
C45 C 0.93505 0.60995 0.83178 0.0
O46 O 0.00544 0.64123 0.85348 0.0
Co47 Co 0.99226 0.62449 0.7729 0.0
O48 O 0.98694 0.65332 0.79717 0.0
C49 C 0.07328 0.6056 0.79667 0.0
C50 C 0.01828 0.58147 0.89429 0.0
C51 C 0.99678 0.65677 0.83078 0.0
O52 O 0.05965 0.60537 0.83011 0.0
O53 O 0.05002 0.61097 0.76923 0.0
O54 O 0.94226 0.60999 0.86705 0.0
O55 O 0.9677 0.60654 0.81112 0.0
Co56 Co 0.5201 0.60557 0.65723 0.0
O57 O 0.52573 0.57523 0.64616 0.0
O58 O 0.49653 0.59928 0.60865 0.0
C59 C 0.58673 0.6101 0.67827 0.0
O60 O 0.51066 0.63859 0.66048 0.0
Co61 Co 0.52867 0.61894 0.73989 0.0
O62 O 0.52829 0.64859 0.71835 0.0
C63 C 0.44988 0.59852 0.71415 0.0
C64 C 0.50746 0.57913 0.61493 0.0
C65 C 0.51691 0.65324 0.68552 0.0
O66 O 0.46319 0.59993 0.68069 0.0
O67 O 0.47279 0.60344 0.74207 0.0
O68 O 0.5791 0.61073 0.64308 0.0
O69 O 0.55507 0.60453 0.69862 0.0
Co70 Co 0.49882 0.89862 0.64755 0.0
O71 O 0.49983 0.92953 0.63888 0.0
O72 O 0.51967 0.90456 0.59833 0.0
C73 C 0.4338 0.89776 0.67283 0.0
O74 O 0.5003 0.86527 0.64611 0.0
Co75 Co 0.49097 0.88015 0.72737 0.0
O76 O 0.47562 0.85307 0.70054 0.0
C77 C 0.57109 0.90002 0.70221 0.0
C78 C 0.51396 0.92506 0.60615 0.0
C79 C 0.48622 0.84992 0.66703 0.0
O80 O 0.55781 0.90009 0.66862 0.0
O81 O 0.54791 0.89449 0.72963 0.0
O82 O 0.43794 0.89781 0.63714 0.0
O83 O 0.46828 0.90004 0.69132 0.0
Co84 Co 0.51519 0.40347 0.34739 0.0
O85 O 0.51191 0.43461 0.35187 0.0
O86 O 0.49152 0.4114 0.39499 0.0
C87 C 0.58178 0.40245 0.32521 0.0
O88 O 0.51557 0.37021 0.35239 0.0
Co89 Co 0.52684 0.38283 0.26958 0.0
O90 O 0.54097 0.35663 0.29908 0.0
C91 C 0.44325 0.39977 0.29163 0.0
C92 C 0.49635 0.43156 0.38452 0.0
C93 C 0.52979 0.3543 0.33264 0.0
O94 O 0.45697 0.40282 0.32466 0.0
O95 O 0.46702 0.39349 0.26504 0.0
O96 O 0.57521 0.4041 0.36047 0.0
O97 O 0.54842 0.40365 0.30479 0.0
Co98 Co 0.49973 0.11028 0.35377 0.0
O99 O 0.49498 0.07958 0.36368 0.0
O100 O 0.52269 0.10375 0.40204 0.0
C101 C 0.43328 0.11464 0.33204 0.0
O102 O 0.50859 0.14327 0.35368 0.0
Co103 Co 0.4921 0.12718 0.2733 0.0
O104 O 0.4975 0.15634 0.29641 0.0
C105 C 0.5702 0.10509 0.29684 0.0
C106 C 0.51253 0.08358 0.39531 0.0
C107 C 0.50603 0.15907 0.33045 0.0
O108 O 0.55709 0.10548 0.33047 0.0
O109 O 0.54725 0.11109 0.26959 0.0
O110 O 0.4404 0.11465 0.36734 0.0
O111 O 0.46551 0.11005 0.31158 0.0
C112 C 0.00459 0.31733 0.1334 0.0
C113 C 0.97416 0.32711 0.15641 0.0
C114 C 0.00548 0.29457 0.12895 0.0
C115 C 0.97555 0.28135 0.14717 0.0
C116 C 0.94343 0.29143 0.16776 0.0
C117 C 0.94277 0.31396 0.1724 0.0
C118 C 0.97953 0.25725 0.15021 0.0
C119 C 0.00428 0.24435 0.12917 0.0
C120 C 0.01136 0.22121 0.13972 0.0
C121 C 0.0116 0.20449 0.11319 0.0
C122 C 0.01638 0.18262 0.12399 0.0
C123 C 0.02198 0.17723 0.16143 0.0
H124 H 0.01936 0.22836 0.19786 0.0
C125 C 0.02339 0.1942 0.18753 0.0
C126 C 0.01812 0.21581 0.17686 0.0
H127 H 0.02789 0.19086 0.21658 0.0
H128 H 0.02926 0.32709 0.12084 0.0
H129 H 0.031 0.28742 0.11314 0.0
H130 H 0.91983 0.28175 0.18197 0.0
H131 H 0.91857 0.32103 0.1899 0.0
H132 H 0.96198 0.24966 0.1726 0.0
H133 H 0.01958 0.25063 0.10458 0.0
H134 H 0.00699 0.2083 0.08432 0.0
H135 H 0.01546 0.16998 0.10314 0.0
C136 C 0.00911 0.82005 0.86706 0.0
C137 C 0.04105 0.82992 0.84588 0.0
C138 C 0.00962 0.79742 0.87312 0.0
C139 C 0.04247 0.78448 0.8584 0.0
C140 C 0.07602 0.79483 0.84006 0.0
C141 C 0.07524 0.81722 0.83372 0.0
C142 C 0.04047 0.76027 0.85622 0.0
C143 C 0.01339 0.74733 0.87481 0.0
C144 C 0.00851 0.72403 0.86425 0.0
C145 C 0.00445 0.70766 0.89108 0.0
C146 C 0.00085 0.68568 0.88057 0.0
C147 C 0.00012 0.67983 0.843 0.0
H148 H 0.00899 0.73042 0.80545 0.0
C149 C 0.00291 0.69641 0.81638 0.0
C150 C 0.00713 0.71815 0.82683 0.0
H151 H 0.00234 0.69264 0.7872 0.0
H152 H 0.98221 0.82949 0.87649 0.0
H153 H 0.98297 0.79009 0.88713 0.0
H154 H 0.10185 0.78539 0.82858 0.0
H155 H 0.10044 0.82444 0.81754 0.0
H156 H 0.06146 0.75261 0.83623 0.0
H157 H 0.99428 0.75372 0.89721 0.0
H158 H 0.00489 0.71184 0.92011 0.0
H159 H -0.00159 0.67332 0.90176 0.0
C160 C 0.5065 0.68515 0.64181 0.0
C161 C 0.50818 0.67659 0.6778 0.0
C162 C 0.49831 0.70747 0.63615 0.0
C163 C 0.4911 0.72139 0.66647 0.0
C164 C 0.49231 0.71264 0.7021 0.0
C165 C 0.50098 0.69071 0.70772 0.0
C166 C 0.48084 0.74495 0.66317 0.0
C167 C 0.49258 0.75808 0.63519 0.0
C168 C 0.48652 0.78217 0.63771 0.0
C169 C 0.51671 0.79631 0.62221 0.0
C170 C 0.51539 0.81875 0.62972 0.0
C171 C 0.48395 0.82732 0.65303 0.0
H172 H 0.42771 0.78108 0.66886 0.0
C173 C 0.45194 0.81345 0.66601 0.0
C174 C 0.45281 0.79123 0.658 0.0
H175 H 0.42672 0.81973 0.6833 0.0
H176 H 0.51175 0.67468 0.61818 0.0
H177 H 0.49689 0.71364 0.60824 0.0
H178 H 0.48667 0.72289 0.72597 0.0
H179 H 0.50146 0.68479 0.73585 0.0
H180 H 0.46609 0.75224 0.68727 0.0
H181 H 0.51099 0.75154 0.61244 0.0
H182 H 0.54265 0.78984 0.606 0.0
H183 H 0.54032 0.82914 0.61917 0.0
C184 C 0.5584 0.31651 0.33171 0.0
C185 C 0.53112 0.33189 0.34781 0.0
C186 C 0.55594 0.29455 0.3412 0.0
C187 C 0.52617 0.28726 0.36734 0.0
C188 C 0.49997 0.30277 0.38459 0.0
C189 C 0.50266 0.32494 0.37519 0.0
C190 C 0.51854 0.26351 0.37339 0.0
C191 C 0.54787 0.24822 0.36559 0.0
C192 C 0.53766 0.22486 0.35967 0.0
C193 C 0.55902 0.21393 0.33124 0.0
C194 C 0.54866 0.19251 0.32223 0.0
C195 C 0.51764 0.18126 0.34225 0.0
H196 H 0.49038 0.22148 0.40272 0.0
C197 C 0.49739 0.19171 0.37189 0.0
C198 C 0.50693 0.21354 0.38028 0.0
H199 H 0.47337 0.18326 0.38768 0.0
H200 H 0.58076 0.32132 0.31057 0.0
H201 H 0.57591 0.28332 0.32618 0.0
H202 H 0.47645 0.29765 0.40452 0.0
H203 H 0.48101 0.33639 0.3879 0.0
H204 H 0.48676 0.25852 0.38114 0.0
H205 H 0.57978 0.25321 0.35843 0.0
H206 H 0.58289 0.22224 0.31502 0.0
H207 H 0.56488 0.1847 0.29943 0.0
C208 C 0.38535 0.11937 0.27786 0.0
C209 C 0.39079 0.11838 0.31624 0.0
C210 C 0.34494 0.12137 0.26259 0.0
C211 C 0.30891 0.12215 0.28546 0.0
C212 C 0.31462 0.12202 0.32389 0.0
C213 C 0.35512 0.12011 0.33916 0.0
C214 C 0.26501 0.1229 0.27048 0.0
C215 C 0.25465 0.11601 0.23631 0.0
C216 C 0.21058 0.11519 0.22188 0.0
C217 C 0.20448 0.11441 0.18353 0.0
C218 C 0.16389 0.11227 0.16867 0.0
C219 C 0.12847 0.11063 0.19188 0.0
H220 H 0.17819 0.1137 0.27481 0.0
C221 C 0.13436 0.11159 0.23024 0.0
C222 C 0.17497 0.11381 0.24514 0.0
H223 H 0.10765 0.11025 0.24883 0.0
H224 H 0.41234 0.1184 0.25949 0.0
H225 H 0.34238 0.12233 0.23292 0.0
H226 H 0.28756 0.12286 0.34221 0.0
H227 H 0.35834 0.11951 0.36887 0.0
H228 H 0.24035 0.12857 0.28898 0.0
H229 H 0.27924 0.11032 0.21778 0.0
H230 H 0.2313 0.11529 0.16495 0.0
H231 H 0.16037 0.11154 0.13898 0.0
C232 C 0.62918 0.39583 0.27128 0.0
C233 C 0.62425 0.39882 0.30942 0.0
C234 C 0.66938 0.39305 0.25597 0.0
C235 C 0.70563 0.39344 0.27853 0.0
C236 C 0.70049 0.39579 0.31681 0.0
C237 C 0.66022 0.39852 0.33213 0.0
C238 C 0.74918 0.39145 0.26334 0.0
C239 C 0.75938 0.39674 0.22835 0.0
C240 C 0.80324 0.39616 0.21354 0.0
C241 C 0.80904 0.39526 0.17517 0.0
C242 C 0.84967 0.39581 0.15992 0.0
C243 C 0.88534 0.39747 0.18281 0.0
H244 H 0.83622 0.39916 0.26605 0.0
C245 C 0.87968 0.39828 0.22119 0.0
C246 C 0.83911 0.39771 0.23644 0.0
H247 H 0.9066 0.39972 0.23953 0.0
H248 H 0.60196 0.39567 0.25313 0.0
H249 H 0.67163 0.39043 0.22655 0.0
H250 H 0.72779 0.39592 0.33489 0.0
H251 H 0.65736 0.40065 0.36168 0.0
H252 H 0.7737 0.38617 0.28226 0.0
H253 H 0.73484 0.40204 0.20947 0.0
H254 H 0.78201 0.39424 0.15686 0.0
H255 H 0.85306 0.39522 0.13022 0.0
C256 C 0.16122 0.89775 0.81843 0.0
C257 C 0.12259 0.89883 0.79946 0.0
C258 C 0.1993 0.89611 0.79891 0.0
C259 C 0.19923 0.89543 0.76004 0.0
C260 C 0.16051 0.89643 0.7413 0.0
C261 C 0.12261 0.89799 0.76074 0.0
C262 C 0.23869 0.89508 0.73791 0.0
C263 C 0.27572 0.88731 0.75055 0.0
C264 C 0.31571 0.88886 0.72932 0.0
C265 C 0.35383 0.89004 0.74892 0.0
C266 C 0.39208 0.89276 0.73038 0.0
C267 C 0.39311 0.89409 0.69171 0.0
H268 H 0.28815 0.88789 0.67433 0.0
C269 C 0.35521 0.89214 0.67185 0.0
C270 C 0.31676 0.88951 0.69047 0.0
H271 H 0.35519 0.89285 0.642 0.0
H272 H 0.16208 0.8985 0.84826 0.0
H273 H 0.22855 0.89606 0.81439 0.0
H274 H 0.15956 0.8961 0.71143 0.0
H275 H 0.09332 0.89884 0.74529 0.0
H276 H 0.23689 0.90178 0.71027 0.0
H277 H 0.2776 0.88065 0.77821 0.0
H278 H 0.35397 0.88939 0.77879 0.0
H279 H 0.42082 0.89407 0.74651 0.0
C280 C 0.63443 0.61572 0.7323 0.0
C281 C 0.62886 0.61481 0.69393 0.0
C282 C 0.67463 0.61885 0.74738 0.0
C283 C 0.71035 0.62081 0.72434 0.0
C284 C 0.7044 0.62075 0.68595 0.0
C285 C 0.66408 0.61776 0.67086 0.0
C286 C 0.75419 0.62262 0.73909 0.0
C287 C 0.76537 0.61593 0.77313 0.0
C288 C 0.80957 0.61604 0.78714 0.0
C289 C 0.81615 0.61585 0.82542 0.0
C290 C 0.857 0.61442 0.83993 0.0
C291 C 0.89217 0.61288 0.8164 0.0
H292 H 0.84125 0.61429 0.73391 0.0
C293 C 0.88578 0.6133 0.77808 0.0
C294 C 0.84491 0.61483 0.76354 0.0
H295 H 0.91231 0.61202 0.75927 0.0
H296 H 0.60773 0.61386 0.75077 0.0
H297 H 0.67726 0.61972 0.77706 0.0
H298 H 0.73118 0.62248 0.66751 0.0
H299 H 0.66068 0.61727 0.64115 0.0
H300 H 0.77823 0.62888 0.72052 0.0
H301 H 0.7415 0.60969 0.79183 0.0
H302 H 0.78953 0.6166 0.84423 0.0
H303 H 0.86092 0.61408 0.86959 0.0
C304 C 0.62834 0.9104 0.74632 0.0
C305 C 0.61558 0.90591 0.70996 0.0
C306 C 0.67078 0.91427 0.75455 0.0
C307 C 0.70157 0.91345 0.72659 0.0
C308 C 0.68854 0.91012 0.68997 0.0
C309 C 0.64595 0.90637 0.68168 0.0
C310 C 0.74754 0.91508 0.73455 0.0
C311 C 0.76464 0.91001 0.76751 0.0
C312 C 0.8109 0.90813 0.77362 0.0
C313 C 0.82712 0.91043 0.80947 0.0
C314 C 0.87025 0.90727 0.81642 0.0
C315 C 0.89786 0.90147 0.78763 0.0
H316 H 0.82721 0.8996 0.71712 0.0
C317 C 0.88147 0.8992 0.75177 0.0
C318 C 0.83858 0.90239 0.74486 0.0
H319 H 0.90163 0.89461 0.72888 0.0
H320 H 0.60558 0.91071 0.76866 0.0
H321 H 0.67909 0.91775 0.78286 0.0
H322 H 0.71157 0.90966 0.66783 0.0
H323 H 0.6371 0.90315 0.65334 0.0
H324 H 0.7681 0.91915 0.71157 0.0
H325 H 0.74445 0.90614 0.7908 0.0
H326 H 0.80633 0.91457 0.83219 0.0
H327 H 0.88178 0.90912 0.84438 0.0
C328 C 0.39 0.58921 0.75676 0.0
C329 C 0.40502 0.59253 0.72069 0.0
C330 C 0.3469 0.58601 0.76342 0.0
C331 C 0.31764 0.58631 0.73414 0.0
C332 C 0.33295 0.58836 0.69795 0.0
C333 C 0.37612 0.59146 0.69125 0.0
C334 C 0.27106 0.58531 0.74014 0.0
C335 C 0.2523 0.59131 0.77199 0.0
C336 C 0.2057 0.59305 0.77702 0.0
C337 C 0.18928 0.59285 0.81299 0.0
C338 C 0.14617 0.59632 0.81933 0.0
C339 C 0.11845 0.60034 0.78977 0.0
H340 H 0.18925 0.59756 0.71926 0.0
C341 C 0.13476 0.60018 0.75367 0.0
C342 C 0.17787 0.59664 0.74734 0.0
H343 H 0.11442 0.60329 0.73022 0.0
H344 H 0.41145 0.5895 0.78005 0.0
H345 H 0.33685 0.5835 0.79159 0.0
H346 H 0.31126 0.58835 0.6748 0.0
H347 H 0.38654 0.59378 0.66307 0.0
H348 H 0.25167 0.58071 0.71669 0.0
H349 H 0.27158 0.5959 0.79549 0.0
H350 H 0.21 0.5903 0.8364 0.0
H351 H 0.13483 0.59632 0.84752 0.0
C352 C 0.62899 0.09626 0.25279 0.0
C353 C 0.61472 0.09878 0.28929 0.0
C354 C 0.67173 0.09242 0.24529 0.0
C355 C 0.70142 0.09125 0.27417 0.0
C356 C 0.68679 0.09267 0.31068 0.0
C357 C 0.64397 0.09642 0.31821 0.0
C358 C 0.74782 0.0892 0.26757 0.0
C359 C 0.76683 0.09463 0.23554 0.0
C360 C 0.81353 0.09519 0.23027 0.0
C361 C 0.82985 0.09431 0.19427 0.0
C362 C 0.87325 0.09669 0.18781 0.0
C363 C 0.90136 0.10029 0.21726 0.0
H364 H 0.83056 0.09978 0.2879 0.0
C365 C 0.88511 0.10079 0.25337 0.0
C366 C 0.84176 0.09833 0.25983 0.0
H367 H 0.90573 0.10361 0.27675 0.0
H368 H 0.60724 0.09758 0.22981 0.0
H369 H 0.68107 0.09051 0.21679 0.0
H370 H 0.70878 0.09157 0.33353 0.0
H371 H 0.63412 0.09812 0.34667 0.0
H372 H 0.76707 0.0841 0.29079 0.0
H373 H 0.74785 0.09959 0.2121 0.0
H374 H 0.80884 0.09208 0.17095 0.0
H375 H 0.88454 0.09624 0.15961 0.0
C376 C 0.12516 0.40464 0.2467 0.0
C377 C 0.11101 0.40215 0.21018 0.0
C378 C 0.16806 0.40773 0.25434 0.0
C379 C 0.19802 0.40814 0.22559 0.0
C380 C 0.18367 0.40635 0.18905 0.0
C381 C 0.1407 0.40338 0.18138 0.0
C382 C 0.24435 0.41013 0.23229 0.0
C383 C 0.26299 0.40583 0.26494 0.0
C384 C 0.30958 0.40584 0.27048 0.0
C385 C 0.32562 0.40878 0.30624 0.0
C386 C 0.36908 0.40739 0.31304 0.0
C387 C 0.39747 0.40275 0.2842 0.0
H388 H 0.32697 0.39843 0.21377 0.0
C389 C 0.38141 0.40004 0.24831 0.0
C390 C 0.33801 0.4015 0.24152 0.0
H391 H 0.40226 0.39634 0.22543 0.0
H392 H 0.10309 0.40417 0.26955 0.0
H393 H 0.1772 0.40987 0.28282 0.0
H394 H 0.2059 0.40681 0.1663 0.0
H395 H 0.13094 0.40166 0.1529 0.0
H396 H 0.26386 0.4145 0.2088 0.0
H397 H 0.2439 0.4017 0.28877 0.0
H398 H 0.30439 0.41195 0.3291 0.0
H399 H 0.38025 0.40951 0.34104 0.0
C400 C 0.98364 0.06264 0.05222 0.0
C401 C 0.99266 0.0593 0.08972 0.0
C402 C 0.97718 0.04482 0.0286 0.0
C403 C 0.97948 0.02331 0.04217 0.0
C404 C 0.98684 0.02014 0.07992 0.0
C405 C 0.99367 0.03786 0.10333 0.0
C406 C 0.97489 0.00371 0.01818 0.0
C407 C 0.98525 0.00353 0.98212 0.0
C408 C 0.98564 0.98367 0.95822 0.0
C409 C 0.9915 0.98654 0.92017 0.0
C410 C 0.99548 0.96865 0.89662 0.0
C411 C 0.99379 0.94728 0.91046 0.0
H412 H 0.97913 0.959 0.00114 0.0
C413 C 0.98685 0.94422 0.94835 0.0
C414 C 0.98294 0.9622 0.97206 0.0
H415 H 0.98559 0.92796 0.95985 0.0
H416 H 0.98233 0.07898 0.04101 0.0
H417 H 0.97026 0.04799 0.9999 0.0
H418 H 0.98837 0.00383 0.09125 0.0
H419 H 0.00011 0.0347 0.13217 0.0
H420 H 0.9652 0.98876 0.03161 0.0
H421 H 0.99561 0.01861 0.96937 0.0
H422 H 0.99377 1.00276 0.90856 0.0
H423 H 0.00069 0.97164 0.86754 0.0
C424 C 0.01746 0.54213 0.91173 0.0
C425 C 0.02741 0.56379 0.92088 0.0
C426 C 0.02361 0.52533 0.9371 0.0
C427 C 0.04033 0.52974 0.97231 0.0
C428 C 0.0509 0.55139 0.9812 0.0
C429 C 0.04462 0.56825 0.95576 0.0
C430 C 0.04378 0.51265 0.00138 0.0
C431 C 0.04204 0.49099 0.99468 0.0
C432 C 0.03892 0.47408 0.0241 0.0
C433 C 0.04611 0.45209 0.01493 0.0
C434 C 0.03958 0.43553 0.04092 0.0
C435 C 0.0255 0.44065 0.07661 0.0
H436 H 0.01833 0.49563 0.06841 0.0
C437 C 0.01918 0.46264 0.08602 0.0
C438 C 0.02556 0.47912 0.06015 0.0
H439 H 0.00814 0.46717 0.11325 0.0
H440 H 0.00395 0.53812 0.88512 0.0
H441 H 0.01375 0.50912 0.92918 0.0
H442 H 0.06346 0.55536 0.00819 0.0
H443 H 0.05256 0.58478 0.96366 0.0
H444 H 0.04742 0.51839 0.02949 0.0
H445 H 0.04232 0.48515 0.96645 0.0
H446 H 0.05605 0.44765 0.98733 0.0
H447 H 0.04463 0.41874 0.03281 0.0
C448 C 0.47483 0.44748 0.44568 0.0
C449 C 0.48656 0.45038 0.40867 0.0
C450 C 0.46921 0.46555 0.46887 0.0
C451 C 0.47548 0.48689 0.45547 0.0
C452 C 0.48513 0.4897 0.41803 0.0
C453 C 0.4908 0.4717 0.39495 0.0
C454 C 0.4737 0.50657 0.47961 0.0
C455 C 0.48204 0.50586 0.51602 0.0
C456 C 0.48682 0.52537 0.54025 0.0
C457 C 0.50673 0.52241 0.57442 0.0
C458 C 0.51322 0.53991 0.59821 0.0
C459 C 0.4998 0.56101 0.5887 0.0
H460 H 0.45646 0.54948 0.505 0.0
C461 C 0.47932 0.56414 0.55473 0.0
C462 C 0.47277 0.54648 0.53068 0.0
H463 H 0.46831 0.58018 0.54678 0.0
H464 H 0.47084 0.43127 0.45694 0.0
H465 H 0.46019 0.46265 0.49722 0.0
H466 H 0.48966 0.50588 0.40677 0.0
H467 H 0.49939 0.47454 0.36644 0.0
H468 H 0.46958 0.5222 0.46616 0.0
H469 H 0.48925 0.49023 0.52851 0.0
H470 H 0.51782 0.50644 0.58273 0.0
H471 H 0.52901 0.53681 0.62419 0.0
C472 C 0.51332 0.96442 0.58852 0.0
C473 C 0.52141 0.94262 0.57892 0.0
C474 C 0.51753 0.98106 0.56252 0.0
C475 C 0.53035 0.97632 0.52619 0.0
C476 C 0.53903 0.95453 0.51678 0.0
C477 C 0.53474 0.93785 0.54286 0.0
C478 C 0.53189 0.9933 0.49682 0.0
C479 C 0.53356 0.01494 0.50359 0.0
C480 C 0.53035 0.03197 0.47442 0.0
C481 C 0.54331 0.05337 0.48259 0.0
C482 C 0.5382 0.07014 0.45681 0.0
C483 C 0.51973 0.06588 0.42233 0.0
H484 H 0.50033 0.01176 0.43254 0.0
C485 C 0.50703 0.04448 0.41402 0.0
C486 C 0.51206 0.02775 0.43974 0.0
H487 H 0.49242 0.04067 0.38778 0.0
H488 H 0.50273 0.96865 0.61603 0.0
H489 H 0.50922 0.99742 0.5709 0.0
H490 H 0.54861 0.95033 0.48898 0.0
H491 H 0.54111 0.92121 0.53456 0.0
H492 H 0.53172 0.98755 0.46853 0.0
H493 H 0.53768 0.02066 0.53168 0.0
H494 H 0.5571 0.05718 0.50918 0.0
H495 H 0.54824 0.08646 0.46409 0.0
loop_
_geom_bond_atom_site_label_1
_geom_bond_atom_site_label_2
_geom_bond_distance
_geom_bond_site_symmetry_2
_ccdc_geom_bond_type
Co0 O1 2.216 . S
Co0 O2 2.091 . S
Co0 O4 2.004 . S
Co0 O10 2.021 1_455 S
Co0 O12 2.137 . S
Co0 O13 2.244 . S
O1 Co0 2.216 . S
O1 C8 1.247 . S
O2 Co0 2.091 . S
O2 C8 1.261 . S
C3 O12 1.247 . S
C3 O13 1.272 . S
O4 Co0 2.004 . S
O4 C9 1.259 . S
Co5 O6 2.061 . S
Co5 O11 2.052 1_455 S
Co5 O13 2.135 . S
O6 Co5 2.061 . S
O6 C9 1.235 . S
C7 O10 1.238 . S
C7 O11 1.241 . S
C8 O1 1.247 . S
C8 O2 1.261 . S
C9 O4 1.259 . S
C9 O6 1.235 . S
O10 Co0 2.021 1_655 S
O10 C7 1.238 . S
O11 Co5 2.052 1_655 S
O11 C7 1.241 . S
O12 Co0 2.137 . S
O12 C3 1.247 . S
O13 Co0 2.244 . S
O13 C3 1.272 . S
O13 Co5 2.135 . S
Co14 O15 2.216 . S
Co14 O16 2.091 . S
Co14 O18 2.004 . S
Co14 O24 2.021 . S
Co14 O26 2.137 1_455 S
Co14 O27 2.244 1_455 S
O15 Co14 2.216 . S
O15 C22 1.247 . S
O16 Co14 2.091 . S
O16 C22 1.261 . S
C17 O26 1.247 . S
C17 O27 1.272 . S
O18 Co14 2.004 . S
O18 C23 1.259 . S
Co19 O20 2.061 . S
Co19 O25 2.052 . S
Co19 O27 2.135 1_455 S
O20 Co19 2.061 . S
O20 C23 1.235 . S
C21 O24 1.238 . S
C21 O25 1.241 . S
C22 O15 1.247 . S
C22 O16 1.261 . S
C23 O18 1.259 . S
C23 O20 1.235 . S
O24 Co14 2.021 . S
O24 C21 1.238 . S
O25 Co19 2.052 . S
O25 C21 1.241 . S
O26 Co14 2.137 1_655 S
O26 C17 1.247 . S
O27 Co14 2.244 1_655 S
O27 C17 1.272 . S
O27 Co19 2.135 1_655 S
Co28 O29 2.216 . S
Co28 O30 2.091 . S
Co28 O32 2.004 . S
Co28 O38 2.021 1_455 S
Co28 O40 2.137 . S
Co28 O41 2.244 . S
O29 Co28 2.216 . S
O29 C36 1.247 . S
O30 Co28 2.091 . S
O30 C36 1.261 . S
C31 O40 1.247 . S
C31 O41 1.272 . S
O32 Co28 2.004 . S
O32 C37 1.259 . S
Co33 O34 2.061 . S
Co33 O39 2.052 1_455 S
Co33 O41 2.135 . S
O34 Co33 2.061 . S
O34 C37 1.235 . S
C35 O38 1.238 . S
C35 O39 1.241 . S
C36 O29 1.247 . S
C36 O30 1.261 . S
C37 O32 1.259 . S
C37 O34 1.235 . S
O38 Co28 2.021 1_655 S
O38 C35 1.238 . S
O39 Co33 2.052 1_655 S
O39 C35 1.241 . S
O40 Co28 2.137 . S
O40 C31 1.247 . S
O41 Co28 2.244 . S
O41 C31 1.272 . S
O41 Co33 2.135 . S
Co42 O43 2.216 . S
Co42 O44 2.091 . S
Co42 O46 2.004 . S
Co42 O52 2.021 . S
Co42 O54 2.137 1_455 S
Co42 O55 2.244 1_455 S
O43 Co42 2.216 . S
O43 C50 1.247 . S
O44 Co42 2.091 . S
O44 C50 1.261 . S
C45 O54 1.247 . S
C45 O55 1.272 . S
O46 Co42 2.004 . S
O46 C51 1.259 . S
Co47 O48 2.061 . S
Co47 O53 2.052 . S
Co47 O55 2.135 1_455 S
O48 Co47 2.061 . S
O48 C51 1.235 . S
C49 O52 1.238 . S
C49 O53 1.241 . S
C50 O43 1.247 . S
C50 O44 1.261 . S
C51 O46 1.259 . S
C51 O48 1.235 . S
O52 Co42 2.021 . S
O52 C49 1.238 . S
O53 Co47 2.052 . S
O53 C49 1.241 . S
O54 Co42 2.137 1_655 S
O54 C45 1.247 . S
O55 Co42 2.244 1_655 S
O55 C45 1.272 . S
O55 Co47 2.135 1_655 S
Co56 O57 2.216 . S
Co56 O58 2.091 . S
Co56 O60 2.004 . S
Co56 O66 2.021 . S
Co56 O68 2.137 . S
Co56 O69 2.244 . S
O57 Co56 2.216 . S
O57 C64 1.247 . S
O58 Co56 2.091 . S
O58 C64 1.261 . S
C59 O68 1.247 . S
C59 O69 1.272 . S
O60 Co56 2.004 . S
O60 C65 1.259 . S
Co61 O62 2.061 . S
Co61 O67 2.052 . S
Co61 O69 2.135 . S
O62 Co61 2.061 . S
O62 C65 1.235 . S
C63 O66 1.238 . S
C63 O67 1.241 . S
C64 O57 1.247 . S
C64 O58 1.261 . S
C65 O60 1.259 . S
C65 O62 1.235 . S
O66 Co56 2.021 . S
O66 C63 1.238 . S
O67 Co61 2.052 . S
O67 C63 1.241 . S
O68 Co56 2.137 . S
O68 C59 1.247 . S
O69 Co56 2.244 . S
O69 C59 1.272 . S
O69 Co61 2.135 . S
Co70 O71 2.216 . S
Co70 O72 2.091 . S
Co70 O74 2.004 . S
Co70 O80 2.021 . S
Co70 O82 2.137 . S
Co70 O83 2.244 . S
O71 Co70 2.216 . S
O71 C78 1.247 . S
O72 Co70 2.091 . S
O72 C78 1.261 . S
C73 O82 1.247 . S
C73 O83 1.272 . S
O74 Co70 2.004 . S
O74 C79 1.259 . S
Co75 O76 2.061 . S
Co75 O81 2.052 . S
Co75 O83 2.135 . S
O76 Co75 2.061 . S
O76 C79 1.235 . S
C77 O80 1.238 . S
C77 O81 1.241 . S
C78 O71 1.247 . S
C78 O72 1.261 . S
C79 O74 1.259 . S
C79 O76 1.235 . S
O80 Co70 2.021 . S
O80 C77 1.238 . S
O81 Co75 2.052 . S
O81 C77 1.241 . S
O82 Co70 2.137 . S
O82 C73 1.247 . S
O83 Co70 2.244 . S
O83 C73 1.272 . S
O83 Co75 2.135 . S
Co84 O85 2.216 . S
Co84 O86 2.091 . S
Co84 O88 2.004 . S
Co84 O94 2.021 . S
Co84 O96 2.137 . S
Co84 O97 2.244 . S
O85 Co84 2.216 . S
O85 C92 1.247 . S
O86 Co84 2.091 . S
O86 C92 1.261 . S
C87 O96 1.247 . S
C87 O97 1.272 . S
O88 Co84 2.004 . S
O88 C93 1.259 . S
Co89 O90 2.061 . S
Co89 O95 2.052 . S
Co89 O97 2.135 . S
O90 Co89 2.061 . S
O90 C93 1.235 . S
C91 O94 1.238 . S
C91 O95 1.241 . S
C92 O85 1.247 . S
C92 O86 1.261 . S
C93 O88 1.259 . S
C93 O90 1.235 . S
O94 Co84 2.021 . S
O94 C91 1.238 . S
O95 Co89 2.052 . S
O95 C91 1.241 . S
O96 Co84 2.137 . S
O96 C87 1.247 . S
O97 Co84 2.244 . S
O97 C87 1.272 . S
O97 Co89 2.135 . S
Co98 O99 2.216 . S
Co98 O100 2.091 . S
Co98 O102 2.004 . S
Co98 O108 2.021 . S
Co98 O110 2.137 . S
Co98 O111 2.244 . S
O99 Co98 2.216 . S
O99 C106 1.247 . S
O100 Co98 2.091 . S
O100 C106 1.261 . S
C101 O110 1.247 . S
C101 O111 1.272 . S
O102 Co98 2.004 . S
O102 C107 1.259 . S
Co103 O104 2.061 . S
Co103 O109 2.052 . S
Co103 O111 2.135 . S
O104 Co103 2.061 . S
O104 C107 1.235 . S
C105 O108 1.238 . S
C105 O109 1.241 . S
C106 O99 1.247 . S
C106 O100 1.261 . S
C107 O102 1.259 . S
C107 O104 1.235 . S
O108 Co98 2.021 . S
O108 C105 1.238 . S
O109 Co103 2.052 . S
O109 C105 1.241 . S
O110 Co98 2.137 . S
O110 C101 1.247 . S
O111 Co98 2.244 . S
O111 C101 1.272 . S
O111 Co103 2.135 . S
C112 C113 1.386 . S
C112 C114 1.383 . S
C112 H128 0.951 . S
C113 C112 1.386 . S
C113 C117 1.383 1_455 S
C114 C112 1.383 . S
C114 C115 1.402 . S
C114 H129 0.951 . S
C115 C114 1.402 . S
C115 C116 1.375 1_455 S
C115 C118 1.481 . S
C116 C115 1.375 1_655 S
C116 C117 1.367 . S
C116 H130 0.951 . S
C117 C113 1.383 1_655 S
C117 C116 1.367 . S
C117 H131 0.950 . S
C118 C115 1.481 . S
C118 C119 1.297 . S
C118 H132 0.950 1_455 S
C119 C118 1.297 . S
C119 C120 1.479 . S
C119 H133 0.950 . S
C120 C119 1.479 . S
C120 C121 1.375 . S
C120 C126 1.404 1_455 S
C121 C120 1.375 . S
C121 C122 1.369 . S
C121 H134 0.950 . S
C122 C121 1.369 . S
C122 C123 1.392 . S
C122 H135 0.951 . S
C123 C122 1.392 . S
C123 C125 1.384 1_455 S
H124 C126 0.949 . S
C125 C123 1.384 1_655 S
C125 C126 1.385 . S
C125 H127 0.950 . S
C126 C120 1.404 1_655 S
C126 H124 0.949 . S
C126 C125 1.385 . S
H127 C125 0.950 . S
H128 C112 0.951 . S
H129 C114 0.951 . S
H130 C116 0.951 . S
H131 C117 0.950 . S
H132 C118 0.950 1_655 S
H133 C119 0.950 . S
H134 C121 0.950 . S
H135 C122 0.951 . S
C136 C137 1.386 1_655 S
C136 C138 1.383 . S
C136 H152 0.951 . S
C137 C136 1.386 1_455 S
C137 C141 1.383 . S
C138 C136 1.383 . S
C138 C139 1.402 1_655 S
C138 H153 0.951 . S
C139 C138 1.402 1_455 S
C139 C140 1.375 . S
C139 C142 1.481 . S
C140 C139 1.375 . S
C140 C141 1.367 . S
C140 H154 0.951 . S
C141 C137 1.383 . S
C141 C140 1.367 . S
C141 H155 0.950 . S
C142 C139 1.481 . S
C142 C143 1.297 1_455 S
C142 H156 0.950 . S
C143 C142 1.297 1_655 S
C143 C144 1.479 . S
C143 H157 0.950 . S
C144 C143 1.479 . S
C144 C145 1.375 . S
C144 C150 1.404 1_655 S
C145 C144 1.375 . S
C145 C146 1.369 . S
C145 H158 0.950 . S
C146 C145 1.369 . S
C146 C147 1.392 1_655 S
C146 H159 0.951 . S
C147 C146 1.392 1_455 S
C147 C149 1.384 . S
H148 C150 0.949 . S
C149 C147 1.384 . S
C149 C150 1.385 . S
C149 H151 0.950 . S
C150 C144 1.404 1_455 S
C150 H148 0.949 . S
C150 C149 1.385 . S
H151 C149 0.950 . S
H152 C136 0.951 . S
H153 C138 0.951 . S
H154 C140 0.951 . S
H155 C141 0.950 . S
H156 C142 0.950 . S
H157 C143 0.950 . S
H158 C145 0.950 . S
H159 C146 0.951 . S
C160 C161 1.386 . S
C160 C162 1.383 . S
C160 H176 0.951 . S
C161 C160 1.386 . S
C161 C165 1.383 . S
C162 C160 1.383 . S
C162 C163 1.402 . S
C162 H177 0.951 . S
C163 C162 1.402 . S
C163 C164 1.375 . S
C163 C166 1.481 . S
C164 C163 1.375 . S
C164 C165 1.367 . S
C164 H178 0.951 . S
C165 C161 1.383 . S
C165 C164 1.367 . S
C165 H179 0.950 . S
C166 C163 1.481 . S
C166 C167 1.297 . S
C166 H180 0.950 . S
C167 C166 1.297 . S
C167 C168 1.479 . S
C167 H181 0.950 . S
C168 C167 1.479 . S
C168 C169 1.375 . S
C168 C174 1.404 . S
C169 C168 1.375 . S
C169 C170 1.369 . S
C169 H182 0.950 . S
C170 C169 1.369 . S
C170 C171 1.392 . S
C170 H183 0.951 . S
C171 C170 1.392 . S
C171 C173 1.384 . S
H172 C174 0.949 . S
C173 C171 1.384 . S
C173 C174 1.385 . S
C173 H175 0.950 . S
C174 C168 1.404 . S
C174 H172 0.949 . S
C174 C173 1.385 . S
H175 C173 0.950 . S
H176 C160 0.951 . S
H177 C162 0.951 . S
H178 C164 0.951 . S
H179 C165 0.950 . S
H180 C166 0.950 . S
H181 C167 0.950 . S
H182 C169 0.950 . S
H183 C170 0.951 . S
C184 C185 1.386 . S
C184 C186 1.383 . S
C184 H200 0.951 . S
C185 C184 1.386 . S
C185 C189 1.383 . S
C186 C184 1.383 . S
C186 C187 1.402 . S
C186 H201 0.951 . S
C187 C186 1.402 . S
C187 C188 1.375 . S
C187 C190 1.481 . S
C188 C187 1.375 . S
C188 C189 1.367 . S
C188 H202 0.951 . S
C189 C185 1.383 . S
C189 C188 1.367 . S
C189 H203 0.950 . S
C190 C187 1.481 . S
C190 C191 1.297 . S
C190 H204 0.950 . S
C191 C190 1.297 . S
C191 C192 1.479 . S
C191 H205 0.950 . S
C192 C191 1.479 . S
C192 C193 1.375 . S
C192 C198 1.404 . S
C193 C192 1.375 . S
C193 C194 1.369 . S
C193 H206 0.950 . S
C194 C193 1.369 . S
C194 C195 1.392 . S
C194 H207 0.951 . S
C195 C194 1.392 . S
C195 C197 1.384 . S
H196 C198 0.949 . S
C197 C195 1.384 . S
C197 C198 1.385 . S
C197 H199 0.950 . S
C198 C192 1.404 . S
C198 H196 0.949 . S
C198 C197 1.385 . S
H199 C197 0.950 . S
H200 C184 0.951 . S
H201 C186 0.951 . S
H202 C188 0.951 . S
H203 C189 0.950 . S
H204 C190 0.950 . S
H205 C191 0.950 . S
H206 C193 0.950 . S
H207 C194 0.951 . S
C208 C209 1.386 . S
C208 C210 1.383 . S
C208 H224 0.951 . S
C209 C208 1.386 . S
C209 C213 1.383 . S
C210 C208 1.383 . S
C210 C211 1.402 . S
C210 H225 0.951 . S
C211 C210 1.402 . S
C211 C212 1.375 . S
C211 C214 1.481 . S
C212 C211 1.375 . S
C212 C213 1.367 . S
C212 H226 0.951 . S
C213 C209 1.383 . S
C213 C212 1.367 . S
C213 H227 0.950 . S
C214 C211 1.481 . S
C214 C215 1.297 . S
C214 H228 0.950 . S
C215 C214 1.297 . S
C215 C216 1.479 . S
C215 H229 0.950 . S
C216 C215 1.479 . S
C216 C217 1.375 . S
C216 C222 1.404 . S
C217 C216 1.375 . S
C217 C218 1.369 . S
C217 H230 0.950 . S
C218 C217 1.369 . S
C218 C219 1.392 . S
C218 H231 0.951 . S
C219 C218 1.392 . S
C219 C221 1.384 . S
H220 C222 0.949 . S
C221 C219 1.384 . S
C221 C222 1.385 . S
C221 H223 0.950 . S
C222 C216 1.404 . S
C222 H220 0.949 . S
C222 C221 1.385 . S
H223 C221 0.950 . S
H224 C208 0.951 . S
H225 C210 0.951 . S
H226 C212 0.951 . S
H227 C213 0.950 . S
H228 C214 0.950 . S
H229 C215 0.950 . S
H230 C217 0.950 . S
H231 C218 0.951 . S
C232 C233 1.386 . S
C232 C234 1.383 . S
C232 H248 0.951 . S
C233 C232 1.386 . S
C233 C237 1.383 . S
C234 C232 1.383 . S
C234 C235 1.402 . S
C234 H249 0.951 . S
C235 C234 1.402 . S
C235 C236 1.375 . S
C235 C238 1.481 . S
C236 C235 1.375 . S
C236 C237 1.367 . S
C236 H250 0.951 . S
C237 C233 1.383 . S
C237 C236 1.367 . S
C237 H251 0.950 . S
C238 C235 1.481 . S
C238 C239 1.297 . S
C238 H252 0.950 . S
C239 C238 1.297 . S
C239 C240 1.479 . S
C239 H253 0.950 . S
C240 C239 1.479 . S
C240 C241 1.375 . S
C240 C246 1.404 . S
C241 C240 1.375 . S
C241 C242 1.369 . S
C241 H254 0.950 . S
C242 C241 1.369 . S
C242 C243 1.392 . S
C242 H255 0.951 . S
C243 C242 1.392 . S
C243 C245 1.384 . S
H244 C246 0.949 . S
C245 C243 1.384 . S
C245 C246 1.385 . S
C245 H247 0.950 . S
C246 C240 1.404 . S
C246 H244 0.949 . S
C246 C245 1.385 . S
H247 C245 0.950 . S
H248 C232 0.951 . S
H249 C234 0.951 . S
H250 C236 0.951 . S
H251 C237 0.950 . S
H252 C238 0.950 . S
H253 C239 0.950 . S
H254 C241 0.950 . S
H255 C242 0.951 . S
C256 C257 1.386 . S
C256 C258 1.383 . S
C256 H272 0.951 . S
C257 C256 1.386 . S
C257 C261 1.383 . S
C258 C256 1.383 . S
C258 C259 1.402 . S
C258 H273 0.951 . S
C259 C258 1.402 . S
C259 C260 1.375 . S
C259 C262 1.481 . S
C260 C259 1.375 . S
C260 C261 1.367 . S
C260 H274 0.951 . S
C261 C257 1.383 . S
C261 C260 1.367 . S
C261 H275 0.950 . S
C262 C259 1.481 . S
C262 C263 1.297 . S
C262 H276 0.950 . S
C263 C262 1.297 . S
C263 C264 1.479 . S
C263 H277 0.950 . S
C264 C263 1.479 . S
C264 C265 1.375 . S
C264 C270 1.404 . S
C265 C264 1.375 . S
C265 C266 1.369 . S
C265 H278 0.950 . S
C266 C265 1.369 . S
C266 C267 1.392 . S
C266 H279 0.951 . S
C267 C266 1.392 . S
C267 C269 1.384 . S
H268 C270 0.949 . S
C269 C267 1.384 . S
C269 C270 1.385 . S
C269 H271 0.950 . S
C270 C264 1.404 . S
C270 H268 0.949 . S
C270 C269 1.385 . S
H271 C269 0.950 . S
H272 C256 0.951 . S
H273 C258 0.951 . S
H274 C260 0.951 . S
H275 C261 0.950 . S
H276 C262 0.950 . S
H277 C263 0.950 . S
H278 C265 0.950 . S
H279 C266 0.951 . S
C280 C281 1.386 . S
C280 C282 1.383 . S
C280 H296 0.951 . S
C281 C280 1.386 . S
C281 C285 1.383 . S
C282 C280 1.383 . S
C282 C283 1.402 . S
C282 H297 0.951 . S
C283 C282 1.402 . S
C283 C284 1.375 . S
C283 C286 1.481 . S
C284 C283 1.375 . S
C284 C285 1.367 . S
C284 H298 0.951 . S
C285 C281 1.383 . S
C285 C284 1.367 . S
C285 H299 0.950 . S
C286 C283 1.481 . S
C286 C287 1.297 . S
C286 H300 0.950 . S
C287 C286 1.297 . S
C287 C288 1.479 . S
C287 H301 0.950 . S
C288 C287 1.479 . S
C288 C289 1.375 . S
C288 C294 1.404 . S
C289 C288 1.375 . S
C289 C290 1.369 . S
C289 H302 0.950 . S
C290 C289 1.369 . S
C290 C291 1.392 . S
C290 H303 0.951 . S
C291 C290 1.392 . S
C291 C293 1.384 . S
H292 C294 0.949 . S
C293 C291 1.384 . S
C293 C294 1.385 . S
C293 H295 0.950 . S
C294 C288 1.404 . S
C294 H292 0.949 . S
C294 C293 1.385 . S
H295 C293 0.950 . S
H296 C280 0.951 . S
H297 C282 0.951 . S
H298 C284 0.951 . S
H299 C285 0.950 . S
H300 C286 0.950 . S
H301 C287 0.950 . S
H302 C289 0.950 . S
H303 C290 0.951 . S
C304 C305 1.386 . S
C304 C306 1.383 . S
C304 H320 0.951 . S
C305 C304 1.386 . S
C305 C309 1.383 . S
C306 C304 1.383 . S
C306 C307 1.402 . S
C306 H321 0.951 . S
C307 C306 1.402 . S
C307 C308 1.375 . S
C307 C310 1.481 . S
C308 C307 1.375 . S
C308 C309 1.367 . S
C308 H322 0.951 . S
C309 C305 1.383 . S
C309 C308 1.367 . S
C309 H323 0.950 . S
C310 C307 1.481 . S
C310 C311 1.297 . S
C310 H324 0.950 . S
C311 C310 1.297 . S
C311 C312 1.479 . S
C311 H325 0.950 . S
C312 C311 1.479 . S
C312 C313 1.375 . S
C312 C318 1.404 . S
C313 C312 1.375 . S
C313 C314 1.369 . S
C313 H326 0.950 . S
C314 C313 1.369 . S
C314 C315 1.392 . S
C314 H327 0.951 . S
C315 C314 1.392 . S
C315 C317 1.384 . S
H316 C318 0.949 . S
C317 C315 1.384 . S
C317 C318 1.385 . S
C317 H319 0.950 . S
C318 C312 1.404 . S
C318 H316 0.949 . S
C318 C317 1.385 . S
H319 C317 0.950 . S
H320 C304 0.951 . S
H321 C306 0.951 . S
H322 C308 0.951 . S
H323 C309 0.950 . S
H324 C310 0.950 . S
H325 C311 0.950 . S
H326 C313 0.950 . S
H327 C314 0.951 . S
C328 C329 1.386 . S
C328 C330 1.383 . S
C328 H344 0.951 . S
C329 C328 1.386 . S
C329 C333 1.383 . S
C330 C328 1.383 . S
C330 C331 1.402 . S
C330 H345 0.951 . S
C331 C330 1.402 . S
C331 C332 1.375 . S
C331 C334 1.481 . S
C332 C331 1.375 . S
C332 C333 1.367 . S
C332 H346 0.951 . S
C333 C329 1.383 . S
C333 C332 1.367 . S
C333 H347 0.950 . S
C334 C331 1.481 . S
C334 C335 1.297 . S
C334 H348 0.950 . S
C335 C334 1.297 . S
C335 C336 1.479 . S
C335 H349 0.950 . S
C336 C335 1.479 . S
C336 C337 1.375 . S
C336 C342 1.404 . S
C337 C336 1.375 . S
C337 C338 1.369 . S
C337 H350 0.950 . S
C338 C337 1.369 . S
C338 C339 1.392 . S
C338 H351 0.951 . S
C339 C338 1.392 . S
C339 C341 1.384 . S
H340 C342 0.949 . S
C341 C339 1.384 . S
C341 C342 1.385 . S
C341 H343 0.950 . S
C342 C336 1.404 . S
C342 H340 0.949 . S
C342 C341 1.385 . S
H343 C341 0.950 . S
H344 C328 0.951 . S
H345 C330 0.951 . S
H346 C332 0.951 . S
H347 C333 0.950 . S
H348 C334 0.950 . S
H349 C335 0.950 . S
H350 C337 0.950 . S
H351 C338 0.951 . S
C352 C353 1.386 . S
C352 C354 1.383 . S
C352 H368 0.951 . S
C353 C352 1.386 . S
C353 C357 1.383 . S
C354 C352 1.383 . S
C354 C355 1.402 . S
C354 H369 0.951 . S
C355 C354 1.402 . S
C355 C356 1.375 . S
C355 C358 1.481 . S
C356 C355 1.375 . S
C356 C357 1.367 . S
C356 H370 0.951 . S
C357 C353 1.383 . S
C357 C356 1.367 . S
C357 H371 0.950 . S
C358 C355 1.481 . S
C358 C359 1.297 . S
C358 H372 0.950 . S
C359 C358 1.297 . S
C359 C360 1.479 . S
C359 H373 0.950 . S
C360 C359 1.479 . S
C360 C361 1.375 . S
C360 C366 1.404 . S
C361 C360 1.375 . S
C361 C362 1.369 . S
C361 H374 0.950 . S
C362 C361 1.369 . S
C362 C363 1.392 . S
C362 H375 0.951 . S
C363 C362 1.392 . S
C363 C365 1.384 . S
H364 C366 0.949 . S
C365 C363 1.384 . S
C365 C366 1.385 . S
C365 H367 0.950 . S
C366 C360 1.404 . S
C366 H364 0.949 . S
C366 C365 1.385 . S
H367 C365 0.950 . S
H368 C352 0.951 . S
H369 C354 0.951 . S
H370 C356 0.951 . S
H371 C357 0.950 . S
H372 C358 0.950 . S
H373 C359 0.950 . S
H374 C361 0.950 . S
H375 C362 0.951 . S
C376 C377 1.386 . S
C376 C378 1.383 . S
C376 H392 0.951 . S
C377 C376 1.386 . S
C377 C381 1.383 . S
C378 C376 1.383 . S
C378 C379 1.402 . S
C378 H393 0.951 . S
C379 C378 1.402 . S
C379 C380 1.375 . S
C379 C382 1.481 . S
C380 C379 1.375 . S
C380 C381 1.367 . S
C380 H394 0.951 . S
C381 C377 1.383 . S
C381 C380 1.367 . S
C381 H395 0.950 . S
C382 C379 1.481 . S
C382 C383 1.297 . S
C382 H396 0.950 . S
C383 C382 1.297 . S
C383 C384 1.479 . S
C383 H397 0.950 . S
C384 C383 1.479 . S
C384 C385 1.375 . S
C384 C390 1.404 . S
C385 C384 1.375 . S
C385 C386 1.369 . S
C385 H398 0.950 . S
C386 C385 1.369 . S
C386 C387 1.392 . S
C386 H399 0.951 . S
C387 C386 1.392 . S
C387 C389 1.384 . S
H388 C390 0.949 . S
C389 C387 1.384 . S
C389 C390 1.385 . S
C389 H391 0.950 . S
C390 C384 1.404 . S
C390 H388 0.949 . S
C390 C389 1.385 . S
H391 C389 0.950 . S
H392 C376 0.951 . S
H393 C378 0.951 . S
H394 C380 0.951 . S
H395 C381 0.950 . S
H396 C382 0.950 . S
H397 C383 0.950 . S
H398 C385 0.950 . S
H399 C386 0.951 . S
C400 C401 1.386 . S
C400 C402 1.383 . S
C400 H416 0.951 . S
C401 C400 1.386 . S
C401 C405 1.383 1_455 S
C402 C400 1.383 . S
C402 C403 1.398 1_455 S
C402 H417 0.951 . S
C403 C402 1.398 1_655 S
C403 C404 1.379 . S
C403 C406 1.481 1_545 S
C404 C403 1.379 . S
C404 C405 1.367 . S
C404 H418 0.951 . S
C405 C401 1.383 1_655 S
C405 C404 1.367 . S
C405 H419 0.950 . S
C406 C403 1.481 1_565 S
C406 C407 1.313 1_655 S
C406 H420 0.950 . S
C407 C406 1.313 1_455 S
C407 C408 1.463 1_554 S
C407 H421 0.952 . S
C408 C407 1.463 1_556 S
C408 C409 1.375 . S
C408 C414 1.404 1_455 S
C409 C408 1.375 . S
C409 C410 1.369 . S
C409 H422 0.950 . S
C410 C409 1.369 . S
C410 C411 1.392 . S
C410 H423 0.951 . S
C411 C410 1.392 . S
C411 C413 1.384 1_455 S
H412 C414 0.949 . S
C413 C411 1.384 1_655 S
C413 C414 1.385 . S
C413 H415 0.950 . S
C414 C408 1.404 1_655 S
C414 H412 0.949 . S
C414 C413 1.385 . S
H415 C413 0.950 . S
H416 C400 0.951 . S
H417 C402 0.951 . S
H418 C404 0.951 . S
H419 C405 0.950 . S
H420 C406 0.950 . S
H421 C407 0.952 . S
H422 C409 0.950 . S
H423 C410 0.951 . S
C424 C425 1.386 . S
C424 C426 1.383 . S
C424 H440 0.951 . S
C425 C424 1.386 . S
C425 C429 1.383 . S
C426 C424 1.383 . S
C426 C427 1.402 . S
C426 H441 0.951 . S
C427 C426 1.402 . S
C427 C428 1.375 . S
C427 C430 1.481 1_556 S
C428 C427 1.375 . S
C428 C429 1.367 . S
C428 H442 0.951 1_456 S
C429 C425 1.383 . S
C429 C428 1.367 . S
C429 H443 0.950 1_455 S
C430 C427 1.481 1_554 S
C430 C431 1.297 . S
C430 H444 0.950 . S
C431 C430 1.297 . S
C431 C432 1.479 . S
C431 H445 0.950 1_554 S
C432 C431 1.479 . S
C432 C433 1.375 . S
C432 C438 1.404 . S
C433 C432 1.375 . S
C433 C434 1.369 . S
C433 H446 0.953 1_554 S
C434 C433 1.369 . S
C434 C435 1.392 . S
C434 H447 0.951 . S
C435 C434 1.392 . S
C435 C437 1.384 . S
H436 C438 0.949 . S
C437 C435 1.384 . S
C437 C438 1.385 . S
C437 H439 0.950 . S
C438 C432 1.404 . S
C438 H436 0.949 . S
C438 C437 1.385 . S
H439 C437 0.950 . S
H440 C424 0.951 . S
H441 C426 0.951 . S
H442 C428 0.951 1_654 S
H443 C429 0.950 1_655 S
H444 C430 0.950 . S
H445 C431 0.950 1_556 S
H446 C433 0.953 1_556 S
H447 C434 0.951 . S
C448 C449 1.386 . S
C448 C450 1.383 . S
C448 H464 0.951 . S
C449 C448 1.386 . S
C449 C453 1.383 . S
C450 C448 1.383 . S
C450 C451 1.402 . S
C450 H465 0.951 . S
C451 C450 1.402 . S
C451 C452 1.375 . S
C451 C454 1.481 . S
C452 C451 1.375 . S
C452 C453 1.367 . S
C452 H466 0.951 . S
C453 C449 1.383 . S
C453 C452 1.367 . S
C453 H467 0.950 . S
C454 C451 1.481 . S
C454 C455 1.297 . S
C454 H468 0.950 . S
C455 C454 1.297 . S
C455 C456 1.479 . S
C455 H469 0.950 . S
C456 C455 1.479 . S
C456 C457 1.375 . S
C456 C462 1.404 . S
C457 C456 1.375 . S
C457 C458 1.369 . S
C457 H470 0.950 . S
C458 C457 1.369 . S
C458 C459 1.392 . S
C458 H471 0.951 . S
C459 C458 1.392 . S
C459 C461 1.384 . S
H460 C462 0.949 . S
C461 C459 1.384 . S
C461 C462 1.385 . S
C461 H463 0.950 . S
C462 C456 1.404 . S
C462 H460 0.949 . S
C462 C461 1.385 . S
H463 C461 0.950 . S
H464 C448 0.951 . S
H465 C450 0.951 . S
H466 C452 0.951 . S
H467 C453 0.950 . S
H468 C454 0.950 . S
H469 C455 0.950 . S
H470 C457 0.950 . S
H471 C458 0.951 . S
C472 C473 1.386 . S
C472 C474 1.383 . S
C472 H488 0.951 . S
C473 C472 1.386 . S
C473 C477 1.383 . S
C474 C472 1.383 . S
C474 C475 1.402 . S
C474 H489 0.951 . S
C475 C474 1.402 . S
C475 C476 1.375 . S
C475 C478 1.481 . S
C476 C475 1.375 . S
C476 C477 1.367 . S
C476 H490 0.951 . S
C477 C473 1.383 . S
C477 C476 1.367 . S
C477 H491 0.950 . S
C478 C475 1.481 . S
C478 C479 1.297 1_565 S
C478 H492 0.950 . S
C479 C478 1.297 1_545 S
C479 C480 1.479 . S
C479 H493 0.950 . S
C480 C479 1.479 . S
C480 C481 1.375 . S
C480 C486 1.404 . S
C481 C480 1.375 . S
C481 C482 1.369 . S
C481 H494 0.950 . S
C482 C481 1.369 . S
C482 C483 1.392 . S
C482 H495 0.951 . S
C483 C482 1.392 . S
C483 C485 1.384 . S
H484 C486 0.949 . S
C485 C483 1.384 . S
C485 C486 1.385 . S
C485 H487 0.950 . S
C486 C480 1.404 . S
C486 H484 0.949 . S
C486 C485 1.385 . S
H487 C485 0.950 . S
H488 C472 0.951 . S
H489 C474 0.951 . S
H490 C476 0.951 . S
H491 C477 0.950 . S
H492 C478 0.950 . S
H493 C479 0.950 . S
H494 C481 0.950 . S
H495 C482 0.951 . S
C113 C23 1.378 . S
C123 C9 1.361 . S
C137 C37 1.378 . S
C147 C51 1.368 . S
C161 C65 1.390 . S
C171 C79 1.404 . S
C185 C93 1.421 . S
C195 C107 1.418 . S
C209 C101 1.418 . S
C219 C3 1.433 . S
C233 C87 1.422 . S
C243 C17 1.427 . S
C257 C31 1.420 . S
C267 C73 1.428 . S
C281 C59 1.415 . S
C291 C45 1.438 . S
C305 C77 1.314 . S
C315 C35 1.356 . S
C329 C63 1.346 . S
C339 C49 1.294 . S
C353 C105 1.330 . S
C363 C7 1.315 . S
C377 C21 1.318 . S
C387 C91 1.340 . S
C401 C8 1.351 . S
C411 C36 1.333 . S
C425 C50 1.347 . S
C435 C22 1.349 . S
C449 C92 1.351 . S
C459 C64 1.333 . S
C473 C78 1.347 . S
C483 C106 1.349 . S
