# Generated by pormake.
# Topology umx, (4)-cn, num edge types: 1
# Building blocks:
#     Node 0, Type 0, BuildingBlock: ICAMEG_clean_sbu_1, # of connection points: 4
#     Node 1, Type 0, BuildingBlock: ICAMEG_clean_sbu_1, # of connection points: 4
#     Node 2, Type 0, BuildingBlock: ICAMEG_clean_sbu_1, # of connection points: 4
#     Node 3, Type 0, BuildingBlock: ICAMEG_clean_sbu_1, # of connection points: 4
#     Node 4, Type 0, BuildingBlock: ICAMEG_clean_sbu_1, # of connection points: 4
#     Node 5, Type 0, BuildingBlock: ICAMEG_clean_sbu_1, # of connection points: 4
#     Node 6, Type 0, BuildingBlock: ICAMEG_clean_sbu_1, # of connection points: 4
#     Node 7, Type 0, BuildingBlock: ICAMEG_clean_sbu_1, # of connection points: 4
#     Edge 8, Type (0, 0), BuildingBlock: AJUNOK_clean_linker_0, # of connection points: 2
#     Edge 9, Type (0, 0), BuildingBlock: AJUNOK_clean_linker_0, # of connection points: 2
#     Edge 10, Type (0, 0), BuildingBlock: AJUNOK_clean_linker_0, # of connection points: 2
#     Edge 11, Type (0, 0), BuildingBlock: AJUNOK_clean_linker_0, # of connection points: 2
#     Edge 12, Type (0, 0), BuildingBlock: AJUNOK_clean_linker_0, # of connection points: 2
#     Edge 13, Type (0, 0), BuildingBlock: AJUNOK_clean_linker_0, # of connection points: 2
#     Edge 14, Type (0, 0), BuildingBlock: AJUNOK_clean_linker_0, # of connection points: 2
#     Edge 15, Type (0, 0), BuildingBlock: AJUNOK_clean_linker_0, # of connection points: 2
#     Edge 16, Type (0, 0), BuildingBlock: AJUNOK_clean_linker_0, # of connection points: 2
#     Edge 17, Type (0, 0), BuildingBlock: AJUNOK_clean_linker_0, # of connection points: 2
#     Edge 18, Type (0, 0), BuildingBlock: AJUNOK_clean_linker_0, # of connection points: 2
#     Edge 19, Type (0, 0), BuildingBlock: AJUNOK_clean_linker_0, # of connection points: 2
#     Edge 20, Type (0, 0), BuildingBlock: AJUNOK_clean_linker_0, # of connection points: 2
#     Edge 21, Type (0, 0), BuildingBlock: AJUNOK_clean_linker_0, # of connection points: 2
#     Edge 22, Type (0, 0), BuildingBlock: AJUNOK_clean_linker_0, # of connection points: 2
#     Edge 23, Type (0, 0), BuildingBlock: AJUNOK_clean_linker_0, # of connection points: 2
# Relax obj value: 0.036
# Max RMSD: 0.110
# Mean RMSD: 0.110
data_MOF--net-umx--node1-ICAMEG_clean_sbu_1--edge1-AJUNOK_clean_linker_0
_symmetry_space_group_name_H-M    P1
_symmetry_Int_Tables_number       1
_symmetry_cell_setting            triclinic
loop_
_symmetry_equiv_pos_as_xyz
'x, y, z'
_cell_length_a     31.123006
_cell_length_b     31.127881
_cell_length_c     22.583985
_cell_angle_alpha  89.964865
_cell_angle_beta   89.974221
_cell_angle_gamma 89.997706
loop_
_atom_site_label
_atom_site_type_symbol
_atom_site_fract_x
_atom_site_fract_y
_atom_site_fract_z
_atom_type_partial_charge
Co0 Co 0.18489 0.51145 0.0323 0.0
Co1 Co 0.16591 0.40762 0.08129 0.0
O2 O 0.19127 0.44906 0.02642 0.0
C3 C 0.15473 0.48973 0.91198 0.0
O4 O 0.13382 0.45755 0.93607 0.0
C5 C 0.25953 0.38587 0.07523 0.0
O6 O 0.2683 0.42699 0.07943 0.0
O7 O 0.18653 0.44125 0.15126 0.0
O8 O 0.19224 0.50953 0.12036 0.0
H9 H 0.07949 0.36351 0.25908 0.0
H10 H 0.24809 0.47469 0.94819 0.0
O11 O 0.17686 0.51503 0.94416 0.0
H12 H 0.33313 0.56354 0.08566 0.0
H13 H 0.20956 0.66381 0.96549 0.0
H14 H 0.13845 0.57079 0.11267 0.0
H15 H 0.25437 0.55892 0.09575 0.0
H16 H 0.21753 0.58503 0.96065 0.0
O17 O 0.22072 0.37315 0.07979 0.0
H18 H 0.11058 0.41466 0.18743 0.0
H19 H 0.1695 0.31194 0.094 0.0
H20 H 0.12984 0.64939 0.11945 0.0
H21 H 0.32675 0.47871 0.93611 0.0
H22 H 0.16561 0.69649 0.0455 0.0
H23 H 0.36984 0.5232 1.00536 0.0
O24 O 0.12163 0.50623 0.04264 0.0
H25 H 0.18154 0.33789 0.88168 0.0
H26 H 0.08505 0.36081 0.05163 0.0
H27 H 0.05924 0.31926 0.96581 0.0
H28 H 0.10784 0.30733 0.88006 0.0
H29 H 0.20515 0.38086 0.96727 0.0
H30 H 0.13947 0.25976 0.16501 0.0
H31 H 0.09391 0.28544 0.2481 0.0
O32 O 0.10981 0.44049 0.08131 0.0
C33 C 0.19306 0.48115 0.16116 0.0
C34 C 0.09915 0.35191 0.22292 0.0
C35 C 0.1329 0.29369 0.1702 0.0
N36 N 0.14151 0.3663 0.13627 0.0
C37 C 0.1167 0.3807 0.18207 0.0
C38 C 0.14996 0.32342 0.13025 0.0
C39 C 0.10731 0.30812 0.21678 0.0
C40 C 0.26656 0.49455 0.97805 0.0
N41 N 0.24663 0.51663 0.02255 0.0
C42 C 0.31111 0.49655 0.97115 0.0
C43 C 0.33528 0.52145 0.01009 0.0
C44 C 0.31471 0.54403 0.05521 0.0
C45 C 0.2701 0.5412 0.06084 0.0
C46 C 0.19391 0.64364 0.99805 0.0
C47 C 0.15423 0.59108 0.08047 0.0
C48 C 0.19825 0.59902 0.99549 0.0
N49 N 0.1788 0.57338 0.0367 0.0
C50 C 0.14917 0.63556 0.08446 0.0
C51 C 0.16924 0.66196 0.04296 0.0
C52 C 0.09678 0.47753 0.06404 0.0
C53 C 0.1599 0.34321 0.91848 0.0
C54 C 0.10572 0.35701 0.01371 0.0
C55 C 0.09124 0.33288 0.96557 0.0
C56 C 0.11856 0.32607 0.9176 0.0
N57 N 0.14601 0.37437 0.01387 0.0
C58 C 0.17309 0.36753 0.96714 0.0
Co59 Co 0.50395 0.18426 0.53698 0.0
Co60 Co 0.60697 0.16261 0.58679 0.0
O61 O 0.56659 0.18905 0.53136 0.0
C62 C 0.52548 0.15504 0.41589 0.0
O63 O 0.55809 0.13415 0.43881 0.0
C64 C 0.63282 0.25499 0.5771 0.0
O65 O 0.59227 0.26614 0.58155 0.0
O66 O 0.57403 0.18551 0.65594 0.0
O67 O 0.50575 0.19111 0.62519 0.0
H68 H 0.64591 0.07741 0.76784 0.0
H69 H 0.54227 0.24716 0.4537 0.0
O70 O 0.50044 0.17689 0.44883 0.0
H71 H 0.45456 0.33316 0.59157 0.0
H72 H 0.35247 0.21287 0.4695 0.0
H73 H 0.44324 0.13832 0.61601 0.0
H74 H 0.45796 0.25433 0.60124 0.0
H75 H 0.43141 0.21934 0.46557 0.0
O76 O 0.64361 0.21582 0.5841 0.0
H77 H 0.59681 0.10954 0.69445 0.0
H78 H 0.70285 0.16132 0.60009 0.0
H79 H 0.36442 0.13129 0.62199 0.0
H80 H 0.53944 0.3259 0.442 0.0
H81 H 0.31846 0.16877 0.54836 0.0
H82 H 0.49547 0.36946 0.51141 0.0
O83 O 0.50753 0.12084 0.54624 0.0
H84 H 0.67611 0.17259 0.38601 0.0
H85 H 0.65102 0.07966 0.55939 0.0
H86 H 0.69244 0.05167 0.47466 0.0
H87 H 0.7052 0.09829 0.38709 0.0
H88 H 0.63462 0.19907 0.4714 0.0
H89 H 0.75309 0.13025 0.67275 0.0
H90 H 0.72468 0.08772 0.75725 0.0
O91 O 0.57222 0.10781 0.5874 0.0
C92 C 0.53422 0.19252 0.66582 0.0
C93 C 0.6587 0.09576 0.73111 0.0
C94 C 0.71883 0.12551 0.67784 0.0
N95 N 0.64693 0.13712 0.64278 0.0
C96 C 0.63106 0.11391 0.68929 0.0
C97 C 0.69021 0.14326 0.63696 0.0
C98 C 0.70288 0.10161 0.7252 0.0
C99 C 0.5227 0.26585 0.48368 0.0
N100 N 0.50024 0.24614 0.52803 0.0
C101 C 0.52138 0.31045 0.47701 0.0
C102 C 0.49677 0.33487 0.51604 0.0
C103 C 0.47385 0.31453 0.56107 0.0
C104 C 0.47602 0.26988 0.56647 0.0
C105 C 0.37213 0.19652 0.50198 0.0
C106 C 0.42344 0.15492 0.58405 0.0
C107 C 0.41685 0.20003 0.49994 0.0
N108 N 0.44187 0.17962 0.54097 0.0
C109 C 0.37883 0.15073 0.58755 0.0
C110 C 0.35307 0.17175 0.54621 0.0
C111 C 0.53537 0.09556 0.56859 0.0
C112 C 0.67059 0.15187 0.42375 0.0
C113 C 0.65595 0.09991 0.52114 0.0
C114 C 0.67969 0.08401 0.47345 0.0
C115 C 0.6869 0.11019 0.42439 0.0
N116 N 0.63968 0.14065 0.52002 0.0
C117 C 0.64707 0.16667 0.47229 0.0
Co118 Co 0.82454 0.50077 0.03427 0.0
Co119 Co 0.85302 0.60262 0.08005 0.0
O120 O 0.82381 0.56329 0.02624 0.0
C121 C 0.85466 0.5187 0.91342 0.0
O122 O 0.87888 0.54866 0.93695 0.0
C123 C 0.76242 0.6332 0.07301 0.0
O124 O 0.7501 0.59355 0.08328 0.0
O125 O 0.8272 0.57348 0.15005 0.0
O126 O 0.81895 0.50472 0.12254 0.0
H127 H 0.93874 0.64164 0.26053 0.0
H128 H 0.76303 0.54163 0.95135 0.0
O129 O 0.83069 0.49545 0.94609 0.0
H130 H 0.67366 0.46203 0.09456 0.0
H131 H 0.78668 0.35016 0.9722 0.0
H132 H 0.86583 0.43884 0.11639 0.0
H133 H 0.75272 0.46054 0.10201 0.0
H134 H 0.7853 0.42925 0.96524 0.0
O135 O 0.80229 0.64263 0.07472 0.0
H136 H 0.90362 0.5923 0.19014 0.0
H137 H 0.86205 0.69802 0.08597 0.0
H138 H 0.86779 0.35991 0.12534 0.0
H139 H 0.68409 0.54377 0.94203 0.0
H140 H 0.82804 0.31499 0.05283 0.0
H141 H 0.63885 0.50385 0.01409 0.0
O142 O 0.88805 0.50066 0.04195 0.0
H143 H 0.84963 0.67648 0.88205 0.0
H144 H 0.94169 0.63074 0.04799 0.0
H145 H 0.97412 0.66842 0.96301 0.0
H146 H 0.92786 0.69201 0.87948 0.0
H147 H 0.81897 0.63658 0.96629 0.0
H148 H 0.89647 0.74855 0.15538 0.0
H149 H 0.93528 0.72039 0.24333 0.0
O150 O 0.90483 0.56366 0.08456 0.0
C151 C 0.8187 0.53428 0.16172 0.0
C152 C 0.92205 0.6543 0.22227 0.0
C153 C 0.89826 0.7143 0.16331 0.0
N154 N 0.88105 0.64226 0.13381 0.0
C155 C 0.90221 0.62652 0.18217 0.0
C156 C 0.87873 0.68555 0.12423 0.0
C157 C 0.92005 0.69848 0.21263 0.0
C158 C 0.74356 0.52382 0.9825 0.0
N159 N 0.76245 0.50082 0.02697 0.0
C160 C 0.69888 0.52531 0.97716 0.0
C161 C 0.67352 0.50297 0.01767 0.0
C162 C 0.69303 0.47952 0.06287 0.0
C163 C 0.73781 0.47886 0.06693 0.0
C164 C 0.80406 0.36938 1.00413 0.0
C165 C 0.84813 0.41953 0.08502 0.0
C166 C 0.80347 0.41417 1.00033 0.0
N167 N 0.8252 0.43863 0.04065 0.0
C168 C 0.8495 0.37484 0.09015 0.0
C169 C 0.82725 0.34967 0.0494 0.0
C170 C 0.91504 0.52626 0.06559 0.0
C171 C 0.87015 0.66623 0.91806 0.0
C172 C 0.92154 0.63992 0.01122 0.0
C173 C 0.94002 0.66164 0.96344 0.0
C174 C 0.91404 0.67494 0.91665 0.0
N175 N 0.87847 0.63137 0.01222 0.0
C176 C 0.85291 0.64384 0.96611 0.0
Co177 Co 0.51499 0.82393 0.53439 0.0
Co178 Co 0.41301 0.85049 0.58181 0.0
O179 O 0.45241 0.82175 0.52747 0.0
C180 C 0.49582 0.85396 0.41398 0.0
O181 O 0.46564 0.87756 0.43818 0.0
C182 C 0.38356 0.75934 0.57489 0.0
O183 O 0.42382 0.74764 0.58121 0.0
O184 O 0.44312 0.8252 0.65126 0.0
O185 O 0.51195 0.81882 0.62293 0.0
H186 H 0.37387 0.93482 0.76354 0.0
H187 H 0.4754 0.76114 0.45228 0.0
O188 O 0.51946 0.82996 0.44608 0.0
H189 H 0.55776 0.67434 0.59543 0.0
H190 H 0.66599 0.78941 0.47024 0.0
H191 H 0.57646 0.86836 0.61381 0.0
H192 H 0.55721 0.75343 0.60237 0.0
H193 H 0.58689 0.7855 0.46518 0.0
O194 O 0.3736 0.79909 0.57755 0.0
H195 H 0.42329 0.90055 0.6924 0.0
H196 H 0.31764 0.85936 0.588 0.0
H197 H 0.65541 0.87297 0.62075 0.0
H198 H 0.47532 0.68215 0.44342 0.0
H199 H 0.70074 0.83331 0.54858 0.0
H200 H 0.51663 0.63821 0.51546 0.0
O201 O 0.51362 0.88724 0.54139 0.0
H202 H 0.33839 0.84619 0.38446 0.0
H203 H 0.38467 0.93904 0.54928 0.0
H204 H 0.34683 0.97105 0.46419 0.0
H205 H 0.32306 0.92444 0.38118 0.0
H206 H 0.37803 0.8158 0.46909 0.0
H207 H 0.267 0.89289 0.65818 0.0
H208 H 0.29509 0.93107 0.74664 0.0
O209 O 0.45113 0.90293 0.58589 0.0
C210 C 0.48265 0.81804 0.66255 0.0
C211 C 0.36123 0.91835 0.7251 0.0
C212 C 0.30125 0.89475 0.66603 0.0
N213 N 0.37334 0.87805 0.63606 0.0
C214 C 0.38906 0.89897 0.68461 0.0
C215 C 0.33005 0.87569 0.62654 0.0
C216 C 0.31704 0.91619 0.71563 0.0
C217 C 0.49381 0.74224 0.4834 0.0
N218 N 0.51642 0.76185 0.52762 0.0
C219 C 0.49349 0.69753 0.47833 0.0
C220 C 0.51661 0.67289 0.51884 0.0
C221 C 0.53966 0.69314 0.56376 0.0
C222 C 0.53914 0.73793 0.56756 0.0
C223 C 0.64659 0.80672 0.50207 0.0
C224 C 0.59598 0.85067 0.58262 0.0
C225 C 0.6018 0.80464 0.4994 0.0
N226 N 0.57712 0.82626 0.53961 0.0
C227 C 0.64066 0.85356 0.5866 0.0
C228 C 0.66607 0.83135 0.54604 0.0
C229 C 0.48794 0.91383 0.56555 0.0
C230 C 0.34859 0.86683 0.42035 0.0
C231 C 0.37514 0.91864 0.5129 0.0
C232 C 0.35343 0.93691 0.46501 0.0
C233 C 0.34003 0.91074 0.41851 0.0
N234 N 0.38351 0.87553 0.51434 0.0
C235 C 0.37084 0.84975 0.46861 0.0
Co236 Co 0.18314 0.50158 0.53639 0.0
Co237 Co 0.16216 0.60626 0.49264 0.0
O238 O 0.1886 0.564 0.54538 0.0
C239 C 0.15349 0.5197 0.65808 0.0
O240 O 0.13238 0.55254 0.63618 0.0
C241 C 0.25502 0.63184 0.50203 0.0
O242 O 0.26625 0.59138 0.49652 0.0
O243 O 0.18423 0.5751 0.42147 0.0
O244 O 0.18975 0.50592 0.44841 0.0
H245 H 0.07681 0.65106 0.3144 0.0
H246 H 0.24662 0.53654 0.62153 0.0
O247 O 0.17585 0.49567 0.62435 0.0
H248 H 0.33137 0.45258 0.47785 0.0
H249 H 0.20974 0.34809 0.59631 0.0
H250 H 0.13766 0.44358 0.45314 0.0
H251 H 0.25252 0.45724 0.46876 0.0
H252 H 0.21698 0.42678 0.60435 0.0
O253 O 0.2157 0.64256 0.49637 0.0
H254 H 0.10858 0.59965 0.38503 0.0
H255 H 0.16129 0.70247 0.48474 0.0
H256 H 0.1299 0.36507 0.44306 0.0
H257 H 0.32536 0.5324 0.6326 0.0
H258 H 0.16608 0.31674 0.51504 0.0
H259 H 0.36828 0.49029 0.5603 0.0
O260 O 0.11974 0.5059 0.52755 0.0
H261 H 0.17393 0.66834 0.69745 0.0
H262 H 0.08003 0.65072 0.5235 0.0
H263 H 0.05274 0.68905 0.61134 0.0
H264 H 0.09987 0.69808 0.6992 0.0
H265 H 0.1996 0.62979 0.60903 0.0
H266 H 0.13058 0.75499 0.4149 0.0
H267 H 0.08778 0.72937 0.32908 0.0
O268 O 0.107 0.57203 0.49084 0.0
C269 C 0.19091 0.53557 0.40938 0.0
C270 C 0.09528 0.66264 0.35172 0.0
C271 C 0.12556 0.72095 0.40802 0.0
N272 N 0.13664 0.64802 0.4392 0.0
C273 C 0.11322 0.63369 0.392 0.0
C274 C 0.1431 0.69104 0.4473 0.0
C275 C 0.10151 0.70656 0.35992 0.0
C276 C 0.26504 0.51779 0.59026 0.0
N277 N 0.24499 0.49702 0.54471 0.0
C278 C 0.30963 0.51572 0.5966 0.0
C279 C 0.3337 0.49215 0.55595 0.0
C280 C 0.31301 0.47102 0.50964 0.0
C281 C 0.26837 0.47387 0.50463 0.0
C282 C 0.19389 0.3688 0.56459 0.0
C283 C 0.15373 0.42275 0.48437 0.0
C284 C 0.19781 0.41338 0.56899 0.0
N285 N 0.178 0.43972 0.52899 0.0
C286 C 0.14912 0.37833 0.47855 0.0
C287 C 0.1694 0.35123 0.51898 0.0
C288 C 0.09453 0.53464 0.50727 0.0
C289 C 0.15297 0.6644 0.65961 0.0
C290 C 0.10041 0.65385 0.56192 0.0
C291 C 0.08494 0.67593 0.61135 0.0
C292 C 0.11143 0.68106 0.66057 0.0
N293 N 0.14096 0.63711 0.56151 0.0
C294 C 0.16731 0.64254 0.60936 0.0
Co295 Co 0.51593 0.18928 0.04152 0.0
Co296 Co 0.41217 0.16484 0.9977 0.0
O297 O 0.45348 0.19185 0.05072 0.0
C298 C 0.49802 0.15613 0.16146 0.0
O299 O 0.46705 0.13358 0.13723 0.0
C300 C 0.38726 0.25727 1.00324 0.0
O301 O 0.42784 0.26676 0.9944 0.0
O302 O 0.44263 0.1877 0.92661 0.0
O303 O 0.51131 0.1976 0.95362 0.0
H304 H 0.36733 0.07881 0.82013 0.0
H305 H 0.47747 0.24917 0.12887 0.0
O306 O 0.52171 0.18017 0.12943 0.0
H307 H 0.55742 0.3409 0.98892 0.0
H308 H 0.66772 0.2205 0.10517 0.0
H309 H 0.57658 0.15188 0.95397 0.0
H310 H 0.55735 0.26209 0.97736 0.0
H311 H 0.58874 0.22314 0.11324 0.0
O312 O 0.37528 0.21807 1.00178 0.0
H313 H 0.41898 0.11166 0.88946 0.0
H314 H 0.31635 0.1625 0.99172 0.0
H315 H 0.65536 0.14853 0.94394 0.0
H316 H 0.47689 0.3278 0.14227 0.0
H317 H 0.70155 0.18304 0.01998 0.0
H318 H 0.51691 0.37423 0.07181 0.0
O319 O 0.51431 0.1258 0.02948 0.0
H320 H 0.34079 0.17509 0.19694 0.0
H321 H 0.37783 0.07886 0.03135 0.0
H322 H 0.33893 0.04979 0.11769 0.0
H323 H 0.31976 0.09819 0.20104 0.0
H324 H 0.3815 0.20229 0.11113 0.0
H325 H 0.26357 0.13039 0.92335 0.0
H326 H 0.28899 0.0881 0.83691 0.0
O327 O 0.44798 0.1109 0.99477 0.0
C328 C 0.48167 0.19674 0.91453 0.0
C329 C 0.35585 0.09702 0.85776 0.0
C330 C 0.29762 0.12604 0.91564 0.0
N331 N 0.37069 0.13866 0.94482 0.0
C332 C 0.38494 0.11557 0.89727 0.0
C333 C 0.32765 0.14422 0.95414 0.0
C334 C 0.3119 0.1023 0.86716 0.0
C335 C 0.49542 0.26912 0.09847 0.0
N336 N 0.51761 0.25105 0.05259 0.0
C337 C 0.49481 0.31364 0.10613 0.0
C338 C 0.51721 0.33968 0.06652 0.0
C339 C 0.5399 0.321 0.01995 0.0
C340 C 0.5397 0.27636 0.01359 0.0
C341 C 0.64795 0.20523 0.07184 0.0
C342 C 0.59641 0.16684 0.98725 0.0
C343 C 0.6032 0.20646 0.0763 0.0
N344 N 0.57803 0.18738 0.03427 0.0
C345 C 0.64104 0.1649 0.98133 0.0
C346 C 0.66692 0.18425 0.02401 0.0
C347 C 0.48618 0.09975 0.00925 0.0
C348 C 0.34901 0.15367 0.16095 0.0
C349 C 0.37048 0.09986 0.06804 0.0
C350 C 0.34809 0.08332 0.11657 0.0
C351 C 0.33725 0.11051 0.16324 0.0
N352 N 0.38209 0.14218 0.06623 0.0
C353 C 0.37192 0.16893 0.1121 0.0
Co354 Co 0.82254 0.51267 0.53879 0.0
Co355 Co 0.8501 0.41164 0.48951 0.0
O356 O 0.82091 0.45022 0.54439 0.0
C357 C 0.8518 0.49271 0.65952 0.0
O358 O 0.87515 0.46203 0.6361 0.0
C359 C 0.75937 0.38179 0.49638 0.0
O360 O 0.74758 0.42192 0.48895 0.0
O361 O 0.8245 0.44202 0.42014 0.0
O362 O 0.81767 0.51038 0.45031 0.0
H363 H 0.93596 0.37429 0.30833 0.0
H364 H 0.75992 0.47126 0.61953 0.0
O365 O 0.82816 0.51636 0.62699 0.0
H366 H 0.67261 0.55491 0.47843 0.0
H367 H 0.78627 0.66265 0.6054 0.0
H368 H 0.86735 0.57535 0.46151 0.0
H369 H 0.75171 0.5554 0.47192 0.0
H370 H 0.78283 0.5835 0.60873 0.0
O371 O 0.79912 0.37187 0.49375 0.0
H372 H 0.90052 0.423 0.37932 0.0
H373 H 0.85962 0.31643 0.48232 0.0
H374 H 0.87141 0.65438 0.45617 0.0
H375 H 0.68091 0.47014 0.62803 0.0
H376 H 0.83067 0.6986 0.52852 0.0
H377 H 0.6367 0.51207 0.55699 0.0
O378 O 0.88597 0.51186 0.53225 0.0
H379 H 0.84711 0.34075 0.68963 0.0
H380 H 0.93869 0.38293 0.52114 0.0
H381 H 0.97134 0.34703 0.6074 0.0
H382 H 0.92543 0.32557 0.6924 0.0
H383 H 0.81587 0.37729 0.60293 0.0
H384 H 0.89424 0.26649 0.41221 0.0
H385 H 0.93291 0.29541 0.32457 0.0
O386 O 0.90214 0.45026 0.48584 0.0
C387 C 0.81701 0.4817 0.40989 0.0
C388 C 0.91927 0.36129 0.34639 0.0
C389 C 0.89579 0.30079 0.40464 0.0
N390 N 0.8781 0.37254 0.43494 0.0
C391 C 0.89922 0.38871 0.38679 0.0
C392 C 0.87609 0.32919 0.44407 0.0
C393 C 0.91751 0.31704 0.3555 0.0
C394 C 0.74091 0.48994 0.58885 0.0
N395 N 0.76041 0.51344 0.54535 0.0
C396 C 0.69618 0.48903 0.59372 0.0
C397 C 0.6714 0.5125 0.55377 0.0
C398 C 0.69152 0.5365 0.50964 0.0
C399 C 0.73632 0.53655 0.50603 0.0
C400 C 0.804 0.64375 0.57346 0.0
C401 C 0.84919 0.59439 0.49275 0.0
C402 C 0.80219 0.59893 0.57513 0.0
N403 N 0.82439 0.57487 0.53481 0.0
C404 C 0.85176 0.63912 0.48968 0.0
C405 C 0.82894 0.6639 0.53033 0.0
C406 C 0.91276 0.48679 0.50729 0.0
C407 C 0.86743 0.34982 0.65278 0.0
C408 C 0.91852 0.37396 0.55807 0.0
C409 C 0.93717 0.35347 0.60672 0.0
C410 C 0.91139 0.34139 0.65436 0.0
N411 N 0.87537 0.38215 0.55683 0.0
C412 C 0.84988 0.37032 0.60337 0.0
Co413 Co 0.50371 0.82862 0.03889 0.0
Co414 Co 0.60654 0.8522 0.9917 0.0
O415 O 0.56612 0.8244 0.04561 0.0
C416 C 0.52333 0.85702 0.16025 0.0
O417 O 0.55534 0.87909 0.13782 0.0
C418 C 0.63436 0.76046 0.99869 0.0
O419 O 0.59388 0.7492 0.99365 0.0
O420 O 0.57575 0.82822 0.92132 0.0
O421 O 0.50698 0.82304 0.95069 0.0
H422 H 0.64876 0.93807 0.8125 0.0
H423 H 0.54213 0.76505 0.121 0.0
O424 O 0.49909 0.83468 0.1269 0.0
H425 H 0.45619 0.67991 0.98017 0.0
H426 H 0.35158 0.79784 0.10182 0.0
H427 H 0.44375 0.87517 0.95963 0.0
H428 H 0.45881 0.75887 0.97248 0.0
H429 H 0.43052 0.79193 0.10758 0.0
O430 O 0.64475 0.80002 0.99548 0.0
H431 H 0.59815 0.90333 0.88166 0.0
H432 H 0.70216 0.85897 0.98677 0.0
H433 H 0.36497 0.88161 0.95181 0.0
H434 H 0.54009 0.68616 0.13076 0.0
H435 H 0.31831 0.84275 0.02327 0.0
H436 H 0.497 0.64303 0.05986 0.0
O437 O 0.50667 0.89219 0.03167 0.0
H438 H 0.67393 0.8439 0.19365 0.0
H439 H 0.64001 0.93888 0.02541 0.0
H440 H 0.67614 0.96887 0.11319 0.0
H441 H 0.69348 0.92119 0.19813 0.0
H442 H 0.63717 0.81548 0.10538 0.0
H443 H 0.75397 0.89267 0.91836 0.0
H444 H 0.7273 0.93281 0.83065 0.0
O445 O 0.57004 0.90562 0.98812 0.0
C446 C 0.53594 0.82154 0.91065 0.0
C447 C 0.66078 0.9207 0.85058 0.0
C448 C 0.71983 0.89517 0.90995 0.0
N449 N 0.6472 0.87919 0.93822 0.0
C450 C 0.63228 0.90102 0.88993 0.0
C451 C 0.69036 0.87596 0.94837 0.0
C452 C 0.70484 0.91771 0.86077 0.0
C453 C 0.52298 0.74654 0.09032 0.0
N454 N 0.5006 0.76658 0.04619 0.0
C455 C 0.52209 0.70186 0.09592 0.0
C456 C 0.49798 0.67767 0.05606 0.0
C457 C 0.47512 0.69835 0.01129 0.0
C458 C 0.47686 0.74307 1.00697 0.0
C459 C 0.37155 0.81478 0.07027 0.0
C460 C 0.42364 0.85791 0.99059 0.0
C461 C 0.41626 0.81159 0.07334 0.0
N462 N 0.44167 0.83274 0.03347 0.0
C463 C 0.37906 0.86179 0.98607 0.0
C464 C 0.35291 0.84 0.0262 0.0
C465 C 0.53344 0.91783 1.00759 0.0
C466 C 0.66662 0.865 0.15689 0.0
C467 C 0.64699 0.91806 0.06232 0.0
C468 C 0.66771 0.93515 0.11184 0.0
C469 C 0.6775 0.90837 0.15943 0.0
N470 N 0.63633 0.87551 0.06014 0.0
C471 C 0.64598 0.84904 0.10661 0.0
C472 C 0.19546 0.46574 0.27066 0.0
C473 C 0.19835 0.49571 0.22402 0.0
C474 C 0.19497 0.47883 0.33016 0.0
C475 C 0.19703 0.5226 0.34613 0.0
H476 H 0.19222 0.43176 0.26135 0.0
H477 H 0.19146 0.45424 0.36375 0.0
S478 S 0.20973 0.61408 0.24179 0.0
N479 N 0.2072 0.57135 0.19878 0.0
N480 N 0.20563 0.59577 0.31012 0.0
C481 C 0.20197 0.55284 0.30019 0.0
C482 C 0.2028 0.53949 0.23947 0.0
C483 C 0.55043 0.19951 0.77472 0.0
C484 C 0.52001 0.19962 0.72849 0.0
C485 C 0.53783 0.20102 0.83442 0.0
C486 C 0.49415 0.20227 0.85098 0.0
H487 H 0.58442 0.19694 0.76502 0.0
H488 H 0.56275 0.19954 0.86777 0.0
S489 S 0.40152 0.20859 0.7475 0.0
N490 N 0.44397 0.20549 0.70397 0.0
N491 N 0.42048 0.20767 0.81568 0.0
C492 C 0.46342 0.20475 0.80527 0.0
C493 C 0.47626 0.20358 0.74435 0.0
C494 C 0.81385 0.46531 0.3009 0.0
C495 C 0.81098 0.49565 0.34704 0.0
C496 C 0.81414 0.47796 0.24126 0.0
C497 C 0.81191 0.52159 0.22478 0.0
H498 H 0.81738 0.43143 0.31072 0.0
H499 H 0.81786 0.4532 0.20799 0.0
S500 S 0.79836 0.61374 0.32763 0.0
N501 N 0.80139 0.57135 0.37128 0.0
N502 N 0.80253 0.59496 0.25958 0.0
C503 C 0.80664 0.55215 0.27019 0.0
C504 C 0.80601 0.53925 0.33104 0.0
C505 C 0.55224 0.81743 0.80145 0.0
C506 C 0.52206 0.81479 0.84786 0.0
C507 C 0.53946 0.81626 0.74183 0.0
C508 C 0.49583 0.81262 0.72569 0.0
H509 H 0.58606 0.82185 0.81101 0.0
H510 H 0.56402 0.81992 0.70823 0.0
S511 S 0.4041 0.79963 0.82958 0.0
N512 N 0.44651 0.80452 0.87279 0.0
N513 N 0.42274 0.80252 0.76133 0.0
C514 C 0.46549 0.80771 0.7715 0.0
C515 C 0.4785 0.80876 0.83225 0.0
C516 C 0.85325 0.46474 0.76304 0.0
C517 C 0.85289 0.49989 0.72391 0.0
C518 C 0.8532 0.47105 0.82457 0.0
C519 C 0.85427 0.51267 0.84871 0.0
H520 H 0.85276 0.4322 0.746 0.0
H521 H 0.85296 0.44321 0.85341 0.0
S522 S 0.85455 0.61513 0.76488 0.0
N523 N 0.8535 0.57754 0.71334 0.0
N524 N 0.85508 0.58937 0.82884 0.0
C525 C 0.85456 0.54796 0.80995 0.0
C526 C 0.85341 0.54158 0.7475 0.0
C527 C 0.55069 0.8555 0.26408 0.0
C528 C 0.5158 0.85717 0.22462 0.0
C529 C 0.54398 0.85378 0.32549 0.0
C530 C 0.50224 0.85506 0.3493 0.0
H531 H 0.58332 0.85461 0.24734 0.0
H532 H 0.57164 0.85205 0.35454 0.0
S533 S 0.40033 0.86047 0.2646 0.0
N534 N 0.43822 0.86002 0.2134 0.0
N535 N 0.42569 0.85844 0.32876 0.0
C536 C 0.4672 0.85744 0.31026 0.0
C537 C 0.47397 0.85803 0.24786 0.0
C538 C 0.15435 0.53852 0.82397 0.0
C539 C 0.15323 0.49655 0.84718 0.0
C540 C 0.15336 0.5458 0.76264 0.0
C541 C 0.15258 0.51134 0.72243 0.0
H542 H 0.15562 0.56595 0.85344 0.0
H543 H 0.1542 0.57861 0.74658 0.0
S544 S 0.14966 0.39548 0.76039 0.0
N545 N 0.15063 0.4202 0.82506 0.0
N546 N 0.15048 0.43386 0.70989 0.0
C547 C 0.15171 0.46928 0.74499 0.0
C548 C 0.15154 0.4619 0.80738 0.0
C549 C 0.55289 0.15658 0.31178 0.0
C550 C 0.51806 0.15403 0.35135 0.0
C551 C 0.54617 0.15766 0.25028 0.0
C552 C 0.50452 0.1548 0.22634 0.0
H553 H 0.58545 0.15877 0.3285 0.0
H554 H 0.57378 0.16032 0.22126 0.0
S555 S 0.40283 0.14632 0.31139 0.0
N556 N 0.44066 0.1485 0.36253 0.0
N557 N 0.42814 0.14875 0.24718 0.0
C558 C 0.4696 0.15137 0.26557 0.0
C559 C 0.47634 0.15147 0.32804 0.0
C560 C 0.99365 0.54244 0.08116 0.0
C561 C 0.96098 0.51237 0.06891 0.0
C562 C 0.03727 0.53075 0.08008 0.0
C563 C 0.05021 0.48826 0.06814 0.0
H564 H 0.98572 0.57558 0.09052 0.0
H565 H 0.06106 0.55534 0.08864 0.0
S566 S 0.97784 0.39657 0.03544 0.0
N567 N 0.94514 0.43758 0.04566 0.0
N568 N 0.02666 0.41596 0.04496 0.0
C569 C 0.01795 0.45764 0.05759 0.0
C570 C 0.97357 0.46957 0.05765 0.0
C571 C 0.47344 0.99138 0.59189 0.0
C572 C 0.5013 0.95992 0.56837 0.0
C573 C 0.48479 0.03514 0.59238 0.0
C574 C 0.52469 0.04914 0.57032 0.0
H575 H 0.44235 0.98233 0.60948 0.0
H576 H 0.46218 0.05819 0.61026 0.0
S577 S 0.60853 0.98102 0.50123 0.0
N578 N 0.57055 0.94694 0.52087 0.0
N579 N 0.59101 0.02871 0.52189 0.0
C580 C 0.55273 0.01831 0.5468 0.0
C581 C 0.54129 0.97388 0.54583 0.0
C582 C 0.0344 0.48375 0.48347 0.0
C583 C 0.04804 0.52404 0.50455 0.0
C584 C 0.99067 0.47231 0.48311 0.0
C585 C 0.9588 0.50043 0.50487 0.0
H586 H 0.05772 0.46085 0.46705 0.0
H587 H 0.98199 0.4409 0.46639 0.0
S588 S 0.9785 0.60909 0.56804 0.0
N589 N 0.02656 0.59134 0.54944 0.0
N590 N 0.94487 0.57055 0.54913 0.0
C591 C 0.9723 0.54089 0.52619 0.0
C592 C 0.01672 0.55249 0.52596 0.0
C593 C 0.48064 0.97809 0.02335 0.0
C594 C 0.52151 0.96434 1.00382 0.0
C595 C 0.46909 0.02171 0.02342 0.0
C596 C 0.49803 0.05363 1.00477 0.0
H597 H 0.45731 0.95507 0.0395 0.0
H598 H 0.4377 0.03053 0.04001 0.0
S599 S 0.60729 0.03543 0.94405 0.0
N600 N 0.58963 0.9869 0.96053 0.0
N601 N 0.56819 0.06856 0.96273 0.0
C602 C 0.53847 0.04052 0.9838 0.0
C603 C 0.55008 0.99604 0.98267 0.0
C604 C 0.2826 0.31041 0.0518 0.0
C605 C 0.29356 0.35407 0.05879 0.0
C606 C 0.31286 0.27984 0.03318 0.0
C607 C 0.35568 0.29128 0.02046 0.0
H608 H 0.25014 0.29952 0.06041 0.0
H609 H 0.30238 0.24679 0.02895 0.0
S610 S 0.40148 0.40129 0.03171 0.0
N611 N 0.35075 0.40712 0.05151 0.0
N612 N 0.40754 0.34977 0.01655 0.0
C613 C 0.36726 0.33482 0.02734 0.0
C614 C 0.33633 0.36608 0.04647 0.0
C615 C 0.68551 0.36116 0.5324 0.0
C616 C 0.72714 0.34878 0.51456 0.0
C617 C 0.65547 0.33088 0.5532 0.0
C618 C 0.66576 0.2869 0.55732 0.0
H619 H 0.67607 0.39464 0.53105 0.0
H620 H 0.62394 0.34217 0.56625 0.0
S621 S 0.76968 0.23724 0.5129 0.0
N622 N 0.77635 0.28899 0.50028 0.0
N623 N 0.72048 0.23249 0.53918 0.0
C624 C 0.70717 0.27407 0.53888 0.0
C625 C 0.73763 0.30483 0.51758 0.0
C626 C 0.68605 0.65698 0.05528 0.0
C627 C 0.73038 0.66627 0.05417 0.0
C628 C 0.65535 0.68712 0.03609 0.0
C629 C 0.66761 0.72788 0.01475 0.0
H630 H 0.6748 0.62617 0.07134 0.0
H631 H 0.62169 0.67853 0.03893 0.0
S632 S 0.77969 0.76742 0.99864 0.0
N633 N 0.78487 0.71897 0.02734 0.0
N634 N 0.72753 0.77501 0.99104 0.0
C635 C 0.71186 0.73729 0.01234 0.0
C636 C 0.74308 0.70673 0.03207 0.0
C637 C 0.36228 0.68538 0.53986 0.0
C638 C 0.3502 0.72686 0.55869 0.0
C639 C 0.33153 0.65507 0.52118 0.0
C640 C 0.28733 0.6649 0.52031 0.0
H641 H 0.39586 0.67628 0.53873 0.0
H642 H 0.34263 0.62372 0.50709 0.0
S643 S 0.23843 0.76812 0.56906 0.0
N644 N 0.29054 0.77535 0.57767 0.0
N645 N 0.23316 0.71894 0.54299 0.0
C646 C 0.27483 0.70611 0.53996 0.0
C647 C 0.30609 0.73687 0.55899 0.0
loop_
_geom_bond_atom_site_label_1
_geom_bond_atom_site_label_2
_geom_bond_distance
_geom_bond_site_symmetry_2
_ccdc_geom_bond_type
Co0 O2 2.143 . S
Co0 O8 2.074 . S
Co0 O11 2.093 1_554 S
Co0 O24 2.097 . S
Co0 N41 2.151 . S
Co0 N49 2.214 . S
Co1 O2 2.160 . S
Co1 O7 2.058 . S
Co1 O17 2.057 . S
Co1 O32 2.037 . S
Co1 N36 2.145 . S
Co1 N57 2.257 1_554 S
O2 Co0 2.143 . S
O2 Co1 2.160 . S
C3 O4 1.278 . S
C3 O11 1.224 . S
O4 C3 1.278 . S
C5 O6 1.245 . S
C5 O17 1.232 . S
O6 C5 1.245 . S
O7 Co1 2.058 . S
O7 C33 1.269 . S
O8 Co0 2.074 . S
O8 C33 1.257 . S
H9 C34 0.930 . S
H10 C40 0.930 . S
O11 Co0 2.093 1_556 S
O11 C3 1.224 . S
H12 C44 0.929 . S
H13 C46 0.925 1_556 S
H14 C47 0.930 . S
H15 C45 0.929 . S
H16 C48 0.928 1_556 S
O17 Co1 2.057 . S
O17 C5 1.232 . S
H18 C37 0.929 . S
H19 C38 0.929 . S
H20 C50 0.931 . S
H21 C42 0.929 . S
H22 C51 0.930 . S
H23 C43 0.931 . S
O24 Co0 2.097 . S
O24 C52 1.214 . S
H25 C53 0.929 . S
H26 C54 0.929 1_554 S
H27 C55 0.930 . S
H28 C56 0.929 . S
H29 C58 0.930 . S
H30 C35 0.930 . S
H31 C39 0.930 . S
O32 Co1 2.037 . S
O32 C52 1.234 . S
C33 O7 1.269 . S
C33 O8 1.257 . S
C34 H9 0.930 . S
C34 C37 1.388 . S
C34 C39 1.418 . S
C35 H30 0.930 . S
C35 C38 1.404 . S
C35 C39 1.353 . S
N36 Co1 2.145 . S
N36 C37 1.397 . S
N36 C38 1.334 . S
C37 H18 0.929 . S
C37 C34 1.388 . S
C37 N36 1.397 . S
C38 H19 0.929 . S
C38 C35 1.404 . S
C38 N36 1.334 . S
C39 H31 0.930 . S
C39 C34 1.418 . S
C39 C35 1.353 . S
C40 H10 0.930 . S
C40 N41 1.330 1_556 S
C40 C42 1.446 . S
N41 Co0 2.151 . S
N41 C40 1.330 1_554 S
N41 C45 1.418 . S
C42 H21 0.929 . S
C42 C40 1.446 . S
C42 C43 1.332 1_556 S
C43 H23 0.931 . S
C43 C42 1.332 1_554 S
C43 C44 1.267 . S
C44 H12 0.929 . S
C44 C43 1.267 . S
C44 C45 1.251 . S
C45 H15 0.929 . S
C45 N41 1.418 . S
C45 C44 1.251 . S
C46 H13 0.925 1_554 S
C46 C48 1.406 . S
C46 C51 1.261 . S
C47 H14 0.930 . S
C47 N49 1.325 . S
C47 C50 1.357 . S
C48 H16 0.928 1_554 S
C48 C46 1.406 . S
C48 N49 1.261 . S
N49 Co0 2.214 . S
N49 C47 1.325 . S
N49 C48 1.261 . S
C50 H20 0.931 . S
C50 C47 1.357 . S
C50 C51 1.312 . S
C51 H22 0.930 . S
C51 C46 1.261 . S
C51 C50 1.312 . S
C52 O24 1.214 . S
C52 O32 1.234 . S
C53 H25 0.929 . S
C53 C56 1.391 . S
C53 C58 1.391 . S
C54 H26 0.929 1_556 S
C54 C55 1.390 . S
C54 N57 1.391 . S
C55 H27 0.930 . S
C55 C54 1.390 . S
C55 C56 1.392 . S
C56 H28 0.929 . S
C56 C53 1.391 . S
C56 C55 1.392 . S
N57 Co1 2.257 1_556 S
N57 C54 1.391 . S
N57 C58 1.388 . S
C58 H29 0.930 . S
C58 C53 1.391 . S
C58 N57 1.388 . S
Co59 O61 2.143 . S
Co59 O67 2.074 . S
Co59 O70 2.093 . S
Co59 O83 2.097 . S
Co59 N100 2.151 . S
Co59 N108 2.214 . S
Co60 O61 2.160 . S
Co60 O66 2.058 . S
Co60 O76 2.057 . S
Co60 O91 2.037 . S
Co60 N95 2.145 . S
Co60 N116 2.257 . S
O61 Co59 2.143 . S
O61 Co60 2.160 . S
C62 O63 1.278 . S
C62 O70 1.224 . S
O63 C62 1.278 . S
C64 O65 1.245 . S
C64 O76 1.232 . S
O65 C64 1.245 . S
O66 Co60 2.058 . S
O66 C92 1.269 . S
O67 Co59 2.074 . S
O67 C92 1.257 . S
H68 C93 0.930 . S
H69 C99 0.930 . S
O70 Co59 2.093 . S
O70 C62 1.224 . S
H71 C103 0.929 . S
H72 C105 0.930 . S
H73 C106 0.930 . S
H74 C104 0.929 . S
H75 C107 0.928 . S
O76 Co60 2.057 . S
O76 C64 1.232 . S
H77 C96 0.929 . S
H78 C97 0.929 . S
H79 C109 0.931 . S
H80 C101 0.929 . S
H81 C110 0.930 . S
H82 C102 0.931 . S
O83 Co59 2.097 . S
O83 C111 1.214 . S
H84 C112 0.929 . S
H85 C113 0.929 . S
H86 C114 0.930 . S
H87 C115 0.929 . S
H88 C117 0.930 . S
H89 C94 0.930 . S
H90 C98 0.930 . S
O91 Co60 2.037 . S
O91 C111 1.234 . S
C92 O66 1.269 . S
C92 O67 1.257 . S
C93 H68 0.930 . S
C93 C96 1.388 . S
C93 C98 1.418 . S
C94 H89 0.930 . S
C94 C97 1.404 . S
C94 C98 1.353 . S
N95 Co60 2.145 . S
N95 C96 1.397 . S
N95 C97 1.334 . S
C96 H77 0.929 . S
C96 C93 1.388 . S
C96 N95 1.397 . S
C97 H78 0.929 . S
C97 C94 1.404 . S
C97 N95 1.334 . S
C98 H90 0.930 . S
C98 C93 1.418 . S
C98 C94 1.353 . S
C99 H69 0.930 . S
C99 N100 1.330 . S
C99 C101 1.446 . S
N100 Co59 2.151 . S
N100 C99 1.330 . S
N100 C104 1.418 . S
C101 H80 0.929 . S
C101 C99 1.446 . S
C101 C102 1.332 . S
C102 H82 0.931 . S
C102 C101 1.332 . S
C102 C103 1.267 . S
C103 H71 0.929 . S
C103 C102 1.267 . S
C103 C104 1.251 . S
C104 H74 0.929 . S
C104 N100 1.418 . S
C104 C103 1.251 . S
C105 H72 0.930 . S
C105 C107 1.406 . S
C105 C110 1.261 . S
C106 H73 0.930 . S
C106 N108 1.325 . S
C106 C109 1.357 . S
C107 H75 0.928 . S
C107 C105 1.406 . S
C107 N108 1.261 . S
N108 Co59 2.214 . S
N108 C106 1.325 . S
N108 C107 1.261 . S
C109 H79 0.931 . S
C109 C106 1.357 . S
C109 C110 1.312 . S
C110 H81 0.930 . S
C110 C105 1.261 . S
C110 C109 1.312 . S
C111 O83 1.214 . S
C111 O91 1.234 . S
C112 H84 0.929 . S
C112 C115 1.391 . S
C112 C117 1.391 . S
C113 H85 0.929 . S
C113 C114 1.390 . S
C113 N116 1.391 . S
C114 H86 0.930 . S
C114 C113 1.390 . S
C114 C115 1.392 . S
C115 H87 0.929 . S
C115 C112 1.391 . S
C115 C114 1.392 . S
N116 Co60 2.257 . S
N116 C113 1.391 . S
N116 C117 1.388 . S
C117 H88 0.930 . S
C117 C112 1.391 . S
C117 N116 1.388 . S
Co118 O120 2.143 . S
Co118 O126 2.074 . S
Co118 O129 2.093 1_554 S
Co118 O142 2.097 . S
Co118 N159 2.151 . S
Co118 N167 2.214 . S
Co119 O120 2.160 . S
Co119 O125 2.058 . S
Co119 O135 2.057 . S
Co119 O150 2.037 . S
Co119 N154 2.145 . S
Co119 N175 2.257 1_554 S
O120 Co118 2.143 . S
O120 Co119 2.160 . S
C121 O122 1.278 . S
C121 O129 1.224 . S
O122 C121 1.278 . S
C123 O124 1.245 . S
C123 O135 1.232 . S
O124 C123 1.245 . S
O125 Co119 2.058 . S
O125 C151 1.269 . S
O126 Co118 2.074 . S
O126 C151 1.257 . S
H127 C152 0.930 . S
H128 C158 0.930 . S
O129 Co118 2.093 1_556 S
O129 C121 1.224 . S
H130 C162 0.929 . S
H131 C164 0.925 1_556 S
H132 C165 0.930 . S
H133 C163 0.929 . S
H134 C166 0.928 1_556 S
O135 Co119 2.057 . S
O135 C123 1.232 . S
H136 C155 0.929 . S
H137 C156 0.929 . S
H138 C168 0.931 . S
H139 C160 0.929 . S
H140 C169 0.930 . S
H141 C161 0.931 . S
O142 Co118 2.097 . S
O142 C170 1.214 . S
H143 C171 0.929 . S
H144 C172 0.929 1_554 S
H145 C173 0.930 . S
H146 C174 0.929 . S
H147 C176 0.930 . S
H148 C153 0.930 . S
H149 C157 0.930 . S
O150 Co119 2.037 . S
O150 C170 1.234 . S
C151 O125 1.269 . S
C151 O126 1.257 . S
C152 H127 0.930 . S
C152 C155 1.388 . S
C152 C157 1.418 . S
C153 H148 0.930 . S
C153 C156 1.404 . S
C153 C157 1.353 . S
N154 Co119 2.145 . S
N154 C155 1.397 . S
N154 C156 1.334 . S
C155 H136 0.929 . S
C155 C152 1.388 . S
C155 N154 1.397 . S
C156 H137 0.929 . S
C156 C153 1.404 . S
C156 N154 1.334 . S
C157 H149 0.930 . S
C157 C152 1.418 . S
C157 C153 1.353 . S
C158 H128 0.930 . S
C158 N159 1.330 1_556 S
C158 C160 1.446 . S
N159 Co118 2.151 . S
N159 C158 1.330 1_554 S
N159 C163 1.418 . S
C160 H139 0.929 . S
C160 C158 1.446 . S
C160 C161 1.332 1_556 S
C161 H141 0.931 . S
C161 C160 1.332 1_554 S
C161 C162 1.267 . S
C162 H130 0.929 . S
C162 C161 1.267 . S
C162 C163 1.251 . S
C163 H133 0.929 . S
C163 N159 1.418 . S
C163 C162 1.251 . S
C164 H131 0.925 1_554 S
C164 C166 1.406 . S
C164 C169 1.261 . S
C165 H132 0.930 . S
C165 N167 1.325 . S
C165 C168 1.357 . S
C166 H134 0.928 1_554 S
C166 C164 1.406 . S
C166 N167 1.261 . S
N167 Co118 2.214 . S
N167 C165 1.325 . S
N167 C166 1.261 . S
C168 H138 0.931 . S
C168 C165 1.357 . S
C168 C169 1.312 . S
C169 H140 0.930 . S
C169 C164 1.261 . S
C169 C168 1.312 . S
C170 O142 1.214 . S
C170 O150 1.234 . S
C171 H143 0.929 . S
C171 C174 1.391 . S
C171 C176 1.391 . S
C172 H144 0.929 1_556 S
C172 C173 1.390 . S
C172 N175 1.391 . S
C173 H145 0.930 . S
C173 C172 1.390 . S
C173 C174 1.392 . S
C174 H146 0.929 . S
C174 C171 1.391 . S
C174 C173 1.392 . S
N175 Co119 2.257 1_556 S
N175 C172 1.391 . S
N175 C176 1.388 . S
C176 H147 0.930 . S
C176 C171 1.391 . S
C176 N175 1.388 . S
Co177 O179 2.143 . S
Co177 O185 2.074 . S
Co177 O188 2.093 . S
Co177 O201 2.097 . S
Co177 N218 2.151 . S
Co177 N226 2.214 . S
Co178 O179 2.160 . S
Co178 O184 2.058 . S
Co178 O194 2.057 . S
Co178 O209 2.037 . S
Co178 N213 2.145 . S
Co178 N234 2.257 . S
O179 Co177 2.143 . S
O179 Co178 2.160 . S
C180 O181 1.278 . S
C180 O188 1.224 . S
O181 C180 1.278 . S
C182 O183 1.245 . S
C182 O194 1.232 . S
O183 C182 1.245 . S
O184 Co178 2.058 . S
O184 C210 1.269 . S
O185 Co177 2.074 . S
O185 C210 1.257 . S
H186 C211 0.930 . S
H187 C217 0.930 . S
O188 Co177 2.093 . S
O188 C180 1.224 . S
H189 C221 0.929 . S
H190 C223 0.930 . S
H191 C224 0.930 . S
H192 C222 0.929 . S
H193 C225 0.928 . S
O194 Co178 2.057 . S
O194 C182 1.232 . S
H195 C214 0.929 . S
H196 C215 0.929 . S
H197 C227 0.931 . S
H198 C219 0.929 . S
H199 C228 0.930 . S
H200 C220 0.931 . S
O201 Co177 2.097 . S
O201 C229 1.214 . S
H202 C230 0.929 . S
H203 C231 0.929 . S
H204 C232 0.930 . S
H205 C233 0.929 . S
H206 C235 0.930 . S
H207 C212 0.930 . S
H208 C216 0.930 . S
O209 Co178 2.037 . S
O209 C229 1.234 . S
C210 O184 1.269 . S
C210 O185 1.257 . S
C211 H186 0.930 . S
C211 C214 1.388 . S
C211 C216 1.418 . S
C212 H207 0.930 . S
C212 C215 1.404 . S
C212 C216 1.353 . S
N213 Co178 2.145 . S
N213 C214 1.397 . S
N213 C215 1.334 . S
C214 H195 0.929 . S
C214 C211 1.388 . S
C214 N213 1.397 . S
C215 H196 0.929 . S
C215 C212 1.404 . S
C215 N213 1.334 . S
C216 H208 0.930 . S
C216 C211 1.418 . S
C216 C212 1.353 . S
C217 H187 0.930 . S
C217 N218 1.330 . S
C217 C219 1.446 . S
N218 Co177 2.151 . S
N218 C217 1.330 . S
N218 C222 1.418 . S
C219 H198 0.929 . S
C219 C217 1.446 . S
C219 C220 1.332 . S
C220 H200 0.931 . S
C220 C219 1.332 . S
C220 C221 1.267 . S
C221 H189 0.929 . S
C221 C220 1.267 . S
C221 C222 1.251 . S
C222 H192 0.929 . S
C222 N218 1.418 . S
C222 C221 1.251 . S
C223 H190 0.930 . S
C223 C225 1.406 . S
C223 C228 1.261 . S
C224 H191 0.930 . S
C224 N226 1.325 . S
C224 C227 1.357 . S
C225 H193 0.928 . S
C225 C223 1.406 . S
C225 N226 1.261 . S
N226 Co177 2.214 . S
N226 C224 1.325 . S
N226 C225 1.261 . S
C227 H197 0.931 . S
C227 C224 1.357 . S
C227 C228 1.312 . S
C228 H199 0.930 . S
C228 C223 1.261 . S
C228 C227 1.312 . S
C229 O201 1.214 . S
C229 O209 1.234 . S
C230 H202 0.929 . S
C230 C233 1.391 . S
C230 C235 1.391 . S
C231 H203 0.929 . S
C231 C232 1.390 . S
C231 N234 1.391 . S
C232 H204 0.930 . S
C232 C231 1.390 . S
C232 C233 1.392 . S
C233 H205 0.929 . S
C233 C230 1.391 . S
C233 C232 1.392 . S
N234 Co178 2.257 . S
N234 C231 1.391 . S
N234 C235 1.388 . S
C235 H206 0.930 . S
C235 C230 1.391 . S
C235 N234 1.388 . S
Co236 O238 2.143 . S
Co236 O244 2.074 . S
Co236 O247 2.093 . S
Co236 O260 2.097 . S
Co236 N277 2.151 . S
Co236 N285 2.214 . S
Co237 O238 2.160 . S
Co237 O243 2.058 . S
Co237 O253 2.057 . S
Co237 O268 2.037 . S
Co237 N272 2.145 . S
Co237 N293 2.257 . S
O238 Co236 2.143 . S
O238 Co237 2.160 . S
C239 O240 1.278 . S
C239 O247 1.224 . S
O240 C239 1.278 . S
C241 O242 1.245 . S
C241 O253 1.232 . S
O242 C241 1.245 . S
O243 Co237 2.058 . S
O243 C269 1.269 . S
O244 Co236 2.074 . S
O244 C269 1.257 . S
H245 C270 0.930 . S
H246 C276 0.930 . S
O247 Co236 2.093 . S
O247 C239 1.224 . S
H248 C280 0.929 . S
H249 C282 0.930 . S
H250 C283 0.930 . S
H251 C281 0.929 . S
H252 C284 0.928 . S
O253 Co237 2.057 . S
O253 C241 1.232 . S
H254 C273 0.929 . S
H255 C274 0.929 . S
H256 C286 0.931 . S
H257 C278 0.929 . S
H258 C287 0.930 . S
H259 C279 0.931 . S
O260 Co236 2.097 . S
O260 C288 1.214 . S
H261 C289 0.929 . S
H262 C290 0.929 . S
H263 C291 0.930 . S
H264 C292 0.929 . S
H265 C294 0.930 . S
H266 C271 0.930 . S
H267 C275 0.930 . S
O268 Co237 2.037 . S
O268 C288 1.234 . S
C269 O243 1.269 . S
C269 O244 1.257 . S
C270 H245 0.930 . S
C270 C273 1.388 . S
C270 C275 1.418 . S
C271 H266 0.930 . S
C271 C274 1.404 . S
C271 C275 1.353 . S
N272 Co237 2.145 . S
N272 C273 1.397 . S
N272 C274 1.334 . S
C273 H254 0.929 . S
C273 C270 1.388 . S
C273 N272 1.397 . S
C274 H255 0.929 . S
C274 C271 1.404 . S
C274 N272 1.334 . S
C275 H267 0.930 . S
C275 C270 1.418 . S
C275 C271 1.353 . S
C276 H246 0.930 . S
C276 N277 1.330 . S
C276 C278 1.446 . S
N277 Co236 2.151 . S
N277 C276 1.330 . S
N277 C281 1.418 . S
C278 H257 0.929 . S
C278 C276 1.446 . S
C278 C279 1.332 . S
C279 H259 0.931 . S
C279 C278 1.332 . S
C279 C280 1.267 . S
C280 H248 0.929 . S
C280 C279 1.267 . S
C280 C281 1.251 . S
C281 H251 0.929 . S
C281 N277 1.418 . S
C281 C280 1.251 . S
C282 H249 0.930 . S
C282 C284 1.406 . S
C282 C287 1.261 . S
C283 H250 0.930 . S
C283 N285 1.325 . S
C283 C286 1.357 . S
C284 H252 0.928 . S
C284 C282 1.406 . S
C284 N285 1.261 . S
N285 Co236 2.214 . S
N285 C283 1.325 . S
N285 C284 1.261 . S
C286 H256 0.931 . S
C286 C283 1.357 . S
C286 C287 1.312 . S
C287 H258 0.930 . S
C287 C282 1.261 . S
C287 C286 1.312 . S
C288 O260 1.214 . S
C288 O268 1.234 . S
C289 H261 0.929 . S
C289 C292 1.391 . S
C289 C294 1.391 . S
C290 H262 0.929 . S
C290 C291 1.390 . S
C290 N293 1.391 . S
C291 H263 0.930 . S
C291 C290 1.390 . S
C291 C292 1.392 . S
C292 H264 0.929 . S
C292 C289 1.391 . S
C292 C291 1.392 . S
N293 Co237 2.257 . S
N293 C290 1.391 . S
N293 C294 1.388 . S
C294 H265 0.930 . S
C294 C289 1.391 . S
C294 N293 1.388 . S
Co295 O297 2.143 . S
Co295 O303 2.074 1_554 S
Co295 O306 2.093 . S
Co295 O319 2.097 . S
Co295 N336 2.151 . S
Co295 N344 2.214 . S
Co296 O297 2.160 1_556 S
Co296 O302 2.058 . S
Co296 O312 2.057 . S
Co296 O327 2.037 . S
Co296 N331 2.145 . S
Co296 N352 2.257 1_556 S
O297 Co295 2.143 . S
O297 Co296 2.160 1_554 S
C298 O299 1.278 . S
C298 O306 1.224 . S
O299 C298 1.278 . S
C300 O301 1.245 . S
C300 O312 1.232 1_554 S
O301 C300 1.245 . S
O302 Co296 2.058 . S
O302 C328 1.269 . S
O303 Co295 2.074 1_556 S
O303 C328 1.257 . S
H304 C329 0.930 . S
H305 C335 0.930 . S
O306 Co295 2.093 . S
O306 C298 1.224 . S
H307 C339 0.929 . S
H308 C341 0.930 . S
H309 C342 0.930 . S
H310 C340 0.929 . S
H311 C343 0.928 . S
O312 Co296 2.057 . S
O312 C300 1.232 1_556 S
H313 C332 0.929 . S
H314 C333 0.929 . S
H315 C345 0.931 . S
H316 C337 0.929 . S
H317 C346 0.930 . S
H318 C338 0.931 . S
O319 Co295 2.097 . S
O319 C347 1.214 . S
H320 C348 0.929 . S
H321 C349 0.929 . S
H322 C350 0.930 . S
H323 C351 0.929 . S
H324 C353 0.930 . S
H325 C330 0.930 . S
H326 C334 0.930 . S
O327 Co296 2.037 . S
O327 C347 1.234 1_556 S
C328 O302 1.269 . S
C328 O303 1.257 . S
C329 H304 0.930 . S
C329 C332 1.388 . S
C329 C334 1.418 . S
C330 H325 0.930 . S
C330 C333 1.404 . S
C330 C334 1.353 . S
N331 Co296 2.145 . S
N331 C332 1.397 . S
N331 C333 1.334 . S
C332 H313 0.929 . S
C332 C329 1.388 . S
C332 N331 1.397 . S
C333 H314 0.929 . S
C333 C330 1.404 . S
C333 N331 1.334 . S
C334 H326 0.930 . S
C334 C329 1.418 . S
C334 C330 1.353 . S
C335 H305 0.930 . S
C335 N336 1.330 . S
C335 C337 1.446 . S
N336 Co295 2.151 . S
N336 C335 1.330 . S
N336 C340 1.418 1_554 S
C337 H316 0.929 . S
C337 C335 1.446 . S
C337 C338 1.332 . S
C338 H318 0.931 . S
C338 C337 1.332 . S
C338 C339 1.267 1_554 S
C339 H307 0.929 . S
C339 C338 1.267 1_556 S
C339 C340 1.251 . S
C340 H310 0.929 . S
C340 N336 1.418 1_556 S
C340 C339 1.251 . S
C341 H308 0.930 . S
C341 C343 1.406 . S
C341 C346 1.261 1_554 S
C342 H309 0.930 . S
C342 N344 1.325 1_556 S
C342 C345 1.357 . S
C343 H311 0.928 . S
C343 C341 1.406 . S
C343 N344 1.261 . S
N344 Co295 2.214 . S
N344 C342 1.325 1_554 S
N344 C343 1.261 . S
C345 H315 0.931 . S
C345 C342 1.357 . S
C345 C346 1.312 . S
C346 H317 0.930 . S
C346 C341 1.261 1_556 S
C346 C345 1.312 . S
C347 O319 1.214 . S
C347 O327 1.234 1_554 S
C348 H320 0.929 . S
C348 C351 1.391 . S
C348 C353 1.391 . S
C349 H321 0.929 . S
C349 C350 1.390 . S
C349 N352 1.391 . S
C350 H322 0.930 . S
C350 C349 1.390 . S
C350 C351 1.392 . S
C351 H323 0.929 . S
C351 C348 1.391 . S
C351 C350 1.392 . S
N352 Co296 2.257 1_554 S
N352 C349 1.391 . S
N352 C353 1.388 . S
C353 H324 0.930 . S
C353 C348 1.391 . S
C353 N352 1.388 . S
Co354 O356 2.143 . S
Co354 O362 2.074 . S
Co354 O365 2.093 . S
Co354 O378 2.097 . S
Co354 N395 2.151 . S
Co354 N403 2.214 . S
Co355 O356 2.160 . S
Co355 O361 2.058 . S
Co355 O371 2.057 . S
Co355 O386 2.037 . S
Co355 N390 2.145 . S
Co355 N411 2.257 . S
O356 Co354 2.143 . S
O356 Co355 2.160 . S
C357 O358 1.278 . S
C357 O365 1.224 . S
O358 C357 1.278 . S
C359 O360 1.245 . S
C359 O371 1.232 . S
O360 C359 1.245 . S
O361 Co355 2.058 . S
O361 C387 1.269 . S
O362 Co354 2.074 . S
O362 C387 1.257 . S
H363 C388 0.930 . S
H364 C394 0.930 . S
O365 Co354 2.093 . S
O365 C357 1.224 . S
H366 C398 0.929 . S
H367 C400 0.930 . S
H368 C401 0.930 . S
H369 C399 0.929 . S
H370 C402 0.928 . S
O371 Co355 2.057 . S
O371 C359 1.232 . S
H372 C391 0.929 . S
H373 C392 0.929 . S
H374 C404 0.931 . S
H375 C396 0.929 . S
H376 C405 0.930 . S
H377 C397 0.931 . S
O378 Co354 2.097 . S
O378 C406 1.214 . S
H379 C407 0.929 . S
H380 C408 0.929 . S
H381 C409 0.930 . S
H382 C410 0.929 . S
H383 C412 0.930 . S
H384 C389 0.930 . S
H385 C393 0.930 . S
O386 Co355 2.037 . S
O386 C406 1.234 . S
C387 O361 1.269 . S
C387 O362 1.257 . S
C388 H363 0.930 . S
C388 C391 1.388 . S
C388 C393 1.418 . S
C389 H384 0.930 . S
C389 C392 1.404 . S
C389 C393 1.353 . S
N390 Co355 2.145 . S
N390 C391 1.397 . S
N390 C392 1.334 . S
C391 H372 0.929 . S
C391 C388 1.388 . S
C391 N390 1.397 . S
C392 H373 0.929 . S
C392 C389 1.404 . S
C392 N390 1.334 . S
C393 H385 0.930 . S
C393 C388 1.418 . S
C393 C389 1.353 . S
C394 H364 0.930 . S
C394 N395 1.330 . S
C394 C396 1.446 . S
N395 Co354 2.151 . S
N395 C394 1.330 . S
N395 C399 1.418 . S
C396 H375 0.929 . S
C396 C394 1.446 . S
C396 C397 1.332 . S
C397 H377 0.931 . S
C397 C396 1.332 . S
C397 C398 1.267 . S
C398 H366 0.929 . S
C398 C397 1.267 . S
C398 C399 1.251 . S
C399 H369 0.929 . S
C399 N395 1.418 . S
C399 C398 1.251 . S
C400 H367 0.930 . S
C400 C402 1.406 . S
C400 C405 1.261 . S
C401 H368 0.930 . S
C401 N403 1.325 . S
C401 C404 1.357 . S
C402 H370 0.928 . S
C402 C400 1.406 . S
C402 N403 1.261 . S
N403 Co354 2.214 . S
N403 C401 1.325 . S
N403 C402 1.261 . S
C404 H374 0.931 . S
C404 C401 1.357 . S
C404 C405 1.312 . S
C405 H376 0.930 . S
C405 C400 1.261 . S
C405 C404 1.312 . S
C406 O378 1.214 . S
C406 O386 1.234 . S
C407 H379 0.929 . S
C407 C410 1.391 . S
C407 C412 1.391 . S
C408 H380 0.929 . S
C408 C409 1.390 . S
C408 N411 1.391 . S
C409 H381 0.930 . S
C409 C408 1.390 . S
C409 C410 1.392 . S
C410 H382 0.929 . S
C410 C407 1.391 . S
C410 C409 1.392 . S
N411 Co355 2.257 . S
N411 C408 1.391 . S
N411 C412 1.388 . S
C412 H383 0.930 . S
C412 C407 1.391 . S
C412 N411 1.388 . S
Co413 O415 2.143 . S
Co413 O421 2.074 1_554 S
Co413 O424 2.093 . S
Co413 O437 2.097 . S
Co413 N454 2.151 . S
Co413 N462 2.214 . S
Co414 O415 2.160 1_556 S
Co414 O420 2.058 . S
Co414 O430 2.057 . S
Co414 O445 2.037 . S
Co414 N449 2.145 . S
Co414 N470 2.257 1_556 S
O415 Co413 2.143 . S
O415 Co414 2.160 1_554 S
C416 O417 1.278 . S
C416 O424 1.224 . S
O417 C416 1.278 . S
C418 O419 1.245 . S
C418 O430 1.232 1_554 S
O419 C418 1.245 . S
O420 Co414 2.058 . S
O420 C446 1.269 . S
O421 Co413 2.074 1_556 S
O421 C446 1.257 . S
H422 C447 0.930 . S
H423 C453 0.930 . S
O424 Co413 2.093 . S
O424 C416 1.224 . S
H425 C457 0.929 . S
H426 C459 0.930 . S
H427 C460 0.930 . S
H428 C458 0.929 . S
H429 C461 0.928 . S
O430 Co414 2.057 . S
O430 C418 1.232 1_556 S
H431 C450 0.929 . S
H432 C451 0.929 . S
H433 C463 0.931 . S
H434 C455 0.929 . S
H435 C464 0.930 . S
H436 C456 0.931 . S
O437 Co413 2.097 . S
O437 C465 1.214 . S
H438 C466 0.929 . S
H439 C467 0.929 . S
H440 C468 0.930 . S
H441 C469 0.929 . S
H442 C471 0.930 . S
H443 C448 0.930 . S
H444 C452 0.930 . S
O445 Co414 2.037 . S
O445 C465 1.234 1_556 S
C446 O420 1.269 . S
C446 O421 1.257 . S
C447 H422 0.930 . S
C447 C450 1.388 . S
C447 C452 1.418 . S
C448 H443 0.930 . S
C448 C451 1.404 . S
C448 C452 1.353 . S
N449 Co414 2.145 . S
N449 C450 1.397 . S
N449 C451 1.334 . S
C450 H431 0.929 . S
C450 C447 1.388 . S
C450 N449 1.397 . S
C451 H432 0.929 . S
C451 C448 1.404 . S
C451 N449 1.334 . S
C452 H444 0.930 . S
C452 C447 1.418 . S
C452 C448 1.353 . S
C453 H423 0.930 . S
C453 N454 1.330 . S
C453 C455 1.446 . S
N454 Co413 2.151 . S
N454 C453 1.330 . S
N454 C458 1.418 1_554 S
C455 H434 0.929 . S
C455 C453 1.446 . S
C455 C456 1.332 . S
C456 H436 0.931 . S
C456 C455 1.332 . S
C456 C457 1.267 1_554 S
C457 H425 0.929 . S
C457 C456 1.267 1_556 S
C457 C458 1.251 . S
C458 H428 0.929 . S
C458 N454 1.418 1_556 S
C458 C457 1.251 . S
C459 H426 0.930 . S
C459 C461 1.406 . S
C459 C464 1.261 1_554 S
C460 H427 0.930 . S
C460 N462 1.325 1_556 S
C460 C463 1.357 . S
C461 H429 0.928 . S
C461 C459 1.406 . S
C461 N462 1.261 . S
N462 Co413 2.214 . S
N462 C460 1.325 1_554 S
N462 C461 1.261 . S
C463 H433 0.931 . S
C463 C460 1.357 . S
C463 C464 1.312 . S
C464 H435 0.930 . S
C464 C459 1.261 1_556 S
C464 C463 1.312 . S
C465 O437 1.214 . S
C465 O445 1.234 1_554 S
C466 H438 0.929 . S
C466 C469 1.391 . S
C466 C471 1.391 . S
C467 H439 0.929 . S
C467 C468 1.390 . S
C467 N470 1.391 . S
C468 H440 0.930 . S
C468 C467 1.390 . S
C468 C469 1.392 . S
C469 H441 0.929 . S
C469 C466 1.391 . S
C469 C468 1.392 . S
N470 Co414 2.257 1_554 S
N470 C467 1.391 . S
N470 C471 1.388 . S
C471 H442 0.930 . S
C471 C466 1.391 . S
C471 N470 1.388 . S
C472 C473 1.369 . S
C472 C474 1.419 . S
C472 H476 0.930 . S
C473 C472 1.369 . S
C473 C482 1.429 . S
C474 C472 1.419 . S
C474 C475 1.363 . S
C474 H477 0.929 . S
C475 C474 1.363 . S
C475 C481 1.428 . S
H476 C472 0.930 . S
H477 C474 0.929 . S
S478 N479 1.613 . S
S478 N480 1.610 . S
N479 S478 1.613 . S
N479 C482 1.350 . S
N480 S478 1.610 . S
N480 C481 1.351 . S
C481 C475 1.428 . S
C481 N480 1.351 . S
C481 C482 1.434 . S
C482 C473 1.429 . S
C482 N479 1.350 . S
C482 C481 1.434 . S
C483 C484 1.369 . S
C483 C485 1.419 . S
C483 H487 0.930 . S
C484 C483 1.369 . S
C484 C493 1.429 . S
C485 C483 1.419 . S
C485 C486 1.363 . S
C485 H488 0.929 . S
C486 C485 1.363 . S
C486 C492 1.428 . S
H487 C483 0.930 . S
H488 C485 0.929 . S
S489 N490 1.613 . S
S489 N491 1.610 . S
N490 S489 1.613 . S
N490 C493 1.350 . S
N491 S489 1.610 . S
N491 C492 1.351 . S
C492 C486 1.428 . S
C492 N491 1.351 . S
C492 C493 1.434 . S
C493 C484 1.429 . S
C493 N490 1.350 . S
C493 C492 1.434 . S
C494 C495 1.369 . S
C494 C496 1.419 . S
C494 H498 0.930 . S
C495 C494 1.369 . S
C495 C504 1.429 . S
C496 C494 1.419 . S
C496 C497 1.363 . S
C496 H499 0.929 . S
C497 C496 1.363 . S
C497 C503 1.428 . S
H498 C494 0.930 . S
H499 C496 0.929 . S
S500 N501 1.613 . S
S500 N502 1.610 . S
N501 S500 1.613 . S
N501 C504 1.350 . S
N502 S500 1.610 . S
N502 C503 1.351 . S
C503 C497 1.428 . S
C503 N502 1.351 . S
C503 C504 1.434 . S
C504 C495 1.429 . S
C504 N501 1.350 . S
C504 C503 1.434 . S
C505 C506 1.369 . S
C505 C507 1.419 . S
C505 H509 0.930 . S
C506 C505 1.369 . S
C506 C515 1.429 . S
C507 C505 1.419 . S
C507 C508 1.363 . S
C507 H510 0.929 . S
C508 C507 1.363 . S
C508 C514 1.428 . S
H509 C505 0.930 . S
H510 C507 0.929 . S
S511 N512 1.613 . S
S511 N513 1.610 . S
N512 S511 1.613 . S
N512 C515 1.350 . S
N513 S511 1.610 . S
N513 C514 1.351 . S
C514 C508 1.428 . S
C514 N513 1.351 . S
C514 C515 1.434 . S
C515 C506 1.429 . S
C515 N512 1.350 . S
C515 C514 1.434 . S
C516 C517 1.369 . S
C516 C518 1.419 . S
C516 H520 0.930 . S
C517 C516 1.369 . S
C517 C526 1.429 . S
C518 C516 1.419 . S
C518 C519 1.363 . S
C518 H521 0.929 . S
C519 C518 1.363 . S
C519 C525 1.428 . S
H520 C516 0.930 . S
H521 C518 0.929 . S
S522 N523 1.613 . S
S522 N524 1.610 . S
N523 S522 1.613 . S
N523 C526 1.350 . S
N524 S522 1.610 . S
N524 C525 1.351 . S
C525 C519 1.428 . S
C525 N524 1.351 . S
C525 C526 1.434 . S
C526 C517 1.429 . S
C526 N523 1.350 . S
C526 C525 1.434 . S
C527 C528 1.369 . S
C527 C529 1.419 . S
C527 H531 0.930 . S
C528 C527 1.369 . S
C528 C537 1.429 . S
C529 C527 1.419 . S
C529 C530 1.363 . S
C529 H532 0.929 . S
C530 C529 1.363 . S
C530 C536 1.428 . S
H531 C527 0.930 . S
H532 C529 0.929 . S
S533 N534 1.613 . S
S533 N535 1.610 . S
N534 S533 1.613 . S
N534 C537 1.350 . S
N535 S533 1.610 . S
N535 C536 1.351 . S
C536 C530 1.428 . S
C536 N535 1.351 . S
C536 C537 1.434 . S
C537 C528 1.429 . S
C537 N534 1.350 . S
C537 C536 1.434 . S
C538 C539 1.369 . S
C538 C540 1.419 . S
C538 H542 0.930 . S
C539 C538 1.369 . S
C539 C548 1.429 . S
C540 C538 1.419 . S
C540 C541 1.363 . S
C540 H543 0.929 . S
C541 C540 1.363 . S
C541 C547 1.428 . S
H542 C538 0.930 . S
H543 C540 0.929 . S
S544 N545 1.613 . S
S544 N546 1.610 . S
N545 S544 1.613 . S
N545 C548 1.350 . S
N546 S544 1.610 . S
N546 C547 1.351 . S
C547 C541 1.428 . S
C547 N546 1.351 . S
C547 C548 1.434 . S
C548 C539 1.429 . S
C548 N545 1.350 . S
C548 C547 1.434 . S
C549 C550 1.369 . S
C549 C551 1.419 . S
C549 H553 0.930 . S
C550 C549 1.369 . S
C550 C559 1.429 . S
C551 C549 1.419 . S
C551 C552 1.363 . S
C551 H554 0.929 . S
C552 C551 1.363 . S
C552 C558 1.428 . S
H553 C549 0.930 . S
H554 C551 0.929 . S
S555 N556 1.613 . S
S555 N557 1.610 . S
N556 S555 1.613 . S
N556 C559 1.350 . S
N557 S555 1.610 . S
N557 C558 1.351 . S
C558 C552 1.428 . S
C558 N557 1.351 . S
C558 C559 1.434 . S
C559 C550 1.429 . S
C559 N556 1.350 . S
C559 C558 1.434 . S
C560 C561 1.369 . S
C560 C562 1.419 1_655 S
C560 H564 0.930 . S
C561 C560 1.369 . S
C561 C570 1.429 . S
C562 C560 1.419 1_455 S
C562 C563 1.363 . S
C562 H565 0.929 . S
C563 C562 1.363 . S
C563 C569 1.428 . S
H564 C560 0.930 . S
H565 C562 0.929 . S
S566 N567 1.613 . S
S566 N568 1.610 1_655 S
N567 S566 1.613 . S
N567 C570 1.350 1_556 S
N568 S566 1.610 1_455 S
N568 C569 1.351 1_556 S
C569 C563 1.428 . S
C569 N568 1.351 1_554 S
C569 C570 1.434 1_455 S
C570 C561 1.429 . S
C570 N567 1.350 1_554 S
C570 C569 1.434 1_655 S
C571 C572 1.369 . S
C571 C573 1.419 1_565 S
C571 H575 0.930 . S
C572 C571 1.369 . S
C572 C581 1.429 . S
C573 C571 1.419 1_545 S
C573 C574 1.363 . S
C573 H576 0.929 . S
C574 C573 1.363 . S
C574 C580 1.428 . S
H575 C571 0.930 . S
H576 C573 0.929 . S
S577 N578 1.613 . S
S577 N579 1.610 1_565 S
N578 S577 1.613 . S
N578 C581 1.350 . S
N579 S577 1.610 1_545 S
N579 C580 1.351 . S
C580 C574 1.428 . S
C580 N579 1.351 . S
C580 C581 1.434 1_545 S
C581 C572 1.429 . S
C581 N578 1.350 . S
C581 C580 1.434 1_565 S
C582 C583 1.369 . S
C582 C584 1.419 1_455 S
C582 H586 0.930 . S
C583 C582 1.369 . S
C583 C592 1.429 . S
C584 C582 1.419 1_655 S
C584 C585 1.363 . S
C584 H587 0.929 . S
C585 C584 1.363 . S
C585 C591 1.428 . S
H586 C582 0.930 . S
H587 C584 0.929 . S
S588 N589 1.613 1_655 S
S588 N590 1.610 . S
N589 S588 1.613 1_455 S
N589 C592 1.350 . S
N590 S588 1.610 . S
N590 C591 1.351 . S
C591 C585 1.428 . S
C591 N590 1.351 . S
C591 C592 1.434 1_655 S
C592 C583 1.429 . S
C592 N589 1.350 . S
C592 C591 1.434 1_455 S
C593 C594 1.369 1_556 S
C593 C595 1.419 1_565 S
C593 H597 0.930 . S
C594 C593 1.369 1_554 S
C594 C603 1.429 . S
C595 C593 1.419 1_545 S
C595 C596 1.363 1_556 S
C595 H598 0.929 . S
C596 C595 1.363 1_554 S
C596 C602 1.428 . S
H597 C593 0.930 . S
H598 C595 0.929 . S
S599 N600 1.613 1_545 S
S599 N601 1.610 . S
N600 S599 1.613 1_565 S
N600 C603 1.350 . S
N601 S599 1.610 . S
N601 C602 1.351 . S
C602 C596 1.428 . S
C602 N601 1.351 . S
C602 C603 1.434 1_545 S
C603 C594 1.429 . S
C603 N600 1.350 . S
C603 C602 1.434 1_565 S
C604 C605 1.369 . S
C604 C606 1.419 . S
C604 H608 0.930 . S
C605 C604 1.369 . S
C605 C614 1.429 1_554 S
C606 C604 1.419 . S
C606 C607 1.363 . S
C606 H609 0.929 . S
C607 C606 1.363 . S
C607 C613 1.428 1_554 S
H608 C604 0.930 . S
H609 C606 0.929 . S
S610 N611 1.613 . S
S610 N612 1.610 . S
N611 S610 1.613 . S
N611 C614 1.350 . S
N612 S610 1.610 . S
N612 C613 1.351 . S
C613 C607 1.428 1_556 S
C613 N612 1.351 . S
C613 C614 1.434 . S
C614 C605 1.429 1_556 S
C614 N611 1.350 . S
C614 C613 1.434 . S
C615 C616 1.369 . S
C615 C617 1.419 . S
C615 H619 0.930 . S
C616 C615 1.369 . S
C616 C625 1.429 . S
C617 C615 1.419 . S
C617 C618 1.363 . S
C617 H620 0.929 . S
C618 C617 1.363 . S
C618 C624 1.428 . S
H619 C615 0.930 . S
H620 C617 0.929 . S
S621 N622 1.613 . S
S621 N623 1.610 . S
N622 S621 1.613 . S
N622 C625 1.350 . S
N623 S621 1.610 . S
N623 C624 1.351 . S
C624 C618 1.428 . S
C624 N623 1.351 . S
C624 C625 1.434 . S
C625 C616 1.429 . S
C625 N622 1.350 . S
C625 C624 1.434 . S
C626 C627 1.369 . S
C626 C628 1.419 . S
C626 H630 0.930 . S
C627 C626 1.369 . S
C627 C636 1.429 . S
C628 C626 1.419 . S
C628 C629 1.363 . S
C628 H631 0.929 . S
C629 C628 1.363 . S
C629 C635 1.428 1_554 S
H630 C626 0.930 . S
H631 C628 0.929 . S
S632 N633 1.613 . S
S632 N634 1.610 . S
N633 S632 1.613 . S
N633 C636 1.350 1_556 S
N634 S632 1.610 . S
N634 C635 1.351 . S
C635 C629 1.428 1_556 S
C635 N634 1.351 . S
C635 C636 1.434 1_556 S
C636 C627 1.429 . S
C636 N633 1.350 1_554 S
C636 C635 1.434 1_554 S
C637 C638 1.369 . S
C637 C639 1.419 . S
C637 H641 0.930 . S
C638 C637 1.369 . S
C638 C647 1.429 . S
C639 C637 1.419 . S
C639 C640 1.363 . S
C639 H642 0.929 . S
C640 C639 1.363 . S
C640 C646 1.428 . S
H641 C637 0.930 . S
H642 C639 0.929 . S
S643 N644 1.613 . S
S643 N645 1.610 . S
N644 S643 1.613 . S
N644 C647 1.350 . S
N645 S643 1.610 . S
N645 C646 1.351 . S
C646 C640 1.428 . S
C646 N645 1.351 . S
C646 C647 1.434 . S
C647 C638 1.429 . S
C647 N644 1.350 . S
C647 C646 1.434 . S
C473 C33 1.531 . S
C475 C269 1.531 . S
C484 C92 1.531 . S
C486 C328 1.528 . S
C495 C387 1.532 . S
C497 C151 1.530 . S
C506 C446 1.531 . S
C508 C210 1.531 . S
C517 C357 1.324 . S
C519 C121 1.320 . S
C528 C416 1.325 . S
C530 C180 1.322 . S
C539 C3 1.318 . S
C541 C239 1.322 . S
C550 C62 1.324 . S
C552 C298 1.320 . S
C561 C170 1.444 . S
C563 C52 1.447 . S
C572 C229 1.444 . S
C574 C111 1.448 . S
C583 C288 1.445 . S
C585 C406 1.445 . S
C594 C465 1.446 . S
C596 C347 1.444 . S
C605 C5 1.480 . S
C607 C300 1.483 . S
C616 C359 1.484 . S
C618 C64 1.481 . S
C627 C123 1.483 . S
C629 C418 1.483 . S
C638 C182 1.483 . S
C640 C241 1.482 . S
