# Generated by pormake.
# Topology wme, (6)-cn, num edge types: 1
# Building blocks:
#     Node 0, Type 0, BuildingBlock: MIDCAF_clean_sbu_0, # of connection points: 6
#     Node 1, Type 0, BuildingBlock: MIDCAF_clean_sbu_0, # of connection points: 6
#     Node 2, Type 0, BuildingBlock: MIDCAF_clean_sbu_0, # of connection points: 6
#     Node 3, Type 0, BuildingBlock: MIDCAF_clean_sbu_0, # of connection points: 6
#     Node 4, Type 0, BuildingBlock: MIDCAF_clean_sbu_0, # of connection points: 6
#     Node 5, Type 0, BuildingBlock: MIDCAF_clean_sbu_0, # of connection points: 6
#     Node 6, Type 0, BuildingBlock: MIDCAF_clean_sbu_0, # of connection points: 6
#     Node 7, Type 0, BuildingBlock: MIDCAF_clean_sbu_0, # of connection points: 6
#     Node 8, Type 0, BuildingBlock: MIDCAF_clean_sbu_0, # of connection points: 6
#     Node 9, Type 0, BuildingBlock: MIDCAF_clean_sbu_0, # of connection points: 6
#     Node 10, Type 0, BuildingBlock: MIDCAF_clean_sbu_0, # of connection points: 6
#     Node 11, Type 0, BuildingBlock: MIDCAF_clean_sbu_0, # of connection points: 6
#     Edge 12, Type (0, 0), BuildingBlock: ZUJKAS_clean_linker_0, # of connection points: 2
#     Edge 13, Type (0, 0), BuildingBlock: ZUJKAS_clean_linker_0, # of connection points: 2
#     Edge 14, Type (0, 0), BuildingBlock: ZUJKAS_clean_linker_0, # of connection points: 2
#     Edge 15, Type (0, 0), BuildingBlock: ZUJKAS_clean_linker_0, # of connection points: 2
#     Edge 16, Type (0, 0), BuildingBlock: ZUJKAS_clean_linker_0, # of connection points: 2
#     Edge 17, Type (0, 0), BuildingBlock: ZUJKAS_clean_linker_0, # of connection points: 2
#     Edge 18, Type (0, 0), BuildingBlock: ZUJKAS_clean_linker_0, # of connection points: 2
#     Edge 19, Type (0, 0), BuildingBlock: ZUJKAS_clean_linker_0, # of connection points: 2
#     Edge 20, Type (0, 0), BuildingBlock: ZUJKAS_clean_linker_0, # of connection points: 2
#     Edge 21, Type (0, 0), BuildingBlock: ZUJKAS_clean_linker_0, # of connection points: 2
#     Edge 22, Type (0, 0), BuildingBlock: ZUJKAS_clean_linker_0, # of connection points: 2
#     Edge 23, Type (0, 0), BuildingBlock: ZUJKAS_clean_linker_0, # of connection points: 2
#     Edge 24, Type (0, 0), BuildingBlock: ZUJKAS_clean_linker_0, # of connection points: 2
#     Edge 25, Type (0, 0), BuildingBlock: ZUJKAS_clean_linker_0, # of connection points: 2
#     Edge 26, Type (0, 0), BuildingBlock: ZUJKAS_clean_linker_0, # of connection points: 2
#     Edge 27, Type (0, 0), BuildingBlock: ZUJKAS_clean_linker_0, # of connection points: 2
#     Edge 28, Type (0, 0), BuildingBlock: ZUJKAS_clean_linker_0, # of connection points: 2
#     Edge 29, Type (0, 0), BuildingBlock: ZUJKAS_clean_linker_0, # of connection points: 2
#     Edge 30, Type (0, 0), BuildingBlock: ZUJKAS_clean_linker_0, # of connection points: 2
#     Edge 31, Type (0, 0), BuildingBlock: ZUJKAS_clean_linker_0, # of connection points: 2
#     Edge 32, Type (0, 0), BuildingBlock: ZUJKAS_clean_linker_0, # of connection points: 2
#     Edge 33, Type (0, 0), BuildingBlock: ZUJKAS_clean_linker_0, # of connection points: 2
#     Edge 34, Type (0, 0), BuildingBlock: ZUJKAS_clean_linker_0, # of connection points: 2
#     Edge 35, Type (0, 0), BuildingBlock: ZUJKAS_clean_linker_0, # of connection points: 2
#     Edge 36, Type (0, 0), BuildingBlock: ZUJKAS_clean_linker_0, # of connection points: 2
#     Edge 37, Type (0, 0), BuildingBlock: ZUJKAS_clean_linker_0, # of connection points: 2
#     Edge 38, Type (0, 0), BuildingBlock: ZUJKAS_clean_linker_0, # of connection points: 2
#     Edge 39, Type (0, 0), BuildingBlock: ZUJKAS_clean_linker_0, # of connection points: 2
#     Edge 40, Type (0, 0), BuildingBlock: ZUJKAS_clean_linker_0, # of connection points: 2
#     Edge 41, Type (0, 0), BuildingBlock: ZUJKAS_clean_linker_0, # of connection points: 2
#     Edge 42, Type (0, 0), BuildingBlock: ZUJKAS_clean_linker_0, # of connection points: 2
#     Edge 43, Type (0, 0), BuildingBlock: ZUJKAS_clean_linker_0, # of connection points: 2
#     Edge 44, Type (0, 0), BuildingBlock: ZUJKAS_clean_linker_0, # of connection points: 2
#     Edge 45, Type (0, 0), BuildingBlock: ZUJKAS_clean_linker_0, # of connection points: 2
#     Edge 46, Type (0, 0), BuildingBlock: ZUJKAS_clean_linker_0, # of connection points: 2
#     Edge 47, Type (0, 0), BuildingBlock: ZUJKAS_clean_linker_0, # of connection points: 2
# Relax obj value: 0.386
# Max RMSD: 0.269
# Mean RMSD: 0.269
data_MOF--net-wme--node1-MIDCAF_clean_sbu_0--edge1-ZUJKAS_clean_linker_0
_symmetry_space_group_name_H-M    P1
_symmetry_Int_Tables_number       1
_symmetry_cell_setting            triclinic
loop_
_symmetry_equiv_pos_as_xyz
'x, y, z'
_cell_length_a     35.908894
_cell_length_b     35.948253
_cell_length_c     75.251987
_cell_angle_alpha  90.063068
_cell_angle_beta   89.999577
_cell_angle_gamma 120.07452
loop_
_atom_site_label
_atom_site_type_symbol
_atom_site_fract_x
_atom_site_fract_y
_atom_site_fract_z
_atom_type_partial_charge
Zn0 Zn 0.20826 0.28061 0.14744 0.0
Zn1 Zn 0.25491 0.38697 0.10082 0.0
Zn2 Zn 0.23334 0.33312 0.12424 0.0
C3 C 0.20827 0.40427 0.12531 0.0
C4 C 0.33028 0.39662 0.11575 0.0
O5 O 0.28318 0.31484 0.12563 0.0
O6 O 0.23872 0.2524 0.13796 0.0
C7 C 0.14047 0.2604 0.12395 0.0
O8 O 0.21869 0.38133 0.13495 0.0
O9 O 0.21652 0.40825 0.1089 0.0
O10 O 0.31673 0.41787 0.10734 0.0
O11 O 0.30347 0.35909 0.12187 0.0
O12 O 0.14667 0.25946 0.14045 0.0
O13 O 0.17305 0.2813 0.11365 0.0
O14 O 0.22035 0.35851 0.14958 0.0
O15 O 0.23291 0.31879 0.16819 0.0
C16 C 0.22774 0.3505 0.16552 0.0
O17 O 0.19894 0.29909 0.09916 0.0
O18 O 0.23779 0.34989 0.07973 0.0
C19 C 0.27333 0.27623 0.12977 0.0
C20 C 0.21 0.31132 0.08291 0.0
Zn21 Zn 0.85547 0.23917 0.60699 0.0
Zn22 Zn 0.92351 0.17879 0.64072 0.0
Zn23 Zn 0.89114 0.21313 0.62417 0.0
C24 C 0.87334 0.19225 0.66478 0.0
C25 C 0.87563 0.12301 0.6133 0.0
O26 O 0.89259 0.19313 0.5962 0.0
O27 O 0.88813 0.24696 0.58469 0.0
C28 C 0.91282 0.30488 0.62854 0.0
O29 O 0.85555 0.19319 0.65002 0.0
O30 O 0.90743 0.19027 0.66442 0.0
O31 O 0.88879 0.12181 0.62875 0.0
O32 O 0.87991 0.15849 0.60728 0.0
O33 O 0.87413 0.28882 0.62364 0.0
O34 O 0.93219 0.2833 0.62638 0.0
O35 O 0.82669 0.18879 0.63641 0.0
O36 O 0.79858 0.18635 0.61014 0.0
C37 C 0.79351 0.17434 0.62614 0.0
O38 O 0.95902 0.26484 0.62627 0.0
O39 O 0.98169 0.21916 0.63192 0.0
C40 C 0.89777 0.21788 0.58288 0.0
C41 C 0.98978 0.25634 0.6275 0.0
Zn42 Zn 0.73682 0.9326 0.14571 0.0
Zn43 Zn 0.60348 0.85781 0.12042 0.0
Zn44 Zn 0.67406 0.89653 0.12808 0.0
C45 C 0.63147 0.80076 0.11998 0.0
C46 C 0.61401 0.92994 0.13226 0.0
O47 O 0.69833 0.96369 0.12081 0.0
O48 O 0.75308 0.99249 0.13939 0.0
C49 C 0.75082 0.88393 0.11866 0.0
O50 O 0.66474 0.83639 0.11524 0.0
O51 O 0.59921 0.80141 0.12631 0.0
O52 O 0.59249 0.8924 0.13849 0.0
O53 O 0.64742 0.93908 0.12291 0.0
O54 O 0.7677 0.90736 0.13223 0.0
O55 O 0.71253 0.87419 0.11386 0.0
O56 O 0.64892 0.86807 0.15375 0.0
O57 O 0.70803 0.90823 0.16891 0.0
C58 C 0.66876 0.87939 0.16859 0.0
O59 O 0.67973 0.87431 0.10184 0.0
O60 O 0.62551 0.88348 0.09508 0.0
C61 C 0.73175 0.99686 0.12704 0.0
C62 C 0.65943 0.88367 0.09016 0.0
Zn63 Zn 0.79131 0.72535 0.64485 0.0
Zn64 Zn 0.75513 0.61143 0.60461 0.0
Zn65 Zn 0.77109 0.66911 0.62287 0.0
C66 C 0.8163 0.61545 0.62558 0.0
C67 C 0.68155 0.59458 0.62203 0.0
O68 O 0.7163 0.6802 0.62232 0.0
O69 O 0.75534 0.74559 0.6332 0.0
C70 C 0.8593 0.74323 0.62016 0.0
O71 O 0.79606 0.62948 0.63508 0.0
O72 O 0.81029 0.61197 0.609 0.0
O73 O 0.70229 0.57516 0.61943 0.0
O74 O 0.70113 0.63567 0.62045 0.0
O75 O 0.85268 0.74727 0.63641 0.0
O76 O 0.82717 0.71933 0.61008 0.0
O77 O 0.78772 0.65018 0.6486 0.0
O78 O 0.76924 0.68733 0.66614 0.0
C79 C 0.77848 0.65802 0.66421 0.0
O80 O 0.79808 0.69931 0.59675 0.0
O81 O 0.74819 0.64094 0.58362 0.0
C82 C 0.72234 0.71825 0.62488 0.0
C83 C 0.77442 0.68084 0.58303 0.0
Zn84 Zn 0.05836 0.8049 0.17205 0.0
Zn85 Zn 0.12096 0.71077 0.09551 0.0
Zn86 Zn 0.09488 0.77516 0.128 0.0
C87 C 0.1907 0.78119 0.11819 0.0
C88 C 0.05896 0.68925 0.12428 0.0
O89 O 0.04436 0.7385 0.1478 0.0
O90 O 0.00511 0.74477 0.16841 0.0
C91 C 0.08551 0.85331 0.13154 0.0
O92 O 0.16379 0.78981 0.12617 0.0
O93 O 0.17885 0.7513 0.10662 0.0
O94 O 0.07361 0.70876 0.10978 0.0
O95 O 0.05333 0.71074 0.13619 0.0
O96 O 0.07816 0.84377 0.14814 0.0
O97 O 0.08371 0.82571 0.12018 0.0
O98 O 0.15458 0.80573 0.14284 0.0
O99 O 0.10573 0.81325 0.15571 0.0
C100 C 0.14188 0.81587 0.15686 0.0
O101 O 0.07518 0.79381 0.104 0.0
O102 O 0.09335 0.74939 0.09244 0.0
C103 C 0.01009 0.73961 0.15205 0.0
C104 C 0.07646 0.77289 0.09048 0.0
Zn105 Zn 0.26931 0.07647 0.64043 0.0
Zn106 Zn 0.40186 0.13086 0.61736 0.0
Zn107 Zn 0.33232 0.1038 0.62422 0.0
C108 C 0.39187 0.19821 0.6119 0.0
C109 C 0.38299 0.06037 0.63252 0.0
O110 O 0.303 0.0348 0.61829 0.0
O111 O 0.24193 0.01649 0.63198 0.0
C112 C 0.27063 0.13745 0.61569 0.0
O113 O 0.35426 0.16538 0.60894 0.0
O114 O 0.42023 0.19238 0.61918 0.0
O115 O 0.40786 0.09841 0.63764 0.0
O116 O 0.35107 0.05323 0.62248 0.0
O117 O 0.25251 0.11668 0.62965 0.0
O118 O 0.30282 0.13546 0.6091 0.0
O119 O 0.35703 0.13204 0.65018 0.0
O120 O 0.29668 0.09027 0.6642 0.0
C121 C 0.3362 0.11819 0.66472 0.0
O122 O 0.32895 0.12208 0.59679 0.0
O123 O 0.37576 0.10037 0.59329 0.0
C124 C 0.26445 0.00624 0.62253 0.0
C125 C 0.34535 0.10455 0.58689 0.0
Zn126 Zn 0.59391 0.74019 0.39046 0.0
Zn127 Zn 0.73209 0.8175 0.36781 0.0
Zn128 Zn 0.6662 0.77678 0.38393 0.0
C129 C 0.66257 0.79623 0.34426 0.0
C130 C 0.73545 0.87151 0.39569 0.0
O131 O 0.66581 0.80417 0.4095 0.0
O132 O 0.61283 0.74065 0.41693 0.0
C133 C 0.61239 0.68128 0.38214 0.0
O134 O 0.64111 0.77562 0.35789 0.0
O135 O 0.70318 0.81832 0.34508 0.0
O136 O 0.75861 0.87027 0.38332 0.0
O137 O 0.69737 0.83919 0.39833 0.0
O138 O 0.58898 0.6932 0.37432 0.0
O139 O 0.64507 0.70956 0.39093 0.0
O140 O 0.65003 0.82445 0.39535 0.0
O141 O 0.58752 0.78991 0.38171 0.0
C142 C 0.6167 0.82413 0.38875 0.0
O143 O 0.69782 0.74048 0.39063 0.0
O144 O 0.75127 0.77453 0.37174 0.0
C145 C 0.64568 0.77568 0.4216 0.0
C146 C 0.73243 0.7457 0.3834 0.0
Zn147 Zn 0.93003 0.73288 0.86371 0.0
Zn148 Zn 0.85856 0.60004 0.88918 0.0
Zn149 Zn 0.89536 0.67059 0.88129 0.0
C150 C 0.79896 0.62324 0.8903 0.0
C151 C 0.93147 0.61311 0.87617 0.0
O152 O 0.96197 0.6949 0.8895 0.0
O153 O 0.98727 0.75646 0.87528 0.0
C154 C 0.8677 0.73791 0.88622 0.0
O155 O 0.83427 0.65698 0.89483 0.0
O156 O 0.80033 0.59181 0.88352 0.0
O157 O 0.89297 0.58913 0.8713 0.0
O158 O 0.94081 0.64676 0.88542 0.0
O159 O 0.88912 0.75275 0.87203 0.0
O160 O 0.86796 0.7063 0.89421 0.0
O161 O 0.86893 0.64521 0.85538 0.0
O162 O 0.91905 0.70065 0.84082 0.0
C163 C 0.88742 0.66272 0.84077 0.0
O164 O 0.87417 0.67718 0.90763 0.0
O165 O 0.88528 0.62409 0.91416 0.0
C166 C 0.99309 0.73266 0.88591 0.0
C167 C 0.8851 0.65775 0.91916 0.0
Zn168 Zn 0.19332 0.93116 0.36494 0.0
Zn169 Zn 0.26345 0.86288 0.38554 0.0
Zn170 Zn 0.22831 0.89908 0.37936 0.0
C171 C 0.18164 0.80232 0.38882 0.0
C172 C 0.32368 0.93512 0.3746 0.0
O173 O 0.27163 0.96563 0.38702 0.0
O174 O 0.23169 0.98951 0.37486 0.0
C175 C 0.13298 0.87001 0.38911 0.0
O176 O 0.18338 0.83765 0.39341 0.0
O177 O 0.21339 0.8038 0.3809 0.0
O178 O 0.3083 0.89858 0.36733 0.0
O179 O 0.29805 0.94299 0.38366 0.0
O180 O 0.13544 0.89285 0.3759 0.0
O181 O 0.1669 0.86948 0.39447 0.0
O182 O 0.22282 0.87483 0.35224 0.0
O183 O 0.20257 0.91754 0.34035 0.0
C184 C 0.21348 0.88936 0.33846 0.0
O185 O 0.20402 0.87847 0.40636 0.0
O186 O 0.26925 0.88983 0.41079 0.0
C187 C 0.2641 0.99631 0.38396 0.0
C188 C 0.23659 0.89051 0.41684 0.0
Zn189 Zn 0.26711 0.18951 0.86029 0.0
Zn190 Zn 0.38971 0.24439 0.89984 0.0
Zn191 Zn 0.32948 0.22005 0.88168 0.0
C192 C 0.39211 0.18456 0.87962 0.0
C193 C 0.39968 0.31435 0.88232 0.0
O194 O 0.31419 0.2717 0.87972 0.0
O195 O 0.25139 0.23354 0.86635 0.0
C196 C 0.24828 0.13054 0.88858 0.0
O197 O 0.37282 0.19931 0.86995 0.0
O198 O 0.39806 0.19434 0.89589 0.0
O199 O 0.42319 0.29842 0.8858 0.0
O200 O 0.35853 0.29042 0.88315 0.0
O201 O 0.2377 0.1327 0.87275 0.0
O202 O 0.28016 0.16367 0.89582 0.0
O203 O 0.34974 0.20329 0.85619 0.0
O204 O 0.2973 0.19342 0.83789 0.0
C205 C 0.33378 0.1972 0.84038 0.0
O206 O 0.30414 0.19349 0.90849 0.0
O207 O 0.35985 0.24691 0.92165 0.0
C208 C 0.27796 0.26714 0.87458 0.0
C209 C 0.32133 0.21663 0.92247 0.0
Zn210 Zn 0.07707 0.27843 0.36454 0.0
Zn211 Zn 0.14593 0.41174 0.39009 0.0
Zn212 Zn 0.10967 0.34158 0.38225 0.0
C213 C 0.20645 0.3894 0.39042 0.0
C214 C 0.07172 0.39897 0.37992 0.0
O215 O 0.04292 0.31586 0.39028 0.0
O216 O 0.0188 0.25532 0.3753 0.0
C217 C 0.13743 0.27356 0.38793 0.0
O218 O 0.17151 0.35566 0.3953 0.0
O219 O 0.20422 0.42023 0.38348 0.0
O220 O 0.10869 0.42255 0.37335 0.0
O221 O 0.06456 0.36489 0.38832 0.0
O222 O 0.11673 0.25773 0.37367 0.0
O223 O 0.13748 0.30613 0.39518 0.0
O224 O 0.13518 0.36741 0.35614 0.0
O225 O 0.08962 0.30956 0.34137 0.0
C226 C 0.11901 0.34857 0.3414 0.0
O227 O 0.13212 0.33509 0.40831 0.0
O228 O 0.1214 0.38808 0.4155 0.0
C229 C 0.01215 0.27843 0.38604 0.0
C230 C 0.1215 0.35418 0.42014 0.0
Zn231 Zn 0.80953 0.08046 0.86186 0.0
Zn232 Zn 0.75634 0.13713 0.90787 0.0
Zn233 Zn 0.78245 0.1075 0.88487 0.0
C234 C 0.81366 0.20527 0.88645 0.0
C235 C 0.68524 0.07731 0.88801 0.0
O236 O 0.7314 0.04043 0.88076 0.0
O237 O 0.77614 0.02053 0.8703 0.0
C238 C 0.87291 0.12721 0.88779 0.0
O239 O 0.80413 0.17363 0.87581 0.0
O240 O 0.79995 0.1977 0.90225 0.0
O241 O 0.6973 0.11027 0.89761 0.0
O242 O 0.71243 0.06576 0.88334 0.0
O243 O 0.86874 0.1217 0.87116 0.0
O244 O 0.83917 0.11289 0.89757 0.0
O245 O 0.80038 0.14969 0.8607 0.0
O246 O 0.7877 0.0984 0.84141 0.0
C247 C 0.79358 0.1354 0.84458 0.0
O248 O 0.80898 0.10019 0.91093 0.0
O249 O 0.76569 0.10984 0.92878 0.0
C250 C 0.74008 0.01067 0.87696 0.0
C251 C 0.79292 0.09788 0.92654 0.0
H252 H 0.11667 0.92159 0.15396 0.0
H253 H 0.15998 0.99709 0.14678 0.0
H254 H 0.14558 0.96672 0.09085 0.0
H255 H 0.10304 0.88962 0.09802 0.0
H256 H 0.22958 0.02625 0.09973 0.0
H257 H 0.12033 0.07615 0.12912 0.0
H258 H 0.13301 0.0469 0.1449 0.0
H259 H 0.10341 0.02041 0.12504 0.0
C260 C 0.12173 0.93062 0.14007 0.0
C261 C 0.10572 0.89932 0.12655 0.0
C262 C 0.14668 0.9741 0.13599 0.0
C263 C 0.15539 0.98778 0.11828 0.0
C264 C 0.13904 0.95687 0.10463 0.0
H265 H 0.27176 0.25719 0.0951 0.0
H266 H 0.25229 0.18383 0.08707 0.0
C267 C 0.11444 0.91291 0.10873 0.0
C268 C 0.18257 0.03444 0.11442 0.0
H269 H 0.19442 0.13166 0.12585 0.0
C270 C 0.22157 0.04934 0.10514 0.0
C271 C 0.17202 0.06462 0.12135 0.0
C272 C 0.12968 0.05114 0.13049 0.0
C273 C 0.25123 0.09368 0.10354 0.0
C274 C 0.24161 0.12338 0.11149 0.0
C275 C 0.20187 0.10857 0.11997 0.0
C276 C 0.27226 0.17019 0.11215 0.0
C277 C 0.29315 0.10877 0.09393 0.0
C278 C 0.29364 0.18801 0.12822 0.0
C279 C 0.30464 0.22996 0.13285 0.0
C280 C 0.29385 0.25411 0.12149 0.0
C281 C 0.28065 0.23932 0.10405 0.0
C282 C 0.269 0.19706 0.0995 0.0
H283 H 0.29518 0.08176 0.08776 0.0
H284 H 0.29691 0.13209 0.08342 0.0
H285 H 0.32029 0.12581 0.10339 0.0
H286 H 0.29627 0.16771 0.13819 0.0
H287 H 0.31454 0.24051 0.1464 0.0
H288 H 0.26708 0.19647 0.63602 0.0
H289 H 0.23471 0.24014 0.62904 0.0
H290 H 0.21277 0.19284 0.57513 0.0
H291 H 0.24609 0.14882 0.58218 0.0
H292 H 0.24566 0.30329 0.6042 0.0
H293 H 0.09119 0.14903 0.59598 0.0
H294 H 0.13871 0.15122 0.60502 0.0
H295 H 0.13466 0.15745 0.58155 0.0
C296 C 0.25613 0.19602 0.62256 0.0
C297 C 0.25862 0.16905 0.60966 0.0
C298 C 0.2379 0.22123 0.61856 0.0
C299 C 0.22077 0.21939 0.60165 0.0
C300 C 0.22552 0.19446 0.58832 0.0
H301 H 0.01313 0.27532 0.59323 0.0
H302 H 0.07929 0.28023 0.58191 0.0
C303 C 0.24464 0.16952 0.59229 0.0
C304 C 0.19332 0.23915 0.59919 0.0
H305 H 0.08761 0.21184 0.59746 0.0
C306 C 0.2112 0.28351 0.60226 0.0
C307 C 0.14824 0.21323 0.597 0.0
C308 C 0.12677 0.16506 0.59483 0.0
C309 C 0.18499 0.30218 0.60391 0.0
C310 C 0.13989 0.27588 0.6024 0.0
C311 C 0.1223 0.2321 0.59834 0.0
C312 C 0.10949 0.29061 0.60771 0.0
C313 C 0.20544 0.34949 0.6079 0.0
C314 C 0.10581 0.298 0.62578 0.0
C315 C 0.06794 0.29514 0.63225 0.0
C316 C 0.03336 0.28504 0.62073 0.0
C317 C 0.03967 0.28416 0.60234 0.0
C318 C 0.07731 0.28637 0.59588 0.0
H319 H 0.23994 0.3672 0.60404 0.0
H320 H 0.18831 0.36368 0.60087 0.0
H321 H 0.20337 0.35397 0.62239 0.0
H322 H 0.12982 0.30065 0.63521 0.0
H323 H 0.0635 0.29492 0.6465 0.0
H324 H 0.77053 0.07665 0.14136 0.0
H325 H 0.83501 0.1365 0.12875 0.0
H326 H 0.80923 0.06885 0.07882 0.0
H327 H 0.74428 0.00869 0.09152 0.0
H328 H 0.88004 0.07762 0.09521 0.0
H329 H 0.89179 0.23634 0.09489 0.0
H330 H 0.86792 0.20875 0.11522 0.0
H331 H 0.84062 0.18678 0.09444 0.0
C332 C 0.77698 0.07583 0.12734 0.0
C333 C 0.75275 0.03801 0.11747 0.0
C334 C 0.81405 0.11014 0.12009 0.0
C335 C 0.82731 0.10713 0.10285 0.0
C336 C 0.7996 0.07193 0.09213 0.0
H337 H 0.11138 0.23778 0.08949 0.0
H338 H 0.03631 0.20413 0.07913 0.0
C339 C 0.76216 0.03769 0.09936 0.0
C340 C 0.87363 0.13379 0.0983 0.0
H341 H 0.95833 0.23595 0.10267 0.0
C342 C 0.89711 0.11242 0.09609 0.0
C343 C 0.896 0.17912 0.09963 0.0
C344 C 0.87261 0.20402 0.101 0.0
C345 C 0.94221 0.13472 0.09691 0.0
C346 C 0.96435 0.17958 0.09976 0.0
C347 C 0.94117 0.20147 0.1005 0.0
C348 C 0.01009 0.20252 0.10519 0.0
C349 C 0.96575 0.10979 0.09641 0.0
C350 C 0.01991 0.21263 0.12318 0.0
C351 C 0.06223 0.23106 0.12912 0.0
C352 C 0.09585 0.24025 0.11716 0.0
C353 C 0.08616 0.23097 0.09901 0.0
C354 C 0.04342 0.2119 0.09308 0.0
H355 H 0.94359 0.07473 0.09463 0.0
H356 H 0.98927 0.1216 0.08532 0.0
H357 H 0.98404 0.11499 0.10895 0.0
H358 H 0.99458 0.20543 0.13273 0.0
H359 H 0.06857 0.23832 0.14315 0.0
H360 H 0.66077 0.73771 0.63461 0.0
H361 H 0.65945 0.8004 0.62282 0.0
H362 H 0.74573 0.80958 0.58085 0.0
H363 H 0.74305 0.74514 0.5916 0.0
H364 H 0.72436 0.86833 0.62712 0.0
H365 H 0.69989 0.87015 0.55533 0.0
H366 H 0.68261 0.82022 0.56693 0.0
H367 H 0.73682 0.85112 0.55836 0.0
C368 C 0.67633 0.75109 0.62201 0.0
C369 C 0.70142 0.73614 0.61382 0.0
C370 C 0.67637 0.78757 0.61541 0.0
C371 C 0.70305 0.81075 0.60099 0.0
C372 C 0.72387 0.79247 0.59163 0.0
H373 H 0.89839 0.06247 0.60903 0.0
H374 H 0.84998 0.98688 0.6017 0.0
C375 C 0.72221 0.75503 0.59778 0.0
C376 C 0.71779 0.85753 0.59872 0.0
H377 H 0.75825 0.93914 0.56814 0.0
C378 C 0.73006 0.88324 0.61414 0.0
C379 C 0.72586 0.87811 0.5819 0.0
C380 C 0.71007 0.85318 0.56477 0.0
C381 C 0.75258 0.92818 0.61321 0.0
C382 C 0.76448 0.94844 0.59646 0.0
C383 C 0.74983 0.92339 0.58099 0.0
C384 C 0.79581 0.9951 0.59536 0.0
C385 C 0.76565 0.95385 0.63026 0.0
C386 C 0.78201 0.02512 0.5932 0.0
C387 C 0.81005 0.06869 0.59709 0.0
C388 C 0.85178 0.08229 0.60343 0.0
C389 C 0.86646 0.05276 0.60406 0.0
C390 C 0.83883 0.00961 0.5999 0.0
H391 H 0.74657 0.9343 0.64179 0.0
H392 H 0.80014 0.96536 0.63297 0.0
H393 H 0.76161 0.98243 0.62912 0.0
H394 H 0.74878 0.01441 0.58989 0.0
H395 H 0.79784 0.09081 0.5968 0.0
H396 H 0.98064 0.79501 0.1577 0.0
H397 H 0.93446 0.80851 0.1384 0.0
H398 H 0.94335 0.72895 0.09765 0.0
H399 H 0.9904 0.71515 0.1171 0.0
H400 H 0.9468 0.82159 0.08923 0.0
H401 H 0.80775 0.69445 0.12627 0.0
H402 H 0.8536 0.7284 0.13989 0.0
H403 H 0.85774 0.69435 0.12345 0.0
C404 C 0.97344 0.78078 0.14455 0.0
C405 C 0.98874 0.75353 0.139 0.0
C406 C 0.94714 0.78868 0.13352 0.0
C407 C 0.93512 0.76922 0.11678 0.0
C408 C 0.95225 0.74405 0.11061 0.0
H409 H 0.71864 0.80814 0.09997 0.0
H410 H 0.75926 0.77313 0.09065 0.0
C411 C 0.97914 0.73633 0.1217 0.0
C412 C 0.90156 0.77293 0.10695 0.0
H413 H 0.79946 0.75217 0.11453 0.0
C414 C 0.91403 0.80539 0.09419 0.0
C415 C 0.85865 0.75111 0.11314 0.0
C416 C 0.84338 0.71481 0.12634 0.0
C417 C 0.88589 0.81999 0.08909 0.0
C418 C 0.84504 0.80235 0.09734 0.0
C419 C 0.83087 0.76617 0.1083 0.0
C420 C 0.82138 0.82633 0.09836 0.0
C421 C 0.90126 0.85608 0.07582 0.0
C422 C 0.84278 0.86812 0.10541 0.0
C423 C 0.81975 0.88777 0.11086 0.0
C424 C 0.77473 0.8661 0.10945 0.0
C425 C 0.75336 0.82557 0.10119 0.0
C426 C 0.77654 0.8056 0.09584 0.0
H427 H 0.92136 0.85267 0.06543 0.0
H428 H 0.87397 0.857 0.06932 0.0
H429 H 0.92172 0.88717 0.08269 0.0
H430 H 0.87705 0.88444 0.108 0.0
H431 H 0.83709 0.91916 0.11708 0.0
H432 H 0.88756 0.74227 0.58618 0.0
H433 H 0.96245 0.77018 0.57657 0.0
H434 H 0.0062 0.81251 0.63006 0.0
H435 H 0.93248 0.78598 0.63967 0.0
H436 H 0.03632 0.86567 0.58549 0.0
H437 H 0.05975 0.73418 0.61096 0.0
H438 H 0.00784 0.72592 0.60406 0.0
H439 H 0.02982 0.7499 0.62525 0.0
C440 C 0.9132 0.7579 0.59583 0.0
C441 C 0.90404 0.7622 0.61366 0.0
C442 C 0.9558 0.77341 0.59035 0.0
C443 C 0.98949 0.79256 0.60272 0.0
C444 C 0.98043 0.79714 0.62041 0.0
H445 H 0.21927 0.93393 0.64149 0.0
H446 H 0.15654 0.87024 0.63006 0.0
C447 C 0.93825 0.78228 0.62583 0.0
C448 C 0.03488 0.81081 0.5974 0.0
H449 H 0.1233 0.80371 0.60812 0.0
C450 C 0.05556 0.85178 0.58979 0.0
C451 C 0.05935 0.79227 0.60313 0.0
C452 C 0.03811 0.74795 0.6112 0.0
C453 C 0.10061 0.87695 0.58962 0.0
C454 C 0.1255 0.85977 0.59675 0.0
C455 C 0.10445 0.81685 0.60258 0.0
C456 C 0.17083 0.88853 0.60238 0.0
C457 C 0.12058 0.92319 0.58367 0.0
C458 C 0.20229 0.91782 0.5906 0.0
C459 C 0.23828 0.95485 0.59725 0.0
C460 C 0.24326 0.96207 0.61565 0.0
C461 C 0.2159 0.92907 0.62723 0.0
C462 C 0.17986 0.8926 0.62066 0.0
H463 H 0.09605 0.93246 0.5806 0.0
H464 H 0.14221 0.9452 0.59414 0.0
H465 H 0.13983 0.92808 0.57148 0.0
H466 H 0.19677 0.9145 0.5764 0.0
H467 H 0.25882 0.97996 0.58807 0.0
H468 H 0.10522 0.8478 0.42372 0.0
H469 H 0.03004 0.80031 0.43344 0.0
H470 H 0.99008 0.77345 0.37861 0.0
H471 H 0.06379 0.82084 0.36905 0.0
H472 H 0.96379 0.81768 0.42293 0.0
H473 H 0.92196 0.65442 0.4019 0.0
H474 H 0.97684 0.69643 0.40597 0.0
H475 H 0.95148 0.69307 0.38491 0.0
C476 C 0.08027 0.83104 0.41387 0.0
C477 C 0.08988 0.83837 0.39568 0.0
C478 C 0.03756 0.80389 0.41938 0.0
C479 C 0.00458 0.78279 0.40673 0.0
C480 C 0.01499 0.78857 0.38862 0.0
H481 H 0.78155 0.7223 0.36459 0.0
H482 H 0.84173 0.71702 0.37646 0.0
C483 C 0.05705 0.81615 0.38316 0.0
C484 C 0.95843 0.7602 0.41174 0.0
H485 H 0.86387 0.67159 0.39974 0.0
C486 C 0.9417 0.78509 0.41858 0.0
C487 C 0.92982 0.7177 0.40604 0.0
C488 C 0.94603 0.68874 0.39946 0.0
C489 C 0.89743 0.77067 0.4178 0.0
C490 C 0.86907 0.72968 0.41038 0.0
C491 C 0.88546 0.70298 0.40538 0.0
C492 C 0.8255 0.71874 0.40405 0.0
C493 C 0.88222 0.80141 0.42311 0.0
C494 C 0.79422 0.71784 0.41558 0.0
C495 C 0.75946 0.72085 0.40873 0.0
C496 C 0.75576 0.72467 0.39031 0.0
C497 C 0.78381 0.71967 0.37885 0.0
C498 C 0.81832 0.71669 0.38565 0.0
H499 H 0.90928 0.8337 0.42672 0.0
H500 H 0.8639 0.80528 0.41208 0.0
H501 H 0.86057 0.78839 0.43477 0.0
H502 H 0.79859 0.71842 0.42983 0.0
H503 H 0.73835 0.72477 0.41787 0.0
H504 H 0.07249 0.7751 0.87173 0.0
H505 H 0.13222 0.83674 0.88583 0.0
H506 H 0.06546 0.80001 0.93607 0.0
H507 H 0.00482 0.73816 0.9217 0.0
H508 H 0.07221 0.87133 0.92511 0.0
H509 H 0.23343 0.89222 0.91774 0.0
H510 H 0.20602 0.87275 0.897 0.0
H511 H 0.18562 0.83971 0.91665 0.0
C512 C 0.0718 0.77857 0.88602 0.0
C513 C 0.03408 0.7523 0.89561 0.0
C514 C 0.10618 0.81395 0.89417 0.0
C515 C 0.10339 0.82348 0.91206 0.0
C516 C 0.06835 0.79335 0.92226 0.0
H517 H 0.27404 0.1051 0.91842 0.0
H518 H 0.24125 0.03178 0.93051 0.0
C519 C 0.03382 0.75774 0.91407 0.0
C520 C 0.12927 0.86896 0.91799 0.0
H521 H 0.22781 0.95774 0.91122 0.0
C522 C 0.10662 0.88997 0.92279 0.0
C523 C 0.17423 0.89374 0.9152 0.0
C524 C 0.20113 0.87316 0.91155 0.0
C525 C 0.12656 0.93488 0.9227 0.0
C526 C 0.17012 0.95945 0.91753 0.0
C527 C 0.19412 0.93883 0.91486 0.0
C528 C 0.18853 0.00466 0.91172 0.0
C529 C 0.09989 0.95551 0.92687 0.0
C530 C 0.16962 0.01359 0.89727 0.0
C531 C 0.18795 0.05504 0.89045 0.0
C532 C 0.22596 0.08862 0.89781 0.0
C533 C 0.24445 0.08001 0.91261 0.0
C534 C 0.22597 0.03816 0.91945 0.0
H535 H 0.07373 0.93566 0.93639 0.0
H536 H 0.11994 0.98824 0.93252 0.0
H537 H 0.08461 0.95809 0.91447 0.0
H538 H 0.14129 0.98807 0.89084 0.0
H539 H 0.173 0.06041 0.87899 0.0
H540 H 0.199 0.26931 0.36916 0.0
H541 H 0.24099 0.23581 0.37805 0.0
H542 H 0.18235 0.20982 0.42997 0.0
H543 H 0.13952 0.2425 0.42087 0.0
H544 H 0.29893 0.24664 0.40718 0.0
H545 H 0.14443 0.09046 0.40772 0.0
H546 H 0.14897 0.13839 0.39802 0.0
H547 H 0.14726 0.13234 0.42173 0.0
C548 C 0.19564 0.25701 0.38256 0.0
C549 C 0.16623 0.2585 0.3944 0.0
C550 C 0.21985 0.23824 0.38767 0.0
C551 C 0.21463 0.22019 0.40464 0.0
C552 C 0.18681 0.22359 0.41681 0.0
H553 H 0.265 0.01192 0.41902 0.0
H554 H 0.26674 0.07638 0.43053 0.0
C555 C 0.16268 0.24261 0.4117 0.0
C556 C 0.23406 0.19319 0.4085 0.0
H557 H 0.20766 0.08812 0.41107 0.0
C558 C 0.27908 0.21203 0.40842 0.0
C559 C 0.20804 0.14805 0.41 0.0
C560 C 0.15951 0.12586 0.40927 0.0
C561 C 0.29869 0.1866 0.40908 0.0
C562 C 0.27258 0.1414 0.40973 0.0
C563 C 0.2277 0.12287 0.41085 0.0
C564 C 0.28943 0.11206 0.40597 0.0
C565 C 0.34705 0.2081 0.40849 0.0
C566 C 0.30477 0.11199 0.38882 0.0
C567 C 0.30377 0.07515 0.38227 0.0
C568 C 0.28774 0.03814 0.39283 0.0
C569 C 0.27855 0.04044 0.41079 0.0
C570 C 0.27908 0.07716 0.41731 0.0
H571 H 0.36237 0.24143 0.41377 0.0
H572 H 0.35869 0.18963 0.41622 0.0
H573 H 0.3575 0.20981 0.39449 0.0
H574 H 0.31219 0.13813 0.37972 0.0
H575 H 0.31017 0.07375 0.36828 0.0
H576 H 0.23698 0.30348 0.858 0.0
H577 H 0.17398 0.30167 0.87117 0.0
H578 H 0.21009 0.27732 0.92258 0.0
H579 H 0.27408 0.2808 0.90956 0.0
H580 H 0.13385 0.20537 0.89769 0.0
H581 H 0.12566 0.35117 0.91581 0.0
H582 H 0.15764 0.35388 0.89682 0.0
H583 H 0.17408 0.34802 0.91863 0.0
C584 C 0.23338 0.30128 0.87233 0.0
C585 C 0.26017 0.29203 0.88275 0.0
C586 C 0.19711 0.29986 0.87984 0.0
C587 C 0.18721 0.28889 0.8978 0.0
C588 C 0.21742 0.28621 0.90873 0.0
H589 H 0.90955 0.11626 0.91811 0.0
H590 H 0.98642 0.15824 0.92634 0.0
C591 C 0.25428 0.28863 0.90127 0.0
C592 C 0.14154 0.26754 0.90324 0.0
H593 H 0.05902 0.28591 0.91215 0.0
C594 C 0.11748 0.22271 0.90137 0.0
C595 C 0.12062 0.29052 0.90775 0.0
C596 C 0.14563 0.33861 0.90998 0.0
C597 C 0.07251 0.20041 0.90273 0.0
C598 C 0.05113 0.2235 0.90663 0.0
C599 C 0.07551 0.26819 0.90945 0.0
C600 C 0.00387 0.20304 0.90444 0.0
C601 C 0.04806 0.15293 0.89849 0.0
C602 C 0.98817 0.21542 0.88994 0.0
C603 C 0.945 0.19145 0.88519 0.0
C604 C 0.91644 0.15488 0.89496 0.0
C605 C 0.93116 0.14422 0.91034 0.0
C606 C 0.97489 0.16809 0.915 0.0
H607 H 0.06938 0.14126 0.89333 0.0
H608 H 0.03211 0.13455 0.9107 0.0
H609 H 0.02268 0.1458 0.88844 0.0
H610 H 0.00985 0.24222 0.88163 0.0
H611 H 0.93415 0.20074 0.87344 0.0
H612 H 0.9976 0.26134 0.42114 0.0
H613 H 0.93447 0.1962 0.43217 0.0
H614 H 0.87051 0.18141 0.38206 0.0
H615 H 0.93382 0.24567 0.37085 0.0
H616 H 0.82381 0.14143 0.42646 0.0
H617 H 0.93323 0.10065 0.38934 0.0
H618 H 0.95311 0.15199 0.40012 0.0
H619 H 0.92247 0.14038 0.38 0.0
C620 C 0.9689 0.24595 0.41295 0.0
C621 C 0.97043 0.25815 0.39513 0.0
C622 C 0.93287 0.20863 0.41927 0.0
C623 C 0.89814 0.18391 0.40785 0.0
C624 C 0.89693 0.20024 0.39108 0.0
H625 H 0.70006 0.92245 0.39519 0.0
H626 H 0.73628 0.9986 0.40311 0.0
C627 C 0.93309 0.23705 0.38469 0.0
C628 C 0.87163 0.1371 0.4108 0.0
H629 H 0.86741 0.04374 0.39876 0.0
C630 C 0.83333 0.11988 0.42062 0.0
C631 C 0.88449 0.10931 0.40322 0.0
C632 C 0.92561 0.12625 0.39263 0.0
C633 C 0.80703 0.07507 0.42276 0.0
C634 C 0.81936 0.04724 0.41468 0.0
C635 C 0.85813 0.06492 0.40516 0.0
C636 C 0.79207 0.99964 0.41467 0.0
C637 C 0.76651 0.05803 0.43364 0.0
C638 C 0.81064 0.97437 0.41892 0.0
C639 C 0.79027 0.93109 0.41403 0.0
C640 C 0.75055 0.91215 0.40525 0.0
C641 C 0.73007 0.93618 0.40245 0.0
C642 C 0.75083 0.97977 0.40701 0.0
H643 H 0.76907 0.0821 0.44357 0.0
H644 H 0.73914 0.05092 0.42471 0.0
H645 H 0.75921 0.02799 0.44068 0.0
H646 H 0.84248 0.98898 0.42475 0.0
H647 H 0.80675 0.91313 0.41611 0.0
H648 H 0.82365 0.76103 0.86423 0.0
H649 H 0.77697 0.78966 0.87193 0.0
H650 H 0.79572 0.77613 0.92764 0.0
H651 H 0.84229 0.74633 0.91989 0.0
H652 H 0.69938 0.75687 0.89463 0.0
H653 H 0.84271 0.90831 0.91813 0.0
H654 H 0.84825 0.86988 0.90463 0.0
H655 H 0.83243 0.85789 0.92745 0.0
C656 C 0.81776 0.76396 0.87814 0.0
C657 C 0.8374 0.75242 0.8915 0.0
C658 C 0.7907 0.77989 0.88251 0.0
C659 C 0.78313 0.78528 0.90033 0.0
C660 C 0.80131 0.77229 0.91379 0.0
H661 H 0.71672 0.98434 0.91089 0.0
H662 H 0.71062 0.91778 0.92242 0.0
C663 C 0.82795 0.75544 0.90938 0.0
C664 C 0.75977 0.80856 0.90427 0.0
H665 H 0.78004 0.91036 0.91233 0.0
C666 C 0.71654 0.79009 0.89902 0.0
C667 C 0.78222 0.85184 0.91 0.0
C668 C 0.82901 0.8735 0.91534 0.0
C669 C 0.69616 0.81476 0.89812 0.0
C670 C 0.71981 0.85899 0.90239 0.0
C671 C 0.76177 0.87636 0.90915 0.0
C672 C 0.70614 0.88974 0.89648 0.0
C673 C 0.65026 0.79385 0.89173 0.0
C674 C 0.7027 0.89484 0.87816 0.0
C675 C 0.70656 0.93292 0.8716 0.0
C676 C 0.71356 0.96629 0.88327 0.0
C677 C 0.71069 0.95876 0.90165 0.0
C678 C 0.70757 0.92085 0.90825 0.0
H679 H 0.63222 0.75927 0.8954 0.0
H680 H 0.63343 0.81003 0.89734 0.0
H681 H 0.64997 0.79592 0.87703 0.0
H682 H 0.7024 0.87183 0.86877 0.0
H683 H 0.70941 0.93833 0.85738 0.0
H684 H 0.07204 0.6364 0.10228 0.0
H685 H 0.08831 0.58049 0.11097 0.0
H686 H 0.0711 0.60085 0.16609 0.0
H687 H 0.05516 0.65721 0.1576 0.0
H688 H 0.16148 0.60752 0.14567 0.0
H689 H 1.00078 0.45851 0.14531 0.0
H690 H 0.01205 0.49979 0.12909 0.0
H691 H 0.00783 0.50994 0.15211 0.0
C692 C 0.07151 0.62891 0.11624 0.0
C693 C 0.06319 0.65181 0.12926 0.0
C694 C 0.08052 0.59682 0.12116 0.0
C695 C 0.08095 0.5869 0.13914 0.0
C696 C 0.07082 0.60823 0.15215 0.0
H697 H 0.21694 0.4425 0.15795 0.0
H698 H 0.18102 0.48214 0.16773 0.0
C699 C 0.06175 0.64035 0.14725 0.0
C700 C 0.09558 0.55674 0.14415 0.0
H701 H 0.06197 0.44985 0.14591 0.0
C702 C 0.13985 0.57303 0.14619 0.0
C703 C 0.06695 0.51207 0.14483 0.0
C704 C 0.01913 0.49369 0.1428 0.0
C705 C 0.15675 0.54543 0.14751 0.0
C706 C 0.1283 0.50042 0.14709 0.0
C707 C 0.08366 0.48433 0.14638 0.0
C708 C 0.14434 0.47045 0.14343 0.0
C709 C 0.20501 0.56468 0.14781 0.0
C710 C 0.13397 0.44912 0.12703 0.0
C711 C 0.15373 0.42623 0.12166 0.0
C712 C 0.18425 0.42404 0.13258 0.0
C713 C 0.19306 0.44331 0.14945 0.0
C714 C 0.17298 0.4663 0.15491 0.0
H715 H 0.22238 0.60006 0.14585 0.0
H716 H 0.21491 0.55797 0.16083 0.0
H717 H 0.21527 0.55007 0.13727 0.0
H718 H 0.11206 0.45189 0.11795 0.0
H719 H 0.14603 0.41124 0.10865 0.0
H720 H 0.75262 0.17886 0.65615 0.0
H721 H 0.67543 0.1355 0.66272 0.0
H722 H 0.65677 0.06409 0.61419 0.0
H723 H 0.73377 0.10492 0.60847 0.0
H724 H 0.61739 0.13777 0.64378 0.0
H725 H 0.57513 0.96767 0.64418 0.0
H726 H 0.63018 0.01096 0.64562 0.0
H727 H 0.60401 0.99335 0.62432 0.0
C728 C 0.73235 0.15207 0.64757 0.0
C729 C 0.74931 0.14422 0.63217 0.0
C730 C 0.68809 0.12777 0.65111 0.0
C731 C 0.66004 0.09569 0.63914 0.0
C732 C 0.67748 0.08729 0.62401 0.0
H733 H 0.41037 0.02942 0.60587 0.0
H734 H 0.47601 0.02532 0.60913 0.0
C735 C 0.72158 0.11105 0.62064 0.0
C736 C 0.61245 0.07582 0.64088 0.0
H737 H 0.51689 0.98115 0.63665 0.0
C738 C 0.59558 0.10342 0.64262 0.0
C739 C 0.58363 0.03093 0.63922 0.0
C740 C 0.59927 0.99908 0.63842 0.0
C741 C 0.55115 0.0878 0.64203 0.0
C742 C 0.52254 0.04327 0.63962 0.0
C743 C 0.53898 0.01529 0.63836 0.0
C744 C 0.47569 0.02667 0.63785 0.0
C745 C 0.53501 0.11926 0.64346 0.0
C746 C 0.45182 0.02475 0.65292 0.0
C747 C 0.41419 0.02686 0.65105 0.0
C748 C 0.40018 0.03105 0.63412 0.0
C749 C 0.42004 0.02553 0.61906 0.0
C750 C 0.45795 0.02372 0.62092 0.0
H751 H 0.56165 0.15321 0.64361 0.0
H752 H 0.51327 0.11491 0.63217 0.0
H753 H 0.51622 0.11311 0.6559 0.0
H754 H 0.46502 0.02707 0.66609 0.0
H755 H 0.39978 0.03164 0.66286 0.0
H756 H 0.59454 0.74747 0.09216 0.0
H757 H 0.56081 0.66906 0.09358 0.0
H758 H 0.62096 0.67966 0.14433 0.0
H759 H 0.65486 0.75828 0.14289 0.0
H760 H 0.60069 0.60128 0.11372 0.0
H761 H 0.47124 0.62789 0.14062 0.0
H762 H 0.49966 0.6577 0.12115 0.0
H763 H 0.5274 0.66856 0.142 0.0
C764 C 0.60261 0.73313 0.10308 0.0
C765 C 0.62779 0.75866 0.11727 0.0
C766 C 0.58314 0.68838 0.10394 0.0
C767 C 0.58842 0.66868 0.11907 0.0
C768 C 0.61695 0.69434 0.13247 0.0
H769 H 0.36937 0.42216 0.14783 0.0
H770 H 0.4417 0.48419 0.15218 0.0
C771 C 0.6365 0.73918 0.13158 0.0
C772 C 0.55747 0.62271 0.12245 0.0
H773 H 0.45303 0.55655 0.13461 0.0
C774 C 0.56856 0.59133 0.1185 0.0
C775 C 0.51585 0.61002 0.12895 0.0
C776 C 0.5026 0.64265 0.13355 0.0
C777 C 0.53812 0.54723 0.12015 0.0
C778 C 0.49576 0.53455 0.12572 0.0
C779 C 0.48558 0.56618 0.13048 0.0
C780 C 0.45963 0.48952 0.12444 0.0
C781 C 0.55124 0.51456 0.11564 0.0
C782 C 0.44659 0.47048 0.10761 0.0
C783 C 0.40534 0.43526 0.10514 0.0
C784 C 0.37666 0.41823 0.11948 0.0
C785 C 0.39132 0.43407 0.13665 0.0
C786 C 0.4325 0.46975 0.13911 0.0
H787 H 0.5865 0.52823 0.11721 0.0
H788 H 0.53415 0.48557 0.12416 0.0
H789 H 0.54285 0.5045 0.10158 0.0
H790 H 0.46644 0.48556 0.09604 0.0
H791 H 0.39435 0.42414 0.09173 0.0
H792 H 0.89499 0.63516 0.61389 0.0
H793 H 0.93372 0.59718 0.62085 0.0
H794 H 0.83904 0.52315 0.66072 0.0
H795 H 0.80059 0.56213 0.65404 0.0
H796 H 0.93059 0.54318 0.66787 0.0
H797 H 0.86392 0.4709 0.60179 0.0
H798 H 0.89558 0.52855 0.60209 0.0
H799 H 0.84548 0.50184 0.61397 0.0
C800 C 0.88333 0.61186 0.62458 0.0
C801 C 0.84473 0.6012 0.63335 0.0
C802 C 0.90545 0.59021 0.62854 0.0
C803 C 0.88883 0.55687 0.64107 0.0
C804 C 0.85238 0.54882 0.65101 0.0
H805 H 0.89277 0.32824 0.65937 0.0
H806 H 0.90057 0.39855 0.66511 0.0
C807 C 0.83047 0.57105 0.64721 0.0
C808 C 0.90491 0.52606 0.64137 0.0
H809 H 0.90774 0.44895 0.61592 0.0
C810 C 0.92589 0.52269 0.65651 0.0
C811 C 0.89857 0.49927 0.62654 0.0
C812 C 0.87436 0.49988 0.61022 0.0
C813 C 0.94078 0.4931 0.65714 0.0
C814 C 0.9341 0.46612 0.64232 0.0
C815 C 0.91368 0.47016 0.62715 0.0
C816 C 0.94258 0.42965 0.6427 0.0
C817 C 0.96342 0.49092 0.67363 0.0
C818 C 0.96542 0.42405 0.62873 0.0
C819 C 0.96102 0.38363 0.62547 0.0
C820 C 0.93363 0.34842 0.63611 0.0
C821 C 0.91477 0.35521 0.6512 0.0
C822 C 0.91923 0.3955 0.65449 0.0
H823 H 0.97874 0.52197 0.68094 0.0
H824 H 0.93954 0.46587 0.68262 0.0
H825 H 0.98839 0.48241 0.67035 0.0
H826 H 0.98335 0.44985 0.61937 0.0
H827 H 0.97505 0.37892 0.61353 0.0
H828 H 0.59075 0.95731 0.10305 0.0
H829 H 0.52206 0.95597 0.10163 0.0
H830 H 0.51489 0.95248 0.15879 0.0
H831 H 0.58314 0.9532 0.16024 0.0
H832 H 0.46205 0.8707 0.12615 0.0
H833 H 0.4425 0.01401 0.1345 0.0
H834 H 0.48829 0.01794 0.12274 0.0
H835 H 0.48416 0.00992 0.14629 0.0
C836 C 0.57622 0.95964 0.11532 0.0
C837 C 0.59196 0.95505 0.13175 0.0
C838 C 0.53672 0.95854 0.1145 0.0
C839 C 0.51332 0.95382 0.13011 0.0
C840 C 0.53264 0.95656 0.14661 0.0
H841 H 0.23468 0.83464 0.14671 0.0
H842 H 0.31278 0.8788 0.15041 0.0
C843 C 0.57183 0.95722 0.14742 0.0
C844 C 0.46586 0.93203 0.12919 0.0
H845 H 0.3789 0.94645 0.13092 0.0
C846 C 0.44383 0.88726 0.12713 0.0
C847 C 0.44244 0.95369 0.13101 0.0
C848 C 0.46525 0.0016 0.13378 0.0
C849 C 0.39888 0.86342 0.12656 0.0
C850 C 0.37517 0.88512 0.12749 0.0
C851 C 0.39715 0.92994 0.13004 0.0
C852 C 0.32782 0.86145 0.12496 0.0
C853 C 0.37728 0.81506 0.12519 0.0
C854 C 0.31037 0.83788 0.10931 0.0
C855 C 0.26603 0.81182 0.10739 0.0
C856 C 0.23777 0.8094 0.12089 0.0
C857 C 0.25522 0.83493 0.13619 0.0
C858 C 0.29995 0.86054 0.13827 0.0
H859 H 0.3983 0.80306 0.13038 0.0
H860 H 0.34643 0.79909 0.13262 0.0
H861 H 0.3705 0.80542 0.11102 0.0
H862 H 0.33119 0.83906 0.09864 0.0
H863 H 0.25393 0.79373 0.09516 0.0
H864 H 0.61755 0.60379 0.60663 0.0
H865 H 0.54161 0.54689 0.60437 0.0
H866 H 0.56593 0.46873 0.64074 0.0
H867 H 0.64086 0.52489 0.64294 0.0
H868 H 0.52495 0.47193 0.58969 0.0
H869 H 0.44512 0.43427 0.65477 0.0
H870 H 0.49189 0.48597 0.65009 0.0
H871 H 0.49788 0.44145 0.65741 0.0
C872 C 0.60596 0.57524 0.61476 0.0
C873 C 0.63482 0.56844 0.62491 0.0
C874 C 0.56269 0.54272 0.61342 0.0
C875 C 0.54783 0.50358 0.6225 0.0
C876 C 0.57606 0.49885 0.63394 0.0
H877 H 0.47097 0.26301 0.60351 0.0
H878 H 0.49525 0.33934 0.60253 0.0
C879 C 0.6191 0.53089 0.63509 0.0
C880 C 0.50703 0.4645 0.61737 0.0
H881 H 0.42957 0.37089 0.63592 0.0
C882 C 0.50288 0.45046 0.59967 0.0
C883 C 0.47765 0.43645 0.63024 0.0
C884 C 0.47817 0.45064 0.64914 0.0
C885 C 0.47417 0.40756 0.59507 0.0
C886 C 0.44924 0.37811 0.60849 0.0
C887 C 0.44917 0.39339 0.62565 0.0
C888 C 0.43186 0.33139 0.6061 0.0
C889 C 0.47345 0.39315 0.57619 0.0
C890 C 0.38792 0.30135 0.6082 0.0
C891 C 0.37384 0.2572 0.60864 0.0
C892 C 0.40357 0.24279 0.60742 0.0
C893 C 0.44716 0.27302 0.60448 0.0
C894 C 0.4611 0.31674 0.60383 0.0
H895 H 0.48254 0.42 0.5667 0.0
H896 H 0.4971 0.38204 0.57478 0.0
H897 H 0.44113 0.3661 0.57259 0.0
H898 H 0.36491 0.31209 0.61014 0.0
H899 H 0.34039 0.23476 0.61112 0.0
H900 H 0.38399 0.94576 0.35042 0.0
H901 H 0.45492 0.95659 0.35767 0.0
H902 H 0.44078 0.98803 0.41164 0.0
H903 H 0.36914 0.97664 0.40443 0.0
H904 H 0.53471 0.01517 0.37403 0.0
H905 H 0.43355 0.87021 0.4154 0.0
H906 H 0.41033 0.89097 0.39986 0.0
H907 H 0.43159 0.91797 0.42065 0.0
C908 C 0.39684 0.95701 0.36361 0.0
C909 C 0.37086 0.95983 0.37691 0.0
C910 C 0.43739 0.96305 0.36778 0.0
C911 C 0.45262 0.97189 0.38532 0.0
C912 C 0.42925 0.98044 0.39808 0.0
H913 H 0.61975 0.87028 0.41824 0.0
H914 H 0.59057 0.9193 0.42046 0.0
C915 C 0.38853 0.97449 0.39389 0.0
C916 C 0.48809 0.96409 0.39052 0.0
H917 H 0.50447 0.888 0.41036 0.0
C918 C 0.52849 0.98802 0.38234 0.0
C919 C 0.4799 0.92838 0.40126 0.0
C920 C 0.4365 0.9001 0.40974 0.0
C921 C 0.56008 0.97598 0.38394 0.0
C922 C 0.55083 0.93884 0.3938 0.0
C923 C 0.51163 0.91667 0.40293 0.0
C924 C 0.57737 0.91787 0.39232 0.0
C925 C 0.60248 0.0021 0.37452 0.0
C926 C 0.5804 0.90156 0.37577 0.0
C927 C 0.59634 0.87335 0.37456 0.0
C928 C 0.61006 0.86128 0.38983 0.0
C929 C 0.60988 0.87972 0.40626 0.0
C930 C 0.59317 0.90755 0.40753 0.0
H931 H 0.61046 0.03602 0.37286 0.0
H932 H 0.62903 0.00151 0.38185 0.0
H933 H 0.6003 0.98839 0.36108 0.0
H934 H 0.56756 0.90816 0.36392 0.0
H935 H 0.59584 0.85914 0.36179 0.0
H936 H 0.7517 0.63742 0.86639 0.0
H937 H 0.67317 0.60287 0.86685 0.0
H938 H 0.67195 0.56095 0.92065 0.0
H939 H 0.75056 0.59511 0.92003 0.0
H940 H 0.63437 0.49562 0.89635 0.0
H941 H 0.56866 0.60506 0.88797 0.0
H942 H 0.61234 0.61593 0.87324 0.0
H943 H 0.62185 0.62283 0.89677 0.0
C944 C 0.73469 0.6229 0.87862 0.0
C945 C 0.75677 0.61911 0.89324 0.0
C946 C 0.68981 0.6032 0.8789 0.0
C947 C 0.66662 0.57942 0.89381 0.0
C948 C 0.68923 0.57949 0.90908 0.0
H949 H 0.40374 0.37478 0.90501 0.0
H950 H 0.46517 0.44829 0.90654 0.0
C951 C 0.73409 0.59916 0.90877 0.0
C952 C 0.62046 0.54661 0.89191 0.0
H953 H 0.52111 0.53056 0.88067 0.0
C954 C 0.60955 0.5034 0.89323 0.0
C955 C 0.58822 0.55675 0.88757 0.0
C956 C 0.59817 0.60268 0.88644 0.0
C957 C 0.56762 0.47004 0.89002 0.0
C958 C 0.53557 0.48 0.88516 0.0
C959 C 0.54594 0.52315 0.88422 0.0
C960 C 0.49146 0.44491 0.88114 0.0
C961 C 0.55804 0.42415 0.89158 0.0
C962 C 0.48446 0.42004 0.8658 0.0
C963 C 0.44973 0.37806 0.865 0.0
C964 C 0.42122 0.36088 0.87937 0.0
C965 C 0.42489 0.38775 0.89362 0.0
C966 C 0.46005 0.42967 0.89454 0.0
H967 H 0.5842 0.42196 0.89851 0.0
H968 H 0.52747 0.40419 0.89888 0.0
H969 H 0.55443 0.41027 0.87808 0.0
H970 H 0.50852 0.4312 0.85539 0.0
H971 H 0.44787 0.3576 0.85404 0.0
H972 H 0.17185 0.75548 0.41829 0.0
H973 H 0.12591 0.67723 0.42062 0.0
H974 H 0.06606 0.67498 0.37066 0.0
H975 H 0.11174 0.7534 0.36844 0.0
H976 H 0.01038 0.60551 0.39825 0.0
H977 H 0.16942 0.62313 0.38134 0.0
H978 H 0.16844 0.65155 0.40083 0.0
H979 H 0.15888 0.66701 0.37938 0.0
C980 C 0.1473 0.73844 0.40831 0.0
C981 C 0.14491 0.76009 0.39325 0.0
C982 C 0.1212 0.69381 0.4096 0.0
C983 C 0.0929 0.67033 0.39573 0.0
C984 C 0.08749 0.69252 0.38155 0.0
H985 H 0.04819 0.43428 0.35376 0.0
H986 H 0.03739 0.49547 0.35824 0.0
C987 C 0.11352 0.73723 0.38029 0.0
C988 C 0.0767 0.62358 0.39409 0.0
H989 H 0.11177 0.55307 0.38537 0.0
C990 C 0.03243 0.59388 0.39553 0.0
C991 C 0.10555 0.60867 0.39022 0.0
C992 C 0.15318 0.63913 0.38769 0.0
C993 C 0.01651 0.54939 0.39344 0.0
C994 C 0.04558 0.53477 0.38975 0.0
C995 C 0.08963 0.56453 0.38828 0.0
C996 C 0.03215 0.48901 0.38681 0.0
C997 C 0.96896 0.5182 0.39486 0.0
C998 C 0.02955 0.46321 0.4013 0.0
C999 C 0.03516 0.42767 0.39872 0.0
C1000 C 0.04417 0.4183 0.38166 0.0
C1001 C 0.04088 0.44064 0.36701 0.0
C1002 C 0.03484 0.47574 0.36957 0.0
H1003 H 0.9503 0.53465 0.39747 0.0
H1004 H 0.95721 0.49942 0.38235 0.0
H1005 H 0.96292 0.49505 0.40576 0.0
H1006 H 0.02809 0.4733 0.41473 0.0
H1007 H 0.03828 0.41142 0.41026 0.0
H1008 H 0.66211 0.06042 0.85322 0.0
H1009 H 0.59691 0.0558 0.84045 0.0
H1010 H 0.54651 0.04785 0.89319 0.0
H1011 H 0.61143 0.05293 0.90589 0.0
H1012 H 0.48141 0.0009 0.86483 0.0
H1013 H 0.60031 0.17272 0.85016 0.0
H1014 H 0.60945 0.13153 0.84121 0.0
H1015 H 0.61354 0.14121 0.86471 0.0
C1016 C 0.63604 0.05534 0.86199 0.0
C1017 C 0.64159 0.05709 0.88052 0.0
C1018 C 0.59903 0.05312 0.8547 0.0
C1019 C 0.56728 0.0522 0.86591 0.0
C1020 C 0.57062 0.04856 0.88432 0.0
H1021 H 0.39943 0.1237 0.89756 0.0
H1022 H 0.4339 0.08384 0.88791 0.0
C1023 C 0.60766 0.05133 0.89158 0.0
C1024 C 0.53541 0.0636 0.85931 0.0
H1025 H 0.52793 0.15291 0.85093 0.0
C1026 C 0.49142 0.03381 0.86123 0.0
C1027 C 0.54851 0.10655 0.85454 0.0
C1028 C 0.59546 0.1401 0.85256 0.0
C1029 C 0.46045 0.04662 0.8598 0.0
C1030 C 0.47401 0.09048 0.85683 0.0
C1031 C 0.51754 0.11932 0.85323 0.0
C1032 C 0.44604 0.10878 0.86106 0.0
C1033 C 0.41369 0.01348 0.86241 0.0
C1034 C 0.44134 0.13642 0.8492 0.0
C1035 C 0.42163 0.15971 0.8548 0.0
C1036 C 0.40723 0.15621 0.87241 0.0
C1037 C 0.41046 0.12726 0.88394 0.0
C1038 C 0.42965 0.1039 0.87834 0.0
H1039 H 0.40676 0.98166 0.85726 0.0
H1040 H 0.40623 0.00977 0.87683 0.0
H1041 H 0.39217 0.02293 0.85567 0.0
H1042 H 0.45437 0.14121 0.83588 0.0
H1043 H 0.41987 0.18208 0.84572 0.0
H1044 H 0.25933 0.38308 0.36665 0.0
H1045 H 0.3373 0.4144 0.36984 0.0
H1046 H 0.32852 0.44387 0.42473 0.0
H1047 H 0.25039 0.41238 0.42147 0.0
H1048 H 0.37858 0.5148 0.40387 0.0
H1049 H 0.42808 0.39307 0.39358 0.0
H1050 H 0.39037 0.39092 0.37734 0.0
H1051 H 0.37419 0.37905 0.4002 0.0
C1052 C 0.27393 0.39442 0.37959 0.0
C1053 C 0.24915 0.39492 0.39389 0.0
C1054 C 0.31845 0.41224 0.38143 0.0
C1055 C 0.33882 0.43118 0.39758 0.0
C1056 C 0.31345 0.42896 0.41223 0.0
H1057 H 0.60013 0.64019 0.41376 0.0
H1058 H 0.53746 0.56943 0.41975 0.0
C1059 C 0.26887 0.41082 0.41041 0.0
C1060 C 0.38623 0.46037 0.39808 0.0
H1061 H 0.48296 0.46714 0.38925 0.0
C1062 C 0.40144 0.50418 0.4011 0.0
C1063 C 0.41598 0.4466 0.39413 0.0
C1064 C 0.40144 0.39977 0.39127 0.0
C1065 C 0.44526 0.53478 0.39967 0.0
C1066 C 0.47503 0.52125 0.39543 0.0
C1067 C 0.46013 0.47734 0.39273 0.0
C1068 C 0.52078 0.55361 0.39208 0.0
C1069 C 0.45921 0.5818 0.40182 0.0
C1070 C 0.5341 0.5664 0.37453 0.0
C1071 C 0.56987 0.60675 0.3711 0.0
C1072 C 0.59281 0.63469 0.38518 0.0
C1073 C 0.5834 0.61911 0.40267 0.0
C1074 C 0.54732 0.57878 0.40611 0.0
H1075 H 0.43144 0.5872 0.40301 0.0
H1076 H 0.47925 0.5946 0.41396 0.0
H1077 H 0.47909 0.60053 0.3903 0.0
H1078 H 0.51404 0.54754 0.36352 0.0
H1079 H 0.57628 0.61817 0.3575 0.0
H1080 H 0.96402 0.58509 0.90193 0.0
H1081 H 0.97037 0.52109 0.89779 0.0
H1082 H 0.96446 0.53286 0.84099 0.0
H1083 H 0.95753 0.59644 0.84518 0.0
H1084 H 0.89266 0.4634 0.85553 0.0
H1085 H 0.03965 0.46586 0.8795 0.0
H1086 H 0.02081 0.49227 0.89422 0.0
H1087 H 0.0395 0.51383 0.87238 0.0
C1088 C 0.96739 0.57592 0.88857 0.0
C1089 C 0.96029 0.59557 0.87387 0.0
C1090 C 0.97068 0.53901 0.88618 0.0
C1091 C 0.96745 0.52188 0.86906 0.0
C1092 C 0.96708 0.5455 0.8543 0.0
H1093 H 0.83487 0.2396 0.85261 0.0
H1094 H 0.87889 0.31611 0.84476 0.0
C1095 C 0.96361 0.58217 0.8567 0.0
C1096 C 0.9527 0.47544 0.86698 0.0
H1097 H 0.97421 0.39686 0.87944 0.0
C1098 C 0.91098 0.44889 0.86028 0.0
C1099 C 0.97638 0.45658 0.87337 0.0
C1100 C 0.02175 0.48363 0.88014 0.0
C1101 C 0.89122 0.40395 0.86087 0.0
C1102 C 0.91418 0.38496 0.86799 0.0
C1103 C 0.95676 0.4115 0.87385 0.0
C1104 C 0.89219 0.33835 0.87203 0.0
C1105 C 0.84479 0.37723 0.85515 0.0
C1106 C 0.8861 0.32552 0.88985 0.0
C1107 C 0.86113 0.28228 0.8943 0.0
C1108 C 0.84173 0.25062 0.88103 0.0
C1109 C 0.84925 0.2632 0.86311 0.0
C1110 C 0.87428 0.30686 0.85863 0.0
H1111 H 0.82982 0.3972 0.85242 0.0
H1112 H 0.84293 0.35934 0.84285 0.0
H1113 H 0.82562 0.35337 0.86557 0.0
H1114 H 0.89951 0.3492 0.9004 0.0
H1115 H 0.85662 0.27376 0.90826 0.0
H1116 H 0.07149 0.33688 0.31198 0.0
H1117 H 0.09754 0.35693 0.28157 0.0
H1118 H 0.22821 0.42606 0.30072 0.0
H1119 H 0.20209 0.40638 0.3315 0.0
H1120 H 0.19266 0.46004 0.26652 0.0
H1121 H 0.17307 0.29608 0.26552 0.0
H1122 H 0.13066 0.30206 0.27536 0.0
H1123 H 0.18239 0.32614 0.28589 0.0
C1124 C 0.10572 0.35749 0.30979 0.0
C1125 C 0.13485 0.36989 0.32405 0.0
C1126 C 0.1205 0.369 0.29242 0.0
C1127 C 0.1647 0.39278 0.28894 0.0
C1128 C 0.1939 0.40795 0.30322 0.0
H1129 H 0.28523 0.38045 0.19226 0.0
H1130 H 0.27405 0.4003 0.22204 0.0
C1131 C 0.17901 0.39678 0.32075 0.0
C1132 C 0.17979 0.39535 0.27045 0.0
H1133 H 0.18954 0.33353 0.23841 0.0
C1134 C 0.19237 0.43262 0.26036 0.0
C1135 C 0.17912 0.35937 0.2625 0.0
C1136 C 0.16582 0.3186 0.27282 0.0
C1137 C 0.20381 0.43446 0.24232 0.0
C1138 C 0.20249 0.3982 0.23438 0.0
C1139 C 0.19045 0.36127 0.24458 0.0
C1140 C 0.214 0.39735 0.21554 0.0
C1141 C 0.21746 0.47493 0.23183 0.0
C1142 C 0.18454 0.3905 0.20187 0.0
C1143 C 0.19092 0.37911 0.18477 0.0
C1144 C 0.22685 0.3746 0.18121 0.0
C1145 C 0.25761 0.38436 0.19462 0.0
C1146 C 0.25125 0.39563 0.21163 0.0
H1147 H 0.22038 0.50161 0.2403 0.0
H1148 H 0.24885 0.48523 0.22527 0.0
H1149 H 0.19347 0.46843 0.22121 0.0
H1150 H 0.15518 0.39089 0.20475 0.0
H1151 H 0.16613 0.37045 0.1748 0.0
H1152 H 0.92094 0.23084 0.69387 0.0
H1153 H 0.89664 0.2312 0.72399 0.0
H1154 H 0.76472 0.16317 0.7061 0.0
H1155 H 0.78934 0.16054 0.67582 0.0
H1156 H 0.8511 0.26267 0.73989 0.0
H1157 H 0.76275 0.08408 0.74435 0.0
H1158 H 0.79766 0.11238 0.72596 0.0
H1159 H 0.74481 0.10611 0.7272 0.0
C1160 C 0.88667 0.21602 0.69629 0.0
C1161 C 0.85692 0.19575 0.68242 0.0
C1162 C 0.87284 0.21656 0.71353 0.0
C1163 C 0.82883 0.19681 0.71745 0.0
C1164 C 0.79888 0.1781 0.70349 0.0
H1165 H 0.72646 0.12533 0.82486 0.0
H1166 H 0.73037 0.14817 0.79393 0.0
C1167 C 0.81286 0.17729 0.68611 0.0
C1168 C 0.81536 0.19392 0.73636 0.0
H1169 H 0.76672 0.12215 0.77012 0.0
C1170 C 0.8321 0.23193 0.74646 0.0
C1171 C 0.79071 0.15386 0.74501 0.0
C1172 C 0.77318 0.11173 0.73516 0.0
C1173 C 0.82594 0.23093 0.76496 0.0
C1174 C 0.80273 0.19083 0.77367 0.0
C1175 C 0.78438 0.15295 0.76346 0.0
C1176 C 0.79988 0.18659 0.7934 0.0
C1177 C 0.84483 0.27285 0.775 0.0
C1178 C 0.83749 0.20222 0.80372 0.0
C1179 C 0.83513 0.1898 0.82152 0.0
C1180 C 0.79521 0.1614 0.82923 0.0
C1181 C 0.75751 0.1482 0.81932 0.0
C1182 C 0.75979 0.16087 0.8016 0.0
H1183 H 0.84786 0.29924 0.76633 0.0
H1184 H 0.82495 0.2703 0.78674 0.0
H1185 H 0.87759 0.28177 0.77966 0.0
H1186 H 0.86886 0.22112 0.79767 0.0
H1187 H 0.86467 0.19919 0.82873 0.0
H1188 H 0.69112 0.9168 0.20087 0.0
H1189 H 0.66212 0.885 0.22966 0.0
H1190 H 0.56891 0.76709 0.2042 0.0
H1191 H 0.59821 0.7992 0.17487 0.0
H1192 H 0.57507 0.8462 0.24365 0.0
H1193 H 0.63969 0.73399 0.239 0.0
H1194 H 0.65872 0.77983 0.22445 0.0
H1195 H 0.60575 0.73455 0.22149 0.0
C1196 C 0.66423 0.88417 0.2013 0.0
C1197 C 0.64721 0.8603 0.18562 0.0
C1198 C 0.64754 0.86612 0.21779 0.0
C1199 C 0.61362 0.82365 0.21907 0.0
C1200 C 0.59532 0.7999 0.20345 0.0
H1201 H 0.59062 0.72849 0.32932 0.0
H1202 H 0.56331 0.72538 0.29893 0.0
C1203 C 0.61189 0.81826 0.18676 0.0
C1204 C 0.60025 0.80473 0.23702 0.0
H1205 H 0.62205 0.74758 0.26731 0.0
C1206 C 0.58392 0.82347 0.24875 0.0
C1207 C 0.61192 0.77516 0.24364 0.0
C1208 C 0.63013 0.75461 0.23159 0.0
C1209 C 0.58233 0.81615 0.26711 0.0
C1210 C 0.59769 0.7897 0.27387 0.0
C1211 C 0.61018 0.76776 0.26204 0.0
C1212 C 0.60954 0.79164 0.29281 0.0
C1213 C 0.56707 0.83912 0.27928 0.0
C1214 C 0.64426 0.82985 0.29933 0.0
C1215 C 0.66015 0.83146 0.31635 0.0
C1216 C 0.64137 0.79499 0.32731 0.0
C1217 C 0.60534 0.75712 0.32114 0.0
C1218 C 0.58986 0.75528 0.30384 0.0
H1219 H 0.54481 0.84724 0.2723 0.0
H1220 H 0.55055 0.81924 0.29113 0.0
H1221 H 0.59524 0.86957 0.28391 0.0
H1222 H 0.66028 0.85807 0.29094 0.0
H1223 H 0.6879 0.86107 0.3208 0.0
H1224 H 0.84268 0.64125 0.67233 0.0
H1225 H 0.85801 0.62284 0.70186 0.0
H1226 H 0.74012 0.6112 0.72186 0.0
H1227 H 0.72513 0.63023 0.69256 0.0
H1228 H 0.8595 0.68214 0.73166 0.0
H1229 H 0.75215 0.50759 0.74464 0.0
H1230 H 0.77029 0.52878 0.72255 0.0
H1231 H 0.72951 0.5357 0.7332 0.0
C1232 C 0.81929 0.63304 0.68286 0.0
C1233 C 0.78267 0.63691 0.68023 0.0
C1234 C 0.82812 0.62273 0.6997 0.0
C1235 C 0.79993 0.61528 0.71395 0.0
C1236 C 0.76187 0.61616 0.71097 0.0
H1237 H 0.80443 0.61795 0.82863 0.0
H1238 H 0.78258 0.60043 0.79733 0.0
C1239 C 0.75345 0.62718 0.69427 0.0
C1240 C 0.81352 0.61447 0.73242 0.0
H1241 H 0.78944 0.55157 0.76944 0.0
C1242 C 0.84473 0.65349 0.73987 0.0
C1243 C 0.79329 0.57724 0.74311 0.0
C1244 C 0.75954 0.53475 0.73554 0.0
C1245 C 0.85567 0.65663 0.7579 0.0
C1246 C 0.83589 0.61926 0.76865 0.0
C1247 C 0.80479 0.58004 0.76115 0.0
C1248 C 0.84693 0.62114 0.78775 0.0
C1249 C 0.88702 0.7004 0.76539 0.0
C1250 C 0.88973 0.63617 0.7928 0.0
C1251 C 0.9022 0.6467 0.81047 0.0
C1252 C 0.87188 0.64124 0.8235 0.0
C1253 C 0.82827 0.62212 0.8188 0.0
C1254 C 0.81586 0.6123 0.80096 0.0
H1255 H 0.88971 0.72673 0.75677 0.0
H1256 H 0.87723 0.70464 0.77889 0.0
H1257 H 0.91941 0.70378 0.76631 0.0
H1258 H 0.91401 0.64222 0.78289 0.0
H1259 H 0.936 0.66119 0.81383 0.0
H1260 H 0.1368 0.86122 0.18428 0.0
H1261 H 0.15957 0.86277 0.21494 0.0
H1262 H 0.21446 0.78435 0.20046 0.0
H1263 H 0.19107 0.7822 0.16947 0.0
H1264 H 0.13087 0.77745 0.23463 0.0
H1265 H 0.30745 0.89303 0.23251 0.0
H1266 H 0.27184 0.89719 0.21671 0.0
H1267 H 0.28153 0.85301 0.21533 0.0
C1268 C 0.15438 0.84489 0.18752 0.0
C1269 C 0.16248 0.8219 0.17446 0.0
C1270 C 0.16731 0.84576 0.20505 0.0
C1271 C 0.18867 0.82371 0.20995 0.0
C1272 C 0.19831 0.80188 0.19687 0.0
H1273 H 0.2398 0.83268 0.32677 0.0
H1274 H 0.23765 0.80798 0.29589 0.0
C1275 C 0.18528 0.80098 0.17918 0.0
C1276 C 0.19763 0.82169 0.22905 0.0
H1277 H 0.27444 0.87483 0.26078 0.0
C1278 C 0.16252 0.79766 0.24035 0.0
C1279 C 0.23889 0.84814 0.23644 0.0
C1280 C 0.27734 0.87446 0.22473 0.0
C1281 C 0.16709 0.80162 0.25888 0.0
C1282 C 0.20768 0.83055 0.26628 0.0
C1283 C 0.24346 0.85231 0.25504 0.0
C1284 C 0.21104 0.84528 0.28491 0.0
C1285 C 0.12785 0.7773 0.27045 0.0
C1286 C 0.19711 0.87437 0.28879 0.0
C1287 C 0.19835 0.8884 0.30612 0.0
C1288 C 0.21354 0.87368 0.32016 0.0
C1289 C 0.22787 0.84456 0.31629 0.0
C1290 C 0.22677 0.83055 0.2987 0.0
H1291 H 0.10146 0.74952 0.2633 0.0
H1292 H 0.13594 0.76555 0.28268 0.0
H1293 H 0.11597 0.7992 0.27454 0.0
H1294 H 0.18489 0.8861 0.27833 0.0
H1295 H 0.18692 0.91072 0.30845 0.0
H1296 H 0.41287 0.25635 0.82759 0.0
H1297 H 0.44124 0.25562 0.79781 0.0
H1298 H 0.33238 0.12925 0.78845 0.0
H1299 H 0.30398 0.13026 0.81786 0.0
H1300 H 0.4167 0.14441 0.77526 0.0
H1301 H 0.37218 0.26593 0.75426 0.0
H1302 H 0.4066 0.27722 0.77332 0.0
H1303 H 0.3514 0.2353 0.77444 0.0
C1304 C 0.39592 0.22801 0.81932 0.0
C1305 C 0.35643 0.19328 0.82488 0.0
C1306 C 0.4119 0.22773 0.80233 0.0
C1307 C 0.38864 0.19253 0.79091 0.0
C1308 C 0.35081 0.15668 0.79706 0.0
H1309 H 0.30454 0.07922 0.69622 0.0
H1310 H 0.332 0.10524 0.72578 0.0
C1311 C 0.33464 0.15722 0.81383 0.0
C1312 C 0.40023 0.1939 0.77195 0.0
H1313 H 0.38525 0.22879 0.73182 0.0
C1314 C 0.41125 0.16385 0.76575 0.0
C1315 C 0.39283 0.21917 0.75959 0.0
C1316 C 0.37993 0.2512 0.7656 0.0
C1317 C 0.41218 0.15637 0.7475 0.0
C1318 C 0.40144 0.17919 0.7352 0.0
C1319 C 0.39387 0.21168 0.74131 0.0
C1320 C 0.38838 0.16325 0.71683 0.0
C1321 C 0.42181 0.12205 0.74149 0.0
C1322 C 0.41099 0.18751 0.70189 0.0
C1323 C 0.39528 0.17251 0.68468 0.0
C1324 C 0.35638 0.13359 0.68237 0.0
C1325 C 0.3345 0.10941 0.69746 0.0
C1326 C 0.35028 0.12407 0.71443 0.0
H1327 H 0.441 0.11632 0.75156 0.0
H1328 H 0.39108 0.09148 0.73949 0.0
H1329 H 0.43954 0.13096 0.72867 0.0
H1330 H 0.4403 0.21811 0.70355 0.0
H1331 H 0.4127 0.19184 0.67331 0.0
H1332 H 0.34835 0.26947 0.95104 0.0
H1333 H 0.3106 0.26361 0.97842 0.0
H1334 H 0.20129 0.14582 0.95998 0.0
H1335 H 0.239 0.15216 0.93175 0.0
H1336 H 0.17808 0.20094 0.97626 0.0
H1337 H 0.29312 0.18418 0.01929 0.0
H1338 H 0.32081 0.23002 0.00509 0.0
H1339 H 0.29185 0.17695 0.9955 0.0
C1340 C 0.31646 0.24188 0.95272 0.0
C1341 C 0.29712 0.21075 0.93924 0.0
C1342 C 0.29493 0.23853 0.96852 0.0
C1343 C 0.25366 0.20359 0.97156 0.0
C1344 C 0.23349 0.17272 0.95804 0.0
H1345 H 0.19193 0.22751 0.08218 0.0
H1346 H 0.18895 0.18706 0.05532 0.0
C1347 C 0.25509 0.17627 0.94196 0.0
C1348 C 0.23213 0.20114 0.98877 0.0
H1349 H 0.25367 0.21504 0.03322 0.0
C1350 C 0.19393 0.20285 0.98878 0.0
C1351 C 0.25217 0.20274 0.00519 0.0
C1352 C 0.2915 0.19789 0.00628 0.0
C1353 C 0.17738 0.20981 1.00461 0.0
C1354 C 0.20015 0.21612 0.02076 0.0
C1355 C 0.23624 0.21067 0.0209 0.0
C1356 C 0.1914 0.23455 0.03692 0.0
C1357 C 0.13635 0.21157 1.00373 0.0
C1358 C 0.19229 0.27393 0.03559 0.0
C1359 C 0.19371 0.29672 0.05082 0.0
C1360 C 0.19471 0.28097 0.06779 0.0
C1361 C 0.19056 0.2401 0.06927 0.0
C1362 C 0.18922 0.21718 0.05392 0.0
H1363 H 0.11451 0.18943 0.99333 0.0
H1364 H 0.11911 0.20299 0.01665 0.0
H1365 H 0.14409 0.24459 1.00006 0.0
H1366 H 0.19526 0.28884 0.02277 0.0
H1367 H 0.19721 0.32828 0.04928 0.0
H1368 H 0.12111 0.28483 0.43574 0.0
H1369 H 0.08568 0.24878 0.46362 0.0
H1370 H 0.04807 0.34381 0.47243 0.0
H1371 H 0.08306 0.37963 0.44475 0.0
H1372 H 0.09482 0.30814 0.5033 0.0
H1373 H 0.93918 0.19843 0.46978 0.0
H1374 H 0.99027 0.21468 0.4592 0.0
H1375 H 0.97201 0.25252 0.46158 0.0
C1376 C 0.10573 0.2982 0.44371 0.0
C1377 C 0.10514 0.33512 0.43798 0.0
C1378 C 0.0855 0.27762 0.45963 0.0
C1379 C 0.06426 0.29367 0.47005 0.0
C1380 C 0.06446 0.33104 0.46461 0.0
H1381 H 0.88715 0.24502 0.55078 0.0
H1382 H 0.92841 0.25516 0.52381 0.0
C1383 C 0.08469 0.35157 0.44878 0.0
C1384 C 0.04033 0.27109 0.48634 0.0
H1385 H 0.93863 0.20184 0.50107 0.0
C1386 C 0.06088 0.2842 0.50289 0.0
C1387 C 0.99608 0.24011 0.48567 0.0
C1388 C 0.97277 0.22527 0.46816 0.0
C1389 C 0.03775 0.26867 0.51888 0.0
C1390 C 0.99294 0.23886 0.51824 0.0
C1391 C 0.97296 0.22437 0.5016 0.0
C1392 C 0.96519 0.22751 0.53436 0.0
C1393 C 0.06094 0.28635 0.53628 0.0
C1394 C 0.9709 0.2071 0.54924 0.0
C1395 C 0.94698 0.20109 0.56486 0.0
C1396 C 0.9171 0.21548 0.56579 0.0
C1397 C 0.90999 0.23368 0.55055 0.0
C1398 C 0.93361 0.23951 0.53507 0.0
H1399 H 0.0938 0.31426 0.53433 0.0
H1400 H 0.04254 0.29648 0.54492 0.0
H1401 H 0.06395 0.26093 0.54336 0.0
H1402 H 0.99457 0.19686 0.54893 0.0
H1403 H 0.95339 0.18727 0.57643 0.0
H1404 H 0.72324 0.87661 0.07281 0.0
H1405 H 0.75524 0.90699 0.04377 0.0
H1406 H 0.67014 0.95857 0.0385 0.0
H1407 H 0.63703 0.92688 0.06689 0.0
H1408 H 0.67448 0.92525 0.00824 0.0
H1409 H 0.84121 0.02955 0.03297 0.0
H1410 H 0.81962 0.97334 0.03721 0.0
H1411 H 0.79602 0.00155 0.04777 0.0
C1412 C 0.71113 0.89406 0.06534 0.0
C1413 C 0.67732 0.89898 0.07211 0.0
C1414 C 0.72979 0.91189 0.04882 0.0
C1415 C 0.71573 0.93586 0.03899 0.0
C1416 C 0.68164 0.94024 0.04573 0.0
H1417 H 0.81214 0.12841 0.96009 0.0
H1418 H 0.79985 0.08549 0.9869 0.0
C1419 C 0.66258 0.92192 0.062 0.0
C1420 C 0.73573 0.95636 0.02164 0.0
H1421 H 0.83 0.03127 1.00216 0.0
C1422 C 0.7086 0.94805 0.0069 0.0
C1423 C 0.78024 0.98658 0.01985 0.0
C1424 C 0.81097 0.99868 0.03531 0.0
C1425 C 0.7243 0.96975 0.99068 0.0
C1426 C 0.76872 0.99987 0.9889 0.0
C1427 C 0.79613 0.00758 1.00346 0.0
C1428 C 0.78582 0.02744 0.97281 0.0
C1429 C 0.69282 0.96201 0.97588 0.0
C1430 C 0.78466 0.00983 0.95596 0.0
C1431 C 0.79266 0.03477 0.94055 0.0
C1432 C 0.80135 0.0774 0.94183 0.0
C1433 C 0.80601 0.0958 0.95875 0.0
C1434 C 0.79869 0.07118 0.97408 0.0
H1435 H 0.65885 0.9429 0.98037 0.0
H1436 H 0.69819 0.99304 0.97045 0.0
H1437 H 0.69778 0.94426 0.96493 0.0
H1438 H 0.77509 0.97619 0.95467 0.0
H1439 H 0.78817 0.0196 0.92767 0.0
H1440 H 0.70331 0.65961 0.56404 0.0
H1441 H 0.69484 0.69511 0.53827 0.0
H1442 H 0.82881 0.79275 0.54119 0.0
H1443 H 0.83757 0.75716 0.56773 0.0
H1444 H 0.71624 0.78678 0.53468 0.0
H1445 H 0.80321 0.73353 0.48917 0.0
H1446 H 0.78116 0.70658 0.51001 0.0
H1447 H 0.82771 0.75928 0.50995 0.0
C1448 C 0.73124 0.68856 0.55925 0.0
C1449 C 0.77143 0.70507 0.5677 0.0
C1450 C 0.72615 0.70901 0.54456 0.0
C1451 C 0.76117 0.74627 0.53772 0.0
C1452 C 0.80141 0.76377 0.54626 0.0
H1453 H 0.72607 0.83582 0.43321 0.0
H1454 H 0.75939 0.83747 0.46182 0.0
C1455 C 0.80642 0.7435 0.56135 0.0
C1456 C 0.75448 0.76469 0.52121 0.0
H1457 H 0.76155 0.75982 0.47607 0.0
C1458 C 0.72707 0.782 0.52187 0.0
C1459 C 0.76818 0.75785 0.50453 0.0
C1460 C 0.79662 0.7382 0.50317 0.0
C1461 C 0.7115 0.79086 0.50625 0.0
C1462 C 0.72326 0.78175 0.48958 0.0
C1463 C 0.7526 0.76677 0.48889 0.0
C1464 C 0.70228 0.78356 0.47286 0.0
C1465 C 0.68137 0.80852 0.50763 0.0
C1466 C 0.659 0.75292 0.46964 0.0
C1467 C 0.6399 0.75165 0.45327 0.0
C1468 C 0.66364 0.78125 0.43982 0.0
C1469 C 0.70662 0.81289 0.44333 0.0
C1470 C 0.72587 0.81376 0.45964 0.0
H1471 H 0.68296 0.82264 0.52095 0.0
H1472 H 0.68904 0.83347 0.49734 0.0
H1473 H 0.64787 0.78214 0.50537 0.0
H1474 H 0.64038 0.72898 0.4796 0.0
H1475 H 0.60692 0.72664 0.45097 0.0
H1476 H 0.88564 0.72666 0.93561 0.0
H1477 H 0.91542 0.75705 0.96501 0.0
H1478 H 0.94986 0.6594 0.97282 0.0
H1479 H 0.91976 0.62855 0.94383 0.0
H1480 H 0.89525 0.69553 1.00257 0.0
H1481 H 0.06194 0.79635 0.97674 0.0
H1482 H 0.0151 0.78355 0.96342 0.0
H1483 H 0.02911 0.74308 0.96773 0.0
C1484 C 0.89886 0.71127 0.94371 0.0
C1485 C 0.89972 0.67484 0.93741 0.0
C1486 C 0.916 0.72875 0.96047 0.0
C1487 C 0.93473 0.71036 0.97106 0.0
C1488 C 0.93532 0.67389 0.96488 0.0
H1489 H 0.0876 0.74085 0.05971 0.0
H1490 H 0.05198 0.73236 0.03144 0.0
C1491 C 0.91793 0.65625 0.94829 0.0
C1492 C 0.95506 0.72949 0.98838 0.0
H1493 H 0.05347 0.78919 0.0079 0.0
C1494 C 0.92973 0.71673 1.00381 0.0
C1495 C 1.00001 0.75674 0.98986 0.0
C1496 C 0.0284 0.77106 0.97361 0.0
C1497 C 0.94852 0.72892 0.02081 0.0
C1498 C 0.9938 0.75523 0.02234 0.0
C1499 C 0.01879 0.76937 0.00678 0.0
C1500 C 0.01649 0.76338 0.03974 0.0
C1501 C 0.92005 0.71136 0.03696 0.0
C1502 C 0.00916 0.78449 0.05396 0.0
C1503 C 0.02966 0.78934 0.07045 0.0
C1504 C 0.05786 0.77326 0.07289 0.0
C1505 C 0.06603 0.75356 0.05841 0.0
C1506 C 0.04567 0.7487 0.04213 0.0
H1507 H 0.88706 0.68539 0.03349 0.0
H1508 H 0.93402 0.69852 0.04669 0.0
H1509 H 0.91745 0.73762 0.04352 0.0
H1510 H 0.98734 0.7968 0.05237 0.0
H1511 H 0.02262 0.80455 0.08135 0.0
H1512 H 0.17613 0.87078 0.44357 0.0
H1513 H 0.18791 0.90795 0.47234 0.0
H1514 H 0.31719 0.00073 0.45613 0.0
H1515 H 0.30655 0.96199 0.42844 0.0
H1516 H 0.32301 0.97961 0.48648 0.0
H1517 H 0.18746 0.01127 0.48911 0.0
H1518 H 0.16911 0.955 0.48712 0.0
H1519 H 0.1998 0.99105 0.46937 0.0
C1520 C 0.20693 0.89913 0.44627 0.0
C1521 C 0.24065 0.913 0.43392 0.0
C1522 C 0.21358 0.9208 0.46263 0.0
C1523 C 0.2535 0.95772 0.46658 0.0
C1524 C 0.28627 0.97223 0.45375 0.0
H1525 H 0.31267 0.13146 0.55932 0.0
H1526 H 0.28873 0.09684 0.52987 0.0
C1527 C 0.28017 0.94991 0.43785 0.0
C1528 C 0.26323 0.97982 0.48436 0.0
H1529 H 0.22743 0.02316 0.51606 0.0
C1530 C 0.30206 0.9894 0.49275 0.0
C1531 C 0.23661 0.99346 0.49271 0.0
C1532 C 0.19617 0.9876 0.48403 0.0
C1533 C 0.31505 0.01192 0.50891 0.0
C1534 C 0.28727 0.02316 0.51783 0.0
C1535 C 0.24857 0.01412 0.50946 0.0
C1536 C 0.29773 0.04295 0.53602 0.0
C1537 C 0.35927 0.02442 0.51589 0.0
C1538 C 0.3091 0.02363 0.54953 0.0
C1539 C 0.32413 0.04402 0.56588 0.0
C1540 C 0.32629 0.08337 0.56964 0.0
C1541 C 0.31172 0.10136 0.55673 0.0
C1542 C 0.29794 0.08148 0.53994 0.0
H1543 H 0.38151 0.02806 0.50489 0.0
H1544 H 0.37368 0.05509 0.52343 0.0
H1545 H 0.35688 0.99868 0.52476 0.0
H1546 H 0.30743 0.99307 0.5473 0.0
H1547 H 0.33418 0.02877 0.5757 0.0
loop_
_geom_bond_atom_site_label_1
_geom_bond_atom_site_label_2
_geom_bond_distance
_geom_bond_site_symmetry_2
_ccdc_geom_bond_type
Zn0 O6 1.920 . S
Zn0 O12 1.898 . S
Zn0 O15 1.905 . S
Zn1 O9 1.905 . S
Zn1 O10 1.898 . S
Zn1 O18 1.920 . S
Zn2 O5 2.080 . S
Zn2 O8 2.114 . S
Zn2 O11 2.120 . S
Zn2 O13 2.120 . S
Zn2 O14 2.114 . S
Zn2 O17 2.080 . S
C3 O8 1.166 . S
C3 O9 1.182 . S
C4 O10 1.167 . S
C4 O11 1.299 . S
O5 Zn2 2.080 . S
O5 C19 1.305 . S
O6 Zn0 1.920 . S
O6 C19 1.234 . S
C7 O12 1.167 . S
C7 O13 1.299 . S
O8 Zn2 2.114 . S
O8 C3 1.166 . S
O9 Zn1 1.905 . S
O9 C3 1.182 . S
O10 Zn1 1.898 . S
O10 C4 1.167 . S
O11 Zn2 2.120 . S
O11 C4 1.299 . S
O12 Zn0 1.898 . S
O12 C7 1.167 . S
O13 Zn2 2.120 . S
O13 C7 1.299 . S
O14 Zn2 2.114 . S
O14 C16 1.166 . S
O15 Zn0 1.905 . S
O15 C16 1.182 . S
C16 O14 1.166 . S
C16 O15 1.182 . S
O17 Zn2 2.080 . S
O17 C20 1.305 . S
O18 Zn1 1.920 . S
O18 C20 1.234 . S
C19 O5 1.305 . S
C19 O6 1.234 . S
C20 O17 1.305 . S
C20 O18 1.234 . S
Zn21 O27 1.920 . S
Zn21 O33 1.898 . S
Zn21 O36 1.905 . S
Zn22 O30 1.905 . S
Zn22 O31 1.898 . S
Zn22 O39 1.920 . S
Zn23 O26 2.080 . S
Zn23 O29 2.114 . S
Zn23 O32 2.120 . S
Zn23 O34 2.120 . S
Zn23 O35 2.114 . S
Zn23 O38 2.080 . S
C24 O29 1.166 . S
C24 O30 1.182 . S
C25 O31 1.167 . S
C25 O32 1.299 . S
O26 Zn23 2.080 . S
O26 C40 1.305 . S
O27 Zn21 1.920 . S
O27 C40 1.234 . S
C28 O33 1.167 . S
C28 O34 1.299 . S
O29 Zn23 2.114 . S
O29 C24 1.166 . S
O30 Zn22 1.905 . S
O30 C24 1.182 . S
O31 Zn22 1.898 . S
O31 C25 1.167 . S
O32 Zn23 2.120 . S
O32 C25 1.299 . S
O33 Zn21 1.898 . S
O33 C28 1.167 . S
O34 Zn23 2.120 . S
O34 C28 1.299 . S
O35 Zn23 2.114 . S
O35 C37 1.166 . S
O36 Zn21 1.905 . S
O36 C37 1.182 . S
C37 O35 1.166 . S
C37 O36 1.182 . S
O38 Zn23 2.080 . S
O38 C41 1.305 . S
O39 Zn22 1.920 . S
O39 C41 1.234 . S
C40 O26 1.305 . S
C40 O27 1.234 . S
C41 O38 1.305 . S
C41 O39 1.234 . S
Zn42 O48 1.920 . S
Zn42 O54 1.898 . S
Zn42 O57 1.905 . S
Zn43 O51 1.905 . S
Zn43 O52 1.898 . S
Zn43 O60 1.920 . S
Zn44 O47 2.080 . S
Zn44 O50 2.114 . S
Zn44 O53 2.120 . S
Zn44 O55 2.120 . S
Zn44 O56 2.114 . S
Zn44 O59 2.080 . S
C45 O50 1.166 . S
C45 O51 1.182 . S
C46 O52 1.167 . S
C46 O53 1.299 . S
O47 Zn44 2.080 . S
O47 C61 1.305 . S
O48 Zn42 1.920 . S
O48 C61 1.234 . S
C49 O54 1.167 . S
C49 O55 1.299 . S
O50 Zn44 2.114 . S
O50 C45 1.166 . S
O51 Zn43 1.905 . S
O51 C45 1.182 . S
O52 Zn43 1.898 . S
O52 C46 1.167 . S
O53 Zn44 2.120 . S
O53 C46 1.299 . S
O54 Zn42 1.898 . S
O54 C49 1.167 . S
O55 Zn44 2.120 . S
O55 C49 1.299 . S
O56 Zn44 2.114 . S
O56 C58 1.166 . S
O57 Zn42 1.905 . S
O57 C58 1.182 . S
C58 O56 1.166 . S
C58 O57 1.182 . S
O59 Zn44 2.080 . S
O59 C62 1.305 . S
O60 Zn43 1.920 . S
O60 C62 1.234 . S
C61 O47 1.305 . S
C61 O48 1.234 . S
C62 O59 1.305 . S
C62 O60 1.234 . S
Zn63 O69 1.920 . S
Zn63 O75 1.898 . S
Zn63 O78 1.905 . S
Zn64 O72 1.905 . S
Zn64 O73 1.898 . S
Zn64 O81 1.920 . S
Zn65 O68 2.080 . S
Zn65 O71 2.114 . S
Zn65 O74 2.120 . S
Zn65 O76 2.120 . S
Zn65 O77 2.114 . S
Zn65 O80 2.080 . S
C66 O71 1.166 . S
C66 O72 1.182 . S
C67 O73 1.167 . S
C67 O74 1.299 . S
O68 Zn65 2.080 . S
O68 C82 1.305 . S
O69 Zn63 1.920 . S
O69 C82 1.234 . S
C70 O75 1.167 . S
C70 O76 1.299 . S
O71 Zn65 2.114 . S
O71 C66 1.166 . S
O72 Zn64 1.905 . S
O72 C66 1.182 . S
O73 Zn64 1.898 . S
O73 C67 1.167 . S
O74 Zn65 2.120 . S
O74 C67 1.299 . S
O75 Zn63 1.898 . S
O75 C70 1.167 . S
O76 Zn65 2.120 . S
O76 C70 1.299 . S
O77 Zn65 2.114 . S
O77 C79 1.166 . S
O78 Zn63 1.905 . S
O78 C79 1.182 . S
C79 O77 1.166 . S
C79 O78 1.182 . S
O80 Zn65 2.080 . S
O80 C83 1.305 . S
O81 Zn64 1.920 . S
O81 C83 1.234 . S
C82 O68 1.305 . S
C82 O69 1.234 . S
C83 O80 1.305 . S
C83 O81 1.234 . S
Zn84 O90 1.920 . S
Zn84 O96 1.898 . S
Zn84 O99 1.905 . S
Zn85 O93 1.905 . S
Zn85 O94 1.898 . S
Zn85 O102 1.920 . S
Zn86 O89 2.080 . S
Zn86 O92 2.114 . S
Zn86 O95 2.120 . S
Zn86 O97 2.120 . S
Zn86 O98 2.114 . S
Zn86 O101 2.080 . S
C87 O92 1.166 . S
C87 O93 1.182 . S
C88 O94 1.167 . S
C88 O95 1.299 . S
O89 Zn86 2.080 . S
O89 C103 1.305 . S
O90 Zn84 1.920 . S
O90 C103 1.234 . S
C91 O96 1.167 . S
C91 O97 1.299 . S
O92 Zn86 2.114 . S
O92 C87 1.166 . S
O93 Zn85 1.905 . S
O93 C87 1.182 . S
O94 Zn85 1.898 . S
O94 C88 1.167 . S
O95 Zn86 2.120 . S
O95 C88 1.299 . S
O96 Zn84 1.898 . S
O96 C91 1.167 . S
O97 Zn86 2.120 . S
O97 C91 1.299 . S
O98 Zn86 2.114 . S
O98 C100 1.166 . S
O99 Zn84 1.905 . S
O99 C100 1.182 . S
C100 O98 1.166 . S
C100 O99 1.182 . S
O101 Zn86 2.080 . S
O101 C104 1.305 . S
O102 Zn85 1.920 . S
O102 C104 1.234 . S
C103 O89 1.305 . S
C103 O90 1.234 . S
C104 O101 1.305 . S
C104 O102 1.234 . S
Zn105 O111 1.920 . S
Zn105 O117 1.898 . S
Zn105 O120 1.905 . S
Zn106 O114 1.905 . S
Zn106 O115 1.898 . S
Zn106 O123 1.920 . S
Zn107 O110 2.080 . S
Zn107 O113 2.114 . S
Zn107 O116 2.120 . S
Zn107 O118 2.120 . S
Zn107 O119 2.114 . S
Zn107 O122 2.080 . S
C108 O113 1.166 . S
C108 O114 1.182 . S
C109 O115 1.167 . S
C109 O116 1.299 . S
O110 Zn107 2.080 . S
O110 C124 1.305 . S
O111 Zn105 1.920 . S
O111 C124 1.234 . S
C112 O117 1.167 . S
C112 O118 1.299 . S
O113 Zn107 2.114 . S
O113 C108 1.166 . S
O114 Zn106 1.905 . S
O114 C108 1.182 . S
O115 Zn106 1.898 . S
O115 C109 1.167 . S
O116 Zn107 2.120 . S
O116 C109 1.299 . S
O117 Zn105 1.898 . S
O117 C112 1.167 . S
O118 Zn107 2.120 . S
O118 C112 1.299 . S
O119 Zn107 2.114 . S
O119 C121 1.166 . S
O120 Zn105 1.905 . S
O120 C121 1.182 . S
C121 O119 1.166 . S
C121 O120 1.182 . S
O122 Zn107 2.080 . S
O122 C125 1.305 . S
O123 Zn106 1.920 . S
O123 C125 1.234 . S
C124 O110 1.305 . S
C124 O111 1.234 . S
C125 O122 1.305 . S
C125 O123 1.234 . S
Zn126 O132 1.920 . S
Zn126 O138 1.898 . S
Zn126 O141 1.905 . S
Zn127 O135 1.905 . S
Zn127 O136 1.898 . S
Zn127 O144 1.920 . S
Zn128 O131 2.080 . S
Zn128 O134 2.114 . S
Zn128 O137 2.120 . S
Zn128 O139 2.120 . S
Zn128 O140 2.114 . S
Zn128 O143 2.080 . S
C129 O134 1.166 . S
C129 O135 1.182 . S
C130 O136 1.167 . S
C130 O137 1.299 . S
O131 Zn128 2.080 . S
O131 C145 1.305 . S
O132 Zn126 1.920 . S
O132 C145 1.234 . S
C133 O138 1.167 . S
C133 O139 1.299 . S
O134 Zn128 2.114 . S
O134 C129 1.166 . S
O135 Zn127 1.905 . S
O135 C129 1.182 . S
O136 Zn127 1.898 . S
O136 C130 1.167 . S
O137 Zn128 2.120 . S
O137 C130 1.299 . S
O138 Zn126 1.898 . S
O138 C133 1.167 . S
O139 Zn128 2.120 . S
O139 C133 1.299 . S
O140 Zn128 2.114 . S
O140 C142 1.166 . S
O141 Zn126 1.905 . S
O141 C142 1.182 . S
C142 O140 1.166 . S
C142 O141 1.182 . S
O143 Zn128 2.080 . S
O143 C146 1.305 . S
O144 Zn127 1.920 . S
O144 C146 1.234 . S
C145 O131 1.305 . S
C145 O132 1.234 . S
C146 O143 1.305 . S
C146 O144 1.234 . S
Zn147 O153 1.920 . S
Zn147 O159 1.898 . S
Zn147 O162 1.905 . S
Zn148 O156 1.905 . S
Zn148 O157 1.898 . S
Zn148 O165 1.920 . S
Zn149 O152 2.080 . S
Zn149 O155 2.114 . S
Zn149 O158 2.120 . S
Zn149 O160 2.120 . S
Zn149 O161 2.114 . S
Zn149 O164 2.080 . S
C150 O155 1.166 . S
C150 O156 1.182 . S
C151 O157 1.167 . S
C151 O158 1.299 . S
O152 Zn149 2.080 . S
O152 C166 1.305 . S
O153 Zn147 1.920 . S
O153 C166 1.234 . S
C154 O159 1.167 . S
C154 O160 1.299 . S
O155 Zn149 2.114 . S
O155 C150 1.166 . S
O156 Zn148 1.905 . S
O156 C150 1.182 . S
O157 Zn148 1.898 . S
O157 C151 1.167 . S
O158 Zn149 2.120 . S
O158 C151 1.299 . S
O159 Zn147 1.898 . S
O159 C154 1.167 . S
O160 Zn149 2.120 . S
O160 C154 1.299 . S
O161 Zn149 2.114 . S
O161 C163 1.166 . S
O162 Zn147 1.905 . S
O162 C163 1.182 . S
C163 O161 1.166 . S
C163 O162 1.182 . S
O164 Zn149 2.080 . S
O164 C167 1.305 . S
O165 Zn148 1.920 . S
O165 C167 1.234 . S
C166 O152 1.305 . S
C166 O153 1.234 . S
C167 O164 1.305 . S
C167 O165 1.234 . S
Zn168 O174 1.920 . S
Zn168 O180 1.898 . S
Zn168 O183 1.905 . S
Zn169 O177 1.905 . S
Zn169 O178 1.898 . S
Zn169 O186 1.920 . S
Zn170 O173 2.080 . S
Zn170 O176 2.114 . S
Zn170 O179 2.120 . S
Zn170 O181 2.120 . S
Zn170 O182 2.114 . S
Zn170 O185 2.080 . S
C171 O176 1.166 . S
C171 O177 1.182 . S
C172 O178 1.167 . S
C172 O179 1.299 . S
O173 Zn170 2.080 . S
O173 C187 1.305 . S
O174 Zn168 1.920 . S
O174 C187 1.234 . S
C175 O180 1.167 . S
C175 O181 1.299 . S
O176 Zn170 2.114 . S
O176 C171 1.166 . S
O177 Zn169 1.905 . S
O177 C171 1.182 . S
O178 Zn169 1.898 . S
O178 C172 1.167 . S
O179 Zn170 2.120 . S
O179 C172 1.299 . S
O180 Zn168 1.898 . S
O180 C175 1.167 . S
O181 Zn170 2.120 . S
O181 C175 1.299 . S
O182 Zn170 2.114 . S
O182 C184 1.166 . S
O183 Zn168 1.905 . S
O183 C184 1.182 . S
C184 O182 1.166 . S
C184 O183 1.182 . S
O185 Zn170 2.080 . S
O185 C188 1.305 . S
O186 Zn169 1.920 . S
O186 C188 1.234 . S
C187 O173 1.305 . S
C187 O174 1.234 . S
C188 O185 1.305 . S
C188 O186 1.234 . S
Zn189 O195 1.920 . S
Zn189 O201 1.898 . S
Zn189 O204 1.905 . S
Zn190 O198 1.905 . S
Zn190 O199 1.898 . S
Zn190 O207 1.920 . S
Zn191 O194 2.080 . S
Zn191 O197 2.114 . S
Zn191 O200 2.120 . S
Zn191 O202 2.120 . S
Zn191 O203 2.114 . S
Zn191 O206 2.080 . S
C192 O197 1.166 . S
C192 O198 1.182 . S
C193 O199 1.167 . S
C193 O200 1.299 . S
O194 Zn191 2.080 . S
O194 C208 1.305 . S
O195 Zn189 1.920 . S
O195 C208 1.234 . S
C196 O201 1.167 . S
C196 O202 1.299 . S
O197 Zn191 2.114 . S
O197 C192 1.166 . S
O198 Zn190 1.905 . S
O198 C192 1.182 . S
O199 Zn190 1.898 . S
O199 C193 1.167 . S
O200 Zn191 2.120 . S
O200 C193 1.299 . S
O201 Zn189 1.898 . S
O201 C196 1.167 . S
O202 Zn191 2.120 . S
O202 C196 1.299 . S
O203 Zn191 2.114 . S
O203 C205 1.166 . S
O204 Zn189 1.905 . S
O204 C205 1.182 . S
C205 O203 1.166 . S
C205 O204 1.182 . S
O206 Zn191 2.080 . S
O206 C209 1.305 . S
O207 Zn190 1.920 . S
O207 C209 1.234 . S
C208 O194 1.305 . S
C208 O195 1.234 . S
C209 O206 1.305 . S
C209 O207 1.234 . S
Zn210 O216 1.920 . S
Zn210 O222 1.898 . S
Zn210 O225 1.905 . S
Zn211 O219 1.905 . S
Zn211 O220 1.898 . S
Zn211 O228 1.920 . S
Zn212 O215 2.080 . S
Zn212 O218 2.114 . S
Zn212 O221 2.120 . S
Zn212 O223 2.120 . S
Zn212 O224 2.114 . S
Zn212 O227 2.080 . S
C213 O218 1.166 . S
C213 O219 1.182 . S
C214 O220 1.167 . S
C214 O221 1.299 . S
O215 Zn212 2.080 . S
O215 C229 1.305 . S
O216 Zn210 1.920 . S
O216 C229 1.234 . S
C217 O222 1.167 . S
C217 O223 1.299 . S
O218 Zn212 2.114 . S
O218 C213 1.166 . S
O219 Zn211 1.905 . S
O219 C213 1.182 . S
O220 Zn211 1.898 . S
O220 C214 1.167 . S
O221 Zn212 2.120 . S
O221 C214 1.299 . S
O222 Zn210 1.898 . S
O222 C217 1.167 . S
O223 Zn212 2.120 . S
O223 C217 1.299 . S
O224 Zn212 2.114 . S
O224 C226 1.166 . S
O225 Zn210 1.905 . S
O225 C226 1.182 . S
C226 O224 1.166 . S
C226 O225 1.182 . S
O227 Zn212 2.080 . S
O227 C230 1.305 . S
O228 Zn211 1.920 . S
O228 C230 1.234 . S
C229 O215 1.305 . S
C229 O216 1.234 . S
C230 O227 1.305 . S
C230 O228 1.234 . S
Zn231 O237 1.920 . S
Zn231 O243 1.898 . S
Zn231 O246 1.905 . S
Zn232 O240 1.905 . S
Zn232 O241 1.898 . S
Zn232 O249 1.920 . S
Zn233 O236 2.080 . S
Zn233 O239 2.114 . S
Zn233 O242 2.120 . S
Zn233 O244 2.120 . S
Zn233 O245 2.114 . S
Zn233 O248 2.080 . S
C234 O239 1.166 . S
C234 O240 1.182 . S
C235 O241 1.167 . S
C235 O242 1.299 . S
O236 Zn233 2.080 . S
O236 C250 1.305 . S
O237 Zn231 1.920 . S
O237 C250 1.234 . S
C238 O243 1.167 . S
C238 O244 1.299 . S
O239 Zn233 2.114 . S
O239 C234 1.166 . S
O240 Zn232 1.905 . S
O240 C234 1.182 . S
O241 Zn232 1.898 . S
O241 C235 1.167 . S
O242 Zn233 2.120 . S
O242 C235 1.299 . S
O243 Zn231 1.898 . S
O243 C238 1.167 . S
O244 Zn233 2.120 . S
O244 C238 1.299 . S
O245 Zn233 2.114 . S
O245 C247 1.166 . S
O246 Zn231 1.905 . S
O246 C247 1.182 . S
C247 O245 1.166 . S
C247 O246 1.182 . S
O248 Zn233 2.080 . S
O248 C251 1.305 . S
O249 Zn232 1.920 . S
O249 C251 1.234 . S
C250 O236 1.305 . S
C250 O237 1.234 . S
C251 O248 1.305 . S
C251 O249 1.234 . S
H252 C260 0.929 . S
H253 C262 0.935 . S
H254 C264 0.930 . S
H255 C267 0.929 . S
H256 C270 0.930 . S
H257 C272 0.960 . S
H258 C272 0.960 . S
H259 C272 0.960 1_565 S
C260 H252 0.929 . S
C260 C261 1.377 . S
C260 C262 1.384 . S
C261 C260 1.377 . S
C261 C267 1.390 . S
C262 H253 0.935 . S
C262 C260 1.384 . S
C262 C263 1.372 . S
C263 C262 1.372 . S
C263 C264 1.400 . S
C263 C268 1.490 1_565 S
C264 H254 0.930 . S
C264 C263 1.400 . S
C264 C267 1.386 . S
H265 C281 0.930 . S
H266 C282 0.931 . S
C267 H255 0.929 . S
C267 C261 1.390 . S
C267 C264 1.386 . S
C268 C263 1.490 1_545 S
C268 C270 1.395 . S
C268 C271 1.403 . S
H269 C275 0.930 . S
C270 H256 0.930 . S
C270 C268 1.395 . S
C270 C273 1.403 . S
C271 C268 1.403 . S
C271 C272 1.524 . S
C271 C275 1.400 . S
C272 H257 0.960 . S
C272 H258 0.960 . S
C272 H259 0.960 1_545 S
C272 C271 1.524 . S
C273 C270 1.403 . S
C273 C274 1.392 . S
C273 C277 1.495 . S
C274 C273 1.392 . S
C274 C275 1.385 . S
C274 C276 1.478 . S
C275 H269 0.930 . S
C275 C271 1.400 . S
C275 C274 1.385 . S
C276 C274 1.478 . S
C276 C278 1.381 . S
C276 C282 1.383 . S
C277 C273 1.495 . S
C277 H283 0.959 . S
C277 H284 0.961 . S
C277 H285 0.960 . S
C278 C276 1.381 . S
C278 C279 1.394 . S
C278 H286 0.930 . S
C279 C278 1.394 . S
C279 C280 1.383 . S
C279 H287 0.929 . S
C280 C279 1.383 . S
C280 C281 1.377 . S
C281 H265 0.930 . S
C281 C280 1.377 . S
C281 C282 1.379 . S
C282 H266 0.931 . S
C282 C276 1.383 . S
C282 C281 1.379 . S
H283 C277 0.959 . S
H284 C277 0.961 . S
H285 C277 0.960 . S
H286 C278 0.930 . S
H287 C279 0.929 . S
H288 C296 0.929 . S
H289 C298 0.930 . S
H290 C300 0.930 . S
H291 C303 0.929 . S
H292 C306 0.930 . S
H293 C308 0.960 . S
H294 C308 0.960 . S
H295 C308 0.960 . S
C296 H288 0.929 . S
C296 C297 1.377 . S
C296 C298 1.384 . S
C297 C296 1.377 . S
C297 C303 1.390 . S
C298 H289 0.930 . S
C298 C296 1.384 . S
C298 C299 1.372 . S
C299 C298 1.372 . S
C299 C300 1.400 . S
C299 C304 1.490 . S
C300 H290 0.930 . S
C300 C299 1.400 . S
C300 C303 1.386 . S
H301 C317 0.930 1_655 S
H302 C318 0.931 . S
C303 H291 0.929 . S
C303 C297 1.390 . S
C303 C300 1.386 . S
C304 C299 1.490 . S
C304 C306 1.395 . S
C304 C307 1.403 . S
H305 C311 0.930 . S
C306 H292 0.930 . S
C306 C304 1.395 . S
C306 C309 1.403 . S
C307 C304 1.403 . S
C307 C308 1.524 . S
C307 C311 1.400 . S
C308 H293 0.960 . S
C308 H294 0.960 . S
C308 H295 0.960 . S
C308 C307 1.524 . S
C309 C306 1.403 . S
C309 C310 1.392 . S
C309 C313 1.495 . S
C310 C309 1.392 . S
C310 C311 1.385 . S
C310 C312 1.478 . S
C311 H305 0.930 . S
C311 C307 1.400 . S
C311 C310 1.385 . S
C312 C310 1.478 . S
C312 C314 1.381 . S
C312 C318 1.383 . S
C313 C309 1.495 . S
C313 H319 0.959 . S
C313 H320 0.961 . S
C313 H321 0.960 . S
C314 C312 1.381 . S
C314 C315 1.394 . S
C314 H322 0.930 . S
C315 C314 1.394 . S
C315 C316 1.383 1_455 S
C315 H323 0.929 . S
C316 C315 1.383 1_655 S
C316 C317 1.377 1_655 S
C317 H301 0.930 1_455 S
C317 C316 1.377 1_455 S
C317 C318 1.379 . S
C318 H302 0.931 . S
C318 C312 1.383 . S
C318 C317 1.379 . S
H319 C313 0.959 . S
H320 C313 0.961 . S
H321 C313 0.960 . S
H322 C314 0.930 . S
H323 C315 0.929 . S
H324 C332 0.922 1_565 S
H325 C334 0.930 . S
H326 C336 0.930 . S
H327 C339 0.929 . S
H328 C342 0.930 . S
H329 C344 0.960 . S
H330 C344 0.960 . S
H331 C344 0.960 . S
C332 H324 0.922 1_545 S
C332 C333 1.377 1_545 S
C332 C334 1.393 . S
C333 C332 1.377 1_565 S
C333 C339 1.390 1_565 S
C334 H325 0.930 . S
C334 C332 1.393 . S
C334 C335 1.372 . S
C335 C334 1.372 . S
C335 C336 1.400 . S
C335 C340 1.490 . S
C336 H326 0.930 . S
C336 C335 1.400 . S
C336 C339 1.386 . S
H337 C353 0.930 . S
H338 C354 0.931 . S
C339 H327 0.929 . S
C339 C333 1.390 1_545 S
C339 C336 1.386 . S
C340 C335 1.490 . S
C340 C342 1.395 . S
C340 C343 1.403 . S
H341 C347 0.930 . S
C342 H328 0.930 . S
C342 C340 1.395 . S
C342 C345 1.403 . S
C343 C340 1.403 . S
C343 C344 1.524 . S
C343 C347 1.400 . S
C344 H329 0.960 . S
C344 H330 0.960 . S
C344 H331 0.960 . S
C344 C343 1.524 . S
C345 C342 1.403 . S
C345 C346 1.392 . S
C345 C349 1.495 . S
C346 C345 1.392 . S
C346 C347 1.385 . S
C346 C348 1.478 1_655 S
C347 H341 0.930 . S
C347 C343 1.400 . S
C347 C346 1.385 . S
C348 C346 1.478 1_455 S
C348 C350 1.381 . S
C348 C354 1.383 . S
C349 C345 1.495 . S
C349 H355 0.959 . S
C349 H356 0.961 1_655 S
C349 H357 0.960 1_655 S
C350 C348 1.381 . S
C350 C351 1.394 . S
C350 H358 0.930 . S
C351 C350 1.394 . S
C351 C352 1.383 . S
C351 H359 0.929 . S
C352 C351 1.383 . S
C352 C353 1.377 . S
C353 H337 0.930 . S
C353 C352 1.377 . S
C353 C354 1.379 . S
C354 H338 0.931 . S
C354 C348 1.383 . S
C354 C353 1.379 . S
H355 C349 0.959 . S
H356 C349 0.961 1_455 S
H357 C349 0.960 1_455 S
H358 C350 0.930 . S
H359 C351 0.929 . S
H360 C368 0.929 . S
H361 C370 0.930 . S
H362 C372 0.930 . S
H363 C375 0.929 . S
H364 C378 0.930 . S
H365 C380 0.960 . S
H366 C380 0.960 . S
H367 C380 0.960 . S
C368 H360 0.929 . S
C368 C369 1.377 . S
C368 C370 1.384 . S
C369 C368 1.377 . S
C369 C375 1.390 . S
C370 H361 0.930 . S
C370 C368 1.384 . S
C370 C371 1.372 . S
C371 C370 1.372 . S
C371 C372 1.400 . S
C371 C376 1.490 . S
C372 H362 0.930 . S
C372 C371 1.400 . S
C372 C375 1.386 . S
H373 C389 0.930 . S
H374 C390 0.931 . S
C375 H363 0.929 . S
C375 C369 1.390 . S
C375 C372 1.386 . S
C376 C371 1.490 . S
C376 C378 1.395 . S
C376 C379 1.403 . S
H377 C383 0.930 . S
C378 H364 0.930 . S
C378 C376 1.395 . S
C378 C381 1.403 . S
C379 C376 1.403 . S
C379 C380 1.524 . S
C379 C383 1.400 . S
C380 H365 0.960 . S
C380 H366 0.960 . S
C380 H367 0.960 . S
C380 C379 1.524 . S
C381 C378 1.403 . S
C381 C382 1.392 . S
C381 C385 1.495 . S
C382 C381 1.392 . S
C382 C383 1.385 . S
C382 C384 1.478 1_565 S
C383 H377 0.930 . S
C383 C379 1.400 . S
C383 C382 1.385 . S
C384 C382 1.478 1_545 S
C384 C386 1.381 . S
C384 C390 1.383 . S
C385 C381 1.495 . S
C385 H391 0.959 . S
C385 H392 0.961 . S
C385 H393 0.960 . S
C386 C384 1.381 . S
C386 C387 1.394 . S
C386 H394 0.931 . S
C387 C386 1.394 . S
C387 C388 1.383 . S
C387 H395 0.929 . S
C388 C387 1.383 . S
C388 C389 1.377 . S
C389 H373 0.930 . S
C389 C388 1.377 . S
C389 C390 1.379 . S
C390 H374 0.931 . S
C390 C384 1.383 . S
C390 C389 1.379 . S
H391 C385 0.959 . S
H392 C385 0.961 . S
H393 C385 0.960 . S
H394 C386 0.931 . S
H395 C387 0.929 . S
H396 C404 0.929 . S
H397 C406 0.930 . S
H398 C408 0.930 . S
H399 C411 0.929 . S
H400 C414 0.930 . S
H401 C416 0.960 . S
H402 C416 0.960 . S
H403 C416 0.960 . S
C404 H396 0.929 . S
C404 C405 1.377 . S
C404 C406 1.384 1_455 S
C405 C404 1.377 . S
C405 C411 1.390 1_455 S
C406 H397 0.930 . S
C406 C404 1.384 1_655 S
C406 C407 1.372 . S
C407 C406 1.372 . S
C407 C408 1.400 . S
C407 C412 1.490 . S
C408 H398 0.930 . S
C408 C407 1.400 . S
C408 C411 1.386 . S
H409 C425 0.930 . S
H410 C426 0.931 . S
C411 H399 0.929 . S
C411 C405 1.390 1_655 S
C411 C408 1.386 . S
C412 C407 1.490 . S
C412 C414 1.395 . S
C412 C415 1.403 . S
H413 C419 0.930 . S
C414 H400 0.930 . S
C414 C412 1.395 . S
C414 C417 1.403 . S
C415 C412 1.403 . S
C415 C416 1.524 . S
C415 C419 1.400 . S
C416 H401 0.960 . S
C416 H402 0.960 . S
C416 H403 0.960 . S
C416 C415 1.524 . S
C417 C414 1.403 . S
C417 C418 1.392 . S
C417 C421 1.495 . S
C418 C417 1.392 . S
C418 C419 1.385 . S
C418 C420 1.478 . S
C419 H413 0.930 . S
C419 C415 1.400 . S
C419 C418 1.385 . S
C420 C418 1.478 . S
C420 C422 1.381 . S
C420 C426 1.383 . S
C421 C417 1.495 . S
C421 H427 0.959 . S
C421 H428 0.961 . S
C421 H429 0.960 . S
C422 C420 1.381 . S
C422 C423 1.394 . S
C422 H430 0.930 . S
C423 C422 1.394 . S
C423 C424 1.383 . S
C423 H431 0.929 . S
C424 C423 1.383 . S
C424 C425 1.377 . S
C425 H409 0.930 . S
C425 C424 1.377 . S
C425 C426 1.379 . S
C426 H410 0.931 . S
C426 C420 1.383 . S
C426 C425 1.379 . S
H427 C421 0.959 . S
H428 C421 0.961 . S
H429 C421 0.960 . S
H430 C422 0.930 . S
H431 C423 0.929 . S
H432 C440 0.929 . S
H433 C442 0.930 . S
H434 C444 0.930 . S
H435 C447 0.929 . S
H436 C450 0.930 . S
H437 C452 0.960 . S
H438 C452 0.960 . S
H439 C452 0.960 . S
C440 H432 0.929 . S
C440 C441 1.377 . S
C440 C442 1.384 . S
C441 C440 1.377 . S
C441 C447 1.390 . S
C442 H433 0.930 . S
C442 C440 1.384 . S
C442 C443 1.372 . S
C443 C442 1.372 . S
C443 C444 1.400 . S
C443 C448 1.490 1_655 S
C444 H434 0.930 . S
C444 C443 1.400 . S
C444 C447 1.386 . S
H445 C461 0.930 . S
H446 C462 0.931 . S
C447 H435 0.929 . S
C447 C441 1.390 . S
C447 C444 1.386 . S
C448 C443 1.490 1_455 S
C448 C450 1.395 . S
C448 C451 1.403 . S
H449 C455 0.930 . S
C450 H436 0.930 . S
C450 C448 1.395 . S
C450 C453 1.403 . S
C451 C448 1.403 . S
C451 C452 1.524 . S
C451 C455 1.400 . S
C452 H437 0.960 . S
C452 H438 0.960 . S
C452 H439 0.960 . S
C452 C451 1.524 . S
C453 C450 1.403 . S
C453 C454 1.392 . S
C453 C457 1.495 . S
C454 C453 1.392 . S
C454 C455 1.385 . S
C454 C456 1.478 . S
C455 H449 0.930 . S
C455 C451 1.400 . S
C455 C454 1.385 . S
C456 C454 1.478 . S
C456 C458 1.381 . S
C456 C462 1.383 . S
C457 C453 1.495 . S
C457 H463 0.959 . S
C457 H464 0.961 . S
C457 H465 0.960 . S
C458 C456 1.381 . S
C458 C459 1.394 . S
C458 H466 0.930 . S
C459 C458 1.394 . S
C459 C460 1.383 1_565 S
C459 H467 0.929 . S
C460 C459 1.383 1_545 S
C460 C461 1.377 . S
C461 H445 0.930 . S
C461 C460 1.377 . S
C461 C462 1.379 1_545 S
C462 H446 0.931 . S
C462 C456 1.383 . S
C462 C461 1.379 1_565 S
H463 C457 0.959 . S
H464 C457 0.961 . S
H465 C457 0.960 . S
H466 C458 0.930 . S
H467 C459 0.929 . S
H468 C476 0.929 . S
H469 C478 0.930 . S
H470 C480 0.930 . S
H471 C483 0.929 . S
H472 C486 0.930 . S
H473 C488 0.960 . S
H474 C488 0.960 . S
H475 C488 0.960 . S
C476 H468 0.929 . S
C476 C477 1.377 . S
C476 C478 1.384 . S
C477 C476 1.377 . S
C477 C483 1.390 . S
C478 H469 0.930 . S
C478 C476 1.384 . S
C478 C479 1.372 . S
C479 C478 1.372 . S
C479 C480 1.400 . S
C479 C484 1.490 1_455 S
C480 H470 0.930 . S
C480 C479 1.400 . S
C480 C483 1.386 . S
H481 C497 0.930 . S
H482 C498 0.931 . S
C483 H471 0.929 . S
C483 C477 1.390 . S
C483 C480 1.386 . S
C484 C479 1.490 1_655 S
C484 C486 1.395 . S
C484 C487 1.403 . S
H485 C491 0.930 . S
C486 H472 0.930 . S
C486 C484 1.395 . S
C486 C489 1.403 . S
C487 C484 1.403 . S
C487 C488 1.524 . S
C487 C491 1.400 . S
C488 H473 0.960 . S
C488 H474 0.960 . S
C488 H475 0.960 . S
C488 C487 1.524 . S
C489 C486 1.403 . S
C489 C490 1.392 . S
C489 C493 1.495 . S
C490 C489 1.392 . S
C490 C491 1.385 . S
C490 C492 1.478 . S
C491 H485 0.930 . S
C491 C487 1.400 . S
C491 C490 1.385 . S
C492 C490 1.478 . S
C492 C494 1.381 . S
C492 C498 1.383 . S
C493 C489 1.495 . S
C493 H499 0.959 . S
C493 H500 0.961 . S
C493 H501 0.960 . S
C494 C492 1.381 . S
C494 C495 1.394 . S
C494 H502 0.930 . S
C495 C494 1.394 . S
C495 C496 1.383 . S
C495 H503 0.929 . S
C496 C495 1.383 . S
C496 C497 1.377 . S
C497 H481 0.930 . S
C497 C496 1.377 . S
C497 C498 1.379 . S
C498 H482 0.931 . S
C498 C492 1.383 . S
C498 C497 1.379 . S
H499 C493 0.959 . S
H500 C493 0.961 . S
H501 C493 0.960 . S
H502 C494 0.930 . S
H503 C495 0.929 . S
H504 C512 0.929 . S
H505 C514 0.930 . S
H506 C516 0.930 . S
H507 C519 0.929 . S
H508 C522 0.930 . S
H509 C524 0.960 . S
H510 C524 0.960 . S
H511 C524 0.960 . S
C512 H504 0.929 . S
C512 C513 1.377 . S
C512 C514 1.384 1_655 S
C513 C512 1.377 . S
C513 C519 1.390 1_655 S
C514 H505 0.930 . S
C514 C512 1.384 1_455 S
C514 C515 1.372 . S
C515 C514 1.372 . S
C515 C516 1.400 . S
C515 C520 1.490 . S
C516 H506 0.930 . S
C516 C515 1.400 . S
C516 C519 1.386 . S
H517 C533 0.930 . S
H518 C534 0.931 . S
C519 H507 0.929 . S
C519 C513 1.390 1_455 S
C519 C516 1.386 . S
C520 C515 1.490 . S
C520 C522 1.395 . S
C520 C523 1.403 . S
H521 C527 0.930 . S
C522 H508 0.930 . S
C522 C520 1.395 . S
C522 C525 1.403 . S
C523 C520 1.403 . S
C523 C524 1.524 . S
C523 C527 1.400 . S
C524 H509 0.960 . S
C524 H510 0.960 . S
C524 H511 0.960 . S
C524 C523 1.524 . S
C525 C522 1.403 . S
C525 C526 1.392 . S
C525 C529 1.495 . S
C526 C525 1.392 . S
C526 C527 1.385 . S
C526 C528 1.478 1_565 S
C527 H521 0.930 . S
C527 C523 1.400 . S
C527 C526 1.385 . S
C528 C526 1.478 1_545 S
C528 C530 1.381 . S
C528 C534 1.383 . S
C529 C525 1.495 . S
C529 H535 0.959 . S
C529 H536 0.961 1_565 S
C529 H537 0.960 1_565 S
C530 C528 1.381 . S
C530 C531 1.394 . S
C530 H538 0.930 . S
C531 C530 1.394 . S
C531 C532 1.383 . S
C531 H539 0.929 . S
C532 C531 1.383 . S
C532 C533 1.377 . S
C533 H517 0.930 . S
C533 C532 1.377 . S
C533 C534 1.379 . S
C534 H518 0.931 . S
C534 C528 1.383 . S
C534 C533 1.379 . S
H535 C529 0.959 . S
H536 C529 0.961 1_545 S
H537 C529 0.960 1_545 S
H538 C530 0.930 . S
H539 C531 0.929 . S
H540 C548 0.929 . S
H541 C550 0.930 . S
H542 C552 0.930 . S
H543 C555 0.929 . S
H544 C558 0.930 . S
H545 C560 0.960 . S
H546 C560 0.960 . S
H547 C560 0.960 . S
C548 H540 0.929 . S
C548 C549 1.377 . S
C548 C550 1.384 . S
C549 C548 1.377 . S
C549 C555 1.390 . S
C550 H541 0.930 . S
C550 C548 1.384 . S
C550 C551 1.372 . S
C551 C550 1.372 . S
C551 C552 1.400 . S
C551 C556 1.490 . S
C552 H542 0.930 . S
C552 C551 1.400 . S
C552 C555 1.386 . S
H553 C569 0.930 . S
H554 C570 0.931 . S
C555 H543 0.929 . S
C555 C549 1.390 . S
C555 C552 1.386 . S
C556 C551 1.490 . S
C556 C558 1.395 . S
C556 C559 1.403 . S
H557 C563 0.930 . S
C558 H544 0.930 . S
C558 C556 1.395 . S
C558 C561 1.403 . S
C559 C556 1.403 . S
C559 C560 1.524 . S
C559 C563 1.400 . S
C560 H545 0.960 . S
C560 H546 0.960 . S
C560 H547 0.960 . S
C560 C559 1.524 . S
C561 C558 1.403 . S
C561 C562 1.392 . S
C561 C565 1.495 . S
C562 C561 1.392 . S
C562 C563 1.385 . S
C562 C564 1.478 . S
C563 H557 0.930 . S
C563 C559 1.400 . S
C563 C562 1.385 . S
C564 C562 1.478 . S
C564 C566 1.381 . S
C564 C570 1.383 . S
C565 C561 1.495 . S
C565 H571 0.959 . S
C565 H572 0.961 . S
C565 H573 0.960 . S
C566 C564 1.381 . S
C566 C567 1.394 . S
C566 H574 0.930 . S
C567 C566 1.394 . S
C567 C568 1.383 1_545 S
C567 H575 0.929 . S
C568 C567 1.383 1_565 S
C568 C569 1.377 . S
C569 H553 0.930 . S
C569 C568 1.377 . S
C569 C570 1.379 1_565 S
C570 H554 0.931 . S
C570 C564 1.383 . S
C570 C569 1.379 1_545 S
H571 C565 0.959 . S
H572 C565 0.961 . S
H573 C565 0.960 . S
H574 C566 0.930 . S
H575 C567 0.929 . S
H576 C584 0.929 . S
H577 C586 0.930 . S
H578 C588 0.930 . S
H579 C591 0.929 . S
H580 C594 0.930 . S
H581 C596 0.960 . S
H582 C596 0.960 . S
H583 C596 0.960 . S
C584 H576 0.929 . S
C584 C585 1.377 . S
C584 C586 1.384 . S
C585 C584 1.377 . S
C585 C591 1.390 . S
C586 H577 0.930 . S
C586 C584 1.384 . S
C586 C587 1.372 . S
C587 C586 1.372 . S
C587 C588 1.400 . S
C587 C592 1.490 . S
C588 H578 0.930 . S
C588 C587 1.400 . S
C588 C591 1.386 . S
H589 C605 0.930 . S
H590 C606 0.931 . S
C591 H579 0.929 . S
C591 C585 1.390 . S
C591 C588 1.386 . S
C592 C587 1.490 . S
C592 C594 1.395 . S
C592 C595 1.403 . S
H593 C599 0.930 . S
C594 H580 0.930 . S
C594 C592 1.395 . S
C594 C597 1.403 . S
C595 C592 1.403 . S
C595 C596 1.524 . S
C595 C599 1.400 . S
C596 H581 0.960 . S
C596 H582 0.960 . S
C596 H583 0.960 . S
C596 C595 1.524 . S
C597 C594 1.403 . S
C597 C598 1.392 . S
C597 C601 1.495 . S
C598 C597 1.392 . S
C598 C599 1.385 . S
C598 C600 1.478 1_455 S
C599 H593 0.930 . S
C599 C595 1.400 . S
C599 C598 1.385 . S
C600 C598 1.478 1_655 S
C600 C602 1.381 . S
C600 C606 1.383 . S
C601 C597 1.495 . S
C601 H607 0.959 . S
C601 H608 0.961 1_455 S
C601 H609 0.960 1_455 S
C602 C600 1.381 . S
C602 C603 1.394 . S
C602 H610 0.930 . S
C603 C602 1.394 . S
C603 C604 1.383 . S
C603 H611 0.929 . S
C604 C603 1.383 . S
C604 C605 1.377 . S
C605 H589 0.930 . S
C605 C604 1.377 . S
C605 C606 1.379 . S
C606 H590 0.931 . S
C606 C600 1.383 . S
C606 C605 1.379 . S
H607 C601 0.959 . S
H608 C601 0.961 1_655 S
H609 C601 0.960 1_655 S
H610 C602 0.930 . S
H611 C603 0.929 . S
H612 C620 0.940 . S
H613 C622 0.930 . S
H614 C624 0.930 . S
H615 C627 0.929 . S
H616 C630 0.930 . S
H617 C632 0.960 . S
H618 C632 0.960 . S
H619 C632 0.960 . S
C620 H612 0.940 . S
C620 C621 1.377 . S
C620 C622 1.375 1_455 S
C621 C620 1.377 . S
C621 C627 1.390 1_455 S
C622 H613 0.930 . S
C622 C620 1.375 1_655 S
C622 C623 1.372 . S
C623 C622 1.372 . S
C623 C624 1.400 . S
C623 C628 1.490 . S
C624 H614 0.930 . S
C624 C623 1.400 . S
C624 C627 1.386 . S
H625 C641 0.930 . S
H626 C642 0.931 . S
C627 H615 0.929 . S
C627 C621 1.390 1_655 S
C627 C624 1.386 . S
C628 C623 1.490 . S
C628 C630 1.395 . S
C628 C631 1.403 . S
H629 C635 0.930 . S
C630 H616 0.930 . S
C630 C628 1.395 . S
C630 C633 1.403 . S
C631 C628 1.403 . S
C631 C632 1.524 . S
C631 C635 1.400 . S
C632 H617 0.960 . S
C632 H618 0.960 . S
C632 H619 0.960 . S
C632 C631 1.524 . S
C633 C630 1.403 . S
C633 C634 1.392 . S
C633 C637 1.495 . S
C634 C633 1.392 . S
C634 C635 1.385 . S
C634 C636 1.478 1_545 S
C635 H629 0.930 . S
C635 C631 1.400 . S
C635 C634 1.385 . S
C636 C634 1.478 1_565 S
C636 C638 1.381 . S
C636 C642 1.383 . S
C637 C633 1.495 . S
C637 H643 0.959 . S
C637 H644 0.961 . S
C637 H645 0.960 . S
C638 C636 1.381 . S
C638 C639 1.394 . S
C638 H646 0.930 . S
C639 C638 1.394 . S
C639 C640 1.383 . S
C639 H647 0.929 . S
C640 C639 1.383 . S
C640 C641 1.377 . S
C641 H625 0.930 . S
C641 C640 1.377 . S
C641 C642 1.379 . S
C642 H626 0.931 . S
C642 C636 1.383 . S
C642 C641 1.379 . S
H643 C637 0.959 . S
H644 C637 0.961 . S
H645 C637 0.960 . S
H646 C638 0.930 . S
H647 C639 0.929 . S
H648 C656 0.929 . S
H649 C658 0.930 . S
H650 C660 0.930 . S
H651 C663 0.929 . S
H652 C666 0.930 . S
H653 C668 0.960 . S
H654 C668 0.960 . S
H655 C668 0.960 . S
C656 H648 0.929 . S
C656 C657 1.377 . S
C656 C658 1.384 . S
C657 C656 1.377 . S
C657 C663 1.390 . S
C658 H649 0.930 . S
C658 C656 1.384 . S
C658 C659 1.372 . S
C659 C658 1.372 . S
C659 C660 1.400 . S
C659 C664 1.490 . S
C660 H650 0.930 . S
C660 C659 1.400 . S
C660 C663 1.386 . S
H661 C677 0.930 1_545 S
H662 C678 0.931 . S
C663 H651 0.929 . S
C663 C657 1.390 . S
C663 C660 1.386 . S
C664 C659 1.490 . S
C664 C666 1.395 . S
C664 C667 1.403 . S
H665 C671 0.930 . S
C666 H652 0.930 . S
C666 C664 1.395 . S
C666 C669 1.403 . S
C667 C664 1.403 . S
C667 C668 1.524 . S
C667 C671 1.400 . S
C668 H653 0.960 . S
C668 H654 0.960 . S
C668 H655 0.960 . S
C668 C667 1.524 . S
C669 C666 1.403 . S
C669 C670 1.392 . S
C669 C673 1.495 . S
C670 C669 1.392 . S
C670 C671 1.385 . S
C670 C672 1.478 . S
C671 H665 0.930 . S
C671 C667 1.400 . S
C671 C670 1.385 . S
C672 C670 1.478 . S
C672 C674 1.381 . S
C672 C678 1.383 . S
C673 C669 1.495 . S
C673 H679 0.959 . S
C673 H680 0.961 . S
C673 H681 0.960 . S
C674 C672 1.381 . S
C674 C675 1.394 . S
C674 H682 0.930 . S
C675 C674 1.394 . S
C675 C676 1.383 1_565 S
C675 H683 0.929 . S
C676 C675 1.383 1_545 S
C676 C677 1.377 1_545 S
C677 H661 0.930 1_565 S
C677 C676 1.377 1_565 S
C677 C678 1.379 . S
C678 H662 0.931 . S
C678 C672 1.383 . S
C678 C677 1.379 . S
H679 C673 0.959 . S
H680 C673 0.961 . S
H681 C673 0.960 . S
H682 C674 0.930 . S
H683 C675 0.929 . S
H684 C692 0.929 . S
H685 C694 0.930 . S
H686 C696 0.930 . S
H687 C699 0.929 . S
H688 C702 0.930 . S
H689 C704 0.960 . S
H690 C704 0.960 . S
H691 C704 0.960 . S
C692 H684 0.929 . S
C692 C693 1.377 . S
C692 C694 1.384 . S
C693 C692 1.377 . S
C693 C699 1.390 . S
C694 H685 0.930 . S
C694 C692 1.384 . S
C694 C695 1.372 . S
C695 C694 1.372 . S
C695 C696 1.400 . S
C695 C700 1.490 . S
C696 H686 0.930 . S
C696 C695 1.400 . S
C696 C699 1.386 . S
H697 C713 0.930 . S
H698 C714 0.931 . S
C699 H687 0.929 . S
C699 C693 1.390 . S
C699 C696 1.386 . S
C700 C695 1.490 . S
C700 C702 1.395 . S
C700 C703 1.403 . S
H701 C707 0.930 . S
C702 H688 0.930 . S
C702 C700 1.395 . S
C702 C705 1.403 . S
C703 C700 1.403 . S
C703 C704 1.524 . S
C703 C707 1.400 . S
C704 H689 0.960 . S
C704 H690 0.960 . S
C704 H691 0.960 . S
C704 C703 1.524 . S
C705 C702 1.403 . S
C705 C706 1.392 . S
C705 C709 1.495 . S
C706 C705 1.392 . S
C706 C707 1.385 . S
C706 C708 1.478 . S
C707 H701 0.930 . S
C707 C703 1.400 . S
C707 C706 1.385 . S
C708 C706 1.478 . S
C708 C710 1.381 . S
C708 C714 1.383 . S
C709 C705 1.495 . S
C709 H715 0.959 . S
C709 H716 0.961 . S
C709 H717 0.960 . S
C710 C708 1.381 . S
C710 C711 1.394 . S
C710 H718 0.930 . S
C711 C710 1.394 . S
C711 C712 1.383 . S
C711 H719 0.929 . S
C712 C711 1.383 . S
C712 C713 1.377 . S
C713 H697 0.930 . S
C713 C712 1.377 . S
C713 C714 1.379 . S
C714 H698 0.931 . S
C714 C708 1.383 . S
C714 C713 1.379 . S
H715 C709 0.959 . S
H716 C709 0.961 . S
H717 C709 0.960 . S
H718 C710 0.930 . S
H719 C711 0.929 . S
H720 C728 0.929 . S
H721 C730 0.930 . S
H722 C732 0.930 . S
H723 C735 0.929 . S
H724 C738 0.930 . S
H725 C740 0.960 . S
H726 C740 0.960 . S
H727 C740 0.960 . S
C728 H720 0.929 . S
C728 C729 1.377 . S
C728 C730 1.384 . S
C729 C728 1.377 . S
C729 C735 1.390 . S
C730 H721 0.930 . S
C730 C728 1.384 . S
C730 C731 1.372 . S
C731 C730 1.372 . S
C731 C732 1.400 . S
C731 C736 1.490 . S
C732 H722 0.930 . S
C732 C731 1.400 . S
C732 C735 1.386 . S
H733 C749 0.930 . S
H734 C750 0.931 . S
C735 H723 0.929 . S
C735 C729 1.390 . S
C735 C732 1.386 . S
C736 C731 1.490 . S
C736 C738 1.395 . S
C736 C739 1.403 . S
H737 C743 0.930 . S
C738 H724 0.930 . S
C738 C736 1.395 . S
C738 C741 1.403 . S
C739 C736 1.403 . S
C739 C740 1.524 . S
C739 C743 1.400 . S
C740 H725 0.960 . S
C740 H726 0.960 . S
C740 H727 0.960 . S
C740 C739 1.524 . S
C741 C738 1.403 . S
C741 C742 1.392 . S
C741 C745 1.495 . S
C742 C741 1.392 . S
C742 C743 1.385 . S
C742 C744 1.478 . S
C743 H737 0.930 . S
C743 C739 1.400 . S
C743 C742 1.385 . S
C744 C742 1.478 . S
C744 C746 1.381 . S
C744 C750 1.383 . S
C745 C741 1.495 . S
C745 H751 0.959 . S
C745 H752 0.961 . S
C745 H753 0.960 . S
C746 C744 1.381 . S
C746 C747 1.394 . S
C746 H754 0.930 . S
C747 C746 1.394 . S
C747 C748 1.383 . S
C747 H755 0.929 . S
C748 C747 1.383 . S
C748 C749 1.377 . S
C749 H733 0.930 . S
C749 C748 1.377 . S
C749 C750 1.379 . S
C750 H734 0.931 . S
C750 C744 1.383 . S
C750 C749 1.379 . S
H751 C745 0.959 . S
H752 C745 0.961 . S
H753 C745 0.960 . S
H754 C746 0.930 . S
H755 C747 0.929 . S
H756 C764 0.929 . S
H757 C766 0.930 . S
H758 C768 0.930 . S
H759 C771 0.929 . S
H760 C774 0.930 . S
H761 C776 0.960 . S
H762 C776 0.960 . S
H763 C776 0.960 . S
C764 H756 0.929 . S
C764 C765 1.377 . S
C764 C766 1.384 . S
C765 C764 1.377 . S
C765 C771 1.390 . S
C766 H757 0.930 . S
C766 C764 1.384 . S
C766 C767 1.372 . S
C767 C766 1.372 . S
C767 C768 1.400 . S
C767 C772 1.490 . S
C768 H758 0.930 . S
C768 C767 1.400 . S
C768 C771 1.386 . S
H769 C785 0.930 . S
H770 C786 0.931 . S
C771 H759 0.929 . S
C771 C765 1.390 . S
C771 C768 1.386 . S
C772 C767 1.490 . S
C772 C774 1.395 . S
C772 C775 1.403 . S
H773 C779 0.930 . S
C774 H760 0.930 . S
C774 C772 1.395 . S
C774 C777 1.403 . S
C775 C772 1.403 . S
C775 C776 1.524 . S
C775 C779 1.400 . S
C776 H761 0.960 . S
C776 H762 0.960 . S
C776 H763 0.960 . S
C776 C775 1.524 . S
C777 C774 1.403 . S
C777 C778 1.392 . S
C777 C781 1.495 . S
C778 C777 1.392 . S
C778 C779 1.385 . S
C778 C780 1.478 . S
C779 H773 0.930 . S
C779 C775 1.400 . S
C779 C778 1.385 . S
C780 C778 1.478 . S
C780 C782 1.381 . S
C780 C786 1.383 . S
C781 C777 1.495 . S
C781 H787 0.959 . S
C781 H788 0.961 . S
C781 H789 0.960 . S
C782 C780 1.381 . S
C782 C783 1.394 . S
C782 H790 0.930 . S
C783 C782 1.394 . S
C783 C784 1.383 . S
C783 H791 0.929 . S
C784 C783 1.383 . S
C784 C785 1.377 . S
C785 H769 0.930 . S
C785 C784 1.377 . S
C785 C786 1.379 . S
C786 H770 0.931 . S
C786 C780 1.383 . S
C786 C785 1.379 . S
H787 C781 0.959 . S
H788 C781 0.961 . S
H789 C781 0.960 . S
H790 C782 0.930 . S
H791 C783 0.929 . S
H792 C800 0.929 . S
H793 C802 0.930 . S
H794 C804 0.930 . S
H795 C807 0.929 . S
H796 C810 0.930 . S
H797 C812 0.960 . S
H798 C812 0.960 . S
H799 C812 0.960 . S
C800 H792 0.929 . S
C800 C801 1.377 . S
C800 C802 1.384 . S
C801 C800 1.377 . S
C801 C807 1.390 . S
C802 H793 0.930 . S
C802 C800 1.384 . S
C802 C803 1.372 . S
C803 C802 1.372 . S
C803 C804 1.400 . S
C803 C808 1.490 . S
C804 H794 0.930 . S
C804 C803 1.400 . S
C804 C807 1.386 . S
H805 C821 0.930 . S
H806 C822 0.931 . S
C807 H795 0.929 . S
C807 C801 1.390 . S
C807 C804 1.386 . S
C808 C803 1.490 . S
C808 C810 1.395 . S
C808 C811 1.403 . S
H809 C815 0.930 . S
C810 H796 0.930 . S
C810 C808 1.395 . S
C810 C813 1.403 . S
C811 C808 1.403 . S
C811 C812 1.524 . S
C811 C815 1.400 . S
C812 H797 0.960 . S
C812 H798 0.960 . S
C812 H799 0.960 . S
C812 C811 1.524 . S
C813 C810 1.403 . S
C813 C814 1.392 . S
C813 C817 1.495 . S
C814 C813 1.392 . S
C814 C815 1.385 . S
C814 C816 1.478 . S
C815 H809 0.930 . S
C815 C811 1.400 . S
C815 C814 1.385 . S
C816 C814 1.478 . S
C816 C818 1.381 . S
C816 C822 1.383 . S
C817 C813 1.495 . S
C817 H823 0.959 . S
C817 H824 0.961 . S
C817 H825 0.960 . S
C818 C816 1.381 . S
C818 C819 1.394 . S
C818 H826 0.930 . S
C819 C818 1.394 . S
C819 C820 1.383 . S
C819 H827 0.929 . S
C820 C819 1.383 . S
C820 C821 1.377 . S
C821 H805 0.930 . S
C821 C820 1.377 . S
C821 C822 1.379 . S
C822 H806 0.931 . S
C822 C816 1.383 . S
C822 C821 1.379 . S
H823 C817 0.959 . S
H824 C817 0.961 . S
H825 C817 0.960 . S
H826 C818 0.930 . S
H827 C819 0.929 . S
H828 C836 0.929 . S
H829 C838 0.930 . S
H830 C840 0.930 . S
H831 C843 0.929 . S
H832 C846 0.930 . S
H833 C848 0.960 . S
H834 C848 0.960 . S
H835 C848 0.960 . S
C836 H828 0.929 . S
C836 C837 1.377 . S
C836 C838 1.384 . S
C837 C836 1.377 . S
C837 C843 1.390 . S
C838 H829 0.930 . S
C838 C836 1.384 . S
C838 C839 1.372 . S
C839 C838 1.372 . S
C839 C840 1.400 . S
C839 C844 1.490 . S
C840 H830 0.930 . S
C840 C839 1.400 . S
C840 C843 1.386 . S
H841 C857 0.930 . S
H842 C858 0.931 . S
C843 H831 0.929 . S
C843 C837 1.390 . S
C843 C840 1.386 . S
C844 C839 1.490 . S
C844 C846 1.395 . S
C844 C847 1.403 . S
H845 C851 0.930 . S
C846 H832 0.930 . S
C846 C844 1.395 . S
C846 C849 1.403 . S
C847 C844 1.403 . S
C847 C848 1.524 . S
C847 C851 1.400 . S
C848 H833 0.960 . S
C848 H834 0.960 . S
C848 H835 0.960 . S
C848 C847 1.524 . S
C849 C846 1.403 . S
C849 C850 1.392 . S
C849 C853 1.495 . S
C850 C849 1.392 . S
C850 C851 1.385 . S
C850 C852 1.478 . S
C851 H845 0.930 . S
C851 C847 1.400 . S
C851 C850 1.385 . S
C852 C850 1.478 . S
C852 C854 1.381 . S
C852 C858 1.383 . S
C853 C849 1.495 . S
C853 H859 0.959 . S
C853 H860 0.961 . S
C853 H861 0.960 . S
C854 C852 1.381 . S
C854 C855 1.394 . S
C854 H862 0.930 . S
C855 C854 1.394 . S
C855 C856 1.383 . S
C855 H863 0.929 . S
C856 C855 1.383 . S
C856 C857 1.377 . S
C857 H841 0.930 . S
C857 C856 1.377 . S
C857 C858 1.379 . S
C858 H842 0.931 . S
C858 C852 1.383 . S
C858 C857 1.379 . S
H859 C853 0.959 . S
H860 C853 0.961 . S
H861 C853 0.960 . S
H862 C854 0.930 . S
H863 C855 0.929 . S
H864 C872 0.929 . S
H865 C874 0.930 . S
H866 C876 0.930 . S
H867 C879 0.929 . S
H868 C882 0.930 . S
H869 C884 0.960 . S
H870 C884 0.960 . S
H871 C884 0.960 . S
C872 H864 0.929 . S
C872 C873 1.377 . S
C872 C874 1.384 . S
C873 C872 1.377 . S
C873 C879 1.390 . S
C874 H865 0.930 . S
C874 C872 1.384 . S
C874 C875 1.372 . S
C875 C874 1.372 . S
C875 C876 1.400 . S
C875 C880 1.490 . S
C876 H866 0.930 . S
C876 C875 1.400 . S
C876 C879 1.386 . S
H877 C893 0.930 . S
H878 C894 0.931 . S
C879 H867 0.929 . S
C879 C873 1.390 . S
C879 C876 1.386 . S
C880 C875 1.490 . S
C880 C882 1.395 . S
C880 C883 1.403 . S
H881 C887 0.930 . S
C882 H868 0.930 . S
C882 C880 1.395 . S
C882 C885 1.403 . S
C883 C880 1.403 . S
C883 C884 1.524 . S
C883 C887 1.400 . S
C884 H869 0.960 . S
C884 H870 0.960 . S
C884 H871 0.960 . S
C884 C883 1.524 . S
C885 C882 1.403 . S
C885 C886 1.392 . S
C885 C889 1.495 . S
C886 C885 1.392 . S
C886 C887 1.385 . S
C886 C888 1.478 . S
C887 H881 0.930 . S
C887 C883 1.400 . S
C887 C886 1.385 . S
C888 C886 1.478 . S
C888 C890 1.381 . S
C888 C894 1.383 . S
C889 C885 1.495 . S
C889 H895 0.959 . S
C889 H896 0.961 . S
C889 H897 0.960 . S
C890 C888 1.381 . S
C890 C891 1.394 . S
C890 H898 0.930 . S
C891 C890 1.394 . S
C891 C892 1.383 . S
C891 H899 0.929 . S
C892 C891 1.383 . S
C892 C893 1.377 . S
C893 H877 0.930 . S
C893 C892 1.377 . S
C893 C894 1.379 . S
C894 H878 0.931 . S
C894 C888 1.383 . S
C894 C893 1.379 . S
H895 C889 0.959 . S
H896 C889 0.961 . S
H897 C889 0.960 . S
H898 C890 0.930 . S
H899 C891 0.929 . S
H900 C908 0.929 . S
H901 C910 0.930 . S
H902 C912 0.930 . S
H903 C915 0.929 . S
H904 C918 0.930 . S
H905 C920 0.960 . S
H906 C920 0.960 . S
H907 C920 0.960 . S
C908 H900 0.929 . S
C908 C909 1.377 . S
C908 C910 1.384 . S
C909 C908 1.377 . S
C909 C915 1.390 . S
C910 H901 0.930 . S
C910 C908 1.384 . S
C910 C911 1.372 . S
C911 C910 1.372 . S
C911 C912 1.400 . S
C911 C916 1.490 . S
C912 H902 0.930 . S
C912 C911 1.400 . S
C912 C915 1.386 . S
H913 C929 0.930 . S
H914 C930 0.931 . S
C915 H903 0.929 . S
C915 C909 1.390 . S
C915 C912 1.386 . S
C916 C911 1.490 . S
C916 C918 1.395 . S
C916 C919 1.403 . S
H917 C923 0.930 . S
C918 H904 0.930 . S
C918 C916 1.395 . S
C918 C921 1.403 . S
C919 C916 1.403 . S
C919 C920 1.524 . S
C919 C923 1.400 . S
C920 H905 0.960 . S
C920 H906 0.960 . S
C920 H907 0.960 . S
C920 C919 1.524 . S
C921 C918 1.403 . S
C921 C922 1.392 . S
C921 C925 1.495 . S
C922 C921 1.392 . S
C922 C923 1.385 . S
C922 C924 1.478 . S
C923 H917 0.930 . S
C923 C919 1.400 . S
C923 C922 1.385 . S
C924 C922 1.478 . S
C924 C926 1.381 . S
C924 C930 1.383 . S
C925 C921 1.495 . S
C925 H931 0.959 . S
C925 H932 0.961 . S
C925 H933 0.960 . S
C926 C924 1.381 . S
C926 C927 1.394 . S
C926 H934 0.930 . S
C927 C926 1.394 . S
C927 C928 1.383 . S
C927 H935 0.929 . S
C928 C927 1.383 . S
C928 C929 1.377 . S
C929 H913 0.930 . S
C929 C928 1.377 . S
C929 C930 1.379 . S
C930 H914 0.931 . S
C930 C924 1.383 . S
C930 C929 1.379 . S
H931 C925 0.959 . S
H932 C925 0.961 . S
H933 C925 0.960 . S
H934 C926 0.930 . S
H935 C927 0.929 . S
H936 C944 0.929 . S
H937 C946 0.930 . S
H938 C948 0.930 . S
H939 C951 0.929 . S
H940 C954 0.930 . S
H941 C956 0.960 . S
H942 C956 0.960 . S
H943 C956 0.960 . S
C944 H936 0.929 . S
C944 C945 1.377 . S
C944 C946 1.384 . S
C945 C944 1.377 . S
C945 C951 1.390 . S
C946 H937 0.930 . S
C946 C944 1.384 . S
C946 C947 1.372 . S
C947 C946 1.372 . S
C947 C948 1.400 . S
C947 C952 1.490 . S
C948 H938 0.930 . S
C948 C947 1.400 . S
C948 C951 1.386 . S
H949 C965 0.930 . S
H950 C966 0.931 . S
C951 H939 0.929 . S
C951 C945 1.390 . S
C951 C948 1.386 . S
C952 C947 1.490 . S
C952 C954 1.395 . S
C952 C955 1.403 . S
H953 C959 0.930 . S
C954 H940 0.930 . S
C954 C952 1.395 . S
C954 C957 1.403 . S
C955 C952 1.403 . S
C955 C956 1.524 . S
C955 C959 1.400 . S
C956 H941 0.960 . S
C956 H942 0.960 . S
C956 H943 0.960 . S
C956 C955 1.524 . S
C957 C954 1.403 . S
C957 C958 1.392 . S
C957 C961 1.495 . S
C958 C957 1.392 . S
C958 C959 1.385 . S
C958 C960 1.478 . S
C959 H953 0.930 . S
C959 C955 1.400 . S
C959 C958 1.385 . S
C960 C958 1.478 . S
C960 C962 1.381 . S
C960 C966 1.383 . S
C961 C957 1.495 . S
C961 H967 0.959 . S
C961 H968 0.961 . S
C961 H969 0.960 . S
C962 C960 1.381 . S
C962 C963 1.394 . S
C962 H970 0.930 . S
C963 C962 1.394 . S
C963 C964 1.383 . S
C963 H971 0.929 . S
C964 C963 1.383 . S
C964 C965 1.377 . S
C965 H949 0.930 . S
C965 C964 1.377 . S
C965 C966 1.379 . S
C966 H950 0.931 . S
C966 C960 1.383 . S
C966 C965 1.379 . S
H967 C961 0.959 . S
H968 C961 0.961 . S
H969 C961 0.960 . S
H970 C962 0.930 . S
H971 C963 0.929 . S
H972 C980 0.929 . S
H973 C982 0.930 . S
H974 C984 0.930 . S
H975 C987 0.929 . S
H976 C990 0.930 . S
H977 C992 0.960 . S
H978 C992 0.960 . S
H979 C992 0.960 . S
C980 H972 0.929 . S
C980 C981 1.377 . S
C980 C982 1.384 . S
C981 C980 1.377 . S
C981 C987 1.390 . S
C982 H973 0.930 . S
C982 C980 1.384 . S
C982 C983 1.372 . S
C983 C982 1.372 . S
C983 C984 1.400 . S
C983 C988 1.490 . S
C984 H974 0.930 . S
C984 C983 1.400 . S
C984 C987 1.386 . S
H985 C1001 0.930 . S
H986 C1002 0.931 . S
C987 H975 0.929 . S
C987 C981 1.390 . S
C987 C984 1.386 . S
C988 C983 1.490 . S
C988 C990 1.395 . S
C988 C991 1.403 . S
H989 C995 0.930 . S
C990 H976 0.930 . S
C990 C988 1.395 . S
C990 C993 1.403 . S
C991 C988 1.403 . S
C991 C992 1.524 . S
C991 C995 1.400 . S
C992 H977 0.960 . S
C992 H978 0.960 . S
C992 H979 0.960 . S
C992 C991 1.524 . S
C993 C990 1.403 . S
C993 C994 1.392 . S
C993 C997 1.495 . S
C994 C993 1.392 . S
C994 C995 1.385 . S
C994 C996 1.478 . S
C995 H989 0.930 . S
C995 C991 1.400 . S
C995 C994 1.385 . S
C996 C994 1.478 . S
C996 C998 1.381 . S
C996 C1002 1.383 . S
C997 C993 1.495 . S
C997 H1003 0.959 . S
C997 H1004 0.961 . S
C997 H1005 0.960 . S
C998 C996 1.381 . S
C998 C999 1.394 . S
C998 H1006 0.930 . S
C999 C998 1.394 . S
C999 C1000 1.383 . S
C999 H1007 0.929 . S
C1000 C999 1.383 . S
C1000 C1001 1.377 . S
C1001 H985 0.930 . S
C1001 C1000 1.377 . S
C1001 C1002 1.379 . S
C1002 H986 0.931 . S
C1002 C996 1.383 . S
C1002 C1001 1.379 . S
H1003 C997 0.959 . S
H1004 C997 0.961 . S
H1005 C997 0.960 . S
H1006 C998 0.930 . S
H1007 C999 0.929 . S
H1008 C1016 0.929 . S
H1009 C1018 0.930 . S
H1010 C1020 0.930 . S
H1011 C1023 0.929 . S
H1012 C1026 0.930 . S
H1013 C1028 0.960 . S
H1014 C1028 0.960 . S
H1015 C1028 0.960 . S
C1016 H1008 0.929 . S
C1016 C1017 1.377 . S
C1016 C1018 1.384 . S
C1017 C1016 1.377 . S
C1017 C1023 1.390 . S
C1018 H1009 0.930 . S
C1018 C1016 1.384 . S
C1018 C1019 1.372 . S
C1019 C1018 1.372 . S
C1019 C1020 1.400 . S
C1019 C1024 1.490 . S
C1020 H1010 0.930 . S
C1020 C1019 1.400 . S
C1020 C1023 1.386 . S
H1021 C1037 0.930 . S
H1022 C1038 0.931 . S
C1023 H1011 0.929 . S
C1023 C1017 1.390 . S
C1023 C1020 1.386 . S
C1024 C1019 1.490 . S
C1024 C1026 1.395 . S
C1024 C1027 1.403 . S
H1025 C1031 0.930 . S
C1026 H1012 0.930 . S
C1026 C1024 1.395 . S
C1026 C1029 1.403 . S
C1027 C1024 1.403 . S
C1027 C1028 1.524 . S
C1027 C1031 1.400 . S
C1028 H1013 0.960 . S
C1028 H1014 0.960 . S
C1028 H1015 0.960 . S
C1028 C1027 1.524 . S
C1029 C1026 1.403 . S
C1029 C1030 1.392 . S
C1029 C1033 1.495 . S
C1030 C1029 1.392 . S
C1030 C1031 1.385 . S
C1030 C1032 1.478 . S
C1031 H1025 0.930 . S
C1031 C1027 1.400 . S
C1031 C1030 1.385 . S
C1032 C1030 1.478 . S
C1032 C1034 1.381 . S
C1032 C1038 1.383 . S
C1033 C1029 1.495 . S
C1033 H1039 0.959 . S
C1033 H1040 0.961 . S
C1033 H1041 0.960 . S
C1034 C1032 1.381 . S
C1034 C1035 1.394 . S
C1034 H1042 0.930 . S
C1035 C1034 1.394 . S
C1035 C1036 1.383 . S
C1035 H1043 0.929 . S
C1036 C1035 1.383 . S
C1036 C1037 1.377 . S
C1037 H1021 0.930 . S
C1037 C1036 1.377 . S
C1037 C1038 1.379 . S
C1038 H1022 0.931 . S
C1038 C1032 1.383 . S
C1038 C1037 1.379 . S
H1039 C1033 0.959 . S
H1040 C1033 0.961 . S
H1041 C1033 0.960 . S
H1042 C1034 0.930 . S
H1043 C1035 0.929 . S
H1044 C1052 0.929 . S
H1045 C1054 0.930 . S
H1046 C1056 0.930 . S
H1047 C1059 0.929 . S
H1048 C1062 0.930 . S
H1049 C1064 0.960 . S
H1050 C1064 0.960 . S
H1051 C1064 0.960 . S
C1052 H1044 0.929 . S
C1052 C1053 1.377 . S
C1052 C1054 1.384 . S
C1053 C1052 1.377 . S
C1053 C1059 1.390 . S
C1054 H1045 0.930 . S
C1054 C1052 1.384 . S
C1054 C1055 1.372 . S
C1055 C1054 1.372 . S
C1055 C1056 1.400 . S
C1055 C1060 1.490 . S
C1056 H1046 0.930 . S
C1056 C1055 1.400 . S
C1056 C1059 1.386 . S
H1057 C1073 0.930 . S
H1058 C1074 0.931 . S
C1059 H1047 0.929 . S
C1059 C1053 1.390 . S
C1059 C1056 1.386 . S
C1060 C1055 1.490 . S
C1060 C1062 1.395 . S
C1060 C1063 1.403 . S
H1061 C1067 0.930 . S
C1062 H1048 0.930 . S
C1062 C1060 1.395 . S
C1062 C1065 1.403 . S
C1063 C1060 1.403 . S
C1063 C1064 1.524 . S
C1063 C1067 1.400 . S
C1064 H1049 0.960 . S
C1064 H1050 0.960 . S
C1064 H1051 0.960 . S
C1064 C1063 1.524 . S
C1065 C1062 1.403 . S
C1065 C1066 1.392 . S
C1065 C1069 1.495 . S
C1066 C1065 1.392 . S
C1066 C1067 1.385 . S
C1066 C1068 1.478 . S
C1067 H1061 0.930 . S
C1067 C1063 1.400 . S
C1067 C1066 1.385 . S
C1068 C1066 1.478 . S
C1068 C1070 1.381 . S
C1068 C1074 1.383 . S
C1069 C1065 1.495 . S
C1069 H1075 0.959 . S
C1069 H1076 0.961 . S
C1069 H1077 0.960 . S
C1070 C1068 1.381 . S
C1070 C1071 1.394 . S
C1070 H1078 0.930 . S
C1071 C1070 1.394 . S
C1071 C1072 1.383 . S
C1071 H1079 0.929 . S
C1072 C1071 1.383 . S
C1072 C1073 1.377 . S
C1073 H1057 0.930 . S
C1073 C1072 1.377 . S
C1073 C1074 1.379 . S
C1074 H1058 0.931 . S
C1074 C1068 1.383 . S
C1074 C1073 1.379 . S
H1075 C1069 0.959 . S
H1076 C1069 0.961 . S
H1077 C1069 0.960 . S
H1078 C1070 0.930 . S
H1079 C1071 0.929 . S
H1080 C1088 0.929 . S
H1081 C1090 0.930 . S
H1082 C1092 0.930 . S
H1083 C1095 0.929 . S
H1084 C1098 0.930 . S
H1085 C1100 0.960 . S
H1086 C1100 0.960 . S
H1087 C1100 0.960 . S
C1088 H1080 0.929 . S
C1088 C1089 1.377 . S
C1088 C1090 1.384 . S
C1089 C1088 1.377 . S
C1089 C1095 1.390 . S
C1090 H1081 0.930 . S
C1090 C1088 1.384 . S
C1090 C1091 1.372 . S
C1091 C1090 1.372 . S
C1091 C1092 1.400 . S
C1091 C1096 1.490 . S
C1092 H1082 0.930 . S
C1092 C1091 1.400 . S
C1092 C1095 1.386 . S
H1093 C1109 0.930 . S
H1094 C1110 0.931 . S
C1095 H1083 0.929 . S
C1095 C1089 1.390 . S
C1095 C1092 1.386 . S
C1096 C1091 1.490 . S
C1096 C1098 1.395 . S
C1096 C1099 1.403 . S
H1097 C1103 0.930 . S
C1098 H1084 0.930 . S
C1098 C1096 1.395 . S
C1098 C1101 1.403 . S
C1099 C1096 1.403 . S
C1099 C1100 1.524 . S
C1099 C1103 1.400 . S
C1100 H1085 0.960 . S
C1100 H1086 0.960 . S
C1100 H1087 0.960 . S
C1100 C1099 1.524 . S
C1101 C1098 1.403 . S
C1101 C1102 1.392 . S
C1101 C1105 1.495 . S
C1102 C1101 1.392 . S
C1102 C1103 1.385 . S
C1102 C1104 1.478 . S
C1103 H1097 0.930 . S
C1103 C1099 1.400 . S
C1103 C1102 1.385 . S
C1104 C1102 1.478 . S
C1104 C1106 1.381 . S
C1104 C1110 1.383 . S
C1105 C1101 1.495 . S
C1105 H1111 0.959 . S
C1105 H1112 0.961 . S
C1105 H1113 0.960 . S
C1106 C1104 1.381 . S
C1106 C1107 1.394 . S
C1106 H1114 0.930 . S
C1107 C1106 1.394 . S
C1107 C1108 1.383 . S
C1107 H1115 0.929 . S
C1108 C1107 1.383 . S
C1108 C1109 1.377 . S
C1109 H1093 0.930 . S
C1109 C1108 1.377 . S
C1109 C1110 1.379 . S
C1110 H1094 0.931 . S
C1110 C1104 1.383 . S
C1110 C1109 1.379 . S
H1111 C1105 0.959 . S
H1112 C1105 0.961 . S
H1113 C1105 0.960 . S
H1114 C1106 0.930 . S
H1115 C1107 0.929 . S
H1116 C1124 0.929 . S
H1117 C1126 0.930 . S
H1118 C1128 0.930 . S
H1119 C1131 0.929 . S
H1120 C1134 0.930 . S
H1121 C1136 0.960 . S
H1122 C1136 0.960 . S
H1123 C1136 0.960 . S
C1124 H1116 0.929 . S
C1124 C1125 1.377 . S
C1124 C1126 1.384 . S
C1125 C1124 1.377 . S
C1125 C1131 1.390 . S
C1126 H1117 0.930 . S
C1126 C1124 1.384 . S
C1126 C1127 1.372 . S
C1127 C1126 1.372 . S
C1127 C1128 1.400 . S
C1127 C1132 1.490 . S
C1128 H1118 0.930 . S
C1128 C1127 1.400 . S
C1128 C1131 1.386 . S
H1129 C1145 0.930 . S
H1130 C1146 0.931 . S
C1131 H1119 0.929 . S
C1131 C1125 1.390 . S
C1131 C1128 1.386 . S
C1132 C1127 1.490 . S
C1132 C1134 1.395 . S
C1132 C1135 1.403 . S
H1133 C1139 0.930 . S
C1134 H1120 0.930 . S
C1134 C1132 1.395 . S
C1134 C1137 1.403 . S
C1135 C1132 1.403 . S
C1135 C1136 1.524 . S
C1135 C1139 1.400 . S
C1136 H1121 0.960 . S
C1136 H1122 0.960 . S
C1136 H1123 0.960 . S
C1136 C1135 1.524 . S
C1137 C1134 1.403 . S
C1137 C1138 1.392 . S
C1137 C1141 1.495 . S
C1138 C1137 1.392 . S
C1138 C1139 1.385 . S
C1138 C1140 1.478 . S
C1139 H1133 0.930 . S
C1139 C1135 1.400 . S
C1139 C1138 1.385 . S
C1140 C1138 1.478 . S
C1140 C1142 1.381 . S
C1140 C1146 1.383 . S
C1141 C1137 1.495 . S
C1141 H1147 0.959 . S
C1141 H1148 0.961 . S
C1141 H1149 0.960 . S
C1142 C1140 1.381 . S
C1142 C1143 1.394 . S
C1142 H1150 0.930 . S
C1143 C1142 1.394 . S
C1143 C1144 1.383 . S
C1143 H1151 0.929 . S
C1144 C1143 1.383 . S
C1144 C1145 1.377 . S
C1145 H1129 0.930 . S
C1145 C1144 1.377 . S
C1145 C1146 1.379 . S
C1146 H1130 0.931 . S
C1146 C1140 1.383 . S
C1146 C1145 1.379 . S
H1147 C1141 0.959 . S
H1148 C1141 0.961 . S
H1149 C1141 0.960 . S
H1150 C1142 0.930 . S
H1151 C1143 0.929 . S
H1152 C1160 0.929 . S
H1153 C1162 0.930 . S
H1154 C1164 0.930 . S
H1155 C1167 0.929 . S
H1156 C1170 0.930 . S
H1157 C1172 0.960 . S
H1158 C1172 0.960 . S
H1159 C1172 0.960 . S
C1160 H1152 0.929 . S
C1160 C1161 1.377 . S
C1160 C1162 1.384 . S
C1161 C1160 1.377 . S
C1161 C1167 1.390 . S
C1162 H1153 0.930 . S
C1162 C1160 1.384 . S
C1162 C1163 1.372 . S
C1163 C1162 1.372 . S
C1163 C1164 1.400 . S
C1163 C1168 1.490 . S
C1164 H1154 0.930 . S
C1164 C1163 1.400 . S
C1164 C1167 1.386 . S
H1165 C1181 0.930 . S
H1166 C1182 0.931 . S
C1167 H1155 0.929 . S
C1167 C1161 1.390 . S
C1167 C1164 1.386 . S
C1168 C1163 1.490 . S
C1168 C1170 1.395 . S
C1168 C1171 1.403 . S
H1169 C1175 0.930 . S
C1170 H1156 0.930 . S
C1170 C1168 1.395 . S
C1170 C1173 1.403 . S
C1171 C1168 1.403 . S
C1171 C1172 1.524 . S
C1171 C1175 1.400 . S
C1172 H1157 0.960 . S
C1172 H1158 0.960 . S
C1172 H1159 0.960 . S
C1172 C1171 1.524 . S
C1173 C1170 1.403 . S
C1173 C1174 1.392 . S
C1173 C1177 1.495 . S
C1174 C1173 1.392 . S
C1174 C1175 1.385 . S
C1174 C1176 1.478 . S
C1175 H1169 0.930 . S
C1175 C1171 1.400 . S
C1175 C1174 1.385 . S
C1176 C1174 1.478 . S
C1176 C1178 1.381 . S
C1176 C1182 1.383 . S
C1177 C1173 1.495 . S
C1177 H1183 0.959 . S
C1177 H1184 0.961 . S
C1177 H1185 0.960 . S
C1178 C1176 1.381 . S
C1178 C1179 1.394 . S
C1178 H1186 0.930 . S
C1179 C1178 1.394 . S
C1179 C1180 1.383 . S
C1179 H1187 0.929 . S
C1180 C1179 1.383 . S
C1180 C1181 1.377 . S
C1181 H1165 0.930 . S
C1181 C1180 1.377 . S
C1181 C1182 1.379 . S
C1182 H1166 0.931 . S
C1182 C1176 1.383 . S
C1182 C1181 1.379 . S
H1183 C1177 0.959 . S
H1184 C1177 0.961 . S
H1185 C1177 0.960 . S
H1186 C1178 0.930 . S
H1187 C1179 0.929 . S
H1188 C1196 0.929 . S
H1189 C1198 0.930 . S
H1190 C1200 0.930 . S
H1191 C1203 0.929 . S
H1192 C1206 0.930 . S
H1193 C1208 0.960 . S
H1194 C1208 0.960 . S
H1195 C1208 0.960 . S
C1196 H1188 0.929 . S
C1196 C1197 1.377 . S
C1196 C1198 1.384 . S
C1197 C1196 1.377 . S
C1197 C1203 1.390 . S
C1198 H1189 0.930 . S
C1198 C1196 1.384 . S
C1198 C1199 1.372 . S
C1199 C1198 1.372 . S
C1199 C1200 1.400 . S
C1199 C1204 1.490 . S
C1200 H1190 0.930 . S
C1200 C1199 1.400 . S
C1200 C1203 1.386 . S
H1201 C1217 0.930 . S
H1202 C1218 0.931 . S
C1203 H1191 0.929 . S
C1203 C1197 1.390 . S
C1203 C1200 1.386 . S
C1204 C1199 1.490 . S
C1204 C1206 1.395 . S
C1204 C1207 1.403 . S
H1205 C1211 0.930 . S
C1206 H1192 0.930 . S
C1206 C1204 1.395 . S
C1206 C1209 1.403 . S
C1207 C1204 1.403 . S
C1207 C1208 1.524 . S
C1207 C1211 1.400 . S
C1208 H1193 0.960 . S
C1208 H1194 0.960 . S
C1208 H1195 0.960 . S
C1208 C1207 1.524 . S
C1209 C1206 1.403 . S
C1209 C1210 1.392 . S
C1209 C1213 1.495 . S
C1210 C1209 1.392 . S
C1210 C1211 1.385 . S
C1210 C1212 1.478 . S
C1211 H1205 0.930 . S
C1211 C1207 1.400 . S
C1211 C1210 1.385 . S
C1212 C1210 1.478 . S
C1212 C1214 1.381 . S
C1212 C1218 1.383 . S
C1213 C1209 1.495 . S
C1213 H1219 0.959 . S
C1213 H1220 0.961 . S
C1213 H1221 0.960 . S
C1214 C1212 1.381 . S
C1214 C1215 1.394 . S
C1214 H1222 0.930 . S
C1215 C1214 1.394 . S
C1215 C1216 1.383 . S
C1215 H1223 0.929 . S
C1216 C1215 1.383 . S
C1216 C1217 1.377 . S
C1217 H1201 0.930 . S
C1217 C1216 1.377 . S
C1217 C1218 1.379 . S
C1218 H1202 0.931 . S
C1218 C1212 1.383 . S
C1218 C1217 1.379 . S
H1219 C1213 0.959 . S
H1220 C1213 0.961 . S
H1221 C1213 0.960 . S
H1222 C1214 0.930 . S
H1223 C1215 0.929 . S
H1224 C1232 0.929 . S
H1225 C1234 0.930 . S
H1226 C1236 0.930 . S
H1227 C1239 0.929 . S
H1228 C1242 0.930 . S
H1229 C1244 0.960 . S
H1230 C1244 0.960 . S
H1231 C1244 0.960 . S
C1232 H1224 0.929 . S
C1232 C1233 1.377 . S
C1232 C1234 1.384 . S
C1233 C1232 1.377 . S
C1233 C1239 1.390 . S
C1234 H1225 0.930 . S
C1234 C1232 1.384 . S
C1234 C1235 1.372 . S
C1235 C1234 1.372 . S
C1235 C1236 1.400 . S
C1235 C1240 1.490 . S
C1236 H1226 0.930 . S
C1236 C1235 1.400 . S
C1236 C1239 1.386 . S
H1237 C1253 0.930 . S
H1238 C1254 0.931 . S
C1239 H1227 0.929 . S
C1239 C1233 1.390 . S
C1239 C1236 1.386 . S
C1240 C1235 1.490 . S
C1240 C1242 1.395 . S
C1240 C1243 1.403 . S
H1241 C1247 0.930 . S
C1242 H1228 0.930 . S
C1242 C1240 1.395 . S
C1242 C1245 1.403 . S
C1243 C1240 1.403 . S
C1243 C1244 1.524 . S
C1243 C1247 1.400 . S
C1244 H1229 0.960 . S
C1244 H1230 0.960 . S
C1244 H1231 0.960 . S
C1244 C1243 1.524 . S
C1245 C1242 1.403 . S
C1245 C1246 1.392 . S
C1245 C1249 1.495 . S
C1246 C1245 1.392 . S
C1246 C1247 1.385 . S
C1246 C1248 1.478 . S
C1247 H1241 0.930 . S
C1247 C1243 1.400 . S
C1247 C1246 1.385 . S
C1248 C1246 1.478 . S
C1248 C1250 1.381 . S
C1248 C1254 1.383 . S
C1249 C1245 1.495 . S
C1249 H1255 0.959 . S
C1249 H1256 0.961 . S
C1249 H1257 0.960 . S
C1250 C1248 1.381 . S
C1250 C1251 1.394 . S
C1250 H1258 0.930 . S
C1251 C1250 1.394 . S
C1251 C1252 1.383 . S
C1251 H1259 0.929 . S
C1252 C1251 1.383 . S
C1252 C1253 1.377 . S
C1253 H1237 0.930 . S
C1253 C1252 1.377 . S
C1253 C1254 1.379 . S
C1254 H1238 0.931 . S
C1254 C1248 1.383 . S
C1254 C1253 1.379 . S
H1255 C1249 0.959 . S
H1256 C1249 0.961 . S
H1257 C1249 0.960 . S
H1258 C1250 0.930 . S
H1259 C1251 0.929 . S
H1260 C1268 0.929 . S
H1261 C1270 0.930 . S
H1262 C1272 0.930 . S
H1263 C1275 0.929 . S
H1264 C1278 0.930 . S
H1265 C1280 0.960 . S
H1266 C1280 0.960 . S
H1267 C1280 0.960 . S
C1268 H1260 0.929 . S
C1268 C1269 1.377 . S
C1268 C1270 1.384 . S
C1269 C1268 1.377 . S
C1269 C1275 1.390 . S
C1270 H1261 0.930 . S
C1270 C1268 1.384 . S
C1270 C1271 1.372 . S
C1271 C1270 1.372 . S
C1271 C1272 1.400 . S
C1271 C1276 1.490 . S
C1272 H1262 0.930 . S
C1272 C1271 1.400 . S
C1272 C1275 1.386 . S
H1273 C1289 0.930 . S
H1274 C1290 0.931 . S
C1275 H1263 0.929 . S
C1275 C1269 1.390 . S
C1275 C1272 1.386 . S
C1276 C1271 1.490 . S
C1276 C1278 1.395 . S
C1276 C1279 1.403 . S
H1277 C1283 0.930 . S
C1278 H1264 0.930 . S
C1278 C1276 1.395 . S
C1278 C1281 1.403 . S
C1279 C1276 1.403 . S
C1279 C1280 1.524 . S
C1279 C1283 1.400 . S
C1280 H1265 0.960 . S
C1280 H1266 0.960 . S
C1280 H1267 0.960 . S
C1280 C1279 1.524 . S
C1281 C1278 1.403 . S
C1281 C1282 1.392 . S
C1281 C1285 1.495 . S
C1282 C1281 1.392 . S
C1282 C1283 1.385 . S
C1282 C1284 1.478 . S
C1283 H1277 0.930 . S
C1283 C1279 1.400 . S
C1283 C1282 1.385 . S
C1284 C1282 1.478 . S
C1284 C1286 1.381 . S
C1284 C1290 1.383 . S
C1285 C1281 1.495 . S
C1285 H1291 0.959 . S
C1285 H1292 0.961 . S
C1285 H1293 0.960 . S
C1286 C1284 1.381 . S
C1286 C1287 1.394 . S
C1286 H1294 0.930 . S
C1287 C1286 1.394 . S
C1287 C1288 1.383 . S
C1287 H1295 0.929 . S
C1288 C1287 1.383 . S
C1288 C1289 1.377 . S
C1289 H1273 0.930 . S
C1289 C1288 1.377 . S
C1289 C1290 1.379 . S
C1290 H1274 0.931 . S
C1290 C1284 1.383 . S
C1290 C1289 1.379 . S
H1291 C1285 0.959 . S
H1292 C1285 0.961 . S
H1293 C1285 0.960 . S
H1294 C1286 0.930 . S
H1295 C1287 0.929 . S
H1296 C1304 0.929 . S
H1297 C1306 0.930 . S
H1298 C1308 0.930 . S
H1299 C1311 0.929 . S
H1300 C1314 0.930 . S
H1301 C1316 0.960 . S
H1302 C1316 0.960 . S
H1303 C1316 0.960 . S
C1304 H1296 0.929 . S
C1304 C1305 1.377 . S
C1304 C1306 1.384 . S
C1305 C1304 1.377 . S
C1305 C1311 1.390 . S
C1306 H1297 0.930 . S
C1306 C1304 1.384 . S
C1306 C1307 1.372 . S
C1307 C1306 1.372 . S
C1307 C1308 1.400 . S
C1307 C1312 1.490 . S
C1308 H1298 0.930 . S
C1308 C1307 1.400 . S
C1308 C1311 1.386 . S
H1309 C1325 0.930 . S
H1310 C1326 0.931 . S
C1311 H1299 0.929 . S
C1311 C1305 1.390 . S
C1311 C1308 1.386 . S
C1312 C1307 1.490 . S
C1312 C1314 1.395 . S
C1312 C1315 1.403 . S
H1313 C1319 0.930 . S
C1314 H1300 0.930 . S
C1314 C1312 1.395 . S
C1314 C1317 1.403 . S
C1315 C1312 1.403 . S
C1315 C1316 1.524 . S
C1315 C1319 1.400 . S
C1316 H1301 0.960 . S
C1316 H1302 0.960 . S
C1316 H1303 0.960 . S
C1316 C1315 1.524 . S
C1317 C1314 1.403 . S
C1317 C1318 1.392 . S
C1317 C1321 1.495 . S
C1318 C1317 1.392 . S
C1318 C1319 1.385 . S
C1318 C1320 1.478 . S
C1319 H1313 0.930 . S
C1319 C1315 1.400 . S
C1319 C1318 1.385 . S
C1320 C1318 1.478 . S
C1320 C1322 1.381 . S
C1320 C1326 1.383 . S
C1321 C1317 1.495 . S
C1321 H1327 0.959 . S
C1321 H1328 0.961 . S
C1321 H1329 0.960 . S
C1322 C1320 1.381 . S
C1322 C1323 1.394 . S
C1322 H1330 0.930 . S
C1323 C1322 1.394 . S
C1323 C1324 1.383 . S
C1323 H1331 0.929 . S
C1324 C1323 1.383 . S
C1324 C1325 1.377 . S
C1325 H1309 0.930 . S
C1325 C1324 1.377 . S
C1325 C1326 1.379 . S
C1326 H1310 0.931 . S
C1326 C1320 1.383 . S
C1326 C1325 1.379 . S
H1327 C1321 0.959 . S
H1328 C1321 0.961 . S
H1329 C1321 0.960 . S
H1330 C1322 0.930 . S
H1331 C1323 0.929 . S
H1332 C1340 0.929 . S
H1333 C1342 0.930 . S
H1334 C1344 0.930 . S
H1335 C1347 0.929 . S
H1336 C1350 0.930 . S
H1337 C1352 0.960 1_554 S
H1338 C1352 0.960 . S
H1339 C1352 0.960 . S
C1340 H1332 0.929 . S
C1340 C1341 1.377 . S
C1340 C1342 1.384 . S
C1341 C1340 1.377 . S
C1341 C1347 1.390 . S
C1342 H1333 0.930 . S
C1342 C1340 1.384 . S
C1342 C1343 1.372 . S
C1343 C1342 1.372 . S
C1343 C1344 1.400 . S
C1343 C1348 1.490 . S
C1344 H1334 0.930 . S
C1344 C1343 1.400 . S
C1344 C1347 1.386 . S
H1345 C1361 0.930 . S
H1346 C1362 0.931 . S
C1347 H1335 0.929 . S
C1347 C1341 1.390 . S
C1347 C1344 1.386 . S
C1348 C1343 1.490 . S
C1348 C1350 1.395 . S
C1348 C1351 1.403 . S
H1349 C1355 0.930 . S
C1350 H1336 0.930 . S
C1350 C1348 1.395 . S
C1350 C1353 1.403 1_556 S
C1351 C1348 1.403 . S
C1351 C1352 1.524 . S
C1351 C1355 1.400 1_556 S
C1352 H1337 0.960 1_556 S
C1352 H1338 0.960 . S
C1352 H1339 0.960 . S
C1352 C1351 1.524 . S
C1353 C1350 1.403 1_554 S
C1353 C1354 1.392 . S
C1353 C1357 1.495 . S
C1354 C1353 1.392 . S
C1354 C1355 1.385 . S
C1354 C1356 1.478 . S
C1355 H1349 0.930 . S
C1355 C1351 1.400 1_554 S
C1355 C1354 1.385 . S
C1356 C1354 1.478 . S
C1356 C1358 1.381 . S
C1356 C1362 1.383 . S
C1357 C1353 1.495 . S
C1357 H1363 0.959 1_554 S
C1357 H1364 0.961 . S
C1357 H1365 0.960 . S
C1358 C1356 1.381 . S
C1358 C1359 1.394 . S
C1358 H1366 0.930 . S
C1359 C1358 1.394 . S
C1359 C1360 1.383 . S
C1359 H1367 0.929 . S
C1360 C1359 1.383 . S
C1360 C1361 1.377 . S
C1361 H1345 0.930 . S
C1361 C1360 1.377 . S
C1361 C1362 1.379 . S
C1362 H1346 0.931 . S
C1362 C1356 1.383 . S
C1362 C1361 1.379 . S
H1363 C1357 0.959 1_556 S
H1364 C1357 0.961 . S
H1365 C1357 0.960 . S
H1366 C1358 0.930 . S
H1367 C1359 0.929 . S
H1368 C1376 0.929 . S
H1369 C1378 0.930 . S
H1370 C1380 0.930 1_655 S
H1371 C1383 0.929 . S
H1372 C1386 0.930 . S
H1373 C1388 0.960 . S
H1374 C1388 0.960 . S
H1375 C1388 0.960 . S
C1376 H1368 0.929 . S
C1376 C1377 1.377 . S
C1376 C1378 1.384 . S
C1377 C1376 1.377 . S
C1377 C1383 1.390 . S
C1378 H1369 0.930 . S
C1378 C1376 1.384 . S
C1378 C1379 1.372 . S
C1379 C1378 1.372 . S
C1379 C1380 1.400 . S
C1379 C1384 1.490 . S
C1380 H1370 0.930 1_455 S
C1380 C1379 1.400 . S
C1380 C1383 1.386 . S
H1381 C1397 0.930 . S
H1382 C1398 0.931 . S
C1383 H1371 0.929 . S
C1383 C1377 1.390 . S
C1383 C1380 1.386 . S
C1384 C1379 1.490 . S
C1384 C1386 1.395 . S
C1384 C1387 1.403 1_455 S
H1385 C1391 0.930 . S
C1386 H1372 0.930 . S
C1386 C1384 1.395 . S
C1386 C1389 1.403 . S
C1387 C1384 1.403 1_655 S
C1387 C1388 1.524 . S
C1387 C1391 1.400 . S
C1388 H1373 0.960 . S
C1388 H1374 0.960 . S
C1388 H1375 0.960 . S
C1388 C1387 1.524 . S
C1389 C1386 1.403 . S
C1389 C1390 1.392 1_455 S
C1389 C1393 1.495 . S
C1390 C1389 1.392 1_655 S
C1390 C1391 1.385 . S
C1390 C1392 1.478 . S
C1391 H1385 0.930 . S
C1391 C1387 1.400 . S
C1391 C1390 1.385 . S
C1392 C1390 1.478 . S
C1392 C1394 1.381 . S
C1392 C1398 1.383 . S
C1393 C1389 1.495 . S
C1393 H1399 0.959 . S
C1393 H1400 0.961 . S
C1393 H1401 0.960 . S
C1394 C1392 1.381 . S
C1394 C1395 1.394 . S
C1394 H1402 0.930 1_655 S
C1395 C1394 1.394 . S
C1395 C1396 1.383 . S
C1395 H1403 0.929 . S
C1396 C1395 1.383 . S
C1396 C1397 1.377 . S
C1397 H1381 0.930 . S
C1397 C1396 1.377 . S
C1397 C1398 1.379 . S
C1398 H1382 0.931 . S
C1398 C1392 1.383 . S
C1398 C1397 1.379 . S
H1399 C1393 0.959 . S
H1400 C1393 0.961 . S
H1401 C1393 0.960 . S
H1402 C1394 0.930 1_455 S
H1403 C1395 0.929 . S
H1404 C1412 0.929 . S
H1405 C1414 0.930 . S
H1406 C1416 0.930 1_545 S
H1407 C1419 0.929 . S
H1408 C1422 0.930 . S
H1409 C1424 0.960 . S
H1410 C1424 0.960 1_565 S
H1411 C1424 0.960 . S
C1412 H1404 0.929 . S
C1412 C1413 1.377 . S
C1412 C1414 1.384 . S
C1413 C1412 1.377 . S
C1413 C1419 1.390 . S
C1414 H1405 0.930 . S
C1414 C1412 1.384 . S
C1414 C1415 1.372 . S
C1415 C1414 1.372 . S
C1415 C1416 1.400 . S
C1415 C1420 1.490 . S
C1416 H1406 0.930 1_565 S
C1416 C1415 1.400 . S
C1416 C1419 1.386 . S
H1417 C1433 0.930 . S
H1418 C1434 0.931 . S
C1419 H1407 0.929 . S
C1419 C1413 1.390 . S
C1419 C1416 1.386 . S
C1420 C1415 1.490 . S
C1420 C1422 1.395 . S
C1420 C1423 1.403 1_565 S
H1421 C1427 0.930 . S
C1422 H1408 0.930 . S
C1422 C1420 1.395 . S
C1422 C1425 1.403 1_554 S
C1423 C1420 1.403 1_545 S
C1423 C1424 1.524 . S
C1423 C1427 1.400 1_554 S
C1424 H1409 0.960 . S
C1424 H1410 0.960 1_545 S
C1424 H1411 0.960 . S
C1424 C1423 1.524 . S
C1425 C1422 1.403 1_556 S
C1425 C1426 1.392 1_565 S
C1425 C1429 1.495 . S
C1426 C1425 1.392 1_545 S
C1426 C1427 1.385 . S
C1426 C1428 1.478 . S
C1427 H1421 0.930 . S
C1427 C1423 1.400 1_556 S
C1427 C1426 1.385 . S
C1428 C1426 1.478 . S
C1428 C1430 1.381 . S
C1428 C1434 1.383 . S
C1429 C1425 1.495 . S
C1429 H1435 0.959 . S
C1429 H1436 0.961 1_565 S
C1429 H1437 0.960 . S
C1430 C1428 1.381 . S
C1430 C1431 1.394 . S
C1430 H1438 0.930 1_545 S
C1431 C1430 1.394 . S
C1431 C1432 1.383 . S
C1431 H1439 0.929 . S
C1432 C1431 1.383 . S
C1432 C1433 1.377 . S
C1433 H1417 0.930 . S
C1433 C1432 1.377 . S
C1433 C1434 1.379 . S
C1434 H1418 0.931 . S
C1434 C1428 1.383 . S
C1434 C1433 1.379 . S
H1435 C1429 0.959 . S
H1436 C1429 0.961 1_545 S
H1437 C1429 0.960 . S
H1438 C1430 0.930 1_565 S
H1439 C1431 0.929 . S
H1440 C1448 0.929 . S
H1441 C1450 0.930 . S
H1442 C1452 0.930 . S
H1443 C1455 0.929 . S
H1444 C1458 0.930 . S
H1445 C1460 0.960 . S
H1446 C1460 0.960 . S
H1447 C1460 0.960 . S
C1448 H1440 0.929 . S
C1448 C1449 1.377 . S
C1448 C1450 1.384 . S
C1449 C1448 1.377 . S
C1449 C1455 1.390 . S
C1450 H1441 0.930 . S
C1450 C1448 1.384 . S
C1450 C1451 1.372 . S
C1451 C1450 1.372 . S
C1451 C1452 1.400 . S
C1451 C1456 1.490 . S
C1452 H1442 0.930 . S
C1452 C1451 1.400 . S
C1452 C1455 1.386 . S
H1453 C1469 0.930 . S
H1454 C1470 0.931 . S
C1455 H1443 0.929 . S
C1455 C1449 1.390 . S
C1455 C1452 1.386 . S
C1456 C1451 1.490 . S
C1456 C1458 1.395 . S
C1456 C1459 1.403 . S
H1457 C1463 0.930 . S
C1458 H1444 0.930 . S
C1458 C1456 1.395 . S
C1458 C1461 1.403 . S
C1459 C1456 1.403 . S
C1459 C1460 1.524 . S
C1459 C1463 1.400 . S
C1460 H1445 0.960 . S
C1460 H1446 0.960 . S
C1460 H1447 0.960 . S
C1460 C1459 1.524 . S
C1461 C1458 1.403 . S
C1461 C1462 1.392 . S
C1461 C1465 1.495 . S
C1462 C1461 1.392 . S
C1462 C1463 1.385 . S
C1462 C1464 1.478 . S
C1463 H1457 0.930 . S
C1463 C1459 1.400 . S
C1463 C1462 1.385 . S
C1464 C1462 1.478 . S
C1464 C1466 1.381 . S
C1464 C1470 1.383 . S
C1465 C1461 1.495 . S
C1465 H1471 0.959 . S
C1465 H1472 0.961 . S
C1465 H1473 0.960 . S
C1466 C1464 1.381 . S
C1466 C1467 1.394 . S
C1466 H1474 0.930 . S
C1467 C1466 1.394 . S
C1467 C1468 1.383 . S
C1467 H1475 0.929 . S
C1468 C1467 1.383 . S
C1468 C1469 1.377 . S
C1469 H1453 0.930 . S
C1469 C1468 1.377 . S
C1469 C1470 1.379 . S
C1470 H1454 0.931 . S
C1470 C1464 1.383 . S
C1470 C1469 1.379 . S
H1471 C1465 0.959 . S
H1472 C1465 0.961 . S
H1473 C1465 0.960 . S
H1474 C1466 0.930 . S
H1475 C1467 0.929 . S
H1476 C1484 0.929 . S
H1477 C1486 0.930 . S
H1478 C1488 0.930 . S
H1479 C1491 0.929 . S
H1480 C1494 0.930 . S
H1481 C1496 0.960 . S
H1482 C1496 0.960 . S
H1483 C1496 0.960 . S
C1484 H1476 0.929 . S
C1484 C1485 1.377 . S
C1484 C1486 1.384 . S
C1485 C1484 1.377 . S
C1485 C1491 1.390 . S
C1486 H1477 0.930 . S
C1486 C1484 1.384 . S
C1486 C1487 1.372 . S
C1487 C1486 1.372 . S
C1487 C1488 1.400 . S
C1487 C1492 1.490 . S
C1488 H1478 0.930 . S
C1488 C1487 1.400 . S
C1488 C1491 1.386 . S
H1489 C1505 0.930 . S
H1490 C1506 0.931 . S
C1491 H1479 0.929 . S
C1491 C1485 1.390 . S
C1491 C1488 1.386 . S
C1492 C1487 1.490 . S
C1492 C1494 1.395 . S
C1492 C1495 1.403 1_655 S
H1493 C1499 0.930 . S
C1494 H1480 0.930 . S
C1494 C1492 1.395 . S
C1494 C1497 1.403 1_556 S
C1495 C1492 1.403 1_455 S
C1495 C1496 1.524 . S
C1495 C1499 1.400 1_556 S
C1496 H1481 0.960 . S
C1496 H1482 0.960 . S
C1496 H1483 0.960 . S
C1496 C1495 1.524 . S
C1497 C1494 1.403 1_554 S
C1497 C1498 1.392 1_655 S
C1497 C1501 1.495 . S
C1498 C1497 1.392 1_455 S
C1498 C1499 1.385 . S
C1498 C1500 1.478 . S
C1499 H1493 0.930 . S
C1499 C1495 1.400 1_554 S
C1499 C1498 1.385 . S
C1500 C1498 1.478 . S
C1500 C1502 1.381 . S
C1500 C1506 1.383 . S
C1501 C1497 1.495 . S
C1501 H1507 0.959 . S
C1501 H1508 0.961 . S
C1501 H1509 0.960 . S
C1502 C1500 1.381 . S
C1502 C1503 1.394 . S
C1502 H1510 0.930 . S
C1503 C1502 1.394 . S
C1503 C1504 1.383 . S
C1503 H1511 0.929 . S
C1504 C1503 1.383 . S
C1504 C1505 1.377 . S
C1505 H1489 0.930 . S
C1505 C1504 1.377 . S
C1505 C1506 1.379 . S
C1506 H1490 0.931 . S
C1506 C1500 1.383 . S
C1506 C1505 1.379 . S
H1507 C1501 0.959 . S
H1508 C1501 0.961 . S
H1509 C1501 0.960 . S
H1510 C1502 0.930 . S
H1511 C1503 0.929 . S
H1512 C1520 0.929 . S
H1513 C1522 0.930 . S
H1514 C1524 0.930 1_545 S
H1515 C1527 0.929 . S
H1516 C1530 0.930 . S
H1517 C1532 0.960 1_545 S
H1518 C1532 0.960 . S
H1519 C1532 0.960 1_545 S
C1520 H1512 0.929 . S
C1520 C1521 1.377 . S
C1520 C1522 1.384 . S
C1521 C1520 1.377 . S
C1521 C1527 1.390 . S
C1522 H1513 0.930 . S
C1522 C1520 1.384 . S
C1522 C1523 1.372 . S
C1523 C1522 1.372 . S
C1523 C1524 1.400 . S
C1523 C1528 1.490 . S
C1524 H1514 0.930 1_565 S
C1524 C1523 1.400 . S
C1524 C1527 1.386 . S
H1525 C1541 0.930 . S
H1526 C1542 0.931 . S
C1527 H1515 0.929 . S
C1527 C1521 1.390 . S
C1527 C1524 1.386 . S
C1528 C1523 1.490 . S
C1528 C1530 1.395 . S
C1528 C1531 1.403 . S
H1529 C1535 0.930 . S
C1530 H1516 0.930 . S
C1530 C1528 1.395 . S
C1530 C1533 1.396 1_565 S
C1531 C1528 1.403 . S
C1531 C1532 1.524 . S
C1531 C1535 1.400 1_565 S
C1532 H1517 0.960 1_565 S
C1532 H1518 0.960 . S
C1532 H1519 0.960 1_565 S
C1532 C1531 1.524 . S
C1533 C1530 1.396 1_545 S
C1533 C1534 1.410 . S
C1533 C1537 1.485 . S
C1534 C1533 1.410 . S
C1534 C1535 1.385 . S
C1534 C1536 1.478 . S
C1535 H1529 0.930 . S
C1535 C1531 1.400 1_545 S
C1535 C1534 1.385 . S
C1536 C1534 1.478 . S
C1536 C1538 1.381 . S
C1536 C1542 1.383 . S
C1537 C1533 1.485 . S
C1537 H1543 0.959 1_545 S
C1537 H1544 0.961 . S
C1537 H1545 0.960 1_545 S
C1538 C1536 1.381 . S
C1538 C1539 1.394 . S
C1538 H1546 0.930 1_545 S
C1539 C1538 1.394 . S
C1539 C1540 1.383 . S
C1539 H1547 0.929 . S
C1540 C1539 1.383 . S
C1540 C1541 1.377 . S
C1541 H1525 0.930 . S
C1541 C1540 1.377 . S
C1541 C1542 1.379 . S
C1542 H1526 0.931 . S
C1542 C1536 1.383 . S
C1542 C1541 1.379 . S
H1543 C1537 0.959 1_565 S
H1544 C1537 0.961 . S
H1545 C1537 0.960 1_565 S
H1546 C1538 0.930 1_565 S
H1547 C1539 0.929 . S
C261 C91 0.748 . S
C280 C19 0.837 . S
C297 C112 0.735 . S
C316 C41 0.814 . S
C333 C61 0.751 . S
C352 C7 0.667 . S
C369 C82 0.769 . S
C388 C25 0.738 . S
C405 C103 0.735 . S
C424 C49 0.733 . S
C441 C70 0.769 . S
C460 C124 0.750 . S
C477 C175 0.769 . S
C496 C146 0.720 . S
C513 C166 0.748 . S
C532 C196 0.673 . S
C549 C217 0.741 . S
C568 C187 0.835 . S
C585 C208 0.753 . S
C604 C238 0.664 . S
C621 C229 0.744 . S
C640 C130 0.836 . S
C657 C154 0.735 . S
C676 C250 0.816 . S
C693 C88 0.768 . S
C712 C3 0.742 . S
C729 C37 0.824 . S
C748 C109 0.759 . S
C765 C45 0.803 . S
C784 C4 0.817 . S
C801 C66 0.820 . S
C820 C28 0.873 . S
C837 C46 0.772 . S
C856 C87 0.738 . S
C873 C67 0.795 . S
C892 C108 0.794 . S
C909 C172 0.781 . S
C928 C142 0.875 . S
C945 C150 0.820 . S
C964 C193 0.734 . S
C981 C171 0.806 . S
C1000 C214 0.837 . S
C1017 C235 0.791 . S
C1036 C192 0.884 . S
C1053 C213 0.818 . S
C1072 C133 0.721 . S
C1089 C151 0.770 . S
C1108 C234 0.739 . S
C1125 C226 1.370 . S
C1144 C16 1.407 . S
C1161 C24 1.363 . S
C1180 C247 1.361 . S
C1197 C58 1.363 . S
C1216 C129 1.372 . S
C1233 C79 1.375 . S
C1252 C163 1.335 . S
C1269 C100 1.363 . S
C1288 C184 1.340 . S
C1305 C205 1.380 . S
C1324 C121 1.407 . S
C1341 C209 1.355 . S
C1360 C20 1.356 . S
C1377 C230 1.366 . S
C1396 C40 1.369 . S
C1413 C62 1.361 . S
C1432 C251 1.339 . S
C1449 C83 1.352 . S
C1468 C145 1.334 . S
C1485 C167 1.367 . S
C1504 C104 1.373 . S
C1521 C188 1.359 . S
C1540 C125 1.331 . S
