# Generated by pormake.
# Topology vcd, (5)-cn, num edge types: 1
# Building blocks:
#     Node 0, Type 0, BuildingBlock: XOMCOT_clean_sbu_0, # of connection points: 5
#     Node 1, Type 0, BuildingBlock: XOMCOT_clean_sbu_0, # of connection points: 5
#     Node 2, Type 0, BuildingBlock: XOMCOT_clean_sbu_0, # of connection points: 5
#     Node 3, Type 0, BuildingBlock: XOMCOT_clean_sbu_0, # of connection points: 5
#     Node 4, Type 0, BuildingBlock: XOMCOT_clean_sbu_0, # of connection points: 5
#     Node 5, Type 0, BuildingBlock: XOMCOT_clean_sbu_0, # of connection points: 5
#     Node 6, Type 0, BuildingBlock: XOMCOT_clean_sbu_0, # of connection points: 5
#     Node 7, Type 0, BuildingBlock: XOMCOT_clean_sbu_0, # of connection points: 5
#     Node 8, Type 0, BuildingBlock: XOMCOT_clean_sbu_0, # of connection points: 5
#     Node 9, Type 0, BuildingBlock: XOMCOT_clean_sbu_0, # of connection points: 5
#     Node 10, Type 0, BuildingBlock: XOMCOT_clean_sbu_0, # of connection points: 5
#     Node 11, Type 0, BuildingBlock: XOMCOT_clean_sbu_0, # of connection points: 5
#     Node 12, Type 0, BuildingBlock: XOMCOT_clean_sbu_0, # of connection points: 5
#     Node 13, Type 0, BuildingBlock: XOMCOT_clean_sbu_0, # of connection points: 5
#     Node 14, Type 0, BuildingBlock: XOMCOT_clean_sbu_0, # of connection points: 5
#     Node 15, Type 0, BuildingBlock: XOMCOT_clean_sbu_0, # of connection points: 5
#     Node 16, Type 0, BuildingBlock: XOMCOT_clean_sbu_0, # of connection points: 5
#     Node 17, Type 0, BuildingBlock: XOMCOT_clean_sbu_0, # of connection points: 5
#     Node 18, Type 0, BuildingBlock: XOMCOT_clean_sbu_0, # of connection points: 5
#     Node 19, Type 0, BuildingBlock: XOMCOT_clean_sbu_0, # of connection points: 5
#     Node 20, Type 0, BuildingBlock: XOMCOT_clean_sbu_0, # of connection points: 5
#     Node 21, Type 0, BuildingBlock: XOMCOT_clean_sbu_0, # of connection points: 5
#     Node 22, Type 0, BuildingBlock: XOMCOT_clean_sbu_0, # of connection points: 5
#     Node 23, Type 0, BuildingBlock: XOMCOT_clean_sbu_0, # of connection points: 5
#     Node 24, Type 0, BuildingBlock: XOMCOT_clean_sbu_0, # of connection points: 5
#     Node 25, Type 0, BuildingBlock: XOMCOT_clean_sbu_0, # of connection points: 5
#     Node 26, Type 0, BuildingBlock: XOMCOT_clean_sbu_0, # of connection points: 5
#     Node 27, Type 0, BuildingBlock: XOMCOT_clean_sbu_0, # of connection points: 5
#     Node 28, Type 0, BuildingBlock: XOMCOT_clean_sbu_0, # of connection points: 5
#     Node 29, Type 0, BuildingBlock: XOMCOT_clean_sbu_0, # of connection points: 5
#     Node 30, Type 0, BuildingBlock: XOMCOT_clean_sbu_0, # of connection points: 5
#     Node 31, Type 0, BuildingBlock: XOMCOT_clean_sbu_0, # of connection points: 5
#     Edge 32, Type (0, 0), BuildingBlock: OJICUG_clean_linker_0, # of connection points: 2
#     Edge 33, Type (0, 0), BuildingBlock: OJICUG_clean_linker_0, # of connection points: 2
#     Edge 34, Type (0, 0), BuildingBlock: OJICUG_clean_linker_0, # of connection points: 2
#     Edge 35, Type (0, 0), BuildingBlock: OJICUG_clean_linker_0, # of connection points: 2
#     Edge 36, Type (0, 0), BuildingBlock: OJICUG_clean_linker_0, # of connection points: 2
#     Edge 37, Type (0, 0), BuildingBlock: OJICUG_clean_linker_0, # of connection points: 2
#     Edge 38, Type (0, 0), BuildingBlock: OJICUG_clean_linker_0, # of connection points: 2
#     Edge 39, Type (0, 0), BuildingBlock: OJICUG_clean_linker_0, # of connection points: 2
#     Edge 40, Type (0, 0), BuildingBlock: OJICUG_clean_linker_0, # of connection points: 2
#     Edge 41, Type (0, 0), BuildingBlock: OJICUG_clean_linker_0, # of connection points: 2
#     Edge 42, Type (0, 0), BuildingBlock: OJICUG_clean_linker_0, # of connection points: 2
#     Edge 43, Type (0, 0), BuildingBlock: OJICUG_clean_linker_0, # of connection points: 2
#     Edge 44, Type (0, 0), BuildingBlock: OJICUG_clean_linker_0, # of connection points: 2
#     Edge 45, Type (0, 0), BuildingBlock: OJICUG_clean_linker_0, # of connection points: 2
#     Edge 46, Type (0, 0), BuildingBlock: OJICUG_clean_linker_0, # of connection points: 2
#     Edge 47, Type (0, 0), BuildingBlock: OJICUG_clean_linker_0, # of connection points: 2
#     Edge 48, Type (0, 0), BuildingBlock: OJICUG_clean_linker_0, # of connection points: 2
#     Edge 49, Type (0, 0), BuildingBlock: OJICUG_clean_linker_0, # of connection points: 2
#     Edge 50, Type (0, 0), BuildingBlock: OJICUG_clean_linker_0, # of connection points: 2
#     Edge 51, Type (0, 0), BuildingBlock: OJICUG_clean_linker_0, # of connection points: 2
#     Edge 52, Type (0, 0), BuildingBlock: OJICUG_clean_linker_0, # of connection points: 2
#     Edge 53, Type (0, 0), BuildingBlock: OJICUG_clean_linker_0, # of connection points: 2
#     Edge 54, Type (0, 0), BuildingBlock: OJICUG_clean_linker_0, # of connection points: 2
#     Edge 55, Type (0, 0), BuildingBlock: OJICUG_clean_linker_0, # of connection points: 2
#     Edge 56, Type (0, 0), BuildingBlock: OJICUG_clean_linker_0, # of connection points: 2
#     Edge 57, Type (0, 0), BuildingBlock: OJICUG_clean_linker_0, # of connection points: 2
#     Edge 58, Type (0, 0), BuildingBlock: OJICUG_clean_linker_0, # of connection points: 2
#     Edge 59, Type (0, 0), BuildingBlock: OJICUG_clean_linker_0, # of connection points: 2
#     Edge 60, Type (0, 0), BuildingBlock: OJICUG_clean_linker_0, # of connection points: 2
#     Edge 61, Type (0, 0), BuildingBlock: OJICUG_clean_linker_0, # of connection points: 2
#     Edge 62, Type (0, 0), BuildingBlock: OJICUG_clean_linker_0, # of connection points: 2
#     Edge 63, Type (0, 0), BuildingBlock: OJICUG_clean_linker_0, # of connection points: 2
#     Edge 64, Type (0, 0), BuildingBlock: OJICUG_clean_linker_0, # of connection points: 2
#     Edge 65, Type (0, 0), BuildingBlock: OJICUG_clean_linker_0, # of connection points: 2
#     Edge 66, Type (0, 0), BuildingBlock: OJICUG_clean_linker_0, # of connection points: 2
#     Edge 67, Type (0, 0), BuildingBlock: OJICUG_clean_linker_0, # of connection points: 2
#     Edge 68, Type (0, 0), BuildingBlock: OJICUG_clean_linker_0, # of connection points: 2
#     Edge 69, Type (0, 0), BuildingBlock: OJICUG_clean_linker_0, # of connection points: 2
#     Edge 70, Type (0, 0), BuildingBlock: OJICUG_clean_linker_0, # of connection points: 2
#     Edge 71, Type (0, 0), BuildingBlock: OJICUG_clean_linker_0, # of connection points: 2
#     Edge 72, Type (0, 0), BuildingBlock: OJICUG_clean_linker_0, # of connection points: 2
#     Edge 73, Type (0, 0), BuildingBlock: OJICUG_clean_linker_0, # of connection points: 2
#     Edge 74, Type (0, 0), BuildingBlock: OJICUG_clean_linker_0, # of connection points: 2
#     Edge 75, Type (0, 0), BuildingBlock: OJICUG_clean_linker_0, # of connection points: 2
#     Edge 76, Type (0, 0), BuildingBlock: OJICUG_clean_linker_0, # of connection points: 2
#     Edge 77, Type (0, 0), BuildingBlock: OJICUG_clean_linker_0, # of connection points: 2
#     Edge 78, Type (0, 0), BuildingBlock: OJICUG_clean_linker_0, # of connection points: 2
#     Edge 79, Type (0, 0), BuildingBlock: OJICUG_clean_linker_0, # of connection points: 2
#     Edge 80, Type (0, 0), BuildingBlock: OJICUG_clean_linker_0, # of connection points: 2
#     Edge 81, Type (0, 0), BuildingBlock: OJICUG_clean_linker_0, # of connection points: 2
#     Edge 82, Type (0, 0), BuildingBlock: OJICUG_clean_linker_0, # of connection points: 2
#     Edge 83, Type (0, 0), BuildingBlock: OJICUG_clean_linker_0, # of connection points: 2
#     Edge 84, Type (0, 0), BuildingBlock: OJICUG_clean_linker_0, # of connection points: 2
#     Edge 85, Type (0, 0), BuildingBlock: OJICUG_clean_linker_0, # of connection points: 2
#     Edge 86, Type (0, 0), BuildingBlock: OJICUG_clean_linker_0, # of connection points: 2
#     Edge 87, Type (0, 0), BuildingBlock: OJICUG_clean_linker_0, # of connection points: 2
#     Edge 88, Type (0, 0), BuildingBlock: OJICUG_clean_linker_0, # of connection points: 2
#     Edge 89, Type (0, 0), BuildingBlock: OJICUG_clean_linker_0, # of connection points: 2
#     Edge 90, Type (0, 0), BuildingBlock: OJICUG_clean_linker_0, # of connection points: 2
#     Edge 91, Type (0, 0), BuildingBlock: OJICUG_clean_linker_0, # of connection points: 2
#     Edge 92, Type (0, 0), BuildingBlock: OJICUG_clean_linker_0, # of connection points: 2
#     Edge 93, Type (0, 0), BuildingBlock: OJICUG_clean_linker_0, # of connection points: 2
#     Edge 94, Type (0, 0), BuildingBlock: OJICUG_clean_linker_0, # of connection points: 2
#     Edge 95, Type (0, 0), BuildingBlock: OJICUG_clean_linker_0, # of connection points: 2
#     Edge 96, Type (0, 0), BuildingBlock: OJICUG_clean_linker_0, # of connection points: 2
#     Edge 97, Type (0, 0), BuildingBlock: OJICUG_clean_linker_0, # of connection points: 2
#     Edge 98, Type (0, 0), BuildingBlock: OJICUG_clean_linker_0, # of connection points: 2
#     Edge 99, Type (0, 0), BuildingBlock: OJICUG_clean_linker_0, # of connection points: 2
#     Edge 100, Type (0, 0), BuildingBlock: OJICUG_clean_linker_0, # of connection points: 2
#     Edge 101, Type (0, 0), BuildingBlock: OJICUG_clean_linker_0, # of connection points: 2
#     Edge 102, Type (0, 0), BuildingBlock: OJICUG_clean_linker_0, # of connection points: 2
#     Edge 103, Type (0, 0), BuildingBlock: OJICUG_clean_linker_0, # of connection points: 2
#     Edge 104, Type (0, 0), BuildingBlock: OJICUG_clean_linker_0, # of connection points: 2
#     Edge 105, Type (0, 0), BuildingBlock: OJICUG_clean_linker_0, # of connection points: 2
#     Edge 106, Type (0, 0), BuildingBlock: OJICUG_clean_linker_0, # of connection points: 2
#     Edge 107, Type (0, 0), BuildingBlock: OJICUG_clean_linker_0, # of connection points: 2
#     Edge 108, Type (0, 0), BuildingBlock: OJICUG_clean_linker_0, # of connection points: 2
#     Edge 109, Type (0, 0), BuildingBlock: OJICUG_clean_linker_0, # of connection points: 2
#     Edge 110, Type (0, 0), BuildingBlock: OJICUG_clean_linker_0, # of connection points: 2
#     Edge 111, Type (0, 0), BuildingBlock: OJICUG_clean_linker_0, # of connection points: 2
# Relax obj value: 0.087
# Max RMSD: 0.131
# Mean RMSD: 0.131
data_MOF--net-vcd--node1-XOMCOT_clean_sbu_0--edge1-OJICUG_clean_linker_0
_symmetry_space_group_name_H-M    P1
_symmetry_Int_Tables_number       1
_symmetry_cell_setting            triclinic
loop_
_symmetry_equiv_pos_as_xyz
'x, y, z'
_cell_length_a     106.728
_cell_length_b     35.413882
_cell_length_c     21.732447
_cell_angle_alpha  89.995801
_cell_angle_beta   90.020384
_cell_angle_gamma 89.962363
loop_
_atom_site_label
_atom_site_type_symbol
_atom_site_fract_x
_atom_site_fract_y
_atom_site_fract_z
_atom_type_partial_charge
Co0 Co 0.0795 0.49333 0.08719 0.0
C1 C 0.10704 0.51168 0.10426 0.0
C2 C 0.10398 0.47152 0.03224 0.0
C3 C 0.11668 0.47684 0.03883 0.0
N4 N 0.09779 0.49295 0.07374 0.0
N5 N 0.11864 0.50172 0.08461 0.0
H6 H 0.10543 0.53133 0.14153 0.0
H7 H 0.09976 0.452 1.00036 0.0
C8 C 0.06867 0.43434 0.99629 0.0
O9 O 0.0582 0.43281 0.02773 0.0
N10 N 0.06136 0.49527 0.09868 0.0
C11 C 0.05478 0.48964 0.15077 0.0
C12 C 0.0422 0.49469 0.13824 0.0
C13 C 0.05273 0.5055 0.05607 0.0
N14 N 0.04088 0.50423 0.0784 0.0
C15 C 0.08906 0.46314 0.19626 0.0
C16 C 0.07403 0.40062 0.20972 0.0
C17 C 0.08162 0.41214 0.25913 0.0
C18 C 0.08936 0.44335 0.25082 0.0
C19 C 0.07413 0.42145 0.15437 0.0
N20 N 0.08136 0.45323 0.14879 0.0
H21 H 0.09438 0.48869 0.19525 0.0
H22 H 0.06785 0.41303 0.11855 0.0
H23 H 0.05879 0.48224 0.19484 0.0
H24 H 0.05509 0.51258 0.00903 0.0
O25 O 0.0809 0.53361 0.14583 0.0
O26 O 0.07853 0.54297 0.0463 0.0
O27 O 0.07764 0.45617 0.01387 0.0
C28 C 0.07972 0.55745 0.10151 0.0
H29 H 0.12395 0.46171 0.01433 0.0
H30 H 0.03459 0.49062 0.17047 0.0
H31 H 0.06789 0.37644 0.21428 0.0
H32 H 0.09513 0.45422 0.28784 0.0
Co33 Co 0.2072 0.77594 0.07844 0.0
C34 C 0.17955 0.75705 0.08686 0.0
C35 C 0.18318 0.80445 0.0283 0.0
C36 C 0.17043 0.79954 0.03242 0.0
N37 N 0.18903 0.77796 0.06255 0.0
N38 N 0.16811 0.7701 0.06986 0.0
H39 H 0.18091 0.73448 0.11977 0.0
H40 H 0.18769 0.82756 1.00485 0.0
C41 C 0.21859 0.83378 0.98713 0.0
O42 O 0.22874 0.8363 0.02075 0.0
N43 N 0.22526 0.77246 0.09163 0.0
C44 C 0.23166 0.77549 0.14484 0.0
C45 C 0.24427 0.77063 0.13285 0.0
C46 C 0.23399 0.7635 0.04885 0.0
N47 N 0.24576 0.76358 0.07218 0.0
C48 C 0.1965 0.8103 0.18154 0.0
C49 C 0.21434 0.86427 0.2059 0.0
C50 C 0.20553 0.85518 0.2516 0.0
C51 C 0.19633 0.82867 0.23753 0.0
C52 C 0.2141 0.84509 0.14911 0.0
N53 N 0.20548 0.81722 0.13817 0.0
H54 H 0.19011 0.7872 0.17704 0.0
H55 H 0.22153 0.85061 0.1175 0.0
H56 H 0.2275 0.78121 0.18926 0.0
H57 H 0.23174 0.75826 1.00105 0.0
O58 O 0.20508 0.73728 0.13936 0.0
O59 O 0.20786 0.72529 0.04079 0.0
O60 O 0.20965 0.8114 1.00324 0.0
C61 C 0.20633 0.71227 0.09679 0.0
H62 H 0.16338 0.81819 0.01338 0.0
H63 H 0.25176 0.77321 0.16614 0.0
H64 H 0.22163 0.88481 0.21476 0.0
H65 H 0.18953 0.8196 0.27143 0.0
Co66 Co 0.08103 0.78126 0.17748 0.0
C67 C 0.10842 0.76097 0.1615 0.0
C68 C 0.1056 0.80233 0.23196 0.0
C69 C 0.11826 0.79601 0.22589 0.0
N70 N 0.09929 0.78073 0.19114 0.0
N71 N 0.12006 0.77038 0.18109 0.0
H72 H 0.10668 0.74106 0.12471 0.0
H73 H 0.1015 0.82263 0.26289 0.0
C74 C 0.07044 0.84085 0.26801 0.0
O75 O 0.05997 0.84235 0.23655 0.0
N76 N 0.0629 0.78011 0.16599 0.0
C77 C 0.05624 0.78655 0.11437 0.0
C78 C 0.04368 0.78141 0.12718 0.0
C79 C 0.05434 0.76915 0.20841 0.0
N80 N 0.04247 0.77074 0.18658 0.0
C81 C 0.09086 0.81092 0.06858 0.0
C82 C 0.07582 0.87336 0.05359 0.0
C83 C 0.08343 0.86143 1.00449 0.0
C84 C 0.0912 0.83034 0.01361 0.0
C85 C 0.0759 0.85297 0.10939 0.0
N86 N 0.0831 0.82115 0.11567 0.0
H87 H 0.09617 0.78533 0.07019 0.0
H88 H 0.06959 0.86162 0.14494 0.0
H89 H 0.06019 0.79416 0.07027 0.0
H90 H 0.05679 0.76186 0.25525 0.0
O91 O 0.08223 0.74085 0.11895 0.0
O92 O 0.07978 0.7317 0.21848 0.0
O93 O 0.07935 0.81867 0.25068 0.0
C94 C 0.08085 0.71712 0.16328 0.0
H95 H 0.12562 0.81102 0.24991 0.0
H96 H 0.03605 0.78491 0.09486 0.0
H97 H 0.06967 0.8975 0.04843 0.0
H98 H 0.09701 0.81926 0.97692 0.0
Co99 Co 0.20578 0.49072 0.18922 0.0
C100 C 0.1782 0.51126 0.18064 0.0
C101 C 0.18153 0.4629 0.23761 0.0
C102 C 0.16881 0.46852 0.23333 0.0
N103 N 0.18756 0.48948 0.20437 0.0
N104 N 0.16667 0.49854 0.19683 0.0
H105 H 0.17971 0.53405 0.14832 0.0
H106 H 0.18591 0.43927 0.26043 0.0
C107 C 0.21645 0.43185 0.28102 0.0
O108 O 0.22641 0.42735 0.24665 0.0
N109 N 0.22393 0.49372 0.17759 0.0
C110 C 0.23037 0.49389 0.12426 0.0
C111 C 0.24292 0.4992 0.13695 0.0
C112 C 0.23261 0.50119 0.2215 0.0
N113 N 0.24439 0.5035 0.19834 0.0
C114 C 0.19461 0.45438 0.08795 0.0
C115 C 0.21384 0.40646 0.05667 0.0
C116 C 0.20444 0.41406 0.01315 0.0
C117 C 0.19452 0.43718 0.03084 0.0
C118 C 0.21346 0.42409 0.11477 0.0
N119 N 0.20414 0.44924 0.12927 0.0
H120 H 0.18764 0.47564 0.09431 0.0
H121 H 0.2214 0.42027 0.14418 0.0
H122 H 0.22624 0.49051 0.07914 0.0
H123 H 0.23029 0.50467 0.26963 0.0
O124 O 0.20389 0.52912 0.12766 0.0
O125 O 0.20654 0.54139 0.22634 0.0
O126 O 0.20788 0.4556 0.26513 0.0
C127 C 0.20522 0.55424 0.17008 0.0
H128 H 0.16165 0.44999 0.25153 0.0
H129 H 0.25038 0.49938 0.10328 0.0
H130 H 0.2217 0.38848 0.04504 0.0
H131 H 0.18718 0.44489 0.99877 0.0
Co132 Co 0.95579 0.53053 0.93632 0.0
C133 C 0.9283 0.50928 0.92818 0.0
C134 C 0.93147 0.55817 0.98416 0.0
C135 C 0.91877 0.55217 0.98 0.0
N136 N 0.93758 0.53148 0.95148 0.0
N137 N 0.91674 0.52181 0.94413 0.0
H138 H 0.92989 0.48625 0.89641 0.0
H139 H 0.93578 0.58205 1.00653 0.0
C140 C 0.96639 0.58976 0.02764 0.0
O141 O 0.97637 0.59414 0.99337 0.0
N142 N 0.97393 0.52789 0.92458 0.0
C143 C 0.98039 0.52826 0.87132 0.0
C144 C 0.99296 0.52335 0.8841 0.0
C145 C 0.98261 0.52046 0.96847 0.0
N146 N 0.99441 0.51876 0.94545 0.0
C147 C 0.94459 0.5657 0.83415 0.0
C148 C 0.96351 0.61481 0.80336 0.0
C149 C 0.95426 0.60639 0.75943 0.0
C150 C 0.94449 0.58268 0.77684 0.0
C151 C 0.96314 0.59737 0.86163 0.0
N152 N 0.954 0.57163 0.87584 0.0
H153 H 0.93776 0.54401 0.84054 0.0
H154 H 0.97096 0.60189 0.89148 0.0
H155 H 0.97627 0.53179 0.8262 0.0
H156 H 0.98028 0.5167 0.01652 0.0
O157 O 0.95401 0.49174 0.87536 0.0
O158 O 0.9567 0.4801 0.97423 0.0
O159 O 0.95782 0.56605 0.01177 0.0
C160 C 0.9554 0.4669 0.91818 0.0
H161 H 0.91154 0.57064 0.99787 0.0
H162 H 1.00044 0.52369 0.85054 0.0
H163 H 0.97124 0.63331 0.79197 0.0
H164 H 0.93727 0.57438 0.74448 0.0
Co165 Co 0.83085 0.2364 0.93015 0.0
C166 C 0.85825 0.2578 0.91795 0.0
C167 C 0.85542 0.2111 0.97897 0.0
C168 C 0.86808 0.21747 0.97372 0.0
N169 N 0.84912 0.23621 0.94388 0.0
N170 N 0.8699 0.2465 0.93479 0.0
H171 H 0.8565 0.27985 0.88455 0.0
H172 H 0.8513 0.18806 1.00424 0.0
C173 C 0.82033 0.17689 0.02091 0.0
O174 O 0.80997 0.17472 0.98874 0.0
N175 N 0.81271 0.23813 0.91895 0.0
C176 C 0.80607 0.23395 0.86666 0.0
C177 C 0.79352 0.23921 0.87971 0.0
C178 C 0.80416 0.24785 0.96221 0.0
N179 N 0.79228 0.24759 0.94007 0.0
C180 C 0.84126 0.20514 0.82383 0.0
C181 C 0.8249 0.14649 0.80324 0.0
C182 C 0.83324 0.15718 0.75632 0.0
C183 C 0.84166 0.18627 0.76833 0.0
C184 C 0.82491 0.16623 0.85962 0.0
N185 N 0.83282 0.19618 0.86877 0.0
H186 H 0.84706 0.2297 0.82726 0.0
H187 H 0.81794 0.15896 0.89288 0.0
H188 H 0.81003 0.22764 0.82204 0.0
H189 H 0.80662 0.25426 0.00936 0.0
O190 O 0.83221 0.27624 0.87069 0.0
O191 O 0.82976 0.28629 0.97005 0.0
O192 O 0.82912 0.19961 1.00413 0.0
C193 C 0.83085 0.30037 0.9145 0.0
H194 H 0.87543 0.20018 0.99339 0.0
H195 H 0.78589 0.23636 0.84723 0.0
H196 H 0.8182 0.124 0.79582 0.0
H197 H 0.84805 0.1965 0.73334 0.0
Co198 Co 0.957 0.24464 0.83018 0.0
C199 C 0.92935 0.26319 0.84173 0.0
C200 C 0.93285 0.21902 0.7767 0.0
C201 C 0.92011 0.22399 0.7817 0.0
N202 N 0.93879 0.24335 0.81464 0.0
N203 N 0.91788 0.25136 0.82319 0.0
H204 H 0.93077 0.28427 0.8771 0.0
H205 H 0.93728 0.19742 0.74938 0.0
C206 C 0.96835 0.18676 0.73867 0.0
O207 O 0.97862 0.18457 0.77147 0.0
N208 N 0.97507 0.24745 0.84337 0.0
C209 C 0.98149 0.24315 0.89634 0.0
C210 C 0.9941 0.24792 0.88451 0.0
C211 C 0.98382 0.25693 0.80097 0.0
N212 N 0.9956 0.25607 0.82423 0.0
C213 C 0.94661 0.21147 0.935 0.0
C214 C 0.96354 0.15416 0.95479 0.0
C215 C 0.95516 0.16407 1.00197 0.0
C216 C 0.94641 0.19235 0.99027 0.0
C217 C 0.96331 0.17412 0.89869 0.0
N218 N 0.95516 0.20356 0.89007 0.0
H219 H 0.9406 0.23557 0.93205 0.0
H220 H 0.97034 0.16756 0.86542 0.0
H221 H 0.97733 0.23666 0.94046 0.0
H222 H 0.9816 0.26298 0.75338 0.0
O223 O 0.95507 0.28372 0.89059 0.0
O224 O 0.95782 0.29506 0.79181 0.0
O225 O 0.95935 0.20878 0.75543 0.0
C226 C 0.95635 0.30844 0.84762 0.0
H227 H 0.91301 0.2067 0.75999 0.0
H228 H 1.00161 0.24446 0.91752 0.0
H229 H 0.97047 0.13224 0.96189 0.0
H230 H 0.93997 0.202 0.02545 0.0
Co231 Co 0.82962 0.52372 0.83421 0.0
C232 C 0.85719 0.50585 0.85216 0.0
C233 C 0.85406 0.54406 0.77744 0.0
C234 C 0.86676 0.53898 0.78425 0.0
N235 N 0.8479 0.52378 0.82056 0.0
N236 N 0.86876 0.51535 0.83172 0.0
H237 H 0.85561 0.48697 0.89051 0.0
H238 H 0.84981 0.56258 0.74406 0.0
C239 C 0.81882 0.58236 0.74254 0.0
O240 O 0.80836 0.58425 0.77399 0.0
N241 N 0.8115 0.52212 0.8458 0.0
C242 C 0.80489 0.52882 0.89749 0.0
C243 C 0.7923 0.52447 0.88471 0.0
C244 C 0.80285 0.51188 0.80328 0.0
N245 N 0.79099 0.51429 0.82513 0.0
C246 C 0.8391 0.55425 0.94323 0.0
C247 C 0.82435 0.61759 0.95471 0.0
C248 C 0.8318 0.60607 1.00469 0.0
C249 C 0.8394 0.57446 0.99737 0.0
C250 C 0.82447 0.59636 0.89976 0.0
N251 N 0.83154 0.56416 0.89519 0.0
H252 H 0.8443 0.52847 0.94304 0.0
H253 H 0.81834 0.60488 0.86342 0.0
H254 H 0.8089 0.53669 0.94136 0.0
H255 H 0.80523 0.50424 0.75651 0.0
O256 O 0.831 0.48372 0.89341 0.0
O257 O 0.8286 0.4738 0.79409 0.0
O258 O 0.82778 0.56052 0.76041 0.0
C259 C 0.8298 0.45963 0.84951 0.0
H260 H 0.874 0.55346 0.75859 0.0
H261 H 0.78469 0.52961 0.91652 0.0
H262 H 0.81833 0.64209 0.95851 0.0
H263 H 0.84506 0.56364 0.03487 0.0
Co264 Co 0.08232 0.99494 0.57941 0.0
C265 C 0.11004 0.01343 0.58955 0.0
C266 C 0.10642 0.96637 0.53029 0.0
C267 C 0.11917 0.97121 0.53461 0.0
N268 N 0.10055 0.9927 0.56479 0.0
N269 N 0.12149 1.00045 0.57245 0.0
H270 H 0.10868 0.03594 0.62255 0.0
H271 H 0.10192 0.94346 0.50626 0.0
C272 C 0.07111 0.93685 0.48782 0.0
O273 O 0.06087 0.93458 0.52086 0.0
N274 N 0.06421 0.99862 0.5911 0.0
C275 C 0.05762 0.99592 0.6438 0.0
C276 C 0.04508 1.00138 0.63085 0.0
C277 C 0.05563 0.00788 0.54761 0.0
N278 N 0.04378 0.00848 0.57006 0.0
C279 C 0.09273 0.96087 0.68363 0.0
C280 C 0.07487 0.90684 0.70733 0.0
C281 C 0.08367 0.91574 0.75322 0.0
C282 C 0.09286 0.94235 0.73954 0.0
C283 C 0.07518 0.92611 0.65056 0.0
N284 N 0.08383 0.9539 0.63983 0.0
H285 H 0.09912 0.98399 0.67938 0.0
H286 H 0.06778 0.92064 0.61866 0.0
H287 H 0.06162 0.9902 0.68858 0.0
H288 H 0.05805 0.0131 0.50002 0.0
O289 O 0.0843 0.03389 0.64007 0.0
O290 O 0.08179 0.04548 0.54122 0.0
O291 O 0.08004 0.95918 0.50435 0.0
C292 C 0.08314 0.05874 0.59718 0.0
H293 H 0.12622 0.9527 0.51523 0.0
H294 H 0.03749 0.99934 0.66367 0.0
H295 H 0.06758 0.88628 0.71595 0.0
H296 H 0.09965 0.95126 0.77365 0.0
Co297 Co 0.20809 0.27683 0.59191 0.0
C298 C 0.18048 0.26924 0.6218 0.0
C299 C 0.18421 0.27631 0.52568 0.0
C300 C 0.17146 0.27287 0.53367 0.0
N301 N 0.18993 0.27447 0.58089 0.0
N302 N 0.16908 0.26851 0.59419 0.0
H303 H 0.18177 0.26527 0.67048 0.0
H304 H 0.18898 0.27986 0.48219 0.0
C305 C 0.21741 0.33892 0.50409 0.0
O306 O 0.22751 0.3424 0.53806 0.0
N307 N 0.22624 0.27776 0.60067 0.0
C308 C 0.23311 0.28718 0.65037 0.0
C309 C 0.24564 0.28346 0.63591 0.0
C310 C 0.23469 0.26729 0.55743 0.0
N311 N 0.24666 0.27117 0.57725 0.0
C312 C 0.20235 0.30073 0.71269 0.0
C313 C 0.20921 0.3755 0.70692 0.0
C314 C 0.20566 0.35978 0.76362 0.0
C315 C 0.20207 0.32221 0.76547 0.0
C316 C 0.20918 0.35263 0.6536 0.0
N317 N 0.20608 0.31511 0.6571 0.0
H318 H 0.19966 0.27185 0.71869 0.0
H319 H 0.21172 0.36545 0.61074 0.0
H320 H 0.22934 0.29613 0.69417 0.0
H321 H 0.23207 0.25853 0.51151 0.0
O322 O 0.20777 0.23454 0.64668 0.0
O323 O 0.20959 0.22814 0.54688 0.0
O324 O 0.20873 0.31567 0.52042 0.0
C325 C 0.20897 0.21204 0.60102 0.0
H326 H 0.16448 0.27439 0.49763 0.0
H327 H 0.25339 0.28915 0.66664 0.0
H328 H 0.21188 0.40493 0.70382 0.0
H329 H 0.19925 0.30899 0.80831 0.0
Co330 Co 0.08081 0.28097 0.68601 0.0
C331 C 0.10876 0.26457 0.68211 0.0
C332 C 0.10419 0.31558 0.73019 0.0
C333 C 0.11698 0.31247 0.7274 0.0
N334 N 0.09889 0.28564 0.70195 0.0
N335 N 0.11993 0.28069 0.6966 0.0
H336 H 0.10784 0.23942 0.65425 0.0
H337 H 0.0992 0.33974 0.74797 0.0
C338 C 0.06907 0.33883 0.77634 0.0
O339 O 0.05894 0.34112 0.7425 0.0
N340 N 0.0628 0.27547 0.6731 0.0
C341 C 0.0564 0.27648 0.61967 0.0
C342 C 0.04383 0.27114 0.6319 0.0
C343 C 0.0541 0.26726 0.71647 0.0
N344 N 0.04234 0.2658 0.69305 0.0
C345 C 0.09129 0.31596 0.58318 0.0
C346 C 0.07259 0.3666 0.55516 0.0
C347 C 0.08178 0.35855 0.51072 0.0
C348 C 0.09136 0.33365 0.52658 0.0
C349 C 0.0729 0.34803 0.61249 0.0
N350 N 0.08201 0.32192 0.62539 0.0
H351 H 0.0981 0.294 0.58924 0.0
H352 H 0.06516 0.3524 0.64288 0.0
H353 H 0.06055 0.28126 0.57493 0.0
H354 H 0.05637 0.26354 0.76463 0.0
O355 O 0.08345 0.2422 0.62565 0.0
O356 O 0.08077 0.23046 0.72434 0.0
O357 O 0.07802 0.31637 0.76078 0.0
C358 C 0.08241 0.21728 0.6685 0.0
H359 H 0.12361 0.33363 0.74267 0.0
H360 H 0.03636 0.27223 0.59831 0.0
H361 H 0.06498 0.38583 0.54493 0.0
H362 H 0.09847 0.32527 0.49373 0.0
Co363 Co 0.2089 0.98823 0.67571 0.0
C364 C 0.18144 0.00911 0.66158 0.0
C365 C 0.18435 0.96632 0.72965 0.0
C366 C 0.17169 0.97279 0.72437 0.0
N367 N 0.19062 0.98877 0.68992 0.0
N368 N 0.16982 0.99933 0.68106 0.0
H369 H 0.18313 0.0295 0.62544 0.0
H370 H 0.18848 0.94522 0.75905 0.0
C371 C 0.21947 0.92881 0.76663 0.0
O372 O 0.22989 0.92667 0.73495 0.0
N373 N 0.22704 0.98936 0.66393 0.0
C374 C 0.2336 0.98424 0.61161 0.0
C375 C 0.24619 0.98929 0.62407 0.0
C376 C 0.2357 0.99931 0.7066 0.0
N377 N 0.24754 0.99837 0.68409 0.0
C378 C 0.19863 0.95758 0.5687 0.0
C379 C 0.21418 0.8965 0.55157 0.0
C380 C 0.20616 0.90774 0.50361 0.0
C381 C 0.19815 0.93811 0.51383 0.0
C382 C 0.21425 0.91691 0.60729 0.0
N383 N 0.20676 0.94801 0.61466 0.0
H384 H 0.19315 0.98284 0.57089 0.0
H385 H 0.22093 0.909 0.64166 0.0
H386 H 0.22956 0.97739 0.56737 0.0
H387 H 0.23335 1.00626 0.7537 0.0
O388 O 0.20759 0.02822 0.61641 0.0
O389 O 0.21018 0.03789 0.71583 0.0
O390 O 0.21064 0.95131 0.74939 0.0
C391 C 0.20901 0.05215 0.66043 0.0
H392 H 0.16437 0.95725 0.74772 0.0
H393 H 0.25378 0.98574 0.59155 0.0
H394 H 0.22056 0.873 0.54549 0.0
H395 H 0.19205 0.94879 0.47794 0.0
Co396 Co 0.95879 0.03246 0.4273 0.0
C397 C 0.93139 0.01031 0.41724 0.0
C398 C 0.9343 0.0577 0.47676 0.0
C399 C 0.92164 0.05105 0.47252 0.0
N400 N 0.94056 0.03231 0.44205 0.0
N401 N 0.91977 0.0216 0.43453 0.0
H402 H 0.93309 0.98803 0.3842 0.0
H403 H 0.93845 0.08114 0.50094 0.0
C404 C 0.9693 0.092 0.51801 0.0
O405 O 0.97958 0.09482 0.48537 0.0
N406 N 0.97693 0.0311 0.41533 0.0
C407 C 0.98348 0.03513 0.36273 0.0
C408 C 0.99607 0.03052 0.37546 0.0
C409 C 0.9856 0.02207 0.45848 0.0
N410 N 0.99744 0.02271 0.43596 0.0
C411 C 0.94797 0.06419 0.32249 0.0
C412 C 0.96448 0.12223 0.3003 0.0
C413 C 0.95596 0.11168 0.25408 0.0
C414 C 0.94745 0.08295 0.26694 0.0
C415 C 0.9646 0.10258 0.3567 0.0
N416 N 0.95662 0.0729 0.3666 0.0
H417 H 0.94212 0.03977 0.32641 0.0
H418 H 0.97175 0.10957 0.38917 0.0
H419 H 0.97941 0.04101 0.31815 0.0
H420 H 0.98325 0.01598 0.50589 0.0
O421 O 0.95736 0.99289 0.36736 0.0
O422 O 0.96008 0.98255 0.46655 0.0
O423 O 0.96059 0.0689 0.50156 0.0
C424 C 0.95886 0.96866 0.41092 0.0
H425 H 0.91431 0.06847 0.4921 0.0
H426 H 1.00364 0.03351 0.34273 0.0
H427 H 0.97125 0.14445 0.29222 0.0
H428 H 0.94094 0.07275 0.2325 0.0
Co429 Co 0.83089 0.73607 0.43303 0.0
C430 C 0.85884 0.75253 0.42951 0.0
C431 C 0.85429 0.70076 0.47543 0.0
C432 C 0.86709 0.7039 0.47266 0.0
N433 N 0.84898 0.73115 0.44851 0.0
N434 N 0.87002 0.73617 0.44323 0.0
H435 H 0.8579 0.77816 0.40283 0.0
H436 H 0.8493 0.67636 0.4923 0.0
C437 C 0.81925 0.67751 0.52229 0.0
O438 O 0.80915 0.67526 0.48828 0.0
N439 N 0.81286 0.74177 0.42071 0.0
C440 C 0.80642 0.74176 0.36736 0.0
C441 C 0.79388 0.74734 0.38004 0.0
C442 C 0.80422 0.74954 0.46456 0.0
N443 N 0.79245 0.75178 0.4414 0.0
C444 C 0.84133 0.70172 0.32947 0.0
C445 C 0.82255 0.65172 0.30016 0.0
C446 C 0.83179 0.65984 0.25605 0.0
C447 C 0.84141 0.68446 0.27252 0.0
C448 C 0.82285 0.66989 0.35782 0.0
N449 N 0.83202 0.69562 0.37148 0.0
H450 H 0.84818 0.7235 0.33605 0.0
H451 H 0.81506 0.66555 0.38788 0.0
H452 H 0.81052 0.7376 0.32236 0.0
H453 H 0.80652 0.75253 0.51281 0.0
O454 O 0.83348 0.77527 0.37342 0.0
O455 O 0.83088 0.78624 0.47243 0.0
O456 O 0.82816 0.70017 0.50717 0.0
C457 C 0.83246 0.79984 0.41682 0.0
H458 H 0.87372 0.68249 0.48705 0.0
H459 H 0.78636 0.7471 0.3466 0.0
H460 H 0.8149 0.63274 0.28945 0.0
H461 H 0.84855 0.69293 0.23995 0.0
Co462 Co 0.95827 0.74429 0.3393 0.0
C463 C 0.93063 0.75028 0.36996 0.0
C464 C 0.93442 0.74707 0.27334 0.0
C465 C 0.92167 0.74994 0.28151 0.0
N466 N 0.94011 0.74692 0.32869 0.0
N467 N 0.91924 0.7519 0.34233 0.0
H468 H 0.9319 0.75217 0.419 0.0
H469 H 0.93924 0.74518 0.22968 0.0
C470 C 0.96739 0.68215 0.25124 0.0
O471 O 0.97741 0.67801 0.28568 0.0
N472 N 0.97645 0.74306 0.34761 0.0
C473 C 0.98331 0.73384 0.39741 0.0
C474 C 0.99584 0.73707 0.38275 0.0
C475 C 0.98491 0.75289 0.30402 0.0
N476 N 0.99689 0.7488 0.32377 0.0
C477 C 0.95283 0.72014 0.46037 0.0
C478 C 0.95903 0.64489 0.45291 0.0
C479 C 0.95583 0.66057 0.51012 0.0
C480 C 0.95256 0.69838 0.51286 0.0
C481 C 0.95903 0.66807 0.39995 0.0
N482 N 0.95628 0.70583 0.40427 0.0
H483 H 0.95025 0.7491 0.46691 0.0
H484 H 0.96123 0.65524 0.35665 0.0
H485 H 0.97954 0.72535 0.44144 0.0
H486 H 0.98229 0.76137 0.25796 0.0
O487 O 0.95804 0.78641 0.39442 0.0
O488 O 0.95979 0.79318 0.29469 0.0
O489 O 0.9588 0.70575 0.26741 0.0
C490 C 0.95921 0.80909 0.34899 0.0
H491 H 0.91471 0.74967 0.24527 0.0
H492 H 1.00357 0.73143 0.41363 0.0
H493 H 0.9614 0.61524 0.44912 0.0
H494 H 0.94993 0.71148 0.5561 0.0
Co495 Co 0.83235 0.02288 0.33232 0.0
C496 C 0.86003 1.00465 0.34542 0.0
C497 C 0.85655 0.04747 0.27801 0.0
C498 C 0.86928 0.04241 0.28302 0.0
N499 N 0.85059 0.02409 0.31747 0.0
N500 N 0.87151 0.01587 0.32594 0.0
H501 H 0.85861 0.98405 0.38153 0.0
H502 H 0.85214 0.06837 0.24917 0.0
C503 C 0.82111 0.08117 0.24092 0.0
O504 O 0.81077 0.08303 0.27328 0.0
N505 N 0.81425 0.02015 0.34466 0.0
C506 C 0.80769 0.02507 0.39701 0.0
C507 C 0.7951 0.02033 0.38438 0.0
C508 C 0.8056 0.01033 0.30189 0.0
N509 N 0.79375 0.01153 0.32423 0.0
C510 C 0.84246 0.05519 0.43865 0.0
C511 C 0.82583 0.11345 0.45711 0.0
C512 C 0.834 0.10309 0.50499 0.0
C513 C 0.84259 0.07428 0.494 0.0
C514 C 0.82614 0.09353 0.40093 0.0
N515 N 0.83413 0.06363 0.39295 0.0
H516 H 0.84836 0.03083 0.43603 0.0
H517 H 0.8193 0.10061 0.36689 0.0
H518 H 0.81172 0.03197 0.44125 0.0
H519 H 0.80798 1.00377 0.25468 0.0
O520 O 0.83415 0.98337 0.39222 0.0
O521 O 0.83154 0.97263 0.29323 0.0
O522 O 0.83012 0.05921 0.25795 0.0
C523 C 0.8329 0.95889 0.34887 0.0
H524 H 0.87639 0.05898 0.25996 0.0
H525 H 0.78753 0.02421 0.41685 0.0
H526 H 0.81903 0.13581 0.46364 0.0
H527 H 0.84888 0.06435 0.52968 0.0
Co528 Co 0.57962 0.48265 0.58672 0.0
C529 C 0.60703 0.50457 0.59784 0.0
C530 C 0.60414 0.45808 0.53647 0.0
C531 C 0.6168 0.46468 0.54101 0.0
N532 N 0.59787 0.48291 0.5722 0.0
N533 N 0.61866 0.49356 0.58015 0.0
H534 H 0.60532 0.52642 0.63162 0.0
H535 H 0.60001 0.43506 0.51121 0.0
C536 C 0.56912 0.42339 0.49551 0.0
O537 O 0.5588 0.42067 0.52783 0.0
N538 N 0.56148 0.48394 0.59851 0.0
C539 C 0.5549 0.47935 0.65089 0.0
C540 C 0.54231 0.48402 0.63807 0.0
C541 C 0.55283 0.49334 0.55545 0.0
N542 N 0.54098 0.49241 0.57775 0.0
C543 C 0.59033 0.45084 0.69174 0.0
C544 C 0.57402 0.39208 0.71241 0.0
C545 C 0.58245 0.40262 0.75905 0.0
C546 C 0.59086 0.43173 0.74696 0.0
C547 C 0.57391 0.41207 0.65631 0.0
N548 N 0.58178 0.44208 0.64719 0.0
H549 H 0.5961 0.47545 0.68837 0.0
H550 H 0.56685 0.40498 0.62339 0.0
H551 H 0.55893 0.47304 0.69538 0.0
H552 H 0.55522 0.49986 0.50824 0.0
O553 O 0.58101 0.52213 0.64686 0.0
O554 O 0.57834 0.53264 0.54768 0.0
O555 O 0.57785 0.44631 0.51231 0.0
C556 C 0.57953 0.54644 0.60339 0.0
H557 H 0.62413 0.44759 0.5207 0.0
H558 H 0.53472 0.48065 0.67061 0.0
H559 H 0.56733 0.36958 0.71992 0.0
H560 H 0.59729 0.4419 0.78178 0.0
Co561 Co 0.70745 0.77764 0.58234 0.0
C562 C 0.67949 0.76123 0.58614 0.0
C563 C 0.68404 0.81282 0.53969 0.0
C564 C 0.67124 0.8097 0.54253 0.0
N565 N 0.68936 0.78253 0.56688 0.0
N566 N 0.66831 0.77754 0.5723 0.0
H567 H 0.68044 0.73571 0.61309 0.0
H568 H 0.68902 0.83717 0.52256 0.0
C569 C 0.7191 0.83621 0.49312 0.0
O570 O 0.72921 0.83839 0.52707 0.0
N571 N 0.72547 0.77196 0.59468 0.0
C572 C 0.73191 0.77206 0.64803 0.0
C573 C 0.74446 0.76646 0.63536 0.0
C574 C 0.73411 0.76413 0.55085 0.0
N575 N 0.74588 0.76193 0.57401 0.0
C576 C 0.69702 0.81185 0.68605 0.0
C577 C 0.71575 0.86211 0.71512 0.0
C578 C 0.70653 0.85389 0.75932 0.0
C579 C 0.69694 0.82914 0.74298 0.0
C580 C 0.71545 0.8439 0.65748 0.0
N581 N 0.70631 0.81805 0.64395 0.0
H582 H 0.6902 0.78999 0.67955 0.0
H583 H 0.72321 0.84834 0.62731 0.0
H584 H 0.72782 0.77629 0.69301 0.0
H585 H 0.73181 0.76107 0.50261 0.0
O586 O 0.70486 0.73838 0.64186 0.0
O587 O 0.70746 0.72751 0.54283 0.0
O588 O 0.71017 0.81359 0.50827 0.0
C589 C 0.70589 0.71385 0.59841 0.0
H590 H 0.66461 0.83105 0.52798 0.0
H591 H 0.75198 0.76677 0.66878 0.0
H592 H 0.72337 0.88119 0.72573 0.0
H593 H 0.68982 0.8206 0.77562 0.0
Co594 Co 0.58009 0.77065 0.67634 0.0
C595 C 0.60773 0.76412 0.64609 0.0
C596 C 0.60395 0.76861 0.74257 0.0
C597 C 0.6167 0.76558 0.7345 0.0
N598 N 0.59825 0.76809 0.68723 0.0
N599 N 0.61913 0.76282 0.67376 0.0
H600 H 0.60647 0.76151 0.59714 0.0
H601 H 0.59914 0.77104 0.78618 0.0
C602 C 0.57087 0.83245 0.76491 0.0
O603 O 0.56082 0.83651 0.73069 0.0
N604 N 0.56193 0.77181 0.66769 0.0
C605 C 0.55512 0.78064 0.6175 0.0
C606 C 0.54257 0.777 0.63166 0.0
C607 C 0.55343 0.76194 0.71107 0.0
N608 N 0.54149 0.7655 0.6907 0.0
C609 C 0.58571 0.79517 0.5557 0.0
C610 C 0.57917 0.87018 0.56316 0.0
C611 C 0.58255 0.8547 0.50604 0.0
C612 C 0.58598 0.81702 0.50331 0.0
C613 C 0.57919 0.84693 0.61603 0.0
N614 N 0.58211 0.80929 0.6117 0.0
H615 H 0.58834 0.76628 0.54911 0.0
H616 H 0.57682 0.85959 0.65925 0.0
H617 H 0.55893 0.78927 0.57364 0.0
H618 H 0.55598 0.75294 0.75699 0.0
O619 O 0.58039 0.72868 0.62092 0.0
O620 O 0.57858 0.72166 0.72058 0.0
O621 O 0.5795 0.80904 0.74845 0.0
C622 C 0.57919 0.70589 0.66619 0.0
H623 H 0.62366 0.76629 0.77071 0.0
H624 H 0.53483 0.78319 0.60106 0.0
H625 H 0.57666 0.89971 0.56692 0.0
H626 H 0.58872 0.80405 0.46012 0.0
Co627 Co 0.70606 0.49075 0.6824 0.0
C628 C 0.6784 0.50923 0.67005 0.0
C629 C 0.68187 0.46524 0.73544 0.0
C630 C 0.66914 0.47036 0.73061 0.0
N631 N 0.68783 0.48936 0.69721 0.0
N632 N 0.66691 0.49765 0.68895 0.0
H633 H 0.67982 0.53032 0.63471 0.0
H634 H 0.68628 0.44374 0.76308 0.0
C635 C 0.71732 0.43239 0.77357 0.0
O636 O 0.72763 0.43052 0.74102 0.0
N637 N 0.72416 0.49364 0.67012 0.0
C638 C 0.73073 0.489 0.61772 0.0
C639 C 0.74331 0.49377 0.63042 0.0
C640 C 0.7328 0.50333 0.71302 0.0
N641 N 0.74465 0.5023 0.69069 0.0
C642 C 0.69589 0.45841 0.57626 0.0
C643 C 0.7127 0.40071 0.55679 0.0
C644 C 0.70445 0.41101 0.50921 0.0
C645 C 0.69577 0.43952 0.52071 0.0
C646 C 0.71239 0.42043 0.61315 0.0
N647 N 0.70431 0.45006 0.62164 0.0
H648 H 0.68991 0.48259 0.57929 0.0
H649 H 0.7193 0.41347 0.64689 0.0
H650 H 0.7267 0.48229 0.57338 0.0
H651 H 0.73041 0.50968 0.76029 0.0
O652 O 0.70423 0.53029 0.62257 0.0
O653 O 0.70684 0.54097 0.72159 0.0
O654 O 0.70831 0.4544 0.75673 0.0
C655 C 0.70547 0.55474 0.66597 0.0
H656 H 0.66203 0.45332 0.75276 0.0
H657 H 0.75089 0.49009 0.59793 0.0
H658 H 0.71956 0.37858 0.5499 0.0
H659 H 0.68942 0.44941 0.48529 0.0
Co660 Co 0.45614 0.52077 0.43398 0.0
C661 C 0.42843 0.50264 0.42137 0.0
C662 C 0.43194 0.54728 0.48551 0.0
C663 C 0.4192 0.54244 0.4805 0.0
N664 N 0.43788 0.52254 0.44826 0.0
N665 N 0.41695 0.51474 0.43963 0.0
H666 H 0.42984 0.48123 0.38653 0.0
H667 H 0.43636 0.56908 0.5124 0.0
C668 C 0.46734 0.57895 0.52553 0.0
O669 O 0.47767 0.5807 0.49318 0.0
N670 N 0.47427 0.51751 0.42235 0.0
C671 C 0.48089 0.52152 0.37001 0.0
C672 C 0.49344 0.5161 0.38296 0.0
C673 C 0.48283 0.50761 0.46554 0.0
N674 N 0.4947 0.50778 0.44335 0.0
C675 C 0.44601 0.55367 0.3282 0.0
C676 C 0.46306 0.61057 0.30814 0.0
C677 C 0.45464 0.60084 0.26099 0.0
C678 C 0.44586 0.57269 0.27278 0.0
C679 C 0.46278 0.59074 0.36443 0.0
N680 N 0.45454 0.56158 0.37329 0.0
H681 H 0.43995 0.52971 0.33128 0.0
H682 H 0.46982 0.5972 0.39774 0.0
H683 H 0.47693 0.52811 0.32548 0.0
H684 H 0.48038 0.5015 0.51282 0.0
O685 O 0.45431 0.48144 0.37382 0.0
O686 O 0.45679 0.47041 0.47283 0.0
O687 O 0.45835 0.55695 0.50857 0.0
C688 C 0.45549 0.45683 0.41704 0.0
H689 H 0.41211 0.55994 0.50186 0.0
H690 H 0.50106 0.51904 0.35048 0.0
H691 H 0.47003 0.63234 0.30095 0.0
H692 H 0.43939 0.56318 0.23762 0.0
Co693 Co 0.33053 0.24185 0.42411 0.0
C694 C 0.35818 0.24843 0.3943 0.0
C695 C 0.35435 0.24295 0.4906 0.0
C696 C 0.36711 0.24598 0.48272 0.0
N697 N 0.34868 0.24407 0.43523 0.0
N698 N 0.36956 0.24934 0.42209 0.0
H699 H 0.35694 0.25161 0.34543 0.0
H700 H 0.34953 0.24014 0.53411 0.0
C701 C 0.32115 0.17994 0.5121 0.0
O702 O 0.31106 0.17647 0.47806 0.0
N703 N 0.31237 0.24107 0.41532 0.0
C704 C 0.3055 0.23169 0.3656 0.0
C705 C 0.29297 0.23548 0.38005 0.0
C706 C 0.30393 0.25158 0.45854 0.0
N707 N 0.29196 0.24777 0.43871 0.0
C708 C 0.33622 0.21779 0.30334 0.0
C709 C 0.32925 0.14312 0.30931 0.0
C710 C 0.33277 0.15878 0.25252 0.0
C711 C 0.33642 0.19629 0.25057 0.0
C712 C 0.32935 0.166 0.36261 0.0
N713 N 0.3325 0.20348 0.35901 0.0
H714 H 0.33896 0.24662 0.29728 0.0
H715 H 0.32683 0.15322 0.40553 0.0
H716 H 0.30926 0.22271 0.32181 0.0
H717 H 0.30655 0.26032 0.50447 0.0
O718 O 0.33089 0.28405 0.36919 0.0
O719 O 0.32906 0.29064 0.46894 0.0
O720 O 0.32985 0.20312 0.49575 0.0
C721 C 0.32969 0.30664 0.41472 0.0
H722 H 0.37406 0.24485 0.51896 0.0
H723 H 0.28522 0.22983 0.34931 0.0
H724 H 0.32655 0.11371 0.31249 0.0
H725 H 0.33924 0.20943 0.20766 0.0
Co726 Co 0.45785 0.23422 0.33096 0.0
C727 C 0.42992 0.25092 0.33481 0.0
C728 C 0.43443 0.19949 0.28775 0.0
C729 C 0.42164 0.20277 0.29055 0.0
N730 N 0.43977 0.22959 0.31534 0.0
N731 N 0.41873 0.23482 0.32069 0.0
H732 H 0.43088 0.2763 0.36209 0.0
H733 H 0.43939 0.17516 0.27039 0.0
C734 C 0.4695 0.17596 0.24108 0.0
O735 O 0.47964 0.17375 0.27483 0.0
N736 N 0.47587 0.23962 0.34352 0.0
C737 C 0.48232 0.23863 0.39681 0.0
C738 C 0.49488 0.24392 0.38425 0.0
C739 C 0.48452 0.24774 0.29992 0.0
N740 N 0.49631 0.24918 0.32306 0.0
C741 C 0.44741 0.19985 0.43437 0.0
C742 C 0.46598 0.14878 0.46241 0.0
C743 C 0.45684 0.15714 0.50692 0.0
C744 C 0.44732 0.1823 0.49108 0.0
C745 C 0.4657 0.16726 0.40498 0.0
N746 N 0.45665 0.19355 0.39205 0.0
H747 H 0.44064 0.22193 0.4282 0.0
H748 H 0.4734 0.16261 0.37448 0.0
H749 H 0.47822 0.23392 0.44167 0.0
H750 H 0.48221 0.2514 0.25181 0.0
O751 O 0.45528 0.27327 0.39091 0.0
O752 O 0.4579 0.28455 0.29204 0.0
O753 O 0.46057 0.19851 0.25654 0.0
C754 C 0.45631 0.29798 0.34775 0.0
H755 H 0.41498 0.18157 0.2757 0.0
H756 H 0.50239 0.24284 0.41766 0.0
H757 H 0.47354 0.12936 0.47262 0.0
H758 H 0.44026 0.19093 0.52396 0.0
Co759 Co 0.32961 0.53014 0.33782 0.0
C760 C 0.35705 0.50847 0.34875 0.0
C761 C 0.3541 0.55491 0.28733 0.0
C762 C 0.36677 0.54837 0.29182 0.0
N763 N 0.34786 0.53007 0.32315 0.0
N764 N 0.36867 0.51951 0.33099 0.0
H765 H 0.35537 0.48658 0.38251 0.0
H766 H 0.34993 0.57787 0.26199 0.0
C767 C 0.31896 0.58945 0.24702 0.0
O768 O 0.30863 0.5919 0.27935 0.0
N769 N 0.31147 0.52862 0.34997 0.0
C770 C 0.30498 0.53261 0.40275 0.0
C771 C 0.29238 0.52749 0.39053 0.0
C772 C 0.30277 0.51918 0.30718 0.0
N773 N 0.29097 0.51945 0.33016 0.0
C774 C 0.34027 0.56175 0.44307 0.0
C775 C 0.32388 0.62033 0.46403 0.0
C776 C 0.33231 0.60972 0.51067 0.0
C777 C 0.34076 0.58069 0.49844 0.0
C778 C 0.32381 0.60047 0.40782 0.0
N779 N 0.33172 0.57055 0.39855 0.0
H780 H 0.34608 0.53719 0.43954 0.0
H781 H 0.31675 0.60758 0.37488 0.0
H782 H 0.30908 0.5387 0.44716 0.0
H783 H 0.30507 0.513 0.25974 0.0
O784 O 0.33109 0.49047 0.39758 0.0
O785 O 0.32839 0.48032 0.2983 0.0
O786 O 0.32775 0.56669 0.26373 0.0
C787 C 0.32963 0.46633 0.35385 0.0
H788 H 0.37408 0.56545 0.2714 0.0
H789 H 0.28484 0.53026 0.42351 0.0
H790 H 0.31716 0.64278 0.47162 0.0
H791 H 0.34719 0.57045 0.53323 0.0
Co792 Co 0.58256 0.98428 0.07941 0.0
C793 C 0.61006 1.00535 0.08738 0.0
C794 C 0.60685 0.95646 0.03148 0.0
C795 C 0.61955 0.96236 0.0356 0.0
N796 N 0.60076 0.98322 0.06414 0.0
N797 N 0.62162 0.99272 0.07143 0.0
H798 H 0.6085 0.0284 0.11913 0.0
H799 H 0.60252 0.93259 0.00917 0.0
C800 C 0.57188 0.92495 0.98844 0.0
O801 O 0.56189 0.92077 0.02278 0.0
N802 N 0.56442 0.987 0.09135 0.0
C803 C 0.55798 0.98657 0.14467 0.0
C804 C 0.5454 0.99146 0.13204 0.0
C805 C 0.55571 0.99445 0.04756 0.0
N806 N 0.54393 0.99609 0.07072 0.0
C807 C 0.59372 0.94951 0.18192 0.0
C808 C 0.57489 0.90012 0.21268 0.0
C809 C 0.58409 0.9088 0.25671 0.0
C810 C 0.59382 0.93266 0.23932 0.0
C811 C 0.57525 0.91746 0.15434 0.0
N812 N 0.58435 0.94333 0.14013 0.0
H813 H 0.60051 0.9713 0.17549 0.0
H814 H 0.56746 0.91275 0.12437 0.0
H815 H 0.56212 0.983 0.18974 0.0
H816 H 0.55802 0.99821 0.99948 0.0
O817 O 0.58437 0.02321 0.1401 0.0
O818 O 0.58166 0.03463 0.04119 0.0
O819 O 0.58048 0.94859 1.00418 0.0
C820 C 0.58298 0.04796 0.09714 0.0
H821 H 0.62676 0.94382 0.01776 0.0
H822 H 0.53794 0.99106 0.16568 0.0
H823 H 0.56719 0.8815 0.22404 0.0
H824 H 0.601 0.94116 0.27174 0.0
Co825 Co 0.70764 0.27725 0.08453 0.0
C826 C 0.68024 0.256 0.09719 0.0
C827 C 0.68307 0.30208 0.03494 0.0
C828 C 0.67041 0.29573 0.04025 0.0
N829 N 0.68937 0.27736 0.07079 0.0
N830 N 0.66859 0.2671 0.07993 0.0
H831 H 0.68197 0.23424 0.1311 0.0
H832 H 0.6872 0.32484 0.00901 0.0
C833 C 0.71817 0.33665 0.99356 0.0
O834 O 0.72855 0.33881 0.02558 0.0
N835 N 0.72578 0.27558 0.09577 0.0
C836 C 0.73243 0.27997 0.148 0.0
C837 C 0.74498 0.27471 0.13499 0.0
C838 C 0.73434 0.26576 0.05258 0.0
N839 N 0.74621 0.26614 0.07469 0.0
C840 C 0.69727 0.30856 0.19091 0.0
C841 C 0.71352 0.36758 0.21076 0.0
C842 C 0.70522 0.35691 0.25786 0.0
C843 C 0.69685 0.32762 0.24623 0.0
C844 C 0.71352 0.34765 0.15455 0.0
N845 N 0.70566 0.31754 0.14577 0.0
H846 H 0.69152 0.2839 0.18776 0.0
H847 H 0.72045 0.35496 0.1211 0.0
H848 H 0.72846 0.28642 0.19257 0.0
H849 H 0.73187 0.2592 1.00547 0.0
O850 O 0.7063 0.23745 0.14407 0.0
O851 O 0.70874 0.22733 0.04474 0.0
O852 O 0.70937 0.31399 0.01049 0.0
C853 C 0.70765 0.21328 0.10031 0.0
H854 H 0.66306 0.31279 0.02003 0.0
H855 H 0.75261 0.27771 0.16741 0.0
H856 H 0.72018 0.39023 0.21791 0.0
H857 H 0.69051 0.3174 0.28139 0.0
Co858 Co 0.58147 0.27038 0.18393 0.0
C859 C 0.60911 0.25161 0.17313 0.0
C860 C 0.60562 0.29689 0.23613 0.0
C861 C 0.61835 0.29184 0.23138 0.0
N862 N 0.59968 0.27189 0.19937 0.0
N863 N 0.62059 0.26375 0.19118 0.0
H864 H 0.6077 0.23003 0.13858 0.0
H865 H 0.60118 0.31904 0.26226 0.0
C866 C 0.57012 0.32852 0.27496 0.0
O867 O 0.55988 0.33069 0.24191 0.0
N868 N 0.5634 0.26739 0.17096 0.0
C869 C 0.55695 0.27128 0.11803 0.0
C870 C 0.54434 0.26649 0.13018 0.0
C871 C 0.55469 0.25809 0.21367 0.0
N872 N 0.5429 0.25871 0.19062 0.0
C873 C 0.5919 0.30342 0.0791 0.0
C874 C 0.57478 0.36003 0.05794 0.0
C875 C 0.58324 0.35011 0.0111 0.0
C876 C 0.59208 0.32219 0.02349 0.0
C877 C 0.57502 0.34041 0.11435 0.0
N878 N 0.58327 0.3113 0.12368 0.0
H879 H 0.598 0.27953 0.0826 0.0
H880 H 0.56791 0.3469 0.14725 0.0
H881 H 0.56107 0.27753 0.07373 0.0
H882 H 0.55696 0.25234 0.2613 0.0
O883 O 0.58342 0.2312 0.12374 0.0
O884 O 0.5807 0.22005 0.2226 0.0
O885 O 0.57912 0.30639 0.25851 0.0
C886 C 0.58215 0.20656 0.16685 0.0
H887 H 0.62546 0.30952 0.25224 0.0
H888 H 0.53681 0.26966 0.09725 0.0
H889 H 0.56778 0.38168 0.05034 0.0
H890 H 0.59859 0.31252 0.98863 0.0
Co891 Co 0.70874 0.99 0.18112 0.0
C892 C 0.68119 0.00813 0.16343 0.0
C893 C 0.68429 0.96953 0.23764 0.0
C894 C 0.67159 0.97472 0.23089 0.0
N895 N 0.69046 0.99001 0.19481 0.0
N896 N 0.66961 0.99859 0.18374 0.0
H897 H 0.68278 0.02713 0.12524 0.0
H898 H 0.68853 0.95078 0.27071 0.0
C899 C 0.71953 0.93138 0.27289 0.0
O900 O 0.72999 0.92943 0.24142 0.0
N901 N 0.72687 0.99153 0.16948 0.0
C902 C 0.73346 0.98484 0.11775 0.0
C903 C 0.74606 0.98918 0.13048 0.0
C904 C 0.73553 1.00176 0.21196 0.0
N905 N 0.74739 0.99935 0.19006 0.0
C906 C 0.69919 0.95934 0.07235 0.0
C907 C 0.71401 0.89618 0.06056 0.0
C908 C 0.70653 0.90764 0.01071 0.0
C909 C 0.69888 0.93915 0.01819 0.0
C910 C 0.71391 0.91739 0.11553 0.0
N911 N 0.7068 0.94951 0.12024 0.0
H912 H 0.69396 0.98508 0.07265 0.0
H913 H 0.72009 0.90894 0.15174 0.0
H914 H 0.72945 0.97701 0.07389 0.0
H915 H 0.73315 0.00942 0.25874 0.0
O916 O 0.70737 0.02993 0.1218 0.0
O917 O 0.70979 0.03994 0.22109 0.0
O918 O 0.71058 0.95326 0.25501 0.0
C919 C 0.70859 0.05406 0.16564 0.0
H920 H 0.66434 0.96013 0.25633 0.0
H921 H 0.75366 0.98405 0.09862 0.0
H922 H 0.72007 0.87176 0.05663 0.0
H923 H 0.69319 0.94992 0.9808 0.0
Co924 Co 0.45878 0.02189 0.92987 0.0
C925 C 0.43119 1.00412 0.91292 0.0
C926 C 0.43436 0.04416 0.985 0.0
C927 C 0.42165 0.03916 0.97839 0.0
N928 N 0.44049 0.02259 0.94347 0.0
N929 N 0.41962 0.01437 0.93256 0.0
H930 H 0.43275 0.98449 0.87555 0.0
H931 H 0.43863 0.06358 0.01687 0.0
C932 C 0.46975 0.08041 0.02121 0.0
O933 O 0.48021 0.08187 0.98979 0.0
N934 N 0.47691 0.01962 0.91823 0.0
C935 C 0.48348 0.02516 0.86606 0.0
C936 C 0.49606 0.01997 0.87846 0.0
C937 C 0.48555 0.00926 0.96074 0.0
N938 N 0.49739 0.01042 0.93829 0.0
C939 C 0.44922 0.05269 0.82125 0.0
C940 C 0.46451 0.11466 0.80783 0.0
C941 C 0.45684 0.10349 0.75847 0.0
C942 C 0.44897 0.07258 0.76678 0.0
C943 C 0.46435 0.09375 0.86311 0.0
N944 N 0.457 0.06224 0.86865 0.0
H945 H 0.44381 0.02731 0.82218 0.0
H946 H 0.47069 0.10185 0.89883 0.0
H947 H 0.47946 0.03263 0.82204 0.0
H948 H 0.4832 1.00222 0.0078 0.0
O949 O 0.45727 0.98186 0.87085 0.0
O950 O 0.45965 0.97206 0.97027 0.0
O951 O 0.46073 0.05875 1.0035 0.0
C952 C 0.45841 0.95783 0.91491 0.0
H953 H 0.41442 0.0545 1.00285 0.0
H954 H 0.50366 0.02398 0.84616 0.0
H955 H 0.47075 0.13859 0.80327 0.0
H956 H 0.44314 0.06198 0.7298 0.0
Co957 Co 0.33106 0.74222 0.93493 0.0
C958 C 0.35868 0.76105 0.92472 0.0
C959 C 0.35517 0.71551 0.98718 0.0
C960 C 0.3679 0.72052 0.98257 0.0
N961 N 0.34924 0.74072 0.95069 0.0
N962 N 0.37015 0.74877 0.94269 0.0
H963 H 0.35728 0.7827 0.89025 0.0
H964 H 0.35072 0.69321 0.01287 0.0
C965 C 0.31971 0.6844 0.02647 0.0
O966 O 0.30948 0.68208 0.99339 0.0
N967 N 0.313 0.74521 0.92164 0.0
C968 C 0.30659 0.7412 0.86861 0.0
C969 C 0.29397 0.74596 0.88049 0.0
C970 C 0.30425 0.75457 0.96412 0.0
N971 N 0.29248 0.75386 0.94086 0.0
C972 C 0.34162 0.70859 0.83092 0.0
C973 C 0.3244 0.65235 0.8095 0.0
C974 C 0.33294 0.66198 0.76288 0.0
C975 C 0.34183 0.6897 0.77543 0.0
C976 C 0.3246 0.67208 0.8658 0.0
N977 N 0.3329 0.70102 0.87523 0.0
H978 H 0.34775 0.73237 0.83443 0.0
H979 H 0.31742 0.66588 0.89846 0.0
H980 H 0.31075 0.73489 0.82442 0.0
H981 H 0.30648 0.76045 0.01175 0.0
O982 O 0.33305 0.78109 0.87423 0.0
O983 O 0.33026 0.79277 0.97289 0.0
O984 O 0.32868 0.70656 0.00991 0.0
C985 C 0.33176 0.80596 0.91698 0.0
H986 H 0.375 0.70267 1.00317 0.0
H987 H 0.28647 0.74268 0.84741 0.0
H988 H 0.31735 0.63087 0.80177 0.0
H989 H 0.34841 0.69917 0.74074 0.0
Co990 Co 0.45713 0.73443 0.83597 0.0
C991 C 0.42976 0.75563 0.84896 0.0
C992 C 0.43258 0.71023 0.78537 0.0
C993 C 0.41992 0.71671 0.79071 0.0
N994 N 0.43888 0.73441 0.82211 0.0
N995 N 0.41812 0.74491 0.83123 0.0
H996 H 0.43151 0.77709 0.88334 0.0
H997 H 0.4367 0.68783 0.75857 0.0
C998 C 0.46779 0.67508 0.74521 0.0
O999 O 0.47819 0.67324 0.77715 0.0
N1000 N 0.47525 0.73605 0.84745 0.0
C1001 C 0.48192 0.73104 0.89947 0.0
C1002 C 0.49447 0.7364 0.88646 0.0
C1003 C 0.48378 0.7464 0.80451 0.0
N1004 N 0.49566 0.74571 0.82642 0.0
C1005 C 0.4469 0.70364 0.94302 0.0
C1006 C 0.46297 0.64397 0.96196 0.0
C1007 C 0.45487 0.65512 0.00968 0.0
C1008 C 0.44659 0.68473 0.9985 0.0
C1009 C 0.46287 0.66379 0.90565 0.0
N1010 N 0.45514 0.69429 0.89741 0.0
H1011 H 0.4412 0.72845 0.94002 0.0
H1012 H 0.46962 0.65606 0.87156 0.0
H1013 H 0.47799 0.72407 0.94388 0.0
H1014 H 0.48127 0.75349 0.75767 0.0
O1015 O 0.45578 0.77444 0.89513 0.0
O1016 O 0.45826 0.7842 0.79572 0.0
O1017 O 0.45891 0.69746 0.76222 0.0
C1018 C 0.45715 0.79844 0.85114 0.0
H1019 H 0.41256 0.70005 0.76977 0.0
H1020 H 0.50211 0.73296 0.91871 0.0
H1021 H 0.46953 0.62101 0.96867 0.0
H1022 H 0.44039 0.69527 0.03405 0.0
Co1023 Co 0.33255 0.02783 0.82678 0.0
C1024 C 0.36007 1.00681 0.83586 0.0
C1025 C 0.35689 0.05533 0.77903 0.0
C1026 C 0.3696 0.04945 0.78353 0.0
N1027 N 0.35078 0.0288 0.81203 0.0
N1028 N 0.37164 0.01933 0.81993 0.0
H1029 H 0.35849 0.98396 0.86796 0.0
H1030 H 0.35258 0.07905 0.75618 0.0
C1031 C 0.32195 0.08686 0.73508 0.0
O1032 O 0.31191 0.09101 0.76902 0.0
N1033 N 0.31439 0.02514 0.83812 0.0
C1034 C 0.30788 0.02572 0.89123 0.0
C1035 C 0.29534 0.02042 0.8783 0.0
C1036 C 0.30576 0.01726 0.79418 0.0
N1037 N 0.29395 0.01539 0.81702 0.0
C1038 C 0.34361 0.063 0.92914 0.0
C1039 C 0.32477 0.11263 0.95902 0.0
C1040 C 0.33399 0.10428 1.00314 0.0
C1041 C 0.34371 0.08025 0.9862 0.0
C1042 C 0.32514 0.09492 0.90095 0.0
N1043 N 0.33426 0.06899 0.88717 0.0
H1044 H 0.35039 0.04112 0.92317 0.0
H1045 H 0.31735 0.09946 0.87086 0.0
H1046 H 0.31195 0.02956 0.93638 0.0
H1047 H 0.30814 0.01323 0.74624 0.0
O1048 O 0.3343 0.98913 0.88792 0.0
O1049 O 0.33171 0.97732 0.78907 0.0
O1050 O 0.33056 0.0633 0.75122 0.0
C1051 C 0.33295 0.96421 0.8452 0.0
H1052 H 0.37681 0.06786 0.7655 0.0
H1053 H 0.28783 0.02074 0.91174 0.0
H1054 H 0.31706 0.13133 0.9701 0.0
H1055 H 0.3509 0.07196 0.01877 0.0
C1056 C 0.07992 0.62609 0.0703 0.0
C1057 C 0.07969 0.59846 0.11626 0.0
H1058 H 0.08051 0.68499 0.04935 0.0
C1059 C 0.07965 0.61017 0.17852 0.0
H1060 H 0.07996 0.61813 0.02218 0.0
C1061 C 0.07991 0.64852 0.19445 0.0
C1062 C 0.08031 0.67614 0.1485 0.0
H1063 H 0.07943 0.58961 0.2154 0.0
H1064 H 0.07991 0.65647 0.24258 0.0
C1065 C 0.08027 0.66443 0.08623 0.0
C1066 C 0.20564 0.60484 0.08914 0.0
C1067 C 0.20556 0.59481 0.15219 0.0
H1068 H 0.20603 0.6494 0.02182 0.0
C1069 C 0.20586 0.62369 0.19608 0.0
H1070 H 0.20546 0.58328 0.0538 0.0
C1071 C 0.20611 0.66158 0.17742 0.0
C1072 C 0.20618 0.67163 0.11439 0.0
H1073 H 0.20583 0.61706 0.24474 0.0
H1074 H 0.2063 0.68311 0.2128 0.0
C1075 C 0.20599 0.64275 0.07047 0.0
C1076 C 0.95606 0.39763 0.94539 0.0
C1077 C 0.95576 0.42622 0.901 0.0
H1078 H 0.95644 0.33832 0.96314 0.0
C1079 C 0.95582 0.4158 0.83813 0.0
H1080 H 0.95604 0.40457 0.99393 0.0
C1081 C 0.95614 0.37777 0.82011 0.0
C1082 C 0.9563 0.34918 0.86453 0.0
H1083 H 0.95565 0.43713 0.80242 0.0
H1084 H 0.95615 0.37081 0.77159 0.0
C1085 C 0.95627 0.35962 0.92739 0.0
C1086 C 0.82968 0.40744 0.92749 0.0
C1087 C 0.82976 0.4187 0.865 0.0
H1088 H 0.8299 0.36163 0.99247 0.0
C1089 C 0.83003 0.39073 0.8196 0.0
H1090 H 0.82943 0.42827 0.96396 0.0
C1091 C 0.83038 0.35249 0.83632 0.0
C1092 C 0.83037 0.34124 0.89882 0.0
H1093 H 0.83011 0.39833 0.77133 0.0
H1094 H 0.83065 0.33165 0.79986 0.0
C1095 C 0.82994 0.36921 0.94419 0.0
C1096 C 0.08296 0.12818 0.57017 0.0
C1097 C 0.08302 0.09948 0.61441 0.0
H1098 H 0.08281 0.18757 0.55275 0.0
C1099 C 0.0829 0.10983 0.67733 0.0
H1100 H 0.08303 0.12133 0.5216 0.0
C1101 C 0.08268 0.14784 0.69554 0.0
C1102 C 0.08269 0.17654 0.6513 0.0
H1103 H 0.0829 0.08845 0.71296 0.0
H1104 H 0.08255 0.15469 0.7441 0.0
C1105 C 0.08285 0.16619 0.58839 0.0
C1106 C 0.2086 0.10504 0.58336 0.0
C1107 C 0.20938 0.09307 0.64543 0.0
H1108 H 0.20795 0.1518 0.51997 0.0
C1109 C 0.21049 0.12041 0.69141 0.0
H1110 H 0.2078 0.08462 0.54647 0.0
C1111 C 0.21058 0.15875 0.67593 0.0
C1112 C 0.2096 0.17086 0.61402 0.0
H1113 H 0.21117 0.11226 0.73934 0.0
H1114 H 0.21133 0.17901 0.71307 0.0
C1115 C 0.20874 0.14352 0.56779 0.0
C1116 C 0.95835 0.9162 0.333 0.0
C1117 C 0.95931 0.92783 0.39519 0.0
H1118 H 0.95767 0.86979 0.26892 0.0
C1119 C 0.96072 0.90025 0.44059 0.0
H1120 H 0.9573 0.93681 0.29654 0.0
C1121 C 0.96095 0.86202 0.42447 0.0
C1122 C 0.95979 0.85023 0.36248 0.0
H1123 H 0.96156 0.90812 0.48858 0.0
H1124 H 0.96195 0.84156 0.46121 0.0
C1125 C 0.95861 0.87781 0.31678 0.0
C1126 C 0.83277 0.8897 0.32037 0.0
C1127 C 0.83277 0.91804 0.36522 0.0
H1128 H 0.83277 0.83046 0.30169 0.0
C1129 C 0.83268 0.90719 0.42791 0.0
H1130 H 0.83284 0.89695 0.27195 0.0
C1131 C 0.83256 0.86904 0.44531 0.0
C1132 C 0.83264 0.8407 0.40047 0.0
H1133 H 0.83264 0.92828 0.46399 0.0
H1134 H 0.83244 0.86179 0.49373 0.0
C1135 C 0.83276 0.85155 0.33778 0.0
C1136 C 0.57973 0.63709 0.698 0.0
C1137 C 0.57863 0.66478 0.65243 0.0
H1138 H 0.58098 0.57805 0.71797 0.0
C1139 C 0.57753 0.65313 0.59034 0.0
H1140 H 0.58063 0.64501 0.74594 0.0
C1141 C 0.57775 0.61492 0.57402 0.0
C1142 C 0.57909 0.58724 0.61932 0.0
H1143 H 0.57659 0.67367 0.55369 0.0
H1144 H 0.57696 0.60715 0.52597 0.0
C1145 C 0.57999 0.59874 0.68159 0.0
C1146 C 0.70558 0.6239 0.69463 0.0
C1147 C 0.70558 0.59561 0.64971 0.0
H1148 H 0.70557 0.68312 0.71346 0.0
C1149 C 0.70567 0.60651 0.58705 0.0
H1150 H 0.70551 0.61661 0.74303 0.0
C1151 C 0.70579 0.64468 0.56974 0.0
C1152 C 0.7057 0.67297 0.61465 0.0
H1153 H 0.70572 0.58545 0.55092 0.0
H1154 H 0.7059 0.65197 0.52134 0.0
C1155 C 0.70558 0.66207 0.67732 0.0
C1156 C 0.45575 0.38754 0.44496 0.0
C1157 C 0.45566 0.41602 0.40036 0.0
H1158 H 0.45593 0.32823 0.46314 0.0
C1159 C 0.45579 0.40537 0.33757 0.0
H1160 H 0.45567 0.39462 0.49344 0.0
C1161 C 0.45602 0.36728 0.31984 0.0
C1162 C 0.45604 0.33879 0.36444 0.0
H1163 H 0.45577 0.42658 0.30167 0.0
H1164 H 0.45616 0.3602 0.27137 0.0
C1165 C 0.45588 0.34944 0.42723 0.0
C1166 C 0.32799 0.3597 0.33947 0.0
C1167 C 0.32907 0.34779 0.40144 0.0
H1168 H 0.32733 0.40596 0.27566 0.0
C1169 C 0.33004 0.37528 0.44738 0.0
H1170 H 0.32715 0.33932 0.30254 0.0
C1171 C 0.33018 0.41371 0.43145 0.0
C1172 C 0.3293 0.42547 0.3693 0.0
H1173 H 0.3309 0.36716 0.49524 0.0
H1174 H 0.33106 0.43426 0.4681 0.0
C1175 C 0.32809 0.39798 0.32363 0.0
C1176 C 0.58221 0.15522 0.08735 0.0
C1177 C 0.5822 0.16579 0.15015 0.0
H1178 H 0.58239 0.11013 0.02104 0.0
C1179 C 0.58233 0.13729 0.19472 0.0
H1180 H 0.58206 0.17645 0.05149 0.0
C1181 C 0.58261 0.09922 0.1769 0.0
C1182 C 0.58266 0.08867 0.11409 0.0
H1183 H 0.58233 0.14434 0.24321 0.0
H1184 H 0.58276 0.07796 0.21273 0.0
C1185 C 0.58239 0.11717 0.06954 0.0
C1186 C 0.70843 0.12299 0.19539 0.0
C1187 C 0.70866 0.09498 0.15005 0.0
H1188 H 0.70787 0.18209 0.21501 0.0
C1189 C 0.70873 0.10619 0.08754 0.0
H1190 H 0.70837 0.11543 0.24368 0.0
C1191 C 0.7085 0.14441 0.07076 0.0
C1192 C 0.70811 0.17242 0.11607 0.0
H1193 H 0.70895 0.08533 0.05111 0.0
H1194 H 0.70853 0.15195 0.02246 0.0
C1195 C 0.70812 0.16122 0.1786 0.0
C1196 C 0.45842 0.90545 0.8373 0.0
C1197 C 0.45836 0.91687 0.8997 0.0
H1198 H 0.45814 0.85946 0.77268 0.0
C1199 C 0.45807 0.88903 0.94532 0.0
H1200 H 0.45868 0.92617 0.80067 0.0
C1201 C 0.45768 0.85076 0.92891 0.0
C1202 C 0.45766 0.83935 0.8665 0.0
H1203 H 0.45801 0.89677 0.99354 0.0
H1204 H 0.45739 0.83003 0.96553 0.0
C1205 C 0.45811 0.86718 0.8209 0.0
C1206 C 0.33207 0.87537 0.94393 0.0
C1207 C 0.33189 0.84665 0.89973 0.0
H1208 H 0.33263 0.93476 0.96116 0.0
C1209 C 0.33196 0.85691 0.8368 0.0
H1210 H 0.33203 0.86855 0.99251 0.0
C1211 C 0.33224 0.89487 0.81849 0.0
C1212 C 0.33256 0.92358 0.86266 0.0
H1213 H 0.33178 0.83551 0.80121 0.0
H1214 H 0.33228 0.90167 0.7699 0.0
C1215 C 0.33245 0.91334 0.92561 0.0
C1216 C 0.02858 0.5005 0.98134 0.0
C1217 C 0.02923 0.50868 0.04463 0.0
H1218 H 1.01713 0.49626 0.90081 0.0
C1219 C 1.01816 0.51997 0.07473 0.0
H1220 H 0.03681 0.49101 0.95675 0.0
C1221 C 1.0068 0.52309 0.04252 0.0
C1222 C 1.00612 0.51478 0.97918 0.0
H1223 H 1.0183 0.52687 0.12324 0.0
H1224 H 0.9986 0.53259 0.06732 0.0
C1225 C 1.01721 0.50342 0.94917 0.0
C1226 C 0.25819 0.76951 0.97575 0.0
C1227 C 0.25751 0.76048 0.03879 0.0
H1228 H 0.26977 0.77527 0.89573 0.0
C1229 C 0.26862 0.7497 0.06902 0.0
H1230 H 0.24994 0.77867 0.95098 0.0
C1231 C 0.28006 0.74797 0.03726 0.0
C1232 C 0.28074 0.75698 0.97423 0.0
H1233 H 0.26849 0.74212 0.11724 0.0
H1234 H 0.28832 0.73882 0.062 0.0
C1235 C 0.26963 0.76774 0.94397 0.0
C1236 C 1.00852 0.77644 0.23514 0.0
C1237 C 1.00836 0.75419 0.28883 0.0
H1238 H 0.01935 0.79946 0.1612 0.0
C1239 C 0.01967 0.73704 0.30752 0.0
H1240 H 1.00011 0.79053 0.21943 0.0
C1241 C 0.03076 0.74222 0.27396 0.0
C1242 C 0.03092 0.76459 0.22048 0.0
H1243 H 0.01997 0.71912 0.34777 0.0
H1244 H 0.03919 0.72825 0.28969 0.0
C1245 C 0.01961 0.78154 0.20149 0.0
C1246 C 0.26832 0.5026 0.32693 0.0
C1247 C 0.27927 0.51483 0.29678 0.0
H1248 H 0.24882 0.4889 0.31977 0.0
C1249 C 0.27846 0.52358 0.23372 0.0
H1250 H 0.26856 0.49522 0.37523 0.0
C1251 C 0.26707 0.52026 0.20183 0.0
C1252 C 0.2561 0.50793 0.23187 0.0
H1253 H 0.28659 0.53377 0.20907 0.0
H1254 H 0.26688 0.52786 0.15365 0.0
C1255 C 0.25693 0.49912 0.29499 0.0
C1256 C 0.78019 0.24605 0.03802 0.0
C1257 C 0.7807 0.25276 0.97418 0.0
H1258 H 0.76892 0.24422 0.11953 0.0
C1259 C 0.76957 0.26363 0.9441 0.0
H1260 H 0.78845 0.23695 0.0628 0.0
C1261 C 0.75831 0.26768 0.97676 0.0
C1262 C 0.75779 0.26096 0.04059 0.0
H1263 H 0.76957 0.26952 0.89526 0.0
H1264 H 0.75004 0.27677 0.95199 0.0
C1265 C 0.76892 0.2501 0.07068 0.0
C1266 C 0.01951 0.25131 0.69646 0.0
C1267 C 0.03059 0.26271 0.72647 0.0
H1268 H 0.99984 0.24004 0.7036 0.0
C1269 C 0.02984 0.27232 0.78929 0.0
H1270 H 0.01967 0.24322 0.64848 0.0
C1271 C 1.0184 0.2705 0.82101 0.0
C1272 C 1.00734 0.2592 0.79091 0.0
H1273 H 0.03804 0.28194 0.81395 0.0
H1274 H 1.0182 0.27843 0.86909 0.0
C1275 C 1.00807 0.24963 0.72814 0.0
C1276 C 0.76807 0.5015 0.82121 0.0
C1277 C 0.77935 0.51057 0.79101 0.0
H1278 H 0.74836 0.49133 0.81353 0.0
C1279 C 0.77893 0.51729 0.72717 0.0
H1280 H 0.76801 0.49573 0.8701 0.0
C1281 C 0.76759 0.51503 0.6946 0.0
C1282 C 0.75631 0.50593 0.72478 0.0
H1283 H 0.78733 0.52509 0.70237 0.0
H1284 H 0.76768 0.52087 0.64575 0.0
C1285 C 0.75674 0.49916 0.78864 0.0
C1286 C 0.02102 0.02391 0.56574 0.0
C1287 C 0.03215 0.01274 0.53595 0.0
H1288 H 1.00142 0.03616 0.55778 0.0
C1289 C 0.03156 1.00463 0.47254 0.0
H1290 H 0.02106 0.03086 0.6142 0.0
C1291 C 0.02022 1.0076 0.44005 0.0
C1292 C 1.0091 0.01869 0.4699 0.0
H1293 H 0.03981 0.99525 0.448 0.0
H1294 H 0.02016 1.00069 0.39156 0.0
C1295 C 1.00968 0.02682 0.53327 0.0
C1296 C 0.25823 0.24144 0.49042 0.0
C1297 C 0.2581 0.2651 0.54244 0.0
H1298 H 0.26897 0.21695 0.41751 0.0
C1299 C 0.26936 0.28307 0.55944 0.0
H1300 H 0.24984 0.22667 0.47622 0.0
C1301 C 0.28039 0.27751 0.52554 0.0
C1302 C 0.28052 0.25385 0.47352 0.0
H1303 H 0.26965 0.302 0.59845 0.0
H1304 H 0.28878 0.29227 0.53974 0.0
C1305 C 0.26926 0.23589 0.45653 0.0
C1306 C 0.27123 0.99907 0.81334 0.0
C1307 C 0.28227 0.0107 0.78323 0.0
H1308 H 0.25169 0.98585 0.80591 0.0
C1309 C 0.28157 0.01854 0.71973 0.0
H1310 H 0.27132 0.99223 0.86182 0.0
C1311 C 0.27022 0.01478 0.6875 0.0
C1312 C 0.25919 1.00326 0.71772 0.0
H1313 H 0.28973 0.02819 0.69483 0.0
H1314 H 0.27007 0.02139 0.6389 0.0
C1315 C 0.25988 0.99549 0.78116 0.0
C1316 C 0.76851 0.74516 0.569 0.0
C1317 C 0.75758 0.75877 0.54025 0.0
H1318 H 0.78802 0.73189 0.5605 0.0
C1319 C 0.75842 0.77045 0.47843 0.0
H1320 H 0.76826 0.7355 0.61621 0.0
C1321 C 0.76982 0.76854 0.44641 0.0
C1322 C 0.78076 0.75492 0.47516 0.0
H1323 H 0.75031 0.78181 0.45491 0.0
H1324 H 0.77008 0.77821 0.3992 0.0
C1325 C 0.77992 0.74324 0.53698 0.0
C1326 C 0.78165 0.01445 0.22631 0.0
C1327 C 0.78209 0.00784 0.29021 0.0
H1328 H 0.77036 0.01772 0.14488 0.0
C1329 C 0.77081 0.99886 0.3205 0.0
H1330 H 0.79003 0.02219 0.20133 0.0
C1331 C 0.75946 0.99654 0.28799 0.0
C1332 C 0.75903 1.00311 0.22411 0.0
H1333 H 0.77073 0.99314 0.36939 0.0
H1334 H 0.75107 0.98883 0.31288 0.0
C1335 C 0.77031 0.01207 0.1938 0.0
C1336 C 0.52881 0.48956 0.48004 0.0
C1337 C 0.52933 0.49672 0.54374 0.0
H1338 H 0.5175 0.48657 0.39873 0.0
C1339 C 0.51816 0.50712 0.57381 0.0
H1340 H 0.53711 0.48078 0.4553 0.0
C1341 C 0.50684 0.51034 0.54123 0.0
C1342 C 0.50632 0.50321 0.4775 0.0
H1343 H 0.51816 0.51329 0.62256 0.0
H1344 H 0.49855 0.51916 0.56598 0.0
C1345 C 0.51749 0.49275 0.44747 0.0
C1346 C 0.51872 0.75103 0.69486 0.0
C1347 C 0.52998 0.76011 0.72515 0.0
H1348 H 0.49916 0.73881 0.70272 0.0
C1349 C 0.52971 0.76466 0.78948 0.0
H1350 H 0.51857 0.74679 0.64556 0.0
C1351 C 0.51849 0.76033 0.82248 0.0
C1352 C 0.50721 0.75121 0.79218 0.0
H1353 H 0.53812 0.77229 0.81435 0.0
H1354 H 0.51867 0.76459 0.87175 0.0
C1355 C 0.50753 0.74657 0.72782 0.0
C1356 C 0.50871 0.24237 0.22658 0.0
C1357 C 0.50802 0.25221 0.28932 0.0
H1358 H 0.52027 0.23603 0.14656 0.0
C1359 C 0.51911 0.26381 0.31893 0.0
H1360 H 0.50049 0.23259 0.20224 0.0
C1361 C 0.53052 0.26547 0.28694 0.0
C1362 C 0.5312 0.25565 0.22425 0.0
H1363 H 0.519 0.27208 0.36684 0.0
H1364 H 0.53876 0.27522 0.31118 0.0
C1365 C 0.52011 0.24414 0.19455 0.0
C1366 C 0.50973 0.0142 0.03522 0.0
C1367 C 0.50905 1.00596 0.97195 0.0
H1368 H 0.52122 0.01855 0.1156 0.0
C1369 C 0.52011 0.99466 0.94175 0.0
H1370 H 0.50151 0.0237 0.05989 0.0
C1371 C 0.53149 0.99161 0.97383 0.0
C1372 C 0.5322 0.99999 0.03714 0.0
H1373 H 0.51995 0.98771 0.89327 0.0
H1374 H 0.53968 0.98211 0.94896 0.0
C1375 C 0.52112 0.01134 0.06725 0.0
C1376 C 0.09261 0.39069 0.35383 0.0
C1377 C 0.08134 0.39437 0.32101 0.0
H1378 H 0.10149 0.38011 0.4396 0.0
C1379 C 0.06999 0.38648 0.35126 0.0
H1380 H 0.10154 0.3963 0.33192 0.0
C1381 C 0.06998 0.37582 0.41356 0.0
C1382 C 0.08131 0.37327 0.44659 0.0
H1383 H 0.06114 0.38961 0.32738 0.0
H1384 H 0.06115 0.36922 0.43556 0.0
C1385 C 0.09258 0.38123 0.4158 0.0
C1386 C 0.21753 0.87366 0.34733 0.0
C1387 C 0.2061 0.87026 0.31539 0.0
H1388 H 0.22656 0.88766 0.43286 0.0
C1389 C 0.19488 0.87722 0.34721 0.0
H1390 H 0.22633 0.86782 0.32444 0.0
C1391 C 0.19499 0.88643 0.40929 0.0
C1392 C 0.20635 0.89073 0.44118 0.0
H1393 H 0.1859 0.8753 0.32418 0.0
H1394 H 0.1861 0.89115 0.4321 0.0
C1395 C 0.21765 0.88398 0.40975 0.0
C1396 C 0.09445 0.88266 0.90966 0.0
C1397 C 0.08316 0.87875 0.94223 0.0
H1398 H 0.10337 0.8942 0.82423 0.0
C1399 C 0.07181 0.88627 0.9116 0.0
H1400 H 0.10337 0.87728 0.93183 0.0
C1401 C 0.07182 0.897 0.84932 0.0
C1402 C 0.08318 0.90015 0.81675 0.0
H1403 H 0.06295 0.8829 0.93524 0.0
H1404 H 0.063 0.90341 0.82703 0.0
C1405 C 0.09445 0.89243 0.84777 0.0
C1406 C 0.19407 0.38094 0.85564 0.0
C1407 C 0.20533 0.38067 0.82239 0.0
H1408 H 0.18511 0.38911 0.94214 0.0
C1409 C 0.21645 0.3916 0.85195 0.0
H1410 H 0.18543 0.37169 0.83424 0.0
C1411 C 0.21631 0.40181 0.91441 0.0
C1412 C 0.20504 0.40093 0.94815 0.0
H1413 H 0.2253 0.39056 0.82759 0.0
H1414 H 0.22498 0.41037 0.93621 0.0
C1415 C 0.19394 0.39052 0.9177 0.0
C1416 C 0.96629 0.61903 0.66135 0.0
C1417 C 0.95492 0.61928 0.69431 0.0
H1418 H 0.97545 0.63076 0.57516 0.0
C1419 C 0.94383 0.62891 0.66302 0.0
H1420 H 0.97496 0.61108 0.68379 0.0
C1421 C 0.94407 0.63846 0.60093 0.0
C1422 C 0.95542 0.63934 0.56848 0.0
H1423 H 0.93493 0.62982 0.68688 0.0
H1424 H 0.93544 0.64729 0.57892 0.0
C1425 C 0.96654 0.62915 0.59887 0.0
C1426 C 0.82176 0.1353 0.66103 0.0
C1427 C 0.83304 0.14079 0.69336 0.0
H1428 H 0.81315 0.11962 0.57521 0.0
C1429 C 0.84443 0.13517 0.66231 0.0
H1430 H 0.81283 0.14003 0.68343 0.0
C1431 C 0.84461 0.12544 0.60041 0.0
C1432 C 0.83341 0.11948 0.56789 0.0
H1433 H 0.85331 0.13888 0.68575 0.0
H1434 H 0.85362 0.12201 0.57812 0.0
C1435 C 0.82194 0.12462 0.59875 0.0
C1436 C 0.94455 0.14201 0.09752 0.0
C1437 C 0.95575 0.148 0.06505 0.0
H1438 H 0.93586 0.12925 0.18304 0.0
C1439 C 0.96722 0.14331 0.09611 0.0
H1440 H 0.93554 0.14505 0.07509 0.0
C1441 C 0.96741 0.13303 0.15853 0.0
C1442 C 0.95613 0.12761 0.19085 0.0
H1443 H 0.97601 0.14835 0.07262 0.0
H1444 H 0.97635 0.12859 0.18105 0.0
C1445 C 0.94473 0.13284 0.15961 0.0
C1446 C 0.84266 0.63747 0.16109 0.0
C1447 C 0.83137 0.64542 0.19173 0.0
H1448 H 0.85167 0.62221 0.07738 0.0
C1449 C 0.82006 0.64293 0.15851 0.0
H1450 H 0.85156 0.6385 0.18502 0.0
C1451 C 0.82012 0.63224 0.09622 0.0
C1452 C 0.83149 0.62425 0.0662 0.0
H1453 H 0.81122 0.64952 0.18038 0.0
H1454 H 0.81128 0.62907 0.07223 0.0
C1455 C 0.84274 0.62797 0.09914 0.0
C1456 C 0.57118 0.37043 0.91665 0.0
C1457 C 0.58265 0.36583 0.94776 0.0
H1458 H 0.56206 0.38519 0.8317 0.0
C1459 C 0.59385 0.37183 0.91529 0.0
H1460 H 0.56239 0.36538 0.94011 0.0
C1461 C 0.59367 0.38105 0.85322 0.0
C1462 C 0.58227 0.3863 0.82199 0.0
H1463 H 0.60286 0.36891 0.93775 0.0
H1464 H 0.60254 0.38478 0.82982 0.0
C1465 C 0.57099 0.38074 0.85424 0.0
C1466 C 0.69565 0.87623 0.8543 0.0
C1467 C 0.70695 0.86837 0.82361 0.0
H1468 H 0.68665 0.89139 0.93805 0.0
C1469 C 0.71826 0.87096 0.85677 0.0
H1470 H 0.68675 0.87511 0.83041 0.0
C1471 C 0.71821 0.88164 0.91905 0.0
C1472 C 0.70684 0.88952 0.94914 0.0
H1473 H 0.72711 0.86443 0.83485 0.0
H1474 H 0.72704 0.88487 0.94301 0.0
C1475 C 0.69558 0.88572 0.91625 0.0
C1476 C 0.59428 0.8772 0.41543 0.0
C1477 C 0.58292 0.87598 0.44771 0.0
H1478 H 0.60345 0.886 0.32961 0.0
C1479 C 0.57179 0.88583 0.41716 0.0
H1480 H 0.60293 0.86863 0.43759 0.0
C1481 C 0.57204 0.89592 0.35467 0.0
C1482 C 0.58343 0.89597 0.32186 0.0
H1483 H 0.56287 0.88396 0.44074 0.0
H1484 H 0.56336 0.9036 0.33209 0.0
C1485 C 0.59453 0.88669 0.35333 0.0
C1486 C 0.7167 0.37911 0.35295 0.0
C1487 C 0.70541 0.37351 0.32067 0.0
H1488 H 0.7253 0.39485 0.43875 0.0
C1489 C 0.69402 0.3791 0.35172 0.0
H1490 H 0.72562 0.37441 0.33055 0.0
C1491 C 0.69384 0.38884 0.41361 0.0
C1492 C 0.70504 0.39485 0.44614 0.0
H1493 H 0.68515 0.37528 0.3283 0.0
H1494 H 0.68483 0.39216 0.43592 0.0
C1495 C 0.71651 0.38981 0.41523 0.0
C1496 C 0.46651 0.6216 0.16618 0.0
C1497 C 0.45512 0.61719 0.19802 0.0
H1498 H 0.47542 0.63653 0.08076 0.0
C1499 C 0.44385 0.6239 0.16645 0.0
H1500 H 0.47535 0.61602 0.18896 0.0
C1501 C 0.44388 0.63367 0.10456 0.0
C1502 C 0.45519 0.6386 0.07255 0.0
H1503 H 0.4349 0.62106 0.18949 0.0
H1504 H 0.43495 0.63797 0.08189 0.0
C1505 C 0.46655 0.63235 0.1039 0.0
C1506 C 0.32205 0.1175 0.10134 0.0
C1507 C 0.33337 0.11761 0.06803 0.0
H1508 H 0.31301 0.12933 0.18784 0.0
C1509 C 0.3445 0.1273 0.09888 0.0
H1510 H 0.31335 0.10951 0.07921 0.0
C1511 C 0.34435 0.13691 0.16093 0.0
C1512 C 0.33305 0.13786 0.19379 0.0
H1513 H 0.35337 0.12809 0.07474 0.0
H1514 H 0.35302 0.14563 0.18264 0.0
C1515 C 0.32189 0.12771 0.16381 0.0
C1516 C 0.44592 0.12541 0.66389 0.0
C1517 C 0.45718 0.12129 0.69663 0.0
H1518 H 0.43706 0.1363 0.57819 0.0
C1519 C 0.46856 0.12877 0.66631 0.0
H1520 H 0.43697 0.12013 0.68585 0.0
C1521 C 0.46859 0.13944 0.60401 0.0
C1522 C 0.45727 0.14243 0.57106 0.0
H1523 H 0.4774 0.12529 0.69012 0.0
H1524 H 0.47745 0.14572 0.58196 0.0
C1525 C 0.44597 0.13487 0.60192 0.0
C1526 C 0.32079 0.63161 0.60573 0.0
C1527 C 0.3321 0.6259 0.57372 0.0
H1528 H 0.31213 0.64709 0.69142 0.0
C1529 C 0.34347 0.63093 0.60523 0.0
H1530 H 0.31188 0.62736 0.58299 0.0
C1531 C 0.34361 0.64005 0.66733 0.0
C1532 C 0.33239 0.64624 0.69956 0.0
H1533 H 0.35236 0.62711 0.58202 0.0
H1534 H 0.3526 0.64278 0.68999 0.0
C1535 C 0.32094 0.64187 0.66816 0.0
C1536 C 0.05833 0.37698 0.85767 0.0
C1537 C 0.06958 0.36249 0.83359 0.0
H1538 H 0.04931 0.41057 0.92609 0.0
C1539 C 0.08088 0.37245 0.86329 0.0
H1540 H 0.04941 0.37008 0.83664 0.0
C1541 C 0.08082 0.39662 0.91521 0.0
C1542 C 0.06946 0.41075 0.93912 0.0
H1543 H 0.08973 0.36199 0.84607 0.0
H1544 H 0.08962 0.40358 0.93722 0.0
C1545 C 0.05826 0.40038 0.90943 0.0
C1546 C 0.20689 0.86855 0.90091 0.0
C1547 C 0.21814 0.85698 0.92939 0.0
H1548 H 0.19832 0.90096 0.82797 0.0
C1549 C 0.2295 0.86971 0.90391 0.0
H1550 H 0.19796 0.85955 0.91928 0.0
C1551 C 0.2297 0.89306 0.85212 0.0
C1552 C 0.21856 0.90513 0.82371 0.0
H1553 H 0.23839 0.86152 0.92399 0.0
H1554 H 0.23873 0.90191 0.83452 0.0
C1555 C 0.20709 0.89266 0.8489 0.0
C1556 C 0.06031 0.90129 0.40375 0.0
C1557 C 0.07164 0.91352 0.43013 0.0
H1558 H 0.05112 0.86934 0.33393 0.0
C1559 C 0.08292 0.9013 0.40264 0.0
H1560 H 0.0514 0.90998 0.42302 0.0
C1561 C 0.08276 0.87701 0.35077 0.0
C1562 C 0.07131 0.86499 0.32472 0.0
H1563 H 0.09184 0.90988 0.42172 0.0
H1564 H 0.09155 0.86815 0.33072 0.0
C1565 C 0.06015 0.87777 0.35214 0.0
C1566 C 0.20502 0.37208 0.41832 0.0
C1567 C 0.21647 0.36296 0.44727 0.0
H1568 H 0.19584 0.4019 0.34404 0.0
C1569 C 0.22754 0.37807 0.42209 0.0
H1570 H 0.1963 0.36117 0.43652 0.0
C1571 C 0.22728 0.40083 0.36952 0.0
C1572 C 0.21594 0.41007 0.34021 0.0
H1573 H 0.23656 0.37185 0.44255 0.0
H1574 H 0.23611 0.41122 0.3516 0.0
C1575 C 0.20474 0.39575 0.36568 0.0
C1576 C 0.97724 0.62055 0.11626 0.0
C1577 C 0.96589 0.61152 0.08685 0.0
H1578 H 0.98653 0.64923 0.18955 0.0
C1579 C 0.9547 0.62594 0.11231 0.0
H1580 H 0.98605 0.61006 0.09835 0.0
C1581 C 0.95499 0.64949 0.16508 0.0
C1582 C 0.96645 0.65837 0.19416 0.0
H1583 H 0.9458 0.61993 0.09058 0.0
H1584 H 0.94627 0.66046 0.18331 0.0
C1585 C 0.9775 0.64318 0.16896 0.0
C1586 C 0.83266 0.14302 0.10624 0.0
C1587 C 0.82122 0.15282 0.07772 0.0
H1588 H 0.84178 0.11207 0.17935 0.0
C1589 C 0.81011 0.1379 0.1028 0.0
H1590 H 0.84141 0.15372 0.08825 0.0
C1591 C 0.81033 0.11442 0.15445 0.0
C1592 C 0.82166 0.10438 0.1832 0.0
H1593 H 0.80109 0.1446 0.08274 0.0
H1594 H 0.80147 0.10402 0.17193 0.0
C1595 C 0.83288 0.11878 0.15816 0.0
C1596 C 0.95694 0.12529 0.60352 0.0
C1597 C 0.96839 0.11578 0.57502 0.0
H1598 H 0.94775 0.1559 0.67675 0.0
C1599 C 0.97948 0.13075 0.60024 0.0
H1600 H 0.9482 0.11454 0.58539 0.0
C1601 C 0.97922 0.15405 0.65207 0.0
C1602 C 0.96786 0.16383 0.68075 0.0
H1603 H 0.98851 0.12423 0.58015 0.0
H1604 H 0.98806 0.16452 0.66973 0.0
C1605 C 0.95667 0.14937 0.65556 0.0
C1606 C 0.83098 0.62004 0.66159 0.0
C1607 C 0.81963 0.60564 0.68508 0.0
H1608 H 0.83988 0.65488 0.59271 0.0
C1609 C 0.80845 0.61554 0.65482 0.0
H1610 H 0.83976 0.61343 0.68409 0.0
C1611 C 0.80852 0.63886 0.60297 0.0
C1612 C 0.81976 0.65372 0.57939 0.0
H1613 H 0.79951 0.6051 0.67118 0.0
H1614 H 0.79961 0.64546 0.58154 0.0
C1615 C 0.83104 0.64414 0.60957 0.0
C1616 C 0.58153 0.3893 0.411 0.0
C1617 C 0.57005 0.39973 0.4384 0.0
H1618 H 0.59073 0.35788 0.33877 0.0
C1619 C 0.55894 0.38568 0.4121 0.0
H1620 H 0.59028 0.39928 0.43005 0.0
C1621 C 0.5592 0.36235 0.3603 0.0
C1622 C 0.57058 0.35163 0.33273 0.0
H1623 H 0.54989 0.39293 0.43135 0.0
H1624 H 0.55034 0.35258 0.34185 0.0
C1625 C 0.5818 0.36519 0.359 0.0
C1626 C 0.70736 0.8937 0.35383 0.0
C1627 C 0.71872 0.90814 0.33038 0.0
H1628 H 0.69846 0.85881 0.42265 0.0
C1629 C 0.72989 0.89827 0.36069 0.0
H1630 H 0.69859 0.90028 0.3313 0.0
C1631 C 0.72983 0.87495 0.41253 0.0
C1632 C 0.71859 0.86005 0.43607 0.0
H1633 H 0.73883 0.90874 0.34436 0.0
H1634 H 0.73873 0.86838 0.43399 0.0
C1635 C 0.70731 0.8696 0.40585 0.0
C1636 C 0.58356 0.88919 0.90325 0.0
C1637 C 0.57235 0.90298 0.92941 0.0
H1638 H 0.59202 0.85519 0.83167 0.0
C1639 C 0.56099 0.89326 0.90073 0.0
H1640 H 0.59248 0.89575 0.92435 0.0
C1641 C 0.56073 0.87059 0.84807 0.0
C1642 C 0.57181 0.8561 0.82213 0.0
H1643 H 0.55215 0.90324 0.91915 0.0
H1644 H 0.55169 0.86401 0.82803 0.0
C1645 C 0.58329 0.86562 0.8505 0.0
C1646 C 0.70557 0.39523 0.85696 0.0
C1647 C 0.71681 0.40909 0.83122 0.0
H1648 H 0.69704 0.36076 0.92744 0.0
C1649 C 0.72816 0.39849 0.85926 0.0
H1650 H 0.69665 0.40242 0.83639 0.0
C1651 C 0.72838 0.375 0.9109 0.0
C1652 C 0.71726 0.36064 0.93668 0.0
H1653 H 0.73702 0.40847 0.84126 0.0
H1654 H 0.73742 0.36787 0.93043 0.0
C1655 C 0.7058 0.37098 0.90886 0.0
C1656 C 0.45544 0.61535 0.60948 0.0
C1657 C 0.46674 0.6025 0.58296 0.0
H1658 H 0.44674 0.64902 0.68058 0.0
C1659 C 0.47805 0.61426 0.61015 0.0
H1660 H 0.44654 0.60723 0.58968 0.0
C1661 C 0.47816 0.63782 0.66171 0.0
C1662 C 0.46698 0.65111 0.68828 0.0
H1663 H 0.48697 0.60511 0.5916 0.0
H1664 H 0.48717 0.64584 0.68059 0.0
C1665 C 0.45556 0.63967 0.6613 0.0
C1666 C 0.31097 0.14093 0.59409 0.0
C1667 C 0.32205 0.15595 0.569 0.0
H1668 H 0.30234 0.10781 0.66441 0.0
C1669 C 0.33349 0.14676 0.59807 0.0
H1670 H 0.30196 0.14722 0.57353 0.0
C1671 C 0.33372 0.12308 0.65072 0.0
C1672 C 0.3225 0.10882 0.67605 0.0
H1673 H 0.34223 0.15759 0.57995 0.0
H1674 H 0.34261 0.11683 0.67242 0.0
C1675 C 0.31118 0.11816 0.64663 0.0
C1676 C 0.48017 0.13722 0.16023 0.0
C1677 C 0.46895 0.15214 0.18401 0.0
H1678 H 0.48912 0.10332 0.09199 0.0
C1679 C 0.45765 0.14256 0.1541 0.0
H1680 H 0.48909 0.14382 0.18144 0.0
C1681 C 0.45766 0.11838 0.10218 0.0
C1682 C 0.46899 0.10388 0.07851 0.0
H1683 H 0.44881 0.15336 0.17109 0.0
H1684 H 0.44886 0.11176 0.07994 0.0
C1685 C 0.48019 0.11382 0.10847 0.0
C1686 C 0.33127 0.624 0.16273 0.0
C1687 C 0.31981 0.61319 0.18996 0.0
H1688 H 0.34039 0.65572 0.09066 0.0
C1689 C 0.30867 0.62689 0.16351 0.0
H1690 H 0.34005 0.6143 0.18192 0.0
C1691 C 0.30886 0.65023 0.11171 0.0
C1692 C 0.32022 0.66132 0.08428 0.0
H1693 H 0.29964 0.61934 0.18264 0.0
H1694 H 0.29998 0.65971 0.09311 0.0
C1695 C 0.33147 0.64812 0.11073 0.0
C1696 C 0.1437 0.50644 0.2056 0.0
C1697 C 0.15466 0.50754 0.16963 0.0
H1698 H 0.12358 0.50462 0.20674 0.0
C1699 C 0.15346 0.51167 0.10558 0.0
H1700 H 0.14437 0.50307 0.25502 0.0
C1701 C 0.14157 0.51192 0.07787 0.0
C1702 C 0.13061 0.50884 0.11363 0.0
H1703 H 0.16171 0.51203 0.0766 0.0
H1704 H 0.14092 0.51294 0.02818 0.0
C1705 C 0.13181 0.5075 0.17801 0.0
C1706 C 0.14288 0.75867 0.18844 0.0
C1707 C 0.13198 0.76221 0.15241 0.0
H1708 H 0.16301 0.75746 0.19013 0.0
C1709 C 0.13322 0.76313 0.08805 0.0
H1710 H 0.1422 0.75797 0.23814 0.0
C1711 C 0.14512 0.76337 0.06067 0.0
C1712 C 0.15604 0.7619 0.0969 0.0
H1713 H 0.12502 0.76634 0.05915 0.0
H1714 H 0.14583 0.76644 0.01122 0.0
C1715 C 0.15478 0.75813 0.16098 0.0
C1716 C 0.89378 0.51364 0.95309 0.0
C1717 C 0.90476 0.51212 0.91728 0.0
H1718 H 0.87366 0.51499 0.95398 0.0
C1719 C 0.90359 0.50667 0.85347 0.0
H1720 H 0.89441 0.51797 1.00232 0.0
C1721 C 0.89172 0.50555 0.8257 0.0
C1722 C 0.88074 0.50909 0.86119 0.0
H1723 H 0.91185 0.50591 0.82458 0.0
H1724 H 0.8911 0.50349 0.77609 0.0
C1725 C 0.88191 0.51175 0.92547 0.0
C1726 C 0.90462 0.25884 0.91584 0.0
C1727 C 0.90584 0.25849 0.85145 0.0
H1728 H 0.89208 0.25515 0.99294 0.0
C1729 C 0.89489 0.25935 0.81535 0.0
H1730 H 0.91287 0.25762 0.94482 0.0
C1731 C 0.88299 0.25856 0.84288 0.0
C1732 C 0.8818 0.25605 0.90715 0.0
H1733 H 0.89557 0.25891 0.76564 0.0
H1734 H 0.87477 0.25717 0.81382 0.0
C1735 C 0.89274 0.25722 0.94333 0.0
C1736 C 0.147 0.01096 0.68997 0.0
C1737 C 0.15783 0.00793 0.65327 0.0
H1738 H 0.12687 0.01195 0.69277 0.0
C1739 C 0.15643 1.00776 0.58897 0.0
H1740 H 0.1478 0.01104 0.73964 0.0
C1741 C 0.14445 1.00771 0.56225 0.0
C1742 C 0.13361 0.00866 0.59909 0.0
H1743 H 0.16456 1.00493 0.55953 0.0
H1744 H 0.14362 1.00517 0.51276 0.0
C1745 C 0.13503 0.01172 0.66318 0.0
C1746 C 0.13416 0.25667 0.61502 0.0
C1747 C 0.13236 0.27157 0.6743 0.0
H1748 H 0.14724 0.24369 0.54322 0.0
C1749 C 0.14299 0.28189 0.70879 0.0
H1750 H 0.1262 0.24868 0.58704 0.0
C1751 C 0.15504 0.27939 0.6836 0.0
C1752 C 0.15682 0.26661 0.62297 0.0
H1753 H 0.14194 0.29317 0.7548 0.0
H1754 H 0.16289 0.2892 0.71076 0.0
C1755 C 0.14624 0.25432 0.58963 0.0
C1756 C 0.89446 1.00726 0.31707 0.0
C1757 C 0.8836 0.00881 0.35376 0.0
H1758 H 0.91458 0.00918 0.31427 0.0
C1759 C 0.88498 0.00924 0.41807 0.0
H1760 H 0.89366 1.00704 0.2674 0.0
C1761 C 0.89694 0.01104 0.44479 0.0
C1762 C 0.90779 0.01164 0.40794 0.0
H1763 H 0.87682 0.01096 0.44748 0.0
H1764 H 0.89773 0.01375 0.49427 0.0
C1765 C 0.90643 0.00827 0.34387 0.0
C1766 C 0.88427 0.76253 0.36363 0.0
C1767 C 0.88246 0.74582 0.42161 0.0
H1768 H 0.89735 0.77792 0.29319 0.0
C1769 C 0.8931 0.73451 0.45529 0.0
H1770 H 0.87632 0.77135 0.33626 0.0
C1771 C 0.90516 0.73789 0.43046 0.0
C1772 C 0.90696 0.7526 0.37101 0.0
H1773 H 0.89205 0.72188 0.50036 0.0
H1774 H 0.91301 0.72734 0.45689 0.0
C1775 C 0.89636 0.76579 0.33861 0.0
C1776 C 0.64396 0.5061 0.69816 0.0
C1777 C 0.65482 0.50515 0.66142 0.0
H1778 H 0.62384 0.50411 0.70088 0.0
C1779 C 0.65344 0.50574 0.59712 0.0
H1780 H 0.64476 0.50553 0.74782 0.0
C1781 C 0.64148 0.50435 0.57033 0.0
C1782 C 0.63063 0.50315 0.60713 0.0
H1783 H 0.66161 0.5045 0.56765 0.0
H1784 H 0.64069 0.50241 0.52075 0.0
C1785 C 0.632 0.5055 0.67133 0.0
C1786 C 0.63319 0.77587 0.58518 0.0
C1787 C 0.6314 0.76178 0.64504 0.0
H1788 H 0.64629 0.79119 0.51484 0.0
C1789 C 0.642 0.74892 0.67776 0.0
H1790 H 0.62533 0.78615 0.55851 0.0
C1791 C 0.65408 0.75192 0.6526 0.0
C1792 C 0.65589 0.76803 0.59417 0.0
H1793 H 0.64101 0.73728 0.72353 0.0
H1794 H 0.66204 0.74339 0.68018 0.0
C1795 C 0.64524 0.779 0.56022 0.0
C1796 C 0.39401 0.50647 0.44881 0.0
C1797 C 0.40486 0.50736 0.41205 0.0
H1798 H 0.37389 0.50868 0.45163 0.0
C1799 C 0.40347 0.50703 0.34775 0.0
H1800 H 0.39482 0.50691 0.49847 0.0
C1801 C 0.3915 0.50868 0.321 0.0
C1802 C 0.38066 0.50987 0.35785 0.0
H1803 H 0.41164 0.50828 0.31829 0.0
H1804 H 0.39071 0.51078 0.27144 0.0
C1805 C 0.38203 0.50729 0.42203 0.0
C1806 C 0.40452 0.26007 0.40135 0.0
C1807 C 0.40631 0.24437 0.34262 0.0
H1808 H 0.39144 0.27429 0.47251 0.0
C1809 C 0.39568 0.2338 0.30838 0.0
H1810 H 0.41248 0.26828 0.42914 0.0
C1811 C 0.38362 0.23688 0.33333 0.0
C1812 C 0.38184 0.25052 0.39346 0.0
H1813 H 0.39672 0.22193 0.26277 0.0
H1814 H 0.37576 0.22689 0.30641 0.0
C1815 C 0.39243 0.26301 0.42651 0.0
C1816 C 0.64666 0.00857 0.18987 0.0
C1817 C 0.65763 1.00503 0.15433 0.0
H1818 H 0.62653 0.00835 0.19104 0.0
C1819 C 0.65645 1.00252 0.09004 0.0
H1820 H 0.64729 0.0105 0.23949 0.0
C1821 C 0.64457 1.00077 0.06244 0.0
C1822 C 0.6336 1.0023 0.09829 0.0
H1823 H 0.6647 0.99928 0.0615 0.0
H1824 H 0.64393 0.99654 0.01319 0.0
C1825 C 0.63478 1.0076 0.16212 0.0
C1826 C 0.64356 0.25577 0.19953 0.0
C1827 C 0.63263 0.25616 0.16329 0.0
H1828 H 0.66368 0.25796 0.20117 0.0
C1829 C 0.63387 0.25494 0.09895 0.0
H1830 H 0.64286 0.25689 0.2492 0.0
C1831 C 0.64576 0.25618 0.07152 0.0
C1832 C 0.65668 0.25783 0.10776 0.0
H1833 H 0.62564 0.25578 0.06985 0.0
H1834 H 0.64644 0.2576 0.02186 0.0
C1835 C 0.65547 0.25618 0.17209 0.0
C1836 C 0.39459 0.01083 0.81131 0.0
C1837 C 0.38361 0.00994 0.84717 0.0
H1838 H 0.41472 0.01202 0.81037 0.0
C1839 C 0.38478 1.00556 0.9112 0.0
H1840 H 0.39396 0.01438 0.76191 0.0
C1841 C 0.39666 1.00484 0.93901 0.0
C1842 C 0.40763 1.00769 0.90337 0.0
H1843 H 0.37652 1.00534 0.94009 0.0
H1844 H 0.39728 1.00364 0.9887 0.0
C1845 C 0.40647 0.0093 0.839 0.0
C1846 C 0.39529 0.75609 0.82292 0.0
C1847 C 0.40622 0.75421 0.85912 0.0
H1848 H 0.37517 0.75682 0.82136 0.0
C1849 C 0.40502 0.75585 0.92346 0.0
H1850 H 0.39596 0.75473 0.77325 0.0
C1851 C 0.39312 0.75645 0.95095 0.0
C1852 C 0.38218 0.75626 0.91476 0.0
H1853 H 0.41323 0.75394 0.95251 0.0
H1854 H 0.39243 0.75531 1.00062 0.0
C1855 C 0.38341 0.75751 0.85041 0.0
loop_
_geom_bond_atom_site_label_1
_geom_bond_atom_site_label_2
_geom_bond_distance
_geom_bond_site_symmetry_2
_ccdc_geom_bond_type
Co0 N4 2.148 . S
Co0 N10 2.128 . S
Co0 N20 2.194 . S
Co0 O25 2.351 . S
Co0 O26 2.155 . S
Co0 O27 2.096 1_554 S
C1 N4 1.301 . S
C1 N5 1.328 . S
C1 H6 0.930 . S
C2 C3 1.333 . S
C2 N4 1.317 . S
C2 H7 0.930 . S
C3 C2 1.333 . S
C3 N5 1.350 . S
C3 H29 0.931 . S
N4 Co0 2.148 . S
N4 C1 1.301 . S
N4 C2 1.317 . S
N5 C1 1.328 . S
N5 C3 1.350 . S
H6 C1 0.930 . S
H7 C2 0.930 . S
C8 O9 1.224 1_556 S
C8 O27 1.247 . S
O9 C8 1.224 1_554 S
N10 Co0 2.128 . S
N10 C11 1.355 . S
N10 C13 1.311 . S
C11 N10 1.355 . S
C11 C12 1.363 . S
C11 H23 0.929 . S
C12 C11 1.363 . S
C12 N14 1.375 . S
C12 H30 0.931 . S
C13 N10 1.311 . S
C13 N14 1.347 . S
C13 H24 0.929 1_554 S
N14 C12 1.375 . S
N14 C13 1.347 . S
C15 C18 1.365 . S
C15 N20 1.328 . S
C15 H21 0.929 . S
C16 C17 1.362 . S
C16 C19 1.378 . S
C16 H31 0.929 . S
C17 C16 1.362 . S
C17 C18 1.366 . S
C18 C15 1.365 . S
C18 C17 1.366 . S
C18 H32 0.930 . S
C19 C16 1.378 . S
C19 N20 1.315 . S
C19 H22 0.930 . S
N20 Co0 2.194 . S
N20 C15 1.328 . S
N20 C19 1.315 . S
H21 C15 0.929 . S
H22 C19 0.930 . S
H23 C11 0.929 . S
H24 C13 0.929 1_556 S
O25 Co0 2.351 . S
O25 C28 1.244 . S
O26 Co0 2.155 . S
O26 C28 1.240 . S
O27 Co0 2.096 1_556 S
O27 C8 1.247 . S
C28 O25 1.244 . S
C28 O26 1.240 . S
H29 C3 0.931 . S
H30 C12 0.931 . S
H31 C16 0.929 . S
H32 C18 0.930 . S
Co33 N37 2.148 . S
Co33 N43 2.128 . S
Co33 N53 2.194 . S
Co33 O58 2.351 . S
Co33 O59 2.155 . S
Co33 O60 2.096 1_554 S
C34 N37 1.301 . S
C34 N38 1.328 . S
C34 H39 0.930 . S
C35 C36 1.333 . S
C35 N37 1.317 . S
C35 H40 0.930 . S
C36 C35 1.333 . S
C36 N38 1.350 . S
C36 H62 0.931 . S
N37 Co33 2.148 . S
N37 C34 1.301 . S
N37 C35 1.317 . S
N38 C34 1.328 . S
N38 C36 1.350 . S
H39 C34 0.930 . S
H40 C35 0.930 . S
C41 O42 1.224 1_556 S
C41 O60 1.247 . S
O42 C41 1.224 1_554 S
N43 Co33 2.128 . S
N43 C44 1.355 . S
N43 C46 1.311 . S
C44 N43 1.355 . S
C44 C45 1.363 . S
C44 H56 0.929 . S
C45 C44 1.363 . S
C45 N47 1.375 . S
C45 H63 0.931 . S
C46 N43 1.311 . S
C46 N47 1.347 . S
C46 H57 0.929 1_554 S
N47 C45 1.375 . S
N47 C46 1.347 . S
C48 C51 1.365 . S
C48 N53 1.328 . S
C48 H54 0.929 . S
C49 C50 1.362 . S
C49 C52 1.378 . S
C49 H64 0.929 . S
C50 C49 1.362 . S
C50 C51 1.366 . S
C51 C48 1.365 . S
C51 C50 1.366 . S
C51 H65 0.930 . S
C52 C49 1.378 . S
C52 N53 1.315 . S
C52 H55 0.930 . S
N53 Co33 2.194 . S
N53 C48 1.328 . S
N53 C52 1.315 . S
H54 C48 0.929 . S
H55 C52 0.930 . S
H56 C44 0.929 . S
H57 C46 0.929 1_556 S
O58 Co33 2.351 . S
O58 C61 1.244 . S
O59 Co33 2.155 . S
O59 C61 1.240 . S
O60 Co33 2.096 1_556 S
O60 C41 1.247 . S
C61 O58 1.244 . S
C61 O59 1.240 . S
H62 C36 0.931 . S
H63 C45 0.931 . S
H64 C49 0.929 . S
H65 C51 0.930 . S
Co66 N70 2.148 . S
Co66 N76 2.128 . S
Co66 N86 2.194 . S
Co66 O91 2.351 . S
Co66 O92 2.155 . S
Co66 O93 2.096 . S
C67 N70 1.301 . S
C67 N71 1.328 . S
C67 H72 0.930 . S
C68 C69 1.333 . S
C68 N70 1.317 . S
C68 H73 0.930 . S
C69 C68 1.333 . S
C69 N71 1.350 . S
C69 H95 0.931 . S
N70 Co66 2.148 . S
N70 C67 1.301 . S
N70 C68 1.317 . S
N71 C67 1.328 . S
N71 C69 1.350 . S
H72 C67 0.930 . S
H73 C68 0.930 . S
C74 O75 1.224 . S
C74 O93 1.247 . S
O75 C74 1.224 . S
N76 Co66 2.128 . S
N76 C77 1.355 . S
N76 C79 1.311 . S
C77 N76 1.355 . S
C77 C78 1.363 . S
C77 H89 0.929 . S
C78 C77 1.363 . S
C78 N80 1.375 . S
C78 H96 0.931 . S
C79 N76 1.311 . S
C79 N80 1.347 . S
C79 H90 0.929 . S
N80 C78 1.375 . S
N80 C79 1.347 . S
C81 C84 1.365 1_554 S
C81 N86 1.328 . S
C81 H87 0.929 . S
C82 C83 1.362 1_554 S
C82 C85 1.378 . S
C82 H97 0.929 . S
C83 C82 1.362 1_556 S
C83 C84 1.366 . S
C84 C81 1.365 1_556 S
C84 C83 1.366 . S
C84 H98 0.930 . S
C85 C82 1.378 . S
C85 N86 1.315 . S
C85 H88 0.930 . S
N86 Co66 2.194 . S
N86 C81 1.328 . S
N86 C85 1.315 . S
H87 C81 0.929 . S
H88 C85 0.930 . S
H89 C77 0.929 . S
H90 C79 0.929 . S
O91 Co66 2.351 . S
O91 C94 1.244 . S
O92 Co66 2.155 . S
O92 C94 1.240 . S
O93 Co66 2.096 . S
O93 C74 1.247 . S
C94 O91 1.244 . S
C94 O92 1.240 . S
H95 C69 0.931 . S
H96 C78 0.931 . S
H97 C82 0.929 . S
H98 C84 0.930 . S
Co99 N103 2.148 . S
Co99 N109 2.128 . S
Co99 N119 2.194 . S
Co99 O124 2.351 . S
Co99 O125 2.155 . S
Co99 O126 2.096 . S
C100 N103 1.301 . S
C100 N104 1.328 . S
C100 H105 0.930 . S
C101 C102 1.333 . S
C101 N103 1.317 . S
C101 H106 0.930 . S
C102 C101 1.333 . S
C102 N104 1.350 . S
C102 H128 0.931 . S
N103 Co99 2.148 . S
N103 C100 1.301 . S
N103 C101 1.317 . S
N104 C100 1.328 . S
N104 C102 1.350 . S
H105 C100 0.930 . S
H106 C101 0.930 . S
C107 O108 1.224 . S
C107 O126 1.247 . S
O108 C107 1.224 . S
N109 Co99 2.128 . S
N109 C110 1.355 . S
N109 C112 1.311 . S
C110 N109 1.355 . S
C110 C111 1.363 . S
C110 H122 0.929 . S
C111 C110 1.363 . S
C111 N113 1.375 . S
C111 H129 0.931 . S
C112 N109 1.311 . S
C112 N113 1.347 . S
C112 H123 0.929 . S
N113 C111 1.375 . S
N113 C112 1.347 . S
C114 C117 1.365 1_554 S
C114 N119 1.328 . S
C114 H120 0.929 . S
C115 C116 1.362 1_554 S
C115 C118 1.378 . S
C115 H130 0.929 . S
C116 C115 1.362 1_556 S
C116 C117 1.366 . S
C117 C114 1.365 1_556 S
C117 C116 1.366 . S
C117 H131 0.930 . S
C118 C115 1.378 . S
C118 N119 1.315 . S
C118 H121 0.930 . S
N119 Co99 2.194 . S
N119 C114 1.328 . S
N119 C118 1.315 . S
H120 C114 0.929 . S
H121 C118 0.930 . S
H122 C110 0.929 . S
H123 C112 0.929 . S
O124 Co99 2.351 . S
O124 C127 1.244 . S
O125 Co99 2.155 . S
O125 C127 1.240 . S
O126 Co99 2.096 . S
O126 C107 1.247 . S
C127 O124 1.244 . S
C127 O125 1.240 . S
H128 C102 0.931 . S
H129 C111 0.931 . S
H130 C115 0.929 . S
H131 C117 0.930 . S
Co132 N136 2.148 . S
Co132 N142 2.128 . S
Co132 N152 2.194 . S
Co132 O157 2.351 . S
Co132 O158 2.155 . S
Co132 O159 2.096 1_556 S
C133 N136 1.301 . S
C133 N137 1.328 . S
C133 H138 0.930 . S
C134 C135 1.333 . S
C134 N136 1.317 . S
C134 H139 0.930 . S
C135 C134 1.333 . S
C135 N137 1.350 . S
C135 H161 0.931 . S
N136 Co132 2.148 . S
N136 C133 1.301 . S
N136 C134 1.317 . S
N137 C133 1.328 . S
N137 C135 1.350 . S
H138 C133 0.930 . S
H139 C134 0.930 . S
C140 O141 1.224 1_554 S
C140 O159 1.247 . S
O141 C140 1.224 1_556 S
N142 Co132 2.128 . S
N142 C143 1.355 . S
N142 C145 1.311 . S
C143 N142 1.355 . S
C143 C144 1.363 . S
C143 H155 0.929 . S
C144 C143 1.363 . S
C144 N146 1.375 . S
C144 H162 0.931 . S
C145 N142 1.311 . S
C145 N146 1.347 . S
C145 H156 0.929 1_556 S
N146 C144 1.375 . S
N146 C145 1.347 . S
C147 C150 1.365 . S
C147 N152 1.328 . S
C147 H153 0.929 . S
C148 C149 1.362 . S
C148 C151 1.378 . S
C148 H163 0.929 . S
C149 C148 1.362 . S
C149 C150 1.366 . S
C150 C147 1.365 . S
C150 C149 1.366 . S
C150 H164 0.930 . S
C151 C148 1.378 . S
C151 N152 1.315 . S
C151 H154 0.930 . S
N152 Co132 2.194 . S
N152 C147 1.328 . S
N152 C151 1.315 . S
H153 C147 0.929 . S
H154 C151 0.930 . S
H155 C143 0.929 . S
H156 C145 0.929 1_554 S
O157 Co132 2.351 . S
O157 C160 1.244 . S
O158 Co132 2.155 . S
O158 C160 1.240 . S
O159 Co132 2.096 1_554 S
O159 C140 1.247 . S
C160 O157 1.244 . S
C160 O158 1.240 . S
H161 C135 0.931 . S
H162 C144 0.931 . S
H163 C148 0.929 . S
H164 C150 0.930 . S
Co165 N169 2.148 . S
Co165 N175 2.128 . S
Co165 N185 2.194 . S
Co165 O190 2.351 . S
Co165 O191 2.155 . S
Co165 O192 2.096 1_556 S
C166 N169 1.301 . S
C166 N170 1.328 . S
C166 H171 0.930 . S
C167 C168 1.333 . S
C167 N169 1.317 . S
C167 H172 0.930 . S
C168 C167 1.333 . S
C168 N170 1.350 . S
C168 H194 0.931 . S
N169 Co165 2.148 . S
N169 C166 1.301 . S
N169 C167 1.317 . S
N170 C166 1.328 . S
N170 C168 1.350 . S
H171 C166 0.930 . S
H172 C167 0.930 . S
C173 O174 1.224 1_554 S
C173 O192 1.247 . S
O174 C173 1.224 1_556 S
N175 Co165 2.128 . S
N175 C176 1.355 . S
N175 C178 1.311 . S
C176 N175 1.355 . S
C176 C177 1.363 . S
C176 H188 0.929 . S
C177 C176 1.363 . S
C177 N179 1.375 . S
C177 H195 0.931 . S
C178 N175 1.311 . S
C178 N179 1.347 . S
C178 H189 0.929 1_556 S
N179 C177 1.375 . S
N179 C178 1.347 . S
C180 C183 1.365 . S
C180 N185 1.328 . S
C180 H186 0.929 . S
C181 C182 1.362 . S
C181 C184 1.378 . S
C181 H196 0.929 . S
C182 C181 1.362 . S
C182 C183 1.366 . S
C183 C180 1.365 . S
C183 C182 1.366 . S
C183 H197 0.930 . S
C184 C181 1.378 . S
C184 N185 1.315 . S
C184 H187 0.930 . S
N185 Co165 2.194 . S
N185 C180 1.328 . S
N185 C184 1.315 . S
H186 C180 0.929 . S
H187 C184 0.930 . S
H188 C176 0.929 . S
H189 C178 0.929 1_554 S
O190 Co165 2.351 . S
O190 C193 1.244 . S
O191 Co165 2.155 . S
O191 C193 1.240 . S
O192 Co165 2.096 1_554 S
O192 C173 1.247 . S
C193 O190 1.244 . S
C193 O191 1.240 . S
H194 C168 0.931 . S
H195 C177 0.931 . S
H196 C181 0.929 . S
H197 C183 0.930 . S
Co198 N202 2.148 . S
Co198 N208 2.128 . S
Co198 N218 2.194 . S
Co198 O223 2.351 . S
Co198 O224 2.155 . S
Co198 O225 2.096 . S
C199 N202 1.301 . S
C199 N203 1.328 . S
C199 H204 0.930 . S
C200 C201 1.333 . S
C200 N202 1.317 . S
C200 H205 0.930 . S
C201 C200 1.333 . S
C201 N203 1.350 . S
C201 H227 0.931 . S
N202 Co198 2.148 . S
N202 C199 1.301 . S
N202 C200 1.317 . S
N203 C199 1.328 . S
N203 C201 1.350 . S
H204 C199 0.930 . S
H205 C200 0.930 . S
C206 O207 1.224 . S
C206 O225 1.247 . S
O207 C206 1.224 . S
N208 Co198 2.128 . S
N208 C209 1.355 . S
N208 C211 1.311 . S
C209 N208 1.355 . S
C209 C210 1.363 . S
C209 H221 0.929 . S
C210 C209 1.363 . S
C210 N212 1.375 . S
C210 H228 0.931 . S
C211 N208 1.311 . S
C211 N212 1.347 . S
C211 H222 0.929 . S
N212 C210 1.375 . S
N212 C211 1.347 . S
C213 C216 1.365 1_556 S
C213 N218 1.328 . S
C213 H219 0.929 . S
C214 C215 1.362 1_556 S
C214 C217 1.378 . S
C214 H229 0.929 . S
C215 C214 1.362 1_554 S
C215 C216 1.366 . S
C216 C213 1.365 1_554 S
C216 C215 1.366 . S
C216 H230 0.930 . S
C217 C214 1.378 . S
C217 N218 1.315 . S
C217 H220 0.930 . S
N218 Co198 2.194 . S
N218 C213 1.328 . S
N218 C217 1.315 . S
H219 C213 0.929 . S
H220 C217 0.930 . S
H221 C209 0.929 . S
H222 C211 0.929 . S
O223 Co198 2.351 . S
O223 C226 1.244 . S
O224 Co198 2.155 . S
O224 C226 1.240 . S
O225 Co198 2.096 . S
O225 C206 1.247 . S
C226 O223 1.244 . S
C226 O224 1.240 . S
H227 C201 0.931 . S
H228 C210 0.931 . S
H229 C214 0.929 . S
H230 C216 0.930 . S
Co231 N235 2.148 . S
Co231 N241 2.128 . S
Co231 N251 2.194 . S
Co231 O256 2.351 . S
Co231 O257 2.155 . S
Co231 O258 2.096 . S
C232 N235 1.301 . S
C232 N236 1.328 . S
C232 H237 0.930 . S
C233 C234 1.333 . S
C233 N235 1.317 . S
C233 H238 0.930 . S
C234 C233 1.333 . S
C234 N236 1.350 . S
C234 H260 0.931 . S
N235 Co231 2.148 . S
N235 C232 1.301 . S
N235 C233 1.317 . S
N236 C232 1.328 . S
N236 C234 1.350 . S
H237 C232 0.930 . S
H238 C233 0.930 . S
C239 O240 1.224 . S
C239 O258 1.247 . S
O240 C239 1.224 . S
N241 Co231 2.128 . S
N241 C242 1.355 . S
N241 C244 1.311 . S
C242 N241 1.355 . S
C242 C243 1.363 . S
C242 H254 0.929 . S
C243 C242 1.363 . S
C243 N245 1.375 . S
C243 H261 0.931 . S
C244 N241 1.311 . S
C244 N245 1.347 . S
C244 H255 0.929 . S
N245 C243 1.375 . S
N245 C244 1.347 . S
C246 C249 1.365 1_556 S
C246 N251 1.328 . S
C246 H252 0.929 . S
C247 C248 1.362 1_556 S
C247 C250 1.378 . S
C247 H262 0.929 . S
C248 C247 1.362 1_554 S
C248 C249 1.366 . S
C249 C246 1.365 1_554 S
C249 C248 1.366 . S
C249 H263 0.930 . S
C250 C247 1.378 . S
C250 N251 1.315 . S
C250 H253 0.930 . S
N251 Co231 2.194 . S
N251 C246 1.328 . S
N251 C250 1.315 . S
H252 C246 0.929 . S
H253 C250 0.930 . S
H254 C242 0.929 . S
H255 C244 0.929 . S
O256 Co231 2.351 . S
O256 C259 1.244 . S
O257 Co231 2.155 . S
O257 C259 1.240 . S
O258 Co231 2.096 . S
O258 C239 1.247 . S
C259 O256 1.244 . S
C259 O257 1.240 . S
H260 C234 0.931 . S
H261 C243 0.931 . S
H262 C247 0.929 . S
H263 C249 0.930 . S
Co264 N268 2.148 . S
Co264 N274 2.128 . S
Co264 N284 2.194 . S
Co264 O289 2.351 1_565 S
Co264 O290 2.155 1_565 S
Co264 O291 2.096 . S
C265 N268 1.301 . S
C265 N269 1.328 . S
C265 H270 0.930 1_565 S
C266 C267 1.333 . S
C266 N268 1.317 . S
C266 H271 0.930 . S
C267 C266 1.333 . S
C267 N269 1.350 . S
C267 H293 0.931 . S
N268 Co264 2.148 . S
N268 C265 1.301 . S
N268 C266 1.317 . S
N269 C265 1.328 . S
N269 C267 1.350 . S
H270 C265 0.930 1_545 S
H271 C266 0.930 . S
C272 O273 1.224 . S
C272 O291 1.247 . S
O273 C272 1.224 . S
N274 Co264 2.128 . S
N274 C275 1.355 . S
N274 C277 1.311 . S
C275 N274 1.355 . S
C275 C276 1.363 . S
C275 H287 0.928 1_565 S
C276 C275 1.363 . S
C276 N278 1.375 . S
C276 H294 0.931 . S
C277 N274 1.311 . S
C277 N278 1.347 . S
C277 H288 0.929 . S
N278 C276 1.375 . S
N278 C277 1.347 . S
C279 C282 1.365 . S
C279 N284 1.328 . S
C279 H285 0.929 . S
C280 C281 1.362 . S
C280 C283 1.378 . S
C280 H295 0.929 . S
C281 C280 1.362 . S
C281 C282 1.366 . S
C282 C279 1.365 . S
C282 C281 1.366 . S
C282 H296 0.930 . S
C283 C280 1.378 . S
C283 N284 1.315 . S
C283 H286 0.930 . S
N284 Co264 2.194 . S
N284 C279 1.328 . S
N284 C283 1.315 . S
H285 C279 0.929 . S
H286 C283 0.930 . S
H287 C275 0.928 1_545 S
H288 C277 0.929 . S
O289 Co264 2.351 1_545 S
O289 C292 1.244 . S
O290 Co264 2.155 1_545 S
O290 C292 1.240 . S
O291 Co264 2.096 . S
O291 C272 1.247 . S
C292 O289 1.244 . S
C292 O290 1.240 . S
H293 C267 0.931 . S
H294 C276 0.931 . S
H295 C280 0.929 . S
H296 C282 0.930 . S
Co297 N301 2.148 . S
Co297 N307 2.128 . S
Co297 N317 2.194 . S
Co297 O322 2.351 . S
Co297 O323 2.155 . S
Co297 O324 2.096 . S
C298 N301 1.301 . S
C298 N302 1.328 . S
C298 H303 0.930 . S
C299 C300 1.333 . S
C299 N301 1.317 . S
C299 H304 0.930 . S
C300 C299 1.333 . S
C300 N302 1.350 . S
C300 H326 0.931 . S
N301 Co297 2.148 . S
N301 C298 1.301 . S
N301 C299 1.317 . S
N302 C298 1.328 . S
N302 C300 1.350 . S
H303 C298 0.930 . S
H304 C299 0.930 . S
C305 O306 1.224 . S
C305 O324 1.247 . S
O306 C305 1.224 . S
N307 Co297 2.128 . S
N307 C308 1.355 . S
N307 C310 1.311 . S
C308 N307 1.355 . S
C308 C309 1.363 . S
C308 H320 0.929 . S
C309 C308 1.363 . S
C309 N311 1.375 . S
C309 H327 0.931 . S
C310 N307 1.311 . S
C310 N311 1.347 . S
C310 H321 0.929 . S
N311 C309 1.375 . S
N311 C310 1.347 . S
C312 C315 1.365 . S
C312 N317 1.328 . S
C312 H318 0.929 . S
C313 C314 1.362 . S
C313 C316 1.378 . S
C313 H328 0.929 . S
C314 C313 1.362 . S
C314 C315 1.366 . S
C315 C312 1.365 . S
C315 C314 1.366 . S
C315 H329 0.930 . S
C316 C313 1.378 . S
C316 N317 1.315 . S
C316 H319 0.930 . S
N317 Co297 2.194 . S
N317 C312 1.328 . S
N317 C316 1.315 . S
H318 C312 0.929 . S
H319 C316 0.930 . S
H320 C308 0.929 . S
H321 C310 0.929 . S
O322 Co297 2.351 . S
O322 C325 1.244 . S
O323 Co297 2.155 . S
O323 C325 1.240 . S
O324 Co297 2.096 . S
O324 C305 1.247 . S
C325 O322 1.244 . S
C325 O323 1.240 . S
H326 C300 0.931 . S
H327 C309 0.931 . S
H328 C313 0.929 . S
H329 C315 0.930 . S
Co330 N334 2.148 . S
Co330 N340 2.128 . S
Co330 N350 2.194 . S
Co330 O355 2.351 . S
Co330 O356 2.155 . S
Co330 O357 2.096 . S
C331 N334 1.301 . S
C331 N335 1.328 . S
C331 H336 0.930 . S
C332 C333 1.333 . S
C332 N334 1.317 . S
C332 H337 0.930 . S
C333 C332 1.333 . S
C333 N335 1.350 . S
C333 H359 0.931 . S
N334 Co330 2.148 . S
N334 C331 1.301 . S
N334 C332 1.317 . S
N335 C331 1.328 . S
N335 C333 1.350 . S
H336 C331 0.930 . S
H337 C332 0.930 . S
C338 O339 1.224 . S
C338 O357 1.247 . S
O339 C338 1.224 . S
N340 Co330 2.128 . S
N340 C341 1.355 . S
N340 C343 1.311 . S
C341 N340 1.355 . S
C341 C342 1.363 . S
C341 H353 0.929 . S
C342 C341 1.363 . S
C342 N344 1.375 . S
C342 H360 0.931 . S
C343 N340 1.311 . S
C343 N344 1.347 . S
C343 H354 0.929 . S
N344 C342 1.375 . S
N344 C343 1.347 . S
C345 C348 1.365 . S
C345 N350 1.328 . S
C345 H351 0.929 . S
C346 C347 1.362 . S
C346 C349 1.378 . S
C346 H361 0.929 . S
C347 C346 1.362 . S
C347 C348 1.366 . S
C348 C345 1.365 . S
C348 C347 1.366 . S
C348 H362 0.930 . S
C349 C346 1.378 . S
C349 N350 1.315 . S
C349 H352 0.930 . S
N350 Co330 2.194 . S
N350 C345 1.328 . S
N350 C349 1.315 . S
H351 C345 0.929 . S
H352 C349 0.930 . S
H353 C341 0.929 . S
H354 C343 0.929 . S
O355 Co330 2.351 . S
O355 C358 1.244 . S
O356 Co330 2.155 . S
O356 C358 1.240 . S
O357 Co330 2.096 . S
O357 C338 1.247 . S
C358 O355 1.244 . S
C358 O356 1.240 . S
H359 C333 0.931 . S
H360 C342 0.931 . S
H361 C346 0.929 . S
H362 C348 0.930 . S
Co363 N367 2.148 . S
Co363 N373 2.128 . S
Co363 N383 2.194 . S
Co363 O388 2.351 1_565 S
Co363 O389 2.155 1_565 S
Co363 O390 2.096 . S
C364 N367 1.301 . S
C364 N368 1.328 . S
C364 H369 0.930 1_565 S
C365 C366 1.333 . S
C365 N367 1.317 . S
C365 H370 0.930 . S
C366 C365 1.333 . S
C366 N368 1.350 . S
C366 H392 0.931 . S
N367 Co363 2.148 . S
N367 C364 1.301 . S
N367 C365 1.317 . S
N368 C364 1.328 . S
N368 C366 1.350 . S
H369 C364 0.930 1_545 S
H370 C365 0.930 . S
C371 O372 1.224 . S
C371 O390 1.247 . S
O372 C371 1.224 . S
N373 Co363 2.128 . S
N373 C374 1.355 . S
N373 C376 1.311 . S
C374 N373 1.355 . S
C374 C375 1.363 . S
C374 H386 0.928 1_565 S
C375 C374 1.363 . S
C375 N377 1.375 . S
C375 H393 0.931 . S
C376 N373 1.311 . S
C376 N377 1.347 . S
C376 H387 0.929 . S
N377 C375 1.375 . S
N377 C376 1.347 . S
C378 C381 1.365 . S
C378 N383 1.328 . S
C378 H384 0.929 . S
C379 C380 1.362 . S
C379 C382 1.378 . S
C379 H394 0.929 . S
C380 C379 1.362 . S
C380 C381 1.366 . S
C381 C378 1.365 . S
C381 C380 1.366 . S
C381 H395 0.930 . S
C382 C379 1.378 . S
C382 N383 1.315 . S
C382 H385 0.930 . S
N383 Co363 2.194 . S
N383 C378 1.328 . S
N383 C382 1.315 . S
H384 C378 0.929 . S
H385 C382 0.930 . S
H386 C374 0.928 1_545 S
H387 C376 0.929 . S
O388 Co363 2.351 1_545 S
O388 C391 1.244 . S
O389 Co363 2.155 1_545 S
O389 C391 1.240 . S
O390 Co363 2.096 . S
O390 C371 1.247 . S
C391 O388 1.244 . S
C391 O389 1.240 . S
H392 C366 0.931 . S
H393 C375 0.931 . S
H394 C379 0.929 . S
H395 C381 0.930 . S
Co396 N400 2.148 . S
Co396 N406 2.128 . S
Co396 N416 2.194 . S
Co396 O421 2.351 1_545 S
Co396 O422 2.155 1_545 S
Co396 O423 2.096 . S
C397 N400 1.301 . S
C397 N401 1.328 . S
C397 H402 0.930 1_545 S
C398 C399 1.333 . S
C398 N400 1.317 . S
C398 H403 0.930 . S
C399 C398 1.333 . S
C399 N401 1.350 . S
C399 H425 0.931 . S
N400 Co396 2.148 . S
N400 C397 1.301 . S
N400 C398 1.317 . S
N401 C397 1.328 . S
N401 C399 1.350 . S
H402 C397 0.930 1_565 S
H403 C398 0.930 . S
C404 O405 1.224 . S
C404 O423 1.247 . S
O405 C404 1.224 . S
N406 Co396 2.128 . S
N406 C407 1.355 . S
N406 C409 1.311 . S
C407 N406 1.355 . S
C407 C408 1.363 . S
C407 H419 0.928 1_545 S
C408 C407 1.363 . S
C408 N410 1.375 . S
C408 H426 0.931 . S
C409 N406 1.311 . S
C409 N410 1.347 . S
C409 H420 0.929 . S
N410 C408 1.375 . S
N410 C409 1.347 . S
C411 C414 1.365 . S
C411 N416 1.328 . S
C411 H417 0.929 . S
C412 C413 1.362 . S
C412 C415 1.378 . S
C412 H427 0.929 . S
C413 C412 1.362 . S
C413 C414 1.366 . S
C414 C411 1.365 . S
C414 C413 1.366 . S
C414 H428 0.930 . S
C415 C412 1.378 . S
C415 N416 1.315 . S
C415 H418 0.930 . S
N416 Co396 2.194 . S
N416 C411 1.328 . S
N416 C415 1.315 . S
H417 C411 0.929 . S
H418 C415 0.930 . S
H419 C407 0.928 1_565 S
H420 C409 0.929 . S
O421 Co396 2.351 1_565 S
O421 C424 1.244 . S
O422 Co396 2.155 1_565 S
O422 C424 1.240 . S
O423 Co396 2.096 . S
O423 C404 1.247 . S
C424 O421 1.244 . S
C424 O422 1.240 . S
H425 C399 0.931 . S
H426 C408 0.931 . S
H427 C412 0.929 . S
H428 C414 0.930 . S
Co429 N433 2.148 . S
Co429 N439 2.128 . S
Co429 N449 2.194 . S
Co429 O454 2.351 . S
Co429 O455 2.155 . S
Co429 O456 2.096 . S
C430 N433 1.301 . S
C430 N434 1.328 . S
C430 H435 0.930 . S
C431 C432 1.333 . S
C431 N433 1.317 . S
C431 H436 0.930 . S
C432 C431 1.333 . S
C432 N434 1.350 . S
C432 H458 0.931 . S
N433 Co429 2.148 . S
N433 C430 1.301 . S
N433 C431 1.317 . S
N434 C430 1.328 . S
N434 C432 1.350 . S
H435 C430 0.930 . S
H436 C431 0.930 . S
C437 O438 1.224 . S
C437 O456 1.247 . S
O438 C437 1.224 . S
N439 Co429 2.128 . S
N439 C440 1.355 . S
N439 C442 1.311 . S
C440 N439 1.355 . S
C440 C441 1.363 . S
C440 H452 0.929 . S
C441 C440 1.363 . S
C441 N443 1.375 . S
C441 H459 0.931 . S
C442 N439 1.311 . S
C442 N443 1.347 . S
C442 H453 0.929 . S
N443 C441 1.375 . S
N443 C442 1.347 . S
C444 C447 1.365 . S
C444 N449 1.328 . S
C444 H450 0.929 . S
C445 C446 1.362 . S
C445 C448 1.378 . S
C445 H460 0.929 . S
C446 C445 1.362 . S
C446 C447 1.366 . S
C447 C444 1.365 . S
C447 C446 1.366 . S
C447 H461 0.930 . S
C448 C445 1.378 . S
C448 N449 1.315 . S
C448 H451 0.930 . S
N449 Co429 2.194 . S
N449 C444 1.328 . S
N449 C448 1.315 . S
H450 C444 0.929 . S
H451 C448 0.930 . S
H452 C440 0.929 . S
H453 C442 0.929 . S
O454 Co429 2.351 . S
O454 C457 1.244 . S
O455 Co429 2.155 . S
O455 C457 1.240 . S
O456 Co429 2.096 . S
O456 C437 1.247 . S
C457 O454 1.244 . S
C457 O455 1.240 . S
H458 C432 0.931 . S
H459 C441 0.931 . S
H460 C445 0.929 . S
H461 C447 0.930 . S
Co462 N466 2.148 . S
Co462 N472 2.128 . S
Co462 N482 2.194 . S
Co462 O487 2.351 . S
Co462 O488 2.155 . S
Co462 O489 2.096 . S
C463 N466 1.301 . S
C463 N467 1.328 . S
C463 H468 0.930 . S
C464 C465 1.333 . S
C464 N466 1.317 . S
C464 H469 0.930 . S
C465 C464 1.333 . S
C465 N467 1.350 . S
C465 H491 0.931 . S
N466 Co462 2.148 . S
N466 C463 1.301 . S
N466 C464 1.317 . S
N467 C463 1.328 . S
N467 C465 1.350 . S
H468 C463 0.930 . S
H469 C464 0.930 . S
C470 O471 1.224 . S
C470 O489 1.247 . S
O471 C470 1.224 . S
N472 Co462 2.128 . S
N472 C473 1.355 . S
N472 C475 1.311 . S
C473 N472 1.355 . S
C473 C474 1.363 . S
C473 H485 0.929 . S
C474 C473 1.363 . S
C474 N476 1.375 . S
C474 H492 0.931 . S
C475 N472 1.311 . S
C475 N476 1.347 . S
C475 H486 0.929 . S
N476 C474 1.375 . S
N476 C475 1.347 . S
C477 C480 1.365 . S
C477 N482 1.328 . S
C477 H483 0.929 . S
C478 C479 1.362 . S
C478 C481 1.378 . S
C478 H493 0.929 . S
C479 C478 1.362 . S
C479 C480 1.366 . S
C480 C477 1.365 . S
C480 C479 1.366 . S
C480 H494 0.930 . S
C481 C478 1.378 . S
C481 N482 1.315 . S
C481 H484 0.930 . S
N482 Co462 2.194 . S
N482 C477 1.328 . S
N482 C481 1.315 . S
H483 C477 0.929 . S
H484 C481 0.930 . S
H485 C473 0.929 . S
H486 C475 0.929 . S
O487 Co462 2.351 . S
O487 C490 1.244 . S
O488 Co462 2.155 . S
O488 C490 1.240 . S
O489 Co462 2.096 . S
O489 C470 1.247 . S
C490 O487 1.244 . S
C490 O488 1.240 . S
H491 C465 0.931 . S
H492 C474 0.931 . S
H493 C478 0.929 . S
H494 C480 0.930 . S
Co495 N499 2.148 . S
Co495 N505 2.128 . S
Co495 N515 2.194 . S
Co495 O520 2.351 1_545 S
Co495 O521 2.155 1_545 S
Co495 O522 2.096 . S
C496 N499 1.301 . S
C496 N500 1.328 . S
C496 H501 0.930 1_545 S
C497 C498 1.333 . S
C497 N499 1.317 . S
C497 H502 0.930 . S
C498 C497 1.333 . S
C498 N500 1.350 . S
C498 H524 0.931 . S
N499 Co495 2.148 . S
N499 C496 1.301 . S
N499 C497 1.317 . S
N500 C496 1.328 . S
N500 C498 1.350 . S
H501 C496 0.930 1_565 S
H502 C497 0.930 . S
C503 O504 1.224 . S
C503 O522 1.247 . S
O504 C503 1.224 . S
N505 Co495 2.128 . S
N505 C506 1.355 . S
N505 C508 1.311 . S
C506 N505 1.355 . S
C506 C507 1.363 . S
C506 H518 0.928 1_545 S
C507 C506 1.363 . S
C507 N509 1.375 . S
C507 H525 0.931 . S
C508 N505 1.311 . S
C508 N509 1.347 . S
C508 H519 0.929 . S
N509 C507 1.375 . S
N509 C508 1.347 . S
C510 C513 1.365 . S
C510 N515 1.328 . S
C510 H516 0.929 . S
C511 C512 1.362 . S
C511 C514 1.378 . S
C511 H526 0.929 . S
C512 C511 1.362 . S
C512 C513 1.366 . S
C513 C510 1.365 . S
C513 C512 1.366 . S
C513 H527 0.930 . S
C514 C511 1.378 . S
C514 N515 1.315 . S
C514 H517 0.930 . S
N515 Co495 2.194 . S
N515 C510 1.328 . S
N515 C514 1.315 . S
H516 C510 0.929 . S
H517 C514 0.930 . S
H518 C506 0.928 1_565 S
H519 C508 0.929 . S
O520 Co495 2.351 1_565 S
O520 C523 1.244 . S
O521 Co495 2.155 1_565 S
O521 C523 1.240 . S
O522 Co495 2.096 . S
O522 C503 1.247 . S
C523 O520 1.244 . S
C523 O521 1.240 . S
H524 C498 0.931 . S
H525 C507 0.931 . S
H526 C511 0.929 . S
H527 C513 0.930 . S
Co528 N532 2.148 . S
Co528 N538 2.128 . S
Co528 N548 2.194 . S
Co528 O553 2.351 . S
Co528 O554 2.155 . S
Co528 O555 2.096 . S
C529 N532 1.301 . S
C529 N533 1.328 . S
C529 H534 0.930 . S
C530 C531 1.333 . S
C530 N532 1.317 . S
C530 H535 0.930 . S
C531 C530 1.333 . S
C531 N533 1.350 . S
C531 H557 0.931 . S
N532 Co528 2.148 . S
N532 C529 1.301 . S
N532 C530 1.317 . S
N533 C529 1.328 . S
N533 C531 1.350 . S
H534 C529 0.930 . S
H535 C530 0.930 . S
C536 O537 1.224 . S
C536 O555 1.247 . S
O537 C536 1.224 . S
N538 Co528 2.128 . S
N538 C539 1.355 . S
N538 C541 1.311 . S
C539 N538 1.355 . S
C539 C540 1.363 . S
C539 H551 0.929 . S
C540 C539 1.363 . S
C540 N542 1.375 . S
C540 H558 0.931 . S
C541 N538 1.311 . S
C541 N542 1.347 . S
C541 H552 0.929 . S
N542 C540 1.375 . S
N542 C541 1.347 . S
C543 C546 1.365 . S
C543 N548 1.328 . S
C543 H549 0.929 . S
C544 C545 1.362 . S
C544 C547 1.378 . S
C544 H559 0.929 . S
C545 C544 1.362 . S
C545 C546 1.366 . S
C546 C543 1.365 . S
C546 C545 1.366 . S
C546 H560 0.930 . S
C547 C544 1.378 . S
C547 N548 1.315 . S
C547 H550 0.930 . S
N548 Co528 2.194 . S
N548 C543 1.328 . S
N548 C547 1.315 . S
H549 C543 0.929 . S
H550 C547 0.930 . S
H551 C539 0.929 . S
H552 C541 0.929 . S
O553 Co528 2.351 . S
O553 C556 1.244 . S
O554 Co528 2.155 . S
O554 C556 1.240 . S
O555 Co528 2.096 . S
O555 C536 1.247 . S
C556 O553 1.244 . S
C556 O554 1.240 . S
H557 C531 0.931 . S
H558 C540 0.931 . S
H559 C544 0.929 . S
H560 C546 0.930 . S
Co561 N565 2.148 . S
Co561 N571 2.128 . S
Co561 N581 2.194 . S
Co561 O586 2.351 . S
Co561 O587 2.155 . S
Co561 O588 2.096 . S
C562 N565 1.301 . S
C562 N566 1.328 . S
C562 H567 0.930 . S
C563 C564 1.333 . S
C563 N565 1.317 . S
C563 H568 0.930 . S
C564 C563 1.333 . S
C564 N566 1.350 . S
C564 H590 0.931 . S
N565 Co561 2.148 . S
N565 C562 1.301 . S
N565 C563 1.317 . S
N566 C562 1.328 . S
N566 C564 1.350 . S
H567 C562 0.930 . S
H568 C563 0.930 . S
C569 O570 1.224 . S
C569 O588 1.247 . S
O570 C569 1.224 . S
N571 Co561 2.128 . S
N571 C572 1.355 . S
N571 C574 1.311 . S
C572 N571 1.355 . S
C572 C573 1.363 . S
C572 H584 0.929 . S
C573 C572 1.363 . S
C573 N575 1.375 . S
C573 H591 0.931 . S
C574 N571 1.311 . S
C574 N575 1.347 . S
C574 H585 0.929 . S
N575 C573 1.375 . S
N575 C574 1.347 . S
C576 C579 1.365 . S
C576 N581 1.328 . S
C576 H582 0.929 . S
C577 C578 1.362 . S
C577 C580 1.378 . S
C577 H592 0.929 . S
C578 C577 1.362 . S
C578 C579 1.366 . S
C579 C576 1.365 . S
C579 C578 1.366 . S
C579 H593 0.930 . S
C580 C577 1.378 . S
C580 N581 1.315 . S
C580 H583 0.930 . S
N581 Co561 2.194 . S
N581 C576 1.328 . S
N581 C580 1.315 . S
H582 C576 0.929 . S
H583 C580 0.930 . S
H584 C572 0.929 . S
H585 C574 0.929 . S
O586 Co561 2.351 . S
O586 C589 1.244 . S
O587 Co561 2.155 . S
O587 C589 1.240 . S
O588 Co561 2.096 . S
O588 C569 1.247 . S
C589 O586 1.244 . S
C589 O587 1.240 . S
H590 C564 0.931 . S
H591 C573 0.931 . S
H592 C577 0.929 . S
H593 C579 0.930 . S
Co594 N598 2.148 . S
Co594 N604 2.128 . S
Co594 N614 2.194 . S
Co594 O619 2.351 . S
Co594 O620 2.155 . S
Co594 O621 2.096 . S
C595 N598 1.301 . S
C595 N599 1.328 . S
C595 H600 0.930 . S
C596 C597 1.333 . S
C596 N598 1.317 . S
C596 H601 0.930 . S
C597 C596 1.333 . S
C597 N599 1.350 . S
C597 H623 0.931 . S
N598 Co594 2.148 . S
N598 C595 1.301 . S
N598 C596 1.317 . S
N599 C595 1.328 . S
N599 C597 1.350 . S
H600 C595 0.930 . S
H601 C596 0.930 . S
C602 O603 1.224 . S
C602 O621 1.247 . S
O603 C602 1.224 . S
N604 Co594 2.128 . S
N604 C605 1.355 . S
N604 C607 1.311 . S
C605 N604 1.355 . S
C605 C606 1.363 . S
C605 H617 0.929 . S
C606 C605 1.363 . S
C606 N608 1.375 . S
C606 H624 0.931 . S
C607 N604 1.311 . S
C607 N608 1.347 . S
C607 H618 0.929 . S
N608 C606 1.375 . S
N608 C607 1.347 . S
C609 C612 1.365 . S
C609 N614 1.328 . S
C609 H615 0.929 . S
C610 C611 1.362 . S
C610 C613 1.378 . S
C610 H625 0.929 . S
C611 C610 1.362 . S
C611 C612 1.366 . S
C612 C609 1.365 . S
C612 C611 1.366 . S
C612 H626 0.930 . S
C613 C610 1.378 . S
C613 N614 1.315 . S
C613 H616 0.930 . S
N614 Co594 2.194 . S
N614 C609 1.328 . S
N614 C613 1.315 . S
H615 C609 0.929 . S
H616 C613 0.930 . S
H617 C605 0.929 . S
H618 C607 0.929 . S
O619 Co594 2.351 . S
O619 C622 1.244 . S
O620 Co594 2.155 . S
O620 C622 1.240 . S
O621 Co594 2.096 . S
O621 C602 1.247 . S
C622 O619 1.244 . S
C622 O620 1.240 . S
H623 C597 0.931 . S
H624 C606 0.931 . S
H625 C610 0.929 . S
H626 C612 0.930 . S
Co627 N631 2.148 . S
Co627 N637 2.128 . S
Co627 N647 2.194 . S
Co627 O652 2.351 . S
Co627 O653 2.155 . S
Co627 O654 2.096 . S
C628 N631 1.301 . S
C628 N632 1.328 . S
C628 H633 0.930 . S
C629 C630 1.333 . S
C629 N631 1.317 . S
C629 H634 0.930 . S
C630 C629 1.333 . S
C630 N632 1.350 . S
C630 H656 0.931 . S
N631 Co627 2.148 . S
N631 C628 1.301 . S
N631 C629 1.317 . S
N632 C628 1.328 . S
N632 C630 1.350 . S
H633 C628 0.930 . S
H634 C629 0.930 . S
C635 O636 1.224 . S
C635 O654 1.247 . S
O636 C635 1.224 . S
N637 Co627 2.128 . S
N637 C638 1.355 . S
N637 C640 1.311 . S
C638 N637 1.355 . S
C638 C639 1.363 . S
C638 H650 0.929 . S
C639 C638 1.363 . S
C639 N641 1.375 . S
C639 H657 0.931 . S
C640 N637 1.311 . S
C640 N641 1.347 . S
C640 H651 0.929 . S
N641 C639 1.375 . S
N641 C640 1.347 . S
C642 C645 1.365 . S
C642 N647 1.328 . S
C642 H648 0.929 . S
C643 C644 1.362 . S
C643 C646 1.378 . S
C643 H658 0.929 . S
C644 C643 1.362 . S
C644 C645 1.366 . S
C645 C642 1.365 . S
C645 C644 1.366 . S
C645 H659 0.930 . S
C646 C643 1.378 . S
C646 N647 1.315 . S
C646 H649 0.930 . S
N647 Co627 2.194 . S
N647 C642 1.328 . S
N647 C646 1.315 . S
H648 C642 0.929 . S
H649 C646 0.930 . S
H650 C638 0.929 . S
H651 C640 0.929 . S
O652 Co627 2.351 . S
O652 C655 1.244 . S
O653 Co627 2.155 . S
O653 C655 1.240 . S
O654 Co627 2.096 . S
O654 C635 1.247 . S
C655 O652 1.244 . S
C655 O653 1.240 . S
H656 C630 0.931 . S
H657 C639 0.931 . S
H658 C643 0.929 . S
H659 C645 0.930 . S
Co660 N664 2.148 . S
Co660 N670 2.128 . S
Co660 N680 2.194 . S
Co660 O685 2.351 . S
Co660 O686 2.155 . S
Co660 O687 2.096 . S
C661 N664 1.301 . S
C661 N665 1.328 . S
C661 H666 0.930 . S
C662 C663 1.333 . S
C662 N664 1.317 . S
C662 H667 0.930 . S
C663 C662 1.333 . S
C663 N665 1.350 . S
C663 H689 0.931 . S
N664 Co660 2.148 . S
N664 C661 1.301 . S
N664 C662 1.317 . S
N665 C661 1.328 . S
N665 C663 1.350 . S
H666 C661 0.930 . S
H667 C662 0.930 . S
C668 O669 1.224 . S
C668 O687 1.247 . S
O669 C668 1.224 . S
N670 Co660 2.128 . S
N670 C671 1.355 . S
N670 C673 1.311 . S
C671 N670 1.355 . S
C671 C672 1.363 . S
C671 H683 0.929 . S
C672 C671 1.363 . S
C672 N674 1.375 . S
C672 H690 0.931 . S
C673 N670 1.311 . S
C673 N674 1.347 . S
C673 H684 0.929 . S
N674 C672 1.375 . S
N674 C673 1.347 . S
C675 C678 1.365 . S
C675 N680 1.328 . S
C675 H681 0.929 . S
C676 C677 1.362 . S
C676 C679 1.378 . S
C676 H691 0.929 . S
C677 C676 1.362 . S
C677 C678 1.366 . S
C678 C675 1.365 . S
C678 C677 1.366 . S
C678 H692 0.930 . S
C679 C676 1.378 . S
C679 N680 1.315 . S
C679 H682 0.930 . S
N680 Co660 2.194 . S
N680 C675 1.328 . S
N680 C679 1.315 . S
H681 C675 0.929 . S
H682 C679 0.930 . S
H683 C671 0.929 . S
H684 C673 0.929 . S
O685 Co660 2.351 . S
O685 C688 1.244 . S
O686 Co660 2.155 . S
O686 C688 1.240 . S
O687 Co660 2.096 . S
O687 C668 1.247 . S
C688 O685 1.244 . S
C688 O686 1.240 . S
H689 C663 0.931 . S
H690 C672 0.931 . S
H691 C676 0.929 . S
H692 C678 0.930 . S
Co693 N697 2.148 . S
Co693 N703 2.128 . S
Co693 N713 2.194 . S
Co693 O718 2.351 . S
Co693 O719 2.155 . S
Co693 O720 2.096 . S
C694 N697 1.301 . S
C694 N698 1.328 . S
C694 H699 0.930 . S
C695 C696 1.333 . S
C695 N697 1.317 . S
C695 H700 0.930 . S
C696 C695 1.333 . S
C696 N698 1.350 . S
C696 H722 0.931 . S
N697 Co693 2.148 . S
N697 C694 1.301 . S
N697 C695 1.317 . S
N698 C694 1.328 . S
N698 C696 1.350 . S
H699 C694 0.930 . S
H700 C695 0.930 . S
C701 O702 1.224 . S
C701 O720 1.247 . S
O702 C701 1.224 . S
N703 Co693 2.128 . S
N703 C704 1.355 . S
N703 C706 1.311 . S
C704 N703 1.355 . S
C704 C705 1.363 . S
C704 H716 0.929 . S
C705 C704 1.363 . S
C705 N707 1.375 . S
C705 H723 0.931 . S
C706 N703 1.311 . S
C706 N707 1.347 . S
C706 H717 0.929 . S
N707 C705 1.375 . S
N707 C706 1.347 . S
C708 C711 1.365 . S
C708 N713 1.328 . S
C708 H714 0.929 . S
C709 C710 1.362 . S
C709 C712 1.378 . S
C709 H724 0.929 . S
C710 C709 1.362 . S
C710 C711 1.366 . S
C711 C708 1.365 . S
C711 C710 1.366 . S
C711 H725 0.930 . S
C712 C709 1.378 . S
C712 N713 1.315 . S
C712 H715 0.930 . S
N713 Co693 2.194 . S
N713 C708 1.328 . S
N713 C712 1.315 . S
H714 C708 0.929 . S
H715 C712 0.930 . S
H716 C704 0.929 . S
H717 C706 0.929 . S
O718 Co693 2.351 . S
O718 C721 1.244 . S
O719 Co693 2.155 . S
O719 C721 1.240 . S
O720 Co693 2.096 . S
O720 C701 1.247 . S
C721 O718 1.244 . S
C721 O719 1.240 . S
H722 C696 0.931 . S
H723 C705 0.931 . S
H724 C709 0.929 . S
H725 C711 0.930 . S
Co726 N730 2.148 . S
Co726 N736 2.128 . S
Co726 N746 2.194 . S
Co726 O751 2.351 . S
Co726 O752 2.155 . S
Co726 O753 2.096 . S
C727 N730 1.301 . S
C727 N731 1.328 . S
C727 H732 0.930 . S
C728 C729 1.333 . S
C728 N730 1.317 . S
C728 H733 0.930 . S
C729 C728 1.333 . S
C729 N731 1.350 . S
C729 H755 0.931 . S
N730 Co726 2.148 . S
N730 C727 1.301 . S
N730 C728 1.317 . S
N731 C727 1.328 . S
N731 C729 1.350 . S
H732 C727 0.930 . S
H733 C728 0.930 . S
C734 O735 1.224 . S
C734 O753 1.247 . S
O735 C734 1.224 . S
N736 Co726 2.128 . S
N736 C737 1.355 . S
N736 C739 1.311 . S
C737 N736 1.355 . S
C737 C738 1.363 . S
C737 H749 0.929 . S
C738 C737 1.363 . S
C738 N740 1.375 . S
C738 H756 0.931 . S
C739 N736 1.311 . S
C739 N740 1.347 . S
C739 H750 0.929 . S
N740 C738 1.375 . S
N740 C739 1.347 . S
C741 C744 1.365 . S
C741 N746 1.328 . S
C741 H747 0.929 . S
C742 C743 1.362 . S
C742 C745 1.378 . S
C742 H757 0.929 . S
C743 C742 1.362 . S
C743 C744 1.366 . S
C744 C741 1.365 . S
C744 C743 1.366 . S
C744 H758 0.930 . S
C745 C742 1.378 . S
C745 N746 1.315 . S
C745 H748 0.930 . S
N746 Co726 2.194 . S
N746 C741 1.328 . S
N746 C745 1.315 . S
H747 C741 0.929 . S
H748 C745 0.930 . S
H749 C737 0.929 . S
H750 C739 0.929 . S
O751 Co726 2.351 . S
O751 C754 1.244 . S
O752 Co726 2.155 . S
O752 C754 1.240 . S
O753 Co726 2.096 . S
O753 C734 1.247 . S
C754 O751 1.244 . S
C754 O752 1.240 . S
H755 C729 0.931 . S
H756 C738 0.931 . S
H757 C742 0.929 . S
H758 C744 0.930 . S
Co759 N763 2.148 . S
Co759 N769 2.128 . S
Co759 N779 2.194 . S
Co759 O784 2.351 . S
Co759 O785 2.155 . S
Co759 O786 2.096 . S
C760 N763 1.301 . S
C760 N764 1.328 . S
C760 H765 0.930 . S
C761 C762 1.333 . S
C761 N763 1.317 . S
C761 H766 0.930 . S
C762 C761 1.333 . S
C762 N764 1.350 . S
C762 H788 0.931 . S
N763 Co759 2.148 . S
N763 C760 1.301 . S
N763 C761 1.317 . S
N764 C760 1.328 . S
N764 C762 1.350 . S
H765 C760 0.930 . S
H766 C761 0.930 . S
C767 O768 1.224 . S
C767 O786 1.247 . S
O768 C767 1.224 . S
N769 Co759 2.128 . S
N769 C770 1.355 . S
N769 C772 1.311 . S
C770 N769 1.355 . S
C770 C771 1.363 . S
C770 H782 0.929 . S
C771 C770 1.363 . S
C771 N773 1.375 . S
C771 H789 0.931 . S
C772 N769 1.311 . S
C772 N773 1.347 . S
C772 H783 0.929 . S
N773 C771 1.375 . S
N773 C772 1.347 . S
C774 C777 1.365 . S
C774 N779 1.328 . S
C774 H780 0.929 . S
C775 C776 1.362 . S
C775 C778 1.378 . S
C775 H790 0.929 . S
C776 C775 1.362 . S
C776 C777 1.366 . S
C777 C774 1.365 . S
C777 C776 1.366 . S
C777 H791 0.930 . S
C778 C775 1.378 . S
C778 N779 1.315 . S
C778 H781 0.930 . S
N779 Co759 2.194 . S
N779 C774 1.328 . S
N779 C778 1.315 . S
H780 C774 0.929 . S
H781 C778 0.930 . S
H782 C770 0.929 . S
H783 C772 0.929 . S
O784 Co759 2.351 . S
O784 C787 1.244 . S
O785 Co759 2.155 . S
O785 C787 1.240 . S
O786 Co759 2.096 . S
O786 C767 1.247 . S
C787 O784 1.244 . S
C787 O785 1.240 . S
H788 C762 0.931 . S
H789 C771 0.931 . S
H790 C775 0.929 . S
H791 C777 0.930 . S
Co792 N796 2.148 . S
Co792 N802 2.128 . S
Co792 N812 2.194 . S
Co792 O817 2.351 1_565 S
Co792 O818 2.155 1_565 S
Co792 O819 2.096 1_554 S
C793 N796 1.301 . S
C793 N797 1.328 . S
C793 H798 0.930 1_565 S
C794 C795 1.333 . S
C794 N796 1.317 . S
C794 H799 0.930 . S
C795 C794 1.333 . S
C795 N797 1.350 . S
C795 H821 0.931 . S
N796 Co792 2.148 . S
N796 C793 1.301 . S
N796 C794 1.317 . S
N797 C793 1.328 . S
N797 C795 1.350 . S
H798 C793 0.930 1_545 S
H799 C794 0.930 . S
C800 O801 1.224 1_556 S
C800 O819 1.247 . S
O801 C800 1.224 1_554 S
N802 Co792 2.128 . S
N802 C803 1.355 . S
N802 C805 1.311 . S
C803 N802 1.355 . S
C803 C804 1.363 . S
C803 H815 0.928 1_565 S
C804 C803 1.363 . S
C804 N806 1.375 . S
C804 H822 0.931 . S
C805 N802 1.311 . S
C805 N806 1.347 . S
C805 H816 0.929 1_554 S
N806 C804 1.375 . S
N806 C805 1.347 . S
C807 C810 1.365 . S
C807 N812 1.328 . S
C807 H813 0.929 . S
C808 C809 1.362 . S
C808 C811 1.378 . S
C808 H823 0.929 . S
C809 C808 1.362 . S
C809 C810 1.366 . S
C810 C807 1.365 . S
C810 C809 1.366 . S
C810 H824 0.930 . S
C811 C808 1.378 . S
C811 N812 1.315 . S
C811 H814 0.930 . S
N812 Co792 2.194 . S
N812 C807 1.328 . S
N812 C811 1.315 . S
H813 C807 0.929 . S
H814 C811 0.930 . S
H815 C803 0.928 1_545 S
H816 C805 0.929 1_556 S
O817 Co792 2.351 1_545 S
O817 C820 1.244 . S
O818 Co792 2.155 1_545 S
O818 C820 1.240 . S
O819 Co792 2.096 1_556 S
O819 C800 1.247 . S
C820 O817 1.244 . S
C820 O818 1.240 . S
H821 C795 0.931 . S
H822 C804 0.931 . S
H823 C808 0.929 . S
H824 C810 0.930 . S
Co825 N829 2.148 . S
Co825 N835 2.128 . S
Co825 N845 2.194 . S
Co825 O850 2.351 . S
Co825 O851 2.155 . S
Co825 O852 2.096 1_554 S
C826 N829 1.301 . S
C826 N830 1.328 . S
C826 H831 0.930 . S
C827 C828 1.333 . S
C827 N829 1.317 . S
C827 H832 0.930 . S
C828 C827 1.333 . S
C828 N830 1.350 . S
C828 H854 0.931 . S
N829 Co825 2.148 . S
N829 C826 1.301 . S
N829 C827 1.317 . S
N830 C826 1.328 . S
N830 C828 1.350 . S
H831 C826 0.930 . S
H832 C827 0.930 . S
C833 O834 1.224 1_556 S
C833 O852 1.247 . S
O834 C833 1.224 1_554 S
N835 Co825 2.128 . S
N835 C836 1.355 . S
N835 C838 1.311 . S
C836 N835 1.355 . S
C836 C837 1.363 . S
C836 H848 0.929 . S
C837 C836 1.363 . S
C837 N839 1.375 . S
C837 H855 0.931 . S
C838 N835 1.311 . S
C838 N839 1.347 . S
C838 H849 0.929 1_554 S
N839 C837 1.375 . S
N839 C838 1.347 . S
C840 C843 1.365 . S
C840 N845 1.328 . S
C840 H846 0.929 . S
C841 C842 1.362 . S
C841 C844 1.378 . S
C841 H856 0.929 . S
C842 C841 1.362 . S
C842 C843 1.366 . S
C843 C840 1.365 . S
C843 C842 1.366 . S
C843 H857 0.930 . S
C844 C841 1.378 . S
C844 N845 1.315 . S
C844 H847 0.930 . S
N845 Co825 2.194 . S
N845 C840 1.328 . S
N845 C844 1.315 . S
H846 C840 0.929 . S
H847 C844 0.930 . S
H848 C836 0.929 . S
H849 C838 0.929 1_556 S
O850 Co825 2.351 . S
O850 C853 1.244 . S
O851 Co825 2.155 . S
O851 C853 1.240 . S
O852 Co825 2.096 1_556 S
O852 C833 1.247 . S
C853 O850 1.244 . S
C853 O851 1.240 . S
H854 C828 0.931 . S
H855 C837 0.931 . S
H856 C841 0.929 . S
H857 C843 0.930 . S
Co858 N862 2.148 . S
Co858 N868 2.128 . S
Co858 N878 2.194 . S
Co858 O883 2.351 . S
Co858 O884 2.155 . S
Co858 O885 2.096 . S
C859 N862 1.301 . S
C859 N863 1.328 . S
C859 H864 0.930 . S
C860 C861 1.333 . S
C860 N862 1.317 . S
C860 H865 0.930 . S
C861 C860 1.333 . S
C861 N863 1.350 . S
C861 H887 0.931 . S
N862 Co858 2.148 . S
N862 C859 1.301 . S
N862 C860 1.317 . S
N863 C859 1.328 . S
N863 C861 1.350 . S
H864 C859 0.930 . S
H865 C860 0.930 . S
C866 O867 1.224 . S
C866 O885 1.247 . S
O867 C866 1.224 . S
N868 Co858 2.128 . S
N868 C869 1.355 . S
N868 C871 1.311 . S
C869 N868 1.355 . S
C869 C870 1.363 . S
C869 H881 0.929 . S
C870 C869 1.363 . S
C870 N872 1.375 . S
C870 H888 0.931 . S
C871 N868 1.311 . S
C871 N872 1.347 . S
C871 H882 0.929 . S
N872 C870 1.375 . S
N872 C871 1.347 . S
C873 C876 1.365 1_554 S
C873 N878 1.328 . S
C873 H879 0.929 . S
C874 C875 1.362 1_554 S
C874 C877 1.378 . S
C874 H889 0.929 . S
C875 C874 1.362 1_556 S
C875 C876 1.366 . S
C876 C873 1.365 1_556 S
C876 C875 1.366 . S
C876 H890 0.930 . S
C877 C874 1.378 . S
C877 N878 1.315 . S
C877 H880 0.930 . S
N878 Co858 2.194 . S
N878 C873 1.328 . S
N878 C877 1.315 . S
H879 C873 0.929 . S
H880 C877 0.930 . S
H881 C869 0.929 . S
H882 C871 0.929 . S
O883 Co858 2.351 . S
O883 C886 1.244 . S
O884 Co858 2.155 . S
O884 C886 1.240 . S
O885 Co858 2.096 . S
O885 C866 1.247 . S
C886 O883 1.244 . S
C886 O884 1.240 . S
H887 C861 0.931 . S
H888 C870 0.931 . S
H889 C874 0.929 . S
H890 C876 0.930 . S
Co891 N895 2.148 . S
Co891 N901 2.128 . S
Co891 N911 2.194 . S
Co891 O916 2.351 1_565 S
Co891 O917 2.155 1_565 S
Co891 O918 2.096 . S
C892 N895 1.301 . S
C892 N896 1.328 . S
C892 H897 0.930 1_565 S
C893 C894 1.333 . S
C893 N895 1.317 . S
C893 H898 0.930 . S
C894 C893 1.333 . S
C894 N896 1.350 . S
C894 H920 0.931 . S
N895 Co891 2.148 . S
N895 C892 1.301 . S
N895 C893 1.317 . S
N896 C892 1.328 . S
N896 C894 1.350 . S
H897 C892 0.930 1_545 S
H898 C893 0.930 . S
C899 O900 1.224 . S
C899 O918 1.247 . S
O900 C899 1.224 . S
N901 Co891 2.128 . S
N901 C902 1.355 . S
N901 C904 1.311 . S
C902 N901 1.355 . S
C902 C903 1.363 . S
C902 H914 0.928 1_565 S
C903 C902 1.363 . S
C903 N905 1.375 . S
C903 H921 0.931 . S
C904 N901 1.311 . S
C904 N905 1.347 . S
C904 H915 0.929 . S
N905 C903 1.375 . S
N905 C904 1.347 . S
C906 C909 1.365 1_554 S
C906 N911 1.328 . S
C906 H912 0.929 . S
C907 C908 1.362 1_554 S
C907 C910 1.378 . S
C907 H922 0.929 . S
C908 C907 1.362 1_556 S
C908 C909 1.366 . S
C909 C906 1.365 1_556 S
C909 C908 1.366 . S
C909 H923 0.930 . S
C910 C907 1.378 . S
C910 N911 1.315 . S
C910 H913 0.930 . S
N911 Co891 2.194 . S
N911 C906 1.328 . S
N911 C910 1.315 . S
H912 C906 0.929 . S
H913 C910 0.930 . S
H914 C902 0.928 1_545 S
H915 C904 0.929 . S
O916 Co891 2.351 1_545 S
O916 C919 1.244 . S
O917 Co891 2.155 1_545 S
O917 C919 1.240 . S
O918 Co891 2.096 . S
O918 C899 1.247 . S
C919 O916 1.244 . S
C919 O917 1.240 . S
H920 C894 0.931 . S
H921 C903 0.931 . S
H922 C907 0.929 . S
H923 C909 0.930 . S
Co924 N928 2.148 . S
Co924 N934 2.128 . S
Co924 N944 2.194 . S
Co924 O949 2.351 1_545 S
Co924 O950 2.155 1_545 S
Co924 O951 2.096 1_556 S
C925 N928 1.301 . S
C925 N929 1.328 . S
C925 H930 0.930 1_545 S
C926 C927 1.333 . S
C926 N928 1.317 . S
C926 H931 0.930 . S
C927 C926 1.333 . S
C927 N929 1.350 . S
C927 H953 0.931 . S
N928 Co924 2.148 . S
N928 C925 1.301 . S
N928 C926 1.317 . S
N929 C925 1.328 . S
N929 C927 1.350 . S
H930 C925 0.930 1_565 S
H931 C926 0.930 . S
C932 O933 1.224 1_554 S
C932 O951 1.247 . S
O933 C932 1.224 1_556 S
N934 Co924 2.128 . S
N934 C935 1.355 . S
N934 C937 1.311 . S
C935 N934 1.355 . S
C935 C936 1.363 . S
C935 H947 0.928 1_545 S
C936 C935 1.363 . S
C936 N938 1.375 . S
C936 H954 0.931 . S
C937 N934 1.311 . S
C937 N938 1.347 . S
C937 H948 0.929 1_556 S
N938 C936 1.375 . S
N938 C937 1.347 . S
C939 C942 1.365 . S
C939 N944 1.328 . S
C939 H945 0.929 . S
C940 C941 1.362 . S
C940 C943 1.378 . S
C940 H955 0.929 . S
C941 C940 1.362 . S
C941 C942 1.366 . S
C942 C939 1.365 . S
C942 C941 1.366 . S
C942 H956 0.930 . S
C943 C940 1.378 . S
C943 N944 1.315 . S
C943 H946 0.930 . S
N944 Co924 2.194 . S
N944 C939 1.328 . S
N944 C943 1.315 . S
H945 C939 0.929 . S
H946 C943 0.930 . S
H947 C935 0.928 1_565 S
H948 C937 0.929 1_554 S
O949 Co924 2.351 1_565 S
O949 C952 1.244 . S
O950 Co924 2.155 1_565 S
O950 C952 1.240 . S
O951 Co924 2.096 1_554 S
O951 C932 1.247 . S
C952 O949 1.244 . S
C952 O950 1.240 . S
H953 C927 0.931 . S
H954 C936 0.931 . S
H955 C940 0.929 . S
H956 C942 0.930 . S
Co957 N961 2.148 . S
Co957 N967 2.128 . S
Co957 N977 2.194 . S
Co957 O982 2.351 . S
Co957 O983 2.155 . S
Co957 O984 2.096 1_556 S
C958 N961 1.301 . S
C958 N962 1.328 . S
C958 H963 0.930 . S
C959 C960 1.333 . S
C959 N961 1.317 . S
C959 H964 0.930 . S
C960 C959 1.333 . S
C960 N962 1.350 . S
C960 H986 0.931 . S
N961 Co957 2.148 . S
N961 C958 1.301 . S
N961 C959 1.317 . S
N962 C958 1.328 . S
N962 C960 1.350 . S
H963 C958 0.930 . S
H964 C959 0.930 . S
C965 O966 1.224 1_554 S
C965 O984 1.247 . S
O966 C965 1.224 1_556 S
N967 Co957 2.128 . S
N967 C968 1.355 . S
N967 C970 1.311 . S
C968 N967 1.355 . S
C968 C969 1.363 . S
C968 H980 0.929 . S
C969 C968 1.363 . S
C969 N971 1.375 . S
C969 H987 0.931 . S
C970 N967 1.311 . S
C970 N971 1.347 . S
C970 H981 0.929 1_556 S
N971 C969 1.375 . S
N971 C970 1.347 . S
C972 C975 1.365 . S
C972 N977 1.328 . S
C972 H978 0.929 . S
C973 C974 1.362 . S
C973 C976 1.378 . S
C973 H988 0.929 . S
C974 C973 1.362 . S
C974 C975 1.366 . S
C975 C972 1.365 . S
C975 C974 1.366 . S
C975 H989 0.930 . S
C976 C973 1.378 . S
C976 N977 1.315 . S
C976 H979 0.930 . S
N977 Co957 2.194 . S
N977 C972 1.328 . S
N977 C976 1.315 . S
H978 C972 0.929 . S
H979 C976 0.930 . S
H980 C968 0.929 . S
H981 C970 0.929 1_554 S
O982 Co957 2.351 . S
O982 C985 1.244 . S
O983 Co957 2.155 . S
O983 C985 1.240 . S
O984 Co957 2.096 1_554 S
O984 C965 1.247 . S
C985 O982 1.244 . S
C985 O983 1.240 . S
H986 C960 0.931 . S
H987 C969 0.931 . S
H988 C973 0.929 . S
H989 C975 0.930 . S
Co990 N994 2.148 . S
Co990 N1000 2.128 . S
Co990 N1010 2.194 . S
Co990 O1015 2.351 . S
Co990 O1016 2.155 . S
Co990 O1017 2.096 . S
C991 N994 1.301 . S
C991 N995 1.328 . S
C991 H996 0.930 . S
C992 C993 1.333 . S
C992 N994 1.317 . S
C992 H997 0.930 . S
C993 C992 1.333 . S
C993 N995 1.350 . S
C993 H1019 0.931 . S
N994 Co990 2.148 . S
N994 C991 1.301 . S
N994 C992 1.317 . S
N995 C991 1.328 . S
N995 C993 1.350 . S
H996 C991 0.930 . S
H997 C992 0.930 . S
C998 O999 1.224 . S
C998 O1017 1.247 . S
O999 C998 1.224 . S
N1000 Co990 2.128 . S
N1000 C1001 1.355 . S
N1000 C1003 1.311 . S
C1001 N1000 1.355 . S
C1001 C1002 1.363 . S
C1001 H1013 0.929 . S
C1002 C1001 1.363 . S
C1002 N1004 1.375 . S
C1002 H1020 0.931 . S
C1003 N1000 1.311 . S
C1003 N1004 1.347 . S
C1003 H1014 0.929 . S
N1004 C1002 1.375 . S
N1004 C1003 1.347 . S
C1005 C1008 1.365 1_556 S
C1005 N1010 1.328 . S
C1005 H1011 0.929 . S
C1006 C1007 1.362 1_556 S
C1006 C1009 1.378 . S
C1006 H1021 0.929 . S
C1007 C1006 1.362 1_554 S
C1007 C1008 1.366 . S
C1008 C1005 1.365 1_554 S
C1008 C1007 1.366 . S
C1008 H1022 0.930 . S
C1009 C1006 1.378 . S
C1009 N1010 1.315 . S
C1009 H1012 0.930 . S
N1010 Co990 2.194 . S
N1010 C1005 1.328 . S
N1010 C1009 1.315 . S
H1011 C1005 0.929 . S
H1012 C1009 0.930 . S
H1013 C1001 0.929 . S
H1014 C1003 0.929 . S
O1015 Co990 2.351 . S
O1015 C1018 1.244 . S
O1016 Co990 2.155 . S
O1016 C1018 1.240 . S
O1017 Co990 2.096 . S
O1017 C998 1.247 . S
C1018 O1015 1.244 . S
C1018 O1016 1.240 . S
H1019 C993 0.931 . S
H1020 C1002 0.931 . S
H1021 C1006 0.929 . S
H1022 C1008 0.930 . S
Co1023 N1027 2.148 . S
Co1023 N1033 2.128 . S
Co1023 N1043 2.194 . S
Co1023 O1048 2.351 1_545 S
Co1023 O1049 2.155 1_545 S
Co1023 O1050 2.096 . S
C1024 N1027 1.301 . S
C1024 N1028 1.328 . S
C1024 H1029 0.930 1_545 S
C1025 C1026 1.333 . S
C1025 N1027 1.317 . S
C1025 H1030 0.930 . S
C1026 C1025 1.333 . S
C1026 N1028 1.350 . S
C1026 H1052 0.931 . S
N1027 Co1023 2.148 . S
N1027 C1024 1.301 . S
N1027 C1025 1.317 . S
N1028 C1024 1.328 . S
N1028 C1026 1.350 . S
H1029 C1024 0.930 1_565 S
H1030 C1025 0.930 . S
C1031 O1032 1.224 . S
C1031 O1050 1.247 . S
O1032 C1031 1.224 . S
N1033 Co1023 2.128 . S
N1033 C1034 1.355 . S
N1033 C1036 1.311 . S
C1034 N1033 1.355 . S
C1034 C1035 1.363 . S
C1034 H1046 0.928 1_545 S
C1035 C1034 1.363 . S
C1035 N1037 1.375 . S
C1035 H1053 0.931 . S
C1036 N1033 1.311 . S
C1036 N1037 1.347 . S
C1036 H1047 0.929 . S
N1037 C1035 1.375 . S
N1037 C1036 1.347 . S
C1038 C1041 1.365 1_556 S
C1038 N1043 1.328 . S
C1038 H1044 0.929 . S
C1039 C1040 1.362 1_556 S
C1039 C1042 1.378 . S
C1039 H1054 0.929 . S
C1040 C1039 1.362 1_554 S
C1040 C1041 1.366 . S
C1041 C1038 1.365 1_554 S
C1041 C1040 1.366 . S
C1041 H1055 0.930 . S
C1042 C1039 1.378 . S
C1042 N1043 1.315 . S
C1042 H1045 0.930 . S
N1043 Co1023 2.194 . S
N1043 C1038 1.328 . S
N1043 C1042 1.315 . S
H1044 C1038 0.929 . S
H1045 C1042 0.930 . S
H1046 C1034 0.928 1_565 S
H1047 C1036 0.929 . S
O1048 Co1023 2.351 1_565 S
O1048 C1051 1.244 . S
O1049 Co1023 2.155 1_565 S
O1049 C1051 1.240 . S
O1050 Co1023 2.096 . S
O1050 C1031 1.247 . S
C1051 O1048 1.244 . S
C1051 O1049 1.240 . S
H1052 C1026 0.931 . S
H1053 C1035 0.931 . S
H1054 C1039 0.929 . S
H1055 C1041 0.930 . S
C1056 C1057 1.387 . S
C1056 H1060 0.950 . S
C1056 C1065 1.390 . S
C1057 C1056 1.387 . S
C1057 C1059 1.387 . S
H1058 C1065 0.950 . S
C1059 C1057 1.387 . S
C1059 C1061 1.390 . S
C1059 H1063 0.950 . S
H1060 C1056 0.950 . S
C1061 C1059 1.390 . S
C1061 C1062 1.387 . S
C1061 H1064 0.950 . S
C1062 C1061 1.387 . S
C1062 C1065 1.387 . S
H1063 C1059 0.950 . S
H1064 C1061 0.950 . S
C1065 C1056 1.390 . S
C1065 H1058 0.950 . S
C1065 C1062 1.387 . S
C1066 C1067 1.387 . S
C1066 H1070 0.950 . S
C1066 C1075 1.390 . S
C1067 C1066 1.387 . S
C1067 C1069 1.387 . S
H1068 C1075 0.950 . S
C1069 C1067 1.387 . S
C1069 C1071 1.390 . S
C1069 H1073 0.950 . S
H1070 C1066 0.950 . S
C1071 C1069 1.390 . S
C1071 C1072 1.387 . S
C1071 H1074 0.950 . S
C1072 C1071 1.387 . S
C1072 C1075 1.387 . S
H1073 C1069 0.950 . S
H1074 C1071 0.950 . S
C1075 C1066 1.390 . S
C1075 H1068 0.950 . S
C1075 C1072 1.387 . S
C1076 C1077 1.387 . S
C1076 H1080 0.950 . S
C1076 C1085 1.390 . S
C1077 C1076 1.387 . S
C1077 C1079 1.387 . S
H1078 C1085 0.950 . S
C1079 C1077 1.387 . S
C1079 C1081 1.390 . S
C1079 H1083 0.950 . S
H1080 C1076 0.950 . S
C1081 C1079 1.390 . S
C1081 C1082 1.387 . S
C1081 H1084 0.950 . S
C1082 C1081 1.387 . S
C1082 C1085 1.387 . S
H1083 C1079 0.950 . S
H1084 C1081 0.950 . S
C1085 C1076 1.390 . S
C1085 H1078 0.950 . S
C1085 C1082 1.387 . S
C1086 C1087 1.387 . S
C1086 H1090 0.950 . S
C1086 C1095 1.390 . S
C1087 C1086 1.387 . S
C1087 C1089 1.387 . S
H1088 C1095 0.950 . S
C1089 C1087 1.387 . S
C1089 C1091 1.390 . S
C1089 H1093 0.950 . S
H1090 C1086 0.950 . S
C1091 C1089 1.390 . S
C1091 C1092 1.387 . S
C1091 H1094 0.950 . S
C1092 C1091 1.387 . S
C1092 C1095 1.387 . S
H1093 C1089 0.950 . S
H1094 C1091 0.950 . S
C1095 C1086 1.390 . S
C1095 H1088 0.950 . S
C1095 C1092 1.387 . S
C1096 C1097 1.387 . S
C1096 H1100 0.950 . S
C1096 C1105 1.390 . S
C1097 C1096 1.387 . S
C1097 C1099 1.387 . S
H1098 C1105 0.950 . S
C1099 C1097 1.387 . S
C1099 C1101 1.390 . S
C1099 H1103 0.950 . S
H1100 C1096 0.950 . S
C1101 C1099 1.390 . S
C1101 C1102 1.387 . S
C1101 H1104 0.950 . S
C1102 C1101 1.387 . S
C1102 C1105 1.387 . S
H1103 C1099 0.950 . S
H1104 C1101 0.950 . S
C1105 C1096 1.390 . S
C1105 H1098 0.950 . S
C1105 C1102 1.387 . S
C1106 C1107 1.387 . S
C1106 H1110 0.950 . S
C1106 C1115 1.390 . S
C1107 C1106 1.387 . S
C1107 C1109 1.387 . S
H1108 C1115 0.950 . S
C1109 C1107 1.387 . S
C1109 C1111 1.390 . S
C1109 H1113 0.950 . S
H1110 C1106 0.950 . S
C1111 C1109 1.390 . S
C1111 C1112 1.387 . S
C1111 H1114 0.950 . S
C1112 C1111 1.387 . S
C1112 C1115 1.387 . S
H1113 C1109 0.950 . S
H1114 C1111 0.950 . S
C1115 C1106 1.390 . S
C1115 H1108 0.950 . S
C1115 C1112 1.387 . S
C1116 C1117 1.387 . S
C1116 H1120 0.950 . S
C1116 C1125 1.390 . S
C1117 C1116 1.387 . S
C1117 C1119 1.387 . S
H1118 C1125 0.950 . S
C1119 C1117 1.387 . S
C1119 C1121 1.390 . S
C1119 H1123 0.950 . S
H1120 C1116 0.950 . S
C1121 C1119 1.390 . S
C1121 C1122 1.387 . S
C1121 H1124 0.950 . S
C1122 C1121 1.387 . S
C1122 C1125 1.387 . S
H1123 C1119 0.950 . S
H1124 C1121 0.950 . S
C1125 C1116 1.390 . S
C1125 H1118 0.950 . S
C1125 C1122 1.387 . S
C1126 C1127 1.387 . S
C1126 H1130 0.950 . S
C1126 C1135 1.390 . S
C1127 C1126 1.387 . S
C1127 C1129 1.387 . S
H1128 C1135 0.950 . S
C1129 C1127 1.387 . S
C1129 C1131 1.390 . S
C1129 H1133 0.950 . S
H1130 C1126 0.950 . S
C1131 C1129 1.390 . S
C1131 C1132 1.387 . S
C1131 H1134 0.950 . S
C1132 C1131 1.387 . S
C1132 C1135 1.387 . S
H1133 C1129 0.950 . S
H1134 C1131 0.950 . S
C1135 C1126 1.390 . S
C1135 H1128 0.950 . S
C1135 C1132 1.387 . S
C1136 C1137 1.387 . S
C1136 H1140 0.950 . S
C1136 C1145 1.390 . S
C1137 C1136 1.387 . S
C1137 C1139 1.387 . S
H1138 C1145 0.950 . S
C1139 C1137 1.387 . S
C1139 C1141 1.390 . S
C1139 H1143 0.950 . S
H1140 C1136 0.950 . S
C1141 C1139 1.390 . S
C1141 C1142 1.387 . S
C1141 H1144 0.950 . S
C1142 C1141 1.387 . S
C1142 C1145 1.387 . S
H1143 C1139 0.950 . S
H1144 C1141 0.950 . S
C1145 C1136 1.390 . S
C1145 H1138 0.950 . S
C1145 C1142 1.387 . S
C1146 C1147 1.387 . S
C1146 H1150 0.950 . S
C1146 C1155 1.390 . S
C1147 C1146 1.387 . S
C1147 C1149 1.387 . S
H1148 C1155 0.950 . S
C1149 C1147 1.387 . S
C1149 C1151 1.390 . S
C1149 H1153 0.950 . S
H1150 C1146 0.950 . S
C1151 C1149 1.390 . S
C1151 C1152 1.387 . S
C1151 H1154 0.950 . S
C1152 C1151 1.387 . S
C1152 C1155 1.387 . S
H1153 C1149 0.950 . S
H1154 C1151 0.950 . S
C1155 C1146 1.390 . S
C1155 H1148 0.950 . S
C1155 C1152 1.387 . S
C1156 C1157 1.387 . S
C1156 H1160 0.950 . S
C1156 C1165 1.390 . S
C1157 C1156 1.387 . S
C1157 C1159 1.387 . S
H1158 C1165 0.950 . S
C1159 C1157 1.387 . S
C1159 C1161 1.390 . S
C1159 H1163 0.950 . S
H1160 C1156 0.950 . S
C1161 C1159 1.390 . S
C1161 C1162 1.387 . S
C1161 H1164 0.950 . S
C1162 C1161 1.387 . S
C1162 C1165 1.387 . S
H1163 C1159 0.950 . S
H1164 C1161 0.950 . S
C1165 C1156 1.390 . S
C1165 H1158 0.950 . S
C1165 C1162 1.387 . S
C1166 C1167 1.387 . S
C1166 H1170 0.950 . S
C1166 C1175 1.390 . S
C1167 C1166 1.387 . S
C1167 C1169 1.387 . S
H1168 C1175 0.950 . S
C1169 C1167 1.387 . S
C1169 C1171 1.390 . S
C1169 H1173 0.950 . S
H1170 C1166 0.950 . S
C1171 C1169 1.390 . S
C1171 C1172 1.387 . S
C1171 H1174 0.950 . S
C1172 C1171 1.387 . S
C1172 C1175 1.387 . S
H1173 C1169 0.950 . S
H1174 C1171 0.950 . S
C1175 C1166 1.390 . S
C1175 H1168 0.950 . S
C1175 C1172 1.387 . S
C1176 C1177 1.387 . S
C1176 H1180 0.950 . S
C1176 C1185 1.390 . S
C1177 C1176 1.387 . S
C1177 C1179 1.387 . S
H1178 C1185 0.950 . S
C1179 C1177 1.387 . S
C1179 C1181 1.390 . S
C1179 H1183 0.950 . S
H1180 C1176 0.950 . S
C1181 C1179 1.390 . S
C1181 C1182 1.387 . S
C1181 H1184 0.950 . S
C1182 C1181 1.387 . S
C1182 C1185 1.387 . S
H1183 C1179 0.950 . S
H1184 C1181 0.950 . S
C1185 C1176 1.390 . S
C1185 H1178 0.950 . S
C1185 C1182 1.387 . S
C1186 C1187 1.387 . S
C1186 H1190 0.950 . S
C1186 C1195 1.390 . S
C1187 C1186 1.387 . S
C1187 C1189 1.387 . S
H1188 C1195 0.950 . S
C1189 C1187 1.387 . S
C1189 C1191 1.390 . S
C1189 H1193 0.950 . S
H1190 C1186 0.950 . S
C1191 C1189 1.390 . S
C1191 C1192 1.387 . S
C1191 H1194 0.950 . S
C1192 C1191 1.387 . S
C1192 C1195 1.387 . S
H1193 C1189 0.950 . S
H1194 C1191 0.950 . S
C1195 C1186 1.390 . S
C1195 H1188 0.950 . S
C1195 C1192 1.387 . S
C1196 C1197 1.387 . S
C1196 H1200 0.950 . S
C1196 C1205 1.390 . S
C1197 C1196 1.387 . S
C1197 C1199 1.387 . S
H1198 C1205 0.950 . S
C1199 C1197 1.387 . S
C1199 C1201 1.390 . S
C1199 H1203 0.950 . S
H1200 C1196 0.950 . S
C1201 C1199 1.390 . S
C1201 C1202 1.387 . S
C1201 H1204 0.950 . S
C1202 C1201 1.387 . S
C1202 C1205 1.387 . S
H1203 C1199 0.950 . S
H1204 C1201 0.950 . S
C1205 C1196 1.390 . S
C1205 H1198 0.950 . S
C1205 C1202 1.387 . S
C1206 C1207 1.387 . S
C1206 H1210 0.950 . S
C1206 C1215 1.390 . S
C1207 C1206 1.387 . S
C1207 C1209 1.387 . S
H1208 C1215 0.950 . S
C1209 C1207 1.387 . S
C1209 C1211 1.390 . S
C1209 H1213 0.950 . S
H1210 C1206 0.950 . S
C1211 C1209 1.390 . S
C1211 C1212 1.387 . S
C1211 H1214 0.950 . S
C1212 C1211 1.387 . S
C1212 C1215 1.387 . S
H1213 C1209 0.950 . S
H1214 C1211 0.950 . S
C1215 C1206 1.390 . S
C1215 H1208 0.950 . S
C1215 C1212 1.387 . S
C1216 C1217 1.387 1_556 S
C1216 H1220 0.950 . S
C1216 C1225 1.390 1_455 S
C1217 C1216 1.387 1_554 S
C1217 C1219 1.387 . S
H1218 C1225 0.950 . S
C1219 C1217 1.387 . S
C1219 C1221 1.390 1_455 S
C1219 H1223 0.950 . S
H1220 C1216 0.950 . S
C1221 C1219 1.390 1_655 S
C1221 C1222 1.387 1_554 S
C1221 H1224 0.950 . S
C1222 C1221 1.387 1_556 S
C1222 C1225 1.387 . S
H1223 C1219 0.950 . S
H1224 C1221 0.950 . S
C1225 C1216 1.390 1_655 S
C1225 H1218 0.950 . S
C1225 C1222 1.387 . S
C1226 C1227 1.387 1_556 S
C1226 H1230 0.950 . S
C1226 C1235 1.390 . S
C1227 C1226 1.387 1_554 S
C1227 C1229 1.387 . S
H1228 C1235 0.950 . S
C1229 C1227 1.387 . S
C1229 C1231 1.390 . S
C1229 H1233 0.950 . S
H1230 C1226 0.950 . S
C1231 C1229 1.390 . S
C1231 C1232 1.387 1_554 S
C1231 H1234 0.950 . S
C1232 C1231 1.387 1_556 S
C1232 C1235 1.387 . S
H1233 C1229 0.950 . S
H1234 C1231 0.950 . S
C1235 C1226 1.390 . S
C1235 H1228 0.950 . S
C1235 C1232 1.387 . S
C1236 C1237 1.387 . S
C1236 H1240 0.950 . S
C1236 C1245 1.359 1_655 S
C1237 C1236 1.387 . S
C1237 C1239 1.418 . S
H1238 C1245 0.949 . S
C1239 C1237 1.418 . S
C1239 C1241 1.359 1_655 S
C1239 H1243 0.949 . S
H1240 C1236 0.950 . S
C1241 C1239 1.359 1_455 S
C1241 C1242 1.387 . S
C1241 H1244 0.950 . S
C1242 C1241 1.387 . S
C1242 C1245 1.418 . S
H1243 C1239 0.949 . S
H1244 C1241 0.950 . S
C1245 C1236 1.359 1_455 S
C1245 H1238 0.949 . S
C1245 C1242 1.418 . S
C1246 C1247 1.387 . S
C1246 H1250 0.950 . S
C1246 C1255 1.390 . S
C1247 C1246 1.387 . S
C1247 C1249 1.387 . S
H1248 C1255 0.950 . S
C1249 C1247 1.387 . S
C1249 C1251 1.390 . S
C1249 H1253 0.950 . S
H1250 C1246 0.950 . S
C1251 C1249 1.390 . S
C1251 C1252 1.387 . S
C1251 H1254 0.950 . S
C1252 C1251 1.387 . S
C1252 C1255 1.387 . S
H1253 C1249 0.950 . S
H1254 C1251 0.950 . S
C1255 C1246 1.390 . S
C1255 H1248 0.950 . S
C1255 C1252 1.387 . S
C1256 C1257 1.387 1_554 S
C1256 H1260 0.950 . S
C1256 C1265 1.390 . S
C1257 C1256 1.387 1_556 S
C1257 C1259 1.387 . S
H1258 C1265 0.950 . S
C1259 C1257 1.387 . S
C1259 C1261 1.390 . S
C1259 H1263 0.950 . S
H1260 C1256 0.950 . S
C1261 C1259 1.390 . S
C1261 C1262 1.387 1_556 S
C1261 H1264 0.950 . S
C1262 C1261 1.387 1_554 S
C1262 C1265 1.387 . S
H1263 C1259 0.950 . S
H1264 C1261 0.950 . S
C1265 C1256 1.390 . S
C1265 H1258 0.950 . S
C1265 C1262 1.387 . S
C1266 C1267 1.387 . S
C1266 H1270 0.950 . S
C1266 C1275 1.390 1_455 S
C1267 C1266 1.387 . S
C1267 C1269 1.387 . S
H1268 C1275 0.950 . S
C1269 C1267 1.387 . S
C1269 C1271 1.390 1_455 S
C1269 H1273 0.950 . S
H1270 C1266 0.950 . S
C1271 C1269 1.390 1_655 S
C1271 C1272 1.387 . S
C1271 H1274 0.950 . S
C1272 C1271 1.387 . S
C1272 C1275 1.387 . S
H1273 C1269 0.950 . S
H1274 C1271 0.950 . S
C1275 C1266 1.390 1_655 S
C1275 H1268 0.950 . S
C1275 C1272 1.387 . S
C1276 C1277 1.387 . S
C1276 H1280 0.950 . S
C1276 C1285 1.390 . S
C1277 C1276 1.387 . S
C1277 C1279 1.387 . S
H1278 C1285 0.950 . S
C1279 C1277 1.387 . S
C1279 C1281 1.390 . S
C1279 H1283 0.950 . S
H1280 C1276 0.950 . S
C1281 C1279 1.390 . S
C1281 C1282 1.387 . S
C1281 H1284 0.950 . S
C1282 C1281 1.387 . S
C1282 C1285 1.387 . S
H1283 C1279 0.950 . S
H1284 C1281 0.950 . S
C1285 C1276 1.390 . S
C1285 H1278 0.950 . S
C1285 C1282 1.387 . S
C1286 C1287 1.387 1_545 S
C1286 H1290 0.950 . S
C1286 C1295 1.390 1_455 S
C1287 C1286 1.387 1_565 S
C1287 C1289 1.387 . S
H1288 C1295 0.950 . S
C1289 C1287 1.387 . S
C1289 C1291 1.390 1_455 S
C1289 H1293 0.950 . S
H1290 C1286 0.950 . S
C1291 C1289 1.390 1_655 S
C1291 C1292 1.387 1_565 S
C1291 H1294 0.950 . S
C1292 C1291 1.387 1_545 S
C1292 C1295 1.387 . S
H1293 C1289 0.950 . S
H1294 C1291 0.950 . S
C1295 C1286 1.390 1_655 S
C1295 H1288 0.950 . S
C1295 C1292 1.387 . S
C1296 C1297 1.387 . S
C1296 H1300 0.950 . S
C1296 C1305 1.390 . S
C1297 C1296 1.387 . S
C1297 C1299 1.387 . S
H1298 C1305 0.950 . S
C1299 C1297 1.387 . S
C1299 C1301 1.390 . S
C1299 H1303 0.950 . S
H1300 C1296 0.950 . S
C1301 C1299 1.390 . S
C1301 C1302 1.387 . S
C1301 H1304 0.950 . S
C1302 C1301 1.387 . S
C1302 C1305 1.387 . S
H1303 C1299 0.950 . S
H1304 C1301 0.950 . S
C1305 C1296 1.390 . S
C1305 H1298 0.950 . S
C1305 C1302 1.387 . S
C1306 C1307 1.387 1_565 S
C1306 H1310 0.950 . S
C1306 C1315 1.390 . S
C1307 C1306 1.387 1_545 S
C1307 C1309 1.387 . S
H1308 C1315 0.950 . S
C1309 C1307 1.387 . S
C1309 C1311 1.390 . S
C1309 H1313 0.950 . S
H1310 C1306 0.950 . S
C1311 C1309 1.390 . S
C1311 C1312 1.387 1_545 S
C1311 H1314 0.950 . S
C1312 C1311 1.387 1_565 S
C1312 C1315 1.387 . S
H1313 C1309 0.950 . S
H1314 C1311 0.950 . S
C1315 C1306 1.390 . S
C1315 H1308 0.950 . S
C1315 C1312 1.387 . S
C1316 C1317 1.387 . S
C1316 H1320 0.950 . S
C1316 C1325 1.390 . S
C1317 C1316 1.387 . S
C1317 C1319 1.387 . S
H1318 C1325 0.950 . S
C1319 C1317 1.387 . S
C1319 C1321 1.390 . S
C1319 H1323 0.950 . S
H1320 C1316 0.950 . S
C1321 C1319 1.390 . S
C1321 C1322 1.387 . S
C1321 H1324 0.950 . S
C1322 C1321 1.387 . S
C1322 C1325 1.387 . S
H1323 C1319 0.950 . S
H1324 C1321 0.950 . S
C1325 C1316 1.390 . S
C1325 H1318 0.950 . S
C1325 C1322 1.387 . S
C1326 C1327 1.387 . S
C1326 H1330 0.950 . S
C1326 C1335 1.390 . S
C1327 C1326 1.387 . S
C1327 C1329 1.387 1_545 S
H1328 C1335 0.950 . S
C1329 C1327 1.387 1_565 S
C1329 C1331 1.390 . S
C1329 H1333 0.950 . S
H1330 C1326 0.950 . S
C1331 C1329 1.390 . S
C1331 C1332 1.387 . S
C1331 H1334 0.950 . S
C1332 C1331 1.387 . S
C1332 C1335 1.387 1_565 S
H1333 C1329 0.950 . S
H1334 C1331 0.950 . S
C1335 C1326 1.390 . S
C1335 H1328 0.950 . S
C1335 C1332 1.387 1_545 S
C1336 C1337 1.387 . S
C1336 H1340 0.950 . S
C1336 C1345 1.390 . S
C1337 C1336 1.387 . S
C1337 C1339 1.387 . S
H1338 C1345 0.950 . S
C1339 C1337 1.387 . S
C1339 C1341 1.390 . S
C1339 H1343 0.950 . S
H1340 C1336 0.950 . S
C1341 C1339 1.390 . S
C1341 C1342 1.387 . S
C1341 H1344 0.950 . S
C1342 C1341 1.387 . S
C1342 C1345 1.387 . S
H1343 C1339 0.950 . S
H1344 C1341 0.950 . S
C1345 C1336 1.390 . S
C1345 H1338 0.950 . S
C1345 C1342 1.387 . S
C1346 C1347 1.387 . S
C1346 H1350 0.950 . S
C1346 C1355 1.390 . S
C1347 C1346 1.387 . S
C1347 C1349 1.387 . S
H1348 C1355 0.950 . S
C1349 C1347 1.387 . S
C1349 C1351 1.390 . S
C1349 H1353 0.950 . S
H1350 C1346 0.950 . S
C1351 C1349 1.390 . S
C1351 C1352 1.387 . S
C1351 H1354 0.950 . S
C1352 C1351 1.387 . S
C1352 C1355 1.387 . S
H1353 C1349 0.950 . S
H1354 C1351 0.950 . S
C1355 C1346 1.390 . S
C1355 H1348 0.950 . S
C1355 C1352 1.387 . S
C1356 C1357 1.387 . S
C1356 H1360 0.950 . S
C1356 C1365 1.390 . S
C1357 C1356 1.387 . S
C1357 C1359 1.387 . S
H1358 C1365 0.950 . S
C1359 C1357 1.387 . S
C1359 C1361 1.390 . S
C1359 H1363 0.950 . S
H1360 C1356 0.950 . S
C1361 C1359 1.390 . S
C1361 C1362 1.387 . S
C1361 H1364 0.950 . S
C1362 C1361 1.387 . S
C1362 C1365 1.387 . S
H1363 C1359 0.950 . S
H1364 C1361 0.950 . S
C1365 C1356 1.390 . S
C1365 H1358 0.950 . S
C1365 C1362 1.387 . S
C1366 C1367 1.387 1_554 S
C1366 H1370 0.950 . S
C1366 C1375 1.390 . S
C1367 C1366 1.387 1_556 S
C1367 C1369 1.387 1_545 S
H1368 C1375 0.950 . S
C1369 C1367 1.387 1_565 S
C1369 C1371 1.390 . S
C1369 H1373 0.950 . S
H1370 C1366 0.950 . S
C1371 C1369 1.390 . S
C1371 C1372 1.387 1_556 S
C1371 H1374 0.950 . S
C1372 C1371 1.387 1_554 S
C1372 C1375 1.387 1_565 S
H1373 C1369 0.950 . S
H1374 C1371 0.950 . S
C1375 C1366 1.390 . S
C1375 H1368 0.950 . S
C1375 C1372 1.387 1_545 S
C1376 C1377 1.387 . S
C1376 H1380 0.950 . S
C1376 C1385 1.390 . S
C1377 C1376 1.387 . S
C1377 C1379 1.387 . S
H1378 C1385 0.950 . S
C1379 C1377 1.387 . S
C1379 C1381 1.390 . S
C1379 H1383 0.950 . S
H1380 C1376 0.950 . S
C1381 C1379 1.390 . S
C1381 C1382 1.387 . S
C1381 H1384 0.950 . S
C1382 C1381 1.387 . S
C1382 C1385 1.387 . S
H1383 C1379 0.950 . S
H1384 C1381 0.950 . S
C1385 C1376 1.390 . S
C1385 H1378 0.950 . S
C1385 C1382 1.387 . S
C1386 C1387 1.387 . S
C1386 H1390 0.950 . S
C1386 C1395 1.390 . S
C1387 C1386 1.387 . S
C1387 C1389 1.387 . S
H1388 C1395 0.950 . S
C1389 C1387 1.387 . S
C1389 C1391 1.390 . S
C1389 H1393 0.950 . S
H1390 C1386 0.950 . S
C1391 C1389 1.390 . S
C1391 C1392 1.387 . S
C1391 H1394 0.950 . S
C1392 C1391 1.387 . S
C1392 C1395 1.387 . S
H1393 C1389 0.950 . S
H1394 C1391 0.950 . S
C1395 C1386 1.390 . S
C1395 H1388 0.950 . S
C1395 C1392 1.387 . S
C1396 C1397 1.387 . S
C1396 H1400 0.950 . S
C1396 C1405 1.390 . S
C1397 C1396 1.387 . S
C1397 C1399 1.387 . S
H1398 C1405 0.950 . S
C1399 C1397 1.387 . S
C1399 C1401 1.390 . S
C1399 H1403 0.950 . S
H1400 C1396 0.950 . S
C1401 C1399 1.390 . S
C1401 C1402 1.387 . S
C1401 H1404 0.950 . S
C1402 C1401 1.387 . S
C1402 C1405 1.387 . S
H1403 C1399 0.950 . S
H1404 C1401 0.950 . S
C1405 C1396 1.390 . S
C1405 H1398 0.950 . S
C1405 C1402 1.387 . S
C1406 C1407 1.387 . S
C1406 H1410 0.950 . S
C1406 C1415 1.390 . S
C1407 C1406 1.387 . S
C1407 C1409 1.387 . S
H1408 C1415 0.950 . S
C1409 C1407 1.387 . S
C1409 C1411 1.390 . S
C1409 H1413 0.950 . S
H1410 C1406 0.950 . S
C1411 C1409 1.390 . S
C1411 C1412 1.387 . S
C1411 H1414 0.950 . S
C1412 C1411 1.387 . S
C1412 C1415 1.387 . S
H1413 C1409 0.950 . S
H1414 C1411 0.950 . S
C1415 C1406 1.390 . S
C1415 H1408 0.950 . S
C1415 C1412 1.387 . S
C1416 C1417 1.387 . S
C1416 H1420 0.950 . S
C1416 C1425 1.390 . S
C1417 C1416 1.387 . S
C1417 C1419 1.387 . S
H1418 C1425 0.950 . S
C1419 C1417 1.387 . S
C1419 C1421 1.390 . S
C1419 H1423 0.950 . S
H1420 C1416 0.950 . S
C1421 C1419 1.390 . S
C1421 C1422 1.387 . S
C1421 H1424 0.950 . S
C1422 C1421 1.387 . S
C1422 C1425 1.387 . S
H1423 C1419 0.950 . S
H1424 C1421 0.950 . S
C1425 C1416 1.390 . S
C1425 H1418 0.950 . S
C1425 C1422 1.387 . S
C1426 C1427 1.387 . S
C1426 H1430 0.950 . S
C1426 C1435 1.390 . S
C1427 C1426 1.387 . S
C1427 C1429 1.387 . S
H1428 C1435 0.950 . S
C1429 C1427 1.387 . S
C1429 C1431 1.390 . S
C1429 H1433 0.950 . S
H1430 C1426 0.950 . S
C1431 C1429 1.390 . S
C1431 C1432 1.387 . S
C1431 H1434 0.950 . S
C1432 C1431 1.387 . S
C1432 C1435 1.387 . S
H1433 C1429 0.950 . S
H1434 C1431 0.950 . S
C1435 C1426 1.390 . S
C1435 H1428 0.950 . S
C1435 C1432 1.387 . S
C1436 C1437 1.387 . S
C1436 H1440 0.950 . S
C1436 C1445 1.390 . S
C1437 C1436 1.387 . S
C1437 C1439 1.387 . S
H1438 C1445 0.950 . S
C1439 C1437 1.387 . S
C1439 C1441 1.390 . S
C1439 H1443 0.950 . S
H1440 C1436 0.950 . S
C1441 C1439 1.390 . S
C1441 C1442 1.387 . S
C1441 H1444 0.950 . S
C1442 C1441 1.387 . S
C1442 C1445 1.387 . S
H1443 C1439 0.950 . S
H1444 C1441 0.950 . S
C1445 C1436 1.390 . S
C1445 H1438 0.950 . S
C1445 C1442 1.387 . S
C1446 C1447 1.387 . S
C1446 H1450 0.950 . S
C1446 C1455 1.390 . S
C1447 C1446 1.387 . S
C1447 C1449 1.387 . S
H1448 C1455 0.950 . S
C1449 C1447 1.387 . S
C1449 C1451 1.390 . S
C1449 H1453 0.950 . S
H1450 C1446 0.950 . S
C1451 C1449 1.390 . S
C1451 C1452 1.387 . S
C1451 H1454 0.950 . S
C1452 C1451 1.387 . S
C1452 C1455 1.387 . S
H1453 C1449 0.950 . S
H1454 C1451 0.950 . S
C1455 C1446 1.390 . S
C1455 H1448 0.950 . S
C1455 C1452 1.387 . S
C1456 C1457 1.387 . S
C1456 H1460 0.950 . S
C1456 C1465 1.390 . S
C1457 C1456 1.387 . S
C1457 C1459 1.387 . S
H1458 C1465 0.950 . S
C1459 C1457 1.387 . S
C1459 C1461 1.390 . S
C1459 H1463 0.950 . S
H1460 C1456 0.950 . S
C1461 C1459 1.390 . S
C1461 C1462 1.387 . S
C1461 H1464 0.950 . S
C1462 C1461 1.387 . S
C1462 C1465 1.387 . S
H1463 C1459 0.950 . S
H1464 C1461 0.950 . S
C1465 C1456 1.390 . S
C1465 H1458 0.950 . S
C1465 C1462 1.387 . S
C1466 C1467 1.387 . S
C1466 H1470 0.950 . S
C1466 C1475 1.390 . S
C1467 C1466 1.387 . S
C1467 C1469 1.387 . S
H1468 C1475 0.950 . S
C1469 C1467 1.387 . S
C1469 C1471 1.390 . S
C1469 H1473 0.950 . S
H1470 C1466 0.950 . S
C1471 C1469 1.390 . S
C1471 C1472 1.387 . S
C1471 H1474 0.950 . S
C1472 C1471 1.387 . S
C1472 C1475 1.387 . S
H1473 C1469 0.950 . S
H1474 C1471 0.950 . S
C1475 C1466 1.390 . S
C1475 H1468 0.950 . S
C1475 C1472 1.387 . S
C1476 C1477 1.387 . S
C1476 H1480 0.950 . S
C1476 C1485 1.390 . S
C1477 C1476 1.387 . S
C1477 C1479 1.387 . S
H1478 C1485 0.950 . S
C1479 C1477 1.387 . S
C1479 C1481 1.390 . S
C1479 H1483 0.950 . S
H1480 C1476 0.950 . S
C1481 C1479 1.390 . S
C1481 C1482 1.387 . S
C1481 H1484 0.950 . S
C1482 C1481 1.387 . S
C1482 C1485 1.387 . S
H1483 C1479 0.950 . S
H1484 C1481 0.950 . S
C1485 C1476 1.390 . S
C1485 H1478 0.950 . S
C1485 C1482 1.387 . S
C1486 C1487 1.387 . S
C1486 H1490 0.950 . S
C1486 C1495 1.390 . S
C1487 C1486 1.387 . S
C1487 C1489 1.387 . S
H1488 C1495 0.950 . S
C1489 C1487 1.387 . S
C1489 C1491 1.390 . S
C1489 H1493 0.950 . S
H1490 C1486 0.950 . S
C1491 C1489 1.390 . S
C1491 C1492 1.387 . S
C1491 H1494 0.950 . S
C1492 C1491 1.387 . S
C1492 C1495 1.387 . S
H1493 C1489 0.950 . S
H1494 C1491 0.950 . S
C1495 C1486 1.390 . S
C1495 H1488 0.950 . S
C1495 C1492 1.387 . S
C1496 C1497 1.387 . S
C1496 H1500 0.950 . S
C1496 C1505 1.390 . S
C1497 C1496 1.387 . S
C1497 C1499 1.387 . S
H1498 C1505 0.950 . S
C1499 C1497 1.387 . S
C1499 C1501 1.390 . S
C1499 H1503 0.950 . S
H1500 C1496 0.950 . S
C1501 C1499 1.390 . S
C1501 C1502 1.387 . S
C1501 H1504 0.950 . S
C1502 C1501 1.387 . S
C1502 C1505 1.387 . S
H1503 C1499 0.950 . S
H1504 C1501 0.950 . S
C1505 C1496 1.390 . S
C1505 H1498 0.950 . S
C1505 C1502 1.387 . S
C1506 C1507 1.387 . S
C1506 H1510 0.950 . S
C1506 C1515 1.390 . S
C1507 C1506 1.387 . S
C1507 C1509 1.387 . S
H1508 C1515 0.950 . S
C1509 C1507 1.387 . S
C1509 C1511 1.390 . S
C1509 H1513 0.950 . S
H1510 C1506 0.950 . S
C1511 C1509 1.390 . S
C1511 C1512 1.387 . S
C1511 H1514 0.950 . S
C1512 C1511 1.387 . S
C1512 C1515 1.387 . S
H1513 C1509 0.950 . S
H1514 C1511 0.950 . S
C1515 C1506 1.390 . S
C1515 H1508 0.950 . S
C1515 C1512 1.387 . S
C1516 C1517 1.387 . S
C1516 H1520 0.950 . S
C1516 C1525 1.390 . S
C1517 C1516 1.387 . S
C1517 C1519 1.387 . S
H1518 C1525 0.950 . S
C1519 C1517 1.387 . S
C1519 C1521 1.390 . S
C1519 H1523 0.950 . S
H1520 C1516 0.950 . S
C1521 C1519 1.390 . S
C1521 C1522 1.387 . S
C1521 H1524 0.950 . S
C1522 C1521 1.387 . S
C1522 C1525 1.387 . S
H1523 C1519 0.950 . S
H1524 C1521 0.950 . S
C1525 C1516 1.390 . S
C1525 H1518 0.950 . S
C1525 C1522 1.387 . S
C1526 C1527 1.387 . S
C1526 H1530 0.950 . S
C1526 C1535 1.390 . S
C1527 C1526 1.387 . S
C1527 C1529 1.387 . S
H1528 C1535 0.950 . S
C1529 C1527 1.387 . S
C1529 C1531 1.390 . S
C1529 H1533 0.950 . S
H1530 C1526 0.950 . S
C1531 C1529 1.390 . S
C1531 C1532 1.387 . S
C1531 H1534 0.950 . S
C1532 C1531 1.387 . S
C1532 C1535 1.387 . S
H1533 C1529 0.950 . S
H1534 C1531 0.950 . S
C1535 C1526 1.390 . S
C1535 H1528 0.950 . S
C1535 C1532 1.387 . S
C1536 C1537 1.387 . S
C1536 H1540 0.950 . S
C1536 C1545 1.390 . S
C1537 C1536 1.387 . S
C1537 C1539 1.387 . S
H1538 C1545 0.950 . S
C1539 C1537 1.387 . S
C1539 C1541 1.390 . S
C1539 H1543 0.950 . S
H1540 C1536 0.950 . S
C1541 C1539 1.390 . S
C1541 C1542 1.387 . S
C1541 H1544 0.950 . S
C1542 C1541 1.387 . S
C1542 C1545 1.387 . S
H1543 C1539 0.950 . S
H1544 C1541 0.950 . S
C1545 C1536 1.390 . S
C1545 H1538 0.950 . S
C1545 C1542 1.387 . S
C1546 C1547 1.387 . S
C1546 H1550 0.950 . S
C1546 C1555 1.390 . S
C1547 C1546 1.387 . S
C1547 C1549 1.387 . S
H1548 C1555 0.950 . S
C1549 C1547 1.387 . S
C1549 C1551 1.390 . S
C1549 H1553 0.950 . S
H1550 C1546 0.950 . S
C1551 C1549 1.390 . S
C1551 C1552 1.387 . S
C1551 H1554 0.950 . S
C1552 C1551 1.387 . S
C1552 C1555 1.387 . S
H1553 C1549 0.950 . S
H1554 C1551 0.950 . S
C1555 C1546 1.390 . S
C1555 H1548 0.950 . S
C1555 C1552 1.387 . S
C1556 C1557 1.387 . S
C1556 H1560 0.950 . S
C1556 C1565 1.390 . S
C1557 C1556 1.387 . S
C1557 C1559 1.387 . S
H1558 C1565 0.950 . S
C1559 C1557 1.387 . S
C1559 C1561 1.390 . S
C1559 H1563 0.950 . S
H1560 C1556 0.950 . S
C1561 C1559 1.390 . S
C1561 C1562 1.387 . S
C1561 H1564 0.950 . S
C1562 C1561 1.387 . S
C1562 C1565 1.387 . S
H1563 C1559 0.950 . S
H1564 C1561 0.950 . S
C1565 C1556 1.390 . S
C1565 H1558 0.950 . S
C1565 C1562 1.387 . S
C1566 C1567 1.387 . S
C1566 H1570 0.950 . S
C1566 C1575 1.390 . S
C1567 C1566 1.387 . S
C1567 C1569 1.387 . S
H1568 C1575 0.950 . S
C1569 C1567 1.387 . S
C1569 C1571 1.390 . S
C1569 H1573 0.950 . S
H1570 C1566 0.950 . S
C1571 C1569 1.390 . S
C1571 C1572 1.387 . S
C1571 H1574 0.950 . S
C1572 C1571 1.387 . S
C1572 C1575 1.387 . S
H1573 C1569 0.950 . S
H1574 C1571 0.950 . S
C1575 C1566 1.390 . S
C1575 H1568 0.950 . S
C1575 C1572 1.387 . S
C1576 C1577 1.387 . S
C1576 H1580 0.950 . S
C1576 C1585 1.390 . S
C1577 C1576 1.387 . S
C1577 C1579 1.387 . S
H1578 C1585 0.950 . S
C1579 C1577 1.387 . S
C1579 C1581 1.390 . S
C1579 H1583 0.950 . S
H1580 C1576 0.950 . S
C1581 C1579 1.390 . S
C1581 C1582 1.387 . S
C1581 H1584 0.950 . S
C1582 C1581 1.387 . S
C1582 C1585 1.387 . S
H1583 C1579 0.950 . S
H1584 C1581 0.950 . S
C1585 C1576 1.390 . S
C1585 H1578 0.950 . S
C1585 C1582 1.387 . S
C1586 C1587 1.387 . S
C1586 H1590 0.950 . S
C1586 C1595 1.390 . S
C1587 C1586 1.387 . S
C1587 C1589 1.387 . S
H1588 C1595 0.950 . S
C1589 C1587 1.387 . S
C1589 C1591 1.390 . S
C1589 H1593 0.950 . S
H1590 C1586 0.950 . S
C1591 C1589 1.390 . S
C1591 C1592 1.387 . S
C1591 H1594 0.950 . S
C1592 C1591 1.387 . S
C1592 C1595 1.387 . S
H1593 C1589 0.950 . S
H1594 C1591 0.950 . S
C1595 C1586 1.390 . S
C1595 H1588 0.950 . S
C1595 C1592 1.387 . S
C1596 C1597 1.387 . S
C1596 H1600 0.950 . S
C1596 C1605 1.390 . S
C1597 C1596 1.387 . S
C1597 C1599 1.387 . S
H1598 C1605 0.950 . S
C1599 C1597 1.387 . S
C1599 C1601 1.390 . S
C1599 H1603 0.950 . S
H1600 C1596 0.950 . S
C1601 C1599 1.390 . S
C1601 C1602 1.387 . S
C1601 H1604 0.950 . S
C1602 C1601 1.387 . S
C1602 C1605 1.387 . S
H1603 C1599 0.950 . S
H1604 C1601 0.950 . S
C1605 C1596 1.390 . S
C1605 H1598 0.950 . S
C1605 C1602 1.387 . S
C1606 C1607 1.387 . S
C1606 H1610 0.950 . S
C1606 C1615 1.390 . S
C1607 C1606 1.387 . S
C1607 C1609 1.387 . S
H1608 C1615 0.950 . S
C1609 C1607 1.387 . S
C1609 C1611 1.390 . S
C1609 H1613 0.950 . S
H1610 C1606 0.950 . S
C1611 C1609 1.390 . S
C1611 C1612 1.387 . S
C1611 H1614 0.950 . S
C1612 C1611 1.387 . S
C1612 C1615 1.387 . S
H1613 C1609 0.950 . S
H1614 C1611 0.950 . S
C1615 C1606 1.390 . S
C1615 H1608 0.950 . S
C1615 C1612 1.387 . S
C1616 C1617 1.387 . S
C1616 H1620 0.950 . S
C1616 C1625 1.390 . S
C1617 C1616 1.387 . S
C1617 C1619 1.387 . S
H1618 C1625 0.950 . S
C1619 C1617 1.387 . S
C1619 C1621 1.390 . S
C1619 H1623 0.950 . S
H1620 C1616 0.950 . S
C1621 C1619 1.390 . S
C1621 C1622 1.387 . S
C1621 H1624 0.950 . S
C1622 C1621 1.387 . S
C1622 C1625 1.387 . S
H1623 C1619 0.950 . S
H1624 C1621 0.950 . S
C1625 C1616 1.390 . S
C1625 H1618 0.950 . S
C1625 C1622 1.387 . S
C1626 C1627 1.387 . S
C1626 H1630 0.950 . S
C1626 C1635 1.390 . S
C1627 C1626 1.387 . S
C1627 C1629 1.387 . S
H1628 C1635 0.950 . S
C1629 C1627 1.387 . S
C1629 C1631 1.390 . S
C1629 H1633 0.950 . S
H1630 C1626 0.950 . S
C1631 C1629 1.390 . S
C1631 C1632 1.387 . S
C1631 H1634 0.950 . S
C1632 C1631 1.387 . S
C1632 C1635 1.387 . S
H1633 C1629 0.950 . S
H1634 C1631 0.950 . S
C1635 C1626 1.390 . S
C1635 H1628 0.950 . S
C1635 C1632 1.387 . S
C1636 C1637 1.387 . S
C1636 H1640 0.950 . S
C1636 C1645 1.390 . S
C1637 C1636 1.387 . S
C1637 C1639 1.387 . S
H1638 C1645 0.950 . S
C1639 C1637 1.387 . S
C1639 C1641 1.390 . S
C1639 H1643 0.950 . S
H1640 C1636 0.950 . S
C1641 C1639 1.390 . S
C1641 C1642 1.387 . S
C1641 H1644 0.950 . S
C1642 C1641 1.387 . S
C1642 C1645 1.387 . S
H1643 C1639 0.950 . S
H1644 C1641 0.950 . S
C1645 C1636 1.390 . S
C1645 H1638 0.950 . S
C1645 C1642 1.387 . S
C1646 C1647 1.387 . S
C1646 H1650 0.950 . S
C1646 C1655 1.390 . S
C1647 C1646 1.387 . S
C1647 C1649 1.387 . S
H1648 C1655 0.950 . S
C1649 C1647 1.387 . S
C1649 C1651 1.390 . S
C1649 H1653 0.950 . S
H1650 C1646 0.950 . S
C1651 C1649 1.390 . S
C1651 C1652 1.387 . S
C1651 H1654 0.950 . S
C1652 C1651 1.387 . S
C1652 C1655 1.387 . S
H1653 C1649 0.950 . S
H1654 C1651 0.950 . S
C1655 C1646 1.390 . S
C1655 H1648 0.950 . S
C1655 C1652 1.387 . S
C1656 C1657 1.387 . S
C1656 H1660 0.950 . S
C1656 C1665 1.390 . S
C1657 C1656 1.387 . S
C1657 C1659 1.387 . S
H1658 C1665 0.950 . S
C1659 C1657 1.387 . S
C1659 C1661 1.390 . S
C1659 H1663 0.950 . S
H1660 C1656 0.950 . S
C1661 C1659 1.390 . S
C1661 C1662 1.387 . S
C1661 H1664 0.950 . S
C1662 C1661 1.387 . S
C1662 C1665 1.387 . S
H1663 C1659 0.950 . S
H1664 C1661 0.950 . S
C1665 C1656 1.390 . S
C1665 H1658 0.950 . S
C1665 C1662 1.387 . S
C1666 C1667 1.387 . S
C1666 H1670 0.950 . S
C1666 C1675 1.390 . S
C1667 C1666 1.387 . S
C1667 C1669 1.387 . S
H1668 C1675 0.950 . S
C1669 C1667 1.387 . S
C1669 C1671 1.390 . S
C1669 H1673 0.950 . S
H1670 C1666 0.950 . S
C1671 C1669 1.390 . S
C1671 C1672 1.387 . S
C1671 H1674 0.950 . S
C1672 C1671 1.387 . S
C1672 C1675 1.387 . S
H1673 C1669 0.950 . S
H1674 C1671 0.950 . S
C1675 C1666 1.390 . S
C1675 H1668 0.950 . S
C1675 C1672 1.387 . S
C1676 C1677 1.387 . S
C1676 H1680 0.950 . S
C1676 C1685 1.390 . S
C1677 C1676 1.387 . S
C1677 C1679 1.387 . S
H1678 C1685 0.950 . S
C1679 C1677 1.387 . S
C1679 C1681 1.390 . S
C1679 H1683 0.950 . S
H1680 C1676 0.950 . S
C1681 C1679 1.390 . S
C1681 C1682 1.387 . S
C1681 H1684 0.950 . S
C1682 C1681 1.387 . S
C1682 C1685 1.387 . S
H1683 C1679 0.950 . S
H1684 C1681 0.950 . S
C1685 C1676 1.390 . S
C1685 H1678 0.950 . S
C1685 C1682 1.387 . S
C1686 C1687 1.387 . S
C1686 H1690 0.950 . S
C1686 C1695 1.390 . S
C1687 C1686 1.387 . S
C1687 C1689 1.387 . S
H1688 C1695 0.950 . S
C1689 C1687 1.387 . S
C1689 C1691 1.390 . S
C1689 H1693 0.950 . S
H1690 C1686 0.950 . S
C1691 C1689 1.390 . S
C1691 C1692 1.387 . S
C1691 H1694 0.950 . S
C1692 C1691 1.387 . S
C1692 C1695 1.387 . S
H1693 C1689 0.950 . S
H1694 C1691 0.950 . S
C1695 C1686 1.390 . S
C1695 H1688 0.950 . S
C1695 C1692 1.387 . S
C1696 C1697 1.387 . S
C1696 H1700 0.950 . S
C1696 C1705 1.390 . S
C1697 C1696 1.387 . S
C1697 C1699 1.387 . S
H1698 C1705 0.950 . S
C1699 C1697 1.387 . S
C1699 C1701 1.390 . S
C1699 H1703 0.950 . S
H1700 C1696 0.950 . S
C1701 C1699 1.390 . S
C1701 C1702 1.387 . S
C1701 H1704 0.950 . S
C1702 C1701 1.387 . S
C1702 C1705 1.387 . S
H1703 C1699 0.950 . S
H1704 C1701 0.950 . S
C1705 C1696 1.390 . S
C1705 H1698 0.950 . S
C1705 C1702 1.387 . S
C1706 C1707 1.387 . S
C1706 H1710 0.950 . S
C1706 C1715 1.390 . S
C1707 C1706 1.387 . S
C1707 C1709 1.387 . S
H1708 C1715 0.950 . S
C1709 C1707 1.387 . S
C1709 C1711 1.390 . S
C1709 H1713 0.950 . S
H1710 C1706 0.950 . S
C1711 C1709 1.390 . S
C1711 C1712 1.387 . S
C1711 H1714 0.950 . S
C1712 C1711 1.387 . S
C1712 C1715 1.387 . S
H1713 C1709 0.950 . S
H1714 C1711 0.950 . S
C1715 C1706 1.390 . S
C1715 H1708 0.950 . S
C1715 C1712 1.387 . S
C1716 C1717 1.387 . S
C1716 H1720 0.950 . S
C1716 C1725 1.390 . S
C1717 C1716 1.387 . S
C1717 C1719 1.387 . S
H1718 C1725 0.950 . S
C1719 C1717 1.387 . S
C1719 C1721 1.390 . S
C1719 H1723 0.950 . S
H1720 C1716 0.950 . S
C1721 C1719 1.390 . S
C1721 C1722 1.387 . S
C1721 H1724 0.950 . S
C1722 C1721 1.387 . S
C1722 C1725 1.387 . S
H1723 C1719 0.950 . S
H1724 C1721 0.950 . S
C1725 C1716 1.390 . S
C1725 H1718 0.950 . S
C1725 C1722 1.387 . S
C1726 C1727 1.387 . S
C1726 H1730 0.950 . S
C1726 C1735 1.390 . S
C1727 C1726 1.387 . S
C1727 C1729 1.387 . S
H1728 C1735 0.950 . S
C1729 C1727 1.387 . S
C1729 C1731 1.390 . S
C1729 H1733 0.950 . S
H1730 C1726 0.950 . S
C1731 C1729 1.390 . S
C1731 C1732 1.387 . S
C1731 H1734 0.950 . S
C1732 C1731 1.387 . S
C1732 C1735 1.387 . S
H1733 C1729 0.950 . S
H1734 C1731 0.950 . S
C1735 C1726 1.390 . S
C1735 H1728 0.950 . S
C1735 C1732 1.387 . S
C1736 C1737 1.387 . S
C1736 H1740 0.950 . S
C1736 C1745 1.390 . S
C1737 C1736 1.387 . S
C1737 C1739 1.387 1_565 S
H1738 C1745 0.950 . S
C1739 C1737 1.387 1_545 S
C1739 C1741 1.390 . S
C1739 H1743 0.950 . S
H1740 C1736 0.950 . S
C1741 C1739 1.390 . S
C1741 C1742 1.387 1_545 S
C1741 H1744 0.950 . S
C1742 C1741 1.387 1_565 S
C1742 C1745 1.387 . S
H1743 C1739 0.950 . S
H1744 C1741 0.950 . S
C1745 C1736 1.390 . S
C1745 H1738 0.950 . S
C1745 C1742 1.387 . S
C1746 C1747 1.387 . S
C1746 H1750 0.950 . S
C1746 C1755 1.390 . S
C1747 C1746 1.387 . S
C1747 C1749 1.387 . S
H1748 C1755 0.950 . S
C1749 C1747 1.387 . S
C1749 C1751 1.390 . S
C1749 H1753 0.950 . S
H1750 C1746 0.950 . S
C1751 C1749 1.390 . S
C1751 C1752 1.387 . S
C1751 H1754 0.950 . S
C1752 C1751 1.387 . S
C1752 C1755 1.387 . S
H1753 C1749 0.950 . S
H1754 C1751 0.950 . S
C1755 C1746 1.390 . S
C1755 H1748 0.950 . S
C1755 C1752 1.387 . S
C1756 C1757 1.387 . S
C1756 H1760 0.950 . S
C1756 C1765 1.390 . S
C1757 C1756 1.387 . S
C1757 C1759 1.387 1_545 S
H1758 C1765 0.950 . S
C1759 C1757 1.387 1_565 S
C1759 C1761 1.390 . S
C1759 H1763 0.950 . S
H1760 C1756 0.950 . S
C1761 C1759 1.390 . S
C1761 C1762 1.387 1_565 S
C1761 H1764 0.950 . S
C1762 C1761 1.387 1_545 S
C1762 C1765 1.387 . S
H1763 C1759 0.950 . S
H1764 C1761 0.950 . S
C1765 C1756 1.390 . S
C1765 H1758 0.950 . S
C1765 C1762 1.387 . S
C1766 C1767 1.387 . S
C1766 H1770 0.950 . S
C1766 C1775 1.390 . S
C1767 C1766 1.387 . S
C1767 C1769 1.387 . S
H1768 C1775 0.950 . S
C1769 C1767 1.387 . S
C1769 C1771 1.390 . S
C1769 H1773 0.950 . S
H1770 C1766 0.950 . S
C1771 C1769 1.390 . S
C1771 C1772 1.387 . S
C1771 H1774 0.950 . S
C1772 C1771 1.387 . S
C1772 C1775 1.387 . S
H1773 C1769 0.950 . S
H1774 C1771 0.950 . S
C1775 C1766 1.390 . S
C1775 H1768 0.950 . S
C1775 C1772 1.387 . S
C1776 C1777 1.387 . S
C1776 H1780 0.950 . S
C1776 C1785 1.390 . S
C1777 C1776 1.387 . S
C1777 C1779 1.387 . S
H1778 C1785 0.950 . S
C1779 C1777 1.387 . S
C1779 C1781 1.390 . S
C1779 H1783 0.950 . S
H1780 C1776 0.950 . S
C1781 C1779 1.390 . S
C1781 C1782 1.387 . S
C1781 H1784 0.950 . S
C1782 C1781 1.387 . S
C1782 C1785 1.387 . S
H1783 C1779 0.950 . S
H1784 C1781 0.950 . S
C1785 C1776 1.390 . S
C1785 H1778 0.950 . S
C1785 C1782 1.387 . S
C1786 C1787 1.387 . S
C1786 H1790 0.950 . S
C1786 C1795 1.390 . S
C1787 C1786 1.387 . S
C1787 C1789 1.387 . S
H1788 C1795 0.950 . S
C1789 C1787 1.387 . S
C1789 C1791 1.390 . S
C1789 H1793 0.950 . S
H1790 C1786 0.950 . S
C1791 C1789 1.390 . S
C1791 C1792 1.387 . S
C1791 H1794 0.950 . S
C1792 C1791 1.387 . S
C1792 C1795 1.387 . S
H1793 C1789 0.950 . S
H1794 C1791 0.950 . S
C1795 C1786 1.390 . S
C1795 H1788 0.950 . S
C1795 C1792 1.387 . S
C1796 C1797 1.387 . S
C1796 H1800 0.950 . S
C1796 C1805 1.390 . S
C1797 C1796 1.387 . S
C1797 C1799 1.387 . S
H1798 C1805 0.950 . S
C1799 C1797 1.387 . S
C1799 C1801 1.390 . S
C1799 H1803 0.950 . S
H1800 C1796 0.950 . S
C1801 C1799 1.390 . S
C1801 C1802 1.387 . S
C1801 H1804 0.950 . S
C1802 C1801 1.387 . S
C1802 C1805 1.387 . S
H1803 C1799 0.950 . S
H1804 C1801 0.950 . S
C1805 C1796 1.390 . S
C1805 H1798 0.950 . S
C1805 C1802 1.387 . S
C1806 C1807 1.387 . S
C1806 H1810 0.950 . S
C1806 C1815 1.390 . S
C1807 C1806 1.387 . S
C1807 C1809 1.387 . S
H1808 C1815 0.950 . S
C1809 C1807 1.387 . S
C1809 C1811 1.390 . S
C1809 H1813 0.950 . S
H1810 C1806 0.950 . S
C1811 C1809 1.390 . S
C1811 C1812 1.387 . S
C1811 H1814 0.950 . S
C1812 C1811 1.387 . S
C1812 C1815 1.387 . S
H1813 C1809 0.950 . S
H1814 C1811 0.950 . S
C1815 C1806 1.390 . S
C1815 H1808 0.950 . S
C1815 C1812 1.387 . S
C1816 C1817 1.387 . S
C1816 H1820 0.950 . S
C1816 C1825 1.390 . S
C1817 C1816 1.387 . S
C1817 C1819 1.387 1_565 S
H1818 C1825 0.950 . S
C1819 C1817 1.387 1_545 S
C1819 C1821 1.390 . S
C1819 H1823 0.950 . S
H1820 C1816 0.950 . S
C1821 C1819 1.390 . S
C1821 C1822 1.387 1_545 S
C1821 H1824 0.950 . S
C1822 C1821 1.387 1_565 S
C1822 C1825 1.387 . S
H1823 C1819 0.950 . S
H1824 C1821 0.950 . S
C1825 C1816 1.390 . S
C1825 H1818 0.950 . S
C1825 C1822 1.387 . S
C1826 C1827 1.387 . S
C1826 H1830 0.950 . S
C1826 C1835 1.390 . S
C1827 C1826 1.387 . S
C1827 C1829 1.387 . S
H1828 C1835 0.950 . S
C1829 C1827 1.387 . S
C1829 C1831 1.390 . S
C1829 H1833 0.950 . S
H1830 C1826 0.950 . S
C1831 C1829 1.390 . S
C1831 C1832 1.387 . S
C1831 H1834 0.950 . S
C1832 C1831 1.387 . S
C1832 C1835 1.387 . S
H1833 C1829 0.950 . S
H1834 C1831 0.950 . S
C1835 C1826 1.390 . S
C1835 H1828 0.950 . S
C1835 C1832 1.387 . S
C1836 C1837 1.387 1_565 S
C1836 H1840 0.950 . S
C1836 C1845 1.390 . S
C1837 C1836 1.387 1_545 S
C1837 C1839 1.387 . S
H1838 C1845 0.950 . S
C1839 C1837 1.387 . S
C1839 C1841 1.390 . S
C1839 H1843 0.950 . S
H1840 C1836 0.950 . S
C1841 C1839 1.390 . S
C1841 C1842 1.387 . S
C1841 H1844 0.950 . S
C1842 C1841 1.387 . S
C1842 C1845 1.387 1_545 S
H1843 C1839 0.950 . S
H1844 C1841 0.950 . S
C1845 C1836 1.390 . S
C1845 H1838 0.950 . S
C1845 C1842 1.387 1_565 S
C1846 C1847 1.387 . S
C1846 H1850 0.950 . S
C1846 C1855 1.390 . S
C1847 C1846 1.387 . S
C1847 C1849 1.387 . S
H1848 C1855 0.950 . S
C1849 C1847 1.387 . S
C1849 C1851 1.390 . S
C1849 H1853 0.950 . S
H1850 C1846 0.950 . S
C1851 C1849 1.390 . S
C1851 C1852 1.387 . S
C1851 H1854 0.950 . S
C1852 C1851 1.387 . S
C1852 C1855 1.387 . S
H1853 C1849 0.950 . S
H1854 C1851 0.950 . S
C1855 C1846 1.390 . S
C1855 H1848 0.950 . S
C1855 C1852 1.387 . S
C1057 C28 1.153 . S
C1062 C94 1.153 . S
C1067 C127 1.153 . S
C1072 C61 1.153 . S
C1077 C160 1.151 . S
C1082 C226 1.151 . S
C1087 C259 1.151 . S
C1092 C193 1.151 . S
C1097 C292 1.151 . S
C1102 C358 1.151 . S
C1107 C391 1.151 . S
C1112 C325 1.151 . S
C1117 C424 1.151 . S
C1122 C490 1.151 . S
C1127 C523 1.151 . S
C1132 C457 1.151 . S
C1137 C622 1.153 . S
C1142 C556 1.153 . S
C1147 C655 1.153 . S
C1152 C589 1.153 . S
C1157 C688 1.153 . S
C1162 C754 1.153 . S
C1167 C721 1.153 . S
C1172 C787 1.153 . S
C1177 C886 1.153 . S
C1182 C820 1.153 . S
C1187 C919 1.151 . S
C1192 C853 1.151 . S
C1197 C952 1.153 . S
C1202 C1018 1.153 . S
C1207 C985 1.151 . S
C1212 C1051 1.151 . S
C1217 N14 1.568 . S
C1222 N146 1.568 . S
C1227 N47 1.568 . S
C1232 N971 1.568 . S
C1237 N476 1.570 . S
C1242 N80 1.570 . S
C1247 N773 1.568 . S
C1252 N113 1.568 . S
C1257 N179 1.570 . S
C1262 N839 1.570 . S
C1267 N344 1.569 . S
C1272 N212 1.569 . S
C1277 N245 1.568 . S
C1282 N641 1.568 . S
C1287 N278 1.569 . S
C1292 N410 1.569 . S
C1297 N311 1.568 . S
C1302 N707 1.568 . S
C1307 N1037 1.568 . S
C1312 N377 1.568 . S
C1317 N575 1.569 . S
C1322 N443 1.569 . S
C1327 N509 1.570 . S
C1332 N905 1.570 . S
C1337 N542 1.569 . S
C1342 N674 1.569 . S
C1347 N608 1.569 . S
C1352 N1004 1.569 . S
C1357 N740 1.569 . S
C1362 N872 1.569 . S
C1367 N938 1.570 . S
C1372 N806 1.570 . S
C1377 C17 1.335 . S
C1382 C347 1.335 . S
C1387 C50 1.335 . S
C1392 C380 1.335 . S
C1397 C83 1.336 . S
C1402 C281 1.336 . S
C1407 C314 1.335 . S
C1412 C116 1.335 . S
C1417 C149 1.335 . S
C1422 C479 1.335 . S
C1427 C182 1.336 . S
C1432 C512 1.336 . S
C1437 C215 1.335 . S
C1442 C413 1.335 . S
C1447 C446 1.335 . S
C1452 C248 1.335 . S
C1457 C875 1.335 . S
C1462 C545 1.335 . S
C1467 C578 1.336 . S
C1472 C908 1.336 . S
C1477 C611 1.336 . S
C1482 C809 1.336 . S
C1487 C842 1.335 . S
C1492 C644 1.335 . S
C1497 C677 1.335 . S
C1502 C1007 1.335 . S
C1507 C1040 1.336 . S
C1512 C710 1.336 . S
C1517 C941 1.335 . S
C1522 C743 1.335 . S
C1527 C776 1.335 . S
C1532 C974 1.335 . S
C1537 C338 1.856 . S
C1542 C8 1.856 . S
C1547 C41 1.858 . S
C1552 C371 1.858 . S
C1557 C272 1.857 . S
C1562 C74 1.857 . S
C1567 C305 1.858 . S
C1572 C107 1.858 . S
C1577 C140 1.858 . S
C1582 C470 1.858 . S
C1587 C173 1.857 . S
C1592 C503 1.857 . S
C1597 C404 1.857 . S
C1602 C206 1.857 . S
C1607 C239 1.856 . S
C1612 C437 1.856 . S
C1617 C536 1.858 . S
C1622 C866 1.858 . S
C1627 C899 1.858 . S
C1632 C569 1.858 . S
C1637 C800 1.858 . S
C1642 C602 1.858 . S
C1647 C635 1.858 . S
C1652 C833 1.858 . S
C1657 C668 1.856 . S
C1662 C998 1.856 . S
C1667 C701 1.858 . S
C1672 C1031 1.858 . S
C1677 C734 1.858 . S
C1682 C932 1.858 . S
C1687 C767 1.856 . S
C1692 C965 1.856 . S
C1697 N104 1.490 . S
C1702 N5 1.490 . S
C1707 N71 1.493 . S
C1712 N38 1.493 . S
C1717 N137 1.493 . S
C1722 N236 1.493 . S
C1727 N203 1.490 . S
C1732 N170 1.490 . S
C1737 N368 1.493 . S
C1742 N269 1.493 . S
C1747 N335 1.493 . S
C1752 N302 1.493 . S
C1757 N500 1.490 . S
C1762 N401 1.490 . S
C1767 N434 1.491 . S
C1772 N467 1.491 . S
C1777 N632 1.493 . S
C1782 N533 1.493 . S
C1787 N599 1.490 . S
C1792 N566 1.490 . S
C1797 N665 1.493 . S
C1802 N764 1.493 . S
C1807 N731 1.490 . S
C1812 N698 1.490 . S
C1817 N896 1.493 . S
C1822 N797 1.493 . S
C1827 N863 1.491 . S
C1832 N830 1.491 . S
C1837 N1028 1.493 . S
C1842 N929 1.493 . S
C1847 N995 1.493 . S
C1852 N962 1.493 . S
