# Generated by pormake.
# Topology wfj, (8)-cn, num edge types: 1
# Building blocks:
#     Node 0, Type 0, BuildingBlock: TAGTUT_clean_sbu_3, # of connection points: 8
#     Node 1, Type 0, BuildingBlock: TAGTUT_clean_sbu_3, # of connection points: 8
#     Node 2, Type 0, BuildingBlock: TAGTUT_clean_sbu_3, # of connection points: 8
#     Node 3, Type 0, BuildingBlock: TAGTUT_clean_sbu_3, # of connection points: 8
#     Node 4, Type 0, BuildingBlock: TAGTUT_clean_sbu_3, # of connection points: 8
#     Node 5, Type 0, BuildingBlock: TAGTUT_clean_sbu_3, # of connection points: 8
#     Node 6, Type 0, BuildingBlock: TAGTUT_clean_sbu_3, # of connection points: 8
#     Node 7, Type 0, BuildingBlock: TAGTUT_clean_sbu_3, # of connection points: 8
#     Node 8, Type 0, BuildingBlock: TAGTUT_clean_sbu_3, # of connection points: 8
#     Node 9, Type 0, BuildingBlock: TAGTUT_clean_sbu_3, # of connection points: 8
#     Node 10, Type 0, BuildingBlock: TAGTUT_clean_sbu_3, # of connection points: 8
#     Node 11, Type 0, BuildingBlock: TAGTUT_clean_sbu_3, # of connection points: 8
#     Node 12, Type 0, BuildingBlock: TAGTUT_clean_sbu_3, # of connection points: 8
#     Node 13, Type 0, BuildingBlock: TAGTUT_clean_sbu_3, # of connection points: 8
#     Node 14, Type 0, BuildingBlock: TAGTUT_clean_sbu_3, # of connection points: 8
#     Node 15, Type 0, BuildingBlock: TAGTUT_clean_sbu_3, # of connection points: 8
#     Edge 16, Type (0, 0), BuildingBlock: CIFDUS_clean_linker_0, # of connection points: 2
#     Edge 17, Type (0, 0), BuildingBlock: CIFDUS_clean_linker_0, # of connection points: 2
#     Edge 18, Type (0, 0), BuildingBlock: CIFDUS_clean_linker_0, # of connection points: 2
#     Edge 19, Type (0, 0), BuildingBlock: CIFDUS_clean_linker_0, # of connection points: 2
#     Edge 20, Type (0, 0), BuildingBlock: CIFDUS_clean_linker_0, # of connection points: 2
#     Edge 21, Type (0, 0), BuildingBlock: CIFDUS_clean_linker_0, # of connection points: 2
#     Edge 22, Type (0, 0), BuildingBlock: CIFDUS_clean_linker_0, # of connection points: 2
#     Edge 23, Type (0, 0), BuildingBlock: CIFDUS_clean_linker_0, # of connection points: 2
#     Edge 24, Type (0, 0), BuildingBlock: CIFDUS_clean_linker_0, # of connection points: 2
#     Edge 25, Type (0, 0), BuildingBlock: CIFDUS_clean_linker_0, # of connection points: 2
#     Edge 26, Type (0, 0), BuildingBlock: CIFDUS_clean_linker_0, # of connection points: 2
#     Edge 27, Type (0, 0), BuildingBlock: CIFDUS_clean_linker_0, # of connection points: 2
#     Edge 28, Type (0, 0), BuildingBlock: CIFDUS_clean_linker_0, # of connection points: 2
#     Edge 29, Type (0, 0), BuildingBlock: CIFDUS_clean_linker_0, # of connection points: 2
#     Edge 30, Type (0, 0), BuildingBlock: CIFDUS_clean_linker_0, # of connection points: 2
#     Edge 31, Type (0, 0), BuildingBlock: CIFDUS_clean_linker_0, # of connection points: 2
#     Edge 32, Type (0, 0), BuildingBlock: CIFDUS_clean_linker_0, # of connection points: 2
#     Edge 33, Type (0, 0), BuildingBlock: CIFDUS_clean_linker_0, # of connection points: 2
#     Edge 34, Type (0, 0), BuildingBlock: CIFDUS_clean_linker_0, # of connection points: 2
#     Edge 35, Type (0, 0), BuildingBlock: CIFDUS_clean_linker_0, # of connection points: 2
#     Edge 36, Type (0, 0), BuildingBlock: CIFDUS_clean_linker_0, # of connection points: 2
#     Edge 37, Type (0, 0), BuildingBlock: CIFDUS_clean_linker_0, # of connection points: 2
#     Edge 38, Type (0, 0), BuildingBlock: CIFDUS_clean_linker_0, # of connection points: 2
#     Edge 39, Type (0, 0), BuildingBlock: CIFDUS_clean_linker_0, # of connection points: 2
#     Edge 40, Type (0, 0), BuildingBlock: CIFDUS_clean_linker_0, # of connection points: 2
#     Edge 41, Type (0, 0), BuildingBlock: CIFDUS_clean_linker_0, # of connection points: 2
#     Edge 42, Type (0, 0), BuildingBlock: CIFDUS_clean_linker_0, # of connection points: 2
#     Edge 43, Type (0, 0), BuildingBlock: CIFDUS_clean_linker_0, # of connection points: 2
#     Edge 44, Type (0, 0), BuildingBlock: CIFDUS_clean_linker_0, # of connection points: 2
#     Edge 45, Type (0, 0), BuildingBlock: CIFDUS_clean_linker_0, # of connection points: 2
#     Edge 46, Type (0, 0), BuildingBlock: CIFDUS_clean_linker_0, # of connection points: 2
#     Edge 47, Type (0, 0), BuildingBlock: CIFDUS_clean_linker_0, # of connection points: 2
#     Edge 48, Type (0, 0), BuildingBlock: CIFDUS_clean_linker_0, # of connection points: 2
#     Edge 49, Type (0, 0), BuildingBlock: CIFDUS_clean_linker_0, # of connection points: 2
#     Edge 50, Type (0, 0), BuildingBlock: CIFDUS_clean_linker_0, # of connection points: 2
#     Edge 51, Type (0, 0), BuildingBlock: CIFDUS_clean_linker_0, # of connection points: 2
#     Edge 52, Type (0, 0), BuildingBlock: CIFDUS_clean_linker_0, # of connection points: 2
#     Edge 53, Type (0, 0), BuildingBlock: CIFDUS_clean_linker_0, # of connection points: 2
#     Edge 54, Type (0, 0), BuildingBlock: CIFDUS_clean_linker_0, # of connection points: 2
#     Edge 55, Type (0, 0), BuildingBlock: CIFDUS_clean_linker_0, # of connection points: 2
#     Edge 56, Type (0, 0), BuildingBlock: CIFDUS_clean_linker_0, # of connection points: 2
#     Edge 57, Type (0, 0), BuildingBlock: CIFDUS_clean_linker_0, # of connection points: 2
#     Edge 58, Type (0, 0), BuildingBlock: CIFDUS_clean_linker_0, # of connection points: 2
#     Edge 59, Type (0, 0), BuildingBlock: CIFDUS_clean_linker_0, # of connection points: 2
#     Edge 60, Type (0, 0), BuildingBlock: CIFDUS_clean_linker_0, # of connection points: 2
#     Edge 61, Type (0, 0), BuildingBlock: CIFDUS_clean_linker_0, # of connection points: 2
#     Edge 62, Type (0, 0), BuildingBlock: CIFDUS_clean_linker_0, # of connection points: 2
#     Edge 63, Type (0, 0), BuildingBlock: CIFDUS_clean_linker_0, # of connection points: 2
#     Edge 64, Type (0, 0), BuildingBlock: CIFDUS_clean_linker_0, # of connection points: 2
#     Edge 65, Type (0, 0), BuildingBlock: CIFDUS_clean_linker_0, # of connection points: 2
#     Edge 66, Type (0, 0), BuildingBlock: CIFDUS_clean_linker_0, # of connection points: 2
#     Edge 67, Type (0, 0), BuildingBlock: CIFDUS_clean_linker_0, # of connection points: 2
#     Edge 68, Type (0, 0), BuildingBlock: CIFDUS_clean_linker_0, # of connection points: 2
#     Edge 69, Type (0, 0), BuildingBlock: CIFDUS_clean_linker_0, # of connection points: 2
#     Edge 70, Type (0, 0), BuildingBlock: CIFDUS_clean_linker_0, # of connection points: 2
#     Edge 71, Type (0, 0), BuildingBlock: CIFDUS_clean_linker_0, # of connection points: 2
#     Edge 72, Type (0, 0), BuildingBlock: CIFDUS_clean_linker_0, # of connection points: 2
#     Edge 73, Type (0, 0), BuildingBlock: CIFDUS_clean_linker_0, # of connection points: 2
#     Edge 74, Type (0, 0), BuildingBlock: CIFDUS_clean_linker_0, # of connection points: 2
#     Edge 75, Type (0, 0), BuildingBlock: CIFDUS_clean_linker_0, # of connection points: 2
#     Edge 76, Type (0, 0), BuildingBlock: CIFDUS_clean_linker_0, # of connection points: 2
#     Edge 77, Type (0, 0), BuildingBlock: CIFDUS_clean_linker_0, # of connection points: 2
#     Edge 78, Type (0, 0), BuildingBlock: CIFDUS_clean_linker_0, # of connection points: 2
#     Edge 79, Type (0, 0), BuildingBlock: CIFDUS_clean_linker_0, # of connection points: 2
# Relax obj value: 0.282
# Max RMSD: 0.264
# Mean RMSD: 0.259
data_MOF--net-wfj--node1-TAGTUT_clean_sbu_3--edge1-CIFDUS_clean_linker_0
_symmetry_space_group_name_H-M    P1
_symmetry_Int_Tables_number       1
_symmetry_cell_setting            triclinic
loop_
_symmetry_equiv_pos_as_xyz
'x, y, z'
_cell_length_a     56.806643
_cell_length_b     57.038681
_cell_length_c     14.001249
_cell_angle_alpha  89.401531
_cell_angle_beta   90.234337
_cell_angle_gamma 90.003521
loop_
_atom_site_label
_atom_site_type_symbol
_atom_site_fract_x
_atom_site_fract_y
_atom_site_fract_z
_atom_type_partial_charge
C0 C 0.15411 0.33355 0.38712 0.0
C1 C 0.23022 0.29802 0.44321 0.0
C2 C 0.20913 0.28843 0.73787 0.0
Mg3 Mg 0.1147 0.35802 0.50896 0.0
Mg4 Mg 0.12582 0.38805 0.7025 0.0
O5 O 0.1289 0.35948 0.64058 0.0
Mg6 Mg 0.16038 0.34597 0.60977 0.0
O7 O 0.1894 0.32952 0.56523 0.0
Mg8 Mg 0.17659 0.29735 0.5399 0.0
Mg9 Mg 0.21963 0.33083 0.6103 0.0
C10 C 0.16163 0.3595 0.83497 0.0
O11 O 0.1816 0.38126 0.61948 0.0
O12 O 0.07951 0.36758 0.58049 0.0
O13 O 0.21857 0.36707 0.64 0.0
O14 O 0.12472 0.39726 0.47407 0.0
O15 O 0.08782 0.38658 0.7162 0.0
O16 O 0.13854 0.41419 0.60559 0.0
O17 O 0.14312 0.31042 0.61027 0.0
O18 O 0.10806 0.31811 0.54478 0.0
C19 C 0.12291 0.30367 0.58209 0.0
C20 C 0.07304 0.37712 0.65874 0.0
O21 O 0.16737 0.34477 0.77008 0.0
O22 O 0.21007 0.28877 0.45887 0.0
O23 O 0.14823 0.37729 0.81909 0.0
O24 O 0.19321 0.2821 0.67835 0.0
O25 O 0.23784 0.31552 0.49088 0.0
O26 O 0.21964 0.30805 0.72943 0.0
O27 O 0.15115 0.34843 0.45337 0.0
O28 O 0.16253 0.31321 0.40427 0.0
C29 C 0.135 0.41442 0.51575 0.0
C30 C 0.20364 0.38392 0.6391 0.0
C31 C 0.36551 0.43582 0.80299 0.0
C32 C 0.3191 0.37244 0.75257 0.0
C33 C 0.38181 0.3238 0.84155 0.0
Mg34 Mg 0.4141 0.45115 0.76962 0.0
Mg35 Mg 0.44934 0.42656 0.62008 0.0
O36 O 0.43353 0.42259 0.73654 0.0
Mg37 Mg 0.4063 0.39913 0.7343 0.0
O38 O 0.37782 0.37941 0.74385 0.0
Mg39 Mg 0.36767 0.38206 0.88134 0.0
Mg40 Mg 0.36652 0.35506 0.67096 0.0
C41 C 0.45477 0.37579 0.68123 0.0
O42 O 0.40341 0.39698 0.56503 0.0
O43 O 0.44829 0.47045 0.78034 0.0
O44 O 0.38228 0.36425 0.53682 0.0
O45 O 0.41274 0.46782 0.61909 0.0
O46 O 0.47193 0.45586 0.66622 0.0
O47 O 0.42358 0.43972 0.52321 0.0
O48 O 0.40613 0.39724 0.89878 0.0
O49 O 0.41623 0.43473 0.92252 0.0
C50 C 0.41171 0.41403 0.95467 0.0
C51 C 0.46721 0.47105 0.73086 0.0
O52 O 0.4359 0.3711 0.72845 0.0
O53 O 0.32835 0.37457 0.83608 0.0
O54 O 0.45347 0.38882 0.6064 0.0
O55 O 0.37895 0.3412 0.89875 0.0
O56 O 0.33065 0.36435 0.68222 0.0
O57 O 0.37761 0.32571 0.75222 0.0
O58 O 0.38151 0.42997 0.74499 0.0
O59 O 0.35742 0.42108 0.86363 0.0
C60 C 0.41667 0.46058 0.53495 0.0
C61 C 0.3945 0.38175 0.50748 0.0
C62 C 0.30478 0.60757 0.01344 0.0
C63 C 0.3802 0.56962 0.94813 0.0
C64 C 0.41569 0.6363 0.03416 0.0
Mg65 Mg 0.28349 0.65666 -0.00783 0.0
Mg66 Mg 0.30599 0.69724 0.86029 0.0
O67 O 0.31111 0.67812 0.96742 0.0
Mg68 Mg 0.33617 0.65336 0.95038 0.0
O69 O 0.35896 0.62647 0.94342 0.0
Mg70 Mg 0.36005 0.61465 0.07818 0.0
Mg71 Mg 0.38433 0.62005 0.86474 0.0
C72 C 0.35928 0.7061 0.91024 0.0
O73 O 0.33698 0.65502 0.78649 0.0
O74 O 0.26233 0.68912 0.02076 0.0
O75 O 0.37021 0.63681 0.73778 0.0
O76 O 0.26638 0.66136 0.83887 0.0
O77 O 0.27523 0.71573 0.91314 0.0
O78 O 0.2953 0.67443 0.75017 0.0
O79 O 0.33934 0.64943 0.10905 0.0
O80 O 0.30095 0.65433 0.1434 0.0
C81 C 0.32247 0.65075 0.16897 0.0
C82 C 0.26064 0.70898 0.97765 0.0
O83 O 0.3619 0.6856 0.94934 0.0
O84 O 0.37485 0.57864 0.02879 0.0
O85 O 0.34087 0.71201 0.86215 0.0
O86 O 0.39915 0.63041 0.09265 0.0
O87 O 0.38364 0.58228 0.87348 0.0
O88 O 0.41317 0.6343 0.94381 0.0
O89 O 0.3067 0.62555 0.95828 0.0
O90 O 0.32271 0.59971 0.05934 0.0
C91 C 0.27379 0.66902 0.75811 0.0
C92 C 0.35141 0.64869 0.7212 0.0
C93 C 0.08782 0.59256 0.12385 0.0
C94 C 0.04064 0.52136 0.23032 0.0
C95 C 0.04345 0.54778 0.50573 0.0
Mg96 Mg 0.11821 0.62984 0.24446 0.0
Mg97 Mg 0.15236 0.61335 0.42757 0.0
O98 O 0.12278 0.61255 0.3697 0.0
Mg99 Mg 0.10469 0.5835 0.34599 0.0
O100 O 0.08291 0.557 0.30957 0.0
Mg101 Mg 0.05234 0.57529 0.29627 0.0
Mg102 Mg 0.07967 0.53016 0.38314 0.0
C103 C 0.12366 0.58137 0.57392 0.0
O104 O 0.13619 0.55628 0.33794 0.0
O105 O 0.13076 0.66313 0.32568 0.0
O106 O 0.1163 0.5234 0.38254 0.0
O107 O 0.15699 0.6208 0.19851 0.0
O108 O 0.15261 0.65058 0.45053 0.0
O109 O 0.17726 0.60427 0.31856 0.0
O110 O 0.07185 0.60517 0.36287 0.0
O111 O 0.07902 0.63865 0.28805 0.0
C112 C 0.06518 0.62536 0.33612 0.0
C113 C 0.14262 0.66705 0.40238 0.0
O114 O 0.1069 0.57737 0.51322 0.0
O115 O 0.03708 0.54347 0.22658 0.0
O116 O 0.14299 0.59163 0.55058 0.0
O117 O 0.03642 0.56106 0.43736 0.0
O118 O 0.05562 0.51193 0.2878 0.0
O119 O 0.06502 0.54239 0.51204 0.0
O120 O 0.10507 0.5938 0.18318 0.0
O121 O 0.06717 0.58707 0.15224 0.0
C122 C 0.1757 0.6109 0.23128 0.0
C123 C 0.13531 0.53419 0.36011 0.0
C124 C 0.88575 0.69027 0.51727 0.0
C125 C 0.92732 0.61791 0.4416 0.0
C126 C 0.85996 0.58046 0.52539 0.0
Mg127 Mg 0.83662 0.70865 0.52611 0.0
Mg128 Mg 0.79097 0.68988 0.41037 0.0
O129 O 0.81491 0.68124 0.49341 0.0
Mg130 Mg 0.84017 0.65753 0.45915 0.0
O131 O 0.86903 0.63726 0.44313 0.0
Mg132 Mg 0.88135 0.63482 0.57758 0.0
Mg133 Mg 0.87662 0.61318 0.3625 0.0
C134 C 0.78684 0.63407 0.4157 0.0
O135 O 0.8374 0.66022 0.29727 0.0
O136 O 0.80515 0.72671 0.58495 0.0
O137 O 0.85652 0.62766 0.24793 0.0
O138 O 0.83003 0.73015 0.38673 0.0
O139 O 0.77322 0.71473 0.50483 0.0
O140 O 0.81237 0.70381 0.30022 0.0
O141 O 0.84528 0.65106 0.61452 0.0
O142 O 0.84058 0.68794 0.66334 0.0
C143 C 0.84363 0.6661 0.68035 0.0
C144 C 0.78298 0.72697 0.57051 0.0
O145 O 0.80836 0.62992 0.44325 0.0
O146 O 0.91799 0.62207 0.5231 0.0
O147 O 0.77891 0.65466 0.39699 0.0
O148 O 0.86627 0.59602 0.58631 0.0
O149 O 0.91484 0.61529 0.36615 0.0
O150 O 0.86249 0.58376 0.43582 0.0
O151 O 0.86673 0.68748 0.47024 0.0
O152 O 0.89495 0.67336 0.56533 0.0
C153 C 0.81828 0.72492 0.31209 0.0
C154 C 0.84346 0.64565 0.23239 0.0
C155 C 0.54681 0.63633 0.22194 0.0
C156 C 0.62353 0.67885 0.15674 0.0
C157 C 0.65815 0.61633 0.28851 0.0
Mg158 Mg 0.53252 0.58496 0.24117 0.0
Mg159 Mg 0.56062 0.54023 0.15934 0.0
O160 O 0.56258 0.56653 0.23357 0.0
Mg161 Mg 0.58437 0.59333 0.19792 0.0
O162 O 0.60283 0.62281 0.17369 0.0
Mg163 Mg 0.60091 0.63738 0.30298 0.0
Mg164 Mg 0.63045 0.62607 0.10338 0.0
C165 C 0.61535 0.54331 0.19785 0.0
O166 O 0.58414 0.58871 0.03756 0.0
O167 O 0.51315 0.55199 0.28972 0.0
O168 O 0.61665 0.60713 0.98106 0.0
O169 O 0.52078 0.57544 0.08431 0.0
O170 O 0.53199 0.52138 0.22623 0.0
O171 O 0.54898 0.55241 0.02654 0.0
O172 O 0.58564 0.60137 0.35063 0.0
O173 O 0.54861 0.59252 0.39303 0.0
C174 C 0.5699 0.59858 0.41431 0.0
C175 C 0.51484 0.53003 0.27341 0.0
O176 O 0.61565 0.56578 0.20966 0.0
O177 O 0.61381 0.67232 0.23524 0.0
O178 O 0.59684 0.53175 0.17515 0.0
O179 O 0.64043 0.62505 0.33324 0.0
O180 O 0.63108 0.6641 0.09549 0.0
O181 O 0.6576 0.61339 0.19813 0.0
O182 O 0.55243 0.6164 0.18947 0.0
O183 O 0.56178 0.64857 0.26858 0.0
C184 C 0.53002 0.56397 0.01532 0.0
C185 C 0.59766 0.59519 0.96902 0.0
C186 C 0.62217 0.32029 0.96704 0.0
C187 C 0.58257 0.39913 0.89499 0.0
C188 C 0.64844 0.4286 0.0239 0.0
Mg189 Mg 0.67368 0.30446 0.98607 0.0
Mg190 Mg 0.72039 0.33196 0.91304 0.0
O191 O 0.69261 0.33413 0.97909 0.0
Mg192 Mg 0.666 0.35604 0.9403 0.0
O193 O 0.63673 0.37433 0.91371 0.0
Mg194 Mg 0.6223 0.37404 0.04429 0.0
Mg195 Mg 0.63583 0.40204 0.84418 0.0
C196 C 0.71532 0.38712 0.94141 0.0
O197 O 0.67211 0.35614 0.77598 0.0
O198 O 0.70612 0.28428 0.03718 0.0
O199 O 0.65425 0.38922 0.72243 0.0
O200 O 0.68354 0.2934 0.83081 0.0
O201 O 0.73831 0.30339 0.98732 0.0
O202 O 0.71016 0.31932 0.77932 0.0
O203 O 0.6573 0.35706 0.09629 0.0
O204 O 0.66575 0.31962 0.13587 0.0
C205 C 0.65909 0.34044 0.15819 0.0
C206 C 0.72848 0.28587 0.02923 0.0
O207 O 0.69273 0.38712 0.94939 0.0
O208 O 0.58777 0.38846 0.97358 0.0
O209 O 0.72757 0.36866 0.92506 0.0
O210 O 0.63725 0.41282 0.0724 0.0
O211 O 0.59833 0.40612 0.83613 0.0
O212 O 0.65158 0.42665 0.93439 0.0
O213 O 0.64244 0.32512 0.93403 0.0
O214 O 0.61003 0.33559 0.01192 0.0
C215 C 0.69683 0.30178 0.76479 0.0
C216 C 0.66618 0.37051 0.70837 0.0
C217 C 0.92132 0.40062 0.92311 0.0
C218 C 0.97487 0.46487 0.78896 0.0
C219 C 0.9653 0.4342 0.52577 0.0
Mg220 Mg 0.885 0.36626 0.81628 0.0
Mg221 Mg 0.85371 0.38297 0.62608 0.0
O222 O 0.88306 0.38075 0.68447 0.0
Mg223 Mg 0.90403 0.4081 0.70204 0.0
O224 O 0.9283 0.43288 0.73023 0.0
Mg225 Mg 0.95674 0.41139 0.74298 0.0
Mg226 Mg 0.93266 0.45805 0.64733 0.0
C227 C 0.88514 0.40959 0.4733 0.0
O228 O 0.87554 0.43791 0.71221 0.0
O229 O 0.86728 0.33319 0.74989 0.0
O230 O 0.89666 0.46888 0.65633 0.0
O231 O 0.84909 0.38372 0.8569 0.0
O232 O 0.84735 0.34582 0.62031 0.0
O233 O 0.83269 0.40044 0.72781 0.0
O234 O 0.93357 0.38226 0.68994 0.0
O235 O 0.92181 0.35121 0.77435 0.0
C236 C 0.9372 0.36176 0.72296 0.0
C237 C 0.85485 0.32921 0.67486 0.0
O238 O 0.90194 0.41301 0.53418 0.0
O239 O 0.97612 0.44261 0.79859 0.0
O240 O 0.86524 0.40068 0.49712 0.0
O241 O 0.97217 0.4209 0.59437 0.0
O242 O 0.96007 0.4749 0.73226 0.0
O243 O 0.94399 0.44069 0.52242 0.0
O244 O 0.90378 0.40041 0.86509 0.0
O245 O 0.94222 0.40407 0.89258 0.0
C246 C 0.83336 0.39687 0.81777 0.0
C247 C 0.87748 0.45965 0.68679 0.0
C248 C 0.65524 0.84312 0.92138 0.0
C249 C 0.72641 0.79424 0.00712 0.0
C250 C 0.69915 0.79256 0.28435 0.0
Mg251 Mg 0.61872 0.87207 0.03948 0.0
Mg252 Mg 0.63094 0.89999 0.23805 0.0
O253 O 0.63296 0.87205 0.1711 0.0
Mg254 Mg 0.66273 0.85473 0.14244 0.0
O255 O 0.68983 0.83456 0.09856 0.0
Mg256 Mg 0.67202 0.80412 0.07709 0.0
Mg257 Mg 0.71713 0.83057 0.1677 0.0
C258 C 0.6641 0.86783 0.36905 0.0
O259 O 0.68883 0.88675 0.1494 0.0
O260 O 0.58421 0.88423 0.10854 0.0
O261 O 0.72265 0.86704 0.1828 0.0
O262 O 0.63258 0.91046 0.00949 0.0
O263 O 0.59279 0.90034 0.25003 0.0
O264 O 0.64537 0.92619 0.14532 0.0
O265 O 0.64073 0.8218 0.14431 0.0
O266 O 0.6076 0.83314 0.0717 0.0
C267 C 0.62017 0.81732 0.1131 0.0
C268 C 0.57784 0.89278 0.18872 0.0
O269 O 0.66895 0.853 0.30333 0.0
O270 O 0.70427 0.79052 0.00453 0.0
O271 O 0.65211 0.88663 0.35409 0.0
O272 O 0.68625 0.78586 0.21476 0.0
O273 O 0.73585 0.80857 0.06613 0.0
O274 O 0.70434 0.81399 0.29209 0.0
O275 O 0.6541 0.85841 0.98685 0.0
O276 O 0.66093 0.82187 0.93944 0.0
C277 C 0.64304 0.92695 0.05481 0.0
C278 C 0.71085 0.88606 0.17266 0.0
C279 C 0.88146 0.93614 0.3786 0.0
C280 C 0.82714 0.87664 0.34323 0.0
C281 C 0.88677 0.82498 0.42114 0.0
Mg282 Mg 0.93265 0.94843 0.36408 0.0
Mg283 Mg 0.96814 0.90859 0.21802 0.0
O284 O 0.94829 0.91484 0.33236 0.0
Mg285 Mg 0.91821 0.89559 0.32824 0.0
O286 O 0.88711 0.88022 0.33046 0.0
Mg287 Mg 0.87736 0.88326 0.46609 0.0
Mg288 Mg 0.8728 0.85824 0.25353 0.0
C289 C 0.95974 0.85878 0.28252 0.0
O290 O 0.91742 0.89332 0.16055 0.0
O291 O 0.96631 0.92726 0.35773 0.0
O292 O 0.89116 0.86515 0.12238 0.0
O293 O 0.93821 0.96006 0.20493 0.0
O294 O 0.9989 0.92701 0.2775 0.0
O295 O 0.9526 0.93116 0.11393 0.0
O296 O 0.91622 0.89599 0.49308 0.0
O297 O 0.92709 0.93351 0.51492 0.0
C298 C 0.92086 0.91338 0.54816 0.0
C299 C 0.98661 0.93651 0.34251 0.0
O300 O 0.94184 0.86275 0.33548 0.0
O301 O 0.83783 0.87716 0.42422 0.0
O302 O 0.9632 0.87109 0.2072 0.0
O303 O 0.88607 0.84195 0.48163 0.0
O304 O 0.83751 0.87049 0.26674 0.0
O305 O 0.88146 0.82788 0.33314 0.0
O306 O 0.89882 0.929 0.32917 0.0
O307 O 0.87055 0.92245 0.43649 0.0
C308 C 0.94426 0.9518 0.12347 0.0
C309 C 0.90702 0.88008 0.09937 0.0
C310 C 0.80778 0.11815 0.55597 0.0
C311 C 0.88336 0.07065 0.5212 0.0
C312 C 0.92071 0.13348 0.61496 0.0
Mg313 Mg 0.79595 0.16978 0.52287 0.0
Mg314 Mg 0.82732 0.20464 0.38721 0.0
O315 O 0.82705 0.18594 0.49906 0.0
Mg316 Mg 0.84758 0.15679 0.49563 0.0
O317 O 0.86509 0.1267 0.49929 0.0
Mg318 Mg 0.86223 0.1175 0.63749 0.0
Mg319 Mg 0.893 0.12031 0.43497 0.0
C320 C 0.87681 0.20276 0.45491 0.0
O321 O 0.85041 0.15556 0.32713 0.0
O322 O 0.78091 0.20618 0.5367 0.0
O323 O 0.884 0.13586 0.29691 0.0
O324 O 0.78192 0.17378 0.36651 0.0
O325 O 0.80121 0.22993 0.43649 0.0
O326 O 0.81179 0.18496 0.2774 0.0
O327 O 0.84732 0.15534 0.65986 0.0
O328 O 0.80999 0.16689 0.6799 0.0
C329 C 0.83 0.16039 0.71471 0.0
C330 C 0.78417 0.22603 0.49488 0.0
O331 O 0.87916 0.18307 0.49952 0.0
O332 O 0.87393 0.08008 0.59468 0.0
O333 O 0.86529 0.20303 0.37659 0.0
O334 O 0.90234 0.12784 0.66367 0.0
O335 O 0.8914 0.08282 0.45112 0.0
O336 O 0.92046 0.13376 0.52376 0.0
O337 O 0.81393 0.1349 0.50017 0.0
O338 O 0.82301 0.10791 0.60995 0.0
C339 C 0.79024 0.17966 0.28505 0.0
C340 C 0.86596 0.14766 0.26862 0.0
C341 C 0.59852 0.10248 0.67402 0.0
C342 C 0.55045 0.03001 0.76349 0.0
C343 C 0.55051 0.05611 0.03963 0.0
Mg344 Mg 0.62497 0.14099 0.79184 0.0
Mg345 Mg 0.65349 0.13208 -0.00445 0.0
O346 O 0.62743 0.12545 0.92122 0.0
Mg347 Mg 0.61166 0.09463 0.89466 0.0
O348 O 0.59172 0.06717 0.85216 0.0
Mg349 Mg 0.56081 0.0842 0.83244 0.0
Mg350 Mg 0.58861 0.03934 0.91839 0.0
C351 C 0.62503 0.095 0.1236 0.0
O352 O 0.64448 0.06874 0.89344 0.0
O353 O 0.63379 0.17655 0.86095 0.0
O354 O 0.62551 0.03439 0.92457 0.0
O355 O 0.66561 0.13197 0.76419 0.0
O356 O 0.6493 0.16981 0.00611 0.0
O357 O 0.68173 0.12248 0.90553 0.0
O358 O 0.57809 0.11497 0.90209 0.0
O359 O 0.58453 0.14831 0.82412 0.0
C360 C 0.57086 0.13471 0.87213 0.0
C361 C 0.64122 0.18387 0.94192 0.0
O362 O 0.61126 0.08807 0.05632 0.0
O363 O 0.54676 0.05208 0.7612 0.0
O364 O 0.64209 0.10946 0.11032 0.0
O365 O 0.54421 0.06967 0.97094 0.0
O366 O 0.56578 0.0206 0.81943 0.0
O367 O 0.57158 0.04884 0.04571 0.0
O368 O 0.61404 0.10447 0.7393 0.0
O369 O 0.57752 0.09589 0.69255 0.0
C370 C 0.68315 0.12459 0.81494 0.0
C371 C 0.6443 0.04634 0.91014 0.0
C372 C 0.39123 0.19265 0.01223 0.0
C373 C 0.43396 0.11946 0.98025 0.0
C374 C 0.36655 0.08367 0.07967 0.0
Mg375 Mg 0.34236 0.20967 -0.00351 0.0
Mg376 Mg 0.29721 0.18538 0.88502 0.0
O377 O 0.32117 0.18101 0.97508 0.0
Mg378 Mg 0.34714 0.15691 0.96344 0.0
O379 O 0.37593 0.13686 0.96518 0.0
Mg380 Mg 0.38695 0.14001 0.10196 0.0
Mg381 Mg 0.38375 0.11004 0.89787 0.0
C382 C 0.29511 0.13016 0.92161 0.0
O383 O 0.34758 0.15438 0.79574 0.0
O384 O 0.30947 0.22975 0.03206 0.0
O385 O 0.36671 0.12045 0.76488 0.0
O386 O 0.34099 0.22355 0.83965 0.0
O387 O 0.27822 0.21178 0.96755 0.0
O388 O 0.31915 0.19751 0.77185 0.0
O389 O 0.34993 0.1567 0.1288 0.0
O390 O 0.34406 0.19507 0.14984 0.0
C391 C 0.34727 0.17437 0.18396 0.0
C392 C 0.28726 0.22784 0.01968 0.0
O393 O 0.31626 0.12802 0.95643 0.0
O394 O 0.42418 0.12654 0.05735 0.0
O395 O 0.28672 0.1495 0.88905 0.0
O396 O 0.37261 0.10172 0.12843 0.0
O397 O 0.42193 0.11316 0.90729 0.0
O398 O 0.36901 0.08312 0.98891 0.0
O399 O 0.3731 0.18717 0.96413 0.0
O400 O 0.40023 0.1782 0.07244 0.0
C401 C 0.32389 0.21897 0.78385 0.0
C402 C 0.35485 0.13852 0.73755 0.0
C403 C 0.07681 0.08888 0.91793 0.0
C404 C 0.02082 0.02154 0.7663 0.0
C405 C 0.0346 0.0561 0.51461 0.0
Mg406 Mg 0.11047 0.12575 0.80662 0.0
Mg407 Mg 0.14112 0.11318 0.61129 0.0
O408 O 0.11316 0.10991 0.67972 0.0
Mg409 Mg 0.09284 0.08145 0.70046 0.0
O410 O 0.06943 0.05559 0.73187 0.0
Mg411 Mg 0.04003 0.07544 0.74138 0.0
Mg412 Mg 0.06617 0.03172 0.64416 0.0
C413 C 0.10999 0.0819 0.47027 0.0
O414 O 0.12185 0.05213 0.71954 0.0
O415 O 0.12434 0.16003 0.73716 0.0
O416 O 0.10204 0.02059 0.6626 0.0
O417 O 0.14954 0.11331 0.84335 0.0
O418 O 0.14179 0.15109 0.5987 0.0
O419 O 0.16792 0.10166 0.71073 0.0
O420 O 0.06152 0.10597 0.68645 0.0
O421 O 0.07257 0.13795 0.76403 0.0
C422 C 0.05713 0.12642 0.71717 0.0
C423 C 0.1342 0.16614 0.65851 0.0
O424 O 0.09513 0.07591 0.53562 0.0
O425 O 0.02048 0.04308 0.79106 0.0
O426 O 0.12862 0.09404 0.48715 0.0
O427 O 0.02569 0.06536 0.58922 0.0
O428 O 0.03644 0.01337 0.70952 0.0
O429 O 0.0557 0.04891 0.51632 0.0
O430 O 0.09345 0.09046 0.85705 0.0
O431 O 0.05577 0.08299 0.89344 0.0
C432 C 0.16777 0.10488 0.80105 0.0
C433 C 0.12054 0.03015 0.69806 0.0
C434 C 0.13082 0.79806 0.55969 0.0
C435 C 0.08416 0.86969 0.51727 0.0
C436 C 0.15044 0.90719 0.61447 0.0
Mg437 Mg 0.18203 0.7816 0.56094 0.0
Mg438 Mg 0.2173 0.81873 0.40731 0.0
O439 O 0.20082 0.81401 0.52918 0.0
Mg440 Mg 0.17157 0.83547 0.51706 0.0
O441 O 0.14117 0.85248 0.51149 0.0
Mg442 Mg 0.13071 0.85071 0.64737 0.0
Mg443 Mg 0.13424 0.87904 0.43987 0.0
C444 C 0.21165 0.87223 0.44871 0.0
O445 O 0.17145 0.83731 0.34929 0.0
O446 O 0.21868 0.79636 0.54322 0.0
O447 O 0.1517 0.87039 0.30943 0.0
O448 O 0.18408 0.76957 0.40362 0.0
O449 O 0.24793 0.79763 0.44486 0.0
O450 O 0.19714 0.79877 0.30901 0.0
O451 O 0.16839 0.83513 0.68096 0.0
O452 O 0.17833 0.79746 0.70984 0.0
C453 C 0.17227 0.81787 0.73908 0.0
C454 C 0.2372 0.78637 0.51052 0.0
O455 O 0.19541 0.86851 0.5105 0.0
O456 O 0.09305 0.86284 0.59738 0.0
O457 O 0.21974 0.85607 0.39537 0.0
O458 O 0.14399 0.89036 0.67096 0.0
O459 O 0.09682 0.87619 0.44654 0.0
O460 O 0.14845 0.90573 0.52412 0.0
O461 O 0.15045 0.80368 0.52252 0.0
O462 O 0.11919 0.81238 0.61146 0.0
C463 C 0.18806 0.77847 0.32067 0.0
C464 C 0.16419 0.85259 0.28737 0.0
C465 C 0.4166 0.9022 0.45668 0.0
C466 C 0.4682 0.97338 0.36765 0.0
C467 C 0.46719 0.94718 0.09544 0.0
Mg468 Mg 0.38878 0.86491 0.33066 0.0
Mg469 Mg 0.35953 0.87913 0.13384 0.0
O470 O 0.38717 0.8818 0.20347 0.0
Mg471 Mg 0.40428 0.91152 0.23533 0.0
O472 O 0.42507 0.93806 0.28135 0.0
Mg473 Mg 0.45526 0.91963 0.30099 0.0
Mg474 Mg 0.42953 0.96547 0.21301 0.0
C475 C 0.3905 0.91413 0.00694 0.0
O476 O 0.37254 0.93884 0.23479 0.0
O477 O 0.37711 0.83069 0.25453 0.0
O478 O 0.39288 0.97245 0.20479 0.0
O479 O 0.35031 0.87627 0.36343 0.0
O480 O 0.36131 0.84141 0.11334 0.0
O481 O 0.33303 0.89042 0.23139 0.0
O482 O 0.43694 0.88961 0.23044 0.0
O483 O 0.42784 0.85527 0.29656 0.0
C484 C 0.44269 0.86904 0.25657 0.0
C485 C 0.3688 0.82562 0.17184 0.0
O486 O 0.40536 0.91893 0.07373 0.0
O487 O 0.47073 0.95116 0.37245 0.0
O488 O 0.37181 0.90186 0.02076 0.0
O489 O 0.47291 0.93332 0.16381 0.0
O490 O 0.45343 0.98322 0.31045 0.0
O491 O 0.44612 0.9543 0.08704 0.0
O492 O 0.4013 0.90062 0.39018 0.0
O493 O 0.43776 0.90846 0.43936 0.0
C494 C 0.333 0.88647 0.32127 0.0
C495 C 0.3736 0.96122 0.21786 0.0
H496 H 0.14773 0.26915 0.5001 0.0
H497 H 0.08789 0.28158 0.68034 0.0
H498 H 0.08628 0.23964 0.7218 0.0
H499 H 0.10417 0.20021 0.71654 0.0
H500 H 0.1646 0.1884 0.53742 0.0
H501 H 0.16436 0.22966 0.48833 0.0
C502 C 0.13431 0.26265 0.54819 0.0
C503 C 0.11807 0.27833 0.58786 0.0
C504 C 0.13402 0.23881 0.57357 0.0
C505 C 0.10036 0.26969 0.6481 0.0
C506 C 0.0997 0.24582 0.67282 0.0
C507 C 0.1174 0.20671 0.66732 0.0
C508 C 0.13465 0.19133 0.63187 0.0
C509 C 0.11687 0.23036 0.63803 0.0
C510 C 0.15129 0.1999 0.56631 0.0
C511 C 0.15108 0.22345 0.53788 0.0
H512 H 0.48941 0.40799 0.65967 0.0
H513 H 0.47021 0.34734 0.82896 0.0
H514 H 0.50725 0.35073 0.91927 0.0
H515 H 0.54615 0.36991 0.94253 0.0
H516 H 0.56353 0.43105 0.77245 0.0
H517 H 0.52552 0.42891 0.69204 0.0
C518 C 0.49314 0.3954 0.71621 0.0
C519 C 0.47715 0.37713 0.73629 0.0
C520 C 0.514 0.3978 0.76862 0.0
C521 C 0.48233 0.36137 0.81125 0.0
C522 C 0.50344 0.36339 0.8631 0.0
C523 C 0.54135 0.38308 0.88953 0.0
C524 C 0.55772 0.40057 0.86317 0.0
C525 C 0.51952 0.38147 0.84181 0.0
C526 C 0.55133 0.41737 0.7937 0.0
C527 C 0.52966 0.41607 0.7472 0.0
H528 H 0.37656 0.81033 -0.00812 0.0
H529 H 0.36542 0.78558 0.28018 0.0
H530 H 0.36765 0.74492 0.2262 0.0
H531 H 0.36799 0.71673 0.09381 0.0
H532 H 0.37807 0.74179 0.80558 0.0
H533 H 0.38236 0.78189 0.86314 0.0
C534 C 0.37458 0.79602 0.04286 0.0
C535 C 0.37016 0.80096 0.1395 0.0
C536 C 0.37633 0.77273 0.01155 0.0
C537 C 0.36841 0.78224 0.20518 0.0
C538 C 0.36985 0.759 0.17441 0.0
C539 C 0.37233 0.73081 0.04421 0.0
C540 C 0.37297 0.72625 0.94555 0.0
C541 C 0.3734 0.75402 0.07746 0.0
C542 C 0.37793 0.7448 0.88187 0.0
C543 C 0.37983 0.7678 0.91464 0.0
H544 H 0.95464 0.63583 0.29784 0.0
H545 H 0.95853 0.60068 0.57175 0.0
H546 H 1.00151 0.6019 0.56608 0.0
H547 H 0.03785 0.61211 0.48263 0.0
H548 H 0.03503 0.64825 0.21101 0.0
H549 H 0.99176 0.64829 0.21769 0.0
C550 C 0.96495 0.6283 0.35582 0.0
C551 C 0.95341 0.61782 0.43457 0.0
C552 C 0.98978 0.62971 0.35336 0.0
C553 C 0.96697 0.60866 0.51023 0.0
C554 C 0.99154 0.60946 0.5072 0.0
C555 C 0.02777 0.62035 0.42544 0.0
C556 C 0.03964 0.63024 0.34654 0.0
C557 C 0.00309 0.61995 0.42932 0.0
C558 C 0.02636 0.64085 0.27314 0.0
C559 C 1.00162 0.64056 0.27646 0.0
H560 H 0.91007 0.71854 0.39898 0.0
H561 H 0.87556 0.71706 0.67172 0.0
H562 H 0.87474 0.76001 0.67405 0.0
H563 H 0.87817 0.79795 0.58373 0.0
H564 H 0.91466 0.79817 0.31397 0.0
H565 H 0.921 0.7562 0.32656 0.0
C566 C 0.90328 0.72767 0.46065 0.0
C567 C 0.89286 0.71475 0.53476 0.0
C568 C 0.90293 0.75231 0.46142 0.0
C569 C 0.88375 0.7267 0.61378 0.0
C570 C 0.88312 0.7513 0.61477 0.0
C571 C 0.88814 0.78888 0.52952 0.0
C572 C 0.8954 0.80114 0.44694 0.0
C573 C 0.89179 0.76435 0.53689 0.0
C574 C 0.9084 0.7891 0.37735 0.0
C575 C 0.91205 0.76502 0.38424 0.0
H576 H 0.5239 0.65796 0.07683 0.0
H577 H 0.51303 0.62611 0.35287 0.0
H578 H 0.47039 0.62533 0.32462 0.0
H579 H 0.43669 0.62885 0.21096 0.0
H580 H 0.44863 0.66063 0.93415 0.0
H581 H 0.48985 0.66663 0.97352 0.0
C582 C 0.51206 0.65173 0.13219 0.0
C583 C 0.52152 0.64259 0.21758 0.0
C584 C 0.48762 0.65093 0.11448 0.0
C585 C 0.50609 0.63379 0.28753 0.0
C586 C 0.48171 0.63308 0.27079 0.0
C587 C 0.44817 0.63761 0.16027 0.0
C588 C 0.43941 0.64393 0.06902 0.0
C589 C 0.47228 0.6409 0.18307 0.0
C590 C 0.45475 0.65522 0.00437 0.0
C591 C 0.47847 0.65869 0.02672 0.0
H592 H 0.63676 0.2877 0.0936 0.0
H593 H 0.59594 0.2971 0.83657 0.0
H594 H 0.59805 0.25489 0.80607 0.0
H595 H 0.61556 0.21643 0.84294 0.0
H596 H 0.65931 0.2079 0.09404 0.0
H597 H 0.65284 0.24893 0.13467 0.0
C598 C 0.6278 0.28036 0.03245 0.0
C599 C 0.61586 0.29532 0.96826 0.0
C600 C 0.63043 0.25644 0.01255 0.0
C601 C 0.60463 0.28575 0.88831 0.0
C602 C 0.60628 0.26174 0.86994 0.0
C603 C 0.62377 0.2235 0.90649 0.0
C604 C 0.63815 0.20906 0.96473 0.0
C605 C 0.61989 0.24709 0.92972 0.0
C606 C 0.64831 0.21856 0.04749 0.0
C607 C 0.64449 0.24201 0.07117 0.0
H608 H 0.97193 0.37338 0.84308 0.0
H609 H 0.95714 0.33482 0.58736 0.0
H610 H 0.99893 0.33591 0.54454 0.0
H611 H 0.03831 0.35262 0.56931 0.0
H612 H 0.05182 0.39518 0.81714 0.0
H613 H 0.01153 0.38883 0.87133 0.0
C614 C 0.97803 0.36463 0.77955 0.0
C615 C 0.96167 0.35372 0.71912 0.0
C616 C 1.00161 0.36704 0.75192 0.0
C617 C 0.9696 0.34272 0.63618 0.0
C618 C 0.99337 0.34386 0.6107 0.0
C619 C 0.03249 0.3606 0.63508 0.0
C620 C 0.04811 0.3746 0.68841 0.0
C621 C 0.00929 0.35687 0.66597 0.0
C622 C 0.0402 0.38454 0.77402 0.0
C623 C 0.01721 0.38073 0.80562 0.0
H624 H 0.59737 0.71395 0.23364 0.0
H625 H 0.65121 0.70077 0.02406 0.0
H626 H 0.65212 0.7424 0.98182 0.0
H627 H 0.63902 0.78269 0.00963 0.0
H628 H 0.58654 0.79652 0.22261 0.0
H629 H 0.58277 0.75429 0.25538 0.0
C630 C 0.60939 0.72018 0.179 0.0
C631 C 0.62446 0.70425 0.13304 0.0
C632 C 0.60964 0.74415 0.15428 0.0
C633 C 0.63956 0.71261 0.06106 0.0
C634 C 0.64001 0.73641 0.03652 0.0
C635 C 0.62657 0.77639 0.06234 0.0
C636 C 0.61304 0.79253 0.11366 0.0
C637 C 0.62526 0.75232 0.08307 0.0
C638 C 0.59679 0.78428 0.18117 0.0
C639 C 0.59495 0.76022 0.20086 0.0
H640 H 0.97405 0.86743 0.4641 0.0
H641 H 0.99489 0.83363 0.20348 0.0
H642 H 0.03578 0.83297 0.25802 0.0
H643 H 0.06599 0.84762 0.36701 0.0
H644 H 0.04608 0.88201 0.62695 0.0
H645 H 0.00424 0.87714 0.58518 0.0
C646 C 0.98738 0.859 0.4211 0.0
C647 C 0.98146 0.85043 0.32989 0.0
C648 C 0.01103 0.85963 0.45124 0.0
C649 C 0.99902 0.84007 0.27414 0.0
C650 C 0.02243 0.84005 0.30468 0.0
C651 C 0.05244 0.85397 0.41469 0.0
C652 C 0.05891 0.86575 0.49845 0.0
C653 C 0.02871 0.8508 0.39075 0.0
C654 C 0.04137 0.87324 0.56134 0.0
C655 C 0.01753 0.87037 0.53752 0.0
H656 H 0.84996 0.24104 0.41695 0.0
H657 H 0.89903 0.21327 0.62539 0.0
H658 H 0.8948 0.24922 0.71947 0.0
H659 H 0.87838 0.28952 0.73619 0.0
H660 H 0.827 0.31418 0.5297 0.0
H661 H 0.83051 0.27782 0.44268 0.0
C662 C 0.85964 0.24245 0.48345 0.0
C663 C 0.87493 0.22434 0.5135 0.0
C664 C 0.85644 0.26253 0.53826 0.0
C665 C 0.88725 0.22694 0.60009 0.0
C666 C 0.88472 0.24743 0.65408 0.0
C667 C 0.86744 0.28668 0.67375 0.0
C668 C 0.85267 0.30486 0.63909 0.0
C669 C 0.86941 0.26545 0.62344 0.0
C670 C 0.83867 0.30075 0.55788 0.0
C671 C 0.8407 0.27995 0.50761 0.0
H672 H 0.54448 0.12382 0.02385 0.0
H673 H 0.5394 0.15242 0.7385 0.0
H674 H 0.49623 0.14911 0.74507 0.0
H675 H 0.46006 0.13557 0.8298 0.0
H676 H 0.46615 0.10798 0.11684 0.0
H677 H 0.5089 0.1128 0.11106 0.0
C678 C 0.53388 0.12981 0.96367 0.0
C679 C 0.54511 0.13856 0.88104 0.0
C680 C 0.50932 0.12739 0.96755 0.0
C681 C 0.5312 0.14609 0.80352 0.0
C682 C 0.50654 0.14381 0.80687 0.0
C683 C 0.47083 0.13042 0.8906 0.0
C684 C 0.46 0.12099 0.97318 0.0
C685 C 0.49544 0.13396 0.88779 0.0
C686 C 0.47407 0.11502 0.05236 0.0
C687 C 0.49849 0.11792 0.04925 0.0
H688 H 0.37776 0.30144 0.01923 0.0
H689 H 0.40663 0.29336 0.7365 0.0
H690 H 0.41575 0.25268 0.77044 0.0
H691 H 0.41028 0.21775 0.86979 0.0
H692 H 0.38258 0.22417 0.15358 0.0
H693 H 0.37865 0.26675 0.13096 0.0
C694 C 0.38651 0.2909 0.96609 0.0
C695 C 0.3909 0.30049 0.8745 0.0
C696 C 0.39187 0.26702 0.986 0.0
C697 C 0.40243 0.28646 0.80681 0.0
C698 C 0.40778 0.26308 0.82605 0.0
C699 C 0.40435 0.22864 0.9281 0.0
C700 C 0.39705 0.21792 0.01345 0.0
C701 C 0.40186 0.25295 0.91393 0.0
C702 C 0.38878 0.23211 0.08775 0.0
C703 C 0.38621 0.25645 0.07422 0.0
H704 H 0.95937 0.15665 0.54865 0.0
H705 H 0.93474 0.11535 0.78795 0.0
H706 H 0.97512 0.11153 0.84751 0.0
H707 H 0.01803 0.11533 0.8188 0.0
H708 H 0.0424 0.15685 0.58042 0.0
H709 H 1.00164 0.16534 0.53348 0.0
C710 C 0.96275 0.14726 0.61505 0.0
C711 C 0.94399 0.1361 0.66312 0.0
C712 C 0.98607 0.14498 0.64849 0.0
C713 C 0.94874 0.12417 0.7495 0.0
C714 C 0.9719 0.12179 0.78319 0.0
C715 C 0.01431 0.12678 0.75827 0.0
C716 C 0.03306 0.13565 0.70333 0.0
C717 C 0.99079 0.13144 0.73154 0.0
C718 C 0.02818 0.15015 0.62425 0.0
C719 C 0.00489 0.15483 0.5971 0.0
H720 H 0.11301 0.70341 0.35928 0.0
H721 H 0.17144 0.68386 0.54193 0.0
H722 H 0.16888 0.72134 0.62297 0.0
H723 H 0.15107 0.76011 0.6387 0.0
H724 H 0.09585 0.78177 0.44601 0.0
H725 H 0.09474 0.74239 0.37713 0.0
C726 C 0.12532 0.70742 0.41623 0.0
C727 C 0.1425 0.69084 0.44388 0.0
C728 C 0.12367 0.72902 0.46322 0.0
C729 C 0.15809 0.69627 0.5188 0.0
C730 C 0.15652 0.71762 0.5659 0.0
C731 C 0.13855 0.75601 0.5827 0.0
C732 C 0.12353 0.77362 0.54746 0.0
C733 C 0.13937 0.73407 0.53884 0.0
C734 C 0.10718 0.76823 0.47564 0.0
C735 C 0.10698 0.74592 0.43478 0.0
H736 H 0.54467 0.8655 0.10438 0.0
H737 H 0.55498 0.91304 0.33906 0.0
H738 H 0.51481 0.90541 0.39336 0.0
H739 H 0.47644 0.8864 0.37038 0.0
H740 H 0.46514 0.8417 0.12872 0.0
H741 H 0.50671 0.84559 0.08463 0.0
C742 C 0.53814 0.87441 0.16699 0.0
C743 C 0.55281 0.89012 0.21679 0.0
C744 C 0.51518 0.86969 0.19847 0.0
C745 C 0.54406 0.90108 0.29879 0.0
C746 C 0.52118 0.89654 0.33043 0.0
C747 C 0.48326 0.87716 0.30921 0.0
C748 C 0.46793 0.86366 0.25309 0.0
C749 C 0.50663 0.88088 0.28082 0.0
C750 C 0.47683 0.85169 0.17417 0.0
C751 C 0.50042 0.85439 0.14782 0.0
H752 H 0.17432 0.31279 0.23611 0.0
H753 H 0.13238 0.37264 0.31588 0.0
H754 H 0.13458 0.38792 0.15275 0.0
H755 H 0.14716 0.38345 0.98901 0.0
H756 H 0.18757 0.32271 0.90655 0.0
H757 H 0.18818 0.30905 0.07247 0.0
C758 C 0.16537 0.32903 0.21775 0.0
C759 C 0.15293 0.34148 0.28747 0.0
C760 C 0.16693 0.33775 0.12468 0.0
C761 C 0.14188 0.36272 0.26308 0.0
C762 C 0.14329 0.37151 0.17024 0.0
C763 C 0.15638 0.36733 0.00693 0.0
C764 C 0.16696 0.35389 0.93529 0.0
C765 C 0.15575 0.35912 0.10079 0.0
C766 C 0.17912 0.33327 0.96037 0.0
C767 C 0.17925 0.32534 0.05484 0.0
H768 H 0.42667 0.40757 0.40222 0.0
H769 H 0.36627 0.36213 0.37377 0.0
H770 H 0.36701 0.36711 0.20184 0.0
H771 H 0.38349 0.38541 0.05847 0.0
H772 H 0.44215 0.43285 0.08355 0.0
H773 H 0.44379 0.42558 0.25578 0.0
C774 C 0.41346 0.39912 0.35868 0.0
C775 C 0.39625 0.38484 0.40203 0.0
C776 C 0.41363 0.40236 0.25859 0.0
C777 C 0.3798 0.37327 0.3433 0.0
C778 C 0.38008 0.37614 0.24445 0.0
C779 C 0.39653 0.39426 0.10192 0.0
C780 C 0.41255 0.40973 0.05876 0.0
C781 C 0.39672 0.39081 0.20135 0.0
C782 C 0.42937 0.42111 0.11567 0.0
C783 C 0.43021 0.41709 0.21437 0.0
H784 H 0.31438 0.6798 0.31511 0.0
H785 H 0.34334 0.61237 0.24441 0.0
H786 H 0.35557 0.60611 0.41019 0.0
H787 H 0.35816 0.61996 0.57406 0.0
H788 H 0.33103 0.68812 0.64565 0.0
H789 H 0.31837 0.69435 0.47977 0.0
C790 C 0.32316 0.6637 0.33691 0.0
C791 C 0.32793 0.64647 0.26926 0.0
C792 C 0.33061 0.66053 0.4316 0.0
C793 C 0.33963 0.6258 0.2963 0.0
C794 C 0.34661 0.62225 0.39065 0.0
C795 C 0.34957 0.63623 0.55308 0.0
C796 C 0.34514 0.65343 0.62135 0.0
C797 C 0.34233 0.63957 0.45858 0.0
C798 C 0.33404 0.67444 0.59406 0.0
C799 C 0.32687 0.678 0.49956 0.0
H800 H 0.08317 0.58883 0.67228 0.0
H801 H 0.15575 0.5687 0.71007 0.0
H802 H 0.15184 0.57195 0.8834 0.0
H803 H 0.12812 0.58208 0.02507 0.0
H804 H 0.05576 0.60314 0.98553 0.0
H805 H 0.05943 0.59854 0.81327 0.0
C806 C 0.09794 0.58455 0.71864 0.0
C807 C 0.11961 0.57814 0.67813 0.0
C808 C 0.09581 0.58731 0.81832 0.0
C809 C 0.13878 0.57336 0.73936 0.0
C810 C 0.13663 0.57549 0.83855 0.0
C811 C 0.11329 0.58605 0.9786 0.0
C812 C 0.09176 0.5932 0.01863 0.0
C813 C 0.11536 0.58293 0.87892 0.0
C814 C 0.0726 0.59778 0.95701 0.0
C815 C 0.0746 0.59495 0.85828 0.0
H816 H 0.85747 0.62101 0.08069 0.0
H817 H 0.8143 0.67996 0.15999 0.0
H818 H 0.81034 0.69145 -0.00715 0.0
H819 H 0.82236 0.68647 0.82726 0.0
H820 H 0.86531 0.62716 0.74987 0.0
H821 H 0.86623 0.61389 0.91583 0.0
C822 C 0.84703 0.63633 0.06209 0.0
C823 C 0.83713 0.65039 0.13297 0.0
C824 C 0.84505 0.64278 0.96693 0.0
C825 C 0.82301 0.66959 0.10702 0.0
C826 C 0.82064 0.67605 0.01154 0.0
C827 C 0.83203 0.67073 0.84715 0.0
C828 C 0.84424 0.65802 0.77835 0.0
C829 C 0.83232 0.6632 0.94161 0.0
C830 C 0.85608 0.63726 0.80297 0.0
C831 C 0.85653 0.62967 0.89724 0.0
H832 H 0.5436 0.59658 0.57692 0.0
H833 H 0.6153 0.60001 0.47493 0.0
H834 H 0.63014 0.59659 0.63635 0.0
H835 H 0.6232 0.59301 0.80725 0.0
H836 H 0.55217 0.59531 0.91216 0.0
H837 H 0.53667 0.59486 0.75001 0.0
C838 C 0.56243 0.59669 0.59026 0.0
C839 C 0.57817 0.5986 0.51392 0.0
C840 C 0.57106 0.59496 0.68394 0.0
C841 C 0.60261 0.59878 0.53227 0.0
C842 C 0.61126 0.59662 0.6247 0.0
C843 C 0.60434 0.59305 0.79432 0.0
C844 C 0.58877 0.59266 0.87127 0.0
C845 C 0.59567 0.59464 0.701 0.0
C846 C 0.5644 0.59357 0.85395 0.0
C847 C 0.55556 0.59412 0.76113 0.0
H848 H 0.6384 0.38232 0.55994 0.0
H849 H 0.70118 0.34376 0.63228 0.0
H850 H 0.70313 0.32856 0.46888 0.0
H851 H 0.68665 0.32677 0.30572 0.0
H852 H 0.62565 0.36841 0.23311 0.0
H853 H 0.62309 0.38199 0.39769 0.0
C854 C 0.65271 0.3708 0.53994 0.0
C855 C 0.66947 0.36362 0.60832 0.0
C856 C 0.65374 0.36259 0.44652 0.0
C857 C 0.68776 0.34868 0.58131 0.0
C858 C 0.6889 0.34022 0.48809 0.0
C859 C 0.67261 0.33851 0.32678 0.0
C860 C 0.65611 0.34637 0.25874 0.0
C861 C 0.67178 0.34686 0.42046 0.0
C862 C 0.63836 0.36206 0.28517 0.0
C863 C 0.63699 0.36989 0.37878 0.0
H864 H 0.92599 0.40321 0.37505 0.0
H865 H 0.85292 0.42166 0.33728 0.0
H866 H 0.85706 0.4193 0.16406 0.0
H867 H 0.88105 0.41037 0.02253 0.0
H868 H 0.954 0.39124 0.06098 0.0
H869 H 0.95017 0.39507 0.23347 0.0
C870 C 0.91114 0.40726 0.32878 0.0
C871 C 0.88924 0.41282 0.36923 0.0
C872 C 0.91346 0.40518 0.22892 0.0
C873 C 0.87003 0.41748 0.30807 0.0
C874 C 0.87232 0.41593 0.2089 0.0
C875 C 0.89602 0.40675 0.06871 0.0
C876 C 0.91772 0.40033 0.0284 0.0
C877 C 0.89382 0.40932 0.16843 0.0
C878 C 0.93703 0.3961 0.08969 0.0
C879 C 0.93492 0.39843 0.18859 0.0
H880 H 0.67122 0.81951 0.76931 0.0
H881 H 0.63884 0.8848 0.85146 0.0
H882 H 0.64246 0.89964 0.68829 0.0
H883 H 0.65381 0.89357 0.5239 0.0
H884 H 0.68399 0.82742 0.43975 0.0
H885 H 0.68344 0.81381 0.60483 0.0
C886 C 0.66466 0.83688 0.75143 0.0
C887 C 0.65457 0.851 0.82181 0.0
C888 C 0.66702 0.84533 0.65835 0.0
C889 C 0.64653 0.8736 0.79807 0.0
C890 C 0.64877 0.88214 0.70521 0.0
C891 C 0.66053 0.87624 0.54131 0.0
C892 C 0.66877 0.86144 0.46916 0.0
C893 C 0.65901 0.86813 0.6351 0.0
C894 C 0.67767 0.83921 0.49364 0.0
C895 C 0.67703 0.83128 0.58789 0.0
H896 H 0.91438 0.92014 -0.00253 0.0
H897 H 0.91046 0.84503 0.97136 0.0
H898 H 0.91426 0.84847 0.79799 0.0
H899 H 0.91712 0.87295 0.65304 0.0
H900 H 0.91999 0.94827 0.67961 0.0
H901 H 0.91775 0.94463 0.85252 0.0
C902 C 0.91493 0.90456 0.95384 0.0
C903 C 0.91247 0.88238 -0.00314 0.0
C904 C 0.91653 0.9067 0.85397 0.0
C905 C 0.91245 0.8623 0.93948 0.0
C906 C 0.91452 0.86425 0.84043 0.0
C907 C 0.91724 0.88855 0.69668 0.0
C908 C 0.91869 0.9108 0.65311 0.0
C909 C 0.9162 0.88639 0.79668 0.0
C910 C 0.91896 0.93086 0.71097 0.0
C911 C 0.9178 0.92884 0.81019 0.0
H912 H 0.82499 0.15293 0.16645 0.0
H913 H 0.90032 0.14927 0.13359 0.0
H914 H 0.89598 0.15239 0.96044 0.0
H915 H 0.87082 0.15578 0.81748 0.0
H916 H 0.79548 0.1609 0.85051 0.0
H917 H 0.79985 0.15825 0.02383 0.0
C918 C 0.84048 0.1536 0.12182 0.0
C919 C 0.86296 0.15137 0.16374 0.0
C920 C 0.83786 0.15552 0.0218 0.0
C921 C 0.88279 0.15106 0.10372 0.0
C922 C 0.88033 0.15284 0.00445 0.0
C923 C 0.85533 0.15627 0.86245 0.0
C924 C 0.83285 0.15846 0.8204 0.0
C925 C 0.85795 0.15493 0.96254 0.0
C926 C 0.81303 0.15924 0.8804 0.0
C927 C 0.81549 0.1577 0.97981 0.0
H928 H 0.57635 0.08421 0.52088 0.0
H929 H 0.63849 0.12259 0.60557 0.0
H930 H 0.65391 0.12 0.44403 0.0
H931 H 0.64939 0.10767 0.2804 0.0
H932 H 0.5863 0.0715 0.19156 0.0
H933 H 0.5721 0.07127 0.3556 0.0
C934 C 0.5931 0.09231 0.50366 0.0
C935 C 0.6062 0.10375 0.57451 0.0
C936 C 0.60195 0.09056 0.41118 0.0
C937 C 0.62806 0.1138 0.55184 0.0
C938 C 0.63697 0.11216 0.4599 0.0
C939 C 0.63261 0.09949 0.29654 0.0
C940 C 0.61881 0.0898 0.22342 0.0
C941 C 0.62408 0.10052 0.38939 0.0
C942 C 0.59731 0.07899 0.24635 0.0
C943 C 0.58902 0.07918 0.3399 0.0
H944 H 0.34863 0.17914 0.63552 0.0
H945 H 0.35298 0.1041 0.60462 0.0
H946 H 0.35115 0.10835 0.43126 0.0
H947 H 0.34981 0.13343 0.28745 0.0
H948 H 0.34595 0.20859 0.3187 0.0
H949 H 0.34611 0.20417 0.49176 0.0
C950 C 0.34873 0.16372 0.59094 0.0
C951 C 0.35087 0.14136 0.63325 0.0
C952 C 0.34806 0.16628 0.49082 0.0
C953 C 0.35142 0.12156 0.57406 0.0
C954 C 0.35043 0.12395 0.47473 0.0
C955 C 0.34905 0.14885 0.33203 0.0
C956 C 0.34796 0.17128 0.28951 0.0
C957 C 0.3491 0.14625 0.43215 0.0
C958 C 0.34685 0.19105 0.34891 0.0
C959 C 0.34689 0.18859 0.44826 0.0
H960 H 0.06814 0.05841 0.06305 0.0
H961 H 0.10071 0.12483 -0.00305 0.0
H962 H 0.11486 0.12788 0.1617 0.0
H963 H 0.11794 0.11166 0.32369 0.0
H964 H 0.08776 0.04408 0.38941 0.0
H965 H 0.07341 0.04097 0.22447 0.0
C966 C 0.07801 0.07368 0.08561 0.0
C967 C 0.08294 0.09168 0.0193 0.0
C968 C 0.08682 0.07486 0.1795 0.0
C969 C 0.09642 0.11102 0.04768 0.0
C970 C 0.10463 0.11266 0.14145 0.0
C971 C 0.10838 0.09613 0.30184 0.0
C972 C 0.10357 0.07826 0.369 0.0
C973 C 0.10004 0.09463 0.20772 0.0
C974 C 0.09114 0.05831 0.33964 0.0
C975 C 0.08297 0.05655 0.24543 0.0
H976 H 0.16103 0.81244 0.18685 0.0
H977 H 0.17659 0.8861 0.15872 0.0
H978 H 0.17968 0.88229 0.98532 0.0
H979 H 0.17702 0.85805 0.84102 0.0
H980 H 0.16163 0.78424 0.87048 0.0
H981 H 0.15886 0.78813 0.0431 0.0
C982 C 0.16569 0.82747 0.14278 0.0
C983 C 0.16903 0.84938 0.18512 0.0
C984 C 0.16702 0.82521 0.04315 0.0
C985 C 0.17417 0.86899 0.12725 0.0
C986 C 0.17582 0.86685 0.02825 0.0
C987 C 0.17301 0.84287 0.8854 0.0
C988 C 0.16951 0.82093 0.84305 0.0
C989 C 0.17202 0.84509 0.98522 0.0
C990 C 0.16451 0.80134 0.90139 0.0
C991 C 0.16304 0.8035 0.00026 0.0
H992 H 0.43999 0.91902 0.60985 0.0
H993 H 0.37468 0.88619 0.52548 0.0
H994 H 0.3594 0.89081 0.68662 0.0
H995 H 0.36498 0.90322 0.8502 0.0
H996 H 0.43105 0.93403 0.93747 0.0
H997 H 0.44521 0.93232 0.77374 0.0
C998 C 0.42252 0.91258 0.62683 0.0
C999 C 0.40855 0.90206 0.55612 0.0
C1000 C 0.41377 0.91555 0.71894 0.0
C1001 C 0.38582 0.89419 0.57892 0.0
C1002 C 0.377 0.89701 0.67068 0.0
C1003 C 0.38241 0.90987 0.83377 0.0
C1004 C 0.39702 0.91858 0.90663 0.0
C1005 C 0.39084 0.90772 0.74092 0.0
C1006 C 0.4194 0.92733 0.88312 0.0
C1007 C 0.42764 0.92603 0.78969 0.0
H1008 H 0.21395 0.27141 0.29853 0.0
H1009 H 0.27689 0.3051 0.40398 0.0
H1010 H 0.29931 0.28895 0.27124 0.0
H1011 H 0.30152 0.26283 0.13527 0.0
H1012 H 0.23903 0.22762 0.03359 0.0
H1013 H 0.21559 0.24769 0.15406 0.0
C1014 C 0.23261 0.27519 0.29288 0.0
C1015 C 0.2439 0.289 0.36227 0.0
C1016 C 0.24531 0.26583 0.21691 0.0
C1017 C 0.26789 0.29427 0.35223 0.0
C1018 C 0.28067 0.28511 0.27631 0.0
C1019 C 0.28272 0.25963 0.13845 0.0
C1020 C 0.27211 0.24327 0.07698 0.0
C1021 C 0.26962 0.27052 0.20954 0.0
C1022 C 0.24767 0.23986 0.08089 0.0
C1023 C 0.23431 0.25119 0.15012 0.0
H1024 H 0.47657 0.54194 0.3787 0.0
H1025 H 0.50817 0.48396 0.22958 0.0
H1026 H 0.47535 0.45885 0.27546 0.0
H1027 H 0.44107 0.45219 0.37436 0.0
H1028 H 0.41164 0.50858 0.53823 0.0
H1029 H 0.43939 0.536 0.46461 0.0
C1030 C 0.47631 0.52382 0.356 0.0
C1031 C 0.49512 0.51471 0.30259 0.0
C1032 C 0.45751 0.50939 0.38346 0.0
C1033 C 0.49423 0.4913 0.27256 0.0
C1034 C 0.47533 0.47699 0.29783 0.0
C1035 C 0.44009 0.47059 0.39167 0.0
C1036 C 0.4247 0.47812 0.46357 0.0
C1037 C 0.45723 0.48572 0.35513 0.0
C1038 C 0.42351 0.50218 0.48404 0.0
C1039 C 0.43968 0.51779 0.44329 0.0
H1040 H 0.28167 0.6868 0.58105 0.0
H1041 H 0.22952 0.68513 0.80381 0.0
H1042 H 0.21183 0.72098 0.73966 0.0
H1043 H 0.21619 0.75682 0.64006 0.0
H1044 H 0.27039 0.75935 0.42487 0.0
H1045 H 0.28238 0.71958 0.467 0.0
C1046 C 0.26601 0.69387 0.61385 0.0
C1047 C 0.25742 0.68348 0.6985 0.0
C1048 C 0.25675 0.71524 0.57986 0.0
C1049 C 0.23674 0.69267 0.73893 0.0
C1050 C 0.22681 0.7135 0.7032 0.0
C1051 C 0.2304 0.74855 0.60148 0.0
C1052 C 0.24264 0.7613 0.53051 0.0
C1053 C 0.23752 0.72564 0.62712 0.0
C1054 C 0.26089 0.75017 0.48079 0.0
C1055 C 0.26774 0.72734 0.50465 0.0
H1056 H 0.01955 0.53732 0.06957 0.0
H1057 H 0.03626 0.47353 0.22491 0.0
H1058 H 0.01913 0.45044 0.0957 0.0
H1059 H 0.99912 0.44869 0.9421 0.0
H1060 H 0.9816 0.51251 0.78827 0.0
H1061 H 1.00025 0.53554 0.91417 0.0
C1062 C 0.01929 0.51836 0.076 0.0
C1063 C 0.02897 0.5071 0.15715 0.0
C1064 C 0.00973 0.50533 0.00155 0.0
C1065 C 0.02883 0.48255 0.16334 0.0
C1066 C 0.01915 0.46939 0.08944 0.0
C1067 C 0.99955 0.46765 0.93505 0.0
C1068 C 0.98887 0.47893 0.856 0.0
C1069 C 0.00964 0.48065 0.00839 0.0
C1070 C 0.98961 0.50346 0.84854 0.0
C1071 C 1.00013 0.51658 0.92064 0.0
H1072 H 0.79911 0.75088 0.72288 0.0
H1073 H 0.735 0.73343 0.57193 0.0
H1074 H 0.712 0.75302 0.69525 0.0
H1075 H 0.71031 0.77339 0.84746 0.0
H1076 H 0.77445 0.78992 -0.00023 0.0
H1077 H 0.7975 0.77177 0.87304 0.0
C1078 C 0.78009 0.75138 0.71605 0.0
C1079 C 0.76875 0.74055 0.63829 0.0
C1080 C 0.7671 0.76215 0.78767 0.0
C1081 C 0.74413 0.74153 0.6311 0.0
C1082 C 0.73101 0.75263 0.70168 0.0
C1083 C 0.72935 0.77293 0.85366 0.0
C1084 C 0.74071 0.78283 0.93342 0.0
C1085 C 0.74235 0.76263 0.78083 0.0
C1086 C 0.76535 0.78239 0.93926 0.0
C1087 C 0.77847 0.77207 0.86688 0.0
H1088 H 0.71374 0.24728 0.12838 0.0
H1089 H 0.77537 0.2782 -0.00196 0.0
H1090 H 0.79856 0.2439 0.04444 0.0
H1091 H 0.80218 0.20735 0.13401 0.0
H1092 H 0.74181 0.17855 0.2808 0.0
H1093 H 0.71688 0.20901 0.20944 0.0
C1094 C 0.73226 0.24659 0.1101 0.0
C1095 C 0.74288 0.26557 0.0612 0.0
C1096 C 0.74556 0.22691 0.13774 0.0
C1097 C 0.76682 0.26413 0.03722 0.0
C1098 C 0.78004 0.24439 0.06279 0.0
C1099 C 0.78346 0.20731 0.14916 0.0
C1100 C 0.77405 0.19094 0.21493 0.0
C1101 C 0.76967 0.2259 0.11438 0.0
C1102 C 0.74964 0.191 0.23132 0.0
C1103 C 0.73544 0.20869 0.1919 0.0
H1104 H 0.98591 0.03325 0.88834 0.0
H1105 H 0.01385 0.97485 0.7305 0.0
H1106 H 0.98653 0.9484 0.81204 0.0
H1107 H 0.96063 0.94119 0.94738 0.0
H1108 H 0.93579 0.99918 0.11573 0.0
H1109 H 0.95521 0.02667 0.0071 0.0
C1110 C 0.98597 0.01477 0.87089 0.0
C1111 C 0.00251 0.00589 0.80591 0.0
C1112 C 0.97068 0.99964 0.91955 0.0
C1113 C 1.00178 0.98203 0.78228 0.0
C1114 C 0.98609 0.96692 0.82851 0.0
C1115 C 0.95893 0.95987 0.95938 0.0
C1116 C 0.94749 0.96807 0.04172 0.0
C1117 C 0.97129 0.97542 0.90031 0.0
C1118 C 0.94486 0.99234 0.05405 0.0
C1119 C 0.9562 0.00806 -0.00743 0.0
H1120 H 0.49757 0.95725 0.50598 0.0
H1121 H 0.47126 0.02127 0.37632 0.0
H1122 H 0.49471 0.04421 0.48834 0.0
H1123 H 0.52197 0.04589 0.6223 0.0
H1124 H 0.54825 0.982 0.75294 0.0
H1125 H 0.52519 0.95895 0.63954 0.0
C1126 C 0.49694 0.97624 0.50169 0.0
C1127 C 0.48261 0.98757 0.43293 0.0
C1128 C 0.51031 0.98922 0.56617 0.0
C1129 C 0.48206 0.01215 0.42872 0.0
C1130 C 0.49545 0.02524 0.49265 0.0
C1131 C 0.52269 0.0269 0.62663 0.0
C1132 C 0.53676 0.01564 0.69636 0.0
C1133 C 0.5095 0.01391 0.56173 0.0
C1134 C 0.53757 0.99106 0.70001 0.0
C1135 C 0.5244 0.97792 0.63532 0.0
H1136 H 0.1468 0.50022 0.23791 0.0
H1137 H 0.16884 0.53227 0.4996 0.0
H1138 H 0.17321 0.4937 0.5749 0.0
H1139 H 0.15856 0.45301 0.57975 0.0
H1140 H 0.13065 0.42208 0.3227 0.0
H1141 H 0.13977 0.45788 0.23326 0.0
C1142 C 0.15398 0.49862 0.30965 0.0
C1143 C 0.15616 0.51902 0.36495 0.0
C1144 C 0.15354 0.47654 0.35536 0.0
C1145 C 0.16633 0.51684 0.45619 0.0
C1146 C 0.16797 0.49474 0.50046 0.0
C1147 C 0.1547 0.45393 0.5039 0.0
C1148 C 0.14313 0.43508 0.45892 0.0
C1149 C 0.1595 0.47479 0.45319 0.0
C1150 C 0.13892 0.43648 0.35996 0.0
C1151 C 0.1443 0.45692 0.30846 0.0
H1152 H 0.28005 0.38187 0.86535 0.0
H1153 H 0.30924 0.3934 0.5842 0.0
H1154 H 0.27339 0.41245 0.53163 0.0
H1155 H 0.23121 0.41692 0.55258 0.0
H1156 H 0.19971 0.40093 0.82189 0.0
H1157 H 0.23852 0.39525 0.89505 0.0
C1158 C 0.27855 0.38868 0.79302 0.0
C1159 C 0.29696 0.38505 0.72775 0.0
C1160 C 0.25738 0.39936 0.7615 0.0
C1161 C 0.29498 0.39479 0.63496 0.0
C1162 C 0.27458 0.40615 0.60482 0.0
C1163 C 0.23298 0.41342 0.62863 0.0
C1164 C 0.21306 0.40575 0.67874 0.0
C1165 C 0.25526 0.40742 0.66567 0.0
C1166 C 0.21517 0.40443 0.77896 0.0
C1167 C 0.2374 0.40026 0.82031 0.0
H1168 H 0.37391 0.54522 0.78464 0.0
H1169 H 0.38203 0.53587 0.08925 0.0
H1170 H 0.37526 0.49371 0.07307 0.0
H1171 H 0.36767 0.45926 0.97119 0.0
H1172 H 0.35988 0.46919 0.66711 0.0
H1173 H 0.36524 0.51143 0.6845 0.0
C1174 C 0.37448 0.53398 0.84756 0.0
C1175 C 0.37875 0.54374 0.93794 0.0
C1176 C 0.37003 0.50989 0.83802 0.0
C1177 C 0.37897 0.52885 0.0187 0.0
C1178 C 0.37491 0.50474 0.00959 0.0
C1179 C 0.36637 0.47082 0.90937 0.0
C1180 C 0.36283 0.46125 0.81817 0.0
C1181 C 0.37022 0.49507 0.91966 0.0
C1182 C 0.36208 0.47628 0.73812 0.0
C1183 C 0.36547 0.50036 0.74791 0.0
H1184 H 0.21611 0.58643 0.26748 0.0
H1185 H 0.18273 0.63021 0.05319 0.0
H1186 H 0.21891 0.63037 0.95936 0.0
H1187 H 0.2612 0.62105 0.94549 0.0
H1188 H 0.2945 0.57846 0.16416 0.0
H1189 H 0.25709 0.57416 0.24602 0.0
C1190 C 0.2166 0.59583 0.19979 0.0
C1191 C 0.1967 0.60854 0.16845 0.0
C1192 C 0.23754 0.59601 0.14634 0.0
C1193 C 0.19772 0.62034 0.07971 0.0
C1194 C 0.21847 0.62049 0.02588 0.0
C1195 C 0.2603 0.61074 0.01077 0.0
C1196 C 0.281 0.60072 0.04947 0.0
C1197 C 0.23869 0.60884 0.05962 0.0
C1198 C 0.27911 0.5867 0.13259 0.0
C1199 C 0.25766 0.58433 0.18024 0.0
H1200 H 0.84616 0.47316 0.55346 0.0
H1201 H 0.86834 0.48558 0.84226 0.0
H1202 H 0.86106 0.52751 0.82172 0.0
H1203 H 0.86015 0.56073 0.70603 0.0
H1204 H 0.83915 0.54746 0.41468 0.0
H1205 H 0.83405 0.50616 0.45164 0.0
C1206 C 0.84783 0.48487 0.61373 0.0
C1207 C 0.85823 0.47647 0.69832 0.0
C1208 C 0.84499 0.50911 0.59918 0.0
C1209 C 0.86035 0.49172 0.77616 0.0
C1210 C 0.85682 0.51584 0.76352 0.0
C1211 C 0.85382 0.54893 0.65141 0.0
C1212 C 0.8511 0.5571 0.55677 0.0
C1213 C 0.85106 0.52487 0.6728 0.0
C1214 C 0.84229 0.5416 0.48747 0.0
C1215 C 0.83921 0.51788 0.50848 0.0
H1216 H 0.69931 0.5985 0.21709 0.0
H1217 H 0.66857 0.62453 0.47691 0.0
H1218 H 0.7074 0.62519 0.55207 0.0
H1219 H 0.75037 0.62637 0.53219 0.0
H1220 H 0.78126 0.60367 0.26889 0.0
H1221 H 0.74232 0.59265 0.20866 0.0
C1222 C 0.70095 0.60387 0.29087 0.0
C1223 C 0.6809 0.61201 0.34022 0.0
C1224 C 0.72353 0.60465 0.33336 0.0
C1225 C 0.68355 0.61853 0.43631 0.0
C1226 C 0.70584 0.6189 0.47953 0.0
C1227 C 0.74869 0.6177 0.46386 0.0
C1228 C 0.76878 0.61562 0.40554 0.0
C1229 C 0.72604 0.61301 0.42737 0.0
C1230 C 0.76626 0.60497 0.31611 0.0
C1231 C 0.74384 0.59926 0.28071 0.0
H1232 H 0.65156 0.53539 0.07795 0.0
H1233 H 0.62355 0.51606 0.35231 0.0
H1234 H 0.6351 0.47538 0.3285 0.0
H1235 H 0.64157 0.44452 0.20757 0.0
H1236 H 0.67128 0.46468 0.9352 0.0
H1237 H 0.67099 0.50548 0.98082 0.0
C1238 C 0.64952 0.5226 0.13526 0.0
C1239 C 0.63608 0.52848 0.21519 0.0
C1240 C 0.65545 0.49902 0.11931 0.0
C1241 C 0.63372 0.51183 0.28945 0.0
C1242 C 0.63976 0.48836 0.27476 0.0
C1243 C 0.6487 0.45772 0.15946 0.0
C1244 C 0.65518 0.45152 0.06619 0.0
C1245 C 0.64877 0.4815 0.18633 0.0
C1246 C 0.66516 0.46888 0.00617 0.0
C1247 C 0.66513 0.49239 0.03213 0.0
H1248 H 0.74662 0.39858 0.07599 0.0
H1249 H 0.71607 0.42303 0.81211 0.0
H1250 H 0.75485 0.43476 0.75438 0.0
H1251 H 0.79649 0.42358 0.75671 0.0
H1252 H 0.82652 0.39185 0.01084 0.0
H1253 H 0.7894 0.39725 0.09467 0.0
C1254 C 0.74842 0.40789 0.00836 0.0
C1255 C 0.72898 0.40885 0.946 0.0
C1256 C 0.77101 0.41182 0.97179 0.0
C1257 C 0.731 0.42156 0.86021 0.0
C1258 C 0.75332 0.42759 0.82609 0.0
C1259 C 0.79516 0.41835 0.8312 0.0
C1260 C 0.81386 0.40623 0.87604 0.0
C1261 C 0.77343 0.42043 0.87735 0.0
C1262 C 0.81211 0.40043 0.97355 0.0
C1263 C 0.79088 0.40357 0.02166 0.0
H1264 H 0.66538 0.96522 0.12833 0.0
H1265 H 0.64267 0.93522 0.86131 0.0
H1266 H 0.6532 0.97144 0.77743 0.0
H1267 H 0.65951 0.01384 0.78745 0.0
H1268 H 0.67581 0.04491 0.05768 0.0
H1269 H 0.6796 0.00604 0.13097 0.0
C1270 C 0.66301 0.96641 0.05155 0.0
C1271 C 0.65244 0.9477 0.00185 0.0
C1272 C 0.66852 0.98754 0.00401 0.0
C1273 C 0.65013 0.94948 0.90198 0.0
C1274 C 0.65632 0.97018 0.85373 0.0
C1275 C 0.66533 0.01199 0.86109 0.0
C1276 C 0.66578 0.03211 0.91875 0.0
C1277 C 0.6644 0.98968 0.90477 0.0
C1278 C 0.67444 0.02967 0.01239 0.0
C1279 C 0.67573 0.00738 0.05526 0.0
H1280 H 0.80785 0.89794 0.18843 0.0
H1281 H 0.79273 0.87849 0.48043 0.0
H1282 H 0.75214 0.8924 0.46025 0.0
H1283 H 0.71974 0.90177 0.34921 0.0
H1284 H 0.73452 0.91628 0.05419 0.0
H1285 H 0.77673 0.91538 0.08753 0.0
C1286 C 0.79571 0.89678 0.2479 0.0
C1287 C 0.80297 0.88626 0.3347 0.0
C1288 C 0.77252 0.90473 0.23562 0.0
C1289 C 0.78734 0.88588 0.41218 0.0
C1290 C 0.76422 0.89403 0.40087 0.0
C1291 C 0.73228 0.90614 0.29346 0.0
C1292 C 0.72431 0.90701 0.19798 0.0
C1293 C 0.75639 0.90257 0.31169 0.0
C1294 C 0.74033 0.91426 0.12763 0.0
C1295 C 0.76454 0.91282 0.14604 0.0
H1296 H 0.87146 0.96053 0.53914 0.0
H1297 H 0.88752 0.9688 0.23976 0.0
H1298 H 0.89053 0.01118 0.25862 0.0
H1299 H 0.89 0.04552 0.36059 0.0
H1300 H 0.87427 0.0378 0.66076 0.0
H1301 H 0.87006 0.99544 0.64142 0.0
C1302 C 0.87503 0.97171 0.47774 0.0
C1303 C 0.87897 0.96169 0.38793 0.0
C1304 C 0.87729 0.99603 0.4896 0.0
C1305 C 0.88422 0.97624 0.30935 0.0
C1306 C 0.88613 0.00041 0.32024 0.0
C1307 C 0.88584 0.03461 0.42217 0.0
C1308 C 0.88262 0.04484 0.51213 0.0
C1309 C 0.88308 0.01043 0.41029 0.0
C1310 C 0.87693 0.03039 0.59072 0.0
C1311 C 0.87439 0.00618 0.57964 0.0
H1312 H 0.7883 0.09926 0.71677 0.0
H1313 H 0.76976 0.13262 0.44917 0.0
H1314 H 0.72898 0.1366 0.50212 0.0
H1315 H 0.69927 0.134 0.63193 0.0
H1316 H 0.71913 0.10066 0.89888 0.0
H1317 H 0.75827 0.09326 0.83835 0.0
C1318 C 0.77529 0.10693 0.66889 0.0
C1319 C 0.78229 0.11588 0.57944 0.0
C1320 C 0.75195 0.10951 0.70037 0.0
C1321 C 0.76501 0.12583 0.51895 0.0
C1322 C 0.74164 0.12818 0.54933 0.0
C1323 C 0.71208 0.12489 0.67635 0.0
C1324 C 0.70614 0.11833 0.77062 0.0
C1325 C 0.735 0.12069 0.64118 0.0
C1326 C 0.72308 0.10637 0.82668 0.0
C1327 C 0.74561 0.102 0.79208 0.0
H1328 H 0.34764 0.04414 0.00105 0.0
H1329 H 0.36571 0.07477 0.27246 0.0
H1330 H 0.35915 0.03712 0.35211 0.0
H1331 H 0.35824 0.99431 0.33725 0.0
H1332 H 0.34435 0.96333 0.06431 0.0
H1333 H 0.33747 0.00212 -0.00585 0.0
C1334 C 0.34973 0.04274 0.07791 0.0
C1335 C 0.35798 0.06217 0.13004 0.0
C1336 C 0.34634 0.02085 0.12328 0.0
C1337 C 0.35992 0.06008 0.22997 0.0
C1338 C 0.35609 0.0385 0.27579 0.0
C1339 C 0.35218 0.99601 0.26387 0.0
C1340 C 0.35265 0.97608 0.2052 0.0
C1341 C 0.35055 0.01853 0.2224 0.0
C1342 C 0.34441 0.97839 0.11088 0.0
C1343 C 0.34126 0.00072 0.06992 0.0
H1344 H 0.20955 0.08661 0.73755 0.0
H1345 H 0.17737 0.11687 0.98651 0.0
H1346 H 0.21599 0.12074 0.06145 0.0
H1347 H 0.25891 0.1236 0.04093 0.0
H1348 H 0.2911 0.0962 0.78802 0.0
H1349 H 0.25277 0.0822 0.73207 0.0
C1350 C 0.21085 0.09355 0.80917 0.0
C1351 C 0.19041 0.10193 0.85507 0.0
C1352 C 0.2333 0.09616 0.85148 0.0
C1353 C 0.19264 0.11053 0.94853 0.0
C1354 C 0.21482 0.1128 0.99158 0.0
C1355 C 0.25771 0.11329 0.9764 0.0
C1356 C 0.27793 0.11073 0.91927 0.0
C1357 C 0.23533 0.10671 0.94191 0.0
C1358 C 0.27599 0.09793 0.83444 0.0
C1359 C 0.2539 0.09048 0.80126 0.0
H1360 H 0.13912 0.92956 0.78217 0.0
H1361 H 0.17987 0.93727 0.52441 0.0
H1362 H 0.18011 0.97958 0.54157 0.0
H1363 H 0.15853 0.0137 0.60287 0.0
H1364 H 0.11977 0.00678 0.86478 0.0
H1365 H 0.12968 0.96522 0.87514 0.0
C1366 C 0.14896 0.94041 0.73235 0.0
C1367 C 0.15846 0.93034 0.64979 0.0
C1368 C 0.14911 0.96503 0.7425 0.0
C1369 C 0.17159 0.94466 0.58688 0.0
C1370 C 0.17175 0.96895 0.59636 0.0
C1371 C 0.15365 0.00346 0.66547 0.0
C1372 C 0.1382 0.01314 0.7321 0.0
C1373 C 0.15906 0.97938 0.66993 0.0
C1374 C 0.1318 0.99965 0.81263 0.0
C1375 C 0.13704 0.9757 0.81755 0.0
H1376 H 0.24446 0.8822 0.57811 0.0
H1377 H 0.21295 0.90762 0.3174 0.0
H1378 H 0.25156 0.91902 0.25687 0.0
H1379 H 0.29365 0.90926 0.2581 0.0
H1380 H 0.32489 0.87839 0.51153 0.0
H1381 H 0.28736 0.88123 0.59431 0.0
C1382 C 0.24599 0.89164 0.51067 0.0
C1383 C 0.22617 0.89338 0.45075 0.0
C1384 C 0.26846 0.8957 0.47262 0.0
C1385 C 0.2281 0.90588 0.36424 0.0
C1386 C 0.2503 0.91171 0.32843 0.0
C1387 C 0.29241 0.90356 0.33205 0.0
C1388 C 0.31182 0.89271 0.37715 0.0
C1389 C 0.27059 0.90462 0.37846 0.0
C1390 C 0.31006 0.88614 0.47397 0.0
C1391 C 0.28859 0.88785 0.52166 0.0
H1392 H 0.24586 0.29449 0.85976 0.0
H1393 H 0.20235 0.24072 0.73517 0.0
H1394 H 0.23577 0.21394 0.73525 0.0
H1395 H 0.27849 0.20921 0.73595 0.0
H1396 H 0.32273 0.26402 0.85 0.0
H1397 H 0.28799 0.28805 0.87878 0.0
C1398 C 0.24347 0.27667 0.83502 0.0
C1399 C 0.22207 0.27011 0.79176 0.0
C1400 C 0.26322 0.26225 0.82638 0.0
C1401 C 0.21887 0.24658 0.76571 0.0
C1402 C 0.23815 0.23145 0.76313 0.0
C1403 C 0.28065 0.22636 0.76749 0.0
C1404 C 0.30325 0.23462 0.79195 0.0
C1405 C 0.26066 0.23979 0.78632 0.0
C1406 C 0.30558 0.25713 0.8311 0.0
C1407 C 0.28571 0.27075 0.84882 0.0
H1408 H 0.45383 0.51323 0.79376 0.0
H1409 H 0.51491 0.47497 0.69958 0.0
H1410 H 0.54038 0.50695 0.75417 0.0
H1411 H 0.54508 0.54055 0.85951 0.0
H1412 H 0.48379 0.57459 0.97591 0.0
H1413 H 0.45842 0.55037 0.87626 0.0
C1414 C 0.47274 0.51191 0.78445 0.0
C1415 C 0.48268 0.49138 0.74654 0.0
C1416 C 0.4871 0.52977 0.81916 0.0
C1417 C 0.507 0.49037 0.73073 0.0
C1418 C 0.52148 0.50864 0.76188 0.0
C1419 C 0.52617 0.54312 0.86148 0.0
C1420 C 0.51624 0.55854 0.92854 0.0
C1421 C 0.51173 0.52773 0.81086 0.0
C1422 C 0.49186 0.56247 0.92681 0.0
C1423 C 0.47734 0.54834 0.87092 0.0
H1424 H 0.20176 0.78972 0.14119 0.0
H1425 H 0.17484 0.7322 0.31186 0.0
H1426 H 0.19174 0.70436 0.20032 0.0
H1427 H 0.22299 0.6972 0.08516 0.0
H1428 H 0.25386 0.75517 0.92888 0.0
H1429 H 0.22618 0.7821 0.00336 0.0
C1430 C 0.19882 0.77112 0.15261 0.0
C1431 C 0.18807 0.76299 0.23709 0.0
C1432 C 0.20992 0.75534 0.09229 0.0
C1433 C 0.1837 0.73889 0.2488 0.0
C1434 C 0.19357 0.72296 0.18559 0.0
C1435 C 0.22354 0.7157 0.06644 0.0
C1436 C 0.2412 0.72445 0.00555 0.0
C1437 C 0.20832 0.73109 0.11222 0.0
C1438 C 0.24094 0.74819 0.97825 0.0
C1439 C 0.22511 0.76355 0.02063 0.0
H1440 H 0.00778 0.53009 0.40021 0.0
H1441 H 0.04462 0.52122 0.66855 0.0
H1442 H 0.0268 0.48242 0.68918 0.0
H1443 H 0.00235 0.45077 0.62736 0.0
H1444 H 0.96454 0.4602 0.36167 0.0
H1445 H 0.98319 0.49855 0.33886 0.0
C1446 C 0.01147 0.52003 0.46469 0.0
C1447 C 0.02729 0.5287 0.53365 0.0
C1448 C 1.00213 0.49741 0.47358 0.0
C1449 C 0.03217 0.5151 0.61553 0.0
C1450 C 0.02241 0.49275 0.62619 0.0
C1451 C 0.99844 0.46097 0.56349 0.0
C1452 C 0.98204 0.45263 0.49609 0.0
C1453 C 0.00786 0.48355 0.55446 0.0
C1454 C 0.97728 0.46615 0.41387 0.0
C1455 C 0.9875 0.48825 0.40204 0.0
H1456 H 0.72149 0.76159 0.17323 0.0
H1457 H 0.72171 0.79109 0.45573 0.0
H1458 H 0.76206 0.77724 0.48094 0.0
H1459 H 0.79731 0.7579 0.42046 0.0
H1460 H 0.79667 0.72773 0.13913 0.0
H1461 H 0.75689 0.74286 0.11179 0.0
C1462 C 0.73003 0.76429 0.24166 0.0
C1463 C 0.71847 0.77692 0.31346 0.0
C1464 C 0.75352 0.75744 0.25345 0.0
C1465 C 0.73007 0.78084 0.40062 0.0
C1466 C 0.75328 0.77345 0.414 0.0
C1467 C 0.78871 0.75505 0.35231 0.0
C1468 C 0.79987 0.74161 0.28198 0.0
C1469 C 0.76532 0.76223 0.34003 0.0
C1470 C 0.7885 0.73824 0.19388 0.0
C1471 C 0.76556 0.74631 0.17931 0.0
H1472 H 0.73953 0.21925 0.553 0.0
H1473 H 0.7885 0.27361 0.47049 0.0
H1474 H 0.76066 0.30346 0.52309 0.0
H1475 H 0.72721 0.3128 0.62249 0.0
H1476 H 0.67998 0.25814 0.7189 0.0
H1477 H 0.70198 0.22957 0.62622 0.0
C1478 C 0.74409 0.23766 0.54592 0.0
C1479 C 0.76647 0.24431 0.51212 0.0
C1480 C 0.72826 0.25453 0.57789 0.0
C1481 C 0.7717 0.26813 0.49906 0.0
C1482 C 0.75574 0.28514 0.52873 0.0
C1483 C 0.721 0.29486 0.6207 0.0
C1484 C 0.70238 0.28752 0.68031 0.0
C1485 C 0.73456 0.27841 0.5726 0.0
C1486 C 0.69449 0.26422 0.67521 0.0
C1487 C 0.70728 0.24782 0.62328 0.0
H1488 H 0.0107 0.97285 0.25663 0.0
H1489 H 0.97185 0.95352 0.50963 0.0
H1490 H 0.97759 0.99254 0.57453 0.0
H1491 H 0.9976 0.03018 0.56869 0.0
H1492 H 0.03838 0.04968 0.32229 0.0
H1493 H 0.02698 0.01324 0.24289 0.0
C1494 C 0.00362 0.97725 0.32598 0.0
C1495 C 0.99129 0.96022 0.37925 0.0
C1496 C 0.00687 0.99992 0.36298 0.0
C1497 C 0.98162 0.96629 0.46785 0.0
C1498 C 0.98474 0.98864 0.50479 0.0
C1499 C 0.00314 0.02699 0.49588 0.0
C1500 C 0.01908 0.04241 0.45159 0.0
C1501 C 0.99766 0.00546 0.45381 0.0
C1502 C 0.02627 0.03788 0.35772 0.0
C1503 C 0.02006 0.01688 0.31322 0.0
H1504 H 0.46134 0.99346 0.05906 0.0
H1505 H 0.51442 0.93932 0.07949 0.0
H1506 H 0.54515 0.96935 0.08339 0.0
H1507 H 0.55645 0.01041 0.08579 0.0
H1508 H 0.50347 0.06456 0.06239 0.0
H1509 H 0.47265 0.0346 0.06308 0.0
C1510 C 0.47964 0.98807 0.06188 0.0
C1511 C 0.48561 0.96409 0.06778 0.0
C1512 C 0.49699 0.00532 0.06887 0.0
C1513 C 0.50942 0.95762 0.07321 0.0
C1514 C 0.5269 0.97476 0.07751 0.0
C1515 C 0.53816 0.01585 0.08335 0.0
C1516 C 0.53226 0.0398 0.07429 0.0
C1517 C 0.52078 0.99861 0.07766 0.0
C1518 C 0.50844 0.04631 0.07043 0.0
C1519 C 0.4909 0.02918 0.06867 0.0
loop_
_geom_bond_atom_site_label_1
_geom_bond_atom_site_label_2
_geom_bond_distance
_geom_bond_site_symmetry_2
_ccdc_geom_bond_type
C0 O27 1.312 . S
C0 O28 1.208 . S
C1 O22 1.331 . S
C1 O25 1.244 . S
C2 O24 1.264 . S
C2 O26 1.273 . S
Mg3 O5 1.936 . S
Mg3 O12 2.081 . S
Mg3 O14 2.023 . S
Mg3 O18 2.031 . S
Mg3 O27 2.291 . S
Mg4 O5 1.963 . S
Mg4 O15 1.942 . S
Mg4 O16 1.955 . S
Mg4 O23 1.986 . S
O5 Mg3 1.936 . S
O5 Mg4 1.963 . S
O5 Mg6 1.915 . S
Mg6 O5 1.915 . S
Mg6 O7 1.915 . S
Mg6 O11 2.013 . S
Mg6 O17 2.114 . S
Mg6 O21 2.013 . S
Mg6 O27 2.114 . S
O7 Mg6 1.915 . S
O7 Mg8 1.936 . S
O7 Mg9 1.963 . S
Mg8 O7 1.936 . S
Mg8 O17 2.291 . S
Mg8 O22 2.081 . S
Mg8 O24 2.023 . S
Mg8 O28 2.031 . S
Mg9 O7 1.963 . S
Mg9 O13 1.986 . S
Mg9 O25 1.942 . S
Mg9 O26 1.955 . S
C10 O21 1.191 . S
C10 O23 1.307 . S
O11 Mg6 2.013 . S
O11 C30 1.191 . S
O12 Mg3 2.081 . S
O12 C20 1.331 . S
O13 Mg9 1.986 . S
O13 C30 1.307 . S
O14 Mg3 2.023 . S
O14 C29 1.264 . S
O15 Mg4 1.942 . S
O15 C20 1.244 . S
O16 Mg4 1.955 . S
O16 C29 1.273 . S
O17 Mg6 2.114 . S
O17 Mg8 2.291 . S
O17 C19 1.312 . S
O18 Mg3 2.031 . S
O18 C19 1.208 . S
C19 O17 1.312 . S
C19 O18 1.208 . S
C20 O12 1.331 . S
C20 O15 1.244 . S
O21 Mg6 2.013 . S
O21 C10 1.191 . S
O22 C1 1.331 . S
O22 Mg8 2.081 . S
O23 Mg4 1.986 . S
O23 C10 1.307 . S
O24 C2 1.264 . S
O24 Mg8 2.023 . S
O25 C1 1.244 . S
O25 Mg9 1.942 . S
O26 C2 1.273 . S
O26 Mg9 1.955 . S
O27 C0 1.312 . S
O27 Mg3 2.291 . S
O27 Mg6 2.114 . S
O28 C0 1.208 . S
O28 Mg8 2.031 . S
C29 O14 1.264 . S
C29 O16 1.273 . S
C30 O11 1.191 . S
C30 O13 1.307 . S
C31 O58 1.312 . S
C31 O59 1.208 . S
C32 O53 1.331 . S
C32 O56 1.244 . S
C33 O55 1.264 . S
C33 O57 1.273 . S
Mg34 O36 1.936 . S
Mg34 O43 2.081 . S
Mg34 O45 2.023 . S
Mg34 O49 2.031 . S
Mg34 O58 2.291 . S
Mg35 O36 1.963 . S
Mg35 O46 1.942 . S
Mg35 O47 1.955 . S
Mg35 O54 1.986 . S
O36 Mg34 1.936 . S
O36 Mg35 1.963 . S
O36 Mg37 1.915 . S
Mg37 O36 1.915 . S
Mg37 O38 1.915 . S
Mg37 O42 2.013 . S
Mg37 O48 2.114 . S
Mg37 O52 2.013 . S
Mg37 O58 2.114 . S
O38 Mg37 1.915 . S
O38 Mg39 1.936 . S
O38 Mg40 1.963 . S
Mg39 O38 1.936 . S
Mg39 O48 2.291 . S
Mg39 O53 2.081 . S
Mg39 O55 2.023 . S
Mg39 O59 2.031 . S
Mg40 O38 1.963 . S
Mg40 O44 1.986 . S
Mg40 O56 1.942 . S
Mg40 O57 1.955 . S
C41 O52 1.191 . S
C41 O54 1.307 . S
O42 Mg37 2.013 . S
O42 C61 1.191 . S
O43 Mg34 2.081 . S
O43 C51 1.331 . S
O44 Mg40 1.986 . S
O44 C61 1.307 . S
O45 Mg34 2.023 . S
O45 C60 1.264 . S
O46 Mg35 1.942 . S
O46 C51 1.244 . S
O47 Mg35 1.955 . S
O47 C60 1.273 . S
O48 Mg37 2.114 . S
O48 Mg39 2.291 . S
O48 C50 1.312 . S
O49 Mg34 2.031 . S
O49 C50 1.208 . S
C50 O48 1.312 . S
C50 O49 1.208 . S
C51 O43 1.331 . S
C51 O46 1.244 . S
O52 Mg37 2.013 . S
O52 C41 1.191 . S
O53 C32 1.331 . S
O53 Mg39 2.081 . S
O54 Mg35 1.986 . S
O54 C41 1.307 . S
O55 C33 1.264 . S
O55 Mg39 2.023 . S
O56 C32 1.244 . S
O56 Mg40 1.942 . S
O57 C33 1.273 . S
O57 Mg40 1.955 . S
O58 C31 1.312 . S
O58 Mg34 2.291 . S
O58 Mg37 2.114 . S
O59 C31 1.208 . S
O59 Mg39 2.031 . S
C60 O45 1.264 . S
C60 O47 1.273 . S
C61 O42 1.191 . S
C61 O44 1.307 . S
C62 O89 1.312 . S
C62 O90 1.208 . S
C63 O84 1.331 1_556 S
C63 O87 1.244 . S
C64 O86 1.264 . S
C64 O88 1.273 . S
Mg65 O67 1.936 . S
Mg65 O74 2.081 . S
Mg65 O76 2.023 1_554 S
Mg65 O80 2.031 . S
Mg65 O89 2.291 . S
Mg66 O67 1.963 1_556 S
Mg66 O77 1.942 1_556 S
Mg66 O78 1.955 . S
Mg66 O85 1.986 . S
O67 Mg65 1.936 . S
O67 Mg66 1.963 1_554 S
O67 Mg68 1.915 . S
Mg68 O67 1.915 . S
Mg68 O69 1.915 1_554 S
Mg68 O73 2.013 1_554 S
Mg68 O79 2.114 . S
Mg68 O83 2.013 . S
Mg68 O89 2.114 . S
O69 Mg68 1.915 1_556 S
O69 Mg70 1.936 1_556 S
O69 Mg71 1.963 . S
Mg70 O69 1.936 1_554 S
Mg70 O79 2.291 . S
Mg70 O84 2.081 . S
Mg70 O86 2.023 . S
Mg70 O90 2.031 . S
Mg71 O69 1.963 . S
Mg71 O75 1.986 . S
Mg71 O87 1.942 . S
Mg71 O88 1.955 1_556 S
C72 O83 1.191 . S
C72 O85 1.307 1_554 S
O73 Mg68 2.013 1_556 S
O73 C92 1.191 . S
O74 Mg65 2.081 . S
O74 C82 1.331 . S
O75 Mg71 1.986 . S
O75 C92 1.307 . S
O76 Mg65 2.023 1_556 S
O76 C91 1.264 . S
O77 Mg66 1.942 1_554 S
O77 C82 1.244 . S
O78 Mg66 1.955 . S
O78 C91 1.273 . S
O79 Mg68 2.114 . S
O79 Mg70 2.291 . S
O79 C81 1.312 . S
O80 Mg65 2.031 . S
O80 C81 1.208 . S
C81 O79 1.312 . S
C81 O80 1.208 . S
C82 O74 1.331 . S
C82 O77 1.244 . S
O83 Mg68 2.013 . S
O83 C72 1.191 . S
O84 C63 1.331 1_554 S
O84 Mg70 2.081 . S
O85 Mg66 1.986 . S
O85 C72 1.307 1_556 S
O86 C64 1.264 . S
O86 Mg70 2.023 . S
O87 C63 1.244 . S
O87 Mg71 1.942 . S
O88 C64 1.273 . S
O88 Mg71 1.955 1_554 S
O89 C62 1.312 . S
O89 Mg65 2.291 . S
O89 Mg68 2.114 . S
O90 C62 1.208 . S
O90 Mg70 2.031 . S
C91 O76 1.264 . S
C91 O78 1.273 . S
C92 O73 1.191 . S
C92 O75 1.307 . S
C93 O120 1.312 . S
C93 O121 1.208 . S
C94 O115 1.331 . S
C94 O118 1.244 . S
C95 O117 1.264 . S
C95 O119 1.273 . S
Mg96 O98 1.936 . S
Mg96 O105 2.081 . S
Mg96 O107 2.023 . S
Mg96 O111 2.031 . S
Mg96 O120 2.291 . S
Mg97 O98 1.963 . S
Mg97 O108 1.942 . S
Mg97 O109 1.955 . S
Mg97 O116 1.986 . S
O98 Mg96 1.936 . S
O98 Mg97 1.963 . S
O98 Mg99 1.915 . S
Mg99 O98 1.915 . S
Mg99 O100 1.915 . S
Mg99 O104 2.013 . S
Mg99 O110 2.114 . S
Mg99 O114 2.013 . S
Mg99 O120 2.114 . S
O100 Mg99 1.915 . S
O100 Mg101 1.936 . S
O100 Mg102 1.963 . S
Mg101 O100 1.936 . S
Mg101 O110 2.291 . S
Mg101 O115 2.081 . S
Mg101 O117 2.023 . S
Mg101 O121 2.031 . S
Mg102 O100 1.963 . S
Mg102 O106 1.986 . S
Mg102 O118 1.942 . S
Mg102 O119 1.955 . S
C103 O114 1.191 . S
C103 O116 1.307 . S
O104 Mg99 2.013 . S
O104 C123 1.191 . S
O105 Mg96 2.081 . S
O105 C113 1.331 . S
O106 Mg102 1.986 . S
O106 C123 1.307 . S
O107 Mg96 2.023 . S
O107 C122 1.264 . S
O108 Mg97 1.942 . S
O108 C113 1.244 . S
O109 Mg97 1.955 . S
O109 C122 1.273 . S
O110 Mg99 2.114 . S
O110 Mg101 2.291 . S
O110 C112 1.312 . S
O111 Mg96 2.031 . S
O111 C112 1.208 . S
C112 O110 1.312 . S
C112 O111 1.208 . S
C113 O105 1.331 . S
C113 O108 1.244 . S
O114 Mg99 2.013 . S
O114 C103 1.191 . S
O115 C94 1.331 . S
O115 Mg101 2.081 . S
O116 Mg97 1.986 . S
O116 C103 1.307 . S
O117 C95 1.264 . S
O117 Mg101 2.023 . S
O118 C94 1.244 . S
O118 Mg102 1.942 . S
O119 C95 1.273 . S
O119 Mg102 1.955 . S
O120 C93 1.312 . S
O120 Mg96 2.291 . S
O120 Mg99 2.114 . S
O121 C93 1.208 . S
O121 Mg101 2.031 . S
C122 O107 1.264 . S
C122 O109 1.273 . S
C123 O104 1.191 . S
C123 O106 1.307 . S
C124 O151 1.312 . S
C124 O152 1.208 . S
C125 O146 1.331 . S
C125 O149 1.244 . S
C126 O148 1.264 . S
C126 O150 1.273 . S
Mg127 O129 1.936 . S
Mg127 O136 2.081 . S
Mg127 O138 2.023 . S
Mg127 O142 2.031 . S
Mg127 O151 2.291 . S
Mg128 O129 1.963 . S
Mg128 O139 1.942 . S
Mg128 O140 1.955 . S
Mg128 O147 1.986 . S
O129 Mg127 1.936 . S
O129 Mg128 1.963 . S
O129 Mg130 1.915 . S
Mg130 O129 1.915 . S
Mg130 O131 1.915 . S
Mg130 O135 2.013 . S
Mg130 O141 2.114 . S
Mg130 O145 2.013 . S
Mg130 O151 2.114 . S
O131 Mg130 1.915 . S
O131 Mg132 1.936 . S
O131 Mg133 1.963 . S
Mg132 O131 1.936 . S
Mg132 O141 2.291 . S
Mg132 O146 2.081 . S
Mg132 O148 2.023 . S
Mg132 O152 2.031 . S
Mg133 O131 1.963 . S
Mg133 O137 1.986 . S
Mg133 O149 1.942 . S
Mg133 O150 1.955 . S
C134 O145 1.191 . S
C134 O147 1.307 . S
O135 Mg130 2.013 . S
O135 C154 1.191 . S
O136 Mg127 2.081 . S
O136 C144 1.331 . S
O137 Mg133 1.986 . S
O137 C154 1.307 . S
O138 Mg127 2.023 . S
O138 C153 1.264 . S
O139 Mg128 1.942 . S
O139 C144 1.244 . S
O140 Mg128 1.955 . S
O140 C153 1.273 . S
O141 Mg130 2.114 . S
O141 Mg132 2.291 . S
O141 C143 1.312 . S
O142 Mg127 2.031 . S
O142 C143 1.208 . S
C143 O141 1.312 . S
C143 O142 1.208 . S
C144 O136 1.331 . S
C144 O139 1.244 . S
O145 Mg130 2.013 . S
O145 C134 1.191 . S
O146 C125 1.331 . S
O146 Mg132 2.081 . S
O147 Mg128 1.986 . S
O147 C134 1.307 . S
O148 C126 1.264 . S
O148 Mg132 2.023 . S
O149 C125 1.244 . S
O149 Mg133 1.942 . S
O150 C126 1.273 . S
O150 Mg133 1.955 . S
O151 C124 1.312 . S
O151 Mg127 2.291 . S
O151 Mg130 2.114 . S
O152 C124 1.208 . S
O152 Mg132 2.031 . S
C153 O138 1.264 . S
C153 O140 1.273 . S
C154 O135 1.191 . S
C154 O137 1.307 . S
C155 O182 1.312 . S
C155 O183 1.208 . S
C156 O177 1.331 . S
C156 O180 1.244 . S
C157 O179 1.264 . S
C157 O181 1.273 . S
Mg158 O160 1.936 . S
Mg158 O167 2.081 . S
Mg158 O169 2.023 . S
Mg158 O173 2.031 . S
Mg158 O182 2.291 . S
Mg159 O160 1.963 . S
Mg159 O170 1.942 . S
Mg159 O171 1.955 . S
Mg159 O178 1.986 . S
O160 Mg158 1.936 . S
O160 Mg159 1.963 . S
O160 Mg161 1.915 . S
Mg161 O160 1.915 . S
Mg161 O162 1.915 . S
Mg161 O166 2.013 . S
Mg161 O172 2.114 . S
Mg161 O176 2.013 . S
Mg161 O182 2.114 . S
O162 Mg161 1.915 . S
O162 Mg163 1.936 . S
O162 Mg164 1.963 . S
Mg163 O162 1.936 . S
Mg163 O172 2.291 . S
Mg163 O177 2.081 . S
Mg163 O179 2.023 . S
Mg163 O183 2.031 . S
Mg164 O162 1.963 . S
Mg164 O168 1.986 . S
Mg164 O180 1.942 . S
Mg164 O181 1.955 . S
C165 O176 1.191 . S
C165 O178 1.307 . S
O166 Mg161 2.013 . S
O166 C185 1.191 . S
O167 Mg158 2.081 . S
O167 C175 1.331 . S
O168 Mg164 1.986 . S
O168 C185 1.307 . S
O169 Mg158 2.023 . S
O169 C184 1.264 . S
O170 Mg159 1.942 . S
O170 C175 1.244 . S
O171 Mg159 1.955 . S
O171 C184 1.273 . S
O172 Mg161 2.114 . S
O172 Mg163 2.291 . S
O172 C174 1.312 . S
O173 Mg158 2.031 . S
O173 C174 1.208 . S
C174 O172 1.312 . S
C174 O173 1.208 . S
C175 O167 1.331 . S
C175 O170 1.244 . S
O176 Mg161 2.013 . S
O176 C165 1.191 . S
O177 C156 1.331 . S
O177 Mg163 2.081 . S
O178 Mg159 1.986 . S
O178 C165 1.307 . S
O179 C157 1.264 . S
O179 Mg163 2.023 . S
O180 C156 1.244 . S
O180 Mg164 1.942 . S
O181 C157 1.273 . S
O181 Mg164 1.955 . S
O182 C155 1.312 . S
O182 Mg158 2.291 . S
O182 Mg161 2.114 . S
O183 C155 1.208 . S
O183 Mg163 2.031 . S
C184 O169 1.264 . S
C184 O171 1.273 . S
C185 O166 1.191 . S
C185 O168 1.307 . S
C186 O213 1.312 . S
C186 O214 1.208 . S
C187 O208 1.331 . S
C187 O211 1.244 . S
C188 O210 1.264 . S
C188 O212 1.273 . S
Mg189 O191 1.936 . S
Mg189 O198 2.081 . S
Mg189 O200 2.023 1_554 S
Mg189 O204 2.031 . S
Mg189 O213 2.291 . S
Mg190 O191 1.963 1_556 S
Mg190 O201 1.942 1_556 S
Mg190 O202 1.955 . S
Mg190 O209 1.986 . S
O191 Mg189 1.936 . S
O191 Mg190 1.963 1_554 S
O191 Mg192 1.915 . S
Mg192 O191 1.915 . S
Mg192 O193 1.915 1_554 S
Mg192 O197 2.013 1_554 S
Mg192 O203 2.114 . S
Mg192 O207 2.013 . S
Mg192 O213 2.114 . S
O193 Mg192 1.915 1_556 S
O193 Mg194 1.936 1_556 S
O193 Mg195 1.963 . S
Mg194 O193 1.936 1_554 S
Mg194 O203 2.291 . S
Mg194 O208 2.081 1_554 S
Mg194 O210 2.023 . S
Mg194 O214 2.031 . S
Mg195 O193 1.963 . S
Mg195 O199 1.986 . S
Mg195 O211 1.942 . S
Mg195 O212 1.955 1_556 S
C196 O207 1.191 . S
C196 O209 1.307 1_554 S
O197 Mg192 2.013 1_556 S
O197 C216 1.191 . S
O198 Mg189 2.081 . S
O198 C206 1.331 . S
O199 Mg195 1.986 . S
O199 C216 1.307 . S
O200 Mg189 2.023 1_556 S
O200 C215 1.264 . S
O201 Mg190 1.942 1_554 S
O201 C206 1.244 . S
O202 Mg190 1.955 . S
O202 C215 1.273 . S
O203 Mg192 2.114 . S
O203 Mg194 2.291 . S
O203 C205 1.312 . S
O204 Mg189 2.031 . S
O204 C205 1.208 . S
C205 O203 1.312 . S
C205 O204 1.208 . S
C206 O198 1.331 . S
C206 O201 1.244 . S
O207 Mg192 2.013 . S
O207 C196 1.191 . S
O208 C187 1.331 . S
O208 Mg194 2.081 1_556 S
O209 Mg190 1.986 . S
O209 C196 1.307 1_556 S
O210 C188 1.264 . S
O210 Mg194 2.023 . S
O211 C187 1.244 . S
O211 Mg195 1.942 . S
O212 C188 1.273 . S
O212 Mg195 1.955 1_554 S
O213 C186 1.312 . S
O213 Mg189 2.291 . S
O213 Mg192 2.114 . S
O214 C186 1.208 . S
O214 Mg194 2.031 . S
C215 O200 1.264 . S
C215 O202 1.273 . S
C216 O197 1.191 . S
C216 O199 1.307 . S
C217 O244 1.312 . S
C217 O245 1.208 . S
C218 O239 1.331 . S
C218 O242 1.244 . S
C219 O241 1.264 . S
C219 O243 1.273 . S
Mg220 O222 1.936 . S
Mg220 O229 2.081 . S
Mg220 O231 2.023 . S
Mg220 O235 2.031 . S
Mg220 O244 2.291 . S
Mg221 O222 1.963 . S
Mg221 O232 1.942 . S
Mg221 O233 1.955 . S
Mg221 O240 1.986 . S
O222 Mg220 1.936 . S
O222 Mg221 1.963 . S
O222 Mg223 1.915 . S
Mg223 O222 1.915 . S
Mg223 O224 1.915 . S
Mg223 O228 2.013 . S
Mg223 O234 2.114 . S
Mg223 O238 2.013 . S
Mg223 O244 2.114 . S
O224 Mg223 1.915 . S
O224 Mg225 1.936 . S
O224 Mg226 1.963 . S
Mg225 O224 1.936 . S
Mg225 O234 2.291 . S
Mg225 O239 2.081 . S
Mg225 O241 2.023 . S
Mg225 O245 2.031 . S
Mg226 O224 1.963 . S
Mg226 O230 1.986 . S
Mg226 O242 1.942 . S
Mg226 O243 1.955 . S
C227 O238 1.191 . S
C227 O240 1.307 . S
O228 Mg223 2.013 . S
O228 C247 1.191 . S
O229 Mg220 2.081 . S
O229 C237 1.331 . S
O230 Mg226 1.986 . S
O230 C247 1.307 . S
O231 Mg220 2.023 . S
O231 C246 1.264 . S
O232 Mg221 1.942 . S
O232 C237 1.244 . S
O233 Mg221 1.955 . S
O233 C246 1.273 . S
O234 Mg223 2.114 . S
O234 Mg225 2.291 . S
O234 C236 1.312 . S
O235 Mg220 2.031 . S
O235 C236 1.208 . S
C236 O234 1.312 . S
C236 O235 1.208 . S
C237 O229 1.331 . S
C237 O232 1.244 . S
O238 Mg223 2.013 . S
O238 C227 1.191 . S
O239 C218 1.331 . S
O239 Mg225 2.081 . S
O240 Mg221 1.986 . S
O240 C227 1.307 . S
O241 C219 1.264 . S
O241 Mg225 2.023 . S
O242 C218 1.244 . S
O242 Mg226 1.942 . S
O243 C219 1.273 . S
O243 Mg226 1.955 . S
O244 C217 1.312 . S
O244 Mg220 2.291 . S
O244 Mg223 2.114 . S
O245 C217 1.208 . S
O245 Mg225 2.031 . S
C246 O231 1.264 . S
C246 O233 1.273 . S
C247 O228 1.191 . S
C247 O230 1.307 . S
C248 O275 1.312 . S
C248 O276 1.208 . S
C249 O270 1.331 . S
C249 O273 1.244 . S
C250 O272 1.264 . S
C250 O274 1.273 . S
Mg251 O253 1.936 1_556 S
Mg251 O260 2.081 1_556 S
Mg251 O262 2.023 . S
Mg251 O266 2.031 . S
Mg251 O275 2.291 . S
Mg252 O253 1.963 . S
Mg252 O263 1.942 . S
Mg252 O264 1.955 . S
Mg252 O271 1.986 . S
O253 Mg251 1.936 1_554 S
O253 Mg252 1.963 . S
O253 Mg254 1.915 . S
Mg254 O253 1.915 . S
Mg254 O255 1.915 . S
Mg254 O259 2.013 . S
Mg254 O265 2.114 . S
Mg254 O269 2.013 . S
Mg254 O275 2.114 1_554 S
O255 Mg254 1.915 . S
O255 Mg256 1.936 1_554 S
O255 Mg257 1.963 . S
Mg256 O255 1.936 1_556 S
Mg256 O265 2.291 1_556 S
Mg256 O270 2.081 . S
Mg256 O272 2.023 1_556 S
Mg256 O276 2.031 . S
Mg257 O255 1.963 . S
Mg257 O261 1.986 . S
Mg257 O273 1.942 1_554 S
Mg257 O274 1.955 . S
C258 O269 1.191 . S
C258 O271 1.307 . S
O259 Mg254 2.013 . S
O259 C278 1.191 . S
O260 Mg251 2.081 1_554 S
O260 C268 1.331 . S
O261 Mg257 1.986 . S
O261 C278 1.307 . S
O262 Mg251 2.023 . S
O262 C277 1.264 . S
O263 Mg252 1.942 . S
O263 C268 1.244 . S
O264 Mg252 1.955 . S
O264 C277 1.273 1_554 S
O265 Mg254 2.114 . S
O265 Mg256 2.291 1_554 S
O265 C267 1.312 . S
O266 Mg251 2.031 . S
O266 C267 1.208 1_556 S
C267 O265 1.312 . S
C267 O266 1.208 1_554 S
C268 O260 1.331 . S
C268 O263 1.244 . S
O269 Mg254 2.013 . S
O269 C258 1.191 . S
O270 C249 1.331 . S
O270 Mg256 2.081 . S
O271 Mg252 1.986 . S
O271 C258 1.307 . S
O272 C250 1.264 . S
O272 Mg256 2.023 1_554 S
O273 C249 1.244 . S
O273 Mg257 1.942 1_556 S
O274 C250 1.273 . S
O274 Mg257 1.955 . S
O275 C248 1.312 . S
O275 Mg251 2.291 . S
O275 Mg254 2.114 1_556 S
O276 C248 1.208 . S
O276 Mg256 2.031 . S
C277 O262 1.264 . S
C277 O264 1.273 1_556 S
C278 O259 1.191 . S
C278 O261 1.307 . S
C279 O306 1.312 . S
C279 O307 1.208 . S
C280 O301 1.331 . S
C280 O304 1.244 . S
C281 O303 1.264 . S
C281 O305 1.273 . S
Mg282 O284 1.936 . S
Mg282 O291 2.081 . S
Mg282 O293 2.023 . S
Mg282 O297 2.031 . S
Mg282 O306 2.291 . S
Mg283 O284 1.963 . S
Mg283 O294 1.942 . S
Mg283 O295 1.955 . S
Mg283 O302 1.986 . S
O284 Mg282 1.936 . S
O284 Mg283 1.963 . S
O284 Mg285 1.915 . S
Mg285 O284 1.915 . S
Mg285 O286 1.915 . S
Mg285 O290 2.013 . S
Mg285 O296 2.114 . S
Mg285 O300 2.013 . S
Mg285 O306 2.114 . S
O286 Mg285 1.915 . S
O286 Mg287 1.936 . S
O286 Mg288 1.963 . S
Mg287 O286 1.936 . S
Mg287 O296 2.291 . S
Mg287 O301 2.081 . S
Mg287 O303 2.023 . S
Mg287 O307 2.031 . S
Mg288 O286 1.963 . S
Mg288 O292 1.986 . S
Mg288 O304 1.942 . S
Mg288 O305 1.955 . S
C289 O300 1.191 . S
C289 O302 1.307 . S
O290 Mg285 2.013 . S
O290 C309 1.191 . S
O291 Mg282 2.081 . S
O291 C299 1.331 . S
O292 Mg288 1.986 . S
O292 C309 1.307 . S
O293 Mg282 2.023 . S
O293 C308 1.264 . S
O294 Mg283 1.942 . S
O294 C299 1.244 . S
O295 Mg283 1.955 . S
O295 C308 1.273 . S
O296 Mg285 2.114 . S
O296 Mg287 2.291 . S
O296 C298 1.312 . S
O297 Mg282 2.031 . S
O297 C298 1.208 . S
C298 O296 1.312 . S
C298 O297 1.208 . S
C299 O291 1.331 . S
C299 O294 1.244 . S
O300 Mg285 2.013 . S
O300 C289 1.191 . S
O301 C280 1.331 . S
O301 Mg287 2.081 . S
O302 Mg283 1.986 . S
O302 C289 1.307 . S
O303 C281 1.264 . S
O303 Mg287 2.023 . S
O304 C280 1.244 . S
O304 Mg288 1.942 . S
O305 C281 1.273 . S
O305 Mg288 1.955 . S
O306 C279 1.312 . S
O306 Mg282 2.291 . S
O306 Mg285 2.114 . S
O307 C279 1.208 . S
O307 Mg287 2.031 . S
C308 O293 1.264 . S
C308 O295 1.273 . S
C309 O290 1.191 . S
C309 O292 1.307 . S
C310 O337 1.312 . S
C310 O338 1.208 . S
C311 O332 1.331 . S
C311 O335 1.244 . S
C312 O334 1.264 . S
C312 O336 1.273 . S
Mg313 O315 1.936 . S
Mg313 O322 2.081 . S
Mg313 O324 2.023 . S
Mg313 O328 2.031 . S
Mg313 O337 2.291 . S
Mg314 O315 1.963 . S
Mg314 O325 1.942 . S
Mg314 O326 1.955 . S
Mg314 O333 1.986 . S
O315 Mg313 1.936 . S
O315 Mg314 1.963 . S
O315 Mg316 1.915 . S
Mg316 O315 1.915 . S
Mg316 O317 1.915 . S
Mg316 O321 2.013 . S
Mg316 O327 2.114 . S
Mg316 O331 2.013 . S
Mg316 O337 2.114 . S
O317 Mg316 1.915 . S
O317 Mg318 1.936 . S
O317 Mg319 1.963 . S
Mg318 O317 1.936 . S
Mg318 O327 2.291 . S
Mg318 O332 2.081 . S
Mg318 O334 2.023 . S
Mg318 O338 2.031 . S
Mg319 O317 1.963 . S
Mg319 O323 1.986 . S
Mg319 O335 1.942 . S
Mg319 O336 1.955 . S
C320 O331 1.191 . S
C320 O333 1.307 . S
O321 Mg316 2.013 . S
O321 C340 1.191 . S
O322 Mg313 2.081 . S
O322 C330 1.331 . S
O323 Mg319 1.986 . S
O323 C340 1.307 . S
O324 Mg313 2.023 . S
O324 C339 1.264 . S
O325 Mg314 1.942 . S
O325 C330 1.244 . S
O326 Mg314 1.955 . S
O326 C339 1.273 . S
O327 Mg316 2.114 . S
O327 Mg318 2.291 . S
O327 C329 1.312 . S
O328 Mg313 2.031 . S
O328 C329 1.208 . S
C329 O327 1.312 . S
C329 O328 1.208 . S
C330 O322 1.331 . S
C330 O325 1.244 . S
O331 Mg316 2.013 . S
O331 C320 1.191 . S
O332 C311 1.331 . S
O332 Mg318 2.081 . S
O333 Mg314 1.986 . S
O333 C320 1.307 . S
O334 C312 1.264 . S
O334 Mg318 2.023 . S
O335 C311 1.244 . S
O335 Mg319 1.942 . S
O336 C312 1.273 . S
O336 Mg319 1.955 . S
O337 C310 1.312 . S
O337 Mg313 2.291 . S
O337 Mg316 2.114 . S
O338 C310 1.208 . S
O338 Mg318 2.031 . S
C339 O324 1.264 . S
C339 O326 1.273 . S
C340 O321 1.191 . S
C340 O323 1.307 . S
C341 O368 1.312 . S
C341 O369 1.208 . S
C342 O363 1.331 . S
C342 O366 1.244 . S
C343 O365 1.264 . S
C343 O367 1.273 . S
Mg344 O346 1.936 . S
Mg344 O353 2.081 . S
Mg344 O355 2.023 . S
Mg344 O359 2.031 . S
Mg344 O368 2.291 . S
Mg345 O346 1.963 . S
Mg345 O356 1.942 . S
Mg345 O357 1.955 . S
Mg345 O364 1.985 . S
O346 Mg344 1.936 . S
O346 Mg345 1.963 . S
O346 Mg347 1.915 . S
Mg347 O346 1.915 . S
Mg347 O348 1.915 . S
Mg347 O352 2.013 . S
Mg347 O358 2.114 . S
Mg347 O362 2.013 . S
Mg347 O368 2.114 . S
O348 Mg347 1.915 . S
O348 Mg349 1.936 . S
O348 Mg350 1.963 . S
Mg349 O348 1.936 . S
Mg349 O358 2.291 . S
Mg349 O363 2.081 . S
Mg349 O365 2.023 . S
Mg349 O369 2.031 . S
Mg350 O348 1.963 . S
Mg350 O354 1.986 . S
Mg350 O366 1.942 . S
Mg350 O367 1.955 . S
C351 O362 1.198 . S
C351 O364 1.306 . S
O352 Mg347 2.013 . S
O352 C371 1.191 . S
O353 Mg344 2.081 . S
O353 C361 1.331 . S
O354 Mg350 1.986 . S
O354 C371 1.307 . S
O355 Mg344 2.023 . S
O355 C370 1.264 . S
O356 Mg345 1.942 . S
O356 C361 1.244 . S
O357 Mg345 1.955 . S
O357 C370 1.273 . S
O358 Mg347 2.114 . S
O358 Mg349 2.291 . S
O358 C360 1.312 . S
O359 Mg344 2.031 . S
O359 C360 1.208 . S
C360 O358 1.312 . S
C360 O359 1.208 . S
C361 O353 1.331 . S
C361 O356 1.244 . S
O362 Mg347 2.013 . S
O362 C351 1.198 . S
O363 C342 1.331 . S
O363 Mg349 2.081 . S
O364 Mg345 1.985 . S
O364 C351 1.306 . S
O365 C343 1.264 . S
O365 Mg349 2.023 . S
O366 C342 1.244 . S
O366 Mg350 1.942 . S
O367 C343 1.273 . S
O367 Mg350 1.955 . S
O368 C341 1.312 . S
O368 Mg344 2.291 . S
O368 Mg347 2.114 . S
O369 C341 1.208 . S
O369 Mg349 2.031 . S
C370 O355 1.264 . S
C370 O357 1.273 . S
C371 O352 1.191 . S
C371 O354 1.307 . S
C372 O399 1.312 . S
C372 O400 1.208 . S
C373 O394 1.331 . S
C373 O397 1.244 . S
C374 O396 1.264 . S
C374 O398 1.273 . S
Mg375 O377 1.936 . S
Mg375 O384 2.081 . S
Mg375 O386 2.023 1_554 S
Mg375 O390 2.031 . S
Mg375 O399 2.291 . S
Mg376 O377 1.963 1_556 S
Mg376 O387 1.942 1_556 S
Mg376 O388 1.955 . S
Mg376 O395 1.986 . S
O377 Mg375 1.936 . S
O377 Mg376 1.963 1_554 S
O377 Mg378 1.915 1_554 S
Mg378 O377 1.915 1_556 S
Mg378 O379 1.915 . S
Mg378 O383 2.013 . S
Mg378 O389 2.114 1_556 S
Mg378 O393 2.013 1_556 S
Mg378 O399 2.114 1_556 S
O379 Mg378 1.915 . S
O379 Mg380 1.936 1_556 S
O379 Mg381 1.963 . S
Mg380 O379 1.936 1_554 S
Mg380 O389 2.291 . S
Mg380 O394 2.081 1_554 S
Mg380 O396 2.023 . S
Mg380 O400 2.031 . S
Mg381 O379 1.963 . S
Mg381 O385 1.986 . S
Mg381 O397 1.942 . S
Mg381 O398 1.955 1_556 S
C382 O393 1.191 1_556 S
C382 O395 1.307 . S
O383 Mg378 2.013 . S
O383 C402 1.191 . S
O384 Mg375 2.081 . S
O384 C392 1.331 . S
O385 Mg381 1.986 . S
O385 C402 1.307 . S
O386 Mg375 2.023 1_556 S
O386 C401 1.264 . S
O387 Mg376 1.942 1_554 S
O387 C392 1.244 . S
O388 Mg376 1.955 . S
O388 C401 1.273 . S
O389 Mg378 2.114 1_554 S
O389 Mg380 2.291 . S
O389 C391 1.312 . S
O390 Mg375 2.031 . S
O390 C391 1.208 . S
C391 O389 1.312 . S
C391 O390 1.208 . S
C392 O384 1.331 . S
C392 O387 1.244 . S
O393 Mg378 2.013 1_554 S
O393 C382 1.191 1_554 S
O394 C373 1.331 . S
O394 Mg380 2.081 1_556 S
O395 Mg376 1.986 . S
O395 C382 1.307 . S
O396 C374 1.264 . S
O396 Mg380 2.023 . S
O397 C373 1.244 . S
O397 Mg381 1.942 . S
O398 C374 1.273 . S
O398 Mg381 1.955 1_554 S
O399 C372 1.312 . S
O399 Mg375 2.291 . S
O399 Mg378 2.114 1_554 S
O400 C372 1.208 . S
O400 Mg380 2.031 . S
C401 O386 1.264 . S
C401 O388 1.273 . S
C402 O383 1.191 . S
C402 O385 1.307 . S
C403 O430 1.312 . S
C403 O431 1.208 . S
C404 O425 1.331 . S
C404 O428 1.244 . S
C405 O427 1.264 . S
C405 O429 1.273 . S
Mg406 O408 1.936 . S
Mg406 O415 2.081 . S
Mg406 O417 2.023 . S
Mg406 O421 2.031 . S
Mg406 O430 2.291 . S
Mg407 O408 1.963 . S
Mg407 O418 1.942 . S
Mg407 O419 1.955 . S
Mg407 O426 1.986 . S
O408 Mg406 1.936 . S
O408 Mg407 1.963 . S
O408 Mg409 1.915 . S
Mg409 O408 1.915 . S
Mg409 O410 1.915 . S
Mg409 O414 2.013 . S
Mg409 O420 2.114 . S
Mg409 O424 2.013 . S
Mg409 O430 2.114 . S
O410 Mg409 1.915 . S
O410 Mg411 1.936 . S
O410 Mg412 1.963 . S
Mg411 O410 1.936 . S
Mg411 O420 2.291 . S
Mg411 O425 2.081 . S
Mg411 O427 2.023 . S
Mg411 O431 2.031 . S
Mg412 O410 1.963 . S
Mg412 O416 1.986 . S
Mg412 O428 1.942 . S
Mg412 O429 1.955 . S
C413 O424 1.191 . S
C413 O426 1.307 . S
O414 Mg409 2.013 . S
O414 C433 1.191 . S
O415 Mg406 2.081 . S
O415 C423 1.331 . S
O416 Mg412 1.986 . S
O416 C433 1.307 . S
O417 Mg406 2.023 . S
O417 C432 1.264 . S
O418 Mg407 1.942 . S
O418 C423 1.244 . S
O419 Mg407 1.955 . S
O419 C432 1.273 . S
O420 Mg409 2.114 . S
O420 Mg411 2.291 . S
O420 C422 1.312 . S
O421 Mg406 2.031 . S
O421 C422 1.208 . S
C422 O420 1.312 . S
C422 O421 1.208 . S
C423 O415 1.331 . S
C423 O418 1.244 . S
O424 Mg409 2.013 . S
O424 C413 1.191 . S
O425 C404 1.331 . S
O425 Mg411 2.081 . S
O426 Mg407 1.986 . S
O426 C413 1.307 . S
O427 C405 1.264 . S
O427 Mg411 2.023 . S
O428 C404 1.244 . S
O428 Mg412 1.942 . S
O429 C405 1.273 . S
O429 Mg412 1.955 . S
O430 C403 1.312 . S
O430 Mg406 2.291 . S
O430 Mg409 2.114 . S
O431 C403 1.208 . S
O431 Mg411 2.031 . S
C432 O417 1.264 . S
C432 O419 1.273 . S
C433 O414 1.191 . S
C433 O416 1.307 . S
C434 O461 1.312 . S
C434 O462 1.208 . S
C435 O456 1.331 . S
C435 O459 1.244 . S
C436 O458 1.264 . S
C436 O460 1.273 . S
Mg437 O439 1.936 . S
Mg437 O446 2.081 . S
Mg437 O448 2.023 . S
Mg437 O452 2.031 . S
Mg437 O461 2.291 . S
Mg438 O439 1.963 . S
Mg438 O449 1.942 . S
Mg438 O450 1.955 . S
Mg438 O457 1.986 . S
O439 Mg437 1.936 . S
O439 Mg438 1.963 . S
O439 Mg440 1.915 . S
Mg440 O439 1.915 . S
Mg440 O441 1.915 . S
Mg440 O445 2.013 . S
Mg440 O451 2.114 . S
Mg440 O455 2.013 . S
Mg440 O461 2.114 . S
O441 Mg440 1.915 . S
O441 Mg442 1.936 . S
O441 Mg443 1.963 . S
Mg442 O441 1.936 . S
Mg442 O451 2.291 . S
Mg442 O456 2.081 . S
Mg442 O458 2.023 . S
Mg442 O462 2.031 . S
Mg443 O441 1.963 . S
Mg443 O447 1.986 . S
Mg443 O459 1.942 . S
Mg443 O460 1.955 . S
C444 O455 1.191 . S
C444 O457 1.307 . S
O445 Mg440 2.013 . S
O445 C464 1.191 . S
O446 Mg437 2.081 . S
O446 C454 1.331 . S
O447 Mg443 1.986 . S
O447 C464 1.307 . S
O448 Mg437 2.023 . S
O448 C463 1.264 . S
O449 Mg438 1.942 . S
O449 C454 1.244 . S
O450 Mg438 1.955 . S
O450 C463 1.273 . S
O451 Mg440 2.114 . S
O451 Mg442 2.291 . S
O451 C453 1.312 . S
O452 Mg437 2.031 . S
O452 C453 1.208 . S
C453 O451 1.312 . S
C453 O452 1.208 . S
C454 O446 1.331 . S
C454 O449 1.244 . S
O455 Mg440 2.013 . S
O455 C444 1.191 . S
O456 C435 1.331 . S
O456 Mg442 2.081 . S
O457 Mg438 1.986 . S
O457 C444 1.307 . S
O458 C436 1.264 . S
O458 Mg442 2.023 . S
O459 C435 1.244 . S
O459 Mg443 1.942 . S
O460 C436 1.273 . S
O460 Mg443 1.955 . S
O461 C434 1.312 . S
O461 Mg437 2.291 . S
O461 Mg440 2.114 . S
O462 C434 1.208 . S
O462 Mg442 2.031 . S
C463 O448 1.264 . S
C463 O450 1.273 . S
C464 O445 1.191 . S
C464 O447 1.307 . S
C465 O492 1.312 . S
C465 O493 1.208 . S
C466 O487 1.331 . S
C466 O490 1.244 . S
C467 O489 1.264 . S
C467 O491 1.273 . S
Mg468 O470 1.936 . S
Mg468 O477 2.081 . S
Mg468 O479 2.023 . S
Mg468 O483 2.031 . S
Mg468 O492 2.291 . S
Mg469 O470 1.963 . S
Mg469 O480 1.942 . S
Mg469 O481 1.955 . S
Mg469 O488 1.986 . S
O470 Mg468 1.936 . S
O470 Mg469 1.963 . S
O470 Mg471 1.915 . S
Mg471 O470 1.915 . S
Mg471 O472 1.915 . S
Mg471 O476 2.013 . S
Mg471 O482 2.114 . S
Mg471 O486 2.013 . S
Mg471 O492 2.114 . S
O472 Mg471 1.915 . S
O472 Mg473 1.936 . S
O472 Mg474 1.963 . S
Mg473 O472 1.936 . S
Mg473 O482 2.291 . S
Mg473 O487 2.081 . S
Mg473 O489 2.023 . S
Mg473 O493 2.031 . S
Mg474 O472 1.963 . S
Mg474 O478 1.986 . S
Mg474 O490 1.942 . S
Mg474 O491 1.955 . S
C475 O486 1.191 . S
C475 O488 1.307 . S
O476 Mg471 2.013 . S
O476 C495 1.191 . S
O477 Mg468 2.081 . S
O477 C485 1.331 . S
O478 Mg474 1.986 . S
O478 C495 1.307 . S
O479 Mg468 2.023 . S
O479 C494 1.264 . S
O480 Mg469 1.942 . S
O480 C485 1.244 . S
O481 Mg469 1.955 . S
O481 C494 1.273 . S
O482 Mg471 2.114 . S
O482 Mg473 2.291 . S
O482 C484 1.312 . S
O483 Mg468 2.031 . S
O483 C484 1.208 . S
C484 O482 1.312 . S
C484 O483 1.208 . S
C485 O477 1.331 . S
C485 O480 1.244 . S
O486 Mg471 2.013 . S
O486 C475 1.191 . S
O487 C466 1.331 . S
O487 Mg473 2.081 . S
O488 Mg469 1.986 . S
O488 C475 1.307 . S
O489 C467 1.264 . S
O489 Mg473 2.023 . S
O490 C466 1.244 . S
O490 Mg474 1.942 . S
O491 C467 1.273 . S
O491 Mg474 1.955 . S
O492 C465 1.312 . S
O492 Mg468 2.291 . S
O492 Mg471 2.114 . S
O493 C465 1.208 . S
O493 Mg473 2.031 . S
C494 O479 1.264 . S
C494 O481 1.273 . S
C495 O476 1.191 . S
C495 O478 1.307 . S
H496 C502 0.930 . S
H497 C505 0.930 . S
H498 C506 0.930 . S
H499 C507 0.930 . S
H500 C510 0.930 . S
H501 C511 0.930 . S
C502 H496 0.930 . S
C502 C503 1.355 . S
C502 C504 1.415 . S
C503 C502 1.355 . S
C503 C505 1.419 . S
C504 C502 1.415 . S
C504 C509 1.425 . S
C504 C511 1.409 . S
C505 H497 0.930 . S
C505 C503 1.419 . S
C505 C506 1.362 . S
C506 H498 0.930 . S
C506 C505 1.362 . S
C506 C509 1.409 . S
C507 H499 0.930 . S
C507 C508 1.355 . S
C507 C509 1.415 . S
C508 C507 1.355 . S
C508 C510 1.419 . S
C509 C504 1.425 . S
C509 C506 1.409 . S
C509 C507 1.415 . S
C510 H500 0.930 . S
C510 C508 1.419 . S
C510 C511 1.362 . S
C511 H501 0.930 . S
C511 C504 1.409 . S
C511 C510 1.362 . S
H512 C518 0.930 . S
H513 C521 0.930 . S
H514 C522 0.930 1_554 S
H515 C523 0.930 . S
H516 C526 0.930 . S
H517 C527 0.930 . S
C518 H512 0.930 . S
C518 C519 1.355 . S
C518 C520 1.415 . S
C519 C518 1.355 . S
C519 C521 1.419 . S
C520 C518 1.415 . S
C520 C525 1.425 . S
C520 C527 1.409 . S
C521 H513 0.930 . S
C521 C519 1.419 . S
C521 C522 1.362 . S
C522 H514 0.930 1_556 S
C522 C521 1.362 . S
C522 C525 1.409 . S
C523 H515 0.930 . S
C523 C524 1.355 . S
C523 C525 1.415 . S
C524 C523 1.355 . S
C524 C526 1.419 . S
C525 C520 1.425 . S
C525 C522 1.409 . S
C525 C523 1.415 . S
C526 H516 0.930 . S
C526 C524 1.419 . S
C526 C527 1.362 . S
C527 H517 0.930 . S
C527 C520 1.409 . S
C527 C526 1.362 . S
H528 C534 0.930 1_556 S
H529 C537 0.930 . S
H530 C538 0.930 . S
H531 C539 0.930 . S
H532 C542 0.930 . S
H533 C543 0.930 . S
C534 H528 0.930 1_554 S
C534 C535 1.355 . S
C534 C536 1.415 . S
C535 C534 1.355 . S
C535 C537 1.419 . S
C536 C534 1.415 . S
C536 C541 1.425 . S
C536 C543 1.409 1_554 S
C537 H529 0.930 . S
C537 C535 1.419 . S
C537 C538 1.362 . S
C538 H530 0.930 . S
C538 C537 1.362 . S
C538 C541 1.409 . S
C539 H531 0.930 . S
C539 C540 1.355 . S
C539 C541 1.415 . S
C540 C539 1.355 . S
C540 C542 1.419 1_554 S
C541 C536 1.425 . S
C541 C538 1.409 . S
C541 C539 1.415 . S
C542 H532 0.930 . S
C542 C540 1.419 1_556 S
C542 C543 1.362 . S
C543 H533 0.930 . S
C543 C536 1.409 1_556 S
C543 C542 1.362 . S
H544 C550 0.930 . S
H545 C553 0.930 . S
H546 C554 0.930 . S
H547 C555 0.932 . S
H548 C558 0.930 . S
H549 C559 0.930 . S
C550 H544 0.930 . S
C550 C551 1.355 . S
C550 C552 1.415 . S
C551 C550 1.355 . S
C551 C553 1.419 . S
C552 C550 1.415 . S
C552 C557 1.425 . S
C552 C559 1.409 . S
C553 H545 0.930 . S
C553 C551 1.419 . S
C553 C554 1.362 . S
C554 H546 0.930 . S
C554 C553 1.362 . S
C554 C557 1.409 . S
C555 H547 0.932 . S
C555 C556 1.361 . S
C555 C557 1.405 1_455 S
C556 C555 1.361 . S
C556 C558 1.419 . S
C557 C552 1.425 . S
C557 C554 1.409 . S
C557 C555 1.405 1_655 S
C558 H548 0.930 . S
C558 C556 1.419 . S
C558 C559 1.362 1_455 S
C559 H549 0.930 . S
C559 C552 1.409 . S
C559 C558 1.362 1_655 S
H560 C566 0.930 . S
H561 C569 0.930 . S
H562 C570 0.930 . S
H563 C571 0.930 . S
H564 C574 0.930 . S
H565 C575 0.930 . S
C566 H560 0.930 . S
C566 C567 1.355 . S
C566 C568 1.415 . S
C567 C566 1.355 . S
C567 C569 1.419 . S
C568 C566 1.415 . S
C568 C573 1.425 . S
C568 C575 1.409 . S
C569 H561 0.930 . S
C569 C567 1.419 . S
C569 C570 1.362 . S
C570 H562 0.930 . S
C570 C569 1.362 . S
C570 C573 1.409 . S
C571 H563 0.930 . S
C571 C572 1.355 . S
C571 C573 1.415 . S
C572 C571 1.355 . S
C572 C574 1.419 . S
C573 C568 1.425 . S
C573 C570 1.409 . S
C573 C571 1.415 . S
C574 H564 0.930 . S
C574 C572 1.419 . S
C574 C575 1.362 . S
C575 H565 0.930 . S
C575 C568 1.409 . S
C575 C574 1.362 . S
H576 C582 0.930 . S
H577 C585 0.930 . S
H578 C586 0.930 . S
H579 C587 0.930 . S
H580 C590 0.930 . S
H581 C591 0.930 . S
C582 H576 0.930 . S
C582 C583 1.355 . S
C582 C584 1.415 . S
C583 C582 1.355 . S
C583 C585 1.419 . S
C584 C582 1.415 . S
C584 C589 1.425 . S
C584 C591 1.409 . S
C585 H577 0.930 . S
C585 C583 1.419 . S
C585 C586 1.362 . S
C586 H578 0.930 . S
C586 C585 1.362 . S
C586 C589 1.409 . S
C587 H579 0.930 . S
C587 C588 1.355 . S
C587 C589 1.415 . S
C588 C587 1.355 . S
C588 C590 1.419 . S
C589 C584 1.425 . S
C589 C586 1.409 . S
C589 C587 1.415 . S
C590 H580 0.930 . S
C590 C588 1.419 . S
C590 C591 1.362 . S
C591 H581 0.930 . S
C591 C584 1.409 . S
C591 C590 1.362 . S
H592 C598 0.926 1_554 S
H593 C601 0.930 . S
H594 C602 0.930 . S
H595 C603 0.930 . S
H596 C606 0.930 . S
H597 C607 0.930 . S
C598 H592 0.926 1_556 S
C598 C599 1.355 . S
C598 C600 1.417 . S
C599 C598 1.355 . S
C599 C601 1.419 . S
C600 C598 1.417 . S
C600 C605 1.425 . S
C600 C607 1.409 . S
C601 H593 0.930 . S
C601 C599 1.419 . S
C601 C602 1.362 . S
C602 H594 0.930 . S
C602 C601 1.362 . S
C602 C605 1.409 . S
C603 H595 0.930 . S
C603 C604 1.355 . S
C603 C605 1.415 . S
C604 C603 1.355 . S
C604 C606 1.419 . S
C605 C600 1.425 . S
C605 C602 1.409 . S
C605 C603 1.415 . S
C606 H596 0.930 . S
C606 C604 1.419 . S
C606 C607 1.362 . S
C607 H597 0.930 . S
C607 C600 1.409 . S
C607 C606 1.362 . S
H608 C614 0.930 . S
H609 C617 0.930 . S
H610 C618 0.930 . S
H611 C619 0.930 . S
H612 C622 0.930 . S
H613 C623 0.930 . S
C614 H608 0.930 . S
C614 C615 1.355 . S
C614 C616 1.415 1_655 S
C615 C614 1.355 . S
C615 C617 1.419 . S
C616 C614 1.415 1_455 S
C616 C621 1.425 . S
C616 C623 1.409 . S
C617 H609 0.930 . S
C617 C615 1.419 . S
C617 C618 1.362 1_655 S
C618 H610 0.930 . S
C618 C617 1.362 1_455 S
C618 C621 1.409 . S
C619 H611 0.930 . S
C619 C620 1.355 . S
C619 C621 1.415 . S
C620 C619 1.355 . S
C620 C622 1.419 . S
C621 C616 1.425 . S
C621 C618 1.409 . S
C621 C619 1.415 . S
C622 H612 0.930 . S
C622 C620 1.419 . S
C622 C623 1.362 . S
C623 H613 0.930 . S
C623 C616 1.409 . S
C623 C622 1.362 . S
H624 C630 0.930 . S
H625 C633 0.930 . S
H626 C634 0.930 1_556 S
H627 C635 0.930 1_556 S
H628 C638 0.930 . S
H629 C639 0.930 . S
C630 H624 0.930 . S
C630 C631 1.355 . S
C630 C632 1.415 . S
C631 C630 1.355 . S
C631 C633 1.419 . S
C632 C630 1.415 . S
C632 C637 1.425 . S
C632 C639 1.409 . S
C633 H625 0.930 . S
C633 C631 1.419 . S
C633 C634 1.362 . S
C634 H626 0.930 1_554 S
C634 C633 1.362 . S
C634 C637 1.409 . S
C635 H627 0.930 1_554 S
C635 C636 1.355 . S
C635 C637 1.415 . S
C636 C635 1.355 . S
C636 C638 1.419 . S
C637 C632 1.425 . S
C637 C634 1.409 . S
C637 C635 1.415 . S
C638 H628 0.930 . S
C638 C636 1.419 . S
C638 C639 1.362 . S
C639 H629 0.930 . S
C639 C632 1.409 . S
C639 C638 1.362 . S
H640 C646 0.930 . S
H641 C649 0.928 1_655 S
H642 C650 0.930 . S
H643 C651 0.930 . S
H644 C654 0.930 . S
H645 C655 0.930 . S
C646 H640 0.930 . S
C646 C647 1.355 . S
C646 C648 1.415 1_655 S
C647 C646 1.355 . S
C647 C649 1.417 1_655 S
C648 C646 1.415 1_455 S
C648 C653 1.425 . S
C648 C655 1.409 . S
C649 H641 0.928 1_455 S
C649 C647 1.417 1_455 S
C649 C650 1.367 . S
C650 H642 0.930 . S
C650 C649 1.367 . S
C650 C653 1.409 . S
C651 H643 0.930 . S
C651 C652 1.355 . S
C651 C653 1.415 . S
C652 C651 1.355 . S
C652 C654 1.419 . S
C653 C648 1.425 . S
C653 C650 1.409 . S
C653 C651 1.415 . S
C654 H644 0.930 . S
C654 C652 1.419 . S
C654 C655 1.362 . S
C655 H645 0.930 . S
C655 C648 1.409 . S
C655 C654 1.362 . S
H656 C662 0.930 . S
H657 C665 0.930 . S
H658 C666 0.930 . S
H659 C667 0.930 . S
H660 C670 0.930 . S
H661 C671 0.930 . S
C662 H656 0.930 . S
C662 C663 1.355 . S
C662 C664 1.415 . S
C663 C662 1.355 . S
C663 C665 1.419 . S
C664 C662 1.415 . S
C664 C669 1.425 . S
C664 C671 1.409 . S
C665 H657 0.930 . S
C665 C663 1.419 . S
C665 C666 1.362 . S
C666 H658 0.930 . S
C666 C665 1.362 . S
C666 C669 1.409 . S
C667 H659 0.930 . S
C667 C668 1.355 . S
C667 C669 1.415 . S
C668 C667 1.355 . S
C668 C670 1.419 . S
C669 C664 1.425 . S
C669 C666 1.409 . S
C669 C667 1.415 . S
C670 H660 0.930 . S
C670 C668 1.419 . S
C670 C671 1.362 . S
C671 H661 0.930 . S
C671 C664 1.409 . S
C671 C670 1.362 . S
H672 C678 0.930 . S
H673 C681 0.930 . S
H674 C682 0.930 . S
H675 C683 0.930 . S
H676 C686 0.930 . S
H677 C687 0.930 . S
C678 H672 0.930 . S
C678 C679 1.355 . S
C678 C680 1.415 . S
C679 C678 1.355 . S
C679 C681 1.419 . S
C680 C678 1.415 . S
C680 C685 1.425 . S
C680 C687 1.409 . S
C681 H673 0.930 . S
C681 C679 1.419 . S
C681 C682 1.362 . S
C682 H674 0.930 . S
C682 C681 1.362 . S
C682 C685 1.409 . S
C683 H675 0.930 . S
C683 C684 1.355 . S
C683 C685 1.415 . S
C684 C683 1.355 . S
C684 C686 1.419 . S
C685 C680 1.425 . S
C685 C682 1.409 . S
C685 C683 1.415 . S
C686 H676 0.930 . S
C686 C684 1.419 . S
C686 C687 1.362 . S
C687 H677 0.930 . S
C687 C680 1.409 . S
C687 C686 1.362 . S
H688 C694 0.930 1_554 S
H689 C697 0.930 . S
H690 C698 0.930 . S
H691 C699 0.930 . S
H692 C702 0.930 . S
H693 C703 0.930 . S
C694 H688 0.930 1_556 S
C694 C695 1.355 . S
C694 C696 1.415 . S
C695 C694 1.355 . S
C695 C697 1.419 . S
C696 C694 1.415 . S
C696 C701 1.425 . S
C696 C703 1.409 1_556 S
C697 H689 0.930 . S
C697 C695 1.419 . S
C697 C698 1.362 . S
C698 H690 0.930 . S
C698 C697 1.362 . S
C698 C701 1.409 . S
C699 H691 0.930 . S
C699 C700 1.355 . S
C699 C701 1.415 . S
C700 C699 1.355 . S
C700 C702 1.419 1_556 S
C701 C696 1.425 . S
C701 C698 1.409 . S
C701 C699 1.415 . S
C702 H692 0.930 . S
C702 C700 1.419 1_554 S
C702 C703 1.362 . S
C703 H693 0.930 . S
C703 C696 1.409 1_554 S
C703 C702 1.362 . S
H704 C710 0.930 . S
H705 C713 0.930 . S
H706 C714 0.930 . S
H707 C715 0.930 1_455 S
H708 C718 0.930 1_455 S
H709 C719 0.930 . S
C710 H704 0.930 . S
C710 C711 1.355 . S
C710 C712 1.415 . S
C711 C710 1.355 . S
C711 C713 1.419 . S
C712 C710 1.415 . S
C712 C717 1.425 . S
C712 C719 1.409 . S
C713 H705 0.930 . S
C713 C711 1.419 . S
C713 C714 1.362 . S
C714 H706 0.930 . S
C714 C713 1.362 . S
C714 C717 1.409 . S
C715 H707 0.930 1_655 S
C715 C716 1.355 1_655 S
C715 C717 1.415 . S
C716 C715 1.355 1_455 S
C716 C718 1.419 1_455 S
C717 C712 1.425 . S
C717 C714 1.409 . S
C717 C715 1.415 . S
C718 H708 0.930 1_655 S
C718 C716 1.419 1_655 S
C718 C719 1.362 . S
C719 H709 0.930 . S
C719 C712 1.409 . S
C719 C718 1.362 . S
H720 C726 0.930 . S
H721 C729 0.930 . S
H722 C730 0.930 . S
H723 C731 0.930 . S
H724 C734 0.930 . S
H725 C735 0.930 . S
C726 H720 0.930 . S
C726 C727 1.355 . S
C726 C728 1.415 . S
C727 C726 1.355 . S
C727 C729 1.419 . S
C728 C726 1.415 . S
C728 C733 1.425 . S
C728 C735 1.409 . S
C729 H721 0.930 . S
C729 C727 1.419 . S
C729 C730 1.362 . S
C730 H722 0.930 . S
C730 C729 1.362 . S
C730 C733 1.409 . S
C731 H723 0.930 . S
C731 C732 1.355 . S
C731 C733 1.415 . S
C732 C731 1.355 . S
C732 C734 1.419 . S
C733 C728 1.425 . S
C733 C730 1.409 . S
C733 C731 1.415 . S
C734 H724 0.930 . S
C734 C732 1.419 . S
C734 C735 1.362 . S
C735 H725 0.930 . S
C735 C728 1.409 . S
C735 C734 1.362 . S
H736 C742 0.930 . S
H737 C745 0.930 . S
H738 C746 0.930 . S
H739 C747 0.930 . S
H740 C750 0.930 . S
H741 C751 0.930 . S
C742 H736 0.930 . S
C742 C743 1.355 . S
C742 C744 1.415 . S
C743 C742 1.355 . S
C743 C745 1.419 . S
C744 C742 1.415 . S
C744 C749 1.425 . S
C744 C751 1.409 . S
C745 H737 0.930 . S
C745 C743 1.419 . S
C745 C746 1.362 . S
C746 H738 0.930 . S
C746 C745 1.362 . S
C746 C749 1.409 . S
C747 H739 0.930 . S
C747 C748 1.355 . S
C747 C749 1.415 . S
C748 C747 1.355 . S
C748 C750 1.419 . S
C749 C744 1.425 . S
C749 C746 1.409 . S
C749 C747 1.415 . S
C750 H740 0.930 . S
C750 C748 1.419 . S
C750 C751 1.362 . S
C751 H741 0.930 . S
C751 C744 1.409 . S
C751 C750 1.362 . S
H752 C758 0.930 . S
H753 C761 0.930 . S
H754 C762 0.930 . S
H755 C763 0.930 . S
H756 C766 0.930 . S
H757 C767 0.930 1_554 S
C758 H752 0.930 . S
C758 C759 1.355 . S
C758 C760 1.415 . S
C759 C758 1.355 . S
C759 C761 1.419 . S
C760 C758 1.415 . S
C760 C765 1.425 . S
C760 C767 1.409 1_554 S
C761 H753 0.930 . S
C761 C759 1.419 . S
C761 C762 1.362 . S
C762 H754 0.930 . S
C762 C761 1.362 . S
C762 C765 1.409 . S
C763 H755 0.930 . S
C763 C764 1.355 . S
C763 C765 1.415 1_556 S
C764 C763 1.355 . S
C764 C766 1.419 . S
C765 C760 1.425 . S
C765 C762 1.409 . S
C765 C763 1.415 1_554 S
C766 H756 0.930 . S
C766 C764 1.419 . S
C766 C767 1.362 . S
C767 H757 0.930 1_556 S
C767 C760 1.409 1_556 S
C767 C766 1.362 . S
H768 C774 0.930 . S
H769 C777 0.930 . S
H770 C778 0.930 . S
H771 C779 0.930 . S
H772 C782 0.930 . S
H773 C783 0.930 . S
C774 H768 0.930 . S
C774 C775 1.355 . S
C774 C776 1.415 . S
C775 C774 1.355 . S
C775 C777 1.419 . S
C776 C774 1.415 . S
C776 C781 1.425 . S
C776 C783 1.409 . S
C777 H769 0.930 . S
C777 C775 1.419 . S
C777 C778 1.362 . S
C778 H770 0.930 . S
C778 C777 1.362 . S
C778 C781 1.409 . S
C779 H771 0.930 . S
C779 C780 1.355 . S
C779 C781 1.415 . S
C780 C779 1.355 . S
C780 C782 1.419 . S
C781 C776 1.425 . S
C781 C778 1.409 . S
C781 C779 1.415 . S
C782 H772 0.930 . S
C782 C780 1.419 . S
C782 C783 1.362 . S
C783 H773 0.930 . S
C783 C776 1.409 . S
C783 C782 1.362 . S
H784 C790 0.930 . S
H785 C793 0.930 . S
H786 C794 0.930 . S
H787 C795 0.930 . S
H788 C798 0.930 . S
H789 C799 0.930 . S
C790 H784 0.930 . S
C790 C791 1.355 . S
C790 C792 1.415 . S
C791 C790 1.355 . S
C791 C793 1.419 . S
C792 C790 1.415 . S
C792 C797 1.425 . S
C792 C799 1.409 . S
C793 H785 0.930 . S
C793 C791 1.419 . S
C793 C794 1.362 . S
C794 H786 0.930 . S
C794 C793 1.362 . S
C794 C797 1.409 . S
C795 H787 0.930 . S
C795 C796 1.355 . S
C795 C797 1.415 . S
C796 C795 1.355 . S
C796 C798 1.419 . S
C797 C792 1.425 . S
C797 C794 1.409 . S
C797 C795 1.415 . S
C798 H788 0.930 . S
C798 C796 1.419 . S
C798 C799 1.362 . S
C799 H789 0.930 . S
C799 C792 1.409 . S
C799 C798 1.362 . S
H800 C806 0.930 . S
H801 C809 0.930 . S
H802 C810 0.930 . S
H803 C811 0.930 . S
H804 C814 0.930 . S
H805 C815 0.930 . S
C806 H800 0.930 . S
C806 C807 1.355 . S
C806 C808 1.415 . S
C807 C806 1.355 . S
C807 C809 1.419 . S
C808 C806 1.415 . S
C808 C813 1.425 . S
C808 C815 1.409 . S
C809 H801 0.930 . S
C809 C807 1.419 . S
C809 C810 1.362 . S
C810 H802 0.930 . S
C810 C809 1.362 . S
C810 C813 1.409 . S
C811 H803 0.930 . S
C811 C812 1.355 . S
C811 C813 1.415 . S
C812 C811 1.355 . S
C812 C814 1.419 . S
C813 C808 1.425 . S
C813 C810 1.409 . S
C813 C811 1.415 . S
C814 H804 0.930 . S
C814 C812 1.419 . S
C814 C815 1.362 . S
C815 H805 0.930 . S
C815 C808 1.409 . S
C815 C814 1.362 . S
H816 C822 0.930 . S
H817 C825 0.930 . S
H818 C826 0.930 . S
H819 C827 0.930 . S
H820 C830 0.930 . S
H821 C831 0.930 . S
C822 H816 0.930 . S
C822 C823 1.355 . S
C822 C824 1.415 . S
C823 C822 1.355 . S
C823 C825 1.419 . S
C824 C822 1.415 . S
C824 C829 1.425 1_554 S
C824 C831 1.409 1_554 S
C825 H817 0.930 . S
C825 C823 1.419 . S
C825 C826 1.362 . S
C826 H818 0.930 . S
C826 C825 1.362 . S
C826 C829 1.409 1_554 S
C827 H819 0.930 . S
C827 C828 1.355 . S
C827 C829 1.415 . S
C828 C827 1.355 . S
C828 C830 1.419 . S
C829 C824 1.425 1_556 S
C829 C826 1.409 1_556 S
C829 C827 1.415 . S
C830 H820 0.930 . S
C830 C828 1.419 . S
C830 C831 1.362 . S
C831 H821 0.930 . S
C831 C824 1.409 1_556 S
C831 C830 1.362 . S
H832 C838 0.930 . S
H833 C841 0.930 . S
H834 C842 0.930 . S
H835 C843 0.930 . S
H836 C846 0.930 . S
H837 C847 0.930 . S
C838 H832 0.930 . S
C838 C839 1.355 . S
C838 C840 1.415 . S
C839 C838 1.355 . S
C839 C841 1.419 . S
C840 C838 1.415 . S
C840 C845 1.425 . S
C840 C847 1.409 . S
C841 H833 0.930 . S
C841 C839 1.419 . S
C841 C842 1.362 . S
C842 H834 0.930 . S
C842 C841 1.362 . S
C842 C845 1.409 . S
C843 H835 0.930 . S
C843 C844 1.355 . S
C843 C845 1.415 . S
C844 C843 1.355 . S
C844 C846 1.419 . S
C845 C840 1.425 . S
C845 C842 1.409 . S
C845 C843 1.415 . S
C846 H836 0.930 . S
C846 C844 1.419 . S
C846 C847 1.362 . S
C847 H837 0.930 . S
C847 C840 1.409 . S
C847 C846 1.362 . S
H848 C854 0.930 . S
H849 C857 0.930 . S
H850 C858 0.930 . S
H851 C859 0.930 . S
H852 C862 0.930 . S
H853 C863 0.930 . S
C854 H848 0.930 . S
C854 C855 1.355 . S
C854 C856 1.415 . S
C855 C854 1.355 . S
C855 C857 1.419 . S
C856 C854 1.415 . S
C856 C861 1.425 . S
C856 C863 1.409 . S
C857 H849 0.930 . S
C857 C855 1.419 . S
C857 C858 1.362 . S
C858 H850 0.930 . S
C858 C857 1.362 . S
C858 C861 1.409 . S
C859 H851 0.930 . S
C859 C860 1.355 . S
C859 C861 1.415 . S
C860 C859 1.355 . S
C860 C862 1.419 . S
C861 C856 1.425 . S
C861 C858 1.409 . S
C861 C859 1.415 . S
C862 H852 0.930 . S
C862 C860 1.419 . S
C862 C863 1.362 . S
C863 H853 0.930 . S
C863 C856 1.409 . S
C863 C862 1.362 . S
H864 C870 0.930 . S
H865 C873 0.930 . S
H866 C874 0.930 . S
H867 C875 0.930 . S
H868 C878 0.930 . S
H869 C879 0.930 . S
C870 H864 0.930 . S
C870 C871 1.355 . S
C870 C872 1.415 . S
C871 C870 1.355 . S
C871 C873 1.419 . S
C872 C870 1.415 . S
C872 C877 1.425 . S
C872 C879 1.409 . S
C873 H865 0.930 . S
C873 C871 1.419 . S
C873 C874 1.362 . S
C874 H866 0.930 . S
C874 C873 1.362 . S
C874 C877 1.409 . S
C875 H867 0.930 . S
C875 C876 1.355 . S
C875 C877 1.415 . S
C876 C875 1.355 . S
C876 C878 1.419 . S
C877 C872 1.425 . S
C877 C874 1.409 . S
C877 C875 1.415 . S
C878 H868 0.930 . S
C878 C876 1.419 . S
C878 C879 1.362 . S
C879 H869 0.930 . S
C879 C872 1.409 . S
C879 C878 1.362 . S
H880 C886 0.930 . S
H881 C889 0.930 . S
H882 C890 0.930 . S
H883 C891 0.930 . S
H884 C894 0.930 . S
H885 C895 0.930 . S
C886 H880 0.930 . S
C886 C887 1.355 . S
C886 C888 1.415 . S
C887 C886 1.355 . S
C887 C889 1.419 . S
C888 C886 1.415 . S
C888 C893 1.425 . S
C888 C895 1.409 . S
C889 H881 0.930 . S
C889 C887 1.419 . S
C889 C890 1.362 . S
C890 H882 0.930 . S
C890 C889 1.362 . S
C890 C893 1.409 . S
C891 H883 0.930 . S
C891 C892 1.355 . S
C891 C893 1.415 . S
C892 C891 1.355 . S
C892 C894 1.419 . S
C893 C888 1.425 . S
C893 C890 1.409 . S
C893 C891 1.415 . S
C894 H884 0.930 . S
C894 C892 1.419 . S
C894 C895 1.362 . S
C895 H885 0.930 . S
C895 C888 1.409 . S
C895 C894 1.362 . S
H896 C902 0.930 . S
H897 C905 0.930 . S
H898 C906 0.930 . S
H899 C907 0.930 . S
H900 C910 0.930 . S
H901 C911 0.930 . S
C902 H896 0.930 . S
C902 C903 1.355 . S
C902 C904 1.415 . S
C903 C902 1.355 . S
C903 C905 1.419 . S
C904 C902 1.415 . S
C904 C909 1.425 . S
C904 C911 1.409 . S
C905 H897 0.930 . S
C905 C903 1.419 . S
C905 C906 1.362 . S
C906 H898 0.930 . S
C906 C905 1.362 . S
C906 C909 1.409 . S
C907 H899 0.930 . S
C907 C908 1.355 . S
C907 C909 1.415 . S
C908 C907 1.355 . S
C908 C910 1.419 . S
C909 C904 1.425 . S
C909 C906 1.409 . S
C909 C907 1.415 . S
C910 H900 0.930 . S
C910 C908 1.419 . S
C910 C911 1.362 . S
C911 H901 0.930 . S
C911 C904 1.409 . S
C911 C910 1.362 . S
H912 C918 0.930 . S
H913 C921 0.930 . S
H914 C922 0.930 . S
H915 C923 0.930 . S
H916 C926 0.930 . S
H917 C927 0.930 . S
C918 H912 0.930 . S
C918 C919 1.355 . S
C918 C920 1.415 . S
C919 C918 1.355 . S
C919 C921 1.419 . S
C920 C918 1.415 . S
C920 C925 1.425 . S
C920 C927 1.409 1_554 S
C921 H913 0.930 . S
C921 C919 1.419 . S
C921 C922 1.362 . S
C922 H914 0.930 . S
C922 C921 1.362 . S
C922 C925 1.409 . S
C923 H915 0.930 . S
C923 C924 1.355 . S
C923 C925 1.415 1_556 S
C924 C923 1.355 . S
C924 C926 1.419 . S
C925 C920 1.425 . S
C925 C922 1.409 . S
C925 C923 1.415 1_554 S
C926 H916 0.930 . S
C926 C924 1.419 . S
C926 C927 1.362 . S
C927 H917 0.930 . S
C927 C920 1.409 1_556 S
C927 C926 1.362 . S
H928 C934 0.930 . S
H929 C937 0.930 . S
H930 C938 0.930 . S
H931 C939 0.930 . S
H932 C942 0.930 . S
H933 C943 0.930 . S
C934 H928 0.930 . S
C934 C935 1.355 . S
C934 C936 1.415 . S
C935 C934 1.355 . S
C935 C937 1.419 . S
C936 C934 1.415 . S
C936 C941 1.425 . S
C936 C943 1.409 . S
C937 H929 0.930 . S
C937 C935 1.419 . S
C937 C938 1.362 . S
C938 H930 0.930 . S
C938 C937 1.362 . S
C938 C941 1.409 . S
C939 H931 0.930 . S
C939 C940 1.355 . S
C939 C941 1.415 . S
C940 C939 1.355 . S
C940 C942 1.419 . S
C941 C936 1.425 . S
C941 C938 1.409 . S
C941 C939 1.415 . S
C942 H932 0.930 . S
C942 C940 1.419 . S
C942 C943 1.362 . S
C943 H933 0.930 . S
C943 C936 1.409 . S
C943 C942 1.362 . S
H944 C950 0.930 . S
H945 C953 0.930 . S
H946 C954 0.930 . S
H947 C955 0.930 . S
H948 C958 0.930 . S
H949 C959 0.930 . S
C950 H944 0.930 . S
C950 C951 1.355 . S
C950 C952 1.415 . S
C951 C950 1.355 . S
C951 C953 1.419 . S
C952 C950 1.415 . S
C952 C957 1.425 . S
C952 C959 1.409 . S
C953 H945 0.930 . S
C953 C951 1.419 . S
C953 C954 1.362 . S
C954 H946 0.930 . S
C954 C953 1.362 . S
C954 C957 1.409 . S
C955 H947 0.930 . S
C955 C956 1.355 . S
C955 C957 1.415 . S
C956 C955 1.355 . S
C956 C958 1.419 . S
C957 C952 1.425 . S
C957 C954 1.409 . S
C957 C955 1.415 . S
C958 H948 0.930 . S
C958 C956 1.419 . S
C958 C959 1.362 . S
C959 H949 0.930 . S
C959 C952 1.409 . S
C959 C958 1.362 . S
H960 C966 0.930 . S
H961 C969 0.930 . S
H962 C970 0.930 . S
H963 C971 0.930 . S
H964 C974 0.930 . S
H965 C975 0.930 . S
C966 H960 0.930 . S
C966 C967 1.355 . S
C966 C968 1.415 . S
C967 C966 1.355 . S
C967 C969 1.419 . S
C968 C966 1.415 . S
C968 C973 1.425 . S
C968 C975 1.409 . S
C969 H961 0.930 . S
C969 C967 1.419 . S
C969 C970 1.362 . S
C970 H962 0.930 . S
C970 C969 1.362 . S
C970 C973 1.409 . S
C971 H963 0.930 . S
C971 C972 1.355 . S
C971 C973 1.415 . S
C972 C971 1.355 . S
C972 C974 1.419 . S
C973 C968 1.425 . S
C973 C970 1.409 . S
C973 C971 1.415 . S
C974 H964 0.930 . S
C974 C972 1.419 . S
C974 C975 1.362 . S
C975 H965 0.930 . S
C975 C968 1.409 . S
C975 C974 1.362 . S
H976 C982 0.930 . S
H977 C985 0.930 . S
H978 C986 0.930 . S
H979 C987 0.930 . S
H980 C990 0.930 . S
H981 C991 0.930 . S
C982 H976 0.930 . S
C982 C983 1.355 . S
C982 C984 1.415 . S
C983 C982 1.355 . S
C983 C985 1.419 . S
C984 C982 1.415 . S
C984 C989 1.425 1_554 S
C984 C991 1.409 1_554 S
C985 H977 0.930 . S
C985 C983 1.419 . S
C985 C986 1.362 . S
C986 H978 0.930 . S
C986 C985 1.362 . S
C986 C989 1.409 1_554 S
C987 H979 0.930 . S
C987 C988 1.355 . S
C987 C989 1.415 . S
C988 C987 1.355 . S
C988 C990 1.419 . S
C989 C984 1.425 1_556 S
C989 C986 1.409 1_556 S
C989 C987 1.415 . S
C990 H980 0.930 . S
C990 C988 1.419 . S
C990 C991 1.362 . S
C991 H981 0.930 . S
C991 C984 1.409 1_556 S
C991 C990 1.362 . S
H992 C998 0.930 . S
H993 C1001 0.930 . S
H994 C1002 0.930 . S
H995 C1003 0.930 . S
H996 C1006 0.930 . S
H997 C1007 0.930 . S
C998 H992 0.930 . S
C998 C999 1.355 . S
C998 C1000 1.415 . S
C999 C998 1.355 . S
C999 C1001 1.419 . S
C1000 C998 1.415 . S
C1000 C1005 1.425 . S
C1000 C1007 1.409 . S
C1001 H993 0.930 . S
C1001 C999 1.419 . S
C1001 C1002 1.362 . S
C1002 H994 0.930 . S
C1002 C1001 1.362 . S
C1002 C1005 1.409 . S
C1003 H995 0.930 . S
C1003 C1004 1.355 . S
C1003 C1005 1.415 . S
C1004 C1003 1.355 . S
C1004 C1006 1.419 . S
C1005 C1000 1.425 . S
C1005 C1002 1.409 . S
C1005 C1003 1.415 . S
C1006 H996 0.930 . S
C1006 C1004 1.419 . S
C1006 C1007 1.362 . S
C1007 H997 0.930 . S
C1007 C1000 1.409 . S
C1007 C1006 1.362 . S
H1008 C1014 0.930 . S
H1009 C1017 0.930 . S
H1010 C1018 0.930 . S
H1011 C1019 0.930 . S
H1012 C1022 0.930 . S
H1013 C1023 0.930 . S
C1014 H1008 0.930 . S
C1014 C1015 1.355 . S
C1014 C1016 1.415 . S
C1015 C1014 1.355 . S
C1015 C1017 1.419 . S
C1016 C1014 1.415 . S
C1016 C1021 1.425 . S
C1016 C1023 1.409 . S
C1017 H1009 0.930 . S
C1017 C1015 1.419 . S
C1017 C1018 1.362 . S
C1018 H1010 0.930 . S
C1018 C1017 1.362 . S
C1018 C1021 1.409 . S
C1019 H1011 0.930 . S
C1019 C1020 1.355 . S
C1019 C1021 1.415 . S
C1020 C1019 1.355 . S
C1020 C1022 1.419 . S
C1021 C1016 1.425 . S
C1021 C1018 1.409 . S
C1021 C1019 1.415 . S
C1022 H1012 0.930 . S
C1022 C1020 1.419 . S
C1022 C1023 1.362 . S
C1023 H1013 0.930 . S
C1023 C1016 1.409 . S
C1023 C1022 1.362 . S
H1024 C1030 0.930 . S
H1025 C1033 0.930 . S
H1026 C1034 0.930 . S
H1027 C1035 0.930 . S
H1028 C1038 0.930 . S
H1029 C1039 0.930 . S
C1030 H1024 0.930 . S
C1030 C1031 1.355 . S
C1030 C1032 1.415 . S
C1031 C1030 1.355 . S
C1031 C1033 1.419 . S
C1032 C1030 1.415 . S
C1032 C1037 1.425 . S
C1032 C1039 1.409 . S
C1033 H1025 0.930 . S
C1033 C1031 1.419 . S
C1033 C1034 1.362 . S
C1034 H1026 0.930 . S
C1034 C1033 1.362 . S
C1034 C1037 1.409 . S
C1035 H1027 0.930 . S
C1035 C1036 1.355 . S
C1035 C1037 1.415 . S
C1036 C1035 1.355 . S
C1036 C1038 1.419 . S
C1037 C1032 1.425 . S
C1037 C1034 1.409 . S
C1037 C1035 1.415 . S
C1038 H1028 0.930 . S
C1038 C1036 1.419 . S
C1038 C1039 1.362 . S
C1039 H1029 0.930 . S
C1039 C1032 1.409 . S
C1039 C1038 1.362 . S
H1040 C1046 0.930 . S
H1041 C1049 0.930 . S
H1042 C1050 0.930 . S
H1043 C1051 0.930 . S
H1044 C1054 0.930 . S
H1045 C1055 0.930 . S
C1046 H1040 0.930 . S
C1046 C1047 1.355 . S
C1046 C1048 1.415 . S
C1047 C1046 1.355 . S
C1047 C1049 1.419 . S
C1048 C1046 1.415 . S
C1048 C1053 1.425 . S
C1048 C1055 1.409 . S
C1049 H1041 0.930 . S
C1049 C1047 1.419 . S
C1049 C1050 1.362 . S
C1050 H1042 0.930 . S
C1050 C1049 1.362 . S
C1050 C1053 1.409 . S
C1051 H1043 0.930 . S
C1051 C1052 1.355 . S
C1051 C1053 1.415 . S
C1052 C1051 1.355 . S
C1052 C1054 1.419 . S
C1053 C1048 1.425 . S
C1053 C1050 1.409 . S
C1053 C1051 1.415 . S
C1054 H1044 0.930 . S
C1054 C1052 1.419 . S
C1054 C1055 1.362 . S
C1055 H1045 0.930 . S
C1055 C1048 1.409 . S
C1055 C1054 1.362 . S
H1056 C1062 0.930 1_556 S
H1057 C1065 0.930 . S
H1058 C1066 0.930 . S
H1059 C1067 0.930 . S
H1060 C1070 0.930 . S
H1061 C1071 0.930 . S
C1062 H1056 0.930 1_554 S
C1062 C1063 1.355 . S
C1062 C1064 1.415 1_554 S
C1063 C1062 1.355 . S
C1063 C1065 1.419 . S
C1064 C1062 1.415 1_556 S
C1064 C1069 1.425 1_456 S
C1064 C1071 1.409 . S
C1065 H1057 0.930 . S
C1065 C1063 1.419 . S
C1065 C1066 1.362 1_455 S
C1066 H1058 0.930 . S
C1066 C1065 1.362 1_655 S
C1066 C1069 1.409 . S
C1067 H1059 0.930 . S
C1067 C1068 1.355 1_554 S
C1067 C1069 1.415 . S
C1068 C1067 1.355 1_556 S
C1068 C1070 1.419 . S
C1069 C1064 1.425 1_654 S
C1069 C1066 1.409 . S
C1069 C1067 1.415 . S
C1070 H1060 0.930 . S
C1070 C1068 1.419 . S
C1070 C1071 1.362 1_655 S
C1071 H1061 0.930 . S
C1071 C1064 1.409 . S
C1071 C1070 1.362 1_455 S
H1072 C1078 0.930 . S
H1073 C1081 0.930 . S
H1074 C1082 0.930 . S
H1075 C1083 0.930 . S
H1076 C1086 0.930 . S
H1077 C1087 0.930 . S
C1078 H1072 0.930 . S
C1078 C1079 1.355 . S
C1078 C1080 1.415 . S
C1079 C1078 1.355 . S
C1079 C1081 1.419 . S
C1080 C1078 1.415 . S
C1080 C1085 1.425 . S
C1080 C1087 1.409 . S
C1081 H1073 0.930 . S
C1081 C1079 1.419 . S
C1081 C1082 1.362 . S
C1082 H1074 0.930 . S
C1082 C1081 1.362 . S
C1082 C1085 1.409 . S
C1083 H1075 0.930 . S
C1083 C1084 1.355 . S
C1083 C1085 1.415 . S
C1084 C1083 1.355 . S
C1084 C1086 1.419 . S
C1085 C1080 1.425 . S
C1085 C1082 1.409 . S
C1085 C1083 1.415 . S
C1086 H1076 0.930 . S
C1086 C1084 1.419 . S
C1086 C1087 1.362 . S
C1087 H1077 0.930 . S
C1087 C1080 1.409 . S
C1087 C1086 1.362 . S
H1088 C1094 0.930 . S
H1089 C1097 0.930 . S
H1090 C1098 0.930 . S
H1091 C1099 0.930 . S
H1092 C1102 0.930 . S
H1093 C1103 0.930 . S
C1094 H1088 0.930 . S
C1094 C1095 1.355 . S
C1094 C1096 1.415 . S
C1095 C1094 1.355 . S
C1095 C1097 1.419 . S
C1096 C1094 1.415 . S
C1096 C1101 1.425 . S
C1096 C1103 1.409 . S
C1097 H1089 0.930 . S
C1097 C1095 1.419 . S
C1097 C1098 1.362 . S
C1098 H1090 0.930 . S
C1098 C1097 1.362 . S
C1098 C1101 1.409 . S
C1099 H1091 0.930 . S
C1099 C1100 1.355 . S
C1099 C1101 1.415 . S
C1100 C1099 1.355 . S
C1100 C1102 1.419 . S
C1101 C1096 1.425 . S
C1101 C1098 1.409 . S
C1101 C1099 1.415 . S
C1102 H1092 0.930 . S
C1102 C1100 1.419 . S
C1102 C1103 1.362 . S
C1103 H1093 0.930 . S
C1103 C1096 1.409 . S
C1103 C1102 1.362 . S
H1104 C1110 0.930 . S
H1105 C1113 0.930 . S
H1106 C1114 0.930 . S
H1107 C1115 0.930 1_556 S
H1108 C1118 0.930 . S
H1109 C1119 0.930 . S
C1110 H1104 0.930 . S
C1110 C1111 1.355 1_554 S
C1110 C1112 1.415 . S
C1111 C1110 1.355 1_556 S
C1111 C1113 1.419 . S
C1112 C1110 1.415 . S
C1112 C1117 1.425 1_454 S
C1112 C1119 1.409 . S
C1113 H1105 0.930 . S
C1113 C1111 1.419 . S
C1113 C1114 1.362 1_455 S
C1114 H1106 0.930 . S
C1114 C1113 1.362 1_655 S
C1114 C1117 1.409 . S
C1115 H1107 0.930 1_554 S
C1115 C1116 1.355 . S
C1115 C1117 1.415 1_554 S
C1116 C1115 1.355 . S
C1116 C1118 1.419 . S
C1117 C1112 1.425 1_656 S
C1117 C1114 1.409 . S
C1117 C1115 1.415 1_556 S
C1118 H1108 0.930 . S
C1118 C1116 1.419 . S
C1118 C1119 1.362 1_655 S
C1119 H1109 0.930 . S
C1119 C1112 1.409 . S
C1119 C1118 1.362 1_455 S
H1120 C1126 0.928 1_565 S
H1121 C1129 0.930 . S
H1122 C1130 0.930 . S
H1123 C1131 0.930 . S
H1124 C1134 0.930 . S
H1125 C1135 0.930 . S
C1126 H1120 0.928 1_545 S
C1126 C1127 1.358 . S
C1126 C1128 1.413 1_545 S
C1127 C1126 1.358 . S
C1127 C1129 1.419 . S
C1128 C1126 1.413 1_565 S
C1128 C1133 1.419 1_565 S
C1128 C1135 1.419 . S
C1129 H1121 0.930 . S
C1129 C1127 1.419 . S
C1129 C1130 1.362 . S
C1130 H1122 0.930 . S
C1130 C1129 1.362 . S
C1130 C1133 1.409 . S
C1131 H1123 0.930 . S
C1131 C1132 1.355 1_545 S
C1131 C1133 1.415 . S
C1132 C1131 1.355 1_565 S
C1132 C1134 1.419 . S
C1133 C1128 1.419 1_545 S
C1133 C1130 1.409 . S
C1133 C1131 1.415 . S
C1134 H1124 0.930 . S
C1134 C1132 1.419 . S
C1134 C1135 1.362 . S
C1135 H1125 0.930 . S
C1135 C1128 1.419 . S
C1135 C1134 1.362 . S
H1136 C1142 0.930 . S
H1137 C1145 0.930 . S
H1138 C1146 0.930 . S
H1139 C1147 0.930 . S
H1140 C1150 0.930 . S
H1141 C1151 0.930 . S
C1142 H1136 0.930 . S
C1142 C1143 1.355 . S
C1142 C1144 1.415 . S
C1143 C1142 1.355 . S
C1143 C1145 1.419 . S
C1144 C1142 1.415 . S
C1144 C1149 1.425 . S
C1144 C1151 1.409 . S
C1145 H1137 0.930 . S
C1145 C1143 1.419 . S
C1145 C1146 1.362 . S
C1146 H1138 0.930 . S
C1146 C1145 1.362 . S
C1146 C1149 1.409 . S
C1147 H1139 0.930 . S
C1147 C1148 1.355 . S
C1147 C1149 1.415 . S
C1148 C1147 1.355 . S
C1148 C1150 1.419 . S
C1149 C1144 1.425 . S
C1149 C1146 1.409 . S
C1149 C1147 1.415 . S
C1150 H1140 0.930 . S
C1150 C1148 1.419 . S
C1150 C1151 1.362 . S
C1151 H1141 0.930 . S
C1151 C1144 1.409 . S
C1151 C1150 1.362 . S
H1152 C1158 0.930 . S
H1153 C1161 0.930 . S
H1154 C1162 0.930 . S
H1155 C1163 0.930 . S
H1156 C1166 0.930 . S
H1157 C1167 0.930 . S
C1158 H1152 0.930 . S
C1158 C1159 1.355 . S
C1158 C1160 1.415 . S
C1159 C1158 1.355 . S
C1159 C1161 1.419 . S
C1160 C1158 1.415 . S
C1160 C1165 1.425 . S
C1160 C1167 1.409 . S
C1161 H1153 0.930 . S
C1161 C1159 1.419 . S
C1161 C1162 1.362 . S
C1162 H1154 0.930 . S
C1162 C1161 1.362 . S
C1162 C1165 1.409 . S
C1163 H1155 0.930 . S
C1163 C1164 1.355 . S
C1163 C1165 1.415 . S
C1164 C1163 1.355 . S
C1164 C1166 1.419 . S
C1165 C1160 1.425 . S
C1165 C1162 1.409 . S
C1165 C1163 1.415 . S
C1166 H1156 0.930 . S
C1166 C1164 1.419 . S
C1166 C1167 1.362 . S
C1167 H1157 0.930 . S
C1167 C1160 1.409 . S
C1167 C1166 1.362 . S
H1168 C1174 0.930 . S
H1169 C1177 0.930 . S
H1170 C1178 0.930 . S
H1171 C1179 0.930 . S
H1172 C1182 0.930 . S
H1173 C1183 0.930 . S
C1174 H1168 0.930 . S
C1174 C1175 1.355 . S
C1174 C1176 1.415 . S
C1175 C1174 1.355 . S
C1175 C1177 1.419 . S
C1176 C1174 1.415 . S
C1176 C1181 1.425 . S
C1176 C1183 1.409 . S
C1177 H1169 0.930 . S
C1177 C1175 1.419 . S
C1177 C1178 1.362 . S
C1178 H1170 0.930 . S
C1178 C1177 1.362 . S
C1178 C1181 1.409 . S
C1179 H1171 0.930 . S
C1179 C1180 1.355 . S
C1179 C1181 1.415 . S
C1180 C1179 1.355 . S
C1180 C1182 1.419 . S
C1181 C1176 1.425 . S
C1181 C1178 1.409 . S
C1181 C1179 1.415 . S
C1182 H1172 0.930 . S
C1182 C1180 1.419 . S
C1182 C1183 1.362 . S
C1183 H1173 0.930 . S
C1183 C1176 1.409 . S
C1183 C1182 1.362 . S
H1184 C1190 0.930 . S
H1185 C1193 0.930 . S
H1186 C1194 0.930 1_556 S
H1187 C1195 0.930 1_556 S
H1188 C1198 0.930 . S
H1189 C1199 0.930 . S
C1190 H1184 0.930 . S
C1190 C1191 1.355 . S
C1190 C1192 1.415 . S
C1191 C1190 1.355 . S
C1191 C1193 1.419 . S
C1192 C1190 1.415 . S
C1192 C1197 1.425 . S
C1192 C1199 1.409 . S
C1193 H1185 0.930 . S
C1193 C1191 1.419 . S
C1193 C1194 1.362 . S
C1194 H1186 0.930 1_554 S
C1194 C1193 1.362 . S
C1194 C1197 1.409 . S
C1195 H1187 0.930 1_554 S
C1195 C1196 1.355 . S
C1195 C1197 1.415 . S
C1196 C1195 1.355 . S
C1196 C1198 1.419 . S
C1197 C1192 1.425 . S
C1197 C1194 1.409 . S
C1197 C1195 1.415 . S
C1198 H1188 0.930 . S
C1198 C1196 1.419 . S
C1198 C1199 1.362 . S
C1199 H1189 0.930 . S
C1199 C1192 1.409 . S
C1199 C1198 1.362 . S
H1200 C1206 0.930 . S
H1201 C1209 0.930 . S
H1202 C1210 0.930 . S
H1203 C1211 0.930 . S
H1204 C1214 0.930 . S
H1205 C1215 0.930 . S
C1206 H1200 0.930 . S
C1206 C1207 1.355 . S
C1206 C1208 1.415 . S
C1207 C1206 1.355 . S
C1207 C1209 1.419 . S
C1208 C1206 1.415 . S
C1208 C1213 1.425 . S
C1208 C1215 1.409 . S
C1209 H1201 0.930 . S
C1209 C1207 1.419 . S
C1209 C1210 1.362 . S
C1210 H1202 0.930 . S
C1210 C1209 1.362 . S
C1210 C1213 1.409 . S
C1211 H1203 0.930 . S
C1211 C1212 1.355 . S
C1211 C1213 1.415 . S
C1212 C1211 1.355 . S
C1212 C1214 1.419 . S
C1213 C1208 1.425 . S
C1213 C1210 1.409 . S
C1213 C1211 1.415 . S
C1214 H1204 0.930 . S
C1214 C1212 1.419 . S
C1214 C1215 1.362 . S
C1215 H1205 0.930 . S
C1215 C1208 1.409 . S
C1215 C1214 1.362 . S
H1216 C1222 0.930 . S
H1217 C1225 0.930 . S
H1218 C1226 0.930 . S
H1219 C1227 0.930 . S
H1220 C1230 0.930 . S
H1221 C1231 0.930 . S
C1222 H1216 0.930 . S
C1222 C1223 1.355 . S
C1222 C1224 1.415 . S
C1223 C1222 1.355 . S
C1223 C1225 1.419 . S
C1224 C1222 1.415 . S
C1224 C1229 1.425 . S
C1224 C1231 1.409 . S
C1225 H1217 0.930 . S
C1225 C1223 1.419 . S
C1225 C1226 1.362 . S
C1226 H1218 0.930 . S
C1226 C1225 1.362 . S
C1226 C1229 1.409 . S
C1227 H1219 0.930 . S
C1227 C1228 1.355 . S
C1227 C1229 1.415 . S
C1228 C1227 1.355 . S
C1228 C1230 1.419 . S
C1229 C1224 1.425 . S
C1229 C1226 1.409 . S
C1229 C1227 1.415 . S
C1230 H1220 0.930 . S
C1230 C1228 1.419 . S
C1230 C1231 1.362 . S
C1231 H1221 0.930 . S
C1231 C1224 1.409 . S
C1231 C1230 1.362 . S
H1232 C1238 0.930 . S
H1233 C1241 0.930 . S
H1234 C1242 0.930 . S
H1235 C1243 0.930 . S
H1236 C1246 0.930 . S
H1237 C1247 0.930 . S
C1238 H1232 0.930 . S
C1238 C1239 1.355 . S
C1238 C1240 1.415 . S
C1239 C1238 1.355 . S
C1239 C1241 1.419 . S
C1240 C1238 1.415 . S
C1240 C1245 1.425 . S
C1240 C1247 1.409 . S
C1241 H1233 0.930 . S
C1241 C1239 1.419 . S
C1241 C1242 1.362 . S
C1242 H1234 0.930 . S
C1242 C1241 1.362 . S
C1242 C1245 1.409 . S
C1243 H1235 0.930 . S
C1243 C1244 1.355 . S
C1243 C1245 1.415 . S
C1244 C1243 1.355 . S
C1244 C1246 1.419 . S
C1245 C1240 1.425 . S
C1245 C1242 1.409 . S
C1245 C1243 1.415 . S
C1246 H1236 0.930 . S
C1246 C1244 1.419 . S
C1246 C1247 1.362 . S
C1247 H1237 0.930 . S
C1247 C1240 1.409 . S
C1247 C1246 1.362 . S
H1248 C1254 0.930 . S
H1249 C1257 0.930 . S
H1250 C1258 0.930 . S
H1251 C1259 0.930 . S
H1252 C1262 0.930 1_554 S
H1253 C1263 0.930 . S
C1254 H1248 0.930 . S
C1254 C1255 1.355 1_554 S
C1254 C1256 1.415 1_554 S
C1255 C1254 1.355 1_556 S
C1255 C1257 1.419 . S
C1256 C1254 1.415 1_556 S
C1256 C1261 1.425 . S
C1256 C1263 1.409 1_556 S
C1257 H1249 0.930 . S
C1257 C1255 1.419 . S
C1257 C1258 1.362 . S
C1258 H1250 0.930 . S
C1258 C1257 1.362 . S
C1258 C1261 1.409 . S
C1259 H1251 0.930 . S
C1259 C1260 1.355 . S
C1259 C1261 1.415 . S
C1260 C1259 1.355 . S
C1260 C1262 1.419 . S
C1261 C1256 1.425 . S
C1261 C1258 1.409 . S
C1261 C1259 1.415 . S
C1262 H1252 0.930 1_556 S
C1262 C1260 1.419 . S
C1262 C1263 1.362 1_556 S
C1263 H1253 0.930 . S
C1263 C1256 1.409 1_554 S
C1263 C1262 1.362 1_554 S
H1264 C1270 0.930 . S
H1265 C1273 0.930 . S
H1266 C1274 0.930 . S
H1267 C1275 0.930 . S
H1268 C1278 0.930 . S
H1269 C1279 0.930 . S
C1270 H1264 0.930 . S
C1270 C1271 1.355 . S
C1270 C1272 1.415 . S
C1271 C1270 1.355 . S
C1271 C1273 1.419 . S
C1272 C1270 1.415 . S
C1272 C1277 1.425 . S
C1272 C1279 1.409 . S
C1273 H1265 0.930 . S
C1273 C1271 1.419 . S
C1273 C1274 1.362 . S
C1274 H1266 0.930 . S
C1274 C1273 1.362 . S
C1274 C1277 1.409 . S
C1275 H1267 0.930 . S
C1275 C1276 1.355 1_565 S
C1275 C1277 1.415 . S
C1276 C1275 1.355 1_545 S
C1276 C1278 1.419 . S
C1277 C1272 1.425 . S
C1277 C1274 1.409 . S
C1277 C1275 1.415 . S
C1278 H1268 0.930 . S
C1278 C1276 1.419 . S
C1278 C1279 1.362 1_545 S
C1279 H1269 0.930 . S
C1279 C1272 1.409 . S
C1279 C1278 1.362 1_565 S
H1280 C1286 0.930 . S
H1281 C1289 0.930 . S
H1282 C1290 0.930 . S
H1283 C1291 0.930 . S
H1284 C1294 0.930 . S
H1285 C1295 0.930 . S
C1286 H1280 0.930 . S
C1286 C1287 1.355 . S
C1286 C1288 1.415 . S
C1287 C1286 1.355 . S
C1287 C1289 1.419 . S
C1288 C1286 1.415 . S
C1288 C1293 1.425 . S
C1288 C1295 1.409 1_554 S
C1289 H1281 0.930 . S
C1289 C1287 1.419 . S
C1289 C1290 1.362 . S
C1290 H1282 0.930 . S
C1290 C1289 1.362 . S
C1290 C1293 1.409 . S
C1291 H1283 0.930 . S
C1291 C1292 1.355 . S
C1291 C1293 1.415 . S
C1292 C1291 1.355 . S
C1292 C1294 1.419 1_554 S
C1293 C1288 1.425 . S
C1293 C1290 1.409 . S
C1293 C1291 1.415 . S
C1294 H1284 0.930 . S
C1294 C1292 1.419 1_556 S
C1294 C1295 1.362 . S
C1295 H1285 0.930 . S
C1295 C1288 1.409 1_556 S
C1295 C1294 1.362 . S
H1296 C1302 0.930 . S
H1297 C1305 0.930 . S
H1298 C1306 0.930 . S
H1299 C1307 0.930 . S
H1300 C1310 0.930 . S
H1301 C1311 0.930 . S
C1302 H1296 0.930 . S
C1302 C1303 1.355 . S
C1302 C1304 1.415 1_565 S
C1303 C1302 1.355 . S
C1303 C1305 1.419 . S
C1304 C1302 1.415 1_545 S
C1304 C1309 1.425 . S
C1304 C1311 1.409 . S
C1305 H1297 0.930 . S
C1305 C1303 1.419 . S
C1305 C1306 1.362 1_565 S
C1306 H1298 0.930 . S
C1306 C1305 1.362 1_545 S
C1306 C1309 1.409 . S
C1307 H1299 0.930 . S
C1307 C1308 1.355 . S
C1307 C1309 1.415 . S
C1308 C1307 1.355 . S
C1308 C1310 1.419 . S
C1309 C1304 1.425 . S
C1309 C1306 1.409 . S
C1309 C1307 1.415 . S
C1310 H1300 0.930 . S
C1310 C1308 1.419 . S
C1310 C1311 1.362 . S
C1311 H1301 0.930 . S
C1311 C1304 1.409 . S
C1311 C1310 1.362 . S
H1312 C1318 0.930 . S
H1313 C1321 0.930 . S
H1314 C1322 0.930 . S
H1315 C1323 0.930 . S
H1316 C1326 0.930 . S
H1317 C1327 0.930 . S
C1318 H1312 0.930 . S
C1318 C1319 1.355 . S
C1318 C1320 1.415 . S
C1319 C1318 1.355 . S
C1319 C1321 1.419 . S
C1320 C1318 1.415 . S
C1320 C1325 1.425 . S
C1320 C1327 1.409 . S
C1321 H1313 0.930 . S
C1321 C1319 1.419 . S
C1321 C1322 1.362 . S
C1322 H1314 0.930 . S
C1322 C1321 1.362 . S
C1322 C1325 1.409 . S
C1323 H1315 0.930 . S
C1323 C1324 1.355 . S
C1323 C1325 1.415 . S
C1324 C1323 1.355 . S
C1324 C1326 1.419 . S
C1325 C1320 1.425 . S
C1325 C1322 1.409 . S
C1325 C1323 1.415 . S
C1326 H1316 0.930 . S
C1326 C1324 1.419 . S
C1326 C1327 1.362 . S
C1327 H1317 0.930 . S
C1327 C1320 1.409 . S
C1327 C1326 1.362 . S
H1328 C1334 0.930 . S
H1329 C1337 0.930 . S
H1330 C1338 0.930 . S
H1331 C1339 0.930 . S
H1332 C1342 0.930 . S
H1333 C1343 0.930 . S
C1334 H1328 0.930 . S
C1334 C1335 1.355 . S
C1334 C1336 1.415 . S
C1335 C1334 1.355 . S
C1335 C1337 1.419 . S
C1336 C1334 1.415 . S
C1336 C1341 1.425 . S
C1336 C1343 1.409 . S
C1337 H1329 0.930 . S
C1337 C1335 1.419 . S
C1337 C1338 1.362 . S
C1338 H1330 0.930 . S
C1338 C1337 1.362 . S
C1338 C1341 1.409 . S
C1339 H1331 0.930 . S
C1339 C1340 1.355 1_545 S
C1339 C1341 1.415 . S
C1340 C1339 1.355 1_565 S
C1340 C1342 1.419 . S
C1341 C1336 1.425 . S
C1341 C1338 1.409 . S
C1341 C1339 1.415 . S
C1342 H1332 0.930 . S
C1342 C1340 1.419 . S
C1342 C1343 1.362 1_565 S
C1343 H1333 0.930 . S
C1343 C1336 1.409 . S
C1343 C1342 1.362 1_545 S
H1344 C1350 0.930 . S
H1345 C1353 0.930 . S
H1346 C1354 0.930 . S
H1347 C1355 0.930 . S
H1348 C1358 0.930 . S
H1349 C1359 0.930 . S
C1350 H1344 0.930 . S
C1350 C1351 1.355 . S
C1350 C1352 1.415 . S
C1351 C1350 1.355 . S
C1351 C1353 1.419 . S
C1352 C1350 1.415 . S
C1352 C1357 1.425 . S
C1352 C1359 1.409 1_556 S
C1353 H1345 0.930 . S
C1353 C1351 1.419 . S
C1353 C1354 1.362 . S
C1354 H1346 0.930 . S
C1354 C1353 1.362 . S
C1354 C1357 1.409 . S
C1355 H1347 0.930 . S
C1355 C1356 1.355 . S
C1355 C1357 1.415 . S
C1356 C1355 1.355 . S
C1356 C1358 1.419 1_556 S
C1357 C1352 1.425 . S
C1357 C1354 1.409 . S
C1357 C1355 1.415 . S
C1358 H1348 0.930 . S
C1358 C1356 1.419 1_554 S
C1358 C1359 1.362 . S
C1359 H1349 0.930 . S
C1359 C1352 1.409 1_554 S
C1359 C1358 1.362 . S
H1360 C1366 0.930 . S
H1361 C1369 0.930 . S
H1362 C1370 0.930 . S
H1363 C1371 0.910 1_545 S
H1364 C1374 0.937 . S
H1365 C1375 0.930 . S
C1366 H1360 0.930 . S
C1366 C1367 1.355 . S
C1366 C1368 1.415 . S
C1367 C1366 1.355 . S
C1367 C1369 1.419 . S
C1368 C1366 1.415 . S
C1368 C1373 1.425 . S
C1368 C1375 1.409 . S
C1369 H1361 0.930 . S
C1369 C1367 1.419 . S
C1369 C1370 1.362 . S
C1370 H1362 0.930 . S
C1370 C1369 1.362 . S
C1370 C1373 1.409 . S
C1371 H1363 0.910 1_565 S
C1371 C1372 1.342 1_565 S
C1371 C1373 1.448 . S
C1372 C1371 1.342 1_545 S
C1372 C1374 1.419 1_545 S
C1373 C1368 1.425 . S
C1373 C1370 1.409 . S
C1373 C1371 1.448 . S
C1374 H1364 0.937 . S
C1374 C1372 1.419 1_565 S
C1374 C1375 1.362 . S
C1375 H1365 0.930 . S
C1375 C1368 1.409 . S
C1375 C1374 1.362 . S
H1376 C1382 0.930 . S
H1377 C1385 0.930 . S
H1378 C1386 0.930 . S
H1379 C1387 0.930 . S
H1380 C1390 0.930 . S
H1381 C1391 0.930 . S
C1382 H1376 0.930 . S
C1382 C1383 1.355 . S
C1382 C1384 1.415 . S
C1383 C1382 1.355 . S
C1383 C1385 1.419 . S
C1384 C1382 1.415 . S
C1384 C1389 1.425 . S
C1384 C1391 1.409 . S
C1385 H1377 0.930 . S
C1385 C1383 1.419 . S
C1385 C1386 1.362 . S
C1386 H1378 0.930 . S
C1386 C1385 1.362 . S
C1386 C1389 1.409 . S
C1387 H1379 0.930 . S
C1387 C1388 1.355 . S
C1387 C1389 1.415 . S
C1388 C1387 1.355 . S
C1388 C1390 1.419 . S
C1389 C1384 1.425 . S
C1389 C1386 1.409 . S
C1389 C1387 1.415 . S
C1390 H1380 0.930 . S
C1390 C1388 1.419 . S
C1390 C1391 1.362 . S
C1391 H1381 0.930 . S
C1391 C1384 1.409 . S
C1391 C1390 1.362 . S
H1392 C1398 0.930 . S
H1393 C1401 0.930 . S
H1394 C1402 0.930 . S
H1395 C1403 0.930 . S
H1396 C1406 0.930 . S
H1397 C1407 0.930 . S
C1398 H1392 0.930 . S
C1398 C1399 1.355 . S
C1398 C1400 1.415 . S
C1399 C1398 1.355 . S
C1399 C1401 1.419 . S
C1400 C1398 1.415 . S
C1400 C1405 1.425 . S
C1400 C1407 1.409 . S
C1401 H1393 0.930 . S
C1401 C1399 1.419 . S
C1401 C1402 1.362 . S
C1402 H1394 0.930 . S
C1402 C1401 1.362 . S
C1402 C1405 1.409 . S
C1403 H1395 0.930 . S
C1403 C1404 1.355 . S
C1403 C1405 1.415 . S
C1404 C1403 1.355 . S
C1404 C1406 1.419 . S
C1405 C1400 1.425 . S
C1405 C1402 1.409 . S
C1405 C1403 1.415 . S
C1406 H1396 0.930 . S
C1406 C1404 1.419 . S
C1406 C1407 1.362 . S
C1407 H1397 0.930 . S
C1407 C1400 1.409 . S
C1407 C1406 1.362 . S
H1408 C1414 0.930 . S
H1409 C1417 0.930 . S
H1410 C1418 0.930 . S
H1411 C1419 0.930 . S
H1412 C1422 0.930 . S
H1413 C1423 0.930 . S
C1414 H1408 0.930 . S
C1414 C1415 1.355 1_554 S
C1414 C1416 1.415 . S
C1415 C1414 1.355 1_556 S
C1415 C1417 1.419 . S
C1416 C1414 1.415 . S
C1416 C1421 1.425 . S
C1416 C1423 1.409 . S
C1417 H1409 0.930 . S
C1417 C1415 1.419 . S
C1417 C1418 1.362 . S
C1418 H1410 0.930 . S
C1418 C1417 1.362 . S
C1418 C1421 1.409 1_556 S
C1419 H1411 0.930 . S
C1419 C1420 1.355 . S
C1419 C1421 1.415 . S
C1420 C1419 1.355 . S
C1420 C1422 1.419 . S
C1421 C1416 1.425 . S
C1421 C1418 1.409 1_554 S
C1421 C1419 1.415 . S
C1422 H1412 0.930 . S
C1422 C1420 1.419 . S
C1422 C1423 1.362 . S
C1423 H1413 0.930 . S
C1423 C1416 1.409 . S
C1423 C1422 1.362 . S
H1424 C1430 0.930 . S
H1425 C1433 0.930 . S
H1426 C1434 0.930 . S
H1427 C1435 0.930 . S
H1428 C1438 0.930 . S
H1429 C1439 0.930 . S
C1430 H1424 0.930 . S
C1430 C1431 1.355 . S
C1430 C1432 1.415 . S
C1431 C1430 1.355 . S
C1431 C1433 1.419 . S
C1432 C1430 1.415 . S
C1432 C1437 1.425 . S
C1432 C1439 1.409 . S
C1433 H1425 0.930 . S
C1433 C1431 1.419 . S
C1433 C1434 1.362 . S
C1434 H1426 0.930 . S
C1434 C1433 1.362 . S
C1434 C1437 1.409 . S
C1435 H1427 0.930 . S
C1435 C1436 1.355 . S
C1435 C1437 1.415 . S
C1436 C1435 1.355 . S
C1436 C1438 1.419 . S
C1437 C1432 1.425 . S
C1437 C1434 1.409 . S
C1437 C1435 1.415 . S
C1438 H1428 0.930 . S
C1438 C1436 1.419 . S
C1438 C1439 1.362 . S
C1439 H1429 0.930 . S
C1439 C1432 1.409 . S
C1439 C1438 1.362 . S
H1440 C1446 0.930 . S
H1441 C1449 0.930 . S
H1442 C1450 0.930 . S
H1443 C1451 0.930 . S
H1444 C1454 0.930 . S
H1445 C1455 0.930 . S
C1446 H1440 0.930 . S
C1446 C1447 1.355 1_655 S
C1446 C1448 1.415 . S
C1447 C1446 1.355 1_455 S
C1447 C1449 1.419 . S
C1448 C1446 1.415 . S
C1448 C1453 1.425 1_655 S
C1448 C1455 1.409 . S
C1449 H1441 0.930 . S
C1449 C1447 1.419 . S
C1449 C1450 1.362 . S
C1450 H1442 0.930 . S
C1450 C1449 1.362 . S
C1450 C1453 1.409 . S
C1451 H1443 0.930 . S
C1451 C1452 1.355 1_455 S
C1451 C1453 1.415 . S
C1452 C1451 1.355 1_655 S
C1452 C1454 1.419 . S
C1453 C1448 1.425 1_455 S
C1453 C1450 1.409 . S
C1453 C1451 1.415 . S
C1454 H1444 0.930 . S
C1454 C1452 1.419 . S
C1454 C1455 1.362 . S
C1455 H1445 0.930 . S
C1455 C1448 1.409 . S
C1455 C1454 1.362 . S
H1456 C1462 0.930 . S
H1457 C1465 0.930 . S
H1458 C1466 0.930 . S
H1459 C1467 0.930 . S
H1460 C1470 0.930 . S
H1461 C1471 0.930 . S
C1462 H1456 0.930 . S
C1462 C1463 1.355 . S
C1462 C1464 1.415 . S
C1463 C1462 1.355 . S
C1463 C1465 1.419 . S
C1464 C1462 1.415 . S
C1464 C1469 1.425 . S
C1464 C1471 1.409 . S
C1465 H1457 0.930 . S
C1465 C1463 1.419 . S
C1465 C1466 1.362 . S
C1466 H1458 0.930 . S
C1466 C1465 1.362 . S
C1466 C1469 1.409 . S
C1467 H1459 0.930 . S
C1467 C1468 1.355 . S
C1467 C1469 1.415 . S
C1468 C1467 1.355 . S
C1468 C1470 1.419 . S
C1469 C1464 1.425 . S
C1469 C1466 1.409 . S
C1469 C1467 1.415 . S
C1470 H1460 0.930 . S
C1470 C1468 1.419 . S
C1470 C1471 1.362 . S
C1471 H1461 0.930 . S
C1471 C1464 1.409 . S
C1471 C1470 1.362 . S
H1472 C1478 0.930 . S
H1473 C1481 0.930 . S
H1474 C1482 0.930 . S
H1475 C1483 0.930 . S
H1476 C1486 0.930 . S
H1477 C1487 0.930 . S
C1478 H1472 0.930 . S
C1478 C1479 1.355 . S
C1478 C1480 1.415 . S
C1479 C1478 1.355 . S
C1479 C1481 1.419 . S
C1480 C1478 1.415 . S
C1480 C1485 1.425 . S
C1480 C1487 1.409 . S
C1481 H1473 0.930 . S
C1481 C1479 1.419 . S
C1481 C1482 1.362 . S
C1482 H1474 0.930 . S
C1482 C1481 1.362 . S
C1482 C1485 1.409 . S
C1483 H1475 0.930 . S
C1483 C1484 1.355 . S
C1483 C1485 1.415 . S
C1484 C1483 1.355 . S
C1484 C1486 1.419 . S
C1485 C1480 1.425 . S
C1485 C1482 1.409 . S
C1485 C1483 1.415 . S
C1486 H1476 0.930 . S
C1486 C1484 1.419 . S
C1486 C1487 1.362 . S
C1487 H1477 0.930 . S
C1487 C1480 1.409 . S
C1487 C1486 1.362 . S
H1488 C1494 0.930 . S
H1489 C1497 0.930 . S
H1490 C1498 0.930 1_545 S
H1491 C1499 0.930 . S
H1492 C1502 0.930 . S
H1493 C1503 0.933 1_565 S
C1494 H1488 0.930 . S
C1494 C1495 1.319 1_455 S
C1494 C1496 1.415 . S
C1495 C1494 1.319 1_655 S
C1495 C1497 1.461 . S
C1496 C1494 1.415 . S
C1496 C1501 1.425 1_465 S
C1496 C1503 1.409 1_565 S
C1497 H1489 0.930 . S
C1497 C1495 1.461 . S
C1497 C1498 1.362 . S
C1498 H1490 0.930 1_565 S
C1498 C1497 1.362 . S
C1498 C1501 1.409 1_565 S
C1499 H1491 0.930 . S
C1499 C1500 1.355 1_655 S
C1499 C1501 1.415 . S
C1500 C1499 1.355 1_455 S
C1500 C1502 1.419 . S
C1501 C1496 1.425 1_645 S
C1501 C1498 1.409 1_545 S
C1501 C1499 1.415 . S
C1502 H1492 0.930 . S
C1502 C1500 1.419 . S
C1502 C1503 1.362 . S
C1503 H1493 0.933 1_545 S
C1503 C1496 1.409 1_545 S
C1503 C1502 1.362 . S
H1504 C1510 0.930 . S
H1505 C1513 0.930 . S
H1506 C1514 0.930 . S
H1507 C1515 0.930 1_554 S
H1508 C1518 0.930 . S
H1509 C1519 0.956 . S
C1510 H1504 0.930 . S
C1510 C1511 1.355 . S
C1510 C1512 1.414 1_554 S
C1511 C1510 1.355 . S
C1511 C1513 1.419 . S
C1512 C1510 1.414 1_556 S
C1512 C1517 1.425 1_566 S
C1512 C1519 1.421 . S
C1513 H1505 0.930 . S
C1513 C1511 1.419 . S
C1513 C1514 1.362 1_565 S
C1514 H1506 0.930 . S
C1514 C1513 1.362 1_545 S
C1514 C1517 1.409 . S
C1515 H1507 0.930 1_556 S
C1515 C1516 1.355 . S
C1515 C1517 1.415 1_556 S
C1516 C1515 1.355 . S
C1516 C1518 1.419 . S
C1517 C1512 1.425 1_544 S
C1517 C1514 1.409 . S
C1517 C1515 1.415 1_554 S
C1518 H1508 0.930 . S
C1518 C1516 1.419 . S
C1518 C1519 1.328 1_545 S
C1519 H1509 0.956 . S
C1519 C1512 1.421 . S
C1519 C1518 1.328 1_565 S
C503 C19 1.748 . S
C508 C423 1.742 . S
C519 C41 1.602 . S
C524 C187 1.735 . S
C535 C485 1.747 . S
C540 C72 1.653 . S
C551 C125 1.748 . S
C556 C112 1.805 . S
C567 C124 1.920 . S
C572 C281 1.852 . S
C583 C155 1.978 . S
C588 C64 1.931 . S
C599 C186 1.784 1_556 S
C604 C361 1.786 . S
C615 C236 1.725 . S
C620 C20 1.726 . S
C631 C156 1.727 . S
C636 C267 1.759 . S
C647 C289 1.518 . S
C652 C435 1.721 . S
C663 C320 1.629 . S
C668 C237 1.795 . S
C679 C360 1.777 . S
C684 C373 1.770 . S
C695 C33 1.864 . S
C700 C372 1.903 1_556 S
C711 C312 1.933 . S
C716 C422 1.977 . S
C727 C113 1.757 . S
C732 C434 1.808 . S
C743 C268 1.704 . S
C748 C484 1.748 . S
C759 C0 1.516 . S
C764 C10 1.528 . S
C775 C61 1.489 . S
C780 C50 1.480 1_554 S
C791 C81 1.512 . S
C796 C92 1.527 . S
C807 C103 1.502 . S
C812 C93 1.480 1_556 S
C823 C154 1.529 . S
C828 C143 1.522 . S
C839 C174 1.523 . S
C844 C185 1.531 1_556 S
C855 C216 1.523 . S
C860 C205 1.521 . S
C871 C227 1.494 . S
C876 C217 1.472 1_554 S
C887 C248 1.500 . S
C892 C258 1.519 . S
C903 C309 1.484 1_556 S
C908 C298 1.470 . S
C919 C340 1.489 . S
C924 C329 1.480 . S
C935 C341 1.518 . S
C940 C351 1.511 1_554 S
C951 C402 1.501 . S
C956 C391 1.479 . S
C967 C403 1.513 1_554 S
C972 C413 1.527 . S
C983 C464 1.517 . S
C988 C453 1.497 . S
C999 C465 1.526 . S
C1004 C475 1.531 1_556 S
C1015 C1 0.731 . S
C1020 C392 0.730 . S
C1031 C175 0.930 . S
C1036 C60 0.927 . S
C1047 C91 0.912 . S
C1052 C454 0.918 . S
C1063 C94 0.739 . S
C1068 C218 0.739 . S
C1079 C144 0.818 . S
C1084 C249 0.818 . S
C1095 C206 0.927 . S
C1100 C339 0.922 . S
C1111 C404 0.793 1_565 S
C1116 C308 0.787 . S
C1127 C466 0.796 1_545 S
C1132 C342 0.796 1_565 S
C1143 C123 1.660 . S
C1148 C29 1.961 . S
C1159 C32 1.799 . S
C1164 C30 1.493 . S
C1175 C63 1.796 . S
C1180 C31 1.767 . S
C1191 C122 2.005 . S
C1196 C62 1.870 . S
C1207 C247 1.679 . S
C1212 C126 1.974 . S
C1223 C157 2.038 . S
C1228 C134 1.766 . S
C1239 C165 1.720 . S
C1244 C188 2.009 . S
C1255 C196 1.662 1_556 S
C1260 C246 1.955 . S
C1271 C277 1.931 . S
C1276 C371 1.764 . S
C1287 C280 1.757 . S
C1292 C278 1.594 . S
C1303 C279 1.767 . S
C1308 C311 1.795 . S
C1319 C310 1.929 . S
C1324 C370 1.972 . S
C1335 C374 1.975 . S
C1340 C495 1.718 . S
C1351 C432 2.000 . S
C1356 C382 1.847 . S
C1367 C436 1.983 . S
C1372 C433 1.764 . S
C1383 C444 1.675 . S
C1388 C494 1.953 . S
C1399 C2 0.936 . S
C1404 C401 0.937 . S
C1415 C51 0.761 . S
C1420 C184 0.761 . S
C1431 C463 0.669 . S
C1436 C82 0.668 . S
C1447 C95 0.737 . S
C1452 C219 0.737 . S
C1463 C250 0.940 . S
C1468 C153 0.941 . S
C1479 C330 0.768 . S
C1484 C215 0.763 . S
C1495 C299 0.733 . S
C1500 C405 0.695 . S
C1511 C467 0.707 . S
C1516 C343 0.706 . S
