# Generated by pormake.
# Topology umc, (4)-cn, num edge types: 1
# Building blocks:
#     Node 0, Type 0, BuildingBlock: MUDLON_clean_sbu_0, # of connection points: 4
#     Node 1, Type 0, BuildingBlock: MUDLON_clean_sbu_0, # of connection points: 4
#     Node 2, Type 0, BuildingBlock: MUDLON_clean_sbu_0, # of connection points: 4
#     Node 3, Type 0, BuildingBlock: MUDLON_clean_sbu_0, # of connection points: 4
#     Node 4, Type 0, BuildingBlock: MUDLON_clean_sbu_0, # of connection points: 4
#     Node 5, Type 0, BuildingBlock: MUDLON_clean_sbu_0, # of connection points: 4
#     Node 6, Type 0, BuildingBlock: MUDLON_clean_sbu_0, # of connection points: 4
#     Node 7, Type 0, BuildingBlock: MUDLON_clean_sbu_0, # of connection points: 4
#     Node 8, Type 0, BuildingBlock: MUDLON_clean_sbu_0, # of connection points: 4
#     Node 9, Type 0, BuildingBlock: MUDLON_clean_sbu_0, # of connection points: 4
#     Node 10, Type 0, BuildingBlock: MUDLON_clean_sbu_0, # of connection points: 4
#     Node 11, Type 0, BuildingBlock: MUDLON_clean_sbu_0, # of connection points: 4
#     Node 12, Type 0, BuildingBlock: MUDLON_clean_sbu_0, # of connection points: 4
#     Node 13, Type 0, BuildingBlock: MUDLON_clean_sbu_0, # of connection points: 4
#     Node 14, Type 0, BuildingBlock: MUDLON_clean_sbu_0, # of connection points: 4
#     Node 15, Type 0, BuildingBlock: MUDLON_clean_sbu_0, # of connection points: 4
#     Edge 16, Type (0, 0), BuildingBlock: TEMPAE_clean_linker_10, # of connection points: 2
#     Edge 17, Type (0, 0), BuildingBlock: TEMPAE_clean_linker_10, # of connection points: 2
#     Edge 18, Type (0, 0), BuildingBlock: TEMPAE_clean_linker_10, # of connection points: 2
#     Edge 19, Type (0, 0), BuildingBlock: TEMPAE_clean_linker_10, # of connection points: 2
#     Edge 20, Type (0, 0), BuildingBlock: TEMPAE_clean_linker_10, # of connection points: 2
#     Edge 21, Type (0, 0), BuildingBlock: TEMPAE_clean_linker_10, # of connection points: 2
#     Edge 22, Type (0, 0), BuildingBlock: TEMPAE_clean_linker_10, # of connection points: 2
#     Edge 23, Type (0, 0), BuildingBlock: TEMPAE_clean_linker_10, # of connection points: 2
#     Edge 24, Type (0, 0), BuildingBlock: TEMPAE_clean_linker_10, # of connection points: 2
#     Edge 25, Type (0, 0), BuildingBlock: TEMPAE_clean_linker_10, # of connection points: 2
#     Edge 26, Type (0, 0), BuildingBlock: TEMPAE_clean_linker_10, # of connection points: 2
#     Edge 27, Type (0, 0), BuildingBlock: TEMPAE_clean_linker_10, # of connection points: 2
#     Edge 28, Type (0, 0), BuildingBlock: TEMPAE_clean_linker_10, # of connection points: 2
#     Edge 29, Type (0, 0), BuildingBlock: TEMPAE_clean_linker_10, # of connection points: 2
#     Edge 30, Type (0, 0), BuildingBlock: TEMPAE_clean_linker_10, # of connection points: 2
#     Edge 31, Type (0, 0), BuildingBlock: TEMPAE_clean_linker_10, # of connection points: 2
#     Edge 32, Type (0, 0), BuildingBlock: TEMPAE_clean_linker_10, # of connection points: 2
#     Edge 33, Type (0, 0), BuildingBlock: TEMPAE_clean_linker_10, # of connection points: 2
#     Edge 34, Type (0, 0), BuildingBlock: TEMPAE_clean_linker_10, # of connection points: 2
#     Edge 35, Type (0, 0), BuildingBlock: TEMPAE_clean_linker_10, # of connection points: 2
#     Edge 36, Type (0, 0), BuildingBlock: TEMPAE_clean_linker_10, # of connection points: 2
#     Edge 37, Type (0, 0), BuildingBlock: TEMPAE_clean_linker_10, # of connection points: 2
#     Edge 38, Type (0, 0), BuildingBlock: TEMPAE_clean_linker_10, # of connection points: 2
#     Edge 39, Type (0, 0), BuildingBlock: TEMPAE_clean_linker_10, # of connection points: 2
#     Edge 40, Type (0, 0), BuildingBlock: TEMPAE_clean_linker_10, # of connection points: 2
#     Edge 41, Type (0, 0), BuildingBlock: TEMPAE_clean_linker_10, # of connection points: 2
#     Edge 42, Type (0, 0), BuildingBlock: TEMPAE_clean_linker_10, # of connection points: 2
#     Edge 43, Type (0, 0), BuildingBlock: TEMPAE_clean_linker_10, # of connection points: 2
#     Edge 44, Type (0, 0), BuildingBlock: TEMPAE_clean_linker_10, # of connection points: 2
#     Edge 45, Type (0, 0), BuildingBlock: TEMPAE_clean_linker_10, # of connection points: 2
#     Edge 46, Type (0, 0), BuildingBlock: TEMPAE_clean_linker_10, # of connection points: 2
#     Edge 47, Type (0, 0), BuildingBlock: TEMPAE_clean_linker_10, # of connection points: 2
# Relax obj value: 0.000
# Max RMSD: 0.076
# Mean RMSD: 0.076
data_MOF--net-umc--node1-MUDLON_clean_sbu_0--edge1-TEMPAE_clean_linker_10
_symmetry_space_group_name_H-M    P1
_symmetry_Int_Tables_number       1
_symmetry_cell_setting            triclinic
loop_
_symmetry_equiv_pos_as_xyz
'x, y, z'
_cell_length_a     59.486448
_cell_length_b     15.113045
_cell_length_c     61.4458445
_cell_angle_alpha  90.019908
_cell_angle_beta   90.039558
_cell_angle_gamma 89.961699
loop_
_atom_site_label
_atom_site_type_symbol
_atom_site_fract_x
_atom_site_fract_y
_atom_site_fract_z
_atom_type_partial_charge
Mg0 Mg 0.38266 -0.00167 0.39332 0.0
C1 C 0.37703 0.96194 0.43929 0.0
O2 O 0.37425 0.0474 0.43656 0.0
C3 C 0.37238 6e-05 0.34671 0.0
O4 O 0.3678 0.08035 0.35357 0.0
C5 C 0.34922 0.1634 0.40237 0.0
O6 O 0.36559 0.21074 0.41077 0.0
O7 O 0.35324 0.08588 0.3953 0.0
O8 O 0.38034 0.91445 0.42245 0.0
O9 O 0.41781 0.04174 0.39245 0.0
C10 C 0.43003 0.06668 0.40833 0.0
O11 O 0.42068 0.0843 0.42719 0.0
O12 O 0.37898 0.94251 0.36052 0.0
Mg13 Mg 0.64597 0.00423 0.39031 0.0
C14 C 0.66864 0.08302 0.43002 0.0
O15 O 0.68489 0.03146 0.42308 0.0
C16 C 0.64133 0.98876 0.34387 0.0
O17 O 0.63297 0.91667 0.35266 0.0
C18 C 0.68915 0.91481 0.38219 0.0
O19 O 0.69012 0.98808 0.37074 0.0
O20 O 0.67124 0.89844 0.39288 0.0
O21 O 0.6514 0.09346 0.41798 0.0
O22 O 0.61005 0.97344 0.3919 0.0
C23 C 0.59836 0.96789 0.40918 0.0
O24 O 0.60847 0.96743 0.42819 0.0
O25 O 0.649 0.04858 0.35651 0.0
Mg26 Mg 0.38256 0.9661 0.13608 0.0
C27 C 0.37004 0.0112 0.0918 0.0
O28 O 0.36793 0.92506 0.09374 0.0
C29 C 0.37684 0.9452 0.18293 0.0
O30 O 0.37526 0.86527 0.17468 0.0
C31 C 0.33634 0.90533 0.13789 0.0
O32 O 0.33622 0.99002 0.14276 0.0
O33 O 0.3552 0.86878 0.13374 0.0
O34 O 0.37585 0.0554 0.10856 0.0
O35 O 0.41802 0.92973 0.13163 0.0
C36 C 0.4301 -0.00238 0.12769 0.0
O37 O 0.42012 0.07507 0.12652 0.0
O38 O 0.38023 0.01004 0.17004 0.0
Mg39 Mg 0.6481 0.98913 0.13291 0.0
C40 C 0.67245 0.89307 0.09592 0.0
O41 O 0.6897 0.93735 0.10359 0.0
C42 C 0.64247 0.01137 0.17933 0.0
O43 O 0.63465 0.08344 0.17004 0.0
C44 C 0.69236 0.07122 0.14052 0.0
O45 O 0.69259 -0.00132 0.1523 0.0
O46 O 0.67456 0.0898 0.12985 0.0
O47 O 0.65415 0.89341 0.10669 0.0
O48 O 0.6127 0.02964 0.12929 0.0
C49 C 0.6001 0.98925 0.11574 0.0
O50 O 0.60925 0.93233 0.10225 0.0
O51 O 0.6499 0.94963 0.16713 0.0
Mg52 Mg 0.64868 0.97507 0.63397 0.0
C53 C 0.64602 0.01778 0.58886 0.0
O54 O 0.63761 0.93845 0.59208 0.0
C55 C 0.65228 0.94701 0.67973 0.0
O56 O 0.6472 0.87159 0.67027 0.0
C57 C 0.69245 0.90105 0.62152 0.0
O58 O 0.69385 0.98567 0.61687 0.0
O59 O 0.6739 0.87115 0.62888 0.0
O60 O 0.65287 0.06084 0.60543 0.0
O61 O 0.61259 0.94511 0.63373 0.0
C62 C 0.60102 0.01606 0.63267 0.0
O63 O 0.61181 0.09181 0.63165 0.0
O64 O 0.65483 0.01497 0.66766 0.0
Mg65 Mg 0.38378 0.97489 0.63552 0.0
C66 C 0.39331 0.85433 0.59738 0.0
O67 O 0.41386 0.86547 0.60471 0.0
C68 C 0.39465 0.90359 0.68177 0.0
O69 O 0.41445 0.88449 0.67355 0.0
C70 C 0.33845 0.04517 0.63881 0.0
O71 O 0.33765 0.96462 0.64682 0.0
O72 O 0.35726 0.07405 0.63185 0.0
O73 O 0.37699 0.88298 0.6088 0.0
O74 O 0.41874 0.0168 0.63101 0.0
C75 C 0.4314 0.04747 0.64591 0.0
O76 O 0.42257 0.06828 0.66482 0.0
O77 O 0.37921 0.93181 0.66922 0.0
Mg78 Mg 0.65494 0.9894 0.89049 0.0
C79 C 0.66039 0.96414 0.9362 0.0
O80 O 0.65535 0.04743 0.93242 0.0
C81 C 0.64531 0.97563 0.84378 0.0
O82 O 0.63176 0.03798 0.85082 0.0
C83 C 0.69962 0.06162 0.88348 0.0
O84 O 0.70037 0.97985 0.87624 0.0
O85 O 0.68105 0.09082 0.89093 0.0
O86 O 0.66217 0.91241 0.91989 0.0
O87 O 0.61976 0.03012 0.89391 0.0
C88 C 0.60672 0.97419 0.90292 0.0
O89 O 0.61535 0.90091 0.91082 0.0
O90 O 0.65753 0.93462 0.85755 0.0
Mg91 Mg 0.38891 0.98501 0.891 0.0
C92 C 0.39342 0.03799 0.93557 0.0
O93 O 0.40304 0.96038 0.93303 0.0
C94 C 0.38274 0.94996 0.8455 0.0
O95 O 0.38383 0.87375 0.85573 0.0
C96 C 0.34469 0.91466 0.90452 0.0
O97 O 0.34353 -0.00115 0.9097 0.0
O98 O 0.36302 0.88461 0.89672 0.0
O99 O 0.38485 0.07508 0.91886 0.0
O100 O 0.42446 0.94732 0.89234 0.0
C101 C 0.43729 0.01368 0.89545 0.0
O102 O 0.42814 0.09249 0.89727 0.0
O103 O 0.384 0.0207 0.85679 0.0
Mg104 Mg 0.88138 0.5097 0.39023 0.0
C105 C 0.86823 0.46105 0.43418 0.0
O106 O 0.86433 0.54621 0.43225 0.0
C107 C 0.87383 0.52436 0.34328 0.0
O108 O 0.87096 0.60494 0.35079 0.0
C109 C 0.8349 0.57016 0.38837 0.0
O110 O 0.83467 0.48549 0.38348 0.0
O111 O 0.85379 0.60632 0.39255 0.0
O112 O 0.87573 0.41945 0.41766 0.0
O113 O 0.91671 0.54947 0.39359 0.0
C114 C 0.93015 0.4929 0.38531 0.0
O115 O 0.92156 0.42321 0.3756 0.0
O116 O 0.8785 0.46247 0.35664 0.0
Mg117 Mg 0.14848 0.50092 0.39419 0.0
C118 C 0.17089 0.59535 0.43232 0.0
O119 O 0.18856 0.55327 0.42477 0.0
C120 C 0.143 0.47849 0.34766 0.0
O121 O 0.13522 0.40641 0.35694 0.0
C122 C 0.19312 0.42251 0.38681 0.0
O123 O 0.19244 0.49263 0.37421 0.0
O124 O 0.17565 0.40318 0.39787 0.0
O125 O 0.1529 0.59506 0.42105 0.0
O126 O 0.11302 0.4629 0.39763 0.0
C127 C 0.10023 0.52573 0.39133 0.0
O128 O 0.10968 0.59885 0.38425 0.0
O129 O 0.15039 0.54028 0.35986 0.0
Mg130 Mg 0.88344 0.48988 0.13312 0.0
C131 C 0.86368 0.59026 0.09437 0.0
O132 O 0.84503 0.55356 0.10133 0.0
C133 C 0.87677 0.47162 0.17976 0.0
O134 O 0.87569 0.391 0.17183 0.0
C135 C 0.83729 0.42177 0.1371 0.0
O136 O 0.83701 0.50013 0.14638 0.0
O137 O 0.85581 0.39415 0.12908 0.0
O138 O 0.88136 0.58317 0.10593 0.0
O139 O 0.91858 0.44744 0.13265 0.0
C140 C 0.93035 0.4394 0.11546 0.0
O141 O 0.92043 0.44194 0.09637 0.0
O142 O 0.87996 0.53593 0.16669 0.0
Mg143 Mg 0.14646 0.47849 0.13649 0.0
C144 C 0.16966 0.39284 0.09767 0.0
O145 O 0.18669 0.4386 0.1053 0.0
C146 C 0.14178 0.49655 0.18297 0.0
O147 O 0.13345 0.56831 0.17397 0.0
C148 C 0.18978 0.56689 0.14432 0.0
O149 O 0.19051 0.4947 0.15619 0.0
O150 O 0.17195 0.58306 0.13345 0.0
O151 O 0.15176 0.38835 0.10899 0.0
O152 O 0.11051 0.50885 0.13454 0.0
C153 C 0.09912 0.52571 0.11749 0.0
O154 O 0.10953 0.53879 0.09893 0.0
O155 O 0.1494 0.43602 0.1705 0.0
Mg156 Mg 0.1513 0.48669 0.63777 0.0
C157 C 0.15539 0.5149 0.59188 0.0
O158 O 0.14939 0.4324 0.59536 0.0
C159 C 0.14237 0.5494 0.68443 0.0
O160 O 0.12152 0.55401 0.67747 0.0
C161 C 0.19556 0.40806 0.64066 0.0
O162 O 0.19759 0.49054 0.64713 0.0
O163 O 0.17615 0.38054 0.63501 0.0
O164 O 0.15815 0.56484 0.6084 0.0
O165 O 0.11545 0.4527 0.63656 0.0
C166 C 0.10267 0.50897 0.62726 0.0
O167 O 0.11175 0.57932 0.61834 0.0
O168 O 0.15803 0.5343 0.67081 0.0
Mg169 Mg 0.88429 0.49891 0.63438 0.0
C170 C 0.88984 0.44501 0.59008 0.0
O171 O 0.89914 0.5232 0.59262 0.0
C172 C 0.88384 0.52622 0.68008 0.0
O173 O 0.88902 0.6011 0.67043 0.0
C174 C 0.83957 0.56592 0.62148 0.0
O175 O 0.83908 0.48196 0.61598 0.0
O176 O 0.8577 0.59743 0.62942 0.0
O177 O 0.88098 0.40836 0.60666 0.0
O178 O 0.91978 0.53871 0.63354 0.0
C179 C 0.93288 0.47257 0.63117 0.0
O180 O 0.92399 0.39329 0.62955 0.0
O181 O 0.87985 0.45896 0.66815 0.0
Mg182 Mg 0.15512 0.49765 0.89181 0.0
C183 C 0.15565 0.46669 0.93772 0.0
O184 O 0.14941 0.54874 0.93396 0.0
C185 C 0.1468 0.42934 0.84555 0.0
O186 O 0.12645 0.41532 0.85307 0.0
C187 C 0.1992 0.57086 0.9025 0.0
O188 O 0.20078 0.48581 0.90663 0.0
O189 O 0.18043 0.60143 0.89584 0.0
O190 O 0.15987 0.4175 0.92135 0.0
O191 O 0.11947 0.53455 0.89244 0.0
C192 C 0.10653 0.47453 0.8999 0.0
O193 O 0.11548 0.39984 0.90659 0.0
O194 O 0.16228 0.4521 0.85873 0.0
Mg195 Mg 0.88871 0.48715 0.89029 0.0
C196 C 0.88392 0.51545 0.93578 0.0
O197 O 0.88983 0.43279 0.93233 0.0
C198 C 0.89597 0.49319 0.8437 0.0
O199 O 0.90785 0.42587 0.85084 0.0
C200 C 0.84434 0.41222 0.88339 0.0
O201 O 0.84337 0.4936 0.87593 0.0
O202 O 0.86296 0.38428 0.89104 0.0
O203 O 0.88143 0.56563 0.91929 0.0
O204 O 0.92415 0.45013 0.89346 0.0
C205 C 0.93679 0.51254 0.90014 0.0
O206 O 0.92753 0.5885 0.90542 0.0
O207 O 0.88558 0.54104 0.8575 0.0
C208 C 0.37927 0.98582 0.47928 0.0
C209 C 0.37802 0.92614 0.46181 0.0
C210 C 0.38098 0.95648 0.50082 0.0
C211 C 0.38112 0.86462 0.50528 0.0
C212 C 0.37944 0.8035 0.48782 0.0
C213 C 0.3781 0.835 0.46621 0.0
C214 C 0.38301 0.02437 0.5188 0.0
C215 C 0.37917 0.70516 0.49198 0.0
C216 C 0.40831 0.82472 0.56003 0.0
C217 C 0.38975 0.83204 0.57403 0.0
C218 C 0.40561 0.82669 0.53732 0.0
C219 C 0.38378 0.83487 0.52833 0.0
C220 C 0.36486 0.83224 0.54231 0.0
C221 C 0.36806 0.83144 0.56501 0.0
C222 C 0.4263 0.8296 0.52312 0.0
C223 C 0.34126 0.83866 0.53343 0.0
H224 H 0.37934 0.05639 0.47616 0.0
H225 H 0.37707 0.78847 0.45283 0.0
H226 H 0.36898 0.01662 0.53053 0.0
H227 H 0.39892 0.0141 0.52789 0.0
H228 H 0.38277 0.09333 0.51255 0.0
H229 H 0.37633 0.66652 0.47684 0.0
H230 H 0.39539 0.68426 0.49924 0.0
H231 H 0.36578 0.68853 0.50386 0.0
H232 H 0.42516 0.8241 0.56675 0.0
H233 H 0.35356 0.83583 0.57564 0.0
H234 H 0.42904 0.8985 0.51746 0.0
H235 H 0.42415 0.7875 0.5085 0.0
H236 H 0.44158 0.80763 0.53203 0.0
H237 H 0.33767 0.90829 0.52887 0.0
H238 H 0.32857 0.81748 0.54561 0.0
H239 H 0.33936 0.7976 0.51857 0.0
C240 C 0.64109 -0.00315 0.54896 0.0
C241 C 0.64866 0.05033 0.56615 0.0
C242 C 0.64484 0.02003 0.52721 0.0
C243 C 0.65624 0.09966 0.52226 0.0
C244 C 0.6631 0.15627 0.53946 0.0
C245 C 0.65936 0.13064 0.56126 0.0
C246 C 0.63727 0.95715 0.50951 0.0
C247 C 0.67491 0.24251 0.53485 0.0
C248 C 0.68487 0.07883 0.46757 0.0
C249 C 0.66794 0.10866 0.45342 0.0
C250 C 0.68214 0.08267 0.49025 0.0
C251 C 0.66213 0.11858 0.49909 0.0
C252 C 0.64607 0.15734 0.48495 0.0
C253 C 0.64906 0.15132 0.46226 0.0
C254 C 0.69969 0.0401 0.50461 0.0
C255 C 0.6248 0.19855 0.49368 0.0
H256 H 0.63263 0.93497 0.55244 0.0
H257 H 0.66518 0.17259 0.57441 0.0
H258 H 0.62602 0.99179 0.4979 0.0
H259 H 0.65206 0.93328 0.5002 0.0
H260 H 0.62819 0.89879 0.51608 0.0
H261 H 0.67601 0.28503 0.54957 0.0
H262 H 0.69222 0.22895 0.52902 0.0
H263 H 0.66608 0.27953 0.5218 0.0
H264 H 0.69967 0.04665 0.46099 0.0
H265 H 0.63599 0.17562 0.45152 0.0
H266 H 0.69306 0.97663 0.51104 0.0
H267 H 0.70361 0.08295 0.51876 0.0
H268 H 0.71552 0.02621 0.49564 0.0
H269 H 0.61283 0.14553 0.4983 0.0
H270 H 0.61654 0.24157 0.48139 0.0
H271 H 0.62835 0.23828 0.50848 0.0
C272 C 0.35773 0.00181 0.05329 0.0
C273 C 0.3685 0.0504 0.06971 0.0
C274 C 0.36025 0.02385 0.0313 0.0
C275 C 0.37375 0.09721 0.02544 0.0
C276 C 0.38269 0.15227 0.04203 0.0
C277 C 0.38008 0.12791 0.06406 0.0
C278 C 0.35025 0.96311 0.01431 0.0
C279 C 0.39646 0.23293 0.03654 0.0
C280 C 0.40545 0.04097 0.97418 0.0
C281 C 0.39104 0.07341 0.95796 0.0
C282 C 0.40102 0.05523 0.99627 0.0
C283 C 0.38174 0.1041 1.00246 0.0
C284 C 0.36839 0.14487 0.98613 0.0
C285 C 0.37313 0.12863 0.96397 0.0
C286 C 0.41588 0.0106 1.01296 0.0
C287 C 0.34817 0.20011 0.992 0.0
H288 H 0.34835 0.94279 0.05755 0.0
H289 H 0.38831 0.1663 0.07666 0.0
H290 H 0.34112 0.0018 1.00179 0.0
H291 H 0.36394 0.92645 1.00597 0.0
H292 H 0.33846 0.91418 0.02149 0.0
H293 H 0.39696 0.28035 0.05035 0.0
H294 H 0.41396 0.21253 0.03285 0.0
H295 H 0.38966 0.2671 0.02197 0.0
H296 H 0.41961 -0.00029 0.96963 0.0
H297 H 0.362 0.15449 0.95152 0.0
H298 H 0.40638 0.95657 0.02102 0.0
H299 H 0.421 0.05826 0.02574 0.0
H300 H 0.43128 0.98183 1.00557 0.0
H301 H 0.33366 0.156 0.99525 0.0
H302 H 0.34346 0.24552 0.97853 0.0
H303 H 0.35134 0.2396 1.00692 0.0
C304 C 0.66074 -0.00403 0.97596 0.0
C305 C 0.66318 0.934 0.95909 0.0
C306 C 0.66291 0.97156 0.99783 0.0
C307 C 0.6677 0.88251 1.00325 0.0
C308 C 0.67021 0.81912 0.98639 0.0
C309 C 0.66791 0.84561 0.96445 0.0
C310 C 0.66008 0.0417 0.01518 0.0
C311 C 0.67532 0.72364 0.99154 0.0
C312 C 0.69198 0.87477 0.0601 0.0
C313 C 0.67244 0.86516 0.07268 0.0
C314 C 0.69112 0.87144 0.03725 0.0
C315 C 0.67021 0.85824 0.0267 0.0
C316 C 0.65091 0.83916 0.03935 0.0
C317 C 0.65226 0.84265 0.06219 0.0
C318 C 0.7122 0.8911 0.02448 0.0
C319 C 0.62831 0.8239 0.02884 0.0
H320 H 0.65708 0.06446 0.97211 0.0
H321 H 0.66978 0.79725 0.95155 0.0
H322 H 0.64626 0.02303 0.02639 0.0
H323 H 0.67567 0.04702 0.025 0.0
H324 H 0.65623 0.10785 1.00823 0.0
H325 H 0.67658 0.68228 0.97664 0.0
H326 H 0.6914 0.71895 1.00063 0.0
H327 H 0.66201 0.69596 1.00218 0.0
H328 H 0.70776 0.89087 0.068 0.0
H329 H 0.63709 0.83397 0.07171 0.0
H330 H 0.71154 0.96033 0.01849 0.0
H331 H 0.71354 0.84716 1.01008 0.0
H332 H 0.72757 0.88332 0.03458 0.0
H333 H 0.62135 0.8882 0.02328 0.0
H334 H 0.61613 0.79364 0.04034 0.0
H335 H 0.62991 0.78056 0.01435 0.0
C336 C 0.87124 0.34782 0.56192 0.0
C337 C 0.88811 0.40813 0.56779 0.0
C338 C 0.867 0.32856 0.53983 0.0
C339 C 0.87972 0.37166 0.52343 0.0
C340 C 0.89806 0.42598 0.52951 0.0
C341 C 0.90208 0.44296 0.55155 0.0
C342 C 0.84789 0.26737 0.53409 0.0
C343 C 0.91222 0.4733 0.51273 0.0
C344 C 0.87943 0.34637 0.46199 0.0
C345 C 0.8667 0.42083 0.45613 0.0
C346 C 0.88193 0.3225 0.48405 0.0
C347 C 0.87174 0.37517 0.50042 0.0
C348 C 0.85704 0.44453 0.4943 0.0
C349 C 0.85461 0.46597 0.47227 0.0
C350 C 0.89691 0.24554 0.48985 0.0
C351 C 0.84566 0.50245 0.51106 0.0
H352 H 0.86052 0.31985 0.57441 0.0
H353 H 0.91549 0.48804 0.556 0.0
H354 H 0.83247 0.30689 0.53113 0.0
H355 H 0.85161 0.22923 0.51908 0.0
H356 H 0.84432 0.2204 0.54756 0.0
H357 H 0.92694 0.50721 0.52011 0.0
H358 H 0.9184 0.42608 0.5003 0.0
H359 H 0.90181 0.52362 0.50425 0.0
H360 H 0.88861 0.3104 0.44958 0.0
H361 H 0.8443 0.52233 0.46781 0.0
H362 H 0.89056 0.21028 0.50444 0.0
H363 H 0.91403 0.27025 0.49362 0.0
H364 H 0.89827 0.19789 0.47614 0.0
H365 H 0.83704 0.46142 0.52345 0.0
H366 H 0.83312 0.5479 0.50364 0.0
H367 H 0.85849 0.54293 0.51961 0.0
C368 C 0.15603 0.48478 0.55203 0.0
C369 C 0.15844 0.54593 0.56908 0.0
C370 C 0.1586 0.50989 0.53024 0.0
C371 C 0.16371 0.59891 0.52509 0.0
C372 C 0.16612 0.66154 0.54214 0.0
C373 C 0.16349 0.63428 0.56399 0.0
C374 C 0.15593 0.44049 0.51269 0.0
C375 C 0.17149 0.75702 0.53728 0.0
C376 C 0.18938 0.60955 0.4688 0.0
C377 C 0.17019 0.62059 0.45575 0.0
C378 C 0.18793 0.61089 0.49164 0.0
C379 C 0.16678 0.62388 0.50173 0.0
C380 C 0.14781 0.64413 0.48867 0.0
C381 C 0.14973 0.64222 0.46584 0.0
C382 C 0.20865 0.58963 0.50484 0.0
C383 C 0.12499 0.65949 0.49869 0.0
H384 H 0.15215 0.4163 0.55566 0.0
H385 H 0.16534 0.68203 0.57703 0.0
H386 H 0.14234 0.46002 0.50129 0.0
H387 H 0.17168 0.43501 0.50312 0.0
H388 H 0.15185 0.37422 0.51943 0.0
H389 H 0.17238 0.79794 0.55228 0.0
H390 H 0.18782 0.76153 0.52865 0.0
H391 H 0.15852 0.78532 0.52633 0.0
H392 H 0.20536 0.59394 0.46124 0.0
H393 H 0.13482 0.65178 0.45597 0.0
H394 H 0.20761 0.52029 0.5107 0.0
H395 H 0.20981 0.63307 0.51934 0.0
H396 H 0.22427 0.59681 0.49511 0.0
H397 H 0.11783 0.59515 0.50393 0.0
H398 H 0.11313 0.69056 0.487 0.0
H399 H 0.12633 0.70219 0.51332 0.0
C400 C 0.87584 0.63519 0.96348 0.0
C401 C 0.88047 0.54639 0.95848 0.0
C402 C 0.8728 0.66254 0.98525 0.0
C403 C 0.87429 0.59944 1.00227 0.0
C404 C 0.879 0.50997 0.99721 0.0
C405 C 0.88206 0.48481 0.9755 0.0
C406 C 0.86794 0.75855 0.99005 0.0
C407 C 0.88068 0.44011 0.01476 0.0
C408 C 0.88637 0.63772 0.06196 0.0
C409 C 0.8654 0.61772 0.0712 0.0
C410 C 0.88912 0.64144 0.03925 0.0
C411 C 0.87051 0.6243 0.02548 0.0
C412 C 0.8489 0.61334 0.03475 0.0
C413 C 0.8466 0.61053 0.05748 0.0
C414 C 0.9124 0.65496 0.03008 0.0
C415 C 0.82855 0.59511 0.02076 0.0
H416 H 0.87467 0.68323 0.95044 0.0
H417 H 0.88562 0.41601 0.9719 0.0
H418 H 0.85121 0.76493 0.99786 0.0
H419 H 0.88052 0.78487 1.00171 0.0
H420 H 0.86817 0.79997 0.97512 0.0
H421 H 0.8845 0.37348 1.00808 0.0
H422 H 0.89406 0.45798 0.02655 0.0
H423 H 0.86462 0.4363 0.0239 0.0
H424 H 0.90099 0.64452 0.07237 0.0
H425 H 0.83024 0.59634 0.06442 0.0
H426 H 0.91187 0.69782 0.01543 0.0
H427 H 0.91945 0.59005 0.02509 0.0
H428 H 0.92393 0.68498 0.04224 0.0
H429 H 0.82826 0.63919 1.00634 0.0
H430 H 0.81262 0.6038 0.02994 0.0
H431 H 0.8293 0.52589 0.01476 0.0
C432 C 0.14928 0.34105 0.06412 0.0
C433 C 0.16935 0.36758 0.07424 0.0
C434 C 0.14748 0.33791 0.04128 0.0
C435 C 0.16615 0.36212 0.02826 0.0
C436 C 0.18701 0.38053 0.03842 0.0
C437 C 0.18836 0.38282 0.06125 0.0
C438 C 0.12499 0.31665 0.03118 0.0
C439 C 0.20739 0.40642 0.02526 0.0
C440 C 0.16419 0.34921 0.96599 0.0
C441 C 0.15795 0.43615 0.96064 0.0
C442 C 0.16659 0.32298 0.98794 0.0
C443 C 0.16282 0.38532 1.00483 0.0
C444 C 0.15635 0.47272 0.99942 0.0
C445 C 0.15396 0.49674 0.97753 0.0
C446 C 0.17334 0.22906 0.99307 0.0
C447 C 0.15222 0.54179 0.01678 0.0
H448 H 0.13451 0.32831 0.07394 0.0
H449 H 0.20405 0.40229 0.06885 0.0
H450 H 0.11679 0.37894 0.02583 0.0
H451 H 0.12708 0.27405 0.01662 0.0
H452 H 0.11363 0.28294 0.04288 0.0
H453 H 0.22305 0.40416 0.03511 0.0
H454 H 0.20941 0.36237 1.01096 0.0
H455 H 0.20517 0.47488 0.01909 0.0
H456 H 0.16725 0.30188 0.95307 0.0
H457 H 0.14912 0.5641 0.9737 0.0
H458 H 0.16103 0.19888 1.00442 0.0
H459 H 0.1899 0.22858 1.00137 0.0
H460 H 0.17446 0.18735 0.97822 0.0
H461 H 0.13885 0.51905 0.02804 0.0
H462 H 0.14708 0.6066 1.00984 0.0
H463 H 0.1677 0.55176 0.02655 0.0
C464 C 0.55957 0.94061 0.42381 0.0
C465 C 0.57357 0.97786 0.40794 0.0
C466 C 0.53616 0.95447 0.42336 0.0
C467 C 0.52662 0.00981 0.40714 0.0
C468 C 0.54076 0.04811 0.39118 0.0
C469 C 0.56396 0.0304 0.39155 0.0
C470 C 0.52162 0.90981 0.44021 0.0
C471 C 0.53147 0.1097 0.37404 0.0
C472 C 0.46426 0.99167 0.3936 0.0
C473 C 0.45484 0.05791 0.40678 0.0
C474 C 0.4875 0.97481 0.39374 0.0
C475 C 0.50187 0.02744 0.40679 0.0
C476 C 0.49253 0.09652 0.41956 0.0
C477 C 0.46909 0.10978 0.41972 0.0
C478 C 0.49659 0.89879 0.38042 0.0
C479 C 0.50729 0.15615 0.43312 0.0
H480 H 0.56693 0.90002 0.4365 0.0
H481 H 0.57474 0.06058 0.37943 0.0
H482 H 0.51327 0.96031 0.45051 0.0
H483 H 0.50817 0.87102 0.4321 0.0
H484 H 0.53143 0.86484 0.45091 0.0
H485 H 0.54479 0.13593 0.36314 0.0
H486 H 0.51881 0.07479 0.36396 0.0
H487 H 0.52282 0.16627 0.38195 0.0
H488 H 0.45331 0.95028 0.38383 0.0
H489 H 0.46188 0.16091 0.42995 0.0
H490 H 0.5053 0.85098 0.39123 0.0
H491 H 0.50916 0.92319 0.36854 0.0
H492 H 0.48315 0.86325 0.3714 0.0
H493 H 0.51575 0.11705 0.44602 0.0
H494 H 0.49763 0.2104 0.44096 0.0
H495 H 0.52065 0.18567 0.42283 0.0
C496 C 0.46651 0.06585 0.11641 0.0
C497 C 0.45494 -0.00717 0.12505 0.0
C498 C 0.49003 0.06636 0.11465 0.0
C499 C 0.50252 0.99234 0.1219 0.0
C500 C 0.491 0.91791 0.13048 0.0
C501 C 0.46732 0.91879 0.13184 0.0
C502 C 0.50152 0.14654 0.10509 0.0
C503 C 0.50372 0.83788 0.1385 0.0
C504 C 0.56192 0.96213 0.09989 0.0
C505 C 0.57517 -0.00359 0.11683 0.0
C506 C 0.53834 0.96054 0.10132 0.0
C507 C 0.52762 -0.00694 0.12028 0.0
C508 C 0.54088 0.02859 0.13737 0.0
C509 C 0.56447 0.03039 0.13539 0.0
C510 C 0.52489 0.92364 0.08254 0.0
C511 C 0.53014 0.06357 0.1579 0.0
H512 H 0.45713 0.12327 0.11098 0.0
H513 H 0.45856 0.86234 0.13863 0.0
H514 H 0.51309 0.17601 0.11726 0.0
H515 H 0.51183 0.1268 0.09085 0.0
H516 H 0.48936 0.1981 0.09983 0.0
H517 H 0.49235 0.7855 0.14478 0.0
H518 H 0.51401 0.80973 0.12513 0.0
H519 H 0.51546 0.85755 0.15169 0.0
H520 H 0.57001 0.9358 0.08547 0.0
H521 H 0.57455 0.05617 0.14865 0.0
H522 H 0.51301 0.97447 0.07641 0.0
H523 H 0.51472 0.86649 0.08811 0.0
H524 H 0.53575 0.90173 0.06886 0.0
H525 H 0.51853 0.11868 0.1539 0.0
H526 H 0.54277 0.08777 0.16982 0.0
H527 H 0.51999 0.01078 0.16568 0.0
C528 C 0.56438 0.09537 0.62886 0.0
C529 C 0.57601 0.01631 0.63315 0.0
C530 C 0.54087 0.10006 0.63022 0.0
C531 C 0.52848 0.02394 0.63614 0.0
C532 C 0.54003 0.94337 0.64017 0.0
C533 C 0.56367 0.94039 0.63855 0.0
C534 C 0.5293 0.18711 0.62561 0.0
C535 C 0.52742 0.86081 0.64659 0.0
C536 C 0.47053 0.06334 0.66074 0.0
C537 C 0.45625 0.04635 0.64303 0.0
C538 C 0.494 0.05514 0.65879 0.0
C539 C 0.50352 0.02985 0.63859 0.0
C540 C 0.48924 0.01365 0.62058 0.0
C541 C 0.46581 0.02188 0.62302 0.0
C542 C 0.5086 0.07312 0.67841 0.0
C543 C 0.4987 0.98746 0.59871 0.0
H544 H 0.57369 0.1544 0.62453 0.0
H545 H 0.57249 0.87915 0.64194 0.0
H546 H 0.51653 0.17848 0.61262 0.0
H547 H 0.52034 0.21021 0.64039 0.0
H548 H 0.54129 0.23944 0.62048 0.0
H549 H 0.53874 0.80287 0.64858 0.0
H550 H 0.51842 0.87222 0.66215 0.0
H551 H 0.51456 0.84475 0.63412 0.0
H552 H 0.46337 0.08163 0.67632 0.0
H553 H 0.45497 0.00826 0.60924 0.0
H554 H 0.52028 0.12849 0.67489 0.0
H555 H 0.51903 0.01411 0.68213 0.0
H556 H 0.49859 0.09027 0.69307 0.0
H557 H 0.51013 0.03994 0.59266 0.0
H558 H 0.48533 0.97623 0.58637 0.0
H559 H 0.50879 0.92607 0.60032 0.0
C560 C 0.56879 0.94026 0.91806 0.0
C561 C 0.58199 0.98572 0.90281 0.0
C562 C 0.54522 0.94394 0.91729 0.0
C563 C 0.53452 0.9927 0.90055 0.0
C564 C 0.54776 0.0392 0.88516 0.0
C565 C 0.57136 0.03597 0.88662 0.0
C566 C 0.53177 0.89537 0.93435 0.0
C567 C 0.537 0.09092 0.8669 0.0
C568 C 0.47357 0.93495 0.8873 0.0
C569 C 0.46202 0.00467 0.89734 0.0
C570 C 0.49722 0.93059 0.888 0.0
C571 C 0.50947 -0.00366 0.89945 0.0
C572 C 0.49777 0.0655 0.91006 0.0
C573 C 0.47426 0.06932 0.90867 0.0
C574 C 0.50911 0.85655 0.8762 0.0
C575 C 0.51009 0.13561 0.9229 0.0
H576 H 0.57693 0.90151 0.93065 0.0
H577 H 0.58149 0.07032 0.87465 0.0
H578 H 0.52036 0.94211 0.94285 0.0
H579 H 0.52109 0.84432 0.92652 0.0
H580 H 0.54265 0.86262 0.94665 0.0
H581 H 0.54964 0.12206 0.85603 0.0
H582 H 0.52617 0.04656 0.85704 0.0
H583 H 0.52603 0.14356 0.87366 0.0
H584 H 0.46419 0.88524 0.8784 0.0
H585 H 0.46539 0.12302 0.91663 0.0
H586 H 0.51927 0.81722 0.88785 0.0
H587 H 0.52089 0.88447 0.864 0.0
H588 H 0.49721 0.81151 0.86775 0.0
H589 H 0.52054 0.10415 0.93572 0.0
H590 H 0.49845 0.18344 0.93075 0.0
H591 H 0.52163 0.17269 0.91206 0.0
C592 C 0.96523 0.55428 0.40281 0.0
C593 C 0.955 0.50138 0.38687 0.0
C594 C 0.98884 0.55707 0.40493 0.0
C595 C 1.00252 0.50708 0.39054 0.0
C596 C 0.99221 0.45456 0.37428 0.0
C597 C 0.96868 0.45186 0.37277 0.0
C598 C 0.99916 0.61319 0.42262 0.0
C599 C 1.00607 0.40176 0.35828 0.0
C600 C 0.06255 0.58117 0.37969 0.0
C601 C 0.07527 0.51911 0.39146 0.0
C602 C 0.03897 0.5785 0.3795 0.0
C603 C 0.02761 0.51276 0.39162 0.0
C604 C 0.04028 0.45028 0.40376 0.0
C605 C 0.06399 0.45373 0.4034 0.0
C606 C 0.02624 0.64532 0.36598 0.0
C607 C 0.02879 0.37969 0.41707 0.0
H608 H 0.95479 0.59203 0.41389 0.0
H609 H 0.96095 0.41105 0.36034 0.0
H610 H 1.01021 0.5719 0.43305 0.0
H611 H 1.00983 0.66542 0.41529 0.0
H612 H 0.98626 0.64529 0.43304 0.0
H613 H 0.99548 0.36375 0.34668 0.0
H614 H 0.0171 0.44678 0.34884 0.0
H615 H 0.01713 0.35479 0.3671 0.0
H616 H 0.07106 0.63178 0.3703 0.0
H617 H 0.07366 0.40593 0.41265 0.0
H618 H 1.01434 0.68279 0.37638 0.0
H619 H 1.01615 0.6107 0.35339 0.0
H620 H 0.03757 0.69313 0.35775 0.0
H621 H 1.01674 0.41054 0.42857 0.0
H622 H 0.04094 0.33892 0.42646 0.0
H623 H 0.019 0.33544 0.40622 0.0
C624 C 0.06049 0.56471 0.10397 0.0
C625 C 0.0743 0.51581 0.118 0.0
C626 C 0.03701 0.55251 0.10386 0.0
C627 C 0.02721 0.4873 0.11749 0.0
C628 C 0.04119 0.43696 0.13147 0.0
C629 C 0.06446 0.45295 0.13184 0.0
C630 C 0.02267 0.60978 0.08928 0.0
C631 C 0.03162 0.36482 0.14571 0.0
C632 C 0.96515 0.50059 0.13252 0.0
C633 C 0.9552 0.44562 0.11684 0.0
C634 C 0.98846 0.51572 0.1327 0.0
C635 C 1.00235 0.47222 0.11733 0.0
C636 C 0.99245 0.41426 0.10189 0.0
C637 C 0.96894 0.40317 0.10154 0.0
C638 C 0.99814 0.5803 0.14896 0.0
C639 C 1.00669 0.36399 0.08575 0.0
H640 H 0.06804 0.6133 0.09325 0.0
H641 H 0.0751 0.4139 0.14248 0.0
H642 H 1.01387 0.56814 0.0771 0.0
H643 H 1.00957 0.64382 0.09906 0.0
H644 H 0.03272 0.66045 0.08052 0.0
H645 H 0.04486 0.32932 0.15503 0.0
H646 H 0.0194 0.39324 0.1574 0.0
H647 H 0.02239 0.31614 0.13556 0.0
H648 H 0.95455 0.53487 0.14415 0.0
H649 H 0.96129 0.36082 0.08937 0.0
H650 H 1.00721 0.63385 0.14026 0.0
H651 H 1.01054 0.54648 0.15957 0.0
H652 H 0.985 0.61065 0.15941 0.0
H653 H 1.0153 0.41093 0.07469 0.0
H654 H 0.99659 0.31731 0.07577 0.0
H655 H 0.01993 0.3261 0.09443 0.0
C656 C 0.97038 0.4167 0.61947 0.0
C657 C 0.95766 0.48211 0.63003 0.0
C658 C 0.99394 0.42073 0.61888 0.0
C659 C 1.0052 0.49097 0.62951 0.0
C660 C 0.99246 0.55747 0.64019 0.0
C661 C 0.9688 0.55282 0.64011 0.0
C662 C 1.00676 0.34972 0.60682 0.0
C663 C 1.00386 0.6327 0.65199 0.0
C664 C 0.06686 0.45203 0.64382 0.0
C665 C 0.07784 0.50006 0.62746 0.0
C666 C 0.04322 0.44985 0.64495 0.0
C667 C 0.03028 0.49514 0.62906 0.0
C668 C 0.04134 0.54219 0.61228 0.0
C669 C 0.06493 0.54483 0.61183 0.0
C670 C 0.03208 0.39999 0.66328 0.0
C671 C 0.02825 0.58946 0.5947 0.0
H672 H 0.96187 0.36217 0.6115 0.0
H673 H 0.95904 0.6031 0.64843 0.0
H674 H 0.01752 0.38021 0.59412 0.0
H675 H 0.01805 0.31403 0.6182 0.0
H676 H 0.99545 0.30082 0.59892 0.0
H677 H 0.99161 0.67812 0.65984 0.0
H678 H 1.0153 0.60604 0.66466 0.0
H679 H 1.0143 0.67134 0.64046 0.0
H680 H 0.07675 0.41819 0.65609 0.0
H681 H 0.07331 0.58185 0.59909 0.0
H682 H 0.02147 0.34609 0.6566 0.0
H683 H 0.02084 0.44504 0.6725 0.0
H684 H 0.04449 0.37071 0.67473 0.0
H685 H 0.01725 0.5418 0.58602 0.0
H686 H 0.03938 0.62211 0.58263 0.0
H687 H 0.01718 0.64037 0.60207 0.0
C688 C 0.06905 0.43258 0.91473 0.0
C689 C 0.08176 0.48492 0.90045 0.0
C690 C 0.04549 0.43658 0.91489 0.0
C691 C 0.03424 0.49313 0.90011 0.0
C692 C 0.04696 0.54649 0.88567 0.0
C693 C 0.07062 0.54243 0.88617 0.0
C694 C 0.03263 0.38012 0.93089 0.0
C695 C 0.03558 0.60678 0.86948 0.0
C696 C 0.97277 0.44053 0.888 0.0
C697 C 0.96162 0.50369 0.90076 0.0
C698 C 0.99641 0.43713 0.88736 0.0
C699 C 1.00916 0.4972 0.9001 0.0
C700 C 0.99794 0.55986 0.91332 0.0
C701 C 0.97435 0.56281 0.91335 0.0
C702 C 1.00776 0.37001 0.87285 0.0
C703 C 1.01084 0.62378 0.92751 0.0
H704 H 0.07757 0.38833 0.92591 0.0
H705 H 0.08036 0.58237 0.87496 0.0
H706 H 0.02175 0.42253 0.9412 0.0
H707 H 0.02148 0.33366 0.92202 0.0
H708 H 0.04393 0.34116 0.94165 0.0
H709 H 0.04783 0.64297 0.85916 0.0
H710 H 0.02432 0.56759 0.85877 0.0
H711 H 0.02494 0.65574 0.87814 0.0
H712 H 0.96303 0.39528 0.87807 0.0
H713 H 0.96585 0.61161 0.92332 0.0
H714 H 0.01839 0.32511 0.88277 0.0
H715 H 0.01902 0.40415 0.86117 0.0
H716 H 0.99549 0.3295 0.86356 0.0
H717 H 0.02177 0.58672 0.93897 0.0
H718 H 0.99957 0.66771 0.93707 0.0
H719 H 0.02196 0.66557 0.91732 0.0
C720 C 0.21919 0.32099 0.40749 0.0
C721 C 0.21479 0.37456 0.38934 0.0
C722 C 0.24067 0.28367 0.41076 0.0
C723 C 0.25804 0.2998 0.39545 0.0
C724 C 0.25342 0.35182 0.37683 0.0
C725 C 0.23196 0.38858 0.37406 0.0
C726 C 0.24494 0.22855 0.43082 0.0
C727 C 0.27129 0.36989 0.35994 0.0
C728 C 0.32009 0.28004 0.4105 0.0
C729 C 0.3258 0.19805 0.40132 0.0
C730 C 0.29793 0.31274 0.40933 0.0
C731 C 0.28109 0.26251 0.39864 0.0
C732 C 0.28669 0.17922 0.38963 0.0
C733 C 0.30889 0.14806 0.39109 0.0
C734 C 0.29264 0.40186 0.41918 0.0
C735 C 0.26935 0.12379 0.37794 0.0
H736 H 0.20608 0.31039 0.41944 0.0
H737 H 0.2287 0.42948 0.35991 0.0
H738 H 0.25122 0.16213 0.42611 0.0
H739 H 0.25817 0.26013 0.4409 0.0
H740 H 0.22958 0.22036 0.44089 0.0
H741 H 0.26485 0.4102 0.34615 0.0
H742 H 0.2856 0.40547 0.36751 0.0
H743 H 0.27791 0.30663 0.35339 0.0
H744 H 0.33294 0.31898 0.41853 0.0
H745 H 0.31303 0.08455 0.38394 0.0
H746 H 0.27826 0.39615 0.43057 0.0
H747 H 0.2876 0.44872 0.40616 0.0
H748 H 0.30721 0.43026 0.42807 0.0
H749 H 0.25454 0.11291 0.38857 0.0
H750 H 0.27609 0.0584 0.37287 0.0
H751 H 0.26336 0.15932 0.36324 0.0
C752 C 0.71314 0.80119 0.40126 0.0
C753 C 0.70947 0.85805 0.38357 0.0
C754 C 0.73349 0.754 0.40332 0.0
C755 C 0.75036 0.76299 0.38716 0.0
C756 C 0.74647 0.81887 0.36907 0.0
C757 C 0.7262 0.86595 0.36759 0.0
C758 C 0.73708 0.69553 0.42292 0.0
C759 C 0.76375 0.82916 0.35125 0.0
C760 C 0.81182 0.70458 0.39803 0.0
C761 C 0.81341 0.62033 0.38858 0.0
C762 C 0.79123 0.75077 0.39832 0.0
C763 C 0.77188 0.71233 0.38866 0.0
C764 C 0.77344 0.62724 0.37918 0.0
C765 C 0.79408 0.58225 0.37937 0.0
C766 C 0.7902 0.84107 0.40876 0.0
C767 C 0.7534 0.58437 0.36836 0.0
H768 H 0.70039 0.79547 0.41377 0.0
H769 H 0.72346 0.90944 0.35381 0.0
H770 H 0.74014 0.62637 0.41764 0.0
H771 H 0.75222 0.71754 0.43197 0.0
H772 H 0.72245 0.69635 0.43415 0.0
H773 H 0.75803 0.87453 0.33814 0.0
H774 H 0.77967 0.85525 0.35813 0.0
H775 H 0.76757 0.76375 0.34392 0.0
H776 H 0.82662 0.73416 0.40531 0.0
H777 H 0.79511 0.5173 0.37195 0.0
H778 H 0.77661 0.84293 0.42111 0.0
H779 H 0.78613 0.89165 0.39628 0.0
H780 H 0.80631 0.85948 0.41671 0.0
H781 H 0.73914 0.58037 0.37994 0.0
H782 H 0.7572 0.51669 0.36233 0.0
H783 H 0.74778 0.62536 0.35439 0.0
C784 C 0.21429 0.67691 0.12467 0.0
C785 C 0.21026 0.62259 0.14275 0.0
C786 C 0.23479 0.72288 0.1225 0.0
C787 C 0.25144 0.71529 0.13894 0.0
C788 C 0.24718 0.66196 0.1574 0.0
C789 C 0.22677 0.616 0.15899 0.0
C790 C 0.23877 0.77859 0.1025 0.0
C791 C 0.26421 0.65329 0.17554 0.0
C792 C 0.31317 0.77061 0.12866 0.0
C793 C 0.31476 0.85581 0.13757 0.0
C794 C 0.2925 0.72502 0.12834 0.0
C795 C 0.27306 0.76514 0.13739 0.0
C796 C 0.27461 0.85125 0.14629 0.0
C797 C 0.29533 0.89551 0.14617 0.0
C798 C 0.2915 0.63355 0.11853 0.0
C799 C 0.25446 0.89603 0.15644 0.0
H800 H 0.2017 0.68154 0.11195 0.0
H801 H 0.22376 0.57445 0.17307 0.0
H802 H 0.24186 0.84833 0.10726 0.0
H803 H 0.25402 0.75497 0.09386 0.0
H804 H 0.22432 0.77667 0.09104 0.0
H805 H 0.25824 0.60964 0.18888 0.0
H806 H 0.28018 0.62598 0.16906 0.0
H807 H 0.26802 0.71943 0.18245 0.0
H808 H 0.32804 0.73972 0.12186 0.0
H809 H 0.29634 0.96124 0.15316 0.0
H810 H 0.27807 0.63053 0.10602 0.0
H811 H 0.28719 0.58458 0.13131 0.0
H812 H 0.30769 0.6138 0.11095 0.0
H813 H 0.24039 0.89889 0.1446 0.0
H814 H 0.25827 0.96436 0.16199 0.0
H815 H 0.24856 0.85702 0.17062 0.0
C816 C 0.73098 0.10897 0.15341 0.0
C817 C 0.71319 0.12516 0.13892 0.0
C818 C 0.75129 0.15574 0.15198 0.0
C819 C 0.75408 0.22028 0.13553 0.0
C820 C 0.73625 0.23688 0.12074 0.0
C821 C 0.71595 0.18941 0.12267 0.0
C822 C 0.76969 0.13671 0.16829 0.0
C823 C 0.73861 0.30495 0.10293 0.0
C824 C 0.79712 0.39946 0.14745 0.0
C825 C 0.81614 0.36948 0.13607 0.0
C826 C 0.77679 0.35255 0.14699 0.0
C827 C 0.77523 0.27352 0.13475 0.0
C828 C 0.79425 0.24322 0.12297 0.0
C829 C 0.81453 0.29137 0.12383 0.0
C830 C 0.75709 0.38682 0.16003 0.0
C831 C 0.79321 0.1594 0.10965 0.0
H832 H 0.72905 0.05964 0.16607 0.0
H833 H 0.70237 0.20182 0.1113 0.0
H834 H 0.78535 0.11745 0.15973 0.0
H835 H 0.77345 0.19729 0.17783 0.0
H836 H 0.76506 0.083 0.17979 0.0
H837 H 0.72359 0.30754 0.09219 0.0
H838 H 0.74123 0.37138 0.11018 0.0
H839 H 0.7536 0.28993 0.09284 0.0
H840 H 0.79812 0.45961 0.15701 0.0
H841 H 0.82907 0.26796 0.11491 0.0
H842 H 0.75245 0.33794 0.17272 0.0
H843 H 0.74223 0.39556 0.14933 0.0
H844 H 0.7608 0.45097 0.16809 0.0
H845 H 0.79008 0.10202 0.12049 0.0
H846 H 0.809 0.1473 0.10047 0.0
H847 H 0.77901 0.1628 0.09797 0.0
C848 C 0.71613 0.77155 0.63318 0.0
C849 C 0.71294 0.84559 0.6198 0.0
C850 C 0.7368 0.72593 0.63334 0.0
C851 C 0.75449 0.75411 0.61949 0.0
C852 C 0.751 0.8269 0.60541 0.0
C853 C 0.73038 0.87209 0.60588 0.0
C854 C 0.73993 0.6491 0.64873 0.0
C855 C 0.76915 0.85793 0.59004 0.0
C856 C 0.81517 0.69331 0.63319 0.0
C857 C 0.8186 0.6188 0.62 0.0
C858 C 0.79434 0.73765 0.63332 0.0
C859 C 0.77667 0.70768 0.61966 0.0
C860 C 0.7803 0.634 0.60589 0.0
C861 C 0.80111 0.59015 0.60636 0.0
C862 C 0.79107 0.81553 0.64838 0.0
C863 C 0.76214 0.60104 0.59073 0.0
H864 H 0.7028 0.75135 0.64412 0.0
H865 H 0.72798 0.92905 0.59541 0.0
H866 H 0.74462 0.58874 0.63951 0.0
H867 H 0.75391 0.66352 0.66016 0.0
H868 H 0.72452 0.63498 0.65833 0.0
H869 H 0.76343 0.91322 0.57948 0.0
H870 H 0.78402 0.88035 0.59944 0.0
H871 H 0.77472 0.80243 0.57951 0.0
H872 H 0.82853 0.71527 0.64391 0.0
H873 H 0.80366 0.53283 0.59604 0.0
H874 H 0.77692 0.80218 0.65966 0.0
H875 H 0.78659 0.87531 0.63884 0.0
H876 H 0.80636 0.83011 0.65813 0.0
H877 H 0.74724 0.58007 0.60025 0.0
H878 H 0.76785 0.54433 0.58063 0.0
H879 H 0.75664 0.65519 0.57975 0.0
C880 C 0.21717 0.27747 0.6261 0.0
C881 C 0.21584 0.35106 0.63993 0.0
C882 C 0.23713 0.2275 0.62461 0.0
C883 C 0.25596 0.25075 0.63758 0.0
C884 C 0.2545 0.32417 0.65181 0.0
C885 C 0.23458 0.37371 0.65265 0.0
C886 C 0.23814 0.15032 0.60905 0.0
C887 C 0.27393 0.35008 0.66632 0.0
C888 C 0.29942 0.07547 0.65158 0.0
C889 C 0.3176 0.09913 0.63824 0.0
C890 C 0.27926 0.12359 0.65132 0.0
C891 C 0.27696 0.1966 0.63709 0.0
C892 C 0.29514 0.22037 0.62335 0.0
C893 C 0.31536 0.17185 0.62424 0.0
C894 C 0.26055 0.09717 0.66661 0.0
C895 C 0.29323 0.29714 0.60776 0.0
H896 H 0.20281 0.2602 0.61609 0.0
H897 H 0.23365 0.43023 0.66348 0.0
H898 H 0.25234 0.15921 0.59755 0.0
H899 H 0.2413 0.08822 0.61817 0.0
H900 H 0.22236 0.14266 0.59956 0.0
H901 H 0.27004 0.40878 0.67653 0.0
H902 H 0.2784 0.29413 0.67718 0.0
H903 H 0.28896 0.36507 0.65631 0.0
H904 H 0.30104 0.01963 0.66254 0.0
H905 H 0.32926 0.19 0.61377 0.0
H906 H 0.245 0.0829 0.65727 0.0
H907 H 0.2567 0.15267 0.67784 0.0
H908 H 0.26489 0.03794 0.67646 0.0
H909 H 0.27829 0.28842 0.59714 0.0
H910 H 0.30837 0.30414 0.59734 0.0
H911 H 0.29079 0.35953 0.61697 0.0
C912 C 0.72277 0.18962 0.89702 0.0
C913 C 0.72045 0.1155 0.88348 0.0
C914 C 0.74314 0.23699 0.89785 0.0
C915 C 0.76142 0.21039 0.88455 0.0
C916 C 0.759 0.13636 0.87065 0.0
C917 C 0.73864 0.08959 0.87041 0.0
C918 C 0.74515 0.31513 0.91302 0.0
C919 C 0.77787 0.10682 0.85589 0.0
C920 C 0.80567 0.38112 0.86979 0.0
C921 C 0.82367 0.35742 0.88337 0.0
C922 C 0.78539 0.33388 0.87004 0.0
C923 C 0.78284 0.2617 0.88448 0.0
C924 C 0.80095 0.2372 0.89825 0.0
C925 C 0.82126 0.28494 0.8974 0.0
C926 C 0.76672 0.3611 0.85476 0.0
C927 C 0.79877 0.16111 0.91401 0.0
H928 H 0.70885 0.2095 0.90729 0.0
H929 H 0.73696 0.03261 0.85981 0.0
H930 H 0.75953 0.30518 0.92428 0.0
H931 H 0.74861 0.37608 0.90355 0.0
H932 H 0.72967 0.32565 0.92279 0.0
H933 H 0.77327 0.04786 0.84605 0.0
H934 H 0.78252 0.16131 0.84467 0.0
H935 H 0.793 0.09072 0.86567 0.0
H936 H 0.80745 0.43679 0.8588 0.0
H937 H 0.83503 0.26681 0.90806 0.0
H938 H 0.75147 0.37879 0.86418 0.0
H939 H 0.76219 0.30491 0.84399 0.0
H940 H 0.77146 0.41846 0.84443 0.0
H941 H 0.78432 0.17267 0.92506 0.0
H942 H 0.81417 0.15179 0.92399 0.0
H943 H 0.79535 0.09895 0.905 0.0
C944 C 0.2224 0.70266 0.8917 0.0
C945 C 0.21958 0.62662 0.90445 0.0
C946 C 0.24287 0.74945 0.8919 0.0
C947 C 0.2607 0.72039 0.90548 0.0
C948 C 0.25759 0.64543 0.91892 0.0
C949 C 0.23718 0.59909 0.91809 0.0
C950 C 0.24563 0.82856 0.87716 0.0
C951 C 0.27592 0.61342 0.93402 0.0
C952 C 0.321 0.78669 0.89218 0.0
C953 C 0.3241 0.85984 0.90588 0.0
C954 C 0.30039 0.741 0.89176 0.0
C955 C 0.28266 0.76811 0.90568 0.0
C956 C 0.286 0.84023 0.92001 0.0
C957 C 0.30657 0.88563 0.91979 0.0
C958 C 0.29741 0.66496 0.87609 0.0
C959 C 0.26777 0.86996 0.93548 0.0
H960 H 0.20893 0.72368 0.881 0.0
H961 H 0.23504 0.54061 0.92809 0.0
H962 H 0.25002 0.88793 0.88688 0.0
H963 H 0.25969 0.81671 0.86565 0.0
H964 H 0.23016 0.84291 0.86765 0.0
H965 H 0.27047 0.5563 0.9441 0.0
H966 H 0.29087 0.59332 0.92443 0.0
H967 H 0.28125 0.66776 0.94502 0.0
H968 H 0.33439 0.76711 0.88123 0.0
H969 H 0.3089 0.94197 0.93048 0.0
H970 H 0.28318 0.67899 0.86492 0.0
H971 H 0.29319 0.60369 0.88514 0.0
H972 H 0.31273 0.65257 0.86622 0.0
H973 H 0.25277 0.89163 0.92615 0.0
H974 H 0.2733 0.92539 0.94608 0.0
H975 H 0.26248 0.81394 0.94595 0.0
C976 C 0.38693 0.92608 0.3129 0.0
C977 C 0.37137 0.98215 0.32303 0.0
C978 C 0.38796 0.92002 0.29003 0.0
C979 C 0.3727 0.96958 0.2771 0.0
C980 C 0.35637 0.02339 0.28737 0.0
C981 C 0.3561 0.02981 0.31015 0.0
C982 C 0.4058 0.86282 0.27969 0.0
C983 C 0.33936 0.07526 0.2743 0.0
C984 C 0.38648 0.02348 0.21786 0.0
C985 C 0.37493 0.95631 0.20682 0.0
C986 C 0.3862 0.02788 0.24077 0.0
C987 C 0.37361 0.96499 0.25283 0.0
C988 C 0.36142 0.89869 0.24165 0.0
C989 C 0.36245 0.89458 0.21886 0.0
C990 C 0.39969 0.09881 0.2521 0.0
C991 C 0.34726 0.83199 0.25376 0.0
H992 H 0.39896 0.89014 0.3228 0.0
H993 H 0.34399 0.07312 0.31795 0.0
H994 H 0.39791 0.81253 0.26899 0.0
H995 H 0.41685 0.90418 0.2693 0.0
H996 H 0.41636 0.82835 0.29197 0.0
H997 H 0.32709 0.11057 0.28481 0.0
H998 H 0.34809 0.12462 0.26397 0.0
H999 H 0.33001 0.03032 0.26326 0.0
H1000 H 0.39632 0.07072 0.20863 0.0
H1001 H 0.35336 0.84279 0.21039 0.0
H1002 H 0.41189 0.06792 0.26347 0.0
H1003 H 0.38841 0.1414 0.26194 0.0
H1004 H 0.40904 0.14125 0.24045 0.0
H1005 H 0.358 0.79247 0.26487 0.0
H1006 H 0.33833 0.78604 0.2426 0.0
H1007 H 0.33463 0.86667 0.26395 0.0
C1008 C 0.62974 0.06452 0.21571 0.0
C1009 C 0.64296 0.00587 0.20344 0.0
C1010 C 0.63025 0.06391 0.23853 0.0
C1011 C 0.64457 0.00392 0.2495 0.0
C1012 C 0.65813 0.94484 0.23725 0.0
C1013 C 0.65703 0.946 0.21434 0.0
C1014 C 0.61518 0.12676 0.25089 0.0
C1015 C 0.67376 0.88044 0.24837 0.0
C1016 C 0.65697 0.05384 0.30928 0.0
C1017 C 0.64207 -0.0038 0.3198 0.0
C1018 C 0.65837 0.05585 0.28638 0.0
C1019 C 0.64427 -1e-05 0.27378 0.0
C1020 C 0.62904 0.94259 0.28439 0.0
C1021 C 0.62825 0.94102 0.30719 0.0
C1022 C 0.67497 0.11734 0.27565 0.0
C1023 C 0.61339 0.88325 0.27166 0.0
H1024 H 0.61875 0.11084 0.20744 0.0
H1025 H 0.66744 0.90113 0.20497 0.0
H1026 H 0.60332 0.08869 0.2612 0.0
H1027 H 0.62535 0.16892 0.2619 0.0
H1028 H 0.60529 0.17033 0.23991 0.0
H1029 H 0.68398 0.84195 0.23656 0.0
H1030 H 0.68526 0.91649 0.25949 0.0
H1031 H 0.66391 0.83351 0.25844 0.0
H1032 H 0.66784 0.09599 0.31892 0.0
H1033 H 0.61659 0.89651 0.31518 0.0
H1034 H 0.66593 0.16577 0.26528 0.0
H1035 H 0.68636 0.07912 0.26486 0.0
H1036 H 0.68529 0.15417 0.2877 0.0
H1037 H 0.60236 0.92386 0.26105 0.0
H1038 H 0.60262 0.84207 0.28239 0.0
H1039 H 0.62322 0.83874 0.26091 0.0
C1040 C 0.62935 0.9833 0.8064 0.0
C1041 C 0.64748 0.9618 0.82 0.0
C1042 C 0.6314 0.98049 0.78367 0.0
C1043 C 0.65227 0.95725 0.7742 0.0
C1044 C 0.67065 0.93463 0.78784 0.0
C1045 C 0.66797 0.93631 0.81063 0.0
C1046 C 0.61121 0.00289 0.76979 0.0
C1047 C 0.69323 0.91046 0.77837 0.0
C1048 C 0.64925 0.87374 0.71601 0.0
C1049 C 0.65388 0.95044 0.70388 0.0
C1050 C 0.64936 0.87455 0.73883 0.0
C1051 C 0.65441 0.95389 0.74999 0.0
C1052 C 0.65981 0.03105 0.73792 0.0
C1053 C 0.65939 0.02857 0.71498 0.0
C1054 C 0.64325 0.79104 0.75097 0.0
C1055 C 0.66551 0.11674 0.74926 0.0
H1056 H 0.61346 0.00295 0.81358 0.0
H1057 H 0.68212 0.92096 0.82109 0.0
H1058 H 0.61501 0.06077 0.75934 0.0
H1059 H 0.60719 0.94663 0.75886 0.0
H1060 H 0.59609 0.0183 0.77971 0.0
H1061 H 0.70586 0.8952 0.79115 0.0
H1062 H 0.69154 0.85213 0.76753 0.0
H1063 H 0.6996 0.9659 0.76827 0.0
H1064 H 0.64504 0.81275 0.70768 0.0
H1065 H 0.6631 0.08795 0.70578 0.0
H1066 H 0.62742 0.8016 0.76016 0.0
H1067 H 0.65651 0.77436 0.76299 0.0
H1068 H 0.64091 0.73361 0.73991 0.0
H1069 H 0.65053 0.14161 0.75811 0.0
H1070 H 0.67115 0.1686 0.73768 0.0
H1071 H 0.67895 0.10564 0.76149 0.0
C1072 C 0.3875 0.0244 0.80902 0.0
C1073 C 0.38156 0.94995 0.82135 0.0
C1074 C 0.38869 0.01972 0.78612 0.0
C1075 C 0.38367 0.93895 0.77537 0.0
C1076 C 0.37683 0.86485 0.78775 0.0
C1077 C 0.37591 0.87123 0.81049 0.0
C1078 C 0.39601 0.10026 0.77348 0.0
C1079 C 0.37112 0.77774 0.77701 0.0
C1080 C 0.37081 0.93529 0.7146 0.0
C1081 C 0.3914 0.90722 0.70576 0.0
C1082 C 0.36811 0.94692 0.73716 0.0
C1083 C 0.38642 0.9301 0.7513 0.0
C1084 C 0.40717 0.90087 0.74252 0.0
C1085 C 0.40939 0.8897 0.71991 0.0
C1086 C 0.34568 0.97753 0.74585 0.0
C1087 C 0.42708 0.88169 0.75704 0.0
H1088 H 0.39195 0.08532 0.81728 0.0
H1089 H 0.37108 0.81347 0.81984 0.0
H1090 H 0.41226 0.08657 0.76529 0.0
H1091 H 0.38355 0.11574 0.76058 0.0
H1092 H 0.39806 0.15932 0.78406 0.0
H1093 H 0.36495 0.72782 0.78885 0.0
H1094 H 0.35805 0.78764 0.76435 0.0
H1095 H 0.38623 0.7507 0.76878 0.0
H1096 H 0.3568 0.94944 0.70385 0.0
H1097 H 0.4254 0.86854 0.71329 0.0
H1098 H 0.34782 0.0398 0.75519 0.0
H1099 H 0.3388 0.92741 0.75723 0.0
H1100 H 0.33321 0.98905 0.73269 0.0
H1101 H 0.43133 0.94126 0.76676 0.0
H1102 H 0.44217 0.86127 0.74766 0.0
H1103 H 0.42279 0.82819 0.76868 0.0
C1104 C 0.86124 0.4258 0.21556 0.0
C1105 C 0.87464 0.48431 0.20352 0.0
C1106 C 0.86022 0.43075 0.23833 0.0
C1107 C 0.87344 0.49419 0.24942 0.0
C1108 C 0.88691 0.554 0.23732 0.0
C1109 C 0.8871 0.54916 0.21444 0.0
C1110 C 0.84509 0.36771 0.25051 0.0
C1111 C 0.90154 0.62155 0.24858 0.0
C1112 C 0.85795 0.56184 0.30703 0.0
C1113 C 0.87251 0.50951 0.31955 0.0
C1114 C 0.85775 0.55608 0.28425 0.0
C1115 C 0.87296 0.49837 0.27366 0.0
C1116 C 0.88758 0.44458 0.28625 0.0
C1117 C 0.88696 0.44992 0.30912 0.0
C1118 C 0.8414 0.61244 0.27152 0.0
C1119 C 0.90431 0.38338 0.27554 0.0
H1120 H 0.85149 0.37585 0.2071 0.0
H1121 H 0.89766 0.59373 0.20515 0.0
H1122 H 0.85528 0.32466 0.2613 0.0
H1123 H 0.83331 0.40534 0.26103 0.0
H1124 H 0.83513 0.32498 0.23939 0.0
H1125 H 0.9113 0.66225 0.23687 0.0
H1126 H 0.89105 0.66623 0.25867 0.0
H1127 H 0.91347 0.58764 0.2597 0.0
H1128 H 0.84669 0.60777 0.31511 0.0
H1129 H 0.89842 0.4103 0.31878 0.0
H1130 H 0.83115 0.57019 0.26058 0.0
H1131 H 0.85072 0.65977 0.26111 0.0
H1132 H 0.8299 0.65047 0.28228 0.0
H1133 H 0.89543 0.33493 0.26506 0.0
H1134 H 0.91462 0.34659 0.2876 0.0
H1135 H 0.9157 0.42207 0.26488 0.0
C1136 C 0.12994 0.42608 0.31131 0.0
C1137 C 0.14343 0.48394 0.32353 0.0
C1138 C 0.13043 0.42627 0.28849 0.0
C1139 C 0.14501 0.48499 0.27745 0.0
C1140 C 0.1588 0.54336 0.28966 0.0
C1141 C 0.15772 0.54269 0.31258 0.0
C1142 C 0.11509 0.36426 0.27618 0.0
C1143 C 0.17472 0.60638 0.27849 0.0
C1144 C 0.15723 0.43206 0.21778 0.0
C1145 C 0.14256 0.49025 0.20708 0.0
C1146 C 0.15863 0.43088 0.24069 0.0
C1147 C 0.14478 0.48821 0.25314 0.0
C1148 C 0.1298 0.54627 0.24237 0.0
C1149 C 0.129 0.54696 0.21955 0.0
C1150 C 0.17496 0.36859 0.25159 0.0
C1151 C 0.11441 0.60722 0.25494 0.0
H1152 H 0.11877 0.38066 0.31962 0.0
H1153 H 0.16833 0.58694 0.32192 0.0
H1154 H 0.10345 0.40293 0.26574 0.0
H1155 H 0.12509 0.32094 0.26529 0.0
H1156 H 0.10496 0.32185 0.2872 0.0
H1157 H 0.18505 0.6446 0.29026 0.0
H1158 H 0.18612 0.5692 0.2675 0.0
H1159 H 0.16509 0.65358 0.26827 0.0
H1160 H 0.16791 0.3887 0.20825 0.0
H1161 H 0.11752 0.59195 0.21145 0.0
H1162 H 0.16569 0.32102 0.26199 0.0
H1163 H 0.18646 0.40633 0.26237 0.0
H1164 H 0.18517 0.33078 0.23964 0.0
H1165 H 0.10316 0.56779 0.26558 0.0
H1166 H 0.10386 0.64893 0.24409 0.0
H1167 H 0.12442 0.65125 0.26564 0.0
C1168 C 0.16518 0.50269 0.81366 0.0
C1169 C 0.15022 0.43884 0.82173 0.0
C1170 C 0.16587 0.5235 0.79135 0.0
C1171 C 0.15174 0.47756 0.77662 0.0
C1172 C 0.1375 0.40963 0.78456 0.0
C1173 C 0.13663 0.39218 0.80704 0.0
C1174 C 0.18085 0.59788 0.78372 0.0
C1175 C 0.12267 0.35703 0.76938 0.0
C1176 C 0.13228 0.58083 0.72325 0.0
C1177 C 0.14678 0.54126 0.70813 0.0
C1178 C 0.1344 0.56377 0.74566 0.0
C1179 C 0.15093 0.50327 0.75312 0.0
C1180 C 0.16594 0.46462 0.73795 0.0
C1181 C 0.1639 0.4851 0.71569 0.0
C1182 C 0.1185 0.60869 0.76131 0.0
C1183 C 0.1834 0.39809 0.74506 0.0
H1184 H 0.1755 0.54002 0.82495 0.0
H1185 H 0.12503 0.34284 0.81318 0.0
H1186 H 0.19174 0.57534 0.77017 0.0
H1187 H 0.17033 0.65284 0.7774 0.0
H1188 H 0.1917 0.62393 0.79698 0.0
H1189 H 0.1143 0.30089 0.77777 0.0
H1190 H 0.10951 0.40068 0.76242 0.0
H1191 H 0.13271 0.33067 0.75561 0.0
H1192 H 0.11903 0.62422 0.71749 0.0
H1193 H 0.17496 0.45318 0.70407 0.0
H1194 H 0.12807 0.6399 0.7748 0.0
H1195 H 0.1071 0.55892 0.76865 0.0
H1196 H 0.10811 0.66018 0.75322 0.0
H1197 H 0.19393 0.42577 0.75831 0.0
H1198 H 0.19454 0.3775 0.73147 0.0
H1199 H 0.17491 0.33846 0.75164 0.0
C1200 C 0.89231 0.59405 0.71614 0.0
C1201 C 0.88372 0.52229 0.70421 0.0
C1202 C 0.89317 0.5925 0.73892 0.0
C1203 C 0.88498 0.51774 0.75023 0.0
C1204 C 0.87575 0.44582 0.73838 0.0
C1205 C 0.87537 0.44864 0.71546 0.0
C1206 C 0.90348 0.66995 0.75085 0.0
C1207 C 0.86662 0.36537 0.74991 0.0
C1208 C 0.90995 0.47164 0.80594 0.0
C1209 C 0.89352 0.50601 0.81994 0.0
C1210 C 0.90735 0.4752 0.78328 0.0
C1211 C 0.8876 0.51276 0.77433 0.0
C1212 C 0.87095 0.54813 0.78837 0.0
C1213 C 0.8742 0.54508 0.81106 0.0
C1214 C 0.92576 0.43865 0.76893 0.0
C1215 C 0.84958 0.58786 0.77942 0.0
H1216 H 0.89886 0.65133 0.70764 0.0
H1217 H 0.86858 0.39326 0.70638 0.0
H1218 H 0.89154 0.6962 0.76312 0.0
H1219 H 0.91873 0.64783 0.75974 0.0
H1220 H 0.90827 0.72459 0.7397 0.0
H1221 H 0.85851 0.31811 0.7385 0.0
H1222 H 0.88045 0.33066 0.7585 0.0
H1223 H 0.85415 0.38559 0.76238 0.0
H1224 H 0.92495 0.44154 0.81273 0.0
H1225 H 0.86133 0.57065 0.82184 0.0
H1226 H 0.93204 0.49115 0.75788 0.0
H1227 H 0.91903 0.38466 0.75858 0.0
H1228 H 0.94016 0.41241 0.77847 0.0
H1229 H 0.85361 0.64464 0.76867 0.0
H1230 H 0.83811 0.61105 0.79249 0.0
H1231 H 0.84061 0.53819 0.76934 0.0
loop_
_geom_bond_atom_site_label_1
_geom_bond_atom_site_label_2
_geom_bond_distance
_geom_bond_site_symmetry_2
_ccdc_geom_bond_type
Mg0 O7 2.141 . S
Mg0 O8 2.048 . S
Mg0 O9 2.048 . S
Mg0 O12 2.141 . S
C1 O2 1.313 . S
C1 O8 1.195 . S
O2 C1 1.313 . S
C3 O4 1.245 . S
C3 O12 1.289 . S
O4 C3 1.245 . S
C5 O6 1.245 . S
C5 O7 1.289 . S
O6 C5 1.245 . S
O7 Mg0 2.141 . S
O7 C5 1.289 . S
O8 Mg0 2.048 . S
O8 C1 1.195 . S
O9 Mg0 2.048 . S
O9 C10 1.195 . S
C10 O9 1.195 . S
C10 O11 1.313 . S
O11 C10 1.313 . S
O12 Mg0 2.141 . S
O12 C3 1.289 . S
Mg13 O20 2.141 . S
Mg13 O21 2.048 . S
Mg13 O22 2.048 . S
Mg13 O25 2.141 . S
C14 O15 1.313 . S
C14 O21 1.195 . S
O15 C14 1.313 . S
C16 O17 1.245 . S
C16 O25 1.289 . S
O17 C16 1.245 . S
C18 O19 1.245 . S
C18 O20 1.289 . S
O19 C18 1.245 . S
O20 Mg13 2.141 . S
O20 C18 1.289 . S
O21 Mg13 2.048 . S
O21 C14 1.195 . S
O22 Mg13 2.048 . S
O22 C23 1.195 . S
C23 O22 1.195 . S
C23 O24 1.313 . S
O24 C23 1.313 . S
O25 Mg13 2.141 . S
O25 C16 1.289 . S
Mg26 O33 2.141 . S
Mg26 O34 2.048 . S
Mg26 O35 2.048 . S
Mg26 O38 2.141 . S
C27 O28 1.313 . S
C27 O34 1.195 . S
O28 C27 1.313 . S
C29 O30 1.245 . S
C29 O38 1.289 . S
O30 C29 1.245 . S
C31 O32 1.245 . S
C31 O33 1.289 . S
O32 C31 1.245 . S
O33 Mg26 2.141 . S
O33 C31 1.289 . S
O34 Mg26 2.048 . S
O34 C27 1.195 . S
O35 Mg26 2.048 . S
O35 C36 1.195 . S
C36 O35 1.195 . S
C36 O37 1.313 . S
O37 C36 1.313 . S
O38 Mg26 2.141 . S
O38 C29 1.289 . S
Mg39 O46 2.141 . S
Mg39 O47 2.048 . S
Mg39 O48 2.048 . S
Mg39 O51 2.141 . S
C40 O41 1.313 . S
C40 O47 1.195 . S
O41 C40 1.313 . S
C42 O43 1.245 . S
C42 O51 1.289 . S
O43 C42 1.245 . S
C44 O45 1.245 . S
C44 O46 1.289 . S
O45 C44 1.245 . S
O46 Mg39 2.141 . S
O46 C44 1.289 . S
O47 Mg39 2.048 . S
O47 C40 1.195 . S
O48 Mg39 2.048 . S
O48 C49 1.195 . S
C49 O48 1.195 . S
C49 O50 1.313 . S
O50 C49 1.313 . S
O51 Mg39 2.141 . S
O51 C42 1.289 . S
Mg52 O59 2.141 . S
Mg52 O60 2.048 . S
Mg52 O61 2.048 . S
Mg52 O64 2.141 . S
C53 O54 1.313 . S
C53 O60 1.195 . S
O54 C53 1.313 . S
C55 O56 1.245 1_565 S
C55 O64 1.289 . S
O56 C55 1.245 1_545 S
C57 O58 1.245 . S
C57 O59 1.289 . S
O58 C57 1.245 . S
O59 Mg52 2.141 . S
O59 C57 1.289 . S
O60 Mg52 2.048 . S
O60 C53 1.195 . S
O61 Mg52 2.048 . S
O61 C62 1.195 . S
C62 O61 1.195 . S
C62 O63 1.313 1_565 S
O63 C62 1.313 1_545 S
O64 Mg52 2.141 . S
O64 C55 1.289 . S
Mg65 O72 2.141 . S
Mg65 O73 2.048 . S
Mg65 O74 2.048 . S
Mg65 O77 2.141 . S
C66 O67 1.313 . S
C66 O73 1.195 . S
O67 C66 1.313 . S
C68 O69 1.245 1_545 S
C68 O77 1.289 . S
O69 C68 1.245 1_565 S
C70 O71 1.245 . S
C70 O72 1.289 . S
O71 C70 1.245 . S
O72 Mg65 2.141 . S
O72 C70 1.289 . S
O73 Mg65 2.048 . S
O73 C66 1.195 . S
O74 Mg65 2.048 . S
O74 C75 1.195 . S
C75 O74 1.195 . S
C75 O76 1.313 1_545 S
O76 C75 1.313 1_565 S
O77 Mg65 2.141 . S
O77 C68 1.289 . S
Mg78 O85 2.141 . S
Mg78 O86 2.048 . S
Mg78 O87 2.048 . S
Mg78 O90 2.141 . S
C79 O80 1.313 . S
C79 O86 1.195 . S
O80 C79 1.313 . S
C81 O82 1.245 1_545 S
C81 O90 1.289 . S
O82 C81 1.245 1_565 S
C83 O84 1.245 . S
C83 O85 1.289 . S
O84 C83 1.245 . S
O85 Mg78 2.141 . S
O85 C83 1.289 . S
O86 Mg78 2.048 . S
O86 C79 1.195 . S
O87 Mg78 2.048 . S
O87 C88 1.195 . S
C88 O87 1.195 . S
C88 O89 1.313 1_545 S
O89 C88 1.313 1_565 S
O90 Mg78 2.141 . S
O90 C81 1.289 . S
Mg91 O98 2.141 . S
Mg91 O99 2.048 . S
Mg91 O100 2.048 . S
Mg91 O103 2.141 . S
C92 O93 1.313 . S
C92 O99 1.195 . S
O93 C92 1.313 . S
C94 O95 1.245 1_565 S
C94 O103 1.289 . S
O95 C94 1.245 1_545 S
C96 O97 1.245 . S
C96 O98 1.289 . S
O97 C96 1.245 . S
O98 Mg91 2.141 . S
O98 C96 1.289 . S
O99 Mg91 2.048 . S
O99 C92 1.195 . S
O100 Mg91 2.048 . S
O100 C101 1.195 . S
C101 O100 1.195 . S
C101 O102 1.313 1_565 S
O102 C101 1.313 1_545 S
O103 Mg91 2.141 . S
O103 C94 1.289 . S
Mg104 O111 2.141 . S
Mg104 O112 2.048 . S
Mg104 O113 2.048 . S
Mg104 O116 2.141 . S
C105 O106 1.313 . S
C105 O112 1.195 . S
O106 C105 1.313 . S
C107 O108 1.245 . S
C107 O116 1.289 . S
O108 C107 1.245 . S
C109 O110 1.245 . S
C109 O111 1.289 . S
O110 C109 1.245 . S
O111 Mg104 2.141 . S
O111 C109 1.289 . S
O112 Mg104 2.048 . S
O112 C105 1.195 . S
O113 Mg104 2.048 . S
O113 C114 1.195 . S
C114 O113 1.195 . S
C114 O115 1.313 . S
O115 C114 1.313 . S
O116 Mg104 2.141 . S
O116 C107 1.289 . S
Mg117 O124 2.141 . S
Mg117 O125 2.048 . S
Mg117 O126 2.048 . S
Mg117 O129 2.141 . S
C118 O119 1.313 . S
C118 O125 1.195 . S
O119 C118 1.313 . S
C120 O121 1.245 . S
C120 O129 1.289 . S
O121 C120 1.245 . S
C122 O123 1.245 . S
C122 O124 1.289 . S
O123 C122 1.245 . S
O124 Mg117 2.141 . S
O124 C122 1.289 . S
O125 Mg117 2.048 . S
O125 C118 1.195 . S
O126 Mg117 2.048 . S
O126 C127 1.195 . S
C127 O126 1.195 . S
C127 O128 1.313 . S
O128 C127 1.313 . S
O129 Mg117 2.141 . S
O129 C120 1.289 . S
Mg130 O137 2.141 . S
Mg130 O138 2.048 . S
Mg130 O139 2.048 . S
Mg130 O142 2.141 . S
C131 O132 1.313 . S
C131 O138 1.195 . S
O132 C131 1.313 . S
C133 O134 1.245 . S
C133 O142 1.289 . S
O134 C133 1.245 . S
C135 O136 1.245 . S
C135 O137 1.289 . S
O136 C135 1.245 . S
O137 Mg130 2.141 . S
O137 C135 1.289 . S
O138 Mg130 2.048 . S
O138 C131 1.195 . S
O139 Mg130 2.048 . S
O139 C140 1.195 . S
C140 O139 1.195 . S
C140 O141 1.313 . S
O141 C140 1.313 . S
O142 Mg130 2.141 . S
O142 C133 1.289 . S
Mg143 O150 2.141 . S
Mg143 O151 2.048 . S
Mg143 O152 2.048 . S
Mg143 O155 2.141 . S
C144 O145 1.313 . S
C144 O151 1.195 . S
O145 C144 1.313 . S
C146 O147 1.245 . S
C146 O155 1.289 . S
O147 C146 1.245 . S
C148 O149 1.245 . S
C148 O150 1.289 . S
O149 C148 1.245 . S
O150 Mg143 2.141 . S
O150 C148 1.289 . S
O151 Mg143 2.048 . S
O151 C144 1.195 . S
O152 Mg143 2.048 . S
O152 C153 1.195 . S
C153 O152 1.195 . S
C153 O154 1.313 . S
O154 C153 1.313 . S
O155 Mg143 2.141 . S
O155 C146 1.289 . S
Mg156 O163 2.141 . S
Mg156 O164 2.048 . S
Mg156 O165 2.048 . S
Mg156 O168 2.141 . S
C157 O158 1.313 . S
C157 O164 1.195 . S
O158 C157 1.313 . S
C159 O160 1.245 . S
C159 O168 1.289 . S
O160 C159 1.245 . S
C161 O162 1.245 . S
C161 O163 1.289 . S
O162 C161 1.245 . S
O163 Mg156 2.141 . S
O163 C161 1.289 . S
O164 Mg156 2.048 . S
O164 C157 1.195 . S
O165 Mg156 2.048 . S
O165 C166 1.195 . S
C166 O165 1.195 . S
C166 O167 1.313 . S
O167 C166 1.313 . S
O168 Mg156 2.141 . S
O168 C159 1.289 . S
Mg169 O176 2.141 . S
Mg169 O177 2.048 . S
Mg169 O178 2.048 . S
Mg169 O181 2.141 . S
C170 O171 1.313 . S
C170 O177 1.195 . S
O171 C170 1.313 . S
C172 O173 1.245 . S
C172 O181 1.289 . S
O173 C172 1.245 . S
C174 O175 1.245 . S
C174 O176 1.289 . S
O175 C174 1.245 . S
O176 Mg169 2.141 . S
O176 C174 1.289 . S
O177 Mg169 2.048 . S
O177 C170 1.195 . S
O178 Mg169 2.048 . S
O178 C179 1.195 . S
C179 O178 1.195 . S
C179 O180 1.313 . S
O180 C179 1.313 . S
O181 Mg169 2.141 . S
O181 C172 1.289 . S
Mg182 O189 2.141 . S
Mg182 O190 2.048 . S
Mg182 O191 2.048 . S
Mg182 O194 2.141 . S
C183 O184 1.313 . S
C183 O190 1.195 . S
O184 C183 1.313 . S
C185 O186 1.245 . S
C185 O194 1.289 . S
O186 C185 1.245 . S
C187 O188 1.245 . S
C187 O189 1.289 . S
O188 C187 1.245 . S
O189 Mg182 2.141 . S
O189 C187 1.289 . S
O190 Mg182 2.048 . S
O190 C183 1.195 . S
O191 Mg182 2.048 . S
O191 C192 1.195 . S
C192 O191 1.195 . S
C192 O193 1.313 . S
O193 C192 1.313 . S
O194 Mg182 2.141 . S
O194 C185 1.289 . S
Mg195 O202 2.141 . S
Mg195 O203 2.048 . S
Mg195 O204 2.048 . S
Mg195 O207 2.141 . S
C196 O197 1.313 . S
C196 O203 1.195 . S
O197 C196 1.313 . S
C198 O199 1.245 . S
C198 O207 1.289 . S
O199 C198 1.245 . S
C200 O201 1.245 . S
C200 O202 1.289 . S
O201 C200 1.245 . S
O202 Mg195 2.141 . S
O202 C200 1.289 . S
O203 Mg195 2.048 . S
O203 C196 1.195 . S
O204 Mg195 2.048 . S
O204 C205 1.195 . S
C205 O204 1.195 . S
C205 O206 1.313 . S
O206 C205 1.313 . S
O207 Mg195 2.141 . S
O207 C198 1.289 . S
C208 C209 1.391 . S
C208 C210 1.394 . S
C208 H224 0.931 . S
C209 C208 1.391 . S
C209 C213 1.376 . S
C210 C208 1.394 . S
C210 C211 1.369 . S
C210 C214 1.531 . S
C211 C210 1.369 . S
C211 C212 1.410 . S
C211 C219 1.503 . S
C212 C211 1.410 . S
C212 C213 1.392 . S
C212 C215 1.511 . S
C213 C209 1.376 . S
C213 C212 1.392 . S
C213 H225 0.929 . S
C214 C210 1.531 . S
C214 H226 0.960 . S
C214 H227 0.962 . S
C214 H228 0.960 . S
C215 C212 1.511 . S
C215 H229 0.961 1_545 S
C215 H230 0.961 1_545 S
C215 H231 0.961 . S
C216 C217 1.370 . S
C216 C218 1.363 . S
C216 H232 0.931 . S
C217 C216 1.370 . S
C217 C221 1.408 . S
C218 C216 1.363 . S
C218 C219 1.370 . S
C218 C222 1.524 1_545 S
C219 C211 1.503 . S
C219 C218 1.370 . S
C219 C220 1.403 . S
C220 C219 1.403 . S
C220 C221 1.404 . S
C220 C223 1.539 . S
C221 C217 1.408 . S
C221 C220 1.404 . S
C221 H233 0.930 . S
C222 C218 1.524 1_565 S
C222 H234 0.956 1_565 S
C222 H235 0.961 . S
C222 H236 0.961 . S
C223 C220 1.539 . S
C223 H237 0.958 . S
C223 H238 0.961 . S
C223 H239 0.960 . S
H224 C208 0.931 . S
H225 C213 0.929 . S
H226 C214 0.960 . S
H227 C214 0.962 . S
H228 C214 0.960 . S
H229 C215 0.961 1_565 S
H230 C215 0.961 1_565 S
H231 C215 0.961 . S
H232 C216 0.931 . S
H233 C221 0.930 . S
H234 C222 0.956 1_545 S
H235 C222 0.961 . S
H236 C222 0.961 . S
H237 C223 0.958 . S
H238 C223 0.961 . S
H239 C223 0.960 . S
C240 C241 1.391 . S
C240 C242 1.394 . S
C240 H256 0.931 . S
C241 C240 1.391 . S
C241 C245 1.376 . S
C242 C240 1.394 . S
C242 C243 1.369 . S
C242 C246 1.531 . S
C243 C242 1.369 . S
C243 C244 1.410 . S
C243 C251 1.503 . S
C244 C243 1.410 . S
C244 C245 1.392 . S
C244 C247 1.511 . S
C245 C241 1.376 . S
C245 C244 1.392 . S
C245 H257 0.929 . S
C246 C242 1.531 . S
C246 H258 0.960 1_565 S
C246 H259 0.962 . S
C246 H260 0.960 1_565 S
C247 C244 1.511 . S
C247 H261 0.961 . S
C247 H262 0.961 . S
C247 H263 0.961 . S
C248 C249 1.370 . S
C248 C250 1.363 . S
C248 H264 0.931 . S
C249 C248 1.370 . S
C249 C253 1.408 . S
C250 C248 1.363 . S
C250 C251 1.370 . S
C250 C254 1.524 . S
C251 C243 1.503 . S
C251 C250 1.370 . S
C251 C252 1.403 . S
C252 C251 1.403 . S
C252 C253 1.404 . S
C252 C255 1.539 1_565 S
C253 C249 1.408 . S
C253 C252 1.404 . S
C253 H265 0.930 1_565 S
C254 C250 1.524 . S
C254 H266 0.956 . S
C254 H267 0.961 . S
C254 H268 0.961 . S
C255 C252 1.539 1_545 S
C255 H269 0.958 . S
C255 H270 0.961 . S
C255 H271 0.960 . S
H256 C240 0.931 . S
H257 C245 0.929 . S
H258 C246 0.960 1_545 S
H259 C246 0.962 . S
H260 C246 0.960 1_545 S
H261 C247 0.961 . S
H262 C247 0.961 . S
H263 C247 0.961 . S
H264 C248 0.931 . S
H265 C253 0.930 1_545 S
H266 C254 0.956 . S
H267 C254 0.961 . S
H268 C254 0.961 . S
H269 C255 0.958 . S
H270 C255 0.961 . S
H271 C255 0.960 . S
C272 C273 1.391 . S
C272 C274 1.394 . S
C272 H288 0.931 . S
C273 C272 1.391 . S
C273 C277 1.376 . S
C274 C272 1.394 . S
C274 C275 1.369 . S
C274 C278 1.531 . S
C275 C274 1.369 . S
C275 C276 1.410 . S
C275 C283 1.503 1_554 S
C276 C275 1.410 . S
C276 C277 1.392 . S
C276 C279 1.511 . S
C277 C273 1.376 . S
C277 C276 1.392 . S
C277 H289 0.929 . S
C278 C274 1.531 . S
C278 H290 0.960 1_554 S
C278 H291 0.962 . S
C278 H292 0.960 . S
C279 C276 1.511 . S
C279 H293 0.961 1_565 S
C279 H294 0.961 1_554 S
C279 H295 0.961 . S
C280 C281 1.370 . S
C280 C282 1.363 . S
C280 H296 0.931 . S
C281 C280 1.370 . S
C281 C285 1.408 . S
C282 C280 1.363 . S
C282 C283 1.370 . S
C282 C286 1.524 1_565 S
C283 C275 1.503 1_556 S
C283 C282 1.370 . S
C283 C284 1.403 . S
C284 C283 1.403 . S
C284 C285 1.404 . S
C284 C287 1.539 . S
C285 C281 1.408 . S
C285 C284 1.404 . S
C285 H297 0.930 . S
C286 C282 1.524 1_545 S
C286 H298 0.984 1_545 S
C286 H299 0.961 1_556 S
C286 H300 0.961 . S
C287 C284 1.539 . S
C287 H301 0.958 . S
C287 H302 0.961 . S
C287 H303 0.970 . S
H288 C272 0.931 . S
H289 C277 0.929 . S
H290 C278 0.960 1_556 S
H291 C278 0.962 . S
H292 C278 0.960 . S
H293 C279 0.961 1_545 S
H294 C279 0.961 1_556 S
H295 C279 0.961 . S
H296 C280 0.931 . S
H297 C285 0.930 . S
H298 C286 0.984 1_565 S
H299 C286 0.961 1_554 S
H300 C286 0.961 . S
H301 C287 0.958 . S
H302 C287 0.961 . S
H303 C287 0.970 . S
C304 C305 1.391 . S
C304 C306 1.394 . S
C304 H320 0.931 1_545 S
C305 C304 1.391 . S
C305 C309 1.376 . S
C306 C304 1.394 . S
C306 C307 1.369 . S
C306 C310 1.531 1_545 S
C307 C306 1.369 . S
C307 C308 1.410 . S
C307 C315 1.503 1_556 S
C308 C307 1.410 . S
C308 C309 1.392 . S
C308 C311 1.511 . S
C309 C305 1.376 . S
C309 C308 1.392 . S
C309 H321 0.929 . S
C310 C306 1.531 1_565 S
C310 H322 0.960 1_556 S
C310 H323 0.962 . S
C310 H324 0.960 . S
C311 C308 1.511 . S
C311 H325 0.961 . S
C311 H326 0.961 1_556 S
C311 H327 0.961 . S
C312 C313 1.370 . S
C312 C314 1.363 . S
C312 H328 0.931 . S
C313 C312 1.370 . S
C313 C317 1.408 . S
C314 C312 1.363 . S
C314 C315 1.370 . S
C314 C318 1.524 . S
C315 C307 1.503 1_554 S
C315 C314 1.370 . S
C315 C316 1.403 . S
C316 C315 1.403 . S
C316 C317 1.404 . S
C316 C319 1.539 1_545 S
C317 C313 1.408 . S
C317 C316 1.404 . S
C317 H329 0.930 . S
C318 C314 1.524 . S
C318 H330 0.984 . S
C318 H331 0.961 1_554 S
C318 H332 0.961 . S
C319 C316 1.539 1_565 S
C319 H333 0.958 . S
C319 H334 0.961 . S
C319 H335 0.969 1_565 S
H320 C304 0.931 1_565 S
H321 C309 0.929 . S
H322 C310 0.960 1_554 S
H323 C310 0.962 . S
H324 C310 0.960 . S
H325 C311 0.961 . S
H326 C311 0.961 1_554 S
H327 C311 0.961 . S
H328 C312 0.931 . S
H329 C317 0.930 . S
H330 C318 0.984 . S
H331 C318 0.961 1_556 S
H332 C318 0.961 . S
H333 C319 0.958 . S
H334 C319 0.961 . S
H335 C319 0.969 1_545 S
C336 C337 1.391 . S
C336 C338 1.394 . S
C336 H352 0.931 . S
C337 C336 1.391 . S
C337 C341 1.376 . S
C338 C336 1.394 . S
C338 C339 1.369 . S
C338 C342 1.531 . S
C339 C338 1.369 . S
C339 C340 1.410 . S
C339 C347 1.503 . S
C340 C339 1.410 . S
C340 C341 1.392 . S
C340 C343 1.511 . S
C341 C337 1.376 . S
C341 C340 1.392 . S
C341 H353 0.929 . S
C342 C338 1.531 . S
C342 H354 0.960 . S
C342 H355 0.962 . S
C342 H356 0.960 . S
C343 C340 1.511 . S
C343 H357 0.961 . S
C343 H358 0.961 . S
C343 H359 0.961 . S
C344 C345 1.370 . S
C344 C346 1.363 . S
C344 H360 0.931 . S
C345 C344 1.370 . S
C345 C349 1.408 . S
C346 C344 1.363 . S
C346 C347 1.370 . S
C346 C350 1.524 . S
C347 C339 1.503 . S
C347 C346 1.370 . S
C347 C348 1.403 . S
C348 C347 1.403 . S
C348 C349 1.404 . S
C348 C351 1.539 . S
C349 C345 1.408 . S
C349 C348 1.404 . S
C349 H361 0.930 . S
C350 C346 1.524 . S
C350 H362 0.956 . S
C350 H363 0.961 . S
C350 H364 0.961 . S
C351 C348 1.539 . S
C351 H365 0.958 . S
C351 H366 0.961 . S
C351 H367 0.960 . S
H352 C336 0.931 . S
H353 C341 0.929 . S
H354 C342 0.960 . S
H355 C342 0.962 . S
H356 C342 0.960 . S
H357 C343 0.961 . S
H358 C343 0.961 . S
H359 C343 0.961 . S
H360 C344 0.931 . S
H361 C349 0.930 . S
H362 C350 0.956 . S
H363 C350 0.961 . S
H364 C350 0.961 . S
H365 C351 0.958 . S
H366 C351 0.961 . S
H367 C351 0.960 . S
C368 C369 1.391 . S
C368 C370 1.394 . S
C368 H384 0.931 . S
C369 C368 1.391 . S
C369 C373 1.376 . S
C370 C368 1.394 . S
C370 C371 1.369 . S
C370 C374 1.531 . S
C371 C370 1.369 . S
C371 C372 1.410 . S
C371 C379 1.503 . S
C372 C371 1.410 . S
C372 C373 1.392 . S
C372 C375 1.511 . S
C373 C369 1.376 . S
C373 C372 1.392 . S
C373 H385 0.929 . S
C374 C370 1.531 . S
C374 H386 0.960 . S
C374 H387 0.962 . S
C374 H388 0.960 . S
C375 C372 1.511 . S
C375 H389 0.961 . S
C375 H390 0.961 . S
C375 H391 0.961 . S
C376 C377 1.370 . S
C376 C378 1.363 . S
C376 H392 0.931 . S
C377 C376 1.370 . S
C377 C381 1.408 . S
C378 C376 1.363 . S
C378 C379 1.370 . S
C378 C382 1.524 . S
C379 C371 1.503 . S
C379 C378 1.370 . S
C379 C380 1.403 . S
C380 C379 1.403 . S
C380 C381 1.404 . S
C380 C383 1.539 . S
C381 C377 1.408 . S
C381 C380 1.404 . S
C381 H393 0.930 . S
C382 C378 1.524 . S
C382 H394 0.956 . S
C382 H395 0.961 . S
C382 H396 0.961 . S
C383 C380 1.539 . S
C383 H397 0.958 . S
C383 H398 0.961 . S
C383 H399 0.960 . S
H384 C368 0.931 . S
H385 C373 0.929 . S
H386 C374 0.960 . S
H387 C374 0.962 . S
H388 C374 0.960 . S
H389 C375 0.961 . S
H390 C375 0.961 . S
H391 C375 0.961 . S
H392 C376 0.931 . S
H393 C381 0.930 . S
H394 C382 0.956 . S
H395 C382 0.961 . S
H396 C382 0.961 . S
H397 C383 0.958 . S
H398 C383 0.961 . S
H399 C383 0.960 . S
C400 C401 1.391 . S
C400 C402 1.394 . S
C400 H416 0.931 . S
C401 C400 1.391 . S
C401 C405 1.376 . S
C402 C400 1.394 . S
C402 C403 1.369 . S
C402 C406 1.531 . S
C403 C402 1.369 . S
C403 C404 1.410 . S
C403 C411 1.503 1_556 S
C404 C403 1.410 . S
C404 C405 1.392 . S
C404 C407 1.511 . S
C405 C401 1.376 . S
C405 C404 1.392 . S
C405 H417 0.929 . S
C406 C402 1.531 . S
C406 H418 0.960 1_556 S
C406 H419 0.962 . S
C406 H420 0.960 . S
C407 C404 1.511 . S
C407 H421 0.961 . S
C407 H422 0.961 1_556 S
C407 H423 0.961 . S
C408 C409 1.370 . S
C408 C410 1.363 . S
C408 H424 0.931 . S
C409 C408 1.370 . S
C409 C413 1.408 . S
C410 C408 1.363 . S
C410 C411 1.370 . S
C410 C414 1.524 . S
C411 C403 1.503 1_554 S
C411 C410 1.370 . S
C411 C412 1.403 . S
C412 C411 1.403 . S
C412 C413 1.404 . S
C412 C415 1.539 . S
C413 C409 1.408 . S
C413 C412 1.404 . S
C413 H425 0.930 . S
C414 C410 1.524 . S
C414 H426 0.984 . S
C414 H427 0.961 1_554 S
C414 H428 0.961 . S
C415 C412 1.539 . S
C415 H429 0.958 . S
C415 H430 0.961 . S
C415 H431 0.969 . S
H416 C400 0.931 . S
H417 C405 0.929 . S
H418 C406 0.960 1_554 S
H419 C406 0.962 . S
H420 C406 0.960 . S
H421 C407 0.961 . S
H422 C407 0.961 1_554 S
H423 C407 0.961 . S
H424 C408 0.931 . S
H425 C413 0.930 . S
H426 C414 0.984 . S
H427 C414 0.961 1_556 S
H428 C414 0.961 . S
H429 C415 0.958 . S
H430 C415 0.961 . S
H431 C415 0.969 . S
C432 C433 1.391 . S
C432 C434 1.394 . S
C432 H448 0.931 . S
C433 C432 1.391 . S
C433 C437 1.376 . S
C434 C432 1.394 . S
C434 C435 1.369 . S
C434 C438 1.531 . S
C435 C434 1.369 . S
C435 C436 1.410 . S
C435 C443 1.503 1_554 S
C436 C435 1.410 . S
C436 C437 1.392 . S
C436 C439 1.511 . S
C437 C433 1.376 . S
C437 C436 1.392 . S
C437 H449 0.929 . S
C438 C434 1.531 . S
C438 H450 0.960 1_554 S
C438 H451 0.962 . S
C438 H452 0.960 . S
C439 C436 1.511 . S
C439 H453 0.961 . S
C439 H454 0.961 1_554 S
C439 H455 0.961 . S
C440 C441 1.370 . S
C440 C442 1.363 . S
C440 H456 0.931 . S
C441 C440 1.370 . S
C441 C445 1.408 . S
C442 C440 1.363 . S
C442 C443 1.370 . S
C442 C446 1.524 . S
C443 C435 1.503 1_556 S
C443 C442 1.370 . S
C443 C444 1.403 . S
C444 C443 1.403 . S
C444 C445 1.404 . S
C444 C447 1.539 . S
C445 C441 1.408 . S
C445 C444 1.404 . S
C445 H457 0.930 . S
C446 C442 1.524 . S
C446 H458 0.984 . S
C446 H459 0.961 1_556 S
C446 H460 0.961 . S
C447 C444 1.539 . S
C447 H461 0.958 . S
C447 H462 0.961 . S
C447 H463 0.970 . S
H448 C432 0.931 . S
H449 C437 0.929 . S
H450 C438 0.960 1_556 S
H451 C438 0.962 . S
H452 C438 0.960 . S
H453 C439 0.961 . S
H454 C439 0.961 1_556 S
H455 C439 0.961 . S
H456 C440 0.931 . S
H457 C445 0.930 . S
H458 C446 0.984 . S
H459 C446 0.961 1_554 S
H460 C446 0.961 . S
H461 C447 0.958 . S
H462 C447 0.961 . S
H463 C447 0.970 . S
C464 C465 1.391 . S
C464 C466 1.394 . S
C464 H480 0.931 . S
C465 C464 1.391 . S
C465 C469 1.376 1_565 S
C466 C464 1.394 . S
C466 C467 1.369 1_565 S
C466 C470 1.531 . S
C467 C466 1.369 1_545 S
C467 C468 1.410 . S
C467 C475 1.503 . S
C468 C467 1.410 . S
C468 C469 1.392 . S
C468 C471 1.511 . S
C469 C465 1.376 1_545 S
C469 C468 1.392 . S
C469 H481 0.929 . S
C470 C466 1.531 . S
C470 H482 0.960 . S
C470 H483 0.962 . S
C470 H484 0.960 . S
C471 C468 1.511 . S
C471 H485 0.961 . S
C471 H486 0.961 . S
C471 H487 0.961 . S
C472 C473 1.370 1_565 S
C472 C474 1.363 . S
C472 H488 0.931 . S
C473 C472 1.370 1_545 S
C473 C477 1.408 . S
C474 C472 1.363 . S
C474 C475 1.370 1_565 S
C474 C478 1.524 . S
C475 C467 1.503 . S
C475 C474 1.370 1_545 S
C475 C476 1.403 . S
C476 C475 1.403 . S
C476 C477 1.404 . S
C476 C479 1.539 . S
C477 C473 1.408 . S
C477 C476 1.404 . S
C477 H489 0.930 . S
C478 C474 1.524 . S
C478 H490 0.956 . S
C478 H491 0.961 . S
C478 H492 0.961 . S
C479 C476 1.539 . S
C479 H493 0.958 . S
C479 H494 0.961 . S
C479 H495 0.960 . S
H480 C464 0.931 . S
H481 C469 0.929 . S
H482 C470 0.960 . S
H483 C470 0.962 . S
H484 C470 0.960 . S
H485 C471 0.961 . S
H486 C471 0.961 . S
H487 C471 0.961 . S
H488 C472 0.931 . S
H489 C477 0.930 . S
H490 C478 0.956 . S
H491 C478 0.961 . S
H492 C478 0.961 . S
H493 C479 0.958 . S
H494 C479 0.961 . S
H495 C479 0.960 . S
C496 C497 1.391 . S
C496 C498 1.394 . S
C496 H512 0.931 . S
C497 C496 1.391 . S
C497 C501 1.376 . S
C498 C496 1.394 . S
C498 C499 1.369 . S
C498 C502 1.531 . S
C499 C498 1.369 . S
C499 C500 1.410 . S
C499 C507 1.503 . S
C500 C499 1.410 . S
C500 C501 1.392 . S
C500 C503 1.511 1_565 S
C501 C497 1.376 . S
C501 C500 1.392 . S
C501 H513 0.929 . S
C502 C498 1.531 . S
C502 H514 0.960 . S
C502 H515 0.962 . S
C502 H516 0.960 . S
C503 C500 1.511 1_545 S
C503 H517 0.961 . S
C503 H518 0.961 . S
C503 H519 0.961 1_545 S
C504 C505 1.370 . S
C504 C506 1.363 . S
C504 H520 0.931 . S
C505 C504 1.370 . S
C505 C509 1.408 1_545 S
C506 C504 1.363 . S
C506 C507 1.370 1_545 S
C506 C510 1.524 . S
C507 C499 1.503 . S
C507 C506 1.370 1_565 S
C507 C508 1.403 . S
C508 C507 1.403 . S
C508 C509 1.404 . S
C508 C511 1.539 . S
C509 C505 1.408 1_565 S
C509 C508 1.404 . S
C509 H521 0.930 . S
C510 C506 1.524 . S
C510 H522 0.956 . S
C510 H523 0.961 . S
C510 H524 0.961 . S
C511 C508 1.539 . S
C511 H525 0.958 . S
C511 H526 0.961 . S
C511 H527 0.960 . S
H512 C496 0.931 . S
H513 C501 0.929 . S
H514 C502 0.960 . S
H515 C502 0.962 . S
H516 C502 0.960 . S
H517 C503 0.961 . S
H518 C503 0.961 . S
H519 C503 0.961 1_565 S
H520 C504 0.931 . S
H521 C509 0.930 . S
H522 C510 0.956 . S
H523 C510 0.961 . S
H524 C510 0.961 . S
H525 C511 0.958 . S
H526 C511 0.961 . S
H527 C511 0.960 . S
C528 C529 1.391 1_545 S
C528 C530 1.394 . S
C528 H544 0.931 . S
C529 C528 1.391 1_565 S
C529 C533 1.376 . S
C530 C528 1.394 . S
C530 C531 1.369 1_545 S
C530 C534 1.531 . S
C531 C530 1.369 1_565 S
C531 C532 1.410 . S
C531 C539 1.503 1_565 S
C532 C531 1.410 . S
C532 C533 1.392 . S
C532 C535 1.511 . S
C533 C529 1.376 . S
C533 C532 1.392 . S
C533 H545 0.929 . S
C534 C530 1.531 . S
C534 H546 0.960 . S
C534 H547 0.962 . S
C534 H548 0.960 . S
C535 C532 1.511 . S
C535 H549 0.961 . S
C535 H550 0.961 . S
C535 H551 0.961 . S
C536 C537 1.370 . S
C536 C538 1.363 . S
C536 H552 0.931 . S
C537 C536 1.370 . S
C537 C541 1.408 1_545 S
C538 C536 1.363 . S
C538 C539 1.373 . S
C538 C542 1.524 . S
C539 C531 1.503 1_545 S
C539 C538 1.373 . S
C539 C540 1.401 1_545 S
C540 C539 1.401 1_565 S
C540 C541 1.404 . S
C540 C543 1.539 . S
C541 C537 1.408 1_565 S
C541 C540 1.404 . S
C541 H553 0.930 . S
C542 C538 1.524 . S
C542 H554 0.956 . S
C542 H555 0.961 . S
C542 H556 0.961 . S
C543 C540 1.539 . S
C543 H557 0.958 . S
C543 H558 0.961 . S
C543 H559 0.960 . S
H544 C528 0.931 . S
H545 C533 0.929 . S
H546 C534 0.960 . S
H547 C534 0.962 . S
H548 C534 0.960 . S
H549 C535 0.961 . S
H550 C535 0.961 . S
H551 C535 0.961 . S
H552 C536 0.931 . S
H553 C541 0.930 . S
H554 C542 0.956 . S
H555 C542 0.961 . S
H556 C542 0.961 . S
H557 C543 0.958 . S
H558 C543 0.961 . S
H559 C543 0.960 . S
C560 C561 1.391 1_565 S
C560 C562 1.394 . S
C560 H576 0.931 . S
C561 C560 1.391 1_545 S
C561 C565 1.376 . S
C562 C560 1.394 . S
C562 C563 1.369 1_565 S
C562 C566 1.531 . S
C563 C562 1.369 1_545 S
C563 C564 1.410 . S
C563 C571 1.503 . S
C564 C563 1.410 . S
C564 C565 1.392 . S
C564 C567 1.511 . S
C565 C561 1.376 . S
C565 C564 1.392 . S
C565 H577 0.929 . S
C566 C562 1.531 . S
C566 H578 0.960 . S
C566 H579 0.962 . S
C566 H580 0.960 . S
C567 C564 1.511 . S
C567 H581 0.961 . S
C567 H582 0.961 . S
C567 H583 0.961 . S
C568 C569 1.370 . S
C568 C570 1.363 . S
C568 H584 0.931 . S
C569 C568 1.370 . S
C569 C573 1.408 1_565 S
C570 C568 1.363 . S
C570 C571 1.370 1_565 S
C570 C574 1.524 . S
C571 C563 1.503 . S
C571 C570 1.370 1_545 S
C571 C572 1.403 . S
C572 C571 1.403 . S
C572 C573 1.404 . S
C572 C575 1.539 . S
C573 C569 1.408 1_545 S
C573 C572 1.404 . S
C573 H585 0.930 . S
C574 C570 1.524 . S
C574 H586 0.956 . S
C574 H587 0.961 . S
C574 H588 0.961 . S
C575 C572 1.539 . S
C575 H589 0.958 . S
C575 H590 0.961 . S
C575 H591 0.960 . S
H576 C560 0.931 . S
H577 C565 0.929 . S
H578 C566 0.960 . S
H579 C566 0.962 . S
H580 C566 0.960 . S
H581 C567 0.961 . S
H582 C567 0.961 . S
H583 C567 0.961 . S
H584 C568 0.931 . S
H585 C573 0.930 . S
H586 C574 0.956 . S
H587 C574 0.961 . S
H588 C574 0.961 . S
H589 C575 0.958 . S
H590 C575 0.961 . S
H591 C575 0.960 . S
C592 C593 1.391 . S
C592 C594 1.394 . S
C592 H608 0.931 . S
C593 C592 1.391 . S
C593 C597 1.376 . S
C594 C592 1.394 . S
C594 C595 1.369 . S
C594 C598 1.531 . S
C595 C594 1.369 . S
C595 C596 1.410 . S
C595 C603 1.503 1_655 S
C596 C595 1.410 . S
C596 C597 1.392 . S
C596 C599 1.511 . S
C597 C593 1.376 . S
C597 C596 1.392 . S
C597 H609 0.929 . S
C598 C594 1.531 . S
C598 H610 0.960 . S
C598 H611 0.962 . S
C598 H612 0.960 . S
C599 C596 1.511 . S
C599 H613 0.961 . S
C599 H614 0.961 1_655 S
C599 H615 0.961 . S
C600 C601 1.370 . S
C600 C602 1.363 . S
C600 H616 0.931 . S
C601 C600 1.370 . S
C601 C605 1.408 . S
C602 C600 1.363 . S
C602 C603 1.370 . S
C602 C606 1.524 . S
C603 C595 1.503 1_455 S
C603 C602 1.370 . S
C603 C604 1.403 . S
C604 C603 1.403 . S
C604 C605 1.404 . S
C604 C607 1.539 . S
C605 C601 1.408 . S
C605 C604 1.404 . S
C605 H617 0.930 . S
C606 C602 1.524 . S
C606 H618 0.949 1_455 S
C606 H619 0.960 . S
C606 H620 0.961 . S
C607 C604 1.539 . S
C607 H621 0.958 . S
C607 H622 0.961 . S
C607 H623 0.960 . S
H608 C592 0.931 . S
H609 C597 0.929 . S
H610 C598 0.960 . S
H611 C598 0.962 . S
H612 C598 0.960 . S
H613 C599 0.961 . S
H614 C599 0.961 1_455 S
H615 C599 0.961 . S
H616 C600 0.931 . S
H617 C605 0.930 . S
H618 C606 0.949 1_655 S
H619 C606 0.960 . S
H620 C606 0.961 . S
H621 C607 0.958 . S
H622 C607 0.961 . S
H623 C607 0.960 . S
C624 C625 1.391 . S
C624 C626 1.394 . S
C624 H640 0.931 . S
C625 C624 1.391 . S
C625 C629 1.376 . S
C626 C624 1.394 . S
C626 C627 1.369 . S
C626 C630 1.531 . S
C627 C626 1.369 . S
C627 C628 1.410 . S
C627 C635 1.503 1_455 S
C628 C627 1.410 . S
C628 C629 1.392 . S
C628 C631 1.511 . S
C629 C625 1.376 . S
C629 C628 1.392 . S
C629 H641 0.929 . S
C630 C626 1.531 . S
C630 H642 0.960 1_455 S
C630 H643 0.962 . S
C630 H644 0.960 . S
C631 C628 1.511 . S
C631 H645 0.961 . S
C631 H646 0.961 . S
C631 H647 0.961 . S
C632 C633 1.370 . S
C632 C634 1.363 . S
C632 H648 0.931 . S
C633 C632 1.370 . S
C633 C637 1.408 . S
C634 C632 1.363 . S
C634 C635 1.370 . S
C634 C638 1.524 . S
C635 C627 1.503 1_655 S
C635 C634 1.370 . S
C635 C636 1.403 . S
C636 C635 1.403 . S
C636 C637 1.404 . S
C636 C639 1.539 . S
C637 C633 1.408 . S
C637 C636 1.404 . S
C637 H649 0.930 . S
C638 C634 1.524 . S
C638 H650 0.956 . S
C638 H651 0.950 1_655 S
C638 H652 0.961 . S
C639 C636 1.539 . S
C639 H653 0.958 . S
C639 H654 0.961 . S
C639 H655 0.960 1_655 S
H640 C624 0.931 . S
H641 C629 0.929 . S
H642 C630 0.960 1_655 S
H643 C630 0.962 . S
H644 C630 0.960 . S
H645 C631 0.961 . S
H646 C631 0.961 . S
H647 C631 0.961 . S
H648 C632 0.931 . S
H649 C637 0.930 . S
H650 C638 0.956 . S
H651 C638 0.950 1_455 S
H652 C638 0.961 . S
H653 C639 0.958 . S
H654 C639 0.961 . S
H655 C639 0.960 1_455 S
C656 C657 1.391 . S
C656 C658 1.394 . S
C656 H672 0.931 . S
C657 C656 1.391 . S
C657 C661 1.376 . S
C658 C656 1.394 . S
C658 C659 1.369 . S
C658 C662 1.531 . S
C659 C658 1.369 . S
C659 C660 1.410 . S
C659 C667 1.503 1_655 S
C660 C659 1.410 . S
C660 C661 1.392 . S
C660 C663 1.511 . S
C661 C657 1.376 . S
C661 C660 1.392 . S
C661 H673 0.929 . S
C662 C658 1.531 . S
C662 H674 1.006 . S
C662 H675 0.962 . S
C662 H676 0.960 . S
C663 C660 1.511 . S
C663 H677 0.961 . S
C663 H678 0.961 1_655 S
C663 H679 0.961 . S
C664 C665 1.370 . S
C664 C666 1.363 . S
C664 H680 0.931 . S
C665 C664 1.370 . S
C665 C669 1.408 . S
C666 C664 1.363 . S
C666 C667 1.370 . S
C666 C670 1.524 . S
C667 C659 1.503 1_455 S
C667 C666 1.370 . S
C667 C668 1.403 . S
C668 C667 1.403 . S
C668 C669 1.404 . S
C668 C671 1.539 . S
C669 C665 1.408 . S
C669 C668 1.404 . S
C669 H681 0.930 . S
C670 C666 1.524 . S
C670 H682 0.956 1_455 S
C670 H683 0.961 1_455 S
C670 H684 0.961 . S
C671 C668 1.539 . S
C671 H685 0.958 . S
C671 H686 0.961 . S
C671 H687 0.960 . S
H672 C656 0.931 . S
H673 C661 0.929 . S
H674 C662 1.006 . S
H675 C662 0.962 . S
H676 C662 0.960 . S
H677 C663 0.961 . S
H678 C663 0.961 1_455 S
H679 C663 0.961 . S
H680 C664 0.931 . S
H681 C669 0.930 . S
H682 C670 0.956 1_655 S
H683 C670 0.961 1_655 S
H684 C670 0.961 . S
H685 C671 0.958 . S
H686 C671 0.961 . S
H687 C671 0.960 . S
C688 C689 1.391 . S
C688 C690 1.394 . S
C688 H704 0.931 . S
C689 C688 1.391 . S
C689 C693 1.376 . S
C690 C688 1.394 . S
C690 C691 1.369 . S
C690 C694 1.531 . S
C691 C690 1.369 . S
C691 C692 1.410 . S
C691 C699 1.503 1_455 S
C692 C691 1.410 . S
C692 C693 1.392 . S
C692 C695 1.511 . S
C693 C689 1.376 . S
C693 C692 1.392 . S
C693 H705 0.929 . S
C694 C690 1.531 . S
C694 H706 0.987 . S
C694 H707 0.962 . S
C694 H708 0.960 . S
C695 C692 1.511 . S
C695 H709 0.961 . S
C695 H710 0.961 1_455 S
C695 H711 0.961 . S
C696 C697 1.370 . S
C696 C698 1.363 . S
C696 H712 0.931 . S
C697 C696 1.370 . S
C697 C701 1.408 . S
C698 C696 1.363 . S
C698 C699 1.370 . S
C698 C702 1.524 . S
C699 C691 1.503 1_655 S
C699 C698 1.370 . S
C699 C700 1.403 . S
C700 C699 1.403 . S
C700 C701 1.404 . S
C700 C703 1.539 . S
C701 C697 1.408 . S
C701 C700 1.404 . S
C701 H713 0.930 . S
C702 C698 1.524 . S
C702 H714 0.956 1_655 S
C702 H715 0.961 1_655 S
C702 H716 0.961 . S
C703 C700 1.539 . S
C703 H717 0.958 . S
C703 H718 0.961 . S
C703 H719 0.960 . S
H704 C688 0.931 . S
H705 C693 0.929 . S
H706 C694 0.987 . S
H707 C694 0.962 . S
H708 C694 0.960 . S
H709 C695 0.961 . S
H710 C695 0.961 1_655 S
H711 C695 0.961 . S
H712 C696 0.931 . S
H713 C701 0.930 . S
H714 C702 0.956 1_455 S
H715 C702 0.961 1_455 S
H716 C702 0.961 . S
H717 C703 0.958 . S
H718 C703 0.961 . S
H719 C703 0.960 . S
C720 C721 1.391 . S
C720 C722 1.394 . S
C720 H736 0.931 . S
C721 C720 1.391 . S
C721 C725 1.376 . S
C722 C720 1.394 . S
C722 C723 1.369 . S
C722 C726 1.531 . S
C723 C722 1.369 . S
C723 C724 1.410 . S
C723 C731 1.503 . S
C724 C723 1.410 . S
C724 C725 1.392 . S
C724 C727 1.511 . S
C725 C721 1.376 . S
C725 C724 1.392 . S
C725 H737 0.929 . S
C726 C722 1.531 . S
C726 H738 0.960 . S
C726 H739 0.962 . S
C726 H740 0.960 . S
C727 C724 1.511 . S
C727 H741 0.961 . S
C727 H742 0.961 . S
C727 H743 0.961 . S
C728 C729 1.370 . S
C728 C730 1.363 . S
C728 H744 0.931 . S
C729 C728 1.370 . S
C729 C733 1.408 . S
C730 C728 1.363 . S
C730 C731 1.370 . S
C730 C734 1.524 . S
C731 C723 1.503 . S
C731 C730 1.370 . S
C731 C732 1.403 . S
C732 C731 1.403 . S
C732 C733 1.404 . S
C732 C735 1.539 . S
C733 C729 1.408 . S
C733 C732 1.404 . S
C733 H745 0.930 . S
C734 C730 1.524 . S
C734 H746 0.956 . S
C734 H747 0.961 . S
C734 H748 0.961 . S
C735 C732 1.539 . S
C735 H749 0.958 . S
C735 H750 0.961 . S
C735 H751 0.960 . S
H736 C720 0.931 . S
H737 C725 0.929 . S
H738 C726 0.960 . S
H739 C726 0.962 . S
H740 C726 0.960 . S
H741 C727 0.961 . S
H742 C727 0.961 . S
H743 C727 0.961 . S
H744 C728 0.931 . S
H745 C733 0.930 . S
H746 C734 0.956 . S
H747 C734 0.961 . S
H748 C734 0.961 . S
H749 C735 0.958 . S
H750 C735 0.961 . S
H751 C735 0.960 . S
C752 C753 1.391 . S
C752 C754 1.394 . S
C752 H768 0.931 . S
C753 C752 1.391 . S
C753 C757 1.376 . S
C754 C752 1.394 . S
C754 C755 1.369 . S
C754 C758 1.531 . S
C755 C754 1.369 . S
C755 C756 1.410 . S
C755 C763 1.503 . S
C756 C755 1.410 . S
C756 C757 1.392 . S
C756 C759 1.511 . S
C757 C753 1.376 . S
C757 C756 1.392 . S
C757 H769 0.929 . S
C758 C754 1.531 . S
C758 H770 0.960 . S
C758 H771 0.962 . S
C758 H772 0.960 . S
C759 C756 1.511 . S
C759 H773 0.961 . S
C759 H774 0.961 . S
C759 H775 0.961 . S
C760 C761 1.370 . S
C760 C762 1.363 . S
C760 H776 0.931 . S
C761 C760 1.370 . S
C761 C765 1.408 . S
C762 C760 1.363 . S
C762 C763 1.370 . S
C762 C766 1.524 . S
C763 C755 1.503 . S
C763 C762 1.370 . S
C763 C764 1.403 . S
C764 C763 1.403 . S
C764 C765 1.404 . S
C764 C767 1.539 . S
C765 C761 1.408 . S
C765 C764 1.404 . S
C765 H777 0.930 . S
C766 C762 1.524 . S
C766 H778 0.956 . S
C766 H779 0.961 . S
C766 H780 0.961 . S
C767 C764 1.539 . S
C767 H781 0.958 . S
C767 H782 0.961 . S
C767 H783 0.960 . S
H768 C752 0.931 . S
H769 C757 0.929 . S
H770 C758 0.960 . S
H771 C758 0.962 . S
H772 C758 0.960 . S
H773 C759 0.961 . S
H774 C759 0.961 . S
H775 C759 0.961 . S
H776 C760 0.931 . S
H777 C765 0.930 . S
H778 C766 0.956 . S
H779 C766 0.961 . S
H780 C766 0.961 . S
H781 C767 0.958 . S
H782 C767 0.961 . S
H783 C767 0.960 . S
C784 C785 1.391 . S
C784 C786 1.394 . S
C784 H800 0.931 . S
C785 C784 1.391 . S
C785 C789 1.376 . S
C786 C784 1.394 . S
C786 C787 1.369 . S
C786 C790 1.531 . S
C787 C786 1.369 . S
C787 C788 1.410 . S
C787 C795 1.503 . S
C788 C787 1.410 . S
C788 C789 1.392 . S
C788 C791 1.511 . S
C789 C785 1.376 . S
C789 C788 1.392 . S
C789 H801 0.929 . S
C790 C786 1.531 . S
C790 H802 0.960 . S
C790 H803 0.962 . S
C790 H804 0.960 . S
C791 C788 1.511 . S
C791 H805 0.961 . S
C791 H806 0.961 . S
C791 H807 0.961 . S
C792 C793 1.370 . S
C792 C794 1.363 . S
C792 H808 0.931 . S
C793 C792 1.370 . S
C793 C797 1.408 . S
C794 C792 1.363 . S
C794 C795 1.370 . S
C794 C798 1.524 . S
C795 C787 1.503 . S
C795 C794 1.370 . S
C795 C796 1.403 . S
C796 C795 1.403 . S
C796 C797 1.404 . S
C796 C799 1.539 . S
C797 C793 1.408 . S
C797 C796 1.404 . S
C797 H809 0.930 . S
C798 C794 1.524 . S
C798 H810 0.956 . S
C798 H811 0.961 . S
C798 H812 0.961 . S
C799 C796 1.539 . S
C799 H813 0.958 . S
C799 H814 0.961 . S
C799 H815 0.960 . S
H800 C784 0.931 . S
H801 C789 0.929 . S
H802 C790 0.960 . S
H803 C790 0.962 . S
H804 C790 0.960 . S
H805 C791 0.961 . S
H806 C791 0.961 . S
H807 C791 0.961 . S
H808 C792 0.931 . S
H809 C797 0.930 . S
H810 C798 0.956 . S
H811 C798 0.961 . S
H812 C798 0.961 . S
H813 C799 0.958 . S
H814 C799 0.961 . S
H815 C799 0.960 . S
C816 C817 1.391 . S
C816 C818 1.394 . S
C816 H832 0.931 . S
C817 C816 1.391 . S
C817 C821 1.376 . S
C818 C816 1.394 . S
C818 C819 1.369 . S
C818 C822 1.531 . S
C819 C818 1.369 . S
C819 C820 1.410 . S
C819 C827 1.503 . S
C820 C819 1.410 . S
C820 C821 1.392 . S
C820 C823 1.511 . S
C821 C817 1.376 . S
C821 C820 1.392 . S
C821 H833 0.929 . S
C822 C818 1.531 . S
C822 H834 0.960 . S
C822 H835 0.962 . S
C822 H836 0.960 . S
C823 C820 1.511 . S
C823 H837 0.961 . S
C823 H838 0.961 . S
C823 H839 0.961 . S
C824 C825 1.370 . S
C824 C826 1.363 . S
C824 H840 0.931 . S
C825 C824 1.370 . S
C825 C829 1.408 . S
C826 C824 1.363 . S
C826 C827 1.370 . S
C826 C830 1.524 . S
C827 C819 1.503 . S
C827 C826 1.370 . S
C827 C828 1.403 . S
C828 C827 1.403 . S
C828 C829 1.404 . S
C828 C831 1.539 . S
C829 C825 1.408 . S
C829 C828 1.404 . S
C829 H841 0.930 . S
C830 C826 1.524 . S
C830 H842 0.956 . S
C830 H843 0.961 . S
C830 H844 0.961 . S
C831 C828 1.539 . S
C831 H845 0.958 . S
C831 H846 0.961 . S
C831 H847 0.960 . S
H832 C816 0.931 . S
H833 C821 0.929 . S
H834 C822 0.960 . S
H835 C822 0.962 . S
H836 C822 0.960 . S
H837 C823 0.961 . S
H838 C823 0.961 . S
H839 C823 0.961 . S
H840 C824 0.931 . S
H841 C829 0.930 . S
H842 C830 0.956 . S
H843 C830 0.961 . S
H844 C830 0.961 . S
H845 C831 0.958 . S
H846 C831 0.961 . S
H847 C831 0.960 . S
C848 C849 1.391 . S
C848 C850 1.394 . S
C848 H864 0.931 . S
C849 C848 1.391 . S
C849 C853 1.376 . S
C850 C848 1.394 . S
C850 C851 1.369 . S
C850 C854 1.531 . S
C851 C850 1.369 . S
C851 C852 1.410 . S
C851 C859 1.503 . S
C852 C851 1.410 . S
C852 C853 1.392 . S
C852 C855 1.511 . S
C853 C849 1.376 . S
C853 C852 1.392 . S
C853 H865 0.929 . S
C854 C850 1.531 . S
C854 H866 0.960 . S
C854 H867 0.962 . S
C854 H868 0.960 . S
C855 C852 1.511 . S
C855 H869 0.961 . S
C855 H870 0.961 . S
C855 H871 0.961 . S
C856 C857 1.370 . S
C856 C858 1.363 . S
C856 H872 0.931 . S
C857 C856 1.370 . S
C857 C861 1.408 . S
C858 C856 1.363 . S
C858 C859 1.370 . S
C858 C862 1.524 . S
C859 C851 1.503 . S
C859 C858 1.370 . S
C859 C860 1.403 . S
C860 C859 1.403 . S
C860 C861 1.404 . S
C860 C863 1.539 . S
C861 C857 1.408 . S
C861 C860 1.404 . S
C861 H873 0.930 . S
C862 C858 1.524 . S
C862 H874 0.956 . S
C862 H875 0.961 . S
C862 H876 0.961 . S
C863 C860 1.539 . S
C863 H877 0.958 . S
C863 H878 0.961 . S
C863 H879 0.960 . S
H864 C848 0.931 . S
H865 C853 0.929 . S
H866 C854 0.960 . S
H867 C854 0.962 . S
H868 C854 0.960 . S
H869 C855 0.961 . S
H870 C855 0.961 . S
H871 C855 0.961 . S
H872 C856 0.931 . S
H873 C861 0.930 . S
H874 C862 0.956 . S
H875 C862 0.961 . S
H876 C862 0.961 . S
H877 C863 0.958 . S
H878 C863 0.961 . S
H879 C863 0.960 . S
C880 C881 1.391 . S
C880 C882 1.394 . S
C880 H896 0.931 . S
C881 C880 1.391 . S
C881 C885 1.376 . S
C882 C880 1.394 . S
C882 C883 1.369 . S
C882 C886 1.531 . S
C883 C882 1.369 . S
C883 C884 1.410 . S
C883 C891 1.503 . S
C884 C883 1.410 . S
C884 C885 1.392 . S
C884 C887 1.511 . S
C885 C881 1.376 . S
C885 C884 1.392 . S
C885 H897 0.929 . S
C886 C882 1.531 . S
C886 H898 0.960 . S
C886 H899 0.962 . S
C886 H900 0.960 . S
C887 C884 1.511 . S
C887 H901 0.961 . S
C887 H902 0.961 . S
C887 H903 0.961 . S
C888 C889 1.370 . S
C888 C890 1.363 . S
C888 H904 0.931 . S
C889 C888 1.370 . S
C889 C893 1.408 . S
C890 C888 1.363 . S
C890 C891 1.370 . S
C890 C894 1.524 . S
C891 C883 1.503 . S
C891 C890 1.370 . S
C891 C892 1.403 . S
C892 C891 1.403 . S
C892 C893 1.404 . S
C892 C895 1.539 . S
C893 C889 1.408 . S
C893 C892 1.404 . S
C893 H905 0.930 . S
C894 C890 1.524 . S
C894 H906 0.956 . S
C894 H907 0.961 . S
C894 H908 0.961 . S
C895 C892 1.539 . S
C895 H909 0.958 . S
C895 H910 0.961 . S
C895 H911 0.960 . S
H896 C880 0.931 . S
H897 C885 0.929 . S
H898 C886 0.960 . S
H899 C886 0.962 . S
H900 C886 0.960 . S
H901 C887 0.961 . S
H902 C887 0.961 . S
H903 C887 0.961 . S
H904 C888 0.931 . S
H905 C893 0.930 . S
H906 C894 0.956 . S
H907 C894 0.961 . S
H908 C894 0.961 . S
H909 C895 0.958 . S
H910 C895 0.961 . S
H911 C895 0.960 . S
C912 C913 1.391 . S
C912 C914 1.394 . S
C912 H928 0.931 . S
C913 C912 1.391 . S
C913 C917 1.376 . S
C914 C912 1.394 . S
C914 C915 1.369 . S
C914 C918 1.531 . S
C915 C914 1.369 . S
C915 C916 1.410 . S
C915 C923 1.503 . S
C916 C915 1.410 . S
C916 C917 1.392 . S
C916 C919 1.511 . S
C917 C913 1.376 . S
C917 C916 1.392 . S
C917 H929 0.929 . S
C918 C914 1.531 . S
C918 H930 0.960 . S
C918 H931 0.962 . S
C918 H932 0.960 . S
C919 C916 1.511 . S
C919 H933 0.961 . S
C919 H934 0.961 . S
C919 H935 0.961 . S
C920 C921 1.370 . S
C920 C922 1.363 . S
C920 H936 0.931 . S
C921 C920 1.370 . S
C921 C925 1.408 . S
C922 C920 1.363 . S
C922 C923 1.370 . S
C922 C926 1.524 . S
C923 C915 1.503 . S
C923 C922 1.370 . S
C923 C924 1.403 . S
C924 C923 1.403 . S
C924 C925 1.404 . S
C924 C927 1.539 . S
C925 C921 1.408 . S
C925 C924 1.404 . S
C925 H937 0.930 . S
C926 C922 1.524 . S
C926 H938 0.956 . S
C926 H939 0.961 . S
C926 H940 0.961 . S
C927 C924 1.539 . S
C927 H941 0.958 . S
C927 H942 0.961 . S
C927 H943 0.960 . S
H928 C912 0.931 . S
H929 C917 0.929 . S
H930 C918 0.960 . S
H931 C918 0.962 . S
H932 C918 0.960 . S
H933 C919 0.961 . S
H934 C919 0.961 . S
H935 C919 0.961 . S
H936 C920 0.931 . S
H937 C925 0.930 . S
H938 C926 0.956 . S
H939 C926 0.961 . S
H940 C926 0.961 . S
H941 C927 0.958 . S
H942 C927 0.961 . S
H943 C927 0.960 . S
C944 C945 1.391 . S
C944 C946 1.394 . S
C944 H960 0.931 . S
C945 C944 1.391 . S
C945 C949 1.376 . S
C946 C944 1.394 . S
C946 C947 1.369 . S
C946 C950 1.531 . S
C947 C946 1.369 . S
C947 C948 1.410 . S
C947 C955 1.503 . S
C948 C947 1.410 . S
C948 C949 1.392 . S
C948 C951 1.511 . S
C949 C945 1.376 . S
C949 C948 1.392 . S
C949 H961 0.929 . S
C950 C946 1.531 . S
C950 H962 0.960 . S
C950 H963 0.962 . S
C950 H964 0.960 . S
C951 C948 1.511 . S
C951 H965 0.961 . S
C951 H966 0.961 . S
C951 H967 0.961 . S
C952 C953 1.370 . S
C952 C954 1.363 . S
C952 H968 0.931 . S
C953 C952 1.370 . S
C953 C957 1.408 . S
C954 C952 1.363 . S
C954 C955 1.370 . S
C954 C958 1.524 . S
C955 C947 1.503 . S
C955 C954 1.370 . S
C955 C956 1.403 . S
C956 C955 1.403 . S
C956 C957 1.404 . S
C956 C959 1.539 . S
C957 C953 1.408 . S
C957 C956 1.404 . S
C957 H969 0.930 . S
C958 C954 1.524 . S
C958 H970 0.956 . S
C958 H971 0.961 . S
C958 H972 0.961 . S
C959 C956 1.539 . S
C959 H973 0.958 . S
C959 H974 0.961 . S
C959 H975 0.960 . S
H960 C944 0.931 . S
H961 C949 0.929 . S
H962 C950 0.960 . S
H963 C950 0.962 . S
H964 C950 0.960 . S
H965 C951 0.961 . S
H966 C951 0.961 . S
H967 C951 0.961 . S
H968 C952 0.931 . S
H969 C957 0.930 . S
H970 C958 0.956 . S
H971 C958 0.961 . S
H972 C958 0.961 . S
H973 C959 0.958 . S
H974 C959 0.961 . S
H975 C959 0.960 . S
C976 C977 1.391 1_565 S
C976 C978 1.394 . S
C976 H992 0.931 . S
C977 C976 1.391 1_545 S
C977 C981 1.376 . S
C978 C976 1.394 . S
C978 C979 1.369 . S
C978 C982 1.531 . S
C979 C978 1.369 . S
C979 C980 1.410 1_565 S
C979 C987 1.503 . S
C980 C979 1.410 1_545 S
C980 C981 1.392 . S
C980 C983 1.511 . S
C981 C977 1.376 . S
C981 C980 1.392 . S
C981 H993 0.929 . S
C982 C978 1.531 . S
C982 H994 0.960 . S
C982 H995 0.962 . S
C982 H996 0.960 . S
C983 C980 1.511 . S
C983 H997 0.961 . S
C983 H998 0.961 . S
C983 H999 0.961 . S
C984 C985 1.370 1_545 S
C984 C986 1.363 . S
C984 H1000 0.931 . S
C985 C984 1.370 1_565 S
C985 C989 1.408 . S
C986 C984 1.363 . S
C986 C987 1.370 1_545 S
C986 C990 1.524 . S
C987 C979 1.503 . S
C987 C986 1.370 1_565 S
C987 C988 1.403 . S
C988 C987 1.403 . S
C988 C989 1.404 . S
C988 C991 1.539 . S
C989 C985 1.408 . S
C989 C988 1.404 . S
C989 H1001 0.930 . S
C990 C986 1.524 . S
C990 H1002 0.956 . S
C990 H1003 0.961 . S
C990 H1004 0.961 . S
C991 C988 1.539 . S
C991 H1005 0.958 . S
C991 H1006 0.961 . S
C991 H1007 0.960 . S
H992 C976 0.931 . S
H993 C981 0.929 . S
H994 C982 0.960 . S
H995 C982 0.962 . S
H996 C982 0.960 . S
H997 C983 0.961 . S
H998 C983 0.961 . S
H999 C983 0.961 . S
H1000 C984 0.931 . S
H1001 C989 0.930 . S
H1002 C990 0.956 . S
H1003 C990 0.961 . S
H1004 C990 0.961 . S
H1005 C991 0.958 . S
H1006 C991 0.961 . S
H1007 C991 0.960 . S
C1008 C1009 1.391 . S
C1008 C1010 1.394 . S
C1008 H1024 0.931 . S
C1009 C1008 1.391 . S
C1009 C1013 1.376 1_545 S
C1010 C1008 1.394 . S
C1010 C1011 1.369 . S
C1010 C1014 1.531 . S
C1011 C1010 1.369 . S
C1011 C1012 1.410 1_545 S
C1011 C1019 1.503 1_545 S
C1012 C1011 1.410 1_565 S
C1012 C1013 1.392 . S
C1012 C1015 1.511 . S
C1013 C1009 1.376 1_565 S
C1013 C1012 1.392 . S
C1013 H1025 0.929 . S
C1014 C1010 1.531 . S
C1014 H1026 0.960 . S
C1014 H1027 0.962 . S
C1014 H1028 0.960 . S
C1015 C1012 1.511 . S
C1015 H1029 0.961 . S
C1015 H1030 0.961 . S
C1015 H1031 0.961 . S
C1016 C1017 1.370 . S
C1016 C1018 1.363 . S
C1016 H1032 0.931 . S
C1017 C1016 1.370 . S
C1017 C1021 1.408 . S
C1018 C1016 1.363 . S
C1018 C1019 1.370 . S
C1018 C1022 1.524 1_565 S
C1019 C1011 1.503 1_565 S
C1019 C1018 1.370 . S
C1019 C1020 1.403 . S
C1020 C1019 1.403 . S
C1020 C1021 1.404 . S
C1020 C1023 1.539 . S
C1021 C1017 1.408 . S
C1021 C1020 1.404 . S
C1021 H1033 0.930 . S
C1022 C1018 1.524 1_545 S
C1022 H1034 0.956 . S
C1022 H1035 0.961 1_545 S
C1022 H1036 0.961 . S
C1023 C1020 1.539 . S
C1023 H1037 0.958 . S
C1023 H1038 0.961 . S
C1023 H1039 0.960 . S
H1024 C1008 0.931 . S
H1025 C1013 0.929 . S
H1026 C1014 0.960 . S
H1027 C1014 0.962 . S
H1028 C1014 0.960 . S
H1029 C1015 0.961 . S
H1030 C1015 0.961 . S
H1031 C1015 0.961 . S
H1032 C1016 0.931 . S
H1033 C1021 0.930 . S
H1034 C1022 0.956 . S
H1035 C1022 0.961 1_565 S
H1036 C1022 0.961 . S
H1037 C1023 0.958 . S
H1038 C1023 0.961 . S
H1039 C1023 0.960 . S
C1040 C1041 1.391 1_565 S
C1040 C1042 1.394 . S
C1040 H1056 0.931 . S
C1041 C1040 1.391 1_545 S
C1041 C1045 1.376 . S
C1042 C1040 1.394 . S
C1042 C1043 1.369 . S
C1042 C1046 1.531 . S
C1043 C1042 1.369 . S
C1043 C1044 1.410 1_565 S
C1043 C1051 1.503 . S
C1044 C1043 1.410 1_545 S
C1044 C1045 1.392 . S
C1044 C1047 1.511 . S
C1045 C1041 1.376 . S
C1045 C1044 1.392 . S
C1045 H1057 0.929 . S
C1046 C1042 1.531 . S
C1046 H1058 0.960 . S
C1046 H1059 0.962 . S
C1046 H1060 0.960 . S
C1047 C1044 1.511 . S
C1047 H1061 0.961 . S
C1047 H1062 0.961 . S
C1047 H1063 0.961 . S
C1048 C1049 1.370 1_545 S
C1048 C1050 1.363 . S
C1048 H1064 0.931 . S
C1049 C1048 1.370 1_565 S
C1049 C1053 1.408 . S
C1050 C1048 1.363 . S
C1050 C1051 1.370 1_545 S
C1050 C1054 1.524 . S
C1051 C1043 1.503 . S
C1051 C1050 1.370 1_565 S
C1051 C1052 1.403 . S
C1052 C1051 1.403 . S
C1052 C1053 1.404 . S
C1052 C1055 1.539 . S
C1053 C1049 1.408 . S
C1053 C1052 1.404 . S
C1053 H1065 0.930 . S
C1054 C1050 1.524 . S
C1054 H1066 0.956 . S
C1054 H1067 0.961 . S
C1054 H1068 0.961 . S
C1055 C1052 1.539 . S
C1055 H1069 0.958 . S
C1055 H1070 0.961 . S
C1055 H1071 0.960 . S
H1056 C1040 0.931 . S
H1057 C1045 0.929 . S
H1058 C1046 0.960 . S
H1059 C1046 0.962 . S
H1060 C1046 0.960 . S
H1061 C1047 0.961 . S
H1062 C1047 0.961 . S
H1063 C1047 0.961 . S
H1064 C1048 0.931 . S
H1065 C1053 0.930 . S
H1066 C1054 0.956 . S
H1067 C1054 0.961 . S
H1068 C1054 0.961 . S
H1069 C1055 0.958 . S
H1070 C1055 0.961 . S
H1071 C1055 0.960 . S
C1072 C1073 1.391 . S
C1072 C1074 1.394 . S
C1072 H1088 0.931 . S
C1073 C1072 1.391 . S
C1073 C1077 1.376 . S
C1074 C1072 1.394 . S
C1074 C1075 1.369 . S
C1074 C1078 1.531 . S
C1075 C1074 1.369 . S
C1075 C1076 1.410 . S
C1075 C1083 1.503 . S
C1076 C1075 1.410 . S
C1076 C1077 1.392 . S
C1076 C1079 1.511 1_565 S
C1077 C1073 1.376 . S
C1077 C1076 1.392 . S
C1077 H1089 0.929 . S
C1078 C1074 1.531 . S
C1078 H1090 0.960 . S
C1078 H1091 0.962 . S
C1078 H1092 0.960 . S
C1079 C1076 1.511 1_545 S
C1079 H1093 0.961 . S
C1079 H1094 0.961 . S
C1079 H1095 0.961 1_545 S
C1080 C1081 1.370 . S
C1080 C1082 1.363 . S
C1080 H1096 0.931 . S
C1081 C1080 1.370 . S
C1081 C1085 1.408 1_545 S
C1082 C1080 1.363 . S
C1082 C1083 1.370 1_545 S
C1082 C1086 1.524 . S
C1083 C1075 1.503 . S
C1083 C1082 1.370 1_565 S
C1083 C1084 1.403 . S
C1084 C1083 1.403 . S
C1084 C1085 1.404 . S
C1084 C1087 1.539 . S
C1085 C1081 1.408 1_565 S
C1085 C1084 1.404 . S
C1085 H1097 0.930 . S
C1086 C1082 1.524 . S
C1086 H1098 0.956 . S
C1086 H1099 0.961 . S
C1086 H1100 0.961 . S
C1087 C1084 1.539 . S
C1087 H1101 0.958 . S
C1087 H1102 0.961 . S
C1087 H1103 0.960 . S
H1088 C1072 0.931 . S
H1089 C1077 0.929 . S
H1090 C1078 0.960 . S
H1091 C1078 0.962 . S
H1092 C1078 0.960 . S
H1093 C1079 0.961 . S
H1094 C1079 0.961 . S
H1095 C1079 0.961 1_565 S
H1096 C1080 0.931 . S
H1097 C1085 0.930 . S
H1098 C1086 0.956 . S
H1099 C1086 0.961 . S
H1100 C1086 0.961 . S
H1101 C1087 0.958 . S
H1102 C1087 0.961 . S
H1103 C1087 0.960 . S
C1104 C1105 1.391 . S
C1104 C1106 1.394 . S
C1104 H1120 0.931 . S
C1105 C1104 1.391 . S
C1105 C1109 1.376 . S
C1106 C1104 1.394 . S
C1106 C1107 1.369 . S
C1106 C1110 1.531 . S
C1107 C1106 1.369 . S
C1107 C1108 1.410 . S
C1107 C1115 1.503 . S
C1108 C1107 1.410 . S
C1108 C1109 1.392 . S
C1108 C1111 1.511 . S
C1109 C1105 1.376 . S
C1109 C1108 1.392 . S
C1109 H1121 0.929 . S
C1110 C1106 1.531 . S
C1110 H1122 0.960 . S
C1110 H1123 0.962 . S
C1110 H1124 0.960 . S
C1111 C1108 1.511 . S
C1111 H1125 0.961 . S
C1111 H1126 0.961 . S
C1111 H1127 0.961 . S
C1112 C1113 1.370 . S
C1112 C1114 1.363 . S
C1112 H1128 0.931 . S
C1113 C1112 1.370 . S
C1113 C1117 1.408 . S
C1114 C1112 1.363 . S
C1114 C1115 1.370 . S
C1114 C1118 1.524 . S
C1115 C1107 1.503 . S
C1115 C1114 1.370 . S
C1115 C1116 1.403 . S
C1116 C1115 1.403 . S
C1116 C1117 1.404 . S
C1116 C1119 1.539 . S
C1117 C1113 1.408 . S
C1117 C1116 1.404 . S
C1117 H1129 0.930 . S
C1118 C1114 1.524 . S
C1118 H1130 0.956 . S
C1118 H1131 0.961 . S
C1118 H1132 0.961 . S
C1119 C1116 1.539 . S
C1119 H1133 0.958 . S
C1119 H1134 0.961 . S
C1119 H1135 0.960 . S
H1120 C1104 0.931 . S
H1121 C1109 0.929 . S
H1122 C1110 0.960 . S
H1123 C1110 0.962 . S
H1124 C1110 0.960 . S
H1125 C1111 0.961 . S
H1126 C1111 0.961 . S
H1127 C1111 0.961 . S
H1128 C1112 0.931 . S
H1129 C1117 0.930 . S
H1130 C1118 0.956 . S
H1131 C1118 0.961 . S
H1132 C1118 0.961 . S
H1133 C1119 0.958 . S
H1134 C1119 0.961 . S
H1135 C1119 0.960 . S
C1136 C1137 1.391 . S
C1136 C1138 1.394 . S
C1136 H1152 0.931 . S
C1137 C1136 1.391 . S
C1137 C1141 1.376 . S
C1138 C1136 1.394 . S
C1138 C1139 1.369 . S
C1138 C1142 1.531 . S
C1139 C1138 1.369 . S
C1139 C1140 1.410 . S
C1139 C1147 1.503 . S
C1140 C1139 1.410 . S
C1140 C1141 1.392 . S
C1140 C1143 1.511 . S
C1141 C1137 1.376 . S
C1141 C1140 1.392 . S
C1141 H1153 0.929 . S
C1142 C1138 1.531 . S
C1142 H1154 0.960 . S
C1142 H1155 0.962 . S
C1142 H1156 0.960 . S
C1143 C1140 1.511 . S
C1143 H1157 0.961 . S
C1143 H1158 0.961 . S
C1143 H1159 0.961 . S
C1144 C1145 1.370 . S
C1144 C1146 1.363 . S
C1144 H1160 0.931 . S
C1145 C1144 1.370 . S
C1145 C1149 1.408 . S
C1146 C1144 1.363 . S
C1146 C1147 1.370 . S
C1146 C1150 1.524 . S
C1147 C1139 1.503 . S
C1147 C1146 1.370 . S
C1147 C1148 1.403 . S
C1148 C1147 1.403 . S
C1148 C1149 1.404 . S
C1148 C1151 1.539 . S
C1149 C1145 1.408 . S
C1149 C1148 1.404 . S
C1149 H1161 0.930 . S
C1150 C1146 1.524 . S
C1150 H1162 0.956 . S
C1150 H1163 0.961 . S
C1150 H1164 0.961 . S
C1151 C1148 1.539 . S
C1151 H1165 0.958 . S
C1151 H1166 0.961 . S
C1151 H1167 0.960 . S
H1152 C1136 0.931 . S
H1153 C1141 0.929 . S
H1154 C1142 0.960 . S
H1155 C1142 0.962 . S
H1156 C1142 0.960 . S
H1157 C1143 0.961 . S
H1158 C1143 0.961 . S
H1159 C1143 0.961 . S
H1160 C1144 0.931 . S
H1161 C1149 0.930 . S
H1162 C1150 0.956 . S
H1163 C1150 0.961 . S
H1164 C1150 0.961 . S
H1165 C1151 0.958 . S
H1166 C1151 0.961 . S
H1167 C1151 0.960 . S
C1168 C1169 1.391 . S
C1168 C1170 1.394 . S
C1168 H1184 0.931 . S
C1169 C1168 1.391 . S
C1169 C1173 1.376 . S
C1170 C1168 1.394 . S
C1170 C1171 1.369 . S
C1170 C1174 1.531 . S
C1171 C1170 1.369 . S
C1171 C1172 1.410 . S
C1171 C1179 1.503 . S
C1172 C1171 1.410 . S
C1172 C1173 1.392 . S
C1172 C1175 1.511 . S
C1173 C1169 1.376 . S
C1173 C1172 1.392 . S
C1173 H1185 0.929 . S
C1174 C1170 1.531 . S
C1174 H1186 0.960 . S
C1174 H1187 0.962 . S
C1174 H1188 0.960 . S
C1175 C1172 1.511 . S
C1175 H1189 0.961 . S
C1175 H1190 0.961 . S
C1175 H1191 0.961 . S
C1176 C1177 1.370 . S
C1176 C1178 1.363 . S
C1176 H1192 0.931 . S
C1177 C1176 1.370 . S
C1177 C1181 1.408 . S
C1178 C1176 1.363 . S
C1178 C1179 1.370 . S
C1178 C1182 1.524 . S
C1179 C1171 1.503 . S
C1179 C1178 1.370 . S
C1179 C1180 1.403 . S
C1180 C1179 1.403 . S
C1180 C1181 1.404 . S
C1180 C1183 1.539 . S
C1181 C1177 1.408 . S
C1181 C1180 1.404 . S
C1181 H1193 0.930 . S
C1182 C1178 1.524 . S
C1182 H1194 0.956 . S
C1182 H1195 0.961 . S
C1182 H1196 0.961 . S
C1183 C1180 1.539 . S
C1183 H1197 0.958 . S
C1183 H1198 0.961 . S
C1183 H1199 0.960 . S
H1184 C1168 0.931 . S
H1185 C1173 0.929 . S
H1186 C1174 0.960 . S
H1187 C1174 0.962 . S
H1188 C1174 0.960 . S
H1189 C1175 0.961 . S
H1190 C1175 0.961 . S
H1191 C1175 0.961 . S
H1192 C1176 0.931 . S
H1193 C1181 0.930 . S
H1194 C1182 0.956 . S
H1195 C1182 0.961 . S
H1196 C1182 0.961 . S
H1197 C1183 0.958 . S
H1198 C1183 0.961 . S
H1199 C1183 0.960 . S
C1200 C1201 1.391 . S
C1200 C1202 1.394 . S
C1200 H1216 0.931 . S
C1201 C1200 1.391 . S
C1201 C1205 1.376 . S
C1202 C1200 1.394 . S
C1202 C1203 1.369 . S
C1202 C1206 1.531 . S
C1203 C1202 1.369 . S
C1203 C1204 1.410 . S
C1203 C1211 1.503 . S
C1204 C1203 1.410 . S
C1204 C1205 1.392 . S
C1204 C1207 1.511 . S
C1205 C1201 1.376 . S
C1205 C1204 1.392 . S
C1205 H1217 0.929 . S
C1206 C1202 1.531 . S
C1206 H1218 0.960 . S
C1206 H1219 0.962 . S
C1206 H1220 0.960 . S
C1207 C1204 1.511 . S
C1207 H1221 0.961 . S
C1207 H1222 0.961 . S
C1207 H1223 0.961 . S
C1208 C1209 1.370 . S
C1208 C1210 1.363 . S
C1208 H1224 0.931 . S
C1209 C1208 1.370 . S
C1209 C1213 1.408 . S
C1210 C1208 1.363 . S
C1210 C1211 1.370 . S
C1210 C1214 1.524 . S
C1211 C1203 1.503 . S
C1211 C1210 1.370 . S
C1211 C1212 1.403 . S
C1212 C1211 1.403 . S
C1212 C1213 1.404 . S
C1212 C1215 1.539 . S
C1213 C1209 1.408 . S
C1213 C1212 1.404 . S
C1213 H1225 0.930 . S
C1214 C1210 1.524 . S
C1214 H1226 0.956 . S
C1214 H1227 0.961 . S
C1214 H1228 0.961 . S
C1215 C1212 1.539 . S
C1215 H1229 0.958 . S
C1215 H1230 0.961 . S
C1215 H1231 0.960 . S
H1216 C1200 0.931 . S
H1217 C1205 0.929 . S
H1218 C1206 0.960 . S
H1219 C1206 0.962 . S
H1220 C1206 0.960 . S
H1221 C1207 0.961 . S
H1222 C1207 0.961 . S
H1223 C1207 0.961 . S
H1224 C1208 0.931 . S
H1225 C1213 0.930 . S
H1226 C1214 0.956 . S
H1227 C1214 0.961 . S
H1228 C1214 0.961 . S
H1229 C1215 0.958 . S
H1230 C1215 0.961 . S
H1231 C1215 0.960 . S
C209 C1 1.521 . S
C217 C66 1.517 . S
C241 C53 1.495 . S
C249 C14 1.527 . S
C273 C27 1.520 . S
C281 C92 1.518 . S
C305 C79 1.500 . S
C313 C40 1.527 . S
C337 C170 1.523 . S
C345 C105 1.521 . S
C369 C157 1.497 . S
C377 C118 1.527 . S
C401 C196 1.521 . S
C409 C131 1.521 . S
C433 C144 1.520 . S
C441 C183 1.508 . S
C465 C23 1.522 . S
C473 C10 1.503 . S
C497 C36 1.489 . S
C505 C49 1.518 . S
C529 C62 1.522 . S
C537 C75 1.528 . S
C561 C88 1.524 . S
C569 C101 1.528 . S
C593 C114 1.510 . S
C601 C127 1.513 . S
C625 C153 1.515 . S
C633 C140 1.505 . S
C657 C179 1.523 . S
C665 C166 1.528 . S
C689 C192 1.523 . S
C697 C205 1.528 . S
C721 C122 1.487 . S
C729 C5 1.513 . S
C753 C18 1.505 . S
C761 C109 1.508 . S
C785 C148 1.510 . S
C793 C31 1.505 . S
C817 C44 1.500 . S
C825 C135 1.500 . S
C849 C57 1.531 . S
C857 C174 1.526 . S
C881 C161 1.524 . S
C889 C70 1.531 . S
C913 C83 1.524 . S
C921 C200 1.531 . S
C945 C187 1.527 . S
C953 C96 1.530 . S
C977 C3 1.535 . S
C985 C29 1.532 . S
C1009 C42 1.530 . S
C1017 C16 1.532 . S
C1041 C81 1.491 . S
C1049 C55 1.516 . S
C1073 C94 1.521 . S
C1081 C68 1.499 . S
C1105 C133 1.524 . S
C1113 C107 1.535 . S
C1137 C120 1.534 . S
C1145 C146 1.531 . S
C1169 C185 1.495 . S
C1177 C159 1.509 . S
C1201 C172 1.489 . S
C1209 C198 1.516 . S
