# Generated by pormake.
# Topology sod-g, (3)-cn, num edge types: 1
# Building blocks:
#     Node 0, Type 0, BuildingBlock: OLANEW_clean_sbu_2, # of connection points: 3
#     Node 1, Type 0, BuildingBlock: OLANEW_clean_sbu_2, # of connection points: 3
#     Node 2, Type 0, BuildingBlock: OLANEW_clean_sbu_2, # of connection points: 3
#     Node 3, Type 0, BuildingBlock: OLANEW_clean_sbu_2, # of connection points: 3
#     Node 4, Type 0, BuildingBlock: OLANEW_clean_sbu_2, # of connection points: 3
#     Node 5, Type 0, BuildingBlock: OLANEW_clean_sbu_2, # of connection points: 3
#     Node 6, Type 0, BuildingBlock: OLANEW_clean_sbu_2, # of connection points: 3
#     Node 7, Type 0, BuildingBlock: OLANEW_clean_sbu_2, # of connection points: 3
#     Node 8, Type 0, BuildingBlock: OLANEW_clean_sbu_2, # of connection points: 3
#     Node 9, Type 0, BuildingBlock: OLANEW_clean_sbu_2, # of connection points: 3
#     Node 10, Type 0, BuildingBlock: OLANEW_clean_sbu_2, # of connection points: 3
#     Node 11, Type 0, BuildingBlock: OLANEW_clean_sbu_2, # of connection points: 3
#     Node 12, Type 0, BuildingBlock: OLANEW_clean_sbu_2, # of connection points: 3
#     Node 13, Type 0, BuildingBlock: OLANEW_clean_sbu_2, # of connection points: 3
#     Node 14, Type 0, BuildingBlock: OLANEW_clean_sbu_2, # of connection points: 3
#     Node 15, Type 0, BuildingBlock: OLANEW_clean_sbu_2, # of connection points: 3
#     Node 16, Type 0, BuildingBlock: OLANEW_clean_sbu_2, # of connection points: 3
#     Node 17, Type 0, BuildingBlock: OLANEW_clean_sbu_2, # of connection points: 3
#     Node 18, Type 0, BuildingBlock: OLANEW_clean_sbu_2, # of connection points: 3
#     Node 19, Type 0, BuildingBlock: OLANEW_clean_sbu_2, # of connection points: 3
#     Node 20, Type 0, BuildingBlock: OLANEW_clean_sbu_2, # of connection points: 3
#     Node 21, Type 0, BuildingBlock: OLANEW_clean_sbu_2, # of connection points: 3
#     Node 22, Type 0, BuildingBlock: OLANEW_clean_sbu_2, # of connection points: 3
#     Node 23, Type 0, BuildingBlock: OLANEW_clean_sbu_2, # of connection points: 3
#     Node 24, Type 0, BuildingBlock: OLANEW_clean_sbu_2, # of connection points: 3
#     Node 25, Type 0, BuildingBlock: OLANEW_clean_sbu_2, # of connection points: 3
#     Node 26, Type 0, BuildingBlock: OLANEW_clean_sbu_2, # of connection points: 3
#     Node 27, Type 0, BuildingBlock: OLANEW_clean_sbu_2, # of connection points: 3
#     Node 28, Type 0, BuildingBlock: OLANEW_clean_sbu_2, # of connection points: 3
#     Node 29, Type 0, BuildingBlock: OLANEW_clean_sbu_2, # of connection points: 3
#     Node 30, Type 0, BuildingBlock: OLANEW_clean_sbu_2, # of connection points: 3
#     Node 31, Type 0, BuildingBlock: OLANEW_clean_sbu_2, # of connection points: 3
#     Node 32, Type 0, BuildingBlock: OLANEW_clean_sbu_2, # of connection points: 3
#     Node 33, Type 0, BuildingBlock: OLANEW_clean_sbu_2, # of connection points: 3
#     Node 34, Type 0, BuildingBlock: OLANEW_clean_sbu_2, # of connection points: 3
#     Node 35, Type 0, BuildingBlock: OLANEW_clean_sbu_2, # of connection points: 3
#     Node 36, Type 0, BuildingBlock: OLANEW_clean_sbu_2, # of connection points: 3
#     Node 37, Type 0, BuildingBlock: OLANEW_clean_sbu_2, # of connection points: 3
#     Node 38, Type 0, BuildingBlock: OLANEW_clean_sbu_2, # of connection points: 3
#     Node 39, Type 0, BuildingBlock: OLANEW_clean_sbu_2, # of connection points: 3
#     Node 40, Type 0, BuildingBlock: OLANEW_clean_sbu_2, # of connection points: 3
#     Node 41, Type 0, BuildingBlock: OLANEW_clean_sbu_2, # of connection points: 3
#     Node 42, Type 0, BuildingBlock: OLANEW_clean_sbu_2, # of connection points: 3
#     Node 43, Type 0, BuildingBlock: OLANEW_clean_sbu_2, # of connection points: 3
#     Node 44, Type 0, BuildingBlock: OLANEW_clean_sbu_2, # of connection points: 3
#     Node 45, Type 0, BuildingBlock: OLANEW_clean_sbu_2, # of connection points: 3
#     Node 46, Type 0, BuildingBlock: OLANEW_clean_sbu_2, # of connection points: 3
#     Node 47, Type 0, BuildingBlock: OLANEW_clean_sbu_2, # of connection points: 3
#     Edge 48, Type (0, 0), BuildingBlock: AJUNOK_clean_linker_0, # of connection points: 2
#     Edge 49, Type (0, 0), BuildingBlock: AJUNOK_clean_linker_0, # of connection points: 2
#     Edge 50, Type (0, 0), BuildingBlock: AJUNOK_clean_linker_0, # of connection points: 2
#     Edge 51, Type (0, 0), BuildingBlock: AJUNOK_clean_linker_0, # of connection points: 2
#     Edge 52, Type (0, 0), BuildingBlock: AJUNOK_clean_linker_0, # of connection points: 2
#     Edge 53, Type (0, 0), BuildingBlock: AJUNOK_clean_linker_0, # of connection points: 2
#     Edge 54, Type (0, 0), BuildingBlock: AJUNOK_clean_linker_0, # of connection points: 2
#     Edge 55, Type (0, 0), BuildingBlock: AJUNOK_clean_linker_0, # of connection points: 2
#     Edge 56, Type (0, 0), BuildingBlock: AJUNOK_clean_linker_0, # of connection points: 2
#     Edge 57, Type (0, 0), BuildingBlock: AJUNOK_clean_linker_0, # of connection points: 2
#     Edge 58, Type (0, 0), BuildingBlock: AJUNOK_clean_linker_0, # of connection points: 2
#     Edge 59, Type (0, 0), BuildingBlock: AJUNOK_clean_linker_0, # of connection points: 2
#     Edge 60, Type (0, 0), BuildingBlock: AJUNOK_clean_linker_0, # of connection points: 2
#     Edge 61, Type (0, 0), BuildingBlock: AJUNOK_clean_linker_0, # of connection points: 2
#     Edge 62, Type (0, 0), BuildingBlock: AJUNOK_clean_linker_0, # of connection points: 2
#     Edge 63, Type (0, 0), BuildingBlock: AJUNOK_clean_linker_0, # of connection points: 2
#     Edge 64, Type (0, 0), BuildingBlock: AJUNOK_clean_linker_0, # of connection points: 2
#     Edge 65, Type (0, 0), BuildingBlock: AJUNOK_clean_linker_0, # of connection points: 2
#     Edge 66, Type (0, 0), BuildingBlock: AJUNOK_clean_linker_0, # of connection points: 2
#     Edge 67, Type (0, 0), BuildingBlock: AJUNOK_clean_linker_0, # of connection points: 2
#     Edge 68, Type (0, 0), BuildingBlock: AJUNOK_clean_linker_0, # of connection points: 2
#     Edge 69, Type (0, 0), BuildingBlock: AJUNOK_clean_linker_0, # of connection points: 2
#     Edge 70, Type (0, 0), BuildingBlock: AJUNOK_clean_linker_0, # of connection points: 2
#     Edge 71, Type (0, 0), BuildingBlock: AJUNOK_clean_linker_0, # of connection points: 2
#     Edge 72, Type (0, 0), BuildingBlock: AJUNOK_clean_linker_0, # of connection points: 2
#     Edge 73, Type (0, 0), BuildingBlock: AJUNOK_clean_linker_0, # of connection points: 2
#     Edge 74, Type (0, 0), BuildingBlock: AJUNOK_clean_linker_0, # of connection points: 2
#     Edge 75, Type (0, 0), BuildingBlock: AJUNOK_clean_linker_0, # of connection points: 2
#     Edge 76, Type (0, 0), BuildingBlock: AJUNOK_clean_linker_0, # of connection points: 2
#     Edge 77, Type (0, 0), BuildingBlock: AJUNOK_clean_linker_0, # of connection points: 2
#     Edge 78, Type (0, 0), BuildingBlock: AJUNOK_clean_linker_0, # of connection points: 2
#     Edge 79, Type (0, 0), BuildingBlock: AJUNOK_clean_linker_0, # of connection points: 2
#     Edge 80, Type (0, 0), BuildingBlock: AJUNOK_clean_linker_0, # of connection points: 2
#     Edge 81, Type (0, 0), BuildingBlock: AJUNOK_clean_linker_0, # of connection points: 2
#     Edge 82, Type (0, 0), BuildingBlock: AJUNOK_clean_linker_0, # of connection points: 2
#     Edge 83, Type (0, 0), BuildingBlock: AJUNOK_clean_linker_0, # of connection points: 2
#     Edge 84, Type (0, 0), BuildingBlock: AJUNOK_clean_linker_0, # of connection points: 2
#     Edge 85, Type (0, 0), BuildingBlock: AJUNOK_clean_linker_0, # of connection points: 2
#     Edge 86, Type (0, 0), BuildingBlock: AJUNOK_clean_linker_0, # of connection points: 2
#     Edge 87, Type (0, 0), BuildingBlock: AJUNOK_clean_linker_0, # of connection points: 2
#     Edge 88, Type (0, 0), BuildingBlock: AJUNOK_clean_linker_0, # of connection points: 2
#     Edge 89, Type (0, 0), BuildingBlock: AJUNOK_clean_linker_0, # of connection points: 2
#     Edge 90, Type (0, 0), BuildingBlock: AJUNOK_clean_linker_0, # of connection points: 2
#     Edge 91, Type (0, 0), BuildingBlock: AJUNOK_clean_linker_0, # of connection points: 2
#     Edge 92, Type (0, 0), BuildingBlock: AJUNOK_clean_linker_0, # of connection points: 2
#     Edge 93, Type (0, 0), BuildingBlock: AJUNOK_clean_linker_0, # of connection points: 2
#     Edge 94, Type (0, 0), BuildingBlock: AJUNOK_clean_linker_0, # of connection points: 2
#     Edge 95, Type (0, 0), BuildingBlock: AJUNOK_clean_linker_0, # of connection points: 2
#     Edge 96, Type (0, 0), BuildingBlock: AJUNOK_clean_linker_0, # of connection points: 2
#     Edge 97, Type (0, 0), BuildingBlock: AJUNOK_clean_linker_0, # of connection points: 2
#     Edge 98, Type (0, 0), BuildingBlock: AJUNOK_clean_linker_0, # of connection points: 2
#     Edge 99, Type (0, 0), BuildingBlock: AJUNOK_clean_linker_0, # of connection points: 2
#     Edge 100, Type (0, 0), BuildingBlock: AJUNOK_clean_linker_0, # of connection points: 2
#     Edge 101, Type (0, 0), BuildingBlock: AJUNOK_clean_linker_0, # of connection points: 2
#     Edge 102, Type (0, 0), BuildingBlock: AJUNOK_clean_linker_0, # of connection points: 2
#     Edge 103, Type (0, 0), BuildingBlock: AJUNOK_clean_linker_0, # of connection points: 2
#     Edge 104, Type (0, 0), BuildingBlock: AJUNOK_clean_linker_0, # of connection points: 2
#     Edge 105, Type (0, 0), BuildingBlock: AJUNOK_clean_linker_0, # of connection points: 2
#     Edge 106, Type (0, 0), BuildingBlock: AJUNOK_clean_linker_0, # of connection points: 2
#     Edge 107, Type (0, 0), BuildingBlock: AJUNOK_clean_linker_0, # of connection points: 2
#     Edge 108, Type (0, 0), BuildingBlock: AJUNOK_clean_linker_0, # of connection points: 2
#     Edge 109, Type (0, 0), BuildingBlock: AJUNOK_clean_linker_0, # of connection points: 2
#     Edge 110, Type (0, 0), BuildingBlock: AJUNOK_clean_linker_0, # of connection points: 2
#     Edge 111, Type (0, 0), BuildingBlock: AJUNOK_clean_linker_0, # of connection points: 2
#     Edge 112, Type (0, 0), BuildingBlock: AJUNOK_clean_linker_0, # of connection points: 2
#     Edge 113, Type (0, 0), BuildingBlock: AJUNOK_clean_linker_0, # of connection points: 2
#     Edge 114, Type (0, 0), BuildingBlock: AJUNOK_clean_linker_0, # of connection points: 2
#     Edge 115, Type (0, 0), BuildingBlock: AJUNOK_clean_linker_0, # of connection points: 2
#     Edge 116, Type (0, 0), BuildingBlock: AJUNOK_clean_linker_0, # of connection points: 2
#     Edge 117, Type (0, 0), BuildingBlock: AJUNOK_clean_linker_0, # of connection points: 2
#     Edge 118, Type (0, 0), BuildingBlock: AJUNOK_clean_linker_0, # of connection points: 2
#     Edge 119, Type (0, 0), BuildingBlock: AJUNOK_clean_linker_0, # of connection points: 2
# Relax obj value: 0.020
# Max RMSD: 0.018
# Mean RMSD: 0.018
data_MOF--net-sod-g--node1-OLANEW_clean_sbu_2--edge1-AJUNOK_clean_linker_0
_symmetry_space_group_name_H-M    P1
_symmetry_Int_Tables_number       1
_symmetry_cell_setting            triclinic
loop_
_symmetry_equiv_pos_as_xyz
'x, y, z'
_cell_length_a     77.948009
_cell_length_b     77.984256
_cell_length_c     77.964121
_cell_angle_alpha  89.983322
_cell_angle_beta   90.025201
_cell_angle_gamma 89.989351
loop_
_atom_site_label
_atom_site_type_symbol
_atom_site_fract_x
_atom_site_fract_y
_atom_site_fract_z
_atom_type_partial_charge
O0 O 0.05362 0.45739 0.12887 0.0
Cd1 Cd 0.08331 0.44912 0.13483 0.0
O2 O 0.0567 0.47232 0.15247 0.0
Cd3 Cd 0.04504 0.48664 0.17359 0.0
O4 O 0.03185 0.49409 0.19711 0.0
C5 C 0.01648 0.48934 0.19981 0.0
O6 O 0.00848 0.4805 0.18789 0.0
C7 C 0.04738 0.46748 0.14001 0.0
C8 C 0.10751 0.46327 0.11265 0.0
O9 O 0.1014 0.44823 0.11009 0.0
O10 O 0.10191 0.4718 0.12553 0.0
O11 O 0.53175 0.02835 0.13201 0.0
Cd12 Cd 0.54799 0.0545 0.13743 0.0
O13 O 0.51329 0.03942 0.15 0.0
Cd14 Cd 0.49261 0.03688 0.16862 0.0
O15 O 0.4884 0.03307 0.19594 0.0
C16 C 0.49866 0.0225 0.20291 0.0
O17 O 0.50954 0.01421 0.19306 0.0
C18 C 0.51784 0.02709 0.14039 0.0
C19 C 0.53216 0.08253 0.12217 0.0
O20 O 0.54487 0.07504 0.11492 0.0
O21 O 0.52705 0.07689 0.13673 0.0
O22 O 0.97129 0.5016 0.14961 0.0
Cd23 Cd 0.94327 0.51286 0.15834 0.0
O24 O 0.96691 0.47453 0.15601 0.0
Cd25 Cd 0.94533 0.4825 0.17175 0.0
O26 O 0.94468 0.49492 0.1968 0.0
C27 C 0.95807 0.50356 0.2003 0.0
O28 O 0.97028 0.50453 0.18874 0.0
C29 C 0.9764 0.48612 0.14958 0.0
C30 C 0.91727 0.50533 0.13492 0.0
O31 O 0.92828 0.51713 0.13186 0.0
O32 O 0.91853 0.49694 0.14899 0.0
O33 O 0.46568 0.96321 0.12618 0.0
Cd34 Cd 0.45282 0.93475 0.12714 0.0
O35 O 0.47935 0.95317 0.14856 0.0
Cd36 Cd 0.4958 0.95685 0.17091 0.0
O37 O 0.49919 0.96258 0.19805 0.0
C38 C 0.48821 0.97282 0.2044 0.0
O39 O 0.4767 0.9796 0.19411 0.0
C40 C 0.477 0.96511 0.13774 0.0
C41 C 0.47889 0.91254 0.11741 0.0
O42 O 0.46728 0.91705 0.10668 0.0
O43 O 0.4777 0.91782 0.13292 0.0
O44 O 0.02466 0.53965 0.85644 0.0
Cd45 Cd 0.05207 0.55253 0.86378 0.0
O46 O 0.0381 0.52569 0.83606 0.0
Cd47 Cd 0.03709 0.50945 0.81334 0.0
O48 O 0.03182 0.5076 0.78595 0.0
C49 C 0.02002 0.51739 0.7804 0.0
O50 O 0.01161 0.52689 0.79148 0.0
C51 C 0.0245 0.52853 0.84455 0.0
C52 C 0.06913 0.52648 0.8811 0.0
O53 O 0.05963 0.53722 0.88912 0.0
O54 O 0.07137 0.52871 0.86496 0.0
O55 O 0.43335 0.04119 0.8785 0.0
Cd56 Cd 0.42425 0.068 0.89155 0.0
O57 O 0.43355 0.05356 0.85319 0.0
Cd58 Cd 0.44152 0.05326 0.82634 0.0
O59 O 0.45074 0.04462 0.80141 0.0
C60 C 0.4403 0.04217 0.78914 0.0
O61 O 0.42399 0.04569 0.79153 0.0
C62 C 0.43637 0.04048 0.86252 0.0
C63 C 0.45409 0.0846 0.90209 0.0
O64 O 0.44635 0.07395 0.91191 0.0
O65 O 0.44738 0.08783 0.88741 0.0
O66 O 0.96251 0.47521 0.85363 0.0
Cd67 Cd 0.93409 0.46245 0.85534 0.0
O68 O 0.95141 0.48844 0.83145 0.0
Cd69 Cd 0.95487 0.50461 0.80896 0.0
O70 O 0.96196 0.50612 0.78203 0.0
C71 C 0.97433 0.49664 0.77725 0.0
O72 O 0.98252 0.48761 0.78889 0.0
C73 C 0.96383 0.48629 0.84177 0.0
C74 C 0.91435 0.48759 0.87096 0.0
O75 O 0.9199 0.47476 0.87962 0.0
O76 O 0.91732 0.48802 0.85481 0.0
O77 O 0.48853 0.97917 0.84083 0.0
Cd78 Cd 0.50763 0.95568 0.83295 0.0
O79 O 0.47216 0.9787 0.81789 0.0
Cd80 Cd 0.48941 0.96174 0.80387 0.0
O81 O 0.50541 0.9544 0.78211 0.0
C82 C 0.50845 0.96612 0.77119 0.0
O83 O 0.50209 0.98148 0.77393 0.0
C84 C 0.47545 0.98457 0.83272 0.0
C85 C 0.50449 0.93136 0.85897 0.0
O86 O 0.51487 0.94401 0.86039 0.0
O87 O 0.49602 0.92983 0.84496 0.0
O88 O 0.13542 0.02144 0.44606 0.0
Cd89 Cd 0.13905 0.05003 0.43364 0.0
O90 O 0.15128 0.032 0.46672 0.0
Cd91 Cd 0.16702 0.02826 0.48953 0.0
O92 O 0.19309 0.02421 0.49872 0.0
C93 C 0.20259 0.01548 0.48876 0.0
O94 O 0.19573 0.00891 0.47483 0.0
C95 C 0.14278 0.01961 0.46049 0.0
C96 C 0.1335 0.07326 0.46012 0.0
O97 O 0.12141 0.06939 0.44968 0.0
O98 O 0.14841 0.06687 0.45752 0.0
O99 O 0.98896 0.14716 0.50235 0.0
Cd100 Cd 0.96197 0.15349 0.4877 0.0
O101 O 0.98275 0.16195 0.52553 0.0
Cd102 Cd 0.96191 0.17553 0.51304 0.0
O103 O 0.95546 0.20003 0.50143 0.0
C104 C 0.96805 0.21031 0.50017 0.0
O105 O 0.98318 0.20521 0.50562 0.0
C106 C 0.99262 0.15172 0.51757 0.0
C107 C 0.936 0.13467 0.50337 0.0
O108 O 0.94582 0.12784 0.49211 0.0
O109 O 0.93816 0.15055 0.50695 0.0
O110 O 0.85936 0.98998 0.46797 0.0
Cd111 Cd 0.86368 0.96346 0.45207 0.0
O112 O 0.83687 0.97788 0.4794 0.0
Cd113 Cd 0.81434 0.97271 0.49535 0.0
O114 O 0.78634 0.97289 0.49574 0.0
C115 C 0.77959 0.97891 0.48216 0.0
O116 O 0.78976 0.98441 0.4699 0.0
C117 C 0.847 0.99067 0.47857 0.0
C118 C 0.87471 0.9393 0.47597 0.0
O119 O 0.88536 0.94926 0.46839 0.0
O120 O 0.85884 0.94037 0.47181 0.0
O121 O 0.00535 0.82883 0.49871 0.0
Cd122 Cd 0.03063 0.82342 0.48097 0.0
O123 O 0.01641 0.81816 0.52233 0.0
Cd124 Cd 0.0369 0.806 0.50785 0.0
O125 O 0.04706 0.78533 0.49211 0.0
C126 C 0.03594 0.77664 0.48397 0.0
O127 O 0.01973 0.78111 0.48522 0.0
C128 C 0.00433 0.82606 0.51476 0.0
C129 C 0.05401 0.84957 0.48783 0.0
O130 O 0.04203 0.85158 0.47677 0.0
O131 O 0.05537 0.83494 0.4952 0.0
O132 O 0.12206 0.95445 0.50757 0.0
Cd133 Cd 0.11807 0.93008 0.52677 0.0
O134 O 0.14881 0.94722 0.50254 0.0
Cd135 Cd 0.17445 0.95368 0.49327 0.0
O136 O 0.20158 0.96061 0.49338 0.0
C137 C 0.20697 0.96913 0.50618 0.0
O138 O 0.19593 0.97367 0.51808 0.0
C139 C 0.13627 0.95734 0.50016 0.0
C140 C 0.09781 0.90467 0.51202 0.0
O141 O 0.09107 0.91787 0.51912 0.0
O142 O 0.1142 0.90341 0.51192 0.0
O143 O 0.06851 0.12629 0.54601 0.0
Cd144 Cd 0.09958 0.12714 0.54931 0.0
O145 O 0.07072 0.15387 0.54098 0.0
Cd146 Cd 0.0595 0.17799 0.53193 0.0
O147 O 0.04848 0.20201 0.52251 0.0
C148 C 0.03402 0.20725 0.52792 0.0
O149 O 0.02575 0.19798 0.5393 0.0
C150 C 0.06153 0.14045 0.54206 0.0
C151 C 0.11405 0.11118 0.5209 0.0
O152 O 0.11236 0.10313 0.53513 0.0
O153 O 0.10924 0.12687 0.5202 0.0
O154 O 0.8609 0.04634 0.53839 0.0
Cd155 Cd 0.86619 0.06979 0.55823 0.0
O156 O 0.83622 0.0573 0.53076 0.0
Cd157 Cd 0.8118 0.0606 0.51734 0.0
O158 O 0.78493 0.05287 0.51666 0.0
C159 C 0.77867 0.04867 0.53111 0.0
O160 O 0.78831 0.05033 0.54484 0.0
C161 C 0.84753 0.04562 0.52911 0.0
C162 C 0.88821 0.09239 0.54167 0.0
O163 O 0.89397 0.07928 0.54973 0.0
O164 O 0.872 0.09513 0.54182 0.0
O165 O 0.93872 0.86498 0.54896 0.0
Cd166 Cd 0.91167 0.87684 0.55906 0.0
O167 O 0.93318 0.83872 0.55763 0.0
Cd168 Cd 0.93937 0.81136 0.55711 0.0
O169 O 0.9506 0.78626 0.55187 0.0
C170 C 0.95776 0.77745 0.56358 0.0
O171 O 0.95792 0.78345 0.57932 0.0
C172 C 0.9431 0.84935 0.55025 0.0
C173 C 0.89809 0.89665 0.53257 0.0
O174 O 0.90887 0.90293 0.54327 0.0
O175 O 0.89339 0.88104 0.53463 0.0
O176 O 0.49626 0.16021 0.03692 0.0
Cd177 Cd 0.48623 0.16503 0.06612 0.0
O178 O 0.51257 0.18282 0.04042 0.0
Cd179 Cd 0.52808 0.20341 0.02968 0.0
O180 O 0.52214 0.22912 0.02061 0.0
C181 C 0.50897 0.23003 0.01103 0.0
O182 O 0.50143 0.21569 0.00641 0.0
C183 C 0.50753 0.17044 0.03114 0.0
C184 C 0.49991 0.13948 0.08683 0.0
O185 O 0.48456 0.13827 0.08106 0.0
O186 O 0.50859 0.15292 0.08311 0.0
O187 O 0.49634 0.8689 0.96905 0.0
Cd188 Cd 0.47491 0.87145 0.94634 0.0
O189 O 0.4991 0.84181 0.96317 0.0
Cd190 Cd 0.50371 0.81418 0.96072 0.0
O191 O 0.50347 0.78633 0.9584 0.0
C192 C 0.49011 0.77865 0.96364 0.0
O193 O 0.47761 0.7878 0.97028 0.0
C194 C 0.50326 0.85456 0.97255 0.0
C195 C 0.48666 0.88946 0.91784 0.0
O196 O 0.48113 0.89731 0.93119 0.0
O197 O 0.48684 0.87303 0.91802 0.0
O198 O 0.12291 0.44351 0.95317 0.0
Cd199 Cd 0.10795 0.43428 0.92746 0.0
O200 O 0.14794 0.43997 0.94065 0.0
Cd201 Cd 0.17552 0.44472 0.94176 0.0
O202 O 0.19932 0.45369 0.95334 0.0
C203 C 0.21042 0.4431 0.95882 0.0
O204 O 0.20782 0.42662 0.95646 0.0
C205 C 0.13914 0.44457 0.95357 0.0
C206 C 0.09517 0.46392 0.91229 0.0
O207 O 0.0866 0.45583 0.92374 0.0
O208 O 0.10957 0.45759 0.90751 0.0
O209 O 0.54337 0.13841 0.96444 0.0
Cd210 Cd 0.55035 0.12586 0.93675 0.0
O211 O 0.53034 0.15935 0.95083 0.0
Cd212 Cd 0.51774 0.18425 0.95217 0.0
O213 O 0.51658 0.21161 0.95761 0.0
C214 C 0.52826 0.21757 0.9673 0.0
O215 O 0.53971 0.20693 0.97362 0.0
C216 C 0.53449 0.15206 0.96479 0.0
C217 C 0.52 0.11253 0.92346 0.0
O218 O 0.52965 0.10357 0.93332 0.0
O219 O 0.52497 0.12767 0.9195 0.0
O220 O 0.8746 0.55945 0.96079 0.0
Cd221 Cd 0.87333 0.56957 0.93118 0.0
O222 O 0.85664 0.54005 0.95122 0.0
Cd223 Cd 0.83749 0.52028 0.95663 0.0
O224 O 0.81361 0.50895 0.96583 0.0
C225 C 0.80883 0.51214 0.98108 0.0
O226 O 0.81889 0.5214 0.99093 0.0
C227 C 0.86535 0.54633 0.96349 0.0
C228 C 0.88526 0.54401 0.90934 0.0
O229 O 0.89497 0.55651 0.91378 0.0
O230 O 0.86985 0.54369 0.91502 0.0
O231 O 0.55386 0.86554 0.0392 0.0
Cd232 Cd 0.56388 0.86415 0.06874 0.0
O233 O 0.54079 0.84189 0.04658 0.0
Cd234 Cd 0.52369 0.82004 0.04308 0.0
O235 O 0.52035 0.79379 0.03436 0.0
C236 C 0.53358 0.7844 0.03599 0.0
O237 O 0.54716 0.79091 0.04355 0.0
C238 C 0.54388 0.85328 0.03533 0.0
C239 C 0.53774 0.87781 0.08871 0.0
O240 O 0.55088 0.88684 0.08471 0.0
O241 O 0.53723 0.86216 0.08375 0.0
O242 O 0.16883 0.49328 0.01461 0.0
Cd243 Cd 0.17919 0.50639 0.04102 0.0
O244 O 0.1873 0.47211 0.01684 0.0
Cd245 Cd 0.20397 0.48615 0.03437 0.0
O246 O 0.22654 0.5009 0.04191 0.0
C247 C 0.23572 0.50679 0.02979 0.0
O248 O 0.2309 0.50384 0.01392 0.0
C249 C 0.17418 0.47868 0.0097 0.0
C250 C 0.15801 0.49319 0.06659 0.0
O251 O 0.15496 0.50792 0.05996 0.0
O252 O 0.17151 0.48518 0.06173 0.0
O253 O 0.84905 0.50154 0.03255 0.0
Cd254 Cd 0.84002 0.48678 0.0587 0.0
O255 O 0.83982 0.5271 0.03985 0.0
Cd256 Cd 0.82298 0.51568 0.05892 0.0
O257 O 0.79692 0.50562 0.06027 0.0
C258 C 0.79175 0.49736 0.04718 0.0
O259 O 0.80251 0.49483 0.03447 0.0
C260 C 0.84806 0.51753 0.02956 0.0
C261 C 0.86426 0.49183 0.08454 0.0
O262 O 0.86685 0.48097 0.07251 0.0
O263 O 0.85015 0.50026 0.08454 0.0
O264 O 0.54537 0.9445 0.62355 0.0
Cd265 Cd 0.5689 0.931 0.60817 0.0
O266 O 0.56127 0.94638 0.64677 0.0
Cd267 Cd 0.5624 0.95284 0.67398 0.0
O268 O 0.55186 0.96052 0.69868 0.0
C269 C 0.54598 0.94917 0.70877 0.0
O270 O 0.54734 0.93294 0.70445 0.0
C271 C 0.54722 0.94927 0.639 0.0
C272 C 0.59166 0.95574 0.59609 0.0
O273 O 0.5782 0.95166 0.58758 0.0
O274 O 0.59447 0.948 0.61032 0.0
O275 O 0.01274 0.53448 0.61994 0.0
Cd276 Cd 0.03294 0.55759 0.61385 0.0
O277 O 0.00916 0.54376 0.64627 0.0
Cd278 Cd 0.00035 0.53982 0.67254 0.0
O279 O -0.0001 0.53561 0.7002 0.0
C280 C 0.01037 0.52487 0.70659 0.0
O281 O 0.02054 0.51633 0.69621 0.0
C282 C 0.00586 0.53289 0.63461 0.0
C283 C 0.01804 0.58578 0.59771 0.0
O284 O 0.02274 0.57258 0.58913 0.0
O285 O 0.02013 0.58557 0.61401 0.0
O286 O 0.49019 -0.00022 0.67386 0.0
Cd287 Cd 0.46497 0.01686 0.68155 0.0
O288 O 0.47788 0.9748 0.67834 0.0
Cd289 Cd 0.45863 0.98725 0.6942 0.0
O290 O 0.44938 0.00184 0.71614 0.0
C291 C 0.46091 0.00754 0.72616 0.0
O292 O 0.47705 0.00446 0.72241 0.0
C293 C 0.49047 0.9835 0.67275 0.0
C294 C 0.43972 0.01139 0.65668 0.0
O295 O 0.45193 0.02208 0.65413 0.0
O296 O 0.43909 0.00371 0.67118 0.0
O297 O 0.94664 0.47442 0.63807 0.0
Cd298 Cd 0.93193 0.44724 0.64274 0.0
O299 O 0.96527 0.46264 0.65549 0.0
Cd300 Cd 0.9875 0.46507 0.67222 0.0
O301 O 0.99278 0.47228 0.69865 0.0
C302 C 0.98375 0.48465 0.70421 0.0
O303 O 0.97343 0.49253 0.69345 0.0
C304 C 0.96089 0.47506 0.64592 0.0
C305 C 0.95227 0.42259 0.62701 0.0
O306 O 0.93885 0.42844 0.61952 0.0
O307 O 0.95561 0.42778 0.64223 0.0
O308 O 0.54483 0.02502 0.36069 0.0
Cd309 Cd 0.57453 0.03358 0.35634 0.0
O310 O 0.54299 0.02296 0.33278 0.0
Cd311 Cd 0.53104 0.01528 0.30868 0.0
O312 O 0.52279 0.01246 0.28217 0.0
C313 C 0.50939 0.01999 0.27675 0.0
O314 O 0.50012 0.0289 0.28763 0.0
C315 C 0.53629 0.02081 0.34748 0.0
C316 C 0.59395 0.00672 0.36943 0.0
O317 O 0.59157 0.0204 0.37822 0.0
O318 O 0.58774 0.00605 0.35423 0.0
O319 O 0.96344 0.54807 0.34977 0.0
Cd320 Cd 0.95588 0.57816 0.35275 0.0
O321 O 0.97198 0.55647 0.32436 0.0
Cd322 Cd 0.98204 0.55024 0.29905 0.0
O323 O 0.98076 0.54109 0.27269 0.0
C324 C 0.96851 0.53098 0.26902 0.0
O325 O 0.95793 0.52633 0.28129 0.0
C326 C 0.97091 0.54482 0.33568 0.0
C327 C 0.98537 0.59326 0.36578 0.0
O328 O 0.97258 0.59008 0.3756 0.0
O329 O 0.98391 0.5901 0.34973 0.0
O330 O 0.46479 0.98241 0.36826 0.0
Cd331 Cd 0.43697 0.9688 0.37237 0.0
O332 O 0.46134 0.98305 0.34042 0.0
Cd333 Cd 0.46895 0.9871 0.31374 0.0
O334 O 0.47204 0.98775 0.28596 0.0
C335 C 0.48482 0.98076 0.27868 0.0
O336 O 0.49668 0.97353 0.28824 0.0
C337 C 0.47042 0.98647 0.35353 0.0
C338 C 0.41701 0.99063 0.39225 0.0
O339 O 0.42753 0.98005 0.39916 0.0
O340 O 0.4156 0.99061 0.37587 0.0
O341 O 0.01821 0.47648 0.33794 0.0
Cd342 Cd 0.03093 0.4481 0.33501 0.0
O343 O 0.99866 0.4672 0.32 0.0
Cd344 Cd 0.97879 0.47266 0.30109 0.0
O345 O 0.97936 0.47872 0.27382 0.0
C346 C 0.9907 0.48966 0.26964 0.0
O347 O 0.99944 0.49718 0.28193 0.0
C348 C 0.00462 0.47912 0.32934 0.0
C349 C 0.01193 0.42555 0.35491 0.0
O350 O 0.02611 0.43172 0.36049 0.0
O351 O 0.00706 0.42962 0.33975 0.0
O352 O 0.65378 0.54287 0.00394 0.0
Cd353 Cd 0.6628 0.57218 0.99743 0.0
O354 O 0.68113 0.53687 0.0056 0.0
Cd355 Cd 0.70389 0.52149 0.01131 0.0
O356 O 0.73109 0.51504 0.0107 0.0
C357 C 0.73682 0.50595 0.99846 0.0
O358 O 0.72589 0.49969 0.98727 0.0
C359 C 0.66561 0.53196 0.00652 0.0
C360 C 0.63624 0.59593 0.00051 0.0
O361 O 0.63988 0.58916 0.98598 0.0
O362 O 0.64516 0.59143 0.01357 0.0
O363 O 0.45986 0.61906 0.94135 0.0
Cd364 Cd 0.43026 0.61058 0.93649 0.0
O365 O 0.4524 0.6462 0.94053 0.0
Cd366 Cd 0.45788 0.67326 0.94585 0.0
O367 O 0.46371 0.69984 0.95275 0.0
C368 C 0.47845 0.70618 0.94984 0.0
O369 O 0.49006 0.69662 0.94231 0.0
C370 C 0.46377 0.63476 0.943 0.0
C371 C 0.41758 0.60211 0.96878 0.0
O372 O 0.42508 0.59092 0.95935 0.0
O373 O 0.41546 0.61719 0.96263 0.0
O374 O 0.31908 0.48968 0.01532 0.0
Cd375 Cd 0.30722 0.46353 0.00289 0.0
O376 O 0.30975 0.48411 0.04136 0.0
Cd377 Cd 0.29232 0.4649 0.03102 0.0
O378 O 0.27248 0.45488 0.01403 0.0
C379 C 0.26602 0.46552 0.0035 0.0
O380 O 0.27166 0.48139 0.00364 0.0
C381 C 0.31861 0.49331 0.03123 0.0
C382 C 0.33017 0.43691 0.00959 0.0
O383 O 0.33064 0.44501 0.9953 0.0
O384 O 0.31863 0.44116 0.02049 0.0
O385 O 0.51397 0.34143 0.98619 0.0
Cd386 Cd 0.54278 0.33493 0.97545 0.0
O387 O 0.52025 0.3371 0.01333 0.0
Cd388 Cd 0.5415 0.32086 0.0055 0.0
O389 O 0.54471 0.29503 0.99541 0.0
C390 C 0.53228 0.28974 0.98627 0.0
O391 O 0.51947 0.30027 0.98326 0.0
C392 C 0.50987 0.34243 0.00196 0.0
C393 C 0.56563 0.35936 0.98817 0.0
O394 O 0.55632 0.36252 0.975 0.0
O395 O 0.56454 0.34448 0.99503 0.0
O396 O 0.63271 0.45926 0.03136 0.0
Cd397 Cd 0.62453 0.43241 0.04523 0.0
O398 O 0.66 0.45268 0.03331 0.0
Cd399 Cd 0.68736 0.45897 0.03251 0.0
O400 O 0.71451 0.46583 0.03242 0.0
C401 C 0.71967 0.47799 0.04195 0.0
O402 O 0.7084 0.48615 0.05146 0.0
C403 C 0.64833 0.46319 0.02891 0.0
C404 C 0.60669 0.41005 0.02385 0.0
O405 O 0.59912 0.42268 0.03114 0.0
O406 O 0.62279 0.40803 0.02654 0.0
O407 O 0.52995 0.65686 0.98872 0.0
Cd408 Cd 0.55394 0.66939 0.00449 0.0
O409 O 0.53436 0.67262 0.96579 0.0
Cd410 Cd 0.55105 0.68978 0.97997 0.0
O411 O 0.55198 0.71221 0.99649 0.0
C412 C 0.53788 0.72019 0.99828 0.0
O413 O 0.52425 0.71451 0.99013 0.0
C414 C 0.52636 0.66053 0.97324 0.0
C415 C 0.58132 0.6464 0.00452 0.0
O416 O 0.57066 0.64685 0.01702 0.0
O417 O 0.57913 0.657 0.99214 0.0
O418 O 0.37275 0.54721 0.06579 0.0
Cd419 Cd 0.39045 0.57223 0.07139 0.0
O420 O 0.35371 0.56528 0.05547 0.0
Cd421 Cd 0.32843 0.56789 0.04372 0.0
O422 O 0.3046 0.55568 0.03568 0.0
C423 C 0.29761 0.54542 0.04624 0.0
O424 O 0.30455 0.54346 0.06147 0.0
C425 C 0.35868 0.54997 0.05808 0.0
C426 C 0.39992 0.5843 0.03913 0.0
O427 O 0.40891 0.57301 0.04699 0.0
O428 O 0.38676 0.59041 0.04686 0.0
O429 O 0.4328 0.36422 0.03067 0.0
Cd430 Cd 0.40294 0.35931 0.03883 0.0
O431 O 0.42979 0.33984 0.01702 0.0
Cd432 Cd 0.44178 0.31796 0.00419 0.0
O433 O 0.45754 0.29536 0.9992 0.0
C434 C 0.47276 0.29485 0.00504 0.0
O435 O 0.47867 0.30824 0.01339 0.0
C436 C 0.43914 0.35246 0.02138 0.0
C437 C 0.38044 0.38498 0.02826 0.0
O438 O 0.38693 0.38508 0.04337 0.0
O439 O 0.38475 0.37282 0.01808 0.0
O440 O 0.00582 0.66616 0.50991 0.0
Cd441 Cd 0.98899 0.67174 0.53583 0.0
O442 O 0.03082 0.67188 0.52167 0.0
Cd443 Cd 0.01797 0.68558 0.54239 0.0
O444 O 0.00305 0.70633 0.55385 0.0
C445 C 0.99394 0.71508 0.54354 0.0
O446 O 0.99386 0.71076 0.52725 0.0
C447 C 0.02212 0.66626 0.50907 0.0
C448 C 0.99498 0.6449 0.55876 0.0
O449 O 0.98385 0.64347 0.54675 0.0
O450 O 0.00295 0.65919 0.56024 0.0
O451 O 0.96389 0.36756 0.45293 0.0
Cd452 Cd 0.95222 0.36452 0.42408 0.0
O453 O 0.96529 0.3396 0.45151 0.0
Cd454 Cd 0.97256 0.31444 0.4612 0.0
O455 O 0.97534 0.28862 0.47131 0.0
C456 C 0.96182 0.27973 0.47319 0.0
O457 O 0.94699 0.28659 0.46905 0.0
C458 C 0.96774 0.35336 0.45988 0.0
C459 C 0.97088 0.38371 0.40061 0.0
O460 O 0.95675 0.38939 0.40679 0.0
O461 O 0.97619 0.36895 0.40552 0.0
O462 O 0.63328 0.93131 0.45378 0.0
Cd463 Cd 0.63044 0.91964 0.42492 0.0
O464 O 0.65447 0.94516 0.44159 0.0
Cd465 Cd 0.67706 0.96153 0.44418 0.0
O466 O 0.70227 0.97099 0.45169 0.0
C467 C 0.707 0.97025 0.46729 0.0
O468 O 0.69619 0.96434 0.47878 0.0
C469 C 0.6453 0.94225 0.45474 0.0
C470 C 0.62067 0.94673 0.4039 0.0
O471 O 0.60957 0.93589 0.40934 0.0
O472 O 0.63645 0.94441 0.40783 0.0
O473 O 0.06535 0.62791 0.44788 0.0
Cd474 Cd 0.07659 0.6216 0.41942 0.0
O475 O 0.05764 0.6515 0.43475 0.0
Cd476 Cd 0.04673 0.67722 0.43569 0.0
O477 O 0.04041 0.703 0.44428 0.0
C478 C 0.05255 0.71218 0.45011 0.0
O479 O 0.06816 0.70583 0.45018 0.0
C480 C 0.05759 0.64221 0.44814 0.0
C481 C 0.04867 0.61325 0.39882 0.0
O482 O 0.05842 0.6015 0.40492 0.0
O483 O 0.05234 0.62891 0.40206 0.0
O484 O 0.36231 0.0476 0.48487 0.0
Cd485 Cd 0.36655 0.06303 0.45804 0.0
O486 O 0.33706 0.03912 0.47591 0.0
Cd487 Cd 0.31214 0.02669 0.47898 0.0
O488 O 0.28527 0.01914 0.47999 0.0
C489 C 0.27682 0.02012 0.49389 0.0
O490 O 0.28477 0.02504 0.5079 0.0
C491 C 0.34879 0.03885 0.48724 0.0
C492 C 0.38216 0.04065 0.43505 0.0
O493 O 0.39101 0.04938 0.4458 0.0
O494 O 0.36586 0.04278 0.43486 0.0
O495 O 0.00477 0.36569 0.53376 0.0
Cd496 Cd 0.01753 0.36291 0.56223 0.0
O497 O 0.00279 0.3378 0.53498 0.0
Cd498 Cd 0.99843 0.3116 0.52596 0.0
O499 O 0.00096 0.28379 0.52471 0.0
C500 C 0.0118 0.27715 0.51453 0.0
O501 O 0.0204 0.28729 0.50418 0.0
C502 C -8e-05 0.35171 0.52697 0.0
C503 C 0.99775 0.38069 0.58596 0.0
O504 O 0.01142 0.38735 0.57972 0.0
O505 O 0.99357 0.36555 0.58116 0.0
O506 O 0.66374 0.99626 0.51574 0.0
Cd507 Cd 0.66759 0.01267 0.54217 0.0
O508 O 0.67156 0.97233 0.5284 0.0
Cd509 Cd 0.68694 0.9874 0.54608 0.0
O510 O 0.70875 0.00463 0.54846 0.0
C511 C 0.71459 0.0105 0.53441 0.0
O512 O 0.70694 0.00613 0.52003 0.0
C513 C 0.66467 0.97997 0.51575 0.0
C514 C 0.6428 0.99926 0.56418 0.0
O515 O 0.63926 0.01163 0.55396 0.0
O516 O 0.65835 0.99397 0.56474 0.0
O517 O 0.36299 0.99668 0.55656 0.0
Cd518 Cd 0.3677 0.97729 0.58069 0.0
O519 O 0.33688 0.98678 0.55305 0.0
Cd520 Cd 0.31148 0.98652 0.54108 0.0
O521 O 0.28448 0.9847 0.53377 0.0
C522 C 0.27986 0.98016 0.51881 0.0
O523 O 0.29171 0.97678 0.50733 0.0
C524 C 0.34898 0.99659 0.54824 0.0
C525 C 0.39077 0.99061 0.60453 0.0
O526 O 0.39604 0.98322 0.59084 0.0
O527 O 0.37455 0.99172 0.607 0.0
C528 C 0.99898 0.46478 0.14119 0.0
C529 C 0.99417 0.48194 0.14421 0.0
C530 C 0.01623 0.46024 0.13868 0.0
C531 C 0.02923 0.47267 0.13942 0.0
H532 H 0.98942 0.45469 0.14132 0.0
H533 H 0.01949 0.44682 0.13711 0.0
S534 S 0.02359 0.51944 0.14536 0.0
N535 N 0.00397 0.51155 0.14645 0.0
N536 N 0.03628 0.50284 0.14193 0.0
C537 C 0.0246 0.4899 0.14153 0.0
C538 C 0.00708 0.49459 0.14387 0.0
C539 C 0.48963 0.01201 0.1389 0.0
C540 C 0.50764 0.01118 0.13978 0.0
C541 C 0.47969 0.99703 0.13805 0.0
C542 C 0.48746 0.98079 0.13853 0.0
H543 H 0.4832 0.02432 0.13857 0.0
H544 H 0.46586 0.99814 0.13723 0.0
S545 S 0.53408 0.97167 0.14068 0.0
N546 N 0.53282 0.99281 0.14082 0.0
N547 N 0.51411 0.96468 0.13965 0.0
C548 C 0.50542 0.97979 0.13948 0.0
C549 C 0.51554 0.995 0.13998 0.0
C550 C 0.99563 0.48984 0.8405 0.0
C551 C 0.97919 0.49717 0.8405 0.0
C552 C 0.01033 0.50022 0.84074 0.0
C553 C 0.00898 0.51821 0.8415 0.0
H554 H 0.99713 0.47603 0.84056 0.0
H555 H 0.02281 0.49412 0.84117 0.0
S556 S 0.96879 0.54354 0.84158 0.0
N557 N 0.96233 0.52338 0.84078 0.0
N558 N 0.98997 0.54287 0.84187 0.0
C559 C 0.99261 0.52566 0.84125 0.0
C560 C 0.97769 0.51512 0.84057 0.0
C561 C 0.45985 0.01902 0.86341 0.0
C562 C 0.44508 0.02536 0.8553 0.0
C563 C 0.4694 0.00567 0.85612 0.0
C564 C 0.46445 0.99806 0.84049 0.0
H565 H 0.46439 0.02478 0.87522 0.0
H566 H 0.48093 0.00155 0.86269 0.0
S567 S 0.42517 0.00854 0.81558 0.0
N568 N 0.42487 0.02209 0.83186 0.0
N569 N 0.44274 0.99697 0.818 0.0
C570 C 0.4492 0.00385 0.83265 0.0
C571 C 0.43954 0.01751 0.8401 0.0
C572 C 0.13388 0.98893 0.49684 0.0
C573 C 0.1384 0.97297 0.48983 0.0
C574 C 0.13562 0.00401 0.48724 0.0
C575 C 0.14137 0.00351 0.47017 0.0
H576 H 0.12917 0.98977 0.50989 0.0
H577 H 0.13217 0.01612 0.49311 0.0
S578 S 0.1546 0.96492 0.4459 0.0
N579 N 0.14903 0.95751 0.46497 0.0
N580 N 0.15161 0.98589 0.44664 0.0
C581 C 0.14576 0.98764 0.46296 0.0
C582 C 0.14446 0.97233 0.47289 0.0
C583 C 0.03295 0.15433 0.54442 0.0
C584 C 0.04323 0.14128 0.53753 0.0
C585 C 0.01616 0.15689 0.53859 0.0
C586 C 0.00922 0.14676 0.52535 0.0
H587 H 0.03808 0.1629 0.55408 0.0
H588 H 0.00889 0.16742 0.54397 0.0
S589 S 0.03058 0.1098 0.50427 0.0
N590 N 0.04502 0.11716 0.51793 0.0
N591 N 0.01355 0.1222 0.50656 0.0
C592 C 0.01915 0.1331 0.51895 0.0
C593 C 0.03615 0.13029 0.52516 0.0
C594 C 0.86139 0.0134 0.49564 0.0
C595 C 0.84602 0.00534 0.49067 0.0
C596 C 0.86153 0.02641 0.50796 0.0
C597 C 0.84633 0.03196 0.51594 0.0
H598 H 0.87354 0.00938 0.49023 0.0
H599 H 0.87374 0.03215 0.5113 0.0
S600 S 0.80257 0.01545 0.50719 0.0
N601 N 0.815 0.00498 0.49364 0.0
N602 N 0.81553 0.02789 0.51841 0.0
C603 C 0.83085 0.02407 0.51111 0.0
C604 C 0.83064 0.01115 0.49809 0.0
C605 C 0.97712 0.84296 0.51637 0.0
C606 C 0.98905 0.83203 0.52443 0.0
C607 C 0.96244 0.84867 0.52496 0.0
C608 C 0.95897 0.84348 0.54185 0.0
H609 H 0.9791 0.84719 0.50328 0.0
H610 H 0.95355 0.85698 0.51822 0.0
S611 S 0.98645 0.81605 0.56926 0.0
N612 N 0.99663 0.81688 0.55071 0.0
N613 N 0.96898 0.82778 0.5668 0.0
C614 C 0.97084 0.83286 0.55023 0.0
C615 C 0.98589 0.8271 0.54154 0.0
C616 C 0.51047 0.16111 0.98364 0.0
C617 C 0.52819 0.15878 0.98125 0.0
C618 C 0.5038 0.16529 -0.00019 0.0
C619 C 0.51473 0.16781 0.01391 0.0
H620 H 0.50164 0.15893 0.97312 0.0
H621 H 0.49003 0.16632 0.00136 0.0
S622 S 0.56214 0.16427 0.01401 0.0
N623 N 0.55655 0.15974 0.99408 0.0
N624 N 0.5441 0.16838 0.02435 0.0
C625 C 0.53252 0.16627 0.01149 0.0
C626 C 0.53925 0.16152 0.99517 0.0
C627 C 0.51777 0.86854 0.99748 0.0
C628 C 0.51494 0.8535 0.98777 0.0
C629 C 0.52759 0.86839 0.0125 0.0
C630 C 0.53495 0.85318 0.01863 0.0
H631 H 0.51209 0.88063 0.99368 0.0
H632 H 0.52897 0.88021 0.01968 0.0
S633 S 0.53413 0.81083 0.99715 0.0
N634 N 0.52221 0.82328 0.98486 0.0
N635 N 0.54069 0.82313 0.01307 0.0
C636 C 0.53305 0.83822 0.00883 0.0
C637 C 0.52307 0.83835 0.99342 0.0
C638 C 0.15156 0.47743 0.98691 0.0
C639 C 0.16513 0.46938 0.99576 0.0
C640 C 0.14293 0.4691 0.97353 0.0
C641 C 0.14765 0.45251 0.96841 0.0
H642 H 0.14764 0.49034 0.99019 0.0
H643 H 0.13274 0.47584 0.96688 0.0
S644 S 0.18073 0.42494 0.98842 0.0
N645 N 0.18186 0.44316 0.99914 0.0
N646 N 0.16563 0.42773 0.97382 0.0
C647 C 0.1608 0.4441 0.97732 0.0
C648 C 0.16954 0.45249 0.99104 0.0
C649 C 0.85506 0.54264 0.01071 0.0
C650 C 0.85502 0.52475 0.01337 0.0
C651 C 0.85937 0.54969 0.99473 0.0
C652 C 0.86358 0.53908 0.98083 0.0
H653 H 0.85119 0.55128 0.02088 0.0
H654 H 0.85859 0.56346 0.99302 0.0
S655 S 0.86742 0.49174 0.98129 0.0
N656 N 0.86117 0.49674 0.00088 0.0
N657 N 0.86915 0.51013 0.97093 0.0
C658 C 0.86454 0.52132 0.98348 0.0
C659 C 0.86031 0.51412 -0.00026 0.0
C660 C 0.51652 0.95085 0.64779 0.0
C661 C 0.53305 0.958 0.6479 0.0
C662 C 0.50287 0.95901 0.65619 0.0
C663 C 0.50523 0.9748 0.66463 0.0
H664 H 0.51417 0.9388 0.64128 0.0
H665 H 0.49031 0.95307 0.65579 0.0
S666 S 0.5461 0.99894 0.6682 0.0
N667 N 0.55107 0.98178 0.65685 0.0
N668 N 0.52545 0.99719 0.67261 0.0
C669 C 0.52173 0.9821 0.66473 0.0
C670 C 0.53564 0.97368 0.65635 0.0
C671 C 0.97797 0.52054 0.64429 0.0
C672 C 0.99477 0.51807 0.63821 0.0
C673 C 0.96688 0.50655 0.64671 0.0
C674 C 0.97252 0.48971 0.64366 0.0
H675 H 0.97325 0.53337 0.64675 0.0
H676 H 0.9539 0.50888 0.65108 0.0
S677 S 0.01553 0.47649 0.62836 0.0
N678 N 0.01656 0.49763 0.6294 0.0
N679 N 0.99598 0.4713 0.63466 0.0
C680 C 0.98942 0.48709 0.63802 0.0
C681 C 0.0005 0.50131 0.63511 0.0
C682 C 0.4903 0.00716 0.33898 0.0
C683 C 0.48733 0.99495 0.35195 0.0
C684 C 0.50613 0.01562 0.33765 0.0
C685 C 0.51947 0.01229 0.34932 0.0
H686 H 0.48021 0.01057 0.33008 0.0
H687 H 0.50778 0.0251 0.32763 0.0
S688 S 0.51826 0.98151 0.38558 0.0
N689 N 0.4991 0.97999 0.37668 0.0
N690 N 0.52873 0.996 0.37424 0.0
C691 C 0.51659 0.00031 0.36247 0.0
C692 C 0.50055 0.99162 0.36377 0.0
C693 C 0.97833 0.4969 0.33296 0.0
C694 C 0.99609 0.49594 0.32985 0.0
C695 C 0.9701 0.51281 0.33477 0.0
C696 C 0.9793 0.52817 0.33293 0.0
H697 H 0.97088 0.48528 0.33453 0.0
H698 H 0.9565 0.51311 0.33763 0.0
S699 S 0.02582 0.53254 0.32411 0.0
N700 N 0.02252 0.51162 0.32484 0.0
N701 N 0.00694 0.54152 0.32753 0.0
C702 C 0.99694 0.52736 0.32935 0.0
C703 C 0.00539 0.51122 0.328 0.0
C704 C 0.64777 0.51136 0.02312 0.0
C705 C 0.66124 0.51424 0.01151 0.0
C706 C 0.64358 0.49475 0.0285 0.0
C707 C 0.6527 0.48043 0.02243 0.0
H708 H 0.64062 0.52207 0.02836 0.0
H709 H 0.63334 0.49313 0.03776 0.0
S710 S 0.68695 0.48087 0.98947 0.0
N711 N 0.68231 0.50131 0.99252 0.0
N712 N 0.6743 0.47001 0.00254 0.0
C713 C 0.66568 0.48306 0.01022 0.0
C714 C 0.67 0.5 0.00478 0.0
C715 C 0.48978 0.6533 0.94206 0.0
C716 C 0.48082 0.6396 0.9495 0.0
C717 C 0.50511 0.65927 0.94926 0.0
C718 C 0.51178 0.65206 0.96444 0.0
H719 H 0.48475 0.65963 0.93075 0.0
H720 H 0.51142 0.67007 0.94323 0.0
S721 S 0.49374 0.61473 0.98791 0.0
N722 N 0.48024 0.61798 0.97192 0.0
N723 N 0.50884 0.62943 0.9858 0.0
C724 C 0.5033 0.63776 0.97151 0.0
C725 C 0.48786 0.63149 0.96396 0.0
C726 C 0.33347 0.5085 0.05536 0.0
C727 C 0.32864 0.50797 0.03793 0.0
C728 C 0.34344 0.52201 0.06185 0.0
C729 C 0.34857 0.53559 0.05121 0.0
H730 H 0.32972 0.49829 0.064 0.0
H731 H 0.34695 0.52197 0.0753 0.0
S732 S 0.33951 0.54039 0.00478 0.0
N733 N 0.32989 0.52233 0.01023 0.0
N734 N 0.34864 0.54759 0.02247 0.0
C735 C 0.34392 0.53522 0.03382 0.0
C736 C 0.33392 0.52146 0.02717 0.0
C737 C 0.46185 0.34885 0.99937 0.0
C738 C 0.45735 0.35268 0.01637 0.0
C739 C 0.47901 0.34658 0.99463 0.0
C740 C 0.49229 0.34777 0.00682 0.0
H741 H 0.45197 0.3471 0.98974 0.0
H742 H 0.48176 0.34299 0.9815 0.0
S743 S 0.4872 0.35918 0.05276 0.0
N744 N 0.46742 0.35897 0.04516 0.0
N745 N 0.49979 0.35441 0.0364 0.0
C746 C 0.48798 0.35245 0.02373 0.0
C747 C 0.47047 0.35502 0.02846 0.0
C748 C 0.05651 0.64797 0.47968 0.0
C749 C 0.04838 0.64797 0.4636 0.0
C750 C 0.04798 0.65405 0.49433 0.0
C751 C 0.0309 0.65995 0.49343 0.0
H752 H 0.06963 0.64355 0.48087 0.0
H753 H 0.05476 0.65399 0.50646 0.0
S754 S 0.00379 0.66161 0.45428 0.0
N755 N 0.02228 0.65372 0.44762 0.0
N756 N 0.00615 0.66502 0.47505 0.0
C757 C 0.02258 0.65965 0.47741 0.0
C758 C 0.03135 0.65369 0.46252 0.0
C759 C 0.99674 0.3637 0.49746 0.0
C760 C 0.99149 0.35182 0.50999 0.0
C761 C 0.98884 0.36425 0.4813 0.0
C762 C 0.97547 0.3529 0.47714 0.0
H763 H 0.00714 0.37253 0.50009 0.0
H764 H 0.99341 0.37341 0.47191 0.0
S765 S 0.9551 0.32139 0.50631 0.0
N766 N 0.97073 0.32991 0.5178 0.0
N767 N 0.95609 0.33076 0.48734 0.0
C768 C 0.96971 0.34138 0.48972 0.0
C769 C 0.97768 0.34088 0.50618 0.0
C770 C 0.65656 0.97842 0.48485 0.0
C771 C 0.6585 0.9701 0.50075 0.0
C772 C 0.65191 0.96929 0.47014 0.0
C773 C 0.64884 0.95155 0.47078 0.0
H774 H 0.65912 0.99202 0.48362 0.0
H775 H 0.65086 0.97615 0.45809 0.0
S776 S 0.65069 0.92392 0.50936 0.0
N777 N 0.65599 0.94318 0.5164 0.0
N778 N 0.64702 0.92611 0.48861 0.0
C779 C 0.64998 0.94316 0.48664 0.0
C780 C 0.65494 0.95241 0.50166 0.0
C781 C 0.35322 0.02455 0.53341 0.0
C782 C 0.34714 0.00759 0.53298 0.0
C783 C 0.35316 0.03478 0.51864 0.0
C784 C 0.34709 0.02838 0.50291 0.0
H785 H 0.35826 0.02987 0.54522 0.0
H786 H 0.35814 0.04773 0.51946 0.0
S787 S 0.33193 0.98409 0.49457 0.0
N788 N 0.33604 0.98444 0.51535 0.0
N789 N 0.33623 0.00357 0.48748 0.0
C790 C 0.34113 0.01138 0.50227 0.0
C791 C 0.34108 0.001 0.51735 0.0
C792 C 0.99433 0.48162 0.22173 0.0
C793 C 0.00863 0.49158 0.21701 0.0
C794 C 0.98811 0.48167 0.2386 0.0
C795 C 0.99586 0.49177 0.25141 0.0
H796 H 0.98826 0.47318 0.21252 0.0
H797 H 0.97748 0.47329 0.2417 0.0
S798 S 0.03194 0.52223 0.24502 0.0
N799 N 0.02917 0.51325 0.22606 0.0
N800 N 0.01738 0.51352 0.25767 0.0
C801 C 0.00944 0.50266 0.24658 0.0
C802 C 0.01585 0.50251 0.22942 0.0
C803 C 0.51604 0.01084 0.24678 0.0
C804 C 0.50531 0.01985 0.25814 0.0
C805 C 0.5134 0.01138 0.22905 0.0
C806 C 0.49995 0.02101 0.22184 0.0
H807 H 0.52679 0.00343 0.25155 0.0
H808 H 0.52225 0.00439 0.22094 0.0
S809 S 0.46741 0.04606 0.24597 0.0
N810 N 0.48005 0.03801 0.26093 0.0
N811 N 0.47518 0.03914 0.22753 0.0
C812 C 0.48877 0.0297 0.23304 0.0
C813 C 0.49142 0.02909 0.25118 0.0
C814 C 0.95037 0.50593 0.23136 0.0
C815 C 0.96049 0.51137 0.21747 0.0
C816 C 0.95307 0.51237 0.24792 0.0
C817 C 0.96593 0.52461 0.25126 0.0
H818 H 0.94049 0.49633 0.22955 0.0
H819 H 0.94508 0.50754 0.2582 0.0
S820 S 0.99527 0.54388 0.21904 0.0
N821 N 0.98348 0.53021 0.20798 0.0
N822 N 0.98845 0.54245 0.23903 0.0
C823 C 0.97593 0.53044 0.23739 0.0
C824 C 0.97324 0.52378 0.22053 0.0
C825 C 0.50014 0.96878 0.23398 0.0
C826 C 0.48756 0.97594 0.22318 0.0
C827 C 0.4993 0.97068 0.25184 0.0
C828 C 0.48583 0.97979 0.25968 0.0
H829 H 0.51068 0.96148 0.22864 0.0
H830 H 0.50924 0.96476 0.25954 0.0
S831 S 0.44991 0.00162 0.23716 0.0
N832 N 0.46143 0.993 0.22166 0.0
N833 N 0.45985 0.99653 0.25514 0.0
C834 C 0.47333 0.98732 0.24901 0.0
C835 C 0.4742 0.98542 0.23081 0.0
C836 C 0.02478 0.51194 0.7322 0.0
C837 C 0.01195 0.52271 0.72546 0.0
C838 C 0.02713 0.51014 0.74993 0.0
C839 C 0.01671 0.51899 0.7617 0.0
H840 H 0.03325 0.5049 0.72375 0.0
H841 H 0.03731 0.50181 0.75439 0.0
S842 S 0.98061 0.54816 0.75077 0.0
N843 N 0.98825 0.54195 0.73204 0.0
N844 N 0.9926 0.53852 0.76531 0.0
C845 C 0.00361 0.5296 0.75516 0.0
C846 C 0.00124 0.53146 0.73708 0.0
C847 C 0.43895 0.02126 0.74516 0.0
C848 C 0.45621 0.017 0.74201 0.0
C849 C 0.43403 0.02969 0.76024 0.0
C850 C 0.44613 0.03416 0.77288 0.0
H851 H 0.42907 0.01798 0.73595 0.0
H852 H 0.42054 0.03248 0.76208 0.0
S853 S 0.49311 0.0263 0.77073 0.0
N854 N 0.48554 0.01826 0.75268 0.0
N855 N 0.4763 0.03399 0.78103 0.0
C856 C 0.4635 0.03019 0.7698 0.0
C857 C 0.46852 0.02166 0.75439 0.0
C858 C 0.96796 0.50284 0.74644 0.0
C859 C 0.97816 0.49444 0.75873 0.0
C860 C 0.97034 0.50006 0.72887 0.0
C861 C 0.98294 0.48865 0.7228 0.0
H862 H 0.95781 0.51147 0.75037 0.0
H863 H 0.96188 0.50663 0.72002 0.0
S864 S 0.01417 0.46459 0.74956 0.0
N865 N 0.00222 0.47509 0.76352 0.0
N866 N 0.0066 0.46978 0.73048 0.0
C867 C 0.99367 0.48061 0.7349 0.0
C868 C 0.99129 0.4835 0.75285 0.0
C869 C 0.52473 0.9457 0.75246 0.0
C870 C 0.5185 0.96239 0.75542 0.0
C871 C 0.53374 0.94163 0.73745 0.0
C872 C 0.537 0.95409 0.72481 0.0
H873 H 0.52252 0.93559 0.76173 0.0
H874 H 0.53814 0.92857 0.73576 0.0
S875 S 0.52344 -0.00027 0.72618 0.0
N876 N 0.51631 0.99152 0.74433 0.0
N877 N 0.53322 0.98384 0.71619 0.0
C878 C 0.53101 0.97088 0.72764 0.0
C879 C 0.52177 0.97502 0.74291 0.0
C880 C 0.24993 0.01185 0.47852 0.0
C881 C 0.25796 0.01736 0.49372 0.0
C882 C 0.23207 0.01057 0.47734 0.0
C883 C 0.22143 0.01492 0.49125 0.0
H884 H 0.25745 0.00875 0.46726 0.0
H885 H 0.22658 0.00667 0.46519 0.0
S886 S 0.236 0.02807 0.53461 0.0
N887 N 0.25388 0.02572 0.52353 0.0
N888 N 0.22025 0.02346 0.52121 0.0
C889 C 0.22927 0.0197 0.50678 0.0
C890 C 0.24753 0.02088 0.50804 0.0
C891 C 0.98032 0.23856 0.49143 0.0
C892 C 0.96591 0.22781 0.49302 0.0
C893 C 0.97885 0.25525 0.48501 0.0
C894 C 0.96288 0.26194 0.47989 0.0
H895 H 0.99294 0.23408 0.49514 0.0
H896 H 0.99037 0.26294 0.48409 0.0
S897 S 0.92114 0.23896 0.48109 0.0
N898 N 0.93511 0.22499 0.4887 0.0
N899 N 0.93231 0.25636 0.47661 0.0
C900 C 0.94833 0.25131 0.48129 0.0
C901 C 0.94985 0.23426 0.48784 0.0
C902 C 0.73691 0.97814 0.45893 0.0
C903 C 0.72506 0.97417 0.47196 0.0
C904 C 0.75437 0.98017 0.46252 0.0
C905 C 0.76079 0.97828 0.47928 0.0
H906 H 0.7328 0.97923 0.44571 0.0
H907 H 0.76296 0.98272 0.4519 0.0
S908 S 0.73494 0.97019 0.51842 0.0
N909 N 0.72081 0.97006 0.50264 0.0
N910 N 0.75372 0.97385 0.50934 0.0
C911 C 0.74902 0.97516 0.4926 0.0
C912 C 0.73115 0.97313 0.48896 0.0
C913 C 0.02784 0.75026 0.46769 0.0
C914 C 0.04078 0.76094 0.47435 0.0
C915 C 0.03182 0.73475 0.45957 0.0
C916 C 0.04891 0.72924 0.45774 0.0
H917 H 0.01444 0.75367 0.46903 0.0
H918 H 0.02131 0.72688 0.455 0.0
S919 S 0.08771 0.75313 0.47172 0.0
N920 N 0.07151 0.76537 0.4777 0.0
N921 N 0.079 0.73624 0.46242 0.0
C922 C 0.06204 0.74005 0.46386 0.0
C923 C 0.05798 0.75588 0.47215 0.0
C924 C 0.23151 0.97851 0.52454 0.0
C925 C 0.22554 0.97267 0.50854 0.0
C926 C 0.24902 0.98104 0.52761 0.0
C927 C 0.26135 0.97795 0.51479 0.0
H928 H 0.22264 0.98092 0.53494 0.0
H929 H 0.25287 0.98536 0.54023 0.0
S930 S 0.25232 0.96388 0.47017 0.0
N931 N 0.23328 0.96476 0.47937 0.0
N932 N 0.26621 0.96959 0.4851 0.0
C933 C 0.25554 0.97254 0.49856 0.0
C934 C 0.23765 0.96989 0.49545 0.0
C935 C 0.01369 0.23174 0.53199 0.0
C936 C 0.02731 0.22433 0.52277 0.0
C937 C 0.0083 0.24857 0.52874 0.0
C938 C 0.01625 0.25868 0.51606 0.0
H939 H 0.00747 0.22474 0.54226 0.0
H940 H 0.99814 0.25383 0.53662 0.0
S941 S 0.05078 0.24439 0.4865 0.0
N942 N 0.04741 0.22775 0.49914 0.0
N943 N 0.03723 0.25933 0.49294 0.0
C944 C 0.02917 0.25106 0.506 0.0
C945 C 0.03472 0.23391 0.50938 0.0
C946 C 0.75379 0.03378 0.51732 0.0
C947 C 0.76168 0.04017 0.53225 0.0
C948 C 0.73846 0.02446 0.51817 0.0
C949 C 0.73034 0.02116 0.53397 0.0
H950 H 0.75972 0.03559 0.50489 0.0
H951 H 0.73315 0.01949 0.50633 0.0
S952 S 0.74506 0.03615 0.57671 0.0
N953 N 0.75974 0.0433 0.56325 0.0
N954 N 0.73092 0.02581 0.56482 0.0
C955 C 0.73784 0.02786 0.54896 0.0
C956 C 0.75349 0.03736 0.5481 0.0
C957 C 0.96668 0.7554 0.54205 0.0
C958 C 0.96648 0.76107 0.5592 0.0
C959 C 0.97535 0.74043 0.53727 0.0
C960 C 0.98424 0.73042 0.54938 0.0
H961 H 0.96025 0.76268 0.53212 0.0
H962 H 0.97521 0.73684 0.52385 0.0
S963 S 0.98715 0.73913 0.59613 0.0
N964 N 0.97556 0.75512 0.58849 0.0
N965 N 0.99186 0.72697 0.57947 0.0
C966 C 0.98391 0.73572 0.56665 0.0
C967 C 0.97504 0.75102 0.57155 0.0
C968 C 0.50695 0.26178 0.01539 0.0
C969 C 0.50084 0.24685 0.00731 0.0
C970 C 0.49819 0.2774 0.01395 0.0
C971 C 0.48292 0.27875 0.00439 0.0
H972 H 0.51832 0.26134 0.02337 0.0
H973 H 0.50318 0.28835 0.02087 0.0
S974 S 0.46273 0.244 0.97882 0.0
N975 N 0.47948 0.23482 0.98796 0.0
N976 N 0.46301 0.26414 0.98528 0.0
C977 C 0.4772 0.26416 0.99542 0.0
C978 C 0.48615 0.24823 0.99688 0.0
C979 C 0.47149 0.75262 0.96266 0.0
C980 C 0.48792 0.75992 0.9611 0.0
C981 C 0.46865 0.73523 0.95928 0.0
C982 C 0.48213 0.72435 0.9542 0.0
H983 H 0.46057 0.76046 0.96617 0.0
H984 H 0.45568 0.73037 0.96035 0.0
S985 S 0.52798 0.7367 0.94999 0.0
N986 N 0.51814 0.75465 0.95536 0.0
N987 N 0.51285 0.72192 0.94901 0.0
C988 C 0.49878 0.73134 0.95317 0.0
C989 C 0.50166 0.74911 0.95661 0.0
C990 C 0.23429 0.43735 0.97949 0.0
C991 C 0.22513 0.44911 0.9693 0.0
C992 C 0.24752 0.44276 0.99039 0.0
C993 C 0.25227 0.46014 0.99145 0.0
H994 H 0.231 0.42386 0.97935 0.0
H995 H 0.254 0.4332 0.99811 0.0
S996 S 0.23289 0.49603 0.96675 0.0
N997 N 0.22208 0.47892 0.96057 0.0
N998 N 0.24711 0.48905 0.9808 0.0
C999 C 0.24348 0.47201 0.98101 0.0
C1000 C 0.22988 0.46651 0.97003 0.0
C1001 C 0.54309 0.25954 0.98709 0.0
C1002 C 0.5315 0.27165 0.98042 0.0
C1003 C 0.54196 0.24216 0.98268 0.0
C1004 C 0.52921 0.23615 0.97138 0.0
H1005 H 0.55295 0.2634 0.99608 0.0
H1006 H 0.55107 0.23337 0.98839 0.0
S1007 S 0.49624 0.2628 0.9496 0.0
N1008 N 0.50719 0.27652 0.96142 0.0
N1009 N 0.5051 0.2439 0.95308 0.0
C1010 C 0.51772 0.24818 0.96433 0.0
C1011 C 0.51886 0.2659 0.96886 0.0
C1012 C 0.78433 0.51598 0.00141 0.0
C1013 C 0.79113 0.50797 0.98673 0.0
C1014 C 0.76692 0.51451 0.0056 0.0
C1015 C 0.75558 0.50494 0.99531 0.0
H1016 H 0.79232 0.52408 0.00938 0.0
H1017 H 0.76225 0.5215 0.01665 0.0
S1018 S 0.76758 0.47888 0.95729 0.0
N1019 N 0.78563 0.48825 0.96319 0.0
N1020 N 0.75291 0.48547 0.97106 0.0
C1021 C 0.76247 0.49582 0.98133 0.0
C1022 C 0.78022 0.49733 0.97705 0.0
C1023 C 0.5224 0.74678 0.00721 0.0
C1024 C 0.53677 0.73597 0.00881 0.0
C1025 C 0.52125 0.76215 0.01643 0.0
C1026 C 0.53441 0.76733 0.02766 0.0
H1027 H 0.51207 0.74359 0.99847 0.0
H1028 H 0.51011 0.77021 0.01439 0.0
S1029 S 0.57411 0.74287 0.03758 0.0
N1030 N 0.56399 0.731 0.02326 0.0
N1031 N 0.56182 0.75983 0.04064 0.0
C1032 C 0.54861 0.75636 0.0298 0.0
C1033 C 0.5498 0.74072 0.02036 0.0
C1034 C 0.27165 0.52858 0.05455 0.0
C1035 C 0.28196 0.53569 0.04157 0.0
C1036 C 0.25674 0.51934 0.05061 0.0
C1037 C 0.25159 0.51669 0.0335 0.0
H1038 H 0.275 0.53029 0.06793 0.0
H1039 H 0.24923 0.51423 0.06111 0.0
S1040 S 0.27475 0.53183 0.99467 0.0
N1041 N 0.2864 0.53891 0.01087 0.0
N1042 N 0.25841 0.52159 0.0034 0.0
C1043 C 0.26194 0.52356 0.02036 0.0
C1044 C 0.2771 0.53304 0.0244 0.0
C1045 C 0.74383 0.49426 0.05541 0.0
C1046 C 0.73815 0.48258 0.04287 0.0
C1047 C 0.76118 0.49871 0.05687 0.0
C1048 C 0.77359 0.49179 0.04576 0.0
H1049 H 0.73483 0.50002 0.06428 0.0
H1050 H 0.76482 0.50784 0.06668 0.0
S1051 S 0.76554 0.4606 0.01067 0.0
N1052 N 0.74644 0.46413 0.01909 0.0
N1053 N 0.77902 0.47254 0.0218 0.0
C1054 C 0.76813 0.48008 0.03314 0.0
C1055 C 0.75044 0.47548 0.0317 0.0
C1056 C 0.13473 0.49571 0.08856 0.0
C1057 C 0.1458 0.48531 0.07882 0.0
C1058 C 0.12256 0.48848 0.09966 0.0
C1059 C 0.12072 0.47058 0.10112 0.0
H1060 H 0.13549 0.50955 0.08763 0.0
H1061 H 0.11431 0.49699 0.10691 0.0
S1062 S 0.14656 0.43771 0.07837 0.0
N1063 N 0.15426 0.45619 0.07149 0.0
N1064 N 0.13116 0.44263 0.09204 0.0
C1065 C 0.13171 0.46004 0.09146 0.0
C1066 C 0.14432 0.4674 0.08041 0.0
C1067 C 0.52555 0.12239 0.09527 0.0
C1068 C 0.50781 0.12536 0.09667 0.0
C1069 C 0.5333 0.10846 0.10355 0.0
C1070 C 0.52367 0.09727 0.11388 0.0
H1071 H 0.53345 0.13064 0.08736 0.0
H1072 H 0.54696 0.1065 0.1019 0.0
S1073 S 0.47688 0.09976 0.12219 0.0
N1074 N 0.48083 0.11609 0.10928 0.0
N1075 N 0.49553 0.09019 0.12532 0.0
C1076 C 0.50599 0.1003 0.11572 0.0
C1077 C 0.49801 0.11427 0.10696 0.0
C1078 C 0.90755 0.5002 0.10491 0.0
C1079 C 0.90358 0.50151 0.12244 0.0
C1080 C 0.89476 0.49665 0.09277 0.0
C1081 C 0.8775 0.49494 0.0977 0.0
H1082 H 0.92067 0.50171 0.10058 0.0
H1083 H 0.89834 0.49563 0.07938 0.0
S1084 S 0.86042 0.49756 0.14197 0.0
N1085 N 0.88128 0.50064 0.14418 0.0
N1086 N 0.85707 0.49484 0.12122 0.0
C1087 C 0.87333 0.49642 0.11515 0.0
C1088 C 0.88644 0.49947 0.12758 0.0
C1089 C 0.49192 0.88932 0.09971 0.0
C1090 C 0.49391 0.90262 0.11169 0.0
C1091 C 0.50622 0.88075 0.09299 0.0
C1092 C 0.52298 0.8856 0.0976 0.0
H1093 H 0.47923 0.88565 0.09538 0.0
H1094 H 0.50415 0.87076 0.08356 0.0
S1095 S 0.53501 0.91956 0.12863 0.0
N1096 N 0.51383 0.91992 0.12832 0.0
N1097 N 0.54075 0.90427 0.11514 0.0
C1098 C 0.52513 0.89874 0.10973 0.0
C1099 C 0.51056 0.90713 0.11693 0.0
C1100 C 0.08897 0.50126 0.88168 0.0
C1101 C 0.0764 0.51127 0.8899 0.0
C1102 C 0.09512 0.48609 0.88911 0.0
C1103 C 0.08873 0.48019 0.90492 0.0
H1104 H 0.09403 0.50507 0.86931 0.0
H1105 H 0.10471 0.47876 0.88223 0.0
S1106 S 0.05621 0.50196 0.93204 0.0
N1107 N 0.05819 0.51445 0.91507 0.0
N1108 N 0.06959 0.48587 0.9289 0.0
C1109 C 0.07635 0.49019 0.91341 0.0
C1110 C 0.07024 0.50576 0.90596 0.0
C1111 C 0.49597 0.0915 0.92586 0.0
C1112 C 0.50329 0.10569 0.91749 0.0
C1113 C 0.47997 0.085 0.92096 0.0
C1114 C 0.47069 0.09231 0.90729 0.0
H1115 H 0.50258 0.08538 0.9365 0.0
H1116 H 0.47496 0.07405 0.92781 0.0
S1117 S 0.4842 0.12962 0.88098 0.0
N1118 N 0.50001 0.1269 0.89481 0.0
N1119 N 0.47 0.11455 0.88541 0.0
C1120 C 0.47787 0.10646 0.89873 0.0
C1121 C 0.49412 0.11322 0.90384 0.0
C1122 C 0.88714 0.51292 0.90219 0.0
C1123 C 0.89188 0.52995 0.89859 0.0
C1124 C 0.89431 0.49919 0.89305 0.0
C1125 C 0.90597 0.50212 0.87963 0.0
H1126 H 0.87829 0.51015 0.91255 0.0
H1127 H 0.89076 0.48622 0.89653 0.0
S1128 S 0.92199 0.54434 0.86473 0.0
N1129 N 0.90877 0.54899 0.88061 0.0
N1130 N 0.92169 0.52324 0.86294 0.0
C1131 C 0.91038 0.5191 0.87555 0.0
C1132 C 0.90348 0.53302 0.88517 0.0
C1133 C 0.50346 0.92592 0.89046 0.0
C1134 C 0.50133 0.91975 0.87364 0.0
C1135 C 0.49886 0.91593 0.90467 0.0
C1136 C 0.49236 0.89925 0.90262 0.0
H1137 H 0.50813 0.93881 0.89268 0.0
H1138 H 0.50032 0.92139 0.91737 0.0
S1139 S 0.48533 0.87667 0.86133 0.0
N1140 N 0.49282 0.89568 0.85574 0.0
N1141 N 0.48464 0.8767 0.8825 0.0
C1142 C 0.49077 0.89266 0.88591 0.0
C1143 C 0.49511 0.90297 0.8714 0.0
C1144 C 0.11817 0.09737 0.47453 0.0
C1145 C 0.12999 0.0838 0.47542 0.0
C1146 C 0.11364 0.10665 0.48925 0.0
C1147 C 0.12039 0.10231 0.50542 0.0
H1148 H 0.11227 0.10074 0.4624 0.0
H1149 H 0.1043 0.11687 0.48804 0.0
S1150 S 0.15194 0.06789 0.51453 0.0
N1151 N 0.14871 0.06674 0.49363 0.0
N1152 N 0.13973 0.08378 0.5214 0.0
C1153 C 0.13235 0.08888 0.50644 0.0
C1154 C 0.1373 0.07973 0.49139 0.0
C1155 C 0.92653 0.10673 0.51554 0.0
C1156 C 0.92325 0.12422 0.51267 0.0
C1157 C 0.91521 0.09664 0.52515 0.0
C1158 C 0.89998 0.10356 0.53189 0.0
H1159 H 0.93814 0.10085 0.51066 0.0
H1160 H 0.91834 0.08325 0.52714 0.0
S1161 S 0.88513 0.14854 0.52745 0.0
N1162 N 0.90362 0.14803 0.51712 0.0
N1163 N 0.88202 0.1289 0.53476 0.0
C1164 C 0.89635 0.12096 0.52883 0.0
C1165 C 0.90808 0.13134 0.51934 0.0
C1166 C 0.89591 0.93134 0.49858 0.0
C1167 C 0.88053 0.92772 0.48986 0.0
C1168 C 0.90134 0.92131 0.51245 0.0
C1169 C 0.89177 0.90705 0.51798 0.0
H1170 H 0.90369 0.94225 0.4949 0.0
H1171 H 0.91323 0.92471 0.51879 0.0
S1172 S 0.85079 0.89174 0.49918 0.0
N1173 N 0.85587 0.90874 0.48761 0.0
N1174 N 0.86628 0.88963 0.51348 0.0
C1175 C 0.8765 0.90308 0.50921 0.0
C1176 C 0.87082 0.91348 0.49522 0.0
C1177 C 0.09246 0.87385 0.50518 0.0
C1178 C 0.08693 0.891 0.50468 0.0
C1179 C 0.08182 0.86052 0.49947 0.0
C1180 C 0.06546 0.86391 0.49264 0.0
H1181 H 0.10488 0.87063 0.51054 0.0
H1182 H 0.08641 0.84744 0.50052 0.0
S1183 S 0.04545 0.90681 0.48751 0.0
N1184 N 0.06432 0.91077 0.4963 0.0
N1185 N 0.0445 0.88579 0.48513 0.0
C1186 C 0.06004 0.88109 0.49151 0.0
C1187 C 0.07072 0.89461 0.49766 0.0
C1188 C 0.6337 0.97823 0.58662 0.0
C1189 C 0.62918 0.99015 0.57383 0.0
C1190 C 0.62135 0.96766 0.59428 0.0
C1191 C 0.60404 0.9684 0.58925 0.0
H1192 H 0.64698 0.9767 0.59044 0.0
H1193 H 0.62555 0.95835 0.60371 0.0
S1194 S 0.58515 0.99853 0.5576 0.0
N1195 N 0.60585 0.00301 0.55749 0.0
N1196 N 0.58273 0.98294 0.57172 0.0
C1197 C 0.59919 0.98076 0.57704 0.0
C1198 C 0.61173 0.99171 0.5694 0.0
C1199 C 0.00322 0.59908 0.57261 0.0
C1200 C 0.0109 0.60098 0.58882 0.0
C1201 C 0.99742 0.61333 0.56332 0.0
C1202 C 0.99943 0.63007 0.56974 0.0
H1203 H 0.00183 0.58647 0.56693 0.0
H1204 H 0.99191 0.61124 0.55074 0.0
S1205 S 0.01794 0.642 0.61192 0.0
N1206 N 0.01943 0.62088 0.61129 0.0
N1207 N 0.00892 0.64772 0.59362 0.0
C1208 C 0.00671 0.63215 0.58611 0.0
C1209 C 0.01233 0.6176 0.59571 0.0
C1210 C 0.41059 0.00161 0.64755 0.0
C1211 C 0.42708 0.00742 0.64309 0.0
C1212 C 0.39872 0.99675 0.63495 0.0
C1213 C 0.40307 0.99708 0.61745 0.0
H1214 H 0.40685 0.00074 0.66091 0.0
H1215 H 0.38623 0.99218 0.63898 0.0
S1216 S 0.44441 0.01165 0.59896 0.0
N1217 N 0.44694 0.01378 0.61988 0.0
N1218 N 0.42479 0.00414 0.59623 0.0
C1219 C 0.41943 0.00305 0.61278 0.0
C1220 C 0.43138 0.00837 0.62559 0.0
C1221 C 0.96867 0.38831 0.59683 0.0
C1222 C 0.98657 0.39056 0.59761 0.0
C1223 C 0.95761 0.39857 0.6066 0.0
C1224 C 0.9641 0.41104 0.61787 0.0
H1225 H 0.96314 0.37899 0.58814 0.0
H1226 H 0.94389 0.39681 0.60525 0.0
S1227 S 0.00995 0.42141 0.62526 0.0
N1228 N 0.01028 0.40593 0.6108 0.0
N1229 N 0.9895 0.42479 0.62964 0.0
C1230 C 0.98197 0.413 0.61924 0.0
C1231 C 0.99322 0.40288 0.60896 0.0
C1232 C 0.59589 0.97511 0.37331 0.0
C1233 C 0.60222 0.99156 0.37714 0.0
C1234 C 0.6021 0.96058 0.38188 0.0
C1235 C 0.61522 0.96196 0.39414 0.0
H1236 H 0.58557 0.97352 0.36414 0.0
H1237 H 0.59651 0.9482 0.37897 0.0
S1238 S 0.63672 0.00199 0.40819 0.0
N1239 N 0.62254 0.00837 0.39377 0.0
N1240 N 0.63473 0.98093 0.40938 0.0
C1241 C 0.62212 0.97824 0.39763 0.0
C1242 C 0.61547 0.99309 0.38926 0.0
C1243 C 0.0021 0.61238 0.3852 0.0
C1244 C 0.00178 0.59914 0.373 0.0
C1245 C 0.01754 0.61736 0.39298 0.0
C1246 C 0.03299 0.60881 0.38926 0.0
H1247 H 0.99035 0.61889 0.38877 0.0
H1248 H 0.01728 0.62754 0.40243 0.0
S1249 S 0.03883 0.57322 0.35832 0.0
N1250 N 0.01817 0.5778 0.35728 0.0
N1251 N 0.04706 0.58661 0.37254 0.0
C1252 C 0.03281 0.59557 0.37708 0.0
C1253 C 0.01722 0.59088 0.36876 0.0
C1254 C 0.4063 0.02066 0.42882 0.0
C1255 C 0.39059 0.02796 0.42375 0.0
C1256 C 0.4145 0.00834 0.4187 0.0
C1257 C 0.40752 0.00309 0.40292 0.0
H1258 H 0.41223 0.02434 0.44084 0.0
H1259 H 0.4266 0.00311 0.42314 0.0
S1260 S 0.36668 0.01827 0.38375 0.0
N1261 N 0.36823 0.02891 0.40199 0.0
N1262 N 0.38394 0.00602 0.3827 0.0
C1263 C 0.39186 0.01031 0.39762 0.0
C1264 C 0.38331 0.02266 0.40812 0.0
C1265 C 0.99904 0.39313 0.38871 0.0
C1266 C 0.98102 0.39404 0.38843 0.0
C1267 C 0.00899 0.40339 0.3778 0.0
C1268 C 0.00123 0.41449 0.3659 0.0
H1269 H 0.00551 0.38475 0.39772 0.0
H1270 H 0.02284 0.40254 0.37863 0.0
S1271 S 0.95452 0.42116 0.35969 0.0
N1272 N 0.95582 0.4068 0.37521 0.0
N1273 N 0.97451 0.42565 0.35429 0.0
C1274 C 0.98323 0.41523 0.36522 0.0
C1275 C 0.97312 0.40512 0.37662 0.0
C1276 C 0.61641 0.61739 0.98731 0.0
C1277 C 0.6223 0.60877 0.00203 0.0
C1278 C 0.60336 0.62971 0.98832 0.0
C1279 C 0.59547 0.63371 0.00405 0.0
H1280 H 0.62201 0.61473 0.97488 0.0
H1281 H 0.59927 0.63596 0.9766 0.0
S1282 S 0.6061 0.61471 0.04641 0.0
N1283 N 0.61927 0.60514 0.03288 0.0
N1284 N 0.59456 0.6281 0.03473 0.0
C1285 C 0.60118 0.62515 0.01888 0.0
C1286 C 0.61465 0.61275 0.01789 0.0
C1287 C 0.41559 0.57928 0.01168 0.0
C1288 C 0.40423 0.58945 0.02133 0.0
C1289 C 0.41951 0.58334 0.99463 0.0
C1290 C 0.41242 0.59784 0.98658 0.0
H1291 H 0.4214 0.56797 0.01723 0.0
H1292 H 0.4284 0.5751 0.98781 0.0
S1293 S 0.38194 0.62872 0.00619 0.0
N1294 N 0.38582 0.61466 0.02154 0.0
N1295 N 0.3934 0.6224 0.98954 0.0
C1296 C 0.40106 0.60818 0.99607 0.0
C1297 C 0.39692 0.60393 0.01342 0.0
C1298 C 0.3462 0.41939 0.03108 0.0
C1299 C 0.34296 0.42349 0.0138 0.0
C1300 C 0.35852 0.40712 0.03559 0.0
C1301 C 0.36789 0.39823 0.023 0.0
H1302 H 0.33931 0.42586 0.04126 0.0
H1303 H 0.36055 0.40444 0.04907 0.0
S1304 S 0.36425 0.40411 0.97589 0.0
N1305 N 0.35021 0.41774 0.984 0.0
N1306 N 0.37315 0.39441 0.99249 0.0
C1307 C 0.36473 0.40211 0.00566 0.0
C1308 C 0.35235 0.41482 0.00106 0.0
C1309 C 0.60149 0.3802 0.01359 0.0
C1310 C 0.59692 0.39764 0.0134 0.0
C1311 C 0.59144 0.36791 0.00514 0.0
C1312 C 0.57674 0.37269 0.99582 0.0
H1313 H 0.61254 0.37592 0.02084 0.0
H1314 H 0.59513 0.35455 0.00605 0.0
S1315 S 0.56002 0.41691 0.99034 0.0
N1316 N 0.57714 0.4192 0.00261 0.0
N1317 N 0.55855 0.39618 0.98627 0.0
C1318 C 0.57244 0.39019 0.99494 0.0
C1319 C 0.58245 0.40264 0.00387 0.0
loop_
_geom_bond_atom_site_label_1
_geom_bond_atom_site_label_2
_geom_bond_distance
_geom_bond_site_symmetry_2
_ccdc_geom_bond_type
O0 Cd1 2.300 . S
O0 C7 1.275 . S
Cd1 O0 2.300 . S
Cd1 O9 2.381 . S
Cd1 O10 2.378 . S
O2 Cd3 2.385 . S
O2 C7 1.255 . S
Cd3 O2 2.385 . S
Cd3 O4 2.317 . S
O4 Cd3 2.317 . S
O4 C5 1.232 . S
C5 O4 1.232 . S
C5 O6 1.218 . S
O6 C5 1.218 . S
C7 O0 1.275 . S
C7 O2 1.255 . S
C8 O9 1.258 . S
C8 O10 1.256 . S
O9 Cd1 2.381 . S
O9 C8 1.258 . S
O10 Cd1 2.378 . S
O10 C8 1.256 . S
O11 Cd12 2.300 . S
O11 C18 1.275 . S
Cd12 O11 2.300 . S
Cd12 O20 2.381 . S
Cd12 O21 2.378 . S
O13 Cd14 2.385 . S
O13 C18 1.255 . S
Cd14 O13 2.385 . S
Cd14 O15 2.317 . S
O15 Cd14 2.317 . S
O15 C16 1.232 . S
C16 O15 1.232 . S
C16 O17 1.218 . S
O17 C16 1.218 . S
C18 O11 1.275 . S
C18 O13 1.255 . S
C19 O20 1.258 . S
C19 O21 1.256 . S
O20 Cd12 2.381 . S
O20 C19 1.258 . S
O21 Cd12 2.378 . S
O21 C19 1.256 . S
O22 Cd23 2.300 . S
O22 C29 1.275 . S
Cd23 O22 2.300 . S
Cd23 O31 2.381 . S
Cd23 O32 2.378 . S
O24 Cd25 2.385 . S
O24 C29 1.255 . S
Cd25 O24 2.385 . S
Cd25 O26 2.317 . S
O26 Cd25 2.317 . S
O26 C27 1.232 . S
C27 O26 1.232 . S
C27 O28 1.218 . S
O28 C27 1.218 . S
C29 O22 1.275 . S
C29 O24 1.255 . S
C30 O31 1.258 . S
C30 O32 1.256 . S
O31 Cd23 2.381 . S
O31 C30 1.258 . S
O32 Cd23 2.378 . S
O32 C30 1.256 . S
O33 Cd34 2.300 . S
O33 C40 1.275 . S
Cd34 O33 2.300 . S
Cd34 O42 2.381 . S
Cd34 O43 2.378 . S
O35 Cd36 2.385 . S
O35 C40 1.255 . S
Cd36 O35 2.385 . S
Cd36 O37 2.317 . S
O37 Cd36 2.317 . S
O37 C38 1.232 . S
C38 O37 1.232 . S
C38 O39 1.218 . S
O39 C38 1.218 . S
C40 O33 1.275 . S
C40 O35 1.255 . S
C41 O42 1.258 . S
C41 O43 1.256 . S
O42 Cd34 2.381 . S
O42 C41 1.258 . S
O43 Cd34 2.378 . S
O43 C41 1.256 . S
O44 Cd45 2.300 . S
O44 C51 1.275 . S
Cd45 O44 2.300 . S
Cd45 O53 2.381 . S
Cd45 O54 2.378 . S
O46 Cd47 2.385 . S
O46 C51 1.255 . S
Cd47 O46 2.385 . S
Cd47 O48 2.317 . S
O48 Cd47 2.317 . S
O48 C49 1.232 . S
C49 O48 1.232 . S
C49 O50 1.218 . S
O50 C49 1.218 . S
C51 O44 1.275 . S
C51 O46 1.255 . S
C52 O53 1.258 . S
C52 O54 1.256 . S
O53 Cd45 2.381 . S
O53 C52 1.258 . S
O54 Cd45 2.378 . S
O54 C52 1.256 . S
O55 Cd56 2.300 . S
O55 C62 1.275 . S
Cd56 O55 2.300 . S
Cd56 O64 2.381 . S
Cd56 O65 2.378 . S
O57 Cd58 2.385 . S
O57 C62 1.255 . S
Cd58 O57 2.385 . S
Cd58 O59 2.317 . S
O59 Cd58 2.317 . S
O59 C60 1.232 . S
C60 O59 1.232 . S
C60 O61 1.218 . S
O61 C60 1.218 . S
C62 O55 1.275 . S
C62 O57 1.255 . S
C63 O64 1.258 . S
C63 O65 1.256 . S
O64 Cd56 2.381 . S
O64 C63 1.258 . S
O65 Cd56 2.378 . S
O65 C63 1.256 . S
O66 Cd67 2.300 . S
O66 C73 1.275 . S
Cd67 O66 2.300 . S
Cd67 O75 2.381 . S
Cd67 O76 2.378 . S
O68 Cd69 2.385 . S
O68 C73 1.255 . S
Cd69 O68 2.385 . S
Cd69 O70 2.317 . S
O70 Cd69 2.317 . S
O70 C71 1.232 . S
C71 O70 1.232 . S
C71 O72 1.218 . S
O72 C71 1.218 . S
C73 O66 1.275 . S
C73 O68 1.255 . S
C74 O75 1.258 . S
C74 O76 1.256 . S
O75 Cd67 2.381 . S
O75 C74 1.258 . S
O76 Cd67 2.378 . S
O76 C74 1.256 . S
O77 Cd78 2.300 . S
O77 C84 1.275 . S
Cd78 O77 2.300 . S
Cd78 O86 2.381 . S
Cd78 O87 2.378 . S
O79 Cd80 2.385 . S
O79 C84 1.255 . S
Cd80 O79 2.385 . S
Cd80 O81 2.317 . S
O81 Cd80 2.317 . S
O81 C82 1.232 . S
C82 O81 1.232 . S
C82 O83 1.218 . S
O83 C82 1.218 . S
C84 O77 1.275 . S
C84 O79 1.255 . S
C85 O86 1.258 . S
C85 O87 1.256 . S
O86 Cd78 2.381 . S
O86 C85 1.258 . S
O87 Cd78 2.378 . S
O87 C85 1.256 . S
O88 Cd89 2.300 . S
O88 C95 1.275 . S
Cd89 O88 2.300 . S
Cd89 O97 2.381 . S
Cd89 O98 2.378 . S
O90 Cd91 2.385 . S
O90 C95 1.255 . S
Cd91 O90 2.385 . S
Cd91 O92 2.317 . S
O92 Cd91 2.317 . S
O92 C93 1.232 . S
C93 O92 1.232 . S
C93 O94 1.218 . S
O94 C93 1.218 . S
C95 O88 1.275 . S
C95 O90 1.255 . S
C96 O97 1.258 . S
C96 O98 1.256 . S
O97 Cd89 2.381 . S
O97 C96 1.258 . S
O98 Cd89 2.378 . S
O98 C96 1.256 . S
O99 Cd100 2.300 . S
O99 C106 1.275 . S
Cd100 O99 2.300 . S
Cd100 O108 2.381 . S
Cd100 O109 2.378 . S
O101 Cd102 2.385 . S
O101 C106 1.255 . S
Cd102 O101 2.385 . S
Cd102 O103 2.317 . S
O103 Cd102 2.317 . S
O103 C104 1.232 . S
C104 O103 1.232 . S
C104 O105 1.218 . S
O105 C104 1.218 . S
C106 O99 1.275 . S
C106 O101 1.255 . S
C107 O108 1.258 . S
C107 O109 1.256 . S
O108 Cd100 2.381 . S
O108 C107 1.258 . S
O109 Cd100 2.378 . S
O109 C107 1.256 . S
O110 Cd111 2.300 . S
O110 C117 1.275 . S
Cd111 O110 2.300 . S
Cd111 O119 2.381 . S
Cd111 O120 2.378 . S
O112 Cd113 2.385 . S
O112 C117 1.255 . S
Cd113 O112 2.385 . S
Cd113 O114 2.317 . S
O114 Cd113 2.317 . S
O114 C115 1.232 . S
C115 O114 1.232 . S
C115 O116 1.218 . S
O116 C115 1.218 . S
C117 O110 1.275 . S
C117 O112 1.255 . S
C118 O119 1.258 . S
C118 O120 1.256 . S
O119 Cd111 2.381 . S
O119 C118 1.258 . S
O120 Cd111 2.378 . S
O120 C118 1.256 . S
O121 Cd122 2.300 . S
O121 C128 1.275 . S
Cd122 O121 2.300 . S
Cd122 O130 2.381 . S
Cd122 O131 2.378 . S
O123 Cd124 2.385 . S
O123 C128 1.255 . S
Cd124 O123 2.385 . S
Cd124 O125 2.317 . S
O125 Cd124 2.317 . S
O125 C126 1.232 . S
C126 O125 1.232 . S
C126 O127 1.218 . S
O127 C126 1.218 . S
C128 O121 1.275 . S
C128 O123 1.255 . S
C129 O130 1.258 . S
C129 O131 1.256 . S
O130 Cd122 2.381 . S
O130 C129 1.258 . S
O131 Cd122 2.378 . S
O131 C129 1.256 . S
O132 Cd133 2.300 . S
O132 C139 1.275 . S
Cd133 O132 2.300 . S
Cd133 O141 2.381 . S
Cd133 O142 2.378 . S
O134 Cd135 2.385 . S
O134 C139 1.255 . S
Cd135 O134 2.385 . S
Cd135 O136 2.317 . S
O136 Cd135 2.317 . S
O136 C137 1.232 . S
C137 O136 1.232 . S
C137 O138 1.218 . S
O138 C137 1.218 . S
C139 O132 1.275 . S
C139 O134 1.255 . S
C140 O141 1.258 . S
C140 O142 1.256 . S
O141 Cd133 2.381 . S
O141 C140 1.258 . S
O142 Cd133 2.378 . S
O142 C140 1.256 . S
O143 Cd144 2.300 . S
O143 C150 1.275 . S
Cd144 O143 2.300 . S
Cd144 O152 2.381 . S
Cd144 O153 2.378 . S
O145 Cd146 2.385 . S
O145 C150 1.255 . S
Cd146 O145 2.385 . S
Cd146 O147 2.317 . S
O147 Cd146 2.317 . S
O147 C148 1.232 . S
C148 O147 1.232 . S
C148 O149 1.218 . S
O149 C148 1.218 . S
C150 O143 1.275 . S
C150 O145 1.255 . S
C151 O152 1.258 . S
C151 O153 1.256 . S
O152 Cd144 2.381 . S
O152 C151 1.258 . S
O153 Cd144 2.378 . S
O153 C151 1.256 . S
O154 Cd155 2.300 . S
O154 C161 1.275 . S
Cd155 O154 2.300 . S
Cd155 O163 2.381 . S
Cd155 O164 2.378 . S
O156 Cd157 2.385 . S
O156 C161 1.255 . S
Cd157 O156 2.385 . S
Cd157 O158 2.317 . S
O158 Cd157 2.317 . S
O158 C159 1.232 . S
C159 O158 1.232 . S
C159 O160 1.218 . S
O160 C159 1.218 . S
C161 O154 1.275 . S
C161 O156 1.255 . S
C162 O163 1.258 . S
C162 O164 1.256 . S
O163 Cd155 2.381 . S
O163 C162 1.258 . S
O164 Cd155 2.378 . S
O164 C162 1.256 . S
O165 Cd166 2.300 . S
O165 C172 1.275 . S
Cd166 O165 2.300 . S
Cd166 O174 2.381 . S
Cd166 O175 2.378 . S
O167 Cd168 2.385 . S
O167 C172 1.255 . S
Cd168 O167 2.385 . S
Cd168 O169 2.317 . S
O169 Cd168 2.317 . S
O169 C170 1.232 . S
C170 O169 1.232 . S
C170 O171 1.218 . S
O171 C170 1.218 . S
C172 O165 1.275 . S
C172 O167 1.255 . S
C173 O174 1.258 . S
C173 O175 1.256 . S
O174 Cd166 2.381 . S
O174 C173 1.258 . S
O175 Cd166 2.378 . S
O175 C173 1.256 . S
O176 Cd177 2.300 . S
O176 C183 1.275 . S
Cd177 O176 2.300 . S
Cd177 O185 2.381 . S
Cd177 O186 2.378 . S
O178 Cd179 2.385 . S
O178 C183 1.255 . S
Cd179 O178 2.385 . S
Cd179 O180 2.317 . S
O180 Cd179 2.317 . S
O180 C181 1.232 . S
C181 O180 1.232 . S
C181 O182 1.218 . S
O182 C181 1.218 . S
C183 O176 1.275 . S
C183 O178 1.255 . S
C184 O185 1.258 . S
C184 O186 1.256 . S
O185 Cd177 2.381 . S
O185 C184 1.258 . S
O186 Cd177 2.378 . S
O186 C184 1.256 . S
O187 Cd188 2.300 . S
O187 C194 1.275 . S
Cd188 O187 2.300 . S
Cd188 O196 2.381 . S
Cd188 O197 2.378 . S
O189 Cd190 2.385 . S
O189 C194 1.255 . S
Cd190 O189 2.385 . S
Cd190 O191 2.317 . S
O191 Cd190 2.317 . S
O191 C192 1.232 . S
C192 O191 1.232 . S
C192 O193 1.218 . S
O193 C192 1.218 . S
C194 O187 1.275 . S
C194 O189 1.255 . S
C195 O196 1.258 . S
C195 O197 1.256 . S
O196 Cd188 2.381 . S
O196 C195 1.258 . S
O197 Cd188 2.378 . S
O197 C195 1.256 . S
O198 Cd199 2.300 . S
O198 C205 1.275 . S
Cd199 O198 2.300 . S
Cd199 O207 2.381 . S
Cd199 O208 2.378 . S
O200 Cd201 2.385 . S
O200 C205 1.255 . S
Cd201 O200 2.385 . S
Cd201 O202 2.317 . S
O202 Cd201 2.317 . S
O202 C203 1.232 . S
C203 O202 1.232 . S
C203 O204 1.218 . S
O204 C203 1.218 . S
C205 O198 1.275 . S
C205 O200 1.255 . S
C206 O207 1.258 . S
C206 O208 1.256 . S
O207 Cd199 2.381 . S
O207 C206 1.258 . S
O208 Cd199 2.378 . S
O208 C206 1.256 . S
O209 Cd210 2.300 . S
O209 C216 1.275 . S
Cd210 O209 2.300 . S
Cd210 O218 2.381 . S
Cd210 O219 2.378 . S
O211 Cd212 2.385 . S
O211 C216 1.255 . S
Cd212 O211 2.385 . S
Cd212 O213 2.317 . S
O213 Cd212 2.317 . S
O213 C214 1.232 . S
C214 O213 1.232 . S
C214 O215 1.218 . S
O215 C214 1.218 . S
C216 O209 1.275 . S
C216 O211 1.255 . S
C217 O218 1.258 . S
C217 O219 1.256 . S
O218 Cd210 2.381 . S
O218 C217 1.258 . S
O219 Cd210 2.378 . S
O219 C217 1.256 . S
O220 Cd221 2.300 . S
O220 C227 1.275 . S
Cd221 O220 2.300 . S
Cd221 O229 2.381 . S
Cd221 O230 2.378 . S
O222 Cd223 2.385 . S
O222 C227 1.255 . S
Cd223 O222 2.385 . S
Cd223 O224 2.317 . S
O224 Cd223 2.317 . S
O224 C225 1.232 . S
C225 O224 1.232 . S
C225 O226 1.218 . S
O226 C225 1.218 . S
C227 O220 1.275 . S
C227 O222 1.255 . S
C228 O229 1.258 . S
C228 O230 1.256 . S
O229 Cd221 2.381 . S
O229 C228 1.258 . S
O230 Cd221 2.378 . S
O230 C228 1.256 . S
O231 Cd232 2.300 . S
O231 C238 1.275 . S
Cd232 O231 2.300 . S
Cd232 O240 2.381 . S
Cd232 O241 2.378 . S
O233 Cd234 2.385 . S
O233 C238 1.255 . S
Cd234 O233 2.385 . S
Cd234 O235 2.317 . S
O235 Cd234 2.317 . S
O235 C236 1.232 . S
C236 O235 1.232 . S
C236 O237 1.218 . S
O237 C236 1.218 . S
C238 O231 1.275 . S
C238 O233 1.255 . S
C239 O240 1.258 . S
C239 O241 1.256 . S
O240 Cd232 2.381 . S
O240 C239 1.258 . S
O241 Cd232 2.378 . S
O241 C239 1.256 . S
O242 Cd243 2.300 . S
O242 C249 1.275 . S
Cd243 O242 2.300 . S
Cd243 O251 2.381 . S
Cd243 O252 2.378 . S
O244 Cd245 2.385 . S
O244 C249 1.255 . S
Cd245 O244 2.385 . S
Cd245 O246 2.317 . S
O246 Cd245 2.317 . S
O246 C247 1.232 . S
C247 O246 1.232 . S
C247 O248 1.218 . S
O248 C247 1.218 . S
C249 O242 1.275 . S
C249 O244 1.255 . S
C250 O251 1.258 . S
C250 O252 1.256 . S
O251 Cd243 2.381 . S
O251 C250 1.258 . S
O252 Cd243 2.378 . S
O252 C250 1.256 . S
O253 Cd254 2.300 . S
O253 C260 1.275 . S
Cd254 O253 2.300 . S
Cd254 O262 2.381 . S
Cd254 O263 2.378 . S
O255 Cd256 2.385 . S
O255 C260 1.255 . S
Cd256 O255 2.385 . S
Cd256 O257 2.317 . S
O257 Cd256 2.317 . S
O257 C258 1.232 . S
C258 O257 1.232 . S
C258 O259 1.218 . S
O259 C258 1.218 . S
C260 O253 1.275 . S
C260 O255 1.255 . S
C261 O262 1.258 . S
C261 O263 1.256 . S
O262 Cd254 2.381 . S
O262 C261 1.258 . S
O263 Cd254 2.378 . S
O263 C261 1.256 . S
O264 Cd265 2.300 . S
O264 C271 1.275 . S
Cd265 O264 2.300 . S
Cd265 O273 2.381 . S
Cd265 O274 2.378 . S
O266 Cd267 2.385 . S
O266 C271 1.255 . S
Cd267 O266 2.385 . S
Cd267 O268 2.317 . S
O268 Cd267 2.317 . S
O268 C269 1.232 . S
C269 O268 1.232 . S
C269 O270 1.218 . S
O270 C269 1.218 . S
C271 O264 1.275 . S
C271 O266 1.255 . S
C272 O273 1.258 . S
C272 O274 1.256 . S
O273 Cd265 2.381 . S
O273 C272 1.258 . S
O274 Cd265 2.378 . S
O274 C272 1.256 . S
O275 Cd276 2.300 . S
O275 C282 1.275 . S
Cd276 O275 2.300 . S
Cd276 O284 2.381 . S
Cd276 O285 2.378 . S
O277 Cd278 2.385 . S
O277 C282 1.255 . S
Cd278 O277 2.385 . S
Cd278 O279 2.317 . S
O279 Cd278 2.317 . S
O279 C280 1.232 . S
C280 O279 1.232 . S
C280 O281 1.218 . S
O281 C280 1.218 . S
C282 O275 1.275 . S
C282 O277 1.255 . S
C283 O284 1.258 . S
C283 O285 1.256 . S
O284 Cd276 2.381 . S
O284 C283 1.258 . S
O285 Cd276 2.378 . S
O285 C283 1.256 . S
O286 Cd287 2.300 . S
O286 C293 1.275 . S
Cd287 O286 2.300 . S
Cd287 O295 2.381 . S
Cd287 O296 2.378 . S
O288 Cd289 2.385 . S
O288 C293 1.255 . S
Cd289 O288 2.385 . S
Cd289 O290 2.317 . S
O290 Cd289 2.317 . S
O290 C291 1.232 . S
C291 O290 1.232 . S
C291 O292 1.218 . S
O292 C291 1.218 . S
C293 O286 1.275 . S
C293 O288 1.255 . S
C294 O295 1.258 . S
C294 O296 1.256 . S
O295 Cd287 2.381 . S
O295 C294 1.258 . S
O296 Cd287 2.378 . S
O296 C294 1.256 . S
O297 Cd298 2.300 . S
O297 C304 1.275 . S
Cd298 O297 2.300 . S
Cd298 O306 2.381 . S
Cd298 O307 2.378 . S
O299 Cd300 2.385 . S
O299 C304 1.255 . S
Cd300 O299 2.385 . S
Cd300 O301 2.317 . S
O301 Cd300 2.317 . S
O301 C302 1.232 . S
C302 O301 1.232 . S
C302 O303 1.218 . S
O303 C302 1.218 . S
C304 O297 1.275 . S
C304 O299 1.255 . S
C305 O306 1.258 . S
C305 O307 1.256 . S
O306 Cd298 2.381 . S
O306 C305 1.258 . S
O307 Cd298 2.378 . S
O307 C305 1.256 . S
O308 Cd309 2.300 . S
O308 C315 1.275 . S
Cd309 O308 2.300 . S
Cd309 O317 2.381 . S
Cd309 O318 2.378 . S
O310 Cd311 2.385 . S
O310 C315 1.255 . S
Cd311 O310 2.385 . S
Cd311 O312 2.317 . S
O312 Cd311 2.317 . S
O312 C313 1.232 . S
C313 O312 1.232 . S
C313 O314 1.218 . S
O314 C313 1.218 . S
C315 O308 1.275 . S
C315 O310 1.255 . S
C316 O317 1.258 . S
C316 O318 1.256 . S
O317 Cd309 2.381 . S
O317 C316 1.258 . S
O318 Cd309 2.378 . S
O318 C316 1.256 . S
O319 Cd320 2.300 . S
O319 C326 1.275 . S
Cd320 O319 2.300 . S
Cd320 O328 2.381 . S
Cd320 O329 2.378 . S
O321 Cd322 2.385 . S
O321 C326 1.255 . S
Cd322 O321 2.385 . S
Cd322 O323 2.317 . S
O323 Cd322 2.317 . S
O323 C324 1.232 . S
C324 O323 1.232 . S
C324 O325 1.218 . S
O325 C324 1.218 . S
C326 O319 1.275 . S
C326 O321 1.255 . S
C327 O328 1.258 . S
C327 O329 1.256 . S
O328 Cd320 2.381 . S
O328 C327 1.258 . S
O329 Cd320 2.378 . S
O329 C327 1.256 . S
O330 Cd331 2.300 . S
O330 C337 1.275 . S
Cd331 O330 2.300 . S
Cd331 O339 2.381 . S
Cd331 O340 2.378 . S
O332 Cd333 2.385 . S
O332 C337 1.255 . S
Cd333 O332 2.385 . S
Cd333 O334 2.317 . S
O334 Cd333 2.317 . S
O334 C335 1.232 . S
C335 O334 1.232 . S
C335 O336 1.218 . S
O336 C335 1.218 . S
C337 O330 1.275 . S
C337 O332 1.255 . S
C338 O339 1.258 . S
C338 O340 1.256 . S
O339 Cd331 2.381 . S
O339 C338 1.258 . S
O340 Cd331 2.378 . S
O340 C338 1.256 . S
O341 Cd342 2.300 . S
O341 C348 1.275 . S
Cd342 O341 2.300 . S
Cd342 O350 2.381 . S
Cd342 O351 2.378 . S
O343 Cd344 2.385 . S
O343 C348 1.255 . S
Cd344 O343 2.385 . S
Cd344 O345 2.317 . S
O345 Cd344 2.317 . S
O345 C346 1.232 . S
C346 O345 1.232 . S
C346 O347 1.218 . S
O347 C346 1.218 . S
C348 O341 1.275 . S
C348 O343 1.255 . S
C349 O350 1.258 . S
C349 O351 1.256 . S
O350 Cd342 2.381 . S
O350 C349 1.258 . S
O351 Cd342 2.378 . S
O351 C349 1.256 . S
O352 Cd353 2.300 . S
O352 C359 1.275 . S
Cd353 O352 2.300 . S
Cd353 O361 2.381 . S
Cd353 O362 2.378 . S
O354 Cd355 2.385 . S
O354 C359 1.255 . S
Cd355 O354 2.385 . S
Cd355 O356 2.317 . S
O356 Cd355 2.317 . S
O356 C357 1.232 . S
C357 O356 1.232 . S
C357 O358 1.218 . S
O358 C357 1.218 . S
C359 O352 1.275 . S
C359 O354 1.255 . S
C360 O361 1.258 . S
C360 O362 1.256 . S
O361 Cd353 2.381 . S
O361 C360 1.258 . S
O362 Cd353 2.378 . S
O362 C360 1.256 . S
O363 Cd364 2.300 . S
O363 C370 1.275 . S
Cd364 O363 2.300 . S
Cd364 O372 2.381 . S
Cd364 O373 2.378 . S
O365 Cd366 2.385 . S
O365 C370 1.255 . S
Cd366 O365 2.385 . S
Cd366 O367 2.317 . S
O367 Cd366 2.317 . S
O367 C368 1.232 . S
C368 O367 1.232 . S
C368 O369 1.218 . S
O369 C368 1.218 . S
C370 O363 1.275 . S
C370 O365 1.255 . S
C371 O372 1.258 . S
C371 O373 1.256 . S
O372 Cd364 2.381 . S
O372 C371 1.258 . S
O373 Cd364 2.378 . S
O373 C371 1.256 . S
O374 Cd375 2.300 . S
O374 C381 1.275 . S
Cd375 O374 2.300 . S
Cd375 O383 2.381 . S
Cd375 O384 2.378 . S
O376 Cd377 2.385 . S
O376 C381 1.255 . S
Cd377 O376 2.385 . S
Cd377 O378 2.317 . S
O378 Cd377 2.317 . S
O378 C379 1.232 . S
C379 O378 1.232 . S
C379 O380 1.218 . S
O380 C379 1.218 . S
C381 O374 1.275 . S
C381 O376 1.255 . S
C382 O383 1.258 . S
C382 O384 1.256 . S
O383 Cd375 2.381 . S
O383 C382 1.258 . S
O384 Cd375 2.378 . S
O384 C382 1.256 . S
O385 Cd386 2.300 . S
O385 C392 1.275 . S
Cd386 O385 2.300 . S
Cd386 O394 2.381 . S
Cd386 O395 2.378 . S
O387 Cd388 2.385 . S
O387 C392 1.255 . S
Cd388 O387 2.385 . S
Cd388 O389 2.317 . S
O389 Cd388 2.317 . S
O389 C390 1.232 . S
C390 O389 1.232 . S
C390 O391 1.218 . S
O391 C390 1.218 . S
C392 O385 1.275 . S
C392 O387 1.255 . S
C393 O394 1.258 . S
C393 O395 1.256 . S
O394 Cd386 2.381 . S
O394 C393 1.258 . S
O395 Cd386 2.378 . S
O395 C393 1.256 . S
O396 Cd397 2.300 . S
O396 C403 1.275 . S
Cd397 O396 2.300 . S
Cd397 O405 2.381 . S
Cd397 O406 2.378 . S
O398 Cd399 2.385 . S
O398 C403 1.255 . S
Cd399 O398 2.385 . S
Cd399 O400 2.317 . S
O400 Cd399 2.317 . S
O400 C401 1.232 . S
C401 O400 1.232 . S
C401 O402 1.218 . S
O402 C401 1.218 . S
C403 O396 1.275 . S
C403 O398 1.255 . S
C404 O405 1.258 . S
C404 O406 1.256 . S
O405 Cd397 2.381 . S
O405 C404 1.258 . S
O406 Cd397 2.378 . S
O406 C404 1.256 . S
O407 Cd408 2.300 . S
O407 C414 1.275 . S
Cd408 O407 2.300 . S
Cd408 O416 2.381 . S
Cd408 O417 2.378 . S
O409 Cd410 2.385 . S
O409 C414 1.255 . S
Cd410 O409 2.385 . S
Cd410 O411 2.317 . S
O411 Cd410 2.317 . S
O411 C412 1.232 . S
C412 O411 1.232 . S
C412 O413 1.218 . S
O413 C412 1.218 . S
C414 O407 1.275 . S
C414 O409 1.255 . S
C415 O416 1.258 . S
C415 O417 1.256 . S
O416 Cd408 2.381 . S
O416 C415 1.258 . S
O417 Cd408 2.378 . S
O417 C415 1.256 . S
O418 Cd419 2.300 . S
O418 C425 1.275 . S
Cd419 O418 2.300 . S
Cd419 O427 2.381 . S
Cd419 O428 2.378 . S
O420 Cd421 2.385 . S
O420 C425 1.255 . S
Cd421 O420 2.385 . S
Cd421 O422 2.317 . S
O422 Cd421 2.317 . S
O422 C423 1.232 . S
C423 O422 1.232 . S
C423 O424 1.218 . S
O424 C423 1.218 . S
C425 O418 1.275 . S
C425 O420 1.255 . S
C426 O427 1.258 . S
C426 O428 1.256 . S
O427 Cd419 2.381 . S
O427 C426 1.258 . S
O428 Cd419 2.378 . S
O428 C426 1.256 . S
O429 Cd430 2.300 . S
O429 C436 1.275 . S
Cd430 O429 2.300 . S
Cd430 O438 2.381 . S
Cd430 O439 2.378 . S
O431 Cd432 2.385 . S
O431 C436 1.255 . S
Cd432 O431 2.385 . S
Cd432 O433 2.317 . S
O433 Cd432 2.317 . S
O433 C434 1.232 . S
C434 O433 1.232 . S
C434 O435 1.218 . S
O435 C434 1.218 . S
C436 O429 1.275 . S
C436 O431 1.255 . S
C437 O438 1.258 . S
C437 O439 1.256 . S
O438 Cd430 2.381 . S
O438 C437 1.258 . S
O439 Cd430 2.378 . S
O439 C437 1.256 . S
O440 Cd441 2.300 . S
O440 C447 1.275 . S
Cd441 O440 2.300 . S
Cd441 O449 2.381 . S
Cd441 O450 2.378 . S
O442 Cd443 2.385 . S
O442 C447 1.255 . S
Cd443 O442 2.385 . S
Cd443 O444 2.317 . S
O444 Cd443 2.317 . S
O444 C445 1.232 . S
C445 O444 1.232 . S
C445 O446 1.218 . S
O446 C445 1.218 . S
C447 O440 1.275 . S
C447 O442 1.255 . S
C448 O449 1.258 . S
C448 O450 1.256 . S
O449 Cd441 2.381 . S
O449 C448 1.258 . S
O450 Cd441 2.378 . S
O450 C448 1.256 . S
O451 Cd452 2.300 . S
O451 C458 1.275 . S
Cd452 O451 2.300 . S
Cd452 O460 2.381 . S
Cd452 O461 2.378 . S
O453 Cd454 2.385 . S
O453 C458 1.255 . S
Cd454 O453 2.385 . S
Cd454 O455 2.317 . S
O455 Cd454 2.317 . S
O455 C456 1.232 . S
C456 O455 1.232 . S
C456 O457 1.218 . S
O457 C456 1.218 . S
C458 O451 1.275 . S
C458 O453 1.255 . S
C459 O460 1.258 . S
C459 O461 1.256 . S
O460 Cd452 2.381 . S
O460 C459 1.258 . S
O461 Cd452 2.378 . S
O461 C459 1.256 . S
O462 Cd463 2.300 . S
O462 C469 1.275 . S
Cd463 O462 2.300 . S
Cd463 O471 2.381 . S
Cd463 O472 2.378 . S
O464 Cd465 2.385 . S
O464 C469 1.255 . S
Cd465 O464 2.385 . S
Cd465 O466 2.317 . S
O466 Cd465 2.317 . S
O466 C467 1.232 . S
C467 O466 1.232 . S
C467 O468 1.218 . S
O468 C467 1.218 . S
C469 O462 1.275 . S
C469 O464 1.255 . S
C470 O471 1.258 . S
C470 O472 1.256 . S
O471 Cd463 2.381 . S
O471 C470 1.258 . S
O472 Cd463 2.378 . S
O472 C470 1.256 . S
O473 Cd474 2.300 . S
O473 C480 1.275 . S
Cd474 O473 2.300 . S
Cd474 O482 2.381 . S
Cd474 O483 2.378 . S
O475 Cd476 2.385 . S
O475 C480 1.255 . S
Cd476 O475 2.385 . S
Cd476 O477 2.317 . S
O477 Cd476 2.317 . S
O477 C478 1.232 . S
C478 O477 1.232 . S
C478 O479 1.218 . S
O479 C478 1.218 . S
C480 O473 1.275 . S
C480 O475 1.255 . S
C481 O482 1.258 . S
C481 O483 1.256 . S
O482 Cd474 2.381 . S
O482 C481 1.258 . S
O483 Cd474 2.378 . S
O483 C481 1.256 . S
O484 Cd485 2.300 . S
O484 C491 1.275 . S
Cd485 O484 2.300 . S
Cd485 O493 2.381 . S
Cd485 O494 2.378 . S
O486 Cd487 2.385 . S
O486 C491 1.255 . S
Cd487 O486 2.385 . S
Cd487 O488 2.317 . S
O488 Cd487 2.317 . S
O488 C489 1.232 . S
C489 O488 1.232 . S
C489 O490 1.218 . S
O490 C489 1.218 . S
C491 O484 1.275 . S
C491 O486 1.255 . S
C492 O493 1.258 . S
C492 O494 1.256 . S
O493 Cd485 2.381 . S
O493 C492 1.258 . S
O494 Cd485 2.378 . S
O494 C492 1.256 . S
O495 Cd496 2.300 . S
O495 C502 1.275 . S
Cd496 O495 2.300 . S
Cd496 O504 2.381 . S
Cd496 O505 2.378 . S
O497 Cd498 2.385 . S
O497 C502 1.255 . S
Cd498 O497 2.385 . S
Cd498 O499 2.317 . S
O499 Cd498 2.317 . S
O499 C500 1.232 . S
C500 O499 1.232 . S
C500 O501 1.218 . S
O501 C500 1.218 . S
C502 O495 1.275 . S
C502 O497 1.255 . S
C503 O504 1.258 . S
C503 O505 1.256 . S
O504 Cd496 2.381 . S
O504 C503 1.258 . S
O505 Cd496 2.378 . S
O505 C503 1.256 . S
O506 Cd507 2.300 . S
O506 C513 1.275 . S
Cd507 O506 2.300 . S
Cd507 O515 2.381 . S
Cd507 O516 2.378 . S
O508 Cd509 2.385 . S
O508 C513 1.255 . S
Cd509 O508 2.385 . S
Cd509 O510 2.317 . S
O510 Cd509 2.317 . S
O510 C511 1.232 . S
C511 O510 1.232 . S
C511 O512 1.218 . S
O512 C511 1.218 . S
C513 O506 1.275 . S
C513 O508 1.255 . S
C514 O515 1.258 . S
C514 O516 1.256 . S
O515 Cd507 2.381 . S
O515 C514 1.258 . S
O516 Cd507 2.378 . S
O516 C514 1.256 . S
O517 Cd518 2.300 . S
O517 C524 1.275 . S
Cd518 O517 2.300 . S
Cd518 O526 2.381 . S
Cd518 O527 2.378 . S
O519 Cd520 2.385 . S
O519 C524 1.255 . S
Cd520 O519 2.385 . S
Cd520 O521 2.317 . S
O521 Cd520 2.317 . S
O521 C522 1.232 . S
C522 O521 1.232 . S
C522 O523 1.218 . S
O523 C522 1.218 . S
C524 O517 1.275 . S
C524 O519 1.255 . S
C525 O526 1.258 . S
C525 O527 1.256 . S
O526 Cd518 2.381 . S
O526 C525 1.258 . S
O527 Cd518 2.378 . S
O527 C525 1.256 . S
C528 C529 1.369 . S
C528 C530 1.419 . S
C528 H532 0.930 . S
C529 C528 1.369 . S
C529 C538 1.429 1_655 S
C530 C528 1.419 . S
C530 C531 1.363 1_655 S
C530 H533 0.929 . S
C531 C530 1.363 1_455 S
C531 C537 1.428 . S
H532 C528 0.930 . S
H533 C530 0.929 . S
S534 N535 1.613 . S
S534 N536 1.610 . S
N535 S534 1.613 . S
N535 C538 1.350 . S
N536 S534 1.610 . S
N536 C537 1.351 . S
C537 C531 1.428 . S
C537 N536 1.351 . S
C537 C538 1.434 . S
C538 C529 1.429 1_455 S
C538 N535 1.350 . S
C538 C537 1.434 . S
C539 C540 1.369 . S
C539 C541 1.419 . S
C539 H543 0.930 . S
C540 C539 1.369 . S
C540 C549 1.429 1_545 S
C541 C539 1.419 . S
C541 C542 1.363 1_545 S
C541 H544 0.929 . S
C542 C541 1.363 1_565 S
C542 C548 1.428 . S
H543 C539 0.930 . S
H544 C541 0.929 . S
S545 N546 1.613 . S
S545 N547 1.610 . S
N546 S545 1.613 . S
N546 C549 1.350 . S
N547 S545 1.610 . S
N547 C548 1.351 . S
C548 C542 1.428 . S
C548 N547 1.351 . S
C548 C549 1.434 . S
C549 C540 1.429 1_565 S
C549 N546 1.350 . S
C549 C548 1.434 . S
C550 C551 1.369 1_455 S
C550 C552 1.419 . S
C550 H554 0.930 . S
C551 C550 1.369 1_655 S
C551 C560 1.429 . S
C552 C550 1.419 . S
C552 C553 1.363 . S
C552 H555 0.929 . S
C553 C552 1.363 . S
C553 C559 1.428 1_455 S
H554 C550 0.930 . S
H555 C552 0.929 . S
S556 N557 1.613 . S
S556 N558 1.610 . S
N557 S556 1.613 . S
N557 C560 1.350 . S
N558 S556 1.610 . S
N558 C559 1.351 . S
C559 C553 1.428 1_655 S
C559 N558 1.351 . S
C559 C560 1.434 . S
C560 C551 1.429 . S
C560 N557 1.350 . S
C560 C559 1.434 . S
C561 C562 1.369 . S
C561 C563 1.419 1_545 S
C561 H565 0.930 . S
C562 C561 1.369 . S
C562 C571 1.429 . S
C563 C561 1.419 1_565 S
C563 C564 1.363 . S
C563 H566 0.929 . S
C564 C563 1.363 . S
C564 C570 1.428 . S
H565 C561 0.930 . S
H566 C563 0.929 . S
S567 N568 1.613 1_565 S
S567 N569 1.610 . S
N568 S567 1.613 1_545 S
N568 C571 1.350 . S
N569 S567 1.610 . S
N569 C570 1.351 . S
C570 C564 1.428 . S
C570 N569 1.351 . S
C570 C571 1.434 1_565 S
C571 C562 1.429 . S
C571 N568 1.350 . S
C571 C570 1.434 1_545 S
C572 C573 1.369 1_545 S
C572 C574 1.419 . S
C572 H576 0.930 . S
C573 C572 1.369 1_565 S
C573 C582 1.429 . S
C574 C572 1.419 . S
C574 C575 1.363 . S
C574 H577 0.929 . S
C575 C574 1.363 . S
C575 C581 1.428 1_545 S
H576 C572 0.930 . S
H577 C574 0.929 . S
S578 N579 1.613 . S
S578 N580 1.610 . S
N579 S578 1.613 . S
N579 C582 1.350 . S
N580 S578 1.610 . S
N580 C581 1.351 . S
C581 C575 1.428 1_565 S
C581 N580 1.351 . S
C581 C582 1.434 . S
C582 C573 1.429 . S
C582 N579 1.350 . S
C582 C581 1.434 . S
C583 C584 1.369 . S
C583 C585 1.419 1_455 S
C583 H587 0.930 . S
C584 C583 1.369 . S
C584 C593 1.429 . S
C585 C583 1.419 1_655 S
C585 C586 1.363 . S
C585 H588 0.929 . S
C586 C585 1.363 . S
C586 C592 1.428 . S
H587 C583 0.930 . S
H588 C585 0.929 . S
S589 N590 1.613 1_655 S
S589 N591 1.610 . S
N590 S589 1.613 1_455 S
N590 C593 1.350 . S
N591 S589 1.610 . S
N591 C592 1.351 . S
C592 C586 1.428 . S
C592 N591 1.351 . S
C592 C593 1.434 1_655 S
C593 C584 1.429 . S
C593 N590 1.350 . S
C593 C592 1.434 1_455 S
C594 C595 1.369 . S
C594 C596 1.419 1_565 S
C594 H598 0.930 . S
C595 C594 1.369 . S
C595 C604 1.429 . S
C596 C594 1.419 1_545 S
C596 C597 1.363 . S
C596 H599 0.929 . S
C597 C596 1.363 . S
C597 C603 1.428 . S
H598 C594 0.930 . S
H599 C596 0.929 . S
S600 N601 1.613 1_545 S
S600 N602 1.610 . S
N601 S600 1.613 1_565 S
N601 C604 1.350 . S
N602 S600 1.610 . S
N602 C603 1.351 . S
C603 C597 1.428 . S
C603 N602 1.351 . S
C603 C604 1.434 1_545 S
C604 C595 1.429 . S
C604 N601 1.350 . S
C604 C603 1.434 1_565 S
C605 C606 1.369 . S
C605 C607 1.419 1_455 S
C605 H609 0.930 . S
C606 C605 1.369 . S
C606 C615 1.429 . S
C607 C605 1.419 1_655 S
C607 C608 1.363 . S
C607 H610 0.929 . S
C608 C607 1.363 . S
C608 C614 1.428 . S
H609 C605 0.930 . S
H610 C607 0.929 . S
S611 N612 1.613 1_655 S
S611 N613 1.610 . S
N612 S611 1.613 1_455 S
N612 C615 1.350 . S
N613 S611 1.610 . S
N613 C614 1.351 . S
C614 C608 1.428 . S
C614 N613 1.351 . S
C614 C615 1.434 1_655 S
C615 C606 1.429 . S
C615 N612 1.350 . S
C615 C614 1.434 1_455 S
C616 C617 1.369 . S
C616 C618 1.419 . S
C616 H620 0.930 . S
C617 C616 1.369 . S
C617 C626 1.429 1_556 S
C618 C616 1.419 . S
C618 C619 1.363 1_556 S
C618 H621 0.929 . S
C619 C618 1.363 1_554 S
C619 C625 1.428 . S
H620 C616 0.930 . S
H621 C618 0.929 . S
S622 N623 1.613 . S
S622 N624 1.610 . S
N623 S622 1.613 . S
N623 C626 1.350 . S
N624 S622 1.610 . S
N624 C625 1.351 . S
C625 C619 1.428 . S
C625 N624 1.351 . S
C625 C626 1.434 . S
C626 C617 1.429 1_554 S
C626 N623 1.350 . S
C626 C625 1.434 . S
C627 C628 1.369 . S
C627 C629 1.419 1_556 S
C627 H631 0.930 . S
C628 C627 1.369 . S
C628 C637 1.429 . S
C629 C627 1.419 1_554 S
C629 C630 1.363 . S
C629 H632 0.929 . S
C630 C629 1.363 . S
C630 C636 1.428 . S
H631 C627 0.930 . S
H632 C629 0.929 . S
S633 N634 1.613 . S
S633 N635 1.610 1_556 S
N634 S633 1.613 . S
N634 C637 1.350 . S
N635 S633 1.610 1_554 S
N635 C636 1.351 . S
C636 C630 1.428 . S
C636 N635 1.351 . S
C636 C637 1.434 1_554 S
C637 C628 1.429 . S
C637 N634 1.350 . S
C637 C636 1.434 1_556 S
C638 C639 1.369 . S
C638 C640 1.419 1_554 S
C638 H642 0.930 . S
C639 C638 1.369 . S
C639 C648 1.474 . S
C640 C638 1.419 1_556 S
C640 C641 1.363 . S
C640 H643 0.929 . S
C641 C640 1.363 . S
C641 C647 1.428 . S
H642 C638 0.930 . S
H643 C640 0.929 . S
S644 N645 1.625 . S
S644 N646 1.610 . S
N645 S644 1.625 . S
N645 C648 1.347 1_556 S
N646 S644 1.610 . S
N646 C647 1.351 . S
C647 C641 1.428 . S
C647 N646 1.351 . S
C647 C648 1.388 1_556 S
C648 C639 1.474 . S
C648 N645 1.347 1_554 S
C648 C647 1.388 1_554 S
C649 C650 1.369 . S
C649 C651 1.419 . S
C649 H653 0.930 . S
C650 C649 1.369 . S
C650 C659 1.429 1_554 S
C651 C649 1.419 . S
C651 C652 1.363 1_554 S
C651 H654 0.929 . S
C652 C651 1.363 1_556 S
C652 C658 1.428 . S
H653 C649 0.930 . S
H654 C651 0.929 . S
S655 N656 1.613 . S
S655 N657 1.610 . S
N656 S655 1.613 . S
N656 C659 1.350 . S
N657 S655 1.610 . S
N657 C658 1.351 . S
C658 C652 1.428 . S
C658 N657 1.351 . S
C658 C659 1.434 . S
C659 C650 1.429 1_556 S
C659 N656 1.350 . S
C659 C658 1.434 . S
C660 C661 1.369 . S
C660 C662 1.419 . S
C660 H664 0.930 . S
C661 C660 1.369 . S
C661 C670 1.429 1_565 S
C662 C660 1.419 . S
C662 C663 1.363 1_565 S
C662 H665 0.929 . S
C663 C662 1.363 1_545 S
C663 C669 1.428 . S
H664 C660 0.930 . S
H665 C662 0.929 . S
S666 N667 1.613 . S
S666 N668 1.610 . S
N667 S666 1.613 . S
N667 C670 1.350 . S
N668 S666 1.610 . S
N668 C669 1.351 . S
C669 C663 1.428 . S
C669 N668 1.351 . S
C669 C670 1.434 . S
C670 C661 1.429 1_545 S
C670 N667 1.350 . S
C670 C669 1.434 . S
C671 C672 1.369 1_655 S
C671 C673 1.419 . S
C671 H675 0.930 . S
C672 C671 1.369 1_455 S
C672 C681 1.429 . S
C673 C671 1.419 . S
C673 C674 1.363 . S
C673 H676 0.929 . S
C674 C673 1.363 . S
C674 C680 1.428 1_655 S
H675 C671 0.930 . S
H676 C673 0.929 . S
S677 N678 1.613 . S
S677 N679 1.610 . S
N678 S677 1.613 . S
N678 C681 1.350 . S
N679 S677 1.610 . S
N679 C680 1.351 . S
C680 C674 1.428 1_455 S
C680 N679 1.351 . S
C680 C681 1.434 . S
C681 C672 1.429 . S
C681 N678 1.350 . S
C681 C680 1.434 . S
C682 C683 1.369 1_545 S
C682 C684 1.419 . S
C682 H686 0.930 . S
C683 C682 1.369 1_565 S
C683 C692 1.429 . S
C684 C682 1.419 . S
C684 C685 1.363 . S
C684 H687 0.929 . S
C685 C684 1.363 . S
C685 C691 1.428 1_545 S
H686 C682 0.930 . S
H687 C684 0.929 . S
S688 N689 1.613 . S
S688 N690 1.610 . S
N689 S688 1.613 . S
N689 C692 1.350 . S
N690 S688 1.610 . S
N690 C691 1.351 . S
C691 C685 1.428 1_565 S
C691 N690 1.351 . S
C691 C692 1.434 . S
C692 C683 1.429 . S
C692 N689 1.350 . S
C692 C691 1.434 . S
C693 C694 1.369 1_655 S
C693 C695 1.419 . S
C693 H697 0.930 . S
C694 C693 1.369 1_455 S
C694 C703 1.429 . S
C695 C693 1.419 . S
C695 C696 1.363 . S
C695 H698 0.929 . S
C696 C695 1.363 . S
C696 C702 1.428 1_655 S
H697 C693 0.930 . S
H698 C695 0.929 . S
S699 N700 1.613 . S
S699 N701 1.610 . S
N700 S699 1.613 . S
N700 C703 1.350 . S
N701 S699 1.610 . S
N701 C702 1.351 . S
C702 C696 1.428 1_455 S
C702 N701 1.351 . S
C702 C703 1.434 . S
C703 C694 1.429 . S
C703 N700 1.350 . S
C703 C702 1.434 . S
C704 C705 1.369 1_554 S
C704 C706 1.419 . S
C704 H708 0.930 . S
C705 C704 1.369 1_556 S
C705 C714 1.429 . S
C706 C704 1.419 . S
C706 C707 1.363 . S
C706 H709 0.929 . S
C707 C706 1.363 . S
C707 C713 1.428 1_554 S
H708 C704 0.930 . S
H709 C706 0.929 . S
S710 N711 1.613 . S
S710 N712 1.610 . S
N711 S710 1.613 . S
N711 C714 1.350 . S
N712 S710 1.610 . S
N712 C713 1.351 . S
C713 C707 1.428 1_556 S
C713 N712 1.351 . S
C713 C714 1.434 . S
C714 C705 1.429 . S
C714 N711 1.350 . S
C714 C713 1.434 . S
C715 C716 1.369 . S
C715 C717 1.419 1_556 S
C715 H719 0.930 . S
C716 C715 1.369 . S
C716 C725 1.429 . S
C717 C715 1.419 1_554 S
C717 C718 1.363 . S
C717 H720 0.929 . S
C718 C717 1.363 . S
C718 C724 1.428 . S
H719 C715 0.930 . S
H720 C717 0.929 . S
S721 N722 1.613 . S
S721 N723 1.610 1_556 S
N722 S721 1.613 . S
N722 C725 1.350 . S
N723 S721 1.610 1_554 S
N723 C724 1.351 . S
C724 C718 1.428 . S
C724 N723 1.351 . S
C724 C725 1.434 1_554 S
C725 C716 1.429 . S
C725 N722 1.350 . S
C725 C724 1.434 1_556 S
C726 C727 1.369 1_554 S
C726 C728 1.419 . S
C726 H730 0.930 . S
C727 C726 1.369 1_556 S
C727 C736 1.429 . S
C728 C726 1.419 . S
C728 C729 1.363 . S
C728 H731 0.929 . S
C729 C728 1.363 . S
C729 C735 1.428 1_554 S
H730 C726 0.930 . S
H731 C728 0.929 . S
S732 N733 1.613 . S
S732 N734 1.610 . S
N733 S732 1.613 . S
N733 C736 1.350 . S
N734 S732 1.610 . S
N734 C735 1.351 . S
C735 C729 1.428 1_556 S
C735 N734 1.351 . S
C735 C736 1.434 . S
C736 C727 1.429 . S
C736 N733 1.350 . S
C736 C735 1.434 . S
C737 C738 1.369 1_556 S
C737 C739 1.419 . S
C737 H741 0.930 . S
C738 C737 1.369 1_554 S
C738 C747 1.429 . S
C739 C737 1.419 . S
C739 C740 1.363 . S
C739 H742 0.929 . S
C740 C739 1.363 . S
C740 C746 1.428 1_556 S
H741 C737 0.930 . S
H742 C739 0.929 . S
S743 N744 1.613 . S
S743 N745 1.610 . S
N744 S743 1.613 . S
N744 C747 1.350 . S
N745 S743 1.610 . S
N745 C746 1.351 . S
C746 C740 1.428 1_554 S
C746 N745 1.351 . S
C746 C747 1.434 . S
C747 C738 1.429 . S
C747 N744 1.350 . S
C747 C746 1.434 . S
C748 C749 1.369 . S
C748 C750 1.419 . S
C748 H752 0.930 . S
C749 C748 1.369 . S
C749 C758 1.429 1_455 S
C750 C748 1.419 . S
C750 C751 1.363 1_455 S
C750 H753 0.929 . S
C751 C750 1.363 1_655 S
C751 C757 1.428 . S
H752 C748 0.930 . S
H753 C750 0.929 . S
S754 N755 1.613 . S
S754 N756 1.610 . S
N755 S754 1.613 . S
N755 C758 1.350 . S
N756 S754 1.610 . S
N756 C757 1.351 . S
C757 C751 1.428 . S
C757 N756 1.351 . S
C757 C758 1.434 . S
C758 C749 1.429 1_655 S
C758 N755 1.350 . S
C758 C757 1.434 . S
C759 C760 1.369 . S
C759 C761 1.419 . S
C759 H763 0.930 . S
C760 C759 1.369 . S
C760 C769 1.429 1_455 S
C761 C759 1.419 . S
C761 C762 1.363 1_455 S
C761 H764 0.929 . S
C762 C761 1.363 1_655 S
C762 C768 1.428 . S
H763 C759 0.930 . S
H764 C761 0.929 . S
S765 N766 1.613 . S
S765 N767 1.610 . S
N766 S765 1.613 . S
N766 C769 1.350 . S
N767 S765 1.610 . S
N767 C768 1.351 . S
C768 C762 1.428 . S
C768 N767 1.351 . S
C768 C769 1.434 . S
C769 C760 1.429 1_655 S
C769 N766 1.350 . S
C769 C768 1.434 . S
C770 C771 1.369 . S
C770 C772 1.419 . S
C770 H774 0.930 . S
C771 C770 1.369 . S
C771 C780 1.429 1_545 S
C772 C770 1.419 . S
C772 C773 1.363 1_545 S
C772 H775 0.929 . S
C773 C772 1.363 1_565 S
C773 C779 1.428 . S
H774 C770 0.930 . S
H775 C772 0.929 . S
S776 N777 1.613 . S
S776 N778 1.610 . S
N777 S776 1.613 . S
N777 C780 1.350 . S
N778 S776 1.610 . S
N778 C779 1.351 . S
C779 C773 1.428 . S
C779 N778 1.351 . S
C779 C780 1.434 . S
C780 C771 1.429 1_565 S
C780 N777 1.350 . S
C780 C779 1.434 . S
C781 C782 1.369 . S
C781 C783 1.419 1_565 S
C781 H785 0.930 . S
C782 C781 1.369 . S
C782 C791 1.429 . S
C783 C781 1.419 1_545 S
C783 C784 1.363 . S
C783 H786 0.929 . S
C784 C783 1.363 . S
C784 C790 1.428 . S
H785 C781 0.930 . S
H786 C783 0.929 . S
S787 N788 1.613 . S
S787 N789 1.610 1_565 S
N788 S787 1.613 . S
N788 C791 1.350 . S
N789 S787 1.610 1_545 S
N789 C790 1.351 . S
C790 C784 1.428 . S
C790 N789 1.351 . S
C790 C791 1.434 1_545 S
C791 C782 1.429 . S
C791 N788 1.350 . S
C791 C790 1.434 1_565 S
C792 C793 1.369 . S
C792 C794 1.419 . S
C792 H796 0.930 . S
C793 C792 1.369 . S
C793 C802 1.429 . S
C794 C792 1.419 . S
C794 C795 1.363 . S
C794 H797 0.929 . S
C795 C794 1.363 . S
C795 C801 1.428 . S
H796 C792 0.930 . S
H797 C794 0.929 . S
S798 N799 1.613 . S
S798 N800 1.610 . S
N799 S798 1.613 . S
N799 C802 1.350 . S
N800 S798 1.610 . S
N800 C801 1.351 . S
C801 C795 1.428 . S
C801 N800 1.351 . S
C801 C802 1.434 . S
C802 C793 1.429 . S
C802 N799 1.350 . S
C802 C801 1.434 . S
C803 C804 1.369 . S
C803 C805 1.419 . S
C803 H807 0.930 . S
C804 C803 1.369 . S
C804 C813 1.429 . S
C805 C803 1.419 . S
C805 C806 1.363 . S
C805 H808 0.929 . S
C806 C805 1.363 . S
C806 C812 1.428 . S
H807 C803 0.930 . S
H808 C805 0.929 . S
S809 N810 1.613 . S
S809 N811 1.610 . S
N810 S809 1.613 . S
N810 C813 1.350 . S
N811 S809 1.610 . S
N811 C812 1.351 . S
C812 C806 1.428 . S
C812 N811 1.351 . S
C812 C813 1.434 . S
C813 C804 1.429 . S
C813 N810 1.350 . S
C813 C812 1.434 . S
C814 C815 1.369 . S
C814 C816 1.419 . S
C814 H818 0.930 . S
C815 C814 1.369 . S
C815 C824 1.429 . S
C816 C814 1.419 . S
C816 C817 1.363 . S
C816 H819 0.929 . S
C817 C816 1.363 . S
C817 C823 1.428 . S
H818 C814 0.930 . S
H819 C816 0.929 . S
S820 N821 1.613 . S
S820 N822 1.610 . S
N821 S820 1.613 . S
N821 C824 1.350 . S
N822 S820 1.610 . S
N822 C823 1.351 . S
C823 C817 1.428 . S
C823 N822 1.351 . S
C823 C824 1.434 . S
C824 C815 1.429 . S
C824 N821 1.350 . S
C824 C823 1.434 . S
C825 C826 1.369 . S
C825 C827 1.419 . S
C825 H829 0.930 . S
C826 C825 1.369 . S
C826 C835 1.429 . S
C827 C825 1.419 . S
C827 C828 1.363 . S
C827 H830 0.929 . S
C828 C827 1.363 . S
C828 C834 1.428 . S
H829 C825 0.930 . S
H830 C827 0.929 . S
S831 N832 1.613 . S
S831 N833 1.610 . S
N832 S831 1.613 . S
N832 C835 1.350 . S
N833 S831 1.610 . S
N833 C834 1.351 . S
C834 C828 1.428 . S
C834 N833 1.351 . S
C834 C835 1.434 . S
C835 C826 1.429 . S
C835 N832 1.350 . S
C835 C834 1.434 . S
C836 C837 1.369 . S
C836 C838 1.419 . S
C836 H840 0.930 . S
C837 C836 1.369 . S
C837 C846 1.429 . S
C838 C836 1.419 . S
C838 C839 1.363 . S
C838 H841 0.929 . S
C839 C838 1.363 . S
C839 C845 1.428 . S
H840 C836 0.930 . S
H841 C838 0.929 . S
S842 N843 1.613 . S
S842 N844 1.610 . S
N843 S842 1.613 . S
N843 C846 1.350 . S
N844 S842 1.610 . S
N844 C845 1.351 . S
C845 C839 1.428 . S
C845 N844 1.351 . S
C845 C846 1.434 . S
C846 C837 1.429 . S
C846 N843 1.350 . S
C846 C845 1.434 . S
C847 C848 1.369 . S
C847 C849 1.419 . S
C847 H851 0.930 . S
C848 C847 1.369 . S
C848 C857 1.429 . S
C849 C847 1.419 . S
C849 C850 1.363 . S
C849 H852 0.929 . S
C850 C849 1.363 . S
C850 C856 1.428 . S
H851 C847 0.930 . S
H852 C849 0.929 . S
S853 N854 1.613 . S
S853 N855 1.610 . S
N854 S853 1.613 . S
N854 C857 1.350 . S
N855 S853 1.610 . S
N855 C856 1.351 . S
C856 C850 1.428 . S
C856 N855 1.351 . S
C856 C857 1.434 . S
C857 C848 1.429 . S
C857 N854 1.350 . S
C857 C856 1.434 . S
C858 C859 1.369 . S
C858 C860 1.419 . S
C858 H862 0.930 . S
C859 C858 1.369 . S
C859 C868 1.429 . S
C860 C858 1.419 . S
C860 C861 1.363 . S
C860 H863 0.929 . S
C861 C860 1.363 . S
C861 C867 1.428 . S
H862 C858 0.930 . S
H863 C860 0.929 . S
S864 N865 1.613 . S
S864 N866 1.610 . S
N865 S864 1.613 . S
N865 C868 1.350 . S
N866 S864 1.610 . S
N866 C867 1.351 . S
C867 C861 1.428 . S
C867 N866 1.351 . S
C867 C868 1.434 . S
C868 C859 1.429 . S
C868 N865 1.350 . S
C868 C867 1.434 . S
C869 C870 1.369 . S
C869 C871 1.419 . S
C869 H873 0.930 . S
C870 C869 1.369 . S
C870 C879 1.429 . S
C871 C869 1.419 . S
C871 C872 1.363 . S
C871 H874 0.929 . S
C872 C871 1.363 . S
C872 C878 1.428 . S
H873 C869 0.930 . S
H874 C871 0.929 . S
S875 N876 1.613 . S
S875 N877 1.610 . S
N876 S875 1.613 . S
N876 C879 1.350 . S
N877 S875 1.610 . S
N877 C878 1.351 . S
C878 C872 1.428 . S
C878 N877 1.351 . S
C878 C879 1.434 . S
C879 C870 1.429 . S
C879 N876 1.350 . S
C879 C878 1.434 . S
C880 C881 1.369 . S
C880 C882 1.419 . S
C880 H884 0.930 . S
C881 C880 1.369 . S
C881 C890 1.429 . S
C882 C880 1.419 . S
C882 C883 1.363 . S
C882 H885 0.929 . S
C883 C882 1.363 . S
C883 C889 1.428 . S
H884 C880 0.930 . S
H885 C882 0.929 . S
S886 N887 1.613 . S
S886 N888 1.610 . S
N887 S886 1.613 . S
N887 C890 1.350 . S
N888 S886 1.610 . S
N888 C889 1.351 . S
C889 C883 1.428 . S
C889 N888 1.351 . S
C889 C890 1.434 . S
C890 C881 1.429 . S
C890 N887 1.350 . S
C890 C889 1.434 . S
C891 C892 1.369 . S
C891 C893 1.419 . S
C891 H895 0.930 . S
C892 C891 1.369 . S
C892 C901 1.429 . S
C893 C891 1.419 . S
C893 C894 1.363 . S
C893 H896 0.929 . S
C894 C893 1.363 . S
C894 C900 1.428 . S
H895 C891 0.930 . S
H896 C893 0.929 . S
S897 N898 1.613 . S
S897 N899 1.610 . S
N898 S897 1.613 . S
N898 C901 1.350 . S
N899 S897 1.610 . S
N899 C900 1.351 . S
C900 C894 1.428 . S
C900 N899 1.351 . S
C900 C901 1.434 . S
C901 C892 1.429 . S
C901 N898 1.350 . S
C901 C900 1.434 . S
C902 C903 1.369 . S
C902 C904 1.419 . S
C902 H906 0.930 . S
C903 C902 1.369 . S
C903 C912 1.429 . S
C904 C902 1.419 . S
C904 C905 1.363 . S
C904 H907 0.929 . S
C905 C904 1.363 . S
C905 C911 1.428 . S
H906 C902 0.930 . S
H907 C904 0.929 . S
S908 N909 1.613 . S
S908 N910 1.610 . S
N909 S908 1.613 . S
N909 C912 1.350 . S
N910 S908 1.610 . S
N910 C911 1.351 . S
C911 C905 1.428 . S
C911 N910 1.351 . S
C911 C912 1.434 . S
C912 C903 1.429 . S
C912 N909 1.350 . S
C912 C911 1.434 . S
C913 C914 1.369 . S
C913 C915 1.419 . S
C913 H917 0.930 . S
C914 C913 1.369 . S
C914 C923 1.429 . S
C915 C913 1.419 . S
C915 C916 1.363 . S
C915 H918 0.929 . S
C916 C915 1.363 . S
C916 C922 1.428 . S
H917 C913 0.930 . S
H918 C915 0.929 . S
S919 N920 1.613 . S
S919 N921 1.610 . S
N920 S919 1.613 . S
N920 C923 1.350 . S
N921 S919 1.610 . S
N921 C922 1.351 . S
C922 C916 1.428 . S
C922 N921 1.351 . S
C922 C923 1.434 . S
C923 C914 1.429 . S
C923 N920 1.350 . S
C923 C922 1.434 . S
C924 C925 1.369 . S
C924 C926 1.419 . S
C924 H928 0.930 . S
C925 C924 1.369 . S
C925 C934 1.429 . S
C926 C924 1.419 . S
C926 C927 1.363 . S
C926 H929 0.929 . S
C927 C926 1.363 . S
C927 C933 1.428 . S
H928 C924 0.930 . S
H929 C926 0.929 . S
S930 N931 1.613 . S
S930 N932 1.610 . S
N931 S930 1.613 . S
N931 C934 1.350 . S
N932 S930 1.610 . S
N932 C933 1.351 . S
C933 C927 1.428 . S
C933 N932 1.351 . S
C933 C934 1.434 . S
C934 C925 1.429 . S
C934 N931 1.350 . S
C934 C933 1.434 . S
C935 C936 1.369 . S
C935 C937 1.419 . S
C935 H939 0.930 . S
C936 C935 1.369 . S
C936 C945 1.429 . S
C937 C935 1.419 . S
C937 C938 1.363 . S
C937 H940 0.929 . S
C938 C937 1.363 . S
C938 C944 1.428 . S
H939 C935 0.930 . S
H940 C937 0.929 . S
S941 N942 1.613 . S
S941 N943 1.610 . S
N942 S941 1.613 . S
N942 C945 1.350 . S
N943 S941 1.610 . S
N943 C944 1.351 . S
C944 C938 1.428 . S
C944 N943 1.351 . S
C944 C945 1.434 . S
C945 C936 1.429 . S
C945 N942 1.350 . S
C945 C944 1.434 . S
C946 C947 1.369 . S
C946 C948 1.419 . S
C946 H950 0.930 . S
C947 C946 1.369 . S
C947 C956 1.429 . S
C948 C946 1.419 . S
C948 C949 1.363 . S
C948 H951 0.929 . S
C949 C948 1.363 . S
C949 C955 1.428 . S
H950 C946 0.930 . S
H951 C948 0.929 . S
S952 N953 1.613 . S
S952 N954 1.610 . S
N953 S952 1.613 . S
N953 C956 1.350 . S
N954 S952 1.610 . S
N954 C955 1.351 . S
C955 C949 1.428 . S
C955 N954 1.351 . S
C955 C956 1.434 . S
C956 C947 1.429 . S
C956 N953 1.350 . S
C956 C955 1.434 . S
C957 C958 1.369 . S
C957 C959 1.419 . S
C957 H961 0.930 . S
C958 C957 1.369 . S
C958 C967 1.429 . S
C959 C957 1.419 . S
C959 C960 1.363 . S
C959 H962 0.929 . S
C960 C959 1.363 . S
C960 C966 1.428 . S
H961 C957 0.930 . S
H962 C959 0.929 . S
S963 N964 1.613 . S
S963 N965 1.610 . S
N964 S963 1.613 . S
N964 C967 1.350 . S
N965 S963 1.610 . S
N965 C966 1.351 . S
C966 C960 1.428 . S
C966 N965 1.351 . S
C966 C967 1.434 . S
C967 C958 1.429 . S
C967 N964 1.350 . S
C967 C966 1.434 . S
C968 C969 1.369 . S
C968 C970 1.419 . S
C968 H972 0.930 . S
C969 C968 1.369 . S
C969 C978 1.429 . S
C970 C968 1.419 . S
C970 C971 1.363 . S
C970 H973 0.929 . S
C971 C970 1.363 . S
C971 C977 1.428 . S
H972 C968 0.930 . S
H973 C970 0.929 . S
S974 N975 1.613 . S
S974 N976 1.610 . S
N975 S974 1.613 . S
N975 C978 1.350 . S
N976 S974 1.610 . S
N976 C977 1.351 . S
C977 C971 1.428 . S
C977 N976 1.351 . S
C977 C978 1.434 . S
C978 C969 1.429 . S
C978 N975 1.350 . S
C978 C977 1.434 . S
C979 C980 1.369 . S
C979 C981 1.419 . S
C979 H983 0.930 . S
C980 C979 1.369 . S
C980 C989 1.429 . S
C981 C979 1.419 . S
C981 C982 1.363 . S
C981 H984 0.929 . S
C982 C981 1.363 . S
C982 C988 1.428 . S
H983 C979 0.930 . S
H984 C981 0.929 . S
S985 N986 1.613 . S
S985 N987 1.610 . S
N986 S985 1.613 . S
N986 C989 1.350 . S
N987 S985 1.610 . S
N987 C988 1.351 . S
C988 C982 1.428 . S
C988 N987 1.351 . S
C988 C989 1.434 . S
C989 C980 1.429 . S
C989 N986 1.350 . S
C989 C988 1.434 . S
C990 C991 1.369 . S
C990 C992 1.419 . S
C990 H994 0.930 . S
C991 C990 1.369 . S
C991 C1000 1.429 . S
C992 C990 1.419 . S
C992 C993 1.363 . S
C992 H995 0.929 . S
C993 C992 1.363 . S
C993 C999 1.428 . S
H994 C990 0.930 . S
H995 C992 0.929 . S
S996 N997 1.613 . S
S996 N998 1.610 . S
N997 S996 1.613 . S
N997 C1000 1.350 . S
N998 S996 1.610 . S
N998 C999 1.351 . S
C999 C993 1.428 . S
C999 N998 1.351 . S
C999 C1000 1.434 . S
C1000 C991 1.429 . S
C1000 N997 1.350 . S
C1000 C999 1.434 . S
C1001 C1002 1.369 . S
C1001 C1003 1.419 . S
C1001 H1005 0.930 . S
C1002 C1001 1.369 . S
C1002 C1011 1.429 . S
C1003 C1001 1.419 . S
C1003 C1004 1.363 . S
C1003 H1006 0.929 . S
C1004 C1003 1.363 . S
C1004 C1010 1.428 . S
H1005 C1001 0.930 . S
H1006 C1003 0.929 . S
S1007 N1008 1.613 . S
S1007 N1009 1.610 . S
N1008 S1007 1.613 . S
N1008 C1011 1.350 . S
N1009 S1007 1.610 . S
N1009 C1010 1.351 . S
C1010 C1004 1.428 . S
C1010 N1009 1.351 . S
C1010 C1011 1.434 . S
C1011 C1002 1.429 . S
C1011 N1008 1.350 . S
C1011 C1010 1.434 . S
C1012 C1013 1.369 . S
C1012 C1014 1.419 . S
C1012 H1016 0.930 . S
C1013 C1012 1.369 . S
C1013 C1022 1.429 . S
C1014 C1012 1.419 . S
C1014 C1015 1.363 . S
C1014 H1017 0.929 . S
C1015 C1014 1.363 . S
C1015 C1021 1.428 . S
H1016 C1012 0.930 . S
H1017 C1014 0.929 . S
S1018 N1019 1.613 . S
S1018 N1020 1.610 . S
N1019 S1018 1.613 . S
N1019 C1022 1.350 . S
N1020 S1018 1.610 . S
N1020 C1021 1.351 . S
C1021 C1015 1.428 . S
C1021 N1020 1.351 . S
C1021 C1022 1.434 . S
C1022 C1013 1.429 . S
C1022 N1019 1.350 . S
C1022 C1021 1.434 . S
C1023 C1024 1.369 . S
C1023 C1025 1.419 . S
C1023 H1027 0.930 . S
C1024 C1023 1.369 . S
C1024 C1033 1.429 . S
C1025 C1023 1.419 . S
C1025 C1026 1.363 . S
C1025 H1028 0.929 . S
C1026 C1025 1.363 . S
C1026 C1032 1.428 . S
H1027 C1023 0.930 . S
H1028 C1025 0.929 . S
S1029 N1030 1.613 . S
S1029 N1031 1.610 . S
N1030 S1029 1.613 . S
N1030 C1033 1.350 . S
N1031 S1029 1.610 . S
N1031 C1032 1.351 . S
C1032 C1026 1.428 . S
C1032 N1031 1.351 . S
C1032 C1033 1.434 . S
C1033 C1024 1.429 . S
C1033 N1030 1.350 . S
C1033 C1032 1.434 . S
C1034 C1035 1.369 . S
C1034 C1036 1.419 . S
C1034 H1038 0.930 . S
C1035 C1034 1.369 . S
C1035 C1044 1.429 . S
C1036 C1034 1.419 . S
C1036 C1037 1.363 . S
C1036 H1039 0.929 . S
C1037 C1036 1.363 . S
C1037 C1043 1.428 . S
H1038 C1034 0.930 . S
H1039 C1036 0.929 . S
S1040 N1041 1.613 . S
S1040 N1042 1.610 . S
N1041 S1040 1.613 . S
N1041 C1044 1.350 . S
N1042 S1040 1.610 . S
N1042 C1043 1.351 . S
C1043 C1037 1.428 . S
C1043 N1042 1.351 . S
C1043 C1044 1.434 . S
C1044 C1035 1.429 . S
C1044 N1041 1.350 . S
C1044 C1043 1.434 . S
C1045 C1046 1.369 . S
C1045 C1047 1.419 . S
C1045 H1049 0.930 . S
C1046 C1045 1.369 . S
C1046 C1055 1.429 . S
C1047 C1045 1.419 . S
C1047 C1048 1.363 . S
C1047 H1050 0.929 . S
C1048 C1047 1.363 . S
C1048 C1054 1.428 . S
H1049 C1045 0.930 . S
H1050 C1047 0.929 . S
S1051 N1052 1.613 . S
S1051 N1053 1.610 . S
N1052 S1051 1.613 . S
N1052 C1055 1.350 . S
N1053 S1051 1.610 . S
N1053 C1054 1.351 . S
C1054 C1048 1.428 . S
C1054 N1053 1.351 . S
C1054 C1055 1.434 . S
C1055 C1046 1.429 . S
C1055 N1052 1.350 . S
C1055 C1054 1.434 . S
C1056 C1057 1.369 . S
C1056 C1058 1.419 . S
C1056 H1060 0.930 . S
C1057 C1056 1.369 . S
C1057 C1066 1.429 . S
C1058 C1056 1.419 . S
C1058 C1059 1.363 . S
C1058 H1061 0.929 . S
C1059 C1058 1.363 . S
C1059 C1065 1.428 . S
H1060 C1056 0.930 . S
H1061 C1058 0.929 . S
S1062 N1063 1.613 . S
S1062 N1064 1.610 . S
N1063 S1062 1.613 . S
N1063 C1066 1.350 . S
N1064 S1062 1.610 . S
N1064 C1065 1.351 . S
C1065 C1059 1.428 . S
C1065 N1064 1.351 . S
C1065 C1066 1.434 . S
C1066 C1057 1.429 . S
C1066 N1063 1.350 . S
C1066 C1065 1.434 . S
C1067 C1068 1.369 . S
C1067 C1069 1.419 . S
C1067 H1071 0.930 . S
C1068 C1067 1.369 . S
C1068 C1077 1.429 . S
C1069 C1067 1.419 . S
C1069 C1070 1.363 . S
C1069 H1072 0.929 . S
C1070 C1069 1.363 . S
C1070 C1076 1.428 . S
H1071 C1067 0.930 . S
H1072 C1069 0.929 . S
S1073 N1074 1.613 . S
S1073 N1075 1.610 . S
N1074 S1073 1.613 . S
N1074 C1077 1.350 . S
N1075 S1073 1.610 . S
N1075 C1076 1.351 . S
C1076 C1070 1.428 . S
C1076 N1075 1.351 . S
C1076 C1077 1.434 . S
C1077 C1068 1.429 . S
C1077 N1074 1.350 . S
C1077 C1076 1.434 . S
C1078 C1079 1.369 . S
C1078 C1080 1.419 . S
C1078 H1082 0.930 . S
C1079 C1078 1.369 . S
C1079 C1088 1.429 . S
C1080 C1078 1.419 . S
C1080 C1081 1.363 . S
C1080 H1083 0.929 . S
C1081 C1080 1.363 . S
C1081 C1087 1.428 . S
H1082 C1078 0.930 . S
H1083 C1080 0.929 . S
S1084 N1085 1.613 . S
S1084 N1086 1.610 . S
N1085 S1084 1.613 . S
N1085 C1088 1.350 . S
N1086 S1084 1.610 . S
N1086 C1087 1.351 . S
C1087 C1081 1.428 . S
C1087 N1086 1.351 . S
C1087 C1088 1.434 . S
C1088 C1079 1.429 . S
C1088 N1085 1.350 . S
C1088 C1087 1.434 . S
C1089 C1090 1.369 . S
C1089 C1091 1.419 . S
C1089 H1093 0.930 . S
C1090 C1089 1.369 . S
C1090 C1099 1.429 . S
C1091 C1089 1.419 . S
C1091 C1092 1.363 . S
C1091 H1094 0.929 . S
C1092 C1091 1.363 . S
C1092 C1098 1.428 . S
H1093 C1089 0.930 . S
H1094 C1091 0.929 . S
S1095 N1096 1.613 . S
S1095 N1097 1.610 . S
N1096 S1095 1.613 . S
N1096 C1099 1.350 . S
N1097 S1095 1.610 . S
N1097 C1098 1.351 . S
C1098 C1092 1.428 . S
C1098 N1097 1.351 . S
C1098 C1099 1.434 . S
C1099 C1090 1.429 . S
C1099 N1096 1.350 . S
C1099 C1098 1.434 . S
C1100 C1101 1.369 . S
C1100 C1102 1.419 . S
C1100 H1104 0.930 . S
C1101 C1100 1.369 . S
C1101 C1110 1.429 . S
C1102 C1100 1.419 . S
C1102 C1103 1.363 . S
C1102 H1105 0.929 . S
C1103 C1102 1.363 . S
C1103 C1109 1.428 . S
H1104 C1100 0.930 . S
H1105 C1102 0.929 . S
S1106 N1107 1.613 . S
S1106 N1108 1.610 . S
N1107 S1106 1.613 . S
N1107 C1110 1.350 . S
N1108 S1106 1.610 . S
N1108 C1109 1.351 . S
C1109 C1103 1.428 . S
C1109 N1108 1.351 . S
C1109 C1110 1.434 . S
C1110 C1101 1.429 . S
C1110 N1107 1.350 . S
C1110 C1109 1.434 . S
C1111 C1112 1.369 . S
C1111 C1113 1.419 . S
C1111 H1115 0.930 . S
C1112 C1111 1.369 . S
C1112 C1121 1.429 . S
C1113 C1111 1.419 . S
C1113 C1114 1.363 . S
C1113 H1116 0.929 . S
C1114 C1113 1.363 . S
C1114 C1120 1.428 . S
H1115 C1111 0.930 . S
H1116 C1113 0.929 . S
S1117 N1118 1.613 . S
S1117 N1119 1.610 . S
N1118 S1117 1.613 . S
N1118 C1121 1.350 . S
N1119 S1117 1.610 . S
N1119 C1120 1.351 . S
C1120 C1114 1.428 . S
C1120 N1119 1.351 . S
C1120 C1121 1.434 . S
C1121 C1112 1.429 . S
C1121 N1118 1.350 . S
C1121 C1120 1.434 . S
C1122 C1123 1.369 . S
C1122 C1124 1.419 . S
C1122 H1126 0.930 . S
C1123 C1122 1.369 . S
C1123 C1132 1.429 . S
C1124 C1122 1.419 . S
C1124 C1125 1.363 . S
C1124 H1127 0.929 . S
C1125 C1124 1.363 . S
C1125 C1131 1.428 . S
H1126 C1122 0.930 . S
H1127 C1124 0.929 . S
S1128 N1129 1.613 . S
S1128 N1130 1.610 . S
N1129 S1128 1.613 . S
N1129 C1132 1.350 . S
N1130 S1128 1.610 . S
N1130 C1131 1.351 . S
C1131 C1125 1.428 . S
C1131 N1130 1.351 . S
C1131 C1132 1.434 . S
C1132 C1123 1.429 . S
C1132 N1129 1.350 . S
C1132 C1131 1.434 . S
C1133 C1134 1.369 . S
C1133 C1135 1.419 . S
C1133 H1137 0.930 . S
C1134 C1133 1.369 . S
C1134 C1143 1.429 . S
C1135 C1133 1.419 . S
C1135 C1136 1.363 . S
C1135 H1138 0.929 . S
C1136 C1135 1.363 . S
C1136 C1142 1.428 . S
H1137 C1133 0.930 . S
H1138 C1135 0.929 . S
S1139 N1140 1.613 . S
S1139 N1141 1.610 . S
N1140 S1139 1.613 . S
N1140 C1143 1.350 . S
N1141 S1139 1.610 . S
N1141 C1142 1.351 . S
C1142 C1136 1.428 . S
C1142 N1141 1.351 . S
C1142 C1143 1.434 . S
C1143 C1134 1.429 . S
C1143 N1140 1.350 . S
C1143 C1142 1.434 . S
C1144 C1145 1.369 . S
C1144 C1146 1.419 . S
C1144 H1148 0.930 . S
C1145 C1144 1.369 . S
C1145 C1154 1.429 . S
C1146 C1144 1.419 . S
C1146 C1147 1.363 . S
C1146 H1149 0.929 . S
C1147 C1146 1.363 . S
C1147 C1153 1.428 . S
H1148 C1144 0.930 . S
H1149 C1146 0.929 . S
S1150 N1151 1.613 . S
S1150 N1152 1.610 . S
N1151 S1150 1.613 . S
N1151 C1154 1.350 . S
N1152 S1150 1.610 . S
N1152 C1153 1.351 . S
C1153 C1147 1.428 . S
C1153 N1152 1.351 . S
C1153 C1154 1.434 . S
C1154 C1145 1.429 . S
C1154 N1151 1.350 . S
C1154 C1153 1.434 . S
C1155 C1156 1.369 . S
C1155 C1157 1.419 . S
C1155 H1159 0.930 . S
C1156 C1155 1.369 . S
C1156 C1165 1.429 . S
C1157 C1155 1.419 . S
C1157 C1158 1.363 . S
C1157 H1160 0.929 . S
C1158 C1157 1.363 . S
C1158 C1164 1.428 . S
H1159 C1155 0.930 . S
H1160 C1157 0.929 . S
S1161 N1162 1.613 . S
S1161 N1163 1.610 . S
N1162 S1161 1.613 . S
N1162 C1165 1.350 . S
N1163 S1161 1.610 . S
N1163 C1164 1.351 . S
C1164 C1158 1.428 . S
C1164 N1163 1.351 . S
C1164 C1165 1.434 . S
C1165 C1156 1.429 . S
C1165 N1162 1.350 . S
C1165 C1164 1.434 . S
C1166 C1167 1.369 . S
C1166 C1168 1.419 . S
C1166 H1170 0.930 . S
C1167 C1166 1.369 . S
C1167 C1176 1.429 . S
C1168 C1166 1.419 . S
C1168 C1169 1.363 . S
C1168 H1171 0.929 . S
C1169 C1168 1.363 . S
C1169 C1175 1.428 . S
H1170 C1166 0.930 . S
H1171 C1168 0.929 . S
S1172 N1173 1.613 . S
S1172 N1174 1.610 . S
N1173 S1172 1.613 . S
N1173 C1176 1.350 . S
N1174 S1172 1.610 . S
N1174 C1175 1.351 . S
C1175 C1169 1.428 . S
C1175 N1174 1.351 . S
C1175 C1176 1.434 . S
C1176 C1167 1.429 . S
C1176 N1173 1.350 . S
C1176 C1175 1.434 . S
C1177 C1178 1.369 . S
C1177 C1179 1.419 . S
C1177 H1181 0.930 . S
C1178 C1177 1.369 . S
C1178 C1187 1.429 . S
C1179 C1177 1.419 . S
C1179 C1180 1.363 . S
C1179 H1182 0.929 . S
C1180 C1179 1.363 . S
C1180 C1186 1.428 . S
H1181 C1177 0.930 . S
H1182 C1179 0.929 . S
S1183 N1184 1.613 . S
S1183 N1185 1.610 . S
N1184 S1183 1.613 . S
N1184 C1187 1.350 . S
N1185 S1183 1.610 . S
N1185 C1186 1.351 . S
C1186 C1180 1.428 . S
C1186 N1185 1.351 . S
C1186 C1187 1.434 . S
C1187 C1178 1.429 . S
C1187 N1184 1.350 . S
C1187 C1186 1.434 . S
C1188 C1189 1.366 1_565 S
C1188 C1190 1.422 . S
C1188 H1192 0.928 . S
C1189 C1188 1.366 1_545 S
C1189 C1198 1.429 . S
C1190 C1188 1.422 . S
C1190 C1191 1.363 . S
C1190 H1193 0.929 . S
C1191 C1190 1.363 . S
C1191 C1197 1.388 1_565 S
H1192 C1188 0.928 . S
H1193 C1190 0.929 . S
S1194 N1195 1.613 . S
S1194 N1196 1.610 . S
N1195 S1194 1.613 . S
N1195 C1198 1.350 . S
N1196 S1194 1.610 . S
N1196 C1197 1.362 . S
C1197 C1191 1.388 1_545 S
C1197 N1196 1.362 . S
C1197 C1198 1.472 . S
C1198 C1189 1.429 . S
C1198 N1195 1.350 . S
C1198 C1197 1.472 . S
C1199 C1200 1.369 . S
C1199 C1201 1.419 1_455 S
C1199 H1203 0.930 . S
C1200 C1199 1.369 . S
C1200 C1209 1.429 . S
C1201 C1199 1.419 1_655 S
C1201 C1202 1.363 . S
C1201 H1204 0.929 . S
C1202 C1201 1.363 . S
C1202 C1208 1.428 . S
H1203 C1199 0.930 . S
H1204 C1201 0.929 . S
S1205 N1206 1.613 . S
S1205 N1207 1.610 1_455 S
N1206 S1205 1.613 . S
N1206 C1209 1.350 . S
N1207 S1205 1.610 1_655 S
N1207 C1208 1.351 . S
C1208 C1202 1.428 . S
C1208 N1207 1.351 . S
C1208 C1209 1.434 1_655 S
C1209 C1200 1.429 . S
C1209 N1206 1.350 . S
C1209 C1208 1.434 1_455 S
C1210 C1211 1.369 . S
C1210 C1212 1.419 1_545 S
C1210 H1214 0.930 . S
C1211 C1210 1.369 . S
C1211 C1220 1.429 . S
C1212 C1210 1.419 1_565 S
C1212 C1213 1.363 . S
C1212 H1215 0.929 . S
C1213 C1212 1.363 . S
C1213 C1219 1.428 . S
H1214 C1210 0.930 . S
H1215 C1212 0.929 . S
S1216 N1217 1.613 1_565 S
S1216 N1218 1.610 . S
N1217 S1216 1.613 1_545 S
N1217 C1220 1.350 . S
N1218 S1216 1.610 . S
N1218 C1219 1.351 . S
C1219 C1213 1.428 . S
C1219 N1218 1.351 . S
C1219 C1220 1.434 1_565 S
C1220 C1211 1.429 . S
C1220 N1217 1.350 . S
C1220 C1219 1.434 1_545 S
C1221 C1222 1.369 1_655 S
C1221 C1223 1.419 . S
C1221 H1225 0.930 . S
C1222 C1221 1.369 1_455 S
C1222 C1231 1.429 . S
C1223 C1221 1.419 . S
C1223 C1224 1.363 . S
C1223 H1226 0.929 . S
C1224 C1223 1.363 . S
C1224 C1230 1.428 1_655 S
H1225 C1221 0.930 . S
H1226 C1223 0.929 . S
S1227 N1228 1.613 . S
S1227 N1229 1.610 . S
N1228 S1227 1.613 . S
N1228 C1231 1.350 . S
N1229 S1227 1.610 . S
N1229 C1230 1.351 . S
C1230 C1224 1.428 1_455 S
C1230 N1229 1.351 . S
C1230 C1231 1.434 . S
C1231 C1222 1.429 . S
C1231 N1228 1.350 . S
C1231 C1230 1.434 . S
C1232 C1233 1.369 1_565 S
C1232 C1234 1.419 . S
C1232 H1236 0.930 . S
C1233 C1232 1.369 1_545 S
C1233 C1242 1.429 . S
C1234 C1232 1.419 . S
C1234 C1235 1.363 . S
C1234 H1237 0.929 . S
C1235 C1234 1.363 . S
C1235 C1241 1.428 1_565 S
H1236 C1232 0.930 . S
H1237 C1234 0.929 . S
S1238 N1239 1.613 . S
S1238 N1240 1.610 . S
N1239 S1238 1.613 . S
N1239 C1242 1.350 . S
N1240 S1238 1.610 . S
N1240 C1241 1.351 . S
C1241 C1235 1.428 1_545 S
C1241 N1240 1.351 . S
C1241 C1242 1.434 . S
C1242 C1233 1.429 . S
C1242 N1239 1.350 . S
C1242 C1241 1.434 . S
C1243 C1244 1.369 . S
C1243 C1245 1.419 . S
C1243 H1247 0.930 . S
C1244 C1243 1.369 . S
C1244 C1253 1.429 1_655 S
C1245 C1243 1.419 . S
C1245 C1246 1.363 1_655 S
C1245 H1248 0.929 . S
C1246 C1245 1.363 1_455 S
C1246 C1252 1.428 . S
H1247 C1243 0.930 . S
H1248 C1245 0.929 . S
S1249 N1250 1.613 . S
S1249 N1251 1.610 . S
N1250 S1249 1.613 . S
N1250 C1253 1.350 . S
N1251 S1249 1.610 . S
N1251 C1252 1.351 . S
C1252 C1246 1.428 . S
C1252 N1251 1.351 . S
C1252 C1253 1.434 . S
C1253 C1244 1.429 1_455 S
C1253 N1250 1.350 . S
C1253 C1252 1.434 . S
C1254 C1255 1.369 . S
C1254 C1256 1.386 1_545 S
C1254 H1258 0.930 . S
C1255 C1254 1.369 . S
C1255 C1264 1.430 1_545 S
C1256 C1254 1.386 1_565 S
C1256 C1257 1.396 . S
C1256 H1259 0.929 . S
C1257 C1256 1.396 . S
C1257 C1263 1.428 . S
H1258 C1254 0.930 . S
H1259 C1256 0.929 . S
S1260 N1261 1.613 . S
S1260 N1262 1.610 . S
N1261 S1260 1.613 . S
N1261 C1264 1.350 . S
N1262 S1260 1.610 . S
N1262 C1263 1.351 . S
C1263 C1257 1.428 . S
C1263 N1262 1.351 . S
C1263 C1264 1.432 . S
C1264 C1255 1.430 1_565 S
C1264 N1261 1.350 . S
C1264 C1263 1.432 . S
C1265 C1266 1.369 1_455 S
C1265 C1267 1.419 . S
C1265 H1269 0.930 . S
C1266 C1265 1.369 1_655 S
C1266 C1275 1.429 . S
C1267 C1265 1.419 . S
C1267 C1268 1.363 . S
C1267 H1270 0.929 . S
C1268 C1267 1.363 . S
C1268 C1274 1.428 1_455 S
H1269 C1265 0.930 . S
H1270 C1267 0.929 . S
S1271 N1272 1.613 . S
S1271 N1273 1.610 . S
N1272 S1271 1.613 . S
N1272 C1275 1.350 . S
N1273 S1271 1.610 . S
N1273 C1274 1.351 . S
C1274 C1268 1.428 1_655 S
C1274 N1273 1.351 . S
C1274 C1275 1.434 . S
C1275 C1266 1.429 . S
C1275 N1272 1.350 . S
C1275 C1274 1.434 . S
C1276 C1277 1.369 . S
C1276 C1278 1.419 . S
C1276 H1280 0.930 . S
C1277 C1276 1.369 . S
C1277 C1286 1.429 1_556 S
C1278 C1276 1.419 . S
C1278 C1279 1.363 1_556 S
C1278 H1281 0.929 . S
C1279 C1278 1.363 1_554 S
C1279 C1285 1.428 . S
H1280 C1276 0.930 . S
H1281 C1278 0.929 . S
S1282 N1283 1.613 . S
S1282 N1284 1.610 . S
N1283 S1282 1.613 . S
N1283 C1286 1.350 . S
N1284 S1282 1.610 . S
N1284 C1285 1.351 . S
C1285 C1279 1.428 . S
C1285 N1284 1.351 . S
C1285 C1286 1.434 . S
C1286 C1277 1.429 1_554 S
C1286 N1283 1.350 . S
C1286 C1285 1.434 . S
C1287 C1288 1.369 . S
C1287 C1289 1.419 1_554 S
C1287 H1291 0.930 . S
C1288 C1287 1.369 . S
C1288 C1297 1.429 . S
C1289 C1287 1.419 1_556 S
C1289 C1290 1.363 . S
C1289 H1292 0.929 . S
C1290 C1289 1.363 . S
C1290 C1296 1.428 . S
H1291 C1287 0.930 . S
H1292 C1289 0.929 . S
S1293 N1294 1.648 . S
S1293 N1295 1.576 1_554 S
N1294 S1293 1.648 . S
N1294 C1297 1.350 . S
N1295 S1293 1.576 1_556 S
N1295 C1296 1.351 . S
C1296 C1290 1.428 . S
C1296 N1295 1.351 . S
C1296 C1297 1.434 1_556 S
C1297 C1288 1.429 . S
C1297 N1294 1.350 . S
C1297 C1296 1.434 1_554 S
C1298 C1299 1.369 1_554 S
C1298 C1300 1.419 . S
C1298 H1302 0.930 . S
C1299 C1298 1.369 1_556 S
C1299 C1308 1.429 . S
C1300 C1298 1.419 . S
C1300 C1301 1.363 . S
C1300 H1303 0.929 . S
C1301 C1300 1.363 . S
C1301 C1307 1.428 1_554 S
H1302 C1298 0.930 . S
H1303 C1300 0.929 . S
S1304 N1305 1.613 . S
S1304 N1306 1.610 . S
N1305 S1304 1.613 . S
N1305 C1308 1.350 . S
N1306 S1304 1.610 . S
N1306 C1307 1.351 . S
C1307 C1301 1.428 1_556 S
C1307 N1306 1.351 . S
C1307 C1308 1.434 . S
C1308 C1299 1.429 . S
C1308 N1305 1.350 . S
C1308 C1307 1.434 . S
C1309 C1310 1.369 . S
C1309 C1311 1.419 1_554 S
C1309 H1313 0.930 . S
C1310 C1309 1.369 . S
C1310 C1319 1.429 . S
C1311 C1309 1.419 1_556 S
C1311 C1312 1.363 . S
C1311 H1314 0.929 . S
C1312 C1311 1.363 . S
C1312 C1318 1.428 . S
H1313 C1309 0.930 . S
H1314 C1311 0.929 . S
S1315 N1316 1.613 . S
S1315 N1317 1.610 1_554 S
N1316 S1315 1.613 . S
N1316 C1319 1.350 . S
N1317 S1315 1.610 1_556 S
N1317 C1318 1.351 . S
C1318 C1312 1.428 . S
C1318 N1317 1.351 . S
C1318 C1319 1.434 1_556 S
C1319 C1310 1.429 . S
C1319 N1316 1.350 . S
C1319 C1318 1.434 1_554 S
C529 C29 1.481 . S
C531 C7 1.469 . S
C540 C18 1.480 . S
C542 C40 1.470 . S
C551 C73 1.468 . S
C553 C51 1.479 . S
C562 C62 1.479 . S
C564 C84 1.472 . S
C573 C139 1.469 . S
C575 C95 1.479 . S
C584 C150 1.473 . S
C586 C106 1.475 . S
C595 C117 1.478 . S
C597 C161 1.472 . S
C606 C128 1.479 . S
C608 C172 1.471 . S
C617 C216 1.478 . S
C619 C183 1.471 . S
C628 C194 1.476 . S
C630 C238 1.474 . S
C639 C249 1.480 . S
C641 C205 1.470 . S
C650 C260 1.481 . S
C652 C227 1.469 . S
C661 C271 1.469 . S
C663 C293 1.479 . S
C672 C282 1.479 . S
C674 C304 1.470 . S
C683 C337 1.476 . S
C685 C315 1.472 . S
C694 C348 1.479 . S
C696 C326 1.470 . S
C705 C359 1.481 . S
C707 C403 1.469 . S
C716 C370 1.472 . S
C718 C414 1.475 . S
C727 C381 1.481 . S
C729 C425 1.469 . S
C738 C436 1.478 . S
C740 C392 1.471 . S
C749 C480 1.470 . S
C751 C447 1.478 . S
C760 C502 1.471 . S
C762 C458 1.478 . S
C771 C513 1.467 . S
C773 C469 1.480 . S
C782 C524 1.479 . S
C784 C491 1.471 . S
C793 C5 1.238 . S
C795 C346 1.236 . S
C804 C313 1.240 . S
C806 C16 1.230 . S
C815 C27 1.220 . S
C817 C324 1.225 . S
C826 C38 1.230 . S
C828 C335 1.222 . S
C837 C280 1.226 . S
C839 C49 1.236 . S
C848 C291 1.221 . S
C850 C60 1.224 . S
C859 C71 1.236 . S
C861 C302 1.225 . S
C870 C82 1.223 . S
C872 C269 1.222 . S
C881 C489 1.230 . S
C883 C93 1.222 . S
C892 C104 1.239 . S
C894 C456 1.235 . S
C903 C467 1.230 . S
C905 C115 1.222 . S
C914 C126 1.239 . S
C916 C478 1.235 . S
C925 C137 1.235 . S
C927 C522 1.238 . S
C936 C148 1.224 . S
C938 C500 1.235 . S
C947 C159 1.240 . S
C949 C511 1.231 . S
C958 C170 1.240 . S
C960 C445 1.231 . S
C969 C181 1.228 . S
C971 C434 1.222 . S
C980 C192 1.225 . S
C982 C368 1.236 . S
C991 C203 1.219 . S
C993 C379 1.229 . S
C1002 C390 1.221 . S
C1004 C214 1.224 . S
C1013 C225 1.223 . S
C1015 C357 1.235 . S
C1024 C412 1.240 . S
C1026 C236 1.235 . S
C1035 C423 1.220 . S
C1037 C247 1.230 . S
C1046 C401 1.219 . S
C1048 C258 1.228 . S
C1057 C250 1.628 . S
C1059 C8 1.637 . S
C1068 C184 1.636 . S
C1070 C19 1.630 . S
C1079 C30 1.628 . S
C1081 C261 1.636 . S
C1090 C41 1.627 . S
C1092 C239 1.637 . S
C1101 C52 1.638 . S
C1103 C206 1.629 . S
C1112 C217 1.630 . S
C1114 C63 1.634 . S
C1123 C228 1.638 . S
C1125 C74 1.629 . S
C1134 C85 1.632 . S
C1136 C195 1.633 . S
C1145 C96 1.627 . S
C1147 C151 1.637 . S
C1156 C107 1.629 . S
C1158 C162 1.635 . S
C1167 C118 1.633 . S
C1169 C173 1.632 . S
C1178 C140 1.632 . S
C1180 C129 1.634 . S
C1189 C514 1.638 . S
C1191 C272 1.629 . S
C1200 C283 1.631 . S
C1202 C448 1.634 . S
C1211 C294 1.633 . S
C1213 C525 1.633 . S
C1222 C503 1.638 . S
C1224 C305 1.629 . S
C1233 C316 1.638 . S
C1235 C470 1.629 . S
C1244 C327 1.627 . S
C1246 C481 1.637 . S
C1255 C492 1.628 . S
C1257 C338 1.636 . S
C1266 C459 1.638 . S
C1268 C349 1.629 . S
C1277 C360 1.628 . S
C1279 C415 1.637 . S
C1288 C426 1.631 . S
C1290 C371 1.634 . S
C1299 C382 1.637 . S
C1301 C437 1.629 . S
C1310 C404 1.636 . S
C1312 C393 1.631 . S
