# Generated by pormake.
# Topology uoc, (4)-cn, num edge types: 1
# Building blocks:
#     Node 0, Type 0, BuildingBlock: NAHDIM_clean_sbu_0, # of connection points: 4
#     Node 1, Type 0, BuildingBlock: NAHDIM_clean_sbu_0, # of connection points: 4
#     Node 2, Type 0, BuildingBlock: NAHDIM_clean_sbu_0, # of connection points: 4
#     Node 3, Type 0, BuildingBlock: NAHDIM_clean_sbu_0, # of connection points: 4
#     Node 4, Type 0, BuildingBlock: NAHDIM_clean_sbu_0, # of connection points: 4
#     Node 5, Type 0, BuildingBlock: NAHDIM_clean_sbu_0, # of connection points: 4
#     Node 6, Type 0, BuildingBlock: NAHDIM_clean_sbu_0, # of connection points: 4
#     Node 7, Type 0, BuildingBlock: NAHDIM_clean_sbu_0, # of connection points: 4
#     Edge 8, Type (0, 0), BuildingBlock: XIVTED_clean_linker_0, # of connection points: 2
#     Edge 9, Type (0, 0), BuildingBlock: XIVTED_clean_linker_0, # of connection points: 2
#     Edge 10, Type (0, 0), BuildingBlock: XIVTED_clean_linker_0, # of connection points: 2
#     Edge 11, Type (0, 0), BuildingBlock: XIVTED_clean_linker_0, # of connection points: 2
#     Edge 12, Type (0, 0), BuildingBlock: XIVTED_clean_linker_0, # of connection points: 2
#     Edge 13, Type (0, 0), BuildingBlock: XIVTED_clean_linker_0, # of connection points: 2
#     Edge 14, Type (0, 0), BuildingBlock: XIVTED_clean_linker_0, # of connection points: 2
#     Edge 15, Type (0, 0), BuildingBlock: XIVTED_clean_linker_0, # of connection points: 2
#     Edge 16, Type (0, 0), BuildingBlock: XIVTED_clean_linker_0, # of connection points: 2
#     Edge 17, Type (0, 0), BuildingBlock: XIVTED_clean_linker_0, # of connection points: 2
#     Edge 18, Type (0, 0), BuildingBlock: XIVTED_clean_linker_0, # of connection points: 2
#     Edge 19, Type (0, 0), BuildingBlock: XIVTED_clean_linker_0, # of connection points: 2
#     Edge 20, Type (0, 0), BuildingBlock: XIVTED_clean_linker_0, # of connection points: 2
#     Edge 21, Type (0, 0), BuildingBlock: XIVTED_clean_linker_0, # of connection points: 2
#     Edge 22, Type (0, 0), BuildingBlock: XIVTED_clean_linker_0, # of connection points: 2
#     Edge 23, Type (0, 0), BuildingBlock: XIVTED_clean_linker_0, # of connection points: 2
# Relax obj value: 0.200
# Max RMSD: 0.198
# Mean RMSD: 0.198
data_MOF--net-uoc--node1-NAHDIM_clean_sbu_0--edge1-XIVTED_clean_linker_0
_symmetry_space_group_name_H-M    P1
_symmetry_Int_Tables_number       1
_symmetry_cell_setting            triclinic
loop_
_symmetry_equiv_pos_as_xyz
'x, y, z'
_cell_length_a     27.036965
_cell_length_b     27.147618
_cell_length_c     53.510737
_cell_angle_alpha  89.238866
_cell_angle_beta   90.104943
_cell_angle_gamma 94.786299
loop_
_atom_site_label
_atom_site_type_symbol
_atom_site_fract_x
_atom_site_fract_y
_atom_site_fract_z
_atom_type_partial_charge
C0 C 0.1452 0.36314 0.10159 0.0
O1 O 0.19357 0.37053 0.09893 0.0
O2 O 0.2031 0.27691 0.06303 0.0
Zn3 Zn 0.17015 0.26527 0.09617 0.0
O4 O 0.21942 0.26779 0.12417 0.0
C5 C 0.09087 0.1901 0.08465 0.0
O6 O 0.07243 0.22585 0.07178 0.0
O7 O 0.12502 0.31918 0.10122 0.0
C8 C 0.23244 0.22924 0.13525 0.0
O9 O 0.21544 0.18549 0.12728 0.0
C10 C 0.2493 0.27721 0.05873 0.0
O11 O 0.2799 0.26896 0.07713 0.0
O12 O 0.1314 0.19893 0.09641 0.0
C13 C 0.87249 0.59334 0.35578 0.0
O14 O 0.85178 0.60123 0.33402 0.0
O15 O 0.79515 0.68868 0.40502 0.0
Zn16 Zn 0.79365 0.64832 0.37405 0.0
O17 O 0.79922 0.69076 0.34307 0.0
C18 C 0.69071 0.61551 0.38193 0.0
O19 O 0.68987 0.65965 0.39161 0.0
O20 O 0.85315 0.609 0.37546 0.0
C21 C 0.76313 0.70232 0.32957 0.0
O22 O 0.71747 0.68854 0.33655 0.0
C23 C 0.78591 0.73362 0.40662 0.0
O24 O 0.77371 0.75798 0.38647 0.0
O25 O 0.73122 0.60237 0.37321 0.0
C26 C 0.39308 0.17007 0.5986 0.0
O27 O 0.39716 0.19621 0.6191 0.0
O28 O 0.27125 0.2394 0.55947 0.0
Zn29 Zn 0.32622 0.24264 0.58479 0.0
O30 O 0.30142 0.24257 0.61989 0.0
C31 C 0.35069 0.34603 0.58079 0.0
O32 O 0.30278 0.34569 0.58496 0.0
O33 O 0.36581 0.18388 0.58093 0.0
C34 C 0.25696 0.2389 0.62772 0.0
O35 O 0.2201 0.23478 0.61165 0.0
C36 C 0.25777 0.19926 0.54848 0.0
O37 O 0.27733 0.15847 0.55531 0.0
O38 O 0.3701 0.30512 0.5794 0.0
C39 C 0.65291 0.9074 0.88522 0.0
O40 O 0.67934 0.90613 0.90581 0.0
O41 O 0.73122 0.80399 0.89552 0.0
Zn42 Zn 0.72543 0.84468 0.86434 0.0
O43 O 0.71534 0.80029 0.83493 0.0
C44 C 0.81682 0.90289 0.87691 0.0
O45 O 0.80237 0.89312 0.90001 0.0
O46 O 0.66656 0.88521 0.86597 0.0
C47 C 0.75135 0.78729 0.82204 0.0
O48 O 0.79705 0.80109 0.82889 0.0
C49 C 0.69501 0.78635 0.9089 0.0
O50 O 0.6494 0.79366 0.90221 0.0
O51 O 0.78902 0.88764 0.85897 0.0
C52 C 0.53193 0.83968 0.58968 0.0
O53 O 0.52816 0.81293 0.56938 0.0
O54 O 0.64588 0.77061 0.58108 0.0
Zn55 Zn 0.5918 0.76293 0.60677 0.0
O56 O 0.6194 0.74946 0.64063 0.0
C57 C 0.56325 0.66461 0.59296 0.0
O58 O 0.61172 0.66338 0.5936 0.0
O59 O 0.55652 0.82489 0.60816 0.0
C60 C 0.66401 0.74078 0.64517 0.0
O61 O 0.69607 0.74088 0.62675 0.0
C62 C 0.6624 0.81147 0.57113 0.0
O63 O 0.6449 0.85276 0.5782 0.0
O64 O 0.54463 0.70488 0.59777 0.0
C65 C 0.32681 0.05866 0.87827 0.0
O66 O 0.30498 0.07111 0.89889 0.0
O67 O 0.26136 0.1691 0.87938 0.0
Zn68 Zn 0.25306 0.11512 0.85426 0.0
O69 O 0.25434 0.14552 0.82 0.0
C70 C 0.16382 0.05079 0.84432 0.0
O71 O 0.1836 0.04723 0.82208 0.0
O72 O 0.3099 0.07199 0.85728 0.0
C73 C 0.21737 0.16335 0.80961 0.0
O74 O 0.17493 0.16242 0.82158 0.0
C75 C 0.30303 0.18902 0.88663 0.0
O76 O 0.34417 0.17516 0.87693 0.0
O77 O 0.18741 0.07647 0.86085 0.0
C78 C 0.93368 0.64834 0.11234 0.0
O79 O 0.88534 0.64082 0.11511 0.0
O80 O 0.85989 0.73153 0.08012 0.0
Zn81 Zn 0.90569 0.74537 0.10913 0.0
O82 O 0.87257 0.74342 0.14255 0.0
C83 C 0.92108 0.84744 0.09454 0.0
O84 O 0.87479 0.83941 0.08713 0.0
O85 O 0.95299 0.69235 0.10945 0.0
C86 C 0.83873 0.76914 0.15033 0.0
O87 O 0.81867 0.80016 0.1351 0.0
C88 C 0.81304 0.72295 0.07905 0.0
O89 O 0.78631 0.72294 0.09951 0.0
O90 O 0.94269 0.81212 0.10436 0.0
C91 C 0.19681 0.43957 0.36435 0.0
O92 O 0.21916 0.43531 0.38601 0.0
O93 O 0.25576 0.32437 0.3745 0.0
Zn94 Zn 0.27176 0.37795 0.34886 0.0
O95 O 0.28621 0.34989 0.31557 0.0
C96 C 0.37371 0.40193 0.35917 0.0
O97 O 0.37527 0.35577 0.35235 0.0
O98 O 0.21365 0.41894 0.34536 0.0
C99 C 0.2885 0.30433 0.31107 0.0
O100 O 0.28022 0.27139 0.3291 0.0
C101 C 0.21148 0.30822 0.37982 0.0
O102 O 0.17431 0.32531 0.36753 0.0
O103 O 0.33209 0.42044 0.35964 0.0
H104 H 0.33973 0.25659 0.03994 0.0
H105 H 0.23145 0.24576 0.90252 0.0
H106 H 0.19884 0.30789 0.01813 0.0
H107 H 0.37739 0.20338 0.92124 0.0
H108 H 0.22657 0.28393 0.94326 0.0
H109 H 0.36171 0.25139 -0.00428 0.0
C110 C 0.3138 0.26756 0.02588 0.0
C111 C 0.26693 0.28155 0.03267 0.0
C112 C 0.26008 0.26704 0.9384 0.0
C113 C 0.29167 0.27562 -0.01777 0.0
C114 C 0.26284 0.24526 0.91511 0.0
C115 C 0.30449 0.22071 0.90876 0.0
C116 C 0.29882 0.26326 0.95568 0.0
C117 C 0.34444 0.22168 0.92556 0.0
C118 C 0.32635 0.26459 0.00065 0.0
C119 C 0.23495 0.29582 0.01373 0.0
N120 N 0.3402 0.24167 0.94854 0.0
N121 N 0.24764 0.29183 -0.0106 0.0
H122 H 0.85337 0.73114 0.30917 0.0
H123 H 0.75291 0.79381 0.17296 0.0
H124 H 0.69641 0.72343 0.29283 0.0
H125 H 0.89519 0.73876 0.18851 0.0
H126 H 0.7331 0.78668 0.21789 0.0
H127 H 0.87086 0.75542 0.26596 0.0
C128 C 0.82249 0.73511 0.29658 0.0
C129 C 0.77333 0.72439 0.30454 0.0
C130 C 0.76865 0.77645 0.21132 0.0
C131 C 0.79328 0.75201 0.25493 0.0
C132 C 0.77996 0.78052 0.18581 0.0
C133 C 0.82553 0.76641 0.17705 0.0
C134 C 0.80371 0.75925 0.228 0.0
C135 C 0.85937 0.74948 0.1944 0.0
C136 C 0.83256 0.74881 0.27188 0.0
C137 C 0.73488 0.73081 0.28739 0.0
N138 N 0.84782 0.74653 0.219 0.0
N139 N 0.74567 0.7438 0.26323 0.0
H140 H 0.19447 0.26736 0.53374 0.0
H141 H 0.13042 0.30316 0.41049 0.0
H142 H 0.26039 0.1371 0.50898 0.0
H143 H 0.27191 0.2434 0.40048 0.0
H144 H 0.12392 0.26403 0.4521 0.0
H145 H 0.16633 0.28176 0.49104 0.0
C146 C 0.20171 0.24101 0.51944 0.0
C147 C 0.23025 0.20135 0.52477 0.0
C148 C 0.15595 0.25898 0.44058 0.0
C149 C 0.19865 0.21772 0.476 0.0
C150 C 0.15954 0.28089 0.41683 0.0
C151 C 0.20226 0.27718 0.40235 0.0
C152 C 0.19512 0.23288 0.44959 0.0
C153 C 0.23884 0.24784 0.41133 0.0
C154 C 0.18535 0.24903 0.49511 0.0
C155 C 0.23864 0.16825 0.50562 0.0
N156 N 0.2346 0.22705 0.4345 0.0
N157 N 0.2242 0.17803 0.48187 0.0
H158 H 0.66291 0.74568 0.80455 0.0
H159 H 0.75883 0.74174 0.66381 0.0
H160 H 0.81665 0.77668 0.7837 0.0
H161 H 0.60488 0.72383 0.68604 0.0
H162 H 0.78295 0.73924 0.70795 0.0
H163 H 0.64368 0.72104 0.7618 0.0
C164 C 0.69278 0.7467 0.79103 0.0
C165 C 0.74128 0.76414 0.79756 0.0
C166 C 0.74393 0.73529 0.7031 0.0
C167 C 0.71942 0.73659 0.74845 0.0
C168 C 0.73015 0.73668 0.67794 0.0
C169 C 0.67977 0.73386 0.6713 0.0
C170 C 0.707 0.73086 0.72164 0.0
C171 C 0.64416 0.72701 0.69033 0.0
C172 C 0.68176 0.73267 0.76659 0.0
C173 C 0.77863 0.76395 0.77938 0.0
N174 N 0.65846 0.72618 0.7146 0.0
N175 N 0.76677 0.75118 0.7555 0.0
H176 H 0.32323 0.36225 0.27194 0.0
H177 H 0.24229 0.15805 0.17134 0.0
H178 H 0.27243 0.21159 0.29124 0.0
H179 H 0.28179 0.31216 0.15422 0.0
H180 H 0.27098 0.17195 0.21427 0.0
H181 H 0.32589 0.33942 0.22817 0.0
C182 C 0.31302 0.32419 0.26697 0.0
C183 C 0.29656 0.28896 0.28517 0.0
C184 C 0.27413 0.20249 0.20098 0.0
C185 C 0.29915 0.26261 0.23499 0.0
C186 C 0.25795 0.19456 0.17645 0.0
C187 C 0.25871 0.23429 0.15937 0.0
C188 C 0.29119 0.25042 0.20833 0.0
C189 C 0.27965 0.28069 0.16693 0.0
C190 C 0.31465 0.31114 0.24196 0.0
C191 C 0.28475 0.24002 0.27773 0.0
N192 N 0.29443 0.28761 0.19094 0.0
N193 N 0.28549 0.22841 0.2531 0.0
H194 H 0.67711 0.8812 0.53379 0.0
H195 H 0.82052 0.69788 0.45049 0.0
H196 H 0.72269 0.74016 0.55889 0.0
H197 H 0.74553 0.81926 0.4197 0.0
H198 H 0.80451 0.72652 0.49238 0.0
H199 H 0.72105 0.87172 0.49431 0.0
C200 C 0.69723 0.84877 0.5312 0.0
C201 C 0.69565 0.81096 0.54939 0.0
C202 C 0.79203 0.74727 0.47648 0.0
C203 C 0.7457 0.80002 0.50453 0.0
C204 C 0.80113 0.73094 0.45253 0.0
C205 C 0.78332 0.75562 0.4316 0.0
C206 C 0.76459 0.78839 0.47957 0.0
C207 C 0.75932 0.79879 0.43537 0.0
C208 C 0.72207 0.84332 0.50866 0.0
C209 C 0.72232 0.76978 0.54516 0.0
N210 N 0.74991 0.81343 0.45897 0.0
N211 N 0.74586 0.7652 0.52307 0.0
H212 H 0.16795 0.22141 0.65261 0.0
H213 H 0.30246 0.18813 0.7837 0.0
H214 H 0.32564 0.24976 0.66489 0.0
H215 H 0.14299 0.1817 0.77658 0.0
H216 H 0.31038 0.21366 0.74009 0.0
H217 H 0.15638 0.20987 0.69786 0.0
C218 C 0.20002 0.22563 0.66479 0.0
C219 C 0.24788 0.23599 0.65492 0.0
C220 C 0.27357 0.20705 0.74802 0.0
C221 C 0.23497 0.22274 0.70646 0.0
C222 C 0.26904 0.19231 0.77295 0.0
C223 C 0.22199 0.1824 0.78371 0.0
C224 C 0.23073 0.2114 0.73355 0.0
C225 C 0.17998 0.18891 0.76895 0.0
C226 C 0.19339 0.21907 0.69058 0.0
C227 C 0.28809 0.24128 0.67157 0.0
N228 N 0.18531 0.20254 0.74448 0.0
N229 N 0.28073 0.23423 0.69643 0.0
H230 H 0.85615 0.69655 0.03605 0.0
H231 H 0.63316 0.77107 0.94943 0.0
H232 H 0.71665 0.73605 0.06565 0.0
H233 H 0.78047 0.74824 0.92349 0.0
H234 H 0.65621 0.74251 -0.00876 0.0
H235 H 0.82172 0.69856 -0.0059 0.0
C236 C 0.81801 0.70526 0.03371 0.0
C237 C 0.78947 0.71708 0.05429 0.0
C238 C 0.68317 0.74315 0.97627 0.0
C239 C 0.74987 0.72005 0.00616 0.0
C240 C 0.67002 0.75926 0.95242 0.0
C241 C 0.70524 0.76269 0.9331 0.0
C242 C 0.73169 0.73016 -0.01937 0.0
C243 C 0.7524 0.74691 0.93794 0.0
C244 C 0.79833 0.70638 0.00972 0.0
C245 C 0.74 0.72714 0.05022 0.0
N246 N 0.76433 0.73173 0.96124 0.0
N247 N 0.72191 0.7292 0.02651 0.0
H248 H 1.00139 0.15815 0.06364 0.0
H249 H 0.01472 0.87811 0.11052 0.0
H250 H 0.12211 0.10732 0.10728 0.0
H251 H 0.88687 0.93057 0.0734 0.0
H252 H 0.05625 0.96128 0.10755 0.0
H253 H 0.96022 0.0744 0.06524 0.0
C254 C 0.01925 0.12942 0.07355 0.0
C255 C 0.06524 0.1398 0.08537 0.0
C256 C 0.01912 0.95463 0.10003 0.0
C257 C 0.01843 0.04394 0.08722 0.0
C258 C 0.9954 0.90708 0.10168 0.0
C259 C 0.94718 0.89735 0.09224 0.0
C260 C 0.99454 0.99281 0.08881 0.0
C261 C 0.92401 0.9364 0.08098 0.0
C262 C 0.99571 0.08163 0.07446 0.0
C263 C 0.08665 0.1011 0.09793 0.0
N264 N 0.9479 0.98243 0.07959 0.0
N265 N 0.06309 0.05494 0.09849 0.0
H266 H 0.14107 0.45428 0.32255 0.0
H267 H 0.92684 0.57517 0.39759 0.0
H268 H 0.14583 0.48019 0.40199 0.0
H269 H 0.92558 0.55723 0.31752 0.0
H270 H 0.00623 0.53872 0.39961 0.0
H271 H 0.06179 0.49111 0.32032 0.0
C272 C 0.12557 0.46792 0.33952 0.0
C273 C 0.15015 0.46413 0.36251 0.0
C274 C 0.9886 0.5427 0.38159 0.0
C275 C 0.0592 0.50606 0.36009 0.0
C276 C 0.94316 0.5634 0.38042 0.0
C277 C 0.91951 0.56932 0.35733 0.0
C278 C 0.01064 0.5277 0.35952 0.0
C279 C 0.94247 0.5534 0.33572 0.0
C280 C 0.08024 0.48887 0.33823 0.0
C281 C 0.12825 0.48239 0.38387 0.0
N282 N 0.98679 0.53336 0.33734 0.0
N283 N 0.08397 0.50243 0.38215 0.0
H284 H 0.45128 0.36004 0.5738 0.0
H285 H 0.46155 0.65294 0.59198 0.0
H286 H 0.32149 0.43978 0.58461 0.0
H287 H 0.59138 0.57243 0.58299 0.0
H288 H 0.40922 0.57608 0.58632 0.0
H289 H 0.50277 0.43833 0.57409 0.0
C290 C 0.43355 0.39402 0.5761 0.0
C291 C 0.382 0.39331 0.57935 0.0
C292 C 0.44915 0.57527 0.58547 0.0
C293 C 0.44078 0.48311 0.57977 0.0
C294 C 0.47907 0.61916 0.58869 0.0
C295 C 0.53095 0.61907 0.58812 0.0
C296 C 0.47125 0.53093 0.58168 0.0
C297 C 0.55156 0.57422 0.5837 0.0
C298 C 0.463 0.43874 0.57627 0.0
C299 C 0.36109 0.43853 0.58215 0.0
N300 N 0.52166 0.53194 0.58077 0.0
N301 N 0.39058 0.48156 0.58243 0.0
H302 H 0.60521 0.94805 0.92422 0.0
H303 H 0.37863 0.02385 0.83934 0.0
H304 H 0.59255 0.92055 0.84508 0.0
H305 H 0.38172 0.03759 0.91964 0.0
H306 H 0.45812 0.98764 0.84118 0.0
H307 H 0.52499 0.98374 0.92295 0.0
C308 C 0.58573 0.94972 0.90656 0.0
C309 C 0.60565 0.93124 0.88473 0.0
C310 C 0.44138 0.99838 0.85843 0.0
C311 C 0.51383 0.97181 0.88317 0.0
C312 C 0.3959 0.01903 0.8574 0.0
C313 C 0.37343 0.0338 0.87937 0.0
C314 C 0.46487 0.99263 0.88159 0.0
C315 C 0.39761 0.02662 0.90222 0.0
C316 C 0.53984 0.96991 0.90587 0.0
C317 C 0.57865 0.93424 0.8624 0.0
N318 N 0.44214 0.00672 0.90273 0.0
N319 N 0.53421 0.9541 0.86221 0.0
H320 H 0.90332 0.54999 0.11668 0.0
H321 H 0.17671 0.46151 0.10198 0.0
H322 H 0.03472 0.65029 0.10726 0.0
H323 H 0.0444 0.3613 0.10755 0.0
H324 H 0.1257 0.53111 0.10566 0.0
H325 H 0.95483 0.48045 0.11516 0.0
C326 C 0.94303 0.55743 0.11434 0.0
C327 C 0.96473 0.60607 0.11202 0.0
C328 C 0.10781 0.49391 0.10612 0.0
C329 C 0.02395 0.52652 0.11025 0.0
C330 C 0.13693 0.45411 0.10403 0.0
C331 C 0.11477 0.40548 0.10439 0.0
C332 C 0.05613 0.48507 0.1086 0.0
C333 C 0.06305 0.39816 0.10713 0.0
C334 C 0.97243 0.51766 0.11346 0.0
C335 C 0.01639 0.61342 0.10906 0.0
N336 N 0.03549 0.43754 0.1091 0.0
N337 N 0.04423 0.57406 0.10822 0.0
H338 H 0.3839 0.49747 0.37559 0.0
H339 H 0.68002 0.5201 0.36548 0.0
H340 H 0.46914 0.3764 0.35544 0.0
H341 H 0.59636 0.63537 0.3945 0.0
H342 H 0.60304 0.46693 0.36166 0.0
H343 H 0.46123 0.54861 0.38274 0.0
C344 C 0.41886 0.48156 0.37277 0.0
C345 C 0.42004 0.43262 0.3648 0.0
C346 C 0.60153 0.50378 0.36896 0.0
C347 C 0.50869 0.49103 0.37285 0.0
C348 C 0.64549 0.53421 0.37111 0.0
C349 C 0.64464 0.58234 0.38025 0.0
C350 C 0.5563 0.52166 0.37586 0.0
C351 C 0.59879 0.59855 0.38733 0.0
C352 C 0.46301 0.51078 0.37687 0.0
C353 C 0.46643 0.41394 0.36152 0.0
N354 N 0.55643 0.56836 0.38488 0.0
N355 N 0.50887 0.44325 0.36543 0.0
H356 H 0.45054 0.12738 0.63359 0.0
H357 H 0.47974 0.88472 0.55317 0.0
H358 H 0.38894 0.10538 0.55966 0.0
H359 H 0.53679 0.90543 0.62806 0.0
H360 H 0.44776 0.96624 0.55472 0.0
H361 H 0.48495 0.04725 0.63123 0.0
C362 C 0.44446 0.10583 0.6168 0.0
C363 C 0.41669 0.12307 0.59682 0.0
C364 C 0.46724 0.9529 0.57081 0.0
C365 C 0.45577 0.03113 0.59405 0.0
C366 C 0.48541 0.90631 0.56996 0.0
C367 C 0.51091 0.88817 0.59053 0.0
C368 C 0.47466 0.98157 0.59238 0.0
C369 C 0.51729 0.91785 0.61177 0.0
C370 C 0.46403 0.06 0.61549 0.0
C371 C 0.41005 0.09354 0.57554 0.0
N372 N 0.49933 0.96306 0.61213 0.0
N373 N 0.42932 0.04895 0.57474 0.0
H374 H 0.86239 0.9189 0.83152 0.0
H375 H 0.11418 0.04653 0.88897 0.0
H376 H 0.88545 0.94217 0.91049 0.0
H377 H 0.09766 0.00425 0.81171 0.0
H378 H 0.02918 0.01222 0.89693 0.0
H379 H 0.94678 0.95485 0.82357 0.0
C380 C 0.88506 0.93185 0.8472 0.0
C381 C 0.86678 0.92743 0.87174 0.0
C382 C 0.04418 0.01033 0.87825 0.0
C383 C 0.96366 0.96844 0.86274 0.0
C384 C 0.09275 0.02989 0.87368 0.0
C385 C 0.11314 0.02823 0.84962 0.0
C386 C 0.01559 0.98918 0.85861 0.0
C387 C 0.08357 0.00623 0.83056 0.0
C388 C 0.93336 0.95218 0.84264 0.0
C389 C 0.89798 0.94476 0.89129 0.0
N390 N 0.03625 0.98771 0.83545 0.0
N391 N 0.9449 0.96445 0.88637 0.0
loop_
_geom_bond_atom_site_label_1
_geom_bond_atom_site_label_2
_geom_bond_distance
_geom_bond_site_symmetry_2
_ccdc_geom_bond_type
C0 O1 1.160 . S
C0 O7 1.185 . S
O1 C0 1.160 . S
O2 Zn3 1.899 . S
O2 C10 1.284 . S
Zn3 O2 1.899 . S
Zn3 O4 2.032 . S
Zn3 O7 2.086 . S
Zn3 O12 1.977 . S
O4 Zn3 2.032 . S
O4 C8 1.278 . S
C5 O6 1.203 . S
C5 O12 1.267 . S
O6 C5 1.203 . S
O7 C0 1.185 . S
O7 Zn3 2.086 . S
C8 O4 1.278 . S
C8 O9 1.211 . S
O9 C8 1.211 . S
C10 O2 1.284 . S
C10 O11 1.273 . S
O11 C10 1.273 . S
O12 Zn3 1.977 . S
O12 C5 1.267 . S
C13 O14 1.160 . S
C13 O20 1.185 . S
O14 C13 1.160 . S
O15 Zn16 1.899 . S
O15 C23 1.284 . S
Zn16 O15 1.899 . S
Zn16 O17 2.032 . S
Zn16 O20 2.086 . S
Zn16 O25 1.977 . S
O17 Zn16 2.032 . S
O17 C21 1.278 . S
C18 O19 1.203 . S
C18 O25 1.267 . S
O19 C18 1.203 . S
O20 C13 1.185 . S
O20 Zn16 2.086 . S
C21 O17 1.278 . S
C21 O22 1.211 . S
O22 C21 1.211 . S
C23 O15 1.284 . S
C23 O24 1.273 . S
O24 C23 1.273 . S
O25 Zn16 1.977 . S
O25 C18 1.267 . S
C26 O27 1.160 . S
C26 O33 1.185 . S
O27 C26 1.160 . S
O28 Zn29 1.899 . S
O28 C36 1.284 . S
Zn29 O28 1.899 . S
Zn29 O30 2.032 . S
Zn29 O33 2.086 . S
Zn29 O38 1.977 . S
O30 Zn29 2.032 . S
O30 C34 1.278 . S
C31 O32 1.203 . S
C31 O38 1.267 . S
O32 C31 1.203 . S
O33 C26 1.185 . S
O33 Zn29 2.086 . S
C34 O30 1.278 . S
C34 O35 1.211 . S
O35 C34 1.211 . S
C36 O28 1.284 . S
C36 O37 1.273 . S
O37 C36 1.273 . S
O38 Zn29 1.977 . S
O38 C31 1.267 . S
C39 O40 1.160 . S
C39 O46 1.185 . S
O40 C39 1.160 . S
O41 Zn42 1.899 . S
O41 C49 1.284 . S
Zn42 O41 1.899 . S
Zn42 O43 2.032 . S
Zn42 O46 2.086 . S
Zn42 O51 1.977 . S
O43 Zn42 2.032 . S
O43 C47 1.278 . S
C44 O45 1.203 . S
C44 O51 1.267 . S
O45 C44 1.203 . S
O46 C39 1.185 . S
O46 Zn42 2.086 . S
C47 O43 1.278 . S
C47 O48 1.211 . S
O48 C47 1.211 . S
C49 O41 1.284 . S
C49 O50 1.273 . S
O50 C49 1.273 . S
O51 Zn42 1.977 . S
O51 C44 1.267 . S
C52 O53 1.160 . S
C52 O59 1.185 . S
O53 C52 1.160 . S
O54 Zn55 1.899 . S
O54 C62 1.284 . S
Zn55 O54 1.899 . S
Zn55 O56 2.032 . S
Zn55 O59 2.086 . S
Zn55 O64 1.977 . S
O56 Zn55 2.032 . S
O56 C60 1.278 . S
C57 O58 1.203 . S
C57 O64 1.267 . S
O58 C57 1.203 . S
O59 C52 1.185 . S
O59 Zn55 2.086 . S
C60 O56 1.278 . S
C60 O61 1.211 . S
O61 C60 1.211 . S
C62 O54 1.284 . S
C62 O63 1.273 . S
O63 C62 1.273 . S
O64 Zn55 1.977 . S
O64 C57 1.267 . S
C65 O66 1.160 . S
C65 O72 1.185 . S
O66 C65 1.160 . S
O67 Zn68 1.899 . S
O67 C75 1.284 . S
Zn68 O67 1.899 . S
Zn68 O69 2.032 . S
Zn68 O72 2.086 . S
Zn68 O77 1.977 . S
O69 Zn68 2.032 . S
O69 C73 1.278 . S
C70 O71 1.203 . S
C70 O77 1.267 . S
O71 C70 1.203 . S
O72 C65 1.185 . S
O72 Zn68 2.086 . S
C73 O69 1.278 . S
C73 O74 1.211 . S
O74 C73 1.211 . S
C75 O67 1.284 . S
C75 O76 1.273 . S
O76 C75 1.273 . S
O77 Zn68 1.977 . S
O77 C70 1.267 . S
C78 O79 1.160 . S
C78 O85 1.185 . S
O79 C78 1.160 . S
O80 Zn81 1.899 . S
O80 C88 1.284 . S
Zn81 O80 1.899 . S
Zn81 O82 2.032 . S
Zn81 O85 2.086 . S
Zn81 O90 1.977 . S
O82 Zn81 2.032 . S
O82 C86 1.278 . S
C83 O84 1.203 . S
C83 O90 1.267 . S
O84 C83 1.203 . S
O85 C78 1.185 . S
O85 Zn81 2.086 . S
C86 O82 1.278 . S
C86 O87 1.211 . S
O87 C86 1.211 . S
C88 O80 1.284 . S
C88 O89 1.273 . S
O89 C88 1.273 . S
O90 Zn81 1.977 . S
O90 C83 1.267 . S
C91 O92 1.160 . S
C91 O98 1.185 . S
O92 C91 1.160 . S
O93 Zn94 1.899 . S
O93 C101 1.284 . S
Zn94 O93 1.899 . S
Zn94 O95 2.032 . S
Zn94 O98 2.086 . S
Zn94 O103 1.977 . S
O95 Zn94 2.032 . S
O95 C99 1.278 . S
C96 O97 1.203 . S
C96 O103 1.267 . S
O97 C96 1.203 . S
O98 C91 1.185 . S
O98 Zn94 2.086 . S
C99 O95 1.278 . S
C99 O100 1.211 . S
O100 C99 1.211 . S
C101 O93 1.284 . S
C101 O102 1.273 . S
O102 C101 1.273 . S
O103 Zn94 1.977 . S
O103 C96 1.267 . S
H104 C110 0.930 . S
H105 C114 0.930 . S
H106 C119 0.929 . S
H107 C117 0.929 . S
H108 C112 0.929 . S
H109 C118 0.929 . S
C110 H104 0.930 . S
C110 C111 1.367 . S
C110 C118 1.378 . S
C111 C110 1.367 . S
C111 C119 1.433 . S
C112 H108 0.929 . S
C112 C114 1.378 . S
C112 C116 1.350 . S
C113 C116 1.463 1_554 S
C113 C118 1.350 . S
C113 N121 1.427 . S
C114 H105 0.930 . S
C114 C112 1.378 . S
C114 C115 1.367 . S
C115 C114 1.367 . S
C115 C117 1.433 . S
C116 C112 1.350 . S
C116 C113 1.463 1_556 S
C116 N120 1.427 . S
C117 H107 0.929 . S
C117 C115 1.433 . S
C117 N120 1.384 . S
C118 H109 0.929 . S
C118 C110 1.378 . S
C118 C113 1.350 . S
C119 H106 0.929 . S
C119 C111 1.433 . S
C119 N121 1.384 . S
N120 C116 1.427 . S
N120 C117 1.384 . S
N121 C113 1.427 . S
N121 C119 1.384 . S
H122 C128 0.930 . S
H123 C132 0.930 . S
H124 C137 0.929 . S
H125 C135 0.929 . S
H126 C130 0.929 . S
H127 C136 0.929 . S
C128 H122 0.930 . S
C128 C129 1.367 . S
C128 C136 1.378 . S
C129 C128 1.367 . S
C129 C137 1.433 . S
C130 H126 0.929 . S
C130 C132 1.378 . S
C130 C134 1.350 . S
C131 C134 1.463 . S
C131 C136 1.350 . S
C131 N139 1.427 . S
C132 H123 0.930 . S
C132 C130 1.378 . S
C132 C133 1.367 . S
C133 C132 1.367 . S
C133 C135 1.433 . S
C134 C130 1.350 . S
C134 C131 1.463 . S
C134 N138 1.427 . S
C135 H125 0.929 . S
C135 C133 1.433 . S
C135 N138 1.384 . S
C136 H127 0.929 . S
C136 C128 1.378 . S
C136 C131 1.350 . S
C137 H124 0.929 . S
C137 C129 1.433 . S
C137 N139 1.384 . S
N138 C134 1.427 . S
N138 C135 1.384 . S
N139 C131 1.427 . S
N139 C137 1.384 . S
H140 C146 0.930 . S
H141 C150 0.930 . S
H142 C155 0.929 . S
H143 C153 0.929 . S
H144 C148 0.929 . S
H145 C154 0.929 . S
C146 H140 0.930 . S
C146 C147 1.367 . S
C146 C154 1.378 . S
C147 C146 1.367 . S
C147 C155 1.433 . S
C148 H144 0.929 . S
C148 C150 1.378 . S
C148 C152 1.350 . S
C149 C152 1.463 . S
C149 C154 1.350 . S
C149 N157 1.427 . S
C150 H141 0.930 . S
C150 C148 1.378 . S
C150 C151 1.367 . S
C151 C150 1.367 . S
C151 C153 1.433 . S
C152 C148 1.350 . S
C152 C149 1.463 . S
C152 N156 1.427 . S
C153 H143 0.929 . S
C153 C151 1.433 . S
C153 N156 1.384 . S
C154 H145 0.929 . S
C154 C146 1.378 . S
C154 C149 1.350 . S
C155 H142 0.929 . S
C155 C147 1.433 . S
C155 N157 1.384 . S
N156 C152 1.427 . S
N156 C153 1.384 . S
N157 C149 1.427 . S
N157 C155 1.384 . S
H158 C164 0.930 . S
H159 C168 0.930 . S
H160 C173 0.929 . S
H161 C171 0.929 . S
H162 C166 0.929 . S
H163 C172 0.929 . S
C164 H158 0.930 . S
C164 C165 1.367 . S
C164 C172 1.378 . S
C165 C164 1.367 . S
C165 C173 1.433 . S
C166 H162 0.929 . S
C166 C168 1.378 . S
C166 C170 1.350 . S
C167 C170 1.463 . S
C167 C172 1.350 . S
C167 N175 1.427 . S
C168 H159 0.930 . S
C168 C166 1.378 . S
C168 C169 1.367 . S
C169 C168 1.367 . S
C169 C171 1.433 . S
C170 C166 1.350 . S
C170 C167 1.463 . S
C170 N174 1.427 . S
C171 H161 0.929 . S
C171 C169 1.433 . S
C171 N174 1.384 . S
C172 H163 0.929 . S
C172 C164 1.378 . S
C172 C167 1.350 . S
C173 H160 0.929 . S
C173 C165 1.433 . S
C173 N175 1.384 . S
N174 C170 1.427 . S
N174 C171 1.384 . S
N175 C167 1.427 . S
N175 C173 1.384 . S
H176 C182 0.930 . S
H177 C186 0.930 . S
H178 C191 0.929 . S
H179 C189 0.929 . S
H180 C184 0.929 . S
H181 C190 0.929 . S
C182 H176 0.930 . S
C182 C183 1.367 . S
C182 C190 1.378 . S
C183 C182 1.367 . S
C183 C191 1.433 . S
C184 H180 0.929 . S
C184 C186 1.378 . S
C184 C188 1.350 . S
C185 C188 1.463 . S
C185 C190 1.350 . S
C185 N193 1.427 . S
C186 H177 0.930 . S
C186 C184 1.378 . S
C186 C187 1.367 . S
C187 C186 1.367 . S
C187 C189 1.433 . S
C188 C184 1.350 . S
C188 C185 1.463 . S
C188 N192 1.427 . S
C189 H179 0.929 . S
C189 C187 1.433 . S
C189 N192 1.384 . S
C190 H181 0.929 . S
C190 C182 1.378 . S
C190 C185 1.350 . S
C191 H178 0.929 . S
C191 C183 1.433 . S
C191 N193 1.384 . S
N192 C188 1.427 . S
N192 C189 1.384 . S
N193 C185 1.427 . S
N193 C191 1.384 . S
H194 C200 0.930 . S
H195 C204 0.930 . S
H196 C209 0.929 . S
H197 C207 0.929 . S
H198 C202 0.929 . S
H199 C208 0.929 . S
C200 H194 0.930 . S
C200 C201 1.367 . S
C200 C208 1.378 . S
C201 C200 1.367 . S
C201 C209 1.433 . S
C202 H198 0.929 . S
C202 C204 1.378 . S
C202 C206 1.350 . S
C203 C206 1.463 . S
C203 C208 1.350 . S
C203 N211 1.427 . S
C204 H195 0.930 . S
C204 C202 1.378 . S
C204 C205 1.367 . S
C205 C204 1.367 . S
C205 C207 1.433 . S
C206 C202 1.350 . S
C206 C203 1.463 . S
C206 N210 1.427 . S
C207 H197 0.929 . S
C207 C205 1.433 . S
C207 N210 1.384 . S
C208 H199 0.929 . S
C208 C200 1.378 . S
C208 C203 1.350 . S
C209 H196 0.929 . S
C209 C201 1.433 . S
C209 N211 1.384 . S
N210 C206 1.427 . S
N210 C207 1.384 . S
N211 C203 1.427 . S
N211 C209 1.384 . S
H212 C218 0.930 . S
H213 C222 0.930 . S
H214 C227 0.929 . S
H215 C225 0.929 . S
H216 C220 0.929 . S
H217 C226 0.929 . S
C218 H212 0.930 . S
C218 C219 1.367 . S
C218 C226 1.378 . S
C219 C218 1.367 . S
C219 C227 1.433 . S
C220 H216 0.929 . S
C220 C222 1.378 . S
C220 C224 1.350 . S
C221 C224 1.463 . S
C221 C226 1.350 . S
C221 N229 1.427 . S
C222 H213 0.930 . S
C222 C220 1.378 . S
C222 C223 1.367 . S
C223 C222 1.367 . S
C223 C225 1.433 . S
C224 C220 1.350 . S
C224 C221 1.463 . S
C224 N228 1.427 . S
C225 H215 0.929 . S
C225 C223 1.433 . S
C225 N228 1.384 . S
C226 H217 0.929 . S
C226 C218 1.378 . S
C226 C221 1.350 . S
C227 H214 0.929 . S
C227 C219 1.433 . S
C227 N229 1.384 . S
N228 C224 1.427 . S
N228 C225 1.384 . S
N229 C221 1.427 . S
N229 C227 1.384 . S
H230 C236 0.930 . S
H231 C240 0.930 . S
H232 C245 0.929 . S
H233 C243 0.929 . S
H234 C238 0.929 . S
H235 C244 0.929 . S
C236 H230 0.930 . S
C236 C237 1.367 . S
C236 C244 1.378 . S
C237 C236 1.367 . S
C237 C245 1.433 . S
C238 H234 0.929 . S
C238 C240 1.378 . S
C238 C242 1.350 . S
C239 C242 1.463 1_554 S
C239 C244 1.350 . S
C239 N247 1.427 . S
C240 H231 0.930 . S
C240 C238 1.378 . S
C240 C241 1.367 . S
C241 C240 1.367 . S
C241 C243 1.433 . S
C242 C238 1.350 . S
C242 C239 1.463 1_556 S
C242 N246 1.427 . S
C243 H233 0.929 . S
C243 C241 1.433 . S
C243 N246 1.384 . S
C244 H235 0.929 . S
C244 C236 1.378 . S
C244 C239 1.350 . S
C245 H232 0.929 . S
C245 C237 1.433 . S
C245 N247 1.384 . S
N246 C242 1.427 . S
N246 C243 1.384 . S
N247 C239 1.427 . S
N247 C245 1.384 . S
H248 C254 0.930 . S
H249 C258 0.930 . S
H250 C263 0.929 . S
H251 C261 0.929 . S
H252 C256 0.929 . S
H253 C262 0.929 . S
C254 H248 0.930 . S
C254 C255 1.367 . S
C254 C262 1.378 . S
C255 C254 1.367 . S
C255 C263 1.433 . S
C256 H252 0.929 . S
C256 C258 1.378 . S
C256 C260 1.350 . S
C257 C260 1.463 1_445 S
C257 C262 1.350 . S
C257 N265 1.427 . S
C258 H249 0.930 . S
C258 C256 1.378 . S
C258 C259 1.367 . S
C259 C258 1.367 . S
C259 C261 1.433 . S
C260 C256 1.350 . S
C260 C257 1.463 1_665 S
C260 N264 1.427 . S
C261 H251 0.929 . S
C261 C259 1.433 . S
C261 N264 1.384 . S
C262 H253 0.929 . S
C262 C254 1.378 . S
C262 C257 1.350 . S
C263 H250 0.929 . S
C263 C255 1.433 . S
C263 N265 1.384 . S
N264 C260 1.427 . S
N264 C261 1.384 . S
N265 C257 1.427 . S
N265 C263 1.384 . S
H266 C272 0.930 . S
H267 C276 0.930 . S
H268 C281 0.929 . S
H269 C279 0.929 . S
H270 C274 0.929 . S
H271 C280 0.929 . S
C272 H266 0.930 . S
C272 C273 1.367 . S
C272 C280 1.378 . S
C273 C272 1.367 . S
C273 C281 1.433 . S
C274 H270 0.929 . S
C274 C276 1.378 . S
C274 C278 1.350 . S
C275 C278 1.463 1_455 S
C275 C280 1.350 . S
C275 N283 1.427 . S
C276 H267 0.930 . S
C276 C274 1.378 . S
C276 C277 1.367 . S
C277 C276 1.367 . S
C277 C279 1.433 . S
C278 C274 1.350 . S
C278 C275 1.463 1_655 S
C278 N282 1.427 . S
C279 H269 0.929 . S
C279 C277 1.433 . S
C279 N282 1.384 . S
C280 H271 0.929 . S
C280 C272 1.378 . S
C280 C275 1.350 . S
C281 H268 0.929 . S
C281 C273 1.433 . S
C281 N283 1.384 . S
N282 C278 1.427 . S
N282 C279 1.384 . S
N283 C275 1.427 . S
N283 C281 1.384 . S
H284 C290 0.930 . S
H285 C294 0.930 . S
H286 C299 0.929 . S
H287 C297 0.929 . S
H288 C292 0.929 . S
H289 C298 0.929 . S
C290 H284 0.930 . S
C290 C291 1.367 . S
C290 C298 1.378 . S
C291 C290 1.367 . S
C291 C299 1.433 . S
C292 H288 0.929 . S
C292 C294 1.378 . S
C292 C296 1.350 . S
C293 C296 1.463 . S
C293 C298 1.350 . S
C293 N301 1.427 . S
C294 H285 0.930 . S
C294 C292 1.378 . S
C294 C295 1.367 . S
C295 C294 1.367 . S
C295 C297 1.433 . S
C296 C292 1.350 . S
C296 C293 1.463 . S
C296 N300 1.427 . S
C297 H287 0.929 . S
C297 C295 1.433 . S
C297 N300 1.384 . S
C298 H289 0.929 . S
C298 C290 1.378 . S
C298 C293 1.350 . S
C299 H286 0.929 . S
C299 C291 1.433 . S
C299 N301 1.384 . S
N300 C296 1.427 . S
N300 C297 1.384 . S
N301 C293 1.427 . S
N301 C299 1.384 . S
H302 C308 0.930 . S
H303 C312 0.930 . S
H304 C317 0.929 . S
H305 C315 0.929 . S
H306 C310 0.929 . S
H307 C316 0.929 . S
C308 H302 0.930 . S
C308 C309 1.367 . S
C308 C316 1.378 . S
C309 C308 1.367 . S
C309 C317 1.433 . S
C310 H306 0.929 . S
C310 C312 1.378 . S
C310 C314 1.350 . S
C311 C314 1.463 1_565 S
C311 C316 1.350 . S
C311 N319 1.427 . S
C312 H303 0.930 . S
C312 C310 1.378 . S
C312 C313 1.367 . S
C313 C312 1.367 . S
C313 C315 1.433 . S
C314 C310 1.350 . S
C314 C311 1.463 1_545 S
C314 N318 1.427 . S
C315 H305 0.929 . S
C315 C313 1.433 . S
C315 N318 1.384 . S
C316 H307 0.929 . S
C316 C308 1.378 . S
C316 C311 1.350 . S
C317 H304 0.929 . S
C317 C309 1.433 . S
C317 N319 1.384 . S
N318 C314 1.427 . S
N318 C315 1.384 . S
N319 C311 1.427 . S
N319 C317 1.384 . S
H320 C326 0.930 . S
H321 C330 0.930 . S
H322 C335 0.929 . S
H323 C333 0.929 . S
H324 C328 0.929 . S
H325 C334 0.929 . S
C326 H320 0.930 . S
C326 C327 1.367 . S
C326 C334 1.378 . S
C327 C326 1.367 . S
C327 C335 1.433 . S
C328 H324 0.929 . S
C328 C330 1.378 . S
C328 C332 1.350 . S
C329 C332 1.463 1_655 S
C329 C334 1.350 . S
C329 N337 1.427 1_655 S
C330 H321 0.930 . S
C330 C328 1.378 . S
C330 C331 1.367 . S
C331 C330 1.367 . S
C331 C333 1.433 . S
C332 C328 1.350 . S
C332 C329 1.463 1_455 S
C332 N336 1.427 1_455 S
C333 H323 0.929 . S
C333 C331 1.433 . S
C333 N336 1.384 1_455 S
C334 H325 0.929 . S
C334 C326 1.378 . S
C334 C329 1.350 . S
C335 H322 0.929 . S
C335 C327 1.433 . S
C335 N337 1.384 1_655 S
N336 C332 1.427 1_655 S
N336 C333 1.384 1_655 S
N337 C329 1.427 1_455 S
N337 C335 1.384 1_455 S
H338 C344 0.930 . S
H339 C348 0.930 . S
H340 C353 0.929 . S
H341 C351 0.929 . S
H342 C346 0.929 . S
H343 C352 0.929 . S
C344 H338 0.930 . S
C344 C345 1.367 . S
C344 C352 1.378 . S
C345 C344 1.367 . S
C345 C353 1.433 . S
C346 H342 0.929 . S
C346 C348 1.378 . S
C346 C350 1.350 . S
C347 C350 1.463 . S
C347 C352 1.350 . S
C347 N355 1.427 . S
C348 H339 0.930 . S
C348 C346 1.378 . S
C348 C349 1.367 . S
C349 C348 1.367 . S
C349 C351 1.433 . S
C350 C346 1.350 . S
C350 C347 1.463 . S
C350 N354 1.427 . S
C351 H341 0.929 . S
C351 C349 1.433 . S
C351 N354 1.384 . S
C352 H343 0.929 . S
C352 C344 1.378 . S
C352 C347 1.350 . S
C353 H340 0.929 . S
C353 C345 1.433 . S
C353 N355 1.384 . S
N354 C350 1.427 . S
N354 C351 1.384 . S
N355 C347 1.427 . S
N355 C353 1.384 . S
H356 C362 0.930 . S
H357 C366 0.930 . S
H358 C371 0.929 . S
H359 C369 0.929 . S
H360 C364 0.929 . S
H361 C370 0.929 . S
C362 H356 0.930 . S
C362 C363 1.367 . S
C362 C370 1.378 . S
C363 C362 1.367 . S
C363 C371 1.433 . S
C364 H360 0.929 . S
C364 C366 1.378 . S
C364 C368 1.350 . S
C365 C368 1.463 1_545 S
C365 C370 1.350 . S
C365 N373 1.427 . S
C366 H357 0.930 . S
C366 C364 1.378 . S
C366 C367 1.367 . S
C367 C366 1.367 . S
C367 C369 1.433 . S
C368 C364 1.350 . S
C368 C365 1.463 1_565 S
C368 N372 1.427 . S
C369 H359 0.929 . S
C369 C367 1.433 . S
C369 N372 1.384 . S
C370 H361 0.929 . S
C370 C362 1.378 . S
C370 C365 1.350 . S
C371 H358 0.929 . S
C371 C363 1.433 . S
C371 N373 1.384 . S
N372 C368 1.427 . S
N372 C369 1.384 . S
N373 C365 1.427 . S
N373 C371 1.384 . S
H374 C380 0.930 . S
H375 C384 0.930 . S
H376 C389 0.929 . S
H377 C387 0.929 . S
H378 C382 0.929 . S
H379 C388 0.929 . S
C380 H374 0.930 . S
C380 C381 1.367 . S
C380 C388 1.378 1_565 S
C381 C380 1.367 . S
C381 C389 1.433 . S
C382 H378 0.929 . S
C382 C384 1.378 1_565 S
C382 C386 1.350 1_565 S
C383 C386 1.463 1_665 S
C383 C388 1.350 1_565 S
C383 N391 1.427 . S
C384 H375 0.930 . S
C384 C382 1.378 1_545 S
C384 C385 1.367 . S
C385 C384 1.367 . S
C385 C387 1.433 . S
C386 C382 1.350 1_545 S
C386 C383 1.463 1_445 S
C386 N390 1.427 . S
C387 H377 0.929 . S
C387 C385 1.433 . S
C387 N390 1.384 . S
C388 H379 0.929 . S
C388 C380 1.378 1_545 S
C388 C383 1.350 1_545 S
C389 H376 0.929 . S
C389 C381 1.433 . S
C389 N391 1.384 . S
N390 C386 1.427 . S
N390 C387 1.384 . S
N391 C383 1.427 . S
N391 C389 1.384 . S
C111 C10 1.067 . S
C115 C75 1.061 . S
C129 C21 1.027 . S
C133 C86 1.030 . S
C147 C36 1.062 . S
C151 C101 1.069 . S
C165 C47 1.028 . S
C169 C60 1.031 . S
C183 C99 1.006 . S
C187 C8 1.009 . S
C201 C62 1.067 . S
C205 C23 1.060 . S
C219 C34 1.023 . S
C223 C73 1.019 . S
C237 C88 1.060 . S
C241 C49 1.064 . S
C255 C5 1.501 . S
C259 C83 1.507 . S
C273 C91 1.527 . S
C277 C13 1.524 . S
C291 C31 1.504 . S
C295 C57 1.509 . S
C309 C39 1.519 . S
C313 C65 1.527 . S
C327 C78 1.523 . S
C331 C0 1.519 . S
C345 C96 1.510 . S
C349 C18 1.505 . S
C363 C26 1.526 . S
C367 C52 1.519 . S
C381 C44 1.511 . S
C385 C70 1.507 . S
