# Generated by pormake.
# Topology vda, (6)-cn, num edge types: 1
# Building blocks:
#     Node 0, Type 0, BuildingBlock: MIDCAF_clean_sbu_0, # of connection points: 6
#     Node 1, Type 0, BuildingBlock: MIDCAF_clean_sbu_0, # of connection points: 6
#     Node 2, Type 0, BuildingBlock: MIDCAF_clean_sbu_0, # of connection points: 6
#     Node 3, Type 0, BuildingBlock: MIDCAF_clean_sbu_0, # of connection points: 6
#     Node 4, Type 0, BuildingBlock: MIDCAF_clean_sbu_0, # of connection points: 6
#     Node 5, Type 0, BuildingBlock: MIDCAF_clean_sbu_0, # of connection points: 6
#     Node 6, Type 0, BuildingBlock: MIDCAF_clean_sbu_0, # of connection points: 6
#     Node 7, Type 0, BuildingBlock: MIDCAF_clean_sbu_0, # of connection points: 6
#     Node 8, Type 0, BuildingBlock: MIDCAF_clean_sbu_0, # of connection points: 6
#     Node 9, Type 0, BuildingBlock: MIDCAF_clean_sbu_0, # of connection points: 6
#     Node 10, Type 0, BuildingBlock: MIDCAF_clean_sbu_0, # of connection points: 6
#     Node 11, Type 0, BuildingBlock: MIDCAF_clean_sbu_0, # of connection points: 6
#     Node 12, Type 0, BuildingBlock: MIDCAF_clean_sbu_0, # of connection points: 6
#     Node 13, Type 0, BuildingBlock: MIDCAF_clean_sbu_0, # of connection points: 6
#     Node 14, Type 0, BuildingBlock: MIDCAF_clean_sbu_0, # of connection points: 6
#     Node 15, Type 0, BuildingBlock: MIDCAF_clean_sbu_0, # of connection points: 6
#     Node 16, Type 0, BuildingBlock: MIDCAF_clean_sbu_0, # of connection points: 6
#     Node 17, Type 0, BuildingBlock: MIDCAF_clean_sbu_0, # of connection points: 6
#     Node 18, Type 0, BuildingBlock: MIDCAF_clean_sbu_0, # of connection points: 6
#     Node 19, Type 0, BuildingBlock: MIDCAF_clean_sbu_0, # of connection points: 6
#     Node 20, Type 0, BuildingBlock: MIDCAF_clean_sbu_0, # of connection points: 6
#     Node 21, Type 0, BuildingBlock: MIDCAF_clean_sbu_0, # of connection points: 6
#     Node 22, Type 0, BuildingBlock: MIDCAF_clean_sbu_0, # of connection points: 6
#     Node 23, Type 0, BuildingBlock: MIDCAF_clean_sbu_0, # of connection points: 6
#     Node 24, Type 0, BuildingBlock: MIDCAF_clean_sbu_0, # of connection points: 6
#     Node 25, Type 0, BuildingBlock: MIDCAF_clean_sbu_0, # of connection points: 6
#     Node 26, Type 0, BuildingBlock: MIDCAF_clean_sbu_0, # of connection points: 6
#     Node 27, Type 0, BuildingBlock: MIDCAF_clean_sbu_0, # of connection points: 6
#     Node 28, Type 0, BuildingBlock: MIDCAF_clean_sbu_0, # of connection points: 6
#     Node 29, Type 0, BuildingBlock: MIDCAF_clean_sbu_0, # of connection points: 6
#     Node 30, Type 0, BuildingBlock: MIDCAF_clean_sbu_0, # of connection points: 6
#     Node 31, Type 0, BuildingBlock: MIDCAF_clean_sbu_0, # of connection points: 6
#     Edge 32, Type (0, 0), None
#     Edge 33, Type (0, 0), None
#     Edge 34, Type (0, 0), None
#     Edge 35, Type (0, 0), None
#     Edge 36, Type (0, 0), None
#     Edge 37, Type (0, 0), None
#     Edge 38, Type (0, 0), None
#     Edge 39, Type (0, 0), None
#     Edge 40, Type (0, 0), None
#     Edge 41, Type (0, 0), None
#     Edge 42, Type (0, 0), None
#     Edge 43, Type (0, 0), None
#     Edge 44, Type (0, 0), None
#     Edge 45, Type (0, 0), None
#     Edge 46, Type (0, 0), None
#     Edge 47, Type (0, 0), None
#     Edge 48, Type (0, 0), None
#     Edge 49, Type (0, 0), None
#     Edge 50, Type (0, 0), None
#     Edge 51, Type (0, 0), None
#     Edge 52, Type (0, 0), None
#     Edge 53, Type (0, 0), None
#     Edge 54, Type (0, 0), None
#     Edge 55, Type (0, 0), None
#     Edge 56, Type (0, 0), None
#     Edge 57, Type (0, 0), None
#     Edge 58, Type (0, 0), None
#     Edge 59, Type (0, 0), None
#     Edge 60, Type (0, 0), None
#     Edge 61, Type (0, 0), None
#     Edge 62, Type (0, 0), None
#     Edge 63, Type (0, 0), None
#     Edge 64, Type (0, 0), None
#     Edge 65, Type (0, 0), None
#     Edge 66, Type (0, 0), None
#     Edge 67, Type (0, 0), None
#     Edge 68, Type (0, 0), None
#     Edge 69, Type (0, 0), None
#     Edge 70, Type (0, 0), None
#     Edge 71, Type (0, 0), None
#     Edge 72, Type (0, 0), None
#     Edge 73, Type (0, 0), None
#     Edge 74, Type (0, 0), None
#     Edge 75, Type (0, 0), None
#     Edge 76, Type (0, 0), None
#     Edge 77, Type (0, 0), None
#     Edge 78, Type (0, 0), None
#     Edge 79, Type (0, 0), None
#     Edge 80, Type (0, 0), None
#     Edge 81, Type (0, 0), None
#     Edge 82, Type (0, 0), None
#     Edge 83, Type (0, 0), None
#     Edge 84, Type (0, 0), None
#     Edge 85, Type (0, 0), None
#     Edge 86, Type (0, 0), None
#     Edge 87, Type (0, 0), None
#     Edge 88, Type (0, 0), None
#     Edge 89, Type (0, 0), None
#     Edge 90, Type (0, 0), None
#     Edge 91, Type (0, 0), None
#     Edge 92, Type (0, 0), None
#     Edge 93, Type (0, 0), None
#     Edge 94, Type (0, 0), None
#     Edge 95, Type (0, 0), None
#     Edge 96, Type (0, 0), None
#     Edge 97, Type (0, 0), None
#     Edge 98, Type (0, 0), None
#     Edge 99, Type (0, 0), None
#     Edge 100, Type (0, 0), None
#     Edge 101, Type (0, 0), None
#     Edge 102, Type (0, 0), None
#     Edge 103, Type (0, 0), None
#     Edge 104, Type (0, 0), None
#     Edge 105, Type (0, 0), None
#     Edge 106, Type (0, 0), None
#     Edge 107, Type (0, 0), None
#     Edge 108, Type (0, 0), None
#     Edge 109, Type (0, 0), None
#     Edge 110, Type (0, 0), None
#     Edge 111, Type (0, 0), None
#     Edge 112, Type (0, 0), None
#     Edge 113, Type (0, 0), None
#     Edge 114, Type (0, 0), None
#     Edge 115, Type (0, 0), None
#     Edge 116, Type (0, 0), None
#     Edge 117, Type (0, 0), None
#     Edge 118, Type (0, 0), None
#     Edge 119, Type (0, 0), None
#     Edge 120, Type (0, 0), None
#     Edge 121, Type (0, 0), None
#     Edge 122, Type (0, 0), None
#     Edge 123, Type (0, 0), None
#     Edge 124, Type (0, 0), None
#     Edge 125, Type (0, 0), None
#     Edge 126, Type (0, 0), None
#     Edge 127, Type (0, 0), None
# Relax obj value: 0.516
# Max RMSD: 0.252
# Mean RMSD: 0.252
data_MOF--net-vda--node1-MIDCAF_clean_sbu_0--edge1-none
_symmetry_space_group_name_H-M    P1
_symmetry_Int_Tables_number       1
_symmetry_cell_setting            triclinic
loop_
_symmetry_equiv_pos_as_xyz
'x, y, z'
_cell_length_a     22.806401
_cell_length_b     15.336119
_cell_length_c     28.45009
_cell_angle_alpha  90.030909
_cell_angle_beta   90.039494
_cell_angle_gamma 90.870951
loop_
_atom_site_label
_atom_site_type_symbol
_atom_site_fract_x
_atom_site_fract_y
_atom_site_fract_z
_atom_type_partial_charge
Zn0 Zn 0.26481 0.01761 0.11633 0.0
Zn1 Zn 0.4666 0.1758 0.99174 0.0
Zn2 Zn 0.35368 0.11551 0.01796 0.0
C3 C 0.41703 0.29955 0.99705 0.0
C4 C 0.3823 0.15292 0.91376 0.0
O5 O 0.36255 0.96045 0.01553 0.0
O6 O 0.31357 0.91783 0.08039 0.0
C7 C 0.37497 0.10769 0.11137 0.0
O8 O 0.37542 0.24619 0.98506 0.0
O9 O 0.44497 0.28127 0.03359 0.0
O10 O 0.43612 0.14055 0.92228 0.0
O11 O 0.34869 0.17286 0.9483 0.0
O12 O 0.34714 0.04325 0.09538 0.0
O13 O 0.3867 0.16703 0.08193 0.0
O14 O 0.26077 0.09503 0.02543 0.0
O15 O 0.19448 0.07441 0.07965 0.0
C16 C 0.20663 0.0847 0.03653 0.0
O17 O 0.41566 0.01661 0.00846 0.0
O18 O 0.50009 0.0844 0.02644 0.0
C19 C 0.34378 0.89846 0.04383 0.0
C20 C 0.4709 0.01661 0.01726 0.0
Zn21 Zn 0.74469 0.02942 0.99162 0.0
Zn22 Zn 0.94691 0.18755 0.11591 0.0
Zn23 Zn 0.85771 0.08998 0.01771 0.0
C24 C 0.00479 0.12062 0.03579 0.0
C25 C 0.83635 0.09828 0.11122 0.0
O26 O 0.79579 0.18878 0.00782 0.0
O27 O 0.71141 0.12124 0.02611 0.0
C28 C 0.82899 0.05202 0.91368 0.0
O29 O 0.95064 0.1104 0.02465 0.0
O30 O 0.017 0.13073 0.07893 0.0
O31 O 0.86415 0.16289 0.09541 0.0
O32 O 0.82485 0.03897 0.08166 0.0
O33 O 0.77517 0.06435 0.92214 0.0
O34 O 0.86261 0.03207 0.94823 0.0
O35 O 0.83587 0.95904 0.98502 0.0
O36 O 0.76656 0.92441 0.03374 0.0
C37 C 0.79428 0.90583 0.99716 0.0
O38 O 0.84881 0.24493 0.01518 0.0
O39 O 0.89791 0.2873 0.08008 0.0
C40 C 0.74054 0.18886 0.01653 0.0
C41 C 0.86764 0.30683 0.04355 0.0
Zn42 Zn 0.45464 0.04465 0.30113 0.0
Zn43 Zn 0.24632 0.20186 0.14454 0.0
Zn44 Zn 0.33535 0.09832 0.25586 0.0
C45 C 0.19847 0.11185 0.21668 0.0
C46 C 0.36588 0.12983 0.1602 0.0
O47 O 0.4128 0.17283 0.24084 0.0
O48 O 0.482 0.16031 0.29573 0.0
C49 C 0.35412 0.04878 0.36565 0.0
O50 O 0.2508 0.08331 0.22101 0.0
O51 O 0.18069 0.11728 0.17461 0.0
O52 O 0.32094 0.16976 0.17199 0.0
O53 O 0.3929 0.09278 0.19361 0.0
O54 O 0.40717 0.02786 0.36081 0.0
O55 O 0.32396 0.07395 0.33041 0.0
O56 O 0.37016 0.96646 0.27415 0.0
O57 O 0.45178 -0.01827 0.23599 0.0
C58 C 0.41796 0.93273 0.25875 0.0
O59 O 0.35535 0.247 0.25209 0.0
O60 O 0.30622 0.28928 0.18771 0.0
C61 C 0.4638 0.1905 0.2575 0.0
C62 C 0.34006 0.30819 0.22299 0.0
Zn63 Zn 0.96425 0.00341 0.14352 0.0
Zn64 Zn 0.75738 0.16174 0.30084 0.0
Zn65 Zn 0.87652 0.10706 0.25564 0.0
C66 C 0.79489 0.27308 0.25894 0.0
C67 C 0.8578 0.1562 0.36559 0.0
O68 O 0.85627 0.9583 0.25194 0.0
O69 O 0.90448 0.9163 0.18709 0.0
C70 C 0.84546 0.07572 0.15997 0.0
O71 O 0.84243 0.23909 0.2747 0.0
O72 O 0.76146 0.22437 0.2356 0.0
O73 O 0.80483 0.17751 0.36067 0.0
O74 O 0.888 0.13121 0.33033 0.0
O75 O 0.89012 0.03498 0.17162 0.0
O76 O 0.81877 0.11285 0.19349 0.0
O77 O 0.96068 0.12184 0.22016 0.0
O78 O 0.03041 0.08733 0.17353 0.0
C79 C 0.01303 0.09346 0.21566 0.0
O80 O 0.79887 0.03275 0.24079 0.0
O81 O 0.72962 0.04628 0.2955 0.0
C82 C 0.87108 0.89721 0.22258 0.0
C83 C 0.74787 0.01536 0.25746 0.0
Zn84 Zn 0.47283 0.76696 0.01531 0.0
Zn85 Zn 0.70371 0.95129 0.88275 0.0
Zn86 Zn 0.6099 0.8414 0.98219 0.0
C87 C 0.75664 0.8702 0.9591 0.0
C88 C 0.58804 0.8675 0.8885 0.0
O89 O 0.54796 0.93733 0.98874 0.0
O90 O 0.49041 0.88037 0.0434 0.0
C91 C 0.57293 0.79731 0.08843 0.0
O92 O 0.70181 0.8594 0.96745 0.0
O93 O 0.77173 0.88694 0.91728 0.0
O94 O 0.62402 0.92061 0.90588 0.0
O95 O 0.56866 0.81008 0.91674 0.0
O96 O 0.5183 0.80931 0.08066 0.0
O97 O 0.60765 0.78271 0.05347 0.0
O98 O 0.58773 0.71135 0.01497 0.0
O99 O 0.5168 0.69518 0.96581 0.0
C100 C 0.54391 0.66481 1.00053 0.0
O101 O 0.60166 -0.00553 0.98547 0.0
O102 O 0.6528 0.04409 0.92326 0.0
C103 C 0.5014 0.9382 0.01358 0.0
C104 C 0.62047 0.05911 0.95933 0.0
Zn105 Zn 0.23895 0.93857 0.01553 0.0
Zn106 Zn 0.00758 0.75468 0.88292 0.0
Zn107 Zn 0.10156 0.86412 0.98244 0.0
C108 C 0.95453 0.83508 0.95972 0.0
C109 C 0.12307 0.83873 0.88887 0.0
O110 O 0.16309 0.76779 0.9895 0.0
O111 O 0.22154 0.82513 0.04363 0.0
C112 C 0.13887 0.90831 0.08862 0.0
O113 O 0.00926 0.84582 0.96869 0.0
O114 O 0.93986 0.81867 0.91771 0.0
O115 O 0.08706 0.78571 0.9062 0.0
O116 O 0.1425 0.8961 0.91712 0.0
O117 O 0.19352 0.89645 0.08089 0.0
O118 O 0.10414 0.92299 0.05365 0.0
O119 O 0.12416 -0.00574 0.01521 0.0
O120 O 0.19505 0.01045 0.96602 0.0
C121 C 0.16796 0.04075 1.00076 0.0
O122 O 0.1098 0.71081 0.98524 0.0
O123 O 0.0583 0.66142 0.92307 0.0
C124 C 0.20981 0.76679 0.01422 0.0
C125 C 0.09078 0.64626 0.95905 0.0
Zn126 Zn 0.51356 0.89977 0.69839 0.0
Zn127 Zn 0.70372 0.76383 0.86007 0.0
Zn128 Zn 0.62424 0.85471 0.74488 0.0
C129 C 0.76333 0.83723 0.78755 0.0
C130 C 0.593 0.84738 0.83906 0.0
O131 O 0.54981 0.77193 0.7536 0.0
O132 O 0.48083 0.78735 0.69885 0.0
C133 C 0.61389 0.90929 0.6363 0.0
O134 O 0.70941 0.85391 0.77923 0.0
O135 O 0.7767 0.83416 0.83056 0.0
O136 O 0.62869 0.7902 0.82765 0.0
O137 O 0.57795 0.89997 0.8067 0.0
O138 O 0.56045 0.92811 0.64055 0.0
O139 O 0.6434 0.88308 0.67171 0.0
O140 O 0.58482 -0.01116 0.7361 0.0
O141 O 0.49409 0.97016 0.75769 0.0
C142 C 0.53399 0.0215 0.7446 0.0
O143 O 0.60643 0.70613 0.75021 0.0
O144 O 0.65061 0.66927 0.81779 0.0
C145 C 0.4993 0.75375 0.73607 0.0
C146 C 0.62069 0.64725 0.78094 0.0
Zn147 Zn 0.19826 0.80483 0.69858 0.0
Zn148 Zn 0.00769 0.94235 0.86014 0.0
Zn149 Zn 0.08716 0.85064 0.74508 0.0
C150 C 0.94859 0.868 0.78764 0.0
C151 C 0.11824 0.85878 0.83945 0.0
O152 O 0.16185 0.93311 0.754 0.0
O153 O 0.23091 0.91728 0.69941 0.0
C154 C 0.09772 0.79613 0.63639 0.0
O155 O 0.00245 0.85043 0.77977 0.0
O156 O 0.93487 0.87144 0.83056 0.0
O157 O 0.08288 0.91636 0.82797 0.0
O158 O 0.13303 0.80587 0.80716 0.0
O159 O 0.15123 0.77766 0.64061 0.0
O160 O 0.06813 0.8218 0.67186 0.0
O161 O 0.12571 0.71652 0.73488 0.0
O162 O 0.21575 0.73463 0.75842 0.0
C163 C 0.17625 0.68362 0.74414 0.0
O164 O 0.10516 -0.00078 0.75013 0.0
O165 O 0.06116 0.03641 0.8177 0.0
C166 C 0.21239 0.95115 0.73654 0.0
C167 C 0.09106 0.05825 0.78085 0.0
Zn168 Zn 0.26355 0.51675 0.61582 0.0
Zn169 Zn 0.466 0.67573 0.49143 0.0
Zn170 Zn 0.35296 0.61449 0.51781 0.0
C171 C 0.41632 0.79878 0.49749 0.0
C172 C 0.38102 0.65284 0.41377 0.0
O173 O 0.36218 0.45994 0.51521 0.0
O174 O 0.31291 0.41735 0.57994 0.0
C175 C 0.37482 0.60525 0.61132 0.0
O176 O 0.37469 0.74559 0.48535 0.0
O177 O 0.44416 0.78021 0.53403 0.0
O178 O 0.43492 0.64073 0.42207 0.0
O179 O 0.34758 0.67261 0.44843 0.0
O180 O 0.34631 0.54132 0.59545 0.0
O181 O 0.38643 0.66464 0.58186 0.0
O182 O 0.25987 0.59354 0.52431 0.0
O183 O 0.19354 0.57309 0.57857 0.0
C184 C 0.20572 0.58312 0.53544 0.0
O185 O 0.41517 0.51596 0.5077 0.0
O186 O 0.49958 0.58395 0.5256 0.0
C187 C 0.34339 0.39801 0.54351 0.0
C188 C 0.47052 0.51619 0.51611 0.0
Zn189 Zn 0.7456 0.52969 0.49153 0.0
Zn190 Zn 0.9477 0.68872 0.61626 0.0
Zn191 Zn 0.85848 0.59068 0.51806 0.0
C192 C 0.00558 0.62172 0.53611 0.0
C193 C 0.83661 0.60024 0.61171 0.0
O194 O 0.7963 0.68927 0.50788 0.0
O195 O 0.7119 0.62137 0.52574 0.0
C196 C 0.83048 0.55247 0.41389 0.0
O197 O 0.95144 0.61136 0.52496 0.0
O198 O 0.01776 0.63201 0.57924 0.0
O199 O 0.86475 0.66453 0.59592 0.0
O200 O 0.82536 0.54064 0.58222 0.0
O201 O 0.77661 0.56471 0.4222 0.0
O202 O 0.86394 0.53259 0.44856 0.0
O203 O 0.83688 0.4597 0.48539 0.0
O204 O 0.7675 0.42521 0.53405 0.0
C205 C 0.79526 0.40655 0.4975 0.0
O206 O 0.8493 0.74523 0.51536 0.0
O207 O 0.89842 0.78797 0.58021 0.0
C208 C 0.74096 0.6891 0.51626 0.0
C209 C 0.86805 0.80723 0.54368 0.0
Zn210 Zn 0.45398 0.54483 0.8014 0.0
Zn211 Zn 0.24893 0.70091 0.6425 0.0
Zn212 Zn 0.33505 0.59907 0.75552 0.0
C213 C 0.19787 0.61281 0.71425 0.0
C214 C 0.36651 0.62768 0.66019 0.0
O215 O 0.41254 0.67439 0.74195 0.0
O216 O 0.48151 0.66046 0.79699 0.0
C217 C 0.35269 0.54813 0.86518 0.0
O218 O 0.2507 0.58682 0.71961 0.0
O219 O 0.1814 0.61865 0.67187 0.0
O220 O 0.32286 0.6707 0.67187 0.0
O221 O 0.39212 0.5884 0.69353 0.0
O222 O 0.40576 0.52728 0.86043 0.0
O223 O 0.32262 0.57353 0.82993 0.0
O224 O 0.37018 0.46667 0.77291 0.0
O225 O 0.45304 0.48205 0.73638 0.0
C226 C 0.41828 0.43286 0.75812 0.0
O227 O 0.35509 0.74772 0.7522 0.0
O228 O 0.30783 0.78843 0.68668 0.0
C229 C 0.46336 0.69195 0.75907 0.0
C230 C 0.34056 0.80829 0.72248 0.0
Zn231 Zn 0.96282 0.50407 0.64314 0.0
Zn232 Zn 0.75863 0.65853 0.80187 0.0
Zn233 Zn 0.87667 0.60621 0.75605 0.0
C234 C 0.79258 0.77211 0.75807 0.0
C235 C 0.85942 0.65696 0.86565 0.0
O236 O 0.85659 0.45763 0.7523 0.0
O237 O 0.9039 0.4164 0.68691 0.0
C238 C 0.84514 0.57802 0.66061 0.0
O239 O 0.84103 0.7387 0.77244 0.0
O240 O 0.75705 0.72237 0.73744 0.0
O241 O 0.80649 0.67843 0.86077 0.0
O242 O 0.88935 0.63074 0.83052 0.0
O243 O 0.88887 0.53511 0.67227 0.0
O244 O 0.81951 0.61723 0.694 0.0
O245 O 0.9609 0.61955 0.72022 0.0
O246 O 0.03005 0.5868 0.67268 0.0
C247 C 0.01351 0.59261 0.71503 0.0
O248 O 0.79914 0.5313 0.74191 0.0
O249 O 0.7309 0.54289 0.79757 0.0
C250 C 0.87105 0.3969 0.72264 0.0
C251 C 0.74848 0.51317 0.75903 0.0
Zn252 Zn 0.70554 0.4532 0.38301 0.0
Zn253 Zn 0.47298 0.2676 0.51497 0.0
Zn254 Zn 0.61062 0.34217 0.48206 0.0
C255 C 0.54427 0.16577 0.49999 0.0
C256 C 0.57326 0.29795 0.58798 0.0
O257 O 0.60204 0.49474 0.48598 0.0
O258 O 0.65347 0.54457 0.42397 0.0
C259 C 0.58912 0.37193 0.38848 0.0
O260 O 0.58826 0.21181 0.51455 0.0
O261 O 0.51733 0.19672 0.46531 0.0
O262 O 0.51863 0.31015 0.58022 0.0
O263 O 0.6079 0.28291 0.55305 0.0
O264 O 0.62619 0.42282 0.40622 0.0
O265 O 0.56856 0.3146 0.41634 0.0
O266 O 0.70281 0.36012 0.46768 0.0
O267 O 0.77295 0.38765 0.41763 0.0
C268 C 0.75769 0.37083 0.45941 0.0
O269 O 0.54779 0.43725 0.48784 0.0
O270 O 0.49077 0.38082 0.54293 0.0
C271 C 0.62085 0.55945 0.45992 0.0
C272 C 0.50111 0.43788 0.51254 0.0
Zn273 Zn 0.23826 0.43725 0.51503 0.0
Zn274 Zn 0.00537 0.25107 0.38267 0.0
Zn275 Zn 0.10061 0.36261 0.48179 0.0
C276 C 0.95368 0.33414 0.45896 0.0
C277 C 0.12214 0.33137 0.38803 0.0
O278 O 0.16395 0.26815 0.48686 0.0
O279 O 0.22021 0.32401 0.54261 0.0
C280 C 0.13787 0.40688 0.58782 0.0
O281 O 0.00862 0.34486 0.46695 0.0
O282 O 0.93815 0.31721 0.41724 0.0
O283 O 0.085 0.28062 0.40573 0.0
O284 O 0.1428 0.38876 0.41594 0.0
O285 O 0.1925 0.39461 0.58014 0.0
O286 O 0.10328 0.422 0.55284 0.0
O287 O 0.12298 0.49298 0.51434 0.0
O288 O 0.19398 0.5077 0.46515 0.0
C289 C 0.16701 0.53884 0.49976 0.0
O290 O 0.1092 0.21024 0.4861 0.0
O291 O 0.05779 0.16042 0.42402 0.0
C292 C 0.21054 0.26759 0.51171 0.0
C293 C 0.09039 0.1455 0.46003 0.0
Zn294 Zn 0.70022 0.26557 0.36044 0.0
Zn295 Zn 0.5148 0.39832 0.19853 0.0
Zn296 Zn 0.62363 0.35474 0.24467 0.0
C297 C 0.53304 0.52105 0.24534 0.0
C298 C 0.61487 0.40995 0.13641 0.0
O299 O 0.60592 0.20596 0.25047 0.0
O300 O 0.6491 0.16956 0.31849 0.0
C301 C 0.59336 0.35315 0.33881 0.0
O302 O 0.5843 0.48931 0.23769 0.0
O303 O 0.4932 0.46869 0.2573 0.0
O304 O 0.56131 0.42798 0.14075 0.0
O305 O 0.64463 0.38412 0.1718 0.0
O306 O 0.62467 0.29046 0.3276 0.0
O307 O 0.58419 0.40986 0.30692 0.0
O308 O 0.70882 0.34916 0.27811 0.0
O309 O 0.77435 0.33277 0.33154 0.0
C310 C 0.76264 0.33535 0.28825 0.0
O311 O 0.55019 0.27 0.25125 0.0
O312 O 0.48023 0.28697 0.19745 0.0
C313 C 0.6201 0.14721 0.2813 0.0
C314 C 0.49956 0.25182 0.23395 0.0
Zn315 Zn 0.01221 0.43931 0.3601 0.0
Zn316 Zn 0.19338 0.31024 0.19879 0.0
Zn317 Zn 0.08779 0.35068 0.24406 0.0
C318 C 0.17971 0.18519 0.24602 0.0
C319 C 0.09545 0.29504 0.13606 0.0
O320 O 0.10535 0.49958 0.25063 0.0
O321 O 0.06269 0.53633 0.31877 0.0
C322 C 0.11796 0.3501 0.33831 0.0
O323 O 0.12786 0.21582 0.23963 0.0
O324 O 0.21987 0.23871 0.25558 0.0
O325 O 0.14893 0.27675 0.14069 0.0
O326 O 0.06571 0.3217 0.17127 0.0
O327 O 0.08813 0.41454 0.32736 0.0
O328 O 0.12527 0.29269 0.30635 0.0
O329 O 0.00309 0.35605 0.27798 0.0
O330 O 0.93766 0.37293 0.33126 0.0
C331 C 0.94932 0.3704 0.28798 0.0
O332 O 0.16085 0.4364 0.25024 0.0
O333 O 0.23002 0.42035 0.19578 0.0
C334 C 0.09141 0.55847 0.28148 0.0
C335 C 0.21123 0.45499 0.23264 0.0
Zn336 Zn 0.76408 0.01698 0.61612 0.0
Zn337 Zn 0.96598 0.17513 0.49144 0.0
Zn338 Zn 0.85313 0.11459 0.51799 0.0
C339 C 0.91644 0.2986 0.49724 0.0
C340 C 0.88101 0.15229 0.41381 0.0
O341 O 0.86217 0.95999 0.51533 0.0
O342 O 0.8132 0.91745 0.58021 0.0
C343 C 0.87516 0.10535 0.61163 0.0
O344 O 0.87476 0.24539 0.48525 0.0
O345 O 0.94456 0.28017 0.53367 0.0
O346 O 0.93488 0.13991 0.42215 0.0
O347 O 0.84762 0.17241 0.44845 0.0
O348 O 0.84699 0.04112 0.59575 0.0
O349 O 0.88635 0.165 0.58219 0.0
O350 O 0.76016 0.09391 0.52473 0.0
O351 O 0.69396 0.0735 0.57906 0.0
C352 C 0.70603 0.08361 0.53591 0.0
O353 O 0.91512 0.01584 0.50763 0.0
O354 O -0.00049 0.08353 0.52582 0.0
C355 C 0.84348 0.89808 0.54368 0.0
C356 C 0.97046 0.01591 0.51603 0.0
Zn357 Zn 0.24543 0.02962 0.49124 0.0
Zn358 Zn 0.4477 0.18851 0.61596 0.0
Zn359 Zn 0.35843 0.09069 0.51789 0.0
C360 C 0.50553 0.12171 0.53564 0.0
C361 C 0.33648 0.10008 0.61155 0.0
O362 O 0.29643 0.18931 0.50718 0.0
O363 O 0.21198 0.1217 0.52521 0.0
C364 C 0.33073 0.05221 0.4138 0.0
O365 O 0.45141 0.11141 0.52437 0.0
O366 O 0.51767 0.13189 0.57878 0.0
O367 O 0.36465 0.16442 0.59582 0.0
O368 O 0.32528 0.04059 0.582 0.0
O369 O 0.27682 0.06438 0.42199 0.0
O370 O 0.3641 0.03233 0.44851 0.0
O371 O 0.33669 0.9596 0.48544 0.0
O372 O 0.26713 0.92542 0.53403 0.0
C373 C 0.295 0.90656 0.49756 0.0
O374 O 0.34928 0.24519 0.51521 0.0
O375 O 0.39836 0.28791 0.58007 0.0
C376 C 0.24103 0.18922 0.51531 0.0
C377 C 0.36798 0.30716 0.54355 0.0
Zn378 Zn 0.95326 0.04702 0.80202 0.0
Zn379 Zn 0.74851 0.20097 0.64329 0.0
Zn380 Zn 0.83516 0.099 0.75592 0.0
C381 C 0.69821 0.11245 0.71515 0.0
C382 C 0.86662 0.12738 0.66058 0.0
O383 O 0.91255 0.17428 0.74201 0.0
O384 O -0.01924 0.16275 0.79781 0.0
C385 C 0.85214 0.04839 0.86549 0.0
O386 O 0.75079 0.08528 0.72021 0.0
O387 O 0.68143 0.11815 0.67283 0.0
O388 O 0.82264 0.16971 0.67227 0.0
O389 O 0.89246 0.0883 0.69395 0.0
O390 O 0.90507 0.0269 0.86069 0.0
O391 O 0.82229 0.07477 0.83033 0.0
O392 O 0.87129 0.96671 0.77186 0.0
O393 O 0.95575 -0.01695 0.73763 0.0
C394 C 0.91992 0.93334 0.75792 0.0
O395 O 0.85505 0.24758 0.75217 0.0
O396 O 0.80744 0.2889 0.68691 0.0
C397 C 0.96316 0.19255 0.75929 0.0
C398 C 0.84043 0.30834 0.72262 0.0
Zn399 Zn 0.25818 0.1601 0.80169 0.0
Zn400 Zn 0.46273 0.00432 0.64282 0.0
Zn401 Zn 0.37655 0.10638 0.75582 0.0
C402 C 0.51328 0.09295 0.71477 0.0
C403 C 0.34498 0.0776 0.66043 0.0
O404 O 0.29905 0.03089 0.74217 0.0
O405 O 0.23049 0.04446 0.79751 0.0
C406 C 0.35925 0.15693 0.86551 0.0
O407 O 0.46067 0.11997 0.71988 0.0
O408 O 0.52998 0.08687 0.67247 0.0
O409 O 0.38883 0.03496 0.67205 0.0
O410 O 0.31923 0.11649 0.69384 0.0
O411 O 0.30638 0.17868 0.86063 0.0
O412 O 0.38917 0.13083 0.83034 0.0
O413 O 0.34138 0.23881 0.77273 0.0
O414 O 0.25805 0.22296 0.73683 0.0
C415 C 0.29315 0.27245 0.75809 0.0
O416 O 0.35656 0.95769 0.75213 0.0
O417 O 0.40379 0.91658 0.68667 0.0
C418 C 0.24837 0.01313 0.75946 0.0
C419 C 0.37102 0.89699 0.72244 0.0
Zn420 Zn 0.97316 0.76764 0.51568 0.0
Zn421 Zn 0.20535 0.95281 0.3831 0.0
Zn422 Zn 0.11057 0.84194 0.4823 0.0
C423 C 0.25757 0.87065 0.45944 0.0
C424 C 0.08876 0.87148 0.38869 0.0
O425 O 0.04749 0.93676 0.48763 0.0
O426 O -0.00886 0.88104 0.54331 0.0
C427 C 0.07364 0.79815 0.58839 0.0
O428 O 0.20266 0.85987 0.46759 0.0
O429 O 0.2729 0.88744 0.41769 0.0
O430 O 0.12598 0.92228 0.40633 0.0
O431 O 0.06818 0.81435 0.41665 0.0
O432 O 0.01899 0.81037 0.58077 0.0
O433 O 0.10814 0.78302 0.55338 0.0
O434 O 0.08827 0.71177 0.51496 0.0
O435 O 0.01717 0.69673 0.46581 0.0
C436 C 0.04424 0.66579 0.50042 0.0
O437 O 0.10194 -0.00557 0.48613 0.0
O438 O 0.15327 0.0442 0.42404 0.0
C439 C 0.00096 0.93751 0.51251 0.0
C440 C 0.12068 0.05908 0.46001 0.0
Zn441 Zn 0.73836 0.93756 0.51557 0.0
Zn442 Zn 0.50588 0.7522 0.38302 0.0
Zn443 Zn 0.60082 0.8631 0.48231 0.0
C444 C 0.45378 0.83453 0.45939 0.0
C445 C 0.62241 0.83339 0.38874 0.0
O446 O 0.66376 0.76812 0.48792 0.0
O447 O 0.72052 0.82429 0.54334 0.0
C448 C 0.63794 0.90734 0.5883 0.0
O449 O 0.5087 0.84525 0.4676 0.0
O450 O 0.43842 0.81774 0.41762 0.0
O451 O 0.58526 0.78251 0.40632 0.0
O452 O 0.643 0.89056 0.41672 0.0
O453 O 0.69258 0.89512 0.58069 0.0
O454 O 0.60339 0.92246 0.5533 0.0
O455 O 0.6233 -0.00653 0.51484 0.0
O456 O 0.69429 0.00831 0.46566 0.0
C457 C 0.6673 0.03939 0.50026 0.0
O458 O 0.60944 0.71057 0.48612 0.0
O459 O 0.55801 0.66086 0.42398 0.0
C460 C 0.71039 0.76746 0.51274 0.0
C461 C 0.59063 0.64592 0.45996 0.0
Zn462 Zn 0.2005 0.76519 0.36063 0.0
Zn463 Zn 0.01525 0.89759 0.19877 0.0
Zn464 Zn 0.12356 0.85478 0.24496 0.0
C465 C 0.03239 0.0211 0.24546 0.0
C466 C 0.11495 0.91007 0.13669 0.0
O467 O 0.10599 0.70601 0.25065 0.0
O468 O 0.14927 0.66941 0.3186 0.0
C469 C 0.09294 0.85243 0.33903 0.0
O470 O 0.08373 -0.01075 0.23824 0.0
O471 O -0.00786 0.96891 0.25674 0.0
O472 O 0.06137 0.92798 0.14095 0.0
O473 O 0.14461 0.88409 0.17209 0.0
O474 O 0.12503 0.79063 0.32777 0.0
O475 O 0.08265 0.90852 0.30703 0.0
O476 O 0.2087 0.85002 0.27881 0.0
O477 O 0.27462 0.83256 0.33171 0.0
C478 C 0.26256 0.83534 0.28848 0.0
O479 O 0.05004 0.77014 0.25188 0.0
O480 O 0.98061 0.78627 0.19759 0.0
C481 C 0.12018 0.6472 0.28143 0.0
C482 C -0.00047 0.75178 0.23442 0.0
Zn483 Zn 0.51151 0.94013 0.36044 0.0
Zn484 Zn 0.69682 0.80681 0.19872 0.0
Zn485 Zn 0.58809 0.85067 0.24479 0.0
C486 C 0.67823 0.68412 0.2452 0.0
C487 C 0.59677 0.79527 0.13654 0.0
O488 O 0.6057 -0.00052 0.25052 0.0
O489 O 0.56258 0.03612 0.31851 0.0
C490 C 0.61833 0.85235 0.33909 0.0
O491 O 0.6271 0.71609 0.23733 0.0
O492 O 0.71809 0.73625 0.25749 0.0
O493 O 0.65035 0.77733 0.14086 0.0
O494 O 0.56703 0.82099 0.17194 0.0
O495 O 0.58746 0.91558 0.32794 0.0
O496 O 0.62711 0.79549 0.30716 0.0
O497 O 0.50338 0.85536 0.27865 0.0
O498 O 0.43737 0.87272 0.33143 0.0
C499 C 0.44955 0.87 0.28824 0.0
O500 O 0.66151 0.93555 0.25148 0.0
O501 O 0.73139 0.91813 0.19774 0.0
C502 C 0.59151 0.05834 0.28131 0.0
C503 C 0.71211 0.95361 0.23416 0.0
Zn504 Zn 0.76436 0.51726 0.11591 0.0
Zn505 Zn 0.9666 0.67636 0.992 0.0
Zn506 Zn 0.85329 0.61512 0.01792 0.0
C507 C 0.91657 0.79945 0.99752 0.0
C508 C 0.88246 0.6532 0.91389 0.0
O509 O 0.86247 0.46011 0.01541 0.0
O510 O 0.81305 0.41739 0.08004 0.0
C511 C 0.87486 0.60671 0.11143 0.0
O512 O 0.87516 0.74607 0.98517 0.0
O513 O 0.94415 0.78112 0.03423 0.0
O514 O 0.93631 0.64121 0.92246 0.0
O515 O 0.8487 0.67284 0.94839 0.0
O516 O 0.84723 0.54186 0.09565 0.0
O517 O 0.88585 0.66624 0.08192 0.0
O518 O 0.76026 0.59436 0.02443 0.0
O519 O 0.69426 0.57402 0.07898 0.0
C520 C 0.70619 0.58409 0.0358 0.0
O521 O 0.91569 0.51663 0.00896 0.0
O522 O 0.00016 0.58485 0.02649 0.0
C523 C 0.84342 0.39805 0.04356 0.0
C524 C 0.97094 0.51687 0.0178 0.0
Zn525 Zn 0.24506 0.52897 0.99127 0.0
Zn526 Zn 0.44765 0.68834 0.11621 0.0
Zn527 Zn 0.35818 0.59034 0.01763 0.0
C528 C 0.50533 0.62091 0.03628 0.0
C529 C 0.33715 0.59894 0.11102 0.0
O530 O 0.29579 0.68896 0.00881 0.0
O531 O 0.21133 0.62033 0.0257 0.0
C532 C 0.32951 0.55197 0.91338 0.0
O533 O 0.45114 0.61066 0.02521 0.0
O534 O 0.51769 0.63123 0.07938 0.0
O535 O 0.36532 0.66312 0.09517 0.0
O536 O 0.32524 0.53963 0.08155 0.0
O537 O 0.27562 0.56388 0.92178 0.0
O538 O 0.36319 0.53267 0.948 0.0
O539 O 0.33632 0.45938 0.98474 0.0
O540 O 0.26741 0.42443 0.03373 0.0
C541 C 0.29488 0.40603 0.99701 0.0
O542 O 0.34898 0.74536 0.01533 0.0
O543 O 0.39844 0.78768 0.08012 0.0
C544 C 0.24054 0.68851 0.01756 0.0
C545 C 0.36799 0.80724 0.04368 0.0
Zn546 Zn 0.95434 0.5445 0.30123 0.0
Zn547 Zn 0.7477 0.70165 0.14332 0.0
Zn548 Zn 0.8351 0.59884 0.25586 0.0
C549 C 0.69837 0.61225 0.21538 0.0
C550 C 0.866 0.62912 0.16022 0.0
O551 O 0.9127 0.67297 0.24113 0.0
O552 O -0.01825 0.66018 0.29613 0.0
C553 C 0.85373 0.54877 0.36569 0.0
O554 O 0.7509 0.58475 0.22023 0.0
O555 O 0.68122 0.61818 0.17316 0.0
O556 O 0.82173 0.67071 0.17189 0.0
O557 O 0.8924 0.59134 0.19366 0.0
O558 O 0.90678 0.52779 0.36084 0.0
O559 O 0.82355 0.57392 0.33044 0.0
O560 O 0.86965 0.46671 0.27435 0.0
O561 O 0.95111 0.48203 0.23594 0.0
C562 C 0.91735 0.43301 0.25872 0.0
O563 O 0.85537 0.74762 0.25223 0.0
O564 O 0.80735 0.7888 0.18713 0.0
C565 C 0.96366 0.6905 0.25788 0.0
C566 C 0.84062 0.80837 0.22267 0.0
Zn567 Zn 0.25724 0.65976 0.30111 0.0
Zn568 Zn 0.46349 0.5028 0.14351 0.0
Zn569 Zn 0.37615 0.60639 0.25566 0.0
C570 C 0.5129 0.59277 0.21544 0.0
C571 C 0.34563 0.57675 0.15987 0.0
O572 O 0.29832 0.53315 0.24008 0.0
O573 O 0.22963 0.54428 0.29531 0.0
C574 C 0.35762 0.65634 0.36561 0.0
O575 O 0.46036 0.62022 0.22018 0.0
O576 O 0.53002 0.58654 0.17325 0.0
O577 O 0.38933 0.53403 0.17181 0.0
O578 O 0.31949 0.6155 0.19313 0.0
O579 O 0.30442 0.67651 0.36085 0.0
O580 O 0.38784 0.63181 0.33026 0.0
O581 O 0.34178 0.73843 0.27458 0.0
O582 O 0.26004 0.72359 0.23636 0.0
C583 C 0.29407 0.7724 0.2591 0.0
O584 O 0.35577 0.45786 0.25252 0.0
O585 O 0.4038 0.41633 0.18752 0.0
C586 C 0.24733 0.5155 0.25659 0.0
C587 C 0.37052 0.39698 0.22304 0.0
Zn588 Zn 0.97213 0.26645 0.01421 0.0
Zn589 Zn 0.20355 0.45122 0.88264 0.0
Zn590 Zn 0.10969 0.34124 0.98184 0.0
C591 C 0.2568 0.37029 0.95928 0.0
C592 C 0.08814 0.36724 0.88827 0.0
O593 O 0.04835 0.43782 0.98941 0.0
O594 O -0.01059 0.37954 0.04285 0.0
C595 C 0.0719 0.29679 0.08787 0.0
O596 O 0.20215 0.3596 0.96853 0.0
O597 O 0.27121 0.38699 0.91727 0.0
O598 O 0.12408 0.42019 0.9058 0.0
O599 O 0.06878 0.30958 0.91636 0.0
O600 O 0.01729 0.30853 0.07986 0.0
O601 O 0.10688 0.28228 0.05305 0.0
O602 O 0.08727 0.21098 0.01452 0.0
O603 O 0.01654 0.1943 0.96515 0.0
C604 C 0.04353 0.1643 1.00003 0.0
O605 O 0.10145 0.49456 0.98497 0.0
O606 O 0.15298 0.54434 0.92297 0.0
C607 C 0.00156 0.43858 0.01401 0.0
C608 C 0.12051 0.55927 0.95896 0.0
Zn609 Zn 0.50679 0.25316 0.88252 0.0
Zn610 Zn 0.73845 0.43802 0.01497 0.0
Zn611 Zn 0.60119 0.36346 0.9821 0.0
C612 C 0.66729 0.54002 1.00022 0.0
C613 C 0.63862 0.40791 0.08828 0.0
O614 O 0.60941 0.21046 0.98563 0.0
O615 O 0.55817 0.16108 0.92334 0.0
C616 C 0.62295 0.33555 0.88837 0.0
O617 O 0.62351 0.49369 0.01485 0.0
O618 O 0.69416 0.50945 0.96544 0.0
O619 O 0.69321 0.39584 0.08043 0.0
O620 O 0.60378 0.42241 0.05335 0.0
O621 O 0.58648 0.28328 0.90575 0.0
O622 O 0.64288 0.39277 0.91658 0.0
O623 O 0.50932 0.34572 0.96707 0.0
O624 O 0.43908 0.31811 0.91711 0.0
C625 C 0.45443 0.33501 0.95888 0.0
O626 O 0.66347 0.26795 0.98802 0.0
O627 O 0.72075 0.32475 0.04294 0.0
C628 C 0.59053 0.1459 0.95941 0.0
C629 C 0.7101 0.26727 0.01281 0.0
Zn630 Zn 0.20327 0.26361 0.86004 0.0
Zn631 Zn 0.01454 0.39843 0.69832 0.0
Zn632 Zn 0.12432 0.35435 0.74452 0.0
C633 C 0.03429 0.52092 0.74462 0.0
C634 C 0.11394 0.40887 0.63587 0.0
O635 O 0.10624 0.2058 0.75002 0.0
O636 O 0.15 0.16898 0.81778 0.0
C637 C 0.09316 0.34746 0.83881 0.0
O638 O 0.08522 0.48872 0.73608 0.0
O639 O -0.00557 0.46918 0.75731 0.0
O640 O 0.06053 0.42777 0.64023 0.0
O641 O 0.14351 0.38258 0.67124 0.0
O642 O 0.12843 0.28972 0.82742 0.0
O643 O 0.07869 0.40052 0.80649 0.0
O644 O 0.20937 0.35293 0.77884 0.0
O645 O 0.27633 0.33389 0.83062 0.0
C646 C 0.26329 0.33698 0.78755 0.0
O647 O 0.04975 0.27193 0.75335 0.0
O648 O -0.01899 0.28639 0.69833 0.0
C649 C 0.12021 0.14696 0.78086 0.0
C650 C -0.00072 0.25353 0.73583 0.0
Zn651 Zn 0.50962 0.44138 0.86007 0.0
Zn652 Zn 0.6965 0.30746 0.69846 0.0
Zn653 Zn 0.58755 0.35092 0.74454 0.0
C654 C 0.67776 0.18441 0.74471 0.0
C655 C 0.59717 0.29602 0.63604 0.0
O656 O 0.6056 0.49954 0.75019 0.0
O657 O 0.56219 0.53651 0.81803 0.0
C658 C 0.61837 0.35536 0.83886 0.0
O659 O 0.62667 0.21637 0.73653 0.0
O660 O 0.71766 0.23645 0.75705 0.0
O661 O 0.65065 0.2775 0.6404 0.0
O662 O 0.56757 0.32219 0.67141 0.0
O663 O 0.58494 0.4156 0.82761 0.0
O664 O 0.63057 0.30075 0.80662 0.0
O665 O 0.50264 0.35359 0.77872 0.0
O666 O 0.43602 0.37225 0.83078 0.0
C667 C 0.44873 0.36907 0.78768 0.0
O668 O 0.66185 0.43393 0.7529 0.0
O669 O 0.73066 0.4191 0.69805 0.0
C670 C 0.59168 0.55848 0.78101 0.0
C671 C 0.71233 0.45227 0.73545 0.0
loop_
_geom_bond_atom_site_label_1
_geom_bond_atom_site_label_2
_geom_bond_distance
_geom_bond_site_symmetry_2
_ccdc_geom_bond_type
Zn0 O6 1.920 1_545 S
Zn0 O12 1.898 . S
Zn0 O15 1.905 . S
Zn1 O9 1.905 . S
Zn1 O10 1.898 . S
Zn1 O18 1.920 . S
Zn2 O5 2.080 1_545 S
Zn2 O8 2.114 1_554 S
Zn2 O11 2.120 1_554 S
Zn2 O13 2.120 . S
Zn2 O14 2.114 . S
Zn2 O17 2.080 . S
C3 O8 1.166 . S
C3 O9 1.182 . S
C4 O10 1.167 . S
C4 O11 1.299 . S
O5 Zn2 2.080 1_565 S
O5 C19 1.305 . S
O6 Zn0 1.920 1_565 S
O6 C19 1.234 . S
C7 O12 1.167 . S
C7 O13 1.299 . S
O8 Zn2 2.114 1_556 S
O8 C3 1.166 . S
O9 Zn1 1.905 . S
O9 C3 1.182 . S
O10 Zn1 1.898 . S
O10 C4 1.167 . S
O11 Zn2 2.120 1_556 S
O11 C4 1.299 . S
O12 Zn0 1.898 . S
O12 C7 1.167 . S
O13 Zn2 2.120 . S
O13 C7 1.299 . S
O14 Zn2 2.114 . S
O14 C16 1.166 . S
O15 Zn0 1.905 . S
O15 C16 1.182 . S
C16 O14 1.166 . S
C16 O15 1.182 . S
O17 Zn2 2.080 . S
O17 C20 1.305 1_554 S
O18 Zn1 1.920 . S
O18 C20 1.234 . S
C19 O5 1.305 . S
C19 O6 1.234 . S
C20 O17 1.305 1_556 S
C20 O18 1.234 . S
Zn21 O27 1.920 . S
Zn21 O33 1.898 . S
Zn21 O36 1.905 1_545 S
Zn22 O30 1.905 1_655 S
Zn22 O31 1.898 . S
Zn22 O39 1.920 . S
Zn23 O26 2.080 . S
Zn23 O29 2.114 . S
Zn23 O32 2.120 . S
Zn23 O34 2.120 1_554 S
Zn23 O35 2.114 1_554 S
Zn23 O38 2.080 . S
C24 O29 1.166 1_455 S
C24 O30 1.182 . S
C25 O31 1.167 . S
C25 O32 1.299 . S
O26 Zn23 2.080 . S
O26 C40 1.305 1_554 S
O27 Zn21 1.920 . S
O27 C40 1.234 . S
C28 O33 1.167 . S
C28 O34 1.299 . S
O29 Zn23 2.114 . S
O29 C24 1.166 1_655 S
O30 Zn22 1.905 1_455 S
O30 C24 1.182 . S
O31 Zn22 1.898 . S
O31 C25 1.167 . S
O32 Zn23 2.120 . S
O32 C25 1.299 . S
O33 Zn21 1.898 . S
O33 C28 1.167 . S
O34 Zn23 2.120 1_556 S
O34 C28 1.299 . S
O35 Zn23 2.114 1_556 S
O35 C37 1.166 1_545 S
O36 Zn21 1.905 1_565 S
O36 C37 1.182 . S
C37 O35 1.166 1_565 S
C37 O36 1.182 . S
O38 Zn23 2.080 . S
O38 C41 1.305 . S
O39 Zn22 1.920 . S
O39 C41 1.234 . S
C40 O26 1.305 1_556 S
C40 O27 1.234 . S
C41 O38 1.305 . S
C41 O39 1.234 . S
Zn42 O48 1.920 . S
Zn42 O54 1.898 . S
Zn42 O57 1.905 1_545 S
Zn43 O51 1.905 . S
Zn43 O52 1.898 . S
Zn43 O60 1.920 . S
Zn44 O47 2.080 . S
Zn44 O50 2.114 . S
Zn44 O53 2.120 . S
Zn44 O55 2.120 . S
Zn44 O56 2.114 . S
Zn44 O59 2.080 . S
C45 O50 1.166 . S
C45 O51 1.182 . S
C46 O52 1.167 . S
C46 O53 1.299 . S
O47 Zn44 2.080 . S
O47 C61 1.305 . S
O48 Zn42 1.920 . S
O48 C61 1.234 . S
C49 O54 1.167 . S
C49 O55 1.299 . S
O50 Zn44 2.114 . S
O50 C45 1.166 . S
O51 Zn43 1.905 . S
O51 C45 1.182 . S
O52 Zn43 1.898 . S
O52 C46 1.167 . S
O53 Zn44 2.120 . S
O53 C46 1.299 . S
O54 Zn42 1.898 . S
O54 C49 1.167 . S
O55 Zn44 2.120 . S
O55 C49 1.299 . S
O56 Zn44 2.114 . S
O56 C58 1.166 1_545 S
O57 Zn42 1.905 1_565 S
O57 C58 1.182 . S
C58 O56 1.166 1_565 S
C58 O57 1.182 . S
O59 Zn44 2.080 . S
O59 C62 1.305 . S
O60 Zn43 1.920 . S
O60 C62 1.234 . S
C61 O47 1.305 . S
C61 O48 1.234 . S
C62 O59 1.305 . S
C62 O60 1.234 . S
Zn63 O69 1.920 1_545 S
Zn63 O75 1.898 . S
Zn63 O78 1.905 1_655 S
Zn64 O72 1.905 . S
Zn64 O73 1.898 . S
Zn64 O81 1.920 . S
Zn65 O68 2.080 1_545 S
Zn65 O71 2.114 . S
Zn65 O74 2.120 . S
Zn65 O76 2.120 . S
Zn65 O77 2.114 . S
Zn65 O80 2.080 . S
C66 O71 1.166 . S
C66 O72 1.182 . S
C67 O73 1.167 . S
C67 O74 1.299 . S
O68 Zn65 2.080 1_565 S
O68 C82 1.305 . S
O69 Zn63 1.920 1_565 S
O69 C82 1.234 . S
C70 O75 1.167 . S
C70 O76 1.299 . S
O71 Zn65 2.114 . S
O71 C66 1.166 . S
O72 Zn64 1.905 . S
O72 C66 1.182 . S
O73 Zn64 1.898 . S
O73 C67 1.167 . S
O74 Zn65 2.120 . S
O74 C67 1.299 . S
O75 Zn63 1.898 . S
O75 C70 1.167 . S
O76 Zn65 2.120 . S
O76 C70 1.299 . S
O77 Zn65 2.114 . S
O77 C79 1.166 1_655 S
O78 Zn63 1.905 1_455 S
O78 C79 1.182 . S
C79 O77 1.166 1_455 S
C79 O78 1.182 . S
O80 Zn65 2.080 . S
O80 C83 1.305 . S
O81 Zn64 1.920 . S
O81 C83 1.234 . S
C82 O68 1.305 . S
C82 O69 1.234 . S
C83 O80 1.305 . S
C83 O81 1.234 . S
Zn84 O90 1.920 . S
Zn84 O96 1.898 . S
Zn84 O99 1.905 . S
Zn85 O93 1.905 . S
Zn85 O94 1.898 . S
Zn85 O102 1.920 1_565 S
Zn86 O89 2.080 . S
Zn86 O92 2.114 . S
Zn86 O95 2.120 . S
Zn86 O97 2.120 1_556 S
Zn86 O98 2.114 1_556 S
Zn86 O101 2.080 1_565 S
C87 O92 1.166 . S
C87 O93 1.182 . S
C88 O94 1.167 . S
C88 O95 1.299 . S
O89 Zn86 2.080 . S
O89 C103 1.305 1_556 S
O90 Zn84 1.920 . S
O90 C103 1.234 . S
C91 O96 1.167 . S
C91 O97 1.299 . S
O92 Zn86 2.114 . S
O92 C87 1.166 . S
O93 Zn85 1.905 . S
O93 C87 1.182 . S
O94 Zn85 1.898 . S
O94 C88 1.167 . S
O95 Zn86 2.120 . S
O95 C88 1.299 . S
O96 Zn84 1.898 . S
O96 C91 1.167 . S
O97 Zn86 2.120 1_554 S
O97 C91 1.299 . S
O98 Zn86 2.114 1_554 S
O98 C100 1.166 . S
O99 Zn84 1.905 . S
O99 C100 1.182 . S
C100 O98 1.166 . S
C100 O99 1.182 . S
O101 Zn86 2.080 1_545 S
O101 C104 1.305 . S
O102 Zn85 1.920 1_545 S
O102 C104 1.234 . S
C103 O89 1.305 1_554 S
C103 O90 1.234 . S
C104 O101 1.305 . S
C104 O102 1.234 . S
Zn105 O111 1.920 . S
Zn105 O117 1.898 . S
Zn105 O120 1.905 1_565 S
Zn106 O114 1.905 1_455 S
Zn106 O115 1.898 . S
Zn106 O123 1.920 . S
Zn107 O110 2.080 . S
Zn107 O113 2.114 . S
Zn107 O116 2.120 . S
Zn107 O118 2.120 1_556 S
Zn107 O119 2.114 1_556 S
Zn107 O122 2.080 . S
C108 O113 1.166 1_655 S
C108 O114 1.182 . S
C109 O115 1.167 . S
C109 O116 1.299 . S
O110 Zn107 2.080 . S
O110 C124 1.305 1_556 S
O111 Zn105 1.920 . S
O111 C124 1.234 . S
C112 O117 1.167 . S
C112 O118 1.299 . S
O113 Zn107 2.114 . S
O113 C108 1.166 1_455 S
O114 Zn106 1.905 1_655 S
O114 C108 1.182 . S
O115 Zn106 1.898 . S
O115 C109 1.167 . S
O116 Zn107 2.120 . S
O116 C109 1.299 . S
O117 Zn105 1.898 . S
O117 C112 1.167 . S
O118 Zn107 2.120 1_554 S
O118 C112 1.299 . S
O119 Zn107 2.114 1_554 S
O119 C121 1.166 1_565 S
O120 Zn105 1.905 1_545 S
O120 C121 1.182 . S
C121 O119 1.166 1_545 S
C121 O120 1.182 . S
O122 Zn107 2.080 . S
O122 C125 1.305 . S
O123 Zn106 1.920 . S
O123 C125 1.234 . S
C124 O110 1.305 1_554 S
C124 O111 1.234 . S
C125 O122 1.305 . S
C125 O123 1.234 . S
Zn126 O132 1.920 . S
Zn126 O138 1.898 . S
Zn126 O141 1.905 1_565 S
Zn127 O135 1.905 . S
Zn127 O136 1.898 . S
Zn127 O144 1.920 . S
Zn128 O131 2.080 . S
Zn128 O134 2.114 . S
Zn128 O137 2.120 . S
Zn128 O139 2.120 . S
Zn128 O140 2.114 . S
Zn128 O143 2.080 . S
C129 O134 1.166 . S
C129 O135 1.182 . S
C130 O136 1.167 . S
C130 O137 1.299 . S
O131 Zn128 2.080 . S
O131 C145 1.305 . S
O132 Zn126 1.920 . S
O132 C145 1.234 . S
C133 O138 1.167 . S
C133 O139 1.299 . S
O134 Zn128 2.114 . S
O134 C129 1.166 . S
O135 Zn127 1.905 . S
O135 C129 1.182 . S
O136 Zn127 1.898 . S
O136 C130 1.167 . S
O137 Zn128 2.120 . S
O137 C130 1.299 . S
O138 Zn126 1.898 . S
O138 C133 1.167 . S
O139 Zn128 2.120 . S
O139 C133 1.299 . S
O140 Zn128 2.114 . S
O140 C142 1.166 1_565 S
O141 Zn126 1.905 1_545 S
O141 C142 1.182 . S
C142 O140 1.166 1_545 S
C142 O141 1.182 . S
O143 Zn128 2.080 . S
O143 C146 1.305 . S
O144 Zn127 1.920 . S
O144 C146 1.234 . S
C145 O131 1.305 . S
C145 O132 1.234 . S
C146 O143 1.305 . S
C146 O144 1.234 . S
Zn147 O153 1.920 . S
Zn147 O159 1.898 . S
Zn147 O162 1.905 . S
Zn148 O156 1.905 1_455 S
Zn148 O157 1.898 . S
Zn148 O165 1.920 1_565 S
Zn149 O152 2.080 . S
Zn149 O155 2.114 . S
Zn149 O158 2.120 . S
Zn149 O160 2.120 . S
Zn149 O161 2.114 . S
Zn149 O164 2.080 1_565 S
C150 O155 1.166 1_655 S
C150 O156 1.182 . S
C151 O157 1.167 . S
C151 O158 1.299 . S
O152 Zn149 2.080 . S
O152 C166 1.305 . S
O153 Zn147 1.920 . S
O153 C166 1.234 . S
C154 O159 1.167 . S
C154 O160 1.299 . S
O155 Zn149 2.114 . S
O155 C150 1.166 1_455 S
O156 Zn148 1.905 1_655 S
O156 C150 1.182 . S
O157 Zn148 1.898 . S
O157 C151 1.167 . S
O158 Zn149 2.120 . S
O158 C151 1.299 . S
O159 Zn147 1.898 . S
O159 C154 1.167 . S
O160 Zn149 2.120 . S
O160 C154 1.299 . S
O161 Zn149 2.114 . S
O161 C163 1.166 . S
O162 Zn147 1.905 . S
O162 C163 1.182 . S
C163 O161 1.166 . S
C163 O162 1.182 . S
O164 Zn149 2.080 1_545 S
O164 C167 1.305 . S
O165 Zn148 1.920 1_545 S
O165 C167 1.234 . S
C166 O152 1.305 . S
C166 O153 1.234 . S
C167 O164 1.305 . S
C167 O165 1.234 . S
Zn168 O174 1.920 . S
Zn168 O180 1.898 . S
Zn168 O183 1.905 . S
Zn169 O177 1.905 . S
Zn169 O178 1.898 . S
Zn169 O186 1.920 . S
Zn170 O173 2.080 . S
Zn170 O176 2.114 . S
Zn170 O179 2.120 . S
Zn170 O181 2.120 . S
Zn170 O182 2.114 . S
Zn170 O185 2.080 . S
C171 O176 1.166 . S
C171 O177 1.182 . S
C172 O178 1.167 . S
C172 O179 1.299 . S
O173 Zn170 2.080 . S
O173 C187 1.305 . S
O174 Zn168 1.920 . S
O174 C187 1.234 . S
C175 O180 1.167 . S
C175 O181 1.299 . S
O176 Zn170 2.114 . S
O176 C171 1.166 . S
O177 Zn169 1.905 . S
O177 C171 1.182 . S
O178 Zn169 1.898 . S
O178 C172 1.167 . S
O179 Zn170 2.120 . S
O179 C172 1.299 . S
O180 Zn168 1.898 . S
O180 C175 1.167 . S
O181 Zn170 2.120 . S
O181 C175 1.299 . S
O182 Zn170 2.114 . S
O182 C184 1.166 . S
O183 Zn168 1.905 . S
O183 C184 1.182 . S
C184 O182 1.166 . S
C184 O183 1.182 . S
O185 Zn170 2.080 . S
O185 C188 1.305 . S
O186 Zn169 1.920 . S
O186 C188 1.234 . S
C187 O173 1.305 . S
C187 O174 1.234 . S
C188 O185 1.305 . S
C188 O186 1.234 . S
Zn189 O195 1.920 . S
Zn189 O201 1.898 . S
Zn189 O204 1.905 . S
Zn190 O198 1.905 1_655 S
Zn190 O199 1.898 . S
Zn190 O207 1.920 . S
Zn191 O194 2.080 . S
Zn191 O197 2.114 . S
Zn191 O200 2.120 . S
Zn191 O202 2.120 . S
Zn191 O203 2.114 . S
Zn191 O206 2.080 . S
C192 O197 1.166 1_455 S
C192 O198 1.182 . S
C193 O199 1.167 . S
C193 O200 1.299 . S
O194 Zn191 2.080 . S
O194 C208 1.305 . S
O195 Zn189 1.920 . S
O195 C208 1.234 . S
C196 O201 1.167 . S
C196 O202 1.299 . S
O197 Zn191 2.114 . S
O197 C192 1.166 1_655 S
O198 Zn190 1.905 1_455 S
O198 C192 1.182 . S
O199 Zn190 1.898 . S
O199 C193 1.167 . S
O200 Zn191 2.120 . S
O200 C193 1.299 . S
O201 Zn189 1.898 . S
O201 C196 1.167 . S
O202 Zn191 2.120 . S
O202 C196 1.299 . S
O203 Zn191 2.114 . S
O203 C205 1.166 . S
O204 Zn189 1.905 . S
O204 C205 1.182 . S
C205 O203 1.166 . S
C205 O204 1.182 . S
O206 Zn191 2.080 . S
O206 C209 1.305 . S
O207 Zn190 1.920 . S
O207 C209 1.234 . S
C208 O194 1.305 . S
C208 O195 1.234 . S
C209 O206 1.305 . S
C209 O207 1.234 . S
Zn210 O216 1.920 . S
Zn210 O222 1.898 . S
Zn210 O225 1.905 . S
Zn211 O219 1.905 . S
Zn211 O220 1.898 . S
Zn211 O228 1.920 . S
Zn212 O215 2.080 . S
Zn212 O218 2.114 . S
Zn212 O221 2.120 . S
Zn212 O223 2.120 . S
Zn212 O224 2.114 . S
Zn212 O227 2.080 . S
C213 O218 1.166 . S
C213 O219 1.182 . S
C214 O220 1.167 . S
C214 O221 1.299 . S
O215 Zn212 2.080 . S
O215 C229 1.305 . S
O216 Zn210 1.920 . S
O216 C229 1.234 . S
C217 O222 1.167 . S
C217 O223 1.299 . S
O218 Zn212 2.114 . S
O218 C213 1.166 . S
O219 Zn211 1.905 . S
O219 C213 1.182 . S
O220 Zn211 1.898 . S
O220 C214 1.167 . S
O221 Zn212 2.120 . S
O221 C214 1.299 . S
O222 Zn210 1.898 . S
O222 C217 1.167 . S
O223 Zn212 2.120 . S
O223 C217 1.299 . S
O224 Zn212 2.114 . S
O224 C226 1.166 . S
O225 Zn210 1.905 . S
O225 C226 1.182 . S
C226 O224 1.166 . S
C226 O225 1.182 . S
O227 Zn212 2.080 . S
O227 C230 1.305 . S
O228 Zn211 1.920 . S
O228 C230 1.234 . S
C229 O215 1.305 . S
C229 O216 1.234 . S
C230 O227 1.305 . S
C230 O228 1.234 . S
Zn231 O237 1.920 . S
Zn231 O243 1.898 . S
Zn231 O246 1.905 1_655 S
Zn232 O240 1.905 . S
Zn232 O241 1.898 . S
Zn232 O249 1.920 . S
Zn233 O236 2.080 . S
Zn233 O239 2.114 . S
Zn233 O242 2.120 . S
Zn233 O244 2.120 . S
Zn233 O245 2.114 . S
Zn233 O248 2.080 . S
C234 O239 1.166 . S
C234 O240 1.182 . S
C235 O241 1.167 . S
C235 O242 1.299 . S
O236 Zn233 2.080 . S
O236 C250 1.305 . S
O237 Zn231 1.920 . S
O237 C250 1.234 . S
C238 O243 1.167 . S
C238 O244 1.299 . S
O239 Zn233 2.114 . S
O239 C234 1.166 . S
O240 Zn232 1.905 . S
O240 C234 1.182 . S
O241 Zn232 1.898 . S
O241 C235 1.167 . S
O242 Zn233 2.120 . S
O242 C235 1.299 . S
O243 Zn231 1.898 . S
O243 C238 1.167 . S
O244 Zn233 2.120 . S
O244 C238 1.299 . S
O245 Zn233 2.114 . S
O245 C247 1.166 1_655 S
O246 Zn231 1.905 1_455 S
O246 C247 1.182 . S
C247 O245 1.166 1_455 S
C247 O246 1.182 . S
O248 Zn233 2.080 . S
O248 C251 1.305 . S
O249 Zn232 1.920 . S
O249 C251 1.234 . S
C250 O236 1.305 . S
C250 O237 1.234 . S
C251 O248 1.305 . S
C251 O249 1.234 . S
Zn252 O258 1.920 . S
Zn252 O264 1.898 . S
Zn252 O267 1.905 . S
Zn253 O261 1.905 . S
Zn253 O262 1.898 . S
Zn253 O270 1.920 . S
Zn254 O257 2.080 . S
Zn254 O260 2.114 . S
Zn254 O263 2.120 . S
Zn254 O265 2.120 . S
Zn254 O266 2.114 . S
Zn254 O269 2.080 . S
C255 O260 1.166 . S
C255 O261 1.182 . S
C256 O262 1.167 . S
C256 O263 1.299 . S
O257 Zn254 2.080 . S
O257 C271 1.305 . S
O258 Zn252 1.920 . S
O258 C271 1.234 . S
C259 O264 1.167 . S
C259 O265 1.299 . S
O260 Zn254 2.114 . S
O260 C255 1.166 . S
O261 Zn253 1.905 . S
O261 C255 1.182 . S
O262 Zn253 1.898 . S
O262 C256 1.167 . S
O263 Zn254 2.120 . S
O263 C256 1.299 . S
O264 Zn252 1.898 . S
O264 C259 1.167 . S
O265 Zn254 2.120 . S
O265 C259 1.299 . S
O266 Zn254 2.114 . S
O266 C268 1.166 . S
O267 Zn252 1.905 . S
O267 C268 1.182 . S
C268 O266 1.166 . S
C268 O267 1.182 . S
O269 Zn254 2.080 . S
O269 C272 1.305 . S
O270 Zn253 1.920 . S
O270 C272 1.234 . S
C271 O257 1.305 . S
C271 O258 1.234 . S
C272 O269 1.305 . S
C272 O270 1.234 . S
Zn273 O279 1.920 . S
Zn273 O285 1.898 . S
Zn273 O288 1.905 . S
Zn274 O282 1.905 1_455 S
Zn274 O283 1.898 . S
Zn274 O291 1.920 . S
Zn275 O278 2.080 . S
Zn275 O281 2.114 . S
Zn275 O284 2.120 . S
Zn275 O286 2.120 . S
Zn275 O287 2.114 . S
Zn275 O290 2.080 . S
C276 O281 1.166 1_655 S
C276 O282 1.182 . S
C277 O283 1.167 . S
C277 O284 1.299 . S
O278 Zn275 2.080 . S
O278 C292 1.305 . S
O279 Zn273 1.920 . S
O279 C292 1.234 . S
C280 O285 1.167 . S
C280 O286 1.299 . S
O281 Zn275 2.114 . S
O281 C276 1.166 1_455 S
O282 Zn274 1.905 1_655 S
O282 C276 1.182 . S
O283 Zn274 1.898 . S
O283 C277 1.167 . S
O284 Zn275 2.120 . S
O284 C277 1.299 . S
O285 Zn273 1.898 . S
O285 C280 1.167 . S
O286 Zn275 2.120 . S
O286 C280 1.299 . S
O287 Zn275 2.114 . S
O287 C289 1.166 . S
O288 Zn273 1.905 . S
O288 C289 1.182 . S
C289 O287 1.166 . S
C289 O288 1.182 . S
O290 Zn275 2.080 . S
O290 C293 1.305 . S
O291 Zn274 1.920 . S
O291 C293 1.234 . S
C292 O278 1.305 . S
C292 O279 1.234 . S
C293 O290 1.305 . S
C293 O291 1.234 . S
Zn294 O300 1.920 . S
Zn294 O306 1.898 . S
Zn294 O309 1.905 . S
Zn295 O303 1.905 . S
Zn295 O304 1.898 . S
Zn295 O312 1.920 . S
Zn296 O299 2.080 . S
Zn296 O302 2.114 . S
Zn296 O305 2.120 . S
Zn296 O307 2.120 . S
Zn296 O308 2.114 . S
Zn296 O311 2.080 . S
C297 O302 1.166 . S
C297 O303 1.182 . S
C298 O304 1.167 . S
C298 O305 1.299 . S
O299 Zn296 2.080 . S
O299 C313 1.305 . S
O300 Zn294 1.920 . S
O300 C313 1.234 . S
C301 O306 1.167 . S
C301 O307 1.299 . S
O302 Zn296 2.114 . S
O302 C297 1.166 . S
O303 Zn295 1.905 . S
O303 C297 1.182 . S
O304 Zn295 1.898 . S
O304 C298 1.167 . S
O305 Zn296 2.120 . S
O305 C298 1.299 . S
O306 Zn294 1.898 . S
O306 C301 1.167 . S
O307 Zn296 2.120 . S
O307 C301 1.299 . S
O308 Zn296 2.114 . S
O308 C310 1.166 . S
O309 Zn294 1.905 . S
O309 C310 1.182 . S
C310 O308 1.166 . S
C310 O309 1.182 . S
O311 Zn296 2.080 . S
O311 C314 1.305 . S
O312 Zn295 1.920 . S
O312 C314 1.234 . S
C313 O299 1.305 . S
C313 O300 1.234 . S
C314 O311 1.305 . S
C314 O312 1.234 . S
Zn315 O321 1.920 . S
Zn315 O327 1.898 . S
Zn315 O330 1.905 1_455 S
Zn316 O324 1.905 . S
Zn316 O325 1.898 . S
Zn316 O333 1.920 . S
Zn317 O320 2.080 . S
Zn317 O323 2.114 . S
Zn317 O326 2.120 . S
Zn317 O328 2.120 . S
Zn317 O329 2.114 . S
Zn317 O332 2.080 . S
C318 O323 1.166 . S
C318 O324 1.182 . S
C319 O325 1.167 . S
C319 O326 1.299 . S
O320 Zn317 2.080 . S
O320 C334 1.305 . S
O321 Zn315 1.920 . S
O321 C334 1.234 . S
C322 O327 1.167 . S
C322 O328 1.299 . S
O323 Zn317 2.114 . S
O323 C318 1.166 . S
O324 Zn316 1.905 . S
O324 C318 1.182 . S
O325 Zn316 1.898 . S
O325 C319 1.167 . S
O326 Zn317 2.120 . S
O326 C319 1.299 . S
O327 Zn315 1.898 . S
O327 C322 1.167 . S
O328 Zn317 2.120 . S
O328 C322 1.299 . S
O329 Zn317 2.114 . S
O329 C331 1.166 1_455 S
O330 Zn315 1.905 1_655 S
O330 C331 1.182 . S
C331 O329 1.166 1_655 S
C331 O330 1.182 . S
O332 Zn317 2.080 . S
O332 C335 1.305 . S
O333 Zn316 1.920 . S
O333 C335 1.234 . S
C334 O320 1.305 . S
C334 O321 1.234 . S
C335 O332 1.305 . S
C335 O333 1.234 . S
Zn336 O342 1.920 1_545 S
Zn336 O348 1.898 . S
Zn336 O351 1.905 . S
Zn337 O345 1.905 . S
Zn337 O346 1.898 . S
Zn337 O354 1.920 1_655 S
Zn338 O341 2.080 1_545 S
Zn338 O344 2.114 . S
Zn338 O347 2.120 . S
Zn338 O349 2.120 . S
Zn338 O350 2.114 . S
Zn338 O353 2.080 . S
C339 O344 1.166 . S
C339 O345 1.182 . S
C340 O346 1.167 . S
C340 O347 1.299 . S
O341 Zn338 2.080 1_565 S
O341 C355 1.305 . S
O342 Zn336 1.920 1_565 S
O342 C355 1.234 . S
C343 O348 1.167 . S
C343 O349 1.299 . S
O344 Zn338 2.114 . S
O344 C339 1.166 . S
O345 Zn337 1.905 . S
O345 C339 1.182 . S
O346 Zn337 1.898 . S
O346 C340 1.167 . S
O347 Zn338 2.120 . S
O347 C340 1.299 . S
O348 Zn336 1.898 . S
O348 C343 1.167 . S
O349 Zn338 2.120 . S
O349 C343 1.299 . S
O350 Zn338 2.114 . S
O350 C352 1.166 . S
O351 Zn336 1.905 . S
O351 C352 1.182 . S
C352 O350 1.166 . S
C352 O351 1.182 . S
O353 Zn338 2.080 . S
O353 C356 1.305 1_655 S
O354 Zn337 1.920 1_455 S
O354 C356 1.234 . S
C355 O341 1.305 . S
C355 O342 1.234 . S
C356 O353 1.305 1_455 S
C356 O354 1.234 . S
Zn357 O363 1.920 . S
Zn357 O369 1.898 . S
Zn357 O372 1.905 1_545 S
Zn358 O366 1.905 . S
Zn358 O367 1.898 . S
Zn358 O375 1.920 . S
Zn359 O362 2.080 . S
Zn359 O365 2.114 . S
Zn359 O368 2.120 . S
Zn359 O370 2.120 . S
Zn359 O371 2.114 . S
Zn359 O374 2.080 . S
C360 O365 1.166 . S
C360 O366 1.182 . S
C361 O367 1.167 . S
C361 O368 1.299 . S
O362 Zn359 2.080 . S
O362 C376 1.305 . S
O363 Zn357 1.920 . S
O363 C376 1.234 . S
C364 O369 1.167 . S
C364 O370 1.299 . S
O365 Zn359 2.114 . S
O365 C360 1.166 . S
O366 Zn358 1.905 . S
O366 C360 1.182 . S
O367 Zn358 1.898 . S
O367 C361 1.167 . S
O368 Zn359 2.120 . S
O368 C361 1.299 . S
O369 Zn357 1.898 . S
O369 C364 1.167 . S
O370 Zn359 2.120 . S
O370 C364 1.299 . S
O371 Zn359 2.114 . S
O371 C373 1.166 1_545 S
O372 Zn357 1.905 1_565 S
O372 C373 1.182 . S
C373 O371 1.166 1_565 S
C373 O372 1.182 . S
O374 Zn359 2.080 . S
O374 C377 1.305 . S
O375 Zn358 1.920 . S
O375 C377 1.234 . S
C376 O362 1.305 . S
C376 O363 1.234 . S
C377 O374 1.305 . S
C377 O375 1.234 . S
Zn378 O384 1.920 1_655 S
Zn378 O390 1.898 . S
Zn378 O393 1.905 1_545 S
Zn379 O387 1.905 . S
Zn379 O388 1.898 . S
Zn379 O396 1.920 . S
Zn380 O383 2.080 . S
Zn380 O386 2.114 . S
Zn380 O389 2.120 . S
Zn380 O391 2.120 . S
Zn380 O392 2.114 . S
Zn380 O395 2.080 . S
C381 O386 1.166 . S
C381 O387 1.182 . S
C382 O388 1.167 . S
C382 O389 1.299 . S
O383 Zn380 2.080 . S
O383 C397 1.305 1_655 S
O384 Zn378 1.920 1_455 S
O384 C397 1.234 . S
C385 O390 1.167 . S
C385 O391 1.299 . S
O386 Zn380 2.114 . S
O386 C381 1.166 . S
O387 Zn379 1.905 . S
O387 C381 1.182 . S
O388 Zn379 1.898 . S
O388 C382 1.167 . S
O389 Zn380 2.120 . S
O389 C382 1.299 . S
O390 Zn378 1.898 . S
O390 C385 1.167 . S
O391 Zn380 2.120 . S
O391 C385 1.299 . S
O392 Zn380 2.114 . S
O392 C394 1.166 1_545 S
O393 Zn378 1.905 1_565 S
O393 C394 1.182 . S
C394 O392 1.166 1_565 S
C394 O393 1.182 . S
O395 Zn380 2.080 . S
O395 C398 1.305 . S
O396 Zn379 1.920 . S
O396 C398 1.234 . S
C397 O383 1.305 1_455 S
C397 O384 1.234 . S
C398 O395 1.305 . S
C398 O396 1.234 . S
Zn399 O405 1.920 . S
Zn399 O411 1.898 . S
Zn399 O414 1.905 . S
Zn400 O408 1.905 . S
Zn400 O409 1.898 . S
Zn400 O417 1.920 1_545 S
Zn401 O404 2.080 . S
Zn401 O407 2.114 . S
Zn401 O410 2.120 . S
Zn401 O412 2.120 . S
Zn401 O413 2.114 . S
Zn401 O416 2.080 1_545 S
C402 O407 1.166 . S
C402 O408 1.182 . S
C403 O409 1.167 . S
C403 O410 1.299 . S
O404 Zn401 2.080 . S
O404 C418 1.305 . S
O405 Zn399 1.920 . S
O405 C418 1.234 . S
C406 O411 1.167 . S
C406 O412 1.299 . S
O407 Zn401 2.114 . S
O407 C402 1.166 . S
O408 Zn400 1.905 . S
O408 C402 1.182 . S
O409 Zn400 1.898 . S
O409 C403 1.167 . S
O410 Zn401 2.120 . S
O410 C403 1.299 . S
O411 Zn399 1.898 . S
O411 C406 1.167 . S
O412 Zn401 2.120 . S
O412 C406 1.299 . S
O413 Zn401 2.114 . S
O413 C415 1.166 . S
O414 Zn399 1.905 . S
O414 C415 1.182 . S
C415 O413 1.166 . S
C415 O414 1.182 . S
O416 Zn401 2.080 1_565 S
O416 C419 1.305 . S
O417 Zn400 1.920 1_565 S
O417 C419 1.234 . S
C418 O404 1.305 . S
C418 O405 1.234 . S
C419 O416 1.305 . S
C419 O417 1.234 . S
Zn420 O426 1.920 1_455 S
Zn420 O432 1.898 . S
Zn420 O435 1.905 . S
Zn421 O429 1.905 . S
Zn421 O430 1.898 . S
Zn421 O438 1.920 1_565 S
Zn422 O425 2.080 . S
Zn422 O428 2.114 . S
Zn422 O431 2.120 . S
Zn422 O433 2.120 . S
Zn422 O434 2.114 . S
Zn422 O437 2.080 1_565 S
C423 O428 1.166 . S
C423 O429 1.182 . S
C424 O430 1.167 . S
C424 O431 1.299 . S
O425 Zn422 2.080 . S
O425 C439 1.305 1_455 S
O426 Zn420 1.920 1_655 S
O426 C439 1.234 . S
C427 O432 1.167 . S
C427 O433 1.299 . S
O428 Zn422 2.114 . S
O428 C423 1.166 . S
O429 Zn421 1.905 . S
O429 C423 1.182 . S
O430 Zn421 1.898 . S
O430 C424 1.167 . S
O431 Zn422 2.120 . S
O431 C424 1.299 . S
O432 Zn420 1.898 . S
O432 C427 1.167 . S
O433 Zn422 2.120 . S
O433 C427 1.299 . S
O434 Zn422 2.114 . S
O434 C436 1.166 . S
O435 Zn420 1.905 . S
O435 C436 1.182 . S
C436 O434 1.166 . S
C436 O435 1.182 . S
O437 Zn422 2.080 1_545 S
O437 C440 1.305 . S
O438 Zn421 1.920 1_545 S
O438 C440 1.234 . S
C439 O425 1.305 1_655 S
C439 O426 1.234 . S
C440 O437 1.305 . S
C440 O438 1.234 . S
Zn441 O447 1.920 . S
Zn441 O453 1.898 . S
Zn441 O456 1.905 1_565 S
Zn442 O450 1.905 . S
Zn442 O451 1.898 . S
Zn442 O459 1.920 . S
Zn443 O446 2.080 . S
Zn443 O449 2.114 . S
Zn443 O452 2.120 . S
Zn443 O454 2.120 . S
Zn443 O455 2.114 . S
Zn443 O458 2.080 . S
C444 O449 1.166 . S
C444 O450 1.182 . S
C445 O451 1.167 . S
C445 O452 1.299 . S
O446 Zn443 2.080 . S
O446 C460 1.305 . S
O447 Zn441 1.920 . S
O447 C460 1.234 . S
C448 O453 1.167 . S
C448 O454 1.299 . S
O449 Zn443 2.114 . S
O449 C444 1.166 . S
O450 Zn442 1.905 . S
O450 C444 1.182 . S
O451 Zn442 1.898 . S
O451 C445 1.167 . S
O452 Zn443 2.120 . S
O452 C445 1.299 . S
O453 Zn441 1.898 . S
O453 C448 1.167 . S
O454 Zn443 2.120 . S
O454 C448 1.299 . S
O455 Zn443 2.114 . S
O455 C457 1.166 1_565 S
O456 Zn441 1.905 1_545 S
O456 C457 1.182 . S
C457 O455 1.166 1_545 S
C457 O456 1.182 . S
O458 Zn443 2.080 . S
O458 C461 1.305 . S
O459 Zn442 1.920 . S
O459 C461 1.234 . S
C460 O446 1.305 . S
C460 O447 1.234 . S
C461 O458 1.305 . S
C461 O459 1.234 . S
Zn462 O468 1.920 . S
Zn462 O474 1.898 . S
Zn462 O477 1.905 . S
Zn463 O471 1.905 1_565 S
Zn463 O472 1.898 . S
Zn463 O480 1.920 1_455 S
Zn464 O467 2.080 . S
Zn464 O470 2.114 . S
Zn464 O473 2.120 . S
Zn464 O475 2.120 . S
Zn464 O476 2.114 . S
Zn464 O479 2.080 . S
C465 O470 1.166 1_545 S
C465 O471 1.182 . S
C466 O472 1.167 . S
C466 O473 1.299 . S
O467 Zn464 2.080 . S
O467 C481 1.305 . S
O468 Zn462 1.920 . S
O468 C481 1.234 . S
C469 O474 1.167 . S
C469 O475 1.299 . S
O470 Zn464 2.114 . S
O470 C465 1.166 1_565 S
O471 Zn463 1.905 1_545 S
O471 C465 1.182 . S
O472 Zn463 1.898 . S
O472 C466 1.167 . S
O473 Zn464 2.120 . S
O473 C466 1.299 . S
O474 Zn462 1.898 . S
O474 C469 1.167 . S
O475 Zn464 2.120 . S
O475 C469 1.299 . S
O476 Zn464 2.114 . S
O476 C478 1.166 . S
O477 Zn462 1.905 . S
O477 C478 1.182 . S
C478 O476 1.166 . S
C478 O477 1.182 . S
O479 Zn464 2.080 . S
O479 C482 1.305 1_455 S
O480 Zn463 1.920 1_655 S
O480 C482 1.234 . S
C481 O467 1.305 . S
C481 O468 1.234 . S
C482 O479 1.305 1_655 S
C482 O480 1.234 . S
Zn483 O489 1.920 1_565 S
Zn483 O495 1.898 . S
Zn483 O498 1.905 . S
Zn484 O492 1.905 . S
Zn484 O493 1.898 . S
Zn484 O501 1.920 . S
Zn485 O488 2.080 1_565 S
Zn485 O491 2.114 . S
Zn485 O494 2.120 . S
Zn485 O496 2.120 . S
Zn485 O497 2.114 . S
Zn485 O500 2.080 . S
C486 O491 1.166 . S
C486 O492 1.182 . S
C487 O493 1.167 . S
C487 O494 1.299 . S
O488 Zn485 2.080 1_545 S
O488 C502 1.305 . S
O489 Zn483 1.920 1_545 S
O489 C502 1.234 . S
C490 O495 1.167 . S
C490 O496 1.299 . S
O491 Zn485 2.114 . S
O491 C486 1.166 . S
O492 Zn484 1.905 . S
O492 C486 1.182 . S
O493 Zn484 1.898 . S
O493 C487 1.167 . S
O494 Zn485 2.120 . S
O494 C487 1.299 . S
O495 Zn483 1.898 . S
O495 C490 1.167 . S
O496 Zn485 2.120 . S
O496 C490 1.299 . S
O497 Zn485 2.114 . S
O497 C499 1.166 . S
O498 Zn483 1.905 . S
O498 C499 1.182 . S
C499 O497 1.166 . S
C499 O498 1.182 . S
O500 Zn485 2.080 . S
O500 C503 1.305 . S
O501 Zn484 1.920 . S
O501 C503 1.234 . S
C502 O488 1.305 . S
C502 O489 1.234 . S
C503 O500 1.305 . S
C503 O501 1.234 . S
Zn504 O510 1.920 . S
Zn504 O516 1.898 . S
Zn504 O519 1.905 . S
Zn505 O513 1.905 . S
Zn505 O514 1.898 . S
Zn505 O522 1.920 1_655 S
Zn506 O509 2.080 . S
Zn506 O512 2.114 1_554 S
Zn506 O515 2.120 1_554 S
Zn506 O517 2.120 . S
Zn506 O518 2.114 . S
Zn506 O521 2.080 . S
C507 O512 1.166 . S
C507 O513 1.182 . S
C508 O514 1.167 . S
C508 O515 1.299 . S
O509 Zn506 2.080 . S
O509 C523 1.305 . S
O510 Zn504 1.920 . S
O510 C523 1.234 . S
C511 O516 1.167 . S
C511 O517 1.299 . S
O512 Zn506 2.114 1_556 S
O512 C507 1.166 . S
O513 Zn505 1.905 . S
O513 C507 1.182 . S
O514 Zn505 1.898 . S
O514 C508 1.167 . S
O515 Zn506 2.120 1_556 S
O515 C508 1.299 . S
O516 Zn504 1.898 . S
O516 C511 1.167 . S
O517 Zn506 2.120 . S
O517 C511 1.299 . S
O518 Zn506 2.114 . S
O518 C520 1.166 . S
O519 Zn504 1.905 . S
O519 C520 1.182 . S
C520 O518 1.166 . S
C520 O519 1.182 . S
O521 Zn506 2.080 . S
O521 C524 1.305 1_654 S
O522 Zn505 1.920 1_455 S
O522 C524 1.234 . S
C523 O509 1.305 . S
C523 O510 1.234 . S
C524 O521 1.305 1_456 S
C524 O522 1.234 . S
Zn525 O531 1.920 . S
Zn525 O537 1.898 . S
Zn525 O540 1.905 . S
Zn526 O534 1.905 . S
Zn526 O535 1.898 . S
Zn526 O543 1.920 . S
Zn527 O530 2.080 . S
Zn527 O533 2.114 . S
Zn527 O536 2.120 . S
Zn527 O538 2.120 1_554 S
Zn527 O539 2.114 1_554 S
Zn527 O542 2.080 . S
C528 O533 1.166 . S
C528 O534 1.182 . S
C529 O535 1.167 . S
C529 O536 1.299 . S
O530 Zn527 2.080 . S
O530 C544 1.305 1_554 S
O531 Zn525 1.920 . S
O531 C544 1.234 . S
C532 O537 1.167 . S
C532 O538 1.299 . S
O533 Zn527 2.114 . S
O533 C528 1.166 . S
O534 Zn526 1.905 . S
O534 C528 1.182 . S
O535 Zn526 1.898 . S
O535 C529 1.167 . S
O536 Zn527 2.120 . S
O536 C529 1.299 . S
O537 Zn525 1.898 . S
O537 C532 1.167 . S
O538 Zn527 2.120 1_556 S
O538 C532 1.299 . S
O539 Zn527 2.114 1_556 S
O539 C541 1.166 . S
O540 Zn525 1.905 . S
O540 C541 1.182 . S
C541 O539 1.166 . S
C541 O540 1.182 . S
O542 Zn527 2.080 . S
O542 C545 1.305 . S
O543 Zn526 1.920 . S
O543 C545 1.234 . S
C544 O530 1.305 1_556 S
C544 O531 1.234 . S
C545 O542 1.305 . S
C545 O543 1.234 . S
Zn546 O552 1.920 1_655 S
Zn546 O558 1.898 . S
Zn546 O561 1.905 . S
Zn547 O555 1.905 . S
Zn547 O556 1.898 . S
Zn547 O564 1.920 . S
Zn548 O551 2.080 . S
Zn548 O554 2.114 . S
Zn548 O557 2.120 . S
Zn548 O559 2.120 . S
Zn548 O560 2.114 . S
Zn548 O563 2.080 . S
C549 O554 1.166 . S
C549 O555 1.182 . S
C550 O556 1.167 . S
C550 O557 1.299 . S
O551 Zn548 2.080 . S
O551 C565 1.305 1_655 S
O552 Zn546 1.920 1_455 S
O552 C565 1.234 . S
C553 O558 1.167 . S
C553 O559 1.299 . S
O554 Zn548 2.114 . S
O554 C549 1.166 . S
O555 Zn547 1.905 . S
O555 C549 1.182 . S
O556 Zn547 1.898 . S
O556 C550 1.167 . S
O557 Zn548 2.120 . S
O557 C550 1.299 . S
O558 Zn546 1.898 . S
O558 C553 1.167 . S
O559 Zn548 2.120 . S
O559 C553 1.299 . S
O560 Zn548 2.114 . S
O560 C562 1.166 . S
O561 Zn546 1.905 . S
O561 C562 1.182 . S
C562 O560 1.166 . S
C562 O561 1.182 . S
O563 Zn548 2.080 . S
O563 C566 1.305 . S
O564 Zn547 1.920 . S
O564 C566 1.234 . S
C565 O551 1.305 1_455 S
C565 O552 1.234 . S
C566 O563 1.305 . S
C566 O564 1.234 . S
Zn567 O573 1.920 . S
Zn567 O579 1.898 . S
Zn567 O582 1.905 . S
Zn568 O576 1.905 . S
Zn568 O577 1.898 . S
Zn568 O585 1.920 . S
Zn569 O572 2.080 . S
Zn569 O575 2.114 . S
Zn569 O578 2.120 . S
Zn569 O580 2.120 . S
Zn569 O581 2.114 . S
Zn569 O584 2.080 . S
C570 O575 1.166 . S
C570 O576 1.182 . S
C571 O577 1.167 . S
C571 O578 1.299 . S
O572 Zn569 2.080 . S
O572 C586 1.305 . S
O573 Zn567 1.920 . S
O573 C586 1.234 . S
C574 O579 1.167 . S
C574 O580 1.299 . S
O575 Zn569 2.114 . S
O575 C570 1.166 . S
O576 Zn568 1.905 . S
O576 C570 1.182 . S
O577 Zn568 1.898 . S
O577 C571 1.167 . S
O578 Zn569 2.120 . S
O578 C571 1.299 . S
O579 Zn567 1.898 . S
O579 C574 1.167 . S
O580 Zn569 2.120 . S
O580 C574 1.299 . S
O581 Zn569 2.114 . S
O581 C583 1.166 . S
O582 Zn567 1.905 . S
O582 C583 1.182 . S
C583 O581 1.166 . S
C583 O582 1.182 . S
O584 Zn569 2.080 . S
O584 C587 1.305 . S
O585 Zn568 1.920 . S
O585 C587 1.234 . S
C586 O572 1.305 . S
C586 O573 1.234 . S
C587 O584 1.305 . S
C587 O585 1.234 . S
Zn588 O594 1.920 1_455 S
Zn588 O600 1.898 . S
Zn588 O603 1.905 . S
Zn589 O597 1.905 . S
Zn589 O598 1.898 . S
Zn589 O606 1.920 . S
Zn590 O593 2.080 . S
Zn590 O596 2.114 . S
Zn590 O599 2.120 . S
Zn590 O601 2.120 1_556 S
Zn590 O602 2.114 1_556 S
Zn590 O605 2.080 . S
C591 O596 1.166 . S
C591 O597 1.182 . S
C592 O598 1.167 . S
C592 O599 1.299 . S
O593 Zn590 2.080 . S
O593 C607 1.305 1_456 S
O594 Zn588 1.920 1_655 S
O594 C607 1.234 . S
C595 O600 1.167 . S
C595 O601 1.299 . S
O596 Zn590 2.114 . S
O596 C591 1.166 . S
O597 Zn589 1.905 . S
O597 C591 1.182 . S
O598 Zn589 1.898 . S
O598 C592 1.167 . S
O599 Zn590 2.120 . S
O599 C592 1.299 . S
O600 Zn588 1.898 . S
O600 C595 1.167 . S
O601 Zn590 2.120 1_554 S
O601 C595 1.299 . S
O602 Zn590 2.114 1_554 S
O602 C604 1.166 . S
O603 Zn588 1.905 . S
O603 C604 1.182 . S
C604 O602 1.166 . S
C604 O603 1.182 . S
O605 Zn590 2.080 . S
O605 C608 1.305 . S
O606 Zn589 1.920 . S
O606 C608 1.234 . S
C607 O593 1.305 1_654 S
C607 O594 1.234 . S
C608 O605 1.305 . S
C608 O606 1.234 . S
Zn609 O615 1.920 . S
Zn609 O621 1.898 . S
Zn609 O624 1.905 . S
Zn610 O618 1.905 . S
Zn610 O619 1.898 . S
Zn610 O627 1.920 . S
Zn611 O614 2.080 . S
Zn611 O617 2.114 1_556 S
Zn611 O620 2.120 1_556 S
Zn611 O622 2.120 . S
Zn611 O623 2.114 . S
Zn611 O626 2.080 . S
C612 O617 1.166 . S
C612 O618 1.182 . S
C613 O619 1.167 . S
C613 O620 1.299 . S
O614 Zn611 2.080 . S
O614 C628 1.305 . S
O615 Zn609 1.920 . S
O615 C628 1.234 . S
C616 O621 1.167 . S
C616 O622 1.299 . S
O617 Zn611 2.114 1_554 S
O617 C612 1.166 . S
O618 Zn610 1.905 . S
O618 C612 1.182 . S
O619 Zn610 1.898 . S
O619 C613 1.167 . S
O620 Zn611 2.120 1_554 S
O620 C613 1.299 . S
O621 Zn609 1.898 . S
O621 C616 1.167 . S
O622 Zn611 2.120 . S
O622 C616 1.299 . S
O623 Zn611 2.114 . S
O623 C625 1.166 . S
O624 Zn609 1.905 . S
O624 C625 1.182 . S
C625 O623 1.166 . S
C625 O624 1.182 . S
O626 Zn611 2.080 . S
O626 C629 1.305 1_556 S
O627 Zn610 1.920 . S
O627 C629 1.234 . S
C628 O614 1.305 . S
C628 O615 1.234 . S
C629 O626 1.305 1_554 S
C629 O627 1.234 . S
Zn630 O636 1.920 . S
Zn630 O642 1.898 . S
Zn630 O645 1.905 . S
Zn631 O639 1.905 . S
Zn631 O640 1.898 . S
Zn631 O648 1.920 1_455 S
Zn632 O635 2.080 . S
Zn632 O638 2.114 . S
Zn632 O641 2.120 . S
Zn632 O643 2.120 . S
Zn632 O644 2.114 . S
Zn632 O647 2.080 . S
C633 O638 1.166 . S
C633 O639 1.182 . S
C634 O640 1.167 . S
C634 O641 1.299 . S
O635 Zn632 2.080 . S
O635 C649 1.305 . S
O636 Zn630 1.920 . S
O636 C649 1.234 . S
C637 O642 1.167 . S
C637 O643 1.299 . S
O638 Zn632 2.114 . S
O638 C633 1.166 . S
O639 Zn631 1.905 . S
O639 C633 1.182 . S
O640 Zn631 1.898 . S
O640 C634 1.167 . S
O641 Zn632 2.120 . S
O641 C634 1.299 . S
O642 Zn630 1.898 . S
O642 C637 1.167 . S
O643 Zn632 2.120 . S
O643 C637 1.299 . S
O644 Zn632 2.114 . S
O644 C646 1.166 . S
O645 Zn630 1.905 . S
O645 C646 1.182 . S
C646 O644 1.166 . S
C646 O645 1.182 . S
O647 Zn632 2.080 . S
O647 C650 1.305 1_455 S
O648 Zn631 1.920 1_655 S
O648 C650 1.234 . S
C649 O635 1.305 . S
C649 O636 1.234 . S
C650 O647 1.305 1_655 S
C650 O648 1.234 . S
Zn651 O657 1.920 . S
Zn651 O663 1.898 . S
Zn651 O666 1.905 . S
Zn652 O660 1.905 . S
Zn652 O661 1.898 . S
Zn652 O669 1.920 . S
Zn653 O656 2.080 . S
Zn653 O659 2.114 . S
Zn653 O662 2.120 . S
Zn653 O664 2.120 . S
Zn653 O665 2.114 . S
Zn653 O668 2.080 . S
C654 O659 1.166 . S
C654 O660 1.182 . S
C655 O661 1.167 . S
C655 O662 1.299 . S
O656 Zn653 2.080 . S
O656 C670 1.305 . S
O657 Zn651 1.920 . S
O657 C670 1.234 . S
C658 O663 1.167 . S
C658 O664 1.299 . S
O659 Zn653 2.114 . S
O659 C654 1.166 . S
O660 Zn652 1.905 . S
O660 C654 1.182 . S
O661 Zn652 1.898 . S
O661 C655 1.167 . S
O662 Zn653 2.120 . S
O662 C655 1.299 . S
O663 Zn651 1.898 . S
O663 C658 1.167 . S
O664 Zn653 2.120 . S
O664 C658 1.299 . S
O665 Zn653 2.114 . S
O665 C667 1.166 . S
O666 Zn651 1.905 . S
O666 C667 1.182 . S
C667 O665 1.166 . S
C667 O666 1.182 . S
O668 Zn653 2.080 . S
O668 C671 1.305 . S
O669 Zn652 1.920 . S
O669 C671 1.234 . S
C670 O656 1.305 . S
C670 O657 1.234 . S
C671 O668 1.305 . S
C671 O669 1.234 . S
C545 C19 1.655 . S
C523 C41 1.655 . S
C587 C62 1.655 . S
C566 C82 1.655 . S
C104 C628 1.655 . S
C125 C608 1.655 . S
C146 C670 1.655 . S
C649 C167 1.655 . S
C377 C187 1.655 . S
C355 C209 1.655 . S
C419 C230 1.655 . S
C398 C250 1.655 . S
C271 C461 1.655 . S
C440 C293 1.655 . S
C313 C502 1.655 . S
C481 C334 1.655 . S
C4 C406 0.992 . S
C385 C28 0.992 . S
C364 C49 0.992 . S
C67 C340 0.992 . S
C487 C91 0.992 . S
C466 C112 0.992 . S
C448 C133 0.992 . S
C427 C154 0.992 . S
C574 C172 0.992 . S
C196 C553 0.992 . S
C217 C532 0.992 . S
C235 C508 0.992 . S
C655 C256 0.992 . S
C634 C280 0.992 . S
C298 C613 0.992 . S
C319 C595 0.992 . S
C103 C20 2.099 1_564 S
C40 C629 2.099 1_556 S
C61 C314 2.099 . S
C503 C83 2.099 1_565 S
C124 C544 2.099 1_554 S
C145 C229 2.099 . S
C418 C166 2.099 1_545 S
C272 C188 2.099 . S
C208 C460 2.099 . S
C251 C671 2.099 . S
C376 C292 2.099 . S
C335 C586 2.099 . S
C439 C356 2.099 1_665 S
C650 C397 2.099 1_655 S
C565 C482 2.099 1_455 S
C524 C607 2.099 1_456 S
C46 C7 0.857 . S
C70 C25 0.857 . S
C130 C88 0.857 . S
C109 C151 0.857 . S
C214 C175 0.857 . S
C193 C238 0.857 . S
C301 C259 0.857 . S
C277 C322 0.857 . S
C343 C382 0.857 . S
C361 C403 0.857 . S
C469 C424 0.857 . S
C445 C490 0.857 . S
C511 C550 0.857 . S
C571 C529 0.857 . S
C592 C637 0.857 . S
C616 C658 0.857 . S
C121 C16 1.397 . S
C604 C24 1.397 . S
C45 C318 1.397 . S
C79 C465 1.397 . S
C87 C37 1.397 . S
C108 C507 1.397 . S
C234 C129 1.397 . S
C394 C150 1.397 . S
C184 C289 1.397 . S
C436 C192 1.397 . S
C213 C163 1.397 . S
C633 C247 1.397 . S
C268 C205 1.397 . S
C276 C339 1.397 . S
C310 C66 1.397 . S
C562 C331 1.397 . S
C352 C457 1.397 . S
C360 C255 1.397 . S
C654 C381 1.397 . S
C142 C402 1.397 . S
C423 C373 1.397 . S
C171 C444 1.397 . S
C583 C478 1.397 . S
C499 C58 1.397 . S
C612 C520 1.397 . S
C528 C100 1.397 . S
C486 C549 1.397 . S
C297 C570 1.397 . S
C541 C591 1.397 . S
C625 C3 1.397 . S
C415 C646 1.397 . S
C667 C226 1.397 . S
