# Generated by pormake.
# Topology upb, (4)-cn, num edge types: 1
# Building blocks:
#     Node 0, Type 0, BuildingBlock: UXUYUI_clean_sbu_0, # of connection points: 4
#     Node 1, Type 0, BuildingBlock: UXUYUI_clean_sbu_0, # of connection points: 4
#     Node 2, Type 0, BuildingBlock: UXUYUI_clean_sbu_0, # of connection points: 4
#     Node 3, Type 0, BuildingBlock: UXUYUI_clean_sbu_0, # of connection points: 4
#     Node 4, Type 0, BuildingBlock: UXUYUI_clean_sbu_0, # of connection points: 4
#     Node 5, Type 0, BuildingBlock: UXUYUI_clean_sbu_0, # of connection points: 4
#     Node 6, Type 0, BuildingBlock: UXUYUI_clean_sbu_0, # of connection points: 4
#     Node 7, Type 0, BuildingBlock: UXUYUI_clean_sbu_0, # of connection points: 4
#     Node 8, Type 0, BuildingBlock: UXUYUI_clean_sbu_0, # of connection points: 4
#     Node 9, Type 0, BuildingBlock: UXUYUI_clean_sbu_0, # of connection points: 4
#     Node 10, Type 0, BuildingBlock: UXUYUI_clean_sbu_0, # of connection points: 4
#     Node 11, Type 0, BuildingBlock: UXUYUI_clean_sbu_0, # of connection points: 4
#     Node 12, Type 0, BuildingBlock: UXUYUI_clean_sbu_0, # of connection points: 4
#     Node 13, Type 0, BuildingBlock: UXUYUI_clean_sbu_0, # of connection points: 4
#     Node 14, Type 0, BuildingBlock: UXUYUI_clean_sbu_0, # of connection points: 4
#     Node 15, Type 0, BuildingBlock: UXUYUI_clean_sbu_0, # of connection points: 4
#     Edge 16, Type (0, 0), BuildingBlock: AJUNOK_clean_linker_0, # of connection points: 2
#     Edge 17, Type (0, 0), BuildingBlock: AJUNOK_clean_linker_0, # of connection points: 2
#     Edge 18, Type (0, 0), BuildingBlock: AJUNOK_clean_linker_0, # of connection points: 2
#     Edge 19, Type (0, 0), BuildingBlock: AJUNOK_clean_linker_0, # of connection points: 2
#     Edge 20, Type (0, 0), BuildingBlock: AJUNOK_clean_linker_0, # of connection points: 2
#     Edge 21, Type (0, 0), BuildingBlock: AJUNOK_clean_linker_0, # of connection points: 2
#     Edge 22, Type (0, 0), BuildingBlock: AJUNOK_clean_linker_0, # of connection points: 2
#     Edge 23, Type (0, 0), BuildingBlock: AJUNOK_clean_linker_0, # of connection points: 2
#     Edge 24, Type (0, 0), BuildingBlock: AJUNOK_clean_linker_0, # of connection points: 2
#     Edge 25, Type (0, 0), BuildingBlock: AJUNOK_clean_linker_0, # of connection points: 2
#     Edge 26, Type (0, 0), BuildingBlock: AJUNOK_clean_linker_0, # of connection points: 2
#     Edge 27, Type (0, 0), BuildingBlock: AJUNOK_clean_linker_0, # of connection points: 2
#     Edge 28, Type (0, 0), BuildingBlock: AJUNOK_clean_linker_0, # of connection points: 2
#     Edge 29, Type (0, 0), BuildingBlock: AJUNOK_clean_linker_0, # of connection points: 2
#     Edge 30, Type (0, 0), BuildingBlock: AJUNOK_clean_linker_0, # of connection points: 2
#     Edge 31, Type (0, 0), BuildingBlock: AJUNOK_clean_linker_0, # of connection points: 2
#     Edge 32, Type (0, 0), BuildingBlock: AJUNOK_clean_linker_0, # of connection points: 2
#     Edge 33, Type (0, 0), BuildingBlock: AJUNOK_clean_linker_0, # of connection points: 2
#     Edge 34, Type (0, 0), BuildingBlock: AJUNOK_clean_linker_0, # of connection points: 2
#     Edge 35, Type (0, 0), BuildingBlock: AJUNOK_clean_linker_0, # of connection points: 2
#     Edge 36, Type (0, 0), BuildingBlock: AJUNOK_clean_linker_0, # of connection points: 2
#     Edge 37, Type (0, 0), BuildingBlock: AJUNOK_clean_linker_0, # of connection points: 2
#     Edge 38, Type (0, 0), BuildingBlock: AJUNOK_clean_linker_0, # of connection points: 2
#     Edge 39, Type (0, 0), BuildingBlock: AJUNOK_clean_linker_0, # of connection points: 2
#     Edge 40, Type (0, 0), BuildingBlock: AJUNOK_clean_linker_0, # of connection points: 2
#     Edge 41, Type (0, 0), BuildingBlock: AJUNOK_clean_linker_0, # of connection points: 2
#     Edge 42, Type (0, 0), BuildingBlock: AJUNOK_clean_linker_0, # of connection points: 2
#     Edge 43, Type (0, 0), BuildingBlock: AJUNOK_clean_linker_0, # of connection points: 2
#     Edge 44, Type (0, 0), BuildingBlock: AJUNOK_clean_linker_0, # of connection points: 2
#     Edge 45, Type (0, 0), BuildingBlock: AJUNOK_clean_linker_0, # of connection points: 2
#     Edge 46, Type (0, 0), BuildingBlock: AJUNOK_clean_linker_0, # of connection points: 2
#     Edge 47, Type (0, 0), BuildingBlock: AJUNOK_clean_linker_0, # of connection points: 2
# Relax obj value: 0.322
# Max RMSD: 0.141
# Mean RMSD: 0.140
data_MOF--net-upb--node1-UXUYUI_clean_sbu_0--edge1-AJUNOK_clean_linker_0
_symmetry_space_group_name_H-M    P1
_symmetry_Int_Tables_number       1
_symmetry_cell_setting            triclinic
loop_
_symmetry_equiv_pos_as_xyz
'x, y, z'
_cell_length_a     42.562938
_cell_length_b     42.510078
_cell_length_c     59.925367
_cell_angle_alpha  89.997418
_cell_angle_beta   89.996373
_cell_angle_gamma 89.984255
loop_
_atom_site_label
_atom_site_type_symbol
_atom_site_fract_x
_atom_site_fract_y
_atom_site_fract_z
_atom_type_partial_charge
Li0 Li 0.02708 0.27979 0.35259 0.0
Li1 Li 0.99645 0.31457 0.37604 0.0
Li2 Li 0.97114 0.28373 0.3474 0.0
Li3 Li 0.00416 0.32722 0.33749 0.0
C4 C 0.99093 0.23611 0.37551 0.0
N5 N 0.9849 0.1715 0.37839 0.0
C6 C 0.98273 0.22203 0.39577 0.0
C7 C 0.9962 0.21729 0.35675 0.0
C8 C 0.97977 0.18934 0.39688 0.0
C9 C 0.99299 0.18469 0.35853 0.0
C10 C 0.06132 0.32417 0.37595 0.0
C11 C 0.11128 0.34463 0.38826 0.0
N12 N 0.1101 0.32547 0.40641 0.0
C13 C 0.06061 0.30474 0.39478 0.0
C14 C 0.08683 0.34436 0.3727 0.0
C15 C 0.08547 0.30573 0.40997 0.0
C16 C 0.07665 0.24782 0.33108 0.0
N17 N 0.06233 0.252 0.35114 0.0
C18 C 0.09656 0.21448 0.36819 0.0
C19 C 0.07174 0.23583 0.36954 0.0
C20 C 0.11156 0.20924 0.34762 0.0
C21 C 0.10125 0.22626 0.32888 0.0
H22 H 0.06849 0.26079 0.31669 0.0
H23 H 0.05964 0.23901 0.38522 0.0
C24 C 0.97492 0.31219 0.41994 0.0
N25 N 0.99225 0.32998 0.40571 0.0
C26 C 0.97478 0.31889 0.44272 0.0
C27 C 0.00889 0.36324 0.4356 0.0
C28 C 0.00846 0.35561 0.41293 0.0
C29 C 0.99266 0.34416 0.45087 0.0
H30 H 0.96225 0.292 0.41368 0.0
H31 H 0.02217 0.36932 0.40127 0.0
C32 C 0.99076 0.28637 0.30319 0.0
N33 N 0.96386 0.29004 0.26129 0.0
C34 C 0.96227 0.3022 0.30018 0.0
C35 C 0.00551 0.27235 0.28488 0.0
C36 C 0.94907 0.30381 0.27887 0.0
C37 C 0.99155 0.27447 0.26383 0.0
C38 C 0.9561 0.35946 0.35916 0.0
C39 C 0.92455 0.36837 0.36042 0.0
C40 C 0.97959 0.38191 0.36265 0.0
C41 C 0.917 0.39964 0.3652 0.0
C42 C 0.97108 0.41294 0.36738 0.0
N43 N 0.94023 0.42109 0.36855 0.0
C44 C 0.90943 0.26343 0.35528 0.0
C45 C 0.93481 0.23634 0.32576 0.0
C46 C 0.88367 0.24313 0.354 0.0
N47 N 0.93446 0.2594 0.34149 0.0
C48 C 0.9096 0.21554 0.3239 0.0
C49 C 0.88385 0.21848 0.33839 0.0
H50 H 0.9101 0.28159 0.36792 0.0
H51 H 0.95522 0.23318 0.31527 0.0
C52 C 0.04383 0.36534 0.31376 0.0
N53 N 0.01269 0.35996 0.31677 0.0
C54 C 0.05391 0.38837 0.29892 0.0
C55 C 0.99964 0.39963 0.28997 0.0
C56 C 0.99052 0.37658 0.30539 0.0
C57 C 0.03172 0.40576 0.2868 0.0
H58 H 0.06086 0.35136 0.32273 0.0
H59 H 0.96586 0.37178 0.3081 0.0
O60 O 0.99379 0.26815 0.37423 0.0
O61 O 0.03703 0.32406 0.36095 0.0
O62 O 0.00432 0.28449 0.32386 0.0
O63 O 0.96365 0.32889 0.35441 0.0
H64 H 0.97873 0.2362 0.41049 0.0
H65 H 0.0027 0.22765 0.34094 0.0
H66 H 0.97341 0.17814 0.41245 0.0
H67 H 0.99694 0.16987 0.34413 0.0
H68 H 0.13116 0.36013 0.38592 0.0
H69 H 0.04097 0.28923 0.39779 0.0
H70 H 0.08769 0.3598 0.35836 0.0
H71 H 0.08515 0.29085 0.42461 0.0
H72 H 0.10373 0.20193 0.38307 0.0
H73 H 0.11141 0.22235 0.31256 0.0
H74 H 0.96202 0.30356 0.45396 0.0
H75 H 0.02248 0.38328 0.4412 0.0
H76 H 0.95036 0.3131 0.3141 0.0
H77 H 0.02752 0.25992 0.28691 0.0
H78 H 0.92705 0.31601 0.27632 0.0
H79 H 0.00273 0.26373 0.24952 0.0
H80 H 0.90609 0.35126 0.35773 0.0
H81 H 0.00413 0.37557 0.36167 0.0
H82 H 0.89267 0.40685 0.36624 0.0
H83 H 0.98903 0.43054 0.37011 0.0
H84 H 0.86458 0.24574 0.3658 0.0
H85 H 0.91062 0.19675 0.31171 0.0
H86 H 0.07887 0.39201 0.29649 0.0
H87 H 0.98198 0.41248 0.28068 0.0
Li88 Li 0.67598 0.00526 0.33609 0.0
Li89 Li 0.72133 0.03401 0.35114 0.0
Li90 Li 0.72104 0.97618 0.34827 0.0
Li91 Li 0.68787 0.00337 0.37589 0.0
C92 C 0.73939 0.99654 0.30844 0.0
N93 N 0.78207 0.97224 0.27829 0.0
C94 C 0.76822 0.01152 0.30505 0.0
C95 C 0.73214 0.96936 0.29637 0.0
C96 C 0.78951 0.99883 0.28975 0.0
C97 C 0.75407 0.95738 0.28125 0.0
C98 C 0.6732 0.07217 0.35696 0.0
C99 C 0.68076 0.12353 0.37319 0.0
N100 N 0.66959 0.13695 0.35417 0.0
C101 C 0.66174 0.08646 0.33759 0.0
C102 C 0.68269 0.09082 0.37495 0.0
C103 C 0.66008 0.11925 0.33651 0.0
C104 C 0.61381 0.01745 0.32235 0.0
N105 N 0.64285 0.00908 0.31499 0.0
C106 C 0.62723 0.01667 0.27711 0.0
C107 C 0.64969 0.0078 0.29286 0.0
C108 C 0.59764 0.02723 0.28427 0.0
C109 C 0.59061 0.02646 0.30716 0.0
H110 H 0.60923 0.01883 0.34008 0.0
H111 H 0.67312 0.00167 0.28749 0.0
C112 C 0.77204 0.07276 0.36311 0.0
N113 N 0.74768 0.07012 0.34857 0.0
C114 C 0.7931 0.09773 0.36136 0.0
C115 C 0.7638 0.11696 0.32962 0.0
C116 C 0.7433 0.09145 0.33193 0.0
C117 C 0.78916 0.12018 0.34443 0.0
H118 H 0.77556 0.05511 0.37579 0.0
H119 H 0.72432 0.08828 0.32016 0.0
C120 C 0.64917 0.95391 0.35012 0.0
N121 N 0.59244 0.92834 0.33708 0.0
C122 C 0.62221 0.95905 0.36292 0.0
C123 C 0.6474 0.93558 0.33081 0.0
C124 C 0.59372 0.94595 0.35601 0.0
C125 C 0.61846 0.92293 0.32446 0.0
C126 C 0.74533 0.9994 0.39465 0.0
C127 C 0.75825 0.97071 0.40142 0.0
C128 C 0.74279 0.02409 0.40997 0.0
C129 C 0.76817 0.96712 0.4235 0.0
C130 C 0.75289 0.01952 0.43191 0.0
N131 N 0.76525 0.99137 0.43817 0.0
C132 C 0.77934 0.94754 0.34154 0.0
C133 C 0.73768 0.91121 0.34648 0.0
C134 C 0.80115 0.92315 0.34054 0.0
N135 N 0.74831 0.94121 0.34437 0.0
C136 C 0.75884 0.88602 0.34602 0.0
C137 C 0.79112 0.89187 0.34311 0.0
H138 H 0.78724 0.97167 0.34063 0.0
H139 H 0.71295 0.90694 0.3493 0.0
C140 C 0.65324 0.02512 0.41324 0.0
N141 N 0.67154 0.00138 0.4054 0.0
C142 C 0.6451 0.02623 0.43582 0.0
C143 C 0.67377 0.97782 0.44151 0.0
C144 C 0.68052 0.97717 0.41875 0.0
C145 C 0.6567 0.00316 0.4505 0.0
H146 H 0.64572 0.04366 0.40211 0.0
H147 H 0.69439 0.95816 0.41191 0.0
O148 O 0.71838 0.0084 0.32352 0.0
O149 O 0.67538 0.04012 0.35827 0.0
O150 O 0.67713 0.96704 0.35636 0.0
O151 O 0.73503 0.00323 0.37318 0.0
H152 H 0.77423 0.03256 0.31426 0.0
H153 H 0.70995 0.95745 0.29884 0.0
H154 H 0.81197 0.01009 0.28703 0.0
H155 H 0.74887 0.93625 0.27191 0.0
H156 H 0.68816 0.13825 0.38694 0.0
H157 H 0.65453 0.07246 0.32342 0.0
H158 H 0.69164 0.08015 0.39005 0.0
H159 H 0.65137 0.13062 0.32159 0.0
H160 H 0.63364 0.01723 0.25962 0.0
H161 H 0.56794 0.03415 0.31329 0.0
H162 H 0.81246 0.09936 0.37304 0.0
H163 H 0.76041 0.13343 0.31604 0.0
H164 H 0.62322 0.97325 0.37789 0.0
H165 H 0.66811 0.93135 0.32078 0.0
H166 H 0.57261 0.94986 0.36567 0.0
H167 H 0.61668 0.90883 0.30949 0.0
H168 H 0.76035 0.95132 0.38984 0.0
H169 H 0.73277 0.04641 0.40502 0.0
H170 H 0.77807 0.945 0.429 0.0
H171 H 0.7508 0.03833 0.44398 0.0
H172 H 0.82576 0.92877 0.33823 0.0
H173 H 0.75012 0.86242 0.34876 0.0
H174 H 0.63063 0.04542 0.44175 0.0
H175 H 0.68314 0.95942 0.45209 0.0
Li176 Li 0.9707 0.72268 0.35374 0.0
Li177 Li 0.00091 0.68725 0.37694 0.0
Li178 Li 0.02661 0.71829 0.34867 0.0
Li179 Li 0.99333 0.67528 0.33831 0.0
C180 C 0.00699 0.76565 0.37707 0.0
N181 N 0.01348 0.83017 0.38041 0.0
C182 C 0.01508 0.7794 0.39746 0.0
C183 C 0.00208 0.78477 0.3584 0.0
C184 C 0.01827 0.81205 0.39881 0.0
C185 C 0.00551 0.81731 0.36042 0.0
C186 C 0.93562 0.67791 0.37614 0.0
C187 C 0.88479 0.65793 0.3869 0.0
N188 N 0.88559 0.67619 0.40553 0.0
C189 C 0.93593 0.69648 0.3954 0.0
C190 C 0.90987 0.65844 0.37186 0.0
C191 C 0.91043 0.69527 0.41005 0.0
C192 C 0.92149 0.7552 0.33234 0.0
N193 N 0.93562 0.75059 0.35241 0.0
C194 C 0.90114 0.78762 0.36974 0.0
C195 C 0.92601 0.76631 0.37096 0.0
C196 C 0.88631 0.79327 0.34917 0.0
C197 C 0.89685 0.77674 0.33028 0.0
H198 H 0.92979 0.74255 0.31785 0.0
H199 H 0.93795 0.76271 0.38666 0.0
C200 C 0.02306 0.68885 0.42053 0.0
N201 N 0.005 0.67152 0.40648 0.0
C202 C 0.02357 0.68206 0.44329 0.0
C203 C 0.98823 0.63857 0.43651 0.0
C204 C 0.98835 0.64625 0.41384 0.0
C205 C 0.00528 0.65721 0.4516 0.0
H206 H 0.03608 0.70875 0.41415 0.0
H207 H 0.97411 0.63288 0.4023 0.0
C208 C 0.00713 0.7166 0.30442 0.0
N209 N 0.03387 0.71321 0.26246 0.0
C210 C 0.03506 0.69989 0.30117 0.0
C211 C 0.99284 0.73162 0.28633 0.0
C212 C 0.04819 0.69844 0.27983 0.0
C213 C 0.00672 0.72963 0.26525 0.0
C214 C 0.04078 0.64215 0.35982 0.0
C215 C 0.07217 0.63267 0.361 0.0
C216 C 0.0169 0.62007 0.36316 0.0
C217 C 0.07917 0.6012 0.36554 0.0
C218 C 0.02486 0.58883 0.36766 0.0
N219 N 0.05557 0.58011 0.36875 0.0
C220 C 0.08819 0.73871 0.357 0.0
C221 C 0.06338 0.76532 0.32702 0.0
C222 C 0.11399 0.75897 0.35577 0.0
N223 N 0.06342 0.74251 0.34294 0.0
C224 C 0.08868 0.78599 0.32517 0.0
C225 C 0.11417 0.7833 0.33991 0.0
H226 H 0.08726 0.72077 0.36979 0.0
H227 H 0.04313 0.7684 0.31637 0.0
C228 C 0.95348 0.64274 0.31128 0.0
N229 N 0.98436 0.64391 0.31679 0.0
C230 C 0.94324 0.62299 0.29429 0.0
C231 C 0.99679 0.60534 0.28909 0.0
C232 C 0.00606 0.62554 0.30634 0.0
C233 C 0.96505 0.60439 0.2827 0.0
H234 H 0.93691 0.6579 0.31975 0.0
H235 H 0.03058 0.62725 0.31092 0.0
O236 O 0.00394 0.73366 0.37556 0.0
O237 O 0.9604 0.67836 0.36158 0.0
O238 O 0.99355 0.7182 0.32511 0.0
O239 O 0.03378 0.67293 0.35531 0.0
H240 H 0.01883 0.76499 0.41211 0.0
H241 H 0.99568 0.77466 0.34249 0.0
H242 H 0.02454 0.82299 0.41448 0.0
H243 H 0.00183 0.83235 0.34609 0.0
H244 H 0.86471 0.64297 0.38378 0.0
H245 H 0.95569 0.71156 0.3991 0.0
H246 H 0.90931 0.64382 0.35708 0.0
H247 H 0.91042 0.70948 0.42502 0.0
H248 H 0.89378 0.79979 0.38473 0.0
H249 H 0.88682 0.78098 0.31396 0.0
H250 H 0.03696 0.69704 0.4544 0.0
H251 H 0.97427 0.61887 0.44225 0.0
H252 H 0.04657 0.68816 0.31491 0.0
H253 H 0.97126 0.7447 0.28854 0.0
H254 H 0.06977 0.68557 0.27709 0.0
H255 H 0.99591 0.74114 0.2511 0.0
H256 H 0.09092 0.64948 0.35843 0.0
H257 H 0.99247 0.62684 0.36222 0.0
H258 H 0.10337 0.59353 0.36651 0.0
H259 H 0.00661 0.57151 0.37027 0.0
H260 H 0.13283 0.75656 0.3678 0.0
H261 H 0.0879 0.80453 0.31277 0.0
H262 H 0.91855 0.62277 0.2899 0.0
H263 H 0.0143 0.59162 0.2803 0.0
Li264 Li 0.30973 1.0 0.37536 0.0
Li265 Li 0.27651 0.02616 0.3471 0.0
Li266 Li 0.27635 0.96833 0.35095 0.0
Li267 Li 0.32169 0.99672 0.33543 0.0
C268 C 0.25089 0.00325 0.39354 0.0
N269 N 0.22779 0.01036 0.43633 0.0
C270 C 0.23622 0.03131 0.39983 0.0
C271 C 0.25361 0.97873 0.40897 0.0
C272 C 0.22472 0.03445 0.42155 0.0
C273 C 0.24186 0.98281 0.43054 0.0
C274 C 0.34838 0.04873 0.34879 0.0
C275 C 0.37921 0.07882 0.32265 0.0
N276 N 0.40505 0.07436 0.33564 0.0
C277 C 0.37515 0.04458 0.36196 0.0
C278 C 0.35031 0.06613 0.32905 0.0
C279 C 0.40361 0.05769 0.355 0.0
C280 C 0.34658 0.98096 0.41244 0.0
N281 N 0.32585 0.00284 0.40493 0.0
C282 C 0.32158 0.02523 0.44132 0.0
C283 C 0.3146 0.0257 0.41859 0.0
C284 C 0.34143 0.00174 0.44997 0.0
C285 C 0.35519 0.98033 0.43495 0.0
H286 H 0.35586 0.96353 0.40106 0.0
H287 H 0.29893 0.04344 0.41203 0.0
C288 C 0.21825 0.05474 0.33954 0.0
N289 N 0.24922 0.06101 0.34272 0.0
C290 C 0.19648 0.07917 0.3384 0.0
C291 C 0.23873 0.11621 0.34441 0.0
C292 C 0.25984 0.09099 0.34499 0.0
C293 C 0.20649 0.11042 0.34119 0.0
H294 H 0.21032 0.03063 0.33854 0.0
H295 H 0.28452 0.09521 0.3481 0.0
C296 C 0.32521 0.93074 0.35798 0.0
N297 N 0.33036 0.86597 0.35724 0.0
C298 C 0.33662 0.91551 0.33896 0.0
C299 C 0.31664 0.91307 0.37668 0.0
C300 C 0.33903 0.88273 0.33892 0.0
C301 C 0.31933 0.88033 0.37595 0.0
C302 C 0.2584 0.00429 0.30754 0.0
C303 C 0.22964 0.98911 0.30428 0.0
C304 C 0.26576 0.03096 0.29494 0.0
C305 C 0.20852 0.00111 0.28859 0.0
C306 C 0.244 0.04225 0.27944 0.0
N307 N 0.21607 0.02723 0.27662 0.0
C308 C 0.22513 0.93024 0.36295 0.0
C309 C 0.25522 0.90978 0.33301 0.0
C310 C 0.20416 0.90517 0.36149 0.0
N311 N 0.25015 0.93203 0.34893 0.0
C312 C 0.23481 0.88414 0.33099 0.0
C313 C 0.20882 0.88176 0.34533 0.0
H314 H 0.22097 0.94865 0.37497 0.0
H315 H 0.27467 0.9123 0.32156 0.0
C316 C 0.38425 0.98564 0.32135 0.0
N317 N 0.35462 0.99207 0.3142 0.0
C318 C 0.40734 0.97635 0.30614 0.0
C319 C 0.36918 0.98128 0.27648 0.0
C320 C 0.34692 0.99069 0.29222 0.0
C321 C 0.39969 0.97328 0.28343 0.0
H322 H 0.38949 0.98606 0.33901 0.0
H323 H 0.32301 0.99504 0.28705 0.0
O324 O 0.26266 0.99989 0.37241 0.0
O325 O 0.32046 0.03563 0.35511 0.0
O326 O 0.32231 0.96277 0.35828 0.0
O327 O 0.27925 0.99308 0.32297 0.0
H328 H 0.23397 0.05057 0.38814 0.0
H329 H 0.26491 0.95688 0.40438 0.0
H330 H 0.21343 0.05607 0.42668 0.0
H331 H 0.24399 0.96411 0.44269 0.0
H332 H 0.38112 0.09219 0.30736 0.0
H333 H 0.37402 0.03115 0.37728 0.0
H334 H 0.32974 0.06962 0.31873 0.0
H335 H 0.42458 0.05454 0.36495 0.0
H336 H 0.31042 0.04236 0.45209 0.0
H337 H 0.37189 0.96281 0.44051 0.0
H338 H 0.17192 0.07359 0.33586 0.0
H339 H 0.24742 0.13977 0.34734 0.0
H340 H 0.34323 0.92879 0.3243 0.0
H341 H 0.30789 0.9245 0.39156 0.0
H342 H 0.34767 0.87062 0.32428 0.0
H343 H 0.31265 0.86634 0.39027 0.0
H344 H 0.22357 0.96843 0.31388 0.0
H345 H 0.28793 0.04295 0.29726 0.0
H346 H 0.18611 0.98971 0.28596 0.0
H347 H 0.2493 0.06299 0.26967 0.0
H348 H 0.1843 0.90422 0.37278 0.0
H349 H 0.23876 0.86694 0.31796 0.0
H350 H 0.43052 0.97021 0.3122 0.0
H351 H 0.3619 0.97829 0.2593 0.0
Li352 Li 0.00722 0.67668 0.66143 0.0
Li353 Li 0.97378 0.71921 0.65044 0.0
Li354 Li 0.00121 0.68868 0.62267 0.0
Li355 Li 0.02973 0.72445 0.64659 0.0
C356 C 0.96131 0.64297 0.6388 0.0
N357 N 0.94798 0.58078 0.62927 0.0
C358 C 0.93015 0.63286 0.63729 0.0
C359 C 0.98571 0.62143 0.63547 0.0
C360 C 0.92389 0.60132 0.63246 0.0
C361 C 0.97848 0.59011 0.63067 0.0
C362 C 0.99164 0.71779 0.69513 0.0
C363 C 0.99069 0.73078 0.7343 0.0
N364 N 0.96379 0.71384 0.73669 0.0
C365 C 0.96397 0.70051 0.69797 0.0
C366 C 0.00513 0.73304 0.71342 0.0
C367 C 0.95027 0.6988 0.71911 0.0
C368 C 0.04592 0.64557 0.69018 0.0
N369 N 0.01562 0.64544 0.68316 0.0
C370 C 0.00242 0.6056 0.70976 0.0
C371 C 0.99385 0.62589 0.69238 0.0
C372 C 0.0335 0.60588 0.71763 0.0
C373 C 0.05542 0.62589 0.70744 0.0
H374 H 0.06254 0.66164 0.68266 0.0
H375 H 0.96976 0.62664 0.68667 0.0
C376 C 0.91469 0.741 0.63827 0.0
N377 N 0.93652 0.74317 0.65475 0.0
C378 C 0.88922 0.76168 0.63778 0.0
C379 C 0.90845 0.78556 0.67176 0.0
C380 C 0.93376 0.76466 0.67147 0.0
C381 C 0.88632 0.78467 0.65444 0.0
H382 H 0.9179 0.7241 0.62496 0.0
H383 H 0.95194 0.76673 0.68395 0.0
C384 C 0.06653 0.68049 0.62493 0.0
N385 N 0.1181 0.68046 0.59691 0.0
C386 C 0.06684 0.69948 0.60588 0.0
C387 C 0.09245 0.66147 0.62971 0.0
C388 C 0.09312 0.69914 0.59193 0.0
C389 C 0.1183 0.66178 0.61534 0.0
C390 C 0.99334 0.7668 0.62246 0.0
C391 C 0.98506 0.78016 0.60199 0.0
C392 C 0.99692 0.7861 0.64119 0.0
C393 C 0.98043 0.81264 0.60059 0.0
C394 C 0.9921 0.81846 0.63911 0.0
N395 N 0.984 0.83096 0.61902 0.0
C396 C 0.97858 0.68944 0.57935 0.0
C397 C 0.01583 0.64882 0.58536 0.0
C398 C 0.97729 0.68239 0.55666 0.0
N399 N 0.99806 0.67312 0.59305 0.0
C400 C 0.01528 0.64095 0.56271 0.0
C401 C 0.9961 0.65812 0.54803 0.0
H402 H 0.96481 0.70868 0.58598 0.0
H403 H 0.03121 0.63626 0.59662 0.0
C404 C 0.07937 0.75533 0.66857 0.0
N405 N 0.06444 0.75254 0.64861 0.0
C406 C 0.10452 0.77618 0.67096 0.0
C407 C 0.09873 0.79046 0.63211 0.0
C408 C 0.07355 0.76959 0.63053 0.0
C409 C 0.11451 0.79391 0.65252 0.0
H410 H 0.07159 0.74145 0.68265 0.0
H411 H 0.06108 0.76724 0.61491 0.0
O412 O 0.96759 0.67383 0.64352 0.0
O413 O 0.00584 0.71957 0.67468 0.0
O414 O 0.04114 0.68035 0.63894 0.0
O415 O 0.99725 0.73491 0.62412 0.0
H416 H 0.91101 0.64925 0.63983 0.0
H417 H 0.00997 0.62869 0.63664 0.0
H418 H 0.89987 0.59318 0.63124 0.0
H419 H 0.99713 0.57321 0.62807 0.0
H420 H 0.00088 0.74247 0.7486 0.0
H421 H 0.95312 0.68856 0.68405 0.0
H422 H 0.02656 0.74648 0.71151 0.0
H423 H 0.92887 0.68551 0.72155 0.0
H424 H 0.98482 0.59074 0.71745 0.0
H425 H 0.07962 0.62664 0.71303 0.0
H426 H 0.87247 0.76033 0.62421 0.0
H427 H 0.90708 0.80328 0.68471 0.0
H428 H 0.04699 0.71428 0.60184 0.0
H429 H 0.09256 0.6466 0.64438 0.0
H430 H 0.09365 0.71371 0.57714 0.0
H431 H 0.13853 0.64718 0.61885 0.0
H432 H 0.98216 0.76558 0.58733 0.0
H433 H 0.00321 0.77624 0.65721 0.0
H434 H 0.97396 0.82329 0.58485 0.0
H435 H 0.99472 0.83364 0.65348 0.0
H436 H 0.96276 0.6967 0.54584 0.0
H437 H 0.03018 0.62214 0.55664 0.0
H438 H 0.11614 0.77835 0.68697 0.0
H439 H 0.1054 0.80422 0.61766 0.0
Li440 Li 0.27785 0.03386 0.64656 0.0
Li441 Li 0.32338 0.00525 0.66195 0.0
Li442 Li 0.31152 0.00159 0.62196 0.0
Li443 Li 0.27846 0.97612 0.65067 0.0
C444 C 0.33071 0.07037 0.63872 0.0
N445 N 0.34533 0.1337 0.63818 0.0
C446 C 0.34289 0.08486 0.6578 0.0
C447 C 0.3262 0.08805 0.61932 0.0
C448 C 0.3501 0.1169 0.6572 0.0
C449 C 0.33363 0.12006 0.61941 0.0
C450 C 0.25904 0.99725 0.68908 0.0
C451 C 0.24325 0.95831 0.71611 0.0
N452 N 0.21447 0.9721 0.71744 0.0
C453 C 0.22939 0.01116 0.6908 0.0
C454 C 0.26614 0.97073 0.70192 0.0
C455 C 0.20715 0.99806 0.70522 0.0
C456 C 0.22294 0.06827 0.63782 0.0
N457 N 0.25138 0.07015 0.64804 0.0
C458 C 0.23991 0.12235 0.66061 0.0
C459 C 0.25987 0.09624 0.65973 0.0
C460 C 0.21085 0.12136 0.64955 0.0
C461 C 0.20226 0.0937 0.63832 0.0
H462 H 0.21599 0.04681 0.62956 0.0
H463 H 0.28192 0.09673 0.66859 0.0
C464 C 0.38597 0.01653 0.67605 0.0
N465 N 0.35636 0.00978 0.6831 0.0
C466 C 0.40893 0.0256 0.69142 0.0
C467 C 0.37081 0.01929 0.72099 0.0
C468 C 0.34865 0.01025 0.70509 0.0
C469 C 0.40107 0.02814 0.71411 0.0
H470 H 0.39127 0.0165 0.65841 0.0
H471 H 0.32481 0.00533 0.71019 0.0
C472 C 0.25118 0.00417 0.60457 0.0
N473 N 0.22472 0.00842 0.5626 0.0
C474 C 0.23362 0.97914 0.59603 0.0
C475 C 0.25511 0.03143 0.59185 0.0
C476 C 0.22047 0.98173 0.57475 0.0
C477 C 0.2416 0.03311 0.57064 0.0
C478 C 0.35054 0.9537 0.64867 0.0
C479 C 0.37681 0.95742 0.63494 0.0
C480 C 0.35333 0.93738 0.66882 0.0
C481 C 0.40564 0.94492 0.64173 0.0
C482 C 0.38258 0.92528 0.67502 0.0
N483 N 0.4079 0.92928 0.66147 0.0
C484 C 0.34854 0.01765 0.5838 0.0
C485 C 0.31265 0.97558 0.57924 0.0
C486 C 0.3565 0.01638 0.56116 0.0
N487 N 0.32649 0.99779 0.5922 0.0
C488 C 0.3191 0.97413 0.55648 0.0
C489 C 0.34124 0.99477 0.54704 0.0
H490 H 0.35947 0.03488 0.59457 0.0
H491 H 0.29557 0.95975 0.58645 0.0
C492 C 0.21996 0.94696 0.65471 0.0
N493 N 0.25137 0.94127 0.65511 0.0
C494 C 0.19866 0.92215 0.65616 0.0
C495 C 0.24243 0.88598 0.65838 0.0
C496 C 0.26295 0.91159 0.65708 0.0
C497 C 0.20986 0.89118 0.65765 0.0
H498 H 0.2115 0.97079 0.65272 0.0
H499 H 0.28806 0.90777 0.65713 0.0
O500 O 0.32377 0.03895 0.6389 0.0
O501 O 0.28092 0.00935 0.67474 0.0
O502 O 0.26472 0.00182 0.62521 0.0
O503 O 0.32227 0.96623 0.6425 0.0
H504 H 0.34634 0.07168 0.67303 0.0
H505 H 0.31715 0.07719 0.60433 0.0
H506 H 0.3594 0.12844 0.67187 0.0
H507 H 0.33018 0.13404 0.60452 0.0
H508 H 0.24833 0.93765 0.72601 0.0
H509 H 0.22351 0.03171 0.68101 0.0
H510 H 0.28895 0.95962 0.70071 0.0
H511 H 0.18405 0.00848 0.70664 0.0
H512 H 0.24714 0.14309 0.66976 0.0
H513 H 0.17955 0.09153 0.63032 0.0
H514 H 0.43214 0.0319 0.68551 0.0
H515 H 0.36373 0.02123 0.7383 0.0
H516 H 0.23045 0.95783 0.60566 0.0
H517 H 0.26848 0.05104 0.59829 0.0
H518 H 0.20695 0.9625 0.56787 0.0
H519 H 0.24454 0.05403 0.56058 0.0
H520 H 0.37502 0.97003 0.61931 0.0
H521 H 0.3332 0.93436 0.67963 0.0
H522 H 0.42622 0.94773 0.63133 0.0
H523 H 0.38515 0.91276 0.69063 0.0
H524 H 0.37387 0.0326 0.5547 0.0
H525 H 0.30581 0.95783 0.54633 0.0
H526 H 0.1737 0.927 0.65535 0.0
H527 H 0.25187 0.86239 0.65969 0.0
Li528 Li 0.99304 0.32461 0.66056 0.0
Li529 Li 0.02828 0.2836 0.64972 0.0
Li530 Li 0.00043 0.31342 0.62184 0.0
Li531 Li 0.97247 0.27636 0.64512 0.0
C532 C 0.03812 0.36046 0.63884 0.0
N533 N 0.04917 0.42331 0.63007 0.0
C534 C 0.06888 0.37182 0.63775 0.0
C535 C 0.01296 0.38109 0.63548 0.0
C536 C 0.07399 0.40367 0.63329 0.0
C537 C 0.01904 0.41277 0.63106 0.0
C538 C 0.0089 0.28341 0.69417 0.0
C539 C 0.00792 0.27082 0.7334 0.0
N540 N 0.03476 0.28766 0.73635 0.0
C541 C 0.03649 0.30061 0.69759 0.0
C542 C 0.99448 0.2684 0.7122 0.0
C543 C 0.04919 0.30247 0.71904 0.0
C544 C 0.95219 0.35428 0.68851 0.0
N545 N 0.98292 0.35498 0.6825 0.0
C546 C 0.99412 0.39328 0.71063 0.0
C547 C 0.00391 0.37419 0.69289 0.0
C548 C 0.96269 0.39203 0.71766 0.0
C549 C 0.94148 0.37281 0.70604 0.0
H550 H 0.93619 0.33856 0.68002 0.0
H551 H 0.02832 0.37399 0.68787 0.0
C552 C 0.09055 0.26718 0.64065 0.0
N553 N 0.06626 0.26112 0.65472 0.0
C554 C 0.11695 0.24767 0.64053 0.0
C555 C 0.0933 0.21683 0.66998 0.0
C556 C 0.06742 0.23698 0.66959 0.0
C557 C 0.11804 0.22152 0.65485 0.0
H558 H 0.08876 0.28634 0.62884 0.0
H559 H 0.04753 0.23228 0.6803 0.0
C560 C 0.93507 0.31924 0.62308 0.0
N561 N 0.88478 0.31782 0.59393 0.0
C562 C 0.93566 0.29937 0.60449 0.0
C563 C 0.90891 0.33838 0.62683 0.0
C564 C 0.91001 0.299 0.58995 0.0
C565 C 0.88372 0.33733 0.6119 0.0
C566 C 0.01138 0.23563 0.62116 0.0
C567 C 0.02206 0.22317 0.60096 0.0
C568 C 0.00677 0.21566 0.63942 0.0
C569 C 0.02805 0.19093 0.59937 0.0
C570 C 0.01301 0.18356 0.63715 0.0
N571 N 0.02345 0.17196 0.61735 0.0
C572 C 0.02332 0.31385 0.57853 0.0
C573 C 0.98463 0.35304 0.58468 0.0
C574 C 0.02405 0.32083 0.55581 0.0
N575 N 0.00333 0.32942 0.59231 0.0
C576 C 0.9846 0.36083 0.56202 0.0
C577 C 0.00417 0.34427 0.54724 0.0
H578 H 0.03787 0.29517 0.58511 0.0
H579 H 0.96888 0.36503 0.596 0.0
C580 C 0.92125 0.2471 0.66599 0.0
N581 N 0.93822 0.24764 0.64678 0.0
C582 C 0.89594 0.22643 0.66828 0.0
C583 C 0.90604 0.2074 0.63095 0.0
C584 C 0.93107 0.22845 0.62935 0.0
C585 C 0.88802 0.20633 0.65057 0.0
H586 H 0.92743 0.26276 0.67952 0.0
H587 H 0.94493 0.22931 0.61425 0.0
O588 O 0.03298 0.3293 0.64324 0.0
O589 O 0.99564 0.28159 0.67342 0.0
O590 O 0.95983 0.32012 0.63764 0.0
O591 O 0.00601 0.26728 0.62303 0.0
H592 H 0.0886 0.35614 0.64033 0.0
H593 H 0.98898 0.37287 0.63634 0.0
H594 H 0.09769 0.41277 0.6324 0.0
H595 H 0.9998 0.42898 0.62844 0.0
H596 H 0.99699 0.25933 0.74752 0.0
H597 H 0.04797 0.31248 0.68388 0.0
H598 H 0.97306 0.25507 0.70984 0.0
H599 H 0.0705 0.31572 0.72192 0.0
H600 H 0.01105 0.4079 0.71927 0.0
H601 H 0.91696 0.37163 0.71083 0.0
H602 H 0.13582 0.25237 0.62888 0.0
H603 H 0.0932 0.19681 0.68117 0.0
H604 H 0.95571 0.28448 0.60121 0.0
H605 H 0.90812 0.35392 0.64113 0.0
H606 H 0.91018 0.28376 0.57549 0.0
H607 H 0.86332 0.35203 0.61461 0.0
H608 H 0.02575 0.23825 0.58665 0.0
H609 H 0.99859 0.2248 0.65522 0.0
H610 H 0.03639 0.18099 0.58384 0.0
H611 H 0.00961 0.16788 0.65117 0.0
H612 H 0.03895 0.307 0.54494 0.0
H613 H 0.96891 0.37902 0.55601 0.0
H614 H 0.88259 0.2263 0.68367 0.0
H615 H 0.90115 0.19178 0.6171 0.0
Li616 Li 0.72165 0.02673 0.65248 0.0
Li617 Li 0.68905 1.00007 0.62249 0.0
Li618 Li 0.67677 0.99481 0.66186 0.0
Li619 Li 0.72205 0.96827 0.64787 0.0
C620 C 0.65008 0.04698 0.6515 0.0
N621 N 0.59451 0.06996 0.66879 0.0
C622 C 0.62164 0.0406 0.64078 0.0
C623 C 0.65035 0.06514 0.67093 0.0
C624 C 0.59376 0.05241 0.64981 0.0
C625 C 0.62197 0.07652 0.67943 0.0
C626 C 0.7566 0.00104 0.60986 0.0
C627 C 0.78499 0.97432 0.58062 0.0
N628 N 0.79978 0.00171 0.57541 0.0
C629 C 0.77224 0.02889 0.6043 0.0
C630 C 0.76313 0.97349 0.598 0.0
C631 C 0.79391 0.02876 0.58679 0.0
C632 C 0.77852 0.0559 0.66271 0.0
N633 N 0.748 0.06167 0.6575 0.0
C634 C 0.75828 0.11665 0.65393 0.0
C635 C 0.73742 0.09129 0.65345 0.0
C636 C 0.79026 0.11126 0.65832 0.0
C637 C 0.80018 0.08052 0.66327 0.0
H638 H 0.78623 0.03196 0.66549 0.0
H639 H 0.71304 0.09504 0.64911 0.0
C640 C 0.64941 0.98942 0.58457 0.0
N641 N 0.6752 0.00469 0.59247 0.0
C642 C 0.64155 0.99134 0.56193 0.0
C643 C 0.68653 0.02508 0.55626 0.0
C644 C 0.69311 0.02298 0.57896 0.0
C645 C 0.66046 0.00911 0.54739 0.0
H646 H 0.63536 0.97524 0.59576 0.0
H647 H 0.71298 0.03549 0.58572 0.0
C648 C 0.72096 0.97399 0.69383 0.0
N649 N 0.72439 0.93417 0.73019 0.0
C650 C 0.70341 0.9462 0.69424 0.0
C651 C 0.74031 0.98149 0.7119 0.0
C652 C 0.70543 0.9264 0.71278 0.0
C653 C 0.74172 0.96105 0.73013 0.0
C654 C 0.67248 0.93293 0.62923 0.0
C655 C 0.6548 0.91003 0.6403 0.0
C656 C 0.68503 0.92634 0.6082 0.0
C657 C 0.65029 0.88074 0.63024 0.0
C658 C 0.67997 0.89678 0.59868 0.0
N659 N 0.66288 0.87477 0.60981 0.0
C660 C 0.6172 0.97378 0.67498 0.0
C661 C 0.64663 0.99699 0.70426 0.0
C662 C 0.59517 0.96236 0.69018 0.0
N663 N 0.64294 0.98954 0.68235 0.0
C664 C 0.62531 0.98574 0.72008 0.0
C665 C 0.60006 0.96688 0.71313 0.0
H666 H 0.61481 0.96844 0.65741 0.0
H667 H 0.6673 0.0097 0.70963 0.0
C668 C 0.78091 0.93951 0.64702 0.0
N669 N 0.74984 0.93308 0.64964 0.0
C670 C 0.80303 0.9153 0.64749 0.0
C671 C 0.76102 0.87836 0.65453 0.0
C672 C 0.73964 0.90328 0.65367 0.0
C673 C 0.79307 0.88427 0.65107 0.0
H674 H 0.78849 0.96351 0.64444 0.0
H675 H 0.71499 0.89876 0.65634 0.0
O676 O 0.67747 0.03488 0.64328 0.0
O677 O 0.73537 0.0008 0.62704 0.0
O678 O 0.71931 0.9939 0.67593 0.0
O679 O 0.67724 0.96165 0.63896 0.0
H680 H 0.62109 0.0264 0.62579 0.0
H681 H 0.67221 0.07006 0.67948 0.0
H682 H 0.57154 0.04755 0.64177 0.0
H683 H 0.62176 0.09047 0.69452 0.0
H684 H 0.79028 0.95315 0.57133 0.0
H685 H 0.76747 0.05046 0.61325 0.0
H686 H 0.75181 0.95158 0.60231 0.0
H687 H 0.80605 0.05017 0.58224 0.0
H688 H 0.74962 0.1401 0.65044 0.0
H689 H 0.82467 0.07539 0.6666 0.0
H690 H 0.6212 0.97872 0.55582 0.0
H691 H 0.7024 0.03828 0.5457 0.0
H692 H 0.68824 0.94008 0.68047 0.0
H693 H 0.75406 0.00291 0.71182 0.0
H694 H 0.69188 0.90489 0.71333 0.0
H695 H 0.75659 0.96656 0.74424 0.0
H696 H 0.64489 0.91471 0.6566 0.0
H697 H 0.69832 0.9439 0.59925 0.0
H698 H 0.6368 0.86275 0.63867 0.0
H699 H 0.68958 0.89136 0.58241 0.0
H700 H 0.57556 0.94851 0.68416 0.0
H701 H 0.62985 0.98975 0.73764 0.0
H702 H 0.82768 0.92079 0.64525 0.0
H703 H 0.75259 0.8547 0.65754 0.0
Li704 Li 0.53086 0.77286 0.85221 0.0
Li705 Li 0.50361 0.80961 0.87751 0.0
Li706 Li 0.47542 0.77938 0.85007 0.0
Li707 Li 0.51008 0.82203 0.8381 0.0
C708 C 0.47969 0.74226 0.88498 0.0
N709 N 0.43643 0.70047 0.90244 0.0
C710 C 0.46007 0.75143 0.90252 0.0
C711 C 0.47757 0.71168 0.87652 0.0
C712 C 0.43832 0.72998 0.91109 0.0
C713 C 0.45545 0.69096 0.8855 0.0
C714 C 0.55615 0.84457 0.86643 0.0
C715 C 0.55025 0.89958 0.87534 0.0
N716 N 0.58194 0.90203 0.87773 0.0
C717 C 0.58864 0.84762 0.86894 0.0
C718 C 0.53675 0.87074 0.86962 0.0
C719 C 0.60123 0.87688 0.87468 0.0
C720 C 0.58873 0.75062 0.83505 0.0
N721 N 0.56555 0.74488 0.85014 0.0
C722 C 0.5915 0.69828 0.86255 0.0
C723 C 0.56656 0.71948 0.86388 0.0
C724 C 0.61563 0.70341 0.847 0.0
C725 C 0.61402 0.72986 0.83303 0.0
H726 H 0.58737 0.77117 0.82445 0.0
H727 H 0.54795 0.71566 0.87584 0.0
C728 C 0.47739 0.83902 0.91573 0.0
N729 N 0.50342 0.825 0.90714 0.0
C730 C 0.47584 0.84596 0.93849 0.0
C731 C 0.52854 0.82549 0.94276 0.0
C732 C 0.52898 0.81874 0.91997 0.0
C733 C 0.50138 0.83843 0.95235 0.0
H734 H 0.45734 0.84347 0.90509 0.0
H735 H 0.54922 0.80734 0.91264 0.0
C736 C 0.51914 0.76076 0.80923 0.0
N737 N 0.54818 0.72277 0.77795 0.0
C738 C 0.53198 0.77388 0.78988 0.0
C739 C 0.5205 0.7282 0.8124 0.0
C740 C 0.54669 0.75431 0.77432 0.0
C741 C 0.53546 0.70942 0.79649 0.0
C742 C 0.44717 0.83852 0.84448 0.0
C743 C 0.44009 0.82674 0.82326 0.0
C744 C 0.42978 0.86364 0.85306 0.0
C745 C 0.41574 0.8404 0.81099 0.0
C746 C 0.40564 0.87668 0.84025 0.0
N747 N 0.39918 0.86488 0.81966 0.0
C748 C 0.41209 0.76365 0.85898 0.0
C749 C 0.43551 0.7342 0.82979 0.0
C750 C 0.38521 0.74485 0.85817 0.0
N751 N 0.43681 0.75751 0.84528 0.0
C752 C 0.40911 0.71485 0.82839 0.0
C753 C 0.38374 0.71975 0.84297 0.0
H754 H 0.41382 0.78234 0.87116 0.0
H755 H 0.45541 0.72984 0.81909 0.0
C756 C 0.55064 0.85056 0.80943 0.0
N757 N 0.52078 0.85394 0.81706 0.0
C758 C 0.56205 0.8701 0.79267 0.0
C759 C 0.5124 0.89773 0.79266 0.0
C760 C 0.50183 0.87746 0.80949 0.0
C761 C 0.54258 0.8935 0.7837 0.0
H762 H 0.5653 0.83193 0.81597 0.0
H763 H 0.47845 0.8803 0.81615 0.0
O764 O 0.50051 0.76325 0.87592 0.0
O765 O 0.54361 0.81608 0.86067 0.0
O766 O 0.50487 0.77965 0.82474 0.0
O767 O 0.4707 0.82553 0.85702 0.0
H768 H 0.46129 0.77495 0.90927 0.0
H769 H 0.49256 0.7041 0.863 0.0
H770 H 0.42285 0.73686 0.92456 0.0
H771 H 0.45335 0.66734 0.87895 0.0
H772 H 0.53554 0.92002 0.87787 0.0
H773 H 0.60394 0.82758 0.86645 0.0
H774 H 0.51157 0.86889 0.86768 0.0
H775 H 0.62634 0.87959 0.87668 0.0
H776 H 0.59175 0.67788 0.87339 0.0
H777 H 0.63226 0.73454 0.82087 0.0
H778 H 0.45461 0.8562 0.94533 0.0
H779 H 0.54858 0.81918 0.95296 0.0
H780 H 0.53033 0.79884 0.78673 0.0
H781 H 0.51058 0.71758 0.82718 0.0
H782 H 0.55682 0.76421 0.75933 0.0
H783 H 0.53701 0.68425 0.79891 0.0
H784 H 0.45321 0.80737 0.81625 0.0
H785 H 0.43495 0.87301 0.86946 0.0
H786 H 0.41004 0.83155 0.79456 0.0
H787 H 0.39203 0.89617 0.84668 0.0
H788 H 0.3661 0.74937 0.86967 0.0
H789 H 0.40918 0.6954 0.81673 0.0
H790 H 0.58572 0.86662 0.7865 0.0
H791 H 0.49692 0.91583 0.78625 0.0
Li792 Li 0.17118 0.51094 0.83833 0.0
Li793 Li 0.21697 0.53802 0.85129 0.0
Li794 Li 0.21672 0.47827 0.84527 0.0
Li795 Li 0.18671 0.50465 0.87661 0.0
C796 C 0.20826 0.51859 0.80129 0.0
N797 N 0.19798 0.52963 0.75645 0.0
C798 C 0.19565 0.54728 0.79425 0.0
C799 C 0.21581 0.49557 0.78552 0.0
C800 C 0.19054 0.55238 0.77151 0.0
C801 C 0.21043 0.5016 0.76292 0.0
C802 C 0.17155 0.57529 0.86587 0.0
C803 C 0.18216 0.61985 0.88965 0.0
N804 N 0.16965 0.63931 0.87398 0.0
C805 C 0.15869 0.59575 0.85003 0.0
C806 C 0.18326 0.58744 0.88588 0.0
C807 C 0.15796 0.62802 0.85444 0.0
C808 C 0.11195 0.53475 0.82684 0.0
N809 N 0.13504 0.51534 0.81938 0.0
C810 C 0.1107 0.51206 0.78352 0.0
C811 C 0.13369 0.50232 0.79866 0.0
C812 C 0.08863 0.53482 0.79006 0.0
C813 C 0.08846 0.54499 0.81235 0.0
H814 H 0.11287 0.54382 0.84368 0.0
H815 H 0.15159 0.48595 0.79337 0.0
C816 C 0.27269 0.5714 0.85981 0.0
N817 N 0.24445 0.57375 0.84934 0.0
C818 C 0.29424 0.5961 0.85888 0.0
C819 C 0.25757 0.62527 0.83613 0.0
C820 C 0.23676 0.59991 0.83743 0.0
C821 C 0.28683 0.62344 0.84686 0.0
H822 H 0.27878 0.55013 0.86864 0.0
H823 H 0.21459 0.6012 0.82881 0.0
C824 C 0.14696 0.45657 0.84803 0.0
N825 N 0.09275 0.43006 0.83115 0.0
C826 C 0.11795 0.46336 0.85781 0.0
C827 C 0.14851 0.43618 0.82978 0.0
C828 C 0.09078 0.44976 0.84899 0.0
C829 C 0.1208 0.42302 0.82147 0.0
C830 C 0.24797 0.49873 0.89062 0.0
C831 C 0.26173 0.4695 0.89498 0.0
C832 C 0.2495 0.52246 0.90673 0.0
C833 C 0.27626 0.46431 0.91556 0.0
C834 C 0.26418 0.51634 0.92713 0.0
N835 N 0.27712 0.48762 0.93109 0.0
C836 C 0.26941 0.44952 0.8264 0.0
C837 C 0.2363 0.41483 0.84661 0.0
C838 C 0.29187 0.4259 0.82378 0.0
N839 N 0.24263 0.44373 0.83802 0.0
C840 C 0.25827 0.39057 0.84455 0.0
C841 C 0.28689 0.3963 0.8336 0.0
H842 H 0.27383 0.47286 0.81993 0.0
H843 H 0.21495 0.41112 0.85604 0.0
C844 C 0.15534 0.52036 0.91699 0.0
N845 N 0.17428 0.49895 0.90682 0.0
C846 C 0.14969 0.51838 0.93992 0.0
C847 C 0.18179 0.47146 0.94115 0.0
C848 C 0.18634 0.47404 0.91818 0.0
C849 C 0.16379 0.49418 0.95227 0.0
H850 H 0.14541 0.53952 0.90746 0.0
H851 H 0.20047 0.4568 0.90953 0.0
O852 O 0.21328 0.51301 0.82347 0.0
O853 O 0.17261 0.54358 0.86184 0.0
O854 O 0.17369 0.4703 0.85603 0.0
O855 O 0.23317 0.50406 0.87068 0.0
H856 H 0.18918 0.56509 0.80624 0.0
H857 H 0.2255 0.47319 0.79071 0.0
H858 H 0.1805 0.57436 0.76585 0.0
H859 H 0.21606 0.48397 0.75054 0.0
H860 H 0.19123 0.62953 0.90505 0.0
H861 H 0.14989 0.58698 0.83431 0.0
H862 H 0.19305 0.57205 0.89841 0.0
H863 H 0.14827 0.6441 0.84226 0.0
H864 H 0.11178 0.50372 0.76647 0.0
H865 H 0.07152 0.5622 0.81809 0.0
H866 H 0.31673 0.5936 0.86715 0.0
H867 H 0.25079 0.64609 0.8269 0.0
H868 H 0.11645 0.47924 0.8719 0.0
H869 H 0.17084 0.43087 0.82198 0.0
H870 H 0.06811 0.45492 0.85629 0.0
H871 H 0.12158 0.40733 0.80728 0.0
H872 H 0.26102 0.45091 0.88269 0.0
H873 H 0.23949 0.54536 0.90353 0.0
H874 H 0.28682 0.44174 0.91919 0.0
H875 H 0.26532 0.53443 0.93979 0.0
H876 H 0.31333 0.43102 0.81478 0.0
H877 H 0.25363 0.36809 0.8524 0.0
H878 H 0.13569 0.5363 0.94807 0.0
H879 H 0.1928 0.45237 0.95023 0.0
Li880 Li 0.4642 0.22606 0.84617 0.0
Li881 Li 0.49232 0.19068 0.87336 0.0
Li882 Li 0.5213 0.21881 0.84481 0.0
Li883 Li 0.49036 0.17457 0.83535 0.0
C884 C 0.51353 0.25871 0.8789 0.0
N885 N 0.55336 0.30309 0.89716 0.0
C886 C 0.53715 0.24951 0.89374 0.0
C887 C 0.51001 0.29049 0.87346 0.0
C888 C 0.5571 0.2723 0.90275 0.0
C889 C 0.53042 0.31257 0.88286 0.0
C890 C 0.43372 0.17024 0.87128 0.0
C891 C 0.41856 0.12898 0.89673 0.0
N892 N 0.39442 0.14717 0.90414 0.0
C893 C 0.40859 0.18841 0.879 0.0
C894 C 0.43859 0.14017 0.88006 0.0
C895 C 0.38905 0.17636 0.89567 0.0
C896 C 0.41298 0.25578 0.82381 0.0
N897 N 0.4305 0.25473 0.84277 0.0
C898 C 0.40144 0.29728 0.85853 0.0
C899 C 0.42492 0.27454 0.8601 0.0
C900 C 0.38371 0.29982 0.83885 0.0
C901 C 0.38929 0.27835 0.82147 0.0
H902 H 0.4178 0.23946 0.81038 0.0
H903 H 0.43883 0.2727 0.87514 0.0
C904 C 0.51265 0.16036 0.91363 0.0
N905 N 0.49171 0.18056 0.90422 0.0
C906 C 0.51391 0.15707 0.93685 0.0
C907 C 0.4713 0.19443 0.93997 0.0
C908 C 0.47112 0.19729 0.91683 0.0
C909 C 0.49356 0.1749 0.9503 0.0
H910 H 0.52917 0.14782 0.9032 0.0
H911 H 0.45519 0.21365 0.9089 0.0
C912 C 0.50464 0.23159 0.80241 0.0
N913 N 0.53307 0.26312 0.76749 0.0
C914 C 0.53258 0.2202 0.79321 0.0
C915 C 0.49112 0.25901 0.79381 0.0
C916 C 0.54662 0.23648 0.77559 0.0
C917 C 0.50586 0.2746 0.77615 0.0
C918 C 0.54179 0.14804 0.84825 0.0
C919 C 0.56669 0.14904 0.83306 0.0
C920 C 0.53088 0.11901 0.85597 0.0
C921 C 0.57996 0.12089 0.82557 0.0
C922 C 0.54474 0.09138 0.84805 0.0
N923 N 0.56877 0.09288 0.83313 0.0
C924 C 0.58595 0.23284 0.84982 0.0
C925 C 0.55651 0.27247 0.83144 0.0
C926 C 0.61245 0.25222 0.85021 0.0
N927 N 0.55864 0.2433 0.84066 0.0
C928 C 0.5825 0.29241 0.83119 0.0
C929 C 0.61067 0.28254 0.84105 0.0
H930 H 0.58675 0.20999 0.85773 0.0
H931 H 0.53423 0.28093 0.82528 0.0
C932 C 0.45782 0.12242 0.81832 0.0
N933 N 0.48424 0.13992 0.81544 0.0
C934 C 0.44903 0.1002 0.80237 0.0
C935 C 0.49556 0.11327 0.78122 0.0
C936 C 0.50345 0.13528 0.79759 0.0
C937 C 0.46748 0.09618 0.78318 0.0
H938 H 0.44268 0.12679 0.83244 0.0
H939 H 0.52424 0.14946 0.79556 0.0
O940 O 0.49455 0.23661 0.86925 0.0
O941 O 0.45343 0.18184 0.85521 0.0
O942 O 0.49049 0.21601 0.8197 0.0
O943 O 0.5282 0.17532 0.85556 0.0
H944 H 0.54041 0.22497 0.89793 0.0
H945 H 0.49205 0.29795 0.86183 0.0
H946 H 0.57565 0.2655 0.91411 0.0
H947 H 0.52812 0.33721 0.87867 0.0
H948 H 0.42221 0.10584 0.90378 0.0
H949 H 0.4043 0.21162 0.87231 0.0
H950 H 0.45777 0.12571 0.87418 0.0
H951 H 0.36963 0.19024 0.9019 0.0
H952 H 0.39722 0.31277 0.87257 0.0
H953 H 0.37597 0.27948 0.80609 0.0
H954 H 0.53148 0.14185 0.94423 0.0
H955 H 0.45477 0.20808 0.94973 0.0
H956 H 0.54369 0.19942 0.79989 0.0
H957 H 0.46965 0.26834 0.80079 0.0
H958 H 0.56837 0.22803 0.76842 0.0
H959 H 0.4957 0.29589 0.76938 0.0
H960 H 0.57556 0.17127 0.82698 0.0
H961 H 0.51183 0.11782 0.86786 0.0
H962 H 0.59911 0.1213 0.8137 0.0
H963 H 0.53639 0.06875 0.85378 0.0
H964 H 0.63385 0.24395 0.85803 0.0
H965 H 0.58017 0.31589 0.82435 0.0
H966 H 0.42706 0.08766 0.8044 0.0
H967 H 0.51059 0.11052 0.76676 0.0
Li968 Li 0.77986 0.52288 0.84695 0.0
Li969 Li 0.81034 0.49481 0.87744 0.0
Li970 Li 0.82389 0.48904 0.83857 0.0
Li971 Li 0.77781 0.46303 0.8521 0.0
C972 C 0.85064 0.54185 0.84846 0.0
N973 N 0.90529 0.56611 0.83061 0.0
C974 C 0.87963 0.53439 0.85802 0.0
C975 C 0.84934 0.56174 0.82993 0.0
C976 C 0.90703 0.54686 0.84871 0.0
C977 C 0.87727 0.57376 0.82113 0.0
C978 C 0.74805 0.50145 0.89204 0.0
C979 C 0.73115 0.48286 0.92813 0.0
N980 N 0.71677 0.51094 0.9319 0.0
C981 C 0.73293 0.53006 0.89621 0.0
C982 C 0.74699 0.47758 0.90807 0.0
C983 C 0.71729 0.53441 0.91648 0.0
C984 C 0.72634 0.55484 0.83177 0.0
N985 N 0.75511 0.55875 0.84119 0.0
C986 C 0.7444 0.6129 0.8485 0.0
C987 C 0.76472 0.58712 0.8491 0.0
C988 C 0.714 0.60921 0.83978 0.0
C989 C 0.70532 0.58001 0.83075 0.0
H990 H 0.71927 0.53181 0.82596 0.0
H991 H 0.78761 0.58933 0.85678 0.0
C992 C 0.84794 0.47923 0.91483 0.0
N993 N 0.82471 0.4985 0.90738 0.0
C994 C 0.85626 0.47915 0.93739 0.0
C995 C 0.81735 0.5195 0.94393 0.0
C996 C 0.81057 0.5195 0.92119 0.0
C997 C 0.83992 0.49854 0.95248 0.0
H998 H 0.85954 0.46344 0.90332 0.0
H999 H 0.79318 0.53557 0.9147 0.0
C1000 C 0.78497 0.48553 0.80202 0.0
N1001 N 0.79247 0.47915 0.75646 0.0
C1002 C 0.79577 0.45716 0.79306 0.0
C1003 C 0.77782 0.51061 0.78782 0.0
C1004 C 0.79949 0.45443 0.76998 0.0
C1005 C 0.78178 0.50691 0.76482 0.0
C1006 C 0.82312 0.4245 0.86599 0.0
C1007 C 0.83354 0.40351 0.84962 0.0
C1008 C 0.81377 0.41303 0.8868 0.0
C1009 C 0.83408 0.37131 0.85429 0.0
C1010 C 0.81463 0.38067 0.89082 0.0
N1011 N 0.82467 0.36065 0.87461 0.0
C1012 C 0.88213 0.46363 0.82698 0.0
C1013 C 0.86092 0.49537 0.79822 0.0
C1014 C 0.90538 0.4524 0.81267 0.0
N1015 N 0.85941 0.48323 0.8192 0.0
C1016 C 0.88346 0.48433 0.78318 0.0
C1017 C 0.90493 0.46123 0.7901 0.0
H1018 H 0.88121 0.45534 0.84402 0.0
H1019 H 0.84353 0.51212 0.79269 0.0
C1020 C 0.72272 0.42897 0.8623 0.0
N1021 N 0.74979 0.42773 0.85027 0.0
C1022 C 0.70134 0.40412 0.86161 0.0
C1023 C 0.73537 0.37743 0.8355 0.0
C1024 C 0.75625 0.40273 0.83684 0.0
C1025 C 0.70766 0.37789 0.84815 0.0
H1026 H 0.71739 0.44947 0.87219 0.0
H1027 H 0.77746 0.40238 0.82703 0.0
O1028 O 0.82367 0.52919 0.85693 0.0
O1029 O 0.76377 0.49691 0.87236 0.0
O1030 O 0.78108 0.48874 0.82455 0.0
O1031 O 0.82224 0.45611 0.86168 0.0
H1032 H 0.88095 0.51886 0.87231 0.0
H1033 H 0.82703 0.56752 0.82228 0.0
H1034 H 0.92968 0.54117 0.85584 0.0
H1035 H 0.87668 0.58906 0.80671 0.0
H1036 H 0.73027 0.46463 0.94071 0.0
H1037 H 0.73337 0.54879 0.88402 0.0
H1038 H 0.75829 0.45522 0.90505 0.0
H1039 H 0.70561 0.55648 0.91996 0.0
H1040 H 0.75199 0.63519 0.85539 0.0
H1041 H 0.682 0.5763 0.82402 0.0
H1042 H 0.87491 0.46372 0.94294 0.0
H1043 H 0.80419 0.53505 0.95477 0.0
H1044 H 0.80196 0.43776 0.80383 0.0
H1045 H 0.76946 0.53273 0.7945 0.0
H1046 H 0.80813 0.43272 0.76284 0.0
H1047 H 0.77643 0.52614 0.75362 0.0
H1048 H 0.84066 0.41189 0.83334 0.0
H1049 H 0.80597 0.42891 0.89974 0.0
H1050 H 0.84189 0.3548 0.84172 0.0
H1051 H 0.80736 0.37147 0.90684 0.0
H1052 H 0.92232 0.43549 0.81884 0.0
H1053 H 0.88262 0.49211 0.76598 0.0
H1054 H 0.67975 0.40571 0.87112 0.0
H1055 H 0.74085 0.35767 0.82476 0.0
Li1056 Li 0.4771 0.21685 0.15277 0.0
Li1057 Li 0.50986 0.17171 0.16211 0.0
Li1058 Li 0.53377 0.22211 0.15163 0.0
Li1059 Li 0.50711 0.18858 0.1241 0.0
C1060 C 0.52294 0.22697 0.19474 0.0
N1061 N 0.55761 0.25585 0.22792 0.0
C1062 C 0.54007 0.20886 0.20996 0.0
C1063 C 0.52346 0.25977 0.19642 0.0
C1064 C 0.5574 0.22391 0.22663 0.0
C1065 C 0.54117 0.27392 0.21328 0.0
C1066 C 0.45626 0.1473 0.1503 0.0
C1067 C 0.44929 0.09112 0.15274 0.0
N1068 N 0.42591 0.09552 0.1679 0.0
C1069 C 0.43207 0.15131 0.16581 0.0
C1070 C 0.46486 0.11702 0.14358 0.0
C1071 C 0.41704 0.12481 0.17454 0.0
C1072 C 0.41551 0.23646 0.14265 0.0
N1073 N 0.43908 0.23942 0.15781 0.0
C1074 C 0.41213 0.2815 0.17598 0.0
C1075 C 0.43745 0.26071 0.17468 0.0
C1076 C 0.38821 0.28009 0.15988 0.0
C1077 C 0.38971 0.25675 0.14334 0.0
H1078 H 0.4176 0.21943 0.12932 0.0
H1079 H 0.4564 0.26245 0.18658 0.0
C1080 C 0.5399 0.11759 0.17867 0.0
N1081 N 0.51497 0.13704 0.18188 0.0
C1082 C 0.54811 0.09564 0.19496 0.0
C1083 C 0.50386 0.11301 0.21706 0.0
C1084 C 0.4965 0.13468 0.20032 0.0
C1085 C 0.53065 0.09397 0.2148 0.0
H1086 H 0.55451 0.12032 0.16407 0.0
H1087 H 0.47716 0.15086 0.20263 0.0
C1088 C 0.48508 0.25765 0.12012 0.0
N1089 N 0.44494 0.30354 0.10415 0.0
C1090 C 0.46704 0.25206 0.10103 0.0
C1091 C 0.48284 0.28667 0.131 0.0
C1092 C 0.4469 0.27557 0.09322 0.0
C1093 C 0.46233 0.30952 0.12272 0.0
C1094 C 0.5652 0.16713 0.12617 0.0
C1095 C 0.59065 0.18483 0.11845 0.0
C1096 C 0.55957 0.13727 0.11726 0.0
C1097 C 0.6099 0.17244 0.10174 0.0
C1098 C 0.57934 0.12574 0.10055 0.0
N1099 N 0.60388 0.14342 0.09319 0.0
C1100 C 0.59221 0.2432 0.16978 0.0
C1101 C 0.56932 0.276 0.14221 0.0
C1102 C 0.61777 0.26366 0.17187 0.0
N1103 N 0.56851 0.24991 0.1553 0.0
C1104 C 0.59449 0.29686 0.14358 0.0
C1105 C 0.61914 0.29071 0.15849 0.0
H1106 H 0.59137 0.22188 0.17959 0.0
H1107 H 0.55057 0.28045 0.13049 0.0
C1108 C 0.48672 0.15867 0.08369 0.0
N1109 N 0.50782 0.17856 0.09324 0.0
C1110 C 0.48542 0.15577 0.06044 0.0
C1111 C 0.52845 0.19269 0.05761 0.0
C1112 C 0.52864 0.19519 0.08077 0.0
C1113 C 0.50593 0.17363 0.04713 0.0
H1114 H 0.47011 0.14612 0.09404 0.0
H1115 H 0.5447 0.2113 0.08882 0.0
O1116 O 0.50591 0.2127 0.17821 0.0
O1117 O 0.47164 0.17289 0.14188 0.0
O1118 O 0.50428 0.23462 0.12842 0.0
O1119 O 0.54583 0.17901 0.14232 0.0
H1120 H 0.54024 0.1835 0.20886 0.0
H1121 H 0.51081 0.2742 0.18458 0.0
H1122 H 0.57079 0.21018 0.2385 0.0
H1123 H 0.54195 0.29928 0.21467 0.0
H1124 H 0.45581 0.06753 0.14781 0.0
H1125 H 0.4252 0.17461 0.1712 0.0
H1126 H 0.48352 0.11356 0.13157 0.0
H1127 H 0.39838 0.12753 0.18665 0.0
H1128 H 0.41167 0.29911 0.18905 0.0
H1129 H 0.372 0.25525 0.1304 0.0
H1130 H 0.5691 0.08159 0.1927 0.0
H1131 H 0.48966 0.11218 0.23205 0.0
H1132 H 0.46823 0.2297 0.09248 0.0
H1133 H 0.49643 0.2913 0.1459 0.0
H1134 H 0.4327 0.27151 0.07853 0.0
H1135 H 0.46013 0.33195 0.1311 0.0
H1136 H 0.59536 0.20797 0.12515 0.0
H1137 H 0.53993 0.12331 0.12302 0.0
H1138 H 0.6296 0.18593 0.09553 0.0
H1139 H 0.57515 0.10276 0.09339 0.0
H1140 H 0.6365 0.25814 0.18346 0.0
H1141 H 0.59465 0.31767 0.13315 0.0
H1142 H 0.46769 0.14087 0.05293 0.0
H1143 H 0.54512 0.20632 0.04797 0.0
Li1144 Li 0.77836 0.53149 0.14931 0.0
Li1145 Li 0.82501 0.50745 0.16273 0.0
Li1146 Li 0.81085 0.50046 0.1242 0.0
Li1147 Li 0.7815 0.47231 0.15502 0.0
C1148 C 0.81911 0.57179 0.13678 0.0
N1149 N 0.81088 0.63596 0.13225 0.0
C1150 C 0.8248 0.59181 0.15484 0.0
C1151 C 0.80942 0.58444 0.11639 0.0
C1152 C 0.82049 0.62418 0.15222 0.0
C1153 C 0.80533 0.61693 0.11444 0.0
C1154 C 0.78874 0.50618 0.19982 0.0
C1155 C 0.78998 0.47838 0.23491 0.0
N1156 N 0.80033 0.50494 0.2452 0.0
C1157 C 0.79932 0.53323 0.21077 0.0
C1158 C 0.784 0.47852 0.21199 0.0
C1159 C 0.80509 0.53211 0.2337 0.0
C1160 C 0.72837 0.57039 0.1344 0.0
N1161 N 0.74952 0.56626 0.15114 0.0
C1162 C 0.7284 0.61049 0.17081 0.0
C1163 C 0.74982 0.58568 0.16919 0.0
C1164 C 0.70636 0.61526 0.15372 0.0
C1165 C 0.70654 0.59485 0.13532 0.0
H1166 H 0.72812 0.55452 0.12041 0.0
H1167 H 0.76655 0.58185 0.18241 0.0
C1168 C 0.88156 0.53645 0.1744 0.0
N1169 N 0.86113 0.51404 0.18151 0.0
C1170 C 0.90519 0.54736 0.1885 0.0
C1171 C 0.8885 0.50964 0.21622 0.0
C1172 C 0.86535 0.49923 0.20143 0.0
C1173 C 0.90786 0.53497 0.21013 0.0
H1174 H 0.87855 0.54706 0.15815 0.0
H1175 H 0.84962 0.48062 0.20644 0.0
C1176 C 0.75085 0.48996 0.10921 0.0
N1177 N 0.72435 0.47486 0.06845 0.0
C1178 C 0.73587 0.46099 0.10621 0.0
C1179 C 0.75213 0.51131 0.09147 0.0
C1180 C 0.72266 0.45378 0.08549 0.0
C1181 C 0.73867 0.50322 0.071 0.0
C1182 C 0.85262 0.45448 0.15272 0.0
C1183 C 0.88121 0.46331 0.14313 0.0
C1184 C 0.85223 0.43326 0.17052 0.0
C1185 C 0.90911 0.45089 0.15169 0.0
C1186 C 0.88064 0.42134 0.17858 0.0
N1187 N 0.90825 0.43035 0.1691 0.0
C1188 C 0.84571 0.51728 0.08576 0.0
C1189 C 0.81478 0.47128 0.082 0.0
C1190 C 0.85406 0.51596 0.06323 0.0
N1191 N 0.82566 0.49564 0.09445 0.0
C1192 C 0.82163 0.46964 0.05928 0.0
C1193 C 0.84129 0.49238 0.04948 0.0
H1194 H 0.85462 0.53601 0.0962 0.0
H1195 H 0.79947 0.45394 0.08946 0.0
C1196 C 0.72908 0.43951 0.17107 0.0
N1197 N 0.75773 0.4359 0.16139 0.0
C1198 C 0.70863 0.41396 0.17272 0.0
C1199 C 0.74794 0.38136 0.15495 0.0
C1200 C 0.76772 0.4075 0.15375 0.0
C1201 C 0.71769 0.38469 0.16401 0.0
H1202 H 0.72167 0.46256 0.17664 0.0
H1203 H 0.79046 0.40553 0.14581 0.0
O1204 O 0.82238 0.53993 0.1392 0.0
O1205 O 0.7826 0.50679 0.1774 0.0
O1206 O 0.76421 0.49726 0.12936 0.0
O1207 O 0.82517 0.46696 0.14492 0.0
H1208 H 0.83204 0.58246 0.17082 0.0
H1209 H 0.80492 0.56934 0.10223 0.0
H1210 H 0.82461 0.63992 0.1661 0.0
H1211 H 0.7977 0.62701 0.09878 0.0
H1212 H 0.78648 0.45712 0.24451 0.0
H1213 H 0.80381 0.55464 0.20161 0.0
H1214 H 0.77598 0.45731 0.20382 0.0
H1215 H 0.81356 0.55279 0.24233 0.0
H1216 H 0.72861 0.6253 0.18551 0.0
H1217 H 0.68988 0.59772 0.12181 0.0
H1218 H 0.92001 0.56659 0.18305 0.0
H1219 H 0.88963 0.49953 0.23279 0.0
H1220 H 0.73443 0.44418 0.11969 0.0
H1221 H 0.76384 0.5337 0.09336 0.0
H1222 H 0.71108 0.43142 0.08295 0.0
H1223 H 0.73974 0.51944 0.05711 0.0
H1224 H 0.88182 0.47982 0.12938 0.0
H1225 H 0.83025 0.4264 0.17819 0.0
H1226 H 0.93145 0.45763 0.14454 0.0
H1227 H 0.88074 0.40503 0.19244 0.0
H1228 H 0.86965 0.53373 0.05653 0.0
H1229 H 0.81036 0.45156 0.04942 0.0
H1230 H 0.68538 0.41742 0.17966 0.0
H1231 H 0.75577 0.35904 0.14823 0.0
Li1232 Li 0.49342 0.82305 0.16429 0.0
Li1233 Li 0.5235 0.77945 0.153 0.0
Li1234 Li 0.49842 0.81328 0.12472 0.0
Li1235 Li 0.46604 0.77686 0.15044 0.0
C1236 C 0.54863 0.85136 0.14701 0.0
N1237 N 0.58197 0.90704 0.1492 0.0
C1238 C 0.57414 0.85419 0.16155 0.0
C1239 C 0.54049 0.87662 0.13323 0.0
C1240 C 0.59056 0.88261 0.16253 0.0
C1241 C 0.55754 0.90463 0.13467 0.0
C1242 C 0.5061 0.77597 0.19757 0.0
C1243 C 0.51021 0.74841 0.23262 0.0
N1244 N 0.53459 0.76734 0.23852 0.0
C1245 C 0.53116 0.79514 0.20397 0.0
C1246 C 0.49546 0.75243 0.21198 0.0
C1247 C 0.54526 0.79043 0.22475 0.0
C1248 C 0.46639 0.84509 0.20302 0.0
N1249 N 0.48667 0.85461 0.18685 0.0
C1250 C 0.48895 0.90617 0.20289 0.0
C1251 C 0.49824 0.88448 0.1866 0.0
C1252 C 0.46737 0.89705 0.21941 0.0
C1253 C 0.45642 0.86592 0.21947 0.0
H1254 H 0.45696 0.82149 0.20263 0.0
H1255 H 0.51391 0.8919 0.17352 0.0
C1256 C 0.58653 0.76081 0.14683 0.0
N1257 N 0.55939 0.75353 0.15761 0.0
C1258 C 0.61196 0.74002 0.14739 0.0
C1259 C 0.5813 0.70522 0.17071 0.0
C1260 C 0.55647 0.72659 0.16965 0.0
C1261 C 0.60934 0.71162 0.15923 0.0
H1262 H 0.58792 0.78214 0.13703 0.0
H1263 H 0.5344 0.72105 0.17765 0.0
C1264 C 0.44032 0.84574 0.14849 0.0
N1265 N 0.40444 0.89514 0.16425 0.0
C1266 C 0.41479 0.83995 0.16257 0.0
C1267 C 0.44732 0.87658 0.14214 0.0
C1268 C 0.39699 0.86527 0.17042 0.0
C1269 C 0.42898 0.90126 0.15037 0.0
C1270 C 0.511 0.73835 0.12125 0.0
C1271 C 0.53512 0.7377 0.10544 0.0
C1272 C 0.50192 0.71051 0.13187 0.0
C1273 C 0.54997 0.70918 0.10062 0.0
C1274 C 0.51731 0.68246 0.12656 0.0
N1275 N 0.54084 0.68239 0.1112 0.0
C1276 C 0.5271 0.82446 0.083 0.0
C1277 C 0.47329 0.83858 0.08526 0.0
C1278 C 0.52726 0.83022 0.06005 0.0
N1279 N 0.50015 0.82791 0.0949 0.0
C1280 C 0.47247 0.84492 0.06241 0.0
C1281 C 0.49941 0.83966 0.04937 0.0
H1282 H 0.54811 0.81598 0.09119 0.0
H1283 H 0.4522 0.84103 0.09517 0.0
C1284 C 0.41623 0.74511 0.17196 0.0
N1285 N 0.43048 0.75037 0.15201 0.0
C1286 C 0.39133 0.72379 0.17347 0.0
C1287 C 0.39614 0.71415 0.13382 0.0
C1288 C 0.42077 0.73576 0.13306 0.0
C1289 C 0.38126 0.7078 0.15425 0.0
H1290 H 0.42462 0.75703 0.18675 0.0
H1291 H 0.4327 0.7404 0.11746 0.0
O1292 O 0.53261 0.82355 0.1456 0.0
O1293 O 0.49202 0.77998 0.17725 0.0
O1294 O 0.45871 0.82138 0.14132 0.0
O1295 O 0.49697 0.76622 0.12682 0.0
H1296 H 0.58136 0.8346 0.17188 0.0
H1297 H 0.52118 0.87472 0.12162 0.0
H1298 H 0.61024 0.88519 0.17381 0.0
H1299 H 0.55136 0.92444 0.12423 0.0
H1300 H 0.50228 0.73024 0.24393 0.0
H1301 H 0.53948 0.81353 0.19306 0.0
H1302 H 0.47612 0.73733 0.20722 0.0
H1303 H 0.56467 0.80513 0.22993 0.0
H1304 H 0.49825 0.92987 0.20242 0.0
H1305 H 0.4394 0.85801 0.23168 0.0
H1306 H 0.6329 0.7455 0.13789 0.0
H1307 H 0.57836 0.68355 0.17999 0.0
H1308 H 0.40909 0.8162 0.16765 0.0
H1309 H 0.46689 0.88144 0.13118 0.0
H1310 H 0.37736 0.86117 0.1815 0.0
H1311 H 0.43432 0.92528 0.14578 0.0
H1312 H 0.54258 0.75904 0.09718 0.0
H1313 H 0.4836 0.71065 0.14438 0.0
H1314 H 0.56882 0.70837 0.08853 0.0
H1315 H 0.51068 0.66078 0.13476 0.0
H1316 H 0.54852 0.82587 0.05061 0.0
H1317 H 0.45074 0.85291 0.05491 0.0
H1318 H 0.38076 0.71911 0.18957 0.0
H1319 H 0.38897 0.70227 0.11866 0.0
Li1320 Li 0.22007 0.52252 0.15068 0.0
Li1321 Li 0.18903 0.49268 0.12385 0.0
Li1322 Li 0.17715 0.48856 0.16474 0.0
Li1323 Li 0.22383 0.46346 0.14795 0.0
C1324 C 0.16037 0.55379 0.15088 0.0
N1325 N 0.13234 0.60973 0.1634 0.0
C1326 C 0.14997 0.57502 0.13466 0.0
C1327 C 0.15601 0.56079 0.17345 0.0
C1328 C 0.13601 0.60325 0.14133 0.0
C1329 C 0.14192 0.58924 0.17945 0.0
C1330 C 0.2451 0.50073 0.10444 0.0
C1331 C 0.25373 0.48164 0.06703 0.0
N1332 N 0.26242 0.51106 0.0606 0.0
C1333 C 0.25437 0.53073 0.09751 0.0
C1334 C 0.24506 0.4759 0.08914 0.0
C1335 C 0.26298 0.53548 0.07526 0.0
C1336 C 0.27421 0.55398 0.16359 0.0
N1337 N 0.24503 0.5591 0.15514 0.0
C1338 C 0.25652 0.61363 0.14979 0.0
C1339 C 0.2358 0.58821 0.14837 0.0
C1340 C 0.287 0.60887 0.1581 0.0
C1341 C 0.29566 0.57866 0.16527 0.0
H1342 H 0.28109 0.53046 0.16846 0.0
H1343 H 0.21289 0.59154 0.14106 0.0
C1344 C 0.16046 0.46917 0.08424 0.0
N1345 N 0.17291 0.49496 0.09434 0.0
C1346 C 0.1545 0.46948 0.0613 0.0
C1347 C 0.17307 0.52322 0.05993 0.0
C1348 C 0.17815 0.52206 0.08289 0.0
C1349 C 0.16179 0.49647 0.04889 0.0
H1350 H 0.15657 0.44793 0.09376 0.0
H1351 H 0.1882 0.54212 0.09136 0.0
C1352 C 0.23088 0.49685 0.19607 0.0
N1353 N 0.25008 0.50966 0.23919 0.0
C1354 C 0.24584 0.47365 0.20874 0.0
C1355 C 0.22608 0.52669 0.20525 0.0
C1356 C 0.25524 0.48054 0.23054 0.0
C1357 C 0.23586 0.53269 0.22708 0.0
C1358 C 0.17757 0.42252 0.14202 0.0
C1359 C 0.16387 0.40686 0.16008 0.0
C1360 C 0.19066 0.40514 0.12454 0.0
C1361 C 0.16388 0.374 0.16048 0.0
C1362 C 0.19027 0.37231 0.12558 0.0
N1363 N 0.17702 0.35755 0.14339 0.0
C1364 C 0.11509 0.48963 0.18284 0.0
C1365 C 0.15503 0.47044 0.20682 0.0
C1366 C 0.09213 0.4833 0.19897 0.0
N1367 N 0.14582 0.48301 0.18705 0.0
C1368 C 0.13306 0.46413 0.22342 0.0
C1369 C 0.10117 0.47045 0.21957 0.0
H1370 H 0.10839 0.49922 0.16681 0.0
H1371 H 0.17931 0.46429 0.20949 0.0
C1372 C 0.27749 0.42794 0.13674 0.0
N1373 N 0.25207 0.42877 0.15045 0.0
C1374 C 0.299 0.40324 0.13816 0.0
C1375 C 0.26788 0.38067 0.16787 0.0
C1376 C 0.24704 0.40592 0.16594 0.0
C1377 C 0.29425 0.37917 0.15384 0.0
H1378 H 0.28124 0.44662 0.12482 0.0
H1379 H 0.22698 0.40746 0.17695 0.0
O1380 O 0.17396 0.526 0.14456 0.0
O1381 O 0.23589 0.49579 0.12604 0.0
O1382 O 0.22152 0.49038 0.17469 0.0
O1383 O 0.17816 0.45469 0.14149 0.0
H1384 H 0.15277 0.56984 0.11711 0.0
H1385 H 0.16308 0.54435 0.18623 0.0
H1386 H 0.12805 0.61998 0.12896 0.0
H1387 H 0.13848 0.59497 0.19687 0.0
H1388 H 0.25347 0.46271 0.05496 0.0
H1389 H 0.25462 0.55021 0.10911 0.0
H1390 H 0.23804 0.45254 0.09422 0.0
H1391 H 0.27 0.55861 0.06963 0.0
H1392 H 0.24924 0.63642 0.14359 0.0
H1393 H 0.319 0.57408 0.17171 0.0
H1394 H 0.146 0.44838 0.05316 0.0
H1395 H 0.17904 0.54434 0.05075 0.0
H1396 H 0.25 0.45051 0.20188 0.0
H1397 H 0.21537 0.54522 0.19555 0.0
H1398 H 0.26667 0.46274 0.24057 0.0
H1399 H 0.23228 0.55569 0.23438 0.0
H1400 H 0.15347 0.4199 0.17369 0.0
H1401 H 0.20131 0.41686 0.11044 0.0
H1402 H 0.1535 0.36157 0.1744 0.0
H1403 H 0.20055 0.35857 0.11226 0.0
H1404 H 0.06765 0.48804 0.19535 0.0
H1405 H 0.14081 0.45323 0.23881 0.0
H1406 H 0.31912 0.40292 0.1271 0.0
H1407 H 0.26379 0.36289 0.18048 0.0
C1408 C 0.13239 0.15554 0.35622 0.0
C1409 C 0.13651 0.18482 0.34567 0.0
C1410 C 0.15513 0.13188 0.35467 0.0
C1411 C 0.18294 0.13628 0.34233 0.0
H1412 H 0.11122 0.15066 0.36563 0.0
H1413 H 0.15093 0.10997 0.36341 0.0
S1414 S 0.20531 0.20865 0.31154 0.0
N1415 N 0.17099 0.21723 0.32286 0.0
N1416 N 0.21314 0.17213 0.31908 0.0
C1417 C 0.1874 0.16541 0.33162 0.0
C1418 C 0.16431 0.18973 0.33341 0.0
C1419 C 0.86746 0.16215 0.33976 0.0
C1420 C 0.85891 0.19408 0.33866 0.0
C1421 C 0.8447 0.1385 0.34137 0.0
C1422 C 0.81248 0.14582 0.3418 0.0
H1423 H 0.89201 0.15539 0.3399 0.0
H1424 H 0.85241 0.11425 0.34236 0.0
S1425 S 0.77768 0.22568 0.33871 0.0
N1426 N 0.81598 0.23177 0.33751 0.0
N1427 N 0.77309 0.1872 0.3407 0.0
C1428 C 0.80353 0.17759 0.34032 0.0
C1429 C 0.82677 0.20175 0.33879 0.0
C1430 C 0.8423 0.87028 0.3568 0.0
C1431 C 0.81468 0.86602 0.34425 0.0
C1432 C 0.86511 0.84667 0.35826 0.0
C1433 C 0.86124 0.81759 0.34739 0.0
H1434 H 0.84632 0.89203 0.36577 0.0
H1435 H 0.88616 0.85144 0.36784 0.0
S1436 S 0.79293 0.79418 0.31261 0.0
N1437 N 0.78488 0.83053 0.32047 0.0
N1438 N 0.82714 0.78551 0.32406 0.0
C1439 C 0.8336 0.81281 0.33492 0.0
C1440 C 0.81044 0.83708 0.33323 0.0
C1441 C 0.13063 0.83964 0.34041 0.0
C1442 C 0.13915 0.80767 0.34012 0.0
C1443 C 0.15337 0.86332 0.34183 0.0
C1444 C 0.18556 0.856 0.34292 0.0
H1445 H 0.1061 0.84645 0.34004 0.0
H1446 H 0.14566 0.88761 0.34215 0.0
S1447 S 0.22032 0.77601 0.34208 0.0
N1448 N 0.18207 0.76991 0.3404 0.0
N1449 N 0.22491 0.81456 0.34335 0.0
C1450 C 0.1945 0.82418 0.34228 0.0
C1451 C 0.17128 0.79998 0.3409 0.0
C1452 C 0.13906 0.84041 0.67116 0.0
C1453 C 0.14049 0.81687 0.6547 0.0
C1454 C 0.16201 0.86401 0.67233 0.0
C1455 C 0.18741 0.86457 0.65732 0.0
H1456 H 0.11953 0.84117 0.68274 0.0
H1457 H 0.15968 0.88218 0.68491 0.0
S1458 S 0.20265 0.80732 0.6119 0.0
N1459 N 0.16987 0.79479 0.62367 0.0
N1460 N 0.21305 0.83914 0.62588 0.0
C1461 C 0.1896 0.84062 0.64123 0.0
C1462 C 0.16609 0.81679 0.6399 0.0
C1463 C 0.18138 0.16264 0.67088 0.0
C1464 C 0.18898 0.14855 0.65033 0.0
C1465 C 0.15891 0.18673 0.67218 0.0
C1466 C 0.14351 0.19781 0.65295 0.0
H1467 H 0.19217 0.15434 0.68616 0.0
H1468 H 0.1533 0.19653 0.68839 0.0
S1469 S 0.15593 0.16956 0.59502 0.0
N1470 N 0.18034 0.14832 0.61023 0.0
N1471 N 0.13769 0.19307 0.61271 0.0
C1472 C 0.15144 0.18441 0.63224 0.0
C1473 C 0.17424 0.15989 0.63093 0.0
C1474 C 0.85977 0.16409 0.67169 0.0
C1475 C 0.8617 0.18364 0.65279 0.0
C1476 C 0.83626 0.14114 0.67355 0.0
C1477 C 0.81363 0.13708 0.65668 0.0
H1478 H 0.87706 0.16599 0.68489 0.0
H1479 H 0.83592 0.1263 0.68825 0.0
S1480 S 0.80769 0.1831 0.60421 0.0
N1481 N 0.83824 0.19832 0.6173 0.0
N1482 N 0.79447 0.15477 0.62055 0.0
C1483 C 0.81492 0.15691 0.6379 0.0
C1484 C 0.83888 0.18024 0.636 0.0
C1485 C 0.81823 0.83811 0.66989 0.0
C1486 C 0.81614 0.85821 0.6513 0.0
C1487 C 0.84089 0.81416 0.67079 0.0
C1488 C 0.86173 0.80917 0.65293 0.0
H1489 H 0.80269 0.84139 0.68403 0.0
H1490 H 0.84215 0.79945 0.68553 0.0
S1491 S 0.8654 0.85493 0.60032 0.0
N1492 N 0.83644 0.87127 0.61455 0.0
N1493 N 0.87887 0.82615 0.61617 0.0
C1494 C 0.85954 0.8288 0.63413 0.0
C1495 C 0.83679 0.85337 0.63334 0.0
C1496 C 0.6496 0.66725 0.82452 0.0
C1497 C 0.64213 0.68095 0.84523 0.0
C1498 C 0.67325 0.64438 0.82277 0.0
C1499 C 0.69054 0.63484 0.8416 0.0
H1500 H 0.63649 0.67364 0.8097 0.0
H1501 H 0.67791 0.63392 0.80662 0.0
S1502 S 0.68073 0.66438 0.89943 0.0
N1503 N 0.65445 0.68409 0.88475 0.0
N1504 N 0.69876 0.64104 0.88151 0.0
C1505 C 0.68372 0.64887 0.86229 0.0
C1506 C 0.65953 0.67192 0.86409 0.0
C1507 C 0.34797 0.68381 0.86402 0.0
C1508 C 0.35715 0.69719 0.84356 0.0
C1509 C 0.32484 0.66041 0.86495 0.0
C1510 C 0.30986 0.64961 0.84547 0.0
H1511 H 0.35943 0.6908 0.87939 0.0
H1512 H 0.31881 0.65049 0.88104 0.0
S1513 S 0.32452 0.67793 0.78783 0.0
N1514 N 0.34862 0.6989 0.80348 0.0
N1515 N 0.30551 0.65446 0.80515 0.0
C1516 C 0.3183 0.6633 0.82495 0.0
C1517 C 0.3419 0.68713 0.82401 0.0
C1518 C 0.30567 0.3408 0.82825 0.0
C1519 C 0.31222 0.37228 0.83386 0.0
C1520 C 0.32906 0.31757 0.82944 0.0
C1521 C 0.35971 0.32494 0.83651 0.0
H1522 H 0.28228 0.33408 0.82298 0.0
H1523 H 0.32292 0.29354 0.82528 0.0
S1524 S 0.38906 0.40387 0.85273 0.0
N1525 N 0.35164 0.40953 0.84674 0.0
N1526 N 0.39565 0.36609 0.84842 0.0
C1527 C 0.36665 0.35638 0.84184 0.0
C1528 C 0.34292 0.37999 0.84063 0.0
C1529 C 0.67293 0.34257 0.82568 0.0
C1530 C 0.68468 0.35182 0.84661 0.0
C1531 C 0.64937 0.31964 0.82394 0.0
C1532 C 0.6372 0.30482 0.84305 0.0
H1533 H 0.68133 0.35382 0.81059 0.0
H1534 H 0.64035 0.31368 0.80757 0.0
S1535 S 0.66085 0.3198 0.90163 0.0
N1536 N 0.68306 0.34379 0.88676 0.0
N1537 N 0.63886 0.30058 0.88347 0.0
C1538 C 0.6493 0.31328 0.86402 0.0
C1539 C 0.673 0.33684 0.86581 0.0
C1540 C 0.67791 0.34921 0.18184 0.0
C1541 C 0.6946 0.35868 0.16272 0.0
C1542 C 0.65422 0.32632 0.18051 0.0
C1543 C 0.6461 0.31261 0.15995 0.0
H1544 H 0.68299 0.35983 0.19788 0.0
H1545 H 0.64148 0.32006 0.19553 0.0
S1546 S 0.68312 0.3288 0.10514 0.0
N1547 N 0.70172 0.35219 0.12273 0.0
N1548 N 0.65726 0.30921 0.12027 0.0
C1549 C 0.663 0.32144 0.14082 0.0
C1550 C 0.68726 0.34446 0.1422 0.0
C1551 C 0.62716 0.6563 0.15306 0.0
C1552 C 0.63469 0.68765 0.15834 0.0
C1553 C 0.6505 0.63317 0.15157 0.0
C1554 C 0.68228 0.64043 0.1554 0.0
H1555 H 0.60304 0.64963 0.14974 0.0
H1556 H 0.64354 0.60933 0.14754 0.0
S1557 S 0.71442 0.71897 0.16979 0.0
N1558 N 0.67616 0.72473 0.16763 0.0
N1559 N 0.72017 0.68128 0.16447 0.0
C1560 C 0.69018 0.67167 0.16074 0.0
C1561 C 0.66637 0.69528 0.16222 0.0
C1562 C 0.36257 0.65321 0.14663 0.0
C1563 C 0.35664 0.68321 0.15558 0.0
C1564 C 0.34 0.62932 0.14777 0.0
C1565 C 0.31053 0.63458 0.15771 0.0
H1566 H 0.38498 0.64806 0.13887 0.0
H1567 H 0.34554 0.60663 0.14052 0.0
S1568 S 0.2833 0.70903 0.18352 0.0
N1569 N 0.31917 0.717 0.17462 0.0
N1570 N 0.27667 0.67193 0.17682 0.0
C1571 C 0.30424 0.66448 0.16669 0.0
C1572 C 0.32735 0.68879 0.16567 0.0
C1573 C 0.34959 0.36042 0.15796 0.0
C1574 C 0.31745 0.35329 0.15595 0.0
C1575 C 0.37215 0.33656 0.15965 0.0
C1576 C 0.36346 0.30464 0.15921 0.0
H1577 H 0.35737 0.38469 0.15829 0.0
H1578 H 0.39668 0.34316 0.16087 0.0
S1579 S 0.2824 0.27346 0.15425 0.0
N1580 N 0.27802 0.31207 0.1536 0.0
N1581 N 0.32051 0.26711 0.1569 0.0
C1582 C 0.33141 0.29715 0.15729 0.0
C1583 C 0.30838 0.32149 0.15571 0.0
C1584 C 0.03697 0.42302 0.24719 0.0
C1585 C 0.04293 0.42848 0.26993 0.0
C1586 C 0.05414 0.43889 0.23065 0.0
C1587 C 0.07771 0.46062 0.23644 0.0
H1588 H 0.02076 0.40468 0.24219 0.0
H1589 H 0.05066 0.4323 0.21336 0.0
S1590 S 0.09742 0.4877 0.29353 0.0
N1591 N 0.0704 0.46033 0.29731 0.0
N1592 N 0.10252 0.49031 0.26627 0.0
C1593 C 0.08158 0.46842 0.25905 0.0
C1594 C 0.06421 0.45229 0.27581 0.0
C1595 C 0.56944 0.02807 0.24751 0.0
C1596 C 0.57606 0.04251 0.26811 0.0
C1597 C 0.55314 0.04423 0.23069 0.0
C1598 C 0.5429 0.07539 0.23387 0.0
H1599 H 0.57777 0.00446 0.24414 0.0
H1600 H 0.54938 0.03263 0.21481 0.0
S1601 S 0.55476 0.12388 0.28467 0.0
N1602 N 0.57108 0.08972 0.29074 0.0
N1603 N 0.54053 0.12001 0.2592 0.0
C1604 C 0.54848 0.0897 0.25466 0.0
C1605 C 0.56504 0.07328 0.27176 0.0
C1606 C 0.92236 0.58468 0.22929 0.0
C1607 C 0.9265 0.55199 0.2272 0.0
C1608 C 0.936 0.6014 0.24683 0.0
C1609 C 0.95436 0.58617 0.26305 0.0
H1610 H 0.9073 0.59736 0.21782 0.0
H1611 H 0.93147 0.62643 0.24802 0.0
S1612 S 0.97503 0.50141 0.26406 0.0
N1613 N 0.95227 0.50528 0.24188 0.0
N1614 N 0.97784 0.53689 0.27518 0.0
C1615 C 0.96002 0.55375 0.26066 0.0
C1616 C 0.94597 0.53659 0.24273 0.0
C1617 C 0.43593 0.929 0.27404 0.0
C1618 C 0.42162 0.95747 0.26769 0.0
C1619 C 0.45221 0.91051 0.25856 0.0
C1620 C 0.45484 0.91968 0.23608 0.0
H1621 H 0.4331 0.91999 0.29084 0.0
H1622 H 0.46184 0.88822 0.26406 0.0
S1623 S 0.42475 0.99394 0.21148 0.0
N1624 N 0.41392 0.99558 0.23793 0.0
N1625 N 0.44373 0.9603 0.20858 0.0
C1626 C 0.44226 0.94898 0.22977 0.0
C1627 C 0.42577 0.96793 0.2456 0.0
C1628 C 0.07191 0.58501 0.77246 0.0
C1629 C 0.07002 0.55199 0.77305 0.0
C1630 C 0.05884 0.60217 0.75489 0.0
C1631 C 0.04326 0.58705 0.73722 0.0
H1632 H 0.08491 0.59769 0.78513 0.0
H1633 H 0.06173 0.6275 0.7548 0.0
S1634 S 0.02914 0.50132 0.73189 0.0
N1635 N 0.04932 0.50491 0.75532 0.0
N1636 N 0.02472 0.53737 0.72205 0.0
C1637 C 0.03974 0.5542 0.7381 0.0
C1638 C 0.05325 0.5366 0.75603 0.0
C1639 C 0.44329 0.04665 0.76834 0.0
C1640 C 0.45537 0.07695 0.76439 0.0
C1641 C 0.42724 0.03014 0.75158 0.0
C1642 C 0.42266 0.04337 0.7303 0.0
H1643 H 0.4454 0.03606 0.78472 0.0
H1644 H 0.41745 0.00728 0.75552 0.0
S1645 S 0.44956 0.12209 0.71155 0.0
N1646 N 0.46194 0.11937 0.73759 0.0
N1647 N 0.4317 0.08847 0.70618 0.0
C1648 C 0.4356 0.07318 0.72591 0.0
C1649 C 0.45197 0.08994 0.74294 0.0
C1650 C 0.95421 0.44227 0.73881 0.0
C1651 C 0.95179 0.40932 0.73764 0.0
C1652 C 0.94004 0.45907 0.75633 0.0
C1653 C 0.9234 0.44338 0.77333 0.0
H1654 H 0.96593 0.45517 0.72563 0.0
H1655 H 0.94147 0.48452 0.7563 0.0
S1656 S 0.91227 0.35701 0.77838 0.0
N1657 N 0.93338 0.3615 0.75551 0.0
N1658 N 0.90626 0.39284 0.78808 0.0
C1659 C 0.92202 0.41031 0.77271 0.0
C1660 C 0.93635 0.39334 0.75495 0.0
C1661 C 0.56928 0.96321 0.74886 0.0
C1662 C 0.58189 0.94855 0.72978 0.0
C1663 C 0.5552 0.94543 0.76592 0.0
C1664 C 0.55378 0.91243 0.76456 0.0
H1665 H 0.57088 0.98849 0.75079 0.0
H1666 H 0.54652 0.95742 0.78063 0.0
S1667 S 0.5823 0.86284 0.71787 0.0
N1668 N 0.5913 0.89911 0.71042 0.0
N1669 N 0.56456 0.86596 0.74227 0.0
C1670 C 0.56539 0.89765 0.74529 0.0
C1671 C 0.57952 0.91564 0.72795 0.0
C1672 C 0.96926 0.34795 0.48912 0.0
C1673 C 0.99597 0.3488 0.47531 0.0
C1674 C 0.97208 0.34817 0.51242 0.0
C1675 C 0.00174 0.34906 0.52277 0.0
H1676 H 0.94601 0.34623 0.48185 0.0
H1677 H 0.95093 0.34615 0.52237 0.0
S1678 S 0.07888 0.35378 0.49418 0.0
N1679 N 0.053 0.35199 0.4737 0.0
N1680 N 0.05821 0.35313 0.5175 0.0
C1681 C 0.02856 0.35135 0.50917 0.0
C1682 C 0.0257 0.35112 0.48545 0.0
C1683 C 0.6483 0.98083 0.5117 0.0
C1684 C 0.6547 0.00923 0.52288 0.0
C1685 C 0.6474 0.97941 0.48833 0.0
C1686 C 0.65315 0.00625 0.47516 0.0
H1687 H 0.64535 0.95919 0.521 0.0
H1688 H 0.64306 0.95684 0.48053 0.0
S1689 S 0.66793 0.08705 0.4964 0.0
N1690 N 0.66342 0.06551 0.51908 0.0
N1691 N 0.66393 0.06253 0.47525 0.0
C1692 C 0.65816 0.0351 0.48618 0.0
C1693 C 0.65847 0.03664 0.50998 0.0
C1694 C 0.02723 0.65277 0.51287 0.0
C1695 C 0.9978 0.65297 0.52358 0.0
C1696 C 0.02949 0.65271 0.48955 0.0
C1697 C 0.00243 0.65263 0.47607 0.0
H1698 H 0.04866 0.65419 0.52257 0.0
H1699 H 0.05259 0.65365 0.48199 0.0
S1700 S 0.91988 0.65048 0.49596 0.0
N1701 N 0.94111 0.65067 0.51901 0.0
N1702 N 0.9453 0.65123 0.47515 0.0
C1703 C 0.97289 0.65133 0.48657 0.0
C1704 C 0.9706 0.6514 0.51032 0.0
C1705 C 0.34787 0.0246 0.51121 0.0
C1706 C 0.34619 0.99552 0.5224 0.0
C1707 C 0.34805 0.02625 0.48786 0.0
C1708 C 0.346 0.99894 0.47461 0.0
H1709 H 0.34766 0.04645 0.5205 0.0
H1710 H 0.34889 0.04927 0.48015 0.0
S1711 S 0.34453 0.91669 0.49572 0.0
N1712 N 0.34637 0.93857 0.51842 0.0
N1713 N 0.34393 0.94165 0.47464 0.0
C1714 C 0.34573 0.9696 0.48559 0.0
C1715 C 0.34639 0.96791 0.5094 0.0
C1716 C 0.52264 0.85649 0.98921 0.0
C1717 C 0.49892 0.84129 0.97695 0.0
C1718 C 0.52216 0.85675 0.01263 0.0
C1719 C 0.49803 0.84165 0.02462 0.0
H1720 H 0.54192 0.86792 0.98063 0.0
H1721 H 0.54103 0.86851 0.02143 0.0
S1722 S 0.43145 0.79692 0.00021 0.0
N1723 N 0.45116 0.81009 0.97841 0.0
N1724 N 0.45041 0.81015 0.02233 0.0
C1725 C 0.47407 0.82654 0.01248 0.0
C1726 C 0.47448 0.82646 0.98868 0.0
C1727 C 0.19017 0.49733 0.98918 0.0
C1728 C 0.16225 0.49419 0.97687 0.0
C1729 C 0.18963 0.49833 0.01252 0.0
C1730 C 0.16121 0.49568 0.0243 0.0
H1731 H 0.21254 0.49947 0.98067 0.0
H1732 H 0.21162 0.50093 0.02145 0.0
S1733 S 0.08184 0.48648 -0.00012 0.0
N1734 N 0.1055 0.48839 0.97804 0.0
N1735 N 0.10459 0.48946 0.02213 0.0
C1736 C 0.13318 0.49216 0.01224 0.0
C1737 C 0.13366 0.49169 0.98843 0.0
C1738 C 0.5009 0.14592 0.01023 0.0
C1739 C 0.50265 0.17413 0.02246 0.0
C1740 C 0.49818 0.14623 0.98686 0.0
C1741 C 0.49674 0.17476 0.97498 0.0
H1742 H 0.502 0.12348 0.01876 0.0
H1743 H 0.49686 0.12401 0.97805 0.0
S1744 S 0.5001 0.25504 0.99922 0.0
N1745 N 0.50203 0.23131 0.02097 0.0
N1746 N 0.49793 0.23188 0.97718 0.0
C1747 C 0.49848 0.20308 0.98705 0.0
C1748 C 0.50118 0.20276 0.01074 0.0
C1749 C 0.84407 0.52382 0.9902 0.0
C1750 C 0.84495 0.49636 0.97706 0.0
C1751 C 0.84421 0.52232 0.01353 0.0
C1752 C 0.84583 0.49332 0.02482 0.0
H1753 H 0.84231 0.54674 0.98241 0.0
H1754 H 0.84164 0.54411 0.02271 0.0
S1755 S 0.85268 0.41461 0.9984 0.0
N1756 N 0.84928 0.43921 0.97723 0.0
N1757 N 0.85217 0.43669 0.02104 0.0
C1758 C 0.84894 0.46579 0.01193 0.0
C1759 C 0.84799 0.46724 0.98811 0.0
loop_
_geom_bond_atom_site_label_1
_geom_bond_atom_site_label_2
_geom_bond_distance
_geom_bond_site_symmetry_2
_ccdc_geom_bond_type
Li0 N17 1.990 . S
Li0 O60 1.956 1_455 S
Li0 O61 1.970 . S
Li0 O62 1.961 . S
Li1 N25 1.990 . S
Li1 O60 1.970 1_455 S
Li1 O61 1.956 . S
Li1 O63 1.961 1_455 S
Li2 N47 1.990 . S
Li2 O60 1.961 . S
Li2 O62 1.956 1_655 S
Li2 O63 1.970 . S
Li3 N53 1.990 . S
Li3 O61 1.961 . S
Li3 O62 1.970 . S
Li3 O63 1.956 1_455 S
C4 C6 1.348 . S
C4 C7 1.356 . S
C4 O60 1.325 . S
N5 C8 1.314 . S
N5 C9 1.279 . S
C6 C4 1.348 . S
C6 C8 1.353 . S
C6 H64 0.929 1_655 S
C7 C4 1.356 . S
C7 C9 1.358 . S
C7 H65 0.930 . S
C8 N5 1.314 . S
C8 C6 1.353 . S
C8 H66 0.930 . S
C9 N5 1.279 . S
C9 C7 1.358 . S
C9 H67 0.930 . S
C10 C13 1.348 . S
C10 C14 1.356 . S
C10 O61 1.325 . S
C11 N12 1.279 . S
C11 C14 1.358 . S
C11 H68 0.930 . S
N12 C11 1.279 . S
N12 C15 1.314 . S
C13 C10 1.348 . S
C13 C15 1.353 . S
C13 H69 0.929 . S
C14 C10 1.356 . S
C14 C11 1.358 . S
C14 H70 0.930 . S
C15 N12 1.314 . S
C15 C13 1.353 . S
C15 H71 0.930 . S
C16 N17 1.314 . S
C16 C21 1.353 . S
C16 H22 0.930 . S
N17 Li0 1.990 . S
N17 C16 1.314 . S
N17 C19 1.279 . S
C18 C19 1.358 . S
C18 C20 1.356 . S
C18 H72 0.930 . S
C19 N17 1.279 . S
C19 C18 1.358 . S
C19 H23 0.930 . S
C20 C18 1.356 . S
C20 C21 1.348 . S
C21 C16 1.353 . S
C21 C20 1.348 . S
C21 H73 0.929 . S
H22 C16 0.930 . S
H23 C19 0.930 . S
C24 N25 1.314 1_655 S
C24 C26 1.353 . S
C24 H30 0.930 . S
N25 Li1 1.990 . S
N25 C24 1.314 1_455 S
N25 C28 1.279 . S
C26 C24 1.353 . S
C26 C29 1.348 . S
C26 H74 0.929 . S
C27 C28 1.358 . S
C27 C29 1.356 1_455 S
C27 H75 0.930 . S
C28 N25 1.279 . S
C28 C27 1.358 . S
C28 H31 0.930 . S
C29 C26 1.348 . S
C29 C27 1.356 1_655 S
H30 C24 0.930 . S
H31 C28 0.930 . S
C32 C34 1.348 . S
C32 C35 1.356 . S
C32 O62 1.325 . S
N33 C36 1.314 . S
N33 C37 1.279 . S
C34 C32 1.348 . S
C34 C36 1.353 . S
C34 H76 0.925 1_455 S
C35 C32 1.356 . S
C35 C37 1.358 . S
C35 H77 0.930 . S
C36 N33 1.314 . S
C36 C34 1.353 . S
C36 H78 0.930 . S
C37 N33 1.279 . S
C37 C35 1.358 . S
C37 H79 0.930 . S
C38 C39 1.348 . S
C38 C40 1.356 . S
C38 O63 1.325 . S
C39 C38 1.348 . S
C39 C41 1.353 . S
C39 H80 0.929 . S
C40 C38 1.356 . S
C40 C42 1.358 . S
C40 H81 0.930 . S
C41 C39 1.353 . S
C41 N43 1.314 . S
C41 H82 0.930 . S
C42 C40 1.358 . S
C42 N43 1.279 . S
C42 H83 0.930 . S
N43 C41 1.314 . S
N43 C42 1.279 . S
C44 C46 1.353 . S
C44 N47 1.314 . S
C44 H50 0.930 . S
C45 N47 1.279 . S
C45 C48 1.358 . S
C45 H51 0.930 . S
C46 C44 1.353 . S
C46 C49 1.348 . S
C46 H84 0.929 . S
N47 Li2 1.990 . S
N47 C44 1.314 . S
N47 C45 1.279 . S
C48 C45 1.358 . S
C48 C49 1.356 . S
C48 H85 0.930 . S
C49 C46 1.348 . S
C49 C48 1.356 . S
H50 C44 0.930 . S
H51 C45 0.930 . S
C52 N53 1.314 . S
C52 C54 1.353 . S
C52 H58 0.930 . S
N53 Li3 1.990 . S
N53 C52 1.314 . S
N53 C56 1.279 1_455 S
C54 C52 1.353 . S
C54 C57 1.348 . S
C54 H86 0.929 . S
C55 C56 1.355 1_455 S
C55 C57 1.382 . S
C55 H87 0.908 1_455 S
C56 N53 1.279 1_655 S
C56 C55 1.355 1_655 S
C56 H59 0.930 . S
C57 C54 1.348 . S
C57 C55 1.382 . S
H58 C52 0.930 . S
H59 C56 0.930 . S
O60 Li0 1.956 1_655 S
O60 Li1 1.970 1_655 S
O60 Li2 1.961 . S
O60 C4 1.325 . S
O61 Li0 1.970 . S
O61 Li1 1.956 . S
O61 Li3 1.961 . S
O61 C10 1.325 . S
O62 Li0 1.961 . S
O62 Li2 1.956 1_455 S
O62 Li3 1.970 . S
O62 C32 1.325 . S
O63 Li1 1.961 1_655 S
O63 Li2 1.970 . S
O63 Li3 1.956 1_655 S
O63 C38 1.325 . S
H64 C6 0.929 1_455 S
H65 C7 0.930 . S
H66 C8 0.930 . S
H67 C9 0.930 . S
H68 C11 0.930 . S
H69 C13 0.929 . S
H70 C14 0.930 . S
H71 C15 0.930 . S
H72 C18 0.930 . S
H73 C21 0.929 . S
H74 C26 0.929 . S
H75 C27 0.930 . S
H76 C34 0.925 1_655 S
H77 C35 0.930 . S
H78 C36 0.930 . S
H79 C37 0.930 . S
H80 C39 0.929 . S
H81 C40 0.930 . S
H82 C41 0.930 . S
H83 C42 0.930 . S
H84 C46 0.929 . S
H85 C48 0.930 . S
H86 C54 0.929 . S
H87 C55 0.908 1_655 S
Li88 N105 1.990 . S
Li88 O148 1.956 . S
Li88 O149 1.970 . S
Li88 O150 1.961 1_545 S
Li89 N113 1.990 . S
Li89 O148 1.970 . S
Li89 O149 1.956 . S
Li89 O151 1.961 1_545 S
Li90 N135 1.990 . S
Li90 O148 1.961 1_565 S
Li90 O150 1.956 . S
Li90 O151 1.970 . S
Li91 N141 1.990 . S
Li91 O149 1.961 . S
Li91 O150 1.970 1_545 S
Li91 O151 1.956 1_545 S
C92 C94 1.348 . S
C92 C95 1.356 1_545 S
C92 O148 1.325 . S
N93 C96 1.314 . S
N93 C97 1.279 1_545 S
C94 C92 1.348 . S
C94 C96 1.353 . S
C94 H152 0.929 . S
C95 C92 1.356 1_565 S
C95 C97 1.358 . S
C95 H153 0.930 . S
C96 N93 1.314 . S
C96 C94 1.353 . S
C96 H154 0.930 . S
C97 N93 1.279 1_565 S
C97 C95 1.358 . S
C97 H155 0.930 . S
C98 C101 1.348 . S
C98 C102 1.356 . S
C98 O149 1.325 . S
C99 N100 1.279 . S
C99 C102 1.358 . S
C99 H156 0.930 . S
N100 C99 1.279 . S
N100 C103 1.314 . S
C101 C98 1.348 . S
C101 C103 1.353 . S
C101 H157 0.929 . S
C102 C98 1.356 . S
C102 C99 1.358 . S
C102 H158 0.930 . S
C103 N100 1.314 . S
C103 C101 1.353 . S
C103 H159 0.930 . S
C104 N105 1.314 . S
C104 C109 1.353 . S
C104 H110 0.930 . S
N105 Li88 1.990 . S
N105 C104 1.314 . S
N105 C107 1.279 . S
C106 C107 1.358 . S
C106 C108 1.356 . S
C106 H160 0.930 . S
C107 N105 1.279 . S
C107 C106 1.358 . S
C107 H111 0.930 . S
C108 C106 1.356 . S
C108 C109 1.348 . S
C109 C104 1.353 . S
C109 C108 1.348 . S
C109 H161 0.929 . S
H110 C104 0.930 . S
H111 C107 0.930 . S
C112 N113 1.314 . S
C112 C114 1.353 . S
C112 H118 0.930 . S
N113 Li89 1.990 . S
N113 C112 1.314 . S
N113 C116 1.279 . S
C114 C112 1.353 . S
C114 C117 1.348 . S
C114 H162 0.929 . S
C115 C116 1.358 . S
C115 C117 1.356 . S
C115 H163 0.930 . S
C116 N113 1.279 . S
C116 C115 1.358 . S
C116 H119 0.930 . S
C117 C114 1.348 . S
C117 C115 1.356 . S
H118 C112 0.930 . S
H119 C116 0.930 . S
C120 C122 1.348 . S
C120 C123 1.356 . S
C120 O150 1.325 . S
N121 C124 1.314 . S
N121 C125 1.279 . S
C122 C120 1.348 . S
C122 C124 1.353 . S
C122 H164 0.929 . S
C123 C120 1.356 . S
C123 C125 1.358 . S
C123 H165 0.930 . S
C124 N121 1.314 . S
C124 C122 1.353 . S
C124 H166 0.930 . S
C125 N121 1.279 . S
C125 C123 1.358 . S
C125 H167 0.930 . S
C126 C127 1.348 . S
C126 C128 1.356 1_565 S
C126 O151 1.325 . S
C127 C126 1.348 . S
C127 C129 1.353 . S
C127 H168 0.929 . S
C128 C126 1.356 1_545 S
C128 C130 1.358 . S
C128 H169 0.930 . S
C129 C127 1.353 . S
C129 N131 1.314 . S
C129 H170 0.930 . S
C130 C128 1.358 . S
C130 N131 1.279 1_545 S
C130 H171 0.930 . S
N131 C129 1.314 . S
N131 C130 1.279 1_565 S
C132 C134 1.353 . S
C132 N135 1.314 . S
C132 H138 0.930 . S
C133 N135 1.279 . S
C133 C136 1.358 . S
C133 H139 0.930 . S
C134 C132 1.353 . S
C134 C137 1.348 . S
C134 H172 0.929 . S
N135 Li90 1.990 . S
N135 C132 1.314 . S
N135 C133 1.279 . S
C136 C133 1.358 . S
C136 C137 1.356 . S
C136 H173 0.930 . S
C137 C134 1.348 . S
C137 C136 1.356 . S
H138 C132 0.930 . S
H139 C133 0.930 . S
C140 N141 1.314 . S
C140 C142 1.353 . S
C140 H146 0.930 . S
N141 Li91 1.990 . S
N141 C140 1.314 . S
N141 C144 1.279 1_545 S
C142 C140 1.353 . S
C142 C145 1.348 1_545 S
C142 H174 0.929 . S
C143 C144 1.358 . S
C143 C145 1.356 . S
C143 H175 0.930 . S
C144 N141 1.279 1_565 S
C144 C143 1.358 . S
C144 H147 0.930 . S
C145 C142 1.348 1_565 S
C145 C143 1.356 . S
H146 C140 0.930 . S
H147 C144 0.930 . S
O148 Li88 1.956 . S
O148 Li89 1.970 . S
O148 Li90 1.961 1_545 S
O148 C92 1.325 . S
O149 Li88 1.970 . S
O149 Li89 1.956 . S
O149 Li91 1.961 . S
O149 C98 1.325 . S
O150 Li88 1.961 1_565 S
O150 Li90 1.956 . S
O150 Li91 1.970 1_565 S
O150 C120 1.325 . S
O151 Li89 1.961 1_565 S
O151 Li90 1.970 . S
O151 Li91 1.956 1_565 S
O151 C126 1.325 . S
H152 C94 0.929 . S
H153 C95 0.930 . S
H154 C96 0.930 . S
H155 C97 0.930 . S
H156 C99 0.930 . S
H157 C101 0.929 . S
H158 C102 0.930 . S
H159 C103 0.930 . S
H160 C106 0.930 . S
H161 C109 0.929 . S
H162 C114 0.929 . S
H163 C115 0.930 . S
H164 C122 0.929 . S
H165 C123 0.930 . S
H166 C124 0.930 . S
H167 C125 0.930 . S
H168 C127 0.929 . S
H169 C128 0.930 . S
H170 C129 0.930 . S
H171 C130 0.930 . S
H172 C134 0.929 . S
H173 C136 0.930 . S
H174 C142 0.929 . S
H175 C143 0.930 . S
Li176 N193 1.990 . S
Li176 O236 1.956 1_655 S
Li176 O237 1.970 . S
Li176 O238 1.961 . S
Li177 N201 1.990 . S
Li177 O236 1.970 1_655 S
Li177 O237 1.956 . S
Li177 O239 1.961 1_655 S
Li178 N223 1.990 . S
Li178 O236 1.961 . S
Li178 O238 1.956 1_455 S
Li178 O239 1.970 . S
Li179 N229 1.990 . S
Li179 O237 1.961 . S
Li179 O238 1.970 . S
Li179 O239 1.956 1_655 S
C180 C182 1.348 . S
C180 C183 1.356 . S
C180 O236 1.325 . S
N181 C184 1.314 . S
N181 C185 1.279 . S
C182 C180 1.348 . S
C182 C184 1.353 . S
C182 H240 0.929 1_455 S
C183 C180 1.356 . S
C183 C185 1.358 . S
C183 H241 0.930 . S
C184 N181 1.314 . S
C184 C182 1.353 . S
C184 H242 0.930 . S
C185 N181 1.279 . S
C185 C183 1.358 . S
C185 H243 0.930 . S
C186 C189 1.348 . S
C186 C190 1.356 . S
C186 O237 1.325 . S
C187 N188 1.279 . S
C187 C190 1.358 . S
C187 H244 0.930 . S
N188 C187 1.279 . S
N188 C191 1.314 . S
C189 C186 1.348 . S
C189 C191 1.353 . S
C189 H245 0.929 . S
C190 C186 1.356 . S
C190 C187 1.358 . S
C190 H246 0.930 . S
C191 N188 1.314 . S
C191 C189 1.353 . S
C191 H247 0.930 . S
C192 N193 1.314 . S
C192 C197 1.353 . S
C192 H198 0.930 . S
N193 Li176 1.990 . S
N193 C192 1.314 . S
N193 C195 1.279 . S
C194 C195 1.358 . S
C194 C196 1.356 . S
C194 H248 0.930 . S
C195 N193 1.279 . S
C195 C194 1.358 . S
C195 H199 0.930 . S
C196 C194 1.356 . S
C196 C197 1.348 . S
C197 C192 1.353 . S
C197 C196 1.348 . S
C197 H249 0.929 . S
H198 C192 0.930 . S
H199 C195 0.930 . S
C200 N201 1.314 1_455 S
C200 C202 1.353 . S
C200 H206 0.930 . S
N201 Li177 1.990 . S
N201 C200 1.314 1_655 S
N201 C204 1.279 . S
C202 C200 1.353 . S
C202 C205 1.348 . S
C202 H250 0.929 . S
C203 C204 1.358 . S
C203 C205 1.356 1_655 S
C203 H251 0.930 . S
C204 N201 1.279 . S
C204 C203 1.358 . S
C204 H207 0.930 . S
C205 C202 1.348 . S
C205 C203 1.356 1_455 S
H206 C200 0.930 . S
H207 C204 0.930 . S
C208 C210 1.348 . S
C208 C211 1.356 . S
C208 O238 1.325 . S
N209 C212 1.314 . S
N209 C213 1.279 . S
C210 C208 1.348 . S
C210 C212 1.353 . S
C210 H252 0.925 1_655 S
C211 C208 1.356 . S
C211 C213 1.358 . S
C211 H253 0.930 . S
C212 N209 1.314 . S
C212 C210 1.353 . S
C212 H254 0.930 . S
C213 N209 1.279 . S
C213 C211 1.358 . S
C213 H255 0.930 . S
C214 C215 1.348 . S
C214 C216 1.356 . S
C214 O239 1.325 . S
C215 C214 1.348 . S
C215 C217 1.353 . S
C215 H256 0.929 . S
C216 C214 1.356 . S
C216 C218 1.358 . S
C216 H257 0.930 . S
C217 C215 1.353 . S
C217 N219 1.314 . S
C217 H258 0.930 . S
C218 C216 1.358 . S
C218 N219 1.279 . S
C218 H259 0.930 . S
N219 C217 1.314 . S
N219 C218 1.279 . S
C220 C222 1.353 . S
C220 N223 1.314 . S
C220 H226 0.930 . S
C221 N223 1.279 . S
C221 C224 1.358 . S
C221 H227 0.930 . S
C222 C220 1.353 . S
C222 C225 1.348 . S
C222 H260 0.929 . S
N223 Li178 1.990 . S
N223 C220 1.314 . S
N223 C221 1.279 . S
C224 C221 1.358 . S
C224 C225 1.356 . S
C224 H261 0.930 . S
C225 C222 1.348 . S
C225 C224 1.356 . S
H226 C220 0.930 . S
H227 C221 0.930 . S
C228 N229 1.314 . S
C228 C230 1.353 . S
C228 H234 0.930 . S
N229 Li179 1.990 . S
N229 C228 1.314 . S
N229 C232 1.279 1_655 S
C230 C228 1.353 . S
C230 C233 1.348 . S
C230 H262 0.929 . S
C231 C232 1.355 1_655 S
C231 C233 1.382 . S
C231 H263 0.908 1_655 S
C232 N229 1.279 1_455 S
C232 C231 1.355 1_455 S
C232 H235 0.930 . S
C233 C230 1.348 . S
C233 C231 1.382 . S
H234 C228 0.930 . S
H235 C232 0.930 . S
O236 Li176 1.956 1_455 S
O236 Li177 1.970 1_455 S
O236 Li178 1.961 . S
O236 C180 1.325 . S
O237 Li176 1.970 . S
O237 Li177 1.956 . S
O237 Li179 1.961 . S
O237 C186 1.325 . S
O238 Li176 1.961 . S
O238 Li178 1.956 1_655 S
O238 Li179 1.970 . S
O238 C208 1.325 . S
O239 Li177 1.961 1_455 S
O239 Li178 1.970 . S
O239 Li179 1.956 1_455 S
O239 C214 1.325 . S
H240 C182 0.929 1_655 S
H241 C183 0.930 . S
H242 C184 0.930 . S
H243 C185 0.930 . S
H244 C187 0.930 . S
H245 C189 0.929 . S
H246 C190 0.930 . S
H247 C191 0.930 . S
H248 C194 0.930 . S
H249 C197 0.929 . S
H250 C202 0.929 . S
H251 C203 0.930 . S
H252 C210 0.925 1_455 S
H253 C211 0.930 . S
H254 C212 0.930 . S
H255 C213 0.930 . S
H256 C215 0.929 . S
H257 C216 0.930 . S
H258 C217 0.930 . S
H259 C218 0.930 . S
H260 C222 0.929 . S
H261 C224 0.930 . S
H262 C230 0.929 . S
H263 C231 0.908 1_455 S
Li264 N281 1.990 . S
Li264 O324 1.956 1_565 S
Li264 O325 1.970 1_565 S
Li264 O326 1.961 . S
Li265 N289 1.990 . S
Li265 O324 1.970 . S
Li265 O325 1.956 . S
Li265 O327 1.961 1_545 S
Li266 N311 1.990 . S
Li266 O324 1.961 1_565 S
Li266 O326 1.956 . S
Li266 O327 1.970 . S
Li267 N317 1.990 . S
Li267 O325 1.961 1_565 S
Li267 O326 1.970 . S
Li267 O327 1.956 . S
C268 C270 1.348 . S
C268 C271 1.356 1_545 S
C268 O324 1.325 . S
N269 C272 1.314 . S
N269 C273 1.279 1_545 S
C270 C268 1.348 . S
C270 C272 1.353 . S
C270 H328 0.929 . S
C271 C268 1.356 1_565 S
C271 C273 1.358 . S
C271 H329 0.930 . S
C272 N269 1.314 . S
C272 C270 1.353 . S
C272 H330 0.930 . S
C273 N269 1.279 1_565 S
C273 C271 1.358 . S
C273 H331 0.930 . S
C274 C277 1.348 . S
C274 C278 1.356 . S
C274 O325 1.325 . S
C275 N276 1.279 . S
C275 C278 1.358 . S
C275 H332 0.930 . S
N276 C275 1.279 . S
N276 C279 1.314 . S
C277 C274 1.348 . S
C277 C279 1.353 . S
C277 H333 0.929 . S
C278 C274 1.356 . S
C278 C275 1.358 . S
C278 H334 0.930 . S
C279 N276 1.314 . S
C279 C277 1.353 . S
C279 H335 0.930 . S
C280 N281 1.314 . S
C280 C285 1.353 . S
C280 H286 0.930 . S
N281 Li264 1.990 . S
N281 C280 1.314 . S
N281 C283 1.279 1_565 S
C282 C283 1.358 . S
C282 C284 1.356 . S
C282 H336 0.930 . S
C283 N281 1.279 1_545 S
C283 C282 1.358 . S
C283 H287 0.930 . S
C284 C282 1.356 . S
C284 C285 1.348 1_545 S
C285 C280 1.353 . S
C285 C284 1.348 1_565 S
C285 H337 0.929 . S
H286 C280 0.930 . S
H287 C283 0.930 . S
C288 N289 1.314 . S
C288 C290 1.353 . S
C288 H294 0.930 . S
N289 Li265 1.990 . S
N289 C288 1.314 . S
N289 C292 1.279 . S
C290 C288 1.353 . S
C290 C293 1.348 . S
C290 H338 0.929 . S
C291 C292 1.358 . S
C291 C293 1.356 . S
C291 H339 0.930 . S
C292 N289 1.279 . S
C292 C291 1.358 . S
C292 H295 0.930 . S
C293 C290 1.348 . S
C293 C291 1.356 . S
H294 C288 0.930 . S
H295 C292 0.930 . S
C296 C298 1.348 . S
C296 C299 1.356 . S
C296 O326 1.325 . S
N297 C300 1.314 . S
N297 C301 1.279 . S
C298 C296 1.348 . S
C298 C300 1.353 . S
C298 H340 0.929 . S
C299 C296 1.356 . S
C299 C301 1.358 . S
C299 H341 0.930 . S
C300 N297 1.314 . S
C300 C298 1.353 . S
C300 H342 0.930 . S
C301 N297 1.279 . S
C301 C299 1.358 . S
C301 H343 0.930 . S
C302 C303 1.348 . S
C302 C304 1.356 1_565 S
C302 O327 1.325 . S
C303 C302 1.348 . S
C303 C305 1.353 . S
C303 H344 0.929 . S
C304 C302 1.356 1_545 S
C304 C306 1.358 . S
C304 H345 0.930 . S
C305 C303 1.353 . S
C305 N307 1.314 . S
C305 H346 0.930 . S
C306 C304 1.358 . S
C306 N307 1.279 1_545 S
C306 H347 0.930 . S
N307 C305 1.314 . S
N307 C306 1.279 1_565 S
C308 C310 1.353 . S
C308 N311 1.314 . S
C308 H314 0.930 . S
C309 N311 1.279 . S
C309 C312 1.358 . S
C309 H315 0.930 . S
C310 C308 1.353 . S
C310 C313 1.348 . S
C310 H348 0.929 . S
N311 Li266 1.990 . S
N311 C308 1.314 . S
N311 C309 1.279 . S
C312 C309 1.358 . S
C312 C313 1.356 . S
C312 H349 0.930 . S
C313 C310 1.348 . S
C313 C312 1.356 . S
H314 C308 0.930 . S
H315 C309 0.930 . S
C316 N317 1.314 . S
C316 C318 1.353 . S
C316 H322 0.930 . S
N317 Li267 1.990 . S
N317 C316 1.314 . S
N317 C320 1.279 . S
C318 C316 1.353 . S
C318 C321 1.348 . S
C318 H350 0.929 . S
C319 C320 1.358 . S
C319 C321 1.356 . S
C319 H351 0.930 . S
C320 N317 1.279 . S
C320 C319 1.358 . S
C320 H323 0.930 . S
C321 C318 1.348 . S
C321 C319 1.356 . S
H322 C316 0.930 . S
H323 C320 0.930 . S
O324 Li264 1.956 1_545 S
O324 Li265 1.970 . S
O324 Li266 1.961 1_545 S
O324 C268 1.325 . S
O325 Li264 1.970 1_545 S
O325 Li265 1.956 . S
O325 Li267 1.961 1_545 S
O325 C274 1.325 . S
O326 Li264 1.961 . S
O326 Li266 1.956 . S
O326 Li267 1.970 . S
O326 C296 1.325 . S
O327 Li265 1.961 1_565 S
O327 Li266 1.970 . S
O327 Li267 1.956 . S
O327 C302 1.325 . S
H328 C270 0.929 . S
H329 C271 0.930 . S
H330 C272 0.930 . S
H331 C273 0.930 . S
H332 C275 0.930 . S
H333 C277 0.929 . S
H334 C278 0.930 . S
H335 C279 0.930 . S
H336 C282 0.930 . S
H337 C285 0.929 . S
H338 C290 0.929 . S
H339 C291 0.930 . S
H340 C298 0.929 . S
H341 C299 0.930 . S
H342 C300 0.930 . S
H343 C301 0.930 . S
H344 C303 0.929 . S
H345 C304 0.930 . S
H346 C305 0.930 . S
H347 C306 0.930 . S
H348 C310 0.929 . S
H349 C312 0.930 . S
H350 C318 0.929 . S
H351 C319 0.930 . S
Li352 N369 1.990 . S
Li352 O412 1.956 1_455 S
Li352 O413 1.970 . S
Li352 O414 1.961 . S
Li353 N377 1.990 . S
Li353 O412 1.970 . S
Li353 O413 1.956 1_655 S
Li353 O415 1.961 . S
Li354 N399 1.990 . S
Li354 O412 1.961 1_455 S
Li354 O414 1.956 . S
Li354 O415 1.970 1_455 S
Li355 N405 1.990 . S
Li355 O413 1.961 . S
Li355 O414 1.970 . S
Li355 O415 1.956 1_455 S
C356 C358 1.348 . S
C356 C359 1.356 . S
C356 O412 1.325 . S
N357 C360 1.314 . S
N357 C361 1.279 . S
C358 C356 1.348 . S
C358 C360 1.353 . S
C358 H416 0.929 . S
C359 C356 1.356 . S
C359 C361 1.358 . S
C359 H417 0.930 . S
C360 N357 1.314 . S
C360 C358 1.353 . S
C360 H418 0.930 . S
C361 N357 1.279 . S
C361 C359 1.358 . S
C361 H419 0.930 . S
C362 C365 1.348 . S
C362 C366 1.356 . S
C362 O413 1.325 . S
C363 N364 1.279 . S
C363 C366 1.358 . S
C363 H420 0.930 . S
N364 C363 1.279 . S
N364 C367 1.314 . S
C365 C362 1.348 . S
C365 C367 1.353 . S
C365 H421 0.925 1_455 S
C366 C362 1.356 . S
C366 C363 1.358 . S
C366 H422 0.930 . S
C367 N364 1.314 . S
C367 C365 1.353 . S
C367 H423 0.930 . S
C368 N369 1.314 . S
C368 C373 1.353 . S
C368 H374 0.930 . S
N369 Li352 1.990 . S
N369 C368 1.314 . S
N369 C371 1.279 1_455 S
C370 C371 1.355 1_455 S
C370 C372 1.382 . S
C370 H424 0.908 1_455 S
C371 N369 1.279 1_655 S
C371 C370 1.355 1_655 S
C371 H375 0.930 . S
C372 C370 1.382 . S
C372 C373 1.348 . S
C373 C368 1.353 . S
C373 C372 1.348 . S
C373 H425 0.929 . S
H374 C368 0.930 . S
H375 C371 0.930 . S
C376 N377 1.314 . S
C376 C378 1.353 . S
C376 H382 0.930 . S
N377 Li353 1.990 . S
N377 C376 1.314 . S
N377 C380 1.279 . S
C378 C376 1.353 . S
C378 C381 1.348 . S
C378 H426 0.929 . S
C379 C380 1.358 . S
C379 C381 1.356 . S
C379 H427 0.930 . S
C380 N377 1.279 . S
C380 C379 1.358 . S
C380 H383 0.930 . S
C381 C378 1.348 . S
C381 C379 1.356 . S
H382 C376 0.930 . S
H383 C380 0.930 . S
C384 C386 1.348 . S
C384 C387 1.356 . S
C384 O414 1.325 . S
N385 C388 1.314 . S
N385 C389 1.279 . S
C386 C384 1.348 . S
C386 C388 1.353 . S
C386 H428 0.929 . S
C387 C384 1.356 . S
C387 C389 1.358 . S
C387 H429 0.930 . S
C388 N385 1.314 . S
C388 C386 1.353 . S
C388 H430 0.930 . S
C389 N385 1.279 . S
C389 C387 1.358 . S
C389 H431 0.930 . S
C390 C391 1.348 . S
C390 C392 1.356 . S
C390 O415 1.325 . S
C391 C390 1.348 . S
C391 C393 1.353 . S
C391 H432 0.929 1_655 S
C392 C390 1.356 . S
C392 C394 1.358 . S
C392 H433 0.930 . S
C393 C391 1.353 . S
C393 N395 1.314 . S
C393 H434 0.930 . S
C394 C392 1.358 . S
C394 N395 1.279 . S
C394 H435 0.930 . S
N395 C393 1.314 . S
N395 C394 1.279 . S
C396 C398 1.353 . S
C396 N399 1.314 1_655 S
C396 H402 0.930 . S
C397 N399 1.279 . S
C397 C400 1.358 . S
C397 H403 0.930 . S
C398 C396 1.353 . S
C398 C401 1.348 . S
C398 H436 0.929 . S
N399 Li354 1.990 . S
N399 C396 1.314 1_455 S
N399 C397 1.279 . S
C400 C397 1.358 . S
C400 C401 1.356 1_455 S
C400 H437 0.930 . S
C401 C398 1.348 . S
C401 C400 1.356 1_655 S
H402 C396 0.930 . S
H403 C397 0.930 . S
C404 N405 1.314 . S
C404 C406 1.353 . S
C404 H410 0.930 . S
N405 Li355 1.990 . S
N405 C404 1.314 . S
N405 C408 1.279 . S
C406 C404 1.353 . S
C406 C409 1.348 . S
C406 H438 0.929 . S
C407 C408 1.358 . S
C407 C409 1.356 . S
C407 H439 0.930 . S
C408 N405 1.279 . S
C408 C407 1.358 . S
C408 H411 0.930 . S
C409 C406 1.348 . S
C409 C407 1.356 . S
H410 C404 0.930 . S
H411 C408 0.930 . S
O412 Li352 1.956 1_655 S
O412 Li353 1.970 . S
O412 Li354 1.961 1_655 S
O412 C356 1.325 . S
O413 Li352 1.970 . S
O413 Li353 1.956 1_455 S
O413 Li355 1.961 . S
O413 C362 1.325 . S
O414 Li352 1.961 . S
O414 Li354 1.956 . S
O414 Li355 1.970 . S
O414 C384 1.325 . S
O415 Li353 1.961 . S
O415 Li354 1.970 1_655 S
O415 Li355 1.956 1_655 S
O415 C390 1.325 . S
H416 C358 0.929 . S
H417 C359 0.930 . S
H418 C360 0.930 . S
H419 C361 0.930 . S
H420 C363 0.930 . S
H421 C365 0.925 1_655 S
H422 C366 0.930 . S
H423 C367 0.930 . S
H424 C370 0.908 1_655 S
H425 C373 0.929 . S
H426 C378 0.929 . S
H427 C379 0.930 . S
H428 C386 0.929 . S
H429 C387 0.930 . S
H430 C388 0.930 . S
H431 C389 0.930 . S
H432 C391 0.929 1_455 S
H433 C392 0.930 . S
H434 C393 0.930 . S
H435 C394 0.930 . S
H436 C398 0.929 . S
H437 C400 0.930 . S
H438 C406 0.929 . S
H439 C407 0.930 . S
Li440 N457 1.990 . S
Li440 O500 1.956 . S
Li440 O501 1.970 . S
Li440 O502 1.961 1_545 S
Li441 N465 1.990 . S
Li441 O500 1.970 . S
Li441 O501 1.956 . S
Li441 O503 1.961 1_545 S
Li442 N487 1.990 . S
Li442 O500 1.961 . S
Li442 O502 1.956 1_545 S
Li442 O503 1.970 1_545 S
Li443 N493 1.990 . S
Li443 O501 1.961 1_565 S
Li443 O502 1.970 . S
Li443 O503 1.956 . S
C444 C446 1.348 . S
C444 C447 1.356 . S
C444 O500 1.325 . S
N445 C448 1.314 . S
N445 C449 1.279 . S
C446 C444 1.348 . S
C446 C448 1.353 . S
C446 H504 0.929 . S
C447 C444 1.356 . S
C447 C449 1.358 . S
C447 H505 0.930 . S
C448 N445 1.314 . S
C448 C446 1.353 . S
C448 H506 0.930 . S
C449 N445 1.279 . S
C449 C447 1.358 . S
C449 H507 0.930 . S
C450 C453 1.348 . S
C450 C454 1.356 1_545 S
C450 O501 1.325 . S
C451 N452 1.279 1_565 S
C451 C454 1.358 . S
C451 H508 0.930 . S
N452 C451 1.279 1_545 S
N452 C455 1.314 . S
C453 C450 1.348 . S
C453 C455 1.353 . S
C453 H509 0.929 . S
C454 C450 1.356 1_565 S
C454 C451 1.358 . S
C454 H510 0.930 . S
C455 N452 1.314 . S
C455 C453 1.353 . S
C455 H511 0.930 . S
C456 N457 1.314 . S
C456 C461 1.353 . S
C456 H462 0.930 . S
N457 Li440 1.990 . S
N457 C456 1.314 . S
N457 C459 1.279 . S
C458 C459 1.358 . S
C458 C460 1.356 . S
C458 H512 0.930 . S
C459 N457 1.279 . S
C459 C458 1.358 . S
C459 H463 0.930 . S
C460 C458 1.356 . S
C460 C461 1.348 . S
C461 C456 1.353 . S
C461 C460 1.348 . S
C461 H513 0.929 . S
H462 C456 0.930 . S
H463 C459 0.930 . S
C464 N465 1.314 . S
C464 C466 1.353 . S
C464 H470 0.930 . S
N465 Li441 1.990 . S
N465 C464 1.314 . S
N465 C468 1.279 . S
C466 C464 1.353 . S
C466 C469 1.348 . S
C466 H514 0.929 . S
C467 C468 1.358 . S
C467 C469 1.356 . S
C467 H515 0.930 . S
C468 N465 1.279 . S
C468 C467 1.358 . S
C468 H471 0.930 . S
C469 C466 1.348 . S
C469 C467 1.356 . S
H470 C464 0.930 . S
H471 C468 0.930 . S
C472 C474 1.348 . S
C472 C475 1.356 1_565 S
C472 O502 1.325 . S
N473 C476 1.314 . S
N473 C477 1.279 1_565 S
C474 C472 1.348 . S
C474 C476 1.353 . S
C474 H516 0.929 . S
C475 C472 1.356 1_545 S
C475 C477 1.358 . S
C475 H517 0.930 . S
C476 N473 1.314 . S
C476 C474 1.353 . S
C476 H518 0.930 . S
C477 N473 1.279 1_545 S
C477 C475 1.358 . S
C477 H519 0.930 . S
C478 C479 1.348 . S
C478 C480 1.356 . S
C478 O503 1.325 . S
C479 C478 1.348 . S
C479 C481 1.353 . S
C479 H520 0.929 . S
C480 C478 1.356 . S
C480 C482 1.358 . S
C480 H521 0.930 . S
C481 C479 1.353 . S
C481 N483 1.314 . S
C481 H522 0.930 . S
C482 C480 1.358 . S
C482 N483 1.279 . S
C482 H523 0.930 . S
N483 C481 1.314 . S
N483 C482 1.279 . S
C484 C486 1.353 . S
C484 N487 1.314 . S
C484 H490 0.930 . S
C485 N487 1.279 1_565 S
C485 C488 1.358 . S
C485 H491 0.930 . S
C486 C484 1.353 . S
C486 C489 1.348 1_545 S
C486 H524 0.929 . S
N487 Li442 1.990 . S
N487 C484 1.314 . S
N487 C485 1.279 1_545 S
C488 C485 1.358 . S
C488 C489 1.356 . S
C488 H525 0.930 . S
C489 C486 1.348 1_565 S
C489 C488 1.356 . S
H490 C484 0.930 . S
H491 C485 0.930 . S
C492 N493 1.314 . S
C492 C494 1.353 . S
C492 H498 0.930 . S
N493 Li443 1.990 . S
N493 C492 1.314 . S
N493 C496 1.279 . S
C494 C492 1.353 . S
C494 C497 1.348 . S
C494 H526 0.929 . S
C495 C496 1.358 . S
C495 C497 1.356 . S
C495 H527 0.930 . S
C496 N493 1.279 . S
C496 C495 1.358 . S
C496 H499 0.930 . S
C497 C494 1.348 . S
C497 C495 1.356 . S
H498 C492 0.930 . S
H499 C496 0.930 . S
O500 Li440 1.956 . S
O500 Li441 1.970 . S
O500 Li442 1.961 . S
O500 C444 1.325 . S
O501 Li440 1.970 . S
O501 Li441 1.956 . S
O501 Li443 1.961 1_545 S
O501 C450 1.325 . S
O502 Li440 1.961 1_565 S
O502 Li442 1.956 1_565 S
O502 Li443 1.970 . S
O502 C472 1.325 . S
O503 Li441 1.961 1_565 S
O503 Li442 1.970 1_565 S
O503 Li443 1.956 . S
O503 C478 1.325 . S
H504 C446 0.929 . S
H505 C447 0.930 . S
H506 C448 0.930 . S
H507 C449 0.930 . S
H508 C451 0.930 . S
H509 C453 0.929 . S
H510 C454 0.930 . S
H511 C455 0.930 . S
H512 C458 0.930 . S
H513 C461 0.929 . S
H514 C466 0.929 . S
H515 C467 0.930 . S
H516 C474 0.929 . S
H517 C475 0.930 . S
H518 C476 0.930 . S
H519 C477 0.930 . S
H520 C479 0.929 . S
H521 C480 0.930 . S
H522 C481 0.930 . S
H523 C482 0.930 . S
H524 C486 0.929 . S
H525 C488 0.930 . S
H526 C494 0.929 . S
H527 C495 0.930 . S
Li528 N545 1.990 . S
Li528 O588 1.956 1_655 S
Li528 O589 1.970 . S
Li528 O590 1.961 . S
Li529 N553 1.990 . S
Li529 O588 1.970 . S
Li529 O589 1.956 1_455 S
Li529 O591 1.961 . S
Li530 N575 1.990 . S
Li530 O588 1.961 1_655 S
Li530 O590 1.956 . S
Li530 O591 1.970 1_655 S
Li531 N581 1.990 . S
Li531 O589 1.961 . S
Li531 O590 1.970 . S
Li531 O591 1.956 1_655 S
C532 C534 1.348 . S
C532 C535 1.356 . S
C532 O588 1.325 . S
N533 C536 1.314 . S
N533 C537 1.279 . S
C534 C532 1.348 . S
C534 C536 1.353 . S
C534 H592 0.929 . S
C535 C532 1.356 . S
C535 C537 1.358 . S
C535 H593 0.930 . S
C536 N533 1.314 . S
C536 C534 1.353 . S
C536 H594 0.930 . S
C537 N533 1.279 . S
C537 C535 1.358 . S
C537 H595 0.930 . S
C538 C541 1.348 . S
C538 C542 1.356 . S
C538 O589 1.325 . S
C539 N540 1.279 . S
C539 C542 1.358 . S
C539 H596 0.930 . S
N540 C539 1.279 . S
N540 C543 1.314 . S
C541 C538 1.348 . S
C541 C543 1.353 . S
C541 H597 0.925 1_655 S
C542 C538 1.356 . S
C542 C539 1.358 . S
C542 H598 0.930 . S
C543 N540 1.314 . S
C543 C541 1.353 . S
C543 H599 0.930 . S
C544 N545 1.314 . S
C544 C549 1.353 . S
C544 H550 0.930 . S
N545 Li528 1.990 . S
N545 C544 1.314 . S
N545 C547 1.279 1_655 S
C546 C547 1.355 1_655 S
C546 C548 1.382 . S
C546 H600 0.908 1_655 S
C547 N545 1.279 1_455 S
C547 C546 1.355 1_455 S
C547 H551 0.930 . S
C548 C546 1.382 . S
C548 C549 1.348 . S
C549 C544 1.353 . S
C549 C548 1.348 . S
C549 H601 0.929 . S
H550 C544 0.930 . S
H551 C547 0.930 . S
C552 N553 1.314 . S
C552 C554 1.353 . S
C552 H558 0.930 . S
N553 Li529 1.990 . S
N553 C552 1.314 . S
N553 C556 1.279 . S
C554 C552 1.353 . S
C554 C557 1.348 . S
C554 H602 0.929 . S
C555 C556 1.358 . S
C555 C557 1.356 . S
C555 H603 0.930 . S
C556 N553 1.279 . S
C556 C555 1.358 . S
C556 H559 0.930 . S
C557 C554 1.348 . S
C557 C555 1.356 . S
H558 C552 0.930 . S
H559 C556 0.930 . S
C560 C562 1.348 . S
C560 C563 1.356 . S
C560 O590 1.325 . S
N561 C564 1.314 . S
N561 C565 1.279 . S
C562 C560 1.348 . S
C562 C564 1.353 . S
C562 H604 0.929 . S
C563 C560 1.356 . S
C563 C565 1.358 . S
C563 H605 0.930 . S
C564 N561 1.314 . S
C564 C562 1.353 . S
C564 H606 0.930 . S
C565 N561 1.279 . S
C565 C563 1.358 . S
C565 H607 0.930 . S
C566 C567 1.348 . S
C566 C568 1.356 . S
C566 O591 1.325 . S
C567 C566 1.348 . S
C567 C569 1.353 . S
C567 H608 0.929 1_455 S
C568 C566 1.356 . S
C568 C570 1.358 . S
C568 H609 0.930 . S
C569 C567 1.353 . S
C569 N571 1.314 . S
C569 H610 0.930 . S
C570 C568 1.358 . S
C570 N571 1.279 . S
C570 H611 0.930 . S
N571 C569 1.314 . S
N571 C570 1.279 . S
C572 C574 1.353 . S
C572 N575 1.314 1_455 S
C572 H578 0.930 . S
C573 N575 1.279 . S
C573 C576 1.358 . S
C573 H579 0.930 . S
C574 C572 1.353 . S
C574 C577 1.348 . S
C574 H612 0.929 . S
N575 Li530 1.990 . S
N575 C572 1.314 1_655 S
N575 C573 1.279 . S
C576 C573 1.358 . S
C576 C577 1.356 1_655 S
C576 H613 0.930 . S
C577 C574 1.348 . S
C577 C576 1.356 1_455 S
H578 C572 0.930 . S
H579 C573 0.930 . S
C580 N581 1.314 . S
C580 C582 1.353 . S
C580 H586 0.930 . S
N581 Li531 1.990 . S
N581 C580 1.314 . S
N581 C584 1.279 . S
C582 C580 1.353 . S
C582 C585 1.348 . S
C582 H614 0.929 . S
C583 C584 1.358 . S
C583 C585 1.356 . S
C583 H615 0.930 . S
C584 N581 1.279 . S
C584 C583 1.358 . S
C584 H587 0.930 . S
C585 C582 1.348 . S
C585 C583 1.356 . S
H586 C580 0.930 . S
H587 C584 0.930 . S
O588 Li528 1.956 1_455 S
O588 Li529 1.970 . S
O588 Li530 1.961 1_455 S
O588 C532 1.325 . S
O589 Li528 1.970 . S
O589 Li529 1.956 1_655 S
O589 Li531 1.961 . S
O589 C538 1.325 . S
O590 Li528 1.961 . S
O590 Li530 1.956 . S
O590 Li531 1.970 . S
O590 C560 1.325 . S
O591 Li529 1.961 . S
O591 Li530 1.970 1_455 S
O591 Li531 1.956 1_455 S
O591 C566 1.325 . S
H592 C534 0.929 . S
H593 C535 0.930 . S
H594 C536 0.930 . S
H595 C537 0.930 . S
H596 C539 0.930 . S
H597 C541 0.925 1_455 S
H598 C542 0.930 . S
H599 C543 0.930 . S
H600 C546 0.908 1_455 S
H601 C549 0.929 . S
H602 C554 0.929 . S
H603 C555 0.930 . S
H604 C562 0.929 . S
H605 C563 0.930 . S
H606 C564 0.930 . S
H607 C565 0.930 . S
H608 C567 0.929 1_655 S
H609 C568 0.930 . S
H610 C569 0.930 . S
H611 C570 0.930 . S
H612 C574 0.929 . S
H613 C576 0.930 . S
H614 C582 0.929 . S
H615 C583 0.930 . S
Li616 N633 1.990 . S
Li616 O676 1.956 . S
Li616 O677 1.970 . S
Li616 O678 1.961 1_545 S
Li617 N641 1.990 . S
Li617 O676 1.970 1_565 S
Li617 O677 1.956 1_565 S
Li617 O679 1.961 . S
Li618 N663 1.990 . S
Li618 O676 1.961 1_565 S
Li618 O678 1.956 . S
Li618 O679 1.970 . S
Li619 N669 1.990 . S
Li619 O677 1.961 1_565 S
Li619 O678 1.970 . S
Li619 O679 1.956 . S
C620 C622 1.348 . S
C620 C623 1.356 . S
C620 O676 1.325 . S
N621 C624 1.314 . S
N621 C625 1.279 . S
C622 C620 1.348 . S
C622 C624 1.353 . S
C622 H680 0.929 . S
C623 C620 1.356 . S
C623 C625 1.358 . S
C623 H681 0.930 . S
C624 N621 1.314 . S
C624 C622 1.353 . S
C624 H682 0.930 . S
C625 N621 1.279 . S
C625 C623 1.358 . S
C625 H683 0.930 . S
C626 C629 1.348 . S
C626 C630 1.356 1_545 S
C626 O677 1.325 . S
C627 N628 1.279 1_565 S
C627 C630 1.358 . S
C627 H684 0.930 . S
N628 C627 1.279 1_545 S
N628 C631 1.314 . S
C629 C626 1.348 . S
C629 C631 1.353 . S
C629 H685 0.929 . S
C630 C626 1.356 1_565 S
C630 C627 1.358 . S
C630 H686 0.930 . S
C631 N628 1.314 . S
C631 C629 1.353 . S
C631 H687 0.930 . S
C632 N633 1.314 . S
C632 C637 1.353 . S
C632 H638 0.930 . S
N633 Li616 1.990 . S
N633 C632 1.314 . S
N633 C635 1.279 . S
C634 C635 1.358 . S
C634 C636 1.356 . S
C634 H688 0.930 . S
C635 N633 1.279 . S
C635 C634 1.358 . S
C635 H639 0.930 . S
C636 C634 1.356 . S
C636 C637 1.348 . S
C637 C632 1.353 . S
C637 C636 1.348 . S
C637 H689 0.929 . S
H638 C632 0.930 . S
H639 C635 0.930 . S
C640 N641 1.314 . S
C640 C642 1.353 . S
C640 H646 0.930 . S
N641 Li617 1.990 . S
N641 C640 1.314 . S
N641 C644 1.279 1_565 S
C642 C640 1.353 . S
C642 C645 1.348 1_565 S
C642 H690 0.929 . S
C643 C644 1.358 . S
C643 C645 1.356 . S
C643 H691 0.930 . S
C644 N641 1.279 1_545 S
C644 C643 1.358 . S
C644 H647 0.930 . S
C645 C642 1.348 1_545 S
C645 C643 1.356 . S
H646 C640 0.930 . S
H647 C644 0.930 . S
C648 C650 1.348 . S
C648 C651 1.356 1_565 S
C648 O678 1.325 . S
N649 C652 1.314 . S
N649 C653 1.279 1_565 S
C650 C648 1.348 . S
C650 C652 1.353 . S
C650 H692 0.929 . S
C651 C648 1.356 1_545 S
C651 C653 1.358 . S
C651 H693 0.930 . S
C652 N649 1.314 . S
C652 C650 1.353 . S
C652 H694 0.930 . S
C653 N649 1.279 1_545 S
C653 C651 1.358 . S
C653 H695 0.930 . S
C654 C655 1.348 . S
C654 C656 1.356 . S
C654 O679 1.325 . S
C655 C654 1.348 . S
C655 C657 1.353 . S
C655 H696 0.929 . S
C656 C654 1.356 . S
C656 C658 1.358 . S
C656 H697 0.930 . S
C657 C655 1.353 . S
C657 N659 1.314 . S
C657 H698 0.930 . S
C658 C656 1.358 . S
C658 N659 1.279 . S
C658 H699 0.930 . S
N659 C657 1.314 . S
N659 C658 1.279 . S
C660 C662 1.353 . S
C660 N663 1.314 . S
C660 H666 0.930 . S
C661 N663 1.279 . S
C661 C664 1.358 . S
C661 H667 0.930 . S
C662 C660 1.353 . S
C662 C665 1.348 . S
C662 H700 0.929 . S
N663 Li618 1.990 . S
N663 C660 1.314 . S
N663 C661 1.279 . S
C664 C661 1.358 . S
C664 C665 1.356 . S
C664 H701 0.930 . S
C665 C662 1.348 . S
C665 C664 1.356 . S
H666 C660 0.930 . S
H667 C661 0.930 . S
C668 N669 1.314 . S
C668 C670 1.353 . S
C668 H674 0.930 . S
N669 Li619 1.990 . S
N669 C668 1.314 . S
N669 C672 1.279 . S
C670 C668 1.353 . S
C670 C673 1.348 . S
C670 H702 0.929 . S
C671 C672 1.358 . S
C671 C673 1.356 . S
C671 H703 0.930 . S
C672 N669 1.279 . S
C672 C671 1.358 . S
C672 H675 0.930 . S
C673 C670 1.348 . S
C673 C671 1.356 . S
H674 C668 0.930 . S
H675 C672 0.930 . S
O676 Li616 1.956 . S
O676 Li617 1.970 1_545 S
O676 Li618 1.961 1_545 S
O676 C620 1.325 . S
O677 Li616 1.970 . S
O677 Li617 1.956 1_545 S
O677 Li619 1.961 1_545 S
O677 C626 1.325 . S
O678 Li616 1.961 1_565 S
O678 Li618 1.956 . S
O678 Li619 1.970 . S
O678 C648 1.325 . S
O679 Li617 1.961 . S
O679 Li618 1.970 . S
O679 Li619 1.956 . S
O679 C654 1.325 . S
H680 C622 0.929 . S
H681 C623 0.930 . S
H682 C624 0.930 . S
H683 C625 0.930 . S
H684 C627 0.930 . S
H685 C629 0.929 . S
H686 C630 0.930 . S
H687 C631 0.930 . S
H688 C634 0.930 . S
H689 C637 0.929 . S
H690 C642 0.929 . S
H691 C643 0.930 . S
H692 C650 0.929 . S
H693 C651 0.930 . S
H694 C652 0.930 . S
H695 C653 0.930 . S
H696 C655 0.929 . S
H697 C656 0.930 . S
H698 C657 0.930 . S
H699 C658 0.930 . S
H700 C662 0.929 . S
H701 C664 0.930 . S
H702 C670 0.929 . S
H703 C671 0.930 . S
Li704 N721 1.990 . S
Li704 O764 1.956 . S
Li704 O765 1.970 . S
Li704 O766 1.961 . S
Li705 N729 1.990 . S
Li705 O764 1.970 . S
Li705 O765 1.956 . S
Li705 O767 1.961 . S
Li706 N751 1.990 . S
Li706 O764 1.961 . S
Li706 O766 1.956 . S
Li706 O767 1.970 . S
Li707 N757 1.990 . S
Li707 O765 1.961 . S
Li707 O766 1.970 . S
Li707 O767 1.956 . S
C708 C710 1.348 . S
C708 C711 1.356 . S
C708 O764 1.325 . S
N709 C712 1.314 . S
N709 C713 1.279 . S
C710 C708 1.348 . S
C710 C712 1.353 . S
C710 H768 0.929 . S
C711 C708 1.356 . S
C711 C713 1.358 . S
C711 H769 0.930 . S
C712 N709 1.314 . S
C712 C710 1.353 . S
C712 H770 0.930 . S
C713 N709 1.279 . S
C713 C711 1.358 . S
C713 H771 0.930 . S
C714 C717 1.348 . S
C714 C718 1.356 . S
C714 O765 1.325 . S
C715 N716 1.279 . S
C715 C718 1.358 . S
C715 H772 0.930 . S
N716 C715 1.279 . S
N716 C719 1.314 . S
C717 C714 1.348 . S
C717 C719 1.353 . S
C717 H773 0.929 . S
C718 C714 1.356 . S
C718 C715 1.358 . S
C718 H774 0.930 . S
C719 N716 1.314 . S
C719 C717 1.353 . S
C719 H775 0.930 . S
C720 N721 1.314 . S
C720 C725 1.353 . S
C720 H726 0.930 . S
N721 Li704 1.990 . S
N721 C720 1.314 . S
N721 C723 1.279 . S
C722 C723 1.358 . S
C722 C724 1.356 . S
C722 H776 0.930 . S
C723 N721 1.279 . S
C723 C722 1.358 . S
C723 H727 0.930 . S
C724 C722 1.356 . S
C724 C725 1.348 . S
C725 C720 1.353 . S
C725 C724 1.348 . S
C725 H777 0.929 . S
H726 C720 0.930 . S
H727 C723 0.930 . S
C728 N729 1.314 . S
C728 C730 1.353 . S
C728 H734 0.930 . S
N729 Li705 1.990 . S
N729 C728 1.314 . S
N729 C732 1.279 . S
C730 C728 1.353 . S
C730 C733 1.348 . S
C730 H778 0.929 . S
C731 C732 1.358 . S
C731 C733 1.356 . S
C731 H779 0.930 . S
C732 N729 1.279 . S
C732 C731 1.358 . S
C732 H735 0.930 . S
C733 C730 1.348 . S
C733 C731 1.356 . S
H734 C728 0.930 . S
H735 C732 0.930 . S
C736 C738 1.348 . S
C736 C739 1.356 . S
C736 O766 1.325 . S
N737 C740 1.314 . S
N737 C741 1.279 . S
C738 C736 1.348 . S
C738 C740 1.353 . S
C738 H780 0.929 . S
C739 C736 1.356 . S
C739 C741 1.358 . S
C739 H781 0.930 . S
C740 N737 1.314 . S
C740 C738 1.353 . S
C740 H782 0.930 . S
C741 N737 1.279 . S
C741 C739 1.358 . S
C741 H783 0.930 . S
C742 C743 1.348 . S
C742 C744 1.356 . S
C742 O767 1.325 . S
C743 C742 1.348 . S
C743 C745 1.353 . S
C743 H784 0.929 . S
C744 C742 1.356 . S
C744 C746 1.358 . S
C744 H785 0.930 . S
C745 C743 1.353 . S
C745 N747 1.314 . S
C745 H786 0.930 . S
C746 C744 1.358 . S
C746 N747 1.279 . S
C746 H787 0.930 . S
N747 C745 1.314 . S
N747 C746 1.279 . S
C748 C750 1.353 . S
C748 N751 1.314 . S
C748 H754 0.930 . S
C749 N751 1.279 . S
C749 C752 1.358 . S
C749 H755 0.930 . S
C750 C748 1.353 . S
C750 C753 1.348 . S
C750 H788 0.929 . S
N751 Li706 1.990 . S
N751 C748 1.314 . S
N751 C749 1.279 . S
C752 C749 1.358 . S
C752 C753 1.356 . S
C752 H789 0.930 . S
C753 C750 1.348 . S
C753 C752 1.356 . S
H754 C748 0.930 . S
H755 C749 0.930 . S
C756 N757 1.314 . S
C756 C758 1.353 . S
C756 H762 0.930 . S
N757 Li707 1.990 . S
N757 C756 1.314 . S
N757 C760 1.279 . S
C758 C756 1.353 . S
C758 C761 1.348 . S
C758 H790 0.929 . S
C759 C760 1.358 . S
C759 C761 1.356 . S
C759 H791 0.930 . S
C760 N757 1.279 . S
C760 C759 1.358 . S
C760 H763 0.930 . S
C761 C758 1.348 . S
C761 C759 1.356 . S
H762 C756 0.930 . S
H763 C760 0.930 . S
O764 Li704 1.956 . S
O764 Li705 1.970 . S
O764 Li706 1.961 . S
O764 C708 1.325 . S
O765 Li704 1.970 . S
O765 Li705 1.956 . S
O765 Li707 1.961 . S
O765 C714 1.325 . S
O766 Li704 1.961 . S
O766 Li706 1.956 . S
O766 Li707 1.970 . S
O766 C736 1.325 . S
O767 Li705 1.961 . S
O767 Li706 1.970 . S
O767 Li707 1.956 . S
O767 C742 1.325 . S
H768 C710 0.929 . S
H769 C711 0.930 . S
H770 C712 0.930 . S
H771 C713 0.930 . S
H772 C715 0.930 . S
H773 C717 0.929 . S
H774 C718 0.930 . S
H775 C719 0.930 . S
H776 C722 0.930 . S
H777 C725 0.929 . S
H778 C730 0.929 . S
H779 C731 0.930 . S
H780 C738 0.929 . S
H781 C739 0.930 . S
H782 C740 0.930 . S
H783 C741 0.930 . S
H784 C743 0.929 . S
H785 C744 0.930 . S
H786 C745 0.930 . S
H787 C746 0.930 . S
H788 C750 0.929 . S
H789 C752 0.930 . S
H790 C758 0.929 . S
H791 C759 0.930 . S
Li792 N809 1.990 . S
Li792 O852 1.956 . S
Li792 O853 1.970 . S
Li792 O854 1.961 . S
Li793 N817 1.990 . S
Li793 O852 1.970 . S
Li793 O853 1.956 . S
Li793 O855 1.961 . S
Li794 N839 1.990 . S
Li794 O852 1.961 . S
Li794 O854 1.956 . S
Li794 O855 1.970 . S
Li795 N845 1.990 . S
Li795 O853 1.961 . S
Li795 O854 1.970 . S
Li795 O855 1.956 . S
C796 C798 1.348 . S
C796 C799 1.356 . S
C796 O852 1.325 . S
N797 C800 1.314 . S
N797 C801 1.279 . S
C798 C796 1.348 . S
C798 C800 1.353 . S
C798 H856 0.929 . S
C799 C796 1.356 . S
C799 C801 1.358 . S
C799 H857 0.930 . S
C800 N797 1.314 . S
C800 C798 1.353 . S
C800 H858 0.930 . S
C801 N797 1.279 . S
C801 C799 1.358 . S
C801 H859 0.930 . S
C802 C805 1.348 . S
C802 C806 1.356 . S
C802 O853 1.325 . S
C803 N804 1.279 . S
C803 C806 1.358 . S
C803 H860 0.930 . S
N804 C803 1.279 . S
N804 C807 1.314 . S
C805 C802 1.348 . S
C805 C807 1.353 . S
C805 H861 0.929 . S
C806 C802 1.356 . S
C806 C803 1.358 . S
C806 H862 0.930 . S
C807 N804 1.314 . S
C807 C805 1.353 . S
C807 H863 0.930 . S
C808 N809 1.314 . S
C808 C813 1.353 . S
C808 H814 0.930 . S
N809 Li792 1.990 . S
N809 C808 1.314 . S
N809 C811 1.279 . S
C810 C811 1.358 . S
C810 C812 1.356 . S
C810 H864 0.930 . S
C811 N809 1.279 . S
C811 C810 1.358 . S
C811 H815 0.930 . S
C812 C810 1.356 . S
C812 C813 1.348 . S
C813 C808 1.353 . S
C813 C812 1.348 . S
C813 H865 0.929 . S
H814 C808 0.930 . S
H815 C811 0.930 . S
C816 N817 1.314 . S
C816 C818 1.353 . S
C816 H822 0.930 . S
N817 Li793 1.990 . S
N817 C816 1.314 . S
N817 C820 1.279 . S
C818 C816 1.353 . S
C818 C821 1.348 . S
C818 H866 0.929 . S
C819 C820 1.358 . S
C819 C821 1.356 . S
C819 H867 0.930 . S
C820 N817 1.279 . S
C820 C819 1.358 . S
C820 H823 0.930 . S
C821 C818 1.348 . S
C821 C819 1.356 . S
H822 C816 0.930 . S
H823 C820 0.930 . S
C824 C826 1.348 . S
C824 C827 1.356 . S
C824 O854 1.325 . S
N825 C828 1.314 . S
N825 C829 1.279 . S
C826 C824 1.348 . S
C826 C828 1.353 . S
C826 H868 0.929 . S
C827 C824 1.356 . S
C827 C829 1.358 . S
C827 H869 0.930 . S
C828 N825 1.314 . S
C828 C826 1.353 . S
C828 H870 0.930 . S
C829 N825 1.279 . S
C829 C827 1.358 . S
C829 H871 0.930 . S
C830 C831 1.348 . S
C830 C832 1.356 . S
C830 O855 1.325 . S
C831 C830 1.348 . S
C831 C833 1.353 . S
C831 H872 0.929 . S
C832 C830 1.356 . S
C832 C834 1.358 . S
C832 H873 0.930 . S
C833 C831 1.353 . S
C833 N835 1.314 . S
C833 H874 0.930 . S
C834 C832 1.358 . S
C834 N835 1.279 . S
C834 H875 0.930 . S
N835 C833 1.314 . S
N835 C834 1.279 . S
C836 C838 1.353 . S
C836 N839 1.314 . S
C836 H842 0.930 . S
C837 N839 1.279 . S
C837 C840 1.358 . S
C837 H843 0.930 . S
C838 C836 1.353 . S
C838 C841 1.348 . S
C838 H876 0.929 . S
N839 Li794 1.990 . S
N839 C836 1.314 . S
N839 C837 1.279 . S
C840 C837 1.358 . S
C840 C841 1.356 . S
C840 H877 0.930 . S
C841 C838 1.348 . S
C841 C840 1.356 . S
H842 C836 0.930 . S
H843 C837 0.930 . S
C844 N845 1.314 . S
C844 C846 1.353 . S
C844 H850 0.930 . S
N845 Li795 1.990 . S
N845 C844 1.314 . S
N845 C848 1.279 . S
C846 C844 1.353 . S
C846 C849 1.348 . S
C846 H878 0.929 . S
C847 C848 1.358 . S
C847 C849 1.356 . S
C847 H879 0.930 . S
C848 N845 1.279 . S
C848 C847 1.358 . S
C848 H851 0.930 . S
C849 C846 1.348 . S
C849 C847 1.356 . S
H850 C844 0.930 . S
H851 C848 0.930 . S
O852 Li792 1.956 . S
O852 Li793 1.970 . S
O852 Li794 1.961 . S
O852 C796 1.325 . S
O853 Li792 1.970 . S
O853 Li793 1.956 . S
O853 Li795 1.961 . S
O853 C802 1.325 . S
O854 Li792 1.961 . S
O854 Li794 1.956 . S
O854 Li795 1.970 . S
O854 C824 1.325 . S
O855 Li793 1.961 . S
O855 Li794 1.970 . S
O855 Li795 1.956 . S
O855 C830 1.325 . S
H856 C798 0.929 . S
H857 C799 0.930 . S
H858 C800 0.930 . S
H859 C801 0.930 . S
H860 C803 0.930 . S
H861 C805 0.929 . S
H862 C806 0.930 . S
H863 C807 0.930 . S
H864 C810 0.930 . S
H865 C813 0.929 . S
H866 C818 0.929 . S
H867 C819 0.930 . S
H868 C826 0.929 . S
H869 C827 0.930 . S
H870 C828 0.930 . S
H871 C829 0.930 . S
H872 C831 0.929 . S
H873 C832 0.930 . S
H874 C833 0.930 . S
H875 C834 0.930 . S
H876 C838 0.929 . S
H877 C840 0.930 . S
H878 C846 0.929 . S
H879 C847 0.930 . S
Li880 N897 1.990 . S
Li880 O940 1.956 . S
Li880 O941 1.970 . S
Li880 O942 1.961 . S
Li881 N905 1.990 . S
Li881 O940 1.970 . S
Li881 O941 1.956 . S
Li881 O943 1.961 . S
Li882 N927 1.990 . S
Li882 O940 1.961 . S
Li882 O942 1.956 . S
Li882 O943 1.970 . S
Li883 N933 1.990 . S
Li883 O941 1.961 . S
Li883 O942 1.970 . S
Li883 O943 1.956 . S
C884 C886 1.348 . S
C884 C887 1.356 . S
C884 O940 1.325 . S
N885 C888 1.314 . S
N885 C889 1.279 . S
C886 C884 1.348 . S
C886 C888 1.353 . S
C886 H944 0.929 . S
C887 C884 1.356 . S
C887 C889 1.358 . S
C887 H945 0.930 . S
C888 N885 1.314 . S
C888 C886 1.353 . S
C888 H946 0.930 . S
C889 N885 1.279 . S
C889 C887 1.358 . S
C889 H947 0.930 . S
C890 C893 1.348 . S
C890 C894 1.356 . S
C890 O941 1.325 . S
C891 N892 1.279 . S
C891 C894 1.358 . S
C891 H948 0.930 . S
N892 C891 1.279 . S
N892 C895 1.314 . S
C893 C890 1.348 . S
C893 C895 1.353 . S
C893 H949 0.929 . S
C894 C890 1.356 . S
C894 C891 1.358 . S
C894 H950 0.930 . S
C895 N892 1.314 . S
C895 C893 1.353 . S
C895 H951 0.930 . S
C896 N897 1.314 . S
C896 C901 1.353 . S
C896 H902 0.930 . S
N897 Li880 1.990 . S
N897 C896 1.314 . S
N897 C899 1.279 . S
C898 C899 1.358 . S
C898 C900 1.356 . S
C898 H952 0.930 . S
C899 N897 1.279 . S
C899 C898 1.358 . S
C899 H903 0.930 . S
C900 C898 1.356 . S
C900 C901 1.348 . S
C901 C896 1.353 . S
C901 C900 1.348 . S
C901 H953 0.929 . S
H902 C896 0.930 . S
H903 C899 0.930 . S
C904 N905 1.314 . S
C904 C906 1.353 . S
C904 H910 0.930 . S
N905 Li881 1.990 . S
N905 C904 1.314 . S
N905 C908 1.279 . S
C906 C904 1.353 . S
C906 C909 1.348 . S
C906 H954 0.929 . S
C907 C908 1.358 . S
C907 C909 1.356 . S
C907 H955 0.930 . S
C908 N905 1.279 . S
C908 C907 1.358 . S
C908 H911 0.930 . S
C909 C906 1.348 . S
C909 C907 1.356 . S
H910 C904 0.930 . S
H911 C908 0.930 . S
C912 C914 1.348 . S
C912 C915 1.356 . S
C912 O942 1.325 . S
N913 C916 1.314 . S
N913 C917 1.279 . S
C914 C912 1.348 . S
C914 C916 1.353 . S
C914 H956 0.929 . S
C915 C912 1.356 . S
C915 C917 1.358 . S
C915 H957 0.930 . S
C916 N913 1.314 . S
C916 C914 1.353 . S
C916 H958 0.930 . S
C917 N913 1.279 . S
C917 C915 1.358 . S
C917 H959 0.930 . S
C918 C919 1.348 . S
C918 C920 1.356 . S
C918 O943 1.325 . S
C919 C918 1.348 . S
C919 C921 1.353 . S
C919 H960 0.929 . S
C920 C918 1.356 . S
C920 C922 1.358 . S
C920 H961 0.930 . S
C921 C919 1.353 . S
C921 N923 1.314 . S
C921 H962 0.930 . S
C922 C920 1.358 . S
C922 N923 1.279 . S
C922 H963 0.930 . S
N923 C921 1.314 . S
N923 C922 1.279 . S
C924 C926 1.353 . S
C924 N927 1.314 . S
C924 H930 0.930 . S
C925 N927 1.279 . S
C925 C928 1.358 . S
C925 H931 0.930 . S
C926 C924 1.353 . S
C926 C929 1.348 . S
C926 H964 0.929 . S
N927 Li882 1.990 . S
N927 C924 1.314 . S
N927 C925 1.279 . S
C928 C925 1.358 . S
C928 C929 1.356 . S
C928 H965 0.930 . S
C929 C926 1.348 . S
C929 C928 1.356 . S
H930 C924 0.930 . S
H931 C925 0.930 . S
C932 N933 1.314 . S
C932 C934 1.353 . S
C932 H938 0.930 . S
N933 Li883 1.990 . S
N933 C932 1.314 . S
N933 C936 1.279 . S
C934 C932 1.353 . S
C934 C937 1.348 . S
C934 H966 0.929 . S
C935 C936 1.358 . S
C935 C937 1.356 . S
C935 H967 0.930 . S
C936 N933 1.279 . S
C936 C935 1.358 . S
C936 H939 0.930 . S
C937 C934 1.348 . S
C937 C935 1.356 . S
H938 C932 0.930 . S
H939 C936 0.930 . S
O940 Li880 1.956 . S
O940 Li881 1.970 . S
O940 Li882 1.961 . S
O940 C884 1.325 . S
O941 Li880 1.970 . S
O941 Li881 1.956 . S
O941 Li883 1.961 . S
O941 C890 1.325 . S
O942 Li880 1.961 . S
O942 Li882 1.956 . S
O942 Li883 1.970 . S
O942 C912 1.325 . S
O943 Li881 1.961 . S
O943 Li882 1.970 . S
O943 Li883 1.956 . S
O943 C918 1.325 . S
H944 C886 0.929 . S
H945 C887 0.930 . S
H946 C888 0.930 . S
H947 C889 0.930 . S
H948 C891 0.930 . S
H949 C893 0.929 . S
H950 C894 0.930 . S
H951 C895 0.930 . S
H952 C898 0.930 . S
H953 C901 0.929 . S
H954 C906 0.929 . S
H955 C907 0.930 . S
H956 C914 0.929 . S
H957 C915 0.930 . S
H958 C916 0.930 . S
H959 C917 0.930 . S
H960 C919 0.929 . S
H961 C920 0.930 . S
H962 C921 0.930 . S
H963 C922 0.930 . S
H964 C926 0.929 . S
H965 C928 0.930 . S
H966 C934 0.929 . S
H967 C935 0.930 . S
Li968 N985 1.990 . S
Li968 O1028 1.956 . S
Li968 O1029 1.970 . S
Li968 O1030 1.961 . S
Li969 N993 1.990 . S
Li969 O1028 1.970 . S
Li969 O1029 1.956 . S
Li969 O1031 1.961 . S
Li970 N1015 1.990 . S
Li970 O1028 1.961 . S
Li970 O1030 1.956 . S
Li970 O1031 1.970 . S
Li971 N1021 1.990 . S
Li971 O1029 1.961 . S
Li971 O1030 1.970 . S
Li971 O1031 1.956 . S
C972 C974 1.348 . S
C972 C975 1.356 . S
C972 O1028 1.325 . S
N973 C976 1.314 . S
N973 C977 1.279 . S
C974 C972 1.348 . S
C974 C976 1.353 . S
C974 H1032 0.929 . S
C975 C972 1.356 . S
C975 C977 1.358 . S
C975 H1033 0.930 . S
C976 N973 1.314 . S
C976 C974 1.353 . S
C976 H1034 0.930 . S
C977 N973 1.279 . S
C977 C975 1.358 . S
C977 H1035 0.930 . S
C978 C981 1.348 . S
C978 C982 1.356 . S
C978 O1029 1.325 . S
C979 N980 1.279 . S
C979 C982 1.358 . S
C979 H1036 0.930 . S
N980 C979 1.279 . S
N980 C983 1.314 . S
C981 C978 1.348 . S
C981 C983 1.353 . S
C981 H1037 0.929 . S
C982 C978 1.356 . S
C982 C979 1.358 . S
C982 H1038 0.930 . S
C983 N980 1.314 . S
C983 C981 1.353 . S
C983 H1039 0.930 . S
C984 N985 1.314 . S
C984 C989 1.353 . S
C984 H990 0.930 . S
N985 Li968 1.990 . S
N985 C984 1.314 . S
N985 C987 1.279 . S
C986 C987 1.358 . S
C986 C988 1.356 . S
C986 H1040 0.930 . S
C987 N985 1.279 . S
C987 C986 1.358 . S
C987 H991 0.930 . S
C988 C986 1.356 . S
C988 C989 1.348 . S
C989 C984 1.353 . S
C989 C988 1.348 . S
C989 H1041 0.929 . S
H990 C984 0.930 . S
H991 C987 0.930 . S
C992 N993 1.314 . S
C992 C994 1.353 . S
C992 H998 0.930 . S
N993 Li969 1.990 . S
N993 C992 1.314 . S
N993 C996 1.279 . S
C994 C992 1.353 . S
C994 C997 1.348 . S
C994 H1042 0.929 . S
C995 C996 1.358 . S
C995 C997 1.356 . S
C995 H1043 0.930 . S
C996 N993 1.279 . S
C996 C995 1.358 . S
C996 H999 0.930 . S
C997 C994 1.348 . S
C997 C995 1.356 . S
H998 C992 0.930 . S
H999 C996 0.930 . S
C1000 C1002 1.348 . S
C1000 C1003 1.356 . S
C1000 O1030 1.325 . S
N1001 C1004 1.314 . S
N1001 C1005 1.279 . S
C1002 C1000 1.348 . S
C1002 C1004 1.353 . S
C1002 H1044 0.929 . S
C1003 C1000 1.356 . S
C1003 C1005 1.358 . S
C1003 H1045 0.930 . S
C1004 N1001 1.314 . S
C1004 C1002 1.353 . S
C1004 H1046 0.930 . S
C1005 N1001 1.279 . S
C1005 C1003 1.358 . S
C1005 H1047 0.930 . S
C1006 C1007 1.348 . S
C1006 C1008 1.356 . S
C1006 O1031 1.325 . S
C1007 C1006 1.348 . S
C1007 C1009 1.353 . S
C1007 H1048 0.929 . S
C1008 C1006 1.356 . S
C1008 C1010 1.358 . S
C1008 H1049 0.930 . S
C1009 C1007 1.353 . S
C1009 N1011 1.314 . S
C1009 H1050 0.930 . S
C1010 C1008 1.358 . S
C1010 N1011 1.279 . S
C1010 H1051 0.930 . S
N1011 C1009 1.314 . S
N1011 C1010 1.279 . S
C1012 C1014 1.353 . S
C1012 N1015 1.314 . S
C1012 H1018 0.930 . S
C1013 N1015 1.279 . S
C1013 C1016 1.358 . S
C1013 H1019 0.930 . S
C1014 C1012 1.353 . S
C1014 C1017 1.348 . S
C1014 H1052 0.929 . S
N1015 Li970 1.990 . S
N1015 C1012 1.314 . S
N1015 C1013 1.279 . S
C1016 C1013 1.358 . S
C1016 C1017 1.356 . S
C1016 H1053 0.930 . S
C1017 C1014 1.348 . S
C1017 C1016 1.356 . S
H1018 C1012 0.930 . S
H1019 C1013 0.930 . S
C1020 N1021 1.314 . S
C1020 C1022 1.353 . S
C1020 H1026 0.930 . S
N1021 Li971 1.990 . S
N1021 C1020 1.314 . S
N1021 C1024 1.279 . S
C1022 C1020 1.353 . S
C1022 C1025 1.348 . S
C1022 H1054 0.929 . S
C1023 C1024 1.358 . S
C1023 C1025 1.356 . S
C1023 H1055 0.930 . S
C1024 N1021 1.279 . S
C1024 C1023 1.358 . S
C1024 H1027 0.930 . S
C1025 C1022 1.348 . S
C1025 C1023 1.356 . S
H1026 C1020 0.930 . S
H1027 C1024 0.930 . S
O1028 Li968 1.956 . S
O1028 Li969 1.970 . S
O1028 Li970 1.961 . S
O1028 C972 1.325 . S
O1029 Li968 1.970 . S
O1029 Li969 1.956 . S
O1029 Li971 1.961 . S
O1029 C978 1.325 . S
O1030 Li968 1.961 . S
O1030 Li970 1.956 . S
O1030 Li971 1.970 . S
O1030 C1000 1.325 . S
O1031 Li969 1.961 . S
O1031 Li970 1.970 . S
O1031 Li971 1.956 . S
O1031 C1006 1.325 . S
H1032 C974 0.929 . S
H1033 C975 0.930 . S
H1034 C976 0.930 . S
H1035 C977 0.930 . S
H1036 C979 0.930 . S
H1037 C981 0.929 . S
H1038 C982 0.930 . S
H1039 C983 0.930 . S
H1040 C986 0.930 . S
H1041 C989 0.929 . S
H1042 C994 0.929 . S
H1043 C995 0.930 . S
H1044 C1002 0.929 . S
H1045 C1003 0.930 . S
H1046 C1004 0.930 . S
H1047 C1005 0.930 . S
H1048 C1007 0.929 . S
H1049 C1008 0.930 . S
H1050 C1009 0.930 . S
H1051 C1010 0.930 . S
H1052 C1014 0.929 . S
H1053 C1016 0.930 . S
H1054 C1022 0.929 . S
H1055 C1023 0.930 . S
Li1056 N1073 1.990 . S
Li1056 O1116 1.956 . S
Li1056 O1117 1.970 . S
Li1056 O1118 1.961 . S
Li1057 N1081 1.990 . S
Li1057 O1116 1.970 . S
Li1057 O1117 1.956 . S
Li1057 O1119 1.961 . S
Li1058 N1103 1.990 . S
Li1058 O1116 1.961 . S
Li1058 O1118 1.956 . S
Li1058 O1119 1.970 . S
Li1059 N1109 1.990 . S
Li1059 O1117 1.961 . S
Li1059 O1118 1.970 . S
Li1059 O1119 1.956 . S
C1060 C1062 1.348 . S
C1060 C1063 1.356 . S
C1060 O1116 1.325 . S
N1061 C1064 1.314 . S
N1061 C1065 1.279 . S
C1062 C1060 1.348 . S
C1062 C1064 1.353 . S
C1062 H1120 0.929 . S
C1063 C1060 1.356 . S
C1063 C1065 1.358 . S
C1063 H1121 0.930 . S
C1064 N1061 1.314 . S
C1064 C1062 1.353 . S
C1064 H1122 0.930 . S
C1065 N1061 1.279 . S
C1065 C1063 1.358 . S
C1065 H1123 0.930 . S
C1066 C1069 1.348 . S
C1066 C1070 1.356 . S
C1066 O1117 1.325 . S
C1067 N1068 1.279 . S
C1067 C1070 1.358 . S
C1067 H1124 0.930 . S
N1068 C1067 1.279 . S
N1068 C1071 1.314 . S
C1069 C1066 1.348 . S
C1069 C1071 1.353 . S
C1069 H1125 0.929 . S
C1070 C1066 1.356 . S
C1070 C1067 1.358 . S
C1070 H1126 0.930 . S
C1071 N1068 1.314 . S
C1071 C1069 1.353 . S
C1071 H1127 0.930 . S
C1072 N1073 1.314 . S
C1072 C1077 1.353 . S
C1072 H1078 0.930 . S
N1073 Li1056 1.990 . S
N1073 C1072 1.314 . S
N1073 C1075 1.279 . S
C1074 C1075 1.358 . S
C1074 C1076 1.356 . S
C1074 H1128 0.930 . S
C1075 N1073 1.279 . S
C1075 C1074 1.358 . S
C1075 H1079 0.930 . S
C1076 C1074 1.356 . S
C1076 C1077 1.348 . S
C1077 C1072 1.353 . S
C1077 C1076 1.348 . S
C1077 H1129 0.929 . S
H1078 C1072 0.930 . S
H1079 C1075 0.930 . S
C1080 N1081 1.314 . S
C1080 C1082 1.353 . S
C1080 H1086 0.930 . S
N1081 Li1057 1.990 . S
N1081 C1080 1.314 . S
N1081 C1084 1.279 . S
C1082 C1080 1.353 . S
C1082 C1085 1.348 . S
C1082 H1130 0.929 . S
C1083 C1084 1.358 . S
C1083 C1085 1.356 . S
C1083 H1131 0.930 . S
C1084 N1081 1.279 . S
C1084 C1083 1.358 . S
C1084 H1087 0.930 . S
C1085 C1082 1.348 . S
C1085 C1083 1.356 . S
H1086 C1080 0.930 . S
H1087 C1084 0.930 . S
C1088 C1090 1.348 . S
C1088 C1091 1.356 . S
C1088 O1118 1.325 . S
N1089 C1092 1.314 . S
N1089 C1093 1.279 . S
C1090 C1088 1.348 . S
C1090 C1092 1.353 . S
C1090 H1132 0.929 . S
C1091 C1088 1.356 . S
C1091 C1093 1.358 . S
C1091 H1133 0.930 . S
C1092 N1089 1.314 . S
C1092 C1090 1.353 . S
C1092 H1134 0.930 . S
C1093 N1089 1.279 . S
C1093 C1091 1.358 . S
C1093 H1135 0.930 . S
C1094 C1095 1.348 . S
C1094 C1096 1.356 . S
C1094 O1119 1.325 . S
C1095 C1094 1.348 . S
C1095 C1097 1.353 . S
C1095 H1136 0.929 . S
C1096 C1094 1.356 . S
C1096 C1098 1.358 . S
C1096 H1137 0.930 . S
C1097 C1095 1.353 . S
C1097 N1099 1.314 . S
C1097 H1138 0.930 . S
C1098 C1096 1.358 . S
C1098 N1099 1.279 . S
C1098 H1139 0.930 . S
N1099 C1097 1.314 . S
N1099 C1098 1.279 . S
C1100 C1102 1.353 . S
C1100 N1103 1.314 . S
C1100 H1106 0.930 . S
C1101 N1103 1.279 . S
C1101 C1104 1.358 . S
C1101 H1107 0.930 . S
C1102 C1100 1.353 . S
C1102 C1105 1.348 . S
C1102 H1140 0.929 . S
N1103 Li1058 1.990 . S
N1103 C1100 1.314 . S
N1103 C1101 1.279 . S
C1104 C1101 1.358 . S
C1104 C1105 1.356 . S
C1104 H1141 0.930 . S
C1105 C1102 1.348 . S
C1105 C1104 1.356 . S
H1106 C1100 0.930 . S
H1107 C1101 0.930 . S
C1108 N1109 1.314 . S
C1108 C1110 1.353 . S
C1108 H1114 0.930 . S
N1109 Li1059 1.990 . S
N1109 C1108 1.314 . S
N1109 C1112 1.279 . S
C1110 C1108 1.353 . S
C1110 C1113 1.348 . S
C1110 H1142 0.929 . S
C1111 C1112 1.358 . S
C1111 C1113 1.356 . S
C1111 H1143 0.930 . S
C1112 N1109 1.279 . S
C1112 C1111 1.358 . S
C1112 H1115 0.930 . S
C1113 C1110 1.348 . S
C1113 C1111 1.356 . S
H1114 C1108 0.930 . S
H1115 C1112 0.930 . S
O1116 Li1056 1.956 . S
O1116 Li1057 1.970 . S
O1116 Li1058 1.961 . S
O1116 C1060 1.325 . S
O1117 Li1056 1.970 . S
O1117 Li1057 1.956 . S
O1117 Li1059 1.961 . S
O1117 C1066 1.325 . S
O1118 Li1056 1.961 . S
O1118 Li1058 1.956 . S
O1118 Li1059 1.970 . S
O1118 C1088 1.325 . S
O1119 Li1057 1.961 . S
O1119 Li1058 1.970 . S
O1119 Li1059 1.956 . S
O1119 C1094 1.325 . S
H1120 C1062 0.929 . S
H1121 C1063 0.930 . S
H1122 C1064 0.930 . S
H1123 C1065 0.930 . S
H1124 C1067 0.930 . S
H1125 C1069 0.929 . S
H1126 C1070 0.930 . S
H1127 C1071 0.930 . S
H1128 C1074 0.930 . S
H1129 C1077 0.929 . S
H1130 C1082 0.929 . S
H1131 C1083 0.930 . S
H1132 C1090 0.929 . S
H1133 C1091 0.930 . S
H1134 C1092 0.930 . S
H1135 C1093 0.930 . S
H1136 C1095 0.929 . S
H1137 C1096 0.930 . S
H1138 C1097 0.930 . S
H1139 C1098 0.930 . S
H1140 C1102 0.929 . S
H1141 C1104 0.930 . S
H1142 C1110 0.929 . S
H1143 C1111 0.930 . S
Li1144 N1161 1.990 . S
Li1144 O1204 1.956 . S
Li1144 O1205 1.970 . S
Li1144 O1206 1.961 . S
Li1145 N1169 1.990 . S
Li1145 O1204 1.970 . S
Li1145 O1205 1.956 . S
Li1145 O1207 1.961 . S
Li1146 N1191 1.990 . S
Li1146 O1204 1.961 . S
Li1146 O1206 1.956 . S
Li1146 O1207 1.970 . S
Li1147 N1197 1.990 . S
Li1147 O1205 1.961 . S
Li1147 O1206 1.970 . S
Li1147 O1207 1.956 . S
C1148 C1150 1.348 . S
C1148 C1151 1.356 . S
C1148 O1204 1.325 . S
N1149 C1152 1.314 . S
N1149 C1153 1.279 . S
C1150 C1148 1.348 . S
C1150 C1152 1.353 . S
C1150 H1208 0.929 . S
C1151 C1148 1.356 . S
C1151 C1153 1.358 . S
C1151 H1209 0.930 . S
C1152 N1149 1.314 . S
C1152 C1150 1.353 . S
C1152 H1210 0.930 . S
C1153 N1149 1.279 . S
C1153 C1151 1.358 . S
C1153 H1211 0.930 . S
C1154 C1157 1.348 . S
C1154 C1158 1.356 . S
C1154 O1205 1.325 . S
C1155 N1156 1.279 . S
C1155 C1158 1.358 . S
C1155 H1212 0.930 . S
N1156 C1155 1.279 . S
N1156 C1159 1.314 . S
C1157 C1154 1.348 . S
C1157 C1159 1.353 . S
C1157 H1213 0.929 . S
C1158 C1154 1.356 . S
C1158 C1155 1.358 . S
C1158 H1214 0.930 . S
C1159 N1156 1.314 . S
C1159 C1157 1.353 . S
C1159 H1215 0.930 . S
C1160 N1161 1.314 . S
C1160 C1165 1.353 . S
C1160 H1166 0.930 . S
N1161 Li1144 1.990 . S
N1161 C1160 1.314 . S
N1161 C1163 1.279 . S
C1162 C1163 1.358 . S
C1162 C1164 1.356 . S
C1162 H1216 0.930 . S
C1163 N1161 1.279 . S
C1163 C1162 1.358 . S
C1163 H1167 0.930 . S
C1164 C1162 1.356 . S
C1164 C1165 1.348 . S
C1165 C1160 1.353 . S
C1165 C1164 1.348 . S
C1165 H1217 0.929 . S
H1166 C1160 0.930 . S
H1167 C1163 0.930 . S
C1168 N1169 1.314 . S
C1168 C1170 1.353 . S
C1168 H1174 0.930 . S
N1169 Li1145 1.990 . S
N1169 C1168 1.314 . S
N1169 C1172 1.279 . S
C1170 C1168 1.353 . S
C1170 C1173 1.348 . S
C1170 H1218 0.929 . S
C1171 C1172 1.358 . S
C1171 C1173 1.356 . S
C1171 H1219 0.930 . S
C1172 N1169 1.279 . S
C1172 C1171 1.358 . S
C1172 H1175 0.930 . S
C1173 C1170 1.348 . S
C1173 C1171 1.356 . S
H1174 C1168 0.930 . S
H1175 C1172 0.930 . S
C1176 C1178 1.348 . S
C1176 C1179 1.356 . S
C1176 O1206 1.325 . S
N1177 C1180 1.314 . S
N1177 C1181 1.279 . S
C1178 C1176 1.348 . S
C1178 C1180 1.353 . S
C1178 H1220 0.929 . S
C1179 C1176 1.356 . S
C1179 C1181 1.358 . S
C1179 H1221 0.930 . S
C1180 N1177 1.314 . S
C1180 C1178 1.353 . S
C1180 H1222 0.930 . S
C1181 N1177 1.279 . S
C1181 C1179 1.358 . S
C1181 H1223 0.930 . S
C1182 C1183 1.348 . S
C1182 C1184 1.356 . S
C1182 O1207 1.325 . S
C1183 C1182 1.348 . S
C1183 C1185 1.353 . S
C1183 H1224 0.929 . S
C1184 C1182 1.356 . S
C1184 C1186 1.358 . S
C1184 H1225 0.930 . S
C1185 C1183 1.353 . S
C1185 N1187 1.314 . S
C1185 H1226 0.930 . S
C1186 C1184 1.358 . S
C1186 N1187 1.279 . S
C1186 H1227 0.930 . S
N1187 C1185 1.314 . S
N1187 C1186 1.279 . S
C1188 C1190 1.353 . S
C1188 N1191 1.314 . S
C1188 H1194 0.930 . S
C1189 N1191 1.279 . S
C1189 C1192 1.358 . S
C1189 H1195 0.930 . S
C1190 C1188 1.353 . S
C1190 C1193 1.348 . S
C1190 H1228 0.929 . S
N1191 Li1146 1.990 . S
N1191 C1188 1.314 . S
N1191 C1189 1.279 . S
C1192 C1189 1.358 . S
C1192 C1193 1.356 . S
C1192 H1229 0.930 . S
C1193 C1190 1.348 . S
C1193 C1192 1.356 . S
H1194 C1188 0.930 . S
H1195 C1189 0.930 . S
C1196 N1197 1.314 . S
C1196 C1198 1.353 . S
C1196 H1202 0.930 . S
N1197 Li1147 1.990 . S
N1197 C1196 1.314 . S
N1197 C1200 1.279 . S
C1198 C1196 1.353 . S
C1198 C1201 1.348 . S
C1198 H1230 0.929 . S
C1199 C1200 1.358 . S
C1199 C1201 1.356 . S
C1199 H1231 0.930 . S
C1200 N1197 1.279 . S
C1200 C1199 1.358 . S
C1200 H1203 0.930 . S
C1201 C1198 1.348 . S
C1201 C1199 1.356 . S
H1202 C1196 0.930 . S
H1203 C1200 0.930 . S
O1204 Li1144 1.956 . S
O1204 Li1145 1.970 . S
O1204 Li1146 1.961 . S
O1204 C1148 1.325 . S
O1205 Li1144 1.970 . S
O1205 Li1145 1.956 . S
O1205 Li1147 1.961 . S
O1205 C1154 1.325 . S
O1206 Li1144 1.961 . S
O1206 Li1146 1.956 . S
O1206 Li1147 1.970 . S
O1206 C1176 1.325 . S
O1207 Li1145 1.961 . S
O1207 Li1146 1.970 . S
O1207 Li1147 1.956 . S
O1207 C1182 1.325 . S
H1208 C1150 0.929 . S
H1209 C1151 0.930 . S
H1210 C1152 0.930 . S
H1211 C1153 0.930 . S
H1212 C1155 0.930 . S
H1213 C1157 0.929 . S
H1214 C1158 0.930 . S
H1215 C1159 0.930 . S
H1216 C1162 0.930 . S
H1217 C1165 0.929 . S
H1218 C1170 0.929 . S
H1219 C1171 0.930 . S
H1220 C1178 0.929 . S
H1221 C1179 0.930 . S
H1222 C1180 0.930 . S
H1223 C1181 0.930 . S
H1224 C1183 0.929 . S
H1225 C1184 0.930 . S
H1226 C1185 0.930 . S
H1227 C1186 0.930 . S
H1228 C1190 0.929 . S
H1229 C1192 0.930 . S
H1230 C1198 0.929 . S
H1231 C1199 0.930 . S
Li1232 N1249 1.990 . S
Li1232 O1292 1.956 . S
Li1232 O1293 1.970 . S
Li1232 O1294 1.961 . S
Li1233 N1257 1.990 . S
Li1233 O1292 1.970 . S
Li1233 O1293 1.956 . S
Li1233 O1295 1.961 . S
Li1234 N1279 1.990 . S
Li1234 O1292 1.961 . S
Li1234 O1294 1.956 . S
Li1234 O1295 1.970 . S
Li1235 N1285 1.990 . S
Li1235 O1293 1.961 . S
Li1235 O1294 1.970 . S
Li1235 O1295 1.956 . S
C1236 C1238 1.348 . S
C1236 C1239 1.356 . S
C1236 O1292 1.325 . S
N1237 C1240 1.314 . S
N1237 C1241 1.279 . S
C1238 C1236 1.348 . S
C1238 C1240 1.353 . S
C1238 H1296 0.929 . S
C1239 C1236 1.356 . S
C1239 C1241 1.358 . S
C1239 H1297 0.930 . S
C1240 N1237 1.314 . S
C1240 C1238 1.353 . S
C1240 H1298 0.930 . S
C1241 N1237 1.279 . S
C1241 C1239 1.358 . S
C1241 H1299 0.930 . S
C1242 C1245 1.348 . S
C1242 C1246 1.356 . S
C1242 O1293 1.325 . S
C1243 N1244 1.279 . S
C1243 C1246 1.358 . S
C1243 H1300 0.930 . S
N1244 C1243 1.279 . S
N1244 C1247 1.314 . S
C1245 C1242 1.348 . S
C1245 C1247 1.353 . S
C1245 H1301 0.929 . S
C1246 C1242 1.356 . S
C1246 C1243 1.358 . S
C1246 H1302 0.930 . S
C1247 N1244 1.314 . S
C1247 C1245 1.353 . S
C1247 H1303 0.930 . S
C1248 N1249 1.314 . S
C1248 C1253 1.353 . S
C1248 H1254 0.930 . S
N1249 Li1232 1.990 . S
N1249 C1248 1.314 . S
N1249 C1251 1.279 . S
C1250 C1251 1.358 . S
C1250 C1252 1.356 . S
C1250 H1304 0.930 . S
C1251 N1249 1.279 . S
C1251 C1250 1.358 . S
C1251 H1255 0.930 . S
C1252 C1250 1.356 . S
C1252 C1253 1.348 . S
C1253 C1248 1.353 . S
C1253 C1252 1.348 . S
C1253 H1305 0.929 . S
H1254 C1248 0.930 . S
H1255 C1251 0.930 . S
C1256 N1257 1.314 . S
C1256 C1258 1.353 . S
C1256 H1262 0.930 . S
N1257 Li1233 1.990 . S
N1257 C1256 1.314 . S
N1257 C1260 1.279 . S
C1258 C1256 1.353 . S
C1258 C1261 1.348 . S
C1258 H1306 0.929 . S
C1259 C1260 1.358 . S
C1259 C1261 1.356 . S
C1259 H1307 0.930 . S
C1260 N1257 1.279 . S
C1260 C1259 1.358 . S
C1260 H1263 0.930 . S
C1261 C1258 1.348 . S
C1261 C1259 1.356 . S
H1262 C1256 0.930 . S
H1263 C1260 0.930 . S
C1264 C1266 1.348 . S
C1264 C1267 1.356 . S
C1264 O1294 1.325 . S
N1265 C1268 1.314 . S
N1265 C1269 1.279 . S
C1266 C1264 1.348 . S
C1266 C1268 1.353 . S
C1266 H1308 0.929 . S
C1267 C1264 1.356 . S
C1267 C1269 1.358 . S
C1267 H1309 0.930 . S
C1268 N1265 1.314 . S
C1268 C1266 1.353 . S
C1268 H1310 0.930 . S
C1269 N1265 1.279 . S
C1269 C1267 1.358 . S
C1269 H1311 0.930 . S
C1270 C1271 1.348 . S
C1270 C1272 1.356 . S
C1270 O1295 1.325 . S
C1271 C1270 1.348 . S
C1271 C1273 1.353 . S
C1271 H1312 0.929 . S
C1272 C1270 1.356 . S
C1272 C1274 1.358 . S
C1272 H1313 0.930 . S
C1273 C1271 1.353 . S
C1273 N1275 1.314 . S
C1273 H1314 0.930 . S
C1274 C1272 1.358 . S
C1274 N1275 1.279 . S
C1274 H1315 0.930 . S
N1275 C1273 1.314 . S
N1275 C1274 1.279 . S
C1276 C1278 1.353 . S
C1276 N1279 1.314 . S
C1276 H1282 0.930 . S
C1277 N1279 1.279 . S
C1277 C1280 1.358 . S
C1277 H1283 0.930 . S
C1278 C1276 1.353 . S
C1278 C1281 1.348 . S
C1278 H1316 0.929 . S
N1279 Li1234 1.990 . S
N1279 C1276 1.314 . S
N1279 C1277 1.279 . S
C1280 C1277 1.358 . S
C1280 C1281 1.356 . S
C1280 H1317 0.930 . S
C1281 C1278 1.348 . S
C1281 C1280 1.356 . S
H1282 C1276 0.930 . S
H1283 C1277 0.930 . S
C1284 N1285 1.314 . S
C1284 C1286 1.353 . S
C1284 H1290 0.930 . S
N1285 Li1235 1.990 . S
N1285 C1284 1.314 . S
N1285 C1288 1.279 . S
C1286 C1284 1.353 . S
C1286 C1289 1.348 . S
C1286 H1318 0.929 . S
C1287 C1288 1.358 . S
C1287 C1289 1.356 . S
C1287 H1319 0.930 . S
C1288 N1285 1.279 . S
C1288 C1287 1.358 . S
C1288 H1291 0.930 . S
C1289 C1286 1.348 . S
C1289 C1287 1.356 . S
H1290 C1284 0.930 . S
H1291 C1288 0.930 . S
O1292 Li1232 1.956 . S
O1292 Li1233 1.970 . S
O1292 Li1234 1.961 . S
O1292 C1236 1.325 . S
O1293 Li1232 1.970 . S
O1293 Li1233 1.956 . S
O1293 Li1235 1.961 . S
O1293 C1242 1.325 . S
O1294 Li1232 1.961 . S
O1294 Li1234 1.956 . S
O1294 Li1235 1.970 . S
O1294 C1264 1.325 . S
O1295 Li1233 1.961 . S
O1295 Li1234 1.970 . S
O1295 Li1235 1.956 . S
O1295 C1270 1.325 . S
H1296 C1238 0.929 . S
H1297 C1239 0.930 . S
H1298 C1240 0.930 . S
H1299 C1241 0.930 . S
H1300 C1243 0.930 . S
H1301 C1245 0.929 . S
H1302 C1246 0.930 . S
H1303 C1247 0.930 . S
H1304 C1250 0.930 . S
H1305 C1253 0.929 . S
H1306 C1258 0.929 . S
H1307 C1259 0.930 . S
H1308 C1266 0.929 . S
H1309 C1267 0.930 . S
H1310 C1268 0.930 . S
H1311 C1269 0.930 . S
H1312 C1271 0.929 . S
H1313 C1272 0.930 . S
H1314 C1273 0.930 . S
H1315 C1274 0.930 . S
H1316 C1278 0.929 . S
H1317 C1280 0.930 . S
H1318 C1286 0.929 . S
H1319 C1287 0.930 . S
Li1320 N1337 1.990 . S
Li1320 O1380 1.956 . S
Li1320 O1381 1.970 . S
Li1320 O1382 1.961 . S
Li1321 N1345 1.990 . S
Li1321 O1380 1.970 . S
Li1321 O1381 1.956 . S
Li1321 O1383 1.961 . S
Li1322 N1367 1.990 . S
Li1322 O1380 1.961 . S
Li1322 O1382 1.956 . S
Li1322 O1383 1.970 . S
Li1323 N1373 1.990 . S
Li1323 O1381 1.961 . S
Li1323 O1382 1.970 . S
Li1323 O1383 1.956 . S
C1324 C1326 1.348 . S
C1324 C1327 1.356 . S
C1324 O1380 1.325 . S
N1325 C1328 1.314 . S
N1325 C1329 1.279 . S
C1326 C1324 1.348 . S
C1326 C1328 1.353 . S
C1326 H1384 0.929 . S
C1327 C1324 1.356 . S
C1327 C1329 1.358 . S
C1327 H1385 0.930 . S
C1328 N1325 1.314 . S
C1328 C1326 1.353 . S
C1328 H1386 0.930 . S
C1329 N1325 1.279 . S
C1329 C1327 1.358 . S
C1329 H1387 0.930 . S
C1330 C1333 1.348 . S
C1330 C1334 1.356 . S
C1330 O1381 1.325 . S
C1331 N1332 1.279 . S
C1331 C1334 1.358 . S
C1331 H1388 0.930 . S
N1332 C1331 1.279 . S
N1332 C1335 1.314 . S
C1333 C1330 1.348 . S
C1333 C1335 1.353 . S
C1333 H1389 0.929 . S
C1334 C1330 1.356 . S
C1334 C1331 1.358 . S
C1334 H1390 0.930 . S
C1335 N1332 1.314 . S
C1335 C1333 1.353 . S
C1335 H1391 0.930 . S
C1336 N1337 1.314 . S
C1336 C1341 1.353 . S
C1336 H1342 0.930 . S
N1337 Li1320 1.990 . S
N1337 C1336 1.314 . S
N1337 C1339 1.279 . S
C1338 C1339 1.358 . S
C1338 C1340 1.356 . S
C1338 H1392 0.930 . S
C1339 N1337 1.279 . S
C1339 C1338 1.358 . S
C1339 H1343 0.930 . S
C1340 C1338 1.356 . S
C1340 C1341 1.348 . S
C1341 C1336 1.353 . S
C1341 C1340 1.348 . S
C1341 H1393 0.929 . S
H1342 C1336 0.930 . S
H1343 C1339 0.930 . S
C1344 N1345 1.314 . S
C1344 C1346 1.353 . S
C1344 H1350 0.930 . S
N1345 Li1321 1.990 . S
N1345 C1344 1.314 . S
N1345 C1348 1.279 . S
C1346 C1344 1.353 . S
C1346 C1349 1.348 . S
C1346 H1394 0.929 . S
C1347 C1348 1.358 . S
C1347 C1349 1.356 . S
C1347 H1395 0.930 . S
C1348 N1345 1.279 . S
C1348 C1347 1.358 . S
C1348 H1351 0.930 . S
C1349 C1346 1.348 . S
C1349 C1347 1.356 . S
H1350 C1344 0.930 . S
H1351 C1348 0.930 . S
C1352 C1354 1.348 . S
C1352 C1355 1.356 . S
C1352 O1382 1.325 . S
N1353 C1356 1.314 . S
N1353 C1357 1.279 . S
C1354 C1352 1.348 . S
C1354 C1356 1.353 . S
C1354 H1396 0.929 . S
C1355 C1352 1.356 . S
C1355 C1357 1.358 . S
C1355 H1397 0.930 . S
C1356 N1353 1.314 . S
C1356 C1354 1.353 . S
C1356 H1398 0.930 . S
C1357 N1353 1.279 . S
C1357 C1355 1.358 . S
C1357 H1399 0.930 . S
C1358 C1359 1.348 . S
C1358 C1360 1.356 . S
C1358 O1383 1.325 . S
C1359 C1358 1.348 . S
C1359 C1361 1.353 . S
C1359 H1400 0.929 . S
C1360 C1358 1.356 . S
C1360 C1362 1.358 . S
C1360 H1401 0.930 . S
C1361 C1359 1.353 . S
C1361 N1363 1.314 . S
C1361 H1402 0.930 . S
C1362 C1360 1.358 . S
C1362 N1363 1.279 . S
C1362 H1403 0.930 . S
N1363 C1361 1.314 . S
N1363 C1362 1.279 . S
C1364 C1366 1.353 . S
C1364 N1367 1.314 . S
C1364 H1370 0.930 . S
C1365 N1367 1.279 . S
C1365 C1368 1.358 . S
C1365 H1371 0.930 . S
C1366 C1364 1.353 . S
C1366 C1369 1.348 . S
C1366 H1404 0.929 . S
N1367 Li1322 1.990 . S
N1367 C1364 1.314 . S
N1367 C1365 1.279 . S
C1368 C1365 1.358 . S
C1368 C1369 1.356 . S
C1368 H1405 0.930 . S
C1369 C1366 1.348 . S
C1369 C1368 1.356 . S
H1370 C1364 0.930 . S
H1371 C1365 0.930 . S
C1372 N1373 1.314 . S
C1372 C1374 1.353 . S
C1372 H1378 0.930 . S
N1373 Li1323 1.990 . S
N1373 C1372 1.314 . S
N1373 C1376 1.279 . S
C1374 C1372 1.353 . S
C1374 C1377 1.348 . S
C1374 H1406 0.929 . S
C1375 C1376 1.358 . S
C1375 C1377 1.356 . S
C1375 H1407 0.930 . S
C1376 N1373 1.279 . S
C1376 C1375 1.358 . S
C1376 H1379 0.930 . S
C1377 C1374 1.348 . S
C1377 C1375 1.356 . S
H1378 C1372 0.930 . S
H1379 C1376 0.930 . S
O1380 Li1320 1.956 . S
O1380 Li1321 1.970 . S
O1380 Li1322 1.961 . S
O1380 C1324 1.325 . S
O1381 Li1320 1.970 . S
O1381 Li1321 1.956 . S
O1381 Li1323 1.961 . S
O1381 C1330 1.325 . S
O1382 Li1320 1.961 . S
O1382 Li1322 1.956 . S
O1382 Li1323 1.970 . S
O1382 C1352 1.325 . S
O1383 Li1321 1.961 . S
O1383 Li1322 1.970 . S
O1383 Li1323 1.956 . S
O1383 C1358 1.325 . S
H1384 C1326 0.929 . S
H1385 C1327 0.930 . S
H1386 C1328 0.930 . S
H1387 C1329 0.930 . S
H1388 C1331 0.930 . S
H1389 C1333 0.929 . S
H1390 C1334 0.930 . S
H1391 C1335 0.930 . S
H1392 C1338 0.930 . S
H1393 C1341 0.929 . S
H1394 C1346 0.929 . S
H1395 C1347 0.930 . S
H1396 C1354 0.929 . S
H1397 C1355 0.930 . S
H1398 C1356 0.930 . S
H1399 C1357 0.930 . S
H1400 C1359 0.929 . S
H1401 C1360 0.930 . S
H1402 C1361 0.930 . S
H1403 C1362 0.930 . S
H1404 C1366 0.929 . S
H1405 C1368 0.930 . S
H1406 C1374 0.929 . S
H1407 C1375 0.930 . S
C1408 C1409 1.369 . S
C1408 C1410 1.419 . S
C1408 H1412 0.930 . S
C1409 C1408 1.369 . S
C1409 C1418 1.429 . S
C1410 C1408 1.419 . S
C1410 C1411 1.363 . S
C1410 H1413 0.929 . S
C1411 C1410 1.363 . S
C1411 C1417 1.428 . S
H1412 C1408 0.930 . S
H1413 C1410 0.929 . S
S1414 N1415 1.613 . S
S1414 N1416 1.610 . S
N1415 S1414 1.613 . S
N1415 C1418 1.350 . S
N1416 S1414 1.610 . S
N1416 C1417 1.351 . S
C1417 C1411 1.428 . S
C1417 N1416 1.351 . S
C1417 C1418 1.434 . S
C1418 C1409 1.429 . S
C1418 N1415 1.350 . S
C1418 C1417 1.434 . S
C1419 C1420 1.369 . S
C1419 C1421 1.419 . S
C1419 H1423 0.930 . S
C1420 C1419 1.369 . S
C1420 C1429 1.429 . S
C1421 C1419 1.419 . S
C1421 C1422 1.363 . S
C1421 H1424 0.929 . S
C1422 C1421 1.363 . S
C1422 C1428 1.428 . S
H1423 C1419 0.930 . S
H1424 C1421 0.929 . S
S1425 N1426 1.613 . S
S1425 N1427 1.610 . S
N1426 S1425 1.613 . S
N1426 C1429 1.350 . S
N1427 S1425 1.610 . S
N1427 C1428 1.351 . S
C1428 C1422 1.428 . S
C1428 N1427 1.351 . S
C1428 C1429 1.434 . S
C1429 C1420 1.429 . S
C1429 N1426 1.350 . S
C1429 C1428 1.434 . S
C1430 C1431 1.369 . S
C1430 C1432 1.419 . S
C1430 H1434 0.930 . S
C1431 C1430 1.369 . S
C1431 C1440 1.429 . S
C1432 C1430 1.419 . S
C1432 C1433 1.363 . S
C1432 H1435 0.929 . S
C1433 C1432 1.363 . S
C1433 C1439 1.428 . S
H1434 C1430 0.930 . S
H1435 C1432 0.929 . S
S1436 N1437 1.613 . S
S1436 N1438 1.610 . S
N1437 S1436 1.613 . S
N1437 C1440 1.350 . S
N1438 S1436 1.610 . S
N1438 C1439 1.351 . S
C1439 C1433 1.428 . S
C1439 N1438 1.351 . S
C1439 C1440 1.434 . S
C1440 C1431 1.429 . S
C1440 N1437 1.350 . S
C1440 C1439 1.434 . S
C1441 C1442 1.369 . S
C1441 C1443 1.419 . S
C1441 H1445 0.930 . S
C1442 C1441 1.369 . S
C1442 C1451 1.429 . S
C1443 C1441 1.419 . S
C1443 C1444 1.363 . S
C1443 H1446 0.929 . S
C1444 C1443 1.363 . S
C1444 C1450 1.428 . S
H1445 C1441 0.930 . S
H1446 C1443 0.929 . S
S1447 N1448 1.613 . S
S1447 N1449 1.610 . S
N1448 S1447 1.613 . S
N1448 C1451 1.350 . S
N1449 S1447 1.610 . S
N1449 C1450 1.351 . S
C1450 C1444 1.428 . S
C1450 N1449 1.351 . S
C1450 C1451 1.434 . S
C1451 C1442 1.429 . S
C1451 N1448 1.350 . S
C1451 C1450 1.434 . S
C1452 C1453 1.369 . S
C1452 C1454 1.419 . S
C1452 H1456 0.930 . S
C1453 C1452 1.369 . S
C1453 C1462 1.429 . S
C1454 C1452 1.419 . S
C1454 C1455 1.363 . S
C1454 H1457 0.929 . S
C1455 C1454 1.363 . S
C1455 C1461 1.428 . S
H1456 C1452 0.930 . S
H1457 C1454 0.929 . S
S1458 N1459 1.613 . S
S1458 N1460 1.610 . S
N1459 S1458 1.613 . S
N1459 C1462 1.350 . S
N1460 S1458 1.610 . S
N1460 C1461 1.351 . S
C1461 C1455 1.428 . S
C1461 N1460 1.351 . S
C1461 C1462 1.434 . S
C1462 C1453 1.429 . S
C1462 N1459 1.350 . S
C1462 C1461 1.434 . S
C1463 C1464 1.369 . S
C1463 C1465 1.419 . S
C1463 H1467 0.930 . S
C1464 C1463 1.369 . S
C1464 C1473 1.429 . S
C1465 C1463 1.419 . S
C1465 C1466 1.363 . S
C1465 H1468 0.929 . S
C1466 C1465 1.363 . S
C1466 C1472 1.428 . S
H1467 C1463 0.930 . S
H1468 C1465 0.929 . S
S1469 N1470 1.613 . S
S1469 N1471 1.610 . S
N1470 S1469 1.613 . S
N1470 C1473 1.350 . S
N1471 S1469 1.610 . S
N1471 C1472 1.351 . S
C1472 C1466 1.428 . S
C1472 N1471 1.351 . S
C1472 C1473 1.434 . S
C1473 C1464 1.429 . S
C1473 N1470 1.350 . S
C1473 C1472 1.434 . S
C1474 C1475 1.369 . S
C1474 C1476 1.419 . S
C1474 H1478 0.930 . S
C1475 C1474 1.369 . S
C1475 C1484 1.429 . S
C1476 C1474 1.419 . S
C1476 C1477 1.363 . S
C1476 H1479 0.929 . S
C1477 C1476 1.363 . S
C1477 C1483 1.428 . S
H1478 C1474 0.930 . S
H1479 C1476 0.929 . S
S1480 N1481 1.613 . S
S1480 N1482 1.610 . S
N1481 S1480 1.613 . S
N1481 C1484 1.350 . S
N1482 S1480 1.610 . S
N1482 C1483 1.351 . S
C1483 C1477 1.428 . S
C1483 N1482 1.351 . S
C1483 C1484 1.434 . S
C1484 C1475 1.429 . S
C1484 N1481 1.350 . S
C1484 C1483 1.434 . S
C1485 C1486 1.369 . S
C1485 C1487 1.419 . S
C1485 H1489 0.930 . S
C1486 C1485 1.369 . S
C1486 C1495 1.429 . S
C1487 C1485 1.419 . S
C1487 C1488 1.363 . S
C1487 H1490 0.929 . S
C1488 C1487 1.363 . S
C1488 C1494 1.428 . S
H1489 C1485 0.930 . S
H1490 C1487 0.929 . S
S1491 N1492 1.613 . S
S1491 N1493 1.610 . S
N1492 S1491 1.613 . S
N1492 C1495 1.350 . S
N1493 S1491 1.610 . S
N1493 C1494 1.351 . S
C1494 C1488 1.428 . S
C1494 N1493 1.351 . S
C1494 C1495 1.434 . S
C1495 C1486 1.429 . S
C1495 N1492 1.350 . S
C1495 C1494 1.434 . S
C1496 C1497 1.369 . S
C1496 C1498 1.419 . S
C1496 H1500 0.930 . S
C1497 C1496 1.369 . S
C1497 C1506 1.429 . S
C1498 C1496 1.419 . S
C1498 C1499 1.363 . S
C1498 H1501 0.929 . S
C1499 C1498 1.363 . S
C1499 C1505 1.428 . S
H1500 C1496 0.930 . S
H1501 C1498 0.929 . S
S1502 N1503 1.613 . S
S1502 N1504 1.610 . S
N1503 S1502 1.613 . S
N1503 C1506 1.350 . S
N1504 S1502 1.610 . S
N1504 C1505 1.351 . S
C1505 C1499 1.428 . S
C1505 N1504 1.351 . S
C1505 C1506 1.434 . S
C1506 C1497 1.429 . S
C1506 N1503 1.350 . S
C1506 C1505 1.434 . S
C1507 C1508 1.369 . S
C1507 C1509 1.419 . S
C1507 H1511 0.930 . S
C1508 C1507 1.369 . S
C1508 C1517 1.429 . S
C1509 C1507 1.419 . S
C1509 C1510 1.363 . S
C1509 H1512 0.929 . S
C1510 C1509 1.363 . S
C1510 C1516 1.428 . S
H1511 C1507 0.930 . S
H1512 C1509 0.929 . S
S1513 N1514 1.613 . S
S1513 N1515 1.610 . S
N1514 S1513 1.613 . S
N1514 C1517 1.350 . S
N1515 S1513 1.610 . S
N1515 C1516 1.351 . S
C1516 C1510 1.428 . S
C1516 N1515 1.351 . S
C1516 C1517 1.434 . S
C1517 C1508 1.429 . S
C1517 N1514 1.350 . S
C1517 C1516 1.434 . S
C1518 C1519 1.369 . S
C1518 C1520 1.419 . S
C1518 H1522 0.930 . S
C1519 C1518 1.369 . S
C1519 C1528 1.429 . S
C1520 C1518 1.419 . S
C1520 C1521 1.363 . S
C1520 H1523 0.929 . S
C1521 C1520 1.363 . S
C1521 C1527 1.428 . S
H1522 C1518 0.930 . S
H1523 C1520 0.929 . S
S1524 N1525 1.613 . S
S1524 N1526 1.610 . S
N1525 S1524 1.613 . S
N1525 C1528 1.350 . S
N1526 S1524 1.610 . S
N1526 C1527 1.351 . S
C1527 C1521 1.428 . S
C1527 N1526 1.351 . S
C1527 C1528 1.434 . S
C1528 C1519 1.429 . S
C1528 N1525 1.350 . S
C1528 C1527 1.434 . S
C1529 C1530 1.369 . S
C1529 C1531 1.419 . S
C1529 H1533 0.930 . S
C1530 C1529 1.369 . S
C1530 C1539 1.429 . S
C1531 C1529 1.419 . S
C1531 C1532 1.363 . S
C1531 H1534 0.929 . S
C1532 C1531 1.363 . S
C1532 C1538 1.428 . S
H1533 C1529 0.930 . S
H1534 C1531 0.929 . S
S1535 N1536 1.613 . S
S1535 N1537 1.610 . S
N1536 S1535 1.613 . S
N1536 C1539 1.350 . S
N1537 S1535 1.610 . S
N1537 C1538 1.351 . S
C1538 C1532 1.428 . S
C1538 N1537 1.351 . S
C1538 C1539 1.434 . S
C1539 C1530 1.429 . S
C1539 N1536 1.350 . S
C1539 C1538 1.434 . S
C1540 C1541 1.369 . S
C1540 C1542 1.419 . S
C1540 H1544 0.930 . S
C1541 C1540 1.369 . S
C1541 C1550 1.429 . S
C1542 C1540 1.419 . S
C1542 C1543 1.363 . S
C1542 H1545 0.929 . S
C1543 C1542 1.363 . S
C1543 C1549 1.428 . S
H1544 C1540 0.930 . S
H1545 C1542 0.929 . S
S1546 N1547 1.613 . S
S1546 N1548 1.610 . S
N1547 S1546 1.613 . S
N1547 C1550 1.350 . S
N1548 S1546 1.610 . S
N1548 C1549 1.351 . S
C1549 C1543 1.428 . S
C1549 N1548 1.351 . S
C1549 C1550 1.434 . S
C1550 C1541 1.429 . S
C1550 N1547 1.350 . S
C1550 C1549 1.434 . S
C1551 C1552 1.369 . S
C1551 C1553 1.419 . S
C1551 H1555 0.930 . S
C1552 C1551 1.369 . S
C1552 C1561 1.429 . S
C1553 C1551 1.419 . S
C1553 C1554 1.363 . S
C1553 H1556 0.929 . S
C1554 C1553 1.363 . S
C1554 C1560 1.428 . S
H1555 C1551 0.930 . S
H1556 C1553 0.929 . S
S1557 N1558 1.613 . S
S1557 N1559 1.610 . S
N1558 S1557 1.613 . S
N1558 C1561 1.350 . S
N1559 S1557 1.610 . S
N1559 C1560 1.351 . S
C1560 C1554 1.428 . S
C1560 N1559 1.351 . S
C1560 C1561 1.434 . S
C1561 C1552 1.429 . S
C1561 N1558 1.350 . S
C1561 C1560 1.434 . S
C1562 C1563 1.369 . S
C1562 C1564 1.419 . S
C1562 H1566 0.930 . S
C1563 C1562 1.369 . S
C1563 C1572 1.429 . S
C1564 C1562 1.419 . S
C1564 C1565 1.363 . S
C1564 H1567 0.929 . S
C1565 C1564 1.363 . S
C1565 C1571 1.428 . S
H1566 C1562 0.930 . S
H1567 C1564 0.929 . S
S1568 N1569 1.613 . S
S1568 N1570 1.610 . S
N1569 S1568 1.613 . S
N1569 C1572 1.350 . S
N1570 S1568 1.610 . S
N1570 C1571 1.351 . S
C1571 C1565 1.428 . S
C1571 N1570 1.351 . S
C1571 C1572 1.434 . S
C1572 C1563 1.429 . S
C1572 N1569 1.350 . S
C1572 C1571 1.434 . S
C1573 C1574 1.369 . S
C1573 C1575 1.419 . S
C1573 H1577 0.930 . S
C1574 C1573 1.369 . S
C1574 C1583 1.429 . S
C1575 C1573 1.419 . S
C1575 C1576 1.363 . S
C1575 H1578 0.929 . S
C1576 C1575 1.363 . S
C1576 C1582 1.428 . S
H1577 C1573 0.930 . S
H1578 C1575 0.929 . S
S1579 N1580 1.613 . S
S1579 N1581 1.610 . S
N1580 S1579 1.613 . S
N1580 C1583 1.350 . S
N1581 S1579 1.610 . S
N1581 C1582 1.351 . S
C1582 C1576 1.428 . S
C1582 N1581 1.351 . S
C1582 C1583 1.434 . S
C1583 C1574 1.429 . S
C1583 N1580 1.350 . S
C1583 C1582 1.434 . S
C1584 C1585 1.369 . S
C1584 C1586 1.419 . S
C1584 H1588 0.930 . S
C1585 C1584 1.369 . S
C1585 C1594 1.429 . S
C1586 C1584 1.419 . S
C1586 C1587 1.363 . S
C1586 H1589 0.929 . S
C1587 C1586 1.363 . S
C1587 C1593 1.428 . S
H1588 C1584 0.930 . S
H1589 C1586 0.929 . S
S1590 N1591 1.613 . S
S1590 N1592 1.610 . S
N1591 S1590 1.613 . S
N1591 C1594 1.350 . S
N1592 S1590 1.610 . S
N1592 C1593 1.351 . S
C1593 C1587 1.428 . S
C1593 N1592 1.351 . S
C1593 C1594 1.434 . S
C1594 C1585 1.429 . S
C1594 N1591 1.350 . S
C1594 C1593 1.434 . S
C1595 C1596 1.369 . S
C1595 C1597 1.419 . S
C1595 H1599 0.930 . S
C1596 C1595 1.369 . S
C1596 C1605 1.429 . S
C1597 C1595 1.419 . S
C1597 C1598 1.363 . S
C1597 H1600 0.929 . S
C1598 C1597 1.363 . S
C1598 C1604 1.428 . S
H1599 C1595 0.930 . S
H1600 C1597 0.929 . S
S1601 N1602 1.613 . S
S1601 N1603 1.610 . S
N1602 S1601 1.613 . S
N1602 C1605 1.350 . S
N1603 S1601 1.610 . S
N1603 C1604 1.351 . S
C1604 C1598 1.428 . S
C1604 N1603 1.351 . S
C1604 C1605 1.434 . S
C1605 C1596 1.429 . S
C1605 N1602 1.350 . S
C1605 C1604 1.434 . S
C1606 C1607 1.369 . S
C1606 C1608 1.419 . S
C1606 H1610 0.930 . S
C1607 C1606 1.369 . S
C1607 C1616 1.429 . S
C1608 C1606 1.419 . S
C1608 C1609 1.363 . S
C1608 H1611 0.929 . S
C1609 C1608 1.363 . S
C1609 C1615 1.428 . S
H1610 C1606 0.930 . S
H1611 C1608 0.929 . S
S1612 N1613 1.613 1_455 S
S1612 N1614 1.610 . S
N1613 S1612 1.613 1_655 S
N1613 C1616 1.350 . S
N1614 S1612 1.610 . S
N1614 C1615 1.351 1_455 S
C1615 C1609 1.428 . S
C1615 N1614 1.351 1_655 S
C1615 C1616 1.434 . S
C1616 C1607 1.429 . S
C1616 N1613 1.350 . S
C1616 C1615 1.434 . S
C1617 C1618 1.369 . S
C1617 C1619 1.419 . S
C1617 H1621 0.930 . S
C1618 C1617 1.369 . S
C1618 C1627 1.429 . S
C1619 C1617 1.419 . S
C1619 C1620 1.363 . S
C1619 H1622 0.929 . S
C1620 C1619 1.363 . S
C1620 C1626 1.428 . S
H1621 C1617 0.930 . S
H1622 C1619 0.929 . S
S1623 N1624 1.613 . S
S1623 N1625 1.610 1_545 S
N1624 S1623 1.613 . S
N1624 C1627 1.350 1_545 S
N1625 S1623 1.610 1_565 S
N1625 C1626 1.351 . S
C1626 C1620 1.428 . S
C1626 N1625 1.351 . S
C1626 C1627 1.434 . S
C1627 C1618 1.429 . S
C1627 N1624 1.350 1_565 S
C1627 C1626 1.434 . S
C1628 C1629 1.369 . S
C1628 C1630 1.419 . S
C1628 H1632 0.930 . S
C1629 C1628 1.369 . S
C1629 C1638 1.429 . S
C1630 C1628 1.419 . S
C1630 C1631 1.363 . S
C1630 H1633 0.929 . S
C1631 C1630 1.363 . S
C1631 C1637 1.428 . S
H1632 C1628 0.930 . S
H1633 C1630 0.929 . S
S1634 N1635 1.613 1_655 S
S1634 N1636 1.610 . S
N1635 S1634 1.613 1_455 S
N1635 C1638 1.350 . S
N1636 S1634 1.610 . S
N1636 C1637 1.351 1_655 S
C1637 C1631 1.428 . S
C1637 N1636 1.351 1_455 S
C1637 C1638 1.434 . S
C1638 C1629 1.429 . S
C1638 N1635 1.350 . S
C1638 C1637 1.434 . S
C1639 C1640 1.369 . S
C1639 C1641 1.419 . S
C1639 H1643 0.930 . S
C1640 C1639 1.369 . S
C1640 C1649 1.429 . S
C1641 C1639 1.419 . S
C1641 C1642 1.363 . S
C1641 H1644 0.929 . S
C1642 C1641 1.363 . S
C1642 C1648 1.428 . S
H1643 C1639 0.930 . S
H1644 C1641 0.929 . S
S1645 N1646 1.613 . S
S1645 N1647 1.610 . S
N1646 S1645 1.613 . S
N1646 C1649 1.350 . S
N1647 S1645 1.610 . S
N1647 C1648 1.351 . S
C1648 C1642 1.428 . S
C1648 N1647 1.351 . S
C1648 C1649 1.434 . S
C1649 C1640 1.429 . S
C1649 N1646 1.350 . S
C1649 C1648 1.434 . S
C1650 C1651 1.369 . S
C1650 C1652 1.419 . S
C1650 H1654 0.930 . S
C1651 C1650 1.369 . S
C1651 C1660 1.429 . S
C1652 C1650 1.419 . S
C1652 C1653 1.363 . S
C1652 H1655 0.929 . S
C1653 C1652 1.363 . S
C1653 C1659 1.428 . S
H1654 C1650 0.930 . S
H1655 C1652 0.929 . S
S1656 N1657 1.613 . S
S1656 N1658 1.610 . S
N1657 S1656 1.613 . S
N1657 C1660 1.350 . S
N1658 S1656 1.610 . S
N1658 C1659 1.351 . S
C1659 C1653 1.428 . S
C1659 N1658 1.351 . S
C1659 C1660 1.434 . S
C1660 C1651 1.429 . S
C1660 N1657 1.350 . S
C1660 C1659 1.434 . S
C1661 C1662 1.369 . S
C1661 C1663 1.419 . S
C1661 H1665 0.930 . S
C1662 C1661 1.369 . S
C1662 C1671 1.429 . S
C1663 C1661 1.419 . S
C1663 C1664 1.363 . S
C1663 H1666 0.929 . S
C1664 C1663 1.363 . S
C1664 C1670 1.428 . S
H1665 C1661 0.930 . S
H1666 C1663 0.929 . S
S1667 N1668 1.613 . S
S1667 N1669 1.610 . S
N1668 S1667 1.613 . S
N1668 C1671 1.350 . S
N1669 S1667 1.610 . S
N1669 C1670 1.351 . S
C1670 C1664 1.428 . S
C1670 N1669 1.351 . S
C1670 C1671 1.434 . S
C1671 C1662 1.429 . S
C1671 N1668 1.350 . S
C1671 C1670 1.434 . S
C1672 C1673 1.369 . S
C1672 C1674 1.419 . S
C1672 H1676 0.930 . S
C1673 C1672 1.369 . S
C1673 C1682 1.429 1_655 S
C1674 C1672 1.419 . S
C1674 C1675 1.363 1_655 S
C1674 H1677 0.929 . S
C1675 C1674 1.363 1_455 S
C1675 C1681 1.428 . S
H1676 C1672 0.930 . S
H1677 C1674 0.929 . S
S1678 N1679 1.613 . S
S1678 N1680 1.610 . S
N1679 S1678 1.613 . S
N1679 C1682 1.350 . S
N1680 S1678 1.610 . S
N1680 C1681 1.351 . S
C1681 C1675 1.428 . S
C1681 N1680 1.351 . S
C1681 C1682 1.434 . S
C1682 C1673 1.429 1_455 S
C1682 N1679 1.350 . S
C1682 C1681 1.434 . S
C1683 C1684 1.369 1_565 S
C1683 C1685 1.419 . S
C1683 H1687 0.930 . S
C1684 C1683 1.369 1_545 S
C1684 C1693 1.429 . S
C1685 C1683 1.419 . S
C1685 C1686 1.363 . S
C1685 H1688 0.929 . S
C1686 C1685 1.363 . S
C1686 C1692 1.428 1_565 S
H1687 C1683 0.930 . S
H1688 C1685 0.929 . S
S1689 N1690 1.613 . S
S1689 N1691 1.610 . S
N1690 S1689 1.613 . S
N1690 C1693 1.350 . S
N1691 S1689 1.610 . S
N1691 C1692 1.351 . S
C1692 C1686 1.428 1_545 S
C1692 N1691 1.351 . S
C1692 C1693 1.434 . S
C1693 C1684 1.429 . S
C1693 N1690 1.350 . S
C1693 C1692 1.434 . S
C1694 C1695 1.369 1_455 S
C1694 C1696 1.419 . S
C1694 H1698 0.930 . S
C1695 C1694 1.369 1_655 S
C1695 C1704 1.429 . S
C1696 C1694 1.419 . S
C1696 C1697 1.363 . S
C1696 H1699 0.929 . S
C1697 C1696 1.363 . S
C1697 C1703 1.428 1_455 S
H1698 C1694 0.930 . S
H1699 C1696 0.929 . S
S1700 N1701 1.613 . S
S1700 N1702 1.610 . S
N1701 S1700 1.613 . S
N1701 C1704 1.350 . S
N1702 S1700 1.610 . S
N1702 C1703 1.351 . S
C1703 C1697 1.428 1_655 S
C1703 N1702 1.351 . S
C1703 C1704 1.434 . S
C1704 C1695 1.429 . S
C1704 N1701 1.350 . S
C1704 C1703 1.434 . S
C1705 C1706 1.369 1_545 S
C1705 C1707 1.419 . S
C1705 H1709 0.930 . S
C1706 C1705 1.369 1_565 S
C1706 C1715 1.429 . S
C1707 C1705 1.419 . S
C1707 C1708 1.363 . S
C1707 H1710 0.929 . S
C1708 C1707 1.363 . S
C1708 C1714 1.428 1_545 S
H1709 C1705 0.930 . S
H1710 C1707 0.929 . S
S1711 N1712 1.613 . S
S1711 N1713 1.610 . S
N1712 S1711 1.613 . S
N1712 C1715 1.350 . S
N1713 S1711 1.610 . S
N1713 C1714 1.351 . S
C1714 C1708 1.428 1_565 S
C1714 N1713 1.351 . S
C1714 C1715 1.434 . S
C1715 C1706 1.429 . S
C1715 N1712 1.350 . S
C1715 C1714 1.434 . S
C1716 C1717 1.369 . S
C1716 C1718 1.419 1_556 S
C1716 H1720 0.930 . S
C1717 C1716 1.369 . S
C1717 C1726 1.429 . S
C1718 C1716 1.419 1_554 S
C1718 C1719 1.363 . S
C1718 H1721 0.929 . S
C1719 C1718 1.363 . S
C1719 C1725 1.428 . S
H1720 C1716 0.930 . S
H1721 C1718 0.929 . S
S1722 N1723 1.613 1_554 S
S1722 N1724 1.610 . S
N1723 S1722 1.613 1_556 S
N1723 C1726 1.350 . S
N1724 S1722 1.610 . S
N1724 C1725 1.351 . S
C1725 C1719 1.428 . S
C1725 N1724 1.351 . S
C1725 C1726 1.434 1_554 S
C1726 C1717 1.429 . S
C1726 N1723 1.350 . S
C1726 C1725 1.434 1_556 S
C1727 C1728 1.369 . S
C1727 C1729 1.419 1_556 S
C1727 H1731 0.930 . S
C1728 C1727 1.369 . S
C1728 C1737 1.429 . S
C1729 C1727 1.419 1_554 S
C1729 C1730 1.363 . S
C1729 H1732 0.929 . S
C1730 C1729 1.363 . S
C1730 C1736 1.428 . S
H1731 C1727 0.930 . S
H1732 C1729 0.929 . S
S1733 N1734 1.613 . S
S1733 N1735 1.610 1_556 S
N1734 S1733 1.613 . S
N1734 C1737 1.350 . S
N1735 S1733 1.610 1_554 S
N1735 C1736 1.351 . S
C1736 C1730 1.428 . S
C1736 N1735 1.351 . S
C1736 C1737 1.434 1_554 S
C1737 C1728 1.429 . S
C1737 N1734 1.350 . S
C1737 C1736 1.434 1_556 S
C1738 C1739 1.369 . S
C1738 C1740 1.419 1_554 S
C1738 H1742 0.930 . S
C1739 C1738 1.369 . S
C1739 C1748 1.429 . S
C1740 C1738 1.419 1_556 S
C1740 C1741 1.363 . S
C1740 H1743 0.929 . S
C1741 C1740 1.363 . S
C1741 C1747 1.428 . S
H1742 C1738 0.930 . S
H1743 C1740 0.929 . S
S1744 N1745 1.613 . S
S1744 N1746 1.610 1_554 S
N1745 S1744 1.613 . S
N1745 C1748 1.350 . S
N1746 S1744 1.610 1_556 S
N1746 C1747 1.351 . S
C1747 C1741 1.428 . S
C1747 N1746 1.351 . S
C1747 C1748 1.434 1_556 S
C1748 C1739 1.429 . S
C1748 N1745 1.350 . S
C1748 C1747 1.434 1_554 S
C1749 C1750 1.369 . S
C1749 C1751 1.419 1_556 S
C1749 H1753 0.930 . S
C1750 C1749 1.369 . S
C1750 C1759 1.429 . S
C1751 C1749 1.419 1_554 S
C1751 C1752 1.363 . S
C1751 H1754 0.929 . S
C1752 C1751 1.363 . S
C1752 C1758 1.428 . S
H1753 C1749 0.930 . S
H1754 C1751 0.929 . S
S1755 N1756 1.613 . S
S1755 N1757 1.610 1_556 S
N1756 S1755 1.613 . S
N1756 C1759 1.350 . S
N1757 S1755 1.610 1_554 S
N1757 C1758 1.351 . S
C1758 C1752 1.428 . S
C1758 N1757 1.351 . S
C1758 C1759 1.434 1_554 S
C1759 C1750 1.429 . S
C1759 N1756 1.350 . S
C1759 C1758 1.434 1_556 S
C1409 C20 1.748 . S
C1411 C293 1.654 . S
C1420 C49 1.627 . S
C1422 C117 1.739 . S
C1431 C137 1.655 . S
C1433 C196 1.749 . S
C1442 C225 1.629 . S
C1444 C313 1.739 . S
C1453 C409 1.751 . S
C1455 C497 1.648 . S
C1464 C460 1.741 . S
C1466 C557 1.624 . S
C1475 C585 1.751 . S
C1477 C636 1.649 . S
C1486 C673 1.742 . S
C1488 C381 1.624 . S
C1497 C724 1.750 . S
C1499 C988 1.650 . S
C1508 C753 1.634 . S
C1510 C821 1.738 . S
C1519 C841 1.646 . S
C1521 C900 1.751 . S
C1530 C1025 1.740 . S
C1532 C929 1.627 . S
C1541 C1201 1.646 . S
C1543 C1105 1.751 . S
C1552 C1261 1.627 . S
C1554 C1164 1.739 . S
C1563 C1289 1.748 . S
C1565 C1340 1.654 . S
C1574 C1377 1.737 . S
C1576 C1076 1.632 . S
C1585 C57 1.042 . S
C1587 C1369 1.035 . S
C1596 C108 1.038 . S
C1598 C1085 1.041 . S
C1607 C1173 1.040 . S
C1609 C233 1.045 . S
C1618 C321 1.035 . S
C1620 C1252 1.043 . S
C1629 C812 1.041 . S
C1631 C372 1.045 . S
C1640 C937 1.038 . S
C1642 C469 1.035 . S
C1651 C548 1.037 . S
C1653 C1017 1.032 . S
C1662 C665 1.031 . S
C1664 C761 1.038 . S
C1673 C29 1.552 . S
C1675 C577 1.555 . S
C1684 C645 1.553 . S
C1686 C145 1.551 . S
C1695 C401 1.557 . S
C1697 C205 1.554 . S
C1706 C489 1.554 . S
C1708 C284 1.551 . S
C1717 C733 1.553 . S
C1719 C1281 1.552 . S
C1728 C849 1.555 . S
C1730 C1349 1.556 . S
C1739 C1113 1.551 . S
C1741 C909 1.552 . S
C1750 C997 1.554 . S
C1752 C1193 1.556 . S
