# Generated by pormake.
# Topology ukn, (4)-cn, num edge types: 1
# Building blocks:
#     Node 0, Type 0, BuildingBlock: AZAVOO_clean_sbu_0, # of connection points: 4
#     Node 1, Type 0, BuildingBlock: AZAVOO_clean_sbu_0, # of connection points: 4
#     Node 2, Type 0, BuildingBlock: AZAVOO_clean_sbu_0, # of connection points: 4
#     Node 3, Type 0, BuildingBlock: AZAVOO_clean_sbu_0, # of connection points: 4
#     Node 4, Type 0, BuildingBlock: AZAVOO_clean_sbu_0, # of connection points: 4
#     Node 5, Type 0, BuildingBlock: AZAVOO_clean_sbu_0, # of connection points: 4
#     Node 6, Type 0, BuildingBlock: AZAVOO_clean_sbu_0, # of connection points: 4
#     Node 7, Type 0, BuildingBlock: AZAVOO_clean_sbu_0, # of connection points: 4
#     Node 8, Type 0, BuildingBlock: AZAVOO_clean_sbu_0, # of connection points: 4
#     Node 9, Type 0, BuildingBlock: AZAVOO_clean_sbu_0, # of connection points: 4
#     Node 10, Type 0, BuildingBlock: AZAVOO_clean_sbu_0, # of connection points: 4
#     Node 11, Type 0, BuildingBlock: AZAVOO_clean_sbu_0, # of connection points: 4
#     Node 12, Type 0, BuildingBlock: AZAVOO_clean_sbu_0, # of connection points: 4
#     Node 13, Type 0, BuildingBlock: AZAVOO_clean_sbu_0, # of connection points: 4
#     Node 14, Type 0, BuildingBlock: AZAVOO_clean_sbu_0, # of connection points: 4
#     Node 15, Type 0, BuildingBlock: AZAVOO_clean_sbu_0, # of connection points: 4
#     Node 16, Type 0, BuildingBlock: AZAVOO_clean_sbu_0, # of connection points: 4
#     Node 17, Type 0, BuildingBlock: AZAVOO_clean_sbu_0, # of connection points: 4
#     Node 18, Type 0, BuildingBlock: AZAVOO_clean_sbu_0, # of connection points: 4
#     Node 19, Type 0, BuildingBlock: AZAVOO_clean_sbu_0, # of connection points: 4
#     Node 20, Type 0, BuildingBlock: AZAVOO_clean_sbu_0, # of connection points: 4
#     Node 21, Type 0, BuildingBlock: AZAVOO_clean_sbu_0, # of connection points: 4
#     Node 22, Type 0, BuildingBlock: AZAVOO_clean_sbu_0, # of connection points: 4
#     Node 23, Type 0, BuildingBlock: AZAVOO_clean_sbu_0, # of connection points: 4
#     Node 24, Type 0, BuildingBlock: AZAVOO_clean_sbu_0, # of connection points: 4
#     Node 25, Type 0, BuildingBlock: AZAVOO_clean_sbu_0, # of connection points: 4
#     Node 26, Type 0, BuildingBlock: AZAVOO_clean_sbu_0, # of connection points: 4
#     Node 27, Type 0, BuildingBlock: AZAVOO_clean_sbu_0, # of connection points: 4
#     Node 28, Type 0, BuildingBlock: AZAVOO_clean_sbu_0, # of connection points: 4
#     Node 29, Type 0, BuildingBlock: AZAVOO_clean_sbu_0, # of connection points: 4
#     Node 30, Type 0, BuildingBlock: AZAVOO_clean_sbu_0, # of connection points: 4
#     Node 31, Type 0, BuildingBlock: AZAVOO_clean_sbu_0, # of connection points: 4
#     Node 32, Type 0, BuildingBlock: AZAVOO_clean_sbu_0, # of connection points: 4
#     Node 33, Type 0, BuildingBlock: AZAVOO_clean_sbu_0, # of connection points: 4
#     Node 34, Type 0, BuildingBlock: AZAVOO_clean_sbu_0, # of connection points: 4
#     Node 35, Type 0, BuildingBlock: AZAVOO_clean_sbu_0, # of connection points: 4
#     Edge 36, Type (0, 0), BuildingBlock: ZUJKAS_clean_linker_0, # of connection points: 2
#     Edge 37, Type (0, 0), BuildingBlock: ZUJKAS_clean_linker_0, # of connection points: 2
#     Edge 38, Type (0, 0), BuildingBlock: ZUJKAS_clean_linker_0, # of connection points: 2
#     Edge 39, Type (0, 0), BuildingBlock: ZUJKAS_clean_linker_0, # of connection points: 2
#     Edge 40, Type (0, 0), BuildingBlock: ZUJKAS_clean_linker_0, # of connection points: 2
#     Edge 41, Type (0, 0), BuildingBlock: ZUJKAS_clean_linker_0, # of connection points: 2
#     Edge 42, Type (0, 0), BuildingBlock: ZUJKAS_clean_linker_0, # of connection points: 2
#     Edge 43, Type (0, 0), BuildingBlock: ZUJKAS_clean_linker_0, # of connection points: 2
#     Edge 44, Type (0, 0), BuildingBlock: ZUJKAS_clean_linker_0, # of connection points: 2
#     Edge 45, Type (0, 0), BuildingBlock: ZUJKAS_clean_linker_0, # of connection points: 2
#     Edge 46, Type (0, 0), BuildingBlock: ZUJKAS_clean_linker_0, # of connection points: 2
#     Edge 47, Type (0, 0), BuildingBlock: ZUJKAS_clean_linker_0, # of connection points: 2
#     Edge 48, Type (0, 0), BuildingBlock: ZUJKAS_clean_linker_0, # of connection points: 2
#     Edge 49, Type (0, 0), BuildingBlock: ZUJKAS_clean_linker_0, # of connection points: 2
#     Edge 50, Type (0, 0), BuildingBlock: ZUJKAS_clean_linker_0, # of connection points: 2
#     Edge 51, Type (0, 0), BuildingBlock: ZUJKAS_clean_linker_0, # of connection points: 2
#     Edge 52, Type (0, 0), BuildingBlock: ZUJKAS_clean_linker_0, # of connection points: 2
#     Edge 53, Type (0, 0), BuildingBlock: ZUJKAS_clean_linker_0, # of connection points: 2
#     Edge 54, Type (0, 0), BuildingBlock: ZUJKAS_clean_linker_0, # of connection points: 2
#     Edge 55, Type (0, 0), BuildingBlock: ZUJKAS_clean_linker_0, # of connection points: 2
#     Edge 56, Type (0, 0), BuildingBlock: ZUJKAS_clean_linker_0, # of connection points: 2
#     Edge 57, Type (0, 0), BuildingBlock: ZUJKAS_clean_linker_0, # of connection points: 2
#     Edge 58, Type (0, 0), BuildingBlock: ZUJKAS_clean_linker_0, # of connection points: 2
#     Edge 59, Type (0, 0), BuildingBlock: ZUJKAS_clean_linker_0, # of connection points: 2
#     Edge 60, Type (0, 0), BuildingBlock: ZUJKAS_clean_linker_0, # of connection points: 2
#     Edge 61, Type (0, 0), BuildingBlock: ZUJKAS_clean_linker_0, # of connection points: 2
#     Edge 62, Type (0, 0), BuildingBlock: ZUJKAS_clean_linker_0, # of connection points: 2
#     Edge 63, Type (0, 0), BuildingBlock: ZUJKAS_clean_linker_0, # of connection points: 2
#     Edge 64, Type (0, 0), BuildingBlock: ZUJKAS_clean_linker_0, # of connection points: 2
#     Edge 65, Type (0, 0), BuildingBlock: ZUJKAS_clean_linker_0, # of connection points: 2
#     Edge 66, Type (0, 0), BuildingBlock: ZUJKAS_clean_linker_0, # of connection points: 2
#     Edge 67, Type (0, 0), BuildingBlock: ZUJKAS_clean_linker_0, # of connection points: 2
#     Edge 68, Type (0, 0), BuildingBlock: ZUJKAS_clean_linker_0, # of connection points: 2
#     Edge 69, Type (0, 0), BuildingBlock: ZUJKAS_clean_linker_0, # of connection points: 2
#     Edge 70, Type (0, 0), BuildingBlock: ZUJKAS_clean_linker_0, # of connection points: 2
#     Edge 71, Type (0, 0), BuildingBlock: ZUJKAS_clean_linker_0, # of connection points: 2
#     Edge 72, Type (0, 0), BuildingBlock: ZUJKAS_clean_linker_0, # of connection points: 2
#     Edge 73, Type (0, 0), BuildingBlock: ZUJKAS_clean_linker_0, # of connection points: 2
#     Edge 74, Type (0, 0), BuildingBlock: ZUJKAS_clean_linker_0, # of connection points: 2
#     Edge 75, Type (0, 0), BuildingBlock: ZUJKAS_clean_linker_0, # of connection points: 2
#     Edge 76, Type (0, 0), BuildingBlock: ZUJKAS_clean_linker_0, # of connection points: 2
#     Edge 77, Type (0, 0), BuildingBlock: ZUJKAS_clean_linker_0, # of connection points: 2
#     Edge 78, Type (0, 0), BuildingBlock: ZUJKAS_clean_linker_0, # of connection points: 2
#     Edge 79, Type (0, 0), BuildingBlock: ZUJKAS_clean_linker_0, # of connection points: 2
#     Edge 80, Type (0, 0), BuildingBlock: ZUJKAS_clean_linker_0, # of connection points: 2
#     Edge 81, Type (0, 0), BuildingBlock: ZUJKAS_clean_linker_0, # of connection points: 2
#     Edge 82, Type (0, 0), BuildingBlock: ZUJKAS_clean_linker_0, # of connection points: 2
#     Edge 83, Type (0, 0), BuildingBlock: ZUJKAS_clean_linker_0, # of connection points: 2
#     Edge 84, Type (0, 0), BuildingBlock: ZUJKAS_clean_linker_0, # of connection points: 2
#     Edge 85, Type (0, 0), BuildingBlock: ZUJKAS_clean_linker_0, # of connection points: 2
#     Edge 86, Type (0, 0), BuildingBlock: ZUJKAS_clean_linker_0, # of connection points: 2
#     Edge 87, Type (0, 0), BuildingBlock: ZUJKAS_clean_linker_0, # of connection points: 2
#     Edge 88, Type (0, 0), BuildingBlock: ZUJKAS_clean_linker_0, # of connection points: 2
#     Edge 89, Type (0, 0), BuildingBlock: ZUJKAS_clean_linker_0, # of connection points: 2
#     Edge 90, Type (0, 0), BuildingBlock: ZUJKAS_clean_linker_0, # of connection points: 2
#     Edge 91, Type (0, 0), BuildingBlock: ZUJKAS_clean_linker_0, # of connection points: 2
#     Edge 92, Type (0, 0), BuildingBlock: ZUJKAS_clean_linker_0, # of connection points: 2
#     Edge 93, Type (0, 0), BuildingBlock: ZUJKAS_clean_linker_0, # of connection points: 2
#     Edge 94, Type (0, 0), BuildingBlock: ZUJKAS_clean_linker_0, # of connection points: 2
#     Edge 95, Type (0, 0), BuildingBlock: ZUJKAS_clean_linker_0, # of connection points: 2
#     Edge 96, Type (0, 0), BuildingBlock: ZUJKAS_clean_linker_0, # of connection points: 2
#     Edge 97, Type (0, 0), BuildingBlock: ZUJKAS_clean_linker_0, # of connection points: 2
#     Edge 98, Type (0, 0), BuildingBlock: ZUJKAS_clean_linker_0, # of connection points: 2
#     Edge 99, Type (0, 0), BuildingBlock: ZUJKAS_clean_linker_0, # of connection points: 2
#     Edge 100, Type (0, 0), BuildingBlock: ZUJKAS_clean_linker_0, # of connection points: 2
#     Edge 101, Type (0, 0), BuildingBlock: ZUJKAS_clean_linker_0, # of connection points: 2
#     Edge 102, Type (0, 0), BuildingBlock: ZUJKAS_clean_linker_0, # of connection points: 2
#     Edge 103, Type (0, 0), BuildingBlock: ZUJKAS_clean_linker_0, # of connection points: 2
#     Edge 104, Type (0, 0), BuildingBlock: ZUJKAS_clean_linker_0, # of connection points: 2
#     Edge 105, Type (0, 0), BuildingBlock: ZUJKAS_clean_linker_0, # of connection points: 2
#     Edge 106, Type (0, 0), BuildingBlock: ZUJKAS_clean_linker_0, # of connection points: 2
#     Edge 107, Type (0, 0), BuildingBlock: ZUJKAS_clean_linker_0, # of connection points: 2
# Relax obj value: 0.162
# Max RMSD: 0.146
# Mean RMSD: 0.145
data_MOF--net-ukn--node1-AZAVOO_clean_sbu_0--edge1-ZUJKAS_clean_linker_0
_symmetry_space_group_name_H-M    P1
_symmetry_Int_Tables_number       1
_symmetry_cell_setting            triclinic
loop_
_symmetry_equiv_pos_as_xyz
'x, y, z'
_cell_length_a     140.53136
_cell_length_b     140.51576
_cell_length_c     30.933552
_cell_angle_alpha  89.988777
_cell_angle_beta   90.000018
_cell_angle_gamma 119.99714
loop_
_atom_site_label
_atom_site_type_symbol
_atom_site_fract_x
_atom_site_fract_y
_atom_site_fract_z
_atom_type_partial_charge
Mg0 Mg 0.07684 0.279 0.08156 0.0
O1 O 0.08526 0.29165 0.02739 0.0
O2 O 0.10341 0.29953 0.03663 0.0
Mg3 Mg 0.10655 0.2921 0.09676 0.0
C4 C 0.09509 0.29846 0.01578 0.0
C5 C 0.05253 0.27204 0.08979 0.0
O6 O 0.05425 0.26785 0.12491 0.0
O7 O 0.08066 0.29279 0.1293 0.0
O8 O 0.09876 0.29999 0.13804 0.0
O9 O 0.07771 0.26622 0.04134 0.0
O10 O 0.09053 0.27718 0.08748 0.0
C11 C 0.08975 0.29974 0.14677 0.0
C12 C 0.08733 0.26971 0.05814 0.0
O13 O 0.06052 0.27758 0.06435 0.0
Mg14 Mg 0.71579 0.7972 0.07908 0.0
O15 O 0.70292 0.79265 0.02504 0.0
O16 O 0.69356 0.80131 0.03956 0.0
Mg17 Mg 0.70033 0.81124 0.10119 0.0
C18 C 0.69541 0.79494 0.01607 0.0
C19 C 0.72878 0.78605 0.0527 0.0
O20 O 0.7365 0.79632 0.05851 0.0
O21 O 0.70247 0.78576 0.12611 0.0
O22 O 0.69345 0.79489 0.1377 0.0
O23 O 0.72774 0.81181 0.04098 0.0
O24 O 0.71611 0.81198 0.08863 0.0
C25 C 0.69477 0.78665 0.14393 0.0
C26 C 0.72348 0.81708 0.05941 0.0
O27 O 0.71882 0.78346 0.05831 0.0
Mg28 Mg 0.20217 0.91824 0.07215 0.0
O29 O 0.20526 0.9086 0.01952 0.0
O30 O 0.19574 0.89076 0.03676 0.0
Mg31 Mg 0.18633 0.88904 0.09918 0.0
C32 C 0.20227 0.89856 0.01185 0.0
C33 C 0.22116 0.94206 0.07411 0.0
O34 O 0.21786 0.9405 0.11456 0.0
O35 O 0.21324 0.91575 0.11896 0.0
O36 O 0.20279 0.89794 0.13536 0.0
O37 O 0.18764 0.9163 0.03528 0.0
O38 O 0.18698 0.90471 0.08515 0.0
C39 C 0.21161 0.9072 0.13962 0.0
C40 C 0.18199 0.90714 0.05605 0.0
O41 O 0.21647 0.93414 0.04761 0.0
Mg42 Mg 0.26991 0.07287 0.88469 0.0
O43 O 0.28343 0.0819 0.93533 0.0
O44 O 0.29128 0.09996 0.9235 0.0
Mg45 Mg 0.28315 0.1024 0.8638 0.0
C46 C 0.29042 0.09182 0.94512 0.0
C47 C 0.25964 0.04971 0.9223 0.0
O48 O 0.25178 0.0521 0.92704 0.0
O49 O 0.28289 0.07582 0.83419 0.0
O50 O 0.29038 0.09387 0.82284 0.0
O51 O 0.2581 0.07469 0.92748 0.0
O52 O 0.26821 0.08664 0.87711 0.0
C53 C 0.2898 0.08466 0.81507 0.0
C54 C 0.26139 0.08405 0.90871 0.0
O55 O 0.26862 0.05675 0.90491 0.0
Mg56 Mg 0.91881 0.20016 0.9224 0.0
O57 O 0.90995 0.20431 0.97522 0.0
O58 O 0.89191 0.19424 0.96255 0.0
Mg59 Mg 0.88929 0.18403 0.90175 0.0
C60 C 0.9 0.20129 0.98502 0.0
C61 C 0.94282 0.21231 0.94514 0.0
O62 O 0.94054 0.20225 0.93603 0.0
O63 O 0.91582 0.2106 0.87385 0.0
O64 O 0.89782 0.19995 0.86185 0.0
O65 O 0.91723 0.18623 0.96259 0.0
O66 O 0.90502 0.18478 0.91418 0.0
C67 C 0.90699 0.20868 0.85467 0.0
C68 C 0.90779 0.18028 0.94421 0.0
O69 O 0.93519 0.21463 0.94244 0.0
Mg70 Mg 0.79403 0.71634 0.92754 0.0
O71 O 0.79046 0.70374 0.98153 0.0
O72 O 0.8001 0.6954 0.96727 0.0
Mg73 Mg 0.80953 0.7024 0.90436 0.0
C74 C 0.79345 0.69677 0.991 0.0
C75 C 0.77638 0.72285 0.92269 0.0
O76 O 0.7809 0.72545 0.88414 0.0
O77 O 0.78292 0.70261 0.88143 0.0
O78 O 0.79312 0.69483 0.8677 0.0
O79 O 0.80866 0.72898 0.96412 0.0
O80 O 0.80911 0.71761 0.91597 0.0
C81 C 0.78442 0.69542 0.86221 0.0
C82 C 0.81419 0.7252 0.94433 0.0
O83 O 0.77984 0.71846 0.94968 0.0
Mg84 Mg 0.922 0.72045 0.89085 0.0
O85 O 0.91162 0.70766 0.94197 0.0
O86 O 0.89387 0.70105 0.92673 0.0
Mg87 Mg 0.89302 0.70979 0.86567 0.0
C88 C 0.90146 0.70133 0.95032 0.0
C89 C 0.94553 0.72437 0.8905 0.0
O90 O 0.94525 0.72881 0.85348 0.0
O91 O 0.91813 0.70691 0.8419 0.0
O92 O 0.90052 0.70115 0.82711 0.0
O93 O 0.92144 0.73331 0.93134 0.0
O94 O 0.90942 0.72379 0.88009 0.0
C95 C 0.90927 0.70066 0.82147 0.0
C96 C 0.9124 0.7308 0.91119 0.0
O97 O 0.93698 0.71993 0.91395 0.0
Mg98 Mg 0.28659 0.20493 0.93934 0.0
O99 O 0.29927 0.20858 0.99322 0.0
O100 O 0.30673 0.19803 0.98053 0.0
Mg101 Mg 0.29897 0.1878 0.91995 0.0
C102 C 0.30593 0.20521 0.0031 0.0
C103 C 0.28047 0.2228 0.93028 0.0
O104 O 0.27695 0.21731 0.89387 0.0
O105 O 0.30035 0.21487 0.89135 0.0
O106 O 0.30697 0.2036 0.87952 0.0
O107 O 0.27347 0.19137 0.9787 0.0
O108 O 0.28439 0.18926 0.93313 0.0
C109 C 0.30697 0.21255 0.87225 0.0
C110 C 0.27683 0.1851 0.96226 0.0
O111 O 0.28541 0.21995 0.95716 0.0
Mg112 Mg 0.7955 0.07374 0.92194 0.0
O113 O 0.79363 0.08467 0.97209 0.0
O114 O 0.80563 0.10224 0.95722 0.0
Mg115 Mg 0.81487 0.10247 0.89593 0.0
C116 C 0.798 0.0949 0.98062 0.0
C117 C 0.77231 0.05255 0.9202 0.0
O118 O 0.77377 0.05436 0.8784 0.0
O119 O 0.78636 0.07813 0.87216 0.0
O120 O 0.79881 0.09558 0.85718 0.0
O121 O 0.80871 0.07388 0.96279 0.0
O122 O 0.8116 0.08577 0.91044 0.0
C123 C 0.78938 0.08705 0.85146 0.0
C124 C 0.81546 0.08267 0.9417 0.0
O125 O 0.77967 0.05916 0.9461 0.0
Mg126 Mg 0.71965 0.92548 0.09825 0.0
O127 O 0.70624 0.91451 0.04998 0.0
O128 O 0.70083 0.89693 0.06382 0.0
Mg129 Mg 0.71017 0.89671 0.12388 0.0
C130 C 0.70032 0.90429 0.04139 0.0
C131 C 0.72099 0.94821 0.09911 0.0
O132 O 0.72425 0.94802 0.13874 0.0
O133 O 0.70676 0.92152 0.15048 0.0
O134 O 0.7013 0.90383 0.16312 0.0
O135 O 0.73211 0.92496 0.05481 0.0
O136 O 0.72363 0.91331 0.10844 0.0
C137 C 0.70069 0.91247 0.17014 0.0
C138 C 0.73019 0.91621 0.07587 0.0
O139 O 0.71828 0.94 0.07465 0.0
Mg140 Mg 0.07217 0.7948 0.10513 0.0
O141 O 0.08173 0.79105 0.05437 0.0
O142 O 0.09967 0.80155 0.06783 0.0
Mg143 Mg 0.10147 0.81156 0.12864 0.0
C144 C 0.09175 0.79431 0.04521 0.0
C145 C 0.04821 0.78143 0.08033 0.0
O146 O 0.04954 0.79111 0.09034 0.0
O147 O 0.07519 0.78465 0.15469 0.0
O148 O 0.09311 0.79551 0.16794 0.0
O149 O 0.07373 0.80855 0.06381 0.0
O150 O 0.08555 0.81032 0.1148 0.0
C151 C 0.08397 0.78668 0.17446 0.0
C152 C 0.08292 0.81466 0.08372 0.0
O153 O 0.05638 0.77995 0.08325 0.0
Mg154 Mg 0.1979 0.2725 0.08801 0.0
O155 O 0.20131 0.28559 0.03625 0.0
O156 O 0.18985 0.29203 0.04748 0.0
Mg157 Mg 0.17986 0.2838 0.10808 0.0
C158 C 0.1975 0.29185 0.0259 0.0
C159 C 0.21222 0.26274 0.06567 0.0
O160 O 0.20255 0.25415 0.07384 0.0
O161 O 0.2073 0.28588 0.13804 0.0
O162 O 0.19589 0.29252 0.14726 0.0
O163 O 0.1846 0.25987 0.04604 0.0
O164 O 0.18207 0.26961 0.0962 0.0
C165 C 0.20484 0.29261 0.15543 0.0
C166 C 0.1781 0.26256 0.06527 0.0
O167 O 0.21332 0.27225 0.06842 0.0
Mg168 Mg 0.73675 0.61054 0.4328 0.0
O169 O 0.7471 0.62368 0.38242 0.0
O170 O 0.76483 0.62982 0.39651 0.0
Mg171 Mg 0.76573 0.62099 0.45709 0.0
C172 C 0.75728 0.62985 0.37365 0.0
C173 C 0.71345 0.60692 0.43669 0.0
O174 O 0.71444 0.60328 0.4746 0.0
O175 O 0.74067 0.6238 0.48299 0.0
O176 O 0.75835 0.62958 0.49682 0.0
O177 O 0.73722 0.59786 0.39092 0.0
O178 O 0.74932 0.60712 0.44226 0.0
C179 C 0.74958 0.63001 0.50324 0.0
C180 C 0.74627 0.60024 0.41068 0.0
O181 O 0.7216 0.61096 0.41111 0.0
Mg182 Mg 0.37643 0.12599 0.39201 0.0
O183 O 0.36389 0.12165 0.33694 0.0
O184 O 0.35538 0.13127 0.3483 0.0
Mg185 Mg 0.3623 0.14156 0.40927 0.0
C186 C 0.35682 0.12442 0.3262 0.0
C187 C 0.38295 0.10847 0.40377 0.0
O188 O 0.38519 0.11336 0.44162 0.0
O189 O 0.36263 0.11537 0.43875 0.0
O190 O 0.35482 0.12566 0.44927 0.0
O191 O 0.38918 0.14012 0.35376 0.0
O192 O 0.37762 0.14124 0.39901 0.0
C193 C 0.35544 0.11705 0.45684 0.0
C194 C 0.38533 0.14593 0.37072 0.0
O195 O 0.37875 0.1116 0.37465 0.0
Mg196 Mg 0.86691 0.25516 0.42709 0.0
O197 O 0.8706 0.24567 0.3757 0.0
O198 O 0.85992 0.22772 0.38877 0.0
Mg199 Mg 0.84982 0.22578 0.44939 0.0
C200 C 0.86722 0.23563 0.36629 0.0
C201 C 0.88019 0.27891 0.39782 0.0
O202 O 0.87016 0.27725 0.40141 0.0
O203 O 0.8769 0.25184 0.47673 0.0
O204 O 0.86574 0.23393 0.48925 0.0
O205 O 0.85317 0.25379 0.38585 0.0
O206 O 0.85131 0.24182 0.43614 0.0
C207 C 0.87464 0.24295 0.4963 0.0
C208 C 0.847 0.24456 0.40539 0.0
O209 O 0.88191 0.27106 0.40625 0.0
Mg210 Mg 0.9493 0.40984 0.2551 0.0
O211 O 0.96179 0.41987 0.30792 0.0
O212 O 0.96841 0.43768 0.29398 0.0
Mg213 Mg 0.96039 0.43899 0.23166 0.0
C214 C 0.96801 0.43 0.31735 0.0
C215 C 0.94553 0.38648 0.25093 0.0
O216 O 0.94271 0.38786 0.21192 0.0
O217 O 0.96318 0.41381 0.20765 0.0
O218 O 0.96925 0.43156 0.19409 0.0
O219 O 0.93605 0.41039 0.29335 0.0
O220 O 0.94627 0.42258 0.24377 0.0
C221 C 0.96966 0.42277 0.18821 0.0
C222 C 0.9388 0.41946 0.27307 0.0
O223 O 0.94911 0.39441 0.27755 0.0
Mg224 Mg 0.58393 0.5313 0.23742 0.0
O225 O 0.57411 0.53449 0.28901 0.0
O226 O 0.55625 0.52373 0.27475 0.0
Mg227 Mg 0.5547 0.514 0.21336 0.0
C228 C 0.56401 0.53095 0.29799 0.0
C229 C 0.60736 0.54441 0.26877 0.0
O230 O 0.60567 0.5344 0.26383 0.0
O231 O 0.58062 0.5414 0.18838 0.0
O232 O 0.56281 0.53011 0.17448 0.0
O233 O 0.58269 0.51746 0.27747 0.0
O234 O 0.5708 0.51564 0.22683 0.0
C235 C 0.57179 0.53912 0.16827 0.0
C236 C 0.57358 0.51126 0.25724 0.0
O237 O 0.59961 0.54627 0.26001 0.0
Mg238 Mg 0.46052 0.04994 0.26848 0.0
O239 O 0.45716 0.03735 0.32231 0.0
O240 O 0.46699 0.02923 0.30739 0.0
Mg241 Mg 0.47622 0.03625 0.24413 0.0
C242 C 0.46031 0.03049 0.33147 0.0
C243 C 0.44869 0.06191 0.29834 0.0
O244 O 0.45889 0.06983 0.29296 0.0
O245 O 0.44932 0.03616 0.2224 0.0
O246 O 0.45974 0.02863 0.20835 0.0
O247 O 0.47531 0.0626 0.30473 0.0
O248 O 0.4756 0.0513 0.25587 0.0
C249 C 0.45094 0.02906 0.20306 0.0
C250 C 0.48079 0.05887 0.28415 0.0
O251 O 0.44634 0.05206 0.29147 0.0
Mg252 Mg 0.59057 0.05496 0.23036 0.0
O253 O 0.58055 0.04128 0.27935 0.0
O254 O 0.56277 0.0337 0.26204 0.0
Mg255 Mg 0.56148 0.04262 0.20245 0.0
C256 C 0.57044 0.03431 0.2861 0.0
C257 C 0.61343 0.06495 0.26937 0.0
O258 O 0.61127 0.07303 0.27076 0.0
O259 O 0.58803 0.04221 0.17911 0.0
O260 O 0.57031 0.03551 0.16293 0.0
O261 O 0.58856 0.06676 0.27253 0.0
O262 O 0.57721 0.05716 0.21971 0.0
C263 C 0.57946 0.03578 0.15739 0.0
C264 C 0.57953 0.06383 0.25168 0.0
O265 O 0.60627 0.05577 0.25381 0.0
Mg266 Mg 0.93828 0.53066 0.23941 0.0
O267 O 0.95124 0.53522 0.29281 0.0
O268 O 0.95973 0.52557 0.28214 0.0
Mg269 Mg 0.95297 0.51569 0.2202 0.0
C270 C 0.9583 0.53249 0.30383 0.0
C271 C 0.92598 0.54237 0.26737 0.0
O272 O 0.91807 0.53212 0.26302 0.0
O273 O 0.95171 0.54162 0.19185 0.0
O274 O 0.96042 0.53205 0.1833 0.0
O275 O 0.92627 0.51628 0.27891 0.0
O276 O 0.93751 0.51569 0.23039 0.0
C277 C 0.95939 0.54042 0.17557 0.0
C278 C 0.93024 0.51079 0.26007 0.0
O279 O 0.93581 0.54475 0.25987 0.0
Mg280 Mg 0.45745 0.40929 0.23508 0.0
O281 O 0.4528 0.41771 0.28799 0.0
O282 O 0.46316 0.43587 0.27829 0.0
Mg283 Mg 0.47426 0.439 0.21988 0.0
C284 C 0.45577 0.42758 0.29893 0.0
C285 C 0.44189 0.38453 0.23292 0.0
O286 O 0.44967 0.38588 0.20584 0.0
O287 O 0.4479 0.4132 0.18554 0.0
O288 O 0.45897 0.43125 0.17665 0.0
O289 O 0.47051 0.40973 0.27757 0.0
O290 O 0.47303 0.42303 0.23256 0.0
C291 C 0.45023 0.42227 0.16744 0.0
C292 C 0.47681 0.41956 0.26296 0.0
O293 O 0.44242 0.39294 0.25049 0.0
Mg294 Mg 0.39361 0.25841 0.44139 0.0
O295 O 0.37999 0.24836 0.39251 0.0
O296 O 0.37351 0.2305 0.40484 0.0
Mg297 Mg 0.38261 0.22925 0.46396 0.0
C298 C 0.37355 0.23827 0.38322 0.0
C299 C 0.4017 0.28284 0.42824 0.0
O300 O 0.41004 0.28303 0.44825 0.0
O301 O 0.38079 0.25473 0.49348 0.0
O302 O 0.37464 0.23692 0.50575 0.0
O303 O 0.40562 0.2575 0.39677 0.0
O304 O 0.39669 0.24554 0.44896 0.0
C305 C 0.37452 0.24579 0.51346 0.0
C306 C 0.40314 0.24837 0.41605 0.0
O307 O 0.3932 0.27364 0.42068 0.0
Mg308 Mg 0.74386 0.12811 0.41932 0.0
O309 O 0.75435 0.12564 0.36874 0.0
O310 O 0.77204 0.13715 0.38366 0.0
Mg311 Mg 0.77278 0.14669 0.44471 0.0
C312 C 0.76455 0.12968 0.36025 0.0
C313 C 0.72089 0.10776 0.42329 0.0
O314 O 0.72217 0.1116 0.46288 0.0
O315 O 0.74777 0.11862 0.46912 0.0
O316 O 0.76535 0.13064 0.4839 0.0
O317 O 0.74439 0.14155 0.37867 0.0
O318 O 0.75633 0.14405 0.43018 0.0
C319 C 0.75663 0.12138 0.48984 0.0
C320 C 0.75331 0.14811 0.39941 0.0
O321 O 0.72875 0.1126 0.3966 0.0
Mg322 Mg 0.8639 0.61459 0.39627 0.0
O323 O 0.86865 0.6278 0.34378 0.0
O324 O 0.85999 0.6371 0.3594 0.0
Mg325 Mg 0.84933 0.62948 0.41916 0.0
C326 C 0.86647 0.63543 0.3358 0.0
C327 C 0.88119 0.60747 0.404 0.0
O328 O 0.87649 0.60484 0.44222 0.0
O329 O 0.87484 0.62763 0.44519 0.0
O330 O 0.86501 0.63575 0.45946 0.0
O331 O 0.84972 0.60261 0.35632 0.0
O332 O 0.84891 0.61396 0.40369 0.0
C333 C 0.87342 0.6347 0.46567 0.0
C334 C 0.84417 0.60668 0.3738 0.0
O335 O 0.87797 0.61201 0.37672 0.0
Mg336 Mg 0.40786 0.94395 0.77466 0.0
O337 O 0.41754 0.95731 0.7242 0.0
O338 O 0.43544 0.96464 0.73845 0.0
Mg339 Mg 0.43708 0.95626 0.7991 0.0
C340 C 0.42761 0.96405 0.71548 0.0
C341 C 0.38385 0.93352 0.75113 0.0
O342 O 0.38509 0.92516 0.76196 0.0
O343 O 0.41085 0.95703 0.82465 0.0
O344 O 0.42869 0.96384 0.83889 0.0
O345 O 0.40938 0.93177 0.73313 0.0
O346 O 0.42116 0.94168 0.78443 0.0
C347 C 0.41958 0.96361 0.84516 0.0
C348 C 0.41854 0.93476 0.75317 0.0
O349 O 0.39211 0.94314 0.75283 0.0
Mg350 Mg 0.05546 0.46438 0.75659 0.0
O351 O 0.04198 0.461 0.70712 0.0
O352 O 0.0354 0.47224 0.72069 0.0
Mg353 Mg 0.04434 0.48235 0.78048 0.0
C354 C 0.03553 0.46468 0.69829 0.0
C355 C 0.06261 0.44728 0.75264 0.0
O356 O 0.06928 0.45433 0.78148 0.0
O357 O 0.04253 0.455 0.80796 0.0
O358 O 0.03627 0.46653 0.82132 0.0
O359 O 0.06767 0.47752 0.7133 0.0
O360 O 0.05846 0.48024 0.76531 0.0
C361 C 0.0362 0.45752 0.82826 0.0
C362 C 0.06515 0.48408 0.73313 0.0
O363 O 0.05535 0.44892 0.73551 0.0
Mg364 Mg 0.53442 0.58826 0.73765 0.0
O365 O 0.53646 0.57764 0.68624 0.0
O366 O 0.52455 0.56002 0.70065 0.0
Mg367 Mg 0.51513 0.55939 0.76188 0.0
C368 C 0.53215 0.56743 0.67738 0.0
C369 C 0.55707 0.60985 0.74191 0.0
O370 O 0.55519 0.60782 0.78344 0.0
O371 O 0.54359 0.58371 0.78675 0.0
O372 O 0.53113 0.56623 0.80105 0.0
O373 O 0.52118 0.58833 0.69762 0.0
O374 O 0.51832 0.57608 0.74833 0.0
C375 C 0.54055 0.57474 0.8071 0.0
C376 C 0.51443 0.5794 0.71788 0.0
O377 O 0.55018 0.60314 0.71487 0.0
Mg378 Mg 0.60838 0.73922 0.57761 0.0
O379 O 0.62162 0.74977 0.62711 0.0
O380 O 0.62816 0.76751 0.61157 0.0
Mg381 Mg 0.61912 0.76821 0.55138 0.0
C382 C 0.62803 0.75996 0.63494 0.0
C383 C 0.60655 0.71626 0.57664 0.0
O384 O 0.60403 0.71685 0.53619 0.0
O385 O 0.62154 0.74276 0.52687 0.0
O386 O 0.62754 0.7605 0.51304 0.0
O387 O 0.59586 0.7402 0.61913 0.0
O388 O 0.60514 0.75186 0.56655 0.0
C389 C 0.62787 0.75168 0.50688 0.0
C390 C 0.59829 0.7491 0.5981 0.0
O391 O 0.60891 0.72428 0.60179 0.0
Mg392 Mg 0.25701 0.86813 0.56716 0.0
O393 O 0.24651 0.87057 0.6177 0.0
O394 O 0.22879 0.85965 0.60117 0.0
Mg395 Mg 0.22811 0.85026 0.53976 0.0
C396 C 0.23632 0.86681 0.6254 0.0
C397 C 0.28053 0.88769 0.56753 0.0
O398 O 0.28017 0.88312 0.53004 0.0
O399 O 0.25358 0.87806 0.51801 0.0
O400 O 0.23595 0.86655 0.50202 0.0
O401 O 0.25606 0.85454 0.60754 0.0
O402 O 0.24433 0.85232 0.5554 0.0
C403 C 0.24485 0.87571 0.49709 0.0
C404 C 0.24708 0.84816 0.58679 0.0
O405 O 0.27202 0.88348 0.59123 0.0
Mg406 Mg 0.13088 0.38637 0.5777 0.0
O407 O 0.1255 0.3725 0.62759 0.0
O408 O 0.13582 0.36467 0.61747 0.0
Mg409 Mg 0.14767 0.37348 0.56173 0.0
C410 C 0.12824 0.36536 0.63754 0.0
C411 C 0.11546 0.39579 0.57693 0.0
O412 O 0.12392 0.40314 0.55466 0.0
O413 O 0.12195 0.37374 0.52486 0.0
O414 O 0.13293 0.36668 0.51553 0.0
O415 O 0.14342 0.39822 0.62398 0.0
O416 O 0.14639 0.38807 0.57719 0.0
C417 C 0.12438 0.36721 0.50566 0.0
C418 C 0.1498 0.39477 0.60945 0.0
O419 O 0.11563 0.38742 0.59129 0.0
Mg420 Mg 0.251 0.38112 0.58898 0.0
O421 O 0.24167 0.36831 0.642 0.0
O422 O 0.22371 0.36171 0.6318 0.0
Mg423 Mg 0.22158 0.36988 0.57172 0.0
C424 C 0.23165 0.36201 0.65295 0.0
C425 C 0.2747 0.38631 0.58076 0.0
O426 O 0.27301 0.38996 0.5441 0.0
O427 O 0.24663 0.36751 0.53967 0.0
O428 O 0.22863 0.36119 0.53086 0.0
O429 O 0.25082 0.39414 0.62997 0.0
O430 O 0.23806 0.38406 0.58194 0.0
C431 C 0.2374 0.36094 0.52218 0.0
C432 C 0.24151 0.39143 0.61175 0.0
O433 O 0.26679 0.38153 0.60724 0.0
Mg434 Mg 0.61239 0.86736 0.59988 0.0
O435 O 0.62477 0.8705 0.65442 0.0
O436 O 0.63248 0.8602 0.64142 0.0
Mg437 Mg 0.6256 0.85108 0.57803 0.0
C438 C 0.63138 0.8671 0.66467 0.0
C439 C 0.6101 0.88807 0.59367 0.0
O440 O 0.61046 0.88591 0.55257 0.0
O441 O 0.62641 0.87814 0.55418 0.0
O442 O 0.6341 0.86773 0.54289 0.0
O443 O 0.59944 0.85293 0.63638 0.0
O444 O 0.61065 0.85207 0.58842 0.0
C445 C 0.63372 0.87652 0.53688 0.0
C446 C 0.60302 0.84718 0.61681 0.0
O447 O 0.61089 0.88195 0.62202 0.0
Mg448 Mg 0.12746 0.74455 0.59616 0.0
O449 O 0.12318 0.75286 0.65091 0.0
O450 O 0.13218 0.77092 0.63779 0.0
Mg451 Mg 0.14192 0.77411 0.57535 0.0
C452 C 0.12571 0.76267 0.66096 0.0
C453 C 0.1159 0.72011 0.61264 0.0
O454 O 0.12552 0.72244 0.59695 0.0
O455 O 0.11605 0.74679 0.55034 0.0
O456 O 0.12566 0.76486 0.53794 0.0
O457 O 0.14214 0.74688 0.63301 0.0
O458 O 0.14232 0.75886 0.58629 0.0
C459 C 0.11722 0.75541 0.53176 0.0
C460 C 0.14748 0.75641 0.61457 0.0
O461 O 0.11374 0.72781 0.61696 0.0
Mg462 Mg 0.04648 0.58428 0.74394 0.0
O463 O 0.03334 0.57636 0.69067 0.0
O464 O 0.02496 0.55817 0.70021 0.0
Mg465 Mg 0.03228 0.5545 0.759 0.0
C466 C 0.02619 0.56658 0.67958 0.0
C467 C 0.05658 0.60896 0.74907 0.0
O468 O 0.06204 0.60673 0.77797 0.0
O469 O 0.03324 0.5811 0.7936 0.0
O470 O 0.02521 0.56287 0.80136 0.0
O471 O 0.05866 0.58286 0.70208 0.0
O472 O 0.04757 0.57012 0.74821 0.0
C473 C 0.02603 0.5721 0.81084 0.0
C474 C 0.0549 0.57313 0.71829 0.0
O475 O 0.04887 0.60108 0.72836 0.0
Mg476 Mg 0.40765 0.46667 0.73993 0.0
O477 O 0.41549 0.46095 0.68857 0.0
O478 O 0.43369 0.47028 0.6985 0.0
Mg479 Mg 0.43742 0.48185 0.7559 0.0
C480 C 0.42518 0.46316 0.6781 0.0
C481 C 0.38291 0.45374 0.72093 0.0
O482 O 0.38464 0.46379 0.72547 0.0
O483 O 0.41062 0.45677 0.79097 0.0
O484 O 0.42877 0.4668 0.80028 0.0
O485 O 0.40921 0.47999 0.69583 0.0
O486 O 0.42203 0.48178 0.74197 0.0
C487 C 0.41944 0.45851 0.80963 0.0
C488 C 0.41909 0.48583 0.71079 0.0
O489 O 0.39093 0.45206 0.72513 0.0
Mg490 Mg 0.53756 0.94948 0.73521 0.0
O491 O 0.54024 0.96171 0.68097 0.0
O492 O 0.53068 0.97004 0.69727 0.0
Mg493 Mg 0.52168 0.96289 0.76096 0.0
C494 C 0.53711 0.96862 0.6724 0.0
C495 C 0.557 0.94517 0.73655 0.0
O496 O 0.55418 0.94387 0.77756 0.0
O497 O 0.54887 0.96352 0.78018 0.0
O498 O 0.5383 0.97077 0.79584 0.0
O499 O 0.52276 0.93653 0.70038 0.0
O500 O 0.52241 0.94785 0.7491 0.0
C501 C 0.54722 0.97052 0.8001 0.0
C502 C 0.51724 0.94018 0.72111 0.0
O503 O 0.5518 0.94781 0.71011 0.0
H504 H 0.10719 0.27478 0.09152 0.0
H505 H 0.1196 0.26855 0.06724 0.0
H506 H 0.09667 0.24901 0.96763 0.0
H507 H 0.0841 0.25547 0.99128 0.0
H508 H 0.10851 0.2401 0.04227 0.0
H509 H 0.13421 0.27465 0.93133 0.0
H510 H 0.12919 0.27815 0.97883 0.0
H511 H 0.11963 0.26937 0.93853 0.0
C512 C 0.10479 0.26929 0.06407 0.0
C513 C 0.09471 0.26574 0.04299 0.0
C514 C 0.11188 0.2657 0.05038 0.0
C515 C 0.10905 0.25841 0.01556 0.0
C516 C 0.09897 0.2547 0.99445 0.0
H517 H 0.16936 0.25508 0.9846 0.0
H518 H 0.15086 0.25036 0.95966 0.0
C519 C 0.09184 0.25838 0.00803 0.0
C520 C 0.11677 0.25469 0.00313 0.0
H521 H 0.1431 0.26597 0.9669 0.0
C522 C 0.11591 0.24547 0.02425 0.0
C523 C 0.12634 0.26166 0.97935 0.0
C524 C 0.12743 0.27149 0.95535 0.0
C525 C 0.12493 0.24379 0.02639 0.0
C526 C 0.13499 0.2516 0.00738 0.0
C527 C 0.13539 0.26002 0.98168 0.0
C528 C 0.14553 0.25279 0.02224 0.0
C529 C 0.12393 0.23422 0.05211 0.0
C530 C 0.1486 0.25574 0.06545 0.0
C531 C 0.1591 0.2586 0.0794 0.0
C532 C 0.16675 0.2585 0.05051 0.0
C533 C 0.16358 0.25515 0.00754 0.0
C534 C 0.15304 0.25245 0.9933 0.0
H535 H 0.11537 0.22719 0.05138 0.0
H536 H 0.12957 0.23146 0.03961 0.0
H537 H 0.12609 0.23675 0.08634 0.0
H538 H 0.143 0.2563 0.08805 0.0
H539 H 0.16132 0.26112 0.11272 0.0
H540 H 0.71554 0.82985 0.09117 0.0
H541 H 0.72061 0.84846 0.07001 0.0
H542 H 0.74392 0.84896 0.97818 0.0
H543 H 0.73864 0.83003 0.99838 0.0
H544 H 0.75125 0.86779 0.04537 0.0
H545 H 0.71476 0.85907 0.94717 0.0
H546 H 0.71164 0.85099 0.99569 0.0
H547 H 0.71951 0.84932 0.95362 0.0
C548 C 0.72159 0.83377 0.06592 0.0
C549 C 0.72657 0.82837 0.04606 0.0
C550 C 0.72449 0.84443 0.05392 0.0
C551 C 0.73251 0.84997 0.02217 0.0
C552 C 0.73762 0.84473 0.00243 0.0
H553 H 0.73565 0.91362 0.99324 0.0
H554 H 0.73959 0.89933 0.96804 0.0
C555 C 0.73461 0.83394 0.01408 0.0
C556 C 0.73577 0.86147 0.01221 0.0
H557 H 0.72413 0.87671 0.9827 0.0
C558 C 0.74553 0.86984 0.03033 0.0
C559 C 0.72837 0.8641 0.99209 0.0
C560 C 0.71801 0.85541 0.97063 0.0
C561 C 0.74747 0.88064 0.03297 0.0
C562 C 0.73941 0.88299 0.01738 0.0
C563 C 0.73028 0.87488 0.9949 0.0
C564 C 0.73904 0.89281 0.03195 0.0
C565 C 0.75775 0.88926 0.05507 0.0
C566 C 0.73748 0.89387 0.07609 0.0
C567 C 0.73507 0.90182 0.09031 0.0
C568 C 0.73424 0.90894 0.06072 0.0
C569 C 0.73633 0.90827 0.0167 0.0
C570 C 0.73858 0.90014 0.00231 0.0
H571 H 0.76457 0.88748 0.05128 0.0
H572 H 0.76039 0.89758 0.04202 0.0
H573 H 0.75611 0.88926 0.09017 0.0
H574 H 0.73754 0.88814 0.09938 0.0
H575 H 0.73351 0.90217 0.12441 0.0
H576 H 0.09965 0.83053 0.13011 0.0
H577 H 0.11333 0.84887 0.10635 0.0
H578 H 0.09762 0.84283 0.98164 0.0
H579 H 0.08369 0.82429 0.00553 0.0
H580 H 0.12105 0.85039 0.98148 0.0
H581 H 0.11139 0.8769 0.08228 0.0
H582 H 0.11091 0.86582 0.11295 0.0
H583 H 0.10132 0.86283 0.06939 0.0
C584 C 0.099 0.83312 0.09777 0.0
C585 C 0.09064 0.82598 0.06961 0.0
C586 C 0.10677 0.84364 0.08438 0.0
C587 C 0.10636 0.84725 0.04253 0.0
C588 C 0.09795 0.84021 0.01427 0.0
H589 H 0.16975 0.908 0.98836 0.0
H590 H 0.15028 0.89491 0.97277 0.0
C591 C 0.09004 0.82966 0.02793 0.0
C592 C 0.11549 0.85795 0.02802 0.0
H593 H 0.13084 0.88416 0.06534 0.0
C594 C 0.12303 0.85793 0.99834 0.0
C595 C 0.118 0.86776 0.04986 0.0
C596 C 0.10991 0.86837 0.08008 0.0
C597 C 0.13357 0.86714 0.99395 0.0
C598 C 0.1365 0.87648 0.01979 0.0
C599 C 0.12855 0.87692 0.04575 0.0
C600 C 0.14812 0.88457 0.02794 0.0
C601 C 0.14188 0.86648 0.96521 0.0
C602 C 0.1532 0.88301 0.06401 0.0
C603 C 0.1642 0.89036 0.07289 0.0
C604 C 0.17034 0.89944 0.04585 0.0
C605 C 0.16521 0.90105 0.00972 0.0
C606 C 0.15414 0.89362 0.00075 0.0
H607 H 0.13801 0.85919 0.94359 0.0
H608 H 0.14622 0.87402 0.94516 0.0
H609 H 0.14812 0.86597 0.98556 0.0
H610 H 0.14864 0.87605 0.08532 0.0
H611 H 0.16784 0.88894 0.10122 0.0
H612 H 0.252 0.08383 0.98677 0.0
H613 H 0.24852 0.0981 0.01567 0.0
H614 H 0.26064 0.11645 0.89709 0.0
H615 H 0.26403 0.10233 0.86813 0.0
H616 H 0.26454 0.11971 0.02873 0.0
H617 H 0.23304 0.11826 0.91874 0.0
H618 H 0.23553 0.10688 0.92444 0.0
H619 H 0.24378 0.11807 0.88817 0.0
C620 C 0.25373 0.09083 0.96667 0.0
C621 C 0.25835 0.09202 0.92528 0.0
C622 C 0.25172 0.09894 0.98319 0.0
C623 C 0.25412 0.10822 0.95821 0.0
C624 C 0.25845 0.10923 0.91651 0.0
H625 H 0.2873 0.17324 0.96519 0.0
H626 H 0.27929 0.15374 0.97926 0.0
C627 C 0.26052 0.10121 0.90018 0.0
C628 C 0.25345 0.11758 0.97662 0.0
H629 H 0.24655 0.13662 0.94591 0.0
C630 C 0.2603 0.12325 0.01162 0.0
C631 C 0.2477 0.12207 0.95518 0.0
C632 C 0.2395 0.11591 0.91986 0.0
C633 C 0.26264 0.13392 0.02205 0.0
C634 C 0.25813 0.13901 0.99635 0.0
C635 C 0.25018 0.1328 0.96511 0.0
C636 C 0.26313 0.1511 0.99498 0.0
C637 C 0.27047 0.13989 0.05863 0.0
C638 C 0.25671 0.15615 0.99891 0.0
C639 C 0.26131 0.1674 0.99033 0.0
C640 C 0.27231 0.17364 0.97677 0.0
C641 C 0.27877 0.16863 0.97455 0.0
C642 C 0.27423 0.15749 0.98346 0.0
H643 H 0.26963 0.13406 0.08463 0.0
H644 H 0.27903 0.14381 0.0464 0.0
H645 H 0.26905 0.14635 0.0726 0.0
H646 H 0.24808 0.15134 0.00725 0.0
H647 H 0.25615 0.17108 0.99227 0.0
H648 H 0.83236 0.09673 0.89137 0.0
H649 H 0.85089 0.11018 0.91396 0.0
H650 H 0.84315 0.09833 0.04515 0.0
H651 H 0.82442 0.08461 0.02236 0.0
H652 H 0.8511 0.12123 0.03403 0.0
H653 H 0.87847 0.10933 0.95228 0.0
H654 H 0.86787 0.1081 0.91649 0.0
H655 H 0.86423 0.09958 0.96406 0.0
C656 C 0.83466 0.09681 0.92487 0.0
C657 C 0.82697 0.08967 0.95517 0.0
C658 C 0.84528 0.10443 0.93767 0.0
C659 C 0.84844 0.10513 0.98108 0.0
C660 C 0.84089 0.09779 0.01138 0.0
H661 H 0.91009 0.16906 0.01246 0.0
H662 H 0.89712 0.15007 0.03504 0.0
C663 C 0.83024 0.08999 0.99836 0.0
C664 C 0.85904 0.1146 0.99455 0.0
H665 H 0.88548 0.12921 0.95864 0.0
C666 C 0.85876 0.12284 0.01919 0.0
C667 C 0.86904 0.11667 0.97543 0.0
C668 C 0.86995 0.10788 0.95096 0.0
C669 C 0.86786 0.1335 0.02056 0.0
C670 C 0.87738 0.13587 0.99686 0.0
C671 C 0.8781 0.12735 0.97655 0.0
C672 C 0.88536 0.14726 0.9846 0.0
C673 C 0.86691 0.14244 0.04363 0.0
C674 C 0.88298 0.15181 0.94878 0.0
C675 C 0.8903 0.16251 0.93576 0.0
C676 C 0.90014 0.16892 0.95848 0.0
C677 C 0.90255 0.16432 0.9944 0.0
C678 C 0.89519 0.15352 0.00736 0.0
H679 H 0.85997 0.13902 0.06696 0.0
H680 H 0.87465 0.14796 0.06111 0.0
H681 H 0.86552 0.14747 0.01948 0.0
H682 H 0.87544 0.14702 0.93075 0.0
H683 H 0.88826 0.16571 0.90762 0.0
H684 H 0.82795 0.72012 0.90171 0.0
H685 H 0.84713 0.72635 0.91737 0.0
H686 H 0.84633 0.74551 0.02462 0.0
H687 H 0.82684 0.73917 0.00942 0.0
H688 H 0.86525 0.75343 0.9352 0.0
H689 H 0.85848 0.72111 0.05516 0.0
H690 H 0.84848 0.71742 0.01258 0.0
H691 H 0.84985 0.72726 0.0526 0.0
C692 C 0.83175 0.72557 0.92893 0.0
C693 C 0.82583 0.72907 0.95459 0.0
C694 C 0.84274 0.72916 0.93766 0.0
C695 C 0.84806 0.73634 0.97211 0.0
C696 C 0.84228 0.73994 0.99791 0.0
H697 H 0.91191 0.73941 0.99026 0.0
H698 H 0.89834 0.74438 0.01531 0.0
C699 C 0.8312 0.73632 0.98918 0.0
C700 C 0.85972 0.73991 0.97974 0.0
H701 H 0.87523 0.72906 0.01517 0.0
C702 C 0.86759 0.7484 0.95398 0.0
C703 C 0.86271 0.73338 0.00449 0.0
C704 C 0.85448 0.7243 0.03308 0.0
C705 C 0.87812 0.74979 0.9489 0.0
C706 C 0.88068 0.74237 0.96957 0.0
C707 C 0.87322 0.7347 0.99916 0.0
C708 C 0.88979 0.74086 0.95411 0.0
C709 C 0.88614 0.75864 0.91895 0.0
C710 C 0.88941 0.73722 0.9116 0.0
C711 C 0.89698 0.73426 0.89752 0.0
C712 C 0.90511 0.73491 0.92564 0.0
C713 C 0.90574 0.73889 0.96787 0.0
C714 C 0.89803 0.74174 0.98219 0.0
H715 H 0.88473 0.76574 0.91821 0.0
H716 H 0.89476 0.76155 0.9288 0.0
H717 H 0.88495 0.75529 0.88565 0.0
H718 H 0.88296 0.73624 0.88971 0.0
H719 H 0.89631 0.73125 0.86479 0.0
H720 H 0.82949 0.58749 0.33403 0.0
H721 H 0.8102 0.58129 0.31627 0.0
H722 H 0.81431 0.61202 0.36328 0.0
H723 H 0.83332 0.61817 0.38089 0.0
H724 H 0.79456 0.57923 0.37899 0.0
H725 H 0.79763 0.60752 0.24916 0.0
H726 H 0.80863 0.60479 0.26136 0.0
H727 H 0.8071 0.61486 0.29196 0.0
C728 C 0.8263 0.59297 0.33985 0.0
C729 C 0.83291 0.60329 0.3593 0.0
C730 C 0.81531 0.58942 0.32964 0.0
C731 C 0.8109 0.59627 0.3378 0.0
C732 C 0.81761 0.60669 0.35585 0.0
H733 H 0.76278 0.60001 0.45496 0.0
H734 H 0.7761 0.5952 0.42794 0.0
C735 C 0.82848 0.61016 0.36651 0.0
C736 C 0.79904 0.5923 0.3329 0.0
H737 H 0.78217 0.60176 0.29945 0.0
C738 C 0.79172 0.58388 0.36041 0.0
C739 C 0.79526 0.59819 0.30799 0.0
C740 C 0.80256 0.60676 0.27559 0.0
C741 C 0.78112 0.58214 0.3677 0.0
C742 C 0.7779 0.58909 0.3473 0.0
C743 C 0.78472 0.59655 0.31567 0.0
C744 C 0.76877 0.59036 0.36437 0.0
C745 C 0.77374 0.57341 0.39946 0.0
C746 C 0.76025 0.58931 0.33746 0.0
C747 C 0.75259 0.59209 0.35294 0.0
C748 C 0.75351 0.59617 0.39519 0.0
C749 C 0.76189 0.59694 0.42222 0.0
C750 C 0.76943 0.59407 0.40696 0.0
H751 H 0.77537 0.56644 0.39947 0.0
H752 H 0.77543 0.57696 0.43251 0.0
H753 H 0.76493 0.57024 0.39196 0.0
H754 H 0.75971 0.58662 0.30429 0.0
H755 H 0.74623 0.59146 0.33138 0.0
H756 H 0.37776 0.15947 0.39692 0.0
H757 H 0.38498 0.17867 0.37899 0.0
H758 H 0.40996 0.17827 0.2994 0.0
H759 H 0.40252 0.15871 0.3164 0.0
H760 H 0.41726 0.19557 0.36682 0.0
H761 H 0.38445 0.19373 0.26236 0.0
H762 H 0.37912 0.18484 0.30853 0.0
H763 H 0.38688 0.18231 0.26845 0.0
C764 C 0.38461 0.1633 0.3748 0.0
C765 C 0.38946 0.15748 0.35772 0.0
C766 C 0.38873 0.17432 0.36452 0.0
C767 C 0.39787 0.17981 0.33729 0.0
C768 C 0.40279 0.1741 0.32 0.0
H769 H 0.40879 0.24688 0.33246 0.0
H770 H 0.41117 0.23207 0.30167 0.0
C771 C 0.39854 0.16295 0.32982 0.0
C772 C 0.40264 0.19176 0.33094 0.0
H773 H 0.39432 0.21012 0.30679 0.0
C774 C 0.41248 0.19886 0.35236 0.0
C775 C 0.39649 0.19604 0.31142 0.0
C776 C 0.3862 0.18884 0.28598 0.0
C777 C 0.41561 0.20992 0.35915 0.0
C778 C 0.40868 0.21384 0.34446 0.0
C779 C 0.39958 0.20707 0.31851 0.0
C780 C 0.4093 0.22385 0.36286 0.0
C781 C 0.42591 0.2171 0.38459 0.0
C782 C 0.40754 0.22414 0.40735 0.0
C783 C 0.40603 0.23243 0.42475 0.0
C784 C 0.4063 0.24063 0.39804 0.0
C785 C 0.40861 0.24068 0.35379 0.0
C786 C 0.40998 0.23225 0.33619 0.0
H787 H 0.43214 0.21454 0.37956 0.0
H788 H 0.42954 0.22588 0.37542 0.0
H789 H 0.42389 0.21627 0.41957 0.0
H790 H 0.40671 0.2176 0.42837 0.0
H791 H 0.40428 0.2322 0.45897 0.0
H792 H 0.83147 0.22706 0.44975 0.0
H793 H 0.81294 0.21379 0.42666 0.0
H794 H 0.81798 0.23139 0.30688 0.0
H795 H 0.83678 0.24488 0.32993 0.0
H796 H 0.79512 0.2188 0.39512 0.0
H797 H 0.80866 0.19767 0.27844 0.0
H798 H 0.81767 0.20567 0.32198 0.0
H799 H 0.81489 0.21245 0.27885 0.0
C800 C 0.82869 0.22816 0.41848 0.0
C801 C 0.83561 0.23695 0.39147 0.0
C802 C 0.81806 0.2206 0.40547 0.0
C803 C 0.81414 0.22163 0.36513 0.0
C804 C 0.82091 0.23049 0.33814 0.0
H805 H 0.75393 0.15799 0.32186 0.0
H806 H 0.76667 0.17724 0.30153 0.0
C807 C 0.8316 0.23817 0.35136 0.0
C808 C 0.80308 0.21296 0.35185 0.0
H809 H 0.79085 0.18731 0.30771 0.0
C810 C 0.79404 0.21207 0.37463 0.0
C811 C 0.80172 0.20426 0.32483 0.0
C812 C 0.81121 0.20497 0.29941 0.0
C813 C 0.78397 0.20221 0.3748 0.0
C814 C 0.78303 0.19305 0.35215 0.0
C815 C 0.79164 0.19436 0.32521 0.0
C816 C 0.77456 0.18177 0.36412 0.0
C817 C 0.7747 0.20136 0.40217 0.0
C818 C 0.77491 0.17801 0.40573 0.0
C819 C 0.76786 0.16711 0.41707 0.0
C820 C 0.76026 0.15974 0.3871 0.0
C821 C 0.7597 0.16354 0.34561 0.0
C822 C 0.76693 0.17449 0.33399 0.0
H823 H 0.77518 0.20947 0.40523 0.0
H824 H 0.76659 0.19534 0.38837 0.0
H825 H 0.77531 0.19858 0.43512 0.0
H826 H 0.78089 0.18346 0.42915 0.0
H827 H 0.76845 0.16443 0.44931 0.0
H828 H 0.91925 0.4997 0.33357 0.0
H829 H 0.91512 0.4812 0.35613 0.0
H830 H 0.93028 0.47824 0.23961 0.0
H831 H 0.93438 0.49648 0.21697 0.0
H832 H 0.90771 0.45915 0.26593 0.0
H833 H 0.94072 0.47408 0.39085 0.0
H834 H 0.93136 0.47935 0.3882 0.0
H835 H 0.94166 0.48306 0.3473 0.0
C836 C 0.92163 0.49505 0.31275 0.0
C837 C 0.92722 0.49956 0.27369 0.0
C838 C 0.91928 0.48453 0.3257 0.0
C839 C 0.92243 0.47843 0.29949 0.0
C840 C 0.92778 0.48285 0.26019 0.0
H841 H 0.93906 0.43544 0.22353 0.0
H842 H 0.93179 0.44747 0.24091 0.0
C843 C 0.93018 0.4933 0.24745 0.0
C844 C 0.92066 0.46756 0.3125 0.0
H845 H 0.93466 0.4565 0.3613 0.0
C846 C 0.91329 0.45841 0.28806 0.0
C847 C 0.92791 0.46664 0.34157 0.0
C848 C 0.93589 0.47627 0.36869 0.0
C849 C 0.91379 0.4487 0.28861 0.0
C850 C 0.92194 0.44825 0.31379 0.0
C851 C 0.92845 0.45692 0.34195 0.0
C852 C 0.92551 0.44025 0.30367 0.0
C853 C 0.90626 0.43934 0.25946 0.0
C854 C 0.92446 0.43227 0.33353 0.0
C855 C 0.92858 0.42527 0.3235 0.0
C856 C 0.93399 0.42639 0.28395 0.0
C857 C 0.93499 0.43441 0.25434 0.0
C858 C 0.93076 0.44124 0.26407 0.0
H859 H 0.89853 0.43944 0.25296 0.0
H860 H 0.91043 0.44018 0.22806 0.0
H861 H 0.90421 0.4313 0.27389 0.0
H862 H 0.92053 0.4315 0.36447 0.0
H863 H 0.92774 0.41917 0.34694 0.0
H864 H 0.57364 0.501 0.33276 0.0
H865 H 0.56026 0.4821 0.3548 0.0
H866 H 0.54352 0.47693 0.23276 0.0
H867 H 0.5567 0.49558 0.21074 0.0
H868 H 0.53756 0.47392 0.36222 0.0
H869 H 0.54538 0.44892 0.24606 0.0
H870 H 0.55554 0.46299 0.25859 0.0
H871 H 0.54507 0.46001 0.21866 0.0
C872 C 0.56719 0.49574 0.31049 0.0
C873 C 0.56616 0.49976 0.27012 0.0
C874 C 0.55959 0.48497 0.32307 0.0
C875 C 0.55105 0.47806 0.29504 0.0
C876 C 0.55021 0.48203 0.25444 0.0
H877 H 0.48698 0.44169 0.27428 0.0
H878 H 0.50573 0.4539 0.29741 0.0
C879 C 0.55768 0.49275 0.2421 0.0
C880 C 0.54216 0.46715 0.309 0.0
H881 H 0.52602 0.44162 0.26665 0.0
C882 C 0.5352 0.4667 0.34242 0.0
C883 C 0.53921 0.45765 0.28404 0.0
C884 C 0.54679 0.45739 0.25016 0.0
C885 C 0.52472 0.45748 0.34755 0.0
C886 C 0.52114 0.44864 0.31811 0.0
C887 C 0.52867 0.4485 0.2887 0.0
C888 C 0.50932 0.44088 0.31079 0.0
C889 C 0.51728 0.45761 0.38239 0.0
C890 C 0.50508 0.42947 0.31024 0.0
C891 C 0.49428 0.42243 0.29636 0.0
C892 C 0.48773 0.42676 0.28192 0.0
C893 C 0.4919 0.43813 0.28401 0.0
C894 C 0.50258 0.44511 0.29818 0.0
H895 H 0.52212 0.46215 0.41128 0.0
H896 H 0.51303 0.46193 0.37017 0.0
H897 H 0.511 0.44916 0.39222 0.0
H898 H 0.5102 0.42606 0.31932 0.0
H899 H 0.49123 0.41367 0.29512 0.0
H900 H 0.56262 0.06269 0.20538 0.0
H901 H 0.54892 0.06735 0.22903 0.0
H902 H 0.56476 0.07729 0.3534 0.0
H903 H 0.57867 0.07266 0.32972 0.0
H904 H 0.54131 0.06169 0.35444 0.0
H905 H 0.55136 0.09762 0.25133 0.0
H906 H 0.55146 0.08672 0.22141 0.0
H907 H 0.56127 0.0934 0.26423 0.0
C908 C 0.56327 0.06596 0.23764 0.0
C909 C 0.57169 0.06728 0.26575 0.0
C910 C 0.5555 0.06872 0.25097 0.0
C911 C 0.55596 0.07284 0.29267 0.0
C912 C 0.56438 0.07426 0.32089 0.0
H913 H 0.49345 0.07179 0.35164 0.0
H914 H 0.51292 0.0778 0.36573 0.0
C915 C 0.57228 0.0716 0.30734 0.0
C916 C 0.54694 0.07462 0.30703 0.0
H917 H 0.532 0.086 0.27035 0.0
C918 C 0.53944 0.06731 0.33745 0.0
C919 C 0.54458 0.08201 0.28503 0.0
C920 C 0.55266 0.09046 0.25399 0.0
C921 C 0.52907 0.06634 0.34262 0.0
C922 C 0.52626 0.07286 0.31684 0.0
C923 C 0.5342 0.08098 0.28996 0.0
C924 C 0.51467 0.06963 0.30959 0.0
C925 C 0.52076 0.05762 0.37222 0.0
C926 C 0.50936 0.06313 0.27348 0.0
C927 C 0.49838 0.05969 0.26549 0.0
C928 C 0.49245 0.0627 0.29347 0.0
C929 C 0.49781 0.06933 0.32959 0.0
C930 C 0.50889 0.07276 0.33769 0.0
H931 H 0.52453 0.05399 0.39328 0.0
H932 H 0.51683 0.06114 0.39288 0.0
H933 H 0.5142 0.05095 0.35255 0.0
H934 H 0.51374 0.06066 0.25146 0.0
H935 H 0.49456 0.05472 0.2371 0.0
H936 H 0.41915 0.92571 0.67525 0.0
H937 H 0.43294 0.9209 0.65147 0.0
H938 H 0.44888 0.93082 0.77567 0.0
H939 H 0.43533 0.93566 0.79935 0.0
H940 H 0.45637 0.93646 0.65012 0.0
H941 H 0.44655 0.90065 0.75342 0.0
H942 H 0.43659 0.9048 0.74062 0.0
H943 H 0.44639 0.91149 0.78347 0.0
C944 C 0.42553 0.92671 0.69757 0.0
C945 C 0.42621 0.93109 0.73909 0.0
C946 C 0.43336 0.92395 0.68397 0.0
C947 C 0.44179 0.92533 0.71211 0.0
C948 C 0.4423 0.92948 0.7538 0.0
H949 H 0.50334 0.94422 0.76798 0.0
H950 H 0.48409 0.93801 0.75363 0.0
C951 C 0.43461 0.93234 0.76714 0.0
C952 C 0.45081 0.92357 0.69765 0.0
H953 H 0.46597 0.91249 0.73506 0.0
C954 C 0.4583 0.93091 0.66726 0.0
C955 C 0.45326 0.91627 0.71987 0.0
C956 C 0.4452 0.90777 0.75085 0.0
C957 C 0.46873 0.93201 0.6624 0.0
C958 C 0.47162 0.9256 0.68847 0.0
C959 C 0.46371 0.91743 0.71527 0.0
C960 C 0.48324 0.92896 0.69588 0.0
C961 C 0.47701 0.94076 0.63281 0.0
C962 C 0.48909 0.92586 0.66802 0.0
C963 C 0.50019 0.92943 0.67612 0.0
C964 C 0.50552 0.93618 0.71201 0.0
C965 C 0.49954 0.93915 0.7398 0.0
C966 C 0.48852 0.93557 0.73181 0.0
H967 H 0.47318 0.94429 0.61152 0.0
H968 H 0.4835 0.94749 0.65248 0.0
H969 H 0.48104 0.93731 0.61237 0.0
H970 H 0.48509 0.92074 0.64013 0.0
H971 H 0.50461 0.927 0.6542 0.0
H972 H 0.07059 0.5771 0.65684 0.0
H973 H 0.07701 0.56453 0.6333 0.0
H974 H 0.05388 0.53968 0.71986 0.0
H975 H 0.04773 0.55211 0.74442 0.0
H976 H 0.08471 0.55292 0.69998 0.0
H977 H 0.05022 0.52517 0.5933 0.0
H978 H 0.05422 0.53944 0.60173 0.0
H979 H 0.04601 0.52926 0.64138 0.0
C980 C 0.06682 0.56892 0.67056 0.0
C981 C 0.05854 0.56557 0.70218 0.0
C982 C 0.07049 0.56178 0.657 0.0
C983 C 0.06576 0.55116 0.67438 0.0
C984 C 0.05746 0.5478 0.70553 0.0
H985 H 0.0667 0.50112 0.7793 0.0
H986 H 0.07065 0.51903 0.75246 0.0
C987 C 0.05394 0.55493 0.71948 0.0
C988 C 0.06981 0.54361 0.66336 0.0
H989 H 0.05937 0.517 0.632 0.0
C990 C 0.07943 0.54521 0.68361 0.0
C991 C 0.06298 0.53364 0.64156 0.0
C992 C 0.05282 0.53178 0.61786 0.0
C993 C 0.08165 0.53655 0.68716 0.0
C994 C 0.07401 0.52613 0.6703 0.0
C995 C 0.06517 0.52498 0.64527 0.0
C996 C 0.07354 0.51601 0.68643 0.0
C997 C 0.09165 0.53836 0.71196 0.0
C998 C 0.07386 0.50837 0.65814 0.0
C999 C 0.07165 0.49808 0.67359 0.0
C1000 C 0.06883 0.49527 0.71722 0.0
C1001 C 0.06882 0.50307 0.74551 0.0
C1002 C 0.07119 0.51334 0.73029 0.0
H1003 H 0.09838 0.54704 0.70932 0.0
H1004 H 0.08949 0.53658 0.74668 0.0
H1005 H 0.09466 0.53287 0.70019 0.0
H1006 H 0.07549 0.51023 0.62405 0.0
H1007 H 0.07165 0.49218 0.6511 0.0
H1008 H 0.41466 0.50118 0.6771 0.0
H1009 H 0.4281 0.51988 0.65306 0.0
H1010 H 0.45437 0.51312 0.67767 0.0
H1011 H 0.44112 0.49463 0.70058 0.0
H1012 H 0.44397 0.53511 0.70609 0.0
H1013 H 0.46408 0.52941 0.56399 0.0
H1014 H 0.45072 0.51886 0.58252 0.0
H1015 H 0.46307 0.52011 0.60574 0.0
C1016 C 0.4233 0.50366 0.67644 0.0
C1017 C 0.42689 0.49655 0.6916 0.0
C1018 C 0.43094 0.51431 0.66268 0.0
C1019 C 0.44222 0.51784 0.66297 0.0
C1020 C 0.44571 0.51052 0.67624 0.0
H1021 H 0.49792 0.56347 0.76492 0.0
H1022 H 0.47909 0.55111 0.74245 0.0
C1023 C 0.43812 0.49999 0.69028 0.0
C1024 C 0.4506 0.5295 0.65577 0.0
H1025 H 0.47627 0.54463 0.61303 0.0
C1026 C 0.45087 0.53734 0.68458 0.0
C1027 C 0.45949 0.53252 0.62702 0.0
C1028 C 0.45925 0.52478 0.59276 0.0
C1029 C 0.46039 0.54761 0.68933 0.0
C1030 C 0.46985 0.54997 0.66512 0.0
C1031 C 0.46908 0.54273 0.63228 0.0
C1032 C 0.48093 0.55849 0.67932 0.0
C1033 C 0.4605 0.55553 0.72249 0.0
C1034 C 0.48829 0.5667 0.65104 0.0
C1035 C 0.49917 0.57382 0.6639 0.0
C1036 C 0.50283 0.57265 0.70481 0.0
C1037 C 0.49536 0.56454 0.73314 0.0
C1038 C 0.48455 0.55755 0.72051 0.0
H1039 H 0.45223 0.55468 0.72565 0.0
H1040 H 0.46275 0.55364 0.75446 0.0
H1041 H 0.46655 0.56417 0.714 0.0
H1042 H 0.48569 0.56744 0.61887 0.0
H1043 H 0.50478 0.57998 0.64138 0.0
H1044 H 0.58996 0.83523 0.68523 0.0
H1045 H 0.58376 0.81588 0.70269 0.0
H1046 H 0.60077 0.81372 0.59048 0.0
H1047 H 0.60691 0.8328 0.57277 0.0
H1048 H 0.57488 0.79571 0.61329 0.0
H1049 H 0.60802 0.80443 0.73222 0.0
H1050 H 0.60125 0.81248 0.72988 0.0
H1051 H 0.61096 0.81411 0.68888 0.0
C1052 C 0.59234 0.8306 0.66431 0.0
C1053 C 0.599 0.83556 0.62783 0.0
C1054 C 0.5888 0.81959 0.67433 0.0
C1055 C 0.59185 0.81347 0.64782 0.0
C1056 C 0.59837 0.81837 0.61128 0.0
H1057 H 0.59752 0.76468 0.54939 0.0
H1058 H 0.59242 0.77811 0.57204 0.0
C1059 C 0.60191 0.82929 0.60137 0.0
C1060 C 0.58855 0.80195 0.65734 0.0
H1061 H 0.59992 0.7872 0.69622 0.0
C1062 C 0.58006 0.7937 0.63272 0.0
C1063 C 0.59528 0.79938 0.68294 0.0
C1064 C 0.60439 0.80802 0.71027 0.0
C1065 C 0.57884 0.7832 0.62968 0.0
C1066 C 0.58644 0.78104 0.65116 0.0
C1067 C 0.59413 0.7889 0.6796 0.0
C1068 C 0.58811 0.7719 0.6374 0.0
C1069 C 0.56997 0.77477 0.60096 0.0
C1070 C 0.58747 0.76399 0.66682 0.0
C1071 C 0.59037 0.75622 0.65381 0.0
C1072 C 0.59419 0.75648 0.61156 0.0
C1073 C 0.59464 0.7643 0.58218 0.0
C1074 C 0.59162 0.77192 0.59496 0.0
H1075 H 0.56275 0.776 0.59975 0.0
H1076 H 0.5732 0.77566 0.56756 0.0
H1077 H 0.56724 0.76628 0.61228 0.0
H1078 H 0.58493 0.76397 0.6999 0.0
H1079 H 0.59001 0.7503 0.67714 0.0
H1080 H 0.16069 0.75387 0.67344 0.0
H1081 H 0.18 0.76715 0.69049 0.0
H1082 H 0.17934 0.79007 0.59964 0.0
H1083 H 0.16038 0.77692 0.58156 0.0
H1084 H 0.19813 0.77877 0.6143 0.0
H1085 H 0.19162 0.80577 0.72677 0.0
H1086 H 0.18194 0.79122 0.72129 0.0
H1087 H 0.1824 0.80072 0.68131 0.0
C1088 C 0.16466 0.76177 0.65731 0.0
C1089 C 0.15895 0.76439 0.62647 0.0
C1090 C 0.17565 0.76931 0.66714 0.0
C1091 C 0.18096 0.77958 0.64664 0.0
C1092 C 0.17528 0.78221 0.61616 0.0
H1093 H 0.23129 0.83166 0.53921 0.0
H1094 H 0.21735 0.81352 0.56412 0.0
C1095 C 0.16441 0.77468 0.60599 0.0
C1096 C 0.19263 0.78758 0.65451 0.0
H1097 H 0.20854 0.81418 0.68656 0.0
C1098 C 0.20055 0.78638 0.63141 0.0
C1099 C 0.19572 0.79743 0.67714 0.0
C1100 C 0.1875 0.79888 0.7034 0.0
C1101 C 0.21126 0.79526 0.62659 0.0
C1102 C 0.21398 0.80552 0.64507 0.0
C1103 C 0.20641 0.80632 0.67219 0.0
C1104 C 0.22352 0.81583 0.62967 0.0
C1105 C 0.21934 0.79384 0.59923 0.0
C1106 C 0.23161 0.82314 0.65835 0.0
C1107 C 0.23967 0.83356 0.64404 0.0
C1108 C 0.23953 0.83683 0.60118 0.0
C1109 C 0.23157 0.82936 0.57243 0.0
C1110 C 0.22367 0.81896 0.58652 0.0
H1111 H 0.21754 0.78519 0.59989 0.0
H1112 H 0.21868 0.79596 0.5652 0.0
H1113 H 0.2279 0.79931 0.61035 0.0
H1114 H 0.23151 0.82091 0.69194 0.0
H1115 H 0.24568 0.8392 0.6669 0.0
H1116 H 0.22464 0.39091 0.56765 0.0
H1117 H 0.21273 0.39792 0.59026 0.0
H1118 H 0.23083 0.40963 0.70951 0.0
H1119 H 0.24298 0.4026 0.68674 0.0
H1120 H 0.20736 0.39627 0.71851 0.0
H1121 H 0.21826 0.42961 0.60079 0.0
H1122 H 0.217 0.41764 0.57464 0.0
H1123 H 0.22752 0.42466 0.61488 0.0
C1124 C 0.22618 0.39504 0.59856 0.0
C1125 C 0.23471 0.39617 0.62551 0.0
C1126 C 0.21944 0.39916 0.61123 0.0
C1127 C 0.22105 0.40448 0.65114 0.0
C1128 C 0.22959 0.40569 0.67829 0.0
H1129 H 0.16476 0.41468 0.64333 0.0
H1130 H 0.18319 0.42001 0.67113 0.0
C1131 C 0.23648 0.40166 0.6653 0.0
C1132 C 0.21297 0.40765 0.66511 0.0
H1133 H 0.19874 0.41901 0.62117 0.0
C1134 C 0.20566 0.40158 0.6984 0.0
C1135 C 0.21091 0.41479 0.63974 0.0
C1136 C 0.21893 0.42214 0.60582 0.0
C1137 C 0.19559 0.40129 0.7028 0.0
C1138 C 0.19279 0.40709 0.67276 0.0
C1139 C 0.20078 0.41438 0.6437 0.0
C1140 C 0.18119 0.40379 0.66396 0.0
C1141 C 0.18768 0.39411 0.73733 0.0
C1142 C 0.17399 0.39293 0.65098 0.0
C1143 C 0.16365 0.38996 0.63471 0.0
C1144 C 0.16028 0.39777 0.6309 0.0
C1145 C 0.16722 0.40852 0.64588 0.0
C1146 C 0.1777 0.41156 0.66182 0.0
H1147 H 0.19219 0.39407 0.76676 0.0
H1148 H 0.18182 0.39691 0.74621 0.0
H1149 H 0.18296 0.38554 0.72531 0.0
H1150 H 0.17658 0.38685 0.65138 0.0
H1151 H 0.15836 0.38156 0.6246 0.0
H1152 H 0.03333 0.25695 0.12768 0.0
H1153 H 0.01473 0.25041 0.10114 0.0
H1154 H 0.02754 0.27435 0.99833 0.0
H1155 H 0.04627 0.28074 0.02392 0.0
H1156 H 0.00174 0.25949 0.08551 0.0
H1157 H 0.01185 0.24559 0.93258 0.0
H1158 H 0.02103 0.25028 0.97831 0.0
H1159 H 0.02001 0.26002 0.94375 0.0
C1160 C 0.0322 0.26092 0.09971 0.0
C1161 C 0.04127 0.26922 0.07742 0.0
C1162 C 0.02156 0.25719 0.08466 0.0
C1163 C 0.01978 0.26174 0.04725 0.0
C1164 C 0.02876 0.27055 0.02665 0.0
H1165 H 0.95095 0.2343 0.96036 0.0
H1166 H 0.96966 0.24787 0.98287 0.0
C1167 C 0.03944 0.27421 0.04141 0.0
C1168 C 0.00863 0.25658 0.0283 0.0
H1169 H 0.99363 0.24139 0.94192 0.0
C1170 C -5e-05 0.25564 0.05388 0.0
C1171 C 0.00636 0.25151 0.98715 0.0
C1172 C 0.01526 0.25179 0.9589 0.0
C1173 C 0.98899 0.24939 0.04014 0.0
C1174 C 0.98673 0.24413 -0.00059 0.0
C1175 C 0.99544 0.24548 0.97306 0.0
C1176 C 0.97541 0.23618 0.98548 0.0
C1177 C 0.97992 0.24796 0.07025 0.0
C1178 C 0.97254 0.2252 0.97868 0.0
C1179 C 0.96197 0.2175 0.96547 0.0
C1180 C 0.95401 0.22061 0.95883 0.0
C1181 C 0.95689 0.23164 0.96546 0.0
C1182 C 0.96755 0.23939 0.97851 0.0
H1183 H 0.98299 0.25091 0.10345 0.0
H1184 H 0.97615 0.25272 0.05772 0.0
H1185 H 0.97339 0.23919 0.07203 0.0
H1186 H 0.9785 0.22256 0.9839 0.0
H1187 H 0.96003 0.20908 0.96071 0.0
H1188 H 0.76442 0.71759 0.99758 0.0
H1189 H 0.75257 0.72464 0.02225 0.0
H1190 H 0.75865 0.74281 0.90322 0.0
H1191 H 0.77018 0.73556 0.87789 0.0
H1192 H 0.75925 0.74542 0.038 0.0
H1193 H 0.72632 0.73098 0.91585 0.0
H1194 H 0.73528 0.72527 0.92039 0.0
H1195 H 0.73952 0.73774 0.89023 0.0
C1196 C 0.76304 0.72291 0.97632 0.0
C1197 C 0.76827 0.72606 0.93585 0.0
C1198 C 0.75626 0.72692 0.99044 0.0
C1199 C 0.75459 0.73414 0.96436 0.0
C1200 C 0.75955 0.73702 0.92343 0.0
H1201 H 0.74912 0.78932 0.03349 0.0
H1202 H 0.75413 0.77551 0.01537 0.0
C1203 C 0.76624 0.73294 0.90914 0.0
C1204 C 0.74882 0.73971 0.9817 0.0
H1205 H 0.73015 0.74753 0.95506 0.0
C1206 C 0.75273 0.7457 0.02027 0.0
C1207 C 0.74019 0.73995 0.95904 0.0
C1208 C 0.73501 0.73303 0.91935 0.0
C1209 C 0.74873 0.75243 0.03534 0.0
C1210 C 0.74082 0.75343 0.01057 0.0
C1211 C 0.73638 0.74691 0.97354 0.0
C1212 C 0.7376 0.7617 0.02112 0.0
C1213 C 0.75316 0.75855 0.0773 0.0
C1214 C 0.72657 0.75855 0.02883 0.0
C1215 C 0.72365 0.76646 0.03878 0.0
C1216 C 0.73172 0.77765 0.041 0.0
C1217 C 0.74272 0.78077 0.03245 0.0
C1218 C 0.74561 0.77288 0.02237 0.0
H1219 H 0.75615 0.75425 0.09873 0.0
H1220 H 0.76022 0.76684 0.07033 0.0
H1221 H 0.74682 0.75954 0.09489 0.0
H1222 H 0.72026 0.74996 0.0276 0.0
H1223 H 0.7151 0.7638 0.04508 0.0
H1224 H 0.2289 0.96143 0.11757 0.0
H1225 H 0.23898 0.97992 0.08719 0.0
H1226 H 0.24137 0.96651 0.96491 0.0
H1227 H 0.23099 0.94792 0.99469 0.0
H1228 H 0.25899 0.99301 0.04594 0.0
H1229 H 0.22356 0.98126 0.93537 0.0
H1230 H 0.22301 0.97262 0.97946 0.0
H1231 H 0.23016 0.97318 0.93048 0.0
C1232 C 0.23172 0.96241 0.08442 0.0
C1233 C 0.22895 0.95321 0.05823 0.0
C1234 C 0.23752 0.97299 0.06715 0.0
C1235 C 0.2407 0.97454 0.02357 0.0
C1236 C 0.23876 0.96545 0.99836 0.0
H1237 H 0.27348 0.04136 0.91213 0.0
H1238 H 0.27014 0.02319 0.93441 0.0
C1239 C 0.23285 0.95485 0.01546 0.0
C1240 C 0.24493 0.98551 0.00379 0.0
H1241 H 0.23787 -0.00047 0.93282 0.0
C1242 C 0.25447 0.99446 0.02083 0.0
C1243 C 0.2389 0.98733 0.97139 0.0
C1244 C 0.22829 0.97813 0.95326 0.0
C1245 C 0.25799 0.00525 0.00714 0.0
C1246 C 0.25186 0.00705 0.97524 0.0
C1247 C 0.24255 0.99807 0.95718 0.0
C1248 C 0.25426 0.01819 0.9629 0.0
C1249 C 0.2679 0.01466 0.0283 0.0
C1250 C 0.24638 0.0213 0.97113 0.0
C1251 C 0.2482 0.03157 0.95819 0.0
C1252 C 0.25795 0.03895 0.93669 0.0
C1253 C 0.2659 0.03586 0.92876 0.0
C1254 C 0.26404 0.02552 0.94165 0.0
H1255 H 0.27054 0.012 0.05754 0.0
H1256 H 0.27483 0.0182 0.00501 0.0
H1257 H 0.26613 0.02126 0.0376 0.0
H1258 H 0.23877 0.01573 0.98748 0.0
H1259 H 0.24192 0.0337 0.96491 0.0
H1260 H 0.96616 0.73816 0.86025 0.0
H1261 H 0.98347 0.74277 0.89509 0.0
H1262 H 0.96596 0.71829 0.9932 0.0
H1263 H 0.94852 0.71393 0.95929 0.0
H1264 H 0.97885 0.73689 0.02922 0.0
H1265 H 0.00344 0.73056 0.90642 0.0
H1266 H -0.00172 0.73881 0.88361 0.0
H1267 H 0.9888 0.72492 0.90049 0.0
C1268 C 0.966 0.73358 0.88866 0.0
C1269 C 0.95599 0.72577 0.9073 0.0
C1270 C 0.97593 0.73614 0.90835 0.0
C1271 C 0.97605 0.73077 0.94647 0.0
C1272 C 0.96607 0.72251 0.96371 0.0
H1273 H 0.04234 0.76018 0.06023 0.0
H1274 H 0.02451 0.74573 0.03317 0.0
C1275 C 0.95611 0.72004 0.94436 0.0
C1276 C 0.98638 0.73501 0.97148 0.0
H1277 H 0.01393 0.7453 0.95902 0.0
C1278 C 0.98647 0.73846 0.01417 0.0
C1279 C 0.99632 0.73687 0.95244 0.0
C1280 C 0.99666 0.73246 0.90838 0.0
C1281 C 0.99633 0.74453 0.03687 0.0
C1282 C 0.00636 0.7475 0.01588 0.0
C1283 C 0.00623 0.74323 0.97472 0.0
C1284 C 0.017 0.75593 0.03409 0.0
C1285 C 0.9959 0.74801 0.08264 0.0
C1286 C 0.0187 0.76646 0.04299 0.0
C1287 C 0.02879 0.77467 0.05852 0.0
C1288 C 0.03746 0.77257 0.06493 0.0
C1289 C 0.03579 0.76203 0.05573 0.0
C1290 C 0.02563 0.75378 0.04031 0.0
H1291 H 0.98812 0.742 0.0988 0.0
H1292 H 0.00292 0.74886 0.10213 0.0
H1293 H 0.99619 0.75605 0.08212 0.0
H1294 H 0.01224 0.76839 0.03721 0.0
H1295 H 0.02983 0.78272 0.06492 0.0
H1296 H 0.26629 0.22749 0.88807 0.0
H1297 H 0.25894 0.23889 0.91362 0.0
H1298 H 0.28031 0.24839 0.02481 0.0
H1299 H 0.28747 0.23664 8e-05 0.0
H1300 H 0.26014 0.24101 0.04923 0.0
H1301 H 0.26835 0.2707 0.91836 0.0
H1302 H 0.26183 0.25709 0.89643 0.0
H1303 H 0.2752 0.26274 0.92117 0.0
C1304 C 0.26962 0.23218 0.91748 0.0
C1305 C 0.27739 0.23109 0.94225 0.0
C1306 C 0.26547 0.23881 0.93186 0.0
C1307 C 0.26918 0.24465 0.97084 0.0
C1308 C 0.27737 0.24401 0.99452 0.0
H1309 H 0.23364 0.27869 0.05137 0.0
H1310 H 0.2491 0.27598 0.03288 0.0
C1311 C 0.28144 0.23728 0.98038 0.0
C1312 C 0.26336 0.25005 0.98951 0.0
H1313 H 0.25204 0.2658 0.96239 0.0
C1314 C 0.2586 0.24664 0.0306 0.0
C1315 C 0.26148 0.25757 0.96575 0.0
C1316 C 0.26711 0.26232 0.9232 0.0
C1317 C 0.25136 0.24987 0.04706 0.0
C1318 C 0.24859 0.25643 0.02127 0.0
C1319 C 0.254 0.26056 0.98173 0.0
C1320 C 0.2394 0.25823 0.03302 0.0
C1321 C 0.24653 0.24596 0.09148 0.0
C1322 C 0.22882 0.24915 0.03838 0.0
C1323 C 0.22003 0.25065 0.049 0.0
C1324 C 0.2216 0.26128 0.054 0.0
C1325 C 0.23218 0.2704 0.04788 0.0
C1326 C 0.24101 0.26887 0.03734 0.0
H1327 H 0.25213 0.24449 0.1122 0.0
H1328 H 0.24485 0.25201 0.10781 0.0
H1329 H 0.23869 0.23807 0.08849 0.0
H1330 H 0.22735 0.24087 0.034 0.0
H1331 H 0.21198 0.24346 0.0531 0.0
H1332 H 0.75602 0.03576 0.87358 0.0
H1333 H 0.7422 0.01769 0.90058 0.0
H1334 H 0.75379 0.02793 0.03079 0.0
H1335 H 0.76746 0.04601 0.00432 0.0
H1336 H 0.74849 0.00451 0.94025 0.0
H1337 H 0.72082 0.01064 0.04909 0.0
H1338 H 0.72948 0.02079 0.00966 0.0
H1339 H 0.73501 0.01992 0.06107 0.0
C1340 C 0.75545 0.03425 0.90808 0.0
C1341 C 0.76292 0.04227 0.93677 0.0
C1342 C 0.74753 0.02393 0.92343 0.0
C1343 C 0.74689 0.02151 0.96772 0.0
C1344 C 0.75396 0.02969 0.99662 0.0
H1345 H 0.73052 0.96855 0.13639 0.0
H1346 H 0.7345 0.9858 0.10184 0.0
C1347 C 0.76186 0.04 0.98134 0.0
C1348 C 0.74016 0.01004 0.98301 0.0
H1349 H 0.72204 0.99426 0.06155 0.0
C1350 C 0.7425 0.00219 0.96607 0.0
C1351 C 0.73243 0.00708 0.01689 0.0
C1352 C 0.7292 0.01504 0.03493 0.0
C1353 C 0.73784 0.99163 0.98381 0.0
C1354 C 0.73044 0.98878 0.01888 0.0
C1355 C 0.72772 0.99648 0.03466 0.0
C1356 C 0.72632 0.97821 0.04182 0.0
C1357 C 0.74141 0.98384 0.96652 0.0
C1358 C 0.72001 0.96822 0.02008 0.0
C1359 C 0.71782 0.95836 0.03953 0.0
C1360 C 0.72181 0.95835 0.08123 0.0
C1361 C 0.7274 0.96829 0.10413 0.0
C1362 C 0.72966 0.97816 0.0845 0.0
H1363 H 0.74878 0.98808 0.94546 0.0
H1364 H 0.74329 0.9798 0.99341 0.0
H1365 H 0.73465 0.97734 0.94707 0.0
H1366 H 0.71718 0.96809 0.9874 0.0
H1367 H 0.71335 0.9508 0.02129 0.0
H1368 H 0.62446 0.54232 0.2979 0.0
H1369 H 0.64226 0.55676 0.32346 0.0
H1370 H 0.63261 0.58101 0.29981 0.0
H1371 H 0.61455 0.56648 0.27484 0.0
H1372 H 0.65767 0.57474 0.2776 0.0
H1373 H 0.64402 0.58746 0.42469 0.0
H1374 H 0.63517 0.57484 0.3963 0.0
H1375 H 0.6378 0.58776 0.37427 0.0
C1376 C 0.62607 0.55071 0.29822 0.0
C1377 C 0.61809 0.55326 0.2844 0.0
C1378 C 0.63626 0.55895 0.31282 0.0
C1379 C 0.63871 0.56993 0.31383 0.0
C1380 C 0.6308 0.57256 0.29994 0.0
H1381 H 0.70879 0.61514 0.36462 0.0
H1382 H 0.69062 0.60896 0.33325 0.0
C1383 C 0.62053 0.56427 0.2855 0.0
C1384 C 0.6497 0.57847 0.32875 0.0
H1385 H 0.66305 0.59582 0.41277 0.0
C1386 C 0.65889 0.57949 0.3068 0.0
C1387 C 0.65118 0.58461 0.36688 0.0
C1388 C 0.64155 0.58361 0.39222 0.0
C1389 C 0.66952 0.58597 0.32326 0.0
C1390 C 0.67101 0.59189 0.36212 0.0
C1391 C 0.66186 0.59134 0.38286 0.0
C1392 C 0.68175 0.59739 0.38453 0.0
C1393 C 0.67893 0.5858 0.30039 0.0
C1394 C 0.68271 0.5935 0.42515 0.0
C1395 C 0.69303 0.59715 0.44348 0.0
C1396 C 0.70258 0.60468 0.42128 0.0
C1397 C 0.70157 0.60919 0.38212 0.0
C1398 C 0.69121 0.60564 0.36409 0.0
H1399 H 0.67603 0.57912 0.27601 0.0
H1400 H 0.68398 0.59373 0.28335 0.0
H1401 H 0.68429 0.58471 0.32386 0.0
H1402 H 0.6755 0.58717 0.44159 0.0
H1403 H 0.69352 0.59358 0.47384 0.0
H1404 H 0.42643 0.04787 0.30368 0.0
H1405 H 0.41223 0.05272 0.31857 0.0
H1406 H 0.4373 0.08666 0.33444 0.0
H1407 H 0.45147 0.08197 0.31908 0.0
H1408 H 0.40882 0.06277 0.39034 0.0
H1409 H 0.41701 0.08815 0.24338 0.0
H1410 H 0.4222 0.07881 0.25038 0.0
H1411 H 0.42924 0.09227 0.27449 0.0
C1412 C 0.42891 0.05636 0.31042 0.0
C1413 C 0.44007 0.06456 0.30978 0.0
C1414 C 0.42079 0.05911 0.31889 0.0
C1415 C 0.42372 0.07008 0.32666 0.0
C1416 C 0.43486 0.07819 0.32744 0.0
H1417 H 0.39524 0.10276 0.45408 0.0
H1418 H 0.40297 0.09126 0.43406 0.0
C1419 C 0.44295 0.07547 0.31888 0.0
C1420 C 0.41523 0.07318 0.33426 0.0
H1421 H 0.40721 0.09117 0.30039 0.0
C1422 C 0.40832 0.06885 0.37034 0.0
C1423 C 0.41441 0.08089 0.30751 0.0
C1424 C 0.42103 0.08521 0.26651 0.0
C1425 C 0.40108 0.07259 0.38195 0.0
C1426 C 0.40096 0.08101 0.35726 0.0
C1427 C 0.40738 0.0848 0.31965 0.0
C1428 C 0.39502 0.0867 0.37147 0.0
C1429 C 0.39375 0.06756 0.42078 0.0
C1430 C 0.38804 0.08806 0.34284 0.0
C1431 C 0.38375 0.09482 0.35392 0.0
C1432 C 0.38639 0.10033 0.39385 0.0
C1433 C 0.39301 0.0986 0.42314 0.0
C1434 C 0.39736 0.09192 0.4119 0.0
H1435 H 0.39182 0.05894 0.42582 0.0
H1436 H 0.39808 0.0723 0.45009 0.0
H1437 H 0.38594 0.06766 0.41739 0.0
H1438 H 0.38617 0.08416 0.31137 0.0
H1439 H 0.37864 0.09597 0.33071 0.0
H1440 H 0.90219 0.28573 0.39297 0.0
H1441 H 0.91718 0.30408 0.37344 0.0
H1442 H 0.89369 0.31489 0.35328 0.0
H1443 H 0.87876 0.29675 0.37328 0.0
H1444 H 0.92088 0.31608 0.29776 0.0
H1445 H 0.91567 0.33797 0.43587 0.0
H1446 H 0.90949 0.3232 0.43454 0.0
H1447 H 0.90295 0.32981 0.4078 0.0
C1448 C 0.90024 0.29204 0.38449 0.0
C1449 C 0.8893 0.28982 0.38503 0.0
C1450 C 0.9088 0.3025 0.37336 0.0
C1451 C 0.90654 0.31088 0.36285 0.0
C1452 C 0.89562 0.3086 0.36241 0.0
H1453 H 0.93359 0.36701 0.2086 0.0
H1454 H 0.92686 0.34865 0.23765 0.0
C1455 C 0.88709 0.2982 0.37361 0.0
C1456 C 0.91547 0.32201 0.35124 0.0
H1457 H 0.92476 0.349 0.37303 0.0
C1458 C 0.92191 0.3233 0.31465 0.0
C1459 C 0.91702 0.3314 0.37399 0.0
C1460 C 0.911 0.33053 0.41552 0.0
C1461 C 0.92926 0.33378 0.29828 0.0
C1462 C 0.92996 0.34314 0.31856 0.0
C1463 C 0.92414 0.34184 0.35705 0.0
C1464 C 0.93564 0.35419 0.29835 0.0
C1465 C 0.93603 0.33468 0.25902 0.0
C1466 C 0.94283 0.36347 0.32273 0.0
C1467 C 0.94651 0.37402 0.30649 0.0
C1468 C 0.94308 0.37547 0.26552 0.0
C1469 C 0.93641 0.36618 0.24021 0.0
C1470 C 0.93264 0.35564 0.25665 0.0
H1471 H 0.93791 0.32788 0.25821 0.0
H1472 H 0.93126 0.33401 0.22944 0.0
H1473 H 0.94387 0.34264 0.25822 0.0
H1474 H 0.94522 0.36254 0.35506 0.0
H1475 H 0.9517 0.38103 0.32666 0.0
H1476 H 0.71572 0.09667 0.34634 0.0
H1477 H 0.6973 0.08502 0.31651 0.0
H1478 H 0.68303 0.08823 0.43518 0.0
H1479 H 0.70133 0.09954 0.4657 0.0
H1480 H 0.67065 0.06772 0.39809 0.0
H1481 H 0.68156 0.10116 0.27794 0.0
H1482 H 0.68998 0.09487 0.27685 0.0
H1483 H 0.69027 0.10271 0.32328 0.0
C1484 C 0.70865 0.0947 0.36637 0.0
C1485 C 0.70997 0.0992 0.40804 0.0
C1486 C 0.69814 0.08808 0.34924 0.0
C1487 C 0.68883 0.08602 0.37324 0.0
C1488 C 0.69012 0.08978 0.41602 0.0
H1489 H 0.6295 0.08309 0.30958 0.0
H1490 H 0.64751 0.0865 0.33264 0.0
C1491 C 0.7006 0.09628 0.43337 0.0
C1492 C 0.67787 0.08113 0.35272 0.0
H1493 H 0.66343 0.08664 0.2779 0.0
C1494 C 0.66906 0.07174 0.37139 0.0
C1495 C 0.67585 0.08649 0.31816 0.0
C1496 C 0.68487 0.09691 0.29802 0.0
C1497 C 0.65821 0.06781 0.35745 0.0
C1498 C 0.65621 0.07335 0.32366 0.0
C1499 C 0.66505 0.08242 0.30376 0.0
C1500 C 0.64499 0.07073 0.31144 0.0
C1501 C 0.64893 0.05816 0.38042 0.0
C1502 C 0.63757 0.06068 0.2921 0.0
C1503 C 0.62719 0.05866 0.27896 0.0
C1504 C 0.62415 0.06673 0.28471 0.0
C1505 C 0.63159 0.07672 0.30452 0.0
C1506 C 0.64189 0.07869 0.31773 0.0
H1507 H 0.65175 0.05589 0.41022 0.0
H1508 H 0.64237 0.06002 0.38921 0.0
H1509 H 0.64528 0.05094 0.3585 0.0
H1510 H 0.63988 0.0545 0.28642 0.0
H1511 H 0.62164 0.05089 0.26366 0.0
H1512 H 0.8867 0.59414 0.44835 0.0
H1513 H 0.89795 0.58657 0.42288 0.0
H1514 H 0.90518 0.60563 0.30571 0.0
H1515 H 0.89364 0.61302 0.33047 0.0
H1516 H 0.89766 0.58475 0.28812 0.0
H1517 H 0.93017 0.59733 0.41136 0.0
H1518 H 0.91687 0.59086 0.43621 0.0
H1519 H 0.92169 0.6036 0.40733 0.0
C1520 C 0.89085 0.5969 0.41753 0.0
C1521 C 0.88921 0.60411 0.39126 0.0
C1522 C 0.89738 0.59263 0.40317 0.0
C1523 C 0.90255 0.59565 0.36264 0.0
C1524 C 0.90131 0.60323 0.33719 0.0
H1525 H 0.94018 0.56451 0.27549 0.0
H1526 H 0.93563 0.57867 0.29518 0.0
C1527 C 0.8947 0.60743 0.35135 0.0
C1528 C 0.90799 0.58981 0.34475 0.0
H1529 H 0.92594 0.58097 0.37005 0.0
C1530 C 0.904 0.58411 0.30566 0.0
C1531 C 0.91638 0.58909 0.36721 0.0
C1532 C 0.9216 0.59566 0.40761 0.0
C1533 C 0.90769 0.57718 0.28977 0.0
C1534 C 0.91537 0.57573 0.31417 0.0
C1535 C 0.91989 0.58195 0.35182 0.0
C1536 C 0.91823 0.56727 0.30253 0.0
C1537 C 0.90317 0.57134 0.24736 0.0
C1538 C 0.90998 0.55618 0.301 0.0
C1539 C 0.91253 0.54811 0.2897 0.0
C1540 C 0.92341 0.55096 0.28011 0.0
C1541 C 0.93172 0.56206 0.28253 0.0
C1542 C 0.92914 0.57015 0.29378 0.0
H1543 H 0.90031 0.57587 0.22663 0.0
H1544 H 0.90942 0.5703 0.22929 0.0
H1545 H 0.89601 0.56307 0.25379 0.0
H1546 H 0.90155 0.55376 0.30868 0.0
H1547 H 0.90595 0.53963 0.28851 0.0
H1548 H 0.44095 0.36518 0.21348 0.0
H1549 H 0.42896 0.34726 0.24541 0.0
H1550 H 0.41181 0.3606 0.31607 0.0
H1551 H 0.42408 0.37874 0.28517 0.0
H1552 H 0.41806 0.35024 0.36847 0.0
H1553 H 0.39813 0.323 0.22946 0.0
H1554 H 0.41267 0.33055 0.22076 0.0
H1555 H 0.40512 0.33778 0.22457 0.0
C1556 C 0.43449 0.36427 0.23509 0.0
C1557 C 0.43352 0.3734 0.24705 0.0
C1558 C 0.42754 0.35397 0.25304 0.0
C1559 C 0.41935 0.35252 0.28264 0.0
C1560 C 0.41803 0.36152 0.2931 0.0
H1561 H 0.38579 0.28542 0.38781 0.0
H1562 H 0.38768 0.30233 0.35688 0.0
C1563 C 0.42506 0.37187 0.27545 0.0
C1564 C 0.41329 0.34204 0.3067 0.0
H1565 H 0.40104 0.31431 0.29299 0.0
C1566 C 0.41408 0.34237 0.35199 0.0
C1567 C 0.40786 0.33175 0.28549 0.0
C1568 C 0.40579 0.33077 0.23741 0.0
C1569 C 0.41045 0.33274 0.37623 0.0
C1570 C 0.40621 0.32257 0.35447 0.0
C1571 C 0.40452 0.32214 0.30962 0.0
C1572 C 0.40461 0.31255 0.37675 0.0
C1573 C 0.4115 0.33361 0.4248 0.0
C1574 C 0.41349 0.3127 0.39813 0.0
C1575 C 0.41243 0.3031 0.41597 0.0
C1576 C 0.4025 0.29312 0.4122 0.0
C1577 C 0.39355 0.29299 0.39125 0.0
C1578 C 0.39461 0.30264 0.37358 0.0
H1579 H 0.41079 0.34068 0.43685 0.0
H1580 H 0.40514 0.326 0.44085 0.0
H1581 H 0.41973 0.33504 0.43431 0.0
H1582 H 0.42139 0.32018 0.39987 0.0
H1583 H 0.4195 0.30347 0.43164 0.0
H1584 H 0.28362 0.90099 0.63687 0.0
H1585 H 0.30113 0.91415 0.67013 0.0
H1586 H 0.31847 0.90737 0.57068 0.0
H1587 H 0.3011 0.89461 0.53648 0.0
H1588 H 0.31429 0.90877 0.70533 0.0
H1589 H 0.33826 0.93954 0.58125 0.0
H1590 H 0.32363 0.93044 0.57602 0.0
H1591 H 0.33316 0.92614 0.55851 0.0
C1592 C 0.29119 0.90253 0.62154 0.0
C1593 C 0.291 0.89672 0.58424 0.0
C1594 C 0.30119 0.91007 0.64052 0.0
C1595 C 0.31114 0.91188 0.62267 0.0
C1596 C 0.31095 0.9064 0.5844 0.0
H1597 H 0.3653 0.91388 0.73752 0.0
H1598 H 0.3476 0.91065 0.71132 0.0
C1599 C 0.30098 0.89899 0.56508 0.0
C1600 C 0.32156 0.91807 0.6471 0.0
H1601 H 0.34904 0.93536 0.63282 0.0
C1602 C 0.32184 0.91481 0.68978 0.0
C1603 C 0.33141 0.92615 0.62746 0.0
C1604 C 0.33155 0.93085 0.58345 0.0
C1605 C 0.33179 0.91867 0.71183 0.0
C1606 C 0.34174 0.92569 0.69014 0.0
C1607 C 0.34142 0.92975 0.64904 0.0
C1608 C 0.35245 0.92788 0.70749 0.0
C1609 C 0.33157 0.91487 0.75765 0.0
C1610 C 0.36118 0.93866 0.71273 0.0
C1611 C 0.37141 0.94055 0.72723 0.0
C1612 C 0.37305 0.93167 0.7365 0.0
C1613 C 0.36429 0.9209 0.73106 0.0
C1614 C 0.35413 0.91904 0.71641 0.0
H1615 H 0.32389 0.91322 0.77439 0.0
H1616 H 0.33178 0.90708 0.75717 0.0
H1617 H 0.33871 0.92105 0.77657 0.0
H1618 H 0.36008 0.9456 0.70554 0.0
H1619 H 0.37803 0.94895 0.73102 0.0
H1620 H 0.04946 0.43036 0.69826 0.0
H1621 H 0.05322 0.41645 0.66821 0.0
H1622 H 0.08344 0.4303 0.74101 0.0
H1623 H 0.07957 0.4439 0.77209 0.0
H1624 H 0.06952 0.42001 0.61745 0.0
H1625 H 0.0723 0.39846 0.76107 0.0
H1626 H 0.0663 0.4072 0.76333 0.0
H1627 H 0.08095 0.41295 0.76881 0.0
C1628 C 0.05679 0.43029 0.70848 0.0
C1629 C 0.06423 0.43823 0.73751 0.0
C1630 C 0.05892 0.42233 0.69132 0.0
C1631 C 0.06851 0.4222 0.70293 0.0
C1632 C 0.07581 0.42999 0.7326 0.0
H1633 H 0.11451 0.41448 0.56451 0.0
H1634 H 0.10049 0.41842 0.59039 0.0
C1635 C 0.07364 0.43786 0.75005 0.0
C1636 C 0.07164 0.41484 0.68067 0.0
H1637 H 0.08385 0.39953 0.69965 0.0
C1638 C 0.0724 0.41529 0.63537 0.0
C1639 C 0.0751 0.40841 0.70373 0.0
C1640 C 0.07349 0.40663 0.75189 0.0
C1641 C 0.07745 0.41033 0.61296 0.0
C1642 C 0.08216 0.4051 0.63663 0.0
C1643 C 0.08047 0.40376 0.68148 0.0
C1644 C 0.08991 0.40215 0.61659 0.0
C1645 C 0.07795 0.41104 0.56427 0.0
C1646 C 0.08875 0.39174 0.62333 0.0
C1647 C 0.0969 0.38953 0.60928 0.0
C1648 C 0.10634 0.3977 0.58826 0.0
C1649 C 0.10731 0.40799 0.58034 0.0
C1650 C 0.09922 0.41022 0.59476 0.0
H1651 H 0.0706 0.41104 0.55102 0.0
H1652 H 0.08528 0.41888 0.5544 0.0
H1653 H 0.0785 0.40411 0.54968 0.0
H1654 H 0.08167 0.38542 0.6404 0.0
H1655 H 0.09592 0.38151 0.61575 0.0
H1656 H 0.56247 0.61704 0.65866 0.0
H1657 H 0.57549 0.63562 0.63465 0.0
H1658 H 0.58541 0.64543 0.76668 0.0
H1659 H 0.57225 0.62685 0.79119 0.0
H1660 H 0.57819 0.65783 0.72625 0.0
H1661 H 0.60856 0.65485 0.62196 0.0
H1662 H 0.59468 0.64497 0.60774 0.0
H1663 H 0.59996 0.64421 0.65986 0.0
C1664 C 0.56759 0.62307 0.68257 0.0
C1665 C 0.56623 0.6205 0.7269 0.0
C1666 C 0.57512 0.63367 0.66871 0.0
C1667 C 0.5815 0.64187 0.69884 0.0
C1668 C 0.5806 0.63919 0.74291 0.0
H1669 H 0.61267 0.71289 0.65648 0.0
H1670 H 0.60874 0.69536 0.68829 0.0
C1671 C 0.57306 0.62857 0.75684 0.0
C1672 C 0.58775 0.65349 0.68489 0.0
H1673 H 0.60643 0.67072 0.61075 0.0
C1674 C 0.58454 0.66073 0.70167 0.0
C1675 C 0.59596 0.6572 0.6526 0.0
C1676 C 0.60007 0.64992 0.6348 0.0
C1677 C 0.58887 0.67141 0.68542 0.0
C1678 C 0.59682 0.67501 0.65206 0.0
C1679 C 0.60034 0.66792 0.63633 0.0
C1680 C 0.60085 0.68581 0.63105 0.0
C1681 C 0.58445 0.67852 0.70244 0.0
C1682 C 0.59821 0.68629 0.58767 0.0
C1683 C 0.60052 0.69629 0.56925 0.0
C1684 C 0.60548 0.70597 0.59404 0.0
C1685 C 0.6087 0.70555 0.63673 0.0
C1686 C 0.60646 0.69555 0.65499 0.0
H1687 H 0.57678 0.6737 0.72142 0.0
H1688 H 0.59066 0.68494 0.72393 0.0
H1689 H 0.58274 0.68268 0.67552 0.0
H1690 H 0.59391 0.67884 0.56865 0.0
H1691 H 0.598 0.69635 0.53622 0.0
H1692 H 0.36439 0.45487 0.70566 0.0
H1693 H 0.34617 0.43986 0.68686 0.0
H1694 H 0.35799 0.41687 0.69395 0.0
H1695 H 0.37638 0.43192 0.7121 0.0
H1696 H 0.3458 0.41404 0.62118 0.0
H1697 H 0.32359 0.4161 0.76496 0.0
H1698 H 0.33124 0.42928 0.73944 0.0
H1699 H 0.3384 0.42287 0.7627 0.0
C1700 C 0.36313 0.44662 0.70352 0.0
C1701 C 0.37182 0.44458 0.71053 0.0
C1702 C 0.35268 0.43804 0.69306 0.0
C1703 C 0.35069 0.42723 0.68989 0.0
C1704 C 0.35935 0.42515 0.69664 0.0
H1705 H 0.28106 0.37965 0.65294 0.0
H1706 H 0.29981 0.38692 0.6798 0.0
C1707 C 0.36984 0.43376 0.707 0.0
C1708 C 0.33965 0.41826 0.67748 0.0
H1709 H 0.31254 0.40753 0.70162 0.0
C1710 C 0.33852 0.41245 0.63915 0.0
C1711 C 0.33019 0.41599 0.70151 0.0
C1712 C 0.33092 0.42131 0.74469 0.0
C1713 C 0.32811 0.40498 0.62259 0.0
C1714 C 0.31863 0.40352 0.64452 0.0
C1715 C 0.3198 0.40875 0.68444 0.0
C1716 C 0.30754 0.3976 0.62488 0.0
C1717 C 0.32739 0.39891 0.58142 0.0
C1718 C 0.30567 0.401 0.58466 0.0
C1719 C 0.295 0.3968 0.5691 0.0
C1720 C 0.28596 0.38927 0.59385 0.0
C1721 C 0.28786 0.38548 0.63321 0.0
C1722 C 0.29856 0.38962 0.64859 0.0
H1723 H 0.33451 0.39756 0.57834 0.0
H1724 H 0.3197 0.39083 0.57997 0.0
H1725 H 0.32759 0.40392 0.55333 0.0
H1726 H 0.31242 0.40735 0.5663 0.0
H1727 H 0.29382 0.39991 0.53873 0.0
H1728 H 0.60701 0.90191 0.54106 0.0
H1729 H 0.60122 0.91501 0.56228 0.0
H1730 H 0.60191 0.90698 0.69639 0.0
H1731 H 0.60782 0.89397 0.6756 0.0
H1732 H 0.58175 0.90855 0.60559 0.0
H1733 H 0.6168 0.94051 0.69927 0.0
H1734 H 0.61815 0.93114 0.66317 0.0
H1735 H 0.61258 0.92676 0.71653 0.0
C1736 C 0.60613 0.90307 0.57513 0.0
C1737 C 0.60781 0.89685 0.60664 0.0
C1738 C 0.60284 0.91057 0.58717 0.0
C1739 C 0.60126 0.91205 0.63089 0.0
C1740 C 0.60331 0.90614 0.66252 0.0
H1741 H 0.56747 0.93649 0.78252 0.0
H1742 H 0.57933 0.92985 0.7542 0.0
C1743 C 0.6066 0.89863 0.65053 0.0
C1744 C 0.59625 0.91874 0.64316 0.0
H1745 H 0.59948 0.93976 0.7083 0.0
C1746 C 0.58569 0.91549 0.62749 0.0
C1747 C 0.6014 0.92773 0.67195 0.0
C1748 C 0.6129 0.93182 0.68842 0.0
C1749 C 0.57994 0.9207 0.64121 0.0
C1750 C 0.58499 0.92955 0.6707 0.0
C1751 C 0.59566 0.93298 0.68562 0.0
C1752 C 0.579 0.93485 0.68831 0.0
C1753 C 0.56831 0.91634 0.62551 0.0
C1754 C 0.5752 0.94018 0.66085 0.0
C1755 C 0.56835 0.9439 0.67683 0.0
C1756 C 0.56526 0.94244 0.72066 0.0
C1757 C 0.56963 0.93768 0.74856 0.0
C1758 C 0.57643 0.93391 0.73248 0.0
H1759 H 0.56484 0.90805 0.61078 0.0
H1760 H 0.56287 0.91587 0.65245 0.0
H1761 H 0.56822 0.92198 0.6006 0.0
H1762 H 0.57728 0.94117 0.6268 0.0
H1763 H 0.56523 0.94765 0.6546 0.0
H1764 H 0.04672 0.61658 0.69339 0.0
H1765 H 0.05367 0.63563 0.6705 0.0
H1766 H 0.08145 0.64631 0.75586 0.0
H1767 H 0.07445 0.62742 0.7797 0.0
H1768 H 0.07314 0.66033 0.75646 0.0
H1769 H 0.07964 0.65068 0.58826 0.0
H1770 H 0.06579 0.643 0.60798 0.0
H1771 H 0.07634 0.6411 0.63219 0.0
C1772 C 0.05425 0.62301 0.70758 0.0
C1773 C 0.06011 0.62049 0.73798 0.0
C1774 C 0.05823 0.63387 0.69433 0.0
C1775 C 0.06818 0.64233 0.71088 0.0
C1776 C 0.07377 0.63988 0.74259 0.0
H1777 H 0.11885 0.70238 0.61259 0.0
H1778 H 0.10589 0.68368 0.6356 0.0
C1779 C 0.06977 0.62907 0.75608 0.0
C1780 C 0.0732 0.65367 0.69387 0.0
H1781 H 0.08528 0.66909 0.60388 0.0
C1782 C 0.07569 0.66226 0.723 0.0
C1783 C 0.07659 0.65613 0.65024 0.0
C1784 C 0.07455 0.64728 0.61783 0.0
C1785 C 0.08182 0.67329 0.71005 0.0
C1786 C 0.08535 0.67575 0.6666 0.0
C1787 C 0.0825 0.66715 0.63712 0.0
C1788 C 0.09293 0.68711 0.65201 0.0
C1789 C 0.08496 0.68221 0.74344 0.0
C1790 C 0.08989 0.69522 0.65324 0.0
C1791 C 0.09733 0.70597 0.64034 0.0
C1792 C 0.10788 0.70874 0.62567 0.0
C1793 C 0.1108 0.70053 0.62378 0.0
C1794 C 0.1034 0.68983 0.63683 0.0
H1795 H 0.08343 0.6789 0.77692 0.0
H1796 H 0.09377 0.68855 0.74041 0.0
H1797 H 0.08002 0.68627 0.73825 0.0
H1798 H 0.08178 0.69322 0.66413 0.0
H1799 H 0.09482 0.71211 0.64188 0.0
H1800 H 0.13129 0.34868 0.66631 0.0
H1801 H 0.12296 0.33692 0.72911 0.0
H1802 H 0.10436 0.3531 0.75526 0.0
H1803 H 0.11274 0.36504 0.6925 0.0
H1804 H 0.11549 0.3516 0.82704 0.0
H1805 H 0.09176 0.31115 0.74661 0.0
H1806 H 0.10586 0.31857 0.72958 0.0
H1807 H 0.09694 0.32399 0.71784 0.0
C1808 C 0.12535 0.3497 0.68507 0.0
C1809 C 0.12269 0.35782 0.67428 0.0
C1810 C 0.12054 0.3429 0.72081 0.0
C1811 C 0.11292 0.34403 0.74639 0.0
C1812 C 0.11016 0.35205 0.73566 0.0
H1813 H 0.07968 0.29807 0.96016 0.0
H1814 H 0.08293 0.30944 0.89577 0.0
C1815 C 0.11496 0.35886 0.69978 0.0
C1816 C 0.10847 0.33731 0.78594 0.0
H1817 H 0.09539 0.31084 0.82237 0.0
C1818 C 0.11095 0.34269 0.82605 0.0
C1819 C 0.10243 0.3257 0.78451 0.0
C1820 C 0.09899 0.31951 0.74229 0.0
C1821 C 0.10804 0.33674 0.86488 0.0
C1822 C 0.10264 0.32513 0.86342 0.0
C1823 C 0.09965 0.31975 0.82335 0.0
C1824 C 0.1006 0.31847 0.90298 0.0
C1825 C 0.11088 0.34292 0.90712 0.0
C1826 C 0.10948 0.31971 0.92793 0.0
C1827 C 0.10768 0.31324 0.9646 0.0
C1828 C 0.09694 0.30535 0.97695 0.0
C1829 C 0.08805 0.30409 0.95169 0.0
C1830 C 0.08988 0.31057 0.91489 0.0
H1831 H 0.11196 0.35127 0.90303 0.0
H1832 H 0.10441 0.33841 0.93179 0.0
H1833 H 0.11873 0.34388 0.91945 0.0
H1834 H 0.11784 0.32561 0.91873 0.0
H1835 H 0.11473 0.31441 0.98311 0.0
H1836 H 0.67454 0.79072 0.00328 0.0
H1837 H 0.66341 0.78372 0.93809 0.0
H1838 H 0.68986 0.78198 0.87475 0.0
H1839 H 0.70087 0.78852 0.94091 0.0
H1840 H 0.66694 0.79289 0.86279 0.0
H1841 H 0.66472 0.75265 0.84272 0.0
H1842 H 0.66988 0.76072 0.89134 0.0
H1843 H 0.67858 0.76389 0.84455 0.0
C1844 C 0.67794 0.78873 0.97562 0.0
C1845 C 0.68857 0.79016 0.97714 0.0
C1846 C 0.67157 0.78473 0.93836 0.0
C1847 C 0.67573 0.7822 0.90157 0.0
C1848 C 0.68635 0.78358 0.90303 0.0
H1849 H 0.64712 0.77929 0.64808 0.0
H1850 H 0.6592 0.78461 0.71112 0.0
C1851 C 0.69266 0.78739 0.94074 0.0
C1852 C 0.66913 0.77877 0.8612 0.0
H1853 H 0.65836 0.75884 0.78363 0.0
C1854 C 0.66503 0.78541 0.84562 0.0
C1855 C 0.66653 0.76896 0.83901 0.0
C1856 C 0.67006 0.76108 0.85548 0.0
C1857 C 0.65836 0.7825 0.80873 0.0
C1858 C 0.6561 0.77291 0.78559 0.0
C1859 C 0.6602 0.76626 0.80109 0.0
C1860 C 0.64919 0.76945 0.74606 0.0
C1861 C 0.65353 0.78958 0.79593 0.0
C1862 C 0.63983 0.75895 0.74377 0.0
C1863 C 0.63305 0.75578 0.70732 0.0
C1864 C 0.63546 0.76311 0.67266 0.0
C1865 C 0.64496 0.77353 0.6746 0.0
C1866 C 0.65184 0.77661 0.71071 0.0
H1867 H 0.65326 0.79445 0.82372 0.0
H1868 H 0.65874 0.79546 0.77053 0.0
H1869 H 0.64507 0.78454 0.78301 0.0
H1870 H 0.63764 0.75326 0.77056 0.0
H1871 H 0.6258 0.74769 0.70675 0.0
H1872 H 0.20434 0.88051 0.99818 0.0
H1873 H 0.21096 0.87582 0.93311 0.0
H1874 H 0.21549 0.90531 0.87098 0.0
H1875 H 0.20938 0.91031 0.9368 0.0
H1876 H 0.20288 0.87114 0.85602 0.0
H1877 H 0.24429 0.90786 0.84399 0.0
H1878 H 0.23574 0.90505 0.89112 0.0
H1879 H 0.23373 0.91147 0.84425 0.0
C1880 C 0.20684 0.88605 0.97076 0.0
C1881 C 0.20641 0.89581 0.97264 0.0
C1882 C 0.21062 0.88336 0.93358 0.0
C1883 C 0.21392 0.8903 0.8973 0.0
C1884 C 0.21334 0.89999 0.89894 0.0
H1885 H 0.21715 0.86681 0.63994 0.0
H1886 H 0.21179 0.87281 0.70511 0.0
C1887 C 0.20977 0.9028 0.93648 0.0
C1888 C 0.21748 0.88711 0.8573 0.0
H1889 H 0.23791 0.89625 0.78185 0.0
C1890 C 0.21058 0.87661 0.83999 0.0
C1891 C 0.2276 0.89417 0.83666 0.0
C1892 C 0.23582 0.90521 0.85523 0.0
C1893 C 0.21347 0.873 0.80257 0.0
C1894 C 0.22333 0.88027 0.78072 0.0
C1895 C 0.23028 0.89073 0.79823 0.0
C1896 C 0.22673 0.87709 0.74029 0.0
C1897 C 0.20604 0.86133 0.78772 0.0
C1898 C 0.23714 0.87801 0.73747 0.0
C1899 C 0.24034 0.87487 0.69981 0.0
C1900 C 0.23314 0.87064 0.66439 0.0
C1901 C 0.22281 0.8699 0.66695 0.0
C1902 C 0.2197 0.87324 0.70432 0.0
H1903 H 0.20098 0.85598 0.81475 0.0
H1904 H 0.20034 0.86122 0.76267 0.0
H1905 H 0.21083 0.85775 0.77369 0.0
H1906 H 0.24273 0.88101 0.76469 0.0
H1907 H 0.24835 0.87553 0.69884 0.0
H1908 H 0.3063 0.11175 0.97622 0.0
H1909 H 0.31797 0.11531 0.03948 0.0
H1910 H 0.3029 0.08049 0.06305 0.0
H1911 H 0.29105 0.0768 -0.0 0.0
H1912 H 0.304 0.09233 0.13601 0.0
H1913 H 0.34451 0.1111 0.05472 0.0
H1914 H 0.33665 0.11747 0.03978 0.0
H1915 H 0.33172 0.10333 0.0258 0.0
C1916 C 0.30549 0.10482 0.9946 0.0
C1917 C 0.29772 0.09398 0.9829 0.0
C1918 C 0.31224 0.10688 0.03061 0.0
C1919 C 0.31143 0.09816 0.05549 0.0
C1920 C 0.3037 0.08733 0.04403 0.0
H1921 H 0.35787 0.11032 0.2673 0.0
H1922 H 0.34665 0.10263 0.20216 0.0
C1923 C 0.29694 0.08525 0.00798 0.0
C1924 C 0.31823 0.10042 0.09485 0.0
H1925 H 0.34472 0.11416 0.13115 0.0
C1926 C 0.31291 0.09698 0.13493 0.0
C1927 C 0.32985 0.10634 0.09332 0.0
C1928 C 0.33603 0.10968 0.05105 0.0
C1929 C 0.31888 0.09976 0.17369 0.0
C1930 C 0.33047 0.10628 0.17227 0.0
C1931 C 0.33582 0.10926 0.13213 0.0
C1932 C 0.3371 0.11065 0.21208 0.0
C1933 C 0.31274 0.09579 0.21585 0.0
C1934 C 0.33552 0.1178 0.2388 0.0
C1935 C 0.3419 0.12221 0.27584 0.0
C1936 C 0.35005 0.1196 0.28689 0.0
C1937 C 0.35165 0.11247 0.25987 0.0
C1938 C 0.34526 0.10807 0.22264 0.0
H1939 H 0.30452 0.08839 0.21111 0.0
H1940 H 0.31743 0.0938 0.23954 0.0
H1941 H 0.31149 0.10235 0.22981 0.0
H1942 H 0.32942 0.12008 0.23072 0.0
H1943 H 0.34044 0.1277 0.2957 0.0
H1944 H 0.88268 0.25002 0.3092 0.0
H1945 H 0.88978 0.24558 0.24472 0.0
H1946 H 0.86919 0.21101 0.27132 0.0
H1947 H 0.86212 0.21532 0.33597 0.0
H1948 H 0.89107 0.21726 0.2492 0.0
H1949 H 0.87223 0.23303 0.13191 0.0
H1950 H 0.88069 0.24256 0.17298 0.0
H1951 H 0.86811 0.23045 0.18792 0.0
C1952 C 0.87966 0.24147 0.30142 0.0
C1953 C 0.87177 0.23303 0.32772 0.0
C1954 C 0.8837 0.23896 0.26445 0.0
C1955 C 0.8799 0.22797 0.25303 0.0
C1956 C 0.8722 0.21955 0.27956 0.0
H1957 H 0.87997 0.19701 0.01537 0.0
H1958 H 0.87605 0.20424 0.08042 0.0
C1959 C 0.86815 0.22204 0.31647 0.0
C1960 C 0.88384 0.22518 0.21328 0.0
H1961 H 0.88322 0.22624 0.10312 0.0
C1962 C 0.88942 0.21927 0.21723 0.0
C1963 C 0.88158 0.22775 0.1717 0.0
C1964 C 0.87525 0.23372 0.1656 0.0
C1965 C 0.89272 0.21576 0.1806 0.0
C1966 C 0.89047 0.21835 0.13903 0.0
C1967 C 0.885 0.22435 0.1351 0.0
C1968 C 0.89308 0.21426 0.09921 0.0
C1969 C 0.89822 0.20897 0.18664 0.0
C1970 C 0.90398 0.21762 0.08795 0.0
C1971 C 0.90627 0.21348 0.0507 0.0
C1972 C 0.89769 0.20594 0.02399 0.0
C1973 C 0.88679 0.20276 0.03516 0.0
C1974 C 0.88452 0.2069 0.07231 0.0
H1975 H 0.89734 0.20584 0.22025 0.0
H1976 H 0.89473 0.20188 0.16409 0.0
H1977 H 0.90711 0.21412 0.1795 0.0
H1978 H 0.91071 0.22344 0.10798 0.0
H1979 H 0.91476 0.21615 0.04299 0.0
H1980 H 0.74373 0.63196 0.31538 0.0
H1981 H 0.74905 0.64362 0.25101 0.0
H1982 H 0.78323 0.65583 0.28026 0.0
H1983 H 0.77804 0.64431 0.34485 0.0
H1984 H 0.77819 0.67234 0.25693 0.0
H1985 H 0.76149 0.63774 0.13957 0.0
H1986 H 0.75196 0.63707 0.17985 0.0
H1987 H 0.76367 0.63601 0.19585 0.0
C1988 C 0.75238 0.63713 0.30823 0.0
C1989 C 0.76045 0.63713 0.33524 0.0
C1990 C 0.7554 0.64375 0.27131 0.0
C1991 C 0.76652 0.65046 0.26064 0.0
C1992 C 0.77459 0.65067 0.2879 0.0
H1993 H 0.7977 0.68096 0.02099 0.0
H1994 H 0.79078 0.67003 0.08678 0.0
C1995 C 0.7716 0.64405 0.32478 0.0
C1996 C 0.7698 0.65724 0.22091 0.0
H1997 H 0.76878 0.65562 0.11075 0.0
C1998 C 0.77611 0.66871 0.22493 0.0
C1999 C 0.76715 0.65244 0.1793 0.0
C2000 C 0.76078 0.64014 0.17312 0.0
C2001 C 0.77986 0.67552 0.18834 0.0
C2002 C 0.77712 0.67072 0.14674 0.0
C2003 C 0.77079 0.65926 0.14274 0.0
C2004 C 0.78118 0.67741 0.10689 0.0
C2005 C 0.787 0.68777 0.19444 0.0
C2006 C 0.77799 0.68511 0.09621 0.0
C2007 C 0.78194 0.69141 0.05854 0.0
C2008 C 0.78913 0.69007 0.03082 0.0
C2009 C 0.79221 0.68225 0.04156 0.0
C2010 C 0.78825 0.67597 0.07914 0.0
H2011 H 0.79026 0.68991 0.22791 0.0
H2012 H 0.79402 0.6912 0.17151 0.0
H2013 H 0.78206 0.69179 0.18792 0.0
H2014 H 0.77239 0.68622 0.1169 0.0
H2015 H 0.77936 0.69731 0.05121 0.0
H2016 H 0.88208 0.68246 0.96622 0.0
H2017 H 0.87689 0.67107 0.03128 0.0
H2018 H 0.90849 0.69309 0.08791 0.0
H2019 H 0.91391 0.70423 0.02216 0.0
H2020 H 0.90297 0.67264 0.10445 0.0
H2021 H 0.86744 0.67798 0.14267 0.0
H2022 H 0.8662 0.672 0.09033 0.0
H2023 H 0.87719 0.68578 0.10085 0.0
C2024 C 0.88792 0.68487 0.99255 0.0
C2025 C 0.89837 0.69428 0.98922 0.0
C2026 C 0.88492 0.67839 0.02984 0.0
C2027 C 0.89219 0.68137 0.06497 0.0
C2028 C 0.90271 0.69065 0.06134 0.0
H2029 H 0.87045 0.65629 0.32365 0.0
H2030 H 0.87764 0.66765 0.25896 0.0
C2031 C 0.9058 0.69702 0.02375 0.0
C2032 C 0.88886 0.67484 0.10549 0.0
H2033 H 0.86894 0.66439 0.18306 0.0
C2034 C 0.89556 0.67089 0.12181 0.0
C2035 C 0.8793 0.67272 0.12859 0.0
C2036 C 0.87219 0.67744 0.11498 0.0
C2037 C 0.89291 0.66478 0.16029 0.0
C2038 C 0.88308 0.66222 0.18224 0.0
C2039 C 0.87643 0.66625 0.16607 0.0
C2040 C 0.87953 0.65555 0.22245 0.0
C2041 C 0.90085 0.6614 0.17749 0.0
C2042 C 0.87828 0.64498 0.22371 0.0
C2043 C 0.87437 0.63855 0.26108 0.0
C2044 C 0.87137 0.64247 0.29739 0.0
C2045 C 0.87265 0.65304 0.29608 0.0
C2046 C 0.87675 0.65953 0.25911 0.0
H2047 H 0.90931 0.66688 0.16526 0.0
H2048 H 0.90106 0.66154 0.21337 0.0
H2049 H 0.89824 0.65294 0.16645 0.0
H2050 H 0.88005 0.64158 0.19549 0.0
H2051 H 0.87335 0.63038 0.26101 0.0
H2052 H 0.32157 0.20063 0.03211 0.0
H2053 H 0.33261 0.20731 0.09763 0.0
H2054 H 0.31722 0.22639 0.12869 0.0
H2055 H 0.306 0.21967 0.06312 0.0
H2056 H 0.34744 0.22929 0.12215 0.0
H2057 H 0.31299 0.20787 0.23891 0.0
H2058 H 0.31168 0.20423 0.18237 0.0
H2059 H 0.31141 0.21632 0.19917 0.0
C2060 C 0.32049 0.20624 0.05276 0.0
C2061 C 0.31284 0.20956 0.04237 0.0
C2062 C 0.32683 0.21006 0.0902 0.0
C2063 C 0.32563 0.21723 0.11818 0.0
C2064 C 0.31814 0.22072 0.10778 0.0
H2065 H 0.37154 0.25246 0.32823 0.0
H2066 H 0.35972 0.24787 0.26463 0.0
C2067 C 0.31178 0.21691 0.07019 0.0
C2068 C 0.33231 0.22103 0.15808 0.0
H2069 H 0.33068 0.21917 0.26817 0.0
C2070 C 0.34379 0.22715 0.15411 0.0
C2071 C 0.3275 0.2181 0.19961 0.0
C2072 C 0.31522 0.2112 0.20555 0.0
C2073 C 0.35061 0.23036 0.19065 0.0
C2074 C 0.3458 0.22748 0.23221 0.0
C2075 C 0.33432 0.22142 0.23622 0.0
C2076 C 0.35258 0.23029 0.27182 0.0
C2077 C 0.36291 0.23651 0.18447 0.0
C2078 C 0.35226 0.22191 0.29751 0.0
C2079 C 0.35897 0.22448 0.33397 0.0
C2080 C 0.3661 0.23551 0.34554 0.0
C2081 C 0.3662 0.24388 0.32019 0.0
C2082 C 0.35949 0.24129 0.28371 0.0
H2083 H 0.36525 0.23602 0.15058 0.0
H2084 H 0.3662 0.2453 0.19255 0.0
H2085 H 0.36688 0.23323 0.20624 0.0
H2086 H 0.34694 0.21336 0.28888 0.0
H2087 H 0.35864 0.21782 0.35278 0.0
H2088 H 0.78293 0.08171 0.04117 0.0
H2089 H 0.77682 0.08738 0.10515 0.0
H2090 H 0.79835 0.1214 0.07204 0.0
H2091 H 0.80449 0.11585 0.00778 0.0
H2092 H 0.79011 0.1008 0.17453 0.0
H2093 H 0.76799 0.11897 0.09043 0.0
H2094 H 0.77167 0.10981 0.06387 0.0
H2095 H 0.78186 0.12395 0.07252 0.0
C2096 C 0.78634 0.09041 0.04728 0.0
C2097 C 0.79418 0.09833 0.01916 0.0
C2098 C 0.78285 0.09362 0.08392 0.0
C2099 C 0.78704 0.1048 0.09299 0.0
C2100 C 0.79488 0.11273 0.06518 0.0
H2101 H 0.78534 0.13543 0.33355 0.0
H2102 H 0.79062 0.12906 0.26925 0.0
C2103 C 0.79841 0.10953 0.02857 0.0
C2104 C 0.78342 0.10815 0.13218 0.0
H2105 H 0.77035 0.12175 0.16625 0.0
C2106 C 0.78576 0.10535 0.17279 0.0
C2107 C 0.77765 0.11398 0.12967 0.0
C2108 C 0.77454 0.11679 0.08682 0.0
C2109 C 0.78265 0.10842 0.2111 0.0
C2110 C 0.77716 0.11453 0.2086 0.0
C2111 C 0.77464 0.11714 0.16798 0.0
C2112 C 0.77394 0.11827 0.24781 0.0
C2113 C 0.78515 0.10501 0.25392 0.0
C2114 C 0.76282 0.11443 0.25663 0.0
C2115 C 0.75975 0.11805 0.29333 0.0
C2116 C 0.76778 0.12567 0.32172 0.0
C2117 C 0.77893 0.12954 0.31254 0.0
C2118 C 0.78198 0.12587 0.27591 0.0
H2119 H 0.78701 0.09825 0.25017 0.0
H2120 H 0.79243 0.11214 0.26861 0.0
H2121 H 0.77814 0.10231 0.27662 0.0
H2122 H 0.7565 0.10859 0.23516 0.0
H2123 H 0.75109 0.11493 0.29925 0.0
H2124 H 0.64682 0.86235 0.69492 0.0
H2125 H 0.65795 0.86931 0.76014 0.0
H2126 H 0.64249 0.88839 0.78993 0.0
H2127 H 0.6312 0.88142 0.72468 0.0
H2128 H 0.67276 0.89162 0.78162 0.0
H2129 H 0.63917 0.87082 0.90229 0.0
H2130 H 0.63756 0.86667 0.84627 0.0
H2131 H 0.63712 0.87877 0.86162 0.0
C2132 C 0.64572 0.868 0.71532 0.0
C2133 C 0.63806 0.8713 0.70454 0.0
C2134 C 0.65212 0.87197 0.75257 0.0
C2135 C 0.65096 0.87927 0.77999 0.0
C2136 C 0.64338 0.88263 0.76944 0.0
H2137 H 0.69751 0.9175 0.98372 0.0
H2138 H 0.68538 0.91184 0.92076 0.0
C2139 C 0.63697 0.87867 0.73205 0.0
C2140 C 0.65789 0.88347 0.81915 0.0
H2141 H 0.65698 0.88277 0.92946 0.0
C2142 C 0.66932 0.88974 0.81397 0.0
C2143 C 0.65335 0.88088 0.8612 0.0
C2144 C 0.64114 0.87385 0.86846 0.0
C2145 C 0.67637 0.89348 0.84982 0.0
C2146 C 0.67184 0.89098 0.89189 0.0
C2147 C 0.6604 0.88473 0.8971 0.0
C2148 C 0.67888 0.89444 0.93087 0.0
C2149 C 0.68863 0.89984 0.84244 0.0
C2150 C 0.67904 0.88651 0.9579 0.0
C2151 C 0.68594 0.8897 0.99396 0.0
C2152 C 0.69277 0.9009 0.00381 0.0
C2153 C 0.69241 0.90882 0.97704 0.0
C2154 C 0.68552 0.9056 0.94093 0.0
H2155 H 0.69081 0.89907 0.8086 0.0
H2156 H 0.69175 0.90867 0.84915 0.0
H2157 H 0.69288 0.89695 0.8646 0.0
H2158 H 0.67394 0.87784 0.95067 0.0
H2159 H 0.68596 0.88337 0.01391 0.0
H2160 H 0.11206 0.74754 0.7209 0.0
H2161 H 0.10452 0.75103 0.78651 0.0
H2162 H 0.12137 0.78565 0.75693 0.0
H2163 H 0.12885 0.78229 0.69139 0.0
H2164 H 0.11606 0.76463 0.85687 0.0
H2165 H 0.08961 0.7784 0.77797 0.0
H2166 H 0.09517 0.77108 0.74925 0.0
H2167 H 0.10355 0.78559 0.75903 0.0
C2168 C 0.11412 0.75589 0.72821 0.0
C2169 C 0.12103 0.76463 0.70069 0.0
C2170 C 0.10981 0.75786 0.76572 0.0
C2171 C 0.11225 0.76857 0.77613 0.0
C2172 C 0.1192 0.77729 0.74898 0.0
H2173 H 0.11201 0.79928 0.01455 0.0
H2174 H 0.11617 0.79187 0.95057 0.0
C2175 C 0.12352 0.77535 0.71161 0.0
C2176 C 0.1079 0.77077 0.81613 0.0
H2177 H 0.0934 0.78265 0.85313 0.0
C2178 C 0.111 0.76845 0.85613 0.0
C2179 C 0.10117 0.77561 0.81502 0.0
C2180 C 0.09708 0.77772 0.77301 0.0
C2181 C 0.10793 0.77129 0.89511 0.0
C2182 C 0.10175 0.77672 0.8939 0.0
C2183 C 0.09825 0.7786 0.85395 0.0
C2184 C 0.09916 0.78089 0.93356 0.0
C2185 C 0.11137 0.76848 0.93721 0.0
C2186 C 0.08822 0.77735 0.94469 0.0
C2187 C 0.08579 0.78163 0.98114 0.0
C2188 C 0.09429 0.7896 0.00698 0.0
C2189 C 0.10525 0.79313 0.99559 0.0
C2190 C 0.10766 0.78884 0.95917 0.0
H2191 H 0.11311 0.76164 0.93316 0.0
H2192 H 0.119 0.77577 0.94893 0.0
H2193 H 0.10493 0.76613 0.96232 0.0
H2194 H 0.08154 0.77127 0.92513 0.0
H2195 H 0.07726 0.77873 0.98885 0.0
H2196 H 0.19223 0.307 0.99652 0.0
H2197 H 0.19947 0.31881 0.9331 0.0
H2198 H 0.22035 0.30524 0.90522 0.0
H2199 H 0.21311 0.29328 0.96863 0.0
H2200 H 0.22181 0.33471 0.91374 0.0
H2201 H 0.20302 0.30126 0.79142 0.0
H2202 H 0.19854 0.29928 0.84705 0.0
H2203 H 0.21112 0.29968 0.83284 0.0
C2204 C 0.19835 0.30648 0.97697 0.0
C2205 C 0.20204 0.29913 0.98764 0.0
C2206 C 0.2025 0.31327 0.94077 0.0
C2207 C 0.21036 0.31282 0.91432 0.0
C2208 C 0.21417 0.3056 0.92497 0.0
H2209 H 0.24613 0.36087 0.70947 0.0
H2210 H 0.24175 0.34897 0.77292 0.0
C2211 C 0.21005 0.2988 0.96131 0.0
C2212 C 0.21448 0.31992 0.87557 0.0
H2213 H 0.21399 0.31931 0.76524 0.0
C2214 C 0.22018 0.33137 0.88124 0.0
C2215 C 0.21224 0.3155 0.83331 0.0
C2216 C 0.20583 0.30326 0.8255 0.0
C2217 C 0.22362 0.33853 0.84566 0.0
C2218 C 0.22136 0.3341 0.80341 0.0
C2219 C 0.21576 0.32266 0.79774 0.0
C2220 C 0.22414 0.34119 0.7647 0.0
C2221 C 0.2293 0.35075 0.85349 0.0
C2222 C 0.21569 0.34061 0.73873 0.0
C2223 C 0.21814 0.34736 0.70251 0.0
C2224 C 0.22912 0.35481 0.69133 0.0
C2225 C 0.23759 0.35527 0.71719 0.0
C2226 C 0.23511 0.34851 0.75356 0.0
H2227 H 0.22857 0.35273 0.88768 0.0
H2228 H 0.23816 0.35446 0.84568 0.0
H2229 H 0.22582 0.35464 0.83229 0.0
H2230 H 0.20717 0.33498 0.74679 0.0
H2231 H 0.2114 0.34674 0.68333 0.0
H2232 H 0.02016 0.46985 0.67036 0.0
H2233 H 0.00839 0.46282 0.60662 0.0
H2234 H 0.0223 0.44235 0.5764 0.0
H2235 H 0.03418 0.44937 0.63992 0.0
H2236 H 0.02162 0.45474 0.50595 0.0
H2237 H 0.98125 0.43213 0.58875 0.0
H2238 H 0.98961 0.44615 0.60593 0.0
H2239 H 0.99411 0.43643 0.61625 0.0
C2240 C 0.02069 0.4638 0.65038 0.0
C2241 C 0.02812 0.46017 0.66039 0.0
C2242 C 0.0139 0.45975 0.61408 0.0
C2243 C 0.01438 0.45197 0.58717 0.0
C2244 C 0.02177 0.44832 0.59695 0.0
H2245 H 0.96867 0.41613 0.37817 0.0
H2246 H 0.98012 0.42112 0.44308 0.0
C2247 C 0.02855 0.45234 0.63332 0.0
C2248 C 0.00749 0.44799 0.54782 0.0
H2249 H 0.98088 0.43471 0.51279 0.0
C2250 C 0.01271 0.4503 0.5074 0.0
C2251 C 0.99588 0.44209 0.54991 0.0
C2252 C 0.98985 0.43895 0.59253 0.0
C2253 C 0.00662 0.44713 0.46889 0.0
C2254 C 0.99502 0.44162 0.47095 0.0
C2255 C 0.98979 0.43903 0.51137 0.0
C2256 C 0.98818 0.43862 0.43146 0.0
C2257 C 0.01265 0.44966 0.42631 0.0
C2258 C 0.98884 0.44683 0.40375 0.0
C2259 C 0.98231 0.44403 0.36669 0.0
C2260 C 0.97495 0.43295 0.35667 0.0
C2261 C 0.97426 0.42474 0.38475 0.0
C2262 C 0.98079 0.42757 0.4219 0.0
H2263 H 0.02121 0.45135 0.43043 0.0
H2264 H 0.00832 0.44275 0.40323 0.0
H2265 H 0.01301 0.45707 0.4119 0.0
H2266 H 0.99436 0.45543 0.41099 0.0
H2267 H 0.98303 0.45058 0.34596 0.0
H2268 H 0.57806 0.5456 0.35812 0.0
H2269 H 0.57328 0.55236 0.42271 0.0
H2270 H 0.53891 0.53279 0.39077 0.0
H2271 H 0.54357 0.52604 0.32599 0.0
H2272 H 0.54575 0.55484 0.4143 0.0
H2273 H 0.55906 0.5342 0.53345 0.0
H2274 H 0.56916 0.54251 0.49374 0.0
H2275 H 0.55683 0.53037 0.47707 0.0
C2276 C 0.56948 0.54272 0.36476 0.0
C2277 C 0.5612 0.53523 0.33687 0.0
C2278 C 0.56677 0.54656 0.40183 0.0
C2279 C 0.55574 0.54296 0.41175 0.0
C2280 C 0.54747 0.53563 0.38373 0.0
H2281 H 0.52558 0.54654 0.64951 0.0
H2282 H 0.53162 0.54104 0.5849 0.0
C2283 C 0.55016 0.53177 0.34674 0.0
C2284 C 0.55277 0.54687 0.45118 0.0
H2285 H 0.55327 0.54614 0.56146 0.0
C2286 C 0.54741 0.55297 0.4465 0.0
C2287 C 0.55486 0.5443 0.49306 0.0
C2288 C 0.56021 0.53741 0.49989 0.0
C2289 C 0.54411 0.55663 0.48269 0.0
C2290 C 0.54634 0.5542 0.52458 0.0
C2291 C 0.55166 0.54806 0.52926 0.0
C2292 C 0.54289 0.55765 0.56398 0.0
C2293 C 0.53804 0.56283 0.47586 0.0
C2294 C 0.54734 0.56883 0.57388 0.0
C2295 C 0.54391 0.57202 0.61083 0.0
C2296 C 0.53598 0.56408 0.63864 0.0
C2297 C 0.53167 0.55288 0.62881 0.0
C2298 C 0.53512 0.54971 0.59193 0.0
H2299 H 0.53489 0.56193 0.44229 0.0
H2300 H 0.53102 0.55994 0.49864 0.0
H2301 H 0.5437 0.5717 0.48205 0.0
H2302 H 0.55347 0.57508 0.55304 0.0
H2303 H 0.54745 0.58071 0.61744 0.0
H2304 H 0.41335 0.96528 0.65821 0.0
H2305 H 0.41792 0.97684 0.59378 0.0
H2306 H 0.45243 0.99064 0.62091 0.0
H2307 H 0.448 0.97924 0.68563 0.0
H2308 H 0.44643 0.00637 0.598 0.0
H2309 H 0.43037 0.97163 0.48143 0.0
H2310 H 0.4208 0.97063 0.5222 0.0
H2311 H 0.43286 0.9701 0.53757 0.0
C2312 C 0.42192 0.97078 0.65058 0.0
C2313 C 0.43031 0.97127 0.67705 0.0
C2314 C 0.42451 0.97735 0.61362 0.0
C2315 C 0.43551 0.98447 0.60231 0.0
C2316 C 0.44389 0.98516 0.62905 0.0
H2317 H 0.4651 0.01502 0.36114 0.0
H2318 H 0.45859 0.00416 0.4272 0.0
C2319 C 0.44132 0.97861 0.66599 0.0
C2320 C 0.43835 0.99118 0.56242 0.0
H2321 H 0.43689 0.98936 0.45233 0.0
C2322 C 0.44431 0.00267 0.56612 0.0
C2323 C 0.43566 0.9863 0.52094 0.0
C2324 C 0.42965 0.97399 0.51504 0.0
C2325 C 0.44771 0.00943 0.52934 0.0
C2326 C 0.44493 0.00455 0.48788 0.0
C2327 C 0.43892 0.99306 0.48421 0.0
C2328 C 0.44872 0.01119 0.44781 0.0
C2329 C 0.45452 0.02172 0.53509 0.0
C2330 C 0.44523 0.01868 0.43729 0.0
C2331 C 0.44896 0.02495 0.39946 0.0
C2332 C 0.4562 0.02379 0.3714 0.0
C2333 C 0.45956 0.01617 0.38195 0.0
C2334 C 0.45583 0.00992 0.41969 0.0
H2335 H 0.45788 0.024 0.56837 0.0
H2336 H 0.46145 0.02532 0.51176 0.0
H2337 H 0.44931 0.02545 0.52889 0.0
H2338 H 0.43959 0.01964 0.45825 0.0
H2339 H 0.44616 0.03069 0.39227 0.0
H2340 H 0.5383 0.98821 0.65468 0.0
H2341 H 0.54428 -0.00125 0.5876 0.0
H2342 H 0.55013 0.97406 0.53116 0.0
H2343 H 0.54462 0.9637 0.59898 0.0
H2344 H 0.56612 0.99364 0.51053 0.0
H2345 H 0.52684 0.99253 0.4794 0.0
H2346 H 0.53246 -0.00136 0.53078 0.0
H2347 H 0.52827 0.98442 0.52132 0.0
C2348 C 0.54085 0.98501 0.62796 0.0
C2349 C 0.54091 0.97508 0.63199 0.0
C2350 C 0.54419 0.99101 0.58949 0.0
C2351 C 0.54737 0.98706 0.55388 0.0
C2352 C 0.54763 0.97723 0.55809 0.0
H2353 H 0.55187 0.0144 0.29699 0.0
H2354 H 0.54667 0.00231 0.35997 0.0
C2355 C 0.54448 0.97133 0.59685 0.0
C2356 C 0.5506 0.99326 0.51252 0.0
H2357 H 0.54226 0.00542 0.43776 0.0
C2358 C 0.56086 0.99613 0.49439 0.0
C2359 C 0.54366 0.99632 0.49091 0.0
C2360 C 0.53215 0.99271 0.50636 0.0
C2361 C 0.56447 0.00221 0.45588 0.0
C2362 C 0.55781 0.00586 0.43577 0.0
C2363 C 0.54745 0.00276 0.45339 0.0
C2364 C 0.56137 0.01291 0.39655 0.0
C2365 C 0.57528 0.00444 0.43685 0.0
C2366 C 0.57137 0.02291 0.396 0.0
C2367 C 0.57446 0.02973 0.35966 0.0
C2368 C 0.56746 0.02683 0.32363 0.0
C2369 C 0.55742 0.01687 0.32432 0.0
C2370 C 0.55444 0.00996 0.36031 0.0
H2371 H 0.57738 0.99813 0.44713 0.0
H2372 H 0.57513 0.00461 0.40098 0.0
H2373 H 0.58192 0.01253 0.44852 0.0
H2374 H 0.5767 0.02556 0.424 0.0
H2375 H 0.58218 0.03742 0.3603 0.0
H2376 H 0.97385 0.5284 0.33785 0.0
H2377 H 0.98518 0.53664 0.40172 0.0
H2378 H 0.96997 0.5564 0.42156 0.0
H2379 H 0.95843 0.5481 0.35772 0.0
H2380 H 0.00018 0.55902 0.41863 0.0
H2381 H 0.9661 0.54075 0.53859 0.0
H2382 H 0.96447 0.53582 0.4837 0.0
H2383 H 0.96465 0.54844 0.49513 0.0
C2384 C 0.97286 0.53448 0.35572 0.0
C2385 C 0.96517 0.53754 0.3427 0.0
C2386 C 0.97939 0.53921 0.39218 0.0
C2387 C 0.97835 0.54705 0.41649 0.0
C2388 C 0.97078 0.55024 0.40351 0.0
H2389 H 0.02619 0.58208 0.62516 0.0
H2390 H 0.01454 0.57881 0.56155 0.0
C2391 C 0.96422 0.5455 0.36696 0.0
C2392 C 0.9852 0.55176 0.45556 0.0
H2393 H 0.98399 0.55168 0.56575 0.0
C2394 C 0.99667 0.55754 0.45083 0.0
C2395 C 0.98054 0.54974 0.49741 0.0
C2396 C 0.96827 0.54329 0.50433 0.0
C2397 C 0.00364 0.56108 0.48697 0.0
C2398 C -0.00102 0.55887 0.52883 0.0
C2399 C 0.98751 0.5534 0.53353 0.0
C2400 C 0.00579 0.5611 0.56805 0.0
C2401 C 0.0159 0.56664 0.48015 0.0
C2402 C 0.00456 0.55225 0.59313 0.0
C2403 C 0.01114 0.55408 0.62938 0.0
C2404 C 0.0191 0.56481 0.64147 0.0
C2405 C 0.0202 0.57371 0.61665 0.0
C2406 C 0.01357 0.57186 0.58023 0.0
H2407 H 0.01805 0.56605 0.44608 0.0
H2408 H 0.01968 0.57547 0.48861 0.0
H2409 H 0.01956 0.56295 0.50143 0.0
H2410 H -0.0014 0.54389 0.58423 0.0
H2411 H 0.01002 0.54702 0.64772 0.0
H2412 H 0.44058 0.41236 0.35473 0.0
H2413 H 0.43259 0.41587 0.4189 0.0
H2414 H 0.45147 0.4507 0.39417 0.0
H2415 H 0.4594 0.44733 0.33004 0.0
H2416 H 0.44386 0.42832 0.49125 0.0
H2417 H 0.42034 0.44545 0.41227 0.0
H2418 H 0.42538 0.43774 0.38304 0.0
H2419 H 0.4344 0.45206 0.39486 0.0
C2420 C 0.44296 0.42076 0.36271 0.0
C2421 C 0.45062 0.42956 0.33711 0.0
C2422 C 0.43839 0.42275 0.39938 0.0
C2423 C 0.44131 0.43353 0.41081 0.0
C2424 C 0.44892 0.4423 0.38535 0.0
H2425 H 0.44442 0.46543 0.64691 0.0
H2426 H 0.44698 0.45661 0.58369 0.0
C2427 C 0.4535 0.44035 0.34882 0.0
C2428 C 0.43693 0.43577 0.45064 0.0
H2429 H 0.42424 0.44946 0.48788 0.0
C2430 C 0.43942 0.43279 0.49056 0.0
C2431 C 0.43099 0.44144 0.4496 0.0
C2432 C 0.42751 0.44426 0.40761 0.0
C2433 C 0.43665 0.43589 0.5296 0.0
C2434 C 0.43142 0.44225 0.52851 0.0
C2435 C 0.42838 0.44469 0.48861 0.0
C2436 C 0.42967 0.44708 0.56813 0.0
C2437 C 0.4395 0.43245 0.57162 0.0
C2438 C 0.4191 0.44481 0.57987 0.0
C2439 C 0.41759 0.4499 0.61596 0.0
C2440 C 0.42666 0.45744 0.6407 0.0
C2441 C 0.43724 0.45965 0.62879 0.0
C2442 C 0.43872 0.45455 0.5928 0.0
H2443 H 0.44022 0.42499 0.5674 0.0
H2444 H 0.44753 0.43916 0.5833 0.0
H2445 H 0.43322 0.43079 0.59681 0.0
H2446 H 0.41202 0.43913 0.56097 0.0
H2447 H 0.40934 0.44802 0.62413 0.0
H2448 H 0.10775 0.31741 0.18101 0.0
H2449 H 0.10839 0.32909 0.24023 0.0
H2450 H 0.07299 0.31163 0.2463 0.0
H2451 H 0.07223 0.2997 0.18681 0.0
H2452 H 0.09882 0.34278 0.25193 0.0
H2453 H 0.08314 0.30776 0.36807 0.0
H2454 H 0.08799 0.30693 0.31498 0.0
H2455 H 0.07503 0.30638 0.32097 0.0
C2456 C 0.10007 0.31607 0.19456 0.0
C2457 C 0.08994 0.30751 0.17953 0.0
C2458 C 0.10046 0.32281 0.22829 0.0
C2459 C 0.09075 0.32114 0.24786 0.0
C2460 C 0.08058 0.31295 0.23183 0.0
H2461 H 0.10676 0.36734 0.46739 0.0
H2462 H 0.09571 0.356 0.40646 0.0
C2463 C 0.08017 0.30618 0.1978 0.0
C2464 C 0.0916 0.32753 0.28707 0.0
H2465 H 0.09123 0.32548 0.39701 0.0
C2466 C 0.09688 0.33902 0.28372 0.0
C2467 C 0.08908 0.32254 0.32836 0.0
C2468 C 0.08354 0.31024 0.33371 0.0
C2469 C 0.10047 0.3457 0.32067 0.0
C2470 C 0.09862 0.34072 0.36183 0.0
C2471 C 0.09259 0.32923 0.36529 0.0
C2472 C 0.10454 0.34712 0.40047 0.0
C2473 C 0.10699 0.35802 0.31535 0.0
C2474 C 0.11297 0.3457 0.41761 0.0
C2475 C 0.11927 0.35211 0.45212 0.0
C2476 C 0.11724 0.36009 0.47041 0.0
C2477 C 0.10856 0.3613 0.45393 0.0
C2478 C 0.10226 0.35486 0.41911 0.0
H2479 H 0.10844 0.36054 0.28083 0.0
H2480 H 0.10249 0.36176 0.33063 0.0
H2481 H 0.11506 0.36139 0.33184 0.0
H2482 H 0.11486 0.33976 0.40356 0.0
H2483 H 0.12582 0.35088 0.46408 0.0
H2484 H 0.64781 0.76885 0.48611 0.0
H2485 H 0.65888 0.77059 0.42263 0.0
H2486 H 0.63602 0.73702 0.38755 0.0
H2487 H 0.625 0.7351 0.45222 0.0
H2488 H 0.65892 0.74431 0.36735 0.0
H2489 H 0.64513 0.7726 0.30756 0.0
H2490 H 0.65174 0.77661 0.3593 0.0
H2491 H 0.639 0.76383 0.35391 0.0
C2492 C 0.64526 0.76176 0.4654 0.0
C2493 C 0.63547 0.7519 0.47356 0.0
C2494 C 0.65159 0.76276 0.4292 0.0
C2495 C 0.64811 0.75402 0.39998 0.0
C2496 C 0.63879 0.74388 0.40969 0.0
H2497 H 0.6726 0.77558 0.14128 0.0
H2498 H 0.66007 0.76433 0.19876 0.0
C2499 C 0.63252 0.7428 0.44653 0.0
C2500 C 0.65351 0.75603 0.35728 0.0
H2501 H 0.66007 0.77294 0.27012 0.0
C2502 C 0.65908 0.75046 0.34565 0.0
C2503 C 0.65344 0.76382 0.3286 0.0
C2504 C 0.64691 0.76948 0.3377 0.0
C2505 C 0.66509 0.75293 0.30683 0.0
C2506 C 0.6657 0.76134 0.27972 0.0
C2507 C 0.65968 0.76651 0.29075 0.0
C2508 C 0.67292 0.76553 0.24108 0.0
C2509 C 0.67068 0.74648 0.29537 0.0
C2510 C 0.68428 0.76951 0.24467 0.0
C2511 C 0.6914 0.77565 0.21114 0.0
C2512 C 0.68728 0.77817 0.17425 0.0
C2513 C 0.67592 0.77372 0.16958 0.0
C2514 C 0.66878 0.76731 0.20242 0.0
H2515 H 0.6662 0.73807 0.30931 0.0
H2516 H 0.67128 0.74582 0.25982 0.0
H2517 H 0.67909 0.75067 0.30918 0.0
H2518 H 0.68774 0.76854 0.27446 0.0
H2519 H 0.70017 0.77915 0.2155 0.0
H2520 H 0.22781 0.92569 0.17949 0.0
H2521 H 0.23968 0.92638 0.23913 0.0
H2522 H 0.22564 0.89123 0.23122 0.0
H2523 H 0.21386 0.89046 0.17212 0.0
H2524 H 0.23124 0.91544 0.31728 0.0
H2525 H 0.25839 0.90195 0.24472 0.0
H2526 H 0.25142 0.9074 0.21277 0.0
H2527 H 0.2444 0.89314 0.22846 0.0
C2528 C 0.22746 0.91815 0.18987 0.0
C2529 C 0.21985 0.908 0.17131 0.0
C2530 C 0.23423 0.91857 0.22389 0.0
C2531 C 0.23365 0.90888 0.23913 0.0
C2532 C 0.22641 0.89884 0.21934 0.0
H2533 H 0.22728 0.87575 0.4603 0.0
H2534 H 0.22738 0.88739 0.40188 0.0
C2535 C 0.21959 0.8984 0.18582 0.0
C2536 C 0.2394 0.90881 0.27907 0.0
H2537 H 0.25344 0.89694 0.32059 0.0
C2538 C 0.23639 0.91172 0.31801 0.0
C2539 C 0.24628 0.90416 0.28003 0.0
C2540 C 0.25041 0.9016 0.23914 0.0
C2541 C 0.23911 0.90899 0.35795 0.0
C2542 C 0.24485 0.90311 0.35872 0.0
C2543 C 0.24888 0.9013 0.31995 0.0
C2544 C 0.2451 0.8972 0.39785 0.0
C2545 C 0.23528 0.91186 0.3989 0.0
C2546 C 0.25505 0.8988 0.41487 0.0
C2547 C 0.25503 0.8921 0.44845 0.0
C2548 C 0.24504 0.88357 0.46485 0.0
C2549 C 0.23511 0.8822 0.44834 0.0
C2550 C 0.23515 0.88893 0.4152 0.0
H2551 H 0.2347 0.91941 0.39451 0.0
H2552 H 0.22696 0.90504 0.4073 0.0
H2553 H 0.2409 0.91313 0.42632 0.0
H2554 H 0.26281 0.90506 0.40151 0.0
H2555 H 0.26281 0.89335 0.4604 0.0
H2556 H 0.35713 0.10073 0.49893 0.0
H2557 H 0.34555 0.08915 0.55837 0.0
H2558 H 0.32531 0.10411 0.54757 0.0
H2559 H 0.33668 0.11557 0.48851 0.0
H2560 H 0.34297 0.09742 0.63568 0.0
H2561 H 0.30243 0.07175 0.56012 0.0
H2562 H 0.31498 0.07856 0.52894 0.0
H2563 H 0.30803 0.08586 0.5448 0.0
C2564 C 0.35007 0.10137 0.50867 0.0
C2565 C 0.34786 0.10911 0.48915 0.0
C2566 C 0.34348 0.09475 0.54259 0.0
C2567 C 0.33447 0.09565 0.55689 0.0
C2568 C 0.33205 0.10309 0.53639 0.0
H2569 H 0.30789 0.10205 0.77982 0.0
H2570 H 0.31924 0.10186 0.72091 0.0
C2571 C 0.33865 0.10973 0.50287 0.0
C2572 C 0.32833 0.08994 0.59643 0.0
H2573 H 0.30221 0.07651 0.63616 0.0
C2574 C 0.33407 0.09255 0.63577 0.0
C2575 C 0.31675 0.0834 0.59656 0.0
C2576 C 0.31021 0.07963 0.55522 0.0
C2577 C 0.32844 0.08979 0.67534 0.0
C2578 C 0.31684 0.08443 0.67535 0.0
C2579 C 0.31112 0.08079 0.63612 0.0
C2580 C 0.31061 0.08415 0.71439 0.0
C2581 C 0.33499 0.09313 0.71673 0.0
C2582 C 0.30189 0.07424 0.73007 0.0
C2583 C 0.2953 0.07431 0.76391 0.0
C2584 C 0.29724 0.08433 0.78197 0.0
C2585 C 0.30613 0.09419 0.76663 0.0
C2586 C 0.31272 0.0941 0.7332 0.0
H2587 H 0.34293 0.09331 0.7126 0.0
H2588 H 0.33687 0.10154 0.72573 0.0
H2589 H 0.33036 0.08746 0.74365 0.0
H2590 H 0.30006 0.06649 0.71559 0.0
H2591 H 0.2885 0.06658 0.77492 0.0
H2592 H 0.88954 0.2088 0.81703 0.0
H2593 H 0.88976 0.2202 0.75749 0.0
H2594 H 0.92519 0.2377 0.75747 0.0
H2595 H 0.92509 0.22616 0.81733 0.0
H2596 H 0.89973 0.24352 0.74768 0.0
H2597 H 0.91632 0.22459 0.63378 0.0
H2598 H 0.91083 0.21857 0.68589 0.0
H2599 H 0.9239 0.23095 0.68235 0.0
C2600 C 0.89741 0.21511 0.80474 0.0
C2601 C 0.9073 0.21646 0.82163 0.0
C2602 C 0.89751 0.22167 0.7708 0.0
C2603 C 0.90748 0.2297 0.75284 0.0
C2604 C 0.91741 0.23145 0.77066 0.0
H2605 H 0.89239 0.26076 0.53384 0.0
H2606 H 0.90368 0.26046 0.59391 0.0
C2607 C 0.91733 0.22487 0.80491 0.0
C2608 C 0.90715 0.23555 0.71357 0.0
H2609 H 0.90855 0.23441 0.60373 0.0
C2610 C 0.90194 0.24183 0.71617 0.0
C2611 C 0.91004 0.23327 0.67265 0.0
C2612 C 0.91555 0.22645 0.66809 0.0
C2613 C 0.89874 0.24515 0.67876 0.0
C2614 C 0.90092 0.24218 0.63783 0.0
C2615 C 0.90693 0.23668 0.63524 0.0
C2616 C 0.89521 0.24272 0.59854 0.0
C2617 C 0.89221 0.25096 0.6833 0.0
C2618 C 0.88699 0.23287 0.58054 0.0
C2619 C 0.88057 0.233 0.54651 0.0
C2620 C 0.88226 0.24301 0.52954 0.0
C2621 C 0.89085 0.25291 0.54631 0.0
C2622 C 0.89728 0.25276 0.58068 0.0
H2623 H 0.89041 0.25181 0.7176 0.0
H2624 H 0.8969 0.2593 0.669 0.0
H2625 H 0.88432 0.24642 0.6655 0.0
H2626 H 0.88527 0.22503 0.59388 0.0
H2627 H 0.87412 0.22521 0.53417 0.0
H2628 H 0.76828 0.69763 0.82126 0.0
H2629 H 0.75646 0.68629 0.76186 0.0
H2630 H 0.77043 0.66515 0.77202 0.0
H2631 H 0.78215 0.67631 0.83097 0.0
H2632 H 0.7649 0.68358 0.68446 0.0
H2633 H 0.73773 0.64311 0.75842 0.0
H2634 H 0.74476 0.65558 0.78995 0.0
H2635 H 0.75174 0.64829 0.7744 0.0
C2636 C 0.76864 0.69041 0.81145 0.0
C2637 C 0.7762 0.68789 0.83062 0.0
C2638 C 0.76189 0.68396 0.77754 0.0
C2639 C 0.76246 0.6748 0.76298 0.0
C2640 C 0.76967 0.67203 0.78336 0.0
H2641 H 0.76757 0.64723 0.53982 0.0
H2642 H 0.76807 0.65882 0.59922 0.0
C2643 C 0.77645 0.6785 0.81682 0.0
C2644 C 0.75673 0.66888 0.72316 0.0
H2645 H 0.74243 0.64289 0.68244 0.0
C2646 C 0.7597 0.67471 0.68402 0.0
C2647 C 0.7498 0.65734 0.72259 0.0
C2648 C 0.74573 0.65074 0.7637 0.0
C2649 C 0.75684 0.66919 0.64425 0.0
C2650 C 0.75099 0.65757 0.64383 0.0
C2651 C 0.74706 0.65181 0.68282 0.0
C2652 C 0.7504 0.6513 0.60456 0.0
C2653 C 0.7606 0.6758 0.60308 0.0
C2654 C 0.74028 0.64315 0.58802 0.0
C2655 C 0.73996 0.63645 0.55387 0.0
C2656 C 0.74976 0.63769 0.53639 0.0
C2657 C 0.75986 0.64603 0.55258 0.0
C2658 C 0.76017 0.65274 0.58629 0.0
H2659 H 0.76141 0.68403 0.60747 0.0
H2660 H 0.7688 0.67708 0.59401 0.0
H2661 H 0.75481 0.6715 0.57608 0.0
H2662 H 0.73265 0.64183 0.60207 0.0
H2663 H 0.73204 0.63007 0.54221 0.0
H2664 H 0.88996 0.63238 0.50286 0.0
H2665 H 0.90191 0.64314 0.56312 0.0
H2666 H 0.88687 0.66341 0.56362 0.0
H2667 H 0.87508 0.6529 0.50379 0.0
H2668 H 0.91047 0.67513 0.57354 0.0
H2669 H 0.88865 0.63975 0.6868 0.0
H2670 H 0.8946 0.63796 0.63808 0.0
H2671 H 0.88292 0.63987 0.63474 0.0
C2672 C 0.88932 0.63923 0.51548 0.0
C2673 C 0.88147 0.64171 0.49888 0.0
C2674 C 0.89612 0.64533 0.54994 0.0
C2675 C 0.89518 0.65399 0.56796 0.0
C2676 C 0.88772 0.65676 0.5501 0.0
H2677 H 0.89137 0.68429 0.78091 0.0
H2678 H 0.891 0.67249 0.7227 0.0
C2679 C 0.88094 0.65069 0.51603 0.0
C2680 C 0.90122 0.65981 0.60743 0.0
H2681 H 0.89901 0.65725 0.71715 0.0
C2682 C 0.90829 0.67121 0.60503 0.0
C2683 C 0.8983 0.65461 0.64829 0.0
C2684 C 0.89068 0.64238 0.65256 0.0
C2685 C 0.91171 0.67771 0.64248 0.0
C2686 C 0.90804 0.6726 0.68322 0.0
C2687 C 0.9018 0.6611 0.68577 0.0
C2688 C 0.90859 0.67905 0.72185 0.0
C2689 C 0.91838 0.69004 0.63802 0.0
C2690 C 0.91861 0.68651 0.7413 0.0
C2691 C 0.91887 0.69335 0.77476 0.0
C2692 C 0.9091 0.69283 0.78904 0.0
C2693 C 0.89906 0.68501 0.7705 0.0
C2694 C 0.89882 0.6782 0.73735 0.0
H2695 H 0.91986 0.69272 0.60369 0.0
H2696 H 0.91411 0.69391 0.65417 0.0
H2697 H 0.92646 0.69312 0.6541 0.0
H2698 H 0.92622 0.6872 0.72998 0.0
H2699 H 0.92673 0.69925 0.78852 0.0
H2700 H 0.30668 0.22989 0.83223 0.0
H2701 H 0.31829 0.24093 0.77177 0.0
H2702 H 0.33596 0.22319 0.77694 0.0
H2703 H 0.32456 0.21225 0.83701 0.0
H2704 H 0.34943 0.24673 0.76489 0.0
H2705 H 0.31425 0.22646 0.64991 0.0
H2706 H 0.31278 0.23305 0.69732 0.0
H2707 H 0.31371 0.22084 0.7029 0.0
C2708 C 0.31314 0.22846 0.82085 0.0
C2709 C 0.31461 0.22011 0.8391 0.0
C2710 C 0.31973 0.23475 0.78626 0.0
C2711 C 0.32789 0.23278 0.76973 0.0
C2712 C 0.32969 0.22482 0.78926 0.0
H2713 H 0.35821 0.22786 0.5543 0.0
H2714 H 0.34673 0.22747 0.61391 0.0
C2715 C 0.32312 0.21853 0.82349 0.0
C2716 C 0.33414 0.23829 0.73021 0.0
H2717 H 0.33191 0.23621 0.62036 0.0
C2718 C 0.34562 0.24473 0.7332 0.0
C2719 C 0.32908 0.23558 0.68908 0.0
C2720 C 0.31678 0.22857 0.6842 0.0
C2721 C 0.35224 0.24786 0.69607 0.0
C2722 C 0.3472 0.24451 0.65507 0.0
C2723 C 0.3357 0.23878 0.65194 0.0
C2724 C 0.35364 0.24509 0.61637 0.0
C2725 C 0.36457 0.25395 0.70108 0.0
C2726 C 0.36122 0.25516 0.59751 0.0
C2727 C 0.36786 0.25543 0.56321 0.0
C2728 C 0.36703 0.24564 0.5475 0.0
C2729 C 0.35916 0.23557 0.56575 0.0
C2730 C 0.35253 0.23532 0.59973 0.0
H2731 H 0.36715 0.25514 0.73553 0.0
H2732 H 0.36811 0.24939 0.68464 0.0
H2733 H 0.36809 0.26214 0.68559 0.0
H2734 H 0.36211 0.26278 0.60976 0.0
H2735 H 0.37381 0.26331 0.54975 0.0
H2736 H 0.771 0.06988 0.81454 0.0
H2737 H 0.76024 0.07087 0.75389 0.0
H2738 H 0.78053 0.10616 0.75256 0.0
H2739 H 0.79124 0.10531 0.81276 0.0
H2740 H 0.75679 0.09741 0.74289 0.0
H2741 H 0.7745 0.07938 0.62994 0.0
H2742 H 0.76805 0.07212 0.67904 0.0
H2743 H 0.78072 0.08494 0.68173 0.0
C2744 C 0.77307 0.07786 0.80169 0.0
C2745 C 0.78206 0.08752 0.81816 0.0
C2746 C 0.76694 0.07839 0.76701 0.0
C2747 C 0.76968 0.08858 0.74864 0.0
C2748 C 0.7783 0.09823 0.76634 0.0
H2749 H 0.7746 0.12255 0.52835 0.0
H2750 H 0.77504 0.11172 0.58897 0.0
C2751 C 0.78445 0.09771 0.80064 0.0
C2752 C 0.76423 0.08941 0.70911 0.0
H2753 H 0.76538 0.08784 0.59932 0.0
C2754 C 0.75837 0.09505 0.71147 0.0
C2755 C 0.76639 0.08635 0.66832 0.0
C2756 C 0.77279 0.08039 0.66418 0.0
C2757 C 0.75523 0.09837 0.67389 0.0
C2758 C 0.75802 0.09592 0.6331 0.0
C2759 C 0.76322 0.08964 0.63075 0.0
C2760 C 0.75739 0.10145 0.59345 0.0
C2761 C 0.74974 0.10521 0.67801 0.0
C2762 C 0.74729 0.09907 0.57528 0.0
C2763 C 0.74699 0.10527 0.54035 0.0
C2764 C 0.7568 0.11396 0.52342 0.0
C2765 C 0.76689 0.11599 0.5408 0.0
C2766 C 0.76717 0.10977 0.57534 0.0
H2767 H 0.74889 0.10707 0.71223 0.0
H2768 H 0.75453 0.11308 0.66023 0.0
H2769 H 0.74143 0.10074 0.66336 0.0
H2770 H 0.73966 0.09261 0.58871 0.0
H2771 H 0.73909 0.10349 0.52763 0.0
H2772 H 0.70397 0.92823 0.22958 0.0
H2773 H 0.69302 0.92555 0.29513 0.0
H2774 H 0.66933 0.89294 0.252 0.0
H2775 H 0.68046 0.89538 0.18781 0.0
H2776 H 0.67156 0.9197 0.31792 0.0
H2777 H 0.68096 0.88717 0.36299 0.0
H2778 H 0.68758 0.89637 0.31825 0.0
H2779 H 0.67414 0.88447 0.31174 0.0
C2780 C 0.69631 0.92059 0.23381 0.0
C2781 C 0.69313 0.91193 0.20424 0.0
C2782 C 0.69007 0.91907 0.27118 0.0
C2783 C 0.68054 0.90893 0.27891 0.0
C2784 C 0.67683 0.90071 0.2472 0.0
H2785 H 0.62944 0.88627 0.46963 0.0
H2786 H 0.64193 0.89641 0.41022 0.0
C2787 C 0.68316 0.90212 0.21051 0.0
C2788 C 0.67505 0.90644 0.3216 0.0
H2789 H 0.66685 0.88775 0.40329 0.0
C2790 C 0.67061 0.9128 0.33697 0.0
C2791 C 0.67412 0.89764 0.34699 0.0
C2792 C 0.67956 0.8911 0.3344 0.0
C2793 C 0.66481 0.91025 0.37631 0.0
C2794 C 0.66318 0.90092 0.40007 0.0
C2795 C 0.668 0.89486 0.38521 0.0
C2796 C 0.65618 0.89684 0.43935 0.0
C2797 C 0.6606 0.91762 0.39201 0.0
C2798 C 0.65997 0.89372 0.47576 0.0
C2799 C 0.65273 0.88755 0.50873 0.0
C2800 C 0.64165 0.88468 0.50657 0.0
C2801 C 0.63801 0.88852 0.47208 0.0
C2802 C 0.64518 0.89441 0.4383 0.0
H2803 H 0.66584 0.92616 0.38012 0.0
H2804 H 0.65219 0.91458 0.37916 0.0
H2805 H 0.66028 0.91778 0.42785 0.0
H2806 H 0.66841 0.89552 0.47748 0.0
H2807 H 0.6557 0.88467 0.53517 0.0
H2808 H 0.11452 0.77199 0.50032 0.0
H2809 H 0.10261 0.77112 0.44166 0.0
H2810 H 0.08917 0.73608 0.43221 0.0
H2811 H 0.10123 0.73688 0.49124 0.0
H2812 H 0.09701 0.74673 0.35488 0.0
H2813 H 0.07009 0.76038 0.42783 0.0
H2814 H 0.08408 0.76942 0.44335 0.0
H2815 H 0.0773 0.75522 0.45991 0.0
C2816 C 0.10891 0.76405 0.4864 0.0
C2817 C 0.10888 0.75451 0.50026 0.0
C2818 C 0.102 0.76355 0.45312 0.0
C2819 C 0.09488 0.75351 0.43302 0.0
C2820 C 0.09453 0.74388 0.44768 0.0
H2821 H 0.06585 0.7695 0.21261 0.0
H2822 H 0.06567 0.75776 0.27174 0.0
C2823 C 0.10141 0.74436 0.48136 0.0
C2824 C 0.08905 0.75355 0.39322 0.0
H2825 H 0.07513 0.76556 0.35185 0.0
C2826 C 0.09192 0.75052 0.35424 0.0
C2827 C 0.08222 0.75827 0.39233 0.0
C2828 C 0.07815 0.76089 0.43323 0.0
C2829 C 0.08916 0.75322 0.31433 0.0
C2830 C 0.08355 0.75922 0.31361 0.0
C2831 C 0.07961 0.76113 0.35243 0.0
C2832 C 0.08335 0.76516 0.27444 0.0
C2833 C 0.09282 0.75017 0.27336 0.0
C2834 C 0.09334 0.77318 0.25649 0.0
C2835 C 0.09349 0.77992 0.22317 0.0
C2836 C 0.08363 0.77881 0.2071 0.0
C2837 C 0.07358 0.77054 0.2242 0.0
C2838 C 0.07346 0.76382 0.25792 0.0
H2839 H 0.09315 0.74249 0.2778 0.0
H2840 H 0.08724 0.74904 0.24596 0.0
H2841 H 0.10122 0.75682 0.26491 0.0
H2842 H 0.10109 0.77454 0.26945 0.0
H2843 H 0.10136 0.78617 0.21072 0.0
H2844 H 0.21178 0.31433 0.15853 0.0
H2845 H 0.22142 0.32698 0.21799 0.0
H2846 H 0.2231 0.30104 0.28628 0.0
H2847 H 0.21412 0.28862 0.22525 0.0
H2848 H 0.21282 0.32473 0.29153 0.0
H2849 H 0.25224 0.3259 0.31873 0.0
H2850 H 0.24425 0.3202 0.2702 0.0
H2851 H 0.24101 0.31203 0.31869 0.0
C2852 C 0.21455 0.31147 0.18569 0.0
C2853 C 0.21226 0.30056 0.18755 0.0
C2854 C 0.22003 0.31868 0.21968 0.0
C2855 C 0.22304 0.31501 0.25674 0.0
C2856 C 0.22116 0.3042 0.25773 0.0
H2857 H 0.22034 0.34051 0.50611 0.0
H2858 H 0.21794 0.32894 0.44342 0.0
C2859 C 0.21595 0.29707 0.22301 0.0
C2860 C 0.22657 0.32197 0.29624 0.0
H2861 H 0.24523 0.33154 0.37887 0.0
C2862 C 0.22002 0.32632 0.31015 0.0
C2863 C 0.23599 0.32415 0.32063 0.0
C2864 C 0.24383 0.32042 0.306 0.0
C2865 C 0.22246 0.33261 0.34784 0.0
C2866 C 0.23144 0.33419 0.37372 0.0
C2867 C 0.23821 0.33011 0.35945 0.0
C2868 C 0.23382 0.34011 0.41548 0.0
C2869 C 0.21544 0.33762 0.35908 0.0
C2870 C 0.24388 0.34981 0.42223 0.0
C2871 C 0.24538 0.3563 0.45875 0.0
C2872 C 0.23678 0.35322 0.48854 0.0
C2873 C 0.22703 0.34315 0.48321 0.0
C2874 C 0.22563 0.33657 0.44734 0.0
H2875 H 0.21133 0.33855 0.33001 0.0
H2876 H 0.20892 0.33215 0.38207 0.0
H2877 H 0.22039 0.34581 0.37436 0.0
H2878 H 0.25034 0.35264 0.39819 0.0
H2879 H 0.25299 0.36403 0.46222 0.0
H2880 H 0.0369 0.44043 0.86832 0.0
H2881 H 0.02538 0.42919 0.92853 0.0
H2882 H 0.00732 0.44655 0.92462 0.0
H2883 H 0.01869 0.45775 0.86491 0.0
H2884 H 0.02377 0.43799 0.00901 0.0
H2885 H 0.983 0.41407 0.93202 0.0
H2886 H 0.99565 0.42039 0.90139 0.0
H2887 H 0.98953 0.42838 0.91835 0.0
C2888 C 0.03035 0.44172 0.87986 0.0
C2889 C 0.02873 0.45002 0.86194 0.0
C2890 C 0.0238 0.4353 0.91422 0.0
C2891 C 0.01541 0.43694 0.93053 0.0
C2892 C 0.01361 0.445 0.91191 0.0
H2893 H 0.98785 0.44076 0.15692 0.0
H2894 H -0.00039 0.44153 0.09766 0.0
C2895 C 0.02019 0.45147 0.878 0.0
C2896 C 0.00917 0.43111 0.96966 0.0
H2897 H 0.98301 0.41755 0.00895 0.0
C2898 C 0.01486 0.43325 0.00896 0.0
C2899 C -0.00243 0.42478 0.96947 0.0
C2900 C 0.99109 0.42167 0.92794 0.0
C2901 C 0.0092 0.4301 0.04844 0.0
C2902 C -0.0024 0.42479 0.04839 0.0
C2903 C 0.99191 0.42173 0.00895 0.0
C2904 C 0.99134 0.42392 0.08806 0.0
C2905 C 0.01569 0.43295 0.08992 0.0
C2906 C 0.98276 0.41375 0.10235 0.0
C2907 C 0.97598 0.41327 0.13646 0.0
C2908 C 0.97756 0.423 0.15608 0.0
C2909 C 0.98638 0.43312 0.14241 0.0
C2910 C 0.99318 0.43357 0.10878 0.0
H2911 H 0.02374 0.4334 0.08496 0.0
H2912 H 0.01734 0.44113 0.10121 0.0
H2913 H 0.01109 0.42683 0.11564 0.0
H2914 H 0.98114 0.40622 0.08639 0.0
H2915 H 0.96923 0.40535 0.14616 0.0
H2916 H 0.55416 0.53889 0.13069 0.0
H2917 H 0.55416 0.55002 0.07043 0.0
H2918 H 0.58958 0.56787 0.06977 0.0
H2919 H 0.58971 0.55664 0.13042 0.0
H2920 H 0.56436 0.57369 0.05949 0.0
H2921 H 0.5801 0.55374 0.9467 0.0
H2922 H 0.57453 0.54792 0.999 0.0
H2923 H 0.58776 0.56009 0.99516 0.0
C2924 C 0.56198 0.54523 0.11812 0.0
C2925 C 0.57194 0.54678 0.13506 0.0
C2926 C 0.56195 0.55163 0.08379 0.0
C2927 C 0.57186 0.55968 0.06546 0.0
C2928 C 0.58185 0.56161 0.08332 0.0
H2929 H 0.55895 0.59182 0.84439 0.0
H2930 H 0.56962 0.5907 0.90513 0.0
C2931 C 0.5819 0.55522 0.11802 0.0
C2932 C 0.57144 0.56533 0.0258 0.0
H2933 H 0.57267 0.56382 0.91602 0.0
C2934 C 0.56645 0.57182 0.02808 0.0
C2935 C 0.57415 0.56279 0.98502 0.0
C2936 C 0.5794 0.55573 0.9809 0.0
C2937 C 0.5634 0.57522 0.99047 0.0
C2938 C 0.56548 0.57207 0.94971 0.0
C2939 C 0.57116 0.56624 0.94741 0.0
C2940 C 0.56009 0.57299 0.91013 0.0
C2941 C 0.55721 0.58139 0.99459 0.0
C2942 C 0.55146 0.56339 0.8922 0.0
C2943 C 0.54537 0.56398 0.85782 0.0
C2944 C 0.54783 0.5742 0.84044 0.0
C2945 C 0.55683 0.58382 0.85714 0.0
C2946 C 0.56291 0.58321 0.89188 0.0
H2947 H 0.55549 0.5824 0.02881 0.0
H2948 H 0.56211 0.58966 0.97993 0.0
H2949 H 0.5493 0.577 0.97684 0.0
H2950 H 0.54917 0.55542 0.90587 0.0
H2951 H 0.53857 0.5564 0.84555 0.0
H2952 H 0.4495 0.01047 0.17003 0.0
H2953 H 0.43815 -0.0006 0.11023 0.0
H2954 H 0.4225 0.01908 0.10399 0.0
H2955 H 0.43404 0.03042 0.16408 0.0
H2956 H 0.41512 0.98714 0.09488 0.0
H2957 H 0.4371 0.02302 0.98402 0.0
H2958 H 0.44211 0.0231 0.03778 0.0
H2959 H 0.43013 0.02437 0.03038 0.0
C2960 C 0.44357 0.01241 0.1564 0.0
C2961 C 0.4428 0.02145 0.17137 0.0
C2962 C 0.43703 0.00602 0.12235 0.0
C2963 C 0.42959 0.00851 0.10236 0.0
C2964 C 0.4283 0.01712 0.11872 0.0
H2965 H 0.40144 0.96385 0.87751 0.0
H2966 H 0.401 0.97519 0.93698 0.0
C2967 C 0.43485 0.02354 0.15312 0.0
C2968 C 0.42416 0.00265 0.06204 0.0
H2969 H 0.42739 0.00561 0.95264 0.0
C2970 C 0.41749 0.99117 0.06365 0.0
C2971 C 0.42733 0.00798 0.02147 0.0
C2972 C 0.43459 0.02029 0.01791 0.0
C2973 C 0.4147 0.9848 0.02588 0.0
C2974 C 0.4186 0.9901 0.98559 0.0
C2975 C 0.42443 0.00162 0.98369 0.0
C2976 C 0.41859 0.98392 0.94688 0.0
C2977 C 0.40845 0.97244 0.02965 0.0
C2978 C 0.42864 0.98532 0.93209 0.0
C2979 C 0.42894 0.97892 0.89836 0.0
C2980 C 0.41918 0.97097 0.8785 0.0
C2981 C 0.40911 0.96986 0.89225 0.0
C2982 C 0.40883 0.9763 0.92627 0.0
H2983 H 0.40685 0.96963 0.06382 0.0
H2984 H 0.40045 0.9691 0.01277 0.0
H2985 H 0.41312 0.96892 0.01393 0.0
H2986 H 0.43627 0.99117 0.94762 0.0
H2987 H 0.43685 0.98008 0.88847 0.0
H2988 H 0.56471 0.96966 0.83599 0.0
H2989 H 0.5766 0.98114 0.89507 0.0
H2990 H 0.56005 2e-05 0.89386 0.0
H2991 H 0.54835 0.98881 0.83506 0.0
H2992 H 0.58317 0.01282 0.90591 0.0
H2993 H 0.56313 0.97686 0.01746 0.0
H2994 H 0.56979 0.97575 0.9696 0.0
H2995 H 0.5575 0.97658 0.96477 0.0
C2996 C 0.56376 0.97639 0.84784 0.0
C2997 C 0.55547 0.97822 0.83127 0.0
C2998 C 0.57052 0.9829 0.88167 0.0
C2999 C 0.56909 0.99132 0.89916 0.0
C3000 C 0.56128 0.99355 0.88086 0.0
H3001 H 0.56234 0.01898 0.11504 0.0
H3002 H 0.56304 0.00813 0.05529 0.0
C3003 C 0.55455 0.98707 0.84736 0.0
C3004 C 0.57481 0.99728 0.93896 0.0
H3005 H 0.57266 0.9943 0.0486 0.0
C3006 C 0.5812 0.00879 0.93719 0.0
C3007 C 0.57217 0.99195 0.9796 0.0
C3008 C 0.56525 0.97961 0.98338 0.0
C3009 C 0.58418 0.01515 0.975 0.0
C3010 C 0.58077 0.00983 0.0155 0.0
C3011 C 0.57526 -0.00168 0.0174 0.0
C3012 C 0.58077 0.0159 0.05459 0.0
C3013 C 0.59007 0.02751 0.97123 0.0
C3014 C 0.59053 0.02375 0.07461 0.0
C3015 C 0.59017 0.03005 0.10904 0.0
C3016 C 0.58003 0.02859 0.1237 0.0
C3017 C 0.57029 0.02042 0.1044 0.0
C3018 C 0.57067 0.01415 0.07033 0.0
H3019 H 0.59144 0.03032 0.93706 0.0
H3020 H 0.58526 0.03078 0.98759 0.0
H3021 H 0.59817 0.03109 0.98751 0.0
H3022 H 0.5984 0.02514 0.06312 0.0
H3023 H 0.59782 0.03625 0.12332 0.0
H3024 H 0.03015 0.5887 0.86762 0.0
H3025 H 0.01943 0.58728 0.93251 0.0
H3026 H 0.99479 0.5545 0.89511 0.0
H3027 H 0.00554 0.55573 0.83124 0.0
H3028 H 0.99702 0.58168 0.95228 0.0
H3029 H 0.00739 0.55062 0.00991 0.0
H3030 H 0.01409 0.55939 0.96409 0.0
H3031 H 0.0008 0.54729 0.95801 0.0
C3032 C 0.02233 0.58129 0.87286 0.0
C3033 C 0.01876 0.57224 0.84495 0.0
C3034 C 0.01623 0.5805 0.90984 0.0
C3035 C 0.00646 0.5707 0.91892 0.0
C3036 C 0.00243 0.56205 0.88903 0.0
H3037 H 0.95471 0.54871 0.10442 0.0
H3038 H 0.96736 0.55873 0.04519 0.0
C3039 C 0.00858 0.56276 0.8526 0.0
C3040 C 0.00105 0.56891 0.96151 0.0
H3041 H 0.99324 0.55165 0.04794 0.0
C3042 C 0.99628 0.57522 0.97361 0.0
C3043 C 0.00037 0.56068 0.98969 0.0
C3044 C 0.00603 0.55418 0.98004 0.0
C3045 C 0.99034 0.5731 0.01249 0.0
C3046 C 0.989 0.56432 0.03916 0.0
C3047 C 0.9942 0.55837 0.02762 0.0
C3048 C 0.98183 0.56059 0.078 0.0
C3049 C 0.98563 0.58031 0.02449 0.0
C3050 C 0.98572 0.5584 0.11644 0.0
C3051 C 0.97843 0.55234 0.14944 0.0
C3052 C 0.96719 0.54864 0.14513 0.0
C3053 C 0.96339 0.55161 0.10849 0.0
C3054 C 0.97064 0.55742 0.0748 0.0
H3055 H 0.9906 0.58868 0.01054 0.0
H3056 H 0.9772 0.5767 0.01112 0.0
H3057 H 0.98522 0.58104 0.06009 0.0
H3058 H 0.9943 0.56077 0.11977 0.0
H3059 H 0.98151 0.55013 0.17756 0.0
H3060 H 0.43254 0.40479 0.12814 0.0
H3061 H 0.42147 0.40556 0.06824 0.0
H3062 H 0.44028 0.44097 0.07098 0.0
H3063 H 0.45122 0.44032 0.13054 0.0
H3064 H 0.41704 0.43191 0.06113 0.0
H3065 H 0.4349 0.41469 0.94502 0.0
H3066 H 0.42828 0.407 0.9931 0.0
H3067 H 0.44097 0.41976 0.99743 0.0
C3068 C 0.43423 0.41273 0.11625 0.0
C3069 C 0.44285 0.42249 0.13381 0.0
C3070 C 0.42792 0.41315 0.082 0.0
C3071 C 0.43015 0.42332 0.06503 0.0
C3072 C 0.43843 0.43304 0.08368 0.0
H3073 H 0.43671 0.45848 0.84944 0.0
H3074 H 0.4362 0.44694 0.90897 0.0
C3075 C 0.44473 0.43264 0.11761 0.0
C3076 C 0.42453 0.42416 0.02601 0.0
H3077 H 0.42587 0.42341 0.91607 0.0
C3078 C 0.41865 0.42978 0.02935 0.0
C3079 C 0.42671 0.42135 0.98476 0.0
C3080 C 0.43309 0.4154 0.97945 0.0
C3081 C 0.41569 0.43348 0.99239 0.0
C3082 C 0.41861 0.43139 0.9512 0.0
C3083 C 0.42365 0.42497 0.9478 0.0
C3084 C 0.41846 0.43751 0.91258 0.0
C3085 C 0.41033 0.44042 0.99774 0.0
C3086 C 0.40862 0.4359 0.89443 0.0
C3087 C 0.40886 0.44255 0.8602 0.0
C3088 C 0.41897 0.45091 0.84381 0.0
C3089 C 0.42878 0.4522 0.86138 0.0
C3090 C 0.42851 0.44557 0.89532 0.0
H3091 H 0.40946 0.44203 0.03225 0.0
H3092 H 0.41523 0.44841 0.9809 0.0
H3093 H 0.40204 0.43614 0.98289 0.0
H3094 H 0.40078 0.42964 0.90713 0.0
H3095 H 0.40116 0.44131 0.84724 0.0
loop_
_geom_bond_atom_site_label_1
_geom_bond_atom_site_label_2
_geom_bond_distance
_geom_bond_site_symmetry_2
_ccdc_geom_bond_type
Mg0 O1 2.028 . S
Mg0 O7 1.986 . S
Mg0 O9 2.114 . S
Mg0 O10 2.251 . S
Mg0 O13 2.010 . S
O1 Mg0 2.028 . S
O1 C4 1.250 . S
O2 Mg3 2.028 . S
O2 C4 1.248 . S
Mg3 O2 2.028 . S
Mg3 O8 2.032 . S
Mg3 O10 2.079 . S
C4 O1 1.250 . S
C4 O2 1.248 . S
C5 O6 1.264 . S
C5 O13 1.249 . S
O6 C5 1.264 . S
O7 Mg0 1.986 . S
O7 C11 1.246 . S
O8 Mg3 2.032 . S
O8 C11 1.259 . S
O9 Mg0 2.114 . S
O9 C12 1.252 . S
O10 Mg0 2.251 . S
O10 Mg3 2.079 . S
O10 C12 1.273 . S
C11 O7 1.246 . S
C11 O8 1.259 . S
C12 O9 1.252 . S
C12 O10 1.273 . S
O13 Mg0 2.010 . S
O13 C5 1.249 . S
Mg14 O15 2.028 . S
Mg14 O21 1.986 . S
Mg14 O23 2.114 . S
Mg14 O24 2.251 . S
Mg14 O27 2.010 . S
O15 Mg14 2.028 . S
O15 C18 1.250 . S
O16 Mg17 2.028 . S
O16 C18 1.248 . S
Mg17 O16 2.028 . S
Mg17 O22 2.032 . S
Mg17 O24 2.079 . S
C18 O15 1.250 . S
C18 O16 1.248 . S
C19 O20 1.264 . S
C19 O27 1.249 . S
O20 C19 1.264 . S
O21 Mg14 1.986 . S
O21 C25 1.246 . S
O22 Mg17 2.032 . S
O22 C25 1.259 . S
O23 Mg14 2.114 . S
O23 C26 1.252 . S
O24 Mg14 2.251 . S
O24 Mg17 2.079 . S
O24 C26 1.273 . S
C25 O21 1.246 . S
C25 O22 1.259 . S
C26 O23 1.252 . S
C26 O24 1.273 . S
O27 Mg14 2.010 . S
O27 C19 1.249 . S
Mg28 O29 2.028 . S
Mg28 O35 1.986 . S
Mg28 O37 2.114 . S
Mg28 O38 2.251 . S
Mg28 O41 2.010 . S
O29 Mg28 2.028 . S
O29 C32 1.250 . S
O30 Mg31 2.028 . S
O30 C32 1.248 . S
Mg31 O30 2.028 . S
Mg31 O36 2.032 . S
Mg31 O38 2.079 . S
C32 O29 1.250 . S
C32 O30 1.248 . S
C33 O34 1.264 . S
C33 O41 1.249 . S
O34 C33 1.264 . S
O35 Mg28 1.986 . S
O35 C39 1.246 . S
O36 Mg31 2.032 . S
O36 C39 1.259 . S
O37 Mg28 2.114 . S
O37 C40 1.252 . S
O38 Mg28 2.251 . S
O38 Mg31 2.079 . S
O38 C40 1.273 . S
C39 O35 1.246 . S
C39 O36 1.259 . S
C40 O37 1.252 . S
C40 O38 1.273 . S
O41 Mg28 2.010 . S
O41 C33 1.249 . S
Mg42 O43 2.028 . S
Mg42 O49 1.986 . S
Mg42 O51 2.114 . S
Mg42 O52 2.251 . S
Mg42 O55 2.010 . S
O43 Mg42 2.028 . S
O43 C46 1.250 . S
O44 Mg45 2.028 . S
O44 C46 1.248 . S
Mg45 O44 2.028 . S
Mg45 O50 2.032 . S
Mg45 O52 2.079 . S
C46 O43 1.250 . S
C46 O44 1.248 . S
C47 O48 1.264 . S
C47 O55 1.249 . S
O48 C47 1.264 . S
O49 Mg42 1.986 . S
O49 C53 1.246 . S
O50 Mg45 2.032 . S
O50 C53 1.259 . S
O51 Mg42 2.114 . S
O51 C54 1.252 . S
O52 Mg42 2.251 . S
O52 Mg45 2.079 . S
O52 C54 1.273 . S
C53 O49 1.246 . S
C53 O50 1.259 . S
C54 O51 1.252 . S
C54 O52 1.273 . S
O55 Mg42 2.010 . S
O55 C47 1.249 . S
Mg56 O57 2.028 . S
Mg56 O63 1.986 . S
Mg56 O65 2.114 . S
Mg56 O66 2.251 . S
Mg56 O69 2.010 . S
O57 Mg56 2.028 . S
O57 C60 1.250 . S
O58 Mg59 2.028 . S
O58 C60 1.248 . S
Mg59 O58 2.028 . S
Mg59 O64 2.032 . S
Mg59 O66 2.079 . S
C60 O57 1.250 . S
C60 O58 1.248 . S
C61 O62 1.264 . S
C61 O69 1.249 . S
O62 C61 1.264 . S
O63 Mg56 1.986 . S
O63 C67 1.246 . S
O64 Mg59 2.032 . S
O64 C67 1.259 . S
O65 Mg56 2.114 . S
O65 C68 1.252 . S
O66 Mg56 2.251 . S
O66 Mg59 2.079 . S
O66 C68 1.273 . S
C67 O63 1.246 . S
C67 O64 1.259 . S
C68 O65 1.252 . S
C68 O66 1.273 . S
O69 Mg56 2.010 . S
O69 C61 1.249 . S
Mg70 O71 2.028 . S
Mg70 O77 1.986 . S
Mg70 O79 2.114 . S
Mg70 O80 2.251 . S
Mg70 O83 2.010 . S
O71 Mg70 2.028 . S
O71 C74 1.250 . S
O72 Mg73 2.028 . S
O72 C74 1.248 . S
Mg73 O72 2.028 . S
Mg73 O78 2.032 . S
Mg73 O80 2.079 . S
C74 O71 1.250 . S
C74 O72 1.248 . S
C75 O76 1.264 . S
C75 O83 1.249 . S
O76 C75 1.264 . S
O77 Mg70 1.986 . S
O77 C81 1.246 . S
O78 Mg73 2.032 . S
O78 C81 1.259 . S
O79 Mg70 2.114 . S
O79 C82 1.252 . S
O80 Mg70 2.251 . S
O80 Mg73 2.079 . S
O80 C82 1.273 . S
C81 O77 1.246 . S
C81 O78 1.259 . S
C82 O79 1.252 . S
C82 O80 1.273 . S
O83 Mg70 2.010 . S
O83 C75 1.249 . S
Mg84 O85 2.028 . S
Mg84 O91 1.986 . S
Mg84 O93 2.114 . S
Mg84 O94 2.251 . S
Mg84 O97 2.010 . S
O85 Mg84 2.028 . S
O85 C88 1.250 . S
O86 Mg87 2.028 . S
O86 C88 1.248 . S
Mg87 O86 2.028 . S
Mg87 O92 2.032 . S
Mg87 O94 2.079 . S
C88 O85 1.250 . S
C88 O86 1.248 . S
C89 O90 1.264 . S
C89 O97 1.249 . S
O90 C89 1.264 . S
O91 Mg84 1.986 . S
O91 C95 1.246 . S
O92 Mg87 2.032 . S
O92 C95 1.259 . S
O93 Mg84 2.114 . S
O93 C96 1.252 . S
O94 Mg84 2.251 . S
O94 Mg87 2.079 . S
O94 C96 1.273 . S
C95 O91 1.246 . S
C95 O92 1.259 . S
C96 O93 1.252 . S
C96 O94 1.273 . S
O97 Mg84 2.010 . S
O97 C89 1.249 . S
Mg98 O99 2.028 . S
Mg98 O105 1.986 . S
Mg98 O107 2.114 . S
Mg98 O108 2.251 . S
Mg98 O111 2.010 . S
O99 Mg98 2.028 . S
O99 C102 1.250 . S
O100 Mg101 2.028 . S
O100 C102 1.248 . S
Mg101 O100 2.028 . S
Mg101 O106 2.032 . S
Mg101 O108 2.079 . S
C102 O99 1.250 . S
C102 O100 1.248 . S
C103 O104 1.264 . S
C103 O111 1.249 . S
O104 C103 1.264 . S
O105 Mg98 1.986 . S
O105 C109 1.246 . S
O106 Mg101 2.032 . S
O106 C109 1.259 . S
O107 Mg98 2.114 . S
O107 C110 1.252 . S
O108 Mg98 2.251 . S
O108 Mg101 2.079 . S
O108 C110 1.273 . S
C109 O105 1.246 . S
C109 O106 1.259 . S
C110 O107 1.252 . S
C110 O108 1.273 . S
O111 Mg98 2.010 . S
O111 C103 1.249 . S
Mg112 O113 2.028 . S
Mg112 O119 1.986 . S
Mg112 O121 2.114 . S
Mg112 O122 2.251 . S
Mg112 O125 2.010 . S
O113 Mg112 2.028 . S
O113 C116 1.250 . S
O114 Mg115 2.028 . S
O114 C116 1.248 . S
Mg115 O114 2.028 . S
Mg115 O120 2.032 . S
Mg115 O122 2.079 . S
C116 O113 1.250 . S
C116 O114 1.248 . S
C117 O118 1.264 . S
C117 O125 1.249 . S
O118 C117 1.264 . S
O119 Mg112 1.986 . S
O119 C123 1.246 . S
O120 Mg115 2.032 . S
O120 C123 1.259 . S
O121 Mg112 2.114 . S
O121 C124 1.252 . S
O122 Mg112 2.251 . S
O122 Mg115 2.079 . S
O122 C124 1.273 . S
C123 O119 1.246 . S
C123 O120 1.259 . S
C124 O121 1.252 . S
C124 O122 1.273 . S
O125 Mg112 2.010 . S
O125 C117 1.249 . S
Mg126 O127 2.028 . S
Mg126 O133 1.986 . S
Mg126 O135 2.114 . S
Mg126 O136 2.251 . S
Mg126 O139 2.010 . S
O127 Mg126 2.028 . S
O127 C130 1.250 . S
O128 Mg129 2.028 . S
O128 C130 1.248 . S
Mg129 O128 2.028 . S
Mg129 O134 2.032 . S
Mg129 O136 2.079 . S
C130 O127 1.250 . S
C130 O128 1.248 . S
C131 O132 1.264 . S
C131 O139 1.249 . S
O132 C131 1.264 . S
O133 Mg126 1.986 . S
O133 C137 1.246 . S
O134 Mg129 2.032 . S
O134 C137 1.259 . S
O135 Mg126 2.114 . S
O135 C138 1.252 . S
O136 Mg126 2.251 . S
O136 Mg129 2.079 . S
O136 C138 1.273 . S
C137 O133 1.246 . S
C137 O134 1.259 . S
C138 O135 1.252 . S
C138 O136 1.273 . S
O139 Mg126 2.010 . S
O139 C131 1.249 . S
Mg140 O141 2.028 . S
Mg140 O147 1.986 . S
Mg140 O149 2.114 . S
Mg140 O150 2.251 . S
Mg140 O153 2.010 . S
O141 Mg140 2.028 . S
O141 C144 1.250 . S
O142 Mg143 2.028 . S
O142 C144 1.248 . S
Mg143 O142 2.028 . S
Mg143 O148 2.032 . S
Mg143 O150 2.079 . S
C144 O141 1.250 . S
C144 O142 1.248 . S
C145 O146 1.264 . S
C145 O153 1.249 . S
O146 C145 1.264 . S
O147 Mg140 1.986 . S
O147 C151 1.246 . S
O148 Mg143 2.032 . S
O148 C151 1.259 . S
O149 Mg140 2.114 . S
O149 C152 1.252 . S
O150 Mg140 2.251 . S
O150 Mg143 2.079 . S
O150 C152 1.273 . S
C151 O147 1.246 . S
C151 O148 1.259 . S
C152 O149 1.252 . S
C152 O150 1.273 . S
O153 Mg140 2.010 . S
O153 C145 1.249 . S
Mg154 O155 2.028 . S
Mg154 O161 1.986 . S
Mg154 O163 2.114 . S
Mg154 O164 2.251 . S
Mg154 O167 2.010 . S
O155 Mg154 2.028 . S
O155 C158 1.250 . S
O156 Mg157 2.028 . S
O156 C158 1.248 . S
Mg157 O156 2.028 . S
Mg157 O162 2.032 . S
Mg157 O164 2.079 . S
C158 O155 1.250 . S
C158 O156 1.248 . S
C159 O160 1.264 . S
C159 O167 1.249 . S
O160 C159 1.264 . S
O161 Mg154 1.986 . S
O161 C165 1.246 . S
O162 Mg157 2.032 . S
O162 C165 1.259 . S
O163 Mg154 2.114 . S
O163 C166 1.252 . S
O164 Mg154 2.251 . S
O164 Mg157 2.079 . S
O164 C166 1.273 . S
C165 O161 1.246 . S
C165 O162 1.259 . S
C166 O163 1.252 . S
C166 O164 1.273 . S
O167 Mg154 2.010 . S
O167 C159 1.249 . S
Mg168 O169 2.028 . S
Mg168 O175 1.986 . S
Mg168 O177 2.114 . S
Mg168 O178 2.251 . S
Mg168 O181 2.010 . S
O169 Mg168 2.028 . S
O169 C172 1.250 . S
O170 Mg171 2.028 . S
O170 C172 1.248 . S
Mg171 O170 2.028 . S
Mg171 O176 2.032 . S
Mg171 O178 2.079 . S
C172 O169 1.250 . S
C172 O170 1.248 . S
C173 O174 1.264 . S
C173 O181 1.249 . S
O174 C173 1.264 . S
O175 Mg168 1.986 . S
O175 C179 1.246 . S
O176 Mg171 2.032 . S
O176 C179 1.259 . S
O177 Mg168 2.114 . S
O177 C180 1.252 . S
O178 Mg168 2.251 . S
O178 Mg171 2.079 . S
O178 C180 1.273 . S
C179 O175 1.246 . S
C179 O176 1.259 . S
C180 O177 1.252 . S
C180 O178 1.273 . S
O181 Mg168 2.010 . S
O181 C173 1.249 . S
Mg182 O183 2.028 . S
Mg182 O189 1.986 . S
Mg182 O191 2.114 . S
Mg182 O192 2.251 . S
Mg182 O195 2.010 . S
O183 Mg182 2.028 . S
O183 C186 1.250 . S
O184 Mg185 2.028 . S
O184 C186 1.248 . S
Mg185 O184 2.028 . S
Mg185 O190 2.032 . S
Mg185 O192 2.079 . S
C186 O183 1.250 . S
C186 O184 1.248 . S
C187 O188 1.264 . S
C187 O195 1.249 . S
O188 C187 1.264 . S
O189 Mg182 1.986 . S
O189 C193 1.246 . S
O190 Mg185 2.032 . S
O190 C193 1.259 . S
O191 Mg182 2.114 . S
O191 C194 1.252 . S
O192 Mg182 2.251 . S
O192 Mg185 2.079 . S
O192 C194 1.273 . S
C193 O189 1.246 . S
C193 O190 1.259 . S
C194 O191 1.252 . S
C194 O192 1.273 . S
O195 Mg182 2.010 . S
O195 C187 1.249 . S
Mg196 O197 2.028 . S
Mg196 O203 1.986 . S
Mg196 O205 2.114 . S
Mg196 O206 2.251 . S
Mg196 O209 2.010 . S
O197 Mg196 2.028 . S
O197 C200 1.250 . S
O198 Mg199 2.028 . S
O198 C200 1.248 . S
Mg199 O198 2.028 . S
Mg199 O204 2.032 . S
Mg199 O206 2.079 . S
C200 O197 1.250 . S
C200 O198 1.248 . S
C201 O202 1.264 . S
C201 O209 1.249 . S
O202 C201 1.264 . S
O203 Mg196 1.986 . S
O203 C207 1.246 . S
O204 Mg199 2.032 . S
O204 C207 1.259 . S
O205 Mg196 2.114 . S
O205 C208 1.252 . S
O206 Mg196 2.251 . S
O206 Mg199 2.079 . S
O206 C208 1.273 . S
C207 O203 1.246 . S
C207 O204 1.259 . S
C208 O205 1.252 . S
C208 O206 1.273 . S
O209 Mg196 2.010 . S
O209 C201 1.249 . S
Mg210 O211 2.028 . S
Mg210 O217 1.986 . S
Mg210 O219 2.114 . S
Mg210 O220 2.251 . S
Mg210 O223 2.010 . S
O211 Mg210 2.028 . S
O211 C214 1.250 . S
O212 Mg213 2.028 . S
O212 C214 1.248 . S
Mg213 O212 2.028 . S
Mg213 O218 2.032 . S
Mg213 O220 2.079 . S
C214 O211 1.250 . S
C214 O212 1.248 . S
C215 O216 1.264 . S
C215 O223 1.249 . S
O216 C215 1.264 . S
O217 Mg210 1.986 . S
O217 C221 1.246 . S
O218 Mg213 2.032 . S
O218 C221 1.259 . S
O219 Mg210 2.114 . S
O219 C222 1.252 . S
O220 Mg210 2.251 . S
O220 Mg213 2.079 . S
O220 C222 1.273 . S
C221 O217 1.246 . S
C221 O218 1.259 . S
C222 O219 1.252 . S
C222 O220 1.273 . S
O223 Mg210 2.010 . S
O223 C215 1.249 . S
Mg224 O225 2.028 . S
Mg224 O231 1.986 . S
Mg224 O233 2.114 . S
Mg224 O234 2.251 . S
Mg224 O237 2.010 . S
O225 Mg224 2.028 . S
O225 C228 1.250 . S
O226 Mg227 2.028 . S
O226 C228 1.248 . S
Mg227 O226 2.028 . S
Mg227 O232 2.032 . S
Mg227 O234 2.079 . S
C228 O225 1.250 . S
C228 O226 1.248 . S
C229 O230 1.264 . S
C229 O237 1.249 . S
O230 C229 1.264 . S
O231 Mg224 1.986 . S
O231 C235 1.246 . S
O232 Mg227 2.032 . S
O232 C235 1.259 . S
O233 Mg224 2.114 . S
O233 C236 1.252 . S
O234 Mg224 2.251 . S
O234 Mg227 2.079 . S
O234 C236 1.273 . S
C235 O231 1.246 . S
C235 O232 1.259 . S
C236 O233 1.252 . S
C236 O234 1.273 . S
O237 Mg224 2.010 . S
O237 C229 1.249 . S
Mg238 O239 2.028 . S
Mg238 O245 1.986 . S
Mg238 O247 2.114 . S
Mg238 O248 2.251 . S
Mg238 O251 2.010 . S
O239 Mg238 2.028 . S
O239 C242 1.250 . S
O240 Mg241 2.028 . S
O240 C242 1.248 . S
Mg241 O240 2.028 . S
Mg241 O246 2.032 . S
Mg241 O248 2.079 . S
C242 O239 1.250 . S
C242 O240 1.248 . S
C243 O244 1.264 . S
C243 O251 1.249 . S
O244 C243 1.264 . S
O245 Mg238 1.986 . S
O245 C249 1.246 . S
O246 Mg241 2.032 . S
O246 C249 1.259 . S
O247 Mg238 2.114 . S
O247 C250 1.252 . S
O248 Mg238 2.251 . S
O248 Mg241 2.079 . S
O248 C250 1.273 . S
C249 O245 1.246 . S
C249 O246 1.259 . S
C250 O247 1.252 . S
C250 O248 1.273 . S
O251 Mg238 2.010 . S
O251 C243 1.249 . S
Mg252 O253 2.028 . S
Mg252 O259 1.986 . S
Mg252 O261 2.114 . S
Mg252 O262 2.251 . S
Mg252 O265 2.010 . S
O253 Mg252 2.028 . S
O253 C256 1.250 . S
O254 Mg255 2.028 . S
O254 C256 1.248 . S
Mg255 O254 2.028 . S
Mg255 O260 2.032 . S
Mg255 O262 2.079 . S
C256 O253 1.250 . S
C256 O254 1.248 . S
C257 O258 1.264 . S
C257 O265 1.249 . S
O258 C257 1.264 . S
O259 Mg252 1.986 . S
O259 C263 1.246 . S
O260 Mg255 2.032 . S
O260 C263 1.259 . S
O261 Mg252 2.114 . S
O261 C264 1.252 . S
O262 Mg252 2.251 . S
O262 Mg255 2.079 . S
O262 C264 1.273 . S
C263 O259 1.246 . S
C263 O260 1.259 . S
C264 O261 1.252 . S
C264 O262 1.273 . S
O265 Mg252 2.010 . S
O265 C257 1.249 . S
Mg266 O267 2.028 . S
Mg266 O273 1.986 . S
Mg266 O275 2.114 . S
Mg266 O276 2.251 . S
Mg266 O279 2.010 . S
O267 Mg266 2.028 . S
O267 C270 1.250 . S
O268 Mg269 2.028 . S
O268 C270 1.248 . S
Mg269 O268 2.028 . S
Mg269 O274 2.032 . S
Mg269 O276 2.079 . S
C270 O267 1.250 . S
C270 O268 1.248 . S
C271 O272 1.264 . S
C271 O279 1.249 . S
O272 C271 1.264 . S
O273 Mg266 1.986 . S
O273 C277 1.246 . S
O274 Mg269 2.032 . S
O274 C277 1.259 . S
O275 Mg266 2.114 . S
O275 C278 1.252 . S
O276 Mg266 2.251 . S
O276 Mg269 2.079 . S
O276 C278 1.273 . S
C277 O273 1.246 . S
C277 O274 1.259 . S
C278 O275 1.252 . S
C278 O276 1.273 . S
O279 Mg266 2.010 . S
O279 C271 1.249 . S
Mg280 O281 2.028 . S
Mg280 O287 1.986 . S
Mg280 O289 2.114 . S
Mg280 O290 2.251 . S
Mg280 O293 2.010 . S
O281 Mg280 2.028 . S
O281 C284 1.250 . S
O282 Mg283 2.028 . S
O282 C284 1.248 . S
Mg283 O282 2.028 . S
Mg283 O288 2.032 . S
Mg283 O290 2.079 . S
C284 O281 1.250 . S
C284 O282 1.248 . S
C285 O286 1.264 . S
C285 O293 1.249 . S
O286 C285 1.264 . S
O287 Mg280 1.986 . S
O287 C291 1.246 . S
O288 Mg283 2.032 . S
O288 C291 1.259 . S
O289 Mg280 2.114 . S
O289 C292 1.252 . S
O290 Mg280 2.251 . S
O290 Mg283 2.079 . S
O290 C292 1.273 . S
C291 O287 1.246 . S
C291 O288 1.259 . S
C292 O289 1.252 . S
C292 O290 1.273 . S
O293 Mg280 2.010 . S
O293 C285 1.249 . S
Mg294 O295 2.028 . S
Mg294 O301 1.986 . S
Mg294 O303 2.114 . S
Mg294 O304 2.251 . S
Mg294 O307 2.010 . S
O295 Mg294 2.028 . S
O295 C298 1.250 . S
O296 Mg297 2.028 . S
O296 C298 1.248 . S
Mg297 O296 2.028 . S
Mg297 O302 2.032 . S
Mg297 O304 2.079 . S
C298 O295 1.250 . S
C298 O296 1.248 . S
C299 O300 1.264 . S
C299 O307 1.249 . S
O300 C299 1.264 . S
O301 Mg294 1.986 . S
O301 C305 1.246 . S
O302 Mg297 2.032 . S
O302 C305 1.259 . S
O303 Mg294 2.114 . S
O303 C306 1.252 . S
O304 Mg294 2.251 . S
O304 Mg297 2.079 . S
O304 C306 1.273 . S
C305 O301 1.246 . S
C305 O302 1.259 . S
C306 O303 1.252 . S
C306 O304 1.273 . S
O307 Mg294 2.010 . S
O307 C299 1.249 . S
Mg308 O309 2.028 . S
Mg308 O315 1.986 . S
Mg308 O317 2.114 . S
Mg308 O318 2.251 . S
Mg308 O321 2.010 . S
O309 Mg308 2.028 . S
O309 C312 1.250 . S
O310 Mg311 2.028 . S
O310 C312 1.248 . S
Mg311 O310 2.028 . S
Mg311 O316 2.032 . S
Mg311 O318 2.079 . S
C312 O309 1.250 . S
C312 O310 1.248 . S
C313 O314 1.264 . S
C313 O321 1.249 . S
O314 C313 1.264 . S
O315 Mg308 1.986 . S
O315 C319 1.246 . S
O316 Mg311 2.032 . S
O316 C319 1.259 . S
O317 Mg308 2.114 . S
O317 C320 1.252 . S
O318 Mg308 2.251 . S
O318 Mg311 2.079 . S
O318 C320 1.273 . S
C319 O315 1.246 . S
C319 O316 1.259 . S
C320 O317 1.252 . S
C320 O318 1.273 . S
O321 Mg308 2.010 . S
O321 C313 1.249 . S
Mg322 O323 2.028 . S
Mg322 O329 1.986 . S
Mg322 O331 2.114 . S
Mg322 O332 2.251 . S
Mg322 O335 2.010 . S
O323 Mg322 2.028 . S
O323 C326 1.250 . S
O324 Mg325 2.028 . S
O324 C326 1.248 . S
Mg325 O324 2.028 . S
Mg325 O330 2.032 . S
Mg325 O332 2.079 . S
C326 O323 1.250 . S
C326 O324 1.248 . S
C327 O328 1.264 . S
C327 O335 1.249 . S
O328 C327 1.264 . S
O329 Mg322 1.986 . S
O329 C333 1.246 . S
O330 Mg325 2.032 . S
O330 C333 1.259 . S
O331 Mg322 2.114 . S
O331 C334 1.252 . S
O332 Mg322 2.251 . S
O332 Mg325 2.079 . S
O332 C334 1.273 . S
C333 O329 1.246 . S
C333 O330 1.259 . S
C334 O331 1.252 . S
C334 O332 1.273 . S
O335 Mg322 2.010 . S
O335 C327 1.249 . S
Mg336 O337 2.028 . S
Mg336 O343 1.986 . S
Mg336 O345 2.114 . S
Mg336 O346 2.251 . S
Mg336 O349 2.010 . S
O337 Mg336 2.028 . S
O337 C340 1.250 . S
O338 Mg339 2.028 . S
O338 C340 1.248 . S
Mg339 O338 2.028 . S
Mg339 O344 2.032 . S
Mg339 O346 2.079 . S
C340 O337 1.250 . S
C340 O338 1.248 . S
C341 O342 1.264 . S
C341 O349 1.249 . S
O342 C341 1.264 . S
O343 Mg336 1.986 . S
O343 C347 1.246 . S
O344 Mg339 2.032 . S
O344 C347 1.259 . S
O345 Mg336 2.114 . S
O345 C348 1.252 . S
O346 Mg336 2.251 . S
O346 Mg339 2.079 . S
O346 C348 1.273 . S
C347 O343 1.246 . S
C347 O344 1.259 . S
C348 O345 1.252 . S
C348 O346 1.273 . S
O349 Mg336 2.010 . S
O349 C341 1.249 . S
Mg350 O351 2.028 . S
Mg350 O357 1.986 . S
Mg350 O359 2.114 . S
Mg350 O360 2.251 . S
Mg350 O363 2.010 . S
O351 Mg350 2.028 . S
O351 C354 1.250 . S
O352 Mg353 2.028 . S
O352 C354 1.248 . S
Mg353 O352 2.028 . S
Mg353 O358 2.032 . S
Mg353 O360 2.079 . S
C354 O351 1.250 . S
C354 O352 1.248 . S
C355 O356 1.264 . S
C355 O363 1.249 . S
O356 C355 1.264 . S
O357 Mg350 1.986 . S
O357 C361 1.246 . S
O358 Mg353 2.032 . S
O358 C361 1.259 . S
O359 Mg350 2.114 . S
O359 C362 1.252 . S
O360 Mg350 2.251 . S
O360 Mg353 2.079 . S
O360 C362 1.273 . S
C361 O357 1.246 . S
C361 O358 1.259 . S
C362 O359 1.252 . S
C362 O360 1.273 . S
O363 Mg350 2.010 . S
O363 C355 1.249 . S
Mg364 O365 2.028 . S
Mg364 O371 1.986 . S
Mg364 O373 2.114 . S
Mg364 O374 2.251 . S
Mg364 O377 2.010 . S
O365 Mg364 2.028 . S
O365 C368 1.250 . S
O366 Mg367 2.028 . S
O366 C368 1.248 . S
Mg367 O366 2.028 . S
Mg367 O372 2.032 . S
Mg367 O374 2.079 . S
C368 O365 1.250 . S
C368 O366 1.248 . S
C369 O370 1.264 . S
C369 O377 1.249 . S
O370 C369 1.264 . S
O371 Mg364 1.986 . S
O371 C375 1.246 . S
O372 Mg367 2.032 . S
O372 C375 1.259 . S
O373 Mg364 2.114 . S
O373 C376 1.252 . S
O374 Mg364 2.251 . S
O374 Mg367 2.079 . S
O374 C376 1.273 . S
C375 O371 1.246 . S
C375 O372 1.259 . S
C376 O373 1.252 . S
C376 O374 1.273 . S
O377 Mg364 2.010 . S
O377 C369 1.249 . S
Mg378 O379 2.028 . S
Mg378 O385 1.986 . S
Mg378 O387 2.114 . S
Mg378 O388 2.251 . S
Mg378 O391 2.010 . S
O379 Mg378 2.028 . S
O379 C382 1.250 . S
O380 Mg381 2.028 . S
O380 C382 1.248 . S
Mg381 O380 2.028 . S
Mg381 O386 2.032 . S
Mg381 O388 2.079 . S
C382 O379 1.250 . S
C382 O380 1.248 . S
C383 O384 1.264 . S
C383 O391 1.249 . S
O384 C383 1.264 . S
O385 Mg378 1.986 . S
O385 C389 1.246 . S
O386 Mg381 2.032 . S
O386 C389 1.259 . S
O387 Mg378 2.114 . S
O387 C390 1.252 . S
O388 Mg378 2.251 . S
O388 Mg381 2.079 . S
O388 C390 1.273 . S
C389 O385 1.246 . S
C389 O386 1.259 . S
C390 O387 1.252 . S
C390 O388 1.273 . S
O391 Mg378 2.010 . S
O391 C383 1.249 . S
Mg392 O393 2.028 . S
Mg392 O399 1.986 . S
Mg392 O401 2.114 . S
Mg392 O402 2.251 . S
Mg392 O405 2.010 . S
O393 Mg392 2.028 . S
O393 C396 1.250 . S
O394 Mg395 2.028 . S
O394 C396 1.248 . S
Mg395 O394 2.028 . S
Mg395 O400 2.032 . S
Mg395 O402 2.079 . S
C396 O393 1.250 . S
C396 O394 1.248 . S
C397 O398 1.264 . S
C397 O405 1.249 . S
O398 C397 1.264 . S
O399 Mg392 1.986 . S
O399 C403 1.246 . S
O400 Mg395 2.032 . S
O400 C403 1.259 . S
O401 Mg392 2.114 . S
O401 C404 1.252 . S
O402 Mg392 2.251 . S
O402 Mg395 2.079 . S
O402 C404 1.273 . S
C403 O399 1.246 . S
C403 O400 1.259 . S
C404 O401 1.252 . S
C404 O402 1.273 . S
O405 Mg392 2.010 . S
O405 C397 1.249 . S
Mg406 O407 2.028 . S
Mg406 O413 1.986 . S
Mg406 O415 2.114 . S
Mg406 O416 2.251 . S
Mg406 O419 2.010 . S
O407 Mg406 2.028 . S
O407 C410 1.250 . S
O408 Mg409 2.028 . S
O408 C410 1.248 . S
Mg409 O408 2.028 . S
Mg409 O414 2.032 . S
Mg409 O416 2.079 . S
C410 O407 1.250 . S
C410 O408 1.248 . S
C411 O412 1.264 . S
C411 O419 1.249 . S
O412 C411 1.264 . S
O413 Mg406 1.986 . S
O413 C417 1.246 . S
O414 Mg409 2.032 . S
O414 C417 1.259 . S
O415 Mg406 2.114 . S
O415 C418 1.252 . S
O416 Mg406 2.251 . S
O416 Mg409 2.079 . S
O416 C418 1.273 . S
C417 O413 1.246 . S
C417 O414 1.259 . S
C418 O415 1.252 . S
C418 O416 1.273 . S
O419 Mg406 2.010 . S
O419 C411 1.249 . S
Mg420 O421 2.028 . S
Mg420 O427 1.986 . S
Mg420 O429 2.114 . S
Mg420 O430 2.251 . S
Mg420 O433 2.010 . S
O421 Mg420 2.028 . S
O421 C424 1.250 . S
O422 Mg423 2.028 . S
O422 C424 1.248 . S
Mg423 O422 2.028 . S
Mg423 O428 2.032 . S
Mg423 O430 2.079 . S
C424 O421 1.250 . S
C424 O422 1.248 . S
C425 O426 1.264 . S
C425 O433 1.249 . S
O426 C425 1.264 . S
O427 Mg420 1.986 . S
O427 C431 1.246 . S
O428 Mg423 2.032 . S
O428 C431 1.259 . S
O429 Mg420 2.114 . S
O429 C432 1.252 . S
O430 Mg420 2.251 . S
O430 Mg423 2.079 . S
O430 C432 1.273 . S
C431 O427 1.246 . S
C431 O428 1.259 . S
C432 O429 1.252 . S
C432 O430 1.273 . S
O433 Mg420 2.010 . S
O433 C425 1.249 . S
Mg434 O435 2.028 . S
Mg434 O441 1.986 . S
Mg434 O443 2.114 . S
Mg434 O444 2.251 . S
Mg434 O447 2.010 . S
O435 Mg434 2.028 . S
O435 C438 1.250 . S
O436 Mg437 2.028 . S
O436 C438 1.248 . S
Mg437 O436 2.028 . S
Mg437 O442 2.032 . S
Mg437 O444 2.079 . S
C438 O435 1.250 . S
C438 O436 1.248 . S
C439 O440 1.264 . S
C439 O447 1.249 . S
O440 C439 1.264 . S
O441 Mg434 1.986 . S
O441 C445 1.246 . S
O442 Mg437 2.032 . S
O442 C445 1.259 . S
O443 Mg434 2.114 . S
O443 C446 1.252 . S
O444 Mg434 2.251 . S
O444 Mg437 2.079 . S
O444 C446 1.273 . S
C445 O441 1.246 . S
C445 O442 1.259 . S
C446 O443 1.252 . S
C446 O444 1.273 . S
O447 Mg434 2.010 . S
O447 C439 1.249 . S
Mg448 O449 2.028 . S
Mg448 O455 1.986 . S
Mg448 O457 2.114 . S
Mg448 O458 2.251 . S
Mg448 O461 2.010 . S
O449 Mg448 2.028 . S
O449 C452 1.250 . S
O450 Mg451 2.028 . S
O450 C452 1.248 . S
Mg451 O450 2.028 . S
Mg451 O456 2.032 . S
Mg451 O458 2.079 . S
C452 O449 1.250 . S
C452 O450 1.248 . S
C453 O454 1.264 . S
C453 O461 1.249 . S
O454 C453 1.264 . S
O455 Mg448 1.986 . S
O455 C459 1.246 . S
O456 Mg451 2.032 . S
O456 C459 1.259 . S
O457 Mg448 2.114 . S
O457 C460 1.252 . S
O458 Mg448 2.251 . S
O458 Mg451 2.079 . S
O458 C460 1.273 . S
C459 O455 1.246 . S
C459 O456 1.259 . S
C460 O457 1.252 . S
C460 O458 1.273 . S
O461 Mg448 2.010 . S
O461 C453 1.249 . S
Mg462 O463 2.028 . S
Mg462 O469 1.986 . S
Mg462 O471 2.114 . S
Mg462 O472 2.251 . S
Mg462 O475 2.010 . S
O463 Mg462 2.028 . S
O463 C466 1.250 . S
O464 Mg465 2.028 . S
O464 C466 1.248 . S
Mg465 O464 2.028 . S
Mg465 O470 2.032 . S
Mg465 O472 2.079 . S
C466 O463 1.250 . S
C466 O464 1.248 . S
C467 O468 1.264 . S
C467 O475 1.249 . S
O468 C467 1.264 . S
O469 Mg462 1.986 . S
O469 C473 1.246 . S
O470 Mg465 2.032 . S
O470 C473 1.259 . S
O471 Mg462 2.114 . S
O471 C474 1.252 . S
O472 Mg462 2.251 . S
O472 Mg465 2.079 . S
O472 C474 1.273 . S
C473 O469 1.246 . S
C473 O470 1.259 . S
C474 O471 1.252 . S
C474 O472 1.273 . S
O475 Mg462 2.010 . S
O475 C467 1.249 . S
Mg476 O477 2.028 . S
Mg476 O483 1.986 . S
Mg476 O485 2.114 . S
Mg476 O486 2.251 . S
Mg476 O489 2.010 . S
O477 Mg476 2.028 . S
O477 C480 1.250 . S
O478 Mg479 2.028 . S
O478 C480 1.248 . S
Mg479 O478 2.028 . S
Mg479 O484 2.032 . S
Mg479 O486 2.079 . S
C480 O477 1.250 . S
C480 O478 1.248 . S
C481 O482 1.264 . S
C481 O489 1.249 . S
O482 C481 1.264 . S
O483 Mg476 1.986 . S
O483 C487 1.246 . S
O484 Mg479 2.032 . S
O484 C487 1.259 . S
O485 Mg476 2.114 . S
O485 C488 1.252 . S
O486 Mg476 2.251 . S
O486 Mg479 2.079 . S
O486 C488 1.273 . S
C487 O483 1.246 . S
C487 O484 1.259 . S
C488 O485 1.252 . S
C488 O486 1.273 . S
O489 Mg476 2.010 . S
O489 C481 1.249 . S
Mg490 O491 2.028 . S
Mg490 O497 1.986 . S
Mg490 O499 2.114 . S
Mg490 O500 2.251 . S
Mg490 O503 2.010 . S
O491 Mg490 2.028 . S
O491 C494 1.250 . S
O492 Mg493 2.028 . S
O492 C494 1.248 . S
Mg493 O492 2.028 . S
Mg493 O498 2.032 . S
Mg493 O500 2.079 . S
C494 O491 1.250 . S
C494 O492 1.248 . S
C495 O496 1.264 . S
C495 O503 1.249 . S
O496 C495 1.264 . S
O497 Mg490 1.986 . S
O497 C501 1.246 . S
O498 Mg493 2.032 . S
O498 C501 1.259 . S
O499 Mg490 2.114 . S
O499 C502 1.252 . S
O500 Mg490 2.251 . S
O500 Mg493 2.079 . S
O500 C502 1.273 . S
C501 O497 1.246 . S
C501 O498 1.259 . S
C502 O499 1.252 . S
C502 O500 1.273 . S
O503 Mg490 2.010 . S
O503 C495 1.249 . S
H504 C512 0.929 . S
H505 C514 0.930 . S
H506 C516 0.930 . S
H507 C519 0.929 . S
H508 C522 0.930 . S
H509 C524 0.960 . S
H510 C524 0.960 . S
H511 C524 0.960 . S
C512 H504 0.929 . S
C512 C513 1.377 . S
C512 C514 1.384 . S
C513 C512 1.377 . S
C513 C519 1.390 . S
C514 H505 0.930 . S
C514 C512 1.384 . S
C514 C515 1.372 . S
C515 C514 1.372 . S
C515 C516 1.400 . S
C515 C520 1.490 . S
C516 H506 0.930 . S
C516 C515 1.400 . S
C516 C519 1.386 . S
H517 C533 0.930 . S
H518 C534 0.931 . S
C519 H507 0.929 . S
C519 C513 1.390 . S
C519 C516 1.386 . S
C520 C515 1.490 . S
C520 C522 1.395 . S
C520 C523 1.403 . S
H521 C527 0.930 . S
C522 H508 0.930 . S
C522 C520 1.395 . S
C522 C525 1.403 . S
C523 C520 1.403 . S
C523 C524 1.524 . S
C523 C527 1.400 . S
C524 H509 0.960 . S
C524 H510 0.960 . S
C524 H511 0.960 . S
C524 C523 1.524 . S
C525 C522 1.403 . S
C525 C526 1.392 . S
C525 C529 1.495 . S
C526 C525 1.392 . S
C526 C527 1.385 . S
C526 C528 1.478 . S
C527 H521 0.930 . S
C527 C523 1.400 . S
C527 C526 1.385 . S
C528 C526 1.478 . S
C528 C530 1.381 . S
C528 C534 1.383 . S
C529 C525 1.495 . S
C529 H535 0.959 . S
C529 H536 0.961 . S
C529 H537 0.960 . S
C530 C528 1.381 . S
C530 C531 1.394 . S
C530 H538 0.930 . S
C531 C530 1.394 . S
C531 C532 1.383 . S
C531 H539 0.929 . S
C532 C531 1.383 . S
C532 C533 1.377 . S
C533 H517 0.930 . S
C533 C532 1.377 . S
C533 C534 1.379 . S
C534 H518 0.931 . S
C534 C528 1.383 . S
C534 C533 1.379 . S
H535 C529 0.959 . S
H536 C529 0.961 . S
H537 C529 0.960 . S
H538 C530 0.930 . S
H539 C531 0.929 . S
H540 C548 0.929 . S
H541 C550 0.930 . S
H542 C552 0.922 1_556 S
H543 C555 0.929 1_556 S
H544 C558 0.930 . S
H545 C560 0.960 . S
H546 C560 0.960 . S
H547 C560 0.960 . S
C548 H540 0.929 . S
C548 C549 1.377 . S
C548 C550 1.384 . S
C549 C548 1.377 . S
C549 C555 1.390 . S
C550 H541 0.930 . S
C550 C548 1.384 . S
C550 C551 1.372 . S
C551 C550 1.372 . S
C551 C552 1.400 . S
C551 C556 1.490 . S
C552 H542 0.922 1_554 S
C552 C551 1.400 . S
C552 C555 1.386 . S
H553 C569 0.930 1_556 S
H554 C570 0.931 . S
C555 H543 0.929 1_554 S
C555 C549 1.390 . S
C555 C552 1.386 . S
C556 C551 1.490 . S
C556 C558 1.395 . S
C556 C559 1.403 . S
H557 C563 0.930 . S
C558 H544 0.930 . S
C558 C556 1.395 . S
C558 C561 1.403 . S
C559 C556 1.403 . S
C559 C560 1.524 . S
C559 C563 1.400 . S
C560 H545 0.960 . S
C560 H546 0.960 . S
C560 H547 0.960 . S
C560 C559 1.524 . S
C561 C558 1.403 . S
C561 C562 1.392 . S
C561 C565 1.495 . S
C562 C561 1.392 . S
C562 C563 1.385 . S
C562 C564 1.478 . S
C563 H557 0.930 . S
C563 C559 1.400 . S
C563 C562 1.385 . S
C564 C562 1.478 . S
C564 C566 1.381 . S
C564 C570 1.383 . S
C565 C561 1.495 . S
C565 H571 0.959 . S
C565 H572 0.961 . S
C565 H573 0.960 . S
C566 C564 1.381 . S
C566 C567 1.394 . S
C566 H574 0.930 . S
C567 C566 1.394 . S
C567 C568 1.383 . S
C567 H575 0.929 . S
C568 C567 1.383 . S
C568 C569 1.377 . S
C569 H553 0.930 1_554 S
C569 C568 1.377 . S
C569 C570 1.379 . S
C570 H554 0.931 . S
C570 C564 1.383 . S
C570 C569 1.379 . S
H571 C565 0.959 . S
H572 C565 0.961 . S
H573 C565 0.960 . S
H574 C566 0.930 . S
H575 C567 0.929 . S
H576 C584 0.929 . S
H577 C586 0.930 . S
H578 C588 0.925 1_556 S
H579 C591 0.929 1_556 S
H580 C594 0.930 . S
H581 C596 0.960 . S
H582 C596 0.960 . S
H583 C596 0.960 . S
C584 H576 0.929 . S
C584 C585 1.377 . S
C584 C586 1.384 . S
C585 C584 1.377 . S
C585 C591 1.390 . S
C586 H577 0.930 . S
C586 C584 1.384 . S
C586 C587 1.372 . S
C587 C586 1.372 . S
C587 C588 1.400 . S
C587 C592 1.490 . S
C588 H578 0.925 1_554 S
C588 C587 1.400 . S
C588 C591 1.386 . S
H589 C605 0.907 1_556 S
H590 C606 0.931 . S
C591 H579 0.929 1_554 S
C591 C585 1.390 . S
C591 C588 1.386 . S
C592 C587 1.490 . S
C592 C594 1.395 . S
C592 C595 1.403 . S
H593 C599 0.930 . S
C594 H580 0.930 . S
C594 C592 1.395 . S
C594 C597 1.403 . S
C595 C592 1.403 . S
C595 C596 1.524 . S
C595 C599 1.400 . S
C596 H581 0.960 . S
C596 H582 0.960 . S
C596 H583 0.960 . S
C596 C595 1.524 . S
C597 C594 1.403 . S
C597 C598 1.392 . S
C597 C601 1.495 . S
C598 C597 1.392 . S
C598 C599 1.385 . S
C598 C600 1.478 . S
C599 H593 0.930 . S
C599 C595 1.400 . S
C599 C598 1.385 . S
C600 C598 1.478 . S
C600 C602 1.381 . S
C600 C606 1.383 . S
C601 C597 1.495 . S
C601 H607 0.959 . S
C601 H608 0.961 . S
C601 H609 0.960 . S
C602 C600 1.381 . S
C602 C603 1.394 . S
C602 H610 0.930 . S
C603 C602 1.394 . S
C603 C604 1.383 . S
C603 H611 0.929 . S
C604 C603 1.383 . S
C604 C605 1.377 . S
C605 H589 0.907 1_554 S
C605 C604 1.377 . S
C605 C606 1.379 . S
C606 H590 0.931 . S
C606 C600 1.383 . S
C606 C605 1.379 . S
H607 C601 0.959 . S
H608 C601 0.961 . S
H609 C601 0.960 . S
H610 C602 0.930 . S
H611 C603 0.929 . S
H612 C620 0.929 . S
H613 C622 0.930 . S
H614 C624 0.930 . S
H615 C627 0.929 . S
H616 C630 0.929 1_554 S
H617 C632 0.960 . S
H618 C632 0.960 . S
H619 C632 0.960 . S
C620 H612 0.929 . S
C620 C621 1.377 . S
C620 C622 1.384 . S
C621 C620 1.377 . S
C621 C627 1.390 . S
C622 H613 0.930 . S
C622 C620 1.384 . S
C622 C623 1.372 . S
C623 C622 1.372 . S
C623 C624 1.400 . S
C623 C628 1.490 . S
C624 H614 0.930 . S
C624 C623 1.400 . S
C624 C627 1.386 . S
H625 C641 0.930 . S
H626 C642 0.931 . S
C627 H615 0.929 . S
C627 C621 1.390 . S
C627 C624 1.386 . S
C628 C623 1.490 . S
C628 C630 1.395 . S
C628 C631 1.403 . S
H629 C635 0.930 . S
C630 H616 0.929 1_556 S
C630 C628 1.395 . S
C630 C633 1.403 . S
C631 C628 1.403 . S
C631 C632 1.524 . S
C631 C635 1.400 . S
C632 H617 0.960 . S
C632 H618 0.960 . S
C632 H619 0.960 . S
C632 C631 1.524 . S
C633 C630 1.403 . S
C633 C634 1.392 . S
C633 C637 1.495 1_556 S
C634 C633 1.392 . S
C634 C635 1.385 . S
C634 C636 1.478 . S
C635 H629 0.930 . S
C635 C631 1.400 . S
C635 C634 1.385 . S
C636 C634 1.478 . S
C636 C638 1.381 . S
C636 C642 1.383 . S
C637 C633 1.495 1_554 S
C637 H643 0.959 . S
C637 H644 0.961 . S
C637 H645 0.960 . S
C638 C636 1.381 . S
C638 C639 1.394 . S
C638 H646 0.930 . S
C639 C638 1.394 . S
C639 C640 1.383 . S
C639 H647 0.929 . S
C640 C639 1.383 . S
C640 C641 1.377 . S
C641 H625 0.930 . S
C641 C640 1.377 . S
C641 C642 1.379 . S
C642 H626 0.931 . S
C642 C636 1.383 . S
C642 C641 1.379 . S
H643 C637 0.959 . S
H644 C637 0.961 . S
H645 C637 0.960 . S
H646 C638 0.930 . S
H647 C639 0.929 . S
H648 C656 0.929 . S
H649 C658 0.930 . S
H650 C660 0.930 . S
H651 C663 0.929 . S
H652 C666 0.930 . S
H653 C668 0.960 . S
H654 C668 0.960 . S
H655 C668 0.960 . S
C656 H648 0.929 . S
C656 C657 1.377 . S
C656 C658 1.384 . S
C657 C656 1.377 . S
C657 C663 1.390 . S
C658 H649 0.930 . S
C658 C656 1.384 . S
C658 C659 1.372 . S
C659 C658 1.372 . S
C659 C660 1.400 . S
C659 C664 1.490 . S
C660 H650 0.930 . S
C660 C659 1.400 . S
C660 C663 1.386 . S
H661 C677 0.930 . S
H662 C678 0.931 . S
C663 H651 0.929 . S
C663 C657 1.390 . S
C663 C660 1.386 . S
C664 C659 1.490 . S
C664 C666 1.395 . S
C664 C667 1.403 . S
H665 C671 0.930 . S
C666 H652 0.930 . S
C666 C664 1.395 . S
C666 C669 1.403 . S
C667 C664 1.403 . S
C667 C668 1.524 . S
C667 C671 1.400 . S
C668 H653 0.960 . S
C668 H654 0.960 . S
C668 H655 0.960 . S
C668 C667 1.524 . S
C669 C666 1.403 . S
C669 C670 1.392 . S
C669 C673 1.495 . S
C670 C669 1.392 . S
C670 C671 1.385 . S
C670 C672 1.478 . S
C671 H665 0.930 . S
C671 C667 1.400 . S
C671 C670 1.385 . S
C672 C670 1.478 . S
C672 C674 1.381 . S
C672 C678 1.383 . S
C673 C669 1.495 . S
C673 H679 0.959 . S
C673 H680 0.961 . S
C673 H681 0.960 . S
C674 C672 1.381 . S
C674 C675 1.394 . S
C674 H682 0.930 . S
C675 C674 1.394 . S
C675 C676 1.383 . S
C675 H683 0.929 . S
C676 C675 1.383 . S
C676 C677 1.377 . S
C677 H661 0.930 . S
C677 C676 1.377 . S
C677 C678 1.379 . S
C678 H662 0.931 . S
C678 C672 1.383 . S
C678 C677 1.379 . S
H679 C673 0.959 . S
H680 C673 0.961 . S
H681 C673 0.960 . S
H682 C674 0.930 . S
H683 C675 0.929 . S
H684 C692 0.929 . S
H685 C694 0.930 . S
H686 C696 0.930 . S
H687 C699 0.929 . S
H688 C702 0.930 . S
H689 C704 0.960 . S
H690 C704 0.960 . S
H691 C704 0.960 . S
C692 H684 0.929 . S
C692 C693 1.377 . S
C692 C694 1.384 . S
C693 C692 1.377 . S
C693 C699 1.390 . S
C694 H685 0.930 . S
C694 C692 1.384 . S
C694 C695 1.372 . S
C695 C694 1.372 . S
C695 C696 1.400 . S
C695 C700 1.490 . S
C696 H686 0.930 . S
C696 C695 1.400 . S
C696 C699 1.386 . S
H697 C713 0.930 . S
H698 C714 0.931 . S
C699 H687 0.929 . S
C699 C693 1.390 . S
C699 C696 1.386 . S
C700 C695 1.490 . S
C700 C702 1.395 . S
C700 C703 1.403 . S
H701 C707 0.930 . S
C702 H688 0.930 . S
C702 C700 1.395 . S
C702 C705 1.403 . S
C703 C700 1.403 . S
C703 C704 1.524 1_556 S
C703 C707 1.400 . S
C704 H689 0.960 . S
C704 H690 0.960 . S
C704 H691 0.960 . S
C704 C703 1.524 1_554 S
C705 C702 1.403 . S
C705 C706 1.392 . S
C705 C709 1.495 . S
C706 C705 1.392 . S
C706 C707 1.385 . S
C706 C708 1.478 . S
C707 H701 0.930 . S
C707 C703 1.400 . S
C707 C706 1.385 . S
C708 C706 1.478 . S
C708 C710 1.381 . S
C708 C714 1.383 . S
C709 C705 1.495 . S
C709 H715 0.959 . S
C709 H716 0.961 . S
C709 H717 0.960 . S
C710 C708 1.381 . S
C710 C711 1.394 . S
C710 H718 0.930 . S
C711 C710 1.394 . S
C711 C712 1.383 . S
C711 H719 0.929 . S
C712 C711 1.383 . S
C712 C713 1.377 . S
C713 H697 0.930 . S
C713 C712 1.377 . S
C713 C714 1.379 . S
C714 H698 0.931 . S
C714 C708 1.383 . S
C714 C713 1.379 . S
H715 C709 0.959 . S
H716 C709 0.961 . S
H717 C709 0.960 . S
H718 C710 0.930 . S
H719 C711 0.929 . S
H720 C728 0.929 . S
H721 C730 0.930 . S
H722 C732 0.930 . S
H723 C735 0.929 . S
H724 C738 0.930 . S
H725 C740 0.960 . S
H726 C740 0.960 . S
H727 C740 0.960 . S
C728 H720 0.929 . S
C728 C729 1.377 . S
C728 C730 1.384 . S
C729 C728 1.377 . S
C729 C735 1.390 . S
C730 H721 0.930 . S
C730 C728 1.384 . S
C730 C731 1.372 . S
C731 C730 1.372 . S
C731 C732 1.400 . S
C731 C736 1.490 . S
C732 H722 0.930 . S
C732 C731 1.400 . S
C732 C735 1.386 . S
H733 C749 0.930 . S
H734 C750 0.931 . S
C735 H723 0.929 . S
C735 C729 1.390 . S
C735 C732 1.386 . S
C736 C731 1.490 . S
C736 C738 1.395 . S
C736 C739 1.403 . S
H737 C743 0.930 . S
C738 H724 0.930 . S
C738 C736 1.395 . S
C738 C741 1.403 . S
C739 C736 1.403 . S
C739 C740 1.524 . S
C739 C743 1.400 . S
C740 H725 0.960 . S
C740 H726 0.960 . S
C740 H727 0.960 . S
C740 C739 1.524 . S
C741 C738 1.403 . S
C741 C742 1.392 . S
C741 C745 1.495 . S
C742 C741 1.392 . S
C742 C743 1.385 . S
C742 C744 1.478 . S
C743 H737 0.930 . S
C743 C739 1.400 . S
C743 C742 1.385 . S
C744 C742 1.478 . S
C744 C746 1.381 . S
C744 C750 1.383 . S
C745 C741 1.495 . S
C745 H751 0.959 . S
C745 H752 0.961 . S
C745 H753 0.960 . S
C746 C744 1.381 . S
C746 C747 1.394 . S
C746 H754 0.930 . S
C747 C746 1.394 . S
C747 C748 1.383 . S
C747 H755 0.929 . S
C748 C747 1.383 . S
C748 C749 1.377 . S
C749 H733 0.930 . S
C749 C748 1.377 . S
C749 C750 1.379 . S
C750 H734 0.931 . S
C750 C744 1.383 . S
C750 C749 1.379 . S
H751 C745 0.959 . S
H752 C745 0.961 . S
H753 C745 0.960 . S
H754 C746 0.930 . S
H755 C747 0.929 . S
H756 C764 0.929 . S
H757 C766 0.930 . S
H758 C768 0.930 . S
H759 C771 0.929 . S
H760 C774 0.930 . S
H761 C776 0.960 . S
H762 C776 0.960 . S
H763 C776 0.960 . S
C764 H756 0.929 . S
C764 C765 1.377 . S
C764 C766 1.384 . S
C765 C764 1.377 . S
C765 C771 1.390 . S
C766 H757 0.930 . S
C766 C764 1.384 . S
C766 C767 1.372 . S
C767 C766 1.372 . S
C767 C768 1.400 . S
C767 C772 1.490 . S
C768 H758 0.930 . S
C768 C767 1.400 . S
C768 C771 1.386 . S
H769 C785 0.930 . S
H770 C786 0.931 . S
C771 H759 0.929 . S
C771 C765 1.390 . S
C771 C768 1.386 . S
C772 C767 1.490 . S
C772 C774 1.395 . S
C772 C775 1.403 . S
H773 C779 0.930 . S
C774 H760 0.930 . S
C774 C772 1.395 . S
C774 C777 1.403 . S
C775 C772 1.403 . S
C775 C776 1.524 . S
C775 C779 1.400 . S
C776 H761 0.960 . S
C776 H762 0.960 . S
C776 H763 0.960 . S
C776 C775 1.524 . S
C777 C774 1.403 . S
C777 C778 1.392 . S
C777 C781 1.495 . S
C778 C777 1.392 . S
C778 C779 1.385 . S
C778 C780 1.478 . S
C779 H773 0.930 . S
C779 C775 1.400 . S
C779 C778 1.385 . S
C780 C778 1.478 . S
C780 C782 1.381 . S
C780 C786 1.383 . S
C781 C777 1.495 . S
C781 H787 0.959 . S
C781 H788 0.961 . S
C781 H789 0.960 . S
C782 C780 1.381 . S
C782 C783 1.394 . S
C782 H790 0.930 . S
C783 C782 1.394 . S
C783 C784 1.383 . S
C783 H791 0.929 . S
C784 C783 1.383 . S
C784 C785 1.377 . S
C785 H769 0.930 . S
C785 C784 1.377 . S
C785 C786 1.379 . S
C786 H770 0.931 . S
C786 C780 1.383 . S
C786 C785 1.379 . S
H787 C781 0.959 . S
H788 C781 0.961 . S
H789 C781 0.960 . S
H790 C782 0.930 . S
H791 C783 0.929 . S
H792 C800 0.929 . S
H793 C802 0.930 . S
H794 C804 0.930 . S
H795 C807 0.929 . S
H796 C810 0.930 . S
H797 C812 0.960 . S
H798 C812 0.960 . S
H799 C812 0.960 . S
C800 H792 0.929 . S
C800 C801 1.377 . S
C800 C802 1.384 . S
C801 C800 1.377 . S
C801 C807 1.390 . S
C802 H793 0.930 . S
C802 C800 1.384 . S
C802 C803 1.372 . S
C803 C802 1.372 . S
C803 C804 1.400 . S
C803 C808 1.490 . S
C804 H794 0.930 . S
C804 C803 1.400 . S
C804 C807 1.386 . S
H805 C821 0.930 . S
H806 C822 0.931 . S
C807 H795 0.929 . S
C807 C801 1.390 . S
C807 C804 1.386 . S
C808 C803 1.490 . S
C808 C810 1.395 . S
C808 C811 1.403 . S
H809 C815 0.930 . S
C810 H796 0.930 . S
C810 C808 1.395 . S
C810 C813 1.403 . S
C811 C808 1.403 . S
C811 C812 1.524 . S
C811 C815 1.400 . S
C812 H797 0.960 . S
C812 H798 0.960 . S
C812 H799 0.960 . S
C812 C811 1.524 . S
C813 C810 1.403 . S
C813 C814 1.392 . S
C813 C817 1.495 . S
C814 C813 1.392 . S
C814 C815 1.385 . S
C814 C816 1.478 . S
C815 H809 0.930 . S
C815 C811 1.400 . S
C815 C814 1.385 . S
C816 C814 1.478 . S
C816 C818 1.381 . S
C816 C822 1.383 . S
C817 C813 1.495 . S
C817 H823 0.959 . S
C817 H824 0.961 . S
C817 H825 0.960 . S
C818 C816 1.381 . S
C818 C819 1.394 . S
C818 H826 0.930 . S
C819 C818 1.394 . S
C819 C820 1.383 . S
C819 H827 0.929 . S
C820 C819 1.383 . S
C820 C821 1.377 . S
C821 H805 0.930 . S
C821 C820 1.377 . S
C821 C822 1.379 . S
C822 H806 0.931 . S
C822 C816 1.383 . S
C822 C821 1.379 . S
H823 C817 0.959 . S
H824 C817 0.961 . S
H825 C817 0.960 . S
H826 C818 0.930 . S
H827 C819 0.929 . S
H828 C836 0.929 . S
H829 C838 0.930 . S
H830 C840 0.930 . S
H831 C843 0.929 . S
H832 C846 0.930 . S
H833 C848 0.960 . S
H834 C848 0.960 . S
H835 C848 0.960 . S
C836 H828 0.929 . S
C836 C837 1.377 . S
C836 C838 1.384 . S
C837 C836 1.377 . S
C837 C843 1.390 . S
C838 H829 0.930 . S
C838 C836 1.384 . S
C838 C839 1.372 . S
C839 C838 1.372 . S
C839 C840 1.400 . S
C839 C844 1.490 . S
C840 H830 0.930 . S
C840 C839 1.400 . S
C840 C843 1.386 . S
H841 C857 0.930 . S
H842 C858 0.931 . S
C843 H831 0.929 . S
C843 C837 1.390 . S
C843 C840 1.386 . S
C844 C839 1.490 . S
C844 C846 1.395 . S
C844 C847 1.403 . S
H845 C851 0.930 . S
C846 H832 0.930 . S
C846 C844 1.395 . S
C846 C849 1.403 . S
C847 C844 1.403 . S
C847 C848 1.524 . S
C847 C851 1.400 . S
C848 H833 0.960 . S
C848 H834 0.960 . S
C848 H835 0.960 . S
C848 C847 1.524 . S
C849 C846 1.403 . S
C849 C850 1.392 . S
C849 C853 1.495 . S
C850 C849 1.392 . S
C850 C851 1.385 . S
C850 C852 1.478 . S
C851 H845 0.930 . S
C851 C847 1.400 . S
C851 C850 1.385 . S
C852 C850 1.478 . S
C852 C854 1.381 . S
C852 C858 1.383 . S
C853 C849 1.495 . S
C853 H859 0.959 . S
C853 H860 0.961 . S
C853 H861 0.960 . S
C854 C852 1.381 . S
C854 C855 1.394 . S
C854 H862 0.930 . S
C855 C854 1.394 . S
C855 C856 1.383 . S
C855 H863 0.929 . S
C856 C855 1.383 . S
C856 C857 1.377 . S
C857 H841 0.930 . S
C857 C856 1.377 . S
C857 C858 1.379 . S
C858 H842 0.931 . S
C858 C852 1.383 . S
C858 C857 1.379 . S
H859 C853 0.959 . S
H860 C853 0.961 . S
H861 C853 0.960 . S
H862 C854 0.930 . S
H863 C855 0.929 . S
H864 C872 0.929 . S
H865 C874 0.930 . S
H866 C876 0.930 . S
H867 C879 0.929 . S
H868 C882 0.930 . S
H869 C884 0.960 . S
H870 C884 0.960 . S
H871 C884 0.960 . S
C872 H864 0.929 . S
C872 C873 1.377 . S
C872 C874 1.384 . S
C873 C872 1.377 . S
C873 C879 1.390 . S
C874 H865 0.930 . S
C874 C872 1.384 . S
C874 C875 1.372 . S
C875 C874 1.372 . S
C875 C876 1.400 . S
C875 C880 1.490 . S
C876 H866 0.930 . S
C876 C875 1.400 . S
C876 C879 1.386 . S
H877 C893 0.930 . S
H878 C894 0.931 . S
C879 H867 0.929 . S
C879 C873 1.390 . S
C879 C876 1.386 . S
C880 C875 1.490 . S
C880 C882 1.395 . S
C880 C883 1.403 . S
H881 C887 0.930 . S
C882 H868 0.930 . S
C882 C880 1.395 . S
C882 C885 1.403 . S
C883 C880 1.403 . S
C883 C884 1.524 . S
C883 C887 1.400 . S
C884 H869 0.960 . S
C884 H870 0.960 . S
C884 H871 0.960 . S
C884 C883 1.524 . S
C885 C882 1.403 . S
C885 C886 1.392 . S
C885 C889 1.495 . S
C886 C885 1.392 . S
C886 C887 1.385 . S
C886 C888 1.478 . S
C887 H881 0.930 . S
C887 C883 1.400 . S
C887 C886 1.385 . S
C888 C886 1.478 . S
C888 C890 1.381 . S
C888 C894 1.383 . S
C889 C885 1.495 . S
C889 H895 0.959 . S
C889 H896 0.961 . S
C889 H897 0.960 . S
C890 C888 1.381 . S
C890 C891 1.394 . S
C890 H898 0.930 . S
C891 C890 1.394 . S
C891 C892 1.383 . S
C891 H899 0.929 . S
C892 C891 1.383 . S
C892 C893 1.377 . S
C893 H877 0.930 . S
C893 C892 1.377 . S
C893 C894 1.379 . S
C894 H878 0.931 . S
C894 C888 1.383 . S
C894 C893 1.379 . S
H895 C889 0.959 . S
H896 C889 0.961 . S
H897 C889 0.960 . S
H898 C890 0.930 . S
H899 C891 0.929 . S
H900 C908 0.929 . S
H901 C910 0.930 . S
H902 C912 0.930 . S
H903 C915 0.929 . S
H904 C918 0.930 . S
H905 C920 0.960 . S
H906 C920 0.960 . S
H907 C920 0.960 . S
C908 H900 0.929 . S
C908 C909 1.377 . S
C908 C910 1.384 . S
C909 C908 1.377 . S
C909 C915 1.390 . S
C910 H901 0.930 . S
C910 C908 1.384 . S
C910 C911 1.372 . S
C911 C910 1.372 . S
C911 C912 1.400 . S
C911 C916 1.490 . S
C912 H902 0.930 . S
C912 C911 1.400 . S
C912 C915 1.386 . S
H913 C929 0.930 . S
H914 C930 0.931 . S
C915 H903 0.929 . S
C915 C909 1.390 . S
C915 C912 1.386 . S
C916 C911 1.490 . S
C916 C918 1.395 . S
C916 C919 1.403 . S
H917 C923 0.930 . S
C918 H904 0.930 . S
C918 C916 1.395 . S
C918 C921 1.403 . S
C919 C916 1.403 . S
C919 C920 1.524 . S
C919 C923 1.400 . S
C920 H905 0.960 . S
C920 H906 0.960 . S
C920 H907 0.960 . S
C920 C919 1.524 . S
C921 C918 1.403 . S
C921 C922 1.392 . S
C921 C925 1.495 . S
C922 C921 1.392 . S
C922 C923 1.385 . S
C922 C924 1.478 . S
C923 H917 0.930 . S
C923 C919 1.400 . S
C923 C922 1.385 . S
C924 C922 1.478 . S
C924 C926 1.381 . S
C924 C930 1.383 . S
C925 C921 1.495 . S
C925 H931 0.959 . S
C925 H932 0.961 . S
C925 H933 0.960 . S
C926 C924 1.381 . S
C926 C927 1.394 . S
C926 H934 0.930 . S
C927 C926 1.394 . S
C927 C928 1.383 . S
C927 H935 0.929 . S
C928 C927 1.383 . S
C928 C929 1.377 . S
C929 H913 0.930 . S
C929 C928 1.377 . S
C929 C930 1.379 . S
C930 H914 0.931 . S
C930 C924 1.383 . S
C930 C929 1.379 . S
H931 C925 0.959 . S
H932 C925 0.961 . S
H933 C925 0.960 . S
H934 C926 0.930 . S
H935 C927 0.929 . S
H936 C944 0.929 . S
H937 C946 0.930 . S
H938 C948 0.930 . S
H939 C951 0.929 . S
H940 C954 0.930 . S
H941 C956 0.960 . S
H942 C956 0.960 . S
H943 C956 0.960 . S
C944 H936 0.929 . S
C944 C945 1.377 . S
C944 C946 1.384 . S
C945 C944 1.377 . S
C945 C951 1.390 . S
C946 H937 0.930 . S
C946 C944 1.384 . S
C946 C947 1.372 . S
C947 C946 1.372 . S
C947 C948 1.400 . S
C947 C952 1.490 . S
C948 H938 0.930 . S
C948 C947 1.400 . S
C948 C951 1.386 . S
H949 C965 0.930 . S
H950 C966 0.931 . S
C951 H939 0.929 . S
C951 C945 1.390 . S
C951 C948 1.386 . S
C952 C947 1.490 . S
C952 C954 1.395 . S
C952 C955 1.403 . S
H953 C959 0.930 . S
C954 H940 0.930 . S
C954 C952 1.395 . S
C954 C957 1.403 . S
C955 C952 1.403 . S
C955 C956 1.524 . S
C955 C959 1.400 . S
C956 H941 0.960 . S
C956 H942 0.960 . S
C956 H943 0.960 . S
C956 C955 1.524 . S
C957 C954 1.403 . S
C957 C958 1.392 . S
C957 C961 1.495 . S
C958 C957 1.392 . S
C958 C959 1.385 . S
C958 C960 1.478 . S
C959 H953 0.930 . S
C959 C955 1.400 . S
C959 C958 1.385 . S
C960 C958 1.478 . S
C960 C962 1.381 . S
C960 C966 1.383 . S
C961 C957 1.495 . S
C961 H967 0.959 . S
C961 H968 0.961 . S
C961 H969 0.960 . S
C962 C960 1.381 . S
C962 C963 1.394 . S
C962 H970 0.930 . S
C963 C962 1.394 . S
C963 C964 1.383 . S
C963 H971 0.929 . S
C964 C963 1.383 . S
C964 C965 1.377 . S
C965 H949 0.930 . S
C965 C964 1.377 . S
C965 C966 1.379 . S
C966 H950 0.931 . S
C966 C960 1.383 . S
C966 C965 1.379 . S
H967 C961 0.959 . S
H968 C961 0.961 . S
H969 C961 0.960 . S
H970 C962 0.930 . S
H971 C963 0.929 . S
H972 C980 0.929 . S
H973 C982 0.930 . S
H974 C984 0.930 . S
H975 C987 0.929 . S
H976 C990 0.930 . S
H977 C992 0.960 . S
H978 C992 0.960 . S
H979 C992 0.960 . S
C980 H972 0.929 . S
C980 C981 1.377 . S
C980 C982 1.384 . S
C981 C980 1.377 . S
C981 C987 1.390 . S
C982 H973 0.930 . S
C982 C980 1.384 . S
C982 C983 1.372 . S
C983 C982 1.372 . S
C983 C984 1.400 . S
C983 C988 1.490 . S
C984 H974 0.930 . S
C984 C983 1.400 . S
C984 C987 1.386 . S
H985 C1001 0.930 . S
H986 C1002 0.931 . S
C987 H975 0.929 . S
C987 C981 1.390 . S
C987 C984 1.386 . S
C988 C983 1.490 . S
C988 C990 1.395 . S
C988 C991 1.403 . S
H989 C995 0.930 . S
C990 H976 0.930 . S
C990 C988 1.395 . S
C990 C993 1.403 . S
C991 C988 1.403 . S
C991 C992 1.524 . S
C991 C995 1.400 . S
C992 H977 0.960 . S
C992 H978 0.960 . S
C992 H979 0.960 . S
C992 C991 1.524 . S
C993 C990 1.403 . S
C993 C994 1.392 . S
C993 C997 1.495 . S
C994 C993 1.392 . S
C994 C995 1.385 . S
C994 C996 1.478 . S
C995 H989 0.930 . S
C995 C991 1.400 . S
C995 C994 1.385 . S
C996 C994 1.478 . S
C996 C998 1.381 . S
C996 C1002 1.383 . S
C997 C993 1.495 . S
C997 H1003 0.959 . S
C997 H1004 0.961 . S
C997 H1005 0.960 . S
C998 C996 1.381 . S
C998 C999 1.394 . S
C998 H1006 0.930 . S
C999 C998 1.394 . S
C999 C1000 1.383 . S
C999 H1007 0.929 . S
C1000 C999 1.383 . S
C1000 C1001 1.377 . S
C1001 H985 0.930 . S
C1001 C1000 1.377 . S
C1001 C1002 1.379 . S
C1002 H986 0.931 . S
C1002 C996 1.383 . S
C1002 C1001 1.379 . S
H1003 C997 0.959 . S
H1004 C997 0.961 . S
H1005 C997 0.960 . S
H1006 C998 0.930 . S
H1007 C999 0.929 . S
H1008 C1016 0.929 . S
H1009 C1018 0.930 . S
H1010 C1020 0.930 . S
H1011 C1023 0.929 . S
H1012 C1026 0.930 . S
H1013 C1028 0.960 . S
H1014 C1028 0.960 . S
H1015 C1028 0.960 . S
C1016 H1008 0.929 . S
C1016 C1017 1.377 . S
C1016 C1018 1.384 . S
C1017 C1016 1.377 . S
C1017 C1023 1.390 . S
C1018 H1009 0.930 . S
C1018 C1016 1.384 . S
C1018 C1019 1.372 . S
C1019 C1018 1.372 . S
C1019 C1020 1.400 . S
C1019 C1024 1.490 . S
C1020 H1010 0.930 . S
C1020 C1019 1.400 . S
C1020 C1023 1.386 . S
H1021 C1037 0.930 . S
H1022 C1038 0.931 . S
C1023 H1011 0.929 . S
C1023 C1017 1.390 . S
C1023 C1020 1.386 . S
C1024 C1019 1.490 . S
C1024 C1026 1.395 . S
C1024 C1027 1.403 . S
H1025 C1031 0.930 . S
C1026 H1012 0.930 . S
C1026 C1024 1.395 . S
C1026 C1029 1.403 . S
C1027 C1024 1.403 . S
C1027 C1028 1.524 . S
C1027 C1031 1.400 . S
C1028 H1013 0.960 . S
C1028 H1014 0.960 . S
C1028 H1015 0.960 . S
C1028 C1027 1.524 . S
C1029 C1026 1.403 . S
C1029 C1030 1.392 . S
C1029 C1033 1.495 . S
C1030 C1029 1.392 . S
C1030 C1031 1.385 . S
C1030 C1032 1.478 . S
C1031 H1025 0.930 . S
C1031 C1027 1.400 . S
C1031 C1030 1.385 . S
C1032 C1030 1.478 . S
C1032 C1034 1.381 . S
C1032 C1038 1.383 . S
C1033 C1029 1.495 . S
C1033 H1039 0.959 . S
C1033 H1040 0.961 . S
C1033 H1041 0.960 . S
C1034 C1032 1.381 . S
C1034 C1035 1.394 . S
C1034 H1042 0.930 . S
C1035 C1034 1.394 . S
C1035 C1036 1.383 . S
C1035 H1043 0.929 . S
C1036 C1035 1.383 . S
C1036 C1037 1.377 . S
C1037 H1021 0.930 . S
C1037 C1036 1.377 . S
C1037 C1038 1.379 . S
C1038 H1022 0.931 . S
C1038 C1032 1.383 . S
C1038 C1037 1.379 . S
H1039 C1033 0.959 . S
H1040 C1033 0.961 . S
H1041 C1033 0.960 . S
H1042 C1034 0.930 . S
H1043 C1035 0.929 . S
H1044 C1052 0.929 . S
H1045 C1054 0.930 . S
H1046 C1056 0.930 . S
H1047 C1059 0.929 . S
H1048 C1062 0.930 . S
H1049 C1064 0.960 . S
H1050 C1064 0.960 . S
H1051 C1064 0.960 . S
C1052 H1044 0.929 . S
C1052 C1053 1.377 . S
C1052 C1054 1.384 . S
C1053 C1052 1.377 . S
C1053 C1059 1.390 . S
C1054 H1045 0.930 . S
C1054 C1052 1.384 . S
C1054 C1055 1.372 . S
C1055 C1054 1.372 . S
C1055 C1056 1.400 . S
C1055 C1060 1.490 . S
C1056 H1046 0.930 . S
C1056 C1055 1.400 . S
C1056 C1059 1.386 . S
H1057 C1073 0.930 . S
H1058 C1074 0.931 . S
C1059 H1047 0.929 . S
C1059 C1053 1.390 . S
C1059 C1056 1.386 . S
C1060 C1055 1.490 . S
C1060 C1062 1.395 . S
C1060 C1063 1.403 . S
H1061 C1067 0.930 . S
C1062 H1048 0.930 . S
C1062 C1060 1.395 . S
C1062 C1065 1.403 . S
C1063 C1060 1.403 . S
C1063 C1064 1.524 . S
C1063 C1067 1.400 . S
C1064 H1049 0.960 . S
C1064 H1050 0.960 . S
C1064 H1051 0.960 . S
C1064 C1063 1.524 . S
C1065 C1062 1.403 . S
C1065 C1066 1.392 . S
C1065 C1069 1.495 . S
C1066 C1065 1.392 . S
C1066 C1067 1.385 . S
C1066 C1068 1.478 . S
C1067 H1061 0.930 . S
C1067 C1063 1.400 . S
C1067 C1066 1.385 . S
C1068 C1066 1.478 . S
C1068 C1070 1.381 . S
C1068 C1074 1.383 . S
C1069 C1065 1.495 . S
C1069 H1075 0.959 . S
C1069 H1076 0.961 . S
C1069 H1077 0.960 . S
C1070 C1068 1.381 . S
C1070 C1071 1.394 . S
C1070 H1078 0.930 . S
C1071 C1070 1.394 . S
C1071 C1072 1.383 . S
C1071 H1079 0.929 . S
C1072 C1071 1.383 . S
C1072 C1073 1.377 . S
C1073 H1057 0.930 . S
C1073 C1072 1.377 . S
C1073 C1074 1.379 . S
C1074 H1058 0.931 . S
C1074 C1068 1.383 . S
C1074 C1073 1.379 . S
H1075 C1069 0.959 . S
H1076 C1069 0.961 . S
H1077 C1069 0.960 . S
H1078 C1070 0.930 . S
H1079 C1071 0.929 . S
H1080 C1088 0.929 . S
H1081 C1090 0.930 . S
H1082 C1092 0.930 . S
H1083 C1095 0.929 . S
H1084 C1098 0.930 . S
H1085 C1100 0.960 . S
H1086 C1100 0.960 . S
H1087 C1100 0.960 . S
C1088 H1080 0.929 . S
C1088 C1089 1.377 . S
C1088 C1090 1.384 . S
C1089 C1088 1.377 . S
C1089 C1095 1.390 . S
C1090 H1081 0.930 . S
C1090 C1088 1.384 . S
C1090 C1091 1.372 . S
C1091 C1090 1.372 . S
C1091 C1092 1.400 . S
C1091 C1096 1.490 . S
C1092 H1082 0.930 . S
C1092 C1091 1.400 . S
C1092 C1095 1.386 . S
H1093 C1109 0.930 . S
H1094 C1110 0.931 . S
C1095 H1083 0.929 . S
C1095 C1089 1.390 . S
C1095 C1092 1.386 . S
C1096 C1091 1.490 . S
C1096 C1098 1.395 . S
C1096 C1099 1.403 . S
H1097 C1103 0.930 . S
C1098 H1084 0.930 . S
C1098 C1096 1.395 . S
C1098 C1101 1.403 . S
C1099 C1096 1.403 . S
C1099 C1100 1.524 . S
C1099 C1103 1.400 . S
C1100 H1085 0.960 . S
C1100 H1086 0.960 . S
C1100 H1087 0.960 . S
C1100 C1099 1.524 . S
C1101 C1098 1.403 . S
C1101 C1102 1.392 . S
C1101 C1105 1.495 . S
C1102 C1101 1.392 . S
C1102 C1103 1.385 . S
C1102 C1104 1.478 . S
C1103 H1097 0.930 . S
C1103 C1099 1.400 . S
C1103 C1102 1.385 . S
C1104 C1102 1.478 . S
C1104 C1106 1.381 . S
C1104 C1110 1.383 . S
C1105 C1101 1.495 . S
C1105 H1111 0.959 . S
C1105 H1112 0.961 . S
C1105 H1113 0.960 . S
C1106 C1104 1.381 . S
C1106 C1107 1.394 . S
C1106 H1114 0.930 . S
C1107 C1106 1.394 . S
C1107 C1108 1.383 . S
C1107 H1115 0.929 . S
C1108 C1107 1.383 . S
C1108 C1109 1.377 . S
C1109 H1093 0.930 . S
C1109 C1108 1.377 . S
C1109 C1110 1.379 . S
C1110 H1094 0.931 . S
C1110 C1104 1.383 . S
C1110 C1109 1.379 . S
H1111 C1105 0.959 . S
H1112 C1105 0.961 . S
H1113 C1105 0.960 . S
H1114 C1106 0.930 . S
H1115 C1107 0.929 . S
H1116 C1124 0.929 . S
H1117 C1126 0.930 . S
H1118 C1128 0.930 . S
H1119 C1131 0.929 . S
H1120 C1134 0.930 . S
H1121 C1136 0.960 . S
H1122 C1136 0.960 . S
H1123 C1136 0.960 . S
C1124 H1116 0.929 . S
C1124 C1125 1.377 . S
C1124 C1126 1.384 . S
C1125 C1124 1.377 . S
C1125 C1131 1.390 . S
C1126 H1117 0.930 . S
C1126 C1124 1.384 . S
C1126 C1127 1.372 . S
C1127 C1126 1.372 . S
C1127 C1128 1.400 . S
C1127 C1132 1.490 . S
C1128 H1118 0.930 . S
C1128 C1127 1.400 . S
C1128 C1131 1.386 . S
H1129 C1145 0.930 . S
H1130 C1146 0.931 . S
C1131 H1119 0.929 . S
C1131 C1125 1.390 . S
C1131 C1128 1.386 . S
C1132 C1127 1.490 . S
C1132 C1134 1.395 . S
C1132 C1135 1.403 . S
H1133 C1139 0.930 . S
C1134 H1120 0.930 . S
C1134 C1132 1.395 . S
C1134 C1137 1.403 . S
C1135 C1132 1.403 . S
C1135 C1136 1.524 . S
C1135 C1139 1.400 . S
C1136 H1121 0.960 . S
C1136 H1122 0.960 . S
C1136 H1123 0.960 . S
C1136 C1135 1.524 . S
C1137 C1134 1.403 . S
C1137 C1138 1.392 . S
C1137 C1141 1.495 . S
C1138 C1137 1.392 . S
C1138 C1139 1.385 . S
C1138 C1140 1.478 . S
C1139 H1133 0.930 . S
C1139 C1135 1.400 . S
C1139 C1138 1.385 . S
C1140 C1138 1.478 . S
C1140 C1142 1.381 . S
C1140 C1146 1.383 . S
C1141 C1137 1.495 . S
C1141 H1147 0.959 . S
C1141 H1148 0.961 . S
C1141 H1149 0.960 . S
C1142 C1140 1.381 . S
C1142 C1143 1.394 . S
C1142 H1150 0.930 . S
C1143 C1142 1.394 . S
C1143 C1144 1.383 . S
C1143 H1151 0.929 . S
C1144 C1143 1.383 . S
C1144 C1145 1.377 . S
C1145 H1129 0.930 . S
C1145 C1144 1.377 . S
C1145 C1146 1.379 . S
C1146 H1130 0.931 . S
C1146 C1140 1.383 . S
C1146 C1145 1.379 . S
H1147 C1141 0.959 . S
H1148 C1141 0.961 . S
H1149 C1141 0.960 . S
H1150 C1142 0.930 . S
H1151 C1143 0.929 . S
H1152 C1160 0.929 . S
H1153 C1162 0.930 . S
H1154 C1164 0.930 . S
H1155 C1167 0.929 1_556 S
H1156 C1170 0.930 . S
H1157 C1172 0.960 . S
H1158 C1172 0.960 . S
H1159 C1172 0.960 . S
C1160 H1152 0.929 . S
C1160 C1161 1.377 . S
C1160 C1162 1.384 . S
C1161 C1160 1.377 . S
C1161 C1167 1.390 . S
C1162 H1153 0.930 . S
C1162 C1160 1.384 . S
C1162 C1163 1.372 . S
C1163 C1162 1.372 . S
C1163 C1164 1.400 1_554 S
C1163 C1168 1.490 . S
C1164 H1154 0.930 . S
C1164 C1163 1.400 1_556 S
C1164 C1167 1.386 1_556 S
H1165 C1181 0.930 . S
H1166 C1182 0.931 . S
C1167 H1155 0.929 1_554 S
C1167 C1161 1.390 . S
C1167 C1164 1.386 1_554 S
C1168 C1163 1.490 . S
C1168 C1170 1.395 . S
C1168 C1171 1.403 1_554 S
H1169 C1175 0.930 . S
C1170 H1156 0.930 . S
C1170 C1168 1.395 . S
C1170 C1173 1.403 1_455 S
C1171 C1168 1.403 1_556 S
C1171 C1172 1.524 . S
C1171 C1175 1.400 1_455 S
C1172 H1157 0.960 . S
C1172 H1158 0.960 . S
C1172 H1159 0.960 . S
C1172 C1171 1.524 . S
C1173 C1170 1.403 1_655 S
C1173 C1174 1.392 1_554 S
C1173 C1177 1.495 . S
C1174 C1173 1.392 1_556 S
C1174 C1175 1.385 . S
C1174 C1176 1.478 . S
C1175 H1169 0.930 . S
C1175 C1171 1.400 1_655 S
C1175 C1174 1.385 . S
C1176 C1174 1.478 . S
C1176 C1178 1.381 1_556 S
C1176 C1182 1.383 . S
C1177 C1173 1.495 . S
C1177 H1183 0.959 . S
C1177 H1184 0.961 . S
C1177 H1185 0.960 . S
C1178 C1176 1.381 1_554 S
C1178 C1179 1.394 1_554 S
C1178 H1186 0.930 . S
C1179 C1178 1.394 1_556 S
C1179 C1180 1.383 . S
C1179 H1187 0.929 1_556 S
C1180 C1179 1.383 . S
C1180 C1181 1.377 . S
C1181 H1165 0.930 . S
C1181 C1180 1.377 . S
C1181 C1182 1.379 . S
C1182 H1166 0.931 . S
C1182 C1176 1.383 . S
C1182 C1181 1.379 . S
H1183 C1177 0.959 . S
H1184 C1177 0.961 . S
H1185 C1177 0.960 . S
H1186 C1178 0.930 . S
H1187 C1179 0.929 1_554 S
H1188 C1196 0.929 1_554 S
H1189 C1198 0.930 . S
H1190 C1200 0.930 . S
H1191 C1203 0.929 . S
H1192 C1206 0.930 . S
H1193 C1208 0.960 . S
H1194 C1208 0.960 . S
H1195 C1208 0.960 . S
C1196 H1188 0.929 1_556 S
C1196 C1197 1.377 . S
C1196 C1198 1.384 1_556 S
C1197 C1196 1.377 . S
C1197 C1203 1.390 . S
C1198 H1189 0.930 . S
C1198 C1196 1.384 1_554 S
C1198 C1199 1.372 1_554 S
C1199 C1198 1.372 1_556 S
C1199 C1200 1.400 . S
C1199 C1204 1.490 . S
C1200 H1190 0.930 . S
C1200 C1199 1.400 . S
C1200 C1203 1.386 . S
H1201 C1217 0.930 1_556 S
H1202 C1218 0.931 1_556 S
C1203 H1191 0.929 . S
C1203 C1197 1.390 . S
C1203 C1200 1.386 . S
C1204 C1199 1.490 . S
C1204 C1206 1.395 1_556 S
C1204 C1207 1.403 . S
H1205 C1211 0.930 . S
C1206 H1192 0.930 . S
C1206 C1204 1.395 1_554 S
C1206 C1209 1.403 . S
C1207 C1204 1.403 . S
C1207 C1208 1.524 . S
C1207 C1211 1.400 . S
C1208 H1193 0.960 . S
C1208 H1194 0.960 . S
C1208 H1195 0.960 . S
C1208 C1207 1.524 . S
C1209 C1206 1.403 . S
C1209 C1210 1.392 . S
C1209 C1213 1.495 . S
C1210 C1209 1.392 . S
C1210 C1211 1.385 1_554 S
C1210 C1212 1.478 . S
C1211 H1205 0.930 . S
C1211 C1207 1.400 . S
C1211 C1210 1.385 1_556 S
C1212 C1210 1.478 . S
C1212 C1214 1.381 . S
C1212 C1218 1.383 . S
C1213 C1209 1.495 . S
C1213 H1219 0.959 . S
C1213 H1220 0.961 . S
C1213 H1221 0.960 . S
C1214 C1212 1.381 . S
C1214 C1215 1.394 . S
C1214 H1222 0.930 . S
C1215 C1214 1.394 . S
C1215 C1216 1.383 . S
C1215 H1223 0.929 . S
C1216 C1215 1.383 . S
C1216 C1217 1.377 . S
C1217 H1201 0.930 1_554 S
C1217 C1216 1.377 . S
C1217 C1218 1.379 . S
C1218 H1202 0.931 1_554 S
C1218 C1212 1.383 . S
C1218 C1217 1.379 . S
H1219 C1213 0.959 . S
H1220 C1213 0.961 . S
H1221 C1213 0.960 . S
H1222 C1214 0.930 . S
H1223 C1215 0.929 . S
H1224 C1232 0.929 . S
H1225 C1234 0.930 . S
H1226 C1236 0.930 . S
H1227 C1239 0.929 1_556 S
H1228 C1242 0.930 . S
H1229 C1244 0.960 . S
H1230 C1244 0.960 . S
H1231 C1244 0.960 . S
C1232 H1224 0.929 . S
C1232 C1233 1.377 . S
C1232 C1234 1.384 . S
C1233 C1232 1.377 . S
C1233 C1239 1.390 . S
C1234 H1225 0.930 . S
C1234 C1232 1.384 . S
C1234 C1235 1.372 . S
C1235 C1234 1.372 . S
C1235 C1236 1.400 1_554 S
C1235 C1240 1.490 . S
C1236 H1226 0.930 . S
C1236 C1235 1.400 1_556 S
C1236 C1239 1.386 1_556 S
H1237 C1253 0.930 . S
H1238 C1254 0.931 . S
C1239 H1227 0.929 1_554 S
C1239 C1233 1.390 . S
C1239 C1236 1.386 1_554 S
C1240 C1235 1.490 . S
C1240 C1242 1.395 . S
C1240 C1243 1.403 1_554 S
H1241 C1247 0.930 . S
C1242 H1228 0.930 . S
C1242 C1240 1.395 . S
C1242 C1245 1.403 1_565 S
C1243 C1240 1.403 1_556 S
C1243 C1244 1.524 . S
C1243 C1247 1.400 1_565 S
C1244 H1229 0.960 . S
C1244 H1230 0.960 . S
C1244 H1231 0.960 . S
C1244 C1243 1.524 . S
C1245 C1242 1.403 1_545 S
C1245 C1246 1.392 1_554 S
C1245 C1249 1.495 . S
C1246 C1245 1.392 1_556 S
C1246 C1247 1.385 . S
C1246 C1248 1.478 . S
C1247 H1241 0.930 . S
C1247 C1243 1.400 1_545 S
C1247 C1246 1.385 . S
C1248 C1246 1.478 . S
C1248 C1250 1.381 1_556 S
C1248 C1254 1.383 . S
C1249 C1245 1.495 . S
C1249 H1255 0.959 . S
C1249 H1256 0.961 . S
C1249 H1257 0.960 . S
C1250 C1248 1.381 1_554 S
C1250 C1251 1.394 1_554 S
C1250 H1258 0.930 . S
C1251 C1250 1.394 1_556 S
C1251 C1252 1.383 . S
C1251 H1259 0.929 1_556 S
C1252 C1251 1.383 . S
C1252 C1253 1.377 . S
C1253 H1237 0.930 . S
C1253 C1252 1.377 . S
C1253 C1254 1.379 . S
C1254 H1238 0.931 . S
C1254 C1248 1.383 . S
C1254 C1253 1.379 . S
H1255 C1249 0.959 . S
H1256 C1249 0.961 . S
H1257 C1249 0.960 . S
H1258 C1250 0.930 . S
H1259 C1251 0.929 1_554 S
H1260 C1268 0.929 . S
H1261 C1270 0.930 . S
H1262 C1272 0.930 1_554 S
H1263 C1275 0.929 . S
H1264 C1278 0.930 . S
H1265 C1280 0.960 . S
H1266 C1280 0.960 . S
H1267 C1280 0.960 . S
C1268 H1260 0.929 . S
C1268 C1269 1.377 . S
C1268 C1270 1.384 . S
C1269 C1268 1.377 . S
C1269 C1275 1.390 . S
C1270 H1261 0.930 . S
C1270 C1268 1.384 . S
C1270 C1271 1.372 . S
C1271 C1270 1.372 . S
C1271 C1272 1.400 . S
C1271 C1276 1.490 . S
C1272 H1262 0.930 1_556 S
C1272 C1271 1.400 . S
C1272 C1275 1.386 . S
H1273 C1289 0.930 . S
H1274 C1290 0.931 . S
C1275 H1263 0.929 . S
C1275 C1269 1.390 . S
C1275 C1272 1.386 . S
C1276 C1271 1.490 . S
C1276 C1278 1.395 1_556 S
C1276 C1279 1.403 . S
H1277 C1283 0.930 . S
C1278 H1264 0.930 . S
C1278 C1276 1.395 1_554 S
C1278 C1281 1.403 1_655 S
C1279 C1276 1.403 . S
C1279 C1280 1.524 . S
C1279 C1283 1.400 1_655 S
C1280 H1265 0.960 . S
C1280 H1266 0.960 . S
C1280 H1267 0.960 . S
C1280 C1279 1.524 . S
C1281 C1278 1.403 1_455 S
C1281 C1282 1.392 . S
C1281 C1285 1.495 . S
C1282 C1281 1.392 . S
C1282 C1283 1.385 1_554 S
C1282 C1284 1.478 . S
C1283 H1277 0.930 . S
C1283 C1279 1.400 1_455 S
C1283 C1282 1.385 1_556 S
C1284 C1282 1.478 . S
C1284 C1286 1.381 . S
C1284 C1290 1.383 . S
C1285 C1281 1.495 . S
C1285 H1291 0.959 . S
C1285 H1292 0.961 . S
C1285 H1293 0.960 . S
C1286 C1284 1.381 . S
C1286 C1287 1.394 . S
C1286 H1294 0.930 1_554 S
C1287 C1286 1.394 . S
C1287 C1288 1.383 . S
C1287 H1295 0.929 . S
C1288 C1287 1.383 . S
C1288 C1289 1.377 . S
C1289 H1273 0.930 . S
C1289 C1288 1.377 . S
C1289 C1290 1.379 . S
C1290 H1274 0.931 . S
C1290 C1284 1.383 . S
C1290 C1289 1.379 . S
H1291 C1285 0.959 . S
H1292 C1285 0.961 . S
H1293 C1285 0.960 . S
H1294 C1286 0.930 1_556 S
H1295 C1287 0.929 . S
H1296 C1304 0.929 . S
H1297 C1306 0.930 . S
H1298 C1308 0.930 1_554 S
H1299 C1311 0.929 . S
H1300 C1314 0.930 . S
H1301 C1316 0.960 . S
H1302 C1316 0.960 . S
H1303 C1316 0.960 . S
C1304 H1296 0.929 . S
C1304 C1305 1.377 . S
C1304 C1306 1.384 . S
C1305 C1304 1.377 . S
C1305 C1311 1.390 . S
C1306 H1297 0.930 . S
C1306 C1304 1.384 . S
C1306 C1307 1.372 . S
C1307 C1306 1.372 . S
C1307 C1308 1.400 . S
C1307 C1312 1.490 . S
C1308 H1298 0.930 1_556 S
C1308 C1307 1.400 . S
C1308 C1311 1.386 . S
H1309 C1325 0.930 . S
H1310 C1326 0.931 . S
C1311 H1299 0.929 . S
C1311 C1305 1.390 . S
C1311 C1308 1.386 . S
C1312 C1307 1.490 . S
C1312 C1314 1.395 1_556 S
C1312 C1315 1.403 . S
H1313 C1319 0.930 . S
C1314 H1300 0.930 . S
C1314 C1312 1.395 1_554 S
C1314 C1317 1.403 . S
C1315 C1312 1.403 . S
C1315 C1316 1.524 . S
C1315 C1319 1.400 . S
C1316 H1301 0.960 . S
C1316 H1302 0.960 . S
C1316 H1303 0.960 . S
C1316 C1315 1.524 . S
C1317 C1314 1.403 . S
C1317 C1318 1.392 . S
C1317 C1321 1.495 . S
C1318 C1317 1.392 . S
C1318 C1319 1.385 1_554 S
C1318 C1320 1.478 . S
C1319 H1313 0.930 . S
C1319 C1315 1.400 . S
C1319 C1318 1.385 1_556 S
C1320 C1318 1.478 . S
C1320 C1322 1.381 . S
C1320 C1326 1.383 . S
C1321 C1317 1.495 . S
C1321 H1327 0.959 . S
C1321 H1328 0.961 . S
C1321 H1329 0.960 . S
C1322 C1320 1.381 . S
C1322 C1323 1.394 . S
C1322 H1330 0.930 1_554 S
C1323 C1322 1.394 . S
C1323 C1324 1.383 . S
C1323 H1331 0.924 1_554 S
C1324 C1323 1.383 . S
C1324 C1325 1.377 . S
C1325 H1309 0.930 . S
C1325 C1324 1.377 . S
C1325 C1326 1.379 . S
C1326 H1310 0.931 . S
C1326 C1320 1.383 . S
C1326 C1325 1.379 . S
H1327 C1321 0.959 . S
H1328 C1321 0.961 . S
H1329 C1321 0.960 . S
H1330 C1322 0.930 1_556 S
H1331 C1323 0.924 1_556 S
H1332 C1340 0.929 . S
H1333 C1342 0.930 . S
H1334 C1344 0.930 . S
H1335 C1347 0.929 1_554 S
H1336 C1350 0.930 . S
H1337 C1352 0.960 . S
H1338 C1352 0.960 1_556 S
H1339 C1352 0.960 . S
C1340 H1332 0.929 . S
C1340 C1341 1.377 . S
C1340 C1342 1.384 . S
C1341 C1340 1.377 . S
C1341 C1347 1.390 . S
C1342 H1333 0.930 . S
C1342 C1340 1.384 . S
C1342 C1343 1.372 . S
C1343 C1342 1.372 . S
C1343 C1344 1.400 1_556 S
C1343 C1348 1.490 . S
C1344 H1334 0.930 . S
C1344 C1343 1.400 1_554 S
C1344 C1347 1.386 1_554 S
H1345 C1361 0.930 . S
H1346 C1362 0.931 . S
C1347 H1335 0.929 1_556 S
C1347 C1341 1.390 . S
C1347 C1344 1.386 1_556 S
C1348 C1343 1.490 . S
C1348 C1350 1.395 . S
C1348 C1351 1.403 1_556 S
H1349 C1355 0.930 . S
C1350 H1336 0.930 . S
C1350 C1348 1.395 . S
C1350 C1353 1.403 1_545 S
C1351 C1348 1.403 1_554 S
C1351 C1352 1.524 . S
C1351 C1355 1.400 1_545 S
C1352 H1337 0.960 . S
C1352 H1338 0.960 1_554 S
C1352 H1339 0.960 . S
C1352 C1351 1.524 . S
C1353 C1350 1.403 1_565 S
C1353 C1354 1.392 1_556 S
C1353 C1357 1.495 . S
C1354 C1353 1.392 1_554 S
C1354 C1355 1.385 . S
C1354 C1356 1.478 . S
C1355 H1349 0.930 . S
C1355 C1351 1.400 1_565 S
C1355 C1354 1.385 . S
C1356 C1354 1.478 . S
C1356 C1358 1.381 1_554 S
C1356 C1362 1.383 . S
C1357 C1353 1.495 . S
C1357 H1363 0.959 . S
C1357 H1364 0.961 1_556 S
C1357 H1365 0.960 . S
C1358 C1356 1.381 1_556 S
C1358 C1359 1.392 1_556 S
C1358 H1366 0.930 . S
C1359 C1358 1.392 1_554 S
C1359 C1360 1.393 . S
C1359 H1367 0.922 1_554 S
C1360 C1359 1.393 . S
C1360 C1361 1.377 . S
C1361 H1345 0.930 . S
C1361 C1360 1.377 . S
C1361 C1362 1.379 . S
C1362 H1346 0.931 . S
C1362 C1356 1.383 . S
C1362 C1361 1.379 . S
H1363 C1357 0.959 . S
H1364 C1357 0.961 1_554 S
H1365 C1357 0.960 . S
H1366 C1358 0.930 . S
H1367 C1359 0.922 1_556 S
H1368 C1376 0.929 . S
H1369 C1378 0.930 . S
H1370 C1380 0.930 . S
H1371 C1383 0.929 . S
H1372 C1386 0.930 . S
H1373 C1388 0.960 . S
H1374 C1388 0.960 . S
H1375 C1388 0.960 . S
C1376 H1368 0.929 . S
C1376 C1377 1.377 . S
C1376 C1378 1.384 . S
C1377 C1376 1.377 . S
C1377 C1383 1.390 . S
C1378 H1369 0.930 . S
C1378 C1376 1.384 . S
C1378 C1379 1.372 . S
C1379 C1378 1.372 . S
C1379 C1380 1.400 . S
C1379 C1384 1.490 . S
C1380 H1370 0.930 . S
C1380 C1379 1.400 . S
C1380 C1383 1.386 . S
H1381 C1397 0.930 . S
H1382 C1398 0.931 . S
C1383 H1371 0.929 . S
C1383 C1377 1.390 . S
C1383 C1380 1.386 . S
C1384 C1379 1.490 . S
C1384 C1386 1.395 . S
C1384 C1387 1.403 . S
H1385 C1391 0.930 . S
C1386 H1372 0.930 . S
C1386 C1384 1.395 . S
C1386 C1389 1.403 . S
C1387 C1384 1.403 . S
C1387 C1388 1.524 . S
C1387 C1391 1.400 . S
C1388 H1373 0.960 . S
C1388 H1374 0.960 . S
C1388 H1375 0.960 . S
C1388 C1387 1.524 . S
C1389 C1386 1.403 . S
C1389 C1390 1.392 . S
C1389 C1393 1.495 . S
C1390 C1389 1.392 . S
C1390 C1391 1.385 . S
C1390 C1392 1.478 . S
C1391 H1385 0.930 . S
C1391 C1387 1.400 . S
C1391 C1390 1.385 . S
C1392 C1390 1.478 . S
C1392 C1394 1.381 . S
C1392 C1398 1.383 . S
C1393 C1389 1.495 . S
C1393 H1399 0.959 . S
C1393 H1400 0.961 . S
C1393 H1401 0.960 . S
C1394 C1392 1.381 . S
C1394 C1395 1.394 . S
C1394 H1402 0.930 . S
C1395 C1394 1.394 . S
C1395 C1396 1.383 . S
C1395 H1403 0.929 . S
C1396 C1395 1.383 . S
C1396 C1397 1.377 . S
C1397 H1381 0.930 . S
C1397 C1396 1.377 . S
C1397 C1398 1.379 . S
C1398 H1382 0.931 . S
C1398 C1392 1.383 . S
C1398 C1397 1.379 . S
H1399 C1393 0.959 . S
H1400 C1393 0.961 . S
H1401 C1393 0.960 . S
H1402 C1394 0.930 . S
H1403 C1395 0.929 . S
H1404 C1412 0.929 . S
H1405 C1414 0.930 . S
H1406 C1416 0.930 . S
H1407 C1419 0.929 . S
H1408 C1422 0.930 . S
H1409 C1424 0.960 . S
H1410 C1424 0.960 . S
H1411 C1424 0.960 . S
C1412 H1404 0.929 . S
C1412 C1413 1.377 . S
C1412 C1414 1.384 . S
C1413 C1412 1.377 . S
C1413 C1419 1.390 . S
C1414 H1405 0.930 . S
C1414 C1412 1.384 . S
C1414 C1415 1.372 . S
C1415 C1414 1.372 . S
C1415 C1416 1.400 . S
C1415 C1420 1.490 . S
C1416 H1406 0.930 . S
C1416 C1415 1.400 . S
C1416 C1419 1.386 . S
H1417 C1433 0.930 . S
H1418 C1434 0.931 . S
C1419 H1407 0.929 . S
C1419 C1413 1.390 . S
C1419 C1416 1.386 . S
C1420 C1415 1.490 . S
C1420 C1422 1.395 . S
C1420 C1423 1.403 . S
H1421 C1427 0.930 . S
C1422 H1408 0.930 . S
C1422 C1420 1.395 . S
C1422 C1425 1.403 . S
C1423 C1420 1.403 . S
C1423 C1424 1.524 . S
C1423 C1427 1.400 . S
C1424 H1409 0.960 . S
C1424 H1410 0.960 . S
C1424 H1411 0.960 . S
C1424 C1423 1.524 . S
C1425 C1422 1.403 . S
C1425 C1426 1.392 . S
C1425 C1429 1.495 . S
C1426 C1425 1.392 . S
C1426 C1427 1.385 . S
C1426 C1428 1.478 . S
C1427 H1421 0.930 . S
C1427 C1423 1.400 . S
C1427 C1426 1.385 . S
C1428 C1426 1.478 . S
C1428 C1430 1.381 . S
C1428 C1434 1.383 . S
C1429 C1425 1.495 . S
C1429 H1435 0.959 . S
C1429 H1436 0.961 . S
C1429 H1437 0.960 . S
C1430 C1428 1.381 . S
C1430 C1431 1.394 . S
C1430 H1438 0.930 . S
C1431 C1430 1.394 . S
C1431 C1432 1.383 . S
C1431 H1439 0.929 . S
C1432 C1431 1.383 . S
C1432 C1433 1.377 . S
C1433 H1417 0.930 . S
C1433 C1432 1.377 . S
C1433 C1434 1.379 . S
C1434 H1418 0.931 . S
C1434 C1428 1.383 . S
C1434 C1433 1.379 . S
H1435 C1429 0.959 . S
H1436 C1429 0.961 . S
H1437 C1429 0.960 . S
H1438 C1430 0.930 . S
H1439 C1431 0.929 . S
H1440 C1448 0.929 . S
H1441 C1450 0.930 . S
H1442 C1452 0.930 . S
H1443 C1455 0.929 . S
H1444 C1458 0.930 . S
H1445 C1460 0.960 . S
H1446 C1460 0.960 . S
H1447 C1460 0.960 . S
C1448 H1440 0.929 . S
C1448 C1449 1.377 . S
C1448 C1450 1.384 . S
C1449 C1448 1.377 . S
C1449 C1455 1.390 . S
C1450 H1441 0.930 . S
C1450 C1448 1.384 . S
C1450 C1451 1.372 . S
C1451 C1450 1.372 . S
C1451 C1452 1.400 . S
C1451 C1456 1.490 . S
C1452 H1442 0.930 . S
C1452 C1451 1.400 . S
C1452 C1455 1.386 . S
H1453 C1469 0.930 . S
H1454 C1470 0.931 . S
C1455 H1443 0.929 . S
C1455 C1449 1.390 . S
C1455 C1452 1.386 . S
C1456 C1451 1.490 . S
C1456 C1458 1.395 . S
C1456 C1459 1.403 . S
H1457 C1463 0.930 . S
C1458 H1444 0.930 . S
C1458 C1456 1.395 . S
C1458 C1461 1.403 . S
C1459 C1456 1.403 . S
C1459 C1460 1.524 . S
C1459 C1463 1.400 . S
C1460 H1445 0.960 . S
C1460 H1446 0.960 . S
C1460 H1447 0.960 . S
C1460 C1459 1.524 . S
C1461 C1458 1.403 . S
C1461 C1462 1.392 . S
C1461 C1465 1.495 . S
C1462 C1461 1.392 . S
C1462 C1463 1.385 . S
C1462 C1464 1.478 . S
C1463 H1457 0.930 . S
C1463 C1459 1.400 . S
C1463 C1462 1.385 . S
C1464 C1462 1.478 . S
C1464 C1466 1.381 . S
C1464 C1470 1.383 . S
C1465 C1461 1.495 . S
C1465 H1471 0.959 . S
C1465 H1472 0.961 . S
C1465 H1473 0.960 . S
C1466 C1464 1.381 . S
C1466 C1467 1.394 . S
C1466 H1474 0.930 . S
C1467 C1466 1.394 . S
C1467 C1468 1.383 . S
C1467 H1475 0.929 . S
C1468 C1467 1.383 . S
C1468 C1469 1.377 . S
C1469 H1453 0.930 . S
C1469 C1468 1.377 . S
C1469 C1470 1.379 . S
C1470 H1454 0.931 . S
C1470 C1464 1.383 . S
C1470 C1469 1.379 . S
H1471 C1465 0.959 . S
H1472 C1465 0.961 . S
H1473 C1465 0.960 . S
H1474 C1466 0.930 . S
H1475 C1467 0.929 . S
H1476 C1484 0.929 . S
H1477 C1486 0.930 . S
H1478 C1488 0.930 . S
H1479 C1491 0.929 . S
H1480 C1494 0.930 . S
H1481 C1496 0.960 . S
H1482 C1496 0.960 . S
H1483 C1496 0.960 . S
C1484 H1476 0.929 . S
C1484 C1485 1.377 . S
C1484 C1486 1.384 . S
C1485 C1484 1.377 . S
C1485 C1491 1.390 . S
C1486 H1477 0.930 . S
C1486 C1484 1.384 . S
C1486 C1487 1.372 . S
C1487 C1486 1.372 . S
C1487 C1488 1.400 . S
C1487 C1492 1.490 . S
C1488 H1478 0.930 . S
C1488 C1487 1.400 . S
C1488 C1491 1.386 . S
H1489 C1505 0.930 . S
H1490 C1506 0.931 . S
C1491 H1479 0.929 . S
C1491 C1485 1.390 . S
C1491 C1488 1.386 . S
C1492 C1487 1.490 . S
C1492 C1494 1.395 . S
C1492 C1495 1.403 . S
H1493 C1499 0.930 . S
C1494 H1480 0.930 . S
C1494 C1492 1.395 . S
C1494 C1497 1.403 . S
C1495 C1492 1.403 . S
C1495 C1496 1.524 . S
C1495 C1499 1.400 . S
C1496 H1481 0.960 . S
C1496 H1482 0.960 . S
C1496 H1483 0.960 . S
C1496 C1495 1.524 . S
C1497 C1494 1.403 . S
C1497 C1498 1.392 . S
C1497 C1501 1.495 . S
C1498 C1497 1.392 . S
C1498 C1499 1.385 . S
C1498 C1500 1.478 . S
C1499 H1493 0.930 . S
C1499 C1495 1.400 . S
C1499 C1498 1.385 . S
C1500 C1498 1.478 . S
C1500 C1502 1.381 . S
C1500 C1506 1.383 . S
C1501 C1497 1.495 . S
C1501 H1507 0.959 . S
C1501 H1508 0.961 . S
C1501 H1509 0.960 . S
C1502 C1500 1.381 . S
C1502 C1503 1.394 . S
C1502 H1510 0.930 . S
C1503 C1502 1.394 . S
C1503 C1504 1.383 . S
C1503 H1511 0.929 . S
C1504 C1503 1.383 . S
C1504 C1505 1.377 . S
C1505 H1489 0.930 . S
C1505 C1504 1.377 . S
C1505 C1506 1.379 . S
C1506 H1490 0.931 . S
C1506 C1500 1.383 . S
C1506 C1505 1.379 . S
H1507 C1501 0.959 . S
H1508 C1501 0.961 . S
H1509 C1501 0.960 . S
H1510 C1502 0.930 . S
H1511 C1503 0.929 . S
H1512 C1520 0.929 . S
H1513 C1522 0.930 . S
H1514 C1524 0.930 . S
H1515 C1527 0.929 . S
H1516 C1530 0.930 . S
H1517 C1532 0.960 . S
H1518 C1532 0.960 . S
H1519 C1532 0.960 . S
C1520 H1512 0.929 . S
C1520 C1521 1.377 . S
C1520 C1522 1.384 . S
C1521 C1520 1.377 . S
C1521 C1527 1.390 . S
C1522 H1513 0.930 . S
C1522 C1520 1.384 . S
C1522 C1523 1.372 . S
C1523 C1522 1.372 . S
C1523 C1524 1.400 . S
C1523 C1528 1.490 . S
C1524 H1514 0.930 . S
C1524 C1523 1.400 . S
C1524 C1527 1.386 . S
H1525 C1541 0.930 . S
H1526 C1542 0.931 . S
C1527 H1515 0.929 . S
C1527 C1521 1.390 . S
C1527 C1524 1.386 . S
C1528 C1523 1.490 . S
C1528 C1530 1.395 . S
C1528 C1531 1.403 . S
H1529 C1535 0.930 . S
C1530 H1516 0.930 . S
C1530 C1528 1.395 . S
C1530 C1533 1.403 . S
C1531 C1528 1.403 . S
C1531 C1532 1.524 . S
C1531 C1535 1.400 . S
C1532 H1517 0.960 . S
C1532 H1518 0.960 . S
C1532 H1519 0.960 . S
C1532 C1531 1.524 . S
C1533 C1530 1.403 . S
C1533 C1534 1.392 . S
C1533 C1537 1.495 . S
C1534 C1533 1.392 . S
C1534 C1535 1.385 . S
C1534 C1536 1.478 . S
C1535 H1529 0.930 . S
C1535 C1531 1.400 . S
C1535 C1534 1.385 . S
C1536 C1534 1.478 . S
C1536 C1538 1.381 . S
C1536 C1542 1.383 . S
C1537 C1533 1.495 . S
C1537 H1543 0.959 . S
C1537 H1544 0.961 . S
C1537 H1545 0.960 . S
C1538 C1536 1.381 . S
C1538 C1539 1.394 . S
C1538 H1546 0.930 . S
C1539 C1538 1.394 . S
C1539 C1540 1.383 . S
C1539 H1547 0.929 . S
C1540 C1539 1.383 . S
C1540 C1541 1.377 . S
C1541 H1525 0.930 . S
C1541 C1540 1.377 . S
C1541 C1542 1.379 . S
C1542 H1526 0.931 . S
C1542 C1536 1.383 . S
C1542 C1541 1.379 . S
H1543 C1537 0.959 . S
H1544 C1537 0.961 . S
H1545 C1537 0.960 . S
H1546 C1538 0.930 . S
H1547 C1539 0.929 . S
H1548 C1556 0.929 . S
H1549 C1558 0.930 . S
H1550 C1560 0.930 . S
H1551 C1563 0.929 . S
H1552 C1566 0.930 . S
H1553 C1568 0.960 . S
H1554 C1568 0.960 . S
H1555 C1568 0.960 . S
C1556 H1548 0.929 . S
C1556 C1557 1.377 . S
C1556 C1558 1.384 . S
C1557 C1556 1.377 . S
C1557 C1563 1.390 . S
C1558 H1549 0.930 . S
C1558 C1556 1.384 . S
C1558 C1559 1.372 . S
C1559 C1558 1.372 . S
C1559 C1560 1.400 . S
C1559 C1564 1.490 . S
C1560 H1550 0.930 . S
C1560 C1559 1.400 . S
C1560 C1563 1.386 . S
H1561 C1577 0.930 . S
H1562 C1578 0.931 . S
C1563 H1551 0.929 . S
C1563 C1557 1.390 . S
C1563 C1560 1.386 . S
C1564 C1559 1.490 . S
C1564 C1566 1.395 . S
C1564 C1567 1.403 . S
H1565 C1571 0.930 . S
C1566 H1552 0.930 . S
C1566 C1564 1.395 . S
C1566 C1569 1.403 . S
C1567 C1564 1.403 . S
C1567 C1568 1.524 . S
C1567 C1571 1.400 . S
C1568 H1553 0.960 . S
C1568 H1554 0.960 . S
C1568 H1555 0.960 . S
C1568 C1567 1.524 . S
C1569 C1566 1.403 . S
C1569 C1570 1.392 . S
C1569 C1573 1.495 . S
C1570 C1569 1.392 . S
C1570 C1571 1.385 . S
C1570 C1572 1.478 . S
C1571 H1565 0.930 . S
C1571 C1567 1.400 . S
C1571 C1570 1.385 . S
C1572 C1570 1.478 . S
C1572 C1574 1.381 . S
C1572 C1578 1.383 . S
C1573 C1569 1.495 . S
C1573 H1579 0.959 . S
C1573 H1580 0.961 . S
C1573 H1581 0.960 . S
C1574 C1572 1.381 . S
C1574 C1575 1.394 . S
C1574 H1582 0.930 . S
C1575 C1574 1.394 . S
C1575 C1576 1.383 . S
C1575 H1583 0.929 . S
C1576 C1575 1.383 . S
C1576 C1577 1.377 . S
C1577 H1561 0.930 . S
C1577 C1576 1.377 . S
C1577 C1578 1.379 . S
C1578 H1562 0.931 . S
C1578 C1572 1.383 . S
C1578 C1577 1.379 . S
H1579 C1573 0.959 . S
H1580 C1573 0.961 . S
H1581 C1573 0.960 . S
H1582 C1574 0.930 . S
H1583 C1575 0.929 . S
H1584 C1592 0.929 . S
H1585 C1594 0.930 . S
H1586 C1596 0.930 . S
H1587 C1599 0.929 . S
H1588 C1602 0.930 . S
H1589 C1604 0.960 . S
H1590 C1604 0.960 . S
H1591 C1604 0.960 . S
C1592 H1584 0.929 . S
C1592 C1593 1.377 . S
C1592 C1594 1.384 . S
C1593 C1592 1.377 . S
C1593 C1599 1.390 . S
C1594 H1585 0.930 . S
C1594 C1592 1.384 . S
C1594 C1595 1.372 . S
C1595 C1594 1.372 . S
C1595 C1596 1.400 . S
C1595 C1600 1.490 . S
C1596 H1586 0.930 . S
C1596 C1595 1.400 . S
C1596 C1599 1.386 . S
H1597 C1613 0.930 . S
H1598 C1614 0.931 . S
C1599 H1587 0.929 . S
C1599 C1593 1.390 . S
C1599 C1596 1.386 . S
C1600 C1595 1.490 . S
C1600 C1602 1.395 . S
C1600 C1603 1.403 . S
H1601 C1607 0.930 . S
C1602 H1588 0.930 . S
C1602 C1600 1.395 . S
C1602 C1605 1.403 . S
C1603 C1600 1.403 . S
C1603 C1604 1.524 . S
C1603 C1607 1.400 . S
C1604 H1589 0.960 . S
C1604 H1590 0.960 . S
C1604 H1591 0.960 . S
C1604 C1603 1.524 . S
C1605 C1602 1.403 . S
C1605 C1606 1.392 . S
C1605 C1609 1.495 . S
C1606 C1605 1.392 . S
C1606 C1607 1.385 . S
C1606 C1608 1.478 . S
C1607 H1601 0.930 . S
C1607 C1603 1.400 . S
C1607 C1606 1.385 . S
C1608 C1606 1.478 . S
C1608 C1610 1.381 . S
C1608 C1614 1.383 . S
C1609 C1605 1.495 . S
C1609 H1615 0.959 . S
C1609 H1616 0.961 . S
C1609 H1617 0.960 . S
C1610 C1608 1.381 . S
C1610 C1611 1.394 . S
C1610 H1618 0.930 . S
C1611 C1610 1.394 . S
C1611 C1612 1.383 . S
C1611 H1619 0.929 . S
C1612 C1611 1.383 . S
C1612 C1613 1.377 . S
C1613 H1597 0.930 . S
C1613 C1612 1.377 . S
C1613 C1614 1.379 . S
C1614 H1598 0.931 . S
C1614 C1608 1.383 . S
C1614 C1613 1.379 . S
H1615 C1609 0.959 . S
H1616 C1609 0.961 . S
H1617 C1609 0.960 . S
H1618 C1610 0.930 . S
H1619 C1611 0.929 . S
H1620 C1628 0.929 . S
H1621 C1630 0.930 . S
H1622 C1632 0.930 . S
H1623 C1635 0.929 . S
H1624 C1638 0.930 . S
H1625 C1640 0.960 . S
H1626 C1640 0.960 . S
H1627 C1640 0.960 . S
C1628 H1620 0.929 . S
C1628 C1629 1.377 . S
C1628 C1630 1.384 . S
C1629 C1628 1.377 . S
C1629 C1635 1.390 . S
C1630 H1621 0.930 . S
C1630 C1628 1.384 . S
C1630 C1631 1.372 . S
C1631 C1630 1.372 . S
C1631 C1632 1.400 . S
C1631 C1636 1.490 . S
C1632 H1622 0.930 . S
C1632 C1631 1.400 . S
C1632 C1635 1.386 . S
H1633 C1649 0.930 . S
H1634 C1650 0.931 . S
C1635 H1623 0.929 . S
C1635 C1629 1.390 . S
C1635 C1632 1.386 . S
C1636 C1631 1.490 . S
C1636 C1638 1.395 . S
C1636 C1639 1.403 . S
H1637 C1643 0.930 . S
C1638 H1624 0.930 . S
C1638 C1636 1.395 . S
C1638 C1641 1.403 . S
C1639 C1636 1.403 . S
C1639 C1640 1.524 . S
C1639 C1643 1.400 . S
C1640 H1625 0.960 . S
C1640 H1626 0.960 . S
C1640 H1627 0.960 . S
C1640 C1639 1.524 . S
C1641 C1638 1.403 . S
C1641 C1642 1.392 . S
C1641 C1645 1.495 . S
C1642 C1641 1.392 . S
C1642 C1643 1.385 . S
C1642 C1644 1.478 . S
C1643 H1637 0.930 . S
C1643 C1639 1.400 . S
C1643 C1642 1.385 . S
C1644 C1642 1.478 . S
C1644 C1646 1.381 . S
C1644 C1650 1.383 . S
C1645 C1641 1.495 . S
C1645 H1651 0.959 . S
C1645 H1652 0.961 . S
C1645 H1653 0.960 . S
C1646 C1644 1.381 . S
C1646 C1647 1.394 . S
C1646 H1654 0.930 . S
C1647 C1646 1.394 . S
C1647 C1648 1.383 . S
C1647 H1655 0.929 . S
C1648 C1647 1.383 . S
C1648 C1649 1.377 . S
C1649 H1633 0.930 . S
C1649 C1648 1.377 . S
C1649 C1650 1.379 . S
C1650 H1634 0.931 . S
C1650 C1644 1.383 . S
C1650 C1649 1.379 . S
H1651 C1645 0.959 . S
H1652 C1645 0.961 . S
H1653 C1645 0.960 . S
H1654 C1646 0.930 . S
H1655 C1647 0.929 . S
H1656 C1664 0.929 . S
H1657 C1666 0.930 . S
H1658 C1668 0.930 . S
H1659 C1671 0.929 . S
H1660 C1674 0.930 . S
H1661 C1676 0.960 . S
H1662 C1676 0.960 . S
H1663 C1676 0.960 . S
C1664 H1656 0.929 . S
C1664 C1665 1.377 . S
C1664 C1666 1.384 . S
C1665 C1664 1.377 . S
C1665 C1671 1.390 . S
C1666 H1657 0.930 . S
C1666 C1664 1.384 . S
C1666 C1667 1.372 . S
C1667 C1666 1.372 . S
C1667 C1668 1.400 . S
C1667 C1672 1.490 . S
C1668 H1658 0.930 . S
C1668 C1667 1.400 . S
C1668 C1671 1.386 . S
H1669 C1685 0.930 . S
H1670 C1686 0.931 . S
C1671 H1659 0.929 . S
C1671 C1665 1.390 . S
C1671 C1668 1.386 . S
C1672 C1667 1.490 . S
C1672 C1674 1.395 . S
C1672 C1675 1.403 . S
H1673 C1679 0.930 . S
C1674 H1660 0.930 . S
C1674 C1672 1.395 . S
C1674 C1677 1.403 . S
C1675 C1672 1.403 . S
C1675 C1676 1.524 . S
C1675 C1679 1.400 . S
C1676 H1661 0.960 . S
C1676 H1662 0.960 . S
C1676 H1663 0.960 . S
C1676 C1675 1.524 . S
C1677 C1674 1.403 . S
C1677 C1678 1.392 . S
C1677 C1681 1.495 . S
C1678 C1677 1.392 . S
C1678 C1679 1.385 . S
C1678 C1680 1.478 . S
C1679 H1673 0.930 . S
C1679 C1675 1.400 . S
C1679 C1678 1.385 . S
C1680 C1678 1.478 . S
C1680 C1682 1.381 . S
C1680 C1686 1.383 . S
C1681 C1677 1.495 . S
C1681 H1687 0.959 . S
C1681 H1688 0.961 . S
C1681 H1689 0.960 . S
C1682 C1680 1.381 . S
C1682 C1683 1.394 . S
C1682 H1690 0.930 . S
C1683 C1682 1.394 . S
C1683 C1684 1.383 . S
C1683 H1691 0.929 . S
C1684 C1683 1.383 . S
C1684 C1685 1.377 . S
C1685 H1669 0.930 . S
C1685 C1684 1.377 . S
C1685 C1686 1.379 . S
C1686 H1670 0.931 . S
C1686 C1680 1.383 . S
C1686 C1685 1.379 . S
H1687 C1681 0.959 . S
H1688 C1681 0.961 . S
H1689 C1681 0.960 . S
H1690 C1682 0.930 . S
H1691 C1683 0.929 . S
H1692 C1700 0.929 . S
H1693 C1702 0.930 . S
H1694 C1704 0.930 . S
H1695 C1707 0.929 . S
H1696 C1710 0.930 . S
H1697 C1712 0.960 . S
H1698 C1712 0.960 . S
H1699 C1712 0.960 . S
C1700 H1692 0.929 . S
C1700 C1701 1.377 . S
C1700 C1702 1.384 . S
C1701 C1700 1.377 . S
C1701 C1707 1.390 . S
C1702 H1693 0.930 . S
C1702 C1700 1.384 . S
C1702 C1703 1.372 . S
C1703 C1702 1.372 . S
C1703 C1704 1.400 . S
C1703 C1708 1.490 . S
C1704 H1694 0.930 . S
C1704 C1703 1.400 . S
C1704 C1707 1.386 . S
H1705 C1721 0.930 . S
H1706 C1722 0.931 . S
C1707 H1695 0.929 . S
C1707 C1701 1.390 . S
C1707 C1704 1.386 . S
C1708 C1703 1.490 . S
C1708 C1710 1.395 . S
C1708 C1711 1.403 . S
H1709 C1715 0.930 . S
C1710 H1696 0.930 . S
C1710 C1708 1.395 . S
C1710 C1713 1.403 . S
C1711 C1708 1.403 . S
C1711 C1712 1.524 . S
C1711 C1715 1.400 . S
C1712 H1697 0.960 . S
C1712 H1698 0.960 . S
C1712 H1699 0.960 . S
C1712 C1711 1.524 . S
C1713 C1710 1.403 . S
C1713 C1714 1.392 . S
C1713 C1717 1.495 . S
C1714 C1713 1.392 . S
C1714 C1715 1.385 . S
C1714 C1716 1.478 . S
C1715 H1709 0.930 . S
C1715 C1711 1.400 . S
C1715 C1714 1.385 . S
C1716 C1714 1.478 . S
C1716 C1718 1.381 . S
C1716 C1722 1.383 . S
C1717 C1713 1.495 . S
C1717 H1723 0.959 . S
C1717 H1724 0.961 . S
C1717 H1725 0.960 . S
C1718 C1716 1.381 . S
C1718 C1719 1.394 . S
C1718 H1726 0.930 . S
C1719 C1718 1.394 . S
C1719 C1720 1.383 . S
C1719 H1727 0.929 . S
C1720 C1719 1.383 . S
C1720 C1721 1.377 . S
C1721 H1705 0.930 . S
C1721 C1720 1.377 . S
C1721 C1722 1.379 . S
C1722 H1706 0.931 . S
C1722 C1716 1.383 . S
C1722 C1721 1.379 . S
H1723 C1717 0.959 . S
H1724 C1717 0.961 . S
H1725 C1717 0.960 . S
H1726 C1718 0.930 . S
H1727 C1719 0.929 . S
H1728 C1736 0.929 . S
H1729 C1738 0.930 . S
H1730 C1740 0.930 . S
H1731 C1743 0.929 . S
H1732 C1746 0.930 . S
H1733 C1748 0.960 . S
H1734 C1748 0.960 . S
H1735 C1748 0.960 . S
C1736 H1728 0.929 . S
C1736 C1737 1.377 . S
C1736 C1738 1.384 . S
C1737 C1736 1.377 . S
C1737 C1743 1.390 . S
C1738 H1729 0.930 . S
C1738 C1736 1.384 . S
C1738 C1739 1.372 . S
C1739 C1738 1.372 . S
C1739 C1740 1.400 . S
C1739 C1744 1.490 . S
C1740 H1730 0.930 . S
C1740 C1739 1.400 . S
C1740 C1743 1.386 . S
H1741 C1757 0.930 . S
H1742 C1758 0.931 . S
C1743 H1731 0.929 . S
C1743 C1737 1.390 . S
C1743 C1740 1.386 . S
C1744 C1739 1.490 . S
C1744 C1746 1.395 . S
C1744 C1747 1.403 . S
H1745 C1751 0.930 . S
C1746 H1732 0.930 . S
C1746 C1744 1.395 . S
C1746 C1749 1.403 . S
C1747 C1744 1.403 . S
C1747 C1748 1.524 . S
C1747 C1751 1.400 . S
C1748 H1733 0.960 . S
C1748 H1734 0.960 . S
C1748 H1735 0.960 . S
C1748 C1747 1.524 . S
C1749 C1746 1.403 . S
C1749 C1750 1.392 . S
C1749 C1753 1.495 . S
C1750 C1749 1.392 . S
C1750 C1751 1.385 . S
C1750 C1752 1.478 . S
C1751 H1745 0.930 . S
C1751 C1747 1.400 . S
C1751 C1750 1.385 . S
C1752 C1750 1.478 . S
C1752 C1754 1.381 . S
C1752 C1758 1.383 . S
C1753 C1749 1.495 . S
C1753 H1759 0.959 . S
C1753 H1760 0.961 . S
C1753 H1761 0.960 . S
C1754 C1752 1.381 . S
C1754 C1755 1.394 . S
C1754 H1762 0.930 . S
C1755 C1754 1.394 . S
C1755 C1756 1.383 . S
C1755 H1763 0.929 . S
C1756 C1755 1.383 . S
C1756 C1757 1.377 . S
C1757 H1741 0.930 . S
C1757 C1756 1.377 . S
C1757 C1758 1.379 . S
C1758 H1742 0.931 . S
C1758 C1752 1.383 . S
C1758 C1757 1.379 . S
H1759 C1753 0.959 . S
H1760 C1753 0.961 . S
H1761 C1753 0.960 . S
H1762 C1754 0.930 . S
H1763 C1755 0.929 . S
H1764 C1772 0.929 . S
H1765 C1774 0.930 . S
H1766 C1776 0.930 . S
H1767 C1779 0.929 . S
H1768 C1782 0.930 . S
H1769 C1784 0.960 . S
H1770 C1784 0.960 . S
H1771 C1784 0.960 . S
C1772 H1764 0.929 . S
C1772 C1773 1.377 . S
C1772 C1774 1.384 . S
C1773 C1772 1.377 . S
C1773 C1779 1.390 . S
C1774 H1765 0.930 . S
C1774 C1772 1.384 . S
C1774 C1775 1.372 . S
C1775 C1774 1.372 . S
C1775 C1776 1.400 . S
C1775 C1780 1.490 . S
C1776 H1766 0.930 . S
C1776 C1775 1.400 . S
C1776 C1779 1.386 . S
H1777 C1793 0.930 . S
H1778 C1794 0.931 . S
C1779 H1767 0.929 . S
C1779 C1773 1.390 . S
C1779 C1776 1.386 . S
C1780 C1775 1.490 . S
C1780 C1782 1.395 . S
C1780 C1783 1.403 . S
H1781 C1787 0.930 . S
C1782 H1768 0.930 . S
C1782 C1780 1.395 . S
C1782 C1785 1.403 . S
C1783 C1780 1.403 . S
C1783 C1784 1.524 . S
C1783 C1787 1.400 . S
C1784 H1769 0.960 . S
C1784 H1770 0.960 . S
C1784 H1771 0.960 . S
C1784 C1783 1.524 . S
C1785 C1782 1.403 . S
C1785 C1786 1.392 . S
C1785 C1789 1.495 . S
C1786 C1785 1.392 . S
C1786 C1787 1.385 . S
C1786 C1788 1.478 . S
C1787 H1781 0.930 . S
C1787 C1783 1.400 . S
C1787 C1786 1.385 . S
C1788 C1786 1.478 . S
C1788 C1790 1.381 . S
C1788 C1794 1.383 . S
C1789 C1785 1.495 . S
C1789 H1795 0.959 . S
C1789 H1796 0.961 . S
C1789 H1797 0.960 . S
C1790 C1788 1.381 . S
C1790 C1791 1.394 . S
C1790 H1798 0.930 . S
C1791 C1790 1.394 . S
C1791 C1792 1.383 . S
C1791 H1799 0.929 . S
C1792 C1791 1.383 . S
C1792 C1793 1.377 . S
C1793 H1777 0.930 . S
C1793 C1792 1.377 . S
C1793 C1794 1.379 . S
C1794 H1778 0.931 . S
C1794 C1788 1.383 . S
C1794 C1793 1.379 . S
H1795 C1789 0.959 . S
H1796 C1789 0.961 . S
H1797 C1789 0.960 . S
H1798 C1790 0.930 . S
H1799 C1791 0.929 . S
H1800 C1808 0.929 . S
H1801 C1810 0.930 . S
H1802 C1812 0.930 . S
H1803 C1815 0.929 . S
H1804 C1818 0.930 . S
H1805 C1820 0.960 . S
H1806 C1820 0.960 . S
H1807 C1820 0.960 . S
C1808 H1800 0.929 . S
C1808 C1809 1.377 . S
C1808 C1810 1.384 . S
C1809 C1808 1.377 . S
C1809 C1815 1.390 . S
C1810 H1801 0.930 . S
C1810 C1808 1.384 . S
C1810 C1811 1.372 . S
C1811 C1810 1.372 . S
C1811 C1812 1.400 . S
C1811 C1816 1.490 . S
C1812 H1802 0.930 . S
C1812 C1811 1.400 . S
C1812 C1815 1.386 . S
H1813 C1829 0.930 . S
H1814 C1830 0.931 . S
C1815 H1803 0.929 . S
C1815 C1809 1.390 . S
C1815 C1812 1.386 . S
C1816 C1811 1.490 . S
C1816 C1818 1.395 . S
C1816 C1819 1.403 . S
H1817 C1823 0.930 . S
C1818 H1804 0.930 . S
C1818 C1816 1.395 . S
C1818 C1821 1.403 . S
C1819 C1816 1.403 . S
C1819 C1820 1.524 . S
C1819 C1823 1.400 . S
C1820 H1805 0.960 . S
C1820 H1806 0.960 . S
C1820 H1807 0.960 . S
C1820 C1819 1.524 . S
C1821 C1818 1.403 . S
C1821 C1822 1.392 . S
C1821 C1825 1.495 . S
C1822 C1821 1.392 . S
C1822 C1823 1.385 . S
C1822 C1824 1.478 . S
C1823 H1817 0.930 . S
C1823 C1819 1.400 . S
C1823 C1822 1.385 . S
C1824 C1822 1.478 . S
C1824 C1826 1.381 . S
C1824 C1830 1.383 . S
C1825 C1821 1.495 . S
C1825 H1831 0.959 . S
C1825 H1832 0.961 . S
C1825 H1833 0.960 . S
C1826 C1824 1.381 . S
C1826 C1827 1.394 . S
C1826 H1834 0.930 . S
C1827 C1826 1.394 . S
C1827 C1828 1.383 . S
C1827 H1835 0.929 . S
C1828 C1827 1.383 . S
C1828 C1829 1.377 . S
C1829 H1813 0.930 . S
C1829 C1828 1.377 . S
C1829 C1830 1.379 . S
C1830 H1814 0.931 . S
C1830 C1824 1.383 . S
C1830 C1829 1.379 . S
H1831 C1825 0.959 . S
H1832 C1825 0.961 . S
H1833 C1825 0.960 . S
H1834 C1826 0.930 . S
H1835 C1827 0.929 . S
H1836 C1844 0.929 1_554 S
H1837 C1846 0.930 . S
H1838 C1848 0.930 . S
H1839 C1851 0.929 . S
H1840 C1854 0.930 . S
H1841 C1856 0.960 . S
H1842 C1856 0.960 . S
H1843 C1856 0.960 . S
C1844 H1836 0.929 1_556 S
C1844 C1845 1.377 . S
C1844 C1846 1.384 . S
C1845 C1844 1.377 . S
C1845 C1851 1.390 . S
C1846 H1837 0.930 . S
C1846 C1844 1.384 . S
C1846 C1847 1.372 . S
C1847 C1846 1.372 . S
C1847 C1848 1.400 . S
C1847 C1852 1.490 . S
C1848 H1838 0.930 . S
C1848 C1847 1.400 . S
C1848 C1851 1.386 . S
H1849 C1865 0.930 . S
H1850 C1866 0.931 . S
C1851 H1839 0.929 . S
C1851 C1845 1.390 . S
C1851 C1848 1.386 . S
C1852 C1847 1.490 . S
C1852 C1854 1.395 . S
C1852 C1855 1.403 . S
H1853 C1859 0.930 . S
C1854 H1840 0.930 . S
C1854 C1852 1.395 . S
C1854 C1857 1.403 . S
C1855 C1852 1.403 . S
C1855 C1856 1.524 . S
C1855 C1859 1.400 . S
C1856 H1841 0.960 . S
C1856 H1842 0.960 . S
C1856 H1843 0.960 . S
C1856 C1855 1.524 . S
C1857 C1854 1.403 . S
C1857 C1858 1.392 . S
C1857 C1861 1.495 . S
C1858 C1857 1.392 . S
C1858 C1859 1.385 . S
C1858 C1860 1.478 . S
C1859 H1853 0.930 . S
C1859 C1855 1.400 . S
C1859 C1858 1.385 . S
C1860 C1858 1.478 . S
C1860 C1862 1.381 . S
C1860 C1866 1.383 . S
C1861 C1857 1.495 . S
C1861 H1867 0.959 . S
C1861 H1868 0.961 . S
C1861 H1869 0.960 . S
C1862 C1860 1.381 . S
C1862 C1863 1.394 . S
C1862 H1870 0.930 . S
C1863 C1862 1.394 . S
C1863 C1864 1.383 . S
C1863 H1871 0.929 . S
C1864 C1863 1.383 . S
C1864 C1865 1.377 . S
C1865 H1849 0.930 . S
C1865 C1864 1.377 . S
C1865 C1866 1.379 . S
C1866 H1850 0.931 . S
C1866 C1860 1.383 . S
C1866 C1865 1.379 . S
H1867 C1861 0.959 . S
H1868 C1861 0.961 . S
H1869 C1861 0.960 . S
H1870 C1862 0.930 . S
H1871 C1863 0.929 . S
H1872 C1880 0.929 1_554 S
H1873 C1882 0.930 . S
H1874 C1884 0.930 . S
H1875 C1887 0.929 . S
H1876 C1890 0.930 . S
H1877 C1892 0.960 . S
H1878 C1892 0.960 . S
H1879 C1892 0.960 . S
C1880 H1872 0.929 1_556 S
C1880 C1881 1.377 . S
C1880 C1882 1.384 . S
C1881 C1880 1.377 . S
C1881 C1887 1.390 . S
C1882 H1873 0.930 . S
C1882 C1880 1.384 . S
C1882 C1883 1.372 . S
C1883 C1882 1.372 . S
C1883 C1884 1.400 . S
C1883 C1888 1.490 . S
C1884 H1874 0.930 . S
C1884 C1883 1.400 . S
C1884 C1887 1.386 . S
H1885 C1901 0.930 . S
H1886 C1902 0.931 . S
C1887 H1875 0.929 . S
C1887 C1881 1.390 . S
C1887 C1884 1.386 . S
C1888 C1883 1.490 . S
C1888 C1890 1.395 . S
C1888 C1891 1.403 . S
H1889 C1895 0.930 . S
C1890 H1876 0.930 . S
C1890 C1888 1.395 . S
C1890 C1893 1.403 . S
C1891 C1888 1.403 . S
C1891 C1892 1.524 . S
C1891 C1895 1.400 . S
C1892 H1877 0.960 . S
C1892 H1878 0.960 . S
C1892 H1879 0.960 . S
C1892 C1891 1.524 . S
C1893 C1890 1.403 . S
C1893 C1894 1.392 . S
C1893 C1897 1.495 . S
C1894 C1893 1.392 . S
C1894 C1895 1.385 . S
C1894 C1896 1.478 . S
C1895 H1889 0.930 . S
C1895 C1891 1.400 . S
C1895 C1894 1.385 . S
C1896 C1894 1.478 . S
C1896 C1898 1.381 . S
C1896 C1902 1.383 . S
C1897 C1893 1.495 . S
C1897 H1903 0.959 . S
C1897 H1904 0.961 . S
C1897 H1905 0.960 . S
C1898 C1896 1.381 . S
C1898 C1899 1.394 . S
C1898 H1906 0.930 . S
C1899 C1898 1.394 . S
C1899 C1900 1.383 . S
C1899 H1907 0.929 . S
C1900 C1899 1.383 . S
C1900 C1901 1.377 . S
C1901 H1885 0.930 . S
C1901 C1900 1.377 . S
C1901 C1902 1.379 . S
C1902 H1886 0.931 . S
C1902 C1896 1.383 . S
C1902 C1901 1.379 . S
H1903 C1897 0.959 . S
H1904 C1897 0.961 . S
H1905 C1897 0.960 . S
H1906 C1898 0.930 . S
H1907 C1899 0.929 . S
H1908 C1916 0.929 . S
H1909 C1918 0.930 . S
H1910 C1920 0.930 . S
H1911 C1923 0.929 1_556 S
H1912 C1926 0.930 . S
H1913 C1928 0.960 . S
H1914 C1928 0.960 . S
H1915 C1928 0.960 . S
C1916 H1908 0.929 . S
C1916 C1917 1.377 . S
C1916 C1918 1.384 . S
C1917 C1916 1.377 . S
C1917 C1923 1.390 . S
C1918 H1909 0.930 . S
C1918 C1916 1.384 . S
C1918 C1919 1.372 . S
C1919 C1918 1.372 . S
C1919 C1920 1.400 . S
C1919 C1924 1.490 . S
C1920 H1910 0.930 . S
C1920 C1919 1.400 . S
C1920 C1923 1.386 . S
H1921 C1937 0.930 . S
H1922 C1938 0.931 . S
C1923 H1911 0.929 1_554 S
C1923 C1917 1.390 . S
C1923 C1920 1.386 . S
C1924 C1919 1.490 . S
C1924 C1926 1.395 . S
C1924 C1927 1.403 . S
H1925 C1931 0.930 . S
C1926 H1912 0.930 . S
C1926 C1924 1.395 . S
C1926 C1929 1.403 . S
C1927 C1924 1.403 . S
C1927 C1928 1.524 . S
C1927 C1931 1.400 . S
C1928 H1913 0.960 . S
C1928 H1914 0.960 . S
C1928 H1915 0.960 . S
C1928 C1927 1.524 . S
C1929 C1926 1.403 . S
C1929 C1930 1.392 . S
C1929 C1933 1.495 . S
C1930 C1929 1.392 . S
C1930 C1931 1.385 . S
C1930 C1932 1.478 . S
C1931 H1925 0.930 . S
C1931 C1927 1.400 . S
C1931 C1930 1.385 . S
C1932 C1930 1.478 . S
C1932 C1934 1.381 . S
C1932 C1938 1.383 . S
C1933 C1929 1.495 . S
C1933 H1939 0.959 . S
C1933 H1940 0.961 . S
C1933 H1941 0.960 . S
C1934 C1932 1.381 . S
C1934 C1935 1.394 . S
C1934 H1942 0.930 . S
C1935 C1934 1.394 . S
C1935 C1936 1.383 . S
C1935 H1943 0.929 . S
C1936 C1935 1.383 . S
C1936 C1937 1.377 . S
C1937 H1921 0.930 . S
C1937 C1936 1.377 . S
C1937 C1938 1.379 . S
C1938 H1922 0.931 . S
C1938 C1932 1.383 . S
C1938 C1937 1.379 . S
H1939 C1933 0.959 . S
H1940 C1933 0.961 . S
H1941 C1933 0.960 . S
H1942 C1934 0.930 . S
H1943 C1935 0.929 . S
H1944 C1952 0.929 . S
H1945 C1954 0.930 . S
H1946 C1956 0.930 . S
H1947 C1959 0.929 . S
H1948 C1962 0.930 . S
H1949 C1964 0.960 . S
H1950 C1964 0.960 . S
H1951 C1964 0.960 . S
C1952 H1944 0.929 . S
C1952 C1953 1.377 . S
C1952 C1954 1.384 . S
C1953 C1952 1.377 . S
C1953 C1959 1.390 . S
C1954 H1945 0.930 . S
C1954 C1952 1.384 . S
C1954 C1955 1.372 . S
C1955 C1954 1.372 . S
C1955 C1956 1.400 . S
C1955 C1960 1.490 . S
C1956 H1946 0.930 . S
C1956 C1955 1.400 . S
C1956 C1959 1.386 . S
H1957 C1973 0.930 . S
H1958 C1974 0.931 . S
C1959 H1947 0.929 . S
C1959 C1953 1.390 . S
C1959 C1956 1.386 . S
C1960 C1955 1.490 . S
C1960 C1962 1.395 . S
C1960 C1963 1.403 . S
H1961 C1967 0.930 . S
C1962 H1948 0.930 . S
C1962 C1960 1.395 . S
C1962 C1965 1.403 . S
C1963 C1960 1.403 . S
C1963 C1964 1.524 . S
C1963 C1967 1.400 . S
C1964 H1949 0.960 . S
C1964 H1950 0.960 . S
C1964 H1951 0.960 . S
C1964 C1963 1.524 . S
C1965 C1962 1.403 . S
C1965 C1966 1.392 . S
C1965 C1969 1.495 . S
C1966 C1965 1.392 . S
C1966 C1967 1.385 . S
C1966 C1968 1.478 . S
C1967 H1961 0.930 . S
C1967 C1963 1.400 . S
C1967 C1966 1.385 . S
C1968 C1966 1.478 . S
C1968 C1970 1.381 . S
C1968 C1974 1.383 . S
C1969 C1965 1.495 . S
C1969 H1975 0.959 . S
C1969 H1976 0.961 . S
C1969 H1977 0.960 . S
C1970 C1968 1.381 . S
C1970 C1971 1.394 . S
C1970 H1978 0.930 . S
C1971 C1970 1.394 . S
C1971 C1972 1.383 . S
C1971 H1979 0.929 . S
C1972 C1971 1.383 . S
C1972 C1973 1.377 . S
C1973 H1957 0.930 . S
C1973 C1972 1.377 . S
C1973 C1974 1.379 . S
C1974 H1958 0.931 . S
C1974 C1968 1.383 . S
C1974 C1973 1.379 . S
H1975 C1969 0.959 . S
H1976 C1969 0.961 . S
H1977 C1969 0.960 . S
H1978 C1970 0.930 . S
H1979 C1971 0.929 . S
H1980 C1988 0.929 . S
H1981 C1990 0.930 . S
H1982 C1992 0.930 . S
H1983 C1995 0.929 . S
H1984 C1998 0.930 . S
H1985 C2000 0.960 . S
H1986 C2000 0.960 . S
H1987 C2000 0.960 . S
C1988 H1980 0.929 . S
C1988 C1989 1.377 . S
C1988 C1990 1.384 . S
C1989 C1988 1.377 . S
C1989 C1995 1.390 . S
C1990 H1981 0.930 . S
C1990 C1988 1.384 . S
C1990 C1991 1.372 . S
C1991 C1990 1.372 . S
C1991 C1992 1.400 . S
C1991 C1996 1.490 . S
C1992 H1982 0.930 . S
C1992 C1991 1.400 . S
C1992 C1995 1.386 . S
H1993 C2009 0.930 . S
H1994 C2010 0.931 . S
C1995 H1983 0.929 . S
C1995 C1989 1.390 . S
C1995 C1992 1.386 . S
C1996 C1991 1.490 . S
C1996 C1998 1.395 . S
C1996 C1999 1.403 . S
H1997 C2003 0.930 . S
C1998 H1984 0.930 . S
C1998 C1996 1.395 . S
C1998 C2001 1.403 . S
C1999 C1996 1.403 . S
C1999 C2000 1.524 . S
C1999 C2003 1.400 . S
C2000 H1985 0.960 . S
C2000 H1986 0.960 . S
C2000 H1987 0.960 . S
C2000 C1999 1.524 . S
C2001 C1998 1.403 . S
C2001 C2002 1.392 . S
C2001 C2005 1.495 . S
C2002 C2001 1.392 . S
C2002 C2003 1.385 . S
C2002 C2004 1.478 . S
C2003 H1997 0.930 . S
C2003 C1999 1.400 . S
C2003 C2002 1.385 . S
C2004 C2002 1.478 . S
C2004 C2006 1.381 . S
C2004 C2010 1.383 . S
C2005 C2001 1.495 . S
C2005 H2011 0.959 . S
C2005 H2012 0.961 . S
C2005 H2013 0.960 . S
C2006 C2004 1.381 . S
C2006 C2007 1.394 . S
C2006 H2014 0.930 . S
C2007 C2006 1.394 . S
C2007 C2008 1.383 . S
C2007 H2015 0.929 . S
C2008 C2007 1.383 . S
C2008 C2009 1.377 . S
C2009 H1993 0.930 . S
C2009 C2008 1.377 . S
C2009 C2010 1.379 . S
C2010 H1994 0.931 . S
C2010 C2004 1.383 . S
C2010 C2009 1.379 . S
H2011 C2005 0.959 . S
H2012 C2005 0.961 . S
H2013 C2005 0.960 . S
H2014 C2006 0.930 . S
H2015 C2007 0.929 . S
H2016 C2024 0.929 1_556 S
H2017 C2026 0.930 . S
H2018 C2028 0.930 . S
H2019 C2031 0.929 . S
H2020 C2034 0.930 . S
H2021 C2036 0.960 . S
H2022 C2036 0.960 . S
H2023 C2036 0.960 . S
C2024 H2016 0.929 1_554 S
C2024 C2025 1.377 . S
C2024 C2026 1.384 . S
C2025 C2024 1.377 . S
C2025 C2031 1.390 . S
C2026 H2017 0.930 . S
C2026 C2024 1.384 . S
C2026 C2027 1.372 . S
C2027 C2026 1.372 . S
C2027 C2028 1.400 . S
C2027 C2032 1.490 . S
C2028 H2018 0.930 . S
C2028 C2027 1.400 . S
C2028 C2031 1.386 . S
H2029 C2045 0.930 . S
H2030 C2046 0.931 . S
C2031 H2019 0.929 . S
C2031 C2025 1.390 . S
C2031 C2028 1.386 . S
C2032 C2027 1.490 . S
C2032 C2034 1.395 . S
C2032 C2035 1.403 . S
H2033 C2039 0.930 . S
C2034 H2020 0.930 . S
C2034 C2032 1.395 . S
C2034 C2037 1.403 . S
C2035 C2032 1.403 . S
C2035 C2036 1.524 . S
C2035 C2039 1.400 . S
C2036 H2021 0.960 . S
C2036 H2022 0.960 . S
C2036 H2023 0.960 . S
C2036 C2035 1.524 . S
C2037 C2034 1.403 . S
C2037 C2038 1.392 . S
C2037 C2041 1.495 . S
C2038 C2037 1.392 . S
C2038 C2039 1.385 . S
C2038 C2040 1.478 . S
C2039 H2033 0.930 . S
C2039 C2035 1.400 . S
C2039 C2038 1.385 . S
C2040 C2038 1.478 . S
C2040 C2042 1.381 . S
C2040 C2046 1.383 . S
C2041 C2037 1.495 . S
C2041 H2047 0.959 . S
C2041 H2048 0.961 . S
C2041 H2049 0.960 . S
C2042 C2040 1.381 . S
C2042 C2043 1.394 . S
C2042 H2050 0.930 . S
C2043 C2042 1.394 . S
C2043 C2044 1.383 . S
C2043 H2051 0.929 . S
C2044 C2043 1.383 . S
C2044 C2045 1.377 . S
C2045 H2029 0.930 . S
C2045 C2044 1.377 . S
C2045 C2046 1.379 . S
C2046 H2030 0.931 . S
C2046 C2040 1.383 . S
C2046 C2045 1.379 . S
H2047 C2041 0.959 . S
H2048 C2041 0.961 . S
H2049 C2041 0.960 . S
H2050 C2042 0.930 . S
H2051 C2043 0.929 . S
H2052 C2060 0.929 . S
H2053 C2062 0.930 . S
H2054 C2064 0.930 . S
H2055 C2067 0.929 . S
H2056 C2070 0.930 . S
H2057 C2072 0.960 . S
H2058 C2072 0.960 . S
H2059 C2072 0.960 . S
C2060 H2052 0.929 . S
C2060 C2061 1.377 . S
C2060 C2062 1.384 . S
C2061 C2060 1.377 . S
C2061 C2067 1.390 . S
C2062 H2053 0.930 . S
C2062 C2060 1.384 . S
C2062 C2063 1.372 . S
C2063 C2062 1.372 . S
C2063 C2064 1.400 . S
C2063 C2068 1.490 . S
C2064 H2054 0.930 . S
C2064 C2063 1.400 . S
C2064 C2067 1.386 . S
H2065 C2081 0.930 . S
H2066 C2082 0.931 . S
C2067 H2055 0.929 . S
C2067 C2061 1.390 . S
C2067 C2064 1.386 . S
C2068 C2063 1.490 . S
C2068 C2070 1.395 . S
C2068 C2071 1.403 . S
H2069 C2075 0.930 . S
C2070 H2056 0.930 . S
C2070 C2068 1.395 . S
C2070 C2073 1.403 . S
C2071 C2068 1.403 . S
C2071 C2072 1.524 . S
C2071 C2075 1.400 . S
C2072 H2057 0.960 . S
C2072 H2058 0.960 . S
C2072 H2059 0.960 . S
C2072 C2071 1.524 . S
C2073 C2070 1.403 . S
C2073 C2074 1.392 . S
C2073 C2077 1.495 . S
C2074 C2073 1.392 . S
C2074 C2075 1.385 . S
C2074 C2076 1.478 . S
C2075 H2069 0.930 . S
C2075 C2071 1.400 . S
C2075 C2074 1.385 . S
C2076 C2074 1.478 . S
C2076 C2078 1.381 . S
C2076 C2082 1.383 . S
C2077 C2073 1.495 . S
C2077 H2083 0.959 . S
C2077 H2084 0.961 . S
C2077 H2085 0.960 . S
C2078 C2076 1.381 . S
C2078 C2079 1.394 . S
C2078 H2086 0.930 . S
C2079 C2078 1.394 . S
C2079 C2080 1.383 . S
C2079 H2087 0.929 . S
C2080 C2079 1.383 . S
C2080 C2081 1.377 . S
C2081 H2065 0.930 . S
C2081 C2080 1.377 . S
C2081 C2082 1.379 . S
C2082 H2066 0.931 . S
C2082 C2076 1.383 . S
C2082 C2081 1.379 . S
H2083 C2077 0.959 . S
H2084 C2077 0.961 . S
H2085 C2077 0.960 . S
H2086 C2078 0.930 . S
H2087 C2079 0.929 . S
H2088 C2096 0.929 . S
H2089 C2098 0.930 . S
H2090 C2100 0.930 . S
H2091 C2103 0.929 1_556 S
H2092 C2106 0.930 . S
H2093 C2108 0.960 . S
H2094 C2108 0.960 . S
H2095 C2108 0.960 . S
C2096 H2088 0.929 . S
C2096 C2097 1.377 . S
C2096 C2098 1.384 . S
C2097 C2096 1.377 . S
C2097 C2103 1.390 . S
C2098 H2089 0.930 . S
C2098 C2096 1.384 . S
C2098 C2099 1.372 . S
C2099 C2098 1.372 . S
C2099 C2100 1.400 . S
C2099 C2104 1.490 . S
C2100 H2090 0.930 . S
C2100 C2099 1.400 . S
C2100 C2103 1.386 . S
H2101 C2117 0.930 . S
H2102 C2118 0.931 . S
C2103 H2091 0.929 1_554 S
C2103 C2097 1.390 . S
C2103 C2100 1.386 . S
C2104 C2099 1.490 . S
C2104 C2106 1.395 . S
C2104 C2107 1.403 . S
H2105 C2111 0.930 . S
C2106 H2092 0.930 . S
C2106 C2104 1.395 . S
C2106 C2109 1.403 . S
C2107 C2104 1.403 . S
C2107 C2108 1.524 . S
C2107 C2111 1.400 . S
C2108 H2093 0.960 . S
C2108 H2094 0.960 . S
C2108 H2095 0.960 . S
C2108 C2107 1.524 . S
C2109 C2106 1.403 . S
C2109 C2110 1.392 . S
C2109 C2113 1.495 . S
C2110 C2109 1.392 . S
C2110 C2111 1.385 . S
C2110 C2112 1.478 . S
C2111 H2105 0.930 . S
C2111 C2107 1.400 . S
C2111 C2110 1.385 . S
C2112 C2110 1.478 . S
C2112 C2114 1.381 . S
C2112 C2118 1.383 . S
C2113 C2109 1.495 . S
C2113 H2119 0.959 . S
C2113 H2120 0.961 . S
C2113 H2121 0.960 . S
C2114 C2112 1.381 . S
C2114 C2115 1.394 . S
C2114 H2122 0.930 . S
C2115 C2114 1.394 . S
C2115 C2116 1.383 . S
C2115 H2123 0.929 . S
C2116 C2115 1.383 . S
C2116 C2117 1.377 . S
C2117 H2101 0.930 . S
C2117 C2116 1.377 . S
C2117 C2118 1.379 . S
C2118 H2102 0.931 . S
C2118 C2112 1.383 . S
C2118 C2117 1.379 . S
H2119 C2113 0.959 . S
H2120 C2113 0.961 . S
H2121 C2113 0.960 . S
H2122 C2114 0.930 . S
H2123 C2115 0.929 . S
H2124 C2132 0.929 . S
H2125 C2134 0.930 . S
H2126 C2136 0.930 . S
H2127 C2139 0.929 . S
H2128 C2142 0.930 . S
H2129 C2144 0.960 . S
H2130 C2144 0.960 . S
H2131 C2144 0.960 . S
C2132 H2124 0.929 . S
C2132 C2133 1.377 . S
C2132 C2134 1.384 . S
C2133 C2132 1.377 . S
C2133 C2139 1.390 . S
C2134 H2125 0.930 . S
C2134 C2132 1.384 . S
C2134 C2135 1.372 . S
C2135 C2134 1.372 . S
C2135 C2136 1.400 . S
C2135 C2140 1.490 . S
C2136 H2126 0.930 . S
C2136 C2135 1.400 . S
C2136 C2139 1.386 . S
H2137 C2153 0.930 . S
H2138 C2154 0.931 . S
C2139 H2127 0.929 . S
C2139 C2133 1.390 . S
C2139 C2136 1.386 . S
C2140 C2135 1.490 . S
C2140 C2142 1.395 . S
C2140 C2143 1.403 . S
H2141 C2147 0.930 . S
C2142 H2128 0.930 . S
C2142 C2140 1.395 . S
C2142 C2145 1.403 . S
C2143 C2140 1.403 . S
C2143 C2144 1.524 . S
C2143 C2147 1.400 . S
C2144 H2129 0.960 . S
C2144 H2130 0.960 . S
C2144 H2131 0.960 . S
C2144 C2143 1.524 . S
C2145 C2142 1.403 . S
C2145 C2146 1.392 . S
C2145 C2149 1.495 . S
C2146 C2145 1.392 . S
C2146 C2147 1.385 . S
C2146 C2148 1.478 . S
C2147 H2141 0.930 . S
C2147 C2143 1.400 . S
C2147 C2146 1.385 . S
C2148 C2146 1.478 . S
C2148 C2150 1.381 . S
C2148 C2154 1.383 . S
C2149 C2145 1.495 . S
C2149 H2155 0.959 . S
C2149 H2156 0.961 . S
C2149 H2157 0.960 . S
C2150 C2148 1.381 . S
C2150 C2151 1.394 . S
C2150 H2158 0.930 . S
C2151 C2150 1.394 . S
C2151 C2152 1.383 . S
C2151 H2159 0.929 . S
C2152 C2151 1.383 . S
C2152 C2153 1.377 . S
C2153 H2137 0.930 . S
C2153 C2152 1.377 . S
C2153 C2154 1.379 . S
C2154 H2138 0.931 . S
C2154 C2148 1.383 . S
C2154 C2153 1.379 . S
H2155 C2149 0.959 . S
H2156 C2149 0.961 . S
H2157 C2149 0.960 . S
H2158 C2150 0.930 . S
H2159 C2151 0.929 . S
H2160 C2168 0.929 . S
H2161 C2170 0.930 . S
H2162 C2172 0.930 . S
H2163 C2175 0.929 . S
H2164 C2178 0.930 . S
H2165 C2180 0.960 . S
H2166 C2180 0.960 . S
H2167 C2180 0.960 . S
C2168 H2160 0.929 . S
C2168 C2169 1.377 . S
C2168 C2170 1.384 . S
C2169 C2168 1.377 . S
C2169 C2175 1.390 . S
C2170 H2161 0.930 . S
C2170 C2168 1.384 . S
C2170 C2171 1.372 . S
C2171 C2170 1.372 . S
C2171 C2172 1.400 . S
C2171 C2176 1.490 . S
C2172 H2162 0.930 . S
C2172 C2171 1.400 . S
C2172 C2175 1.386 . S
H2173 C2189 0.930 . S
H2174 C2190 0.931 . S
C2175 H2163 0.929 . S
C2175 C2169 1.390 . S
C2175 C2172 1.386 . S
C2176 C2171 1.490 . S
C2176 C2178 1.395 . S
C2176 C2179 1.403 . S
H2177 C2183 0.930 . S
C2178 H2164 0.930 . S
C2178 C2176 1.395 . S
C2178 C2181 1.403 . S
C2179 C2176 1.403 . S
C2179 C2180 1.524 . S
C2179 C2183 1.400 . S
C2180 H2165 0.960 . S
C2180 H2166 0.960 . S
C2180 H2167 0.960 . S
C2180 C2179 1.524 . S
C2181 C2178 1.403 . S
C2181 C2182 1.392 . S
C2181 C2185 1.495 . S
C2182 C2181 1.392 . S
C2182 C2183 1.385 . S
C2182 C2184 1.478 . S
C2183 H2177 0.930 . S
C2183 C2179 1.400 . S
C2183 C2182 1.385 . S
C2184 C2182 1.478 . S
C2184 C2186 1.381 . S
C2184 C2190 1.383 . S
C2185 C2181 1.495 . S
C2185 H2191 0.959 . S
C2185 H2192 0.961 . S
C2185 H2193 0.960 . S
C2186 C2184 1.381 . S
C2186 C2187 1.394 . S
C2186 H2194 0.930 . S
C2187 C2186 1.394 . S
C2187 C2188 1.383 . S
C2187 H2195 0.929 . S
C2188 C2187 1.383 . S
C2188 C2189 1.377 . S
C2189 H2173 0.930 . S
C2189 C2188 1.377 . S
C2189 C2190 1.379 . S
C2190 H2174 0.931 . S
C2190 C2184 1.383 . S
C2190 C2189 1.379 . S
H2191 C2185 0.959 . S
H2192 C2185 0.961 . S
H2193 C2185 0.960 . S
H2194 C2186 0.930 . S
H2195 C2187 0.929 . S
H2196 C2204 0.929 . S
H2197 C2206 0.930 . S
H2198 C2208 0.930 . S
H2199 C2211 0.929 1_554 S
H2200 C2214 0.930 . S
H2201 C2216 0.960 . S
H2202 C2216 0.960 . S
H2203 C2216 0.960 . S
C2204 H2196 0.929 . S
C2204 C2205 1.377 . S
C2204 C2206 1.384 . S
C2205 C2204 1.377 . S
C2205 C2211 1.390 . S
C2206 H2197 0.930 . S
C2206 C2204 1.384 . S
C2206 C2207 1.372 . S
C2207 C2206 1.372 . S
C2207 C2208 1.400 . S
C2207 C2212 1.490 . S
C2208 H2198 0.930 . S
C2208 C2207 1.400 . S
C2208 C2211 1.386 . S
H2209 C2225 0.930 . S
H2210 C2226 0.931 . S
C2211 H2199 0.929 1_556 S
C2211 C2205 1.390 . S
C2211 C2208 1.386 . S
C2212 C2207 1.490 . S
C2212 C2214 1.395 . S
C2212 C2215 1.403 . S
H2213 C2219 0.930 . S
C2214 H2200 0.930 . S
C2214 C2212 1.395 . S
C2214 C2217 1.403 . S
C2215 C2212 1.403 . S
C2215 C2216 1.524 . S
C2215 C2219 1.400 . S
C2216 H2201 0.960 . S
C2216 H2202 0.960 . S
C2216 H2203 0.960 . S
C2216 C2215 1.524 . S
C2217 C2214 1.403 . S
C2217 C2218 1.392 . S
C2217 C2221 1.495 . S
C2218 C2217 1.392 . S
C2218 C2219 1.385 . S
C2218 C2220 1.478 . S
C2219 H2213 0.930 . S
C2219 C2215 1.400 . S
C2219 C2218 1.385 . S
C2220 C2218 1.478 . S
C2220 C2222 1.381 . S
C2220 C2226 1.383 . S
C2221 C2217 1.495 . S
C2221 H2227 0.959 . S
C2221 H2228 0.961 . S
C2221 H2229 0.960 . S
C2222 C2220 1.381 . S
C2222 C2223 1.394 . S
C2222 H2230 0.930 . S
C2223 C2222 1.394 . S
C2223 C2224 1.383 . S
C2223 H2231 0.929 . S
C2224 C2223 1.383 . S
C2224 C2225 1.377 . S
C2225 H2209 0.930 . S
C2225 C2224 1.377 . S
C2225 C2226 1.379 . S
C2226 H2210 0.931 . S
C2226 C2220 1.383 . S
C2226 C2225 1.379 . S
H2227 C2221 0.959 . S
H2228 C2221 0.961 . S
H2229 C2221 0.960 . S
H2230 C2222 0.930 . S
H2231 C2223 0.929 . S
H2232 C2240 0.929 . S
H2233 C2242 0.930 . S
H2234 C2244 0.930 . S
H2235 C2247 0.929 . S
H2236 C2250 0.930 . S
H2237 C2252 0.960 . S
H2238 C2252 0.960 . S
H2239 C2252 0.960 . S
C2240 H2232 0.929 . S
C2240 C2241 1.377 . S
C2240 C2242 1.384 . S
C2241 C2240 1.377 . S
C2241 C2247 1.390 . S
C2242 H2233 0.930 . S
C2242 C2240 1.384 . S
C2242 C2243 1.372 . S
C2243 C2242 1.372 . S
C2243 C2244 1.400 . S
C2243 C2248 1.490 . S
C2244 H2234 0.930 . S
C2244 C2243 1.400 . S
C2244 C2247 1.386 . S
H2245 C2261 0.930 . S
H2246 C2262 0.931 . S
C2247 H2235 0.929 . S
C2247 C2241 1.390 . S
C2247 C2244 1.386 . S
C2248 C2243 1.490 . S
C2248 C2250 1.395 . S
C2248 C2251 1.403 1_455 S
H2249 C2255 0.930 . S
C2250 H2236 0.930 . S
C2250 C2248 1.395 . S
C2250 C2253 1.403 . S
C2251 C2248 1.403 1_655 S
C2251 C2252 1.524 . S
C2251 C2255 1.400 . S
C2252 H2237 0.960 . S
C2252 H2238 0.960 . S
C2252 H2239 0.960 . S
C2252 C2251 1.524 . S
C2253 C2250 1.403 . S
C2253 C2254 1.392 1_455 S
C2253 C2257 1.495 . S
C2254 C2253 1.392 1_655 S
C2254 C2255 1.385 . S
C2254 C2256 1.478 . S
C2255 H2249 0.930 . S
C2255 C2251 1.400 . S
C2255 C2254 1.385 . S
C2256 C2254 1.478 . S
C2256 C2258 1.381 . S
C2256 C2262 1.383 . S
C2257 C2253 1.495 . S
C2257 H2263 0.959 . S
C2257 H2264 0.961 . S
C2257 H2265 0.960 . S
C2258 C2256 1.381 . S
C2258 C2259 1.394 . S
C2258 H2266 0.930 . S
C2259 C2258 1.394 . S
C2259 C2260 1.383 . S
C2259 H2267 0.929 . S
C2260 C2259 1.383 . S
C2260 C2261 1.377 . S
C2261 H2245 0.930 . S
C2261 C2260 1.377 . S
C2261 C2262 1.379 . S
C2262 H2246 0.931 . S
C2262 C2256 1.383 . S
C2262 C2261 1.379 . S
H2263 C2257 0.959 . S
H2264 C2257 0.961 . S
H2265 C2257 0.960 . S
H2266 C2258 0.930 . S
H2267 C2259 0.929 . S
H2268 C2276 0.929 . S
H2269 C2278 0.930 . S
H2270 C2280 0.930 . S
H2271 C2283 0.929 . S
H2272 C2286 0.930 . S
H2273 C2288 0.960 . S
H2274 C2288 0.960 . S
H2275 C2288 0.960 . S
C2276 H2268 0.929 . S
C2276 C2277 1.377 . S
C2276 C2278 1.384 . S
C2277 C2276 1.377 . S
C2277 C2283 1.390 . S
C2278 H2269 0.930 . S
C2278 C2276 1.384 . S
C2278 C2279 1.372 . S
C2279 C2278 1.372 . S
C2279 C2280 1.400 . S
C2279 C2284 1.490 . S
C2280 H2270 0.930 . S
C2280 C2279 1.400 . S
C2280 C2283 1.386 . S
H2281 C2297 0.930 . S
H2282 C2298 0.931 . S
C2283 H2271 0.929 . S
C2283 C2277 1.390 . S
C2283 C2280 1.386 . S
C2284 C2279 1.490 . S
C2284 C2286 1.395 . S
C2284 C2287 1.403 . S
H2285 C2291 0.930 . S
C2286 H2272 0.930 . S
C2286 C2284 1.395 . S
C2286 C2289 1.403 . S
C2287 C2284 1.403 . S
C2287 C2288 1.524 . S
C2287 C2291 1.400 . S
C2288 H2273 0.960 . S
C2288 H2274 0.960 . S
C2288 H2275 0.960 . S
C2288 C2287 1.524 . S
C2289 C2286 1.403 . S
C2289 C2290 1.392 . S
C2289 C2293 1.495 . S
C2290 C2289 1.392 . S
C2290 C2291 1.385 . S
C2290 C2292 1.478 . S
C2291 H2285 0.930 . S
C2291 C2287 1.400 . S
C2291 C2290 1.385 . S
C2292 C2290 1.478 . S
C2292 C2294 1.381 . S
C2292 C2298 1.383 . S
C2293 C2289 1.495 . S
C2293 H2299 0.959 . S
C2293 H2300 0.961 . S
C2293 H2301 0.960 . S
C2294 C2292 1.381 . S
C2294 C2295 1.394 . S
C2294 H2302 0.930 . S
C2295 C2294 1.394 . S
C2295 C2296 1.383 . S
C2295 H2303 0.929 . S
C2296 C2295 1.383 . S
C2296 C2297 1.377 . S
C2297 H2281 0.930 . S
C2297 C2296 1.377 . S
C2297 C2298 1.379 . S
C2298 H2282 0.931 . S
C2298 C2292 1.383 . S
C2298 C2297 1.379 . S
H2299 C2293 0.959 . S
H2300 C2293 0.961 . S
H2301 C2293 0.960 . S
H2302 C2294 0.930 . S
H2303 C2295 0.929 . S
H2304 C2312 0.929 . S
H2305 C2314 0.930 . S
H2306 C2316 0.930 . S
H2307 C2319 0.929 . S
H2308 C2322 0.981 . S
H2309 C2324 0.960 . S
H2310 C2324 0.960 . S
H2311 C2324 0.960 . S
C2312 H2304 0.929 . S
C2312 C2313 1.377 . S
C2312 C2314 1.384 . S
C2313 C2312 1.377 . S
C2313 C2319 1.390 . S
C2314 H2305 0.930 . S
C2314 C2312 1.384 . S
C2314 C2315 1.372 . S
C2315 C2314 1.372 . S
C2315 C2316 1.400 . S
C2315 C2320 1.490 . S
C2316 H2306 0.930 . S
C2316 C2315 1.400 . S
C2316 C2319 1.386 . S
H2317 C2333 0.930 . S
H2318 C2334 0.931 . S
C2319 H2307 0.929 . S
C2319 C2313 1.390 . S
C2319 C2316 1.386 . S
C2320 C2315 1.490 . S
C2320 C2322 1.274 1_565 S
C2320 C2323 1.403 . S
H2321 C2327 0.929 1_565 S
C2322 H2308 0.981 . S
C2322 C2320 1.274 1_545 S
C2322 C2325 1.484 . S
C2323 C2320 1.403 . S
C2323 C2324 1.524 . S
C2323 C2327 1.404 1_565 S
C2324 H2309 0.960 . S
C2324 H2310 0.960 . S
C2324 H2311 0.960 . S
C2324 C2323 1.524 . S
C2325 C2322 1.484 . S
C2325 C2326 1.392 . S
C2325 C2329 1.495 . S
C2326 C2325 1.392 . S
C2326 C2327 1.379 . S
C2326 C2328 1.478 . S
C2327 H2321 0.929 1_545 S
C2327 C2323 1.404 1_545 S
C2327 C2326 1.379 . S
C2328 C2326 1.478 . S
C2328 C2330 1.381 . S
C2328 C2334 1.383 . S
C2329 C2325 1.495 . S
C2329 H2335 0.959 . S
C2329 H2336 0.961 . S
C2329 H2337 0.960 . S
C2330 C2328 1.381 . S
C2330 C2331 1.394 . S
C2330 H2338 0.930 . S
C2331 C2330 1.394 . S
C2331 C2332 1.383 . S
C2331 H2339 0.929 . S
C2332 C2331 1.383 . S
C2332 C2333 1.377 . S
C2333 H2317 0.930 . S
C2333 C2332 1.377 . S
C2333 C2334 1.379 . S
C2334 H2318 0.931 . S
C2334 C2328 1.383 . S
C2334 C2333 1.379 . S
H2335 C2329 0.959 . S
H2336 C2329 0.961 . S
H2337 C2329 0.960 . S
H2338 C2330 0.930 . S
H2339 C2331 0.929 . S
H2340 C2348 0.929 . S
H2341 C2350 0.930 . S
H2342 C2352 0.930 . S
H2343 C2355 0.929 . S
H2344 C2358 0.930 . S
H2345 C2360 0.960 . S
H2346 C2360 0.960 . S
H2347 C2360 0.960 . S
C2348 H2340 0.929 . S
C2348 C2349 1.377 . S
C2348 C2350 1.384 . S
C2349 C2348 1.377 . S
C2349 C2355 1.390 . S
C2350 H2341 0.930 . S
C2350 C2348 1.384 . S
C2350 C2351 1.372 . S
C2351 C2350 1.372 . S
C2351 C2352 1.400 . S
C2351 C2356 1.490 . S
C2352 H2342 0.930 . S
C2352 C2351 1.400 . S
C2352 C2355 1.386 . S
H2353 C2369 0.930 . S
H2354 C2370 0.931 . S
C2355 H2343 0.929 . S
C2355 C2349 1.390 . S
C2355 C2352 1.386 . S
C2356 C2351 1.490 . S
C2356 C2358 1.395 . S
C2356 C2359 1.403 . S
H2357 C2363 0.930 . S
C2358 H2344 0.930 . S
C2358 C2356 1.395 . S
C2358 C2361 1.403 1_565 S
C2359 C2356 1.403 . S
C2359 C2360 1.524 . S
C2359 C2363 1.400 1_565 S
C2360 H2345 0.960 . S
C2360 H2346 0.960 . S
C2360 H2347 0.960 . S
C2360 C2359 1.524 . S
C2361 C2358 1.403 1_545 S
C2361 C2362 1.392 . S
C2361 C2365 1.495 . S
C2362 C2361 1.392 . S
C2362 C2363 1.385 . S
C2362 C2364 1.478 . S
C2363 H2357 0.930 . S
C2363 C2359 1.400 1_545 S
C2363 C2362 1.385 . S
C2364 C2362 1.478 . S
C2364 C2366 1.381 . S
C2364 C2370 1.383 . S
C2365 C2361 1.495 . S
C2365 H2371 0.959 . S
C2365 H2372 0.961 . S
C2365 H2373 0.960 . S
C2366 C2364 1.381 . S
C2366 C2367 1.394 . S
C2366 H2374 0.930 . S
C2367 C2366 1.394 . S
C2367 C2368 1.383 . S
C2367 H2375 0.929 . S
C2368 C2367 1.383 . S
C2368 C2369 1.377 . S
C2369 H2353 0.930 . S
C2369 C2368 1.377 . S
C2369 C2370 1.379 . S
C2370 H2354 0.931 . S
C2370 C2364 1.383 . S
C2370 C2369 1.379 . S
H2371 C2365 0.959 . S
H2372 C2365 0.961 . S
H2373 C2365 0.960 . S
H2374 C2366 0.930 . S
H2375 C2367 0.929 . S
H2376 C2384 0.929 . S
H2377 C2386 0.930 . S
H2378 C2388 0.930 . S
H2379 C2391 0.929 . S
H2380 C2394 0.930 . S
H2381 C2396 0.960 . S
H2382 C2396 0.960 . S
H2383 C2396 0.960 . S
C2384 H2376 0.929 . S
C2384 C2385 1.377 . S
C2384 C2386 1.384 . S
C2385 C2384 1.377 . S
C2385 C2391 1.390 . S
C2386 H2377 0.930 . S
C2386 C2384 1.384 . S
C2386 C2387 1.372 . S
C2387 C2386 1.372 . S
C2387 C2388 1.400 . S
C2387 C2392 1.490 . S
C2388 H2378 0.930 . S
C2388 C2387 1.400 . S
C2388 C2391 1.386 . S
H2389 C2405 0.930 . S
H2390 C2406 0.931 . S
C2391 H2379 0.929 . S
C2391 C2385 1.390 . S
C2391 C2388 1.386 . S
C2392 C2387 1.490 . S
C2392 C2394 1.395 1_655 S
C2392 C2395 1.403 . S
H2393 C2399 0.949 . S
C2394 H2380 0.930 . S
C2394 C2392 1.395 1_455 S
C2394 C2397 1.403 . S
C2395 C2392 1.403 . S
C2395 C2396 1.524 . S
C2395 C2399 1.431 . S
C2396 H2381 0.960 . S
C2396 H2382 0.960 . S
C2396 H2383 0.960 . S
C2396 C2395 1.524 . S
C2397 C2394 1.403 . S
C2397 C2398 1.392 . S
C2397 C2401 1.495 . S
C2398 C2397 1.392 . S
C2398 C2399 1.337 1_455 S
C2398 C2400 1.478 . S
C2399 H2393 0.949 . S
C2399 C2395 1.431 . S
C2399 C2398 1.337 1_655 S
C2400 C2398 1.478 . S
C2400 C2402 1.381 . S
C2400 C2406 1.383 . S
C2401 C2397 1.495 . S
C2401 H2407 0.959 . S
C2401 H2408 0.961 . S
C2401 H2409 0.960 . S
C2402 C2400 1.381 . S
C2402 C2403 1.394 . S
C2402 H2410 0.930 . S
C2403 C2402 1.394 . S
C2403 C2404 1.383 . S
C2403 H2411 0.929 . S
C2404 C2403 1.383 . S
C2404 C2405 1.377 . S
C2405 H2389 0.930 . S
C2405 C2404 1.377 . S
C2405 C2406 1.379 . S
C2406 H2390 0.931 . S
C2406 C2400 1.383 . S
C2406 C2405 1.379 . S
H2407 C2401 0.959 . S
H2408 C2401 0.961 . S
H2409 C2401 0.960 . S
H2410 C2402 0.930 . S
H2411 C2403 0.929 . S
H2412 C2420 0.929 . S
H2413 C2422 0.930 . S
H2414 C2424 0.930 . S
H2415 C2427 0.929 . S
H2416 C2430 0.930 . S
H2417 C2432 0.960 . S
H2418 C2432 0.960 . S
H2419 C2432 0.960 . S
C2420 H2412 0.929 . S
C2420 C2421 1.377 . S
C2420 C2422 1.384 . S
C2421 C2420 1.377 . S
C2421 C2427 1.390 . S
C2422 H2413 0.930 . S
C2422 C2420 1.384 . S
C2422 C2423 1.372 . S
C2423 C2422 1.372 . S
C2423 C2424 1.400 . S
C2423 C2428 1.490 . S
C2424 H2414 0.930 . S
C2424 C2423 1.400 . S
C2424 C2427 1.386 . S
H2425 C2441 0.930 . S
H2426 C2442 0.931 . S
C2427 H2415 0.929 . S
C2427 C2421 1.390 . S
C2427 C2424 1.386 . S
C2428 C2423 1.490 . S
C2428 C2430 1.395 . S
C2428 C2431 1.403 . S
H2429 C2435 0.930 . S
C2430 H2416 0.930 . S
C2430 C2428 1.395 . S
C2430 C2433 1.403 . S
C2431 C2428 1.403 . S
C2431 C2432 1.524 . S
C2431 C2435 1.400 . S
C2432 H2417 0.960 . S
C2432 H2418 0.960 . S
C2432 H2419 0.960 . S
C2432 C2431 1.524 . S
C2433 C2430 1.403 . S
C2433 C2434 1.392 . S
C2433 C2437 1.495 . S
C2434 C2433 1.392 . S
C2434 C2435 1.385 . S
C2434 C2436 1.478 . S
C2435 H2429 0.930 . S
C2435 C2431 1.400 . S
C2435 C2434 1.385 . S
C2436 C2434 1.478 . S
C2436 C2438 1.381 . S
C2436 C2442 1.383 . S
C2437 C2433 1.495 . S
C2437 H2443 0.959 . S
C2437 H2444 0.961 . S
C2437 H2445 0.960 . S
C2438 C2436 1.381 . S
C2438 C2439 1.394 . S
C2438 H2446 0.930 . S
C2439 C2438 1.394 . S
C2439 C2440 1.383 . S
C2439 H2447 0.929 . S
C2440 C2439 1.383 . S
C2440 C2441 1.377 . S
C2441 H2425 0.930 . S
C2441 C2440 1.377 . S
C2441 C2442 1.379 . S
C2442 H2426 0.931 . S
C2442 C2436 1.383 . S
C2442 C2441 1.379 . S
H2443 C2437 0.959 . S
H2444 C2437 0.961 . S
H2445 C2437 0.960 . S
H2446 C2438 0.930 . S
H2447 C2439 0.929 . S
H2448 C2456 0.929 . S
H2449 C2458 0.930 . S
H2450 C2460 0.930 . S
H2451 C2463 0.929 . S
H2452 C2466 0.930 . S
H2453 C2468 0.960 . S
H2454 C2468 0.960 . S
H2455 C2468 0.960 . S
C2456 H2448 0.929 . S
C2456 C2457 1.377 . S
C2456 C2458 1.384 . S
C2457 C2456 1.377 . S
C2457 C2463 1.390 . S
C2458 H2449 0.930 . S
C2458 C2456 1.384 . S
C2458 C2459 1.372 . S
C2459 C2458 1.372 . S
C2459 C2460 1.400 . S
C2459 C2464 1.490 . S
C2460 H2450 0.930 . S
C2460 C2459 1.400 . S
C2460 C2463 1.386 . S
H2461 C2477 0.930 . S
H2462 C2478 0.931 . S
C2463 H2451 0.929 . S
C2463 C2457 1.390 . S
C2463 C2460 1.386 . S
C2464 C2459 1.490 . S
C2464 C2466 1.395 . S
C2464 C2467 1.403 . S
H2465 C2471 0.930 . S
C2466 H2452 0.930 . S
C2466 C2464 1.395 . S
C2466 C2469 1.403 . S
C2467 C2464 1.403 . S
C2467 C2468 1.524 . S
C2467 C2471 1.400 . S
C2468 H2453 0.960 . S
C2468 H2454 0.960 . S
C2468 H2455 0.960 . S
C2468 C2467 1.524 . S
C2469 C2466 1.403 . S
C2469 C2470 1.392 . S
C2469 C2473 1.495 . S
C2470 C2469 1.392 . S
C2470 C2471 1.385 . S
C2470 C2472 1.478 . S
C2471 H2465 0.930 . S
C2471 C2467 1.400 . S
C2471 C2470 1.385 . S
C2472 C2470 1.478 . S
C2472 C2474 1.381 . S
C2472 C2478 1.383 . S
C2473 C2469 1.495 . S
C2473 H2479 0.959 . S
C2473 H2480 0.961 . S
C2473 H2481 0.960 . S
C2474 C2472 1.381 . S
C2474 C2475 1.394 . S
C2474 H2482 0.930 . S
C2475 C2474 1.394 . S
C2475 C2476 1.383 . S
C2475 H2483 0.929 . S
C2476 C2475 1.383 . S
C2476 C2477 1.377 . S
C2477 H2461 0.930 . S
C2477 C2476 1.377 . S
C2477 C2478 1.379 . S
C2478 H2462 0.931 . S
C2478 C2472 1.383 . S
C2478 C2477 1.379 . S
H2479 C2473 0.959 . S
H2480 C2473 0.961 . S
H2481 C2473 0.960 . S
H2482 C2474 0.930 . S
H2483 C2475 0.929 . S
H2484 C2492 0.929 . S
H2485 C2494 0.930 . S
H2486 C2496 0.930 . S
H2487 C2499 0.929 . S
H2488 C2502 0.930 . S
H2489 C2504 0.960 . S
H2490 C2504 0.960 . S
H2491 C2504 0.960 . S
C2492 H2484 0.929 . S
C2492 C2493 1.377 . S
C2492 C2494 1.384 . S
C2493 C2492 1.377 . S
C2493 C2499 1.390 . S
C2494 H2485 0.930 . S
C2494 C2492 1.384 . S
C2494 C2495 1.372 . S
C2495 C2494 1.372 . S
C2495 C2496 1.400 . S
C2495 C2500 1.490 . S
C2496 H2486 0.930 . S
C2496 C2495 1.400 . S
C2496 C2499 1.386 . S
H2497 C2513 0.930 . S
H2498 C2514 0.931 . S
C2499 H2487 0.929 . S
C2499 C2493 1.390 . S
C2499 C2496 1.386 . S
C2500 C2495 1.490 . S
C2500 C2502 1.395 . S
C2500 C2503 1.403 . S
H2501 C2507 0.930 . S
C2502 H2488 0.930 . S
C2502 C2500 1.395 . S
C2502 C2505 1.403 . S
C2503 C2500 1.403 . S
C2503 C2504 1.524 . S
C2503 C2507 1.400 . S
C2504 H2489 0.960 . S
C2504 H2490 0.960 . S
C2504 H2491 0.960 . S
C2504 C2503 1.524 . S
C2505 C2502 1.403 . S
C2505 C2506 1.392 . S
C2505 C2509 1.495 . S
C2506 C2505 1.392 . S
C2506 C2507 1.385 . S
C2506 C2508 1.478 . S
C2507 H2501 0.930 . S
C2507 C2503 1.400 . S
C2507 C2506 1.385 . S
C2508 C2506 1.478 . S
C2508 C2510 1.381 . S
C2508 C2514 1.383 . S
C2509 C2505 1.495 . S
C2509 H2515 0.959 . S
C2509 H2516 0.961 . S
C2509 H2517 0.960 . S
C2510 C2508 1.381 . S
C2510 C2511 1.394 . S
C2510 H2518 0.930 . S
C2511 C2510 1.394 . S
C2511 C2512 1.383 . S
C2511 H2519 0.929 . S
C2512 C2511 1.383 . S
C2512 C2513 1.377 . S
C2513 H2497 0.930 . S
C2513 C2512 1.377 . S
C2513 C2514 1.379 . S
C2514 H2498 0.931 . S
C2514 C2508 1.383 . S
C2514 C2513 1.379 . S
H2515 C2509 0.959 . S
H2516 C2509 0.961 . S
H2517 C2509 0.960 . S
H2518 C2510 0.930 . S
H2519 C2511 0.929 . S
H2520 C2528 0.929 . S
H2521 C2530 0.930 . S
H2522 C2532 0.930 . S
H2523 C2535 0.929 . S
H2524 C2538 0.930 . S
H2525 C2540 0.960 . S
H2526 C2540 0.960 . S
H2527 C2540 0.960 . S
C2528 H2520 0.929 . S
C2528 C2529 1.377 . S
C2528 C2530 1.384 . S
C2529 C2528 1.377 . S
C2529 C2535 1.390 . S
C2530 H2521 0.930 . S
C2530 C2528 1.384 . S
C2530 C2531 1.372 . S
C2531 C2530 1.372 . S
C2531 C2532 1.400 . S
C2531 C2536 1.490 . S
C2532 H2522 0.930 . S
C2532 C2531 1.400 . S
C2532 C2535 1.386 . S
H2533 C2549 0.930 . S
H2534 C2550 0.931 . S
C2535 H2523 0.929 . S
C2535 C2529 1.390 . S
C2535 C2532 1.386 . S
C2536 C2531 1.490 . S
C2536 C2538 1.395 . S
C2536 C2539 1.403 . S
H2537 C2543 0.930 . S
C2538 H2524 0.930 . S
C2538 C2536 1.395 . S
C2538 C2541 1.403 . S
C2539 C2536 1.403 . S
C2539 C2540 1.524 . S
C2539 C2543 1.400 . S
C2540 H2525 0.960 . S
C2540 H2526 0.960 . S
C2540 H2527 0.960 . S
C2540 C2539 1.524 . S
C2541 C2538 1.403 . S
C2541 C2542 1.392 . S
C2541 C2545 1.495 . S
C2542 C2541 1.392 . S
C2542 C2543 1.385 . S
C2542 C2544 1.478 . S
C2543 H2537 0.930 . S
C2543 C2539 1.400 . S
C2543 C2542 1.385 . S
C2544 C2542 1.478 . S
C2544 C2546 1.381 . S
C2544 C2550 1.383 . S
C2545 C2541 1.495 . S
C2545 H2551 0.959 . S
C2545 H2552 0.961 . S
C2545 H2553 0.960 . S
C2546 C2544 1.381 . S
C2546 C2547 1.394 . S
C2546 H2554 0.930 . S
C2547 C2546 1.394 . S
C2547 C2548 1.383 . S
C2547 H2555 0.929 . S
C2548 C2547 1.383 . S
C2548 C2549 1.377 . S
C2549 H2533 0.930 . S
C2549 C2548 1.377 . S
C2549 C2550 1.379 . S
C2550 H2534 0.931 . S
C2550 C2544 1.383 . S
C2550 C2549 1.379 . S
H2551 C2545 0.959 . S
H2552 C2545 0.961 . S
H2553 C2545 0.960 . S
H2554 C2546 0.930 . S
H2555 C2547 0.929 . S
H2556 C2564 0.929 . S
H2557 C2566 0.930 . S
H2558 C2568 0.930 . S
H2559 C2571 0.929 . S
H2560 C2574 0.930 . S
H2561 C2576 0.960 . S
H2562 C2576 0.960 . S
H2563 C2576 0.960 . S
C2564 H2556 0.929 . S
C2564 C2565 1.377 . S
C2564 C2566 1.384 . S
C2565 C2564 1.377 . S
C2565 C2571 1.390 . S
C2566 H2557 0.930 . S
C2566 C2564 1.384 . S
C2566 C2567 1.372 . S
C2567 C2566 1.372 . S
C2567 C2568 1.400 . S
C2567 C2572 1.490 . S
C2568 H2558 0.930 . S
C2568 C2567 1.400 . S
C2568 C2571 1.386 . S
H2569 C2585 0.930 . S
H2570 C2586 0.931 . S
C2571 H2559 0.929 . S
C2571 C2565 1.390 . S
C2571 C2568 1.386 . S
C2572 C2567 1.490 . S
C2572 C2574 1.395 . S
C2572 C2575 1.403 . S
H2573 C2579 0.930 . S
C2574 H2560 0.930 . S
C2574 C2572 1.395 . S
C2574 C2577 1.403 . S
C2575 C2572 1.403 . S
C2575 C2576 1.524 . S
C2575 C2579 1.400 . S
C2576 H2561 0.960 . S
C2576 H2562 0.960 . S
C2576 H2563 0.960 . S
C2576 C2575 1.524 . S
C2577 C2574 1.403 . S
C2577 C2578 1.392 . S
C2577 C2581 1.495 . S
C2578 C2577 1.392 . S
C2578 C2579 1.385 . S
C2578 C2580 1.478 . S
C2579 H2573 0.930 . S
C2579 C2575 1.400 . S
C2579 C2578 1.385 . S
C2580 C2578 1.478 . S
C2580 C2582 1.381 . S
C2580 C2586 1.383 . S
C2581 C2577 1.495 . S
C2581 H2587 0.959 . S
C2581 H2588 0.961 . S
C2581 H2589 0.960 . S
C2582 C2580 1.381 . S
C2582 C2583 1.394 . S
C2582 H2590 0.930 . S
C2583 C2582 1.394 . S
C2583 C2584 1.383 . S
C2583 H2591 0.929 . S
C2584 C2583 1.383 . S
C2584 C2585 1.377 . S
C2585 H2569 0.930 . S
C2585 C2584 1.377 . S
C2585 C2586 1.379 . S
C2586 H2570 0.931 . S
C2586 C2580 1.383 . S
C2586 C2585 1.379 . S
H2587 C2581 0.959 . S
H2588 C2581 0.961 . S
H2589 C2581 0.960 . S
H2590 C2582 0.930 . S
H2591 C2583 0.929 . S
H2592 C2600 0.929 . S
H2593 C2602 0.930 . S
H2594 C2604 0.930 . S
H2595 C2607 0.929 . S
H2596 C2610 0.930 . S
H2597 C2612 0.960 . S
H2598 C2612 0.960 . S
H2599 C2612 0.960 . S
C2600 H2592 0.929 . S
C2600 C2601 1.377 . S
C2600 C2602 1.384 . S
C2601 C2600 1.377 . S
C2601 C2607 1.390 . S
C2602 H2593 0.930 . S
C2602 C2600 1.384 . S
C2602 C2603 1.372 . S
C2603 C2602 1.372 . S
C2603 C2604 1.400 . S
C2603 C2608 1.490 . S
C2604 H2594 0.930 . S
C2604 C2603 1.400 . S
C2604 C2607 1.386 . S
H2605 C2621 0.930 . S
H2606 C2622 0.931 . S
C2607 H2595 0.929 . S
C2607 C2601 1.390 . S
C2607 C2604 1.386 . S
C2608 C2603 1.490 . S
C2608 C2610 1.395 . S
C2608 C2611 1.403 . S
H2609 C2615 0.930 . S
C2610 H2596 0.930 . S
C2610 C2608 1.395 . S
C2610 C2613 1.403 . S
C2611 C2608 1.403 . S
C2611 C2612 1.524 . S
C2611 C2615 1.400 . S
C2612 H2597 0.960 . S
C2612 H2598 0.960 . S
C2612 H2599 0.960 . S
C2612 C2611 1.524 . S
C2613 C2610 1.403 . S
C2613 C2614 1.392 . S
C2613 C2617 1.495 . S
C2614 C2613 1.392 . S
C2614 C2615 1.385 . S
C2614 C2616 1.478 . S
C2615 H2609 0.930 . S
C2615 C2611 1.400 . S
C2615 C2614 1.385 . S
C2616 C2614 1.478 . S
C2616 C2618 1.381 . S
C2616 C2622 1.383 . S
C2617 C2613 1.495 . S
C2617 H2623 0.959 . S
C2617 H2624 0.961 . S
C2617 H2625 0.960 . S
C2618 C2616 1.381 . S
C2618 C2619 1.394 . S
C2618 H2626 0.930 . S
C2619 C2618 1.394 . S
C2619 C2620 1.383 . S
C2619 H2627 0.929 . S
C2620 C2619 1.383 . S
C2620 C2621 1.377 . S
C2621 H2605 0.930 . S
C2621 C2620 1.377 . S
C2621 C2622 1.379 . S
C2622 H2606 0.931 . S
C2622 C2616 1.383 . S
C2622 C2621 1.379 . S
H2623 C2617 0.959 . S
H2624 C2617 0.961 . S
H2625 C2617 0.960 . S
H2626 C2618 0.930 . S
H2627 C2619 0.929 . S
H2628 C2636 0.929 . S
H2629 C2638 0.930 . S
H2630 C2640 0.930 . S
H2631 C2643 0.929 . S
H2632 C2646 0.930 . S
H2633 C2648 0.960 . S
H2634 C2648 0.960 . S
H2635 C2648 0.960 . S
C2636 H2628 0.929 . S
C2636 C2637 1.377 . S
C2636 C2638 1.384 . S
C2637 C2636 1.377 . S
C2637 C2643 1.390 . S
C2638 H2629 0.930 . S
C2638 C2636 1.384 . S
C2638 C2639 1.372 . S
C2639 C2638 1.372 . S
C2639 C2640 1.400 . S
C2639 C2644 1.490 . S
C2640 H2630 0.930 . S
C2640 C2639 1.400 . S
C2640 C2643 1.386 . S
H2641 C2657 0.930 . S
H2642 C2658 0.931 . S
C2643 H2631 0.929 . S
C2643 C2637 1.390 . S
C2643 C2640 1.386 . S
C2644 C2639 1.490 . S
C2644 C2646 1.395 . S
C2644 C2647 1.403 . S
H2645 C2651 0.930 . S
C2646 H2632 0.930 . S
C2646 C2644 1.395 . S
C2646 C2649 1.403 . S
C2647 C2644 1.403 . S
C2647 C2648 1.524 . S
C2647 C2651 1.400 . S
C2648 H2633 0.960 . S
C2648 H2634 0.960 . S
C2648 H2635 0.960 . S
C2648 C2647 1.524 . S
C2649 C2646 1.403 . S
C2649 C2650 1.392 . S
C2649 C2653 1.495 . S
C2650 C2649 1.392 . S
C2650 C2651 1.385 . S
C2650 C2652 1.478 . S
C2651 H2645 0.930 . S
C2651 C2647 1.400 . S
C2651 C2650 1.385 . S
C2652 C2650 1.478 . S
C2652 C2654 1.381 . S
C2652 C2658 1.383 . S
C2653 C2649 1.495 . S
C2653 H2659 0.959 . S
C2653 H2660 0.961 . S
C2653 H2661 0.960 . S
C2654 C2652 1.381 . S
C2654 C2655 1.394 . S
C2654 H2662 0.930 . S
C2655 C2654 1.394 . S
C2655 C2656 1.383 . S
C2655 H2663 0.929 . S
C2656 C2655 1.383 . S
C2656 C2657 1.377 . S
C2657 H2641 0.930 . S
C2657 C2656 1.377 . S
C2657 C2658 1.379 . S
C2658 H2642 0.931 . S
C2658 C2652 1.383 . S
C2658 C2657 1.379 . S
H2659 C2653 0.959 . S
H2660 C2653 0.961 . S
H2661 C2653 0.960 . S
H2662 C2654 0.930 . S
H2663 C2655 0.929 . S
H2664 C2672 0.929 . S
H2665 C2674 0.930 . S
H2666 C2676 0.930 . S
H2667 C2679 0.929 . S
H2668 C2682 0.930 . S
H2669 C2684 0.960 . S
H2670 C2684 0.960 . S
H2671 C2684 0.960 . S
C2672 H2664 0.929 . S
C2672 C2673 1.377 . S
C2672 C2674 1.384 . S
C2673 C2672 1.377 . S
C2673 C2679 1.390 . S
C2674 H2665 0.930 . S
C2674 C2672 1.384 . S
C2674 C2675 1.372 . S
C2675 C2674 1.372 . S
C2675 C2676 1.400 . S
C2675 C2680 1.490 . S
C2676 H2666 0.930 . S
C2676 C2675 1.400 . S
C2676 C2679 1.386 . S
H2677 C2693 0.930 . S
H2678 C2694 0.931 . S
C2679 H2667 0.929 . S
C2679 C2673 1.390 . S
C2679 C2676 1.386 . S
C2680 C2675 1.490 . S
C2680 C2682 1.395 . S
C2680 C2683 1.403 . S
H2681 C2687 0.930 . S
C2682 H2668 0.930 . S
C2682 C2680 1.395 . S
C2682 C2685 1.403 . S
C2683 C2680 1.403 . S
C2683 C2684 1.524 . S
C2683 C2687 1.400 . S
C2684 H2669 0.960 . S
C2684 H2670 0.960 . S
C2684 H2671 0.960 . S
C2684 C2683 1.524 . S
C2685 C2682 1.403 . S
C2685 C2686 1.392 . S
C2685 C2689 1.495 . S
C2686 C2685 1.392 . S
C2686 C2687 1.385 . S
C2686 C2688 1.478 . S
C2687 H2681 0.930 . S
C2687 C2683 1.400 . S
C2687 C2686 1.385 . S
C2688 C2686 1.478 . S
C2688 C2690 1.381 . S
C2688 C2694 1.383 . S
C2689 C2685 1.495 . S
C2689 H2695 0.959 . S
C2689 H2696 0.961 . S
C2689 H2697 0.960 . S
C2690 C2688 1.381 . S
C2690 C2691 1.394 . S
C2690 H2698 0.930 . S
C2691 C2690 1.394 . S
C2691 C2692 1.383 . S
C2691 H2699 0.929 . S
C2692 C2691 1.383 . S
C2692 C2693 1.377 . S
C2693 H2677 0.930 . S
C2693 C2692 1.377 . S
C2693 C2694 1.379 . S
C2694 H2678 0.931 . S
C2694 C2688 1.383 . S
C2694 C2693 1.379 . S
H2695 C2689 0.959 . S
H2696 C2689 0.961 . S
H2697 C2689 0.960 . S
H2698 C2690 0.930 . S
H2699 C2691 0.929 . S
H2700 C2708 0.929 . S
H2701 C2710 0.930 . S
H2702 C2712 0.930 . S
H2703 C2715 0.929 . S
H2704 C2718 0.930 . S
H2705 C2720 0.960 . S
H2706 C2720 0.960 . S
H2707 C2720 0.960 . S
C2708 H2700 0.929 . S
C2708 C2709 1.377 . S
C2708 C2710 1.384 . S
C2709 C2708 1.377 . S
C2709 C2715 1.390 . S
C2710 H2701 0.930 . S
C2710 C2708 1.384 . S
C2710 C2711 1.372 . S
C2711 C2710 1.372 . S
C2711 C2712 1.400 . S
C2711 C2716 1.490 . S
C2712 H2702 0.930 . S
C2712 C2711 1.400 . S
C2712 C2715 1.386 . S
H2713 C2729 0.930 . S
H2714 C2730 0.931 . S
C2715 H2703 0.929 . S
C2715 C2709 1.390 . S
C2715 C2712 1.386 . S
C2716 C2711 1.490 . S
C2716 C2718 1.395 . S
C2716 C2719 1.403 . S
H2717 C2723 0.930 . S
C2718 H2704 0.930 . S
C2718 C2716 1.395 . S
C2718 C2721 1.403 . S
C2719 C2716 1.403 . S
C2719 C2720 1.524 . S
C2719 C2723 1.400 . S
C2720 H2705 0.960 . S
C2720 H2706 0.960 . S
C2720 H2707 0.960 . S
C2720 C2719 1.524 . S
C2721 C2718 1.403 . S
C2721 C2722 1.392 . S
C2721 C2725 1.495 . S
C2722 C2721 1.392 . S
C2722 C2723 1.385 . S
C2722 C2724 1.478 . S
C2723 H2717 0.930 . S
C2723 C2719 1.400 . S
C2723 C2722 1.385 . S
C2724 C2722 1.478 . S
C2724 C2726 1.381 . S
C2724 C2730 1.383 . S
C2725 C2721 1.495 . S
C2725 H2731 0.959 . S
C2725 H2732 0.961 . S
C2725 H2733 0.960 . S
C2726 C2724 1.381 . S
C2726 C2727 1.394 . S
C2726 H2734 0.930 . S
C2727 C2726 1.394 . S
C2727 C2728 1.383 . S
C2727 H2735 0.929 . S
C2728 C2727 1.383 . S
C2728 C2729 1.377 . S
C2729 H2713 0.930 . S
C2729 C2728 1.377 . S
C2729 C2730 1.379 . S
C2730 H2714 0.931 . S
C2730 C2724 1.383 . S
C2730 C2729 1.379 . S
H2731 C2725 0.959 . S
H2732 C2725 0.961 . S
H2733 C2725 0.960 . S
H2734 C2726 0.930 . S
H2735 C2727 0.929 . S
H2736 C2744 0.929 . S
H2737 C2746 0.930 . S
H2738 C2748 0.930 . S
H2739 C2751 0.929 . S
H2740 C2754 0.930 . S
H2741 C2756 0.960 . S
H2742 C2756 0.960 . S
H2743 C2756 0.960 . S
C2744 H2736 0.929 . S
C2744 C2745 1.377 . S
C2744 C2746 1.384 . S
C2745 C2744 1.377 . S
C2745 C2751 1.390 . S
C2746 H2737 0.930 . S
C2746 C2744 1.384 . S
C2746 C2747 1.372 . S
C2747 C2746 1.372 . S
C2747 C2748 1.400 . S
C2747 C2752 1.490 . S
C2748 H2738 0.930 . S
C2748 C2747 1.400 . S
C2748 C2751 1.386 . S
H2749 C2765 0.930 . S
H2750 C2766 0.931 . S
C2751 H2739 0.929 . S
C2751 C2745 1.390 . S
C2751 C2748 1.386 . S
C2752 C2747 1.490 . S
C2752 C2754 1.395 . S
C2752 C2755 1.403 . S
H2753 C2759 0.930 . S
C2754 H2740 0.930 . S
C2754 C2752 1.395 . S
C2754 C2757 1.403 . S
C2755 C2752 1.403 . S
C2755 C2756 1.524 . S
C2755 C2759 1.400 . S
C2756 H2741 0.960 . S
C2756 H2742 0.960 . S
C2756 H2743 0.960 . S
C2756 C2755 1.524 . S
C2757 C2754 1.403 . S
C2757 C2758 1.392 . S
C2757 C2761 1.495 . S
C2758 C2757 1.392 . S
C2758 C2759 1.385 . S
C2758 C2760 1.478 . S
C2759 H2753 0.930 . S
C2759 C2755 1.400 . S
C2759 C2758 1.385 . S
C2760 C2758 1.478 . S
C2760 C2762 1.381 . S
C2760 C2766 1.383 . S
C2761 C2757 1.495 . S
C2761 H2767 0.959 . S
C2761 H2768 0.961 . S
C2761 H2769 0.960 . S
C2762 C2760 1.381 . S
C2762 C2763 1.394 . S
C2762 H2770 0.930 . S
C2763 C2762 1.394 . S
C2763 C2764 1.383 . S
C2763 H2771 0.929 . S
C2764 C2763 1.383 . S
C2764 C2765 1.377 . S
C2765 H2749 0.930 . S
C2765 C2764 1.377 . S
C2765 C2766 1.379 . S
C2766 H2750 0.931 . S
C2766 C2760 1.383 . S
C2766 C2765 1.379 . S
H2767 C2761 0.959 . S
H2768 C2761 0.961 . S
H2769 C2761 0.960 . S
H2770 C2762 0.930 . S
H2771 C2763 0.929 . S
H2772 C2780 0.929 . S
H2773 C2782 0.930 . S
H2774 C2784 0.930 . S
H2775 C2787 0.929 . S
H2776 C2790 0.930 . S
H2777 C2792 0.960 . S
H2778 C2792 0.960 . S
H2779 C2792 0.960 . S
C2780 H2772 0.929 . S
C2780 C2781 1.377 . S
C2780 C2782 1.384 . S
C2781 C2780 1.377 . S
C2781 C2787 1.390 . S
C2782 H2773 0.930 . S
C2782 C2780 1.384 . S
C2782 C2783 1.372 . S
C2783 C2782 1.372 . S
C2783 C2784 1.400 . S
C2783 C2788 1.490 . S
C2784 H2774 0.930 . S
C2784 C2783 1.400 . S
C2784 C2787 1.386 . S
H2785 C2801 0.930 . S
H2786 C2802 0.931 . S
C2787 H2775 0.929 . S
C2787 C2781 1.390 . S
C2787 C2784 1.386 . S
C2788 C2783 1.490 . S
C2788 C2790 1.395 . S
C2788 C2791 1.403 . S
H2789 C2795 0.930 . S
C2790 H2776 0.930 . S
C2790 C2788 1.395 . S
C2790 C2793 1.403 . S
C2791 C2788 1.403 . S
C2791 C2792 1.524 . S
C2791 C2795 1.400 . S
C2792 H2777 0.960 . S
C2792 H2778 0.960 . S
C2792 H2779 0.960 . S
C2792 C2791 1.524 . S
C2793 C2790 1.403 . S
C2793 C2794 1.392 . S
C2793 C2797 1.495 . S
C2794 C2793 1.392 . S
C2794 C2795 1.385 . S
C2794 C2796 1.478 . S
C2795 H2789 0.930 . S
C2795 C2791 1.400 . S
C2795 C2794 1.385 . S
C2796 C2794 1.478 . S
C2796 C2798 1.381 . S
C2796 C2802 1.383 . S
C2797 C2793 1.495 . S
C2797 H2803 0.959 . S
C2797 H2804 0.961 . S
C2797 H2805 0.960 . S
C2798 C2796 1.381 . S
C2798 C2799 1.394 . S
C2798 H2806 0.930 . S
C2799 C2798 1.394 . S
C2799 C2800 1.383 . S
C2799 H2807 0.929 . S
C2800 C2799 1.383 . S
C2800 C2801 1.377 . S
C2801 H2785 0.930 . S
C2801 C2800 1.377 . S
C2801 C2802 1.379 . S
C2802 H2786 0.931 . S
C2802 C2796 1.383 . S
C2802 C2801 1.379 . S
H2803 C2797 0.959 . S
H2804 C2797 0.961 . S
H2805 C2797 0.960 . S
H2806 C2798 0.930 . S
H2807 C2799 0.929 . S
H2808 C2816 0.929 . S
H2809 C2818 0.930 . S
H2810 C2820 0.930 . S
H2811 C2823 0.929 . S
H2812 C2826 0.930 . S
H2813 C2828 0.960 . S
H2814 C2828 0.960 . S
H2815 C2828 0.960 . S
C2816 H2808 0.929 . S
C2816 C2817 1.377 . S
C2816 C2818 1.384 . S
C2817 C2816 1.377 . S
C2817 C2823 1.390 . S
C2818 H2809 0.930 . S
C2818 C2816 1.384 . S
C2818 C2819 1.372 . S
C2819 C2818 1.372 . S
C2819 C2820 1.400 . S
C2819 C2824 1.490 . S
C2820 H2810 0.930 . S
C2820 C2819 1.400 . S
C2820 C2823 1.386 . S
H2821 C2837 0.930 . S
H2822 C2838 0.931 . S
C2823 H2811 0.929 . S
C2823 C2817 1.390 . S
C2823 C2820 1.386 . S
C2824 C2819 1.490 . S
C2824 C2826 1.395 . S
C2824 C2827 1.403 . S
H2825 C2831 0.930 . S
C2826 H2812 0.930 . S
C2826 C2824 1.395 . S
C2826 C2829 1.403 . S
C2827 C2824 1.403 . S
C2827 C2828 1.524 . S
C2827 C2831 1.400 . S
C2828 H2813 0.960 . S
C2828 H2814 0.960 . S
C2828 H2815 0.960 . S
C2828 C2827 1.524 . S
C2829 C2826 1.403 . S
C2829 C2830 1.392 . S
C2829 C2833 1.495 . S
C2830 C2829 1.392 . S
C2830 C2831 1.385 . S
C2830 C2832 1.478 . S
C2831 H2825 0.930 . S
C2831 C2827 1.400 . S
C2831 C2830 1.385 . S
C2832 C2830 1.478 . S
C2832 C2834 1.381 . S
C2832 C2838 1.383 . S
C2833 C2829 1.495 . S
C2833 H2839 0.959 . S
C2833 H2840 0.961 . S
C2833 H2841 0.960 . S
C2834 C2832 1.381 . S
C2834 C2835 1.394 . S
C2834 H2842 0.930 . S
C2835 C2834 1.394 . S
C2835 C2836 1.383 . S
C2835 H2843 0.929 . S
C2836 C2835 1.383 . S
C2836 C2837 1.377 . S
C2837 H2821 0.930 . S
C2837 C2836 1.377 . S
C2837 C2838 1.379 . S
C2838 H2822 0.931 . S
C2838 C2832 1.383 . S
C2838 C2837 1.379 . S
H2839 C2833 0.959 . S
H2840 C2833 0.961 . S
H2841 C2833 0.960 . S
H2842 C2834 0.930 . S
H2843 C2835 0.929 . S
H2844 C2852 0.929 . S
H2845 C2854 0.930 . S
H2846 C2856 0.930 . S
H2847 C2859 0.929 . S
H2848 C2862 0.930 . S
H2849 C2864 0.960 . S
H2850 C2864 0.960 . S
H2851 C2864 0.960 . S
C2852 H2844 0.929 . S
C2852 C2853 1.377 . S
C2852 C2854 1.384 . S
C2853 C2852 1.377 . S
C2853 C2859 1.390 . S
C2854 H2845 0.930 . S
C2854 C2852 1.384 . S
C2854 C2855 1.372 . S
C2855 C2854 1.372 . S
C2855 C2856 1.400 . S
C2855 C2860 1.490 . S
C2856 H2846 0.930 . S
C2856 C2855 1.400 . S
C2856 C2859 1.386 . S
H2857 C2873 0.930 . S
H2858 C2874 0.931 . S
C2859 H2847 0.929 . S
C2859 C2853 1.390 . S
C2859 C2856 1.386 . S
C2860 C2855 1.490 . S
C2860 C2862 1.395 . S
C2860 C2863 1.403 . S
H2861 C2867 0.930 . S
C2862 H2848 0.930 . S
C2862 C2860 1.395 . S
C2862 C2865 1.403 . S
C2863 C2860 1.403 . S
C2863 C2864 1.524 . S
C2863 C2867 1.400 . S
C2864 H2849 0.960 . S
C2864 H2850 0.960 . S
C2864 H2851 0.960 . S
C2864 C2863 1.524 . S
C2865 C2862 1.403 . S
C2865 C2866 1.392 . S
C2865 C2869 1.495 . S
C2866 C2865 1.392 . S
C2866 C2867 1.385 . S
C2866 C2868 1.478 . S
C2867 H2861 0.930 . S
C2867 C2863 1.400 . S
C2867 C2866 1.385 . S
C2868 C2866 1.478 . S
C2868 C2870 1.381 . S
C2868 C2874 1.383 . S
C2869 C2865 1.495 . S
C2869 H2875 0.959 . S
C2869 H2876 0.961 . S
C2869 H2877 0.960 . S
C2870 C2868 1.381 . S
C2870 C2871 1.394 . S
C2870 H2878 0.930 . S
C2871 C2870 1.394 . S
C2871 C2872 1.383 . S
C2871 H2879 0.929 . S
C2872 C2871 1.383 . S
C2872 C2873 1.377 . S
C2873 H2857 0.930 . S
C2873 C2872 1.377 . S
C2873 C2874 1.379 . S
C2874 H2858 0.931 . S
C2874 C2868 1.383 . S
C2874 C2873 1.379 . S
H2875 C2869 0.959 . S
H2876 C2869 0.961 . S
H2877 C2869 0.960 . S
H2878 C2870 0.930 . S
H2879 C2871 0.929 . S
H2880 C2888 0.929 . S
H2881 C2890 0.930 . S
H2882 C2892 0.930 . S
H2883 C2895 0.929 . S
H2884 C2898 0.930 . S
H2885 C2900 0.960 . S
H2886 C2900 0.960 . S
H2887 C2900 0.960 1_455 S
C2888 H2880 0.929 . S
C2888 C2889 1.377 . S
C2888 C2890 1.384 . S
C2889 C2888 1.377 . S
C2889 C2895 1.390 . S
C2890 H2881 0.930 . S
C2890 C2888 1.384 . S
C2890 C2891 1.372 . S
C2891 C2890 1.372 . S
C2891 C2892 1.400 . S
C2891 C2896 1.490 . S
C2892 H2882 0.930 . S
C2892 C2891 1.400 . S
C2892 C2895 1.386 . S
H2893 C2909 0.930 . S
H2894 C2910 0.931 . S
C2895 H2883 0.929 . S
C2895 C2889 1.390 . S
C2895 C2892 1.386 . S
C2896 C2891 1.490 . S
C2896 C2898 1.395 . S
C2896 C2899 1.403 1_455 S
H2897 C2903 0.930 . S
C2898 H2884 0.930 . S
C2898 C2896 1.395 . S
C2898 C2901 1.403 1_556 S
C2899 C2896 1.403 1_655 S
C2899 C2900 1.524 . S
C2899 C2903 1.400 1_556 S
C2900 H2885 0.960 . S
C2900 H2886 0.960 . S
C2900 H2887 0.960 1_655 S
C2900 C2899 1.524 . S
C2901 C2898 1.403 1_554 S
C2901 C2902 1.392 1_455 S
C2901 C2905 1.495 . S
C2902 C2901 1.392 1_655 S
C2902 C2903 1.385 . S
C2902 C2904 1.478 . S
C2903 H2897 0.930 . S
C2903 C2899 1.400 1_554 S
C2903 C2902 1.385 . S
C2904 C2902 1.478 . S
C2904 C2906 1.381 . S
C2904 C2910 1.383 . S
C2905 C2901 1.495 . S
C2905 H2911 0.959 . S
C2905 H2912 0.961 . S
C2905 H2913 0.960 1_455 S
C2906 C2904 1.381 . S
C2906 C2907 1.394 . S
C2906 H2914 0.930 . S
C2907 C2906 1.394 . S
C2907 C2908 1.383 . S
C2907 H2915 0.929 . S
C2908 C2907 1.383 . S
C2908 C2909 1.377 . S
C2909 H2893 0.930 . S
C2909 C2908 1.377 . S
C2909 C2910 1.379 . S
C2910 H2894 0.931 . S
C2910 C2904 1.383 . S
C2910 C2909 1.379 . S
H2911 C2905 0.959 . S
H2912 C2905 0.961 . S
H2913 C2905 0.960 1_655 S
H2914 C2906 0.930 . S
H2915 C2907 0.929 . S
H2916 C2924 0.929 . S
H2917 C2926 0.930 . S
H2918 C2928 0.930 . S
H2919 C2931 0.929 . S
H2920 C2934 0.930 . S
H2921 C2936 0.960 . S
H2922 C2936 0.960 . S
H2923 C2936 0.960 . S
C2924 H2916 0.929 . S
C2924 C2925 1.377 . S
C2924 C2926 1.384 . S
C2925 C2924 1.377 . S
C2925 C2931 1.390 . S
C2926 H2917 0.930 . S
C2926 C2924 1.384 . S
C2926 C2927 1.372 . S
C2927 C2926 1.372 . S
C2927 C2928 1.400 . S
C2927 C2932 1.490 . S
C2928 H2918 0.930 . S
C2928 C2927 1.400 . S
C2928 C2931 1.386 . S
H2929 C2945 0.930 . S
H2930 C2946 0.931 . S
C2931 H2919 0.929 . S
C2931 C2925 1.390 . S
C2931 C2928 1.386 . S
C2932 C2927 1.490 . S
C2932 C2934 1.395 . S
C2932 C2935 1.403 1_554 S
H2933 C2939 0.930 . S
C2934 H2920 0.930 . S
C2934 C2932 1.395 . S
C2934 C2937 1.403 . S
C2935 C2932 1.403 1_556 S
C2935 C2936 1.524 . S
C2935 C2939 1.400 . S
C2936 H2921 0.960 . S
C2936 H2922 0.960 . S
C2936 H2923 0.960 . S
C2936 C2935 1.524 . S
C2937 C2934 1.403 . S
C2937 C2938 1.392 1_554 S
C2937 C2941 1.495 . S
C2938 C2937 1.392 1_556 S
C2938 C2939 1.385 . S
C2938 C2940 1.478 . S
C2939 H2933 0.930 . S
C2939 C2935 1.400 . S
C2939 C2938 1.385 . S
C2940 C2938 1.478 . S
C2940 C2942 1.381 . S
C2940 C2946 1.383 . S
C2941 C2937 1.495 . S
C2941 H2947 0.959 . S
C2941 H2948 0.961 . S
C2941 H2949 0.960 . S
C2942 C2940 1.381 . S
C2942 C2943 1.394 . S
C2942 H2950 0.930 . S
C2943 C2942 1.394 . S
C2943 C2944 1.383 . S
C2943 H2951 0.929 . S
C2944 C2943 1.383 . S
C2944 C2945 1.377 . S
C2945 H2929 0.930 . S
C2945 C2944 1.377 . S
C2945 C2946 1.379 . S
C2946 H2930 0.931 . S
C2946 C2940 1.383 . S
C2946 C2945 1.379 . S
H2947 C2941 0.959 . S
H2948 C2941 0.961 . S
H2949 C2941 0.960 . S
H2950 C2942 0.930 . S
H2951 C2943 0.929 . S
H2952 C2960 0.929 . S
H2953 C2962 0.930 . S
H2954 C2964 0.930 . S
H2955 C2967 0.929 . S
H2956 C2970 0.930 . S
H2957 C2972 0.960 . S
H2958 C2972 0.954 1_554 S
H2959 C2972 0.960 . S
C2960 H2952 0.929 . S
C2960 C2961 1.377 . S
C2960 C2962 1.384 . S
C2961 C2960 1.377 . S
C2961 C2967 1.390 . S
C2962 H2953 0.930 . S
C2962 C2960 1.384 . S
C2962 C2963 1.372 . S
C2963 C2962 1.372 . S
C2963 C2964 1.400 . S
C2963 C2968 1.490 . S
C2964 H2954 0.930 . S
C2964 C2963 1.400 . S
C2964 C2967 1.386 . S
H2965 C2981 0.930 . S
H2966 C2982 0.931 . S
C2967 H2955 0.929 . S
C2967 C2961 1.390 . S
C2967 C2964 1.386 . S
C2968 C2963 1.490 . S
C2968 C2970 1.395 1_545 S
C2968 C2971 1.403 1_554 S
H2969 C2975 0.930 . S
C2970 H2956 0.930 . S
C2970 C2968 1.395 1_565 S
C2970 C2973 1.403 . S
C2971 C2968 1.403 1_556 S
C2971 C2972 1.524 . S
C2971 C2975 1.400 . S
C2972 H2957 0.960 . S
C2972 H2958 0.954 1_556 S
C2972 H2959 0.960 . S
C2972 C2971 1.524 . S
C2973 C2970 1.403 . S
C2973 C2974 1.392 1_554 S
C2973 C2977 1.495 . S
C2974 C2973 1.392 1_556 S
C2974 C2975 1.385 1_565 S
C2974 C2976 1.478 . S
C2975 H2969 0.930 . S
C2975 C2971 1.400 . S
C2975 C2974 1.385 1_545 S
C2976 C2974 1.478 . S
C2976 C2978 1.381 . S
C2976 C2982 1.383 . S
C2977 C2973 1.495 . S
C2977 H2983 0.959 . S
C2977 H2984 0.961 . S
C2977 H2985 0.960 . S
C2978 C2976 1.381 . S
C2978 C2979 1.394 . S
C2978 H2986 0.930 . S
C2979 C2978 1.394 . S
C2979 C2980 1.383 . S
C2979 H2987 0.929 . S
C2980 C2979 1.383 . S
C2980 C2981 1.377 . S
C2981 H2965 0.930 . S
C2981 C2980 1.377 . S
C2981 C2982 1.379 . S
C2982 H2966 0.931 . S
C2982 C2976 1.383 . S
C2982 C2981 1.379 . S
H2983 C2977 0.959 . S
H2984 C2977 0.961 . S
H2985 C2977 0.960 . S
H2986 C2978 0.930 . S
H2987 C2979 0.929 . S
H2988 C2996 0.929 . S
H2989 C2998 0.930 . S
H2990 C3000 0.930 . S
H2991 C3003 0.929 . S
H2992 C3006 0.930 . S
H2993 C3008 0.960 . S
H2994 C3008 0.960 . S
H2995 C3008 0.960 . S
C2996 H2988 0.929 . S
C2996 C2997 1.377 . S
C2996 C2998 1.384 . S
C2997 C2996 1.377 . S
C2997 C3003 1.390 . S
C2998 H2989 0.930 . S
C2998 C2996 1.384 . S
C2998 C2999 1.372 . S
C2999 C2998 1.372 . S
C2999 C3000 1.400 . S
C2999 C3004 1.490 . S
C3000 H2990 0.930 . S
C3000 C2999 1.400 . S
C3000 C3003 1.386 . S
H3001 C3017 0.930 . S
H3002 C3018 0.931 . S
C3003 H2991 0.929 . S
C3003 C2997 1.390 . S
C3003 C3000 1.386 . S
C3004 C2999 1.490 . S
C3004 C3006 1.395 1_565 S
C3004 C3007 1.403 1_556 S
H3005 C3011 0.930 . S
C3006 H2992 0.930 . S
C3006 C3004 1.395 1_545 S
C3006 C3009 1.403 . S
C3007 C3004 1.403 1_554 S
C3007 C3008 1.524 . S
C3007 C3011 1.400 . S
C3008 H2993 0.960 . S
C3008 H2994 0.960 . S
C3008 H2995 0.960 . S
C3008 C3007 1.524 . S
C3009 C3006 1.403 . S
C3009 C3010 1.392 1_556 S
C3009 C3013 1.495 . S
C3010 C3009 1.392 1_554 S
C3010 C3011 1.385 1_545 S
C3010 C3012 1.478 . S
C3011 H3005 0.930 . S
C3011 C3007 1.400 . S
C3011 C3010 1.385 1_565 S
C3012 C3010 1.478 . S
C3012 C3014 1.381 . S
C3012 C3018 1.383 . S
C3013 C3009 1.495 . S
C3013 H3019 0.959 . S
C3013 H3020 0.961 . S
C3013 H3021 0.960 . S
C3014 C3012 1.381 . S
C3014 C3015 1.394 . S
C3014 H3022 0.930 . S
C3015 C3014 1.394 . S
C3015 C3016 1.383 . S
C3015 H3023 0.929 . S
C3016 C3015 1.383 . S
C3016 C3017 1.377 . S
C3017 H3001 0.930 . S
C3017 C3016 1.377 . S
C3017 C3018 1.379 . S
C3018 H3002 0.931 . S
C3018 C3012 1.383 . S
C3018 C3017 1.379 . S
H3019 C3013 0.959 . S
H3020 C3013 0.961 . S
H3021 C3013 0.960 . S
H3022 C3014 0.930 . S
H3023 C3015 0.929 . S
H3024 C3032 0.929 . S
H3025 C3034 0.930 . S
H3026 C3036 0.930 . S
H3027 C3039 0.929 . S
H3028 C3042 0.930 . S
H3029 C3044 0.960 . S
H3030 C3044 0.960 1_455 S
H3031 C3044 0.960 . S
C3032 H3024 0.929 . S
C3032 C3033 1.377 . S
C3032 C3034 1.384 . S
C3033 C3032 1.377 . S
C3033 C3039 1.390 . S
C3034 H3025 0.930 . S
C3034 C3032 1.384 . S
C3034 C3035 1.372 . S
C3035 C3034 1.372 . S
C3035 C3036 1.400 . S
C3035 C3040 1.490 . S
C3036 H3026 0.930 . S
C3036 C3035 1.400 . S
C3036 C3039 1.386 . S
H3037 C3053 0.930 . S
H3038 C3054 0.931 . S
C3039 H3027 0.929 . S
C3039 C3033 1.390 . S
C3039 C3036 1.386 . S
C3040 C3035 1.490 . S
C3040 C3042 1.395 . S
C3040 C3043 1.387 1_455 S
H3041 C3047 0.930 . S
C3042 H3028 0.930 . S
C3042 C3040 1.395 . S
C3042 C3045 1.403 1_556 S
C3043 C3040 1.387 1_655 S
C3043 C3044 1.506 . S
C3043 C3047 1.438 1_556 S
C3044 H3029 0.960 . S
C3044 H3030 0.960 1_655 S
C3044 H3031 0.960 . S
C3044 C3043 1.506 . S
C3045 C3042 1.403 1_554 S
C3045 C3046 1.392 1_455 S
C3045 C3049 1.495 . S
C3046 C3045 1.392 1_655 S
C3046 C3047 1.385 . S
C3046 C3048 1.478 . S
C3047 H3041 0.930 . S
C3047 C3043 1.438 1_554 S
C3047 C3046 1.385 . S
C3048 C3046 1.478 . S
C3048 C3050 1.381 . S
C3048 C3054 1.383 . S
C3049 C3045 1.495 . S
C3049 H3055 0.959 . S
C3049 H3056 0.961 1_455 S
C3049 H3057 0.960 . S
C3050 C3048 1.381 . S
C3050 C3051 1.394 . S
C3050 H3058 0.930 . S
C3051 C3050 1.394 . S
C3051 C3052 1.383 . S
C3051 H3059 0.929 . S
C3052 C3051 1.383 . S
C3052 C3053 1.377 . S
C3053 H3037 0.930 . S
C3053 C3052 1.377 . S
C3053 C3054 1.379 . S
C3054 H3038 0.931 . S
C3054 C3048 1.383 . S
C3054 C3053 1.379 . S
H3055 C3049 0.959 . S
H3056 C3049 0.961 1_655 S
H3057 C3049 0.960 . S
H3058 C3050 0.930 . S
H3059 C3051 0.929 . S
H3060 C3068 0.929 . S
H3061 C3070 0.930 . S
H3062 C3072 0.930 . S
H3063 C3075 0.929 . S
H3064 C3078 0.930 . S
H3065 C3080 0.960 . S
H3066 C3080 0.960 1_554 S
H3067 C3080 0.960 . S
C3068 H3060 0.929 . S
C3068 C3069 1.377 . S
C3068 C3070 1.384 . S
C3069 C3068 1.377 . S
C3069 C3075 1.390 . S
C3070 H3061 0.930 . S
C3070 C3068 1.384 . S
C3070 C3071 1.372 . S
C3071 C3070 1.372 . S
C3071 C3072 1.400 . S
C3071 C3076 1.490 . S
C3072 H3062 0.930 . S
C3072 C3071 1.400 . S
C3072 C3075 1.386 . S
H3073 C3089 0.930 . S
H3074 C3090 0.931 . S
C3075 H3063 0.929 . S
C3075 C3069 1.390 . S
C3075 C3072 1.386 . S
C3076 C3071 1.490 . S
C3076 C3078 1.395 . S
C3076 C3079 1.403 1_554 S
H3077 C3083 0.930 . S
C3078 H3064 0.930 . S
C3078 C3076 1.395 . S
C3078 C3081 1.403 . S
C3079 C3076 1.403 1_556 S
C3079 C3080 1.524 . S
C3079 C3083 1.400 . S
C3080 H3065 0.960 . S
C3080 H3066 0.960 1_556 S
C3080 H3067 0.960 . S
C3080 C3079 1.524 . S
C3081 C3078 1.403 . S
C3081 C3082 1.392 1_554 S
C3081 C3085 1.495 . S
C3082 C3081 1.392 1_556 S
C3082 C3083 1.385 . S
C3082 C3084 1.478 . S
C3083 H3077 0.930 . S
C3083 C3079 1.400 . S
C3083 C3082 1.385 . S
C3084 C3082 1.478 . S
C3084 C3086 1.381 . S
C3084 C3090 1.383 . S
C3085 C3081 1.495 . S
C3085 H3091 0.959 . S
C3085 H3092 0.961 . S
C3085 H3093 0.960 . S
C3086 C3084 1.381 . S
C3086 C3087 1.394 . S
C3086 H3094 0.930 . S
C3087 C3086 1.394 . S
C3087 C3088 1.383 . S
C3087 H3095 0.929 . S
C3088 C3087 1.383 . S
C3088 C3089 1.377 . S
C3089 H3073 0.930 . S
C3089 C3088 1.377 . S
C3089 C3090 1.379 . S
C3090 H3074 0.931 . S
C3090 C3084 1.383 . S
C3090 C3089 1.379 . S
H3091 C3085 0.959 . S
H3092 C3085 0.961 . S
H3093 C3085 0.960 . S
H3094 C3086 0.930 . S
H3095 C3087 0.929 . S
C513 C12 0.957 . S
C532 C166 0.984 . S
C549 C26 0.955 . S
C568 C138 0.982 . S
C585 C152 0.962 . S
C604 C40 0.931 . S
C621 C54 0.963 . S
C640 C110 0.968 . S
C657 C124 0.958 . S
C676 C68 0.936 . S
C693 C82 0.954 . S
C712 C96 0.966 . S
C729 C334 0.965 . S
C748 C180 0.950 . S
C765 C194 0.954 . S
C784 C306 0.959 . S
C801 C208 0.956 . S
C820 C320 0.983 . S
C837 C278 0.958 . S
C856 C222 0.984 . S
C873 C236 0.961 . S
C892 C292 0.971 . S
C909 C264 0.959 . S
C928 C250 0.937 . S
C945 C348 0.963 . S
C964 C502 0.932 . S
C981 C474 0.959 . S
C1000 C362 0.983 . S
C1017 C488 0.962 . S
C1036 C376 0.968 . S
C1053 C446 0.955 . S
C1072 C390 0.982 . S
C1089 C460 0.963 . S
C1108 C404 0.959 . S
C1125 C432 0.954 . S
C1144 C418 0.974 . S
C1161 C5 0.936 . S
C1180 C61 1.007 . S
C1197 C75 0.954 . S
C1216 C19 0.880 . S
C1233 C33 0.934 . S
C1252 C47 1.004 . S
C1269 C89 0.933 . S
C1288 C145 0.887 . S
C1305 C103 0.935 . S
C1324 C159 0.891 . S
C1341 C117 0.942 . S
C1360 C131 0.928 . S
C1377 C229 0.958 . S
C1396 C173 0.919 . S
C1413 C243 0.933 . S
C1432 C187 0.980 . S
C1449 C201 0.932 . S
C1468 C215 0.967 . S
C1485 C313 0.958 . S
C1504 C257 1.007 . S
C1521 C327 0.937 . S
C1540 C271 0.899 . S
C1557 C285 0.932 . S
C1576 C299 0.881 . S
C1593 C397 0.955 . S
C1612 C341 0.881 . S
C1629 C355 0.941 . S
C1648 C411 0.914 . S
C1665 C369 0.958 . S
C1684 C383 0.898 . S
C1701 C481 0.944 . S
C1720 C425 0.943 . S
C1737 C439 0.942 . S
C1756 C495 0.922 . S
C1773 C467 0.958 . S
C1792 C453 1.007 . S
C1809 C410 1.354 . S
C1828 C4 1.334 1_556 S
C1845 C18 1.359 1_556 S
C1864 C382 1.337 . S
C1881 C32 1.357 1_556 S
C1900 C396 1.332 . S
C1917 C46 1.355 1_554 S
C1936 C186 1.360 . S
C1953 C200 1.365 . S
C1972 C60 1.378 1_554 S
C1989 C172 1.365 . S
C2008 C74 1.376 1_554 S
C2025 C88 1.354 1_554 S
C2044 C326 1.384 . S
C2061 C102 1.356 1_554 S
C2080 C298 1.375 . S
C2097 C116 1.364 1_554 S
C2116 C312 1.330 . S
C2133 C438 1.357 . S
C2152 C130 1.370 1_556 S
C2169 C452 1.356 . S
C2188 C144 1.364 1_556 S
C2205 C158 1.364 1_556 S
C2224 C424 1.336 . S
C2241 C354 1.355 . S
C2260 C214 1.354 . S
C2277 C228 1.364 . S
C2296 C368 1.379 . S
C2313 C340 1.364 . S
C2332 C242 1.384 . S
C2349 C494 1.354 . S
C2368 C256 1.377 . S
C2385 C270 1.361 . S
C2404 C466 1.355 . S
C2421 C284 1.364 . S
C2440 C480 1.329 . S
C2457 C11 1.606 . S
C2476 C417 1.591 . S
C2493 C389 1.599 . S
C2512 C25 1.620 . S
C2529 C39 1.601 . S
C2548 C403 1.606 . S
C2565 C193 1.602 . S
C2584 C53 1.604 . S
C2601 C67 1.599 . S
C2620 C207 1.620 . S
C2637 C81 1.603 . S
C2656 C179 1.602 . S
C2673 C333 1.607 . S
C2692 C95 1.597 . S
C2709 C109 1.608 . S
C2728 C305 1.611 . S
C2745 C123 1.607 . S
C2764 C319 1.621 . S
C2781 C137 1.605 . S
C2800 C445 1.620 . S
C2817 C459 1.599 . S
C2836 C151 1.597 . S
C2853 C165 1.602 . S
C2872 C431 1.580 . S
C2889 C361 1.602 . S
C2908 C221 1.605 . S
C2925 C235 1.601 . S
C2944 C375 1.613 . S
C2961 C249 1.600 . S
C2980 C347 1.618 . S
C2997 C501 1.608 . S
C3016 C263 1.609 . S
C3033 C473 1.602 . S
C3052 C277 1.610 . S
C3069 C291 1.608 . S
C3088 C487 1.605 . S
