# Generated by pormake.
# Topology wfa, (4)-cn, num edge types: 1
# Building blocks:
#     Node 0, Type 0, BuildingBlock: CEKHIL_clean_sbu_0, # of connection points: 4
#     Node 1, Type 0, BuildingBlock: CEKHIL_clean_sbu_0, # of connection points: 4
#     Node 2, Type 0, BuildingBlock: CEKHIL_clean_sbu_0, # of connection points: 4
#     Node 3, Type 0, BuildingBlock: CEKHIL_clean_sbu_0, # of connection points: 4
#     Node 4, Type 0, BuildingBlock: CEKHIL_clean_sbu_0, # of connection points: 4
#     Node 5, Type 0, BuildingBlock: CEKHIL_clean_sbu_0, # of connection points: 4
#     Node 6, Type 0, BuildingBlock: CEKHIL_clean_sbu_0, # of connection points: 4
#     Node 7, Type 0, BuildingBlock: CEKHIL_clean_sbu_0, # of connection points: 4
#     Node 8, Type 0, BuildingBlock: CEKHIL_clean_sbu_0, # of connection points: 4
#     Node 9, Type 0, BuildingBlock: CEKHIL_clean_sbu_0, # of connection points: 4
#     Node 10, Type 0, BuildingBlock: CEKHIL_clean_sbu_0, # of connection points: 4
#     Node 11, Type 0, BuildingBlock: CEKHIL_clean_sbu_0, # of connection points: 4
#     Node 12, Type 0, BuildingBlock: CEKHIL_clean_sbu_0, # of connection points: 4
#     Node 13, Type 0, BuildingBlock: CEKHIL_clean_sbu_0, # of connection points: 4
#     Node 14, Type 0, BuildingBlock: CEKHIL_clean_sbu_0, # of connection points: 4
#     Node 15, Type 0, BuildingBlock: CEKHIL_clean_sbu_0, # of connection points: 4
#     Edge 16, Type (0, 0), BuildingBlock: MIFKUJ_clean_linker_0, # of connection points: 2
#     Edge 17, Type (0, 0), BuildingBlock: MIFKUJ_clean_linker_0, # of connection points: 2
#     Edge 18, Type (0, 0), BuildingBlock: MIFKUJ_clean_linker_0, # of connection points: 2
#     Edge 19, Type (0, 0), BuildingBlock: MIFKUJ_clean_linker_0, # of connection points: 2
#     Edge 20, Type (0, 0), BuildingBlock: MIFKUJ_clean_linker_0, # of connection points: 2
#     Edge 21, Type (0, 0), BuildingBlock: MIFKUJ_clean_linker_0, # of connection points: 2
#     Edge 22, Type (0, 0), BuildingBlock: MIFKUJ_clean_linker_0, # of connection points: 2
#     Edge 23, Type (0, 0), BuildingBlock: MIFKUJ_clean_linker_0, # of connection points: 2
#     Edge 24, Type (0, 0), BuildingBlock: MIFKUJ_clean_linker_0, # of connection points: 2
#     Edge 25, Type (0, 0), BuildingBlock: MIFKUJ_clean_linker_0, # of connection points: 2
#     Edge 26, Type (0, 0), BuildingBlock: MIFKUJ_clean_linker_0, # of connection points: 2
#     Edge 27, Type (0, 0), BuildingBlock: MIFKUJ_clean_linker_0, # of connection points: 2
#     Edge 28, Type (0, 0), BuildingBlock: MIFKUJ_clean_linker_0, # of connection points: 2
#     Edge 29, Type (0, 0), BuildingBlock: MIFKUJ_clean_linker_0, # of connection points: 2
#     Edge 30, Type (0, 0), BuildingBlock: MIFKUJ_clean_linker_0, # of connection points: 2
#     Edge 31, Type (0, 0), BuildingBlock: MIFKUJ_clean_linker_0, # of connection points: 2
#     Edge 32, Type (0, 0), BuildingBlock: MIFKUJ_clean_linker_0, # of connection points: 2
#     Edge 33, Type (0, 0), BuildingBlock: MIFKUJ_clean_linker_0, # of connection points: 2
#     Edge 34, Type (0, 0), BuildingBlock: MIFKUJ_clean_linker_0, # of connection points: 2
#     Edge 35, Type (0, 0), BuildingBlock: MIFKUJ_clean_linker_0, # of connection points: 2
#     Edge 36, Type (0, 0), BuildingBlock: MIFKUJ_clean_linker_0, # of connection points: 2
#     Edge 37, Type (0, 0), BuildingBlock: MIFKUJ_clean_linker_0, # of connection points: 2
#     Edge 38, Type (0, 0), BuildingBlock: MIFKUJ_clean_linker_0, # of connection points: 2
#     Edge 39, Type (0, 0), BuildingBlock: MIFKUJ_clean_linker_0, # of connection points: 2
#     Edge 40, Type (0, 0), BuildingBlock: MIFKUJ_clean_linker_0, # of connection points: 2
#     Edge 41, Type (0, 0), BuildingBlock: MIFKUJ_clean_linker_0, # of connection points: 2
#     Edge 42, Type (0, 0), BuildingBlock: MIFKUJ_clean_linker_0, # of connection points: 2
#     Edge 43, Type (0, 0), BuildingBlock: MIFKUJ_clean_linker_0, # of connection points: 2
#     Edge 44, Type (0, 0), BuildingBlock: MIFKUJ_clean_linker_0, # of connection points: 2
#     Edge 45, Type (0, 0), BuildingBlock: MIFKUJ_clean_linker_0, # of connection points: 2
#     Edge 46, Type (0, 0), BuildingBlock: MIFKUJ_clean_linker_0, # of connection points: 2
#     Edge 47, Type (0, 0), BuildingBlock: MIFKUJ_clean_linker_0, # of connection points: 2
# Relax obj value: 0.214
# Max RMSD: 0.273
# Mean RMSD: 0.267
data_MOF--net-wfa--node1-CEKHIL_clean_sbu_0--edge1-MIFKUJ_clean_linker_0
_symmetry_space_group_name_H-M    P1
_symmetry_Int_Tables_number       1
_symmetry_cell_setting            triclinic
loop_
_symmetry_equiv_pos_as_xyz
'x, y, z'
_cell_length_a     59.345194
_cell_length_b     59.297124
_cell_length_c     30.677973
_cell_angle_alpha  89.69099
_cell_angle_beta   89.776633
_cell_angle_gamma 89.561322
loop_
_atom_site_label
_atom_site_type_symbol
_atom_site_fract_x
_atom_site_fract_y
_atom_site_fract_z
_atom_type_partial_charge
Co0 Co 0.65467 0.98069 0.04247 0.0
O1 O 0.66925 0.96141 1.00085 0.0
O2 O 0.68129 0.99529 0.01937 0.0
C3 C 0.61924 0.97761 0.01695 0.0
O4 O 0.64337 0.00528 0.0834 0.0
Co5 Co 0.61978 0.95879 0.106 0.0
O6 O 0.61588 0.99036 0.12547 0.0
C7 C 0.66818 0.956 0.12681 0.0
C8 C 0.68378 0.97741 0.99532 0.0
C9 C 0.62824 0.00678 0.11347 0.0
O10 O 0.67281 0.96724 0.09192 0.0
O11 O 0.64824 0.94956 0.13657 0.0
O12 O 0.63346 0.99117 0.99847 0.0
O13 O 0.6278 0.96411 0.04583 0.0
Co14 Co 0.51982 0.65149 0.03895 0.0
O15 O 0.54144 0.66771 0.00401 0.0
O16 O 0.50596 0.67829 0.01445 0.0
C17 C 0.52643 0.61678 0.01111 0.0
O18 O 0.49258 0.6388 0.07145 0.0
Co19 Co 0.53564 0.61398 0.1038 0.0
O20 O 0.50326 0.6061 0.10297 0.0
C21 C 0.53645 0.66185 0.131 0.0
C22 C 0.52521 0.68179 0.99525 0.0
C23 C 0.48809 0.62031 0.09186 0.0
O24 O 0.52893 0.66829 0.09349 0.0
O25 O 0.54111 0.64127 0.14038 0.0
O26 O 0.51381 0.63123 0.99049 0.0
O27 O 0.5369 0.62474 0.04448 0.0
Co28 Co 0.84943 0.51111 0.04384 0.0
O29 O 0.83353 0.5315 0.00553 0.0
O30 O 0.82352 0.49629 0.01954 0.0
C31 C 0.88454 0.51738 0.01814 0.0
O32 O 0.86197 0.48506 0.08001 0.0
Co33 Co 0.88412 0.52975 0.11024 0.0
O34 O 0.89277 0.4974 0.11487 0.0
C35 C 0.83565 0.53153 0.13172 0.0
C36 C 0.81989 0.51496 0.99814 0.0
C37 C 0.87965 0.4816 0.10332 0.0
O38 O 0.83109 0.52134 0.09586 0.0
O39 O 0.85552 0.53788 0.14188 0.0
O40 O 0.87099 0.50405 0.99769 0.0
O41 O 0.87547 0.52868 0.0497 0.0
Co42 Co 0.98116 0.84631 0.03629 0.0
O43 O 0.96573 0.83187 0.98929 0.0
O44 O 0.99882 0.82076 0.01534 0.0
C45 C 0.9771 0.88209 0.0116 0.0
O46 O 0.00199 0.85814 0.08375 0.0
Co47 Co 0.95264 0.87883 0.09495 0.0
O48 O 0.98263 0.8852 0.1198 0.0
C49 C 0.95281 0.82999 0.11418 0.0
C50 C 0.98279 0.81821 0.98695 0.0
C51 C 0.00048 0.87358 0.11313 0.0
O52 O 0.96603 0.82644 0.08145 0.0
O53 O 0.94442 0.84941 0.123 0.0
O54 O 0.99279 0.86905 0.99609 0.0
O55 O 0.96263 0.87217 0.03662 0.0
Co56 Co 0.15596 0.01381 0.46497 0.0
O57 O 0.16795 0.03599 0.50398 0.0
O58 O 0.18271 0.00207 0.49351 0.0
C59 C 0.11954 0.01709 0.48621 0.0
O60 O 0.14784 0.98631 0.42871 0.0
Co61 Co 0.12085 0.02821 0.39419 0.0
O62 O 0.11645 0.99513 0.39091 0.0
C63 C 0.16948 0.03557 0.37818 0.0
C64 C 0.18331 0.02121 0.51408 0.0
C65 C 0.13114 0.98096 0.40433 0.0
O66 O 0.17454 0.02587 0.41463 0.0
O67 O 0.14917 0.03949 0.36615 0.0
O68 O 0.13359 0.00489 0.50878 0.0
O69 O 0.12847 0.02872 0.45507 0.0
Co70 Co 0.48634 0.15589 0.46326 0.0
O71 O 0.46552 0.16783 0.50558 0.0
O72 O 0.4983 0.18319 0.48873 0.0
C73 C 0.48516 0.11955 0.48636 0.0
O74 O 0.51235 0.14777 0.42265 0.0
Co75 Co 0.47002 0.12014 0.39624 0.0
O76 O 0.50296 0.11573 0.38811 0.0
C77 C 0.46188 0.16867 0.37876 0.0
C78 C 0.48014 0.18353 0.51264 0.0
C79 C 0.51718 0.1308 0.39829 0.0
O80 O 0.47204 0.17395 0.41433 0.0
O81 O 0.45805 0.14826 0.36762 0.0
O82 O 0.49768 0.13409 0.50622 0.0
O83 O 0.47198 0.12796 0.45697 0.0
Co84 Co 0.3489 0.48755 0.45594 0.0
O85 O 0.33431 0.46548 0.49222 0.0
O86 O 0.32224 0.50058 0.48258 0.0
C87 C 0.3843 0.48204 0.48044 0.0
O88 O 0.36007 0.51491 0.42212 0.0
Co89 Co 0.38458 0.47159 0.38764 0.0
O90 O 0.39195 0.50426 0.38758 0.0
C91 C 0.33628 0.46813 0.36707 0.0
C92 C 0.31982 0.48117 0.50198 0.0
C93 C 0.37801 0.5194 0.40013 0.0
O94 O 0.33115 0.478 0.40313 0.0
O95 O 0.3564 0.46237 0.3565 0.0
O96 O 0.37011 0.49435 0.50232 0.0
O97 O 0.37577 0.47111 0.44819 0.0
Co98 Co 0.01318 0.34801 0.47042 0.0
O99 O 0.03552 0.33372 0.50677 0.0
O100 O 0.00105 0.32075 0.49649 0.0
C101 C 0.01807 0.38344 0.49613 0.0
O102 O 0.98545 0.35889 0.43722 0.0
Co103 Co 0.02721 0.38511 0.40331 0.0
O104 O 0.99445 0.39186 0.40525 0.0
C105 C 0.03046 0.33688 0.37862 0.0
C106 C 0.02032 0.31889 0.51635 0.0
C107 C 0.98003 0.37711 0.41666 0.0
O108 O 0.02326 0.33073 0.41664 0.0
O109 O 0.0343 0.35748 0.36837 0.0
O110 O 0.0059 0.36904 0.51758 0.0
O111 O 0.02881 0.37524 0.46306 0.0
Co112 Co 0.34685 0.02428 0.96076 0.0
O113 O 0.3339 0.04439 0.00283 0.0
O114 O 0.32028 0.0108 0.98689 0.0
C115 C 0.38285 0.0268 0.98349 0.0
O116 O 0.35675 0.99889 0.92023 0.0
Co117 Co 0.38066 0.04468 0.89345 0.0
O118 O 0.38389 0.01273 0.87586 0.0
C119 C 0.33196 0.04899 0.87713 0.0
C120 C 0.31911 0.02891 0.01066 0.0
C121 C 0.37153 0.99669 0.88963 0.0
O122 O 0.32795 0.03769 0.91226 0.0
O123 O 0.35179 0.05508 0.86572 0.0
O124 O 0.3687 0.01374 0.00346 0.0
O125 O 0.37406 0.04014 0.95456 0.0
Co126 Co 0.47564 0.34784 0.96398 0.0
O127 O 0.45537 0.33238 0.0026 0.0
O128 O 0.49038 0.32141 0.98894 0.0
C129 C 0.46961 0.38303 0.98974 0.0
O130 O 0.50128 0.36049 0.92668 0.0
Co131 Co 0.45501 0.38268 0.89845 0.0
O132 O 0.4871 0.39116 0.89244 0.0
C133 C 0.45493 0.33434 0.8763 0.0
C134 C 0.47168 0.3183 0.01048 0.0
C135 C 0.5036 0.37837 0.90298 0.0
O136 O 0.46512 0.32967 0.91231 0.0
O137 O 0.4481 0.35424 0.86626 0.0
O138 O 0.48306 0.36917 0.00986 0.0
O139 O 0.45794 0.37414 0.95884 0.0
Co140 Co 0.15862 0.47946 0.95176 0.0
O141 O 0.17332 0.46019 0.99372 0.0
O142 O 0.18526 0.49406 0.97409 0.0
C143 C 0.12313 0.47631 0.97783 0.0
O144 O 0.14734 0.50407 0.91037 0.0
Co145 Co 0.12338 0.45868 0.8887 0.0
O146 O 0.11618 0.49088 0.87747 0.0
C147 C 0.17189 0.45471 0.86784 0.0
C148 C 0.18789 0.47618 0.99842 0.0
C149 C 0.12983 0.5067 0.88616 0.0
O150 O 0.17672 0.46584 0.90246 0.0
O151 O 0.15177 0.44895 0.85811 0.0
O152 O 0.13731 0.48988 0.99594 0.0
O153 O 0.13172 0.46297 0.94883 0.0
Co154 Co 0.01369 0.15586 0.96587 0.0
O155 O 0.03201 0.17006 0.00897 0.0
O156 O 0.9988 0.18303 0.9878 0.0
C157 C 0.01657 0.12037 0.99302 0.0
O158 O 0.99019 0.1445 0.92262 0.0
Co159 Co 0.0374 0.12013 0.90624 0.0
O160 O 0.00591 0.11457 0.88854 0.0
C161 C 0.04036 0.16848 0.88322 0.0
C162 C 0.01613 0.18496 0.01347 0.0
C163 C 0.98928 0.12783 0.89576 0.0
O164 O 0.02837 0.17371 0.91693 0.0
O165 O 0.04696 0.14831 0.87519 0.0
O166 O 0.0023 0.13464 0.0096 0.0
O167 O 0.03046 0.12889 0.96505 0.0
Co168 Co 0.84376 0.98847 0.54022 0.0
O169 O 0.83046 0.96809 0.49939 0.0
O170 O 0.81695 0.00203 0.51479 0.0
C171 C 0.87972 0.98531 0.51659 0.0
O172 O 0.85362 0.01404 0.58 0.0
Co173 Co 0.87888 0.9692 0.60665 0.0
O174 O 0.88478 0.00176 0.61506 0.0
C175 C 0.83028 0.96427 0.62478 0.0
C176 C 0.81539 0.98359 0.49217 0.0
C177 C 0.87079 0.01731 0.60472 0.0
O178 O 0.82547 0.97538 0.58978 0.0
O179 O 0.85043 0.95867 0.63533 0.0
O180 O 0.86556 0.99843 0.49638 0.0
O181 O 0.87094 0.97246 0.54613 0.0
Co182 Co 0.51887 0.84309 0.54322 0.0
O183 O 0.53801 0.83079 0.49839 0.0
O184 O 0.50491 0.81684 0.51759 0.0
C185 C 0.52109 0.87962 0.52226 0.0
O186 O 0.49434 0.85199 0.58662 0.0
Co187 Co 0.53951 0.87627 0.61066 0.0
O188 O 0.50735 0.88111 0.62617 0.0
C189 C 0.54492 0.82725 0.62425 0.0
C190 C 0.52245 0.81594 0.49203 0.0
C191 C 0.49171 0.86777 0.61485 0.0
O192 O 0.53327 0.82349 0.58971 0.0
O193 O 0.55075 0.84703 0.63615 0.0
O194 O 0.50756 0.86594 0.50262 0.0
O195 O 0.53476 0.87018 0.54966 0.0
Co196 Co 0.65721 0.50585 0.5421 0.0
O197 O 0.67521 0.52661 0.50856 0.0
O198 O 0.68344 0.49046 0.51892 0.0
C199 C 0.62347 0.51477 0.51273 0.0
O200 O 0.64245 0.4793 0.57318 0.0
Co201 Co 0.61992 0.52348 0.60527 0.0
O202 O 0.6096 0.4918 0.60115 0.0
C203 C 0.66751 0.52276 0.63402 0.0
C204 C 0.68842 0.50959 0.50044 0.0
C205 C 0.62305 0.47581 0.5908 0.0
O206 O 0.67368 0.5138 0.59758 0.0
O207 O 0.6472 0.52899 0.64202 0.0
O208 O 0.63728 0.50128 0.49259 0.0
O209 O 0.63164 0.52459 0.54662 0.0
Co210 Co 0.97883 0.65761 0.53695 0.0
O211 O 0.96094 0.6719 0.49233 0.0
O212 O 0.99509 0.68281 0.51171 0.0
C213 C 0.97413 0.62151 0.51536 0.0
O214 O 0.00228 0.6462 0.58032 0.0
Co215 Co 0.95429 0.62553 0.60286 0.0
O216 O 0.98538 0.62069 0.62432 0.0
C217 C 0.9541 0.67454 0.61893 0.0
C218 C 0.97774 0.6854 0.48633 0.0
C219 C 0.00259 0.63184 0.612 0.0
O220 O 0.96585 0.67785 0.58403 0.0
O221 O 0.94639 0.6552 0.62986 0.0
O222 O 0.9886 0.63442 0.49587 0.0
O223 O 0.96086 0.63171 0.54247 0.0
H224 H 0.54879 0.09814 0.4059 0.0
H225 H 0.57895 0.09024 0.3534 0.0
H226 H 0.56345 0.1523 0.28536 0.0
H227 H 0.53335 0.16027 0.33848 0.0
H228 H 0.55909 0.1144 0.23454 0.0
H229 H 0.61564 0.14588 0.32295 0.0
H230 H 0.63638 0.15384 0.39052 0.0
H231 H 0.65339 0.08365 0.40395 0.0
H232 H 0.63247 0.07516 0.33686 0.0
H233 H 0.62666 0.05052 0.08323 0.0
H234 H 0.61792 0.08437 0.12684 0.0
H235 H 0.61635 0.04331 0.24342 0.0
H236 H 0.62462 0.00989 0.2004 0.0
H237 H 0.63644 0.08448 0.25732 0.0
H238 H 0.56938 0.05275 0.18934 0.0
H239 H 0.54595 0.04195 0.12666 0.0
H240 H 0.54667 0.11026 0.07959 0.0
H241 H 0.57045 0.12138 0.14171 0.0
C242 C 0.55252 0.11046 0.38074 0.0
C243 C 0.53902 0.12977 0.37605 0.0
C244 C 0.56974 0.10603 0.35086 0.0
C245 C 0.57347 0.12073 0.31551 0.0
C246 C 0.56095 0.14086 0.31259 0.0
C247 C 0.54392 0.14546 0.343 0.0
C248 C 0.58738 0.11281 0.27838 0.0
C249 C 0.57634 0.10862 0.23886 0.0
C250 C 0.6097 0.10495 0.28437 0.0
C251 C 0.62243 0.1099 0.32477 0.0
C252 C 0.62369 0.13211 0.34042 0.0
C253 C 0.6355 0.13672 0.37865 0.0
C254 C 0.6462 0.11926 0.40151 0.0
C255 C 0.64513 0.09716 0.38617 0.0
C256 C 0.63333 0.09245 0.34797 0.0
C257 C 0.62481 0.04896 0.11825 0.0
C258 C 0.62595 0.02771 0.13856 0.0
C259 C 0.61986 0.0682 0.14304 0.0
C260 C 0.61645 0.06627 0.1883 0.0
C261 C 0.61901 0.0452 0.20862 0.0
C262 C 0.62351 0.02609 0.18397 0.0
C263 C 0.60772 0.08523 0.21472 0.0
C264 C 0.61966 0.09135 0.2522 0.0
C265 C 0.58604 0.09453 0.20729 0.0
C266 C 0.57202 0.08781 0.16968 0.0
C267 C 0.56477 0.0654 0.16533 0.0
C268 C 0.55139 0.05923 0.12999 0.0
C269 C 0.54492 0.07538 0.09906 0.0
C270 C 0.55178 0.09775 0.10347 0.0
C271 C 0.56524 0.10399 0.1387 0.0
H272 H 0.53453 0.07058 0.07178 0.0
H273 H 0.65533 0.12287 0.43111 0.0
H274 H 0.34596 0.54871 0.36983 0.0
H275 H 0.35287 0.57985 0.31874 0.0
H276 H 0.42448 0.57181 0.33793 0.0
H277 H 0.41758 0.5412 0.38957 0.0
H278 H 0.41371 0.61533 0.31449 0.0
H279 H 0.39925 0.53755 0.26538 0.0
H280 H 0.37438 0.50435 0.26656 0.0
H281 H 0.32031 0.54446 0.21394 0.0
H282 H 0.34486 0.57797 0.21295 0.0
H283 H 0.46907 0.58015 0.11229 0.0
H284 H 0.43735 0.57427 0.16124 0.0
H285 H 0.42345 0.64582 0.16113 0.0
H286 H 0.45579 0.65189 0.11257 0.0
H287 H 0.39368 0.58103 0.17266 0.0
H288 H 0.41379 0.66067 0.26506 0.0
H289 H 0.4437 0.68927 0.27105 0.0
H290 H 0.49381 0.63907 0.24074 0.0
H291 H 0.46422 0.61025 0.23477 0.0
C292 C 0.36309 0.55437 0.36473 0.0
C293 C 0.38133 0.54229 0.38259 0.0
C294 C 0.36702 0.5721 0.33543 0.0
C295 C 0.3892 0.57777 0.32378 0.0
C296 C 0.40723 0.56766 0.34622 0.0
C297 C 0.40331 0.55001 0.37537 0.0
C298 C 0.39412 0.58993 0.28254 0.0
C299 C 0.40874 0.60838 0.28336 0.0
C300 C 0.38799 0.58057 0.24193 0.0
C301 C 0.37378 0.56021 0.23933 0.0
C302 C 0.38209 0.53921 0.25384 0.0
C303 C 0.36805 0.52039 0.25462 0.0
C304 C 0.34576 0.52234 0.24051 0.0
C305 C 0.33757 0.54302 0.22496 0.0
C306 C 0.35153 0.56193 0.22425 0.0
C307 C 0.45888 0.59459 0.12163 0.0
C308 C 0.46521 0.61652 0.10944 0.0
C309 C 0.44061 0.5912 0.14944 0.0
C310 C 0.42831 0.60966 0.16568 0.0
C311 C 0.43294 0.63137 0.1495 0.0
C312 C 0.45134 0.6348 0.12155 0.0
C313 C 0.4138 0.60611 0.2046 0.0
C314 C 0.39751 0.58907 0.20342 0.0
C315 C 0.41893 0.61634 0.245 0.0
C316 C 0.43682 0.63345 0.24907 0.0
C317 C 0.43121 0.65579 0.25976 0.0
C318 C 0.44809 0.67202 0.2631 0.0
C319 C 0.47063 0.666 0.25614 0.0
C320 C 0.47635 0.64374 0.24595 0.0
C321 C 0.45955 0.62746 0.24259 0.0
H322 H 0.48366 0.67857 0.25881 0.0
H323 H 0.33483 0.50786 0.24182 0.0
H324 H 0.84834 0.44971 0.12455 0.0
H325 H 0.85399 0.41796 0.17499 0.0
H326 H 0.92527 0.43159 0.17753 0.0
H327 H 0.91972 0.46335 0.12796 0.0
H328 H 0.91606 0.38573 0.18854 0.0
H329 H 0.89356 0.45978 0.24497 0.0
H330 H 0.8675 0.49236 0.24756 0.0
H331 H 0.81348 0.4488 0.28652 0.0
H332 H 0.83923 0.41584 0.28334 0.0
H333 H 0.95793 0.41635 0.40055 0.0
H334 H 0.92731 0.4216 0.34913 0.0
H335 H 0.91979 0.34945 0.3395 0.0
H336 H 0.95102 0.34409 0.39077 0.0
H337 H 0.88505 0.41214 0.33002 0.0
H338 H 0.9159 0.33834 0.22996 0.0
H339 H 0.94757 0.31108 0.22632 0.0
H340 H 0.99249 0.36111 0.2761 0.0
H341 H 0.96115 0.38872 0.27937 0.0
C342 C 0.86531 0.44536 0.13456 0.0
C343 C 0.88358 0.45915 0.12291 0.0
C344 C 0.8685 0.42723 0.16336 0.0
C345 C 0.89 0.4226 0.18029 0.0
C346 C 0.90854 0.43483 0.16478 0.0
C347 C 0.90533 0.45309 0.13669 0.0
C348 C 0.89296 0.40864 0.22003 0.0
C349 C 0.90874 0.39093 0.2194 0.0
C350 C 0.88359 0.41565 0.26031 0.0
C351 C 0.86819 0.43537 0.26334 0.0
C352 C 0.87609 0.45715 0.25385 0.0
C353 C 0.8614 0.47566 0.2554 0.0
C354 C 0.83884 0.47263 0.267 0.0
C355 C 0.83095 0.45109 0.27736 0.0
C356 C 0.84558 0.43248 0.27563 0.0
C357 C 0.94924 0.4016 0.38871 0.0
C358 C 0.95715 0.37984 0.39879 0.0
C359 C 0.9316 0.4046 0.35945 0.0
C360 C 0.92162 0.38591 0.33962 0.0
C361 C 0.92751 0.3641 0.35397 0.0
C362 C 0.94526 0.36107 0.38345 0.0
C363 C 0.90882 0.38975 0.29879 0.0
C364 C 0.89123 0.40572 0.2991 0.0
C365 C 0.91708 0.38164 0.2583 0.0
C366 C 0.93616 0.36543 0.25542 0.0
C367 C 0.93256 0.34351 0.23997 0.0
C368 C 0.95044 0.32802 0.23796 0.0
C369 C 0.972 0.33434 0.25113 0.0
C370 C 0.97578 0.35623 0.266 0.0
C371 C 0.95798 0.3718 0.26787 0.0
H372 H 0.98579 0.3223 0.24972 0.0
H373 H 0.82754 0.48701 0.268 0.0
H374 H 0.04617 0.86712 0.09915 0.0
H375 H 0.07686 0.87759 0.14899 0.0
H376 H 0.02765 0.8988 0.24454 0.0
H377 H 0.99746 0.88889 0.19555 0.0
H378 H 0.05681 0.93113 0.22854 0.0
H379 H 0.05908 0.85102 0.25852 0.0
H380 H 0.06347 0.81088 0.23935 0.0
H381 H 0.13056 0.82339 0.1927 0.0
H382 H 0.12645 0.86368 0.21117 0.0
H383 H 0.10139 0.94844 0.42561 0.0
H384 H 0.08885 0.91907 0.3754 0.0
H385 H 0.14366 0.9349 0.28838 0.0
H386 H 0.1566 0.96383 0.3391 0.0
H387 H 0.11776 0.88359 0.29201 0.0
H388 H 0.1118 0.96638 0.26104 0.0
H389 H 0.1053 0.00508 0.28776 0.0
H390 H 0.04155 0.98518 0.3417 0.0
H391 H 0.04797 0.94624 0.31613 0.0
C392 C 0.04204 0.87381 0.13099 0.0
C393 C 0.01946 0.87762 0.14309 0.0
C394 C 0.05952 0.8797 0.15943 0.0
C395 C 0.05451 0.88913 0.20035 0.0
C396 C 0.03194 0.89182 0.21296 0.0
C397 C 0.01467 0.8862 0.18475 0.0
C398 C 0.07222 0.89806 0.22935 0.0
C399 C 0.07018 0.92066 0.24208 0.0
C400 C 0.08986 0.88457 0.24676 0.0
C401 C 0.09234 0.8604 0.23567 0.0
C402 C 0.07467 0.84525 0.24377 0.0
C403 C 0.07713 0.82247 0.23313 0.0
C404 C 0.09725 0.81461 0.21464 0.0
C405 C 0.11497 0.82951 0.20692 0.0
C406 C 0.11259 0.85231 0.2175 0.0
C407 C 0.11148 0.94466 0.39703 0.0
C408 C 0.12983 0.95826 0.38592 0.0
C409 C 0.10434 0.92796 0.36842 0.0
C410 C 0.11512 0.92519 0.328 0.0
C411 C 0.13525 0.93668 0.31959 0.0
C412 C 0.14259 0.95323 0.34853 0.0
C413 C 0.10183 0.91632 0.29134 0.0
C414 C 0.10469 0.89399 0.27738 0.0
C415 C 0.08461 0.92987 0.2729 0.0
C416 C 0.0805 0.9534 0.28719 0.0
C417 C 0.0965 0.97024 0.27893 0.0
C418 C 0.09282 0.99221 0.29383 0.0
C419 C 0.07308 0.99756 0.31664 0.0
C420 C 0.0569 0.98099 0.32428 0.0
C421 C 0.06054 0.95898 0.30956 0.0
H422 H 0.07028 0.01455 0.32828 0.0
H423 H 0.09912 0.79697 0.20643 0.0
H424 H 0.38186 0.9553 0.92436 0.0
H425 H 0.39428 0.92189 0.88297 0.0
H426 H 0.37972 0.95696 0.76254 0.0
H427 H 0.36782 0.99015 0.8036 0.0
H428 H 0.3702 0.91158 0.75691 0.0
H429 H 0.42997 0.96083 0.80386 0.0
H430 H 0.45406 0.98096 0.85589 0.0
H431 H 0.47266 0.91809 0.91632 0.0
H432 H 0.44833 0.8976 0.86506 0.0
H433 H 0.45631 0.89567 0.59876 0.0
H434 H 0.4266 0.90586 0.65107 0.0
H435 H 0.45163 0.8553 0.74065 0.0
H436 H 0.48114 0.84497 0.68802 0.0
H437 H 0.45248 0.89887 0.77254 0.0
H438 H 0.39947 0.85008 0.70783 0.0
H439 H 0.37827 0.83246 0.64826 0.0
H440 H 0.349 0.89663 0.6146 0.0
H441 H 0.37029 0.91474 0.67355 0.0
C442 C 0.38068 0.95545 0.88913 0.0
C443 C 0.37398 0.9751 0.8669 0.0
C444 C 0.38782 0.93649 0.86556 0.0
C445 C 0.38803 0.93704 0.8197 0.0
C446 C 0.37959 0.95611 0.79784 0.0
C447 C 0.37287 0.97507 0.82125 0.0
C448 C 0.39983 0.91945 0.79401 0.0
C449 C 0.38816 0.90859 0.76045 0.0
C450 C 0.4232 0.91538 0.79909 0.0
C451 C 0.43701 0.92773 0.83117 0.0
C452 C 0.4389 0.95134 0.8287 0.0
C453 C 0.45266 0.9628 0.85793 0.0
C454 C 0.46484 0.95081 0.88943 0.0
C455 C 0.46316 0.92735 0.89198 0.0
C456 C 0.44936 0.91581 0.8629 0.0
C457 C 0.45473 0.88611 0.6288 0.0
C458 C 0.47061 0.86939 0.63943 0.0
C459 C 0.43782 0.89189 0.65865 0.0
C460 C 0.43687 0.88123 0.69965 0.0
C461 C 0.45197 0.86356 0.70907 0.0
C462 C 0.4687 0.85762 0.67903 0.0
C463 C 0.42299 0.89129 0.73481 0.0
C464 C 0.43435 0.90099 0.76997 0.0
C465 C 0.39948 0.89456 0.73062 0.0
C466 C 0.38659 0.88379 0.69506 0.0
C467 C 0.38865 0.86048 0.68753 0.0
C468 C 0.37659 0.8504 0.6539 0.0
C469 C 0.36232 0.86342 0.62763 0.0
C470 C 0.36006 0.88656 0.63499 0.0
C471 C 0.3721 0.89674 0.66857 0.0
H472 H 0.35299 0.85558 0.60161 0.0
H473 H 0.47571 0.95969 0.91158 0.0
H474 H 0.58144 0.45763 0.59811 0.0
H475 H 0.57094 0.42857 0.65087 0.0
H476 H 0.64111 0.41319 0.67264 0.0
H477 H 0.65175 0.44304 0.62113 0.0
H478 H 0.5878 0.37826 0.68185 0.0
H479 H 0.64226 0.43931 0.7376 0.0
H480 H 0.65363 0.47885 0.72507 0.0
H481 H 0.58477 0.5005 0.7379 0.0
H482 H 0.5729 0.46102 0.74817 0.0
H483 H 0.53952 0.34973 0.88673 0.0
H484 H 0.57107 0.35718 0.83673 0.0
H485 H 0.54725 0.4257 0.8201 0.0
H486 H 0.51699 0.41879 0.87121 0.0
H487 H 0.58851 0.42712 0.81271 0.0
H488 H 0.53109 0.3785 0.75339 0.0
H489 H 0.50824 0.34398 0.74895 0.0
H490 H 0.56831 0.30416 0.73146 0.0
H491 H 0.59154 0.33844 0.73658 0.0
C492 C 0.59459 0.44755 0.61312 0.0
C493 C 0.61733 0.45312 0.60703 0.0
C494 C 0.58859 0.43075 0.64277 0.0
C495 C 0.60529 0.41916 0.66622 0.0
C496 C 0.62802 0.42214 0.65494 0.0
C497 C 0.63406 0.43919 0.62548 0.0
C498 C 0.59908 0.40952 0.70903 0.0
C499 C 0.58862 0.38845 0.71107 0.0
C500 C 0.59924 0.42344 0.7463 0.0
C501 C 0.60673 0.44723 0.74354 0.0
C502 C 0.62957 0.45252 0.73766 0.0
C503 C 0.63608 0.47489 0.73072 0.0
C504 C 0.61995 0.49217 0.73093 0.0
C505 C 0.59726 0.48711 0.73782 0.0
C506 C 0.59062 0.46474 0.74397 0.0
C507 C 0.54157 0.36657 0.87352 0.0
C508 C 0.52551 0.38355 0.88221 0.0
C509 C 0.55945 0.37075 0.84457 0.0
C510 C 0.56125 0.39184 0.82357 0.0
C511 C 0.54633 0.40924 0.83549 0.0
C512 C 0.52883 0.4052 0.86464 0.0
C513 C 0.5768 0.39569 0.78609 0.0
C514 C 0.58881 0.41603 0.78468 0.0
C515 C 0.57696 0.38157 0.7488 0.0
C516 C 0.56306 0.36095 0.74611 0.0
C517 C 0.53942 0.36235 0.74901 0.0
C518 C 0.52641 0.34284 0.74633 0.0
C519 C 0.53683 0.32188 0.74014 0.0
C520 C 0.56028 0.3204 0.73649 0.0
C521 C 0.57338 0.33985 0.73934 0.0
H522 H 0.52673 0.30681 0.73804 0.0
H523 H 0.62505 0.50947 0.7257 0.0
H524 H 0.0053 0.626 0.69884 0.0
H525 H 0.03813 0.61464 0.7411 0.0
H526 H 0.07955 0.61798 0.62547 0.0
H527 H 0.04634 0.62958 0.58246 0.0
H528 H 0.07917 0.57588 0.66998 0.0
H529 H 0.09219 0.65233 0.7033 0.0
H530 H 0.08241 0.6912 0.72463 0.0
H531 H 0.06047 0.66759 0.85019 0.0
H532 H 0.06959 0.6285 0.82937 0.0
H533 H 0.15577 0.52509 0.82293 0.0
H534 H 0.14406 0.5549 0.77135 0.0
H535 H 0.0831 0.56527 0.84586 0.0
H536 H 0.09432 0.53473 0.89574 0.0
H537 H 0.10443 0.60627 0.81181 0.0
H538 H 0.08056 0.53166 0.7737 0.0
H539 H 0.08294 0.49192 0.75152 0.0
H540 H 0.11752 0.51112 0.63411 0.0
H541 H 0.11647 0.55095 0.65674 0.0
C542 C 0.02148 0.62475 0.68249 0.0
C543 C 0.02333 0.62841 0.63738 0.0
C544 C 0.04027 0.61855 0.7068 0.0
C545 C 0.06129 0.61582 0.68655 0.0
C546 C 0.06347 0.62032 0.6417 0.0
C547 C 0.04458 0.6269 0.61726 0.0
C548 C 0.07961 0.6049 0.71163 0.0
C549 C 0.08552 0.58279 0.70019 0.0
C550 C 0.08705 0.61381 0.75172 0.0
C551 C 0.08161 0.63738 0.76468 0.0
C552 C 0.08515 0.65537 0.73538 0.0
C553 C 0.07974 0.67747 0.74741 0.0
C554 C 0.0709 0.68187 0.78879 0.0
C555 C 0.06745 0.66417 0.81823 0.0
C556 C 0.07274 0.64202 0.80631 0.0
C557 C 0.14029 0.53437 0.82886 0.0
C558 C 0.12603 0.52813 0.8634 0.0
C559 C 0.13356 0.5512 0.79941 0.0
C560 C 0.11273 0.5622 0.8049 0.0
C561 C 0.09932 0.55709 0.84139 0.0
C562 C 0.10573 0.53982 0.86993 0.0
C563 C 0.10345 0.57709 0.77052 0.0
C564 C 0.09907 0.59976 0.78057 0.0
C565 C 0.09686 0.56852 0.7295 0.0
C566 C 0.09915 0.54432 0.71774 0.0
C567 C 0.08942 0.52741 0.74395 0.0
C568 C 0.09042 0.50482 0.73115 0.0
C569 C 0.10064 0.49895 0.69169 0.0
C570 C 0.10988 0.51565 0.66495 0.0
C571 C 0.10924 0.53822 0.67791 0.0
H572 H 0.1012 0.48148 0.68163 0.0
H573 H 0.06665 0.69898 0.79798 0.0
H574 H 0.94466 0.13957 0.91191 0.0
H575 H 0.91221 0.13284 0.86342 0.0
H576 H 0.95694 0.10266 0.76876 0.0
H577 H 0.98874 0.10902 0.81603 0.0
H578 H 0.9262 0.13435 0.73257 0.0
H579 H 0.9282 0.06728 0.8323 0.0
H580 H 0.92498 0.0501 0.90563 0.0
H581 H 0.86069 0.08247 0.92388 0.0
H582 H 0.86356 0.09977 0.85062 0.0
H583 H 0.91022 0.03846 0.61574 0.0
H584 H 0.91769 0.07034 0.66318 0.0
H585 H 0.84667 0.07659 0.6917 0.0
H586 H 0.83907 0.04469 0.64283 0.0
H587 H 0.87464 0.07109 0.76593 0.0
H588 H 0.86957 0.12112 0.64645 0.0
H589 H 0.87476 0.13442 0.57083 0.0
H590 H 0.94655 0.13326 0.58752 0.0
H591 H 0.94186 0.1196 0.66296 0.0
C592 C 0.94743 0.1316 0.88064 0.0
C593 C 0.96922 0.12466 0.86799 0.0
C594 C 0.92896 0.12779 0.85307 0.0
C595 C 0.93226 0.11743 0.81237 0.0
C596 C 0.95403 0.11089 0.79977 0.0
C597 C 0.9722 0.11438 0.82715 0.0
C598 C 0.91352 0.11214 0.78248 0.0
C599 C 0.91453 0.12085 0.73987 0.0
C600 C 0.8978 0.0951 0.79245 0.0
C601 C 0.89623 0.08501 0.83648 0.0
C602 C 0.91349 0.07085 0.85219 0.0
C603 C 0.91171 0.06106 0.89362 0.0
C604 C 0.89273 0.06531 0.91949 0.0
C605 C 0.87543 0.07926 0.90388 0.0
C606 C 0.8771 0.08903 0.86241 0.0
C607 C 0.89613 0.04719 0.63081 0.0
C608 C 0.8741 0.03937 0.62533 0.0
C609 C 0.90037 0.0654 0.65789 0.0
C610 C 0.8827 0.07599 0.68063 0.0
C611 C 0.86048 0.06881 0.674 0.0
C612 C 0.85616 0.05074 0.64595 0.0
C613 C 0.88848 0.09225 0.71527 0.0
C614 C 0.88515 0.08555 0.75878 0.0
C615 C 0.90228 0.11102 0.70596 0.0
C616 C 0.90532 0.11942 0.66058 0.0
C617 C 0.88648 0.12363 0.63398 0.0
C618 C 0.88933 0.13123 0.59112 0.0
C619 C 0.91096 0.13475 0.57444 0.0
C620 C 0.92979 0.13064 0.60057 0.0
C621 C 0.92704 0.12301 0.64344 0.0
H622 H 0.91314 0.1406 0.54122 0.0
H623 H 0.89138 0.05773 0.95155 0.0
H624 H 0.70941 0.0113 0.96027 0.0
H625 H 0.73356 0.00907 0.89532 0.0
H626 H 0.72098 0.93765 0.88703 0.0
H627 H 0.69653 0.93987 0.95094 0.0
H628 H 0.77085 0.98762 0.87228 0.0
H629 H 0.7153 0.92201 0.78259 0.0
H630 H 0.67532 0.91107 0.77901 0.0
H631 H 0.65523 0.97737 0.82012 0.0
H632 H 0.69505 0.98881 0.82332 0.0
H633 H 0.83333 0.94113 0.70201 0.0
H634 H 0.80717 0.94309 0.76329 0.0
H635 H 0.76064 0.98208 0.68531 0.0
H636 H 0.7867 0.98023 0.62348 0.0
H637 H 0.73879 0.95272 0.73967 0.0
H638 H 0.79449 0.00939 0.74943 0.0
H639 H 0.83278 0.02524 0.74941 0.0
H640 H 0.84953 0.9854 0.86218 0.0
H641 H 0.81142 0.96902 0.86243 0.0
C642 C 0.71206 0.99509 0.94488 0.0
C643 C 0.70092 0.97581 0.9604 0.0
C644 C 0.72582 0.99384 0.90776 0.0
C645 C 0.72866 0.97328 0.88574 0.0
C646 C 0.71858 0.9538 0.9028 0.0
C647 C 0.70471 0.95507 0.93952 0.0
C648 C 0.74158 0.97217 0.84424 0.0
C649 C 0.76384 0.97997 0.84335 0.0
C650 C 0.73221 0.96283 0.80596 0.0
C651 C 0.70818 0.95618 0.80359 0.0
C652 C 0.70235 0.93428 0.79068 0.0
C653 C 0.67971 0.92799 0.78875 0.0
C654 C 0.66275 0.94349 0.79946 0.0
C655 C 0.66839 0.96535 0.81198 0.0
C656 C 0.69099 0.97174 0.81391 0.0
C657 C 0.81735 0.94974 0.6974 0.0
C658 C 0.81232 0.96083 0.65788 0.0
C659 C 0.80246 0.95093 0.73263 0.0
C660 C 0.78226 0.9632 0.72911 0.0
C661 C 0.77627 0.97269 0.68875 0.0
C662 C 0.79119 0.97155 0.6534 0.0
C663 C 0.76824 0.96737 0.76837 0.0
C664 C 0.74578 0.96028 0.76871 0.0
C665 C 0.77718 0.97802 0.80567 0.0
C666 C 0.80015 0.98781 0.8057 0.0
C667 C 0.8064 0.00385 0.774 0.0
C668 C 0.82806 0.01296 0.77398 0.0
C669 C 0.84359 0.0063 0.80573 0.0
C670 C 0.83748 0.99053 0.83758 0.0
C671 C 0.81585 0.98133 0.83769 0.0
H672 H 0.86035 0.01339 0.8057 0.0
H673 H 0.64525 0.93858 0.79799 0.0
H674 H 0.57618 0.82411 0.68973 0.0
H675 H 0.57557 0.7978 0.75168 0.0
H676 H 0.51968 0.7629 0.69441 0.0
H677 H 0.52047 0.78864 0.63193 0.0
H678 H 0.51444 0.78367 0.78533 0.0
H679 H 0.56143 0.7342 0.69722 0.0
H680 H 0.59512 0.7253 0.65308 0.0
H681 H 0.63766 0.74061 0.76172 0.0
H682 H 0.60421 0.74993 0.80633 0.0
H683 H 0.49327 0.69761 0.93945 0.0
H684 H 0.49892 0.72162 0.87561 0.0
H685 H 0.56889 0.72961 0.91021 0.0
H686 H 0.56353 0.70407 0.97231 0.0
H687 H 0.5684 0.72381 0.83053 0.0
H688 H 0.52502 0.7734 0.91977 0.0
H689 H 0.49352 0.78585 0.9667 0.0
H690 H 0.44707 0.77567 0.86179 0.0
H691 H 0.47825 0.76287 0.81438 0.0
C692 C 0.5642 0.81041 0.68966 0.0
C693 C 0.54835 0.80852 0.65586 0.0
C694 C 0.56385 0.79545 0.72513 0.0
C695 C 0.54746 0.77858 0.72766 0.0
C696 C 0.53243 0.77586 0.69297 0.0
C697 C 0.53305 0.7905 0.65711 0.0
C698 C 0.54452 0.76528 0.76827 0.0
C699 C 0.52603 0.77035 0.79513 0.0
C700 C 0.56024 0.7487 0.78172 0.0
C701 C 0.58033 0.74301 0.75494 0.0
C702 C 0.57797 0.7359 0.71156 0.0
C703 C 0.59703 0.73072 0.68649 0.0
C704 C 0.61852 0.73245 0.70454 0.0
C705 C 0.621 0.7393 0.74776 0.0
C706 C 0.602 0.74452 0.77295 0.0
C707 C 0.50975 0.70483 0.93381 0.0
C708 C 0.52793 0.69916 0.96098 0.0
C709 C 0.51299 0.71867 0.8973 0.0
C710 C 0.53429 0.72791 0.88812 0.0
C711 C 0.5523 0.72275 0.91624 0.0
C712 C 0.54921 0.7083 0.95198 0.0
C713 C 0.538 0.74194 0.84813 0.0
C714 C 0.55671 0.73713 0.82125 0.0
C715 C 0.52278 0.75928 0.83523 0.0
C716 C 0.50396 0.76698 0.86365 0.0
C717 C 0.50807 0.77367 0.9068 0.0
C718 C 0.49027 0.78081 0.93347 0.0
C719 C 0.4683 0.7815 0.91727 0.0
C720 C 0.46409 0.7751 0.87431 0.0
C721 C 0.48183 0.76793 0.84751 0.0
H722 H 0.45455 0.78703 0.93797 0.0
H723 H 0.63325 0.72843 0.68508 0.0
H724 H 0.79418 0.4812 0.96472 0.0
H725 H 0.76843 0.48356 0.90283 0.0
H726 H 0.77996 0.55519 0.89312 0.0
H727 H 0.80623 0.5528 0.95417 0.0
H728 H 0.73053 0.50388 0.88675 0.0
H729 H 0.7779 0.5719 0.78692 0.0
H730 H 0.81659 0.58605 0.77704 0.0
H731 H 0.84342 0.52159 0.81592 0.0
H732 H 0.80491 0.50699 0.82546 0.0
H733 H 0.66096 0.54084 0.71505 0.0
H734 H 0.68665 0.54013 0.77668 0.0
H735 H 0.73708 0.50689 0.69784 0.0
H736 H 0.71153 0.50781 0.6354 0.0
H737 H 0.7561 0.53805 0.74722 0.0
H738 H 0.70893 0.47341 0.77902 0.0
H739 H 0.67349 0.45254 0.78921 0.0
H740 H 0.65023 0.50227 0.88053 0.0
H741 H 0.68598 0.52298 0.87198 0.0
C742 C 0.79108 0.49749 0.94965 0.0
C743 C 0.80235 0.51679 0.96414 0.0
C744 C 0.77636 0.49882 0.91424 0.0
C745 C 0.77254 0.51948 0.89276 0.0
C746 C 0.78301 0.53896 0.90848 0.0
C747 C 0.79791 0.5376 0.9436 0.0
C748 C 0.75789 0.52048 0.85356 0.0
C749 C 0.73615 0.51146 0.85636 0.0
C750 C 0.76528 0.52993 0.81346 0.0
C751 C 0.78852 0.53845 0.80735 0.0
C752 C 0.79206 0.56074 0.79322 0.0
C753 C 0.81396 0.56883 0.78769 0.0
C754 C 0.83245 0.55475 0.79599 0.0
C755 C 0.82909 0.53251 0.80966 0.0
C756 C 0.80723 0.52432 0.81518 0.0
C757 C 0.67757 0.53353 0.71048 0.0
C758 C 0.68409 0.52432 0.67007 0.0
C759 C 0.69219 0.53296 0.74601 0.0
C760 C 0.71364 0.52305 0.74221 0.0
C761 C 0.72056 0.51453 0.70161 0.0
C762 C 0.70592 0.51511 0.6659 0.0
C763 C 0.72876 0.52159 0.78068 0.0
C764 C 0.75051 0.53062 0.77776 0.0
C765 C 0.72168 0.51161 0.82037 0.0
C766 C 0.69992 0.49981 0.82451 0.0
C767 C 0.69618 0.47992 0.80109 0.0
C768 C 0.67614 0.46804 0.80684 0.0
C769 C 0.65952 0.47617 0.83523 0.0
C770 C 0.66308 0.49603 0.85844 0.0
C771 C 0.6833 0.50774 0.85346 0.0
H772 H 0.64392 0.46704 0.83929 0.0
H773 H 0.84939 0.56105 0.79174 0.0
H774 H 0.99304 0.82924 0.90427 0.0
H775 H 0.98937 0.80563 0.8395 0.0
H776 H 0.97079 0.74919 0.92114 0.0
H777 H 0.97517 0.77284 0.98625 0.0
H778 H 0.99601 0.73499 0.85464 0.0
H779 H 0.93081 0.78206 0.8701 0.0
H780 H 0.90964 0.81768 0.87907 0.0
H781 H 0.93619 0.84218 0.75747 0.0
H782 H 0.95779 0.8068 0.74808 0.0
H783 H 0.93569 0.67211 0.7007 0.0
H784 H 0.94163 0.69798 0.76079 0.0
H785 H 0.9757 0.74405 0.67428 0.0
H786 H 0.97031 0.71795 0.61349 0.0
H787 H 0.94369 0.76383 0.74099 0.0
H788 H 0.00772 0.71354 0.72625 0.0
H789 H 0.02596 0.6762 0.71937 0.0
H790 H 0.99836 0.65611 0.84302 0.0
H791 H 0.9795 0.69313 0.85022 0.0
C792 C 0.98876 0.81161 0.9083 0.0
C793 C 0.98462 0.80267 0.94996 0.0
C794 C 0.98642 0.79821 0.87133 0.0
C795 C 0.97932 0.77574 0.87529 0.0
C796 C 0.97622 0.76648 0.91722 0.0
C797 C 0.9788 0.77991 0.95437 0.0
C798 C 0.97405 0.76239 0.83567 0.0
C799 C 0.98442 0.74124 0.83004 0.0
C800 C 0.9591 0.77059 0.80314 0.0
C801 C 0.94611 0.79188 0.80863 0.0
C802 C 0.93228 0.79512 0.84544 0.0
C803 C 0.92018 0.81525 0.85058 0.0
C804 C 0.92162 0.83221 0.81892 0.0
C805 C 0.93513 0.82904 0.782 0.0
C806 C 0.94729 0.80895 0.77675 0.0
C807 C 0.94404 0.68793 0.69389 0.0
C808 C 0.95274 0.69275 0.65206 0.0
C809 C 0.9475 0.70265 0.72852 0.0
C810 C 0.95944 0.72269 0.72209 0.0
C811 C 0.96656 0.72855 0.67987 0.0
C812 C 0.96338 0.71363 0.64514 0.0
C813 C 0.96567 0.73659 0.76015 0.0
C814 C 0.95542 0.75775 0.7655 0.0
C815 C 0.98045 0.72825 0.79271 0.0
C816 C 0.99195 0.70603 0.78851 0.0
C817 C 0.0053 0.70107 0.75174 0.0
C818 C 0.01575 0.67996 0.74778 0.0
C819 C 0.01318 0.66377 0.78062 0.0
C820 C 0.00024 0.66865 0.81754 0.0
C821 C 0.98966 0.68969 0.82156 0.0
H822 H 0.02135 0.6475 0.77771 0.0
H823 H 0.91223 0.84779 0.82294 0.0
H824 H 0.21517 0.9924 0.54815 0.0
H825 H 0.23949 0.99892 0.61119 0.0
H826 H 0.21253 0.06638 0.62303 0.0
H827 H 0.18805 0.05991 0.56066 0.0
H828 H 0.2723 0.02766 0.62914 0.0
H829 H 0.20768 0.07994 0.7304 0.0
H830 H 0.16649 0.08309 0.74013 0.0
H831 H 0.15874 0.01476 0.69737 0.0
H832 H 0.19989 0.0111 0.688 0.0
H833 H 0.33203 0.07457 0.8023 0.0
H834 H 0.30542 0.0724 0.74201 0.0
H835 H 0.26408 0.02689 0.81708 0.0
H836 H 0.29028 0.02934 0.87793 0.0
H837 H 0.23809 0.05296 0.76865 0.0
H838 H 0.30311 0.00642 0.74368 0.0
H839 H 0.34369 0.99781 0.73704 0.0
H840 H 0.34947 0.04579 0.63233 0.0
H841 H 0.3089 0.05477 0.63852 0.0
C842 C 0.21456 0.00868 0.56399 0.0
C843 C 0.19959 0.02558 0.54953 0.0
C844 C 0.22848 0.01239 0.6 0.0
C845 C 0.2276 0.03303 0.62231 0.0
C846 C 0.21322 0.05018 0.60691 0.0
C847 C 0.19931 0.04648 0.57104 0.0
C848 C 0.2414 0.03655 0.66207 0.0
C849 C 0.2648 0.03327 0.65955 0.0
C850 C 0.23162 0.04337 0.70217 0.0
C851 C 0.20685 0.04536 0.70803 0.0
C852 C 0.19719 0.06558 0.7232 0.0
C853 C 0.17385 0.06745 0.72864 0.0
C854 C 0.16 0.04917 0.71922 0.0
C855 C 0.16948 0.02894 0.70448 0.0
C856 C 0.1928 0.02697 0.69904 0.0
C857 C 0.31702 0.0645 0.80647 0.0
C858 C 0.3135 0.05191 0.84491 0.0
C859 C 0.30188 0.06315 0.77177 0.0
C860 C 0.28306 0.04898 0.77452 0.0
C861 C 0.27857 0.0378 0.81402 0.0
C862 C 0.2936 0.03927 0.84891 0.0
C863 C 0.26903 0.04455 0.73541 0.0
C864 C 0.24558 0.04758 0.73808 0.0
C865 C 0.27868 0.03683 0.69581 0.0
C866 C 0.30303 0.03141 0.69184 0.0
C867 C 0.31307 0.01523 0.71942 0.0
C868 C 0.33606 0.01027 0.71572 0.0
C869 C 0.34918 0.02132 0.68442 0.0
C870 C 0.3393 0.03728 0.65661 0.0
C871 C 0.3163 0.04228 0.66014 0.0
H872 H 0.36698 0.01747 0.68162 0.0
H873 H 0.14194 0.05065 0.72343 0.0
H874 H 0.50112 0.22416 0.52563 0.0
H875 H 0.49565 0.25002 0.58706 0.0
H876 H 0.44715 0.20435 0.64348 0.0
H877 H 0.45162 0.17935 0.5814 0.0
H878 H 0.43196 0.24324 0.65435 0.0
H879 H 0.5057 0.2101 0.67733 0.0
H880 H 0.54527 0.20085 0.65949 0.0
H881 H 0.56062 0.27138 0.6503 0.0
H882 H 0.52107 0.28103 0.66732 0.0
H883 H 0.47377 0.29187 0.8773 0.0
H884 H 0.47669 0.26554 0.81641 0.0
H885 H 0.43722 0.31085 0.73648 0.0
H886 H 0.43389 0.33705 0.79707 0.0
H887 H 0.4966 0.27208 0.73889 0.0
H888 H 0.40811 0.28207 0.66307 0.0
H889 H 0.36885 0.2887 0.6869 0.0
H890 H 0.38359 0.25859 0.81128 0.0
H891 H 0.42286 0.25164 0.78806 0.0
C892 C 0.4892 0.2198 0.55108 0.0
C893 C 0.47677 0.19977 0.54865 0.0
C894 C 0.4862 0.23448 0.58639 0.0
C895 C 0.47121 0.22905 0.62052 0.0
C896 C 0.45874 0.20908 0.6177 0.0
C897 C 0.46134 0.19473 0.58211 0.0
C898 C 0.46822 0.24395 0.65925 0.0
C899 C 0.44618 0.2495 0.67269 0.0
C900 C 0.48664 0.2521 0.68379 0.0
C901 C 0.51037 0.24627 0.67311 0.0
C902 C 0.51747 0.22362 0.67111 0.0
C903 C 0.5399 0.21831 0.66118 0.0
C904 C 0.55543 0.23551 0.65361 0.0
C905 C 0.54857 0.25807 0.65603 0.0
C906 C 0.52615 0.26347 0.66581 0.0
C907 C 0.46528 0.29605 0.8471 0.0
C908 C 0.45357 0.31665 0.84227 0.0
C909 C 0.46715 0.28104 0.81217 0.0
C910 C 0.4572 0.28621 0.77183 0.0
C911 C 0.44485 0.30636 0.76738 0.0
C912 C 0.44297 0.32136 0.8022 0.0
C913 C 0.46046 0.27104 0.73384 0.0
C914 C 0.48249 0.26568 0.72042 0.0
C915 C 0.44208 0.26261 0.70989 0.0
C916 C 0.41844 0.26652 0.72393 0.0
C917 C 0.40293 0.2768 0.69543 0.0
C918 C 0.38069 0.28064 0.70886 0.0
C919 C 0.37375 0.27412 0.75062 0.0
C920 C 0.38901 0.26371 0.77901 0.0
C921 C 0.41127 0.25986 0.76577 0.0
H922 H 0.35652 0.27711 0.76094 0.0
H923 H 0.57279 0.23136 0.64599 0.0
H924 H 0.29657 0.51299 0.54851 0.0
H925 H 0.273 0.50674 0.61305 0.0
H926 H 0.28123 0.43479 0.59829 0.0
H927 H 0.30549 0.441 0.53495 0.0
H928 H 0.23544 0.48843 0.63067 0.0
H929 H 0.28198 0.4082 0.69563 0.0
H930 H 0.32022 0.39156 0.6948 0.0
H931 H 0.34868 0.45725 0.67566 0.0
H932 H 0.31066 0.47431 0.67698 0.0
H933 H 0.1675 0.43687 0.78621 0.0
H934 H 0.19442 0.43925 0.72627 0.0
H935 H 0.2437 0.46774 0.8124 0.0
H936 H 0.21679 0.4656 0.87296 0.0
H937 H 0.26254 0.43774 0.74906 0.0
H938 H 0.21823 0.5048 0.75647 0.0
H939 H 0.18337 0.52726 0.76436 0.0
H940 H 0.15626 0.49629 0.64993 0.0
H941 H 0.19111 0.47379 0.64118 0.0
C942 C 0.29313 0.49584 0.55879 0.0
C943 C 0.30298 0.47749 0.53688 0.0
C944 C 0.2797 0.49228 0.59575 0.0
C945 C 0.27572 0.47029 0.61124 0.0
C946 C 0.28456 0.45193 0.58785 0.0
C947 C 0.29826 0.4555 0.55137 0.0
C948 C 0.26251 0.46658 0.65199 0.0
C949 C 0.24145 0.47728 0.65634 0.0
C950 C 0.27049 0.45258 0.68642 0.0
C951 C 0.29344 0.44249 0.68594 0.0
C952 C 0.29641 0.4191 0.69139 0.0
C953 C 0.31804 0.40959 0.69082 0.0
C954 C 0.33686 0.42333 0.68503 0.0
C955 C 0.33409 0.44661 0.67996 0.0
C956 C 0.3125 0.45621 0.68057 0.0
C957 C 0.18421 0.44316 0.79291 0.0
C958 C 0.18981 0.45132 0.83448 0.0
C959 C 0.19957 0.44456 0.75845 0.0
C960 C 0.22089 0.45398 0.7648 0.0
C961 C 0.22727 0.46047 0.80686 0.0
C962 C 0.21183 0.45923 0.84142 0.0
C963 C 0.23545 0.45906 0.72667 0.0
C964 C 0.25666 0.44871 0.72301 0.0
C965 C 0.22811 0.47406 0.69361 0.0
C966 C 0.20713 0.48749 0.69843 0.0
C967 C 0.20475 0.50269 0.73317 0.0
C968 C 0.18501 0.51545 0.73778 0.0
C969 C 0.16749 0.51308 0.70793 0.0
C970 C 0.16978 0.49808 0.67315 0.0
C971 C 0.18957 0.48539 0.66821 0.0
H972 H 0.15224 0.52295 0.71174 0.0
H973 H 0.35359 0.41593 0.68456 0.0
H974 H 0.01012 0.27382 0.52046 0.0
H975 H 0.01644 0.24809 0.58223 0.0
H976 H 0.04266 0.30342 0.65736 0.0
H977 H 0.03838 0.32829 0.59442 0.0
H978 H 0.06578 0.27152 0.67795 0.0
H979 H 0.98516 0.27775 0.66715 0.0
H980 H 0.94789 0.27559 0.63211 0.0
H981 H 0.95792 0.20479 0.60976 0.0
H982 H 0.99537 0.20659 0.6442 0.0
H983 H 0.03087 0.2141 0.88566 0.0
H984 H 0.03034 0.24043 0.82358 0.0
H985 H 0.05564 0.18802 0.73952 0.0
H986 H 0.05688 0.16184 0.80091 0.0
H987 H 0.0069 0.21784 0.72583 0.0
H988 H 0.09034 0.21563 0.73704 0.0
H989 H 0.1252 0.22053 0.77942 0.0
H990 H 0.10535 0.28844 0.81007 0.0
H991 H 0.0702 0.28377 0.76837 0.0
C992 C 0.01738 0.28029 0.55018 0.0
C993 C 0.02386 0.30293 0.55279 0.0
C994 C 0.02077 0.26568 0.58574 0.0
C995 C 0.0296 0.27376 0.62531 0.0
C996 C 0.03595 0.29652 0.62751 0.0
C997 C 0.03344 0.31081 0.59152 0.0
C998 C 0.03251 0.25875 0.66436 0.0
C999 C 0.05267 0.26002 0.68835 0.0
C1000 C 0.01565 0.24347 0.67859 0.0
C1001 C 0.99315 0.24236 0.65783 0.0
C1002 C 0.97947 0.26176 0.6545 0.0
C1003 C 0.95831 0.26059 0.63478 0.0
C1004 C 0.95058 0.24008 0.6186 0.0
C1005 C 0.96395 0.22067 0.62222 0.0
C1006 C 0.98514 0.22175 0.64186 0.0
C1007 C 0.03687 0.20831 0.85424 0.0
C1008 C 0.04389 0.18577 0.8485 0.0
C1009 C 0.03647 0.22336 0.8188 0.0
C1010 C 0.0429 0.21608 0.77708 0.0
C1011 C 0.05069 0.19394 0.77154 0.0
C1012 C 0.05145 0.17903 0.80689 0.0
C1013 C 0.03988 0.23091 0.73851 0.0
C1014 C 0.01977 0.22951 0.71494 0.0
C1015 C 0.05642 0.24648 0.72535 0.0
C1016 C 0.07755 0.24925 0.75015 0.0
C1017 C 0.0933 0.2315 0.75326 0.0
C1018 C 0.11313 0.23426 0.77703 0.0
C1019 C 0.11745 0.25475 0.79757 0.0
C1020 C 0.10197 0.27255 0.79424 0.0
C1021 C 0.0821 0.26986 0.77054 0.0
H1022 H 0.13281 0.25686 0.81594 0.0
H1023 H 0.93419 0.23922 0.60335 0.0
H1024 H 0.21438 0.0238 0.38276 0.0
H1025 H 0.2422 0.02558 0.32373 0.0
H1026 H 0.19298 0.05775 0.2405 0.0
H1027 H 0.16547 0.05671 0.29919 0.0
H1028 H 0.24128 0.00499 0.24871 0.0
H1029 H 0.21686 0.09008 0.16455 0.0
H1030 H 0.20429 0.12828 0.18548 0.0
H1031 H 0.23433 0.11956 0.31162 0.0
H1032 H 0.24734 0.08145 0.29127 0.0
H1033 H 0.28222 0.00298 0.03102 0.0
H1034 H 0.25792 0.0063 0.09564 0.0
H1035 H 0.29727 0.06262 0.13986 0.0
H1036 H 0.32066 0.06008 0.07488 0.0
H1037 H 0.25679 0.0718 0.15571 0.0
H1038 H 0.303 0.00665 0.18214 0.0
H1039 H 0.31973 0.96931 0.16686 0.0
H1040 H 0.25385 0.93987 0.16648 0.0
H1041 H 0.2367 0.97711 0.18121 0.0
C1042 C 0.20965 0.03177 0.35226 0.0
C1043 C 0.18761 0.04004 0.34583 0.0
C1044 C 0.22553 0.03261 0.31841 0.0
C1045 C 0.21973 0.04182 0.27762 0.0
C1046 C 0.19804 0.05087 0.27178 0.0
C1047 C 0.18224 0.05016 0.30551 0.0
C1048 C 0.23565 0.04068 0.24015 0.0
C1049 C 0.2448 0.01964 0.22852 0.0
C1050 C 0.24052 0.05981 0.21408 0.0
C1051 C 0.2329 0.08281 0.22647 0.0
C1052 C 0.22087 0.09635 0.19668 0.0
C1053 C 0.21365 0.11798 0.20847 0.0
C1054 C 0.21845 0.12631 0.24989 0.0
C1055 C 0.23054 0.11305 0.2796 0.0
C1056 C 0.23781 0.09142 0.26797 0.0
C1057 C 0.28548 0.01618 0.05439 0.0
C1058 C 0.30333 0.03126 0.04784 0.0
C1059 C 0.27173 0.01796 0.0915 0.0
C1060 C 0.27596 0.03449 0.12316 0.0
C1061 C 0.29356 0.04975 0.11605 0.0
C1062 C 0.30698 0.04825 0.07877 0.0
C1063 C 0.26228 0.03604 0.16386 0.0
C1064 C 0.25343 0.05716 0.17599 0.0
C1065 C 0.25831 0.01712 0.19115 0.0
C1066 C 0.26857 0.9947 0.18236 0.0
C1067 C 0.29208 0.99224 0.1785 0.0
C1068 C 0.30163 0.97109 0.16998 0.0
C1069 C 0.28786 0.95224 0.16559 0.0
C1070 C 0.2645 0.95449 0.16983 0.0
C1071 C 0.25485 0.97561 0.17829 0.0
H1072 H 0.29529 0.93587 0.159 0.0
H1073 H 0.21284 0.14306 0.25895 0.0
H1074 H 0.47887 0.21156 0.37542 0.0
H1075 H 0.47804 0.23744 0.31318 0.0
H1076 H 0.43442 0.19204 0.24445 0.0
H1077 H 0.43544 0.16592 0.30613 0.0
H1078 H 0.46879 0.20308 0.19445 0.0
H1079 H 0.41554 0.24362 0.28301 0.0
H1080 H 0.40168 0.26263 0.34931 0.0
H1081 H 0.4559 0.31 0.34086 0.0
H1082 H 0.47027 0.29109 0.27481 0.0
H1083 H 0.43404 0.30889 0.05776 0.0
H1084 H 0.43042 0.28345 0.11996 0.0
H1085 H 0.50005 0.26343 0.10546 0.0
H1086 H 0.50382 0.28895 0.04258 0.0
H1087 H 0.45157 0.28503 0.19657 0.0
H1088 H 0.50489 0.20801 0.14238 0.0
H1089 H 0.51571 0.18815 0.07491 0.0
H1090 H 0.45568 0.21255 0.01214 0.0
H1091 H 0.44435 0.23227 0.0794 0.0
C1092 C 0.4686 0.20732 0.34756 0.0
C1093 C 0.45731 0.18656 0.3458 0.0
C1094 C 0.46821 0.22214 0.31186 0.0
C1095 C 0.45627 0.21665 0.27394 0.0
C1096 C 0.44393 0.19656 0.27314 0.0
C1097 C 0.44442 0.18169 0.30863 0.0
C1098 C 0.45777 0.23101 0.2341 0.0
C1099 C 0.465 0.22101 0.19496 0.0
C1100 C 0.45273 0.25437 0.23454 0.0
C1101 C 0.4441 0.26581 0.27419 0.0
C1102 C 0.42461 0.25799 0.29548 0.0
C1103 C 0.41664 0.26876 0.33298 0.0
C1104 C 0.42793 0.28747 0.34935 0.0
C1105 C 0.44719 0.29549 0.32818 0.0
C1106 C 0.45524 0.28476 0.29068 0.0
C1107 C 0.44858 0.29893 0.06739 0.0
C1108 C 0.46926 0.30098 0.04518 0.0
C1109 C 0.44648 0.28446 0.10318 0.0
C1110 C 0.46494 0.27157 0.11753 0.0
C1111 C 0.48552 0.2731 0.09479 0.0
C1112 C 0.48765 0.28767 0.05885 0.0
C1113 C 0.46263 0.2571 0.15703 0.0
C1114 C 0.45539 0.26711 0.19613 0.0
C1115 C 0.46731 0.23368 0.1564 0.0
C1116 C 0.47393 0.22184 0.11578 0.0
C1117 C 0.49399 0.2091 0.1142 0.0
C1118 C 0.5002 0.19786 0.076 0.0
C1119 C 0.48644 0.19916 0.03921 0.0
C1120 C 0.46638 0.21164 0.04059 0.0
C1121 C 0.46007 0.22288 0.07873 0.0
H1122 H 0.49128 0.19045 0.00966 0.0
H1123 H 0.42174 0.29579 0.37839 0.0
H1124 H 0.32624 0.43197 0.31589 0.0
H1125 H 0.30042 0.43146 0.25375 0.0
H1126 H 0.28393 0.50156 0.27629 0.0
H1127 H 0.30809 0.50132 0.34044 0.0
H1128 H 0.24898 0.48434 0.25137 0.0
H1129 H 0.32394 0.4802 0.19064 0.0
H1130 H 0.36237 0.46461 0.18193 0.0
H1131 H 0.33489 0.40111 0.1426 0.0
H1132 H 0.29633 0.41631 0.15182 0.0
H1133 H 0.21132 0.51051 0.03597 0.0
H1134 H 0.23694 0.50779 0.09845 0.0
H1135 H 0.22967 0.43551 0.09987 0.0
H1136 H 0.20375 0.43811 0.03811 0.0
H1137 H 0.27596 0.4527 0.111 0.0
H1138 H 0.19985 0.46115 0.16785 0.0
H1139 H 0.16293 0.48031 0.17364 0.0
H1140 H 0.19534 0.54084 0.21595 0.0
H1141 H 0.23249 0.52212 0.20978 0.0
C1142 C 0.31665 0.44705 0.30794 0.0
C1143 C 0.31888 0.46659 0.33309 0.0
C1144 C 0.30218 0.44692 0.272 0.0
C1145 C 0.29058 0.46667 0.25921 0.0
C1146 C 0.29252 0.48603 0.28519 0.0
C1147 C 0.30631 0.4859 0.322 0.0
C1148 C 0.2766 0.46743 0.21879 0.0
C1149 C 0.25515 0.47767 0.22068 0.0
C1150 C 0.28422 0.45848 0.17844 0.0
C1151 C 0.30733 0.4493 0.17255 0.0
C1152 C 0.32616 0.46286 0.18058 0.0
C1153 C 0.34794 0.45411 0.17546 0.0
C1154 C 0.35108 0.43184 0.16187 0.0
C1155 C 0.33244 0.41833 0.15323 0.0
C1156 C 0.31062 0.42702 0.15837 0.0
C1157 C 0.21546 0.49403 0.0492 0.0
C1158 C 0.20549 0.47453 0.03229 0.0
C1159 C 0.23 0.49251 0.08494 0.0
C1160 C 0.23505 0.47146 0.10385 0.0
C1161 C 0.22596 0.45189 0.08572 0.0
C1162 C 0.21113 0.45343 0.05053 0.0
C1163 C 0.24884 0.4699 0.14393 0.0
C1164 C 0.27005 0.45941 0.14187 0.0
C1165 C 0.2413 0.47915 0.1838 0.0
C1166 C 0.21895 0.49031 0.18793 0.0
C1167 C 0.19911 0.4786 0.17803 0.0
C1168 C 0.17814 0.48937 0.18145 0.0
C1169 C 0.17679 0.5118 0.19504 0.0
C1170 C 0.19641 0.52348 0.20537 0.0
C1171 C 0.21742 0.5128 0.20195 0.0
H1172 H 0.16055 0.52011 0.19766 0.0
H1173 H 0.36795 0.42508 0.15791 0.0
H1174 H 0.04773 0.18704 0.0768 0.0
H1175 H 0.04962 0.21264 0.138 0.0
H1176 H 0.99018 0.24756 0.09189 0.0
H1177 H 0.98767 0.22105 0.03072 0.0
H1178 H 0.0566 0.25426 0.14569 0.0
H1179 H 0.96238 0.27169 0.17968 0.0
H1180 H 0.92547 0.25351 0.17006 0.0
H1181 H 0.95733 0.18826 0.17324 0.0
H1182 H 0.99437 0.20604 0.18344 0.0
H1183 H 0.04456 0.34386 0.29467 0.0
H1184 H 0.04193 0.31834 0.23333 0.0
H1185 H 0.01672 0.26613 0.31845 0.0
H1186 H 0.01872 0.29194 0.38047 0.0
H1187 H 0.99226 0.2682 0.24587 0.0
H1188 H 0.07111 0.26442 0.27757 0.0
H1189 H 0.10902 0.27937 0.29185 0.0
H1190 H 0.10985 0.31091 0.16554 0.0
H1191 H 0.0718 0.29639 0.15072 0.0
C1192 C 0.03502 0.20017 0.07938 0.0
C1193 C 0.01751 0.20195 0.04876 0.0
C1194 C 0.03617 0.2149 0.11456 0.0
C1195 C 0.01998 0.23202 0.12008 0.0
C1196 C 0.00269 0.23426 0.08894 0.0
C1197 C 0.00134 0.21921 0.05378 0.0
C1198 C 0.0216 0.24726 0.15856 0.0
C1199 C 0.04245 0.25731 0.16744 0.0
C1200 C 0.00333 0.25112 0.18756 0.0
C1201 C 0.98116 0.24022 0.18174 0.0
C1202 C 0.96149 0.25346 0.1784 0.0
C1203 C 0.94055 0.24323 0.17285 0.0
C1204 C 0.93907 0.21975 0.17086 0.0
C1205 C 0.95851 0.20645 0.17459 0.0
C1206 C 0.97948 0.21659 0.18021 0.0
C1207 C 0.03875 0.32687 0.3008 0.0
C1208 C 0.03199 0.32 0.3429 0.0
C1209 C 0.03726 0.31224 0.26544 0.0
C1210 C 0.02929 0.29021 0.27115 0.0
C1211 C 0.02291 0.28307 0.31318 0.0
C1212 C 0.02429 0.29778 0.34873 0.0
C1213 C 0.02727 0.27492 0.23298 0.0
C1214 C 0.00634 0.26508 0.22402 0.0
C1215 C 0.04563 0.27074 0.20443 0.0
C1216 C 0.06852 0.27948 0.2132 0.0
C1217 C 0.07931 0.27468 0.25297 0.0
C1218 C 0.10083 0.28305 0.26114 0.0
C1219 C 0.11181 0.29613 0.22967 0.0
C1220 C 0.10131 0.30081 0.18991 0.0
C1221 C 0.07978 0.29249 0.18159 0.0
H1222 H 0.12847 0.30259 0.23605 0.0
H1223 H 0.92285 0.21186 0.16653 0.0
H1224 H 0.66423 0.9374 0.20846 0.0
H1225 H 0.69024 0.94153 0.26913 0.0
H1226 H 0.73806 0.97414 0.18403 0.0
H1227 H 0.71217 0.97009 0.12283 0.0
H1228 H 0.75903 0.94681 0.24331 0.0
H1229 H 0.70512 0.00623 0.2433 0.0
H1230 H 0.6673 0.02366 0.24065 0.0
H1231 H 0.64936 0.99013 0.3601 0.0
H1232 H 0.68702 0.97224 0.36316 0.0
H1233 H 0.78965 0.01599 0.45138 0.0
H1234 H 0.76535 0.01095 0.38765 0.0
H1235 H 0.77824 0.93926 0.3919 0.0
H1236 H 0.80297 0.94429 0.45432 0.0
H1237 H 0.72829 0.98976 0.36898 0.0
H1238 H 0.78196 0.91758 0.29171 0.0
H1239 H 0.82166 0.90497 0.28908 0.0
H1240 H 0.84343 0.97238 0.31564 0.0
H1241 H 0.8039 0.98546 0.31782 0.0
C1242 C 0.68046 0.94501 0.2022 0.0
C1243 C 0.68592 0.95366 0.16066 0.0
C1244 C 0.69526 0.94749 0.23712 0.0
C1245 C 0.71584 0.9586 0.2313 0.0
C1246 C 0.72217 0.96567 0.18929 0.0
C1247 C 0.70732 0.96328 0.15429 0.0
C1248 C 0.73003 0.96407 0.26953 0.0
C1249 C 0.75231 0.95612 0.27087 0.0
C1250 C 0.7215 0.97696 0.30476 0.0
C1251 C 0.69883 0.98771 0.30323 0.0
C1252 C 0.69305 0.00242 0.26882 0.0
C1253 C 0.67165 0.01241 0.26726 0.0
C1254 C 0.65591 0.00795 0.30011 0.0
C1255 C 0.66156 0.99354 0.33464 0.0
C1256 C 0.68295 0.98349 0.33633 0.0
C1257 C 0.78708 0.99916 0.43893 0.0
C1258 C 0.79839 0.98058 0.45755 0.0
C1259 C 0.77322 0.99628 0.40249 0.0
C1260 C 0.77036 0.97478 0.38428 0.0
C1261 C 0.78065 0.95609 0.40451 0.0
C1262 C 0.79469 0.95899 0.44042 0.0
C1263 C 0.75714 0.9718 0.34357 0.0
C1264 C 0.73503 0.98034 0.3416 0.0
C1265 C 0.76609 0.9601 0.3071 0.0
C1266 C 0.78995 0.95244 0.30534 0.0
C1267 C 0.79523 0.92973 0.29681 0.0
C1268 C 0.8177 0.9225 0.29543 0.0
C1269 C 0.83505 0.93785 0.30232 0.0
C1270 C 0.82998 0.96049 0.31046 0.0
C1271 C 0.80754 0.96781 0.31182 0.0
H1272 H 0.85243 0.93221 0.30128 0.0
H1273 H 0.63935 0.01571 0.29886 0.0
H1274 H 0.5003 0.77584 0.48152 0.0
H1275 H 0.50351 0.74979 0.41953 0.0
H1276 H 0.55097 0.79435 0.35738 0.0
H1277 H 0.54848 0.81998 0.41946 0.0
H1278 H 0.508 0.77505 0.3061 0.0
H1279 H 0.57605 0.75705 0.39133 0.0
H1280 H 0.59477 0.74605 0.45996 0.0
H1281 H 0.55459 0.6862 0.46711 0.0
H1282 H 0.5354 0.69706 0.39881 0.0
H1283 H 0.54224 0.70791 0.12641 0.0
H1284 H 0.54135 0.73464 0.18712 0.0
H1285 H 0.5296 0.67964 0.27705 0.0
H1286 H 0.53223 0.65305 0.21743 0.0
H1287 H 0.55439 0.70527 0.31557 0.0
H1288 H 0.48626 0.71927 0.23645 0.0
H1289 H 0.46288 0.72813 0.17223 0.0
H1290 H 0.49582 0.792 0.15803 0.0
H1291 H 0.51959 0.78337 0.22191 0.0
C1292 C 0.51146 0.77999 0.45469 0.0
C1293 C 0.52423 0.79985 0.45543 0.0
C1294 C 0.51325 0.76516 0.41937 0.0
C1295 C 0.52743 0.77026 0.38398 0.0
C1296 C 0.53992 0.7902 0.3844 0.0
C1297 C 0.53855 0.80472 0.42001 0.0
C1298 C 0.52959 0.75467 0.34664 0.0
C1299 C 0.51828 0.75986 0.3078 0.0
C1300 C 0.54242 0.7346 0.34958 0.0
C1301 C 0.55413 0.728 0.3903 0.0
C1302 C 0.57106 0.74167 0.40778 0.0
C1303 C 0.58179 0.73543 0.44655 0.0
C1304 C 0.57583 0.71547 0.46796 0.0
C1305 C 0.55917 0.70167 0.45054 0.0
C1306 C 0.54838 0.70786 0.4118 0.0
C1307 C 0.53975 0.70159 0.15925 0.0
C1308 C 0.53737 0.67836 0.16707 0.0
C1309 C 0.53897 0.71689 0.19397 0.0
C1310 C 0.53489 0.70934 0.23692 0.0
C1311 C 0.53286 0.68607 0.24453 0.0
C1312 C 0.53432 0.67081 0.21021 0.0
C1313 C 0.53267 0.72539 0.27415 0.0
C1314 C 0.544 0.72036 0.31329 0.0
C1315 C 0.5192 0.74525 0.27187 0.0
C1316 C 0.50486 0.75056 0.23363 0.0
C1317 C 0.48861 0.73513 0.21944 0.0
C1318 C 0.47528 0.74012 0.18314 0.0
C1319 C 0.47791 0.76059 0.16097 0.0
C1320 C 0.49383 0.77614 0.17518 0.0
C1321 C 0.50722 0.77122 0.21145 0.0
H1322 H 0.46758 0.76442 0.13285 0.0
H1323 H 0.58415 0.71067 0.49798 0.0
H1324 H 0.70254 0.47756 0.44335 0.0
H1325 H 0.72771 0.4826 0.38106 0.0
H1326 H 0.7408 0.5509 0.4217 0.0
H1327 H 0.71413 0.54631 0.48208 0.0
H1328 H 0.73528 0.55287 0.34257 0.0
H1329 H 0.78071 0.50324 0.42761 0.0
H1330 H 0.79142 0.46971 0.47088 0.0
H1331 H 0.77921 0.42727 0.36064 0.0
H1332 H 0.76803 0.46049 0.31691 0.0
H1333 H 0.83353 0.56046 0.20103 0.0
H1334 H 0.80778 0.55842 0.26359 0.0
H1335 H 0.77284 0.50336 0.20334 0.0
H1336 H 0.79811 0.50555 0.14032 0.0
H1337 H 0.79042 0.49552 0.29177 0.0
H1338 H 0.74568 0.54881 0.20856 0.0
H1339 H 0.73935 0.58426 0.16789 0.0
H1340 H 0.75692 0.62244 0.28117 0.0
H1341 H 0.76367 0.58719 0.32235 0.0
C1342 C 0.71114 0.49349 0.43937 0.0
C1343 C 0.70654 0.5115 0.4676 0.0
C1344 C 0.72565 0.49638 0.40378 0.0
C1345 C 0.73658 0.51707 0.39665 0.0
C1346 C 0.73259 0.53479 0.42609 0.0
C1347 C 0.71749 0.53213 0.46084 0.0
C1348 C 0.75095 0.5207 0.35715 0.0
C1349 C 0.74767 0.54045 0.33219 0.0
C1350 C 0.76695 0.50447 0.34265 0.0
C1351 C 0.77327 0.48437 0.36912 0.0
C1352 C 0.78007 0.48674 0.41272 0.0
C1353 C 0.78626 0.46778 0.43731 0.0
C1354 C 0.78592 0.44637 0.41857 0.0
C1355 C 0.7794 0.44386 0.37516 0.0
C1356 C 0.77313 0.46275 0.35046 0.0
C1357 C 0.82003 0.54827 0.20063 0.0
C1358 C 0.81784 0.53321 0.16561 0.0
C1359 C 0.80537 0.54711 0.2364 0.0
C1360 C 0.7885 0.53069 0.23805 0.0
C1361 C 0.78577 0.51616 0.20258 0.0
C1362 C 0.80013 0.51757 0.16645 0.0
C1363 C 0.77481 0.52756 0.27808 0.0
C1364 C 0.77821 0.50792 0.30285 0.0
C1365 C 0.75954 0.54417 0.29313 0.0
C1366 C 0.75541 0.56536 0.26839 0.0
C1367 C 0.7484 0.56476 0.22468 0.0
C1368 C 0.74469 0.58482 0.20156 0.0
C1369 C 0.74779 0.60559 0.22189 0.0
C1370 C 0.75455 0.60634 0.26544 0.0
C1371 C 0.7583 0.58633 0.28869 0.0
H1372 H 0.74491 0.6211 0.20394 0.0
H1373 H 0.79077 0.43172 0.43764 0.0
H1374 H 0.93288 0.83324 0.19452 0.0
H1375 H 0.937 0.80714 0.25555 0.0
H1376 H 0.97159 0.75973 0.17247 0.0
H1377 H 0.96797 0.78598 0.11083 0.0
H1378 H 0.93903 0.74064 0.23678 0.0
H1379 H 0.00312 0.7897 0.22606 0.0
H1380 H 0.02157 0.82668 0.2191 0.0
H1381 H 0.99176 0.84776 0.34007 0.0
H1382 H 0.97266 0.8111 0.34723 0.0
H1383 H 0.98794 0.6746 0.40351 0.0
H1384 H 0.98377 0.6983 0.33832 0.0
H1385 H 0.96222 0.75399 0.4188 0.0
H1386 H 0.96697 0.73024 0.48428 0.0
H1387 H 0.98887 0.76865 0.35399 0.0
H1388 H 0.92404 0.72125 0.36477 0.0
H1389 H 0.90356 0.68538 0.37188 0.0
H1390 H 0.93302 0.66209 0.25208 0.0
H1391 H 0.95393 0.69772 0.24457 0.0
C1392 C 0.94092 0.81708 0.18865 0.0
C1393 C 0.95031 0.81189 0.14761 0.0
C1394 C 0.94335 0.80222 0.2238 0.0
C1395 C 0.95493 0.78172 0.21866 0.0
C1396 C 0.96271 0.77557 0.17709 0.0
C1397 C 0.96056 0.79059 0.14187 0.0
C1398 C 0.96034 0.76768 0.25744 0.0
C1399 C 0.95019 0.74656 0.26213 0.0
C1400 C 0.97449 0.77575 0.2909 0.0
C1401 C 0.98624 0.79771 0.28694 0.0
C1402 C 0.0003 0.80229 0.25097 0.0
C1403 C 0.01091 0.82319 0.247 0.0
C1404 C 0.0078 0.83956 0.27908 0.0
C1405 C 0.99412 0.83506 0.31521 0.0
C1406 C 0.98339 0.81423 0.31923 0.0
C1407 C 0.98272 0.69204 0.40717 0.0
C1408 C 0.97793 0.70077 0.44859 0.0
C1409 C 0.98014 0.70551 0.36998 0.0
C1410 C 0.97228 0.72784 0.3735 0.0
C1411 C 0.96826 0.73682 0.41522 0.0
C1412 C 0.97099 0.72332 0.45256 0.0
C1413 C 0.96752 0.74148 0.33359 0.0
C1414 C 0.97779 0.7626 0.32864 0.0
C1415 C 0.95333 0.73348 0.3 0.0
C1416 C 0.94073 0.71206 0.30435 0.0
C1417 C 0.92629 0.70841 0.34012 0.0
C1418 C 0.91458 0.68814 0.34419 0.0
C1419 C 0.91704 0.67145 0.31251 0.0
C1420 C 0.93116 0.67502 0.27663 0.0
C1421 C 0.94294 0.69526 0.27243 0.0
H1422 H 0.90795 0.65576 0.31572 0.0
H1423 H 0.01603 0.85571 0.27602 0.0
H1424 H 0.40374 0.99835 0.04014 0.0
H1425 H 0.44398 0.99095 0.04743 0.0
H1426 H 0.45792 0.04098 0.94856 0.0
H1427 H 0.41737 0.04857 0.94106 0.0
H1428 H 0.47151 0.97467 0.98528 0.0
H1429 H 0.51085 0.06377 0.97223 0.0
H1430 H 0.50239 0.10303 0.99335 0.0
H1431 H 0.45881 0.07943 0.09563 0.0
H1432 H 0.46726 0.04005 0.07555 0.0
H1433 H 0.59845 0.00687 0.96151 0.0
H1434 H 0.55823 0.01484 0.95534 0.0
H1435 H 0.54422 0.96373 0.0521 0.0
H1436 H 0.58467 0.95554 0.05836 0.0
H1437 H 0.53063 0.03067 0.01791 0.0
H1438 H 0.49178 0.9414 0.02982 0.0
H1439 H 0.50041 0.90228 0.00798 0.0
H1440 H 0.54294 0.9266 0.90467 0.0
H1441 H 0.53438 0.96583 0.92561 0.0
C1442 C 0.41533 0.00798 0.02019 0.0
C1443 C 0.40738 0.02402 0.98989 0.0
C1444 C 0.43834 0.00368 0.02438 0.0
C1445 C 0.45394 0.01542 0.99865 0.0
C1446 C 0.44615 0.03189 0.96908 0.0
C1447 C 0.42301 0.03617 0.96473 0.0
C1448 C 0.47817 0.00931 1.00104 0.0
C1449 C 0.48445 0.98687 0.99272 0.0
C1450 C 0.49502 0.02533 0.01015 0.0
C1451 C 0.48945 0.04896 0.02195 0.0
C1452 C 0.49943 0.06696 0.99918 0.0
C1453 C 0.49466 0.08923 0.01101 0.0
C1454 C 0.48 0.09372 0.04569 0.0
C1455 C 0.47008 0.07593 0.06863 0.0
C1456 C 0.47481 0.05363 0.05697 0.0
C1457 C 0.58683 0.99711 0.98118 0.0
C1458 C 0.59473 0.9806 0.01054 0.0
C1459 C 0.56384 0.00177 0.97769 0.0
C1460 C 0.54823 0.9899 0.00321 0.0
C1461 C 0.55598 0.97295 0.03178 0.0
C1462 C 0.57907 0.96831 0.03538 0.0
C1463 C 0.524 0.99609 1.00126 0.0
C1464 C 0.51772 0.01851 0.00997 0.0
C1465 C 0.50715 0.98009 0.99212 0.0
C1466 C 0.51271 0.95655 0.97975 0.0
C1467 C 0.50301 0.93839 0.0025 0.0
C1468 C 0.50788 0.9162 0.99027 0.0
C1469 C 0.52231 0.91195 0.9551 0.0
C1470 C 0.53187 0.9299 0.93207 0.0
C1471 C 0.52708 0.95212 0.9442 0.0
H1472 H 0.52601 0.89476 0.94561 0.0
H1473 H 0.47636 0.11097 0.05485 0.0
H1474 H 0.49337 0.40493 0.05203 0.0
H1475 H 0.50176 0.44513 0.05527 0.0
H1476 H 0.45996 0.45714 0.9427 0.0
H1477 H 0.4513 0.41685 0.93944 0.0
H1478 H 0.50237 0.47537 0.93402 0.0
H1479 H 0.44292 0.47554 0.0396 0.0
H1480 H 0.42205 0.46345 0.10522 0.0
H1481 H 0.47844 0.48069 0.18536 0.0
H1482 H 0.49981 0.49257 0.12013 0.0
H1483 H 0.50274 0.59601 0.94688 0.0
H1484 H 0.49378 0.55594 0.94172 0.0
H1485 H 0.53491 0.54205 0.05445 0.0
H1486 H 0.54417 0.58208 0.05956 0.0
H1487 H 0.49218 0.52494 0.06241 0.0
H1488 H 0.55189 0.52416 0.9577 0.0
H1489 H 0.57344 0.53554 0.89246 0.0
H1490 H 0.51727 0.51905 0.81113 0.0
H1491 H 0.49523 0.50788 0.87598 0.0
C1492 C 0.48563 0.41616 0.02839 0.0
C1493 C 0.4718 0.40769 0.99526 0.0
C1494 C 0.49043 0.43915 0.03034 0.0
C1495 C 0.48151 0.45412 0.99921 0.0
C1496 C 0.46706 0.44584 0.96697 0.0
C1497 C 0.46207 0.42284 0.96525 0.0
C1498 C 0.4885 0.47808 0.99877 0.0
C1499 C 0.49978 0.48637 0.96177 0.0
C1500 C 0.48577 0.49213 0.03558 0.0
C1501 C 0.47306 0.48473 0.07486 0.0
C1502 C 0.45097 0.47653 0.07115 0.0
C1503 C 0.43903 0.46976 0.10829 0.0
C1504 C 0.44894 0.47124 0.14941 0.0
C1505 C 0.47081 0.47952 0.15347 0.0
C1506 C 0.48283 0.48629 0.11642 0.0
C1507 C 0.51024 0.58438 0.9701 0.0
C1508 C 0.52399 0.59226 0.00391 0.0
C1509 C 0.50511 0.56147 0.96706 0.0
C1510 C 0.51361 0.54604 0.9978 0.0
C1511 C 0.52809 0.55371 0.03052 0.0
C1512 C 0.53341 0.57659 0.03331 0.0
C1513 C 0.50608 0.52224 0.99767 0.0
C1514 C 0.4947 0.51398 0.03459 0.0
C1515 C 0.50878 0.50821 0.96083 0.0
C1516 C 0.52179 0.51545 0.92182 0.0
C1517 C 0.54401 0.52323 0.92598 0.0
C1518 C 0.55635 0.52958 0.88904 0.0
C1519 C 0.5467 0.52809 0.84769 0.0
C1520 C 0.5247 0.52024 0.84319 0.0
C1521 C 0.51228 0.5139 0.88004 0.0
H1522 H 0.55631 0.53294 0.81912 0.0
H1523 H 0.43965 0.46602 0.17813 0.0
H1524 H 0.90704 0.49535 0.95338 0.0
H1525 H 0.94763 0.4892 0.94663 0.0
H1526 H 0.9584 0.52871 0.0623 0.0
H1527 H 0.91781 0.53561 0.06829 0.0
H1528 H 0.9896 0.53783 0.00431 0.0
H1529 H 0.959 0.46943 0.06419 0.0
H1530 H 0.93394 0.43642 0.06717 0.0
H1531 H 0.95984 0.41363 0.94416 0.0
H1532 H 0.98497 0.44653 0.94021 0.0
H1533 H 0.1018 0.50093 0.04053 0.0
H1534 H 0.0615 0.50856 0.04783 0.0
H1535 H 0.04865 0.46736 0.9352 0.0
H1536 H 0.0889 0.45879 0.92909 0.0
H1537 H 0.01841 0.45931 0.99328 0.0
H1538 H 0.04758 0.52944 0.9322 0.0
H1539 H 0.0714 0.56344 0.92928 0.0
H1540 H 0.04828 0.58272 0.05646 0.0
H1541 H 0.02403 0.54913 0.05993 0.0
C1542 C 0.91807 0.50293 0.97714 0.0
C1543 C 0.9092 0.51578 0.01163 0.0
C1544 C 0.94127 0.49924 0.97345 0.0
C1545 C 0.95606 0.50799 0.00461 0.0
C1546 C 0.94732 0.52162 0.03807 0.0
C1547 C 0.9241 0.52554 0.04148 0.0
C1548 C 0.98058 0.50275 0.00249 0.0
C1549 C 0.99591 0.52064 0.00243 0.0
C1550 C 0.98885 0.48034 0.99932 0.0
C1551 C 0.97374 0.46055 0.00173 0.0
C1552 C 0.95925 0.45746 0.03764 0.0
C1553 C 0.94505 0.43877 0.03953 0.0
C1554 C 0.94523 0.42302 0.00584 0.0
C1555 C 0.95969 0.42586 0.97022 0.0
C1556 C 0.97395 0.4445 0.96816 0.0
C1557 C 0.09037 0.49336 0.01749 0.0
C1558 C 0.09856 0.47936 0.98404 0.0
C1559 C 0.06732 0.49796 0.02139 0.0
C1560 C 0.052 0.48907 0.99135 0.0
C1561 C 0.06011 0.47458 0.95861 0.0
C1562 C 0.08315 0.46968 0.95513 0.0
C1563 C 0.02749 0.49441 0.99455 0.0
C1564 C 0.01213 0.47652 0.99502 0.0
C1565 C 0.0192 0.51681 0.99827 0.0
C1566 C 0.03418 0.53668 0.99649 0.0
C1567 C 0.04771 0.54085 0.95965 0.0
C1568 C 0.06124 0.56005 0.95785 0.0
C1569 C 0.06151 0.57507 0.99277 0.0
C1570 C 0.04811 0.57104 0.02948 0.0
C1571 C 0.03439 0.552 0.0313 0.0
H1572 H 0.07202 0.58989 0.99128 0.0
H1573 H 0.93421 0.40857 0.00739 0.0
H1574 H 0.04012 0.08631 0.95331 0.0
H1575 H 0.03297 0.04579 0.95873 0.0
H1576 H 0.98034 0.05836 0.05306 0.0
H1577 H 0.98741 0.09888 0.04789 0.0
H1578 H 0.0065 0.02047 0.07382 0.0
H1579 H 0.96664 0.0515 0.95151 0.0
H1580 H 0.9634 0.07341 0.88341 0.0
H1581 H 0.00877 0.02741 0.81953 0.0
H1582 H 0.01283 0.00555 0.88776 0.0
H1583 H 0.95242 0.91443 0.05454 0.0
H1584 H 0.95811 0.95533 0.0521 0.0
H1585 H 0.01068 0.94649 0.9561 0.0
H1586 H 0.00512 0.90574 0.95835 0.0
H1587 H 0.98323 0.98283 0.9372 0.0
H1588 H 0.02463 0.95293 0.05935 0.0
H1589 H 0.02898 0.93122 0.12765 0.0
H1590 H 0.98103 0.97472 0.19109 0.0
H1591 H 0.97614 0.99651 0.12293 0.0
C1592 C 0.02722 0.08044 0.9756 0.0
C1593 C 0.01418 0.0958 0.99985 0.0
C1594 C 0.02313 0.05729 0.97862 0.0
C1595 C 0.00593 0.04911 0.00591 0.0
C1596 C 0.99366 0.06432 0.03178 0.0
C1597 C 0.99768 0.08747 0.02865 0.0
C1598 C 0.99979 0.02491 0.00534 0.0
C1599 C 0.00115 0.01229 0.0441 0.0
C1600 C 0.99307 0.01421 0.96637 0.0
C1601 C 0.99021 0.02699 0.92493 0.0
C1602 C 0.97609 0.04614 0.92307 0.0
C1603 C 0.97411 0.05857 0.88442 0.0
C1604 C 0.98587 0.05182 0.84713 0.0
C1605 C 0.99967 0.03263 0.84845 0.0
C1606 C 0.00184 0.02022 0.88714 0.0
C1607 C 0.96499 0.92123 0.03255 0.0
C1608 C 0.97845 0.90687 0.0069 0.0
C1609 C 0.96828 0.94458 0.0313 0.0
C1610 C 0.98501 0.9539 0.00429 0.0
C1611 C 0.99772 0.93965 0.97721 0.0
C1612 C 0.99455 0.91636 0.97865 0.0
C1613 C 0.99009 0.97834 0.0056 0.0
C1614 C 0.98851 0.99102 0.96696 0.0
C1615 C 0.99666 0.98906 0.04464 0.0
C1616 C -0.00015 0.97623 0.0859 0.0
C1617 C 0.01489 0.95778 0.08778 0.0
C1618 C 0.01747 0.94546 0.12647 0.0
C1619 C 0.00524 0.95155 0.16365 0.0
C1620 C 0.99047 0.97001 0.16224 0.0
C1621 C 0.9878 0.98236 0.12359 0.0
H1622 H 0.00726 0.94199 0.19356 0.0
H1623 H 0.98426 0.06145 0.81721 0.0
H1624 H 0.09629 0.99053 0.5437 0.0
H1625 H 0.05544 0.98575 0.5487 0.0
H1626 H 0.04618 0.03356 0.44366 0.0
H1627 H 0.08694 0.03869 0.43898 0.0
H1628 H 0.01602 0.04117 0.50566 0.0
H1629 H 0.03847 0.97762 0.42245 0.0
H1630 H 0.06004 0.94374 0.40193 0.0
H1631 H 0.04083 0.91136 0.52183 0.0
H1632 H 0.0186 0.94506 0.5426 0.0
H1633 H 0.90212 0.01267 0.45942 0.0
H1634 H 0.94271 0.01912 0.45498 0.0
H1635 H 0.95343 0.97184 0.56043 0.0
H1636 H 0.91297 0.96475 0.56401 0.0
H1637 H 0.98284 0.96478 0.49756 0.0
H1638 H 0.95703 0.03259 0.57493 0.0
H1639 H 0.93455 0.06756 0.58375 0.0
H1640 H 0.95954 0.09259 0.46155 0.0
H1641 H 0.98247 0.05806 0.45225 0.0
C1642 C 0.08554 1.00012 0.52185 0.0
C1643 C 0.09484 0.01497 0.49093 0.0
C1644 C 0.0622 0.99726 0.52454 0.0
C1645 C 0.04774 0.00911 0.49622 0.0
C1646 C 0.05699 0.02425 0.46586 0.0
C1647 C 0.08031 0.02713 0.46319 0.0
C1648 C 0.02298 0.00569 0.49828 0.0
C1649 C 0.00874 0.02448 0.50356 0.0
C1650 C 0.01343 0.98397 0.49565 0.0
C1651 C 0.02714 0.9639 0.48424 0.0
C1652 C 0.03899 0.96333 0.44455 0.0
C1653 C 0.05127 0.94412 0.43281 0.0
C1654 C 0.05205 0.92544 0.46072 0.0
C1655 C 0.0403 0.92587 0.50029 0.0
C1656 C 0.02773 0.94497 0.51196 0.0
C1657 C 0.91315 0.00357 0.48153 0.0
C1658 C 0.90434 0.98824 0.51215 0.0
C1659 C 0.93633 0.00747 0.47929 0.0
C1660 C 0.95111 0.99636 0.50805 0.0
C1661 C 0.94235 0.98075 0.53813 0.0
C1662 C 0.91921 0.97669 0.5401 0.0
C1663 C 0.9758 1.00022 0.50575 0.0
C1664 C 0.99008 0.98146 0.50025 0.0
C1665 C 0.98527 0.02206 0.50713 0.0
C1666 C 0.9713 0.04267 0.51273 0.0
C1667 C 0.95762 0.0455 0.54985 0.0
C1668 C 0.94484 0.06524 0.55498 0.0
C1669 C 0.94545 0.08213 0.52308 0.0
C1670 C 0.95904 0.07946 0.48617 0.0
C1671 C 0.97202 0.05988 0.48106 0.0
H1672 H 0.93544 0.09731 0.52699 0.0
H1673 H 0.06165 0.9106 0.45157 0.0
H1674 H 0.54235 0.91246 0.56888 0.0
H1675 H 0.53637 0.95332 0.56379 0.0
H1676 H 0.48806 0.94351 0.46108 0.0
H1677 H 0.49397 0.90274 0.46591 0.0
H1678 H 0.51644 0.97764 0.44185 0.0
H1679 H 0.46997 0.95531 0.56203 0.0
H1680 H 0.46116 0.93711 0.63242 0.0
H1681 H 0.50889 0.97952 0.69658 0.0
H1682 H 0.51813 0.9979 0.62644 0.0
H1683 H 0.46446 0.08567 0.44209 0.0
H1684 H 0.47127 0.04508 0.44884 0.0
H1685 H 0.51998 0.05701 0.54994 0.0
H1686 H 0.51321 0.0977 0.54344 0.0
H1687 H 0.49191 0.02194 0.5706 0.0
H1688 H 0.53918 0.04295 0.44809 0.0
H1689 H 0.54795 0.05996 0.37648 0.0
H1690 H 0.4969 0.01983 0.3166 0.0
H1691 H 0.48809 0.00225 0.38772 0.0
C1692 C 0.53054 0.91902 0.54509 0.0
C1693 C 0.51859 0.90438 0.51787 0.0
C1694 C 0.52705 0.94236 0.54237 0.0
C1695 C 0.51158 0.95146 0.51235 0.0
C1696 C 0.50004 0.93688 0.48451 0.0
C1697 C 0.50342 0.91357 0.48737 0.0
C1698 C 0.5074 0.97617 0.50987 0.0
C1699 C 0.51083 0.98726 0.4699 0.0
C1700 C 0.50043 0.98881 0.54662 0.0
C1701 C 0.49493 0.97782 0.58888 0.0
C1702 C 0.47874 0.96063 0.59108 0.0
C1703 C 0.47364 0.95029 0.63094 0.0
C1704 C 0.48454 0.95706 0.66891 0.0
C1705 C 0.5005 0.97425 0.66712 0.0
C1706 C 0.50565 0.98467 0.62733 0.0
C1707 C 0.47657 0.07967 0.46587 0.0
C1708 C 0.48836 0.09491 0.49212 0.0
C1709 C 0.48054 0.05646 0.46953 0.0
C1710 C 0.49636 0.04801 0.4995 0.0
C1711 C 0.50775 0.06315 0.5265 0.0
C1712 C 0.50387 0.0864 0.52272 0.0
C1713 C 0.501 0.02338 0.50258 0.0
C1714 C 0.4976 0.0123 0.54263 0.0
C1715 C 0.50784 0.01068 0.46585 0.0
C1716 C 0.51284 0.02147 0.42324 0.0
C1717 C 0.52971 0.03789 0.41969 0.0
C1718 C 0.53472 0.0476 0.37921 0.0
C1719 C 0.52284 0.04117 0.34212 0.0
C1720 C 0.50605 0.02485 0.34537 0.0
C1721 C 0.50112 0.01492 0.38571 0.0
H1722 H 0.52674 0.04875 0.31084 0.0
H1723 H 0.48056 0.94903 0.69974 0.0
H1724 H 0.59089 0.54302 0.54477 0.0
H1725 H 0.55002 0.53903 0.53806 0.0
H1726 H 0.55995 0.47983 0.45879 0.0
H1727 H 0.60067 0.48434 0.46382 0.0
H1728 H 0.52703 0.50338 0.4272 0.0
H1729 H 0.54666 0.47834 0.5739 0.0
H1730 H 0.56226 0.4827 0.64809 0.0
H1731 H 0.51767 0.53866 0.67115 0.0
H1732 H 0.50192 0.53479 0.59728 0.0
H1733 H 0.41802 0.45637 0.44476 0.0
H1734 H 0.45866 0.46268 0.44962 0.0
H1735 H 0.44642 0.52083 0.53065 0.0
H1736 H 0.40599 0.51399 0.52746 0.0
H1737 H 0.48027 0.4991 0.56125 0.0
H1738 H 0.45993 0.52439 0.4169 0.0
H1739 H 0.44405 0.52115 0.34289 0.0
H1740 H 0.48938 0.46635 0.31507 0.0
H1741 H 0.50551 0.46915 0.38882 0.0
C1742 C 0.58431 0.52936 0.52542 0.0
C1743 C 0.59895 0.51399 0.50485 0.0
C1744 C 0.56095 0.52694 0.52197 0.0
C1745 C 0.55185 0.50879 0.49877 0.0
C1746 C 0.56652 0.49391 0.47701 0.0
C1747 C 0.58982 0.49653 0.47985 0.0
C1748 C 0.52712 0.50502 0.49734 0.0
C1749 C 0.51685 0.5022 0.45657 0.0
C1750 C 0.51366 0.50408 0.53557 0.0
C1751 C 0.52328 0.50641 0.57991 0.0
C1752 C 0.54033 0.49167 0.59471 0.0
C1753 C 0.54916 0.49403 0.63667 0.0
C1754 C 0.54103 0.51097 0.66413 0.0
C1755 C 0.52399 0.52557 0.6498 0.0
C1756 C 0.51508 0.52328 0.60795 0.0
C1757 C 0.42406 0.47035 0.46394 0.0
C1758 C 0.40886 0.48467 0.48575 0.0
C1759 C 0.44727 0.47409 0.46636 0.0
C1760 C 0.45564 0.49254 0.48976 0.0
C1761 C 0.44043 0.50653 0.5123 0.0
C1762 C 0.41729 0.50258 0.51049 0.0
C1763 C 0.4802 0.49729 0.49111 0.0
C1764 C 0.49043 0.50031 0.53186 0.0
C1765 C 0.49359 0.49857 0.45286 0.0
C1766 C 0.4838 0.49685 0.40855 0.0
C1767 C 0.46641 0.51155 0.39511 0.0
C1768 C 0.45737 0.50981 0.35321 0.0
C1769 C 0.46562 0.49351 0.32445 0.0
C1770 C 0.48298 0.47895 0.33742 0.0
C1771 C 0.49211 0.48063 0.37921 0.0
H1772 H 0.4586 0.4922 0.29205 0.0
H1773 H 0.54787 0.51275 0.69657 0.0
H1774 H 0.99844 0.59712 0.45664 0.0
H1775 H 0.0047 0.55636 0.45574 0.0
H1776 H 0.96094 0.54883 0.56733 0.0
H1777 H 0.9544 0.58972 0.5682 0.0
H1778 H 0.0025 0.52617 0.57614 0.0
H1779 H 0.94262 0.53201 0.47223 0.0
H1780 H 0.92299 0.54675 0.40726 0.0
H1781 H 0.97778 0.52454 0.32593 0.0
H1782 H 0.9979 0.50995 0.39052 0.0
H1783 H 0.99486 0.40519 0.56095 0.0
H1784 H 0.98793 0.44583 0.56759 0.0
H1785 H 0.02899 0.45786 0.45367 0.0
H1786 H 0.03624 0.41739 0.44716 0.0
H1787 H 0.98734 0.47803 0.44798 0.0
H1788 H 0.04807 0.4738 0.54928 0.0
H1789 H 0.06989 0.46103 0.61317 0.0
H1790 H 0.01568 0.48103 0.69797 0.0
H1791 H 0.99342 0.49372 0.63452 0.0
C1792 C 0.98992 0.58679 0.4807 0.0
C1793 C 0.97593 0.59665 0.51252 0.0
C1794 C 0.9935 0.56348 0.48011 0.0
C1795 C 0.98325 0.54956 0.51142 0.0
C1796 C 0.96902 0.55929 0.54291 0.0
C1797 C 0.96522 0.58264 0.54322 0.0
C1798 C 0.9881 0.52496 0.5119 0.0
C1799 C 0.9988 0.5155 0.5485 0.0
C1800 C 0.98391 0.51128 0.47523 0.0
C1801 C 0.97186 0.52007 0.4363 0.0
C1802 C 0.95058 0.53045 0.44055 0.0
C1803 C 0.93934 0.53874 0.40377 0.0
C1804 C 0.94916 0.53664 0.3625 0.0
C1805 C 0.97021 0.52619 0.35792 0.0
C1806 C 0.98153 0.51788 0.39461 0.0
C1807 C 0.0027 0.41653 0.53772 0.0
C1808 C 0.01596 0.40805 0.50332 0.0
C1809 C 0.99876 0.43974 0.54162 0.0
C1810 C 0.00791 0.45486 0.51107 0.0
C1811 C 0.02171 0.44648 0.47751 0.0
C1812 C 0.02585 0.42333 0.47388 0.0
C1813 C 0.00185 0.47919 0.51218 0.0
C1814 C 0.9909 0.48861 0.47583 0.0
C1815 C 0.00598 0.49285 0.54894 0.0
C1816 C 0.01894 0.48443 0.58705 0.0
C1817 C 0.04066 0.47518 0.58149 0.0
C1818 C 0.05315 0.46804 0.61764 0.0
C1819 C 0.04415 0.47014 0.65958 0.0
C1820 C 0.02262 0.47937 0.66545 0.0
C1821 C 0.01006 0.48655 0.6294 0.0
H1822 H 0.05388 0.46468 0.68754 0.0
H1823 H 0.94042 0.54306 0.33407 0.0
loop_
_geom_bond_atom_site_label_1
_geom_bond_atom_site_label_2
_geom_bond_distance
_geom_bond_site_symmetry_2
_ccdc_geom_bond_type
Co0 O1 2.216 1_545 S
Co0 O2 2.091 . S
Co0 O4 2.004 . S
Co0 O10 2.021 1_545 S
Co0 O12 2.137 1_545 S
Co0 O13 2.244 1_545 S
O1 Co0 2.216 1_565 S
O1 C8 1.247 1_565 S
O2 Co0 2.091 . S
O2 C8 1.261 . S
C3 O12 1.247 . S
C3 O13 1.272 . S
O4 Co0 2.004 . S
O4 C9 1.259 . S
Co5 O6 2.061 1_565 S
Co5 O11 2.052 . S
Co5 O13 2.135 . S
O6 Co5 2.061 1_545 S
O6 C9 1.235 . S
C7 O10 1.238 . S
C7 O11 1.241 . S
C8 O1 1.247 1_545 S
C8 O2 1.261 . S
C9 O4 1.259 . S
C9 O6 1.235 . S
O10 Co0 2.021 1_565 S
O10 C7 1.238 . S
O11 Co5 2.052 . S
O11 C7 1.241 . S
O12 Co0 2.137 1_565 S
O12 C3 1.247 . S
O13 Co0 2.244 1_565 S
O13 C3 1.272 . S
O13 Co5 2.135 . S
Co14 O15 2.216 . S
Co14 O16 2.091 . S
Co14 O18 2.004 . S
Co14 O24 2.021 . S
Co14 O26 2.137 . S
Co14 O27 2.244 . S
O15 Co14 2.216 . S
O15 C22 1.247 . S
O16 Co14 2.091 . S
O16 C22 1.261 . S
C17 O26 1.247 . S
C17 O27 1.272 . S
O18 Co14 2.004 . S
O18 C23 1.259 . S
Co19 O20 2.061 . S
Co19 O25 2.052 . S
Co19 O27 2.135 . S
O20 Co19 2.061 . S
O20 C23 1.235 . S
C21 O24 1.238 . S
C21 O25 1.241 . S
C22 O15 1.247 . S
C22 O16 1.261 . S
C23 O18 1.259 . S
C23 O20 1.235 . S
O24 Co14 2.021 . S
O24 C21 1.238 . S
O25 Co19 2.052 . S
O25 C21 1.241 . S
O26 Co14 2.137 . S
O26 C17 1.247 . S
O27 Co14 2.244 . S
O27 C17 1.272 . S
O27 Co19 2.135 . S
Co28 O29 2.216 . S
Co28 O30 2.091 . S
Co28 O32 2.004 . S
Co28 O38 2.021 . S
Co28 O40 2.137 . S
Co28 O41 2.244 . S
O29 Co28 2.216 . S
O29 C36 1.247 . S
O30 Co28 2.091 . S
O30 C36 1.261 . S
C31 O40 1.247 . S
C31 O41 1.272 . S
O32 Co28 2.004 . S
O32 C37 1.259 . S
Co33 O34 2.061 . S
Co33 O39 2.052 . S
Co33 O41 2.135 . S
O34 Co33 2.061 . S
O34 C37 1.235 . S
C35 O38 1.238 . S
C35 O39 1.241 . S
C36 O29 1.247 . S
C36 O30 1.261 . S
C37 O32 1.259 . S
C37 O34 1.235 . S
O38 Co28 2.021 . S
O38 C35 1.238 . S
O39 Co33 2.052 . S
O39 C35 1.241 . S
O40 Co28 2.137 . S
O40 C31 1.247 . S
O41 Co28 2.244 . S
O41 C31 1.272 . S
O41 Co33 2.135 . S
Co42 O43 2.216 1_455 S
Co42 O44 2.091 . S
Co42 O46 2.004 . S
Co42 O52 2.021 1_455 S
Co42 O54 2.137 1_455 S
Co42 O55 2.244 1_455 S
O43 Co42 2.216 1_655 S
O43 C50 1.247 1_655 S
O44 Co42 2.091 . S
O44 C50 1.261 . S
C45 O54 1.247 . S
C45 O55 1.272 . S
O46 Co42 2.004 . S
O46 C51 1.259 . S
Co47 O48 2.061 1_655 S
Co47 O53 2.052 . S
Co47 O55 2.135 . S
O48 Co47 2.061 1_455 S
O48 C51 1.235 . S
C49 O52 1.238 . S
C49 O53 1.241 . S
C50 O43 1.247 1_455 S
C50 O44 1.261 . S
C51 O46 1.259 . S
C51 O48 1.235 . S
O52 Co42 2.021 1_655 S
O52 C49 1.238 . S
O53 Co47 2.052 . S
O53 C49 1.241 . S
O54 Co42 2.137 1_655 S
O54 C45 1.247 . S
O55 Co42 2.244 1_655 S
O55 C45 1.272 . S
O55 Co47 2.135 . S
Co56 O57 2.216 1_565 S
Co56 O58 2.091 . S
Co56 O60 2.004 . S
Co56 O66 2.021 1_565 S
Co56 O68 2.137 1_565 S
Co56 O69 2.244 1_565 S
O57 Co56 2.216 1_545 S
O57 C64 1.247 1_545 S
O58 Co56 2.091 . S
O58 C64 1.261 . S
C59 O68 1.247 . S
C59 O69 1.272 . S
O60 Co56 2.004 . S
O60 C65 1.259 . S
Co61 O62 2.061 1_545 S
Co61 O67 2.052 . S
Co61 O69 2.135 . S
O62 Co61 2.061 1_565 S
O62 C65 1.235 . S
C63 O66 1.238 . S
C63 O67 1.241 . S
C64 O57 1.247 1_565 S
C64 O58 1.261 . S
C65 O60 1.259 . S
C65 O62 1.235 . S
O66 Co56 2.021 1_545 S
O66 C63 1.238 . S
O67 Co61 2.052 . S
O67 C63 1.241 . S
O68 Co56 2.137 1_545 S
O68 C59 1.247 . S
O69 Co56 2.244 1_545 S
O69 C59 1.272 . S
O69 Co61 2.135 . S
Co70 O71 2.216 . S
Co70 O72 2.091 . S
Co70 O74 2.004 . S
Co70 O80 2.021 . S
Co70 O82 2.137 . S
Co70 O83 2.244 . S
O71 Co70 2.216 . S
O71 C78 1.247 . S
O72 Co70 2.091 . S
O72 C78 1.261 . S
C73 O82 1.247 . S
C73 O83 1.272 . S
O74 Co70 2.004 . S
O74 C79 1.259 . S
Co75 O76 2.061 . S
Co75 O81 2.052 . S
Co75 O83 2.135 . S
O76 Co75 2.061 . S
O76 C79 1.235 . S
C77 O80 1.238 . S
C77 O81 1.241 . S
C78 O71 1.247 . S
C78 O72 1.261 . S
C79 O74 1.259 . S
C79 O76 1.235 . S
O80 Co70 2.021 . S
O80 C77 1.238 . S
O81 Co75 2.052 . S
O81 C77 1.241 . S
O82 Co70 2.137 . S
O82 C73 1.247 . S
O83 Co70 2.244 . S
O83 C73 1.272 . S
O83 Co75 2.135 . S
Co84 O85 2.216 . S
Co84 O86 2.091 . S
Co84 O88 2.004 . S
Co84 O94 2.021 . S
Co84 O96 2.137 . S
Co84 O97 2.244 . S
O85 Co84 2.216 . S
O85 C92 1.247 . S
O86 Co84 2.091 . S
O86 C92 1.261 . S
C87 O96 1.247 . S
C87 O97 1.272 . S
O88 Co84 2.004 . S
O88 C93 1.259 . S
Co89 O90 2.061 . S
Co89 O95 2.052 . S
Co89 O97 2.135 . S
O90 Co89 2.061 . S
O90 C93 1.235 . S
C91 O94 1.238 . S
C91 O95 1.241 . S
C92 O85 1.247 . S
C92 O86 1.261 . S
C93 O88 1.259 . S
C93 O90 1.235 . S
O94 Co84 2.021 . S
O94 C91 1.238 . S
O95 Co89 2.052 . S
O95 C91 1.241 . S
O96 Co84 2.137 . S
O96 C87 1.247 . S
O97 Co84 2.244 . S
O97 C87 1.272 . S
O97 Co89 2.135 . S
Co98 O99 2.216 1_655 S
Co98 O100 2.091 . S
Co98 O102 2.004 . S
Co98 O108 2.021 1_655 S
Co98 O110 2.137 1_655 S
Co98 O111 2.244 1_655 S
O99 Co98 2.216 1_455 S
O99 C106 1.247 1_455 S
O100 Co98 2.091 . S
O100 C106 1.261 . S
C101 O110 1.247 . S
C101 O111 1.272 . S
O102 Co98 2.004 . S
O102 C107 1.259 . S
Co103 O104 2.061 1_455 S
Co103 O109 2.052 . S
Co103 O111 2.135 . S
O104 Co103 2.061 1_655 S
O104 C107 1.235 . S
C105 O108 1.238 . S
C105 O109 1.241 . S
C106 O99 1.247 1_655 S
C106 O100 1.261 . S
C107 O102 1.259 . S
C107 O104 1.235 . S
O108 Co98 2.021 1_455 S
O108 C105 1.238 . S
O109 Co103 2.052 . S
O109 C105 1.241 . S
O110 Co98 2.137 1_455 S
O110 C101 1.247 . S
O111 Co98 2.244 1_455 S
O111 C101 1.272 . S
O111 Co103 2.135 . S
Co112 O113 2.216 1_565 S
Co112 O114 2.091 . S
Co112 O116 2.004 . S
Co112 O122 2.021 1_565 S
Co112 O124 2.137 1_565 S
Co112 O125 2.244 1_565 S
O113 Co112 2.216 1_545 S
O113 C120 1.247 1_545 S
O114 Co112 2.091 . S
O114 C120 1.261 . S
C115 O124 1.247 . S
C115 O125 1.272 . S
O116 Co112 2.004 . S
O116 C121 1.259 . S
Co117 O118 2.061 1_545 S
Co117 O123 2.052 . S
Co117 O125 2.135 . S
O118 Co117 2.061 1_565 S
O118 C121 1.235 . S
C119 O122 1.238 . S
C119 O123 1.241 . S
C120 O113 1.247 1_565 S
C120 O114 1.261 . S
C121 O116 1.259 . S
C121 O118 1.235 . S
O122 Co112 2.021 1_545 S
O122 C119 1.238 . S
O123 Co117 2.052 . S
O123 C119 1.241 . S
O124 Co112 2.137 1_545 S
O124 C115 1.247 . S
O125 Co112 2.244 1_545 S
O125 C115 1.272 . S
O125 Co117 2.135 . S
Co126 O127 2.216 . S
Co126 O128 2.091 . S
Co126 O130 2.004 . S
Co126 O136 2.021 . S
Co126 O138 2.137 . S
Co126 O139 2.244 . S
O127 Co126 2.216 . S
O127 C134 1.247 . S
O128 Co126 2.091 . S
O128 C134 1.261 . S
C129 O138 1.247 . S
C129 O139 1.272 . S
O130 Co126 2.004 . S
O130 C135 1.259 . S
Co131 O132 2.061 . S
Co131 O137 2.052 . S
Co131 O139 2.135 . S
O132 Co131 2.061 . S
O132 C135 1.235 . S
C133 O136 1.238 . S
C133 O137 1.241 . S
C134 O127 1.247 . S
C134 O128 1.261 . S
C135 O130 1.259 . S
C135 O132 1.235 . S
O136 Co126 2.021 . S
O136 C133 1.238 . S
O137 Co131 2.052 . S
O137 C133 1.241 . S
O138 Co126 2.137 . S
O138 C129 1.247 . S
O139 Co126 2.244 . S
O139 C129 1.272 . S
O139 Co131 2.135 . S
Co140 O141 2.216 . S
Co140 O142 2.091 . S
Co140 O144 2.004 . S
Co140 O150 2.021 . S
Co140 O152 2.137 . S
Co140 O153 2.244 . S
O141 Co140 2.216 . S
O141 C148 1.247 . S
O142 Co140 2.091 . S
O142 C148 1.261 . S
C143 O152 1.247 . S
C143 O153 1.272 . S
O144 Co140 2.004 . S
O144 C149 1.259 . S
Co145 O146 2.061 . S
Co145 O151 2.052 . S
Co145 O153 2.135 . S
O146 Co145 2.061 . S
O146 C149 1.235 . S
C147 O150 1.238 . S
C147 O151 1.241 . S
C148 O141 1.247 . S
C148 O142 1.261 . S
C149 O144 1.259 . S
C149 O146 1.235 . S
O150 Co140 2.021 . S
O150 C147 1.238 . S
O151 Co145 2.052 . S
O151 C147 1.241 . S
O152 Co140 2.137 . S
O152 C143 1.247 . S
O153 Co140 2.244 . S
O153 C143 1.272 . S
O153 Co145 2.135 . S
Co154 O155 2.216 1_655 S
Co154 O156 2.091 . S
Co154 O158 2.004 . S
Co154 O164 2.021 1_655 S
Co154 O166 2.137 1_655 S
Co154 O167 2.244 1_655 S
O155 Co154 2.216 1_455 S
O155 C162 1.247 1_455 S
O156 Co154 2.091 . S
O156 C162 1.261 . S
C157 O166 1.247 . S
C157 O167 1.272 . S
O158 Co154 2.004 . S
O158 C163 1.259 . S
Co159 O160 2.061 1_455 S
Co159 O165 2.052 . S
Co159 O167 2.135 . S
O160 Co159 2.061 1_655 S
O160 C163 1.235 . S
C161 O164 1.238 . S
C161 O165 1.241 . S
C162 O155 1.247 1_655 S
C162 O156 1.261 . S
C163 O158 1.259 . S
C163 O160 1.235 . S
O164 Co154 2.021 1_455 S
O164 C161 1.238 . S
O165 Co159 2.052 . S
O165 C161 1.241 . S
O166 Co154 2.137 1_455 S
O166 C157 1.247 . S
O167 Co154 2.244 1_455 S
O167 C157 1.272 . S
O167 Co159 2.135 . S
Co168 O169 2.216 1_545 S
Co168 O170 2.091 . S
Co168 O172 2.004 . S
Co168 O178 2.021 1_545 S
Co168 O180 2.137 1_545 S
Co168 O181 2.244 1_545 S
O169 Co168 2.216 1_565 S
O169 C176 1.247 1_565 S
O170 Co168 2.091 . S
O170 C176 1.261 . S
C171 O180 1.247 . S
C171 O181 1.272 . S
O172 Co168 2.004 . S
O172 C177 1.259 . S
Co173 O174 2.061 1_565 S
Co173 O179 2.052 . S
Co173 O181 2.135 . S
O174 Co173 2.061 1_545 S
O174 C177 1.235 . S
C175 O178 1.238 . S
C175 O179 1.241 . S
C176 O169 1.247 1_545 S
C176 O170 1.261 . S
C177 O172 1.259 . S
C177 O174 1.235 . S
O178 Co168 2.021 1_565 S
O178 C175 1.238 . S
O179 Co173 2.052 . S
O179 C175 1.241 . S
O180 Co168 2.137 1_565 S
O180 C171 1.247 . S
O181 Co168 2.244 1_565 S
O181 C171 1.272 . S
O181 Co173 2.135 . S
Co182 O183 2.216 . S
Co182 O184 2.091 . S
Co182 O186 2.004 . S
Co182 O192 2.021 . S
Co182 O194 2.137 . S
Co182 O195 2.244 . S
O183 Co182 2.216 . S
O183 C190 1.247 . S
O184 Co182 2.091 . S
O184 C190 1.261 . S
C185 O194 1.247 . S
C185 O195 1.272 . S
O186 Co182 2.004 . S
O186 C191 1.259 . S
Co187 O188 2.061 . S
Co187 O193 2.052 . S
Co187 O195 2.135 . S
O188 Co187 2.061 . S
O188 C191 1.235 . S
C189 O192 1.238 . S
C189 O193 1.241 . S
C190 O183 1.247 . S
C190 O184 1.261 . S
C191 O186 1.259 . S
C191 O188 1.235 . S
O192 Co182 2.021 . S
O192 C189 1.238 . S
O193 Co187 2.052 . S
O193 C189 1.241 . S
O194 Co182 2.137 . S
O194 C185 1.247 . S
O195 Co182 2.244 . S
O195 C185 1.272 . S
O195 Co187 2.135 . S
Co196 O197 2.216 . S
Co196 O198 2.091 . S
Co196 O200 2.004 . S
Co196 O206 2.021 . S
Co196 O208 2.137 . S
Co196 O209 2.244 . S
O197 Co196 2.216 . S
O197 C204 1.247 . S
O198 Co196 2.091 . S
O198 C204 1.261 . S
C199 O208 1.247 . S
C199 O209 1.272 . S
O200 Co196 2.004 . S
O200 C205 1.259 . S
Co201 O202 2.061 . S
Co201 O207 2.052 . S
Co201 O209 2.135 . S
O202 Co201 2.061 . S
O202 C205 1.235 . S
C203 O206 1.238 . S
C203 O207 1.241 . S
C204 O197 1.247 . S
C204 O198 1.261 . S
C205 O200 1.259 . S
C205 O202 1.235 . S
O206 Co196 2.021 . S
O206 C203 1.238 . S
O207 Co201 2.052 . S
O207 C203 1.241 . S
O208 Co196 2.137 . S
O208 C199 1.247 . S
O209 Co196 2.244 . S
O209 C199 1.272 . S
O209 Co201 2.135 . S
Co210 O211 2.216 1_455 S
Co210 O212 2.091 . S
Co210 O214 2.004 . S
Co210 O220 2.021 1_455 S
Co210 O222 2.137 1_455 S
Co210 O223 2.244 1_455 S
O211 Co210 2.216 1_655 S
O211 C218 1.247 1_655 S
O212 Co210 2.091 . S
O212 C218 1.261 . S
C213 O222 1.247 . S
C213 O223 1.272 . S
O214 Co210 2.004 . S
O214 C219 1.259 . S
Co215 O216 2.061 1_655 S
Co215 O221 2.052 . S
Co215 O223 2.135 . S
O216 Co215 2.061 1_455 S
O216 C219 1.235 . S
C217 O220 1.238 . S
C217 O221 1.241 . S
C218 O211 1.247 1_455 S
C218 O212 1.261 . S
C219 O214 1.259 . S
C219 O216 1.235 . S
O220 Co210 2.021 1_655 S
O220 C217 1.238 . S
O221 Co215 2.052 . S
O221 C217 1.241 . S
O222 Co210 2.137 1_655 S
O222 C213 1.247 . S
O223 Co210 2.244 1_655 S
O223 C213 1.272 . S
O223 Co215 2.135 . S
H224 C242 0.951 . S
H225 C244 0.951 . S
H226 C246 0.950 . S
H227 C247 0.950 . S
H228 C249 0.950 . S
H229 C252 0.950 . S
H230 C253 0.950 . S
H231 C255 0.950 . S
H232 C256 0.950 . S
H233 C257 0.951 . S
H234 C259 0.951 . S
H235 C261 0.950 . S
H236 C262 0.950 . S
H237 C264 0.950 . S
H238 C267 0.950 . S
H239 C268 0.950 . S
H240 C270 0.950 . S
H241 C271 0.950 . S
C242 H224 0.951 . S
C242 C243 1.366 . S
C242 C244 1.388 . S
C243 C242 1.366 . S
C243 C247 1.385 . S
C244 H225 0.951 . S
C244 C242 1.388 . S
C244 C245 1.366 . S
C245 C244 1.366 . S
C245 C246 1.414 . S
C245 C248 1.499 . S
C246 H226 0.950 . S
C246 C245 1.414 . S
C246 C247 1.374 . S
C247 H227 0.950 . S
C247 C243 1.385 . S
C247 C246 1.374 . S
C248 C245 1.499 . S
C248 C249 1.373 . S
C248 C250 1.389 . S
C249 H228 0.950 . S
C249 C248 1.373 . S
C249 C265 1.377 . S
C250 C248 1.389 . S
C250 C251 1.524 . S
C250 C264 1.377 . S
C251 C250 1.524 . S
C251 C252 1.397 . S
C251 C256 1.363 . S
C252 H229 0.950 . S
C252 C251 1.397 . S
C252 C253 1.334 . S
C253 H230 0.950 . S
C253 C252 1.334 . S
C253 C254 1.287 . S
C254 C253 1.287 . S
C254 C255 1.524 . S
C254 H273 0.913 . S
C255 H231 0.950 . S
C255 C254 1.524 . S
C255 C256 1.415 . S
C256 H232 0.950 . S
C256 C251 1.363 . S
C256 C255 1.415 . S
C257 H233 0.951 . S
C257 C258 1.366 . S
C257 C259 1.388 . S
C258 C257 1.366 . S
C258 C262 1.385 . S
C259 H234 0.951 . S
C259 C257 1.388 . S
C259 C260 1.366 . S
C260 C259 1.366 . S
C260 C261 1.414 . S
C260 C263 1.499 . S
C261 H235 0.950 . S
C261 C260 1.414 . S
C261 C262 1.374 . S
C262 H236 0.950 . S
C262 C258 1.385 . S
C262 C261 1.374 . S
C263 C260 1.499 . S
C263 C264 1.373 . S
C263 C265 1.389 . S
C264 H237 0.950 . S
C264 C250 1.377 . S
C264 C263 1.373 . S
C265 C249 1.377 . S
C265 C263 1.389 . S
C265 C266 1.524 . S
C266 C265 1.524 . S
C266 C267 1.397 . S
C266 C271 1.363 . S
C267 H238 0.950 . S
C267 C266 1.397 . S
C267 C268 1.334 . S
C268 H239 0.950 . S
C268 C267 1.334 . S
C268 C269 1.287 . S
C269 C268 1.287 . S
C269 C270 1.524 . S
C269 H272 0.999 . S
C270 H240 0.950 . S
C270 C269 1.524 . S
C270 C271 1.415 . S
C271 H241 0.950 . S
C271 C266 1.363 . S
C271 C270 1.415 . S
H272 C269 0.999 . S
H273 C254 0.913 . S
H274 C292 0.951 . S
H275 C294 0.951 . S
H276 C296 0.950 . S
H277 C297 0.950 . S
H278 C299 0.950 . S
H279 C302 0.950 . S
H280 C303 0.950 . S
H281 C305 0.950 . S
H282 C306 0.950 . S
H283 C307 0.951 . S
H284 C309 0.951 . S
H285 C311 0.950 . S
H286 C312 0.950 . S
H287 C314 0.950 . S
H288 C317 0.950 . S
H289 C318 0.950 . S
H290 C320 0.950 . S
H291 C321 0.950 . S
C292 H274 0.951 . S
C292 C293 1.366 . S
C292 C294 1.388 . S
C293 C292 1.366 . S
C293 C297 1.385 . S
C294 H275 0.951 . S
C294 C292 1.388 . S
C294 C295 1.366 . S
C295 C294 1.366 . S
C295 C296 1.414 . S
C295 C298 1.499 . S
C296 H276 0.950 . S
C296 C295 1.414 . S
C296 C297 1.374 . S
C297 H277 0.950 . S
C297 C293 1.385 . S
C297 C296 1.374 . S
C298 C295 1.499 . S
C298 C299 1.373 . S
C298 C300 1.389 . S
C299 H278 0.950 . S
C299 C298 1.373 . S
C299 C315 1.377 . S
C300 C298 1.389 . S
C300 C301 1.524 . S
C300 C314 1.377 . S
C301 C300 1.524 . S
C301 C302 1.397 . S
C301 C306 1.363 . S
C302 H279 0.950 . S
C302 C301 1.397 . S
C302 C303 1.334 . S
C303 H280 0.950 . S
C303 C302 1.334 . S
C303 C304 1.287 . S
C304 C303 1.287 . S
C304 C305 1.524 . S
C304 H323 0.913 . S
C305 H281 0.950 . S
C305 C304 1.524 . S
C305 C306 1.415 . S
C306 H282 0.950 . S
C306 C301 1.363 . S
C306 C305 1.415 . S
C307 H283 0.951 . S
C307 C308 1.366 . S
C307 C309 1.388 . S
C308 C307 1.366 . S
C308 C312 1.385 . S
C309 H284 0.951 . S
C309 C307 1.388 . S
C309 C310 1.366 . S
C310 C309 1.366 . S
C310 C311 1.414 . S
C310 C313 1.499 . S
C311 H285 0.950 . S
C311 C310 1.414 . S
C311 C312 1.374 . S
C312 H286 0.950 . S
C312 C308 1.385 . S
C312 C311 1.374 . S
C313 C310 1.499 . S
C313 C314 1.373 . S
C313 C315 1.389 . S
C314 H287 0.950 . S
C314 C300 1.377 . S
C314 C313 1.373 . S
C315 C299 1.377 . S
C315 C313 1.389 . S
C315 C316 1.524 . S
C316 C315 1.524 . S
C316 C317 1.397 . S
C316 C321 1.363 . S
C317 H288 0.950 . S
C317 C316 1.397 . S
C317 C318 1.334 . S
C318 H289 0.950 . S
C318 C317 1.334 . S
C318 C319 1.287 . S
C319 C318 1.287 . S
C319 C320 1.524 . S
C319 H322 0.999 . S
C320 H290 0.950 . S
C320 C319 1.524 . S
C320 C321 1.415 . S
C321 H291 0.950 . S
C321 C316 1.363 . S
C321 C320 1.415 . S
H322 C319 0.999 . S
H323 C304 0.913 . S
H324 C342 0.951 . S
H325 C344 0.951 . S
H326 C346 0.950 . S
H327 C347 0.950 . S
H328 C349 0.950 . S
H329 C352 0.950 . S
H330 C353 0.950 . S
H331 C355 0.950 . S
H332 C356 0.950 . S
H333 C357 0.951 . S
H334 C359 0.951 . S
H335 C361 0.950 . S
H336 C362 0.950 . S
H337 C364 0.950 . S
H338 C367 0.950 . S
H339 C368 0.950 . S
H340 C370 0.950 . S
H341 C371 0.950 . S
C342 H324 0.951 . S
C342 C343 1.366 . S
C342 C344 1.388 . S
C343 C342 1.366 . S
C343 C347 1.385 . S
C344 H325 0.951 . S
C344 C342 1.388 . S
C344 C345 1.366 . S
C345 C344 1.366 . S
C345 C346 1.414 . S
C345 C348 1.499 . S
C346 H326 0.950 . S
C346 C345 1.414 . S
C346 C347 1.374 . S
C347 H327 0.950 . S
C347 C343 1.385 . S
C347 C346 1.374 . S
C348 C345 1.499 . S
C348 C349 1.373 . S
C348 C350 1.389 . S
C349 H328 0.950 . S
C349 C348 1.373 . S
C349 C365 1.377 . S
C350 C348 1.389 . S
C350 C351 1.524 . S
C350 C364 1.377 . S
C351 C350 1.524 . S
C351 C352 1.397 . S
C351 C356 1.363 . S
C352 H329 0.950 . S
C352 C351 1.397 . S
C352 C353 1.334 . S
C353 H330 0.950 . S
C353 C352 1.334 . S
C353 C354 1.287 . S
C354 C353 1.287 . S
C354 C355 1.524 . S
C354 H373 0.913 . S
C355 H331 0.950 . S
C355 C354 1.524 . S
C355 C356 1.415 . S
C356 H332 0.950 . S
C356 C351 1.363 . S
C356 C355 1.415 . S
C357 H333 0.951 . S
C357 C358 1.366 . S
C357 C359 1.388 . S
C358 C357 1.366 . S
C358 C362 1.385 . S
C359 H334 0.951 . S
C359 C357 1.388 . S
C359 C360 1.366 . S
C360 C359 1.366 . S
C360 C361 1.414 . S
C360 C363 1.499 . S
C361 H335 0.950 . S
C361 C360 1.414 . S
C361 C362 1.374 . S
C362 H336 0.950 . S
C362 C358 1.385 . S
C362 C361 1.374 . S
C363 C360 1.499 . S
C363 C364 1.373 . S
C363 C365 1.389 . S
C364 H337 0.950 . S
C364 C350 1.377 . S
C364 C363 1.373 . S
C365 C349 1.377 . S
C365 C363 1.389 . S
C365 C366 1.524 . S
C366 C365 1.524 . S
C366 C367 1.397 . S
C366 C371 1.363 . S
C367 H338 0.950 . S
C367 C366 1.397 . S
C367 C368 1.334 . S
C368 H339 0.950 . S
C368 C367 1.334 . S
C368 C369 1.287 . S
C369 C368 1.287 . S
C369 C370 1.524 . S
C369 H372 0.999 . S
C370 H340 0.950 . S
C370 C369 1.524 . S
C370 C371 1.415 . S
C371 H341 0.950 . S
C371 C366 1.363 . S
C371 C370 1.415 . S
H372 C369 0.999 . S
H373 C354 0.913 . S
H374 C392 0.951 . S
H375 C394 0.951 . S
H376 C396 0.950 . S
H377 C397 0.950 . S
H378 C399 0.950 . S
H379 C402 0.950 . S
H380 C403 0.950 . S
H381 C405 0.950 . S
H382 C406 0.950 . S
H383 C407 0.951 . S
H384 C409 0.951 . S
H385 C411 0.950 . S
H386 C412 0.950 . S
H387 C414 0.950 . S
H388 C417 0.950 . S
H389 C418 0.950 1_545 S
H390 C420 0.950 . S
H391 C421 0.950 . S
C392 H374 0.951 . S
C392 C393 1.366 . S
C392 C394 1.388 . S
C393 C392 1.366 . S
C393 C397 1.385 . S
C394 H375 0.951 . S
C394 C392 1.388 . S
C394 C395 1.366 . S
C395 C394 1.366 . S
C395 C396 1.414 . S
C395 C398 1.499 . S
C396 H376 0.950 . S
C396 C395 1.414 . S
C396 C397 1.374 . S
C397 H377 0.950 . S
C397 C393 1.385 . S
C397 C396 1.374 . S
C398 C395 1.499 . S
C398 C399 1.373 . S
C398 C400 1.389 . S
C399 H378 0.950 . S
C399 C398 1.373 . S
C399 C415 1.377 . S
C400 C398 1.389 . S
C400 C401 1.524 . S
C400 C414 1.377 . S
C401 C400 1.524 . S
C401 C402 1.397 . S
C401 C406 1.363 . S
C402 H379 0.950 . S
C402 C401 1.397 . S
C402 C403 1.334 . S
C403 H380 0.950 . S
C403 C402 1.334 . S
C403 C404 1.287 . S
C404 C403 1.287 . S
C404 C405 1.524 . S
C404 H423 0.913 . S
C405 H381 0.950 . S
C405 C404 1.524 . S
C405 C406 1.415 . S
C406 H382 0.950 . S
C406 C401 1.363 . S
C406 C405 1.415 . S
C407 H383 0.951 . S
C407 C408 1.366 . S
C407 C409 1.388 . S
C408 C407 1.366 . S
C408 C412 1.385 . S
C409 H384 0.951 . S
C409 C407 1.388 . S
C409 C410 1.366 . S
C410 C409 1.366 . S
C410 C411 1.414 . S
C410 C413 1.499 . S
C411 H385 0.950 . S
C411 C410 1.414 . S
C411 C412 1.374 . S
C412 H386 0.950 . S
C412 C408 1.385 . S
C412 C411 1.374 . S
C413 C410 1.499 . S
C413 C414 1.373 . S
C413 C415 1.389 . S
C414 H387 0.950 . S
C414 C400 1.377 . S
C414 C413 1.373 . S
C415 C399 1.377 . S
C415 C413 1.389 . S
C415 C416 1.524 . S
C416 C415 1.524 . S
C416 C417 1.397 . S
C416 C421 1.363 . S
C417 H388 0.950 . S
C417 C416 1.397 . S
C417 C418 1.334 . S
C418 H389 0.950 1_565 S
C418 C417 1.334 . S
C418 C419 1.287 . S
C419 C418 1.287 . S
C419 C420 1.524 . S
C419 H422 0.999 1_565 S
C420 H390 0.950 . S
C420 C419 1.524 . S
C420 C421 1.415 . S
C421 H391 0.950 . S
C421 C416 1.363 . S
C421 C420 1.415 . S
H422 C419 0.999 1_545 S
H423 C404 0.913 . S
H424 C442 0.951 . S
H425 C444 0.951 . S
H426 C446 0.950 . S
H427 C447 0.950 . S
H428 C449 0.950 . S
H429 C452 0.950 . S
H430 C453 0.950 1_545 S
H431 C455 0.950 . S
H432 C456 0.950 . S
H433 C457 0.951 . S
H434 C459 0.951 . S
H435 C461 0.950 . S
H436 C462 0.950 . S
H437 C464 0.950 . S
H438 C467 0.950 . S
H439 C468 0.950 . S
H440 C470 0.950 . S
H441 C471 0.950 . S
C442 H424 0.951 . S
C442 C443 1.366 . S
C442 C444 1.388 . S
C443 C442 1.366 . S
C443 C447 1.385 . S
C444 H425 0.951 . S
C444 C442 1.388 . S
C444 C445 1.366 . S
C445 C444 1.366 . S
C445 C446 1.414 . S
C445 C448 1.499 . S
C446 H426 0.950 . S
C446 C445 1.414 . S
C446 C447 1.374 . S
C447 H427 0.950 . S
C447 C443 1.385 . S
C447 C446 1.374 . S
C448 C445 1.499 . S
C448 C449 1.373 . S
C448 C450 1.389 . S
C449 H428 0.950 . S
C449 C448 1.373 . S
C449 C465 1.377 . S
C450 C448 1.389 . S
C450 C451 1.524 . S
C450 C464 1.377 . S
C451 C450 1.524 . S
C451 C452 1.397 . S
C451 C456 1.363 . S
C452 H429 0.950 . S
C452 C451 1.397 . S
C452 C453 1.334 . S
C453 H430 0.950 1_565 S
C453 C452 1.334 . S
C453 C454 1.287 . S
C454 C453 1.287 . S
C454 C455 1.524 . S
C454 H473 0.913 1_565 S
C455 H431 0.950 . S
C455 C454 1.524 . S
C455 C456 1.415 . S
C456 H432 0.950 . S
C456 C451 1.363 . S
C456 C455 1.415 . S
C457 H433 0.951 . S
C457 C458 1.366 . S
C457 C459 1.388 . S
C458 C457 1.366 . S
C458 C462 1.385 . S
C459 H434 0.951 . S
C459 C457 1.388 . S
C459 C460 1.366 . S
C460 C459 1.366 . S
C460 C461 1.414 . S
C460 C463 1.499 . S
C461 H435 0.950 . S
C461 C460 1.414 . S
C461 C462 1.374 . S
C462 H436 0.950 . S
C462 C458 1.385 . S
C462 C461 1.374 . S
C463 C460 1.499 . S
C463 C464 1.373 . S
C463 C465 1.389 . S
C464 H437 0.950 . S
C464 C450 1.377 . S
C464 C463 1.373 . S
C465 C449 1.377 . S
C465 C463 1.389 . S
C465 C466 1.524 . S
C466 C465 1.524 . S
C466 C467 1.397 . S
C466 C471 1.363 . S
C467 H438 0.950 . S
C467 C466 1.397 . S
C467 C468 1.334 . S
C468 H439 0.950 . S
C468 C467 1.334 . S
C468 C469 1.287 . S
C469 C468 1.287 . S
C469 C470 1.524 . S
C469 H472 0.999 . S
C470 H440 0.950 . S
C470 C469 1.524 . S
C470 C471 1.415 . S
C471 H441 0.950 . S
C471 C466 1.363 . S
C471 C470 1.415 . S
H472 C469 0.999 . S
H473 C454 0.913 1_545 S
H474 C492 0.951 . S
H475 C494 0.951 . S
H476 C496 0.950 . S
H477 C497 0.950 . S
H478 C499 0.950 . S
H479 C502 0.950 . S
H480 C503 0.950 . S
H481 C505 0.950 . S
H482 C506 0.950 . S
H483 C507 0.951 . S
H484 C509 0.951 . S
H485 C511 0.950 . S
H486 C512 0.950 . S
H487 C514 0.950 . S
H488 C517 0.950 . S
H489 C518 0.950 . S
H490 C520 0.950 . S
H491 C521 0.950 . S
C492 H474 0.951 . S
C492 C493 1.366 . S
C492 C494 1.388 . S
C493 C492 1.366 . S
C493 C497 1.385 . S
C494 H475 0.951 . S
C494 C492 1.388 . S
C494 C495 1.366 . S
C495 C494 1.366 . S
C495 C496 1.414 . S
C495 C498 1.499 . S
C496 H476 0.950 . S
C496 C495 1.414 . S
C496 C497 1.374 . S
C497 H477 0.950 . S
C497 C493 1.385 . S
C497 C496 1.374 . S
C498 C495 1.499 . S
C498 C499 1.373 . S
C498 C500 1.389 . S
C499 H478 0.950 . S
C499 C498 1.373 . S
C499 C515 1.377 . S
C500 C498 1.389 . S
C500 C501 1.524 . S
C500 C514 1.377 . S
C501 C500 1.524 . S
C501 C502 1.397 . S
C501 C506 1.363 . S
C502 H479 0.950 . S
C502 C501 1.397 . S
C502 C503 1.334 . S
C503 H480 0.950 . S
C503 C502 1.334 . S
C503 C504 1.287 . S
C504 C503 1.287 . S
C504 C505 1.524 . S
C504 H523 0.913 . S
C505 H481 0.950 . S
C505 C504 1.524 . S
C505 C506 1.415 . S
C506 H482 0.950 . S
C506 C501 1.363 . S
C506 C505 1.415 . S
C507 H483 0.951 . S
C507 C508 1.366 . S
C507 C509 1.388 . S
C508 C507 1.366 . S
C508 C512 1.385 . S
C509 H484 0.951 . S
C509 C507 1.388 . S
C509 C510 1.366 . S
C510 C509 1.366 . S
C510 C511 1.414 . S
C510 C513 1.499 . S
C511 H485 0.950 . S
C511 C510 1.414 . S
C511 C512 1.374 . S
C512 H486 0.950 . S
C512 C508 1.385 . S
C512 C511 1.374 . S
C513 C510 1.499 . S
C513 C514 1.373 . S
C513 C515 1.389 . S
C514 H487 0.950 . S
C514 C500 1.377 . S
C514 C513 1.373 . S
C515 C499 1.377 . S
C515 C513 1.389 . S
C515 C516 1.524 . S
C516 C515 1.524 . S
C516 C517 1.397 . S
C516 C521 1.363 . S
C517 H488 0.950 . S
C517 C516 1.397 . S
C517 C518 1.334 . S
C518 H489 0.950 . S
C518 C517 1.334 . S
C518 C519 1.287 . S
C519 C518 1.287 . S
C519 C520 1.524 . S
C519 H522 0.999 . S
C520 H490 0.950 . S
C520 C519 1.524 . S
C520 C521 1.415 . S
C521 H491 0.950 . S
C521 C516 1.363 . S
C521 C520 1.415 . S
H522 C519 0.999 . S
H523 C504 0.913 . S
H524 C542 0.951 . S
H525 C544 0.951 . S
H526 C546 0.950 . S
H527 C547 0.950 . S
H528 C549 0.950 . S
H529 C552 0.950 . S
H530 C553 0.950 . S
H531 C555 0.950 . S
H532 C556 0.950 . S
H533 C557 0.951 . S
H534 C559 0.951 . S
H535 C561 0.950 . S
H536 C562 0.950 . S
H537 C564 0.950 . S
H538 C567 0.950 . S
H539 C568 0.950 . S
H540 C570 0.950 . S
H541 C571 0.950 . S
C542 H524 0.951 . S
C542 C543 1.366 . S
C542 C544 1.388 . S
C543 C542 1.366 . S
C543 C547 1.385 . S
C544 H525 0.951 . S
C544 C542 1.388 . S
C544 C545 1.366 . S
C545 C544 1.366 . S
C545 C546 1.414 . S
C545 C548 1.499 . S
C546 H526 0.950 . S
C546 C545 1.414 . S
C546 C547 1.374 . S
C547 H527 0.950 . S
C547 C543 1.385 . S
C547 C546 1.374 . S
C548 C545 1.499 . S
C548 C549 1.373 . S
C548 C550 1.389 . S
C549 H528 0.950 . S
C549 C548 1.373 . S
C549 C565 1.377 . S
C550 C548 1.389 . S
C550 C551 1.524 . S
C550 C564 1.377 . S
C551 C550 1.524 . S
C551 C552 1.397 . S
C551 C556 1.363 . S
C552 H529 0.950 . S
C552 C551 1.397 . S
C552 C553 1.334 . S
C553 H530 0.950 . S
C553 C552 1.334 . S
C553 C554 1.287 . S
C554 C553 1.287 . S
C554 C555 1.524 . S
C554 H573 0.913 . S
C555 H531 0.950 . S
C555 C554 1.524 . S
C555 C556 1.415 . S
C556 H532 0.950 . S
C556 C551 1.363 . S
C556 C555 1.415 . S
C557 H533 0.951 . S
C557 C558 1.366 . S
C557 C559 1.388 . S
C558 C557 1.366 . S
C558 C562 1.385 . S
C559 H534 0.951 . S
C559 C557 1.388 . S
C559 C560 1.366 . S
C560 C559 1.366 . S
C560 C561 1.414 . S
C560 C563 1.499 . S
C561 H535 0.950 . S
C561 C560 1.414 . S
C561 C562 1.374 . S
C562 H536 0.950 . S
C562 C558 1.385 . S
C562 C561 1.374 . S
C563 C560 1.499 . S
C563 C564 1.373 . S
C563 C565 1.389 . S
C564 H537 0.950 . S
C564 C550 1.377 . S
C564 C563 1.373 . S
C565 C549 1.377 . S
C565 C563 1.389 . S
C565 C566 1.524 . S
C566 C565 1.524 . S
C566 C567 1.397 . S
C566 C571 1.363 . S
C567 H538 0.950 . S
C567 C566 1.397 . S
C567 C568 1.334 . S
C568 H539 0.950 . S
C568 C567 1.334 . S
C568 C569 1.287 . S
C569 C568 1.287 . S
C569 C570 1.524 . S
C569 H572 0.999 . S
C570 H540 0.950 . S
C570 C569 1.524 . S
C570 C571 1.415 . S
C571 H541 0.950 . S
C571 C566 1.363 . S
C571 C570 1.415 . S
H572 C569 0.999 . S
H573 C554 0.913 . S
H574 C592 0.951 . S
H575 C594 0.951 . S
H576 C596 0.950 . S
H577 C597 0.950 . S
H578 C599 0.950 . S
H579 C602 0.950 . S
H580 C603 0.950 . S
H581 C605 0.950 . S
H582 C606 0.950 . S
H583 C607 0.951 . S
H584 C609 0.951 . S
H585 C611 0.950 . S
H586 C612 0.950 . S
H587 C614 0.950 . S
H588 C617 0.950 . S
H589 C618 0.950 . S
H590 C620 0.950 . S
H591 C621 0.950 . S
C592 H574 0.951 . S
C592 C593 1.366 . S
C592 C594 1.388 . S
C593 C592 1.366 . S
C593 C597 1.385 . S
C594 H575 0.951 . S
C594 C592 1.388 . S
C594 C595 1.366 . S
C595 C594 1.366 . S
C595 C596 1.414 . S
C595 C598 1.499 . S
C596 H576 0.950 . S
C596 C595 1.414 . S
C596 C597 1.374 . S
C597 H577 0.950 . S
C597 C593 1.385 . S
C597 C596 1.374 . S
C598 C595 1.499 . S
C598 C599 1.373 . S
C598 C600 1.389 . S
C599 H578 0.950 . S
C599 C598 1.373 . S
C599 C615 1.377 . S
C600 C598 1.389 . S
C600 C601 1.524 . S
C600 C614 1.377 . S
C601 C600 1.524 . S
C601 C602 1.397 . S
C601 C606 1.363 . S
C602 H579 0.950 . S
C602 C601 1.397 . S
C602 C603 1.334 . S
C603 H580 0.950 . S
C603 C602 1.334 . S
C603 C604 1.287 . S
C604 C603 1.287 . S
C604 C605 1.524 . S
C604 H623 0.913 . S
C605 H581 0.950 . S
C605 C604 1.524 . S
C605 C606 1.415 . S
C606 H582 0.950 . S
C606 C601 1.363 . S
C606 C605 1.415 . S
C607 H583 0.951 . S
C607 C608 1.366 . S
C607 C609 1.388 . S
C608 C607 1.366 . S
C608 C612 1.385 . S
C609 H584 0.951 . S
C609 C607 1.388 . S
C609 C610 1.366 . S
C610 C609 1.366 . S
C610 C611 1.414 . S
C610 C613 1.499 . S
C611 H585 0.950 . S
C611 C610 1.414 . S
C611 C612 1.374 . S
C612 H586 0.950 . S
C612 C608 1.385 . S
C612 C611 1.374 . S
C613 C610 1.499 . S
C613 C614 1.373 . S
C613 C615 1.389 . S
C614 H587 0.950 . S
C614 C600 1.377 . S
C614 C613 1.373 . S
C615 C599 1.377 . S
C615 C613 1.389 . S
C615 C616 1.524 . S
C616 C615 1.524 . S
C616 C617 1.397 . S
C616 C621 1.363 . S
C617 H588 0.950 . S
C617 C616 1.397 . S
C617 C618 1.334 . S
C618 H589 0.950 . S
C618 C617 1.334 . S
C618 C619 1.287 . S
C619 C618 1.287 . S
C619 C620 1.524 . S
C619 H622 0.999 . S
C620 H590 0.950 . S
C620 C619 1.524 . S
C620 C621 1.415 . S
C621 H591 0.950 . S
C621 C616 1.363 . S
C621 C620 1.415 . S
H622 C619 0.999 . S
H623 C604 0.913 . S
H624 C642 0.951 . S
H625 C644 0.951 . S
H626 C646 0.950 . S
H627 C647 0.950 1_554 S
H628 C649 0.950 . S
H629 C652 0.950 . S
H630 C653 0.950 . S
H631 C655 0.950 1_545 S
H632 C656 0.950 . S
H633 C657 0.951 . S
H634 C659 0.951 . S
H635 C661 0.964 . S
H636 C662 0.950 1_545 S
H637 C664 0.950 . S
H638 C667 0.950 . S
H639 C668 0.950 . S
H640 C670 0.950 . S
H641 C671 0.950 . S
C642 H624 0.951 . S
C642 C643 1.388 . S
C642 C644 1.388 . S
C643 C642 1.388 . S
C643 C647 1.358 1_545 S
C644 H625 0.951 . S
C644 C642 1.388 . S
C644 C645 1.366 1_545 S
C645 C644 1.366 1_565 S
C645 C646 1.414 . S
C645 C648 1.499 . S
C646 H626 0.950 . S
C646 C645 1.414 . S
C646 C647 1.374 . S
C647 H627 0.950 1_556 S
C647 C643 1.358 1_565 S
C647 C646 1.374 . S
C648 C645 1.499 . S
C648 C649 1.373 . S
C648 C650 1.389 . S
C649 H628 0.950 . S
C649 C648 1.373 . S
C649 C665 1.377 . S
C650 C648 1.389 . S
C650 C651 1.524 . S
C650 C664 1.377 . S
C651 C650 1.524 . S
C651 C652 1.397 . S
C651 C656 1.363 1_565 S
C652 H629 0.950 . S
C652 C651 1.397 . S
C652 C653 1.334 . S
C653 H630 0.950 . S
C653 C652 1.334 . S
C653 C654 1.287 . S
C654 C653 1.287 . S
C654 C655 1.524 . S
C654 H673 0.913 . S
C655 H631 0.950 1_565 S
C655 C654 1.524 . S
C655 C656 1.415 1_565 S
C656 H632 0.950 . S
C656 C651 1.363 1_545 S
C656 C655 1.415 1_545 S
C657 H633 0.951 . S
C657 C658 1.366 . S
C657 C659 1.388 . S
C658 C657 1.366 . S
C658 C662 1.385 . S
C659 H634 0.951 . S
C659 C657 1.388 . S
C659 C660 1.366 . S
C660 C659 1.366 . S
C660 C661 1.403 1_565 S
C660 C663 1.499 . S
C661 H635 0.964 . S
C661 C660 1.403 1_545 S
C661 C662 1.372 1_545 S
C662 H636 0.950 1_565 S
C662 C658 1.385 . S
C662 C661 1.372 1_565 S
C663 C660 1.499 . S
C663 C664 1.373 . S
C663 C665 1.389 . S
C664 H637 0.950 . S
C664 C650 1.377 . S
C664 C663 1.373 . S
C665 C649 1.377 . S
C665 C663 1.389 . S
C665 C666 1.524 . S
C666 C665 1.524 . S
C666 C667 1.397 1_565 S
C666 C671 1.363 . S
C667 H638 0.950 . S
C667 C666 1.397 1_545 S
C667 C668 1.334 . S
C668 H639 0.950 . S
C668 C667 1.334 . S
C668 C669 1.287 . S
C669 C668 1.287 . S
C669 C670 1.524 1_545 S
C669 H672 0.999 . S
C670 H640 0.950 . S
C670 C669 1.524 1_565 S
C670 C671 1.415 . S
C671 H641 0.950 . S
C671 C666 1.363 . S
C671 C670 1.415 . S
H672 C669 0.999 . S
H673 C654 0.913 . S
H674 C692 0.951 . S
H675 C694 0.951 . S
H676 C696 0.950 . S
H677 C697 0.950 . S
H678 C699 0.950 . S
H679 C702 0.950 . S
H680 C703 0.950 . S
H681 C705 0.950 . S
H682 C706 0.950 . S
H683 C707 0.951 . S
H684 C709 0.951 . S
H685 C711 0.950 . S
H686 C712 0.950 1_554 S
H687 C714 0.950 . S
H688 C717 0.950 . S
H689 C718 0.950 . S
H690 C720 0.950 . S
H691 C721 0.950 . S
C692 H674 0.951 . S
C692 C693 1.366 . S
C692 C694 1.388 . S
C693 C692 1.366 . S
C693 C697 1.385 . S
C694 H675 0.951 . S
C694 C692 1.388 . S
C694 C695 1.366 . S
C695 C694 1.366 . S
C695 C696 1.414 . S
C695 C698 1.499 . S
C696 H676 0.950 . S
C696 C695 1.414 . S
C696 C697 1.374 . S
C697 H677 0.950 . S
C697 C693 1.385 . S
C697 C696 1.374 . S
C698 C695 1.499 . S
C698 C699 1.373 . S
C698 C700 1.389 . S
C699 H678 0.950 . S
C699 C698 1.373 . S
C699 C715 1.377 . S
C700 C698 1.389 . S
C700 C701 1.524 . S
C700 C714 1.377 . S
C701 C700 1.524 . S
C701 C702 1.397 . S
C701 C706 1.363 . S
C702 H679 0.950 . S
C702 C701 1.397 . S
C702 C703 1.334 . S
C703 H680 0.950 . S
C703 C702 1.334 . S
C703 C704 1.287 . S
C704 C703 1.287 . S
C704 C705 1.524 . S
C704 H723 0.913 . S
C705 H681 0.950 . S
C705 C704 1.524 . S
C705 C706 1.415 . S
C706 H682 0.950 . S
C706 C701 1.363 . S
C706 C705 1.415 . S
C707 H683 0.951 . S
C707 C708 1.366 . S
C707 C709 1.388 . S
C708 C707 1.366 . S
C708 C712 1.385 . S
C709 H684 0.951 . S
C709 C707 1.388 . S
C709 C710 1.366 . S
C710 C709 1.366 . S
C710 C711 1.414 . S
C710 C713 1.499 . S
C711 H685 0.950 . S
C711 C710 1.414 . S
C711 C712 1.374 . S
C712 H686 0.950 1_556 S
C712 C708 1.385 . S
C712 C711 1.374 . S
C713 C710 1.499 . S
C713 C714 1.373 . S
C713 C715 1.389 . S
C714 H687 0.950 . S
C714 C700 1.377 . S
C714 C713 1.373 . S
C715 C699 1.377 . S
C715 C713 1.389 . S
C715 C716 1.524 . S
C716 C715 1.524 . S
C716 C717 1.397 . S
C716 C721 1.363 . S
C717 H688 0.950 . S
C717 C716 1.397 . S
C717 C718 1.334 . S
C718 H689 0.950 . S
C718 C717 1.334 . S
C718 C719 1.287 . S
C719 C718 1.287 . S
C719 C720 1.524 . S
C719 H722 0.999 . S
C720 H690 0.950 . S
C720 C719 1.524 . S
C720 C721 1.415 . S
C721 H691 0.950 . S
C721 C716 1.363 . S
C721 C720 1.415 . S
H722 C719 0.999 . S
H723 C704 0.913 . S
H724 C742 0.951 . S
H725 C744 0.951 . S
H726 C746 0.950 . S
H727 C747 0.950 1_554 S
H728 C749 0.950 . S
H729 C752 0.950 . S
H730 C753 0.950 . S
H731 C755 0.950 . S
H732 C756 0.950 . S
H733 C757 0.951 . S
H734 C759 0.951 . S
H735 C761 0.950 . S
H736 C762 0.950 . S
H737 C764 0.950 . S
H738 C767 0.950 . S
H739 C768 0.950 . S
H740 C770 0.950 . S
H741 C771 0.950 . S
C742 H724 0.951 . S
C742 C743 1.366 . S
C742 C744 1.388 . S
C743 C742 1.366 . S
C743 C747 1.385 . S
C744 H725 0.951 . S
C744 C742 1.388 . S
C744 C745 1.366 . S
C745 C744 1.366 . S
C745 C746 1.414 . S
C745 C748 1.499 . S
C746 H726 0.950 . S
C746 C745 1.414 . S
C746 C747 1.374 . S
C747 H727 0.950 1_556 S
C747 C743 1.385 . S
C747 C746 1.374 . S
C748 C745 1.499 . S
C748 C749 1.373 . S
C748 C750 1.389 . S
C749 H728 0.950 . S
C749 C748 1.373 . S
C749 C765 1.377 . S
C750 C748 1.389 . S
C750 C751 1.524 . S
C750 C764 1.377 . S
C751 C750 1.524 . S
C751 C752 1.397 . S
C751 C756 1.363 . S
C752 H729 0.950 . S
C752 C751 1.397 . S
C752 C753 1.334 . S
C753 H730 0.950 . S
C753 C752 1.334 . S
C753 C754 1.287 . S
C754 C753 1.287 . S
C754 C755 1.524 . S
C754 H773 0.913 . S
C755 H731 0.950 . S
C755 C754 1.524 . S
C755 C756 1.415 . S
C756 H732 0.950 . S
C756 C751 1.363 . S
C756 C755 1.415 . S
C757 H733 0.951 . S
C757 C758 1.366 . S
C757 C759 1.388 . S
C758 C757 1.366 . S
C758 C762 1.385 . S
C759 H734 0.951 . S
C759 C757 1.388 . S
C759 C760 1.366 . S
C760 C759 1.366 . S
C760 C761 1.414 . S
C760 C763 1.499 . S
C761 H735 0.950 . S
C761 C760 1.414 . S
C761 C762 1.374 . S
C762 H736 0.950 . S
C762 C758 1.385 . S
C762 C761 1.374 . S
C763 C760 1.499 . S
C763 C764 1.373 . S
C763 C765 1.389 . S
C764 H737 0.950 . S
C764 C750 1.377 . S
C764 C763 1.373 . S
C765 C749 1.377 . S
C765 C763 1.389 . S
C765 C766 1.524 . S
C766 C765 1.524 . S
C766 C767 1.397 . S
C766 C771 1.363 . S
C767 H738 0.950 . S
C767 C766 1.397 . S
C767 C768 1.334 . S
C768 H739 0.950 . S
C768 C767 1.334 . S
C768 C769 1.287 . S
C769 C768 1.287 . S
C769 C770 1.524 . S
C769 H772 0.999 . S
C770 H740 0.950 . S
C770 C769 1.524 . S
C770 C771 1.415 . S
C771 H741 0.950 . S
C771 C766 1.363 . S
C771 C770 1.415 . S
H772 C769 0.999 . S
H773 C754 0.913 . S
H774 C792 0.951 . S
H775 C794 0.951 . S
H776 C796 0.950 . S
H777 C797 0.950 1_554 S
H778 C799 0.950 . S
H779 C802 0.950 . S
H780 C803 0.950 . S
H781 C805 0.950 . S
H782 C806 0.950 . S
H783 C807 0.951 . S
H784 C809 0.951 . S
H785 C811 0.950 . S
H786 C812 0.950 . S
H787 C814 0.950 . S
H788 C817 0.950 . S
H789 C818 0.950 . S
H790 C820 0.950 . S
H791 C821 0.950 . S
C792 H774 0.951 . S
C792 C793 1.366 . S
C792 C794 1.388 1_455 S
C793 C792 1.366 . S
C793 C797 1.382 1_455 S
C794 H775 0.951 . S
C794 C792 1.388 1_655 S
C794 C795 1.366 . S
C795 C794 1.366 . S
C795 C796 1.414 . S
C795 C798 1.499 . S
C796 H776 0.950 . S
C796 C795 1.414 . S
C796 C797 1.374 . S
C797 H777 0.950 1_556 S
C797 C793 1.382 1_655 S
C797 C796 1.374 . S
C798 C795 1.499 . S
C798 C799 1.373 1_655 S
C798 C800 1.389 . S
C799 H778 0.950 . S
C799 C798 1.373 1_455 S
C799 C815 1.377 . S
C800 C798 1.389 . S
C800 C801 1.524 . S
C800 C814 1.377 . S
C801 C800 1.524 . S
C801 C802 1.397 . S
C801 C806 1.363 . S
C802 H779 0.950 . S
C802 C801 1.397 . S
C802 C803 1.334 . S
C803 H780 0.950 . S
C803 C802 1.334 . S
C803 C804 1.287 . S
C804 C803 1.287 . S
C804 C805 1.524 . S
C804 H823 0.913 . S
C805 H781 0.950 . S
C805 C804 1.524 . S
C805 C806 1.415 . S
C806 H782 0.950 . S
C806 C801 1.363 . S
C806 C805 1.415 . S
C807 H783 0.951 . S
C807 C808 1.366 . S
C807 C809 1.388 . S
C808 C807 1.366 . S
C808 C812 1.385 . S
C809 H784 0.951 . S
C809 C807 1.388 . S
C809 C810 1.366 . S
C810 C809 1.366 . S
C810 C811 1.414 . S
C810 C813 1.499 . S
C811 H785 0.950 . S
C811 C810 1.414 . S
C811 C812 1.374 . S
C812 H786 0.950 . S
C812 C808 1.385 . S
C812 C811 1.374 . S
C813 C810 1.499 . S
C813 C814 1.373 . S
C813 C815 1.389 1_655 S
C814 H787 0.950 . S
C814 C800 1.377 . S
C814 C813 1.373 . S
C815 C799 1.377 . S
C815 C813 1.389 1_455 S
C815 C816 1.524 . S
C816 C815 1.524 . S
C816 C817 1.397 . S
C816 C821 1.363 . S
C817 H788 0.950 . S
C817 C816 1.397 . S
C817 C818 1.334 . S
C818 H789 0.950 . S
C818 C817 1.334 . S
C818 C819 1.287 . S
C819 C818 1.287 . S
C819 C820 1.524 . S
C819 H822 0.999 . S
C820 H790 0.950 . S
C820 C819 1.524 . S
C820 C821 1.415 . S
C821 H791 0.950 . S
C821 C816 1.363 . S
C821 C820 1.415 . S
H822 C819 0.999 . S
H823 C804 0.913 . S
H824 C842 0.951 . S
H825 C844 0.951 . S
H826 C846 0.950 . S
H827 C847 0.950 . S
H828 C849 0.950 . S
H829 C852 0.950 . S
H830 C853 0.950 . S
H831 C855 0.950 . S
H832 C856 0.950 . S
H833 C857 0.951 . S
H834 C859 0.951 . S
H835 C861 0.950 . S
H836 C862 0.950 . S
H837 C864 0.939 1_565 S
H838 C867 0.950 1_565 S
H839 C868 0.923 1_565 S
H840 C870 0.950 . S
H841 C871 0.950 . S
C842 H824 0.951 . S
C842 C843 1.378 . S
C842 C844 1.388 . S
C843 C842 1.378 . S
C843 C847 1.370 1_565 S
C844 H825 0.951 . S
C844 C842 1.388 . S
C844 C845 1.366 1_565 S
C845 C844 1.366 1_545 S
C845 C846 1.414 . S
C845 C848 1.499 . S
C846 H826 0.950 . S
C846 C845 1.414 . S
C846 C847 1.374 . S
C847 H827 0.950 . S
C847 C843 1.370 1_545 S
C847 C846 1.374 . S
C848 C845 1.499 . S
C848 C849 1.373 . S
C848 C850 1.389 . S
C849 H828 0.950 . S
C849 C848 1.373 . S
C849 C865 1.377 . S
C850 C848 1.389 . S
C850 C851 1.524 1_545 S
C850 C864 1.377 . S
C851 C850 1.524 1_565 S
C851 C852 1.397 1_565 S
C851 C856 1.363 . S
C852 H829 0.950 . S
C852 C851 1.397 1_545 S
C852 C853 1.334 . S
C853 H830 0.950 . S
C853 C852 1.334 . S
C853 C854 1.287 1_545 S
C854 C853 1.287 1_565 S
C854 C855 1.524 . S
C854 H873 0.913 . S
C855 H831 0.950 . S
C855 C854 1.524 . S
C855 C856 1.415 . S
C856 H832 0.950 . S
C856 C851 1.363 . S
C856 C855 1.415 . S
C857 H833 0.951 . S
C857 C858 1.366 . S
C857 C859 1.388 . S
C858 C857 1.366 . S
C858 C862 1.385 1_545 S
C859 H834 0.951 . S
C859 C857 1.388 . S
C859 C860 1.366 . S
C860 C859 1.366 . S
C860 C861 1.414 1_545 S
C860 C863 1.499 . S
C861 H835 0.950 . S
C861 C860 1.414 1_565 S
C861 C862 1.374 . S
C862 H836 0.950 . S
C862 C858 1.385 1_565 S
C862 C861 1.374 . S
C863 C860 1.499 . S
C863 C864 1.373 . S
C863 C865 1.389 . S
C864 H837 0.939 1_545 S
C864 C850 1.377 . S
C864 C863 1.373 . S
C865 C849 1.377 . S
C865 C863 1.389 . S
C865 C866 1.524 . S
C866 C865 1.524 . S
C866 C867 1.397 . S
C866 C871 1.363 . S
C867 H838 0.950 1_545 S
C867 C866 1.397 . S
C867 C868 1.334 . S
C868 H839 0.923 1_545 S
C868 C867 1.334 . S
C868 C869 1.287 . S
C869 C868 1.287 . S
C869 C870 1.524 . S
C869 H872 0.999 . S
C870 H840 0.950 . S
C870 C869 1.524 . S
C870 C871 1.415 . S
C871 H841 0.950 . S
C871 C866 1.363 . S
C871 C870 1.415 . S
H872 C869 0.999 . S
H873 C854 0.913 . S
H874 C892 0.951 . S
H875 C894 0.951 . S
H876 C896 0.950 . S
H877 C897 0.950 . S
H878 C899 0.950 . S
H879 C902 0.950 . S
H880 C903 0.950 . S
H881 C905 0.950 . S
H882 C906 0.950 . S
H883 C907 0.951 . S
H884 C909 0.951 . S
H885 C911 0.950 . S
H886 C912 0.950 . S
H887 C914 0.950 . S
H888 C917 0.950 . S
H889 C918 0.950 . S
H890 C920 0.950 . S
H891 C921 0.950 . S
C892 H874 0.951 . S
C892 C893 1.366 . S
C892 C894 1.388 . S
C893 C892 1.366 . S
C893 C897 1.385 . S
C894 H875 0.951 . S
C894 C892 1.388 . S
C894 C895 1.366 . S
C895 C894 1.366 . S
C895 C896 1.414 . S
C895 C898 1.499 . S
C896 H876 0.950 . S
C896 C895 1.414 . S
C896 C897 1.374 . S
C897 H877 0.950 . S
C897 C893 1.385 . S
C897 C896 1.374 . S
C898 C895 1.499 . S
C898 C899 1.373 . S
C898 C900 1.389 . S
C899 H878 0.950 . S
C899 C898 1.373 . S
C899 C915 1.377 . S
C900 C898 1.389 . S
C900 C901 1.524 . S
C900 C914 1.377 . S
C901 C900 1.524 . S
C901 C902 1.397 . S
C901 C906 1.363 . S
C902 H879 0.950 . S
C902 C901 1.397 . S
C902 C903 1.334 . S
C903 H880 0.950 . S
C903 C902 1.334 . S
C903 C904 1.287 . S
C904 C903 1.287 . S
C904 C905 1.524 . S
C904 H923 0.913 . S
C905 H881 0.950 . S
C905 C904 1.524 . S
C905 C906 1.415 . S
C906 H882 0.950 . S
C906 C901 1.363 . S
C906 C905 1.415 . S
C907 H883 0.951 . S
C907 C908 1.366 . S
C907 C909 1.388 . S
C908 C907 1.366 . S
C908 C912 1.385 . S
C909 H884 0.951 . S
C909 C907 1.388 . S
C909 C910 1.366 . S
C910 C909 1.366 . S
C910 C911 1.414 . S
C910 C913 1.499 . S
C911 H885 0.950 . S
C911 C910 1.414 . S
C911 C912 1.374 . S
C912 H886 0.950 . S
C912 C908 1.385 . S
C912 C911 1.374 . S
C913 C910 1.499 . S
C913 C914 1.373 . S
C913 C915 1.389 . S
C914 H887 0.950 . S
C914 C900 1.377 . S
C914 C913 1.373 . S
C915 C899 1.377 . S
C915 C913 1.389 . S
C915 C916 1.524 . S
C916 C915 1.524 . S
C916 C917 1.397 . S
C916 C921 1.363 . S
C917 H888 0.950 . S
C917 C916 1.397 . S
C917 C918 1.334 . S
C918 H889 0.950 . S
C918 C917 1.334 . S
C918 C919 1.287 . S
C919 C918 1.287 . S
C919 C920 1.524 . S
C919 H922 0.999 . S
C920 H890 0.950 . S
C920 C919 1.524 . S
C920 C921 1.415 . S
C921 H891 0.950 . S
C921 C916 1.363 . S
C921 C920 1.415 . S
H922 C919 0.999 . S
H923 C904 0.913 . S
H924 C942 0.951 . S
H925 C944 0.951 . S
H926 C946 0.950 . S
H927 C947 0.950 . S
H928 C949 0.950 . S
H929 C952 0.950 . S
H930 C953 0.950 . S
H931 C955 0.950 . S
H932 C956 0.950 . S
H933 C957 0.951 . S
H934 C959 0.951 . S
H935 C961 0.950 . S
H936 C962 0.950 . S
H937 C964 0.950 . S
H938 C967 0.950 . S
H939 C968 0.950 . S
H940 C970 0.950 . S
H941 C971 0.950 . S
C942 H924 0.951 . S
C942 C943 1.366 . S
C942 C944 1.388 . S
C943 C942 1.366 . S
C943 C947 1.385 . S
C944 H925 0.951 . S
C944 C942 1.388 . S
C944 C945 1.366 . S
C945 C944 1.366 . S
C945 C946 1.414 . S
C945 C948 1.499 . S
C946 H926 0.950 . S
C946 C945 1.414 . S
C946 C947 1.374 . S
C947 H927 0.950 . S
C947 C943 1.385 . S
C947 C946 1.374 . S
C948 C945 1.499 . S
C948 C949 1.373 . S
C948 C950 1.389 . S
C949 H928 0.950 . S
C949 C948 1.373 . S
C949 C965 1.377 . S
C950 C948 1.389 . S
C950 C951 1.524 . S
C950 C964 1.377 . S
C951 C950 1.524 . S
C951 C952 1.397 . S
C951 C956 1.363 . S
C952 H929 0.950 . S
C952 C951 1.397 . S
C952 C953 1.334 . S
C953 H930 0.950 . S
C953 C952 1.334 . S
C953 C954 1.287 . S
C954 C953 1.287 . S
C954 C955 1.524 . S
C954 H973 0.913 . S
C955 H931 0.950 . S
C955 C954 1.524 . S
C955 C956 1.415 . S
C956 H932 0.950 . S
C956 C951 1.363 . S
C956 C955 1.415 . S
C957 H933 0.951 . S
C957 C958 1.366 . S
C957 C959 1.388 . S
C958 C957 1.366 . S
C958 C962 1.385 . S
C959 H934 0.951 . S
C959 C957 1.388 . S
C959 C960 1.366 . S
C960 C959 1.366 . S
C960 C961 1.414 . S
C960 C963 1.499 . S
C961 H935 0.950 . S
C961 C960 1.414 . S
C961 C962 1.374 . S
C962 H936 0.950 . S
C962 C958 1.385 . S
C962 C961 1.374 . S
C963 C960 1.499 . S
C963 C964 1.373 . S
C963 C965 1.389 . S
C964 H937 0.950 . S
C964 C950 1.377 . S
C964 C963 1.373 . S
C965 C949 1.377 . S
C965 C963 1.389 . S
C965 C966 1.524 . S
C966 C965 1.524 . S
C966 C967 1.397 . S
C966 C971 1.363 . S
C967 H938 0.950 . S
C967 C966 1.397 . S
C967 C968 1.334 . S
C968 H939 0.950 . S
C968 C967 1.334 . S
C968 C969 1.287 . S
C969 C968 1.287 . S
C969 C970 1.524 . S
C969 H972 0.999 . S
C970 H940 0.950 . S
C970 C969 1.524 . S
C970 C971 1.415 . S
C971 H941 0.950 . S
C971 C966 1.363 . S
C971 C970 1.415 . S
H972 C969 0.999 . S
H973 C954 0.913 . S
H974 C992 0.950 1_655 S
H975 C994 0.951 . S
H976 C996 0.950 . S
H977 C997 0.949 1_655 S
H978 C999 0.950 . S
H979 C1002 0.950 . S
H980 C1003 0.950 . S
H981 C1005 0.950 . S
H982 C1006 0.950 . S
H983 C1007 0.951 . S
H984 C1009 0.951 . S
H985 C1011 0.950 . S
H986 C1012 0.950 . S
H987 C1014 0.950 . S
H988 C1017 0.950 . S
H989 C1018 0.950 . S
H990 C1020 0.950 . S
H991 C1021 0.950 . S
C992 H974 0.950 1_455 S
C992 C993 1.365 1_455 S
C992 C994 1.389 . S
C993 C992 1.365 1_655 S
C993 C997 1.384 1_655 S
C994 H975 0.951 . S
C994 C992 1.389 . S
C994 C995 1.366 . S
C995 C994 1.366 . S
C995 C996 1.414 . S
C995 C998 1.499 . S
C996 H976 0.950 . S
C996 C995 1.414 . S
C996 C997 1.374 . S
C997 H977 0.949 1_455 S
C997 C993 1.384 1_455 S
C997 C996 1.374 . S
C998 C995 1.499 . S
C998 C999 1.373 . S
C998 C1000 1.389 1_455 S
C999 H978 0.950 . S
C999 C998 1.373 . S
C999 C1015 1.377 . S
C1000 C998 1.389 1_655 S
C1000 C1001 1.524 . S
C1000 C1014 1.377 . S
C1001 C1000 1.524 . S
C1001 C1002 1.397 . S
C1001 C1006 1.363 . S
C1002 H979 0.950 . S
C1002 C1001 1.397 . S
C1002 C1003 1.334 . S
C1003 H980 0.950 . S
C1003 C1002 1.334 . S
C1003 C1004 1.287 . S
C1004 C1003 1.287 . S
C1004 C1005 1.524 . S
C1004 H1023 0.913 . S
C1005 H981 0.950 . S
C1005 C1004 1.524 . S
C1005 C1006 1.415 . S
C1006 H982 0.950 . S
C1006 C1001 1.363 . S
C1006 C1005 1.415 . S
C1007 H983 0.951 . S
C1007 C1008 1.366 . S
C1007 C1009 1.388 . S
C1008 C1007 1.366 . S
C1008 C1012 1.385 . S
C1009 H984 0.951 . S
C1009 C1007 1.388 . S
C1009 C1010 1.366 . S
C1010 C1009 1.366 . S
C1010 C1011 1.414 . S
C1010 C1013 1.499 . S
C1011 H985 0.950 . S
C1011 C1010 1.414 . S
C1011 C1012 1.374 . S
C1012 H986 0.950 . S
C1012 C1008 1.385 . S
C1012 C1011 1.374 . S
C1013 C1010 1.499 . S
C1013 C1014 1.373 1_455 S
C1013 C1015 1.389 . S
C1014 H987 0.950 . S
C1014 C1000 1.377 . S
C1014 C1013 1.373 1_655 S
C1015 C999 1.377 . S
C1015 C1013 1.389 . S
C1015 C1016 1.524 . S
C1016 C1015 1.524 . S
C1016 C1017 1.397 . S
C1016 C1021 1.363 . S
C1017 H988 0.950 . S
C1017 C1016 1.397 . S
C1017 C1018 1.334 . S
C1018 H989 0.950 . S
C1018 C1017 1.334 . S
C1018 C1019 1.287 . S
C1019 C1018 1.287 . S
C1019 C1020 1.524 . S
C1019 H1022 0.999 . S
C1020 H990 0.950 . S
C1020 C1019 1.524 . S
C1020 C1021 1.415 . S
C1021 H991 0.950 . S
C1021 C1016 1.363 . S
C1021 C1020 1.415 . S
H1022 C1019 0.999 . S
H1023 C1004 0.913 . S
H1024 C1042 0.951 . S
H1025 C1044 0.951 . S
H1026 C1046 0.950 1_565 S
H1027 C1047 0.950 . S
H1028 C1049 0.950 . S
H1029 C1052 0.950 . S
H1030 C1053 0.950 . S
H1031 C1055 0.950 . S
H1032 C1056 0.950 . S
H1033 C1057 0.951 1_556 S
H1034 C1059 0.951 . S
H1035 C1061 0.950 . S
H1036 C1062 0.950 . S
H1037 C1064 0.950 . S
H1038 C1067 0.950 . S
H1039 C1068 0.950 . S
H1040 C1070 0.950 . S
H1041 C1071 0.950 . S
C1042 H1024 0.951 . S
C1042 C1043 1.366 . S
C1042 C1044 1.388 . S
C1043 C1042 1.366 . S
C1043 C1047 1.385 . S
C1044 H1025 0.951 . S
C1044 C1042 1.388 . S
C1044 C1045 1.366 . S
C1045 C1044 1.366 . S
C1045 C1046 1.414 . S
C1045 C1048 1.499 . S
C1046 H1026 0.950 1_545 S
C1046 C1045 1.414 . S
C1046 C1047 1.374 . S
C1047 H1027 0.950 . S
C1047 C1043 1.385 . S
C1047 C1046 1.374 . S
C1048 C1045 1.499 . S
C1048 C1049 1.373 1_545 S
C1048 C1050 1.389 . S
C1049 H1028 0.950 . S
C1049 C1048 1.373 1_565 S
C1049 C1065 1.377 . S
C1050 C1048 1.389 . S
C1050 C1051 1.524 . S
C1050 C1064 1.377 . S
C1051 C1050 1.524 . S
C1051 C1052 1.397 . S
C1051 C1056 1.363 . S
C1052 H1029 0.950 . S
C1052 C1051 1.397 . S
C1052 C1053 1.334 . S
C1053 H1030 0.950 . S
C1053 C1052 1.334 . S
C1053 C1054 1.287 . S
C1054 C1053 1.287 . S
C1054 C1055 1.524 . S
C1054 H1073 0.913 . S
C1055 H1031 0.950 . S
C1055 C1054 1.524 . S
C1055 C1056 1.415 . S
C1056 H1032 0.950 . S
C1056 C1051 1.363 . S
C1056 C1055 1.415 . S
C1057 H1033 0.951 1_554 S
C1057 C1058 1.379 . S
C1057 C1059 1.388 . S
C1058 C1057 1.379 . S
C1058 C1062 1.369 1_565 S
C1059 H1034 0.951 . S
C1059 C1057 1.388 . S
C1059 C1060 1.366 1_565 S
C1060 C1059 1.366 1_545 S
C1060 C1061 1.414 . S
C1060 C1063 1.499 . S
C1061 H1035 0.950 . S
C1061 C1060 1.414 . S
C1061 C1062 1.374 . S
C1062 H1036 0.950 . S
C1062 C1058 1.369 1_545 S
C1062 C1061 1.374 . S
C1063 C1060 1.499 . S
C1063 C1064 1.373 . S
C1063 C1065 1.389 1_545 S
C1064 H1037 0.950 . S
C1064 C1050 1.377 . S
C1064 C1063 1.373 . S
C1065 C1049 1.377 . S
C1065 C1063 1.389 1_565 S
C1065 C1066 1.524 . S
C1066 C1065 1.524 . S
C1066 C1067 1.397 . S
C1066 C1071 1.363 . S
C1067 H1038 0.950 . S
C1067 C1066 1.397 . S
C1067 C1068 1.334 . S
C1068 H1039 0.950 . S
C1068 C1067 1.334 . S
C1068 C1069 1.287 . S
C1069 C1068 1.287 . S
C1069 C1070 1.524 . S
C1069 H1072 0.999 . S
C1070 H1040 0.950 . S
C1070 C1069 1.524 . S
C1070 C1071 1.415 . S
C1071 H1041 0.950 . S
C1071 C1066 1.363 . S
C1071 C1070 1.415 . S
H1072 C1069 0.999 . S
H1073 C1054 0.913 . S
H1074 C1092 0.951 . S
H1075 C1094 0.951 . S
H1076 C1096 0.950 . S
H1077 C1097 0.950 . S
H1078 C1099 0.950 . S
H1079 C1102 0.950 . S
H1080 C1103 0.950 . S
H1081 C1105 0.950 . S
H1082 C1106 0.950 . S
H1083 C1107 0.951 1_556 S
H1084 C1109 0.951 . S
H1085 C1111 0.950 . S
H1086 C1112 0.950 . S
H1087 C1114 0.950 . S
H1088 C1117 0.950 . S
H1089 C1118 0.950 . S
H1090 C1120 0.950 . S
H1091 C1121 0.950 . S
C1092 H1074 0.951 . S
C1092 C1093 1.366 . S
C1092 C1094 1.388 . S
C1093 C1092 1.366 . S
C1093 C1097 1.385 . S
C1094 H1075 0.951 . S
C1094 C1092 1.388 . S
C1094 C1095 1.366 . S
C1095 C1094 1.366 . S
C1095 C1096 1.414 . S
C1095 C1098 1.499 . S
C1096 H1076 0.950 . S
C1096 C1095 1.414 . S
C1096 C1097 1.374 . S
C1097 H1077 0.950 . S
C1097 C1093 1.385 . S
C1097 C1096 1.374 . S
C1098 C1095 1.499 . S
C1098 C1099 1.373 . S
C1098 C1100 1.389 . S
C1099 H1078 0.950 . S
C1099 C1098 1.373 . S
C1099 C1115 1.377 . S
C1100 C1098 1.389 . S
C1100 C1101 1.524 . S
C1100 C1114 1.377 . S
C1101 C1100 1.524 . S
C1101 C1102 1.397 . S
C1101 C1106 1.363 . S
C1102 H1079 0.950 . S
C1102 C1101 1.397 . S
C1102 C1103 1.334 . S
C1103 H1080 0.950 . S
C1103 C1102 1.334 . S
C1103 C1104 1.287 . S
C1104 C1103 1.287 . S
C1104 C1105 1.524 . S
C1104 H1123 0.913 . S
C1105 H1081 0.950 . S
C1105 C1104 1.524 . S
C1105 C1106 1.415 . S
C1106 H1082 0.950 . S
C1106 C1101 1.363 . S
C1106 C1105 1.415 . S
C1107 H1083 0.951 1_554 S
C1107 C1108 1.366 . S
C1107 C1109 1.388 . S
C1108 C1107 1.366 . S
C1108 C1112 1.385 . S
C1109 H1084 0.951 . S
C1109 C1107 1.388 . S
C1109 C1110 1.366 . S
C1110 C1109 1.366 . S
C1110 C1111 1.414 . S
C1110 C1113 1.499 . S
C1111 H1085 0.950 . S
C1111 C1110 1.414 . S
C1111 C1112 1.374 . S
C1112 H1086 0.950 . S
C1112 C1108 1.385 . S
C1112 C1111 1.374 . S
C1113 C1110 1.499 . S
C1113 C1114 1.373 . S
C1113 C1115 1.389 . S
C1114 H1087 0.950 . S
C1114 C1100 1.377 . S
C1114 C1113 1.373 . S
C1115 C1099 1.377 . S
C1115 C1113 1.389 . S
C1115 C1116 1.524 . S
C1116 C1115 1.524 . S
C1116 C1117 1.397 . S
C1116 C1121 1.363 . S
C1117 H1088 0.950 . S
C1117 C1116 1.397 . S
C1117 C1118 1.334 . S
C1118 H1089 0.950 . S
C1118 C1117 1.334 . S
C1118 C1119 1.287 . S
C1119 C1118 1.287 . S
C1119 C1120 1.524 . S
C1119 H1122 0.999 1_554 S
C1120 H1090 0.950 . S
C1120 C1119 1.524 . S
C1120 C1121 1.415 . S
C1121 H1091 0.950 . S
C1121 C1116 1.363 . S
C1121 C1120 1.415 . S
H1122 C1119 0.999 1_556 S
H1123 C1104 0.913 . S
H1124 C1142 0.951 . S
H1125 C1144 0.951 . S
H1126 C1146 0.950 . S
H1127 C1147 0.950 . S
H1128 C1149 0.950 . S
H1129 C1152 0.950 . S
H1130 C1153 0.950 . S
H1131 C1155 0.950 . S
H1132 C1156 0.950 . S
H1133 C1157 0.951 . S
H1134 C1159 0.951 . S
H1135 C1161 0.950 . S
H1136 C1162 0.950 . S
H1137 C1164 0.950 . S
H1138 C1167 0.950 . S
H1139 C1168 0.950 . S
H1140 C1170 0.950 . S
H1141 C1171 0.950 . S
C1142 H1124 0.951 . S
C1142 C1143 1.366 . S
C1142 C1144 1.388 . S
C1143 C1142 1.366 . S
C1143 C1147 1.385 . S
C1144 H1125 0.951 . S
C1144 C1142 1.388 . S
C1144 C1145 1.366 . S
C1145 C1144 1.366 . S
C1145 C1146 1.414 . S
C1145 C1148 1.499 . S
C1146 H1126 0.950 . S
C1146 C1145 1.414 . S
C1146 C1147 1.374 . S
C1147 H1127 0.950 . S
C1147 C1143 1.385 . S
C1147 C1146 1.374 . S
C1148 C1145 1.499 . S
C1148 C1149 1.373 . S
C1148 C1150 1.389 . S
C1149 H1128 0.950 . S
C1149 C1148 1.373 . S
C1149 C1165 1.377 . S
C1150 C1148 1.389 . S
C1150 C1151 1.524 . S
C1150 C1164 1.377 . S
C1151 C1150 1.524 . S
C1151 C1152 1.397 . S
C1151 C1156 1.363 . S
C1152 H1129 0.950 . S
C1152 C1151 1.397 . S
C1152 C1153 1.334 . S
C1153 H1130 0.950 . S
C1153 C1152 1.334 . S
C1153 C1154 1.287 . S
C1154 C1153 1.287 . S
C1154 C1155 1.524 . S
C1154 H1173 0.913 . S
C1155 H1131 0.950 . S
C1155 C1154 1.524 . S
C1155 C1156 1.415 . S
C1156 H1132 0.950 . S
C1156 C1151 1.363 . S
C1156 C1155 1.415 . S
C1157 H1133 0.951 . S
C1157 C1158 1.366 . S
C1157 C1159 1.388 . S
C1158 C1157 1.366 . S
C1158 C1162 1.385 . S
C1159 H1134 0.951 . S
C1159 C1157 1.388 . S
C1159 C1160 1.366 . S
C1160 C1159 1.366 . S
C1160 C1161 1.414 . S
C1160 C1163 1.499 . S
C1161 H1135 0.950 . S
C1161 C1160 1.414 . S
C1161 C1162 1.374 . S
C1162 H1136 0.950 . S
C1162 C1158 1.385 . S
C1162 C1161 1.374 . S
C1163 C1160 1.499 . S
C1163 C1164 1.373 . S
C1163 C1165 1.389 . S
C1164 H1137 0.950 . S
C1164 C1150 1.377 . S
C1164 C1163 1.373 . S
C1165 C1149 1.377 . S
C1165 C1163 1.389 . S
C1165 C1166 1.524 . S
C1166 C1165 1.524 . S
C1166 C1167 1.397 . S
C1166 C1171 1.363 . S
C1167 H1138 0.950 . S
C1167 C1166 1.397 . S
C1167 C1168 1.334 . S
C1168 H1139 0.950 . S
C1168 C1167 1.334 . S
C1168 C1169 1.287 . S
C1169 C1168 1.287 . S
C1169 C1170 1.524 . S
C1169 H1172 0.999 . S
C1170 H1140 0.950 . S
C1170 C1169 1.524 . S
C1170 C1171 1.415 . S
C1171 H1141 0.950 . S
C1171 C1166 1.363 . S
C1171 C1170 1.415 . S
H1172 C1169 0.999 . S
H1173 C1154 0.913 . S
H1174 C1192 0.951 . S
H1175 C1194 0.951 . S
H1176 C1196 0.950 . S
H1177 C1197 0.950 1_556 S
H1178 C1199 0.950 . S
H1179 C1202 0.950 . S
H1180 C1203 0.950 . S
H1181 C1205 0.950 . S
H1182 C1206 0.950 . S
H1183 C1207 0.951 . S
H1184 C1209 0.951 . S
H1185 C1211 0.950 . S
H1186 C1212 0.950 . S
H1187 C1214 0.950 . S
H1188 C1217 0.950 . S
H1189 C1218 0.950 . S
H1190 C1220 0.950 . S
H1191 C1221 0.950 . S
C1192 H1174 0.951 . S
C1192 C1193 1.369 . S
C1192 C1194 1.388 . S
C1193 C1192 1.369 . S
C1193 C1197 1.380 1_655 S
C1194 H1175 0.951 . S
C1194 C1192 1.388 . S
C1194 C1195 1.366 1_655 S
C1195 C1194 1.366 1_455 S
C1195 C1196 1.414 . S
C1195 C1198 1.499 . S
C1196 H1176 0.950 . S
C1196 C1195 1.414 . S
C1196 C1197 1.374 . S
C1197 H1177 0.950 1_554 S
C1197 C1193 1.380 1_455 S
C1197 C1196 1.374 . S
C1198 C1195 1.499 . S
C1198 C1199 1.373 . S
C1198 C1200 1.389 1_455 S
C1199 H1178 0.950 . S
C1199 C1198 1.373 . S
C1199 C1215 1.377 . S
C1200 C1198 1.389 1_655 S
C1200 C1201 1.524 . S
C1200 C1214 1.377 . S
C1201 C1200 1.524 . S
C1201 C1202 1.397 . S
C1201 C1206 1.363 . S
C1202 H1179 0.950 . S
C1202 C1201 1.397 . S
C1202 C1203 1.334 . S
C1203 H1180 0.950 . S
C1203 C1202 1.334 . S
C1203 C1204 1.287 . S
C1204 C1203 1.287 . S
C1204 C1205 1.524 . S
C1204 H1223 0.913 . S
C1205 H1181 0.950 . S
C1205 C1204 1.524 . S
C1205 C1206 1.415 . S
C1206 H1182 0.950 . S
C1206 C1201 1.363 . S
C1206 C1205 1.415 . S
C1207 H1183 0.951 . S
C1207 C1208 1.366 . S
C1207 C1209 1.388 . S
C1208 C1207 1.366 . S
C1208 C1212 1.385 . S
C1209 H1184 0.951 . S
C1209 C1207 1.388 . S
C1209 C1210 1.366 . S
C1210 C1209 1.366 . S
C1210 C1211 1.414 . S
C1210 C1213 1.499 . S
C1211 H1185 0.950 . S
C1211 C1210 1.414 . S
C1211 C1212 1.374 . S
C1212 H1186 0.950 . S
C1212 C1208 1.385 . S
C1212 C1211 1.374 . S
C1213 C1210 1.499 . S
C1213 C1214 1.373 1_455 S
C1213 C1215 1.389 . S
C1214 H1187 0.950 . S
C1214 C1200 1.377 . S
C1214 C1213 1.373 1_655 S
C1215 C1199 1.377 . S
C1215 C1213 1.389 . S
C1215 C1216 1.524 . S
C1216 C1215 1.524 . S
C1216 C1217 1.397 . S
C1216 C1221 1.363 . S
C1217 H1188 0.950 . S
C1217 C1216 1.397 . S
C1217 C1218 1.334 . S
C1218 H1189 0.950 . S
C1218 C1217 1.334 . S
C1218 C1219 1.287 . S
C1219 C1218 1.287 . S
C1219 C1220 1.524 . S
C1219 H1222 0.999 . S
C1220 H1190 0.950 . S
C1220 C1219 1.524 . S
C1220 C1221 1.415 . S
C1221 H1191 0.950 . S
C1221 C1216 1.363 . S
C1221 C1220 1.415 . S
H1222 C1219 0.999 . S
H1223 C1204 0.913 . S
H1224 C1242 0.951 . S
H1225 C1244 0.951 . S
H1226 C1246 0.950 . S
H1227 C1247 0.950 . S
H1228 C1249 0.950 . S
H1229 C1252 0.950 . S
H1230 C1253 0.950 . S
H1231 C1255 0.950 . S
H1232 C1256 0.950 . S
H1233 C1257 0.951 . S
H1234 C1259 0.951 . S
H1235 C1261 0.950 . S
H1236 C1262 0.950 . S
H1237 C1264 0.950 . S
H1238 C1267 0.950 . S
H1239 C1268 0.950 . S
H1240 C1270 0.950 . S
H1241 C1271 0.950 . S
C1242 H1224 0.951 . S
C1242 C1243 1.366 . S
C1242 C1244 1.388 . S
C1243 C1242 1.366 . S
C1243 C1247 1.385 . S
C1244 H1225 0.951 . S
C1244 C1242 1.388 . S
C1244 C1245 1.366 . S
C1245 C1244 1.366 . S
C1245 C1246 1.414 . S
C1245 C1248 1.499 . S
C1246 H1226 0.950 . S
C1246 C1245 1.414 . S
C1246 C1247 1.374 . S
C1247 H1227 0.950 . S
C1247 C1243 1.385 . S
C1247 C1246 1.374 . S
C1248 C1245 1.499 . S
C1248 C1249 1.373 . S
C1248 C1250 1.389 1_565 S
C1249 H1228 0.950 . S
C1249 C1248 1.373 . S
C1249 C1265 1.377 . S
C1250 C1248 1.389 1_545 S
C1250 C1251 1.524 . S
C1250 C1264 1.377 . S
C1251 C1250 1.524 . S
C1251 C1252 1.397 . S
C1251 C1256 1.363 . S
C1252 H1229 0.950 . S
C1252 C1251 1.397 . S
C1252 C1253 1.334 . S
C1253 H1230 0.950 . S
C1253 C1252 1.334 . S
C1253 C1254 1.287 . S
C1254 C1253 1.287 . S
C1254 C1255 1.524 . S
C1254 H1273 0.913 . S
C1255 H1231 0.950 . S
C1255 C1254 1.524 . S
C1255 C1256 1.415 . S
C1256 H1232 0.950 . S
C1256 C1251 1.363 . S
C1256 C1255 1.415 . S
C1257 H1233 0.951 . S
C1257 C1258 1.369 . S
C1257 C1259 1.388 . S
C1258 C1257 1.369 . S
C1258 C1262 1.379 1_545 S
C1259 H1234 0.951 . S
C1259 C1257 1.388 . S
C1259 C1260 1.366 1_545 S
C1260 C1259 1.366 1_565 S
C1260 C1261 1.414 . S
C1260 C1263 1.499 . S
C1261 H1235 0.950 . S
C1261 C1260 1.414 . S
C1261 C1262 1.374 . S
C1262 H1236 0.950 . S
C1262 C1258 1.379 1_565 S
C1262 C1261 1.374 . S
C1263 C1260 1.499 . S
C1263 C1264 1.373 1_565 S
C1263 C1265 1.389 . S
C1264 H1237 0.950 . S
C1264 C1250 1.377 . S
C1264 C1263 1.373 1_545 S
C1265 C1249 1.377 . S
C1265 C1263 1.389 . S
C1265 C1266 1.524 . S
C1266 C1265 1.524 . S
C1266 C1267 1.397 . S
C1266 C1271 1.363 . S
C1267 H1238 0.950 . S
C1267 C1266 1.397 . S
C1267 C1268 1.334 . S
C1268 H1239 0.950 . S
C1268 C1267 1.334 . S
C1268 C1269 1.287 . S
C1269 C1268 1.287 . S
C1269 C1270 1.524 . S
C1269 H1272 0.999 . S
C1270 H1240 0.950 . S
C1270 C1269 1.524 . S
C1270 C1271 1.415 . S
C1271 H1241 0.950 . S
C1271 C1266 1.363 . S
C1271 C1270 1.415 . S
H1272 C1269 0.999 . S
H1273 C1254 0.913 . S
H1274 C1292 0.951 . S
H1275 C1294 0.951 . S
H1276 C1296 0.950 . S
H1277 C1297 0.950 . S
H1278 C1299 0.950 . S
H1279 C1302 0.950 . S
H1280 C1303 0.950 . S
H1281 C1305 0.950 . S
H1282 C1306 0.950 . S
H1283 C1307 0.951 . S
H1284 C1309 0.951 . S
H1285 C1311 0.950 . S
H1286 C1312 0.950 . S
H1287 C1314 0.950 . S
H1288 C1317 0.950 . S
H1289 C1318 0.950 . S
H1290 C1320 0.950 . S
H1291 C1321 0.950 . S
C1292 H1274 0.951 . S
C1292 C1293 1.366 . S
C1292 C1294 1.388 . S
C1293 C1292 1.366 . S
C1293 C1297 1.385 . S
C1294 H1275 0.951 . S
C1294 C1292 1.388 . S
C1294 C1295 1.366 . S
C1295 C1294 1.366 . S
C1295 C1296 1.414 . S
C1295 C1298 1.499 . S
C1296 H1276 0.950 . S
C1296 C1295 1.414 . S
C1296 C1297 1.374 . S
C1297 H1277 0.950 . S
C1297 C1293 1.385 . S
C1297 C1296 1.374 . S
C1298 C1295 1.499 . S
C1298 C1299 1.373 . S
C1298 C1300 1.389 . S
C1299 H1278 0.950 . S
C1299 C1298 1.373 . S
C1299 C1315 1.377 . S
C1300 C1298 1.389 . S
C1300 C1301 1.524 . S
C1300 C1314 1.377 . S
C1301 C1300 1.524 . S
C1301 C1302 1.397 . S
C1301 C1306 1.363 . S
C1302 H1279 0.950 . S
C1302 C1301 1.397 . S
C1302 C1303 1.334 . S
C1303 H1280 0.950 . S
C1303 C1302 1.334 . S
C1303 C1304 1.287 . S
C1304 C1303 1.287 . S
C1304 C1305 1.524 . S
C1304 H1323 0.913 . S
C1305 H1281 0.950 . S
C1305 C1304 1.524 . S
C1305 C1306 1.415 . S
C1306 H1282 0.950 . S
C1306 C1301 1.363 . S
C1306 C1305 1.415 . S
C1307 H1283 0.951 . S
C1307 C1308 1.366 . S
C1307 C1309 1.388 . S
C1308 C1307 1.366 . S
C1308 C1312 1.385 . S
C1309 H1284 0.951 . S
C1309 C1307 1.388 . S
C1309 C1310 1.366 . S
C1310 C1309 1.366 . S
C1310 C1311 1.414 . S
C1310 C1313 1.499 . S
C1311 H1285 0.950 . S
C1311 C1310 1.414 . S
C1311 C1312 1.374 . S
C1312 H1286 0.950 . S
C1312 C1308 1.385 . S
C1312 C1311 1.374 . S
C1313 C1310 1.499 . S
C1313 C1314 1.373 . S
C1313 C1315 1.389 . S
C1314 H1287 0.950 . S
C1314 C1300 1.377 . S
C1314 C1313 1.373 . S
C1315 C1299 1.377 . S
C1315 C1313 1.389 . S
C1315 C1316 1.524 . S
C1316 C1315 1.524 . S
C1316 C1317 1.397 . S
C1316 C1321 1.363 . S
C1317 H1288 0.950 . S
C1317 C1316 1.397 . S
C1317 C1318 1.334 . S
C1318 H1289 0.950 . S
C1318 C1317 1.334 . S
C1318 C1319 1.287 . S
C1319 C1318 1.287 . S
C1319 C1320 1.524 . S
C1319 H1322 0.999 . S
C1320 H1290 0.950 . S
C1320 C1319 1.524 . S
C1320 C1321 1.415 . S
C1321 H1291 0.950 . S
C1321 C1316 1.363 . S
C1321 C1320 1.415 . S
H1322 C1319 0.999 . S
H1323 C1304 0.913 . S
H1324 C1342 0.951 . S
H1325 C1344 0.951 . S
H1326 C1346 0.950 . S
H1327 C1347 0.950 . S
H1328 C1349 0.950 . S
H1329 C1352 0.950 . S
H1330 C1353 0.950 . S
H1331 C1355 0.950 . S
H1332 C1356 0.950 . S
H1333 C1357 0.951 . S
H1334 C1359 0.951 . S
H1335 C1361 0.950 . S
H1336 C1362 0.950 . S
H1337 C1364 0.950 . S
H1338 C1367 0.950 . S
H1339 C1368 0.950 . S
H1340 C1370 0.950 . S
H1341 C1371 0.950 . S
C1342 H1324 0.951 . S
C1342 C1343 1.366 . S
C1342 C1344 1.388 . S
C1343 C1342 1.366 . S
C1343 C1347 1.385 . S
C1344 H1325 0.951 . S
C1344 C1342 1.388 . S
C1344 C1345 1.366 . S
C1345 C1344 1.366 . S
C1345 C1346 1.414 . S
C1345 C1348 1.499 . S
C1346 H1326 0.950 . S
C1346 C1345 1.414 . S
C1346 C1347 1.374 . S
C1347 H1327 0.950 . S
C1347 C1343 1.385 . S
C1347 C1346 1.374 . S
C1348 C1345 1.499 . S
C1348 C1349 1.373 . S
C1348 C1350 1.389 . S
C1349 H1328 0.950 . S
C1349 C1348 1.373 . S
C1349 C1365 1.377 . S
C1350 C1348 1.389 . S
C1350 C1351 1.524 . S
C1350 C1364 1.377 . S
C1351 C1350 1.524 . S
C1351 C1352 1.397 . S
C1351 C1356 1.363 . S
C1352 H1329 0.950 . S
C1352 C1351 1.397 . S
C1352 C1353 1.334 . S
C1353 H1330 0.950 . S
C1353 C1352 1.334 . S
C1353 C1354 1.287 . S
C1354 C1353 1.287 . S
C1354 C1355 1.524 . S
C1354 H1373 0.913 . S
C1355 H1331 0.950 . S
C1355 C1354 1.524 . S
C1355 C1356 1.415 . S
C1356 H1332 0.950 . S
C1356 C1351 1.363 . S
C1356 C1355 1.415 . S
C1357 H1333 0.951 . S
C1357 C1358 1.366 . S
C1357 C1359 1.388 . S
C1358 C1357 1.366 . S
C1358 C1362 1.385 . S
C1359 H1334 0.951 . S
C1359 C1357 1.388 . S
C1359 C1360 1.366 . S
C1360 C1359 1.366 . S
C1360 C1361 1.414 . S
C1360 C1363 1.499 . S
C1361 H1335 0.950 . S
C1361 C1360 1.414 . S
C1361 C1362 1.374 . S
C1362 H1336 0.950 . S
C1362 C1358 1.385 . S
C1362 C1361 1.374 . S
C1363 C1360 1.499 . S
C1363 C1364 1.373 . S
C1363 C1365 1.389 . S
C1364 H1337 0.950 . S
C1364 C1350 1.377 . S
C1364 C1363 1.373 . S
C1365 C1349 1.377 . S
C1365 C1363 1.389 . S
C1365 C1366 1.524 . S
C1366 C1365 1.524 . S
C1366 C1367 1.397 . S
C1366 C1371 1.363 . S
C1367 H1338 0.950 . S
C1367 C1366 1.397 . S
C1367 C1368 1.334 . S
C1368 H1339 0.950 . S
C1368 C1367 1.334 . S
C1368 C1369 1.287 . S
C1369 C1368 1.287 . S
C1369 C1370 1.524 . S
C1369 H1372 0.999 . S
C1370 H1340 0.950 . S
C1370 C1369 1.524 . S
C1370 C1371 1.415 . S
C1371 H1341 0.950 . S
C1371 C1366 1.363 . S
C1371 C1370 1.415 . S
H1372 C1369 0.999 . S
H1373 C1354 0.913 . S
H1374 C1392 0.951 . S
H1375 C1394 0.951 . S
H1376 C1396 0.950 . S
H1377 C1397 0.950 . S
H1378 C1399 0.950 . S
H1379 C1402 0.950 . S
H1380 C1403 0.950 . S
H1381 C1405 0.950 . S
H1382 C1406 0.950 . S
H1383 C1407 0.951 . S
H1384 C1409 0.959 . S
H1385 C1411 0.950 . S
H1386 C1412 0.950 . S
H1387 C1414 0.950 . S
H1388 C1417 0.950 . S
H1389 C1418 0.950 . S
H1390 C1420 0.950 . S
H1391 C1421 0.950 . S
C1392 H1374 0.951 . S
C1392 C1393 1.366 . S
C1392 C1394 1.388 . S
C1393 C1392 1.366 . S
C1393 C1397 1.385 . S
C1394 H1375 0.951 . S
C1394 C1392 1.388 . S
C1394 C1395 1.366 . S
C1395 C1394 1.366 . S
C1395 C1396 1.414 . S
C1395 C1398 1.499 . S
C1396 H1376 0.950 . S
C1396 C1395 1.414 . S
C1396 C1397 1.374 . S
C1397 H1377 0.950 . S
C1397 C1393 1.385 . S
C1397 C1396 1.374 . S
C1398 C1395 1.499 . S
C1398 C1399 1.373 . S
C1398 C1400 1.389 1_655 S
C1399 H1378 0.950 . S
C1399 C1398 1.373 . S
C1399 C1415 1.377 . S
C1400 C1398 1.389 1_455 S
C1400 C1401 1.524 . S
C1400 C1414 1.377 . S
C1401 C1400 1.524 . S
C1401 C1402 1.397 . S
C1401 C1406 1.363 . S
C1402 H1379 0.950 . S
C1402 C1401 1.397 . S
C1402 C1403 1.334 . S
C1403 H1380 0.950 . S
C1403 C1402 1.334 . S
C1403 C1404 1.287 . S
C1404 C1403 1.287 . S
C1404 C1405 1.524 . S
C1404 H1423 0.913 . S
C1405 H1381 0.950 . S
C1405 C1404 1.524 . S
C1405 C1406 1.415 . S
C1406 H1382 0.950 . S
C1406 C1401 1.363 . S
C1406 C1405 1.415 . S
C1407 H1383 0.951 . S
C1407 C1408 1.371 . S
C1407 C1409 1.395 . S
C1408 C1407 1.371 . S
C1408 C1412 1.375 1_455 S
C1409 H1384 0.959 . S
C1409 C1407 1.395 . S
C1409 C1410 1.354 1_455 S
C1410 C1409 1.354 1_655 S
C1410 C1411 1.414 . S
C1410 C1413 1.499 . S
C1411 H1385 0.950 . S
C1411 C1410 1.414 . S
C1411 C1412 1.374 . S
C1412 H1386 0.950 . S
C1412 C1408 1.375 1_655 S
C1412 C1411 1.374 . S
C1413 C1410 1.499 . S
C1413 C1414 1.373 1_655 S
C1413 C1415 1.389 . S
C1414 H1387 0.950 . S
C1414 C1400 1.377 . S
C1414 C1413 1.373 1_455 S
C1415 C1399 1.377 . S
C1415 C1413 1.389 . S
C1415 C1416 1.524 . S
C1416 C1415 1.524 . S
C1416 C1417 1.397 . S
C1416 C1421 1.363 . S
C1417 H1388 0.950 . S
C1417 C1416 1.397 . S
C1417 C1418 1.334 . S
C1418 H1389 0.950 . S
C1418 C1417 1.334 . S
C1418 C1419 1.287 . S
C1419 C1418 1.287 . S
C1419 C1420 1.524 . S
C1419 H1422 0.999 . S
C1420 H1390 0.950 . S
C1420 C1419 1.524 . S
C1420 C1421 1.415 . S
C1421 H1391 0.950 . S
C1421 C1416 1.363 . S
C1421 C1420 1.415 . S
H1422 C1419 0.999 . S
H1423 C1404 0.913 . S
H1424 C1442 0.951 1_554 S
H1425 C1444 0.951 . S
H1426 C1446 0.935 1_565 S
H1427 C1447 0.950 . S
H1428 C1449 0.950 . S
H1429 C1452 0.950 . S
H1430 C1453 0.950 . S
H1431 C1455 0.950 . S
H1432 C1456 0.950 . S
H1433 C1457 0.951 1_556 S
H1434 C1459 0.951 . S
H1435 C1461 0.940 1_545 S
H1436 C1462 0.950 . S
H1437 C1464 0.950 . S
H1438 C1467 0.950 . S
H1439 C1468 0.950 . S
H1440 C1470 0.950 . S
H1441 C1471 0.950 . S
C1442 H1424 0.951 1_556 S
C1442 C1443 1.366 . S
C1442 C1444 1.388 1_556 S
C1443 C1442 1.366 . S
C1443 C1447 1.385 . S
C1444 H1425 0.951 . S
C1444 C1442 1.388 1_554 S
C1444 C1445 1.366 1_554 S
C1445 C1444 1.366 1_556 S
C1445 C1446 1.414 . S
C1445 C1448 1.499 . S
C1446 H1426 0.935 1_545 S
C1446 C1445 1.414 . S
C1446 C1447 1.374 . S
C1447 H1427 0.950 . S
C1447 C1443 1.385 . S
C1447 C1446 1.374 . S
C1448 C1445 1.499 . S
C1448 C1449 1.373 1_545 S
C1448 C1450 1.389 1_556 S
C1449 H1428 0.950 . S
C1449 C1448 1.373 1_565 S
C1449 C1465 1.377 . S
C1450 C1448 1.389 1_554 S
C1450 C1451 1.524 . S
C1450 C1464 1.377 . S
C1451 C1450 1.524 . S
C1451 C1452 1.397 1_554 S
C1451 C1456 1.363 . S
C1452 H1429 0.950 . S
C1452 C1451 1.397 1_556 S
C1452 C1453 1.334 . S
C1453 H1430 0.950 . S
C1453 C1452 1.334 . S
C1453 C1454 1.287 1_556 S
C1454 C1453 1.287 1_554 S
C1454 C1455 1.524 . S
C1454 H1473 0.913 . S
C1455 H1431 0.950 . S
C1455 C1454 1.524 . S
C1455 C1456 1.415 . S
C1456 H1432 0.950 . S
C1456 C1451 1.363 . S
C1456 C1455 1.415 . S
C1457 H1433 0.951 1_554 S
C1457 C1458 1.366 . S
C1457 C1459 1.388 1_554 S
C1458 C1457 1.366 . S
C1458 C1462 1.385 . S
C1459 H1434 0.951 . S
C1459 C1457 1.388 1_556 S
C1459 C1460 1.366 1_556 S
C1460 C1459 1.366 1_554 S
C1460 C1461 1.414 . S
C1460 C1463 1.499 . S
C1461 H1435 0.940 1_565 S
C1461 C1460 1.414 . S
C1461 C1462 1.374 . S
C1462 H1436 0.950 . S
C1462 C1458 1.385 . S
C1462 C1461 1.374 . S
C1463 C1460 1.499 . S
C1463 C1464 1.373 1_565 S
C1463 C1465 1.389 1_554 S
C1464 H1437 0.950 . S
C1464 C1450 1.377 . S
C1464 C1463 1.373 1_545 S
C1465 C1449 1.377 . S
C1465 C1463 1.389 1_556 S
C1465 C1466 1.524 . S
C1466 C1465 1.524 . S
C1466 C1467 1.397 1_556 S
C1466 C1471 1.363 . S
C1467 H1438 0.950 . S
C1467 C1466 1.397 1_554 S
C1467 C1468 1.334 . S
C1468 H1439 0.950 . S
C1468 C1467 1.334 . S
C1468 C1469 1.287 1_554 S
C1469 C1468 1.287 1_556 S
C1469 C1470 1.524 . S
C1469 H1472 0.999 . S
C1470 H1440 0.950 . S
C1470 C1469 1.524 . S
C1470 C1471 1.415 . S
C1471 H1441 0.950 . S
C1471 C1466 1.363 . S
C1471 C1470 1.415 . S
H1472 C1469 0.999 . S
H1473 C1454 0.913 . S
H1474 C1492 0.933 1_554 S
H1475 C1494 0.951 . S
H1476 C1496 0.950 . S
H1477 C1497 0.950 . S
H1478 C1499 0.950 . S
H1479 C1502 0.950 1_556 S
H1480 C1503 0.950 . S
H1481 C1505 0.950 . S
H1482 C1506 0.950 . S
H1483 C1507 0.933 1_556 S
H1484 C1509 0.951 . S
H1485 C1511 0.950 . S
H1486 C1512 0.950 . S
H1487 C1514 0.950 . S
H1488 C1517 0.950 1_554 S
H1489 C1518 0.950 . S
H1490 C1520 0.950 . S
H1491 C1521 0.950 . S
C1492 H1474 0.933 1_556 S
C1492 C1493 1.389 . S
C1492 C1494 1.382 1_556 S
C1493 C1492 1.389 . S
C1493 C1497 1.385 . S
C1494 H1475 0.951 . S
C1494 C1492 1.382 1_554 S
C1494 C1495 1.366 1_554 S
C1495 C1494 1.366 1_556 S
C1495 C1496 1.414 . S
C1495 C1498 1.499 . S
C1496 H1476 0.950 . S
C1496 C1495 1.414 . S
C1496 C1497 1.374 . S
C1497 H1477 0.950 . S
C1497 C1493 1.385 . S
C1497 C1496 1.374 . S
C1498 C1495 1.499 . S
C1498 C1499 1.373 . S
C1498 C1500 1.389 1_556 S
C1499 H1478 0.950 . S
C1499 C1498 1.373 . S
C1499 C1515 1.377 . S
C1500 C1498 1.389 1_554 S
C1500 C1501 1.524 . S
C1500 C1514 1.377 . S
C1501 C1500 1.524 . S
C1501 C1502 1.397 . S
C1501 C1506 1.363 . S
C1502 H1479 0.950 1_554 S
C1502 C1501 1.397 . S
C1502 C1503 1.334 . S
C1503 H1480 0.950 . S
C1503 C1502 1.334 . S
C1503 C1504 1.287 . S
C1504 C1503 1.287 . S
C1504 C1505 1.524 . S
C1504 H1523 0.913 . S
C1505 H1481 0.950 . S
C1505 C1504 1.524 . S
C1505 C1506 1.415 . S
C1506 H1482 0.950 . S
C1506 C1501 1.363 . S
C1506 C1505 1.415 . S
C1507 H1483 0.933 1_554 S
C1507 C1508 1.389 . S
C1507 C1509 1.382 1_554 S
C1508 C1507 1.389 . S
C1508 C1512 1.385 . S
C1509 H1484 0.951 . S
C1509 C1507 1.382 1_556 S
C1509 C1510 1.366 1_556 S
C1510 C1509 1.366 1_554 S
C1510 C1511 1.414 . S
C1510 C1513 1.499 . S
C1511 H1485 0.950 . S
C1511 C1510 1.414 . S
C1511 C1512 1.374 . S
C1512 H1486 0.950 . S
C1512 C1508 1.385 . S
C1512 C1511 1.374 . S
C1513 C1510 1.499 . S
C1513 C1514 1.373 . S
C1513 C1515 1.389 1_554 S
C1514 H1487 0.950 . S
C1514 C1500 1.377 . S
C1514 C1513 1.373 . S
C1515 C1499 1.377 . S
C1515 C1513 1.389 1_556 S
C1515 C1516 1.524 . S
C1516 C1515 1.524 . S
C1516 C1517 1.397 . S
C1516 C1521 1.363 . S
C1517 H1488 0.950 1_556 S
C1517 C1516 1.397 . S
C1517 C1518 1.334 . S
C1518 H1489 0.950 . S
C1518 C1517 1.334 . S
C1518 C1519 1.287 . S
C1519 C1518 1.287 . S
C1519 C1520 1.524 . S
C1519 H1522 0.999 . S
C1520 H1490 0.950 . S
C1520 C1519 1.524 . S
C1520 C1521 1.415 . S
C1521 H1491 0.950 . S
C1521 C1516 1.363 . S
C1521 C1520 1.415 . S
H1522 C1519 0.999 . S
H1523 C1504 0.913 . S
H1524 C1542 0.935 1_556 S
H1525 C1544 0.951 . S
H1526 C1546 0.950 . S
H1527 C1547 0.950 . S
H1528 C1549 0.950 . S
H1529 C1552 0.950 1_554 S
H1530 C1553 0.950 . S
H1531 C1555 0.950 . S
H1532 C1556 0.950 . S
H1533 C1557 0.935 1_554 S
H1534 C1559 0.951 . S
H1535 C1561 0.950 . S
H1536 C1562 0.950 . S
H1537 C1564 0.950 . S
H1538 C1567 0.950 1_556 S
H1539 C1568 0.950 . S
H1540 C1570 0.950 . S
H1541 C1571 0.950 . S
C1542 H1524 0.935 1_554 S
C1542 C1543 1.387 . S
C1542 C1544 1.383 1_554 S
C1543 C1542 1.387 . S
C1543 C1547 1.385 . S
C1544 H1525 0.951 . S
C1544 C1542 1.383 1_556 S
C1544 C1545 1.366 1_556 S
C1545 C1544 1.366 1_554 S
C1545 C1546 1.414 . S
C1545 C1548 1.499 . S
C1546 H1526 0.950 . S
C1546 C1545 1.414 . S
C1546 C1547 1.374 . S
C1547 H1527 0.950 . S
C1547 C1543 1.385 . S
C1547 C1546 1.374 . S
C1548 C1545 1.499 . S
C1548 C1549 1.373 . S
C1548 C1550 1.389 1_554 S
C1549 H1528 0.950 . S
C1549 C1548 1.373 . S
C1549 C1565 1.377 1_655 S
C1550 C1548 1.389 1_556 S
C1550 C1551 1.524 . S
C1550 C1564 1.377 1_655 S
C1551 C1550 1.524 . S
C1551 C1552 1.397 . S
C1551 C1556 1.363 . S
C1552 H1529 0.950 1_556 S
C1552 C1551 1.397 . S
C1552 C1553 1.334 . S
C1553 H1530 0.950 . S
C1553 C1552 1.334 . S
C1553 C1554 1.287 . S
C1554 C1553 1.287 . S
C1554 C1555 1.524 . S
C1554 H1573 0.913 . S
C1555 H1531 0.950 . S
C1555 C1554 1.524 . S
C1555 C1556 1.415 . S
C1556 H1532 0.950 . S
C1556 C1551 1.363 . S
C1556 C1555 1.415 . S
C1557 H1533 0.935 1_556 S
C1557 C1558 1.387 . S
C1557 C1559 1.383 1_556 S
C1558 C1557 1.387 . S
C1558 C1562 1.385 . S
C1559 H1534 0.951 . S
C1559 C1557 1.383 1_554 S
C1559 C1560 1.366 1_554 S
C1560 C1559 1.366 1_556 S
C1560 C1561 1.414 . S
C1560 C1563 1.499 . S
C1561 H1535 0.950 . S
C1561 C1560 1.414 . S
C1561 C1562 1.374 . S
C1562 H1536 0.950 . S
C1562 C1558 1.385 . S
C1562 C1561 1.374 . S
C1563 C1560 1.499 . S
C1563 C1564 1.373 . S
C1563 C1565 1.389 1_556 S
C1564 H1537 0.950 . S
C1564 C1550 1.377 1_455 S
C1564 C1563 1.373 . S
C1565 C1549 1.377 1_455 S
C1565 C1563 1.389 1_554 S
C1565 C1566 1.524 . S
C1566 C1565 1.524 . S
C1566 C1567 1.397 . S
C1566 C1571 1.363 . S
C1567 H1538 0.950 1_554 S
C1567 C1566 1.397 . S
C1567 C1568 1.334 . S
C1568 H1539 0.950 . S
C1568 C1567 1.334 . S
C1568 C1569 1.287 . S
C1569 C1568 1.287 . S
C1569 C1570 1.524 . S
C1569 H1572 0.999 . S
C1570 H1540 0.950 . S
C1570 C1569 1.524 . S
C1570 C1571 1.415 . S
C1571 H1541 0.950 . S
C1571 C1566 1.363 . S
C1571 C1570 1.415 . S
H1572 C1569 0.999 . S
H1573 C1554 0.913 . S
H1574 C1592 0.951 . S
H1575 C1594 0.951 1_554 S
H1576 C1596 0.950 . S
H1577 C1597 0.950 . S
H1578 C1599 0.950 . S
H1579 C1602 0.950 . S
H1580 C1603 0.950 . S
H1581 C1605 0.937 1_565 S
H1582 C1606 0.970 . S
H1583 C1607 0.951 . S
H1584 C1609 0.951 1_556 S
H1585 C1611 0.950 . S
H1586 C1612 0.950 1_455 S
H1587 C1614 0.950 . S
H1588 C1617 0.950 . S
H1589 C1618 0.950 . S
H1590 C1620 0.937 1_545 S
H1591 C1621 0.970 . S
C1592 H1574 0.951 . S
C1592 C1593 1.366 . S
C1592 C1594 1.388 . S
C1593 C1592 1.366 . S
C1593 C1597 1.385 1_455 S
C1594 H1575 0.951 1_556 S
C1594 C1592 1.388 . S
C1594 C1595 1.366 . S
C1595 C1594 1.366 . S
C1595 C1596 1.414 1_455 S
C1595 C1598 1.499 . S
C1596 H1576 0.950 . S
C1596 C1595 1.414 1_655 S
C1596 C1597 1.374 . S
C1597 H1577 0.950 . S
C1597 C1593 1.385 1_655 S
C1597 C1596 1.374 . S
C1598 C1595 1.499 . S
C1598 C1599 1.373 1_456 S
C1598 C1600 1.389 . S
C1599 H1578 0.950 . S
C1599 C1598 1.373 1_654 S
C1599 C1615 1.377 1_545 S
C1600 C1598 1.389 . S
C1600 C1601 1.524 . S
C1600 C1614 1.377 1_545 S
C1601 C1600 1.524 . S
C1601 C1602 1.397 . S
C1601 C1606 1.363 1_545 S
C1602 H1579 0.950 . S
C1602 C1601 1.397 . S
C1602 C1603 1.334 . S
C1603 H1580 0.950 . S
C1603 C1602 1.334 . S
C1603 C1604 1.287 . S
C1604 C1603 1.287 . S
C1604 C1605 1.544 . S
C1604 H1623 0.913 . S
C1605 H1581 0.937 1_545 S
C1605 C1604 1.544 . S
C1605 C1606 1.412 1_545 S
C1606 H1582 0.970 . S
C1606 C1601 1.363 1_565 S
C1606 C1605 1.412 1_565 S
C1607 H1583 0.951 . S
C1607 C1608 1.366 . S
C1607 C1609 1.388 . S
C1608 C1607 1.366 . S
C1608 C1612 1.385 . S
C1609 H1584 0.951 1_554 S
C1609 C1607 1.388 . S
C1609 C1610 1.366 . S
C1610 C1609 1.366 . S
C1610 C1611 1.414 1_655 S
C1610 C1613 1.499 . S
C1611 H1585 0.950 . S
C1611 C1610 1.414 1_455 S
C1611 C1612 1.374 1_455 S
C1612 H1586 0.950 1_655 S
C1612 C1608 1.385 . S
C1612 C1611 1.374 1_655 S
C1613 C1610 1.499 . S
C1613 C1614 1.373 1_654 S
C1613 C1615 1.389 . S
C1614 H1587 0.950 . S
C1614 C1600 1.377 1_565 S
C1614 C1613 1.373 1_456 S
C1615 C1599 1.377 1_565 S
C1615 C1613 1.389 . S
C1615 C1616 1.524 . S
C1616 C1615 1.524 . S
C1616 C1617 1.397 . S
C1616 C1621 1.363 1_565 S
C1617 H1588 0.950 . S
C1617 C1616 1.397 . S
C1617 C1618 1.334 . S
C1618 H1589 0.950 . S
C1618 C1617 1.334 . S
C1618 C1619 1.287 . S
C1619 C1618 1.287 . S
C1619 C1620 1.544 . S
C1619 H1622 0.999 . S
C1620 H1590 0.937 1_565 S
C1620 C1619 1.544 . S
C1620 C1621 1.412 1_565 S
C1621 H1591 0.970 . S
C1621 C1616 1.363 1_545 S
C1621 C1620 1.412 1_545 S
H1622 C1619 0.999 . S
H1623 C1604 0.913 . S
H1624 C1642 0.951 1_565 S
H1625 C1644 0.978 . S
H1626 C1646 0.950 . S
H1627 C1647 0.950 . S
H1628 C1649 0.950 . S
H1629 C1652 0.950 . S
H1630 C1653 0.950 . S
H1631 C1655 0.950 . S
H1632 C1656 0.950 . S
H1633 C1657 0.951 1_545 S
H1634 C1659 0.970 . S
H1635 C1661 0.950 . S
H1636 C1662 0.950 . S
H1637 C1664 0.950 . S
H1638 C1667 0.950 . S
H1639 C1668 0.950 . S
H1640 C1670 0.950 . S
H1641 C1671 0.950 . S
C1642 H1624 0.951 1_545 S
C1642 C1643 1.366 . S
C1642 C1644 1.379 1_545 S
C1643 C1642 1.366 . S
C1643 C1647 1.385 . S
C1644 H1625 0.978 . S
C1644 C1642 1.379 1_565 S
C1644 C1645 1.349 1_565 S
C1645 C1644 1.349 1_545 S
C1645 C1646 1.414 . S
C1645 C1648 1.499 . S
C1646 H1626 0.950 . S
C1646 C1645 1.414 . S
C1646 C1647 1.374 . S
C1647 H1627 0.950 . S
C1647 C1643 1.385 . S
C1647 C1646 1.374 . S
C1648 C1645 1.499 . S
C1648 C1649 1.373 . S
C1648 C1650 1.389 1_545 S
C1649 H1628 0.950 . S
C1649 C1648 1.373 . S
C1649 C1665 1.377 1_455 S
C1650 C1648 1.389 1_565 S
C1650 C1651 1.524 . S
C1650 C1664 1.377 1_455 S
C1651 C1650 1.524 . S
C1651 C1652 1.397 . S
C1651 C1656 1.363 . S
C1652 H1629 0.950 . S
C1652 C1651 1.397 . S
C1652 C1653 1.334 . S
C1653 H1630 0.950 . S
C1653 C1652 1.334 . S
C1653 C1654 1.287 . S
C1654 C1653 1.287 . S
C1654 C1655 1.524 . S
C1654 H1673 0.913 . S
C1655 H1631 0.950 . S
C1655 C1654 1.524 . S
C1655 C1656 1.415 . S
C1656 H1632 0.950 . S
C1656 C1651 1.363 . S
C1656 C1655 1.415 . S
C1657 H1633 0.951 1_565 S
C1657 C1658 1.366 . S
C1657 C1659 1.382 1_565 S
C1658 C1657 1.366 . S
C1658 C1662 1.385 . S
C1659 H1634 0.970 . S
C1659 C1657 1.382 1_545 S
C1659 C1660 1.354 1_545 S
C1660 C1659 1.354 1_565 S
C1660 C1661 1.414 . S
C1660 C1663 1.499 . S
C1661 H1635 0.950 . S
C1661 C1660 1.414 . S
C1661 C1662 1.374 . S
C1662 H1636 0.950 . S
C1662 C1658 1.385 . S
C1662 C1661 1.374 . S
C1663 C1660 1.499 . S
C1663 C1664 1.373 . S
C1663 C1665 1.389 1_565 S
C1664 H1637 0.950 . S
C1664 C1650 1.377 1_655 S
C1664 C1663 1.373 . S
C1665 C1649 1.377 1_655 S
C1665 C1663 1.389 1_545 S
C1665 C1666 1.524 . S
C1666 C1665 1.524 . S
C1666 C1667 1.397 . S
C1666 C1671 1.363 . S
C1667 H1638 0.950 . S
C1667 C1666 1.397 . S
C1667 C1668 1.334 . S
C1668 H1639 0.950 . S
C1668 C1667 1.334 . S
C1668 C1669 1.287 . S
C1669 C1668 1.287 . S
C1669 C1670 1.524 . S
C1669 H1672 0.999 . S
C1670 H1640 0.950 . S
C1670 C1669 1.524 . S
C1670 C1671 1.415 . S
C1671 H1641 0.950 . S
C1671 C1666 1.363 . S
C1671 C1670 1.415 . S
H1672 C1669 0.999 . S
H1673 C1654 0.913 . S
H1674 C1692 0.951 . S
H1675 C1694 0.951 . S
H1676 C1696 0.950 . S
H1677 C1697 0.950 . S
H1678 C1699 0.950 . S
H1679 C1702 0.950 . S
H1680 C1703 0.950 . S
H1681 C1705 0.950 1_545 S
H1682 C1706 0.950 . S
H1683 C1707 0.951 . S
H1684 C1709 0.951 . S
H1685 C1711 0.950 . S
H1686 C1712 0.950 . S
H1687 C1714 0.950 . S
H1688 C1717 0.950 . S
H1689 C1718 0.950 . S
H1690 C1720 0.950 1_565 S
H1691 C1721 0.950 . S
C1692 H1674 0.951 . S
C1692 C1693 1.366 . S
C1692 C1694 1.388 . S
C1693 C1692 1.366 . S
C1693 C1697 1.385 . S
C1694 H1675 0.951 . S
C1694 C1692 1.388 . S
C1694 C1695 1.366 . S
C1695 C1694 1.366 . S
C1695 C1696 1.414 . S
C1695 C1698 1.499 . S
C1696 H1676 0.950 . S
C1696 C1695 1.414 . S
C1696 C1697 1.374 . S
C1697 H1677 0.950 . S
C1697 C1693 1.385 . S
C1697 C1696 1.374 . S
C1698 C1695 1.499 . S
C1698 C1699 1.373 . S
C1698 C1700 1.389 . S
C1699 H1678 0.950 . S
C1699 C1698 1.373 . S
C1699 C1715 1.377 1_565 S
C1700 C1698 1.389 . S
C1700 C1701 1.524 . S
C1700 C1714 1.377 1_565 S
C1701 C1700 1.524 . S
C1701 C1702 1.397 . S
C1701 C1706 1.363 1_565 S
C1702 H1679 0.950 . S
C1702 C1701 1.397 . S
C1702 C1703 1.334 . S
C1703 H1680 0.950 . S
C1703 C1702 1.334 . S
C1703 C1704 1.287 . S
C1704 C1703 1.287 . S
C1704 C1705 1.524 . S
C1704 H1723 0.913 . S
C1705 H1681 0.950 1_565 S
C1705 C1704 1.524 . S
C1705 C1706 1.415 1_565 S
C1706 H1682 0.950 . S
C1706 C1701 1.363 1_545 S
C1706 C1705 1.415 1_545 S
C1707 H1683 0.951 . S
C1707 C1708 1.366 . S
C1707 C1709 1.388 . S
C1708 C1707 1.366 . S
C1708 C1712 1.385 . S
C1709 H1684 0.951 . S
C1709 C1707 1.388 . S
C1709 C1710 1.366 . S
C1710 C1709 1.366 . S
C1710 C1711 1.414 . S
C1710 C1713 1.499 . S
C1711 H1685 0.950 . S
C1711 C1710 1.414 . S
C1711 C1712 1.374 . S
C1712 H1686 0.950 . S
C1712 C1708 1.385 . S
C1712 C1711 1.374 . S
C1713 C1710 1.499 . S
C1713 C1714 1.373 . S
C1713 C1715 1.389 . S
C1714 H1687 0.950 . S
C1714 C1700 1.377 1_545 S
C1714 C1713 1.373 . S
C1715 C1699 1.377 1_545 S
C1715 C1713 1.389 . S
C1715 C1716 1.524 . S
C1716 C1715 1.524 . S
C1716 C1717 1.397 . S
C1716 C1721 1.363 1_545 S
C1717 H1688 0.950 . S
C1717 C1716 1.397 . S
C1717 C1718 1.334 . S
C1718 H1689 0.950 . S
C1718 C1717 1.334 . S
C1718 C1719 1.287 . S
C1719 C1718 1.287 . S
C1719 C1720 1.524 . S
C1719 H1722 0.999 . S
C1720 H1690 0.950 1_545 S
C1720 C1719 1.524 . S
C1720 C1721 1.415 1_545 S
C1721 H1691 0.950 . S
C1721 C1716 1.363 1_565 S
C1721 C1720 1.415 1_565 S
H1722 C1719 0.999 . S
H1723 C1704 0.913 . S
H1724 C1742 0.951 . S
H1725 C1744 0.951 . S
H1726 C1746 0.950 . S
H1727 C1747 0.950 . S
H1728 C1749 0.950 . S
H1729 C1752 0.950 . S
H1730 C1753 0.950 . S
H1731 C1755 0.950 . S
H1732 C1756 0.950 . S
H1733 C1757 0.951 . S
H1734 C1759 0.951 . S
H1735 C1761 0.950 . S
H1736 C1762 0.950 . S
H1737 C1764 0.950 . S
H1738 C1767 0.950 . S
H1739 C1768 0.950 . S
H1740 C1770 0.950 . S
H1741 C1771 0.950 . S
C1742 H1724 0.951 . S
C1742 C1743 1.366 . S
C1742 C1744 1.388 . S
C1743 C1742 1.366 . S
C1743 C1747 1.385 . S
C1744 H1725 0.951 . S
C1744 C1742 1.388 . S
C1744 C1745 1.366 . S
C1745 C1744 1.366 . S
C1745 C1746 1.414 . S
C1745 C1748 1.499 . S
C1746 H1726 0.950 . S
C1746 C1745 1.414 . S
C1746 C1747 1.374 . S
C1747 H1727 0.950 . S
C1747 C1743 1.385 . S
C1747 C1746 1.374 . S
C1748 C1745 1.499 . S
C1748 C1749 1.373 . S
C1748 C1750 1.389 . S
C1749 H1728 0.950 . S
C1749 C1748 1.373 . S
C1749 C1765 1.377 . S
C1750 C1748 1.389 . S
C1750 C1751 1.524 . S
C1750 C1764 1.377 . S
C1751 C1750 1.524 . S
C1751 C1752 1.397 . S
C1751 C1756 1.363 . S
C1752 H1729 0.950 . S
C1752 C1751 1.397 . S
C1752 C1753 1.334 . S
C1753 H1730 0.950 . S
C1753 C1752 1.334 . S
C1753 C1754 1.287 . S
C1754 C1753 1.287 . S
C1754 C1755 1.524 . S
C1754 H1773 0.913 . S
C1755 H1731 0.950 . S
C1755 C1754 1.524 . S
C1755 C1756 1.415 . S
C1756 H1732 0.950 . S
C1756 C1751 1.363 . S
C1756 C1755 1.415 . S
C1757 H1733 0.951 . S
C1757 C1758 1.366 . S
C1757 C1759 1.388 . S
C1758 C1757 1.366 . S
C1758 C1762 1.385 . S
C1759 H1734 0.951 . S
C1759 C1757 1.388 . S
C1759 C1760 1.366 . S
C1760 C1759 1.366 . S
C1760 C1761 1.414 . S
C1760 C1763 1.499 . S
C1761 H1735 0.950 . S
C1761 C1760 1.414 . S
C1761 C1762 1.374 . S
C1762 H1736 0.950 . S
C1762 C1758 1.385 . S
C1762 C1761 1.374 . S
C1763 C1760 1.499 . S
C1763 C1764 1.373 . S
C1763 C1765 1.389 . S
C1764 H1737 0.950 . S
C1764 C1750 1.377 . S
C1764 C1763 1.373 . S
C1765 C1749 1.377 . S
C1765 C1763 1.389 . S
C1765 C1766 1.524 . S
C1766 C1765 1.524 . S
C1766 C1767 1.397 . S
C1766 C1771 1.363 . S
C1767 H1738 0.950 . S
C1767 C1766 1.397 . S
C1767 C1768 1.334 . S
C1768 H1739 0.950 . S
C1768 C1767 1.334 . S
C1768 C1769 1.287 . S
C1769 C1768 1.287 . S
C1769 C1770 1.524 . S
C1769 H1772 0.999 . S
C1770 H1740 0.950 . S
C1770 C1769 1.524 . S
C1770 C1771 1.415 . S
C1771 H1741 0.950 . S
C1771 C1766 1.363 . S
C1771 C1770 1.415 . S
H1772 C1769 0.999 . S
H1773 C1754 0.913 . S
H1774 C1792 0.951 . S
H1775 C1794 0.951 . S
H1776 C1796 0.950 . S
H1777 C1797 0.950 . S
H1778 C1799 0.950 . S
H1779 C1802 0.950 . S
H1780 C1803 0.950 . S
H1781 C1805 0.950 . S
H1782 C1806 0.950 . S
H1783 C1807 0.951 . S
H1784 C1809 0.951 . S
H1785 C1811 0.950 . S
H1786 C1812 0.950 . S
H1787 C1814 0.950 . S
H1788 C1817 0.950 . S
H1789 C1818 0.950 . S
H1790 C1820 0.950 . S
H1791 C1821 0.950 . S
C1792 H1774 0.951 . S
C1792 C1793 1.366 . S
C1792 C1794 1.388 . S
C1793 C1792 1.366 . S
C1793 C1797 1.385 . S
C1794 H1775 0.951 . S
C1794 C1792 1.388 . S
C1794 C1795 1.366 . S
C1795 C1794 1.366 . S
C1795 C1796 1.414 . S
C1795 C1798 1.499 . S
C1796 H1776 0.950 . S
C1796 C1795 1.414 . S
C1796 C1797 1.374 . S
C1797 H1777 0.950 . S
C1797 C1793 1.385 . S
C1797 C1796 1.374 . S
C1798 C1795 1.499 . S
C1798 C1799 1.373 1_655 S
C1798 C1800 1.389 . S
C1799 H1778 0.950 . S
C1799 C1798 1.373 1_455 S
C1799 C1815 1.377 . S
C1800 C1798 1.389 . S
C1800 C1801 1.524 . S
C1800 C1814 1.377 . S
C1801 C1800 1.524 . S
C1801 C1802 1.397 . S
C1801 C1806 1.363 . S
C1802 H1779 0.950 . S
C1802 C1801 1.397 . S
C1802 C1803 1.334 . S
C1803 H1780 0.950 . S
C1803 C1802 1.334 . S
C1803 C1804 1.287 . S
C1804 C1803 1.287 . S
C1804 C1805 1.524 . S
C1804 H1823 0.913 . S
C1805 H1781 0.950 . S
C1805 C1804 1.524 . S
C1805 C1806 1.415 . S
C1806 H1782 0.950 . S
C1806 C1801 1.363 . S
C1806 C1805 1.415 . S
C1807 H1783 0.951 . S
C1807 C1808 1.366 . S
C1807 C1809 1.388 . S
C1808 C1807 1.366 . S
C1808 C1812 1.385 . S
C1809 H1784 0.951 . S
C1809 C1807 1.388 . S
C1809 C1810 1.366 . S
C1810 C1809 1.366 . S
C1810 C1811 1.414 . S
C1810 C1813 1.499 . S
C1811 H1785 0.950 . S
C1811 C1810 1.414 . S
C1811 C1812 1.374 . S
C1812 H1786 0.950 . S
C1812 C1808 1.385 . S
C1812 C1811 1.374 . S
C1813 C1810 1.499 . S
C1813 C1814 1.373 1_455 S
C1813 C1815 1.389 . S
C1814 H1787 0.950 . S
C1814 C1800 1.377 . S
C1814 C1813 1.373 1_655 S
C1815 C1799 1.377 . S
C1815 C1813 1.389 . S
C1815 C1816 1.524 . S
C1816 C1815 1.524 . S
C1816 C1817 1.397 . S
C1816 C1821 1.363 . S
C1817 H1788 0.950 . S
C1817 C1816 1.397 . S
C1817 C1818 1.334 . S
C1818 H1789 0.950 . S
C1818 C1817 1.334 . S
C1818 C1819 1.287 . S
C1819 C1818 1.287 . S
C1819 C1820 1.524 . S
C1819 H1822 0.999 . S
C1820 H1790 0.950 . S
C1820 C1819 1.524 . S
C1820 C1821 1.415 . S
C1821 H1791 0.950 . S
C1821 C1816 1.363 . S
C1821 C1820 1.415 . S
H1822 C1819 0.999 . S
H1823 C1804 0.913 . S
C243 C79 0.444 . S
C258 C9 0.485 . S
C293 C93 0.449 . S
C308 C23 0.448 . S
C343 C37 0.447 . S
C358 C107 0.484 . S
C393 C51 0.524 . S
C408 C65 0.529 . S
C443 C121 0.487 . S
C458 C191 0.449 . S
C493 C205 0.449 . S
C508 C135 0.448 . S
C543 C219 0.485 . S
C558 C149 0.452 . S
C593 C163 0.526 . S
C608 C177 0.526 . S
C643 C8 1.588 1_556 S
C658 C175 1.516 . S
C693 C189 1.556 . S
C708 C22 1.633 1_556 S
C743 C36 1.650 1_556 S
C758 C203 1.582 . S
C793 C50 1.607 1_556 S
C808 C217 1.539 . S
C843 C64 1.606 . S
C858 C119 1.538 . S
C893 C78 1.650 . S
C908 C133 1.581 . S
C943 C92 1.633 . S
C958 C147 1.556 . S
C993 C106 1.587 . S
C1008 C161 1.515 . S
C1043 C63 1.515 . S
C1058 C120 1.588 1_554 S
C1093 C77 1.556 . S
C1108 C134 1.633 1_554 S
C1143 C91 1.581 . S
C1158 C148 1.650 1_554 S
C1193 C162 1.606 1_554 S
C1208 C105 1.538 . S
C1243 C7 1.538 . S
C1258 C176 1.607 . S
C1293 C190 1.650 . S
C1308 C21 1.581 . S
C1343 C204 1.633 . S
C1358 C35 1.555 . S
C1393 C49 1.516 . S
C1408 C218 1.588 . S
C1443 C115 1.393 . S
C1458 C3 1.395 . S
C1493 C129 1.431 . S
C1508 C17 1.431 . S
C1543 C31 1.545 . S
C1558 C143 1.545 . S
C1593 C157 1.478 . S
C1608 C45 1.480 . S
C1643 C59 1.479 . S
C1658 C171 1.481 . S
C1693 C185 1.545 . S
C1708 C73 1.545 . S
C1743 C199 1.430 . S
C1758 C87 1.430 . S
C1793 C213 1.393 . S
C1808 C101 1.395 . S
