# Generated by pormake.
# Topology sml, (6)-cn, num edge types: 1
# Building blocks:
#     Node 0, Type 0, BuildingBlock: FUNLAD_clean_sbu_0, # of connection points: 6
#     Node 1, Type 0, BuildingBlock: FUNLAD_clean_sbu_0, # of connection points: 6
#     Node 2, Type 0, BuildingBlock: FUNLAD_clean_sbu_0, # of connection points: 6
#     Node 3, Type 0, BuildingBlock: FUNLAD_clean_sbu_0, # of connection points: 6
#     Node 4, Type 0, BuildingBlock: FUNLAD_clean_sbu_0, # of connection points: 6
#     Node 5, Type 0, BuildingBlock: FUNLAD_clean_sbu_0, # of connection points: 6
#     Edge 6, Type (0, 0), BuildingBlock: EZIPEK_clean_linker_0, # of connection points: 2
#     Edge 7, Type (0, 0), BuildingBlock: EZIPEK_clean_linker_0, # of connection points: 2
#     Edge 8, Type (0, 0), BuildingBlock: EZIPEK_clean_linker_0, # of connection points: 2
#     Edge 9, Type (0, 0), BuildingBlock: EZIPEK_clean_linker_0, # of connection points: 2
#     Edge 10, Type (0, 0), BuildingBlock: EZIPEK_clean_linker_0, # of connection points: 2
#     Edge 11, Type (0, 0), BuildingBlock: EZIPEK_clean_linker_0, # of connection points: 2
#     Edge 12, Type (0, 0), BuildingBlock: EZIPEK_clean_linker_0, # of connection points: 2
#     Edge 13, Type (0, 0), BuildingBlock: EZIPEK_clean_linker_0, # of connection points: 2
#     Edge 14, Type (0, 0), BuildingBlock: EZIPEK_clean_linker_0, # of connection points: 2
#     Edge 15, Type (0, 0), BuildingBlock: EZIPEK_clean_linker_0, # of connection points: 2
#     Edge 16, Type (0, 0), BuildingBlock: EZIPEK_clean_linker_0, # of connection points: 2
#     Edge 17, Type (0, 0), BuildingBlock: EZIPEK_clean_linker_0, # of connection points: 2
#     Edge 18, Type (0, 0), BuildingBlock: EZIPEK_clean_linker_0, # of connection points: 2
#     Edge 19, Type (0, 0), BuildingBlock: EZIPEK_clean_linker_0, # of connection points: 2
#     Edge 20, Type (0, 0), BuildingBlock: EZIPEK_clean_linker_0, # of connection points: 2
#     Edge 21, Type (0, 0), BuildingBlock: EZIPEK_clean_linker_0, # of connection points: 2
#     Edge 22, Type (0, 0), BuildingBlock: EZIPEK_clean_linker_0, # of connection points: 2
#     Edge 23, Type (0, 0), BuildingBlock: EZIPEK_clean_linker_0, # of connection points: 2
# Relax obj value: 0.428
# Max RMSD: 0.218
# Mean RMSD: 0.218
data_MOF--net-sml--node1-FUNLAD_clean_sbu_0--edge1-EZIPEK_clean_linker_0
_symmetry_space_group_name_H-M    P1
_symmetry_Int_Tables_number       1
_symmetry_cell_setting            triclinic
loop_
_symmetry_equiv_pos_as_xyz
'x, y, z'
_cell_length_a     36.836615
_cell_length_b     36.895241
_cell_length_c     10.957235
_cell_angle_alpha  89.828512
_cell_angle_beta   90.344671
_cell_angle_gamma 120.08876
loop_
_atom_site_label
_atom_site_type_symbol
_atom_site_fract_x
_atom_site_fract_y
_atom_site_fract_z
_atom_type_partial_charge
C0 C 0.16544 0.42432 0.87298 0.0
N1 N 0.18427 0.33994 0.08121 0.0
C2 C 0.16422 0.31505 -0.01677 0.0
C3 C 0.17672 0.2876 0.93814 0.0
C4 C 0.20936 0.28505 -0.00353 0.0
C5 C 0.22668 0.30803 0.10403 0.0
C6 C 0.21406 0.33591 0.14402 0.0
Zn7 Zn 0.17837 0.39165 0.11413 0.0
C8 C 0.26017 0.46931 0.07559 0.0
N9 N 0.1689 0.50208 0.15511 0.0
C10 C 0.13527 0.50651 0.12651 0.0
C11 C 0.20212 0.53232 0.21888 0.0
C12 C 0.20271 0.56869 0.25538 0.0
C13 C 0.16836 0.57384 0.22907 0.0
C14 C 0.13417 0.54228 0.16397 0.0
Zn15 Zn 0.17107 0.44843 0.11971 0.0
O16 O 0.17098 0.39701 0.92688 0.0
C17 C 0.08901 0.37034 0.1533 0.0
O18 O 0.16195 0.4517 0.93336 0.0
H19 H 0.22794 0.52788 0.24483 0.0
H20 H 0.14044 0.31845 0.93474 0.0
H21 H 0.10893 0.48194 0.07724 0.0
O22 O 0.11188 0.35379 0.13879 0.0
O23 O 0.10549 0.41001 0.14792 0.0
H24 H 0.23015 0.35633 0.22034 0.0
O25 O 0.17982 0.44441 0.30615 0.0
O26 O 0.18605 0.38814 0.30159 0.0
O27 O 0.23679 0.48524 0.08723 0.0
O28 O 0.2445 0.4301 0.09007 0.0
C29 C 0.18385 0.41637 0.36121 0.0
H30 H 0.16266 0.27024 0.855 0.0
H31 H 0.25196 0.30676 0.15115 0.0
H32 H 0.22935 0.59221 0.30667 0.0
H33 H 0.10696 0.5452 0.14336 0.0
C34 C 0.83469 0.24941 0.54313 0.0
N35 N 0.81932 0.14806 0.34033 0.0
C36 C 0.84768 0.14765 0.41984 0.0
C37 C 0.84079 0.10995 0.4707 0.0
C38 C 0.80414 0.07254 0.44047 0.0
C39 C 0.7768 0.07336 0.35248 0.0
C40 C 0.78513 0.11173 0.30277 0.0
Zn41 Zn 0.82223 0.20425 0.30519 0.0
C42 C 0.7396 0.19726 0.34376 0.0
N43 N 0.82795 0.32232 0.26041 0.0
C44 C 0.86027 0.36041 0.29497 0.0
C45 C 0.79512 0.31909 0.19372 0.0
C46 C 0.79383 0.35479 0.15922 0.0
C47 C 0.82684 0.39435 0.19217 0.0
C48 C 0.86047 0.39716 0.26089 0.0
Zn49 Zn 0.82777 0.26743 0.29458 0.0
O50 O 0.82999 0.21686 0.49 0.0
C51 C 0.91095 0.27512 0.26255 0.0
O52 O 0.83762 0.27997 0.48151 0.0
H53 H 0.7701 0.28873 0.16499 0.0
H54 H 0.8743 0.17683 0.45001 0.0
H55 H 0.88621 0.36235 0.34711 0.0
O56 O 0.88937 0.23565 0.27994 0.0
O57 O 0.89295 0.29685 0.26421 0.0
H58 H 0.76286 0.1127 0.24005 0.0
O59 O 0.81881 0.25434 0.10868 0.0
O60 O 0.81315 0.1923 0.11807 0.0
O61 O 0.76182 0.23657 0.32833 0.0
O62 O 0.75627 0.17456 0.33308 0.0
C63 C 0.81426 0.22182 0.05544 0.0
H64 H 0.86247 0.11024 0.53846 0.0
H65 H 0.74832 0.04492 0.32713 0.0
H66 H 0.76758 0.35163 0.1056 0.0
H67 H 0.88653 0.42738 0.28717 0.0
C68 C 0.57642 0.72767 0.51514 0.0
N69 N 0.66003 0.83131 0.72218 0.0
C70 C 0.68841 0.83552 0.6366 0.0
C71 C 0.72131 0.87516 0.60435 0.0
C72 C 0.72713 0.91165 0.66459 0.0
C73 C 0.69553 0.90564 0.74891 0.0
C74 C 0.66296 0.8655 0.77769 0.0
Zn75 Zn 0.60814 0.77349 0.75293 0.0
C76 C 0.52964 0.77576 0.71888 0.0
N77 N 0.49949 0.65189 0.79905 0.0
C78 C 0.4632 0.6404 0.73677 0.0
C79 C 0.50002 0.6296 0.89783 0.0
C80 C 0.46281 0.59584 0.94156 0.0
C81 C 0.42479 0.58505 0.88318 0.0
C82 C 0.42523 0.60681 0.77755 0.0
Zn83 Zn 0.55246 0.70875 0.76465 0.0
O84 O 0.60297 0.76136 0.56749 0.0
C85 C 0.63116 0.70655 0.79675 0.0
O86 O 0.55056 0.6964 0.57791 0.0
H87 H 0.52898 0.63944 0.94724 0.0
H88 H 0.68464 0.80813 0.58939 0.0
H89 H 0.46325 0.65864 0.65934 0.0
O90 O 0.64699 0.74565 0.77663 0.0
O91 O 0.59152 0.68287 0.79578 0.0
H92 H 0.63903 0.86182 0.84144 0.0
O93 O 0.55574 0.72172 0.94979 0.0
O94 O 0.61122 0.78446 0.9407 0.0
O95 O 0.51427 0.73649 0.73178 0.0
O96 O 0.56901 0.80006 0.72776 0.0
C97 C 0.58342 0.75452 0.00315 0.0
H98 H 0.7401 0.87602 0.52852 0.0
H99 H 0.6942 0.93153 0.7897 0.0
H100 H 0.46339 0.57964 0.02351 0.0
H101 H 0.39627 0.59916 0.73072 0.0
C102 C 0.74126 0.56681 0.22237 0.0
N103 N 0.84573 0.65124 0.02027 0.0
C104 C 0.86524 0.64765 0.12181 0.0
C105 C 0.90498 0.67949 0.15531 0.0
C106 C 0.92535 0.71553 0.08369 0.0
C107 C 0.90477 0.71933 -0.01977 0.0
C108 C 0.86448 0.68644 0.94991 0.0
Zn109 Zn 0.78826 0.59917 -0.01727 0.0
C110 C 0.7929 0.52216 0.02557 0.0
N111 N 0.66878 0.4882 0.93855 0.0
C112 C 0.63044 0.48264 -0.03191 0.0
C113 C 0.67234 0.45872 0.87358 0.0
C114 C 0.6368 0.42197 0.83648 0.0
C115 C 0.59701 0.41557 0.86435 0.0
C116 C 0.59379 0.44633 0.93081 0.0
Zn117 Zn 0.72412 0.54224 -0.0241 0.0
O118 O 0.77403 0.59453 0.16926 0.0
C119 C 0.71962 0.61931 0.93317 0.0
O120 O 0.7106 0.53934 0.16057 0.0
H121 H 0.70289 0.46401 0.8478 0.0
H122 H 0.8504 0.61956 0.17653 0.0
H123 H 0.62826 0.50663 0.01849 0.0
O124 O 0.75914 0.63639 0.9501 0.0
O125 O 0.69656 0.5797 0.94158 0.0
H126 H 0.84857 0.68871 0.86946 0.0
O127 O 0.73746 0.54622 0.79146 0.0
O128 O 0.80062 0.60191 0.79539 0.0
O129 O 0.75348 0.50581 0.01295 0.0
O130 O 0.81631 0.56139 0.01294 0.0
C131 C 0.76954 0.57381 0.73589 0.0
H132 H 0.92018 0.67557 0.23516 0.0
H133 H 0.91999 0.74688 0.92279 0.0
H134 H 0.6403 0.39897 0.78447 0.0
H135 H 0.56337 0.44232 0.95294 0.0
C136 C 0.26192 0.8296 0.21315 0.0
N137 N 0.16147 0.81755 0.41601 0.0
C138 C 0.16182 0.84579 0.33481 0.0
C139 C 0.12452 0.83874 0.27935 0.0
C140 C 0.08693 0.80204 0.30693 0.0
C141 C 0.0869 0.77532 0.39813 0.0
C142 C 0.12476 0.78381 0.45238 0.0
Zn143 Zn 0.21651 0.81813 0.45228 0.0
C144 C 0.20616 0.73435 0.41074 0.0
N145 N 0.33265 0.81922 0.49603 0.0
C146 C 0.37131 0.84928 0.45759 0.0
C147 C 0.3279 0.78666 0.56658 0.0
C148 C 0.36255 0.78328 0.60105 0.0
C149 C 0.40263 0.81377 0.56329 0.0
C150 C 0.40705 0.84718 0.4907 0.0
Zn151 Zn 0.27892 0.82147 0.46031 0.0
O152 O 0.23007 0.82691 0.26573 0.0
C153 C 0.28869 0.90533 0.49815 0.0
O154 O 0.29145 0.83021 0.27502 0.0
H155 H 0.29711 0.76334 0.59776 0.0
H156 H 0.19136 0.87209 0.30589 0.0
H157 H 0.37446 0.87504 0.40238 0.0
O158 O 0.24901 0.88417 0.48448 0.0
O159 O 0.31029 0.88721 0.48989 0.0
H160 H 0.12515 0.76168 0.51655 0.0
O161 O 0.26642 0.8139 0.64469 0.0
O162 O 0.20418 0.80856 0.63979 0.0
O163 O 0.24562 0.75511 0.42788 0.0
O164 O 0.18489 0.75256 0.42024 0.0
C165 C 0.23463 0.81021 0.6997 0.0
H166 H 0.12542 0.85993 0.20925 0.0
H167 H 0.05825 0.74685 0.42164 0.0
H168 H 0.35817 0.75719 0.65729 0.0
H169 H 0.43772 0.87124 0.46029 0.0
C170 C 0.43068 0.15958 0.8915 0.0
N171 N 0.3442 0.1756 0.68475 0.0
C172 C 0.32068 0.15703 0.78583 0.0
C173 C 0.2935 0.16988 0.83106 0.0
C174 C 0.28971 0.20122 0.76963 0.0
C175 C 0.31092 0.21663 0.65883 0.0
C176 C 0.33866 0.20383 0.61882 0.0
Zn177 Zn 0.39702 0.1713 0.65251 0.0
C178 C 0.47265 0.25384 0.68894 0.0
N179 N 0.5094 0.16504 0.6095 0.0
C180 C 0.51405 0.13146 0.63581 0.0
C181 C 0.53959 0.1986 0.54741 0.0
C182 C 0.5759 0.19931 0.50889 0.0
C183 C 0.58108 0.16485 0.53215 0.0
C184 C 0.54979 0.13057 0.59684 0.0
Zn185 Zn 0.45473 0.16557 0.64398 0.0
O186 O 0.40323 0.16505 0.83786 0.0
C187 C 0.37827 0.08274 0.61346 0.0
O188 O 0.45777 0.15576 0.83052 0.0
H189 H 0.53509 0.22454 0.52404 0.0
H190 H 0.32514 0.13443 0.83681 0.0
H191 H 0.48958 0.10489 0.68406 0.0
O192 O 0.36076 0.10457 0.63152 0.0
O193 O 0.41809 0.10036 0.6133 0.0
H194 H 0.35801 0.21886 0.54009 0.0
O195 O 0.45074 0.1745 0.45822 0.0
O196 O 0.39358 0.17876 0.46467 0.0
O197 O 0.48991 0.23162 0.67832 0.0
O198 O 0.43326 0.23706 0.67587 0.0
C199 C 0.42253 0.17848 0.40349 0.0
H200 H 0.27749 0.15726 0.91668 0.0
H201 H 0.30863 0.24086 0.60921 0.0
H202 H 0.59931 0.22609 0.45839 0.0
H203 H 0.55282 0.10336 0.61553 0.0
C204 C 0.29229 0.26485 0.86067 0.0
C205 C 0.26833 0.22184 0.82854 0.0
C206 C 0.20603 0.21874 0.91943 0.0
C207 C 0.22902 0.2628 0.9373 0.0
N208 N 0.29137 0.32901 0.89369 0.0
N209 N 0.2006 0.15929 0.80903 0.0
C210 C 0.2714 0.28624 0.89875 0.0
C211 C 0.2246 0.19909 0.85281 0.0
N212 N 0.33516 0.28502 0.85987 0.0
N213 N 0.16707 0.19549 -0.0307 0.0
H214 H 0.21305 0.14419 0.7585 0.0
H215 H 0.16796 0.14274 0.81337 0.0
H216 H 0.15278 0.20874 0.02 0.0
H217 H 0.15061 0.16286 -0.03028 0.0
H218 H 0.35387 0.31524 0.89395 0.0
H219 H 0.35202 0.27015 0.83818 0.0
H220 H 0.32092 0.34714 0.85493 0.0
H221 H 0.27675 0.34611 0.91545 0.0
C222 C 0.02876 0.35089 0.29618 0.0
C223 C 0.04377 0.34382 0.18456 0.0
C224 C 0.97267 0.28657 0.13469 0.0
C225 C 0.95703 0.29634 0.2405 0.0
N226 N 0.96938 0.33805 0.42161 0.0
N227 N 0.03015 0.30737 -0.00735 0.0
C228 C 0.98491 0.3286 0.32105 0.0
C229 C 1.01584 0.31192 0.10322 0.0
N230 N 0.0567 0.37758 0.38113 0.0
N231 N 0.94617 0.25322 0.06345 0.0
H232 H 0.06154 0.32451 -0.03281 0.0
H233 H 1.0108 0.28869 0.92223 0.0
H234 H 0.91401 0.23573 0.07802 0.0
H235 H 0.95614 0.24108 -0.00587 0.0
H236 H 0.04864 0.38049 0.46993 0.0
H237 H 0.08897 0.39461 0.36693 0.0
H238 H 0.98661 0.36484 0.47429 0.0
H239 H 0.93839 0.31989 0.45036 0.0
C240 C 0.77803 0.02886 0.63115 0.0
C241 C 0.79256 0.03338 0.50906 0.0
C242 C 0.78632 0.9642 0.52339 0.0
C243 C 0.7615 0.95581 0.62957 0.0
N244 N 0.76605 0.99021 0.81953 0.0
N245 N 0.81363 1.00607 0.34067 0.0
C246 C 0.76687 0.99122 0.69513 0.0
C247 C 0.79779 1.00131 0.45562 0.0
N248 N 0.77289 0.05942 0.68442 0.0
N249 N 0.80544 0.94147 0.50091 0.0
H250 H 0.8242 0.03356 0.29024 0.0
H251 H 0.81391 0.98168 0.29365 0.0
H252 H 0.80508 0.92041 0.56546 0.0
H253 H 0.82675 0.94834 0.43026 0.0
H254 H 0.75826 0.05538 0.76854 0.0
H255 H 0.78019 0.08741 0.6408 0.0
H256 H 0.77364 0.01637 0.87319 0.0
H257 H 0.76284 0.96429 0.86774 0.0
C258 C 0.68342 0.70016 0.93193 0.0
C259 C 0.65831 0.68822 0.82413 0.0
C260 C 0.67938 0.63611 0.77904 0.0
C261 C 0.70061 0.64482 0.89343 0.0
N262 N 0.72133 0.68331 0.08252 0.0
N263 N 0.6318 0.64497 0.64442 0.0
C264 C 0.70275 0.6768 -0.02991 0.0
C265 C 0.65622 0.65626 0.74746 0.0
N266 N 0.68858 0.73369 -0.00139 0.0
N267 N 0.68284 0.60981 0.69824 0.0
H268 H 0.61766 0.66152 0.61173 0.0
H269 H 0.62404 0.61825 0.59355 0.0
H270 H 0.69935 0.59437 0.71766 0.0
H271 H 0.6725 0.60579 0.6081 0.0
H272 H 0.71029 0.74728 0.06922 0.0
H273 H 0.67301 0.74997 -0.02131 0.0
H274 H 0.71923 0.70196 0.14996 0.0
H275 H 0.73692 0.66789 0.11214 0.0
C276 C 1.01566 0.79444 0.27624 0.0
C277 C 0.04846 0.78856 0.23196 0.0
C278 C 1.00262 0.74303 0.06835 0.0
C279 C 0.96924 0.74722 0.11638 0.0
N280 N 0.94537 0.78354 0.24517 0.0
N281 N 0.07683 0.76543 0.07178 0.0
C282 C 0.9764 0.77539 0.21343 0.0
C283 C 0.04317 0.76576 0.12263 0.0
N284 N 1.02173 0.81693 0.38087 0.0
N285 N 0.9948 0.71526 -0.02436 0.0
H286 H 0.10661 0.78011 0.11153 0.0
H287 H 0.07625 0.75327 -0.01422 0.0
H288 H 0.96597 0.69943 0.93045 0.0
H289 H 1.01601 0.7063 0.94674 0.0
H290 H 0.99799 0.81872 0.42642 0.0
H291 H 0.0507 0.83273 0.42547 0.0
H292 H 0.94913 0.80605 0.30878 0.0
H293 H 0.91649 0.76988 0.19987 0.0
C294 C 0.35515 1.0081 0.66912 0.0
C295 C 0.35263 0.03702 0.58859 0.0
C296 C 0.3074 0.97947 0.4492 0.0
C297 C 0.30945 0.95051 0.53063 0.0
N298 N 0.32768 0.9356 0.72887 0.0
N299 N 0.32285 0.05048 0.40927 0.0
C300 C 0.33137 0.96439 0.64349 0.0
C301 C 0.32742 0.02268 0.48126 0.0
N302 N 0.38043 0.02246 0.77024 0.0
N303 N 0.28795 0.96591 0.33842 0.0
H304 H 0.33948 0.08268 0.42369 0.0
H305 H 0.30096 0.04177 0.33888 0.0
H306 H 0.27158 0.93447 0.3135 0.0
H307 H 0.28989 0.98569 0.26779 0.0
H308 H 0.38821 1.00393 0.8236 0.0
H309 H 0.39546 0.05367 0.79829 0.0
H310 H 0.33862 0.94318 0.81822 0.0
H311 H 0.31036 0.90337 0.71418 0.0
C312 C 0.13667 0.39207 0.67318 0.0
C313 C 0.16822 0.42606 0.73989 0.0
C314 C 0.21268 0.45147 0.55927 0.0
C315 C 0.18212 0.41581 0.49473 0.0
N316 N 0.11806 0.34856 0.49309 0.0
N317 N 0.23713 0.48744 0.75291 0.0
C318 C 0.14512 0.38481 0.55276 0.0
C319 C 0.20641 0.45589 0.68454 0.0
N320 N 0.09798 0.36795 0.72406 0.0
N321 N 0.24762 0.48104 0.49974 0.0
H322 H 0.23283 0.49305 0.84327 0.0
H323 H 0.26755 0.50723 0.72256 0.0
H324 H 0.25513 0.47627 0.41193 0.0
H325 H 0.26856 0.51044 0.53519 0.0
H326 H 0.07207 0.34492 0.67689 0.0
H327 H 0.09071 0.37426 0.81043 0.0
H328 H 0.09298 0.32309 0.53539 0.0
H329 H 0.12213 0.34239 0.40313 0.0
C330 C 0.84379 0.21613 0.85621 0.0
C331 C 0.81349 0.22144 0.92064 0.0
C332 C 0.79756 0.24815 0.73446 0.0
C333 C 0.83188 0.24802 0.67657 0.0
N334 N 0.89327 0.24094 0.68989 0.0
N335 N 0.76042 0.24158 0.92196 0.0
C336 C 0.85675 0.23488 0.74022 0.0
C337 C 0.7901 0.23729 0.85971 0.0
N338 N 0.85931 0.19218 0.90248 0.0
N339 N 0.77069 0.25628 0.66889 0.0
H340 H 0.75024 0.22889 0.0085 0.0
H341 H 0.74689 0.25871 0.88989 0.0
H342 H 0.77479 0.26483 0.57732 0.0
H343 H 0.74232 0.25168 0.7025 0.0
H344 H 0.87869 0.18468 0.85276 0.0
H345 H 0.84915 0.17539 -0.01657 0.0
H346 H 0.91485 0.23577 0.73742 0.0
H347 H 0.90404 0.25549 0.6054 0.0
C348 C 0.61468 0.74485 0.32149 0.0
C349 C 0.57555 0.72777 0.38107 0.0
C350 C 0.54351 0.73691 0.19617 0.0
C351 C 0.58312 0.7548 0.1378 0.0
N352 N 0.65869 0.78895 0.15971 0.0
N353 N 0.50072 0.70137 0.37203 0.0
C354 C 0.61948 0.76268 0.20432 0.0
C355 C 0.53923 0.72179 0.31753 0.0
N356 N 0.64699 0.74267 0.37634 0.0
N357 N 0.51077 0.73709 0.13698 0.0
H358 H 0.496 0.6912 0.462 0.0
H359 H 0.47253 0.69177 0.32629 0.0
H360 H 0.51386 0.75001 0.05031 0.0
H361 H 0.48192 0.72838 0.17634 0.0
H362 H 0.675 0.75054 0.33236 0.0
H363 H 0.64385 0.72845 0.4612 0.0
H364 H 0.68599 0.79857 0.21062 0.0
H365 H 0.66435 0.80556 0.07868 0.0
C366 C 0.75613 0.53643 0.53893 0.0
C367 C 0.76693 0.57409 0.60203 0.0
C368 C 0.75114 0.60245 0.42037 0.0
C369 C 0.74199 0.56558 0.35628 0.0
N370 N 0.72805 0.49418 0.35661 0.0
N371 N 0.77853 0.64478 0.60245 0.0
C372 C 0.74197 0.53144 0.41623 0.0
C373 C 0.7658 0.60779 0.54253 0.0
N374 N 0.76152 0.50634 0.59558 0.0
N375 N 0.74294 0.63099 0.3657 0.0
H376 H 0.78681 0.64952 0.69432 0.0
H377 H 0.78326 0.67202 0.55977 0.0
H378 H 0.72964 0.62613 0.27876 0.0
H379 H 0.74493 0.65691 0.4094 0.0
H380 H 0.75832 0.47975 0.55303 0.0
H381 H 0.77259 0.50956 0.68475 0.0
H382 H 0.72256 0.46663 0.39889 0.0
H383 H 0.7195 0.4895 0.26496 0.0
C384 C 0.24031 0.84806 0.89266 0.0
C385 C 0.23677 0.81221 0.83348 0.0
C386 C 0.25623 0.79039 0.02268 0.0
C387 C 0.26106 0.82701 0.07975 0.0
N388 N 0.26906 0.89547 0.06459 0.0
N389 N 0.24538 0.7515 0.83568 0.0
C390 C 0.25617 0.85715 0.01339 0.0
C391 C 0.24601 0.78407 0.89682 0.0
N392 N 0.22931 0.87388 0.83349 0.0
N393 N 0.25976 0.76089 0.08952 0.0
H394 H 0.23433 0.74362 0.74657 0.0
H395 H 0.25747 0.73341 0.87032 0.0
H396 H 0.26819 0.76445 0.18133 0.0
H397 H 0.25198 0.73143 0.0567 0.0
H398 H 0.22669 0.89748 0.87716 0.0
H399 H 0.21996 0.87035 0.7425 0.0
H400 H 0.27024 0.92066 0.01791 0.0
H401 H 0.28334 0.90346 0.15034 0.0
C402 C 0.38767 0.15007 0.20198 0.0
C403 C 0.42337 0.17969 0.26875 0.0
C404 C 0.46658 0.1956 0.08489 0.0
C405 C 0.43193 0.16182 0.02493 0.0
N406 N 0.36294 0.10097 0.03428 0.0
N407 N 0.49702 0.23205 0.27422 0.0
C408 C 0.39361 0.13715 0.08644 0.0
C409 C 0.46296 0.20282 0.21006 0.0
N410 N 0.34799 0.13531 0.24524 0.0
N411 N 0.50199 0.22219 0.02128 0.0
H412 H 0.49448 0.24225 0.36061 0.0
H413 H 0.5278 0.24525 0.24377 0.0
H414 H 0.50657 0.21805 0.92995 0.0
H415 H 0.52599 0.2503 0.05624 0.0
H416 H 0.3212 0.11633 0.1937 0.0
H417 H 0.34126 0.14591 0.32491 0.0
H418 H 0.33587 0.07957 0.08034 0.0
H419 H 0.36681 0.09027 0.94994 0.0
C420 C 0.17179 0.64328 0.19478 0.0
C421 C 0.16836 0.61169 0.27608 0.0
C422 C 0.18156 0.6584 0.45038 0.0
C423 C 0.18612 0.69022 0.36876 0.0
N424 N 0.17138 0.70837 0.17013 0.0
N425 N 0.15779 0.58465 0.48122 0.0
C426 C 0.17629 0.68104 0.24321 0.0
C427 C 0.16934 0.61786 0.40423 0.0
N428 N 0.17364 0.63857 0.07167 0.0
N429 N 0.18923 0.66717 0.57183 0.0
H430 H 0.14769 0.55438 0.44963 0.0
H431 H 0.15445 0.58611 0.57504 0.0
H432 H 0.19405 0.69522 0.60877 0.0
H433 H 0.1919 0.64739 0.63463 0.0
H434 H 0.18104 0.66259 0.00917 0.0
H435 H 0.17104 0.6117 0.03216 0.0
H436 H 0.16013 0.70137 0.08082 0.0
H437 H 0.17523 0.73671 0.20162 0.0
C438 C 0.66401 0.17562 0.30724 0.0
C439 C 0.69589 0.17924 0.38767 0.0
C440 C 0.65065 0.16811 0.56361 0.0
C441 C 0.61871 0.16476 0.48334 0.0
N442 N 0.59051 0.15412 0.27906 0.0
N443 N 0.71517 0.1663 0.58706 0.0
C444 C 0.62402 0.16497 0.35493 0.0
C445 C 0.68764 0.17108 0.51412 0.0
N446 N 0.67224 0.1829 0.18551 0.0
N447 N 0.64697 0.1712 0.68671 0.0
H448 H 0.74294 0.16894 0.55465 0.0
H449 H 0.70882 0.15623 0.67735 0.0
H450 H 0.62065 0.16965 0.72691 0.0
H451 H 0.67138 0.17871 0.74831 0.0
H452 H 0.65247 0.18612 0.12368 0.0
H453 H 0.69997 0.1872 0.14729 0.0
H454 H 0.59124 0.15012 0.18529 0.0
H455 H 0.56062 0.1453 0.31149 0.0
C456 C 0.31905 0.48586 0.92769 0.0
C457 C 0.30435 0.49625 0.03473 0.0
C458 C 0.36862 0.56512 0.04079 0.0
C459 C 0.38424 0.55369 0.9387 0.0
N460 N 0.37863 0.50046 0.80069 0.0
N461 N 0.31941 0.54177 0.20822 0.0
C462 C 0.36081 0.51311 0.88735 0.0
C463 C 0.33048 0.53474 0.09574 0.0
N464 N 0.2925 0.45159 0.85942 0.0
N465 N 0.3894 0.60549 0.08263 0.0
H466 H 0.29218 0.51987 0.25231 0.0
H467 H 0.33912 0.56728 0.26291 0.0
H468 H 0.41759 0.62874 0.04571 0.0
H469 H 0.377 0.61686 0.14735 0.0
H470 H 0.3002 0.44548 0.77358 0.0
H471 H 0.26124 0.43132 0.88156 0.0
H472 H 0.36492 0.46971 0.76945 0.0
H473 H 0.40893 0.51987 0.76794 0.0
C474 C 0.82962 0.4423 0.0248 0.0
C475 C 0.82594 0.43239 0.1512 0.0
C476 C 0.81461 0.49112 0.19397 0.0
C477 C 0.81058 0.49586 0.06711 0.0
N478 N 0.81675 0.47867 0.85994 0.0
N479 N 0.81184 0.44529 0.35664 0.0
C480 C 0.81911 0.47237 -0.01817 0.0
C481 C 0.81822 0.45663 0.23636 0.0
N482 N 0.84405 0.42355 0.94678 0.0
N483 N 0.81555 0.51994 0.27377 0.0
H484 H 0.81392 0.42009 0.39168 0.0
H485 H 0.80129 0.45884 0.42006 0.0
H486 H 0.81286 0.54549 0.24546 0.0
H487 H 0.82276 0.52064 0.36612 0.0
H488 H 0.85086 0.43178 0.8554 0.0
H489 H 0.8527 0.40199 -0.0239 0.0
H490 H 0.81721 0.45922 0.79211 0.0
H491 H 0.81324 0.50328 0.82714 0.0
C492 C 0.45917 0.79686 0.51446 0.0
C493 C 0.43954 0.81003 0.60056 0.0
C494 C 0.48257 0.80518 0.76518 0.0
C495 C 0.50218 0.79225 0.67856 0.0
N496 N 0.51862 0.78829 0.46844 0.0
N497 N 0.43825 0.83541 0.802 0.0
C498 C 0.49344 0.79204 0.55234 0.0
C499 C 0.45304 0.81687 0.72444 0.0
N500 N 0.44381 0.7869 0.39798 0.0
N501 N 0.49182 0.80566 0.88628 0.0
H502 H 0.41697 0.84469 0.77442 0.0
H503 H 0.44949 0.84477 0.89041 0.0
H504 H 0.51556 0.80034 0.91721 0.0
H505 H 0.47514 0.80975 0.956 0.0
H506 H 0.45367 0.77236 0.33574 0.0
H507 H 0.41879 0.79003 0.36614 0.0
H508 H 0.51645 0.79211 0.37496 0.0
H509 H 0.54455 0.78564 0.49334 0.0
C510 C 0.55192 0.37061 0.69213 0.0
C511 C 0.55931 0.37685 0.81984 0.0
C512 C 0.49984 0.30658 0.85721 0.0
C513 C 0.49792 0.2978 0.73071 0.0
N514 N 0.52012 0.32107 0.52537 0.0
N515 N 0.54256 0.34951 0.02513 0.0
C516 C 0.52323 0.32985 0.64723 0.0
C517 C 0.53347 0.34474 0.90305 0.0
N518 N 0.57181 0.40392 0.61449 0.0
N519 N 0.46943 0.27855 0.93344 0.0
H520 H 0.56709 0.37679 0.06278 0.0
H521 H 0.52787 0.32521 0.088 0.0
H522 H 0.44441 0.2502 0.90302 0.0
H523 H 0.46692 0.28503 0.02447 0.0
H524 H 0.56528 0.40236 0.52149 0.0
H525 H 0.59233 0.43428 0.64517 0.0
H526 H 0.54113 0.34128 0.46058 0.0
H527 H 0.49693 0.29255 0.48978 0.0
loop_
_geom_bond_atom_site_label_1
_geom_bond_atom_site_label_2
_geom_bond_distance
_geom_bond_site_symmetry_2
_ccdc_geom_bond_type
C0 O16 1.251 . S
C0 O18 1.254 . S
N1 C2 1.333 . S
N1 C6 1.307 . S
N1 Zn7 2.020 . S
C2 N1 1.333 . S
C2 C3 1.379 1_554 S
C2 H20 0.952 1_554 S
C3 C2 1.379 1_556 S
C3 C4 1.390 1_556 S
C3 H30 0.949 . S
C4 C3 1.390 1_554 S
C4 C5 1.357 . S
C5 C4 1.357 . S
C5 C6 1.370 . S
C5 H31 0.950 . S
C6 N1 1.307 . S
C6 C5 1.370 . S
C6 H24 0.948 . S
Zn7 N1 2.020 . S
Zn7 O16 2.039 1_554 S
Zn7 O22 2.034 . S
Zn7 O26 2.025 . S
Zn7 O28 2.024 . S
C8 O27 1.246 . S
C8 O28 1.249 . S
N9 C10 1.307 . S
N9 C11 1.333 . S
N9 Zn15 2.020 . S
C10 N9 1.307 . S
C10 C14 1.370 . S
C10 H21 0.948 . S
C11 N9 1.333 . S
C11 C12 1.379 . S
C11 H19 0.952 . S
C12 C11 1.379 . S
C12 C13 1.390 . S
C12 H32 0.949 . S
C13 C12 1.390 . S
C13 C14 1.357 . S
C14 C10 1.370 . S
C14 C13 1.357 . S
C14 H33 0.950 . S
Zn15 N9 2.020 . S
Zn15 O18 2.025 1_554 S
Zn15 O23 2.024 . S
Zn15 O25 2.039 . S
Zn15 O27 2.034 . S
O16 C0 1.251 . S
O16 Zn7 2.039 1_556 S
C17 O22 1.246 . S
C17 O23 1.249 . S
O18 C0 1.254 . S
O18 Zn15 2.025 1_556 S
H19 C11 0.952 . S
H20 C2 0.952 1_556 S
H21 C10 0.948 . S
O22 Zn7 2.034 . S
O22 C17 1.246 . S
O23 Zn15 2.024 . S
O23 C17 1.249 . S
H24 C6 0.948 . S
O25 Zn15 2.039 . S
O25 C29 1.251 . S
O26 Zn7 2.025 . S
O26 C29 1.254 . S
O27 C8 1.246 . S
O27 Zn15 2.034 . S
O28 Zn7 2.024 . S
O28 C8 1.249 . S
C29 O25 1.251 . S
C29 O26 1.254 . S
H30 C3 0.949 . S
H31 C5 0.950 . S
H32 C12 0.949 . S
H33 C14 0.950 . S
C34 O50 1.251 . S
C34 O52 1.254 . S
N35 C36 1.333 . S
N35 C40 1.307 . S
N35 Zn41 2.020 . S
C36 N35 1.333 . S
C36 C37 1.379 . S
C36 H54 0.952 . S
C37 C36 1.379 . S
C37 C38 1.390 . S
C37 H64 0.949 . S
C38 C37 1.390 . S
C38 C39 1.357 . S
C39 C38 1.357 . S
C39 C40 1.370 . S
C39 H65 0.950 . S
C40 N35 1.307 . S
C40 C39 1.370 . S
C40 H58 0.948 . S
Zn41 N35 2.020 . S
Zn41 O50 2.039 . S
Zn41 O56 2.034 . S
Zn41 O60 2.025 . S
Zn41 O62 2.024 . S
C42 O61 1.246 . S
C42 O62 1.249 . S
N43 C44 1.307 . S
N43 C45 1.333 . S
N43 Zn49 2.020 . S
C44 N43 1.307 . S
C44 C48 1.370 . S
C44 H55 0.948 . S
C45 N43 1.333 . S
C45 C46 1.379 . S
C45 H53 0.952 . S
C46 C45 1.379 . S
C46 C47 1.390 . S
C46 H66 0.949 . S
C47 C46 1.390 . S
C47 C48 1.357 . S
C48 C44 1.370 . S
C48 C47 1.357 . S
C48 H67 0.950 . S
Zn49 N43 2.020 . S
Zn49 O52 2.025 . S
Zn49 O57 2.024 . S
Zn49 O59 2.039 . S
Zn49 O61 2.034 . S
O50 C34 1.251 . S
O50 Zn41 2.039 . S
C51 O56 1.246 . S
C51 O57 1.249 . S
O52 C34 1.254 . S
O52 Zn49 2.025 . S
H53 C45 0.952 . S
H54 C36 0.952 . S
H55 C44 0.948 . S
O56 Zn41 2.034 . S
O56 C51 1.246 . S
O57 Zn49 2.024 . S
O57 C51 1.249 . S
H58 C40 0.948 . S
O59 Zn49 2.039 . S
O59 C63 1.251 . S
O60 Zn41 2.025 . S
O60 C63 1.254 . S
O61 C42 1.246 . S
O61 Zn49 2.034 . S
O62 Zn41 2.024 . S
O62 C42 1.249 . S
C63 O59 1.251 . S
C63 O60 1.254 . S
H64 C37 0.949 . S
H65 C39 0.950 . S
H66 C46 0.949 . S
H67 C48 0.950 . S
C68 O84 1.251 . S
C68 O86 1.254 . S
N69 C70 1.333 . S
N69 C74 1.307 . S
N69 Zn75 2.020 . S
C70 N69 1.333 . S
C70 C71 1.379 . S
C70 H88 0.952 . S
C71 C70 1.379 . S
C71 C72 1.390 . S
C71 H98 0.949 . S
C72 C71 1.390 . S
C72 C73 1.357 . S
C73 C72 1.357 . S
C73 C74 1.370 . S
C73 H99 0.950 . S
C74 N69 1.307 . S
C74 C73 1.370 . S
C74 H92 0.948 . S
Zn75 N69 2.020 . S
Zn75 O84 2.039 . S
Zn75 O90 2.034 . S
Zn75 O94 2.025 1_556 S
Zn75 O96 2.024 . S
C76 O95 1.246 . S
C76 O96 1.249 . S
N77 C78 1.307 . S
N77 C79 1.333 . S
N77 Zn83 2.020 . S
C78 N77 1.307 . S
C78 C82 1.370 . S
C78 H89 0.948 . S
C79 N77 1.333 . S
C79 C80 1.379 1_556 S
C79 H87 0.952 1_556 S
C80 C79 1.379 1_554 S
C80 C81 1.390 1_554 S
C80 H100 0.949 . S
C81 C80 1.390 1_556 S
C81 C82 1.357 . S
C82 C78 1.370 . S
C82 C81 1.357 . S
C82 H101 0.950 . S
Zn83 N77 2.020 . S
Zn83 O86 2.025 . S
Zn83 O91 2.024 . S
Zn83 O93 2.039 1_556 S
Zn83 O95 2.034 . S
O84 C68 1.251 . S
O84 Zn75 2.039 . S
C85 O90 1.246 . S
C85 O91 1.249 . S
O86 C68 1.254 . S
O86 Zn83 2.025 . S
H87 C79 0.952 1_554 S
H88 C70 0.952 . S
H89 C78 0.948 . S
O90 Zn75 2.034 . S
O90 C85 1.246 . S
O91 Zn83 2.024 . S
O91 C85 1.249 . S
H92 C74 0.948 . S
O93 Zn83 2.039 1_554 S
O93 C97 1.251 . S
O94 Zn75 2.025 1_554 S
O94 C97 1.254 . S
O95 C76 1.246 . S
O95 Zn83 2.034 . S
O96 Zn75 2.024 . S
O96 C76 1.249 . S
C97 O93 1.251 . S
C97 O94 1.254 . S
H98 C71 0.949 . S
H99 C73 0.950 . S
H100 C80 0.949 . S
H101 C82 0.950 . S
C102 O118 1.251 . S
C102 O120 1.254 . S
N103 C104 1.333 . S
N103 C108 1.307 1_554 S
N103 Zn109 2.020 . S
C104 N103 1.333 . S
C104 C105 1.379 . S
C104 H122 0.952 . S
C105 C104 1.379 . S
C105 C106 1.390 . S
C105 H132 0.949 . S
C106 C105 1.390 . S
C106 C107 1.357 1_554 S
C107 C106 1.357 1_556 S
C107 C108 1.370 . S
C107 H133 0.950 . S
C108 N103 1.307 1_556 S
C108 C107 1.370 . S
C108 H126 0.948 . S
Zn109 N103 2.020 . S
Zn109 O118 2.039 . S
Zn109 O124 2.034 1_554 S
Zn109 O128 2.025 1_554 S
Zn109 O130 2.024 . S
C110 O129 1.246 . S
C110 O130 1.249 . S
N111 C112 1.307 1_556 S
N111 C113 1.333 . S
N111 Zn117 2.020 . S
C112 N111 1.307 1_554 S
C112 C116 1.370 . S
C112 H123 0.948 . S
C113 N111 1.333 . S
C113 C114 1.379 . S
C113 H121 0.952 . S
C114 C113 1.379 . S
C114 C115 1.390 . S
C114 H134 0.949 . S
C115 C114 1.390 . S
C115 C116 1.357 1_556 S
C116 C112 1.370 . S
C116 C115 1.357 1_554 S
C116 H135 0.950 . S
Zn117 N111 2.020 . S
Zn117 O120 2.025 1_556 S
Zn117 O125 2.024 . S
Zn117 O127 2.039 . S
Zn117 O129 2.034 1_556 S
O118 C102 1.251 . S
O118 Zn109 2.039 . S
C119 O124 1.246 . S
C119 O125 1.249 . S
O120 C102 1.254 . S
O120 Zn117 2.025 1_554 S
H121 C113 0.952 . S
H122 C104 0.952 . S
H123 C112 0.948 . S
O124 Zn109 2.034 1_556 S
O124 C119 1.246 . S
O125 Zn117 2.024 . S
O125 C119 1.249 . S
H126 C108 0.948 . S
O127 Zn117 2.039 . S
O127 C131 1.251 . S
O128 Zn109 2.025 1_556 S
O128 C131 1.254 . S
O129 C110 1.246 . S
O129 Zn117 2.034 1_554 S
O130 Zn109 2.024 . S
O130 C110 1.249 . S
C131 O127 1.251 . S
C131 O128 1.254 . S
H132 C105 0.949 . S
H133 C107 0.950 . S
H134 C114 0.949 . S
H135 C116 0.950 . S
C136 O152 1.251 . S
C136 O154 1.254 . S
N137 C138 1.333 . S
N137 C142 1.307 . S
N137 Zn143 2.020 . S
C138 N137 1.333 . S
C138 C139 1.379 . S
C138 H156 0.952 . S
C139 C138 1.379 . S
C139 C140 1.390 . S
C139 H166 0.949 . S
C140 C139 1.390 . S
C140 C141 1.357 . S
C141 C140 1.357 . S
C141 C142 1.370 . S
C141 H167 0.950 . S
C142 N137 1.307 . S
C142 C141 1.370 . S
C142 H160 0.948 . S
Zn143 N137 2.020 . S
Zn143 O152 2.039 . S
Zn143 O158 2.034 . S
Zn143 O162 2.025 . S
Zn143 O164 2.024 . S
C144 O163 1.246 . S
C144 O164 1.249 . S
N145 C146 1.307 . S
N145 C147 1.333 . S
N145 Zn151 2.020 . S
C146 N145 1.307 . S
C146 C150 1.370 . S
C146 H157 0.948 . S
C147 N145 1.333 . S
C147 C148 1.379 . S
C147 H155 0.952 . S
C148 C147 1.379 . S
C148 C149 1.390 . S
C148 H168 0.949 . S
C149 C148 1.390 . S
C149 C150 1.357 . S
C150 C146 1.370 . S
C150 C149 1.357 . S
C150 H169 0.950 . S
Zn151 N145 2.020 . S
Zn151 O154 2.025 . S
Zn151 O159 2.024 . S
Zn151 O161 2.039 . S
Zn151 O163 2.034 . S
O152 C136 1.251 . S
O152 Zn143 2.039 . S
C153 O158 1.246 . S
C153 O159 1.249 . S
O154 C136 1.254 . S
O154 Zn151 2.025 . S
H155 C147 0.952 . S
H156 C138 0.952 . S
H157 C146 0.948 . S
O158 Zn143 2.034 . S
O158 C153 1.246 . S
O159 Zn151 2.024 . S
O159 C153 1.249 . S
H160 C142 0.948 . S
O161 Zn151 2.039 . S
O161 C165 1.251 . S
O162 Zn143 2.025 . S
O162 C165 1.254 . S
O163 C144 1.246 . S
O163 Zn151 2.034 . S
O164 Zn143 2.024 . S
O164 C144 1.249 . S
C165 O161 1.251 . S
C165 O162 1.254 . S
H166 C139 0.949 . S
H167 C141 0.950 . S
H168 C148 0.949 . S
H169 C150 0.950 . S
C170 O186 1.251 . S
C170 O188 1.254 . S
N171 C172 1.333 . S
N171 C176 1.307 . S
N171 Zn177 2.020 . S
C172 N171 1.333 . S
C172 C173 1.379 . S
C172 H190 0.952 . S
C173 C172 1.379 . S
C173 C174 1.390 . S
C173 H200 0.949 . S
C174 C173 1.390 . S
C174 C175 1.357 . S
C175 C174 1.357 . S
C175 C176 1.370 . S
C175 H201 0.950 . S
C176 N171 1.307 . S
C176 C175 1.370 . S
C176 H194 0.948 . S
Zn177 N171 2.020 . S
Zn177 O186 2.039 . S
Zn177 O192 2.034 . S
Zn177 O196 2.025 . S
Zn177 O198 2.024 . S
C178 O197 1.246 . S
C178 O198 1.249 . S
N179 C180 1.307 . S
N179 C181 1.333 . S
N179 Zn185 2.020 . S
C180 N179 1.307 . S
C180 C184 1.370 . S
C180 H191 0.948 . S
C181 N179 1.333 . S
C181 C182 1.379 . S
C181 H189 0.952 . S
C182 C181 1.379 . S
C182 C183 1.390 . S
C182 H202 0.949 . S
C183 C182 1.390 . S
C183 C184 1.357 . S
C184 C180 1.370 . S
C184 C183 1.357 . S
C184 H203 0.950 . S
Zn185 N179 2.020 . S
Zn185 O188 2.025 . S
Zn185 O193 2.024 . S
Zn185 O195 2.039 . S
Zn185 O197 2.034 . S
O186 C170 1.251 . S
O186 Zn177 2.039 . S
C187 O192 1.246 . S
C187 O193 1.249 . S
O188 C170 1.254 . S
O188 Zn185 2.025 . S
H189 C181 0.952 . S
H190 C172 0.952 . S
H191 C180 0.948 . S
O192 Zn177 2.034 . S
O192 C187 1.246 . S
O193 Zn185 2.024 . S
O193 C187 1.249 . S
H194 C176 0.948 . S
O195 Zn185 2.039 . S
O195 C199 1.251 . S
O196 Zn177 2.025 . S
O196 C199 1.254 . S
O197 C178 1.246 . S
O197 Zn185 2.034 . S
O198 Zn177 2.024 . S
O198 C178 1.249 . S
C199 O195 1.251 . S
C199 O196 1.254 . S
H200 C173 0.949 . S
H201 C175 0.950 . S
H202 C182 0.949 . S
H203 C184 0.950 . S
C204 C205 1.363 . S
C204 C210 1.379 . S
C204 N212 1.356 . S
C205 C204 1.363 . S
C205 C211 1.363 . S
C206 C207 1.363 1_554 S
C206 C211 1.379 1_554 S
C206 N213 1.356 . S
C207 C206 1.363 1_556 S
C207 C210 1.363 . S
N208 C210 1.356 . S
N208 H220 0.984 . S
N208 H221 0.985 . S
N209 C211 1.356 . S
N209 H214 0.984 . S
N209 H215 0.985 . S
C210 C204 1.379 . S
C210 C207 1.363 . S
C210 N208 1.356 . S
C211 C205 1.363 . S
C211 C206 1.379 1_556 S
C211 N209 1.356 . S
N212 C204 1.356 . S
N212 H218 0.984 . S
N212 H219 0.984 . S
N213 C206 1.356 . S
N213 H216 0.984 . S
N213 H217 0.985 . S
H214 N209 0.984 . S
H215 N209 0.985 . S
H216 N213 0.984 . S
H217 N213 0.985 . S
H218 N212 0.984 . S
H219 N212 0.984 . S
H220 N208 0.984 . S
H221 N208 0.985 . S
C222 C223 1.363 . S
C222 C228 1.379 1_455 S
C222 N230 1.356 . S
C223 C222 1.363 . S
C223 C229 1.363 1_455 S
C224 C225 1.363 . S
C224 C229 1.379 . S
C224 N231 1.356 . S
C225 C224 1.363 . S
C225 C228 1.363 . S
N226 C228 1.356 . S
N226 H238 0.984 . S
N226 H239 0.985 . S
N227 C229 1.356 1_455 S
N227 H232 0.984 . S
N227 H233 0.985 . S
C228 C222 1.379 1_655 S
C228 C225 1.363 . S
C228 N226 1.356 . S
C229 C223 1.363 1_655 S
C229 C224 1.379 . S
C229 N227 1.356 1_655 S
N230 C222 1.356 . S
N230 H236 0.984 . S
N230 H237 0.984 . S
N231 C224 1.356 . S
N231 H234 0.984 . S
N231 H235 0.985 . S
H232 N227 0.984 . S
H233 N227 0.985 . S
H234 N231 0.984 . S
H235 N231 0.985 . S
H236 N230 0.984 . S
H237 N230 0.984 . S
H238 N226 0.984 . S
H239 N226 0.985 . S
C240 C241 1.363 . S
C240 C246 1.379 1_545 S
C240 N248 1.356 . S
C241 C240 1.363 . S
C241 C247 1.363 1_545 S
C242 C243 1.363 . S
C242 C247 1.379 . S
C242 N249 1.356 . S
C243 C242 1.363 . S
C243 C246 1.363 . S
N244 C246 1.356 . S
N244 H256 0.984 . S
N244 H257 0.985 . S
N245 C247 1.356 . S
N245 H250 0.984 1_565 S
N245 H251 0.985 . S
C246 C240 1.379 1_565 S
C246 C243 1.363 . S
C246 N244 1.356 . S
C247 C241 1.363 1_565 S
C247 C242 1.379 . S
C247 N245 1.356 . S
N248 C240 1.356 . S
N248 H254 0.984 . S
N248 H255 0.984 . S
N249 C242 1.356 . S
N249 H252 0.984 . S
N249 H253 0.985 . S
H250 N245 0.984 1_545 S
H251 N245 0.985 . S
H252 N249 0.984 . S
H253 N249 0.985 . S
H254 N248 0.984 . S
H255 N248 0.984 . S
H256 N244 0.984 . S
H257 N244 0.985 . S
C258 C259 1.363 . S
C258 C264 1.379 . S
C258 N266 1.356 . S
C259 C258 1.363 . S
C259 C265 1.363 . S
C260 C261 1.363 . S
C260 C265 1.379 . S
C260 N267 1.356 . S
C261 C260 1.363 . S
C261 C264 1.363 . S
N262 C264 1.356 1_554 S
N262 H274 0.984 . S
N262 H275 0.985 . S
N263 C265 1.356 . S
N263 H268 0.984 . S
N263 H269 0.985 . S
C264 C258 1.379 . S
C264 C261 1.363 . S
C264 N262 1.356 1_556 S
C265 C259 1.363 . S
C265 C260 1.379 . S
C265 N263 1.356 . S
N266 C258 1.356 . S
N266 H272 0.984 1_556 S
N266 H273 0.984 . S
N267 C260 1.356 . S
N267 H270 0.984 . S
N267 H271 0.985 . S
H268 N263 0.984 . S
H269 N263 0.985 . S
H270 N267 0.984 . S
H271 N267 0.985 . S
H272 N266 0.984 1_554 S
H273 N266 0.984 . S
H274 N262 0.984 . S
H275 N262 0.985 . S
C276 C277 1.363 1_655 S
C276 C282 1.379 . S
C276 N284 1.356 1_655 S
C277 C276 1.363 1_455 S
C277 C283 1.363 . S
C278 C279 1.363 . S
C278 C283 1.379 1_655 S
C278 N285 1.356 . S
C279 C278 1.363 . S
C279 C282 1.363 . S
N280 C282 1.356 . S
N280 H292 0.984 . S
N280 H293 0.985 . S
N281 C283 1.356 . S
N281 H286 0.984 . S
N281 H287 0.985 . S
C282 C276 1.379 . S
C282 C279 1.363 . S
C282 N280 1.356 . S
C283 C277 1.363 . S
C283 C278 1.379 1_455 S
C283 N281 1.356 . S
N284 C276 1.356 1_455 S
N284 H290 0.974 1_455 S
N284 H291 0.996 . S
N285 C278 1.356 . S
N285 H288 0.984 . S
N285 H289 0.985 . S
H286 N281 0.984 . S
H287 N281 0.985 . S
H288 N285 0.984 . S
H289 N285 0.985 . S
H290 N284 0.974 1_655 S
H291 N284 0.996 . S
H292 N280 0.984 . S
H293 N280 0.985 . S
C294 C295 1.363 1_565 S
C294 C300 1.379 . S
C294 N302 1.356 1_565 S
C295 C294 1.363 1_545 S
C295 C301 1.363 . S
C296 C297 1.363 . S
C296 C301 1.379 1_565 S
C296 N303 1.356 . S
C297 C296 1.363 . S
C297 C300 1.363 . S
N298 C300 1.356 . S
N298 H310 0.984 . S
N298 H311 0.985 . S
N299 C301 1.356 . S
N299 H304 0.984 . S
N299 H305 0.985 . S
C300 C294 1.379 . S
C300 C297 1.363 . S
C300 N298 1.356 . S
C301 C295 1.363 . S
C301 C296 1.379 1_545 S
C301 N299 1.356 . S
N302 C294 1.356 1_545 S
N302 H308 0.984 . S
N302 H309 0.984 . S
N303 C296 1.356 . S
N303 H306 0.984 . S
N303 H307 0.985 . S
H304 N299 0.984 . S
H305 N299 0.985 . S
H306 N303 0.984 . S
H307 N303 0.985 . S
H308 N302 0.984 . S
H309 N302 0.984 . S
H310 N298 0.984 . S
H311 N298 0.985 . S
C312 C313 1.363 . S
C312 C318 1.379 . S
C312 N320 1.356 . S
C313 C312 1.363 . S
C313 C319 1.363 . S
C314 C315 1.363 . S
C314 C319 1.379 . S
C314 N321 1.356 . S
C315 C314 1.363 . S
C315 C318 1.363 . S
N316 C318 1.356 . S
N316 H328 0.984 . S
N316 H329 0.985 . S
N317 C319 1.356 . S
N317 H322 0.984 . S
N317 H323 0.985 . S
C318 C312 1.379 . S
C318 C315 1.363 . S
C318 N316 1.356 . S
C319 C313 1.363 . S
C319 C314 1.379 . S
C319 N317 1.356 . S
N320 C312 1.356 . S
N320 H326 0.984 . S
N320 H327 0.984 . S
N321 C314 1.356 . S
N321 H324 0.984 . S
N321 H325 0.985 . S
H322 N317 0.984 . S
H323 N317 0.985 . S
H324 N321 0.984 . S
H325 N321 0.985 . S
H326 N320 0.984 . S
H327 N320 0.984 . S
H328 N316 0.984 . S
H329 N316 0.985 . S
C330 C331 1.363 . S
C330 C336 1.379 . S
C330 N338 1.356 . S
C331 C330 1.363 . S
C331 C337 1.363 . S
C332 C333 1.363 . S
C332 C337 1.379 . S
C332 N339 1.356 . S
C333 C332 1.363 . S
C333 C336 1.363 . S
N334 C336 1.356 . S
N334 H346 0.984 . S
N334 H347 0.985 . S
N335 C337 1.356 1_554 S
N335 H340 0.984 . S
N335 H341 0.985 . S
C336 C330 1.379 . S
C336 C333 1.363 . S
C336 N334 1.356 . S
C337 C331 1.363 . S
C337 C332 1.379 . S
C337 N335 1.356 1_556 S
N338 C330 1.356 . S
N338 H344 0.984 . S
N338 H345 0.984 1_556 S
N339 C332 1.356 . S
N339 H342 0.984 . S
N339 H343 0.985 . S
H340 N335 0.984 . S
H341 N335 0.985 . S
H342 N339 0.984 . S
H343 N339 0.985 . S
H344 N338 0.984 . S
H345 N338 0.984 1_554 S
H346 N334 0.984 . S
H347 N334 0.985 . S
C348 C349 1.363 . S
C348 C354 1.379 . S
C348 N356 1.356 . S
C349 C348 1.363 . S
C349 C355 1.363 . S
C350 C351 1.363 . S
C350 C355 1.379 . S
C350 N357 1.356 . S
C351 C350 1.363 . S
C351 C354 1.363 . S
N352 C354 1.356 . S
N352 H364 0.984 . S
N352 H365 0.985 . S
N353 C355 1.356 . S
N353 H358 0.984 . S
N353 H359 0.985 . S
C354 C348 1.379 . S
C354 C351 1.363 . S
C354 N352 1.356 . S
C355 C349 1.363 . S
C355 C350 1.379 . S
C355 N353 1.356 . S
N356 C348 1.356 . S
N356 H362 0.984 . S
N356 H363 0.984 . S
N357 C350 1.356 . S
N357 H360 0.984 . S
N357 H361 0.985 . S
H358 N353 0.984 . S
H359 N353 0.985 . S
H360 N357 0.984 . S
H361 N357 0.985 . S
H362 N356 0.984 . S
H363 N356 0.984 . S
H364 N352 0.984 . S
H365 N352 0.985 . S
C366 C367 1.363 . S
C366 C372 1.379 . S
C366 N374 1.356 . S
C367 C366 1.363 . S
C367 C373 1.363 . S
C368 C369 1.363 . S
C368 C373 1.379 . S
C368 N375 1.356 . S
C369 C368 1.363 . S
C369 C372 1.363 . S
N370 C372 1.356 . S
N370 H382 0.984 . S
N370 H383 0.985 . S
N371 C373 1.356 . S
N371 H376 0.984 . S
N371 H377 0.985 . S
C372 C366 1.379 . S
C372 C369 1.363 . S
C372 N370 1.356 . S
C373 C367 1.363 . S
C373 C368 1.379 . S
C373 N371 1.356 . S
N374 C366 1.356 . S
N374 H380 0.984 . S
N374 H381 0.984 . S
N375 C368 1.356 . S
N375 H378 0.984 . S
N375 H379 0.985 . S
H376 N371 0.984 . S
H377 N371 0.985 . S
H378 N375 0.984 . S
H379 N375 0.985 . S
H380 N374 0.984 . S
H381 N374 0.984 . S
H382 N370 0.984 . S
H383 N370 0.985 . S
C384 C385 1.363 . S
C384 C390 1.379 1_556 S
C384 N392 1.356 . S
C385 C384 1.363 . S
C385 C391 1.363 . S
C386 C387 1.363 . S
C386 C391 1.379 1_554 S
C386 N393 1.356 . S
C387 C386 1.363 . S
C387 C390 1.363 . S
N388 C390 1.356 . S
N388 H400 0.984 . S
N388 H401 0.985 . S
N389 C391 1.356 . S
N389 H394 0.984 . S
N389 H395 0.985 . S
C390 C384 1.379 1_554 S
C390 C387 1.363 . S
C390 N388 1.356 . S
C391 C385 1.363 . S
C391 C386 1.379 1_556 S
C391 N389 1.356 . S
N392 C384 1.356 . S
N392 H398 0.984 . S
N392 H399 0.984 . S
N393 C386 1.356 . S
N393 H396 0.984 . S
N393 H397 0.985 . S
H394 N389 0.984 . S
H395 N389 0.985 . S
H396 N393 0.984 . S
H397 N393 0.985 . S
H398 N392 0.984 . S
H399 N392 0.984 . S
H400 N388 0.984 . S
H401 N388 0.985 . S
C402 C403 1.363 . S
C402 C408 1.379 . S
C402 N410 1.356 . S
C403 C402 1.363 . S
C403 C409 1.363 . S
C404 C405 1.363 . S
C404 C409 1.379 . S
C404 N411 1.356 1_554 S
C405 C404 1.363 . S
C405 C408 1.363 . S
N406 C408 1.356 . S
N406 H418 0.984 . S
N406 H419 0.985 1_554 S
N407 C409 1.356 . S
N407 H412 0.984 . S
N407 H413 0.985 . S
C408 C402 1.379 . S
C408 C405 1.363 . S
C408 N406 1.356 . S
C409 C403 1.363 . S
C409 C404 1.379 . S
C409 N407 1.356 . S
N410 C402 1.356 . S
N410 H416 0.984 . S
N410 H417 0.984 . S
N411 C404 1.356 1_556 S
N411 H414 0.984 . S
N411 H415 0.985 . S
H412 N407 0.984 . S
H413 N407 0.985 . S
H414 N411 0.984 . S
H415 N411 0.985 . S
H416 N410 0.984 . S
H417 N410 0.984 . S
H418 N406 0.984 . S
H419 N406 0.985 1_556 S
C420 C421 1.363 . S
C420 C426 1.379 . S
C420 N428 1.356 . S
C421 C420 1.363 . S
C421 C427 1.363 . S
C422 C423 1.363 . S
C422 C427 1.379 . S
C422 N429 1.356 . S
C423 C422 1.363 . S
C423 C426 1.363 . S
N424 C426 1.356 . S
N424 H436 0.984 . S
N424 H437 0.985 . S
N425 C427 1.356 . S
N425 H430 0.984 . S
N425 H431 0.985 . S
C426 C420 1.379 . S
C426 C423 1.363 . S
C426 N424 1.356 . S
C427 C421 1.363 . S
C427 C422 1.379 . S
C427 N425 1.356 . S
N428 C420 1.356 . S
N428 H434 0.984 . S
N428 H435 0.984 . S
N429 C422 1.356 . S
N429 H432 0.984 . S
N429 H433 0.985 . S
H430 N425 0.984 . S
H431 N425 0.985 . S
H432 N429 0.984 . S
H433 N429 0.985 . S
H434 N428 0.984 . S
H435 N428 0.984 . S
H436 N424 0.984 . S
H437 N424 0.985 . S
C438 C439 1.363 . S
C438 C444 1.379 . S
C438 N446 1.356 . S
C439 C438 1.363 . S
C439 C445 1.363 . S
C440 C441 1.363 . S
C440 C445 1.379 . S
C440 N447 1.356 . S
C441 C440 1.363 . S
C441 C444 1.363 . S
N442 C444 1.356 . S
N442 H454 0.984 . S
N442 H455 0.985 . S
N443 C445 1.356 . S
N443 H448 0.984 . S
N443 H449 0.985 . S
C444 C438 1.379 . S
C444 C441 1.363 . S
C444 N442 1.356 . S
C445 C439 1.363 . S
C445 C440 1.379 . S
C445 N443 1.356 . S
N446 C438 1.356 . S
N446 H452 0.984 . S
N446 H453 0.984 . S
N447 C440 1.356 . S
N447 H450 0.984 . S
N447 H451 0.985 . S
H448 N443 0.984 . S
H449 N443 0.985 . S
H450 N447 0.984 . S
H451 N447 0.985 . S
H452 N446 0.984 . S
H453 N446 0.984 . S
H454 N442 0.984 . S
H455 N442 0.985 . S
C456 C457 1.363 . S
C456 C462 1.379 1_554 S
C456 N464 1.356 . S
C457 C456 1.363 . S
C457 C463 1.363 . S
C458 C459 1.363 1_554 S
C458 C463 1.379 . S
C458 N465 1.356 . S
C459 C458 1.363 1_556 S
C459 C462 1.363 . S
N460 C462 1.356 . S
N460 H472 0.984 . S
N460 H473 0.985 . S
N461 C463 1.356 . S
N461 H466 0.984 . S
N461 H467 0.985 . S
C462 C456 1.379 1_556 S
C462 C459 1.363 . S
C462 N460 1.356 . S
C463 C457 1.363 . S
C463 C458 1.379 . S
C463 N461 1.356 . S
N464 C456 1.356 . S
N464 H470 0.984 . S
N464 H471 0.984 . S
N465 C458 1.356 . S
N465 H468 0.984 1_554 S
N465 H469 0.985 . S
H466 N461 0.984 . S
H467 N461 0.985 . S
H468 N465 0.984 1_556 S
H469 N465 0.985 . S
H470 N464 0.984 . S
H471 N464 0.984 . S
H472 N460 0.984 . S
H473 N460 0.985 . S
C474 C475 1.363 . S
C474 C480 1.379 . S
C474 N482 1.356 . S
C475 C474 1.363 . S
C475 C481 1.363 . S
C476 C477 1.363 . S
C476 C481 1.379 . S
C476 N483 1.356 . S
C477 C476 1.363 . S
C477 C480 1.363 . S
N478 C480 1.356 1_556 S
N478 H490 0.984 . S
N478 H491 0.985 . S
N479 C481 1.356 . S
N479 H484 0.984 . S
N479 H485 0.985 . S
C480 C474 1.379 . S
C480 C477 1.363 . S
C480 N478 1.356 1_554 S
C481 C475 1.363 . S
C481 C476 1.379 . S
C481 N479 1.356 . S
N482 C474 1.356 . S
N482 H488 0.984 1_554 S
N482 H489 0.984 . S
N483 C476 1.356 . S
N483 H486 0.984 . S
N483 H487 0.985 . S
H484 N479 0.984 . S
H485 N479 0.985 . S
H486 N483 0.984 . S
H487 N483 0.985 . S
H488 N482 0.984 1_556 S
H489 N482 0.984 . S
H490 N478 0.984 . S
H491 N478 0.985 . S
C492 C493 1.363 . S
C492 C498 1.379 . S
C492 N500 1.356 . S
C493 C492 1.363 . S
C493 C499 1.363 . S
C494 C495 1.363 . S
C494 C499 1.379 . S
C494 N501 1.356 . S
C495 C494 1.363 . S
C495 C498 1.363 . S
N496 C498 1.356 . S
N496 H508 0.984 . S
N496 H509 0.985 . S
N497 C499 1.356 . S
N497 H502 0.984 . S
N497 H503 0.985 . S
C498 C492 1.379 . S
C498 C495 1.363 . S
C498 N496 1.356 . S
C499 C493 1.363 . S
C499 C494 1.379 . S
C499 N497 1.356 . S
N500 C492 1.356 . S
N500 H506 0.984 . S
N500 H507 0.984 . S
N501 C494 1.356 . S
N501 H504 0.984 . S
N501 H505 0.985 . S
H502 N497 0.984 . S
H503 N497 0.985 . S
H504 N501 0.984 . S
H505 N501 0.985 . S
H506 N500 0.984 . S
H507 N500 0.984 . S
H508 N496 0.984 . S
H509 N496 0.985 . S
C510 C511 1.363 . S
C510 C516 1.379 . S
C510 N518 1.356 . S
C511 C510 1.363 . S
C511 C517 1.363 . S
C512 C513 1.363 . S
C512 C517 1.379 . S
C512 N519 1.356 . S
C513 C512 1.363 . S
C513 C516 1.363 . S
N514 C516 1.356 . S
N514 H526 0.984 . S
N514 H527 0.985 . S
N515 C517 1.356 . S
N515 H520 0.984 . S
N515 H521 0.985 1_556 S
C516 C510 1.379 . S
C516 C513 1.363 . S
C516 N514 1.356 . S
C517 C511 1.363 . S
C517 C512 1.379 . S
C517 N515 1.356 . S
N518 C510 1.356 . S
N518 H524 0.984 . S
N518 H525 0.984 . S
N519 C512 1.356 . S
N519 H522 0.984 . S
N519 H523 0.985 . S
H520 N515 0.984 . S
H521 N515 0.985 1_554 S
H522 N519 0.984 . S
H523 N519 0.985 . S
H524 N518 0.984 . S
H525 N518 0.984 . S
H526 N514 0.984 . S
H527 N514 0.985 . S
C205 C174 1.601 . S
C207 C4 1.601 1_556 S
C223 C17 1.751 . S
C225 C51 1.751 . S
C241 C38 1.601 . S
C243 C72 1.601 . S
C259 C85 1.751 . S
C261 C119 1.751 . S
C277 C140 1.601 . S
C279 C106 1.601 . S
C295 C187 1.751 . S
C297 C153 1.751 . S
C313 C0 1.109 . S
C315 C29 1.109 . S
C331 C63 1.109 1_556 S
C333 C34 1.109 . S
C349 C68 1.109 . S
C351 C97 1.109 . S
C367 C131 1.109 . S
C369 C102 1.109 . S
C385 C165 1.109 . S
C387 C136 1.109 . S
C403 C199 1.109 . S
C405 C170 1.109 1_554 S
C421 C13 1.798 . S
C423 C144 1.893 . S
C439 C42 1.893 . S
C441 C183 1.798 . S
C457 C8 1.893 . S
C459 C81 1.798 . S
C475 C47 1.798 . S
C477 C110 1.892 . S
C493 C149 1.798 . S
C495 C76 1.893 . S
C511 C115 1.798 . S
C513 C178 1.893 . S
