# Generated by pormake.
# Topology vck, (7)-cn, num edge types: 1
# Building blocks:
#     Node 0, Type 0, BuildingBlock: NUHQUE_clean_sbu_2, # of connection points: 7
#     Node 1, Type 0, BuildingBlock: NUHQUE_clean_sbu_2, # of connection points: 7
#     Node 2, Type 0, BuildingBlock: NUHQUE_clean_sbu_2, # of connection points: 7
#     Node 3, Type 0, BuildingBlock: NUHQUE_clean_sbu_2, # of connection points: 7
#     Node 4, Type 0, BuildingBlock: NUHQUE_clean_sbu_2, # of connection points: 7
#     Node 5, Type 0, BuildingBlock: NUHQUE_clean_sbu_2, # of connection points: 7
#     Node 6, Type 0, BuildingBlock: NUHQUE_clean_sbu_2, # of connection points: 7
#     Node 7, Type 0, BuildingBlock: NUHQUE_clean_sbu_2, # of connection points: 7
#     Node 8, Type 0, BuildingBlock: NUHQUE_clean_sbu_2, # of connection points: 7
#     Node 9, Type 0, BuildingBlock: NUHQUE_clean_sbu_2, # of connection points: 7
#     Node 10, Type 0, BuildingBlock: NUHQUE_clean_sbu_2, # of connection points: 7
#     Node 11, Type 0, BuildingBlock: NUHQUE_clean_sbu_2, # of connection points: 7
#     Node 12, Type 0, BuildingBlock: NUHQUE_clean_sbu_2, # of connection points: 7
#     Node 13, Type 0, BuildingBlock: NUHQUE_clean_sbu_2, # of connection points: 7
#     Node 14, Type 0, BuildingBlock: NUHQUE_clean_sbu_2, # of connection points: 7
#     Node 15, Type 0, BuildingBlock: NUHQUE_clean_sbu_2, # of connection points: 7
#     Edge 16, Type (0, 0), BuildingBlock: ZUJKAS_clean_linker_0, # of connection points: 2
#     Edge 17, Type (0, 0), BuildingBlock: ZUJKAS_clean_linker_0, # of connection points: 2
#     Edge 18, Type (0, 0), BuildingBlock: ZUJKAS_clean_linker_0, # of connection points: 2
#     Edge 19, Type (0, 0), BuildingBlock: ZUJKAS_clean_linker_0, # of connection points: 2
#     Edge 20, Type (0, 0), BuildingBlock: ZUJKAS_clean_linker_0, # of connection points: 2
#     Edge 21, Type (0, 0), BuildingBlock: ZUJKAS_clean_linker_0, # of connection points: 2
#     Edge 22, Type (0, 0), BuildingBlock: ZUJKAS_clean_linker_0, # of connection points: 2
#     Edge 23, Type (0, 0), BuildingBlock: ZUJKAS_clean_linker_0, # of connection points: 2
#     Edge 24, Type (0, 0), BuildingBlock: ZUJKAS_clean_linker_0, # of connection points: 2
#     Edge 25, Type (0, 0), BuildingBlock: ZUJKAS_clean_linker_0, # of connection points: 2
#     Edge 26, Type (0, 0), BuildingBlock: ZUJKAS_clean_linker_0, # of connection points: 2
#     Edge 27, Type (0, 0), BuildingBlock: ZUJKAS_clean_linker_0, # of connection points: 2
#     Edge 28, Type (0, 0), BuildingBlock: ZUJKAS_clean_linker_0, # of connection points: 2
#     Edge 29, Type (0, 0), BuildingBlock: ZUJKAS_clean_linker_0, # of connection points: 2
#     Edge 30, Type (0, 0), BuildingBlock: ZUJKAS_clean_linker_0, # of connection points: 2
#     Edge 31, Type (0, 0), BuildingBlock: ZUJKAS_clean_linker_0, # of connection points: 2
#     Edge 32, Type (0, 0), BuildingBlock: ZUJKAS_clean_linker_0, # of connection points: 2
#     Edge 33, Type (0, 0), BuildingBlock: ZUJKAS_clean_linker_0, # of connection points: 2
#     Edge 34, Type (0, 0), BuildingBlock: ZUJKAS_clean_linker_0, # of connection points: 2
#     Edge 35, Type (0, 0), BuildingBlock: ZUJKAS_clean_linker_0, # of connection points: 2
#     Edge 36, Type (0, 0), BuildingBlock: ZUJKAS_clean_linker_0, # of connection points: 2
#     Edge 37, Type (0, 0), BuildingBlock: ZUJKAS_clean_linker_0, # of connection points: 2
#     Edge 38, Type (0, 0), BuildingBlock: ZUJKAS_clean_linker_0, # of connection points: 2
#     Edge 39, Type (0, 0), BuildingBlock: ZUJKAS_clean_linker_0, # of connection points: 2
#     Edge 40, Type (0, 0), BuildingBlock: ZUJKAS_clean_linker_0, # of connection points: 2
#     Edge 41, Type (0, 0), BuildingBlock: ZUJKAS_clean_linker_0, # of connection points: 2
#     Edge 42, Type (0, 0), BuildingBlock: ZUJKAS_clean_linker_0, # of connection points: 2
#     Edge 43, Type (0, 0), BuildingBlock: ZUJKAS_clean_linker_0, # of connection points: 2
#     Edge 44, Type (0, 0), BuildingBlock: ZUJKAS_clean_linker_0, # of connection points: 2
#     Edge 45, Type (0, 0), BuildingBlock: ZUJKAS_clean_linker_0, # of connection points: 2
#     Edge 46, Type (0, 0), BuildingBlock: ZUJKAS_clean_linker_0, # of connection points: 2
#     Edge 47, Type (0, 0), BuildingBlock: ZUJKAS_clean_linker_0, # of connection points: 2
#     Edge 48, Type (0, 0), BuildingBlock: ZUJKAS_clean_linker_0, # of connection points: 2
#     Edge 49, Type (0, 0), BuildingBlock: ZUJKAS_clean_linker_0, # of connection points: 2
#     Edge 50, Type (0, 0), BuildingBlock: ZUJKAS_clean_linker_0, # of connection points: 2
#     Edge 51, Type (0, 0), BuildingBlock: ZUJKAS_clean_linker_0, # of connection points: 2
#     Edge 52, Type (0, 0), BuildingBlock: ZUJKAS_clean_linker_0, # of connection points: 2
#     Edge 53, Type (0, 0), BuildingBlock: ZUJKAS_clean_linker_0, # of connection points: 2
#     Edge 54, Type (0, 0), BuildingBlock: ZUJKAS_clean_linker_0, # of connection points: 2
#     Edge 55, Type (0, 0), BuildingBlock: ZUJKAS_clean_linker_0, # of connection points: 2
#     Edge 56, Type (0, 0), BuildingBlock: ZUJKAS_clean_linker_0, # of connection points: 2
#     Edge 57, Type (0, 0), BuildingBlock: ZUJKAS_clean_linker_0, # of connection points: 2
#     Edge 58, Type (0, 0), BuildingBlock: ZUJKAS_clean_linker_0, # of connection points: 2
#     Edge 59, Type (0, 0), BuildingBlock: ZUJKAS_clean_linker_0, # of connection points: 2
#     Edge 60, Type (0, 0), BuildingBlock: ZUJKAS_clean_linker_0, # of connection points: 2
#     Edge 61, Type (0, 0), BuildingBlock: ZUJKAS_clean_linker_0, # of connection points: 2
#     Edge 62, Type (0, 0), BuildingBlock: ZUJKAS_clean_linker_0, # of connection points: 2
#     Edge 63, Type (0, 0), BuildingBlock: ZUJKAS_clean_linker_0, # of connection points: 2
#     Edge 64, Type (0, 0), BuildingBlock: ZUJKAS_clean_linker_0, # of connection points: 2
#     Edge 65, Type (0, 0), BuildingBlock: ZUJKAS_clean_linker_0, # of connection points: 2
#     Edge 66, Type (0, 0), BuildingBlock: ZUJKAS_clean_linker_0, # of connection points: 2
#     Edge 67, Type (0, 0), BuildingBlock: ZUJKAS_clean_linker_0, # of connection points: 2
#     Edge 68, Type (0, 0), BuildingBlock: ZUJKAS_clean_linker_0, # of connection points: 2
#     Edge 69, Type (0, 0), BuildingBlock: ZUJKAS_clean_linker_0, # of connection points: 2
#     Edge 70, Type (0, 0), BuildingBlock: ZUJKAS_clean_linker_0, # of connection points: 2
#     Edge 71, Type (0, 0), BuildingBlock: ZUJKAS_clean_linker_0, # of connection points: 2
# Relax obj value: 0.174
# Max RMSD: 0.201
# Mean RMSD: 0.201
data_MOF--net-vck--node1-NUHQUE_clean_sbu_2--edge1-ZUJKAS_clean_linker_0
_symmetry_space_group_name_H-M    P1
_symmetry_Int_Tables_number       1
_symmetry_cell_setting            triclinic
loop_
_symmetry_equiv_pos_as_xyz
'x, y, z'
_cell_length_a     91.6945
_cell_length_b     62.56043
_cell_length_c     25.909878
_cell_angle_alpha  89.986851
_cell_angle_beta   90.001112
_cell_angle_gamma 89.949089
loop_
_atom_site_label
_atom_site_type_symbol
_atom_site_fract_x
_atom_site_fract_y
_atom_site_fract_z
_atom_type_partial_charge
O0 O 0.55264 0.15264 0.12494 0.0
Tb1 Tb 0.56502 0.12313 0.131 0.0
Eu2 Eu 0.5644 0.13348 0.99609 0.0
C3 C 0.55705 0.16855 0.1543 0.0
O4 O 0.56885 0.16583 0.1823 0.0
C5 C 0.58628 0.15405 0.07999 0.0
O6 O 0.57911 0.10491 0.98487 0.0
C7 C 0.55819 0.15158 0.90825 0.0
C8 C 0.57435 0.08895 0.95637 0.0
O9 O 0.56128 0.09038 0.93585 0.0
C10 C 0.54674 0.097 0.05328 0.0
C11 C 0.54993 0.15117 0.85891 0.0
C12 C 0.53863 0.16617 0.85168 0.0
C13 C 0.53159 0.16822 0.80377 0.0
C14 C 0.53576 0.15478 0.76314 0.0
C15 C 0.54717 0.14001 0.76888 0.0
C16 C 0.55432 0.13831 0.81682 0.0
O17 O 0.58578 0.13632 0.10709 0.0
O18 O 0.57651 0.15797 0.04395 0.0
O19 O 0.57641 0.1133 0.20186 0.0
O20 O 0.55368 0.11943 0.20468 0.0
C21 C 0.565 0.11397 0.2318 0.0
O22 O 0.54515 0.11396 0.0236 0.0
O23 O 0.55744 0.09582 0.08698 0.0
O24 O 0.56924 0.13844 0.91449 0.0
O25 O 0.55089 0.15521 0.9511 0.0
H26 H 0.5356 0.17677 0.883 0.0
H27 H 0.53078 0.15685 0.72549 0.0
H28 H 0.56343 0.12739 0.82082 0.0
O29 O 0.44672 0.86036 0.12914 0.0
Tb30 Tb 0.43282 0.88833 0.13623 0.0
Eu31 Eu 0.43389 0.87815 1.00057 0.0
C32 C 0.44264 0.8426 0.15216 0.0
O33 O 0.42999 0.84196 0.17583 0.0
C34 C 0.4122 0.85648 0.08354 0.0
O35 O 0.41956 0.90712 0.98937 0.0
C36 C 0.4405 0.86053 0.91254 0.0
C37 C 0.42425 0.92229 0.9583 0.0
O38 O 0.43689 0.91971 0.93524 0.0
C39 C 0.45084 0.91502 0.05874 0.0
C40 C 0.44842 0.86098 0.86249 0.0
C41 C 0.45972 0.84605 0.85469 0.0
C42 C 0.46645 0.84385 0.8063 0.0
C43 C 0.46195 0.85705 0.76565 0.0
C44 C 0.45059 0.87188 0.77193 0.0
C45 C 0.44375 0.87372 0.82051 0.0
O46 O 0.41243 0.87398 0.1116 0.0
O47 O 0.42206 0.8531 0.04755 0.0
O48 O 0.44349 0.89169 0.21139 0.0
O49 O 0.42084 0.89793 0.20607 0.0
C50 C 0.43194 0.89711 0.23734 0.0
O51 O 0.45278 0.8979 0.02983 0.0
O52 O 0.44017 0.91596 0.0927 0.0
O53 O 0.42901 0.87282 0.91907 0.0
O54 O 0.44812 0.85764 0.95503 0.0
H55 H 0.46301 0.83563 0.88605 0.0
H56 H 0.46669 0.85479 0.7277 0.0
H57 H 0.43469 0.88469 0.82517 0.0
O58 O 0.69439 0.402 0.38033 0.0
Tb59 Tb 0.68227 0.37239 0.38932 0.0
Eu60 Eu 0.68204 0.38156 0.25187 0.0
C61 C 0.68983 0.41832 0.40812 0.0
O62 O 0.67798 0.41589 0.436 0.0
C63 C 0.66017 0.40205 0.33729 0.0
O64 O 0.66791 0.35333 0.23023 0.0
C65 C 0.68918 0.40138 0.16717 0.0
C66 C 0.66102 0.34119 0.26373 0.0
O67 O 0.66161 0.34584 0.31305 0.0
C68 C 0.69987 0.34502 0.31056 0.0
C69 C 0.69702 0.40108 0.11706 0.0
C70 C 0.70784 0.41662 0.10831 0.0
C71 C 0.71453 0.41859 0.05982 0.0
C72 C 0.71051 0.40461 0.02013 0.0
C73 C 0.69946 0.38942 0.02725 0.0
C74 C 0.69266 0.3877 0.07584 0.0
O75 O 0.66122 0.3851 0.36694 0.0
O76 O 0.66965 0.40568 0.30016 0.0
O77 O 0.69352 0.37148 0.46372 0.0
O78 O 0.67146 0.36148 0.46037 0.0
C79 C 0.6826 0.3644 0.49073 0.0
O80 O 0.70116 0.36159 0.27946 0.0
O81 O 0.69003 0.34456 0.34748 0.0
O82 O 0.67731 0.38982 0.17205 0.0
O83 O 0.6969 0.40258 0.20988 0.0
H84 H 0.71074 0.42768 0.13885 0.0
H85 H 0.71524 0.40665 0.98206 0.0
H86 H 0.68384 0.37639 0.08096 0.0
O87 O 0.30075 0.60666 0.36901 0.0
Tb88 Tb 0.31561 0.63334 0.38146 0.0
Eu89 Eu 0.3154 0.62771 0.24294 0.0
C90 C 0.30529 0.58725 0.38066 0.0
O91 O 0.31896 0.58459 0.39431 0.0
C92 C 0.33857 0.60809 0.32305 0.0
O93 O 0.32989 0.6558 0.22324 0.0
C94 C 0.30836 0.6082 0.15775 0.0
C95 C 0.33432 0.67 0.25724 0.0
O96 O 0.33087 0.66755 0.30602 0.0
C97 C 0.29515 0.66087 0.30859 0.0
C98 C 0.29991 0.60766 0.10886 0.0
C99 C 0.28792 0.59366 0.1048 0.0
C100 C 0.28107 0.59012 0.05706 0.0
C101 C 0.28631 0.60071 0.01322 0.0
C102 C 0.29849 0.61416 0.01585 0.0
C103 C 0.30512 0.61796 0.06393 0.0
O104 O 0.33704 0.62496 0.35255 0.0
O105 O 0.32872 0.60368 0.28784 0.0
O106 O 0.31353 0.6214 0.46044 0.0
O107 O 0.32085 0.6531 0.44934 0.0
C108 C 0.3178 0.63863 0.48371 0.0
O109 O 0.29585 0.64674 0.27077 0.0
O110 O 0.30377 0.66028 0.34929 0.0
O111 O 0.31939 0.62149 0.16155 0.0
O112 O 0.30143 0.60526 0.20165 0.0
H113 H 0.28423 0.58487 0.13842 0.0
H114 H 0.2814 0.59746 0.97594 0.0
H115 H 0.31482 0.62781 0.0656 0.0
O116 O 0.55216 0.65117 0.6262 0.0
Tb117 Tb 0.56432 0.62147 0.63272 0.0
Eu118 Eu 0.56389 0.63167 0.49776 0.0
C119 C 0.55675 0.66719 0.65486 0.0
O120 O 0.56864 0.66447 0.68246 0.0
C121 C 0.58581 0.65214 0.5813 0.0
O122 O 0.57794 0.60223 0.49025 0.0
C123 C 0.55872 0.64881 0.40793 0.0
C124 C 0.57353 0.58692 0.45913 0.0
O125 O 0.56124 0.58953 0.43382 0.0
C126 C 0.54547 0.59602 0.55456 0.0
C127 C 0.55099 0.64759 0.35759 0.0
C128 C 0.54045 0.66333 0.34625 0.0
C129 C 0.53364 0.66424 0.29759 0.0
C130 C 0.53715 0.64848 0.26105 0.0
C131 C 0.54829 0.63357 0.26998 0.0
C132 C 0.55522 0.63312 0.31847 0.0
O133 O 0.58516 0.63461 0.60919 0.0
O134 O 0.57597 0.65615 0.54557 0.0
O135 O 0.55336 0.62006 0.7076 0.0
O136 O 0.57526 0.60947 0.7026 0.0
C137 C 0.56427 0.61238 0.73368 0.0
O138 O 0.54423 0.613 0.52477 0.0
O139 O 0.55598 0.59452 0.58901 0.0
O140 O 0.56974 0.63585 0.41672 0.0
O141 O 0.55091 0.65286 0.4494 0.0
H142 H 0.53818 0.67556 0.37472 0.0
H143 H 0.53181 0.64853 0.22376 0.0
H144 H 0.56403 0.62191 0.32509 0.0
O145 O 0.44352 0.35925 0.6242 0.0
Tb146 Tb 0.43075 0.38844 0.62988 0.0
Eu147 Eu 0.43225 0.37765 0.49596 0.0
C148 C 0.43918 0.34301 0.65264 0.0
O149 O 0.42706 0.34507 0.67926 0.0
C150 C 0.41004 0.35691 0.57807 0.0
O151 O 0.41825 0.40703 0.48577 0.0
C152 C 0.43815 0.35974 0.40767 0.0
C153 C 0.42297 0.42214 0.45462 0.0
O154 O 0.43546 0.41927 0.43069 0.0
C155 C 0.44992 0.414 0.55307 0.0
C156 C 0.44569 0.35951 0.35682 0.0
C157 C 0.45775 0.34577 0.35022 0.0
C158 C 0.46385 0.34232 0.30121 0.0
C159 C 0.45782 0.35282 0.25853 0.0
C160 C 0.44561 0.36614 0.26363 0.0
C161 C 0.43967 0.36977 0.31303 0.0
O162 O 0.41021 0.37466 0.60518 0.0
O163 O 0.42026 0.35301 0.54369 0.0
O164 O 0.4412 0.38964 0.70567 0.0
O165 O 0.41939 0.40051 0.69885 0.0
C166 C 0.43015 0.39741 0.73085 0.0
O167 O 0.45154 0.39684 0.52407 0.0
O168 O 0.43918 0.41545 0.5866 0.0
O169 O 0.42688 0.37241 0.41477 0.0
O170 O 0.44597 0.35673 0.44967 0.0
H171 H 0.46211 0.3371 0.38303 0.0
H172 H 0.4622 0.34972 0.22036 0.0
H173 H 0.42997 0.37954 0.31677 0.0
O174 O 0.70499 0.89338 0.8935 0.0
Tb175 Tb 0.68668 0.87129 0.89526 0.0
Eu176 Eu 0.68295 0.87933 0.7544 0.0
C177 C 0.70566 0.91076 0.86512 0.0
O178 O 0.69576 0.91423 0.8296 0.0
C179 C 0.66388 0.90481 0.84601 0.0
O180 O 0.66906 0.84998 0.7427 0.0
C181 C 0.68925 0.89775 0.66704 0.0
C182 C 0.6737 0.83481 0.71155 0.0
O183 O 0.68626 0.83733 0.68795 0.0
C184 C 0.70044 0.84345 0.81169 0.0
C185 C 0.69795 0.89808 0.61858 0.0
C186 C 0.70884 0.91379 0.61265 0.0
C187 C 0.71612 0.91646 0.56536 0.0
C188 C 0.71252 0.90307 0.52393 0.0
C189 C 0.70157 0.88752 0.52837 0.0
C190 C 0.69425 0.88512 0.57586 0.0
O191 O 0.66868 0.89348 0.88544 0.0
O192 O 0.66832 0.90235 0.79785 0.0
O193 O 0.67447 0.85989 0.96298 0.0
O194 O 0.69727 0.86428 0.96906 0.0
C195 C 0.68559 0.8588 0.99408 0.0
O196 O 0.70236 0.86021 0.78185 0.0
O197 O 0.69004 0.84353 0.84651 0.0
O198 O 0.67881 0.88351 0.67214 0.0
O199 O 0.69589 0.90227 0.71075 0.0
H200 H 0.71138 0.92438 0.64451 0.0
H201 H 0.71765 0.90571 0.48677 0.0
H202 H 0.68553 0.87352 0.57905 0.0
O203 O 0.29915 0.11275 0.88018 0.0
Tb204 Tb 0.3165 0.13609 0.89008 0.0
Eu205 Eu 0.31512 0.1285 0.75383 0.0
C206 C 0.30203 0.09235 0.88739 0.0
O207 O 0.3156 0.08638 0.89455 0.0
C208 C 0.33828 0.10791 0.8325 0.0
O209 O 0.32878 0.15822 0.74411 0.0
C210 C 0.3092 0.11144 0.66467 0.0
C211 C 0.32302 0.17473 0.72005 0.0
O212 O 0.30957 0.17323 0.70292 0.0
C213 C 0.29651 0.16262 0.81688 0.0
C214 C 0.30151 0.11178 0.61428 0.0
C215 C 0.29195 0.09481 0.60262 0.0
C216 C 0.28598 0.09257 0.55293 0.0
C217 C 0.2891 0.10814 0.51564 0.0
C218 C 0.2989 0.12476 0.5258 0.0
C219 C 0.30519 0.12654 0.57511 0.0
O220 O 0.33743 0.12501 0.86173 0.0
O221 O 0.32818 0.1039 0.79779 0.0
O222 O 0.31563 0.12417 0.96932 0.0
O223 O 0.32011 0.15696 0.95739 0.0
C224 C 0.31833 0.14217 0.99218 0.0
O225 O 0.29549 0.14623 0.78504 0.0
O226 O 0.30683 0.16364 0.85214 0.0
O227 O 0.32015 0.12462 0.67226 0.0
O228 O 0.30161 0.10745 0.70669 0.0
H229 H 0.2899 0.08259 0.63138 0.0
H230 H 0.28451 0.10668 0.47722 0.0
H231 H 0.31317 0.13895 0.58229 0.0
O232 O 0.05261 0.15076 0.62398 0.0
Tb233 Tb 0.06532 0.1215 0.62933 0.0
Eu234 Eu 0.06347 0.13203 0.49568 0.0
C235 C 0.05713 0.16697 0.65217 0.0
O236 O 0.06929 0.16475 0.67849 0.0
C237 C 0.08582 0.15306 0.57685 0.0
O238 O 0.0779 0.10314 0.48486 0.0
C239 C 0.05734 0.15001 0.40768 0.0
C240 C 0.07307 0.08741 0.45579 0.0
O241 O 0.06016 0.08932 0.43429 0.0
C242 C 0.04602 0.09557 0.55358 0.0
C243 C 0.04963 0.15041 0.35719 0.0
C244 C 0.03761 0.16427 0.35119 0.0
C245 C 0.03139 0.16786 0.30244 0.0
C246 C 0.03724 0.15738 0.25946 0.0
C247 C 0.04946 0.14401 0.26393 0.0
C248 C 0.0555 0.14022 0.31308 0.0
O249 O 0.0858 0.13535 0.60412 0.0
O250 O 0.07546 0.15683 0.54289 0.0
O251 O 0.05495 0.12046 0.7052 0.0
O252 O 0.07673 0.10946 0.69822 0.0
C253 C 0.066 0.11266 0.73029 0.0
O254 O 0.04431 0.11256 0.52405 0.0
O255 O 0.05686 0.09432 0.58674 0.0
O256 O 0.06852 0.13714 0.41423 0.0
O257 O 0.0497 0.15314 0.45003 0.0
H258 H 0.03339 0.17292 0.38423 0.0
H259 H 0.03274 0.16056 0.22151 0.0
H260 H 0.06521 0.13041 0.31638 0.0
O261 O 0.94435 0.857 0.63028 0.0
Tb262 Tb 0.93207 0.88663 0.63646 0.0
Eu263 Eu 0.93297 0.87666 0.50222 0.0
C264 C 0.93976 0.841 0.65901 0.0
O265 O 0.92779 0.84368 0.68618 0.0
C266 C 0.9109 0.8558 0.58451 0.0
O267 O 0.91833 0.90545 0.49312 0.0
C268 C 0.93845 0.85909 0.41318 0.0
C269 C 0.92345 0.92222 0.46831 0.0
O270 O 0.93679 0.92142 0.4499 0.0
C271 C 0.95112 0.91244 0.55973 0.0
C272 C 0.94628 0.85933 0.363 0.0
C273 C 0.95688 0.84346 0.35375 0.0
C274 C 0.96343 0.84135 0.30505 0.0
C275 C 0.95951 0.85554 0.26563 0.0
C276 C 0.94868 0.87105 0.27324 0.0
C277 C 0.942 0.87288 0.32202 0.0
O278 O 0.91131 0.87336 0.61232 0.0
O279 O 0.921 0.85193 0.54964 0.0
O280 O 0.94301 0.88807 0.71129 0.0
O281 O 0.92099 0.89819 0.70645 0.0
C282 C 0.93202 0.89543 0.73745 0.0
O283 O 0.95249 0.89552 0.5298 0.0
O284 O 0.94048 0.9138 0.59364 0.0
O285 O 0.92764 0.87256 0.42076 0.0
O286 O 0.946 0.855 0.45523 0.0
H287 H 0.95969 0.83222 0.38403 0.0
H288 H 0.96412 0.85342 0.2274 0.0
H289 H 0.93331 0.88441 0.32746 0.0
O290 O 0.19323 0.39989 0.87974 0.0
Tb291 Tb 0.18074 0.37052 0.88553 0.0
Eu292 Eu 0.1826 0.38059 0.7511 0.0
C293 C 0.18861 0.41606 0.90789 0.0
O294 O 0.17644 0.41375 0.9341 0.0
C295 C 0.16011 0.40169 0.83206 0.0
O296 O 0.16827 0.35163 0.73998 0.0
C297 C 0.18885 0.39832 0.66286 0.0
C298 C 0.17366 0.33518 0.71464 0.0
O299 O 0.18705 0.33642 0.69683 0.0
C300 C 0.20014 0.34455 0.81048 0.0
C301 C 0.19671 0.39805 0.6127 0.0
C302 C 0.20775 0.41332 0.60426 0.0
C303 C 0.21433 0.41554 0.55558 0.0
C304 C 0.20996 0.40203 0.51537 0.0
C305 C 0.19875 0.38707 0.52225 0.0
C306 C 0.19207 0.38516 0.57102 0.0
O307 O 0.16022 0.38411 0.85984 0.0
O308 O 0.17041 0.40538 0.79781 0.0
O309 O 0.19153 0.36926 0.96062 0.0
O310 O 0.16949 0.35928 0.95554 0.0
C311 C 0.18047 0.3621 0.98673 0.0
O312 O 0.20181 0.36146 0.78067 0.0
O313 O 0.18919 0.34327 0.84315 0.0
O314 O 0.17765 0.38553 0.66963 0.0
O315 O 0.19643 0.40161 0.70526 0.0
H316 H 0.21092 0.42401 0.63522 0.0
H317 H 0.21459 0.40424 0.47721 0.0
H318 H 0.1831 0.37408 0.57594 0.0
O319 O 0.80097 0.60892 0.86891 0.0
Tb320 Tb 0.81693 0.6341 0.88178 0.0
Eu321 Eu 0.81475 0.62699 0.74784 0.0
C322 C 0.80476 0.58907 0.87939 0.0
O323 O 0.81833 0.58511 0.89249 0.0
C324 C 0.83899 0.6072 0.82337 0.0
O325 O 0.82847 0.65669 0.73894 0.0
C326 C 0.80842 0.61028 0.65861 0.0
C327 C 0.82267 0.67365 0.71693 0.0
O328 O 0.80908 0.67266 0.70103 0.0
C329 C 0.79569 0.66021 0.81225 0.0
C330 C 0.79953 0.61104 0.61071 0.0
C331 C 0.78795 0.59645 0.60448 0.0
C332 C 0.78052 0.59473 0.55717 0.0
C333 C 0.78456 0.60817 0.51632 0.0
C334 C 0.79625 0.62243 0.52119 0.0
C335 C 0.80378 0.62378 0.56833 0.0
O336 O 0.83801 0.62438 0.85224 0.0
O337 O 0.82869 0.60276 0.78972 0.0
O338 O 0.81548 0.62152 0.96026 0.0
O339 O 0.82103 0.65406 0.95037 0.0
C340 C 0.81874 0.63906 0.9842 0.0
O341 O 0.79491 0.64403 0.77974 0.0
O342 O 0.80613 0.66142 0.84699 0.0
O343 O 0.81876 0.62457 0.66516 0.0
O344 O 0.80194 0.60472 0.7019 0.0
H345 H 0.78503 0.58587 0.63594 0.0
H346 H 0.77933 0.60639 0.47902 0.0
H347 H 0.81315 0.63425 0.57129 0.0
O348 O 0.04903 0.6483 0.12158 0.0
Tb349 Tb 0.0651 0.62319 0.1344 0.0
Eu350 Eu 0.06364 0.6305 0.99983 0.0
C351 C 0.05278 0.66817 0.13193 0.0
O352 O 0.06632 0.67217 0.14515 0.0
C353 C 0.08735 0.64999 0.0774 0.0
O354 O 0.07764 0.60105 0.99046 0.0
C355 C 0.05748 0.6476 0.91086 0.0
C356 C 0.07197 0.58402 0.96839 0.0
O357 O 0.05834 0.58476 0.95282 0.0
C358 C 0.0445 0.59693 0.06271 0.0
C359 C 0.04857 0.64694 0.86301 0.0
C360 C 0.03712 0.66177 0.85678 0.0
C361 C 0.02963 0.66355 0.80961 0.0
C362 C 0.03349 0.64993 0.76888 0.0
C363 C 0.04505 0.63541 0.77374 0.0
C364 C 0.05264 0.634 0.82076 0.0
O365 O 0.08629 0.63251 0.10512 0.0
O366 O 0.07723 0.65461 0.04324 0.0
O367 O 0.06432 0.63586 0.21291 0.0
O368 O 0.0685 0.60288 0.20291 0.0
C369 C 0.06689 0.61805 0.23678 0.0
O370 O 0.04377 0.61323 0.03052 0.0
O371 O 0.05461 0.59584 0.09868 0.0
O372 O 0.06779 0.63323 0.91728 0.0
O373 O 0.05098 0.65307 0.95418 0.0
H374 H 0.03434 0.67249 0.88815 0.0
H375 H 0.0282 0.65174 0.73167 0.0
H376 H 0.06191 0.62332 0.82374 0.0
O377 O 0.94349 0.35871 0.12698 0.0
Tb378 Tb 0.9308 0.38798 0.13251 0.0
Eu379 Eu 0.93284 0.37714 0.99889 0.0
C380 C 0.93898 0.34252 0.15525 0.0
O381 O 0.92689 0.34481 0.18194 0.0
C382 C 0.9104 0.35626 0.0802 0.0
O383 O 0.91885 0.40643 0.98713 0.0
C384 C 0.93917 0.35892 0.91139 0.0
C385 C 0.92361 0.42131 0.95542 0.0
O386 O 0.93612 0.41826 0.9318 0.0
C387 C 0.95 0.4139 0.05644 0.0
C388 C 0.94666 0.35847 0.86049 0.0
C389 C 0.95859 0.34448 0.85396 0.0
C390 C 0.96465 0.34087 0.80495 0.0
C391 C 0.95871 0.35145 0.76225 0.0
C392 C 0.94658 0.36497 0.76724 0.0
C393 C 0.94071 0.36878 0.81665 0.0
O394 O 0.91036 0.37402 0.10726 0.0
O395 O 0.9208 0.35247 0.0464 0.0
O396 O 0.94122 0.38903 0.2083 0.0
O397 O 0.91941 0.39995 0.20152 0.0
C398 C 0.93017 0.39677 0.23351 0.0
O399 O 0.95188 0.39676 0.02758 0.0
O400 O 0.93915 0.41513 0.08954 0.0
O401 O 0.92767 0.3712 0.91788 0.0
O402 O 0.94704 0.35652 0.9535 0.0
H403 H 0.96286 0.33576 0.88682 0.0
H404 H 0.96308 0.34826 0.72412 0.0
H405 H 0.93108 0.37873 0.82037 0.0
O406 O 0.20353 0.89414 0.39362 0.0
Tb407 Tb 0.18576 0.87109 0.39686 0.0
Eu408 Eu 0.18116 0.87832 0.25382 0.0
C409 C 0.20275 0.91283 0.37052 0.0
O410 O 0.19168 0.91709 0.34014 0.0
C411 C 0.16139 0.90213 0.34716 0.0
O412 O 0.16969 0.84774 0.23239 0.0
C413 C 0.18729 0.89891 0.16924 0.0
C414 C 0.16052 0.83781 0.26314 0.0
O415 O 0.1575 0.84607 0.30852 0.0
C416 C 0.1993 0.84336 0.31239 0.0
C417 C 0.1953 0.90022 0.11949 0.0
C418 C 0.20403 0.91835 0.11026 0.0
C419 C 0.2104 0.92188 0.06162 0.0
C420 C 0.20844 0.9065 0.02287 0.0
C421 C 0.19941 0.88868 0.03026 0.0
C422 C 0.19279 0.8856 0.07879 0.0
O423 O 0.16725 0.89231 0.38715 0.0
O424 O 0.16532 0.89912 0.2986 0.0
O425 O 0.19677 0.86408 0.47004 0.0
O426 O 0.17393 0.85985 0.4656 0.0
C427 C 0.18522 0.8587 0.49593 0.0
O428 O 0.20088 0.86007 0.2821 0.0
O429 O 0.18914 0.84333 0.34811 0.0
O430 O 0.17655 0.88512 0.17327 0.0
O431 O 0.19451 0.90179 0.21266 0.0
H432 H 0.20518 0.93031 0.14026 0.0
H433 H 0.21343 0.90894 0.98543 0.0
H434 H 0.18551 0.87216 0.08435 0.0
O435 O 0.80256 0.10953 0.38839 0.0
Tb436 Tb 0.81576 0.13836 0.39032 0.0
Eu437 Eu 0.81439 0.12799 0.254 0.0
C438 C 0.80685 0.09372 0.41831 0.0
O439 O 0.81904 0.09605 0.44441 0.0
C440 C 0.83547 0.10556 0.33749 0.0
O441 O 0.8287 0.1571 0.24493 0.0
C442 C 0.80896 0.11095 0.16441 0.0
C443 C 0.82341 0.17345 0.21892 0.0
O444 O 0.81019 0.17195 0.19963 0.0
C445 C 0.79717 0.16415 0.31246 0.0
C446 C 0.80241 0.11073 0.11201 0.0
C447 C 0.79343 0.09327 0.09905 0.0
C448 C 0.78839 0.09042 0.04836 0.0
C449 C 0.79181 0.10583 1.01114 0.0
C450 C 0.80093 0.12318 0.02251 0.0
C451 C 0.8064 0.12551 0.07312 0.0
O452 O 0.83583 0.12327 0.36477 0.0
O453 O 0.82533 0.1025 0.30231 0.0
O454 O 0.80536 0.14397 0.46517 0.0
O455 O 0.82819 0.14844 0.45877 0.0
C456 C 0.81713 0.14905 0.49029 0.0
O457 O 0.7952 0.14703 0.2837 0.0
O458 O 0.80827 0.16538 0.3446 0.0
O459 O 0.82045 0.1229 0.17354 0.0
O460 O 0.80042 0.10843 0.20477 0.0
H461 H 0.79107 0.08119 0.12788 0.0
H462 H 0.78786 0.10377 0.972 0.0
H463 H 0.81382 0.13848 0.0818 0.0
H464 H 0.52837 0.17536 0.12854 0.0
H465 H 0.51333 0.20632 0.15189 0.0
H466 H 0.55093 0.23694 0.21918 0.0
H467 H 0.5659 0.20602 0.19695 0.0
H468 H 0.52795 0.23658 0.28481 0.0
H469 H 0.51039 0.26628 0.09288 0.0
H470 H 0.50648 0.23851 0.10341 0.0
H471 H 0.52511 0.24738 0.10073 0.0
C472 C 0.53347 0.18888 0.14741 0.0
C473 C 0.54829 0.18822 0.16111 0.0
C474 C 0.52487 0.20659 0.16065 0.0
C475 C 0.53101 0.22402 0.18708 0.0
C476 C 0.54594 0.22367 0.19896 0.0
H477 H 0.48852 0.34614 0.24273 0.0
H478 H 0.50552 0.31773 0.21804 0.0
C479 C 0.55448 0.20598 0.18612 0.0
C480 C 0.52181 0.242 0.2056 0.0
H481 H 0.49844 0.28123 0.16599 0.0
C482 C 0.52154 0.24641 0.25879 0.0
C483 C 0.51358 0.25495 0.17162 0.0
C484 C 0.51398 0.25172 0.11393 0.0
C485 C 0.51316 0.26323 0.27898 0.0
C486 C 0.50456 0.27576 0.24518 0.0
C487 C 0.50496 0.27153 0.19193 0.0
C488 C 0.49504 0.29331 0.26409 0.0
C489 C 0.51378 0.26765 0.33619 0.0
C490 C 0.48364 0.28912 0.29886 0.0
C491 C 0.47397 0.30537 0.31329 0.0
C492 C 0.47543 0.32606 0.2927 0.0
C493 C 0.48711 0.33034 0.25907 0.0
C494 C 0.4968 0.31412 0.24487 0.0
H495 H 0.5238 0.26089 0.35395 0.0
H496 H 0.51343 0.28509 0.34413 0.0
H497 H 0.50424 0.26011 0.35521 0.0
H498 H 0.48189 0.27309 0.31338 0.0
H499 H 0.46493 0.30148 0.33846 0.0
H500 H 0.47113 0.8442 0.18001 0.0
H501 H 0.48672 0.81409 0.20415 0.0
H502 H 0.45254 0.77016 0.16062 0.0
H503 H 0.43655 0.80045 0.14091 0.0
H504 H 0.46258 0.75739 0.24411 0.0
H505 H 0.51093 0.77501 0.12478 0.0
H506 H 0.50721 0.79698 0.16699 0.0
H507 H 0.49418 0.78976 0.11776 0.0
C508 C 0.46711 0.82806 0.17471 0.0
C509 C 0.45276 0.82452 0.15808 0.0
C510 C 0.47605 0.81082 0.18823 0.0
C511 C 0.47101 0.78967 0.18323 0.0
C512 C 0.45676 0.78623 0.1649 0.0
H513 H 0.5304 0.68276 0.20181 0.0
H514 H 0.51438 0.71148 0.17637 0.0
C515 C 0.44765 0.8035 0.15321 0.0
C516 C 0.48017 0.77122 0.20014 0.0
H517 H 0.51446 0.75014 0.1938 0.0
C518 C 0.47388 0.75568 0.23243 0.0
C519 C 0.4949 0.76871 0.18477 0.0
C520 C 0.50212 0.7834 0.14621 0.0
C521 C 0.4818 0.73778 0.24948 0.0
C522 C 0.49675 0.73592 0.23648 0.0
C523 C 0.50306 0.75154 0.20443 0.0
C524 C 0.50594 0.71744 0.25309 0.0
C525 C 0.4738 0.72076 0.27957 0.0
C526 C 0.50663 0.71083 0.30494 0.0
C527 C 0.51529 0.69335 0.31945 0.0
C528 C 0.52391 0.68253 0.28275 0.0
C529 C 0.52355 0.68981 0.23124 0.0
C530 C 0.51454 0.70671 0.21657 0.0
H531 H 0.46191 0.72106 0.27124 0.0
H532 H 0.478 0.70455 0.27052 0.0
H533 H 0.47519 0.72377 0.32148 0.0
H534 H 0.50055 0.71924 0.33442 0.0
H535 H 0.51518 0.68837 0.35945 0.0
H536 H 0.68107 0.45589 0.45059 0.0
H537 H 0.6961 0.4867 0.47268 0.0
H538 H 0.73351 0.45619 0.40362 0.0
H539 H 0.71842 0.4252 0.38082 0.0
H540 H 0.72007 0.4848 0.53801 0.0
H541 H 0.73543 0.51737 0.34609 0.0
H542 H 0.72051 0.49888 0.3547 0.0
H543 H 0.739 0.48934 0.35471 0.0
C544 C 0.69245 0.45582 0.43934 0.0
C545 C 0.69858 0.43804 0.41417 0.0
C546 C 0.70103 0.47346 0.45209 0.0
C547 C 0.71592 0.47378 0.4398 0.0
C548 C 0.72199 0.45641 0.41287 0.0
H549 H 0.7823 0.55267 0.58589 0.0
H550 H 0.76625 0.52338 0.55988 0.0
C551 C 0.71337 0.4387 0.3999 0.0
C552 C 0.72516 0.49165 0.45855 0.0
H553 H 0.74715 0.53253 0.41905 0.0
C554 C 0.72598 0.49526 0.512 0.0
C555 C 0.73276 0.50536 0.42455 0.0
C556 C 0.73183 0.50274 0.36677 0.0
C557 C 0.73426 0.51213 0.5324 0.0
C558 C 0.74208 0.5256 0.49848 0.0
C559 C 0.74119 0.5221 0.445 0.0
C560 C 0.75121 0.54352 0.51761 0.0
C561 C 0.73435 0.51563 0.59002 0.0
C562 C 0.74805 0.56458 0.50277 0.0
C563 C 0.75716 0.58138 0.51782 0.0
C564 C 0.76969 0.57743 0.54772 0.0
C565 C 0.7726 0.55635 0.56374 0.0
C566 C 0.76347 0.53956 0.54869 0.0
H567 H 0.72508 0.50743 0.60921 0.0
H568 H 0.74462 0.5091 0.60635 0.0
H569 H 0.73385 0.53294 0.59937 0.0
H570 H 0.73863 0.56799 0.47889 0.0
H571 H 0.75456 0.59743 0.50513 0.0
H572 H 0.27565 0.58938 0.39493 0.0
H573 H 0.25972 0.56044 0.42501 0.0
H574 H 0.29561 0.51605 0.41472 0.0
H575 H 0.31161 0.54486 0.38589 0.0
H576 H 0.25134 0.52085 0.38715 0.0
H577 H 0.28405 0.51123 0.56565 0.0
H578 H 0.28634 0.53365 0.52259 0.0
H579 H 0.29466 0.5083 0.50789 0.0
C580 C 0.28006 0.57337 0.3982 0.0
C581 C 0.29492 0.56944 0.38867 0.0
C582 C 0.27097 0.55687 0.41563 0.0
C583 C 0.27659 0.53623 0.4236 0.0
C584 C 0.29115 0.53199 0.41041 0.0
H585 H 0.24004 0.41366 0.50225 0.0
H586 H 0.255 0.44374 0.47263 0.0
C587 C 0.30025 0.54845 0.3935 0.0
C588 C 0.26747 0.51927 0.44745 0.0
H589 H 0.26619 0.48441 0.54912 0.0
C590 C 0.25453 0.513 0.42273 0.0
C591 C 0.27156 0.50917 0.49428 0.0
C592 C 0.28483 0.51606 0.52446 0.0
C593 C 0.24585 0.49645 0.44276 0.0
C594 C 0.25022 0.48597 0.48852 0.0
C595 C 0.26297 0.49244 0.51381 0.0
C596 C 0.2418 0.46786 0.50987 0.0
C597 C 0.23216 0.48991 0.41466 0.0
C598 C 0.22968 0.47154 0.54168 0.0
C599 C 0.22116 0.4544 0.55888 0.0
C600 C 0.2246 0.43333 0.54428 0.0
C601 C 0.23709 0.42972 0.51391 0.0
C602 C 0.24563 0.44684 0.49697 0.0
H603 H 0.23041 0.49933 0.37883 0.0
H604 H 0.23275 0.47269 0.40452 0.0
H605 H 0.22259 0.49212 0.44037 0.0
H606 H 0.22661 0.4877 0.55203 0.0
H607 H 0.21151 0.45773 0.58162 0.0
H608 H 0.46495 0.80191 0.83597 0.0
H609 H 0.48097 0.77259 0.8095 0.0
H610 H 0.50789 0.81704 0.72526 0.0
H611 H 0.49194 0.84646 0.75171 0.0
H612 H 0.49962 0.78156 0.6671 0.0
H613 H 0.5222 0.75697 0.85686 0.0
H614 H 0.50264 0.75819 0.85474 0.0
H615 H 0.51311 0.78227 0.84718 0.0
C616 C 0.47448 0.80553 0.8129 0.0
C617 C 0.47719 0.82653 0.79605 0.0
C618 C 0.4836 0.78874 0.79764 0.0
C619 C 0.49567 0.79265 0.76563 0.0
C620 C 0.49862 0.81366 0.74988 0.0
H621 H 0.56566 0.70442 0.69859 0.0
H622 H 0.55076 0.73537 0.72106 0.0
C623 C 0.48951 0.83044 0.76505 0.0
C624 C 0.50482 0.77474 0.7465 0.0
H625 H 0.52695 0.734 0.78592 0.0
C626 C 0.50565 0.77119 0.69303 0.0
C627 C 0.51273 0.76134 0.78037 0.0
C628 C 0.51277 0.76494 0.83796 0.0
C629 C 0.51409 0.75445 0.67254 0.0
C630 C 0.52174 0.74076 0.70651 0.0
C631 C 0.52099 0.74444 0.75994 0.0
C632 C 0.53091 0.72281 0.68773 0.0
C633 C 0.51496 0.75182 0.61475 0.0
C634 C 0.52476 0.7056 0.66049 0.0
C635 C 0.53331 0.68783 0.64725 0.0
C636 C 0.54808 0.68694 0.66163 0.0
C637 C 0.55428 0.70454 0.68726 0.0
C638 C 0.54578 0.72225 0.70022 0.0
H639 H 0.51149 0.76655 0.59414 0.0
H640 H 0.52623 0.74771 0.60255 0.0
H641 H 0.50764 0.73862 0.6027 0.0
H642 H 0.51326 0.70554 0.65113 0.0
H643 H 0.52821 0.67446 0.62782 0.0
H644 H 0.43141 0.30572 0.69896 0.0
H645 H 0.44722 0.27596 0.72304 0.0
H646 H 0.48371 0.30714 0.64998 0.0
H647 H 0.46784 0.33708 0.62508 0.0
H648 H 0.48236 0.26253 0.63182 0.0
H649 H 0.4772 0.28141 0.84019 0.0
H650 H 0.46002 0.2779 0.80805 0.0
H651 H 0.47166 0.2998 0.79018 0.0
C652 C 0.44277 0.30622 0.68756 0.0
C653 C 0.44843 0.32389 0.66064 0.0
C654 C 0.45181 0.28922 0.70163 0.0
C655 C 0.4667 0.2896 0.68946 0.0
C656 C 0.47225 0.30666 0.66019 0.0
H657 H 0.53369 0.21027 0.83205 0.0
H658 H 0.51796 0.23987 0.80497 0.0
C659 C 0.46318 0.32371 0.64588 0.0
C660 C 0.47646 0.27241 0.70858 0.0
H661 H 0.48847 0.24828 0.81905 0.0
C662 C 0.48376 0.25945 0.67272 0.0
C663 C 0.47844 0.26864 0.76202 0.0
C664 C 0.47154 0.28278 0.80241 0.0
C665 C 0.49269 0.24245 0.68888 0.0
C666 C 0.49415 0.23811 0.74229 0.0
C667 C 0.48717 0.25144 0.77814 0.0
C668 C 0.50304 0.21997 0.76169 0.0
C669 C 0.50061 0.22944 0.64863 0.0
C670 C 0.49955 0.19888 0.74802 0.0
C671 C 0.50845 0.18194 0.7637 0.0
C672 C 0.52098 0.18573 0.79368 0.0
C673 C 0.52404 0.20677 0.80945 0.0
C674 C 0.51513 0.22372 0.79365 0.0
H675 H 0.50144 0.23814 0.61135 0.0
H676 H 0.51177 0.22522 0.66182 0.0
H677 H 0.49454 0.21439 0.64162 0.0
H678 H 0.49004 0.19556 0.72454 0.0
H679 H 0.5057 0.16588 0.75152 0.0
H680 H 0.70963 0.94974 0.81874 0.0
H681 H 0.72502 0.97916 0.849 0.0
H682 H 0.74034 0.93992 0.9747 0.0
H683 H 0.72535 0.91037 0.9442 0.0
H684 H 0.72285 0.99945 0.94125 0.0
H685 H 0.77809 0.9645 0.92151 0.0
H686 H 0.76225 0.95278 0.89148 0.0
H687 H 0.76601 0.94803 0.95869 0.0
C688 C 0.7165 0.94723 0.85222 0.0
C689 C 0.71626 0.92768 0.87897 0.0
C690 C 0.72524 0.9641 0.8696 0.0
C691 C 0.73393 0.96169 0.91387 0.0
C692 C 0.73397 0.94202 0.93986 0.0
H693 H 0.76644 0.06899 0.09937 0.0
H694 H 0.75327 0.03708 0.06991 0.0
C695 C 0.72532 0.92515 0.92241 0.0
C696 C 0.74221 0.98013 0.93484 0.0
H697 H 0.77621 0.99634 0.97155 0.0
C698 C 0.73453 0.99882 0.94764 0.0
C699 C 0.75746 0.97932 0.94294 0.0
C700 C 0.76647 0.96016 0.92747 0.0
C701 C 0.74166 0.0167 0.96851 0.0
C702 C 0.75684 0.01567 0.97801 0.0
C703 C 0.76453 0.99701 0.96496 0.0
C704 C 0.76515 0.03428 0.99798 0.0
C705 C 0.73292 0.0367 0.97888 0.0
C706 C 0.77657 0.04275 0.96843 0.0
C707 C 0.78422 0.06064 0.98548 0.0
C708 C 0.78058 0.07064 0.03244 0.0
C709 C 0.76945 0.06174 0.06293 0.0
C710 C 0.76181 0.04366 0.04587 0.0
H711 H 0.72237 0.03664 0.95781 0.0
H712 H 0.73051 0.03776 0.02076 0.0
H713 H 0.73912 0.0512 0.96752 0.0
H714 H 0.77944 0.03567 0.93164 0.0
H715 H 0.793 0.0667 0.96166 0.0
H716 H 0.22892 0.94547 0.12342 0.0
H717 H 0.24219 0.97808 0.10029 0.0
H718 H 0.22351 0.97583 0.94756 0.0
H719 H 0.20938 0.9447 0.97152 0.0
H720 H 0.26253 0.9838 0.03441 0.0
H721 H 0.21784 0.03702 0.97458 0.0
H722 H 0.21446 0.01215 1.00765 0.0
H723 H 0.21673 0.01271 0.93843 0.0
C724 C 0.22737 0.95223 0.08535 0.0
C725 C 0.21818 0.9422 0.04925 0.0
C726 C 0.23504 0.97082 0.07202 0.0
C727 C 0.2337 0.97972 0.02234 0.0
C728 C 0.22446 0.96978 0.98656 0.0
H729 H 0.30182 0.04974 0.86757 0.0
H730 H 0.28446 0.0233 0.90005 0.0
C731 C 0.21661 0.95155 1.00008 0.0
C732 C 0.24276 0.99831 1.00616 0.0
H733 H 0.24158 0.04493 0.93756 0.0
C734 C 0.25789 0.99732 0.01397 0.0
C735 C 0.23677 0.0163 0.98044 0.0
C736 C 0.22054 0.0197 0.9754 0.0
C737 C 0.26723 0.01324 0.99489 0.0
C738 C 0.26136 0.03016 0.96491 0.0
C739 C 0.24617 0.0317 0.95921 0.0
C740 C 0.27081 0.0464 0.9395 0.0
C741 C 0.28325 0.0118 1.00785 0.0
C742 C 0.26826 0.06836 0.94695 0.0
C743 C 0.27786 0.08355 0.92651 0.0
C744 C 0.29028 0.077 0.89893 0.0
C745 C 0.29238 0.05516 0.88906 0.0
C746 C 0.28258 0.04004 0.9083 0.0
H747 H 0.28504 1.00294 0.04449 0.0
H748 H 0.289 1.00294 0.97682 0.0
H749 H 0.28824 0.02789 0.01166 0.0
H750 H 0.25918 0.07373 0.97033 0.0
H751 H 0.27606 0.1003 0.93502 0.0
H752 H 0.96536 0.3 0.8423 0.0
H753 H 0.98191 0.27119 0.81652 0.0
H754 H 0.00585 0.31528 0.72071 0.0
H755 H 0.9893 0.34413 0.74618 0.0
H756 H 0.99786 0.27882 0.66866 0.0
H757 H 0.02398 0.25803 0.85519 0.0
H758 H 0.00441 0.25792 0.85727 0.0
H759 H 0.01395 0.28256 0.84572 0.0
C760 C 0.9744 0.30368 0.81689 0.0
C761 C 0.97606 0.32435 0.79638 0.0
C762 C 0.98382 0.28718 0.80205 0.0
C763 C 0.99517 0.2911 0.76687 0.0
C764 C 0.99716 0.31189 0.74781 0.0
H765 H 0.0658 0.20471 0.69385 0.0
H766 H 0.05062 0.2352 0.71752 0.0
C767 C 0.98772 0.32836 0.76247 0.0
C768 C 0.00441 0.27333 0.74741 0.0
H769 H 0.02792 0.23405 0.78545 0.0
C770 C 0.00449 0.26907 0.69415 0.0
C771 C 0.01311 0.26072 0.78065 0.0
C772 C 0.01401 0.26511 0.83783 0.0
C773 C 0.01296 0.25245 0.67327 0.0
C774 C 0.02138 0.23952 0.70668 0.0
C775 C 0.02138 0.24388 0.75989 0.0
C776 C 0.03064 0.22172 0.68744 0.0
C777 C 0.01303 0.24918 0.61558 0.0
C778 C 0.02451 0.20411 0.66165 0.0
C779 C 0.03323 0.18663 0.64762 0.0
C780 C 0.04816 0.18639 0.65982 0.0
C781 C 0.05431 0.20433 0.68416 0.0
C782 C 0.04565 0.22178 0.69783 0.0
H783 H 0.00911 0.2636 0.59471 0.0
H784 H 0.02414 0.24515 0.60156 0.0
H785 H 0.00566 0.23572 0.60574 0.0
H786 H 0.01291 0.20355 0.65398 0.0
H787 H 0.02816 0.17296 0.62928 0.0
H788 H 0.03193 0.70563 0.83733 0.0
H789 H 0.01608 0.73522 0.81145 0.0
H790 H 0.98776 0.691 0.73254 0.0
H791 H 0.00351 0.66128 0.75857 0.0
H792 H 0.99622 0.72592 0.67169 0.0
H793 H 0.97542 0.75244 0.86248 0.0
H794 H 0.99493 0.75042 0.85851 0.0
H795 H 0.98396 0.72674 0.85289 0.0
C796 C 0.02213 0.70212 0.81566 0.0
C797 C 0.01896 0.68107 0.80017 0.0
C798 C 0.01311 0.71907 0.80069 0.0
C799 C 0.0007 0.7153 0.77026 0.0
C800 C 0.9973 0.69427 0.75593 0.0
H801 H 0.93109 0.80415 0.70517 0.0
H802 H 0.94604 0.77331 0.72795 0.0
C803 C 0.0063 0.67731 0.77086 0.0
C804 C 0.99168 0.73336 0.75124 0.0
H805 H 0.97036 0.77496 0.79102 0.0
C806 C 0.99052 0.73663 0.69773 0.0
C807 C 0.9842 0.74722 0.78528 0.0
C808 C 0.98454 0.74399 0.84298 0.0
C809 C 0.98217 0.75348 0.67735 0.0
C810 C 0.97492 0.76758 0.71145 0.0
C811 C 0.97601 0.76422 0.76493 0.0
C812 C 0.96573 0.78554 0.69277 0.0
C813 C 0.98093 0.75581 0.61957 0.0
C814 C 0.97177 0.80254 0.66446 0.0
C815 C 0.96318 0.82026 0.65107 0.0
C816 C 0.94848 0.82131 0.6663 0.0
C817 C 0.9424 0.80392 0.69311 0.0
C818 C 0.95093 0.78626 0.70626 0.0
H819 H 0.98423 0.74096 0.59914 0.0
H820 H 0.96959 0.75993 0.60818 0.0
H821 H 0.98819 0.76892 0.60651 0.0
H822 H 0.98322 0.80246 0.65429 0.0
H823 H 0.9682 0.83347 0.63071 0.0
H824 H 0.28145 0.54908 0.09316 0.0
H825 H 0.26512 0.51987 0.06813 0.0
H826 H 0.23903 0.56408 0.97978 0.0
H827 H 0.25535 0.5933 1.00442 0.0
H828 H 0.23533 0.5125 0.07753 0.0
H829 H 0.25148 0.51988 0.87192 0.0
H830 H 0.2612 0.53312 0.92334 0.0
H831 H 0.24442 0.54416 0.89921 0.0
C832 C 0.27203 0.55265 0.06945 0.0
C833 C 0.26972 0.57344 0.05046 0.0
C834 C 0.26278 0.53593 0.05484 0.0
C835 C 0.25109 0.53973 0.021 0.0
C836 C 0.24821 0.56071 1.00478 0.0
H837 H 0.18004 0.45358 0.95127 0.0
H838 H 0.19539 0.48364 0.97663 0.0
C839 C 0.25747 0.57739 0.01918 0.0
C840 C 0.24223 0.52166 1.00129 0.0
H841 H 0.23192 0.49619 0.89043 0.0
C842 C 0.2346 0.50891 0.03666 0.0
C843 C 0.24153 0.51673 0.94798 0.0
C844 C 0.2502 0.52904 0.90839 0.0
C845 C 0.226 0.49166 0.02008 0.0
C846 C 0.2248 0.48731 0.9666 0.0
C847 C 0.23271 0.49973 0.93132 0.0
C848 C 0.21534 0.46993 0.94674 0.0
C849 C 0.21844 0.47807 0.06008 0.0
C850 C 0.22133 0.45275 0.91893 0.0
C851 C 0.21252 0.43557 0.90379 0.0
C852 C 0.19761 0.43535 0.9163 0.0
C853 C 0.19154 0.45313 0.94168 0.0
C854 C 0.2003 0.47028 0.95651 0.0
H855 H 0.22358 0.47976 0.09869 0.0
H856 H 0.20689 0.48321 0.06342 0.0
H857 H 0.21861 0.46093 0.04897 0.0
H858 H 0.2329 0.4523 0.91053 0.0
H859 H 0.2175 0.42211 0.88425 0.0
H860 H 0.77534 0.59365 0.89512 0.0
H861 H 0.75829 0.5657 0.92322 0.0
H862 H 0.79232 0.51849 0.90912 0.0
H863 H 0.80941 0.5462 0.88154 0.0
H864 H 0.76045 0.50882 0.86831 0.0
H865 H 0.76669 0.53532 0.0726 0.0
H866 H 0.76365 0.55506 0.02304 0.0
H867 H 0.78054 0.54065 0.0247 0.0
C868 C 0.77909 0.57724 0.89686 0.0
C869 C 0.79373 0.57211 0.88644 0.0
C870 C 0.76937 0.56135 0.91319 0.0
C871 C 0.77414 0.54015 0.91869 0.0
C872 C 0.78848 0.5348 0.90526 0.0
H873 H 0.74084 0.41702 1.01065 0.0
H874 H 0.75508 0.4472 0.97795 0.0
C875 C 0.79822 0.55065 0.8895 0.0
C876 C 0.76459 0.52368 0.94166 0.0
H877 H 0.75253 0.50466 0.05758 0.0
C878 C 0.7586 0.50794 0.90961 0.0
C879 C 0.76222 0.52271 0.99551 0.0
C880 C 0.76861 0.53924 0.03134 0.0
C881 C 0.75032 0.49108 0.93012 0.0
C882 C 0.74839 0.48962 0.98429 0.0
C883 C 0.75412 0.5057 0.01618 0.0
C884 C 0.74058 0.47142 1.00849 0.0
C885 C 0.74359 0.47515 0.89344 0.0
C886 C 0.72821 0.47502 0.03929 0.0
C887 C 0.7202 0.45778 0.05878 0.0
C888 C 0.72443 0.43666 0.04774 0.0
C889 C 0.73726 0.43313 0.0193 0.0
C890 C 0.74532 0.45035 1.00022 0.0
H891 H 0.74234 0.48197 0.85408 0.0
H892 H 0.7508 0.46095 0.89046 0.0
H893 H 0.73273 0.46981 0.9073 0.0
H894 H 0.72444 0.49115 0.04659 0.0
H895 H 0.71029 0.46097 0.08016 0.0
H896 H 0.05744 0.71102 0.1317 0.0
H897 H 0.04038 0.73907 0.15764 0.0
H898 H 0.00632 0.69217 0.17468 0.0
H899 H 0.02335 0.66385 0.1482 0.0
H900 H 0.00883 0.7488 0.11638 0.0
H901 H 0.01437 0.72376 0.32201 0.0
H902 H 0.02823 0.71767 0.27465 0.0
H903 H 0.01119 0.70367 0.27344 0.0
C904 C 0.04624 0.70669 0.13997 0.0
C905 C 0.04174 0.68522 0.13817 0.0
C906 C 0.03653 0.72274 0.15479 0.0
C907 C 0.02218 0.7176 0.16857 0.0
C908 C 0.0174 0.69636 0.16438 0.0
H909 H 0.95876 0.79911 0.32611 0.0
H910 H 0.97261 0.76846 0.29332 0.0
C911 C 0.0271 0.68026 0.14896 0.0
C912 C 0.01264 0.73438 0.19049 0.0
H913 H 0.00042 0.75449 0.30513 0.0
C914 C 0.00687 0.75001 0.15756 0.0
C915 C 0.01013 0.7358 0.2442 0.0
C916 C 0.01631 0.71944 0.28099 0.0
C917 C -0.00134 0.76717 0.17704 0.0
C918 C 0.99659 0.76908 0.23108 0.0
C919 C 0.0021 0.75312 0.26383 0.0
C920 C 0.98886 0.78762 0.25427 0.0
C921 C 0.99215 0.78295 0.13943 0.0
C922 C 0.99374 0.80855 0.24509 0.0
C923 C 0.98586 0.82605 0.26371 0.0
C924 C 0.97306 0.82295 0.29262 0.0
C925 C 0.96866 0.80198 0.30436 0.0
C926 C 0.97649 0.78447 0.28532 0.0
H927 H 0.9909 0.77583 0.10039 0.0
H928 H 0.98132 0.78867 0.15275 0.0
H929 H -0.00049 0.79694 0.13589 0.0
H930 H 0.00352 0.81137 0.22264 0.0
H931 H 0.98957 0.84204 0.25453 0.0
H932 H 0.96785 0.33626 0.13145 0.0
H933 H 0.98297 0.30539 0.15506 0.0
H934 H 0.94521 0.27397 0.21898 0.0
H935 H 0.93016 0.30476 0.19641 0.0
H936 H 0.96803 0.27462 0.28631 0.0
H937 H 0.98631 0.24551 0.09457 0.0
H938 H 0.98994 0.27332 0.10595 0.0
H939 H 0.9714 0.26412 0.10215 0.0
C940 C 0.96275 0.3226 0.14965 0.0
C941 C 0.94784 0.32298 0.16229 0.0
C942 C 0.97139 0.30495 0.16304 0.0
C943 C 0.96521 0.28732 0.18862 0.0
C944 C 0.95022 0.28741 0.19944 0.0
H945 H 0.00659 0.1646 0.24441 0.0
H946 H 0.98991 0.19343 0.21982 0.0
C947 C 0.94163 0.30502 0.18641 0.0
C948 C 0.9744 0.26936 0.20727 0.0
H949 H 0.99773 0.23004 0.16797 0.0
C950 C 0.9745 0.26482 0.2604 0.0
C951 C 0.98271 0.25647 0.17342 0.0
C952 C 0.98252 0.25992 0.11579 0.0
C953 C 0.98276 0.24788 0.28066 0.0
C954 C 0.99137 0.23534 0.24698 0.0
C955 C 0.99117 0.23974 0.19379 0.0
C956 C 0.00067 0.21756 0.26594 0.0
C957 C 0.98197 0.24331 0.33778 0.0
C958 C 0.01209 0.22145 0.30078 0.0
C959 C 0.02159 0.20496 0.31511 0.0
C960 C 0.01992 0.18434 0.2944 0.0
C961 C 0.00818 0.18035 0.26084 0.0
C962 C -0.00133 0.1968 0.24668 0.0
H963 H 0.97202 0.25033 0.35548 0.0
H964 H 0.98206 0.22585 0.34541 0.0
H965 H 0.9916 0.25048 0.35711 0.0
H966 H 0.01402 0.23742 0.31537 0.0
H967 H 0.03069 0.20863 0.34024 0.0
H968 H 0.22372 0.91137 0.44542 0.0
H969 H 0.23808 0.94105 0.4792 0.0
H970 H 0.21952 0.98296 0.36444 0.0
H971 H 0.20475 0.95343 0.33123 0.0
H972 H 0.25843 0.9667 0.43945 0.0
H973 H 0.21038 0.01513 0.49554 0.0
H974 H 0.20889 0.98759 0.47557 0.0
H975 H 0.21049 0.00851 0.42818 0.0
C976 C 0.22276 0.92684 0.42697 0.0
C977 C 0.21296 0.93006 0.38587 0.0
C978 C 0.23097 0.94383 0.44648 0.0
C979 C 0.2296 0.96438 0.42528 0.0
C980 C 0.22042 0.9674 0.38247 0.0
H981 H 0.28857 0.06984 0.46349 0.0
H982 H 0.27488 0.03854 0.43637 0.0
C983 C 0.2121 0.95044 0.36315 0.0
C984 C 0.23774 0.98258 0.44828 0.0
H985 H 0.23347 0.03257 0.49935 0.0
C986 C 0.25296 0.98105 0.45277 0.0
C987 C 0.23058 1.00112 0.46692 0.0
C988 C 0.21417 1.00315 0.46687 0.0
C989 C 0.26125 0.99777 0.47383 0.0
C990 C 0.25417 0.0168 0.48966 0.0
C991 C 0.23891 0.01808 0.48672 0.0
C992 C 0.26245 0.0359 0.50704 0.0
C993 C 0.27751 0.99477 0.47934 0.0
C994 C 0.25972 0.04533 0.55534 0.0
C995 C 0.26736 0.06367 0.57071 0.0
C996 C 0.27777 0.073 0.53777 0.0
C997 C 0.28045 0.06339 0.48953 0.0
C998 C 0.27279 0.04522 0.47421 0.0
H999 H 0.28044 0.97756 0.48205 0.0
H1000 H 0.28304 1.00141 0.4448 0.0
H1001 H 0.28176 1.0031 0.51405 0.0
H1002 H 0.25169 0.03848 0.58116 0.0
H1003 H 0.26499 0.07072 0.60795 0.0
H1004 H 0.74237 0.91516 0.51539 0.0
H1005 H 0.75788 0.94536 0.49117 0.0
H1006 H 0.72874 0.9885 0.57009 0.0
H1007 H 0.71315 0.95836 0.59439 0.0
H1008 H 0.74948 0.98006 0.43093 0.0
H1009 H 0.76884 0.00671 0.62349 0.0
H1010 H 0.76055 0.9809 0.61313 0.0
H1011 H 0.74938 0.00444 0.61781 0.0
C1012 C 0.73935 0.93106 0.52807 0.0
C1013 C 0.72654 0.93436 0.55689 0.0
C1014 C 0.74821 0.94829 0.51417 0.0
C1015 C 0.74451 0.96917 0.529 0.0
C1016 C 0.73195 0.97248 0.55896 0.0
H1017 H 0.77836 0.08689 0.38955 0.0
H1018 H 0.76283 0.05656 0.41382 0.0
C1019 C 0.72307 0.95523 0.57298 0.0
C1020 C 0.75344 0.9875 0.51086 0.0
H1021 H 0.77442 0.02914 0.55246 0.0
C1022 C 0.75495 0.9908 0.45747 0.0
C1023 C 0.76064 1.00139 0.54554 0.0
C1024 C 0.75992 0.99814 0.60319 0.0
C1025 C 0.76343 0.00764 0.43782 0.0
C1026 C 0.77044 0.02173 0.47251 0.0
C1027 C 0.76895 0.0184 0.52589 0.0
C1028 C 0.77988 0.03952 0.45453 0.0
C1029 C 0.76511 0.00989 0.38015 0.0
C1030 C 0.79459 0.04002 0.46925 0.0
C1031 C 0.80342 0.05729 0.4557 0.0
C1032 C 0.79773 0.07454 0.42723 0.0
C1033 C 0.78309 0.07379 0.4112 0.0
C1034 C 0.77422 0.05645 0.42497 0.0
H1035 H 0.76193 0.99504 0.3595 0.0
H1036 H 0.75799 0.02304 0.36632 0.0
H1037 H 0.77654 0.0139 0.36981 0.0
H1038 H 0.79921 0.02712 0.49191 0.0
H1039 H 0.81467 0.05729 0.46847 0.0
H1040 H 0.57445 0.14015 0.72638 0.0
H1041 H 0.58066 0.13019 0.6372 0.0
H1042 H 0.53725 0.10543 0.61544 0.0
H1043 H 0.53101 0.11535 0.70417 0.0
H1044 H 0.572 0.08499 0.56705 0.0
H1045 H 0.54784 0.16466 0.52204 0.0
H1046 H 0.55691 0.15942 0.58263 0.0
H1047 H 0.53927 0.14822 0.57044 0.0
C1048 C 0.56646 0.13175 0.70323 0.0
C1049 C 0.55225 0.12851 0.72208 0.0
C1050 C 0.56999 0.12617 0.65228 0.0
C1051 C 0.55938 0.11716 0.61982 0.0
C1052 C 0.54559 0.1123 0.63999 0.0
H1053 H 0.5415 0.11395 0.29545 0.0
H1054 H 0.54129 0.11296 0.38975 0.0
C1055 C 0.54205 0.11794 0.69064 0.0
C1056 C 0.56177 0.11589 0.56333 0.0
H1057 H 0.55423 0.14283 0.45191 0.0
C1058 C 0.56826 0.09766 0.54171 0.0
C1059 C 0.55682 0.13245 0.53062 0.0
C1060 C 0.54985 0.1524 0.55225 0.0
C1061 C 0.56957 0.09534 0.48777 0.0
C1062 C 0.56439 0.11181 0.45497 0.0
C1063 C 0.55817 0.13019 0.47698 0.0
C1064 C 0.56471 0.1102 0.39765 0.0
C1065 C 0.57602 0.07502 0.4663 0.0
C1066 C 0.57795 0.10874 0.37048 0.0
C1067 C 0.57808 0.1092 0.31632 0.0
C1068 C 0.56498 0.1113 0.28856 0.0
C1069 C 0.55176 0.11229 0.31579 0.0
C1070 C 0.55163 0.11175 0.36971 0.0
H1071 H 0.57636 0.06208 0.49565 0.0
H1072 H 0.56967 0.06935 0.43247 0.0
H1073 H 0.58735 0.07817 0.45336 0.0
H1074 H 0.58821 0.10796 0.39111 0.0
H1075 H 0.58844 0.10858 0.29629 0.0
H1076 H 0.4549 0.89848 0.30373 0.0
H1077 H 0.45421 0.90032 0.39816 0.0
H1078 H 0.40726 0.90335 0.39391 0.0
H1079 H 0.40788 0.90169 0.29906 0.0
H1080 H 0.43872 0.93337 0.46702 0.0
H1081 H 0.41942 0.84925 0.4858 0.0
H1082 H 0.42861 0.85862 0.42845 0.0
H1083 H 0.4102 0.86672 0.44113 0.0
C1084 C 0.44443 0.89976 0.32286 0.0
C1085 C 0.43144 0.89991 0.29407 0.0
C1086 C 0.44406 0.90085 0.37679 0.0
C1087 C 0.43069 0.90186 0.40302 0.0
C1088 C 0.41769 0.90249 0.37437 0.0
H1089 H 0.42267 0.87481 0.73454 0.0
H1090 H 0.41542 0.88623 0.64751 0.0
C1091 C 0.41806 0.90159 0.32028 0.0
C1092 C 0.43048 0.9013 0.46034 0.0
H1093 H 0.42512 0.86751 0.56208 0.0
C1094 C 0.43558 0.91908 0.48795 0.0
C1095 C 0.42626 0.88272 0.48756 0.0
C1096 C 0.42085 0.86313 0.45953 0.0
C1097 C 0.43691 0.91858 0.54206 0.0
C1098 C 0.43344 0.89957 0.56916 0.0
C1099 C 0.42777 0.88211 0.54155 0.0
C1100 C 0.43703 0.89652 0.62487 0.0
C1101 C 0.44208 0.93844 0.56951 0.0
C1102 C 0.45147 0.89908 0.64184 0.0
C1103 C 0.45556 0.89281 0.69154 0.0
C1104 C 0.44537 0.88354 0.72535 0.0
C1105 C 0.43072 0.88215 0.70963 0.0
C1106 C 0.42661 0.88849 0.65971 0.0
H1107 H 0.43887 0.95307 0.54799 0.0
H1108 H 0.43761 0.93945 0.60926 0.0
H1109 H 0.45416 0.9382 0.57178 0.0
H1110 H 0.45983 0.90472 0.61565 0.0
H1111 H 0.46693 0.89402 0.70252 0.0
H1112 H 0.70469 0.37393 0.55662 0.0
H1113 H 0.70439 0.37281 0.65101 0.0
H1114 H 0.66029 0.34903 0.64817 0.0
H1115 H 0.66049 0.35019 0.55323 0.0
H1116 H 0.68264 0.39598 0.71379 0.0
H1117 H 0.68386 0.3082 0.74965 0.0
H1118 H 0.69027 0.3198 0.68994 0.0
H1119 H 0.67109 0.31835 0.70275 0.0
C1120 C 0.69497 0.36823 0.57603 0.0
C1121 C 0.68262 0.36212 0.5476 0.0
C1122 C 0.69482 0.36763 0.62995 0.0
C1123 C 0.68236 0.36071 0.65658 0.0
C1124 C 0.67007 0.35419 0.62834 0.0
H1125 H 0.67204 0.3896 0.98637 0.0
H1126 H 0.66546 0.37966 0.89762 0.0
C1127 C 0.67019 0.35491 0.57419 0.0
C1128 C 0.68211 0.36161 0.71387 0.0
H1129 H 0.68369 0.33073 0.82269 0.0
C1130 C 0.68269 0.38173 0.73767 0.0
C1131 C 0.68226 0.34298 0.74478 0.0
C1132 C 0.68191 0.32103 0.72081 0.0
C1133 C 0.68368 0.38374 0.79152 0.0
C1134 C 0.68402 0.36511 0.82254 0.0
C1135 C 0.68324 0.34496 0.79885 0.0
C1136 C 0.68665 0.36656 0.87899 0.0
C1137 C 0.68496 0.40577 0.81485 0.0
C1138 C 0.70047 0.36143 0.89864 0.0
C1139 C 0.70423 0.36706 0.94915 0.0
C1140 C 0.69418 0.37774 0.98105 0.0
C1141 C 0.67992 0.38113 0.96285 0.0
C1142 C 0.6762 0.37564 0.91206 0.0
H1143 H 0.68652 0.41834 0.78507 0.0
H1144 H 0.67486 0.4095 0.8367 0.0
H1145 H 0.69425 0.4064 0.8423 0.0
H1146 H 0.7087 0.35446 0.87377 0.0
H1147 H 0.71531 0.3644 0.96217 0.0
H1148 H 0.32225 0.67525 0.53995 0.0
H1149 H 0.32319 0.67849 0.63471 0.0
H1150 H 0.31682 0.61047 0.64894 0.0
H1151 H 0.31569 0.60719 0.55506 0.0
H1152 H 0.29973 0.66297 0.70698 0.0
H1153 H 0.35366 0.62527 0.74006 0.0
H1154 H 0.34854 0.63718 0.67908 0.0
H1155 H 0.34211 0.61096 0.69595 0.0
C1156 C 0.32114 0.66102 0.56345 0.0
C1157 C 0.31891 0.64096 0.5403 0.0
C1158 C 0.32167 0.66289 0.61741 0.0
C1159 C 0.32025 0.64468 0.6487 0.0
C1160 C 0.31814 0.62467 0.62546 0.0
H1161 H 0.30643 0.59003 0.93407 0.0
H1162 H 0.3138 0.60204 0.84847 0.0
C1163 C 0.31743 0.62284 0.57184 0.0
C1164 C 0.32023 0.64626 0.70579 0.0
H1165 H 0.33727 0.62599 0.8122 0.0
C1166 C 0.3081 0.6554 0.73031 0.0
C1167 C 0.33118 0.63639 0.73589 0.0
C1168 C 0.34469 0.62704 0.71153 0.0
C1169 C 0.30605 0.65341 0.78392 0.0
C1170 C 0.31658 0.64233 0.81369 0.0
C1171 C 0.3292 0.63449 0.78943 0.0
C1172 C 0.31363 0.6357 0.86776 0.0
C1173 C 0.29213 0.66174 0.80762 0.0
C1174 C 0.31151 0.6506 0.90775 0.0
C1175 C 0.30725 0.6437 0.95712 0.0
C1176 C 0.30501 0.62184 0.96682 0.0
C1177 C 0.3079 0.607 0.92742 0.0
C1178 C 0.31216 0.61384 0.87854 0.0
H1179 H 0.28422 0.66727 0.77801 0.0
H1180 H 0.28686 0.64915 0.83139 0.0
H1181 H 0.29469 0.67543 0.83329 0.0
H1182 H 0.31282 0.66753 0.90049 0.0
H1183 H 0.30512 0.65542 0.98694 0.0
H1184 H 0.57565 0.63396 0.22911 0.0
H1185 H 0.58212 0.62418 0.14027 0.0
H1186 H 0.53932 0.59727 0.11836 0.0
H1187 H 0.53283 0.60698 0.20703 0.0
H1188 H 0.56419 0.57506 0.06387 0.0
H1189 H 0.55998 0.66288 0.03131 0.0
H1190 H 0.57221 0.65406 0.08128 0.0
H1191 H 0.55294 0.65021 0.08871 0.0
C1192 C 0.56787 0.62507 0.20612 0.0
C1193 C 0.55373 0.62123 0.22492 0.0
C1194 C 0.57152 0.61969 0.15519 0.0
C1195 C 0.56112 0.61029 0.12249 0.0
C1196 C 0.54751 0.60452 0.14288 0.0
H1197 H 0.54237 0.62141 0.80076 0.0
H1198 H 0.54281 0.61919 0.89499 0.0
C1199 C 0.54382 0.61 0.1936 0.0
C1200 C 0.56348 0.60942 0.06575 0.0
H1201 H 0.56422 0.64137 0.95874 0.0
C1202 C 0.5644 0.58953 0.04084 0.0
C1203 C 0.5635 0.62834 0.03576 0.0
C1204 C 0.56201 0.65013 0.06031 0.0
C1205 C 0.56525 0.5881 0.98662 0.0
C1206 C 0.56513 0.60703 0.95674 0.0
C1207 C 0.56438 0.62689 0.98176 0.0
C1208 C 0.56479 0.60674 0.89936 0.0
C1209 C 0.56575 0.5664 0.9614 0.0
C1210 C 0.577 0.60038 0.87038 0.0
C1211 C 0.5768 0.60174 0.81628 0.0
C1212 C 0.56437 0.60943 0.79042 0.0
C1213 C 0.55209 0.61536 0.81955 0.0
C1214 C 0.55233 0.61412 0.87342 0.0
H1215 H 0.5638 0.55327 0.98946 0.0
H1216 H 0.55746 0.56539 0.93023 0.0
H1217 H 0.57662 0.56397 0.94353 0.0
H1218 H 0.58679 0.59489 0.88964 0.0
H1219 H 0.58644 0.59714 0.79479 0.0
H1220 H 0.43997 0.40775 0.23525 0.0
H1221 H 0.43263 0.42037 0.14889 0.0
H1222 H 0.4292 0.35497 0.09745 0.0
H1223 H 0.43611 0.34254 0.18306 0.0
H1224 H 0.44772 0.41431 0.06199 0.0
H1225 H 0.39332 0.37927 0.03272 0.0
H1226 H 0.4016 0.38103 0.09581 0.0
H1227 H 0.40575 0.35892 0.05359 0.0
C1228 C 0.43717 0.39617 0.20581 0.0
C1229 C 0.43859 0.37419 0.21572 0.0
C1230 C 0.43307 0.40335 0.15645 0.0
C1231 C 0.43016 0.38863 0.11661 0.0
C1232 C 0.43099 0.36669 0.12754 0.0
H1233 H 0.45128 0.3871 0.79981 0.0
H1234 H 0.45017 0.38893 0.89374 0.0
C1235 C 0.43506 0.35958 0.17648 0.0
C1236 C 0.42794 0.39574 0.06222 0.0
H1237 H 0.40773 0.38487 0.95458 0.0
C1238 C 0.43878 0.40826 0.03878 0.0
C1239 C 0.41616 0.38828 0.03175 0.0
C1240 C 0.40348 0.37634 0.05502 0.0
C1241 C 0.43875 0.41216 0.98532 0.0
C1242 C 0.42777 0.40283 0.95411 0.0
C1243 C 0.41633 0.39169 0.9781 0.0
C1244 C 0.42858 0.40296 0.89659 0.0
C1245 C 0.45063 0.42598 0.96284 0.0
C1246 C 0.41666 0.40967 0.86643 0.0
C1247 C 0.41721 0.40834 0.81237 0.0
C1248 C 0.42967 0.40021 0.78758 0.0
C1249 C 0.44159 0.39367 0.81775 0.0
C1250 C 0.44101 0.39487 0.87158 0.0
H1251 H 0.45451 0.43791 0.99147 0.0
H1252 H 0.46008 0.41577 0.95229 0.0
H1253 H 0.44686 0.43457 0.9278 0.0
H1254 H 0.40689 0.41578 0.88473 0.0
H1255 H 0.40783 0.41337 0.79006 0.0
H1256 H 0.67403 0.88184 0.48937 0.0
H1257 H 0.66763 0.86928 0.40252 0.0
H1258 H 0.71294 0.85551 0.37247 0.0
H1259 H 0.71927 0.86738 0.45924 0.0
H1260 H 0.67687 0.8886 0.31631 0.0
H1261 H 0.69433 0.80427 0.30735 0.0
H1262 H 0.69214 0.81828 0.36778 0.0
H1263 H 0.70875 0.82089 0.33111 0.0
C1264 C 0.68253 0.87535 0.46489 0.0
C1265 C 0.69716 0.87561 0.48112 0.0
C1266 C 0.67888 0.86834 0.41509 0.0
C1267 C 0.68977 0.86125 0.38087 0.0
C1268 C 0.70427 0.86041 0.39824 0.0
H1269 H 0.7084 0.85532 0.06063 0.0
H1270 H 0.7075 0.85349 0.15498 0.0
C1271 C 0.7079 0.86738 0.44783 0.0
C1272 C 0.68645 0.85737 0.32533 0.0
H1273 H 0.69315 0.82302 0.22541 0.0
C1274 C 0.68012 0.87405 0.29666 0.0
C1275 C 0.69072 0.83843 0.29946 0.0
C1276 C 0.69672 0.81939 0.3282 0.0
C1277 C 0.67873 0.8728 0.2427 0.0
C1278 C 0.68365 0.85428 0.21665 0.0
C1279 C 0.68943 0.83724 0.24541 0.0
C1280 C 0.68394 0.85312 0.15935 0.0
C1281 C 0.6727 0.89175 0.21362 0.0
C1282 C 0.67099 0.85295 0.13038 0.0
C1283 C 0.67148 0.8539 0.07631 0.0
C1284 C 0.68494 0.85509 0.05046 0.0
C1285 C 0.69787 0.85443 0.0795 0.0
C1286 C 0.69738 0.85336 0.13341 0.0
H1287 H 0.67147 0.90606 0.23866 0.0
H1288 H 0.67991 0.89591 0.18069 0.0
H1289 H 0.66182 0.88763 0.19777 0.0
H1290 H 0.66051 0.85256 0.14962 0.0
H1291 H 0.66134 0.85439 0.05489 0.0
H1292 H 0.31657 0.11129 0.06523 0.0
H1293 H 0.3148 0.11571 0.15866 0.0
H1294 H 0.31801 0.18409 0.1411 0.0
H1295 H 0.32008 0.17969 0.04693 0.0
H1296 H 0.33432 0.16805 0.22556 0.0
H1297 H 0.27771 0.13746 0.22828 0.0
H1298 H 0.29012 0.11927 0.19766 0.0
H1299 H 0.28681 0.1451 0.16934 0.0
C1300 C 0.31699 0.12728 0.08122 0.0
C1301 C 0.31833 0.14517 0.04881 0.0
C1302 C 0.31592 0.12978 0.13463 0.0
C1303 C 0.31597 0.15025 0.15684 0.0
C1304 C 0.31785 0.16816 0.12475 0.0
H1305 H 0.283 0.15374 0.47149 0.0
H1306 H 0.28811 0.16597 0.38351 0.0
C1307 C 0.31901 0.16564 0.07106 0.0
C1308 C 0.3136 0.15269 0.21333 0.0
H1309 H 0.29005 0.13861 0.30937 0.0
C1310 C 0.32456 0.16189 0.24396 0.0
C1311 C 0.30074 0.14508 0.23727 0.0
C1312 C 0.28811 0.13638 0.2064 0.0
C1313 C 0.32331 0.16269 0.29814 0.0
C1314 C 0.31087 0.15371 0.32229 0.0
C1315 C 0.29965 0.14543 0.29125 0.0
C1316 C 0.30948 0.15129 0.37937 0.0
C1317 C 0.33532 0.17313 0.32881 0.0
C1318 C 0.32006 0.13991 0.40753 0.0
C1319 C 0.31726 0.13339 0.4583 0.0
C1320 C 0.30376 0.13786 0.48147 0.0
C1321 C 0.29359 0.15046 0.45472 0.0
C1322 C 0.29647 0.15726 0.40429 0.0
H1323 H 0.34092 0.18565 0.30574 0.0
H1324 H 0.33109 0.18048 0.36482 0.0
H1325 H 0.34358 0.16089 0.33927 0.0
H1326 H 0.33 0.13457 0.38907 0.0
H1327 H 0.3251 0.1232 0.47768 0.0
H1328 H 0.05783 0.16765 0.18173 0.0
H1329 H 0.06463 0.15509 0.09611 0.0
H1330 H 0.06378 0.08992 0.15059 0.0
H1331 H 0.05643 0.1026 0.23688 0.0
H1332 H 0.08652 0.13227 0.05445 0.0
H1333 H 0.03415 0.08808 0.03466 0.0
H1334 H 0.03763 0.10599 0.08773 0.0
H1335 H 0.0458 0.07987 0.08679 0.0
C1336 C 0.05924 0.15063 0.17566 0.0
C1337 C 0.05636 0.13606 0.21568 0.0
C1338 C 0.06319 0.14346 0.12669 0.0
C1339 C 0.06441 0.12152 0.11639 0.0
C1340 C 0.06256 0.10691 0.15725 0.0
H1341 H 0.08799 0.09557 0.78941 0.0
H1342 H 0.08901 0.09352 0.88412 0.0
C1343 C 0.05854 0.11414 0.20663 0.0
C1344 C 0.06656 0.11449 0.06196 0.0
H1345 H 0.04885 0.09063 0.96121 0.0
C1346 C 0.07842 0.12286 0.03415 0.0
C1347 C 0.0559 0.10239 0.03536 0.0
C1348 C 0.04258 0.09366 0.06236 0.0
C1349 C 0.0795 0.12047 0.98029 0.0
C1350 C 0.06863 0.10884 0.95351 0.0
C1351 C 0.0572 0.09949 0.98172 0.0
C1352 C 0.0679 0.10831 0.89603 0.0
C1353 C 0.09177 0.13163 0.95232 0.0
C1354 C 0.0555 0.11646 0.87103 0.0
C1355 C 0.05481 0.11729 0.81721 0.0
C1356 C 0.06654 0.11007 0.78703 0.0
C1357 C 0.07883 0.10137 0.81179 0.0
C1358 C 0.07946 0.10034 0.86588 0.0
H1359 H 0.09732 0.1436 0.97715 0.0
H1360 H 0.10001 0.11963 0.94026 0.0
H1361 H 0.08768 0.13985 0.91719 0.0
H1362 H 0.04643 0.12269 0.89325 0.0
H1363 H 0.04519 0.12409 0.79926 0.0
H1364 H 0.9212 0.87142 0.23296 0.0
H1365 H 0.91456 0.88152 0.14436 0.0
H1366 H 0.95791 0.90608 0.11988 0.0
H1367 H 0.9646 0.89592 0.20811 0.0
H1368 H 0.93202 0.93007 0.06915 0.0
H1369 H 0.9365 0.84254 0.03193 0.0
H1370 H 0.92504 0.85116 0.08441 0.0
H1371 H 0.9444 0.85486 0.08837 0.0
C1372 C 0.9291 0.8798 0.20936 0.0
C1373 C 0.9434 0.88293 0.2273 0.0
C1374 C 0.92534 0.88541 0.15868 0.0
C1375 C 0.9358 0.89437 0.1255 0.0
C1376 C 0.94968 0.89924 0.1449 0.0
H1377 H 0.95415 0.88708 0.80397 0.0
H1378 H 0.95369 0.88857 0.89825 0.0
C1379 C 0.95348 0.89348 0.19529 0.0
C1380 C 0.93313 0.89572 0.06908 0.0
H1381 H 0.93243 0.86475 0.96052 0.0
C1382 C 0.93189 0.91582 0.04534 0.0
C1383 C 0.93319 0.87708 0.03817 0.0
C1384 C 0.93493 0.85513 0.06165 0.0
C1385 C 0.93085 0.91772 0.99127 0.0
C1386 C 0.93113 0.89907 0.96043 0.0
C1387 C 0.93215 0.879 0.98432 0.0
C1388 C 0.93145 0.89993 0.90315 0.0
C1389 C 0.93001 0.93963 0.9672 0.0
C1390 C 0.9191 0.90594 0.87452 0.0
C1391 C 0.91931 0.90502 0.82038 0.0
C1392 C 0.93189 0.89809 0.79421 0.0
C1393 C 0.94431 0.89253 0.82303 0.0
C1394 C 0.94406 0.89336 0.87691 0.0
H1395 H 0.93165 0.95256 0.99599 0.0
H1396 H 0.93834 0.94124 0.93634 0.0
H1397 H 0.91914 0.9418 0.9491 0.0
H1398 H 0.9092 0.91081 0.89406 0.0
H1399 H 0.90957 0.9093 0.79911 0.0
H1400 H 0.20239 0.37123 0.05338 0.0
H1401 H 0.20185 0.37014 0.14767 0.0
H1402 H 0.15762 0.34694 0.14354 0.0
H1403 H 0.15805 0.34812 0.0485 0.0
H1404 H 0.17906 0.39366 0.20958 0.0
H1405 H 0.18203 0.30595 0.24578 0.0
H1406 H 0.18893 0.31775 0.18697 0.0
H1407 H 0.16965 0.31587 0.19724 0.0
C1408 C 0.19259 0.36567 0.07244 0.0
C1409 C 0.18026 0.35974 0.04359 0.0
C1410 C 0.1923 0.36509 0.12633 0.0
C1411 C 0.17974 0.35836 0.15256 0.0
C1412 C 0.16747 0.35199 0.12396 0.0
H1413 H 0.17103 0.38713 0.4836 0.0
H1414 H 0.1638 0.37722 0.39545 0.0
C1415 C 0.16772 0.3527 0.06979 0.0
C1416 C 0.1794 0.3593 0.20981 0.0
H1417 H 0.18239 0.32859 0.31853 0.0
C1418 C 0.17955 0.37945 0.23351 0.0
C1419 C 0.18016 0.34071 0.24074 0.0
C1420 C 0.18025 0.31877 0.21675 0.0
C1421 C 0.18081 0.38155 0.28729 0.0
C1422 C 0.18185 0.36298 0.31831 0.0
C1423 C 0.18141 0.34278 0.29471 0.0
C1424 C 0.18495 0.36458 0.37447 0.0
C1425 C 0.18169 0.40367 0.31041 0.0
C1426 C 0.19898 0.35971 0.39263 0.0
C1427 C 0.2031 0.36531 0.44279 0.0
C1428 C 0.19322 0.37572 0.47587 0.0
C1429 C 0.1788 0.37891 0.45914 0.0
C1430 C 0.1747 0.37343 0.40869 0.0
H1431 H 0.18278 0.41628 0.28046 0.0
H1432 H 0.17165 0.40691 0.33297 0.0
H1433 H 0.19112 0.40481 0.33716 0.0
H1434 H 0.20705 0.3529 0.36689 0.0
H1435 H 0.21429 0.36275 0.4547 0.0
H1436 H 0.78132 0.65063 0.46114 0.0
H1437 H 0.78721 0.66069 0.37211 0.0
H1438 H 0.82818 0.6271 0.38404 0.0
H1439 H 0.82251 0.61773 0.47378 0.0
H1440 H 0.8301 0.66271 0.31989 0.0
H1441 H 0.78236 0.61231 0.26935 0.0
H1442 H 0.77797 0.6347 0.30973 0.0
H1443 H 0.78954 0.61373 0.33399 0.0
C1444 C 0.79181 0.64611 0.44524 0.0
C1445 C 0.80147 0.63341 0.47407 0.0
C1446 C 0.79511 0.65166 0.3943 0.0
C1447 C 0.80795 0.64412 0.37095 0.0
C1448 C 0.81817 0.633 0.40116 0.0
H1449 H 0.81758 0.6072 0.0546 0.0
H1450 H 0.81616 0.61024 0.14833 0.0
C1451 C 0.81497 0.62773 0.45246 0.0
C1452 C 0.80987 0.64545 0.31406 0.0
H1453 H 0.79463 0.62897 0.20062 0.0
C1454 C 0.82233 0.65544 0.2937 0.0
C1455 C 0.79985 0.63558 0.27996 0.0
C1456 C 0.78676 0.62329 0.29924 0.0
C1457 C 0.82503 0.65578 0.24017 0.0
C1458 C 0.81487 0.6462 0.20617 0.0
C1459 C 0.80237 0.63643 0.22664 0.0
C1460 C 0.81723 0.64481 0.14945 0.0
C1461 C 0.83896 0.66573 0.22068 0.0
C1462 C 0.81851 0.66323 0.11864 0.0
C1463 C 0.81948 0.66148 0.06474 0.0
C1464 C 0.81897 0.64131 0.04094 0.0
C1465 C 0.81796 0.62296 0.07188 0.0
C1466 C 0.81714 0.62468 0.12548 0.0
H1467 H 0.84714 0.66762 0.25199 0.0
H1468 H 0.84383 0.65593 0.18937 0.0
H1469 H 0.83653 0.68181 0.20481 0.0
H1470 H 0.8183 0.67895 0.13608 0.0
H1471 H 0.82017 0.67589 0.04167 0.0
H1472 H 0.06688 0.64991 0.3073 0.0
H1473 H 0.06551 0.64689 0.40106 0.0
H1474 H 0.06541 0.57812 0.38854 0.0
H1475 H 0.0672 0.58112 0.29411 0.0
H1476 H 0.04338 0.62949 0.45353 0.0
H1477 H 0.0948 0.58747 0.50404 0.0
H1478 H 0.09179 0.59953 0.44162 0.0
H1479 H 0.08376 0.57411 0.45676 0.0
C1480 C 0.06677 0.63413 0.32453 0.0
C1481 C 0.06713 0.61574 0.29351 0.0
C1482 C 0.06598 0.63242 0.37814 0.0
C1483 C 0.06546 0.61229 0.40203 0.0
C1484 C 0.06609 0.59382 0.37115 0.0
H1485 H 0.02962 0.60784 0.71369 0.0
H1486 H 0.03532 0.5976 0.62463 0.0
C1487 C 0.06702 0.59554 0.31723 0.0
C1488 C 0.06313 0.61101 0.45876 0.0
H1489 H 0.078 0.59343 0.57221 0.0
C1490 C 0.05093 0.62152 0.47942 0.0
C1491 C 0.07305 0.60076 0.49258 0.0
C1492 C 0.08667 0.58998 0.47284 0.0
C1493 C 0.04847 0.62243 0.53277 0.0
C1494 C 0.05824 0.61191 0.56668 0.0
C1495 C 0.07041 0.60121 0.54614 0.0
C1496 C 0.05637 0.61323 0.62358 0.0
C1497 C 0.03572 0.63544 0.5523 0.0
C1498 C 0.06681 0.62388 0.65381 0.0
C1499 C 0.0637 0.62928 0.70511 0.0
C1500 C 0.05009 0.62419 0.72668 0.0
C1501 C 0.0402 0.61191 0.69783 0.0
C1502 C 0.04339 0.60624 0.64688 0.0
H1503 H 0.03157 0.64668 0.52252 0.0
H1504 H 0.02668 0.62452 0.56292 0.0
H1505 H 0.03879 0.6448 0.58704 0.0
H1506 H 0.07692 0.62936 0.6367 0.0
H1507 H 0.07142 0.63895 0.72643 0.0
H1508 H 0.95092 0.38498 0.3024 0.0
H1509 H 0.9497 0.38626 0.3964 0.0
H1510 H 0.90731 0.41603 0.38753 0.0
H1511 H 0.90829 0.41406 0.29281 0.0
H1512 H 0.94759 0.4181 0.4645 0.0
H1513 H 0.89859 0.36622 0.48059 0.0
H1514 H 0.9082 0.36987 0.42053 0.0
H1515 H 0.89607 0.39029 0.44393 0.0
C1516 C 0.94135 0.39188 0.32041 0.0
C1517 C 0.92966 0.39929 0.29029 0.0
C1518 C 0.94067 0.39264 0.37424 0.0
C1519 C 0.92832 0.40093 0.39934 0.0
C1520 C 0.91681 0.40908 0.36924 0.0
H1521 H 0.94009 0.40653 0.74008 0.0
H1522 H 0.93281 0.41931 0.65378 0.0
C1523 C 0.91742 0.40811 0.31513 0.0
C1524 C 0.92761 0.40037 0.45685 0.0
H1525 H 0.90945 0.37742 0.5579 0.0
C1526 C 0.93915 0.40944 0.48504 0.0
C1527 C 0.91661 0.389 0.48369 0.0
C1528 C 0.90422 0.37812 0.45577 0.0
C1529 C 0.94042 0.40653 0.53868 0.0
C1530 C 0.92961 0.39471 0.56536 0.0
C1531 C 0.91767 0.38662 0.53756 0.0
C1532 C 0.93168 0.38769 0.61989 0.0
C1533 C 0.95385 0.41491 0.56561 0.0
C1534 C 0.93255 0.36573 0.63042 0.0
C1535 C 0.93645 0.35851 0.67942 0.0
C1536 C 0.93961 0.37305 0.71924 0.0
C1537 C 0.93775 0.39501 0.71 0.0
C1538 C 0.93377 0.4023 0.6606 0.0
H1539 H 0.96236 0.42018 0.53786 0.0
H1540 H 0.95082 0.42885 0.58982 0.0
H1541 H 0.95863 0.4025 0.59116 0.0
H1542 H 0.93091 0.3541 0.59998 0.0
H1543 H 0.93763 0.34146 0.68564 0.0
H1544 H 0.21841 0.87079 0.96165 0.0
H1545 H 0.21279 0.85856 0.87438 0.0
H1546 H 0.16681 0.8643 0.90661 0.0
H1547 H 0.17244 0.87733 0.99374 0.0
H1548 H 0.19721 0.82709 0.82643 0.0
H1549 H 0.17193 0.90649 0.78935 0.0
H1550 H 0.18199 0.90078 0.84751 0.0
H1551 H 0.16361 0.89125 0.84012 0.0
C1552 C 0.20708 0.86898 0.95054 0.0
C1553 C 0.19587 0.87531 0.98436 0.0
C1554 C 0.20388 0.86199 0.90057 0.0
C1555 C 0.18938 0.86111 0.88327 0.0
C1556 C 0.1781 0.8654 0.91859 0.0
H1557 H 0.16129 0.85453 0.55832 0.0
H1558 H 0.16092 0.85202 0.65296 0.0
C1559 C 0.18131 0.87252 0.9687 0.0
C1560 C 0.18638 0.85765 0.82728 0.0
H1561 H 0.17335 0.88282 0.71943 0.0
C1562 C 0.19185 0.83918 0.80316 0.0
C1563 C 0.17947 0.87348 0.79663 0.0
C1564 C 0.17401 0.89421 0.81945 0.0
C1565 C 0.19081 0.83629 0.74939 0.0
C1566 C 0.18426 0.85238 0.71875 0.0
C1567 C 0.17833 0.87047 0.74298 0.0
C1568 C 0.18439 0.85163 0.66129 0.0
C1569 C 0.19686 0.81613 0.72573 0.0
C1570 C 0.1977 0.8522 0.63445 0.0
C1571 C 0.19793 0.85375 0.58055 0.0
C1572 C 0.18486 0.85477 0.55233 0.0
C1573 C 0.17153 0.85364 0.57904 0.0
C1574 C 0.17131 0.85224 0.63308 0.0
H1575 H 0.19762 0.80302 0.75454 0.0
H1576 H 0.19 0.8107 0.69292 0.0
H1577 H 0.208 0.81933 0.71092 0.0
H1578 H 0.20793 0.8522 0.65532 0.0
H1579 H 0.20836 0.85473 0.56106 0.0
H1580 H 0.78354 0.14436 0.95463 0.0
H1581 H 0.79028 0.15584 0.86781 0.0
H1582 H 0.83556 0.14384 0.90249 0.0
H1583 H 0.82872 0.13155 0.98927 0.0
H1584 H 0.80758 0.18436 0.81896 0.0
H1585 H 0.8285 0.10193 0.7868 0.0
H1586 H 0.81873 0.10933 0.84443 0.0
H1587 H 0.83758 0.1166 0.83687 0.0
C1588 C 0.79499 0.1448 0.94427 0.0
C1589 C 0.80559 0.13687 0.97855 0.0
C1590 C 0.79884 0.1513 0.8945 0.0
C1591 C 0.81338 0.15007 0.87787 0.0
C1592 C 0.82421 0.14435 0.91389 0.0
H1593 H 0.8414 0.15198 0.55159 0.0
H1594 H 0.84218 0.15498 0.64621 0.0
C1595 C 0.82033 0.13768 0.96381 0.0
C1596 C 0.81674 0.15267 0.82183 0.0
H1597 H 0.82833 0.12496 0.71552 0.0
C1598 C 0.81228 0.17146 0.7965 0.0
C1599 C 0.82278 0.13578 0.79216 0.0
C1600 C 0.82707 0.11469 0.81619 0.0
C1601 C 0.8134 0.1736 0.74255 0.0
C1602 C 0.81906 0.1565 0.71296 0.0
C1603 C 0.82405 0.13808 0.73832 0.0
C1604 C 0.81876 0.15658 0.6555 0.0
C1605 C 0.80831 0.19404 0.71746 0.0
C1606 C 0.80535 0.15644 0.62931 0.0
C1607 C 0.80488 0.15454 0.57551 0.0
C1608 C 0.81782 0.15282 0.54671 0.0
C1609 C 0.83126 0.15342 0.57278 0.0
C1610 C 0.83172 0.15511 0.62678 0.0
H1611 H 0.80796 0.20748 0.74546 0.0
H1612 H 0.81554 0.19851 0.6848 0.0
H1613 H 0.79714 0.19169 0.70203 0.0
H1614 H 0.7952 0.15715 0.65065 0.0
H1615 H 0.79436 0.15401 0.55653 0.0
H1616 H 0.52645 0.08936 0.97732 0.0
H1617 H 0.51007 0.05855 0.96989 0.0
H1618 H 0.52767 0.03253 0.11095 0.0
H1619 H 0.54424 0.06283 0.11796 0.0
H1620 H 0.52529 1.00228 0.03763 0.0
H1621 H 0.47335 0.0476 0.05225 0.0
H1622 H 0.48503 0.05599 1.00048 0.0
H1623 H 0.49081 0.05953 0.06624 0.0
C1624 C 0.52678 0.07711 1.00684 0.0
C1625 C 0.53662 0.07863 0.04836 0.0
C1626 C 0.51736 0.05955 1.00267 0.0
C1627 C 0.51747 0.04335 0.04029 0.0
C1628 C 0.52736 0.04481 0.08147 0.0
H1629 H 0.4528 0.95003 0.12127 0.0
H1630 H 0.46903 0.98068 0.11242 0.0
C1631 C 0.53682 0.06221 0.08545 0.0
C1632 C 0.50747 0.02469 0.03708 0.0
H1633 H 0.4715 0.01045 0.03743 0.0
C1634 C 0.51352 1.00406 0.03737 0.0
C1635 C 0.49211 0.02703 0.03727 0.0
C1636 C 0.4849 0.0487 0.03951 0.0
C1637 C 0.50469 0.98572 0.03867 0.0
C1638 C 0.48933 0.98805 0.03836 0.0
C1639 C 0.48327 0.00868 0.03728 0.0
C1640 C 0.47936 0.96938 0.04245 0.0
C1641 C 0.51192 0.96409 0.04246 0.0
C1642 C 0.47962 0.95285 1.00574 0.0
C1643 C 0.47042 0.93511 1.01099 0.0
C1644 C 0.46063 0.93372 0.05269 0.0
C1645 C 0.4602 0.95053 0.08872 0.0
C1646 C 0.46947 0.96812 0.08367 0.0
H1647 H 0.52344 0.96537 0.05542 0.0
H1648 H 0.50597 0.95353 0.06972 0.0
H1649 H 0.51188 0.95639 1.00389 0.0
H1650 H 0.4869 0.95368 0.97292 0.0
H1651 H 0.4709 0.92259 0.9822 0.0
H1652 H 0.72553 0.34217 0.25596 0.0
H1653 H 0.74202 0.31138 0.25059 0.0
H1654 H 0.71249 0.27454 0.3448 0.0
H1655 H 0.69625 0.30525 0.35155 0.0
H1656 H 0.73952 0.27095 0.3792 0.0
H1657 H 0.73947 0.25693 0.16797 0.0
H1658 H 0.74472 0.2836 0.18536 0.0
H1659 H 0.72653 0.27446 0.19908 0.0
C1660 C 0.7225 0.32745 0.27515 0.0
C1661 C 0.7096 0.32623 0.30438 0.0
C1662 C 0.73189 0.30979 0.27175 0.0
C1663 C 0.72842 0.2905 0.29674 0.0
C1664 C 0.71542 0.28921 0.32516 0.0
H1665 H 0.7708 0.16628 0.2624 0.0
H1666 H 0.75422 0.197 0.25738 0.0
C1667 C 0.70615 0.30685 0.32903 0.0
C1668 C 0.73863 0.27198 0.29617 0.0
H1669 H 0.75698 0.23744 0.2171 0.0
C1670 C 0.74328 0.2636 0.34369 0.0
C1671 C 0.74342 0.26218 0.2499 0.0
C1672 C 0.73818 0.26959 0.19769 0.0
C1673 C 0.75263 0.24587 0.34634 0.0
C1674 C 0.75787 0.23656 0.30011 0.0
C1675 C 0.7531 0.24473 0.2525 0.0
C1676 C 0.76823 0.21827 0.30068 0.0
C1677 C 0.75654 0.23701 0.39876 0.0
C1678 C 0.78176 0.22014 0.32558 0.0
C1679 C 0.79116 0.20261 0.32901 0.0
C1680 C 0.78734 0.18286 0.30687 0.0
C1681 C 0.77404 0.18122 0.28013 0.0
C1682 C 0.76456 0.19877 0.27713 0.0
H1683 H 0.74845 0.24176 0.42855 0.0
H1684 H 0.75724 0.2193 0.39794 0.0
H1685 H 0.76731 0.24342 0.41069 0.0
H1686 H 0.78502 0.23517 0.34282 0.0
H1687 H 0.80142 0.20457 0.34915 0.0
H1688 H 0.28835 0.69027 0.38289 0.0
H1689 H 0.27164 0.72046 0.37654 0.0
H1690 H 0.26128 0.70285 0.21991 0.0
H1691 H 0.27786 0.67222 0.2261 0.0
H1692 H 0.27291 0.75455 0.31055 0.0
H1693 H 0.22098 0.71021 0.28394 0.0
H1694 H 0.23756 0.69734 0.30508 0.0
H1695 H 0.23501 0.7038 0.2381 0.0
C1696 C 0.28247 0.69264 0.34709 0.0
C1697 C 0.28445 0.67869 0.30503 0.0
C1698 C 0.27292 0.70998 0.34354 0.0
C1699 C 0.26509 0.71384 0.29796 0.0
C1700 C 0.26698 0.69997 0.25584 0.0
H1701 H 0.2214 0.83703 0.24237 0.0
H1702 H 0.23734 0.80572 0.23446 0.0
C1703 C 0.27652 0.68249 0.2594 0.0
C1704 C 0.25531 0.73277 0.2946 0.0
H1705 H 0.21977 0.74791 0.27881 0.0
C1706 C 0.26129 0.75312 0.30338 0.0
C1707 C 0.24014 0.73086 0.28568 0.0
C1708 C 0.23297 0.70939 0.2781 0.0
C1709 C 0.25253 0.77155 0.30406 0.0
C1710 C 0.23738 0.76966 0.29475 0.0
C1711 C 0.2314 0.74935 0.28549 0.0
C1712 C 0.22742 0.78839 0.29765 0.0
C1713 C 0.25949 0.79278 0.31656 0.0
C1714 C 0.21631 0.78883 0.33484 0.0
C1715 C 0.20716 0.80661 0.3393 0.0
C1716 C 0.20888 0.82436 0.30648 0.0
C1717 C 0.21984 0.82373 0.26853 0.0
C1718 C 0.229 0.80587 0.26408 0.0
H1719 H 0.27046 0.7908 0.33415 0.0
H1720 H 0.26076 0.80216 0.2805 0.0
H1721 H 0.25255 0.80213 0.34348 0.0
H1722 H 0.21485 0.77551 0.36107 0.0
H1723 H 0.1988 0.80647 0.36883 0.0
H1724 H 0.47021 0.42101 0.47674 0.0
H1725 H 0.48631 0.45203 0.46701 0.0
H1726 H 0.46841 0.47954 0.60587 0.0
H1727 H 0.45213 0.44902 0.61521 0.0
H1728 H 0.4707 0.50894 0.5296 0.0
H1729 H 0.52282 0.46433 0.54979 0.0
H1730 H 0.51124 0.45516 0.49852 0.0
H1731 H 0.50538 0.45246 0.56442 0.0
C1732 C 0.46976 0.43363 0.50531 0.0
C1733 C 0.45993 0.43245 0.54692 0.0
C1734 C 0.47901 0.45132 0.49979 0.0
C1735 C 0.47873 0.468 0.53612 0.0
C1736 C 0.46884 0.46688 0.57736 0.0
H1737 H 0.54232 0.56169 0.61839 0.0
H1738 H 0.52597 0.53129 0.60856 0.0
C1739 C 0.45955 0.44935 0.5827 0.0
C1740 C 0.48864 0.48672 0.53173 0.0
H1741 H 0.52452 0.50133 0.53359 0.0
C1742 C 0.48248 0.50729 0.53017 0.0
C1743 C 0.504 0.48455 0.53291 0.0
C1744 C 0.5113 0.46297 0.53696 0.0
C1745 C 0.49122 0.52573 0.5309 0.0
C1746 C 0.50659 0.52355 0.53202 0.0
C1747 C 0.51275 0.50298 0.53241 0.0
C1748 C 0.51646 0.5423 0.53688 0.0
C1749 C 0.4839 0.54733 0.53272 0.0
C1750 C 0.51664 0.55866 0.49968 0.0
C1751 C 0.52594 0.57629 0.50546 0.0
C1752 C 0.53535 0.57771 0.54822 0.0
C1753 C 0.53524 0.56116 0.58496 0.0
C1754 C 0.5259 0.54369 0.57936 0.0
H1755 H 0.47224 0.54609 0.54394 0.0
H1756 H 0.4895 0.55809 0.56045 0.0
H1757 H 0.48442 0.55479 0.49392 0.0
H1758 H 0.50969 0.55773 0.46598 0.0
H1759 H 0.52587 0.58864 0.47616 0.0
H1760 H 0.79188 0.69317 0.87997 0.0
H1761 H 0.77516 0.72334 0.87294 0.0
H1762 H 0.7591 0.69874 0.72824 0.0
H1763 H 0.77565 0.6681 0.73551 0.0
H1764 H 0.77385 0.75418 0.79992 0.0
H1765 H 0.72147 0.70977 0.80596 0.0
H1766 H 0.73868 0.69748 0.82226 0.0
H1767 H 0.73371 0.70136 0.7558 0.0
C1768 C 0.78473 0.69402 0.84675 0.0
C1769 C 0.78508 0.6781 0.80842 0.0
C1770 C 0.77518 0.71135 0.84275 0.0
C1771 C 0.76574 0.71324 0.80037 0.0
C1772 C 0.76606 0.69742 0.76187 0.0
H1773 H 0.72085 0.83504 0.73671 0.0
H1774 H 0.7365 0.80341 0.72917 0.0
C1775 C 0.77557 0.67994 0.766 0.0
C1776 C 0.75589 0.7321 0.79643 0.0
H1777 H 0.72005 0.74703 0.79148 0.0
C1778 C 0.76208 0.75262 0.79789 0.0
C1779 C 0.74052 0.73006 0.79423 0.0
C1780 C 0.73315 0.7085 0.79493 0.0
C1781 C 0.75337 0.77112 0.79793 0.0
C1782 C 0.73802 0.7691 0.79522 0.0
C1783 C 0.73182 0.74858 0.79312 0.0
C1784 C 0.72816 0.78798 0.79789 0.0
C1785 C 0.7607 0.79262 0.80286 0.0
C1786 C 0.71793 0.78956 0.838 0.0
C1787 C 0.70889 0.80747 0.84211 0.0
C1788 C 0.70986 0.82427 0.80616 0.0
C1789 C 0.71993 0.82251 0.76539 0.0
C1790 C 0.72893 0.80447 0.76114 0.0
H1791 H 0.77208 0.79113 0.81725 0.0
H1792 H 0.7611 0.8004 0.7644 0.0
H1793 H 0.75455 0.80322 0.82946 0.0
H1794 H 0.71709 0.77703 0.86674 0.0
H1795 H 0.70125 0.80824 0.87393 0.0
H1796 H 0.29308 0.19627 0.88291 0.0
H1797 H 0.27663 0.22672 0.87441 0.0
H1798 H 0.26062 0.20152 0.73025 0.0
H1799 H 0.27686 0.17061 0.73905 0.0
H1800 H 0.27523 0.25735 0.80076 0.0
H1801 H 0.22302 0.21253 0.80772 0.0
H1802 H 0.24027 0.20042 0.82417 0.0
H1803 H 0.23525 0.20404 0.75765 0.0
C1804 C 0.28602 0.19708 0.84946 0.0
C1805 C 0.28624 0.18087 0.81183 0.0
C1806 C 0.27663 0.21457 0.84462 0.0
C1807 C 0.26724 0.21632 0.80204 0.0
C1808 C 0.26752 0.2003 0.76404 0.0
H1809 H 0.22123 0.33731 0.73694 0.0
H1810 H 0.23755 0.30638 0.73013 0.0
C1811 C 0.27686 0.18266 0.76905 0.0
C1812 C 0.25735 0.23511 0.79764 0.0
H1813 H 0.22146 0.24969 0.79243 0.0
C1814 C 0.26347 0.25569 0.79875 0.0
C1815 C 0.242 0.23293 0.79546 0.0
C1816 C 0.2347 0.21132 0.79664 0.0
C1817 C 0.25469 0.27412 0.79851 0.0
C1818 C 0.23934 0.27194 0.7959 0.0
C1819 C 0.23323 0.25136 0.79403 0.0
C1820 C 0.22936 0.29067 0.79872 0.0
C1821 C 0.26191 0.2957 0.80308 0.0
C1822 C 0.21907 0.29192 0.83868 0.0
C1823 C 0.20965 0.30941 0.84233 0.0
C1824 C 0.2103 0.32614 0.8061 0.0
C1825 C 0.22054 0.32483 0.7658 0.0
C1826 C 0.22993 0.30719 0.76197 0.0
H1827 H 0.27331 0.29436 0.8173 0.0
H1828 H 0.26222 0.30341 0.76453 0.0
H1829 H 0.25574 0.30628 0.82965 0.0
H1830 H 0.2184 0.27939 0.86746 0.0
H1831 H 0.20191 0.30983 0.87388 0.0
H1832 H 0.97106 0.91983 0.48242 0.0
H1833 H 0.98706 0.95093 0.4724 0.0
H1834 H 0.96993 0.97771 0.6133 0.0
H1835 H 0.95373 0.9471 0.62291 0.0
H1836 H 0.97161 0.00746 0.53809 0.0
H1837 H 0.02407 0.96337 0.55175 0.0
H1838 H 0.01221 0.95429 0.50122 0.0
H1839 H 0.00681 0.9512 0.56752 0.0
C1840 C 0.97076 0.93229 0.5114 0.0
C1841 C 0.96116 0.93089 0.55362 0.0
C1842 C 0.97996 0.95004 0.50572 0.0
C1843 C 0.97986 0.96655 0.5425 0.0
C1844 C 0.97022 0.96519 0.58443 0.0
H1845 H 0.04395 0.06104 0.61736 0.0
H1846 H 0.02772 0.03038 0.60976 0.0
C1847 C 0.96098 0.9476 0.58992 0.0
C1848 C 0.98965 0.98542 0.53767 0.0
H1849 H 0.02547 1.00042 0.53533 0.0
C1850 C 0.98339 0.00593 0.53725 0.0
C1851 C 0.00503 0.98342 0.53701 0.0
C1852 C 0.01247 0.96192 0.53986 0.0
C1853 C 0.99205 0.02446 0.53717 0.0
C1854 C 0.00743 0.02246 0.53624 0.0
C1855 C 0.01368 1.00195 0.53568 0.0
C1856 C 0.01725 0.04133 0.53972 0.0
C1857 C 0.98464 0.04597 0.54025 0.0
C1858 C 0.01688 0.05775 0.50266 0.0
C1859 C 0.0261 0.07552 0.50718 0.0
C1860 C 0.03601 0.07705 0.54849 0.0
C1861 C 0.03647 0.06043 0.58503 0.0
C1862 C 0.0272 0.04282 0.5807 0.0
H1863 H 0.97313 0.04457 0.55326 0.0
H1864 H 0.99051 0.05678 0.56713 0.0
H1865 H 0.98462 0.05347 0.50143 0.0
H1866 H 0.00953 0.05675 0.47005 0.0
H1867 H 0.02558 0.08792 0.47805 0.0
H1868 H 0.95103 0.44962 0.11669 0.0
H1869 H 0.96682 0.48065 0.10741 0.0
H1870 H 0.98683 0.45225 0.97328 0.0
H1871 H 0.97116 0.42072 0.98288 0.0
H1872 H 0.00697 0.46889 0.03812 0.0
H1873 H 0.96376 0.52896 1.00486 0.0
H1874 H 0.96059 0.51411 0.06297 0.0
H1875 H 0.96032 0.50059 1.00161 0.0
C1876 C 0.95872 0.44993 0.08498 0.0
C1877 C 0.95977 0.43266 0.0504 0.0
C1878 C 0.96769 0.46782 0.07951 0.0
C1879 C 0.97779 0.46905 0.03896 0.0
C1880 C 0.97901 0.45175 1.00461 0.0
H1881 H 0.02499 0.58942 0.98414 0.0
H1882 H 0.0092 0.55816 0.97292 0.0
C1883 C 0.97007 0.43372 1.0102 0.0
C1884 C 0.98747 0.48803 0.03419 0.0
H1885 H 0.98711 0.54264 0.03145 0.0
C1886 C 0.00263 0.485 0.036 0.0
C1887 C 0.98185 0.50907 0.03036 0.0
C1888 C 0.96574 0.51338 0.02426 0.0
C1889 C 0.01227 0.50245 0.03664 0.0
C1890 C 0.00659 0.52351 0.03674 0.0
C1891 C 0.99147 0.52652 0.0323 0.0
C1892 C 0.01612 0.54256 0.04337 0.0
C1893 C 0.02847 0.4981 0.03721 0.0
C1894 C 0.02501 0.54444 0.08723 0.0
C1895 C 0.03405 0.5622 0.09366 0.0
C1896 C 0.03429 0.57867 0.05668 0.0
C1897 C 0.02508 0.57705 0.01339 0.0
C1898 C 0.01607 0.55917 1.00685 0.0
H1899 H 0.03103 0.48222 0.02028 0.0
H1900 H 0.03456 0.51053 0.01552 0.0
H1901 H 0.03239 0.49807 0.07772 0.0
H1902 H 0.02492 0.53217 0.11671 0.0
H1903 H 0.04088 0.56297 0.12772 0.0
H1904 H 0.60231 0.08096 0.98936 0.0
H1905 H 0.61724 0.04927 0.97148 0.0
H1906 H 0.58199 0.02203 0.88323 0.0
H1907 H 0.56698 0.05338 0.90134 0.0
H1908 H 0.59461 0.99302 0.95051 0.0
H1909 H 0.63673 0.03447 0.83361 0.0
H1910 H 0.63388 0.04566 0.89665 0.0
H1911 H 0.61948 0.04667 0.84968 0.0
C1912 C 0.59775 0.06823 0.96612 0.0
C1913 C 0.58348 0.06978 0.94655 0.0
C1914 C 0.60632 0.05018 0.95569 0.0
C1915 C 0.60081 0.03341 0.92535 0.0
C1916 C 0.5865 0.0348 0.90651 0.0
H1917 H 0.65046 0.93196 0.77727 0.0
H1918 H 0.63463 0.96237 0.79674 0.0
C1919 C 0.57794 0.05279 0.91686 0.0
C1920 C 0.60982 0.01427 0.9135 0.0
H1921 H 0.64116 0.99808 0.85377 0.0
C1922 C 0.60479 0.99411 0.92934 0.0
C1923 C 0.62298 0.01568 0.88518 0.0
C1924 C 0.62856 0.03674 0.86481 0.0
C1925 C 0.61264 0.97536 0.9182 0.0
C1926 C 0.62602 0.97683 0.89116 0.0
C1927 C 0.63096 0.99697 0.87478 0.0
C1928 C 0.63508 0.9577 0.87946 0.0
C1929 C 0.60638 0.95412 0.93461 0.0
C1930 C 0.6406 0.94492 0.91946 0.0
C1931 C 0.6496 0.92742 0.9085 0.0
C1932 C 0.65341 0.92242 0.85722 0.0
C1933 C 0.64776 0.93521 0.81719 0.0
C1934 C 0.63873 0.95268 0.82824 0.0
H1935 H 0.59444 0.95517 0.9415 0.0
H1936 H 0.60845 0.94163 0.90507 0.0
H1937 H 0.61162 0.94903 0.9712 0.0
H1938 H 0.63821 0.94873 0.95934 0.0
H1939 H 0.65381 0.91812 0.94047 0.0
H1940 H 0.39909 0.93534 1.00657 0.0
H1941 H 0.38496 0.96789 0.98956 0.0
H1942 H 0.41553 0.9858 0.87067 0.0
H1943 H 0.42985 0.95376 0.88829 0.0
H1944 H 0.40858 0.0195 0.9305 0.0
H1945 H 0.3581 0.97794 0.86837 0.0
H1946 H 0.36405 0.97088 0.93213 0.0
H1947 H 0.37517 0.96408 0.87733 0.0
C1948 C 0.40277 0.94621 0.97676 0.0
C1949 C 0.41554 0.94187 0.94859 0.0
C1950 C 0.39465 0.96476 0.96688 0.0
C1951 C 0.39904 0.97915 0.9282 0.0
C1952 C 0.41189 0.97494 0.90059 0.0
H1953 H 0.34577 0.07343 0.77385 0.0
H1954 H 0.3612 0.04324 0.79827 0.0
C1955 C 0.42005 0.95654 0.91067 0.0
C1956 C 0.39036 0.99863 0.91618 0.0
H1957 H 0.35688 0.01559 0.87536 0.0
C1958 C 0.39727 0.01866 0.91847 0.0
C1959 C 0.37565 0.99752 0.89984 0.0
C1960 C 0.36782 0.97645 0.89374 0.0
C1961 C 0.38991 0.03755 0.90474 0.0
C1962 C 0.37511 0.03647 0.8894 0.0
C1963 C 0.36819 0.01645 0.88736 0.0
C1964 C 0.36666 0.05573 0.87372 0.0
C1965 C 0.39821 0.05837 0.90529 0.0
C1966 C 0.3647 0.073 0.90771 0.0
C1967 C 0.35602 0.09048 0.89352 0.0
C1968 C 0.34891 0.09084 0.84538 0.0
C1969 C 0.35107 0.07367 0.8112 0.0
C1970 C 0.35986 0.05635 0.82518 0.0
H1971 H 0.41018 0.05571 0.90367 0.0
H1972 H 0.395 0.06869 0.87232 0.0
H1973 H 0.39575 0.06705 0.9416 0.0
H1974 H 0.36954 0.07271 0.94581 0.0
H1975 H 0.35443 0.10329 0.92106 0.0
H1976 H 0.65386 0.33037 0.16472 0.0
H1977 H 0.64157 0.29798 0.13491 0.0
H1978 H 0.6389 0.27528 0.29183 0.0
H1979 H 0.65077 0.30794 0.3221 0.0
H1980 H 0.6498 0.25713 0.14107 0.0
H1981 H 0.59752 0.267 0.24594 0.0
H1982 H 0.61076 0.28821 0.24107 0.0
H1983 H 0.61307 0.26722 0.28793 0.0
C1984 C 0.65054 0.31858 0.19297 0.0
C1985 C 0.65319 0.32182 0.24585 0.0
C1986 C 0.64354 0.30004 0.17584 0.0
C1987 C 0.63908 0.2843 0.21114 0.0
C1988 C 0.64186 0.28741 0.26394 0.0
H1989 H 0.60224 0.15688 0.16935 0.0
H1990 H 0.61593 0.18786 0.20094 0.0
C1991 C 0.64872 0.30607 0.28118 0.0
C1992 C 0.63196 0.26439 0.19235 0.0
H1993 H 0.60143 0.23346 0.20494 0.0
C1994 C 0.6392 0.25203 0.15495 0.0
C1995 C 0.6181 0.25771 0.21033 0.0
C1996 C 0.60934 0.27083 0.24813 0.0
C1997 C 0.63302 0.23314 0.13543 0.0
C1998 C 0.61928 0.22643 0.15384 0.0
C1999 C 0.61205 0.23863 0.19134 0.0
C2000 C 0.61195 0.20717 0.13318 0.0
C2001 C 0.64118 0.22038 0.09538 0.0
C2002 C 0.60533 0.20777 0.08445 0.0
C2003 C 0.59743 0.19019 0.06638 0.0
C2004 C 0.59607 0.17162 0.09666 0.0
C2005 C 0.60314 0.17085 0.14486 0.0
C2006 C 0.61091 0.18856 0.16312 0.0
H2007 H 0.65254 0.22614 0.09017 0.0
H2008 H 0.64144 0.20322 0.10639 0.0
H2009 H 0.63542 0.22162 0.05782 0.0
H2010 H 0.60596 0.22207 0.06094 0.0
H2011 H 0.59213 0.19134 0.02913 0.0
H2012 H 0.40795 0.8186 0.03313 0.0
H2013 H 0.39378 0.78782 0.06211 0.0
H2014 H 0.38072 0.82254 0.19826 0.0
H2015 H 0.39458 0.85361 0.16898 0.0
H2016 H 0.39799 0.76453 0.14815 0.0
H2017 H 0.34214 0.79854 0.15162 0.0
H2018 H 0.35716 0.81182 0.12008 0.0
H2019 H 0.35497 0.81369 0.18895 0.0
C2020 C 0.40187 0.81986 0.06884 0.0
C2021 C 0.40237 0.83866 0.09857 0.0
C2022 C 0.3938 0.80218 0.08544 0.0
C2023 C 0.38603 0.80288 0.1321 0.0
C2024 C 0.38633 0.82174 0.16154 0.0
H2025 H 0.34092 0.70588 0.31315 0.0
H2026 H 0.35371 0.73798 0.28335 0.0
C2027 C 0.39432 0.8395 0.14478 0.0
C2028 C 0.37837 0.78347 0.1512 0.0
H2029 H 0.34529 0.76452 0.19144 0.0
C2030 C 0.38645 0.76453 0.15729 0.0
C2031 C 0.3633 0.78343 0.1633 0.0
C2032 C 0.35384 0.80289 0.15521 0.0
C2033 C 0.37993 0.74568 0.17558 0.0
C2034 C 0.36492 0.74571 0.1879 0.0
C2035 C 0.35683 0.7646 0.18212 0.0
C2036 C 0.35738 0.72613 0.20605 0.0
C2037 C 0.38916 0.7259 0.1823 0.0
C2038 C 0.35517 0.70888 0.17234 0.0
C2039 C 0.3478 0.69057 0.18911 0.0
C2040 C 0.34256 0.68912 0.24003 0.0
C2041 C 0.34489 0.70641 0.2738 0.0
C2042 C 0.35214 0.7248 0.25682 0.0
H2043 H 0.401 0.72954 0.18051 0.0
H2044 H 0.38673 0.71805 0.21978 0.0
H2045 H 0.38656 0.71435 0.15112 0.0
H2046 H 0.35901 0.70969 0.13285 0.0
H2047 H 0.34618 0.67759 0.16206 0.0
H2048 H 0.65341 0.43784 0.28185 0.0
H2049 H 0.63845 0.46812 0.30884 0.0
H2050 H 0.62907 0.43642 0.45285 0.0
H2051 H 0.64379 0.40575 0.42568 0.0
H2052 H 0.60498 0.4556 0.41288 0.0
H2053 H 0.65106 0.51267 0.41293 0.0
H2054 H 0.64893 0.49957 0.35182 0.0
H2055 H 0.65368 0.48415 0.40805 0.0
C2056 C 0.6481 0.4372 0.31917 0.0
C2057 C 0.6499 0.4194 0.35174 0.0
C2058 C 0.63965 0.45463 0.33472 0.0
C2059 C 0.63296 0.4548 0.38344 0.0
C2060 C 0.63425 0.43673 0.41529 0.0
H2061 H 0.59791 0.57401 0.5122 0.0
H2062 H 0.61209 0.5412 0.49914 0.0
C2063 C 0.64264 0.41918 0.39959 0.0
C2064 C 0.62459 0.47384 0.40086 0.0
H2065 H 0.62713 0.52791 0.41675 0.0
C2066 C 0.60985 0.47138 0.41415 0.0
C2067 C 0.63103 0.49437 0.40375 0.0
C2068 C 0.64708 0.49785 0.39393 0.0
C2069 C 0.60122 0.48902 0.4282 0.0
C2070 C 0.60742 0.50976 0.4277 0.0
C2071 C 0.62231 0.51208 0.41644 0.0
C2072 C 0.59856 0.52931 0.43699 0.0
C2073 C 0.58559 0.4852 0.4438 0.0
C2074 C 0.58635 0.5337 0.40606 0.0
C2075 C 0.5782 0.5523 0.41367 0.0
C2076 C 0.58221 0.56715 0.45188 0.0
C2077 C 0.59454 0.5629 0.48248 0.0
C2078 C 0.60264 0.54415 0.47507 0.0
H2079 H 0.58402 0.46871 0.45872 0.0
H2080 H 0.58201 0.49671 0.47388 0.0
H2081 H 0.57845 0.48714 0.40953 0.0
H2082 H 0.58322 0.52286 0.37543 0.0
H2083 H 0.56885 0.55515 0.38908 0.0
H2084 H 0.34631 0.57292 0.26726 0.0
H2085 H 0.36111 0.54264 0.29549 0.0
H2086 H 0.36911 0.57402 0.44092 0.0
H2087 H 0.35454 0.60468 0.41249 0.0
H2088 H 0.39349 0.55427 0.40448 0.0
H2089 H 0.34682 0.49832 0.39749 0.0
H2090 H 0.34981 0.51139 0.33679 0.0
H2091 H 0.34458 0.5269 0.39233 0.0
C2092 C 0.35133 0.57351 0.30509 0.0
C2093 C 0.34914 0.59117 0.33775 0.0
C2094 C 0.35969 0.55608 0.32135 0.0
C2095 C 0.36588 0.55577 0.3709 0.0
C2096 C 0.36431 0.5738 0.40272 0.0
H2097 H 0.3981 0.43555 0.50417 0.0
H2098 H 0.38443 0.46872 0.4893 0.0
C2099 C 0.35602 0.59137 0.3863 0.0
C2100 C 0.37384 0.53652 0.38943 0.0
H2101 H 0.3705 0.4825 0.40483 0.0
C2102 C 0.38843 0.5386 0.40495 0.0
C2103 C 0.36714 0.51614 0.39134 0.0
C2104 C 0.35118 0.51305 0.37915 0.0
C2105 C 0.39668 0.52074 0.42024 0.0
C2106 C 0.39027 0.50015 0.41876 0.0
C2107 C 0.3755 0.49821 0.40529 0.0
C2108 C 0.39879 0.48035 0.42921 0.0
C2109 C 0.41216 0.52416 0.43818 0.0
C2110 C 0.41128 0.47569 0.4 0.0
C2111 C 0.41913 0.45688 0.40862 0.0
C2112 C 0.41454 0.44209 0.44615 0.0
C2113 C 0.40193 0.44661 0.47501 0.0
C2114 C 0.39411 0.46556 0.46657 0.0
H2115 H 0.41374 0.54061 0.45339 0.0
H2116 H 0.41524 0.51255 0.46871 0.0
H2117 H 0.41968 0.52206 0.405 0.0
H2118 H 0.41488 0.48649 0.36993 0.0
H2119 H 0.42873 0.45384 0.38536 0.0
H2120 H 0.64916 0.8216 0.76295 0.0
H2121 H 0.63485 0.78918 0.74735 0.0
H2122 H 0.66381 0.77193 0.62294 0.0
H2123 H 0.67836 0.80384 0.63925 0.0
H2124 H 0.6198 0.77704 0.66489 0.0
H2125 H 0.66269 0.71678 0.7016 0.0
H2126 H 0.66489 0.74457 0.71851 0.0
H2127 H 0.66824 0.73568 0.65344 0.0
C2128 C 0.65253 0.81081 0.73252 0.0
C2129 C 0.66495 0.81525 0.70254 0.0
C2130 C 0.64434 0.79228 0.72365 0.0
C2131 C 0.6484 0.77784 0.68463 0.0
C2132 C 0.66069 0.78243 0.65427 0.0
H2133 H 0.59216 0.68849 0.52755 0.0
H2134 H 0.6074 0.71838 0.55486 0.0
C2135 C 0.66894 0.80082 0.6634 0.0
C2136 C 0.63945 0.75852 0.67397 0.0
H2137 H 0.64151 0.70447 0.65596 0.0
C2138 C 0.62453 0.76115 0.66343 0.0
C2139 C 0.64552 0.73769 0.67298 0.0
C2140 C 0.66118 0.73346 0.68781 0.0
C2141 C 0.61566 0.7437 0.65021 0.0
C2142 C 0.62196 0.72309 0.64592 0.0
C2143 C 0.63674 0.72031 0.65831 0.0
C2144 C 0.61339 0.70431 0.62819 0.0
C2145 C 0.59959 0.74751 0.64152 0.0
C2146 C 0.61227 0.68594 0.65911 0.0
C2147 C 0.60373 0.6686 0.64316 0.0
C2148 C 0.59614 0.66934 0.59599 0.0
C2149 C 0.59772 0.68746 0.56434 0.0
C2150 C 0.60634 0.70467 0.5801 0.0
H2151 H 0.59578 0.76218 0.66162 0.0
H2152 H 0.59755 0.7497 0.59963 0.0
H2153 H 0.59297 0.73377 0.65519 0.0
H2154 H 0.61771 0.68522 0.69617 0.0
H2155 H 0.60274 0.65491 0.66853 0.0
H2156 H 0.4085 0.31676 0.537 0.0
H2157 H 0.39289 0.28728 0.56392 0.0
H2158 H 0.37274 0.32774 0.67822 0.0
H2159 H 0.38857 0.35738 0.65216 0.0
H2160 H 0.38037 0.2883 0.71718 0.0
H2161 H 0.34988 0.27862 0.53414 0.0
H2162 H 0.36928 0.27761 0.52536 0.0
H2163 H 0.36085 0.30189 0.5477 0.0
C2164 C 0.40066 0.31954 0.56754 0.0
C2165 C 0.39975 0.33954 0.59217 0.0
C2166 C 0.39169 0.30263 0.58275 0.0
C2167 C 0.38148 0.30536 0.62254 0.0
C2168 C 0.38049 0.3253 0.64721 0.0
H2169 H 0.31285 0.21301 0.68486 0.0
H2170 H 0.32682 0.24522 0.66537 0.0
C2171 C 0.3895 0.34226 0.6321 0.0
C2172 C 0.3722 0.28717 0.63931 0.0
H2173 H 0.34785 0.2502 0.59507 0.0
C2174 C 0.37317 0.28005 0.69062 0.0
C2175 C 0.36267 0.27657 0.60482 0.0
C2176 C 0.36047 0.28418 0.55008 0.0
C2177 C 0.36513 0.26232 0.70803 0.0
C2178 C 0.35609 0.25115 0.67289 0.0
C2179 C 0.35489 0.25859 0.62191 0.0
C2180 C 0.34763 0.23186 0.68802 0.0
C2181 C 0.36625 0.25595 0.76405 0.0
C2182 C 0.35466 0.21356 0.70742 0.0
C2183 C 0.34665 0.1951 0.71902 0.0
C2184 C 0.33151 0.1945 0.71067 0.0
C2185 C 0.32451 0.21288 0.69155 0.0
C2186 C 0.33248 0.23134 0.68038 0.0
H2187 H 0.37003 0.26945 0.78845 0.0
H2188 H 0.35559 0.25026 0.77905 0.0
H2189 H 0.37428 0.24277 0.76793 0.0
H2190 H 0.36638 0.21336 0.71252 0.0
H2191 H 0.35238 0.18116 0.73336 0.0
H2192 H 0.14796 0.9293 0.27842 0.0
H2193 H 0.13236 0.95992 0.29818 0.0
H2194 H 0.13487 0.945 0.46035 0.0
H2195 H 0.15029 0.9142 0.44121 0.0
H2196 H 0.10689 0.95645 0.42874 0.0
H2197 H 0.14796 0.01542 0.36184 0.0
H2198 H 0.14315 0.99567 0.31451 0.0
H2199 H 0.15233 0.98764 0.3727 0.0
C2200 C 0.1451 0.93233 0.3183 0.0
C2201 C 0.15054 0.91927 0.3582 0.0
C2202 C 0.13626 0.94999 0.32954 0.0
C2203 C 0.13271 0.95502 0.38083 0.0
C2204 C 0.13757 0.94152 0.42051 0.0
H2205 H 0.10038 0.07793 0.493 0.0
H2206 H 0.11474 0.04548 0.47715 0.0
C2207 C 0.14641 0.92387 0.40939 0.0
C2208 C 0.12417 0.97454 0.39335 0.0
H2209 H 0.12461 0.02903 0.38386 0.0
C2210 C 0.11077 0.97232 0.41899 0.0
C2211 C 0.12936 0.99527 0.38149 0.0
C2212 C 0.14405 0.99875 0.35656 0.0
C2213 C 0.10228 0.99024 0.43211 0.0
C2214 C 0.10723 0.01092 0.41855 0.0
C2215 C 0.12077 0.01316 0.39387 0.0
C2216 C 0.09844 0.03042 0.42896 0.0
C2217 C 0.08818 0.98687 0.46103 0.0
C2218 C 0.08459 0.03284 0.40671 0.0
C2219 C 0.07638 0.05129 0.41571 0.0
C2220 C 0.08188 0.06785 0.4469 0.0
C2221 C 0.09581 0.06548 0.4689 0.0
C2222 C 0.10403 0.04696 0.45985 0.0
H2223 H 0.08799 0.97114 0.48095 0.0
H2224 H 0.08642 0.99966 0.49009 0.0
H2225 H 0.07896 0.98726 0.43332 0.0
H2226 H 0.08017 0.02052 0.38185 0.0
H2227 H 0.06572 0.0526 0.39792 0.0
H2228 H 0.89396 0.92703 0.48286 0.0
H2229 H 0.87905 0.95854 0.46269 0.0
H2230 H 0.91767 0.99267 0.41569 0.0
H2231 H 0.93253 0.96123 0.43445 0.0
H2232 H 0.87915 0.99984 0.4982 0.0
H2233 H 0.89211 0.99854 0.28933 0.0
H2234 H 0.89651 0.97661 0.33178 0.0
H2235 H 0.90806 0.99983 0.32924 0.0
C2236 C 0.89926 0.94127 0.46831 0.0
C2237 C 0.91439 0.94152 0.45958 0.0
C2238 C 0.89073 0.95927 0.45683 0.0
C2239 C 0.8972 0.97782 0.43656 0.0
C2240 C 0.91238 0.97836 0.42988 0.0
H2241 H 0.85683 0.10424 0.41206 0.0
H2242 H 0.8718 0.07351 0.43724 0.0
C2243 C 0.92087 0.96037 0.44087 0.0
C2244 C 0.88811 0.99656 0.4218 0.0
H2245 H 0.8799 0.02946 0.3206 0.0
C2246 C 0.87927 0.00629 0.45935 0.0
C2247 C 0.88809 0.00478 0.37086 0.0
C2248 C 0.89658 0.99428 0.32785 0.0
C2249 C 0.87062 0.02423 0.44755 0.0
C2250 C 0.87105 0.03292 0.39711 0.0
C2251 C 0.87972 0.02298 0.35943 0.0
C2252 C 0.86218 0.05181 0.38183 0.0
C2253 C 0.86085 0.03338 0.48888 0.0
C2254 C 0.85213 0.05006 0.34122 0.0
C2255 C 0.84371 0.06762 0.32631 0.0
C2256 C 0.84515 0.08741 0.35163 0.0
C2257 C 0.85541 0.08925 0.39179 0.0
C2258 C 0.86388 0.07163 0.40658 0.0
H2259 H 0.8589 0.02173 0.5205 0.0
H2260 H 0.86613 0.0477 0.50586 0.0
H2261 H 0.85016 0.03831 0.47258 0.0
H2262 H 0.85067 0.03497 0.32136 0.0
H2263 H 0.83593 0.06556 0.29526 0.0
H2264 H 0.08682 0.19333 0.53617 0.0
H2265 H 0.10232 0.22303 0.56232 0.0
H2266 H 0.12338 0.18274 0.67499 0.0
H2267 H 0.10764 0.15287 0.64973 0.0
H2268 H 0.11578 0.22214 0.71459 0.0
H2269 H 0.14509 0.23213 0.52922 0.0
H2270 H 0.12564 0.23296 0.52201 0.0
H2271 H 0.13432 0.20875 0.54363 0.0
C2272 C 0.09483 0.19063 0.56619 0.0
C2273 C 0.09603 0.17059 0.59056 0.0
C2274 C 0.10374 0.20767 0.58096 0.0
C2275 C 0.11418 0.20505 0.62005 0.0
C2276 C 0.11544 0.18509 0.64453 0.0
H2277 H 0.18327 0.29691 0.67764 0.0
H2278 H 0.16896 0.265 0.65871 0.0
C2279 C 0.10648 0.168 0.62986 0.0
C2280 C 0.12347 0.22335 0.63612 0.0
H2281 H 0.14748 0.26044 0.59012 0.0
C2282 C 0.1228 0.23044 0.6875 0.0
C2283 C 0.13275 0.23403 0.60092 0.0
C2284 C 0.13463 0.22647 0.54601 0.0
C2285 C 0.13092 0.24819 0.70435 0.0
C2286 C 0.13973 0.2594 0.66858 0.0
C2287 C 0.14061 0.25202 0.61746 0.0
C2288 C 0.14839 0.27858 0.68322 0.0
C2289 C 0.13014 0.25452 0.76047 0.0
C2290 C 0.14162 0.29693 0.70347 0.0
C2291 C 0.14982 0.31524 0.71477 0.0
C2292 C 0.16492 0.31563 0.70526 0.0
C2293 C 0.17166 0.29721 0.68522 0.0
C2294 C 0.16349 0.27891 0.67437 0.0
H2295 H 0.12643 0.24103 0.78508 0.0
H2296 H 0.14091 0.26008 0.77472 0.0
H2297 H 0.1222 0.26778 0.76497 0.0
H2298 H 0.12994 0.29727 0.70954 0.0
H2299 H 0.1443 0.32921 0.72986 0.0
H2300 H 0.85214 0.67942 0.72894 0.0
H2301 H 0.86628 0.71169 0.71006 0.0
H2302 H 0.82677 0.74483 0.66784 0.0
H2303 H 0.81264 0.71257 0.68537 0.0
H2304 H 0.84755 0.75054 0.5969 0.0
H2305 H 0.8707 0.76655 0.79058 0.0
H2306 H 0.87465 0.74012 0.76761 0.0
H2307 H 0.85607 0.74774 0.78031 0.0
C2308 C 0.84646 0.69365 0.71609 0.0
C2309 C 0.83127 0.69341 0.70857 0.0
C2310 C 0.85455 0.71214 0.70563 0.0
C2311 C 0.84758 0.73082 0.68821 0.0
C2312 C 0.8324 0.73065 0.68135 0.0
H2313 H 0.88977 0.85593 0.65989 0.0
H2314 H 0.87368 0.82639 0.68472 0.0
C2315 C 0.82433 0.71216 0.69139 0.0
C2316 C 0.85613 0.7502 0.67431 0.0
H2317 H 0.88096 0.78617 0.72034 0.0
C2318 C 0.85478 0.7584 0.62405 0.0
C2319 C 0.86542 0.76068 0.70987 0.0
C2320 C 0.86671 0.75347 0.76526 0.0
C2321 C 0.86268 0.77644 0.60805 0.0
C2322 C 0.87246 0.78633 0.64287 0.0
C2323 C 0.87356 0.77847 0.69352 0.0
C2324 C 0.88191 0.80448 0.62702 0.0
C2325 C 0.86034 0.78486 0.55409 0.0
C2326 C 0.89193 0.80196 0.58655 0.0
C2327 C 0.90104 0.8188 0.57206 0.0
C2328 C 0.90047 0.83853 0.5981 0.0
C2329 C 0.89044 0.84103 0.63875 0.0
C2330 C 0.88127 0.82413 0.65315 0.0
H2331 H 0.84961 0.7798 0.5383 0.0
H2332 H 0.86092 0.80259 0.55311 0.0
H2333 H 0.86895 0.77841 0.52836 0.0
H2334 H 0.89286 0.78681 0.56658 0.0
H2335 H 0.90872 0.81618 0.54092 0.0
H2336 H 0.1016 0.57911 0.97779 0.0
H2337 H 0.11612 0.54739 0.95641 0.0
H2338 H 0.07681 0.51309 0.91807 0.0
H2339 H 0.06229 0.54476 0.93814 0.0
H2340 H 0.1164 0.50637 0.994 0.0
H2341 H 0.10061 0.50624 0.78745 0.0
H2342 H 0.09685 0.5285 0.82964 0.0
H2343 H 0.08528 0.50529 0.8304 0.0
C2344 C 0.09605 0.56479 0.96491 0.0
C2345 C 0.08081 0.56455 0.95901 0.0
C2346 C 0.10436 0.54667 0.95274 0.0
C2347 C 0.09758 0.528 0.93454 0.0
C2348 C 0.08232 0.52748 0.93065 0.0
H2349 H 0.13897 0.40222 0.90744 0.0
H2350 H 0.12356 0.43241 0.93313 0.0
C2351 C 0.07403 0.5456 0.94239 0.0
C2352 C 0.10645 0.50915 0.91903 0.0
H2353 H 0.11362 0.47588 0.81755 0.0
C2354 C 0.11581 0.49971 0.95542 0.0
C2355 C 0.10585 0.50064 0.86841 0.0
C2356 C 0.09672 0.5108 0.82655 0.0
C2357 C 0.12444 0.48186 0.94276 0.0
C2358 C 0.12345 0.47294 0.89266 0.0
C2359 C 0.11422 0.48253 0.85615 0.0
C2360 C 0.1324 0.45428 0.87645 0.0
C2361 C 0.1348 0.47306 0.98273 0.0
C2362 C 0.1421 0.45628 0.83489 0.0
C2363 C 0.15079 0.43902 0.81974 0.0
C2364 C 0.14994 0.41931 0.84575 0.0
C2365 C 0.13994 0.41716 0.88661 0.0
C2366 C 0.13121 0.43448 0.90169 0.0
H2367 H 0.13693 0.48478 0.01404 0.0
H2368 H 0.12995 0.45857 1.00044 0.0
H2369 H 0.14537 0.46847 0.96493 0.0
H2370 H 0.14315 0.47135 0.81464 0.0
H2371 H 0.15835 0.4413 0.7881 0.0
H2372 H 0.84607 0.57179 0.76728 0.0
H2373 H 0.86105 0.54148 0.79428 0.0
H2374 H 0.87047 0.57323 0.93816 0.0
H2375 H 0.85577 0.60392 0.91087 0.0
H2376 H 0.89437 0.55323 0.90026 0.0
H2377 H 0.84754 0.49749 0.89783 0.0
H2378 H 0.85023 0.51027 0.83661 0.0
H2379 H 0.84533 0.52604 0.89209 0.0
C2380 C 0.85144 0.57245 0.80447 0.0
C2381 C 0.84963 0.59023 0.83703 0.0
C2382 C 0.8599 0.555 0.82005 0.0
C2383 C 0.86654 0.55479 0.86888 0.0
C2384 C 0.86533 0.57294 0.90052 0.0
H2385 H 0.89888 0.43529 1.00486 0.0
H2386 H 0.88529 0.46841 0.98871 0.0
C2387 C 0.85696 0.59051 0.88475 0.0
C2388 C 0.87459 0.53553 0.88697 0.0
H2389 H 0.87119 0.48162 0.90428 0.0
C2390 C 0.88927 0.53759 0.90149 0.0
C2391 C 0.86786 0.51519 0.88986 0.0
C2392 C 0.85183 0.51211 0.87882 0.0
C2393 C 0.89755 0.51976 0.9169 0.0
C2394 C 0.89106 0.49921 0.91654 0.0
C2395 C 0.87624 0.49729 0.90389 0.0
C2396 C 0.89954 0.47943 0.92764 0.0
C2397 C 0.91311 0.52321 0.93389 0.0
C2398 C 0.91195 0.47444 0.89832 0.0
C2399 C 0.91976 0.45564 0.90768 0.0
C2400 C 0.91521 0.44121 0.94607 0.0
C2401 C 0.90267 0.44606 0.97503 0.0
C2402 C 0.8949 0.465 0.96585 0.0
H2403 H 0.91481 0.53975 0.94828 0.0
H2404 H 0.91627 0.51181 0.96479 0.0
H2405 H 0.92049 0.52079 0.90044 0.0
H2406 H 0.91552 0.48495 0.86762 0.0
H2407 H 0.9293 0.45234 0.88434 0.0
H2408 H 0.16539 0.81611 0.1733 0.0
H2409 H 0.15403 0.78293 0.14433 0.0
H2410 H 0.12925 0.77979 0.28553 0.0
H2411 H 0.14048 0.8132 0.3148 0.0
H2412 H 0.15386 0.74199 0.19018 0.0
H2413 H 0.098 0.77575 0.17172 0.0
H2414 H 0.11397 0.79237 0.1783 0.0
H2415 H 0.1064 0.77923 0.23382 0.0
C2416 C 0.15751 0.80843 0.19828 0.0
C2417 C 0.15376 0.81744 0.24626 0.0
C2418 C 0.15107 0.7894 0.18167 0.0
C2419 C 0.14068 0.77902 0.21247 0.0
C2420 C 0.13708 0.78773 0.26078 0.0
H2421 H 0.10535 0.65076 0.16231 0.0
H2422 H 0.11921 0.68129 0.19518 0.0
C2423 C 0.14354 0.80679 0.27752 0.0
C2424 C 0.13354 0.75923 0.19346 0.0
H2425 H 0.10065 0.73874 0.15658 0.0
C2426 C 0.14222 0.74122 0.18293 0.0
C2427 C 0.11839 0.75837 0.18347 0.0
C2428 C 0.10862 0.77749 0.19194 0.0
C2429 C 0.13613 0.72236 0.16279 0.0
C2430 C 0.12094 0.72144 0.15343 0.0
C2431 C 0.11229 0.73945 0.16397 0.0
C2432 C 0.11377 0.7022 0.13146 0.0
C2433 C 0.14603 0.70378 0.15051 0.0
C2434 C 0.10617 0.70375 0.08461 0.0
C2435 C 0.09822 0.68638 0.06578 0.0
C2436 C 0.09761 0.66708 0.09359 0.0
C2437 C 0.10566 0.66531 0.13966 0.0
C2438 C 0.11362 0.68275 0.15852 0.0
H2439 H 0.15764 0.70873 0.14836 0.0
H2440 H 0.14501 0.69155 0.18133 0.0
H2441 H 0.14292 0.69623 0.11332 0.0
H2442 H 0.10614 0.7186 0.06308 0.0
H2443 H 0.09217 0.68834 0.03019 0.0
H2444 H 0.85269 0.17977 0.23537 0.0
H2445 H 0.86693 0.21188 0.21533 0.0
H2446 H 0.82783 0.24373 0.16364 0.0
H2447 H 0.81365 0.21167 0.18229 0.0
H2448 H 0.84933 0.24825 0.09517 0.0
H2449 H 0.87019 0.26837 0.28994 0.0
H2450 H 0.87454 0.24161 0.27025 0.0
H2451 H 0.8558 0.24917 0.2798 0.0
C2452 C 0.84712 0.1937 0.2202 0.0
C2453 C 0.83205 0.19314 0.21025 0.0
C2454 C 0.85526 0.2121 0.20906 0.0
C2455 C 0.84843 0.23036 0.18854 0.0
C2456 C 0.83335 0.22988 0.17946 0.0
H2457 H 0.88854 0.35645 0.15296 0.0
H2458 H 0.87297 0.32646 0.17879 0.0
C2459 C 0.82526 0.2115 0.19015 0.0
C2460 C 0.85702 0.24958 0.17366 0.0
H2461 H 0.88077 0.28722 0.2192 0.0
C2462 C 0.85614 0.25682 0.12242 0.0
C2463 C 0.86577 0.26098 0.2093 0.0
C2464 C 0.86655 0.25479 0.26552 0.0
C2465 C 0.86391 0.27485 0.10563 0.0
C2466 C 0.87312 0.28572 0.14071 0.0
C2467 C 0.8738 0.27877 0.19221 0.0
C2468 C 0.88232 0.30408 0.12437 0.0
C2469 C 0.86202 0.28225 0.05058 0.0
C2470 C 0.89279 0.30146 0.08539 0.0
C2471 C 0.9016 0.31856 0.07027 0.0
C2472 C 0.90027 0.33866 0.09421 0.0
C2473 C 0.88979 0.34125 0.13342 0.0
C2474 C 0.88093 0.3241 0.14841 0.0
H2475 H 0.8516 0.27642 0.03382 0.0
H2476 H 0.86224 0.29996 0.04791 0.0
H2477 H 0.87106 0.27579 0.02674 0.0
H2478 H 0.8943 0.28605 0.06707 0.0
H2479 H 0.90964 0.31585 0.04035 0.0
loop_
_geom_bond_atom_site_label_1
_geom_bond_atom_site_label_2
_geom_bond_distance
_geom_bond_site_symmetry_2
_ccdc_geom_bond_type
O0 Tb1 2.292 . S
O0 C3 1.255 . S
Tb1 O0 2.292 . S
Tb1 O17 2.326 . S
Tb1 O19 2.500 . S
Tb1 O20 2.473 . S
Tb1 O23 2.324 . S
Eu2 O6 2.292 . S
Eu2 C7 2.852 . S
Eu2 O18 2.324 1_556 S
Eu2 O22 2.327 . S
Eu2 O24 2.500 . S
Eu2 O25 2.473 . S
C3 O0 1.255 . S
C3 O4 1.247 . S
O4 C3 1.247 . S
C5 O17 1.242 . S
C5 O18 1.258 . S
O6 Eu2 2.292 . S
O6 C8 1.255 . S
C7 Eu2 2.852 . S
C7 C11 1.503 . S
C7 O24 1.273 . S
C7 O25 1.257 . S
C8 O6 1.255 . S
C8 O9 1.247 1_556 S
O9 C8 1.247 1_554 S
C10 O22 1.238 1_554 S
C10 O23 1.258 . S
C11 C7 1.503 . S
C11 C12 1.379 . S
C11 C16 1.392 . S
C12 C11 1.379 . S
C12 C13 1.404 . S
C12 H26 0.929 . S
C13 C12 1.404 . S
C13 C14 1.389 . S
C14 C13 1.389 . S
C14 C15 1.399 . S
C14 H27 0.931 . S
C15 C14 1.399 . S
C15 C16 1.390 . S
C16 C11 1.392 . S
C16 C15 1.390 . S
C16 H28 0.929 . S
O17 Tb1 2.326 . S
O17 C5 1.242 . S
O18 Eu2 2.324 1_554 S
O18 C5 1.258 . S
O19 Tb1 2.500 . S
O19 C21 1.273 . S
O20 Tb1 2.473 . S
O20 C21 1.257 . S
C21 O19 1.273 . S
C21 O20 1.257 . S
O22 Eu2 2.327 . S
O22 C10 1.238 1_556 S
O23 Tb1 2.324 . S
O23 C10 1.258 . S
O24 Eu2 2.500 . S
O24 C7 1.273 . S
O25 Eu2 2.473 . S
O25 C7 1.257 . S
H26 C12 0.929 . S
H27 C14 0.931 . S
H28 C16 0.929 . S
O29 Tb30 2.292 . S
O29 C32 1.255 . S
Tb30 O29 2.292 . S
Tb30 O46 2.326 . S
Tb30 O48 2.500 . S
Tb30 O49 2.473 . S
Tb30 O52 2.324 . S
Eu31 O35 2.292 . S
Eu31 C36 2.852 . S
Eu31 O47 2.324 1_556 S
Eu31 O51 2.327 . S
Eu31 O53 2.500 . S
Eu31 O54 2.473 . S
C32 O29 1.255 . S
C32 O33 1.247 . S
O33 C32 1.247 . S
C34 O46 1.242 . S
C34 O47 1.258 . S
O35 Eu31 2.292 . S
O35 C37 1.255 . S
C36 Eu31 2.852 . S
C36 C40 1.503 . S
C36 O53 1.273 . S
C36 O54 1.257 . S
C37 O35 1.255 . S
C37 O38 1.247 1_556 S
O38 C37 1.247 1_554 S
C39 O51 1.238 1_554 S
C39 O52 1.258 . S
C40 C36 1.503 . S
C40 C41 1.379 . S
C40 C45 1.392 . S
C41 C40 1.379 . S
C41 C42 1.404 . S
C41 H55 0.929 . S
C42 C41 1.404 . S
C42 C43 1.389 . S
C43 C42 1.389 . S
C43 C44 1.399 . S
C43 H56 0.931 . S
C44 C43 1.399 . S
C44 C45 1.390 . S
C45 C40 1.392 . S
C45 C44 1.390 . S
C45 H57 0.929 . S
O46 Tb30 2.326 . S
O46 C34 1.242 . S
O47 Eu31 2.324 1_554 S
O47 C34 1.258 . S
O48 Tb30 2.500 . S
O48 C50 1.273 . S
O49 Tb30 2.473 . S
O49 C50 1.257 . S
C50 O48 1.273 . S
C50 O49 1.257 . S
O51 Eu31 2.327 . S
O51 C39 1.238 1_556 S
O52 Tb30 2.324 . S
O52 C39 1.258 . S
O53 Eu31 2.500 . S
O53 C36 1.273 . S
O54 Eu31 2.473 . S
O54 C36 1.257 . S
H55 C41 0.929 . S
H56 C43 0.931 . S
H57 C45 0.929 . S
O58 Tb59 2.292 . S
O58 C61 1.255 . S
Tb59 O58 2.292 . S
Tb59 O75 2.326 . S
Tb59 O77 2.500 . S
Tb59 O78 2.473 . S
Tb59 O81 2.324 . S
Eu60 O64 2.292 . S
Eu60 C65 2.852 . S
Eu60 O76 2.324 . S
Eu60 O80 2.326 . S
Eu60 O82 2.500 . S
Eu60 O83 2.473 . S
C61 O58 1.255 . S
C61 O62 1.247 . S
O62 C61 1.247 . S
C63 O75 1.242 . S
C63 O76 1.258 . S
O64 Eu60 2.292 . S
O64 C66 1.255 . S
C65 Eu60 2.852 . S
C65 C69 1.503 . S
C65 O82 1.273 . S
C65 O83 1.257 . S
C66 O64 1.255 . S
C66 O67 1.247 . S
O67 C66 1.247 . S
C68 O80 1.242 . S
C68 O81 1.258 . S
C69 C65 1.503 . S
C69 C70 1.379 . S
C69 C74 1.392 . S
C70 C69 1.379 . S
C70 C71 1.404 . S
C70 H84 0.929 . S
C71 C70 1.404 . S
C71 C72 1.389 . S
C72 C71 1.389 . S
C72 C73 1.399 . S
C72 H85 0.931 . S
C73 C72 1.399 . S
C73 C74 1.390 . S
C74 C69 1.392 . S
C74 C73 1.390 . S
C74 H86 0.929 . S
O75 Tb59 2.326 . S
O75 C63 1.242 . S
O76 Eu60 2.324 . S
O76 C63 1.258 . S
O77 Tb59 2.500 . S
O77 C79 1.273 . S
O78 Tb59 2.473 . S
O78 C79 1.257 . S
C79 O77 1.273 . S
C79 O78 1.257 . S
O80 Eu60 2.326 . S
O80 C68 1.242 . S
O81 Tb59 2.324 . S
O81 C68 1.258 . S
O82 Eu60 2.500 . S
O82 C65 1.273 . S
O83 Eu60 2.473 . S
O83 C65 1.257 . S
H84 C70 0.929 . S
H85 C72 0.931 . S
H86 C74 0.929 . S
O87 Tb88 2.292 . S
O87 C90 1.255 . S
Tb88 O87 2.292 . S
Tb88 O104 2.326 . S
Tb88 O106 2.500 . S
Tb88 O107 2.473 . S
Tb88 O110 2.324 . S
Eu89 O93 2.292 . S
Eu89 C94 2.852 . S
Eu89 O105 2.324 . S
Eu89 O109 2.326 . S
Eu89 O111 2.500 . S
Eu89 O112 2.473 . S
C90 O87 1.255 . S
C90 O91 1.247 . S
O91 C90 1.247 . S
C92 O104 1.242 . S
C92 O105 1.258 . S
O93 Eu89 2.292 . S
O93 C95 1.255 . S
C94 Eu89 2.852 . S
C94 C98 1.503 . S
C94 O111 1.273 . S
C94 O112 1.257 . S
C95 O93 1.255 . S
C95 O96 1.247 . S
O96 C95 1.247 . S
C97 O109 1.242 . S
C97 O110 1.258 . S
C98 C94 1.503 . S
C98 C99 1.379 . S
C98 C103 1.392 . S
C99 C98 1.379 . S
C99 C100 1.404 . S
C99 H113 0.929 . S
C100 C99 1.404 . S
C100 C101 1.389 . S
C101 C100 1.389 . S
C101 C102 1.399 . S
C101 H114 0.931 . S
C102 C101 1.399 . S
C102 C103 1.390 . S
C103 C98 1.392 . S
C103 C102 1.390 . S
C103 H115 0.929 . S
O104 Tb88 2.326 . S
O104 C92 1.242 . S
O105 Eu89 2.324 . S
O105 C92 1.258 . S
O106 Tb88 2.500 . S
O106 C108 1.273 . S
O107 Tb88 2.473 . S
O107 C108 1.257 . S
C108 O106 1.273 . S
C108 O107 1.257 . S
O109 Eu89 2.326 . S
O109 C97 1.242 . S
O110 Tb88 2.324 . S
O110 C97 1.258 . S
O111 Eu89 2.500 . S
O111 C94 1.273 . S
O112 Eu89 2.473 . S
O112 C94 1.257 . S
H113 C99 0.929 . S
H114 C101 0.931 . S
H115 C103 0.929 . S
O116 Tb117 2.292 . S
O116 C119 1.255 . S
Tb117 O116 2.292 . S
Tb117 O133 2.326 . S
Tb117 O135 2.500 . S
Tb117 O136 2.473 . S
Tb117 O139 2.324 . S
Eu118 O122 2.292 . S
Eu118 C123 2.852 . S
Eu118 O134 2.324 . S
Eu118 O138 2.326 . S
Eu118 O140 2.500 . S
Eu118 O141 2.473 . S
C119 O116 1.255 . S
C119 O120 1.247 . S
O120 C119 1.247 . S
C121 O133 1.242 . S
C121 O134 1.258 . S
O122 Eu118 2.292 . S
O122 C124 1.255 . S
C123 Eu118 2.852 . S
C123 C127 1.503 . S
C123 O140 1.273 . S
C123 O141 1.257 . S
C124 O122 1.255 . S
C124 O125 1.247 . S
O125 C124 1.247 . S
C126 O138 1.242 . S
C126 O139 1.258 . S
C127 C123 1.503 . S
C127 C128 1.379 . S
C127 C132 1.392 . S
C128 C127 1.379 . S
C128 C129 1.404 . S
C128 H142 0.929 . S
C129 C128 1.404 . S
C129 C130 1.389 . S
C130 C129 1.389 . S
C130 C131 1.399 . S
C130 H143 0.931 . S
C131 C130 1.399 . S
C131 C132 1.390 . S
C132 C127 1.392 . S
C132 C131 1.390 . S
C132 H144 0.929 . S
O133 Tb117 2.326 . S
O133 C121 1.242 . S
O134 Eu118 2.324 . S
O134 C121 1.258 . S
O135 Tb117 2.500 . S
O135 C137 1.273 . S
O136 Tb117 2.473 . S
O136 C137 1.257 . S
C137 O135 1.273 . S
C137 O136 1.257 . S
O138 Eu118 2.326 . S
O138 C126 1.242 . S
O139 Tb117 2.324 . S
O139 C126 1.258 . S
O140 Eu118 2.500 . S
O140 C123 1.273 . S
O141 Eu118 2.473 . S
O141 C123 1.257 . S
H142 C128 0.929 . S
H143 C130 0.931 . S
H144 C132 0.929 . S
O145 Tb146 2.292 . S
O145 C148 1.255 . S
Tb146 O145 2.292 . S
Tb146 O162 2.326 . S
Tb146 O164 2.500 . S
Tb146 O165 2.473 . S
Tb146 O168 2.324 . S
Eu147 O151 2.292 . S
Eu147 C152 2.852 . S
Eu147 O163 2.324 . S
Eu147 O167 2.326 . S
Eu147 O169 2.500 . S
Eu147 O170 2.473 . S
C148 O145 1.255 . S
C148 O149 1.247 . S
O149 C148 1.247 . S
C150 O162 1.242 . S
C150 O163 1.258 . S
O151 Eu147 2.292 . S
O151 C153 1.255 . S
C152 Eu147 2.852 . S
C152 C156 1.503 . S
C152 O169 1.273 . S
C152 O170 1.257 . S
C153 O151 1.255 . S
C153 O154 1.247 . S
O154 C153 1.247 . S
C155 O167 1.242 . S
C155 O168 1.258 . S
C156 C152 1.503 . S
C156 C157 1.379 . S
C156 C161 1.392 . S
C157 C156 1.379 . S
C157 C158 1.404 . S
C157 H171 0.929 . S
C158 C157 1.404 . S
C158 C159 1.389 . S
C159 C158 1.389 . S
C159 C160 1.399 . S
C159 H172 0.931 . S
C160 C159 1.399 . S
C160 C161 1.390 . S
C161 C156 1.392 . S
C161 C160 1.390 . S
C161 H173 0.929 . S
O162 Tb146 2.326 . S
O162 C150 1.242 . S
O163 Eu147 2.324 . S
O163 C150 1.258 . S
O164 Tb146 2.500 . S
O164 C166 1.273 . S
O165 Tb146 2.473 . S
O165 C166 1.257 . S
C166 O164 1.273 . S
C166 O165 1.257 . S
O167 Eu147 2.326 . S
O167 C155 1.242 . S
O168 Tb146 2.324 . S
O168 C155 1.258 . S
O169 Eu147 2.500 . S
O169 C152 1.273 . S
O170 Eu147 2.473 . S
O170 C152 1.257 . S
H171 C157 0.929 . S
H172 C159 0.931 . S
H173 C161 0.929 . S
O174 Tb175 2.292 . S
O174 C177 1.255 . S
Tb175 O174 2.292 . S
Tb175 O191 2.326 . S
Tb175 O193 2.500 . S
Tb175 O194 2.473 . S
Tb175 O197 2.324 . S
Eu176 O180 2.292 . S
Eu176 C181 2.852 . S
Eu176 O192 2.324 . S
Eu176 O196 2.326 . S
Eu176 O198 2.500 . S
Eu176 O199 2.473 . S
C177 O174 1.255 . S
C177 O178 1.247 . S
O178 C177 1.247 . S
C179 O191 1.242 . S
C179 O192 1.258 . S
O180 Eu176 2.292 . S
O180 C182 1.255 . S
C181 Eu176 2.852 . S
C181 C185 1.503 . S
C181 O198 1.273 . S
C181 O199 1.257 . S
C182 O180 1.255 . S
C182 O183 1.247 . S
O183 C182 1.247 . S
C184 O196 1.242 . S
C184 O197 1.258 . S
C185 C181 1.503 . S
C185 C186 1.379 . S
C185 C190 1.392 . S
C186 C185 1.379 . S
C186 C187 1.404 . S
C186 H200 0.929 . S
C187 C186 1.404 . S
C187 C188 1.389 . S
C188 C187 1.389 . S
C188 C189 1.399 . S
C188 H201 0.931 . S
C189 C188 1.399 . S
C189 C190 1.390 . S
C190 C185 1.392 . S
C190 C189 1.390 . S
C190 H202 0.929 . S
O191 Tb175 2.326 . S
O191 C179 1.242 . S
O192 Eu176 2.324 . S
O192 C179 1.258 . S
O193 Tb175 2.500 . S
O193 C195 1.273 . S
O194 Tb175 2.473 . S
O194 C195 1.257 . S
C195 O193 1.273 . S
C195 O194 1.257 . S
O196 Eu176 2.326 . S
O196 C184 1.242 . S
O197 Tb175 2.324 . S
O197 C184 1.258 . S
O198 Eu176 2.500 . S
O198 C181 1.273 . S
O199 Eu176 2.473 . S
O199 C181 1.257 . S
H200 C186 0.929 . S
H201 C188 0.931 . S
H202 C190 0.929 . S
O203 Tb204 2.292 . S
O203 C206 1.255 . S
Tb204 O203 2.292 . S
Tb204 O220 2.326 . S
Tb204 O222 2.500 . S
Tb204 O223 2.473 . S
Tb204 O226 2.324 . S
Eu205 O209 2.292 . S
Eu205 C210 2.852 . S
Eu205 O221 2.324 . S
Eu205 O225 2.326 . S
Eu205 O227 2.500 . S
Eu205 O228 2.473 . S
C206 O203 1.255 . S
C206 O207 1.247 . S
O207 C206 1.247 . S
C208 O220 1.242 . S
C208 O221 1.258 . S
O209 Eu205 2.292 . S
O209 C211 1.255 . S
C210 Eu205 2.852 . S
C210 C214 1.503 . S
C210 O227 1.273 . S
C210 O228 1.257 . S
C211 O209 1.255 . S
C211 O212 1.247 . S
O212 C211 1.247 . S
C213 O225 1.242 . S
C213 O226 1.258 . S
C214 C210 1.503 . S
C214 C215 1.379 . S
C214 C219 1.392 . S
C215 C214 1.379 . S
C215 C216 1.404 . S
C215 H229 0.929 . S
C216 C215 1.404 . S
C216 C217 1.389 . S
C217 C216 1.389 . S
C217 C218 1.399 . S
C217 H230 0.931 . S
C218 C217 1.399 . S
C218 C219 1.390 . S
C219 C214 1.392 . S
C219 C218 1.390 . S
C219 H231 0.929 . S
O220 Tb204 2.326 . S
O220 C208 1.242 . S
O221 Eu205 2.324 . S
O221 C208 1.258 . S
O222 Tb204 2.500 . S
O222 C224 1.273 . S
O223 Tb204 2.473 . S
O223 C224 1.257 . S
C224 O222 1.273 . S
C224 O223 1.257 . S
O225 Eu205 2.326 . S
O225 C213 1.242 . S
O226 Tb204 2.324 . S
O226 C213 1.258 . S
O227 Eu205 2.500 . S
O227 C210 1.273 . S
O228 Eu205 2.473 . S
O228 C210 1.257 . S
H229 C215 0.929 . S
H230 C217 0.931 . S
H231 C219 0.929 . S
O232 Tb233 2.292 . S
O232 C235 1.255 . S
Tb233 O232 2.292 . S
Tb233 O249 2.326 . S
Tb233 O251 2.500 . S
Tb233 O252 2.473 . S
Tb233 O255 2.324 . S
Eu234 O238 2.292 . S
Eu234 C239 2.852 . S
Eu234 O250 2.324 . S
Eu234 O254 2.326 . S
Eu234 O256 2.500 . S
Eu234 O257 2.473 . S
C235 O232 1.255 . S
C235 O236 1.247 . S
O236 C235 1.247 . S
C237 O249 1.242 . S
C237 O250 1.258 . S
O238 Eu234 2.292 . S
O238 C240 1.255 . S
C239 Eu234 2.852 . S
C239 C243 1.503 . S
C239 O256 1.273 . S
C239 O257 1.257 . S
C240 O238 1.255 . S
C240 O241 1.247 . S
O241 C240 1.247 . S
C242 O254 1.242 . S
C242 O255 1.258 . S
C243 C239 1.503 . S
C243 C244 1.379 . S
C243 C248 1.392 . S
C244 C243 1.379 . S
C244 C245 1.404 . S
C244 H258 0.929 . S
C245 C244 1.404 . S
C245 C246 1.389 . S
C246 C245 1.389 . S
C246 C247 1.399 . S
C246 H259 0.931 . S
C247 C246 1.399 . S
C247 C248 1.390 . S
C248 C243 1.392 . S
C248 C247 1.390 . S
C248 H260 0.929 . S
O249 Tb233 2.326 . S
O249 C237 1.242 . S
O250 Eu234 2.324 . S
O250 C237 1.258 . S
O251 Tb233 2.500 . S
O251 C253 1.273 . S
O252 Tb233 2.473 . S
O252 C253 1.257 . S
C253 O251 1.273 . S
C253 O252 1.257 . S
O254 Eu234 2.326 . S
O254 C242 1.242 . S
O255 Tb233 2.324 . S
O255 C242 1.258 . S
O256 Eu234 2.500 . S
O256 C239 1.273 . S
O257 Eu234 2.473 . S
O257 C239 1.257 . S
H258 C244 0.929 . S
H259 C246 0.931 . S
H260 C248 0.929 . S
O261 Tb262 2.292 . S
O261 C264 1.255 . S
Tb262 O261 2.292 . S
Tb262 O278 2.326 . S
Tb262 O280 2.500 . S
Tb262 O281 2.473 . S
Tb262 O284 2.324 . S
Eu263 O267 2.292 . S
Eu263 C268 2.852 . S
Eu263 O279 2.324 . S
Eu263 O283 2.326 . S
Eu263 O285 2.500 . S
Eu263 O286 2.473 . S
C264 O261 1.255 . S
C264 O265 1.247 . S
O265 C264 1.247 . S
C266 O278 1.242 . S
C266 O279 1.258 . S
O267 Eu263 2.292 . S
O267 C269 1.255 . S
C268 Eu263 2.852 . S
C268 C272 1.503 . S
C268 O285 1.273 . S
C268 O286 1.257 . S
C269 O267 1.255 . S
C269 O270 1.247 . S
O270 C269 1.247 . S
C271 O283 1.242 . S
C271 O284 1.258 . S
C272 C268 1.503 . S
C272 C273 1.379 . S
C272 C277 1.392 . S
C273 C272 1.379 . S
C273 C274 1.404 . S
C273 H287 0.929 . S
C274 C273 1.404 . S
C274 C275 1.389 . S
C275 C274 1.389 . S
C275 C276 1.399 . S
C275 H288 0.931 . S
C276 C275 1.399 . S
C276 C277 1.390 . S
C277 C272 1.392 . S
C277 C276 1.390 . S
C277 H289 0.929 . S
O278 Tb262 2.326 . S
O278 C266 1.242 . S
O279 Eu263 2.324 . S
O279 C266 1.258 . S
O280 Tb262 2.500 . S
O280 C282 1.273 . S
O281 Tb262 2.473 . S
O281 C282 1.257 . S
C282 O280 1.273 . S
C282 O281 1.257 . S
O283 Eu263 2.326 . S
O283 C271 1.242 . S
O284 Tb262 2.324 . S
O284 C271 1.258 . S
O285 Eu263 2.500 . S
O285 C268 1.273 . S
O286 Eu263 2.473 . S
O286 C268 1.257 . S
H287 C273 0.929 . S
H288 C275 0.931 . S
H289 C277 0.929 . S
O290 Tb291 2.292 . S
O290 C293 1.255 . S
Tb291 O290 2.292 . S
Tb291 O307 2.326 . S
Tb291 O309 2.500 . S
Tb291 O310 2.473 . S
Tb291 O313 2.324 . S
Eu292 O296 2.292 . S
Eu292 C297 2.852 . S
Eu292 O308 2.324 . S
Eu292 O312 2.326 . S
Eu292 O314 2.500 . S
Eu292 O315 2.473 . S
C293 O290 1.255 . S
C293 O294 1.247 . S
O294 C293 1.247 . S
C295 O307 1.242 . S
C295 O308 1.258 . S
O296 Eu292 2.292 . S
O296 C298 1.255 . S
C297 Eu292 2.852 . S
C297 C301 1.503 . S
C297 O314 1.273 . S
C297 O315 1.257 . S
C298 O296 1.255 . S
C298 O299 1.247 . S
O299 C298 1.247 . S
C300 O312 1.242 . S
C300 O313 1.258 . S
C301 C297 1.503 . S
C301 C302 1.379 . S
C301 C306 1.392 . S
C302 C301 1.379 . S
C302 C303 1.404 . S
C302 H316 0.929 . S
C303 C302 1.404 . S
C303 C304 1.389 . S
C304 C303 1.389 . S
C304 C305 1.399 . S
C304 H317 0.931 . S
C305 C304 1.399 . S
C305 C306 1.390 . S
C306 C301 1.392 . S
C306 C305 1.390 . S
C306 H318 0.929 . S
O307 Tb291 2.326 . S
O307 C295 1.242 . S
O308 Eu292 2.324 . S
O308 C295 1.258 . S
O309 Tb291 2.500 . S
O309 C311 1.273 . S
O310 Tb291 2.473 . S
O310 C311 1.257 . S
C311 O309 1.273 . S
C311 O310 1.257 . S
O312 Eu292 2.326 . S
O312 C300 1.242 . S
O313 Tb291 2.324 . S
O313 C300 1.258 . S
O314 Eu292 2.500 . S
O314 C297 1.273 . S
O315 Eu292 2.473 . S
O315 C297 1.257 . S
H316 C302 0.929 . S
H317 C304 0.931 . S
H318 C306 0.929 . S
O319 Tb320 2.292 . S
O319 C322 1.255 . S
Tb320 O319 2.292 . S
Tb320 O336 2.326 . S
Tb320 O338 2.500 . S
Tb320 O339 2.473 . S
Tb320 O342 2.324 . S
Eu321 O325 2.292 . S
Eu321 C326 2.852 . S
Eu321 O337 2.324 . S
Eu321 O341 2.326 . S
Eu321 O343 2.500 . S
Eu321 O344 2.473 . S
C322 O319 1.255 . S
C322 O323 1.247 . S
O323 C322 1.247 . S
C324 O336 1.242 . S
C324 O337 1.258 . S
O325 Eu321 2.292 . S
O325 C327 1.255 . S
C326 Eu321 2.852 . S
C326 C330 1.503 . S
C326 O343 1.273 . S
C326 O344 1.257 . S
C327 O325 1.255 . S
C327 O328 1.247 . S
O328 C327 1.247 . S
C329 O341 1.242 . S
C329 O342 1.258 . S
C330 C326 1.503 . S
C330 C331 1.379 . S
C330 C335 1.392 . S
C331 C330 1.379 . S
C331 C332 1.404 . S
C331 H345 0.929 . S
C332 C331 1.404 . S
C332 C333 1.389 . S
C333 C332 1.389 . S
C333 C334 1.399 . S
C333 H346 0.931 . S
C334 C333 1.399 . S
C334 C335 1.390 . S
C335 C330 1.392 . S
C335 C334 1.390 . S
C335 H347 0.929 . S
O336 Tb320 2.326 . S
O336 C324 1.242 . S
O337 Eu321 2.324 . S
O337 C324 1.258 . S
O338 Tb320 2.500 . S
O338 C340 1.273 . S
O339 Tb320 2.473 . S
O339 C340 1.257 . S
C340 O338 1.273 . S
C340 O339 1.257 . S
O341 Eu321 2.326 . S
O341 C329 1.242 . S
O342 Tb320 2.324 . S
O342 C329 1.258 . S
O343 Eu321 2.500 . S
O343 C326 1.273 . S
O344 Eu321 2.473 . S
O344 C326 1.257 . S
H345 C331 0.929 . S
H346 C333 0.931 . S
H347 C335 0.929 . S
O348 Tb349 2.292 . S
O348 C351 1.255 . S
Tb349 O348 2.292 . S
Tb349 O365 2.326 . S
Tb349 O367 2.500 . S
Tb349 O368 2.473 . S
Tb349 O371 2.324 . S
Eu350 O354 2.292 . S
Eu350 C355 2.852 . S
Eu350 O366 2.324 1_556 S
Eu350 O370 2.327 . S
Eu350 O372 2.500 . S
Eu350 O373 2.473 . S
C351 O348 1.255 . S
C351 O352 1.247 . S
O352 C351 1.247 . S
C353 O365 1.242 . S
C353 O366 1.258 . S
O354 Eu350 2.292 . S
O354 C356 1.255 . S
C355 Eu350 2.852 . S
C355 C359 1.503 . S
C355 O372 1.273 . S
C355 O373 1.257 . S
C356 O354 1.255 . S
C356 O357 1.247 1_556 S
O357 C356 1.247 1_554 S
C358 O370 1.238 1_554 S
C358 O371 1.258 . S
C359 C355 1.503 . S
C359 C360 1.379 . S
C359 C364 1.392 . S
C360 C359 1.379 . S
C360 C361 1.404 . S
C360 H374 0.929 . S
C361 C360 1.404 . S
C361 C362 1.389 . S
C362 C361 1.389 . S
C362 C363 1.399 . S
C362 H375 0.931 . S
C363 C362 1.399 . S
C363 C364 1.390 . S
C364 C359 1.392 . S
C364 C363 1.390 . S
C364 H376 0.929 . S
O365 Tb349 2.326 . S
O365 C353 1.242 . S
O366 Eu350 2.324 1_554 S
O366 C353 1.258 . S
O367 Tb349 2.500 . S
O367 C369 1.273 . S
O368 Tb349 2.473 . S
O368 C369 1.257 . S
C369 O367 1.273 . S
C369 O368 1.257 . S
O370 Eu350 2.327 . S
O370 C358 1.238 1_556 S
O371 Tb349 2.324 . S
O371 C358 1.258 . S
O372 Eu350 2.500 . S
O372 C355 1.273 . S
O373 Eu350 2.473 . S
O373 C355 1.257 . S
H374 C360 0.929 . S
H375 C362 0.931 . S
H376 C364 0.929 . S
O377 Tb378 2.292 . S
O377 C380 1.255 . S
Tb378 O377 2.292 . S
Tb378 O394 2.326 . S
Tb378 O396 2.500 . S
Tb378 O397 2.473 . S
Tb378 O400 2.324 . S
Eu379 O383 2.292 . S
Eu379 C384 2.852 . S
Eu379 O395 2.324 1_556 S
Eu379 O399 2.327 . S
Eu379 O401 2.500 . S
Eu379 O402 2.473 . S
C380 O377 1.255 . S
C380 O381 1.247 . S
O381 C380 1.247 . S
C382 O394 1.242 . S
C382 O395 1.258 . S
O383 Eu379 2.292 . S
O383 C385 1.255 . S
C384 Eu379 2.852 . S
C384 C388 1.503 . S
C384 O401 1.273 . S
C384 O402 1.257 . S
C385 O383 1.255 . S
C385 O386 1.247 1_556 S
O386 C385 1.247 1_554 S
C387 O399 1.238 1_554 S
C387 O400 1.258 . S
C388 C384 1.503 . S
C388 C389 1.379 . S
C388 C393 1.392 . S
C389 C388 1.379 . S
C389 C390 1.404 . S
C389 H403 0.929 . S
C390 C389 1.404 . S
C390 C391 1.389 . S
C391 C390 1.389 . S
C391 C392 1.399 . S
C391 H404 0.931 . S
C392 C391 1.399 . S
C392 C393 1.390 . S
C393 C388 1.392 . S
C393 C392 1.390 . S
C393 H405 0.929 . S
O394 Tb378 2.326 . S
O394 C382 1.242 . S
O395 Eu379 2.324 1_554 S
O395 C382 1.258 . S
O396 Tb378 2.500 . S
O396 C398 1.273 . S
O397 Tb378 2.473 . S
O397 C398 1.257 . S
C398 O396 1.273 . S
C398 O397 1.257 . S
O399 Eu379 2.327 . S
O399 C387 1.238 1_556 S
O400 Tb378 2.324 . S
O400 C387 1.258 . S
O401 Eu379 2.500 . S
O401 C384 1.273 . S
O402 Eu379 2.473 . S
O402 C384 1.257 . S
H403 C389 0.929 . S
H404 C391 0.931 . S
H405 C393 0.929 . S
O406 Tb407 2.292 . S
O406 C409 1.255 . S
Tb407 O406 2.292 . S
Tb407 O423 2.326 . S
Tb407 O425 2.500 . S
Tb407 O426 2.473 . S
Tb407 O429 2.324 . S
Eu408 O412 2.292 . S
Eu408 C413 2.852 . S
Eu408 O424 2.324 . S
Eu408 O428 2.326 . S
Eu408 O430 2.500 . S
Eu408 O431 2.473 . S
C409 O406 1.255 . S
C409 O410 1.247 . S
O410 C409 1.247 . S
C411 O423 1.242 . S
C411 O424 1.258 . S
O412 Eu408 2.292 . S
O412 C414 1.255 . S
C413 Eu408 2.852 . S
C413 C417 1.503 . S
C413 O430 1.273 . S
C413 O431 1.257 . S
C414 O412 1.255 . S
C414 O415 1.247 . S
O415 C414 1.247 . S
C416 O428 1.242 . S
C416 O429 1.258 . S
C417 C413 1.503 . S
C417 C418 1.379 . S
C417 C422 1.392 . S
C418 C417 1.379 . S
C418 C419 1.404 . S
C418 H432 0.929 . S
C419 C418 1.404 . S
C419 C420 1.389 . S
C420 C419 1.389 . S
C420 C421 1.399 . S
C420 H433 0.931 . S
C421 C420 1.399 . S
C421 C422 1.390 . S
C422 C417 1.392 . S
C422 C421 1.390 . S
C422 H434 0.929 . S
O423 Tb407 2.326 . S
O423 C411 1.242 . S
O424 Eu408 2.324 . S
O424 C411 1.258 . S
O425 Tb407 2.500 . S
O425 C427 1.273 . S
O426 Tb407 2.473 . S
O426 C427 1.257 . S
C427 O425 1.273 . S
C427 O426 1.257 . S
O428 Eu408 2.326 . S
O428 C416 1.242 . S
O429 Tb407 2.324 . S
O429 C416 1.258 . S
O430 Eu408 2.500 . S
O430 C413 1.273 . S
O431 Eu408 2.473 . S
O431 C413 1.257 . S
H432 C418 0.929 . S
H433 C420 0.931 . S
H434 C422 0.929 . S
O435 Tb436 2.292 . S
O435 C438 1.255 . S
Tb436 O435 2.292 . S
Tb436 O452 2.326 . S
Tb436 O454 2.500 . S
Tb436 O455 2.473 . S
Tb436 O458 2.324 . S
Eu437 O441 2.292 . S
Eu437 C442 2.852 . S
Eu437 O453 2.324 . S
Eu437 O457 2.326 . S
Eu437 O459 2.500 . S
Eu437 O460 2.473 . S
C438 O435 1.255 . S
C438 O439 1.247 . S
O439 C438 1.247 . S
C440 O452 1.242 . S
C440 O453 1.258 . S
O441 Eu437 2.292 . S
O441 C443 1.255 . S
C442 Eu437 2.852 . S
C442 C446 1.503 . S
C442 O459 1.273 . S
C442 O460 1.257 . S
C443 O441 1.255 . S
C443 O444 1.247 . S
O444 C443 1.247 . S
C445 O457 1.242 . S
C445 O458 1.258 . S
C446 C442 1.503 . S
C446 C447 1.379 . S
C446 C451 1.392 . S
C447 C446 1.379 . S
C447 C448 1.404 . S
C447 H461 0.929 . S
C448 C447 1.404 . S
C448 C449 1.389 . S
C449 C448 1.389 . S
C449 C450 1.399 . S
C449 H462 0.931 . S
C450 C449 1.399 . S
C450 C451 1.390 . S
C451 C446 1.392 . S
C451 C450 1.390 . S
C451 H463 0.929 . S
O452 Tb436 2.326 . S
O452 C440 1.242 . S
O453 Eu437 2.324 . S
O453 C440 1.258 . S
O454 Tb436 2.500 . S
O454 C456 1.273 . S
O455 Tb436 2.473 . S
O455 C456 1.257 . S
C456 O454 1.273 . S
C456 O455 1.257 . S
O457 Eu437 2.326 . S
O457 C445 1.242 . S
O458 Tb436 2.324 . S
O458 C445 1.258 . S
O459 Eu437 2.500 . S
O459 C442 1.273 . S
O460 Eu437 2.473 . S
O460 C442 1.257 . S
H461 C447 0.929 . S
H462 C449 0.931 . S
H463 C451 0.929 . S
H464 C472 0.929 . S
H465 C474 0.930 . S
H466 C476 0.930 . S
H467 C479 0.929 . S
H468 C482 0.930 . S
H469 C484 0.960 . S
H470 C484 0.960 . S
H471 C484 0.960 . S
C472 H464 0.929 . S
C472 C473 1.377 . S
C472 C474 1.384 . S
C473 C472 1.377 . S
C473 C479 1.390 . S
C474 H465 0.930 . S
C474 C472 1.384 . S
C474 C475 1.372 . S
C475 C474 1.372 . S
C475 C476 1.400 . S
C475 C480 1.490 . S
C476 H466 0.930 . S
C476 C475 1.400 . S
C476 C479 1.386 . S
H477 C493 0.930 . S
H478 C494 0.931 . S
C479 H467 0.929 . S
C479 C473 1.390 . S
C479 C476 1.386 . S
C480 C475 1.490 . S
C480 C482 1.395 . S
C480 C483 1.403 . S
H481 C487 0.930 . S
C482 H468 0.930 . S
C482 C480 1.395 . S
C482 C485 1.403 . S
C483 C480 1.403 . S
C483 C484 1.524 . S
C483 C487 1.400 . S
C484 H469 0.960 . S
C484 H470 0.960 . S
C484 H471 0.960 . S
C484 C483 1.524 . S
C485 C482 1.403 . S
C485 C486 1.392 . S
C485 C489 1.495 . S
C486 C485 1.392 . S
C486 C487 1.385 . S
C486 C488 1.478 . S
C487 H481 0.930 . S
C487 C483 1.400 . S
C487 C486 1.385 . S
C488 C486 1.478 . S
C488 C490 1.381 . S
C488 C494 1.383 . S
C489 C485 1.495 . S
C489 H495 0.959 . S
C489 H496 0.961 . S
C489 H497 0.960 . S
C490 C488 1.381 . S
C490 C491 1.394 . S
C490 H498 0.930 . S
C491 C490 1.394 . S
C491 C492 1.383 . S
C491 H499 0.929 . S
C492 C491 1.383 . S
C492 C493 1.377 . S
C493 H477 0.930 . S
C493 C492 1.377 . S
C493 C494 1.379 . S
C494 H478 0.931 . S
C494 C488 1.383 . S
C494 C493 1.379 . S
H495 C489 0.959 . S
H496 C489 0.961 . S
H497 C489 0.960 . S
H498 C490 0.930 . S
H499 C491 0.929 . S
H500 C508 0.929 . S
H501 C510 0.930 . S
H502 C512 0.930 . S
H503 C515 0.929 . S
H504 C518 0.930 . S
H505 C520 0.960 . S
H506 C520 0.960 . S
H507 C520 0.960 . S
C508 H500 0.929 . S
C508 C509 1.377 . S
C508 C510 1.384 . S
C509 C508 1.377 . S
C509 C515 1.390 . S
C510 H501 0.930 . S
C510 C508 1.384 . S
C510 C511 1.372 . S
C511 C510 1.372 . S
C511 C512 1.400 . S
C511 C516 1.490 . S
C512 H502 0.930 . S
C512 C511 1.400 . S
C512 C515 1.386 . S
H513 C529 0.930 . S
H514 C530 0.931 . S
C515 H503 0.929 . S
C515 C509 1.390 . S
C515 C512 1.386 . S
C516 C511 1.490 . S
C516 C518 1.395 . S
C516 C519 1.403 . S
H517 C523 0.930 . S
C518 H504 0.930 . S
C518 C516 1.395 . S
C518 C521 1.403 . S
C519 C516 1.403 . S
C519 C520 1.524 . S
C519 C523 1.400 . S
C520 H505 0.960 . S
C520 H506 0.960 . S
C520 H507 0.960 . S
C520 C519 1.524 . S
C521 C518 1.403 . S
C521 C522 1.392 . S
C521 C525 1.495 . S
C522 C521 1.392 . S
C522 C523 1.385 . S
C522 C524 1.478 . S
C523 H517 0.930 . S
C523 C519 1.400 . S
C523 C522 1.385 . S
C524 C522 1.478 . S
C524 C526 1.381 . S
C524 C530 1.383 . S
C525 C521 1.495 . S
C525 H531 0.959 . S
C525 H532 0.961 . S
C525 H533 0.960 . S
C526 C524 1.381 . S
C526 C527 1.394 . S
C526 H534 0.930 . S
C527 C526 1.394 . S
C527 C528 1.383 . S
C527 H535 0.929 . S
C528 C527 1.383 . S
C528 C529 1.377 . S
C529 H513 0.930 . S
C529 C528 1.377 . S
C529 C530 1.379 . S
C530 H514 0.931 . S
C530 C524 1.383 . S
C530 C529 1.379 . S
H531 C525 0.959 . S
H532 C525 0.961 . S
H533 C525 0.960 . S
H534 C526 0.930 . S
H535 C527 0.929 . S
H536 C544 0.929 . S
H537 C546 0.930 . S
H538 C548 0.930 . S
H539 C551 0.929 . S
H540 C554 0.930 . S
H541 C556 0.960 . S
H542 C556 0.960 . S
H543 C556 0.960 . S
C544 H536 0.929 . S
C544 C545 1.377 . S
C544 C546 1.384 . S
C545 C544 1.377 . S
C545 C551 1.390 . S
C546 H537 0.930 . S
C546 C544 1.384 . S
C546 C547 1.372 . S
C547 C546 1.372 . S
C547 C548 1.400 . S
C547 C552 1.490 . S
C548 H538 0.930 . S
C548 C547 1.400 . S
C548 C551 1.386 . S
H549 C565 0.930 . S
H550 C566 0.931 . S
C551 H539 0.929 . S
C551 C545 1.390 . S
C551 C548 1.386 . S
C552 C547 1.490 . S
C552 C554 1.395 . S
C552 C555 1.403 . S
H553 C559 0.930 . S
C554 H540 0.930 . S
C554 C552 1.395 . S
C554 C557 1.403 . S
C555 C552 1.403 . S
C555 C556 1.524 . S
C555 C559 1.400 . S
C556 H541 0.960 . S
C556 H542 0.960 . S
C556 H543 0.960 . S
C556 C555 1.524 . S
C557 C554 1.403 . S
C557 C558 1.392 . S
C557 C561 1.495 . S
C558 C557 1.392 . S
C558 C559 1.385 . S
C558 C560 1.478 . S
C559 H553 0.930 . S
C559 C555 1.400 . S
C559 C558 1.385 . S
C560 C558 1.478 . S
C560 C562 1.381 . S
C560 C566 1.383 . S
C561 C557 1.495 . S
C561 H567 0.959 . S
C561 H568 0.961 . S
C561 H569 0.960 . S
C562 C560 1.381 . S
C562 C563 1.394 . S
C562 H570 0.930 . S
C563 C562 1.394 . S
C563 C564 1.383 . S
C563 H571 0.929 . S
C564 C563 1.383 . S
C564 C565 1.377 . S
C565 H549 0.930 . S
C565 C564 1.377 . S
C565 C566 1.379 . S
C566 H550 0.931 . S
C566 C560 1.383 . S
C566 C565 1.379 . S
H567 C561 0.959 . S
H568 C561 0.961 . S
H569 C561 0.960 . S
H570 C562 0.930 . S
H571 C563 0.929 . S
H572 C580 0.929 . S
H573 C582 0.930 . S
H574 C584 0.930 . S
H575 C587 0.929 . S
H576 C590 0.930 . S
H577 C592 0.960 . S
H578 C592 0.960 . S
H579 C592 0.960 . S
C580 H572 0.929 . S
C580 C581 1.377 . S
C580 C582 1.384 . S
C581 C580 1.377 . S
C581 C587 1.390 . S
C582 H573 0.930 . S
C582 C580 1.384 . S
C582 C583 1.372 . S
C583 C582 1.372 . S
C583 C584 1.400 . S
C583 C588 1.490 . S
C584 H574 0.930 . S
C584 C583 1.400 . S
C584 C587 1.386 . S
H585 C601 0.930 . S
H586 C602 0.931 . S
C587 H575 0.929 . S
C587 C581 1.390 . S
C587 C584 1.386 . S
C588 C583 1.490 . S
C588 C590 1.395 . S
C588 C591 1.403 . S
H589 C595 0.930 . S
C590 H576 0.930 . S
C590 C588 1.395 . S
C590 C593 1.403 . S
C591 C588 1.403 . S
C591 C592 1.524 . S
C591 C595 1.400 . S
C592 H577 0.960 . S
C592 H578 0.960 . S
C592 H579 0.960 . S
C592 C591 1.524 . S
C593 C590 1.403 . S
C593 C594 1.392 . S
C593 C597 1.495 . S
C594 C593 1.392 . S
C594 C595 1.385 . S
C594 C596 1.478 . S
C595 H589 0.930 . S
C595 C591 1.400 . S
C595 C594 1.385 . S
C596 C594 1.478 . S
C596 C598 1.381 . S
C596 C602 1.383 . S
C597 C593 1.495 . S
C597 H603 0.959 . S
C597 H604 0.961 . S
C597 H605 0.960 . S
C598 C596 1.381 . S
C598 C599 1.394 . S
C598 H606 0.930 . S
C599 C598 1.394 . S
C599 C600 1.383 . S
C599 H607 0.929 . S
C600 C599 1.383 . S
C600 C601 1.377 . S
C601 H585 0.930 . S
C601 C600 1.377 . S
C601 C602 1.379 . S
C602 H586 0.931 . S
C602 C596 1.383 . S
C602 C601 1.379 . S
H603 C597 0.959 . S
H604 C597 0.961 . S
H605 C597 0.960 . S
H606 C598 0.930 . S
H607 C599 0.929 . S
H608 C616 0.929 . S
H609 C618 0.930 . S
H610 C620 0.930 . S
H611 C623 0.929 . S
H612 C626 0.930 . S
H613 C628 0.960 . S
H614 C628 0.960 . S
H615 C628 0.960 . S
C616 H608 0.929 . S
C616 C617 1.377 . S
C616 C618 1.384 . S
C617 C616 1.377 . S
C617 C623 1.390 . S
C618 H609 0.930 . S
C618 C616 1.384 . S
C618 C619 1.372 . S
C619 C618 1.372 . S
C619 C620 1.400 . S
C619 C624 1.490 . S
C620 H610 0.930 . S
C620 C619 1.400 . S
C620 C623 1.386 . S
H621 C637 0.930 . S
H622 C638 0.931 . S
C623 H611 0.929 . S
C623 C617 1.390 . S
C623 C620 1.386 . S
C624 C619 1.490 . S
C624 C626 1.395 . S
C624 C627 1.403 . S
H625 C631 0.930 . S
C626 H612 0.930 . S
C626 C624 1.395 . S
C626 C629 1.403 . S
C627 C624 1.403 . S
C627 C628 1.524 . S
C627 C631 1.400 . S
C628 H613 0.960 . S
C628 H614 0.960 . S
C628 H615 0.960 . S
C628 C627 1.524 . S
C629 C626 1.403 . S
C629 C630 1.392 . S
C629 C633 1.495 . S
C630 C629 1.392 . S
C630 C631 1.385 . S
C630 C632 1.478 . S
C631 H625 0.930 . S
C631 C627 1.400 . S
C631 C630 1.385 . S
C632 C630 1.478 . S
C632 C634 1.381 . S
C632 C638 1.383 . S
C633 C629 1.495 . S
C633 H639 0.959 . S
C633 H640 0.961 . S
C633 H641 0.960 . S
C634 C632 1.381 . S
C634 C635 1.394 . S
C634 H642 0.930 . S
C635 C634 1.394 . S
C635 C636 1.383 . S
C635 H643 0.929 . S
C636 C635 1.383 . S
C636 C637 1.377 . S
C637 H621 0.930 . S
C637 C636 1.377 . S
C637 C638 1.379 . S
C638 H622 0.931 . S
C638 C632 1.383 . S
C638 C637 1.379 . S
H639 C633 0.959 . S
H640 C633 0.961 . S
H641 C633 0.960 . S
H642 C634 0.930 . S
H643 C635 0.929 . S
H644 C652 0.929 . S
H645 C654 0.930 . S
H646 C656 0.930 . S
H647 C659 0.929 . S
H648 C662 0.930 . S
H649 C664 0.960 . S
H650 C664 0.960 . S
H651 C664 0.960 . S
C652 H644 0.929 . S
C652 C653 1.377 . S
C652 C654 1.384 . S
C653 C652 1.377 . S
C653 C659 1.390 . S
C654 H645 0.930 . S
C654 C652 1.384 . S
C654 C655 1.372 . S
C655 C654 1.372 . S
C655 C656 1.400 . S
C655 C660 1.490 . S
C656 H646 0.930 . S
C656 C655 1.400 . S
C656 C659 1.386 . S
H657 C673 0.930 . S
H658 C674 0.931 . S
C659 H647 0.929 . S
C659 C653 1.390 . S
C659 C656 1.386 . S
C660 C655 1.490 . S
C660 C662 1.395 . S
C660 C663 1.403 . S
H661 C667 0.930 . S
C662 H648 0.930 . S
C662 C660 1.395 . S
C662 C665 1.403 . S
C663 C660 1.403 . S
C663 C664 1.524 . S
C663 C667 1.400 . S
C664 H649 0.960 . S
C664 H650 0.960 . S
C664 H651 0.960 . S
C664 C663 1.524 . S
C665 C662 1.403 . S
C665 C666 1.392 . S
C665 C669 1.495 . S
C666 C665 1.392 . S
C666 C667 1.385 . S
C666 C668 1.478 . S
C667 H661 0.930 . S
C667 C663 1.400 . S
C667 C666 1.385 . S
C668 C666 1.478 . S
C668 C670 1.381 . S
C668 C674 1.383 . S
C669 C665 1.495 . S
C669 H675 0.959 . S
C669 H676 0.961 . S
C669 H677 0.960 . S
C670 C668 1.381 . S
C670 C671 1.394 . S
C670 H678 0.930 . S
C671 C670 1.394 . S
C671 C672 1.383 . S
C671 H679 0.929 . S
C672 C671 1.383 . S
C672 C673 1.377 . S
C673 H657 0.930 . S
C673 C672 1.377 . S
C673 C674 1.379 . S
C674 H658 0.931 . S
C674 C668 1.383 . S
C674 C673 1.379 . S
H675 C669 0.959 . S
H676 C669 0.961 . S
H677 C669 0.960 . S
H678 C670 0.930 . S
H679 C671 0.929 . S
H680 C688 0.929 . S
H681 C690 0.930 . S
H682 C692 0.930 . S
H683 C695 0.929 . S
H684 C698 0.930 . S
H685 C700 0.948 1_554 S
H686 C700 0.975 . S
H687 C700 0.955 1_554 S
C688 H680 0.929 . S
C688 C689 1.377 . S
C688 C690 1.384 . S
C689 C688 1.377 . S
C689 C695 1.390 . S
C690 H681 0.930 . S
C690 C688 1.384 . S
C690 C691 1.372 . S
C691 C690 1.372 . S
C691 C692 1.400 . S
C691 C696 1.490 . S
C692 H682 0.930 . S
C692 C691 1.400 . S
C692 C695 1.386 . S
H693 C709 0.930 . S
H694 C710 0.931 . S
C695 H683 0.929 . S
C695 C689 1.390 . S
C695 C692 1.386 . S
C696 C691 1.490 . S
C696 C698 1.395 1_565 S
C696 C699 1.403 . S
H697 C703 0.930 . S
C698 H684 0.930 . S
C698 C696 1.395 1_545 S
C698 C701 1.403 . S
C699 C696 1.403 . S
C699 C700 1.527 . S
C699 C703 1.400 1_566 S
C700 H685 0.948 1_556 S
C700 H686 0.975 . S
C700 H687 0.955 1_556 S
C700 C699 1.527 . S
C701 C698 1.403 . S
C701 C702 1.392 1_556 S
C701 C705 1.495 . S
C702 C701 1.392 1_554 S
C702 C703 1.385 . S
C702 C704 1.478 . S
C703 H697 0.930 . S
C703 C699 1.400 1_544 S
C703 C702 1.385 . S
C704 C702 1.478 . S
C704 C706 1.381 . S
C704 C710 1.383 . S
C705 C701 1.495 . S
C705 H711 0.959 . S
C705 H712 0.961 . S
C705 H713 0.960 . S
C706 C704 1.381 . S
C706 C707 1.394 . S
C706 H714 0.930 1_554 S
C707 C706 1.394 . S
C707 C708 1.383 . S
C707 H715 0.929 . S
C708 C707 1.383 . S
C708 C709 1.377 . S
C709 H693 0.930 . S
C709 C708 1.377 . S
C709 C710 1.379 . S
C710 H694 0.931 . S
C710 C704 1.383 . S
C710 C709 1.379 . S
H711 C705 0.959 . S
H712 C705 0.961 . S
H713 C705 0.960 . S
H714 C706 0.930 1_556 S
H715 C707 0.929 . S
H716 C724 0.929 . S
H717 C726 0.930 . S
H718 C728 0.930 1_556 S
H719 C731 0.929 . S
H720 C734 0.930 . S
H721 C736 0.960 . S
H722 C736 0.960 1_554 S
H723 C736 0.960 . S
C724 H716 0.929 . S
C724 C725 1.377 . S
C724 C726 1.384 . S
C725 C724 1.377 . S
C725 C731 1.390 . S
C726 H717 0.930 . S
C726 C724 1.384 . S
C726 C727 1.372 . S
C727 C726 1.372 . S
C727 C728 1.400 . S
C727 C732 1.490 . S
C728 H718 0.930 1_554 S
C728 C727 1.400 . S
C728 C731 1.386 . S
H729 C745 0.930 . S
H730 C746 0.931 . S
C731 H719 0.929 . S
C731 C725 1.390 . S
C731 C728 1.386 . S
C732 C727 1.490 . S
C732 C734 1.395 . S
C732 C735 1.403 1_554 S
H733 C739 0.930 . S
C734 H720 0.930 . S
C734 C732 1.395 . S
C734 C737 1.403 1_554 S
C735 C732 1.403 1_556 S
C735 C736 1.524 . S
C735 C739 1.400 1_565 S
C736 H721 0.960 . S
C736 H722 0.960 1_556 S
C736 H723 0.960 . S
C736 C735 1.524 . S
C737 C734 1.403 1_556 S
C737 C738 1.392 1_565 S
C737 C741 1.495 . S
C738 C737 1.392 1_545 S
C738 C739 1.385 . S
C738 C740 1.478 . S
C739 H733 0.930 . S
C739 C735 1.400 1_545 S
C739 C738 1.385 . S
C740 C738 1.478 . S
C740 C742 1.381 . S
C740 C746 1.383 . S
C741 C737 1.495 . S
C741 H747 0.959 1_556 S
C741 H748 0.961 . S
C741 H749 0.960 1_566 S
C742 C740 1.381 . S
C742 C743 1.394 . S
C742 H750 0.930 . S
C743 C742 1.394 . S
C743 C744 1.383 . S
C743 H751 0.929 . S
C744 C743 1.383 . S
C744 C745 1.377 . S
C745 H729 0.930 . S
C745 C744 1.377 . S
C745 C746 1.379 . S
C746 H730 0.931 . S
C746 C740 1.383 . S
C746 C745 1.379 . S
H747 C741 0.959 1_554 S
H748 C741 0.961 . S
H749 C741 0.960 1_544 S
H750 C742 0.930 . S
H751 C743 0.929 . S
H752 C760 0.929 . S
H753 C762 0.930 . S
H754 C764 0.930 . S
H755 C767 0.929 . S
H756 C770 0.930 . S
H757 C772 0.960 . S
H758 C772 0.960 . S
H759 C772 0.960 . S
C760 H752 0.929 . S
C760 C761 1.377 . S
C760 C762 1.384 . S
C761 C760 1.377 . S
C761 C767 1.390 . S
C762 H753 0.930 . S
C762 C760 1.384 . S
C762 C763 1.372 . S
C763 C762 1.372 . S
C763 C764 1.400 . S
C763 C768 1.490 . S
C764 H754 0.930 . S
C764 C763 1.400 . S
C764 C767 1.386 . S
H765 C781 0.930 . S
H766 C782 0.931 . S
C767 H755 0.929 . S
C767 C761 1.390 . S
C767 C764 1.386 . S
C768 C763 1.490 . S
C768 C770 1.395 . S
C768 C771 1.403 1_655 S
H769 C775 0.930 . S
C770 H756 0.930 . S
C770 C768 1.395 . S
C770 C773 1.403 . S
C771 C768 1.403 1_455 S
C771 C772 1.524 . S
C771 C775 1.400 . S
C772 H757 0.960 . S
C772 H758 0.960 . S
C772 H759 0.960 . S
C772 C771 1.524 . S
C773 C770 1.403 . S
C773 C774 1.392 1_655 S
C773 C777 1.495 . S
C774 C773 1.392 1_455 S
C774 C775 1.385 . S
C774 C776 1.478 . S
C775 H769 0.930 . S
C775 C771 1.400 . S
C775 C774 1.385 . S
C776 C774 1.478 . S
C776 C778 1.381 . S
C776 C782 1.383 . S
C777 C773 1.495 . S
C777 H783 0.959 . S
C777 H784 0.961 . S
C777 H785 0.960 . S
C778 C776 1.381 . S
C778 C779 1.394 . S
C778 H786 0.930 . S
C779 C778 1.394 . S
C779 C780 1.383 . S
C779 H787 0.929 . S
C780 C779 1.383 . S
C780 C781 1.377 . S
C781 H765 0.930 . S
C781 C780 1.377 . S
C781 C782 1.379 . S
C782 H766 0.931 . S
C782 C776 1.383 . S
C782 C781 1.379 . S
H783 C777 0.959 . S
H784 C777 0.961 . S
H785 C777 0.960 . S
H786 C778 0.930 . S
H787 C779 0.929 . S
H788 C796 0.929 . S
H789 C798 0.930 . S
H790 C800 0.930 1_655 S
H791 C803 0.929 . S
H792 C806 0.930 . S
H793 C808 0.960 . S
H794 C808 0.960 . S
H795 C808 0.960 . S
C796 H788 0.929 . S
C796 C797 1.377 . S
C796 C798 1.384 . S
C797 C796 1.377 . S
C797 C803 1.390 . S
C798 H789 0.930 . S
C798 C796 1.384 . S
C798 C799 1.372 . S
C799 C798 1.372 . S
C799 C800 1.400 . S
C799 C804 1.490 . S
C800 H790 0.930 1_455 S
C800 C799 1.400 . S
C800 C803 1.386 . S
H801 C817 0.930 . S
H802 C818 0.931 . S
C803 H791 0.929 . S
C803 C797 1.390 . S
C803 C800 1.386 . S
C804 C799 1.490 . S
C804 C806 1.395 . S
C804 C807 1.403 . S
H805 C811 0.930 . S
C806 H792 0.930 . S
C806 C804 1.395 . S
C806 C809 1.403 1_455 S
C807 C804 1.403 . S
C807 C808 1.524 . S
C807 C811 1.400 1_455 S
C808 H793 0.960 . S
C808 H794 0.960 . S
C808 H795 0.960 . S
C808 C807 1.524 . S
C809 C806 1.403 1_655 S
C809 C810 1.392 . S
C809 C813 1.495 . S
C810 C809 1.392 . S
C810 C811 1.385 . S
C810 C812 1.478 . S
C811 H805 0.930 . S
C811 C807 1.400 1_655 S
C811 C810 1.385 . S
C812 C810 1.478 . S
C812 C814 1.381 . S
C812 C818 1.383 . S
C813 C809 1.495 . S
C813 H819 0.959 . S
C813 H820 0.961 . S
C813 H821 0.960 . S
C814 C812 1.381 . S
C814 C815 1.394 . S
C814 H822 0.930 1_655 S
C815 C814 1.394 . S
C815 C816 1.383 . S
C815 H823 0.929 . S
C816 C815 1.383 . S
C816 C817 1.377 . S
C817 H801 0.930 . S
C817 C816 1.377 . S
C817 C818 1.379 . S
C818 H802 0.931 . S
C818 C812 1.383 . S
C818 C817 1.379 . S
H819 C813 0.959 . S
H820 C813 0.961 . S
H821 C813 0.960 . S
H822 C814 0.930 1_455 S
H823 C815 0.929 . S
H824 C832 0.929 . S
H825 C834 0.930 . S
H826 C836 0.930 . S
H827 C839 0.929 . S
H828 C842 0.930 . S
H829 C844 0.960 . S
H830 C844 0.960 . S
H831 C844 0.944 1_554 S
C832 H824 0.929 . S
C832 C833 1.377 . S
C832 C834 1.384 . S
C833 C832 1.377 . S
C833 C839 1.390 . S
C834 H825 0.930 . S
C834 C832 1.384 . S
C834 C835 1.372 . S
C835 C834 1.372 . S
C835 C836 1.400 . S
C835 C840 1.490 . S
C836 H826 0.930 . S
C836 C835 1.400 . S
C836 C839 1.386 . S
H837 C853 0.930 . S
H838 C854 0.931 . S
C839 H827 0.929 . S
C839 C833 1.390 . S
C839 C836 1.386 . S
C840 C835 1.490 . S
C840 C842 1.395 . S
C840 C843 1.403 1_554 S
H841 C847 0.930 . S
C842 H828 0.930 . S
C842 C840 1.395 . S
C842 C845 1.403 1_554 S
C843 C840 1.403 1_556 S
C843 C844 1.524 . S
C843 C847 1.400 . S
C844 H829 0.960 . S
C844 H830 0.960 . S
C844 H831 0.944 1_556 S
C844 C843 1.524 . S
C845 C842 1.403 1_556 S
C845 C846 1.392 . S
C845 C849 1.495 . S
C846 C845 1.392 . S
C846 C847 1.385 . S
C846 C848 1.478 . S
C847 H841 0.930 . S
C847 C843 1.400 . S
C847 C846 1.385 . S
C848 C846 1.478 . S
C848 C850 1.381 . S
C848 C854 1.383 . S
C849 C845 1.495 . S
C849 H855 0.959 1_556 S
C849 H856 0.961 1_556 S
C849 H857 0.960 . S
C850 C848 1.381 . S
C850 C851 1.394 . S
C850 H858 0.930 . S
C851 C850 1.394 . S
C851 C852 1.383 . S
C851 H859 0.929 . S
C852 C851 1.383 . S
C852 C853 1.377 . S
C853 H837 0.930 . S
C853 C852 1.377 . S
C853 C854 1.379 . S
C854 H838 0.931 . S
C854 C848 1.383 . S
C854 C853 1.379 . S
H855 C849 0.959 1_554 S
H856 C849 0.961 1_554 S
H857 C849 0.960 . S
H858 C850 0.930 . S
H859 C851 0.929 . S
H860 C868 0.929 . S
H861 C870 0.930 . S
H862 C872 0.930 . S
H863 C875 0.929 . S
H864 C878 0.930 . S
H865 C880 0.960 . S
H866 C880 0.960 . S
H867 C880 0.960 . S
C868 H860 0.929 . S
C868 C869 1.377 . S
C868 C870 1.384 . S
C869 C868 1.377 . S
C869 C875 1.390 . S
C870 H861 0.930 . S
C870 C868 1.384 . S
C870 C871 1.372 . S
C871 C870 1.372 . S
C871 C872 1.400 . S
C871 C876 1.490 . S
C872 H862 0.930 . S
C872 C871 1.400 . S
C872 C875 1.386 . S
H873 C889 0.930 . S
H874 C890 0.931 . S
C875 H863 0.929 . S
C875 C869 1.390 . S
C875 C872 1.386 . S
C876 C871 1.490 . S
C876 C878 1.395 . S
C876 C879 1.403 1_556 S
H877 C883 0.930 . S
C878 H864 0.930 . S
C878 C876 1.395 . S
C878 C881 1.403 . S
C879 C876 1.403 1_554 S
C879 C880 1.524 . S
C879 C883 1.400 . S
C880 H865 0.960 . S
C880 H866 0.960 . S
C880 H867 0.960 . S
C880 C879 1.524 . S
C881 C878 1.403 . S
C881 C882 1.392 1_556 S
C881 C885 1.495 . S
C882 C881 1.392 1_554 S
C882 C883 1.385 . S
C882 C884 1.478 . S
C883 H877 0.930 . S
C883 C879 1.400 . S
C883 C882 1.385 . S
C884 C882 1.478 . S
C884 C886 1.381 . S
C884 C890 1.383 . S
C885 C881 1.495 . S
C885 H891 0.959 . S
C885 H892 0.961 . S
C885 H893 0.960 . S
C886 C884 1.381 . S
C886 C887 1.394 . S
C886 H894 0.921 1_554 S
C887 C886 1.394 . S
C887 C888 1.383 . S
C887 H895 0.929 . S
C888 C887 1.383 . S
C888 C889 1.377 . S
C889 H873 0.930 . S
C889 C888 1.377 . S
C889 C890 1.379 . S
C890 H874 0.931 . S
C890 C884 1.383 . S
C890 C889 1.379 . S
H891 C885 0.959 . S
H892 C885 0.961 . S
H893 C885 0.960 . S
H894 C886 0.921 1_556 S
H895 C887 0.929 . S
H896 C904 0.929 . S
H897 C906 0.930 . S
H898 C908 0.930 1_655 S
H899 C911 0.929 . S
H900 C914 0.930 . S
H901 C916 0.960 . S
H902 C916 0.914 1_455 S
H903 C916 0.960 . S
C904 H896 0.929 . S
C904 C905 1.377 . S
C904 C906 1.384 . S
C905 C904 1.377 . S
C905 C911 1.390 . S
C906 H897 0.930 . S
C906 C904 1.384 . S
C906 C907 1.372 . S
C907 C906 1.372 . S
C907 C908 1.400 . S
C907 C912 1.490 . S
C908 H898 0.930 1_455 S
C908 C907 1.400 . S
C908 C911 1.386 . S
H909 C925 0.930 . S
H910 C926 0.931 . S
C911 H899 0.929 . S
C911 C905 1.390 . S
C911 C908 1.386 . S
C912 C907 1.490 . S
C912 C914 1.395 . S
C912 C915 1.403 1_455 S
H913 C919 0.930 . S
C914 H900 0.930 . S
C914 C912 1.395 . S
C914 C917 1.403 . S
C915 C912 1.403 1_655 S
C915 C916 1.524 . S
C915 C919 1.400 . S
C916 H901 0.960 . S
C916 H902 0.914 1_655 S
C916 H903 0.960 . S
C916 C915 1.524 . S
C917 C914 1.403 . S
C917 C918 1.392 1_455 S
C917 C921 1.495 . S
C918 C917 1.392 1_655 S
C918 C919 1.385 . S
C918 C920 1.478 . S
C919 H913 0.930 . S
C919 C915 1.400 . S
C919 C918 1.385 . S
C920 C918 1.478 . S
C920 C922 1.381 . S
C920 C926 1.383 . S
C921 C917 1.495 . S
C921 H927 0.959 . S
C921 H928 0.961 . S
C921 H929 0.960 . S
C922 C920 1.381 . S
C922 C923 1.394 . S
C922 H930 0.930 1_655 S
C923 C922 1.394 . S
C923 C924 1.383 . S
C923 H931 0.929 . S
C924 C923 1.383 . S
C924 C925 1.377 . S
C925 H909 0.930 . S
C925 C924 1.377 . S
C925 C926 1.379 . S
C926 H910 0.931 . S
C926 C920 1.383 . S
C926 C925 1.379 . S
H927 C921 0.959 . S
H928 C921 0.961 . S
H929 C921 0.960 . S
H930 C922 0.930 1_455 S
H931 C923 0.929 . S
H932 C940 0.929 . S
H933 C942 0.930 . S
H934 C944 0.930 . S
H935 C947 0.929 . S
H936 C950 0.930 . S
H937 C952 0.960 . S
H938 C952 0.960 . S
H939 C952 0.960 . S
C940 H932 0.929 . S
C940 C941 1.377 . S
C940 C942 1.384 . S
C941 C940 1.377 . S
C941 C947 1.390 . S
C942 H933 0.930 . S
C942 C940 1.384 . S
C942 C943 1.372 . S
C943 C942 1.372 . S
C943 C944 1.400 . S
C943 C948 1.490 . S
C944 H934 0.930 . S
C944 C943 1.400 . S
C944 C947 1.386 . S
H945 C961 0.930 . S
H946 C962 0.931 . S
C947 H935 0.929 . S
C947 C941 1.390 . S
C947 C944 1.386 . S
C948 C943 1.490 . S
C948 C950 1.395 . S
C948 C951 1.403 1_655 S
H949 C955 0.930 . S
C950 H936 0.930 . S
C950 C948 1.395 . S
C950 C953 1.403 . S
C951 C948 1.403 1_455 S
C951 C952 1.524 . S
C951 C955 1.400 . S
C952 H937 0.960 . S
C952 H938 0.960 . S
C952 H939 0.960 . S
C952 C951 1.524 . S
C953 C950 1.403 . S
C953 C954 1.392 1_655 S
C953 C957 1.495 . S
C954 C953 1.392 1_455 S
C954 C955 1.385 . S
C954 C956 1.478 . S
C955 H949 0.930 . S
C955 C951 1.400 . S
C955 C954 1.385 . S
C956 C954 1.478 . S
C956 C958 1.381 . S
C956 C962 1.383 . S
C957 C953 1.495 . S
C957 H963 0.959 . S
C957 H964 0.961 . S
C957 H965 0.960 . S
C958 C956 1.381 . S
C958 C959 1.394 . S
C958 H966 0.930 . S
C959 C958 1.394 . S
C959 C960 1.383 . S
C959 H967 0.929 . S
C960 C959 1.383 . S
C960 C961 1.377 . S
C961 H945 0.930 . S
C961 C960 1.377 . S
C961 C962 1.379 . S
C962 H946 0.931 . S
C962 C956 1.383 . S
C962 C961 1.379 . S
H963 C957 0.959 . S
H964 C957 0.961 . S
H965 C957 0.960 . S
H966 C958 0.930 . S
H967 C959 0.929 . S
H968 C976 0.929 . S
H969 C978 0.930 . S
H970 C980 0.930 . S
H971 C983 0.929 . S
H972 C986 0.930 . S
H973 C988 0.960 . S
H974 C988 0.960 . S
H975 C988 0.960 . S
C976 H968 0.929 . S
C976 C977 1.377 . S
C976 C978 1.384 . S
C977 C976 1.377 . S
C977 C983 1.390 . S
C978 H969 0.930 . S
C978 C976 1.384 . S
C978 C979 1.372 . S
C979 C978 1.372 . S
C979 C980 1.400 . S
C979 C984 1.490 . S
C980 H970 0.930 . S
C980 C979 1.400 . S
C980 C983 1.386 . S
H981 C997 0.930 . S
H982 C998 0.931 . S
C983 H971 0.929 . S
C983 C977 1.390 . S
C983 C980 1.386 . S
C984 C979 1.490 . S
C984 C986 1.395 . S
C984 C987 1.403 1_565 S
H985 C991 0.930 . S
C986 H972 0.930 . S
C986 C984 1.395 . S
C986 C989 1.403 1_565 S
C987 C984 1.403 1_545 S
C987 C988 1.524 . S
C987 C991 1.400 . S
C988 H973 0.960 . S
C988 H974 0.960 . S
C988 H975 0.960 . S
C988 C987 1.524 . S
C989 C986 1.403 1_545 S
C989 C990 1.392 . S
C989 C993 1.495 1_545 S
C990 C989 1.392 . S
C990 C991 1.385 . S
C990 C992 1.478 . S
C991 H985 0.930 . S
C991 C987 1.400 . S
C991 C990 1.385 . S
C992 C990 1.478 . S
C992 C994 1.381 . S
C992 C998 1.383 . S
C993 C989 1.495 1_565 S
C993 H999 0.959 . S
C993 H1000 0.961 1_565 S
C993 H1001 0.960 1_565 S
C994 C992 1.381 . S
C994 C995 1.394 . S
C994 H1002 0.930 . S
C995 C994 1.394 . S
C995 C996 1.383 . S
C995 H1003 0.929 . S
C996 C995 1.383 . S
C996 C997 1.377 . S
C997 H981 0.930 . S
C997 C996 1.377 . S
C997 C998 1.379 . S
C998 H982 0.931 . S
C998 C992 1.383 . S
C998 C997 1.379 . S
H999 C993 0.959 . S
H1000 C993 0.961 1_545 S
H1001 C993 0.960 1_545 S
H1002 C994 0.930 . S
H1003 C995 0.929 . S
H1004 C1012 0.929 . S
H1005 C1014 0.930 . S
H1006 C1016 0.930 . S
H1007 C1019 0.929 . S
H1008 C1022 0.930 . S
H1009 C1024 0.960 1_545 S
H1010 C1024 0.960 . S
H1011 C1024 0.960 . S
C1012 H1004 0.929 . S
C1012 C1013 1.377 . S
C1012 C1014 1.384 . S
C1013 C1012 1.377 . S
C1013 C1019 1.390 . S
C1014 H1005 0.930 . S
C1014 C1012 1.384 . S
C1014 C1015 1.372 . S
C1015 C1014 1.372 . S
C1015 C1016 1.400 . S
C1015 C1020 1.490 . S
C1016 H1006 0.930 . S
C1016 C1015 1.400 . S
C1016 C1019 1.386 . S
H1017 C1033 0.930 . S
H1018 C1034 0.931 . S
C1019 H1007 0.929 . S
C1019 C1013 1.390 . S
C1019 C1016 1.386 . S
C1020 C1015 1.490 . S
C1020 C1022 1.395 . S
C1020 C1023 1.403 . S
H1021 C1027 0.930 . S
C1022 H1008 0.930 . S
C1022 C1020 1.395 . S
C1022 C1025 1.403 . S
C1023 C1020 1.403 . S
C1023 C1024 1.524 . S
C1023 C1027 1.400 1_565 S
C1024 H1009 0.960 1_565 S
C1024 H1010 0.960 . S
C1024 H1011 0.960 . S
C1024 C1023 1.524 . S
C1025 C1022 1.403 . S
C1025 C1026 1.392 1_565 S
C1025 C1029 1.495 . S
C1026 C1025 1.392 1_545 S
C1026 C1027 1.385 . S
C1026 C1028 1.478 . S
C1027 H1021 0.930 . S
C1027 C1023 1.400 1_545 S
C1027 C1026 1.385 . S
C1028 C1026 1.478 . S
C1028 C1030 1.381 . S
C1028 C1034 1.383 . S
C1029 C1025 1.495 . S
C1029 H1035 0.959 . S
C1029 H1036 0.961 . S
C1029 H1037 0.960 . S
C1030 C1028 1.381 . S
C1030 C1031 1.394 . S
C1030 H1038 0.930 . S
C1031 C1030 1.394 . S
C1031 C1032 1.383 . S
C1031 H1039 0.929 . S
C1032 C1031 1.383 . S
C1032 C1033 1.377 . S
C1033 H1017 0.930 . S
C1033 C1032 1.377 . S
C1033 C1034 1.379 . S
C1034 H1018 0.931 . S
C1034 C1028 1.383 . S
C1034 C1033 1.379 . S
H1035 C1029 0.959 . S
H1036 C1029 0.961 . S
H1037 C1029 0.960 . S
H1038 C1030 0.930 . S
H1039 C1031 0.929 . S
H1040 C1048 0.929 . S
H1041 C1050 0.930 . S
H1042 C1052 0.930 . S
H1043 C1055 0.929 . S
H1044 C1058 0.930 . S
H1045 C1060 0.960 . S
H1046 C1060 0.960 . S
H1047 C1060 0.960 . S
C1048 H1040 0.929 . S
C1048 C1049 1.377 . S
C1048 C1050 1.384 . S
C1049 C1048 1.377 . S
C1049 C1055 1.390 . S
C1050 H1041 0.930 . S
C1050 C1048 1.384 . S
C1050 C1051 1.372 . S
C1051 C1050 1.372 . S
C1051 C1052 1.400 . S
C1051 C1056 1.490 . S
C1052 H1042 0.930 . S
C1052 C1051 1.400 . S
C1052 C1055 1.386 . S
H1053 C1069 0.930 . S
H1054 C1070 0.931 . S
C1055 H1043 0.929 . S
C1055 C1049 1.390 . S
C1055 C1052 1.386 . S
C1056 C1051 1.490 . S
C1056 C1058 1.395 . S
C1056 C1059 1.403 . S
H1057 C1063 0.930 . S
C1058 H1044 0.930 . S
C1058 C1056 1.395 . S
C1058 C1061 1.403 . S
C1059 C1056 1.403 . S
C1059 C1060 1.524 . S
C1059 C1063 1.400 . S
C1060 H1045 0.960 . S
C1060 H1046 0.960 . S
C1060 H1047 0.960 . S
C1060 C1059 1.524 . S
C1061 C1058 1.403 . S
C1061 C1062 1.392 . S
C1061 C1065 1.495 . S
C1062 C1061 1.392 . S
C1062 C1063 1.385 . S
C1062 C1064 1.478 . S
C1063 H1057 0.930 . S
C1063 C1059 1.400 . S
C1063 C1062 1.385 . S
C1064 C1062 1.478 . S
C1064 C1066 1.381 . S
C1064 C1070 1.383 . S
C1065 C1061 1.495 . S
C1065 H1071 0.959 . S
C1065 H1072 0.961 . S
C1065 H1073 0.960 . S
C1066 C1064 1.381 . S
C1066 C1067 1.394 . S
C1066 H1074 0.930 . S
C1067 C1066 1.394 . S
C1067 C1068 1.383 . S
C1067 H1075 0.929 . S
C1068 C1067 1.383 . S
C1068 C1069 1.377 . S
C1069 H1053 0.930 . S
C1069 C1068 1.377 . S
C1069 C1070 1.379 . S
C1070 H1054 0.931 . S
C1070 C1064 1.383 . S
C1070 C1069 1.379 . S
H1071 C1065 0.959 . S
H1072 C1065 0.961 . S
H1073 C1065 0.960 . S
H1074 C1066 0.930 . S
H1075 C1067 0.929 . S
H1076 C1084 0.929 . S
H1077 C1086 0.930 . S
H1078 C1088 0.930 . S
H1079 C1091 0.929 . S
H1080 C1094 0.930 . S
H1081 C1096 0.960 . S
H1082 C1096 0.960 . S
H1083 C1096 0.960 . S
C1084 H1076 0.929 . S
C1084 C1085 1.377 . S
C1084 C1086 1.384 . S
C1085 C1084 1.377 . S
C1085 C1091 1.390 . S
C1086 H1077 0.930 . S
C1086 C1084 1.384 . S
C1086 C1087 1.372 . S
C1087 C1086 1.372 . S
C1087 C1088 1.400 . S
C1087 C1092 1.490 . S
C1088 H1078 0.930 . S
C1088 C1087 1.400 . S
C1088 C1091 1.386 . S
H1089 C1105 0.930 . S
H1090 C1106 0.931 . S
C1091 H1079 0.929 . S
C1091 C1085 1.390 . S
C1091 C1088 1.386 . S
C1092 C1087 1.490 . S
C1092 C1094 1.395 . S
C1092 C1095 1.403 . S
H1093 C1099 0.930 . S
C1094 H1080 0.930 . S
C1094 C1092 1.395 . S
C1094 C1097 1.403 . S
C1095 C1092 1.403 . S
C1095 C1096 1.524 . S
C1095 C1099 1.400 . S
C1096 H1081 0.960 . S
C1096 H1082 0.960 . S
C1096 H1083 0.960 . S
C1096 C1095 1.524 . S
C1097 C1094 1.403 . S
C1097 C1098 1.392 . S
C1097 C1101 1.495 . S
C1098 C1097 1.392 . S
C1098 C1099 1.385 . S
C1098 C1100 1.478 . S
C1099 H1093 0.930 . S
C1099 C1095 1.400 . S
C1099 C1098 1.385 . S
C1100 C1098 1.478 . S
C1100 C1102 1.381 . S
C1100 C1106 1.383 . S
C1101 C1097 1.495 . S
C1101 H1107 0.959 . S
C1101 H1108 0.961 . S
C1101 H1109 0.960 . S
C1102 C1100 1.381 . S
C1102 C1103 1.394 . S
C1102 H1110 0.930 . S
C1103 C1102 1.394 . S
C1103 C1104 1.383 . S
C1103 H1111 0.929 . S
C1104 C1103 1.383 . S
C1104 C1105 1.377 . S
C1105 H1089 0.930 . S
C1105 C1104 1.377 . S
C1105 C1106 1.379 . S
C1106 H1090 0.931 . S
C1106 C1100 1.383 . S
C1106 C1105 1.379 . S
H1107 C1101 0.959 . S
H1108 C1101 0.961 . S
H1109 C1101 0.960 . S
H1110 C1102 0.930 . S
H1111 C1103 0.929 . S
H1112 C1120 0.929 . S
H1113 C1122 0.930 . S
H1114 C1124 0.930 . S
H1115 C1127 0.929 . S
H1116 C1130 0.930 . S
H1117 C1132 0.960 . S
H1118 C1132 0.960 . S
H1119 C1132 0.960 . S
C1120 H1112 0.929 . S
C1120 C1121 1.377 . S
C1120 C1122 1.384 . S
C1121 C1120 1.377 . S
C1121 C1127 1.390 . S
C1122 H1113 0.930 . S
C1122 C1120 1.384 . S
C1122 C1123 1.372 . S
C1123 C1122 1.372 . S
C1123 C1124 1.400 . S
C1123 C1128 1.490 . S
C1124 H1114 0.930 . S
C1124 C1123 1.400 . S
C1124 C1127 1.386 . S
H1125 C1141 0.930 . S
H1126 C1142 0.931 . S
C1127 H1115 0.929 . S
C1127 C1121 1.390 . S
C1127 C1124 1.386 . S
C1128 C1123 1.490 . S
C1128 C1130 1.395 . S
C1128 C1131 1.403 . S
H1129 C1135 0.930 . S
C1130 H1116 0.930 . S
C1130 C1128 1.395 . S
C1130 C1133 1.403 . S
C1131 C1128 1.403 . S
C1131 C1132 1.524 . S
C1131 C1135 1.400 . S
C1132 H1117 0.960 . S
C1132 H1118 0.960 . S
C1132 H1119 0.960 . S
C1132 C1131 1.524 . S
C1133 C1130 1.403 . S
C1133 C1134 1.392 . S
C1133 C1137 1.495 . S
C1134 C1133 1.392 . S
C1134 C1135 1.385 . S
C1134 C1136 1.478 . S
C1135 H1129 0.930 . S
C1135 C1131 1.400 . S
C1135 C1134 1.385 . S
C1136 C1134 1.478 . S
C1136 C1138 1.381 . S
C1136 C1142 1.383 . S
C1137 C1133 1.495 . S
C1137 H1143 0.959 . S
C1137 H1144 0.961 . S
C1137 H1145 0.960 . S
C1138 C1136 1.381 . S
C1138 C1139 1.394 . S
C1138 H1146 0.930 . S
C1139 C1138 1.394 . S
C1139 C1140 1.383 . S
C1139 H1147 0.929 . S
C1140 C1139 1.383 . S
C1140 C1141 1.377 . S
C1141 H1125 0.930 . S
C1141 C1140 1.377 . S
C1141 C1142 1.379 . S
C1142 H1126 0.931 . S
C1142 C1136 1.383 . S
C1142 C1141 1.379 . S
H1143 C1137 0.959 . S
H1144 C1137 0.961 . S
H1145 C1137 0.960 . S
H1146 C1138 0.930 . S
H1147 C1139 0.929 . S
H1148 C1156 0.929 . S
H1149 C1158 0.930 . S
H1150 C1160 0.930 . S
H1151 C1163 0.929 . S
H1152 C1166 0.930 . S
H1153 C1168 0.960 . S
H1154 C1168 0.960 . S
H1155 C1168 0.960 . S
C1156 H1148 0.929 . S
C1156 C1157 1.377 . S
C1156 C1158 1.384 . S
C1157 C1156 1.377 . S
C1157 C1163 1.390 . S
C1158 H1149 0.930 . S
C1158 C1156 1.384 . S
C1158 C1159 1.372 . S
C1159 C1158 1.372 . S
C1159 C1160 1.400 . S
C1159 C1164 1.490 . S
C1160 H1150 0.930 . S
C1160 C1159 1.400 . S
C1160 C1163 1.386 . S
H1161 C1177 0.930 . S
H1162 C1178 0.931 . S
C1163 H1151 0.929 . S
C1163 C1157 1.390 . S
C1163 C1160 1.386 . S
C1164 C1159 1.490 . S
C1164 C1166 1.395 . S
C1164 C1167 1.403 . S
H1165 C1171 0.930 . S
C1166 H1152 0.930 . S
C1166 C1164 1.395 . S
C1166 C1169 1.403 . S
C1167 C1164 1.403 . S
C1167 C1168 1.524 . S
C1167 C1171 1.400 . S
C1168 H1153 0.960 . S
C1168 H1154 0.960 . S
C1168 H1155 0.960 . S
C1168 C1167 1.524 . S
C1169 C1166 1.403 . S
C1169 C1170 1.392 . S
C1169 C1173 1.495 . S
C1170 C1169 1.392 . S
C1170 C1171 1.385 . S
C1170 C1172 1.478 . S
C1171 H1165 0.930 . S
C1171 C1167 1.400 . S
C1171 C1170 1.385 . S
C1172 C1170 1.478 . S
C1172 C1174 1.381 . S
C1172 C1178 1.383 . S
C1173 C1169 1.495 . S
C1173 H1179 0.959 . S
C1173 H1180 0.961 . S
C1173 H1181 0.960 . S
C1174 C1172 1.381 . S
C1174 C1175 1.394 . S
C1174 H1182 0.930 . S
C1175 C1174 1.394 . S
C1175 C1176 1.383 . S
C1175 H1183 0.929 . S
C1176 C1175 1.383 . S
C1176 C1177 1.377 . S
C1177 H1161 0.930 . S
C1177 C1176 1.377 . S
C1177 C1178 1.379 . S
C1178 H1162 0.931 . S
C1178 C1172 1.383 . S
C1178 C1177 1.379 . S
H1179 C1173 0.959 . S
H1180 C1173 0.961 . S
H1181 C1173 0.960 . S
H1182 C1174 0.930 . S
H1183 C1175 0.929 . S
H1184 C1192 0.929 . S
H1185 C1194 0.930 . S
H1186 C1196 0.930 . S
H1187 C1199 0.929 . S
H1188 C1202 0.930 . S
H1189 C1204 0.960 1_556 S
H1190 C1204 0.960 . S
H1191 C1204 0.960 . S
C1192 H1184 0.929 . S
C1192 C1193 1.377 . S
C1192 C1194 1.384 . S
C1193 C1192 1.377 . S
C1193 C1199 1.390 . S
C1194 H1185 0.930 . S
C1194 C1192 1.384 . S
C1194 C1195 1.372 . S
C1195 C1194 1.372 . S
C1195 C1196 1.400 . S
C1195 C1200 1.490 . S
C1196 H1186 0.930 . S
C1196 C1195 1.400 . S
C1196 C1199 1.386 . S
H1197 C1213 0.930 . S
H1198 C1214 0.931 . S
C1199 H1187 0.929 . S
C1199 C1193 1.390 . S
C1199 C1196 1.386 . S
C1200 C1195 1.490 . S
C1200 C1202 1.395 . S
C1200 C1203 1.403 . S
H1201 C1207 0.930 . S
C1202 H1188 0.930 . S
C1202 C1200 1.395 . S
C1202 C1205 1.403 1_554 S
C1203 C1200 1.403 . S
C1203 C1204 1.524 . S
C1203 C1207 1.400 1_554 S
C1204 H1189 0.960 1_554 S
C1204 H1190 0.960 . S
C1204 H1191 0.960 . S
C1204 C1203 1.524 . S
C1205 C1202 1.403 1_556 S
C1205 C1206 1.392 . S
C1205 C1209 1.495 . S
C1206 C1205 1.392 . S
C1206 C1207 1.385 . S
C1206 C1208 1.478 . S
C1207 H1201 0.930 . S
C1207 C1203 1.400 1_556 S
C1207 C1206 1.385 . S
C1208 C1206 1.478 . S
C1208 C1210 1.381 . S
C1208 C1214 1.383 . S
C1209 C1205 1.495 . S
C1209 H1215 0.959 . S
C1209 H1216 0.961 . S
C1209 H1217 0.960 . S
C1210 C1208 1.381 . S
C1210 C1211 1.394 . S
C1210 H1218 0.930 . S
C1211 C1210 1.394 . S
C1211 C1212 1.383 . S
C1211 H1219 0.929 . S
C1212 C1211 1.383 . S
C1212 C1213 1.377 . S
C1213 H1197 0.930 . S
C1213 C1212 1.377 . S
C1213 C1214 1.379 . S
C1214 H1198 0.931 . S
C1214 C1208 1.383 . S
C1214 C1213 1.379 . S
H1215 C1209 0.959 . S
H1216 C1209 0.961 . S
H1217 C1209 0.960 . S
H1218 C1210 0.930 . S
H1219 C1211 0.929 . S
H1220 C1228 0.929 . S
H1221 C1230 0.930 . S
H1222 C1232 0.930 . S
H1223 C1235 0.929 . S
H1224 C1238 0.930 . S
H1225 C1240 0.977 . S
H1226 C1240 0.960 . S
H1227 C1240 0.960 . S
C1228 H1220 0.929 . S
C1228 C1229 1.377 . S
C1228 C1230 1.384 . S
C1229 C1228 1.377 . S
C1229 C1235 1.390 . S
C1230 H1221 0.930 . S
C1230 C1228 1.384 . S
C1230 C1231 1.372 . S
C1231 C1230 1.372 . S
C1231 C1232 1.400 . S
C1231 C1236 1.490 . S
C1232 H1222 0.930 . S
C1232 C1231 1.400 . S
C1232 C1235 1.386 . S
H1233 C1249 0.930 . S
H1234 C1250 0.931 . S
C1235 H1223 0.929 . S
C1235 C1229 1.390 . S
C1235 C1232 1.386 . S
C1236 C1231 1.490 . S
C1236 C1238 1.395 . S
C1236 C1239 1.403 . S
H1237 C1243 0.930 . S
C1238 H1224 0.930 . S
C1238 C1236 1.395 . S
C1238 C1241 1.403 1_554 S
C1239 C1236 1.403 . S
C1239 C1240 1.524 . S
C1239 C1243 1.400 1_554 S
C1240 H1225 0.977 . S
C1240 H1226 0.960 . S
C1240 H1227 0.960 . S
C1240 C1239 1.524 . S
C1241 C1238 1.403 1_556 S
C1241 C1242 1.392 . S
C1241 C1245 1.495 . S
C1242 C1241 1.392 . S
C1242 C1243 1.385 . S
C1242 C1244 1.478 . S
C1243 H1237 0.930 . S
C1243 C1239 1.400 1_556 S
C1243 C1242 1.385 . S
C1244 C1242 1.478 . S
C1244 C1246 1.381 . S
C1244 C1250 1.383 . S
C1245 C1241 1.495 . S
C1245 H1251 0.959 . S
C1245 H1252 0.961 . S
C1245 H1253 0.960 . S
C1246 C1244 1.381 . S
C1246 C1247 1.394 . S
C1246 H1254 0.930 . S
C1247 C1246 1.394 . S
C1247 C1248 1.383 . S
C1247 H1255 0.929 . S
C1248 C1247 1.383 . S
C1248 C1249 1.377 . S
C1249 H1233 0.930 . S
C1249 C1248 1.377 . S
C1249 C1250 1.379 . S
C1250 H1234 0.931 . S
C1250 C1244 1.383 . S
C1250 C1249 1.379 . S
H1251 C1245 0.959 . S
H1252 C1245 0.961 . S
H1253 C1245 0.960 . S
H1254 C1246 0.930 . S
H1255 C1247 0.929 . S
H1256 C1264 0.929 . S
H1257 C1266 0.930 . S
H1258 C1268 0.930 . S
H1259 C1271 0.929 . S
H1260 C1274 0.930 . S
H1261 C1276 0.960 . S
H1262 C1276 0.960 . S
H1263 C1276 0.960 . S
C1264 H1256 0.929 . S
C1264 C1265 1.377 . S
C1264 C1266 1.384 . S
C1265 C1264 1.377 . S
C1265 C1271 1.390 . S
C1266 H1257 0.930 . S
C1266 C1264 1.384 . S
C1266 C1267 1.372 . S
C1267 C1266 1.372 . S
C1267 C1268 1.400 . S
C1267 C1272 1.490 . S
C1268 H1258 0.930 . S
C1268 C1267 1.400 . S
C1268 C1271 1.386 . S
H1269 C1285 0.930 . S
H1270 C1286 0.931 . S
C1271 H1259 0.929 . S
C1271 C1265 1.390 . S
C1271 C1268 1.386 . S
C1272 C1267 1.490 . S
C1272 C1274 1.395 . S
C1272 C1275 1.403 . S
H1273 C1279 0.930 . S
C1274 H1260 0.930 . S
C1274 C1272 1.395 . S
C1274 C1277 1.403 . S
C1275 C1272 1.403 . S
C1275 C1276 1.524 . S
C1275 C1279 1.400 . S
C1276 H1261 0.960 . S
C1276 H1262 0.960 . S
C1276 H1263 0.960 . S
C1276 C1275 1.524 . S
C1277 C1274 1.403 . S
C1277 C1278 1.392 . S
C1277 C1281 1.495 . S
C1278 C1277 1.392 . S
C1278 C1279 1.385 . S
C1278 C1280 1.478 . S
C1279 H1273 0.930 . S
C1279 C1275 1.400 . S
C1279 C1278 1.385 . S
C1280 C1278 1.478 . S
C1280 C1282 1.381 . S
C1280 C1286 1.383 . S
C1281 C1277 1.495 . S
C1281 H1287 0.959 . S
C1281 H1288 0.961 . S
C1281 H1289 0.960 . S
C1282 C1280 1.381 . S
C1282 C1283 1.394 . S
C1282 H1290 0.930 . S
C1283 C1282 1.394 . S
C1283 C1284 1.383 . S
C1283 H1291 0.929 . S
C1284 C1283 1.383 . S
C1284 C1285 1.377 . S
C1285 H1269 0.930 . S
C1285 C1284 1.377 . S
C1285 C1286 1.379 . S
C1286 H1270 0.931 . S
C1286 C1280 1.383 . S
C1286 C1285 1.379 . S
H1287 C1281 0.959 . S
H1288 C1281 0.961 . S
H1289 C1281 0.960 . S
H1290 C1282 0.930 . S
H1291 C1283 0.929 . S
H1292 C1300 0.929 . S
H1293 C1302 0.930 . S
H1294 C1304 0.930 . S
H1295 C1307 0.929 . S
H1296 C1310 0.930 . S
H1297 C1312 0.960 . S
H1298 C1312 0.960 . S
H1299 C1312 0.960 . S
C1300 H1292 0.929 . S
C1300 C1301 1.377 . S
C1300 C1302 1.384 . S
C1301 C1300 1.377 . S
C1301 C1307 1.390 . S
C1302 H1293 0.930 . S
C1302 C1300 1.384 . S
C1302 C1303 1.372 . S
C1303 C1302 1.372 . S
C1303 C1304 1.400 . S
C1303 C1308 1.490 . S
C1304 H1294 0.930 . S
C1304 C1303 1.400 . S
C1304 C1307 1.386 . S
H1305 C1321 0.930 . S
H1306 C1322 0.931 . S
C1307 H1295 0.929 . S
C1307 C1301 1.390 . S
C1307 C1304 1.386 . S
C1308 C1303 1.490 . S
C1308 C1310 1.395 . S
C1308 C1311 1.403 . S
H1309 C1315 0.930 . S
C1310 H1296 0.930 . S
C1310 C1308 1.395 . S
C1310 C1313 1.403 . S
C1311 C1308 1.403 . S
C1311 C1312 1.524 . S
C1311 C1315 1.400 . S
C1312 H1297 0.960 . S
C1312 H1298 0.960 . S
C1312 H1299 0.960 . S
C1312 C1311 1.524 . S
C1313 C1310 1.403 . S
C1313 C1314 1.392 . S
C1313 C1317 1.495 . S
C1314 C1313 1.392 . S
C1314 C1315 1.385 . S
C1314 C1316 1.478 . S
C1315 H1309 0.930 . S
C1315 C1311 1.400 . S
C1315 C1314 1.385 . S
C1316 C1314 1.478 . S
C1316 C1318 1.381 . S
C1316 C1322 1.383 . S
C1317 C1313 1.495 . S
C1317 H1323 0.959 . S
C1317 H1324 0.961 . S
C1317 H1325 0.960 . S
C1318 C1316 1.381 . S
C1318 C1319 1.394 . S
C1318 H1326 0.930 . S
C1319 C1318 1.394 . S
C1319 C1320 1.383 . S
C1319 H1327 0.929 . S
C1320 C1319 1.383 . S
C1320 C1321 1.377 . S
C1321 H1305 0.930 . S
C1321 C1320 1.377 . S
C1321 C1322 1.379 . S
C1322 H1306 0.931 . S
C1322 C1316 1.383 . S
C1322 C1321 1.379 . S
H1323 C1317 0.959 . S
H1324 C1317 0.961 . S
H1325 C1317 0.960 . S
H1326 C1318 0.930 . S
H1327 C1319 0.929 . S
H1328 C1336 0.929 . S
H1329 C1338 0.930 . S
H1330 C1340 0.930 . S
H1331 C1343 0.929 . S
H1332 C1346 0.930 . S
H1333 C1348 0.960 1_556 S
H1334 C1348 0.960 . S
H1335 C1348 0.960 . S
C1336 H1328 0.929 . S
C1336 C1337 1.377 . S
C1336 C1338 1.384 . S
C1337 C1336 1.377 . S
C1337 C1343 1.390 . S
C1338 H1329 0.930 . S
C1338 C1336 1.384 . S
C1338 C1339 1.372 . S
C1339 C1338 1.372 . S
C1339 C1340 1.400 . S
C1339 C1344 1.490 . S
C1340 H1330 0.930 . S
C1340 C1339 1.400 . S
C1340 C1343 1.386 . S
H1341 C1357 0.930 . S
H1342 C1358 0.931 . S
C1343 H1331 0.929 . S
C1343 C1337 1.390 . S
C1343 C1340 1.386 . S
C1344 C1339 1.490 . S
C1344 C1346 1.395 . S
C1344 C1347 1.403 . S
H1345 C1351 0.930 . S
C1346 H1332 0.930 . S
C1346 C1344 1.395 . S
C1346 C1349 1.403 1_554 S
C1347 C1344 1.403 . S
C1347 C1348 1.524 . S
C1347 C1351 1.400 1_554 S
C1348 H1333 0.960 1_554 S
C1348 H1334 0.960 . S
C1348 H1335 0.960 . S
C1348 C1347 1.524 . S
C1349 C1346 1.403 1_556 S
C1349 C1350 1.392 . S
C1349 C1353 1.495 . S
C1350 C1349 1.392 . S
C1350 C1351 1.385 . S
C1350 C1352 1.478 . S
C1351 H1345 0.930 . S
C1351 C1347 1.400 1_556 S
C1351 C1350 1.385 . S
C1352 C1350 1.478 . S
C1352 C1354 1.381 . S
C1352 C1358 1.383 . S
C1353 C1349 1.495 . S
C1353 H1359 0.959 . S
C1353 H1360 0.961 . S
C1353 H1361 0.960 . S
C1354 C1352 1.381 . S
C1354 C1355 1.394 . S
C1354 H1362 0.930 . S
C1355 C1354 1.394 . S
C1355 C1356 1.383 . S
C1355 H1363 0.929 . S
C1356 C1355 1.383 . S
C1356 C1357 1.377 . S
C1357 H1341 0.930 . S
C1357 C1356 1.377 . S
C1357 C1358 1.379 . S
C1358 H1342 0.931 . S
C1358 C1352 1.383 . S
C1358 C1357 1.379 . S
H1359 C1353 0.959 . S
H1360 C1353 0.961 . S
H1361 C1353 0.960 . S
H1362 C1354 0.930 . S
H1363 C1355 0.929 . S
H1364 C1372 0.929 . S
H1365 C1374 0.930 . S
H1366 C1376 0.930 . S
H1367 C1379 0.929 . S
H1368 C1382 0.930 . S
H1369 C1384 0.960 1_556 S
H1370 C1384 0.960 . S
H1371 C1384 0.960 . S
C1372 H1364 0.929 . S
C1372 C1373 1.377 . S
C1372 C1374 1.384 . S
C1373 C1372 1.377 . S
C1373 C1379 1.390 . S
C1374 H1365 0.930 . S
C1374 C1372 1.384 . S
C1374 C1375 1.372 . S
C1375 C1374 1.372 . S
C1375 C1376 1.400 . S
C1375 C1380 1.490 . S
C1376 H1366 0.930 . S
C1376 C1375 1.400 . S
C1376 C1379 1.386 . S
H1377 C1393 0.930 . S
H1378 C1394 0.931 . S
C1379 H1367 0.929 . S
C1379 C1373 1.390 . S
C1379 C1376 1.386 . S
C1380 C1375 1.490 . S
C1380 C1382 1.395 . S
C1380 C1383 1.403 . S
H1381 C1387 0.930 . S
C1382 H1368 0.930 . S
C1382 C1380 1.395 . S
C1382 C1385 1.403 1_554 S
C1383 C1380 1.403 . S
C1383 C1384 1.524 . S
C1383 C1387 1.400 1_554 S
C1384 H1369 0.960 1_554 S
C1384 H1370 0.960 . S
C1384 H1371 0.960 . S
C1384 C1383 1.524 . S
C1385 C1382 1.403 1_556 S
C1385 C1386 1.392 . S
C1385 C1389 1.495 . S
C1386 C1385 1.392 . S
C1386 C1387 1.385 . S
C1386 C1388 1.478 . S
C1387 H1381 0.930 . S
C1387 C1383 1.400 1_556 S
C1387 C1386 1.385 . S
C1388 C1386 1.478 . S
C1388 C1390 1.381 . S
C1388 C1394 1.383 . S
C1389 C1385 1.495 . S
C1389 H1395 0.959 . S
C1389 H1396 0.961 . S
C1389 H1397 0.960 . S
C1390 C1388 1.381 . S
C1390 C1391 1.394 . S
C1390 H1398 0.930 . S
C1391 C1390 1.394 . S
C1391 C1392 1.383 . S
C1391 H1399 0.929 . S
C1392 C1391 1.383 . S
C1392 C1393 1.377 . S
C1393 H1377 0.930 . S
C1393 C1392 1.377 . S
C1393 C1394 1.379 . S
C1394 H1378 0.931 . S
C1394 C1388 1.383 . S
C1394 C1393 1.379 . S
H1395 C1389 0.959 . S
H1396 C1389 0.961 . S
H1397 C1389 0.960 . S
H1398 C1390 0.930 . S
H1399 C1391 0.929 . S
H1400 C1408 0.929 . S
H1401 C1410 0.930 . S
H1402 C1412 0.930 . S
H1403 C1415 0.929 . S
H1404 C1418 0.930 . S
H1405 C1420 0.960 . S
H1406 C1420 0.960 . S
H1407 C1420 0.960 . S
C1408 H1400 0.929 . S
C1408 C1409 1.377 . S
C1408 C1410 1.384 . S
C1409 C1408 1.377 . S
C1409 C1415 1.390 . S
C1410 H1401 0.930 . S
C1410 C1408 1.384 . S
C1410 C1411 1.372 . S
C1411 C1410 1.372 . S
C1411 C1412 1.400 . S
C1411 C1416 1.490 . S
C1412 H1402 0.930 . S
C1412 C1411 1.400 . S
C1412 C1415 1.386 . S
H1413 C1429 0.930 . S
H1414 C1430 0.931 . S
C1415 H1403 0.929 . S
C1415 C1409 1.390 . S
C1415 C1412 1.386 . S
C1416 C1411 1.490 . S
C1416 C1418 1.395 . S
C1416 C1419 1.403 . S
H1417 C1423 0.930 . S
C1418 H1404 0.930 . S
C1418 C1416 1.395 . S
C1418 C1421 1.403 . S
C1419 C1416 1.403 . S
C1419 C1420 1.524 . S
C1419 C1423 1.400 . S
C1420 H1405 0.960 . S
C1420 H1406 0.960 . S
C1420 H1407 0.960 . S
C1420 C1419 1.524 . S
C1421 C1418 1.403 . S
C1421 C1422 1.392 . S
C1421 C1425 1.495 . S
C1422 C1421 1.392 . S
C1422 C1423 1.385 . S
C1422 C1424 1.478 . S
C1423 H1417 0.930 . S
C1423 C1419 1.400 . S
C1423 C1422 1.385 . S
C1424 C1422 1.478 . S
C1424 C1426 1.381 . S
C1424 C1430 1.383 . S
C1425 C1421 1.495 . S
C1425 H1431 0.959 . S
C1425 H1432 0.961 . S
C1425 H1433 0.960 . S
C1426 C1424 1.381 . S
C1426 C1427 1.394 . S
C1426 H1434 0.930 . S
C1427 C1426 1.394 . S
C1427 C1428 1.383 . S
C1427 H1435 0.929 . S
C1428 C1427 1.383 . S
C1428 C1429 1.377 . S
C1429 H1413 0.930 . S
C1429 C1428 1.377 . S
C1429 C1430 1.379 . S
C1430 H1414 0.931 . S
C1430 C1424 1.383 . S
C1430 C1429 1.379 . S
H1431 C1425 0.959 . S
H1432 C1425 0.961 . S
H1433 C1425 0.960 . S
H1434 C1426 0.930 . S
H1435 C1427 0.929 . S
H1436 C1444 0.929 . S
H1437 C1446 0.930 . S
H1438 C1448 0.930 . S
H1439 C1451 0.929 . S
H1440 C1454 0.930 . S
H1441 C1456 0.960 . S
H1442 C1456 0.960 . S
H1443 C1456 0.960 . S
C1444 H1436 0.929 . S
C1444 C1445 1.377 . S
C1444 C1446 1.384 . S
C1445 C1444 1.377 . S
C1445 C1451 1.390 . S
C1446 H1437 0.930 . S
C1446 C1444 1.384 . S
C1446 C1447 1.372 . S
C1447 C1446 1.372 . S
C1447 C1448 1.400 . S
C1447 C1452 1.490 . S
C1448 H1438 0.930 . S
C1448 C1447 1.400 . S
C1448 C1451 1.386 . S
H1449 C1465 0.930 . S
H1450 C1466 0.931 . S
C1451 H1439 0.929 . S
C1451 C1445 1.390 . S
C1451 C1448 1.386 . S
C1452 C1447 1.490 . S
C1452 C1454 1.395 . S
C1452 C1455 1.403 . S
H1453 C1459 0.930 . S
C1454 H1440 0.930 . S
C1454 C1452 1.395 . S
C1454 C1457 1.403 . S
C1455 C1452 1.403 . S
C1455 C1456 1.524 . S
C1455 C1459 1.400 . S
C1456 H1441 0.960 . S
C1456 H1442 0.960 . S
C1456 H1443 0.960 . S
C1456 C1455 1.524 . S
C1457 C1454 1.403 . S
C1457 C1458 1.392 . S
C1457 C1461 1.495 . S
C1458 C1457 1.392 . S
C1458 C1459 1.385 . S
C1458 C1460 1.478 . S
C1459 H1453 0.930 . S
C1459 C1455 1.400 . S
C1459 C1458 1.385 . S
C1460 C1458 1.478 . S
C1460 C1462 1.381 . S
C1460 C1466 1.383 . S
C1461 C1457 1.495 . S
C1461 H1467 0.959 . S
C1461 H1468 0.961 . S
C1461 H1469 0.960 . S
C1462 C1460 1.381 . S
C1462 C1463 1.394 . S
C1462 H1470 0.930 . S
C1463 C1462 1.394 . S
C1463 C1464 1.383 . S
C1463 H1471 0.929 . S
C1464 C1463 1.383 . S
C1464 C1465 1.377 . S
C1465 H1449 0.930 . S
C1465 C1464 1.377 . S
C1465 C1466 1.379 . S
C1466 H1450 0.931 . S
C1466 C1460 1.383 . S
C1466 C1465 1.379 . S
H1467 C1461 0.959 . S
H1468 C1461 0.961 . S
H1469 C1461 0.960 . S
H1470 C1462 0.930 . S
H1471 C1463 0.929 . S
H1472 C1480 0.929 . S
H1473 C1482 0.930 . S
H1474 C1484 0.930 . S
H1475 C1487 0.929 . S
H1476 C1490 0.930 . S
H1477 C1492 0.960 . S
H1478 C1492 0.960 . S
H1479 C1492 0.960 . S
C1480 H1472 0.929 . S
C1480 C1481 1.377 . S
C1480 C1482 1.384 . S
C1481 C1480 1.377 . S
C1481 C1487 1.390 . S
C1482 H1473 0.930 . S
C1482 C1480 1.384 . S
C1482 C1483 1.372 . S
C1483 C1482 1.372 . S
C1483 C1484 1.400 . S
C1483 C1488 1.490 . S
C1484 H1474 0.930 . S
C1484 C1483 1.400 . S
C1484 C1487 1.386 . S
H1485 C1501 0.930 . S
H1486 C1502 0.931 . S
C1487 H1475 0.929 . S
C1487 C1481 1.390 . S
C1487 C1484 1.386 . S
C1488 C1483 1.490 . S
C1488 C1490 1.395 . S
C1488 C1491 1.403 . S
H1489 C1495 0.930 . S
C1490 H1476 0.930 . S
C1490 C1488 1.395 . S
C1490 C1493 1.403 . S
C1491 C1488 1.403 . S
C1491 C1492 1.524 . S
C1491 C1495 1.400 . S
C1492 H1477 0.960 . S
C1492 H1478 0.960 . S
C1492 H1479 0.960 . S
C1492 C1491 1.524 . S
C1493 C1490 1.403 . S
C1493 C1494 1.392 . S
C1493 C1497 1.495 . S
C1494 C1493 1.392 . S
C1494 C1495 1.385 . S
C1494 C1496 1.478 . S
C1495 H1489 0.930 . S
C1495 C1491 1.400 . S
C1495 C1494 1.385 . S
C1496 C1494 1.478 . S
C1496 C1498 1.381 . S
C1496 C1502 1.383 . S
C1497 C1493 1.495 . S
C1497 H1503 0.959 . S
C1497 H1504 0.961 . S
C1497 H1505 0.960 . S
C1498 C1496 1.381 . S
C1498 C1499 1.394 . S
C1498 H1506 0.930 . S
C1499 C1498 1.394 . S
C1499 C1500 1.383 . S
C1499 H1507 0.929 . S
C1500 C1499 1.383 . S
C1500 C1501 1.377 . S
C1501 H1485 0.930 . S
C1501 C1500 1.377 . S
C1501 C1502 1.379 . S
C1502 H1486 0.931 . S
C1502 C1496 1.383 . S
C1502 C1501 1.379 . S
H1503 C1497 0.959 . S
H1504 C1497 0.961 . S
H1505 C1497 0.960 . S
H1506 C1498 0.930 . S
H1507 C1499 0.929 . S
H1508 C1516 0.929 . S
H1509 C1518 0.930 . S
H1510 C1520 0.930 . S
H1511 C1523 0.929 . S
H1512 C1526 0.930 . S
H1513 C1528 0.960 . S
H1514 C1528 0.960 . S
H1515 C1528 0.960 . S
C1516 H1508 0.929 . S
C1516 C1517 1.377 . S
C1516 C1518 1.384 . S
C1517 C1516 1.377 . S
C1517 C1523 1.390 . S
C1518 H1509 0.930 . S
C1518 C1516 1.384 . S
C1518 C1519 1.372 . S
C1519 C1518 1.372 . S
C1519 C1520 1.400 . S
C1519 C1524 1.490 . S
C1520 H1510 0.930 . S
C1520 C1519 1.400 . S
C1520 C1523 1.386 . S
H1521 C1537 0.930 . S
H1522 C1538 0.931 . S
C1523 H1511 0.929 . S
C1523 C1517 1.390 . S
C1523 C1520 1.386 . S
C1524 C1519 1.490 . S
C1524 C1526 1.395 . S
C1524 C1527 1.403 . S
H1525 C1531 0.930 . S
C1526 H1512 0.930 . S
C1526 C1524 1.395 . S
C1526 C1529 1.403 . S
C1527 C1524 1.403 . S
C1527 C1528 1.524 . S
C1527 C1531 1.400 . S
C1528 H1513 0.960 . S
C1528 H1514 0.960 . S
C1528 H1515 0.960 . S
C1528 C1527 1.524 . S
C1529 C1526 1.403 . S
C1529 C1530 1.392 . S
C1529 C1533 1.495 . S
C1530 C1529 1.392 . S
C1530 C1531 1.385 . S
C1530 C1532 1.478 . S
C1531 H1525 0.930 . S
C1531 C1527 1.400 . S
C1531 C1530 1.385 . S
C1532 C1530 1.478 . S
C1532 C1534 1.381 . S
C1532 C1538 1.383 . S
C1533 C1529 1.495 . S
C1533 H1539 0.959 . S
C1533 H1540 0.961 . S
C1533 H1541 0.960 . S
C1534 C1532 1.381 . S
C1534 C1535 1.394 . S
C1534 H1542 0.930 . S
C1535 C1534 1.394 . S
C1535 C1536 1.383 . S
C1535 H1543 0.929 . S
C1536 C1535 1.383 . S
C1536 C1537 1.377 . S
C1537 H1521 0.930 . S
C1537 C1536 1.377 . S
C1537 C1538 1.379 . S
C1538 H1522 0.931 . S
C1538 C1532 1.383 . S
C1538 C1537 1.379 . S
H1539 C1533 0.959 . S
H1540 C1533 0.961 . S
H1541 C1533 0.960 . S
H1542 C1534 0.930 . S
H1543 C1535 0.929 . S
H1544 C1552 0.929 . S
H1545 C1554 0.930 . S
H1546 C1556 0.930 . S
H1547 C1559 0.929 . S
H1548 C1562 0.930 . S
H1549 C1564 0.960 . S
H1550 C1564 0.960 . S
H1551 C1564 0.960 . S
C1552 H1544 0.929 . S
C1552 C1553 1.377 . S
C1552 C1554 1.384 . S
C1553 C1552 1.377 . S
C1553 C1559 1.390 . S
C1554 H1545 0.930 . S
C1554 C1552 1.384 . S
C1554 C1555 1.372 . S
C1555 C1554 1.372 . S
C1555 C1556 1.400 . S
C1555 C1560 1.490 . S
C1556 H1546 0.930 . S
C1556 C1555 1.400 . S
C1556 C1559 1.386 . S
H1557 C1573 0.930 . S
H1558 C1574 0.931 . S
C1559 H1547 0.929 . S
C1559 C1553 1.390 . S
C1559 C1556 1.386 . S
C1560 C1555 1.490 . S
C1560 C1562 1.395 . S
C1560 C1563 1.403 . S
H1561 C1567 0.930 . S
C1562 H1548 0.930 . S
C1562 C1560 1.395 . S
C1562 C1565 1.403 . S
C1563 C1560 1.403 . S
C1563 C1564 1.524 . S
C1563 C1567 1.400 . S
C1564 H1549 0.960 . S
C1564 H1550 0.960 . S
C1564 H1551 0.960 . S
C1564 C1563 1.524 . S
C1565 C1562 1.403 . S
C1565 C1566 1.392 . S
C1565 C1569 1.495 . S
C1566 C1565 1.392 . S
C1566 C1567 1.385 . S
C1566 C1568 1.478 . S
C1567 H1561 0.930 . S
C1567 C1563 1.400 . S
C1567 C1566 1.385 . S
C1568 C1566 1.478 . S
C1568 C1570 1.381 . S
C1568 C1574 1.383 . S
C1569 C1565 1.495 . S
C1569 H1575 0.959 . S
C1569 H1576 0.961 . S
C1569 H1577 0.960 . S
C1570 C1568 1.381 . S
C1570 C1571 1.394 . S
C1570 H1578 0.930 . S
C1571 C1570 1.394 . S
C1571 C1572 1.383 . S
C1571 H1579 0.929 . S
C1572 C1571 1.383 . S
C1572 C1573 1.377 . S
C1573 H1557 0.930 . S
C1573 C1572 1.377 . S
C1573 C1574 1.379 . S
C1574 H1558 0.931 . S
C1574 C1568 1.383 . S
C1574 C1573 1.379 . S
H1575 C1569 0.959 . S
H1576 C1569 0.961 . S
H1577 C1569 0.960 . S
H1578 C1570 0.930 . S
H1579 C1571 0.929 . S
H1580 C1588 0.929 . S
H1581 C1590 0.930 . S
H1582 C1592 0.930 . S
H1583 C1595 0.929 . S
H1584 C1598 0.930 . S
H1585 C1600 0.960 . S
H1586 C1600 0.960 . S
H1587 C1600 0.960 . S
C1588 H1580 0.929 . S
C1588 C1589 1.377 . S
C1588 C1590 1.384 . S
C1589 C1588 1.377 . S
C1589 C1595 1.390 . S
C1590 H1581 0.930 . S
C1590 C1588 1.384 . S
C1590 C1591 1.372 . S
C1591 C1590 1.372 . S
C1591 C1592 1.400 . S
C1591 C1596 1.490 . S
C1592 H1582 0.930 . S
C1592 C1591 1.400 . S
C1592 C1595 1.386 . S
H1593 C1609 0.930 . S
H1594 C1610 0.931 . S
C1595 H1583 0.929 . S
C1595 C1589 1.390 . S
C1595 C1592 1.386 . S
C1596 C1591 1.490 . S
C1596 C1598 1.395 . S
C1596 C1599 1.403 . S
H1597 C1603 0.930 . S
C1598 H1584 0.930 . S
C1598 C1596 1.395 . S
C1598 C1601 1.403 . S
C1599 C1596 1.403 . S
C1599 C1600 1.524 . S
C1599 C1603 1.400 . S
C1600 H1585 0.960 . S
C1600 H1586 0.960 . S
C1600 H1587 0.960 . S
C1600 C1599 1.524 . S
C1601 C1598 1.403 . S
C1601 C1602 1.392 . S
C1601 C1605 1.495 . S
C1602 C1601 1.392 . S
C1602 C1603 1.385 . S
C1602 C1604 1.478 . S
C1603 H1597 0.930 . S
C1603 C1599 1.400 . S
C1603 C1602 1.385 . S
C1604 C1602 1.478 . S
C1604 C1606 1.381 . S
C1604 C1610 1.383 . S
C1605 C1601 1.495 . S
C1605 H1611 0.959 . S
C1605 H1612 0.961 . S
C1605 H1613 0.960 . S
C1606 C1604 1.381 . S
C1606 C1607 1.394 . S
C1606 H1614 0.930 . S
C1607 C1606 1.394 . S
C1607 C1608 1.383 . S
C1607 H1615 0.929 . S
C1608 C1607 1.383 . S
C1608 C1609 1.377 . S
C1609 H1593 0.930 . S
C1609 C1608 1.377 . S
C1609 C1610 1.379 . S
C1610 H1594 0.931 . S
C1610 C1604 1.383 . S
C1610 C1609 1.379 . S
H1611 C1605 0.959 . S
H1612 C1605 0.961 . S
H1613 C1605 0.960 . S
H1614 C1606 0.930 . S
H1615 C1607 0.929 . S
H1616 C1624 0.929 . S
H1617 C1626 0.930 . S
H1618 C1628 0.930 . S
H1619 C1631 0.929 . S
H1620 C1634 0.929 . S
H1621 C1636 0.960 . S
H1622 C1636 0.960 . S
H1623 C1636 0.960 1_554 S
C1624 H1616 0.929 . S
C1624 C1625 1.377 1_556 S
C1624 C1626 1.384 . S
C1625 C1624 1.377 1_554 S
C1625 C1631 1.390 . S
C1626 H1617 0.930 . S
C1626 C1624 1.384 . S
C1626 C1627 1.372 1_556 S
C1627 C1626 1.372 1_554 S
C1627 C1628 1.400 . S
C1627 C1632 1.490 . S
C1628 H1618 0.930 . S
C1628 C1627 1.400 . S
C1628 C1631 1.386 . S
H1629 C1645 0.930 . S
H1630 C1646 0.931 . S
C1631 H1619 0.929 . S
C1631 C1625 1.390 . S
C1631 C1628 1.386 . S
C1632 C1627 1.490 . S
C1632 C1634 1.358 1_545 S
C1632 C1635 1.403 1_554 S
H1633 C1639 0.930 . S
C1634 H1620 0.929 . S
C1634 C1632 1.358 1_565 S
C1634 C1637 1.443 . S
C1635 C1632 1.403 1_556 S
C1635 C1636 1.524 . S
C1635 C1639 1.400 1_545 S
C1636 H1621 0.960 . S
C1636 H1622 0.960 . S
C1636 H1623 0.960 1_556 S
C1636 C1635 1.524 . S
C1637 C1634 1.443 . S
C1637 C1638 1.392 . S
C1637 C1641 1.495 . S
C1638 C1637 1.392 . S
C1638 C1639 1.385 1_554 S
C1638 C1640 1.478 . S
C1639 H1633 0.930 . S
C1639 C1635 1.400 1_565 S
C1639 C1638 1.385 1_556 S
C1640 C1638 1.478 . S
C1640 C1642 1.381 1_554 S
C1640 C1646 1.383 . S
C1641 C1637 1.495 . S
C1641 H1647 0.959 . S
C1641 H1648 0.961 . S
C1641 H1649 0.960 1_554 S
C1642 C1640 1.381 1_556 S
C1642 C1643 1.394 . S
C1642 H1650 0.930 . S
C1643 C1642 1.394 . S
C1643 C1644 1.383 1_556 S
C1643 H1651 0.929 . S
C1644 C1643 1.383 1_554 S
C1644 C1645 1.377 . S
C1645 H1629 0.930 . S
C1645 C1644 1.377 . S
C1645 C1646 1.379 . S
C1646 H1630 0.931 . S
C1646 C1640 1.383 . S
C1646 C1645 1.379 . S
H1647 C1641 0.959 . S
H1648 C1641 0.961 . S
H1649 C1641 0.960 1_556 S
H1650 C1642 0.930 . S
H1651 C1643 0.929 . S
H1652 C1660 0.929 . S
H1653 C1662 0.930 . S
H1654 C1664 0.930 . S
H1655 C1667 0.929 . S
H1656 C1670 0.930 . S
H1657 C1672 0.960 . S
H1658 C1672 0.960 . S
H1659 C1672 0.960 . S
C1660 H1652 0.929 . S
C1660 C1661 1.377 . S
C1660 C1662 1.384 . S
C1661 C1660 1.377 . S
C1661 C1667 1.390 . S
C1662 H1653 0.930 . S
C1662 C1660 1.384 . S
C1662 C1663 1.372 . S
C1663 C1662 1.372 . S
C1663 C1664 1.400 . S
C1663 C1668 1.490 . S
C1664 H1654 0.930 . S
C1664 C1663 1.400 . S
C1664 C1667 1.386 . S
H1665 C1681 0.930 . S
H1666 C1682 0.931 . S
C1667 H1655 0.929 . S
C1667 C1661 1.390 . S
C1667 C1664 1.386 . S
C1668 C1663 1.490 . S
C1668 C1670 1.395 . S
C1668 C1671 1.403 . S
H1669 C1675 0.930 . S
C1670 H1656 0.930 . S
C1670 C1668 1.395 . S
C1670 C1673 1.403 . S
C1671 C1668 1.403 . S
C1671 C1672 1.524 . S
C1671 C1675 1.400 . S
C1672 H1657 0.960 . S
C1672 H1658 0.960 . S
C1672 H1659 0.960 . S
C1672 C1671 1.524 . S
C1673 C1670 1.403 . S
C1673 C1674 1.392 . S
C1673 C1677 1.495 . S
C1674 C1673 1.392 . S
C1674 C1675 1.385 . S
C1674 C1676 1.478 . S
C1675 H1669 0.930 . S
C1675 C1671 1.400 . S
C1675 C1674 1.385 . S
C1676 C1674 1.478 . S
C1676 C1678 1.381 . S
C1676 C1682 1.383 . S
C1677 C1673 1.495 . S
C1677 H1683 0.959 . S
C1677 H1684 0.961 . S
C1677 H1685 0.960 . S
C1678 C1676 1.381 . S
C1678 C1679 1.394 . S
C1678 H1686 0.930 . S
C1679 C1678 1.394 . S
C1679 C1680 1.383 . S
C1679 H1687 0.929 . S
C1680 C1679 1.383 . S
C1680 C1681 1.377 . S
C1681 H1665 0.930 . S
C1681 C1680 1.377 . S
C1681 C1682 1.379 . S
C1682 H1666 0.931 . S
C1682 C1676 1.383 . S
C1682 C1681 1.379 . S
H1683 C1677 0.959 . S
H1684 C1677 0.961 . S
H1685 C1677 0.960 . S
H1686 C1678 0.930 . S
H1687 C1679 0.929 . S
H1688 C1696 0.929 . S
H1689 C1698 0.930 . S
H1690 C1700 0.930 . S
H1691 C1703 0.929 . S
H1692 C1706 0.930 . S
H1693 C1708 0.960 . S
H1694 C1708 0.960 . S
H1695 C1708 0.960 . S
C1696 H1688 0.929 . S
C1696 C1697 1.377 . S
C1696 C1698 1.384 . S
C1697 C1696 1.377 . S
C1697 C1703 1.390 . S
C1698 H1689 0.930 . S
C1698 C1696 1.384 . S
C1698 C1699 1.372 . S
C1699 C1698 1.372 . S
C1699 C1700 1.400 . S
C1699 C1704 1.490 . S
C1700 H1690 0.930 . S
C1700 C1699 1.400 . S
C1700 C1703 1.386 . S
H1701 C1717 0.930 . S
H1702 C1718 0.931 . S
C1703 H1691 0.929 . S
C1703 C1697 1.390 . S
C1703 C1700 1.386 . S
C1704 C1699 1.490 . S
C1704 C1706 1.395 . S
C1704 C1707 1.403 . S
H1705 C1711 0.930 . S
C1706 H1692 0.930 . S
C1706 C1704 1.395 . S
C1706 C1709 1.403 . S
C1707 C1704 1.403 . S
C1707 C1708 1.524 . S
C1707 C1711 1.400 . S
C1708 H1693 0.960 . S
C1708 H1694 0.960 . S
C1708 H1695 0.960 . S
C1708 C1707 1.524 . S
C1709 C1706 1.403 . S
C1709 C1710 1.392 . S
C1709 C1713 1.495 . S
C1710 C1709 1.392 . S
C1710 C1711 1.385 . S
C1710 C1712 1.478 . S
C1711 H1705 0.930 . S
C1711 C1707 1.400 . S
C1711 C1710 1.385 . S
C1712 C1710 1.478 . S
C1712 C1714 1.381 . S
C1712 C1718 1.383 . S
C1713 C1709 1.495 . S
C1713 H1719 0.959 . S
C1713 H1720 0.961 . S
C1713 H1721 0.960 . S
C1714 C1712 1.381 . S
C1714 C1715 1.394 . S
C1714 H1722 0.930 . S
C1715 C1714 1.394 . S
C1715 C1716 1.383 . S
C1715 H1723 0.929 . S
C1716 C1715 1.383 . S
C1716 C1717 1.377 . S
C1717 H1701 0.930 . S
C1717 C1716 1.377 . S
C1717 C1718 1.379 . S
C1718 H1702 0.931 . S
C1718 C1712 1.383 . S
C1718 C1717 1.379 . S
H1719 C1713 0.959 . S
H1720 C1713 0.961 . S
H1721 C1713 0.960 . S
H1722 C1714 0.930 . S
H1723 C1715 0.929 . S
H1724 C1732 0.929 . S
H1725 C1734 0.930 . S
H1726 C1736 0.930 . S
H1727 C1739 0.929 . S
H1728 C1742 0.930 . S
H1729 C1744 0.960 . S
H1730 C1744 0.960 . S
H1731 C1744 0.960 . S
C1732 H1724 0.929 . S
C1732 C1733 1.377 . S
C1732 C1734 1.384 . S
C1733 C1732 1.377 . S
C1733 C1739 1.390 . S
C1734 H1725 0.930 . S
C1734 C1732 1.384 . S
C1734 C1735 1.372 . S
C1735 C1734 1.372 . S
C1735 C1736 1.400 . S
C1735 C1740 1.490 . S
C1736 H1726 0.930 . S
C1736 C1735 1.400 . S
C1736 C1739 1.386 . S
H1737 C1753 0.930 . S
H1738 C1754 0.931 . S
C1739 H1727 0.929 . S
C1739 C1733 1.390 . S
C1739 C1736 1.386 . S
C1740 C1735 1.490 . S
C1740 C1742 1.395 . S
C1740 C1743 1.403 . S
H1741 C1747 0.930 . S
C1742 H1728 0.930 . S
C1742 C1740 1.395 . S
C1742 C1745 1.403 . S
C1743 C1740 1.403 . S
C1743 C1744 1.524 . S
C1743 C1747 1.400 . S
C1744 H1729 0.960 . S
C1744 H1730 0.960 . S
C1744 H1731 0.960 . S
C1744 C1743 1.524 . S
C1745 C1742 1.403 . S
C1745 C1746 1.392 . S
C1745 C1749 1.495 . S
C1746 C1745 1.392 . S
C1746 C1747 1.385 . S
C1746 C1748 1.478 . S
C1747 H1741 0.930 . S
C1747 C1743 1.400 . S
C1747 C1746 1.385 . S
C1748 C1746 1.478 . S
C1748 C1750 1.381 . S
C1748 C1754 1.383 . S
C1749 C1745 1.495 . S
C1749 H1755 0.959 . S
C1749 H1756 0.961 . S
C1749 H1757 0.960 . S
C1750 C1748 1.381 . S
C1750 C1751 1.394 . S
C1750 H1758 0.930 . S
C1751 C1750 1.394 . S
C1751 C1752 1.383 . S
C1751 H1759 0.929 . S
C1752 C1751 1.383 . S
C1752 C1753 1.377 . S
C1753 H1737 0.930 . S
C1753 C1752 1.377 . S
C1753 C1754 1.379 . S
C1754 H1738 0.931 . S
C1754 C1748 1.383 . S
C1754 C1753 1.379 . S
H1755 C1749 0.959 . S
H1756 C1749 0.961 . S
H1757 C1749 0.960 . S
H1758 C1750 0.930 . S
H1759 C1751 0.929 . S
H1760 C1768 0.929 . S
H1761 C1770 0.930 . S
H1762 C1772 0.930 . S
H1763 C1775 0.929 . S
H1764 C1778 0.930 . S
H1765 C1780 0.960 . S
H1766 C1780 0.960 . S
H1767 C1780 0.960 . S
C1768 H1760 0.929 . S
C1768 C1769 1.377 . S
C1768 C1770 1.384 . S
C1769 C1768 1.377 . S
C1769 C1775 1.390 . S
C1770 H1761 0.930 . S
C1770 C1768 1.384 . S
C1770 C1771 1.372 . S
C1771 C1770 1.372 . S
C1771 C1772 1.400 . S
C1771 C1776 1.490 . S
C1772 H1762 0.930 . S
C1772 C1771 1.400 . S
C1772 C1775 1.386 . S
H1773 C1789 0.930 . S
H1774 C1790 0.931 . S
C1775 H1763 0.929 . S
C1775 C1769 1.390 . S
C1775 C1772 1.386 . S
C1776 C1771 1.490 . S
C1776 C1778 1.395 . S
C1776 C1779 1.403 . S
H1777 C1783 0.930 . S
C1778 H1764 0.930 . S
C1778 C1776 1.395 . S
C1778 C1781 1.403 . S
C1779 C1776 1.403 . S
C1779 C1780 1.524 . S
C1779 C1783 1.400 . S
C1780 H1765 0.960 . S
C1780 H1766 0.960 . S
C1780 H1767 0.960 . S
C1780 C1779 1.524 . S
C1781 C1778 1.403 . S
C1781 C1782 1.392 . S
C1781 C1785 1.495 . S
C1782 C1781 1.392 . S
C1782 C1783 1.385 . S
C1782 C1784 1.478 . S
C1783 H1777 0.930 . S
C1783 C1779 1.400 . S
C1783 C1782 1.385 . S
C1784 C1782 1.478 . S
C1784 C1786 1.381 . S
C1784 C1790 1.383 . S
C1785 C1781 1.495 . S
C1785 H1791 0.959 . S
C1785 H1792 0.961 . S
C1785 H1793 0.960 . S
C1786 C1784 1.381 . S
C1786 C1787 1.394 . S
C1786 H1794 0.930 . S
C1787 C1786 1.394 . S
C1787 C1788 1.383 . S
C1787 H1795 0.929 . S
C1788 C1787 1.383 . S
C1788 C1789 1.377 . S
C1789 H1773 0.930 . S
C1789 C1788 1.377 . S
C1789 C1790 1.379 . S
C1790 H1774 0.931 . S
C1790 C1784 1.383 . S
C1790 C1789 1.379 . S
H1791 C1785 0.959 . S
H1792 C1785 0.961 . S
H1793 C1785 0.960 . S
H1794 C1786 0.930 . S
H1795 C1787 0.929 . S
H1796 C1804 0.929 . S
H1797 C1806 0.930 . S
H1798 C1808 0.930 . S
H1799 C1811 0.929 . S
H1800 C1814 0.930 . S
H1801 C1816 0.960 . S
H1802 C1816 0.960 . S
H1803 C1816 0.960 . S
C1804 H1796 0.929 . S
C1804 C1805 1.377 . S
C1804 C1806 1.384 . S
C1805 C1804 1.377 . S
C1805 C1811 1.390 . S
C1806 H1797 0.930 . S
C1806 C1804 1.384 . S
C1806 C1807 1.372 . S
C1807 C1806 1.372 . S
C1807 C1808 1.400 . S
C1807 C1812 1.490 . S
C1808 H1798 0.930 . S
C1808 C1807 1.400 . S
C1808 C1811 1.386 . S
H1809 C1825 0.930 . S
H1810 C1826 0.931 . S
C1811 H1799 0.929 . S
C1811 C1805 1.390 . S
C1811 C1808 1.386 . S
C1812 C1807 1.490 . S
C1812 C1814 1.395 . S
C1812 C1815 1.403 . S
H1813 C1819 0.930 . S
C1814 H1800 0.930 . S
C1814 C1812 1.395 . S
C1814 C1817 1.403 . S
C1815 C1812 1.403 . S
C1815 C1816 1.524 . S
C1815 C1819 1.400 . S
C1816 H1801 0.960 . S
C1816 H1802 0.960 . S
C1816 H1803 0.960 . S
C1816 C1815 1.524 . S
C1817 C1814 1.403 . S
C1817 C1818 1.392 . S
C1817 C1821 1.495 . S
C1818 C1817 1.392 . S
C1818 C1819 1.385 . S
C1818 C1820 1.478 . S
C1819 H1813 0.930 . S
C1819 C1815 1.400 . S
C1819 C1818 1.385 . S
C1820 C1818 1.478 . S
C1820 C1822 1.381 . S
C1820 C1826 1.383 . S
C1821 C1817 1.495 . S
C1821 H1827 0.959 . S
C1821 H1828 0.961 . S
C1821 H1829 0.960 . S
C1822 C1820 1.381 . S
C1822 C1823 1.394 . S
C1822 H1830 0.930 . S
C1823 C1822 1.394 . S
C1823 C1824 1.383 . S
C1823 H1831 0.929 . S
C1824 C1823 1.383 . S
C1824 C1825 1.377 . S
C1825 H1809 0.930 . S
C1825 C1824 1.377 . S
C1825 C1826 1.379 . S
C1826 H1810 0.931 . S
C1826 C1820 1.383 . S
C1826 C1825 1.379 . S
H1827 C1821 0.959 . S
H1828 C1821 0.961 . S
H1829 C1821 0.960 . S
H1830 C1822 0.930 . S
H1831 C1823 0.929 . S
H1832 C1840 0.929 . S
H1833 C1842 0.930 . S
H1834 C1844 0.930 . S
H1835 C1847 0.929 . S
H1836 C1850 0.929 . S
H1837 C1852 0.960 . S
H1838 C1852 0.960 . S
H1839 C1852 0.960 . S
C1840 H1832 0.929 . S
C1840 C1841 1.377 . S
C1840 C1842 1.384 . S
C1841 C1840 1.377 . S
C1841 C1847 1.390 . S
C1842 H1833 0.930 . S
C1842 C1840 1.384 . S
C1842 C1843 1.372 . S
C1843 C1842 1.372 . S
C1843 C1844 1.400 . S
C1843 C1848 1.490 . S
C1844 H1834 0.930 . S
C1844 C1843 1.400 . S
C1844 C1847 1.386 . S
H1845 C1861 0.930 . S
H1846 C1862 0.931 . S
C1847 H1835 0.929 . S
C1847 C1841 1.390 . S
C1847 C1844 1.386 . S
C1848 C1843 1.490 . S
C1848 C1850 1.358 1_565 S
C1848 C1851 1.403 1_655 S
H1849 C1855 0.930 . S
C1850 H1836 0.929 . S
C1850 C1848 1.358 1_545 S
C1850 C1853 1.443 . S
C1851 C1848 1.403 1_455 S
C1851 C1852 1.524 . S
C1851 C1855 1.400 1_565 S
C1852 H1837 0.960 . S
C1852 H1838 0.960 . S
C1852 H1839 0.960 . S
C1852 C1851 1.524 . S
C1853 C1850 1.443 . S
C1853 C1854 1.392 1_655 S
C1853 C1857 1.495 . S
C1854 C1853 1.392 1_455 S
C1854 C1855 1.385 . S
C1854 C1856 1.478 . S
C1855 H1849 0.930 . S
C1855 C1851 1.400 1_545 S
C1855 C1854 1.385 . S
C1856 C1854 1.478 . S
C1856 C1858 1.381 . S
C1856 C1862 1.383 . S
C1857 C1853 1.495 . S
C1857 H1863 0.959 . S
C1857 H1864 0.961 . S
C1857 H1865 0.960 . S
C1858 C1856 1.381 . S
C1858 C1859 1.394 . S
C1858 H1866 0.930 . S
C1859 C1858 1.394 . S
C1859 C1860 1.383 . S
C1859 H1867 0.929 . S
C1860 C1859 1.383 . S
C1860 C1861 1.377 . S
C1861 H1845 0.930 . S
C1861 C1860 1.377 . S
C1861 C1862 1.379 . S
C1862 H1846 0.931 . S
C1862 C1856 1.383 . S
C1862 C1861 1.379 . S
H1863 C1857 0.959 . S
H1864 C1857 0.961 . S
H1865 C1857 0.960 . S
H1866 C1858 0.930 . S
H1867 C1859 0.929 . S
H1868 C1876 0.929 . S
H1869 C1878 0.930 . S
H1870 C1880 0.930 . S
H1871 C1883 0.929 . S
H1872 C1886 0.930 . S
H1873 C1888 0.960 . S
H1874 C1888 0.960 . S
H1875 C1888 0.960 1_556 S
C1876 H1868 0.929 . S
C1876 C1877 1.377 . S
C1876 C1878 1.384 . S
C1877 C1876 1.377 . S
C1877 C1883 1.390 1_554 S
C1878 H1869 0.930 . S
C1878 C1876 1.384 . S
C1878 C1879 1.372 . S
C1879 C1878 1.372 . S
C1879 C1880 1.400 1_554 S
C1879 C1884 1.490 . S
C1880 H1870 0.930 . S
C1880 C1879 1.400 1_556 S
C1880 C1883 1.386 . S
H1881 C1897 0.930 . S
H1882 C1898 0.931 . S
C1883 H1871 0.929 . S
C1883 C1877 1.390 1_556 S
C1883 C1880 1.386 . S
C1884 C1879 1.490 . S
C1884 C1886 1.395 1_655 S
C1884 C1887 1.403 . S
H1885 C1891 0.930 . S
C1886 H1872 0.930 . S
C1886 C1884 1.395 1_455 S
C1886 C1889 1.403 . S
C1887 C1884 1.403 . S
C1887 C1888 1.524 . S
C1887 C1891 1.400 . S
C1888 H1873 0.960 . S
C1888 H1874 0.960 . S
C1888 H1875 0.960 1_554 S
C1888 C1887 1.524 . S
C1889 C1886 1.403 . S
C1889 C1890 1.392 . S
C1889 C1893 1.495 . S
C1890 C1889 1.392 . S
C1890 C1891 1.385 1_455 S
C1890 C1892 1.478 . S
C1891 H1885 0.930 . S
C1891 C1887 1.400 . S
C1891 C1890 1.385 1_655 S
C1892 C1890 1.478 . S
C1892 C1894 1.381 . S
C1892 C1898 1.383 1_554 S
C1893 C1889 1.495 . S
C1893 H1899 0.959 . S
C1893 H1900 0.961 1_554 S
C1893 H1901 0.960 . S
C1894 C1892 1.381 . S
C1894 C1895 1.394 . S
C1894 H1902 0.930 . S
C1895 C1894 1.394 . S
C1895 C1896 1.383 . S
C1895 H1903 0.929 . S
C1896 C1895 1.383 . S
C1896 C1897 1.377 1_554 S
C1897 H1881 0.930 . S
C1897 C1896 1.377 1_556 S
C1897 C1898 1.379 . S
C1898 H1882 0.931 . S
C1898 C1892 1.383 1_556 S
C1898 C1897 1.379 . S
H1899 C1893 0.959 . S
H1900 C1893 0.961 1_556 S
H1901 C1893 0.960 . S
H1902 C1894 0.930 . S
H1903 C1895 0.929 . S
H1904 C1912 0.929 . S
H1905 C1914 0.930 . S
H1906 C1916 0.930 . S
H1907 C1919 0.929 . S
H1908 C1922 0.938 . S
H1909 C1924 0.960 1_565 S
H1910 C1924 0.960 . S
H1911 C1924 0.960 . S
C1912 H1904 0.929 . S
C1912 C1913 1.377 . S
C1912 C1914 1.384 . S
C1913 C1912 1.377 . S
C1913 C1919 1.390 . S
C1914 H1905 0.930 . S
C1914 C1912 1.384 . S
C1914 C1915 1.372 . S
C1915 C1914 1.372 . S
C1915 C1916 1.400 . S
C1915 C1920 1.490 . S
C1916 H1906 0.930 . S
C1916 C1915 1.400 . S
C1916 C1919 1.386 . S
H1917 C1933 0.930 . S
H1918 C1934 0.931 . S
C1919 H1907 0.929 . S
C1919 C1913 1.390 . S
C1919 C1916 1.386 . S
C1920 C1915 1.490 . S
C1920 C1922 1.395 1_545 S
C1920 C1923 1.403 1_545 S
H1921 C1927 0.930 . S
C1922 H1908 0.938 . S
C1922 C1920 1.395 1_565 S
C1922 C1925 1.403 . S
C1923 C1920 1.403 1_565 S
C1923 C1924 1.524 1_565 S
C1923 C1927 1.400 . S
C1924 H1909 0.960 1_545 S
C1924 H1910 0.960 . S
C1924 H1911 0.960 . S
C1924 C1923 1.524 1_545 S
C1925 C1922 1.403 . S
C1925 C1926 1.392 . S
C1925 C1929 1.495 . S
C1926 C1925 1.392 . S
C1926 C1927 1.385 . S
C1926 C1928 1.478 . S
C1927 H1921 0.930 . S
C1927 C1923 1.400 . S
C1927 C1926 1.385 . S
C1928 C1926 1.478 . S
C1928 C1930 1.381 . S
C1928 C1934 1.383 . S
C1929 C1925 1.495 . S
C1929 H1935 0.959 1_556 S
C1929 H1936 0.961 . S
C1929 H1937 0.960 . S
C1930 C1928 1.381 . S
C1930 C1931 1.394 . S
C1930 H1938 0.930 . S
C1931 C1930 1.394 . S
C1931 C1932 1.383 . S
C1931 H1939 0.929 . S
C1932 C1931 1.383 . S
C1932 C1933 1.377 . S
C1933 H1917 0.930 . S
C1933 C1932 1.377 . S
C1933 C1934 1.379 . S
C1934 H1918 0.931 . S
C1934 C1928 1.383 . S
C1934 C1933 1.379 . S
H1935 C1929 0.959 1_554 S
H1936 C1929 0.961 . S
H1937 C1929 0.960 . S
H1938 C1930 0.930 . S
H1939 C1931 0.929 . S
H1940 C1948 0.929 . S
H1941 C1950 0.930 . S
H1942 C1952 0.930 . S
H1943 C1955 0.929 . S
H1944 C1958 0.930 . S
H1945 C1960 0.960 . S
H1946 C1960 0.960 . S
H1947 C1960 0.960 . S
C1948 H1940 0.929 . S
C1948 C1949 1.377 . S
C1948 C1950 1.384 . S
C1949 C1948 1.377 . S
C1949 C1955 1.390 . S
C1950 H1941 0.930 . S
C1950 C1948 1.384 . S
C1950 C1951 1.372 . S
C1951 C1950 1.372 . S
C1951 C1952 1.400 . S
C1951 C1956 1.490 . S
C1952 H1942 0.930 . S
C1952 C1951 1.400 . S
C1952 C1955 1.386 . S
H1953 C1969 0.930 . S
H1954 C1970 0.931 . S
C1955 H1943 0.929 . S
C1955 C1949 1.390 . S
C1955 C1952 1.386 . S
C1956 C1951 1.490 . S
C1956 C1958 1.395 1_565 S
C1956 C1959 1.403 1_565 S
H1957 C1963 0.930 . S
C1958 H1944 0.930 . S
C1958 C1956 1.395 1_545 S
C1958 C1961 1.403 . S
C1959 C1956 1.403 1_545 S
C1959 C1960 1.524 1_545 S
C1959 C1963 1.400 . S
C1960 H1945 0.960 . S
C1960 H1946 0.960 . S
C1960 H1947 0.960 . S
C1960 C1959 1.524 1_565 S
C1961 C1958 1.403 . S
C1961 C1962 1.392 . S
C1961 C1965 1.495 . S
C1962 C1961 1.392 . S
C1962 C1963 1.385 . S
C1962 C1964 1.478 . S
C1963 H1957 0.930 . S
C1963 C1959 1.400 . S
C1963 C1962 1.385 . S
C1964 C1962 1.478 . S
C1964 C1966 1.381 . S
C1964 C1970 1.383 . S
C1965 C1961 1.495 . S
C1965 H1971 0.959 1_556 S
C1965 H1972 0.961 . S
C1965 H1973 0.960 . S
C1966 C1964 1.381 . S
C1966 C1967 1.394 . S
C1966 H1974 0.930 . S
C1967 C1966 1.394 . S
C1967 C1968 1.383 . S
C1967 H1975 0.929 . S
C1968 C1967 1.383 . S
C1968 C1969 1.377 . S
C1969 H1953 0.930 . S
C1969 C1968 1.377 . S
C1969 C1970 1.379 . S
C1970 H1954 0.931 . S
C1970 C1964 1.383 . S
C1970 C1969 1.379 . S
H1971 C1965 0.959 1_554 S
H1972 C1965 0.961 . S
H1973 C1965 0.960 . S
H1974 C1966 0.930 . S
H1975 C1967 0.929 . S
H1976 C1984 0.929 . S
H1977 C1986 0.930 . S
H1978 C1988 0.930 . S
H1979 C1991 0.929 . S
H1980 C1994 0.930 . S
H1981 C1996 0.960 . S
H1982 C1996 0.960 . S
H1983 C1996 0.960 . S
C1984 H1976 0.929 . S
C1984 C1985 1.377 . S
C1984 C1986 1.384 . S
C1985 C1984 1.377 . S
C1985 C1991 1.390 . S
C1986 H1977 0.930 . S
C1986 C1984 1.384 . S
C1986 C1987 1.372 . S
C1987 C1986 1.372 . S
C1987 C1988 1.400 . S
C1987 C1992 1.490 . S
C1988 H1978 0.930 . S
C1988 C1987 1.400 . S
C1988 C1991 1.386 . S
H1989 C2005 0.930 . S
H1990 C2006 0.931 . S
C1991 H1979 0.929 . S
C1991 C1985 1.390 . S
C1991 C1988 1.386 . S
C1992 C1987 1.490 . S
C1992 C1994 1.395 . S
C1992 C1995 1.403 . S
H1993 C1999 0.930 . S
C1994 H1980 0.930 . S
C1994 C1992 1.395 . S
C1994 C1997 1.403 . S
C1995 C1992 1.403 . S
C1995 C1996 1.524 . S
C1995 C1999 1.400 . S
C1996 H1981 0.960 . S
C1996 H1982 0.960 . S
C1996 H1983 0.960 . S
C1996 C1995 1.524 . S
C1997 C1994 1.403 . S
C1997 C1998 1.392 . S
C1997 C2001 1.495 . S
C1998 C1997 1.392 . S
C1998 C1999 1.385 . S
C1998 C2000 1.478 . S
C1999 H1993 0.930 . S
C1999 C1995 1.400 . S
C1999 C1998 1.385 . S
C2000 C1998 1.478 . S
C2000 C2002 1.381 . S
C2000 C2006 1.383 . S
C2001 C1997 1.495 . S
C2001 H2007 0.959 . S
C2001 H2008 0.961 . S
C2001 H2009 0.960 . S
C2002 C2000 1.381 . S
C2002 C2003 1.394 . S
C2002 H2010 0.930 . S
C2003 C2002 1.394 . S
C2003 C2004 1.383 . S
C2003 H2011 0.929 . S
C2004 C2003 1.383 . S
C2004 C2005 1.377 . S
C2005 H1989 0.930 . S
C2005 C2004 1.377 . S
C2005 C2006 1.379 . S
C2006 H1990 0.931 . S
C2006 C2000 1.383 . S
C2006 C2005 1.379 . S
H2007 C2001 0.959 . S
H2008 C2001 0.961 . S
H2009 C2001 0.960 . S
H2010 C2002 0.930 . S
H2011 C2003 0.929 . S
H2012 C2020 0.929 . S
H2013 C2022 0.930 . S
H2014 C2024 0.930 . S
H2015 C2027 0.929 . S
H2016 C2030 0.930 . S
H2017 C2032 0.960 . S
H2018 C2032 0.960 . S
H2019 C2032 0.960 . S
C2020 H2012 0.929 . S
C2020 C2021 1.377 . S
C2020 C2022 1.384 . S
C2021 C2020 1.377 . S
C2021 C2027 1.390 . S
C2022 H2013 0.930 . S
C2022 C2020 1.384 . S
C2022 C2023 1.372 . S
C2023 C2022 1.372 . S
C2023 C2024 1.400 . S
C2023 C2028 1.490 . S
C2024 H2014 0.930 . S
C2024 C2023 1.400 . S
C2024 C2027 1.386 . S
H2025 C2041 0.930 . S
H2026 C2042 0.931 . S
C2027 H2015 0.929 . S
C2027 C2021 1.390 . S
C2027 C2024 1.386 . S
C2028 C2023 1.490 . S
C2028 C2030 1.395 . S
C2028 C2031 1.403 . S
H2029 C2035 0.930 . S
C2030 H2016 0.930 . S
C2030 C2028 1.395 . S
C2030 C2033 1.403 . S
C2031 C2028 1.403 . S
C2031 C2032 1.524 . S
C2031 C2035 1.400 . S
C2032 H2017 0.960 . S
C2032 H2018 0.960 . S
C2032 H2019 0.960 . S
C2032 C2031 1.524 . S
C2033 C2030 1.403 . S
C2033 C2034 1.392 . S
C2033 C2037 1.495 . S
C2034 C2033 1.392 . S
C2034 C2035 1.385 . S
C2034 C2036 1.478 . S
C2035 H2029 0.930 . S
C2035 C2031 1.400 . S
C2035 C2034 1.385 . S
C2036 C2034 1.478 . S
C2036 C2038 1.381 . S
C2036 C2042 1.383 . S
C2037 C2033 1.495 . S
C2037 H2043 0.959 . S
C2037 H2044 0.961 . S
C2037 H2045 0.960 . S
C2038 C2036 1.381 . S
C2038 C2039 1.394 . S
C2038 H2046 0.930 . S
C2039 C2038 1.394 . S
C2039 C2040 1.383 . S
C2039 H2047 0.929 . S
C2040 C2039 1.383 . S
C2040 C2041 1.377 . S
C2041 H2025 0.930 . S
C2041 C2040 1.377 . S
C2041 C2042 1.379 . S
C2042 H2026 0.931 . S
C2042 C2036 1.383 . S
C2042 C2041 1.379 . S
H2043 C2037 0.959 . S
H2044 C2037 0.961 . S
H2045 C2037 0.960 . S
H2046 C2038 0.930 . S
H2047 C2039 0.929 . S
H2048 C2056 0.929 . S
H2049 C2058 0.930 . S
H2050 C2060 0.930 . S
H2051 C2063 0.929 . S
H2052 C2066 0.930 . S
H2053 C2068 0.960 . S
H2054 C2068 0.960 . S
H2055 C2068 0.960 . S
C2056 H2048 0.929 . S
C2056 C2057 1.377 . S
C2056 C2058 1.384 . S
C2057 C2056 1.377 . S
C2057 C2063 1.390 . S
C2058 H2049 0.930 . S
C2058 C2056 1.384 . S
C2058 C2059 1.372 . S
C2059 C2058 1.372 . S
C2059 C2060 1.400 . S
C2059 C2064 1.490 . S
C2060 H2050 0.930 . S
C2060 C2059 1.400 . S
C2060 C2063 1.386 . S
H2061 C2077 0.930 . S
H2062 C2078 0.931 . S
C2063 H2051 0.929 . S
C2063 C2057 1.390 . S
C2063 C2060 1.386 . S
C2064 C2059 1.490 . S
C2064 C2066 1.395 . S
C2064 C2067 1.403 . S
H2065 C2071 0.930 . S
C2066 H2052 0.930 . S
C2066 C2064 1.395 . S
C2066 C2069 1.403 . S
C2067 C2064 1.403 . S
C2067 C2068 1.524 . S
C2067 C2071 1.400 . S
C2068 H2053 0.960 . S
C2068 H2054 0.960 . S
C2068 H2055 0.960 . S
C2068 C2067 1.524 . S
C2069 C2066 1.403 . S
C2069 C2070 1.392 . S
C2069 C2073 1.495 . S
C2070 C2069 1.392 . S
C2070 C2071 1.385 . S
C2070 C2072 1.478 . S
C2071 H2065 0.930 . S
C2071 C2067 1.400 . S
C2071 C2070 1.385 . S
C2072 C2070 1.478 . S
C2072 C2074 1.381 . S
C2072 C2078 1.383 . S
C2073 C2069 1.495 . S
C2073 H2079 0.959 . S
C2073 H2080 0.961 . S
C2073 H2081 0.960 . S
C2074 C2072 1.381 . S
C2074 C2075 1.394 . S
C2074 H2082 0.930 . S
C2075 C2074 1.394 . S
C2075 C2076 1.383 . S
C2075 H2083 0.929 . S
C2076 C2075 1.383 . S
C2076 C2077 1.377 . S
C2077 H2061 0.930 . S
C2077 C2076 1.377 . S
C2077 C2078 1.379 . S
C2078 H2062 0.931 . S
C2078 C2072 1.383 . S
C2078 C2077 1.379 . S
H2079 C2073 0.959 . S
H2080 C2073 0.961 . S
H2081 C2073 0.960 . S
H2082 C2074 0.930 . S
H2083 C2075 0.929 . S
H2084 C2092 0.929 . S
H2085 C2094 0.930 . S
H2086 C2096 0.930 . S
H2087 C2099 0.929 . S
H2088 C2102 0.930 . S
H2089 C2104 0.960 . S
H2090 C2104 0.960 . S
H2091 C2104 0.960 . S
C2092 H2084 0.929 . S
C2092 C2093 1.377 . S
C2092 C2094 1.384 . S
C2093 C2092 1.377 . S
C2093 C2099 1.390 . S
C2094 H2085 0.930 . S
C2094 C2092 1.384 . S
C2094 C2095 1.372 . S
C2095 C2094 1.372 . S
C2095 C2096 1.400 . S
C2095 C2100 1.490 . S
C2096 H2086 0.930 . S
C2096 C2095 1.400 . S
C2096 C2099 1.386 . S
H2097 C2113 0.930 . S
H2098 C2114 0.931 . S
C2099 H2087 0.929 . S
C2099 C2093 1.390 . S
C2099 C2096 1.386 . S
C2100 C2095 1.490 . S
C2100 C2102 1.395 . S
C2100 C2103 1.403 . S
H2101 C2107 0.930 . S
C2102 H2088 0.930 . S
C2102 C2100 1.395 . S
C2102 C2105 1.403 . S
C2103 C2100 1.403 . S
C2103 C2104 1.524 . S
C2103 C2107 1.400 . S
C2104 H2089 0.960 . S
C2104 H2090 0.960 . S
C2104 H2091 0.960 . S
C2104 C2103 1.524 . S
C2105 C2102 1.403 . S
C2105 C2106 1.392 . S
C2105 C2109 1.495 . S
C2106 C2105 1.392 . S
C2106 C2107 1.385 . S
C2106 C2108 1.478 . S
C2107 H2101 0.930 . S
C2107 C2103 1.400 . S
C2107 C2106 1.385 . S
C2108 C2106 1.478 . S
C2108 C2110 1.381 . S
C2108 C2114 1.383 . S
C2109 C2105 1.495 . S
C2109 H2115 0.959 . S
C2109 H2116 0.961 . S
C2109 H2117 0.960 . S
C2110 C2108 1.381 . S
C2110 C2111 1.394 . S
C2110 H2118 0.930 . S
C2111 C2110 1.394 . S
C2111 C2112 1.383 . S
C2111 H2119 0.929 . S
C2112 C2111 1.383 . S
C2112 C2113 1.377 . S
C2113 H2097 0.930 . S
C2113 C2112 1.377 . S
C2113 C2114 1.379 . S
C2114 H2098 0.931 . S
C2114 C2108 1.383 . S
C2114 C2113 1.379 . S
H2115 C2109 0.959 . S
H2116 C2109 0.961 . S
H2117 C2109 0.960 . S
H2118 C2110 0.930 . S
H2119 C2111 0.929 . S
H2120 C2128 0.929 . S
H2121 C2130 0.930 . S
H2122 C2132 0.930 . S
H2123 C2135 0.929 . S
H2124 C2138 0.930 . S
H2125 C2140 0.960 . S
H2126 C2140 0.960 . S
H2127 C2140 0.960 . S
C2128 H2120 0.929 . S
C2128 C2129 1.377 . S
C2128 C2130 1.384 . S
C2129 C2128 1.377 . S
C2129 C2135 1.390 . S
C2130 H2121 0.930 . S
C2130 C2128 1.384 . S
C2130 C2131 1.372 . S
C2131 C2130 1.372 . S
C2131 C2132 1.400 . S
C2131 C2136 1.490 . S
C2132 H2122 0.930 . S
C2132 C2131 1.400 . S
C2132 C2135 1.386 . S
H2133 C2149 0.930 . S
H2134 C2150 0.931 . S
C2135 H2123 0.929 . S
C2135 C2129 1.390 . S
C2135 C2132 1.386 . S
C2136 C2131 1.490 . S
C2136 C2138 1.395 . S
C2136 C2139 1.403 . S
H2137 C2143 0.930 . S
C2138 H2124 0.930 . S
C2138 C2136 1.395 . S
C2138 C2141 1.403 . S
C2139 C2136 1.403 . S
C2139 C2140 1.524 . S
C2139 C2143 1.400 . S
C2140 H2125 0.960 . S
C2140 H2126 0.960 . S
C2140 H2127 0.960 . S
C2140 C2139 1.524 . S
C2141 C2138 1.403 . S
C2141 C2142 1.392 . S
C2141 C2145 1.495 . S
C2142 C2141 1.392 . S
C2142 C2143 1.385 . S
C2142 C2144 1.478 . S
C2143 H2137 0.930 . S
C2143 C2139 1.400 . S
C2143 C2142 1.385 . S
C2144 C2142 1.478 . S
C2144 C2146 1.381 . S
C2144 C2150 1.383 . S
C2145 C2141 1.495 . S
C2145 H2151 0.959 . S
C2145 H2152 0.961 . S
C2145 H2153 0.960 . S
C2146 C2144 1.381 . S
C2146 C2147 1.394 . S
C2146 H2154 0.930 . S
C2147 C2146 1.394 . S
C2147 C2148 1.383 . S
C2147 H2155 0.929 . S
C2148 C2147 1.383 . S
C2148 C2149 1.377 . S
C2149 H2133 0.930 . S
C2149 C2148 1.377 . S
C2149 C2150 1.379 . S
C2150 H2134 0.931 . S
C2150 C2144 1.383 . S
C2150 C2149 1.379 . S
H2151 C2145 0.959 . S
H2152 C2145 0.961 . S
H2153 C2145 0.960 . S
H2154 C2146 0.930 . S
H2155 C2147 0.929 . S
H2156 C2164 0.929 . S
H2157 C2166 0.930 . S
H2158 C2168 0.930 . S
H2159 C2171 0.929 . S
H2160 C2174 0.930 . S
H2161 C2176 0.960 . S
H2162 C2176 0.960 . S
H2163 C2176 0.960 . S
C2164 H2156 0.929 . S
C2164 C2165 1.377 . S
C2164 C2166 1.384 . S
C2165 C2164 1.377 . S
C2165 C2171 1.390 . S
C2166 H2157 0.930 . S
C2166 C2164 1.384 . S
C2166 C2167 1.372 . S
C2167 C2166 1.372 . S
C2167 C2168 1.400 . S
C2167 C2172 1.490 . S
C2168 H2158 0.930 . S
C2168 C2167 1.400 . S
C2168 C2171 1.386 . S
H2169 C2185 0.930 . S
H2170 C2186 0.931 . S
C2171 H2159 0.929 . S
C2171 C2165 1.390 . S
C2171 C2168 1.386 . S
C2172 C2167 1.490 . S
C2172 C2174 1.395 . S
C2172 C2175 1.403 . S
H2173 C2179 0.930 . S
C2174 H2160 0.930 . S
C2174 C2172 1.395 . S
C2174 C2177 1.403 . S
C2175 C2172 1.403 . S
C2175 C2176 1.524 . S
C2175 C2179 1.400 . S
C2176 H2161 0.960 . S
C2176 H2162 0.960 . S
C2176 H2163 0.960 . S
C2176 C2175 1.524 . S
C2177 C2174 1.403 . S
C2177 C2178 1.392 . S
C2177 C2181 1.495 . S
C2178 C2177 1.392 . S
C2178 C2179 1.385 . S
C2178 C2180 1.478 . S
C2179 H2173 0.930 . S
C2179 C2175 1.400 . S
C2179 C2178 1.385 . S
C2180 C2178 1.478 . S
C2180 C2182 1.381 . S
C2180 C2186 1.383 . S
C2181 C2177 1.495 . S
C2181 H2187 0.959 . S
C2181 H2188 0.961 . S
C2181 H2189 0.960 . S
C2182 C2180 1.381 . S
C2182 C2183 1.394 . S
C2182 H2190 0.930 . S
C2183 C2182 1.394 . S
C2183 C2184 1.383 . S
C2183 H2191 0.929 . S
C2184 C2183 1.383 . S
C2184 C2185 1.377 . S
C2185 H2169 0.930 . S
C2185 C2184 1.377 . S
C2185 C2186 1.379 . S
C2186 H2170 0.931 . S
C2186 C2180 1.383 . S
C2186 C2185 1.379 . S
H2187 C2181 0.959 . S
H2188 C2181 0.961 . S
H2189 C2181 0.960 . S
H2190 C2182 0.930 . S
H2191 C2183 0.929 . S
H2192 C2200 0.929 . S
H2193 C2202 0.930 . S
H2194 C2204 0.930 . S
H2195 C2207 0.929 . S
H2196 C2210 0.930 . S
H2197 C2212 0.963 1_545 S
H2198 C2212 0.960 . S
H2199 C2212 0.958 . S
C2200 H2192 0.929 . S
C2200 C2201 1.377 . S
C2200 C2202 1.384 . S
C2201 C2200 1.377 . S
C2201 C2207 1.390 . S
C2202 H2193 0.930 . S
C2202 C2200 1.384 . S
C2202 C2203 1.372 . S
C2203 C2202 1.372 . S
C2203 C2204 1.400 . S
C2203 C2208 1.490 . S
C2204 H2194 0.930 . S
C2204 C2203 1.400 . S
C2204 C2207 1.386 . S
H2205 C2221 0.930 . S
H2206 C2222 0.931 . S
C2207 H2195 0.929 . S
C2207 C2201 1.390 . S
C2207 C2204 1.386 . S
C2208 C2203 1.490 . S
C2208 C2210 1.395 . S
C2208 C2211 1.403 . S
H2209 C2215 0.930 . S
C2210 H2196 0.930 . S
C2210 C2208 1.395 . S
C2210 C2213 1.403 . S
C2211 C2208 1.403 . S
C2211 C2212 1.522 . S
C2211 C2215 1.400 1_565 S
C2212 H2197 0.963 1_565 S
C2212 H2198 0.960 . S
C2212 H2199 0.958 . S
C2212 C2211 1.522 . S
C2213 C2210 1.403 . S
C2213 C2214 1.435 . S
C2213 C2217 1.495 . S
C2214 C2213 1.435 . S
C2214 C2215 1.373 1_565 S
C2214 C2216 1.447 1_565 S
C2215 H2209 0.930 . S
C2215 C2211 1.400 1_545 S
C2215 C2214 1.373 1_545 S
C2216 C2214 1.447 1_545 S
C2216 C2218 1.381 . S
C2216 C2222 1.383 . S
C2217 C2213 1.495 . S
C2217 H2223 0.959 . S
C2217 H2224 0.961 . S
C2217 H2225 0.960 . S
C2218 C2216 1.381 . S
C2218 C2219 1.394 . S
C2218 H2226 0.930 . S
C2219 C2218 1.394 . S
C2219 C2220 1.383 . S
C2219 H2227 0.929 . S
C2220 C2219 1.383 . S
C2220 C2221 1.377 . S
C2221 H2205 0.930 . S
C2221 C2220 1.377 . S
C2221 C2222 1.379 . S
C2222 H2206 0.931 . S
C2222 C2216 1.383 . S
C2222 C2221 1.379 . S
H2223 C2217 0.959 . S
H2224 C2217 0.961 . S
H2225 C2217 0.960 . S
H2226 C2218 0.930 . S
H2227 C2219 0.929 . S
H2228 C2236 0.929 . S
H2229 C2238 0.930 . S
H2230 C2240 0.930 . S
H2231 C2243 0.929 . S
H2232 C2246 0.930 . S
H2233 C2248 0.960 . S
H2234 C2248 0.960 . S
H2235 C2248 0.960 . S
C2236 H2228 0.929 . S
C2236 C2237 1.377 . S
C2236 C2238 1.384 . S
C2237 C2236 1.377 . S
C2237 C2243 1.390 . S
C2238 H2229 0.930 . S
C2238 C2236 1.384 . S
C2238 C2239 1.372 . S
C2239 C2238 1.372 . S
C2239 C2240 1.400 . S
C2239 C2244 1.490 . S
C2240 H2230 0.930 . S
C2240 C2239 1.400 . S
C2240 C2243 1.386 . S
H2241 C2257 0.930 . S
H2242 C2258 0.931 . S
C2243 H2231 0.929 . S
C2243 C2237 1.390 . S
C2243 C2240 1.386 . S
C2244 C2239 1.490 . S
C2244 C2246 1.395 . S
C2244 C2247 1.403 1_565 S
H2245 C2251 0.930 . S
C2246 H2232 0.930 . S
C2246 C2244 1.395 . S
C2246 C2249 1.403 1_565 S
C2247 C2244 1.403 1_545 S
C2247 C2248 1.524 . S
C2247 C2251 1.400 . S
C2248 H2233 0.960 . S
C2248 H2234 0.960 . S
C2248 H2235 0.960 . S
C2248 C2247 1.524 . S
C2249 C2246 1.403 1_545 S
C2249 C2250 1.392 . S
C2249 C2253 1.495 1_545 S
C2250 C2249 1.392 . S
C2250 C2251 1.385 . S
C2250 C2252 1.478 . S
C2251 H2245 0.930 . S
C2251 C2247 1.400 . S
C2251 C2250 1.385 . S
C2252 C2250 1.478 . S
C2252 C2254 1.381 . S
C2252 C2258 1.383 . S
C2253 C2249 1.495 1_565 S
C2253 H2259 0.959 . S
C2253 H2260 0.961 1_565 S
C2253 H2261 0.959 . S
C2254 C2252 1.381 . S
C2254 C2255 1.394 . S
C2254 H2262 0.930 . S
C2255 C2254 1.394 . S
C2255 C2256 1.383 . S
C2255 H2263 0.929 . S
C2256 C2255 1.383 . S
C2256 C2257 1.377 . S
C2257 H2241 0.930 . S
C2257 C2256 1.377 . S
C2257 C2258 1.379 . S
C2258 H2242 0.931 . S
C2258 C2252 1.383 . S
C2258 C2257 1.379 . S
H2259 C2253 0.959 . S
H2260 C2253 0.961 1_545 S
H2261 C2253 0.959 . S
H2262 C2254 0.930 . S
H2263 C2255 0.929 . S
H2264 C2272 0.929 . S
H2265 C2274 0.930 . S
H2266 C2276 0.930 . S
H2267 C2279 0.929 . S
H2268 C2282 0.930 . S
H2269 C2284 0.960 . S
H2270 C2284 0.960 . S
H2271 C2284 0.960 . S
C2272 H2264 0.929 . S
C2272 C2273 1.377 . S
C2272 C2274 1.384 . S
C2273 C2272 1.377 . S
C2273 C2279 1.390 . S
C2274 H2265 0.930 . S
C2274 C2272 1.384 . S
C2274 C2275 1.372 . S
C2275 C2274 1.372 . S
C2275 C2276 1.400 . S
C2275 C2280 1.490 . S
C2276 H2266 0.930 . S
C2276 C2275 1.400 . S
C2276 C2279 1.386 . S
H2277 C2293 0.930 . S
H2278 C2294 0.931 . S
C2279 H2267 0.929 . S
C2279 C2273 1.390 . S
C2279 C2276 1.386 . S
C2280 C2275 1.490 . S
C2280 C2282 1.395 . S
C2280 C2283 1.403 . S
H2281 C2287 0.930 . S
C2282 H2268 0.930 . S
C2282 C2280 1.395 . S
C2282 C2285 1.403 . S
C2283 C2280 1.403 . S
C2283 C2284 1.524 . S
C2283 C2287 1.400 . S
C2284 H2269 0.960 . S
C2284 H2270 0.960 . S
C2284 H2271 0.960 . S
C2284 C2283 1.524 . S
C2285 C2282 1.403 . S
C2285 C2286 1.392 . S
C2285 C2289 1.495 . S
C2286 C2285 1.392 . S
C2286 C2287 1.385 . S
C2286 C2288 1.478 . S
C2287 H2281 0.930 . S
C2287 C2283 1.400 . S
C2287 C2286 1.385 . S
C2288 C2286 1.478 . S
C2288 C2290 1.381 . S
C2288 C2294 1.383 . S
C2289 C2285 1.495 . S
C2289 H2295 0.959 . S
C2289 H2296 0.961 . S
C2289 H2297 0.960 . S
C2290 C2288 1.381 . S
C2290 C2291 1.394 . S
C2290 H2298 0.930 . S
C2291 C2290 1.394 . S
C2291 C2292 1.383 . S
C2291 H2299 0.929 . S
C2292 C2291 1.383 . S
C2292 C2293 1.377 . S
C2293 H2277 0.930 . S
C2293 C2292 1.377 . S
C2293 C2294 1.379 . S
C2294 H2278 0.931 . S
C2294 C2288 1.383 . S
C2294 C2293 1.379 . S
H2295 C2289 0.959 . S
H2296 C2289 0.961 . S
H2297 C2289 0.960 . S
H2298 C2290 0.930 . S
H2299 C2291 0.929 . S
H2300 C2308 0.929 . S
H2301 C2310 0.930 . S
H2302 C2312 0.930 . S
H2303 C2315 0.929 . S
H2304 C2318 0.930 . S
H2305 C2320 0.960 . S
H2306 C2320 0.960 . S
H2307 C2320 0.960 . S
C2308 H2300 0.929 . S
C2308 C2309 1.377 . S
C2308 C2310 1.384 . S
C2309 C2308 1.377 . S
C2309 C2315 1.390 . S
C2310 H2301 0.930 . S
C2310 C2308 1.384 . S
C2310 C2311 1.372 . S
C2311 C2310 1.372 . S
C2311 C2312 1.400 . S
C2311 C2316 1.490 . S
C2312 H2302 0.930 . S
C2312 C2311 1.400 . S
C2312 C2315 1.386 . S
H2313 C2329 0.930 . S
H2314 C2330 0.931 . S
C2315 H2303 0.929 . S
C2315 C2309 1.390 . S
C2315 C2312 1.386 . S
C2316 C2311 1.490 . S
C2316 C2318 1.395 . S
C2316 C2319 1.403 . S
H2317 C2323 0.930 . S
C2318 H2304 0.930 . S
C2318 C2316 1.395 . S
C2318 C2321 1.403 . S
C2319 C2316 1.403 . S
C2319 C2320 1.524 . S
C2319 C2323 1.400 . S
C2320 H2305 0.960 . S
C2320 H2306 0.960 . S
C2320 H2307 0.960 . S
C2320 C2319 1.524 . S
C2321 C2318 1.403 . S
C2321 C2322 1.392 . S
C2321 C2325 1.495 . S
C2322 C2321 1.392 . S
C2322 C2323 1.385 . S
C2322 C2324 1.478 . S
C2323 H2317 0.930 . S
C2323 C2319 1.400 . S
C2323 C2322 1.385 . S
C2324 C2322 1.478 . S
C2324 C2326 1.381 . S
C2324 C2330 1.383 . S
C2325 C2321 1.495 . S
C2325 H2331 0.959 . S
C2325 H2332 0.961 . S
C2325 H2333 0.960 . S
C2326 C2324 1.381 . S
C2326 C2327 1.394 . S
C2326 H2334 0.930 . S
C2327 C2326 1.394 . S
C2327 C2328 1.383 . S
C2327 H2335 0.929 . S
C2328 C2327 1.383 . S
C2328 C2329 1.377 . S
C2329 H2313 0.930 . S
C2329 C2328 1.377 . S
C2329 C2330 1.379 . S
C2330 H2314 0.931 . S
C2330 C2324 1.383 . S
C2330 C2329 1.379 . S
H2331 C2325 0.959 . S
H2332 C2325 0.961 . S
H2333 C2325 0.960 . S
H2334 C2326 0.930 . S
H2335 C2327 0.929 . S
H2336 C2344 0.929 . S
H2337 C2346 0.930 . S
H2338 C2348 0.930 . S
H2339 C2351 0.929 1_554 S
H2340 C2354 0.930 . S
H2341 C2356 0.960 . S
H2342 C2356 0.960 . S
H2343 C2356 0.960 . S
C2344 H2336 0.929 . S
C2344 C2345 1.377 . S
C2344 C2346 1.384 . S
C2345 C2344 1.377 . S
C2345 C2351 1.390 . S
C2346 H2337 0.930 . S
C2346 C2344 1.384 . S
C2346 C2347 1.372 . S
C2347 C2346 1.372 . S
C2347 C2348 1.400 . S
C2347 C2352 1.490 . S
C2348 H2338 0.930 . S
C2348 C2347 1.400 . S
C2348 C2351 1.386 . S
H2349 C2365 0.930 . S
H2350 C2366 0.931 . S
C2351 H2339 0.929 1_556 S
C2351 C2345 1.390 . S
C2351 C2348 1.386 . S
C2352 C2347 1.490 . S
C2352 C2354 1.395 . S
C2352 C2355 1.403 . S
H2353 C2359 0.930 . S
C2354 H2340 0.930 . S
C2354 C2352 1.395 . S
C2354 C2357 1.403 . S
C2355 C2352 1.403 . S
C2355 C2356 1.524 . S
C2355 C2359 1.400 . S
C2356 H2341 0.960 . S
C2356 H2342 0.960 . S
C2356 H2343 0.960 . S
C2356 C2355 1.524 . S
C2357 C2354 1.403 . S
C2357 C2358 1.392 . S
C2357 C2361 1.495 . S
C2358 C2357 1.392 . S
C2358 C2359 1.385 . S
C2358 C2360 1.478 . S
C2359 H2353 0.930 . S
C2359 C2355 1.400 . S
C2359 C2358 1.385 . S
C2360 C2358 1.478 . S
C2360 C2362 1.381 . S
C2360 C2366 1.383 . S
C2361 C2357 1.495 . S
C2361 H2367 0.959 . S
C2361 H2368 0.961 . S
C2361 H2369 0.960 . S
C2362 C2360 1.381 . S
C2362 C2363 1.394 . S
C2362 H2370 0.930 . S
C2363 C2362 1.394 . S
C2363 C2364 1.383 . S
C2363 H2371 0.929 . S
C2364 C2363 1.383 . S
C2364 C2365 1.377 . S
C2365 H2349 0.930 . S
C2365 C2364 1.377 . S
C2365 C2366 1.379 . S
C2366 H2350 0.931 . S
C2366 C2360 1.383 . S
C2366 C2365 1.379 . S
H2367 C2361 0.959 . S
H2368 C2361 0.961 . S
H2369 C2361 0.960 . S
H2370 C2362 0.930 . S
H2371 C2363 0.929 . S
H2372 C2380 0.929 . S
H2373 C2382 0.930 . S
H2374 C2384 0.930 . S
H2375 C2387 0.929 . S
H2376 C2390 0.930 . S
H2377 C2392 0.960 . S
H2378 C2392 0.960 . S
H2379 C2392 0.960 . S
C2380 H2372 0.929 . S
C2380 C2381 1.377 . S
C2380 C2382 1.384 . S
C2381 C2380 1.377 . S
C2381 C2387 1.390 . S
C2382 H2373 0.930 . S
C2382 C2380 1.384 . S
C2382 C2383 1.372 . S
C2383 C2382 1.372 . S
C2383 C2384 1.400 . S
C2383 C2388 1.490 . S
C2384 H2374 0.930 . S
C2384 C2383 1.400 . S
C2384 C2387 1.386 . S
H2385 C2401 0.930 . S
H2386 C2402 0.931 . S
C2387 H2375 0.929 . S
C2387 C2381 1.390 . S
C2387 C2384 1.386 . S
C2388 C2383 1.490 . S
C2388 C2390 1.395 . S
C2388 C2391 1.403 . S
H2389 C2395 0.930 . S
C2390 H2376 0.930 . S
C2390 C2388 1.395 . S
C2390 C2393 1.403 . S
C2391 C2388 1.403 . S
C2391 C2392 1.524 . S
C2391 C2395 1.400 . S
C2392 H2377 0.960 . S
C2392 H2378 0.960 . S
C2392 H2379 0.960 . S
C2392 C2391 1.524 . S
C2393 C2390 1.403 . S
C2393 C2394 1.392 . S
C2393 C2397 1.495 . S
C2394 C2393 1.392 . S
C2394 C2395 1.385 . S
C2394 C2396 1.478 . S
C2395 H2389 0.930 . S
C2395 C2391 1.400 . S
C2395 C2394 1.385 . S
C2396 C2394 1.478 . S
C2396 C2398 1.381 . S
C2396 C2402 1.383 . S
C2397 C2393 1.495 . S
C2397 H2403 0.959 1_556 S
C2397 H2404 0.961 1_556 S
C2397 H2405 0.960 . S
C2398 C2396 1.381 . S
C2398 C2399 1.394 . S
C2398 H2406 0.930 . S
C2399 C2398 1.394 . S
C2399 C2400 1.383 . S
C2399 H2407 0.929 . S
C2400 C2399 1.383 . S
C2400 C2401 1.377 . S
C2401 H2385 0.930 . S
C2401 C2400 1.377 . S
C2401 C2402 1.379 . S
C2402 H2386 0.931 . S
C2402 C2396 1.383 . S
C2402 C2401 1.379 . S
H2403 C2397 0.959 1_554 S
H2404 C2397 0.961 1_554 S
H2405 C2397 0.960 . S
H2406 C2398 0.930 . S
H2407 C2399 0.929 . S
H2408 C2416 0.929 . S
H2409 C2418 0.930 . S
H2410 C2420 0.930 . S
H2411 C2423 0.929 . S
H2412 C2426 0.930 . S
H2413 C2428 0.960 . S
H2414 C2428 0.960 . S
H2415 C2428 0.960 . S
C2416 H2408 0.929 . S
C2416 C2417 1.377 . S
C2416 C2418 1.384 . S
C2417 C2416 1.377 . S
C2417 C2423 1.390 . S
C2418 H2409 0.930 . S
C2418 C2416 1.384 . S
C2418 C2419 1.372 . S
C2419 C2418 1.372 . S
C2419 C2420 1.400 . S
C2419 C2424 1.490 . S
C2420 H2410 0.930 . S
C2420 C2419 1.400 . S
C2420 C2423 1.386 . S
H2421 C2437 0.930 . S
H2422 C2438 0.931 . S
C2423 H2411 0.929 . S
C2423 C2417 1.390 . S
C2423 C2420 1.386 . S
C2424 C2419 1.490 . S
C2424 C2426 1.395 . S
C2424 C2427 1.403 . S
H2425 C2431 0.930 . S
C2426 H2412 0.930 . S
C2426 C2424 1.395 . S
C2426 C2429 1.403 . S
C2427 C2424 1.403 . S
C2427 C2428 1.524 . S
C2427 C2431 1.400 . S
C2428 H2413 0.960 . S
C2428 H2414 0.960 . S
C2428 H2415 0.960 . S
C2428 C2427 1.524 . S
C2429 C2426 1.403 . S
C2429 C2430 1.392 . S
C2429 C2433 1.495 . S
C2430 C2429 1.392 . S
C2430 C2431 1.385 . S
C2430 C2432 1.478 . S
C2431 H2425 0.930 . S
C2431 C2427 1.400 . S
C2431 C2430 1.385 . S
C2432 C2430 1.478 . S
C2432 C2434 1.381 . S
C2432 C2438 1.383 . S
C2433 C2429 1.495 . S
C2433 H2439 0.959 . S
C2433 H2440 0.961 . S
C2433 H2441 0.960 . S
C2434 C2432 1.381 . S
C2434 C2435 1.394 . S
C2434 H2442 0.930 . S
C2435 C2434 1.394 . S
C2435 C2436 1.383 . S
C2435 H2443 0.929 . S
C2436 C2435 1.383 . S
C2436 C2437 1.377 . S
C2437 H2421 0.930 . S
C2437 C2436 1.377 . S
C2437 C2438 1.379 . S
C2438 H2422 0.931 . S
C2438 C2432 1.383 . S
C2438 C2437 1.379 . S
H2439 C2433 0.959 . S
H2440 C2433 0.961 . S
H2441 C2433 0.960 . S
H2442 C2434 0.930 . S
H2443 C2435 0.929 . S
H2444 C2452 0.929 . S
H2445 C2454 0.930 . S
H2446 C2456 0.930 . S
H2447 C2459 0.929 . S
H2448 C2462 0.930 . S
H2449 C2464 0.960 . S
H2450 C2464 0.960 . S
H2451 C2464 0.960 . S
C2452 H2444 0.929 . S
C2452 C2453 1.377 . S
C2452 C2454 1.384 . S
C2453 C2452 1.377 . S
C2453 C2459 1.390 . S
C2454 H2445 0.930 . S
C2454 C2452 1.384 . S
C2454 C2455 1.372 . S
C2455 C2454 1.372 . S
C2455 C2456 1.400 . S
C2455 C2460 1.490 . S
C2456 H2446 0.930 . S
C2456 C2455 1.400 . S
C2456 C2459 1.386 . S
H2457 C2473 0.930 . S
H2458 C2474 0.931 . S
C2459 H2447 0.929 . S
C2459 C2453 1.390 . S
C2459 C2456 1.386 . S
C2460 C2455 1.490 . S
C2460 C2462 1.395 . S
C2460 C2463 1.403 . S
H2461 C2467 0.930 . S
C2462 H2448 0.930 . S
C2462 C2460 1.395 . S
C2462 C2465 1.403 . S
C2463 C2460 1.403 . S
C2463 C2464 1.524 . S
C2463 C2467 1.400 . S
C2464 H2449 0.960 . S
C2464 H2450 0.960 . S
C2464 H2451 0.960 . S
C2464 C2463 1.524 . S
C2465 C2462 1.403 . S
C2465 C2466 1.392 . S
C2465 C2469 1.495 . S
C2466 C2465 1.392 . S
C2466 C2467 1.385 . S
C2466 C2468 1.478 . S
C2467 H2461 0.930 . S
C2467 C2463 1.400 . S
C2467 C2466 1.385 . S
C2468 C2466 1.478 . S
C2468 C2470 1.381 . S
C2468 C2474 1.383 . S
C2469 C2465 1.495 . S
C2469 H2475 0.959 . S
C2469 H2476 0.961 . S
C2469 H2477 0.960 . S
C2470 C2468 1.381 . S
C2470 C2471 1.394 . S
C2470 H2478 0.930 . S
C2471 C2470 1.394 . S
C2471 C2472 1.383 . S
C2471 H2479 0.929 . S
C2472 C2471 1.383 . S
C2472 C2473 1.377 . S
C2473 H2457 0.930 . S
C2473 C2472 1.377 . S
C2473 C2474 1.379 . S
C2474 H2458 0.931 . S
C2474 C2468 1.383 . S
C2474 C2473 1.379 . S
H2475 C2469 0.959 . S
H2476 C2469 0.961 . S
H2477 C2469 0.960 . S
H2478 C2470 0.930 . S
H2479 C2471 0.929 . S
C473 C3 0.594 . S
C492 C158 0.718 . S
C509 C32 0.598 . S
C528 C129 0.699 . S
C545 C61 0.594 . S
C564 C332 0.675 . S
C581 C90 0.605 . S
C600 C303 0.614 . S
C617 C42 0.639 . S
C636 C119 0.587 . S
C653 C148 0.604 . S
C672 C13 0.566 . S
C689 C177 0.594 . S
C708 C448 0.637 . S
C725 C419 0.649 . S
C744 C206 0.625 . S
C761 C390 0.657 . S
C780 C235 0.576 . S
C797 C361 0.637 . S
C816 C264 0.590 . S
C833 C100 0.626 . S
C852 C293 0.596 . S
C869 C322 0.596 . S
C888 C71 0.581 . S
C905 C351 0.604 . S
C924 C274 0.617 . S
C941 C380 0.597 . S
C960 C245 0.709 . S
C977 C409 0.605 . S
C996 C216 0.649 . S
C1013 C187 0.653 . S
C1032 C438 0.579 . S
C1049 C15 2.359 . S
C1068 C21 2.255 . S
C1085 C50 2.229 . S
C1104 C44 2.373 . S
C1121 C79 2.230 . S
C1140 C73 2.343 1_556 S
C1157 C108 2.239 . S
C1176 C102 2.371 1_556 S
C1193 C131 2.359 . S
C1212 C137 2.244 . S
C1229 C160 2.360 . S
C1248 C166 2.231 . S
C1265 C189 2.363 . S
C1284 C195 2.221 1_554 S
C1301 C224 2.230 1_554 S
C1320 C218 2.357 . S
C1337 C247 2.363 . S
C1356 C253 2.236 . S
C1373 C276 2.359 . S
C1392 C282 2.243 . S
C1409 C311 2.230 1_554 S
C1428 C305 2.343 . S
C1445 C334 2.365 . S
C1464 C340 2.255 1_554 S
C1481 C369 2.236 . S
C1500 C363 2.355 . S
C1517 C398 2.234 . S
C1536 C392 2.363 . S
C1553 C421 2.361 1_556 S
C1572 C427 2.236 . S
C1589 C450 2.360 1_556 S
C1608 C456 2.222 . S
C1625 C10 1.562 . S
C1644 C39 1.540 . S
C1661 C68 1.558 . S
C1680 C445 1.532 . S
C1697 C97 1.558 . S
C1716 C416 1.531 . S
C1733 C155 1.554 . S
C1752 C126 1.578 . S
C1769 C329 1.552 . S
C1788 C184 1.542 . S
C1805 C213 1.553 . S
C1824 C300 1.534 . S
C1841 C271 1.562 . S
C1860 C242 1.540 . S
C1877 C387 1.554 . S
C1896 C358 1.565 . S
C1913 C8 1.501 . S
C1932 C179 1.542 . S
C1949 C37 1.499 . S
C1968 C208 1.537 . S
C1985 C66 1.500 . S
C2004 C5 1.505 . S
C2021 C34 1.526 . S
C2040 C95 1.486 . S
C2057 C63 1.527 . S
C2076 C124 1.499 . S
C2093 C92 1.529 . S
C2112 C153 1.513 . S
C2129 C182 1.499 . S
C2148 C121 1.543 . S
C2165 C150 1.528 . S
C2184 C211 1.472 . S
C2201 C411 1.530 . S
C2220 C240 1.516 . S
C2237 C269 1.507 . S
C2256 C440 1.544 . S
C2273 C237 1.532 . S
C2292 C298 1.472 . S
C2309 C327 1.497 . S
C2328 C266 1.514 . S
C2345 C356 1.506 . S
C2364 C295 1.549 . S
C2381 C324 1.526 . S
C2400 C385 1.491 . S
C2417 C414 1.506 . S
C2436 C353 1.514 . S
C2453 C443 1.496 . S
C2472 C382 1.523 . S
