# Generated by pormake.
# Topology sxc, (6)-cn, num edge types: 1
# Building blocks:
#     Node 0, Type 0, BuildingBlock: MIFKUJ_clean_sbu_0, # of connection points: 6
#     Node 1, Type 0, BuildingBlock: MIFKUJ_clean_sbu_0, # of connection points: 6
#     Node 2, Type 0, BuildingBlock: MIFKUJ_clean_sbu_0, # of connection points: 6
#     Edge 3, Type (0, 0), BuildingBlock: XUDNAN_clean_linker_2, # of connection points: 2
#     Edge 4, Type (0, 0), BuildingBlock: XUDNAN_clean_linker_2, # of connection points: 2
#     Edge 5, Type (0, 0), BuildingBlock: XUDNAN_clean_linker_2, # of connection points: 2
#     Edge 6, Type (0, 0), BuildingBlock: XUDNAN_clean_linker_2, # of connection points: 2
#     Edge 7, Type (0, 0), BuildingBlock: XUDNAN_clean_linker_2, # of connection points: 2
#     Edge 8, Type (0, 0), BuildingBlock: XUDNAN_clean_linker_2, # of connection points: 2
#     Edge 9, Type (0, 0), BuildingBlock: XUDNAN_clean_linker_2, # of connection points: 2
#     Edge 10, Type (0, 0), BuildingBlock: XUDNAN_clean_linker_2, # of connection points: 2
#     Edge 11, Type (0, 0), BuildingBlock: XUDNAN_clean_linker_2, # of connection points: 2
# Relax obj value: 0.015
# Max RMSD: 0.064
# Mean RMSD: 0.047
data_MOF--net-sxc--node1-MIFKUJ_clean_sbu_0--edge1-XUDNAN_clean_linker_2
_symmetry_space_group_name_H-M    P1
_symmetry_Int_Tables_number       1
_symmetry_cell_setting            triclinic
loop_
_symmetry_equiv_pos_as_xyz
'x, y, z'
_cell_length_a     18.533689
_cell_length_b     17.346711
_cell_length_c     42.536253
_cell_angle_alpha  91.668815
_cell_angle_beta   98.107597
_cell_angle_gamma 116.95647
loop_
_atom_site_label
_atom_site_type_symbol
_atom_site_fract_x
_atom_site_fract_y
_atom_site_fract_z
_atom_type_partial_charge
Zn0 Zn 0.90023 0.86844 0.98126 0.0
Zn1 Zn 0.07031 0.09764 0.99039 0.0
C2 C 0.94275 0.7308 0.97892 0.0
O3 O 0.88949 0.70946 0.95224 0.0
C4 C 0.06046 0.24102 0.02016 0.0
O5 O 0.11814 0.23807 0.04117 0.0
O6 O 0.78133 0.77969 0.97383 0.0
O7 O 0.91561 0.95726 0.01668 0.0
O8 O 0.05122 0.02287 0.02694 0.0
C9 C 0.75089 0.72229 -0.00734 0.0
O10 O 0.79732 0.72327 0.01919 0.0
O11 O 0.96233 0.80162 -0.00435 0.0
C12 C 0.20007 0.22541 0.96827 0.0
O13 O 0.13461 0.21572 0.9485 0.0
O14 O 0.19066 0.17687 -0.00917 0.0
O15 O 0.02526 0.03979 0.94562 0.0
O16 O 0.92039 0.90724 0.93806 0.0
O17 O 0.0252 0.1824 -0.00339 0.0
C18 C -0.0173 0.00107 0.03596 0.0
C19 C 0.97169 0.97377 0.92723 0.0
Zn20 Zn 0.08958 0.99116 0.32244 0.0
Zn21 Zn 0.92591 0.0596 0.32606 0.0
C22 C 0.04731 0.83889 0.35325 0.0
O23 O 0.10457 0.89825 0.37512 0.0
C24 C 0.93638 0.22944 0.32354 0.0
O25 O 0.89299 0.19358 0.29508 0.0
O26 O 0.20121 0.00162 0.32188 0.0
O27 O 0.05507 0.02065 0.27944 0.0
O28 O 0.956 0.0572 0.28279 0.0
C29 C 0.20634 0.94907 0.30195 0.0
O30 O 0.14016 0.89524 0.28185 0.0
O31 O 0.02297 0.86341 0.32778 0.0
C32 C 0.76593 0.01631 0.33882 0.0
O33 O 0.8089 0.07019 0.36457 0.0
O34 O 0.80324 -0.00124 0.31915 0.0
O35 O 0.96745 0.00515 0.36035 0.0
O36 O 0.10053 0.06708 0.36142 0.0
O37 O 0.96029 0.18505 0.3415 0.0
C38 C 0.00289 0.04407 0.26673 0.0
C39 C 0.03995 0.05056 0.37549 0.0
Zn40 Zn 0.17422 0.12186 0.66422 0.0
Zn41 Zn 0.9103 0.99082 0.65088 0.0
C42 C 0.28799 0.06847 0.68861 0.0
O43 O 0.29091 0.1212 0.71212 0.0
C44 C 0.77158 0.02444 0.64308 0.0
O45 O 0.75463 0.97961 0.61523 0.0
O46 O 0.26163 0.24268 0.65923 0.0
O47 O 0.07343 0.07979 0.62834 0.0
O48 O 0.94172 0.01851 0.60749 0.0
C49 C 0.31207 0.24614 0.64114 0.0
O50 O 0.30007 0.17407 0.62527 0.0
O51 O 0.23348 0.04912 0.6638 0.0
C52 C 0.78426 0.82803 0.66522 0.0
O53 O 0.768 0.88044 0.68241 0.0
O54 O 0.84586 0.86008 0.65091 0.0
O55 O 0.01745 0.04736 0.68056 0.0
O56 O 0.13996 0.11589 0.70804 0.0
O57 O 0.8387 0.04282 0.66151 0.0
C58 C 0.01685 0.0572 0.60393 0.0
C59 C 0.06331 0.07295 0.70763 0.0
H60 H 0.96579 0.28234 0.97501 0.0
H61 H 0.12406 0.37563 0.06776 0.0
H62 H 0.11157 0.51141 0.06749 0.0
H63 H 0.04614 0.48383 0.94245 0.0
H64 H 0.94868 0.46744 0.92067 0.0
H65 H 0.96571 0.37523 0.92894 0.0
H66 H 0.83763 0.31041 0.95653 0.0
H67 H 0.81959 0.40193 0.948 0.0
H68 H 0.82977 0.3753 0.98848 0.0
H69 H 0.08664 0.64035 0.05591 0.0
H70 H 0.04551 0.74882 0.03503 0.0
H71 H 0.90488 0.57101 0.94976 0.0
C72 C -0.00319 0.33065 -0.00449 0.0
C73 C 0.04572 0.3181 0.02146 0.0
C74 C 0.08606 0.38357 0.04763 0.0
C75 C 0.07949 0.46107 0.04768 0.0
C76 C 0.03229 0.47215 0.0214 0.0
C77 C -0.00887 0.40844 -0.00409 0.0
C78 C 0.94596 0.43721 0.97026 0.0
C79 C 0.9786 0.44116 0.93872 0.0
C80 C 0.85271 0.37768 0.96556 0.0
C81 C 0.96857 0.52726 0.98519 0.0
C82 C 0.01836 0.5463 0.01469 0.0
C83 C 0.04741 0.626 0.03288 0.0
C84 C 0.02398 0.68734 0.02077 0.0
C85 C 0.97209 0.66864 0.99074 0.0
C86 C 0.94475 0.5876 0.97276 0.0
H87 H 0.34886 0.0375 0.34513 0.0
H88 H 0.23945 0.84988 0.26077 0.0
H89 H 0.36875 0.83988 0.26293 0.0
H90 H 0.54881 0.15047 0.32549 0.0
H91 H 0.6013 0.16754 0.36607 0.0
H92 H 0.49935 0.15775 0.35823 0.0
H93 H 0.45 0.03173 0.39414 0.0
H94 H 0.55178 0.04071 0.40189 0.0
H95 H 0.46503 0.93804 0.38576 0.0
H96 H 0.51124 0.85424 0.27323 0.0
H97 H 0.65794 0.89455 0.29019 0.0
H98 H 0.67245 0.07031 0.36843 0.0
C99 C 0.35199 0.99431 0.32708 0.0
C100 C 0.28418 0.9446 0.30273 0.0
C101 C 0.29071 0.88864 0.27963 0.0
C102 C 0.36375 0.88229 0.28071 0.0
C103 C 0.4293 0.93191 0.30514 0.0
C104 C 0.42412 0.98684 0.32789 0.0
C105 C 0.5039 0.0344 0.35127 0.0
C106 C 0.54049 0.13339 0.35018 0.0
C107 C 0.49193 0.00971 0.38528 0.0
C108 C 0.55527 -0.00132 0.33781 0.0
C109 C 0.51101 0.93931 0.31131 0.0
C110 C 0.54639 0.90014 0.29408 0.0
C111 C 0.62969 0.92344 0.30391 0.0
C112 C 0.67647 0.98529 0.3307 0.0
C113 C 0.63814 0.02211 0.34809 0.0
H114 H 0.6423 0.74346 0.68934 0.0
H115 H 0.79241 0.701 0.62807 0.0
H116 H 0.68726 0.54729 0.61524 0.0
H117 H 0.56443 0.53251 0.72015 0.0
H118 H 0.46406 0.52441 0.7204 0.0
H119 H 0.5531 0.6296 0.72583 0.0
H120 H 0.48449 0.67726 0.67827 0.0
H121 H 0.39563 0.57194 0.67245 0.0
H122 H 0.4502 0.61357 0.63993 0.0
H123 H 0.56343 0.4006 0.60736 0.0
H124 H 0.43291 0.26853 0.60695 0.0
H125 H 0.36323 0.40729 0.67329 0.0
C126 C 0.65375 0.70175 0.67352 0.0
C127 C 0.72573 0.73423 0.65974 0.0
C128 C 0.7379 0.67748 0.63899 0.0
C129 C 0.67844 0.59019 0.6315 0.0
C130 C 0.60744 0.56088 0.645 0.0
C131 C 0.59514 0.61473 0.66576 0.0
C132 C 0.51287 0.56764 0.67658 0.0
C133 C 0.52433 0.56327 0.7129 0.0
C134 C 0.45755 0.61015 0.66618 0.0
C135 C 0.48045 0.47879 0.6585 0.0
C136 C 0.53596 0.47637 0.64042 0.0
C137 C 0.51963 0.40163 0.6215 0.0
C138 C 0.44507 0.32699 0.62137 0.0
C139 C 0.38765 0.32753 0.64006 0.0
C140 C 0.40564 0.40482 0.65868 0.0
H141 H 0.6232 0.00058 0.61 0.0
H142 H 0.77355 0.0765 0.70455 0.0
H143 H 0.66083 0.08376 0.72677 0.0
H144 H 0.52946 0.1415 0.61901 0.0
H145 H 0.43128 0.06456 0.5964 0.0
H146 H 0.52397 0.06485 0.58804 0.0
H147 H 0.46381 0.90145 0.5968 0.0
H148 H 0.3716 0.90124 0.6058 0.0
H149 H 0.43046 0.86695 0.63407 0.0
H150 H 0.5326 0.08079 0.73908 0.0
H151 H 0.40182 0.0851 0.73981 0.0
H152 H 0.33419 0.01308 0.63732 0.0
C153 C 0.6326 0.01932 0.63534 0.0
C154 C 0.70718 0.03786 0.65553 0.0
C155 C 0.71717 0.06239 0.68855 0.0
C156 C 0.65326 0.06603 0.70148 0.0
C157 C 0.57998 0.0455 0.68106 0.0
C158 C 0.56962 0.02399 0.64864 0.0
C159 C 0.48551 0.00798 0.63189 0.0
C160 C 0.49304 0.07364 0.60739 0.0
C161 C 0.43487 0.91379 0.61622 0.0
C162 C 0.45041 0.02401 0.66 0.0
C163 C 0.50576 0.04469 0.68815 0.0
C164 C 0.48864 0.06466 0.71722 0.0
C165 C 0.41408 0.06664 0.71739 0.0
C166 C 0.35777 0.04918 0.68866 0.0
C167 C 0.37542 0.02542 0.65973 0.0
H168 H 0.66464 0.58856 0.02711 0.0
H169 H 0.64522 0.6954 0.93701 0.0
H170 H 0.50553 0.57508 0.92029 0.0
H171 H 0.55327 0.36167 -0.00456 0.0
H172 H 0.50247 0.32724 0.02937 0.0
H173 H 0.60223 0.42083 0.03436 0.0
H174 H 0.54499 0.51503 0.05937 0.0
H175 H 0.44528 0.42165 0.05468 0.0
H176 H 0.45636 0.51957 0.03766 0.0
H177 H 0.36878 0.44592 0.9133 0.0
H178 H 0.2386 0.31844 0.91748 0.0
H179 H 0.34423 0.29372 0.01215 0.0
C180 C 0.63101 0.58666 0.00387 0.0
C181 C 0.66598 0.65147 0.98337 0.0
C182 C 0.61981 0.64668 0.95318 0.0
C183 C 0.5405 0.57838 0.94338 0.0
C184 C 0.50813 0.51536 0.96403 0.0
C185 C 0.55149 0.5189 -0.0063 0.0
C186 C 0.50109 0.44377 0.01154 0.0
C187 C 0.54224 0.3849 0.01805 0.0
C188 C 0.48604 0.47702 0.04265 0.0
C189 C 0.42238 0.39807 0.98732 0.0
C190 C 0.42829 0.44032 0.96002 0.0
C191 C 0.36333 0.4121 0.93451 0.0
C192 C 0.28961 0.33961 0.93715 0.0
C193 C 0.28125 0.29617 0.96515 0.0
C194 C 0.34906 0.32513 0.99036 0.0
H195 H 0.90946 0.34746 0.28862 0.0
H196 H 0.00365 0.31428 0.38389 0.0
H197 H 0.03164 0.4629 0.40268 0.0
H198 H 0.05778 0.56841 0.28891 0.0
H199 H -0.01338 0.59961 0.26672 0.0
H200 H 0.97013 0.48918 0.26129 0.0
H201 H 0.82436 0.43439 0.27532 0.0
H202 H 0.84072 0.54484 0.28104 0.0
H203 H 0.81241 0.47545 0.31262 0.0
H204 H 0.05352 0.61652 0.41071 0.0
H205 H 0.07539 0.7669 0.40682 0.0
H206 H 0.96754 0.70085 0.30622 0.0
C207 C 0.93553 0.37116 0.3135 0.0
C208 C 0.95418 0.31901 0.33481 0.0
C209 C -0.01105 0.35295 0.3671 0.0
C210 C 0.00468 0.43716 0.37803 0.0
C211 C -0.01461 0.4867 0.35641 0.0
C212 C 0.95199 0.45519 0.32477 0.0
C213 C 0.94044 0.52314 0.30611 0.0
C214 C -0.00818 0.54646 0.27917 0.0
C215 C 0.84904 0.49261 0.29301 0.0
C216 C 0.97343 0.59823 0.33211 0.0
C217 C -0.00165 0.57551 0.361 0.0
C218 C 0.03378 0.63486 0.38827 0.0
C219 C 0.04586 0.72018 0.38581 0.0
C220 C 0.02282 0.7457 0.35627 0.0
C221 C -0.01533 0.68316 0.32925 0.0
H222 H 0.10002 0.03594 0.22472 0.0
H223 H 0.88449 0.07154 0.23024 0.0
H224 H 0.86293 0.07632 0.17203 0.0
H225 H 0.1695 0.17777 0.16059 0.0
H226 H 0.20358 0.10829 0.14205 0.0
H227 H 0.20629 0.11469 0.1846 0.0
H228 H 0.11797 0.94739 0.18056 0.0
H229 H 0.11483 0.94047 0.13806 0.0
H230 H 0.02042 0.89613 0.15389 0.0
H231 H 0.85532 0.06098 0.11317 0.0
H232 H 0.86675 0.03393 0.05719 0.0
H233 H 0.09072 0.01589 0.08958 0.0
C234 C 0.04893 0.04594 0.21377 0.0
C235 C -0.00611 0.05318 0.23211 0.0
C236 C 0.92764 0.06595 0.21678 0.0
C237 C 0.91487 0.06889 0.1837 0.0
C238 C 0.96944 0.06017 0.16631 0.0
C239 C 0.03569 0.04992 0.18079 0.0
C240 C 0.08318 0.03861 0.15636 0.0
C241 C 0.17084 0.11437 0.16119 0.0
C242 C 0.08409 0.95041 0.15728 0.0
C243 C 0.03174 0.04148 0.12584 0.0
C244 C 0.96655 0.05419 0.13218 0.0
C245 C 0.90689 0.05255 0.10787 0.0
C246 C 0.91365 0.03678 0.07622 0.0
C247 C -0.02006 0.02369 0.06922 0.0
C248 C 0.04038 0.02748 0.09434 0.0
H249 H 0.92388 0.00384 0.41413 0.0
H250 H 0.18738 0.14181 0.41608 0.0
H251 H 0.20997 0.16698 0.47492 0.0
H252 H 0.91743 0.13781 0.48067 0.0
H253 H 0.83903 0.04587 0.49523 0.0
H254 H 0.84376 0.04556 0.4532 0.0
H255 H 0.8518 0.90025 0.45363 0.0
H256 H 0.84747 0.90023 0.49562 0.0
H257 H 0.93154 0.89343 0.4812 0.0
H258 H 0.20383 0.16961 0.53375 0.0
H259 H 0.16922 0.14787 0.58786 0.0
H260 H 0.91037 0.00546 0.5469 0.0
C261 C -0.01362 0.04033 0.42683 0.0
C262 C 0.05389 0.07086 0.41049 0.0
C263 C 0.13468 0.11781 0.42809 0.0
C264 C 0.14813 0.1326 0.4615 0.0
C265 C 0.08016 0.10025 0.47686 0.0
C266 C 0.00089 0.0553 0.46008 0.0
C267 C 0.93863 0.02328 0.48227 0.0
C268 C 0.88135 0.06569 0.47756 0.0
C269 C 0.88951 0.92339 0.47792 0.0
C270 C -0.00464 0.05573 0.51423 0.0
C271 C 0.07668 0.10072 0.51064 0.0
C272 C 0.14032 0.13474 0.53683 0.0
C273 C 0.12021 0.1217 0.56748 0.0
C274 C 0.03741 0.07446 0.57166 0.0
C275 C 0.97435 0.04202 0.54458 0.0
H276 H 0.14112 0.14937 0.7682 0.0
H277 H 0.91253 0.94791 0.71466 0.0
H278 H 0.86083 0.90276 0.76498 0.0
H279 H 0.16043 0.02878 0.83062 0.0
H280 H 0.20162 0.11807 0.86167 0.0
H281 H 0.21762 0.13886 0.82137 0.0
H282 H 0.15231 0.24307 0.82168 0.0
H283 H 0.13672 0.22299 0.86211 0.0
H284 H 0.051 0.20464 0.83156 0.0
H285 H 0.83992 0.87195 0.82139 0.0
H286 H 0.84655 0.86463 0.87961 0.0
H287 H 0.08873 0.08839 0.89596 0.0
C288 C 0.07967 0.09668 0.76707 0.0
C289 C 0.02999 0.05239 0.73753 0.0
C290 C 0.95038 0.98344 0.73702 0.0
C291 C 0.92098 0.95711 0.76549 0.0
C292 C 0.97203 0.00113 0.79426 0.0
C293 C 0.0493 0.07018 0.79525 0.0
C294 C 0.09282 0.10513 0.82928 0.0
C295 C 0.17283 0.09717 0.83612 0.0
C296 C 0.10914 0.19955 0.83658 0.0
C297 C 0.02869 0.0437 0.84724 0.0
C298 C 0.95947 0.98418 0.82666 0.0
C299 C 0.8934 0.91887 0.83777 0.0
C300 C 0.89792 0.91495 0.87084 0.0
C301 C 0.96789 0.97625 0.89235 0.0
C302 C 0.03395 0.0412 0.88021 0.0
loop_
_geom_bond_atom_site_label_1
_geom_bond_atom_site_label_2
_geom_bond_distance
_geom_bond_site_symmetry_2
_ccdc_geom_bond_type
Zn0 O6 1.969 . S
Zn0 O7 1.965 1_556 S
Zn0 O11 2.024 1_656 S
Zn0 O16 1.969 1_655 S
Zn1 O8 1.969 . S
Zn1 O14 1.969 . S
Zn1 O15 1.965 1_554 S
Zn1 O17 2.024 1_554 S
C2 O3 1.229 1_455 S
C2 O11 1.058 1_556 S
O3 C2 1.229 1_655 S
C4 O5 1.229 . S
C4 O17 1.058 1_554 S
O5 C4 1.229 . S
O6 Zn0 1.969 . S
O6 C9 1.267 1_556 S
O7 Zn0 1.965 1_554 S
O7 C18 1.260 1_665 S
O8 Zn1 1.969 . S
O8 C18 1.258 . S
C9 O6 1.267 1_554 S
C9 O10 1.228 . S
O10 C9 1.228 . S
O11 Zn0 2.024 1_454 S
O11 C2 1.058 1_554 S
C12 O13 1.228 . S
C12 O14 1.267 1_556 S
O13 C12 1.228 . S
O14 Zn1 1.969 . S
O14 C12 1.267 1_554 S
O15 Zn1 1.965 1_556 S
O15 C19 1.260 . S
O16 Zn0 1.969 1_455 S
O16 C19 1.258 1_565 S
O17 Zn1 2.024 1_556 S
O17 C4 1.058 1_556 S
C18 O7 1.260 1_445 S
C18 O8 1.258 . S
C19 O15 1.260 . S
C19 O16 1.258 1_545 S
Zn20 O26 1.969 1_565 S
Zn20 O27 1.965 1_565 S
Zn20 O31 2.024 . S
Zn20 O36 1.969 . S
Zn21 O28 1.969 . S
Zn21 O34 1.969 . S
Zn21 O35 1.965 . S
Zn21 O37 2.024 1_655 S
C22 O23 1.229 . S
C22 O31 1.058 . S
O23 C22 1.229 . S
C24 O25 1.229 . S
C24 O37 1.058 1_655 S
O25 C24 1.229 . S
O26 Zn20 1.969 1_545 S
O26 C29 1.267 . S
O27 Zn20 1.965 1_545 S
O27 C38 1.260 . S
O28 Zn21 1.969 . S
O28 C38 1.258 1_655 S
C29 O26 1.267 . S
C29 O30 1.228 1_545 S
O30 C29 1.228 1_565 S
O31 Zn20 2.024 . S
O31 C22 1.058 . S
C32 O33 1.228 . S
C32 O34 1.267 . S
O33 C32 1.228 . S
O34 Zn21 1.969 . S
O34 C32 1.267 . S
O35 Zn21 1.965 . S
O35 C39 1.260 1_655 S
O36 Zn20 1.969 . S
O36 C39 1.258 1_565 S
O37 Zn21 2.024 1_455 S
O37 C24 1.058 1_455 S
C38 O27 1.260 . S
C38 O28 1.258 1_455 S
C39 O35 1.260 1_455 S
C39 O36 1.258 1_545 S
Zn40 O46 1.969 . S
Zn40 O47 1.965 . S
Zn40 O51 2.024 . S
Zn40 O56 1.969 . S
Zn41 O48 1.969 . S
Zn41 O54 1.969 . S
Zn41 O55 1.965 . S
Zn41 O57 2.024 1_565 S
C42 O43 1.229 . S
C42 O51 1.058 . S
O43 C42 1.229 . S
C44 O45 1.229 1_545 S
C44 O57 1.058 . S
O45 C44 1.229 1_565 S
O46 Zn40 1.969 . S
O46 C49 1.267 . S
O47 Zn40 1.965 . S
O47 C58 1.260 . S
O48 Zn41 1.969 . S
O48 C58 1.258 1_665 S
C49 O46 1.267 . S
C49 O50 1.228 . S
O50 C49 1.228 . S
O51 Zn40 2.024 . S
O51 C42 1.058 . S
C52 O53 1.228 . S
C52 O54 1.267 . S
O53 C52 1.228 . S
O54 Zn41 1.969 . S
O54 C52 1.267 . S
O55 Zn41 1.965 . S
O55 C59 1.260 1_665 S
O56 Zn40 1.969 . S
O56 C59 1.258 . S
O57 Zn41 2.024 1_545 S
O57 C44 1.058 . S
C58 O47 1.260 . S
C58 O48 1.258 1_445 S
C59 O55 1.260 1_445 S
C59 O56 1.258 . S
H60 C72 0.930 . S
H61 C74 0.930 1_655 S
H62 C75 0.930 1_655 S
H63 C79 0.959 . S
H64 C79 0.959 . S
H65 C79 0.961 . S
H66 C80 0.960 . S
H67 C80 0.961 . S
H68 C80 0.959 1_655 S
H69 C83 0.929 1_655 S
H70 C84 0.931 . S
H71 C86 0.930 . S
C72 H60 0.930 . S
C72 C73 1.399 1_556 S
C72 C77 1.399 . S
C73 C72 1.399 1_554 S
C73 C74 1.376 . S
C74 H61 0.930 1_455 S
C74 C73 1.376 . S
C74 C75 1.388 . S
C75 H62 0.930 1_455 S
C75 C74 1.388 . S
C75 C76 1.390 . S
C76 C75 1.390 . S
C76 C77 1.394 1_554 S
C76 C82 1.465 . S
C77 C72 1.399 . S
C77 C76 1.394 1_556 S
C77 C78 1.516 . S
C78 C77 1.516 . S
C78 C79 1.502 . S
C78 C80 1.561 . S
C78 C81 1.526 . S
C79 H63 0.959 . S
C79 H64 0.959 . S
C79 H65 0.961 . S
C79 C78 1.502 . S
C80 H66 0.960 . S
C80 H67 0.961 . S
C80 H68 0.959 1_455 S
C80 C78 1.561 . S
C81 C78 1.526 . S
C81 C82 1.396 1_556 S
C81 C86 1.390 . S
C82 C76 1.465 . S
C82 C81 1.396 1_554 S
C82 C83 1.399 . S
C83 H69 0.929 1_455 S
C83 C82 1.399 . S
C83 C84 1.385 . S
C84 H70 0.931 . S
C84 C83 1.385 . S
C84 C85 1.389 . S
C85 C84 1.389 . S
C85 C86 1.387 1_554 S
C86 H71 0.930 . S
C86 C81 1.390 . S
C86 C85 1.387 1_556 S
H87 C99 0.930 1_565 S
H88 C101 0.930 . S
H89 C102 0.930 . S
H90 C106 0.959 . S
H91 C106 0.959 1_565 S
H92 C106 0.961 . S
H93 C107 0.960 . S
H94 C107 0.961 . S
H95 C107 0.959 . S
H96 C110 0.929 . S
H97 C111 0.931 . S
H98 C113 0.930 . S
C99 H87 0.930 1_545 S
C99 C100 1.399 . S
C99 C104 1.399 . S
C100 C99 1.399 . S
C100 C101 1.376 . S
C101 H88 0.930 . S
C101 C100 1.376 . S
C101 C102 1.388 . S
C102 H89 0.930 . S
C102 C101 1.388 . S
C102 C103 1.390 . S
C103 C102 1.390 . S
C103 C104 1.394 . S
C103 C109 1.465 . S
C104 C99 1.399 . S
C104 C103 1.394 . S
C104 C105 1.516 1_545 S
C105 C104 1.516 1_565 S
C105 C106 1.502 1_565 S
C105 C107 1.561 . S
C105 C108 1.526 1_565 S
C106 H90 0.959 . S
C106 H91 0.959 1_545 S
C106 H92 0.961 . S
C106 C105 1.502 1_545 S
C107 H93 0.960 . S
C107 H94 0.961 . S
C107 H95 0.959 . S
C107 C105 1.561 . S
C108 C105 1.526 1_545 S
C108 C109 1.396 . S
C108 C113 1.390 1_545 S
C109 C103 1.465 . S
C109 C108 1.396 . S
C109 C110 1.399 . S
C110 H96 0.929 . S
C110 C109 1.399 . S
C110 C111 1.385 . S
C111 H97 0.931 . S
C111 C110 1.385 . S
C111 C112 1.389 . S
C112 C111 1.389 . S
C112 C113 1.387 1_545 S
C113 H98 0.930 . S
C113 C108 1.390 1_565 S
C113 C112 1.387 1_565 S
H114 C126 0.930 . S
H115 C128 0.930 . S
H116 C129 0.930 . S
H117 C133 0.959 . S
H118 C133 0.959 . S
H119 C133 0.961 . S
H120 C134 0.960 . S
H121 C134 0.961 . S
H122 C134 0.959 . S
H123 C137 0.929 . S
H124 C138 0.931 . S
H125 C140 0.930 . S
C126 H114 0.930 . S
C126 C127 1.399 . S
C126 C131 1.399 . S
C127 C126 1.399 . S
C127 C128 1.376 . S
C128 H115 0.930 . S
C128 C127 1.376 . S
C128 C129 1.388 . S
C129 H116 0.930 . S
C129 C128 1.388 . S
C129 C130 1.390 . S
C130 C129 1.390 . S
C130 C131 1.394 . S
C130 C136 1.465 . S
C131 C126 1.399 . S
C131 C130 1.394 . S
C131 C132 1.516 . S
C132 C131 1.516 . S
C132 C133 1.502 . S
C132 C134 1.561 . S
C132 C135 1.526 . S
C133 H117 0.959 . S
C133 H118 0.959 . S
C133 H119 0.961 . S
C133 C132 1.502 . S
C134 H120 0.960 . S
C134 H121 0.961 . S
C134 H122 0.959 . S
C134 C132 1.561 . S
C135 C132 1.526 . S
C135 C136 1.396 . S
C135 C140 1.390 . S
C136 C130 1.465 . S
C136 C135 1.396 . S
C136 C137 1.399 . S
C137 H123 0.929 . S
C137 C136 1.399 . S
C137 C138 1.385 . S
C138 H124 0.931 . S
C138 C137 1.385 . S
C138 C139 1.389 . S
C139 C138 1.389 . S
C139 C140 1.387 . S
C140 H125 0.930 . S
C140 C135 1.390 . S
C140 C139 1.387 . S
H141 C153 0.930 1_565 S
H142 C155 0.930 . S
H143 C156 0.930 . S
H144 C160 0.959 1_545 S
H145 C160 0.959 . S
H146 C160 0.961 . S
H147 C161 0.960 . S
H148 C161 0.961 . S
H149 C161 0.959 . S
H150 C164 0.929 . S
H151 C165 0.931 . S
H152 C167 0.930 . S
C153 H141 0.930 1_545 S
C153 C154 1.399 . S
C153 C158 1.399 . S
C154 C153 1.399 . S
C154 C155 1.376 . S
C155 H142 0.930 . S
C155 C154 1.376 . S
C155 C156 1.388 . S
C156 H143 0.930 . S
C156 C155 1.388 . S
C156 C157 1.390 . S
C157 C156 1.390 . S
C157 C158 1.394 . S
C157 C163 1.465 . S
C158 C153 1.399 . S
C158 C157 1.394 . S
C158 C159 1.516 1_545 S
C159 C158 1.516 1_565 S
C159 C160 1.502 . S
C159 C161 1.561 . S
C159 C162 1.526 . S
C160 H144 0.959 1_565 S
C160 H145 0.959 . S
C160 H146 0.961 . S
C160 C159 1.502 . S
C161 H147 0.960 . S
C161 H148 0.961 . S
C161 H149 0.959 . S
C161 C159 1.561 . S
C162 C159 1.526 . S
C162 C163 1.396 1_565 S
C162 C167 1.390 . S
C163 C157 1.465 . S
C163 C162 1.396 1_545 S
C163 C164 1.399 . S
C164 H150 0.929 . S
C164 C163 1.399 . S
C164 C165 1.385 . S
C165 H151 0.931 . S
C165 C164 1.385 . S
C165 C166 1.389 . S
C166 C165 1.389 . S
C166 C167 1.387 1_545 S
C167 H152 0.930 . S
C167 C162 1.390 . S
C167 C166 1.387 1_565 S
H168 C180 0.930 . S
H169 C182 0.930 . S
H170 C183 0.930 . S
H171 C187 0.959 . S
H172 C187 0.959 . S
H173 C187 0.961 . S
H174 C188 0.960 . S
H175 C188 0.961 . S
H176 C188 0.959 . S
H177 C191 0.929 . S
H178 C192 0.931 . S
H179 C194 0.930 . S
C180 H168 0.930 . S
C180 C181 1.396 1_554 S
C180 C185 1.399 . S
C181 C180 1.396 1_556 S
C181 C182 1.380 . S
C182 H169 0.930 . S
C182 C181 1.380 . S
C182 C183 1.388 . S
C183 H170 0.930 . S
C183 C182 1.388 . S
C183 C184 1.390 . S
C184 C183 1.390 . S
C184 C185 1.394 1_556 S
C184 C190 1.465 . S
C185 C180 1.399 . S
C185 C184 1.394 1_554 S
C185 C186 1.516 . S
C186 C185 1.516 . S
C186 C187 1.502 . S
C186 C188 1.561 . S
C186 C189 1.526 . S
C187 H171 0.959 . S
C187 H172 0.959 . S
C187 H173 0.961 . S
C187 C186 1.502 . S
C188 H174 0.960 . S
C188 H175 0.961 . S
C188 H176 0.959 . S
C188 C186 1.561 . S
C189 C186 1.526 . S
C189 C190 1.396 1_554 S
C189 C194 1.390 . S
C190 C184 1.465 . S
C190 C189 1.396 1_556 S
C190 C191 1.399 . S
C191 H177 0.929 . S
C191 C190 1.399 . S
C191 C192 1.385 . S
C192 H178 0.931 . S
C192 C191 1.385 . S
C192 C193 1.389 . S
C193 C192 1.389 . S
C193 C194 1.387 1_556 S
C194 H179 0.930 . S
C194 C189 1.390 . S
C194 C193 1.387 1_554 S
H195 C207 0.930 . S
H196 C209 0.930 . S
H197 C210 0.930 . S
H198 C214 0.959 1_455 S
H199 C214 0.959 . S
H200 C214 0.961 . S
H201 C215 0.960 . S
H202 C215 0.961 . S
H203 C215 0.959 . S
H204 C218 0.929 . S
H205 C219 0.931 . S
H206 C221 0.930 . S
C207 H195 0.930 . S
C207 C208 1.399 1_655 S
C207 C212 1.399 . S
C208 C207 1.399 1_455 S
C208 C209 1.376 . S
C209 H196 0.930 . S
C209 C208 1.376 . S
C209 C210 1.388 . S
C210 H197 0.930 . S
C210 C209 1.388 . S
C210 C211 1.390 . S
C211 C210 1.390 . S
C211 C212 1.394 1_455 S
C211 C217 1.465 . S
C212 C207 1.399 . S
C212 C211 1.394 1_655 S
C212 C213 1.516 . S
C213 C212 1.516 . S
C213 C214 1.502 . S
C213 C215 1.561 . S
C213 C216 1.526 . S
C214 H198 0.959 1_655 S
C214 H199 0.959 . S
C214 H200 0.961 . S
C214 C213 1.502 . S
C215 H201 0.960 . S
C215 H202 0.961 . S
C215 H203 0.959 . S
C215 C213 1.561 . S
C216 C213 1.526 . S
C216 C217 1.396 1_655 S
C216 C221 1.390 . S
C217 C211 1.465 . S
C217 C216 1.396 1_455 S
C217 C218 1.399 . S
C218 H204 0.929 . S
C218 C217 1.399 . S
C218 C219 1.385 . S
C219 H205 0.931 . S
C219 C218 1.385 . S
C219 C220 1.389 . S
C220 C219 1.389 . S
C220 C221 1.387 1_455 S
C221 H206 0.930 . S
C221 C216 1.390 . S
C221 C220 1.387 1_655 S
H222 C234 0.930 . S
H223 C236 0.930 1_655 S
H224 C237 0.930 1_655 S
H225 C241 0.959 . S
H226 C241 0.959 . S
H227 C241 0.961 . S
H228 C242 0.960 . S
H229 C242 0.961 . S
H230 C242 0.959 . S
H231 C245 0.929 . S
H232 C246 0.931 . S
H233 C248 0.930 . S
C234 H222 0.930 . S
C234 C235 1.399 1_565 S
C234 C239 1.399 . S
C235 C234 1.399 1_545 S
C235 C236 1.376 . S
C236 H223 0.930 1_455 S
C236 C235 1.376 . S
C236 C237 1.388 . S
C237 H224 0.930 1_455 S
C237 C236 1.388 . S
C237 C238 1.390 . S
C238 C237 1.390 . S
C238 C239 1.394 1_545 S
C238 C244 1.465 . S
C239 C234 1.399 . S
C239 C238 1.394 1_565 S
C239 C240 1.516 . S
C240 C239 1.516 . S
C240 C241 1.502 . S
C240 C242 1.561 1_455 S
C240 C243 1.526 . S
C241 H225 0.959 . S
C241 H226 0.959 . S
C241 H227 0.961 . S
C241 C240 1.502 . S
C242 H228 0.960 . S
C242 H229 0.961 . S
C242 H230 0.959 . S
C242 C240 1.561 1_655 S
C243 C240 1.526 . S
C243 C244 1.396 1_565 S
C243 C248 1.390 . S
C244 C238 1.465 . S
C244 C243 1.396 1_545 S
C244 C245 1.399 . S
C245 H231 0.929 . S
C245 C244 1.399 . S
C245 C246 1.385 . S
C246 H232 0.931 . S
C246 C245 1.385 . S
C246 C247 1.389 . S
C247 C246 1.389 . S
C247 C248 1.387 1_545 S
C248 H233 0.930 . S
C248 C243 1.390 . S
C248 C247 1.387 1_565 S
H249 C261 0.930 . S
H250 C263 0.930 . S
H251 C264 0.930 . S
H252 C268 0.959 . S
H253 C268 0.959 . S
H254 C268 0.961 . S
H255 C269 0.960 . S
H256 C269 0.961 . S
H257 C269 0.959 1_455 S
H258 C272 0.929 . S
H259 C273 0.931 . S
H260 C275 0.930 . S
C261 H249 0.930 . S
C261 C262 1.399 1_665 S
C261 C266 1.399 . S
C262 C261 1.399 1_445 S
C262 C263 1.376 . S
C263 H250 0.930 . S
C263 C262 1.376 . S
C263 C264 1.388 . S
C264 H251 0.930 . S
C264 C263 1.388 . S
C264 C265 1.390 . S
C265 C264 1.390 . S
C265 C266 1.394 1_445 S
C265 C271 1.465 . S
C266 C261 1.399 . S
C266 C265 1.394 1_665 S
C266 C267 1.516 . S
C267 C266 1.516 . S
C267 C268 1.502 . S
C267 C269 1.561 . S
C267 C270 1.526 . S
C268 H252 0.959 . S
C268 H253 0.959 . S
C268 H254 0.961 . S
C268 C267 1.502 . S
C269 H255 0.960 . S
C269 H256 0.961 . S
C269 H257 0.959 1_655 S
C269 C267 1.561 . S
C270 C267 1.526 . S
C270 C271 1.396 1_665 S
C270 C275 1.390 . S
C271 C265 1.465 . S
C271 C270 1.396 1_445 S
C271 C272 1.399 . S
C272 H258 0.929 . S
C272 C271 1.399 . S
C272 C273 1.385 . S
C273 H259 0.931 . S
C273 C272 1.385 . S
C273 C274 1.389 . S
C274 C273 1.389 . S
C274 C275 1.387 1_445 S
C275 H260 0.930 . S
C275 C270 1.390 . S
C275 C274 1.387 1_665 S
H276 C288 0.930 . S
H277 C290 0.930 . S
H278 C291 0.930 . S
H279 C295 0.959 . S
H280 C295 0.959 . S
H281 C295 0.961 . S
H282 C296 0.960 . S
H283 C296 0.961 . S
H284 C296 0.959 . S
H285 C299 0.929 . S
H286 C300 0.931 . S
H287 C302 0.930 . S
C288 H276 0.930 . S
C288 C289 1.399 . S
C288 C293 1.399 . S
C289 C288 1.399 . S
C289 C290 1.376 1_445 S
C290 H277 0.930 . S
C290 C289 1.376 1_665 S
C290 C291 1.388 . S
C291 H278 0.930 . S
C291 C290 1.388 . S
C291 C292 1.390 1_655 S
C292 C291 1.390 1_455 S
C292 C293 1.394 1_565 S
C292 C298 1.465 . S
C293 C288 1.399 . S
C293 C292 1.394 1_545 S
C293 C294 1.516 . S
C294 C293 1.516 . S
C294 C295 1.502 . S
C294 C296 1.561 . S
C294 C297 1.526 . S
C295 H279 0.959 . S
C295 H280 0.959 . S
C295 H281 0.961 . S
C295 C294 1.502 . S
C296 H282 0.960 . S
C296 H283 0.961 . S
C296 H284 0.959 . S
C296 C294 1.561 . S
C297 C294 1.526 . S
C297 C298 1.396 1_545 S
C297 C302 1.390 . S
C298 C292 1.465 . S
C298 C297 1.396 1_565 S
C298 C299 1.399 1_455 S
C299 H285 0.929 . S
C299 C298 1.399 1_655 S
C299 C300 1.385 . S
C300 H286 0.931 . S
C300 C299 1.385 . S
C300 C301 1.389 1_665 S
C301 C300 1.389 1_445 S
C301 C302 1.387 . S
C302 H287 0.930 . S
C302 C297 1.390 . S
C302 C301 1.387 . S
C73 C4 1.437 . S
C85 C2 1.381 1_554 S
C100 C29 1.089 . S
C112 C32 1.101 . S
C127 C52 1.230 . S
C139 C49 1.277 . S
C154 C44 1.572 . S
C166 C42 1.541 . S
C181 C9 1.291 1_556 S
C193 C12 1.223 . S
C208 C24 1.406 1_455 S
C220 C22 1.382 . S
C235 C38 1.465 . S
C247 C18 1.449 . S
C262 C39 1.482 . S
C274 C58 1.495 . S
C289 C59 1.498 . S
C301 C19 1.476 . S
