# Generated by pormake.
# Topology ske, (6)-cn, num edge types: 1
# Building blocks:
#     Node 0, Type 0, BuildingBlock: BETDAH_clean_sbu_0, # of connection points: 6
#     Node 1, Type 0, BuildingBlock: BETDAH_clean_sbu_0, # of connection points: 6
#     Node 2, Type 0, BuildingBlock: BETDAH_clean_sbu_0, # of connection points: 6
#     Node 3, Type 0, BuildingBlock: BETDAH_clean_sbu_0, # of connection points: 6
#     Node 4, Type 0, BuildingBlock: BETDAH_clean_sbu_0, # of connection points: 6
#     Node 5, Type 0, BuildingBlock: BETDAH_clean_sbu_0, # of connection points: 6
#     Node 6, Type 0, BuildingBlock: BETDAH_clean_sbu_0, # of connection points: 6
#     Node 7, Type 0, BuildingBlock: BETDAH_clean_sbu_0, # of connection points: 6
#     Edge 8, Type (0, 0), BuildingBlock: EYOCIG_clean_linker_4, # of connection points: 2
#     Edge 9, Type (0, 0), BuildingBlock: EYOCIG_clean_linker_4, # of connection points: 2
#     Edge 10, Type (0, 0), BuildingBlock: EYOCIG_clean_linker_4, # of connection points: 2
#     Edge 11, Type (0, 0), BuildingBlock: EYOCIG_clean_linker_4, # of connection points: 2
#     Edge 12, Type (0, 0), BuildingBlock: EYOCIG_clean_linker_4, # of connection points: 2
#     Edge 13, Type (0, 0), BuildingBlock: EYOCIG_clean_linker_4, # of connection points: 2
#     Edge 14, Type (0, 0), BuildingBlock: EYOCIG_clean_linker_4, # of connection points: 2
#     Edge 15, Type (0, 0), BuildingBlock: EYOCIG_clean_linker_4, # of connection points: 2
#     Edge 16, Type (0, 0), BuildingBlock: EYOCIG_clean_linker_4, # of connection points: 2
#     Edge 17, Type (0, 0), BuildingBlock: EYOCIG_clean_linker_4, # of connection points: 2
#     Edge 18, Type (0, 0), BuildingBlock: EYOCIG_clean_linker_4, # of connection points: 2
#     Edge 19, Type (0, 0), BuildingBlock: EYOCIG_clean_linker_4, # of connection points: 2
#     Edge 20, Type (0, 0), BuildingBlock: EYOCIG_clean_linker_4, # of connection points: 2
#     Edge 21, Type (0, 0), BuildingBlock: EYOCIG_clean_linker_4, # of connection points: 2
#     Edge 22, Type (0, 0), BuildingBlock: EYOCIG_clean_linker_4, # of connection points: 2
#     Edge 23, Type (0, 0), BuildingBlock: EYOCIG_clean_linker_4, # of connection points: 2
#     Edge 24, Type (0, 0), BuildingBlock: EYOCIG_clean_linker_4, # of connection points: 2
#     Edge 25, Type (0, 0), BuildingBlock: EYOCIG_clean_linker_4, # of connection points: 2
#     Edge 26, Type (0, 0), BuildingBlock: EYOCIG_clean_linker_4, # of connection points: 2
#     Edge 27, Type (0, 0), BuildingBlock: EYOCIG_clean_linker_4, # of connection points: 2
#     Edge 28, Type (0, 0), BuildingBlock: EYOCIG_clean_linker_4, # of connection points: 2
#     Edge 29, Type (0, 0), BuildingBlock: EYOCIG_clean_linker_4, # of connection points: 2
#     Edge 30, Type (0, 0), BuildingBlock: EYOCIG_clean_linker_4, # of connection points: 2
#     Edge 31, Type (0, 0), BuildingBlock: EYOCIG_clean_linker_4, # of connection points: 2
# Relax obj value: 0.205
# Max RMSD: 0.214
# Mean RMSD: 0.207
data_MOF--net-ske--node1-BETDAH_clean_sbu_0--edge1-EYOCIG_clean_linker_4
_symmetry_space_group_name_H-M    P1
_symmetry_Int_Tables_number       1
_symmetry_cell_setting            triclinic
loop_
_symmetry_equiv_pos_as_xyz
'x, y, z'
_cell_length_a     87.799812
_cell_length_b     22.68031
_cell_length_c     12.313805
_cell_angle_alpha  89.996055
_cell_angle_beta   90.004903
_cell_angle_gamma 83.192482
loop_
_atom_site_label
_atom_site_type_symbol
_atom_site_fract_x
_atom_site_fract_y
_atom_site_fract_z
_atom_type_partial_charge
Ho0 Ho 0.17803 0.25672 0.45521 0.0
Ho1 Ho 0.14391 0.26522 0.44994 0.0
C2 C 0.15932 0.2613 0.68178 0.0
C3 C 0.20653 0.27103 0.48652 0.0
C4 C 0.21954 0.26241 0.56347 0.0
C5 C 0.22349 0.31103 0.62387 0.0
C6 C 0.2378 0.30847 0.67444 0.0
C7 C 0.24833 0.25738 0.665 0.0
C8 C 0.24403 0.20708 0.61282 0.0
C9 C 0.22972 0.20953 0.56215 0.0
C10 C 0.16708 0.14908 0.45424 0.0
C11 C 0.16289 0.26275 0.22355 0.0
C12 C 0.11544 0.25065 0.415 0.0
C13 C 0.10223 0.25939 0.33869 0.0
C14 C 0.09774 0.21045 0.28177 0.0
C15 C 0.08304 0.21303 0.23615 0.0
C16 C 0.07263 0.26453 0.24684 0.0
C17 C 0.07753 0.31524 0.29406 0.0
C18 C 0.09222 0.31279 0.33954 0.0
C19 C 0.15471 0.37113 0.47151 0.0
O20 O 0.17197 0.27223 0.63173 0.0
O21 O 0.14722 0.24733 0.62807 0.0
O22 O 0.20209 0.22416 0.44013 0.0
O23 O 0.19511 0.31153 0.50933 0.0
O24 O 0.17918 0.16089 0.40267 0.0
O25 O 0.16155 0.1945 0.506 0.0
O26 O 0.15016 0.25265 0.27298 0.0
O27 O 0.17514 0.27407 0.27747 0.0
O28 O 0.11982 0.29734 0.46253 0.0
O29 O 0.12692 0.21022 0.39262 0.0
O30 O 0.14231 0.35768 0.5167 0.0
O31 O 0.16033 0.32959 0.40947 0.0
H32 H 0.21595 0.35244 0.62605 0.0
H33 H 0.24097 0.34761 0.71506 0.0
H34 H 0.25207 0.16716 0.60548 0.0
H35 H 0.22708 0.17131 0.51621 0.0
H36 H 0.10512 0.16868 0.27956 0.0
H37 H 0.07946 0.17345 0.19959 0.0
H38 H 0.06965 0.35552 0.30269 0.0
H39 H 0.09527 0.35143 0.38235 0.0
Ho40 Ho 0.89161 0.26714 0.45482 0.0
Ho41 Ho 0.92572 0.25884 0.44956 0.0
C42 C 0.91033 0.26257 0.68139 0.0
C43 C 0.86313 0.25258 0.48616 0.0
C44 C 0.85013 0.26082 0.56335 0.0
C45 C 0.84629 0.21204 0.62374 0.0
C46 C 0.83199 0.21424 0.67448 0.0
C47 C 0.82139 0.26512 0.66523 0.0
C48 C 0.82559 0.31559 0.61307 0.0
C49 C 0.83988 0.3135 0.56223 0.0
C50 C 0.90251 0.37486 0.45403 0.0
C51 C 0.90674 0.26143 0.22315 0.0
C52 C 0.95419 0.2735 0.41487 0.0
C53 C 0.96741 0.26501 0.33861 0.0
C54 C 0.97186 0.31406 0.28176 0.0
C55 C 0.98655 0.31171 0.23618 0.0
C56 C 0.997 0.26033 0.24685 0.0
C57 C 0.99215 0.20951 0.29403 0.0
C58 C 0.97746 0.21174 0.33946 0.0
C59 C 0.91497 0.15283 0.47089 0.0
O60 O 0.89768 0.25158 0.63132 0.0
O61 O 0.92241 0.27663 0.62769 0.0
O62 O 0.86754 0.29967 0.44037 0.0
O63 O 0.87456 0.21202 0.5083 0.0
O64 O 0.89042 0.36301 0.4024 0.0
O65 O 0.90806 0.32943 0.50572 0.0
O66 O 0.91947 0.27153 0.27262 0.0
O67 O 0.89449 0.25004 0.27701 0.0
O68 O 0.94982 0.22666 0.46189 0.0
O69 O 0.94271 0.31399 0.39281 0.0
O70 O 0.92735 0.16634 0.51623 0.0
O71 O 0.90933 0.19439 0.40892 0.0
H72 H 0.85388 0.17077 0.62579 0.0
H73 H 0.8289 0.17497 0.71509 0.0
H74 H 0.81749 0.35535 0.6059 0.0
H75 H 0.84245 0.35183 0.51631 0.0
H76 H 0.96443 0.35574 0.27956 0.0
H77 H 0.99009 0.35137 0.19966 0.0
H78 H 1.00007 0.16933 0.30265 0.0
H79 H 0.97446 0.17302 0.38224 0.0
Ho80 Ho 0.14404 0.76504 0.60495 0.0
Ho81 Ho 0.17817 0.75657 0.59982 0.0
C82 C 0.16303 0.76247 0.83139 0.0
C83 C 0.11557 0.75035 0.6396 0.0
C84 C 0.10233 0.75893 0.71568 0.0
C85 C 0.09785 0.70989 0.77236 0.0
C86 C 0.08314 0.71232 0.8177 0.0
C87 C 0.0727 0.76375 0.80695 0.0
C88 C 0.07759 0.81455 0.75995 0.0
C89 C 0.0923 0.81225 0.71476 0.0
C90 C 0.15477 0.87102 0.58362 0.0
C91 C 0.15947 0.76108 0.37316 0.0
C92 C 0.20667 0.77079 0.56844 0.0
C93 C 0.21963 0.76232 0.49105 0.0
C94 C 0.22351 0.811 0.43053 0.0
C95 C 0.23778 0.80855 0.37956 0.0
C96 C 0.24834 0.75751 0.38874 0.0
C97 C 0.24409 0.70715 0.44096 0.0
C98 C 0.22981 0.70948 0.49201 0.0
C99 C 0.16714 0.649 0.60108 0.0
O100 O 0.15029 0.75241 0.78192 0.0
O101 O 0.17528 0.77381 0.77755 0.0
O102 O 0.11994 0.79713 0.59235 0.0
O103 O 0.12706 0.70994 0.66198 0.0
O104 O 0.14236 0.85754 0.53857 0.0
O105 O 0.16047 0.82943 0.64533 0.0
O106 O 0.17211 0.77201 0.42325 0.0
O107 O 0.14737 0.74715 0.42684 0.0
O108 O 0.20222 0.7238 0.61437 0.0
O109 O 0.19526 0.81147 0.54632 0.0
O110 O 0.17923 0.66075 0.65284 0.0
O111 O 0.16171 0.69442 0.54895 0.0
H112 H 0.10526 0.66817 0.7746 0.0
H113 H 0.07957 0.67267 0.85409 0.0
H114 H 0.0697 0.85478 0.75128 0.0
H115 H 0.09533 0.85096 0.67211 0.0
H116 H 0.21595 0.85238 0.42858 0.0
H117 H 0.24092 0.84775 0.33892 0.0
H118 H 0.25215 0.66727 0.44808 0.0
H119 H 0.22721 0.67121 0.538 0.0
Ho120 Ho 0.92572 0.7586 0.60486 0.0
Ho121 Ho 0.89159 0.76736 0.59972 0.0
C122 C 0.90673 0.76161 0.83131 0.0
C123 C 0.95421 0.77295 0.63941 0.0
C124 C 0.96744 0.76437 0.7156 0.0
C125 C 0.97193 0.81341 0.77223 0.0
C126 C 0.98664 0.81095 0.81762 0.0
C127 C 0.99706 0.75948 0.80698 0.0
C128 C 0.99216 0.70869 0.76005 0.0
C129 C 0.97746 0.71102 0.7148 0.0
C130 C 0.91492 0.65274 0.58378 0.0
C131 C 0.91028 0.76259 0.37306 0.0
C132 C 0.86308 0.75318 0.56872 0.0
C133 C 0.85011 0.76119 0.49139 0.0
C134 C 0.8463 0.71229 0.43119 0.0
C135 C 0.83201 0.7143 0.38052 0.0
C136 C 0.82138 0.76512 0.38968 0.0
C137 C 0.82555 0.8157 0.44154 0.0
C138 C 0.83984 0.8138 0.4923 0.0
C139 C 0.90267 0.87483 0.60063 0.0
O140 O 0.91949 0.77143 0.78179 0.0
O141 O 0.89446 0.75042 0.77754 0.0
O142 O 0.9498 0.72614 0.59255 0.0
O143 O 0.94275 0.81357 0.6614 0.0
O144 O 0.92732 0.66609 0.53859 0.0
O145 O 0.90925 0.69441 0.64543 0.0
O146 O 0.89763 0.75179 0.42316 0.0
O147 O 0.9224 0.77642 0.42672 0.0
O148 O 0.86755 0.80043 0.61354 0.0
O149 O 0.87448 0.7123 0.54736 0.0
O150 O 0.89058 0.86318 0.65252 0.0
O151 O 0.90808 0.82934 0.54865 0.0
H152 H 0.96453 0.85515 0.77438 0.0
H153 H 0.99021 0.8506 0.85396 0.0
H154 H 1.00005 0.66843 0.75147 0.0
H155 H 0.97442 0.67231 0.6722 0.0
H156 H 0.85392 0.67108 0.42929 0.0
H157 H 0.82893 0.67495 0.34011 0.0
H158 H 0.81743 0.8554 0.44864 0.0
H159 H 0.84239 0.85222 0.53808 0.0
Ho160 Ho 0.67882 0.75818 1.02329 0.0
Ho161 Ho 0.64422 0.76406 1.0193 0.0
C162 C 0.65995 0.76006 0.25022 0.0
C163 C 0.70717 0.77339 0.05709 0.0
C164 C 0.7198 0.76428 0.1373 0.0
C165 C 0.72363 0.81264 0.19888 0.0
C166 C 0.73775 0.80942 0.25238 0.0
C167 C 0.74818 0.75792 0.24473 0.0
C168 C 0.74389 0.70776 0.19211 0.0
C169 C 0.72978 0.71084 0.13859 0.0
C170 C 0.66813 0.65214 1.01175 0.0
C171 C 0.66327 0.76209 0.79237 0.0
C172 C 0.61576 0.74888 0.98803 0.0
C173 C 0.60236 0.7579 0.91375 0.0
C174 C 0.59775 0.70908 0.85723 0.0
C175 C 0.583 0.71186 0.81286 0.0
C176 C 0.57265 0.76344 0.82446 0.0
C177 C 0.57762 0.814 0.87175 0.0
C178 C 0.59238 0.81134 0.91603 0.0
C179 C 0.65503 0.86993 0.03195 0.0
O180 O 0.67252 0.7719 0.2001 0.0
O181 O 0.64785 0.746 0.19692 0.0
O182 O 0.70289 0.72644 1.00983 0.0
O183 O 0.69567 0.81415 0.07736 0.0
O184 O 0.68046 0.66424 0.96384 0.0
O185 O 0.66251 0.6951 0.06923 0.0
O186 O 0.65062 0.75077 0.84232 0.0
O187 O 0.6754 0.77567 0.8457 0.0
O188 O 0.62016 0.79543 0.03587 0.0
O189 O 0.62723 0.70891 0.96307 0.0
O190 O 0.64269 0.85791 0.07976 0.0
O191 O 0.66052 0.82712 0.97372 0.0
H192 H 0.71622 0.85435 0.19958 0.0
H193 H 0.74091 0.84844 0.29351 0.0
H194 H 0.75184 0.6675 0.18627 0.0
H195 H 0.72719 0.67267 0.09229 0.0
H196 H 0.60512 0.66728 0.85427 0.0
H197 H 0.57934 0.67239 0.77642 0.0
H198 H 0.56976 0.85428 0.88119 0.0
H199 H 0.59551 0.84985 0.95882 0.0
Ho200 Ho 0.39098 0.76541 1.02357 0.0
Ho201 Ho 0.42553 0.76011 1.01962 0.0
C202 C 0.40983 0.7638 0.2505 0.0
C203 C 0.36264 0.7499 0.05712 0.0
C204 C 0.34998 0.75876 0.13712 0.0
C205 C 0.34617 0.71027 0.19849 0.0
C206 C 0.33203 0.71319 0.2516 0.0
C207 C 0.32155 0.76453 0.24376 0.0
C208 C 0.3258 0.81483 0.19137 0.0
C209 C 0.33994 0.81204 0.13825 0.0
C210 C 0.4015 0.87178 1.01228 0.0
C211 C 0.40651 0.76187 0.79266 0.0
C212 C 0.45399 0.77529 0.98827 0.0
C213 C 0.46739 0.76597 0.91398 0.0
C214 C 0.47204 0.81464 0.85725 0.0
C215 C 0.48679 0.8116 0.81283 0.0
C216 C 0.4971 0.75991 0.82456 0.0
C217 C 0.49208 0.70949 0.87203 0.0
C218 C 0.47732 0.7124 0.91638 0.0
C219 C 0.41484 0.654 0.03205 0.0
O220 O 0.39729 0.7516 0.20035 0.0
O221 O 0.42189 0.77824 0.19718 0.0
O222 O 0.36689 0.79696 1.01014 0.0
O223 O 0.37415 0.70922 0.07737 0.0
O224 O 0.38923 0.85933 0.96405 0.0
O225 O 0.40718 0.82889 0.06972 0.0
O226 O 0.41913 0.7735 0.84266 0.0
O227 O 0.39441 0.74797 0.84597 0.0
O228 O 0.44959 0.72891 0.03668 0.0
O229 O 0.44251 0.81516 0.9629 0.0
O230 O 0.42715 0.66625 0.08013 0.0
O231 O 0.40932 0.69675 0.97382 0.0
H232 H 0.35364 0.66868 0.19932 0.0
H233 H 0.32891 0.67408 0.29258 0.0
H234 H 0.31781 0.85496 0.18541 0.0
H235 H 0.3425 0.8503 0.0921 0.0
H236 H 0.46471 0.85653 0.85418 0.0
H237 H 0.49049 0.85097 0.77624 0.0
H238 H 0.4999 0.66912 0.88157 0.0
H239 H 0.47415 0.67399 0.9593 0.0
Ho240 Ho 0.64408 0.26329 0.03384 0.0
Ho241 Ho 0.67857 0.25934 0.02991 0.0
C242 C 0.66307 0.26308 0.26073 0.0
C243 C 0.6157 0.24705 0.06631 0.0
C244 C 0.60234 0.25672 0.14094 0.0
C245 C 0.59768 0.20826 0.19828 0.0
C246 C 0.58295 0.21157 0.24323 0.0
C247 C 0.57267 0.26332 0.23143 0.0
C248 C 0.57771 0.31358 0.18344 0.0
C249 C 0.59244 0.3104 0.13857 0.0
C250 C 0.65434 0.37005 1.0203 0.0
C251 C 0.65975 0.25973 0.80297 0.0
C252 C 0.7069 0.27508 0.99621 0.0
C253 C 0.71964 0.26558 0.91683 0.0
C254 C 0.72358 0.31373 0.85516 0.0
C255 C 0.73776 0.31024 0.80241 0.0
C256 C 0.74815 0.25866 0.81091 0.0
C257 C 0.74377 0.20871 0.86375 0.0
C258 C 0.72959 0.21207 0.91649 0.0
C259 C 0.66825 0.15248 0.04245 0.0
O260 O 0.65053 0.25054 0.21084 0.0
O261 O 0.67509 0.27762 0.20721 0.0
O262 O 0.61995 0.29312 1.01599 0.0
O263 O 0.62728 0.20789 0.09267 0.0
O264 O 0.64209 0.35697 0.97262 0.0
O265 O 0.66008 0.32773 0.07878 0.0
O266 O 0.67222 0.2727 0.85309 0.0
O267 O 0.64777 0.24469 0.85642 0.0
O268 O 0.70268 0.22842 0.04474 0.0
O269 O 0.69535 0.31533 0.97434 0.0
O270 O 0.68044 0.16559 0.09098 0.0
O271 O 0.66258 0.19502 0.98421 0.0
H272 H 0.60499 0.16631 0.20143 0.0
H273 H 0.57925 0.17232 0.28026 0.0
H274 H 0.56991 0.35402 0.17388 0.0
H275 H 0.59562 0.34869 0.0953 0.0
H276 H 0.71619 0.3555 0.85377 0.0
H277 H 0.74099 0.34909 0.7611 0.0
H278 H 0.75168 0.16838 0.87025 0.0
H279 H 0.72692 0.17404 0.96289 0.0
Ho280 Ho 0.42556 0.2603 0.03538 0.0
Ho281 Ho 0.391 0.26524 0.03115 0.0
C282 C 0.40651 0.26195 0.26215 0.0
C283 C 0.454 0.27577 0.06721 0.0
C284 C 0.46739 0.26649 0.14166 0.0
C285 C 0.472 0.31514 0.19868 0.0
C286 C 0.48675 0.31218 0.24334 0.0
C287 C 0.49709 0.26059 0.23156 0.0
C288 C 0.49211 0.21017 0.18378 0.0
C289 C 0.47736 0.21301 0.13919 0.0
C290 C 0.41502 0.154 1.02301 0.0
C291 C 0.40988 0.26402 0.80434 0.0
C292 C 0.36267 0.24955 0.99738 0.0
C293 C 0.34998 0.2584 0.91746 0.0
C294 C 0.34619 0.20993 0.85601 0.0
C295 C 0.33204 0.21284 0.80288 0.0
C296 C 0.32155 0.26414 0.81077 0.0
C297 C 0.32579 0.31441 0.86332 0.0
C298 C 0.33993 0.31164 0.91645 0.0
C299 C 0.40152 0.37168 0.04284 0.0
O300 O 0.41911 0.27375 0.21221 0.0
O301 O 0.39443 0.24781 0.20879 0.0
O302 O 0.44965 0.22938 1.01854 0.0
O303 O 0.44249 0.3155 0.09253 0.0
O304 O 0.42732 0.16643 0.97522 0.0
O305 O 0.40937 0.19669 0.08093 0.0
O306 O 0.39735 0.25165 0.85437 0.0
O307 O 0.42193 0.27851 0.85779 0.0
O308 O 0.36689 0.2966 0.04455 0.0
O309 O 0.3742 0.20899 0.97697 0.0
O310 O 0.38925 0.35916 0.09104 0.0
O311 O 0.40715 0.32883 0.98517 0.0
H312 H 0.46465 0.35697 0.20184 0.0
H313 H 0.49041 0.35154 0.28018 0.0
H314 H 0.49995 0.16986 0.1742 0.0
H315 H 0.47423 0.17461 0.09607 0.0
H316 H 0.35366 0.16837 0.8551 0.0
H317 H 0.32893 0.17374 0.76179 0.0
H318 H 0.31779 0.35453 0.86933 0.0
H319 H 0.34248 0.34989 0.96268 0.0
C320 C 0.2772 0.25998 0.72349 0.0
C321 C 0.26403 0.25895 0.69693 0.0
C322 C 0.29274 0.2618 0.75039 0.0
C323 C 0.30588 0.26267 0.77778 0.0
C324 C 0.777 0.26012 0.75091 0.0
C325 C 0.76385 0.25953 0.7782 0.0
C326 C 0.79255 0.26193 0.724 0.0
C327 C 0.8057 0.26317 0.69735 0.0
C328 C 0.29273 0.76217 0.3036 0.0
C329 C 0.30588 0.76304 0.27645 0.0
C330 C 0.27719 0.76032 0.33024 0.0
C331 C 0.26403 0.75925 0.35678 0.0
C332 C 0.77699 0.75984 0.30509 0.0
C333 C 0.76385 0.75912 0.27767 0.0
C334 C 0.79253 0.76169 0.33169 0.0
C335 C 0.8057 0.76297 0.35795 0.0
C336 C 0.16229 0.97924 0.54857 0.0
C337 C 0.15999 0.92888 0.57079 0.0
C338 C 0.16382 0.03866 0.51614 0.0
C339 C 0.16519 0.0892 0.48859 0.0
C340 C 0.90576 0.48526 0.51614 0.0
C341 C 0.90438 0.43475 0.48846 0.0
C342 C 0.90731 0.54465 0.5487 0.0
C343 C 0.90965 0.59497 0.57097 0.0
C344 C 0.90594 0.98514 0.53812 0.0
C345 C 0.90457 0.93465 0.56591 0.0
C346 C 0.90746 0.04455 0.50557 0.0
C347 C 0.90975 0.09494 0.48342 0.0
C348 C 0.16384 0.53864 0.53909 0.0
C349 C 0.16523 0.58914 0.5667 0.0
C350 C 0.16228 0.47927 0.50657 0.0
C351 C 0.15995 0.42894 0.48428 0.0
C352 C 0.66219 0.54155 0.02774 0.0
C353 C 0.6644 0.59281 1.0233 0.0
C354 C 0.66023 0.4809 0.02974 0.0
C355 C 0.65806 0.42955 0.02845 0.0
C356 C 0.40701 0.98278 0.03036 0.0
C357 C 0.40499 0.93136 1.02495 0.0
C358 C 0.40888 0.0435 0.03297 0.0
C359 C 0.41111 0.09478 0.0317 0.0
C360 C 0.4069 0.48278 1.02417 0.0
C361 C 0.40494 0.43131 0.02979 0.0
C362 C 0.4087 0.54356 1.02148 0.0
C363 C 0.41092 0.59484 1.02289 0.0
C364 C 0.66308 0.04106 1.02445 0.0
C365 C 0.66497 0.09263 0.02987 0.0
C366 C 0.66129 0.98026 1.02173 0.0
C367 C 0.65903 0.929 1.02293 0.0
C368 C 0.1621 0.26251 1.00949 0.0
C369 C 0.16304 0.26311 0.1071 0.0
C370 C 0.16041 0.26155 0.8956 0.0
C371 C 0.15933 0.26087 0.79811 0.0
C372 C 0.90753 0.26161 1.00909 0.0
C373 C 0.9066 0.26104 0.1067 0.0
C374 C 0.90922 0.26248 0.8952 0.0
C375 C 0.9103 0.2631 0.79771 0.0
C376 C 0.16058 0.76109 0.15934 0.0
C377 C 0.1595 0.76052 0.25684 0.0
C378 C 0.16226 0.76202 0.04545 0.0
C379 C 0.16319 0.76271 0.94784 0.0
C380 C 0.9075 0.76199 0.04536 0.0
C381 C 0.90659 0.76135 0.94775 0.0
C382 C 0.90917 0.76278 0.15926 0.0
C383 C 0.91024 0.76325 0.25675 0.0
C384 C 0.66093 0.7604 0.46427 0.0
C385 C 0.65996 0.7597 0.36667 0.0
C386 C 0.66247 0.7615 0.57831 0.0
C387 C 0.66334 0.76228 0.67594 0.0
C388 C 0.40733 0.76237 0.57859 0.0
C389 C 0.40645 0.76162 0.67623 0.0
C390 C 0.40886 0.76345 0.46456 0.0
C391 C 0.40982 0.76417 0.36696 0.0
C392 C 0.66229 0.26207 0.47484 0.0
C393 C 0.66317 0.26311 0.3772 0.0
C394 C 0.66073 0.2605 0.58887 0.0
C395 C 0.65975 0.25954 0.68648 0.0
C396 C 0.40733 0.26276 0.47623 0.0
C397 C 0.40643 0.26185 0.3786 0.0
C398 C 0.40889 0.2639 0.59026 0.0
C399 C 0.40988 0.26453 0.68787 0.0
C400 C 0.04289 0.26281 0.209 0.0
C401 C 0.05648 0.26261 0.22562 0.0
C402 C 1.02674 0.26235 0.20899 0.0
C403 C 1.01315 0.26246 0.22559 0.0
C404 C 1.02681 0.76136 0.84451 0.0
C405 C 1.01322 0.76149 0.82803 0.0
C406 C 0.04296 0.76184 0.8445 0.0
C407 C 0.05655 0.76171 0.82802 0.0
C408 C 0.54293 0.76181 0.78729 0.0
C409 C 0.55651 0.76171 0.80369 0.0
C410 C 0.52682 0.76122 0.78733 0.0
C411 C 0.51324 0.76142 0.80379 0.0
C412 C 0.52681 0.26195 0.26916 0.0
C413 C 0.51323 0.26219 0.25258 0.0
C414 C 0.54294 0.26237 0.26914 0.0
C415 C 0.55652 0.262 0.25248 0.0
loop_
_geom_bond_atom_site_label_1
_geom_bond_atom_site_label_2
_geom_bond_distance
_geom_bond_site_symmetry_2
_ccdc_geom_bond_type
Ho0 C3 2.811 . S
Ho0 O20 2.322 . S
Ho0 O22 2.378 . S
Ho0 O23 2.524 . S
Ho0 O24 2.381 . S
Ho0 O25 2.669 . S
Ho0 O27 2.346 . S
Ho0 O31 2.305 . S
Ho1 C12 2.811 . S
Ho1 O21 2.346 . S
Ho1 O25 2.305 . S
Ho1 O26 2.322 . S
Ho1 O28 2.378 . S
Ho1 O29 2.524 . S
Ho1 O30 2.381 . S
Ho1 O31 2.669 . S
C2 O20 1.259 . S
C2 O21 1.268 . S
C3 Ho0 2.811 . S
C3 C4 1.488 . S
C3 O22 1.215 . S
C3 O23 1.289 . S
C4 C3 1.488 . S
C4 C5 1.348 . S
C4 C9 1.413 . S
C5 C4 1.348 . S
C5 C6 1.442 . S
C5 H32 0.930 . S
C6 C5 1.442 . S
C6 C7 1.381 . S
C6 H33 0.931 . S
C7 C6 1.381 . S
C7 C8 1.321 . S
C8 C7 1.321 . S
C8 C9 1.403 . S
C8 H34 0.934 . S
C9 C4 1.413 . S
C9 C8 1.403 . S
C9 H35 0.930 . S
C10 O24 1.275 . S
C10 O25 1.256 . S
C11 O26 1.259 . S
C11 O27 1.268 . S
C12 Ho1 2.811 . S
C12 C13 1.488 . S
C12 O28 1.215 . S
C12 O29 1.289 . S
C13 C12 1.488 . S
C13 C14 1.348 . S
C13 C18 1.413 . S
C14 C13 1.348 . S
C14 C15 1.442 . S
C14 H36 0.930 . S
C15 C14 1.442 . S
C15 C16 1.381 . S
C15 H37 0.931 . S
C16 C15 1.381 . S
C16 C17 1.321 . S
C17 C16 1.321 . S
C17 C18 1.403 . S
C17 H38 0.934 . S
C18 C13 1.413 . S
C18 C17 1.403 . S
C18 H39 0.930 . S
C19 O30 1.275 . S
C19 O31 1.256 . S
O20 Ho0 2.322 . S
O20 C2 1.259 . S
O21 Ho1 2.346 . S
O21 C2 1.268 . S
O22 Ho0 2.378 . S
O22 C3 1.215 . S
O23 Ho0 2.524 . S
O23 C3 1.289 . S
O24 Ho0 2.381 . S
O24 C10 1.275 . S
O25 Ho0 2.669 . S
O25 Ho1 2.305 . S
O25 C10 1.256 . S
O26 Ho1 2.322 . S
O26 C11 1.259 . S
O27 Ho0 2.346 . S
O27 C11 1.268 . S
O28 Ho1 2.378 . S
O28 C12 1.215 . S
O29 Ho1 2.524 . S
O29 C12 1.289 . S
O30 Ho1 2.381 . S
O30 C19 1.275 . S
O31 Ho0 2.305 . S
O31 Ho1 2.669 . S
O31 C19 1.256 . S
H32 C5 0.930 . S
H33 C6 0.931 . S
H34 C8 0.934 . S
H35 C9 0.930 . S
H36 C14 0.930 . S
H37 C15 0.931 . S
H38 C17 0.934 . S
H39 C18 0.930 . S
Ho40 C43 2.811 . S
Ho40 O60 2.322 . S
Ho40 O62 2.378 . S
Ho40 O63 2.524 . S
Ho40 O64 2.381 . S
Ho40 O65 2.669 . S
Ho40 O67 2.346 . S
Ho40 O71 2.305 . S
Ho41 C52 2.811 . S
Ho41 O61 2.346 . S
Ho41 O65 2.305 . S
Ho41 O66 2.322 . S
Ho41 O68 2.378 . S
Ho41 O69 2.524 . S
Ho41 O70 2.381 . S
Ho41 O71 2.669 . S
C42 O60 1.259 . S
C42 O61 1.268 . S
C43 Ho40 2.811 . S
C43 C44 1.488 . S
C43 O62 1.215 . S
C43 O63 1.289 . S
C44 C43 1.488 . S
C44 C45 1.348 . S
C44 C49 1.413 . S
C45 C44 1.348 . S
C45 C46 1.442 . S
C45 H72 0.930 . S
C46 C45 1.442 . S
C46 C47 1.381 . S
C46 H73 0.931 . S
C47 C46 1.381 . S
C47 C48 1.321 . S
C48 C47 1.321 . S
C48 C49 1.403 . S
C48 H74 0.934 . S
C49 C44 1.413 . S
C49 C48 1.403 . S
C49 H75 0.930 . S
C50 O64 1.275 . S
C50 O65 1.256 . S
C51 O66 1.259 . S
C51 O67 1.268 . S
C52 Ho41 2.811 . S
C52 C53 1.488 . S
C52 O68 1.215 . S
C52 O69 1.289 . S
C53 C52 1.488 . S
C53 C54 1.348 . S
C53 C58 1.413 . S
C54 C53 1.348 . S
C54 C55 1.442 . S
C54 H76 0.930 . S
C55 C54 1.442 . S
C55 C56 1.381 . S
C55 H77 0.931 . S
C56 C55 1.381 . S
C56 C57 1.321 . S
C57 C56 1.321 . S
C57 C58 1.403 . S
C57 H78 0.934 . S
C58 C53 1.413 . S
C58 C57 1.403 . S
C58 H79 0.930 . S
C59 O70 1.275 . S
C59 O71 1.256 . S
O60 Ho40 2.322 . S
O60 C42 1.259 . S
O61 Ho41 2.346 . S
O61 C42 1.268 . S
O62 Ho40 2.378 . S
O62 C43 1.215 . S
O63 Ho40 2.524 . S
O63 C43 1.289 . S
O64 Ho40 2.381 . S
O64 C50 1.275 . S
O65 Ho40 2.669 . S
O65 Ho41 2.305 . S
O65 C50 1.256 . S
O66 Ho41 2.322 . S
O66 C51 1.259 . S
O67 Ho40 2.346 . S
O67 C51 1.268 . S
O68 Ho41 2.378 . S
O68 C52 1.215 . S
O69 Ho41 2.524 . S
O69 C52 1.289 . S
O70 Ho41 2.381 . S
O70 C59 1.275 . S
O71 Ho40 2.305 . S
O71 Ho41 2.669 . S
O71 C59 1.256 . S
H72 C45 0.930 . S
H73 C46 0.931 . S
H74 C48 0.934 . S
H75 C49 0.930 . S
H76 C54 0.930 . S
H77 C55 0.931 . S
H78 C57 0.934 . S
H79 C58 0.930 . S
Ho80 C83 2.811 . S
Ho80 O100 2.322 . S
Ho80 O102 2.378 . S
Ho80 O103 2.524 . S
Ho80 O104 2.381 . S
Ho80 O105 2.669 . S
Ho80 O107 2.346 . S
Ho80 O111 2.305 . S
Ho81 C92 2.811 . S
Ho81 O101 2.346 . S
Ho81 O105 2.305 . S
Ho81 O106 2.322 . S
Ho81 O108 2.378 . S
Ho81 O109 2.524 . S
Ho81 O110 2.381 . S
Ho81 O111 2.669 . S
C82 O100 1.259 . S
C82 O101 1.268 . S
C83 Ho80 2.811 . S
C83 C84 1.488 . S
C83 O102 1.215 . S
C83 O103 1.289 . S
C84 C83 1.488 . S
C84 C85 1.348 . S
C84 C89 1.413 . S
C85 C84 1.348 . S
C85 C86 1.442 . S
C85 H112 0.930 . S
C86 C85 1.442 . S
C86 C87 1.381 . S
C86 H113 0.931 . S
C87 C86 1.381 . S
C87 C88 1.321 . S
C88 C87 1.321 . S
C88 C89 1.403 . S
C88 H114 0.934 . S
C89 C84 1.413 . S
C89 C88 1.403 . S
C89 H115 0.930 . S
C90 O104 1.275 . S
C90 O105 1.256 . S
C91 O106 1.259 . S
C91 O107 1.268 . S
C92 Ho81 2.811 . S
C92 C93 1.488 . S
C92 O108 1.215 . S
C92 O109 1.289 . S
C93 C92 1.488 . S
C93 C94 1.348 . S
C93 C98 1.413 . S
C94 C93 1.348 . S
C94 C95 1.442 . S
C94 H116 0.930 . S
C95 C94 1.442 . S
C95 C96 1.381 . S
C95 H117 0.931 . S
C96 C95 1.381 . S
C96 C97 1.321 . S
C97 C96 1.321 . S
C97 C98 1.403 . S
C97 H118 0.934 . S
C98 C93 1.413 . S
C98 C97 1.403 . S
C98 H119 0.930 . S
C99 O110 1.275 . S
C99 O111 1.256 . S
O100 Ho80 2.322 . S
O100 C82 1.259 . S
O101 Ho81 2.346 . S
O101 C82 1.268 . S
O102 Ho80 2.378 . S
O102 C83 1.215 . S
O103 Ho80 2.524 . S
O103 C83 1.289 . S
O104 Ho80 2.381 . S
O104 C90 1.275 . S
O105 Ho80 2.669 . S
O105 Ho81 2.305 . S
O105 C90 1.256 . S
O106 Ho81 2.322 . S
O106 C91 1.259 . S
O107 Ho80 2.346 . S
O107 C91 1.268 . S
O108 Ho81 2.378 . S
O108 C92 1.215 . S
O109 Ho81 2.524 . S
O109 C92 1.289 . S
O110 Ho81 2.381 . S
O110 C99 1.275 . S
O111 Ho80 2.305 . S
O111 Ho81 2.669 . S
O111 C99 1.256 . S
H112 C85 0.930 . S
H113 C86 0.931 . S
H114 C88 0.934 . S
H115 C89 0.930 . S
H116 C94 0.930 . S
H117 C95 0.931 . S
H118 C97 0.934 . S
H119 C98 0.930 . S
Ho120 C123 2.811 . S
Ho120 O140 2.322 . S
Ho120 O142 2.378 . S
Ho120 O143 2.524 . S
Ho120 O144 2.381 . S
Ho120 O145 2.669 . S
Ho120 O147 2.346 . S
Ho120 O151 2.305 . S
Ho121 C132 2.811 . S
Ho121 O141 2.346 . S
Ho121 O145 2.305 . S
Ho121 O146 2.322 . S
Ho121 O148 2.378 . S
Ho121 O149 2.524 . S
Ho121 O150 2.381 . S
Ho121 O151 2.669 . S
C122 O140 1.259 . S
C122 O141 1.268 . S
C123 Ho120 2.811 . S
C123 C124 1.488 . S
C123 O142 1.215 . S
C123 O143 1.289 . S
C124 C123 1.488 . S
C124 C125 1.348 . S
C124 C129 1.413 . S
C125 C124 1.348 . S
C125 C126 1.442 . S
C125 H152 0.930 . S
C126 C125 1.442 . S
C126 C127 1.381 . S
C126 H153 0.931 . S
C127 C126 1.381 . S
C127 C128 1.321 . S
C128 C127 1.321 . S
C128 C129 1.403 . S
C128 H154 0.934 . S
C129 C124 1.413 . S
C129 C128 1.403 . S
C129 H155 0.930 . S
C130 O144 1.275 . S
C130 O145 1.256 . S
C131 O146 1.259 . S
C131 O147 1.268 . S
C132 Ho121 2.811 . S
C132 C133 1.488 . S
C132 O148 1.215 . S
C132 O149 1.289 . S
C133 C132 1.488 . S
C133 C134 1.348 . S
C133 C138 1.413 . S
C134 C133 1.348 . S
C134 C135 1.442 . S
C134 H156 0.930 . S
C135 C134 1.442 . S
C135 C136 1.381 . S
C135 H157 0.931 . S
C136 C135 1.381 . S
C136 C137 1.321 . S
C137 C136 1.321 . S
C137 C138 1.403 . S
C137 H158 0.934 . S
C138 C133 1.413 . S
C138 C137 1.403 . S
C138 H159 0.930 . S
C139 O150 1.275 . S
C139 O151 1.256 . S
O140 Ho120 2.322 . S
O140 C122 1.259 . S
O141 Ho121 2.346 . S
O141 C122 1.268 . S
O142 Ho120 2.378 . S
O142 C123 1.215 . S
O143 Ho120 2.524 . S
O143 C123 1.289 . S
O144 Ho120 2.381 . S
O144 C130 1.275 . S
O145 Ho120 2.669 . S
O145 Ho121 2.305 . S
O145 C130 1.256 . S
O146 Ho121 2.322 . S
O146 C131 1.259 . S
O147 Ho120 2.346 . S
O147 C131 1.268 . S
O148 Ho121 2.378 . S
O148 C132 1.215 . S
O149 Ho121 2.524 . S
O149 C132 1.289 . S
O150 Ho121 2.381 . S
O150 C139 1.275 . S
O151 Ho120 2.305 . S
O151 Ho121 2.669 . S
O151 C139 1.256 . S
H152 C125 0.930 . S
H153 C126 0.931 . S
H154 C128 0.934 . S
H155 C129 0.930 . S
H156 C134 0.930 . S
H157 C135 0.931 . S
H158 C137 0.934 . S
H159 C138 0.930 . S
Ho160 C163 2.811 1_556 S
Ho160 O180 2.322 1_556 S
Ho160 O182 2.378 1_556 S
Ho160 O183 2.524 1_556 S
Ho160 O184 2.381 . S
Ho160 O185 2.669 . S
Ho160 O187 2.346 . S
Ho160 O191 2.305 1_556 S
Ho161 C172 2.811 1_554 S
Ho161 O181 2.346 . S
Ho161 O185 2.305 1_554 S
Ho161 O186 2.322 1_554 S
Ho161 O188 2.378 1_554 S
Ho161 O189 2.524 1_554 S
Ho161 O190 2.381 . S
Ho161 O191 2.669 . S
C162 O180 1.259 . S
C162 O181 1.268 . S
C163 Ho160 2.811 1_554 S
C163 C164 1.488 . S
C163 O182 1.215 . S
C163 O183 1.289 . S
C164 C163 1.488 . S
C164 C165 1.348 . S
C164 C169 1.413 . S
C165 C164 1.348 . S
C165 C166 1.442 . S
C165 H192 0.930 . S
C166 C165 1.442 . S
C166 C167 1.381 . S
C166 H193 0.931 . S
C167 C166 1.381 . S
C167 C168 1.321 . S
C168 C167 1.321 . S
C168 C169 1.403 . S
C168 H194 0.934 . S
C169 C164 1.413 . S
C169 C168 1.403 . S
C169 H195 0.930 . S
C170 O184 1.275 . S
C170 O185 1.256 . S
C171 O186 1.259 . S
C171 O187 1.268 . S
C172 Ho161 2.811 1_556 S
C172 C173 1.488 . S
C172 O188 1.215 . S
C172 O189 1.289 . S
C173 C172 1.488 . S
C173 C174 1.348 . S
C173 C178 1.413 . S
C174 C173 1.348 . S
C174 C175 1.442 . S
C174 H196 0.930 . S
C175 C174 1.442 . S
C175 C176 1.381 . S
C175 H197 0.931 . S
C176 C175 1.381 . S
C176 C177 1.321 . S
C177 C176 1.321 . S
C177 C178 1.403 . S
C177 H198 0.934 . S
C178 C173 1.413 . S
C178 C177 1.403 . S
C178 H199 0.930 . S
C179 O190 1.275 . S
C179 O191 1.256 . S
O180 Ho160 2.322 1_554 S
O180 C162 1.259 . S
O181 Ho161 2.346 . S
O181 C162 1.268 . S
O182 Ho160 2.378 1_554 S
O182 C163 1.215 . S
O183 Ho160 2.524 1_554 S
O183 C163 1.289 . S
O184 Ho160 2.381 . S
O184 C170 1.275 . S
O185 Ho160 2.669 . S
O185 Ho161 2.305 1_556 S
O185 C170 1.256 . S
O186 Ho161 2.322 1_556 S
O186 C171 1.259 . S
O187 Ho160 2.346 . S
O187 C171 1.268 . S
O188 Ho161 2.378 1_556 S
O188 C172 1.215 . S
O189 Ho161 2.524 1_556 S
O189 C172 1.289 . S
O190 Ho161 2.381 . S
O190 C179 1.275 . S
O191 Ho160 2.305 1_554 S
O191 Ho161 2.669 . S
O191 C179 1.256 . S
H192 C165 0.930 . S
H193 C166 0.931 . S
H194 C168 0.934 . S
H195 C169 0.930 . S
H196 C174 0.930 . S
H197 C175 0.931 . S
H198 C177 0.934 . S
H199 C178 0.930 . S
Ho200 C203 2.811 1_556 S
Ho200 O220 2.322 1_556 S
Ho200 O222 2.378 1_556 S
Ho200 O223 2.524 1_556 S
Ho200 O224 2.381 . S
Ho200 O225 2.669 . S
Ho200 O227 2.346 . S
Ho200 O231 2.305 1_556 S
Ho201 C212 2.811 1_554 S
Ho201 O221 2.346 . S
Ho201 O225 2.305 1_554 S
Ho201 O226 2.322 1_554 S
Ho201 O228 2.378 1_554 S
Ho201 O229 2.524 1_554 S
Ho201 O230 2.381 . S
Ho201 O231 2.669 . S
C202 O220 1.259 . S
C202 O221 1.268 . S
C203 Ho200 2.811 1_554 S
C203 C204 1.488 . S
C203 O222 1.215 . S
C203 O223 1.289 . S
C204 C203 1.488 . S
C204 C205 1.348 . S
C204 C209 1.413 . S
C205 C204 1.348 . S
C205 C206 1.442 . S
C205 H232 0.930 . S
C206 C205 1.442 . S
C206 C207 1.381 . S
C206 H233 0.931 . S
C207 C206 1.381 . S
C207 C208 1.321 . S
C208 C207 1.321 . S
C208 C209 1.403 . S
C208 H234 0.934 . S
C209 C204 1.413 . S
C209 C208 1.403 . S
C209 H235 0.930 . S
C210 O224 1.275 . S
C210 O225 1.256 . S
C211 O226 1.259 . S
C211 O227 1.268 . S
C212 Ho201 2.811 1_556 S
C212 C213 1.488 . S
C212 O228 1.215 . S
C212 O229 1.289 . S
C213 C212 1.488 . S
C213 C214 1.348 . S
C213 C218 1.413 . S
C214 C213 1.348 . S
C214 C215 1.442 . S
C214 H236 0.930 . S
C215 C214 1.442 . S
C215 C216 1.381 . S
C215 H237 0.931 . S
C216 C215 1.381 . S
C216 C217 1.321 . S
C217 C216 1.321 . S
C217 C218 1.403 . S
C217 H238 0.934 . S
C218 C213 1.413 . S
C218 C217 1.403 . S
C218 H239 0.930 . S
C219 O230 1.275 . S
C219 O231 1.256 . S
O220 Ho200 2.322 1_554 S
O220 C202 1.259 . S
O221 Ho201 2.346 . S
O221 C202 1.268 . S
O222 Ho200 2.378 1_554 S
O222 C203 1.215 . S
O223 Ho200 2.524 1_554 S
O223 C203 1.289 . S
O224 Ho200 2.381 . S
O224 C210 1.275 . S
O225 Ho200 2.669 . S
O225 Ho201 2.305 1_556 S
O225 C210 1.256 . S
O226 Ho201 2.322 1_556 S
O226 C211 1.259 . S
O227 Ho200 2.346 . S
O227 C211 1.268 . S
O228 Ho201 2.378 1_556 S
O228 C212 1.215 . S
O229 Ho201 2.524 1_556 S
O229 C212 1.289 . S
O230 Ho201 2.381 . S
O230 C219 1.275 . S
O231 Ho200 2.305 1_554 S
O231 Ho201 2.669 . S
O231 C219 1.256 . S
H232 C205 0.930 . S
H233 C206 0.931 . S
H234 C208 0.934 . S
H235 C209 0.930 . S
H236 C214 0.930 . S
H237 C215 0.931 . S
H238 C217 0.934 . S
H239 C218 0.930 . S
Ho240 C243 2.811 1_556 S
Ho240 O260 2.322 1_556 S
Ho240 O262 2.378 1_556 S
Ho240 O263 2.524 1_556 S
Ho240 O264 2.381 . S
Ho240 O265 2.669 . S
Ho240 O267 2.346 . S
Ho240 O271 2.305 1_556 S
Ho241 C252 2.811 1_554 S
Ho241 O261 2.346 . S
Ho241 O265 2.305 1_554 S
Ho241 O266 2.322 1_554 S
Ho241 O268 2.378 1_554 S
Ho241 O269 2.524 1_554 S
Ho241 O270 2.381 . S
Ho241 O271 2.669 . S
C242 O260 1.259 . S
C242 O261 1.268 . S
C243 Ho240 2.811 1_554 S
C243 C244 1.488 . S
C243 O262 1.215 . S
C243 O263 1.289 . S
C244 C243 1.488 . S
C244 C245 1.348 . S
C244 C249 1.413 . S
C245 C244 1.348 . S
C245 C246 1.442 . S
C245 H272 0.930 . S
C246 C245 1.442 . S
C246 C247 1.381 . S
C246 H273 0.931 . S
C247 C246 1.381 . S
C247 C248 1.321 . S
C248 C247 1.321 . S
C248 C249 1.403 . S
C248 H274 0.934 . S
C249 C244 1.413 . S
C249 C248 1.403 . S
C249 H275 0.930 . S
C250 O264 1.275 . S
C250 O265 1.256 . S
C251 O266 1.259 . S
C251 O267 1.268 . S
C252 Ho241 2.811 1_556 S
C252 C253 1.488 . S
C252 O268 1.215 . S
C252 O269 1.289 . S
C253 C252 1.488 . S
C253 C254 1.348 . S
C253 C258 1.413 . S
C254 C253 1.348 . S
C254 C255 1.442 . S
C254 H276 0.930 . S
C255 C254 1.442 . S
C255 C256 1.381 . S
C255 H277 0.931 . S
C256 C255 1.381 . S
C256 C257 1.321 . S
C257 C256 1.321 . S
C257 C258 1.403 . S
C257 H278 0.934 . S
C258 C253 1.413 . S
C258 C257 1.403 . S
C258 H279 0.930 . S
C259 O270 1.275 . S
C259 O271 1.256 . S
O260 Ho240 2.322 1_554 S
O260 C242 1.259 . S
O261 Ho241 2.346 . S
O261 C242 1.268 . S
O262 Ho240 2.378 1_554 S
O262 C243 1.215 . S
O263 Ho240 2.524 1_554 S
O263 C243 1.289 . S
O264 Ho240 2.381 . S
O264 C250 1.275 . S
O265 Ho240 2.669 . S
O265 Ho241 2.305 1_556 S
O265 C250 1.256 . S
O266 Ho241 2.322 1_556 S
O266 C251 1.259 . S
O267 Ho240 2.346 . S
O267 C251 1.268 . S
O268 Ho241 2.378 1_556 S
O268 C252 1.215 . S
O269 Ho241 2.524 1_556 S
O269 C252 1.289 . S
O270 Ho241 2.381 . S
O270 C259 1.275 . S
O271 Ho240 2.305 1_554 S
O271 Ho241 2.669 . S
O271 C259 1.256 . S
H272 C245 0.930 . S
H273 C246 0.931 . S
H274 C248 0.934 . S
H275 C249 0.930 . S
H276 C254 0.930 . S
H277 C255 0.931 . S
H278 C257 0.934 . S
H279 C258 0.930 . S
Ho280 C283 2.811 1_556 S
Ho280 O300 2.322 1_556 S
Ho280 O302 2.378 1_556 S
Ho280 O303 2.524 1_556 S
Ho280 O304 2.381 . S
Ho280 O305 2.669 . S
Ho280 O307 2.346 . S
Ho280 O311 2.305 1_556 S
Ho281 C292 2.811 1_554 S
Ho281 O301 2.346 . S
Ho281 O305 2.305 1_554 S
Ho281 O306 2.322 1_554 S
Ho281 O308 2.378 1_554 S
Ho281 O309 2.524 1_554 S
Ho281 O310 2.381 . S
Ho281 O311 2.669 . S
C282 O300 1.259 . S
C282 O301 1.268 . S
C283 Ho280 2.811 1_554 S
C283 C284 1.488 . S
C283 O302 1.215 . S
C283 O303 1.289 . S
C284 C283 1.488 . S
C284 C285 1.348 . S
C284 C289 1.413 . S
C285 C284 1.348 . S
C285 C286 1.442 . S
C285 H312 0.930 . S
C286 C285 1.442 . S
C286 C287 1.381 . S
C286 H313 0.931 . S
C287 C286 1.381 . S
C287 C288 1.321 . S
C288 C287 1.321 . S
C288 C289 1.403 . S
C288 H314 0.934 . S
C289 C284 1.413 . S
C289 C288 1.403 . S
C289 H315 0.930 . S
C290 O304 1.275 . S
C290 O305 1.256 . S
C291 O306 1.259 . S
C291 O307 1.268 . S
C292 Ho281 2.811 1_556 S
C292 C293 1.488 . S
C292 O308 1.215 . S
C292 O309 1.289 . S
C293 C292 1.488 . S
C293 C294 1.348 . S
C293 C298 1.413 . S
C294 C293 1.348 . S
C294 C295 1.442 . S
C294 H316 0.930 . S
C295 C294 1.442 . S
C295 C296 1.381 . S
C295 H317 0.931 . S
C296 C295 1.381 . S
C296 C297 1.321 . S
C297 C296 1.321 . S
C297 C298 1.403 . S
C297 H318 0.934 . S
C298 C293 1.413 . S
C298 C297 1.403 . S
C298 H319 0.930 . S
C299 O310 1.275 . S
C299 O311 1.256 . S
O300 Ho280 2.322 1_554 S
O300 C282 1.259 . S
O301 Ho281 2.346 . S
O301 C282 1.268 . S
O302 Ho280 2.378 1_554 S
O302 C283 1.215 . S
O303 Ho280 2.524 1_554 S
O303 C283 1.289 . S
O304 Ho280 2.381 . S
O304 C290 1.275 . S
O305 Ho280 2.669 . S
O305 Ho281 2.305 1_556 S
O305 C290 1.256 . S
O306 Ho281 2.322 1_556 S
O306 C291 1.259 . S
O307 Ho280 2.346 . S
O307 C291 1.268 . S
O308 Ho281 2.378 1_556 S
O308 C292 1.215 . S
O309 Ho281 2.524 1_556 S
O309 C292 1.289 . S
O310 Ho281 2.381 . S
O310 C299 1.275 . S
O311 Ho280 2.305 1_554 S
O311 Ho281 2.669 . S
O311 C299 1.256 . S
H312 C285 0.930 . S
H313 C286 0.931 . S
H314 C288 0.934 . S
H315 C289 0.930 . S
H316 C294 0.930 . S
H317 C295 0.931 . S
H318 C297 0.934 . S
H319 C298 0.930 . S
C320 C321 1.170 . S
C320 C322 1.380 . S
C321 C320 1.170 . S
C322 C320 1.380 . S
C322 C323 1.170 . S
C323 C322 1.170 . S
C324 C325 1.170 . S
C324 C326 1.380 . S
C325 C324 1.170 . S
C326 C324 1.380 . S
C326 C327 1.170 . S
C327 C326 1.170 . S
C328 C329 1.170 . S
C328 C330 1.380 . S
C329 C328 1.170 . S
C330 C328 1.380 . S
C330 C331 1.170 . S
C331 C330 1.170 . S
C332 C333 1.170 . S
C332 C334 1.380 . S
C333 C332 1.170 . S
C334 C332 1.380 . S
C334 C335 1.170 . S
C335 C334 1.170 . S
C336 C337 1.170 . S
C336 C338 1.380 1_565 S
C337 C336 1.170 . S
C338 C336 1.380 1_545 S
C338 C339 1.170 . S
C339 C338 1.170 . S
C340 C341 1.170 . S
C340 C342 1.380 . S
C341 C340 1.170 . S
C342 C340 1.380 . S
C342 C343 1.170 . S
C343 C342 1.170 . S
C344 C345 1.170 . S
C344 C346 1.380 1_565 S
C345 C344 1.170 . S
C346 C344 1.380 1_545 S
C346 C347 1.170 . S
C347 C346 1.170 . S
C348 C349 1.170 . S
C348 C350 1.380 . S
C349 C348 1.170 . S
C350 C348 1.380 . S
C350 C351 1.170 . S
C351 C350 1.170 . S
C352 C353 1.170 . S
C352 C354 1.380 . S
C353 C352 1.170 . S
C354 C352 1.380 . S
C354 C355 1.170 . S
C355 C354 1.170 . S
C356 C357 1.170 1_554 S
C356 C358 1.380 1_565 S
C357 C356 1.170 1_556 S
C358 C356 1.380 1_545 S
C358 C359 1.170 1_554 S
C359 C358 1.170 1_556 S
C360 C361 1.170 1_556 S
C360 C362 1.380 . S
C361 C360 1.170 1_554 S
C362 C360 1.380 . S
C362 C363 1.170 1_556 S
C363 C362 1.170 1_554 S
C364 C365 1.170 1_556 S
C364 C366 1.380 1_545 S
C365 C364 1.170 1_554 S
C366 C364 1.380 1_565 S
C366 C367 1.170 1_556 S
C367 C366 1.170 1_554 S
C368 C369 1.170 1_556 S
C368 C370 1.380 . S
C369 C368 1.170 1_554 S
C370 C368 1.380 . S
C370 C371 1.170 . S
C371 C370 1.170 . S
C372 C373 1.170 1_556 S
C372 C374 1.380 . S
C373 C372 1.170 1_554 S
C374 C372 1.380 . S
C374 C375 1.170 . S
C375 C374 1.170 . S
C376 C377 1.170 . S
C376 C378 1.380 . S
C377 C376 1.170 . S
C378 C376 1.380 . S
C378 C379 1.170 1_554 S
C379 C378 1.170 1_556 S
C380 C381 1.170 1_554 S
C380 C382 1.380 . S
C381 C380 1.170 1_556 S
C382 C380 1.380 . S
C382 C383 1.170 . S
C383 C382 1.170 . S
C384 C385 1.170 . S
C384 C386 1.380 . S
C385 C384 1.170 . S
C386 C384 1.380 . S
C386 C387 1.170 . S
C387 C386 1.170 . S
C388 C389 1.170 . S
C388 C390 1.380 . S
C389 C388 1.170 . S
C390 C388 1.380 . S
C390 C391 1.170 . S
C391 C390 1.170 . S
C392 C393 1.170 . S
C392 C394 1.380 . S
C393 C392 1.170 . S
C394 C392 1.380 . S
C394 C395 1.170 . S
C395 C394 1.170 . S
C396 C397 1.170 . S
C396 C398 1.380 . S
C397 C396 1.170 . S
C398 C396 1.380 . S
C398 C399 1.170 . S
C399 C398 1.170 . S
C400 C401 1.170 . S
C400 C402 1.380 1_455 S
C401 C400 1.170 . S
C402 C400 1.380 1_655 S
C402 C403 1.170 . S
C403 C402 1.170 . S
C404 C405 1.170 . S
C404 C406 1.380 1_655 S
C405 C404 1.170 . S
C406 C404 1.380 1_455 S
C406 C407 1.170 . S
C407 C406 1.170 . S
C408 C409 1.170 . S
C408 C410 1.380 . S
C409 C408 1.170 . S
C410 C408 1.380 . S
C410 C411 1.170 . S
C411 C410 1.170 . S
C412 C413 1.170 . S
C412 C414 1.380 . S
C413 C412 1.170 . S
C414 C412 1.380 . S
C414 C415 1.170 . S
C415 C414 1.170 . S
C321 C7 1.700 . S
C323 C296 1.684 . S
C325 C256 1.688 . S
C327 C47 1.706 . S
C329 C207 1.686 . S
C331 C96 1.707 . S
C333 C167 1.688 . S
C335 C136 1.694 . S
C337 C90 1.611 . S
C339 C10 1.637 . S
C341 C50 1.611 . S
C343 C130 1.628 . S
C345 C139 1.620 . S
C347 C59 1.606 . S
C349 C99 1.640 . S
C351 C19 1.588 . S
C353 C170 1.454 . S
C355 C250 1.429 . S
C357 C210 1.458 . S
C359 C290 1.448 . S
C361 C299 1.436 . S
C363 C219 1.452 . S
C365 C259 1.441 . S
C367 C179 1.446 . S
C369 C11 2.086 . S
C371 C2 2.057 . S
C373 C51 2.088 . S
C375 C42 2.057 . S
C377 C91 2.072 . S
C379 C82 2.064 . S
C381 C122 2.083 . S
C383 C131 2.057 . S
C385 C162 2.084 . S
C387 C171 2.056 . S
C389 C211 2.069 . S
C391 C202 2.066 . S
C393 C242 2.060 . S
C395 C251 2.088 . S
C397 C282 2.088 . S
C399 C291 2.062 . S
C401 C16 2.258 . S
C403 C56 2.254 . S
C405 C127 2.253 . S
C407 C87 2.255 . S
C409 C176 2.255 . S
C411 C216 2.256 . S
C413 C287 2.276 . S
C415 C247 2.274 . S
