# Generated by pormake.
# Topology ukd, (4)-cn, num edge types: 1
# Building blocks:
#     Node 0, Type 0, BuildingBlock: QUQFOY_clean_sbu_3, # of connection points: 4
#     Node 1, Type 0, BuildingBlock: QUQFOY_clean_sbu_3, # of connection points: 4
#     Node 2, Type 0, BuildingBlock: QUQFOY_clean_sbu_3, # of connection points: 4
#     Node 3, Type 0, BuildingBlock: QUQFOY_clean_sbu_3, # of connection points: 4
#     Node 4, Type 0, BuildingBlock: QUQFOY_clean_sbu_3, # of connection points: 4
#     Node 5, Type 0, BuildingBlock: QUQFOY_clean_sbu_3, # of connection points: 4
#     Node 6, Type 0, BuildingBlock: QUQFOY_clean_sbu_3, # of connection points: 4
#     Node 7, Type 0, BuildingBlock: QUQFOY_clean_sbu_3, # of connection points: 4
#     Node 8, Type 0, BuildingBlock: QUQFOY_clean_sbu_3, # of connection points: 4
#     Node 9, Type 0, BuildingBlock: QUQFOY_clean_sbu_3, # of connection points: 4
#     Node 10, Type 0, BuildingBlock: QUQFOY_clean_sbu_3, # of connection points: 4
#     Node 11, Type 0, BuildingBlock: QUQFOY_clean_sbu_3, # of connection points: 4
#     Node 12, Type 0, BuildingBlock: QUQFOY_clean_sbu_3, # of connection points: 4
#     Node 13, Type 0, BuildingBlock: QUQFOY_clean_sbu_3, # of connection points: 4
#     Node 14, Type 0, BuildingBlock: QUQFOY_clean_sbu_3, # of connection points: 4
#     Node 15, Type 0, BuildingBlock: QUQFOY_clean_sbu_3, # of connection points: 4
#     Node 16, Type 0, BuildingBlock: QUQFOY_clean_sbu_3, # of connection points: 4
#     Node 17, Type 0, BuildingBlock: QUQFOY_clean_sbu_3, # of connection points: 4
#     Node 18, Type 0, BuildingBlock: QUQFOY_clean_sbu_3, # of connection points: 4
#     Node 19, Type 0, BuildingBlock: QUQFOY_clean_sbu_3, # of connection points: 4
#     Node 20, Type 0, BuildingBlock: QUQFOY_clean_sbu_3, # of connection points: 4
#     Node 21, Type 0, BuildingBlock: QUQFOY_clean_sbu_3, # of connection points: 4
#     Node 22, Type 0, BuildingBlock: QUQFOY_clean_sbu_3, # of connection points: 4
#     Node 23, Type 0, BuildingBlock: QUQFOY_clean_sbu_3, # of connection points: 4
#     Node 24, Type 0, BuildingBlock: QUQFOY_clean_sbu_3, # of connection points: 4
#     Node 25, Type 0, BuildingBlock: QUQFOY_clean_sbu_3, # of connection points: 4
#     Node 26, Type 0, BuildingBlock: QUQFOY_clean_sbu_3, # of connection points: 4
#     Node 27, Type 0, BuildingBlock: QUQFOY_clean_sbu_3, # of connection points: 4
#     Node 28, Type 0, BuildingBlock: QUQFOY_clean_sbu_3, # of connection points: 4
#     Node 29, Type 0, BuildingBlock: QUQFOY_clean_sbu_3, # of connection points: 4
#     Node 30, Type 0, BuildingBlock: QUQFOY_clean_sbu_3, # of connection points: 4
#     Node 31, Type 0, BuildingBlock: QUQFOY_clean_sbu_3, # of connection points: 4
#     Edge 32, Type (0, 0), BuildingBlock: MIFKUJ_clean_linker_0, # of connection points: 2
#     Edge 33, Type (0, 0), BuildingBlock: MIFKUJ_clean_linker_0, # of connection points: 2
#     Edge 34, Type (0, 0), BuildingBlock: MIFKUJ_clean_linker_0, # of connection points: 2
#     Edge 35, Type (0, 0), BuildingBlock: MIFKUJ_clean_linker_0, # of connection points: 2
#     Edge 36, Type (0, 0), BuildingBlock: MIFKUJ_clean_linker_0, # of connection points: 2
#     Edge 37, Type (0, 0), BuildingBlock: MIFKUJ_clean_linker_0, # of connection points: 2
#     Edge 38, Type (0, 0), BuildingBlock: MIFKUJ_clean_linker_0, # of connection points: 2
#     Edge 39, Type (0, 0), BuildingBlock: MIFKUJ_clean_linker_0, # of connection points: 2
#     Edge 40, Type (0, 0), BuildingBlock: MIFKUJ_clean_linker_0, # of connection points: 2
#     Edge 41, Type (0, 0), BuildingBlock: MIFKUJ_clean_linker_0, # of connection points: 2
#     Edge 42, Type (0, 0), BuildingBlock: MIFKUJ_clean_linker_0, # of connection points: 2
#     Edge 43, Type (0, 0), BuildingBlock: MIFKUJ_clean_linker_0, # of connection points: 2
#     Edge 44, Type (0, 0), BuildingBlock: MIFKUJ_clean_linker_0, # of connection points: 2
#     Edge 45, Type (0, 0), BuildingBlock: MIFKUJ_clean_linker_0, # of connection points: 2
#     Edge 46, Type (0, 0), BuildingBlock: MIFKUJ_clean_linker_0, # of connection points: 2
#     Edge 47, Type (0, 0), BuildingBlock: MIFKUJ_clean_linker_0, # of connection points: 2
#     Edge 48, Type (0, 0), BuildingBlock: MIFKUJ_clean_linker_0, # of connection points: 2
#     Edge 49, Type (0, 0), BuildingBlock: MIFKUJ_clean_linker_0, # of connection points: 2
#     Edge 50, Type (0, 0), BuildingBlock: MIFKUJ_clean_linker_0, # of connection points: 2
#     Edge 51, Type (0, 0), BuildingBlock: MIFKUJ_clean_linker_0, # of connection points: 2
#     Edge 52, Type (0, 0), BuildingBlock: MIFKUJ_clean_linker_0, # of connection points: 2
#     Edge 53, Type (0, 0), BuildingBlock: MIFKUJ_clean_linker_0, # of connection points: 2
#     Edge 54, Type (0, 0), BuildingBlock: MIFKUJ_clean_linker_0, # of connection points: 2
#     Edge 55, Type (0, 0), BuildingBlock: MIFKUJ_clean_linker_0, # of connection points: 2
#     Edge 56, Type (0, 0), BuildingBlock: MIFKUJ_clean_linker_0, # of connection points: 2
#     Edge 57, Type (0, 0), BuildingBlock: MIFKUJ_clean_linker_0, # of connection points: 2
#     Edge 58, Type (0, 0), BuildingBlock: MIFKUJ_clean_linker_0, # of connection points: 2
#     Edge 59, Type (0, 0), BuildingBlock: MIFKUJ_clean_linker_0, # of connection points: 2
#     Edge 60, Type (0, 0), BuildingBlock: MIFKUJ_clean_linker_0, # of connection points: 2
#     Edge 61, Type (0, 0), BuildingBlock: MIFKUJ_clean_linker_0, # of connection points: 2
#     Edge 62, Type (0, 0), BuildingBlock: MIFKUJ_clean_linker_0, # of connection points: 2
#     Edge 63, Type (0, 0), BuildingBlock: MIFKUJ_clean_linker_0, # of connection points: 2
#     Edge 64, Type (0, 0), BuildingBlock: MIFKUJ_clean_linker_0, # of connection points: 2
#     Edge 65, Type (0, 0), BuildingBlock: MIFKUJ_clean_linker_0, # of connection points: 2
#     Edge 66, Type (0, 0), BuildingBlock: MIFKUJ_clean_linker_0, # of connection points: 2
#     Edge 67, Type (0, 0), BuildingBlock: MIFKUJ_clean_linker_0, # of connection points: 2
#     Edge 68, Type (0, 0), BuildingBlock: MIFKUJ_clean_linker_0, # of connection points: 2
#     Edge 69, Type (0, 0), BuildingBlock: MIFKUJ_clean_linker_0, # of connection points: 2
#     Edge 70, Type (0, 0), BuildingBlock: MIFKUJ_clean_linker_0, # of connection points: 2
#     Edge 71, Type (0, 0), BuildingBlock: MIFKUJ_clean_linker_0, # of connection points: 2
#     Edge 72, Type (0, 0), BuildingBlock: MIFKUJ_clean_linker_0, # of connection points: 2
#     Edge 73, Type (0, 0), BuildingBlock: MIFKUJ_clean_linker_0, # of connection points: 2
#     Edge 74, Type (0, 0), BuildingBlock: MIFKUJ_clean_linker_0, # of connection points: 2
#     Edge 75, Type (0, 0), BuildingBlock: MIFKUJ_clean_linker_0, # of connection points: 2
#     Edge 76, Type (0, 0), BuildingBlock: MIFKUJ_clean_linker_0, # of connection points: 2
#     Edge 77, Type (0, 0), BuildingBlock: MIFKUJ_clean_linker_0, # of connection points: 2
#     Edge 78, Type (0, 0), BuildingBlock: MIFKUJ_clean_linker_0, # of connection points: 2
#     Edge 79, Type (0, 0), BuildingBlock: MIFKUJ_clean_linker_0, # of connection points: 2
#     Edge 80, Type (0, 0), BuildingBlock: MIFKUJ_clean_linker_0, # of connection points: 2
#     Edge 81, Type (0, 0), BuildingBlock: MIFKUJ_clean_linker_0, # of connection points: 2
#     Edge 82, Type (0, 0), BuildingBlock: MIFKUJ_clean_linker_0, # of connection points: 2
#     Edge 83, Type (0, 0), BuildingBlock: MIFKUJ_clean_linker_0, # of connection points: 2
#     Edge 84, Type (0, 0), BuildingBlock: MIFKUJ_clean_linker_0, # of connection points: 2
#     Edge 85, Type (0, 0), BuildingBlock: MIFKUJ_clean_linker_0, # of connection points: 2
#     Edge 86, Type (0, 0), BuildingBlock: MIFKUJ_clean_linker_0, # of connection points: 2
#     Edge 87, Type (0, 0), BuildingBlock: MIFKUJ_clean_linker_0, # of connection points: 2
#     Edge 88, Type (0, 0), BuildingBlock: MIFKUJ_clean_linker_0, # of connection points: 2
#     Edge 89, Type (0, 0), BuildingBlock: MIFKUJ_clean_linker_0, # of connection points: 2
#     Edge 90, Type (0, 0), BuildingBlock: MIFKUJ_clean_linker_0, # of connection points: 2
#     Edge 91, Type (0, 0), BuildingBlock: MIFKUJ_clean_linker_0, # of connection points: 2
#     Edge 92, Type (0, 0), BuildingBlock: MIFKUJ_clean_linker_0, # of connection points: 2
#     Edge 93, Type (0, 0), BuildingBlock: MIFKUJ_clean_linker_0, # of connection points: 2
#     Edge 94, Type (0, 0), BuildingBlock: MIFKUJ_clean_linker_0, # of connection points: 2
#     Edge 95, Type (0, 0), BuildingBlock: MIFKUJ_clean_linker_0, # of connection points: 2
# Relax obj value: 0.049
# Max RMSD: 0.079
# Mean RMSD: 0.074
data_MOF--net-ukd--node1-QUQFOY_clean_sbu_3--edge1-MIFKUJ_clean_linker_0
_symmetry_space_group_name_H-M    P1
_symmetry_Int_Tables_number       1
_symmetry_cell_setting            triclinic
loop_
_symmetry_equiv_pos_as_xyz
'x, y, z'
_cell_length_a     59.474445
_cell_length_b     59.481905
_cell_length_c     97.481955
_cell_angle_alpha  90.006098
_cell_angle_beta   90.093668
_cell_angle_gamma 90.057975
loop_
_atom_site_label
_atom_site_type_symbol
_atom_site_fract_x
_atom_site_fract_y
_atom_site_fract_z
_atom_type_partial_charge
C0 C 0.20726 0.20169 0.31056 0.0
O1 O 0.18692 0.19561 0.31203 0.0
Cd2 Cd 0.17141 0.17979 0.33253 0.0
O3 O 0.22147 0.19895 0.32023 0.0
Cd4 Cd 0.22293 0.18351 0.34393 0.0
C5 C 0.18599 0.22336 0.35423 0.0
O6 O 0.19764 0.15226 0.33977 0.0
O7 O 0.20618 0.15768 0.36093 0.0
O8 O 0.25946 0.16863 0.33739 0.0
C9 C 0.19571 0.14601 0.35211 0.0
O10 O 0.17098 0.21142 0.34839 0.0
C11 C 0.26934 0.17389 0.34849 0.0
O12 O 0.20674 0.2181 0.35351 0.0
O13 O 0.25779 0.18441 0.35737 0.0
C14 C 0.03722 0.95548 0.55854 0.0
O15 O 0.04447 0.93567 0.56055 0.0
Cd16 Cd 0.06077 0.92219 0.58147 0.0
O17 O 0.03883 0.97039 0.5679 0.0
Cd18 Cd 0.05384 0.97383 0.59163 0.0
C19 C 0.01653 0.9352 0.60293 0.0
O20 O 0.08656 0.95034 0.58839 0.0
O21 O 0.07923 0.95842 0.60937 0.0
O22 O 0.0692 0.00993 0.58499 0.0
C23 C 0.09216 0.94879 0.60088 0.0
O24 O 0.02951 0.92061 0.59758 0.0
C25 C 0.06239 0.02057 0.59547 0.0
O26 O 0.02017 0.95619 0.60146 0.0
O27 O 0.05046 0.00966 0.604 0.0
C28 C 0.27717 0.78943 0.80703 0.0
O29 O 0.29727 0.79632 0.80835 0.0
Cd30 Cd 0.31282 0.81057 0.82931 0.0
O31 O 0.2634 0.79078 0.817 0.0
Cd32 Cd 0.26265 0.80447 0.84099 0.0
C33 C 0.30058 0.76465 0.84961 0.0
O34 O 0.28714 0.83704 0.8387 0.0
O35 O 0.2808 0.82601 0.85936 0.0
O36 O 0.22708 0.82272 0.83632 0.0
C37 C 0.28996 0.84022 0.85144 0.0
O38 O 0.31503 0.77745 0.84393 0.0
C39 C 0.2165 0.81403 0.8463 0.0
O40 O 0.27969 0.7695 0.84934 0.0
O41 O 0.22722 0.80005 0.85368 0.0
C42 C 0.45138 0.03136 0.06016 0.0
O43 O 0.44501 0.05159 0.06172 0.0
Cd44 Cd 0.42774 0.06708 0.08177 0.0
O45 O 0.4484 0.01689 0.06965 0.0
Cd46 Cd 0.43214 0.01553 0.09316 0.0
C47 C 0.47022 0.05395 0.10446 0.0
O48 O 0.40056 0.04017 0.08856 0.0
O49 O 0.40513 0.03139 0.10976 0.0
O50 O 0.41701 0.97851 0.08769 0.0
C51 C 0.39369 0.04175 0.10079 0.0
O52 O 0.45835 0.06866 0.09831 0.0
C53 C 0.42381 0.96916 0.09865 0.0
O54 O 0.46546 0.03309 0.10359 0.0
O55 O 0.43537 0.98119 0.10681 0.0
C56 C 0.2049 0.78807 0.17991 0.0
O57 O 0.18505 0.79583 0.17916 0.0
Cd58 Cd 0.1691 0.81213 0.15902 0.0
O59 O 0.21828 0.78973 0.16974 0.0
Cd60 Cd 0.21833 0.80596 0.14618 0.0
C61 C 0.17921 0.76783 0.13694 0.0
O62 O 0.1956 0.83904 0.15102 0.0
O63 O 0.19983 0.83119 0.12967 0.0
O64 O 0.25621 0.81899 0.15138 0.0
C65 C 0.19208 0.84448 0.13865 0.0
O66 O 0.16535 0.78033 0.14333 0.0
C67 C 0.26448 0.81385 0.1398 0.0
O68 O 0.20017 0.77232 0.13692 0.0
O69 O 0.25143 0.80429 0.13126 0.0
C70 C 0.44791 0.95792 0.43095 0.0
O71 O 0.44056 0.93798 0.42965 0.0
Cd72 Cd 0.42819 0.92176 0.40856 0.0
O73 O 0.44793 0.97138 0.42077 0.0
Cd74 Cd 0.43568 0.97143 0.39631 0.0
C75 C 0.47543 0.9328 0.38902 0.0
O76 O 0.40253 0.94766 0.39861 0.0
O77 O 0.41403 0.95303 0.37799 0.0
O78 O 0.41942 0.00831 0.40038 0.0
C79 C 0.39952 0.9444 0.3859 0.0
O80 O 0.46231 0.91879 0.39483 0.0
C81 C 0.42748 0.01744 0.3897 0.0
O82 O 0.47069 0.95369 0.3887 0.0
O83 O 0.44021 0.00537 0.38228 0.0
C84 C 0.28254 0.20854 0.67844 0.0
O85 O 0.30306 0.20404 0.67616 0.0
Cd86 Cd 0.3172 0.18372 0.65681 0.0
O87 O 0.26725 0.20302 0.66989 0.0
Cd88 Cd 0.26566 0.1855 0.6468 0.0
C89 C 0.30235 0.22285 0.63293 0.0
O90 O 0.29072 0.15478 0.65223 0.0
O91 O 0.28262 0.15792 0.63085 0.0
O92 O 0.22954 0.16888 0.65265 0.0
C93 C 0.29258 0.14698 0.64022 0.0
O94 O 0.31789 0.21121 0.63843 0.0
C95 C 0.21938 0.17561 0.64195 0.0
O96 O 0.28169 0.21866 0.6353 0.0
O97 O 0.23057 0.18777 0.63369 0.0
C98 C 0.03831 0.02598 0.93363 0.0
O99 O 0.04631 0.04569 0.93256 0.0
Cd100 Cd 0.05589 0.0622 0.91113 0.0
O101 O 0.03716 0.01307 0.9232 0.0
Cd102 Cd 0.04829 0.01254 0.89856 0.0
C103 C 0.00636 0.04939 0.89368 0.0
O104 O 0.08089 0.03696 0.90006 0.0
O105 O 0.06782 0.03187 0.87971 0.0
O106 O 0.06585 0.97688 0.90368 0.0
C107 C 0.08278 0.0406 0.88731 0.0
O108 O 0.0195 0.06337 0.89954 0.0
C109 C 0.05841 0.96648 0.89325 0.0
O110 O 0.01205 0.02889 0.89211 0.0
O111 O 0.04538 0.97736 0.88531 0.0
C112 C 0.73282 0.81287 0.62332 0.0
O113 O 0.7414 0.80539 0.61231 0.0
Cd114 Cd 0.77545 0.78378 0.61229 0.0
O115 O 0.74188 0.8085 0.63485 0.0
Cd116 Cd 0.77431 0.78713 0.64391 0.0
C117 C 0.81196 0.82034 0.6278 0.0
O118 O 0.77219 0.75391 0.62888 0.0
O119 O 0.80171 0.7572 0.64168 0.0
O120 O 0.75022 0.77441 0.66248 0.0
C121 C 0.79014 0.74525 0.63354 0.0
O122 O 0.80599 0.81015 0.6169 0.0
C123 C 0.76329 0.78051 0.67209 0.0
O124 O 0.80236 0.81611 0.63917 0.0
O125 O 0.78137 0.79033 0.6686 0.0
C126 C 0.92409 0.98131 0.37376 0.0
O127 O 0.9332 0.9905 0.36342 0.0
Cd128 Cd 0.95643 0.02331 0.36562 0.0
O129 O 0.92744 0.98922 0.38573 0.0
Cd130 Cd 0.94879 0.02045 0.39627 0.0
C131 C 0.91905 0.05994 0.38001 0.0
O132 O 0.9842 0.01822 0.38333 0.0
O133 O 0.97781 0.04921 0.39417 0.0
O134 O 0.95876 -0.00506 0.41477 0.0
C135 C 0.99156 0.03693 0.38768 0.0
O136 O 0.93169 0.05534 0.36986 0.0
C137 C 0.95325 0.00811 0.42444 0.0
O138 O 0.91998 0.0483 0.39094 0.0
O139 O 0.945 0.02697 0.42101 0.0
C140 C 0.75076 0.17666 0.12437 0.0
O141 O 0.74145 0.18475 0.11373 0.0
Cd142 Cd 0.70804 0.20743 0.11483 0.0
O143 O 0.74269 0.18062 0.13622 0.0
Cd144 Cd 0.71122 0.20148 0.14666 0.0
C145 C 0.67217 0.17014 0.13012 0.0
O146 O 0.71341 0.23543 0.13236 0.0
O147 O 0.68489 0.23269 0.14595 0.0
O148 O 0.7365 0.21109 0.16543 0.0
C149 C 0.69612 0.24449 0.13759 0.0
O150 O 0.67715 0.18148 0.11947 0.0
C151 C 0.72331 0.20471 0.17489 0.0
O152 O 0.68291 0.17305 0.14128 0.0
O153 O 0.70465 0.19626 0.17119 0.0
C154 C 0.56081 0.00222 0.87751 0.0
O155 O 0.54935 -0.00441 0.86728 0.0
Cd156 Cd 0.52878 0.96083 0.86803 0.0
O157 O 0.55993 0.99179 0.8889 0.0
Cd158 Cd 0.5391 0.96039 0.89968 0.0
C159 C 0.56896 0.92416 0.88062 0.0
O160 O 0.50343 0.96309 0.887 0.0
O161 O 0.5086 0.93314 0.89912 0.0
O162 O 0.53203 0.98643 0.91831 0.0
C163 C 0.49557 0.94482 0.8917 0.0
O164 O 0.55651 0.93067 0.87073 0.0
C165 C 0.5373 0.97296 0.92788 0.0
O166 O 0.56716 0.93302 0.89245 0.0
O167 O 0.54417 0.95359 0.92433 0.0
C168 C 0.72756 0.17378 0.86242 0.0
O169 O 0.73431 0.18528 0.8726 0.0
Cd170 Cd 0.76828 0.20722 0.8718 0.0
O171 O 0.73779 0.17475 0.85097 0.0
Cd172 Cd 0.76939 0.19519 0.84021 0.0
C173 C 0.8061 0.16752 0.86048 0.0
O174 O 0.76529 0.23128 0.85219 0.0
O175 O 0.7954 0.22685 0.84016 0.0
O176 O 0.74505 0.20044 0.82042 0.0
C177 C 0.78322 0.23968 0.84737 0.0
O178 O 0.79951 0.1805 0.87006 0.0
C179 C 0.75942 0.19409 0.81162 0.0
O180 O 0.79707 0.16835 0.84865 0.0
O181 O 0.77833 0.18753 0.81618 0.0
C182 C 0.563 0.98264 0.61451 0.0
O183 O 0.55424 0.9913 0.62514 0.0
Cd184 Cd 0.53203 0.02489 0.62427 0.0
O185 O 0.55963 0.99136 0.60275 0.0
Cd186 Cd 0.53839 0.02314 0.59271 0.0
C187 C 0.56946 0.0616 0.6096 0.0
O188 O 0.50409 0.02061 0.60662 0.0
O189 O 0.50833 0.05068 0.59451 0.0
O190 O 0.52761 -0.0017 0.57405 0.0
C191 C 0.49576 0.03876 0.60206 0.0
O192 O 0.55803 0.05596 0.62009 0.0
C193 C 0.53335 0.01157 0.56448 0.0
O194 O 0.56685 0.05134 0.59825 0.0
O195 O 0.54224 0.03011 0.56803 0.0
C196 C 0.75424 0.81156 0.36028 0.0
O197 O 0.7464 0.80229 0.37098 0.0
Cd198 Cd 0.71277 0.78005 0.37027 0.0
O199 O 0.74496 0.80826 0.34867 0.0
Cd200 Cd 0.71356 0.78636 0.33868 0.0
C201 C 0.67593 0.81779 0.35585 0.0
O202 O 0.71654 0.75207 0.35258 0.0
O203 O 0.68609 0.75622 0.34077 0.0
O204 O 0.73886 0.77656 0.32005 0.0
C205 C 0.69824 0.7437 0.34823 0.0
O206 O 0.68201 0.80663 0.36637 0.0
C207 C 0.72541 0.7819 0.31047 0.0
O208 O 0.68549 0.81471 0.34433 0.0
O209 O 0.70649 0.78988 0.31401 0.0
C210 C 0.918 0.0041 0.11504 0.0
O211 O 0.9266 -0.00374 0.12596 0.0
Cd212 Cd 0.94835 0.96244 0.12627 0.0
O213 O 0.92161 -0.00542 0.10355 0.0
Cd214 Cd 0.94342 0.96253 0.09424 0.0
C215 C 0.91128 0.92525 0.11155 0.0
O216 O 0.97684 0.96622 0.10893 0.0
O217 O 0.97498 0.93678 0.09599 0.0
O218 O 0.9539 0.98727 0.07551 0.0
C219 C 0.98631 0.94874 0.10424 0.0
O220 O 0.92129 0.93226 0.12228 0.0
C221 C 0.94857 0.97375 0.06597 0.0
O222 O 0.91559 0.93371 0.09985 0.0
O223 O 0.94004 0.95507 0.06956 0.0
C224 C 0.70933 0.69457 0.8051 0.0
O225 O 0.6894 0.68707 0.80602 0.0
Cd226 Cd 0.67242 0.67706 0.8272 0.0
O227 O 0.7222 0.69497 0.81558 0.0
Cd228 Cd 0.7218 0.68256 0.84009 0.0
C229 C 0.68608 0.72516 0.84575 0.0
O230 O 0.69669 0.65047 0.83778 0.0
O231 O 0.7015 0.66258 0.85835 0.0
O232 O 0.75774 0.66509 0.83514 0.0
C233 C 0.69275 0.64807 0.85045 0.0
O234 O 0.67182 0.71281 0.83952 0.0
C235 C 0.76743 0.67136 0.84609 0.0
O236 O 0.70639 0.71881 0.8473 0.0
O237 O 0.75611 0.68364 0.85421 0.0
C238 C 0.53473 0.45525 0.05575 0.0
O239 O 0.54264 0.4356 0.05733 0.0
Cd240 Cd 0.55683 0.4214 0.07859 0.0
O241 O 0.53486 0.46926 0.06564 0.0
Cd242 Cd 0.54776 0.47099 0.08984 0.0
C243 C 0.50986 0.43136 0.09836 0.0
O244 O 0.58189 0.44897 0.08744 0.0
O245 O 0.57056 0.45374 0.10816 0.0
O246 O 0.56309 0.50773 0.0847 0.0
C247 C 0.58549 0.44617 0.10013 0.0
O248 O 0.52376 0.41747 0.09318 0.0
C249 C 0.55507 0.51757 0.09515 0.0
O250 O 0.51329 0.45249 0.0977 0.0
O251 O 0.54261 0.50589 0.10299 0.0
C252 C 0.77871 0.28709 0.3082 0.0
O253 O 0.79826 0.29557 0.30907 0.0
Cd254 Cd 0.81433 0.30942 0.32981 0.0
O255 O 0.76557 0.2871 0.31853 0.0
Cd256 Cd 0.76487 0.30117 0.34263 0.0
C257 C 0.80417 0.26248 0.35015 0.0
O258 O 0.78777 0.33464 0.3394 0.0
O259 O 0.78325 0.32425 0.36031 0.0
O260 O 0.72761 0.31527 0.33721 0.0
C261 C 0.79143 0.33841 0.35199 0.0
O262 O 0.81758 0.27561 0.34384 0.0
C263 C 0.71851 0.30909 0.34836 0.0
O264 O 0.78323 0.26689 0.3509 0.0
O265 O 0.73084 0.29841 0.35679 0.0
C266 C 0.94358 0.52439 0.5562 0.0
O267 O 0.93432 0.54359 0.55683 0.0
Cd268 Cd 0.92153 0.56032 0.57755 0.0
O269 O 0.94482 0.51191 0.56682 0.0
Cd270 Cd 0.93209 0.51203 0.59123 0.0
C271 C 0.97021 0.55269 0.59685 0.0
O272 O 0.89769 0.53346 0.58817 0.0
O273 O 0.90947 0.53084 0.60894 0.0
O274 O 0.91918 0.47402 0.58674 0.0
C275 C 0.89447 0.53777 0.60072 0.0
O276 O 0.95639 0.56531 0.59048 0.0
C277 C 0.9257 0.46584 0.59809 0.0
O278 O 0.96629 0.53176 0.59836 0.0
O279 O 0.93609 0.479 0.60619 0.0
C280 C 0.70714 0.28291 0.68071 0.0
O281 O 0.68693 0.28975 0.67998 0.0
Cd282 Cd 0.66961 0.3083 0.66091 0.0
O283 O 0.72083 0.28625 0.67084 0.0
Cd284 Cd 0.72105 0.30407 0.64776 0.0
C285 C 0.68115 0.26667 0.63721 0.0
O286 O 0.69664 0.33489 0.6537 0.0
O287 O 0.70438 0.33251 0.63226 0.0
O288 O 0.75862 0.31832 0.65269 0.0
C289 C 0.69408 0.34275 0.64175 0.0
O290 O 0.66701 0.27817 0.64406 0.0
C291 C 0.76718 0.31188 0.64142 0.0
O292 O 0.70205 0.27155 0.63735 0.0
O293 O 0.75442 0.30105 0.63329 0.0
C294 C 0.95314 0.45142 0.92795 0.0
O295 O 0.94697 0.43115 0.92629 0.0
Cd296 Cd 0.93191 0.41602 0.90554 0.0
O297 O 0.95072 0.46575 0.91833 0.0
Cd298 Cd 0.93539 0.46646 0.89451 0.0
C299 C 0.97576 0.43046 0.88419 0.0
O300 O 0.90348 0.44142 0.89812 0.0
O301 O 0.91217 0.44768 0.87705 0.0
O302 O 0.91833 0.50279 0.89957 0.0
C303 C 0.89874 0.43881 0.88555 0.0
O304 O 0.96394 0.41525 0.88991 0.0
C305 C 0.925 0.51232 0.88866 0.0
O306 O 0.97016 0.45108 0.885 0.0
O307 O 0.93728 0.50074 0.88069 0.0
C308 C 0.77875 0.69203 0.17854 0.0
O309 O 0.79856 0.6845 0.17703 0.0
Cd310 Cd 0.8129 0.67091 0.15564 0.0
O311 O 0.7647 0.69135 0.16866 0.0
Cd312 Cd 0.76204 0.67796 0.14464 0.0
C313 C 0.79978 0.71796 0.13629 0.0
O314 O 0.78615 0.64526 0.14653 0.0
O315 O 0.77913 0.65624 0.12594 0.0
O316 O 0.72673 0.66071 0.15091 0.0
C317 C 0.78848 0.64201 0.13377 0.0
O318 O 0.81428 0.70483 0.14163 0.0
C319 C 0.71547 0.66836 0.14089 0.0
O320 O 0.77887 0.7132 0.13659 0.0
O321 O 0.72573 0.68139 0.13265 0.0
C322 C 0.53686 0.52796 0.42925 0.0
O323 O 0.54308 0.54823 0.42766 0.0
Cd324 Cd 0.55828 0.56385 0.40715 0.0
O325 O 0.53897 0.51373 0.41954 0.0
Cd326 Cd 0.5537 0.51298 0.39559 0.0
C327 C 0.51436 0.55067 0.38543 0.0
O328 O 0.58555 0.53733 0.39986 0.0
O329 O 0.57911 0.53068 0.37858 0.0
O330 O 0.56939 0.47608 0.40063 0.0
C331 C 0.5915 0.53999 0.38753 0.0
O332 O 0.52637 0.56545 0.39144 0.0
C333 C 0.56232 0.46677 0.38972 0.0
O334 O 0.51956 0.52991 0.38599 0.0
O335 O 0.5505 0.4788 0.38171 0.0
C336 C 0.2261 0.3104 0.12805 0.0
O337 O 0.23158 0.299 0.11759 0.0
Cd338 Cd 0.26605 0.2783 0.11743 0.0
O339 O 0.23753 0.30906 0.13908 0.0
Cd340 Cd 0.26937 0.28658 0.14818 0.0
C341 C 0.30468 0.31705 0.12918 0.0
O342 O 0.26513 0.25094 0.13559 0.0
O343 O 0.29747 0.25738 0.14489 0.0
O344 O 0.24612 0.27786 0.16797 0.0
C345 C 0.28441 0.24364 0.13893 0.0
O346 O 0.29711 0.30551 0.11917 0.0
C347 C 0.26075 0.28315 0.17689 0.0
O348 O 0.29673 0.31448 0.14118 0.0
O349 O 0.27942 0.29057 0.17247 0.0
C350 C 0.4219 0.48023 0.87257 0.0
O351 O 0.43058 0.48883 0.86191 0.0
Cd352 Cd 0.45114 0.52366 0.86277 0.0
O353 O 0.42463 0.48954 0.88421 0.0
Cd354 Cd 0.44424 0.52206 0.89436 0.0
C355 C 0.41206 0.55904 0.87704 0.0
O356 O 0.47898 0.52145 0.88062 0.0
O357 O 0.47341 0.55039 0.89359 0.0
O358 O 0.45529 0.49662 0.91256 0.0
C359 C 0.48645 0.53964 0.8857 0.0
O360 O 0.42378 0.55351 0.86666 0.0
C361 C 0.44896 0.50914 0.92236 0.0
O362 O 0.4149 0.54923 0.88852 0.0
O363 O 0.43968 0.52764 0.91915 0.0
C364 C 0.25143 0.67629 0.62455 0.0
O365 O 0.24318 0.6862 0.61417 0.0
Cd366 Cd 0.21008 0.70927 0.61586 0.0
O367 O 0.24251 0.67873 0.63631 0.0
Cd368 Cd 0.21093 0.69913 0.64691 0.0
C369 C 0.17222 0.67114 0.62852 0.0
O370 O 0.21387 0.73522 0.63464 0.0
O371 O 0.18341 0.72915 0.64607 0.0
O372 O 0.23605 0.70652 0.66609 0.0
C373 C 0.19545 0.74277 0.63931 0.0
O374 O 0.1779 0.68419 0.61876 0.0
C375 C 0.22221 0.70072 0.67533 0.0
O376 O 0.18284 0.67141 0.63987 0.0
O377 O 0.20322 0.69344 0.67133 0.0
C378 C 0.06286 0.50701 0.37449 0.0
O379 O 0.05434 0.49859 0.36371 0.0
Cd380 Cd 0.03469 0.46344 0.36389 0.0
O381 O 0.06003 0.49748 0.38606 0.0
Cd382 Cd 0.03988 0.46453 0.3956 0.0
C383 C 0.0741 0.42895 0.3787 0.0
O384 O 0.00585 0.46503 0.38115 0.0
O385 O 0.01122 0.43571 0.39382 0.0
O386 O 0.02722 0.48827 0.41435 0.0
C387 C -0.00163 0.44659 0.38586 0.0
O388 O 0.06343 0.43486 0.36796 0.0
C389 C 0.03401 0.47536 0.42386 0.0
O390 O 0.06957 0.43766 0.39029 0.0
O391 O 0.04423 0.4576 0.42023 0.0
C392 C 0.23527 0.67348 0.36193 0.0
O393 O 0.24502 0.68136 0.37249 0.0
Cd394 Cd 0.27937 0.70262 0.37113 0.0
O395 O 0.24339 0.67691 0.35003 0.0
Cd396 Cd 0.27557 0.69637 0.33933 0.0
C397 C 0.31386 0.66407 0.35584 0.0
O398 O 0.27494 0.73062 0.3535 0.0
O399 O 0.3028 0.72674 0.33951 0.0
O400 O 0.25006 0.7063 0.32074 0.0
C401 C 0.29235 0.739 0.34799 0.0
O402 O 0.30916 0.67549 0.3665 0.0
C403 C 0.26294 0.69974 0.31117 0.0
O404 O 0.30324 0.6673 0.34467 0.0
O405 O 0.28153 0.691 0.31473 0.0
C406 C 0.06173 0.48413 0.11228 0.0
O407 O 0.05039 0.49165 0.12229 0.0
Cd408 Cd 0.02918 0.52583 0.12036 0.0
O409 O 0.06054 0.49337 0.10052 0.0
Cd410 Cd 0.03919 0.52357 0.08886 0.0
C411 C 0.06821 0.56239 0.10659 0.0
O412 O 0.00354 0.52137 0.10156 0.0
O413 O 0.00837 0.55033 0.08852 0.0
O414 O 0.03176 0.49674 0.07062 0.0
C415 C -0.00457 0.53904 0.09621 0.0
O416 O 0.05618 0.55642 0.11677 0.0
C417 C 0.03753 0.50968 0.06089 0.0
O418 O 0.06637 0.55244 0.09509 0.0
O419 O 0.0449 0.52899 0.06419 0.0
C420 C 0.25586 0.30735 0.86396 0.0
O421 O 0.24583 0.30054 0.87467 0.0
Cd422 Cd 0.21041 0.28089 0.87342 0.0
O423 O 0.24747 0.30364 0.85216 0.0
Cd424 Cd 0.21447 0.28546 0.84175 0.0
C425 C 0.1774 0.32 0.85747 0.0
O426 O 0.21237 0.25177 0.85625 0.0
O427 O 0.18463 0.25779 0.84233 0.0
O428 O 0.23713 0.26943 0.82354 0.0
C429 C 0.19424 0.24479 0.85082 0.0
O430 O 0.18178 0.30905 0.86837 0.0
C431 C 0.22762 0.28008 0.81387 0.0
O432 O 0.18777 0.3157 0.84637 0.0
O433 O 0.21206 0.29365 0.81715 0.0
C434 C 0.42085 0.50628 0.61224 0.0
O435 O 0.42901 0.49787 0.62312 0.0
Cd436 Cd 0.45036 0.46384 0.62291 0.0
O437 O 0.42474 0.49718 0.60066 0.0
Cd438 Cd 0.44661 0.46491 0.59167 0.0
C439 C 0.41306 0.42781 0.60745 0.0
O440 O 0.48023 0.46678 0.60635 0.0
O441 O 0.47467 0.43573 0.59539 0.0
O442 O 0.45935 0.48886 0.57301 0.0
C443 C 0.48769 0.44778 0.6026 0.0
O444 O 0.42373 0.43335 0.61828 0.0
C445 C 0.45407 0.47531 0.56348 0.0
O446 O 0.41695 0.43774 0.59614 0.0
O447 O 0.4448 0.45698 0.56704 0.0
H448 H 0.08825 0.40031 0.39886 0.0
H449 H 0.11312 0.36789 0.3963 0.0
H450 H 0.12406 0.38534 0.35384 0.0
H451 H 0.09838 0.41708 0.3562 0.0
H452 H 0.11404 0.34447 0.35487 0.0
H453 H 0.16641 0.38923 0.37969 0.0
H454 H 0.18028 0.41349 0.39839 0.0
H455 H 0.16946 0.36026 0.4274 0.0
H456 H 0.15524 0.33576 0.40889 0.0
H457 H 0.21164 0.26088 0.35923 0.0
H458 H 0.19776 0.29831 0.36557 0.0
H459 H 0.13087 0.27132 0.37019 0.0
H460 H 0.14442 0.23418 0.36366 0.0
H461 H 0.17387 0.31908 0.38683 0.0
H462 H 0.09526 0.3041 0.35276 0.0
H463 H 0.08431 0.28141 0.33263 0.0
H464 H 0.1531 0.27932 0.31939 0.0
H465 H 0.16439 0.30228 0.33931 0.0
C466 C 0.09624 0.39739 0.38904 0.0
C467 C 0.09123 0.41108 0.37769 0.0
C468 C 0.11059 0.37893 0.38761 0.0
C469 C 0.12063 0.37418 0.37489 0.0
C470 C 0.11644 0.38854 0.36373 0.0
C471 C 0.10176 0.40669 0.36509 0.0
C472 C 0.13355 0.35308 0.3728 0.0
C473 C 0.12722 0.33911 0.36184 0.0
C474 C 0.15101 0.34605 0.38174 0.0
C475 C 0.15959 0.36071 0.39291 0.0
C476 C 0.16683 0.38274 0.39007 0.0
C477 C 0.17479 0.39653 0.40063 0.0
C478 C 0.17571 0.38843 0.41408 0.0
C479 C 0.16873 0.36651 0.41698 0.0
C480 C 0.16075 0.35266 0.40645 0.0
C481 C 0.19409 0.26285 0.36192 0.0
C482 C 0.17902 0.24471 0.36071 0.0
C483 C 0.18621 0.28422 0.36556 0.0
C484 C 0.16323 0.28761 0.36807 0.0
C485 C 0.1486 0.2691 0.36805 0.0
C486 C 0.15637 0.24789 0.3643 0.0
C487 C 0.15388 0.31061 0.36915 0.0
C488 C 0.16082 0.32476 0.37987 0.0
C489 C 0.1374 0.3182 0.35977 0.0
C490 C 0.13068 0.30474 0.3476 0.0
C491 C 0.10802 0.29889 0.34552 0.0
C492 C 0.10176 0.28597 0.33415 0.0
C493 C 0.11801 0.27887 0.32476 0.0
C494 C 0.14054 0.28476 0.32669 0.0
C495 C 0.14688 0.29772 0.33802 0.0
H496 H 0.11313 0.26885 0.31598 0.0
H497 H 0.18187 0.39914 0.42224 0.0
H498 H 0.97566 0.95603 0.60465 0.0
H499 H 0.94039 0.9393 0.61261 0.0
H500 H 0.97635 0.87982 0.62536 0.0
H501 H 0.01133 0.89605 0.61685 0.0
H502 H 0.94401 0.86787 0.61025 0.0
H503 H 0.94988 0.9172 0.64859 0.0
H504 H 0.95485 0.95325 0.66072 0.0
H505 H 0.89526 0.97916 0.6415 0.0
H506 H 0.89009 0.94337 0.6291 0.0
H507 H 0.83533 0.83869 0.64936 0.0
H508 H 0.86958 0.86152 0.64818 0.0
H509 H 0.8655 0.86141 0.604 0.0
H510 H 0.83168 0.83828 0.60505 0.0
H511 H 0.88252 0.90207 0.6375 0.0
H512 H 0.91649 0.85181 0.59102 0.0
H513 H 0.91283 0.81393 0.58092 0.0
H514 H 0.89621 0.78681 0.62045 0.0
H515 H 0.90009 0.82445 0.63081 0.0
C516 C 0.97605 0.9396 0.60943 0.0
C517 C -0.00387 0.92722 0.61002 0.0
C518 C 0.9559 0.93007 0.61404 0.0
C519 C 0.95566 0.90825 0.61959 0.0
C520 C 0.97604 0.89658 0.62101 0.0
C521 C -0.00397 0.90588 0.61617 0.0
C522 C 0.93409 0.8965 0.6224 0.0
C523 C 0.93069 0.87539 0.6163 0.0
C524 C 0.91667 0.90609 0.63039 0.0
C525 C 0.91971 0.92765 0.63783 0.0
C526 C 0.93793 0.93065 0.64686 0.0
C527 C 0.94077 0.95102 0.6538 0.0
C528 C 0.92541 0.9685 0.65186 0.0
C529 C 0.90715 0.96562 0.64299 0.0
C530 C 0.90425 0.94528 0.63602 0.0
C531 C 0.84158 0.84376 0.63939 0.0
C532 C 0.831 0.83636 0.62728 0.0
C533 C 0.86109 0.85688 0.63875 0.0
C534 C 0.87026 0.86282 0.626 0.0
C535 C 0.85891 0.85665 0.61394 0.0
C536 C 0.83958 0.84341 0.61456 0.0
C537 C 0.8926 0.87379 0.62517 0.0
C538 C 0.89604 0.89466 0.63157 0.0
C539 C 0.91038 0.86377 0.61776 0.0
C540 C 0.90838 0.84099 0.61165 0.0
C541 C 0.91216 0.83774 0.59756 0.0
C542 C 0.91003 0.81632 0.59179 0.0
C543 C 0.90423 0.79799 0.60003 0.0
C544 C 0.90063 0.80103 0.61407 0.0
C545 C 0.90277 0.82241 0.61989 0.0
H546 H 0.90256 0.78143 0.59555 0.0
H547 H 0.92764 0.98426 0.65724 0.0
H548 H 0.4026 0.58387 0.85422 0.0
H549 H 0.37834 0.61666 0.85247 0.0
H550 H 0.35984 0.60937 0.89501 0.0
H551 H 0.38456 0.57661 0.89697 0.0
H552 H 0.33492 0.62485 0.85552 0.0
H553 H 0.35422 0.66258 0.90852 0.0
H554 H 0.38362 0.66123 0.92642 0.0
H555 H 0.43328 0.64581 0.89591 0.0
H556 H 0.40423 0.64733 0.87784 0.0
H557 H 0.27513 0.72869 0.85813 0.0
H558 H 0.28888 0.69207 0.86607 0.0
H559 H 0.35723 0.71582 0.8628 0.0
H560 H 0.34375 0.75231 0.85508 0.0
H561 H 0.35226 0.6904 0.88521 0.0
H562 H 0.33327 0.68612 0.83689 0.0
H563 H 0.30792 0.68891 0.8169 0.0
H564 H 0.26395 0.63973 0.83479 0.0
H565 H 0.28895 0.63683 0.85496 0.0
C566 C 0.39328 0.58907 0.86321 0.0
C567 C 0.39573 0.57772 0.87578 0.0
C568 C 0.37929 0.60778 0.86216 0.0
C569 C 0.36742 0.61559 0.87363 0.0
C570 C 0.36906 0.60379 0.88607 0.0
C571 C 0.38317 0.58505 0.88716 0.0
C572 C 0.35457 0.63688 0.87261 0.0
C573 C 0.33848 0.63909 0.86214 0.0
C574 C 0.35937 0.65555 0.88114 0.0
C575 C 0.37701 0.65477 0.89188 0.0
C576 C 0.37143 0.65893 0.90565 0.0
C577 C 0.38802 0.65814 0.91582 0.0
C578 C 0.41028 0.65334 0.91231 0.0
C579 C 0.41601 0.64942 0.89862 0.0
C580 C 0.39949 0.65022 0.88842 0.0
C581 C 0.29307 0.72619 0.85931 0.0
C582 C 0.30835 0.74333 0.85582 0.0
C583 C 0.30089 0.70526 0.8638 0.0
C584 C 0.32408 0.70117 0.86488 0.0
C585 C 0.33926 0.71861 0.86205 0.0
C586 C 0.3315 0.73943 0.85754 0.0
C587 C 0.3329 0.67844 0.868 0.0
C588 C 0.34822 0.67597 0.87885 0.0
C589 C 0.32785 0.6597 0.85958 0.0
C590 C 0.31281 0.66147 0.84749 0.0
C591 C 0.3181 0.67604 0.8366 0.0
C592 C 0.30382 0.67762 0.82523 0.0
C593 C 0.2843 0.66456 0.8246 0.0
C594 C 0.27905 0.64986 0.83532 0.0
C595 C 0.29327 0.64824 0.84671 0.0
H596 H 0.27326 0.66579 0.8158 0.0
H597 H 0.4231 0.65272 0.9202 0.0
H598 H 0.48091 0.09653 0.11231 0.0
H599 H 0.51694 0.1101 0.12082 0.0
H600 H 0.54232 0.04219 0.12159 0.0
H601 H 0.50614 0.02838 0.11288 0.0
H602 H 0.54409 0.10361 0.14274 0.0
H603 H 0.59672 0.04522 0.10907 0.0
H604 H 0.5928 0.02142 0.08844 0.0
H605 H 0.54095 0.06492 0.0731 0.0
H606 H 0.54479 0.08909 0.09354 0.0
H607 H 0.65785 0.14129 0.15029 0.0
H608 H 0.62585 0.11539 0.14936 0.0
H609 H 0.61197 0.1364 0.10785 0.0
H610 H 0.64402 0.16186 0.10857 0.0
H611 H 0.607 0.0923 0.11009 0.0
H612 H 0.58343 0.15841 0.13569 0.0
H613 H 0.58575 0.18563 0.15474 0.0
H614 H 0.57695 0.13216 0.18385 0.0
H615 H 0.57484 0.10459 0.16495 0.0
C616 C 0.49401 0.08439 0.11448 0.0
C617 C 0.49078 0.06141 0.11172 0.0
C618 C 0.51456 0.09217 0.11945 0.0
C619 C 0.53237 0.07719 0.12169 0.0
C620 C 0.52881 0.05405 0.1198 0.0
C621 C 0.50813 0.04619 0.11486 0.0
C622 C 0.55507 0.08637 0.12451 0.0
C623 C 0.55799 0.10084 0.13575 0.0
C624 C 0.57312 0.08296 0.1153 0.0
C625 C 0.57084 0.06874 0.1029 0.0
C626 C 0.58452 0.04969 0.10127 0.0
C627 C 0.58231 0.03615 0.08961 0.0
C628 C 0.56657 0.0416 0.07949 0.0
C629 C 0.55307 0.06066 0.08097 0.0
C630 C 0.55524 0.07427 0.09259 0.0
C631 C 0.64806 0.14028 0.14094 0.0
C632 C 0.65342 0.15377 0.12953 0.0
C633 C 0.62977 0.12549 0.14044 0.0
C634 C 0.61642 0.1241 0.12858 0.0
C635 C 0.62209 0.13712 0.11709 0.0
C636 C 0.64038 0.15179 0.11755 0.0
C637 C 0.59588 0.10996 0.12815 0.0
C638 C 0.59338 0.09453 0.11736 0.0
C639 C 0.57806 0.11288 0.1376 0.0
C640 C 0.57926 0.12944 0.14893 0.0
C641 C 0.58215 0.15246 0.14616 0.0
C642 C 0.5834 0.16794 0.15693 0.0
C643 C 0.58157 0.16061 0.1705 0.0
C644 C 0.57842 0.1378 0.17333 0.0
C645 C 0.57719 0.12224 0.1626 0.0
H646 H 0.58254 0.17263 0.17882 0.0
H647 H 0.56486 0.03108 0.07049 0.0
H648 H 0.13552 0.75554 0.13297 0.0
H649 H 0.12134 0.71969 0.12457 0.0
H650 H 0.18921 0.69717 0.11731 0.0
H651 H 0.20368 0.7331 0.12591 0.0
H652 H 0.12383 0.6962 0.10107 0.0
H653 H 0.19089 0.64104 0.12664 0.0
H654 H 0.21855 0.64278 0.14552 0.0
H655 H 0.17686 0.69006 0.16693 0.0
H656 H 0.14885 0.68836 0.14826 0.0
H657 H 0.09406 0.58232 0.08671 0.0
H658 H 0.11777 0.61576 0.08906 0.0
H659 H 0.10122 0.61953 0.13206 0.0
H660 H 0.07775 0.5861 0.12988 0.0
H661 H 0.14513 0.62856 0.12789 0.0
H662 H 0.07333 0.6512 0.10886 0.0
H663 H 0.04267 0.65047 0.0918 0.0
H664 H 0.08898 0.66996 0.06019 0.0
H665 H 0.11998 0.67052 0.07706 0.0
C666 C 0.14749 0.7431 0.12946 0.0
C667 C 0.17076 0.7471 0.13027 0.0
C668 C 0.13932 0.72264 0.12458 0.0
C669 C 0.15422 0.70569 0.12045 0.0
C670 C 0.17744 0.70997 0.12059 0.0
C671 C 0.18567 0.73052 0.12547 0.0
C672 C 0.14522 0.68314 0.11704 0.0
C673 C 0.12872 0.68133 0.10679 0.0
C674 C 0.1514 0.66381 0.12462 0.0
C675 C 0.16796 0.66478 0.13598 0.0
C676 C 0.18763 0.65176 0.1354 0.0
C677 C 0.20336 0.65274 0.14606 0.0
C678 C 0.19951 0.66659 0.15739 0.0
C679 C 0.17987 0.67941 0.15812 0.0
C680 C 0.16407 0.67846 0.1475 0.0
C681 C 0.09564 0.59013 0.0967 0.0
C682 C 0.08385 0.58163 0.10809 0.0
C683 C 0.10917 0.60925 0.09801 0.0
C684 C 0.11109 0.62021 0.11071 0.0
C685 C 0.1 0.6113 0.12217 0.0
C686 C 0.08648 0.59224 0.12088 0.0
C687 C 0.12355 0.64169 0.11204 0.0
C688 C 0.14069 0.64328 0.1219 0.0
C689 C 0.11761 0.66093 0.1043 0.0
C690 C 0.099 0.66063 0.09418 0.0
C691 C 0.077 0.65515 0.09825 0.0
C692 C 0.05955 0.6548 0.08862 0.0
C693 C 0.06389 0.66009 0.07491 0.0
C694 C 0.08566 0.66581 0.07081 0.0
C695 C 0.10317 0.66616 0.0804 0.0
H696 H 0.05036 0.65981 0.06747 0.0
H697 H 0.21171 0.66735 0.16563 0.0
H698 H 0.50884 0.95715 0.37636 0.0
H699 H 0.54414 0.94278 0.3668 0.0
H700 H 0.52529 0.87545 0.37854 0.0
H701 H 0.49011 0.88944 0.38787 0.0
H702 H 0.57838 0.92151 0.37917 0.0
H703 H 0.5439 0.8379 0.35612 0.0
H704 H 0.50949 0.82417 0.34471 0.0
H705 H 0.49439 0.89115 0.33114 0.0
H706 H 0.52887 0.90524 0.34229 0.0
H707 H 0.65554 0.83249 0.37926 0.0
H708 H 0.62352 0.85783 0.38124 0.0
H709 H 0.62176 0.86542 0.33725 0.0
H710 H 0.65389 0.83992 0.33514 0.0
H711 H 0.58063 0.85613 0.34757 0.0
H712 H 0.63841 0.90893 0.35623 0.0
H713 H 0.67308 0.92397 0.36667 0.0
H714 H 0.64239 0.92173 0.40648 0.0
H715 H 0.60764 0.90633 0.39632 0.0
C716 C 0.51216 0.93926 0.3768 0.0
C717 C 0.4966 0.92445 0.38286 0.0
C718 C 0.53234 0.9311 0.37136 0.0
C719 C 0.53719 0.90802 0.37178 0.0
C720 C 0.5217 0.89327 0.37783 0.0
C721 C 0.50161 0.90135 0.38325 0.0
C722 C 0.55881 0.89915 0.36651 0.0
C723 C 0.57892 0.90737 0.37215 0.0
C724 C 0.55953 0.88106 0.35708 0.0
C725 C 0.53894 0.87264 0.35011 0.0
C726 C 0.53333 0.84968 0.35062 0.0
C727 C 0.51378 0.84184 0.34422 0.0
C728 C 0.49974 0.85678 0.33723 0.0
C729 C 0.50525 0.8796 0.33659 0.0
C730 C 0.52478 0.88753 0.34297 0.0
C731 C 0.64849 0.83965 0.36999 0.0
C732 C 0.65725 0.83412 0.35704 0.0
C733 C 0.63026 0.85426 0.37115 0.0
C734 C 0.62041 0.86368 0.3594 0.0
C735 C 0.62921 0.8584 0.34644 0.0
C736 C 0.64757 0.84386 0.34527 0.0
C737 C 0.60005 0.87784 0.36072 0.0
C738 C 0.58016 0.87057 0.35436 0.0
C739 C 0.59959 0.89701 0.36932 0.0
C740 C 0.62044 0.90635 0.37551 0.0
C741 C 0.6391 0.91149 0.36723 0.0
C742 C 0.65877 0.9201 0.37309 0.0
C743 C 0.65995 0.92378 0.38723 0.0
C744 C 0.64145 0.91887 0.39553 0.0
C745 C 0.62175 0.91023 0.38972 0.0
H746 H 0.67519 0.93045 0.39175 0.0
H747 H 0.48461 0.85068 0.33229 0.0
H748 H 0.28069 0.26322 0.63151 0.0
H749 H 0.29627 0.29849 0.62278 0.0
H750 H 0.35421 0.26272 0.60751 0.0
H751 H 0.33918 0.22771 0.61683 0.0
H752 H 0.36778 0.29436 0.62256 0.0
H753 H 0.31503 0.29058 0.58595 0.0
H754 H 0.27798 0.28618 0.57488 0.0
H755 H 0.25376 0.34469 0.59598 0.0
H756 H 0.29057 0.34928 0.60732 0.0
H757 H 0.39312 0.40609 0.5858 0.0
H758 H 0.3706 0.37165 0.58662 0.0
H759 H 0.37401 0.37226 0.63082 0.0
H760 H 0.39683 0.40634 0.63012 0.0
H761 H 0.33095 0.35751 0.59806 0.0
H762 H 0.38538 0.32039 0.64194 0.0
H763 H 0.42405 0.32362 0.65093 0.0
H764 H 0.44758 0.34367 0.61115 0.0
H765 H 0.40912 0.34024 0.60187 0.0
C766 C 0.29644 0.26284 0.62595 0.0
C767 C 0.30888 0.24285 0.62495 0.0
C768 C 0.30532 0.283 0.62091 0.0
C769 C 0.32649 0.28333 0.61451 0.0
C770 C 0.33797 0.26296 0.61253 0.0
C771 C 0.32935 0.24296 0.61782 0.0
C772 C 0.33805 0.30496 0.61161 0.0
C773 C 0.35969 0.30803 0.61709 0.0
C774 C 0.32771 0.32284 0.60438 0.0
C775 C 0.30554 0.32017 0.59757 0.0
C776 C 0.30176 0.30241 0.58831 0.0
C777 C 0.2808 0.2999 0.58197 0.0
C778 C 0.26351 0.31511 0.58475 0.0
C779 C 0.26716 0.33291 0.59384 0.0
C780 C 0.28808 0.33549 0.60022 0.0
C781 C 0.38883 0.39906 0.59571 0.0
C782 C 0.39708 0.40875 0.6079 0.0
C783 C 0.37588 0.37943 0.59614 0.0
C784 C 0.37097 0.36923 0.60876 0.0
C785 C 0.37795 0.37968 0.62096 0.0
C786 C 0.39101 0.39916 0.62054 0.0
C787 C 0.36028 0.34675 0.60924 0.0
C788 C 0.33893 0.34362 0.60339 0.0
C789 C 0.37106 0.32851 0.61581 0.0
C790 C 0.39433 0.33025 0.62125 0.0
C791 C 0.39883 0.32538 0.6351 0.0
C792 C 0.42071 0.32727 0.64025 0.0
C793 C 0.43825 0.33391 0.63163 0.0
C794 C 0.43396 0.3386 0.61782 0.0
C795 C 0.41213 0.33671 0.61262 0.0
H796 H 0.45517 0.33538 0.63564 0.0
H797 H 0.2473 0.31314 0.57983 0.0
H798 H 0.98411 0.08634 0.90271 0.0
H799 H 0.94713 0.09972 0.89574 0.0
H800 H 0.94064 0.04409 0.86765 0.0
H801 H 0.97783 0.03017 0.87478 0.0
H802 H 0.93055 0.09016 0.85692 0.0
H803 H 0.9102 0.03958 0.89294 0.0
H804 H 0.91305 0.02251 0.91593 0.0
H805 H 0.89789 0.08616 0.93449 0.0
H806 H 0.89532 0.10372 0.91162 0.0
H807 H 0.81985 0.13227 0.84444 0.0
H808 H 0.85087 0.10627 0.84886 0.0
H809 H 0.86558 0.14095 0.88672 0.0
H810 H 0.83426 0.16646 0.8826 0.0
H811 H 0.86867 0.09776 0.89068 0.0
H812 H 0.89597 0.14967 0.8563 0.0
H813 H 0.8955 0.1692 0.83399 0.0
H814 H 0.89975 0.10582 0.81305 0.0
H815 H 0.89996 0.0859 0.83527 0.0
C816 C 0.97489 0.07688 0.89504 0.0
C817 C 0.98391 0.0572 0.88927 0.0
C818 C 0.95371 0.08452 0.89113 0.0
C819 C 0.94119 0.07279 0.88127 0.0
C820 C 0.95012 0.05327 0.87533 0.0
C821 C 0.97127 0.04535 0.87942 0.0
C822 C 0.91896 0.08159 0.87715 0.0
C823 C 0.91673 0.09134 0.86414 0.0
C824 C 0.9013 0.08354 0.88675 0.0
C825 C 0.90269 0.073 0.90054 0.0
C826 C 0.90765 0.04999 0.90192 0.0
C827 C 0.90919 0.04021 0.91493 0.0
C828 C 0.90567 0.05324 0.92666 0.0
C829 C 0.9006 0.07608 0.92539 0.0
C830 C 0.89907 0.08595 0.91241 0.0
C831 C 0.82966 0.13431 0.85372 0.0
C832 C 0.82464 0.1515 0.86314 0.0
C833 C 0.84743 0.11946 0.85621 0.0
C834 C 0.86073 0.12179 0.86805 0.0
C835 C 0.85552 0.13875 0.87754 0.0
C836 C 0.83764 0.1534 0.87514 0.0
C837 C 0.88042 0.107 0.87055 0.0
C838 C 0.8822 0.09614 0.88329 0.0
C839 C 0.89783 0.10435 0.86077 0.0
C840 C 0.89768 0.1163 0.84743 0.0
C841 C 0.89661 0.1399 0.84694 0.0
C842 C 0.89643 0.15104 0.83431 0.0
C843 C 0.89751 0.13876 0.82211 0.0
C844 C 0.89885 0.11531 0.82251 0.0
C845 C 0.89901 0.10409 0.83511 0.0
H846 H 0.89738 0.14741 0.81234 0.0
H847 H 0.90681 0.04565 0.93672 0.0
H848 H 0.85845 0.55318 0.58614 0.0
H849 H 0.83437 0.58518 0.5918 0.0
H850 H 0.86972 0.59351 0.63018 0.0
H851 H 0.89316 0.56104 0.62483 0.0
H852 H 0.82744 0.6033 0.63378 0.0
H853 H 0.88397 0.62336 0.6006 0.0
H854 H 0.90456 0.62006 0.57876 0.0
H855 H 0.84372 0.63316 0.55637 0.0
H856 H 0.82269 0.6362 0.57811 0.0
H857 H 0.82296 0.72035 0.64567 0.0
H858 H 0.83464 0.68215 0.63995 0.0
H859 H 0.78518 0.67974 0.60757 0.0
H860 H 0.77318 0.71808 0.61333 0.0
H861 H 0.82921 0.66552 0.59987 0.0
H862 H 0.77453 0.65081 0.63485 0.0
H863 H 0.75673 0.6558 0.65747 0.0
H864 H 0.81762 0.63468 0.67736 0.0
H865 H 0.8359 0.62988 0.65485 0.0
C866 C 0.86078 0.5616 0.59589 0.0
C867 C 0.87786 0.55481 0.60497 0.0
C868 C 0.84709 0.57993 0.59909 0.0
C869 C 0.85061 0.59209 0.61126 0.0
C870 C 0.86675 0.58446 0.6207 0.0
C871 C 0.88019 0.56592 0.61761 0.0
C872 C 0.83879 0.61366 0.61377 0.0
C873 C 0.8279 0.61691 0.62638 0.0
C874 C 0.83908 0.63136 0.60403 0.0
C875 C 0.85172 0.62974 0.59096 0.0
C876 C 0.87496 0.62539 0.59102 0.0
C877 C 0.88671 0.62357 0.57866 0.0
C878 C 0.87544 0.62633 0.56618 0.0
C879 C 0.85241 0.63098 0.56605 0.0
C880 C 0.84057 0.63275 0.57838 0.0
C881 C 0.81452 0.71171 0.63734 0.0
C882 C 0.79715 0.72219 0.62995 0.0
C883 C 0.82113 0.68986 0.63414 0.0
C884 C 0.8106 0.67811 0.62344 0.0
C885 C 0.79341 0.68855 0.61592 0.0
C886 C 0.78658 0.71039 0.61923 0.0
C887 C 0.81821 0.65517 0.61992 0.0
C888 C 0.82839 0.65173 0.60714 0.0
C889 C 0.81765 0.63748 0.6296 0.0
C890 C 0.80663 0.64013 0.64316 0.0
C891 C 0.78418 0.64738 0.64405 0.0
C892 C 0.77399 0.65015 0.65685 0.0
C893 C 0.78605 0.64559 0.66885 0.0
C894 C 0.8083 0.6382 0.66806 0.0
C895 C 0.81857 0.63543 0.65528 0.0
H896 H 0.77814 0.64776 0.67875 0.0
H897 H 0.88457 0.62493 0.55663 0.0
H898 H 0.19044 0.12625 0.37721 0.0
H899 H 0.15993 0.10134 0.3845 0.0
H900 H 0.13127 0.10443 0.34382 0.0
H901 H 0.16213 0.12843 0.33638 0.0
H902 H 0.11861 0.10965 0.38693 0.0
H903 H 0.09981 0.06026 0.33616 0.0
H904 H 0.12103 0.04264 0.3173 0.0
H905 H 0.17909 0.037 0.3433 0.0
H906 H 0.15814 0.05428 0.36238 0.0
H907 H 0.00561 0.08018 0.38539 0.0
H908 H 0.04343 0.09366 0.38037 0.0
H909 H 0.06727 0.02517 0.37856 0.0
H910 H 0.02894 0.0116 0.38274 0.0
H911 H 0.08677 0.04659 0.35982 0.0
H912 H 0.07748 0.0615 0.40716 0.0
H913 H 0.05886 0.0754 0.42809 0.0
H914 H 0.06238 0.14302 0.41282 0.0
H915 H 0.08075 0.1295 0.39171 0.0
C916 C 0.17783 0.12125 0.36978 0.0
C917 C 0.17865 0.12928 0.35623 0.0
C918 C 0.16037 0.10707 0.37396 0.0
C919 C 0.14334 0.10081 0.3647 0.0
C920 C 0.14445 0.1085 0.35109 0.0
C921 C 0.16206 0.12237 0.34686 0.0
C922 C 0.1234 0.08793 0.36948 0.0
C923 C 0.11179 0.09571 0.38107 0.0
C924 C 0.11476 0.0693 0.3621 0.0
C925 C 0.12742 0.05873 0.35068 0.0
C926 C 0.11706 0.05516 0.33788 0.0
C927 C 0.12906 0.04525 0.32714 0.0
C928 C 0.15141 0.03876 0.32909 0.0
C929 C 0.1618 0.04211 0.34179 0.0
C930 C 0.14988 0.05199 0.35256 0.0
C931 C 0.01893 0.06801 0.38391 0.0
C932 C 0.01444 0.04487 0.38452 0.0
C933 C 0.0406 0.07572 0.38115 0.0
C934 C 0.05842 0.06047 0.37945 0.0
C935 C 0.05387 0.03729 0.37989 0.0
C936 C 0.032 0.02954 0.3823 0.0
C937 C 0.08162 0.06888 0.37696 0.0
C938 C 0.0938 0.06027 0.36581 0.0
C939 C 0.09126 0.08618 0.38506 0.0
C940 C 0.0804 0.09445 0.39781 0.0
C941 C 0.07419 0.07932 0.40823 0.0
C942 C 0.06368 0.08714 0.42013 0.0
C943 C 0.05941 0.11007 0.42177 0.0
C944 C 0.0657 0.12526 0.41153 0.0
C945 C 0.07619 0.11753 0.39961 0.0
H946 H 0.05126 0.11609 0.43098 0.0
H947 H 0.16066 0.0311 0.32076 0.0
H948 H 0.62101 0.42971 0.08565 0.0
H949 H 0.64612 0.39907 0.09232 0.0
H950 H 0.61359 0.39532 0.1318 0.0
H951 H 0.58894 0.42643 0.12535 0.0
H952 H 0.65719 0.38665 0.13446 0.0
H953 H 0.59715 0.36175 0.105 0.0
H954 H 0.57384 0.36195 0.08405 0.0
H955 H 0.63186 0.34627 0.05971 0.0
H956 H 0.6556 0.34634 0.08051 0.0
H957 H 0.66569 0.2707 0.15092 0.0
H958 H 0.65312 0.30844 0.14466 0.0
H959 H 0.69765 0.30802 0.10979 0.0
H960 H 0.71057 0.27023 0.11608 0.0
H961 H 0.65251 0.32016 0.1038 0.0
H962 H 0.7113 0.34037 0.13506 0.0
H963 H 0.73248 0.33894 0.1568 0.0
H964 H 0.67421 0.36166 0.17873 0.0
H965 H 0.65257 0.36291 0.15714 0.0
C966 C 0.6195 0.42263 0.09585 0.0
C967 C 0.6028 0.43022 0.10491 0.0
C968 C 0.6338 0.40509 0.09963 0.0
C969 C 0.63136 0.39456 0.11243 0.0
C970 C 0.6157 0.40312 0.12184 0.0
C971 C 0.60157 0.42086 0.11813 0.0
C972 C 0.64363 0.37349 0.11558 0.0
C973 C 0.6561 0.37208 0.12779 0.0
C974 C 0.64246 0.35456 0.10678 0.0
C975 C 0.62819 0.35431 0.09428 0.0
C976 C 0.60496 0.35851 0.09516 0.0
C977 C 0.59167 0.35856 0.08333 0.0
C978 C 0.60137 0.35419 0.07056 0.0
C979 C 0.62438 0.3497 0.06961 0.0
C980 C 0.63776 0.34969 0.08142 0.0
C981 C 0.67292 0.27867 0.14196 0.0
C982 C 0.68908 0.26752 0.13396 0.0
C983 C 0.66581 0.30027 0.13845 0.0
C984 C 0.67461 0.31102 0.12684 0.0
C985 C 0.69078 0.29998 0.11883 0.0
C986 C 0.69813 0.27845 0.12244 0.0
C987 C 0.66589 0.33329 0.1227 0.0
C988 C 0.65395 0.33486 0.11034 0.0
C989 C 0.66726 0.35219 0.13147 0.0
C990 C 0.68026 0.35156 0.14448 0.0
C991 C 0.70294 0.34488 0.14453 0.0
C992 C 0.71504 0.34414 0.15683 0.0
C993 C 0.70469 0.35016 0.16914 0.0
C994 C 0.68221 0.35699 0.16918 0.0
C995 C 0.67003 0.35775 0.15691 0.0
H996 H 0.71408 0.34957 0.17866 0.0
H997 H 0.59105 0.35423 0.0614 0.0
H998 H 0.46774 0.96025 0.87142 0.0
H999 H 0.43067 0.94563 0.86509 0.0
H1000 H 0.4346 0.89738 0.89809 0.0
H1001 H 0.47193 0.91134 0.9041 0.0
H1002 H 0.42074 0.87729 0.87639 0.0
H1003 H 0.39996 0.94554 0.89914 0.0
H1004 H 0.4003 0.98628 0.90382 0.0
H1005 H 0.37646 -0.00059 0.863 0.0
H1006 H 0.37627 0.95874 0.85801 0.0
H1007 H 0.30804 0.84211 0.87715 0.0
H1008 H 0.34076 0.86392 0.8845 0.0
H1009 H 0.34387 0.89562 0.84478 0.0
H1010 H 0.31126 0.87359 0.83722 0.0
H1011 H 0.35315 0.92486 0.86945 0.0
H1012 H 0.37508 0.85526 0.84729 0.0
H1013 H 0.37284 0.81422 0.84397 0.0
H1014 H 0.39348 0.80371 0.88571 0.0
H1015 H 0.39541 0.84474 0.88935 0.0
C1016 C 0.46061 0.94661 0.87736 0.0
C1017 C 0.47273 0.93689 0.88823 0.0
C1018 C 0.43937 0.93834 0.87379 0.0
C1019 C 0.4297 0.92054 0.8812 0.0
C1020 C 0.44171 0.91108 0.89219 0.0
C1021 C 0.46303 0.9191 0.89563 0.0
C1022 C 0.40753 0.91104 0.87721 0.0
C1023 C 0.40596 0.88774 0.87507 0.0
C1024 C 0.38824 0.92464 0.87519 0.0
C1025 C 0.38833 0.9491 0.87816 0.0
C1026 C 0.39497 0.95712 0.89112 0.0
C1027 C 0.3951 0.9802 0.89384 0.0
C1028 C 0.38847 -0.00457 0.8837 0.0
C1029 C 0.38163 0.9876 0.87083 0.0
C1030 C 0.38149 0.96454 0.86806 0.0
C1031 C 0.31539 0.85402 0.87005 0.0
C1032 C 0.30727 0.85595 0.85655 0.0
C1033 C 0.33406 0.86647 0.87427 0.0
C1034 C 0.34473 0.88119 0.86513 0.0
C1035 C 0.33577 0.88433 0.85196 0.0
C1036 C 0.31725 0.87167 0.84765 0.0
C1037 C 0.36658 0.89132 0.86884 0.0
C1038 C 0.36805 0.9146 0.87083 0.0
C1039 C 0.38576 0.87773 0.8709 0.0
C1040 C 0.38516 0.85306 0.86863 0.0
C1041 C 0.37897 0.8442 0.85579 0.0
C1042 C 0.37778 0.82094 0.85384 0.0
C1043 C 0.38296 0.80636 0.86463 0.0
C1044 C 0.38944 0.81502 0.87737 0.0
C1045 C 0.39059 0.83828 0.87938 0.0
H1046 H 0.38199 0.78836 0.86311 0.0
H1047 H 0.38857 0.01329 0.88582 0.0
H1048 H 0.89342 0.42001 0.86021 0.0
H1049 H 0.86796 0.38962 0.85379 0.0
H1050 H 0.8392 0.3905 0.89442 0.0
H1051 H 0.86534 0.42036 0.90106 0.0
H1052 H 0.84846 0.34989 0.88807 0.0
H1053 H 0.80941 0.40824 0.86498 0.0
H1054 H 0.80438 0.4412 0.84996 0.0
H1055 H 0.82694 0.40276 0.81534 0.0
H1056 H 0.83244 0.36965 0.83018 0.0
H1057 H 0.76802 0.26664 0.86808 0.0
H1058 H 0.78214 0.30396 0.87448 0.0
H1059 H 0.82848 0.30223 0.84052 0.0
H1060 H 0.81474 0.26484 0.83419 0.0
H1061 H 0.80522 0.34494 0.84459 0.0
H1062 H 0.84841 0.28847 0.86936 0.0
H1063 H 0.8523 0.25585 0.88479 0.0
H1064 H 0.81931 0.29236 0.91699 0.0
H1065 H 0.81492 0.3251 0.90165 0.0
C1066 C 0.88145 0.41396 0.86771 0.0
C1067 C 0.88145 0.42247 0.88116 0.0
C1068 C 0.86677 0.39666 0.864 0.0
C1069 C 0.85145 0.38787 0.87357 0.0
C1070 C 0.85087 0.39697 0.88686 0.0
C1071 C 0.86578 0.41406 0.89064 0.0
C1072 C 0.83751 0.36793 0.87005 0.0
C1073 C 0.83859 0.34909 0.87871 0.0
C1074 C 0.82485 0.36663 0.85774 0.0
C1075 C 0.82149 0.38648 0.84873 0.0
C1076 C 0.81345 0.40685 0.85418 0.0
C1077 C 0.8105 0.42556 0.84569 0.0
C1078 C 0.81538 0.42409 0.83171 0.0
C1079 C 0.82318 0.40388 0.82617 0.0
C1080 C 0.82619 0.38512 0.83462 0.0
C1081 C 0.78105 0.27432 0.86191 0.0
C1082 C 0.79042 0.2628 0.8507 0.0
C1083 C 0.78907 0.2956 0.86557 0.0
C1084 C 0.80635 0.30574 0.85797 0.0
C1085 C 0.81508 0.29466 0.84647 0.0
C1086 C 0.80733 0.27327 0.84293 0.0
C1087 C 0.81652 0.32716 0.86254 0.0
C1088 C 0.81477 0.34612 0.85406 0.0
C1089 C 0.82833 0.32872 0.87509 0.0
C1090 C 0.83109 0.30911 0.88432 0.0
C1091 C 0.8418 0.28946 0.87969 0.0
C1092 C 0.84413 0.27097 0.88843 0.0
C1093 C 0.83599 0.272 0.90185 0.0
C1094 C 0.82556 0.29156 0.90658 0.0
C1095 C 0.82315 0.31009 0.89787 0.0
H1096 H 0.83782 0.25767 0.9086 0.0
H1097 H 0.81309 0.43859 0.82515 0.0
H1098 H 0.30375 0.12986 0.61505 0.0
H1099 H 0.33585 0.10569 0.60966 0.0
H1100 H 0.35231 0.10143 0.65269 0.0
H1101 H 0.32039 0.12555 0.65817 0.0
H1102 H 0.38755 0.11553 0.63742 0.0
H1103 H 0.33392 0.05578 0.63641 0.0
H1104 H 0.29897 0.03649 0.62951 0.0
H1105 H 0.32029 0.03729 0.58745 0.0
H1106 H 0.35523 0.0569 0.59407 0.0
H1107 H 0.46449 0.01636 0.61749 0.0
H1108 H 0.4275 0.03012 0.62474 0.0
H1109 H 0.43889 0.09202 0.60279 0.0
H1110 H 0.47573 0.0785 0.59552 0.0
H1111 H 0.3894 0.04542 0.60984 0.0
H1112 H 0.42106 0.13449 0.62334 0.0
H1113 H 0.45604 0.15314 0.63087 0.0
H1114 H 0.47816 0.0919 0.64989 0.0
H1115 H 0.44318 0.07299 0.64265 0.0
C1116 C 0.31397 0.12343 0.62338 0.0
C1117 C 0.3097 0.1298 0.63702 0.0
C1118 C 0.33224 0.10956 0.62029 0.0
C1119 C 0.34645 0.10183 0.63078 0.0
C1120 C 0.34157 0.10729 0.64445 0.0
C1121 C 0.3233 0.12105 0.64755 0.0
C1122 C 0.36763 0.09002 0.62744 0.0
C1123 C 0.38792 0.10013 0.63145 0.0
C1124 C 0.36808 0.06985 0.61975 0.0
C1125 C 0.34712 0.05799 0.61573 0.0
C1126 C 0.33108 0.05202 0.62567 0.0
C1127 C 0.31128 0.04099 0.62182 0.0
C1128 C 0.30739 0.03571 0.60805 0.0
C1129 C 0.32332 0.0414 0.59811 0.0
C1130 C 0.34313 0.05245 0.60191 0.0
C1131 C 0.45904 0.03286 0.61416 0.0
C1132 C 0.47308 0.04644 0.60604 0.0
C1133 C 0.4379 0.04061 0.61825 0.0
C1134 C 0.43061 0.06212 0.61438 0.0
C1135 C 0.44434 0.07544 0.60597 0.0
C1136 C 0.46538 0.06769 0.60184 0.0
C1137 C 0.40916 0.07123 0.61961 0.0
C1138 C 0.38892 0.0607 0.6159 0.0
C1139 C 0.40867 0.09095 0.6277 0.0
C1140 C 0.42958 0.10229 0.63235 0.0
C1141 C 0.43334 0.12504 0.62919 0.0
C1142 C 0.45318 0.13565 0.6334 0.0
C1143 C 0.46934 0.1237 0.64082 0.0
C1144 C 0.46566 0.10113 0.6441 0.0
C1145 C 0.44585 0.09045 0.63993 0.0
H1146 H 0.4847 0.13193 0.64405 0.0
H1147 H 0.29205 0.02717 0.60509 0.0
H1148 H 0.657 0.72497 0.34404 0.0
H1149 H 0.64386 0.68801 0.35146 0.0
H1150 H 0.70901 0.67402 0.36894 0.0
H1151 H 0.72233 0.71121 0.36163 0.0
H1152 H 0.68935 0.63736 0.35338 0.0
H1153 H 0.67171 0.68803 0.39019 0.0
H1154 H 0.65613 0.72266 0.40031 0.0
H1155 H 0.59029 0.70479 0.38579 0.0
H1156 H 0.60555 0.6702 0.3754 0.0
H1157 H 0.61692 0.56547 0.40484 0.0
H1158 H 0.6409 0.59734 0.39889 0.0
H1159 H 0.62787 0.58568 0.35593 0.0
H1160 H 0.60394 0.55361 0.3618 0.0
H1161 H 0.62594 0.63454 0.38638 0.0
H1162 H 0.67294 0.60564 0.33736 0.0
H1163 H 0.68929 0.57098 0.32773 0.0
H1164 H 0.69848 0.54453 0.36833 0.0
H1165 H 0.68249 0.57914 0.37822 0.0
C1166 C 0.66859 0.71403 0.34941 0.0
C1167 C 0.69065 0.72104 0.35234 0.0
C1168 C 0.66105 0.69293 0.35364 0.0
C1169 C 0.67546 0.67841 0.36079 0.0
C1170 C 0.69769 0.68504 0.36341 0.0
C1171 C 0.7052 0.70629 0.3593 0.0
C1172 C 0.66684 0.65672 0.36598 0.0
C1173 C 0.67555 0.63664 0.36063 0.0
C1174 C 0.64909 0.65593 0.37559 0.0
C1175 C 0.63982 0.67662 0.38192 0.0
C1176 C 0.65394 0.69157 0.38906 0.0
C1177 C 0.64516 0.71118 0.39486 0.0
C1178 C 0.62224 0.71594 0.39367 0.0
C1179 C 0.60804 0.70108 0.3867 0.0
C1180 C 0.61675 0.68146 0.38086 0.0
C1181 C 0.61945 0.56943 0.39411 0.0
C1182 C 0.60837 0.55716 0.38378 0.0
C1183 C 0.63314 0.58767 0.39074 0.0
C1184 C 0.63615 0.59388 0.37698 0.0
C1185 C 0.62596 0.58103 0.36661 0.0
C1186 C 0.61222 0.56277 0.36998 0.0
C1187 C 0.64811 0.61501 0.3736 0.0
C1188 C 0.6399 0.6351 0.37923 0.0
C1189 C 0.66641 0.61572 0.36435 0.0
C1190 C 0.67633 0.59493 0.35852 0.0
C1191 C 0.67855 0.59247 0.34424 0.0
C1192 C 0.68773 0.57282 0.33873 0.0
C1193 C 0.69486 0.55554 0.34741 0.0
C1194 C 0.69288 0.55789 0.36162 0.0
C1195 C 0.68372 0.57752 0.36718 0.0
H1196 H 0.70195 0.54033 0.34313 0.0
H1197 H 0.61548 0.73113 0.39817 0.0
H1198 H 0.17272 0.85206 0.11368 0.0
H1199 H 0.14116 0.87678 0.1086 0.0
H1200 H 0.14217 0.90124 0.1503 0.0
H1201 H 0.17334 0.87585 0.15557 0.0
H1202 H 0.10182 0.88987 0.14403 0.0
H1203 H 0.15627 0.93551 0.12218 0.0
H1204 H 0.18831 0.94494 0.10722 0.0
H1205 H 0.15089 0.92316 0.07193 0.0
H1206 H 0.11872 0.91329 0.08669 0.0
H1207 H 0.01096 0.96397 0.12605 0.0
H1208 H 0.04919 0.95261 0.13258 0.0
H1209 H 0.05232 0.90893 0.09732 0.0
H1210 H 0.01411 0.91985 0.09087 0.0
H1211 H 0.09222 0.93634 0.10217 0.0
H1212 H 0.04049 0.88569 0.12559 0.0
H1213 H 0.00867 0.87731 0.14095 0.0
H1214 H 0.04232 0.91114 0.17406 0.0
H1215 H 0.07423 0.92 0.15881 0.0
C1216 C 0.1665 0.86298 0.12171 0.0
C1217 C 0.17539 0.86189 0.13506 0.0
C1218 C 0.14851 0.87726 0.11877 0.0
C1219 C 0.13935 0.89106 0.12903 0.0
C1220 C 0.14892 0.89074 0.14221 0.0
C1221 C 0.16676 0.87626 0.14521 0.0
C1222 C 0.11844 0.90396 0.12633 0.0
C1223 C 0.09997 0.90049 0.13505 0.0
C1224 C 0.11581 0.91761 0.11452 0.0
C1225 C 0.13511 0.92352 0.10557 0.0
C1226 C 0.15492 0.93257 0.11124 0.0
C1227 C 0.1731 0.93802 0.10279 0.0
C1228 C 0.17165 0.93461 0.08864 0.0
C1229 C 0.15199 0.92579 0.0829 0.0
C1230 C 0.13376 0.92029 0.0913 0.0
C1231 C 0.01987 0.95203 0.11967 0.0
C1232 C 0.00955 0.94265 0.10802 0.0
C1233 C 0.04166 0.94561 0.1234 0.0
C1234 C 0.05348 0.92998 0.11541 0.0
C1235 C 0.04345 0.9211 0.10357 0.0
C1236 C 0.02159 0.92722 0.09997 0.0
C1237 C 0.07585 0.9218 0.11972 0.0
C1238 C 0.09443 0.92612 0.11129 0.0
C1239 C 0.07871 0.90916 0.13186 0.0
C1240 C 0.05959 0.90376 0.14102 0.0
C1241 C 0.041 0.89153 0.13611 0.0
C1242 C 0.02297 0.88665 0.1448 0.0
C1243 C 0.02343 0.89375 0.15846 0.0
C1244 C 0.04196 0.90569 0.16347 0.0
C1245 C 0.06002 0.91064 0.15481 0.0
H1246 H 0.00947 0.88996 0.16518 0.0
H1247 H 0.18574 0.93885 0.08212 0.0
H1248 H 0.65113 0.74997 0.83627 0.0
H1249 H 0.63845 0.78664 0.84431 0.0
H1250 H 0.69127 0.78751 0.87465 0.0
H1251 H 0.70455 0.75071 0.8664 0.0
H1252 H 0.64261 0.79767 0.88352 0.0
H1253 H 0.70071 0.82109 0.85278 0.0
H1254 H 0.72213 0.82066 0.83115 0.0
H1255 H 0.66305 0.84054 0.8089 0.0
H1256 H 0.64116 0.84073 0.83037 0.0
H1257 H 0.60109 0.90809 0.89835 0.0
H1258 H 0.62741 0.87713 0.89441 0.0
H1259 H 0.59989 0.86766 0.85383 0.0
H1260 H 0.57405 0.89876 0.85753 0.0
H1261 H 0.64386 0.86436 0.85295 0.0
H1262 H 0.58463 0.83426 0.88163 0.0
H1263 H 0.56079 0.83243 0.90229 0.0
H1264 H 0.61939 0.82327 0.92746 0.0
H1265 H 0.6436 0.82532 0.90695 0.0
C1266 C 0.66012 0.75791 0.84465 0.0
C1267 C 0.67882 0.74745 0.85073 0.0
C1268 C 0.65289 0.77889 0.84919 0.0
C1269 C 0.664 0.78971 0.86001 0.0
C1270 C 0.68257 0.77934 0.86625 0.0
C1271 C 0.69014 0.75843 0.86151 0.0
C1272 C 0.65553 0.81169 0.86478 0.0
C1273 C 0.64337 0.81251 0.87707 0.0
C1274 C 0.65614 0.83073 0.85613 0.0
C1275 C 0.66926 0.83078 0.84319 0.0
C1276 C 0.69223 0.82519 0.84326 0.0
C1277 C 0.70447 0.82502 0.83103 0.0
C1278 C 0.69395 0.83053 0.81865 0.0
C1279 C 0.67118 0.83627 0.81849 0.0
C1280 C 0.65885 0.83644 0.83069 0.0
C1281 C 0.60072 0.89946 0.88857 0.0
C1282 C 0.58538 0.90585 0.87827 0.0
C1283 C 0.61574 0.88174 0.88635 0.0
C1284 C 0.61549 0.86993 0.87387 0.0
C1285 C 0.60046 0.87656 0.86353 0.0
C1286 C 0.5856 0.89432 0.86569 0.0
C1287 C 0.63031 0.85024 0.87155 0.0
C1288 C 0.6436 0.84981 0.85966 0.0
C1289 C 0.63045 0.83144 0.88048 0.0
C1290 C 0.61593 0.83025 0.8928 0.0
C1291 C 0.59244 0.83205 0.89159 0.0
C1292 C 0.57886 0.83093 0.90326 0.0
C1293 C 0.58857 0.82782 0.91618 0.0
C1294 C 0.61189 0.82574 0.91745 0.0
C1295 C 0.62555 0.82687 0.90581 0.0
H1296 H 0.57803 0.82696 0.92521 0.0
H1297 H 0.70346 0.83039 0.8092 0.0
H1298 H 0.46906 0.45235 0.10038 0.0
H1299 H 0.43339 0.43543 0.10751 0.0
H1300 H 0.46798 0.37373 0.11741 0.0
H1301 H 0.50335 0.39022 0.10976 0.0
H1302 H 0.43411 0.36407 0.10288 0.0
H1303 H 0.44495 0.41026 0.14242 0.0
H1304 H 0.45209 0.44528 0.15525 0.0
H1305 H 0.39188 0.47429 0.13857 0.0
H1306 H 0.38454 0.43953 0.12549 0.0
H1307 H 0.33161 0.33655 0.1486 0.0
H1308 H 0.3656 0.35878 0.14481 0.0
H1309 H 0.35455 0.3556 0.10109 0.0
H1310 H 0.32096 0.33275 0.10477 0.0
H1311 H 0.37681 0.39752 0.13364 0.0
H1312 H 0.40353 0.34903 0.08474 0.0
H1313 H 0.39857 0.3115 0.07435 0.0
H1314 H 0.38804 0.28283 0.11425 0.0
H1315 H 0.39324 0.3201 0.12488 0.0
C1316 C 0.46906 0.4353 0.10429 0.0
C1317 C 0.48892 0.42253 0.10443 0.0
C1318 C 0.44868 0.42566 0.10841 0.0
C1319 C 0.44796 0.40328 0.11303 0.0
C1320 C 0.46803 0.39094 0.11377 0.0
C1321 C 0.48826 0.4004 0.10943 0.0
C1322 C 0.42621 0.39205 0.11609 0.0
C1323 C 0.42164 0.37143 0.10964 0.0
C1324 C 0.40997 0.40143 0.12502 0.0
C1325 C 0.41432 0.42236 0.13287 0.0
C1326 C 0.43333 0.42417 0.1414 0.0
C1327 C 0.43739 0.44396 0.14874 0.0
C1328 C 0.42248 0.46202 0.1477 0.0
C1329 C 0.40344 0.4603 0.13935 0.0
C1330 C 0.3993 0.44054 0.13198 0.0
C1331 C 0.33629 0.34075 0.13818 0.0
C1332 C 0.32377 0.33261 0.12697 0.0
C1333 C 0.35569 0.35354 0.13603 0.0
C1334 C 0.36284 0.35852 0.12266 0.0
C1335 C 0.34962 0.35154 0.11149 0.0
C1336 C 0.33039 0.33851 0.11361 0.0
C1337 C 0.38483 0.3697 0.12037 0.0
C1338 C 0.38936 0.39027 0.1269 0.0
C1339 C 0.40142 0.35995 0.11186 0.0
C1340 C 0.39853 0.3374 0.10558 0.0
C1341 C 0.40023 0.33469 0.09129 0.0
C1342 C 0.39737 0.31347 0.08536 0.0
C1343 C 0.39292 0.29481 0.09363 0.0
C1344 C 0.39141 0.29731 0.10786 0.0
C1345 C 0.39429 0.31848 0.11383 0.0
H1346 H 0.39068 0.2784 0.08902 0.0
H1347 H 0.42565 0.47733 0.15339 0.0
H1348 H 0.92138 0.09485 0.36204 0.0
H1349 H 0.89768 0.12829 0.36126 0.0
H1350 H 0.85852 0.10309 0.39512 0.0
H1351 H 0.88257 0.06953 0.3962 0.0
H1352 H 0.83423 0.1223 0.36916 0.0
H1353 H 0.88717 0.13979 0.40494 0.0
H1354 H 0.92499 0.14165 0.41527 0.0
H1355 H 0.9471 0.18505 0.38277 0.0
H1356 H 0.90949 0.18316 0.37212 0.0
H1357 H 0.7827 0.2318 0.36678 0.0
H1358 H 0.79826 0.19674 0.37604 0.0
H1359 H 0.86139 0.21062 0.35597 0.0
H1360 H 0.84636 0.24563 0.34709 0.0
H1361 H 0.86923 0.19575 0.38055 0.0
H1362 H 0.82067 0.17347 0.34272 0.0
H1363 H 0.78448 0.17063 0.33044 0.0
H1364 H 0.75553 0.1359 0.36477 0.0
H1365 H 0.79151 0.13878 0.37731 0.0
C1366 C 0.90766 0.09629 0.36929 0.0
C1367 C 0.90387 0.07957 0.37921 0.0
C1368 C 0.89418 0.11542 0.36884 0.0
C1369 C 0.87648 0.11809 0.37816 0.0
C1370 C 0.87216 0.10123 0.38785 0.0
C1371 C 0.88593 0.08218 0.38848 0.0
C1372 C 0.8631 0.13896 0.37779 0.0
C1373 C 0.84155 0.13838 0.37197 0.0
C1374 C 0.87295 0.15982 0.38124 0.0
C1375 C 0.89554 0.1612 0.38769 0.0
C1376 C 0.90014 0.14958 0.39993 0.0
C1377 C 0.92154 0.15067 0.40586 0.0
C1378 C 0.93845 0.16343 0.39967 0.0
C1379 C 0.93398 0.17517 0.38756 0.0
C1380 C 0.91262 0.17412 0.38158 0.0
C1381 C 0.79993 0.22739 0.36442 0.0
C1382 C 0.81326 0.24151 0.35617 0.0
C1383 C 0.80877 0.20733 0.36968 0.0
C1384 C 0.83095 0.20095 0.36662 0.0
C1385 C 0.84428 0.21521 0.35855 0.0
C1386 C 0.83559 0.23524 0.35342 0.0
C1387 C 0.84054 0.17931 0.37142 0.0
C1388 C 0.86149 0.17972 0.37808 0.0
C1389 C 0.83025 0.15833 0.36855 0.0
C1390 C 0.80866 0.15661 0.36102 0.0
C1391 C 0.80652 0.16539 0.34769 0.0
C1392 C 0.78607 0.16374 0.34067 0.0
C1393 C 0.76769 0.15317 0.34684 0.0
C1394 C 0.76976 0.14415 0.36002 0.0
C1395 C 0.79018 0.14577 0.36708 0.0
H1396 H 0.75187 0.1519 0.34139 0.0
H1397 H 0.955 0.16425 0.40427 0.0
H1398 H 0.15988 0.6348 0.64418 0.0
H1399 H 0.12608 0.61142 0.64151 0.0
H1400 H 0.106 0.651 0.60653 0.0
H1401 H 0.13967 0.67411 0.60894 0.0
H1402 H 0.07216 0.64466 0.62771 0.0
H1403 H 0.12658 0.60289 0.60033 0.0
H1404 H 0.16203 0.58209 0.59712 0.0
H1405 H 0.14231 0.53481 0.62815 0.0
H1406 H 0.10685 0.55555 0.63167 0.0
H1407 H 0.98822 0.59316 0.59002 0.0
H1408 H 0.0228 0.61005 0.59838 0.0
H1409 H 0.03471 0.5523 0.62417 0.0
H1410 H 0.00014 0.53478 0.61542 0.0
H1411 H 0.07264 0.56504 0.61249 0.0
H1412 H 0.01645 0.60263 0.63803 0.0
H1413 H 0.98095 0.62287 0.64219 0.0
H1414 H 0.0036 0.67743 0.61689 0.0
H1415 H 0.03911 0.65739 0.6124 0.0
C1416 C 0.14831 0.63842 0.63588 0.0
C1417 C 0.15244 0.6563 0.62677 0.0
C1418 C 0.12907 0.62505 0.63437 0.0
C1419 C 0.11362 0.62957 0.62385 0.0
C1420 C 0.11775 0.64732 0.61473 0.0
C1421 C 0.13706 0.66043 0.6161 0.0
C1422 C 0.09275 0.6163 0.62235 0.0
C1423 C 0.07218 0.62727 0.62434 0.0
C1424 C 0.09295 0.59338 0.61854 0.0
C1425 C 0.11422 0.58093 0.61639 0.0
C1426 C 0.12991 0.5882 0.60657 0.0
C1427 C 0.14998 0.57639 0.60467 0.0
C1428 C 0.15446 0.55719 0.61246 0.0
C1429 C 0.13884 0.54971 0.62214 0.0
C1430 C 0.11876 0.56148 0.62409 0.0
C1431 C -0.00193 0.58402 0.59752 0.0
C1432 C 0.9913 0.56269 0.60215 0.0
C1433 C 0.01784 0.59378 0.60235 0.0
C1434 C 0.0311 0.58271 0.61216 0.0
C1435 C 0.02464 0.56123 0.61668 0.0
C1436 C 0.00489 0.55126 0.61169 0.0
C1437 C 0.05188 0.59366 0.61734 0.0
C1438 C 0.07246 0.58229 0.61612 0.0
C1439 C 0.05171 0.61618 0.62209 0.0
C1440 C 0.03043 0.62843 0.62483 0.0
C1441 C 0.01382 0.61889 0.63328 0.0
C1442 C -0.00631 0.63033 0.63571 0.0
C1443 C 0.99001 0.65141 0.62979 0.0
C1444 C 0.00648 0.6611 0.62147 0.0
C1445 C 0.02663 0.64972 0.619 0.0
H1446 H 0.97442 0.66023 0.63168 0.0
H1447 H 0.17 0.54806 0.61097 0.0
H1448 H 0.57882 0.0872 0.63214 0.0
H1449 H 0.60271 0.1204 0.63347 0.0
H1450 H 0.62022 0.1127 0.5908 0.0
H1451 H 0.59596 0.0795 0.58929 0.0
H1452 H 0.64636 0.12846 0.6298 0.0
H1453 H 0.62508 0.16605 0.57708 0.0
H1454 H 0.59509 0.16452 0.55956 0.0
H1455 H 0.54653 0.14896 0.59071 0.0
H1456 H 0.57618 0.15067 0.60841 0.0
H1457 H 0.70623 0.23179 0.6269 0.0
H1458 H 0.6921 0.19572 0.61828 0.0
H1459 H 0.62396 0.21921 0.62303 0.0
H1460 H 0.63782 0.25518 0.63144 0.0
H1461 H 0.62792 0.1939 0.6003 0.0
H1462 H 0.64915 0.18948 0.64841 0.0
H1463 H 0.67571 0.19241 0.66781 0.0
H1464 H 0.71881 0.14362 0.64885 0.0
H1465 H 0.69259 0.14059 0.62927 0.0
C1466 C 0.58783 0.09242 0.62303 0.0
C1467 C 0.5853 0.08077 0.61057 0.0
C1468 C 0.6016 0.11137 0.62384 0.0
C1469 C 0.61311 0.11913 0.61222 0.0
C1470 C 0.61128 0.10713 0.59986 0.0
C1471 C 0.59744 0.08815 0.59903 0.0
C1472 C 0.62599 0.14045 0.61303 0.0
C1473 C 0.64254 0.14267 0.62322 0.0
C1474 C 0.6209 0.15906 0.60453 0.0
C1475 C 0.6029 0.15819 0.59401 0.0
C1476 C 0.60799 0.16234 0.58017 0.0
C1477 C 0.59105 0.16144 0.57022 0.0
C1478 C 0.56893 0.15655 0.57401 0.0
C1479 C 0.56368 0.15264 0.58778 0.0
C1480 C 0.58055 0.15355 0.59777 0.0
C1481 C 0.68825 0.22942 0.62584 0.0
C1482 C 0.67313 0.24624 0.63003 0.0
C1483 C 0.68022 0.20879 0.62096 0.0
C1484 C 0.65698 0.2047 0.6202 0.0
C1485 C 0.64195 0.22199 0.62355 0.0
C1486 C 0.64992 0.24252 0.62844 0.0
C1487 C 0.64803 0.18198 0.61719 0.0
C1488 C 0.63221 0.17949 0.6066 0.0
C1489 C 0.65339 0.16326 0.62554 0.0
C1490 C 0.66908 0.16502 0.63732 0.0
C1491 C 0.66438 0.17951 0.64834 0.0
C1492 C 0.67935 0.18116 0.65938 0.0
C1493 C 0.69898 0.16827 0.65953 0.0
C1494 C 0.70363 0.15363 0.64869 0.0
C1495 C 0.68872 0.15193 0.63763 0.0
H1496 H 0.71057 0.16959 0.66807 0.0
H1497 H 0.55585 0.15585 0.5663 0.0
H1498 H 0.16135 0.34501 0.83591 0.0
H1499 H 0.13009 0.37177 0.83619 0.0
H1500 H 0.12147 0.36037 0.87957 0.0
H1501 H 0.15271 0.33399 0.87945 0.0
H1502 H 0.08737 0.36402 0.84189 0.0
H1503 H 0.10256 0.40577 0.89546 0.0
H1504 H 0.13462 0.41891 0.90939 0.0
H1505 H 0.17454 0.42633 0.87301 0.0
H1506 H 0.14264 0.41356 0.85883 0.0
H1507 H 0.99027 0.38806 0.87841 0.0
H1508 H 0.02639 0.37685 0.869 0.0
H1509 H 0.0454 0.4465 0.86465 0.0
H1510 H 0.00913 0.45798 0.87428 0.0
H1511 H 0.07762 0.42336 0.87715 0.0
H1512 H 0.03675 0.41489 0.8361 0.0
H1513 H 0.00541 0.40368 0.82099 0.0
H1514 H 0.01834 0.33415 0.82979 0.0
H1515 H 0.04954 0.34493 0.84512 0.0
C1516 C 0.15297 0.34842 0.84555 0.0
C1517 C 0.15951 0.3373 0.85766 0.0
C1518 C 0.13511 0.3637 0.84567 0.0
C1519 C 0.12361 0.36827 0.85792 0.0
C1520 C 0.13037 0.35747 0.87005 0.0
C1521 C 0.14817 0.34223 0.86993 0.0
C1522 C 0.10344 0.3829 0.85802 0.0
C1523 C 0.0853 0.37719 0.84948 0.0
C1524 C 0.101 0.40059 0.86761 0.0
C1525 C 0.12019 0.40859 0.87608 0.0
C1526 C 0.11812 0.41035 0.89041 0.0
C1527 C 0.13628 0.4177 0.89836 0.0
C1528 C 0.15661 0.42342 0.8921 0.0
C1529 C 0.1588 0.42184 0.87786 0.0
C1530 C 0.14069 0.41452 0.86986 0.0
C1531 C 0.00197 0.40107 0.87532 0.0
C1532 C -0.00317 0.42393 0.87718 0.0
C1533 C 0.02259 0.39461 0.86982 0.0
C1534 C 0.03852 0.41084 0.86598 0.0
C1535 C 0.03329 0.43371 0.86749 0.0
C1536 C 0.01255 0.44023 0.87297 0.0
C1537 C 0.06121 0.40354 0.86158 0.0
C1538 C 0.07983 0.4106 0.86932 0.0
C1539 C 0.06421 0.38742 0.85106 0.0
C1540 C 0.04548 0.38075 0.84181 0.0
C1541 C 0.03283 0.39721 0.83489 0.0
C1542 C 0.0151 0.39093 0.82627 0.0
C1543 C 0.00988 0.36822 0.82444 0.0
C1544 C 0.02241 0.35174 0.83121 0.0
C1545 C 0.04016 0.35793 0.83984 0.0
H1546 H -0.00386 0.36339 0.81776 0.0
H1547 H 0.17066 0.42909 0.89827 0.0
H1548 H 0.90052 0.8936 0.09232 0.0
H1549 H 0.87632 0.86072 0.09534 0.0
H1550 H 0.86013 0.88287 0.13635 0.0
H1551 H 0.88532 0.91498 0.13361 0.0
H1552 H 0.86949 0.84239 0.13784 0.0
H1553 H 0.82101 0.88305 0.10818 0.0
H1554 H 0.8097 0.90481 0.08778 0.0
H1555 H 0.82525 0.84853 0.06191 0.0
H1556 H 0.83694 0.82651 0.08214 0.0
H1557 H 0.77446 0.75507 0.12968 0.0
H1558 H 0.78851 0.79274 0.12398 0.0
H1559 H 0.85654 0.76775 0.12478 0.0
H1560 H 0.84282 0.73034 0.13052 0.0
H1561 H 0.8154 0.81209 0.1037 0.0
H1562 H 0.88783 0.80324 0.1436 0.0
H1563 H 0.89498 0.78384 0.16555 0.0
H1564 H 0.82408 0.78161 0.17365 0.0
H1565 H 0.81652 0.80128 0.15187 0.0
C1566 C 0.89157 0.89154 0.10191 0.0
C1567 C 0.89489 0.90671 0.11277 0.0
C1568 C 0.87759 0.87282 0.1036 0.0
C1569 C 0.86616 0.86933 0.11604 0.0
C1570 C 0.86883 0.88506 0.12668 0.0
C1571 C 0.88321 0.90342 0.12511 0.0
C1572 C 0.85304 0.84838 0.11843 0.0
C1573 C 0.85756 0.83597 0.13038 0.0
C1574 C 0.83705 0.84003 0.10889 0.0
C1575 C 0.83001 0.85319 0.09668 0.0
C1576 C 0.82217 0.87536 0.09813 0.0
C1577 C 0.81566 0.88773 0.0866 0.0
C1578 C 0.8168 0.87807 0.07356 0.0
C1579 C 0.82439 0.85599 0.07202 0.0
C1580 C 0.83093 0.84355 0.08352 0.0
C1581 C 0.79238 0.75753 0.12839 0.0
C1582 C 0.80754 0.7398 0.13077 0.0
C1583 C 0.80035 0.77904 0.12513 0.0
C1584 C 0.82356 0.78305 0.12422 0.0
C1585 C 0.83858 0.76505 0.12567 0.0
C1586 C 0.83068 0.74367 0.12896 0.0
C1587 C 0.83245 0.80619 0.12284 0.0
C1588 C 0.82718 0.81886 0.11115 0.0
C1589 C 0.84716 0.81524 0.13283 0.0
C1590 C 0.85161 0.80356 0.14603 0.0
C1591 C 0.87377 0.79869 0.15009 0.0
C1592 C 0.87789 0.78764 0.1625 0.0
C1593 C 0.85999 0.78145 0.17098 0.0
C1594 C 0.83792 0.78635 0.16707 0.0
C1595 C 0.83371 0.79742 0.15468 0.0
H1596 H 0.86321 0.7729 0.18058 0.0
H1597 H 0.81176 0.88768 0.06464 0.0
H1598 H 0.48031 0.52424 0.37521 0.0
H1599 H 0.4445 0.53687 0.3654 0.0
H1600 H 0.46545 0.60589 0.37017 0.0
H1601 H 0.50111 0.59353 0.37978 0.0
H1602 H 0.41277 0.56112 0.37785 0.0
H1603 H 0.44352 0.63849 0.34598 0.0
H1604 H 0.47541 0.64849 0.33104 0.0
H1605 H 0.48685 0.57866 0.32238 0.0
H1606 H 0.45483 0.56823 0.3371 0.0
H1607 H 0.3385 0.6516 0.37823 0.0
H1608 H 0.36993 0.62545 0.37911 0.0
H1609 H 0.36239 0.61212 0.33584 0.0
H1610 H 0.3309 0.63859 0.33481 0.0
H1611 H 0.40526 0.62011 0.34215 0.0
H1612 H 0.34858 0.57167 0.35877 0.0
H1613 H 0.31608 0.55987 0.3727 0.0
H1614 H 0.35512 0.56786 0.40947 0.0
H1615 H 0.38776 0.58003 0.39578 0.0
C1616 C 0.47741 0.54209 0.37396 0.0
C1617 C 0.49354 0.55788 0.37834 0.0
C1618 C 0.45693 0.54927 0.36838 0.0
C1619 C 0.45239 0.57231 0.36693 0.0
C1620 C 0.46873 0.58802 0.37096 0.0
C1621 C 0.48908 0.5809 0.37656 0.0
C1622 C 0.43001 0.58029 0.36234 0.0
C1623 C 0.41105 0.57381 0.36992 0.0
C1624 C 0.42767 0.59639 0.35174 0.0
C1625 C 0.4468 0.60258 0.34272 0.0
C1626 C 0.45273 0.62526 0.34082 0.0
C1627 C 0.47086 0.63101 0.3324 0.0
C1628 C 0.48317 0.61422 0.32578 0.0
C1629 C 0.47734 0.59165 0.32754 0.0
C1630 C 0.45922 0.58581 0.33594 0.0
C1631 C 0.34335 0.64301 0.3689 0.0
C1632 C 0.33218 0.64724 0.35644 0.0
C1633 C 0.36126 0.62792 0.36944 0.0
C1634 C 0.36832 0.61661 0.35758 0.0
C1635 C 0.35712 0.6206 0.34513 0.0
C1636 C 0.33912 0.63571 0.34458 0.0
C1637 C 0.38834 0.6018 0.35816 0.0
C1638 C 0.40685 0.60703 0.34984 0.0
C1639 C 0.39017 0.58427 0.36791 0.0
C1640 C 0.37061 0.57686 0.37623 0.0
C1641 C 0.3502 0.57105 0.36983 0.0
C1642 C 0.33175 0.56428 0.37769 0.0
C1643 C 0.33353 0.56314 0.39196 0.0
C1644 C 0.35377 0.56874 0.39841 0.0
C1645 C 0.37227 0.57554 0.3906 0.0
H1646 H 0.31923 0.5579 0.39803 0.0
H1647 H 0.49721 0.6187 0.31928 0.0
H1648 H 0.37053 0.04425 0.12489 0.0
H1649 H 0.34472 0.07397 0.13216 0.0
H1650 H 0.35374 0.10728 0.09319 0.0
H1651 H 0.37849 0.07711 0.08568 0.0
H1652 H 0.35268 0.11438 0.13703 0.0
H1653 H 0.31196 0.14095 0.08473 0.0
H1654 H 0.29721 0.12274 0.06384 0.0
H1655 H 0.28646 0.06152 0.08623 0.0
H1656 H 0.30083 0.07944 0.1073 0.0
H1657 H 0.32734 0.22814 0.13801 0.0
H1658 H 0.34001 0.19031 0.13243 0.0
H1659 H 0.27114 0.16913 0.12689 0.0
H1660 H 0.2584 0.20745 0.13188 0.0
H1661 H 0.29483 0.15114 0.10802 0.0
H1662 H 0.30236 0.15443 0.15618 0.0
H1663 H 0.31323 0.16994 0.17869 0.0
H1664 H 0.38292 0.16595 0.16754 0.0
H1665 H 0.37247 0.15071 0.14488 0.0
C1666 C 0.3666 0.05771 0.1178 0.0
C1667 C 0.37648 0.05838 0.10473 0.0
C1668 C 0.35191 0.07471 0.12196 0.0
C1669 C 0.34705 0.09284 0.1132 0.0
C1670 C 0.35664 0.09324 0.10003 0.0
C1671 C 0.37096 0.07603 0.09578 0.0
C1672 C 0.33375 0.11235 0.11819 0.0
C1673 C 0.33987 0.12225 0.13073 0.0
C1674 C 0.31652 0.12236 0.11021 0.0
C1675 C 0.30763 0.11153 0.09759 0.0
C1676 C 0.30633 0.12365 0.08522 0.0
C1677 C 0.29806 0.11336 0.07334 0.0
C1678 C 0.29095 0.09098 0.0737 0.0
C1679 C 0.29204 0.07884 0.08595 0.0
C1680 C 0.30028 0.08904 0.09786 0.0
C1681 C 0.31488 0.21543 0.13561 0.0
C1682 C 0.29187 0.22069 0.13545 0.0
C1683 C 0.32213 0.19374 0.13251 0.0
C1684 C 0.30652 0.17668 0.12955 0.0
C1685 C 0.2835 0.18197 0.12921 0.0
C1686 C 0.27624 0.20384 0.13208 0.0
C1687 C 0.31446 0.15352 0.12655 0.0
C1688 C 0.30735 0.143 0.1144 0.0
C1689 C 0.33017 0.14246 0.13514 0.0
C1690 C 0.3366 0.15153 0.14879 0.0
C1691 C 0.32 0.15698 0.1585 0.0
C1692 C 0.32609 0.16572 0.17129 0.0
C1693 C 0.34875 0.16896 0.17454 0.0
C1694 C 0.36537 0.16343 0.16501 0.0
C1695 C 0.35938 0.15471 0.1522 0.0
H1696 H 0.35343 0.17573 0.18445 0.0
H1697 H 0.28457 0.08304 0.06449 0.0
H1698 H 0.50934 0.57255 0.89911 0.0
H1699 H 0.54628 0.58782 0.89361 0.0
H1700 H 0.55163 0.54205 0.85941 0.0
H1701 H 0.51481 0.52607 0.8652 0.0
H1702 H 0.5909 0.5454 0.87208 0.0
H1703 H 0.53706 0.59751 0.85464 0.0
H1704 H 0.50396 0.62241 0.85526 0.0
H1705 H 0.53541 0.66261 0.88646 0.0
H1706 H 0.56859 0.63775 0.88617 0.0
H1707 H 0.67313 0.61349 0.83642 0.0
H1708 H 0.64017 0.59152 0.84335 0.0
H1709 H 0.63852 0.62674 0.882 0.0
H1710 H 0.6716 0.64853 0.87527 0.0
H1711 H 0.59779 0.62802 0.86638 0.0
H1712 H 0.6525 0.57479 0.88285 0.0
H1713 H 0.68541 0.54985 0.88086 0.0
H1714 H 0.65199 0.51201 0.84932 0.0
H1715 H 0.61899 0.53695 0.85099 0.0
C1716 C 0.51839 0.56568 0.89043 0.0
C1717 C 0.50911 0.54827 0.88249 0.0
C1718 C 0.53948 0.57447 0.88727 0.0
C1719 C 0.55152 0.5664 0.87593 0.0
C1720 C 0.54258 0.54859 0.86818 0.0
C1721 C 0.52154 0.53954 0.87146 0.0
C1722 C 0.57317 0.577 0.87204 0.0
C1723 C 0.59235 0.56343 0.87064 0.0
C1724 C 0.57511 0.60056 0.8703 0.0
C1725 C 0.55523 0.61564 0.87046 0.0
C1726 C 0.53686 0.61157 0.8617 0.0
C1727 C 0.51809 0.62569 0.86199 0.0
C1728 C 0.51756 0.64405 0.87092 0.0
C1729 C 0.53583 0.64836 0.87956 0.0
C1730 C 0.55463 0.63428 0.87933 0.0
C1731 C 0.66597 0.61627 0.84649 0.0
C1732 C 0.67484 0.63281 0.85527 0.0
C1733 C 0.64721 0.60368 0.85044 0.0
C1734 C 0.63697 0.60758 0.86316 0.0
C1735 C 0.64625 0.62353 0.87214 0.0
C1736 C 0.66517 0.6359 0.86828 0.0
C1737 C 0.61549 0.59648 0.86663 0.0
C1738 C 0.59631 0.61 0.86784 0.0
C1739 C 0.61353 0.5729 0.86795 0.0
C1740 C 0.63336 0.5579 0.86694 0.0
C1741 C 0.65225 0.5613 0.8754 0.0
C1742 C 0.67091 0.54712 0.87435 0.0
C1743 C 0.67082 0.5294 0.86494 0.0
C1744 C 0.65205 0.52577 0.85659 0.0
C1745 C 0.63336 0.53991 0.85759 0.0
H1746 H 0.68528 0.51844 0.86415 0.0
H1747 H 0.50301 0.65496 0.87112 0.0
H1748 H 0.21803 0.77652 0.62602 0.0
H1749 H 0.20392 0.81419 0.62049 0.0
H1750 H 0.14092 0.79838 0.64013 0.0
H1751 H 0.1548 0.76088 0.64569 0.0
H1752 H 0.13497 0.81655 0.61479 0.0
H1753 H 0.1767 0.83223 0.6558 0.0
H1754 H 0.21009 0.83231 0.67083 0.0
H1755 H 0.24614 0.87192 0.6413 0.0
H1756 H 0.21304 0.87179 0.626 0.0
H1757 H 0.10433 0.93805 0.62717 0.0
H1758 H 0.12672 0.90564 0.63446 0.0
H1759 H 0.13985 0.88909 0.59217 0.0
H1760 H 0.11755 0.92134 0.58477 0.0
H1761 H 0.17104 0.88788 0.6296 0.0
H1762 H 0.1264 0.83336 0.58906 0.0
H1763 H 0.09147 0.8338 0.57534 0.0
H1764 H 0.05835 0.87177 0.60685 0.0
H1765 H 0.09292 0.87118 0.62084 0.0
C1766 C 0.20121 0.78114 0.6292 0.0
C1767 C 0.18749 0.76573 0.63625 0.0
C1768 C 0.19323 0.80266 0.62609 0.0
C1769 C 0.17141 0.80904 0.62994 0.0
C1770 C 0.15779 0.79374 0.63705 0.0
C1771 C 0.16578 0.77234 0.64023 0.0
C1772 C 0.16234 0.83135 0.62617 0.0
C1773 C 0.14292 0.83212 0.618 0.0
C1774 C 0.17257 0.85164 0.6305 0.0
C1775 C 0.19247 0.85179 0.63969 0.0
C1776 C 0.19181 0.84079 0.65246 0.0
C1777 C 0.21067 0.84088 0.66103 0.0
C1778 C 0.23025 0.85206 0.657 0.0
C1779 C 0.23098 0.86323 0.6444 0.0
C1780 C 0.21217 0.86317 0.63578 0.0
C1781 C 0.1124 0.9278 0.61943 0.0
C1782 C 0.10887 0.932 0.6054 0.0
C1783 C 0.12528 0.90938 0.62362 0.0
C1784 C 0.13465 0.89489 0.61384 0.0
C1785 C 0.13258 0.90003 0.59985 0.0
C1786 C 0.11979 0.91844 0.59566 0.0
C1787 C 0.14394 0.87294 0.6181 0.0
C1788 C 0.16329 0.87225 0.62633 0.0
C1789 C 0.13345 0.85264 0.61404 0.0
C1790 C 0.11233 0.85243 0.60591 0.0
C1791 C 0.11161 0.84168 0.59308 0.0
C1792 C 0.09188 0.84197 0.58526 0.0
C1793 C 0.07273 0.85287 0.5902 0.0
C1794 C 0.07322 0.86339 0.60301 0.0
C1795 C 0.09288 0.86309 0.61089 0.0
H1796 H 0.0575 0.85313 0.58411 0.0
H1797 H 0.24483 0.85212 0.66366 0.0
H1798 H 0.97565 0.41254 0.39822 0.0
H1799 H 0.93875 0.39761 0.39226 0.0
H1800 H 0.93324 0.44577 0.35932 0.0
H1801 H 0.97007 0.46136 0.36556 0.0
H1802 H 0.89407 0.44174 0.37195 0.0
H1803 H 0.94691 0.39073 0.35285 0.0
H1804 H 0.97989 0.36566 0.35229 0.0
H1805 H 0.94959 0.32328 0.38277 0.0
H1806 H 0.91655 0.34828 0.38366 0.0
H1807 H 0.81013 0.37246 0.33704 0.0
H1808 H 0.84327 0.39496 0.34312 0.0
H1809 H 0.84635 0.36212 0.3825 0.0
H1810 H 0.81306 0.33993 0.37666 0.0
H1811 H 0.88647 0.35945 0.36495 0.0
H1812 H 0.83309 0.41265 0.38344 0.0
H1813 H 0.80024 0.43782 0.38229 0.0
H1814 H 0.83192 0.47594 0.35028 0.0
H1815 H 0.86485 0.45077 0.3511 0.0
C1816 C 0.96661 0.41998 0.38971 0.0
C1817 C 0.97583 0.43797 0.38227 0.0
C1818 C 0.94553 0.41139 0.38628 0.0
C1819 C 0.93342 0.42027 0.37517 0.0
C1820 C 0.94234 0.4386 0.3679 0.0
C1821 C 0.96339 0.44742 0.37144 0.0
C1822 C 0.91163 0.41007 0.37111 0.0
C1823 C 0.89247 0.4238 0.37022 0.0
C1824 C 0.9095 0.38663 0.36891 0.0
C1825 C 0.92933 0.3715 0.3684 0.0
C1826 C 0.94735 0.37616 0.35951 0.0
C1827 C 0.96604 0.36194 0.35912 0.0
C1828 C 0.96686 0.34292 0.36751 0.0
C1829 C 0.94895 0.33804 0.37629 0.0
C1830 C 0.93022 0.35221 0.37673 0.0
C1831 C 0.8176 0.37039 0.3471 0.0
C1832 C 0.80911 0.35434 0.35634 0.0
C1833 C 0.83647 0.38326 0.35055 0.0
C1834 C 0.84719 0.38007 0.36322 0.0
C1835 C 0.83822 0.36475 0.37267 0.0
C1836 C 0.81919 0.35215 0.36932 0.0
C1837 C 0.86897 0.39103 0.36612 0.0
C1838 C 0.88814 0.3774 0.36667 0.0
C1839 C 0.87111 0.41454 0.36773 0.0
C1840 C 0.85132 0.42966 0.36722 0.0
C1841 C 0.83296 0.42625 0.37605 0.0
C1842 C 0.81434 0.44056 0.37548 0.0
C1843 C 0.81396 0.45842 0.36618 0.0
C1844 C 0.83222 0.46206 0.35746 0.0
C1845 C 0.85087 0.44779 0.35798 0.0
H1846 H 0.79954 0.46949 0.36576 0.0
H1847 H 0.98134 0.33193 0.3672 0.0
H1848 H 0.32108 0.76481 0.33313 0.0
H1849 H 0.33558 0.802 0.33888 0.0
H1850 H 0.29695 0.80171 0.37632 0.0
H1851 H 0.28159 0.76473 0.37029 0.0
H1852 H 0.29617 0.84213 0.3656 0.0
H1853 H 0.35409 0.7891 0.37592 0.0
H1854 H 0.38014 0.75768 0.37158 0.0
H1855 H 0.41141 0.79519 0.33916 0.0
H1856 H 0.38532 0.82674 0.34318 0.0
H1857 H 0.36713 0.9224 0.40055 0.0
H1858 H 0.3448 0.89001 0.3931 0.0
H1859 H 0.37409 0.89458 0.35276 0.0
H1860 H 0.39634 0.92702 0.36006 0.0
H1861 H 0.37895 0.85255 0.36525 0.0
H1862 H 0.32061 0.90668 0.35642 0.0
H1863 H 0.295 0.93779 0.36228 0.0
H1864 H 0.26532 0.89769 0.3941 0.0
H1865 H 0.29099 0.86644 0.38856 0.0
C1866 C 0.31561 0.7727 0.34257 0.0
C1867 C 0.3004 0.7618 0.35135 0.0
C1868 C 0.32396 0.79393 0.34587 0.0
C1869 C 0.31776 0.80444 0.35819 0.0
C1870 C 0.30205 0.79387 0.36679 0.0
C1871 C 0.29335 0.77274 0.36337 0.0
C1872 C 0.3282 0.82614 0.36221 0.0
C1873 C 0.31428 0.84433 0.36569 0.0
C1874 C 0.35184 0.82911 0.36219 0.0
C1875 C 0.36761 0.81019 0.35977 0.0
C1876 C 0.36641 0.79058 0.3678 0.0
C1877 C 0.3812 0.77276 0.3654 0.0
C1878 C 0.39738 0.77442 0.35507 0.0
C1879 C 0.39884 0.79392 0.34714 0.0
C1880 C 0.38407 0.81179 0.34948 0.0
C1881 C 0.36849 0.91676 0.39002 0.0
C1882 C 0.38363 0.92711 0.38093 0.0
C1883 C 0.35568 0.89832 0.38578 0.0
C1884 C 0.35786 0.88993 0.3724 0.0
C1885 C 0.37222 0.90083 0.36313 0.0
C1886 C 0.38488 0.91938 0.36732 0.0
C1887 C 0.34693 0.86854 0.36846 0.0
C1888 C 0.36083 0.85035 0.3651 0.0
C1889 C 0.32336 0.86553 0.36883 0.0
C1890 C 0.30788 0.88429 0.37216 0.0
C1891 C 0.30877 0.90456 0.36475 0.0
C1892 C 0.29421 0.92221 0.36799 0.0
C1893 C 0.27858 0.91974 0.37858 0.0
C1894 C 0.27745 0.89959 0.38591 0.0
C1895 C 0.29198 0.8819 0.38272 0.0
H1896 H 0.26732 0.93342 0.38107 0.0
H1897 H 0.40882 0.7606 0.35324 0.0
H1898 H 0.96732 0.52468 0.11659 0.0
H1899 H 0.92977 0.53892 0.12197 0.0
H1900 H 0.93372 0.58443 0.08755 0.0
H1901 H 0.97151 0.57086 0.08247 0.0
H1902 H 0.91894 0.60597 0.10849 0.0
H1903 H 0.89992 0.53569 0.08754 0.0
H1904 H 0.90112 0.49466 0.084 0.0
H1905 H 0.87665 0.48406 0.12491 0.0
H1906 H 0.87558 0.52505 0.12876 0.0
H1907 H 0.80595 0.64003 0.10792 0.0
H1908 H 0.83864 0.61837 0.10046 0.0
H1909 H 0.84257 0.58691 0.14023 0.0
H1910 H 0.80999 0.60871 0.14787 0.0
H1911 H 0.85217 0.55755 0.11636 0.0
H1912 H 0.87295 0.62885 0.13693 0.0
H1913 H 0.8701 0.67002 0.13935 0.0
H1914 H 0.89048 0.67844 0.09743 0.0
H1915 H 0.89303 0.63726 0.09468 0.0
C1916 C 0.9601 0.53762 0.11014 0.0
C1917 C 0.97234 0.54671 0.09914 0.0
C1918 C 0.93858 0.54566 0.11316 0.0
C1919 C 0.92878 0.56259 0.10507 0.0
C1920 C 0.94092 0.5714 0.09396 0.0
C1921 C 0.96251 0.56361 0.09106 0.0
C1922 C 0.90635 0.57193 0.10852 0.0
C1923 C 0.90432 0.59533 0.10999 0.0
C1924 C 0.88728 0.55809 0.11076 0.0
C1925 C 0.88788 0.53344 0.10848 0.0
C1926 C 0.89496 0.52461 0.09582 0.0
C1927 C 0.89559 0.50136 0.09375 0.0
C1928 C 0.88902 0.48676 0.10424 0.0
C1929 C 0.88176 0.49539 0.11681 0.0
C1930 C 0.88112 0.51863 0.11893 0.0
C1931 C 0.81347 0.62817 0.115 0.0
C1932 C 0.80561 0.62626 0.12854 0.0
C1933 C 0.83212 0.61582 0.11071 0.0
C1934 C 0.84304 0.60125 0.11985 0.0
C1935 C 0.83429 0.59808 0.13305 0.0
C1936 C 0.81578 0.61062 0.13741 0.0
C1937 C 0.86499 0.59138 0.11616 0.0
C1938 C 0.86688 0.56802 0.11475 0.0
C1939 C 0.88393 0.60521 0.11382 0.0
C1940 C 0.88295 0.62998 0.11556 0.0
C1941 C 0.87666 0.63948 0.12819 0.0
C1942 C 0.87511 0.66281 0.12963 0.0
C1943 C 0.88005 0.67684 0.11854 0.0
C1944 C 0.88663 0.66755 0.106 0.0
C1945 C 0.88813 0.64422 0.1045 0.0
H1946 H 0.87882 0.6949 0.11967 0.0
H1947 H 0.88952 0.46877 0.10262 0.0
H1948 H 0.16125 0.22255 0.837 0.0
H1949 H 0.14505 0.18592 0.84236 0.0
H1950 H 0.18901 0.18015 0.87746 0.0
H1951 H 0.20589 0.2166 0.87184 0.0
H1952 H 0.18617 0.14107 0.8648 0.0
H1953 H 0.13315 0.1953 0.88089 0.0
H1954 H 0.10824 0.22834 0.8795 0.0
H1955 H 0.06985 0.19634 0.84766 0.0
H1956 H 0.09473 0.16321 0.84872 0.0
H1957 H 0.11778 0.06041 0.90082 0.0
H1958 H 0.13989 0.09288 0.8933 0.0
H1959 H 0.10411 0.09335 0.85479 0.0
H1960 H 0.08209 0.06076 0.86215 0.0
H1961 H 0.10331 0.13448 0.86918 0.0
H1962 H 0.1568 0.07908 0.85438 0.0
H1963 H 0.18159 0.04618 0.85711 0.0
H1964 H 0.21878 0.08068 0.88851 0.0
H1965 H 0.19399 0.11368 0.8861 0.0
C1966 C 0.16749 0.21349 0.84586 0.0
C1967 C 0.1847 0.22252 0.85408 0.0
C1968 C 0.15817 0.19258 0.84894 0.0
C1969 C 0.16552 0.18047 0.86046 0.0
C1970 C 0.18304 0.18923 0.86854 0.0
C1971 C 0.1926 0.21008 0.86535 0.0
C1972 C 0.15463 0.15887 0.86415 0.0
C1973 C 0.16807 0.13969 0.86593 0.0
C1974 C 0.13098 0.15699 0.86544 0.0
C1975 C 0.11594 0.17686 0.86479 0.0
C1976 C 0.1195 0.19537 0.87352 0.0
C1977 C 0.10537 0.21411 0.8728 0.0
C1978 C 0.08751 0.21446 0.86347 0.0
C1979 C 0.08371 0.19605 0.85486 0.0
C1980 C 0.09781 0.17729 0.85553 0.0
C1981 C 0.1149 0.06719 0.89066 0.0
C1982 C 0.09811 0.05816 0.88211 0.0
C1983 C 0.12758 0.08567 0.88637 0.0
C1984 C 0.12358 0.09546 0.87351 0.0
C1985 C 0.1074 0.08598 0.86476 0.0
C1986 C 0.0949 0.06735 0.86897 0.0
C1987 C 0.13482 0.11673 0.8697 0.0
C1988 C 0.1214 0.13588 0.86798 0.0
C1989 C 0.15846 0.1186 0.86869 0.0
C1990 C 0.17338 0.09877 0.87015 0.0
C1991 C 0.17013 0.07958 0.86196 0.0
C1992 C 0.18421 0.06093 0.86343 0.0
C1993 C 0.20171 0.06132 0.873 0.0
C1994 C 0.2052 0.08039 0.88111 0.0
C1995 C 0.19115 0.09908 0.87969 0.0
H1996 H 0.2126 0.04686 0.87412 0.0
H1997 H 0.07659 0.22898 0.86293 0.0
H1998 H 0.5014 0.40429 0.60388 0.0
H1999 H 0.53792 0.39005 0.61122 0.0
H2000 H 0.56092 0.45803 0.61806 0.0
H2001 H 0.52385 0.47227 0.61139 0.0
H2002 H 0.57675 0.39307 0.60141 0.0
H2003 H 0.60182 0.45936 0.64228 0.0
H2004 H 0.58372 0.48454 0.65907 0.0
H2005 H 0.52659 0.44047 0.66102 0.0
H2006 H 0.54446 0.4149 0.64437 0.0
H2007 H 0.68829 0.36735 0.61837 0.0
H2008 H 0.65558 0.39013 0.61213 0.0
H2009 H 0.62562 0.37592 0.6515 0.0
H2010 H 0.6587 0.35421 0.65802 0.0
H2011 H 0.6144 0.41578 0.64469 0.0
H2012 H 0.61342 0.34445 0.62174 0.0
H2013 H 0.62824 0.31415 0.60705 0.0
H2014 H 0.63094 0.35956 0.57284 0.0
H2015 H 0.6164 0.39022 0.5874 0.0
C2016 C 0.51421 0.41619 0.60703 0.0
C2017 C 0.5098 0.43937 0.60712 0.0
C2018 C 0.53512 0.40805 0.61118 0.0
C2019 C 0.55221 0.42292 0.6153 0.0
C2020 C 0.54791 0.44616 0.61522 0.0
C2021 C 0.52677 0.4543 0.61134 0.0
C2022 C 0.57451 0.41391 0.61945 0.0
C2023 C 0.58496 0.39813 0.61086 0.0
C2024 C 0.58521 0.42021 0.63187 0.0
C2025 C 0.57437 0.43538 0.64196 0.0
C2026 C 0.58542 0.45503 0.64632 0.0
C2027 C 0.5752 0.46937 0.65581 0.0
C2028 C 0.55398 0.46415 0.66107 0.0
C2029 C 0.54298 0.44454 0.65689 0.0
C2030 C 0.55313 0.43014 0.64742 0.0
C2031 C 0.67488 0.36946 0.62577 0.0
C2032 C 0.6759 0.35881 0.63861 0.0
C2033 C 0.65616 0.38237 0.62218 0.0
C2034 C 0.63786 0.38429 0.63121 0.0
C2035 C 0.63946 0.37467 0.64433 0.0
C2036 C 0.65837 0.36218 0.64803 0.0
C2037 C 0.61642 0.39478 0.62672 0.0
C2038 C 0.60622 0.41092 0.63519 0.0
C2039 C 0.60542 0.38808 0.61449 0.0
C2040 C 0.61407 0.36967 0.60569 0.0
C2041 C 0.61732 0.348 0.61111 0.0
C2042 C 0.62565 0.33076 0.60281 0.0
C2043 C 0.63059 0.33494 0.58903 0.0
C2044 C 0.62715 0.35636 0.58352 0.0
C2045 C 0.61886 0.37367 0.59179 0.0
H2046 H 0.63703 0.32157 0.58262 0.0
H2047 H 0.5461 0.47528 0.66841 0.0
H2048 H 0.22087 0.27325 0.1892 0.0
H2049 H 0.21445 0.26405 0.21328 0.0
H2050 H 0.28467 0.27532 0.22207 0.0
H2051 H 0.29126 0.28464 0.19791 0.0
H2052 H 0.26903 0.23463 0.23191 0.0
H2053 H 0.24771 0.31171 0.23402 0.0
H2054 H 0.228 0.3462 0.22683 0.0
H2055 H 0.16431 0.31433 0.23407 0.0
H2056 H 0.18362 0.27951 0.24112 0.0
H2057 H 0.24949 0.21587 0.30329 0.0
H2058 H 0.26089 0.23359 0.28174 0.0
H2059 H 0.19267 0.22933 0.26687 0.0
H2060 H 0.18106 0.21187 0.28836 0.0
H2061 H 0.21102 0.26998 0.26137 0.0
H2062 H 0.23188 0.19205 0.25643 0.0
H2063 H 0.25098 0.15687 0.263 0.0
H2064 H 0.31503 0.19 0.26056 0.0
H2065 H 0.29626 0.22548 0.25415 0.0
C2066 C 0.23491 0.27404 0.19628 0.0
C2067 C 0.25658 0.27963 0.19167 0.0
C2068 C 0.23119 0.26887 0.21005 0.0
C2069 C 0.24906 0.26914 0.21946 0.0
C2070 C 0.27066 0.27509 0.21495 0.0
C2071 C 0.27437 0.28047 0.20118 0.0
C2072 C 0.24528 0.26177 0.23377 0.0
C2073 C 0.25671 0.24265 0.23849 0.0
C2074 C 0.22885 0.27198 0.24219 0.0
C2075 C 0.21713 0.29292 0.23801 0.0
C2076 C 0.2295 0.31198 0.23398 0.0
C2077 C 0.2184 0.33161 0.22995 0.0
C2078 C 0.19492 0.33244 0.22997 0.0
C2079 C 0.1825 0.31366 0.23406 0.0
C2080 C 0.19352 0.29398 0.23809 0.0
C2081 C 0.2369 0.21871 0.29544 0.0
C2082 C 0.21437 0.21234 0.29753 0.0
C2083 C 0.24346 0.22881 0.28313 0.0
C2084 C 0.22765 0.23264 0.27268 0.0
C2085 C 0.20513 0.22656 0.27481 0.0
C2086 C 0.19856 0.21646 0.28709 0.0
C2087 C 0.23449 0.24261 0.2594 0.0
C2088 C 0.2236 0.26219 0.25488 0.0
C2089 C 0.25135 0.23277 0.25113 0.0
C2090 C 0.26265 0.21147 0.25498 0.0
C2091 C 0.25002 0.19188 0.25742 0.0
C2092 C 0.26079 0.17188 0.26108 0.0
C2093 C 0.2842 0.17122 0.26224 0.0
C2094 C 0.29689 0.19055 0.25969 0.0
C2095 C 0.2862 0.2106 0.25604 0.0
H2096 H 0.2925 0.15571 0.26508 0.0
H2097 H 0.18636 0.34765 0.22683 0.0
H2098 H 0.01742 -0.0048 0.55091 0.0
H2099 H 0.00067 0.00447 0.52867 0.0
H2100 H 0.01663 0.93809 0.51379 0.0
H2101 H 0.03349 0.9287 0.53588 0.0
H2102 H 0.02896 0.97071 0.49582 0.0
H2103 H 0.96342 0.95134 0.52227 0.0
H2104 H 0.93746 0.95404 0.54189 0.0
H2105 H 0.92491 0.02341 0.53242 0.0
H2106 H 0.95105 0.0212 0.51283 0.0
H2107 H 0.96804 0.96802 0.4345 0.0
H2108 H 0.9796 0.95956 0.45797 0.0
H2109 H 0.96091 0.02652 0.47054 0.0
H2110 H 0.94889 0.03502 0.44705 0.0
H2111 H 0.94982 -0.00465 0.48993 0.0
H2112 H 0.01487 0.01513 0.46366 0.0
H2113 H 0.04098 0.01309 0.44408 0.0
H2114 H 0.05497 0.94396 0.45345 0.0
H2115 H 0.02868 0.9455 0.47298 0.0
C2116 C 0.01733 0.98255 0.54292 0.0
C2117 C 0.02683 0.96121 0.54518 0.0
C2118 C 0.00765 0.98785 0.53024 0.0
C2119 C 0.00727 0.9719 0.51963 0.0
C2120 C 0.01675 0.95063 0.52186 0.0
C2121 C 0.02635 0.94529 0.53451 0.0
C2122 C -0.00238 0.97749 0.50605 0.0
C2123 C 0.01158 0.97582 0.49451 0.0
C2124 C 0.97514 0.98482 0.50443 0.0
C2125 C 0.95938 0.98616 0.51617 0.0
C2126 C 0.95527 0.96722 0.52444 0.0
C2127 C 0.9405 0.96865 0.53554 0.0
C2128 C 0.92959 0.9889 0.53842 0.0
C2129 C 0.93339 0.00774 0.53018 0.0
C2130 C 0.94818 0.0064 0.51908 0.0
C2131 C 0.96613 0.98088 0.44228 0.0
C2132 C 0.95778 0.00227 0.43891 0.0
C2133 C 0.9728 0.97604 0.45568 0.0
C2134 C 0.97152 -0.00744 0.46592 0.0
C2135 C 0.96213 0.01357 0.46276 0.0
C2136 C 0.95532 0.01841 0.44934 0.0
C2137 C 0.98109 0.98822 0.47971 0.0
C2138 C 0.9672 0.99024 0.49126 0.0
C2139 C 0.0037 0.98132 0.48139 0.0
C2140 C 0.01965 0.98038 0.46971 0.0
C2141 C 0.02339 -0.00055 0.46148 0.0
C2142 C 0.03824 -0.00161 0.4504 0.0
C2143 C 0.04958 0.97839 0.4475 0.0
C2144 C 0.04615 0.95943 0.4557 0.0
C2145 C 0.03129 0.96039 0.46678 0.0
H2146 H 0.06107 0.9776 0.43891 0.0
H2147 H 0.91815 0.98998 0.54702 0.0
H2148 H 0.19307 0.6992 0.69695 0.0
H2149 H 0.20078 0.71017 0.72072 0.0
H2150 H 0.27049 0.72117 0.71058 0.0
H2151 H 0.26293 0.71037 0.68681 0.0
H2152 H 0.26388 0.70037 0.7365 0.0
H2153 H 0.23761 0.7643 0.71021 0.0
H2154 H 0.21085 0.78439 0.69525 0.0
H2155 H 0.15905 0.77662 0.72552 0.0
H2156 H 0.18545 0.75619 0.74058 0.0
H2157 H 0.30336 0.77874 0.78498 0.0
H2158 H 0.29188 0.75978 0.7639 0.0
H2159 H 0.22349 0.75688 0.77845 0.0
H2160 H 0.23479 0.77594 0.79963 0.0
H2161 H 0.22634 0.77065 0.75159 0.0
H2162 H 0.25356 0.71056 0.7791 0.0
H2163 H 0.28022 0.69082 0.79425 0.0
H2164 H 0.32968 0.69081 0.76222 0.0
H2165 H 0.30343 0.71092 0.74693 0.0
C2166 C 0.21012 0.70356 0.69984 0.0
C2167 C 0.22737 0.70413 0.69001 0.0
C2168 C 0.21447 0.70986 0.7134 0.0
C2169 C 0.23614 0.71666 0.71732 0.0
C2170 C 0.25365 0.71596 0.70772 0.0
C2171 C 0.24928 0.70989 0.69415 0.0
C2172 C 0.24026 0.7263 0.73108 0.0
C2173 C 0.2558 0.71578 0.7398 0.0
C2174 C 0.22926 0.74612 0.73545 0.0
C2175 C 0.21341 0.75848 0.72644 0.0
C2176 C 0.22046 0.7667 0.71362 0.0
C2177 C 0.20537 0.77818 0.70514 0.0
C2178 C 0.18324 0.78171 0.70941 0.0
C2179 C 0.17618 0.77383 0.72221 0.0
C2180 C 0.1912 0.76231 0.73073 0.0
C2181 C 0.28585 0.77416 0.78371 0.0
C2182 C 0.27 0.77882 0.79401 0.0
C2183 C 0.27936 0.7632 0.77168 0.0
C2184 C 0.25691 0.75667 0.76972 0.0
C2185 C 0.24092 0.76169 0.77982 0.0
C2186 C 0.24743 0.77256 0.79191 0.0
C2187 C 0.25021 0.7449 0.75698 0.0
C2188 C 0.23422 0.75505 0.74841 0.0
C2189 C 0.26074 0.7247 0.75279 0.0
C2190 C 0.27657 0.71243 0.7619 0.0
C2191 C 0.27018 0.70652 0.77531 0.0
C2192 C 0.28521 0.69523 0.78393 0.0
C2193 C 0.30665 0.6896 0.77922 0.0
C2194 C 0.31307 0.6952 0.76586 0.0
C2195 C 0.29811 0.70653 0.75721 0.0
H2196 H 0.31826 0.68086 0.78591 0.0
H2197 H 0.17159 0.79061 0.70283 0.0
H2198 H 0.46273 0.05845 0.03865 0.0
H2199 H 0.48033 0.04763 0.01709 0.0
H2200 H 0.48276 0.97859 0.03052 0.0
H2201 H 0.46538 0.98931 0.05232 0.0
H2202 H 0.52176 0.99143 0.01762 0.0
H2203 H 0.44247 -0.00515 0.00859 0.0
H2204 H 0.40481 0.01216 0.00853 0.0
H2205 H 0.42931 0.0662 0.98344 0.0
H2206 H 0.46721 0.04937 0.98351 0.0
H2207 H 0.53752 0.94517 0.95025 0.0
H2208 H 0.52628 0.9547 0.97367 0.0
H2209 H 0.51798 0.02406 0.9617 0.0
H2210 H 0.52863 0.01454 0.93824 0.0
H2211 H 0.4819 0.00955 0.97427 0.0
H2212 H 0.5613 0.00625 0.98318 0.0
H2213 H 0.59903 0.98911 0.9833 0.0
H2214 H 0.57471 0.93505 0.00843 0.0
H2215 H 0.53673 0.95171 0.00831 0.0
C2216 C 0.467 0.04095 0.03707 0.0
C2217 C 0.46244 0.02471 0.04718 0.0
C2218 C 0.47705 0.0348 0.02472 0.0
C2219 C 0.48256 0.01227 0.02214 0.0
C2220 C 0.47858 -0.00394 0.03231 0.0
C2221 C 0.46856 0.00222 0.04473 0.0
C2222 C 0.49189 0.00568 0.00865 0.0
C2223 C 0.51296 -0.0049 0.00813 0.0
C2224 C 0.48055 0.01086 -0.00372 0.0
C2225 C 0.45773 0.02094 -0.00385 0.0
C2226 C 0.43987 0.01051 0.00314 0.0
C2227 C 0.41847 0.02022 0.00309 0.0
C2228 C 0.41469 0.04029 -0.00399 0.0
C2229 C 0.43228 0.05066 0.98893 0.0
C2230 C 0.45371 0.04103 0.98896 0.0
C2231 C 0.53368 0.96252 0.95268 0.0
C2232 C 0.5338 0.97909 0.9424 0.0
C2233 C 0.52732 0.96796 0.96608 0.0
C2234 C 0.52131 0.99011 0.96945 0.0
C2235 C 0.52244 0.00683 0.95932 0.0
C2236 C 0.52858 0.00138 0.94592 0.0
C2237 C 0.51203 -0.00438 0.98316 0.0
C2238 C 0.49082 0.0059 0.98373 0.0
C2239 C 0.52329 0.99015 -0.00447 0.0
C2240 C 0.54611 0.98012 -0.00438 0.0
C2241 C 0.56395 0.99061 0.98864 0.0
C2242 C 0.58539 0.981 0.98873 0.0
C2243 C 0.58925 0.96097 -0.00416 0.0
C2244 C 0.57168 0.95055 0.00291 0.0
C2245 C 0.5502 0.96008 0.00285 0.0
H2246 H 0.60586 0.95356 -0.00411 0.0
H2247 H 0.39811 0.04779 -0.00401 0.0
H2248 H 0.22362 0.71607 0.30079 0.0
H2249 H 0.21541 0.72589 0.277 0.0
H2250 H 0.2809 0.70208 0.26482 0.0
H2251 H 0.28934 0.6923 0.28868 0.0
H2252 H 0.27228 0.74384 0.255 0.0
H2253 H 0.23481 0.67306 0.25544 0.0
H2254 H 0.20944 0.64358 0.26419 0.0
H2255 H 0.15308 0.68808 0.25985 0.0
H2256 H 0.17815 0.71795 0.25125 0.0
H2257 H 0.24491 0.76658 0.18484 0.0
H2258 H 0.25635 0.74705 0.20582 0.0
H2259 H 0.19309 0.76426 0.22467 0.0
H2260 H 0.18137 0.78342 0.20376 0.0
H2261 H 0.20359 0.72127 0.22953 0.0
H2262 H 0.24151 0.79315 0.23206 0.0
H2263 H 0.26665 0.8232 0.22376 0.0
H2264 H 0.32191 0.77682 0.22288 0.0
H2265 H 0.29701 0.74641 0.23101 0.0
C2266 C 0.23618 0.71263 0.29303 0.0
C2267 C 0.25715 0.70346 0.29661 0.0
C2268 C 0.23142 0.71816 0.27942 0.0
C2269 C 0.2475 0.71457 0.26913 0.0
C2270 C 0.26826 0.70494 0.27261 0.0
C2271 C 0.27301 0.69931 0.28623 0.0
C2272 C 0.24308 0.72237 0.25496 0.0
C2273 C 0.25752 0.73854 0.24929 0.0
C2274 C 0.2236 0.71576 0.24765 0.0
C2275 C 0.20841 0.69781 0.25279 0.0
C2276 C 0.21704 0.67662 0.25645 0.0
C2277 C 0.2027 0.65983 0.26136 0.0
C2278 C 0.17967 0.66397 0.2626 0.0
C2279 C 0.17092 0.6849 0.25889 0.0
C2280 C 0.18519 0.70176 0.25398 0.0
C2281 C 0.23345 0.76624 0.19346 0.0
C2282 C 0.21225 0.77663 0.19263 0.0
C2283 C 0.24003 0.7551 0.20544 0.0
C2284 C 0.22562 0.75433 0.21683 0.0
C2285 C 0.20444 0.76458 0.21599 0.0
C2286 C 0.19782 0.77563 0.20403 0.0
C2287 C 0.23251 0.7431 0.22973 0.0
C2288 C 0.21853 0.72629 0.23515 0.0
C2289 C 0.25237 0.74918 0.23684 0.0
C2290 C 0.26735 0.76745 0.23198 0.0
C2291 C 0.25898 0.78932 0.22999 0.0
C2292 C 0.27319 0.80643 0.22534 0.0
C2293 C 0.29584 0.80191 0.22275 0.0
C2294 C 0.30435 0.78029 0.22485 0.0
C2295 C 0.2902 0.76311 0.22949 0.0
H2296 H 0.30682 0.81517 0.21915 0.0
H2297 H 0.1686 0.65094 0.26641 0.0
H2298 H 0.46914 -0.00237 0.43721 0.0
H2299 H 0.48509 0.00885 0.45936 0.0
H2300 H 0.46339 0.94603 0.47706 0.0
H2301 H 0.44731 0.93474 0.4551 0.0
H2302 H 0.45367 0.98156 0.49348 0.0
H2303 H 0.51749 0.95369 0.46808 0.0
H2304 H 0.54364 0.95235 0.44849 0.0
H2305 H 0.56211 0.02118 0.4556 0.0
H2306 H 0.53582 0.02302 0.47514 0.0
H2307 H 0.51498 0.97307 0.55427 0.0
H2308 H 0.50226 0.96608 0.53085 0.0
H2309 H 0.52682 0.03125 0.5185 0.0
H2310 H 0.53987 0.03834 0.54197 0.0
H2311 H 0.53496 -0.00162 0.49897 0.0
H2312 H 0.47278 0.02572 0.52512 0.0
H2313 H 0.44681 0.0271 0.54479 0.0
H2314 H 0.42504 0.95971 0.53617 0.0
H2315 H 0.45114 0.9578 0.51656 0.0
C2316 C 0.46769 0.98624 0.44583 0.0
C2317 C 0.45699 0.96526 0.44437 0.0
C2318 C 0.4769 -0.00736 0.45845 0.0
C2319 C 0.47558 0.97817 0.4698 0.0
C2320 C 0.4646 0.95743 0.46842 0.0
C2321 C 0.45547 0.95099 0.45584 0.0
C2322 C 0.48555 0.98449 0.48318 0.0
C2323 C 0.47148 0.98505 0.4947 0.0
C2324 C 0.50866 0.98967 0.48467 0.0
C2325 C 0.5245 0.98857 0.47296 0.0
C2326 C 0.52699 0.9686 0.46539 0.0
C2327 C 0.54186 0.96774 0.45431 0.0
C2328 C 0.55448 0.98669 0.45078 0.0
C2329 C 0.55229 0.00653 0.45834 0.0
C2330 C 0.53742 0.00748 0.46942 0.0
C2331 C 0.51795 0.98583 0.54655 0.0
C2332 C 0.52823 0.00635 0.54999 0.0
C2333 C 0.5106 0.98183 0.53318 0.0
C2334 C 0.51324 -0.00168 0.52303 0.0
C2335 C 0.52454 0.01837 0.52623 0.0
C2336 C 0.53195 0.02239 0.53963 0.0
C2337 C 0.50315 -0.00504 0.50929 0.0
C2338 C 0.51714 -0.00495 0.49772 0.0
C2339 C 0.47992 0.99041 0.50772 0.0
C2340 C 0.46406 0.99156 0.51944 0.0
C2341 C 0.46257 0.01114 0.52748 0.0
C2342 C 0.44781 0.01202 0.53861 0.0
C2343 C 0.43431 -0.00651 0.54175 0.0
C2344 C 0.43552 0.97405 0.53374 0.0
C2345 C 0.45028 0.97306 0.5226 0.0
H2346 H 0.4229 -0.00579 0.55037 0.0
H2347 H 0.56599 0.98599 0.4422 0.0
H2348 H 0.24893 0.24365 0.80334 0.0
H2349 H 0.25857 0.23648 0.77947 0.0
H2350 H 0.2312 0.30103 0.768 0.0
H2351 H 0.22037 0.30772 0.7919 0.0
H2352 H 0.21943 0.27297 0.7499 0.0
H2353 H 0.28981 0.29057 0.76968 0.0
H2354 H 0.32091 0.28923 0.78641 0.0
H2355 H 0.33206 0.21964 0.77691 0.0
H2356 H 0.30081 0.22047 0.76026 0.0
H2357 H 0.30769 0.23886 0.6926 0.0
H2358 H 0.29836 0.25724 0.71426 0.0
H2359 H 0.2351 0.22153 0.71525 0.0
H2360 H 0.24382 0.20429 0.69314 0.0
H2361 H 0.29428 0.2423 0.73768 0.0
H2362 H 0.19622 0.24692 0.73396 0.0
H2363 H 0.1672 0.25416 0.71641 0.0
H2364 H 0.21523 0.29038 0.69208 0.0
H2365 H 0.24446 0.28364 0.70956 0.0
C2366 C 0.24506 0.25636 0.79574 0.0
C2367 C 0.23403 0.27629 0.79946 0.0
C2368 C 0.2507 0.25231 0.78209 0.0
C2369 C 0.24608 0.26842 0.77193 0.0
C2370 C 0.235 0.28837 0.77564 0.0
C2371 C 0.22889 0.29221 0.78929 0.0
C2372 C 0.25231 0.264 0.75744 0.0
C2373 C 0.23585 0.26642 0.7472 0.0
C2374 C 0.27396 0.25618 0.75379 0.0
C2375 C 0.29285 0.25556 0.76378 0.0
C2376 C 0.2988 0.27494 0.77122 0.0
C2377 C 0.31647 0.27427 0.78068 0.0
C2378 C 0.32843 0.25435 0.78274 0.0
C2379 C 0.32277 0.23506 0.77531 0.0
C2380 C 0.3051 0.23563 0.76584 0.0
C2381 C 0.29167 0.23519 0.69739 0.0
C2382 C 0.27645 0.2202 0.69123 0.0
C2383 C 0.28636 0.24566 0.70977 0.0
C2384 C 0.26592 0.241 0.71639 0.0
C2385 C 0.25069 0.22596 0.71021 0.0
C2386 C 0.25575 0.21596 0.69762 0.0
C2387 C 0.2612 0.25067 0.73015 0.0
C2388 C 0.27795 0.24917 0.74029 0.0
C2389 C 0.24015 0.26029 0.73355 0.0
C2390 C 0.22258 0.26461 0.72304 0.0
C2391 C 0.20057 0.25653 0.7249 0.0
C2392 C 0.18408 0.26052 0.71495 0.0
C2393 C 0.18938 0.27267 0.70312 0.0
C2394 C 0.21116 0.28091 0.70123 0.0
C2395 C 0.2277 0.27698 0.71115 0.0
H2396 H 0.1766 0.27573 0.69543 0.0
H2397 H 0.34211 0.25387 0.79007 0.0
H2398 H 0.01567 0.98691 0.93941 0.0
H2399 H -0.00101 0.97581 0.96133 0.0
H2400 H 0.0236 0.03693 0.97988 0.0
H2401 H 0.04045 0.04807 0.95814 0.0
H2402 H 0.03067 0.00086 -0.00383 0.0
H2403 H 0.96955 0.03246 0.97002 0.0
H2404 H 0.94452 0.03565 0.94993 0.0
H2405 H 0.9218 0.96787 0.95615 0.0
H2406 H 0.94701 0.96416 0.97616 0.0
H2407 H 0.96731 0.01206 0.05581 0.0
H2408 H 0.98058 0.01874 0.0325 0.0
H2409 H 0.95549 0.95381 0.02005 0.0
H2410 H 0.942 0.94696 0.04344 0.0
H2411 H 0.94846 0.988 0.00027 0.0
H2412 H 0.00854 0.95739 0.02729 0.0
H2413 H 0.03355 0.95486 0.04743 0.0
H2414 H 0.05819 0.02147 0.03949 0.0
H2415 H 0.03306 0.02454 0.01942 0.0
C2416 C 0.01767 -0.00209 0.94818 0.0
C2417 C 0.02933 0.01842 0.94701 0.0
C2418 C 0.00803 0.99159 0.96067 0.0
C2419 C 0.00987 0.00568 0.97217 0.0
C2420 C 0.02197 0.02584 0.97111 0.0
C2421 C 0.03154 0.03219 0.95866 0.0
C2422 C -0.00091 -0.00034 0.98534 0.0
C2423 C 0.01268 -0.00178 -0.00292 0.0
C2424 C 0.97569 -0.00432 0.98644 0.0
C2425 C 0.96036 -0.00205 0.97449 0.0
C2426 C 0.95935 0.01817 0.96704 0.0
C2427 C 0.94511 0.02009 0.95568 0.0
C2428 C 0.93162 0.00195 0.95174 0.0
C2429 C 0.93229 0.98189 0.95919 0.0
C2430 C 0.94655 0.97987 0.97055 0.0
C2431 C 0.96431 -0.0007 0.04809 0.0
C2432 C 0.95382 0.97887 0.0515 0.0
C2433 C 0.97195 0.00314 0.03479 0.0
C2434 C 0.96932 0.98661 0.02464 0.0
C2435 C 0.95774 0.96671 0.02778 0.0
C2436 C 0.95009 0.96283 0.04113 0.0
C2437 C 0.98002 0.98965 0.01108 0.0
C2438 C 0.96647 0.99046 -0.0007 0.0
C2439 C 0.00348 -0.00687 0.00992 0.0
C2440 C 0.01878 0.99126 0.02191 0.0
C2441 C 0.01917 0.97157 0.02989 0.0
C2442 C 0.03339 0.97003 0.04129 0.0
C2443 C 0.04742 0.98801 0.04475 0.0
C2444 C 0.0473 0.00756 0.0368 0.0
C2445 C 0.03309 0.0092 0.02541 0.0
H2446 H 0.05841 0.98679 0.05358 0.0
H2447 H 0.92061 0.00345 0.94294 0.0
H2448 H 0.72657 0.75855 0.68205 0.0
H2449 H 0.71933 0.74736 0.70569 0.0
H2450 H 0.78104 0.77926 0.71857 0.0
H2451 H 0.78864 0.79024 0.6948 0.0
H2452 H 0.77719 0.7378 0.72928 0.0
H2453 H 0.73049 0.80279 0.72642 0.0
H2454 H 0.70189 0.82791 0.7164 0.0
H2455 H 0.65199 0.77613 0.72045 0.0
H2456 H 0.68036 0.75058 0.73032 0.0
H2457 H 0.74796 0.71833 0.79987 0.0
H2458 H 0.75907 0.73581 0.77816 0.0
H2459 H 0.69955 0.70907 0.75873 0.0
H2460 H 0.68813 0.69198 0.78033 0.0
H2461 H 0.70469 0.75234 0.75273 0.0
H2462 H 0.75221 0.68636 0.75334 0.0
H2463 H 0.78081 0.66093 0.76309 0.0
H2464 H 0.82908 0.71467 0.76321 0.0
H2465 H 0.80066 0.74049 0.75361 0.0
C2466 C 0.73852 0.7634 0.68992 0.0
C2467 C 0.75817 0.77531 0.68657 0.0
C2468 C 0.7343 0.75706 0.70345 0.0
C2469 C 0.74952 0.76269 0.71392 0.0
C2470 C 0.76905 0.7748 0.71064 0.0
C2471 C 0.77332 0.78112 0.69708 0.0
C2472 C 0.74536 0.755 0.72815 0.0
C2473 C 0.76152 0.74134 0.73453 0.0
C2474 C 0.72478 0.75934 0.73489 0.0
C2475 C 0.70761 0.77471 0.72903 0.0
C2476 C 0.71346 0.7967 0.72509 0.0
C2477 C 0.69728 0.81103 0.71945 0.0
C2478 C 0.67515 0.80361 0.71777 0.0
C2479 C 0.66914 0.78186 0.72176 0.0
C2480 C 0.68526 0.76745 0.72739 0.0
C2481 C 0.73734 0.71602 0.79094 0.0
C2482 C 0.71713 0.7038 0.79184 0.0
C2483 C 0.74373 0.726 0.77854 0.0
C2484 C 0.73015 0.72368 0.76683 0.0
C2485 C 0.71021 0.71117 0.76767 0.0
C2486 C 0.70375 0.70134 0.78003 0.0
C2487 C 0.73625 0.73466 0.7537 0.0
C2488 C 0.72047 0.74902 0.74754 0.0
C2489 C 0.75715 0.73094 0.74718 0.0
C2490 C 0.77424 0.71541 0.75291 0.0
C2491 C 0.76887 0.69279 0.75555 0.0
C2492 C 0.78505 0.6783 0.76102 0.0
C2493 C 0.80672 0.6862 0.76381 0.0
C2494 C 0.81227 0.70859 0.76107 0.0
C2495 C 0.79614 0.72315 0.75561 0.0
H2496 H 0.81923 0.67495 0.76804 0.0
H2497 H 0.66265 0.81472 0.7134 0.0
H2498 H 0.76184 0.22249 0.18553 0.0
H2499 H 0.76969 0.23159 0.20946 0.0
H2500 H 0.70537 0.2042 0.22128 0.0
H2501 H 0.69723 0.19527 0.19725 0.0
H2502 H 0.71199 0.24509 0.23222 0.0
H2503 H 0.75352 0.17682 0.22972 0.0
H2504 H 0.78039 0.14956 0.22008 0.0
H2505 H 0.83415 0.19705 0.22526 0.0
H2506 H 0.80755 0.22474 0.23475 0.0
H2507 H 0.73969 0.26399 0.30288 0.0
H2508 H 0.72874 0.24569 0.28138 0.0
H2509 H 0.79036 0.26827 0.26256 0.0
H2510 H 0.8016 0.28621 0.28397 0.0
H2511 H 0.78238 0.22503 0.25667 0.0
H2512 H 0.74001 0.29452 0.25639 0.0
H2513 H 0.71318 0.32216 0.26571 0.0
H2514 H 0.66103 0.27218 0.26557 0.0
H2515 H 0.68764 0.24416 0.25641 0.0
C2516 C 0.74946 0.21814 0.19323 0.0
C2517 C 0.7289 0.2082 0.18951 0.0
C2518 C 0.75402 0.22326 0.20692 0.0
C2519 C 0.73819 0.21839 0.21717 0.0
C2520 C 0.71782 0.20804 0.21353 0.0
C2521 C 0.71324 0.2029 0.19981 0.0
C2522 C 0.74243 0.2255 0.23151 0.0
C2523 C 0.72715 0.24032 0.23769 0.0
C2524 C 0.76239 0.21957 0.23853 0.0
C2525 C 0.77849 0.20293 0.23287 0.0
C2526 C 0.77104 0.18152 0.22871 0.0
C2527 C 0.78624 0.16598 0.22329 0.0
C2528 C 0.80896 0.17158 0.22203 0.0
C2529 C 0.81655 0.19273 0.22623 0.0
C2530 C 0.80142 0.20835 0.23165 0.0
C2531 C 0.75087 0.26512 0.29415 0.0
C2532 C 0.7715 0.27661 0.29514 0.0
C2533 C 0.74458 0.25467 0.28187 0.0
C2534 C 0.7587 0.25572 0.27036 0.0
C2535 C 0.77926 0.26717 0.27134 0.0
C2536 C 0.7856 0.27752 0.28358 0.0
C2537 C 0.75221 0.24503 0.25721 0.0
C2538 C 0.76706 0.22951 0.25127 0.0
C2539 C 0.73188 0.25034 0.2504 0.0
C2540 C 0.71587 0.26718 0.25587 0.0
C2541 C 0.72286 0.28938 0.25845 0.0
C2542 C 0.70769 0.30512 0.26369 0.0
C2543 C 0.68543 0.29891 0.26627 0.0
C2544 C 0.67828 0.27696 0.26359 0.0
C2545 C 0.6934 0.26114 0.25837 0.0
H2546 H 0.67371 0.31112 0.27032 0.0
H2547 H 0.82069 0.15952 0.21783 0.0
H2548 H 0.78918 0.18887 0.7905 0.0
H2549 H 0.78282 0.1977 0.76627 0.0
H2550 H 0.71345 0.21308 0.77501 0.0
H2551 H 0.71961 0.20425 0.79919 0.0
H2552 H 0.7189 0.19068 0.75011 0.0
H2553 H 0.7508 0.25428 0.77472 0.0
H2554 H 0.77954 0.27303 0.78897 0.0
H2555 H 0.8298 0.25871 0.75863 0.0
H2556 H 0.80137 0.23959 0.74428 0.0
H2557 H 0.68186 0.27115 0.70292 0.0
H2558 H 0.69371 0.25017 0.72312 0.0
H2559 H 0.76082 0.24494 0.70672 0.0
H2560 H 0.74916 0.26622 0.68641 0.0
H2561 H 0.76109 0.25732 0.73343 0.0
H2562 H 0.7276 0.19935 0.70695 0.0
H2563 H 0.69861 0.18133 0.69257 0.0
H2564 H 0.65157 0.18472 0.72586 0.0
H2565 H 0.68016 0.20311 0.74039 0.0
C2566 C 0.77247 0.19373 0.78721 0.0
C2567 C 0.75494 0.19612 0.79676 0.0
C2568 C 0.76889 0.1988 0.77338 0.0
C2569 C 0.74774 0.20629 0.76891 0.0
C2570 C 0.72989 0.20733 0.77827 0.0
C2571 C 0.73348 0.20239 0.79209 0.0
C2572 C 0.74456 0.21503 0.75483 0.0
C2573 C 0.72806 0.20526 0.74643 0.0
C2574 C 0.757 0.23368 0.74994 0.0
C2575 C 0.77404 0.24527 0.75852 0.0
C2576 C 0.76802 0.25497 0.77115 0.0
C2577 C 0.78424 0.26569 0.77923 0.0
C2578 C 0.8065 0.26699 0.77473 0.0
C2579 C 0.81256 0.25764 0.76211 0.0
C2580 C 0.79641 0.24687 0.754 0.0
C2581 C 0.69916 0.26555 0.70355 0.0
C2582 C 0.71456 0.27037 0.69302 0.0
C2583 C 0.70585 0.2534 0.71508 0.0
C2584 C 0.72804 0.24569 0.71631 0.0
C2585 C 0.74357 0.25063 0.70591 0.0
C2586 C 0.73687 0.26279 0.69433 0.0
C2587 C 0.73503 0.2333 0.72878 0.0
C2588 C 0.75223 0.24242 0.73691 0.0
C2589 C 0.72326 0.21403 0.73339 0.0
C2590 C 0.70602 0.20276 0.72474 0.0
C2591 C 0.71103 0.1964 0.71118 0.0
C2592 C 0.69467 0.1861 0.703 0.0
C2593 C 0.67325 0.18192 0.70829 0.0
C2594 C 0.66817 0.18798 0.72178 0.0
C2595 C 0.68446 0.19832 0.73 0.0
H2596 H 0.66061 0.17395 0.70193 0.0
H2597 H 0.81903 0.2753 0.781 0.0
H2598 H 0.69792 0.7859 0.2881 0.0
H2599 H 0.70616 0.77449 0.2645 0.0
H2600 H 0.7736 0.75645 0.27651 0.0
H2601 H 0.76556 0.76786 0.30007 0.0
H2602 H 0.77201 0.77758 0.25106 0.0
H2603 H 0.73476 0.71685 0.27504 0.0
H2604 H 0.70411 0.69978 0.28851 0.0
H2605 H 0.65709 0.71513 0.25638 0.0
H2606 H 0.68744 0.73259 0.2428 0.0
H2607 H 0.80491 0.69835 0.20131 0.0
H2608 H 0.79458 0.71711 0.22265 0.0
H2609 H 0.72775 0.72866 0.20692 0.0
H2610 H 0.73783 0.70968 0.18554 0.0
H2611 H 0.72692 0.71372 0.2331 0.0
H2612 H 0.76458 0.77132 0.20807 0.0
H2613 H 0.7952 0.78779 0.19433 0.0
H2614 H 0.84113 0.77865 0.22789 0.0
H2615 H 0.81083 0.76182 0.24178 0.0
C2616 C 0.7146 0.77981 0.28567 0.0
C2617 C 0.73103 0.77757 0.29596 0.0
C2618 C 0.71926 0.77326 0.2722 0.0
C2619 C 0.7404 0.7644 0.26883 0.0
C2620 C 0.75718 0.76324 0.27892 0.0
C2621 C 0.75252 0.76967 0.29239 0.0
C2622 C 0.74461 0.75482 0.25506 0.0
C2623 C 0.76227 0.76354 0.24715 0.0
C2624 C 0.73153 0.73684 0.24986 0.0
C2625 C 0.7133 0.72626 0.25798 0.0
C2626 C 0.71785 0.71675 0.2709 0.0
C2627 C 0.70054 0.70698 0.27855 0.0
C2628 C 0.67865 0.70644 0.27332 0.0
C2629 C 0.67404 0.71561 0.26042 0.0
C2630 C 0.69129 0.72544 0.25275 0.0
C2631 C 0.78798 0.7048 0.20238 0.0
C2632 C 0.77222 0.70256 0.19169 0.0
C2633 C 0.78216 0.71565 0.21455 0.0
C2634 C 0.76051 0.72457 0.21626 0.0
C2635 C 0.74458 0.72198 0.20576 0.0
C2636 C 0.75039 0.71114 0.19355 0.0
C2637 C 0.75449 0.73631 0.22913 0.0
C2638 C 0.73651 0.72795 0.23691 0.0
C2639 C 0.76723 0.75467 0.23416 0.0
C2640 C 0.78546 0.76512 0.22593 0.0
C2641 C 0.78124 0.77268 0.21249 0.0
C2642 C 0.79854 0.7821 0.20468 0.0
C2643 C 0.82012 0.7842 0.21021 0.0
C2644 C 0.82441 0.77698 0.22361 0.0
C2645 C 0.80717 0.76753 0.23147 0.0
H2646 H 0.8335 0.79146 0.20413 0.0
H2647 H 0.66528 0.69886 0.27925 0.0
H2648 H 0.53364 0.43045 0.03217 0.0
H2649 H 0.51727 0.44091 0.01014 0.0
H2650 H 0.49733 0.50503 0.02679 0.0
H2651 H 0.51355 0.49466 0.049 0.0
H2652 H 0.46365 0.48512 0.0115 0.0
H2653 H 0.54164 0.5029 0.00633 0.0
H2654 H 0.58247 0.49591 0.00727 0.0
H2655 H 0.5753 0.442 0.97829 0.0
H2656 H 0.53436 0.44846 0.97732 0.0
H2657 H 0.44209 0.53455 0.94541 0.0
H2658 H 0.4544 0.52592 0.9688 0.0
H2659 H 0.47913 0.46153 0.95517 0.0
H2660 H 0.46717 0.47011 0.9318 0.0
H2661 H 0.51042 0.48399 0.96941 0.0
H2662 H 0.4322 0.46561 0.97502 0.0
H2663 H 0.39135 0.47252 0.97417 0.0
H2664 H 0.39887 0.52767 0.00224 0.0
H2665 H 0.43983 0.52128 0.00311 0.0
C2666 C 0.52581 0.4468 0.03119 0.0
C2667 C 0.525 0.46176 0.04235 0.0
C2668 C 0.5165 0.45276 0.01856 0.0
C2669 C 0.50629 0.47382 0.01682 0.0
C2670 C 0.50518 0.48871 0.02795 0.0
C2671 C 0.51455 0.48278 0.0406 0.0
C2672 C 0.4969 0.48019 0.00331 0.0
C2673 C 0.4739 0.48522 0.0023 0.0
C2674 C 0.51026 0.47993 0.99132 0.0
C2675 C 0.5349 0.47604 0.99185 0.0
C2676 C 0.54874 0.48944 0.00024 0.0
C2677 C 0.57191 0.48559 0.00076 0.0
C2678 C 0.58147 0.46849 0.99287 0.0
C2679 C 0.56788 0.45523 0.98441 0.0
C2680 C 0.54469 0.45899 0.98386 0.0
C2681 C 0.44985 0.51842 0.94745 0.0
C2682 C 0.45377 0.50305 0.93676 0.0
C2683 C 0.45683 0.5135 0.96082 0.0
C2684 C 0.46767 0.49308 0.96371 0.0
C2685 C 0.47088 0.47743 0.95313 0.0
C2686 C 0.46397 0.48233 0.93979 0.0
C2687 C 0.47704 0.48853 0.97752 0.0
C2688 C 0.50012 0.48394 0.97858 0.0
C2689 C 0.46374 0.48923 0.98953 0.0
C2690 C 0.43912 0.49312 0.989 0.0
C2691 C 0.42517 0.47934 0.98091 0.0
C2692 C 0.40199 0.48314 0.98045 0.0
C2693 C 0.39253 0.50056 0.98811 0.0
C2694 C 0.40623 0.5142 -0.00371 0.0
C2695 C 0.42943 0.51049 -0.00322 0.0
H2696 H 0.37458 0.50347 0.98775 0.0
H2697 H 0.59941 0.46554 0.99329 0.0
H2698 H 0.04384 0.44948 0.4463 0.0
H2699 H 0.03226 0.45608 0.47007 0.0
H2700 H 0.00073 0.51828 0.4579 0.0
H2701 H 0.01246 0.51199 0.43424 0.0
H2702 H 0.02301 0.52293 0.48182 0.0
H2703 H 0.97016 0.47024 0.46182 0.0
H2704 H 0.95919 0.43493 0.45034 0.0
H2705 H 0.98751 0.3968 0.48354 0.0
H2706 H -0.00109 0.43192 0.49513 0.0
H2707 H 0.94201 0.54593 0.53152 0.0
H2708 H 0.96088 0.53544 0.51033 0.0
H2709 H 0.98765 0.47618 0.5299 0.0
H2710 H 0.9685 0.48641 0.55125 0.0
H2711 H 0.97233 0.46747 0.50397 0.0
H2712 H 0.02125 0.52077 0.52523 0.0
H2713 H 0.03132 0.55632 0.53671 0.0
H2714 H 0.01016 0.5935 0.50122 0.0
H2715 H -0.00035 0.55818 0.48959 0.0
C2716 C 0.03466 0.46469 0.44873 0.0
C2717 C 0.02894 0.48016 0.4384 0.0
C2718 C 0.02798 0.46837 0.46229 0.0
C2719 C 0.01539 0.48752 0.4657 0.0
C2720 C 0.01041 0.50338 0.45549 0.0
C2721 C 0.01709 0.49973 0.44196 0.0
C2722 C 0.00659 0.49083 0.47976 0.0
C2723 C 0.01184 0.51086 0.48664 0.0
C2724 C -0.00748 0.47477 0.48619 0.0
C2725 C 0.98562 0.45368 0.47925 0.0
C2726 C 0.97421 0.45432 0.46661 0.0
C2727 C 0.96788 0.43434 0.4601 0.0
C2728 C 0.97272 0.41363 0.46619 0.0
C2729 C 0.98382 0.41286 0.47882 0.0
C2730 C 0.99021 0.43279 0.48537 0.0
C2731 C 0.95182 0.5306 0.53136 0.0
C2732 C 0.95388 0.51709 0.54313 0.0
C2733 C 0.96268 0.52469 0.51923 0.0
C2734 C 0.97601 0.50528 0.51863 0.0
C2735 C 0.97756 0.49132 0.5302 0.0
C2736 C 0.96661 0.4972 0.54238 0.0
C2737 C 0.98833 0.49982 0.50587 0.0
C2738 C 0.98377 0.47938 0.49925 0.0
C2739 C 0.00302 0.51552 0.49966 0.0
C2740 C 0.00952 0.53681 0.50657 0.0
C2741 C 0.0186 0.53653 0.5199 0.0
C2742 C 0.02441 0.55664 0.52643 0.0
C2743 C 0.02134 0.57716 0.51971 0.0
C2744 C 0.01252 0.57759 0.50642 0.0
C2745 C 0.00666 0.55753 0.49984 0.0
H2746 H 0.02584 0.59271 0.52478 0.0
H2747 H 0.9678 0.39819 0.46113 0.0
H2748 H 0.02558 0.46847 0.05107 0.0
H2749 H 0.0148 0.45884 0.02762 0.0
H2750 H 0.02955 0.52663 0.01466 0.0
H2751 H 0.04083 0.53626 0.03808 0.0
H2752 H 0.98041 0.47616 0.01421 0.0
H2753 H 0.04203 0.52673 0.9802 0.0
H2754 H 0.08148 0.53959 0.98048 0.0
H2755 H 0.09928 0.48472 0.00696 0.0
H2756 H 0.06002 0.47137 0.00669 0.0
H2757 H 0.96927 0.49297 0.93538 0.0
H2758 H 0.98602 0.50376 0.95741 0.0
H2759 H 0.97753 0.43596 0.97221 0.0
H2760 H 0.96064 0.42508 0.95042 0.0
H2761 H 0.02353 0.48818 0.9713 0.0
H2762 H 0.9622 0.4376 0.00551 0.0
H2763 H 0.92285 0.42445 0.00516 0.0
H2764 H 0.90484 0.47896 0.97845 0.0
H2765 H 0.944 0.49261 0.9788 0.0
C2766 C 0.02691 0.48123 0.04318 0.0
C2767 C 0.03395 0.50316 0.04642 0.0
C2768 C 0.02069 0.47572 0.02979 0.0
C2769 C 0.02134 0.492 0.01939 0.0
C2770 C 0.02918 0.5137 0.02248 0.0
C2771 C 0.03556 0.5192 0.03588 0.0
C2772 C 0.01209 0.4867 0.00562 0.0
C2773 C 0.99 0.47848 0.00485 0.0
C2774 C 0.02431 0.49045 0.99338 0.0
C2775 C 0.04802 0.49821 0.99354 0.0
C2776 C 0.05438 0.51738 0.98605 0.0
C2777 C 0.0767 0.52476 0.98621 0.0
C2778 C 0.09286 0.51303 0.99377 0.0
C2779 C 0.08673 0.49385 0.00116 0.0
C2780 C 0.06443 0.48639 0.00102 0.0
C2781 C 0.97094 0.48037 0.94333 0.0
C2782 C 0.96344 0.4582 0.94116 0.0
C2783 C 0.98061 0.48654 0.95587 0.0
C2784 C 0.98278 0.47071 0.96646 0.0
C2785 C 0.9757 0.44852 0.96423 0.0
C2786 C 0.96606 0.44233 0.95174 0.0
C2787 C 0.99207 0.47732 0.97998 0.0
C2788 C 0.01404 0.48588 0.98069 0.0
C2789 C 0.97978 0.47387 0.99221 0.0
C2790 C 0.95609 0.46599 0.99208 0.0
C2791 C 0.94982 0.44683 -0.00039 0.0
C2792 C 0.92755 0.43928 -0.0006 0.0
C2793 C 0.91137 0.45082 0.99175 0.0
C2794 C 0.91741 0.46998 0.98433 0.0
C2795 C 0.93964 0.47762 0.98451 0.0
H2796 H 0.89414 0.44493 0.9916 0.0
H2797 H 0.11013 0.51878 -0.00611 0.0
H2798 H 0.53156 0.55367 0.45218 0.0
H2799 H 0.51616 0.54237 0.47426 0.0
H2800 H 0.50474 0.47539 0.4588 0.0
H2801 H 0.52007 0.48658 0.43648 0.0
H2802 H 0.4686 0.49197 0.47387 0.0
H2803 H 0.54817 0.48384 0.47923 0.0
H2804 H 0.58787 0.49564 0.47796 0.0
H2805 H 0.57458 0.55017 0.50564 0.0
H2806 H 0.53471 0.53889 0.50693 0.0
H2807 H 0.45034 0.4472 0.54137 0.0
H2808 H 0.46275 0.45445 0.51786 0.0
H2809 H 0.48249 0.52167 0.52943 0.0
H2810 H 0.4706 0.51439 0.55296 0.0
H2811 H 0.51507 0.50155 0.51578 0.0
H2812 H 0.43529 0.51106 0.50961 0.0
H2813 H 0.3954 0.49987 0.51073 0.0
H2814 H 0.40879 0.44329 0.48464 0.0
H2815 H 0.44885 0.45398 0.48352 0.0
C2816 C 0.52579 0.53651 0.45341 0.0
C2817 C 0.52719 0.52098 0.44257 0.0
C2818 C 0.51703 0.53009 0.46607 0.0
C2819 C 0.50958 0.50799 0.46819 0.0
C2820 C 0.51049 0.49251 0.45735 0.0
C2821 C 0.51932 0.49892 0.44464 0.0
C2822 C 0.5011 0.50121 0.48184 0.0
C2823 C 0.47883 0.49369 0.48303 0.0
C2824 C 0.51439 0.50386 0.49378 0.0
C2825 C 0.53841 0.51062 0.49309 0.0
C2826 C 0.55367 0.49845 0.48497 0.0
C2827 C 0.57621 0.50503 0.48426 0.0
C2828 C 0.58373 0.52367 0.49169 0.0
C2829 C 0.56873 0.53574 0.49988 0.0
C2830 C 0.54616 0.52925 0.50061 0.0
C2831 C 0.4571 0.4636 0.53886 0.0
C2832 C 0.45957 0.48021 0.54902 0.0
C2833 C 0.46411 0.46774 0.52541 0.0
C2834 C 0.47346 0.48864 0.52188 0.0
C2835 C 0.4754 0.5054 0.53194 0.0
C2836 C 0.46854 0.50124 0.54538 0.0
C2837 C 0.48235 0.49278 0.5079 0.0
C2838 C 0.50481 0.49971 0.50664 0.0
C2839 C 0.46918 0.48962 0.49594 0.0
C2840 C 0.44511 0.48318 0.49661 0.0
C2841 C 0.42977 0.49612 0.50421 0.0
C2842 C 0.40712 0.48989 0.50482 0.0
C2843 C 0.39958 0.47084 0.49779 0.0
C2844 C 0.41466 0.45802 0.4901 0.0
C2845 C 0.43734 0.46416 0.48946 0.0
H2846 H 0.38204 0.46605 0.49828 0.0
H2847 H 0.60119 0.52873 0.49112 0.0
H2848 H 0.29031 0.17151 0.37337 0.0
H2849 H 0.3253 0.152 0.37867 0.0
H2850 H 0.33569 0.13913 0.33556 0.0
H2851 H 0.30018 0.15789 0.33027 0.0
H2852 H 0.33862 0.10217 0.34858 0.0
H2853 H 0.37191 0.17382 0.35536 0.0
H2854 H 0.37557 0.21255 0.36409 0.0
H2855 H 0.3768 0.1878 0.40546 0.0
H2856 H 0.37282 0.14893 0.39699 0.0
H2857 H 0.43377 0.03757 0.36478 0.0
H2858 H 0.41513 0.07154 0.35633 0.0
H2859 H 0.3859 0.0823 0.39624 0.0
H2860 H 0.40437 0.04837 0.40477 0.0
H2861 H 0.39779 0.12305 0.3822 0.0
H2862 H 0.35712 0.05288 0.37476 0.0
H2863 H 0.35347 0.01417 0.36595 0.0
H2864 H 0.36672 0.03753 0.32507 0.0
H2865 H 0.37078 0.07636 0.33369 0.0
C2866 C 0.30031 0.16499 0.36499 0.0
C2867 C 0.29241 0.16603 0.35142 0.0
C2868 C 0.32044 0.15393 0.36803 0.0
C2869 C 0.33327 0.14414 0.35751 0.0
C2870 C 0.32607 0.14647 0.34386 0.0
C2871 C 0.30579 0.15722 0.34084 0.0
C2872 C 0.35239 0.12902 0.36092 0.0
C2873 C 0.35189 0.10705 0.35564 0.0
C2874 C 0.3695 0.13508 0.37036 0.0
C2875 C 0.37193 0.15844 0.37553 0.0
C2876 C 0.3728 0.17663 0.36632 0.0
C2877 C 0.37496 0.19862 0.37123 0.0
C2878 C 0.37638 0.20263 0.38532 0.0
C2879 C 0.37569 0.18467 0.39454 0.0
C2880 C 0.37352 0.16265 0.38969 0.0
C2881 C 0.42386 0.04749 0.37186 0.0
C2882 C 0.42025 0.04014 0.38538 0.0
C2883 C 0.41324 0.06689 0.36701 0.0
C2884 C 0.39897 0.07924 0.37563 0.0
C2885 C 0.39687 0.07299 0.38944 0.0
C2886 C 0.40733 0.05352 0.39427 0.0
C2887 C 0.3837 0.0965 0.3699 0.0
C2888 C 0.38482 0.11863 0.37484 0.0
C2889 C 0.36717 0.09072 0.36008 0.0
C2890 C 0.36454 0.06744 0.35488 0.0
C2891 C 0.35944 0.04972 0.36391 0.0
C2892 C 0.35726 0.02777 0.35895 0.0
C2893 C 0.35993 0.02338 0.34497 0.0
C2894 C 0.36471 0.04095 0.33591 0.0
C2895 C 0.36695 0.06292 0.34082 0.0
H2896 H 0.35824 0.00637 0.34115 0.0
H2897 H 0.37805 0.21967 0.3891 0.0
H2898 H 0.05464 0.04625 0.61834 0.0
H2899 H 0.07498 0.08037 0.62506 0.0
H2900 H 0.10936 0.08055 0.58615 0.0
H2901 H 0.08913 0.04665 0.57933 0.0
H2902 H 0.13774 0.07767 0.60862 0.0
H2903 H 0.07582 0.1225 0.59312 0.0
H2904 H 0.03617 0.13435 0.59174 0.0
H2905 H 0.03635 0.14932 0.63483 0.0
H2906 H 0.07593 0.13725 0.63651 0.0
H2907 H 0.19282 0.18794 0.62024 0.0
H2908 H 0.15892 0.16856 0.61212 0.0
H2909 H 0.16108 0.12498 0.64741 0.0
H2910 H 0.19466 0.14434 0.65571 0.0
H2911 H 0.11343 0.1527 0.62525 0.0
H2912 H 0.16524 0.0732 0.63182 0.0
H2913 H 0.20497 0.06148 0.63347 0.0
H2914 H 0.22433 0.11603 0.60714 0.0
H2915 H 0.1847 0.1278 0.60517 0.0
C2916 C 0.06604 0.05394 0.61106 0.0
C2917 C 0.07053 0.04358 0.59839 0.0
C2918 C 0.0776 0.07346 0.61491 0.0
C2919 C 0.09375 0.08285 0.60613 0.0
C2920 C 0.09699 0.07349 0.59308 0.0
C2921 C 0.08541 0.0541 0.58921 0.0
C2922 C 0.10961 0.10011 0.61124 0.0
C2923 C 0.13237 0.09413 0.61214 0.0
C2924 C 0.10259 0.12149 0.61594 0.0
C2925 C 0.07879 0.12877 0.61496 0.0
C2926 C 0.06735 0.12812 0.60233 0.0
C2927 C 0.0449 0.13492 0.60149 0.0
C2928 C 0.03373 0.14253 0.6132 0.0
C2929 C 0.04502 0.1434 0.62577 0.0
C2930 C 0.06747 0.13661 0.62667 0.0
C2931 C 0.18568 0.17468 0.62648 0.0
C2932 C 0.19659 0.16743 0.6385 0.0
C2933 C 0.16625 0.16375 0.62187 0.0
C2934 C 0.15767 0.14533 0.62915 0.0
C2935 C 0.16748 0.13923 0.64169 0.0
C2936 C 0.18673 0.15026 0.64637 0.0
C2937 C 0.1413 0.13005 0.6226 0.0
C2938 C 0.11862 0.13629 0.62158 0.0
C2939 C 0.14827 0.10883 0.61771 0.0
C2940 C 0.17207 0.10151 0.61848 0.0
C2941 C 0.17798 0.08261 0.62634 0.0
C2942 C 0.20048 0.07597 0.62733 0.0
C2943 C 0.21718 0.08805 0.62045 0.0
C2944 C 0.2114 0.10673 0.61251 0.0
C2945 C 0.18893 0.11341 0.61146 0.0
H2946 H 0.23458 0.08291 0.62126 0.0
H2947 H 0.01635 0.1478 0.61252 0.0
H2948 H 0.19224 0.84704 0.83386 0.0
H2949 H 0.15837 0.86518 0.84253 0.0
H2950 H 0.15507 0.81725 0.87561 0.0
H2951 H 0.18937 0.79906 0.86714 0.0
H2952 H 0.10938 0.83686 0.8601 0.0
H2953 H 0.17706 0.85386 0.88764 0.0
H2954 H 0.21738 0.86332 0.88924 0.0
H2955 H 0.20656 0.92204 0.86447 0.0
H2956 H 0.16621 0.91267 0.86256 0.0
H2957 H 0.08236 0.93843 0.90975 0.0
H2958 H 0.10227 0.90438 0.90298 0.0
H2959 H 0.07376 0.90919 0.86237 0.0
H2960 H 0.0535 0.94325 0.86914 0.0
H2961 H 0.13403 0.90661 0.88373 0.0
H2962 H 0.07556 0.85609 0.84735 0.0
H2963 H 0.03539 0.84641 0.84511 0.0
H2964 H 0.02665 0.85457 0.88854 0.0
H2965 H 0.06682 0.86398 0.89107 0.0
C2966 C 0.18405 0.83994 0.84278 0.0
C2967 C 0.19367 0.82182 0.84994 0.0
C2968 C 0.16461 0.85027 0.84766 0.0
C2969 C 0.15433 0.84251 0.85968 0.0
C2970 C 0.16275 0.8233 0.86624 0.0
C2971 C 0.1824 0.81305 0.86144 0.0
C2972 C 0.1376 0.8569 0.86656 0.0
C2973 C 0.11461 0.85205 0.86537 0.0
C2974 C 0.14462 0.87655 0.87347 0.0
C2975 C 0.16872 0.88246 0.87486 0.0
C2976 C 0.18333 0.86869 0.88246 0.0
C2977 C 0.20617 0.87404 0.88343 0.0
C2978 C 0.21454 0.89324 0.87693 0.0
C2979 C 0.20006 0.90716 0.86949 0.0
C2980 C 0.17721 0.90184 0.86846 0.0
C2981 C 0.07987 0.93196 0.89947 0.0
C2982 C 0.0666 0.94368 0.88991 0.0
C2983 C 0.09125 0.91248 0.89563 0.0
C2984 C 0.08959 0.90431 0.88216 0.0
C2985 C 0.07511 0.91507 0.87285 0.0
C2986 C 0.06361 0.93458 0.87672 0.0
C2987 C 0.10544 0.88676 0.8774 0.0
C2988 C 0.12851 0.89123 0.87877 0.0
C2989 C 0.09834 0.86679 0.87076 0.0
C2990 C 0.07419 0.86094 0.86937 0.0
C2991 C 0.0651 0.85572 0.85643 0.0
C2992 C 0.04232 0.8503 0.85511 0.0
C2993 C 0.02846 0.84994 0.86667 0.0
C2994 C 0.03738 0.85494 0.87958 0.0
C2995 C 0.06015 0.86037 0.88096 0.0
H2996 H 0.01083 0.84575 0.86562 0.0
H2997 H 0.23223 0.89736 0.87769 0.0
H2998 H 0.29914 0.82456 0.15695 0.0
H2999 H 0.33453 0.84284 0.15073 0.0
H3000 H 0.31629 0.83887 0.10793 0.0
H3001 H 0.28141 0.81963 0.11406 0.0
H3002 H 0.3603 0.83576 0.11026 0.0
H3003 H 0.30323 0.88552 0.12801 0.0
H3004 H 0.27588 0.89913 0.1451 0.0
H3005 H 0.32892 0.90723 0.17464 0.0
H3006 H 0.35654 0.89338 0.15776 0.0
H3007 H 0.39973 0.93955 0.08303 0.0
H3008 H 0.38118 0.90524 0.09083 0.0
H3009 H 0.41194 0.91282 0.13067 0.0
H3010 H 0.43051 0.94726 0.12296 0.0
H3011 H 0.36657 0.91098 0.13192 0.0
H3012 H 0.42462 0.86769 0.11101 0.0
H3013 H 0.45032 0.85603 0.09252 0.0
H3014 H 0.39395 0.8381 0.0672 0.0
H3015 H 0.36788 0.84995 0.08546 0.0
C3016 C 0.30295 0.82711 0.1462 0.0
C3017 C 0.28741 0.82099 0.13599 0.0
C3018 C 0.32314 0.83761 0.14265 0.0
C3019 C 0.32778 0.84281 0.12889 0.0
C3020 C 0.31305 0.83516 0.11862 0.0
C3021 C 0.29307 0.82421 0.12214 0.0
C3022 C 0.34642 0.85835 0.12529 0.0
C3023 C 0.36169 0.85223 0.11496 0.0
C3024 C 0.34844 0.87975 0.13156 0.0
C3025 C 0.33188 0.88816 0.14169 0.0
C3026 C 0.30902 0.89006 0.13818 0.0
C3027 C 0.29348 0.89783 0.14782 0.0
C3028 C 0.30065 0.90397 0.16096 0.0
C3029 C 0.32339 0.90241 0.16447 0.0
C3030 C 0.33899 0.89461 0.15487 0.0
C3031 C 0.40301 0.93362 0.09334 0.0
C3032 C 0.41637 0.94626 0.10243 0.0
C3033 C 0.39249 0.91391 0.09777 0.0
C3034 C 0.39519 0.90646 0.11133 0.0
C3035 C 0.40967 0.91827 0.12015 0.0
C3036 C 0.42027 0.93794 0.11572 0.0
C3037 C 0.38038 0.88853 0.11679 0.0
C3038 C 0.36563 0.89431 0.12742 0.0
C3039 C 0.37865 0.86708 0.1106 0.0
C3040 C 0.39428 0.85985 0.09959 0.0
C3041 C 0.41769 0.86142 0.10146 0.0
C3042 C 0.43233 0.85475 0.09103 0.0
C3043 C 0.42378 0.84637 0.07869 0.0
C3044 C 0.40056 0.8446 0.07677 0.0
C3045 C 0.38584 0.85126 0.08717 0.0
H3046 H 0.43514 0.84121 0.07062 0.0
H3047 H 0.28859 0.90999 0.16841 0.0
H3048 H 0.71203 0.82995 0.60052 0.0
H3049 H 0.68063 0.85638 0.59975 0.0
H3050 H 0.67637 0.85488 0.64391 0.0
H3051 H 0.70804 0.82883 0.64481 0.0
H3052 H 0.63753 0.85528 0.60801 0.0
H3053 H 0.6635 0.90707 0.65555 0.0
H3054 H 0.69772 0.91667 0.66866 0.0
H3055 H 0.73788 0.90746 0.63253 0.0
H3056 H 0.70388 0.8981 0.61918 0.0
H3057 H 0.5756 0.96085 0.63803 0.0
H3058 H 0.60136 0.92905 0.64019 0.0
H3059 H 0.60982 0.9278 0.59626 0.0
H3060 H 0.58393 0.9594 0.59397 0.0
H3061 H 0.64504 0.92749 0.63311 0.0
H3062 H 0.61962 0.87397 0.58585 0.0
H3063 H 0.5856 0.86489 0.57243 0.0
H3064 H 0.54433 0.87841 0.60757 0.0
H3065 H 0.5781 0.88726 0.62125 0.0
C3066 C 0.70434 0.83513 0.61007 0.0
C3067 C 0.71271 0.82747 0.62274 0.0
C3068 C 0.68634 0.85018 0.6096 0.0
C3069 C 0.67639 0.85784 0.62178 0.0
C3070 C 0.68408 0.8495 0.63441 0.0
C3071 C 0.70216 0.83456 0.63489 0.0
C3072 C 0.65859 0.87524 0.62127 0.0
C3073 C 0.63924 0.87116 0.61339 0.0
C3074 C 0.66063 0.89575 0.62854 0.0
C3075 C 0.68117 0.90164 0.63642 0.0
C3076 C 0.67963 0.90717 0.6504 0.0
C3077 C 0.69899 0.91256 0.65788 0.0
C3078 C 0.71997 0.91259 0.65145 0.0
C3079 C 0.72163 0.90733 0.63751 0.0
C3080 C 0.70233 0.90196 0.62999 0.0
C3081 C 0.58277 0.9537 0.62881 0.0
C3082 C 0.57772 0.9627 0.61582 0.0
C3083 C 0.59751 0.93555 0.63008 0.0
C3084 C 0.60735 0.92596 0.61839 0.0
C3085 C 0.60214 0.93472 0.6054 0.0
C3086 C 0.58742 0.95287 0.60412 0.0
C3087 C 0.624 0.9076 0.61981 0.0
C3088 C 0.6432 0.91153 0.62783 0.0
C3089 C 0.62183 0.88703 0.61263 0.0
C3090 C 0.6014 0.88148 0.60453 0.0
C3091 C 0.60329 0.87491 0.59073 0.0
C3092 C 0.58405 0.86982 0.58307 0.0
C3093 C 0.56282 0.87114 0.58913 0.0
C3094 C 0.56078 0.87748 0.60287 0.0
C3095 C 0.57997 0.88257 0.61057 0.0
H3096 H 0.54794 0.86721 0.58318 0.0
H3097 H 0.73494 0.91675 0.65725 0.0
H3098 H 0.90665 0.95392 0.3936 0.0
H3099 H 0.87998 0.92302 0.39059 0.0
H3100 H 0.88024 0.93385 0.34685 0.0
H3101 H 0.90698 0.96477 0.34973 0.0
H3102 H 0.83735 0.93113 0.35786 0.0
H3103 H 0.9062 0.88931 0.35922 0.0
H3104 H 0.94276 0.87749 0.36873 0.0
H3105 H 0.91008 0.85394 0.40526 0.0
H3106 H 0.87334 0.86592 0.39604 0.0
H3107 H 0.77461 0.83496 0.3396 0.0
H3108 H 0.80536 0.86198 0.34154 0.0
H3109 H 0.8087 0.85029 0.38516 0.0
H3110 H 0.77806 0.82301 0.38333 0.0
H3111 H 0.85046 0.85297 0.37377 0.0
H3112 H 0.78231 0.89582 0.37332 0.0
H3113 H 0.74544 0.90809 0.36449 0.0
H3114 H 0.77641 0.93037 0.32712 0.0
H3115 H 0.81346 0.91793 0.33566 0.0
C3116 C 0.90117 0.94965 0.38332 0.0
C3117 C 0.90892 0.96183 0.3719 0.0
C3118 C 0.886 0.93193 0.38163 0.0
C3119 C 0.87826 0.92611 0.3685 0.0
C3120 C 0.88607 0.93809 0.35706 0.0
C3121 C 0.90139 0.9557 0.35873 0.0
C3122 C 0.86123 0.90818 0.36678 0.0
C3123 C 0.84033 0.91394 0.36112 0.0
C3124 C 0.86497 0.88596 0.37142 0.0
C3125 C 0.88704 0.87872 0.37699 0.0
C3126 C 0.90683 0.8818 0.36933 0.0
C3127 C 0.92758 0.87503 0.37466 0.0
C3128 C 0.92875 0.86502 0.38761 0.0
C3129 C 0.90915 0.86172 0.39524 0.0
C3130 C 0.88836 0.86848 0.38996 0.0
C3131 C 0.78195 0.838 0.34961 0.0
C3132 C 0.77375 0.82693 0.36134 0.0
C3133 C 0.79949 0.8535 0.35069 0.0
C3134 C 0.80908 0.85834 0.36352 0.0
C3135 C 0.80147 0.84682 0.37517 0.0
C3136 C 0.78391 0.83129 0.37411 0.0
C3137 C 0.8266 0.87592 0.36481 0.0
C3138 C 0.84754 0.87012 0.37043 0.0
C3139 C 0.82286 0.89818 0.36023 0.0
C3140 C 0.80062 0.90572 0.35507 0.0
C3141 C 0.78123 0.90316 0.36317 0.0
C3142 C 0.76031 0.91018 0.35823 0.0
C3143 C 0.75857 0.91994 0.34523 0.0
C3144 C 0.77778 0.92276 0.33717 0.0
C3145 C 0.79875 0.91575 0.34206 0.0
H3146 H 0.74236 0.92537 0.34143 0.0
H3147 H 0.94483 0.85979 0.39172 0.0
H3148 H 0.76867 0.159 0.10084 0.0
H3149 H 0.79914 0.13158 0.099 0.0
H3150 H 0.80813 0.13336 0.14291 0.0
H3151 H 0.77746 0.16036 0.14489 0.0
H3152 H 0.84313 0.13103 0.10569 0.0
H3153 H 0.81932 0.08115 0.15455 0.0
H3154 H 0.78575 0.07278 0.16849 0.0
H3155 H 0.74348 0.08257 0.13325 0.0
H3156 H 0.7768 0.09069 0.11906 0.0
H3157 H 0.90584 0.02799 0.13782 0.0
H3158 H 0.87996 0.05976 0.13906 0.0
H3159 H 0.87038 0.05691 0.09522 0.0
H3160 H 0.89645 0.02528 0.09383 0.0
H3161 H 0.83611 0.0602 0.13224 0.0
H3162 H 0.85915 0.11016 0.08338 0.0
H3163 H 0.89232 0.11799 0.06898 0.0
H3164 H 0.93575 0.10708 0.10357 0.0
H3165 H 0.90284 0.09949 0.11821 0.0
C3166 C 0.77724 0.15368 0.1101 0.0
C3167 C 0.77046 0.16166 0.12303 0.0
C3168 C 0.79468 0.13806 0.10902 0.0
C3169 C 0.80563 0.13016 0.12083 0.0
C3170 C 0.7996 0.1389 0.13368 0.0
C3171 C 0.78209 0.15437 0.13479 0.0
C3172 C 0.8227 0.11212 0.11981 0.0
C3173 C 0.8415 0.11543 0.11137 0.0
C3174 C 0.8207 0.09193 0.1274 0.0
C3175 C 0.80055 0.08676 0.13579 0.0
C3176 C 0.80287 0.08144 0.14977 0.0
C3177 C 0.78388 0.07675 0.15771 0.0
C3178 C 0.76249 0.07722 0.15177 0.0
C3179 C 0.76005 0.08229 0.13785 0.0
C3180 C 0.77898 0.08697 0.12986 0.0
C3181 C 0.89839 0.03422 0.12841 0.0
C3182 C 0.90319 0.02405 0.11572 0.0
C3183 C 0.88358 0.05236 0.12915 0.0
C3184 C 0.87337 0.06077 0.11723 0.0
C3185 C 0.87833 0.05088 0.10452 0.0
C3186 C 0.89316 0.03272 0.10376 0.0
C3187 C 0.85667 0.07915 0.11821 0.0
C3188 C 0.83783 0.07584 0.12661 0.0
C3189 C 0.8586 0.09923 0.11052 0.0
C3190 C 0.87852 0.10402 0.10185 0.0
C3191 C 0.87578 0.10951 0.08792 0.0
C3192 C 0.89453 0.11389 0.07971 0.0
C3193 C 0.91613 0.11296 0.08534 0.0
C3194 C 0.91902 0.10771 0.09921 0.0
C3195 C 0.90032 0.10332 0.10746 0.0
H3196 H 0.93063 0.11634 0.07897 0.0
H3197 H 0.74781 0.07361 0.15794 0.0
H3198 H 0.60113 0.00902 0.8899 0.0
H3199 H 0.62623 0.04118 0.88734 0.0
H3200 H 0.57818 0.07286 0.86027 0.0
H3201 H 0.55379 0.0398 0.86205 0.0
H3202 H 0.61552 0.08029 0.85042 0.0
H3203 H 0.58802 0.08993 0.89549 0.0
H3204 H 0.57802 0.07967 0.91921 0.0
H3205 H 0.64745 0.06664 0.92832 0.0
H3206 H 0.65785 0.07653 0.90459 0.0
H3207 H 0.69228 0.17787 0.88017 0.0
H3208 H 0.65993 0.15267 0.88247 0.0
H3209 H 0.68746 0.10969 0.85099 0.0
H3210 H 0.71894 0.1355 0.84811 0.0
H3211 H 0.65505 0.11329 0.89049 0.0
H3212 H 0.64934 0.08118 0.83382 0.0
H3213 H 0.65453 0.09619 0.81046 0.0
H3214 H 0.64241 0.16311 0.82518 0.0
H3215 H 0.63683 0.14849 0.8486 0.0
C3216 C 0.59594 0.0229 0.88343 0.0
C3217 C 0.57554 0.02202 0.8762 0.0
C3218 C 0.6102 0.04139 0.88206 0.0
C3219 C 0.60394 0.05982 0.87387 0.0
C3220 C 0.58344 0.05893 0.86667 0.0
C3221 C 0.56949 0.04008 0.86771 0.0
C3222 C 0.6192 0.07953 0.87243 0.0
C3223 C 0.62401 0.0876 0.85921 0.0
C3224 C 0.62981 0.0897 0.88389 0.0
C3225 C 0.62369 0.08384 0.89822 0.0
C3226 C 0.60114 0.08475 0.90252 0.0
C3227 C 0.59541 0.07901 0.91598 0.0
C3228 C 0.61208 0.07247 0.92526 0.0
C3229 C 0.63455 0.07171 0.92111 0.0
C3230 C 0.64038 0.07741 0.90767 0.0
C3231 C 0.69125 0.16314 0.87367 0.0
C3232 C 0.70799 0.15871 0.86389 0.0
C3233 C 0.6728 0.14872 0.875 0.0
C3234 C 0.67096 0.12942 0.86675 0.0
C3235 C 0.688 0.12481 0.85718 0.0
C3236 C 0.70611 0.1395 0.8556 0.0
C3237 C 0.6518 0.11358 0.86847 0.0
C3238 C 0.64629 0.10621 0.88173 0.0
C3239 C 0.63976 0.10483 0.85711 0.0
C3240 C 0.64284 0.11373 0.843 0.0
C3241 C 0.64766 0.09908 0.83207 0.0
C3242 C 0.6507 0.10753 0.81881 0.0
C3243 C 0.64886 0.13059 0.81634 0.0
C3244 C 0.6439 0.14526 0.82712 0.0
C3245 C 0.64083 0.1369 0.84038 0.0
H3246 H 0.65124 0.1371 0.80608 0.0
H3247 H 0.60761 0.06803 0.93567 0.0
H3248 H 0.78691 0.6697 0.87148 0.0
H3249 H 0.82076 0.64898 0.87794 0.0
H3250 H 0.83278 0.63306 0.83537 0.0
H3251 H 0.79849 0.65302 0.82894 0.0
H3252 H 0.83311 0.59675 0.84936 0.0
H3253 H 0.8689 0.66779 0.85501 0.0
H3254 H 0.8736 0.70672 0.86321 0.0
H3255 H 0.87317 0.68359 0.90493 0.0
H3256 H 0.86815 0.64454 0.89699 0.0
H3257 H 0.92937 0.53327 0.86388 0.0
H3258 H 0.90954 0.56698 0.85615 0.0
H3259 H 0.88193 0.57589 0.89665 0.0
H3260 H 0.90159 0.5421 0.90447 0.0
H3261 H 0.89318 0.61758 0.88239 0.0
H3262 H 0.852 0.54773 0.87616 0.0
H3263 H 0.84759 0.5088 0.86785 0.0
H3264 H 0.85879 0.5309 0.82648 0.0
H3265 H 0.86361 0.56994 0.8346 0.0
C3266 C 0.79707 0.66223 0.86347 0.0
C3267 C 0.78996 0.66278 0.84972 0.0
C3268 C 0.81651 0.65046 0.86717 0.0
C3269 C 0.82941 0.63945 0.85714 0.0
C3270 C 0.82306 0.6413 0.8433 0.0
C3271 C 0.80348 0.65274 0.83964 0.0
C3272 C 0.84771 0.62377 0.86118 0.0
C3273 C 0.84653 0.60157 0.85632 0.0
C3274 C 0.86494 0.62976 0.87056 0.0
C3275 C 0.86797 0.65323 0.87539 0.0
C3276 C 0.86962 0.67102 0.86594 0.0
C3277 C 0.87238 0.69311 0.87054 0.0
C3278 C 0.87364 0.69763 0.88458 0.0
C3279 C 0.87218 0.68006 0.89405 0.0
C3280 C 0.86941 0.65794 0.88951 0.0
C3281 C 0.91954 0.54271 0.87124 0.0
C3282 C 0.91677 0.53487 0.88474 0.0
C3283 C 0.90825 0.56197 0.8668 0.0
C3284 C 0.89414 0.57374 0.87581 0.0
C3285 C 0.89279 0.56702 0.88957 0.0
C3286 C 0.90392 0.54765 0.89399 0.0
C3287 C 0.87842 0.59092 0.87047 0.0
C3288 C 0.87997 0.61314 0.8752 0.0
C3289 C 0.86152 0.58509 0.8609 0.0
C3290 C 0.85844 0.56168 0.856 0.0
C3291 C 0.85371 0.54425 0.86531 0.0
C3292 C 0.85111 0.52218 0.86063 0.0
C3293 C 0.85298 0.51737 0.84665 0.0
C3294 C 0.85739 0.53464 0.83731 0.0
C3295 C 0.86006 0.55674 0.84194 0.0
H3296 H 0.85095 0.50027 0.84305 0.0
H3297 H 0.87577 0.71475 0.88813 0.0
H3298 H 0.68803 0.67838 0.11906 0.0
H3299 H 0.65287 0.65935 0.11284 0.0
H3300 H 0.6558 0.62099 0.15032 0.0
H3301 H 0.69069 0.63989 0.15665 0.0
H3302 H 0.65548 0.59504 0.12658 0.0
H3303 H 0.61448 0.656 0.14665 0.0
H3304 H 0.60394 0.69564 0.1502 0.0
H3305 H 0.58353 0.70077 0.10805 0.0
H3306 H 0.59426 0.66122 0.10418 0.0
H3307 H 0.54455 0.54175 0.11822 0.0
H3308 H 0.56432 0.5752 0.12667 0.0
H3309 H 0.60258 0.57814 0.08922 0.0
H3310 H 0.58289 0.54502 0.08063 0.0
H3311 H 0.57922 0.62284 0.11463 0.0
H3312 H 0.65563 0.57018 0.10184 0.0
H3313 H 0.66583 0.53048 0.09786 0.0
H3314 H 0.61533 0.50936 0.12656 0.0
H3315 H 0.60515 0.54894 0.13087 0.0
C3316 C 0.68086 0.66632 0.12614 0.0
C3317 C 0.6923 0.6604 0.13825 0.0
C3318 C 0.66074 0.65553 0.12259 0.0
C3319 C 0.65184 0.63872 0.13111 0.0
C3320 C 0.66245 0.6339 0.14362 0.0
C3321 C 0.68242 0.64472 0.1472 0.0
C3322 C 0.63357 0.62389 0.12615 0.0
C3323 C 0.63878 0.60116 0.1241 0.0
C3324 C 0.61184 0.63191 0.12281 0.0
C3325 C 0.60538 0.65569 0.1251 0.0
C3326 C 0.60795 0.66563 0.1381 0.0
C3327 C 0.60189 0.68807 0.14018 0.0
C3328 C 0.59312 0.70073 0.12935 0.0
C3329 C 0.59034 0.69095 0.11643 0.0
C3330 C 0.59639 0.66851 0.11429 0.0
C3331 C 0.5566 0.54999 0.11159 0.0
C3332 C 0.56248 0.54051 0.09887 0.0
C3333 C 0.56775 0.56918 0.1164 0.0
C3334 C 0.58495 0.57895 0.10858 0.0
C3335 C 0.5893 0.5708 0.09536 0.0
C3336 C 0.57811 0.55177 0.09052 0.0
C3337 C 0.60134 0.59423 0.1151 0.0
C3338 C 0.5959 0.61688 0.11729 0.0
C3339 C 0.62294 0.58626 0.11867 0.0
C3340 C 0.62949 0.56246 0.11655 0.0
C3341 C 0.64681 0.55705 0.10735 0.0
C3342 C 0.65257 0.53458 0.10503 0.0
C3343 C 0.64118 0.5174 0.11192 0.0
C3344 C 0.62409 0.52267 0.1212 0.0
C3345 C 0.61831 0.54511 0.12357 0.0
H3346 H 0.64562 0.50002 0.11008 0.0
H3347 H 0.58844 0.7181 0.13099 0.0
H3348 H 0.69971 0.31217 0.3738 0.0
H3349 H 0.6649 0.33149 0.3798 0.0
H3350 H 0.65031 0.34136 0.33682 0.0
H3351 H 0.68562 0.3229 0.33082 0.0
H3352 H 0.64872 0.37913 0.3489 0.0
H3353 H 0.61625 0.308 0.35889 0.0
H3354 H 0.61356 0.27008 0.36895 0.0
H3355 H 0.61604 0.29835 0.40945 0.0
H3356 H 0.61908 0.33644 0.39964 0.0
H3357 H 0.55506 0.44488 0.36544 0.0
H3358 H 0.57329 0.41033 0.35764 0.0
H3359 H 0.60454 0.40256 0.3973 0.0
H3360 H 0.58635 0.43702 0.40521 0.0
H3361 H 0.59257 0.36092 0.38482 0.0
H3362 H 0.63204 0.43048 0.37414 0.0
H3363 H 0.63489 0.46844 0.3641 0.0
H3364 H 0.61887 0.44175 0.32433 0.0
H3365 H 0.61561 0.40365 0.3342 0.0
C3366 C 0.68879 0.31795 0.36563 0.0
C3367 C 0.69547 0.31626 0.35186 0.0
C3368 C 0.66878 0.3289 0.36907 0.0
C3369 C 0.65486 0.33789 0.35877 0.0
C3370 C 0.66078 0.33469 0.34496 0.0
C3371 C 0.68096 0.32411 0.34154 0.0
C3372 C 0.6361 0.35327 0.3624 0.0
C3373 C 0.63609 0.3748 0.35648 0.0
C3374 C 0.61989 0.34798 0.37254 0.0
C3375 C 0.61804 0.3251 0.37851 0.0
C3376 C 0.6164 0.30613 0.36994 0.0
C3377 C 0.61478 0.2846 0.3756 0.0
C3378 C 0.61467 0.2818 0.38983 0.0
C3379 C 0.61613 0.30054 0.39843 0.0
C3380 C 0.61777 0.32211 0.39282 0.0
C3381 C 0.56536 0.43552 0.37262 0.0
C3382 C 0.56958 0.44386 0.38587 0.0
C3383 C 0.57573 0.41578 0.36814 0.0
C3384 C 0.59047 0.40409 0.37685 0.0
C3385 C 0.59322 0.41134 0.39044 0.0
C3386 C 0.58292 0.43112 0.39491 0.0
C3387 C 0.60547 0.38645 0.37132 0.0
C3388 C 0.60489 0.36476 0.37696 0.0
C3389 C 0.62116 0.39145 0.36088 0.0
C3390 C 0.62331 0.4143 0.35493 0.0
C3391 C 0.62896 0.43275 0.36328 0.0
C3392 C 0.63067 0.45427 0.35762 0.0
C3393 C 0.62699 0.45751 0.34359 0.0
C3394 C 0.62166 0.43922 0.3352 0.0
C3395 C 0.61988 0.41766 0.34081 0.0
H3396 H 0.62833 0.47419 0.33923 0.0
H3397 H 0.61341 0.26512 0.39419 0.0
H3398 H 0.91403 0.43098 0.58142 0.0
H3399 H 0.89515 0.39621 0.5882 0.0
H3400 H 0.90183 0.41489 0.63079 0.0
H3401 H 0.92161 0.44924 0.62406 0.0
H3402 H 0.90279 0.3701 0.62835 0.0
H3403 H 0.85541 0.43024 0.6121 0.0
H3404 H 0.84247 0.45881 0.59554 0.0
H3405 H 0.82953 0.40717 0.56576 0.0
H3406 H 0.8427 0.37831 0.5821 0.0
H3407 H 0.7983 0.33433 0.65688 0.0
H3408 H 0.83303 0.3518 0.64883 0.0
H3409 H 0.82254 0.32305 0.6087 0.0
H3410 H 0.7877 0.30556 0.61666 0.0
H3411 H 0.82619 0.36842 0.60813 0.0
H3412 H 0.86767 0.30753 0.62745 0.0
H3413 H 0.87903 0.28058 0.64537 0.0
H3414 H 0.90096 0.33501 0.67106 0.0
H3415 H 0.88944 0.36233 0.65338 0.0
C3416 C 0.91203 0.42735 0.59224 0.0
C3417 C 0.91894 0.44294 0.60222 0.0
C3418 C 0.9012 0.40751 0.5961 0.0
C3419 C 0.89651 0.40327 0.60998 0.0
C3420 C 0.90516 0.41787 0.62001 0.0
C3421 C 0.91641 0.43753 0.61616 0.0
C3422 C 0.88016 0.38553 0.61389 0.0
C3423 C 0.88602 0.36971 0.62397 0.0
C3424 C 0.85833 0.38487 0.60805 0.0
C3425 C 0.85029 0.40217 0.59825 0.0
C3426 C 0.84995 0.425 0.60198 0.0
C3427 C 0.84256 0.44124 0.59265 0.0
C3428 C 0.83525 0.43482 0.57959 0.0
C3429 C 0.83525 0.41213 0.57586 0.0
C3430 C 0.84267 0.39582 0.58516 0.0
C3431 C 0.80365 0.33126 0.64644 0.0
C3432 C 0.79012 0.31879 0.63736 0.0
C3433 C 0.8236 0.34115 0.64187 0.0
C3434 C 0.83038 0.3387 0.62817 0.0
C3435 C 0.81761 0.32511 0.61932 0.0
C3436 C 0.79771 0.31513 0.62389 0.0
C3437 C 0.84871 0.35293 0.62263 0.0
C3438 C 0.84312 0.36835 0.61231 0.0
C3439 C 0.87053 0.35339 0.62844 0.0
C3440 C 0.87754 0.337 0.63911 0.0
C3441 C 0.87475 0.31378 0.63696 0.0
C3442 C 0.88125 0.29842 0.64707 0.0
C3443 C 0.89067 0.30608 0.65936 0.0
C3444 C 0.89366 0.3291 0.66154 0.0
C3445 C 0.88718 0.34453 0.65147 0.0
H3446 H 0.89569 0.29416 0.66717 0.0
H3447 H 0.82953 0.44741 0.57238 0.0
H3448 H 0.10118 0.47558 0.09931 0.0
H3449 H 0.12626 0.44364 0.10274 0.0
H3450 H 0.08028 0.416 0.13258 0.0
H3451 H 0.05591 0.44885 0.12982 0.0
H3452 H 0.11877 0.40921 0.14151 0.0
H3453 H 0.08599 0.39486 0.09813 0.0
H3454 H 0.07363 0.40261 0.07444 0.0
H3455 H 0.14219 0.41292 0.06219 0.0
H3456 H 0.15495 0.40553 0.08585 0.0
H3457 H 0.18832 0.30594 0.11241 0.0
H3458 H 0.15661 0.33198 0.11085 0.0
H3459 H 0.18953 0.37638 0.13965 0.0
H3460 H 0.22041 0.34966 0.1419 0.0
H3461 H 0.15263 0.37033 0.10157 0.0
H3462 H 0.15463 0.40914 0.1567 0.0
H3463 H 0.16204 0.39682 0.18043 0.0
H3464 H 0.14576 0.32883 0.16941 0.0
H3465 H 0.13794 0.34078 0.14566 0.0
C3466 C 0.09644 0.46265 0.10658 0.0
C3467 C 0.07659 0.46458 0.11425 0.0
C3468 C 0.1107 0.44429 0.10847 0.0
C3469 C 0.10496 0.42703 0.11768 0.0
C3470 C 0.08511 0.42902 0.12539 0.0
C3471 C 0.07116 0.44775 0.1238 0.0
C3472 C 0.11996 0.40723 0.11944 0.0
C3473 C 0.12605 0.40061 0.13277 0.0
C3474 C 0.12896 0.39543 0.10808 0.0
C3475 C 0.12141 0.39979 0.0938 0.0
C3476 C 0.09842 0.39891 0.09041 0.0
C3477 C 0.09135 0.40323 0.07698 0.0
C3478 C 0.10711 0.4083 0.06683 0.0
C3479 C 0.12999 0.409 0.07007 0.0
C3480 C 0.13716 0.40472 0.08348 0.0
C3481 C 0.18858 0.32115 0.11852 0.0
C3482 C 0.2067 0.32577 0.12733 0.0
C3483 C 0.1705 0.33606 0.11761 0.0
C3484 C 0.17042 0.35609 0.12527 0.0
C3485 C 0.18873 0.36077 0.13395 0.0
C3486 C 0.20649 0.34557 0.13516 0.0
C3487 C 0.15184 0.37261 0.12365 0.0
C3488 C 0.14512 0.37868 0.11033 0.0
C3489 C 0.14146 0.38314 0.13503 0.0
C3490 C 0.14588 0.37585 0.14936 0.0
C3491 C 0.15252 0.39158 0.15935 0.0
C3492 C 0.15682 0.38466 0.17281 0.0
C3493 C 0.15443 0.36205 0.17642 0.0
C3494 C 0.14767 0.34633 0.16659 0.0
C3495 C 0.14333 0.35316 0.15312 0.0
H3496 H 0.15779 0.35672 0.18684 0.0
H3497 H 0.1016 0.41164 0.05644 0.0
H3498 H 0.40058 0.45787 0.89331 0.0
H3499 H 0.376 0.42519 0.89146 0.0
H3500 H 0.38724 0.423 0.84778 0.0
H3501 H 0.41166 0.456 0.84948 0.0
H3502 H 0.34345 0.4205 0.85374 0.0
H3503 H 0.41038 0.3835 0.86907 0.0
H3504 H 0.44316 0.37706 0.88408 0.0
H3505 H 0.3993 0.36581 0.91835 0.0
H3506 H 0.36626 0.37249 0.90359 0.0
H3507 H 0.28399 0.3201 0.84328 0.0
H3508 H 0.31572 0.34601 0.84466 0.0
H3509 H 0.30623 0.35186 0.88838 0.0
H3510 H 0.27463 0.32555 0.88715 0.0
H3511 H 0.35067 0.35112 0.88168 0.0
H3512 H 0.28435 0.39084 0.86714 0.0
H3513 H 0.25116 0.39785 0.85256 0.0
H3514 H 0.29374 0.40477 0.81728 0.0
H3515 H 0.32718 0.39748 0.83163 0.0
C3516 C 0.398 0.45037 0.8833 0.0
C3517 C 0.40805 0.45961 0.87152 0.0
C3518 C 0.38403 0.43158 0.88229 0.0
C3519 C 0.37998 0.42152 0.86951 0.0
C3520 C 0.39021 0.43049 0.85775 0.0
C3521 C 0.40417 0.44933 0.85874 0.0
C3522 C 0.36394 0.40254 0.86832 0.0
C3523 C 0.34528 0.40515 0.85965 0.0
C3524 C 0.366 0.3828 0.87634 0.0
C3525 C 0.38584 0.37868 0.88524 0.0
C3526 C 0.40773 0.37982 0.87983 0.0
C3527 C 0.42636 0.3761 0.88829 0.0
C3528 C 0.42332 0.37108 0.90217 0.0
C3529 C 0.40163 0.36972 0.9076 0.0
C3530 C 0.38295 0.37344 0.89919 0.0
C3531 C 0.28878 0.32667 0.85323 0.0
C3532 C 0.2766 0.32098 0.86509 0.0
C3533 C 0.30691 0.34151 0.85399 0.0
C3534 C 0.31303 0.35117 0.86658 0.0
C3535 C 0.3017 0.34464 0.87855 0.0
C3536 C 0.28361 0.32965 0.87782 0.0
C3537 C 0.33028 0.36913 0.8671 0.0
C3538 C 0.34904 0.36639 0.87568 0.0
C3539 C 0.3283 0.38884 0.85906 0.0
C3540 C 0.30823 0.39338 0.85043 0.0
C3541 C 0.28662 0.39369 0.85625 0.0
C3542 C 0.26776 0.39774 0.84804 0.0
C3543 C 0.27033 0.40169 0.834 0.0
C3544 C 0.29177 0.40167 0.82815 0.0
C3545 C 0.31068 0.39759 0.83632 0.0
H3546 H 0.25572 0.40482 0.82765 0.0
H3547 H 0.43776 0.36821 0.9087 0.0
H3548 H 0.40686 0.52822 0.63534 0.0
H3549 H 0.38006 0.55916 0.63686 0.0
H3550 H 0.37401 0.56017 0.59277 0.0
H3551 H 0.40097 0.52925 0.59111 0.0
H3552 H 0.37598 0.60304 0.60411 0.0
H3553 H 0.33485 0.53433 0.6107 0.0
H3554 H 0.32682 0.49754 0.62127 0.0
H3555 H 0.31932 0.52913 0.6606 0.0
H3556 H 0.32764 0.5661 0.65029 0.0
H3557 H 0.27184 0.66276 0.60074 0.0
H3558 H 0.30274 0.63597 0.59831 0.0
H3559 H 0.30646 0.62923 0.64232 0.0
H3560 H 0.27536 0.65559 0.64485 0.0
H3561 H 0.306 0.58933 0.63048 0.0
H3562 H 0.34667 0.65823 0.62398 0.0
H3563 H 0.35493 0.69504 0.61349 0.0
H3564 H 0.36335 0.6635 0.57421 0.0
H3565 H 0.35484 0.62651 0.58443 0.0
C3566 C 0.40001 0.53511 0.62594 0.0
C3567 C 0.40592 0.52612 0.6131 0.0
C3568 C 0.38465 0.55276 0.62684 0.0
C3569 C 0.37486 0.56172 0.61494 0.0
C3570 C 0.38136 0.55343 0.60207 0.0
C3571 C 0.3967 0.53571 0.60116 0.0
C3572 C 0.35712 0.57905 0.61599 0.0
C3573 C 0.36054 0.60002 0.60973 0.0
C3574 C 0.3372 0.57515 0.62353 0.0
C3575 C 0.33209 0.55295 0.62974 0.0
C3576 C 0.33167 0.53341 0.62162 0.0
C3577 C 0.32703 0.51253 0.62756 0.0
C3578 C 0.32262 0.51099 0.6416 0.0
C3579 C 0.32277 0.53035 0.64973 0.0
C3580 C 0.32743 0.55127 0.64384 0.0
C3581 C 0.27936 0.65572 0.60991 0.0
C3582 C 0.27107 0.66125 0.62299 0.0
C3583 C 0.29709 0.64048 0.6085 0.0
C3584 C 0.307 0.63071 0.62014 0.0
C3585 C 0.29902 0.63653 0.6332 0.0
C3586 C 0.28126 0.65164 0.63462 0.0
C3587 C 0.3249 0.61354 0.61875 0.0
C3588 C 0.32145 0.59248 0.62489 0.0
C3589 C 0.34476 0.61742 0.61112 0.0
C3590 C 0.34989 0.63963 0.60495 0.0
C3591 C 0.3501 0.65917 0.61308 0.0
C3592 C 0.35486 0.68006 0.60719 0.0
C3593 C 0.3596 0.68162 0.59319 0.0
C3594 C 0.35964 0.66227 0.58505 0.0
C3595 C 0.35487 0.64134 0.59089 0.0
H3596 H 0.36329 0.6978 0.58865 0.0
H3597 H 0.31903 0.49481 0.64618 0.0
H3598 H 0.07248 0.53176 0.35158 0.0
H3599 H 0.09879 0.56313 0.34964 0.0
H3600 H 0.11227 0.55945 0.39307 0.0
H3601 H 0.08573 0.52824 0.39518 0.0
H3602 H 0.10969 0.60303 0.3841 0.0
H3603 H 0.14744 0.53477 0.37095 0.0
H3604 H 0.15233 0.49967 0.35782 0.0
H3605 H 0.15339 0.5372 0.3202 0.0
H3606 H 0.14819 0.5725 0.3331 0.0
H3607 H 0.21671 0.65707 0.38561 0.0
H3608 H 0.18448 0.63182 0.38775 0.0
H3609 H 0.1751 0.63337 0.34386 0.0
H3610 H 0.20759 0.65817 0.34159 0.0
H3611 H 0.17445 0.59175 0.35282 0.0
H3612 H 0.13866 0.66053 0.36615 0.0
H3613 H 0.13393 0.69551 0.3794 0.0
H3614 H 0.12942 0.65738 0.4167 0.0
H3615 H 0.13443 0.62217 0.40368 0.0
C3616 C 0.08085 0.53774 0.36076 0.0
C3617 C 0.07718 0.52732 0.37351 0.0
C3618 C 0.09591 0.55565 0.35962 0.0
C3619 C 0.10772 0.56336 0.37118 0.0
C3620 C 0.10336 0.5537 0.38403 0.0
C3621 C 0.08824 0.53581 0.38519 0.0
C3622 C 0.12554 0.58059 0.36973 0.0
C3623 C 0.12398 0.60053 0.37736 0.0
C3624 C 0.14393 0.57744 0.36075 0.0
C3625 C 0.1472 0.55624 0.35298 0.0
C3626 C 0.14855 0.53551 0.35987 0.0
C3627 C 0.1514 0.51559 0.35247 0.0
C3628 C 0.15311 0.5162 0.33818 0.0
C3629 C 0.15203 0.53675 0.33127 0.0
C3630 C 0.14915 0.55672 0.33862 0.0
C3631 C 0.20766 0.65222 0.37642 0.0
C3632 C 0.21478 0.65956 0.36342 0.0
C3633 C 0.18915 0.63787 0.37767 0.0
C3634 C 0.17726 0.63085 0.36598 0.0
C3635 C 0.18405 0.63855 0.35302 0.0
C3636 C 0.20262 0.65275 0.35175 0.0
C3637 C 0.15862 0.61437 0.36712 0.0
C3638 C 0.1601 0.59444 0.35948 0.0
C3639 C 0.14021 0.61758 0.3761 0.0
C3640 C 0.13713 0.63872 0.38395 0.0
C3641 C 0.13684 0.65961 0.37719 0.0
C3642 C 0.13407 0.67948 0.38466 0.0
C3643 C 0.13143 0.67867 0.39889 0.0
C3644 C 0.13149 0.65798 0.40568 0.0
C3645 C 0.13427 0.63806 0.39826 0.0
H3646 H 0.12929 0.69407 0.40465 0.0
H3647 H 0.15532 0.50075 0.33247 0.0
loop_
_geom_bond_atom_site_label_1
_geom_bond_atom_site_label_2
_geom_bond_distance
_geom_bond_site_symmetry_2
_ccdc_geom_bond_type
C0 O1 1.306 . S
C0 O3 1.160 . S
O1 C0 1.306 . S
O1 Cd2 2.228 . S
Cd2 O1 2.228 . S
Cd2 O6 2.273 . S
Cd2 O10 2.277 . S
O3 C0 1.160 . S
O3 Cd4 2.203 . S
Cd4 O3 2.203 . S
Cd4 O6 2.411 . S
Cd4 O7 2.333 . S
Cd4 O8 2.352 . S
Cd4 O12 2.277 . S
Cd4 O13 2.356 . S
C5 O10 1.209 . S
C5 O12 1.226 . S
O6 Cd2 2.273 . S
O6 Cd4 2.411 . S
O6 C9 1.320 . S
O7 Cd4 2.333 . S
O7 C9 1.214 . S
O8 Cd4 2.352 . S
O8 C11 1.258 . S
C9 O6 1.320 . S
C9 O7 1.214 . S
O10 Cd2 2.277 . S
O10 C5 1.209 . S
C11 O8 1.258 . S
C11 O13 1.282 . S
O12 Cd4 2.277 . S
O12 C5 1.226 . S
O13 Cd4 2.356 . S
O13 C11 1.282 . S
C14 O15 1.306 . S
C14 O17 1.160 . S
O15 C14 1.306 . S
O15 Cd16 2.228 . S
Cd16 O15 2.228 . S
Cd16 O20 2.273 . S
Cd16 O24 2.277 . S
O17 C14 1.160 . S
O17 Cd18 2.203 . S
Cd18 O17 2.203 . S
Cd18 O20 2.411 . S
Cd18 O21 2.333 . S
Cd18 O22 2.352 . S
Cd18 O26 2.277 . S
Cd18 O27 2.356 . S
C19 O24 1.209 . S
C19 O26 1.226 . S
O20 Cd16 2.273 . S
O20 Cd18 2.411 . S
O20 C23 1.320 . S
O21 Cd18 2.333 . S
O21 C23 1.214 . S
O22 Cd18 2.352 . S
O22 C25 1.258 . S
C23 O20 1.320 . S
C23 O21 1.214 . S
O24 Cd16 2.277 . S
O24 C19 1.209 . S
C25 O22 1.258 . S
C25 O27 1.282 . S
O26 Cd18 2.277 . S
O26 C19 1.226 . S
O27 Cd18 2.356 . S
O27 C25 1.282 . S
C28 O29 1.306 . S
C28 O31 1.160 . S
O29 C28 1.306 . S
O29 Cd30 2.228 . S
Cd30 O29 2.228 . S
Cd30 O34 2.273 . S
Cd30 O38 2.277 . S
O31 C28 1.160 . S
O31 Cd32 2.203 . S
Cd32 O31 2.203 . S
Cd32 O34 2.411 . S
Cd32 O35 2.333 . S
Cd32 O36 2.352 . S
Cd32 O40 2.277 . S
Cd32 O41 2.356 . S
C33 O38 1.209 . S
C33 O40 1.226 . S
O34 Cd30 2.273 . S
O34 Cd32 2.411 . S
O34 C37 1.320 . S
O35 Cd32 2.333 . S
O35 C37 1.214 . S
O36 Cd32 2.352 . S
O36 C39 1.258 . S
C37 O34 1.320 . S
C37 O35 1.214 . S
O38 Cd30 2.277 . S
O38 C33 1.209 . S
C39 O36 1.258 . S
C39 O41 1.282 . S
O40 Cd32 2.277 . S
O40 C33 1.226 . S
O41 Cd32 2.356 . S
O41 C39 1.282 . S
C42 O43 1.306 . S
C42 O45 1.160 . S
O43 C42 1.306 . S
O43 Cd44 2.228 . S
Cd44 O43 2.228 . S
Cd44 O48 2.273 . S
Cd44 O52 2.277 . S
O45 C42 1.160 . S
O45 Cd46 2.203 . S
Cd46 O45 2.203 . S
Cd46 O48 2.411 . S
Cd46 O49 2.333 . S
Cd46 O50 2.352 . S
Cd46 O54 2.277 . S
Cd46 O55 2.356 . S
C47 O52 1.209 . S
C47 O54 1.226 . S
O48 Cd44 2.273 . S
O48 Cd46 2.411 . S
O48 C51 1.320 . S
O49 Cd46 2.333 . S
O49 C51 1.214 . S
O50 Cd46 2.352 . S
O50 C53 1.258 . S
C51 O48 1.320 . S
C51 O49 1.214 . S
O52 Cd44 2.277 . S
O52 C47 1.209 . S
C53 O50 1.258 . S
C53 O55 1.282 . S
O54 Cd46 2.277 . S
O54 C47 1.226 . S
O55 Cd46 2.356 . S
O55 C53 1.282 . S
C56 O57 1.306 . S
C56 O59 1.160 . S
O57 C56 1.306 . S
O57 Cd58 2.228 . S
Cd58 O57 2.228 . S
Cd58 O62 2.273 . S
Cd58 O66 2.277 . S
O59 C56 1.160 . S
O59 Cd60 2.203 . S
Cd60 O59 2.203 . S
Cd60 O62 2.411 . S
Cd60 O63 2.333 . S
Cd60 O64 2.352 . S
Cd60 O68 2.277 . S
Cd60 O69 2.356 . S
C61 O66 1.209 . S
C61 O68 1.226 . S
O62 Cd58 2.273 . S
O62 Cd60 2.411 . S
O62 C65 1.320 . S
O63 Cd60 2.333 . S
O63 C65 1.214 . S
O64 Cd60 2.352 . S
O64 C67 1.258 . S
C65 O62 1.320 . S
C65 O63 1.214 . S
O66 Cd58 2.277 . S
O66 C61 1.209 . S
C67 O64 1.258 . S
C67 O69 1.282 . S
O68 Cd60 2.277 . S
O68 C61 1.226 . S
O69 Cd60 2.356 . S
O69 C67 1.282 . S
C70 O71 1.306 . S
C70 O73 1.160 . S
O71 C70 1.306 . S
O71 Cd72 2.228 . S
Cd72 O71 2.228 . S
Cd72 O76 2.273 . S
Cd72 O80 2.277 . S
O73 C70 1.160 . S
O73 Cd74 2.203 . S
Cd74 O73 2.203 . S
Cd74 O76 2.411 . S
Cd74 O77 2.333 . S
Cd74 O78 2.352 . S
Cd74 O82 2.277 . S
Cd74 O83 2.356 . S
C75 O80 1.209 . S
C75 O82 1.226 . S
O76 Cd72 2.273 . S
O76 Cd74 2.411 . S
O76 C79 1.320 . S
O77 Cd74 2.333 . S
O77 C79 1.214 . S
O78 Cd74 2.352 . S
O78 C81 1.258 . S
C79 O76 1.320 . S
C79 O77 1.214 . S
O80 Cd72 2.277 . S
O80 C75 1.209 . S
C81 O78 1.258 . S
C81 O83 1.282 . S
O82 Cd74 2.277 . S
O82 C75 1.226 . S
O83 Cd74 2.356 . S
O83 C81 1.282 . S
C84 O85 1.306 . S
C84 O87 1.160 . S
O85 C84 1.306 . S
O85 Cd86 2.228 . S
Cd86 O85 2.228 . S
Cd86 O90 2.273 . S
Cd86 O94 2.277 . S
O87 C84 1.160 . S
O87 Cd88 2.203 . S
Cd88 O87 2.203 . S
Cd88 O90 2.411 . S
Cd88 O91 2.333 . S
Cd88 O92 2.352 . S
Cd88 O96 2.277 . S
Cd88 O97 2.356 . S
C89 O94 1.209 . S
C89 O96 1.226 . S
O90 Cd86 2.273 . S
O90 Cd88 2.411 . S
O90 C93 1.320 . S
O91 Cd88 2.333 . S
O91 C93 1.214 . S
O92 Cd88 2.352 . S
O92 C95 1.258 . S
C93 O90 1.320 . S
C93 O91 1.214 . S
O94 Cd86 2.277 . S
O94 C89 1.209 . S
C95 O92 1.258 . S
C95 O97 1.282 . S
O96 Cd88 2.277 . S
O96 C89 1.226 . S
O97 Cd88 2.356 . S
O97 C95 1.282 . S
C98 O99 1.306 . S
C98 O101 1.160 . S
O99 C98 1.306 . S
O99 Cd100 2.228 . S
Cd100 O99 2.228 . S
Cd100 O104 2.273 . S
Cd100 O108 2.277 . S
O101 C98 1.160 . S
O101 Cd102 2.203 . S
Cd102 O101 2.203 . S
Cd102 O104 2.411 . S
Cd102 O105 2.333 . S
Cd102 O106 2.352 . S
Cd102 O110 2.277 . S
Cd102 O111 2.356 . S
C103 O108 1.209 . S
C103 O110 1.226 . S
O104 Cd100 2.273 . S
O104 Cd102 2.411 . S
O104 C107 1.320 . S
O105 Cd102 2.333 . S
O105 C107 1.214 . S
O106 Cd102 2.352 . S
O106 C109 1.258 . S
C107 O104 1.320 . S
C107 O105 1.214 . S
O108 Cd100 2.277 . S
O108 C103 1.209 . S
C109 O106 1.258 . S
C109 O111 1.282 . S
O110 Cd102 2.277 . S
O110 C103 1.226 . S
O111 Cd102 2.356 . S
O111 C109 1.282 . S
C112 O113 1.306 . S
C112 O115 1.160 . S
O113 C112 1.306 . S
O113 Cd114 2.228 . S
Cd114 O113 2.228 . S
Cd114 O118 2.273 . S
Cd114 O122 2.277 . S
O115 C112 1.160 . S
O115 Cd116 2.203 . S
Cd116 O115 2.203 . S
Cd116 O118 2.411 . S
Cd116 O119 2.333 . S
Cd116 O120 2.352 . S
Cd116 O124 2.277 . S
Cd116 O125 2.356 . S
C117 O122 1.209 . S
C117 O124 1.226 . S
O118 Cd114 2.273 . S
O118 Cd116 2.411 . S
O118 C121 1.320 . S
O119 Cd116 2.333 . S
O119 C121 1.214 . S
O120 Cd116 2.352 . S
O120 C123 1.258 . S
C121 O118 1.320 . S
C121 O119 1.214 . S
O122 Cd114 2.277 . S
O122 C117 1.209 . S
C123 O120 1.258 . S
C123 O125 1.282 . S
O124 Cd116 2.277 . S
O124 C117 1.226 . S
O125 Cd116 2.356 . S
O125 C123 1.282 . S
C126 O127 1.306 . S
C126 O129 1.160 . S
O127 C126 1.306 . S
O127 Cd128 2.228 . S
Cd128 O127 2.228 . S
Cd128 O132 2.273 . S
Cd128 O136 2.277 . S
O129 C126 1.160 . S
O129 Cd130 2.203 . S
Cd130 O129 2.203 . S
Cd130 O132 2.411 . S
Cd130 O133 2.333 . S
Cd130 O134 2.352 . S
Cd130 O138 2.277 . S
Cd130 O139 2.356 . S
C131 O136 1.209 . S
C131 O138 1.226 . S
O132 Cd128 2.273 . S
O132 Cd130 2.411 . S
O132 C135 1.320 . S
O133 Cd130 2.333 . S
O133 C135 1.214 . S
O134 Cd130 2.352 . S
O134 C137 1.258 . S
C135 O132 1.320 . S
C135 O133 1.214 . S
O136 Cd128 2.277 . S
O136 C131 1.209 . S
C137 O134 1.258 . S
C137 O139 1.282 . S
O138 Cd130 2.277 . S
O138 C131 1.226 . S
O139 Cd130 2.356 . S
O139 C137 1.282 . S
C140 O141 1.306 . S
C140 O143 1.160 . S
O141 C140 1.306 . S
O141 Cd142 2.228 . S
Cd142 O141 2.228 . S
Cd142 O146 2.273 . S
Cd142 O150 2.277 . S
O143 C140 1.160 . S
O143 Cd144 2.203 . S
Cd144 O143 2.203 . S
Cd144 O146 2.411 . S
Cd144 O147 2.333 . S
Cd144 O148 2.352 . S
Cd144 O152 2.277 . S
Cd144 O153 2.356 . S
C145 O150 1.209 . S
C145 O152 1.226 . S
O146 Cd142 2.273 . S
O146 Cd144 2.411 . S
O146 C149 1.320 . S
O147 Cd144 2.333 . S
O147 C149 1.214 . S
O148 Cd144 2.352 . S
O148 C151 1.258 . S
C149 O146 1.320 . S
C149 O147 1.214 . S
O150 Cd142 2.277 . S
O150 C145 1.209 . S
C151 O148 1.258 . S
C151 O153 1.282 . S
O152 Cd144 2.277 . S
O152 C145 1.226 . S
O153 Cd144 2.356 . S
O153 C151 1.282 . S
C154 O155 1.306 . S
C154 O157 1.160 . S
O155 C154 1.306 . S
O155 Cd156 2.228 . S
Cd156 O155 2.228 . S
Cd156 O160 2.273 . S
Cd156 O164 2.277 . S
O157 C154 1.160 . S
O157 Cd158 2.203 . S
Cd158 O157 2.203 . S
Cd158 O160 2.411 . S
Cd158 O161 2.333 . S
Cd158 O162 2.352 . S
Cd158 O166 2.277 . S
Cd158 O167 2.356 . S
C159 O164 1.209 . S
C159 O166 1.226 . S
O160 Cd156 2.273 . S
O160 Cd158 2.411 . S
O160 C163 1.320 . S
O161 Cd158 2.333 . S
O161 C163 1.214 . S
O162 Cd158 2.352 . S
O162 C165 1.258 . S
C163 O160 1.320 . S
C163 O161 1.214 . S
O164 Cd156 2.277 . S
O164 C159 1.209 . S
C165 O162 1.258 . S
C165 O167 1.282 . S
O166 Cd158 2.277 . S
O166 C159 1.226 . S
O167 Cd158 2.356 . S
O167 C165 1.282 . S
C168 O169 1.306 . S
C168 O171 1.160 . S
O169 C168 1.306 . S
O169 Cd170 2.228 . S
Cd170 O169 2.228 . S
Cd170 O174 2.273 . S
Cd170 O178 2.277 . S
O171 C168 1.160 . S
O171 Cd172 2.203 . S
Cd172 O171 2.203 . S
Cd172 O174 2.411 . S
Cd172 O175 2.333 . S
Cd172 O176 2.352 . S
Cd172 O180 2.277 . S
Cd172 O181 2.356 . S
C173 O178 1.209 . S
C173 O180 1.226 . S
O174 Cd170 2.273 . S
O174 Cd172 2.411 . S
O174 C177 1.320 . S
O175 Cd172 2.333 . S
O175 C177 1.214 . S
O176 Cd172 2.352 . S
O176 C179 1.258 . S
C177 O174 1.320 . S
C177 O175 1.214 . S
O178 Cd170 2.277 . S
O178 C173 1.209 . S
C179 O176 1.258 . S
C179 O181 1.282 . S
O180 Cd172 2.277 . S
O180 C173 1.226 . S
O181 Cd172 2.356 . S
O181 C179 1.282 . S
C182 O183 1.306 . S
C182 O185 1.160 . S
O183 C182 1.306 . S
O183 Cd184 2.228 . S
Cd184 O183 2.228 . S
Cd184 O188 2.273 . S
Cd184 O192 2.277 . S
O185 C182 1.160 . S
O185 Cd186 2.203 . S
Cd186 O185 2.203 . S
Cd186 O188 2.411 . S
Cd186 O189 2.333 . S
Cd186 O190 2.352 . S
Cd186 O194 2.277 . S
Cd186 O195 2.356 . S
C187 O192 1.209 . S
C187 O194 1.226 . S
O188 Cd184 2.273 . S
O188 Cd186 2.411 . S
O188 C191 1.320 . S
O189 Cd186 2.333 . S
O189 C191 1.214 . S
O190 Cd186 2.352 . S
O190 C193 1.258 . S
C191 O188 1.320 . S
C191 O189 1.214 . S
O192 Cd184 2.277 . S
O192 C187 1.209 . S
C193 O190 1.258 . S
C193 O195 1.282 . S
O194 Cd186 2.277 . S
O194 C187 1.226 . S
O195 Cd186 2.356 . S
O195 C193 1.282 . S
C196 O197 1.306 . S
C196 O199 1.160 . S
O197 C196 1.306 . S
O197 Cd198 2.228 . S
Cd198 O197 2.228 . S
Cd198 O202 2.273 . S
Cd198 O206 2.277 . S
O199 C196 1.160 . S
O199 Cd200 2.203 . S
Cd200 O199 2.203 . S
Cd200 O202 2.411 . S
Cd200 O203 2.333 . S
Cd200 O204 2.352 . S
Cd200 O208 2.277 . S
Cd200 O209 2.356 . S
C201 O206 1.209 . S
C201 O208 1.226 . S
O202 Cd198 2.273 . S
O202 Cd200 2.411 . S
O202 C205 1.320 . S
O203 Cd200 2.333 . S
O203 C205 1.214 . S
O204 Cd200 2.352 . S
O204 C207 1.258 . S
C205 O202 1.320 . S
C205 O203 1.214 . S
O206 Cd198 2.277 . S
O206 C201 1.209 . S
C207 O204 1.258 . S
C207 O209 1.282 . S
O208 Cd200 2.277 . S
O208 C201 1.226 . S
O209 Cd200 2.356 . S
O209 C207 1.282 . S
C210 O211 1.306 . S
C210 O213 1.160 . S
O211 C210 1.306 . S
O211 Cd212 2.228 . S
Cd212 O211 2.228 . S
Cd212 O216 2.273 . S
Cd212 O220 2.277 . S
O213 C210 1.160 . S
O213 Cd214 2.203 . S
Cd214 O213 2.203 . S
Cd214 O216 2.411 . S
Cd214 O217 2.333 . S
Cd214 O218 2.352 . S
Cd214 O222 2.277 . S
Cd214 O223 2.356 . S
C215 O220 1.209 . S
C215 O222 1.226 . S
O216 Cd212 2.273 . S
O216 Cd214 2.411 . S
O216 C219 1.320 . S
O217 Cd214 2.333 . S
O217 C219 1.214 . S
O218 Cd214 2.352 . S
O218 C221 1.258 . S
C219 O216 1.320 . S
C219 O217 1.214 . S
O220 Cd212 2.277 . S
O220 C215 1.209 . S
C221 O218 1.258 . S
C221 O223 1.282 . S
O222 Cd214 2.277 . S
O222 C215 1.226 . S
O223 Cd214 2.356 . S
O223 C221 1.282 . S
C224 O225 1.306 . S
C224 O227 1.160 . S
O225 C224 1.306 . S
O225 Cd226 2.228 . S
Cd226 O225 2.228 . S
Cd226 O230 2.273 . S
Cd226 O234 2.277 . S
O227 C224 1.160 . S
O227 Cd228 2.203 . S
Cd228 O227 2.203 . S
Cd228 O230 2.411 . S
Cd228 O231 2.333 . S
Cd228 O232 2.352 . S
Cd228 O236 2.277 . S
Cd228 O237 2.356 . S
C229 O234 1.209 . S
C229 O236 1.226 . S
O230 Cd226 2.273 . S
O230 Cd228 2.411 . S
O230 C233 1.320 . S
O231 Cd228 2.333 . S
O231 C233 1.214 . S
O232 Cd228 2.352 . S
O232 C235 1.258 . S
C233 O230 1.320 . S
C233 O231 1.214 . S
O234 Cd226 2.277 . S
O234 C229 1.209 . S
C235 O232 1.258 . S
C235 O237 1.282 . S
O236 Cd228 2.277 . S
O236 C229 1.226 . S
O237 Cd228 2.356 . S
O237 C235 1.282 . S
C238 O239 1.306 . S
C238 O241 1.160 . S
O239 C238 1.306 . S
O239 Cd240 2.228 . S
Cd240 O239 2.228 . S
Cd240 O244 2.273 . S
Cd240 O248 2.277 . S
O241 C238 1.160 . S
O241 Cd242 2.203 . S
Cd242 O241 2.203 . S
Cd242 O244 2.411 . S
Cd242 O245 2.333 . S
Cd242 O246 2.352 . S
Cd242 O250 2.277 . S
Cd242 O251 2.356 . S
C243 O248 1.209 . S
C243 O250 1.226 . S
O244 Cd240 2.273 . S
O244 Cd242 2.411 . S
O244 C247 1.320 . S
O245 Cd242 2.333 . S
O245 C247 1.214 . S
O246 Cd242 2.352 . S
O246 C249 1.258 . S
C247 O244 1.320 . S
C247 O245 1.214 . S
O248 Cd240 2.277 . S
O248 C243 1.209 . S
C249 O246 1.258 . S
C249 O251 1.282 . S
O250 Cd242 2.277 . S
O250 C243 1.226 . S
O251 Cd242 2.356 . S
O251 C249 1.282 . S
C252 O253 1.306 . S
C252 O255 1.160 . S
O253 C252 1.306 . S
O253 Cd254 2.228 . S
Cd254 O253 2.228 . S
Cd254 O258 2.273 . S
Cd254 O262 2.277 . S
O255 C252 1.160 . S
O255 Cd256 2.203 . S
Cd256 O255 2.203 . S
Cd256 O258 2.411 . S
Cd256 O259 2.333 . S
Cd256 O260 2.352 . S
Cd256 O264 2.277 . S
Cd256 O265 2.356 . S
C257 O262 1.209 . S
C257 O264 1.226 . S
O258 Cd254 2.273 . S
O258 Cd256 2.411 . S
O258 C261 1.320 . S
O259 Cd256 2.333 . S
O259 C261 1.214 . S
O260 Cd256 2.352 . S
O260 C263 1.258 . S
C261 O258 1.320 . S
C261 O259 1.214 . S
O262 Cd254 2.277 . S
O262 C257 1.209 . S
C263 O260 1.258 . S
C263 O265 1.282 . S
O264 Cd256 2.277 . S
O264 C257 1.226 . S
O265 Cd256 2.356 . S
O265 C263 1.282 . S
C266 O267 1.306 . S
C266 O269 1.160 . S
O267 C266 1.306 . S
O267 Cd268 2.228 . S
Cd268 O267 2.228 . S
Cd268 O272 2.273 . S
Cd268 O276 2.277 . S
O269 C266 1.160 . S
O269 Cd270 2.203 . S
Cd270 O269 2.203 . S
Cd270 O272 2.411 . S
Cd270 O273 2.333 . S
Cd270 O274 2.352 . S
Cd270 O278 2.277 . S
Cd270 O279 2.356 . S
C271 O276 1.209 . S
C271 O278 1.226 . S
O272 Cd268 2.273 . S
O272 Cd270 2.411 . S
O272 C275 1.320 . S
O273 Cd270 2.333 . S
O273 C275 1.214 . S
O274 Cd270 2.352 . S
O274 C277 1.258 . S
C275 O272 1.320 . S
C275 O273 1.214 . S
O276 Cd268 2.277 . S
O276 C271 1.209 . S
C277 O274 1.258 . S
C277 O279 1.282 . S
O278 Cd270 2.277 . S
O278 C271 1.226 . S
O279 Cd270 2.356 . S
O279 C277 1.282 . S
C280 O281 1.306 . S
C280 O283 1.160 . S
O281 C280 1.306 . S
O281 Cd282 2.228 . S
Cd282 O281 2.228 . S
Cd282 O286 2.273 . S
Cd282 O290 2.277 . S
O283 C280 1.160 . S
O283 Cd284 2.203 . S
Cd284 O283 2.203 . S
Cd284 O286 2.411 . S
Cd284 O287 2.333 . S
Cd284 O288 2.352 . S
Cd284 O292 2.277 . S
Cd284 O293 2.356 . S
C285 O290 1.209 . S
C285 O292 1.226 . S
O286 Cd282 2.273 . S
O286 Cd284 2.411 . S
O286 C289 1.320 . S
O287 Cd284 2.333 . S
O287 C289 1.214 . S
O288 Cd284 2.352 . S
O288 C291 1.258 . S
C289 O286 1.320 . S
C289 O287 1.214 . S
O290 Cd282 2.277 . S
O290 C285 1.209 . S
C291 O288 1.258 . S
C291 O293 1.282 . S
O292 Cd284 2.277 . S
O292 C285 1.226 . S
O293 Cd284 2.356 . S
O293 C291 1.282 . S
C294 O295 1.306 . S
C294 O297 1.160 . S
O295 C294 1.306 . S
O295 Cd296 2.228 . S
Cd296 O295 2.228 . S
Cd296 O300 2.273 . S
Cd296 O304 2.277 . S
O297 C294 1.160 . S
O297 Cd298 2.203 . S
Cd298 O297 2.203 . S
Cd298 O300 2.411 . S
Cd298 O301 2.333 . S
Cd298 O302 2.352 . S
Cd298 O306 2.277 . S
Cd298 O307 2.356 . S
C299 O304 1.209 . S
C299 O306 1.226 . S
O300 Cd296 2.273 . S
O300 Cd298 2.411 . S
O300 C303 1.320 . S
O301 Cd298 2.333 . S
O301 C303 1.214 . S
O302 Cd298 2.352 . S
O302 C305 1.258 . S
C303 O300 1.320 . S
C303 O301 1.214 . S
O304 Cd296 2.277 . S
O304 C299 1.209 . S
C305 O302 1.258 . S
C305 O307 1.282 . S
O306 Cd298 2.277 . S
O306 C299 1.226 . S
O307 Cd298 2.356 . S
O307 C305 1.282 . S
C308 O309 1.306 . S
C308 O311 1.160 . S
O309 C308 1.306 . S
O309 Cd310 2.228 . S
Cd310 O309 2.228 . S
Cd310 O314 2.273 . S
Cd310 O318 2.277 . S
O311 C308 1.160 . S
O311 Cd312 2.203 . S
Cd312 O311 2.203 . S
Cd312 O314 2.411 . S
Cd312 O315 2.333 . S
Cd312 O316 2.352 . S
Cd312 O320 2.277 . S
Cd312 O321 2.356 . S
C313 O318 1.209 . S
C313 O320 1.226 . S
O314 Cd310 2.273 . S
O314 Cd312 2.411 . S
O314 C317 1.320 . S
O315 Cd312 2.333 . S
O315 C317 1.214 . S
O316 Cd312 2.352 . S
O316 C319 1.258 . S
C317 O314 1.320 . S
C317 O315 1.214 . S
O318 Cd310 2.277 . S
O318 C313 1.209 . S
C319 O316 1.258 . S
C319 O321 1.282 . S
O320 Cd312 2.277 . S
O320 C313 1.226 . S
O321 Cd312 2.356 . S
O321 C319 1.282 . S
C322 O323 1.306 . S
C322 O325 1.160 . S
O323 C322 1.306 . S
O323 Cd324 2.228 . S
Cd324 O323 2.228 . S
Cd324 O328 2.273 . S
Cd324 O332 2.277 . S
O325 C322 1.160 . S
O325 Cd326 2.203 . S
Cd326 O325 2.203 . S
Cd326 O328 2.411 . S
Cd326 O329 2.333 . S
Cd326 O330 2.352 . S
Cd326 O334 2.277 . S
Cd326 O335 2.356 . S
C327 O332 1.209 . S
C327 O334 1.226 . S
O328 Cd324 2.273 . S
O328 Cd326 2.411 . S
O328 C331 1.320 . S
O329 Cd326 2.333 . S
O329 C331 1.214 . S
O330 Cd326 2.352 . S
O330 C333 1.258 . S
C331 O328 1.320 . S
C331 O329 1.214 . S
O332 Cd324 2.277 . S
O332 C327 1.209 . S
C333 O330 1.258 . S
C333 O335 1.282 . S
O334 Cd326 2.277 . S
O334 C327 1.226 . S
O335 Cd326 2.356 . S
O335 C333 1.282 . S
C336 O337 1.306 . S
C336 O339 1.160 . S
O337 C336 1.306 . S
O337 Cd338 2.228 . S
Cd338 O337 2.228 . S
Cd338 O342 2.273 . S
Cd338 O346 2.277 . S
O339 C336 1.160 . S
O339 Cd340 2.203 . S
Cd340 O339 2.203 . S
Cd340 O342 2.411 . S
Cd340 O343 2.333 . S
Cd340 O344 2.352 . S
Cd340 O348 2.277 . S
Cd340 O349 2.356 . S
C341 O346 1.209 . S
C341 O348 1.226 . S
O342 Cd338 2.273 . S
O342 Cd340 2.411 . S
O342 C345 1.320 . S
O343 Cd340 2.333 . S
O343 C345 1.214 . S
O344 Cd340 2.352 . S
O344 C347 1.258 . S
C345 O342 1.320 . S
C345 O343 1.214 . S
O346 Cd338 2.277 . S
O346 C341 1.209 . S
C347 O344 1.258 . S
C347 O349 1.282 . S
O348 Cd340 2.277 . S
O348 C341 1.226 . S
O349 Cd340 2.356 . S
O349 C347 1.282 . S
C350 O351 1.306 . S
C350 O353 1.160 . S
O351 C350 1.306 . S
O351 Cd352 2.228 . S
Cd352 O351 2.228 . S
Cd352 O356 2.273 . S
Cd352 O360 2.277 . S
O353 C350 1.160 . S
O353 Cd354 2.203 . S
Cd354 O353 2.203 . S
Cd354 O356 2.411 . S
Cd354 O357 2.333 . S
Cd354 O358 2.352 . S
Cd354 O362 2.277 . S
Cd354 O363 2.356 . S
C355 O360 1.209 . S
C355 O362 1.226 . S
O356 Cd352 2.273 . S
O356 Cd354 2.411 . S
O356 C359 1.320 . S
O357 Cd354 2.333 . S
O357 C359 1.214 . S
O358 Cd354 2.352 . S
O358 C361 1.258 . S
C359 O356 1.320 . S
C359 O357 1.214 . S
O360 Cd352 2.277 . S
O360 C355 1.209 . S
C361 O358 1.258 . S
C361 O363 1.282 . S
O362 Cd354 2.277 . S
O362 C355 1.226 . S
O363 Cd354 2.356 . S
O363 C361 1.282 . S
C364 O365 1.306 . S
C364 O367 1.160 . S
O365 C364 1.306 . S
O365 Cd366 2.228 . S
Cd366 O365 2.228 . S
Cd366 O370 2.273 . S
Cd366 O374 2.277 . S
O367 C364 1.160 . S
O367 Cd368 2.203 . S
Cd368 O367 2.203 . S
Cd368 O370 2.411 . S
Cd368 O371 2.333 . S
Cd368 O372 2.352 . S
Cd368 O376 2.277 . S
Cd368 O377 2.356 . S
C369 O374 1.209 . S
C369 O376 1.226 . S
O370 Cd366 2.273 . S
O370 Cd368 2.411 . S
O370 C373 1.320 . S
O371 Cd368 2.333 . S
O371 C373 1.214 . S
O372 Cd368 2.352 . S
O372 C375 1.258 . S
C373 O370 1.320 . S
C373 O371 1.214 . S
O374 Cd366 2.277 . S
O374 C369 1.209 . S
C375 O372 1.258 . S
C375 O377 1.282 . S
O376 Cd368 2.277 . S
O376 C369 1.226 . S
O377 Cd368 2.356 . S
O377 C375 1.282 . S
C378 O379 1.306 . S
C378 O381 1.160 . S
O379 C378 1.306 . S
O379 Cd380 2.228 . S
Cd380 O379 2.228 . S
Cd380 O384 2.273 . S
Cd380 O388 2.277 . S
O381 C378 1.160 . S
O381 Cd382 2.203 . S
Cd382 O381 2.203 . S
Cd382 O384 2.411 . S
Cd382 O385 2.333 . S
Cd382 O386 2.352 . S
Cd382 O390 2.277 . S
Cd382 O391 2.356 . S
C383 O388 1.209 . S
C383 O390 1.226 . S
O384 Cd380 2.273 . S
O384 Cd382 2.411 . S
O384 C387 1.320 . S
O385 Cd382 2.333 . S
O385 C387 1.214 . S
O386 Cd382 2.352 . S
O386 C389 1.258 . S
C387 O384 1.320 . S
C387 O385 1.214 . S
O388 Cd380 2.277 . S
O388 C383 1.209 . S
C389 O386 1.258 . S
C389 O391 1.282 . S
O390 Cd382 2.277 . S
O390 C383 1.226 . S
O391 Cd382 2.356 . S
O391 C389 1.282 . S
C392 O393 1.306 . S
C392 O395 1.160 . S
O393 C392 1.306 . S
O393 Cd394 2.228 . S
Cd394 O393 2.228 . S
Cd394 O398 2.273 . S
Cd394 O402 2.277 . S
O395 C392 1.160 . S
O395 Cd396 2.203 . S
Cd396 O395 2.203 . S
Cd396 O398 2.411 . S
Cd396 O399 2.333 . S
Cd396 O400 2.352 . S
Cd396 O404 2.277 . S
Cd396 O405 2.356 . S
C397 O402 1.209 . S
C397 O404 1.226 . S
O398 Cd394 2.273 . S
O398 Cd396 2.411 . S
O398 C401 1.320 . S
O399 Cd396 2.333 . S
O399 C401 1.214 . S
O400 Cd396 2.352 . S
O400 C403 1.258 . S
C401 O398 1.320 . S
C401 O399 1.214 . S
O402 Cd394 2.277 . S
O402 C397 1.209 . S
C403 O400 1.258 . S
C403 O405 1.282 . S
O404 Cd396 2.277 . S
O404 C397 1.226 . S
O405 Cd396 2.356 . S
O405 C403 1.282 . S
C406 O407 1.306 . S
C406 O409 1.160 . S
O407 C406 1.306 . S
O407 Cd408 2.228 . S
Cd408 O407 2.228 . S
Cd408 O412 2.273 . S
Cd408 O416 2.277 . S
O409 C406 1.160 . S
O409 Cd410 2.203 . S
Cd410 O409 2.203 . S
Cd410 O412 2.411 . S
Cd410 O413 2.333 . S
Cd410 O414 2.352 . S
Cd410 O418 2.277 . S
Cd410 O419 2.356 . S
C411 O416 1.209 . S
C411 O418 1.226 . S
O412 Cd408 2.273 . S
O412 Cd410 2.411 . S
O412 C415 1.320 . S
O413 Cd410 2.333 . S
O413 C415 1.214 . S
O414 Cd410 2.352 . S
O414 C417 1.258 . S
C415 O412 1.320 . S
C415 O413 1.214 . S
O416 Cd408 2.277 . S
O416 C411 1.209 . S
C417 O414 1.258 . S
C417 O419 1.282 . S
O418 Cd410 2.277 . S
O418 C411 1.226 . S
O419 Cd410 2.356 . S
O419 C417 1.282 . S
C420 O421 1.306 . S
C420 O423 1.160 . S
O421 C420 1.306 . S
O421 Cd422 2.228 . S
Cd422 O421 2.228 . S
Cd422 O426 2.273 . S
Cd422 O430 2.277 . S
O423 C420 1.160 . S
O423 Cd424 2.203 . S
Cd424 O423 2.203 . S
Cd424 O426 2.411 . S
Cd424 O427 2.333 . S
Cd424 O428 2.352 . S
Cd424 O432 2.277 . S
Cd424 O433 2.356 . S
C425 O430 1.209 . S
C425 O432 1.226 . S
O426 Cd422 2.273 . S
O426 Cd424 2.411 . S
O426 C429 1.320 . S
O427 Cd424 2.333 . S
O427 C429 1.214 . S
O428 Cd424 2.352 . S
O428 C431 1.258 . S
C429 O426 1.320 . S
C429 O427 1.214 . S
O430 Cd422 2.277 . S
O430 C425 1.209 . S
C431 O428 1.258 . S
C431 O433 1.282 . S
O432 Cd424 2.277 . S
O432 C425 1.226 . S
O433 Cd424 2.356 . S
O433 C431 1.282 . S
C434 O435 1.306 . S
C434 O437 1.160 . S
O435 C434 1.306 . S
O435 Cd436 2.228 . S
Cd436 O435 2.228 . S
Cd436 O440 2.273 . S
Cd436 O444 2.277 . S
O437 C434 1.160 . S
O437 Cd438 2.203 . S
Cd438 O437 2.203 . S
Cd438 O440 2.411 . S
Cd438 O441 2.333 . S
Cd438 O442 2.352 . S
Cd438 O446 2.277 . S
Cd438 O447 2.356 . S
C439 O444 1.209 . S
C439 O446 1.226 . S
O440 Cd436 2.273 . S
O440 Cd438 2.411 . S
O440 C443 1.320 . S
O441 Cd438 2.333 . S
O441 C443 1.214 . S
O442 Cd438 2.352 . S
O442 C445 1.258 . S
C443 O440 1.320 . S
C443 O441 1.214 . S
O444 Cd436 2.277 . S
O444 C439 1.209 . S
C445 O442 1.258 . S
C445 O447 1.282 . S
O446 Cd438 2.277 . S
O446 C439 1.226 . S
O447 Cd438 2.356 . S
O447 C445 1.282 . S
H448 C466 0.951 . S
H449 C468 0.951 . S
H450 C470 0.950 . S
H451 C471 0.950 . S
H452 C473 0.950 . S
H453 C476 0.950 . S
H454 C477 0.950 . S
H455 C479 0.950 . S
H456 C480 0.950 . S
H457 C481 0.951 . S
H458 C483 0.951 . S
H459 C485 0.950 . S
H460 C486 0.950 . S
H461 C488 0.950 . S
H462 C491 0.950 . S
H463 C492 0.950 . S
H464 C494 0.950 . S
H465 C495 0.950 . S
C466 H448 0.951 . S
C466 C467 1.366 . S
C466 C468 1.388 . S
C467 C466 1.366 . S
C467 C471 1.385 . S
C468 H449 0.951 . S
C468 C466 1.388 . S
C468 C469 1.366 . S
C469 C468 1.366 . S
C469 C470 1.414 . S
C469 C472 1.499 . S
C470 H450 0.950 . S
C470 C469 1.414 . S
C470 C471 1.374 . S
C471 H451 0.950 . S
C471 C467 1.385 . S
C471 C470 1.374 . S
C472 C469 1.499 . S
C472 C473 1.373 . S
C472 C474 1.389 . S
C473 H452 0.950 . S
C473 C472 1.373 . S
C473 C489 1.377 . S
C474 C472 1.389 . S
C474 C475 1.524 . S
C474 C488 1.377 . S
C475 C474 1.524 . S
C475 C476 1.397 . S
C475 C480 1.363 . S
C476 H453 0.950 . S
C476 C475 1.397 . S
C476 C477 1.334 . S
C477 H454 0.950 . S
C477 C476 1.334 . S
C477 C478 1.287 . S
C478 C477 1.287 . S
C478 C479 1.524 . S
C478 H497 0.913 . S
C479 H455 0.950 . S
C479 C478 1.524 . S
C479 C480 1.415 . S
C480 H456 0.950 . S
C480 C475 1.363 . S
C480 C479 1.415 . S
C481 H457 0.951 . S
C481 C482 1.366 . S
C481 C483 1.388 . S
C482 C481 1.366 . S
C482 C486 1.385 . S
C483 H458 0.951 . S
C483 C481 1.388 . S
C483 C484 1.366 . S
C484 C483 1.366 . S
C484 C485 1.414 . S
C484 C487 1.499 . S
C485 H459 0.950 . S
C485 C484 1.414 . S
C485 C486 1.374 . S
C486 H460 0.950 . S
C486 C482 1.385 . S
C486 C485 1.374 . S
C487 C484 1.499 . S
C487 C488 1.373 . S
C487 C489 1.389 . S
C488 H461 0.950 . S
C488 C474 1.377 . S
C488 C487 1.373 . S
C489 C473 1.377 . S
C489 C487 1.389 . S
C489 C490 1.524 . S
C490 C489 1.524 . S
C490 C491 1.397 . S
C490 C495 1.363 . S
C491 H462 0.950 . S
C491 C490 1.397 . S
C491 C492 1.334 . S
C492 H463 0.950 . S
C492 C491 1.334 . S
C492 C493 1.287 . S
C493 C492 1.287 . S
C493 C494 1.524 . S
C493 H496 0.999 . S
C494 H464 0.950 . S
C494 C493 1.524 . S
C494 C495 1.415 . S
C495 H465 0.950 . S
C495 C490 1.363 . S
C495 C494 1.415 . S
H496 C493 0.999 . S
H497 C478 0.913 . S
H498 C516 0.951 . S
H499 C518 0.951 . S
H500 C520 0.950 . S
H501 C521 0.946 1_455 S
H502 C523 0.950 . S
H503 C526 0.950 . S
H504 C527 0.950 . S
H505 C529 0.950 . S
H506 C530 0.950 . S
H507 C531 0.951 . S
H508 C533 0.951 . S
H509 C535 0.950 . S
H510 C536 0.950 . S
H511 C538 0.950 . S
H512 C541 0.950 . S
H513 C542 0.950 . S
H514 C544 0.950 . S
H515 C545 0.950 . S
C516 H498 0.951 . S
C516 C517 1.366 . S
C516 C518 1.388 . S
C517 C516 1.366 . S
C517 C521 1.385 . S
C518 H499 0.951 . S
C518 C516 1.388 . S
C518 C519 1.366 . S
C519 C518 1.366 . S
C519 C520 1.414 . S
C519 C522 1.499 . S
C520 H500 0.950 . S
C520 C519 1.414 . S
C520 C521 1.378 . S
C521 H501 0.946 1_655 S
C521 C517 1.385 . S
C521 C520 1.378 . S
C522 C519 1.499 . S
C522 C523 1.373 . S
C522 C524 1.389 . S
C523 H502 0.950 . S
C523 C522 1.373 . S
C523 C539 1.377 . S
C524 C522 1.389 . S
C524 C525 1.524 . S
C524 C538 1.377 . S
C525 C524 1.524 . S
C525 C526 1.397 . S
C525 C530 1.363 . S
C526 H503 0.950 . S
C526 C525 1.397 . S
C526 C527 1.334 . S
C527 H504 0.950 . S
C527 C526 1.334 . S
C527 C528 1.287 . S
C528 C527 1.287 . S
C528 C529 1.524 . S
C528 H547 0.913 . S
C529 H505 0.950 . S
C529 C528 1.524 . S
C529 C530 1.415 . S
C530 H506 0.950 . S
C530 C525 1.363 . S
C530 C529 1.415 . S
C531 H507 0.951 . S
C531 C532 1.366 . S
C531 C533 1.388 . S
C532 C531 1.366 . S
C532 C536 1.385 . S
C533 H508 0.951 . S
C533 C531 1.388 . S
C533 C534 1.366 . S
C534 C533 1.366 . S
C534 C535 1.414 . S
C534 C537 1.499 . S
C535 H509 0.950 . S
C535 C534 1.414 . S
C535 C536 1.374 . S
C536 H510 0.950 . S
C536 C532 1.385 . S
C536 C535 1.374 . S
C537 C534 1.499 . S
C537 C538 1.373 . S
C537 C539 1.389 . S
C538 H511 0.950 . S
C538 C524 1.377 . S
C538 C537 1.373 . S
C539 C523 1.377 . S
C539 C537 1.389 . S
C539 C540 1.524 . S
C540 C539 1.524 . S
C540 C541 1.397 . S
C540 C545 1.363 . S
C541 H512 0.950 . S
C541 C540 1.397 . S
C541 C542 1.334 . S
C542 H513 0.950 . S
C542 C541 1.334 . S
C542 C543 1.287 . S
C543 C542 1.287 . S
C543 C544 1.524 . S
C543 H546 0.999 . S
C544 H514 0.950 . S
C544 C543 1.524 . S
C544 C545 1.415 . S
C545 H515 0.950 . S
C545 C540 1.363 . S
C545 C544 1.415 . S
H546 C543 0.999 . S
H547 C528 0.913 . S
H548 C566 0.951 . S
H549 C568 0.951 . S
H550 C570 0.950 . S
H551 C571 0.950 . S
H552 C573 0.950 . S
H553 C576 0.950 . S
H554 C577 0.950 . S
H555 C579 0.950 . S
H556 C580 0.950 . S
H557 C581 0.951 . S
H558 C583 0.951 . S
H559 C585 0.950 . S
H560 C586 0.950 . S
H561 C588 0.950 . S
H562 C591 0.950 . S
H563 C592 0.950 . S
H564 C594 0.950 . S
H565 C595 0.950 . S
C566 H548 0.951 . S
C566 C567 1.366 . S
C566 C568 1.388 . S
C567 C566 1.366 . S
C567 C571 1.385 . S
C568 H549 0.951 . S
C568 C566 1.388 . S
C568 C569 1.366 . S
C569 C568 1.366 . S
C569 C570 1.414 . S
C569 C572 1.499 . S
C570 H550 0.950 . S
C570 C569 1.414 . S
C570 C571 1.374 . S
C571 H551 0.950 . S
C571 C567 1.385 . S
C571 C570 1.374 . S
C572 C569 1.499 . S
C572 C573 1.373 . S
C572 C574 1.389 . S
C573 H552 0.950 . S
C573 C572 1.373 . S
C573 C589 1.377 . S
C574 C572 1.389 . S
C574 C575 1.524 . S
C574 C588 1.377 . S
C575 C574 1.524 . S
C575 C576 1.397 . S
C575 C580 1.363 . S
C576 H553 0.950 . S
C576 C575 1.397 . S
C576 C577 1.334 . S
C577 H554 0.950 . S
C577 C576 1.334 . S
C577 C578 1.287 . S
C578 C577 1.287 . S
C578 C579 1.524 . S
C578 H597 0.913 . S
C579 H555 0.950 . S
C579 C578 1.524 . S
C579 C580 1.415 . S
C580 H556 0.950 . S
C580 C575 1.363 . S
C580 C579 1.415 . S
C581 H557 0.951 . S
C581 C582 1.366 . S
C581 C583 1.388 . S
C582 C581 1.366 . S
C582 C586 1.385 . S
C583 H558 0.951 . S
C583 C581 1.388 . S
C583 C584 1.366 . S
C584 C583 1.366 . S
C584 C585 1.414 . S
C584 C587 1.499 . S
C585 H559 0.950 . S
C585 C584 1.414 . S
C585 C586 1.374 . S
C586 H560 0.950 . S
C586 C582 1.385 . S
C586 C585 1.374 . S
C587 C584 1.499 . S
C587 C588 1.373 . S
C587 C589 1.389 . S
C588 H561 0.950 . S
C588 C574 1.377 . S
C588 C587 1.373 . S
C589 C573 1.377 . S
C589 C587 1.389 . S
C589 C590 1.524 . S
C590 C589 1.524 . S
C590 C591 1.397 . S
C590 C595 1.363 . S
C591 H562 0.950 . S
C591 C590 1.397 . S
C591 C592 1.334 . S
C592 H563 0.950 . S
C592 C591 1.334 . S
C592 C593 1.287 . S
C593 C592 1.287 . S
C593 C594 1.524 . S
C593 H596 0.999 . S
C594 H564 0.950 . S
C594 C593 1.524 . S
C594 C595 1.415 . S
C595 H565 0.950 . S
C595 C590 1.363 . S
C595 C594 1.415 . S
H596 C593 0.999 . S
H597 C578 0.913 . S
H598 C616 0.951 . S
H599 C618 0.951 . S
H600 C620 0.950 . S
H601 C621 0.950 . S
H602 C623 0.950 . S
H603 C626 0.950 . S
H604 C627 0.950 . S
H605 C629 0.950 . S
H606 C630 0.950 . S
H607 C631 0.951 . S
H608 C633 0.951 . S
H609 C635 0.950 . S
H610 C636 0.950 . S
H611 C638 0.950 . S
H612 C641 0.950 . S
H613 C642 0.950 . S
H614 C644 0.950 . S
H615 C645 0.950 . S
C616 H598 0.951 . S
C616 C617 1.366 . S
C616 C618 1.388 . S
C617 C616 1.366 . S
C617 C621 1.385 . S
C618 H599 0.951 . S
C618 C616 1.388 . S
C618 C619 1.366 . S
C619 C618 1.366 . S
C619 C620 1.414 . S
C619 C622 1.499 . S
C620 H600 0.950 . S
C620 C619 1.414 . S
C620 C621 1.374 . S
C621 H601 0.950 . S
C621 C617 1.385 . S
C621 C620 1.374 . S
C622 C619 1.499 . S
C622 C623 1.373 . S
C622 C624 1.389 . S
C623 H602 0.950 . S
C623 C622 1.373 . S
C623 C639 1.377 . S
C624 C622 1.389 . S
C624 C625 1.524 . S
C624 C638 1.377 . S
C625 C624 1.524 . S
C625 C626 1.397 . S
C625 C630 1.363 . S
C626 H603 0.950 . S
C626 C625 1.397 . S
C626 C627 1.334 . S
C627 H604 0.950 . S
C627 C626 1.334 . S
C627 C628 1.287 . S
C628 C627 1.287 . S
C628 C629 1.524 . S
C628 H647 0.913 . S
C629 H605 0.950 . S
C629 C628 1.524 . S
C629 C630 1.415 . S
C630 H606 0.950 . S
C630 C625 1.363 . S
C630 C629 1.415 . S
C631 H607 0.951 . S
C631 C632 1.366 . S
C631 C633 1.388 . S
C632 C631 1.366 . S
C632 C636 1.385 . S
C633 H608 0.951 . S
C633 C631 1.388 . S
C633 C634 1.366 . S
C634 C633 1.366 . S
C634 C635 1.414 . S
C634 C637 1.499 . S
C635 H609 0.950 . S
C635 C634 1.414 . S
C635 C636 1.374 . S
C636 H610 0.950 . S
C636 C632 1.385 . S
C636 C635 1.374 . S
C637 C634 1.499 . S
C637 C638 1.373 . S
C637 C639 1.389 . S
C638 H611 0.950 . S
C638 C624 1.377 . S
C638 C637 1.373 . S
C639 C623 1.377 . S
C639 C637 1.389 . S
C639 C640 1.524 . S
C640 C639 1.524 . S
C640 C641 1.397 . S
C640 C645 1.363 . S
C641 H612 0.950 . S
C641 C640 1.397 . S
C641 C642 1.334 . S
C642 H613 0.950 . S
C642 C641 1.334 . S
C642 C643 1.287 . S
C643 C642 1.287 . S
C643 C644 1.524 . S
C643 H646 0.999 . S
C644 H614 0.950 . S
C644 C643 1.524 . S
C644 C645 1.415 . S
C645 H615 0.950 . S
C645 C640 1.363 . S
C645 C644 1.415 . S
H646 C643 0.999 . S
H647 C628 0.913 . S
H648 C666 0.951 . S
H649 C668 0.951 . S
H650 C670 0.950 . S
H651 C671 0.950 . S
H652 C673 0.950 . S
H653 C676 0.950 . S
H654 C677 0.950 . S
H655 C679 0.950 . S
H656 C680 0.950 . S
H657 C681 0.951 . S
H658 C683 0.951 . S
H659 C685 0.950 . S
H660 C686 0.950 . S
H661 C688 0.950 . S
H662 C691 0.950 . S
H663 C692 0.950 . S
H664 C694 0.950 . S
H665 C695 0.950 . S
C666 H648 0.951 . S
C666 C667 1.366 . S
C666 C668 1.388 . S
C667 C666 1.366 . S
C667 C671 1.385 . S
C668 H649 0.951 . S
C668 C666 1.388 . S
C668 C669 1.366 . S
C669 C668 1.366 . S
C669 C670 1.414 . S
C669 C672 1.499 . S
C670 H650 0.950 . S
C670 C669 1.414 . S
C670 C671 1.374 . S
C671 H651 0.950 . S
C671 C667 1.385 . S
C671 C670 1.374 . S
C672 C669 1.499 . S
C672 C673 1.373 . S
C672 C674 1.389 . S
C673 H652 0.950 . S
C673 C672 1.373 . S
C673 C689 1.377 . S
C674 C672 1.389 . S
C674 C675 1.524 . S
C674 C688 1.377 . S
C675 C674 1.524 . S
C675 C676 1.397 . S
C675 C680 1.363 . S
C676 H653 0.950 . S
C676 C675 1.397 . S
C676 C677 1.334 . S
C677 H654 0.950 . S
C677 C676 1.334 . S
C677 C678 1.287 . S
C678 C677 1.287 . S
C678 C679 1.524 . S
C678 H697 0.913 . S
C679 H655 0.950 . S
C679 C678 1.524 . S
C679 C680 1.415 . S
C680 H656 0.950 . S
C680 C675 1.363 . S
C680 C679 1.415 . S
C681 H657 0.951 . S
C681 C682 1.366 . S
C681 C683 1.388 . S
C682 C681 1.366 . S
C682 C686 1.385 . S
C683 H658 0.951 . S
C683 C681 1.388 . S
C683 C684 1.366 . S
C684 C683 1.366 . S
C684 C685 1.414 . S
C684 C687 1.499 . S
C685 H659 0.950 . S
C685 C684 1.414 . S
C685 C686 1.374 . S
C686 H660 0.950 . S
C686 C682 1.385 . S
C686 C685 1.374 . S
C687 C684 1.499 . S
C687 C688 1.373 . S
C687 C689 1.389 . S
C688 H661 0.950 . S
C688 C674 1.377 . S
C688 C687 1.373 . S
C689 C673 1.377 . S
C689 C687 1.389 . S
C689 C690 1.524 . S
C690 C689 1.524 . S
C690 C691 1.397 . S
C690 C695 1.363 . S
C691 H662 0.950 . S
C691 C690 1.397 . S
C691 C692 1.334 . S
C692 H663 0.950 . S
C692 C691 1.334 . S
C692 C693 1.287 . S
C693 C692 1.287 . S
C693 C694 1.524 . S
C693 H696 0.999 . S
C694 H664 0.950 . S
C694 C693 1.524 . S
C694 C695 1.415 . S
C695 H665 0.950 . S
C695 C690 1.363 . S
C695 C694 1.415 . S
H696 C693 0.999 . S
H697 C678 0.913 . S
H698 C716 0.951 . S
H699 C718 0.951 . S
H700 C720 0.950 . S
H701 C721 0.950 . S
H702 C723 0.950 . S
H703 C726 0.950 . S
H704 C727 0.950 . S
H705 C729 0.950 . S
H706 C730 0.950 . S
H707 C731 0.951 . S
H708 C733 0.951 . S
H709 C735 0.950 . S
H710 C736 0.950 . S
H711 C738 0.950 . S
H712 C741 0.950 . S
H713 C742 0.950 . S
H714 C744 0.950 . S
H715 C745 0.950 . S
C716 H698 0.951 . S
C716 C717 1.366 . S
C716 C718 1.388 . S
C717 C716 1.366 . S
C717 C721 1.385 . S
C718 H699 0.951 . S
C718 C716 1.388 . S
C718 C719 1.366 . S
C719 C718 1.366 . S
C719 C720 1.414 . S
C719 C722 1.499 . S
C720 H700 0.950 . S
C720 C719 1.414 . S
C720 C721 1.374 . S
C721 H701 0.950 . S
C721 C717 1.385 . S
C721 C720 1.374 . S
C722 C719 1.499 . S
C722 C723 1.373 . S
C722 C724 1.389 . S
C723 H702 0.950 . S
C723 C722 1.373 . S
C723 C739 1.377 . S
C724 C722 1.389 . S
C724 C725 1.524 . S
C724 C738 1.377 . S
C725 C724 1.524 . S
C725 C726 1.397 . S
C725 C730 1.363 . S
C726 H703 0.950 . S
C726 C725 1.397 . S
C726 C727 1.334 . S
C727 H704 0.950 . S
C727 C726 1.334 . S
C727 C728 1.287 . S
C728 C727 1.287 . S
C728 C729 1.524 . S
C728 H747 0.913 . S
C729 H705 0.950 . S
C729 C728 1.524 . S
C729 C730 1.415 . S
C730 H706 0.950 . S
C730 C725 1.363 . S
C730 C729 1.415 . S
C731 H707 0.951 . S
C731 C732 1.366 . S
C731 C733 1.388 . S
C732 C731 1.366 . S
C732 C736 1.385 . S
C733 H708 0.951 . S
C733 C731 1.388 . S
C733 C734 1.366 . S
C734 C733 1.366 . S
C734 C735 1.414 . S
C734 C737 1.499 . S
C735 H709 0.950 . S
C735 C734 1.414 . S
C735 C736 1.374 . S
C736 H710 0.950 . S
C736 C732 1.385 . S
C736 C735 1.374 . S
C737 C734 1.499 . S
C737 C738 1.373 . S
C737 C739 1.389 . S
C738 H711 0.950 . S
C738 C724 1.377 . S
C738 C737 1.373 . S
C739 C723 1.377 . S
C739 C737 1.389 . S
C739 C740 1.524 . S
C740 C739 1.524 . S
C740 C741 1.397 . S
C740 C745 1.363 . S
C741 H712 0.950 . S
C741 C740 1.397 . S
C741 C742 1.334 . S
C742 H713 0.950 . S
C742 C741 1.334 . S
C742 C743 1.287 . S
C743 C742 1.287 . S
C743 C744 1.524 . S
C743 H746 0.999 . S
C744 H714 0.950 . S
C744 C743 1.524 . S
C744 C745 1.415 . S
C745 H715 0.950 . S
C745 C740 1.363 . S
C745 C744 1.415 . S
H746 C743 0.999 . S
H747 C728 0.913 . S
H748 C766 0.951 . S
H749 C768 0.951 . S
H750 C770 0.950 . S
H751 C771 0.950 . S
H752 C773 0.950 . S
H753 C776 0.950 . S
H754 C777 0.950 . S
H755 C779 0.950 . S
H756 C780 0.950 . S
H757 C781 0.951 . S
H758 C783 0.951 . S
H759 C785 0.950 . S
H760 C786 0.950 . S
H761 C788 0.950 . S
H762 C791 0.950 . S
H763 C792 0.950 . S
H764 C794 0.950 . S
H765 C795 0.950 . S
C766 H748 0.951 . S
C766 C767 1.366 . S
C766 C768 1.388 . S
C767 C766 1.366 . S
C767 C771 1.385 . S
C768 H749 0.951 . S
C768 C766 1.388 . S
C768 C769 1.366 . S
C769 C768 1.366 . S
C769 C770 1.414 . S
C769 C772 1.499 . S
C770 H750 0.950 . S
C770 C769 1.414 . S
C770 C771 1.374 . S
C771 H751 0.950 . S
C771 C767 1.385 . S
C771 C770 1.374 . S
C772 C769 1.499 . S
C772 C773 1.373 . S
C772 C774 1.389 . S
C773 H752 0.950 . S
C773 C772 1.373 . S
C773 C789 1.377 . S
C774 C772 1.389 . S
C774 C775 1.524 . S
C774 C788 1.377 . S
C775 C774 1.524 . S
C775 C776 1.397 . S
C775 C780 1.363 . S
C776 H753 0.950 . S
C776 C775 1.397 . S
C776 C777 1.334 . S
C777 H754 0.950 . S
C777 C776 1.334 . S
C777 C778 1.287 . S
C778 C777 1.287 . S
C778 C779 1.524 . S
C778 H797 0.913 . S
C779 H755 0.950 . S
C779 C778 1.524 . S
C779 C780 1.415 . S
C780 H756 0.950 . S
C780 C775 1.363 . S
C780 C779 1.415 . S
C781 H757 0.951 . S
C781 C782 1.366 . S
C781 C783 1.388 . S
C782 C781 1.366 . S
C782 C786 1.385 . S
C783 H758 0.951 . S
C783 C781 1.388 . S
C783 C784 1.366 . S
C784 C783 1.366 . S
C784 C785 1.414 . S
C784 C787 1.499 . S
C785 H759 0.950 . S
C785 C784 1.414 . S
C785 C786 1.374 . S
C786 H760 0.950 . S
C786 C782 1.385 . S
C786 C785 1.374 . S
C787 C784 1.499 . S
C787 C788 1.373 . S
C787 C789 1.389 . S
C788 H761 0.950 . S
C788 C774 1.377 . S
C788 C787 1.373 . S
C789 C773 1.377 . S
C789 C787 1.389 . S
C789 C790 1.524 . S
C790 C789 1.524 . S
C790 C791 1.397 . S
C790 C795 1.363 . S
C791 H762 0.950 . S
C791 C790 1.397 . S
C791 C792 1.334 . S
C792 H763 0.950 . S
C792 C791 1.334 . S
C792 C793 1.287 . S
C793 C792 1.287 . S
C793 C794 1.524 . S
C793 H796 0.999 . S
C794 H764 0.950 . S
C794 C793 1.524 . S
C794 C795 1.415 . S
C795 H765 0.950 . S
C795 C790 1.363 . S
C795 C794 1.415 . S
H796 C793 0.999 . S
H797 C778 0.913 . S
H798 C816 0.951 . S
H799 C818 0.951 . S
H800 C820 0.950 . S
H801 C821 0.955 . S
H802 C823 0.950 . S
H803 C826 0.950 . S
H804 C827 0.950 . S
H805 C829 0.950 . S
H806 C830 0.950 . S
H807 C831 0.951 . S
H808 C833 0.951 . S
H809 C835 0.950 . S
H810 C836 0.950 . S
H811 C838 0.950 . S
H812 C841 0.950 . S
H813 C842 0.950 . S
H814 C844 0.950 . S
H815 C845 0.950 . S
C816 H798 0.951 . S
C816 C817 1.366 . S
C816 C818 1.388 . S
C817 C816 1.366 . S
C817 C821 1.385 . S
C818 H799 0.951 . S
C818 C816 1.388 . S
C818 C819 1.366 . S
C819 C818 1.366 . S
C819 C820 1.414 . S
C819 C822 1.499 . S
C820 H800 0.950 . S
C820 C819 1.414 . S
C820 C821 1.374 . S
C821 H801 0.955 . S
C821 C817 1.385 . S
C821 C820 1.374 . S
C822 C819 1.499 . S
C822 C823 1.373 . S
C822 C824 1.389 . S
C823 H802 0.950 . S
C823 C822 1.373 . S
C823 C839 1.377 . S
C824 C822 1.389 . S
C824 C825 1.524 . S
C824 C838 1.377 . S
C825 C824 1.524 . S
C825 C826 1.397 . S
C825 C830 1.363 . S
C826 H803 0.950 . S
C826 C825 1.397 . S
C826 C827 1.334 . S
C827 H804 0.950 . S
C827 C826 1.334 . S
C827 C828 1.287 . S
C828 C827 1.287 . S
C828 C829 1.524 . S
C828 H847 0.913 . S
C829 H805 0.950 . S
C829 C828 1.524 . S
C829 C830 1.415 . S
C830 H806 0.950 . S
C830 C825 1.363 . S
C830 C829 1.415 . S
C831 H807 0.951 . S
C831 C832 1.366 . S
C831 C833 1.388 . S
C832 C831 1.366 . S
C832 C836 1.385 . S
C833 H808 0.951 . S
C833 C831 1.388 . S
C833 C834 1.366 . S
C834 C833 1.366 . S
C834 C835 1.414 . S
C834 C837 1.499 . S
C835 H809 0.950 . S
C835 C834 1.414 . S
C835 C836 1.374 . S
C836 H810 0.950 . S
C836 C832 1.385 . S
C836 C835 1.374 . S
C837 C834 1.499 . S
C837 C838 1.373 . S
C837 C839 1.389 . S
C838 H811 0.950 . S
C838 C824 1.377 . S
C838 C837 1.373 . S
C839 C823 1.377 . S
C839 C837 1.389 . S
C839 C840 1.524 . S
C840 C839 1.524 . S
C840 C841 1.397 . S
C840 C845 1.363 . S
C841 H812 0.950 . S
C841 C840 1.397 . S
C841 C842 1.334 . S
C842 H813 0.950 . S
C842 C841 1.334 . S
C842 C843 1.287 . S
C843 C842 1.287 . S
C843 C844 1.524 . S
C843 H846 0.999 . S
C844 H814 0.950 . S
C844 C843 1.524 . S
C844 C845 1.415 . S
C845 H815 0.950 . S
C845 C840 1.363 . S
C845 C844 1.415 . S
H846 C843 0.999 . S
H847 C828 0.913 . S
H848 C866 0.951 . S
H849 C868 0.951 . S
H850 C870 0.950 . S
H851 C871 0.950 . S
H852 C873 0.950 . S
H853 C876 0.950 . S
H854 C877 0.950 . S
H855 C879 0.950 . S
H856 C880 0.950 . S
H857 C881 0.951 . S
H858 C883 0.951 . S
H859 C885 0.950 . S
H860 C886 0.950 . S
H861 C888 0.950 . S
H862 C891 0.950 . S
H863 C892 0.950 . S
H864 C894 0.950 . S
H865 C895 0.950 . S
C866 H848 0.951 . S
C866 C867 1.366 . S
C866 C868 1.388 . S
C867 C866 1.366 . S
C867 C871 1.385 . S
C868 H849 0.951 . S
C868 C866 1.388 . S
C868 C869 1.366 . S
C869 C868 1.366 . S
C869 C870 1.414 . S
C869 C872 1.499 . S
C870 H850 0.950 . S
C870 C869 1.414 . S
C870 C871 1.374 . S
C871 H851 0.950 . S
C871 C867 1.385 . S
C871 C870 1.374 . S
C872 C869 1.499 . S
C872 C873 1.373 . S
C872 C874 1.389 . S
C873 H852 0.950 . S
C873 C872 1.373 . S
C873 C889 1.377 . S
C874 C872 1.389 . S
C874 C875 1.524 . S
C874 C888 1.377 . S
C875 C874 1.524 . S
C875 C876 1.397 . S
C875 C880 1.363 . S
C876 H853 0.950 . S
C876 C875 1.397 . S
C876 C877 1.334 . S
C877 H854 0.950 . S
C877 C876 1.334 . S
C877 C878 1.287 . S
C878 C877 1.287 . S
C878 C879 1.524 . S
C878 H897 0.913 . S
C879 H855 0.950 . S
C879 C878 1.524 . S
C879 C880 1.415 . S
C880 H856 0.950 . S
C880 C875 1.363 . S
C880 C879 1.415 . S
C881 H857 0.951 . S
C881 C882 1.366 . S
C881 C883 1.388 . S
C882 C881 1.366 . S
C882 C886 1.385 . S
C883 H858 0.951 . S
C883 C881 1.388 . S
C883 C884 1.366 . S
C884 C883 1.366 . S
C884 C885 1.414 . S
C884 C887 1.499 . S
C885 H859 0.950 . S
C885 C884 1.414 . S
C885 C886 1.374 . S
C886 H860 0.950 . S
C886 C882 1.385 . S
C886 C885 1.374 . S
C887 C884 1.499 . S
C887 C888 1.373 . S
C887 C889 1.389 . S
C888 H861 0.950 . S
C888 C874 1.377 . S
C888 C887 1.373 . S
C889 C873 1.377 . S
C889 C887 1.389 . S
C889 C890 1.524 . S
C890 C889 1.524 . S
C890 C891 1.397 . S
C890 C895 1.363 . S
C891 H862 0.950 . S
C891 C890 1.397 . S
C891 C892 1.334 . S
C892 H863 0.950 . S
C892 C891 1.334 . S
C892 C893 1.287 . S
C893 C892 1.287 . S
C893 C894 1.524 . S
C893 H896 0.999 . S
C894 H864 0.950 . S
C894 C893 1.524 . S
C894 C895 1.415 . S
C895 H865 0.950 . S
C895 C890 1.363 . S
C895 C894 1.415 . S
H896 C893 0.999 . S
H897 C878 0.913 . S
H898 C916 0.951 . S
H899 C918 0.951 . S
H900 C920 0.950 . S
H901 C921 0.950 . S
H902 C923 0.950 . S
H903 C926 0.950 . S
H904 C927 0.950 . S
H905 C929 0.950 . S
H906 C930 0.950 . S
H907 C931 0.951 . S
H908 C933 0.951 . S
H909 C935 0.950 . S
H910 C936 0.950 . S
H911 C938 0.950 . S
H912 C941 0.950 . S
H913 C942 0.950 . S
H914 C944 0.950 . S
H915 C945 0.950 . S
C916 H898 0.951 . S
C916 C917 1.366 . S
C916 C918 1.388 . S
C917 C916 1.366 . S
C917 C921 1.385 . S
C918 H899 0.951 . S
C918 C916 1.388 . S
C918 C919 1.366 . S
C919 C918 1.366 . S
C919 C920 1.414 . S
C919 C922 1.499 . S
C920 H900 0.950 . S
C920 C919 1.414 . S
C920 C921 1.374 . S
C921 H901 0.950 . S
C921 C917 1.385 . S
C921 C920 1.374 . S
C922 C919 1.499 . S
C922 C923 1.373 . S
C922 C924 1.389 . S
C923 H902 0.950 . S
C923 C922 1.373 . S
C923 C939 1.377 . S
C924 C922 1.389 . S
C924 C925 1.524 . S
C924 C938 1.377 . S
C925 C924 1.524 . S
C925 C926 1.397 . S
C925 C930 1.363 . S
C926 H903 0.950 . S
C926 C925 1.397 . S
C926 C927 1.334 . S
C927 H904 0.950 . S
C927 C926 1.334 . S
C927 C928 1.287 . S
C928 C927 1.287 . S
C928 C929 1.524 . S
C928 H947 0.913 . S
C929 H905 0.950 . S
C929 C928 1.524 . S
C929 C930 1.415 . S
C930 H906 0.950 . S
C930 C925 1.363 . S
C930 C929 1.415 . S
C931 H907 0.951 . S
C931 C932 1.364 1_655 S
C931 C933 1.388 1_655 S
C932 C931 1.364 1_455 S
C932 C936 1.411 . S
C933 H908 0.951 . S
C933 C931 1.388 1_455 S
C933 C934 1.366 . S
C934 C933 1.366 . S
C934 C935 1.414 . S
C934 C937 1.499 . S
C935 H909 0.950 . S
C935 C934 1.414 . S
C935 C936 1.374 . S
C936 H910 0.950 . S
C936 C932 1.411 . S
C936 C935 1.374 . S
C937 C934 1.499 . S
C937 C938 1.373 . S
C937 C939 1.389 . S
C938 H911 0.950 . S
C938 C924 1.377 . S
C938 C937 1.373 . S
C939 C923 1.377 . S
C939 C937 1.389 . S
C939 C940 1.524 . S
C940 C939 1.524 . S
C940 C941 1.397 . S
C940 C945 1.363 . S
C941 H912 0.950 . S
C941 C940 1.397 . S
C941 C942 1.334 . S
C942 H913 0.950 . S
C942 C941 1.334 . S
C942 C943 1.287 . S
C943 C942 1.287 . S
C943 C944 1.524 . S
C943 H946 0.999 . S
C944 H914 0.950 . S
C944 C943 1.524 . S
C944 C945 1.415 . S
C945 H915 0.950 . S
C945 C940 1.363 . S
C945 C944 1.415 . S
H946 C943 0.999 . S
H947 C928 0.913 . S
H948 C966 0.951 . S
H949 C968 0.951 . S
H950 C970 0.950 . S
H951 C971 0.950 . S
H952 C973 0.950 . S
H953 C976 0.950 . S
H954 C977 0.950 . S
H955 C979 0.950 . S
H956 C980 0.950 . S
H957 C981 0.951 . S
H958 C983 0.951 . S
H959 C985 0.950 . S
H960 C986 0.950 . S
H961 C988 0.950 . S
H962 C991 0.950 . S
H963 C992 0.950 . S
H964 C994 0.950 . S
H965 C995 0.950 . S
C966 H948 0.951 . S
C966 C967 1.366 . S
C966 C968 1.388 . S
C967 C966 1.366 . S
C967 C971 1.385 . S
C968 H949 0.951 . S
C968 C966 1.388 . S
C968 C969 1.366 . S
C969 C968 1.366 . S
C969 C970 1.414 . S
C969 C972 1.499 . S
C970 H950 0.950 . S
C970 C969 1.414 . S
C970 C971 1.374 . S
C971 H951 0.950 . S
C971 C967 1.385 . S
C971 C970 1.374 . S
C972 C969 1.499 . S
C972 C973 1.373 . S
C972 C974 1.389 . S
C973 H952 0.950 . S
C973 C972 1.373 . S
C973 C989 1.377 . S
C974 C972 1.389 . S
C974 C975 1.524 . S
C974 C988 1.377 . S
C975 C974 1.524 . S
C975 C976 1.397 . S
C975 C980 1.363 . S
C976 H953 0.950 . S
C976 C975 1.397 . S
C976 C977 1.334 . S
C977 H954 0.950 . S
C977 C976 1.334 . S
C977 C978 1.287 . S
C978 C977 1.287 . S
C978 C979 1.524 . S
C978 H997 0.913 . S
C979 H955 0.950 . S
C979 C978 1.524 . S
C979 C980 1.415 . S
C980 H956 0.950 . S
C980 C975 1.363 . S
C980 C979 1.415 . S
C981 H957 0.951 . S
C981 C982 1.366 . S
C981 C983 1.388 . S
C982 C981 1.366 . S
C982 C986 1.385 . S
C983 H958 0.951 . S
C983 C981 1.388 . S
C983 C984 1.366 . S
C984 C983 1.366 . S
C984 C985 1.414 . S
C984 C987 1.499 . S
C985 H959 0.950 . S
C985 C984 1.414 . S
C985 C986 1.374 . S
C986 H960 0.950 . S
C986 C982 1.385 . S
C986 C985 1.374 . S
C987 C984 1.499 . S
C987 C988 1.373 . S
C987 C989 1.389 . S
C988 H961 0.950 . S
C988 C974 1.377 . S
C988 C987 1.373 . S
C989 C973 1.377 . S
C989 C987 1.389 . S
C989 C990 1.524 . S
C990 C989 1.524 . S
C990 C991 1.397 . S
C990 C995 1.363 . S
C991 H962 0.950 . S
C991 C990 1.397 . S
C991 C992 1.334 . S
C992 H963 0.950 . S
C992 C991 1.334 . S
C992 C993 1.287 . S
C993 C992 1.287 . S
C993 C994 1.524 . S
C993 H996 0.999 . S
C994 H964 0.950 . S
C994 C993 1.524 . S
C994 C995 1.415 . S
C995 H965 0.950 . S
C995 C990 1.363 . S
C995 C994 1.415 . S
H996 C993 0.999 . S
H997 C978 0.913 . S
H998 C1016 0.951 . S
H999 C1018 0.951 . S
H1000 C1020 0.950 . S
H1001 C1021 0.950 . S
H1002 C1023 0.950 . S
H1003 C1026 0.950 . S
H1004 C1027 0.950 . S
H1005 C1029 0.950 . S
H1006 C1030 0.950 . S
H1007 C1031 0.951 . S
H1008 C1033 0.951 . S
H1009 C1035 0.950 . S
H1010 C1036 0.950 . S
H1011 C1038 0.950 . S
H1012 C1041 0.950 . S
H1013 C1042 0.950 . S
H1014 C1044 0.950 . S
H1015 C1045 0.950 . S
C1016 H998 0.951 . S
C1016 C1017 1.366 . S
C1016 C1018 1.388 . S
C1017 C1016 1.366 . S
C1017 C1021 1.385 . S
C1018 H999 0.951 . S
C1018 C1016 1.388 . S
C1018 C1019 1.366 . S
C1019 C1018 1.366 . S
C1019 C1020 1.414 . S
C1019 C1022 1.499 . S
C1020 H1000 0.950 . S
C1020 C1019 1.414 . S
C1020 C1021 1.374 . S
C1021 H1001 0.950 . S
C1021 C1017 1.385 . S
C1021 C1020 1.374 . S
C1022 C1019 1.499 . S
C1022 C1023 1.373 . S
C1022 C1024 1.389 . S
C1023 H1002 0.950 . S
C1023 C1022 1.373 . S
C1023 C1039 1.377 . S
C1024 C1022 1.389 . S
C1024 C1025 1.524 . S
C1024 C1038 1.377 . S
C1025 C1024 1.524 . S
C1025 C1026 1.397 . S
C1025 C1030 1.363 . S
C1026 H1003 0.950 . S
C1026 C1025 1.397 . S
C1026 C1027 1.334 . S
C1027 H1004 0.950 . S
C1027 C1026 1.334 . S
C1027 C1028 1.287 . S
C1028 C1027 1.287 . S
C1028 C1029 1.524 . S
C1028 H1047 0.913 . S
C1029 H1005 0.950 . S
C1029 C1028 1.524 . S
C1029 C1030 1.415 . S
C1030 H1006 0.950 . S
C1030 C1025 1.363 . S
C1030 C1029 1.415 . S
C1031 H1007 0.951 . S
C1031 C1032 1.366 . S
C1031 C1033 1.388 . S
C1032 C1031 1.366 . S
C1032 C1036 1.385 . S
C1033 H1008 0.951 . S
C1033 C1031 1.388 . S
C1033 C1034 1.366 . S
C1034 C1033 1.366 . S
C1034 C1035 1.414 . S
C1034 C1037 1.499 . S
C1035 H1009 0.950 . S
C1035 C1034 1.414 . S
C1035 C1036 1.374 . S
C1036 H1010 0.950 . S
C1036 C1032 1.385 . S
C1036 C1035 1.374 . S
C1037 C1034 1.499 . S
C1037 C1038 1.373 . S
C1037 C1039 1.389 . S
C1038 H1011 0.950 . S
C1038 C1024 1.377 . S
C1038 C1037 1.373 . S
C1039 C1023 1.377 . S
C1039 C1037 1.389 . S
C1039 C1040 1.524 . S
C1040 C1039 1.524 . S
C1040 C1041 1.397 . S
C1040 C1045 1.363 . S
C1041 H1012 0.950 . S
C1041 C1040 1.397 . S
C1041 C1042 1.334 . S
C1042 H1013 0.950 . S
C1042 C1041 1.334 . S
C1042 C1043 1.287 . S
C1043 C1042 1.287 . S
C1043 C1044 1.524 . S
C1043 H1046 0.999 . S
C1044 H1014 0.950 . S
C1044 C1043 1.524 . S
C1044 C1045 1.415 . S
C1045 H1015 0.950 . S
C1045 C1040 1.363 . S
C1045 C1044 1.415 . S
H1046 C1043 0.999 . S
H1047 C1028 0.913 . S
H1048 C1066 0.951 . S
H1049 C1068 0.951 . S
H1050 C1070 0.950 . S
H1051 C1071 0.950 . S
H1052 C1073 0.950 . S
H1053 C1076 0.950 . S
H1054 C1077 0.950 . S
H1055 C1079 0.950 . S
H1056 C1080 0.950 . S
H1057 C1081 0.951 . S
H1058 C1083 0.951 . S
H1059 C1085 0.950 . S
H1060 C1086 0.950 . S
H1061 C1088 0.950 . S
H1062 C1091 0.950 . S
H1063 C1092 0.950 . S
H1064 C1094 0.950 . S
H1065 C1095 0.950 . S
C1066 H1048 0.951 . S
C1066 C1067 1.366 . S
C1066 C1068 1.388 . S
C1067 C1066 1.366 . S
C1067 C1071 1.385 . S
C1068 H1049 0.951 . S
C1068 C1066 1.388 . S
C1068 C1069 1.366 . S
C1069 C1068 1.366 . S
C1069 C1070 1.414 . S
C1069 C1072 1.499 . S
C1070 H1050 0.950 . S
C1070 C1069 1.414 . S
C1070 C1071 1.374 . S
C1071 H1051 0.950 . S
C1071 C1067 1.385 . S
C1071 C1070 1.374 . S
C1072 C1069 1.499 . S
C1072 C1073 1.373 . S
C1072 C1074 1.389 . S
C1073 H1052 0.950 . S
C1073 C1072 1.373 . S
C1073 C1089 1.377 . S
C1074 C1072 1.389 . S
C1074 C1075 1.524 . S
C1074 C1088 1.377 . S
C1075 C1074 1.524 . S
C1075 C1076 1.397 . S
C1075 C1080 1.363 . S
C1076 H1053 0.950 . S
C1076 C1075 1.397 . S
C1076 C1077 1.334 . S
C1077 H1054 0.950 . S
C1077 C1076 1.334 . S
C1077 C1078 1.287 . S
C1078 C1077 1.287 . S
C1078 C1079 1.524 . S
C1078 H1097 0.913 . S
C1079 H1055 0.950 . S
C1079 C1078 1.524 . S
C1079 C1080 1.415 . S
C1080 H1056 0.950 . S
C1080 C1075 1.363 . S
C1080 C1079 1.415 . S
C1081 H1057 0.951 . S
C1081 C1082 1.366 . S
C1081 C1083 1.388 . S
C1082 C1081 1.366 . S
C1082 C1086 1.385 . S
C1083 H1058 0.951 . S
C1083 C1081 1.388 . S
C1083 C1084 1.366 . S
C1084 C1083 1.366 . S
C1084 C1085 1.414 . S
C1084 C1087 1.499 . S
C1085 H1059 0.950 . S
C1085 C1084 1.414 . S
C1085 C1086 1.374 . S
C1086 H1060 0.950 . S
C1086 C1082 1.385 . S
C1086 C1085 1.374 . S
C1087 C1084 1.499 . S
C1087 C1088 1.373 . S
C1087 C1089 1.389 . S
C1088 H1061 0.950 . S
C1088 C1074 1.377 . S
C1088 C1087 1.373 . S
C1089 C1073 1.377 . S
C1089 C1087 1.389 . S
C1089 C1090 1.524 . S
C1090 C1089 1.524 . S
C1090 C1091 1.397 . S
C1090 C1095 1.363 . S
C1091 H1062 0.950 . S
C1091 C1090 1.397 . S
C1091 C1092 1.334 . S
C1092 H1063 0.950 . S
C1092 C1091 1.334 . S
C1092 C1093 1.287 . S
C1093 C1092 1.287 . S
C1093 C1094 1.524 . S
C1093 H1096 0.999 . S
C1094 H1064 0.950 . S
C1094 C1093 1.524 . S
C1094 C1095 1.415 . S
C1095 H1065 0.950 . S
C1095 C1090 1.363 . S
C1095 C1094 1.415 . S
H1096 C1093 0.999 . S
H1097 C1078 0.913 . S
H1098 C1116 0.951 . S
H1099 C1118 0.951 . S
H1100 C1120 0.950 . S
H1101 C1121 0.950 . S
H1102 C1123 0.950 . S
H1103 C1126 0.950 . S
H1104 C1127 0.950 . S
H1105 C1129 0.950 . S
H1106 C1130 0.950 . S
H1107 C1131 0.951 . S
H1108 C1133 0.951 . S
H1109 C1135 0.950 . S
H1110 C1136 0.950 . S
H1111 C1138 0.950 . S
H1112 C1141 0.950 . S
H1113 C1142 0.950 . S
H1114 C1144 0.950 . S
H1115 C1145 0.950 . S
C1116 H1098 0.951 . S
C1116 C1117 1.366 . S
C1116 C1118 1.388 . S
C1117 C1116 1.366 . S
C1117 C1121 1.385 . S
C1118 H1099 0.951 . S
C1118 C1116 1.388 . S
C1118 C1119 1.366 . S
C1119 C1118 1.366 . S
C1119 C1120 1.414 . S
C1119 C1122 1.499 . S
C1120 H1100 0.950 . S
C1120 C1119 1.414 . S
C1120 C1121 1.374 . S
C1121 H1101 0.950 . S
C1121 C1117 1.385 . S
C1121 C1120 1.374 . S
C1122 C1119 1.499 . S
C1122 C1123 1.373 . S
C1122 C1124 1.389 . S
C1123 H1102 0.950 . S
C1123 C1122 1.373 . S
C1123 C1139 1.377 . S
C1124 C1122 1.389 . S
C1124 C1125 1.524 . S
C1124 C1138 1.377 . S
C1125 C1124 1.524 . S
C1125 C1126 1.397 . S
C1125 C1130 1.363 . S
C1126 H1103 0.950 . S
C1126 C1125 1.397 . S
C1126 C1127 1.334 . S
C1127 H1104 0.950 . S
C1127 C1126 1.334 . S
C1127 C1128 1.287 . S
C1128 C1127 1.287 . S
C1128 C1129 1.524 . S
C1128 H1147 0.913 . S
C1129 H1105 0.950 . S
C1129 C1128 1.524 . S
C1129 C1130 1.415 . S
C1130 H1106 0.950 . S
C1130 C1125 1.363 . S
C1130 C1129 1.415 . S
C1131 H1107 0.951 . S
C1131 C1132 1.366 . S
C1131 C1133 1.388 . S
C1132 C1131 1.366 . S
C1132 C1136 1.385 . S
C1133 H1108 0.951 . S
C1133 C1131 1.388 . S
C1133 C1134 1.366 . S
C1134 C1133 1.366 . S
C1134 C1135 1.414 . S
C1134 C1137 1.499 . S
C1135 H1109 0.950 . S
C1135 C1134 1.414 . S
C1135 C1136 1.374 . S
C1136 H1110 0.950 . S
C1136 C1132 1.385 . S
C1136 C1135 1.374 . S
C1137 C1134 1.499 . S
C1137 C1138 1.373 . S
C1137 C1139 1.389 . S
C1138 H1111 0.950 . S
C1138 C1124 1.377 . S
C1138 C1137 1.373 . S
C1139 C1123 1.377 . S
C1139 C1137 1.389 . S
C1139 C1140 1.524 . S
C1140 C1139 1.524 . S
C1140 C1141 1.397 . S
C1140 C1145 1.363 . S
C1141 H1112 0.950 . S
C1141 C1140 1.397 . S
C1141 C1142 1.334 . S
C1142 H1113 0.950 . S
C1142 C1141 1.334 . S
C1142 C1143 1.287 . S
C1143 C1142 1.287 . S
C1143 C1144 1.524 . S
C1143 H1146 0.999 . S
C1144 H1114 0.950 . S
C1144 C1143 1.524 . S
C1144 C1145 1.415 . S
C1145 H1115 0.950 . S
C1145 C1140 1.363 . S
C1145 C1144 1.415 . S
H1146 C1143 0.999 . S
H1147 C1128 0.913 . S
H1148 C1166 0.951 . S
H1149 C1168 0.951 . S
H1150 C1170 0.950 . S
H1151 C1171 0.950 . S
H1152 C1173 0.950 . S
H1153 C1176 0.950 . S
H1154 C1177 0.950 . S
H1155 C1179 0.950 . S
H1156 C1180 0.950 . S
H1157 C1181 0.951 . S
H1158 C1183 0.951 . S
H1159 C1185 0.950 . S
H1160 C1186 0.950 . S
H1161 C1188 0.950 . S
H1162 C1191 0.950 . S
H1163 C1192 0.950 . S
H1164 C1194 0.950 . S
H1165 C1195 0.950 . S
C1166 H1148 0.951 . S
C1166 C1167 1.366 . S
C1166 C1168 1.388 . S
C1167 C1166 1.366 . S
C1167 C1171 1.385 . S
C1168 H1149 0.951 . S
C1168 C1166 1.388 . S
C1168 C1169 1.366 . S
C1169 C1168 1.366 . S
C1169 C1170 1.414 . S
C1169 C1172 1.499 . S
C1170 H1150 0.950 . S
C1170 C1169 1.414 . S
C1170 C1171 1.374 . S
C1171 H1151 0.950 . S
C1171 C1167 1.385 . S
C1171 C1170 1.374 . S
C1172 C1169 1.499 . S
C1172 C1173 1.373 . S
C1172 C1174 1.389 . S
C1173 H1152 0.950 . S
C1173 C1172 1.373 . S
C1173 C1189 1.377 . S
C1174 C1172 1.389 . S
C1174 C1175 1.524 . S
C1174 C1188 1.377 . S
C1175 C1174 1.524 . S
C1175 C1176 1.397 . S
C1175 C1180 1.363 . S
C1176 H1153 0.950 . S
C1176 C1175 1.397 . S
C1176 C1177 1.334 . S
C1177 H1154 0.950 . S
C1177 C1176 1.334 . S
C1177 C1178 1.287 . S
C1178 C1177 1.287 . S
C1178 C1179 1.524 . S
C1178 H1197 0.913 . S
C1179 H1155 0.950 . S
C1179 C1178 1.524 . S
C1179 C1180 1.415 . S
C1180 H1156 0.950 . S
C1180 C1175 1.363 . S
C1180 C1179 1.415 . S
C1181 H1157 0.951 . S
C1181 C1182 1.366 . S
C1181 C1183 1.388 . S
C1182 C1181 1.366 . S
C1182 C1186 1.385 . S
C1183 H1158 0.951 . S
C1183 C1181 1.388 . S
C1183 C1184 1.366 . S
C1184 C1183 1.366 . S
C1184 C1185 1.414 . S
C1184 C1187 1.499 . S
C1185 H1159 0.950 . S
C1185 C1184 1.414 . S
C1185 C1186 1.374 . S
C1186 H1160 0.950 . S
C1186 C1182 1.385 . S
C1186 C1185 1.374 . S
C1187 C1184 1.499 . S
C1187 C1188 1.373 . S
C1187 C1189 1.389 . S
C1188 H1161 0.950 . S
C1188 C1174 1.377 . S
C1188 C1187 1.373 . S
C1189 C1173 1.377 . S
C1189 C1187 1.389 . S
C1189 C1190 1.524 . S
C1190 C1189 1.524 . S
C1190 C1191 1.397 . S
C1190 C1195 1.363 . S
C1191 H1162 0.950 . S
C1191 C1190 1.397 . S
C1191 C1192 1.334 . S
C1192 H1163 0.950 . S
C1192 C1191 1.334 . S
C1192 C1193 1.287 . S
C1193 C1192 1.287 . S
C1193 C1194 1.524 . S
C1193 H1196 0.999 . S
C1194 H1164 0.950 . S
C1194 C1193 1.524 . S
C1194 C1195 1.415 . S
C1195 H1165 0.950 . S
C1195 C1190 1.363 . S
C1195 C1194 1.415 . S
H1196 C1193 0.999 . S
H1197 C1178 0.913 . S
H1198 C1216 0.951 . S
H1199 C1218 0.951 . S
H1200 C1220 0.950 . S
H1201 C1221 0.950 . S
H1202 C1223 0.950 . S
H1203 C1226 0.950 . S
H1204 C1227 0.950 . S
H1205 C1229 0.950 . S
H1206 C1230 0.950 . S
H1207 C1231 0.951 1_655 S
H1208 C1233 0.951 . S
H1209 C1235 0.950 . S
H1210 C1236 0.950 . S
H1211 C1238 0.950 . S
H1212 C1241 0.950 . S
H1213 C1242 0.950 1_655 S
H1214 C1244 0.950 . S
H1215 C1245 0.950 . S
C1216 H1198 0.951 . S
C1216 C1217 1.366 . S
C1216 C1218 1.388 . S
C1217 C1216 1.366 . S
C1217 C1221 1.385 . S
C1218 H1199 0.951 . S
C1218 C1216 1.388 . S
C1218 C1219 1.366 . S
C1219 C1218 1.366 . S
C1219 C1220 1.414 . S
C1219 C1222 1.499 . S
C1220 H1200 0.950 . S
C1220 C1219 1.414 . S
C1220 C1221 1.374 . S
C1221 H1201 0.950 . S
C1221 C1217 1.385 . S
C1221 C1220 1.374 . S
C1222 C1219 1.499 . S
C1222 C1223 1.373 . S
C1222 C1224 1.389 . S
C1223 H1202 0.950 . S
C1223 C1222 1.373 . S
C1223 C1239 1.377 . S
C1224 C1222 1.389 . S
C1224 C1225 1.524 . S
C1224 C1238 1.377 . S
C1225 C1224 1.524 . S
C1225 C1226 1.397 . S
C1225 C1230 1.363 . S
C1226 H1203 0.950 . S
C1226 C1225 1.397 . S
C1226 C1227 1.334 . S
C1227 H1204 0.950 . S
C1227 C1226 1.334 . S
C1227 C1228 1.287 . S
C1228 C1227 1.287 . S
C1228 C1229 1.524 . S
C1228 H1247 0.913 . S
C1229 H1205 0.950 . S
C1229 C1228 1.524 . S
C1229 C1230 1.415 . S
C1230 H1206 0.950 . S
C1230 C1225 1.363 . S
C1230 C1229 1.415 . S
C1231 H1207 0.951 1_455 S
C1231 C1232 1.369 . S
C1231 C1233 1.388 . S
C1232 C1231 1.369 . S
C1232 C1236 1.405 . S
C1233 H1208 0.951 . S
C1233 C1231 1.388 . S
C1233 C1234 1.366 . S
C1234 C1233 1.366 . S
C1234 C1235 1.414 . S
C1234 C1237 1.499 . S
C1235 H1209 0.950 . S
C1235 C1234 1.414 . S
C1235 C1236 1.374 . S
C1236 H1210 0.950 . S
C1236 C1232 1.405 . S
C1236 C1235 1.374 . S
C1237 C1234 1.499 . S
C1237 C1238 1.373 . S
C1237 C1239 1.389 . S
C1238 H1211 0.950 . S
C1238 C1224 1.377 . S
C1238 C1237 1.373 . S
C1239 C1223 1.377 . S
C1239 C1237 1.389 . S
C1239 C1240 1.524 . S
C1240 C1239 1.524 . S
C1240 C1241 1.397 . S
C1240 C1245 1.363 . S
C1241 H1212 0.950 . S
C1241 C1240 1.397 . S
C1241 C1242 1.334 . S
C1242 H1213 0.950 1_455 S
C1242 C1241 1.334 . S
C1242 C1243 1.287 1_455 S
C1243 C1242 1.287 1_655 S
C1243 C1244 1.524 1_655 S
C1243 H1246 0.999 . S
C1244 H1214 0.950 . S
C1244 C1243 1.524 1_455 S
C1244 C1245 1.415 . S
C1245 H1215 0.950 . S
C1245 C1240 1.363 . S
C1245 C1244 1.415 . S
H1246 C1243 0.999 . S
H1247 C1228 0.913 . S
H1248 C1266 0.951 . S
H1249 C1268 0.951 . S
H1250 C1270 0.950 . S
H1251 C1271 0.950 . S
H1252 C1273 0.950 . S
H1253 C1276 0.950 . S
H1254 C1277 0.950 . S
H1255 C1279 0.950 . S
H1256 C1280 0.950 . S
H1257 C1281 0.951 . S
H1258 C1283 0.951 . S
H1259 C1285 0.950 . S
H1260 C1286 0.950 . S
H1261 C1288 0.950 . S
H1262 C1291 0.950 . S
H1263 C1292 0.950 . S
H1264 C1294 0.950 . S
H1265 C1295 0.950 . S
C1266 H1248 0.951 . S
C1266 C1267 1.366 . S
C1266 C1268 1.388 . S
C1267 C1266 1.366 . S
C1267 C1271 1.385 . S
C1268 H1249 0.951 . S
C1268 C1266 1.388 . S
C1268 C1269 1.366 . S
C1269 C1268 1.366 . S
C1269 C1270 1.414 . S
C1269 C1272 1.499 . S
C1270 H1250 0.950 . S
C1270 C1269 1.414 . S
C1270 C1271 1.374 . S
C1271 H1251 0.950 . S
C1271 C1267 1.385 . S
C1271 C1270 1.374 . S
C1272 C1269 1.499 . S
C1272 C1273 1.373 . S
C1272 C1274 1.389 . S
C1273 H1252 0.950 . S
C1273 C1272 1.373 . S
C1273 C1289 1.377 . S
C1274 C1272 1.389 . S
C1274 C1275 1.524 . S
C1274 C1288 1.377 . S
C1275 C1274 1.524 . S
C1275 C1276 1.397 . S
C1275 C1280 1.363 . S
C1276 H1253 0.950 . S
C1276 C1275 1.397 . S
C1276 C1277 1.334 . S
C1277 H1254 0.950 . S
C1277 C1276 1.334 . S
C1277 C1278 1.287 . S
C1278 C1277 1.287 . S
C1278 C1279 1.524 . S
C1278 H1297 0.913 . S
C1279 H1255 0.950 . S
C1279 C1278 1.524 . S
C1279 C1280 1.415 . S
C1280 H1256 0.950 . S
C1280 C1275 1.363 . S
C1280 C1279 1.415 . S
C1281 H1257 0.951 . S
C1281 C1282 1.366 . S
C1281 C1283 1.388 . S
C1282 C1281 1.366 . S
C1282 C1286 1.385 . S
C1283 H1258 0.951 . S
C1283 C1281 1.388 . S
C1283 C1284 1.366 . S
C1284 C1283 1.366 . S
C1284 C1285 1.414 . S
C1284 C1287 1.499 . S
C1285 H1259 0.950 . S
C1285 C1284 1.414 . S
C1285 C1286 1.374 . S
C1286 H1260 0.950 . S
C1286 C1282 1.385 . S
C1286 C1285 1.374 . S
C1287 C1284 1.499 . S
C1287 C1288 1.373 . S
C1287 C1289 1.389 . S
C1288 H1261 0.950 . S
C1288 C1274 1.377 . S
C1288 C1287 1.373 . S
C1289 C1273 1.377 . S
C1289 C1287 1.389 . S
C1289 C1290 1.524 . S
C1290 C1289 1.524 . S
C1290 C1291 1.397 . S
C1290 C1295 1.363 . S
C1291 H1262 0.950 . S
C1291 C1290 1.397 . S
C1291 C1292 1.334 . S
C1292 H1263 0.950 . S
C1292 C1291 1.334 . S
C1292 C1293 1.287 . S
C1293 C1292 1.287 . S
C1293 C1294 1.524 . S
C1293 H1296 0.999 . S
C1294 H1264 0.950 . S
C1294 C1293 1.524 . S
C1294 C1295 1.415 . S
C1295 H1265 0.950 . S
C1295 C1290 1.363 . S
C1295 C1294 1.415 . S
H1296 C1293 0.999 . S
H1297 C1278 0.913 . S
H1298 C1316 0.951 . S
H1299 C1318 0.951 . S
H1300 C1320 0.950 . S
H1301 C1321 0.950 . S
H1302 C1323 0.950 . S
H1303 C1326 0.950 . S
H1304 C1327 0.950 . S
H1305 C1329 0.950 . S
H1306 C1330 0.950 . S
H1307 C1331 0.951 . S
H1308 C1333 0.951 . S
H1309 C1335 0.950 . S
H1310 C1336 0.950 . S
H1311 C1338 0.950 . S
H1312 C1341 0.950 . S
H1313 C1342 0.950 . S
H1314 C1344 0.950 . S
H1315 C1345 0.950 . S
C1316 H1298 0.951 . S
C1316 C1317 1.366 . S
C1316 C1318 1.388 . S
C1317 C1316 1.366 . S
C1317 C1321 1.385 . S
C1318 H1299 0.951 . S
C1318 C1316 1.388 . S
C1318 C1319 1.366 . S
C1319 C1318 1.366 . S
C1319 C1320 1.414 . S
C1319 C1322 1.499 . S
C1320 H1300 0.950 . S
C1320 C1319 1.414 . S
C1320 C1321 1.374 . S
C1321 H1301 0.950 . S
C1321 C1317 1.385 . S
C1321 C1320 1.374 . S
C1322 C1319 1.499 . S
C1322 C1323 1.373 . S
C1322 C1324 1.389 . S
C1323 H1302 0.950 . S
C1323 C1322 1.373 . S
C1323 C1339 1.377 . S
C1324 C1322 1.389 . S
C1324 C1325 1.524 . S
C1324 C1338 1.377 . S
C1325 C1324 1.524 . S
C1325 C1326 1.397 . S
C1325 C1330 1.363 . S
C1326 H1303 0.950 . S
C1326 C1325 1.397 . S
C1326 C1327 1.334 . S
C1327 H1304 0.950 . S
C1327 C1326 1.334 . S
C1327 C1328 1.287 . S
C1328 C1327 1.287 . S
C1328 C1329 1.524 . S
C1328 H1347 0.913 . S
C1329 H1305 0.950 . S
C1329 C1328 1.524 . S
C1329 C1330 1.415 . S
C1330 H1306 0.950 . S
C1330 C1325 1.363 . S
C1330 C1329 1.415 . S
C1331 H1307 0.951 . S
C1331 C1332 1.366 . S
C1331 C1333 1.388 . S
C1332 C1331 1.366 . S
C1332 C1336 1.385 . S
C1333 H1308 0.951 . S
C1333 C1331 1.388 . S
C1333 C1334 1.366 . S
C1334 C1333 1.366 . S
C1334 C1335 1.414 . S
C1334 C1337 1.499 . S
C1335 H1309 0.950 . S
C1335 C1334 1.414 . S
C1335 C1336 1.374 . S
C1336 H1310 0.950 . S
C1336 C1332 1.385 . S
C1336 C1335 1.374 . S
C1337 C1334 1.499 . S
C1337 C1338 1.373 . S
C1337 C1339 1.389 . S
C1338 H1311 0.950 . S
C1338 C1324 1.377 . S
C1338 C1337 1.373 . S
C1339 C1323 1.377 . S
C1339 C1337 1.389 . S
C1339 C1340 1.524 . S
C1340 C1339 1.524 . S
C1340 C1341 1.397 . S
C1340 C1345 1.363 . S
C1341 H1312 0.950 . S
C1341 C1340 1.397 . S
C1341 C1342 1.334 . S
C1342 H1313 0.950 . S
C1342 C1341 1.334 . S
C1342 C1343 1.287 . S
C1343 C1342 1.287 . S
C1343 C1344 1.524 . S
C1343 H1346 0.999 . S
C1344 H1314 0.950 . S
C1344 C1343 1.524 . S
C1344 C1345 1.415 . S
C1345 H1315 0.950 . S
C1345 C1340 1.363 . S
C1345 C1344 1.415 . S
H1346 C1343 0.999 . S
H1347 C1328 0.913 . S
H1348 C1366 0.951 . S
H1349 C1368 0.951 . S
H1350 C1370 0.950 . S
H1351 C1371 0.950 . S
H1352 C1373 0.950 . S
H1353 C1376 0.950 . S
H1354 C1377 0.950 . S
H1355 C1379 0.950 . S
H1356 C1380 0.950 . S
H1357 C1381 0.951 . S
H1358 C1383 0.951 . S
H1359 C1385 0.950 . S
H1360 C1386 0.950 . S
H1361 C1388 0.950 . S
H1362 C1391 0.950 . S
H1363 C1392 0.950 . S
H1364 C1394 0.950 . S
H1365 C1395 0.950 . S
C1366 H1348 0.951 . S
C1366 C1367 1.366 . S
C1366 C1368 1.388 . S
C1367 C1366 1.366 . S
C1367 C1371 1.385 . S
C1368 H1349 0.951 . S
C1368 C1366 1.388 . S
C1368 C1369 1.366 . S
C1369 C1368 1.366 . S
C1369 C1370 1.414 . S
C1369 C1372 1.499 . S
C1370 H1350 0.950 . S
C1370 C1369 1.414 . S
C1370 C1371 1.374 . S
C1371 H1351 0.950 . S
C1371 C1367 1.385 . S
C1371 C1370 1.374 . S
C1372 C1369 1.499 . S
C1372 C1373 1.373 . S
C1372 C1374 1.389 . S
C1373 H1352 0.950 . S
C1373 C1372 1.373 . S
C1373 C1389 1.377 . S
C1374 C1372 1.389 . S
C1374 C1375 1.524 . S
C1374 C1388 1.377 . S
C1375 C1374 1.524 . S
C1375 C1376 1.397 . S
C1375 C1380 1.363 . S
C1376 H1353 0.950 . S
C1376 C1375 1.397 . S
C1376 C1377 1.334 . S
C1377 H1354 0.950 . S
C1377 C1376 1.334 . S
C1377 C1378 1.287 . S
C1378 C1377 1.287 . S
C1378 C1379 1.524 . S
C1378 H1397 0.913 . S
C1379 H1355 0.950 . S
C1379 C1378 1.524 . S
C1379 C1380 1.415 . S
C1380 H1356 0.950 . S
C1380 C1375 1.363 . S
C1380 C1379 1.415 . S
C1381 H1357 0.951 . S
C1381 C1382 1.366 . S
C1381 C1383 1.388 . S
C1382 C1381 1.366 . S
C1382 C1386 1.385 . S
C1383 H1358 0.951 . S
C1383 C1381 1.388 . S
C1383 C1384 1.366 . S
C1384 C1383 1.366 . S
C1384 C1385 1.414 . S
C1384 C1387 1.499 . S
C1385 H1359 0.950 . S
C1385 C1384 1.414 . S
C1385 C1386 1.374 . S
C1386 H1360 0.950 . S
C1386 C1382 1.385 . S
C1386 C1385 1.374 . S
C1387 C1384 1.499 . S
C1387 C1388 1.373 . S
C1387 C1389 1.389 . S
C1388 H1361 0.950 . S
C1388 C1374 1.377 . S
C1388 C1387 1.373 . S
C1389 C1373 1.377 . S
C1389 C1387 1.389 . S
C1389 C1390 1.524 . S
C1390 C1389 1.524 . S
C1390 C1391 1.397 . S
C1390 C1395 1.363 . S
C1391 H1362 0.950 . S
C1391 C1390 1.397 . S
C1391 C1392 1.334 . S
C1392 H1363 0.950 . S
C1392 C1391 1.334 . S
C1392 C1393 1.287 . S
C1393 C1392 1.287 . S
C1393 C1394 1.524 . S
C1393 H1396 0.999 . S
C1394 H1364 0.950 . S
C1394 C1393 1.524 . S
C1394 C1395 1.415 . S
C1395 H1365 0.950 . S
C1395 C1390 1.363 . S
C1395 C1394 1.415 . S
H1396 C1393 0.999 . S
H1397 C1378 0.913 . S
H1398 C1416 0.951 . S
H1399 C1418 0.951 . S
H1400 C1420 0.950 . S
H1401 C1421 0.950 . S
H1402 C1423 0.950 . S
H1403 C1426 0.950 . S
H1404 C1427 0.950 . S
H1405 C1429 0.950 . S
H1406 C1430 0.950 . S
H1407 C1431 0.951 . S
H1408 C1433 0.951 . S
H1409 C1435 0.950 . S
H1410 C1436 0.950 . S
H1411 C1438 0.950 . S
H1412 C1441 0.950 . S
H1413 C1442 0.950 1_655 S
H1414 C1444 0.950 . S
H1415 C1445 0.950 . S
C1416 H1398 0.951 . S
C1416 C1417 1.366 . S
C1416 C1418 1.388 . S
C1417 C1416 1.366 . S
C1417 C1421 1.385 . S
C1418 H1399 0.951 . S
C1418 C1416 1.388 . S
C1418 C1419 1.366 . S
C1419 C1418 1.366 . S
C1419 C1420 1.414 . S
C1419 C1422 1.499 . S
C1420 H1400 0.950 . S
C1420 C1419 1.414 . S
C1420 C1421 1.374 . S
C1421 H1401 0.950 . S
C1421 C1417 1.385 . S
C1421 C1420 1.374 . S
C1422 C1419 1.499 . S
C1422 C1423 1.373 . S
C1422 C1424 1.389 . S
C1423 H1402 0.950 . S
C1423 C1422 1.373 . S
C1423 C1439 1.377 . S
C1424 C1422 1.389 . S
C1424 C1425 1.524 . S
C1424 C1438 1.377 . S
C1425 C1424 1.524 . S
C1425 C1426 1.397 . S
C1425 C1430 1.363 . S
C1426 H1403 0.950 . S
C1426 C1425 1.397 . S
C1426 C1427 1.334 . S
C1427 H1404 0.950 . S
C1427 C1426 1.334 . S
C1427 C1428 1.287 . S
C1428 C1427 1.287 . S
C1428 C1429 1.524 . S
C1428 H1447 0.913 . S
C1429 H1405 0.950 . S
C1429 C1428 1.524 . S
C1429 C1430 1.415 . S
C1430 H1406 0.950 . S
C1430 C1425 1.363 . S
C1430 C1429 1.415 . S
C1431 H1407 0.951 . S
C1431 C1432 1.366 . S
C1431 C1433 1.388 . S
C1432 C1431 1.366 . S
C1432 C1436 1.385 . S
C1433 H1408 0.951 . S
C1433 C1431 1.388 . S
C1433 C1434 1.366 . S
C1434 C1433 1.366 . S
C1434 C1435 1.414 . S
C1434 C1437 1.499 . S
C1435 H1409 0.950 . S
C1435 C1434 1.414 . S
C1435 C1436 1.374 . S
C1436 H1410 0.950 . S
C1436 C1432 1.385 . S
C1436 C1435 1.374 . S
C1437 C1434 1.499 . S
C1437 C1438 1.373 . S
C1437 C1439 1.389 . S
C1438 H1411 0.950 . S
C1438 C1424 1.377 . S
C1438 C1437 1.373 . S
C1439 C1423 1.377 . S
C1439 C1437 1.389 . S
C1439 C1440 1.524 . S
C1440 C1439 1.524 . S
C1440 C1441 1.397 . S
C1440 C1445 1.363 . S
C1441 H1412 0.950 . S
C1441 C1440 1.397 . S
C1441 C1442 1.334 . S
C1442 H1413 0.950 1_455 S
C1442 C1441 1.334 . S
C1442 C1443 1.287 . S
C1443 C1442 1.287 . S
C1443 C1444 1.524 . S
C1443 H1446 0.999 1_455 S
C1444 H1414 0.950 . S
C1444 C1443 1.524 . S
C1444 C1445 1.415 . S
C1445 H1415 0.950 . S
C1445 C1440 1.363 . S
C1445 C1444 1.415 . S
H1446 C1443 0.999 1_655 S
H1447 C1428 0.913 . S
H1448 C1466 0.951 . S
H1449 C1468 0.951 . S
H1450 C1470 0.950 . S
H1451 C1471 0.950 . S
H1452 C1473 0.950 . S
H1453 C1476 0.950 . S
H1454 C1477 0.950 . S
H1455 C1479 0.950 . S
H1456 C1480 0.950 . S
H1457 C1481 0.951 . S
H1458 C1483 0.951 . S
H1459 C1485 0.950 . S
H1460 C1486 0.950 . S
H1461 C1488 0.950 . S
H1462 C1491 0.950 . S
H1463 C1492 0.950 . S
H1464 C1494 0.950 . S
H1465 C1495 0.950 . S
C1466 H1448 0.951 . S
C1466 C1467 1.366 . S
C1466 C1468 1.388 . S
C1467 C1466 1.366 . S
C1467 C1471 1.385 . S
C1468 H1449 0.951 . S
C1468 C1466 1.388 . S
C1468 C1469 1.366 . S
C1469 C1468 1.366 . S
C1469 C1470 1.414 . S
C1469 C1472 1.499 . S
C1470 H1450 0.950 . S
C1470 C1469 1.414 . S
C1470 C1471 1.374 . S
C1471 H1451 0.950 . S
C1471 C1467 1.385 . S
C1471 C1470 1.374 . S
C1472 C1469 1.499 . S
C1472 C1473 1.373 . S
C1472 C1474 1.389 . S
C1473 H1452 0.950 . S
C1473 C1472 1.373 . S
C1473 C1489 1.377 . S
C1474 C1472 1.389 . S
C1474 C1475 1.524 . S
C1474 C1488 1.377 . S
C1475 C1474 1.524 . S
C1475 C1476 1.397 . S
C1475 C1480 1.363 . S
C1476 H1453 0.950 . S
C1476 C1475 1.397 . S
C1476 C1477 1.334 . S
C1477 H1454 0.950 . S
C1477 C1476 1.334 . S
C1477 C1478 1.287 . S
C1478 C1477 1.287 . S
C1478 C1479 1.524 . S
C1478 H1497 0.913 . S
C1479 H1455 0.950 . S
C1479 C1478 1.524 . S
C1479 C1480 1.415 . S
C1480 H1456 0.950 . S
C1480 C1475 1.363 . S
C1480 C1479 1.415 . S
C1481 H1457 0.951 . S
C1481 C1482 1.366 . S
C1481 C1483 1.388 . S
C1482 C1481 1.366 . S
C1482 C1486 1.385 . S
C1483 H1458 0.951 . S
C1483 C1481 1.388 . S
C1483 C1484 1.366 . S
C1484 C1483 1.366 . S
C1484 C1485 1.414 . S
C1484 C1487 1.499 . S
C1485 H1459 0.950 . S
C1485 C1484 1.414 . S
C1485 C1486 1.374 . S
C1486 H1460 0.950 . S
C1486 C1482 1.385 . S
C1486 C1485 1.374 . S
C1487 C1484 1.499 . S
C1487 C1488 1.373 . S
C1487 C1489 1.389 . S
C1488 H1461 0.950 . S
C1488 C1474 1.377 . S
C1488 C1487 1.373 . S
C1489 C1473 1.377 . S
C1489 C1487 1.389 . S
C1489 C1490 1.524 . S
C1490 C1489 1.524 . S
C1490 C1491 1.397 . S
C1490 C1495 1.363 . S
C1491 H1462 0.950 . S
C1491 C1490 1.397 . S
C1491 C1492 1.334 . S
C1492 H1463 0.950 . S
C1492 C1491 1.334 . S
C1492 C1493 1.287 . S
C1493 C1492 1.287 . S
C1493 C1494 1.524 . S
C1493 H1496 0.999 . S
C1494 H1464 0.950 . S
C1494 C1493 1.524 . S
C1494 C1495 1.415 . S
C1495 H1465 0.950 . S
C1495 C1490 1.363 . S
C1495 C1494 1.415 . S
H1496 C1493 0.999 . S
H1497 C1478 0.913 . S
H1498 C1516 0.951 . S
H1499 C1518 0.951 . S
H1500 C1520 0.950 . S
H1501 C1521 0.950 . S
H1502 C1523 0.950 . S
H1503 C1526 0.950 . S
H1504 C1527 0.950 . S
H1505 C1529 0.950 . S
H1506 C1530 0.950 . S
H1507 C1531 0.917 1_655 S
H1508 C1533 0.951 . S
H1509 C1535 0.950 . S
H1510 C1536 0.950 . S
H1511 C1538 0.950 . S
H1512 C1541 0.950 . S
H1513 C1542 0.950 . S
H1514 C1544 0.950 . S
H1515 C1545 0.950 . S
C1516 H1498 0.951 . S
C1516 C1517 1.366 . S
C1516 C1518 1.388 . S
C1517 C1516 1.366 . S
C1517 C1521 1.385 . S
C1518 H1499 0.951 . S
C1518 C1516 1.388 . S
C1518 C1519 1.366 . S
C1519 C1518 1.366 . S
C1519 C1520 1.414 . S
C1519 C1522 1.499 . S
C1520 H1500 0.950 . S
C1520 C1519 1.414 . S
C1520 C1521 1.374 . S
C1521 H1501 0.950 . S
C1521 C1517 1.385 . S
C1521 C1520 1.374 . S
C1522 C1519 1.499 . S
C1522 C1523 1.373 . S
C1522 C1524 1.389 . S
C1523 H1502 0.950 . S
C1523 C1522 1.373 . S
C1523 C1539 1.377 . S
C1524 C1522 1.389 . S
C1524 C1525 1.524 . S
C1524 C1538 1.377 . S
C1525 C1524 1.524 . S
C1525 C1526 1.397 . S
C1525 C1530 1.363 . S
C1526 H1503 0.950 . S
C1526 C1525 1.397 . S
C1526 C1527 1.334 . S
C1527 H1504 0.950 . S
C1527 C1526 1.334 . S
C1527 C1528 1.287 . S
C1528 C1527 1.287 . S
C1528 C1529 1.524 . S
C1528 H1547 0.913 . S
C1529 H1505 0.950 . S
C1529 C1528 1.524 . S
C1529 C1530 1.415 . S
C1530 H1506 0.950 . S
C1530 C1525 1.363 . S
C1530 C1529 1.415 . S
C1531 H1507 0.917 1_455 S
C1531 C1532 1.368 . S
C1531 C1533 1.420 . S
C1532 C1531 1.368 . S
C1532 C1536 1.385 . S
C1533 H1508 0.951 . S
C1533 C1531 1.420 . S
C1533 C1534 1.366 . S
C1534 C1533 1.366 . S
C1534 C1535 1.414 . S
C1534 C1537 1.499 . S
C1535 H1509 0.950 . S
C1535 C1534 1.414 . S
C1535 C1536 1.374 . S
C1536 H1510 0.950 . S
C1536 C1532 1.385 . S
C1536 C1535 1.374 . S
C1537 C1534 1.499 . S
C1537 C1538 1.373 . S
C1537 C1539 1.389 . S
C1538 H1511 0.950 . S
C1538 C1524 1.377 . S
C1538 C1537 1.373 . S
C1539 C1523 1.377 . S
C1539 C1537 1.389 . S
C1539 C1540 1.524 . S
C1540 C1539 1.524 . S
C1540 C1541 1.397 . S
C1540 C1545 1.363 . S
C1541 H1512 0.950 . S
C1541 C1540 1.397 . S
C1541 C1542 1.334 . S
C1542 H1513 0.950 . S
C1542 C1541 1.334 . S
C1542 C1543 1.287 . S
C1543 C1542 1.287 . S
C1543 C1544 1.524 . S
C1543 H1546 0.999 . S
C1544 H1514 0.950 . S
C1544 C1543 1.524 . S
C1544 C1545 1.415 . S
C1545 H1515 0.950 . S
C1545 C1540 1.363 . S
C1545 C1544 1.415 . S
H1546 C1543 0.999 . S
H1547 C1528 0.913 . S
H1548 C1566 0.951 . S
H1549 C1568 0.951 . S
H1550 C1570 0.950 . S
H1551 C1571 0.950 . S
H1552 C1573 0.950 . S
H1553 C1576 0.950 . S
H1554 C1577 0.950 . S
H1555 C1579 0.950 . S
H1556 C1580 0.950 . S
H1557 C1581 0.951 . S
H1558 C1583 0.951 . S
H1559 C1585 0.950 . S
H1560 C1586 0.950 . S
H1561 C1588 0.950 . S
H1562 C1591 0.950 . S
H1563 C1592 0.950 . S
H1564 C1594 0.950 . S
H1565 C1595 0.950 . S
C1566 H1548 0.951 . S
C1566 C1567 1.366 . S
C1566 C1568 1.388 . S
C1567 C1566 1.366 . S
C1567 C1571 1.385 . S
C1568 H1549 0.951 . S
C1568 C1566 1.388 . S
C1568 C1569 1.366 . S
C1569 C1568 1.366 . S
C1569 C1570 1.414 . S
C1569 C1572 1.499 . S
C1570 H1550 0.950 . S
C1570 C1569 1.414 . S
C1570 C1571 1.374 . S
C1571 H1551 0.950 . S
C1571 C1567 1.385 . S
C1571 C1570 1.374 . S
C1572 C1569 1.499 . S
C1572 C1573 1.373 . S
C1572 C1574 1.389 . S
C1573 H1552 0.950 . S
C1573 C1572 1.373 . S
C1573 C1589 1.377 . S
C1574 C1572 1.389 . S
C1574 C1575 1.524 . S
C1574 C1588 1.377 . S
C1575 C1574 1.524 . S
C1575 C1576 1.397 . S
C1575 C1580 1.363 . S
C1576 H1553 0.950 . S
C1576 C1575 1.397 . S
C1576 C1577 1.334 . S
C1577 H1554 0.950 . S
C1577 C1576 1.334 . S
C1577 C1578 1.287 . S
C1578 C1577 1.287 . S
C1578 C1579 1.524 . S
C1578 H1597 0.913 . S
C1579 H1555 0.950 . S
C1579 C1578 1.524 . S
C1579 C1580 1.415 . S
C1580 H1556 0.950 . S
C1580 C1575 1.363 . S
C1580 C1579 1.415 . S
C1581 H1557 0.951 . S
C1581 C1582 1.366 . S
C1581 C1583 1.388 . S
C1582 C1581 1.366 . S
C1582 C1586 1.385 . S
C1583 H1558 0.951 . S
C1583 C1581 1.388 . S
C1583 C1584 1.366 . S
C1584 C1583 1.366 . S
C1584 C1585 1.414 . S
C1584 C1587 1.499 . S
C1585 H1559 0.950 . S
C1585 C1584 1.414 . S
C1585 C1586 1.374 . S
C1586 H1560 0.950 . S
C1586 C1582 1.385 . S
C1586 C1585 1.374 . S
C1587 C1584 1.499 . S
C1587 C1588 1.373 . S
C1587 C1589 1.389 . S
C1588 H1561 0.950 . S
C1588 C1574 1.377 . S
C1588 C1587 1.373 . S
C1589 C1573 1.377 . S
C1589 C1587 1.389 . S
C1589 C1590 1.524 . S
C1590 C1589 1.524 . S
C1590 C1591 1.397 . S
C1590 C1595 1.363 . S
C1591 H1562 0.950 . S
C1591 C1590 1.397 . S
C1591 C1592 1.334 . S
C1592 H1563 0.950 . S
C1592 C1591 1.334 . S
C1592 C1593 1.287 . S
C1593 C1592 1.287 . S
C1593 C1594 1.524 . S
C1593 H1596 0.999 . S
C1594 H1564 0.950 . S
C1594 C1593 1.524 . S
C1594 C1595 1.415 . S
C1595 H1565 0.950 . S
C1595 C1590 1.363 . S
C1595 C1594 1.415 . S
H1596 C1593 0.999 . S
H1597 C1578 0.913 . S
H1598 C1616 0.951 . S
H1599 C1618 0.951 . S
H1600 C1620 0.950 . S
H1601 C1621 0.950 . S
H1602 C1623 0.950 . S
H1603 C1626 0.950 . S
H1604 C1627 0.950 . S
H1605 C1629 0.950 . S
H1606 C1630 0.950 . S
H1607 C1631 0.951 . S
H1608 C1633 0.951 . S
H1609 C1635 0.950 . S
H1610 C1636 0.950 . S
H1611 C1638 0.950 . S
H1612 C1641 0.950 . S
H1613 C1642 0.950 . S
H1614 C1644 0.950 . S
H1615 C1645 0.950 . S
C1616 H1598 0.951 . S
C1616 C1617 1.366 . S
C1616 C1618 1.388 . S
C1617 C1616 1.366 . S
C1617 C1621 1.385 . S
C1618 H1599 0.951 . S
C1618 C1616 1.388 . S
C1618 C1619 1.366 . S
C1619 C1618 1.366 . S
C1619 C1620 1.414 . S
C1619 C1622 1.499 . S
C1620 H1600 0.950 . S
C1620 C1619 1.414 . S
C1620 C1621 1.374 . S
C1621 H1601 0.950 . S
C1621 C1617 1.385 . S
C1621 C1620 1.374 . S
C1622 C1619 1.499 . S
C1622 C1623 1.373 . S
C1622 C1624 1.389 . S
C1623 H1602 0.950 . S
C1623 C1622 1.373 . S
C1623 C1639 1.377 . S
C1624 C1622 1.389 . S
C1624 C1625 1.524 . S
C1624 C1638 1.377 . S
C1625 C1624 1.524 . S
C1625 C1626 1.397 . S
C1625 C1630 1.363 . S
C1626 H1603 0.950 . S
C1626 C1625 1.397 . S
C1626 C1627 1.334 . S
C1627 H1604 0.950 . S
C1627 C1626 1.334 . S
C1627 C1628 1.287 . S
C1628 C1627 1.287 . S
C1628 C1629 1.524 . S
C1628 H1647 0.913 . S
C1629 H1605 0.950 . S
C1629 C1628 1.524 . S
C1629 C1630 1.415 . S
C1630 H1606 0.950 . S
C1630 C1625 1.363 . S
C1630 C1629 1.415 . S
C1631 H1607 0.951 . S
C1631 C1632 1.366 . S
C1631 C1633 1.388 . S
C1632 C1631 1.366 . S
C1632 C1636 1.385 . S
C1633 H1608 0.951 . S
C1633 C1631 1.388 . S
C1633 C1634 1.366 . S
C1634 C1633 1.366 . S
C1634 C1635 1.414 . S
C1634 C1637 1.499 . S
C1635 H1609 0.950 . S
C1635 C1634 1.414 . S
C1635 C1636 1.374 . S
C1636 H1610 0.950 . S
C1636 C1632 1.385 . S
C1636 C1635 1.374 . S
C1637 C1634 1.499 . S
C1637 C1638 1.373 . S
C1637 C1639 1.389 . S
C1638 H1611 0.950 . S
C1638 C1624 1.377 . S
C1638 C1637 1.373 . S
C1639 C1623 1.377 . S
C1639 C1637 1.389 . S
C1639 C1640 1.524 . S
C1640 C1639 1.524 . S
C1640 C1641 1.397 . S
C1640 C1645 1.363 . S
C1641 H1612 0.950 . S
C1641 C1640 1.397 . S
C1641 C1642 1.334 . S
C1642 H1613 0.950 . S
C1642 C1641 1.334 . S
C1642 C1643 1.287 . S
C1643 C1642 1.287 . S
C1643 C1644 1.524 . S
C1643 H1646 0.999 . S
C1644 H1614 0.950 . S
C1644 C1643 1.524 . S
C1644 C1645 1.415 . S
C1645 H1615 0.950 . S
C1645 C1640 1.363 . S
C1645 C1644 1.415 . S
H1646 C1643 0.999 . S
H1647 C1628 0.913 . S
H1648 C1666 0.951 . S
H1649 C1668 0.951 . S
H1650 C1670 0.950 . S
H1651 C1671 0.950 . S
H1652 C1673 0.950 . S
H1653 C1676 0.950 . S
H1654 C1677 0.950 . S
H1655 C1679 0.950 . S
H1656 C1680 0.950 . S
H1657 C1681 0.951 . S
H1658 C1683 0.951 . S
H1659 C1685 0.950 . S
H1660 C1686 0.950 . S
H1661 C1688 0.950 . S
H1662 C1691 0.950 . S
H1663 C1692 0.950 . S
H1664 C1694 0.950 . S
H1665 C1695 0.950 . S
C1666 H1648 0.951 . S
C1666 C1667 1.366 . S
C1666 C1668 1.388 . S
C1667 C1666 1.366 . S
C1667 C1671 1.385 . S
C1668 H1649 0.951 . S
C1668 C1666 1.388 . S
C1668 C1669 1.366 . S
C1669 C1668 1.366 . S
C1669 C1670 1.414 . S
C1669 C1672 1.499 . S
C1670 H1650 0.950 . S
C1670 C1669 1.414 . S
C1670 C1671 1.374 . S
C1671 H1651 0.950 . S
C1671 C1667 1.385 . S
C1671 C1670 1.374 . S
C1672 C1669 1.499 . S
C1672 C1673 1.373 . S
C1672 C1674 1.389 . S
C1673 H1652 0.950 . S
C1673 C1672 1.373 . S
C1673 C1689 1.377 . S
C1674 C1672 1.389 . S
C1674 C1675 1.524 . S
C1674 C1688 1.377 . S
C1675 C1674 1.524 . S
C1675 C1676 1.397 . S
C1675 C1680 1.363 . S
C1676 H1653 0.950 . S
C1676 C1675 1.397 . S
C1676 C1677 1.334 . S
C1677 H1654 0.950 . S
C1677 C1676 1.334 . S
C1677 C1678 1.287 . S
C1678 C1677 1.287 . S
C1678 C1679 1.524 . S
C1678 H1697 0.913 . S
C1679 H1655 0.950 . S
C1679 C1678 1.524 . S
C1679 C1680 1.415 . S
C1680 H1656 0.950 . S
C1680 C1675 1.363 . S
C1680 C1679 1.415 . S
C1681 H1657 0.951 . S
C1681 C1682 1.366 . S
C1681 C1683 1.388 . S
C1682 C1681 1.366 . S
C1682 C1686 1.385 . S
C1683 H1658 0.951 . S
C1683 C1681 1.388 . S
C1683 C1684 1.366 . S
C1684 C1683 1.366 . S
C1684 C1685 1.414 . S
C1684 C1687 1.499 . S
C1685 H1659 0.950 . S
C1685 C1684 1.414 . S
C1685 C1686 1.374 . S
C1686 H1660 0.950 . S
C1686 C1682 1.385 . S
C1686 C1685 1.374 . S
C1687 C1684 1.499 . S
C1687 C1688 1.373 . S
C1687 C1689 1.389 . S
C1688 H1661 0.950 . S
C1688 C1674 1.377 . S
C1688 C1687 1.373 . S
C1689 C1673 1.377 . S
C1689 C1687 1.389 . S
C1689 C1690 1.524 . S
C1690 C1689 1.524 . S
C1690 C1691 1.397 . S
C1690 C1695 1.363 . S
C1691 H1662 0.950 . S
C1691 C1690 1.397 . S
C1691 C1692 1.334 . S
C1692 H1663 0.950 . S
C1692 C1691 1.334 . S
C1692 C1693 1.287 . S
C1693 C1692 1.287 . S
C1693 C1694 1.524 . S
C1693 H1696 0.999 . S
C1694 H1664 0.950 . S
C1694 C1693 1.524 . S
C1694 C1695 1.415 . S
C1695 H1665 0.950 . S
C1695 C1690 1.363 . S
C1695 C1694 1.415 . S
H1696 C1693 0.999 . S
H1697 C1678 0.913 . S
H1698 C1716 0.951 . S
H1699 C1718 0.951 . S
H1700 C1720 0.950 . S
H1701 C1721 0.950 . S
H1702 C1723 0.950 . S
H1703 C1726 0.950 . S
H1704 C1727 0.950 . S
H1705 C1729 0.950 . S
H1706 C1730 0.950 . S
H1707 C1731 0.951 . S
H1708 C1733 0.951 . S
H1709 C1735 0.950 . S
H1710 C1736 0.950 . S
H1711 C1738 0.950 . S
H1712 C1741 0.950 . S
H1713 C1742 0.950 . S
H1714 C1744 0.950 . S
H1715 C1745 0.950 . S
C1716 H1698 0.951 . S
C1716 C1717 1.366 . S
C1716 C1718 1.388 . S
C1717 C1716 1.366 . S
C1717 C1721 1.385 . S
C1718 H1699 0.951 . S
C1718 C1716 1.388 . S
C1718 C1719 1.366 . S
C1719 C1718 1.366 . S
C1719 C1720 1.414 . S
C1719 C1722 1.499 . S
C1720 H1700 0.950 . S
C1720 C1719 1.414 . S
C1720 C1721 1.374 . S
C1721 H1701 0.950 . S
C1721 C1717 1.385 . S
C1721 C1720 1.374 . S
C1722 C1719 1.499 . S
C1722 C1723 1.373 . S
C1722 C1724 1.389 . S
C1723 H1702 0.950 . S
C1723 C1722 1.373 . S
C1723 C1739 1.377 . S
C1724 C1722 1.389 . S
C1724 C1725 1.524 . S
C1724 C1738 1.377 . S
C1725 C1724 1.524 . S
C1725 C1726 1.397 . S
C1725 C1730 1.363 . S
C1726 H1703 0.950 . S
C1726 C1725 1.397 . S
C1726 C1727 1.334 . S
C1727 H1704 0.950 . S
C1727 C1726 1.334 . S
C1727 C1728 1.287 . S
C1728 C1727 1.287 . S
C1728 C1729 1.524 . S
C1728 H1747 0.913 . S
C1729 H1705 0.950 . S
C1729 C1728 1.524 . S
C1729 C1730 1.415 . S
C1730 H1706 0.950 . S
C1730 C1725 1.363 . S
C1730 C1729 1.415 . S
C1731 H1707 0.951 . S
C1731 C1732 1.366 . S
C1731 C1733 1.388 . S
C1732 C1731 1.366 . S
C1732 C1736 1.385 . S
C1733 H1708 0.951 . S
C1733 C1731 1.388 . S
C1733 C1734 1.366 . S
C1734 C1733 1.366 . S
C1734 C1735 1.414 . S
C1734 C1737 1.499 . S
C1735 H1709 0.950 . S
C1735 C1734 1.414 . S
C1735 C1736 1.374 . S
C1736 H1710 0.950 . S
C1736 C1732 1.385 . S
C1736 C1735 1.374 . S
C1737 C1734 1.499 . S
C1737 C1738 1.373 . S
C1737 C1739 1.389 . S
C1738 H1711 0.950 . S
C1738 C1724 1.377 . S
C1738 C1737 1.373 . S
C1739 C1723 1.377 . S
C1739 C1737 1.389 . S
C1739 C1740 1.524 . S
C1740 C1739 1.524 . S
C1740 C1741 1.397 . S
C1740 C1745 1.363 . S
C1741 H1712 0.950 . S
C1741 C1740 1.397 . S
C1741 C1742 1.334 . S
C1742 H1713 0.950 . S
C1742 C1741 1.334 . S
C1742 C1743 1.287 . S
C1743 C1742 1.287 . S
C1743 C1744 1.524 . S
C1743 H1746 0.999 . S
C1744 H1714 0.950 . S
C1744 C1743 1.524 . S
C1744 C1745 1.415 . S
C1745 H1715 0.950 . S
C1745 C1740 1.363 . S
C1745 C1744 1.415 . S
H1746 C1743 0.999 . S
H1747 C1728 0.913 . S
H1748 C1766 0.951 . S
H1749 C1768 0.951 . S
H1750 C1770 0.950 . S
H1751 C1771 0.950 . S
H1752 C1773 0.950 . S
H1753 C1776 0.950 . S
H1754 C1777 0.950 . S
H1755 C1779 0.950 . S
H1756 C1780 0.950 . S
H1757 C1781 0.951 . S
H1758 C1783 0.951 . S
H1759 C1785 0.950 . S
H1760 C1786 0.950 . S
H1761 C1788 0.950 . S
H1762 C1791 0.950 . S
H1763 C1792 0.950 . S
H1764 C1794 0.950 . S
H1765 C1795 0.950 . S
C1766 H1748 0.951 . S
C1766 C1767 1.366 . S
C1766 C1768 1.388 . S
C1767 C1766 1.366 . S
C1767 C1771 1.385 . S
C1768 H1749 0.951 . S
C1768 C1766 1.388 . S
C1768 C1769 1.366 . S
C1769 C1768 1.366 . S
C1769 C1770 1.414 . S
C1769 C1772 1.499 . S
C1770 H1750 0.950 . S
C1770 C1769 1.414 . S
C1770 C1771 1.374 . S
C1771 H1751 0.950 . S
C1771 C1767 1.385 . S
C1771 C1770 1.374 . S
C1772 C1769 1.499 . S
C1772 C1773 1.373 . S
C1772 C1774 1.389 . S
C1773 H1752 0.950 . S
C1773 C1772 1.373 . S
C1773 C1789 1.377 . S
C1774 C1772 1.389 . S
C1774 C1775 1.524 . S
C1774 C1788 1.377 . S
C1775 C1774 1.524 . S
C1775 C1776 1.397 . S
C1775 C1780 1.363 . S
C1776 H1753 0.950 . S
C1776 C1775 1.397 . S
C1776 C1777 1.334 . S
C1777 H1754 0.950 . S
C1777 C1776 1.334 . S
C1777 C1778 1.287 . S
C1778 C1777 1.287 . S
C1778 C1779 1.524 . S
C1778 H1797 0.913 . S
C1779 H1755 0.950 . S
C1779 C1778 1.524 . S
C1779 C1780 1.415 . S
C1780 H1756 0.950 . S
C1780 C1775 1.363 . S
C1780 C1779 1.415 . S
C1781 H1757 0.951 . S
C1781 C1782 1.366 . S
C1781 C1783 1.388 . S
C1782 C1781 1.366 . S
C1782 C1786 1.385 . S
C1783 H1758 0.951 . S
C1783 C1781 1.388 . S
C1783 C1784 1.366 . S
C1784 C1783 1.366 . S
C1784 C1785 1.414 . S
C1784 C1787 1.499 . S
C1785 H1759 0.950 . S
C1785 C1784 1.414 . S
C1785 C1786 1.374 . S
C1786 H1760 0.950 . S
C1786 C1782 1.385 . S
C1786 C1785 1.374 . S
C1787 C1784 1.499 . S
C1787 C1788 1.373 . S
C1787 C1789 1.389 . S
C1788 H1761 0.950 . S
C1788 C1774 1.377 . S
C1788 C1787 1.373 . S
C1789 C1773 1.377 . S
C1789 C1787 1.389 . S
C1789 C1790 1.524 . S
C1790 C1789 1.524 . S
C1790 C1791 1.397 . S
C1790 C1795 1.363 . S
C1791 H1762 0.950 . S
C1791 C1790 1.397 . S
C1791 C1792 1.334 . S
C1792 H1763 0.950 . S
C1792 C1791 1.334 . S
C1792 C1793 1.287 . S
C1793 C1792 1.287 . S
C1793 C1794 1.524 . S
C1793 H1796 0.999 . S
C1794 H1764 0.950 . S
C1794 C1793 1.524 . S
C1794 C1795 1.415 . S
C1795 H1765 0.950 . S
C1795 C1790 1.363 . S
C1795 C1794 1.415 . S
H1796 C1793 0.999 . S
H1797 C1778 0.913 . S
H1798 C1816 0.951 1_455 S
H1799 C1818 0.951 . S
H1800 C1820 0.950 . S
H1801 C1821 0.950 . S
H1802 C1823 0.950 . S
H1803 C1826 0.950 . S
H1804 C1827 0.950 1_455 S
H1805 C1829 0.950 . S
H1806 C1830 0.950 . S
H1807 C1831 0.951 . S
H1808 C1833 0.951 . S
H1809 C1835 0.950 . S
H1810 C1836 0.950 . S
H1811 C1838 0.950 . S
H1812 C1841 0.950 . S
H1813 C1842 0.950 . S
H1814 C1844 0.950 . S
H1815 C1845 0.950 . S
C1816 H1798 0.951 1_655 S
C1816 C1817 1.367 . S
C1816 C1818 1.388 . S
C1817 C1816 1.367 . S
C1817 C1821 1.408 . S
C1818 H1799 0.951 . S
C1818 C1816 1.388 . S
C1818 C1819 1.366 . S
C1819 C1818 1.366 . S
C1819 C1820 1.414 . S
C1819 C1822 1.499 . S
C1820 H1800 0.950 . S
C1820 C1819 1.414 . S
C1820 C1821 1.374 . S
C1821 H1801 0.950 . S
C1821 C1817 1.408 . S
C1821 C1820 1.374 . S
C1822 C1819 1.499 . S
C1822 C1823 1.373 . S
C1822 C1824 1.389 . S
C1823 H1802 0.950 . S
C1823 C1822 1.373 . S
C1823 C1839 1.377 . S
C1824 C1822 1.389 . S
C1824 C1825 1.524 . S
C1824 C1838 1.377 . S
C1825 C1824 1.524 . S
C1825 C1826 1.397 . S
C1825 C1830 1.363 . S
C1826 H1803 0.950 . S
C1826 C1825 1.397 . S
C1826 C1827 1.334 . S
C1827 H1804 0.950 1_655 S
C1827 C1826 1.334 . S
C1827 C1828 1.287 1_655 S
C1828 C1827 1.287 1_455 S
C1828 C1829 1.524 1_455 S
C1828 H1847 0.913 . S
C1829 H1805 0.950 . S
C1829 C1828 1.524 1_655 S
C1829 C1830 1.415 . S
C1830 H1806 0.950 . S
C1830 C1825 1.363 . S
C1830 C1829 1.415 . S
C1831 H1807 0.951 . S
C1831 C1832 1.366 . S
C1831 C1833 1.388 . S
C1832 C1831 1.366 . S
C1832 C1836 1.385 . S
C1833 H1808 0.951 . S
C1833 C1831 1.388 . S
C1833 C1834 1.366 . S
C1834 C1833 1.366 . S
C1834 C1835 1.414 . S
C1834 C1837 1.499 . S
C1835 H1809 0.950 . S
C1835 C1834 1.414 . S
C1835 C1836 1.374 . S
C1836 H1810 0.950 . S
C1836 C1832 1.385 . S
C1836 C1835 1.374 . S
C1837 C1834 1.499 . S
C1837 C1838 1.373 . S
C1837 C1839 1.389 . S
C1838 H1811 0.950 . S
C1838 C1824 1.377 . S
C1838 C1837 1.373 . S
C1839 C1823 1.377 . S
C1839 C1837 1.389 . S
C1839 C1840 1.524 . S
C1840 C1839 1.524 . S
C1840 C1841 1.397 . S
C1840 C1845 1.363 . S
C1841 H1812 0.950 . S
C1841 C1840 1.397 . S
C1841 C1842 1.334 . S
C1842 H1813 0.950 . S
C1842 C1841 1.334 . S
C1842 C1843 1.287 . S
C1843 C1842 1.287 . S
C1843 C1844 1.524 . S
C1843 H1846 0.999 . S
C1844 H1814 0.950 . S
C1844 C1843 1.524 . S
C1844 C1845 1.415 . S
C1845 H1815 0.950 . S
C1845 C1840 1.363 . S
C1845 C1844 1.415 . S
H1846 C1843 0.999 . S
H1847 C1828 0.913 . S
H1848 C1866 0.951 . S
H1849 C1868 0.951 . S
H1850 C1870 0.950 . S
H1851 C1871 0.950 . S
H1852 C1873 0.950 . S
H1853 C1876 0.950 . S
H1854 C1877 0.950 . S
H1855 C1879 0.950 . S
H1856 C1880 0.950 . S
H1857 C1881 0.951 . S
H1858 C1883 0.951 . S
H1859 C1885 0.950 . S
H1860 C1886 0.950 . S
H1861 C1888 0.950 . S
H1862 C1891 0.950 . S
H1863 C1892 0.950 . S
H1864 C1894 0.950 . S
H1865 C1895 0.950 . S
C1866 H1848 0.951 . S
C1866 C1867 1.366 . S
C1866 C1868 1.388 . S
C1867 C1866 1.366 . S
C1867 C1871 1.385 . S
C1868 H1849 0.951 . S
C1868 C1866 1.388 . S
C1868 C1869 1.366 . S
C1869 C1868 1.366 . S
C1869 C1870 1.414 . S
C1869 C1872 1.499 . S
C1870 H1850 0.950 . S
C1870 C1869 1.414 . S
C1870 C1871 1.374 . S
C1871 H1851 0.950 . S
C1871 C1867 1.385 . S
C1871 C1870 1.374 . S
C1872 C1869 1.499 . S
C1872 C1873 1.373 . S
C1872 C1874 1.389 . S
C1873 H1852 0.950 . S
C1873 C1872 1.373 . S
C1873 C1889 1.377 . S
C1874 C1872 1.389 . S
C1874 C1875 1.524 . S
C1874 C1888 1.377 . S
C1875 C1874 1.524 . S
C1875 C1876 1.397 . S
C1875 C1880 1.363 . S
C1876 H1853 0.950 . S
C1876 C1875 1.397 . S
C1876 C1877 1.334 . S
C1877 H1854 0.950 . S
C1877 C1876 1.334 . S
C1877 C1878 1.287 . S
C1878 C1877 1.287 . S
C1878 C1879 1.524 . S
C1878 H1897 0.913 . S
C1879 H1855 0.950 . S
C1879 C1878 1.524 . S
C1879 C1880 1.415 . S
C1880 H1856 0.950 . S
C1880 C1875 1.363 . S
C1880 C1879 1.415 . S
C1881 H1857 0.951 . S
C1881 C1882 1.366 . S
C1881 C1883 1.388 . S
C1882 C1881 1.366 . S
C1882 C1886 1.385 . S
C1883 H1858 0.951 . S
C1883 C1881 1.388 . S
C1883 C1884 1.366 . S
C1884 C1883 1.366 . S
C1884 C1885 1.414 . S
C1884 C1887 1.499 . S
C1885 H1859 0.950 . S
C1885 C1884 1.414 . S
C1885 C1886 1.374 . S
C1886 H1860 0.950 . S
C1886 C1882 1.385 . S
C1886 C1885 1.374 . S
C1887 C1884 1.499 . S
C1887 C1888 1.373 . S
C1887 C1889 1.389 . S
C1888 H1861 0.950 . S
C1888 C1874 1.377 . S
C1888 C1887 1.373 . S
C1889 C1873 1.377 . S
C1889 C1887 1.389 . S
C1889 C1890 1.524 . S
C1890 C1889 1.524 . S
C1890 C1891 1.397 . S
C1890 C1895 1.363 . S
C1891 H1862 0.950 . S
C1891 C1890 1.397 . S
C1891 C1892 1.334 . S
C1892 H1863 0.950 . S
C1892 C1891 1.334 . S
C1892 C1893 1.287 . S
C1893 C1892 1.287 . S
C1893 C1894 1.524 . S
C1893 H1896 0.999 . S
C1894 H1864 0.950 . S
C1894 C1893 1.524 . S
C1894 C1895 1.415 . S
C1895 H1865 0.950 . S
C1895 C1890 1.363 . S
C1895 C1894 1.415 . S
H1896 C1893 0.999 . S
H1897 C1878 0.913 . S
H1898 C1916 0.951 . S
H1899 C1918 0.951 . S
H1900 C1920 0.950 . S
H1901 C1921 0.950 1_455 S
H1902 C1923 0.950 . S
H1903 C1926 0.950 . S
H1904 C1927 0.950 . S
H1905 C1929 0.950 . S
H1906 C1930 0.950 . S
H1907 C1931 0.951 . S
H1908 C1933 0.951 . S
H1909 C1935 0.950 . S
H1910 C1936 0.950 . S
H1911 C1938 0.950 . S
H1912 C1941 0.950 . S
H1913 C1942 0.950 . S
H1914 C1944 0.950 . S
H1915 C1945 0.950 . S
C1916 H1898 0.951 . S
C1916 C1917 1.382 . S
C1916 C1918 1.388 . S
C1917 C1916 1.382 . S
C1917 C1921 1.391 . S
C1918 H1899 0.951 . S
C1918 C1916 1.388 . S
C1918 C1919 1.366 . S
C1919 C1918 1.366 . S
C1919 C1920 1.414 . S
C1919 C1922 1.499 . S
C1920 H1900 0.950 . S
C1920 C1919 1.414 . S
C1920 C1921 1.374 . S
C1921 H1901 0.950 1_655 S
C1921 C1917 1.391 . S
C1921 C1920 1.374 . S
C1922 C1919 1.499 . S
C1922 C1923 1.373 . S
C1922 C1924 1.389 . S
C1923 H1902 0.950 . S
C1923 C1922 1.373 . S
C1923 C1939 1.377 . S
C1924 C1922 1.389 . S
C1924 C1925 1.524 . S
C1924 C1938 1.377 . S
C1925 C1924 1.524 . S
C1925 C1926 1.397 . S
C1925 C1930 1.363 . S
C1926 H1903 0.950 . S
C1926 C1925 1.397 . S
C1926 C1927 1.334 . S
C1927 H1904 0.950 . S
C1927 C1926 1.334 . S
C1927 C1928 1.287 . S
C1928 C1927 1.287 . S
C1928 C1929 1.524 . S
C1928 H1947 0.913 . S
C1929 H1905 0.950 . S
C1929 C1928 1.524 . S
C1929 C1930 1.415 . S
C1930 H1906 0.950 . S
C1930 C1925 1.363 . S
C1930 C1929 1.415 . S
C1931 H1907 0.951 . S
C1931 C1932 1.366 . S
C1931 C1933 1.388 . S
C1932 C1931 1.366 . S
C1932 C1936 1.385 . S
C1933 H1908 0.951 . S
C1933 C1931 1.388 . S
C1933 C1934 1.366 . S
C1934 C1933 1.366 . S
C1934 C1935 1.414 . S
C1934 C1937 1.499 . S
C1935 H1909 0.950 . S
C1935 C1934 1.414 . S
C1935 C1936 1.374 . S
C1936 H1910 0.950 . S
C1936 C1932 1.385 . S
C1936 C1935 1.374 . S
C1937 C1934 1.499 . S
C1937 C1938 1.373 . S
C1937 C1939 1.389 . S
C1938 H1911 0.950 . S
C1938 C1924 1.377 . S
C1938 C1937 1.373 . S
C1939 C1923 1.377 . S
C1939 C1937 1.389 . S
C1939 C1940 1.524 . S
C1940 C1939 1.524 . S
C1940 C1941 1.397 . S
C1940 C1945 1.363 . S
C1941 H1912 0.950 . S
C1941 C1940 1.397 . S
C1941 C1942 1.334 . S
C1942 H1913 0.950 . S
C1942 C1941 1.334 . S
C1942 C1943 1.287 . S
C1943 C1942 1.287 . S
C1943 C1944 1.524 . S
C1943 H1946 0.999 . S
C1944 H1914 0.950 . S
C1944 C1943 1.524 . S
C1944 C1945 1.415 . S
C1945 H1915 0.950 . S
C1945 C1940 1.363 . S
C1945 C1944 1.415 . S
H1946 C1943 0.999 . S
H1947 C1928 0.913 . S
H1948 C1966 0.951 . S
H1949 C1968 0.951 . S
H1950 C1970 0.950 . S
H1951 C1971 0.950 . S
H1952 C1973 0.950 . S
H1953 C1976 0.950 . S
H1954 C1977 0.950 . S
H1955 C1979 0.950 . S
H1956 C1980 0.950 . S
H1957 C1981 0.951 . S
H1958 C1983 0.951 . S
H1959 C1985 0.950 . S
H1960 C1986 0.950 . S
H1961 C1988 0.950 . S
H1962 C1991 0.950 . S
H1963 C1992 0.950 . S
H1964 C1994 0.950 . S
H1965 C1995 0.950 . S
C1966 H1948 0.951 . S
C1966 C1967 1.366 . S
C1966 C1968 1.388 . S
C1967 C1966 1.366 . S
C1967 C1971 1.385 . S
C1968 H1949 0.951 . S
C1968 C1966 1.388 . S
C1968 C1969 1.366 . S
C1969 C1968 1.366 . S
C1969 C1970 1.414 . S
C1969 C1972 1.499 . S
C1970 H1950 0.950 . S
C1970 C1969 1.414 . S
C1970 C1971 1.374 . S
C1971 H1951 0.950 . S
C1971 C1967 1.385 . S
C1971 C1970 1.374 . S
C1972 C1969 1.499 . S
C1972 C1973 1.373 . S
C1972 C1974 1.389 . S
C1973 H1952 0.950 . S
C1973 C1972 1.373 . S
C1973 C1989 1.377 . S
C1974 C1972 1.389 . S
C1974 C1975 1.524 . S
C1974 C1988 1.377 . S
C1975 C1974 1.524 . S
C1975 C1976 1.397 . S
C1975 C1980 1.363 . S
C1976 H1953 0.950 . S
C1976 C1975 1.397 . S
C1976 C1977 1.334 . S
C1977 H1954 0.950 . S
C1977 C1976 1.334 . S
C1977 C1978 1.287 . S
C1978 C1977 1.287 . S
C1978 C1979 1.524 . S
C1978 H1997 0.913 . S
C1979 H1955 0.950 . S
C1979 C1978 1.524 . S
C1979 C1980 1.415 . S
C1980 H1956 0.950 . S
C1980 C1975 1.363 . S
C1980 C1979 1.415 . S
C1981 H1957 0.951 . S
C1981 C1982 1.366 . S
C1981 C1983 1.388 . S
C1982 C1981 1.366 . S
C1982 C1986 1.385 . S
C1983 H1958 0.951 . S
C1983 C1981 1.388 . S
C1983 C1984 1.366 . S
C1984 C1983 1.366 . S
C1984 C1985 1.414 . S
C1984 C1987 1.499 . S
C1985 H1959 0.950 . S
C1985 C1984 1.414 . S
C1985 C1986 1.374 . S
C1986 H1960 0.950 . S
C1986 C1982 1.385 . S
C1986 C1985 1.374 . S
C1987 C1984 1.499 . S
C1987 C1988 1.373 . S
C1987 C1989 1.389 . S
C1988 H1961 0.950 . S
C1988 C1974 1.377 . S
C1988 C1987 1.373 . S
C1989 C1973 1.377 . S
C1989 C1987 1.389 . S
C1989 C1990 1.524 . S
C1990 C1989 1.524 . S
C1990 C1991 1.397 . S
C1990 C1995 1.363 . S
C1991 H1962 0.950 . S
C1991 C1990 1.397 . S
C1991 C1992 1.334 . S
C1992 H1963 0.950 . S
C1992 C1991 1.334 . S
C1992 C1993 1.287 . S
C1993 C1992 1.287 . S
C1993 C1994 1.524 . S
C1993 H1996 0.999 . S
C1994 H1964 0.950 . S
C1994 C1993 1.524 . S
C1994 C1995 1.415 . S
C1995 H1965 0.950 . S
C1995 C1990 1.363 . S
C1995 C1994 1.415 . S
H1996 C1993 0.999 . S
H1997 C1978 0.913 . S
H1998 C2016 0.951 . S
H1999 C2018 0.951 . S
H2000 C2020 0.950 . S
H2001 C2021 0.950 . S
H2002 C2023 0.950 . S
H2003 C2026 0.950 . S
H2004 C2027 0.950 . S
H2005 C2029 0.950 . S
H2006 C2030 0.950 . S
H2007 C2031 0.951 . S
H2008 C2033 0.951 . S
H2009 C2035 0.950 . S
H2010 C2036 0.950 . S
H2011 C2038 0.950 . S
H2012 C2041 0.950 . S
H2013 C2042 0.950 . S
H2014 C2044 0.950 . S
H2015 C2045 0.950 . S
C2016 H1998 0.951 . S
C2016 C2017 1.366 . S
C2016 C2018 1.388 . S
C2017 C2016 1.366 . S
C2017 C2021 1.385 . S
C2018 H1999 0.951 . S
C2018 C2016 1.388 . S
C2018 C2019 1.366 . S
C2019 C2018 1.366 . S
C2019 C2020 1.414 . S
C2019 C2022 1.499 . S
C2020 H2000 0.950 . S
C2020 C2019 1.414 . S
C2020 C2021 1.374 . S
C2021 H2001 0.950 . S
C2021 C2017 1.385 . S
C2021 C2020 1.374 . S
C2022 C2019 1.499 . S
C2022 C2023 1.373 . S
C2022 C2024 1.389 . S
C2023 H2002 0.950 . S
C2023 C2022 1.373 . S
C2023 C2039 1.377 . S
C2024 C2022 1.389 . S
C2024 C2025 1.524 . S
C2024 C2038 1.377 . S
C2025 C2024 1.524 . S
C2025 C2026 1.397 . S
C2025 C2030 1.363 . S
C2026 H2003 0.950 . S
C2026 C2025 1.397 . S
C2026 C2027 1.334 . S
C2027 H2004 0.950 . S
C2027 C2026 1.334 . S
C2027 C2028 1.287 . S
C2028 C2027 1.287 . S
C2028 C2029 1.524 . S
C2028 H2047 0.913 . S
C2029 H2005 0.950 . S
C2029 C2028 1.524 . S
C2029 C2030 1.415 . S
C2030 H2006 0.950 . S
C2030 C2025 1.363 . S
C2030 C2029 1.415 . S
C2031 H2007 0.951 . S
C2031 C2032 1.366 . S
C2031 C2033 1.388 . S
C2032 C2031 1.366 . S
C2032 C2036 1.385 . S
C2033 H2008 0.951 . S
C2033 C2031 1.388 . S
C2033 C2034 1.366 . S
C2034 C2033 1.366 . S
C2034 C2035 1.414 . S
C2034 C2037 1.499 . S
C2035 H2009 0.950 . S
C2035 C2034 1.414 . S
C2035 C2036 1.374 . S
C2036 H2010 0.950 . S
C2036 C2032 1.385 . S
C2036 C2035 1.374 . S
C2037 C2034 1.499 . S
C2037 C2038 1.373 . S
C2037 C2039 1.389 . S
C2038 H2011 0.950 . S
C2038 C2024 1.377 . S
C2038 C2037 1.373 . S
C2039 C2023 1.377 . S
C2039 C2037 1.389 . S
C2039 C2040 1.524 . S
C2040 C2039 1.524 . S
C2040 C2041 1.397 . S
C2040 C2045 1.363 . S
C2041 H2012 0.950 . S
C2041 C2040 1.397 . S
C2041 C2042 1.334 . S
C2042 H2013 0.950 . S
C2042 C2041 1.334 . S
C2042 C2043 1.287 . S
C2043 C2042 1.287 . S
C2043 C2044 1.524 . S
C2043 H2046 0.999 . S
C2044 H2014 0.950 . S
C2044 C2043 1.524 . S
C2044 C2045 1.415 . S
C2045 H2015 0.950 . S
C2045 C2040 1.363 . S
C2045 C2044 1.415 . S
H2046 C2043 0.999 . S
H2047 C2028 0.913 . S
H2048 C2066 0.951 . S
H2049 C2068 0.951 . S
H2050 C2070 0.950 . S
H2051 C2071 0.950 . S
H2052 C2073 0.950 . S
H2053 C2076 0.950 . S
H2054 C2077 0.950 . S
H2055 C2079 0.950 . S
H2056 C2080 0.950 . S
H2057 C2081 0.951 . S
H2058 C2083 0.951 . S
H2059 C2085 0.950 . S
H2060 C2086 0.950 . S
H2061 C2088 0.950 . S
H2062 C2091 0.950 . S
H2063 C2092 0.950 . S
H2064 C2094 0.950 . S
H2065 C2095 0.950 . S
C2066 H2048 0.951 . S
C2066 C2067 1.366 . S
C2066 C2068 1.388 . S
C2067 C2066 1.366 . S
C2067 C2071 1.385 . S
C2068 H2049 0.951 . S
C2068 C2066 1.388 . S
C2068 C2069 1.366 . S
C2069 C2068 1.366 . S
C2069 C2070 1.414 . S
C2069 C2072 1.499 . S
C2070 H2050 0.950 . S
C2070 C2069 1.414 . S
C2070 C2071 1.374 . S
C2071 H2051 0.950 . S
C2071 C2067 1.385 . S
C2071 C2070 1.374 . S
C2072 C2069 1.499 . S
C2072 C2073 1.373 . S
C2072 C2074 1.389 . S
C2073 H2052 0.950 . S
C2073 C2072 1.373 . S
C2073 C2089 1.377 . S
C2074 C2072 1.389 . S
C2074 C2075 1.524 . S
C2074 C2088 1.377 . S
C2075 C2074 1.524 . S
C2075 C2076 1.397 . S
C2075 C2080 1.363 . S
C2076 H2053 0.950 . S
C2076 C2075 1.397 . S
C2076 C2077 1.334 . S
C2077 H2054 0.950 . S
C2077 C2076 1.334 . S
C2077 C2078 1.287 . S
C2078 C2077 1.287 . S
C2078 C2079 1.524 . S
C2078 H2097 0.913 . S
C2079 H2055 0.950 . S
C2079 C2078 1.524 . S
C2079 C2080 1.415 . S
C2080 H2056 0.950 . S
C2080 C2075 1.363 . S
C2080 C2079 1.415 . S
C2081 H2057 0.951 . S
C2081 C2082 1.366 . S
C2081 C2083 1.388 . S
C2082 C2081 1.366 . S
C2082 C2086 1.385 . S
C2083 H2058 0.951 . S
C2083 C2081 1.388 . S
C2083 C2084 1.366 . S
C2084 C2083 1.366 . S
C2084 C2085 1.414 . S
C2084 C2087 1.499 . S
C2085 H2059 0.950 . S
C2085 C2084 1.414 . S
C2085 C2086 1.374 . S
C2086 H2060 0.950 . S
C2086 C2082 1.385 . S
C2086 C2085 1.374 . S
C2087 C2084 1.499 . S
C2087 C2088 1.373 . S
C2087 C2089 1.389 . S
C2088 H2061 0.950 . S
C2088 C2074 1.377 . S
C2088 C2087 1.373 . S
C2089 C2073 1.377 . S
C2089 C2087 1.389 . S
C2089 C2090 1.524 . S
C2090 C2089 1.524 . S
C2090 C2091 1.397 . S
C2090 C2095 1.363 . S
C2091 H2062 0.950 . S
C2091 C2090 1.397 . S
C2091 C2092 1.334 . S
C2092 H2063 0.950 . S
C2092 C2091 1.334 . S
C2092 C2093 1.287 . S
C2093 C2092 1.287 . S
C2093 C2094 1.524 . S
C2093 H2096 0.999 . S
C2094 H2064 0.950 . S
C2094 C2093 1.524 . S
C2094 C2095 1.415 . S
C2095 H2065 0.950 . S
C2095 C2090 1.363 . S
C2095 C2094 1.415 . S
H2096 C2093 0.999 . S
H2097 C2078 0.913 . S
H2098 C2116 0.951 1_545 S
H2099 C2118 0.954 1_545 S
H2100 C2120 0.950 . S
H2101 C2121 0.950 . S
H2102 C2123 0.950 . S
H2103 C2126 0.950 . S
H2104 C2127 0.950 . S
H2105 C2129 0.950 . S
H2106 C2130 0.950 . S
H2107 C2131 0.951 . S
H2108 C2133 0.951 . S
H2109 C2135 0.950 . S
H2110 C2136 0.950 . S
H2111 C2138 0.955 . S
H2112 C2141 0.950 . S
H2113 C2142 0.950 . S
H2114 C2144 0.950 . S
H2115 C2145 0.950 . S
C2116 H2098 0.951 1_565 S
C2116 C2117 1.366 . S
C2116 C2118 1.387 . S
C2117 C2116 1.366 . S
C2117 C2121 1.385 . S
C2118 H2099 0.954 1_565 S
C2118 C2116 1.387 . S
C2118 C2119 1.363 . S
C2119 C2118 1.363 . S
C2119 C2120 1.414 . S
C2119 C2122 1.499 . S
C2120 H2100 0.950 . S
C2120 C2119 1.414 . S
C2120 C2121 1.374 . S
C2121 H2101 0.950 . S
C2121 C2117 1.385 . S
C2121 C2120 1.374 . S
C2122 C2119 1.499 . S
C2122 C2123 1.373 . S
C2122 C2124 1.389 1_455 S
C2123 H2102 0.950 . S
C2123 C2122 1.373 . S
C2123 C2139 1.377 . S
C2124 C2122 1.389 1_655 S
C2124 C2125 1.524 . S
C2124 C2138 1.372 1_565 S
C2125 C2124 1.524 . S
C2125 C2126 1.397 . S
C2125 C2130 1.363 1_565 S
C2126 H2103 0.950 . S
C2126 C2125 1.397 . S
C2126 C2127 1.334 . S
C2127 H2104 0.950 . S
C2127 C2126 1.334 . S
C2127 C2128 1.287 . S
C2128 C2127 1.287 . S
C2128 C2129 1.524 1_565 S
C2128 H2147 0.913 . S
C2129 H2105 0.950 . S
C2129 C2128 1.524 1_545 S
C2129 C2130 1.415 . S
C2130 H2106 0.950 . S
C2130 C2125 1.363 1_545 S
C2130 C2129 1.415 . S
C2131 H2107 0.951 . S
C2131 C2132 1.366 1_565 S
C2131 C2133 1.388 . S
C2132 C2131 1.366 1_545 S
C2132 C2136 1.385 . S
C2133 H2108 0.951 . S
C2133 C2131 1.388 . S
C2133 C2134 1.366 1_565 S
C2134 C2133 1.366 1_545 S
C2134 C2135 1.414 . S
C2134 C2137 1.500 . S
C2135 H2109 0.950 . S
C2135 C2134 1.414 . S
C2135 C2136 1.374 . S
C2136 H2110 0.950 . S
C2136 C2132 1.385 . S
C2136 C2135 1.374 . S
C2137 C2134 1.500 . S
C2137 C2138 1.373 . S
C2137 C2139 1.387 1_645 S
C2138 H2111 0.955 . S
C2138 C2124 1.372 1_545 S
C2138 C2137 1.373 . S
C2139 C2123 1.377 . S
C2139 C2137 1.387 1_465 S
C2139 C2140 1.524 . S
C2140 C2139 1.524 . S
C2140 C2141 1.397 1_565 S
C2140 C2145 1.363 . S
C2141 H2112 0.950 . S
C2141 C2140 1.397 1_545 S
C2141 C2142 1.334 . S
C2142 H2113 0.950 . S
C2142 C2141 1.334 . S
C2142 C2143 1.287 . S
C2143 C2142 1.287 . S
C2143 C2144 1.524 1_545 S
C2143 H2146 0.999 . S
C2144 H2114 0.950 . S
C2144 C2143 1.524 1_565 S
C2144 C2145 1.415 . S
C2145 H2115 0.950 . S
C2145 C2140 1.363 . S
C2145 C2144 1.415 . S
H2146 C2143 0.999 . S
H2147 C2128 0.913 . S
H2148 C2166 0.951 . S
H2149 C2168 0.951 . S
H2150 C2170 0.950 . S
H2151 C2171 0.950 . S
H2152 C2173 0.950 . S
H2153 C2176 0.950 . S
H2154 C2177 0.950 . S
H2155 C2179 0.950 . S
H2156 C2180 0.950 . S
H2157 C2181 0.951 . S
H2158 C2183 0.951 . S
H2159 C2185 0.950 . S
H2160 C2186 0.950 . S
H2161 C2188 0.950 . S
H2162 C2191 0.950 . S
H2163 C2192 0.950 . S
H2164 C2194 0.950 . S
H2165 C2195 0.950 . S
C2166 H2148 0.951 . S
C2166 C2167 1.366 . S
C2166 C2168 1.388 . S
C2167 C2166 1.366 . S
C2167 C2171 1.385 . S
C2168 H2149 0.951 . S
C2168 C2166 1.388 . S
C2168 C2169 1.366 . S
C2169 C2168 1.366 . S
C2169 C2170 1.414 . S
C2169 C2172 1.499 . S
C2170 H2150 0.950 . S
C2170 C2169 1.414 . S
C2170 C2171 1.374 . S
C2171 H2151 0.950 . S
C2171 C2167 1.385 . S
C2171 C2170 1.374 . S
C2172 C2169 1.499 . S
C2172 C2173 1.373 . S
C2172 C2174 1.389 . S
C2173 H2152 0.950 . S
C2173 C2172 1.373 . S
C2173 C2189 1.377 . S
C2174 C2172 1.389 . S
C2174 C2175 1.524 . S
C2174 C2188 1.377 . S
C2175 C2174 1.524 . S
C2175 C2176 1.397 . S
C2175 C2180 1.363 . S
C2176 H2153 0.950 . S
C2176 C2175 1.397 . S
C2176 C2177 1.334 . S
C2177 H2154 0.950 . S
C2177 C2176 1.334 . S
C2177 C2178 1.287 . S
C2178 C2177 1.287 . S
C2178 C2179 1.524 . S
C2178 H2197 0.913 . S
C2179 H2155 0.950 . S
C2179 C2178 1.524 . S
C2179 C2180 1.415 . S
C2180 H2156 0.950 . S
C2180 C2175 1.363 . S
C2180 C2179 1.415 . S
C2181 H2157 0.951 . S
C2181 C2182 1.366 . S
C2181 C2183 1.388 . S
C2182 C2181 1.366 . S
C2182 C2186 1.385 . S
C2183 H2158 0.951 . S
C2183 C2181 1.388 . S
C2183 C2184 1.366 . S
C2184 C2183 1.366 . S
C2184 C2185 1.414 . S
C2184 C2187 1.499 . S
C2185 H2159 0.950 . S
C2185 C2184 1.414 . S
C2185 C2186 1.374 . S
C2186 H2160 0.950 . S
C2186 C2182 1.385 . S
C2186 C2185 1.374 . S
C2187 C2184 1.499 . S
C2187 C2188 1.373 . S
C2187 C2189 1.389 . S
C2188 H2161 0.950 . S
C2188 C2174 1.377 . S
C2188 C2187 1.373 . S
C2189 C2173 1.377 . S
C2189 C2187 1.389 . S
C2189 C2190 1.524 . S
C2190 C2189 1.524 . S
C2190 C2191 1.397 . S
C2190 C2195 1.363 . S
C2191 H2162 0.950 . S
C2191 C2190 1.397 . S
C2191 C2192 1.334 . S
C2192 H2163 0.950 . S
C2192 C2191 1.334 . S
C2192 C2193 1.287 . S
C2193 C2192 1.287 . S
C2193 C2194 1.524 . S
C2193 H2196 0.999 . S
C2194 H2164 0.950 . S
C2194 C2193 1.524 . S
C2194 C2195 1.415 . S
C2195 H2165 0.950 . S
C2195 C2190 1.363 . S
C2195 C2194 1.415 . S
H2196 C2193 0.999 . S
H2197 C2178 0.913 . S
H2198 C2216 0.951 . S
H2199 C2218 0.951 . S
H2200 C2220 0.919 1_565 S
H2201 C2221 0.950 1_565 S
H2202 C2223 0.950 . S
H2203 C2226 0.950 . S
H2204 C2227 0.950 . S
H2205 C2229 0.950 . S
H2206 C2230 0.950 . S
H2207 C2231 0.951 . S
H2208 C2233 0.951 . S
H2209 C2235 0.950 . S
H2210 C2236 0.950 . S
H2211 C2238 0.950 . S
H2212 C2241 0.950 . S
H2213 C2242 0.950 . S
H2214 C2244 0.950 . S
H2215 C2245 0.931 1_554 S
C2216 H2198 0.951 . S
C2216 C2217 1.366 . S
C2216 C2218 1.388 . S
C2217 C2216 1.366 . S
C2217 C2221 1.385 . S
C2218 H2199 0.951 . S
C2218 C2216 1.388 . S
C2218 C2219 1.366 . S
C2219 C2218 1.366 . S
C2219 C2220 1.439 . S
C2219 C2222 1.499 . S
C2220 H2200 0.919 1_545 S
C2220 C2219 1.439 . S
C2220 C2221 1.382 . S
C2221 H2201 0.950 1_545 S
C2221 C2217 1.385 . S
C2221 C2220 1.382 . S
C2222 C2219 1.499 . S
C2222 C2223 1.373 1_545 S
C2222 C2224 1.389 . S
C2223 H2202 0.950 . S
C2223 C2222 1.373 1_565 S
C2223 C2239 1.377 1_554 S
C2224 C2222 1.389 . S
C2224 C2225 1.524 . S
C2224 C2238 1.377 1_554 S
C2225 C2224 1.524 . S
C2225 C2226 1.397 . S
C2225 C2230 1.363 . S
C2226 H2203 0.950 . S
C2226 C2225 1.397 . S
C2226 C2227 1.334 . S
C2227 H2204 0.950 . S
C2227 C2226 1.334 . S
C2227 C2228 1.287 . S
C2228 C2227 1.287 . S
C2228 C2229 1.524 . S
C2228 H2247 0.913 . S
C2229 H2205 0.950 . S
C2229 C2228 1.524 . S
C2229 C2230 1.415 . S
C2230 H2206 0.950 . S
C2230 C2225 1.363 . S
C2230 C2229 1.415 . S
C2231 H2207 0.951 . S
C2231 C2232 1.366 . S
C2231 C2233 1.388 . S
C2232 C2231 1.366 . S
C2232 C2236 1.385 1_565 S
C2233 H2208 0.951 . S
C2233 C2231 1.388 . S
C2233 C2234 1.366 . S
C2234 C2233 1.366 . S
C2234 C2235 1.414 1_565 S
C2234 C2237 1.491 1_565 S
C2235 H2209 0.950 . S
C2235 C2234 1.414 1_545 S
C2235 C2236 1.374 . S
C2236 H2210 0.950 . S
C2236 C2232 1.385 1_545 S
C2236 C2235 1.374 . S
C2237 C2234 1.491 1_545 S
C2237 C2238 1.413 . S
C2237 C2239 1.359 1_545 S
C2238 H2211 0.950 . S
C2238 C2224 1.377 1_556 S
C2238 C2237 1.413 . S
C2239 C2223 1.377 1_556 S
C2239 C2237 1.359 1_565 S
C2239 C2240 1.524 . S
C2240 C2239 1.524 . S
C2240 C2241 1.397 . S
C2240 C2245 1.379 . S
C2241 H2212 0.950 . S
C2241 C2240 1.397 . S
C2241 C2242 1.334 . S
C2242 H2213 0.950 . S
C2242 C2241 1.334 . S
C2242 C2243 1.287 . S
C2243 C2242 1.287 . S
C2243 C2244 1.524 . S
C2243 H2246 0.999 . S
C2244 H2214 0.950 . S
C2244 C2243 1.524 . S
C2244 C2245 1.424 . S
C2245 H2215 0.931 1_556 S
C2245 C2240 1.379 . S
C2245 C2244 1.424 . S
H2246 C2243 0.999 . S
H2247 C2228 0.913 . S
H2248 C2266 0.951 . S
H2249 C2268 0.951 . S
H2250 C2270 0.950 . S
H2251 C2271 0.950 . S
H2252 C2273 0.950 . S
H2253 C2276 0.950 . S
H2254 C2277 0.950 . S
H2255 C2279 0.950 . S
H2256 C2280 0.950 . S
H2257 C2281 0.951 . S
H2258 C2283 0.951 . S
H2259 C2285 0.950 . S
H2260 C2286 0.950 . S
H2261 C2288 0.950 . S
H2262 C2291 0.950 . S
H2263 C2292 0.950 . S
H2264 C2294 0.950 . S
H2265 C2295 0.950 . S
C2266 H2248 0.951 . S
C2266 C2267 1.366 . S
C2266 C2268 1.388 . S
C2267 C2266 1.366 . S
C2267 C2271 1.385 . S
C2268 H2249 0.951 . S
C2268 C2266 1.388 . S
C2268 C2269 1.366 . S
C2269 C2268 1.366 . S
C2269 C2270 1.414 . S
C2269 C2272 1.499 . S
C2270 H2250 0.950 . S
C2270 C2269 1.414 . S
C2270 C2271 1.374 . S
C2271 H2251 0.950 . S
C2271 C2267 1.385 . S
C2271 C2270 1.374 . S
C2272 C2269 1.499 . S
C2272 C2273 1.373 . S
C2272 C2274 1.389 . S
C2273 H2252 0.950 . S
C2273 C2272 1.373 . S
C2273 C2289 1.377 . S
C2274 C2272 1.389 . S
C2274 C2275 1.524 . S
C2274 C2288 1.377 . S
C2275 C2274 1.524 . S
C2275 C2276 1.397 . S
C2275 C2280 1.363 . S
C2276 H2253 0.950 . S
C2276 C2275 1.397 . S
C2276 C2277 1.334 . S
C2277 H2254 0.950 . S
C2277 C2276 1.334 . S
C2277 C2278 1.287 . S
C2278 C2277 1.287 . S
C2278 C2279 1.524 . S
C2278 H2297 0.913 . S
C2279 H2255 0.950 . S
C2279 C2278 1.524 . S
C2279 C2280 1.415 . S
C2280 H2256 0.950 . S
C2280 C2275 1.363 . S
C2280 C2279 1.415 . S
C2281 H2257 0.951 . S
C2281 C2282 1.366 . S
C2281 C2283 1.388 . S
C2282 C2281 1.366 . S
C2282 C2286 1.385 . S
C2283 H2258 0.951 . S
C2283 C2281 1.388 . S
C2283 C2284 1.366 . S
C2284 C2283 1.366 . S
C2284 C2285 1.414 . S
C2284 C2287 1.499 . S
C2285 H2259 0.950 . S
C2285 C2284 1.414 . S
C2285 C2286 1.374 . S
C2286 H2260 0.950 . S
C2286 C2282 1.385 . S
C2286 C2285 1.374 . S
C2287 C2284 1.499 . S
C2287 C2288 1.373 . S
C2287 C2289 1.389 . S
C2288 H2261 0.950 . S
C2288 C2274 1.377 . S
C2288 C2287 1.373 . S
C2289 C2273 1.377 . S
C2289 C2287 1.389 . S
C2289 C2290 1.524 . S
C2290 C2289 1.524 . S
C2290 C2291 1.397 . S
C2290 C2295 1.363 . S
C2291 H2262 0.950 . S
C2291 C2290 1.397 . S
C2291 C2292 1.334 . S
C2292 H2263 0.950 . S
C2292 C2291 1.334 . S
C2292 C2293 1.287 . S
C2293 C2292 1.287 . S
C2293 C2294 1.524 . S
C2293 H2296 0.999 . S
C2294 H2264 0.950 . S
C2294 C2293 1.524 . S
C2294 C2295 1.415 . S
C2295 H2265 0.950 . S
C2295 C2290 1.363 . S
C2295 C2294 1.415 . S
H2296 C2293 0.999 . S
H2297 C2278 0.913 . S
H2298 C2316 0.951 . S
H2299 C2318 0.951 1_545 S
H2300 C2320 0.950 . S
H2301 C2321 0.950 . S
H2302 C2323 0.950 . S
H2303 C2326 0.950 . S
H2304 C2327 0.950 . S
H2305 C2329 0.950 . S
H2306 C2330 0.950 1_545 S
H2307 C2331 0.951 . S
H2308 C2333 0.951 . S
H2309 C2335 0.950 . S
H2310 C2336 0.950 . S
H2311 C2338 0.950 . S
H2312 C2341 0.950 . S
H2313 C2342 0.950 . S
H2314 C2344 0.950 . S
H2315 C2345 0.950 1_565 S
C2316 H2298 0.951 . S
C2316 C2317 1.366 . S
C2316 C2318 1.388 . S
C2317 C2316 1.366 . S
C2317 C2321 1.385 . S
C2318 H2299 0.951 1_565 S
C2318 C2316 1.388 . S
C2318 C2319 1.366 . S
C2319 C2318 1.366 . S
C2319 C2320 1.414 . S
C2319 C2322 1.499 . S
C2320 H2300 0.950 . S
C2320 C2319 1.414 . S
C2320 C2321 1.374 . S
C2321 H2301 0.950 . S
C2321 C2317 1.385 . S
C2321 C2320 1.374 . S
C2322 C2319 1.499 . S
C2322 C2323 1.373 . S
C2322 C2324 1.389 . S
C2323 H2302 0.950 . S
C2323 C2322 1.373 . S
C2323 C2339 1.377 1_565 S
C2324 C2322 1.389 . S
C2324 C2325 1.524 . S
C2324 C2338 1.377 . S
C2325 C2324 1.524 . S
C2325 C2326 1.397 . S
C2325 C2330 1.363 . S
C2326 H2303 0.950 . S
C2326 C2325 1.397 . S
C2326 C2327 1.334 . S
C2327 H2304 0.950 . S
C2327 C2326 1.334 . S
C2327 C2328 1.287 . S
C2328 C2327 1.287 . S
C2328 C2329 1.524 . S
C2328 H2347 0.913 . S
C2329 H2305 0.950 . S
C2329 C2328 1.524 . S
C2329 C2330 1.415 . S
C2330 H2306 0.950 1_565 S
C2330 C2325 1.363 . S
C2330 C2329 1.415 . S
C2331 H2307 0.951 . S
C2331 C2332 1.366 1_565 S
C2331 C2333 1.388 . S
C2332 C2331 1.366 1_545 S
C2332 C2336 1.385 . S
C2333 H2308 0.951 . S
C2333 C2331 1.388 . S
C2333 C2334 1.366 1_565 S
C2334 C2333 1.366 1_545 S
C2334 C2335 1.414 . S
C2334 C2337 1.502 . S
C2335 H2309 0.950 . S
C2335 C2334 1.414 . S
C2335 C2336 1.374 . S
C2336 H2310 0.950 . S
C2336 C2332 1.385 . S
C2336 C2335 1.374 . S
C2337 C2334 1.502 . S
C2337 C2338 1.368 1_545 S
C2337 C2339 1.391 . S
C2338 H2311 0.950 . S
C2338 C2324 1.377 . S
C2338 C2337 1.368 1_565 S
C2339 C2323 1.377 1_545 S
C2339 C2337 1.391 . S
C2339 C2340 1.524 . S
C2340 C2339 1.524 . S
C2340 C2341 1.397 . S
C2340 C2345 1.363 . S
C2341 H2312 0.950 . S
C2341 C2340 1.397 . S
C2341 C2342 1.334 . S
C2342 H2313 0.950 . S
C2342 C2341 1.334 . S
C2342 C2343 1.287 . S
C2343 C2342 1.287 . S
C2343 C2344 1.524 . S
C2343 H2346 0.999 . S
C2344 H2314 0.950 . S
C2344 C2343 1.524 . S
C2344 C2345 1.415 . S
C2345 H2315 0.950 1_545 S
C2345 C2340 1.363 . S
C2345 C2344 1.415 . S
H2346 C2343 0.999 . S
H2347 C2328 0.913 . S
H2348 C2366 0.951 . S
H2349 C2368 0.951 . S
H2350 C2370 0.950 . S
H2351 C2371 0.950 . S
H2352 C2373 0.950 . S
H2353 C2376 0.950 . S
H2354 C2377 0.950 . S
H2355 C2379 0.950 . S
H2356 C2380 0.950 . S
H2357 C2381 0.951 . S
H2358 C2383 0.951 . S
H2359 C2385 0.950 . S
H2360 C2386 0.950 . S
H2361 C2388 0.950 . S
H2362 C2391 0.950 . S
H2363 C2392 0.950 . S
H2364 C2394 0.950 . S
H2365 C2395 0.950 . S
C2366 H2348 0.951 . S
C2366 C2367 1.366 . S
C2366 C2368 1.388 . S
C2367 C2366 1.366 . S
C2367 C2371 1.385 . S
C2368 H2349 0.951 . S
C2368 C2366 1.388 . S
C2368 C2369 1.366 . S
C2369 C2368 1.366 . S
C2369 C2370 1.414 . S
C2369 C2372 1.499 . S
C2370 H2350 0.950 . S
C2370 C2369 1.414 . S
C2370 C2371 1.374 . S
C2371 H2351 0.950 . S
C2371 C2367 1.385 . S
C2371 C2370 1.374 . S
C2372 C2369 1.499 . S
C2372 C2373 1.373 . S
C2372 C2374 1.389 . S
C2373 H2352 0.950 . S
C2373 C2372 1.373 . S
C2373 C2389 1.377 . S
C2374 C2372 1.389 . S
C2374 C2375 1.524 . S
C2374 C2388 1.377 . S
C2375 C2374 1.524 . S
C2375 C2376 1.397 . S
C2375 C2380 1.363 . S
C2376 H2353 0.950 . S
C2376 C2375 1.397 . S
C2376 C2377 1.334 . S
C2377 H2354 0.950 . S
C2377 C2376 1.334 . S
C2377 C2378 1.287 . S
C2378 C2377 1.287 . S
C2378 C2379 1.524 . S
C2378 H2397 0.913 . S
C2379 H2355 0.950 . S
C2379 C2378 1.524 . S
C2379 C2380 1.415 . S
C2380 H2356 0.950 . S
C2380 C2375 1.363 . S
C2380 C2379 1.415 . S
C2381 H2357 0.951 . S
C2381 C2382 1.366 . S
C2381 C2383 1.388 . S
C2382 C2381 1.366 . S
C2382 C2386 1.385 . S
C2383 H2358 0.951 . S
C2383 C2381 1.388 . S
C2383 C2384 1.366 . S
C2384 C2383 1.366 . S
C2384 C2385 1.414 . S
C2384 C2387 1.499 . S
C2385 H2359 0.950 . S
C2385 C2384 1.414 . S
C2385 C2386 1.374 . S
C2386 H2360 0.950 . S
C2386 C2382 1.385 . S
C2386 C2385 1.374 . S
C2387 C2384 1.499 . S
C2387 C2388 1.373 . S
C2387 C2389 1.389 . S
C2388 H2361 0.950 . S
C2388 C2374 1.377 . S
C2388 C2387 1.373 . S
C2389 C2373 1.377 . S
C2389 C2387 1.389 . S
C2389 C2390 1.524 . S
C2390 C2389 1.524 . S
C2390 C2391 1.397 . S
C2390 C2395 1.363 . S
C2391 H2362 0.950 . S
C2391 C2390 1.397 . S
C2391 C2392 1.334 . S
C2392 H2363 0.950 . S
C2392 C2391 1.334 . S
C2392 C2393 1.287 . S
C2393 C2392 1.287 . S
C2393 C2394 1.524 . S
C2393 H2396 0.999 . S
C2394 H2364 0.950 . S
C2394 C2393 1.524 . S
C2394 C2395 1.415 . S
C2395 H2365 0.950 . S
C2395 C2390 1.363 . S
C2395 C2394 1.415 . S
H2396 C2393 0.999 . S
H2397 C2378 0.913 . S
H2398 C2416 0.951 1_565 S
H2399 C2418 0.951 . S
H2400 C2420 0.950 . S
H2401 C2421 0.950 . S
H2402 C2423 0.950 . S
H2403 C2426 0.950 . S
H2404 C2427 0.950 . S
H2405 C2429 0.950 . S
H2406 C2430 0.950 . S
H2407 C2431 0.951 . S
H2408 C2433 0.951 . S
H2409 C2435 0.950 . S
H2410 C2436 0.950 . S
H2411 C2438 0.951 . S
H2412 C2441 0.950 1_565 S
H2413 C2442 0.950 1_565 S
H2414 C2444 0.950 . S
H2415 C2445 0.950 . S
C2416 H2398 0.951 1_545 S
C2416 C2417 1.366 . S
C2416 C2418 1.388 1_545 S
C2417 C2416 1.366 . S
C2417 C2421 1.385 . S
C2418 H2399 0.951 . S
C2418 C2416 1.388 1_565 S
C2418 C2419 1.366 1_565 S
C2419 C2418 1.366 1_545 S
C2419 C2420 1.414 . S
C2419 C2422 1.499 . S
C2420 H2400 0.950 . S
C2420 C2419 1.414 . S
C2420 C2421 1.374 . S
C2421 H2401 0.950 . S
C2421 C2417 1.385 . S
C2421 C2420 1.374 . S
C2422 C2419 1.499 . S
C2422 C2423 1.373 . S
C2422 C2424 1.389 1_445 S
C2423 H2402 0.950 . S
C2423 C2422 1.373 . S
C2423 C2439 1.377 1_556 S
C2424 C2422 1.389 1_665 S
C2424 C2425 1.524 . S
C2424 C2438 1.372 1_556 S
C2425 C2424 1.524 . S
C2425 C2426 1.397 1_565 S
C2425 C2430 1.363 . S
C2426 H2403 0.950 . S
C2426 C2425 1.397 1_545 S
C2426 C2427 1.334 . S
C2427 H2404 0.950 . S
C2427 C2426 1.334 . S
C2427 C2428 1.287 1_545 S
C2428 C2427 1.287 1_565 S
C2428 C2429 1.524 . S
C2428 H2447 0.913 . S
C2429 H2405 0.950 . S
C2429 C2428 1.524 . S
C2429 C2430 1.415 . S
C2430 H2406 0.950 . S
C2430 C2425 1.363 . S
C2430 C2429 1.415 . S
C2431 H2407 0.951 . S
C2431 C2432 1.366 1_545 S
C2431 C2433 1.388 . S
C2432 C2431 1.366 1_565 S
C2432 C2436 1.385 . S
C2433 H2408 0.951 . S
C2433 C2431 1.388 . S
C2433 C2434 1.366 1_545 S
C2434 C2433 1.366 1_565 S
C2434 C2435 1.414 . S
C2434 C2437 1.499 1_565 S
C2435 H2409 0.950 . S
C2435 C2434 1.414 . S
C2435 C2436 1.374 . S
C2436 H2410 0.950 . S
C2436 C2432 1.385 . S
C2436 C2435 1.374 . S
C2437 C2434 1.499 1_545 S
C2437 C2438 1.378 1_545 S
C2437 C2439 1.388 1_655 S
C2438 H2411 0.951 . S
C2438 C2424 1.372 1_554 S
C2438 C2437 1.378 1_565 S
C2439 C2423 1.377 1_554 S
C2439 C2437 1.388 1_455 S
C2439 C2440 1.524 . S
C2440 C2439 1.524 . S
C2440 C2441 1.397 . S
C2440 C2445 1.363 . S
C2441 H2412 0.950 1_545 S
C2441 C2440 1.397 . S
C2441 C2442 1.334 . S
C2442 H2413 0.950 1_545 S
C2442 C2441 1.334 . S
C2442 C2443 1.287 . S
C2443 C2442 1.287 . S
C2443 C2444 1.524 . S
C2443 H2446 0.999 . S
C2444 H2414 0.950 . S
C2444 C2443 1.524 . S
C2444 C2445 1.415 . S
C2445 H2415 0.950 . S
C2445 C2440 1.363 . S
C2445 C2444 1.415 . S
H2446 C2443 0.999 . S
H2447 C2428 0.913 . S
H2448 C2466 0.951 . S
H2449 C2468 0.951 . S
H2450 C2470 0.950 . S
H2451 C2471 0.950 . S
H2452 C2473 0.950 . S
H2453 C2476 0.950 . S
H2454 C2477 0.950 . S
H2455 C2479 0.950 . S
H2456 C2480 0.950 . S
H2457 C2481 0.951 . S
H2458 C2483 0.951 . S
H2459 C2485 0.950 . S
H2460 C2486 0.950 . S
H2461 C2488 0.950 . S
H2462 C2491 0.950 . S
H2463 C2492 0.950 . S
H2464 C2494 0.950 . S
H2465 C2495 0.950 . S
C2466 H2448 0.951 . S
C2466 C2467 1.366 . S
C2466 C2468 1.388 . S
C2467 C2466 1.366 . S
C2467 C2471 1.385 . S
C2468 H2449 0.951 . S
C2468 C2466 1.388 . S
C2468 C2469 1.366 . S
C2469 C2468 1.366 . S
C2469 C2470 1.414 . S
C2469 C2472 1.499 . S
C2470 H2450 0.950 . S
C2470 C2469 1.414 . S
C2470 C2471 1.374 . S
C2471 H2451 0.950 . S
C2471 C2467 1.385 . S
C2471 C2470 1.374 . S
C2472 C2469 1.499 . S
C2472 C2473 1.373 . S
C2472 C2474 1.389 . S
C2473 H2452 0.950 . S
C2473 C2472 1.373 . S
C2473 C2489 1.377 . S
C2474 C2472 1.389 . S
C2474 C2475 1.524 . S
C2474 C2488 1.377 . S
C2475 C2474 1.524 . S
C2475 C2476 1.397 . S
C2475 C2480 1.363 . S
C2476 H2453 0.950 . S
C2476 C2475 1.397 . S
C2476 C2477 1.334 . S
C2477 H2454 0.950 . S
C2477 C2476 1.334 . S
C2477 C2478 1.287 . S
C2478 C2477 1.287 . S
C2478 C2479 1.524 . S
C2478 H2497 0.913 . S
C2479 H2455 0.950 . S
C2479 C2478 1.524 . S
C2479 C2480 1.415 . S
C2480 H2456 0.950 . S
C2480 C2475 1.363 . S
C2480 C2479 1.415 . S
C2481 H2457 0.951 . S
C2481 C2482 1.366 . S
C2481 C2483 1.388 . S
C2482 C2481 1.366 . S
C2482 C2486 1.385 . S
C2483 H2458 0.951 . S
C2483 C2481 1.388 . S
C2483 C2484 1.366 . S
C2484 C2483 1.366 . S
C2484 C2485 1.414 . S
C2484 C2487 1.499 . S
C2485 H2459 0.950 . S
C2485 C2484 1.414 . S
C2485 C2486 1.374 . S
C2486 H2460 0.950 . S
C2486 C2482 1.385 . S
C2486 C2485 1.374 . S
C2487 C2484 1.499 . S
C2487 C2488 1.373 . S
C2487 C2489 1.389 . S
C2488 H2461 0.950 . S
C2488 C2474 1.377 . S
C2488 C2487 1.373 . S
C2489 C2473 1.377 . S
C2489 C2487 1.389 . S
C2489 C2490 1.524 . S
C2490 C2489 1.524 . S
C2490 C2491 1.397 . S
C2490 C2495 1.363 . S
C2491 H2462 0.950 . S
C2491 C2490 1.397 . S
C2491 C2492 1.334 . S
C2492 H2463 0.950 . S
C2492 C2491 1.334 . S
C2492 C2493 1.287 . S
C2493 C2492 1.287 . S
C2493 C2494 1.524 . S
C2493 H2496 0.999 . S
C2494 H2464 0.950 . S
C2494 C2493 1.524 . S
C2494 C2495 1.415 . S
C2495 H2465 0.950 . S
C2495 C2490 1.363 . S
C2495 C2494 1.415 . S
H2496 C2493 0.999 . S
H2497 C2478 0.913 . S
H2498 C2516 0.951 . S
H2499 C2518 0.951 . S
H2500 C2520 0.950 . S
H2501 C2521 0.950 . S
H2502 C2523 0.950 . S
H2503 C2526 0.950 . S
H2504 C2527 0.950 . S
H2505 C2529 0.950 . S
H2506 C2530 0.950 . S
H2507 C2531 0.951 . S
H2508 C2533 0.951 . S
H2509 C2535 0.950 . S
H2510 C2536 0.950 . S
H2511 C2538 0.950 . S
H2512 C2541 0.950 . S
H2513 C2542 0.950 . S
H2514 C2544 0.950 . S
H2515 C2545 0.950 . S
C2516 H2498 0.951 . S
C2516 C2517 1.366 . S
C2516 C2518 1.388 . S
C2517 C2516 1.366 . S
C2517 C2521 1.385 . S
C2518 H2499 0.951 . S
C2518 C2516 1.388 . S
C2518 C2519 1.366 . S
C2519 C2518 1.366 . S
C2519 C2520 1.414 . S
C2519 C2522 1.499 . S
C2520 H2500 0.950 . S
C2520 C2519 1.414 . S
C2520 C2521 1.374 . S
C2521 H2501 0.950 . S
C2521 C2517 1.385 . S
C2521 C2520 1.374 . S
C2522 C2519 1.499 . S
C2522 C2523 1.373 . S
C2522 C2524 1.389 . S
C2523 H2502 0.950 . S
C2523 C2522 1.373 . S
C2523 C2539 1.377 . S
C2524 C2522 1.389 . S
C2524 C2525 1.524 . S
C2524 C2538 1.377 . S
C2525 C2524 1.524 . S
C2525 C2526 1.397 . S
C2525 C2530 1.363 . S
C2526 H2503 0.950 . S
C2526 C2525 1.397 . S
C2526 C2527 1.334 . S
C2527 H2504 0.950 . S
C2527 C2526 1.334 . S
C2527 C2528 1.287 . S
C2528 C2527 1.287 . S
C2528 C2529 1.524 . S
C2528 H2547 0.913 . S
C2529 H2505 0.950 . S
C2529 C2528 1.524 . S
C2529 C2530 1.415 . S
C2530 H2506 0.950 . S
C2530 C2525 1.363 . S
C2530 C2529 1.415 . S
C2531 H2507 0.951 . S
C2531 C2532 1.366 . S
C2531 C2533 1.388 . S
C2532 C2531 1.366 . S
C2532 C2536 1.385 . S
C2533 H2508 0.951 . S
C2533 C2531 1.388 . S
C2533 C2534 1.366 . S
C2534 C2533 1.366 . S
C2534 C2535 1.414 . S
C2534 C2537 1.499 . S
C2535 H2509 0.950 . S
C2535 C2534 1.414 . S
C2535 C2536 1.374 . S
C2536 H2510 0.950 . S
C2536 C2532 1.385 . S
C2536 C2535 1.374 . S
C2537 C2534 1.499 . S
C2537 C2538 1.373 . S
C2537 C2539 1.389 . S
C2538 H2511 0.950 . S
C2538 C2524 1.377 . S
C2538 C2537 1.373 . S
C2539 C2523 1.377 . S
C2539 C2537 1.389 . S
C2539 C2540 1.524 . S
C2540 C2539 1.524 . S
C2540 C2541 1.397 . S
C2540 C2545 1.363 . S
C2541 H2512 0.950 . S
C2541 C2540 1.397 . S
C2541 C2542 1.334 . S
C2542 H2513 0.950 . S
C2542 C2541 1.334 . S
C2542 C2543 1.287 . S
C2543 C2542 1.287 . S
C2543 C2544 1.524 . S
C2543 H2546 0.999 . S
C2544 H2514 0.950 . S
C2544 C2543 1.524 . S
C2544 C2545 1.415 . S
C2545 H2515 0.950 . S
C2545 C2540 1.363 . S
C2545 C2544 1.415 . S
H2546 C2543 0.999 . S
H2547 C2528 0.913 . S
H2548 C2566 0.951 . S
H2549 C2568 0.951 . S
H2550 C2570 0.950 . S
H2551 C2571 0.950 . S
H2552 C2573 0.950 . S
H2553 C2576 0.950 . S
H2554 C2577 0.950 . S
H2555 C2579 0.950 . S
H2556 C2580 0.950 . S
H2557 C2581 0.951 . S
H2558 C2583 0.951 . S
H2559 C2585 0.950 . S
H2560 C2586 0.950 . S
H2561 C2588 0.950 . S
H2562 C2591 0.950 . S
H2563 C2592 0.950 . S
H2564 C2594 0.950 . S
H2565 C2595 0.950 . S
C2566 H2548 0.951 . S
C2566 C2567 1.366 . S
C2566 C2568 1.388 . S
C2567 C2566 1.366 . S
C2567 C2571 1.385 . S
C2568 H2549 0.951 . S
C2568 C2566 1.388 . S
C2568 C2569 1.366 . S
C2569 C2568 1.366 . S
C2569 C2570 1.414 . S
C2569 C2572 1.499 . S
C2570 H2550 0.950 . S
C2570 C2569 1.414 . S
C2570 C2571 1.374 . S
C2571 H2551 0.950 . S
C2571 C2567 1.385 . S
C2571 C2570 1.374 . S
C2572 C2569 1.499 . S
C2572 C2573 1.373 . S
C2572 C2574 1.389 . S
C2573 H2552 0.950 . S
C2573 C2572 1.373 . S
C2573 C2589 1.377 . S
C2574 C2572 1.389 . S
C2574 C2575 1.524 . S
C2574 C2588 1.377 . S
C2575 C2574 1.524 . S
C2575 C2576 1.397 . S
C2575 C2580 1.363 . S
C2576 H2553 0.950 . S
C2576 C2575 1.397 . S
C2576 C2577 1.334 . S
C2577 H2554 0.950 . S
C2577 C2576 1.334 . S
C2577 C2578 1.287 . S
C2578 C2577 1.287 . S
C2578 C2579 1.524 . S
C2578 H2597 0.913 . S
C2579 H2555 0.950 . S
C2579 C2578 1.524 . S
C2579 C2580 1.415 . S
C2580 H2556 0.950 . S
C2580 C2575 1.363 . S
C2580 C2579 1.415 . S
C2581 H2557 0.951 . S
C2581 C2582 1.366 . S
C2581 C2583 1.388 . S
C2582 C2581 1.366 . S
C2582 C2586 1.385 . S
C2583 H2558 0.951 . S
C2583 C2581 1.388 . S
C2583 C2584 1.366 . S
C2584 C2583 1.366 . S
C2584 C2585 1.414 . S
C2584 C2587 1.499 . S
C2585 H2559 0.950 . S
C2585 C2584 1.414 . S
C2585 C2586 1.374 . S
C2586 H2560 0.950 . S
C2586 C2582 1.385 . S
C2586 C2585 1.374 . S
C2587 C2584 1.499 . S
C2587 C2588 1.373 . S
C2587 C2589 1.389 . S
C2588 H2561 0.950 . S
C2588 C2574 1.377 . S
C2588 C2587 1.373 . S
C2589 C2573 1.377 . S
C2589 C2587 1.389 . S
C2589 C2590 1.524 . S
C2590 C2589 1.524 . S
C2590 C2591 1.397 . S
C2590 C2595 1.363 . S
C2591 H2562 0.950 . S
C2591 C2590 1.397 . S
C2591 C2592 1.334 . S
C2592 H2563 0.950 . S
C2592 C2591 1.334 . S
C2592 C2593 1.287 . S
C2593 C2592 1.287 . S
C2593 C2594 1.524 . S
C2593 H2596 0.999 . S
C2594 H2564 0.950 . S
C2594 C2593 1.524 . S
C2594 C2595 1.415 . S
C2595 H2565 0.950 . S
C2595 C2590 1.363 . S
C2595 C2594 1.415 . S
H2596 C2593 0.999 . S
H2597 C2578 0.913 . S
H2598 C2616 0.951 . S
H2599 C2618 0.951 . S
H2600 C2620 0.950 . S
H2601 C2621 0.950 . S
H2602 C2623 0.950 . S
H2603 C2626 0.950 . S
H2604 C2627 0.950 . S
H2605 C2629 0.950 . S
H2606 C2630 0.950 . S
H2607 C2631 0.951 . S
H2608 C2633 0.951 . S
H2609 C2635 0.950 . S
H2610 C2636 0.950 . S
H2611 C2638 0.950 . S
H2612 C2641 0.950 . S
H2613 C2642 0.950 . S
H2614 C2644 0.950 . S
H2615 C2645 0.950 . S
C2616 H2598 0.951 . S
C2616 C2617 1.366 . S
C2616 C2618 1.388 . S
C2617 C2616 1.366 . S
C2617 C2621 1.385 . S
C2618 H2599 0.951 . S
C2618 C2616 1.388 . S
C2618 C2619 1.366 . S
C2619 C2618 1.366 . S
C2619 C2620 1.414 . S
C2619 C2622 1.499 . S
C2620 H2600 0.950 . S
C2620 C2619 1.414 . S
C2620 C2621 1.374 . S
C2621 H2601 0.950 . S
C2621 C2617 1.385 . S
C2621 C2620 1.374 . S
C2622 C2619 1.499 . S
C2622 C2623 1.373 . S
C2622 C2624 1.389 . S
C2623 H2602 0.950 . S
C2623 C2622 1.373 . S
C2623 C2639 1.377 . S
C2624 C2622 1.389 . S
C2624 C2625 1.524 . S
C2624 C2638 1.377 . S
C2625 C2624 1.524 . S
C2625 C2626 1.397 . S
C2625 C2630 1.363 . S
C2626 H2603 0.950 . S
C2626 C2625 1.397 . S
C2626 C2627 1.334 . S
C2627 H2604 0.950 . S
C2627 C2626 1.334 . S
C2627 C2628 1.287 . S
C2628 C2627 1.287 . S
C2628 C2629 1.524 . S
C2628 H2647 0.913 . S
C2629 H2605 0.950 . S
C2629 C2628 1.524 . S
C2629 C2630 1.415 . S
C2630 H2606 0.950 . S
C2630 C2625 1.363 . S
C2630 C2629 1.415 . S
C2631 H2607 0.951 . S
C2631 C2632 1.366 . S
C2631 C2633 1.388 . S
C2632 C2631 1.366 . S
C2632 C2636 1.385 . S
C2633 H2608 0.951 . S
C2633 C2631 1.388 . S
C2633 C2634 1.366 . S
C2634 C2633 1.366 . S
C2634 C2635 1.414 . S
C2634 C2637 1.499 . S
C2635 H2609 0.950 . S
C2635 C2634 1.414 . S
C2635 C2636 1.374 . S
C2636 H2610 0.950 . S
C2636 C2632 1.385 . S
C2636 C2635 1.374 . S
C2637 C2634 1.499 . S
C2637 C2638 1.373 . S
C2637 C2639 1.389 . S
C2638 H2611 0.950 . S
C2638 C2624 1.377 . S
C2638 C2637 1.373 . S
C2639 C2623 1.377 . S
C2639 C2637 1.389 . S
C2639 C2640 1.524 . S
C2640 C2639 1.524 . S
C2640 C2641 1.397 . S
C2640 C2645 1.363 . S
C2641 H2612 0.950 . S
C2641 C2640 1.397 . S
C2641 C2642 1.334 . S
C2642 H2613 0.950 . S
C2642 C2641 1.334 . S
C2642 C2643 1.287 . S
C2643 C2642 1.287 . S
C2643 C2644 1.524 . S
C2643 H2646 0.999 . S
C2644 H2614 0.950 . S
C2644 C2643 1.524 . S
C2644 C2645 1.415 . S
C2645 H2615 0.950 . S
C2645 C2640 1.363 . S
C2645 C2644 1.415 . S
H2646 C2643 0.999 . S
H2647 C2628 0.913 . S
H2648 C2666 0.951 . S
H2649 C2668 0.951 . S
H2650 C2670 0.950 . S
H2651 C2671 0.950 . S
H2652 C2673 0.950 . S
H2653 C2676 0.950 . S
H2654 C2677 0.950 . S
H2655 C2679 0.949 1_556 S
H2656 C2680 0.950 . S
H2657 C2681 0.951 . S
H2658 C2683 0.951 . S
H2659 C2685 0.950 . S
H2660 C2686 0.950 . S
H2661 C2688 0.950 . S
H2662 C2691 0.950 . S
H2663 C2692 0.950 . S
H2664 C2694 0.950 . S
H2665 C2695 0.950 . S
C2666 H2648 0.951 . S
C2666 C2667 1.366 . S
C2666 C2668 1.388 . S
C2667 C2666 1.366 . S
C2667 C2671 1.385 . S
C2668 H2649 0.951 . S
C2668 C2666 1.388 . S
C2668 C2669 1.366 . S
C2669 C2668 1.366 . S
C2669 C2670 1.414 . S
C2669 C2672 1.499 . S
C2670 H2650 0.950 . S
C2670 C2669 1.414 . S
C2670 C2671 1.374 . S
C2671 H2651 0.950 . S
C2671 C2667 1.385 . S
C2671 C2670 1.374 . S
C2672 C2669 1.499 . S
C2672 C2673 1.373 . S
C2672 C2674 1.389 . S
C2673 H2652 0.950 . S
C2673 C2672 1.373 . S
C2673 C2689 1.318 1_554 S
C2674 C2672 1.389 . S
C2674 C2675 1.524 . S
C2674 C2688 1.377 1_554 S
C2675 C2674 1.524 . S
C2675 C2676 1.397 . S
C2675 C2680 1.363 1_554 S
C2676 H2653 0.950 . S
C2676 C2675 1.397 . S
C2676 C2677 1.334 . S
C2677 H2654 0.950 . S
C2677 C2676 1.334 . S
C2677 C2678 1.287 . S
C2678 C2677 1.287 . S
C2678 C2679 1.525 . S
C2678 H2697 0.913 . S
C2679 H2655 0.949 1_554 S
C2679 C2678 1.525 . S
C2679 C2680 1.415 1_554 S
C2680 H2656 0.950 . S
C2680 C2675 1.363 1_556 S
C2680 C2679 1.415 1_556 S
C2681 H2657 0.951 . S
C2681 C2682 1.366 . S
C2681 C2683 1.388 . S
C2682 C2681 1.366 . S
C2682 C2686 1.385 . S
C2683 H2658 0.951 . S
C2683 C2681 1.388 . S
C2683 C2684 1.366 . S
C2684 C2683 1.366 . S
C2684 C2685 1.414 . S
C2684 C2687 1.499 . S
C2685 H2659 0.950 . S
C2685 C2684 1.414 . S
C2685 C2686 1.374 . S
C2686 H2660 0.950 . S
C2686 C2682 1.385 . S
C2686 C2685 1.374 . S
C2687 C2684 1.499 . S
C2687 C2688 1.373 . S
C2687 C2689 1.437 . S
C2688 H2661 0.950 . S
C2688 C2674 1.377 1_556 S
C2688 C2687 1.373 . S
C2689 C2673 1.318 1_556 S
C2689 C2687 1.437 . S
C2689 C2690 1.535 . S
C2690 C2689 1.535 . S
C2690 C2691 1.397 . S
C2690 C2695 1.363 1_556 S
C2691 H2662 0.950 . S
C2691 C2690 1.397 . S
C2691 C2692 1.334 . S
C2692 H2663 0.950 . S
C2692 C2691 1.334 . S
C2692 C2693 1.287 . S
C2693 C2692 1.287 . S
C2693 C2694 1.524 1_556 S
C2693 H2696 0.999 . S
C2694 H2664 0.950 . S
C2694 C2693 1.524 1_554 S
C2694 C2695 1.415 . S
C2695 H2665 0.950 . S
C2695 C2690 1.363 1_554 S
C2695 C2694 1.415 . S
H2696 C2693 0.999 . S
H2697 C2678 0.913 . S
H2698 C2716 0.951 . S
H2699 C2718 0.951 . S
H2700 C2720 0.950 1_655 S
H2701 C2721 0.962 . S
H2702 C2723 0.950 . S
H2703 C2726 0.950 . S
H2704 C2727 0.950 . S
H2705 C2729 0.950 . S
H2706 C2730 0.950 . S
H2707 C2731 0.951 . S
H2708 C2733 0.951 . S
H2709 C2735 0.950 1_455 S
H2710 C2736 0.950 . S
H2711 C2738 0.950 . S
H2712 C2741 0.950 . S
H2713 C2742 0.950 . S
H2714 C2744 0.950 . S
H2715 C2745 0.950 . S
C2716 H2698 0.951 . S
C2716 C2717 1.366 . S
C2716 C2718 1.388 . S
C2717 C2716 1.366 . S
C2717 C2721 1.385 . S
C2718 H2699 0.951 . S
C2718 C2716 1.388 . S
C2718 C2719 1.366 . S
C2719 C2718 1.366 . S
C2719 C2720 1.414 . S
C2719 C2722 1.499 . S
C2720 H2700 0.950 1_455 S
C2720 C2719 1.414 . S
C2720 C2721 1.374 . S
C2721 H2701 0.962 . S
C2721 C2717 1.385 . S
C2721 C2720 1.374 . S
C2722 C2719 1.499 . S
C2722 C2723 1.373 1_455 S
C2722 C2724 1.389 . S
C2723 H2702 0.950 . S
C2723 C2722 1.373 1_655 S
C2723 C2739 1.377 . S
C2724 C2722 1.389 . S
C2724 C2725 1.524 . S
C2724 C2738 1.377 . S
C2725 C2724 1.524 . S
C2725 C2726 1.397 . S
C2725 C2730 1.363 . S
C2726 H2703 0.950 . S
C2726 C2725 1.397 . S
C2726 C2727 1.334 . S
C2727 H2704 0.950 . S
C2727 C2726 1.334 . S
C2727 C2728 1.287 . S
C2728 C2727 1.287 . S
C2728 C2729 1.524 . S
C2728 H2747 0.913 . S
C2729 H2705 0.950 . S
C2729 C2728 1.524 . S
C2729 C2730 1.415 . S
C2730 H2706 0.950 . S
C2730 C2725 1.363 . S
C2730 C2729 1.415 . S
C2731 H2707 0.951 . S
C2731 C2732 1.366 . S
C2731 C2733 1.388 . S
C2732 C2731 1.366 . S
C2732 C2736 1.385 . S
C2733 H2708 0.951 . S
C2733 C2731 1.388 . S
C2733 C2734 1.366 . S
C2734 C2733 1.366 . S
C2734 C2735 1.414 . S
C2734 C2737 1.499 . S
C2735 H2709 0.950 1_655 S
C2735 C2734 1.414 . S
C2735 C2736 1.374 . S
C2736 H2710 0.950 . S
C2736 C2732 1.385 . S
C2736 C2735 1.374 . S
C2737 C2734 1.499 . S
C2737 C2738 1.373 1_655 S
C2737 C2739 1.389 . S
C2738 H2711 0.950 . S
C2738 C2724 1.377 . S
C2738 C2737 1.373 1_455 S
C2739 C2723 1.377 . S
C2739 C2737 1.389 . S
C2739 C2740 1.524 . S
C2740 C2739 1.524 . S
C2740 C2741 1.397 . S
C2740 C2745 1.363 . S
C2741 H2712 0.950 . S
C2741 C2740 1.397 . S
C2741 C2742 1.334 . S
C2742 H2713 0.950 . S
C2742 C2741 1.334 . S
C2742 C2743 1.287 . S
C2743 C2742 1.287 . S
C2743 C2744 1.524 . S
C2743 H2746 0.999 . S
C2744 H2714 0.950 . S
C2744 C2743 1.524 . S
C2744 C2745 1.415 . S
C2745 H2715 0.950 . S
C2745 C2740 1.363 . S
C2745 C2744 1.415 . S
H2746 C2743 0.999 . S
H2747 C2728 0.913 . S
H2748 C2766 0.951 . S
H2749 C2768 0.951 . S
H2750 C2770 0.950 1_655 S
H2751 C2771 0.950 . S
H2752 C2773 0.950 . S
H2753 C2776 0.950 . S
H2754 C2777 0.950 . S
H2755 C2779 0.950 . S
H2756 C2780 0.950 . S
H2757 C2781 0.951 . S
H2758 C2783 0.951 . S
H2759 C2785 0.950 1_455 S
H2760 C2786 0.950 . S
H2761 C2788 0.950 . S
H2762 C2791 0.950 . S
H2763 C2792 0.950 . S
H2764 C2794 0.950 . S
H2765 C2795 0.950 . S
C2766 H2748 0.951 . S
C2766 C2767 1.366 . S
C2766 C2768 1.388 . S
C2767 C2766 1.366 . S
C2767 C2771 1.385 . S
C2768 H2749 0.951 . S
C2768 C2766 1.388 . S
C2768 C2769 1.366 . S
C2769 C2768 1.366 . S
C2769 C2770 1.414 . S
C2769 C2772 1.499 . S
C2770 H2750 0.950 1_455 S
C2770 C2769 1.414 . S
C2770 C2771 1.374 . S
C2771 H2751 0.950 . S
C2771 C2767 1.385 . S
C2771 C2770 1.374 . S
C2772 C2769 1.499 . S
C2772 C2773 1.373 1_455 S
C2772 C2774 1.336 1_554 S
C2773 H2752 0.950 . S
C2773 C2772 1.373 1_655 S
C2773 C2789 1.377 1_554 S
C2774 C2772 1.336 1_556 S
C2774 C2775 1.524 . S
C2774 C2788 1.436 . S
C2775 C2774 1.524 . S
C2775 C2776 1.377 1_556 S
C2775 C2780 1.386 . S
C2776 H2753 0.950 . S
C2776 C2775 1.377 1_554 S
C2776 C2777 1.334 . S
C2777 H2754 0.950 . S
C2777 C2776 1.334 . S
C2777 C2778 1.277 1_554 S
C2778 C2777 1.277 1_556 S
C2778 C2779 1.534 . S
C2778 H2797 0.912 1_556 S
C2779 H2755 0.950 . S
C2779 C2778 1.534 . S
C2779 C2780 1.415 . S
C2780 H2756 0.950 . S
C2780 C2775 1.386 . S
C2780 C2779 1.415 . S
C2781 H2757 0.951 . S
C2781 C2782 1.366 . S
C2781 C2783 1.388 . S
C2782 C2781 1.366 . S
C2782 C2786 1.385 . S
C2783 H2758 0.951 . S
C2783 C2781 1.388 . S
C2783 C2784 1.366 . S
C2784 C2783 1.366 . S
C2784 C2785 1.414 . S
C2784 C2787 1.499 . S
C2785 H2759 0.950 1_655 S
C2785 C2784 1.414 . S
C2785 C2786 1.374 . S
C2786 H2760 0.950 . S
C2786 C2782 1.385 . S
C2786 C2785 1.374 . S
C2787 C2784 1.499 . S
C2787 C2788 1.373 1_655 S
C2787 C2789 1.389 . S
C2788 H2761 0.950 . S
C2788 C2774 1.436 . S
C2788 C2787 1.373 1_455 S
C2789 C2773 1.377 1_556 S
C2789 C2787 1.389 . S
C2789 C2790 1.524 . S
C2790 C2789 1.524 . S
C2790 C2791 1.397 . S
C2790 C2795 1.363 1_556 S
C2791 H2762 0.950 . S
C2791 C2790 1.397 . S
C2791 C2792 1.334 . S
C2792 H2763 0.950 . S
C2792 C2791 1.334 . S
C2792 C2793 1.287 . S
C2793 C2792 1.287 . S
C2793 C2794 1.524 1_556 S
C2793 H2796 0.999 . S
C2794 H2764 0.950 . S
C2794 C2793 1.524 1_554 S
C2794 C2795 1.415 . S
C2795 H2765 0.950 . S
C2795 C2790 1.363 1_554 S
C2795 C2794 1.415 . S
H2796 C2793 0.999 . S
H2797 C2778 0.912 1_554 S
H2798 C2816 0.951 . S
H2799 C2818 0.951 . S
H2800 C2820 0.950 . S
H2801 C2821 0.950 . S
H2802 C2823 0.950 . S
H2803 C2826 0.950 . S
H2804 C2827 0.950 . S
H2805 C2829 0.950 . S
H2806 C2830 0.950 . S
H2807 C2831 0.951 . S
H2808 C2833 0.951 . S
H2809 C2835 0.950 . S
H2810 C2836 0.950 . S
H2811 C2838 0.950 . S
H2812 C2841 0.950 . S
H2813 C2842 0.950 . S
H2814 C2844 0.950 . S
H2815 C2845 0.950 . S
C2816 H2798 0.951 . S
C2816 C2817 1.366 . S
C2816 C2818 1.388 . S
C2817 C2816 1.366 . S
C2817 C2821 1.385 . S
C2818 H2799 0.951 . S
C2818 C2816 1.388 . S
C2818 C2819 1.366 . S
C2819 C2818 1.366 . S
C2819 C2820 1.414 . S
C2819 C2822 1.499 . S
C2820 H2800 0.950 . S
C2820 C2819 1.414 . S
C2820 C2821 1.374 . S
C2821 H2801 0.950 . S
C2821 C2817 1.385 . S
C2821 C2820 1.374 . S
C2822 C2819 1.499 . S
C2822 C2823 1.373 . S
C2822 C2824 1.389 . S
C2823 H2802 0.950 . S
C2823 C2822 1.373 . S
C2823 C2839 1.377 . S
C2824 C2822 1.389 . S
C2824 C2825 1.524 . S
C2824 C2838 1.377 . S
C2825 C2824 1.524 . S
C2825 C2826 1.397 . S
C2825 C2830 1.363 . S
C2826 H2803 0.950 . S
C2826 C2825 1.397 . S
C2826 C2827 1.334 . S
C2827 H2804 0.950 . S
C2827 C2826 1.334 . S
C2827 C2828 1.287 . S
C2828 C2827 1.287 . S
C2828 C2829 1.524 . S
C2828 H2847 0.913 . S
C2829 H2805 0.950 . S
C2829 C2828 1.524 . S
C2829 C2830 1.415 . S
C2830 H2806 0.950 . S
C2830 C2825 1.363 . S
C2830 C2829 1.415 . S
C2831 H2807 0.951 . S
C2831 C2832 1.366 . S
C2831 C2833 1.388 . S
C2832 C2831 1.366 . S
C2832 C2836 1.385 . S
C2833 H2808 0.951 . S
C2833 C2831 1.388 . S
C2833 C2834 1.366 . S
C2834 C2833 1.366 . S
C2834 C2835 1.414 . S
C2834 C2837 1.499 . S
C2835 H2809 0.950 . S
C2835 C2834 1.414 . S
C2835 C2836 1.374 . S
C2836 H2810 0.950 . S
C2836 C2832 1.385 . S
C2836 C2835 1.374 . S
C2837 C2834 1.499 . S
C2837 C2838 1.373 . S
C2837 C2839 1.389 . S
C2838 H2811 0.950 . S
C2838 C2824 1.377 . S
C2838 C2837 1.373 . S
C2839 C2823 1.377 . S
C2839 C2837 1.389 . S
C2839 C2840 1.524 . S
C2840 C2839 1.524 . S
C2840 C2841 1.397 . S
C2840 C2845 1.363 . S
C2841 H2812 0.950 . S
C2841 C2840 1.397 . S
C2841 C2842 1.334 . S
C2842 H2813 0.950 . S
C2842 C2841 1.334 . S
C2842 C2843 1.287 . S
C2843 C2842 1.287 . S
C2843 C2844 1.524 . S
C2843 H2846 0.999 . S
C2844 H2814 0.950 . S
C2844 C2843 1.524 . S
C2844 C2845 1.415 . S
C2845 H2815 0.950 . S
C2845 C2840 1.363 . S
C2845 C2844 1.415 . S
H2846 C2843 0.999 . S
H2847 C2828 0.913 . S
H2848 C2866 0.951 . S
H2849 C2868 0.951 . S
H2850 C2870 0.950 . S
H2851 C2871 0.950 . S
H2852 C2873 0.950 . S
H2853 C2876 0.950 . S
H2854 C2877 0.950 . S
H2855 C2879 0.950 . S
H2856 C2880 0.950 . S
H2857 C2881 0.951 . S
H2858 C2883 0.951 . S
H2859 C2885 0.950 . S
H2860 C2886 0.950 . S
H2861 C2888 0.950 . S
H2862 C2891 0.950 . S
H2863 C2892 0.950 . S
H2864 C2894 0.950 . S
H2865 C2895 0.950 . S
C2866 H2848 0.951 . S
C2866 C2867 1.366 . S
C2866 C2868 1.388 . S
C2867 C2866 1.366 . S
C2867 C2871 1.385 . S
C2868 H2849 0.951 . S
C2868 C2866 1.388 . S
C2868 C2869 1.366 . S
C2869 C2868 1.366 . S
C2869 C2870 1.414 . S
C2869 C2872 1.499 . S
C2870 H2850 0.950 . S
C2870 C2869 1.414 . S
C2870 C2871 1.374 . S
C2871 H2851 0.950 . S
C2871 C2867 1.385 . S
C2871 C2870 1.374 . S
C2872 C2869 1.499 . S
C2872 C2873 1.373 . S
C2872 C2874 1.389 . S
C2873 H2852 0.950 . S
C2873 C2872 1.373 . S
C2873 C2889 1.377 . S
C2874 C2872 1.389 . S
C2874 C2875 1.524 . S
C2874 C2888 1.377 . S
C2875 C2874 1.524 . S
C2875 C2876 1.397 . S
C2875 C2880 1.363 . S
C2876 H2853 0.950 . S
C2876 C2875 1.397 . S
C2876 C2877 1.334 . S
C2877 H2854 0.950 . S
C2877 C2876 1.334 . S
C2877 C2878 1.287 . S
C2878 C2877 1.287 . S
C2878 C2879 1.524 . S
C2878 H2897 0.913 . S
C2879 H2855 0.950 . S
C2879 C2878 1.524 . S
C2879 C2880 1.415 . S
C2880 H2856 0.950 . S
C2880 C2875 1.363 . S
C2880 C2879 1.415 . S
C2881 H2857 0.951 . S
C2881 C2882 1.366 . S
C2881 C2883 1.388 . S
C2882 C2881 1.366 . S
C2882 C2886 1.385 . S
C2883 H2858 0.951 . S
C2883 C2881 1.388 . S
C2883 C2884 1.366 . S
C2884 C2883 1.366 . S
C2884 C2885 1.414 . S
C2884 C2887 1.499 . S
C2885 H2859 0.950 . S
C2885 C2884 1.414 . S
C2885 C2886 1.374 . S
C2886 H2860 0.950 . S
C2886 C2882 1.385 . S
C2886 C2885 1.374 . S
C2887 C2884 1.499 . S
C2887 C2888 1.373 . S
C2887 C2889 1.389 . S
C2888 H2861 0.950 . S
C2888 C2874 1.377 . S
C2888 C2887 1.373 . S
C2889 C2873 1.377 . S
C2889 C2887 1.389 . S
C2889 C2890 1.524 . S
C2890 C2889 1.524 . S
C2890 C2891 1.397 . S
C2890 C2895 1.363 . S
C2891 H2862 0.950 . S
C2891 C2890 1.397 . S
C2891 C2892 1.334 1_545 S
C2892 H2863 0.950 . S
C2892 C2891 1.334 1_565 S
C2892 C2893 1.287 . S
C2893 C2892 1.287 . S
C2893 C2894 1.524 1_565 S
C2893 H2896 0.999 . S
C2894 H2864 0.950 . S
C2894 C2893 1.524 1_545 S
C2894 C2895 1.415 . S
C2895 H2865 0.950 . S
C2895 C2890 1.363 . S
C2895 C2894 1.415 . S
H2896 C2893 0.999 . S
H2897 C2878 0.913 . S
H2898 C2916 0.951 . S
H2899 C2918 0.951 . S
H2900 C2920 0.950 . S
H2901 C2921 0.950 . S
H2902 C2923 0.950 . S
H2903 C2926 0.950 . S
H2904 C2927 0.950 . S
H2905 C2929 0.950 . S
H2906 C2930 0.950 . S
H2907 C2931 0.951 . S
H2908 C2933 0.951 . S
H2909 C2935 0.950 . S
H2910 C2936 0.950 . S
H2911 C2938 0.950 . S
H2912 C2941 0.950 . S
H2913 C2942 0.950 . S
H2914 C2944 0.950 . S
H2915 C2945 0.950 . S
C2916 H2898 0.951 . S
C2916 C2917 1.366 . S
C2916 C2918 1.388 . S
C2917 C2916 1.366 . S
C2917 C2921 1.385 . S
C2918 H2899 0.951 . S
C2918 C2916 1.388 . S
C2918 C2919 1.366 . S
C2919 C2918 1.366 . S
C2919 C2920 1.414 . S
C2919 C2922 1.499 . S
C2920 H2900 0.950 . S
C2920 C2919 1.414 . S
C2920 C2921 1.374 . S
C2921 H2901 0.950 . S
C2921 C2917 1.385 . S
C2921 C2920 1.374 . S
C2922 C2919 1.499 . S
C2922 C2923 1.373 . S
C2922 C2924 1.389 . S
C2923 H2902 0.950 . S
C2923 C2922 1.373 . S
C2923 C2939 1.377 . S
C2924 C2922 1.389 . S
C2924 C2925 1.524 . S
C2924 C2938 1.377 . S
C2925 C2924 1.524 . S
C2925 C2926 1.397 . S
C2925 C2930 1.363 . S
C2926 H2903 0.950 . S
C2926 C2925 1.397 . S
C2926 C2927 1.334 . S
C2927 H2904 0.950 . S
C2927 C2926 1.334 . S
C2927 C2928 1.287 . S
C2928 C2927 1.287 . S
C2928 C2929 1.524 . S
C2928 H2947 0.913 . S
C2929 H2905 0.950 . S
C2929 C2928 1.524 . S
C2929 C2930 1.415 . S
C2930 H2906 0.950 . S
C2930 C2925 1.363 . S
C2930 C2929 1.415 . S
C2931 H2907 0.951 . S
C2931 C2932 1.366 . S
C2931 C2933 1.388 . S
C2932 C2931 1.366 . S
C2932 C2936 1.385 . S
C2933 H2908 0.951 . S
C2933 C2931 1.388 . S
C2933 C2934 1.366 . S
C2934 C2933 1.366 . S
C2934 C2935 1.414 . S
C2934 C2937 1.499 . S
C2935 H2909 0.950 . S
C2935 C2934 1.414 . S
C2935 C2936 1.374 . S
C2936 H2910 0.950 . S
C2936 C2932 1.385 . S
C2936 C2935 1.374 . S
C2937 C2934 1.499 . S
C2937 C2938 1.373 . S
C2937 C2939 1.389 . S
C2938 H2911 0.950 . S
C2938 C2924 1.377 . S
C2938 C2937 1.373 . S
C2939 C2923 1.377 . S
C2939 C2937 1.389 . S
C2939 C2940 1.524 . S
C2940 C2939 1.524 . S
C2940 C2941 1.397 . S
C2940 C2945 1.363 . S
C2941 H2912 0.950 . S
C2941 C2940 1.397 . S
C2941 C2942 1.334 . S
C2942 H2913 0.950 . S
C2942 C2941 1.334 . S
C2942 C2943 1.287 . S
C2943 C2942 1.287 . S
C2943 C2944 1.524 . S
C2943 H2946 0.999 . S
C2944 H2914 0.950 . S
C2944 C2943 1.524 . S
C2944 C2945 1.415 . S
C2945 H2915 0.950 . S
C2945 C2940 1.363 . S
C2945 C2944 1.415 . S
H2946 C2943 0.999 . S
H2947 C2928 0.913 . S
H2948 C2966 0.951 . S
H2949 C2968 0.951 . S
H2950 C2970 0.950 . S
H2951 C2971 0.950 . S
H2952 C2973 0.950 . S
H2953 C2976 0.950 . S
H2954 C2977 0.950 . S
H2955 C2979 0.950 . S
H2956 C2980 0.950 . S
H2957 C2981 0.951 . S
H2958 C2983 0.951 . S
H2959 C2985 0.950 . S
H2960 C2986 0.950 1_545 S
H2961 C2988 0.950 . S
H2962 C2991 0.950 . S
H2963 C2992 0.950 . S
H2964 C2994 0.950 . S
H2965 C2995 0.950 . S
C2966 H2948 0.951 . S
C2966 C2967 1.366 . S
C2966 C2968 1.388 . S
C2967 C2966 1.366 . S
C2967 C2971 1.385 . S
C2968 H2949 0.951 . S
C2968 C2966 1.388 . S
C2968 C2969 1.366 . S
C2969 C2968 1.366 . S
C2969 C2970 1.414 . S
C2969 C2972 1.499 . S
C2970 H2950 0.950 . S
C2970 C2969 1.414 . S
C2970 C2971 1.374 . S
C2971 H2951 0.950 . S
C2971 C2967 1.385 . S
C2971 C2970 1.374 . S
C2972 C2969 1.499 . S
C2972 C2973 1.373 . S
C2972 C2974 1.389 . S
C2973 H2952 0.950 . S
C2973 C2972 1.373 . S
C2973 C2989 1.377 . S
C2974 C2972 1.389 . S
C2974 C2975 1.524 . S
C2974 C2988 1.377 . S
C2975 C2974 1.524 . S
C2975 C2976 1.397 . S
C2975 C2980 1.363 . S
C2976 H2953 0.950 . S
C2976 C2975 1.397 . S
C2976 C2977 1.334 . S
C2977 H2954 0.950 . S
C2977 C2976 1.334 . S
C2977 C2978 1.287 . S
C2978 C2977 1.287 . S
C2978 C2979 1.524 . S
C2978 H2997 0.913 . S
C2979 H2955 0.950 . S
C2979 C2978 1.524 . S
C2979 C2980 1.415 . S
C2980 H2956 0.950 . S
C2980 C2975 1.363 . S
C2980 C2979 1.415 . S
C2981 H2957 0.951 . S
C2981 C2982 1.366 . S
C2981 C2983 1.388 . S
C2982 C2981 1.366 . S
C2982 C2986 1.385 . S
C2983 H2958 0.951 . S
C2983 C2981 1.388 . S
C2983 C2984 1.366 . S
C2984 C2983 1.366 . S
C2984 C2985 1.414 . S
C2984 C2987 1.499 . S
C2985 H2959 0.950 . S
C2985 C2984 1.414 . S
C2985 C2986 1.374 . S
C2986 H2960 0.950 1_565 S
C2986 C2982 1.385 . S
C2986 C2985 1.374 . S
C2987 C2984 1.499 . S
C2987 C2988 1.373 . S
C2987 C2989 1.389 . S
C2988 H2961 0.950 . S
C2988 C2974 1.377 . S
C2988 C2987 1.373 . S
C2989 C2973 1.377 . S
C2989 C2987 1.389 . S
C2989 C2990 1.524 . S
C2990 C2989 1.524 . S
C2990 C2991 1.397 . S
C2990 C2995 1.363 . S
C2991 H2962 0.950 . S
C2991 C2990 1.397 . S
C2991 C2992 1.334 . S
C2992 H2963 0.950 . S
C2992 C2991 1.334 . S
C2992 C2993 1.287 . S
C2993 C2992 1.287 . S
C2993 C2994 1.524 . S
C2993 H2996 0.999 . S
C2994 H2964 0.950 . S
C2994 C2993 1.524 . S
C2994 C2995 1.415 . S
C2995 H2965 0.950 . S
C2995 C2990 1.363 . S
C2995 C2994 1.415 . S
H2996 C2993 0.999 . S
H2997 C2978 0.913 . S
H2998 C3016 0.951 . S
H2999 C3018 0.951 . S
H3000 C3020 0.950 . S
H3001 C3021 0.950 . S
H3002 C3023 0.950 . S
H3003 C3026 0.950 . S
H3004 C3027 0.950 . S
H3005 C3029 0.950 . S
H3006 C3030 0.950 . S
H3007 C3031 0.942 1_545 S
H3008 C3033 0.951 . S
H3009 C3035 0.950 . S
H3010 C3036 0.950 . S
H3011 C3038 0.950 . S
H3012 C3041 0.950 . S
H3013 C3042 0.950 . S
H3014 C3044 0.950 . S
H3015 C3045 0.950 . S
C3016 H2998 0.951 . S
C3016 C3017 1.366 . S
C3016 C3018 1.388 . S
C3017 C3016 1.366 . S
C3017 C3021 1.385 . S
C3018 H2999 0.951 . S
C3018 C3016 1.388 . S
C3018 C3019 1.366 . S
C3019 C3018 1.366 . S
C3019 C3020 1.414 . S
C3019 C3022 1.499 . S
C3020 H3000 0.950 . S
C3020 C3019 1.414 . S
C3020 C3021 1.374 . S
C3021 H3001 0.950 . S
C3021 C3017 1.385 . S
C3021 C3020 1.374 . S
C3022 C3019 1.499 . S
C3022 C3023 1.373 . S
C3022 C3024 1.389 . S
C3023 H3002 0.950 . S
C3023 C3022 1.373 . S
C3023 C3039 1.377 . S
C3024 C3022 1.389 . S
C3024 C3025 1.524 . S
C3024 C3038 1.377 . S
C3025 C3024 1.524 . S
C3025 C3026 1.397 . S
C3025 C3030 1.363 . S
C3026 H3003 0.950 . S
C3026 C3025 1.397 . S
C3026 C3027 1.334 . S
C3027 H3004 0.950 . S
C3027 C3026 1.334 . S
C3027 C3028 1.287 . S
C3028 C3027 1.287 . S
C3028 C3029 1.524 . S
C3028 H3047 0.913 . S
C3029 H3005 0.950 . S
C3029 C3028 1.524 . S
C3029 C3030 1.415 . S
C3030 H3006 0.950 . S
C3030 C3025 1.363 . S
C3030 C3029 1.415 . S
C3031 H3007 0.942 1_565 S
C3031 C3032 1.366 . S
C3031 C3033 1.388 . S
C3032 C3031 1.366 . S
C3032 C3036 1.385 . S
C3033 H3008 0.951 . S
C3033 C3031 1.388 . S
C3033 C3034 1.366 . S
C3034 C3033 1.366 . S
C3034 C3035 1.414 . S
C3034 C3037 1.499 . S
C3035 H3009 0.950 . S
C3035 C3034 1.414 . S
C3035 C3036 1.374 . S
C3036 H3010 0.950 . S
C3036 C3032 1.385 . S
C3036 C3035 1.374 . S
C3037 C3034 1.499 . S
C3037 C3038 1.373 . S
C3037 C3039 1.389 . S
C3038 H3011 0.950 . S
C3038 C3024 1.377 . S
C3038 C3037 1.373 . S
C3039 C3023 1.377 . S
C3039 C3037 1.389 . S
C3039 C3040 1.524 . S
C3040 C3039 1.524 . S
C3040 C3041 1.397 . S
C3040 C3045 1.363 . S
C3041 H3012 0.950 . S
C3041 C3040 1.397 . S
C3041 C3042 1.334 . S
C3042 H3013 0.950 . S
C3042 C3041 1.334 . S
C3042 C3043 1.287 . S
C3043 C3042 1.287 . S
C3043 C3044 1.524 . S
C3043 H3046 0.999 . S
C3044 H3014 0.950 . S
C3044 C3043 1.524 . S
C3044 C3045 1.415 . S
C3045 H3015 0.950 . S
C3045 C3040 1.363 . S
C3045 C3044 1.415 . S
H3046 C3043 0.999 . S
H3047 C3028 0.913 . S
H3048 C3066 0.951 . S
H3049 C3068 0.951 . S
H3050 C3070 0.950 . S
H3051 C3071 0.950 . S
H3052 C3073 0.950 . S
H3053 C3076 0.950 . S
H3054 C3077 0.950 . S
H3055 C3079 0.950 . S
H3056 C3080 0.950 . S
H3057 C3081 0.951 . S
H3058 C3083 0.951 . S
H3059 C3085 0.950 . S
H3060 C3086 0.950 1_545 S
H3061 C3088 0.950 . S
H3062 C3091 0.950 . S
H3063 C3092 0.950 . S
H3064 C3094 0.950 . S
H3065 C3095 0.950 . S
C3066 H3048 0.951 . S
C3066 C3067 1.366 . S
C3066 C3068 1.388 . S
C3067 C3066 1.366 . S
C3067 C3071 1.385 . S
C3068 H3049 0.951 . S
C3068 C3066 1.388 . S
C3068 C3069 1.366 . S
C3069 C3068 1.366 . S
C3069 C3070 1.414 . S
C3069 C3072 1.499 . S
C3070 H3050 0.950 . S
C3070 C3069 1.414 . S
C3070 C3071 1.374 . S
C3071 H3051 0.950 . S
C3071 C3067 1.385 . S
C3071 C3070 1.374 . S
C3072 C3069 1.499 . S
C3072 C3073 1.373 . S
C3072 C3074 1.389 . S
C3073 H3052 0.950 . S
C3073 C3072 1.373 . S
C3073 C3089 1.377 . S
C3074 C3072 1.389 . S
C3074 C3075 1.524 . S
C3074 C3088 1.377 . S
C3075 C3074 1.524 . S
C3075 C3076 1.397 . S
C3075 C3080 1.363 . S
C3076 H3053 0.950 . S
C3076 C3075 1.397 . S
C3076 C3077 1.334 . S
C3077 H3054 0.950 . S
C3077 C3076 1.334 . S
C3077 C3078 1.287 . S
C3078 C3077 1.287 . S
C3078 C3079 1.524 . S
C3078 H3097 0.913 . S
C3079 H3055 0.950 . S
C3079 C3078 1.524 . S
C3079 C3080 1.415 . S
C3080 H3056 0.950 . S
C3080 C3075 1.363 . S
C3080 C3079 1.415 . S
C3081 H3057 0.951 . S
C3081 C3082 1.366 . S
C3081 C3083 1.388 . S
C3082 C3081 1.366 . S
C3082 C3086 1.385 . S
C3083 H3058 0.951 . S
C3083 C3081 1.388 . S
C3083 C3084 1.366 . S
C3084 C3083 1.366 . S
C3084 C3085 1.414 . S
C3084 C3087 1.499 . S
C3085 H3059 0.950 . S
C3085 C3084 1.414 . S
C3085 C3086 1.374 . S
C3086 H3060 0.950 1_565 S
C3086 C3082 1.385 . S
C3086 C3085 1.374 . S
C3087 C3084 1.499 . S
C3087 C3088 1.373 . S
C3087 C3089 1.389 . S
C3088 H3061 0.950 . S
C3088 C3074 1.377 . S
C3088 C3087 1.373 . S
C3089 C3073 1.377 . S
C3089 C3087 1.389 . S
C3089 C3090 1.524 . S
C3090 C3089 1.524 . S
C3090 C3091 1.397 . S
C3090 C3095 1.363 . S
C3091 H3062 0.950 . S
C3091 C3090 1.397 . S
C3091 C3092 1.334 . S
C3092 H3063 0.950 . S
C3092 C3091 1.334 . S
C3092 C3093 1.287 . S
C3093 C3092 1.287 . S
C3093 C3094 1.524 . S
C3093 H3096 0.999 . S
C3094 H3064 0.950 . S
C3094 C3093 1.524 . S
C3094 C3095 1.415 . S
C3095 H3065 0.950 . S
C3095 C3090 1.363 . S
C3095 C3094 1.415 . S
H3096 C3093 0.999 . S
H3097 C3078 0.913 . S
H3098 C3116 0.951 . S
H3099 C3118 0.951 . S
H3100 C3120 0.950 . S
H3101 C3121 0.950 1_545 S
H3102 C3123 0.950 . S
H3103 C3126 0.950 . S
H3104 C3127 0.950 . S
H3105 C3129 0.950 . S
H3106 C3130 0.950 . S
H3107 C3131 0.951 . S
H3108 C3133 0.951 . S
H3109 C3135 0.950 . S
H3110 C3136 0.950 . S
H3111 C3138 0.950 . S
H3112 C3141 0.950 . S
H3113 C3142 0.950 . S
H3114 C3144 0.950 . S
H3115 C3145 0.950 . S
C3116 H3098 0.951 . S
C3116 C3117 1.366 . S
C3116 C3118 1.388 . S
C3117 C3116 1.366 . S
C3117 C3121 1.385 . S
C3118 H3099 0.951 . S
C3118 C3116 1.388 . S
C3118 C3119 1.366 . S
C3119 C3118 1.366 . S
C3119 C3120 1.414 . S
C3119 C3122 1.499 . S
C3120 H3100 0.950 . S
C3120 C3119 1.414 . S
C3120 C3121 1.374 . S
C3121 H3101 0.950 1_565 S
C3121 C3117 1.385 . S
C3121 C3120 1.374 . S
C3122 C3119 1.499 . S
C3122 C3123 1.373 . S
C3122 C3124 1.389 . S
C3123 H3102 0.950 . S
C3123 C3122 1.373 . S
C3123 C3139 1.377 . S
C3124 C3122 1.389 . S
C3124 C3125 1.524 . S
C3124 C3138 1.377 . S
C3125 C3124 1.524 . S
C3125 C3126 1.397 . S
C3125 C3130 1.363 . S
C3126 H3103 0.950 . S
C3126 C3125 1.397 . S
C3126 C3127 1.334 . S
C3127 H3104 0.950 . S
C3127 C3126 1.334 . S
C3127 C3128 1.287 . S
C3128 C3127 1.287 . S
C3128 C3129 1.524 . S
C3128 H3147 0.913 . S
C3129 H3105 0.950 . S
C3129 C3128 1.524 . S
C3129 C3130 1.415 . S
C3130 H3106 0.950 . S
C3130 C3125 1.363 . S
C3130 C3129 1.415 . S
C3131 H3107 0.951 . S
C3131 C3132 1.366 . S
C3131 C3133 1.388 . S
C3132 C3131 1.366 . S
C3132 C3136 1.385 . S
C3133 H3108 0.951 . S
C3133 C3131 1.388 . S
C3133 C3134 1.366 . S
C3134 C3133 1.366 . S
C3134 C3135 1.414 . S
C3134 C3137 1.499 . S
C3135 H3109 0.950 . S
C3135 C3134 1.414 . S
C3135 C3136 1.374 . S
C3136 H3110 0.950 . S
C3136 C3132 1.385 . S
C3136 C3135 1.374 . S
C3137 C3134 1.499 . S
C3137 C3138 1.373 . S
C3137 C3139 1.389 . S
C3138 H3111 0.950 . S
C3138 C3124 1.377 . S
C3138 C3137 1.373 . S
C3139 C3123 1.377 . S
C3139 C3137 1.389 . S
C3139 C3140 1.524 . S
C3140 C3139 1.524 . S
C3140 C3141 1.397 . S
C3140 C3145 1.363 . S
C3141 H3112 0.950 . S
C3141 C3140 1.397 . S
C3141 C3142 1.334 . S
C3142 H3113 0.950 . S
C3142 C3141 1.334 . S
C3142 C3143 1.287 . S
C3143 C3142 1.287 . S
C3143 C3144 1.524 . S
C3143 H3146 0.999 . S
C3144 H3114 0.950 . S
C3144 C3143 1.524 . S
C3144 C3145 1.415 . S
C3145 H3115 0.950 . S
C3145 C3140 1.363 . S
C3145 C3144 1.415 . S
H3146 C3143 0.999 . S
H3147 C3128 0.913 . S
H3148 C3166 0.951 . S
H3149 C3168 0.951 . S
H3150 C3170 0.950 . S
H3151 C3171 0.950 . S
H3152 C3173 0.950 . S
H3153 C3176 0.950 . S
H3154 C3177 0.950 . S
H3155 C3179 0.950 . S
H3156 C3180 0.950 . S
H3157 C3181 0.951 . S
H3158 C3183 0.951 . S
H3159 C3185 0.950 . S
H3160 C3186 0.950 1_565 S
H3161 C3188 0.950 . S
H3162 C3191 0.950 . S
H3163 C3192 0.950 . S
H3164 C3194 0.950 . S
H3165 C3195 0.950 . S
C3166 H3148 0.951 . S
C3166 C3167 1.366 . S
C3166 C3168 1.388 . S
C3167 C3166 1.366 . S
C3167 C3171 1.385 . S
C3168 H3149 0.951 . S
C3168 C3166 1.388 . S
C3168 C3169 1.366 . S
C3169 C3168 1.366 . S
C3169 C3170 1.414 . S
C3169 C3172 1.499 . S
C3170 H3150 0.950 . S
C3170 C3169 1.414 . S
C3170 C3171 1.374 . S
C3171 H3151 0.950 . S
C3171 C3167 1.385 . S
C3171 C3170 1.374 . S
C3172 C3169 1.499 . S
C3172 C3173 1.373 . S
C3172 C3174 1.389 . S
C3173 H3152 0.950 . S
C3173 C3172 1.373 . S
C3173 C3189 1.377 . S
C3174 C3172 1.389 . S
C3174 C3175 1.524 . S
C3174 C3188 1.377 . S
C3175 C3174 1.524 . S
C3175 C3176 1.397 . S
C3175 C3180 1.363 . S
C3176 H3153 0.950 . S
C3176 C3175 1.397 . S
C3176 C3177 1.334 . S
C3177 H3154 0.950 . S
C3177 C3176 1.334 . S
C3177 C3178 1.287 . S
C3178 C3177 1.287 . S
C3178 C3179 1.524 . S
C3178 H3197 0.913 . S
C3179 H3155 0.950 . S
C3179 C3178 1.524 . S
C3179 C3180 1.415 . S
C3180 H3156 0.950 . S
C3180 C3175 1.363 . S
C3180 C3179 1.415 . S
C3181 H3157 0.951 . S
C3181 C3182 1.366 . S
C3181 C3183 1.388 . S
C3182 C3181 1.366 . S
C3182 C3186 1.385 . S
C3183 H3158 0.951 . S
C3183 C3181 1.388 . S
C3183 C3184 1.366 . S
C3184 C3183 1.366 . S
C3184 C3185 1.414 . S
C3184 C3187 1.499 . S
C3185 H3159 0.950 . S
C3185 C3184 1.414 . S
C3185 C3186 1.374 . S
C3186 H3160 0.950 1_545 S
C3186 C3182 1.385 . S
C3186 C3185 1.374 . S
C3187 C3184 1.499 . S
C3187 C3188 1.373 . S
C3187 C3189 1.389 . S
C3188 H3161 0.950 . S
C3188 C3174 1.377 . S
C3188 C3187 1.373 . S
C3189 C3173 1.377 . S
C3189 C3187 1.389 . S
C3189 C3190 1.524 . S
C3190 C3189 1.524 . S
C3190 C3191 1.397 . S
C3190 C3195 1.363 . S
C3191 H3162 0.950 . S
C3191 C3190 1.397 . S
C3191 C3192 1.334 . S
C3192 H3163 0.950 . S
C3192 C3191 1.334 . S
C3192 C3193 1.287 . S
C3193 C3192 1.287 . S
C3193 C3194 1.524 . S
C3193 H3196 0.999 . S
C3194 H3164 0.950 . S
C3194 C3193 1.524 . S
C3194 C3195 1.415 . S
C3195 H3165 0.950 . S
C3195 C3190 1.363 . S
C3195 C3194 1.415 . S
H3196 C3193 0.999 . S
H3197 C3178 0.913 . S
H3198 C3216 0.951 1_565 S
H3199 C3218 0.951 . S
H3200 C3220 0.950 . S
H3201 C3221 0.950 . S
H3202 C3223 0.950 . S
H3203 C3226 0.950 . S
H3204 C3227 0.950 . S
H3205 C3229 0.950 . S
H3206 C3230 0.950 . S
H3207 C3231 0.951 . S
H3208 C3233 0.951 . S
H3209 C3235 0.950 . S
H3210 C3236 0.950 . S
H3211 C3238 0.950 . S
H3212 C3241 0.950 . S
H3213 C3242 0.950 . S
H3214 C3244 0.950 . S
H3215 C3245 0.950 . S
C3216 H3198 0.951 1_545 S
C3216 C3217 1.366 . S
C3216 C3218 1.388 . S
C3217 C3216 1.366 . S
C3217 C3221 1.385 . S
C3218 H3199 0.951 . S
C3218 C3216 1.388 . S
C3218 C3219 1.366 . S
C3219 C3218 1.366 . S
C3219 C3220 1.414 . S
C3219 C3222 1.499 . S
C3220 H3200 0.950 . S
C3220 C3219 1.414 . S
C3220 C3221 1.374 . S
C3221 H3201 0.950 . S
C3221 C3217 1.385 . S
C3221 C3220 1.374 . S
C3222 C3219 1.499 . S
C3222 C3223 1.373 . S
C3222 C3224 1.389 . S
C3223 H3202 0.950 . S
C3223 C3222 1.373 . S
C3223 C3239 1.377 . S
C3224 C3222 1.389 . S
C3224 C3225 1.524 . S
C3224 C3238 1.377 . S
C3225 C3224 1.524 . S
C3225 C3226 1.397 . S
C3225 C3230 1.363 . S
C3226 H3203 0.950 . S
C3226 C3225 1.397 . S
C3226 C3227 1.334 . S
C3227 H3204 0.950 . S
C3227 C3226 1.334 . S
C3227 C3228 1.287 . S
C3228 C3227 1.287 . S
C3228 C3229 1.524 . S
C3228 H3247 0.913 . S
C3229 H3205 0.950 . S
C3229 C3228 1.524 . S
C3229 C3230 1.415 . S
C3230 H3206 0.950 . S
C3230 C3225 1.363 . S
C3230 C3229 1.415 . S
C3231 H3207 0.951 . S
C3231 C3232 1.366 . S
C3231 C3233 1.388 . S
C3232 C3231 1.366 . S
C3232 C3236 1.385 . S
C3233 H3208 0.951 . S
C3233 C3231 1.388 . S
C3233 C3234 1.366 . S
C3234 C3233 1.366 . S
C3234 C3235 1.414 . S
C3234 C3237 1.499 . S
C3235 H3209 0.950 . S
C3235 C3234 1.414 . S
C3235 C3236 1.374 . S
C3236 H3210 0.950 . S
C3236 C3232 1.385 . S
C3236 C3235 1.374 . S
C3237 C3234 1.499 . S
C3237 C3238 1.373 . S
C3237 C3239 1.389 . S
C3238 H3211 0.950 . S
C3238 C3224 1.377 . S
C3238 C3237 1.373 . S
C3239 C3223 1.377 . S
C3239 C3237 1.389 . S
C3239 C3240 1.524 . S
C3240 C3239 1.524 . S
C3240 C3241 1.397 . S
C3240 C3245 1.363 . S
C3241 H3212 0.950 . S
C3241 C3240 1.397 . S
C3241 C3242 1.334 . S
C3242 H3213 0.950 . S
C3242 C3241 1.334 . S
C3242 C3243 1.287 . S
C3243 C3242 1.287 . S
C3243 C3244 1.524 . S
C3243 H3246 0.999 . S
C3244 H3214 0.950 . S
C3244 C3243 1.524 . S
C3244 C3245 1.415 . S
C3245 H3215 0.950 . S
C3245 C3240 1.363 . S
C3245 C3244 1.415 . S
H3246 C3243 0.999 . S
H3247 C3228 0.913 . S
H3248 C3266 0.951 . S
H3249 C3268 0.951 . S
H3250 C3270 0.950 . S
H3251 C3271 0.950 . S
H3252 C3273 0.950 . S
H3253 C3276 0.950 . S
H3254 C3277 0.950 . S
H3255 C3279 0.950 . S
H3256 C3280 0.950 . S
H3257 C3281 0.951 . S
H3258 C3283 0.951 . S
H3259 C3285 0.950 . S
H3260 C3286 0.950 . S
H3261 C3288 0.950 . S
H3262 C3291 0.950 . S
H3263 C3292 0.950 . S
H3264 C3294 0.950 . S
H3265 C3295 0.950 . S
C3266 H3248 0.951 . S
C3266 C3267 1.366 . S
C3266 C3268 1.388 . S
C3267 C3266 1.366 . S
C3267 C3271 1.385 . S
C3268 H3249 0.951 . S
C3268 C3266 1.388 . S
C3268 C3269 1.366 . S
C3269 C3268 1.366 . S
C3269 C3270 1.414 . S
C3269 C3272 1.499 . S
C3270 H3250 0.950 . S
C3270 C3269 1.414 . S
C3270 C3271 1.374 . S
C3271 H3251 0.950 . S
C3271 C3267 1.385 . S
C3271 C3270 1.374 . S
C3272 C3269 1.499 . S
C3272 C3273 1.373 . S
C3272 C3274 1.389 . S
C3273 H3252 0.950 . S
C3273 C3272 1.373 . S
C3273 C3289 1.377 . S
C3274 C3272 1.389 . S
C3274 C3275 1.524 . S
C3274 C3288 1.377 . S
C3275 C3274 1.524 . S
C3275 C3276 1.397 . S
C3275 C3280 1.363 . S
C3276 H3253 0.950 . S
C3276 C3275 1.397 . S
C3276 C3277 1.334 . S
C3277 H3254 0.950 . S
C3277 C3276 1.334 . S
C3277 C3278 1.287 . S
C3278 C3277 1.287 . S
C3278 C3279 1.524 . S
C3278 H3297 0.913 . S
C3279 H3255 0.950 . S
C3279 C3278 1.524 . S
C3279 C3280 1.415 . S
C3280 H3256 0.950 . S
C3280 C3275 1.363 . S
C3280 C3279 1.415 . S
C3281 H3257 0.951 . S
C3281 C3282 1.366 . S
C3281 C3283 1.388 . S
C3282 C3281 1.366 . S
C3282 C3286 1.385 . S
C3283 H3258 0.951 . S
C3283 C3281 1.388 . S
C3283 C3284 1.366 . S
C3284 C3283 1.366 . S
C3284 C3285 1.414 . S
C3284 C3287 1.499 . S
C3285 H3259 0.950 . S
C3285 C3284 1.414 . S
C3285 C3286 1.374 . S
C3286 H3260 0.950 . S
C3286 C3282 1.385 . S
C3286 C3285 1.374 . S
C3287 C3284 1.499 . S
C3287 C3288 1.373 . S
C3287 C3289 1.389 . S
C3288 H3261 0.950 . S
C3288 C3274 1.377 . S
C3288 C3287 1.373 . S
C3289 C3273 1.377 . S
C3289 C3287 1.389 . S
C3289 C3290 1.524 . S
C3290 C3289 1.524 . S
C3290 C3291 1.397 . S
C3290 C3295 1.363 . S
C3291 H3262 0.950 . S
C3291 C3290 1.397 . S
C3291 C3292 1.334 . S
C3292 H3263 0.950 . S
C3292 C3291 1.334 . S
C3292 C3293 1.287 . S
C3293 C3292 1.287 . S
C3293 C3294 1.524 . S
C3293 H3296 0.999 . S
C3294 H3264 0.950 . S
C3294 C3293 1.524 . S
C3294 C3295 1.415 . S
C3295 H3265 0.950 . S
C3295 C3290 1.363 . S
C3295 C3294 1.415 . S
H3296 C3293 0.999 . S
H3297 C3278 0.913 . S
H3298 C3316 0.951 . S
H3299 C3318 0.951 . S
H3300 C3320 0.950 . S
H3301 C3321 0.950 . S
H3302 C3323 0.950 . S
H3303 C3326 0.950 . S
H3304 C3327 0.950 . S
H3305 C3329 0.950 . S
H3306 C3330 0.950 . S
H3307 C3331 0.951 . S
H3308 C3333 0.951 . S
H3309 C3335 0.950 . S
H3310 C3336 0.950 . S
H3311 C3338 0.950 . S
H3312 C3341 0.950 . S
H3313 C3342 0.950 . S
H3314 C3344 0.950 . S
H3315 C3345 0.950 . S
C3316 H3298 0.951 . S
C3316 C3317 1.366 . S
C3316 C3318 1.388 . S
C3317 C3316 1.366 . S
C3317 C3321 1.385 . S
C3318 H3299 0.951 . S
C3318 C3316 1.388 . S
C3318 C3319 1.366 . S
C3319 C3318 1.366 . S
C3319 C3320 1.414 . S
C3319 C3322 1.499 . S
C3320 H3300 0.950 . S
C3320 C3319 1.414 . S
C3320 C3321 1.374 . S
C3321 H3301 0.950 . S
C3321 C3317 1.385 . S
C3321 C3320 1.374 . S
C3322 C3319 1.499 . S
C3322 C3323 1.373 . S
C3322 C3324 1.389 . S
C3323 H3302 0.950 . S
C3323 C3322 1.373 . S
C3323 C3339 1.377 . S
C3324 C3322 1.389 . S
C3324 C3325 1.524 . S
C3324 C3338 1.377 . S
C3325 C3324 1.524 . S
C3325 C3326 1.397 . S
C3325 C3330 1.363 . S
C3326 H3303 0.950 . S
C3326 C3325 1.397 . S
C3326 C3327 1.334 . S
C3327 H3304 0.950 . S
C3327 C3326 1.334 . S
C3327 C3328 1.287 . S
C3328 C3327 1.287 . S
C3328 C3329 1.524 . S
C3328 H3347 0.913 . S
C3329 H3305 0.950 . S
C3329 C3328 1.524 . S
C3329 C3330 1.415 . S
C3330 H3306 0.950 . S
C3330 C3325 1.363 . S
C3330 C3329 1.415 . S
C3331 H3307 0.951 . S
C3331 C3332 1.366 . S
C3331 C3333 1.388 . S
C3332 C3331 1.366 . S
C3332 C3336 1.385 . S
C3333 H3308 0.951 . S
C3333 C3331 1.388 . S
C3333 C3334 1.366 . S
C3334 C3333 1.366 . S
C3334 C3335 1.414 . S
C3334 C3337 1.499 . S
C3335 H3309 0.950 . S
C3335 C3334 1.414 . S
C3335 C3336 1.374 . S
C3336 H3310 0.950 . S
C3336 C3332 1.385 . S
C3336 C3335 1.374 . S
C3337 C3334 1.499 . S
C3337 C3338 1.373 . S
C3337 C3339 1.389 . S
C3338 H3311 0.950 . S
C3338 C3324 1.377 . S
C3338 C3337 1.373 . S
C3339 C3323 1.377 . S
C3339 C3337 1.389 . S
C3339 C3340 1.524 . S
C3340 C3339 1.524 . S
C3340 C3341 1.397 . S
C3340 C3345 1.363 . S
C3341 H3312 0.950 . S
C3341 C3340 1.397 . S
C3341 C3342 1.334 . S
C3342 H3313 0.950 . S
C3342 C3341 1.334 . S
C3342 C3343 1.287 . S
C3343 C3342 1.287 . S
C3343 C3344 1.524 . S
C3343 H3346 0.999 . S
C3344 H3314 0.950 . S
C3344 C3343 1.524 . S
C3344 C3345 1.415 . S
C3345 H3315 0.950 . S
C3345 C3340 1.363 . S
C3345 C3344 1.415 . S
H3346 C3343 0.999 . S
H3347 C3328 0.913 . S
H3348 C3366 0.951 . S
H3349 C3368 0.951 . S
H3350 C3370 0.950 . S
H3351 C3371 0.950 . S
H3352 C3373 0.950 . S
H3353 C3376 0.950 . S
H3354 C3377 0.950 . S
H3355 C3379 0.950 . S
H3356 C3380 0.950 . S
H3357 C3381 0.951 . S
H3358 C3383 0.951 . S
H3359 C3385 0.950 . S
H3360 C3386 0.950 . S
H3361 C3388 0.950 . S
H3362 C3391 0.950 . S
H3363 C3392 0.950 . S
H3364 C3394 0.950 . S
H3365 C3395 0.950 . S
C3366 H3348 0.951 . S
C3366 C3367 1.366 . S
C3366 C3368 1.388 . S
C3367 C3366 1.366 . S
C3367 C3371 1.385 . S
C3368 H3349 0.951 . S
C3368 C3366 1.388 . S
C3368 C3369 1.366 . S
C3369 C3368 1.366 . S
C3369 C3370 1.414 . S
C3369 C3372 1.499 . S
C3370 H3350 0.950 . S
C3370 C3369 1.414 . S
C3370 C3371 1.374 . S
C3371 H3351 0.950 . S
C3371 C3367 1.385 . S
C3371 C3370 1.374 . S
C3372 C3369 1.499 . S
C3372 C3373 1.373 . S
C3372 C3374 1.389 . S
C3373 H3352 0.950 . S
C3373 C3372 1.373 . S
C3373 C3389 1.377 . S
C3374 C3372 1.389 . S
C3374 C3375 1.524 . S
C3374 C3388 1.377 . S
C3375 C3374 1.524 . S
C3375 C3376 1.397 . S
C3375 C3380 1.363 . S
C3376 H3353 0.950 . S
C3376 C3375 1.397 . S
C3376 C3377 1.334 . S
C3377 H3354 0.950 . S
C3377 C3376 1.334 . S
C3377 C3378 1.287 . S
C3378 C3377 1.287 . S
C3378 C3379 1.524 . S
C3378 H3397 0.913 . S
C3379 H3355 0.950 . S
C3379 C3378 1.524 . S
C3379 C3380 1.415 . S
C3380 H3356 0.950 . S
C3380 C3375 1.363 . S
C3380 C3379 1.415 . S
C3381 H3357 0.951 . S
C3381 C3382 1.366 . S
C3381 C3383 1.388 . S
C3382 C3381 1.366 . S
C3382 C3386 1.385 . S
C3383 H3358 0.951 . S
C3383 C3381 1.388 . S
C3383 C3384 1.366 . S
C3384 C3383 1.366 . S
C3384 C3385 1.414 . S
C3384 C3387 1.499 . S
C3385 H3359 0.950 . S
C3385 C3384 1.414 . S
C3385 C3386 1.374 . S
C3386 H3360 0.950 . S
C3386 C3382 1.385 . S
C3386 C3385 1.374 . S
C3387 C3384 1.499 . S
C3387 C3388 1.373 . S
C3387 C3389 1.389 . S
C3388 H3361 0.950 . S
C3388 C3374 1.377 . S
C3388 C3387 1.373 . S
C3389 C3373 1.377 . S
C3389 C3387 1.389 . S
C3389 C3390 1.524 . S
C3390 C3389 1.524 . S
C3390 C3391 1.397 . S
C3390 C3395 1.363 . S
C3391 H3362 0.950 . S
C3391 C3390 1.397 . S
C3391 C3392 1.334 . S
C3392 H3363 0.950 . S
C3392 C3391 1.334 . S
C3392 C3393 1.287 . S
C3393 C3392 1.287 . S
C3393 C3394 1.524 . S
C3393 H3396 0.999 . S
C3394 H3364 0.950 . S
C3394 C3393 1.524 . S
C3394 C3395 1.415 . S
C3395 H3365 0.950 . S
C3395 C3390 1.363 . S
C3395 C3394 1.415 . S
H3396 C3393 0.999 . S
H3397 C3378 0.913 . S
H3398 C3416 0.951 . S
H3399 C3418 0.951 . S
H3400 C3420 0.950 . S
H3401 C3421 0.950 . S
H3402 C3423 0.950 . S
H3403 C3426 0.950 . S
H3404 C3427 0.950 . S
H3405 C3429 0.950 . S
H3406 C3430 0.950 . S
H3407 C3431 0.951 . S
H3408 C3433 0.951 . S
H3409 C3435 0.950 . S
H3410 C3436 0.950 . S
H3411 C3438 0.950 . S
H3412 C3441 0.950 . S
H3413 C3442 0.950 . S
H3414 C3444 0.950 . S
H3415 C3445 0.950 . S
C3416 H3398 0.951 . S
C3416 C3417 1.366 . S
C3416 C3418 1.388 . S
C3417 C3416 1.366 . S
C3417 C3421 1.385 . S
C3418 H3399 0.951 . S
C3418 C3416 1.388 . S
C3418 C3419 1.366 . S
C3419 C3418 1.366 . S
C3419 C3420 1.414 . S
C3419 C3422 1.499 . S
C3420 H3400 0.950 . S
C3420 C3419 1.414 . S
C3420 C3421 1.374 . S
C3421 H3401 0.950 . S
C3421 C3417 1.385 . S
C3421 C3420 1.374 . S
C3422 C3419 1.499 . S
C3422 C3423 1.373 . S
C3422 C3424 1.389 . S
C3423 H3402 0.950 . S
C3423 C3422 1.373 . S
C3423 C3439 1.377 . S
C3424 C3422 1.389 . S
C3424 C3425 1.524 . S
C3424 C3438 1.377 . S
C3425 C3424 1.524 . S
C3425 C3426 1.397 . S
C3425 C3430 1.363 . S
C3426 H3403 0.950 . S
C3426 C3425 1.397 . S
C3426 C3427 1.334 . S
C3427 H3404 0.950 . S
C3427 C3426 1.334 . S
C3427 C3428 1.287 . S
C3428 C3427 1.287 . S
C3428 C3429 1.524 . S
C3428 H3447 0.913 . S
C3429 H3405 0.950 . S
C3429 C3428 1.524 . S
C3429 C3430 1.415 . S
C3430 H3406 0.950 . S
C3430 C3425 1.363 . S
C3430 C3429 1.415 . S
C3431 H3407 0.951 . S
C3431 C3432 1.366 . S
C3431 C3433 1.388 . S
C3432 C3431 1.366 . S
C3432 C3436 1.385 . S
C3433 H3408 0.951 . S
C3433 C3431 1.388 . S
C3433 C3434 1.366 . S
C3434 C3433 1.366 . S
C3434 C3435 1.414 . S
C3434 C3437 1.499 . S
C3435 H3409 0.950 . S
C3435 C3434 1.414 . S
C3435 C3436 1.374 . S
C3436 H3410 0.950 . S
C3436 C3432 1.385 . S
C3436 C3435 1.374 . S
C3437 C3434 1.499 . S
C3437 C3438 1.373 . S
C3437 C3439 1.389 . S
C3438 H3411 0.950 . S
C3438 C3424 1.377 . S
C3438 C3437 1.373 . S
C3439 C3423 1.377 . S
C3439 C3437 1.389 . S
C3439 C3440 1.524 . S
C3440 C3439 1.524 . S
C3440 C3441 1.397 . S
C3440 C3445 1.363 . S
C3441 H3412 0.950 . S
C3441 C3440 1.397 . S
C3441 C3442 1.334 . S
C3442 H3413 0.950 . S
C3442 C3441 1.334 . S
C3442 C3443 1.287 . S
C3443 C3442 1.287 . S
C3443 C3444 1.524 . S
C3443 H3446 0.999 . S
C3444 H3414 0.950 . S
C3444 C3443 1.524 . S
C3444 C3445 1.415 . S
C3445 H3415 0.950 . S
C3445 C3440 1.363 . S
C3445 C3444 1.415 . S
H3446 C3443 0.999 . S
H3447 C3428 0.913 . S
H3448 C3466 0.951 . S
H3449 C3468 0.951 . S
H3450 C3470 0.950 . S
H3451 C3471 0.950 . S
H3452 C3473 0.950 . S
H3453 C3476 0.950 . S
H3454 C3477 0.950 . S
H3455 C3479 0.950 . S
H3456 C3480 0.950 . S
H3457 C3481 0.951 . S
H3458 C3483 0.951 . S
H3459 C3485 0.950 . S
H3460 C3486 0.950 . S
H3461 C3488 0.950 . S
H3462 C3491 0.950 . S
H3463 C3492 0.950 . S
H3464 C3494 0.950 . S
H3465 C3495 0.950 . S
C3466 H3448 0.951 . S
C3466 C3467 1.366 . S
C3466 C3468 1.388 . S
C3467 C3466 1.366 . S
C3467 C3471 1.385 . S
C3468 H3449 0.951 . S
C3468 C3466 1.388 . S
C3468 C3469 1.366 . S
C3469 C3468 1.366 . S
C3469 C3470 1.414 . S
C3469 C3472 1.499 . S
C3470 H3450 0.950 . S
C3470 C3469 1.414 . S
C3470 C3471 1.374 . S
C3471 H3451 0.950 . S
C3471 C3467 1.385 . S
C3471 C3470 1.374 . S
C3472 C3469 1.499 . S
C3472 C3473 1.373 . S
C3472 C3474 1.389 . S
C3473 H3452 0.950 . S
C3473 C3472 1.373 . S
C3473 C3489 1.377 . S
C3474 C3472 1.389 . S
C3474 C3475 1.524 . S
C3474 C3488 1.377 . S
C3475 C3474 1.524 . S
C3475 C3476 1.397 . S
C3475 C3480 1.363 . S
C3476 H3453 0.950 . S
C3476 C3475 1.397 . S
C3476 C3477 1.334 . S
C3477 H3454 0.950 . S
C3477 C3476 1.334 . S
C3477 C3478 1.287 . S
C3478 C3477 1.287 . S
C3478 C3479 1.524 . S
C3478 H3497 0.913 . S
C3479 H3455 0.950 . S
C3479 C3478 1.524 . S
C3479 C3480 1.415 . S
C3480 H3456 0.950 . S
C3480 C3475 1.363 . S
C3480 C3479 1.415 . S
C3481 H3457 0.951 . S
C3481 C3482 1.366 . S
C3481 C3483 1.388 . S
C3482 C3481 1.366 . S
C3482 C3486 1.385 . S
C3483 H3458 0.951 . S
C3483 C3481 1.388 . S
C3483 C3484 1.366 . S
C3484 C3483 1.366 . S
C3484 C3485 1.414 . S
C3484 C3487 1.499 . S
C3485 H3459 0.950 . S
C3485 C3484 1.414 . S
C3485 C3486 1.374 . S
C3486 H3460 0.950 . S
C3486 C3482 1.385 . S
C3486 C3485 1.374 . S
C3487 C3484 1.499 . S
C3487 C3488 1.373 . S
C3487 C3489 1.389 . S
C3488 H3461 0.950 . S
C3488 C3474 1.377 . S
C3488 C3487 1.373 . S
C3489 C3473 1.377 . S
C3489 C3487 1.389 . S
C3489 C3490 1.524 . S
C3490 C3489 1.524 . S
C3490 C3491 1.397 . S
C3490 C3495 1.363 . S
C3491 H3462 0.950 . S
C3491 C3490 1.397 . S
C3491 C3492 1.334 . S
C3492 H3463 0.950 . S
C3492 C3491 1.334 . S
C3492 C3493 1.287 . S
C3493 C3492 1.287 . S
C3493 C3494 1.524 . S
C3493 H3496 0.999 . S
C3494 H3464 0.950 . S
C3494 C3493 1.524 . S
C3494 C3495 1.415 . S
C3495 H3465 0.950 . S
C3495 C3490 1.363 . S
C3495 C3494 1.415 . S
H3496 C3493 0.999 . S
H3497 C3478 0.913 . S
H3498 C3516 0.951 . S
H3499 C3518 0.951 . S
H3500 C3520 0.950 . S
H3501 C3521 0.950 . S
H3502 C3523 0.950 . S
H3503 C3526 0.950 . S
H3504 C3527 0.950 . S
H3505 C3529 0.950 . S
H3506 C3530 0.950 . S
H3507 C3531 0.951 . S
H3508 C3533 0.951 . S
H3509 C3535 0.950 . S
H3510 C3536 0.950 . S
H3511 C3538 0.950 . S
H3512 C3541 0.950 . S
H3513 C3542 0.950 . S
H3514 C3544 0.950 . S
H3515 C3545 0.950 . S
C3516 H3498 0.951 . S
C3516 C3517 1.366 . S
C3516 C3518 1.388 . S
C3517 C3516 1.366 . S
C3517 C3521 1.385 . S
C3518 H3499 0.951 . S
C3518 C3516 1.388 . S
C3518 C3519 1.366 . S
C3519 C3518 1.366 . S
C3519 C3520 1.414 . S
C3519 C3522 1.499 . S
C3520 H3500 0.950 . S
C3520 C3519 1.414 . S
C3520 C3521 1.374 . S
C3521 H3501 0.950 . S
C3521 C3517 1.385 . S
C3521 C3520 1.374 . S
C3522 C3519 1.499 . S
C3522 C3523 1.373 . S
C3522 C3524 1.389 . S
C3523 H3502 0.950 . S
C3523 C3522 1.373 . S
C3523 C3539 1.377 . S
C3524 C3522 1.389 . S
C3524 C3525 1.524 . S
C3524 C3538 1.377 . S
C3525 C3524 1.524 . S
C3525 C3526 1.397 . S
C3525 C3530 1.363 . S
C3526 H3503 0.950 . S
C3526 C3525 1.397 . S
C3526 C3527 1.334 . S
C3527 H3504 0.950 . S
C3527 C3526 1.334 . S
C3527 C3528 1.287 . S
C3528 C3527 1.287 . S
C3528 C3529 1.524 . S
C3528 H3547 0.913 . S
C3529 H3505 0.950 . S
C3529 C3528 1.524 . S
C3529 C3530 1.415 . S
C3530 H3506 0.950 . S
C3530 C3525 1.363 . S
C3530 C3529 1.415 . S
C3531 H3507 0.951 . S
C3531 C3532 1.366 . S
C3531 C3533 1.388 . S
C3532 C3531 1.366 . S
C3532 C3536 1.385 . S
C3533 H3508 0.951 . S
C3533 C3531 1.388 . S
C3533 C3534 1.366 . S
C3534 C3533 1.366 . S
C3534 C3535 1.414 . S
C3534 C3537 1.499 . S
C3535 H3509 0.950 . S
C3535 C3534 1.414 . S
C3535 C3536 1.374 . S
C3536 H3510 0.950 . S
C3536 C3532 1.385 . S
C3536 C3535 1.374 . S
C3537 C3534 1.499 . S
C3537 C3538 1.373 . S
C3537 C3539 1.389 . S
C3538 H3511 0.950 . S
C3538 C3524 1.377 . S
C3538 C3537 1.373 . S
C3539 C3523 1.377 . S
C3539 C3537 1.389 . S
C3539 C3540 1.524 . S
C3540 C3539 1.524 . S
C3540 C3541 1.397 . S
C3540 C3545 1.363 . S
C3541 H3512 0.950 . S
C3541 C3540 1.397 . S
C3541 C3542 1.334 . S
C3542 H3513 0.950 . S
C3542 C3541 1.334 . S
C3542 C3543 1.287 . S
C3543 C3542 1.287 . S
C3543 C3544 1.524 . S
C3543 H3546 0.999 . S
C3544 H3514 0.950 . S
C3544 C3543 1.524 . S
C3544 C3545 1.415 . S
C3545 H3515 0.950 . S
C3545 C3540 1.363 . S
C3545 C3544 1.415 . S
H3546 C3543 0.999 . S
H3547 C3528 0.913 . S
H3548 C3566 0.951 . S
H3549 C3568 0.951 . S
H3550 C3570 0.950 . S
H3551 C3571 0.950 . S
H3552 C3573 0.950 . S
H3553 C3576 0.950 . S
H3554 C3577 0.950 . S
H3555 C3579 0.950 . S
H3556 C3580 0.950 . S
H3557 C3581 0.951 . S
H3558 C3583 0.951 . S
H3559 C3585 0.950 . S
H3560 C3586 0.950 . S
H3561 C3588 0.950 . S
H3562 C3591 0.950 . S
H3563 C3592 0.950 . S
H3564 C3594 0.950 . S
H3565 C3595 0.950 . S
C3566 H3548 0.951 . S
C3566 C3567 1.366 . S
C3566 C3568 1.388 . S
C3567 C3566 1.366 . S
C3567 C3571 1.385 . S
C3568 H3549 0.951 . S
C3568 C3566 1.388 . S
C3568 C3569 1.366 . S
C3569 C3568 1.366 . S
C3569 C3570 1.414 . S
C3569 C3572 1.499 . S
C3570 H3550 0.950 . S
C3570 C3569 1.414 . S
C3570 C3571 1.374 . S
C3571 H3551 0.950 . S
C3571 C3567 1.385 . S
C3571 C3570 1.374 . S
C3572 C3569 1.499 . S
C3572 C3573 1.373 . S
C3572 C3574 1.389 . S
C3573 H3552 0.950 . S
C3573 C3572 1.373 . S
C3573 C3589 1.377 . S
C3574 C3572 1.389 . S
C3574 C3575 1.524 . S
C3574 C3588 1.377 . S
C3575 C3574 1.524 . S
C3575 C3576 1.397 . S
C3575 C3580 1.363 . S
C3576 H3553 0.950 . S
C3576 C3575 1.397 . S
C3576 C3577 1.334 . S
C3577 H3554 0.950 . S
C3577 C3576 1.334 . S
C3577 C3578 1.287 . S
C3578 C3577 1.287 . S
C3578 C3579 1.524 . S
C3578 H3597 0.913 . S
C3579 H3555 0.950 . S
C3579 C3578 1.524 . S
C3579 C3580 1.415 . S
C3580 H3556 0.950 . S
C3580 C3575 1.363 . S
C3580 C3579 1.415 . S
C3581 H3557 0.951 . S
C3581 C3582 1.366 . S
C3581 C3583 1.388 . S
C3582 C3581 1.366 . S
C3582 C3586 1.385 . S
C3583 H3558 0.951 . S
C3583 C3581 1.388 . S
C3583 C3584 1.366 . S
C3584 C3583 1.366 . S
C3584 C3585 1.414 . S
C3584 C3587 1.499 . S
C3585 H3559 0.950 . S
C3585 C3584 1.414 . S
C3585 C3586 1.374 . S
C3586 H3560 0.950 . S
C3586 C3582 1.385 . S
C3586 C3585 1.374 . S
C3587 C3584 1.499 . S
C3587 C3588 1.373 . S
C3587 C3589 1.389 . S
C3588 H3561 0.950 . S
C3588 C3574 1.377 . S
C3588 C3587 1.373 . S
C3589 C3573 1.377 . S
C3589 C3587 1.389 . S
C3589 C3590 1.524 . S
C3590 C3589 1.524 . S
C3590 C3591 1.397 . S
C3590 C3595 1.363 . S
C3591 H3562 0.950 . S
C3591 C3590 1.397 . S
C3591 C3592 1.334 . S
C3592 H3563 0.950 . S
C3592 C3591 1.334 . S
C3592 C3593 1.287 . S
C3593 C3592 1.287 . S
C3593 C3594 1.524 . S
C3593 H3596 0.999 . S
C3594 H3564 0.950 . S
C3594 C3593 1.524 . S
C3594 C3595 1.415 . S
C3595 H3565 0.950 . S
C3595 C3590 1.363 . S
C3595 C3594 1.415 . S
H3596 C3593 0.999 . S
H3597 C3578 0.913 . S
H3598 C3616 0.951 . S
H3599 C3618 0.951 . S
H3600 C3620 0.950 . S
H3601 C3621 0.950 . S
H3602 C3623 0.950 . S
H3603 C3626 0.950 . S
H3604 C3627 0.950 . S
H3605 C3629 0.950 . S
H3606 C3630 0.950 . S
H3607 C3631 0.951 . S
H3608 C3633 0.951 . S
H3609 C3635 0.950 . S
H3610 C3636 0.950 . S
H3611 C3638 0.950 . S
H3612 C3641 0.950 . S
H3613 C3642 0.950 . S
H3614 C3644 0.950 . S
H3615 C3645 0.950 . S
C3616 H3598 0.951 . S
C3616 C3617 1.366 . S
C3616 C3618 1.388 . S
C3617 C3616 1.366 . S
C3617 C3621 1.385 . S
C3618 H3599 0.951 . S
C3618 C3616 1.388 . S
C3618 C3619 1.366 . S
C3619 C3618 1.366 . S
C3619 C3620 1.414 . S
C3619 C3622 1.499 . S
C3620 H3600 0.950 . S
C3620 C3619 1.414 . S
C3620 C3621 1.374 . S
C3621 H3601 0.950 . S
C3621 C3617 1.385 . S
C3621 C3620 1.374 . S
C3622 C3619 1.499 . S
C3622 C3623 1.373 . S
C3622 C3624 1.389 . S
C3623 H3602 0.950 . S
C3623 C3622 1.373 . S
C3623 C3639 1.377 . S
C3624 C3622 1.389 . S
C3624 C3625 1.524 . S
C3624 C3638 1.377 . S
C3625 C3624 1.524 . S
C3625 C3626 1.397 . S
C3625 C3630 1.363 . S
C3626 H3603 0.950 . S
C3626 C3625 1.397 . S
C3626 C3627 1.334 . S
C3627 H3604 0.950 . S
C3627 C3626 1.334 . S
C3627 C3628 1.287 . S
C3628 C3627 1.287 . S
C3628 C3629 1.524 . S
C3628 H3647 0.913 . S
C3629 H3605 0.950 . S
C3629 C3628 1.524 . S
C3629 C3630 1.415 . S
C3630 H3606 0.950 . S
C3630 C3625 1.363 . S
C3630 C3629 1.415 . S
C3631 H3607 0.951 . S
C3631 C3632 1.366 . S
C3631 C3633 1.388 . S
C3632 C3631 1.366 . S
C3632 C3636 1.385 . S
C3633 H3608 0.951 . S
C3633 C3631 1.388 . S
C3633 C3634 1.366 . S
C3634 C3633 1.366 . S
C3634 C3635 1.414 . S
C3634 C3637 1.499 . S
C3635 H3609 0.950 . S
C3635 C3634 1.414 . S
C3635 C3636 1.374 . S
C3636 H3610 0.950 . S
C3636 C3632 1.385 . S
C3636 C3635 1.374 . S
C3637 C3634 1.499 . S
C3637 C3638 1.373 . S
C3637 C3639 1.389 . S
C3638 H3611 0.950 . S
C3638 C3624 1.377 . S
C3638 C3637 1.373 . S
C3639 C3623 1.377 . S
C3639 C3637 1.389 . S
C3639 C3640 1.524 . S
C3640 C3639 1.524 . S
C3640 C3641 1.397 . S
C3640 C3645 1.363 . S
C3641 H3612 0.950 . S
C3641 C3640 1.397 . S
C3641 C3642 1.334 . S
C3642 H3613 0.950 . S
C3642 C3641 1.334 . S
C3642 C3643 1.287 . S
C3643 C3642 1.287 . S
C3643 C3644 1.524 . S
C3643 H3646 0.999 . S
C3644 H3614 0.950 . S
C3644 C3643 1.524 . S
C3644 C3645 1.415 . S
C3645 H3615 0.950 . S
C3645 C3640 1.363 . S
C3645 C3644 1.415 . S
H3646 C3643 0.999 . S
H3647 C3628 0.913 . S
C467 C383 1.226 . S
C482 C5 1.222 . S
C517 C19 1.221 1_655 S
C532 C117 1.227 . S
C567 C355 1.226 . S
C582 C33 1.222 . S
C617 C47 1.222 . S
C632 C145 1.226 . S
C667 C61 1.221 . S
C682 C411 1.227 . S
C717 C75 1.222 . S
C732 C201 1.226 . S
C767 C89 1.221 . S
C782 C439 1.227 . S
C817 C103 1.221 1_655 S
C832 C173 1.227 . S
C867 C275 1.265 . S
C882 C121 1.252 . S
C917 C9 1.265 . S
C932 C135 1.228 1_455 S
C967 C247 1.265 . S
C982 C149 1.251 . S
C1017 C163 1.251 . S
C1032 C37 1.265 . S
C1067 C303 1.265 . S
C1082 C177 1.251 . S
C1117 C93 1.265 . S
C1132 C191 1.252 . S
C1167 C205 1.251 . S
C1182 C331 1.265 . S
C1217 C65 1.265 . S
C1232 C219 1.227 1_455 S
C1267 C229 1.221 . S
C1282 C159 1.227 . S
C1317 C243 1.221 . S
C1332 C341 1.227 . S
C1367 C131 1.226 . S
C1382 C257 1.221 . S
C1417 C369 1.226 . S
C1432 C271 1.222 1_455 S
C1467 C187 1.227 . S
C1482 C285 1.222 . S
C1517 C425 1.226 . S
C1532 C299 1.221 1_455 S
C1567 C215 1.226 . S
C1582 C313 1.222 . S
C1617 C327 1.222 . S
C1632 C397 1.226 . S
C1667 C51 1.265 . S
C1682 C345 1.252 . S
C1717 C359 1.251 . S
C1732 C233 1.265 . S
C1767 C373 1.252 . S
C1782 C23 1.265 . S
C1817 C387 1.227 1_655 S
C1832 C261 1.265 . S
C1867 C401 1.252 . S
C1882 C79 1.265 . S
C1917 C415 1.229 1_655 S
C1932 C317 1.265 . S
C1967 C429 1.251 . S
C1982 C107 1.265 . S
C2017 C443 1.251 . S
C2032 C289 1.265 . S
C2067 C347 1.510 . S
C2082 C0 1.506 . S
C2117 C14 1.506 . S
C2132 C137 1.510 . S
C2167 C375 1.510 . S
C2182 C28 1.506 . S
C2217 C42 1.506 . S
C2232 C165 1.510 . S
C2267 C403 1.510 . S
C2282 C56 1.505 . S
C2317 C70 1.506 . S
C2332 C193 1.510 . S
C2367 C431 1.509 . S
C2382 C84 1.505 . S
C2417 C98 1.506 . S
C2432 C221 1.510 . S
C2467 C123 1.509 . S
C2482 C224 1.505 . S
C2517 C151 1.509 . S
C2532 C252 1.505 . S
C2567 C179 1.510 . S
C2582 C280 1.506 . S
C2617 C207 1.510 . S
C2632 C308 1.506 . S
C2667 C238 1.505 . S
C2682 C361 1.510 . S
C2717 C389 1.510 . S
C2732 C266 1.506 . S
C2767 C417 1.510 . S
C2782 C294 1.506 . S
C2817 C322 1.505 . S
C2832 C445 1.510 . S
C2867 C11 1.399 . S
C2882 C81 1.399 1_545 S
C2917 C25 1.399 1_545 S
C2932 C95 1.399 . S
C2967 C39 1.399 . S
C2982 C109 1.399 1_565 S
C3017 C67 1.399 . S
C3032 C53 1.399 1_565 S
C3067 C112 1.546 . S
C3082 C182 1.546 1_565 S
C3117 C126 1.546 1_565 S
C3132 C196 1.546 . S
C3167 C140 1.546 . S
C3182 C210 1.546 1_545 S
C3217 C154 1.546 1_545 S
C3232 C168 1.546 . S
C3267 C235 1.399 . S
C3282 C305 1.399 . S
C3317 C319 1.399 . S
C3332 C249 1.399 . S
C3367 C263 1.399 . S
C3382 C333 1.399 . S
C3417 C277 1.399 . S
C3432 C291 1.399 . S
C3467 C406 1.546 . S
C3482 C336 1.546 . S
C3517 C350 1.546 . S
C3532 C420 1.546 . S
C3567 C434 1.546 . S
C3582 C364 1.546 . S
C3617 C378 1.546 . S
C3632 C392 1.546 . S
