# Generated by pormake.
# Topology pts-e, (5)-cn, num edge types: 1
# Building blocks:
#     Node 0, Type 0, BuildingBlock: XOMCOT_clean_sbu_0, # of connection points: 5
#     Node 1, Type 0, BuildingBlock: XOMCOT_clean_sbu_0, # of connection points: 5
#     Node 2, Type 0, BuildingBlock: XOMCOT_clean_sbu_0, # of connection points: 5
#     Node 3, Type 0, BuildingBlock: XOMCOT_clean_sbu_0, # of connection points: 5
#     Node 4, Type 0, BuildingBlock: XOMCOT_clean_sbu_0, # of connection points: 5
#     Node 5, Type 0, BuildingBlock: XOMCOT_clean_sbu_0, # of connection points: 5
#     Node 6, Type 0, BuildingBlock: XOMCOT_clean_sbu_0, # of connection points: 5
#     Node 7, Type 0, BuildingBlock: XOMCOT_clean_sbu_0, # of connection points: 5
#     Edge 8, Type (0, 0), BuildingBlock: XUDNAN_clean_linker_2, # of connection points: 2
#     Edge 9, Type (0, 0), BuildingBlock: XUDNAN_clean_linker_2, # of connection points: 2
#     Edge 10, Type (0, 0), BuildingBlock: XUDNAN_clean_linker_2, # of connection points: 2
#     Edge 11, Type (0, 0), BuildingBlock: XUDNAN_clean_linker_2, # of connection points: 2
#     Edge 12, Type (0, 0), BuildingBlock: XUDNAN_clean_linker_2, # of connection points: 2
#     Edge 13, Type (0, 0), BuildingBlock: XUDNAN_clean_linker_2, # of connection points: 2
#     Edge 14, Type (0, 0), BuildingBlock: XUDNAN_clean_linker_2, # of connection points: 2
#     Edge 15, Type (0, 0), BuildingBlock: XUDNAN_clean_linker_2, # of connection points: 2
#     Edge 16, Type (0, 0), BuildingBlock: XUDNAN_clean_linker_2, # of connection points: 2
#     Edge 17, Type (0, 0), BuildingBlock: XUDNAN_clean_linker_2, # of connection points: 2
#     Edge 18, Type (0, 0), BuildingBlock: XUDNAN_clean_linker_2, # of connection points: 2
#     Edge 19, Type (0, 0), BuildingBlock: XUDNAN_clean_linker_2, # of connection points: 2
#     Edge 20, Type (0, 0), BuildingBlock: XUDNAN_clean_linker_2, # of connection points: 2
#     Edge 21, Type (0, 0), BuildingBlock: XUDNAN_clean_linker_2, # of connection points: 2
#     Edge 22, Type (0, 0), BuildingBlock: XUDNAN_clean_linker_2, # of connection points: 2
#     Edge 23, Type (0, 0), BuildingBlock: XUDNAN_clean_linker_2, # of connection points: 2
#     Edge 24, Type (0, 0), BuildingBlock: XUDNAN_clean_linker_2, # of connection points: 2
#     Edge 25, Type (0, 0), BuildingBlock: XUDNAN_clean_linker_2, # of connection points: 2
#     Edge 26, Type (0, 0), BuildingBlock: XUDNAN_clean_linker_2, # of connection points: 2
#     Edge 27, Type (0, 0), BuildingBlock: XUDNAN_clean_linker_2, # of connection points: 2
# Relax obj value: 0.536
# Max RMSD: 0.259
# Mean RMSD: 0.259
data_MOF--net-pts-e--node1-XOMCOT_clean_sbu_0--edge1-XUDNAN_clean_linker_2
_symmetry_space_group_name_H-M    P1
_symmetry_Int_Tables_number       1
_symmetry_cell_setting            triclinic
loop_
_symmetry_equiv_pos_as_xyz
'x, y, z'
_cell_length_a     34.13994
_cell_length_b     34.156264
_cell_length_c     47.858996
_cell_angle_alpha  89.900079
_cell_angle_beta   89.977235
_cell_angle_gamma 89.956258
loop_
_atom_site_label
_atom_site_type_symbol
_atom_site_fract_x
_atom_site_fract_y
_atom_site_fract_z
_atom_type_partial_charge
Co0 Co 0.25733 0.9929 0.13168 0.0
C1 C 0.341 0.97993 0.14082 0.0
C2 C 0.31079 0.92568 0.13424 0.0
C3 C 0.35047 0.91849 0.13399 0.0
N4 N 0.30492 0.96414 0.13884 0.0
N5 N 0.36938 0.95272 0.13793 0.0
H6 H 0.34637 0.01114 0.1416 0.0
H7 H 0.28792 0.90482 0.12952 0.0
C8 C 0.23127 0.9352 0.17865 0.0
O9 O 0.26649 0.92214 0.18449 0.0
N10 N 0.20952 0.02217 0.1243 0.0
C11 C 0.19749 0.04025 0.10072 0.0
C12 C 0.16005 0.0542 0.10481 0.0
C13 C 0.17976 0.02665 0.14251 0.0
N14 N 0.14867 0.04515 0.13107 0.0
C15 C 0.27229 0.06981 0.15016 0.0
C16 C 0.28372 0.05287 0.20601 0.0
C17 C 0.28032 0.09218 0.19762 0.0
C18 C 0.27634 0.10038 0.16906 0.0
C19 C 0.27927 0.02305 0.18631 0.0
N20 N 0.27162 0.03191 0.15907 0.0
H21 H 0.26714 0.07666 0.12842 0.0
H22 H 0.2809 0.9931 0.19315 0.0
H23 H 0.214 0.04262 0.08156 0.0
H24 H 0.1805 0.0154 0.16355 0.0
O25 O 0.28235 0.0161 0.09953 0.0
O26 O 0.24801 0.9609 0.09906 0.0
O27 O 0.22599 0.96133 0.15984 0.0
C28 C 0.26859 0.98671 0.08537 0.0
H29 H 0.3643 0.89062 0.12972 0.0
H30 H 0.14237 0.06882 0.08922 0.0
H31 H 0.28774 0.0452 0.22779 0.0
H32 H 0.27317 0.13008 0.16144 0.0
Co33 Co 0.04603 0.28289 0.63984 0.0
C34 C 0.05666 0.36714 0.63242 0.0
C35 C 0.11132 0.34115 0.64377 0.0
C36 C 0.11745 0.38049 0.63829 0.0
N37 N 0.07274 0.3331 0.64082 0.0
N38 N 0.0829 0.39622 0.63077 0.0
H39 H 0.02645 0.3707 0.62633 0.0
H40 H 0.13395 0.3199 0.64812 0.0
C41 C 0.10698 0.26501 0.68352 0.0
O42 O 0.0949 0.29535 0.698 0.0
N43 N 0.01856 0.23366 0.63802 0.0
C44 C 0.97927 0.23018 0.63646 0.0
C45 C 0.96935 0.19171 0.6405 0.0
C46 C 0.03215 0.19721 0.64277 0.0
N47 N 0.00255 0.17114 0.64464 0.0
C48 C 0.9918 0.32377 0.67511 0.0
C49 C 0.98778 0.26596 0.71539 0.0
C50 C 0.95932 0.29532 0.71486 0.0
C51 C 0.96215 0.32525 0.69516 0.0
C52 C 0.01661 0.26528 0.69484 0.0
N53 N 0.01803 0.29351 0.67453 0.0
H54 H 0.99061 0.34474 0.65845 0.0
H55 H 0.03526 0.23981 0.69376 0.0
H56 H 0.95901 0.25432 0.63414 0.0
H57 H 0.06261 0.19024 0.64652 0.0
O58 O 0.00812 0.30413 0.61424 0.0
O59 O 0.06395 0.27615 0.6016 0.0
O60 O 0.09132 0.25677 0.65996 0.0
C61 C 0.03146 0.29343 0.59424 0.0
H62 H 0.14518 0.39583 0.63857 0.0
H63 H 0.93993 0.17996 0.64113 0.0
H64 H 0.98546 0.24164 0.72988 0.0
H65 H 0.93967 0.34757 0.69369 0.0
Co66 Co 0.75821 0.01508 0.15221 0.0
C67 C 0.67513 0.01611 0.13889 0.0
C68 C 0.69258 0.072 0.15498 0.0
C69 C 0.65258 0.07253 0.15032 0.0
N70 N 0.70639 0.03644 0.14786 0.0
N71 N 0.64188 0.03728 0.14012 0.0
H72 H 0.67651 0.98572 0.13267 0.0
H73 H 0.71003 0.09552 0.16352 0.0
C74 C 0.79328 0.05003 0.20359 0.0
O75 O 0.80608 0.01489 0.20998 0.0
N76 N 0.81041 0.99325 0.1561 0.0
C77 C 0.82142 0.9568 0.16386 0.0
C78 C 0.86149 0.95608 0.16696 0.0
C79 C 0.84404 0.0137 0.15365 0.0
N80 N 0.87539 0.99181 0.16051 0.0
C81 C 0.72718 0.94075 0.16838 0.0
C82 C 0.72226 0.95435 0.22498 0.0
C83 C 0.72059 0.91563 0.21513 0.0
C84 C 0.71872 0.90985 0.18625 0.0
C85 C 0.72835 0.985 0.20598 0.0
N86 N 0.73626 0.97701 0.17858 0.0
H87 H 0.72934 0.93415 0.14648 0.0
H88 H 0.7288 0.01456 0.21375 0.0
H89 H 0.80217 0.93252 0.16802 0.0
H90 H 0.84533 0.04458 0.14861 0.0
O91 O 0.75165 0.98478 0.11894 0.0
O92 O 0.77631 0.04463 0.11964 0.0
O93 O 0.77129 0.05531 0.18218 0.0
C94 C 0.76726 0.0135 0.10534 0.0
H95 H 0.63294 0.09675 0.15436 0.0
H96 H 0.87905 0.93149 0.17387 0.0
H97 H 0.72177 0.96088 0.24709 0.0
H98 H 0.71458 0.88094 0.17747 0.0
Co99 Co 0.01976 0.77558 0.65342 0.0
C100 C 0.01474 0.68983 0.64819 0.0
C101 C 0.95802 0.71512 0.65407 0.0
C102 C 0.95348 0.67571 0.64868 0.0
N103 N 0.99665 0.72381 0.65435 0.0
N104 N 0.98935 0.66016 0.64528 0.0
H105 H 0.0453 0.68706 0.64291 0.0
H106 H 0.93456 0.73623 0.65577 0.0
C107 C 0.9572 0.78802 0.69715 0.0
O108 O 0.97069 0.75846 0.71188 0.0
N109 N 0.04232 0.82712 0.65176 0.0
C110 C 0.08071 0.83633 0.65146 0.0
C111 C 0.08426 0.87638 0.65373 0.0
C112 C 0.02308 0.86129 0.65394 0.0
N113 N 0.04795 0.89179 0.65552 0.0
C114 C 0.07891 0.73926 0.68668 0.0
C115 C 0.0802 0.79664 0.72719 0.0
C116 C 0.11193 0.77102 0.72468 0.0
C117 C 0.11017 0.74079 0.70526 0.0
C118 C 0.04921 0.79393 0.70828 0.0
N119 N 0.04953 0.76641 0.68752 0.0
H120 H 0.08171 0.71953 0.66948 0.0
H121 H 0.02776 0.81716 0.70824 0.0
H122 H 0.10441 0.8153 0.65088 0.0
H123 H 0.99152 0.86375 0.65483 0.0
O124 O 0.05846 0.75821 0.62676 0.0
O125 O -0.00019 0.78206 0.61602 0.0
O126 O 0.97328 0.79765 0.67408 0.0
C127 C 0.03336 0.7682 0.60762 0.0
H128 H 0.92611 0.66005 0.64641 0.0
H129 H 0.11137 0.89269 0.65515 0.0
H130 H 0.08147 0.82125 0.74142 0.0
H131 H 0.13501 0.72148 0.70218 0.0
Co132 Co 0.29449 0.03933 0.83663 0.0
C133 C 0.37858 0.06171 0.83881 0.0
C134 C 0.34072 0.10873 0.85071 0.0
C135 C 0.37896 0.12037 0.85489 0.0
N136 N 0.34058 0.07179 0.84074 0.0
N137 N 0.40253 0.09061 0.84727 0.0
H138 H 0.3891 0.03331 0.83302 0.0
H139 H 0.31473 0.12541 0.85575 0.0
C140 C 0.28771 0.09896 0.79177 0.0
O141 O 0.32479 0.09161 0.78657 0.0
N142 N 0.24833 0.00738 0.83327 0.0
C143 C 0.24711 0.96791 0.83316 0.0
C144 C 0.20897 0.95628 0.82935 0.0
C145 C 0.21112 0.01932 0.82995 0.0
N146 N 0.1865 0.98863 0.82741 0.0
C147 C 0.34238 0.98102 0.81122 0.0
C148 C 0.29468 0.97335 0.76513 0.0
C149 C 0.31712 0.94119 0.7739 0.0
C150 C 0.34422 0.94691 0.79538 0.0
C151 C 0.2945 0.0075 0.78105 0.0
N152 N 0.31604 0.01005 0.8051 0.0
H153 H 0.35752 0.9804 0.83093 0.0
H154 H 0.27164 0.02828 0.77651 0.0
H155 H 0.27219 0.94889 0.83566 0.0
H156 H 0.20229 0.04975 0.82925 0.0
O157 O 0.31254 0.00529 0.86585 0.0
O158 O 0.27594 0.05796 0.8728 0.0
O159 O 0.27022 0.0806 0.81148 0.0
C160 C 0.29352 0.0273 0.88319 0.0
H161 H 0.38857 0.14791 0.86368 0.0
H162 H 0.19844 0.9264 0.82876 0.0
H163 H 0.27293 0.97047 0.7488 0.0
H164 H 0.36253 0.92304 0.80261 0.0
Co165 Co 0.99561 0.27799 0.34791 0.0
C166 C 0.98975 0.36207 0.33378 0.0
C167 C 0.93375 0.33385 0.33362 0.0
C168 C 0.92801 0.37364 0.33147 0.0
N169 N 0.97255 0.32652 0.3349 0.0
N170 N 0.96331 0.39113 0.33141 0.0
H171 H 0.02021 0.3674 0.33821 0.0
H172 H 0.91108 0.31219 0.33676 0.0
C173 C 0.9414 0.25123 0.30164 0.0
O174 O 0.95386 0.27953 0.28527 0.0
N175 N 0.01866 0.23006 0.36142 0.0
C176 C 0.05728 0.22327 0.36495 0.0
C177 C 0.06238 0.18499 0.37304 0.0
C178 C 0.00062 0.19626 0.36802 0.0
N179 N 0.02679 0.16832 0.37503 0.0
C180 C 0.06569 0.30178 0.3197 0.0
C181 C 0.06903 0.23721 0.28522 0.0
C182 C 0.10272 0.25988 0.28896 0.0
C183 C 0.10032 0.2937 0.30523 0.0
C184 C 0.03529 0.24599 0.3002 0.0
N185 N 0.034 0.27743 0.31782 0.0
H186 H 0.06649 0.32479 0.33498 0.0
H187 H 0.01232 0.22445 0.30002 0.0
H188 H 0.08023 0.24452 0.36149 0.0
H189 H 0.96924 0.19189 0.36708 0.0
O190 O 0.02526 0.30598 0.37605 0.0
O191 O 0.96523 0.28222 0.3816 0.0
O192 O 0.95594 0.24674 0.32605 0.0
C193 C 0.99517 0.30028 0.39226 0.0
H194 H 0.90015 0.38876 0.33236 0.0
H195 H 0.08997 0.17048 0.37726 0.0
H196 H 0.0698 0.21075 0.27277 0.0
H197 H 0.12602 0.31152 0.30899 0.0
Co198 Co 0.78863 0.01144 0.85494 0.0
C199 C 0.70302 0.01563 0.86232 0.0
C200 C 0.71973 0.96046 0.84488 0.0
C201 C 0.6795 0.96118 0.84761 0.0
N202 N 0.73428 0.99536 0.85309 0.0
N203 N 0.66937 0.99593 0.85872 0.0
H204 H 0.70438 0.04403 0.87191 0.0
H205 H 0.73699 0.93598 0.83761 0.0
C206 C 0.78667 0.96923 0.79953 0.0
O207 O 0.75547 0.9893 0.79215 0.0
N208 N 0.84246 0.02728 0.85733 0.0
C209 C 0.8555 0.06313 0.86427 0.0
C210 C 0.89529 0.06422 0.86009 0.0
C211 C 0.87422 0.00687 0.84935 0.0
N212 N 0.90702 0.02886 0.85061 0.0
C213 C 0.75939 0.08746 0.84013 0.0
C214 C 0.8035 0.09563 0.79219 0.0
C215 C 0.78348 0.12829 0.80269 0.0
C216 C 0.76016 0.12351 0.82646 0.0
C217 C 0.80179 0.06005 0.80644 0.0
N218 N 0.77978 0.05599 0.83015 0.0
H219 H 0.74573 0.08658 0.8603 0.0
H220 H 0.82143 0.03717 0.79981 0.0
H221 H 0.83711 0.08724 0.87078 0.0
H222 H 0.87311 0.9768 0.84241 0.0
O223 O 0.7788 0.03683 0.89027 0.0
O224 O 0.79673 0.97482 0.88498 0.0
O225 O 0.80269 0.97506 0.82326 0.0
C226 C 0.78787 0.00349 0.90172 0.0
H227 H 0.65934 0.93799 0.84213 0.0
H228 H 0.91374 0.08965 0.86283 0.0
H229 H 0.82332 0.09831 0.77462 0.0
H230 H 0.74498 0.14819 0.83566 0.0
Co231 Co 0.01967 0.77793 0.35887 0.0
C232 C 0.02523 0.69383 0.35517 0.0
C233 C 0.07304 0.71913 0.33245 0.0
C234 C 0.07543 0.67864 0.33055 0.0
N235 N 0.04136 0.72822 0.34795 0.0
N236 N 0.04535 0.66304 0.34514 0.0
H237 H -0.00142 0.69147 0.36723 0.0
H238 H 0.09284 0.74019 0.3232 0.0
C239 C 0.03422 0.83463 0.31183 0.0
O240 O -0.00057 0.84961 0.31672 0.0
N241 N 0.99651 0.82695 0.37108 0.0
C242 C 0.95988 0.83146 0.38119 0.0
C243 C 0.95532 0.86898 0.39051 0.0
C244 C 0.01418 0.86187 0.3753 0.0
N245 N 0.98937 0.88818 0.38689 0.0
C246 C 0.94167 0.74816 0.35281 0.0
C247 C 0.93076 0.76896 0.29778 0.0
C248 C 0.8979 0.75921 0.31412 0.0
C249 C 0.90439 0.74556 0.34128 0.0
C250 C 0.9679 0.76992 0.31007 0.0
N251 N 0.97204 0.76435 0.33817 0.0
H252 H 0.94498 0.73983 0.3744 0.0
H253 H 0.99265 0.77655 0.297 0.0
H254 H 0.93793 0.80903 0.38287 0.0
H255 H 0.04455 0.86767 0.37032 0.0
O256 O 0.00534 0.75614 0.39445 0.0
O257 O 0.06187 0.78532 0.38565 0.0
O258 O 0.04586 0.80463 0.32565 0.0
C259 C 0.0389 0.76819 0.40363 0.0
H260 H 0.09765 0.6621 0.31956 0.0
H261 H 0.9287 0.88118 0.39917 0.0
H262 H 0.92785 0.77815 0.27624 0.0
H263 H 0.88046 0.73531 0.35422 0.0
H264 H 0.27893 0.04786 0.04937 0.0
H265 H 0.26764 0.92144 0.05263 0.0
H266 H 0.27351 0.91858 0.00111 0.0
H267 H 0.22006 0.06041 0.98789 0.0
H268 H 0.24886 0.10029 0.97421 0.0
H269 H 0.24617 0.0923 0.01137 0.0
H270 H 0.32187 0.0883 0.01391 0.0
H271 H 0.32483 0.09641 0.97677 0.0
H272 H 0.34755 0.05382 0.99207 0.0
H273 H 0.28239 0.92933 0.94997 0.0
H274 H 0.2889 0.95286 0.90149 0.0
H275 H 0.2886 0.07307 0.93062 0.0
C276 C 0.27812 0.01956 0.03921 0.0
C277 C 0.2733 0.98474 0.05483 0.0
C278 C 0.27147 0.94833 0.04092 0.0
C279 C 0.27483 0.94647 0.01175 0.0
C280 C 0.27926 0.98137 0.99691 0.0
C281 C 0.28047 0.01728 0.01008 0.0
C282 C 0.28352 0.05049 0.9891 0.0
C283 C 0.2475 0.07746 0.99075 0.0
C284 C 0.32172 0.07361 0.99321 0.0
C285 C 0.28413 0.02761 0.96202 0.0
C286 C 0.28211 0.98777 0.96713 0.0
C287 C 0.28369 0.96042 0.94568 0.0
C288 C 0.28751 0.97409 0.91826 0.0
C289 C 0.28905 0.01473 0.91244 0.0
C290 C 0.287 0.04189 0.93457 0.0
H291 H 0.05673 0.29302 0.42814 0.0
H292 H 0.93447 0.32666 0.42354 0.0
H293 H 0.9326 0.33398 0.47492 0.0
H294 H 0.04586 0.23301 0.48633 0.0
H295 H 0.09236 0.24444 0.50215 0.0
H296 H 0.0865 0.24831 0.46489 0.0
H297 H 0.10917 0.32065 0.46637 0.0
H298 H 0.11557 0.3169 0.50367 0.0
H299 H 0.08462 0.35463 0.48924 0.0
H300 H 0.94218 0.33239 0.52623 0.0
H301 H 0.9617 0.32047 0.57497 0.0
H302 H 0.07704 0.28364 0.54711 0.0
C303 C 0.03004 0.30323 0.43799 0.0
C304 C 0.99591 0.31014 0.42209 0.0
C305 C 0.96095 0.3218 0.43553 0.0
C306 C 0.95968 0.32605 0.46461 0.0
C307 C 0.99351 0.31799 0.47986 0.0
C308 C 0.02806 0.30677 0.4671 0.0
C309 C 0.05888 0.29583 0.48857 0.0
C310 C 0.07163 0.25285 0.48528 0.0
C311 C 0.09415 0.32367 0.48686 0.0
C312 C 0.03599 0.30194 0.51535 0.0
C313 C -0.00143 0.31532 0.50977 0.0
C314 C 0.97148 0.32221 0.5309 0.0
C315 C 0.98287 0.31524 0.55854 0.0
C316 C 0.02088 0.30105 0.56483 0.0
C317 C 0.04781 0.29446 0.54291 0.0
H318 H 0.76384 0.06686 0.06183 0.0
H319 H 0.79321 0.94669 0.08264 0.0
H320 H 0.80514 0.93238 0.03302 0.0
H321 H 0.71068 0.04405 0.00088 0.0
H322 H 0.72669 0.08576 0.98079 0.0
H323 H 0.72477 0.08861 0.01832 0.0
H324 H 0.79801 0.10837 0.01975 0.0
H325 H 0.80005 0.10593 0.98216 0.0
H326 H 0.83391 0.07768 0.00291 0.0
H327 H 0.80928 0.92902 0.98182 0.0
H328 H 0.8063 0.9373 0.93071 0.0
H329 H 0.77266 0.05899 0.94172 0.0
C330 C 0.77364 0.03791 0.05584 0.0
C331 C 0.7778 0.00786 0.07588 0.0
C332 C 0.78978 0.97001 0.06744 0.0
C333 C 0.79677 0.96161 0.03937 0.0
C334 C 0.79143 0.99136 0.01993 0.0
C335 C 0.78026 0.02879 0.02763 0.0
C336 C 0.77408 0.05436 0.00207 0.0
C337 C 0.73153 0.06905 0.00043 0.0
C338 C 0.80326 0.08861 0.00171 0.0
C339 C 0.78292 0.0252 0.97903 0.0
C340 C 0.79318 0.98918 0.9899 0.0
C341 C 0.80161 0.95717 0.97295 0.0
C342 C 0.7997 0.96211 0.94397 0.0
C343 C 0.78926 -0.00127 0.93229 0.0
C344 C 0.7808 0.03066 0.95009 0.0
H345 H 0.98658 0.76045 0.44557 0.0
H346 H 0.11105 0.77166 0.42929 0.0
H347 H 0.12399 0.76923 0.48037 0.0
H348 H 0.98495 0.82343 0.50386 0.0
H349 H 0.94801 0.79591 0.52229 0.0
H350 H 0.94946 0.79511 0.48471 0.0
H351 H 0.95379 0.7193 0.48554 0.0
H352 H 0.95232 0.71984 0.52316 0.0
H353 H 0.99214 0.69583 0.50533 0.0
H354 H 0.12228 0.76553 0.53358 0.0
H355 H 0.10618 0.76688 0.58404 0.0
H356 H 0.98236 0.7629 0.56406 0.0
C357 C 0.01668 0.76178 0.45267 0.0
C358 C 0.04796 0.76563 0.43362 0.0
C359 C 0.08679 0.7684 0.44369 0.0
C360 C 0.09433 0.76694 0.47257 0.0
C361 C 0.06261 0.76325 0.49083 0.0
C362 C 0.02455 0.76112 0.48119 0.0
C363 C 0.99528 0.76 0.50487 0.0
C364 C 0.96783 0.79574 0.50386 0.0
C365 C 0.97203 0.72145 0.50471 0.0
C366 C 0.02273 0.76197 0.52952 0.0
C367 C 0.06149 0.7632 0.5211 0.0
C368 C 0.09205 0.76468 0.54036 0.0
C369 C 0.08264 0.76533 0.56891 0.0
C370 C 0.04305 0.7652 0.57776 0.0
C371 C 0.01285 0.76332 0.5578 0.0
H372 H 0.12958 0.18633 0.29677 0.0
H373 H 0.16189 0.29826 0.26085 0.0
H374 H 0.22304 0.26864 0.24236 0.0
H375 H 0.23161 0.14964 0.31187 0.0
H376 H 0.21795 0.10056 0.30211 0.0
H377 H 0.18235 0.13265 0.31794 0.0
H378 H 0.13549 0.12221 0.27591 0.0
H379 H 0.17053 0.08982 0.26037 0.0
H380 H 0.15311 0.13167 0.24102 0.0
H381 H 0.27352 0.22408 0.22097 0.0
H382 H 0.30455 0.1693 0.19569 0.0
H383 H 0.23698 0.08689 0.24503 0.0
C384 C 0.14986 0.20478 0.28536 0.0
C385 C 0.14102 0.24435 0.27983 0.0
C386 C 0.16832 0.26781 0.26522 0.0
C387 C 0.20314 0.25128 0.25487 0.0
C388 C 0.21032 0.21158 0.25987 0.0
C389 C 0.18437 0.18877 0.27495 0.0
C390 C 0.19531 0.14596 0.27414 0.0
C391 C 0.20754 0.13136 0.30325 0.0
C392 C 0.16165 0.121 0.26212 0.0
C393 C 0.22999 0.14767 0.2546 0.0
C394 C 0.23914 0.18582 0.24732 0.0
C395 C 0.26709 0.19419 0.22693 0.0
C396 C 0.28443 0.16286 0.21258 0.0
C397 C 0.27306 0.12374 0.21829 0.0
C398 C 0.24715 0.11626 0.24062 0.0
H399 H 0.79256 0.15137 0.74835 0.0
H400 H 0.79953 0.19349 0.83358 0.0
H401 H 0.83315 0.25281 0.81729 0.0
H402 H 0.88304 0.17048 0.73163 0.0
H403 H 0.87581 0.18588 0.69596 0.0
H404 H 0.8409 0.15403 0.71222 0.0
H405 H 0.78502 0.20315 0.70133 0.0
H406 H 0.8199 0.23522 0.68464 0.0
H407 H 0.78932 0.25336 0.71248 0.0
H408 H 0.88224 0.29562 0.79491 0.0
H409 H 0.93854 0.3202 0.76719 0.0
H410 H 0.89979 0.25209 0.69636 0.0
C411 C 0.79965 0.17397 0.76335 0.0
C412 C 0.79322 0.16792 0.79213 0.0
C413 C 0.80336 0.19778 0.81132 0.0
C414 C 0.82264 0.23165 0.80226 0.0
C415 C 0.83107 0.23552 0.77391 0.0
C416 C 0.81911 0.20783 0.7546 0.0
C417 C 0.83733 0.21522 0.72627 0.0
C418 C 0.86065 0.1793 0.71596 0.0
C419 C 0.80602 0.22748 0.70492 0.0
C420 C 0.86398 0.24912 0.7333 0.0
C421 C 0.85929 0.26119 0.76068 0.0
C422 C 0.88514 0.28768 0.77313 0.0
C423 C 0.91702 0.30142 0.7574 0.0
C424 C 0.9224 0.28854 0.7297 0.0
C425 C 0.89505 0.26318 0.71729 0.0
H426 H 0.76378 0.85114 0.20253 0.0
H427 H 0.69914 0.90481 0.27056 0.0
H428 H 0.72803 0.85677 0.30319 0.0
H429 H 0.7639 0.74589 0.2319 0.0
H430 H 0.81275 0.73896 0.21847 0.0
H431 H 0.77834 0.76925 0.1997 0.0
H432 H 0.82825 0.82627 0.20067 0.0
H433 H 0.86236 0.79683 0.21983 0.0
H434 H 0.84669 0.84325 0.23381 0.0
H435 H 0.77575 0.81589 0.32903 0.0
H436 H 0.83675 0.78641 0.34578 0.0
H437 H 0.86817 0.75586 0.26063 0.0
C438 C 0.7536 0.85159 0.22393 0.0
C439 C 0.7288 0.88176 0.23383 0.0
C440 C 0.71813 0.88214 0.26241 0.0
C441 C 0.73411 0.85467 0.28105 0.0
C442 C 0.76014 0.82665 0.2707 0.0
C443 C 0.7692 0.8245 0.24263 0.0
C444 C 0.80274 0.79648 0.2372 0.0
C445 C 0.78857 0.7605 0.22086 0.0
C446 C 0.83699 0.81696 0.22202 0.0
C447 C 0.8134 0.78566 0.26683 0.0
C448 C 0.7878 0.80239 0.28582 0.0
C449 C 0.79511 0.80143 0.3144 0.0
C450 C 0.83002 0.78434 0.32373 0.0
C451 C 0.85748 0.76845 0.30453 0.0
C452 C 0.84794 0.76765 0.27587 0.0
H453 H 0.29021 0.91354 0.72354 0.0
H454 H 0.30967 0.87931 0.8098 0.0
H455 H 0.26737 0.82235 0.8034 0.0
H456 H 0.1951 0.90144 0.725 0.0
H457 H 0.18793 0.88254 0.69023 0.0
H458 H 0.22966 0.91266 0.69763 0.0
H459 H 0.2766 0.85839 0.68001 0.0
H460 H 0.23483 0.82822 0.67182 0.0
H461 H 0.27296 0.80963 0.69426 0.0
H462 H 0.20951 0.78122 0.79259 0.0
H463 H 0.14604 0.75491 0.77545 0.0
H464 H 0.16274 0.81587 0.69701 0.0
C465 C 0.28703 0.89301 0.74065 0.0
C466 C 0.30359 0.901 0.76703 0.0
C467 C 0.29828 0.87365 0.7891 0.0
C468 C 0.27387 0.84113 0.78577 0.0
C469 C 0.2553 0.83598 0.7602 0.0
C470 C 0.26232 0.86065 0.73774 0.0
C471 C 0.23416 0.85266 0.71404 0.0
C472 C 0.21032 0.8895 0.70631 0.0
C473 C 0.25595 0.83623 0.68852 0.0
C474 C 0.20864 0.82178 0.72746 0.0
C475 C 0.22162 0.81188 0.75388 0.0
C476 C 0.19977 0.78763 0.77156 0.0
C477 C 0.16378 0.77309 0.76188 0.0
C478 C 0.15039 0.78324 0.73497 0.0
C479 C 0.17323 0.80728 0.7175 0.0
H480 H 0.94129 0.80673 0.75171 0.0
H481 H 0.90198 0.82645 0.6667 0.0
H482 H 0.85118 0.87206 0.68391 0.0
H483 H 0.84578 0.81378 0.78619 0.0
H484 H 0.86502 0.83997 0.81582 0.0
H485 H 0.89572 0.80599 0.79712 0.0
H486 H 0.94722 0.8608 0.78898 0.0
H487 H 0.91665 0.89449 0.80793 0.0
H488 H 0.93212 0.90611 0.77287 0.0
H489 H 0.80589 0.91701 0.71025 0.0
H490 H 0.77212 0.96095 0.74346 0.0
H491 H 0.84362 0.91486 0.81095 0.0
C492 C 0.92139 0.82003 0.73684 0.0
C493 C 0.92502 0.81265 0.70794 0.0
C494 C 0.89937 0.83153 0.68896 0.0
C495 C 0.87043 0.85741 0.69854 0.0
C496 C 0.86788 0.86452 0.72713 0.0
C497 C 0.89285 0.84663 0.74601 0.0
C498 C 0.88587 0.86161 0.77538 0.0
C499 C 0.87228 0.82835 0.79477 0.0
C500 C 0.92265 0.88197 0.78695 0.0
C501 C 0.8532 0.89074 0.77004 0.0
C502 C 0.84292 0.89165 0.74214 0.0
C503 C 0.81364 0.9165 0.73217 0.0
C504 C 0.79457 0.94132 0.7512 0.0
C505 C 0.80521 0.94143 0.77979 0.0
C506 C 0.83481 0.91557 0.78922 0.0
H507 H 0.22949 0.88678 0.22534 0.0
H508 H 0.15412 0.9517 0.16862 0.0
H509 H 0.09671 0.9329 0.19638 0.0
H510 H 0.16158 0.80574 0.23617 0.0
H511 H 0.17401 0.79961 0.27251 0.0
H512 H 0.20993 0.81831 0.24834 0.0
H513 H 0.21922 0.87964 0.27938 0.0
H514 H 0.18332 0.86116 0.30363 0.0
H515 H 0.17723 0.90907 0.28839 0.0
H516 H 0.04748 0.90957 0.23081 0.0
H517 H 0.00871 0.88026 0.26883 0.0
H518 H 0.11395 0.82675 0.30266 0.0
C519 C 0.20091 0.89685 0.21866 0.0
C520 C 0.19668 0.92141 0.19493 0.0
C521 C 0.15857 0.9337 0.18696 0.0
C522 C 0.12555 0.92292 0.20252 0.0
C523 C 0.13077 0.89921 0.2259 0.0
C524 C 0.16734 0.88594 0.23387 0.0
C525 C 0.16441 0.86052 0.25991 0.0
C526 C 0.17831 0.81855 0.25386 0.0
C527 C 0.18741 0.87869 0.28427 0.0
C528 C 0.12055 0.86182 0.2653 0.0
C529 C 0.10187 0.88454 0.24545 0.0
C530 C 0.0617 0.89143 0.24635 0.0
C531 C 0.03993 0.8747 0.26812 0.0
C532 C 0.05817 0.85098 0.28868 0.0
C533 C 0.09908 0.84433 0.28708 0.0
H534 H 0.11729 0.24259 0.73804 0.0
H535 H 0.16525 0.22852 0.65476 0.0
H536 H 0.2172 0.18544 0.67373 0.0
H537 H 0.20766 0.24219 0.77648 0.0
H538 H 0.1889 0.21334 0.80508 0.0
H539 H 0.15632 0.24417 0.78522 0.0
H540 H 0.11213 0.18437 0.77464 0.0
H541 H 0.14454 0.15336 0.79451 0.0
H542 H 0.13326 0.14147 0.75873 0.0
H543 H 0.26552 0.14691 0.70194 0.0
H544 H 0.30337 0.10913 0.73659 0.0
H545 H 0.22088 0.14259 0.80131 0.0
C546 C 0.13897 0.23061 0.72391 0.0
C547 C 0.1378 0.23925 0.695 0.0
C548 C 0.16591 0.22235 0.67696 0.0
C549 C 0.19549 0.19797 0.68757 0.0
C550 C 0.19596 0.19007 0.71617 0.0
C551 C 0.16808 0.20529 0.73405 0.0
C552 C 0.17416 0.19048 0.76368 0.0
C553 C 0.18225 0.22459 0.7838 0.0
C554 C 0.13893 0.16596 0.77346 0.0
C555 C 0.21028 0.16516 0.75975 0.0
C556 C 0.22253 0.16575 0.7322 0.0
C557 C 0.25602 0.14593 0.7235 0.0
C558 C 0.27744 0.12472 0.74339 0.0
C559 C 0.26505 0.12288 0.77162 0.0
C560 C 0.23087 0.14328 0.77983 0.0
H561 H 0.82622 0.12063 0.18962 0.0
H562 H 0.78704 0.05049 0.25975 0.0
H563 H 0.81531 0.09856 0.29249 0.0
H564 H 0.91718 0.14263 0.21778 0.0
H565 H 0.92045 0.19194 0.2045 0.0
H566 H 0.89137 0.15618 0.18636 0.0
H567 H 0.83054 0.20127 0.18981 0.0
H568 H 0.85956 0.23746 0.20771 0.0
H569 H 0.81519 0.21925 0.22347 0.0
H570 H 0.85397 0.14877 0.31729 0.0
H571 H 0.90013 0.19926 0.33322 0.0
H572 H 0.91673 0.23754 0.24744 0.0
C573 C 0.82233 0.11643 0.21189 0.0
C574 C 0.80369 0.08252 0.22234 0.0
C575 C 0.80065 0.07673 0.25151 0.0
C576 C 0.81664 0.10383 0.27021 0.0
C577 C 0.83591 0.13642 0.25938 0.0
C578 C 0.83877 0.14305 0.23093 0.0
C579 C 0.86463 0.17828 0.22493 0.0
C580 C 0.90053 0.16654 0.20736 0.0
C581 C 0.84107 0.21101 0.21064 0.0
C582 C 0.87641 0.18981 0.25439 0.0
C583 C 0.85916 0.16539 0.27387 0.0
C584 C 0.86721 0.16847 0.30229 0.0
C585 C 0.89367 0.19719 0.31111 0.0
C586 C 0.91197 0.22257 0.29163 0.0
C587 C 0.90282 0.21899 0.26289 0.0
H588 H 0.08016 0.05925 0.10314 0.0
H589 H 0.12733 0.03483 0.18575 0.0
H590 H 0.06078 0.02409 0.20333 0.0
H591 H 0.98883 0.10969 0.12906 0.0
H592 H 0.96034 0.08966 0.1008 0.0
H593 H 0.01145 0.1008 0.09562 0.0
H594 H 0.02343 0.02947 0.07938 0.0
H595 H 0.97269 0.01786 0.08496 0.0
H596 H 0.01017 0.98952 0.10218 0.0
H597 H 0.99107 0.00403 0.20978 0.0
H598 H 0.9214 0.98437 0.20579 0.0
H599 H 0.91848 0.02727 0.12073 0.0
C600 C 0.07679 0.05299 0.12514 0.0
C601 C 0.10961 0.04711 0.14273 0.0
C602 C 0.10316 0.03853 0.17142 0.0
C603 C 0.06525 0.0327 0.18179 0.0
C604 C 0.03386 0.03673 0.16349 0.0
C605 C 0.0391 0.04772 0.13595 0.0
C606 C 0.0006 0.0478 0.12021 0.0
C607 C 0.98966 0.08947 0.11088 0.0
C608 C 0.00183 0.01947 0.09522 0.0
C609 C 0.97328 0.03323 0.14284 0.0
C610 C 0.99304 0.02715 0.1677 0.0
C611 C 0.975 0.00975 0.19072 0.0
C612 C 0.93572 -0.00159 0.18825 0.0
C613 C 0.91501 0.00489 0.16311 0.0
C614 C 0.9338 0.02299 0.14031 0.0
H615 H 0.0608 0.1208 0.63104 0.0
H616 H 0.95013 0.12979 0.67511 0.0
H617 H 0.9526 0.05921 0.68583 0.0
H618 H 0.04217 0.03077 0.59914 0.0
H619 H 0.09141 0.01219 0.60226 0.0
H620 H 0.08303 0.06414 0.60041 0.0
H621 H 0.12043 0.0736 0.64705 0.0
H622 H 0.12902 0.02159 0.64902 0.0
H623 H 0.10534 0.04653 0.67757 0.0
H624 H 0.96446 0.98768 0.68889 0.0
H625 H 0.98473 0.91884 0.68374 0.0
H626 H 0.08756 0.95576 0.63737 0.0
C627 C 0.03755 0.10796 0.6434 0.0
C628 C 0.00522 0.13056 0.65215 0.0
C629 C 0.97487 0.11278 0.66786 0.0
C630 C 0.9762 0.07285 0.67428 0.0
C631 C 0.00815 0.05123 0.66492 0.0
C632 C 0.03835 0.06807 0.64989 0.0
C633 C 0.06803 0.03771 0.64081 0.0
C634 C 0.07132 0.03612 0.60876 0.0
C635 C 0.10808 0.04532 0.65443 0.0
C636 C 0.04918 0.00107 0.65244 0.0
C637 C 0.01491 0.00964 0.66655 0.0
C638 C 0.99135 0.98056 0.67805 0.0
C639 C 0.00291 0.94156 0.67478 0.0
C640 C 0.03758 0.93203 0.65998 0.0
C641 C 0.06122 0.96227 0.64905 0.0
H642 H 0.97512 0.06425 0.86557 0.0
H643 H 0.92802 0.96818 0.81661 0.0
H644 H 0.99501 0.94856 0.80369 0.0
H645 H 0.05364 0.08871 0.81698 0.0
H646 H 0.08718 0.1011 0.84465 0.0
H647 H 0.03529 0.10793 0.84951 0.0
H648 H 0.03769 0.06469 0.89411 0.0
H649 H 0.0895 0.05772 0.88939 0.0
H650 H 0.05757 0.01587 0.89197 0.0
H651 H 0.0677 0.93761 0.79813 0.0
H652 H 0.14019 0.93731 0.7997 0.0
H653 H 0.1383 0.0424 0.85035 0.0
C654 C 0.97858 0.03946 0.85178 0.0
C655 C 0.94604 0.0177 0.84235 0.0
C656 C 0.95233 0.98498 0.82466 0.0
C657 C 0.99033 0.97379 0.81693 0.0
C658 C 0.02164 0.99592 0.82675 0.0
C659 C 0.01611 0.02824 0.8436 0.0
C660 C 0.05457 0.0468 0.85179 0.0
C661 C 0.05785 0.08861 0.84002 0.0
C662 C 0.06015 0.0462 0.8837 0.0
C663 C 0.08272 0.01936 0.83738 0.0
C664 C 0.06325 0.99024 0.82297 0.0
C665 C 0.08327 0.96047 0.80913 0.0
C666 C 0.1243 0.9604 0.81025 0.0
C667 C 0.14465 0.98996 0.82502 0.0
C668 C 0.12348 0.01993 0.83845 0.0
H669 H 0.04015 0.93773 0.36082 0.0
H670 H 0.95302 0.93114 0.42672 0.0
H671 H 0.95558 0.00262 0.43222 0.0
H672 H 0.09741 0.01929 0.39321 0.0
H673 H 0.10806 0.04101 0.35971 0.0
H674 H 0.1021 0.98874 0.36271 0.0
H675 H 0.0484 0.99096 0.32451 0.0
H676 H 0.05376 0.04322 0.32167 0.0
H677 H 0.00644 0.02236 0.32922 0.0
H678 H 0.96016 0.07469 0.42603 0.0
H679 H 0.97371 0.14353 0.41263 0.0
H680 H 0.06139 0.10399 0.3537 0.0
C681 C 0.02252 0.95121 0.37695 0.0
C682 C 0.99597 0.92887 0.39304 0.0
C683 C 0.97293 0.94771 0.4137 0.0
C684 C 0.97435 0.9883 0.41714 0.0
C685 C -0.00046 0.00965 0.40015 0.0
C686 C 0.0239 0.99181 0.3809 0.0
C687 C 0.04725 0.0219 0.36464 0.0
C688 C 0.09132 0.01747 0.37043 0.0
C689 C 0.03841 0.01945 0.33315 0.0
C690 C 0.03123 0.05931 0.37721 0.0
C691 C 0.00362 0.05154 0.39758 0.0
C692 C 0.98237 0.08126 0.41059 0.0
C693 C 0.98993 0.12006 0.40277 0.0
C694 C 0.01877 0.12858 0.38251 0.0
C695 C 0.03976 0.0979 0.36967 0.0
H696 H 0.41267 0.00884 0.16363 0.0
H697 H 0.41937 0.91363 0.10394 0.0
H698 H 0.48942 0.92757 0.09646 0.0
H699 H 0.47867 0.07479 0.12767 0.0
H700 H 0.50099 0.09279 0.15926 0.0
H701 H 0.45098 0.07596 0.15974 0.0
H702 H 0.4678 0.02695 0.19936 0.0
H703 H 0.51774 0.04386 0.19916 0.0
H704 H 0.50731 0.99257 0.19448 0.0
H705 H 0.55805 0.9518 0.09501 0.0
H706 H 0.62287 0.98162 0.10234 0.0
H707 H 0.57294 0.06044 0.16385 0.0
C708 C 0.42893 0.99109 0.14893 0.0
C709 C 0.41061 0.96006 0.13443 0.0
C710 C 0.43289 0.93714 0.11558 0.0
C711 C 0.4726 0.94508 0.11099 0.0
C712 C 0.48969 0.97597 0.12548 0.0
C713 C 0.46876 -0.00156 0.14425 0.0
C714 C 0.49469 0.02905 0.15779 0.0
C715 C 0.48047 0.07061 0.15068 0.0
C716 C 0.49702 0.02271 0.18958 0.0
C717 C 0.53347 0.02012 0.14373 0.0
C718 C 0.52973 0.98962 0.125 0.0
C719 C 0.56142 0.9756 0.10971 0.0
C720 C 0.59816 0.99262 0.11413 0.0
C721 C 0.60311 0.02315 0.13384 0.0
C722 C 0.57007 0.03747 0.14845 0.0
H723 H 0.04876 0.61779 0.66617 0.0
H724 H 0.95343 0.61505 0.60655 0.0
H725 H 0.97467 0.54909 0.59102 0.0
H726 H 0.12125 0.56449 0.6246 0.0
H727 H 0.14021 0.53819 0.65435 0.0
H728 H 0.1199 0.58652 0.65879 0.0
H729 H 0.0713 0.56003 0.69595 0.0
H730 H 0.09196 0.51192 0.69198 0.0
H731 H 0.04008 0.51927 0.68728 0.0
H732 H 0.00485 0.48353 0.58337 0.0
H733 H 0.03457 0.41819 0.58918 0.0
H734 H 0.10878 0.46256 0.65529 0.0
C735 C 0.03268 0.60326 0.64967 0.0
C736 C -0.00029 0.62114 0.63733 0.0
C737 C 0.97865 0.6014 0.61624 0.0
C738 C 0.99083 0.56435 0.6071 0.0
C739 C 0.02389 0.54769 0.61949 0.0
C740 C 0.04412 0.56621 0.64065 0.0
C741 C 0.07621 0.54046 0.65245 0.0
C742 C 0.1168 0.5585 0.64722 0.0
C743 C 0.06946 0.53244 0.68376 0.0
C744 C 0.0703 0.50402 0.63508 0.0
C745 C 0.04061 0.50924 0.61572 0.0
C746 C 0.02821 0.47915 0.59834 0.0
C747 C 0.0452 0.44223 0.60179 0.0
C748 C 0.07375 0.43562 0.62276 0.0
C749 C 0.08758 0.46722 0.6388 0.0
H750 H 0.45207 0.04757 0.81593 0.0
H751 H 0.44641 0.12316 0.88852 0.0
H752 H 0.51523 0.10662 0.8998 0.0
H753 H 0.50462 0.97177 0.84796 0.0
H754 H 0.53348 0.9598 0.8176 0.0
H755 H 0.4855 0.9809 0.81345 0.0
H756 H 0.51446 0.0375 0.78377 0.0
H757 H 0.56244 0.01612 0.78731 0.0
H758 H 0.55425 0.06619 0.79763 0.0
H759 H 0.58295 0.07786 0.90474 0.0
H760 H 0.6465 0.0435 0.9008 0.0
H761 H 0.60591 0.98484 0.82601 0.0
C762 C 0.46545 0.06099 0.83403 0.0
C763 C 0.44399 0.08654 0.85141 0.0
C764 C 0.46255 0.10389 0.87475 0.0
C765 C 0.50142 0.09436 0.88145 0.0
C766 C 0.5211 0.0676 0.86451 0.0
C767 C 0.50386 0.05156 0.84108 0.0
C768 C 0.53061 0.02254 0.82679 0.0
C769 C 0.51246 0.98132 0.82645 0.0
C770 C 0.54107 0.03643 0.79712 0.0
C771 C 0.56559 0.02434 0.84603 0.0
C772 C 0.55961 0.05057 0.86761 0.0
C773 C 0.58802 0.05744 0.88786 0.0
C774 C 0.6239 0.0378 0.88549 0.0
C775 C 0.63087 0.01155 0.86314 0.0
C776 C 0.60103 0.00425 0.84352 0.0
H777 H 0.01027 0.43998 0.30203 0.0
H778 H 0.93461 0.43233 0.37444 0.0
H779 H 0.95189 0.50025 0.38743 0.0
H780 H 0.08609 0.49987 0.33254 0.0
H781 H 0.09367 0.52935 0.30174 0.0
H782 H 0.0767 0.47963 0.29843 0.0
H783 H 0.01634 0.50343 0.27031 0.0
H784 H 0.03341 0.55313 0.27322 0.0
H785 H 0.98488 0.54048 0.285 0.0
H786 H 0.97902 0.56662 0.3936 0.0
H787 H 0.00625 0.63277 0.38933 0.0
H788 H 0.06053 0.60113 0.31044 0.0
C789 C 0.99735 0.45299 0.32047 0.0
C790 C 0.97105 0.43147 0.33729 0.0
C791 C 0.95442 0.44887 0.36128 0.0
C792 C 0.96437 0.48711 0.36889 0.0
C793 C 0.99061 0.50758 0.35203 0.0
C794 C 0.00633 0.49157 0.32803 0.0
C795 C 0.03204 0.52101 0.31287 0.0
C796 C 0.07466 0.50659 0.31131 0.0
C797 C 0.01568 0.53005 0.28362 0.0
C798 C 0.02824 0.55602 0.33216 0.0
C799 C 0.00474 0.54715 0.35483 0.0
C800 C 0.99697 0.57417 0.37575 0.0
C801 C 0.01242 0.61181 0.373 0.0
C802 C 0.03478 0.62256 0.34919 0.0
C803 C 0.0436 0.59387 0.32885 0.0
loop_
_geom_bond_atom_site_label_1
_geom_bond_atom_site_label_2
_geom_bond_distance
_geom_bond_site_symmetry_2
_ccdc_geom_bond_type
Co0 N4 2.148 . S
Co0 N10 2.128 . S
Co0 N20 2.194 . S
Co0 O25 2.351 . S
Co0 O26 2.149 1_545 S
Co0 O27 2.096 1_545 S
C1 N4 1.301 . S
C1 N5 1.328 . S
C1 H6 0.930 . S
C2 C3 1.333 . S
C2 N4 1.317 1_565 S
C2 H7 0.930 . S
C3 C2 1.333 . S
C3 N5 1.350 1_565 S
C3 H29 0.931 . S
N4 Co0 2.148 . S
N4 C1 1.301 . S
N4 C2 1.317 1_545 S
N5 C1 1.328 . S
N5 C3 1.350 1_545 S
H6 C1 0.930 . S
H7 C2 0.930 . S
C8 O9 1.224 . S
C8 O27 1.247 . S
O9 C8 1.224 . S
N10 Co0 2.128 . S
N10 C11 1.355 . S
N10 C13 1.311 . S
C11 N10 1.355 . S
C11 C12 1.363 . S
C11 H23 0.929 . S
C12 C11 1.363 . S
C12 N14 1.375 . S
C12 H30 0.931 . S
C13 N10 1.311 . S
C13 N14 1.347 . S
C13 H24 0.929 1_545 S
N14 C12 1.375 . S
N14 C13 1.347 . S
C15 C18 1.365 . S
C15 N20 1.328 . S
C15 H21 0.929 . S
C16 C17 1.362 . S
C16 C19 1.378 . S
C16 H31 0.929 . S
C17 C16 1.362 . S
C17 C18 1.366 . S
C18 C15 1.365 . S
C18 C17 1.366 . S
C18 H32 0.930 . S
C19 C16 1.378 . S
C19 N20 1.315 . S
C19 H22 0.930 . S
N20 Co0 2.194 . S
N20 C15 1.328 . S
N20 C19 1.315 . S
H21 C15 0.929 . S
H22 C19 0.930 . S
H23 C11 0.929 . S
H24 C13 0.929 1_565 S
O25 Co0 2.351 . S
O25 C28 1.244 . S
O26 Co0 2.149 1_565 S
O26 C28 1.227 1_565 S
O27 Co0 2.096 1_565 S
O27 C8 1.247 . S
C28 O25 1.244 . S
C28 O26 1.227 1_545 S
H29 C3 0.931 . S
H30 C12 0.931 . S
H31 C16 0.929 . S
H32 C18 0.930 . S
Co33 N37 2.148 . S
Co33 N43 2.128 . S
Co33 N53 2.194 1_455 S
Co33 O58 2.351 1_455 S
Co33 O59 2.155 . S
Co33 O60 2.096 . S
C34 N37 1.301 . S
C34 N38 1.328 . S
C34 H39 0.930 1_455 S
C35 C36 1.333 . S
C35 N37 1.317 . S
C35 H40 0.930 . S
C36 C35 1.333 . S
C36 N38 1.350 . S
C36 H62 0.931 . S
N37 Co33 2.148 . S
N37 C34 1.301 . S
N37 C35 1.317 . S
N38 C34 1.328 . S
N38 C36 1.350 . S
H39 C34 0.930 1_655 S
H40 C35 0.930 . S
C41 O42 1.224 . S
C41 O60 1.247 . S
O42 C41 1.224 . S
N43 Co33 2.128 . S
N43 C44 1.355 1_455 S
N43 C46 1.311 . S
C44 N43 1.355 1_655 S
C44 C45 1.363 . S
C44 H56 0.929 . S
C45 C44 1.363 . S
C45 N47 1.375 1_655 S
C45 H63 0.931 . S
C46 N43 1.311 . S
C46 N47 1.347 . S
C46 H57 0.929 . S
N47 C45 1.375 1_455 S
N47 C46 1.347 . S
C48 C51 1.365 . S
C48 N53 1.328 . S
C48 H54 0.929 . S
C49 C50 1.362 . S
C49 C52 1.378 . S
C49 H64 0.929 . S
C50 C49 1.362 . S
C50 C51 1.366 . S
C51 C48 1.365 . S
C51 C50 1.366 . S
C51 H65 0.930 . S
C52 C49 1.378 . S
C52 N53 1.315 . S
C52 H55 0.930 . S
N53 Co33 2.194 1_655 S
N53 C48 1.328 . S
N53 C52 1.315 . S
H54 C48 0.929 . S
H55 C52 0.930 . S
H56 C44 0.929 . S
H57 C46 0.929 . S
O58 Co33 2.351 1_655 S
O58 C61 1.244 1_655 S
O59 Co33 2.155 . S
O59 C61 1.240 . S
O60 Co33 2.096 . S
O60 C41 1.247 . S
C61 O58 1.244 1_455 S
C61 O59 1.240 . S
H62 C36 0.931 . S
H63 C45 0.931 . S
H64 C49 0.929 . S
H65 C51 0.930 . S
Co66 N70 2.148 . S
Co66 N76 2.128 . S
Co66 N86 2.194 1_545 S
Co66 O91 2.351 1_545 S
Co66 O92 2.155 . S
Co66 O93 2.096 . S
C67 N70 1.301 . S
C67 N71 1.328 . S
C67 H72 0.930 1_545 S
C68 C69 1.333 . S
C68 N70 1.317 . S
C68 H73 0.930 . S
C69 C68 1.333 . S
C69 N71 1.350 . S
C69 H95 0.931 . S
N70 Co66 2.148 . S
N70 C67 1.301 . S
N70 C68 1.317 . S
N71 C67 1.328 . S
N71 C69 1.350 . S
H72 C67 0.930 1_565 S
H73 C68 0.930 . S
C74 O75 1.224 . S
C74 O93 1.247 . S
O75 C74 1.224 . S
N76 Co66 2.128 . S
N76 C77 1.355 1_545 S
N76 C79 1.311 . S
C77 N76 1.355 1_565 S
C77 C78 1.363 . S
C77 H89 0.929 . S
C78 C77 1.363 . S
C78 N80 1.375 1_565 S
C78 H96 0.931 . S
C79 N76 1.311 . S
C79 N80 1.347 . S
C79 H90 0.929 . S
N80 C78 1.375 1_545 S
N80 C79 1.347 . S
C81 C84 1.365 . S
C81 N86 1.328 . S
C81 H87 0.929 . S
C82 C83 1.362 . S
C82 C85 1.378 . S
C82 H97 0.929 . S
C83 C82 1.362 . S
C83 C84 1.366 . S
C84 C81 1.365 . S
C84 C83 1.366 . S
C84 H98 0.930 . S
C85 C82 1.378 . S
C85 N86 1.315 . S
C85 H88 0.930 . S
N86 Co66 2.194 1_565 S
N86 C81 1.328 . S
N86 C85 1.315 . S
H87 C81 0.929 . S
H88 C85 0.930 . S
H89 C77 0.929 . S
H90 C79 0.929 . S
O91 Co66 2.351 1_565 S
O91 C94 1.244 1_565 S
O92 Co66 2.155 . S
O92 C94 1.240 . S
O93 Co66 2.096 . S
O93 C74 1.247 . S
C94 O91 1.244 1_545 S
C94 O92 1.240 . S
H95 C69 0.931 . S
H96 C78 0.931 . S
H97 C82 0.929 . S
H98 C84 0.930 . S
Co99 N103 2.148 . S
Co99 N109 2.128 . S
Co99 N119 2.194 . S
Co99 O124 2.351 . S
Co99 O125 2.150 1_455 S
Co99 O126 2.096 1_455 S
C100 N103 1.301 . S
C100 N104 1.328 . S
C100 H105 0.930 . S
C101 C102 1.333 . S
C101 N103 1.317 1_655 S
C101 H106 0.930 . S
C102 C101 1.333 . S
C102 N104 1.350 1_655 S
C102 H128 0.931 . S
N103 Co99 2.148 . S
N103 C100 1.301 . S
N103 C101 1.317 1_455 S
N104 C100 1.328 . S
N104 C102 1.350 1_455 S
H105 C100 0.930 . S
H106 C101 0.930 . S
C107 O108 1.224 . S
C107 O126 1.247 . S
O108 C107 1.224 . S
N109 Co99 2.128 . S
N109 C110 1.355 . S
N109 C112 1.311 . S
C110 N109 1.355 . S
C110 C111 1.363 . S
C110 H122 0.929 . S
C111 C110 1.363 . S
C111 N113 1.375 . S
C111 H129 0.931 . S
C112 N109 1.311 . S
C112 N113 1.347 . S
C112 H123 0.929 1_455 S
N113 C111 1.375 . S
N113 C112 1.347 . S
C114 C117 1.365 . S
C114 N119 1.328 . S
C114 H120 0.929 . S
C115 C116 1.362 . S
C115 C118 1.378 . S
C115 H130 0.929 . S
C116 C115 1.362 . S
C116 C117 1.366 . S
C117 C114 1.365 . S
C117 C116 1.366 . S
C117 H131 0.930 . S
C118 C115 1.378 . S
C118 N119 1.315 . S
C118 H121 0.930 . S
N119 Co99 2.194 . S
N119 C114 1.328 . S
N119 C118 1.315 . S
H120 C114 0.929 . S
H121 C118 0.930 . S
H122 C110 0.929 . S
H123 C112 0.929 1_655 S
O124 Co99 2.351 . S
O124 C127 1.244 . S
O125 Co99 2.150 1_655 S
O125 C127 1.229 1_655 S
O126 Co99 2.096 1_655 S
O126 C107 1.247 . S
C127 O124 1.244 . S
C127 O125 1.229 1_455 S
H128 C102 0.931 . S
H129 C111 0.931 . S
H130 C115 0.929 . S
H131 C117 0.930 . S
Co132 N136 2.148 . S
Co132 N142 2.128 . S
Co132 N152 2.194 1_545 S
Co132 O157 2.351 1_545 S
Co132 O158 2.155 . S
Co132 O159 2.096 . S
C133 N136 1.301 . S
C133 N137 1.328 . S
C133 H138 0.930 1_545 S
C134 C135 1.333 . S
C134 N136 1.317 . S
C134 H139 0.930 . S
C135 C134 1.333 . S
C135 N137 1.350 . S
C135 H161 0.931 . S
N136 Co132 2.148 . S
N136 C133 1.301 . S
N136 C134 1.317 . S
N137 C133 1.328 . S
N137 C135 1.350 . S
H138 C133 0.930 1_565 S
H139 C134 0.930 . S
C140 O141 1.224 . S
C140 O159 1.247 . S
O141 C140 1.224 . S
N142 Co132 2.128 . S
N142 C143 1.355 1_545 S
N142 C145 1.311 . S
C143 N142 1.355 1_565 S
C143 C144 1.363 . S
C143 H155 0.929 . S
C144 C143 1.363 . S
C144 N146 1.375 1_565 S
C144 H162 0.931 . S
C145 N142 1.311 . S
C145 N146 1.347 . S
C145 H156 0.929 . S
N146 C144 1.375 1_545 S
N146 C145 1.347 . S
C147 C150 1.365 . S
C147 N152 1.328 . S
C147 H153 0.929 . S
C148 C149 1.362 . S
C148 C151 1.378 . S
C148 H163 0.929 . S
C149 C148 1.362 . S
C149 C150 1.366 . S
C150 C147 1.365 . S
C150 C149 1.366 . S
C150 H164 0.930 . S
C151 C148 1.378 . S
C151 N152 1.315 . S
C151 H154 0.930 . S
N152 Co132 2.194 1_565 S
N152 C147 1.328 . S
N152 C151 1.315 . S
H153 C147 0.929 . S
H154 C151 0.930 . S
H155 C143 0.929 . S
H156 C145 0.929 . S
O157 Co132 2.351 1_565 S
O157 C160 1.244 1_565 S
O158 Co132 2.155 . S
O158 C160 1.240 . S
O159 Co132 2.096 . S
O159 C140 1.247 . S
C160 O157 1.244 1_545 S
C160 O158 1.240 . S
H161 C135 0.931 . S
H162 C144 0.931 . S
H163 C148 0.929 . S
H164 C150 0.930 . S
Co165 N169 2.148 . S
Co165 N175 2.128 . S
Co165 N185 2.194 . S
Co165 O190 2.351 . S
Co165 O191 2.149 1_455 S
Co165 O192 2.096 1_455 S
C166 N169 1.301 . S
C166 N170 1.328 . S
C166 H171 0.930 . S
C167 C168 1.333 . S
C167 N169 1.317 1_655 S
C167 H172 0.930 . S
C168 C167 1.333 . S
C168 N170 1.350 1_655 S
C168 H194 0.931 . S
N169 Co165 2.148 . S
N169 C166 1.301 . S
N169 C167 1.317 1_455 S
N170 C166 1.328 . S
N170 C168 1.350 1_455 S
H171 C166 0.930 . S
H172 C167 0.930 . S
C173 O174 1.224 . S
C173 O192 1.247 . S
O174 C173 1.224 . S
N175 Co165 2.128 . S
N175 C176 1.355 . S
N175 C178 1.311 . S
C176 N175 1.355 . S
C176 C177 1.363 . S
C176 H188 0.929 . S
C177 C176 1.363 . S
C177 N179 1.375 . S
C177 H195 0.931 . S
C178 N175 1.311 . S
C178 N179 1.347 . S
C178 H189 0.929 1_455 S
N179 C177 1.375 . S
N179 C178 1.347 . S
C180 C183 1.365 . S
C180 N185 1.328 . S
C180 H186 0.929 . S
C181 C182 1.362 . S
C181 C184 1.378 . S
C181 H196 0.929 . S
C182 C181 1.362 . S
C182 C183 1.366 . S
C183 C180 1.365 . S
C183 C182 1.366 . S
C183 H197 0.930 . S
C184 C181 1.378 . S
C184 N185 1.315 . S
C184 H187 0.930 . S
N185 Co165 2.194 . S
N185 C180 1.328 . S
N185 C184 1.315 . S
H186 C180 0.929 . S
H187 C184 0.930 . S
H188 C176 0.929 . S
H189 C178 0.929 1_655 S
O190 Co165 2.351 . S
O190 C193 1.244 . S
O191 Co165 2.149 1_655 S
O191 C193 1.227 1_655 S
O192 Co165 2.096 1_655 S
O192 C173 1.247 . S
C193 O190 1.244 . S
C193 O191 1.227 1_455 S
H194 C168 0.931 . S
H195 C177 0.931 . S
H196 C181 0.929 . S
H197 C183 0.930 . S
Co198 N202 2.148 . S
Co198 N208 2.128 . S
Co198 N218 2.194 . S
Co198 O223 2.351 . S
Co198 O224 2.150 1_545 S
Co198 O225 2.096 1_545 S
C199 N202 1.301 . S
C199 N203 1.328 . S
C199 H204 0.930 . S
C200 C201 1.333 . S
C200 N202 1.317 1_565 S
C200 H205 0.930 . S
C201 C200 1.333 . S
C201 N203 1.350 1_565 S
C201 H227 0.931 . S
N202 Co198 2.148 . S
N202 C199 1.301 . S
N202 C200 1.317 1_545 S
N203 C199 1.328 . S
N203 C201 1.350 1_545 S
H204 C199 0.930 . S
H205 C200 0.930 . S
C206 O207 1.224 . S
C206 O225 1.247 . S
O207 C206 1.224 . S
N208 Co198 2.128 . S
N208 C209 1.355 . S
N208 C211 1.311 . S
C209 N208 1.355 . S
C209 C210 1.363 . S
C209 H221 0.929 . S
C210 C209 1.363 . S
C210 N212 1.375 . S
C210 H228 0.931 . S
C211 N208 1.311 . S
C211 N212 1.347 . S
C211 H222 0.929 1_545 S
N212 C210 1.375 . S
N212 C211 1.347 . S
C213 C216 1.365 . S
C213 N218 1.328 . S
C213 H219 0.929 . S
C214 C215 1.362 . S
C214 C217 1.378 . S
C214 H229 0.929 . S
C215 C214 1.362 . S
C215 C216 1.366 . S
C216 C213 1.365 . S
C216 C215 1.366 . S
C216 H230 0.930 . S
C217 C214 1.378 . S
C217 N218 1.315 . S
C217 H220 0.930 . S
N218 Co198 2.194 . S
N218 C213 1.328 . S
N218 C217 1.315 . S
H219 C213 0.929 . S
H220 C217 0.930 . S
H221 C209 0.929 . S
H222 C211 0.929 1_565 S
O223 Co198 2.351 . S
O223 C226 1.244 . S
O224 Co198 2.150 1_565 S
O224 C226 1.229 1_565 S
O225 Co198 2.096 1_565 S
O225 C206 1.247 . S
C226 O223 1.244 . S
C226 O224 1.229 1_545 S
H227 C201 0.931 . S
H228 C210 0.931 . S
H229 C214 0.929 . S
H230 C216 0.930 . S
Co231 N235 2.148 . S
Co231 N241 2.128 . S
Co231 N251 2.194 1_455 S
Co231 O256 2.351 1_455 S
Co231 O257 2.155 . S
Co231 O258 2.096 . S
C232 N235 1.301 . S
C232 N236 1.328 . S
C232 H237 0.930 1_455 S
C233 C234 1.333 . S
C233 N235 1.317 . S
C233 H238 0.930 . S
C234 C233 1.333 . S
C234 N236 1.350 . S
C234 H260 0.931 . S
N235 Co231 2.148 . S
N235 C232 1.301 . S
N235 C233 1.317 . S
N236 C232 1.328 . S
N236 C234 1.350 . S
H237 C232 0.930 1_655 S
H238 C233 0.930 . S
C239 O240 1.224 . S
C239 O258 1.247 . S
O240 C239 1.224 . S
N241 Co231 2.128 . S
N241 C242 1.355 1_455 S
N241 C244 1.311 . S
C242 N241 1.355 1_655 S
C242 C243 1.363 . S
C242 H254 0.929 . S
C243 C242 1.363 . S
C243 N245 1.375 1_655 S
C243 H261 0.931 . S
C244 N241 1.311 . S
C244 N245 1.347 . S
C244 H255 0.929 . S
N245 C243 1.375 1_455 S
N245 C244 1.347 . S
C246 C249 1.365 . S
C246 N251 1.328 . S
C246 H252 0.929 . S
C247 C248 1.362 . S
C247 C250 1.378 . S
C247 H262 0.929 . S
C248 C247 1.362 . S
C248 C249 1.366 . S
C249 C246 1.365 . S
C249 C248 1.366 . S
C249 H263 0.930 . S
C250 C247 1.378 . S
C250 N251 1.315 . S
C250 H253 0.930 . S
N251 Co231 2.194 1_655 S
N251 C246 1.328 . S
N251 C250 1.315 . S
H252 C246 0.929 . S
H253 C250 0.930 . S
H254 C242 0.929 . S
H255 C244 0.929 . S
O256 Co231 2.351 1_655 S
O256 C259 1.244 1_655 S
O257 Co231 2.155 . S
O257 C259 1.240 . S
O258 Co231 2.096 . S
O258 C239 1.247 . S
C259 O256 1.244 1_455 S
C259 O257 1.240 . S
H260 C234 0.931 . S
H261 C243 0.931 . S
H262 C247 0.929 . S
H263 C249 0.930 . S
H264 C276 0.930 . S
H265 C278 0.930 . S
H266 C279 0.930 . S
H267 C283 0.959 . S
H268 C283 0.959 . S
H269 C283 0.961 1_554 S
H270 C284 0.960 1_554 S
H271 C284 0.961 . S
H272 C284 0.959 . S
H273 C287 0.929 . S
H274 C288 0.931 . S
H275 C290 0.930 . S
C276 H264 0.930 . S
C276 C277 1.399 . S
C276 C281 1.399 . S
C277 C276 1.399 . S
C277 C278 1.376 1_545 S
C278 H265 0.930 . S
C278 C277 1.376 1_565 S
C278 C279 1.388 . S
C279 H266 0.930 . S
C279 C278 1.388 . S
C279 C280 1.390 1_565 S
C280 C279 1.390 1_545 S
C280 C281 1.394 . S
C280 C286 1.465 1_554 S
C281 C276 1.399 . S
C281 C280 1.394 . S
C281 C282 1.516 1_554 S
C282 C281 1.516 1_556 S
C282 C283 1.502 . S
C282 C284 1.561 . S
C282 C285 1.526 . S
C283 H267 0.959 . S
C283 H268 0.959 . S
C283 H269 0.961 1_556 S
C283 C282 1.502 . S
C284 H270 0.960 1_556 S
C284 H271 0.961 . S
C284 H272 0.959 . S
C284 C282 1.561 . S
C285 C282 1.526 . S
C285 C286 1.396 . S
C285 C290 1.390 . S
C286 C280 1.465 1_556 S
C286 C285 1.396 . S
C286 C287 1.399 1_545 S
C287 H273 0.929 . S
C287 C286 1.399 1_565 S
C287 C288 1.385 . S
C288 H274 0.931 . S
C288 C287 1.385 . S
C288 C289 1.389 1_565 S
C289 C288 1.389 1_545 S
C289 C290 1.387 . S
C290 H275 0.930 . S
C290 C285 1.390 . S
C290 C289 1.387 . S
H291 C303 0.930 . S
H292 C305 0.930 1_655 S
H293 C306 0.930 . S
H294 C310 0.959 . S
H295 C310 0.959 . S
H296 C310 0.961 . S
H297 C311 0.960 . S
H298 C311 0.961 . S
H299 C311 0.959 1_655 S
H300 C314 0.929 . S
H301 C315 0.931 . S
H302 C317 0.930 . S
C303 H291 0.930 . S
C303 C304 1.399 . S
C303 C308 1.399 . S
C304 C303 1.399 . S
C304 C305 1.376 . S
C305 H292 0.930 1_455 S
C305 C304 1.376 . S
C305 C306 1.388 1_455 S
C306 H293 0.930 . S
C306 C305 1.388 1_655 S
C306 C307 1.390 1_655 S
C307 C306 1.390 1_455 S
C307 C308 1.394 . S
C307 C313 1.465 . S
C308 C303 1.399 . S
C308 C307 1.394 . S
C308 C309 1.516 . S
C309 C308 1.516 . S
C309 C310 1.502 . S
C309 C311 1.561 . S
C309 C312 1.526 . S
C310 H294 0.959 . S
C310 H295 0.959 . S
C310 H296 0.961 . S
C310 C309 1.502 . S
C311 H297 0.960 . S
C311 H298 0.961 . S
C311 H299 0.959 1_455 S
C311 C309 1.561 . S
C312 C309 1.526 . S
C312 C313 1.396 . S
C312 C317 1.390 . S
C313 C307 1.465 . S
C313 C312 1.396 . S
C313 C314 1.399 1_455 S
C314 H300 0.929 . S
C314 C313 1.399 1_655 S
C314 C315 1.385 . S
C315 H301 0.931 . S
C315 C314 1.385 . S
C315 C316 1.389 1_655 S
C316 C315 1.389 1_455 S
C316 C317 1.387 . S
C317 H302 0.930 . S
C317 C312 1.390 . S
C317 C316 1.387 . S
H318 C330 0.930 . S
H319 C332 0.930 . S
H320 C333 0.930 . S
H321 C337 0.956 1_556 S
H322 C337 0.959 1_556 S
H323 C337 0.961 . S
H324 C338 0.960 . S
H325 C338 0.961 1_556 S
H326 C338 0.959 . S
H327 C341 0.929 . S
H328 C342 0.931 . S
H329 C344 0.930 . S
C330 H318 0.930 . S
C330 C331 1.399 . S
C330 C335 1.399 . S
C331 C330 1.399 . S
C331 C332 1.376 1_545 S
C332 H319 0.930 . S
C332 C331 1.376 1_565 S
C332 C333 1.388 . S
C333 H320 0.930 . S
C333 C332 1.388 . S
C333 C334 1.390 1_565 S
C334 C333 1.390 1_545 S
C334 C335 1.394 . S
C334 C340 1.465 1_554 S
C335 C330 1.399 . S
C335 C334 1.394 . S
C335 C336 1.516 . S
C336 C335 1.516 . S
C336 C337 1.502 . S
C336 C338 1.561 . S
C336 C339 1.526 1_554 S
C337 H321 0.956 1_554 S
C337 H322 0.959 1_554 S
C337 H323 0.961 . S
C337 C336 1.502 . S
C338 H324 0.960 . S
C338 H325 0.961 1_554 S
C338 H326 0.959 . S
C338 C336 1.561 . S
C339 C336 1.526 1_556 S
C339 C340 1.396 . S
C339 C344 1.390 . S
C340 C334 1.465 1_556 S
C340 C339 1.396 . S
C340 C341 1.399 1_545 S
C341 H327 0.929 . S
C341 C340 1.399 1_565 S
C341 C342 1.385 . S
C342 H328 0.931 . S
C342 C341 1.385 . S
C342 C343 1.389 1_565 S
C343 C342 1.389 1_545 S
C343 C344 1.387 . S
C344 H329 0.930 . S
C344 C339 1.390 . S
C344 C343 1.387 . S
H345 C357 0.930 1_655 S
H346 C359 0.930 . S
H347 C360 0.930 . S
H348 C364 0.959 . S
H349 C364 0.959 . S
H350 C364 0.961 . S
H351 C365 0.960 . S
H352 C365 0.961 . S
H353 C365 0.959 . S
H354 C368 0.929 . S
H355 C369 0.931 . S
H356 C371 0.930 . S
C357 H345 0.930 1_455 S
C357 C358 1.399 . S
C357 C362 1.399 . S
C358 C357 1.399 . S
C358 C359 1.376 . S
C359 H346 0.930 . S
C359 C358 1.376 . S
C359 C360 1.388 . S
C360 H347 0.930 . S
C360 C359 1.388 . S
C360 C361 1.390 . S
C361 C360 1.390 . S
C361 C362 1.394 . S
C361 C367 1.465 . S
C362 C357 1.399 . S
C362 C361 1.394 . S
C362 C363 1.516 . S
C363 C362 1.516 . S
C363 C364 1.502 1_455 S
C363 C365 1.561 . S
C363 C366 1.526 . S
C364 H348 0.959 . S
C364 H349 0.959 . S
C364 H350 0.961 . S
C364 C363 1.502 1_655 S
C365 H351 0.960 . S
C365 H352 0.961 . S
C365 H353 0.959 . S
C365 C363 1.561 . S
C366 C363 1.526 . S
C366 C367 1.396 . S
C366 C371 1.390 . S
C367 C361 1.465 . S
C367 C366 1.396 . S
C367 C368 1.399 . S
C368 H354 0.929 . S
C368 C367 1.399 . S
C368 C369 1.385 . S
C369 H355 0.931 . S
C369 C368 1.385 . S
C369 C370 1.389 . S
C370 C369 1.389 . S
C370 C371 1.387 . S
C371 H356 0.930 . S
C371 C366 1.390 . S
C371 C370 1.387 . S
H372 C384 0.930 . S
H373 C386 0.930 . S
H374 C387 0.930 . S
H375 C391 0.959 . S
H376 C391 0.959 . S
H377 C391 0.961 . S
H378 C392 0.960 . S
H379 C392 0.961 . S
H380 C392 0.959 . S
H381 C395 0.929 . S
H382 C396 0.931 . S
H383 C398 0.930 . S
C384 H372 0.930 . S
C384 C385 1.399 . S
C384 C389 1.399 . S
C385 C384 1.399 . S
C385 C386 1.376 . S
C386 H373 0.930 . S
C386 C385 1.376 . S
C386 C387 1.388 . S
C387 H374 0.930 . S
C387 C386 1.388 . S
C387 C388 1.390 . S
C388 C387 1.390 . S
C388 C389 1.394 . S
C388 C394 1.465 . S
C389 C384 1.399 . S
C389 C388 1.394 . S
C389 C390 1.516 . S
C390 C389 1.516 . S
C390 C391 1.502 . S
C390 C392 1.561 . S
C390 C393 1.526 . S
C391 H375 0.959 . S
C391 H376 0.959 . S
C391 H377 0.961 . S
C391 C390 1.502 . S
C392 H378 0.960 . S
C392 H379 0.961 . S
C392 H380 0.959 . S
C392 C390 1.561 . S
C393 C390 1.526 . S
C393 C394 1.396 . S
C393 C398 1.390 . S
C394 C388 1.465 . S
C394 C393 1.396 . S
C394 C395 1.399 . S
C395 H381 0.929 . S
C395 C394 1.399 . S
C395 C396 1.385 . S
C396 H382 0.931 . S
C396 C395 1.385 . S
C396 C397 1.389 . S
C397 C396 1.389 . S
C397 C398 1.387 . S
C398 H383 0.930 . S
C398 C393 1.390 . S
C398 C397 1.387 . S
H399 C411 0.930 . S
H400 C413 0.930 . S
H401 C414 0.930 . S
H402 C418 0.959 . S
H403 C418 0.959 . S
H404 C418 0.961 . S
H405 C419 0.960 . S
H406 C419 0.961 . S
H407 C419 0.959 . S
H408 C422 0.929 . S
H409 C423 0.931 . S
H410 C425 0.930 . S
C411 H399 0.930 . S
C411 C412 1.399 . S
C411 C416 1.399 . S
C412 C411 1.399 . S
C412 C413 1.376 . S
C413 H400 0.930 . S
C413 C412 1.376 . S
C413 C414 1.388 . S
C414 H401 0.930 . S
C414 C413 1.388 . S
C414 C415 1.390 . S
C415 C414 1.390 . S
C415 C416 1.394 . S
C415 C421 1.465 . S
C416 C411 1.399 . S
C416 C415 1.394 . S
C416 C417 1.516 . S
C417 C416 1.516 . S
C417 C418 1.502 . S
C417 C419 1.561 . S
C417 C420 1.526 . S
C418 H402 0.959 . S
C418 H403 0.959 . S
C418 H404 0.961 . S
C418 C417 1.502 . S
C419 H405 0.960 . S
C419 H406 0.961 . S
C419 H407 0.959 . S
C419 C417 1.561 . S
C420 C417 1.526 . S
C420 C421 1.396 . S
C420 C425 1.390 . S
C421 C415 1.465 . S
C421 C420 1.396 . S
C421 C422 1.399 . S
C422 H408 0.929 . S
C422 C421 1.399 . S
C422 C423 1.385 . S
C423 H409 0.931 . S
C423 C422 1.385 . S
C423 C424 1.389 . S
C424 C423 1.389 . S
C424 C425 1.387 . S
C425 H410 0.930 . S
C425 C420 1.390 . S
C425 C424 1.387 . S
H426 C438 0.930 . S
H427 C440 0.930 . S
H428 C441 0.930 . S
H429 C445 0.959 . S
H430 C445 0.959 . S
H431 C445 0.961 . S
H432 C446 0.960 . S
H433 C446 0.961 . S
H434 C446 0.959 . S
H435 C449 0.929 . S
H436 C450 0.931 . S
H437 C452 0.930 . S
C438 H426 0.930 . S
C438 C439 1.399 . S
C438 C443 1.399 . S
C439 C438 1.399 . S
C439 C440 1.376 . S
C440 H427 0.930 . S
C440 C439 1.376 . S
C440 C441 1.388 . S
C441 H428 0.930 . S
C441 C440 1.388 . S
C441 C442 1.390 . S
C442 C441 1.390 . S
C442 C443 1.394 . S
C442 C448 1.465 . S
C443 C438 1.399 . S
C443 C442 1.394 . S
C443 C444 1.516 . S
C444 C443 1.516 . S
C444 C445 1.502 . S
C444 C446 1.561 . S
C444 C447 1.526 . S
C445 H429 0.959 . S
C445 H430 0.959 . S
C445 H431 0.961 . S
C445 C444 1.502 . S
C446 H432 0.960 . S
C446 H433 0.961 . S
C446 H434 0.959 . S
C446 C444 1.561 . S
C447 C444 1.526 . S
C447 C448 1.396 . S
C447 C452 1.390 . S
C448 C442 1.465 . S
C448 C447 1.396 . S
C448 C449 1.399 . S
C449 H435 0.929 . S
C449 C448 1.399 . S
C449 C450 1.385 . S
C450 H436 0.931 . S
C450 C449 1.385 . S
C450 C451 1.389 . S
C451 C450 1.389 . S
C451 C452 1.387 . S
C452 H437 0.930 . S
C452 C447 1.390 . S
C452 C451 1.387 . S
H453 C465 0.930 . S
H454 C467 0.930 . S
H455 C468 0.930 . S
H456 C472 0.959 . S
H457 C472 0.959 . S
H458 C472 0.961 . S
H459 C473 0.960 . S
H460 C473 0.961 . S
H461 C473 0.959 . S
H462 C476 0.929 . S
H463 C477 0.931 . S
H464 C479 0.930 . S
C465 H453 0.930 . S
C465 C466 1.399 . S
C465 C470 1.399 . S
C466 C465 1.399 . S
C466 C467 1.376 . S
C467 H454 0.930 . S
C467 C466 1.376 . S
C467 C468 1.388 . S
C468 H455 0.930 . S
C468 C467 1.388 . S
C468 C469 1.390 . S
C469 C468 1.390 . S
C469 C470 1.394 . S
C469 C475 1.465 . S
C470 C465 1.399 . S
C470 C469 1.394 . S
C470 C471 1.516 . S
C471 C470 1.516 . S
C471 C472 1.502 . S
C471 C473 1.561 . S
C471 C474 1.526 . S
C472 H456 0.959 . S
C472 H457 0.959 . S
C472 H458 0.961 . S
C472 C471 1.502 . S
C473 H459 0.960 . S
C473 H460 0.961 . S
C473 H461 0.959 . S
C473 C471 1.561 . S
C474 C471 1.526 . S
C474 C475 1.396 . S
C474 C479 1.390 . S
C475 C469 1.465 . S
C475 C474 1.396 . S
C475 C476 1.399 . S
C476 H462 0.929 . S
C476 C475 1.399 . S
C476 C477 1.385 . S
C477 H463 0.931 . S
C477 C476 1.385 . S
C477 C478 1.389 . S
C478 C477 1.389 . S
C478 C479 1.387 . S
C479 H464 0.930 . S
C479 C474 1.390 . S
C479 C478 1.387 . S
H480 C492 0.930 . S
H481 C494 0.930 . S
H482 C495 0.930 . S
H483 C499 0.959 . S
H484 C499 0.959 . S
H485 C499 0.961 . S
H486 C500 0.960 . S
H487 C500 0.961 . S
H488 C500 0.959 . S
H489 C503 0.929 . S
H490 C504 0.931 . S
H491 C506 0.930 . S
C492 H480 0.930 . S
C492 C493 1.399 . S
C492 C497 1.399 . S
C493 C492 1.399 . S
C493 C494 1.376 . S
C494 H481 0.930 . S
C494 C493 1.376 . S
C494 C495 1.388 . S
C495 H482 0.930 . S
C495 C494 1.388 . S
C495 C496 1.390 . S
C496 C495 1.390 . S
C496 C497 1.394 . S
C496 C502 1.465 . S
C497 C492 1.399 . S
C497 C496 1.394 . S
C497 C498 1.516 . S
C498 C497 1.516 . S
C498 C499 1.502 . S
C498 C500 1.561 . S
C498 C501 1.526 . S
C499 H483 0.959 . S
C499 H484 0.959 . S
C499 H485 0.961 . S
C499 C498 1.502 . S
C500 H486 0.960 . S
C500 H487 0.961 . S
C500 H488 0.959 . S
C500 C498 1.561 . S
C501 C498 1.526 . S
C501 C502 1.396 . S
C501 C506 1.390 . S
C502 C496 1.465 . S
C502 C501 1.396 . S
C502 C503 1.399 . S
C503 H489 0.929 . S
C503 C502 1.399 . S
C503 C504 1.385 . S
C504 H490 0.931 . S
C504 C503 1.385 . S
C504 C505 1.389 . S
C505 C504 1.389 . S
C505 C506 1.387 . S
C506 H491 0.930 . S
C506 C501 1.390 . S
C506 C505 1.387 . S
H507 C519 0.930 . S
H508 C521 0.930 . S
H509 C522 0.930 . S
H510 C526 0.959 . S
H511 C526 0.959 . S
H512 C526 0.961 . S
H513 C527 0.960 . S
H514 C527 0.961 . S
H515 C527 0.959 . S
H516 C530 0.929 . S
H517 C531 0.931 . S
H518 C533 0.930 . S
C519 H507 0.930 . S
C519 C520 1.399 . S
C519 C524 1.399 . S
C520 C519 1.399 . S
C520 C521 1.376 . S
C521 H508 0.930 . S
C521 C520 1.376 . S
C521 C522 1.388 . S
C522 H509 0.930 . S
C522 C521 1.388 . S
C522 C523 1.390 . S
C523 C522 1.390 . S
C523 C524 1.394 . S
C523 C529 1.465 . S
C524 C519 1.399 . S
C524 C523 1.394 . S
C524 C525 1.516 . S
C525 C524 1.516 . S
C525 C526 1.502 . S
C525 C527 1.561 . S
C525 C528 1.526 . S
C526 H510 0.959 . S
C526 H511 0.959 . S
C526 H512 0.961 . S
C526 C525 1.502 . S
C527 H513 0.960 . S
C527 H514 0.961 . S
C527 H515 0.959 . S
C527 C525 1.561 . S
C528 C525 1.526 . S
C528 C529 1.396 . S
C528 C533 1.390 . S
C529 C523 1.465 . S
C529 C528 1.396 . S
C529 C530 1.399 . S
C530 H516 0.929 . S
C530 C529 1.399 . S
C530 C531 1.385 . S
C531 H517 0.931 . S
C531 C530 1.385 . S
C531 C532 1.389 . S
C532 C531 1.389 . S
C532 C533 1.387 . S
C533 H518 0.930 . S
C533 C528 1.390 . S
C533 C532 1.387 . S
H534 C546 0.930 . S
H535 C548 0.930 . S
H536 C549 0.930 . S
H537 C553 0.959 . S
H538 C553 0.959 . S
H539 C553 0.961 . S
H540 C554 0.960 . S
H541 C554 0.961 . S
H542 C554 0.959 . S
H543 C557 0.929 . S
H544 C558 0.931 . S
H545 C560 0.930 . S
C546 H534 0.930 . S
C546 C547 1.399 . S
C546 C551 1.399 . S
C547 C546 1.399 . S
C547 C548 1.376 . S
C548 H535 0.930 . S
C548 C547 1.376 . S
C548 C549 1.388 . S
C549 H536 0.930 . S
C549 C548 1.388 . S
C549 C550 1.390 . S
C550 C549 1.390 . S
C550 C551 1.394 . S
C550 C556 1.465 . S
C551 C546 1.399 . S
C551 C550 1.394 . S
C551 C552 1.516 . S
C552 C551 1.516 . S
C552 C553 1.502 . S
C552 C554 1.561 . S
C552 C555 1.526 . S
C553 H537 0.959 . S
C553 H538 0.959 . S
C553 H539 0.961 . S
C553 C552 1.502 . S
C554 H540 0.960 . S
C554 H541 0.961 . S
C554 H542 0.959 . S
C554 C552 1.561 . S
C555 C552 1.526 . S
C555 C556 1.396 . S
C555 C560 1.390 . S
C556 C550 1.465 . S
C556 C555 1.396 . S
C556 C557 1.399 . S
C557 H543 0.929 . S
C557 C556 1.399 . S
C557 C558 1.385 . S
C558 H544 0.931 . S
C558 C557 1.385 . S
C558 C559 1.389 . S
C559 C558 1.389 . S
C559 C560 1.387 . S
C560 H545 0.930 . S
C560 C555 1.390 . S
C560 C559 1.387 . S
H561 C573 0.930 . S
H562 C575 0.930 . S
H563 C576 0.930 . S
H564 C580 0.959 . S
H565 C580 0.959 . S
H566 C580 0.961 . S
H567 C581 0.960 . S
H568 C581 0.961 . S
H569 C581 0.959 . S
H570 C584 0.929 . S
H571 C585 0.931 . S
H572 C587 0.930 . S
C573 H561 0.930 . S
C573 C574 1.399 . S
C573 C578 1.399 . S
C574 C573 1.399 . S
C574 C575 1.376 . S
C575 H562 0.930 . S
C575 C574 1.376 . S
C575 C576 1.388 . S
C576 H563 0.930 . S
C576 C575 1.388 . S
C576 C577 1.390 . S
C577 C576 1.390 . S
C577 C578 1.394 . S
C577 C583 1.465 . S
C578 C573 1.399 . S
C578 C577 1.394 . S
C578 C579 1.516 . S
C579 C578 1.516 . S
C579 C580 1.502 . S
C579 C581 1.561 . S
C579 C582 1.526 . S
C580 H564 0.959 . S
C580 H565 0.959 . S
C580 H566 0.961 . S
C580 C579 1.502 . S
C581 H567 0.960 . S
C581 H568 0.961 . S
C581 H569 0.959 . S
C581 C579 1.561 . S
C582 C579 1.526 . S
C582 C583 1.396 . S
C582 C587 1.390 . S
C583 C577 1.465 . S
C583 C582 1.396 . S
C583 C584 1.399 . S
C584 H570 0.929 . S
C584 C583 1.399 . S
C584 C585 1.385 . S
C585 H571 0.931 . S
C585 C584 1.385 . S
C585 C586 1.389 . S
C586 C585 1.389 . S
C586 C587 1.387 . S
C587 H572 0.930 . S
C587 C582 1.390 . S
C587 C586 1.387 . S
H588 C600 0.930 . S
H589 C602 0.928 1_565 S
H590 C603 0.930 . S
H591 C607 0.959 . S
H592 C607 0.959 . S
H593 C607 0.961 . S
H594 C608 0.960 . S
H595 C608 0.961 . S
H596 C608 0.959 1_565 S
H597 C611 0.929 1_565 S
H598 C612 0.931 . S
H599 C614 0.930 . S
C600 H588 0.930 . S
C600 C601 1.399 . S
C600 C605 1.399 . S
C601 C600 1.399 . S
C601 C602 1.379 . S
C602 H589 0.928 1_545 S
C602 C601 1.379 . S
C602 C603 1.388 1_545 S
C603 H590 0.930 . S
C603 C602 1.388 1_565 S
C603 C604 1.390 1_565 S
C604 C603 1.390 1_545 S
C604 C605 1.394 . S
C604 C610 1.465 . S
C605 C600 1.399 . S
C605 C604 1.394 . S
C605 C606 1.516 . S
C606 C605 1.516 . S
C606 C607 1.502 . S
C606 C608 1.561 . S
C606 C609 1.526 1_455 S
C607 H591 0.959 . S
C607 H592 0.959 . S
C607 H593 0.961 . S
C607 C606 1.502 . S
C608 H594 0.960 . S
C608 H595 0.961 . S
C608 H596 0.959 1_545 S
C608 C606 1.561 . S
C609 C606 1.526 1_655 S
C609 C610 1.396 1_655 S
C609 C614 1.390 . S
C610 C604 1.465 . S
C610 C609 1.396 1_455 S
C610 C611 1.399 1_455 S
C611 H597 0.929 1_545 S
C611 C610 1.399 1_655 S
C611 C612 1.385 . S
C612 H598 0.931 . S
C612 C611 1.385 . S
C612 C613 1.389 . S
C613 C612 1.389 . S
C613 C614 1.387 . S
C614 H599 0.930 . S
C614 C609 1.390 . S
C614 C613 1.387 . S
H615 C627 0.930 . S
H616 C629 0.930 . S
H617 C630 0.930 . S
H618 C634 0.972 . S
H619 C634 0.964 . S
H620 C634 0.961 . S
H621 C635 0.960 . S
H622 C635 0.961 1_565 S
H623 C635 0.959 . S
H624 C638 0.929 1_655 S
H625 C639 0.931 1_655 S
H626 C641 0.930 . S
C627 H615 0.930 . S
C627 C628 1.399 . S
C627 C632 1.399 . S
C628 C627 1.399 . S
C628 C629 1.376 . S
C629 H616 0.930 . S
C629 C628 1.376 . S
C629 C630 1.388 . S
C630 H617 0.930 . S
C630 C629 1.388 . S
C630 C631 1.390 . S
C631 C630 1.390 . S
C631 C632 1.394 . S
C631 C637 1.465 . S
C632 C627 1.399 . S
C632 C631 1.394 . S
C632 C633 1.516 . S
C633 C632 1.516 . S
C633 C634 1.502 . S
C633 C635 1.561 . S
C633 C636 1.526 1_545 S
C634 H618 0.972 . S
C634 H619 0.964 . S
C634 H620 0.961 . S
C634 C633 1.502 . S
C635 H621 0.960 . S
C635 H622 0.961 1_545 S
C635 H623 0.959 . S
C635 C633 1.561 . S
C636 C633 1.526 1_565 S
C636 C637 1.396 1_565 S
C636 C641 1.390 . S
C637 C631 1.465 . S
C637 C636 1.396 1_545 S
C637 C638 1.399 1_545 S
C638 H624 0.929 1_455 S
C638 C637 1.399 1_565 S
C638 C639 1.385 . S
C639 H625 0.931 1_455 S
C639 C638 1.385 . S
C639 C640 1.389 . S
C640 C639 1.389 . S
C640 C641 1.387 . S
C641 H626 0.930 . S
C641 C636 1.390 . S
C641 C640 1.387 . S
H642 C654 0.930 . S
H643 C656 0.925 1_565 S
H644 C657 0.930 . S
H645 C661 0.959 . S
H646 C661 0.959 . S
H647 C661 0.961 1_655 S
H648 C662 0.969 . S
H649 C662 0.961 . S
H650 C662 0.959 1_565 S
H651 C665 0.929 1_565 S
H652 C666 0.931 . S
H653 C668 0.930 . S
C654 H642 0.930 . S
C654 C655 1.399 . S
C654 C659 1.399 . S
C655 C654 1.399 . S
C655 C656 1.383 . S
C656 H643 0.925 1_545 S
C656 C655 1.383 . S
C656 C657 1.387 1_545 S
C657 H644 0.930 . S
C657 C656 1.387 1_565 S
C657 C658 1.390 1_665 S
C658 C657 1.390 1_445 S
C658 C659 1.394 1_455 S
C658 C664 1.465 . S
C659 C654 1.399 . S
C659 C658 1.394 1_655 S
C659 C660 1.516 1_655 S
C660 C659 1.516 1_455 S
C660 C661 1.502 . S
C660 C662 1.561 . S
C660 C663 1.526 . S
C661 H645 0.959 . S
C661 H646 0.959 . S
C661 H647 0.961 1_455 S
C661 C660 1.502 . S
C662 H648 0.969 . S
C662 H649 0.961 . S
C662 H650 0.959 1_545 S
C662 C660 1.561 . S
C663 C660 1.526 . S
C663 C664 1.396 . S
C663 C668 1.390 . S
C664 C658 1.465 . S
C664 C663 1.396 . S
C664 C665 1.399 . S
C665 H651 0.929 1_545 S
C665 C664 1.399 . S
C665 C666 1.385 . S
C666 H652 0.931 . S
C666 C665 1.385 . S
C666 C667 1.389 . S
C667 C666 1.389 . S
C667 C668 1.387 . S
C668 H653 0.930 . S
C668 C663 1.390 . S
C668 C667 1.387 . S
H669 C681 0.930 . S
H670 C683 0.930 . S
H671 C684 0.930 . S
H672 C688 0.959 . S
H673 C688 0.959 . S
H674 C688 0.961 . S
H675 C689 0.960 . S
H676 C689 0.961 . S
H677 C689 0.959 . S
H678 C692 0.929 . S
H679 C693 0.931 . S
H680 C695 0.930 . S
C681 H669 0.930 . S
C681 C682 1.399 . S
C681 C686 1.399 . S
C682 C681 1.399 . S
C682 C683 1.376 1_455 S
C683 H670 0.930 . S
C683 C682 1.376 1_655 S
C683 C684 1.388 . S
C684 H671 0.930 . S
C684 C683 1.388 . S
C684 C685 1.390 1_665 S
C685 C684 1.390 1_445 S
C685 C686 1.394 1_545 S
C685 C691 1.465 . S
C686 C681 1.399 . S
C686 C685 1.394 1_565 S
C686 C687 1.516 1_565 S
C687 C686 1.516 1_545 S
C687 C688 1.502 . S
C687 C689 1.561 . S
C687 C690 1.526 . S
C688 H672 0.959 . S
C688 H673 0.959 . S
C688 H674 0.961 . S
C688 C687 1.502 . S
C689 H675 0.960 . S
C689 H676 0.961 . S
C689 H677 0.959 . S
C689 C687 1.561 . S
C690 C687 1.526 . S
C690 C691 1.396 . S
C690 C695 1.390 . S
C691 C685 1.465 . S
C691 C690 1.396 . S
C691 C692 1.399 1_455 S
C692 H678 0.929 . S
C692 C691 1.399 1_655 S
C692 C693 1.385 . S
C693 H679 0.931 . S
C693 C692 1.385 . S
C693 C694 1.389 1_655 S
C694 C693 1.389 1_455 S
C694 C695 1.387 . S
C695 H680 0.930 . S
C695 C690 1.390 . S
C695 C694 1.387 . S
H696 C708 0.930 . S
H697 C710 0.930 . S
H698 C711 0.930 1_565 S
H699 C715 0.959 . S
H700 C715 0.959 . S
H701 C715 0.961 . S
H702 C716 0.960 . S
H703 C716 0.961 . S
H704 C716 0.959 1_565 S
H705 C719 0.937 . S
H706 C720 0.931 1_565 S
H707 C722 0.930 . S
C708 H696 0.930 . S
C708 C709 1.399 . S
C708 C713 1.399 . S
C709 C708 1.399 . S
C709 C710 1.376 . S
C710 H697 0.930 . S
C710 C709 1.376 . S
C710 C711 1.388 . S
C711 H698 0.930 1_545 S
C711 C710 1.388 . S
C711 C712 1.390 . S
C712 C711 1.390 . S
C712 C713 1.394 . S
C712 C718 1.465 . S
C713 C708 1.399 . S
C713 C712 1.394 . S
C713 C714 1.516 . S
C714 C713 1.516 . S
C714 C715 1.502 . S
C714 C716 1.561 . S
C714 C717 1.526 . S
C715 H699 0.959 . S
C715 H700 0.959 . S
C715 H701 0.961 . S
C715 C714 1.502 . S
C716 H702 0.960 . S
C716 H703 0.961 . S
C716 H704 0.959 1_545 S
C716 C714 1.561 . S
C717 C714 1.526 . S
C717 C718 1.396 . S
C717 C722 1.390 . S
C718 C712 1.465 . S
C718 C717 1.396 . S
C718 C719 1.393 1_545 S
C719 H705 0.937 . S
C719 C718 1.393 1_565 S
C719 C720 1.384 1_565 S
C720 H706 0.931 1_545 S
C720 C719 1.384 1_545 S
C720 C721 1.389 . S
C721 C720 1.389 . S
C721 C722 1.387 . S
C722 H707 0.930 . S
C722 C717 1.390 . S
C722 C721 1.387 . S
H723 C735 0.930 . S
H724 C737 0.930 . S
H725 C738 0.930 . S
H726 C742 0.959 . S
H727 C742 0.959 . S
H728 C742 0.961 . S
H729 C743 0.960 . S
H730 C743 0.961 . S
H731 C743 0.959 . S
H732 C746 0.929 . S
H733 C747 0.931 . S
H734 C749 0.930 . S
C735 H723 0.930 . S
C735 C736 1.399 . S
C735 C740 1.399 . S
C736 C735 1.399 . S
C736 C737 1.376 1_455 S
C737 H724 0.930 . S
C737 C736 1.376 1_655 S
C737 C738 1.388 . S
C738 H725 0.930 . S
C738 C737 1.388 . S
C738 C739 1.390 1_655 S
C739 C738 1.390 1_455 S
C739 C740 1.394 . S
C739 C745 1.465 . S
C740 C735 1.399 . S
C740 C739 1.394 . S
C740 C741 1.516 . S
C741 C740 1.516 . S
C741 C742 1.502 . S
C741 C743 1.561 . S
C741 C744 1.526 . S
C742 H726 0.959 . S
C742 H727 0.959 . S
C742 H728 0.961 . S
C742 C741 1.502 . S
C743 H729 0.960 . S
C743 H730 0.961 . S
C743 H731 0.959 . S
C743 C741 1.561 . S
C744 C741 1.526 . S
C744 C745 1.396 . S
C744 C749 1.390 . S
C745 C739 1.465 . S
C745 C744 1.396 . S
C745 C746 1.399 1_455 S
C746 H732 0.929 . S
C746 C745 1.399 1_655 S
C746 C747 1.385 . S
C747 H733 0.931 . S
C747 C746 1.385 . S
C747 C748 1.389 1_655 S
C748 C747 1.389 1_455 S
C748 C749 1.387 . S
C749 H734 0.930 . S
C749 C744 1.390 . S
C749 C748 1.387 . S
H750 C762 0.930 1_565 S
H751 C764 0.930 . S
H752 C765 0.930 . S
H753 C769 0.959 . S
H754 C769 0.959 . S
H755 C769 0.961 . S
H756 C770 0.960 . S
H757 C770 0.961 . S
H758 C770 0.959 . S
H759 C773 0.929 . S
H760 C774 0.931 . S
H761 C776 0.930 1_565 S
C762 H750 0.930 1_545 S
C762 C763 1.399 . S
C762 C767 1.399 . S
C763 C762 1.399 . S
C763 C764 1.376 . S
C764 H751 0.930 . S
C764 C763 1.376 . S
C764 C765 1.388 . S
C765 H752 0.930 . S
C765 C764 1.388 . S
C765 C766 1.390 . S
C766 C765 1.390 . S
C766 C767 1.394 . S
C766 C772 1.465 . S
C767 C762 1.399 . S
C767 C766 1.394 . S
C767 C768 1.521 . S
C768 C767 1.521 . S
C768 C769 1.487 1_545 S
C768 C770 1.568 . S
C768 C771 1.531 . S
C769 H753 0.959 . S
C769 H754 0.959 . S
C769 H755 0.961 . S
C769 C768 1.487 1_565 S
C770 H756 0.960 . S
C770 H757 0.961 . S
C770 H758 0.959 . S
C770 C768 1.568 . S
C771 C768 1.531 . S
C771 C772 1.396 . S
C771 C776 1.390 . S
C772 C766 1.465 . S
C772 C771 1.396 . S
C772 C773 1.399 . S
C773 H759 0.929 . S
C773 C772 1.399 . S
C773 C774 1.385 . S
C774 H760 0.931 . S
C774 C773 1.385 . S
C774 C775 1.389 . S
C775 C774 1.389 . S
C775 C776 1.387 . S
C776 H761 0.930 1_545 S
C776 C771 1.390 . S
C776 C775 1.387 . S
H777 C789 0.930 . S
H778 C791 0.931 . S
H779 C792 0.930 1_655 S
H780 C796 0.959 . S
H781 C796 0.959 . S
H782 C796 0.961 . S
H783 C797 0.960 . S
H784 C797 0.961 . S
H785 C797 0.959 1_655 S
H786 C800 0.929 . S
H787 C801 0.931 1_655 S
H788 C803 0.930 . S
C789 H777 0.930 . S
C789 C790 1.399 . S
C789 C794 1.399 . S
C790 C789 1.399 . S
C790 C791 1.376 . S
C791 H778 0.931 . S
C791 C790 1.376 . S
C791 C792 1.388 . S
C792 H779 0.930 1_455 S
C792 C791 1.388 . S
C792 C793 1.390 . S
C793 C792 1.390 . S
C793 C794 1.394 . S
C793 C799 1.465 . S
C794 C789 1.399 . S
C794 C793 1.394 . S
C794 C795 1.516 . S
C795 C794 1.516 . S
C795 C796 1.502 . S
C795 C797 1.561 . S
C795 C798 1.526 . S
C796 H780 0.959 . S
C796 H781 0.959 . S
C796 H782 0.961 . S
C796 C795 1.502 . S
C797 H783 0.960 . S
C797 H784 0.961 . S
C797 H785 0.959 1_455 S
C797 C795 1.561 . S
C798 C795 1.526 . S
C798 C799 1.396 . S
C798 C803 1.390 . S
C799 C793 1.465 . S
C799 C798 1.396 . S
C799 C800 1.399 1_455 S
C800 H786 0.929 . S
C800 C799 1.399 1_655 S
C800 C801 1.385 1_655 S
C801 H787 0.931 1_455 S
C801 C800 1.385 1_455 S
C801 C802 1.389 . S
C802 C801 1.389 . S
C802 C803 1.387 . S
C803 H788 0.930 . S
C803 C798 1.390 . S
C803 C802 1.387 . S
C277 C28 1.669 . S
C289 C160 1.675 . S
C304 C193 1.643 . S
C316 C61 1.648 . S
C331 C94 1.648 . S
C343 C226 1.644 . S
C358 C259 1.644 . S
C370 C127 1.649 . S
C385 C182 0.527 . S
C397 C17 0.534 . S
C412 C215 0.504 . S
C424 C50 0.482 . S
C439 C83 0.363 . S
C451 C248 0.391 . S
C466 C149 0.477 . S
C478 C116 0.451 . S
C493 C107 1.277 . S
C505 C206 1.282 . S
C520 C8 1.295 . S
C532 C239 1.301 . S
C547 C41 1.270 . S
C559 C140 1.274 . S
C574 C74 1.328 . S
C586 C173 1.323 . S
C601 N14 0.766 . S
C613 N80 0.691 . S
C628 N47 0.729 . S
C640 N113 0.740 . S
C655 N212 0.766 . S
C667 N146 0.691 . S
C682 N245 0.635 . S
C694 N179 0.751 . S
C709 N5 1.027 . S
C721 N71 1.077 . S
C736 N104 1.012 . S
C748 N38 1.085 . S
C763 N137 1.018 . S
C775 N203 1.083 . S
C790 N170 1.026 . S
C802 N236 1.077 . S
