# Generated by pormake.
# Topology uot, (4)-cn, num edge types: 1
# Building blocks:
#     Node 0, Type 0, BuildingBlock: UXUYUI_clean_sbu_0, # of connection points: 4
#     Node 1, Type 0, BuildingBlock: UXUYUI_clean_sbu_0, # of connection points: 4
#     Node 2, Type 0, BuildingBlock: UXUYUI_clean_sbu_0, # of connection points: 4
#     Node 3, Type 0, BuildingBlock: UXUYUI_clean_sbu_0, # of connection points: 4
#     Node 4, Type 0, BuildingBlock: UXUYUI_clean_sbu_0, # of connection points: 4
#     Node 5, Type 0, BuildingBlock: UXUYUI_clean_sbu_0, # of connection points: 4
#     Node 6, Type 0, BuildingBlock: UXUYUI_clean_sbu_0, # of connection points: 4
#     Node 7, Type 0, BuildingBlock: UXUYUI_clean_sbu_0, # of connection points: 4
#     Node 8, Type 0, BuildingBlock: UXUYUI_clean_sbu_0, # of connection points: 4
#     Node 9, Type 0, BuildingBlock: UXUYUI_clean_sbu_0, # of connection points: 4
#     Node 10, Type 0, BuildingBlock: UXUYUI_clean_sbu_0, # of connection points: 4
#     Node 11, Type 0, BuildingBlock: UXUYUI_clean_sbu_0, # of connection points: 4
#     Node 12, Type 0, BuildingBlock: UXUYUI_clean_sbu_0, # of connection points: 4
#     Node 13, Type 0, BuildingBlock: UXUYUI_clean_sbu_0, # of connection points: 4
#     Node 14, Type 0, BuildingBlock: UXUYUI_clean_sbu_0, # of connection points: 4
#     Node 15, Type 0, BuildingBlock: UXUYUI_clean_sbu_0, # of connection points: 4
#     Edge 16, Type (0, 0), BuildingBlock: EZIPEK_clean_linker_0, # of connection points: 2
#     Edge 17, Type (0, 0), BuildingBlock: EZIPEK_clean_linker_0, # of connection points: 2
#     Edge 18, Type (0, 0), BuildingBlock: EZIPEK_clean_linker_0, # of connection points: 2
#     Edge 19, Type (0, 0), BuildingBlock: EZIPEK_clean_linker_0, # of connection points: 2
#     Edge 20, Type (0, 0), BuildingBlock: EZIPEK_clean_linker_0, # of connection points: 2
#     Edge 21, Type (0, 0), BuildingBlock: EZIPEK_clean_linker_0, # of connection points: 2
#     Edge 22, Type (0, 0), BuildingBlock: EZIPEK_clean_linker_0, # of connection points: 2
#     Edge 23, Type (0, 0), BuildingBlock: EZIPEK_clean_linker_0, # of connection points: 2
#     Edge 24, Type (0, 0), BuildingBlock: EZIPEK_clean_linker_0, # of connection points: 2
#     Edge 25, Type (0, 0), BuildingBlock: EZIPEK_clean_linker_0, # of connection points: 2
#     Edge 26, Type (0, 0), BuildingBlock: EZIPEK_clean_linker_0, # of connection points: 2
#     Edge 27, Type (0, 0), BuildingBlock: EZIPEK_clean_linker_0, # of connection points: 2
#     Edge 28, Type (0, 0), BuildingBlock: EZIPEK_clean_linker_0, # of connection points: 2
#     Edge 29, Type (0, 0), BuildingBlock: EZIPEK_clean_linker_0, # of connection points: 2
#     Edge 30, Type (0, 0), BuildingBlock: EZIPEK_clean_linker_0, # of connection points: 2
#     Edge 31, Type (0, 0), BuildingBlock: EZIPEK_clean_linker_0, # of connection points: 2
#     Edge 32, Type (0, 0), BuildingBlock: EZIPEK_clean_linker_0, # of connection points: 2
#     Edge 33, Type (0, 0), BuildingBlock: EZIPEK_clean_linker_0, # of connection points: 2
#     Edge 34, Type (0, 0), BuildingBlock: EZIPEK_clean_linker_0, # of connection points: 2
#     Edge 35, Type (0, 0), BuildingBlock: EZIPEK_clean_linker_0, # of connection points: 2
#     Edge 36, Type (0, 0), BuildingBlock: EZIPEK_clean_linker_0, # of connection points: 2
#     Edge 37, Type (0, 0), BuildingBlock: EZIPEK_clean_linker_0, # of connection points: 2
#     Edge 38, Type (0, 0), BuildingBlock: EZIPEK_clean_linker_0, # of connection points: 2
#     Edge 39, Type (0, 0), BuildingBlock: EZIPEK_clean_linker_0, # of connection points: 2
#     Edge 40, Type (0, 0), BuildingBlock: EZIPEK_clean_linker_0, # of connection points: 2
#     Edge 41, Type (0, 0), BuildingBlock: EZIPEK_clean_linker_0, # of connection points: 2
#     Edge 42, Type (0, 0), BuildingBlock: EZIPEK_clean_linker_0, # of connection points: 2
#     Edge 43, Type (0, 0), BuildingBlock: EZIPEK_clean_linker_0, # of connection points: 2
#     Edge 44, Type (0, 0), BuildingBlock: EZIPEK_clean_linker_0, # of connection points: 2
#     Edge 45, Type (0, 0), BuildingBlock: EZIPEK_clean_linker_0, # of connection points: 2
#     Edge 46, Type (0, 0), BuildingBlock: EZIPEK_clean_linker_0, # of connection points: 2
#     Edge 47, Type (0, 0), BuildingBlock: EZIPEK_clean_linker_0, # of connection points: 2
# Relax obj value: 0.272
# Max RMSD: 0.247
# Mean RMSD: 0.247
data_MOF--net-uot--node1-UXUYUI_clean_sbu_0--edge1-EZIPEK_clean_linker_0
_symmetry_space_group_name_H-M    P1
_symmetry_Int_Tables_number       1
_symmetry_cell_setting            triclinic
loop_
_symmetry_equiv_pos_as_xyz
'x, y, z'
_cell_length_a     52.122707
_cell_length_b     51.959952
_cell_length_c     48.555908
_cell_angle_alpha  90.010739
_cell_angle_beta   89.998963
_cell_angle_gamma 90.001037
loop_
_atom_site_label
_atom_site_type_symbol
_atom_site_fract_x
_atom_site_fract_y
_atom_site_fract_z
_atom_type_partial_charge
Li0 Li 0.20906 0.47248 0.30595 0.0
Li1 Li 0.21226 0.45508 0.35155 0.0
Li2 Li 0.24015 0.43849 0.31234 0.0
Li3 Li 0.19364 0.43053 0.31403 0.0
C4 C 0.25735 0.49172 0.32397 0.0
N5 N 0.29311 0.52929 0.31156 0.0
C6 C 0.25935 0.51377 0.34038 0.0
C7 C 0.27373 0.48873 0.30141 0.0
C8 C 0.27748 0.53256 0.33371 0.0
C9 C 0.29164 0.50794 0.29543 0.0
C10 C 0.16898 0.48341 0.34253 0.0
C11 C 0.13118 0.50569 0.35847 0.0
N12 N 0.14597 0.52614 0.36579 0.0
C13 C 0.18377 0.50467 0.35018 0.0
C14 C 0.14245 0.48392 0.34667 0.0
C15 C 0.17181 0.52608 0.36191 0.0
C16 C 0.17463 0.50369 0.27864 0.0
N17 N 0.19983 0.50305 0.2859 0.0
C18 C 0.20647 0.54472 0.26618 0.0
C19 C 0.21588 0.52289 0.27963 0.0
C20 C 0.18044 0.54586 0.25912 0.0
C21 C 0.16448 0.525 0.26513 0.0
H22 H 0.16228 0.48764 0.28364 0.0
H23 H 0.23583 0.5221 0.28517 0.0
C24 C 0.23246 0.4745 0.40087 0.0
N25 N 0.21168 0.46261 0.38974 0.0
C26 C 0.23218 0.48225 0.42837 0.0
C27 C 0.18951 0.46438 0.43277 0.0
C28 C 0.19044 0.45737 0.405 0.0
C29 C 0.21047 0.47727 0.44456 0.0
H30 H 0.24913 0.47824 0.38825 0.0
H31 H 0.1741 0.44811 0.39549 0.0
C32 C 0.20813 0.45097 0.25726 0.0
N33 N 0.19416 0.47212 0.20723 0.0
C34 C 0.18321 0.44766 0.24719 0.0
C35 C 0.22599 0.46487 0.24176 0.0
C36 C 0.17652 0.45851 0.22186 0.0
C37 C 0.21852 0.47549 0.21657 0.0
C38 C 0.21246 0.3945 0.34526 0.0
C39 C 0.22328 0.37441 0.33003 0.0
C40 C 0.19286 0.38928 0.36409 0.0
C41 C 0.21417 0.34937 0.33382 0.0
C42 C 0.18425 0.36399 0.36723 0.0
N43 N 0.19499 0.34473 0.35215 0.0
C44 C 0.28405 0.4114 0.32615 0.0
C45 C 0.28056 0.41947 0.27818 0.0
C46 C 0.30547 0.39587 0.32187 0.0
N47 N 0.27184 0.42238 0.30441 0.0
C48 C 0.30232 0.4045 0.273 0.0
C49 C 0.31445 0.39188 0.29499 0.0
H50 H 0.27642 0.41384 0.34671 0.0
H51 H 0.27019 0.42809 0.26126 0.0
C52 C 0.14441 0.4077 0.31544 0.0
N53 N 0.16838 0.40577 0.3046 0.0
C54 C 0.12499 0.39118 0.30654 0.0
C55 C 0.1556 0.37036 0.27638 0.0
C56 C 0.17438 0.38741 0.2857 0.0
C57 C 0.13053 0.37257 0.28652 0.0
H58 H 0.14028 0.42248 0.33045 0.0
H59 H 0.19359 0.38652 0.27732 0.0
O60 O 0.23994 0.47292 0.33041 0.0
O61 O 0.18023 0.46219 0.33089 0.0
O62 O 0.21483 0.44108 0.28238 0.0
O63 O 0.22055 0.41924 0.34125 0.0
H64 H 0.24705 0.51642 0.3581 0.0
H65 H 0.2725 0.47192 0.28847 0.0
H66 H 0.27916 0.54974 0.34618 0.0
H67 H 0.30432 0.50589 0.27794 0.0
H68 H 0.11067 0.50633 0.36179 0.0
H69 H 0.20422 0.50471 0.347 0.0
H70 H 0.13065 0.4677 0.34077 0.0
H71 H 0.18306 0.54265 0.3679 0.0
H72 H 0.21919 0.56066 0.2617 0.0
H73 H 0.14428 0.52543 0.25988 0.0
H74 H 0.24867 0.49211 0.43693 0.0
H75 H 0.17249 0.46027 0.4448 0.0
H76 H 0.16903 0.43721 0.25896 0.0
H77 H 0.2453 0.46775 0.24923 0.0
H78 H 0.15726 0.45624 0.21392 0.0
H79 H 0.23209 0.48647 0.20449 0.0
H80 H 0.23831 0.37816 0.31519 0.0
H81 H 0.18418 0.40465 0.37587 0.0
H82 H 0.22227 0.33365 0.32208 0.0
H83 H 0.16897 0.35968 0.38159 0.0
H84 H 0.31445 0.38637 0.33923 0.0
H85 H 0.30887 0.40175 0.25204 0.0
H86 H 0.10572 0.3933 0.31459 0.0
H87 H 0.16029 0.35624 0.26076 0.0
Li88 Li 0.43095 0.80521 0.68317 0.0
Li89 Li 0.47284 0.78811 0.69609 0.0
Li90 Li 0.45746 0.78506 0.6487 0.0
Li91 Li 0.43903 0.75881 0.68517 0.0
C92 C 0.47813 0.83069 0.65169 0.0
N93 N 0.50543 0.85729 0.61208 0.0
C94 C 0.50494 0.83079 0.65228 0.0
C95 C 0.4652 0.84423 0.63104 0.0
C96 C 0.51839 0.84437 0.63208 0.0
C97 C 0.47935 0.85749 0.61115 0.0
C98 C 0.447 0.78885 0.74188 0.0
C99 C 0.46843 0.77621 0.78376 0.0
N100 N 0.46442 0.80016 0.79423 0.0
C101 C 0.44296 0.81329 0.75309 0.0
C102 C 0.45969 0.77009 0.75736 0.0
C103 C 0.45194 0.81864 0.77959 0.0
C104 C 0.38467 0.82577 0.70423 0.0
N105 N 0.40719 0.83181 0.69162 0.0
C106 C 0.39863 0.87674 0.69642 0.0
C107 C 0.41432 0.85667 0.68741 0.0
C108 C 0.37551 0.87101 0.70977 0.0
C109 C 0.36824 0.84524 0.71324 0.0
H110 H 0.37989 0.80585 0.70806 0.0
H111 H 0.43261 0.86092 0.67798 0.0
C112 C 0.52095 0.77884 0.7233 0.0
N113 N 0.50186 0.796 0.71803 0.0
C114 C 0.54299 0.78677 0.7374 0.0
C115 C 0.52488 0.82956 0.74068 0.0
C116 C 0.50328 0.82084 0.72665 0.0
C117 C 0.54511 0.81251 0.74578 0.0
H118 H 0.5194 0.75929 0.71588 0.0
H119 H 0.48791 0.83408 0.72182 0.0
C120 C 0.396 0.78474 0.65109 0.0
N121 N 0.34539 0.79864 0.64294 0.0
C122 C 0.37626 0.7702 0.66284 0.0
C123 C 0.38999 0.80628 0.63509 0.0
C124 C 0.3508 0.77754 0.65846 0.0
C125 C 0.36429 0.81303 0.63128 0.0
C126 C 0.47926 0.73272 0.66855 0.0
C127 C 0.47847 0.72114 0.64258 0.0
C128 C 0.48368 0.71763 0.6919 0.0
C129 C 0.4819 0.69455 0.64043 0.0
C130 C 0.48696 0.6911 0.6889 0.0
N131 N 0.48601 0.6802 0.66344 0.0
C132 C 0.49324 0.78355 0.6054 0.0
C133 C 0.44991 0.78732 0.59089 0.0
C134 C 0.50168 0.78393 0.57814 0.0
N135 N 0.46778 0.78544 0.61119 0.0
C136 C 0.4575 0.78764 0.56332 0.0
C137 C 0.48365 0.78597 0.55687 0.0
H138 H 0.50695 0.78174 0.622 0.0
H139 H 0.4298 0.78847 0.5961 0.0
C140 C 0.41426 0.7209 0.71785 0.0
N141 N 0.42294 0.72677 0.6922 0.0
C142 C 0.39857 0.69941 0.72183 0.0
C143 C 0.40208 0.68995 0.67316 0.0
C144 C 0.41747 0.71168 0.67008 0.0
C145 C 0.39199 0.68409 0.69913 0.0
H146 H 0.41841 0.7336 0.73491 0.0
H147 H 0.42397 0.71731 0.64982 0.0
O148 O 0.46459 0.81698 0.67085 0.0
O149 O 0.43901 0.78344 0.71568 0.0
O150 O 0.42108 0.77807 0.65539 0.0
O151 O 0.47559 0.75866 0.67112 0.0
H152 H 0.51529 0.82022 0.66792 0.0
H153 H 0.44446 0.84422 0.63018 0.0
H154 H 0.53915 0.84451 0.63221 0.0
H155 H 0.4696 0.86788 0.59493 0.0
H156 H 0.47846 0.76195 0.7959 0.0
H157 H 0.43327 0.82808 0.74138 0.0
H158 H 0.46302 0.7511 0.74895 0.0
H159 H 0.44908 0.83752 0.78848 0.0
H160 H 0.40478 0.8965 0.69373 0.0
H161 H 0.35059 0.84033 0.72379 0.0
H162 H 0.5585 0.77331 0.74091 0.0
H163 H 0.52616 0.84958 0.74677 0.0
H164 H 0.38049 0.75358 0.67541 0.0
H165 H 0.40502 0.81786 0.62601 0.0
H166 H 0.33535 0.7665 0.6675 0.0
H167 H 0.35937 0.82975 0.61911 0.0
H168 H 0.47498 0.7325 0.62429 0.0
H169 H 0.48427 0.72629 0.71215 0.0
H170 H 0.48122 0.6853 0.62048 0.0
H171 H 0.49022 0.67916 0.70681 0.0
H172 H 0.52199 0.7825 0.57364 0.0
H173 H 0.44321 0.78912 0.54721 0.0
H174 H 0.39069 0.69546 0.74203 0.0
H175 H 0.39692 0.67864 0.65524 0.0
Li176 Li 0.76386 0.55872 0.3144 0.0
Li177 Li 0.80945 0.56917 0.31667 0.0
Li178 Li 0.79461 0.52657 0.30288 0.0
Li179 Li 0.79081 0.54093 0.35063 0.0
C180 C 0.79408 0.55343 0.25752 0.0
N181 N 0.80613 0.53813 0.20458 0.0
C182 C 0.81804 0.55941 0.24628 0.0
C183 C 0.77618 0.53983 0.24177 0.0
C184 C 0.82377 0.55149 0.21948 0.0
C185 C 0.78267 0.5322 0.21508 0.0
C186 C 0.78756 0.60242 0.3494 0.0
C187 C 0.81302 0.63506 0.37178 0.0
N188 N 0.79934 0.65357 0.35849 0.0
C189 C 0.77373 0.62177 0.33599 0.0
C190 C 0.80732 0.60909 0.36751 0.0
C191 C 0.77997 0.64751 0.34087 0.0
C192 C 0.71695 0.5793 0.33037 0.0
N193 N 0.73133 0.57361 0.30783 0.0
C194 C 0.70286 0.59716 0.27872 0.0
C195 C 0.72454 0.5817 0.28221 0.0
C196 C 0.68841 0.60423 0.30186 0.0
C197 C 0.69514 0.59459 0.32781 0.0
H198 H 0.7233 0.5732 0.35054 0.0
H199 H 0.73672 0.57739 0.2648 0.0
C200 C 0.85931 0.59043 0.31564 0.0
N201 N 0.83438 0.59476 0.30887 0.0
C202 C 0.87837 0.60736 0.30677 0.0
C203 C 0.84565 0.63321 0.28475 0.0
C204 C 0.82721 0.61572 0.29396 0.0
C205 C 0.87154 0.62873 0.29078 0.0
H206 H 0.86453 0.5733 0.32691 0.0
H207 H 0.80732 0.61826 0.28828 0.0
C208 C 0.7397 0.51739 0.3305 0.0
N209 N 0.68761 0.50901 0.33585 0.0
C210 C 0.7283 0.51759 0.35655 0.0
C211 C 0.72468 0.51271 0.30719 0.0
C212 C 0.70192 0.51335 0.35882 0.0
C213 C 0.69835 0.50861 0.31032 0.0
C214 C 0.83812 0.5231 0.3468 0.0
C215 C 0.84222 0.49663 0.34411 0.0
C216 C 0.84935 0.53643 0.36871 0.0
C217 C 0.8574 0.4839 0.36352 0.0
C218 C 0.86433 0.52299 0.38774 0.0
N219 N 0.86802 0.49723 0.38477 0.0
C220 C 0.82757 0.49798 0.27005 0.0
C221 C 0.78725 0.47778 0.27717 0.0
C222 C 0.83667 0.47649 0.25599 0.0
N223 N 0.8034 0.49809 0.28055 0.0
C224 C 0.79561 0.45579 0.26323 0.0
C225 C 0.82075 0.45498 0.253 0.0
H226 H 0.84008 0.51426 0.27355 0.0
H227 H 0.76826 0.47831 0.28611 0.0
C228 C 0.78716 0.54756 0.4083 0.0
N229 N 0.79129 0.53008 0.38794 0.0
C230 C 0.78687 0.53972 0.4358 0.0
C231 C 0.79535 0.49612 0.42081 0.0
C232 C 0.79494 0.50471 0.3936 0.0
C233 C 0.79114 0.51375 0.44221 0.0
H234 H 0.78381 0.56751 0.40315 0.0
H235 H 0.79746 0.49115 0.37693 0.0
O236 O 0.78828 0.56051 0.28392 0.0
O237 O 0.78204 0.57708 0.34457 0.0
O238 O 0.76542 0.52193 0.3278 0.0
O239 O 0.823 0.53586 0.32825 0.0
H240 H 0.8322 0.56977 0.2582 0.0
H241 H 0.75759 0.53497 0.2502 0.0
H242 H 0.84228 0.55587 0.21057 0.0
H243 H 0.76908 0.52151 0.20273 0.0
H244 H 0.82835 0.64049 0.38563 0.0
H245 H 0.75855 0.61701 0.32171 0.0
H246 H 0.81825 0.59436 0.378 0.0
H247 H 0.76948 0.66268 0.33057 0.0
H248 H 0.69824 0.6047 0.25852 0.0
H249 H 0.68449 0.6001 0.34604 0.0
H250 H 0.8983 0.60333 0.3114 0.0
H251 H 0.83994 0.6494 0.2721 0.0
H252 H 0.73964 0.52121 0.3748 0.0
H253 H 0.73321 0.51254 0.28688 0.0
H254 H 0.6928 0.51357 0.37883 0.0
H255 H 0.68645 0.50514 0.29245 0.0
H256 H 0.83354 0.48592 0.32744 0.0
H257 H 0.84626 0.55688 0.37119 0.0
H258 H 0.86064 0.4634 0.36176 0.0
H259 H 0.87297 0.53304 0.40492 0.0
H260 H 0.85624 0.47623 0.24846 0.0
H261 H 0.78303 0.4393 0.26132 0.0
H262 H 0.78338 0.55371 0.4519 0.0
H263 H 0.79854 0.47593 0.42514 0.0
Li264 Li 0.56776 0.19008 0.68227 0.0
Li265 Li 0.52606 0.20768 0.69495 0.0
Li266 Li 0.54153 0.20977 0.64757 0.0
Li267 Li 0.56023 0.23645 0.68346 0.0
C268 C 0.51956 0.1652 0.65125 0.0
N269 N 0.49046 0.14016 0.61194 0.0
C270 C 0.49278 0.16676 0.65199 0.0
C271 C 0.53152 0.15086 0.63054 0.0
C272 C 0.47842 0.15393 0.63195 0.0
C273 C 0.51647 0.13838 0.61082 0.0
C274 C 0.55216 0.20736 0.74075 0.0
C275 C 0.53207 0.22099 0.78304 0.0
N276 N 0.53537 0.19696 0.79355 0.0
C277 C 0.55547 0.18282 0.752 0.0
C278 C 0.54049 0.22666 0.75641 0.0
C279 C 0.54683 0.17794 0.77873 0.0
C280 C 0.61274 0.17044 0.70624 0.0
N281 N 0.59168 0.16387 0.69128 0.0
C282 C 0.60282 0.11936 0.69364 0.0
C283 C 0.58654 0.13897 0.68469 0.0
C284 C 0.62434 0.12561 0.70957 0.0
C285 C 0.62956 0.15146 0.71556 0.0
H286 H 0.61602 0.19038 0.71159 0.0
H287 H 0.56938 0.13427 0.67327 0.0
C288 C 0.4781 0.21816 0.72189 0.0
N289 N 0.497 0.20066 0.71714 0.0
C290 C 0.45591 0.21083 0.73607 0.0
C291 C 0.47346 0.1679 0.7405 0.0
C292 C 0.49522 0.17603 0.72635 0.0
C293 C 0.45343 0.18531 0.74506 0.0
H294 H 0.47988 0.2375 0.71394 0.0
H295 H 0.51041 0.16248 0.72186 0.0
C296 C 0.60304 0.20939 0.6505 0.0
N297 N 0.65355 0.19427 0.64428 0.0
C298 C 0.6228 0.22397 0.66217 0.0
C299 C 0.60901 0.18717 0.63556 0.0
C300 C 0.6482 0.21602 0.65877 0.0
C301 C 0.63465 0.17981 0.63272 0.0
C302 C 0.51983 0.2627 0.66731 0.0
C303 C 0.51995 0.27455 0.64146 0.0
C304 C 0.51585 0.27753 0.69094 0.0
C305 C 0.51625 0.30114 0.63973 0.0
C306 C 0.5123 0.30406 0.68835 0.0
N307 N 0.51257 0.31522 0.66301 0.0
C308 C 0.50609 0.21356 0.60417 0.0
C309 C 0.54855 0.20365 0.59003 0.0
C310 C 0.49762 0.21309 0.57693 0.0
N311 N 0.53116 0.20888 0.61013 0.0
C312 C 0.54087 0.2028 0.56252 0.0
C313 C 0.51516 0.20767 0.55584 0.0
H314 H 0.49275 0.21774 0.62063 0.0
H315 H 0.56836 0.20019 0.59535 0.0
C316 C 0.58661 0.27355 0.71537 0.0
N317 N 0.57667 0.26833 0.69009 0.0
C318 C 0.60266 0.29481 0.71903 0.0
C319 C 0.59685 0.30545 0.67089 0.0
C320 C 0.58124 0.28384 0.66808 0.0
C321 C 0.60822 0.31063 0.69643 0.0
H322 H 0.58319 0.26048 0.7323 0.0
H323 H 0.57385 0.27866 0.64804 0.0
O324 O 0.53401 0.17821 0.67022 0.0
O325 O 0.55989 0.21236 0.71437 0.0
O326 O 0.578 0.2166 0.65399 0.0
O327 O 0.52367 0.23674 0.66946 0.0
H328 H 0.48317 0.17803 0.6676 0.0
H329 H 0.55222 0.14975 0.62941 0.0
H330 H 0.45769 0.15506 0.63221 0.0
H331 H 0.52548 0.12739 0.59456 0.0
H332 H 0.52286 0.23569 0.79534 0.0
H333 H 0.56431 0.1676 0.74014 0.0
H334 H 0.53778 0.24574 0.74801 0.0
H335 H 0.54914 0.15901 0.78765 0.0
H336 H 0.59825 0.09949 0.68899 0.0
H337 H 0.64595 0.15674 0.72807 0.0
H338 H 0.44053 0.22455 0.73912 0.0
H339 H 0.47189 0.14803 0.74704 0.0
H340 H 0.61862 0.24113 0.67391 0.0
H341 H 0.59397 0.17544 0.62673 0.0
H342 H 0.66366 0.2271 0.66775 0.0
H343 H 0.63952 0.16253 0.62143 0.0
H344 H 0.52314 0.26342 0.62296 0.0
H345 H 0.51581 0.26868 0.7111 0.0
H346 H 0.51642 0.31058 0.61988 0.0
H347 H 0.50936 0.31579 0.70649 0.0
H348 H 0.47766 0.21697 0.5723 0.0
H349 H 0.55481 0.19864 0.54658 0.0
H350 H 0.61152 0.29823 0.73887 0.0
H351 H 0.60122 0.31715 0.65303 0.0
Li352 Li 0.19286 0.57097 0.68239 0.0
Li353 Li 0.23833 0.56016 0.68483 0.0
Li354 Li 0.2113 0.54227 0.64866 0.0
Li355 Li 0.20722 0.52829 0.69651 0.0
C356 C 0.21473 0.60374 0.64941 0.0
N357 N 0.20264 0.65477 0.64009 0.0
C358 C 0.22824 0.62322 0.66299 0.0
C359 C 0.19513 0.61021 0.63104 0.0
C360 C 0.22185 0.6489 0.65798 0.0
C361 C 0.18927 0.63612 0.62665 0.0
C362 C 0.20807 0.5553 0.7417 0.0
C363 C 0.21918 0.5336 0.78396 0.0
N364 N 0.19599 0.54019 0.7947 0.0
C365 C 0.18438 0.56194 0.75318 0.0
C366 C 0.22568 0.54112 0.75723 0.0
C367 C 0.17863 0.55411 0.78001 0.0
C368 C 0.14322 0.59293 0.6833 0.0
N369 N 0.16819 0.59684 0.6902 0.0
C370 C 0.15733 0.63498 0.71511 0.0
C371 C 0.17557 0.61748 0.7055 0.0
C372 C 0.13138 0.63087 0.70903 0.0
C373 C 0.12434 0.6099 0.69253 0.0
H374 H 0.13782 0.57604 0.67171 0.0
H375 H 0.19549 0.61968 0.71129 0.0
C376 C 0.28472 0.58214 0.669 0.0
N377 N 0.27097 0.57496 0.69151 0.0
C378 C 0.30647 0.59748 0.67198 0.0
C379 C 0.30023 0.59671 0.72137 0.0
C380 C 0.27848 0.58143 0.71743 0.0
C381 C 0.31393 0.60542 0.69834 0.0
H382 H 0.2779 0.57719 0.64864 0.0
H383 H 0.26684 0.57594 0.73487 0.0
C384 C 0.16381 0.52491 0.65258 0.0
N385 N 0.1338 0.49889 0.61482 0.0
C386 C 0.15959 0.49848 0.65548 0.0
C387 C 0.15264 0.53813 0.63056 0.0
C388 C 0.14435 0.48567 0.63618 0.0
C389 C 0.1376 0.52461 0.61164 0.0
C390 C 0.26229 0.51899 0.66904 0.0
C391 C 0.27386 0.52035 0.64312 0.0
C392 C 0.27722 0.51361 0.69224 0.0
C393 C 0.3003 0.51651 0.64087 0.0
C394 C 0.30361 0.50993 0.68915 0.0
N395 N 0.31451 0.51145 0.66374 0.0
C396 C 0.21422 0.54779 0.59058 0.0
C397 C 0.20714 0.50525 0.60661 0.0
C398 C 0.2141 0.53927 0.56329 0.0
N399 N 0.21062 0.53078 0.61149 0.0
C400 C 0.20633 0.49598 0.57966 0.0
C401 C 0.20997 0.5131 0.55768 0.0
H402 H 0.21743 0.5679 0.5951 0.0
H403 H 0.20499 0.49208 0.62369 0.0
C404 C 0.17359 0.50079 0.72949 0.0
N405 N 0.19776 0.50009 0.71901 0.0
C406 C 0.16386 0.47974 0.74382 0.0
C407 C 0.20427 0.45774 0.73676 0.0
C408 C 0.21329 0.47933 0.72257 0.0
C409 C 0.17913 0.4578 0.74708 0.0
H410 H 0.16156 0.5174 0.72582 0.0
H411 H 0.23228 0.47922 0.71364 0.0
O412 O 0.22036 0.57845 0.6544 0.0
O413 O 0.21386 0.56228 0.71526 0.0
O414 O 0.17903 0.53774 0.67099 0.0
O415 O 0.23653 0.52324 0.67176 0.0
H416 H 0.24327 0.61861 0.67751 0.0
H417 H 0.18442 0.59538 0.62045 0.0
H418 H 0.23208 0.66417 0.66842 0.0
H419 H 0.17406 0.64141 0.61258 0.0
H420 H 0.23254 0.52246 0.79614 0.0
H421 H 0.17042 0.57272 0.74144 0.0
H422 H 0.24402 0.53567 0.7486 0.0
H423 H 0.16032 0.559 0.7891 0.0
H424 H 0.1632 0.65084 0.72815 0.0
H425 H 0.10436 0.60615 0.68786 0.0
H426 H 0.31658 0.60422 0.65386 0.0
H427 H 0.30545 0.60289 0.74192 0.0
H428 H 0.16823 0.48785 0.67223 0.0
H429 H 0.15583 0.55854 0.62791 0.0
H430 H 0.14102 0.4652 0.6381 0.0
H431 H 0.12901 0.53456 0.59438 0.0
H432 H 0.2626 0.52457 0.62496 0.0
H433 H 0.26855 0.51256 0.71246 0.0
H434 H 0.30955 0.51762 0.62096 0.0
H435 H 0.31544 0.50592 0.70694 0.0
H436 H 0.21714 0.55289 0.54673 0.0
H437 H 0.20325 0.47566 0.57596 0.0
H438 H 0.14431 0.48016 0.7514 0.0
H439 H 0.21636 0.4409 0.73886 0.0
Li440 Li 0.5449 0.78476 0.35233 0.0
Li441 Li 0.56371 0.75834 0.31404 0.0
Li442 Li 0.57176 0.80316 0.31668 0.0
Li443 Li 0.5299 0.78949 0.30359 0.0
C444 C 0.6047 0.78592 0.35139 0.0
N445 N 0.65208 0.80678 0.36357 0.0
C446 C 0.62659 0.7773 0.33755 0.0
C447 C 0.60689 0.805 0.37153 0.0
C448 C 0.65038 0.78813 0.34399 0.0
C449 C 0.63102 0.81535 0.37736 0.0
C450 C 0.51465 0.73736 0.33473 0.0
C451 C 0.48325 0.70469 0.32428 0.0
N452 N 0.48808 0.69331 0.34897 0.0
C453 C 0.51907 0.72552 0.36013 0.0
C454 C 0.49638 0.72705 0.31677 0.0
C455 C 0.50554 0.7032 0.3669 0.0
C456 C 0.51076 0.79531 0.39542 0.0
N457 N 0.53425 0.78539 0.38946 0.0
C458 C 0.5419 0.776 0.43689 0.0
C459 C 0.54986 0.77585 0.40943 0.0
C460 C 0.51775 0.78609 0.44356 0.0
C461 C 0.50206 0.79588 0.4226 0.0
H462 H 0.49881 0.80268 0.379 0.0
H463 H 0.56839 0.76799 0.40397 0.0
C464 C 0.59709 0.7258 0.28508 0.0
N465 N 0.57972 0.72629 0.30599 0.0
C466 C 0.61285 0.7044 0.28131 0.0
C467 C 0.59227 0.68413 0.32033 0.0
C468 C 0.57683 0.70591 0.3233 0.0
C469 C 0.6109 0.68363 0.29955 0.0
H470 H 0.59981 0.7426 0.27231 0.0
H471 H 0.56368 0.70711 0.34037 0.0
C472 C 0.53249 0.84079 0.32304 0.0
N473 N 0.51988 0.89019 0.30701 0.0
C474 C 0.53793 0.84913 0.29631 0.0
C475 C 0.5207 0.85755 0.34164 0.0
C476 C 0.53136 0.87417 0.28859 0.0
C477 C 0.51447 0.88247 0.33314 0.0
C478 C 0.55751 0.77199 0.25864 0.0
C479 C 0.56794 0.78194 0.23436 0.0
C480 C 0.54189 0.75017 0.25753 0.0
C481 C 0.56248 0.7699 0.20931 0.0
C482 C 0.5369 0.73865 0.2321 0.0
N483 N 0.5472 0.74869 0.2087 0.0
C484 C 0.61344 0.82352 0.28807 0.0
C485 C 0.59701 0.85165 0.32233 0.0
C486 C 0.63027 0.84249 0.2788 0.0
N487 N 0.59694 0.8286 0.30905 0.0
C488 C 0.61327 0.87132 0.31347 0.0
C489 C 0.62968 0.86687 0.29111 0.0
H490 H 0.6129 0.80497 0.27796 0.0
H491 H 0.58375 0.85507 0.33906 0.0
C492 C 0.47721 0.79628 0.29569 0.0
N493 N 0.50033 0.79803 0.28287 0.0
C494 C 0.45532 0.80651 0.28327 0.0
C495 C 0.48133 0.81919 0.24427 0.0
C496 C 0.5027 0.80873 0.25742 0.0
C497 C 0.45752 0.81864 0.2576 0.0
H498 H 0.47606 0.78806 0.31612 0.0
H499 H 0.52136 0.81048 0.24797 0.0
O500 O 0.58116 0.77618 0.34476 0.0
O501 O 0.52734 0.75952 0.32792 0.0
O502 O 0.53903 0.8165 0.33129 0.0
O503 O 0.56259 0.7838 0.28323 0.0
H504 H 0.62517 0.76261 0.32183 0.0
H505 H 0.59006 0.812 0.38224 0.0
H506 H 0.66747 0.78176 0.33335 0.0
H507 H 0.633 0.83026 0.39276 0.0
H508 H 0.46915 0.69643 0.31052 0.0
H509 H 0.53304 0.7333 0.37434 0.0
H510 H 0.49228 0.73628 0.29728 0.0
H511 H 0.50892 0.69373 0.3864 0.0
H512 H 0.55434 0.76828 0.45273 0.0
H513 H 0.4833 0.80373 0.42726 0.0
H514 H 0.62742 0.70467 0.26541 0.0
H515 H 0.59072 0.66851 0.335 0.0
H516 H 0.54737 0.8365 0.28179 0.0
H517 H 0.51652 0.8514 0.36246 0.0
H518 H 0.5355 0.88091 0.26798 0.0
H519 H 0.50539 0.89568 0.34734 0.0
H520 H 0.58003 0.79888 0.23488 0.0
H521 H 0.53391 0.74208 0.2761 0.0
H522 H 0.57037 0.77743 0.19034 0.0
H523 H 0.52488 0.72172 0.23096 0.0
H524 H 0.64273 0.83863 0.26143 0.0
H525 H 0.61246 0.89002 0.32328 0.0
H526 H 0.43715 0.80609 0.29409 0.0
H527 H 0.48356 0.82875 0.22459 0.0
Li528 Li 0.78959 0.4738 0.69551 0.0
Li529 Li 0.78708 0.45744 0.64886 0.0
Li530 Li 0.76016 0.43815 0.68694 0.0
Li531 Li 0.80664 0.4313 0.68461 0.0
C532 C 0.73989 0.49053 0.67805 0.0
N533 N 0.70128 0.52455 0.69215 0.0
C534 C 0.73536 0.51239 0.66195 0.0
C535 C 0.7245 0.48581 0.70106 0.0
C536 C 0.71583 0.52941 0.66949 0.0
C537 C 0.70516 0.50328 0.70792 0.0
C538 C 0.82913 0.48768 0.66084 0.0
C539 C 0.86584 0.51499 0.65287 0.0
N540 N 0.85001 0.53381 0.64337 0.0
C541 C 0.81325 0.50735 0.65107 0.0
C542 C 0.85566 0.49156 0.66181 0.0
C543 C 0.82416 0.53049 0.64229 0.0
C544 C 0.81756 0.49995 0.73457 0.0
N545 N 0.79766 0.50337 0.71686 0.0
C546 C 0.79709 0.54853 0.72608 0.0
C547 C 0.78708 0.52698 0.71266 0.0
C548 C 0.81826 0.54557 0.74358 0.0
C549 C 0.82822 0.52094 0.74831 0.0
H550 H 0.82585 0.48101 0.73707 0.0
H551 H 0.77177 0.5294 0.69799 0.0
C552 C 0.76683 0.47726 0.59952 0.0
N553 N 0.78775 0.46585 0.61092 0.0
C554 C 0.76725 0.48494 0.572 0.0
C555 C 0.81035 0.46798 0.56819 0.0
C556 C 0.80927 0.46107 0.59596 0.0
C557 C 0.78922 0.48031 0.55608 0.0
H558 H 0.74992 0.48056 0.61189 0.0
H559 H 0.82567 0.45213 0.60569 0.0
C560 C 0.78004 0.4405 0.74386 0.0
N561 N 0.76825 0.43833 0.79932 0.0
C562 C 0.78794 0.4195 0.75973 0.0
C563 C 0.7664 0.46054 0.7563 0.0
C564 C 0.78171 0.41871 0.7877 0.0
C565 C 0.76057 0.45906 0.78433 0.0
C566 C 0.78704 0.39649 0.65017 0.0
C567 C 0.77293 0.37544 0.65977 0.0
C568 C 0.80849 0.39243 0.63347 0.0
C569 C 0.7807 0.35058 0.65266 0.0
C570 C 0.81568 0.36727 0.62689 0.0
N571 N 0.80175 0.34704 0.63654 0.0
C572 C 0.71289 0.41829 0.67206 0.0
C573 C 0.72382 0.40932 0.71853 0.0
C574 C 0.69146 0.40231 0.6738 0.0
N575 N 0.7288 0.42101 0.69404 0.0
C576 C 0.70247 0.3933 0.72125 0.0
C577 C 0.68652 0.38922 0.69845 0.0
H578 H 0.71762 0.42758 0.65277 0.0
H579 H 0.73694 0.41142 0.73556 0.0
C580 C 0.85761 0.41401 0.69025 0.0
N581 N 0.83266 0.40695 0.69324 0.0
C582 C 0.8772 0.39757 0.69887 0.0
C583 C 0.84507 0.36645 0.71243 0.0
C584 C 0.82608 0.38363 0.70387 0.0
C585 C 0.8709 0.37369 0.71043 0.0
H586 H 0.86224 0.43268 0.68187 0.0
H587 H 0.80608 0.37869 0.70641 0.0
O588 O 0.75877 0.47351 0.67073 0.0
O589 O 0.81884 0.46504 0.67021 0.0
O590 O 0.78612 0.44153 0.71645 0.0
O591 O 0.77992 0.42095 0.65717 0.0
H592 H 0.74696 0.51637 0.64398 0.0
H593 H 0.7273 0.4688 0.71346 0.0
H594 H 0.71226 0.54648 0.65734 0.0
H595 H 0.69318 0.49988 0.72575 0.0
H596 H 0.88633 0.51824 0.65355 0.0
H597 H 0.79271 0.50491 0.65041 0.0
H598 H 0.86828 0.47672 0.66955 0.0
H599 H 0.81205 0.54584 0.63472 0.0
H600 H 0.78922 0.56742 0.7219 0.0
H601 H 0.84469 0.51818 0.76158 0.0
H602 H 0.75063 0.49437 0.56317 0.0
H603 H 0.82755 0.46414 0.55638 0.0
H604 H 0.79868 0.40391 0.75054 0.0
H605 H 0.7606 0.47722 0.7446 0.0
H606 H 0.7876 0.40251 0.80018 0.0
H607 H 0.75001 0.47443 0.79419 0.0
H608 H 0.75629 0.37824 0.67274 0.0
H609 H 0.81966 0.40853 0.62599 0.0
H610 H 0.77003 0.3341 0.66002 0.0
H611 H 0.83236 0.36381 0.61416 0.0
H612 H 0.67953 0.39927 0.65583 0.0
H613 H 0.69917 0.38316 0.74042 0.0
H614 H 0.89703 0.40364 0.69718 0.0
H615 H 0.83971 0.34816 0.72145 0.0
Li616 Li 0.4347 0.23551 0.31486 0.0
Li617 Li 0.45322 0.21096 0.35096 0.0
Li618 Li 0.46948 0.20756 0.30168 0.0
Li619 Li 0.4262 0.19011 0.31626 0.0
C620 C 0.4769 0.26247 0.32616 0.0
N621 N 0.4886 0.31421 0.32285 0.0
C622 C 0.46604 0.27985 0.34478 0.0
C623 C 0.49387 0.27133 0.306 0.0
C624 C 0.47212 0.30596 0.3427 0.0
C625 C 0.49953 0.29759 0.30466 0.0
C626 C 0.4051 0.21339 0.36896 0.0
C627 C 0.39087 0.18632 0.40633 0.0
N628 N 0.38356 0.2076 0.42063 0.0
C629 C 0.39733 0.23499 0.38399 0.0
C630 C 0.40174 0.18885 0.38018 0.0
C631 C 0.38652 0.23166 0.41008 0.0
C632 C 0.39365 0.26933 0.31685 0.0
N633 N 0.41769 0.26727 0.30627 0.0
C634 C 0.41358 0.30831 0.28429 0.0
C635 C 0.42774 0.28605 0.28992 0.0
C636 C 0.38904 0.31106 0.29575 0.0
C637 C 0.37902 0.29125 0.31204 0.0
H638 H 0.38561 0.25374 0.3287 0.0
H639 H 0.44653 0.28365 0.28093 0.0
C640 C 0.47945 0.19012 0.3967 0.0
N641 N 0.46444 0.21004 0.38828 0.0
C642 C 0.48811 0.18893 0.42389 0.0
C643 C 0.4659 0.22887 0.43315 0.0
C644 C 0.45796 0.22945 0.40573 0.0
C645 C 0.48115 0.20842 0.44239 0.0
H646 H 0.48491 0.17529 0.38226 0.0
H647 H 0.4467 0.24545 0.3984 0.0
C648 C 0.42411 0.22443 0.26339 0.0
N649 N 0.39978 0.25419 0.22419 0.0
C650 C 0.39734 0.22489 0.26201 0.0
C651 C 0.43854 0.2389 0.24473 0.0
C652 C 0.38539 0.24014 0.24209 0.0
C653 C 0.42586 0.25385 0.22506 0.0
C654 C 0.4629 0.15345 0.32907 0.0
C655 C 0.47441 0.14066 0.30694 0.0
C656 C 0.45353 0.13921 0.35132 0.0
C657 C 0.47597 0.11383 0.30725 0.0
C658 C 0.4554 0.11239 0.35084 0.0
N659 N 0.46648 0.10036 0.32899 0.0
C660 C 0.5217 0.19977 0.29361 0.0
C661 C 0.49633 0.19224 0.25379 0.0
C662 C 0.54333 0.18981 0.28048 0.0
N663 N 0.49877 0.20027 0.28032 0.0
C664 C 0.51749 0.1821 0.23987 0.0
C665 C 0.54107 0.18026 0.2536 0.0
H666 H 0.52283 0.2059 0.31487 0.0
H667 H 0.47767 0.19233 0.24403 0.0
C668 C 0.37709 0.16763 0.31841 0.0
N669 N 0.40128 0.16429 0.30852 0.0
C670 C 0.35792 0.14976 0.31238 0.0
C671 C 0.38864 0.12572 0.28532 0.0
C672 C 0.40725 0.14407 0.29191 0.0
C673 C 0.36372 0.12858 0.29567 0.0
H674 H 0.37255 0.18439 0.33064 0.0
H675 H 0.42629 0.14243 0.28334 0.0
O676 O 0.47122 0.23684 0.32781 0.0
O677 O 0.41606 0.21626 0.3435 0.0
O678 O 0.43613 0.21022 0.28323 0.0
O679 O 0.46135 0.17976 0.32919 0.0
H680 H 0.45271 0.27332 0.36034 0.0
H681 H 0.50247 0.25808 0.29148 0.0
H682 H 0.46367 0.31968 0.3568 0.0
H683 H 0.51257 0.30476 0.28912 0.0
H684 H 0.38822 0.16742 0.41524 0.0
H685 H 0.40004 0.25418 0.37585 0.0
H686 H 0.40737 0.17194 0.36876 0.0
H687 H 0.38059 0.24822 0.42199 0.0
H688 H 0.42158 0.32315 0.27119 0.0
H689 H 0.35992 0.29265 0.32072 0.0
H690 H 0.50012 0.17305 0.43043 0.0
H691 H 0.46046 0.24432 0.44695 0.0
H692 H 0.38593 0.21384 0.27642 0.0
H693 H 0.45929 0.23889 0.2457 0.0
H694 H 0.36468 0.24088 0.24091 0.0
H695 H 0.43676 0.2653 0.21059 0.0
H696 H 0.48187 0.15127 0.28958 0.0
H697 H 0.44511 0.14873 0.36893 0.0
H698 H 0.48472 0.10371 0.29018 0.0
H699 H 0.44815 0.10115 0.3679 0.0
H700 H 0.56129 0.18836 0.2916 0.0
H701 H 0.51521 0.17455 0.21922 0.0
H702 H 0.33871 0.15254 0.32037 0.0
H703 H 0.39352 0.10966 0.2721 0.0
Li704 Li 0.7082 0.96821 0.8047 0.0
Li705 Li 0.7129 0.95337 0.85232 0.0
Li706 Li 0.73902 0.93575 0.81519 0.0
Li707 Li 0.69353 0.92553 0.81836 0.0
C708 C 0.76391 0.97563 0.83143 0.0
N709 N 0.81654 0.98026 0.83585 0.0
C710 C 0.77604 0.97088 0.85659 0.0
C711 C 0.77849 0.98286 0.80855 0.0
C712 C 0.80268 0.97332 0.8584 0.0
C713 C 0.80509 0.98505 0.8112 0.0
C714 C 0.66616 0.973 0.84894 0.0
C715 C 0.63841 0.97565 0.88861 0.0
N716 N 0.63806 0.00172 0.88619 0.0
C717 C 0.66547 -0.00016 0.84682 0.0
C718 C 0.65243 0.96079 0.86994 0.0
C719 C 0.65115 0.014 0.86584 0.0
C720 C 0.67419 0.99616 0.77275 0.0
N721 N 0.6985 0.99684 0.78286 0.0
C722 C 0.70446 0.03956 0.76586 0.0
C723 C 0.71382 0.01779 0.77949 0.0
C724 C 0.6792 0.03949 0.75592 0.0
C725 C 0.66411 0.0174 0.75904 0.0
H726 H 0.66234 0.97938 0.77624 0.0
H727 H 0.73291 0.01792 0.78819 0.0
C728 C 0.71417 0.94681 0.91045 0.0
N729 N 0.71287 0.96433 0.88969 0.0
C730 C 0.71417 0.95499 0.93784 0.0
C731 C 0.71186 0.99905 0.92194 0.0
C732 C 0.71212 0.99004 0.89487 0.0
C733 C 0.71287 0.98136 0.94366 0.0
H734 H 0.71544 0.92654 0.90577 0.0
H735 H 0.71177 0.00354 0.87793 0.0
C736 C 0.70744 0.94163 0.75903 0.0
N737 N 0.69377 0.95692 0.70654 0.0
C738 C 0.68405 0.93374 0.74772 0.0
C739 C 0.72393 0.95717 0.74358 0.0
C740 C 0.6775 0.94168 0.72115 0.0
C741 C 0.71663 0.96476 0.71711 0.0
C742 C 0.71372 0.89281 0.8526 0.0
C743 C 0.72665 0.87142 0.842 0.0
C744 C 0.69261 0.88918 0.86993 0.0
C745 C 0.71821 0.84673 0.84893 0.0
C746 C 0.68472 0.86419 0.87631 0.0
N747 N 0.69759 0.84366 0.86577 0.0
C748 C 0.78373 0.90942 0.82864 0.0
C749 C 0.78157 0.92091 0.78141 0.0
C750 C 0.80605 0.89533 0.82407 0.0
N751 N 0.77165 0.92124 0.80732 0.0
C752 C 0.8042 0.90739 0.77598 0.0
C753 C 0.8161 0.8937 0.79736 0.0
H754 H 0.77538 0.91009 0.84903 0.0
H755 H 0.77153 0.93043 0.76484 0.0
C756 C 0.64324 0.90552 0.81598 0.0
N757 N 0.66831 0.90013 0.81087 0.0
C758 C 0.62412 0.88854 0.80736 0.0
C759 C 0.65704 0.86039 0.78925 0.0
C760 C 0.67552 0.87804 0.79797 0.0
C761 C 0.63102 0.86598 0.7934 0.0
H762 H 0.63805 0.92348 0.8257 0.0
H763 H 0.69556 0.87463 0.79351 0.0
O764 O 0.73797 0.97249 0.82902 0.0
O765 O 0.68039 0.95877 0.83078 0.0
O766 O 0.71403 0.93442 0.7852 0.0
O767 O 0.72142 0.91717 0.84573 0.0
H768 H 0.76505 0.96507 0.87444 0.0
H769 H 0.76941 0.98636 0.78887 0.0
H770 H 0.81236 0.96957 0.87769 0.0
H771 H 0.81665 0.99045 0.79362 0.0
H772 H 0.62782 0.96644 0.90505 0.0
H773 H 0.67615 0.00972 0.83096 0.0
H774 H 0.65271 0.94007 0.87191 0.0
H775 H 0.65055 0.03478 0.8645 0.0
H776 H 0.71639 0.05654 0.76394 0.0
H777 H 0.64446 0.01697 0.75178 0.0
H778 H 0.71519 0.94096 0.9543 0.0
H779 H 0.71108 0.01955 0.92593 0.0
H780 H 0.67098 0.92181 0.75936 0.0
H781 H 0.74193 0.96374 0.75213 0.0
H782 H 0.65943 0.93578 0.71218 0.0
H783 H 0.7291 0.97698 0.70502 0.0
H784 H 0.74281 0.87381 0.82828 0.0
H785 H 0.68224 0.90549 0.87813 0.0
H786 H 0.72799 0.83001 0.8408 0.0
H787 H 0.66834 0.86113 0.88958 0.0
H788 H 0.8149 0.88505 0.84099 0.0
H789 H 0.81165 0.90655 0.75517 0.0
H790 H 0.60413 0.8934 0.81059 0.0
H791 H 0.66285 0.84321 0.77828 0.0
Li792 Li 0.93126 0.30173 0.18471 0.0
Li793 Li 0.97364 0.28426 0.1964 0.0
Li794 Li 0.95649 0.27932 0.14925 0.0
Li795 Li 0.93834 0.25547 0.18689 0.0
C796 C 0.97353 0.335 0.16314 0.0
N797 N 0.99193 0.38351 0.15053 0.0
C798 C 0.98564 0.34985 0.18334 0.0
C799 C 0.97102 0.34478 0.13644 0.0
C800 C 0.99473 0.37434 0.17659 0.0
C801 C 0.98037 0.36936 0.1305 0.0
C802 C 0.94418 0.26814 0.24175 0.0
C803 C 0.96634 0.23673 0.26951 0.0
N804 N 0.95035 0.2421 0.29089 0.0
C805 C 0.92795 0.27332 0.26396 0.0
C806 C 0.96353 0.24969 0.24448 0.0
C807 C 0.93139 0.25996 0.28865 0.0
C808 C 0.88258 0.32616 0.18932 0.0
N809 N 0.90829 0.32897 0.19323 0.0
C810 C 0.90209 0.37052 0.21313 0.0
C811 C 0.91821 0.35051 0.20501 0.0
C812 C 0.87559 0.36813 0.20923 0.0
C813 C 0.86572 0.34577 0.19708 0.0
H814 H 0.87511 0.30851 0.18066 0.0
H815 H 0.93856 0.35186 0.20877 0.0
C816 C 0.02669 0.29027 0.2037 0.0
N817 N 0.00363 0.29253 0.21655 0.0
C818 C 0.04874 0.30054 0.21581 0.0
C819 C 0.02297 0.31429 0.25458 0.0
C820 C 0.00143 0.30381 0.24172 0.0
C821 C 0.04675 0.3132 0.24122 0.0
H822 H 0.02769 0.28164 0.18344 0.0
H823 H 0.98275 0.306 0.25109 0.0
C824 C 0.90374 0.28435 0.13792 0.0
N825 N 0.87248 0.30298 0.09652 0.0
C826 C 0.88477 0.26865 0.12645 0.0
C827 C 0.90674 0.30955 0.12841 0.0
C828 C 0.86918 0.27841 0.10551 0.0
C829 C 0.89076 0.31861 0.10746 0.0
C830 C 0.97695 0.23091 0.15736 0.0
C831 C 0.95689 0.22223 0.14064 0.0
C832 C -0.00015 0.21699 0.15849 0.0
C833 C 0.96011 0.19971 0.12531 0.0
C834 C 0.00233 0.19455 0.14283 0.0
N835 N 0.98257 0.18645 0.12671 0.0
C836 C 0.9909 0.28721 0.10602 0.0
C837 C 0.95058 0.27111 0.09128 0.0
C838 C -0.00032 0.28806 0.07888 0.0
N839 N 0.96664 0.27912 0.11163 0.0
C840 C 0.95846 0.27192 0.06385 0.0
C841 C 0.98322 0.28057 0.0575 0.0
H842 H 0.00333 0.29316 0.12269 0.0
H843 H 0.93172 0.26397 0.09623 0.0
C844 C 0.89593 0.2244 0.19287 0.0
N845 N 0.92179 0.22426 0.19621 0.0
C846 C 0.88183 0.20197 0.19684 0.0
C847 C 0.92112 0.17977 0.20874 0.0
C848 C 0.93457 0.2027 0.20429 0.0
C849 C 0.89451 0.1793 0.20445 0.0
H850 H 0.88634 0.24189 0.18657 0.0
H851 H 0.95519 0.20317 0.20672 0.0
O852 O 0.96506 0.31068 0.16919 0.0
O853 O 0.94087 0.28095 0.21741 0.0
O854 O 0.91927 0.2749 0.15825 0.0
O855 O 0.97432 0.25283 0.17274 0.0
H856 H 0.98782 0.34267 0.20408 0.0
H857 H 0.96208 0.33352 0.12035 0.0
H858 H 0.00403 0.38605 0.19208 0.0
H859 H 0.97852 0.37714 0.10993 0.0
H860 H 0.98123 0.2224 0.27192 0.0
H861 H 0.91284 0.28753 0.26211 0.0
H862 H 0.97623 0.24537 0.22749 0.0
H863 H 0.91898 0.26378 0.30603 0.0
H864 H 0.91012 0.38746 0.22287 0.0
H865 H 0.84526 0.34334 0.19423 0.0
H866 H 0.06687 0.29971 0.20495 0.0
H867 H 0.0209 0.32426 0.27405 0.0
H868 H 0.88225 0.24905 0.13353 0.0
H869 H 0.92104 0.32204 0.1373 0.0
H870 H 0.85448 0.26644 0.09638 0.0
H871 H 0.89286 0.3381 0.09994 0.0
H872 H 0.93898 0.23264 0.13953 0.0
H873 H 0.01554 0.22345 0.17136 0.0
H874 H 0.94473 0.19276 0.11233 0.0
H875 H 0.01995 0.18358 0.14352 0.0
H876 H 0.01898 0.29466 0.07455 0.0
H877 H 0.94545 0.26577 0.04774 0.0
H878 H 0.86127 0.20215 0.19355 0.0
H879 H 0.93134 0.16251 0.21475 0.0
Li880 Li 0.2609 0.06049 0.81688 0.0
Li881 Li 0.30627 0.07212 0.81872 0.0
Li882 Li 0.29247 0.02907 0.80476 0.0
Li883 Li 0.28875 0.04333 0.85265 0.0
C884 C 0.29044 0.05682 0.7594 0.0
N885 N 0.30157 0.04384 0.70553 0.0
C886 C 0.31318 0.06538 0.74717 0.0
C887 C 0.27328 0.04182 0.74418 0.0
C888 C 0.31846 0.05859 0.71991 0.0
C889 C 0.27929 0.03539 0.717 0.0
C890 C 0.28408 0.10463 0.85209 0.0
C891 C 0.30992 0.13741 0.87372 0.0
N892 N 0.29501 0.15585 0.86194 0.0
C893 C 0.269 0.12391 0.84019 0.0
C894 C 0.30468 0.11141 0.86904 0.0
C895 C 0.27483 0.14969 0.84545 0.0
C896 C 0.21397 0.08105 0.83321 0.0
N897 N 0.22779 0.07434 0.81057 0.0
C898 C 0.19764 0.09516 0.78099 0.0
C899 C 0.21988 0.08055 0.78473 0.0
C900 C 0.18386 0.10345 0.80415 0.0
C901 C 0.19174 0.09572 0.83044 0.0
H902 H 0.2211 0.07632 0.8535 0.0
H903 H 0.23154 0.07539 0.76717 0.0
C904 C 0.35584 0.09343 0.81629 0.0
N905 N 0.33068 0.09822 0.81102 0.0
C906 C 0.37462 0.1107 0.80752 0.0
C907 C 0.34118 0.13796 0.78898 0.0
C908 C 0.32303 0.12005 0.79789 0.0
C909 C 0.3673 0.13292 0.79322 0.0
H910 H 0.36139 0.0757 0.82624 0.0
H911 H 0.30294 0.123 0.79336 0.0
C912 C 0.23807 0.01858 0.8329 0.0
N913 N 0.18617 0.00922 0.83844 0.0
C914 C 0.22649 0.01997 0.85881 0.0
C915 C 0.22333 0.01224 0.80983 0.0
C916 C 0.2002 0.0152 0.86118 0.0
C917 C 0.1971 0.00765 0.81305 0.0
C918 C 0.33585 0.02581 0.84813 0.0
C919 C 0.33918 0.99924 0.84523 0.0
C920 C 0.34775 0.03872 0.86992 0.0
C921 C 0.35426 0.98601 0.86434 0.0
C922 C 0.36258 0.02477 0.88866 0.0
N923 N 0.36551 0.99893 0.8855 0.0
C924 C 0.32486 0.00237 0.7691 0.0
C925 C 0.28793 0.97864 0.78231 0.0
C926 C 0.33475 0.98109 0.75523 0.0
N927 N 0.30195 0.00071 0.78239 0.0
C928 C 0.29729 0.95673 0.76894 0.0
C929 C 0.32112 0.95787 0.7556 0.0
H930 H 0.33592 0.01993 0.77027 0.0
H931 H 0.27007 0.97774 0.79358 0.0
C932 C 0.28827 0.04993 0.91048 0.0
N933 N 0.29003 0.03231 0.88987 0.0
C934 C 0.28869 0.04197 0.93792 0.0
C935 C 0.29271 0.9979 0.92236 0.0
C936 C 0.29199 0.00669 0.89522 0.0
C937 C 0.29096 0.01571 0.94394 0.0
H938 H 0.28625 0.07011 0.90561 0.0
H939 H 0.29286 0.99312 0.87836 0.0
O940 O 0.28504 0.06301 0.78616 0.0
O941 O 0.2789 0.07926 0.84695 0.0
O942 O 0.26365 0.0237 0.83005 0.0
O943 O 0.32079 0.03907 0.82992 0.0
H944 H 0.32673 0.07693 0.75863 0.0
H945 H 0.25564 0.03499 0.75336 0.0
H946 H 0.33602 0.06499 0.71022 0.0
H947 H 0.26627 0.02366 0.70503 0.0
H948 H 0.32589 0.14293 0.88668 0.0
H949 H 0.25317 0.1191 0.82677 0.0
H950 H 0.31666 0.09676 0.87824 0.0
H951 H 0.26337 0.16481 0.83631 0.0
H952 H 0.1921 0.10121 0.76049 0.0
H953 H 0.18159 0.10216 0.84865 0.0
H954 H 0.39469 0.10627 0.81086 0.0
H955 H 0.33506 0.15489 0.77774 0.0
H956 H 0.23761 0.02494 0.87686 0.0
H957 H 0.23203 0.0111 0.78964 0.0
H958 H 0.19095 0.01633 0.88108 0.0
H959 H 0.18541 0.00287 0.79536 0.0
H960 H 0.33005 0.98888 0.8286 0.0
H961 H 0.34528 0.05925 0.87252 0.0
H962 H 0.35693 0.96544 0.8624 0.0
H963 H 0.37172 0.03449 0.90575 0.0
H964 H 0.35337 0.98235 0.74542 0.0
H965 H 0.28656 0.9389 0.76978 0.0
H966 H 0.28714 0.05607 0.95428 0.0
H967 H 0.29429 0.97748 0.92651 0.0
Li968 Li 0.02745 0.7153 0.19775 0.0
Li969 Li 0.06962 0.69715 0.18599 0.0
Li970 Li 0.06301 0.74348 0.18746 0.0
Li971 Li 0.04433 0.71936 0.15041 0.0
C972 C 0.05808 0.73163 0.24258 0.0
N973 N 0.05402 0.75846 0.29149 0.0
C974 C 0.07536 0.72691 0.26399 0.0
C975 C 0.03876 0.75002 0.246 0.0
C976 C 0.07297 0.74067 0.28858 0.0
C977 C 0.03703 0.76337 0.27089 0.0
C978 C 0.02676 0.66402 0.16544 0.0
C979 C 0.01895 0.62926 0.13354 0.0
N980 N 0.00761 0.61554 0.15404 0.0
C981 C 0.01488 0.6496 0.18614 0.0
C982 C 0.02867 0.65382 0.13886 0.0
C983 C 0.00539 0.62512 0.18 0.0
C984 C 0.97439 0.71056 0.20587 0.0
N985 N 0.99758 0.70777 0.21832 0.0
C986 C 0.97837 0.68641 0.25665 0.0
C987 C -8e-05 0.69647 0.24346 0.0
C988 C 0.95442 0.68797 0.24367 0.0
C989 C 0.95231 0.70077 0.21835 0.0
H990 H 0.97328 0.71922 0.18564 0.0
H991 H 0.01869 0.69392 0.25252 0.0
C992 C 0.11805 0.6722 0.19082 0.0
N993 N 0.09234 0.66985 0.19513 0.0
C994 C 0.13476 0.65273 0.19932 0.0
C995 C 0.09827 0.62908 0.21689 0.0
C996 C 0.0823 0.64892 0.20799 0.0
C997 C 0.12477 0.63102 0.21264 0.0
H998 H 0.12564 0.6894 0.18132 0.0
H999 H 0.06197 0.64797 0.21203 0.0
C1000 C 0.02436 0.76808 0.15796 0.0
N1001 N 0.01875 0.81208 0.12659 0.0
C1002 C 0.04445 0.77655 0.14116 0.0
C1003 C 0.00143 0.78198 0.1588 0.0
C1004 C 0.04123 0.79884 0.12547 0.0
C1005 C 0.99896 0.80417 0.14278 0.0
C1006 C 0.09677 0.71331 0.13859 0.0
C1007 C 0.11585 0.72841 0.12643 0.0
C1008 C 0.09318 0.68798 0.12975 0.0
C1009 C 0.13095 0.71792 0.10548 0.0
C1010 C 0.10868 0.67817 0.10877 0.0
N1011 N 0.12708 0.69323 0.09715 0.0
C1012 C 0.10557 0.77461 0.19232 0.0
C1013 C 0.06709 0.7962 0.2046 0.0
C1014 C 0.11968 0.79707 0.19602 0.0
N1015 N 0.07978 0.77467 0.19626 0.0
C1016 C 0.08055 0.81916 0.20878 0.0
C1017 C 0.10708 0.8197 0.20395 0.0
H1018 H 0.11508 0.75714 0.1858 0.0
H1019 H 0.04653 0.79567 0.20748 0.0
C1020 C 0.00952 0.71139 0.10751 0.0
N1021 N 0.03383 0.71946 0.11291 0.0
C1022 C 0.00038 0.711 0.0805 0.0
C1023 C 0.04134 0.72755 0.06516 0.0
C1024 C 0.04962 0.72782 0.09248 0.0
C1025 C 0.01649 0.71901 0.05904 0.0
H1026 H 0.9973 0.70521 0.12426 0.0
H1027 H 0.06853 0.73492 0.09729 0.0
O1028 O 0.06036 0.71847 0.21832 0.0
O1029 O 0.03557 0.68834 0.17089 0.0
O1030 O 0.02697 0.74636 0.17365 0.0
O1031 O 0.0817 0.7235 0.15892 0.0
H1032 H 0.09046 0.71277 0.26159 0.0
H1033 H 0.0253 0.75401 0.22959 0.0
H1034 H 0.08621 0.73722 0.30534 0.0
H1035 H 0.02219 0.77767 0.27383 0.0
H1036 H 0.02034 0.62115 0.11307 0.0
H1037 H 0.01315 0.65711 0.2068 0.0
H1038 H 0.03744 0.66474 0.12241 0.0
H1039 H 0.99623 0.61375 0.19587 0.0
H1040 H 0.98053 0.67635 0.27606 0.0
H1041 H 0.93405 0.70199 0.2078 0.0
H1042 H 0.15522 0.65481 0.19615 0.0
H1043 H 0.09015 0.61264 0.22748 0.0
H1044 H 0.06238 0.76615 0.14027 0.0
H1045 H 0.98572 0.77566 0.17172 0.0
H1046 H 0.05663 0.80563 0.11241 0.0
H1047 H 0.98132 0.81513 0.14323 0.0
H1048 H 0.11882 0.74811 0.13298 0.0
H1049 H 0.0788 0.67594 0.13919 0.0
H1050 H 0.14573 0.72941 0.09582 0.0
H1051 H 0.10613 0.65857 0.10177 0.0
H1052 H 0.14018 0.79695 0.19231 0.0
H1053 H 0.0704 0.83638 0.21505 0.0
H1054 H 0.98103 0.70448 0.07633 0.0
H1055 H 0.05409 0.73408 0.04899 0.0
Li1056 Li 0.69456 0.06918 0.18389 0.0
Li1057 Li 0.73901 0.06104 0.18459 0.0
Li1058 Li 0.71327 0.04305 0.14846 0.0
Li1059 Li 0.71123 0.02527 0.19673 0.0
C1060 C 0.70952 0.10359 0.15119 0.0
N1061 N 0.68691 0.15127 0.14399 0.0
C1062 C 0.71743 0.12461 0.16707 0.0
C1063 C 0.69016 0.1069 0.13158 0.0
C1064 C 0.70578 0.14854 0.16311 0.0
C1065 C 0.67894 0.13113 0.12829 0.0
C1066 C 0.73049 0.0645 0.23853 0.0
C1067 C 0.75431 0.05165 0.27888 0.0
N1068 N 0.76135 0.07655 0.28304 0.0
C1069 C 0.73794 0.08999 0.24327 0.0
C1070 C 0.73875 0.04517 0.2565 0.0
C1071 C 0.75356 0.09568 0.26585 0.0
C1072 C 0.64374 0.08849 0.18137 0.0
N1073 N 0.66725 0.0923 0.19284 0.0
C1074 C 0.65105 0.12705 0.22004 0.0
C1075 C 0.67124 0.11121 0.21174 0.0
C1076 C 0.62658 0.12308 0.20893 0.0
C1077 C 0.62297 0.1038 0.18916 0.0
H1078 H 0.64094 0.07315 0.16671 0.0
H1079 H 0.68996 0.11372 0.22075 0.0
C1080 C 0.77922 0.09508 0.17399 0.0
N1081 N 0.77238 0.07556 0.1911 0.0
C1082 C 0.80204 0.1084 0.17819 0.0
C1083 C 0.81164 0.08001 0.21625 0.0
C1084 C 0.78844 0.06729 0.2114 0.0
C1085 C 0.81817 0.10125 0.19991 0.0
H1086 H 0.76675 0.10061 0.15725 0.0
H1087 H 0.78308 0.05115 0.22416 0.0
C1088 C 0.66737 0.02117 0.15354 0.0
N1089 N 0.63813 0.99294 0.11683 0.0
C1090 C 0.66304 0.99496 0.15807 0.0
C1091 C 0.6565 0.03307 0.13048 0.0
C1092 C 0.64826 0.98102 0.13926 0.0
C1093 C 0.6419 0.01846 0.1121 0.0
C1094 C 0.76529 0.02039 0.16801 0.0
C1095 C 0.77877 0.03029 0.14551 0.0
C1096 C 0.77831 0.00656 0.18834 0.0
C1097 C 0.80526 0.02646 0.14391 0.0
C1098 C 0.8048 0.00309 0.18596 0.0
N1099 N 0.81761 0.01306 0.164 0.0
C1100 C 0.71609 0.05012 0.09055 0.0
C1101 C 0.71092 0.00691 0.10537 0.0
C1102 C 0.71604 0.04233 0.06303 0.0
N1103 N 0.71319 0.03246 0.11098 0.0
C1104 C 0.71063 0.99829 0.07816 0.0
C1105 C 0.71315 0.01617 0.05675 0.0
H1106 H 0.71864 0.0702 0.09561 0.0
H1107 H 0.70923 0.99326 0.12209 0.0
C1108 C 0.68743 0.99876 0.23924 0.0
N1109 N 0.70408 0.99574 0.21794 0.0
C1110 C 0.67786 0.9773 0.25305 0.0
C1111 C 0.70312 0.95005 0.22303 0.0
C1112 C 0.71251 0.97211 0.21 0.0
C1113 C 0.68522 0.95267 0.2444 0.0
H1114 H 0.68081 0.01783 0.2447 0.0
H1115 H 0.72535 0.97037 0.1926 0.0
O1116 O 0.72019 0.0798 0.15533 0.0
O1117 O 0.71504 0.05851 0.21663 0.0
O1118 O 0.68217 0.03507 0.17152 0.0
O1119 O 0.73951 0.02453 0.17031 0.0
H1120 H 0.73211 0.12243 0.18261 0.0
H1121 H 0.68363 0.09092 0.11921 0.0
H1122 H 0.71163 0.1649 0.17538 0.0
H1123 H 0.66384 0.1339 0.11329 0.0
H1124 H 0.76089 0.03686 0.29287 0.0
H1125 H 0.73222 0.10516 0.22939 0.0
H1126 H 0.73344 0.02532 0.25311 0.0
H1127 H 0.75959 0.11528 0.26962 0.0
H1128 H 0.65427 0.1417 0.23553 0.0
H1129 H 0.60417 0.10021 0.18047 0.0
H1130 H 0.80686 0.12447 0.16493 0.0
H1131 H 0.824 0.07383 0.23292 0.0
H1132 H 0.67097 0.98541 0.17588 0.0
H1133 H 0.65964 0.05328 0.12655 0.0
H1134 H 0.64486 0.9607 0.1425 0.0
H1135 H 0.63365 0.02739 0.09404 0.0
H1136 H 0.76891 0.0411 0.12966 0.0
H1137 H 0.76809 0.99887 0.20593 0.0
H1138 H 0.816 0.03418 0.12674 0.0
H1139 H 0.81518 0.99257 0.20162 0.0
H1140 H 0.71828 0.05647 0.04682 0.0
H1141 H 0.70858 0.97795 0.07382 0.0
H1142 H 0.66384 0.9798 0.26931 0.0
H1143 H 0.70886 0.93119 0.21579 0.0
Li1144 Li 0.0415 0.2838 0.85183 0.0
Li1145 Li 0.0596 0.25726 0.81508 0.0
Li1146 Li 0.0696 0.3038 0.81674 0.0
Li1147 Li 0.02791 0.28783 0.80321 0.0
C1148 C 0.10324 0.27455 0.85105 0.0
N1149 N 0.1547 0.27017 0.86404 0.0
C1150 C 0.12025 0.263 0.83249 0.0
C1151 C 0.11246 0.28392 0.87616 0.0
C1152 C 0.14618 0.26097 0.83946 0.0
C1153 C 0.13852 0.2815 0.88236 0.0
C1154 C 0.01803 0.23274 0.8316 0.0
C1155 C 0.00702 0.19131 0.81257 0.0
N1156 N 0.00859 0.18077 0.83816 0.0
C1157 C 0.0193 0.22155 0.85774 0.0
C1158 C 0.01162 0.21757 0.80886 0.0
C1159 C 0.01453 0.19523 0.86062 0.0
C1160 C 0.00855 0.29581 0.89606 0.0
N1161 N 0.0313 0.28477 0.88913 0.0
C1162 C 0.03945 0.27347 0.93596 0.0
C1163 C 0.0467 0.27365 0.90832 0.0
C1164 C 0.01599 0.28452 0.94366 0.0
C1165 C 0.00041 0.29584 0.92346 0.0
H1166 H 0.99667 0.30434 0.88024 0.0
H1167 H 0.06439 0.26451 0.90206 0.0
C1168 C 0.08239 0.21739 0.78327 0.0
N1169 N 0.07439 0.22435 0.80887 0.0
C1170 C 0.09769 0.19555 0.77981 0.0
C1171 C 0.09495 0.18779 0.82887 0.0
C1172 C 0.07994 0.20986 0.83142 0.0
C1173 C 0.10456 0.18096 0.80294 0.0
H1174 H 0.07821 0.22961 0.76583 0.0
H1175 H 0.07396 0.21631 0.8516 0.0
C1176 C 0.03692 0.33698 0.84618 0.0
N1177 N 0.03921 0.38015 0.87926 0.0
C1178 C 0.01827 0.35616 0.84382 0.0
C1179 C 0.05674 0.33973 0.86532 0.0
C1180 C 0.01976 0.37786 0.86074 0.0
C1181 C 0.05756 0.3617 0.88187 0.0
C1182 C 0.05427 0.28508 0.7575 0.0
C1183 C 0.06173 0.30697 0.74282 0.0
C1184 C 0.03909 0.26644 0.74466 0.0
C1185 C 0.0534 0.31011 0.71568 0.0
C1186 C 0.03111 0.27029 0.71751 0.0
N1187 N 0.03835 0.29188 0.70371 0.0
C1188 C 0.1189 0.32987 0.81363 0.0
C1189 C 0.08221 0.35258 0.79809 0.0
C1190 C 0.13485 0.35011 0.80557 0.0
N1191 N 0.0931 0.3313 0.80947 0.0
C1192 C 0.09741 0.37321 0.78968 0.0
C1193 C 0.12404 0.37186 0.79314 0.0
H1194 H 0.12734 0.31295 0.82254 0.0
H1195 H 0.0617 0.35316 0.79473 0.0
C1196 C 0.97762 0.28299 0.78032 0.0
N1197 N 0.99939 0.29738 0.78125 0.0
C1198 C 0.95575 0.29255 0.76712 0.0
C1199 C 0.97959 0.33099 0.75536 0.0
C1200 C 0.00082 0.32085 0.76899 0.0
C1201 C 0.95664 0.31698 0.75487 0.0
H1202 H 0.97692 0.26462 0.79075 0.0
H1203 H 0.01822 0.33209 0.7707 0.0
O1204 O 0.0777 0.2766 0.84485 0.0
O1205 O 0.02296 0.25842 0.82832 0.0
O1206 O 0.03563 0.31564 0.82976 0.0
O1207 O 0.06182 0.28189 0.78428 0.0
H1208 H 0.11368 0.25623 0.81268 0.0
H1209 H 0.09969 0.29311 0.89071 0.0
H1210 H 0.1596 0.2523 0.82522 0.0
H1211 H 0.14589 0.28869 0.90171 0.0
H1212 H 0.00219 0.17931 0.79512 0.0
H1213 H 0.0241 0.23299 0.8756 0.0
H1214 H 0.01024 0.22595 0.78855 0.0
H1215 H 0.0156 0.18629 0.88071 0.0
H1216 H 0.05175 0.26445 0.95113 0.0
H1217 H 0.98216 0.30443 0.92886 0.0
H1218 H 0.10523 0.19088 0.75963 0.0
H1219 H 0.10037 0.17709 0.84711 0.0
H1220 H 0.00281 0.35427 0.82905 0.0
H1221 H 0.07134 0.32509 0.86735 0.0
H1222 H 0.00545 0.39287 0.85914 0.0
H1223 H 0.07279 0.36409 0.89679 0.0
H1224 H 0.07378 0.32141 0.75225 0.0
H1225 H 0.03335 0.24929 0.75563 0.0
H1226 H 0.0589 0.32703 0.70413 0.0
H1227 H 0.01916 0.25612 0.70741 0.0
H1228 H 0.15542 0.34857 0.80832 0.0
H1229 H 0.0886 0.38976 0.77996 0.0
H1230 H 0.93813 0.2815 0.76728 0.0
H1231 H 0.98066 0.35004 0.74636 0.0
Li1232 Li 0.28826 0.95737 0.14975 0.0
Li1233 Li 0.28879 0.97564 0.19772 0.0
Li1234 Li 0.30633 0.93184 0.18581 0.0
Li1235 Li 0.26167 0.93944 0.18523 0.0
C1236 C 0.33287 0.98074 0.15572 0.0
N1237 N 0.36056 0.01037 0.11893 0.0
C1238 C 0.33396 0.00746 0.15888 0.0
C1239 C 0.34613 0.96908 0.134 0.0
C1240 C 0.34803 0.0221 0.14005 0.0
C1241 C 0.35991 0.9844 0.11556 0.0
C1242 C 0.23535 0.97882 0.16618 0.0
C1243 C 0.19392 0.99379 0.18134 0.0
N1244 N 0.18315 0.98386 0.15814 0.0
C1245 C 0.22394 0.96888 0.14241 0.0
C1246 C 0.2203 0.99146 0.18579 0.0
C1247 C 0.19749 0.97158 0.13875 0.0
C1248 C 0.28844 0.94915 0.09196 0.0
N1249 N 0.28927 0.96733 0.11209 0.0
C1250 C 0.29064 0.001 0.07863 0.0
C1251 C 0.28993 0.99287 0.106 0.0
C1252 C 0.2902 0.98261 0.05756 0.0
C1253 C 0.28898 0.95643 0.0643 0.0
H1254 H 0.28707 0.92904 0.09735 0.0
H1255 H 0.28986 0.00691 0.12244 0.0
C1256 C 0.31176 0.00387 0.23978 0.0
N1257 N 0.29383 0.00523 0.21965 0.0
C1258 C 0.31676 0.02519 0.25636 0.0
C1259 C 0.2854 0.04923 0.23056 0.0
C1260 C 0.28096 0.02736 0.21449 0.0
C1261 C 0.30276 0.04834 0.253 0.0
H1262 H 0.32242 0.98621 0.24272 0.0
H1263 H 0.26762 0.02821 0.19745 0.0
C1264 C 0.29236 0.89696 0.15265 0.0
N1265 N 0.31521 0.8494 0.14535 0.0
C1266 C 0.28295 0.87535 0.16656 0.0
C1267 C 0.3134 0.8943 0.13502 0.0
C1268 C 0.29473 0.85149 0.16256 0.0
C1269 C 0.3247 0.87013 0.13163 0.0
C1270 C 0.26977 0.93567 0.23953 0.0
C1271 C 0.26232 0.91004 0.24317 0.0
C1272 C 0.2619 0.95426 0.25857 0.0
C1273 C 0.24705 0.90345 0.26574 0.0
C1274 C 0.24665 0.9469 0.28089 0.0
N1275 N 0.2396 0.92186 0.28398 0.0
C1276 C 0.35771 0.91419 0.18743 0.0
C1277 C 0.32822 0.8883 0.21224 0.0
C1278 C 0.37808 0.89862 0.19584 0.0
N1279 N 0.33338 0.90887 0.19582 0.0
C1280 C 0.34797 0.87216 0.22102 0.0
C1281 C 0.37319 0.87753 0.21301 0.0
H1282 H 0.36138 0.93084 0.17473 0.0
H1283 H 0.30884 0.88457 0.21882 0.0
C1284 C 0.22146 0.9058 0.17328 0.0
N1285 N 0.22831 0.92478 0.19108 0.0
C1286 C 0.19873 0.89222 0.17718 0.0
C1287 C 0.18919 0.91944 0.21625 0.0
C1288 C 0.21229 0.93243 0.21169 0.0
C1289 C 0.18273 0.89859 0.19929 0.0
H1290 H 0.2339 0.90085 0.1563 0.0
H1291 H 0.21765 0.94821 0.22497 0.0
O1292 O 0.31873 0.96613 0.17361 0.0
O1293 O 0.26107 0.97572 0.17048 0.0
O1294 O 0.28145 0.92065 0.15677 0.0
O1295 O 0.28494 0.94253 0.21771 0.0
H1296 H 0.3239 0.01686 0.17554 0.0
H1297 H 0.34551 0.94847 0.13117 0.0
H1298 H 0.34891 0.04281 0.14218 0.0
H1299 H 0.37004 0.97563 0.09852 0.0
H1300 H 0.18199 0.00337 0.19641 0.0
H1301 H 0.23534 0.95892 0.12713 0.0
H1302 H 0.22884 0.99903 0.20442 0.0
H1303 H 0.18834 0.96384 0.12055 0.0
H1304 H 0.29132 0.02137 0.07391 0.0
H1305 H 0.28832 0.94188 0.04834 0.0
H1306 H 0.33207 0.02343 0.27126 0.0
H1307 H 0.27548 0.06632 0.22427 0.0
H1308 H 0.26702 0.877 0.1807 0.0
H1309 H 0.32115 0.91077 0.12429 0.0
H1310 H 0.28771 0.83467 0.1733 0.0
H1311 H 0.34108 0.86787 0.11816 0.0
H1312 H 0.26766 0.89547 0.22839 0.0
H1313 H 0.26735 0.97419 0.2561 0.0
H1314 H 0.24099 0.88373 0.26867 0.0
H1315 H 0.24039 0.9611 0.29572 0.0
H1316 H 0.39748 0.90329 0.18959 0.0
H1317 H 0.34374 0.85608 0.23447 0.0
H1318 H 0.19395 0.87649 0.16345 0.0
H1319 H 0.17691 0.92503 0.23323 0.0
Li1320 Li 0.93909 0.74018 0.81604 0.0
Li1321 Li 0.95713 0.7175 0.85348 0.0
Li1322 Li 0.97579 0.71515 0.80464 0.0
Li1323 Li 0.93255 0.69543 0.81648 0.0
C1324 C 0.97671 0.77005 0.83448 0.0
N1325 N 0.9802 0.82271 0.84103 0.0
C1326 C 0.96252 0.78237 0.85504 0.0
C1327 C 0.99292 0.7844 0.81748 0.0
C1328 C 0.96446 0.80905 0.85793 0.0
C1329 C 0.99438 0.81104 0.82109 0.0
C1330 C 0.90617 0.70746 0.86422 0.0
C1331 C 0.89821 0.66903 0.89081 0.0
N1332 N 0.87891 0.68131 0.90431 0.0
C1333 C 0.8862 0.71967 0.87836 0.0
C1334 C 0.91219 0.68192 0.87052 0.0
C1335 C 0.87268 0.70614 0.89855 0.0
C1336 C 0.89787 0.77386 0.81844 0.0
N1337 N 0.92168 0.77168 0.80732 0.0
C1338 C 0.91736 0.81276 0.78545 0.0
C1339 C 0.9316 0.79052 0.79095 0.0
C1340 C 0.8929 0.81542 0.79711 0.0
C1341 C 0.88312 0.7957 0.81367 0.0
H1342 H 0.89017 0.75846 0.8308 0.0
H1343 H 0.95041 0.7882 0.78195 0.0
C1344 C 0.99074 0.7085 0.89757 0.0
N1345 N 0.96698 0.71746 0.89108 0.0
C1346 C 0.99904 0.70845 0.9249 0.0
C1347 C 0.95841 0.72721 0.93827 0.0
C1348 C 0.95097 0.72705 0.91068 0.0
C1349 C 0.98269 0.71782 0.94552 0.0
H1350 H 0.00322 0.70144 0.88145 0.0
H1351 H 0.93255 0.73486 0.90489 0.0
C1352 C 0.93152 0.73003 0.76403 0.0
N1353 N 0.90785 0.75935 0.72398 0.0
C1354 C 0.90477 0.73037 0.76202 0.0
C1355 C 0.94625 0.74439 0.74554 0.0
C1356 C 0.89316 0.74541 0.74169 0.0
C1357 C 0.93391 0.75912 0.72544 0.0
C1358 C 0.97759 0.66321 0.83527 0.0
C1359 C 0.98925 0.65035 0.81328 0.0
C1360 C 0.97717 0.65165 0.86129 0.0
C1361 C -1e-05 0.62605 0.81759 0.0
C1362 C 0.98817 0.62736 0.86478 0.0
N1363 N 0.99925 0.61516 0.84304 0.0
C1364 C 0.02905 0.70966 0.79796 0.0
C1365 C 0.00419 0.69989 0.75833 0.0
C1366 C 0.05114 0.70018 0.78522 0.0
N1367 N 0.00616 0.70881 0.78457 0.0
C1368 C 0.02576 0.69016 0.74487 0.0
C1369 C 0.04935 0.68965 0.75869 0.0
H1370 H 0.02984 0.71641 0.81902 0.0
H1371 H 0.9856 0.69889 0.74851 0.0
C1372 C 0.88437 0.67154 0.80838 0.0
N1373 N 0.91019 0.66783 0.80692 0.0
C1374 C 0.86753 0.65237 0.79943 0.0
C1375 C 0.90416 0.62583 0.78804 0.0
C1376 C 0.92025 0.64555 0.79701 0.0
C1377 C 0.87752 0.62931 0.78899 0.0
H1378 H 0.87688 0.68964 0.81591 0.0
H1379 H 0.94074 0.64332 0.79535 0.0
O1380 O 0.97478 0.74403 0.83106 0.0
O1381 O 0.91969 0.72067 0.84453 0.0
O1382 O 0.94321 0.71588 0.78418 0.0
O1383 O 0.96728 0.68723 0.83154 0.0
H1384 H 0.94988 0.77147 0.86834 0.0
H1385 H 0.00406 0.77506 0.80153 0.0
H1386 H 0.95341 0.81891 0.87357 0.0
H1387 H 0.00672 0.82245 0.80798 0.0
H1388 H 0.90268 0.64924 0.89578 0.0
H1389 H 0.88133 0.73949 0.87403 0.0
H1390 H 0.92725 0.672 0.85969 0.0
H1391 H 0.85726 0.71542 0.90969 0.0
H1392 H 0.92522 0.82761 0.77228 0.0
H1393 H 0.86414 0.79714 0.82265 0.0
H1394 H 0.01797 0.70126 0.92994 0.0
H1395 H 0.94552 0.73478 0.95378 0.0
H1396 H 0.89312 0.71944 0.77626 0.0
H1397 H 0.96697 0.74447 0.74696 0.0
H1398 H 0.87247 0.74606 0.74005 0.0
H1399 H 0.94505 0.77047 0.7111 0.0
H1400 H 0.98965 0.65883 0.79297 0.0
H1401 H 0.96844 0.66129 0.87867 0.0
H1402 H 0.00888 0.61583 0.80069 0.0
H1403 H 0.98793 0.61821 0.88479 0.0
H1404 H 0.06911 0.69978 0.79642 0.0
H1405 H 0.02382 0.68188 0.72449 0.0
H1406 H 0.84702 0.65563 0.80013 0.0
H1407 H 0.91236 0.6083 0.77977 0.0
C1408 C 0.33026 0.34923 0.27716 0.0
C1409 C 0.33551 0.37315 0.29018 0.0
C1410 C 0.37808 0.35768 0.30374 0.0
C1411 C 0.37292 0.33401 0.29027 0.0
N1412 N 0.34776 0.31013 0.25747 0.0
N1413 N 0.36649 0.4026 0.30923 0.0
C1414 C 0.35022 0.33084 0.27463 0.0
C1415 C 0.36019 0.37819 0.30125 0.0
N1416 N 0.30589 0.34327 0.26892 0.0
N1417 N 0.39926 0.36012 0.32012 0.0
H1418 H 0.3538 0.41805 0.30737 0.0
H1419 H 0.38494 0.40798 0.31512 0.0
H1420 H 0.41293 0.34562 0.32236 0.0
H1421 H 0.40239 0.37585 0.33299 0.0
H1422 H 0.30055 0.325 0.2622 0.0
H1423 H 0.29038 0.35577 0.27105 0.0
H1424 H 0.33264 0.30802 0.24363 0.0
H1425 H 0.36223 0.29642 0.25511 0.0
C1426 C 0.3459 0.67096 0.69739 0.0
C1427 C 0.37194 0.66402 0.70163 0.0
C1428 C 0.36 0.61846 0.7048 0.0
C1429 C 0.33391 0.62551 0.7013 0.0
N1430 N 0.30116 0.65826 0.69893 0.0
N1431 N 0.40381 0.63236 0.71346 0.0
C1432 C 0.32661 0.65174 0.69907 0.0
C1433 C 0.379 0.63808 0.70664 0.0
N1434 N 0.33974 0.69582 0.69077 0.0
N1435 N 0.36658 0.59299 0.70551 0.0
H1436 H 0.4182 0.64629 0.71445 0.0
H1437 H 0.40986 0.61429 0.72 0.0
H1438 H 0.35302 0.57822 0.70506 0.0
H1439 H 0.3854 0.58635 0.705 0.0
H1440 H 0.32168 0.70151 0.68396 0.0
H1441 H 0.35313 0.71073 0.69036 0.0
H1442 H 0.29451 0.67709 0.70049 0.0
H1443 H 0.2864 0.64472 0.69934 0.0
C1444 C 0.65529 0.66861 0.31035 0.0
C1445 C 0.63067 0.66316 0.29933 0.0
C1446 C 0.6435 0.6185 0.29055 0.0
C1447 C 0.6686 0.62455 0.29977 0.0
N1448 N 0.69998 0.6563 0.31331 0.0
N1449 N 0.60201 0.63445 0.27542 0.0
C1450 C 0.67497 0.64992 0.30814 0.0
C1451 C 0.62494 0.6385 0.28839 0.0
N1452 N 0.65961 0.69131 0.32389 0.0
N1453 N 0.63727 0.59355 0.28463 0.0
H1454 H 0.58793 0.64865 0.27381 0.0
H1455 H 0.59766 0.61776 0.26452 0.0
H1456 H 0.65057 0.57856 0.28554 0.0
H1457 H 0.61863 0.58737 0.28066 0.0
H1458 H 0.67622 0.69508 0.33509 0.0
H1459 H 0.64572 0.70563 0.32604 0.0
H1460 H 0.70617 0.67513 0.31649 0.0
H1461 H 0.71504 0.64314 0.312 0.0
C1462 C 0.65381 0.32438 0.69032 0.0
C1463 C 0.62839 0.33061 0.69848 0.0
C1464 C 0.64094 0.37548 0.70656 0.0
C1465 C 0.6665 0.36902 0.69928 0.0
N1466 N 0.69848 0.33722 0.68771 0.0
N1467 N 0.59793 0.36056 0.71755 0.0
C1468 C 0.67329 0.3434 0.69218 0.0
C1469 C 0.62201 0.35575 0.7076 0.0
N1470 N 0.65914 0.30038 0.68017 0.0
N1471 N 0.63475 0.40059 0.71176 0.0
H1472 H 0.58344 0.3467 0.71781 0.0
H1473 H 0.59263 0.37765 0.72715 0.0
H1474 H 0.64835 0.41533 0.71199 0.0
H1475 H 0.61607 0.40721 0.71431 0.0
H1476 H 0.6763 0.2955 0.67056 0.0
H1477 H 0.64581 0.28541 0.6799 0.0
H1478 H 0.7052 0.31847 0.68565 0.0
H1479 H 0.71325 0.35077 0.68781 0.0
C1480 C 0.83392 0.85267 0.77755 0.0
C1481 C 0.83799 0.87613 0.79196 0.0
C1482 C 0.88072 0.86153 0.80607 0.0
C1483 C 0.87658 0.83819 0.79158 0.0
N1484 N 0.85309 0.81468 0.75713 0.0
N1485 N 0.86732 0.90572 0.81355 0.0
C1486 C 0.85446 0.83493 0.77504 0.0
C1487 C 0.86218 0.88151 0.80406 0.0
N1488 N 0.81004 0.84644 0.76797 0.0
N1489 N 0.9016 0.86406 0.82288 0.0
H1490 H 0.85408 0.92074 0.81213 0.0
H1491 H 0.88536 0.91151 0.82037 0.0
H1492 H 0.9158 0.85001 0.82453 0.0
H1493 H 0.90405 0.87936 0.83648 0.0
H1494 H 0.80541 0.82834 0.7602 0.0
H1495 H 0.79418 0.85851 0.76982 0.0
H1496 H 0.83849 0.81256 0.74266 0.0
H1497 H 0.86798 0.8014 0.7549 0.0
C1498 C 0.86195 0.11602 0.18644 0.0
C1499 C 0.8414 0.11685 0.20549 0.0
C1500 C 0.86184 0.15299 0.22928 0.0
C1501 C 0.87943 0.15524 0.20717 0.0
N1502 N 0.89607 0.13961 0.16387 0.0
N1503 N 0.82082 0.13658 0.24475 0.0
C1504 C 0.87981 0.13666 0.18573 0.0
C1505 C 0.84129 0.13516 0.2272 0.0
N1506 N 0.86421 0.0955 0.16899 0.0
N1507 N 0.86483 0.16804 0.25213 0.0
H1508 H 0.80546 0.12375 0.2441 0.0
H1509 H 0.81821 0.15148 0.25881 0.0
H1510 H 0.87983 0.18123 0.25411 0.0
H1511 H 0.85406 0.16575 0.27003 0.0
H1512 H 0.88002 0.09255 0.15627 0.0
H1513 H 0.85132 0.08012 0.1692 0.0
H1514 H 0.89507 0.12845 0.14609 0.0
H1515 H 0.9096 0.15434 0.16263 0.0
C1516 C 0.1508 0.16844 0.80501 0.0
C1517 C 0.12485 0.16107 0.80089 0.0
C1518 C 0.13751 0.11568 0.79804 0.0
C1519 C 0.1635 0.12318 0.8014 0.0
N1520 N 0.19573 0.15646 0.80363 0.0
N1521 N 0.09343 0.12883 0.78955 0.0
C1522 C 0.17038 0.14953 0.8035 0.0
C1523 C 0.11818 0.13498 0.79615 0.0
N1524 N 0.1566 0.19347 0.81124 0.0
N1525 N 0.13136 0.0901 0.79747 0.0
H1526 H 0.0788 0.14251 0.78859 0.0
H1527 H 0.08762 0.11061 0.7832 0.0
H1528 H 0.14517 0.07557 0.79799 0.0
H1529 H 0.11265 0.08314 0.79805 0.0
H1530 H 0.17453 0.19954 0.81806 0.0
H1531 H 0.143 0.20818 0.81126 0.0
H1532 H 0.20209 0.17537 0.80194 0.0
H1533 H 0.21071 0.14316 0.80338 0.0
C1534 C 0.13904 0.8833 0.18601 0.0
C1535 C 0.15983 0.88249 0.20478 0.0
C1536 C 0.14002 0.84593 0.22843 0.0
C1537 C 0.12215 0.84376 0.20658 0.0
N1538 N 0.10486 0.85961 0.16368 0.0
N1539 N 0.1812 0.86237 0.24333 0.0
C1540 C 0.12137 0.86251 0.18533 0.0
C1541 C 0.16042 0.86391 0.22621 0.0
N1542 N 0.13637 0.90396 0.16884 0.0
N1543 N 0.13745 0.83067 0.25118 0.0
H1544 H 0.19653 0.87521 0.24252 0.0
H1545 H 0.18411 0.8473 0.25711 0.0
H1546 H 0.12257 0.81736 0.25327 0.0
H1547 H 0.14844 0.83291 0.26893 0.0
H1548 H 0.12037 0.90688 0.15638 0.0
H1549 H 0.14911 0.91947 0.16903 0.0
H1550 H 0.10554 0.87093 0.146 0.0
H1551 H 0.09145 0.84476 0.16248 0.0
C1552 C 0.16535 0.57024 0.21771 0.0
C1553 C 0.1693 0.5693 0.24658 0.0
C1554 C 0.14876 0.61139 0.25193 0.0
C1555 C 0.14199 0.61081 0.22365 0.0
N1556 N 0.14224 0.58956 0.17953 0.0
N1557 N 0.16337 0.58751 0.29184 0.0
C1558 C 0.15005 0.5903 0.20641 0.0
C1559 C 0.16084 0.58959 0.26388 0.0
N1560 N 0.17647 0.55207 0.20119 0.0
N1561 N 0.1439 0.63296 0.26722 0.0
H1562 H 0.17271 0.57215 0.30137 0.0
H1563 H 0.15481 0.60008 0.30577 0.0
H1564 H 0.13478 0.64918 0.25918 0.0
H1565 H 0.15073 0.6357 0.28715 0.0
H1566 H 0.17648 0.55298 0.17978 0.0
H1567 H 0.18753 0.53698 0.20895 0.0
H1568 H 0.14492 0.57377 0.16666 0.0
H1569 H 0.13161 0.60428 0.17041 0.0
C1570 C 0.57304 0.82198 0.78672 0.0
C1571 C 0.5692 0.82259 0.75782 0.0
C1572 C 0.60645 0.85075 0.75211 0.0
C1573 C 0.61084 0.84955 0.78095 0.0
N1574 N 0.60182 0.83033 0.82504 0.0
N1575 N 0.585 0.83245 0.71239 0.0
C1576 C 0.5952 0.83396 0.79808 0.0
C1577 C 0.58689 0.83528 0.74032 0.0
N1578 N 0.55507 0.81073 0.80331 0.0
N1579 N 0.61998 0.86772 0.7362 0.0
H1580 H 0.57063 0.82156 0.703 0.0
H1581 H 0.59891 0.83894 0.69865 0.0
H1582 H 0.63437 0.87963 0.74395 0.0
H1583 H 0.61558 0.8716 0.7157 0.0
H1584 H 0.55515 0.81222 0.82469 0.0
H1585 H 0.53907 0.80106 0.79557 0.0
H1586 H 0.59266 0.81728 0.83799 0.0
H1587 H 0.61795 0.83887 0.83391 0.0
C1588 C 0.84956 0.40818 0.2016 0.0
C1589 C 0.85827 0.38853 0.2196 0.0
C1590 C 0.84065 0.41154 0.25931 0.0
C1591 C 0.83147 0.43097 0.24128 0.0
N1592 N 0.82256 0.44584 0.19531 0.0
N1593 N 0.8575 0.3683 0.26425 0.0
C1594 C 0.83444 0.42863 0.21237 0.0
C1595 C 0.85228 0.3892 0.24806 0.0
N1596 N 0.85658 0.40774 0.17447 0.0
N1597 N 0.83941 0.41504 0.28721 0.0
H1598 H 0.86628 0.35168 0.25672 0.0
H1599 H 0.85118 0.36648 0.2845 0.0
H1600 H 0.83072 0.43097 0.29636 0.0
H1601 H 0.84857 0.4031 0.30134 0.0
H1602 H 0.85339 0.42292 0.16091 0.0
H1603 H 0.86706 0.39268 0.16577 0.0
H1604 H 0.82187 0.44389 0.17399 0.0
H1605 H 0.81151 0.46112 0.20269 0.0
C1606 C 0.4249 0.17722 0.78587 0.0
C1607 C 0.42911 0.17577 0.75707 0.0
C1608 C 0.39189 0.14753 0.7517 0.0
C1609 C 0.38723 0.14942 0.78045 0.0
N1610 N 0.39569 0.16984 0.82405 0.0
N1611 N 0.41377 0.16481 0.71174 0.0
C1612 C 0.40263 0.16553 0.79729 0.0
C1613 C 0.41158 0.16268 0.73971 0.0
N1614 N 0.44267 0.18896 0.80234 0.0
N1615 N 0.37852 0.13016 0.73611 0.0
H1616 H 0.42823 0.17548 0.70223 0.0
H1617 H 0.40001 0.15797 0.69802 0.0
H1618 H 0.364 0.1185 0.744 0.0
H1619 H 0.38316 0.12575 0.7158 0.0
H1620 H 0.44231 0.1881 0.82376 0.0
H1621 H 0.45876 0.19842 0.79451 0.0
H1622 H 0.40468 0.18324 0.83674 0.0
H1623 H 0.37946 0.16151 0.83293 0.0
C1624 C 0.16509 0.43238 0.78826 0.0
C1625 C 0.16777 0.4343 0.75927 0.0
C1626 C 0.146 0.3929 0.75335 0.0
C1627 C 0.14059 0.39254 0.78196 0.0
N1628 N 0.14307 0.41235 0.82676 0.0
N1629 N 0.15868 0.41814 0.71369 0.0
C1630 C 0.14978 0.41231 0.79954 0.0
C1631 C 0.15783 0.41493 0.74164 0.0
N1632 N 0.17749 0.44958 0.80491 0.0
N1633 N 0.14016 0.37196 0.73746 0.0
H1634 H 0.16754 0.43381 0.70421 0.0
H1635 H 0.14901 0.40629 0.69986 0.0
H1636 H 0.1312 0.35555 0.74527 0.0
H1637 H 0.1461 0.36987 0.71711 0.0
H1638 H 0.17844 0.44784 0.82624 0.0
H1639 H 0.18867 0.4646 0.79719 0.0
H1640 H 0.14668 0.42765 0.84005 0.0
H1641 H 0.13233 0.39766 0.8358 0.0
C1642 C 0.40826 0.87164 0.24753 0.0
C1643 C 0.39468 0.86221 0.22432 0.0
C1644 C 0.42084 0.82299 0.22435 0.0
C1645 C 0.43569 0.8334 0.24616 0.0
N1646 N 0.44661 0.86924 0.27558 0.0
N1647 N 0.3895 0.83076 0.18827 0.0
C1648 C 0.43024 0.85819 0.25697 0.0
C1649 C 0.40136 0.83835 0.21204 0.0
N1650 N 0.39971 0.89311 0.26102 0.0
N1651 N 0.425 0.79823 0.21594 0.0
H1652 H 0.37486 0.84137 0.17901 0.0
H1653 H 0.3953 0.81498 0.17664 0.0
H1654 H 0.43934 0.78661 0.22432 0.0
H1655 H 0.41316 0.78852 0.20214 0.0
H1656 H 0.40698 0.8992 0.2799 0.0
H1657 H 0.3839 0.9038 0.25451 0.0
H1658 H 0.4453 0.88837 0.28179 0.0
H1659 H 0.46288 0.85999 0.28321 0.0
C1660 C 0.82962 0.57405 0.78352 0.0
C1661 C 0.83161 0.56837 0.75503 0.0
C1662 C 0.85968 0.60563 0.74846 0.0
C1663 C 0.86034 0.60931 0.77739 0.0
N1664 N 0.84827 0.59561 0.82305 0.0
N1665 N 0.85141 0.57624 0.71084 0.0
C1666 C 0.84581 0.59323 0.79513 0.0
C1667 C 0.84733 0.58355 0.73755 0.0
N1668 N 0.81195 0.5614 0.79931 0.0
N1669 N 0.87041 0.62357 0.73137 0.0
H1670 H 0.84283 0.56011 0.70196 0.0
H1671 H 0.86499 0.58487 0.69811 0.0
H1672 H 0.87948 0.64014 0.73862 0.0
H1673 H 0.8682 0.62331 0.71005 0.0
H1674 H 0.80772 0.56645 0.81956 0.0
H1675 H 0.79987 0.54718 0.7914 0.0
H1676 H 0.84041 0.58262 0.83703 0.0
H1677 H 0.85982 0.60953 0.83231 0.0
C1678 C 0.59898 0.1627 0.20943 0.0
C1679 C 0.60436 0.13771 0.2197 0.0
C1680 C 0.56658 0.13973 0.24961 0.0
C1681 C 0.56254 0.16558 0.24123 0.0
N1682 N 0.57593 0.20292 0.21559 0.0
N1683 N 0.59585 0.10361 0.25217 0.0
C1684 C 0.579 0.17743 0.22172 0.0
C1685 C 0.58884 0.12652 0.2405 0.0
N1686 N 0.61265 0.17204 0.18757 0.0
N1687 N 0.54874 0.12758 0.26568 0.0
H1688 H 0.61181 0.09306 0.24577 0.0
H1689 H 0.58709 0.09597 0.26962 0.0
H1690 H 0.53222 0.13663 0.27299 0.0
H1691 H 0.54911 0.10794 0.26991 0.0
H1692 H 0.60799 0.18894 0.1772 0.0
H1693 H 0.62768 0.1619 0.17843 0.0
H1694 H 0.58889 0.21348 0.20384 0.0
H1695 H 0.56119 0.2141 0.22387 0.0
C1696 C 0.67071 0.06939 0.71627 0.0
C1697 C 0.66747 0.06314 0.74448 0.0
C1698 C 0.63611 0.09788 0.7498 0.0
C1699 C 0.64013 0.10486 0.72187 0.0
N1700 N 0.66414 0.10062 0.67972 0.0
N1701 N 0.65133 0.07413 0.78952 0.0
C1702 C 0.65836 0.09162 0.70544 0.0
C1703 C 0.65149 0.07829 0.7617 0.0
N1704 N 0.68488 0.05357 0.69968 0.0
N1705 N 0.61682 0.1092 0.76459 0.0
H1706 H 0.66217 0.05974 0.79898 0.0
H1707 H 0.64225 0.08626 0.80352 0.0
H1708 H 0.60519 0.12379 0.75674 0.0
H1709 H 0.61096 0.10282 0.78392 0.0
H1710 H 0.68564 0.05535 0.67834 0.0
H1711 H 0.69469 0.0375 0.7071 0.0
H1712 H 0.67906 0.09344 0.66773 0.0
H1713 H 0.65526 0.11674 0.67116 0.0
C1714 C 0.10342 0.3326 0.28626 0.0
C1715 C 0.10962 0.35682 0.27455 0.0
C1716 C 0.07407 0.35279 0.24182 0.0
C1717 C 0.06883 0.32786 0.25238 0.0
N1718 N 0.08001 0.29235 0.28189 0.0
N1719 N 0.10377 0.38858 0.23885 0.0
C1720 C 0.08395 0.31726 0.27386 0.0
C1721 C 0.0958 0.3665 0.2516 0.0
N1722 N 0.11579 0.32458 0.30957 0.0
N1723 N 0.0577 0.36374 0.22316 0.0
H1724 H 0.11912 0.39965 0.24589 0.0
H1725 H 0.09645 0.39499 0.22013 0.0
H1726 H 0.04174 0.35423 0.21513 0.0
H1727 H 0.05869 0.38294 0.21713 0.0
H1728 H 0.11035 0.3085 0.32093 0.0
H1729 H 0.13064 0.33501 0.31868 0.0
H1730 H 0.09198 0.28251 0.29542 0.0
H1731 H 0.06568 0.28076 0.27344 0.0
C1732 C 0.3281 0.92652 0.71696 0.0
C1733 C 0.33324 0.93425 0.74443 0.0
C1734 C 0.36349 0.89847 0.75012 0.0
C1735 C 0.35997 0.89204 0.72195 0.0
N1736 N 0.34035 0.89999 0.67785 0.0
N1737 N 0.35637 0.92909 0.7871 0.0
C1738 C 0.34255 0.90601 0.70518 0.0
C1739 C 0.35097 0.92052 0.76107 0.0
N1740 N 0.30922 0.93868 0.70235 0.0
N1741 N 0.37867 0.8833 0.76643 0.0
H1742 H 0.34665 0.94433 0.79642 0.0
H1743 H 0.37135 0.92212 0.79912 0.0
H1744 H 0.3892 0.86774 0.75892 0.0
H1745 H 0.37975 0.885 0.78774 0.0
H1746 H 0.30262 0.93253 0.68323 0.0
H1747 H 0.29881 0.9542 0.71016 0.0
H1748 H 0.33026 0.91104 0.66365 0.0
H1749 H 0.34979 0.8844 0.66888 0.0
C1750 C 0.89922 0.66834 0.29059 0.0
C1751 C 0.89178 0.64482 0.27808 0.0
C1752 C 0.9258 0.64932 0.24364 0.0
C1753 C 0.93228 0.67361 0.25509 0.0
N1754 N 0.92325 0.70824 0.28661 0.0
N1755 N 0.89446 0.61507 0.24003 0.0
C1756 C 0.91841 0.68373 0.27777 0.0
C1757 C 0.90402 0.63597 0.25377 0.0
N1758 N 0.88844 0.67554 0.31508 0.0
N1759 N 0.94109 0.63854 0.22384 0.0
H1760 H 0.87871 0.60451 0.24699 0.0
H1761 H 0.90072 0.60944 0.22058 0.0
H1762 H 0.95717 0.64771 0.21567 0.0
H1763 H 0.93911 0.61963 0.21704 0.0
H1764 H 0.89495 0.69096 0.32684 0.0
H1765 H 0.87394 0.66498 0.32466 0.0
H1766 H 0.91212 0.71777 0.3012 0.0
H1767 H 0.93735 0.71987 0.2778 0.0
C1768 C 0.68282 0.91571 0.27765 0.0
C1769 C 0.67179 0.92981 0.25561 0.0
C1770 C 0.63409 0.90154 0.25571 0.0
C1771 C 0.64441 0.88841 0.27885 0.0
N1772 N 0.6772 0.8834 0.31338 0.0
N1773 N 0.63677 0.93773 0.22424 0.0
C1774 C 0.66845 0.89557 0.29023 0.0
C1775 C 0.64741 0.92307 0.24471 0.0
N1776 N 0.70718 0.92142 0.28617 0.0
N1777 N 0.61167 0.89313 0.24408 0.0
H1778 H 0.6465 0.9527 0.21447 0.0
H1779 H 0.61786 0.93606 0.21764 0.0
H1780 H 0.60049 0.87844 0.25246 0.0
H1781 H 0.60459 0.89965 0.22531 0.0
H1782 H 0.71752 0.91042 0.30021 0.0
H1783 H 0.71788 0.93652 0.27789 0.0
H1784 H 0.69316 0.88929 0.32458 0.0
H1785 H 0.66761 0.86795 0.32246 0.0
C1786 C 0.90572 0.34066 0.70472 0.0
C1787 C 0.89137 0.35718 0.72219 0.0
C1788 C 0.91883 0.346 0.76141 0.0
C1789 C 0.93303 0.32927 0.74402 0.0
N1790 N 0.93838 0.30744 0.70068 0.0
N1791 N 0.88134 0.37307 0.76762 0.0
C1792 C 0.92592 0.32557 0.71611 0.0
C1793 C 0.89701 0.35901 0.75073 0.0
N1794 N 0.90035 0.33996 0.67715 0.0
N1795 N 0.92678 0.35006 0.78793 0.0
H1796 H 0.86589 0.3839 0.76044 0.0
H1797 H 0.88248 0.37282 0.78901 0.0
H1798 H 0.94186 0.33992 0.79698 0.0
H1799 H 0.91946 0.36438 0.80067 0.0
H1800 H 0.91171 0.33064 0.66264 0.0
H1801 H 0.88498 0.34989 0.6684 0.0
H1802 H 0.93271 0.30187 0.68102 0.0
H1803 H 0.95363 0.29654 0.70828 0.0
C1804 C 0.32556 0.11522 0.2676 0.0
C1805 C 0.34353 0.10962 0.2887 0.0
C1806 C 0.32269 0.06796 0.29604 0.0
C1807 C 0.30912 0.07144 0.27101 0.0
N1808 N 0.28304 0.10514 0.25183 0.0
N1809 N 0.35777 0.08173 0.32541 0.0
C1810 C 0.30616 0.09702 0.26156 0.0
C1811 C 0.34139 0.08645 0.30402 0.0
N1812 N 0.32704 0.13767 0.25309 0.0
N1813 N 0.31612 0.048 0.31288 0.0
H1814 H 0.37109 0.09524 0.33236 0.0
H1815 H 0.35903 0.064 0.3353 0.0
H1816 H 0.30096 0.03568 0.30794 0.0
H1817 H 0.32363 0.04535 0.33254 0.0
H1818 H 0.31562 0.14124 0.23586 0.0
H1819 H 0.34077 0.1518 0.25708 0.0
H1820 H 0.27939 0.12421 0.2464 0.0
H1821 H 0.2666 0.09393 0.25437 0.0
C1822 C 0.10454 0.67105 0.7112 0.0
C1823 C 0.11131 0.64676 0.72237 0.0
C1824 C 0.07704 0.65032 0.75663 0.0
C1825 C 0.07128 0.67534 0.74665 0.0
N1826 N 0.08162 0.71134 0.71744 0.0
N1827 N 0.10767 0.61533 0.75874 0.0
C1828 C 0.08566 0.68626 0.72477 0.0
C1829 C 0.09865 0.63702 0.74603 0.0
N1830 N 0.11565 0.67919 0.68723 0.0
N1831 N 0.06122 0.63881 0.77545 0.0
H1832 H 0.12334 0.60485 0.75147 0.0
H1833 H 0.10106 0.60894 0.77779 0.0
H1834 H 0.04518 0.64786 0.78384 0.0
H1835 H 0.0627 0.61952 0.78106 0.0
H1836 H 0.10961 0.69535 0.67636 0.0
H1837 H 0.1299 0.66872 0.67709 0.0
H1838 H 0.09318 0.72131 0.70359 0.0
H1839 H 0.06782 0.72291 0.72689 0.0
C1840 C 0.19025 0.51177 0.51041 0.0
C1841 C 0.20976 0.50355 0.52881 0.0
C1842 C 0.22716 0.47521 0.49307 0.0
C1843 C 0.20971 0.48587 0.47376 0.0
N1844 N 0.17784 0.51807 0.46287 0.0
N1845 N 0.24985 0.48124 0.53605 0.0
C1846 C 0.19209 0.50521 0.48208 0.0
C1847 C 0.22909 0.48629 0.51972 0.0
N1848 N 0.16954 0.52513 0.5201 0.0
N1849 N 0.24134 0.45401 0.48627 0.0
H1850 H 0.25237 0.48948 0.55545 0.0
H1851 H 0.26576 0.47088 0.52927 0.0
H1852 H 0.24005 0.44498 0.46713 0.0
H1853 H 0.25242 0.44391 0.50048 0.0
H1854 H 0.15353 0.5293 0.50806 0.0
H1855 H 0.1672 0.52984 0.54084 0.0
H1856 H 0.16671 0.53414 0.46756 0.0
H1857 H 0.17902 0.5143 0.44181 0.0
C1858 C 0.49871 0.76324 0.48416 0.0
C1859 C 0.50879 0.78616 0.47254 0.0
C1860 C 0.50035 0.80946 0.51551 0.0
C1861 C 0.49217 0.78608 0.52777 0.0
N1862 N 0.48661 0.74006 0.52553 0.0
N1863 N 0.52253 0.83021 0.4776 0.0
C1864 C 0.49219 0.76276 0.51257 0.0
C1865 C 0.5105 0.80908 0.48833 0.0
N1866 N 0.49469 0.74218 0.4678 0.0
N1867 N 0.49784 0.83208 0.52967 0.0
H1868 H 0.5299 0.83074 0.45764 0.0
H1869 H 0.52695 0.84657 0.48904 0.0
H1870 H 0.49097 0.83302 0.54983 0.0
H1871 H 0.50074 0.85012 0.52087 0.0
H1872 H 0.4848 0.72586 0.47425 0.0
H1873 H 0.49951 0.74172 0.44696 0.0
H1874 H 0.48911 0.72208 0.51648 0.0
H1875 H 0.48123 0.73902 0.5462 0.0
C1876 C 0.77152 0.48772 0.48046 0.0
C1877 C 0.79087 0.50494 0.47132 0.0
C1878 C 0.80759 0.50793 0.51835 0.0
C1879 C 0.79009 0.48854 0.52678 0.0
N1880 N 0.75905 0.45602 0.51441 0.0
N1881 N 0.83065 0.52721 0.48033 0.0
C1882 C 0.77309 0.47725 0.5074 0.0
C1883 C 0.80991 0.51385 0.48991 0.0
N1884 N 0.75111 0.48209 0.46383 0.0
N1885 N 0.82129 0.52142 0.53753 0.0
H1886 H 0.83336 0.53145 0.45953 0.0
H1887 H 0.84637 0.53188 0.49261 0.0
H1888 H 0.81971 0.51814 0.55866 0.0
H1889 H 0.83231 0.53752 0.53267 0.0
H1890 H 0.73518 0.47174 0.47056 0.0
H1891 H 0.74887 0.48987 0.44418 0.0
H1892 H 0.74835 0.4455 0.50021 0.0
H1893 H 0.7601 0.4474 0.53377 0.0
C1894 C 0.50843 0.22626 0.48043 0.0
C1895 C 0.49026 0.20779 0.47134 0.0
C1896 C 0.49073 0.18747 0.51687 0.0
C1897 C 0.5067 0.20759 0.52669 0.0
N1898 N 0.52709 0.24872 0.51926 0.0
N1899 N 0.46069 0.17343 0.4819 0.0
C1900 C 0.51456 0.22773 0.50887 0.0
C1901 C 0.48045 0.18906 0.48983 0.0
N1902 N 0.52046 0.24186 0.46179 0.0
N1903 N 0.48599 0.1665 0.5331 0.0
H1904 H 0.45245 0.17417 0.46233 0.0
H1905 H 0.45094 0.16132 0.49542 0.0
H1906 H 0.4933 0.1646 0.553 0.0
H1907 H 0.47674 0.15001 0.52601 0.0
H1908 H 0.5358 0.25379 0.46687 0.0
H1909 H 0.51675 0.24113 0.44069 0.0
H1910 H 0.53079 0.26523 0.50777 0.0
H1911 H 0.53175 0.25065 0.54005 0.0
C1912 C 0.73669 0.00264 0.01414 0.0
C1913 C 0.71306 0.00743 0.0277 0.0
C1914 C 0.68927 0.99372 0.98666 0.0
C1915 C 0.71291 0.99048 0.97257 0.0
N1916 N 0.75894 0.99474 0.97105 0.0
N1917 N 0.66695 0.01079 0.02659 0.0
C1918 C 0.7366 0.99577 0.9858 0.0
C1919 C 0.68934 0.00386 0.01388 0.0
N1920 N 0.75917 0.00398 0.02863 0.0
N1921 N 0.66685 0.98658 0.97416 0.0
H1922 H 0.66624 0.01776 0.04673 0.0
H1923 H 0.64925 0.01136 0.01671 0.0
H1924 H 0.666 0.97987 0.95393 0.0
H1925 H 0.64927 0.98568 0.98426 0.0
H1926 H 0.77679 0.99793 0.02091 0.0
H1927 H 0.76003 0.00949 0.04927 0.0
H1928 H 0.77652 0.0012 0.9785 0.0
H1929 H 0.7597 0.98903 0.95047 0.0
C1930 C 0.00076 0.25967 0.98484 0.0
C1931 C 0.0075 0.28362 0.97281 0.0
C1932 C 0.99602 0.30584 0.01557 0.0
C1933 C 0.99189 0.28165 0.02841 0.0
N1934 N 0.99504 0.23533 0.0269 0.0
N1935 N 0.01603 0.32901 0.978 0.0
C1936 C 0.9956 0.25847 0.01351 0.0
C1937 C 0.0064 0.30661 0.98853 0.0
N1938 N 0.99842 0.23822 0.96871 0.0
N1939 N 0.98917 0.32804 0.02879 0.0
H1940 H 0.02399 0.33032 0.95833 0.0
H1941 H 0.01825 0.34572 0.98961 0.0
H1942 H 0.98123 0.32829 0.0485 0.0
H1943 H 0.9892 0.34601 0.01928 0.0
H1944 H 0.99093 0.22088 0.97587 0.0
H1945 H 0.00167 0.23836 0.94751 0.0
H1946 H 0.00028 0.21803 0.01763 0.0
H1947 H 0.99168 0.23366 0.048 0.0
C1948 C 0.31434 0.0052 0.98764 0.0
C1949 C 0.29087 0.00681 0.97292 0.0
C1950 C 0.26691 0.99387 0.01408 0.0
C1951 C 0.29047 0.99081 0.02834 0.0
N1952 N 0.3367 0.9903 0.02852 0.0
N1953 N 0.24521 -0.00021 0.97032 0.0
C1954 C 0.31425 0.99558 0.01506 0.0
C1955 C 0.26724 0.00029 0.98564 0.0
N1956 N 0.33659 0.01337 0.97551 0.0
N1957 N 0.24422 0.99134 0.02801 0.0
H1958 H 0.24456 0.00519 0.94964 0.0
H1959 H 0.22789 0.99237 0.97743 0.0
H1960 H 0.24321 0.98607 0.04871 0.0
H1961 H 0.22645 0.99615 0.01973 0.0
H1962 H 0.35387 0.01547 0.98599 0.0
H1963 H 0.33751 0.01966 0.95513 0.0
H1964 H 0.35465 0.99065 0.01914 0.0
H1965 H 0.33735 0.9838 0.04884 0.0
C1966 C 0.99696 0.74188 0.98766 0.0
C1967 C 0.99112 0.71811 0.97469 0.0
C1968 C 0.00381 0.69481 0.01638 0.0
C1969 C 0.00735 0.71866 0.03011 0.0
N1970 N 0.00274 0.76487 0.03061 0.0
N1971 N 0.98442 0.67227 0.97798 0.0
C1972 C 0.00262 0.74222 0.01626 0.0
C1973 C 0.99324 0.69463 0.98942 0.0
N1974 N 0.99798 0.764 0.97244 0.0
N1975 N 0.0114 0.6724 0.02871 0.0
H1976 H 0.97644 0.67137 0.9583 0.0
H1977 H 0.98292 0.65506 0.98886 0.0
H1978 H 0.01938 0.67173 0.04839 0.0
H1979 H 0.01187 0.65476 0.01853 0.0
H1980 H 0.00483 0.78139 0.98016 0.0
H1981 H 0.99414 0.76452 0.95137 0.0
H1982 H 0.99676 0.78231 0.02224 0.0
H1983 H 0.00658 0.76588 0.05167 0.0
loop_
_geom_bond_atom_site_label_1
_geom_bond_atom_site_label_2
_geom_bond_distance
_geom_bond_site_symmetry_2
_ccdc_geom_bond_type
Li0 N17 1.990 . S
Li0 O60 1.956 . S
Li0 O61 1.970 . S
Li0 O62 1.961 . S
Li1 N25 1.990 . S
Li1 O60 1.970 . S
Li1 O61 1.956 . S
Li1 O63 1.961 . S
Li2 N47 1.990 . S
Li2 O60 1.961 . S
Li2 O62 1.956 . S
Li2 O63 1.970 . S
Li3 N53 1.990 . S
Li3 O61 1.961 . S
Li3 O62 1.970 . S
Li3 O63 1.956 . S
C4 C6 1.348 . S
C4 C7 1.356 . S
C4 O60 1.325 . S
N5 C8 1.314 . S
N5 C9 1.279 . S
C6 C4 1.348 . S
C6 C8 1.353 . S
C6 H64 0.929 . S
C7 C4 1.356 . S
C7 C9 1.358 . S
C7 H65 0.930 . S
C8 N5 1.314 . S
C8 C6 1.353 . S
C8 H66 0.930 . S
C9 N5 1.279 . S
C9 C7 1.358 . S
C9 H67 0.930 . S
C10 C13 1.348 . S
C10 C14 1.356 . S
C10 O61 1.325 . S
C11 N12 1.279 . S
C11 C14 1.358 . S
C11 H68 0.930 . S
N12 C11 1.279 . S
N12 C15 1.314 . S
C13 C10 1.348 . S
C13 C15 1.353 . S
C13 H69 0.929 . S
C14 C10 1.356 . S
C14 C11 1.358 . S
C14 H70 0.930 . S
C15 N12 1.314 . S
C15 C13 1.353 . S
C15 H71 0.930 . S
C16 N17 1.314 . S
C16 C21 1.353 . S
C16 H22 0.930 . S
N17 Li0 1.990 . S
N17 C16 1.314 . S
N17 C19 1.279 . S
C18 C19 1.358 . S
C18 C20 1.356 . S
C18 H72 0.930 . S
C19 N17 1.279 . S
C19 C18 1.358 . S
C19 H23 0.930 . S
C20 C18 1.356 . S
C20 C21 1.348 . S
C21 C16 1.353 . S
C21 C20 1.348 . S
C21 H73 0.929 . S
H22 C16 0.930 . S
H23 C19 0.930 . S
C24 N25 1.314 . S
C24 C26 1.353 . S
C24 H30 0.930 . S
N25 Li1 1.990 . S
N25 C24 1.314 . S
N25 C28 1.279 . S
C26 C24 1.353 . S
C26 C29 1.348 . S
C26 H74 0.929 . S
C27 C28 1.358 . S
C27 C29 1.356 . S
C27 H75 0.930 . S
C28 N25 1.279 . S
C28 C27 1.358 . S
C28 H31 0.930 . S
C29 C26 1.348 . S
C29 C27 1.356 . S
H30 C24 0.930 . S
H31 C28 0.930 . S
C32 C34 1.348 . S
C32 C35 1.356 . S
C32 O62 1.325 . S
N33 C36 1.314 . S
N33 C37 1.279 . S
C34 C32 1.348 . S
C34 C36 1.353 . S
C34 H76 0.929 . S
C35 C32 1.356 . S
C35 C37 1.358 . S
C35 H77 0.930 . S
C36 N33 1.314 . S
C36 C34 1.353 . S
C36 H78 0.930 . S
C37 N33 1.279 . S
C37 C35 1.358 . S
C37 H79 0.930 . S
C38 C39 1.348 . S
C38 C40 1.356 . S
C38 O63 1.325 . S
C39 C38 1.348 . S
C39 C41 1.353 . S
C39 H80 0.929 . S
C40 C38 1.356 . S
C40 C42 1.358 . S
C40 H81 0.930 . S
C41 C39 1.353 . S
C41 N43 1.314 . S
C41 H82 0.930 . S
C42 C40 1.358 . S
C42 N43 1.279 . S
C42 H83 0.930 . S
N43 C41 1.314 . S
N43 C42 1.279 . S
C44 C46 1.353 . S
C44 N47 1.314 . S
C44 H50 0.930 . S
C45 N47 1.279 . S
C45 C48 1.358 . S
C45 H51 0.930 . S
C46 C44 1.353 . S
C46 C49 1.348 . S
C46 H84 0.929 . S
N47 Li2 1.990 . S
N47 C44 1.314 . S
N47 C45 1.279 . S
C48 C45 1.358 . S
C48 C49 1.356 . S
C48 H85 0.930 . S
C49 C46 1.348 . S
C49 C48 1.356 . S
H50 C44 0.930 . S
H51 C45 0.930 . S
C52 N53 1.314 . S
C52 C54 1.353 . S
C52 H58 0.930 . S
N53 Li3 1.990 . S
N53 C52 1.314 . S
N53 C56 1.279 . S
C54 C52 1.353 . S
C54 C57 1.348 . S
C54 H86 0.929 . S
C55 C56 1.358 . S
C55 C57 1.356 . S
C55 H87 0.930 . S
C56 N53 1.279 . S
C56 C55 1.358 . S
C56 H59 0.930 . S
C57 C54 1.348 . S
C57 C55 1.356 . S
H58 C52 0.930 . S
H59 C56 0.930 . S
O60 Li0 1.956 . S
O60 Li1 1.970 . S
O60 Li2 1.961 . S
O60 C4 1.325 . S
O61 Li0 1.970 . S
O61 Li1 1.956 . S
O61 Li3 1.961 . S
O61 C10 1.325 . S
O62 Li0 1.961 . S
O62 Li2 1.956 . S
O62 Li3 1.970 . S
O62 C32 1.325 . S
O63 Li1 1.961 . S
O63 Li2 1.970 . S
O63 Li3 1.956 . S
O63 C38 1.325 . S
H64 C6 0.929 . S
H65 C7 0.930 . S
H66 C8 0.930 . S
H67 C9 0.930 . S
H68 C11 0.930 . S
H69 C13 0.929 . S
H70 C14 0.930 . S
H71 C15 0.930 . S
H72 C18 0.930 . S
H73 C21 0.929 . S
H74 C26 0.929 . S
H75 C27 0.930 . S
H76 C34 0.929 . S
H77 C35 0.930 . S
H78 C36 0.930 . S
H79 C37 0.930 . S
H80 C39 0.929 . S
H81 C40 0.930 . S
H82 C41 0.930 . S
H83 C42 0.930 . S
H84 C46 0.929 . S
H85 C48 0.930 . S
H86 C54 0.929 . S
H87 C55 0.930 . S
Li88 N105 1.990 . S
Li88 O148 1.956 . S
Li88 O149 1.970 . S
Li88 O150 1.961 . S
Li89 N113 1.990 . S
Li89 O148 1.970 . S
Li89 O149 1.956 . S
Li89 O151 1.961 . S
Li90 N135 1.990 . S
Li90 O148 1.961 . S
Li90 O150 1.956 . S
Li90 O151 1.970 . S
Li91 N141 1.990 . S
Li91 O149 1.961 . S
Li91 O150 1.970 . S
Li91 O151 1.956 . S
C92 C94 1.348 . S
C92 C95 1.356 . S
C92 O148 1.325 . S
N93 C96 1.314 . S
N93 C97 1.279 . S
C94 C92 1.348 . S
C94 C96 1.353 . S
C94 H152 0.929 . S
C95 C92 1.356 . S
C95 C97 1.358 . S
C95 H153 0.930 . S
C96 N93 1.314 . S
C96 C94 1.353 . S
C96 H154 0.930 . S
C97 N93 1.279 . S
C97 C95 1.358 . S
C97 H155 0.930 . S
C98 C101 1.348 . S
C98 C102 1.356 . S
C98 O149 1.325 . S
C99 N100 1.279 . S
C99 C102 1.358 . S
C99 H156 0.930 . S
N100 C99 1.279 . S
N100 C103 1.314 . S
C101 C98 1.348 . S
C101 C103 1.353 . S
C101 H157 0.929 . S
C102 C98 1.356 . S
C102 C99 1.358 . S
C102 H158 0.930 . S
C103 N100 1.314 . S
C103 C101 1.353 . S
C103 H159 0.930 . S
C104 N105 1.314 . S
C104 C109 1.353 . S
C104 H110 0.930 . S
N105 Li88 1.990 . S
N105 C104 1.314 . S
N105 C107 1.279 . S
C106 C107 1.358 . S
C106 C108 1.356 . S
C106 H160 0.930 . S
C107 N105 1.279 . S
C107 C106 1.358 . S
C107 H111 0.930 . S
C108 C106 1.356 . S
C108 C109 1.348 . S
C109 C104 1.353 . S
C109 C108 1.348 . S
C109 H161 0.929 . S
H110 C104 0.930 . S
H111 C107 0.930 . S
C112 N113 1.314 . S
C112 C114 1.353 . S
C112 H118 0.930 . S
N113 Li89 1.990 . S
N113 C112 1.314 . S
N113 C116 1.279 . S
C114 C112 1.353 . S
C114 C117 1.348 . S
C114 H162 0.929 . S
C115 C116 1.358 . S
C115 C117 1.356 . S
C115 H163 0.930 . S
C116 N113 1.279 . S
C116 C115 1.358 . S
C116 H119 0.930 . S
C117 C114 1.348 . S
C117 C115 1.356 . S
H118 C112 0.930 . S
H119 C116 0.930 . S
C120 C122 1.348 . S
C120 C123 1.356 . S
C120 O150 1.325 . S
N121 C124 1.314 . S
N121 C125 1.279 . S
C122 C120 1.348 . S
C122 C124 1.353 . S
C122 H164 0.929 . S
C123 C120 1.356 . S
C123 C125 1.358 . S
C123 H165 0.930 . S
C124 N121 1.314 . S
C124 C122 1.353 . S
C124 H166 0.930 . S
C125 N121 1.279 . S
C125 C123 1.358 . S
C125 H167 0.930 . S
C126 C127 1.348 . S
C126 C128 1.356 . S
C126 O151 1.325 . S
C127 C126 1.348 . S
C127 C129 1.353 . S
C127 H168 0.929 . S
C128 C126 1.356 . S
C128 C130 1.358 . S
C128 H169 0.930 . S
C129 C127 1.353 . S
C129 N131 1.314 . S
C129 H170 0.930 . S
C130 C128 1.358 . S
C130 N131 1.279 . S
C130 H171 0.930 . S
N131 C129 1.314 . S
N131 C130 1.279 . S
C132 C134 1.353 . S
C132 N135 1.314 . S
C132 H138 0.930 . S
C133 N135 1.279 . S
C133 C136 1.358 . S
C133 H139 0.930 . S
C134 C132 1.353 . S
C134 C137 1.348 . S
C134 H172 0.929 . S
N135 Li90 1.990 . S
N135 C132 1.314 . S
N135 C133 1.279 . S
C136 C133 1.358 . S
C136 C137 1.356 . S
C136 H173 0.930 . S
C137 C134 1.348 . S
C137 C136 1.356 . S
H138 C132 0.930 . S
H139 C133 0.930 . S
C140 N141 1.314 . S
C140 C142 1.353 . S
C140 H146 0.930 . S
N141 Li91 1.990 . S
N141 C140 1.314 . S
N141 C144 1.279 . S
C142 C140 1.353 . S
C142 C145 1.348 . S
C142 H174 0.929 . S
C143 C144 1.358 . S
C143 C145 1.356 . S
C143 H175 0.930 . S
C144 N141 1.279 . S
C144 C143 1.358 . S
C144 H147 0.930 . S
C145 C142 1.348 . S
C145 C143 1.356 . S
H146 C140 0.930 . S
H147 C144 0.930 . S
O148 Li88 1.956 . S
O148 Li89 1.970 . S
O148 Li90 1.961 . S
O148 C92 1.325 . S
O149 Li88 1.970 . S
O149 Li89 1.956 . S
O149 Li91 1.961 . S
O149 C98 1.325 . S
O150 Li88 1.961 . S
O150 Li90 1.956 . S
O150 Li91 1.970 . S
O150 C120 1.325 . S
O151 Li89 1.961 . S
O151 Li90 1.970 . S
O151 Li91 1.956 . S
O151 C126 1.325 . S
H152 C94 0.929 . S
H153 C95 0.930 . S
H154 C96 0.930 . S
H155 C97 0.930 . S
H156 C99 0.930 . S
H157 C101 0.929 . S
H158 C102 0.930 . S
H159 C103 0.930 . S
H160 C106 0.930 . S
H161 C109 0.929 . S
H162 C114 0.929 . S
H163 C115 0.930 . S
H164 C122 0.929 . S
H165 C123 0.930 . S
H166 C124 0.930 . S
H167 C125 0.930 . S
H168 C127 0.929 . S
H169 C128 0.930 . S
H170 C129 0.930 . S
H171 C130 0.930 . S
H172 C134 0.929 . S
H173 C136 0.930 . S
H174 C142 0.929 . S
H175 C143 0.930 . S
Li176 N193 1.990 . S
Li176 O236 1.956 . S
Li176 O237 1.970 . S
Li176 O238 1.961 . S
Li177 N201 1.990 . S
Li177 O236 1.970 . S
Li177 O237 1.956 . S
Li177 O239 1.961 . S
Li178 N223 1.990 . S
Li178 O236 1.961 . S
Li178 O238 1.956 . S
Li178 O239 1.970 . S
Li179 N229 1.990 . S
Li179 O237 1.961 . S
Li179 O238 1.970 . S
Li179 O239 1.956 . S
C180 C182 1.348 . S
C180 C183 1.356 . S
C180 O236 1.325 . S
N181 C184 1.314 . S
N181 C185 1.279 . S
C182 C180 1.348 . S
C182 C184 1.353 . S
C182 H240 0.929 . S
C183 C180 1.356 . S
C183 C185 1.358 . S
C183 H241 0.930 . S
C184 N181 1.314 . S
C184 C182 1.353 . S
C184 H242 0.930 . S
C185 N181 1.279 . S
C185 C183 1.358 . S
C185 H243 0.930 . S
C186 C189 1.348 . S
C186 C190 1.356 . S
C186 O237 1.325 . S
C187 N188 1.279 . S
C187 C190 1.358 . S
C187 H244 0.930 . S
N188 C187 1.279 . S
N188 C191 1.314 . S
C189 C186 1.348 . S
C189 C191 1.353 . S
C189 H245 0.929 . S
C190 C186 1.356 . S
C190 C187 1.358 . S
C190 H246 0.930 . S
C191 N188 1.314 . S
C191 C189 1.353 . S
C191 H247 0.930 . S
C192 N193 1.314 . S
C192 C197 1.353 . S
C192 H198 0.930 . S
N193 Li176 1.990 . S
N193 C192 1.314 . S
N193 C195 1.279 . S
C194 C195 1.358 . S
C194 C196 1.356 . S
C194 H248 0.930 . S
C195 N193 1.279 . S
C195 C194 1.358 . S
C195 H199 0.930 . S
C196 C194 1.356 . S
C196 C197 1.348 . S
C197 C192 1.353 . S
C197 C196 1.348 . S
C197 H249 0.929 . S
H198 C192 0.930 . S
H199 C195 0.930 . S
C200 N201 1.314 . S
C200 C202 1.353 . S
C200 H206 0.930 . S
N201 Li177 1.990 . S
N201 C200 1.314 . S
N201 C204 1.279 . S
C202 C200 1.353 . S
C202 C205 1.348 . S
C202 H250 0.929 . S
C203 C204 1.358 . S
C203 C205 1.356 . S
C203 H251 0.930 . S
C204 N201 1.279 . S
C204 C203 1.358 . S
C204 H207 0.930 . S
C205 C202 1.348 . S
C205 C203 1.356 . S
H206 C200 0.930 . S
H207 C204 0.930 . S
C208 C210 1.348 . S
C208 C211 1.356 . S
C208 O238 1.325 . S
N209 C212 1.314 . S
N209 C213 1.279 . S
C210 C208 1.348 . S
C210 C212 1.353 . S
C210 H252 0.929 . S
C211 C208 1.356 . S
C211 C213 1.358 . S
C211 H253 0.930 . S
C212 N209 1.314 . S
C212 C210 1.353 . S
C212 H254 0.930 . S
C213 N209 1.279 . S
C213 C211 1.358 . S
C213 H255 0.930 . S
C214 C215 1.348 . S
C214 C216 1.356 . S
C214 O239 1.325 . S
C215 C214 1.348 . S
C215 C217 1.353 . S
C215 H256 0.929 . S
C216 C214 1.356 . S
C216 C218 1.358 . S
C216 H257 0.930 . S
C217 C215 1.353 . S
C217 N219 1.314 . S
C217 H258 0.930 . S
C218 C216 1.358 . S
C218 N219 1.279 . S
C218 H259 0.930 . S
N219 C217 1.314 . S
N219 C218 1.279 . S
C220 C222 1.353 . S
C220 N223 1.314 . S
C220 H226 0.930 . S
C221 N223 1.279 . S
C221 C224 1.358 . S
C221 H227 0.930 . S
C222 C220 1.353 . S
C222 C225 1.348 . S
C222 H260 0.929 . S
N223 Li178 1.990 . S
N223 C220 1.314 . S
N223 C221 1.279 . S
C224 C221 1.358 . S
C224 C225 1.356 . S
C224 H261 0.930 . S
C225 C222 1.348 . S
C225 C224 1.356 . S
H226 C220 0.930 . S
H227 C221 0.930 . S
C228 N229 1.314 . S
C228 C230 1.353 . S
C228 H234 0.930 . S
N229 Li179 1.990 . S
N229 C228 1.314 . S
N229 C232 1.279 . S
C230 C228 1.353 . S
C230 C233 1.348 . S
C230 H262 0.929 . S
C231 C232 1.358 . S
C231 C233 1.356 . S
C231 H263 0.930 . S
C232 N229 1.279 . S
C232 C231 1.358 . S
C232 H235 0.930 . S
C233 C230 1.348 . S
C233 C231 1.356 . S
H234 C228 0.930 . S
H235 C232 0.930 . S
O236 Li176 1.956 . S
O236 Li177 1.970 . S
O236 Li178 1.961 . S
O236 C180 1.325 . S
O237 Li176 1.970 . S
O237 Li177 1.956 . S
O237 Li179 1.961 . S
O237 C186 1.325 . S
O238 Li176 1.961 . S
O238 Li178 1.956 . S
O238 Li179 1.970 . S
O238 C208 1.325 . S
O239 Li177 1.961 . S
O239 Li178 1.970 . S
O239 Li179 1.956 . S
O239 C214 1.325 . S
H240 C182 0.929 . S
H241 C183 0.930 . S
H242 C184 0.930 . S
H243 C185 0.930 . S
H244 C187 0.930 . S
H245 C189 0.929 . S
H246 C190 0.930 . S
H247 C191 0.930 . S
H248 C194 0.930 . S
H249 C197 0.929 . S
H250 C202 0.929 . S
H251 C203 0.930 . S
H252 C210 0.929 . S
H253 C211 0.930 . S
H254 C212 0.930 . S
H255 C213 0.930 . S
H256 C215 0.929 . S
H257 C216 0.930 . S
H258 C217 0.930 . S
H259 C218 0.930 . S
H260 C222 0.929 . S
H261 C224 0.930 . S
H262 C230 0.929 . S
H263 C231 0.930 . S
Li264 N281 1.990 . S
Li264 O324 1.956 . S
Li264 O325 1.970 . S
Li264 O326 1.961 . S
Li265 N289 1.990 . S
Li265 O324 1.970 . S
Li265 O325 1.956 . S
Li265 O327 1.961 . S
Li266 N311 1.990 . S
Li266 O324 1.961 . S
Li266 O326 1.956 . S
Li266 O327 1.970 . S
Li267 N317 1.990 . S
Li267 O325 1.961 . S
Li267 O326 1.970 . S
Li267 O327 1.956 . S
C268 C270 1.348 . S
C268 C271 1.356 . S
C268 O324 1.325 . S
N269 C272 1.314 . S
N269 C273 1.279 . S
C270 C268 1.348 . S
C270 C272 1.353 . S
C270 H328 0.929 . S
C271 C268 1.356 . S
C271 C273 1.358 . S
C271 H329 0.930 . S
C272 N269 1.314 . S
C272 C270 1.353 . S
C272 H330 0.930 . S
C273 N269 1.279 . S
C273 C271 1.358 . S
C273 H331 0.930 . S
C274 C277 1.348 . S
C274 C278 1.356 . S
C274 O325 1.325 . S
C275 N276 1.279 . S
C275 C278 1.358 . S
C275 H332 0.930 . S
N276 C275 1.279 . S
N276 C279 1.314 . S
C277 C274 1.348 . S
C277 C279 1.353 . S
C277 H333 0.929 . S
C278 C274 1.356 . S
C278 C275 1.358 . S
C278 H334 0.930 . S
C279 N276 1.314 . S
C279 C277 1.353 . S
C279 H335 0.930 . S
C280 N281 1.314 . S
C280 C285 1.353 . S
C280 H286 0.930 . S
N281 Li264 1.990 . S
N281 C280 1.314 . S
N281 C283 1.279 . S
C282 C283 1.358 . S
C282 C284 1.356 . S
C282 H336 0.930 . S
C283 N281 1.279 . S
C283 C282 1.358 . S
C283 H287 0.930 . S
C284 C282 1.356 . S
C284 C285 1.348 . S
C285 C280 1.353 . S
C285 C284 1.348 . S
C285 H337 0.929 . S
H286 C280 0.930 . S
H287 C283 0.930 . S
C288 N289 1.314 . S
C288 C290 1.353 . S
C288 H294 0.930 . S
N289 Li265 1.990 . S
N289 C288 1.314 . S
N289 C292 1.279 . S
C290 C288 1.353 . S
C290 C293 1.348 . S
C290 H338 0.929 . S
C291 C292 1.358 . S
C291 C293 1.356 . S
C291 H339 0.930 . S
C292 N289 1.279 . S
C292 C291 1.358 . S
C292 H295 0.930 . S
C293 C290 1.348 . S
C293 C291 1.356 . S
H294 C288 0.930 . S
H295 C292 0.930 . S
C296 C298 1.348 . S
C296 C299 1.356 . S
C296 O326 1.325 . S
N297 C300 1.314 . S
N297 C301 1.279 . S
C298 C296 1.348 . S
C298 C300 1.353 . S
C298 H340 0.929 . S
C299 C296 1.356 . S
C299 C301 1.358 . S
C299 H341 0.930 . S
C300 N297 1.314 . S
C300 C298 1.353 . S
C300 H342 0.930 . S
C301 N297 1.279 . S
C301 C299 1.358 . S
C301 H343 0.930 . S
C302 C303 1.348 . S
C302 C304 1.356 . S
C302 O327 1.325 . S
C303 C302 1.348 . S
C303 C305 1.353 . S
C303 H344 0.929 . S
C304 C302 1.356 . S
C304 C306 1.358 . S
C304 H345 0.930 . S
C305 C303 1.353 . S
C305 N307 1.314 . S
C305 H346 0.930 . S
C306 C304 1.358 . S
C306 N307 1.279 . S
C306 H347 0.930 . S
N307 C305 1.314 . S
N307 C306 1.279 . S
C308 C310 1.353 . S
C308 N311 1.314 . S
C308 H314 0.930 . S
C309 N311 1.279 . S
C309 C312 1.358 . S
C309 H315 0.930 . S
C310 C308 1.353 . S
C310 C313 1.348 . S
C310 H348 0.929 . S
N311 Li266 1.990 . S
N311 C308 1.314 . S
N311 C309 1.279 . S
C312 C309 1.358 . S
C312 C313 1.356 . S
C312 H349 0.930 . S
C313 C310 1.348 . S
C313 C312 1.356 . S
H314 C308 0.930 . S
H315 C309 0.930 . S
C316 N317 1.314 . S
C316 C318 1.353 . S
C316 H322 0.930 . S
N317 Li267 1.990 . S
N317 C316 1.314 . S
N317 C320 1.279 . S
C318 C316 1.353 . S
C318 C321 1.348 . S
C318 H350 0.929 . S
C319 C320 1.358 . S
C319 C321 1.356 . S
C319 H351 0.930 . S
C320 N317 1.279 . S
C320 C319 1.358 . S
C320 H323 0.930 . S
C321 C318 1.348 . S
C321 C319 1.356 . S
H322 C316 0.930 . S
H323 C320 0.930 . S
O324 Li264 1.956 . S
O324 Li265 1.970 . S
O324 Li266 1.961 . S
O324 C268 1.325 . S
O325 Li264 1.970 . S
O325 Li265 1.956 . S
O325 Li267 1.961 . S
O325 C274 1.325 . S
O326 Li264 1.961 . S
O326 Li266 1.956 . S
O326 Li267 1.970 . S
O326 C296 1.325 . S
O327 Li265 1.961 . S
O327 Li266 1.970 . S
O327 Li267 1.956 . S
O327 C302 1.325 . S
H328 C270 0.929 . S
H329 C271 0.930 . S
H330 C272 0.930 . S
H331 C273 0.930 . S
H332 C275 0.930 . S
H333 C277 0.929 . S
H334 C278 0.930 . S
H335 C279 0.930 . S
H336 C282 0.930 . S
H337 C285 0.929 . S
H338 C290 0.929 . S
H339 C291 0.930 . S
H340 C298 0.929 . S
H341 C299 0.930 . S
H342 C300 0.930 . S
H343 C301 0.930 . S
H344 C303 0.929 . S
H345 C304 0.930 . S
H346 C305 0.930 . S
H347 C306 0.930 . S
H348 C310 0.929 . S
H349 C312 0.930 . S
H350 C318 0.929 . S
H351 C319 0.930 . S
Li352 N369 1.990 . S
Li352 O412 1.956 . S
Li352 O413 1.970 . S
Li352 O414 1.961 . S
Li353 N377 1.990 . S
Li353 O412 1.970 . S
Li353 O413 1.956 . S
Li353 O415 1.961 . S
Li354 N399 1.990 . S
Li354 O412 1.961 . S
Li354 O414 1.956 . S
Li354 O415 1.970 . S
Li355 N405 1.990 . S
Li355 O413 1.961 . S
Li355 O414 1.970 . S
Li355 O415 1.956 . S
C356 C358 1.348 . S
C356 C359 1.356 . S
C356 O412 1.325 . S
N357 C360 1.314 . S
N357 C361 1.279 . S
C358 C356 1.348 . S
C358 C360 1.353 . S
C358 H416 0.929 . S
C359 C356 1.356 . S
C359 C361 1.358 . S
C359 H417 0.930 . S
C360 N357 1.314 . S
C360 C358 1.353 . S
C360 H418 0.930 . S
C361 N357 1.279 . S
C361 C359 1.358 . S
C361 H419 0.930 . S
C362 C365 1.348 . S
C362 C366 1.356 . S
C362 O413 1.325 . S
C363 N364 1.279 . S
C363 C366 1.358 . S
C363 H420 0.930 . S
N364 C363 1.279 . S
N364 C367 1.314 . S
C365 C362 1.348 . S
C365 C367 1.353 . S
C365 H421 0.929 . S
C366 C362 1.356 . S
C366 C363 1.358 . S
C366 H422 0.930 . S
C367 N364 1.314 . S
C367 C365 1.353 . S
C367 H423 0.930 . S
C368 N369 1.314 . S
C368 C373 1.353 . S
C368 H374 0.930 . S
N369 Li352 1.990 . S
N369 C368 1.314 . S
N369 C371 1.279 . S
C370 C371 1.358 . S
C370 C372 1.356 . S
C370 H424 0.930 . S
C371 N369 1.279 . S
C371 C370 1.358 . S
C371 H375 0.930 . S
C372 C370 1.356 . S
C372 C373 1.348 . S
C373 C368 1.353 . S
C373 C372 1.348 . S
C373 H425 0.929 . S
H374 C368 0.930 . S
H375 C371 0.930 . S
C376 N377 1.314 . S
C376 C378 1.353 . S
C376 H382 0.930 . S
N377 Li353 1.990 . S
N377 C376 1.314 . S
N377 C380 1.279 . S
C378 C376 1.353 . S
C378 C381 1.348 . S
C378 H426 0.929 . S
C379 C380 1.358 . S
C379 C381 1.356 . S
C379 H427 0.930 . S
C380 N377 1.279 . S
C380 C379 1.358 . S
C380 H383 0.930 . S
C381 C378 1.348 . S
C381 C379 1.356 . S
H382 C376 0.930 . S
H383 C380 0.930 . S
C384 C386 1.348 . S
C384 C387 1.356 . S
C384 O414 1.325 . S
N385 C388 1.314 . S
N385 C389 1.279 . S
C386 C384 1.348 . S
C386 C388 1.353 . S
C386 H428 0.929 . S
C387 C384 1.356 . S
C387 C389 1.358 . S
C387 H429 0.930 . S
C388 N385 1.314 . S
C388 C386 1.353 . S
C388 H430 0.930 . S
C389 N385 1.279 . S
C389 C387 1.358 . S
C389 H431 0.930 . S
C390 C391 1.348 . S
C390 C392 1.356 . S
C390 O415 1.325 . S
C391 C390 1.348 . S
C391 C393 1.353 . S
C391 H432 0.929 . S
C392 C390 1.356 . S
C392 C394 1.358 . S
C392 H433 0.930 . S
C393 C391 1.353 . S
C393 N395 1.314 . S
C393 H434 0.930 . S
C394 C392 1.358 . S
C394 N395 1.279 . S
C394 H435 0.930 . S
N395 C393 1.314 . S
N395 C394 1.279 . S
C396 C398 1.353 . S
C396 N399 1.314 . S
C396 H402 0.930 . S
C397 N399 1.279 . S
C397 C400 1.358 . S
C397 H403 0.930 . S
C398 C396 1.353 . S
C398 C401 1.348 . S
C398 H436 0.929 . S
N399 Li354 1.990 . S
N399 C396 1.314 . S
N399 C397 1.279 . S
C400 C397 1.358 . S
C400 C401 1.356 . S
C400 H437 0.930 . S
C401 C398 1.348 . S
C401 C400 1.356 . S
H402 C396 0.930 . S
H403 C397 0.930 . S
C404 N405 1.314 . S
C404 C406 1.353 . S
C404 H410 0.930 . S
N405 Li355 1.990 . S
N405 C404 1.314 . S
N405 C408 1.279 . S
C406 C404 1.353 . S
C406 C409 1.348 . S
C406 H438 0.929 . S
C407 C408 1.358 . S
C407 C409 1.356 . S
C407 H439 0.930 . S
C408 N405 1.279 . S
C408 C407 1.358 . S
C408 H411 0.930 . S
C409 C406 1.348 . S
C409 C407 1.356 . S
H410 C404 0.930 . S
H411 C408 0.930 . S
O412 Li352 1.956 . S
O412 Li353 1.970 . S
O412 Li354 1.961 . S
O412 C356 1.325 . S
O413 Li352 1.970 . S
O413 Li353 1.956 . S
O413 Li355 1.961 . S
O413 C362 1.325 . S
O414 Li352 1.961 . S
O414 Li354 1.956 . S
O414 Li355 1.970 . S
O414 C384 1.325 . S
O415 Li353 1.961 . S
O415 Li354 1.970 . S
O415 Li355 1.956 . S
O415 C390 1.325 . S
H416 C358 0.929 . S
H417 C359 0.930 . S
H418 C360 0.930 . S
H419 C361 0.930 . S
H420 C363 0.930 . S
H421 C365 0.929 . S
H422 C366 0.930 . S
H423 C367 0.930 . S
H424 C370 0.930 . S
H425 C373 0.929 . S
H426 C378 0.929 . S
H427 C379 0.930 . S
H428 C386 0.929 . S
H429 C387 0.930 . S
H430 C388 0.930 . S
H431 C389 0.930 . S
H432 C391 0.929 . S
H433 C392 0.930 . S
H434 C393 0.930 . S
H435 C394 0.930 . S
H436 C398 0.929 . S
H437 C400 0.930 . S
H438 C406 0.929 . S
H439 C407 0.930 . S
Li440 N457 1.990 . S
Li440 O500 1.956 . S
Li440 O501 1.970 . S
Li440 O502 1.961 . S
Li441 N465 1.990 . S
Li441 O500 1.970 . S
Li441 O501 1.956 . S
Li441 O503 1.961 . S
Li442 N487 1.990 . S
Li442 O500 1.961 . S
Li442 O502 1.956 . S
Li442 O503 1.970 . S
Li443 N493 1.990 . S
Li443 O501 1.961 . S
Li443 O502 1.970 . S
Li443 O503 1.956 . S
C444 C446 1.348 . S
C444 C447 1.356 . S
C444 O500 1.325 . S
N445 C448 1.314 . S
N445 C449 1.279 . S
C446 C444 1.348 . S
C446 C448 1.353 . S
C446 H504 0.929 . S
C447 C444 1.356 . S
C447 C449 1.358 . S
C447 H505 0.930 . S
C448 N445 1.314 . S
C448 C446 1.353 . S
C448 H506 0.930 . S
C449 N445 1.279 . S
C449 C447 1.358 . S
C449 H507 0.930 . S
C450 C453 1.348 . S
C450 C454 1.356 . S
C450 O501 1.325 . S
C451 N452 1.279 . S
C451 C454 1.358 . S
C451 H508 0.930 . S
N452 C451 1.279 . S
N452 C455 1.314 . S
C453 C450 1.348 . S
C453 C455 1.353 . S
C453 H509 0.929 . S
C454 C450 1.356 . S
C454 C451 1.358 . S
C454 H510 0.930 . S
C455 N452 1.314 . S
C455 C453 1.353 . S
C455 H511 0.930 . S
C456 N457 1.314 . S
C456 C461 1.353 . S
C456 H462 0.930 . S
N457 Li440 1.990 . S
N457 C456 1.314 . S
N457 C459 1.279 . S
C458 C459 1.358 . S
C458 C460 1.356 . S
C458 H512 0.930 . S
C459 N457 1.279 . S
C459 C458 1.358 . S
C459 H463 0.930 . S
C460 C458 1.356 . S
C460 C461 1.348 . S
C461 C456 1.353 . S
C461 C460 1.348 . S
C461 H513 0.929 . S
H462 C456 0.930 . S
H463 C459 0.930 . S
C464 N465 1.314 . S
C464 C466 1.353 . S
C464 H470 0.930 . S
N465 Li441 1.990 . S
N465 C464 1.314 . S
N465 C468 1.279 . S
C466 C464 1.353 . S
C466 C469 1.348 . S
C466 H514 0.929 . S
C467 C468 1.358 . S
C467 C469 1.356 . S
C467 H515 0.930 . S
C468 N465 1.279 . S
C468 C467 1.358 . S
C468 H471 0.930 . S
C469 C466 1.348 . S
C469 C467 1.356 . S
H470 C464 0.930 . S
H471 C468 0.930 . S
C472 C474 1.348 . S
C472 C475 1.356 . S
C472 O502 1.325 . S
N473 C476 1.314 . S
N473 C477 1.279 . S
C474 C472 1.348 . S
C474 C476 1.353 . S
C474 H516 0.929 . S
C475 C472 1.356 . S
C475 C477 1.358 . S
C475 H517 0.930 . S
C476 N473 1.314 . S
C476 C474 1.353 . S
C476 H518 0.930 . S
C477 N473 1.279 . S
C477 C475 1.358 . S
C477 H519 0.930 . S
C478 C479 1.348 . S
C478 C480 1.356 . S
C478 O503 1.325 . S
C479 C478 1.348 . S
C479 C481 1.353 . S
C479 H520 0.929 . S
C480 C478 1.356 . S
C480 C482 1.358 . S
C480 H521 0.930 . S
C481 C479 1.353 . S
C481 N483 1.314 . S
C481 H522 0.930 . S
C482 C480 1.358 . S
C482 N483 1.279 . S
C482 H523 0.930 . S
N483 C481 1.314 . S
N483 C482 1.279 . S
C484 C486 1.353 . S
C484 N487 1.314 . S
C484 H490 0.930 . S
C485 N487 1.279 . S
C485 C488 1.358 . S
C485 H491 0.930 . S
C486 C484 1.353 . S
C486 C489 1.348 . S
C486 H524 0.929 . S
N487 Li442 1.990 . S
N487 C484 1.314 . S
N487 C485 1.279 . S
C488 C485 1.358 . S
C488 C489 1.356 . S
C488 H525 0.930 . S
C489 C486 1.348 . S
C489 C488 1.356 . S
H490 C484 0.930 . S
H491 C485 0.930 . S
C492 N493 1.314 . S
C492 C494 1.353 . S
C492 H498 0.930 . S
N493 Li443 1.990 . S
N493 C492 1.314 . S
N493 C496 1.279 . S
C494 C492 1.353 . S
C494 C497 1.348 . S
C494 H526 0.929 . S
C495 C496 1.358 . S
C495 C497 1.356 . S
C495 H527 0.930 . S
C496 N493 1.279 . S
C496 C495 1.358 . S
C496 H499 0.930 . S
C497 C494 1.348 . S
C497 C495 1.356 . S
H498 C492 0.930 . S
H499 C496 0.930 . S
O500 Li440 1.956 . S
O500 Li441 1.970 . S
O500 Li442 1.961 . S
O500 C444 1.325 . S
O501 Li440 1.970 . S
O501 Li441 1.956 . S
O501 Li443 1.961 . S
O501 C450 1.325 . S
O502 Li440 1.961 . S
O502 Li442 1.956 . S
O502 Li443 1.970 . S
O502 C472 1.325 . S
O503 Li441 1.961 . S
O503 Li442 1.970 . S
O503 Li443 1.956 . S
O503 C478 1.325 . S
H504 C446 0.929 . S
H505 C447 0.930 . S
H506 C448 0.930 . S
H507 C449 0.930 . S
H508 C451 0.930 . S
H509 C453 0.929 . S
H510 C454 0.930 . S
H511 C455 0.930 . S
H512 C458 0.930 . S
H513 C461 0.929 . S
H514 C466 0.929 . S
H515 C467 0.930 . S
H516 C474 0.929 . S
H517 C475 0.930 . S
H518 C476 0.930 . S
H519 C477 0.930 . S
H520 C479 0.929 . S
H521 C480 0.930 . S
H522 C481 0.930 . S
H523 C482 0.930 . S
H524 C486 0.929 . S
H525 C488 0.930 . S
H526 C494 0.929 . S
H527 C495 0.930 . S
Li528 N545 1.990 . S
Li528 O588 1.956 . S
Li528 O589 1.970 . S
Li528 O590 1.961 . S
Li529 N553 1.990 . S
Li529 O588 1.970 . S
Li529 O589 1.956 . S
Li529 O591 1.961 . S
Li530 N575 1.990 . S
Li530 O588 1.961 . S
Li530 O590 1.956 . S
Li530 O591 1.970 . S
Li531 N581 1.990 . S
Li531 O589 1.961 . S
Li531 O590 1.970 . S
Li531 O591 1.956 . S
C532 C534 1.348 . S
C532 C535 1.356 . S
C532 O588 1.325 . S
N533 C536 1.314 . S
N533 C537 1.279 . S
C534 C532 1.348 . S
C534 C536 1.353 . S
C534 H592 0.929 . S
C535 C532 1.356 . S
C535 C537 1.358 . S
C535 H593 0.930 . S
C536 N533 1.314 . S
C536 C534 1.353 . S
C536 H594 0.930 . S
C537 N533 1.279 . S
C537 C535 1.358 . S
C537 H595 0.930 . S
C538 C541 1.348 . S
C538 C542 1.356 . S
C538 O589 1.325 . S
C539 N540 1.279 . S
C539 C542 1.358 . S
C539 H596 0.930 . S
N540 C539 1.279 . S
N540 C543 1.314 . S
C541 C538 1.348 . S
C541 C543 1.353 . S
C541 H597 0.929 . S
C542 C538 1.356 . S
C542 C539 1.358 . S
C542 H598 0.930 . S
C543 N540 1.314 . S
C543 C541 1.353 . S
C543 H599 0.930 . S
C544 N545 1.314 . S
C544 C549 1.353 . S
C544 H550 0.930 . S
N545 Li528 1.990 . S
N545 C544 1.314 . S
N545 C547 1.279 . S
C546 C547 1.358 . S
C546 C548 1.356 . S
C546 H600 0.930 . S
C547 N545 1.279 . S
C547 C546 1.358 . S
C547 H551 0.930 . S
C548 C546 1.356 . S
C548 C549 1.348 . S
C549 C544 1.353 . S
C549 C548 1.348 . S
C549 H601 0.929 . S
H550 C544 0.930 . S
H551 C547 0.930 . S
C552 N553 1.314 . S
C552 C554 1.353 . S
C552 H558 0.930 . S
N553 Li529 1.990 . S
N553 C552 1.314 . S
N553 C556 1.279 . S
C554 C552 1.353 . S
C554 C557 1.348 . S
C554 H602 0.929 . S
C555 C556 1.358 . S
C555 C557 1.356 . S
C555 H603 0.930 . S
C556 N553 1.279 . S
C556 C555 1.358 . S
C556 H559 0.930 . S
C557 C554 1.348 . S
C557 C555 1.356 . S
H558 C552 0.930 . S
H559 C556 0.930 . S
C560 C562 1.348 . S
C560 C563 1.356 . S
C560 O590 1.325 . S
N561 C564 1.314 . S
N561 C565 1.279 . S
C562 C560 1.348 . S
C562 C564 1.353 . S
C562 H604 0.929 . S
C563 C560 1.356 . S
C563 C565 1.358 . S
C563 H605 0.930 . S
C564 N561 1.314 . S
C564 C562 1.353 . S
C564 H606 0.930 . S
C565 N561 1.279 . S
C565 C563 1.358 . S
C565 H607 0.930 . S
C566 C567 1.348 . S
C566 C568 1.356 . S
C566 O591 1.325 . S
C567 C566 1.348 . S
C567 C569 1.353 . S
C567 H608 0.929 . S
C568 C566 1.356 . S
C568 C570 1.358 . S
C568 H609 0.930 . S
C569 C567 1.353 . S
C569 N571 1.314 . S
C569 H610 0.930 . S
C570 C568 1.358 . S
C570 N571 1.279 . S
C570 H611 0.930 . S
N571 C569 1.314 . S
N571 C570 1.279 . S
C572 C574 1.353 . S
C572 N575 1.314 . S
C572 H578 0.930 . S
C573 N575 1.279 . S
C573 C576 1.358 . S
C573 H579 0.930 . S
C574 C572 1.353 . S
C574 C577 1.348 . S
C574 H612 0.929 . S
N575 Li530 1.990 . S
N575 C572 1.314 . S
N575 C573 1.279 . S
C576 C573 1.358 . S
C576 C577 1.356 . S
C576 H613 0.930 . S
C577 C574 1.348 . S
C577 C576 1.356 . S
H578 C572 0.930 . S
H579 C573 0.930 . S
C580 N581 1.314 . S
C580 C582 1.353 . S
C580 H586 0.930 . S
N581 Li531 1.990 . S
N581 C580 1.314 . S
N581 C584 1.279 . S
C582 C580 1.353 . S
C582 C585 1.348 . S
C582 H614 0.929 . S
C583 C584 1.358 . S
C583 C585 1.356 . S
C583 H615 0.930 . S
C584 N581 1.279 . S
C584 C583 1.358 . S
C584 H587 0.930 . S
C585 C582 1.348 . S
C585 C583 1.356 . S
H586 C580 0.930 . S
H587 C584 0.930 . S
O588 Li528 1.956 . S
O588 Li529 1.970 . S
O588 Li530 1.961 . S
O588 C532 1.325 . S
O589 Li528 1.970 . S
O589 Li529 1.956 . S
O589 Li531 1.961 . S
O589 C538 1.325 . S
O590 Li528 1.961 . S
O590 Li530 1.956 . S
O590 Li531 1.970 . S
O590 C560 1.325 . S
O591 Li529 1.961 . S
O591 Li530 1.970 . S
O591 Li531 1.956 . S
O591 C566 1.325 . S
H592 C534 0.929 . S
H593 C535 0.930 . S
H594 C536 0.930 . S
H595 C537 0.930 . S
H596 C539 0.930 . S
H597 C541 0.929 . S
H598 C542 0.930 . S
H599 C543 0.930 . S
H600 C546 0.930 . S
H601 C549 0.929 . S
H602 C554 0.929 . S
H603 C555 0.930 . S
H604 C562 0.929 . S
H605 C563 0.930 . S
H606 C564 0.930 . S
H607 C565 0.930 . S
H608 C567 0.929 . S
H609 C568 0.930 . S
H610 C569 0.930 . S
H611 C570 0.930 . S
H612 C574 0.929 . S
H613 C576 0.930 . S
H614 C582 0.929 . S
H615 C583 0.930 . S
Li616 N633 1.990 . S
Li616 O676 1.956 . S
Li616 O677 1.970 . S
Li616 O678 1.961 . S
Li617 N641 1.990 . S
Li617 O676 1.970 . S
Li617 O677 1.956 . S
Li617 O679 1.961 . S
Li618 N663 1.990 . S
Li618 O676 1.961 . S
Li618 O678 1.956 . S
Li618 O679 1.970 . S
Li619 N669 1.990 . S
Li619 O677 1.961 . S
Li619 O678 1.970 . S
Li619 O679 1.956 . S
C620 C622 1.348 . S
C620 C623 1.356 . S
C620 O676 1.325 . S
N621 C624 1.314 . S
N621 C625 1.279 . S
C622 C620 1.348 . S
C622 C624 1.353 . S
C622 H680 0.929 . S
C623 C620 1.356 . S
C623 C625 1.358 . S
C623 H681 0.930 . S
C624 N621 1.314 . S
C624 C622 1.353 . S
C624 H682 0.930 . S
C625 N621 1.279 . S
C625 C623 1.358 . S
C625 H683 0.930 . S
C626 C629 1.348 . S
C626 C630 1.356 . S
C626 O677 1.325 . S
C627 N628 1.279 . S
C627 C630 1.358 . S
C627 H684 0.930 . S
N628 C627 1.279 . S
N628 C631 1.314 . S
C629 C626 1.348 . S
C629 C631 1.353 . S
C629 H685 0.929 . S
C630 C626 1.356 . S
C630 C627 1.358 . S
C630 H686 0.930 . S
C631 N628 1.314 . S
C631 C629 1.353 . S
C631 H687 0.930 . S
C632 N633 1.314 . S
C632 C637 1.353 . S
C632 H638 0.930 . S
N633 Li616 1.990 . S
N633 C632 1.314 . S
N633 C635 1.279 . S
C634 C635 1.358 . S
C634 C636 1.356 . S
C634 H688 0.930 . S
C635 N633 1.279 . S
C635 C634 1.358 . S
C635 H639 0.930 . S
C636 C634 1.356 . S
C636 C637 1.348 . S
C637 C632 1.353 . S
C637 C636 1.348 . S
C637 H689 0.929 . S
H638 C632 0.930 . S
H639 C635 0.930 . S
C640 N641 1.314 . S
C640 C642 1.353 . S
C640 H646 0.930 . S
N641 Li617 1.990 . S
N641 C640 1.314 . S
N641 C644 1.279 . S
C642 C640 1.353 . S
C642 C645 1.348 . S
C642 H690 0.929 . S
C643 C644 1.358 . S
C643 C645 1.356 . S
C643 H691 0.930 . S
C644 N641 1.279 . S
C644 C643 1.358 . S
C644 H647 0.930 . S
C645 C642 1.348 . S
C645 C643 1.356 . S
H646 C640 0.930 . S
H647 C644 0.930 . S
C648 C650 1.348 . S
C648 C651 1.356 . S
C648 O678 1.325 . S
N649 C652 1.314 . S
N649 C653 1.279 . S
C650 C648 1.348 . S
C650 C652 1.353 . S
C650 H692 0.929 . S
C651 C648 1.356 . S
C651 C653 1.358 . S
C651 H693 0.930 . S
C652 N649 1.314 . S
C652 C650 1.353 . S
C652 H694 0.930 . S
C653 N649 1.279 . S
C653 C651 1.358 . S
C653 H695 0.930 . S
C654 C655 1.348 . S
C654 C656 1.356 . S
C654 O679 1.325 . S
C655 C654 1.348 . S
C655 C657 1.353 . S
C655 H696 0.929 . S
C656 C654 1.356 . S
C656 C658 1.358 . S
C656 H697 0.930 . S
C657 C655 1.353 . S
C657 N659 1.314 . S
C657 H698 0.930 . S
C658 C656 1.358 . S
C658 N659 1.279 . S
C658 H699 0.930 . S
N659 C657 1.314 . S
N659 C658 1.279 . S
C660 C662 1.353 . S
C660 N663 1.314 . S
C660 H666 0.930 . S
C661 N663 1.279 . S
C661 C664 1.358 . S
C661 H667 0.930 . S
C662 C660 1.353 . S
C662 C665 1.348 . S
C662 H700 0.929 . S
N663 Li618 1.990 . S
N663 C660 1.314 . S
N663 C661 1.279 . S
C664 C661 1.358 . S
C664 C665 1.356 . S
C664 H701 0.930 . S
C665 C662 1.348 . S
C665 C664 1.356 . S
H666 C660 0.930 . S
H667 C661 0.930 . S
C668 N669 1.314 . S
C668 C670 1.353 . S
C668 H674 0.930 . S
N669 Li619 1.990 . S
N669 C668 1.314 . S
N669 C672 1.279 . S
C670 C668 1.353 . S
C670 C673 1.348 . S
C670 H702 0.929 . S
C671 C672 1.358 . S
C671 C673 1.356 . S
C671 H703 0.930 . S
C672 N669 1.279 . S
C672 C671 1.358 . S
C672 H675 0.930 . S
C673 C670 1.348 . S
C673 C671 1.356 . S
H674 C668 0.930 . S
H675 C672 0.930 . S
O676 Li616 1.956 . S
O676 Li617 1.970 . S
O676 Li618 1.961 . S
O676 C620 1.325 . S
O677 Li616 1.970 . S
O677 Li617 1.956 . S
O677 Li619 1.961 . S
O677 C626 1.325 . S
O678 Li616 1.961 . S
O678 Li618 1.956 . S
O678 Li619 1.970 . S
O678 C648 1.325 . S
O679 Li617 1.961 . S
O679 Li618 1.970 . S
O679 Li619 1.956 . S
O679 C654 1.325 . S
H680 C622 0.929 . S
H681 C623 0.930 . S
H682 C624 0.930 . S
H683 C625 0.930 . S
H684 C627 0.930 . S
H685 C629 0.929 . S
H686 C630 0.930 . S
H687 C631 0.930 . S
H688 C634 0.930 . S
H689 C637 0.929 . S
H690 C642 0.929 . S
H691 C643 0.930 . S
H692 C650 0.929 . S
H693 C651 0.930 . S
H694 C652 0.930 . S
H695 C653 0.930 . S
H696 C655 0.929 . S
H697 C656 0.930 . S
H698 C657 0.930 . S
H699 C658 0.930 . S
H700 C662 0.929 . S
H701 C664 0.930 . S
H702 C670 0.929 . S
H703 C671 0.930 . S
Li704 N721 1.990 1_565 S
Li704 O764 1.956 . S
Li704 O765 1.970 . S
Li704 O766 1.961 . S
Li705 N729 1.990 . S
Li705 O764 1.970 . S
Li705 O765 1.956 . S
Li705 O767 1.961 . S
Li706 N751 1.990 . S
Li706 O764 1.961 . S
Li706 O766 1.956 . S
Li706 O767 1.970 . S
Li707 N757 1.990 . S
Li707 O765 1.961 . S
Li707 O766 1.970 . S
Li707 O767 1.956 . S
C708 C710 1.348 . S
C708 C711 1.356 . S
C708 O764 1.325 . S
N709 C712 1.314 . S
N709 C713 1.277 1_545 S
C710 C708 1.348 . S
C710 C712 1.353 1_565 S
C710 H768 0.929 . S
C711 C708 1.356 . S
C711 C713 1.361 . S
C711 H769 0.930 . S
C712 N709 1.314 . S
C712 C710 1.353 1_545 S
C712 H770 0.930 . S
C713 N709 1.277 1_565 S
C713 C711 1.361 . S
C713 H771 0.930 1_565 S
C714 C717 1.348 . S
C714 C718 1.356 . S
C714 O765 1.325 . S
C715 N716 1.279 . S
C715 C718 1.358 . S
C715 H772 0.930 . S
N716 C715 1.279 . S
N716 C719 1.314 1_565 S
C717 C714 1.348 . S
C717 C719 1.353 1_565 S
C717 H773 0.929 1_565 S
C718 C714 1.356 . S
C718 C715 1.358 . S
C718 H774 0.930 . S
C719 N716 1.314 1_545 S
C719 C717 1.353 1_545 S
C719 H775 0.930 . S
C720 N721 1.314 . S
C720 C725 1.353 . S
C720 H726 0.930 1_545 S
N721 Li704 1.990 1_545 S
N721 C720 1.314 . S
N721 C723 1.279 . S
C722 C723 1.358 . S
C722 C724 1.356 . S
C722 H776 0.930 . S
C723 N721 1.279 . S
C723 C722 1.358 . S
C723 H727 0.930 . S
C724 C722 1.356 . S
C724 C725 1.348 . S
C725 C720 1.353 . S
C725 C724 1.348 . S
C725 H777 0.929 . S
H726 C720 0.930 1_565 S
H727 C723 0.930 . S
C728 N729 1.314 . S
C728 C730 1.353 . S
C728 H734 0.930 . S
N729 Li705 1.990 . S
N729 C728 1.314 . S
N729 C732 1.279 . S
C730 C728 1.353 . S
C730 C733 1.348 . S
C730 H778 0.929 . S
C731 C732 1.358 . S
C731 C733 1.356 . S
C731 H779 0.930 . S
C732 N729 1.279 . S
C732 C731 1.358 . S
C732 H735 0.930 . S
C733 C730 1.348 . S
C733 C731 1.356 . S
H734 C728 0.930 . S
H735 C732 0.930 . S
C736 C738 1.348 . S
C736 C739 1.356 . S
C736 O766 1.325 . S
N737 C740 1.314 . S
N737 C741 1.279 . S
C738 C736 1.348 . S
C738 C740 1.353 . S
C738 H780 0.929 . S
C739 C736 1.356 . S
C739 C741 1.358 . S
C739 H781 0.930 . S
C740 N737 1.314 . S
C740 C738 1.353 . S
C740 H782 0.930 . S
C741 N737 1.279 . S
C741 C739 1.358 . S
C741 H783 0.930 . S
C742 C743 1.348 . S
C742 C744 1.356 . S
C742 O767 1.325 . S
C743 C742 1.348 . S
C743 C745 1.353 . S
C743 H784 0.929 . S
C744 C742 1.356 . S
C744 C746 1.358 . S
C744 H785 0.930 . S
C745 C743 1.353 . S
C745 N747 1.314 . S
C745 H786 0.930 . S
C746 C744 1.358 . S
C746 N747 1.279 . S
C746 H787 0.930 . S
N747 C745 1.314 . S
N747 C746 1.279 . S
C748 C750 1.353 . S
C748 N751 1.314 . S
C748 H754 0.930 . S
C749 N751 1.279 . S
C749 C752 1.358 . S
C749 H755 0.930 . S
C750 C748 1.353 . S
C750 C753 1.348 . S
C750 H788 0.929 . S
N751 Li706 1.990 . S
N751 C748 1.314 . S
N751 C749 1.279 . S
C752 C749 1.358 . S
C752 C753 1.356 . S
C752 H789 0.930 . S
C753 C750 1.348 . S
C753 C752 1.356 . S
H754 C748 0.930 . S
H755 C749 0.930 . S
C756 N757 1.314 . S
C756 C758 1.353 . S
C756 H762 0.930 . S
N757 Li707 1.990 . S
N757 C756 1.314 . S
N757 C760 1.279 . S
C758 C756 1.353 . S
C758 C761 1.348 . S
C758 H790 0.929 . S
C759 C760 1.358 . S
C759 C761 1.356 . S
C759 H791 0.930 . S
C760 N757 1.279 . S
C760 C759 1.358 . S
C760 H763 0.930 . S
C761 C758 1.348 . S
C761 C759 1.356 . S
H762 C756 0.930 . S
H763 C760 0.930 . S
O764 Li704 1.956 . S
O764 Li705 1.970 . S
O764 Li706 1.961 . S
O764 C708 1.325 . S
O765 Li704 1.970 . S
O765 Li705 1.956 . S
O765 Li707 1.961 . S
O765 C714 1.325 . S
O766 Li704 1.961 . S
O766 Li706 1.956 . S
O766 Li707 1.970 . S
O766 C736 1.325 . S
O767 Li705 1.961 . S
O767 Li706 1.970 . S
O767 Li707 1.956 . S
O767 C742 1.325 . S
H768 C710 0.929 . S
H769 C711 0.930 . S
H770 C712 0.930 . S
H771 C713 0.930 1_545 S
H772 C715 0.930 . S
H773 C717 0.929 1_545 S
H774 C718 0.930 . S
H775 C719 0.930 . S
H776 C722 0.930 . S
H777 C725 0.929 . S
H778 C730 0.929 . S
H779 C731 0.930 . S
H780 C738 0.929 . S
H781 C739 0.930 . S
H782 C740 0.930 . S
H783 C741 0.930 . S
H784 C743 0.929 . S
H785 C744 0.930 . S
H786 C745 0.930 . S
H787 C746 0.930 . S
H788 C750 0.929 . S
H789 C752 0.930 . S
H790 C758 0.929 . S
H791 C759 0.930 . S
Li792 N809 1.990 . S
Li792 O852 1.956 . S
Li792 O853 1.970 . S
Li792 O854 1.961 . S
Li793 N817 1.990 1_655 S
Li793 O852 1.970 . S
Li793 O853 1.956 . S
Li793 O855 1.961 . S
Li794 N839 1.990 . S
Li794 O852 1.961 . S
Li794 O854 1.956 . S
Li794 O855 1.970 . S
Li795 N845 1.990 . S
Li795 O853 1.961 . S
Li795 O854 1.970 . S
Li795 O855 1.956 . S
C796 C798 1.348 . S
C796 C799 1.356 . S
C796 O852 1.325 . S
N797 C800 1.314 1_655 S
N797 C801 1.279 . S
C798 C796 1.348 . S
C798 C800 1.353 1_655 S
C798 H856 0.929 . S
C799 C796 1.356 . S
C799 C801 1.358 . S
C799 H857 0.930 . S
C800 N797 1.314 1_455 S
C800 C798 1.353 1_455 S
C800 H858 0.930 . S
C801 N797 1.279 . S
C801 C799 1.358 . S
C801 H859 0.930 . S
C802 C805 1.348 . S
C802 C806 1.356 . S
C802 O853 1.325 . S
C803 N804 1.279 . S
C803 C806 1.358 . S
C803 H860 0.930 . S
N804 C803 1.279 . S
N804 C807 1.314 . S
C805 C802 1.348 . S
C805 C807 1.353 . S
C805 H861 0.929 . S
C806 C802 1.356 . S
C806 C803 1.358 . S
C806 H862 0.930 . S
C807 N804 1.314 . S
C807 C805 1.353 . S
C807 H863 0.930 . S
C808 N809 1.314 . S
C808 C813 1.353 . S
C808 H814 0.930 . S
N809 Li792 1.990 . S
N809 C808 1.314 . S
N809 C811 1.279 . S
C810 C811 1.358 . S
C810 C812 1.356 . S
C810 H864 0.930 . S
C811 N809 1.279 . S
C811 C810 1.358 . S
C811 H815 0.930 . S
C812 C810 1.356 . S
C812 C813 1.348 . S
C813 C808 1.353 . S
C813 C812 1.348 . S
C813 H865 0.929 . S
H814 C808 0.930 . S
H815 C811 0.930 . S
C816 N817 1.314 . S
C816 C818 1.353 . S
C816 H822 0.930 . S
N817 Li793 1.990 1_455 S
N817 C816 1.314 . S
N817 C820 1.279 . S
C818 C816 1.353 . S
C818 C821 1.348 . S
C818 H866 0.929 . S
C819 C820 1.358 . S
C819 C821 1.356 . S
C819 H867 0.930 . S
C820 N817 1.279 . S
C820 C819 1.358 . S
C820 H823 0.930 1_455 S
C821 C818 1.348 . S
C821 C819 1.356 . S
H822 C816 0.930 . S
H823 C820 0.930 1_655 S
C824 C826 1.348 . S
C824 C827 1.356 . S
C824 O854 1.325 . S
N825 C828 1.314 . S
N825 C829 1.279 . S
C826 C824 1.348 . S
C826 C828 1.353 . S
C826 H868 0.929 . S
C827 C824 1.356 . S
C827 C829 1.358 . S
C827 H869 0.930 . S
C828 N825 1.314 . S
C828 C826 1.353 . S
C828 H870 0.930 . S
C829 N825 1.279 . S
C829 C827 1.358 . S
C829 H871 0.930 . S
C830 C831 1.348 . S
C830 C832 1.356 . S
C830 O855 1.325 . S
C831 C830 1.348 . S
C831 C833 1.353 . S
C831 H872 0.929 . S
C832 C830 1.356 . S
C832 C834 1.358 1_655 S
C832 H873 0.930 . S
C833 C831 1.353 . S
C833 N835 1.314 1_655 S
C833 H874 0.930 1_655 S
C834 C832 1.358 1_455 S
C834 N835 1.279 . S
C834 H875 0.930 . S
N835 C833 1.314 1_455 S
N835 C834 1.279 . S
C836 C838 1.353 . S
C836 N839 1.314 . S
C836 H842 0.930 . S
C837 N839 1.279 . S
C837 C840 1.358 . S
C837 H843 0.930 . S
C838 C836 1.353 . S
C838 C841 1.348 . S
C838 H876 0.929 1_655 S
N839 Li794 1.990 . S
N839 C836 1.314 . S
N839 C837 1.279 . S
C840 C837 1.358 . S
C840 C841 1.356 . S
C840 H877 0.930 . S
C841 C838 1.348 . S
C841 C840 1.356 . S
H842 C836 0.930 . S
H843 C837 0.930 . S
C844 N845 1.314 . S
C844 C846 1.353 . S
C844 H850 0.930 . S
N845 Li795 1.990 . S
N845 C844 1.314 . S
N845 C848 1.279 . S
C846 C844 1.353 . S
C846 C849 1.348 . S
C846 H878 0.929 . S
C847 C848 1.358 . S
C847 C849 1.356 . S
C847 H879 0.930 . S
C848 N845 1.279 . S
C848 C847 1.358 . S
C848 H851 0.930 . S
C849 C846 1.348 . S
C849 C847 1.356 . S
H850 C844 0.930 . S
H851 C848 0.930 . S
O852 Li792 1.956 . S
O852 Li793 1.970 . S
O852 Li794 1.961 . S
O852 C796 1.325 . S
O853 Li792 1.970 . S
O853 Li793 1.956 . S
O853 Li795 1.961 . S
O853 C802 1.325 . S
O854 Li792 1.961 . S
O854 Li794 1.956 . S
O854 Li795 1.970 . S
O854 C824 1.325 . S
O855 Li793 1.961 . S
O855 Li794 1.970 . S
O855 Li795 1.956 . S
O855 C830 1.325 . S
H856 C798 0.929 . S
H857 C799 0.930 . S
H858 C800 0.930 . S
H859 C801 0.930 . S
H860 C803 0.930 . S
H861 C805 0.929 . S
H862 C806 0.930 . S
H863 C807 0.930 . S
H864 C810 0.930 . S
H865 C813 0.929 . S
H866 C818 0.929 . S
H867 C819 0.930 . S
H868 C826 0.929 . S
H869 C827 0.930 . S
H870 C828 0.930 . S
H871 C829 0.930 . S
H872 C831 0.929 . S
H873 C832 0.930 . S
H874 C833 0.930 1_455 S
H875 C834 0.930 . S
H876 C838 0.929 1_455 S
H877 C840 0.930 . S
H878 C846 0.929 . S
H879 C847 0.930 . S
Li880 N897 1.990 . S
Li880 O940 1.956 . S
Li880 O941 1.970 . S
Li880 O942 1.961 . S
Li881 N905 1.990 . S
Li881 O940 1.970 . S
Li881 O941 1.956 . S
Li881 O943 1.961 . S
Li882 N927 1.990 1_545 S
Li882 O940 1.961 . S
Li882 O942 1.956 . S
Li882 O943 1.970 . S
Li883 N933 1.990 . S
Li883 O941 1.961 . S
Li883 O942 1.970 . S
Li883 O943 1.956 . S
C884 C886 1.348 . S
C884 C887 1.356 . S
C884 O940 1.325 . S
N885 C888 1.314 . S
N885 C889 1.279 . S
C886 C884 1.348 . S
C886 C888 1.353 . S
C886 H944 0.929 . S
C887 C884 1.356 . S
C887 C889 1.358 . S
C887 H945 0.930 . S
C888 N885 1.314 . S
C888 C886 1.353 . S
C888 H946 0.930 . S
C889 N885 1.279 . S
C889 C887 1.358 . S
C889 H947 0.930 . S
C890 C893 1.348 . S
C890 C894 1.356 . S
C890 O941 1.325 . S
C891 N892 1.279 . S
C891 C894 1.358 . S
C891 H948 0.930 . S
N892 C891 1.279 . S
N892 C895 1.314 . S
C893 C890 1.348 . S
C893 C895 1.353 . S
C893 H949 0.929 . S
C894 C890 1.356 . S
C894 C891 1.358 . S
C894 H950 0.930 . S
C895 N892 1.314 . S
C895 C893 1.353 . S
C895 H951 0.930 . S
C896 N897 1.314 . S
C896 C901 1.353 . S
C896 H902 0.930 . S
N897 Li880 1.990 . S
N897 C896 1.314 . S
N897 C899 1.279 . S
C898 C899 1.358 . S
C898 C900 1.356 . S
C898 H952 0.930 . S
C899 N897 1.279 . S
C899 C898 1.358 . S
C899 H903 0.930 . S
C900 C898 1.356 . S
C900 C901 1.348 . S
C901 C896 1.353 . S
C901 C900 1.348 . S
C901 H953 0.929 . S
H902 C896 0.930 . S
H903 C899 0.930 . S
C904 N905 1.314 . S
C904 C906 1.353 . S
C904 H910 0.930 . S
N905 Li881 1.990 . S
N905 C904 1.314 . S
N905 C908 1.279 . S
C906 C904 1.353 . S
C906 C909 1.348 . S
C906 H954 0.929 . S
C907 C908 1.358 . S
C907 C909 1.356 . S
C907 H955 0.930 . S
C908 N905 1.279 . S
C908 C907 1.358 . S
C908 H911 0.930 . S
C909 C906 1.348 . S
C909 C907 1.356 . S
H910 C904 0.930 . S
H911 C908 0.930 . S
C912 C914 1.348 . S
C912 C915 1.356 . S
C912 O942 1.325 . S
N913 C916 1.314 . S
N913 C917 1.277 1_565 S
C914 C912 1.348 . S
C914 C916 1.353 1_545 S
C914 H956 0.929 . S
C915 C912 1.356 . S
C915 C917 1.361 . S
C915 H957 0.930 . S
C916 N913 1.314 . S
C916 C914 1.353 1_565 S
C916 H958 0.930 . S
C917 N913 1.277 1_545 S
C917 C915 1.361 . S
C917 H959 0.930 1_545 S
C918 C919 1.348 . S
C918 C920 1.356 . S
C918 O943 1.325 . S
C919 C918 1.348 . S
C919 C921 1.353 1_545 S
C919 H960 0.929 1_545 S
C920 C918 1.356 . S
C920 C922 1.358 . S
C920 H961 0.930 . S
C921 C919 1.353 1_565 S
C921 N923 1.314 1_565 S
C921 H962 0.930 . S
C922 C920 1.358 . S
C922 N923 1.279 . S
C922 H963 0.930 . S
N923 C921 1.314 1_545 S
N923 C922 1.279 . S
C924 C926 1.353 . S
C924 N927 1.314 . S
C924 H930 0.930 1_565 S
C925 N927 1.279 . S
C925 C928 1.358 . S
C925 H931 0.930 . S
C926 C924 1.353 . S
C926 C929 1.348 . S
C926 H964 0.929 . S
N927 Li882 1.990 1_565 S
N927 C924 1.314 . S
N927 C925 1.279 . S
C928 C925 1.358 . S
C928 C929 1.356 . S
C928 H965 0.930 . S
C929 C926 1.348 . S
C929 C928 1.356 . S
H930 C924 0.930 1_545 S
H931 C925 0.930 . S
C932 N933 1.314 . S
C932 C934 1.353 . S
C932 H938 0.930 . S
N933 Li883 1.990 . S
N933 C932 1.314 . S
N933 C936 1.279 . S
C934 C932 1.353 . S
C934 C937 1.348 . S
C934 H966 0.929 . S
C935 C936 1.358 . S
C935 C937 1.356 . S
C935 H967 0.930 . S
C936 N933 1.279 . S
C936 C935 1.358 . S
C936 H939 0.930 . S
C937 C934 1.348 . S
C937 C935 1.356 . S
H938 C932 0.930 . S
H939 C936 0.930 . S
O940 Li880 1.956 . S
O940 Li881 1.970 . S
O940 Li882 1.961 . S
O940 C884 1.325 . S
O941 Li880 1.970 . S
O941 Li881 1.956 . S
O941 Li883 1.961 . S
O941 C890 1.325 . S
O942 Li880 1.961 . S
O942 Li882 1.956 . S
O942 Li883 1.970 . S
O942 C912 1.325 . S
O943 Li881 1.961 . S
O943 Li882 1.970 . S
O943 Li883 1.956 . S
O943 C918 1.325 . S
H944 C886 0.929 . S
H945 C887 0.930 . S
H946 C888 0.930 . S
H947 C889 0.930 . S
H948 C891 0.930 . S
H949 C893 0.929 . S
H950 C894 0.930 . S
H951 C895 0.930 . S
H952 C898 0.930 . S
H953 C901 0.929 . S
H954 C906 0.929 . S
H955 C907 0.930 . S
H956 C914 0.929 . S
H957 C915 0.930 . S
H958 C916 0.930 . S
H959 C917 0.930 1_565 S
H960 C919 0.929 1_565 S
H961 C920 0.930 . S
H962 C921 0.930 . S
H963 C922 0.930 . S
H964 C926 0.929 . S
H965 C928 0.930 . S
H966 C934 0.929 . S
H967 C935 0.930 . S
Li968 N985 1.990 1_455 S
Li968 O1028 1.956 . S
Li968 O1029 1.970 . S
Li968 O1030 1.961 . S
Li969 N993 1.990 . S
Li969 O1028 1.970 . S
Li969 O1029 1.956 . S
Li969 O1031 1.961 . S
Li970 N1015 1.990 . S
Li970 O1028 1.961 . S
Li970 O1030 1.956 . S
Li970 O1031 1.970 . S
Li971 N1021 1.990 . S
Li971 O1029 1.961 . S
Li971 O1030 1.970 . S
Li971 O1031 1.956 . S
C972 C974 1.348 . S
C972 C975 1.356 . S
C972 O1028 1.325 . S
N973 C976 1.314 . S
N973 C977 1.279 . S
C974 C972 1.348 . S
C974 C976 1.353 . S
C974 H1032 0.929 . S
C975 C972 1.356 . S
C975 C977 1.358 . S
C975 H1033 0.930 . S
C976 N973 1.314 . S
C976 C974 1.353 . S
C976 H1034 0.930 . S
C977 N973 1.279 . S
C977 C975 1.358 . S
C977 H1035 0.930 . S
C978 C981 1.348 . S
C978 C982 1.356 . S
C978 O1029 1.325 . S
C979 N980 1.279 . S
C979 C982 1.358 . S
C979 H1036 0.930 . S
N980 C979 1.279 . S
N980 C983 1.314 1_455 S
C981 C978 1.348 . S
C981 C983 1.353 1_455 S
C981 H1037 0.929 . S
C982 C978 1.356 . S
C982 C979 1.358 . S
C982 H1038 0.930 . S
C983 N980 1.314 1_655 S
C983 C981 1.353 1_655 S
C983 H1039 0.930 . S
C984 N985 1.314 . S
C984 C989 1.353 . S
C984 H990 0.930 . S
N985 Li968 1.990 1_655 S
N985 C984 1.314 . S
N985 C987 1.279 . S
C986 C987 1.358 . S
C986 C988 1.356 . S
C986 H1040 0.930 . S
C987 N985 1.279 . S
C987 C986 1.358 . S
C987 H991 0.930 1_655 S
C988 C986 1.356 . S
C988 C989 1.348 . S
C989 C984 1.353 . S
C989 C988 1.348 . S
C989 H1041 0.929 . S
H990 C984 0.930 . S
H991 C987 0.930 1_455 S
C992 N993 1.314 . S
C992 C994 1.353 . S
C992 H998 0.930 . S
N993 Li969 1.990 . S
N993 C992 1.314 . S
N993 C996 1.279 . S
C994 C992 1.353 . S
C994 C997 1.348 . S
C994 H1042 0.929 . S
C995 C996 1.358 . S
C995 C997 1.356 . S
C995 H1043 0.930 . S
C996 N993 1.279 . S
C996 C995 1.358 . S
C996 H999 0.930 . S
C997 C994 1.348 . S
C997 C995 1.356 . S
H998 C992 0.930 . S
H999 C996 0.930 . S
C1000 C1002 1.348 . S
C1000 C1003 1.356 . S
C1000 O1030 1.325 . S
N1001 C1004 1.314 1_655 S
N1001 C1005 1.279 . S
C1002 C1000 1.348 . S
C1002 C1004 1.353 . S
C1002 H1044 0.929 . S
C1003 C1000 1.356 . S
C1003 C1005 1.358 1_455 S
C1003 H1045 0.930 . S
C1004 N1001 1.314 1_455 S
C1004 C1002 1.353 . S
C1004 H1046 0.930 1_455 S
C1005 N1001 1.279 . S
C1005 C1003 1.358 1_655 S
C1005 H1047 0.930 . S
C1006 C1007 1.348 . S
C1006 C1008 1.356 . S
C1006 O1031 1.325 . S
C1007 C1006 1.348 . S
C1007 C1009 1.353 . S
C1007 H1048 0.929 . S
C1008 C1006 1.356 . S
C1008 C1010 1.358 . S
C1008 H1049 0.930 . S
C1009 C1007 1.353 . S
C1009 N1011 1.314 . S
C1009 H1050 0.930 . S
C1010 C1008 1.358 . S
C1010 N1011 1.279 . S
C1010 H1051 0.930 . S
N1011 C1009 1.314 . S
N1011 C1010 1.279 . S
C1012 C1014 1.353 . S
C1012 N1015 1.314 . S
C1012 H1018 0.930 . S
C1013 N1015 1.279 . S
C1013 C1016 1.358 . S
C1013 H1019 0.930 . S
C1014 C1012 1.353 . S
C1014 C1017 1.348 . S
C1014 H1052 0.929 . S
N1015 Li970 1.990 . S
N1015 C1012 1.314 . S
N1015 C1013 1.279 . S
C1016 C1013 1.358 . S
C1016 C1017 1.356 . S
C1016 H1053 0.930 . S
C1017 C1014 1.348 . S
C1017 C1016 1.356 . S
H1018 C1012 0.930 . S
H1019 C1013 0.930 . S
C1020 N1021 1.314 . S
C1020 C1022 1.353 . S
C1020 H1026 0.930 . S
N1021 Li971 1.990 . S
N1021 C1020 1.314 . S
N1021 C1024 1.279 . S
C1022 C1020 1.353 . S
C1022 C1025 1.348 . S
C1022 H1054 0.929 1_455 S
C1023 C1024 1.358 . S
C1023 C1025 1.356 . S
C1023 H1055 0.930 . S
C1024 N1021 1.279 . S
C1024 C1023 1.358 . S
C1024 H1027 0.930 . S
C1025 C1022 1.348 . S
C1025 C1023 1.356 . S
H1026 C1020 0.930 . S
H1027 C1024 0.930 . S
O1028 Li968 1.956 . S
O1028 Li969 1.970 . S
O1028 Li970 1.961 . S
O1028 C972 1.325 . S
O1029 Li968 1.970 . S
O1029 Li969 1.956 . S
O1029 Li971 1.961 . S
O1029 C978 1.325 . S
O1030 Li968 1.961 . S
O1030 Li970 1.956 . S
O1030 Li971 1.970 . S
O1030 C1000 1.325 . S
O1031 Li969 1.961 . S
O1031 Li970 1.970 . S
O1031 Li971 1.956 . S
O1031 C1006 1.325 . S
H1032 C974 0.929 . S
H1033 C975 0.930 . S
H1034 C976 0.930 . S
H1035 C977 0.930 . S
H1036 C979 0.930 . S
H1037 C981 0.929 . S
H1038 C982 0.930 . S
H1039 C983 0.930 . S
H1040 C986 0.930 . S
H1041 C989 0.929 . S
H1042 C994 0.929 . S
H1043 C995 0.930 . S
H1044 C1002 0.929 . S
H1045 C1003 0.930 . S
H1046 C1004 0.930 1_655 S
H1047 C1005 0.930 . S
H1048 C1007 0.929 . S
H1049 C1008 0.930 . S
H1050 C1009 0.930 . S
H1051 C1010 0.930 . S
H1052 C1014 0.929 . S
H1053 C1016 0.930 . S
H1054 C1022 0.929 1_655 S
H1055 C1023 0.930 . S
Li1056 N1073 1.990 . S
Li1056 O1116 1.956 . S
Li1056 O1117 1.970 . S
Li1056 O1118 1.961 . S
Li1057 N1081 1.990 . S
Li1057 O1116 1.970 . S
Li1057 O1117 1.956 . S
Li1057 O1119 1.961 . S
Li1058 N1103 1.990 . S
Li1058 O1116 1.961 . S
Li1058 O1118 1.956 . S
Li1058 O1119 1.970 . S
Li1059 N1109 1.990 1_545 S
Li1059 O1117 1.961 . S
Li1059 O1118 1.970 . S
Li1059 O1119 1.956 . S
C1060 C1062 1.348 . S
C1060 C1063 1.356 . S
C1060 O1116 1.325 . S
N1061 C1064 1.314 . S
N1061 C1065 1.279 . S
C1062 C1060 1.348 . S
C1062 C1064 1.353 . S
C1062 H1120 0.929 . S
C1063 C1060 1.356 . S
C1063 C1065 1.358 . S
C1063 H1121 0.930 . S
C1064 N1061 1.314 . S
C1064 C1062 1.353 . S
C1064 H1122 0.930 . S
C1065 N1061 1.279 . S
C1065 C1063 1.358 . S
C1065 H1123 0.930 . S
C1066 C1069 1.348 . S
C1066 C1070 1.356 . S
C1066 O1117 1.325 . S
C1067 N1068 1.279 . S
C1067 C1070 1.358 . S
C1067 H1124 0.930 . S
N1068 C1067 1.279 . S
N1068 C1071 1.314 . S
C1069 C1066 1.348 . S
C1069 C1071 1.353 . S
C1069 H1125 0.929 . S
C1070 C1066 1.356 . S
C1070 C1067 1.358 . S
C1070 H1126 0.930 . S
C1071 N1068 1.314 . S
C1071 C1069 1.353 . S
C1071 H1127 0.930 . S
C1072 N1073 1.314 . S
C1072 C1077 1.353 . S
C1072 H1078 0.930 . S
N1073 Li1056 1.990 . S
N1073 C1072 1.314 . S
N1073 C1075 1.279 . S
C1074 C1075 1.358 . S
C1074 C1076 1.356 . S
C1074 H1128 0.930 . S
C1075 N1073 1.279 . S
C1075 C1074 1.358 . S
C1075 H1079 0.930 . S
C1076 C1074 1.356 . S
C1076 C1077 1.348 . S
C1077 C1072 1.353 . S
C1077 C1076 1.348 . S
C1077 H1129 0.929 . S
H1078 C1072 0.930 . S
H1079 C1075 0.930 . S
C1080 N1081 1.314 . S
C1080 C1082 1.353 . S
C1080 H1086 0.930 . S
N1081 Li1057 1.990 . S
N1081 C1080 1.314 . S
N1081 C1084 1.279 . S
C1082 C1080 1.353 . S
C1082 C1085 1.348 . S
C1082 H1130 0.929 . S
C1083 C1084 1.358 . S
C1083 C1085 1.356 . S
C1083 H1131 0.930 . S
C1084 N1081 1.279 . S
C1084 C1083 1.358 . S
C1084 H1087 0.930 . S
C1085 C1082 1.348 . S
C1085 C1083 1.356 . S
H1086 C1080 0.930 . S
H1087 C1084 0.930 . S
C1088 C1090 1.348 . S
C1088 C1091 1.356 . S
C1088 O1118 1.325 . S
N1089 C1092 1.314 1_545 S
N1089 C1093 1.279 . S
C1090 C1088 1.348 . S
C1090 C1092 1.353 1_545 S
C1090 H1132 0.929 1_545 S
C1091 C1088 1.356 . S
C1091 C1093 1.358 . S
C1091 H1133 0.930 . S
C1092 N1089 1.314 1_565 S
C1092 C1090 1.353 1_565 S
C1092 H1134 0.930 . S
C1093 N1089 1.279 . S
C1093 C1091 1.358 . S
C1093 H1135 0.930 . S
C1094 C1095 1.348 . S
C1094 C1096 1.356 . S
C1094 O1119 1.325 . S
C1095 C1094 1.348 . S
C1095 C1097 1.353 1_545 S
C1095 H1136 0.929 . S
C1096 C1094 1.356 . S
C1096 C1098 1.361 . S
C1096 H1137 0.930 . S
C1097 C1095 1.353 1_565 S
C1097 N1099 1.314 . S
C1097 H1138 0.930 . S
C1098 C1096 1.361 . S
C1098 N1099 1.277 1_545 S
C1098 H1139 0.930 1_545 S
N1099 C1097 1.314 . S
N1099 C1098 1.277 1_565 S
C1100 C1102 1.353 . S
C1100 N1103 1.314 . S
C1100 H1106 0.930 . S
C1101 N1103 1.279 . S
C1101 C1104 1.358 . S
C1101 H1107 0.930 . S
C1102 C1100 1.353 . S
C1102 C1105 1.348 . S
C1102 H1140 0.929 . S
N1103 Li1058 1.990 . S
N1103 C1100 1.314 . S
N1103 C1101 1.279 . S
C1104 C1101 1.358 . S
C1104 C1105 1.356 . S
C1104 H1141 0.930 . S
C1105 C1102 1.348 . S
C1105 C1104 1.356 . S
H1106 C1100 0.930 . S
H1107 C1101 0.930 . S
C1108 N1109 1.314 . S
C1108 C1110 1.353 . S
C1108 H1114 0.930 1_565 S
N1109 Li1059 1.990 1_565 S
N1109 C1108 1.314 . S
N1109 C1112 1.279 . S
C1110 C1108 1.353 . S
C1110 C1113 1.348 . S
C1110 H1142 0.929 . S
C1111 C1112 1.358 . S
C1111 C1113 1.356 . S
C1111 H1143 0.930 . S
C1112 N1109 1.279 . S
C1112 C1111 1.358 . S
C1112 H1115 0.930 . S
C1113 C1110 1.348 . S
C1113 C1111 1.356 . S
H1114 C1108 0.930 1_545 S
H1115 C1112 0.930 . S
O1116 Li1056 1.956 . S
O1116 Li1057 1.970 . S
O1116 Li1058 1.961 . S
O1116 C1060 1.325 . S
O1117 Li1056 1.970 . S
O1117 Li1057 1.956 . S
O1117 Li1059 1.961 . S
O1117 C1066 1.325 . S
O1118 Li1056 1.961 . S
O1118 Li1058 1.956 . S
O1118 Li1059 1.970 . S
O1118 C1088 1.325 . S
O1119 Li1057 1.961 . S
O1119 Li1058 1.970 . S
O1119 Li1059 1.956 . S
O1119 C1094 1.325 . S
H1120 C1062 0.929 . S
H1121 C1063 0.930 . S
H1122 C1064 0.930 . S
H1123 C1065 0.930 . S
H1124 C1067 0.930 . S
H1125 C1069 0.929 . S
H1126 C1070 0.930 . S
H1127 C1071 0.930 . S
H1128 C1074 0.930 . S
H1129 C1077 0.929 . S
H1130 C1082 0.929 . S
H1131 C1083 0.930 . S
H1132 C1090 0.929 1_565 S
H1133 C1091 0.930 . S
H1134 C1092 0.930 . S
H1135 C1093 0.930 . S
H1136 C1095 0.929 . S
H1137 C1096 0.930 . S
H1138 C1097 0.930 . S
H1139 C1098 0.930 1_565 S
H1140 C1102 0.929 . S
H1141 C1104 0.930 . S
H1142 C1110 0.929 . S
H1143 C1111 0.930 . S
Li1144 N1161 1.990 . S
Li1144 O1204 1.956 . S
Li1144 O1205 1.970 . S
Li1144 O1206 1.961 . S
Li1145 N1169 1.990 . S
Li1145 O1204 1.970 . S
Li1145 O1205 1.956 . S
Li1145 O1207 1.961 . S
Li1146 N1191 1.990 . S
Li1146 O1204 1.961 . S
Li1146 O1206 1.956 . S
Li1146 O1207 1.970 . S
Li1147 N1197 1.990 1_455 S
Li1147 O1205 1.961 . S
Li1147 O1206 1.970 . S
Li1147 O1207 1.956 . S
C1148 C1150 1.348 . S
C1148 C1151 1.356 . S
C1148 O1204 1.325 . S
N1149 C1152 1.314 . S
N1149 C1153 1.279 . S
C1150 C1148 1.348 . S
C1150 C1152 1.353 . S
C1150 H1208 0.929 . S
C1151 C1148 1.356 . S
C1151 C1153 1.358 . S
C1151 H1209 0.930 . S
C1152 N1149 1.314 . S
C1152 C1150 1.353 . S
C1152 H1210 0.930 . S
C1153 N1149 1.279 . S
C1153 C1151 1.358 . S
C1153 H1211 0.930 . S
C1154 C1157 1.348 . S
C1154 C1158 1.356 . S
C1154 O1205 1.325 . S
C1155 N1156 1.279 . S
C1155 C1158 1.358 1_655 S
C1155 H1212 0.930 . S
N1156 C1155 1.279 . S
N1156 C1159 1.314 1_655 S
C1157 C1154 1.348 . S
C1157 C1159 1.353 . S
C1157 H1213 0.929 . S
C1158 C1154 1.356 . S
C1158 C1155 1.358 1_455 S
C1158 H1214 0.930 . S
C1159 N1156 1.314 1_455 S
C1159 C1157 1.353 . S
C1159 H1215 0.930 1_455 S
C1160 N1161 1.314 . S
C1160 C1165 1.353 . S
C1160 H1166 0.930 . S
N1161 Li1144 1.990 . S
N1161 C1160 1.314 . S
N1161 C1163 1.279 . S
C1162 C1163 1.358 . S
C1162 C1164 1.356 . S
C1162 H1216 0.930 . S
C1163 N1161 1.279 . S
C1163 C1162 1.358 . S
C1163 H1167 0.930 . S
C1164 C1162 1.356 . S
C1164 C1165 1.348 . S
C1165 C1160 1.353 . S
C1165 C1164 1.348 . S
C1165 H1217 0.929 1_455 S
H1166 C1160 0.930 . S
H1167 C1163 0.930 . S
C1168 N1169 1.314 . S
C1168 C1170 1.353 . S
C1168 H1174 0.930 . S
N1169 Li1145 1.990 . S
N1169 C1168 1.314 . S
N1169 C1172 1.279 . S
C1170 C1168 1.353 . S
C1170 C1173 1.348 . S
C1170 H1218 0.929 . S
C1171 C1172 1.358 . S
C1171 C1173 1.356 . S
C1171 H1219 0.930 . S
C1172 N1169 1.279 . S
C1172 C1171 1.358 . S
C1172 H1175 0.930 . S
C1173 C1170 1.348 . S
C1173 C1171 1.356 . S
H1174 C1168 0.930 . S
H1175 C1172 0.930 . S
C1176 C1178 1.348 . S
C1176 C1179 1.356 . S
C1176 O1206 1.325 . S
N1177 C1180 1.314 1_455 S
N1177 C1181 1.279 . S
C1178 C1176 1.348 . S
C1178 C1180 1.353 1_455 S
C1178 H1220 0.929 . S
C1179 C1176 1.356 . S
C1179 C1181 1.358 . S
C1179 H1221 0.930 . S
C1180 N1177 1.314 1_655 S
C1180 C1178 1.353 1_655 S
C1180 H1222 0.930 . S
C1181 N1177 1.279 . S
C1181 C1179 1.358 . S
C1181 H1223 0.930 . S
C1182 C1183 1.348 . S
C1182 C1184 1.356 . S
C1182 O1207 1.325 . S
C1183 C1182 1.348 . S
C1183 C1185 1.353 . S
C1183 H1224 0.929 . S
C1184 C1182 1.356 . S
C1184 C1186 1.358 . S
C1184 H1225 0.930 . S
C1185 C1183 1.353 . S
C1185 N1187 1.314 . S
C1185 H1226 0.930 . S
C1186 C1184 1.358 . S
C1186 N1187 1.279 . S
C1186 H1227 0.930 . S
N1187 C1185 1.314 . S
N1187 C1186 1.279 . S
C1188 C1190 1.353 . S
C1188 N1191 1.314 . S
C1188 H1194 0.930 . S
C1189 N1191 1.279 . S
C1189 C1192 1.358 . S
C1189 H1195 0.930 . S
C1190 C1188 1.353 . S
C1190 C1193 1.348 . S
C1190 H1228 0.929 . S
N1191 Li1146 1.990 . S
N1191 C1188 1.314 . S
N1191 C1189 1.279 . S
C1192 C1189 1.358 . S
C1192 C1193 1.356 . S
C1192 H1229 0.930 . S
C1193 C1190 1.348 . S
C1193 C1192 1.356 . S
H1194 C1188 0.930 . S
H1195 C1189 0.930 . S
C1196 N1197 1.314 . S
C1196 C1198 1.353 . S
C1196 H1202 0.930 . S
N1197 Li1147 1.990 1_655 S
N1197 C1196 1.314 . S
N1197 C1200 1.279 . S
C1198 C1196 1.353 . S
C1198 C1201 1.348 . S
C1198 H1230 0.929 . S
C1199 C1200 1.358 . S
C1199 C1201 1.356 . S
C1199 H1231 0.930 . S
C1200 N1197 1.279 . S
C1200 C1199 1.358 . S
C1200 H1203 0.930 1_655 S
C1201 C1198 1.348 . S
C1201 C1199 1.356 . S
H1202 C1196 0.930 . S
H1203 C1200 0.930 1_455 S
O1204 Li1144 1.956 . S
O1204 Li1145 1.970 . S
O1204 Li1146 1.961 . S
O1204 C1148 1.325 . S
O1205 Li1144 1.970 . S
O1205 Li1145 1.956 . S
O1205 Li1147 1.961 . S
O1205 C1154 1.325 . S
O1206 Li1144 1.961 . S
O1206 Li1146 1.956 . S
O1206 Li1147 1.970 . S
O1206 C1176 1.325 . S
O1207 Li1145 1.961 . S
O1207 Li1146 1.970 . S
O1207 Li1147 1.956 . S
O1207 C1182 1.325 . S
H1208 C1150 0.929 . S
H1209 C1151 0.930 . S
H1210 C1152 0.930 . S
H1211 C1153 0.930 . S
H1212 C1155 0.930 . S
H1213 C1157 0.929 . S
H1214 C1158 0.930 . S
H1215 C1159 0.930 1_655 S
H1216 C1162 0.930 . S
H1217 C1165 0.929 1_655 S
H1218 C1170 0.929 . S
H1219 C1171 0.930 . S
H1220 C1178 0.929 . S
H1221 C1179 0.930 . S
H1222 C1180 0.930 . S
H1223 C1181 0.930 . S
H1224 C1183 0.929 . S
H1225 C1184 0.930 . S
H1226 C1185 0.930 . S
H1227 C1186 0.930 . S
H1228 C1190 0.929 . S
H1229 C1192 0.930 . S
H1230 C1198 0.929 . S
H1231 C1199 0.930 . S
Li1232 N1249 1.990 . S
Li1232 O1292 1.956 . S
Li1232 O1293 1.970 . S
Li1232 O1294 1.961 . S
Li1233 N1257 1.990 1_565 S
Li1233 O1292 1.970 . S
Li1233 O1293 1.956 . S
Li1233 O1295 1.961 . S
Li1234 N1279 1.990 . S
Li1234 O1292 1.961 . S
Li1234 O1294 1.956 . S
Li1234 O1295 1.970 . S
Li1235 N1285 1.990 . S
Li1235 O1293 1.961 . S
Li1235 O1294 1.970 . S
Li1235 O1295 1.956 . S
C1236 C1238 1.348 . S
C1236 C1239 1.356 . S
C1236 O1292 1.325 . S
N1237 C1240 1.314 1_565 S
N1237 C1241 1.279 . S
C1238 C1236 1.348 . S
C1238 C1240 1.353 1_565 S
C1238 H1296 0.929 1_565 S
C1239 C1236 1.356 . S
C1239 C1241 1.358 . S
C1239 H1297 0.930 . S
C1240 N1237 1.314 1_545 S
C1240 C1238 1.353 1_545 S
C1240 H1298 0.930 . S
C1241 N1237 1.279 . S
C1241 C1239 1.358 . S
C1241 H1299 0.930 . S
C1242 C1245 1.348 . S
C1242 C1246 1.356 . S
C1242 O1293 1.325 . S
C1243 N1244 1.277 1_565 S
C1243 C1246 1.361 . S
C1243 H1300 0.930 1_565 S
N1244 C1243 1.277 1_545 S
N1244 C1247 1.314 . S
C1245 C1242 1.348 . S
C1245 C1247 1.353 1_565 S
C1245 H1301 0.929 . S
C1246 C1242 1.356 . S
C1246 C1243 1.361 . S
C1246 H1302 0.930 . S
C1247 N1244 1.314 . S
C1247 C1245 1.353 1_545 S
C1247 H1303 0.930 . S
C1248 N1249 1.314 . S
C1248 C1253 1.353 . S
C1248 H1254 0.930 . S
N1249 Li1232 1.990 . S
N1249 C1248 1.314 . S
N1249 C1251 1.279 . S
C1250 C1251 1.358 . S
C1250 C1252 1.356 . S
C1250 H1304 0.930 . S
C1251 N1249 1.279 . S
C1251 C1250 1.358 . S
C1251 H1255 0.930 . S
C1252 C1250 1.356 . S
C1252 C1253 1.348 . S
C1253 C1248 1.353 . S
C1253 C1252 1.348 . S
C1253 H1305 0.929 . S
H1254 C1248 0.930 . S
H1255 C1251 0.930 . S
C1256 N1257 1.314 . S
C1256 C1258 1.353 . S
C1256 H1262 0.930 1_545 S
N1257 Li1233 1.990 1_545 S
N1257 C1256 1.314 . S
N1257 C1260 1.279 . S
C1258 C1256 1.353 . S
C1258 C1261 1.348 . S
C1258 H1306 0.929 . S
C1259 C1260 1.358 . S
C1259 C1261 1.356 . S
C1259 H1307 0.930 . S
C1260 N1257 1.279 . S
C1260 C1259 1.358 . S
C1260 H1263 0.930 . S
C1261 C1258 1.348 . S
C1261 C1259 1.356 . S
H1262 C1256 0.930 1_565 S
H1263 C1260 0.930 . S
C1264 C1266 1.348 . S
C1264 C1267 1.356 . S
C1264 O1294 1.325 . S
N1265 C1268 1.314 . S
N1265 C1269 1.279 . S
C1266 C1264 1.348 . S
C1266 C1268 1.353 . S
C1266 H1308 0.929 . S
C1267 C1264 1.356 . S
C1267 C1269 1.358 . S
C1267 H1309 0.930 . S
C1268 N1265 1.314 . S
C1268 C1266 1.353 . S
C1268 H1310 0.930 . S
C1269 N1265 1.279 . S
C1269 C1267 1.358 . S
C1269 H1311 0.930 . S
C1270 C1271 1.348 . S
C1270 C1272 1.356 . S
C1270 O1295 1.325 . S
C1271 C1270 1.348 . S
C1271 C1273 1.353 . S
C1271 H1312 0.929 . S
C1272 C1270 1.356 . S
C1272 C1274 1.358 . S
C1272 H1313 0.930 . S
C1273 C1271 1.353 . S
C1273 N1275 1.314 . S
C1273 H1314 0.930 . S
C1274 C1272 1.358 . S
C1274 N1275 1.279 . S
C1274 H1315 0.930 . S
N1275 C1273 1.314 . S
N1275 C1274 1.279 . S
C1276 C1278 1.353 . S
C1276 N1279 1.314 . S
C1276 H1282 0.930 . S
C1277 N1279 1.279 . S
C1277 C1280 1.358 . S
C1277 H1283 0.930 . S
C1278 C1276 1.353 . S
C1278 C1281 1.348 . S
C1278 H1316 0.929 . S
N1279 Li1234 1.990 . S
N1279 C1276 1.314 . S
N1279 C1277 1.279 . S
C1280 C1277 1.358 . S
C1280 C1281 1.356 . S
C1280 H1317 0.930 . S
C1281 C1278 1.348 . S
C1281 C1280 1.356 . S
H1282 C1276 0.930 . S
H1283 C1277 0.930 . S
C1284 N1285 1.314 . S
C1284 C1286 1.353 . S
C1284 H1290 0.930 . S
N1285 Li1235 1.990 . S
N1285 C1284 1.314 . S
N1285 C1288 1.279 . S
C1286 C1284 1.353 . S
C1286 C1289 1.348 . S
C1286 H1318 0.929 . S
C1287 C1288 1.358 . S
C1287 C1289 1.356 . S
C1287 H1319 0.930 . S
C1288 N1285 1.279 . S
C1288 C1287 1.358 . S
C1288 H1291 0.930 . S
C1289 C1286 1.348 . S
C1289 C1287 1.356 . S
H1290 C1284 0.930 . S
H1291 C1288 0.930 . S
O1292 Li1232 1.956 . S
O1292 Li1233 1.970 . S
O1292 Li1234 1.961 . S
O1292 C1236 1.325 . S
O1293 Li1232 1.970 . S
O1293 Li1233 1.956 . S
O1293 Li1235 1.961 . S
O1293 C1242 1.325 . S
O1294 Li1232 1.961 . S
O1294 Li1234 1.956 . S
O1294 Li1235 1.970 . S
O1294 C1264 1.325 . S
O1295 Li1233 1.961 . S
O1295 Li1234 1.970 . S
O1295 Li1235 1.956 . S
O1295 C1270 1.325 . S
H1296 C1238 0.929 1_545 S
H1297 C1239 0.930 . S
H1298 C1240 0.930 . S
H1299 C1241 0.930 . S
H1300 C1243 0.930 1_545 S
H1301 C1245 0.929 . S
H1302 C1246 0.930 . S
H1303 C1247 0.930 . S
H1304 C1250 0.930 . S
H1305 C1253 0.929 . S
H1306 C1258 0.929 . S
H1307 C1259 0.930 . S
H1308 C1266 0.929 . S
H1309 C1267 0.930 . S
H1310 C1268 0.930 . S
H1311 C1269 0.930 . S
H1312 C1271 0.929 . S
H1313 C1272 0.930 . S
H1314 C1273 0.930 . S
H1315 C1274 0.930 . S
H1316 C1278 0.929 . S
H1317 C1280 0.930 . S
H1318 C1286 0.929 . S
H1319 C1287 0.930 . S
Li1320 N1337 1.990 . S
Li1320 O1380 1.956 . S
Li1320 O1381 1.970 . S
Li1320 O1382 1.961 . S
Li1321 N1345 1.990 . S
Li1321 O1380 1.970 . S
Li1321 O1381 1.956 . S
Li1321 O1383 1.961 . S
Li1322 N1367 1.990 1_655 S
Li1322 O1380 1.961 . S
Li1322 O1382 1.956 . S
Li1322 O1383 1.970 . S
Li1323 N1373 1.990 . S
Li1323 O1381 1.961 . S
Li1323 O1382 1.970 . S
Li1323 O1383 1.956 . S
C1324 C1326 1.348 . S
C1324 C1327 1.356 . S
C1324 O1380 1.325 . S
N1325 C1328 1.314 1_455 S
N1325 C1329 1.279 . S
C1326 C1324 1.348 . S
C1326 C1328 1.353 . S
C1326 H1384 0.929 . S
C1327 C1324 1.356 . S
C1327 C1329 1.358 1_655 S
C1327 H1385 0.930 . S
C1328 N1325 1.314 1_655 S
C1328 C1326 1.353 . S
C1328 H1386 0.930 1_655 S
C1329 N1325 1.279 . S
C1329 C1327 1.358 1_455 S
C1329 H1387 0.930 . S
C1330 C1333 1.348 . S
C1330 C1334 1.356 . S
C1330 O1381 1.325 . S
C1331 N1332 1.279 . S
C1331 C1334 1.358 . S
C1331 H1388 0.930 . S
N1332 C1331 1.279 . S
N1332 C1335 1.314 . S
C1333 C1330 1.348 . S
C1333 C1335 1.353 . S
C1333 H1389 0.929 . S
C1334 C1330 1.356 . S
C1334 C1331 1.358 . S
C1334 H1390 0.930 . S
C1335 N1332 1.314 . S
C1335 C1333 1.353 . S
C1335 H1391 0.930 . S
C1336 N1337 1.314 . S
C1336 C1341 1.353 . S
C1336 H1342 0.930 . S
N1337 Li1320 1.990 . S
N1337 C1336 1.314 . S
N1337 C1339 1.279 . S
C1338 C1339 1.358 . S
C1338 C1340 1.356 . S
C1338 H1392 0.930 . S
C1339 N1337 1.279 . S
C1339 C1338 1.358 . S
C1339 H1343 0.930 . S
C1340 C1338 1.356 . S
C1340 C1341 1.348 . S
C1341 C1336 1.353 . S
C1341 C1340 1.348 . S
C1341 H1393 0.929 . S
H1342 C1336 0.930 . S
H1343 C1339 0.930 . S
C1344 N1345 1.314 . S
C1344 C1346 1.353 . S
C1344 H1350 0.930 . S
N1345 Li1321 1.990 . S
N1345 C1344 1.314 . S
N1345 C1348 1.279 . S
C1346 C1344 1.353 . S
C1346 C1349 1.348 . S
C1346 H1394 0.929 1_655 S
C1347 C1348 1.358 . S
C1347 C1349 1.356 . S
C1347 H1395 0.930 . S
C1348 N1345 1.279 . S
C1348 C1347 1.358 . S
C1348 H1351 0.930 . S
C1349 C1346 1.348 . S
C1349 C1347 1.356 . S
H1350 C1344 0.930 . S
H1351 C1348 0.930 . S
C1352 C1354 1.348 . S
C1352 C1355 1.356 . S
C1352 O1382 1.325 . S
N1353 C1356 1.314 . S
N1353 C1357 1.279 . S
C1354 C1352 1.348 . S
C1354 C1356 1.353 . S
C1354 H1396 0.929 . S
C1355 C1352 1.356 . S
C1355 C1357 1.358 . S
C1355 H1397 0.930 . S
C1356 N1353 1.314 . S
C1356 C1354 1.353 . S
C1356 H1398 0.930 . S
C1357 N1353 1.279 . S
C1357 C1355 1.358 . S
C1357 H1399 0.930 . S
C1358 C1359 1.348 . S
C1358 C1360 1.356 . S
C1358 O1383 1.325 . S
C1359 C1358 1.348 . S
C1359 C1361 1.353 1_655 S
C1359 H1400 0.929 . S
C1360 C1358 1.356 . S
C1360 C1362 1.358 . S
C1360 H1401 0.930 . S
C1361 C1359 1.353 1_455 S
C1361 N1363 1.314 1_455 S
C1361 H1402 0.930 . S
C1362 C1360 1.358 . S
C1362 N1363 1.279 . S
C1362 H1403 0.930 . S
N1363 C1361 1.314 1_655 S
N1363 C1362 1.279 . S
C1364 C1366 1.353 . S
C1364 N1367 1.314 . S
C1364 H1370 0.930 . S
C1365 N1367 1.279 . S
C1365 C1368 1.358 . S
C1365 H1371 0.930 1_455 S
C1366 C1364 1.353 . S
C1366 C1369 1.348 . S
C1366 H1404 0.929 . S
N1367 Li1322 1.990 1_455 S
N1367 C1364 1.314 . S
N1367 C1365 1.279 . S
C1368 C1365 1.358 . S
C1368 C1369 1.356 . S
C1368 H1405 0.930 . S
C1369 C1366 1.348 . S
C1369 C1368 1.356 . S
H1370 C1364 0.930 . S
H1371 C1365 0.930 1_655 S
C1372 N1373 1.314 . S
C1372 C1374 1.353 . S
C1372 H1378 0.930 . S
N1373 Li1323 1.990 . S
N1373 C1372 1.314 . S
N1373 C1376 1.279 . S
C1374 C1372 1.353 . S
C1374 C1377 1.348 . S
C1374 H1406 0.929 . S
C1375 C1376 1.358 . S
C1375 C1377 1.356 . S
C1375 H1407 0.930 . S
C1376 N1373 1.279 . S
C1376 C1375 1.358 . S
C1376 H1379 0.930 . S
C1377 C1374 1.348 . S
C1377 C1375 1.356 . S
H1378 C1372 0.930 . S
H1379 C1376 0.930 . S
O1380 Li1320 1.956 . S
O1380 Li1321 1.970 . S
O1380 Li1322 1.961 . S
O1380 C1324 1.325 . S
O1381 Li1320 1.970 . S
O1381 Li1321 1.956 . S
O1381 Li1323 1.961 . S
O1381 C1330 1.325 . S
O1382 Li1320 1.961 . S
O1382 Li1322 1.956 . S
O1382 Li1323 1.970 . S
O1382 C1352 1.325 . S
O1383 Li1321 1.961 . S
O1383 Li1322 1.970 . S
O1383 Li1323 1.956 . S
O1383 C1358 1.325 . S
H1384 C1326 0.929 . S
H1385 C1327 0.930 . S
H1386 C1328 0.930 1_455 S
H1387 C1329 0.930 . S
H1388 C1331 0.930 . S
H1389 C1333 0.929 . S
H1390 C1334 0.930 . S
H1391 C1335 0.930 . S
H1392 C1338 0.930 . S
H1393 C1341 0.929 . S
H1394 C1346 0.929 1_455 S
H1395 C1347 0.930 . S
H1396 C1354 0.929 . S
H1397 C1355 0.930 . S
H1398 C1356 0.930 . S
H1399 C1357 0.930 . S
H1400 C1359 0.929 . S
H1401 C1360 0.930 . S
H1402 C1361 0.930 . S
H1403 C1362 0.930 . S
H1404 C1366 0.929 . S
H1405 C1368 0.930 . S
H1406 C1374 0.929 . S
H1407 C1375 0.930 . S
C1408 C1409 1.363 . S
C1408 C1414 1.379 . S
C1408 N1416 1.356 . S
C1409 C1408 1.363 . S
C1409 C1415 1.363 . S
C1410 C1411 1.363 . S
C1410 C1415 1.379 . S
C1410 N1417 1.356 . S
C1411 C1410 1.363 . S
C1411 C1414 1.363 . S
N1412 C1414 1.356 . S
N1412 H1424 0.984 . S
N1412 H1425 0.985 . S
N1413 C1415 1.356 . S
N1413 H1418 0.984 . S
N1413 H1419 0.985 . S
C1414 C1408 1.379 . S
C1414 C1411 1.363 . S
C1414 N1412 1.356 . S
C1415 C1409 1.363 . S
C1415 C1410 1.379 . S
C1415 N1413 1.356 . S
N1416 C1408 1.356 . S
N1416 H1422 0.984 . S
N1416 H1423 0.984 . S
N1417 C1410 1.356 . S
N1417 H1420 0.984 . S
N1417 H1421 0.985 . S
H1418 N1413 0.984 . S
H1419 N1413 0.985 . S
H1420 N1417 0.984 . S
H1421 N1417 0.985 . S
H1422 N1416 0.984 . S
H1423 N1416 0.984 . S
H1424 N1412 0.984 . S
H1425 N1412 0.985 . S
C1426 C1427 1.363 . S
C1426 C1432 1.379 . S
C1426 N1434 1.356 . S
C1427 C1426 1.363 . S
C1427 C1433 1.363 . S
C1428 C1429 1.363 . S
C1428 C1433 1.379 . S
C1428 N1435 1.356 . S
C1429 C1428 1.363 . S
C1429 C1432 1.363 . S
N1430 C1432 1.356 . S
N1430 H1442 0.984 . S
N1430 H1443 0.985 . S
N1431 C1433 1.356 . S
N1431 H1436 0.984 . S
N1431 H1437 0.985 . S
C1432 C1426 1.379 . S
C1432 C1429 1.363 . S
C1432 N1430 1.356 . S
C1433 C1427 1.363 . S
C1433 C1428 1.379 . S
C1433 N1431 1.356 . S
N1434 C1426 1.356 . S
N1434 H1440 0.984 . S
N1434 H1441 0.984 . S
N1435 C1428 1.356 . S
N1435 H1438 0.984 . S
N1435 H1439 0.985 . S
H1436 N1431 0.984 . S
H1437 N1431 0.985 . S
H1438 N1435 0.984 . S
H1439 N1435 0.985 . S
H1440 N1434 0.984 . S
H1441 N1434 0.984 . S
H1442 N1430 0.984 . S
H1443 N1430 0.985 . S
C1444 C1445 1.363 . S
C1444 C1450 1.379 . S
C1444 N1452 1.356 . S
C1445 C1444 1.363 . S
C1445 C1451 1.363 . S
C1446 C1447 1.363 . S
C1446 C1451 1.379 . S
C1446 N1453 1.356 . S
C1447 C1446 1.363 . S
C1447 C1450 1.363 . S
N1448 C1450 1.356 . S
N1448 H1460 0.984 . S
N1448 H1461 0.985 . S
N1449 C1451 1.356 . S
N1449 H1454 0.984 . S
N1449 H1455 0.985 . S
C1450 C1444 1.379 . S
C1450 C1447 1.363 . S
C1450 N1448 1.356 . S
C1451 C1445 1.363 . S
C1451 C1446 1.379 . S
C1451 N1449 1.356 . S
N1452 C1444 1.356 . S
N1452 H1458 0.984 . S
N1452 H1459 0.984 . S
N1453 C1446 1.356 . S
N1453 H1456 0.984 . S
N1453 H1457 0.985 . S
H1454 N1449 0.984 . S
H1455 N1449 0.985 . S
H1456 N1453 0.984 . S
H1457 N1453 0.985 . S
H1458 N1452 0.984 . S
H1459 N1452 0.984 . S
H1460 N1448 0.984 . S
H1461 N1448 0.985 . S
C1462 C1463 1.363 . S
C1462 C1468 1.379 . S
C1462 N1470 1.356 . S
C1463 C1462 1.363 . S
C1463 C1469 1.363 . S
C1464 C1465 1.363 . S
C1464 C1469 1.379 . S
C1464 N1471 1.356 . S
C1465 C1464 1.363 . S
C1465 C1468 1.363 . S
N1466 C1468 1.356 . S
N1466 H1478 0.984 . S
N1466 H1479 0.985 . S
N1467 C1469 1.356 . S
N1467 H1472 0.984 . S
N1467 H1473 0.985 . S
C1468 C1462 1.379 . S
C1468 C1465 1.363 . S
C1468 N1466 1.356 . S
C1469 C1463 1.363 . S
C1469 C1464 1.379 . S
C1469 N1467 1.356 . S
N1470 C1462 1.356 . S
N1470 H1476 0.984 . S
N1470 H1477 0.984 . S
N1471 C1464 1.356 . S
N1471 H1474 0.984 . S
N1471 H1475 0.985 . S
H1472 N1467 0.984 . S
H1473 N1467 0.985 . S
H1474 N1471 0.984 . S
H1475 N1471 0.985 . S
H1476 N1470 0.984 . S
H1477 N1470 0.984 . S
H1478 N1466 0.984 . S
H1479 N1466 0.985 . S
C1480 C1481 1.363 . S
C1480 C1486 1.379 . S
C1480 N1488 1.356 . S
C1481 C1480 1.363 . S
C1481 C1487 1.363 . S
C1482 C1483 1.363 . S
C1482 C1487 1.379 . S
C1482 N1489 1.356 . S
C1483 C1482 1.363 . S
C1483 C1486 1.363 . S
N1484 C1486 1.356 . S
N1484 H1496 0.984 . S
N1484 H1497 0.985 . S
N1485 C1487 1.356 . S
N1485 H1490 0.984 . S
N1485 H1491 0.985 . S
C1486 C1480 1.379 . S
C1486 C1483 1.363 . S
C1486 N1484 1.356 . S
C1487 C1481 1.363 . S
C1487 C1482 1.379 . S
C1487 N1485 1.356 . S
N1488 C1480 1.356 . S
N1488 H1494 0.984 . S
N1488 H1495 0.984 . S
N1489 C1482 1.356 . S
N1489 H1492 0.984 . S
N1489 H1493 0.985 . S
H1490 N1485 0.984 . S
H1491 N1485 0.985 . S
H1492 N1489 0.984 . S
H1493 N1489 0.985 . S
H1494 N1488 0.984 . S
H1495 N1488 0.984 . S
H1496 N1484 0.984 . S
H1497 N1484 0.985 . S
C1498 C1499 1.363 . S
C1498 C1504 1.379 . S
C1498 N1506 1.356 . S
C1499 C1498 1.363 . S
C1499 C1505 1.363 . S
C1500 C1501 1.363 . S
C1500 C1505 1.379 . S
C1500 N1507 1.356 . S
C1501 C1500 1.363 . S
C1501 C1504 1.363 . S
N1502 C1504 1.356 . S
N1502 H1514 0.984 . S
N1502 H1515 0.985 . S
N1503 C1505 1.356 . S
N1503 H1508 0.984 . S
N1503 H1509 0.985 . S
C1504 C1498 1.379 . S
C1504 C1501 1.363 . S
C1504 N1502 1.356 . S
C1505 C1499 1.363 . S
C1505 C1500 1.379 . S
C1505 N1503 1.356 . S
N1506 C1498 1.356 . S
N1506 H1512 0.984 . S
N1506 H1513 0.984 . S
N1507 C1500 1.356 . S
N1507 H1510 0.984 . S
N1507 H1511 0.985 . S
H1508 N1503 0.984 . S
H1509 N1503 0.985 . S
H1510 N1507 0.984 . S
H1511 N1507 0.985 . S
H1512 N1506 0.984 . S
H1513 N1506 0.984 . S
H1514 N1502 0.984 . S
H1515 N1502 0.985 . S
C1516 C1517 1.363 . S
C1516 C1522 1.379 . S
C1516 N1524 1.356 . S
C1517 C1516 1.363 . S
C1517 C1523 1.363 . S
C1518 C1519 1.363 . S
C1518 C1523 1.379 . S
C1518 N1525 1.356 . S
C1519 C1518 1.363 . S
C1519 C1522 1.363 . S
N1520 C1522 1.356 . S
N1520 H1532 0.984 . S
N1520 H1533 0.985 . S
N1521 C1523 1.356 . S
N1521 H1526 0.984 . S
N1521 H1527 0.985 . S
C1522 C1516 1.379 . S
C1522 C1519 1.363 . S
C1522 N1520 1.356 . S
C1523 C1517 1.363 . S
C1523 C1518 1.379 . S
C1523 N1521 1.356 . S
N1524 C1516 1.356 . S
N1524 H1530 0.984 . S
N1524 H1531 0.984 . S
N1525 C1518 1.356 . S
N1525 H1528 0.984 . S
N1525 H1529 0.985 . S
H1526 N1521 0.984 . S
H1527 N1521 0.985 . S
H1528 N1525 0.984 . S
H1529 N1525 0.985 . S
H1530 N1524 0.984 . S
H1531 N1524 0.984 . S
H1532 N1520 0.984 . S
H1533 N1520 0.985 . S
C1534 C1535 1.363 . S
C1534 C1540 1.379 . S
C1534 N1542 1.356 . S
C1535 C1534 1.363 . S
C1535 C1541 1.363 . S
C1536 C1537 1.363 . S
C1536 C1541 1.379 . S
C1536 N1543 1.356 . S
C1537 C1536 1.363 . S
C1537 C1540 1.363 . S
N1538 C1540 1.356 . S
N1538 H1550 0.984 . S
N1538 H1551 0.985 . S
N1539 C1541 1.356 . S
N1539 H1544 0.984 . S
N1539 H1545 0.985 . S
C1540 C1534 1.379 . S
C1540 C1537 1.363 . S
C1540 N1538 1.356 . S
C1541 C1535 1.363 . S
C1541 C1536 1.379 . S
C1541 N1539 1.356 . S
N1542 C1534 1.356 . S
N1542 H1548 0.984 . S
N1542 H1549 0.984 . S
N1543 C1536 1.356 . S
N1543 H1546 0.984 . S
N1543 H1547 0.985 . S
H1544 N1539 0.984 . S
H1545 N1539 0.985 . S
H1546 N1543 0.984 . S
H1547 N1543 0.985 . S
H1548 N1542 0.984 . S
H1549 N1542 0.984 . S
H1550 N1538 0.984 . S
H1551 N1538 0.985 . S
C1552 C1553 1.363 . S
C1552 C1558 1.379 . S
C1552 N1560 1.356 . S
C1553 C1552 1.363 . S
C1553 C1559 1.363 . S
C1554 C1555 1.363 . S
C1554 C1559 1.379 . S
C1554 N1561 1.356 . S
C1555 C1554 1.363 . S
C1555 C1558 1.363 . S
N1556 C1558 1.356 . S
N1556 H1568 0.984 . S
N1556 H1569 0.985 . S
N1557 C1559 1.356 . S
N1557 H1562 0.984 . S
N1557 H1563 0.985 . S
C1558 C1552 1.379 . S
C1558 C1555 1.363 . S
C1558 N1556 1.356 . S
C1559 C1553 1.363 . S
C1559 C1554 1.379 . S
C1559 N1557 1.356 . S
N1560 C1552 1.356 . S
N1560 H1566 0.984 . S
N1560 H1567 0.984 . S
N1561 C1554 1.356 . S
N1561 H1564 0.984 . S
N1561 H1565 0.985 . S
H1562 N1557 0.984 . S
H1563 N1557 0.985 . S
H1564 N1561 0.984 . S
H1565 N1561 0.985 . S
H1566 N1560 0.984 . S
H1567 N1560 0.984 . S
H1568 N1556 0.984 . S
H1569 N1556 0.985 . S
C1570 C1571 1.363 . S
C1570 C1576 1.379 . S
C1570 N1578 1.356 . S
C1571 C1570 1.363 . S
C1571 C1577 1.363 . S
C1572 C1573 1.363 . S
C1572 C1577 1.379 . S
C1572 N1579 1.356 . S
C1573 C1572 1.363 . S
C1573 C1576 1.363 . S
N1574 C1576 1.356 . S
N1574 H1586 0.984 . S
N1574 H1587 0.985 . S
N1575 C1577 1.356 . S
N1575 H1580 0.984 . S
N1575 H1581 0.985 . S
C1576 C1570 1.379 . S
C1576 C1573 1.363 . S
C1576 N1574 1.356 . S
C1577 C1571 1.363 . S
C1577 C1572 1.379 . S
C1577 N1575 1.356 . S
N1578 C1570 1.356 . S
N1578 H1584 0.984 . S
N1578 H1585 0.984 . S
N1579 C1572 1.356 . S
N1579 H1582 0.984 . S
N1579 H1583 0.985 . S
H1580 N1575 0.984 . S
H1581 N1575 0.985 . S
H1582 N1579 0.984 . S
H1583 N1579 0.985 . S
H1584 N1578 0.984 . S
H1585 N1578 0.984 . S
H1586 N1574 0.984 . S
H1587 N1574 0.985 . S
C1588 C1589 1.363 . S
C1588 C1594 1.379 . S
C1588 N1596 1.356 . S
C1589 C1588 1.363 . S
C1589 C1595 1.363 . S
C1590 C1591 1.363 . S
C1590 C1595 1.379 . S
C1590 N1597 1.356 . S
C1591 C1590 1.363 . S
C1591 C1594 1.363 . S
N1592 C1594 1.356 . S
N1592 H1604 0.984 . S
N1592 H1605 0.985 . S
N1593 C1595 1.356 . S
N1593 H1598 0.984 . S
N1593 H1599 0.985 . S
C1594 C1588 1.379 . S
C1594 C1591 1.363 . S
C1594 N1592 1.356 . S
C1595 C1589 1.363 . S
C1595 C1590 1.379 . S
C1595 N1593 1.356 . S
N1596 C1588 1.356 . S
N1596 H1602 0.984 . S
N1596 H1603 0.984 . S
N1597 C1590 1.356 . S
N1597 H1600 0.984 . S
N1597 H1601 0.985 . S
H1598 N1593 0.984 . S
H1599 N1593 0.985 . S
H1600 N1597 0.984 . S
H1601 N1597 0.985 . S
H1602 N1596 0.984 . S
H1603 N1596 0.984 . S
H1604 N1592 0.984 . S
H1605 N1592 0.985 . S
C1606 C1607 1.363 . S
C1606 C1612 1.379 . S
C1606 N1614 1.356 . S
C1607 C1606 1.363 . S
C1607 C1613 1.363 . S
C1608 C1609 1.363 . S
C1608 C1613 1.379 . S
C1608 N1615 1.356 . S
C1609 C1608 1.363 . S
C1609 C1612 1.363 . S
N1610 C1612 1.356 . S
N1610 H1622 0.984 . S
N1610 H1623 0.985 . S
N1611 C1613 1.356 . S
N1611 H1616 0.984 . S
N1611 H1617 0.985 . S
C1612 C1606 1.379 . S
C1612 C1609 1.363 . S
C1612 N1610 1.356 . S
C1613 C1607 1.363 . S
C1613 C1608 1.379 . S
C1613 N1611 1.356 . S
N1614 C1606 1.356 . S
N1614 H1620 0.984 . S
N1614 H1621 0.984 . S
N1615 C1608 1.356 . S
N1615 H1618 0.984 . S
N1615 H1619 0.985 . S
H1616 N1611 0.984 . S
H1617 N1611 0.985 . S
H1618 N1615 0.984 . S
H1619 N1615 0.985 . S
H1620 N1614 0.984 . S
H1621 N1614 0.984 . S
H1622 N1610 0.984 . S
H1623 N1610 0.985 . S
C1624 C1625 1.363 . S
C1624 C1630 1.379 . S
C1624 N1632 1.356 . S
C1625 C1624 1.363 . S
C1625 C1631 1.363 . S
C1626 C1627 1.363 . S
C1626 C1631 1.379 . S
C1626 N1633 1.356 . S
C1627 C1626 1.363 . S
C1627 C1630 1.363 . S
N1628 C1630 1.356 . S
N1628 H1640 0.984 . S
N1628 H1641 0.985 . S
N1629 C1631 1.356 . S
N1629 H1634 0.984 . S
N1629 H1635 0.985 . S
C1630 C1624 1.379 . S
C1630 C1627 1.363 . S
C1630 N1628 1.356 . S
C1631 C1625 1.363 . S
C1631 C1626 1.379 . S
C1631 N1629 1.356 . S
N1632 C1624 1.356 . S
N1632 H1638 0.984 . S
N1632 H1639 0.984 . S
N1633 C1626 1.356 . S
N1633 H1636 0.984 . S
N1633 H1637 0.985 . S
H1634 N1629 0.984 . S
H1635 N1629 0.985 . S
H1636 N1633 0.984 . S
H1637 N1633 0.985 . S
H1638 N1632 0.984 . S
H1639 N1632 0.984 . S
H1640 N1628 0.984 . S
H1641 N1628 0.985 . S
C1642 C1643 1.363 . S
C1642 C1648 1.379 . S
C1642 N1650 1.356 . S
C1643 C1642 1.363 . S
C1643 C1649 1.363 . S
C1644 C1645 1.363 . S
C1644 C1649 1.379 . S
C1644 N1651 1.356 . S
C1645 C1644 1.363 . S
C1645 C1648 1.363 . S
N1646 C1648 1.356 . S
N1646 H1658 0.984 . S
N1646 H1659 0.985 . S
N1647 C1649 1.356 . S
N1647 H1652 0.984 . S
N1647 H1653 0.985 . S
C1648 C1642 1.379 . S
C1648 C1645 1.363 . S
C1648 N1646 1.356 . S
C1649 C1643 1.363 . S
C1649 C1644 1.379 . S
C1649 N1647 1.356 . S
N1650 C1642 1.356 . S
N1650 H1656 0.984 . S
N1650 H1657 0.984 . S
N1651 C1644 1.356 . S
N1651 H1654 0.984 . S
N1651 H1655 0.985 . S
H1652 N1647 0.984 . S
H1653 N1647 0.985 . S
H1654 N1651 0.984 . S
H1655 N1651 0.985 . S
H1656 N1650 0.984 . S
H1657 N1650 0.984 . S
H1658 N1646 0.984 . S
H1659 N1646 0.985 . S
C1660 C1661 1.363 . S
C1660 C1666 1.379 . S
C1660 N1668 1.356 . S
C1661 C1660 1.363 . S
C1661 C1667 1.363 . S
C1662 C1663 1.363 . S
C1662 C1667 1.379 . S
C1662 N1669 1.356 . S
C1663 C1662 1.363 . S
C1663 C1666 1.363 . S
N1664 C1666 1.356 . S
N1664 H1676 0.984 . S
N1664 H1677 0.985 . S
N1665 C1667 1.356 . S
N1665 H1670 0.984 . S
N1665 H1671 0.985 . S
C1666 C1660 1.379 . S
C1666 C1663 1.363 . S
C1666 N1664 1.356 . S
C1667 C1661 1.363 . S
C1667 C1662 1.379 . S
C1667 N1665 1.356 . S
N1668 C1660 1.356 . S
N1668 H1674 0.984 . S
N1668 H1675 0.984 . S
N1669 C1662 1.356 . S
N1669 H1672 0.984 . S
N1669 H1673 0.985 . S
H1670 N1665 0.984 . S
H1671 N1665 0.985 . S
H1672 N1669 0.984 . S
H1673 N1669 0.985 . S
H1674 N1668 0.984 . S
H1675 N1668 0.984 . S
H1676 N1664 0.984 . S
H1677 N1664 0.985 . S
C1678 C1679 1.363 . S
C1678 C1684 1.379 . S
C1678 N1686 1.356 . S
C1679 C1678 1.363 . S
C1679 C1685 1.363 . S
C1680 C1681 1.363 . S
C1680 C1685 1.379 . S
C1680 N1687 1.356 . S
C1681 C1680 1.363 . S
C1681 C1684 1.363 . S
N1682 C1684 1.356 . S
N1682 H1694 0.984 . S
N1682 H1695 0.985 . S
N1683 C1685 1.356 . S
N1683 H1688 0.984 . S
N1683 H1689 0.985 . S
C1684 C1678 1.379 . S
C1684 C1681 1.363 . S
C1684 N1682 1.356 . S
C1685 C1679 1.363 . S
C1685 C1680 1.379 . S
C1685 N1683 1.356 . S
N1686 C1678 1.356 . S
N1686 H1692 0.984 . S
N1686 H1693 0.984 . S
N1687 C1680 1.356 . S
N1687 H1690 0.984 . S
N1687 H1691 0.985 . S
H1688 N1683 0.984 . S
H1689 N1683 0.985 . S
H1690 N1687 0.984 . S
H1691 N1687 0.985 . S
H1692 N1686 0.984 . S
H1693 N1686 0.984 . S
H1694 N1682 0.984 . S
H1695 N1682 0.985 . S
C1696 C1697 1.363 . S
C1696 C1702 1.379 . S
C1696 N1704 1.356 . S
C1697 C1696 1.363 . S
C1697 C1703 1.363 . S
C1698 C1699 1.363 . S
C1698 C1703 1.379 . S
C1698 N1705 1.356 . S
C1699 C1698 1.363 . S
C1699 C1702 1.363 . S
N1700 C1702 1.356 . S
N1700 H1712 0.984 . S
N1700 H1713 0.985 . S
N1701 C1703 1.356 . S
N1701 H1706 0.984 . S
N1701 H1707 0.985 . S
C1702 C1696 1.379 . S
C1702 C1699 1.363 . S
C1702 N1700 1.356 . S
C1703 C1697 1.363 . S
C1703 C1698 1.379 . S
C1703 N1701 1.356 . S
N1704 C1696 1.356 . S
N1704 H1710 0.984 . S
N1704 H1711 0.984 . S
N1705 C1698 1.356 . S
N1705 H1708 0.984 . S
N1705 H1709 0.985 . S
H1706 N1701 0.984 . S
H1707 N1701 0.985 . S
H1708 N1705 0.984 . S
H1709 N1705 0.985 . S
H1710 N1704 0.984 . S
H1711 N1704 0.984 . S
H1712 N1700 0.984 . S
H1713 N1700 0.985 . S
C1714 C1715 1.363 . S
C1714 C1720 1.379 . S
C1714 N1722 1.356 . S
C1715 C1714 1.363 . S
C1715 C1721 1.363 . S
C1716 C1717 1.363 . S
C1716 C1721 1.379 . S
C1716 N1723 1.356 . S
C1717 C1716 1.363 . S
C1717 C1720 1.363 . S
N1718 C1720 1.356 . S
N1718 H1730 0.984 . S
N1718 H1731 0.985 . S
N1719 C1721 1.356 . S
N1719 H1724 0.984 . S
N1719 H1725 0.985 . S
C1720 C1714 1.379 . S
C1720 C1717 1.363 . S
C1720 N1718 1.356 . S
C1721 C1715 1.363 . S
C1721 C1716 1.379 . S
C1721 N1719 1.356 . S
N1722 C1714 1.356 . S
N1722 H1728 0.984 . S
N1722 H1729 0.984 . S
N1723 C1716 1.356 . S
N1723 H1726 0.984 . S
N1723 H1727 0.985 . S
H1724 N1719 0.984 . S
H1725 N1719 0.985 . S
H1726 N1723 0.984 . S
H1727 N1723 0.985 . S
H1728 N1722 0.984 . S
H1729 N1722 0.984 . S
H1730 N1718 0.984 . S
H1731 N1718 0.985 . S
C1732 C1733 1.363 . S
C1732 C1738 1.379 . S
C1732 N1740 1.356 . S
C1733 C1732 1.363 . S
C1733 C1739 1.363 . S
C1734 C1735 1.363 . S
C1734 C1739 1.379 . S
C1734 N1741 1.356 . S
C1735 C1734 1.363 . S
C1735 C1738 1.363 . S
N1736 C1738 1.356 . S
N1736 H1748 0.984 . S
N1736 H1749 0.985 . S
N1737 C1739 1.356 . S
N1737 H1742 0.984 . S
N1737 H1743 0.985 . S
C1738 C1732 1.379 . S
C1738 C1735 1.363 . S
C1738 N1736 1.356 . S
C1739 C1733 1.363 . S
C1739 C1734 1.379 . S
C1739 N1737 1.356 . S
N1740 C1732 1.356 . S
N1740 H1746 0.984 . S
N1740 H1747 0.984 . S
N1741 C1734 1.356 . S
N1741 H1744 0.984 . S
N1741 H1745 0.985 . S
H1742 N1737 0.984 . S
H1743 N1737 0.985 . S
H1744 N1741 0.984 . S
H1745 N1741 0.985 . S
H1746 N1740 0.984 . S
H1747 N1740 0.984 . S
H1748 N1736 0.984 . S
H1749 N1736 0.985 . S
C1750 C1751 1.363 . S
C1750 C1756 1.379 . S
C1750 N1758 1.356 . S
C1751 C1750 1.363 . S
C1751 C1757 1.363 . S
C1752 C1753 1.363 . S
C1752 C1757 1.379 . S
C1752 N1759 1.356 . S
C1753 C1752 1.363 . S
C1753 C1756 1.363 . S
N1754 C1756 1.356 . S
N1754 H1766 0.984 . S
N1754 H1767 0.985 . S
N1755 C1757 1.356 . S
N1755 H1760 0.984 . S
N1755 H1761 0.985 . S
C1756 C1750 1.379 . S
C1756 C1753 1.363 . S
C1756 N1754 1.356 . S
C1757 C1751 1.363 . S
C1757 C1752 1.379 . S
C1757 N1755 1.356 . S
N1758 C1750 1.356 . S
N1758 H1764 0.984 . S
N1758 H1765 0.984 . S
N1759 C1752 1.356 . S
N1759 H1762 0.984 . S
N1759 H1763 0.985 . S
H1760 N1755 0.984 . S
H1761 N1755 0.985 . S
H1762 N1759 0.984 . S
H1763 N1759 0.985 . S
H1764 N1758 0.984 . S
H1765 N1758 0.984 . S
H1766 N1754 0.984 . S
H1767 N1754 0.985 . S
C1768 C1769 1.363 . S
C1768 C1774 1.379 . S
C1768 N1776 1.356 . S
C1769 C1768 1.363 . S
C1769 C1775 1.363 . S
C1770 C1771 1.363 . S
C1770 C1775 1.379 . S
C1770 N1777 1.356 . S
C1771 C1770 1.363 . S
C1771 C1774 1.363 . S
N1772 C1774 1.356 . S
N1772 H1784 0.984 . S
N1772 H1785 0.985 . S
N1773 C1775 1.356 . S
N1773 H1778 0.984 . S
N1773 H1779 0.985 . S
C1774 C1768 1.379 . S
C1774 C1771 1.363 . S
C1774 N1772 1.356 . S
C1775 C1769 1.363 . S
C1775 C1770 1.379 . S
C1775 N1773 1.356 . S
N1776 C1768 1.356 . S
N1776 H1782 0.984 . S
N1776 H1783 0.984 . S
N1777 C1770 1.356 . S
N1777 H1780 0.984 . S
N1777 H1781 0.985 . S
H1778 N1773 0.984 . S
H1779 N1773 0.985 . S
H1780 N1777 0.984 . S
H1781 N1777 0.985 . S
H1782 N1776 0.984 . S
H1783 N1776 0.984 . S
H1784 N1772 0.984 . S
H1785 N1772 0.985 . S
C1786 C1787 1.363 . S
C1786 C1792 1.379 . S
C1786 N1794 1.356 . S
C1787 C1786 1.363 . S
C1787 C1793 1.363 . S
C1788 C1789 1.363 . S
C1788 C1793 1.379 . S
C1788 N1795 1.356 . S
C1789 C1788 1.363 . S
C1789 C1792 1.363 . S
N1790 C1792 1.356 . S
N1790 H1802 0.984 . S
N1790 H1803 0.985 . S
N1791 C1793 1.356 . S
N1791 H1796 0.984 . S
N1791 H1797 0.985 . S
C1792 C1786 1.379 . S
C1792 C1789 1.363 . S
C1792 N1790 1.356 . S
C1793 C1787 1.363 . S
C1793 C1788 1.379 . S
C1793 N1791 1.356 . S
N1794 C1786 1.356 . S
N1794 H1800 0.984 . S
N1794 H1801 0.984 . S
N1795 C1788 1.356 . S
N1795 H1798 0.984 . S
N1795 H1799 0.985 . S
H1796 N1791 0.984 . S
H1797 N1791 0.985 . S
H1798 N1795 0.984 . S
H1799 N1795 0.985 . S
H1800 N1794 0.984 . S
H1801 N1794 0.984 . S
H1802 N1790 0.984 . S
H1803 N1790 0.985 . S
C1804 C1805 1.363 . S
C1804 C1810 1.379 . S
C1804 N1812 1.356 . S
C1805 C1804 1.363 . S
C1805 C1811 1.363 . S
C1806 C1807 1.363 . S
C1806 C1811 1.379 . S
C1806 N1813 1.356 . S
C1807 C1806 1.363 . S
C1807 C1810 1.363 . S
N1808 C1810 1.356 . S
N1808 H1820 0.984 . S
N1808 H1821 0.985 . S
N1809 C1811 1.356 . S
N1809 H1814 0.984 . S
N1809 H1815 0.985 . S
C1810 C1804 1.379 . S
C1810 C1807 1.363 . S
C1810 N1808 1.356 . S
C1811 C1805 1.363 . S
C1811 C1806 1.379 . S
C1811 N1809 1.356 . S
N1812 C1804 1.356 . S
N1812 H1818 0.984 . S
N1812 H1819 0.984 . S
N1813 C1806 1.356 . S
N1813 H1816 0.984 . S
N1813 H1817 0.985 . S
H1814 N1809 0.984 . S
H1815 N1809 0.985 . S
H1816 N1813 0.984 . S
H1817 N1813 0.985 . S
H1818 N1812 0.984 . S
H1819 N1812 0.984 . S
H1820 N1808 0.984 . S
H1821 N1808 0.985 . S
C1822 C1823 1.363 . S
C1822 C1828 1.379 . S
C1822 N1830 1.356 . S
C1823 C1822 1.363 . S
C1823 C1829 1.363 . S
C1824 C1825 1.363 . S
C1824 C1829 1.379 . S
C1824 N1831 1.356 . S
C1825 C1824 1.363 . S
C1825 C1828 1.363 . S
N1826 C1828 1.356 . S
N1826 H1838 0.984 . S
N1826 H1839 0.985 . S
N1827 C1829 1.356 . S
N1827 H1832 0.984 . S
N1827 H1833 0.985 . S
C1828 C1822 1.379 . S
C1828 C1825 1.363 . S
C1828 N1826 1.356 . S
C1829 C1823 1.363 . S
C1829 C1824 1.379 . S
C1829 N1827 1.356 . S
N1830 C1822 1.356 . S
N1830 H1836 0.984 . S
N1830 H1837 0.984 . S
N1831 C1824 1.356 . S
N1831 H1834 0.984 . S
N1831 H1835 0.985 . S
H1832 N1827 0.984 . S
H1833 N1827 0.985 . S
H1834 N1831 0.984 . S
H1835 N1831 0.985 . S
H1836 N1830 0.984 . S
H1837 N1830 0.984 . S
H1838 N1826 0.984 . S
H1839 N1826 0.985 . S
C1840 C1841 1.363 . S
C1840 C1846 1.379 . S
C1840 N1848 1.356 . S
C1841 C1840 1.363 . S
C1841 C1847 1.363 . S
C1842 C1843 1.363 . S
C1842 C1847 1.379 . S
C1842 N1849 1.356 . S
C1843 C1842 1.363 . S
C1843 C1846 1.363 . S
N1844 C1846 1.356 . S
N1844 H1856 0.984 . S
N1844 H1857 0.985 . S
N1845 C1847 1.356 . S
N1845 H1850 0.984 . S
N1845 H1851 0.985 . S
C1846 C1840 1.379 . S
C1846 C1843 1.363 . S
C1846 N1844 1.356 . S
C1847 C1841 1.363 . S
C1847 C1842 1.379 . S
C1847 N1845 1.356 . S
N1848 C1840 1.356 . S
N1848 H1854 0.984 . S
N1848 H1855 0.984 . S
N1849 C1842 1.356 . S
N1849 H1852 0.984 . S
N1849 H1853 0.985 . S
H1850 N1845 0.984 . S
H1851 N1845 0.985 . S
H1852 N1849 0.984 . S
H1853 N1849 0.985 . S
H1854 N1848 0.984 . S
H1855 N1848 0.984 . S
H1856 N1844 0.984 . S
H1857 N1844 0.985 . S
C1858 C1859 1.363 . S
C1858 C1864 1.379 . S
C1858 N1866 1.356 . S
C1859 C1858 1.363 . S
C1859 C1865 1.363 . S
C1860 C1861 1.363 . S
C1860 C1865 1.379 . S
C1860 N1867 1.356 . S
C1861 C1860 1.363 . S
C1861 C1864 1.363 . S
N1862 C1864 1.356 . S
N1862 H1874 0.984 . S
N1862 H1875 0.985 . S
N1863 C1865 1.356 . S
N1863 H1868 0.984 . S
N1863 H1869 0.985 . S
C1864 C1858 1.379 . S
C1864 C1861 1.363 . S
C1864 N1862 1.356 . S
C1865 C1859 1.363 . S
C1865 C1860 1.379 . S
C1865 N1863 1.356 . S
N1866 C1858 1.356 . S
N1866 H1872 0.984 . S
N1866 H1873 0.984 . S
N1867 C1860 1.356 . S
N1867 H1870 0.984 . S
N1867 H1871 0.985 . S
H1868 N1863 0.984 . S
H1869 N1863 0.985 . S
H1870 N1867 0.984 . S
H1871 N1867 0.985 . S
H1872 N1866 0.984 . S
H1873 N1866 0.984 . S
H1874 N1862 0.984 . S
H1875 N1862 0.985 . S
C1876 C1877 1.363 . S
C1876 C1882 1.379 . S
C1876 N1884 1.356 . S
C1877 C1876 1.363 . S
C1877 C1883 1.363 . S
C1878 C1879 1.363 . S
C1878 C1883 1.379 . S
C1878 N1885 1.356 . S
C1879 C1878 1.363 . S
C1879 C1882 1.363 . S
N1880 C1882 1.356 . S
N1880 H1892 0.984 . S
N1880 H1893 0.985 . S
N1881 C1883 1.356 . S
N1881 H1886 0.984 . S
N1881 H1887 0.985 . S
C1882 C1876 1.379 . S
C1882 C1879 1.363 . S
C1882 N1880 1.356 . S
C1883 C1877 1.363 . S
C1883 C1878 1.379 . S
C1883 N1881 1.356 . S
N1884 C1876 1.356 . S
N1884 H1890 0.984 . S
N1884 H1891 0.984 . S
N1885 C1878 1.356 . S
N1885 H1888 0.984 . S
N1885 H1889 0.985 . S
H1886 N1881 0.984 . S
H1887 N1881 0.985 . S
H1888 N1885 0.984 . S
H1889 N1885 0.985 . S
H1890 N1884 0.984 . S
H1891 N1884 0.984 . S
H1892 N1880 0.984 . S
H1893 N1880 0.985 . S
C1894 C1895 1.363 . S
C1894 C1900 1.379 . S
C1894 N1902 1.356 . S
C1895 C1894 1.363 . S
C1895 C1901 1.363 . S
C1896 C1897 1.363 . S
C1896 C1901 1.379 . S
C1896 N1903 1.356 . S
C1897 C1896 1.363 . S
C1897 C1900 1.363 . S
N1898 C1900 1.356 . S
N1898 H1910 0.984 . S
N1898 H1911 0.985 . S
N1899 C1901 1.356 . S
N1899 H1904 0.984 . S
N1899 H1905 0.985 . S
C1900 C1894 1.379 . S
C1900 C1897 1.363 . S
C1900 N1898 1.356 . S
C1901 C1895 1.363 . S
C1901 C1896 1.379 . S
C1901 N1899 1.356 . S
N1902 C1894 1.356 . S
N1902 H1908 0.984 . S
N1902 H1909 0.984 . S
N1903 C1896 1.356 . S
N1903 H1906 0.984 . S
N1903 H1907 0.985 . S
H1904 N1899 0.984 . S
H1905 N1899 0.985 . S
H1906 N1903 0.984 . S
H1907 N1903 0.985 . S
H1908 N1902 0.984 . S
H1909 N1902 0.984 . S
H1910 N1898 0.984 . S
H1911 N1898 0.985 . S
C1912 C1913 1.363 . S
C1912 C1918 1.379 1_544 S
C1912 N1920 1.356 . S
C1913 C1912 1.363 . S
C1913 C1919 1.363 . S
C1914 C1915 1.363 . S
C1914 C1919 1.379 1_566 S
C1914 N1921 1.356 . S
C1915 C1914 1.363 . S
C1915 C1918 1.363 . S
N1916 C1918 1.356 . S
N1916 H1928 0.984 . S
N1916 H1929 0.985 . S
N1917 C1919 1.356 . S
N1917 H1922 0.984 . S
N1917 H1923 0.985 . S
C1918 C1912 1.379 1_566 S
C1918 C1915 1.363 . S
C1918 N1916 1.356 . S
C1919 C1913 1.363 . S
C1919 C1914 1.379 1_544 S
C1919 N1917 1.356 . S
N1920 C1912 1.356 . S
N1920 H1926 0.984 . S
N1920 H1927 0.984 . S
N1921 C1914 1.356 . S
N1921 H1924 0.984 . S
N1921 H1925 0.985 . S
H1922 N1917 0.984 . S
H1923 N1917 0.985 . S
H1924 N1921 0.984 . S
H1925 N1921 0.985 . S
H1926 N1920 0.984 . S
H1927 N1920 0.984 . S
H1928 N1916 0.984 . S
H1929 N1916 0.985 . S
C1930 C1931 1.363 1_655 S
C1930 C1936 1.379 1_556 S
C1930 N1938 1.356 . S
C1931 C1930 1.363 1_455 S
C1931 C1937 1.363 . S
C1932 C1933 1.363 1_455 S
C1932 C1937 1.379 1_554 S
C1932 N1939 1.356 . S
C1933 C1932 1.363 1_655 S
C1933 C1936 1.363 . S
N1934 C1936 1.356 . S
N1934 H1946 0.984 . S
N1934 H1947 0.985 . S
N1935 C1937 1.356 . S
N1935 H1940 0.984 . S
N1935 H1941 0.985 . S
C1936 C1930 1.379 1_554 S
C1936 C1933 1.363 . S
C1936 N1934 1.356 . S
C1937 C1931 1.363 . S
C1937 C1932 1.379 1_556 S
C1937 N1935 1.356 . S
N1938 C1930 1.356 . S
N1938 H1944 0.984 . S
N1938 H1945 0.984 1_655 S
N1939 C1932 1.356 . S
N1939 H1942 0.984 1_455 S
N1939 H1943 0.985 . S
H1940 N1935 0.984 . S
H1941 N1935 0.985 . S
H1942 N1939 0.984 1_655 S
H1943 N1939 0.985 . S
H1944 N1938 0.984 . S
H1945 N1938 0.984 1_455 S
H1946 N1934 0.984 . S
H1947 N1934 0.985 . S
C1948 C1949 1.363 . S
C1948 C1954 1.379 1_556 S
C1948 N1956 1.356 . S
C1949 C1948 1.363 . S
C1949 C1955 1.363 1_545 S
C1950 C1951 1.363 . S
C1950 C1955 1.379 1_554 S
C1950 N1957 1.356 . S
C1951 C1950 1.363 . S
C1951 C1954 1.363 1_565 S
N1952 C1954 1.356 . S
N1952 H1964 0.984 . S
N1952 H1965 0.985 1_545 S
N1953 C1955 1.356 . S
N1953 H1958 0.984 1_565 S
N1953 H1959 0.985 . S
C1954 C1948 1.379 1_554 S
C1954 C1951 1.363 1_545 S
C1954 N1952 1.356 . S
C1955 C1949 1.363 1_565 S
C1955 C1950 1.379 1_556 S
C1955 N1953 1.356 . S
N1956 C1948 1.356 . S
N1956 H1962 0.984 . S
N1956 H1963 0.984 . S
N1957 C1950 1.356 . S
N1957 H1960 0.984 . S
N1957 H1961 0.985 . S
H1958 N1953 0.984 1_545 S
H1959 N1953 0.985 . S
H1960 N1957 0.984 . S
H1961 N1957 0.985 . S
H1962 N1956 0.984 . S
H1963 N1956 0.984 . S
H1964 N1952 0.984 . S
H1965 N1952 0.985 1_565 S
C1966 C1967 1.363 1_455 S
C1966 C1972 1.379 1_556 S
C1966 N1974 1.356 . S
C1967 C1966 1.363 1_655 S
C1967 C1973 1.363 . S
C1968 C1969 1.363 1_655 S
C1968 C1973 1.379 1_554 S
C1968 N1975 1.356 . S
C1969 C1968 1.363 1_455 S
C1969 C1972 1.363 . S
N1970 C1972 1.356 . S
N1970 H1982 0.984 . S
N1970 H1983 0.985 . S
N1971 C1973 1.356 . S
N1971 H1976 0.984 . S
N1971 H1977 0.985 . S
C1972 C1966 1.379 1_554 S
C1972 C1969 1.363 . S
C1972 N1970 1.356 . S
C1973 C1967 1.363 . S
C1973 C1968 1.379 1_556 S
C1973 N1971 1.356 . S
N1974 C1966 1.356 . S
N1974 H1980 0.984 . S
N1974 H1981 0.984 1_455 S
N1975 C1968 1.356 . S
N1975 H1978 0.984 1_655 S
N1975 H1979 0.985 . S
H1976 N1971 0.984 . S
H1977 N1971 0.985 . S
H1978 N1975 0.984 1_455 S
H1979 N1975 0.985 . S
H1980 N1974 0.984 . S
H1981 N1974 0.984 1_655 S
H1982 N1970 0.984 . S
H1983 N1970 0.985 . S
C1409 C49 1.120 . S
C1411 C636 1.119 . S
C1427 C145 1.119 . S
C1429 C381 1.120 . S
C1445 C469 1.119 . S
C1447 C196 1.120 . S
C1463 C321 1.119 . S
C1465 C577 1.120 . S
C1481 C753 1.120 . S
C1483 C1340 1.119 . S
C1499 C1085 1.120 . S
C1501 C849 1.119 . S
C1517 C1173 1.119 . S
C1519 C900 1.120 . S
C1535 C1289 1.120 . S
C1537 C1017 1.119 . S
C1553 C20 1.345 . S
C1555 C997 1.472 . S
C1571 C117 1.349 . S
C1573 C761 1.477 . S
C1589 C812 1.472 . S
C1591 C225 1.345 . S
C1607 C293 1.349 . S
C1609 C909 1.477 . S
C1625 C409 1.345 . S
C1627 C1193 1.472 . S
C1643 C1281 1.477 . S
C1645 C497 1.349 . S
C1661 C548 1.345 . S
C1663 C1377 1.472 . S
C1679 C1076 1.477 . S
C1681 C665 1.349 . S
C1697 C724 1.345 . S
C1699 C284 1.472 . S
C1715 C57 1.477 . S
C1717 C821 1.349 . S
C1733 C929 1.345 . S
C1735 C108 1.472 . S
C1751 C205 1.477 . S
C1753 C988 1.349 . S
C1769 C1113 1.345 . S
C1771 C489 1.472 . S
C1787 C585 1.477 . S
C1789 C1201 1.349 . S
C1805 C673 1.472 . S
C1807 C1261 1.345 . S
C1823 C372 1.477 . S
C1825 C1369 1.349 . S
C1841 C401 1.687 . S
C1843 C29 1.687 . S
C1859 C460 1.683 . S
C1861 C137 1.683 . S
C1877 C233 1.687 . S
C1879 C557 1.687 . S
C1895 C645 1.683 . S
C1897 C313 1.683 . S
C1913 C1105 1.687 . S
C1915 C733 1.687 . S
C1931 C1164 1.683 . S
C1933 C841 1.683 . S
C1949 C937 1.687 . S
C1951 C1252 1.687 . S
C1967 C1349 1.683 . S
C1969 C1025 1.683 . S
