# Generated by pormake.
# Topology sra, (4)-cn, num edge types: 1
# Building blocks:
#     Node 0, Type 0, BuildingBlock: ICAMEG_clean_sbu_1, # of connection points: 4
#     Node 1, Type 0, BuildingBlock: ICAMEG_clean_sbu_1, # of connection points: 4
#     Node 2, Type 0, BuildingBlock: ICAMEG_clean_sbu_1, # of connection points: 4
#     Node 3, Type 0, BuildingBlock: ICAMEG_clean_sbu_1, # of connection points: 4
#     Node 4, Type 0, BuildingBlock: ICAMEG_clean_sbu_1, # of connection points: 4
#     Node 5, Type 0, BuildingBlock: ICAMEG_clean_sbu_1, # of connection points: 4
#     Node 6, Type 0, BuildingBlock: ICAMEG_clean_sbu_1, # of connection points: 4
#     Node 7, Type 0, BuildingBlock: ICAMEG_clean_sbu_1, # of connection points: 4
#     Edge 8, Type (0, 0), BuildingBlock: CIFDUS_clean_linker_0, # of connection points: 2
#     Edge 9, Type (0, 0), BuildingBlock: CIFDUS_clean_linker_0, # of connection points: 2
#     Edge 10, Type (0, 0), BuildingBlock: CIFDUS_clean_linker_0, # of connection points: 2
#     Edge 11, Type (0, 0), BuildingBlock: CIFDUS_clean_linker_0, # of connection points: 2
#     Edge 12, Type (0, 0), BuildingBlock: CIFDUS_clean_linker_0, # of connection points: 2
#     Edge 13, Type (0, 0), BuildingBlock: CIFDUS_clean_linker_0, # of connection points: 2
#     Edge 14, Type (0, 0), BuildingBlock: CIFDUS_clean_linker_0, # of connection points: 2
#     Edge 15, Type (0, 0), BuildingBlock: CIFDUS_clean_linker_0, # of connection points: 2
#     Edge 16, Type (0, 0), BuildingBlock: CIFDUS_clean_linker_0, # of connection points: 2
#     Edge 17, Type (0, 0), BuildingBlock: CIFDUS_clean_linker_0, # of connection points: 2
#     Edge 18, Type (0, 0), BuildingBlock: CIFDUS_clean_linker_0, # of connection points: 2
#     Edge 19, Type (0, 0), BuildingBlock: CIFDUS_clean_linker_0, # of connection points: 2
#     Edge 20, Type (0, 0), BuildingBlock: CIFDUS_clean_linker_0, # of connection points: 2
#     Edge 21, Type (0, 0), BuildingBlock: CIFDUS_clean_linker_0, # of connection points: 2
#     Edge 22, Type (0, 0), BuildingBlock: CIFDUS_clean_linker_0, # of connection points: 2
#     Edge 23, Type (0, 0), BuildingBlock: CIFDUS_clean_linker_0, # of connection points: 2
# Relax obj value: 0.022
# Max RMSD: 0.061
# Mean RMSD: 0.061
data_MOF--net-sra--node1-ICAMEG_clean_sbu_1--edge1-CIFDUS_clean_linker_0
_symmetry_space_group_name_H-M    P1
_symmetry_Int_Tables_number       1
_symmetry_cell_setting            triclinic
loop_
_symmetry_equiv_pos_as_xyz
'x, y, z'
_cell_length_a     26.447407
_cell_length_b     49.336123
_cell_length_c     27.379522
_cell_angle_alpha  90.165051
_cell_angle_beta   90.012832
_cell_angle_gamma 90.145946
loop_
_atom_site_label
_atom_site_type_symbol
_atom_site_fract_x
_atom_site_fract_y
_atom_site_fract_z
_atom_type_partial_charge
Co0 Co 0.02926 0.12021 0.23016 0.0
Co1 Co 0.99344 0.13276 0.11031 0.0
O2 O 0.03402 0.11381 0.15938 0.0
C3 C 0.13718 0.13064 0.20663 0.0
O4 O 0.12086 0.14336 0.16771 0.0
C5 C 0.97615 0.07398 0.08537 0.0
O6 O 0.97191 0.06833 0.13203 0.0
O7 O 0.92993 0.12521 0.14764 0.0
O8 O 0.95333 0.12114 0.22628 0.0
H9 H 0.85993 0.19796 0.05459 0.0
H10 H 0.09 0.0742 0.19303 0.0
O11 O 0.10559 0.11973 0.23592 0.0
H12 H 0.95747 0.03299 0.29567 0.0
H13 H 0.07861 0.10545 0.40566 0.0
H14 H 0.9668 0.15554 0.29373 0.0
H15 H 0.96236 0.08261 0.28589 0.0
H16 H 0.08315 0.09779 0.31668 0.0
O17 O 0.98418 0.09829 0.07178 0.0
H18 H 0.91266 0.17411 0.11502 0.0
H19 H 0.98697 0.13114 1.00128 0.0
H20 H 0.96064 0.16365 0.38246 0.0
H21 H 0.08674 0.02447 0.20209 0.0
H22 H 0.01685 0.13851 0.43909 0.0
H23 H 0.02001 1.00357 0.25364 0.0
O24 O 0.03187 0.1603 0.22169 0.0
H25 H 0.16142 0.10817 0.03715 0.0
H26 H 0.03709 0.1813 0.06064 0.0
H27 H 0.1167 0.19099 0.01709 0.0
H28 H 0.17953 0.15422 1.00505 0.0
H29 H 0.08163 0.09955 0.08115 0.0
H30 H 0.93472 0.15431 0.93967 0.0
H31 H 0.8708 0.18809 0.9662 0.0
O32 O 1.00273 0.16801 0.14587 0.0
C33 C 0.9195 0.1224 0.19297 0.0
C34 C 0.88775 0.18333 0.04256 0.0
C35 C 0.92966 0.1588 0.97808 0.0
N36 N 0.95304 0.15137 0.06171 0.0
C37 C 0.9178 0.16983 0.0766 0.0
C38 C 0.95902 0.14567 0.01315 0.0
C39 C 0.89382 0.17776 0.99298 0.0
C40 C 0.06115 0.06524 0.21586 0.0
N41 N 0.02659 0.08127 0.23909 0.0
C42 C 0.05936 0.03708 0.22071 0.0
C43 C 0.02187 0.02536 0.24958 0.0
C44 C 0.98674 0.04186 0.27315 0.0
C45 C 0.98964 0.06994 0.26738 0.0
C46 C 0.05386 0.1165 0.38137 0.0
C47 C 0.99116 0.14441 0.31816 0.0
C48 C 0.05634 0.11229 0.33096 0.0
N49 N 0.02504 0.12608 0.3001 0.0
C50 C 0.9876 0.14914 0.36836 0.0
C51 C 0.01919 0.13505 0.4001 0.0
C52 C 0.01883 0.17621 0.18736 0.0
C53 C 0.1344 0.12437 0.04223 0.0
C54 C 0.06454 0.16534 0.05614 0.0
C55 C 0.10939 0.17087 0.03112 0.0
C56 C 0.14456 0.15022 0.02429 0.0
N57 N 0.05499 0.14 0.07395 0.0
C58 C 0.0891 0.11959 0.06701 0.0
Co59 Co 0.04142 0.38777 0.24003 0.0
Co60 Co 0.0704 0.38868 0.11674 0.0
O61 O 0.03101 0.40125 0.17322 0.0
C62 C 0.93167 0.37888 0.22495 0.0
O63 O 0.94153 0.36985 0.18083 0.0
C64 C 0.08194 0.44891 0.1092 0.0
O65 O 0.0906 0.45006 0.1564 0.0
O66 O 0.1354 0.39553 0.15215 0.0
O67 O 0.11589 0.38783 0.2307 0.0
H68 H 0.20744 0.33525 0.034 0.0
H69 H 0.97916 0.43658 0.22277 0.0
O70 O 0.9671 0.38746 0.25231 0.0
H71 H 0.11768 0.46707 0.33044 0.0
H72 H 0.00806 0.38393 0.42102 0.0
H73 H 0.10769 0.3463 0.28465 0.0
H74 H 0.11158 0.41929 0.30449 0.0
H75 H 0.99611 0.40087 0.33716 0.0
O76 O 0.07265 0.42624 0.08878 0.0
H77 H 0.15675 0.35121 0.10397 0.0
H78 H 0.06779 0.39985 0.00955 0.0
H79 H 0.12118 0.32895 0.36804 0.0
H80 H 0.98348 0.48454 0.24821 0.0
H81 H 0.07113 0.34779 0.43692 0.0
H82 H 0.05324 0.50007 0.30231 0.0
O83 O 0.03742 0.34922 0.21752 0.0
H84 H 0.89545 0.4127 0.06048 0.0
H85 H 0.02806 0.34269 0.05802 0.0
H86 H 0.94689 0.33383 0.01662 0.0
H87 H 0.87989 0.36903 0.01761 0.0
H88 H 0.97706 0.42054 0.1019 0.0
H89 H 0.11781 0.38463 0.93864 0.0
H90 H 0.18808 0.35201 0.95061 0.0
O91 O 0.06868 0.35065 0.14142 0.0
C92 C 0.14775 0.39258 0.19695 0.0
C93 C 0.17684 0.34942 0.0283 0.0
C94 C 0.12658 0.37717 0.97479 0.0
N95 N 0.10921 0.37633 0.06084 0.0
C96 C 0.14794 0.35848 0.06776 0.0
C97 C 0.09849 0.38578 0.01511 0.0
C98 C 0.16599 0.35885 0.98153 0.0
C99 C 0.00942 0.44316 0.24659 0.0
N100 N 0.04511 0.42515 0.26208 0.0
C101 C 0.01176 0.47035 0.26076 0.0
C102 C 0.05094 0.47906 0.29105 0.0
C103 C 0.08714 0.46056 0.30681 0.0
C104 C 0.08363 0.43354 0.29183 0.0
C105 C 0.03015 0.37559 0.39133 0.0
C106 C 0.08597 0.3547 0.31449 0.0
C107 C 0.02346 0.38505 0.34374 0.0
N108 N 0.0514 0.37469 0.30609 0.0
C109 C 0.09368 0.34475 0.3616 0.0
C110 C 0.06556 0.35532 0.40022 0.0
C111 C 0.05266 0.33762 0.17851 0.0
C112 C 0.92436 0.39721 0.05975 0.0
C113 C 0.99901 0.35799 0.05897 0.0
C114 C 0.95317 0.35293 0.03525 0.0
C115 C 0.91563 0.37269 0.03576 0.0
N116 N 0.00728 0.38207 0.08247 0.0
C117 C 0.9707 0.40157 0.083 0.0
Co118 Co 0.02303 0.89314 0.76916 0.0
Co119 Co 0.99017 0.88241 0.89025 0.0
O120 O 0.02912 0.90114 0.83937 0.0
C121 C 0.13177 0.88553 0.78652 0.0
O122 O 0.11998 0.8726 0.8268 0.0
C123 C 0.97271 0.94145 0.91372 0.0
O124 O 0.96846 0.94694 0.867 0.0
O125 O 0.92538 0.88859 0.85399 0.0
O126 O 0.94903 0.88914 0.77503 0.0
H127 H 0.86064 0.81611 0.95153 0.0
H128 H 0.07921 0.94211 0.80086 0.0
O129 O 0.09755 0.89636 0.76058 0.0
H130 H 0.93775 0.97597 0.70097 0.0
H131 H 0.06424 0.90635 0.59124 0.0
H132 H 0.96414 0.8537 0.70985 0.0
H133 H 0.94934 0.9269 0.71362 0.0
H134 H 0.07026 0.91619 0.67942 0.0
O135 O 0.98062 0.9172 0.92761 0.0
H136 H 0.91112 0.83983 0.88903 0.0
H137 H 0.9859 0.88547 0.99935 0.0
H138 H 0.9567 0.84334 0.62198 0.0
H139 H 0.06931 0.99136 0.78878 0.0
H140 H 0.00702 0.86975 0.56199 0.0
H141 H 0.99806 1.00857 0.73864 0.0
O142 O 0.03078 0.8535 0.78043 0.0
H143 H 0.15946 0.90995 0.9576 0.0
H144 H 0.03613 0.83536 0.94228 0.0
H145 H 0.11701 0.82728 0.98456 0.0
H146 H 0.17934 0.86479 0.99251 0.0
H147 H 0.07839 0.91694 0.91496 0.0
H148 H 0.93581 0.86249 0.06296 0.0
H149 H 0.8728 0.82743 0.03921 0.0
O150 O 0.99996 0.84677 0.85601 0.0
C151 C 0.91568 0.88874 0.8083 0.0
C152 C 0.88805 0.83131 0.96235 0.0
C153 C 0.93017 0.85738 0.02488 0.0
N154 N 0.95156 0.86394 0.9405 0.0
C155 C 0.91683 0.84475 0.92713 0.0
C156 C 0.95827 0.87041 0.98866 0.0
C157 C 0.89485 0.83769 0.01153 0.0
C158 C 0.04842 0.94945 0.7786 0.0
N159 N 0.01506 0.93167 0.75779 0.0
C160 C 0.04288 0.97736 0.77206 0.0
C161 C 1.00284 0.987 0.74398 0.0
C162 C 0.96897 0.96872 0.72286 0.0
C163 C 0.97566 0.94096 0.73025 0.0
C164 C 0.04207 0.89473 0.61701 0.0
C165 C 0.98596 0.86539 0.68397 0.0
C166 C 0.04539 0.90017 0.667 0.0
N167 N 0.01738 0.88563 0.69975 0.0
C168 C 0.98167 0.85938 0.63426 0.0
C169 C 0.00995 0.87419 0.60063 0.0
C170 C 0.01759 0.83805 0.81546 0.0
C171 C 0.13269 0.89341 0.95425 0.0
C172 C 0.06338 0.85161 0.9449 0.0
C173 C 0.10894 0.847 0.96925 0.0
C174 C 0.14384 0.86807 0.97378 0.0
N175 N 0.05284 0.87644 0.92553 0.0
C176 C 0.08669 0.89726 0.9302 0.0
Co177 Co 0.044 0.62615 0.77636 0.0
Co178 Co 0.0725 0.62736 0.89985 0.0
O179 O 0.03365 0.61369 0.84378 0.0
C180 C 0.93484 0.63569 0.79124 0.0
O181 O 0.94557 0.6456 0.83459 0.0
C182 C 0.08489 0.56736 0.90895 0.0
O183 O 0.09335 0.56602 0.86174 0.0
O184 O 0.13792 0.621 0.86492 0.0
O185 O 0.11834 0.62651 0.78578 0.0
H186 H 0.20726 0.68348 0.98116 0.0
H187 H 0.98142 0.57753 0.79561 0.0
O188 O 0.96965 0.62617 0.76425 0.0
H189 H 0.12065 0.54567 0.69051 0.0
H190 H 0.01043 0.62705 0.59527 0.0
H191 H 0.11028 0.66707 0.72957 0.0
H192 H 0.11456 0.59382 0.71409 0.0
H193 H 0.99858 0.61142 0.68 0.0
O194 O 0.0758 0.59011 0.92906 0.0
H195 H 0.15735 0.66614 0.91159 0.0
H196 H 0.07015 0.61718 0.00737 0.0
H197 H 0.12366 0.68313 0.64532 0.0
H198 H 0.98575 0.5292 0.77255 0.0
H199 H 0.0735 0.66308 0.57747 0.0
H200 H 0.05587 0.51299 0.71975 0.0
O201 O 0.04015 0.665 0.79684 0.0
H202 H 0.898 0.60196 0.95613 0.0
H203 H 0.02865 0.67339 0.957 0.0
H204 H 0.94705 0.68177 0.99775 0.0
H205 H 0.88103 0.64587 0.99755 0.0
H206 H 0.98 0.5946 0.91535 0.0
H207 H 0.11942 0.63378 0.07789 0.0
H208 H 0.18841 0.66726 0.06502 0.0
O209 O 0.06956 0.66507 0.87372 0.0
C210 C 0.15027 0.62311 0.81995 0.0
C211 C 0.17722 0.66894 0.98725 0.0
C212 C 0.12797 0.64102 0.04152 0.0
N213 N 0.11072 0.64078 0.95542 0.0
C214 C 0.14875 0.6591 0.94802 0.0
C215 C 0.10029 0.63163 1.00142 0.0
C216 C 0.16665 0.65981 0.03429 0.0
C217 C 0.01181 0.57064 0.77232 0.0
N218 N 0.04767 0.58847 0.7562 0.0
C219 C 0.01416 0.54325 0.75951 0.0
C220 C 0.05355 0.53416 0.72994 0.0
C221 C 0.08994 0.55248 0.71356 0.0
C222 C 0.0864 0.57971 0.72718 0.0
C223 C 0.03257 0.63591 0.62451 0.0
C224 C 0.08851 0.65814 0.7002 0.0
C225 C 0.02594 0.62719 0.67258 0.0
N226 N 0.05394 0.63821 0.70965 0.0
C227 C 0.09616 0.66736 0.65259 0.0
C228 C 0.06797 0.65612 0.61455 0.0
C229 C 0.05425 0.67733 0.83555 0.0
C230 C 0.92647 0.61776 0.95651 0.0
C231 C 1.00002 0.65777 0.95641 0.0
C232 C 0.95395 0.66257 0.97975 0.0
C233 C 0.91695 0.64241 0.97968 0.0
N234 N 0.00907 0.63357 0.93369 0.0
C235 C 0.97303 0.61367 0.93361 0.0
Co236 Co 0.53122 0.6311 0.7421 0.0
Co237 Co 0.50272 0.63139 0.61865 0.0
O238 O 0.54184 0.6183 0.67475 0.0
C239 C 0.64077 0.64014 0.72721 0.0
O240 O 0.63069 0.64941 0.68339 0.0
C241 C 0.49103 0.57125 0.60917 0.0
O242 O 0.48224 0.56997 0.65632 0.0
O243 O 0.43755 0.62438 0.65355 0.0
O244 O 0.45684 0.63106 0.73253 0.0
H245 H 0.36655 0.68593 0.53743 0.0
H246 H 0.59386 0.58257 0.72304 0.0
O247 O 0.6055 0.6314 0.75448 0.0
H248 H 0.4548 0.55076 0.82843 0.0
H249 H 0.56426 0.63305 0.92327 0.0
H250 H 0.4646 0.67197 0.78845 0.0
H251 H 0.46084 0.59882 0.80467 0.0
H252 H 0.57648 0.61707 0.83868 0.0
O253 O 0.50033 0.594 0.58927 0.0
H254 H 0.41683 0.66923 0.60698 0.0
H255 H 0.50545 0.62101 0.51109 0.0
H256 H 0.45084 0.68838 0.87258 0.0
H257 H 0.5896 0.53434 0.74628 0.0
H258 H 0.5009 0.66889 0.94069 0.0
H259 H 0.51957 0.51815 0.79921 0.0
O260 O 0.53505 0.6699 0.7214 0.0
H261 H 0.6776 0.60749 0.56183 0.0
H262 H 0.54555 0.67782 0.56193 0.0
H263 H 0.62686 0.68686 0.52102 0.0
H264 H 0.69357 0.6515 0.52072 0.0
H265 H 0.59587 0.59946 0.60278 0.0
H266 H 0.45583 0.63697 0.44059 0.0
H267 H 0.38595 0.66976 0.45352 0.0
O268 O 0.50463 0.66923 0.64491 0.0
C269 C 0.42507 0.62681 0.69844 0.0
C270 C 0.39699 0.67169 0.53132 0.0
C271 C 0.44705 0.64419 0.47697 0.0
N272 N 0.46419 0.64429 0.5631 0.0
C273 C 0.42566 0.66222 0.57054 0.0
C274 C 0.47491 0.63516 0.51707 0.0
C275 C 0.40786 0.66259 0.48425 0.0
C276 C 0.5635 0.5757 0.74638 0.0
N277 N 0.52764 0.5935 0.76247 0.0
C278 C 0.56119 0.54836 0.75929 0.0
C279 C 0.52185 0.53928 0.78894 0.0
C280 C 0.48547 0.55756 0.8053 0.0
C281 C 0.48896 0.58475 0.79158 0.0
C282 C 0.54216 0.64168 0.89392 0.0
C283 C 0.48633 0.66328 0.81794 0.0
C284 C 0.549 0.63275 0.84592 0.0
N285 N 0.52104 0.64346 0.8087 0.0
C286 C 0.47846 0.6727 0.86548 0.0
C287 C 0.50659 0.66177 0.90367 0.0
C288 C 0.52017 0.6819 0.68279 0.0
C289 C 0.64881 0.62305 0.56166 0.0
C290 C 0.57448 0.66244 0.5623 0.0
C291 C 0.62039 0.66761 0.53887 0.0
C292 C 0.65778 0.64776 0.53866 0.0
N293 N 0.56598 0.63817 0.58483 0.0
C294 C 0.60241 0.61858 0.58465 0.0
Co295 Co 0.53317 0.89973 0.74334 0.0
Co296 Co 0.56419 0.88749 0.62182 0.0
O297 O 0.52374 0.90541 0.67277 0.0
C298 C 0.42628 0.8846 0.72774 0.0
O299 O 0.43912 0.87319 0.68621 0.0
C300 C 0.57769 0.94645 0.59665 0.0
O301 O 0.58455 0.95234 0.643 0.0
O302 O 0.62884 0.89633 0.65683 0.0
O303 O 0.60706 0.90266 0.73553 0.0
H304 H 0.69994 0.8251 0.56033 0.0
H305 H 0.46372 0.94247 0.70842 0.0
O306 O 0.45893 0.89678 0.75383 0.0
H307 H 0.59312 0.99044 0.80564 0.0
H308 H 0.49268 0.91322 0.92153 0.0
H309 H 0.60438 0.86752 0.80309 0.0
H310 H 0.59587 0.94073 0.79647 0.0
H311 H 0.48158 0.92033 0.83305 0.0
O312 O 0.56932 0.92206 0.58354 0.0
H313 H 0.6479 0.84778 0.62296 0.0
H314 H 0.56636 0.88935 0.51262 0.0
H315 H 0.61708 0.86001 0.89129 0.0
H316 H 0.45925 0.99221 0.71697 0.0
H317 H 0.56095 0.88294 0.95117 0.0
H318 H 0.52438 0.01652 0.76578 0.0
O319 O 0.53624 0.8594 0.73505 0.0
H320 H 0.3913 0.90845 0.5562 0.0
H321 H 0.52253 0.83828 0.57198 0.0
H322 H 0.44196 0.82696 0.53135 0.0
H323 H 0.37564 0.86223 0.52319 0.0
H324 H 0.4722 0.9187 0.59721 0.0
H325 H 0.61786 0.86736 0.44885 0.0
H326 H 0.68507 0.83487 0.47255 0.0
O327 O 0.55888 0.85222 0.65702 0.0
C328 C 0.63942 0.90154 0.70141 0.0
C329 C 0.6707 0.83917 0.54953 0.0
C330 C 0.6247 0.86293 0.48697 0.0
N331 N 0.60402 0.8698 0.57149 0.0
C332 C 0.64104 0.85203 0.58483 0.0
C333 C 0.5958 0.87542 0.52327 0.0
C334 C 0.66237 0.84469 0.50029 0.0
C335 C 0.49195 0.9529 0.73001 0.0
N336 N 0.52989 0.93872 0.75203 0.0
C337 C 0.48933 0.98107 0.7346 0.0
C338 C 0.52592 0.9947 0.76195 0.0
C339 C 0.56451 0.98008 0.7843 0.0
C340 C 0.56594 0.95194 0.77887 0.0
C341 C 0.51743 0.90315 0.8958 0.0
C342 C 0.58001 0.8777 0.82896 0.0
C343 C 0.51126 0.90705 0.84565 0.0
N344 N 0.54252 0.89449 0.81296 0.0
C345 C 0.58729 0.87331 0.87883 0.0
C346 C 0.55575 0.88616 0.91241 0.0
C347 C 0.54716 0.8437 0.69948 0.0
C348 C 0.41983 0.89288 0.55965 0.0
C349 C 0.49358 0.85357 0.56926 0.0
C350 C 0.44818 0.84713 0.54584 0.0
C351 C 0.41104 0.86694 0.54119 0.0
N352 N 0.50179 0.87898 0.58762 0.0
C353 C 0.46574 0.89858 0.58278 0.0
Co354 Co 0.52846 0.39178 0.27608 0.0
Co355 Co 0.49985 0.39211 0.39955 0.0
O356 O 0.53908 0.40493 0.34321 0.0
C357 C 0.63779 0.38207 0.29079 0.0
O358 O 0.62739 0.37262 0.33444 0.0
C359 C 0.48897 0.4524 0.40808 0.0
O360 O 0.48062 0.45363 0.36085 0.0
O361 O 0.4346 0.39866 0.36443 0.0
O362 O 0.4541 0.39189 0.28553 0.0
H363 H 0.36356 0.33779 0.48179 0.0
H364 H 0.59176 0.44031 0.29434 0.0
O365 O 0.60279 0.39132 0.26381 0.0
H366 H 0.45331 0.47171 0.18812 0.0
H367 H 0.56165 0.38882 0.09498 0.0
H368 H 0.46142 0.35069 0.23034 0.0
H369 H 0.45859 0.4238 0.21282 0.0
H370 H 0.57394 0.40528 0.1793 0.0
O371 O 0.49755 0.42965 0.42821 0.0
H372 H 0.41391 0.35413 0.41194 0.0
H373 H 0.50256 0.40317 0.50691 0.0
H374 H 0.44758 0.33382 0.1465 0.0
H375 H 0.58826 0.48841 0.27015 0.0
H376 H 0.49793 0.35291 0.07812 0.0
H377 H 0.51854 0.5044 0.21678 0.0
O378 O 0.53166 0.35309 0.29748 0.0
H379 H 0.675 0.41669 0.45539 0.0
H380 H 0.54248 0.34628 0.45767 0.0
H381 H 0.62385 0.33767 0.49864 0.0
H382 H 0.6908 0.37306 0.49774 0.0
H383 H 0.59321 0.42429 0.4144 0.0
H384 H 0.45286 0.38756 0.57769 0.0
H385 H 0.38292 0.35454 0.56538 0.0
O386 O 0.50173 0.35414 0.37413 0.0
C387 C 0.42222 0.396 0.31953 0.0
C388 C 0.39401 0.35213 0.48763 0.0
C389 C 0.44408 0.38009 0.54145 0.0
N390 N 0.46128 0.37948 0.45534 0.0
C391 C 0.42273 0.3614 0.44825 0.0
C392 C 0.47199 0.38893 0.5012 0.0
C393 C 0.40487 0.36156 0.53452 0.0
C394 C 0.56152 0.44709 0.27082 0.0
N395 N 0.52541 0.42926 0.25503 0.0
C396 C 0.55965 0.47436 0.25737 0.0
C397 C 0.52048 0.48332 0.22748 0.0
C398 C 0.48384 0.465 0.21143 0.0
C399 C 0.4869 0.4379 0.22569 0.0
C400 C 0.53943 0.38037 0.12445 0.0
C401 C 0.48328 0.35921 0.20074 0.0
C402 C 0.54631 0.38956 0.1723 0.0
N403 N 0.51821 0.37906 0.20967 0.0
C404 C 0.47536 0.34952 0.15336 0.0
C405 C 0.50366 0.36023 0.11502 0.0
C406 C 0.51691 0.3413 0.33639 0.0
C407 C 0.64612 0.40111 0.45607 0.0
C408 C 0.57152 0.36167 0.45676 0.0
C409 C 0.61746 0.35674 0.48023 0.0
C410 C 0.65499 0.37662 0.47977 0.0
N411 N 0.56311 0.38571 0.43353 0.0
C412 C 0.59968 0.40533 0.43306 0.0
Co413 Co 0.53238 0.12379 0.27741 0.0
Co414 Co 0.56869 0.136 0.39739 0.0
O415 O 0.52753 0.11726 0.34812 0.0
C416 C 0.42427 0.13373 0.30102 0.0
O417 O 0.4403 0.14657 0.34012 0.0
C418 C 0.58269 0.0771 0.42212 0.0
O419 O 0.5845 0.07102 0.37543 0.0
O420 O 0.63191 0.12801 0.35999 0.0
O421 O 0.60834 0.12465 0.28127 0.0
H422 H 0.70418 0.20049 0.45339 0.0
H423 H 0.47126 0.07763 0.31367 0.0
O424 O 0.45609 0.12316 0.27159 0.0
H425 H 0.60337 0.03675 0.21016 0.0
H426 H 0.48308 0.10939 0.10159 0.0
H427 H 0.59511 0.15931 0.21454 0.0
H428 H 0.59896 0.08633 0.22096 0.0
H429 H 0.47838 0.10151 0.19042 0.0
O430 O 0.57712 0.10162 0.43568 0.0
H431 H 0.65062 0.17689 0.39287 0.0
H432 H 0.57531 0.13444 0.50644 0.0
H433 H 0.60142 0.16762 0.12595 0.0
H434 H 0.47401 0.02795 0.30354 0.0
H435 H 0.5451 0.14257 0.06882 0.0
H436 H 0.54053 1.0072 0.25157 0.0
O437 O 0.53003 0.1639 0.28663 0.0
H438 H 0.39992 0.11229 0.47002 0.0
H439 H 0.52669 0.18464 0.44835 0.0
H440 H 0.4474 0.19471 0.49209 0.0
H441 H 0.38334 0.15833 0.50322 0.0
H442 H 0.47941 0.10332 0.42583 0.0
H443 H 0.62839 0.15735 0.56811 0.0
H444 H 0.69324 0.19074 0.54172 0.0
O445 O 0.56035 0.17126 0.36221 0.0
C446 C 0.64221 0.12536 0.31459 0.0
C447 C 0.67596 0.18604 0.46536 0.0
C448 C 0.63349 0.16179 0.52974 0.0
N449 N 0.60969 0.15443 0.44609 0.0
C450 C 0.64543 0.17268 0.43127 0.0
C451 C 0.60367 0.14881 0.49462 0.0
C452 C 0.66984 0.18054 0.5149 0.0
C453 C 0.50001 0.06876 0.29064 0.0
N454 N 0.53474 0.08486 0.26777 0.0
C455 C 0.50151 0.04061 0.2852 0.0
C456 C 0.53889 0.02898 0.25609 0.0
C457 C 0.57419 0.04555 0.23287 0.0
C458 C 0.57157 0.07361 0.23923 0.0
C459 C 0.50788 0.1204 0.12611 0.0
C460 C 0.5707 0.14821 0.18988 0.0
C461 C 0.5053 0.11607 0.17644 0.0
N462 N 0.53667 0.12982 0.20758 0.0
C463 C 0.57434 0.15306 0.13977 0.0
C464 C 0.5427 0.13901 0.10774 0.0
C465 C 0.5439 0.17967 0.32112 0.0
C466 C 0.42746 0.12834 0.46531 0.0
C467 C 0.49867 0.16888 0.45236 0.0
C468 C 0.45402 0.17461 0.47753 0.0
C469 C 0.41816 0.15418 0.48386 0.0
N470 N 0.50736 0.14357 0.4339 0.0
C471 C 0.4726 0.12336 0.4404 0.0
H472 H 0.02988 0.30007 0.24975 0.0
H473 H 0.07105 0.30701 0.09746 0.0
H474 H 0.06251 0.25848 0.08709 0.0
H475 H 0.04272 0.21401 0.11998 0.0
H476 H 0.0078 0.20494 0.27271 0.0
H477 H 0.01491 0.25417 0.28421 0.0
C478 C 0.03703 0.29097 0.21433 0.0
C479 C 0.0501 0.30754 0.1743 0.0
C480 C 0.03321 0.26258 0.20859 0.0
C481 C 0.06002 0.29514 0.12889 0.0
C482 C 0.05532 0.26722 0.12279 0.0
C483 C 0.03635 0.22273 0.15573 0.0
C484 C 0.02406 0.20584 0.19517 0.0
C485 C 0.04159 0.2508 0.16218 0.0
C486 C 0.01718 0.21752 0.24162 0.0
C487 C 0.02117 0.24567 0.24818 0.0
H488 H 0.03873 0.80169 0.88612 0.0
H489 H 0.01196 0.8077 0.73136 0.0
H490 H 0.02067 0.75838 0.72321 0.0
H491 H 0.03462 0.71331 0.76115 0.0
H492 H 0.06784 0.7095 0.9156 0.0
H493 H 0.05786 0.75811 0.92261 0.0
C494 C 0.03462 0.79232 0.85062 0.0
C495 C 0.02412 0.80837 0.80963 0.0
C496 C 0.04079 0.76422 0.84614 0.0
C497 C 0.01996 0.7958 0.76362 0.0
C498 C 0.02486 0.76759 0.75897 0.0
C499 C 0.03972 0.72312 0.79631 0.0
C500 C 0.05097 0.70742 0.83792 0.0
C501 C 0.0351 0.75153 0.80012 0.0
C502 C 0.05829 0.7207 0.88299 0.0
C503 C 0.05274 0.74866 0.88715 0.0
H504 H 0.54074 0.71882 0.75638 0.0
H505 H 0.50309 0.71332 0.60294 0.0
H506 H 0.50997 0.76199 0.59517 0.0
H507 H 0.52688 0.80607 0.63052 0.0
H508 H 0.55856 0.81413 0.7842 0.0
H509 H 0.5535 0.76463 0.79332 0.0
C510 C 0.53404 0.72828 0.72127 0.0
C511 C 0.52231 0.71205 0.68015 0.0
C512 C 0.53693 0.75679 0.71701 0.0
C513 C 0.513 0.72489 0.63517 0.0
C514 C 0.51676 0.7529 0.63058 0.0
C515 C 0.53296 0.79716 0.66603 0.0
C516 C 0.54368 0.81386 0.70639 0.0
C517 C 0.52895 0.76899 0.67105 0.0
C518 C 0.55037 0.80176 0.7524 0.0
C519 C 0.54753 0.77345 0.75759 0.0
H520 H 0.53475 0.30409 0.26294 0.0
H521 H 0.50205 0.31028 0.41728 0.0
H522 H 0.50913 0.26164 0.42567 0.0
H523 H 0.5252 0.21733 0.39047 0.0
H524 H 0.55142 0.20885 0.23595 0.0
H525 H 0.54589 0.25824 0.2263 0.0
C526 C 0.52918 0.29479 0.29837 0.0
C527 C 0.5189 0.31118 0.33955 0.0
C528 C 0.53205 0.26633 0.303 0.0
C529 C 0.51092 0.29856 0.38498 0.0
C530 C 0.51478 0.27057 0.38994 0.0
C531 C 0.52993 0.22617 0.35469 0.0
C532 C 0.53933 0.20939 0.31421 0.0
C533 C 0.52563 0.25431 0.34938 0.0
C534 C 0.54425 0.22131 0.26782 0.0
C535 C 0.54117 0.24955 0.26233 0.0
H536 H 0.37674 0.13 0.21275 0.0
H537 H 0.34784 0.13322 0.36764 0.0
H538 H 0.25676 0.13075 0.35254 0.0
H539 H 0.18472 0.12895 0.29509 0.0
H540 H 0.21357 0.13008 0.14012 0.0
H541 H 0.30473 0.12949 0.1553 0.0
C542 C 0.35045 0.13 0.24316 0.0
C543 C 0.3691 0.13166 0.29127 0.0
C544 C 0.29794 0.1294 0.23413 0.0
C545 C 0.33451 0.13203 0.33026 0.0
C546 C 0.28238 0.13057 0.32165 0.0
C547 C 0.21103 0.12887 0.2647 0.0
C548 C 0.19237 0.12939 0.21653 0.0
C549 C 0.26356 0.12942 0.27374 0.0
C550 C 0.22694 0.12972 0.17753 0.0
C551 C 0.27911 0.12936 0.18619 0.0
H552 H 0.72593 0.379 0.34178 0.0
H553 H 0.66606 0.38294 0.19535 0.0
H554 H 0.75136 0.3813 0.16176 0.0
H555 H 0.84344 0.37929 0.17377 0.0
H556 H 0.90343 0.37792 0.32031 0.0
H557 H 0.81803 0.37796 0.35385 0.0
C558 C 0.73164 0.37941 0.30255 0.0
C559 C 0.68979 0.38106 0.27119 0.0
C560 C 0.78092 0.37894 0.28338 0.0
C561 C 0.69771 0.38184 0.22038 0.0
C562 C 0.74648 0.38082 0.20105 0.0
C563 C 0.8377 0.37887 0.213 0.0
C564 C 0.87961 0.37855 0.24444 0.0
C565 C 0.78842 0.37944 0.23217 0.0
C566 C 0.87173 0.37832 0.29526 0.0
C567 C 0.8229 0.37828 0.31454 0.0
H568 H 0.21821 0.88104 0.83931 0.0
H569 H 0.1622 0.88973 0.69217 0.0
H570 H 0.24831 0.88849 0.6604 0.0
H571 H 0.34 0.88555 0.67441 0.0
H572 H 0.39629 0.88062 0.82192 0.0
H573 H 0.30994 0.87957 0.85353 0.0
C574 C 0.225 0.88263 0.80034 0.0
C575 C 0.18411 0.88547 0.76818 0.0
C576 C 0.27469 0.88249 0.78234 0.0
C577 C 0.19323 0.88775 0.71774 0.0
C578 C 0.24241 0.88692 0.69947 0.0
C579 C 0.33313 0.88405 0.71338 0.0
C580 C 0.37406 0.883 0.74581 0.0
C581 C 0.28346 0.88434 0.73141 0.0
C582 C 0.36508 0.88149 0.79632 0.0
C583 C 0.31581 0.88089 0.81442 0.0
H584 H 0.72849 0.6388 0.67548 0.0
H585 H 0.6696 0.64162 0.82235 0.0
H586 H 0.75525 0.64124 0.85537 0.0
H587 H 0.8472 0.63953 0.84272 0.0
H588 H 0.90591 0.63401 0.69599 0.0
H589 H 0.82041 0.63596 0.6629 0.0
C590 C 0.73454 0.63946 0.71466 0.0
C591 C 0.69291 0.64031 0.74637 0.0
C592 C 0.78393 0.63865 0.73352 0.0
C593 C 0.70113 0.64083 0.79713 0.0
C594 C 0.75009 0.64067 0.8161 0.0
C595 C 0.84119 0.63883 0.80353 0.0
C596 C 0.88276 0.63666 0.77193 0.0
C597 C 0.7918 0.63948 0.78468 0.0
C598 C 0.87447 0.63551 0.72119 0.0
C599 C 0.82559 0.63671 0.70215 0.0
H600 H 0.71398 0.86472 0.69569 0.0
H601 H 0.68006 0.94556 0.74518 0.0
H602 H 0.76189 0.94835 0.78685 0.0
H603 H 0.8425 0.92698 0.81119 0.0
H604 H 0.87514 0.84575 0.76294 0.0
H605 H 0.79421 0.84347 0.71978 0.0
C606 C 0.72533 0.88313 0.71456 0.0
C607 C 0.6921 0.90515 0.7166 0.0
C608 C 0.77146 0.88414 0.7399 0.0
C609 C 0.70592 0.92862 0.74252 0.0
C610 C 0.75229 0.93008 0.76679 0.0
C611 C 0.83104 0.90866 0.79214 0.0
C612 C 0.86352 0.88629 0.79109 0.0
C613 C 0.78499 0.90776 0.76651 0.0
C614 C 0.84967 0.8629 0.76498 0.0
C615 C 0.80386 0.86173 0.73985 0.0
H616 H 0.38667 0.62583 0.79062 0.0
H617 H 0.34164 0.62358 0.63889 0.0
H618 H 0.25287 0.62168 0.66362 0.0
H619 H 0.18875 0.62177 0.72783 0.0
H620 H 0.23384 0.62297 0.87957 0.0
H621 H 0.32267 0.62397 0.85486 0.0
C622 C 0.35768 0.6247 0.76271 0.0
C623 C 0.37109 0.62479 0.7128 0.0
C624 C 0.30689 0.62343 0.77715 0.0
C625 C 0.33261 0.62347 0.67748 0.0
C626 C 0.28183 0.62241 0.69161 0.0
C627 C 0.21779 0.62202 0.75575 0.0
C628 C 0.20437 0.62226 0.80566 0.0
C629 C 0.26863 0.62251 0.74132 0.0
C630 C 0.2429 0.62268 0.84099 0.0
C631 C 0.2937 0.62333 0.82686 0.0
H632 H 0.68132 0.12298 0.22184 0.0
H633 H 0.72608 0.12383 0.37358 0.0
H634 H 0.81483 0.12211 0.34956 0.0
H635 H 0.88028 0.12137 0.28572 0.0
H636 H 0.83559 0.12151 0.13397 0.0
H637 H 0.74677 0.12173 0.15799 0.0
C638 C 0.71036 0.12268 0.2498 0.0
C639 C 0.6965 0.12353 0.2996 0.0
C640 C 0.76167 0.12189 0.23576 0.0
C641 C 0.73514 0.1232 0.33501 0.0
C642 C 0.78613 0.12222 0.32131 0.0
C643 C 0.85124 0.12131 0.25776 0.0
C644 C 0.86514 0.1214 0.20795 0.0
C645 C 0.79991 0.1217 0.2718 0.0
C646 C 0.82649 0.12143 0.17254 0.0
C647 C 0.77547 0.12159 0.18625 0.0
H648 H 0.18586 0.39337 0.28933 0.0
H649 H 0.23141 0.3959 0.13782 0.0
H650 H 0.32009 0.39772 0.1629 0.0
H651 H 0.38399 0.39743 0.22733 0.0
H652 H 0.33845 0.39632 0.37889 0.0
H653 H 0.24968 0.39533 0.35386 0.0
C654 C 0.21493 0.39457 0.26156 0.0
C655 C 0.20169 0.39456 0.21159 0.0
C656 C 0.26569 0.39586 0.27621 0.0
C657 C 0.2403 0.39595 0.17644 0.0
C658 C 0.29103 0.39696 0.19078 0.0
C659 C 0.35486 0.39723 0.25514 0.0
C660 C 0.36815 0.39699 0.30509 0.0
C661 C 0.30407 0.3968 0.24053 0.0
C662 C 0.32951 0.39662 0.34029 0.0
C663 C 0.27873 0.39597 0.32597 0.0
H664 H 0.97066 0.01899 0.09891 0.0
H665 H 0.97522 0.07993 0.98616 0.0
H666 H 0.97301 0.04481 0.92347 0.0
H667 H 0.97179 0.99653 0.89992 0.0
H668 H 0.96856 0.93564 0.01278 0.0
H669 H 0.96809 0.97079 0.07538 0.0
C670 C 0.97091 0.02462 0.06065 0.0
C671 C 0.97314 0.05219 0.0476 0.0
C672 C 0.96996 1.00422 0.02441 0.0
C673 C 0.97364 0.05895 0.99762 0.0
C674 C 0.97235 0.03883 0.96152 0.0
C675 C 0.97067 0.99094 0.93818 0.0
C676 C 0.97027 0.96335 0.9513 0.0
C677 C 0.97079 0.01136 0.9744 0.0
C678 C 0.96908 0.95662 1.00127 0.0
C679 C 0.96878 0.97676 0.03732 0.0
H680 H 0.08461 0.56428 0.00839 0.0
H681 H 0.08622 0.5144 0.87857 0.0
H682 H 0.08523 0.4736 0.92907 0.0
H683 H 0.08324 0.45208 0.00987 0.0
H684 H 0.08365 0.50187 0.13979 0.0
H685 H 0.08456 0.54272 0.08931 0.0
C686 C 0.0847 0.5445 0.99102 0.0
C687 C 0.08532 0.54249 0.93958 0.0
C688 C 0.08448 0.5211 0.02031 0.0
C689 C 0.08584 0.51663 0.91794 0.0
C690 C 0.08518 0.49326 0.94684 0.0
C691 C 0.08343 0.47185 0.02729 0.0
C692 C 0.08315 0.47383 0.07873 0.0
C693 C 0.08436 0.49525 0.99803 0.0
C694 C 0.0839 0.49968 0.10041 0.0
C695 C 0.08434 0.52307 0.07153 0.0
H696 H 0.48874 0.45575 0.50753 0.0
H697 H 0.48848 0.50534 0.3779 0.0
H698 H 0.4894 0.54627 0.42858 0.0
H699 H 0.4908 0.56799 0.50963 0.0
H700 H 0.48892 0.51833 0.63919 0.0
H701 H 0.4883 0.47744 0.58849 0.0
C702 C 0.48895 0.47548 0.49022 0.0
C703 C 0.48872 0.47737 0.43878 0.0
C704 C 0.4891 0.49895 0.51962 0.0
C705 C 0.48857 0.5032 0.41726 0.0
C706 C 0.48919 0.52665 0.44627 0.0
C707 C 0.49034 0.54824 0.5269 0.0
C708 C 0.4901 0.54633 0.57834 0.0
C709 C 0.48956 0.52477 0.49748 0.0
C710 C 0.48906 0.52049 0.59983 0.0
C711 C 0.48878 0.49706 0.57081 0.0
H712 H 0.58907 1.00138 0.60875 0.0
H713 H 0.56946 0.93981 0.49792 0.0
H714 H 0.5708 0.97424 0.43452 0.0
H715 H 0.57612 0.02208 0.40978 0.0
H716 H 0.59437 0.08379 0.5205 0.0
H717 H 0.59513 0.04926 0.58392 0.0
C718 C 0.58522 0.99547 0.57075 0.0
C719 C 0.57919 0.96792 0.55848 0.0
C720 C 0.58578 0.01549 0.53406 0.0
C721 C 0.57413 0.96078 0.50882 0.0
C722 C 0.57491 0.9805 0.47229 0.0
C723 C 0.58058 0.02798 0.44773 0.0
C724 C 0.58516 0.05558 0.46008 0.0
C725 C 0.58058 1.00795 0.48439 0.0
C726 C 0.59057 0.06276 0.50967 0.0
C727 C 0.59104 0.04298 0.54615 0.0
loop_
_geom_bond_atom_site_label_1
_geom_bond_atom_site_label_2
_geom_bond_distance
_geom_bond_site_symmetry_2
_ccdc_geom_bond_type
Co0 O2 2.143 . S
Co0 O8 2.074 1_455 S
Co0 O11 2.093 . S
Co0 O24 2.097 . S
Co0 N41 2.151 . S
Co0 N49 2.214 . S
Co1 O2 2.160 1_655 S
Co1 O7 2.058 . S
Co1 O17 2.057 . S
Co1 O32 2.037 . S
Co1 N36 2.145 . S
Co1 N57 2.257 1_655 S
O2 Co0 2.143 . S
O2 Co1 2.160 1_455 S
C3 O4 1.278 . S
C3 O11 1.224 . S
O4 C3 1.278 . S
C5 O6 1.245 . S
C5 O17 1.232 1_455 S
O6 C5 1.245 . S
O7 Co1 2.058 . S
O7 C33 1.269 . S
O8 Co0 2.074 1_655 S
O8 C33 1.257 . S
H9 C34 0.930 . S
H10 C40 0.930 . S
O11 Co0 2.093 . S
O11 C3 1.224 . S
H12 C44 0.929 . S
H13 C46 0.930 . S
H14 C47 0.930 . S
H15 C45 0.929 . S
H16 C48 0.928 . S
O17 Co1 2.057 . S
O17 C5 1.232 1_655 S
H18 C37 0.929 . S
H19 C38 0.929 . S
H20 C50 0.931 . S
H21 C42 0.929 . S
H22 C51 0.933 . S
H23 C43 0.931 . S
O24 Co0 2.097 . S
O24 C52 1.214 . S
H25 C53 0.929 . S
H26 C54 0.929 . S
H27 C55 0.930 . S
H28 C56 0.929 1_556 S
H29 C58 0.930 . S
H30 C35 0.930 . S
H31 C39 0.930 . S
O32 Co1 2.037 . S
O32 C52 1.234 1_655 S
C33 O7 1.269 . S
C33 O8 1.257 . S
C34 H9 0.930 . S
C34 C37 1.388 . S
C34 C39 1.418 1_554 S
C35 H30 0.930 . S
C35 C38 1.404 1_556 S
C35 C39 1.353 . S
N36 Co1 2.145 . S
N36 C37 1.397 . S
N36 C38 1.334 . S
C37 H18 0.929 . S
C37 C34 1.388 . S
C37 N36 1.397 . S
C38 H19 0.929 . S
C38 C35 1.404 1_554 S
C38 N36 1.334 . S
C39 H31 0.930 . S
C39 C34 1.418 1_556 S
C39 C35 1.353 . S
C40 H10 0.930 . S
C40 N41 1.330 . S
C40 C42 1.446 . S
N41 Co0 2.151 . S
N41 C40 1.330 . S
N41 C45 1.418 1_455 S
C42 H21 0.929 . S
C42 C40 1.446 . S
C42 C43 1.332 . S
C43 H23 0.931 . S
C43 C42 1.332 . S
C43 C44 1.267 1_455 S
C44 H12 0.929 . S
C44 C43 1.267 1_655 S
C44 C45 1.251 . S
C45 H15 0.929 . S
C45 N41 1.418 1_655 S
C45 C44 1.251 . S
C46 H13 0.930 . S
C46 C48 1.406 . S
C46 C51 1.261 . S
C47 H14 0.930 . S
C47 N49 1.325 1_655 S
C47 C50 1.357 . S
C48 H16 0.928 . S
C48 C46 1.406 . S
C48 N49 1.261 . S
N49 Co0 2.214 . S
N49 C47 1.325 1_455 S
N49 C48 1.261 . S
C50 H20 0.931 . S
C50 C47 1.357 . S
C50 C51 1.312 1_655 S
C51 H22 0.933 . S
C51 C46 1.261 . S
C51 C50 1.312 1_455 S
C52 O24 1.214 . S
C52 O32 1.234 1_455 S
C53 H25 0.929 . S
C53 C56 1.391 . S
C53 C58 1.391 . S
C54 H26 0.929 . S
C54 C55 1.390 . S
C54 N57 1.391 . S
C55 H27 0.930 . S
C55 C54 1.390 . S
C55 C56 1.392 . S
C56 H28 0.929 1_554 S
C56 C53 1.391 . S
C56 C55 1.392 . S
N57 Co1 2.257 1_455 S
N57 C54 1.391 . S
N57 C58 1.388 . S
C58 H29 0.930 . S
C58 C53 1.391 . S
C58 N57 1.388 . S
Co59 O61 2.143 . S
Co59 O67 2.074 . S
Co59 O70 2.093 1_455 S
Co59 O83 2.097 . S
Co59 N100 2.151 . S
Co59 N108 2.214 . S
Co60 O61 2.160 . S
Co60 O66 2.058 . S
Co60 O76 2.057 . S
Co60 O91 2.037 . S
Co60 N95 2.145 . S
Co60 N116 2.257 1_455 S
O61 Co59 2.143 . S
O61 Co60 2.160 . S
C62 O63 1.278 . S
C62 O70 1.224 . S
O63 C62 1.278 . S
C64 O65 1.245 . S
C64 O76 1.232 . S
O65 C64 1.245 . S
O66 Co60 2.058 . S
O66 C92 1.269 . S
O67 Co59 2.074 . S
O67 C92 1.257 . S
H68 C93 0.930 . S
H69 C99 0.930 . S
O70 Co59 2.093 1_655 S
O70 C62 1.224 . S
H71 C103 0.929 . S
H72 C105 0.924 1_655 S
H73 C106 0.930 . S
H74 C104 0.929 . S
H75 C107 0.928 1_655 S
O76 Co60 2.057 . S
O76 C64 1.232 . S
H77 C96 0.929 . S
H78 C97 0.929 . S
H79 C109 0.931 . S
H80 C101 0.929 . S
H81 C110 0.930 . S
H82 C102 0.931 . S
O83 Co59 2.097 . S
O83 C111 1.214 . S
H84 C112 0.929 . S
H85 C113 0.929 1_455 S
H86 C114 0.930 . S
H87 C115 0.929 1_556 S
H88 C117 0.930 . S
H89 C94 0.930 . S
H90 C98 0.930 . S
O91 Co60 2.037 . S
O91 C111 1.234 . S
C92 O66 1.269 . S
C92 O67 1.257 . S
C93 H68 0.930 . S
C93 C96 1.388 . S
C93 C98 1.418 1_554 S
C94 H89 0.930 . S
C94 C97 1.404 1_556 S
C94 C98 1.353 . S
N95 Co60 2.145 . S
N95 C96 1.397 . S
N95 C97 1.334 . S
C96 H77 0.929 . S
C96 C93 1.388 . S
C96 N95 1.397 . S
C97 H78 0.929 . S
C97 C94 1.404 1_554 S
C97 N95 1.334 . S
C98 H90 0.930 . S
C98 C93 1.418 1_556 S
C98 C94 1.353 . S
C99 H69 0.930 . S
C99 N100 1.330 1_655 S
C99 C101 1.446 . S
N100 Co59 2.151 . S
N100 C99 1.330 1_455 S
N100 C104 1.418 . S
C101 H80 0.929 . S
C101 C99 1.446 . S
C101 C102 1.332 1_655 S
C102 H82 0.931 . S
C102 C101 1.332 1_455 S
C102 C103 1.267 . S
C103 H71 0.929 . S
C103 C102 1.267 . S
C103 C104 1.251 . S
C104 H74 0.929 . S
C104 N100 1.418 . S
C104 C103 1.251 . S
C105 H72 0.924 1_455 S
C105 C107 1.406 . S
C105 C110 1.261 . S
C106 H73 0.930 . S
C106 N108 1.325 . S
C106 C109 1.357 . S
C107 H75 0.928 1_455 S
C107 C105 1.406 . S
C107 N108 1.261 . S
N108 Co59 2.214 . S
N108 C106 1.325 . S
N108 C107 1.261 . S
C109 H79 0.931 . S
C109 C106 1.357 . S
C109 C110 1.312 . S
C110 H81 0.930 . S
C110 C105 1.261 . S
C110 C109 1.312 . S
C111 O83 1.214 . S
C111 O91 1.234 . S
C112 H84 0.929 . S
C112 C115 1.391 . S
C112 C117 1.391 . S
C113 H85 0.929 1_655 S
C113 C114 1.390 . S
C113 N116 1.391 . S
C114 H86 0.930 . S
C114 C113 1.390 . S
C114 C115 1.392 . S
C115 H87 0.929 1_554 S
C115 C112 1.391 . S
C115 C114 1.392 . S
N116 Co60 2.257 1_655 S
N116 C113 1.391 . S
N116 C117 1.388 . S
C117 H88 0.930 . S
C117 C112 1.391 . S
C117 N116 1.388 . S
Co118 O120 2.143 . S
Co118 O126 2.074 1_455 S
Co118 O129 2.093 . S
Co118 O142 2.097 . S
Co118 N159 2.151 . S
Co118 N167 2.214 . S
Co119 O120 2.160 1_655 S
Co119 O125 2.058 . S
Co119 O135 2.057 . S
Co119 O150 2.037 . S
Co119 N154 2.145 . S
Co119 N175 2.257 1_655 S
O120 Co118 2.143 . S
O120 Co119 2.160 1_455 S
C121 O122 1.278 . S
C121 O129 1.224 . S
O122 C121 1.278 . S
C123 O124 1.245 . S
C123 O135 1.232 1_455 S
O124 C123 1.245 . S
O125 Co119 2.058 . S
O125 C151 1.269 . S
O126 Co118 2.074 1_655 S
O126 C151 1.257 . S
H127 C152 0.930 . S
H128 C158 0.930 . S
O129 Co118 2.093 . S
O129 C121 1.224 . S
H130 C162 0.929 . S
H131 C164 0.930 . S
H132 C165 0.930 . S
H133 C163 0.929 . S
H134 C166 0.928 . S
O135 Co119 2.057 . S
O135 C123 1.232 1_655 S
H136 C155 0.929 . S
H137 C156 0.929 . S
H138 C168 0.931 . S
H139 C160 0.929 . S
H140 C169 0.933 . S
H141 C161 0.931 . S
O142 Co118 2.097 . S
O142 C170 1.214 . S
H143 C171 0.929 . S
H144 C172 0.929 . S
H145 C173 0.930 . S
H146 C174 0.929 1_554 S
H147 C176 0.930 . S
H148 C153 0.930 . S
H149 C157 0.930 . S
O150 Co119 2.037 . S
O150 C170 1.234 1_655 S
C151 O125 1.269 . S
C151 O126 1.257 . S
C152 H127 0.930 . S
C152 C155 1.388 . S
C152 C157 1.418 1_556 S
C153 H148 0.930 . S
C153 C156 1.404 1_554 S
C153 C157 1.353 . S
N154 Co119 2.145 . S
N154 C155 1.397 . S
N154 C156 1.334 . S
C155 H136 0.929 . S
C155 C152 1.388 . S
C155 N154 1.397 . S
C156 H137 0.929 . S
C156 C153 1.404 1_556 S
C156 N154 1.334 . S
C157 H149 0.930 . S
C157 C152 1.418 1_554 S
C157 C153 1.353 . S
C158 H128 0.930 . S
C158 N159 1.330 . S
C158 C160 1.446 . S
N159 Co118 2.151 . S
N159 C158 1.330 . S
N159 C163 1.418 1_455 S
C160 H139 0.929 . S
C160 C158 1.446 . S
C160 C161 1.332 . S
C161 H141 0.931 . S
C161 C160 1.332 . S
C161 C162 1.267 1_455 S
C162 H130 0.929 . S
C162 C161 1.267 1_655 S
C162 C163 1.251 . S
C163 H133 0.929 . S
C163 N159 1.418 1_655 S
C163 C162 1.251 . S
C164 H131 0.930 . S
C164 C166 1.406 . S
C164 C169 1.261 . S
C165 H132 0.930 . S
C165 N167 1.325 1_655 S
C165 C168 1.357 . S
C166 H134 0.928 . S
C166 C164 1.406 . S
C166 N167 1.261 . S
N167 Co118 2.214 . S
N167 C165 1.325 1_455 S
N167 C166 1.261 . S
C168 H138 0.931 . S
C168 C165 1.357 . S
C168 C169 1.312 1_655 S
C169 H140 0.933 . S
C169 C164 1.261 . S
C169 C168 1.312 1_455 S
C170 O142 1.214 . S
C170 O150 1.234 1_455 S
C171 H143 0.929 . S
C171 C174 1.391 . S
C171 C176 1.391 . S
C172 H144 0.929 . S
C172 C173 1.390 . S
C172 N175 1.391 . S
C173 H145 0.930 . S
C173 C172 1.390 . S
C173 C174 1.392 . S
C174 H146 0.929 1_556 S
C174 C171 1.391 . S
C174 C173 1.392 . S
N175 Co119 2.257 1_455 S
N175 C172 1.391 . S
N175 C176 1.388 . S
C176 H147 0.930 . S
C176 C171 1.391 . S
C176 N175 1.388 . S
Co177 O179 2.143 . S
Co177 O185 2.074 . S
Co177 O188 2.093 1_455 S
Co177 O201 2.097 . S
Co177 N218 2.151 . S
Co177 N226 2.214 . S
Co178 O179 2.160 . S
Co178 O184 2.058 . S
Co178 O194 2.057 . S
Co178 O209 2.037 . S
Co178 N213 2.145 . S
Co178 N234 2.257 1_455 S
O179 Co177 2.143 . S
O179 Co178 2.160 . S
C180 O181 1.278 . S
C180 O188 1.224 . S
O181 C180 1.278 . S
C182 O183 1.245 . S
C182 O194 1.232 . S
O183 C182 1.245 . S
O184 Co178 2.058 . S
O184 C210 1.269 . S
O185 Co177 2.074 . S
O185 C210 1.257 . S
H186 C211 0.930 . S
H187 C217 0.930 . S
O188 Co177 2.093 1_655 S
O188 C180 1.224 . S
H189 C221 0.929 . S
H190 C223 0.924 1_655 S
H191 C224 0.930 . S
H192 C222 0.929 . S
H193 C225 0.928 1_655 S
O194 Co178 2.057 . S
O194 C182 1.232 . S
H195 C214 0.929 . S
H196 C215 0.929 . S
H197 C227 0.931 . S
H198 C219 0.929 . S
H199 C228 0.930 . S
H200 C220 0.931 . S
O201 Co177 2.097 . S
O201 C229 1.214 . S
H202 C230 0.929 . S
H203 C231 0.929 1_455 S
H204 C232 0.930 . S
H205 C233 0.929 1_554 S
H206 C235 0.930 . S
H207 C212 0.930 . S
H208 C216 0.930 . S
O209 Co178 2.037 . S
O209 C229 1.234 . S
C210 O184 1.269 . S
C210 O185 1.257 . S
C211 H186 0.930 . S
C211 C214 1.388 . S
C211 C216 1.418 1_556 S
C212 H207 0.930 . S
C212 C215 1.404 1_554 S
C212 C216 1.353 . S
N213 Co178 2.145 . S
N213 C214 1.397 . S
N213 C215 1.334 . S
C214 H195 0.929 . S
C214 C211 1.388 . S
C214 N213 1.397 . S
C215 H196 0.929 . S
C215 C212 1.404 1_556 S
C215 N213 1.334 . S
C216 H208 0.930 . S
C216 C211 1.418 1_554 S
C216 C212 1.353 . S
C217 H187 0.930 . S
C217 N218 1.330 1_655 S
C217 C219 1.446 . S
N218 Co177 2.151 . S
N218 C217 1.330 1_455 S
N218 C222 1.418 . S
C219 H198 0.929 . S
C219 C217 1.446 . S
C219 C220 1.332 1_655 S
C220 H200 0.931 . S
C220 C219 1.332 1_455 S
C220 C221 1.267 . S
C221 H189 0.929 . S
C221 C220 1.267 . S
C221 C222 1.251 . S
C222 H192 0.929 . S
C222 N218 1.418 . S
C222 C221 1.251 . S
C223 H190 0.924 1_455 S
C223 C225 1.406 . S
C223 C228 1.261 . S
C224 H191 0.930 . S
C224 N226 1.325 . S
C224 C227 1.357 . S
C225 H193 0.928 1_455 S
C225 C223 1.406 . S
C225 N226 1.261 . S
N226 Co177 2.214 . S
N226 C224 1.325 . S
N226 C225 1.261 . S
C227 H197 0.931 . S
C227 C224 1.357 . S
C227 C228 1.312 . S
C228 H199 0.930 . S
C228 C223 1.261 . S
C228 C227 1.312 . S
C229 O201 1.214 . S
C229 O209 1.234 . S
C230 H202 0.929 . S
C230 C233 1.391 . S
C230 C235 1.391 . S
C231 H203 0.929 1_655 S
C231 C232 1.390 . S
C231 N234 1.391 . S
C232 H204 0.930 . S
C232 C231 1.390 . S
C232 C233 1.392 . S
C233 H205 0.929 1_556 S
C233 C230 1.391 . S
C233 C232 1.392 . S
N234 Co178 2.257 1_655 S
N234 C231 1.391 . S
N234 C235 1.388 . S
C235 H206 0.930 . S
C235 C230 1.391 . S
C235 N234 1.388 . S
Co236 O238 2.143 . S
Co236 O244 2.074 . S
Co236 O247 2.093 . S
Co236 O260 2.097 . S
Co236 N277 2.151 . S
Co236 N285 2.214 . S
Co237 O238 2.160 . S
Co237 O243 2.058 . S
Co237 O253 2.057 . S
Co237 O268 2.037 . S
Co237 N272 2.145 . S
Co237 N293 2.257 . S
O238 Co236 2.143 . S
O238 Co237 2.160 . S
C239 O240 1.278 . S
C239 O247 1.224 . S
O240 C239 1.278 . S
C241 O242 1.245 . S
C241 O253 1.232 . S
O242 C241 1.245 . S
O243 Co237 2.058 . S
O243 C269 1.269 . S
O244 Co236 2.074 . S
O244 C269 1.257 . S
H245 C270 0.930 . S
H246 C276 0.930 . S
O247 Co236 2.093 . S
O247 C239 1.224 . S
H248 C280 0.929 . S
H249 C282 0.930 . S
H250 C283 0.930 . S
H251 C281 0.929 . S
H252 C284 0.928 . S
O253 Co237 2.057 . S
O253 C241 1.232 . S
H254 C273 0.929 . S
H255 C274 0.929 . S
H256 C286 0.931 . S
H257 C278 0.929 . S
H258 C287 0.930 . S
H259 C279 0.931 . S
O260 Co236 2.097 . S
O260 C288 1.214 . S
H261 C289 0.929 . S
H262 C290 0.929 . S
H263 C291 0.930 . S
H264 C292 0.929 . S
H265 C294 0.930 . S
H266 C271 0.930 . S
H267 C275 0.930 . S
O268 Co237 2.037 . S
O268 C288 1.234 . S
C269 O243 1.269 . S
C269 O244 1.257 . S
C270 H245 0.930 . S
C270 C273 1.388 . S
C270 C275 1.418 . S
C271 H266 0.930 . S
C271 C274 1.404 . S
C271 C275 1.353 . S
N272 Co237 2.145 . S
N272 C273 1.397 . S
N272 C274 1.334 . S
C273 H254 0.929 . S
C273 C270 1.388 . S
C273 N272 1.397 . S
C274 H255 0.929 . S
C274 C271 1.404 . S
C274 N272 1.334 . S
C275 H267 0.930 . S
C275 C270 1.418 . S
C275 C271 1.353 . S
C276 H246 0.930 . S
C276 N277 1.330 . S
C276 C278 1.446 . S
N277 Co236 2.151 . S
N277 C276 1.330 . S
N277 C281 1.418 . S
C278 H257 0.929 . S
C278 C276 1.446 . S
C278 C279 1.332 . S
C279 H259 0.931 . S
C279 C278 1.332 . S
C279 C280 1.267 . S
C280 H248 0.929 . S
C280 C279 1.267 . S
C280 C281 1.251 . S
C281 H251 0.929 . S
C281 N277 1.418 . S
C281 C280 1.251 . S
C282 H249 0.930 . S
C282 C284 1.406 . S
C282 C287 1.261 . S
C283 H250 0.930 . S
C283 N285 1.325 . S
C283 C286 1.357 . S
C284 H252 0.928 . S
C284 C282 1.406 . S
C284 N285 1.261 . S
N285 Co236 2.214 . S
N285 C283 1.325 . S
N285 C284 1.261 . S
C286 H256 0.931 . S
C286 C283 1.357 . S
C286 C287 1.312 . S
C287 H258 0.930 . S
C287 C282 1.261 . S
C287 C286 1.312 . S
C288 O260 1.214 . S
C288 O268 1.234 . S
C289 H261 0.929 . S
C289 C292 1.391 . S
C289 C294 1.391 . S
C290 H262 0.929 . S
C290 C291 1.390 . S
C290 N293 1.391 . S
C291 H263 0.930 . S
C291 C290 1.390 . S
C291 C292 1.392 . S
C292 H264 0.929 . S
C292 C289 1.391 . S
C292 C291 1.392 . S
N293 Co237 2.257 . S
N293 C290 1.391 . S
N293 C294 1.388 . S
C294 H265 0.930 . S
C294 C289 1.391 . S
C294 N293 1.388 . S
Co295 O297 2.143 . S
Co295 O303 2.074 . S
Co295 O306 2.093 . S
Co295 O319 2.097 . S
Co295 N336 2.151 . S
Co295 N344 2.214 . S
Co296 O297 2.160 . S
Co296 O302 2.058 . S
Co296 O312 2.057 . S
Co296 O327 2.037 . S
Co296 N331 2.145 . S
Co296 N352 2.257 . S
O297 Co295 2.143 . S
O297 Co296 2.160 . S
C298 O299 1.278 . S
C298 O306 1.224 . S
O299 C298 1.278 . S
C300 O301 1.245 . S
C300 O312 1.232 . S
O301 C300 1.245 . S
O302 Co296 2.058 . S
O302 C328 1.269 . S
O303 Co295 2.074 . S
O303 C328 1.257 . S
H304 C329 0.930 . S
H305 C335 0.930 . S
O306 Co295 2.093 . S
O306 C298 1.224 . S
H307 C339 0.929 . S
H308 C341 0.930 . S
H309 C342 0.930 . S
H310 C340 0.929 . S
H311 C343 0.928 . S
O312 Co296 2.057 . S
O312 C300 1.232 . S
H313 C332 0.929 . S
H314 C333 0.929 . S
H315 C345 0.931 . S
H316 C337 0.929 . S
H317 C346 0.930 . S
H318 C338 0.931 . S
O319 Co295 2.097 . S
O319 C347 1.214 . S
H320 C348 0.929 . S
H321 C349 0.929 . S
H322 C350 0.930 . S
H323 C351 0.929 . S
H324 C353 0.930 . S
H325 C330 0.930 . S
H326 C334 0.930 . S
O327 Co296 2.037 . S
O327 C347 1.234 . S
C328 O302 1.269 . S
C328 O303 1.257 . S
C329 H304 0.930 . S
C329 C332 1.388 . S
C329 C334 1.418 . S
C330 H325 0.930 . S
C330 C333 1.404 . S
C330 C334 1.353 . S
N331 Co296 2.145 . S
N331 C332 1.397 . S
N331 C333 1.334 . S
C332 H313 0.929 . S
C332 C329 1.388 . S
C332 N331 1.397 . S
C333 H314 0.929 . S
C333 C330 1.404 . S
C333 N331 1.334 . S
C334 H326 0.930 . S
C334 C329 1.418 . S
C334 C330 1.353 . S
C335 H305 0.930 . S
C335 N336 1.330 . S
C335 C337 1.446 . S
N336 Co295 2.151 . S
N336 C335 1.330 . S
N336 C340 1.418 . S
C337 H316 0.929 . S
C337 C335 1.446 . S
C337 C338 1.332 . S
C338 H318 0.931 . S
C338 C337 1.332 . S
C338 C339 1.267 . S
C339 H307 0.929 . S
C339 C338 1.267 . S
C339 C340 1.251 . S
C340 H310 0.929 . S
C340 N336 1.418 . S
C340 C339 1.251 . S
C341 H308 0.930 . S
C341 C343 1.406 . S
C341 C346 1.261 . S
C342 H309 0.930 . S
C342 N344 1.325 . S
C342 C345 1.357 . S
C343 H311 0.928 . S
C343 C341 1.406 . S
C343 N344 1.261 . S
N344 Co295 2.214 . S
N344 C342 1.325 . S
N344 C343 1.261 . S
C345 H315 0.931 . S
C345 C342 1.357 . S
C345 C346 1.312 . S
C346 H317 0.930 . S
C346 C341 1.261 . S
C346 C345 1.312 . S
C347 O319 1.214 . S
C347 O327 1.234 . S
C348 H320 0.929 . S
C348 C351 1.391 . S
C348 C353 1.391 . S
C349 H321 0.929 . S
C349 C350 1.390 . S
C349 N352 1.391 . S
C350 H322 0.930 . S
C350 C349 1.390 . S
C350 C351 1.392 . S
C351 H323 0.929 . S
C351 C348 1.391 . S
C351 C350 1.392 . S
N352 Co296 2.257 . S
N352 C349 1.391 . S
N352 C353 1.388 . S
C353 H324 0.930 . S
C353 C348 1.391 . S
C353 N352 1.388 . S
Co354 O356 2.143 . S
Co354 O362 2.074 . S
Co354 O365 2.093 . S
Co354 O378 2.097 . S
Co354 N395 2.151 . S
Co354 N403 2.214 . S
Co355 O356 2.160 . S
Co355 O361 2.058 . S
Co355 O371 2.057 . S
Co355 O386 2.037 . S
Co355 N390 2.145 . S
Co355 N411 2.257 . S
O356 Co354 2.143 . S
O356 Co355 2.160 . S
C357 O358 1.278 . S
C357 O365 1.224 . S
O358 C357 1.278 . S
C359 O360 1.245 . S
C359 O371 1.232 . S
O360 C359 1.245 . S
O361 Co355 2.058 . S
O361 C387 1.269 . S
O362 Co354 2.074 . S
O362 C387 1.257 . S
H363 C388 0.930 . S
H364 C394 0.930 . S
O365 Co354 2.093 . S
O365 C357 1.224 . S
H366 C398 0.929 . S
H367 C400 0.930 . S
H368 C401 0.930 . S
H369 C399 0.929 . S
H370 C402 0.928 . S
O371 Co355 2.057 . S
O371 C359 1.232 . S
H372 C391 0.929 . S
H373 C392 0.929 . S
H374 C404 0.931 . S
H375 C396 0.929 . S
H376 C405 0.930 . S
H377 C397 0.931 . S
O378 Co354 2.097 . S
O378 C406 1.214 . S
H379 C407 0.929 . S
H380 C408 0.929 . S
H381 C409 0.930 . S
H382 C410 0.929 . S
H383 C412 0.930 . S
H384 C389 0.930 . S
H385 C393 0.930 . S
O386 Co355 2.037 . S
O386 C406 1.234 . S
C387 O361 1.269 . S
C387 O362 1.257 . S
C388 H363 0.930 . S
C388 C391 1.388 . S
C388 C393 1.418 . S
C389 H384 0.930 . S
C389 C392 1.404 . S
C389 C393 1.353 . S
N390 Co355 2.145 . S
N390 C391 1.397 . S
N390 C392 1.334 . S
C391 H372 0.929 . S
C391 C388 1.388 . S
C391 N390 1.397 . S
C392 H373 0.929 . S
C392 C389 1.404 . S
C392 N390 1.334 . S
C393 H385 0.930 . S
C393 C388 1.418 . S
C393 C389 1.353 . S
C394 H364 0.930 . S
C394 N395 1.330 . S
C394 C396 1.446 . S
N395 Co354 2.151 . S
N395 C394 1.330 . S
N395 C399 1.418 . S
C396 H375 0.929 . S
C396 C394 1.446 . S
C396 C397 1.332 . S
C397 H377 0.931 . S
C397 C396 1.332 . S
C397 C398 1.267 . S
C398 H366 0.929 . S
C398 C397 1.267 . S
C398 C399 1.251 . S
C399 H369 0.929 . S
C399 N395 1.418 . S
C399 C398 1.251 . S
C400 H367 0.930 . S
C400 C402 1.406 . S
C400 C405 1.261 . S
C401 H368 0.930 . S
C401 N403 1.325 . S
C401 C404 1.357 . S
C402 H370 0.928 . S
C402 C400 1.406 . S
C402 N403 1.261 . S
N403 Co354 2.214 . S
N403 C401 1.325 . S
N403 C402 1.261 . S
C404 H374 0.931 . S
C404 C401 1.357 . S
C404 C405 1.312 . S
C405 H376 0.930 . S
C405 C400 1.261 . S
C405 C404 1.312 . S
C406 O378 1.214 . S
C406 O386 1.234 . S
C407 H379 0.929 . S
C407 C410 1.391 . S
C407 C412 1.391 . S
C408 H380 0.929 . S
C408 C409 1.390 . S
C408 N411 1.391 . S
C409 H381 0.930 . S
C409 C408 1.390 . S
C409 C410 1.392 . S
C410 H382 0.929 . S
C410 C407 1.391 . S
C410 C409 1.392 . S
N411 Co355 2.257 . S
N411 C408 1.391 . S
N411 C412 1.388 . S
C412 H383 0.930 . S
C412 C407 1.391 . S
C412 N411 1.388 . S
Co413 O415 2.143 . S
Co413 O421 2.074 . S
Co413 O424 2.093 . S
Co413 O437 2.097 . S
Co413 N454 2.151 . S
Co413 N462 2.214 . S
Co414 O415 2.160 . S
Co414 O420 2.058 . S
Co414 O430 2.057 . S
Co414 O445 2.037 . S
Co414 N449 2.145 . S
Co414 N470 2.257 . S
O415 Co413 2.143 . S
O415 Co414 2.160 . S
C416 O417 1.278 . S
C416 O424 1.224 . S
O417 C416 1.278 . S
C418 O419 1.245 . S
C418 O430 1.232 . S
O419 C418 1.245 . S
O420 Co414 2.058 . S
O420 C446 1.269 . S
O421 Co413 2.074 . S
O421 C446 1.257 . S
H422 C447 0.930 . S
H423 C453 0.930 . S
O424 Co413 2.093 . S
O424 C416 1.224 . S
H425 C457 0.929 . S
H426 C459 0.930 . S
H427 C460 0.930 . S
H428 C458 0.929 . S
H429 C461 0.928 . S
O430 Co414 2.057 . S
O430 C418 1.232 . S
H431 C450 0.929 . S
H432 C451 0.929 . S
H433 C463 0.931 . S
H434 C455 0.929 . S
H435 C464 0.930 . S
H436 C456 0.931 . S
O437 Co413 2.097 . S
O437 C465 1.214 . S
H438 C466 0.929 . S
H439 C467 0.929 . S
H440 C468 0.930 . S
H441 C469 0.929 . S
H442 C471 0.930 . S
H443 C448 0.930 . S
H444 C452 0.930 . S
O445 Co414 2.037 . S
O445 C465 1.234 . S
C446 O420 1.269 . S
C446 O421 1.257 . S
C447 H422 0.930 . S
C447 C450 1.388 . S
C447 C452 1.418 . S
C448 H443 0.930 . S
C448 C451 1.404 . S
C448 C452 1.353 . S
N449 Co414 2.145 . S
N449 C450 1.397 . S
N449 C451 1.334 . S
C450 H431 0.929 . S
C450 C447 1.388 . S
C450 N449 1.397 . S
C451 H432 0.929 . S
C451 C448 1.404 . S
C451 N449 1.334 . S
C452 H444 0.930 . S
C452 C447 1.418 . S
C452 C448 1.353 . S
C453 H423 0.930 . S
C453 N454 1.330 . S
C453 C455 1.446 . S
N454 Co413 2.151 . S
N454 C453 1.330 . S
N454 C458 1.418 . S
C455 H434 0.929 . S
C455 C453 1.446 . S
C455 C456 1.332 . S
C456 H436 0.931 . S
C456 C455 1.332 . S
C456 C457 1.267 . S
C457 H425 0.929 . S
C457 C456 1.267 . S
C457 C458 1.251 . S
C458 H428 0.929 . S
C458 N454 1.418 . S
C458 C457 1.251 . S
C459 H426 0.930 . S
C459 C461 1.406 . S
C459 C464 1.261 . S
C460 H427 0.930 . S
C460 N462 1.325 . S
C460 C463 1.357 . S
C461 H429 0.928 . S
C461 C459 1.406 . S
C461 N462 1.261 . S
N462 Co413 2.214 . S
N462 C460 1.325 . S
N462 C461 1.261 . S
C463 H433 0.931 . S
C463 C460 1.357 . S
C463 C464 1.312 . S
C464 H435 0.930 . S
C464 C459 1.261 . S
C464 C463 1.312 . S
C465 O437 1.214 . S
C465 O445 1.234 . S
C466 H438 0.929 . S
C466 C469 1.391 . S
C466 C471 1.391 . S
C467 H439 0.929 . S
C467 C468 1.390 . S
C467 N470 1.391 . S
C468 H440 0.930 . S
C468 C467 1.390 . S
C468 C469 1.392 . S
C469 H441 0.929 . S
C469 C466 1.391 . S
C469 C468 1.392 . S
N470 Co414 2.257 . S
N470 C467 1.391 . S
N470 C471 1.388 . S
C471 H442 0.930 . S
C471 C466 1.391 . S
C471 N470 1.388 . S
H472 C478 0.930 1_655 S
H473 C481 0.930 . S
H474 C482 0.930 . S
H475 C483 0.930 . S
H476 C486 0.930 . S
H477 C487 0.930 . S
C478 H472 0.930 1_455 S
C478 C479 1.355 . S
C478 C480 1.415 . S
C479 C478 1.355 . S
C479 C481 1.419 . S
C480 C478 1.415 . S
C480 C485 1.425 . S
C480 C487 1.409 1_455 S
C481 H473 0.930 . S
C481 C479 1.419 . S
C481 C482 1.362 . S
C482 H474 0.930 . S
C482 C481 1.362 . S
C482 C485 1.409 . S
C483 H475 0.930 . S
C483 C484 1.355 . S
C483 C485 1.415 . S
C484 C483 1.355 . S
C484 C486 1.419 1_455 S
C485 C480 1.425 . S
C485 C482 1.409 . S
C485 C483 1.415 . S
C486 H476 0.930 . S
C486 C484 1.419 1_655 S
C486 C487 1.362 . S
C487 H477 0.930 . S
C487 C480 1.409 1_655 S
C487 C486 1.362 . S
H488 C494 0.930 . S
H489 C497 0.930 . S
H490 C498 0.930 . S
H491 C499 0.930 1_655 S
H492 C502 0.930 . S
H493 C503 0.930 . S
C494 H488 0.930 . S
C494 C495 1.355 . S
C494 C496 1.415 . S
C495 C494 1.355 . S
C495 C497 1.419 1_455 S
C496 C494 1.415 . S
C496 C501 1.425 . S
C496 C503 1.409 . S
C497 H489 0.930 . S
C497 C495 1.419 1_655 S
C497 C498 1.362 . S
C498 H490 0.930 . S
C498 C497 1.362 . S
C498 C501 1.409 1_655 S
C499 H491 0.930 1_455 S
C499 C500 1.355 . S
C499 C501 1.415 . S
C500 C499 1.355 . S
C500 C502 1.419 . S
C501 C496 1.425 . S
C501 C498 1.409 1_455 S
C501 C499 1.415 . S
C502 H492 0.930 . S
C502 C500 1.419 . S
C502 C503 1.362 . S
C503 H493 0.930 . S
C503 C496 1.409 . S
C503 C502 1.362 . S
H504 C510 0.930 . S
H505 C513 0.930 . S
H506 C514 0.930 . S
H507 C515 0.930 . S
H508 C518 0.930 . S
H509 C519 0.930 . S
C510 H504 0.930 . S
C510 C511 1.355 . S
C510 C512 1.415 . S
C511 C510 1.355 . S
C511 C513 1.419 . S
C512 C510 1.415 . S
C512 C517 1.425 . S
C512 C519 1.409 . S
C513 H505 0.930 . S
C513 C511 1.419 . S
C513 C514 1.362 . S
C514 H506 0.930 . S
C514 C513 1.362 . S
C514 C517 1.409 . S
C515 H507 0.930 . S
C515 C516 1.355 . S
C515 C517 1.415 . S
C516 C515 1.355 . S
C516 C518 1.419 . S
C517 C512 1.425 . S
C517 C514 1.409 . S
C517 C515 1.415 . S
C518 H508 0.930 . S
C518 C516 1.419 . S
C518 C519 1.362 . S
C519 H509 0.930 . S
C519 C512 1.409 . S
C519 C518 1.362 . S
H520 C526 0.930 . S
H521 C529 0.930 . S
H522 C530 0.930 . S
H523 C531 0.930 . S
H524 C534 0.930 . S
H525 C535 0.930 . S
C526 H520 0.930 . S
C526 C527 1.355 . S
C526 C528 1.415 . S
C527 C526 1.355 . S
C527 C529 1.419 . S
C528 C526 1.415 . S
C528 C533 1.425 . S
C528 C535 1.409 . S
C529 H521 0.930 . S
C529 C527 1.419 . S
C529 C530 1.362 . S
C530 H522 0.930 . S
C530 C529 1.362 . S
C530 C533 1.409 . S
C531 H523 0.930 . S
C531 C532 1.355 . S
C531 C533 1.415 . S
C532 C531 1.355 . S
C532 C534 1.419 . S
C533 C528 1.425 . S
C533 C530 1.409 . S
C533 C531 1.415 . S
C534 H524 0.930 . S
C534 C532 1.419 . S
C534 C535 1.362 . S
C535 H525 0.930 . S
C535 C528 1.409 . S
C535 C534 1.362 . S
H536 C542 0.930 . S
H537 C545 0.930 . S
H538 C546 0.930 . S
H539 C547 0.930 . S
H540 C550 0.930 . S
H541 C551 0.930 . S
C542 H536 0.930 . S
C542 C543 1.355 . S
C542 C544 1.415 . S
C543 C542 1.355 . S
C543 C545 1.419 . S
C544 C542 1.415 . S
C544 C549 1.425 . S
C544 C551 1.409 . S
C545 H537 0.930 . S
C545 C543 1.419 . S
C545 C546 1.362 . S
C546 H538 0.930 . S
C546 C545 1.362 . S
C546 C549 1.409 . S
C547 H539 0.930 . S
C547 C548 1.355 . S
C547 C549 1.415 . S
C548 C547 1.355 . S
C548 C550 1.419 . S
C549 C544 1.425 . S
C549 C546 1.409 . S
C549 C547 1.415 . S
C550 H540 0.930 . S
C550 C548 1.419 . S
C550 C551 1.362 . S
C551 H541 0.930 . S
C551 C544 1.409 . S
C551 C550 1.362 . S
H552 C558 0.930 . S
H553 C561 0.930 . S
H554 C562 0.930 . S
H555 C563 0.930 . S
H556 C566 0.930 . S
H557 C567 0.930 . S
C558 H552 0.930 . S
C558 C559 1.355 . S
C558 C560 1.415 . S
C559 C558 1.355 . S
C559 C561 1.419 . S
C560 C558 1.415 . S
C560 C565 1.425 . S
C560 C567 1.409 . S
C561 H553 0.930 . S
C561 C559 1.419 . S
C561 C562 1.362 . S
C562 H554 0.930 . S
C562 C561 1.362 . S
C562 C565 1.409 . S
C563 H555 0.930 . S
C563 C564 1.355 . S
C563 C565 1.415 . S
C564 C563 1.355 . S
C564 C566 1.419 . S
C565 C560 1.425 . S
C565 C562 1.409 . S
C565 C563 1.415 . S
C566 H556 0.930 . S
C566 C564 1.419 . S
C566 C567 1.362 . S
C567 H557 0.930 . S
C567 C560 1.409 . S
C567 C566 1.362 . S
H568 C574 0.930 . S
H569 C577 0.930 . S
H570 C578 0.930 . S
H571 C579 0.930 . S
H572 C582 0.930 . S
H573 C583 0.930 . S
C574 H568 0.930 . S
C574 C575 1.355 . S
C574 C576 1.415 . S
C575 C574 1.355 . S
C575 C577 1.419 . S
C576 C574 1.415 . S
C576 C581 1.425 . S
C576 C583 1.409 . S
C577 H569 0.930 . S
C577 C575 1.419 . S
C577 C578 1.362 . S
C578 H570 0.930 . S
C578 C577 1.362 . S
C578 C581 1.409 . S
C579 H571 0.930 . S
C579 C580 1.355 . S
C579 C581 1.415 . S
C580 C579 1.355 . S
C580 C582 1.419 . S
C581 C576 1.425 . S
C581 C578 1.409 . S
C581 C579 1.415 . S
C582 H572 0.930 . S
C582 C580 1.419 . S
C582 C583 1.362 . S
C583 H573 0.930 . S
C583 C576 1.409 . S
C583 C582 1.362 . S
H584 C590 0.930 . S
H585 C593 0.930 . S
H586 C594 0.930 . S
H587 C595 0.930 . S
H588 C598 0.930 . S
H589 C599 0.930 . S
C590 H584 0.930 . S
C590 C591 1.355 . S
C590 C592 1.415 . S
C591 C590 1.355 . S
C591 C593 1.419 . S
C592 C590 1.415 . S
C592 C597 1.425 . S
C592 C599 1.409 . S
C593 H585 0.930 . S
C593 C591 1.419 . S
C593 C594 1.362 . S
C594 H586 0.930 . S
C594 C593 1.362 . S
C594 C597 1.409 . S
C595 H587 0.930 . S
C595 C596 1.355 . S
C595 C597 1.415 . S
C596 C595 1.355 . S
C596 C598 1.419 . S
C597 C592 1.425 . S
C597 C594 1.409 . S
C597 C595 1.415 . S
C598 H588 0.930 . S
C598 C596 1.419 . S
C598 C599 1.362 . S
C599 H589 0.930 . S
C599 C592 1.409 . S
C599 C598 1.362 . S
H600 C606 0.930 . S
H601 C609 0.930 . S
H602 C610 0.930 . S
H603 C611 0.930 . S
H604 C614 0.930 . S
H605 C615 0.930 . S
C606 H600 0.930 . S
C606 C607 1.355 . S
C606 C608 1.415 . S
C607 C606 1.355 . S
C607 C609 1.419 . S
C608 C606 1.415 . S
C608 C613 1.425 . S
C608 C615 1.409 . S
C609 H601 0.930 . S
C609 C607 1.419 . S
C609 C610 1.362 . S
C610 H602 0.930 . S
C610 C609 1.362 . S
C610 C613 1.409 . S
C611 H603 0.930 . S
C611 C612 1.355 . S
C611 C613 1.415 . S
C612 C611 1.355 . S
C612 C614 1.419 . S
C613 C608 1.425 . S
C613 C610 1.409 . S
C613 C611 1.415 . S
C614 H604 0.930 . S
C614 C612 1.419 . S
C614 C615 1.362 . S
C615 H605 0.930 . S
C615 C608 1.409 . S
C615 C614 1.362 . S
H616 C622 0.930 . S
H617 C625 0.930 . S
H618 C626 0.930 . S
H619 C627 0.930 . S
H620 C630 0.930 . S
H621 C631 0.930 . S
C622 H616 0.930 . S
C622 C623 1.355 . S
C622 C624 1.415 . S
C623 C622 1.355 . S
C623 C625 1.419 . S
C624 C622 1.415 . S
C624 C629 1.425 . S
C624 C631 1.409 . S
C625 H617 0.930 . S
C625 C623 1.419 . S
C625 C626 1.362 . S
C626 H618 0.930 . S
C626 C625 1.362 . S
C626 C629 1.409 . S
C627 H619 0.930 . S
C627 C628 1.355 . S
C627 C629 1.415 . S
C628 C627 1.355 . S
C628 C630 1.419 . S
C629 C624 1.425 . S
C629 C626 1.409 . S
C629 C627 1.415 . S
C630 H620 0.930 . S
C630 C628 1.419 . S
C630 C631 1.362 . S
C631 H621 0.930 . S
C631 C624 1.409 . S
C631 C630 1.362 . S
H632 C638 0.930 . S
H633 C641 0.930 . S
H634 C642 0.930 . S
H635 C643 0.930 . S
H636 C646 0.930 . S
H637 C647 0.930 . S
C638 H632 0.930 . S
C638 C639 1.355 . S
C638 C640 1.415 . S
C639 C638 1.355 . S
C639 C641 1.419 . S
C640 C638 1.415 . S
C640 C645 1.425 . S
C640 C647 1.409 . S
C641 H633 0.930 . S
C641 C639 1.419 . S
C641 C642 1.362 . S
C642 H634 0.930 . S
C642 C641 1.362 . S
C642 C645 1.409 . S
C643 H635 0.930 . S
C643 C644 1.355 . S
C643 C645 1.415 . S
C644 C643 1.355 . S
C644 C646 1.419 . S
C645 C640 1.425 . S
C645 C642 1.409 . S
C645 C643 1.415 . S
C646 H636 0.930 . S
C646 C644 1.419 . S
C646 C647 1.362 . S
C647 H637 0.930 . S
C647 C640 1.409 . S
C647 C646 1.362 . S
H648 C654 0.930 . S
H649 C657 0.930 . S
H650 C658 0.930 . S
H651 C659 0.930 . S
H652 C662 0.930 . S
H653 C663 0.930 . S
C654 H648 0.930 . S
C654 C655 1.355 . S
C654 C656 1.415 . S
C655 C654 1.355 . S
C655 C657 1.419 . S
C656 C654 1.415 . S
C656 C661 1.425 . S
C656 C663 1.409 . S
C657 H649 0.930 . S
C657 C655 1.419 . S
C657 C658 1.362 . S
C658 H650 0.930 . S
C658 C657 1.362 . S
C658 C661 1.409 . S
C659 H651 0.930 . S
C659 C660 1.355 . S
C659 C661 1.415 . S
C660 C659 1.355 . S
C660 C662 1.419 . S
C661 C656 1.425 . S
C661 C658 1.409 . S
C661 C659 1.415 . S
C662 H652 0.930 . S
C662 C660 1.419 . S
C662 C663 1.362 . S
C663 H653 0.930 . S
C663 C656 1.409 . S
C663 C662 1.362 . S
H664 C670 0.930 . S
H665 C673 0.930 . S
H666 C674 0.930 . S
H667 C675 0.930 . S
H668 C678 0.930 . S
H669 C679 0.930 . S
C670 H664 0.930 . S
C670 C671 1.355 . S
C670 C672 1.415 1_545 S
C671 C670 1.355 . S
C671 C673 1.419 1_455 S
C672 C670 1.415 1_565 S
C672 C677 1.425 1_564 S
C672 C679 1.409 . S
C673 H665 0.930 . S
C673 C671 1.419 1_655 S
C673 C674 1.362 1_554 S
C674 H666 0.930 . S
C674 C673 1.362 1_556 S
C674 C677 1.409 1_655 S
C675 H667 0.930 . S
C675 C676 1.355 1_655 S
C675 C677 1.415 1_665 S
C676 C675 1.355 1_455 S
C676 C678 1.419 . S
C677 C672 1.425 1_546 S
C677 C674 1.409 1_455 S
C677 C675 1.415 1_445 S
C678 H668 0.930 . S
C678 C676 1.419 . S
C678 C679 1.362 1_556 S
C679 H669 0.930 . S
C679 C672 1.409 . S
C679 C678 1.362 1_554 S
H680 C686 0.930 1_554 S
H681 C689 0.930 . S
H682 C690 0.930 . S
H683 C691 0.930 1_556 S
H684 C694 0.930 . S
H685 C695 0.930 . S
C686 H680 0.930 1_556 S
C686 C687 1.355 . S
C686 C688 1.415 1_556 S
C687 C686 1.355 . S
C687 C689 1.419 . S
C688 C686 1.415 1_554 S
C688 C693 1.425 1_554 S
C688 C695 1.409 . S
C689 H681 0.930 . S
C689 C687 1.419 . S
C689 C690 1.362 . S
C690 H682 0.930 . S
C690 C689 1.362 . S
C690 C693 1.409 . S
C691 H683 0.930 1_554 S
C691 C692 1.355 . S
C691 C693 1.415 1_554 S
C692 C691 1.355 . S
C692 C694 1.419 . S
C693 C688 1.425 1_556 S
C693 C690 1.409 . S
C693 C691 1.415 1_556 S
C694 H684 0.930 . S
C694 C692 1.419 . S
C694 C695 1.362 . S
C695 H685 0.930 . S
C695 C688 1.409 . S
C695 C694 1.362 . S
H696 C702 0.930 . S
H697 C705 0.930 . S
H698 C706 0.930 . S
H699 C707 0.930 . S
H700 C710 0.930 . S
H701 C711 0.930 . S
C702 H696 0.930 . S
C702 C703 1.355 . S
C702 C704 1.415 . S
C703 C702 1.355 . S
C703 C705 1.419 . S
C704 C702 1.415 . S
C704 C709 1.425 . S
C704 C711 1.409 . S
C705 H697 0.930 . S
C705 C703 1.419 . S
C705 C706 1.362 . S
C706 H698 0.930 . S
C706 C705 1.362 . S
C706 C709 1.409 . S
C707 H699 0.930 . S
C707 C708 1.355 . S
C707 C709 1.415 . S
C708 C707 1.355 . S
C708 C710 1.419 . S
C709 C704 1.425 . S
C709 C706 1.409 . S
C709 C707 1.415 . S
C710 H700 0.930 . S
C710 C708 1.419 . S
C710 C711 1.362 . S
C711 H701 0.930 . S
C711 C704 1.409 . S
C711 C710 1.362 . S
H712 C718 0.930 . S
H713 C721 0.930 . S
H714 C722 0.930 . S
H715 C723 0.930 . S
H716 C726 0.930 . S
H717 C727 0.930 . S
C718 H712 0.930 . S
C718 C719 1.355 . S
C718 C720 1.415 1_565 S
C719 C718 1.355 . S
C719 C721 1.419 . S
C720 C718 1.415 1_545 S
C720 C725 1.425 1_545 S
C720 C727 1.409 . S
C721 H713 0.930 . S
C721 C719 1.419 . S
C721 C722 1.362 . S
C722 H714 0.930 . S
C722 C721 1.362 . S
C722 C725 1.409 . S
C723 H715 0.930 . S
C723 C724 1.355 . S
C723 C725 1.415 1_545 S
C724 C723 1.355 . S
C724 C726 1.419 . S
C725 C720 1.425 1_565 S
C725 C722 1.409 . S
C725 C723 1.415 1_565 S
C726 H716 0.930 . S
C726 C724 1.419 . S
C726 C727 1.362 . S
C727 H717 0.930 . S
C727 C720 1.409 . S
C727 C726 1.362 . S
C479 C111 1.524 . S
C484 C52 1.524 . S
C495 C170 1.510 . S
C500 C229 1.513 . S
C511 C288 1.518 . S
C516 C347 1.517 . S
C527 C406 1.521 . S
C532 C465 1.519 . S
C543 C416 1.234 . S
C548 C3 1.271 . S
C559 C357 1.240 . S
C564 C62 1.271 . S
C575 C121 1.259 . S
C580 C298 1.253 . S
C591 C239 1.231 . S
C596 C180 1.277 . S
C607 C328 1.704 . S
C612 C151 1.704 . S
C623 C269 1.702 . S
C628 C210 1.699 . S
C639 C446 1.702 . S
C644 C33 1.700 . S
C655 C92 1.703 . S
C660 C387 1.699 . S
C671 C5 1.483 . S
C676 C123 1.484 . S
C687 C182 1.479 . S
C692 C64 1.479 . S
C703 C359 1.479 . S
C708 C241 1.479 . S
C719 C300 1.483 . S
C724 C418 1.481 . S
