# Generated by pormake.
# Topology smu, (6)-cn, num edge types: 1
# Building blocks:
#     Node 0, Type 0, BuildingBlock: BETFEN_clean_sbu_0, # of connection points: 6
#     Node 1, Type 0, BuildingBlock: BETFEN_clean_sbu_0, # of connection points: 6
#     Node 2, Type 0, BuildingBlock: BETFEN_clean_sbu_0, # of connection points: 6
#     Node 3, Type 0, BuildingBlock: BETFEN_clean_sbu_0, # of connection points: 6
#     Node 4, Type 0, BuildingBlock: BETFEN_clean_sbu_0, # of connection points: 6
#     Node 5, Type 0, BuildingBlock: BETFEN_clean_sbu_0, # of connection points: 6
#     Edge 6, Type (0, 0), BuildingBlock: AJUNOK_clean_linker_0, # of connection points: 2
#     Edge 7, Type (0, 0), BuildingBlock: AJUNOK_clean_linker_0, # of connection points: 2
#     Edge 8, Type (0, 0), BuildingBlock: AJUNOK_clean_linker_0, # of connection points: 2
#     Edge 9, Type (0, 0), BuildingBlock: AJUNOK_clean_linker_0, # of connection points: 2
#     Edge 10, Type (0, 0), BuildingBlock: AJUNOK_clean_linker_0, # of connection points: 2
#     Edge 11, Type (0, 0), BuildingBlock: AJUNOK_clean_linker_0, # of connection points: 2
#     Edge 12, Type (0, 0), BuildingBlock: AJUNOK_clean_linker_0, # of connection points: 2
#     Edge 13, Type (0, 0), BuildingBlock: AJUNOK_clean_linker_0, # of connection points: 2
#     Edge 14, Type (0, 0), BuildingBlock: AJUNOK_clean_linker_0, # of connection points: 2
#     Edge 15, Type (0, 0), BuildingBlock: AJUNOK_clean_linker_0, # of connection points: 2
#     Edge 16, Type (0, 0), BuildingBlock: AJUNOK_clean_linker_0, # of connection points: 2
#     Edge 17, Type (0, 0), BuildingBlock: AJUNOK_clean_linker_0, # of connection points: 2
#     Edge 18, Type (0, 0), BuildingBlock: AJUNOK_clean_linker_0, # of connection points: 2
#     Edge 19, Type (0, 0), BuildingBlock: AJUNOK_clean_linker_0, # of connection points: 2
#     Edge 20, Type (0, 0), BuildingBlock: AJUNOK_clean_linker_0, # of connection points: 2
#     Edge 21, Type (0, 0), BuildingBlock: AJUNOK_clean_linker_0, # of connection points: 2
#     Edge 22, Type (0, 0), BuildingBlock: AJUNOK_clean_linker_0, # of connection points: 2
#     Edge 23, Type (0, 0), BuildingBlock: AJUNOK_clean_linker_0, # of connection points: 2
# Relax obj value: 0.231
# Max RMSD: 0.335
# Mean RMSD: 0.335
data_MOF--net-smu--node1-BETFEN_clean_sbu_0--edge1-AJUNOK_clean_linker_0
_symmetry_space_group_name_H-M    P1
_symmetry_Int_Tables_number       1
_symmetry_cell_setting            triclinic
loop_
_symmetry_equiv_pos_as_xyz
'x, y, z'
_cell_length_a     31.698719
_cell_length_b     31.723208
_cell_length_c     19.28736
_cell_angle_alpha  90.338379
_cell_angle_beta   90.239324
_cell_angle_gamma 119.99117
loop_
_atom_site_label
_atom_site_type_symbol
_atom_site_fract_x
_atom_site_fract_y
_atom_site_fract_z
_atom_type_partial_charge
Pr0 Pr 0.33655 0.13092 0.31008 0.0
Pr1 Pr 0.40269 0.10439 0.28676 0.0
C2 C 0.2724 0.15774 0.27233 0.0
C3 C 0.22274 0.14924 0.2733 0.0
C4 C 0.20107 0.15075 0.33594 0.0
C5 C 0.16543 0.16422 0.33563 0.0
C6 C 0.15166 0.17619 0.27283 0.0
C7 C 0.16783 0.1669 0.20997 0.0
C8 C 0.20304 0.1531 0.21031 0.0
C9 C 0.34926 0.1062 0.44595 0.0
C10 C 0.28051 1.02363 0.32575 0.0
C11 C 0.47013 0.07568 0.2946 0.0
C12 C 0.52463 0.1026 0.29509 0.0
C13 C 0.55018 0.08943 0.24852 0.0
C14 C 0.60145 0.11447 0.24821 0.0
C15 C 0.62873 0.15336 0.2947 0.0
C16 C 0.60298 0.16719 0.34023 0.0
C17 C 0.55176 0.14224 0.34043 0.0
C18 C 0.35397 0.08622 0.15965 0.0
C19 C 0.44405 0.22415 0.29544 0.0
O20 O 0.28265 0.13071 0.23233 0.0
O21 O 0.29799 0.17263 0.32971 0.0
O22 O 0.37092 0.10217 0.39325 0.0
O23 O 0.32432 0.12713 0.42981 0.0
O24 O 0.3218 0.03018 0.29613 0.0
O25 O 0.27915 0.06052 0.35128 0.0
O26 O 0.4483 0.08065 0.34861 0.0
O27 O 0.44876 0.07582 0.2369 0.0
O28 O 0.33454 0.07846 0.21916 0.0
O29 O 0.40091 0.11427 0.16584 0.0
O30 O 0.39832 0.20945 0.3023 0.0
O31 O 0.45743 0.1911 0.28994 0.0
H32 H 0.21507 0.14665 0.38524 0.0
H33 H 0.15194 0.16946 0.38456 0.0
H34 H 0.15756 0.17545 0.16067 0.0
H35 H 0.219 0.15143 0.1615 0.0
H36 H 0.53039 0.05949 0.21242 0.0
H37 H 0.61977 0.10269 0.21234 0.0
H38 H 0.62246 0.19768 0.37554 0.0
H39 H 0.53345 0.15415 0.37614 0.0
Pr40 Pr 0.85299 0.73312 0.3071 0.0
Pr41 Pr 0.75098 0.66089 0.28492 0.0
C42 C 0.94158 0.80131 0.26879 0.0
C43 C 0.98044 0.85179 0.27291 0.0
C44 C 1.00101 0.87333 0.33712 0.0
C45 C 0.04941 0.91029 0.3401 0.0
C46 C 0.07685 0.92485 0.27908 0.0
C47 C 0.05338 0.91019 0.21449 0.0
C48 C 1.00488 0.87345 0.21148 0.0
C49 C 0.81133 0.72249 0.44053 0.0
C50 C 0.7874 0.78127 0.3047 0.0
C51 C 0.65567 0.59396 0.29447 0.0
C52 C 0.62866 0.53974 0.29296 0.0
C53 C 0.59441 0.51472 0.24002 0.0
C54 C 0.56829 0.46374 0.23791 0.0
C55 C 0.57571 0.43637 0.28873 0.0
C56 C 0.61103 0.46125 0.34056 0.0
C57 C 0.63723 0.51239 0.34273 0.0
C58 C 0.79204 0.70187 0.15651 0.0
C59 C 0.83059 0.62072 0.29061 0.0
O60 O 0.90257 0.79138 0.23299 0.0
O61 O 0.93394 0.77363 0.32299 0.0
O62 O 0.78899 0.70026 0.38544 0.0
O63 O 0.85772 0.74869 0.42798 0.0
O64 O 0.75211 0.7379 0.28183 0.0
O65 O 0.82872 0.7874 0.32794 0.0
O66 O 0.68328 0.61557 0.34856 0.0
O67 O 0.67577 0.61561 0.23655 0.0
O68 O 0.80107 0.7239 0.21435 0.0
O69 O 0.76611 0.65518 0.16682 0.0
O70 O 0.86365 0.66671 0.28765 0.0
O71 O 0.78427 0.60801 0.29741 0.0
H72 H 0.98193 0.85791 0.38506 0.0
H73 H 0.06689 0.92306 0.39029 0.0
H74 H 0.07383 0.92231 0.1668 0.0
H75 H 0.98874 0.85781 0.16145 0.0
H76 H 0.58744 0.53468 0.20052 0.0
H77 H 0.54145 0.44555 0.19713 0.0
H78 H 0.61722 0.44116 0.38069 0.0
H79 H 0.66378 0.53042 0.38387 0.0
Pr80 Pr 0.92705 0.2108 0.30464 0.0
Pr81 Pr 0.96252 0.3116 0.28828 0.0
C82 C 0.89031 0.11658 0.2747 0.0
C83 C 0.90303 0.07811 0.26907 0.0
C84 C 0.91456 0.06012 0.32826 0.0
C85 C 0.9071 1.0129 0.32738 0.0
C86 C 0.88711 0.98356 0.2679 0.0
C87 C 0.88557 1.00522 0.20551 0.0
C88 C 0.89328 0.05242 0.20622 0.0
C89 C 0.97398 0.25753 0.42793 0.0
C90 C 0.04169 0.26919 0.29653 0.0
C91 C 0.98891 0.40666 0.30482 0.0
C92 C 0.96225 0.43467 0.29976 0.0
C93 C 0.95118 0.44748 0.23513 0.0
C94 C 0.92675 0.47422 0.23101 0.0
C95 C 0.91298 0.48964 0.29131 0.0
C96 C 0.92312 0.47584 0.35585 0.0
C97 C 0.94741 0.44893 0.35999 0.0
C98 C 0.96132 0.27387 0.15514 0.0
C99 C 0.84117 0.23764 0.29808 0.0
O100 O 0.9065 0.15004 0.22675 0.0
O101 O 0.88834 0.13243 0.33684 0.0
O102 O 0.94723 0.26954 0.39222 0.0
O103 O 0.96966 0.21693 0.40529 0.0
O104 O 1.03768 0.30879 0.28709 0.0
O105 O 1.00401 0.22696 0.30978 0.0
O106 O 0.97805 0.3767 0.35658 0.0
O107 O 0.99621 0.38898 0.24774 0.0
O108 O 0.97155 0.26054 0.21156 0.0
O109 O 0.94378 0.30226 0.16915 0.0
O110 O 0.85142 0.20411 0.3148 0.0
O111 O 0.87646 0.28162 0.28189 0.0
H112 H 0.92416 0.08017 0.37688 0.0
H113 H 0.91099 0.99745 0.3753 0.0
H114 H 0.8719 0.9838 0.15831 0.0
H115 H 0.88583 0.0664 0.15943 0.0
H116 H 0.96142 0.43692 0.18741 0.0
H117 H 0.9185 0.48265 0.18018 0.0
H118 H 0.91329 0.48687 0.40352 0.0
H119 H 0.95502 0.43965 0.41069 0.0
Pr120 Pr 0.11656 0.39348 0.78582 0.0
Pr121 Pr 0.14447 0.31918 0.80292 0.0
C122 C 0.08915 0.4609 0.80252 0.0
C123 C 0.11601 0.51523 0.79939 0.0
C124 C 0.11191 0.53926 0.74081 0.0
C125 C 0.13713 0.59036 0.73768 0.0
C126 C 0.16683 0.6188 0.7933 0.0
C127 C 0.17161 0.59472 0.85128 0.0
C128 C 0.14655 0.54375 0.85437 0.0
C129 C 0.11818 0.35713 0.65366 0.0
C130 C 0.23589 0.43121 0.79531 0.0
C131 C 0.17199 0.25606 0.76096 0.0
C132 C 0.16574 0.20723 0.76344 0.0
C133 C 0.16944 0.18809 0.82673 0.0
C134 C 0.17912 0.15008 0.82759 0.0
C135 C 0.1834 0.1291 0.76522 0.0
C136 C 0.17427 0.14487 0.70205 0.0
C137 C 0.16573 0.18404 0.70121 0.0
C138 C 0.11013 0.3263 0.93618 0.0
C139 C 1.03207 0.27177 0.79536 0.0
O140 O 0.09933 0.44106 0.85442 0.0
O141 O 0.08306 0.4372 0.74437 0.0
O142 O 0.10489 0.3329 0.70934 0.0
O143 O 0.13823 0.40334 0.66837 0.0
O144 O 0.22156 0.38507 0.79735 0.0
O145 O 0.20326 0.44554 0.79516 0.0
O146 O 0.13997 0.26244 0.72677 0.0
O147 O 0.19015 0.28403 0.81604 0.0
O148 O 0.11217 0.3504 0.88267 0.0
O149 O 0.12947 0.29942 0.92199 0.0
O150 O 0.04077 0.31598 0.77634 0.0
O151 O 0.06638 0.26441 0.81873 0.0
H152 H 0.08891 0.51852 0.69742 0.0
H153 H 0.1325 0.60767 0.69235 0.0
H154 H 0.19484 0.61539 0.89451 0.0
H155 H 0.15115 0.52678 0.90013 0.0
H156 H 0.16929 0.2052 0.87546 0.0
H157 H 0.18733 0.14023 0.8774 0.0
H158 H 0.17675 0.12904 0.65341 0.0
H159 H 0.16269 0.19842 0.6518 0.0
Pr160 Pr 0.32985 0.95106 0.77432 0.0
Pr161 Pr 0.22859 0.91679 0.80513 0.0
C162 C 0.42598 0.98186 0.77877 0.0
C163 C 0.45347 0.95514 0.78377 0.0
C164 C 0.48591 0.96021 0.7309 0.0
C165 C 0.51108 0.93437 0.7327 0.0
C166 C 0.50471 0.90261 0.78755 0.0
C167 C 0.47172 0.89701 0.84029 0.0
C168 C 0.44625 0.92281 0.83831 0.0
C169 C 0.28407 0.9496 0.65125 0.0
C170 C 0.25107 0.83018 0.78052 0.0
C171 C 0.14308 0.91111 0.78399 0.0
C172 C 0.0966 0.9097 0.78244 0.0
C173 C 0.07103 0.90293 0.84409 0.0
C174 C 1.02148 0.88704 0.84158 0.0
C175 C 0.99696 0.87608 0.77735 0.0
C176 C 1.02427 0.88938 0.7159 0.0
C177 C 0.07421 0.90681 0.71863 0.0
C178 C 0.27445 0.93509 0.93759 0.0
C179 C 0.29001 0.02755 0.81342 0.0
O180 O 0.40176 0.9825 0.83313 0.0
O181 O 0.40204 0.97595 0.72098 0.0
O182 O 0.27547 0.96161 0.71008 0.0
O183 O 0.30911 0.92747 0.6587 0.0
O184 O 0.21655 0.84109 0.77615 0.0
O185 O 0.29725 0.86496 0.78666 0.0
O186 O 0.18173 0.94328 0.75123 0.0
O187 O 0.14897 0.8819 0.82548 0.0
O188 O 0.29484 0.94126 0.87935 0.0
O189 O 0.22736 0.91217 0.92784 0.0
O190 O 0.32016 1.02301 0.77024 0.0
O191 O 0.26577 0.99179 0.85379 0.0
H192 H 0.49174 0.98422 0.68778 0.0
H193 H 0.53581 0.9394 0.69085 0.0
H194 H 0.46641 0.8736 0.88394 0.0
H195 H 0.42104 0.9175 0.8796 0.0
H196 H 0.08841 0.90614 0.89388 0.0
H197 H 1.00165 0.87912 0.88982 0.0
H198 H 1.00682 0.88176 0.66546 0.0
H199 H 0.09407 0.91296 0.67065 0.0
Pr200 Pr 0.6734 0.73813 0.78798 0.0
Pr201 Pr 0.74603 0.84114 0.81066 0.0
C202 C 0.60663 0.64315 0.8007 0.0
C203 C 0.55231 0.61584 0.79771 0.0
C204 C 0.52803 0.58644 0.7398 0.0
C205 C 0.47703 0.56032 0.73629 0.0
C206 C 0.44874 0.56227 0.79106 0.0
C207 C 0.47296 0.5929 0.84806 0.0
C208 C 0.5241 0.61933 0.85143 0.0
C209 C 0.71617 0.77736 0.65927 0.0
C210 C 0.63329 0.81802 0.79711 0.0
C211 C 0.81083 0.9321 0.77673 0.0
C212 C 0.86073 0.97266 0.77442 0.0
C213 C 0.88576 0.9965 0.83548 0.0
C214 C 0.92176 0.04541 0.83313 0.0
C215 C 0.93217 0.07037 0.76995 0.0
C216 C 0.91295 0.04398 0.70804 0.0
C217 C 0.87752 0.99515 0.71036 0.0
C218 C 0.73695 0.79811 0.94186 0.0
C219 C 0.79542 0.77711 0.80564 0.0
O220 O 0.62731 0.67207 0.85396 0.0
O221 O 0.62931 0.66185 0.74277 0.0
O222 O 0.73699 0.78822 0.71821 0.0
O223 O 0.66939 0.75063 0.66843 0.0
O224 O 0.67927 0.85101 0.79876 0.0
O225 O 0.62023 0.7714 0.79703 0.0
O226 O 0.79773 0.89549 0.73377 0.0
O227 O 0.78817 0.92085 0.83625 0.0
O228 O 0.71419 0.77659 0.8868 0.0
O229 O 0.76195 0.84472 0.93087 0.0
O230 O 0.75125 0.7405 0.78788 0.0
O231 O 0.80227 0.81919 0.8265 0.0
H232 H 0.54852 0.58336 0.69718 0.0
H233 H 0.45964 0.53794 0.69086 0.0
H234 H 0.45237 0.59523 0.8911 0.0
H235 H 0.54144 0.64205 0.89658 0.0
H236 H 0.87406 0.97921 0.88547 0.0
H237 H 0.93759 0.06484 0.88128 0.0
H238 H 0.92044 0.06205 0.65846 0.0
H239 H 0.85897 0.97698 0.66264 0.0
C240 C 0.33599 1.02002 0.98316 0.0
C241 C 0.2974 0.97205 0.99516 0.0
C242 C 0.35304 0.0568 1.03539 0.0
C243 C 0.33278 0.04744 0.10244 0.0
H244 H 0.35249 0.02969 0.93245 0.0
H245 H 0.38242 0.09287 1.02308 0.0
S246 S 0.23464 0.92555 0.16115 0.0
N247 N 0.24098 0.91694 0.0786 0.0
N248 N 0.27478 0.98321 0.17703 0.0
C249 C 0.29524 0.99885 0.11451 0.0
C250 C 0.27722 0.96209 0.0611 0.0
C251 C 0.75995 0.79142 0.54345 0.0
C252 C 0.73921 0.76262 0.60249 0.0
C253 C 0.78369 0.77851 0.49233 0.0
C254 C 0.78736 0.73595 0.49719 0.0
H255 H 0.75843 0.82453 0.53722 0.0
H256 H 0.79986 0.80246 0.4489 0.0
S257 S 0.74484 0.65126 0.64521 0.0
N258 N 0.72752 0.6911 0.66455 0.0
N259 N 0.77221 0.66787 0.56946 0.0
C260 C 0.7683 0.70786 0.55686 0.0
C261 C 0.74422 0.72086 0.60893 0.0
C262 C 1.03271 0.33526 0.08366 0.0
C263 C 0.99618 0.28637 0.09517 0.0
C264 C 0.06917 0.3481 1.03258 0.0
C265 C 0.07177 0.31259 0.99155 0.0
H266 H 1.0337 0.36401 0.11544 0.0
H267 H 0.09607 0.38613 1.02605 0.0
S268 S 0.98221 0.17985 0.99506 0.0
N269 N 0.96308 0.20284 0.05632 0.0
N270 N 1.03196 0.22623 0.96315 0.0
C271 C 1.03505 0.26361 1.00184 0.0
C272 C 0.99739 0.25072 0.05281 0.0
C273 C 0.36196 0.04835 0.52062 0.0
C274 C 0.33288 0.06865 0.5022 0.0
C275 C 0.34501 1.0084 0.56584 0.0
C276 C 0.29779 0.98621 0.59437 0.0
H277 H 0.39825 0.06339 0.49957 0.0
H278 H 0.36978 0.9956 0.57981 0.0
S279 S 0.20464 1.02136 0.55774 0.0
N280 N 0.25245 0.06045 0.51284 0.0
N281 N 0.22139 0.98624 0.5981 0.0
C282 C 0.26793 1.00544 0.57555 0.0
C283 C 0.28514 0.04622 0.5295 0.0
C284 C 0.71904 0.72603 1.01814 0.0
C285 C 0.75157 0.77377 0.99629 0.0
C286 C 0.73309 0.70211 0.06709 0.0
C287 C 0.78078 0.72426 0.09535 0.0
H288 H 0.68206 0.70723 0.99815 0.0
H289 H 0.70577 0.66638 0.08444 0.0
S290 S 0.88261 0.84569 0.0464 0.0
N291 N 0.83542 0.84053 1.00237 0.0
N292 N 0.86199 0.79478 0.09069 0.0
C293 C 0.81437 0.77093 0.07094 0.0
C294 C 0.79981 0.7958 1.02253 0.0
C295 C 0.04737 0.27369 0.50003 0.0
C296 C 1.01182 0.28676 0.48301 0.0
C297 C 0.08314 0.29817 0.55213 0.0
C298 C 0.08521 0.33685 0.59075 0.0
H299 H 0.04756 0.24373 0.47307 0.0
H300 H 0.10866 0.2858 0.56351 0.0
S301 S 1.00177 0.38653 0.56734 0.0
N302 N 0.98241 0.34234 0.50886 0.0
N303 N 0.04846 0.38753 0.60737 0.0
C304 C 0.05061 0.35104 0.57351 0.0
C305 C 1.01434 0.3263 0.51979 0.0
C306 C 0.71095 0.19238 0.23463 0.0
C307 C 0.68367 0.1787 0.29649 0.0
C308 C 0.76234 0.21456 0.23541 0.0
C309 C 0.78866 0.22379 0.29805 0.0
H310 H 0.6924 0.18552 0.18503 0.0
H311 H 0.78141 0.22277 0.18651 0.0
S312 S 0.7355 0.19316 0.47396 0.0
N313 N 0.68786 0.17535 0.4221 0.0
N314 N 0.78356 0.21613 0.42306 0.0
C315 C 0.76199 0.21023 0.35996 0.0
C316 C 0.7099 0.18816 0.35937 0.0
C317 C 0.56112 0.34985 0.28931 0.0
C318 C 0.54298 0.38241 0.29126 0.0
C319 C 0.52945 0.29877 0.29024 0.0
C320 C 0.47848 0.27837 0.29412 0.0
H321 H 0.60001 0.36397 0.28607 0.0
H322 H 0.545 0.2752 0.28801 0.0
S323 S 0.41355 0.34934 0.3054 0.0
N324 N 0.4716 0.3911 0.30051 0.0
N325 N 0.4122 0.29671 0.30257 0.0
C326 C 0.46038 0.31128 0.29745 0.0
C327 C 0.49252 0.36275 0.296 0.0
C328 C 0.85005 0.51268 0.33015 0.0
C329 C 0.88967 0.52122 0.28728 0.0
C330 C 0.82925 0.5432 0.32894 0.0
C331 C 0.84765 0.58419 0.28566 0.0
H332 H 0.83503 0.48216 0.36527 0.0
H333 H 0.79972 0.53563 0.36397 0.0
S334 S 0.94997 0.62269 0.16213 0.0
N335 N 0.94558 0.57396 0.19933 0.0
N336 N 0.90695 0.63057 0.19713 0.0
C337 C 0.88663 0.59263 0.24183 0.0
C338 C 0.90742 0.56145 0.24253 0.0
C339 C 0.21831 0.69998 0.73414 0.0
C340 C 0.19123 0.67331 0.79211 0.0
C341 C 0.24024 0.75123 0.73187 0.0
C342 C 0.23554 0.77765 0.78721 0.0
H343 H 0.22233 0.68105 0.69001 0.0
H344 H 0.25952 0.77006 0.6856 0.0
S345 S 0.1667 0.72552 0.94923 0.0
N346 N 0.16029 0.6778 0.90533 0.0
N347 N 0.20068 0.77326 0.90058 0.0
C348 C 0.2085 0.75146 0.84515 0.0
C349 C 0.18669 0.69961 0.84782 0.0
C350 C 0.58539 0.90644 0.77756 0.0
C351 C 0.53528 0.87859 0.79103 0.0
C352 C 0.61567 0.88601 0.77918 0.0
C353 C 0.59773 0.83636 0.79427 0.0
H354 H 0.60175 0.94486 0.76627 0.0
H355 H 0.65389 0.90994 0.76828 0.0
S356 S 0.46882 0.74684 0.83306 0.0
N357 N 0.46858 0.79814 0.81969 0.0
N358 N 0.52579 0.75972 0.82302 0.0
C359 C 0.54754 0.80778 0.80778 0.0
C360 C 0.51642 0.82886 0.80642 0.0
C361 C 0.31125 0.51587 0.80619 0.0
C362 C 0.29009 0.46561 0.79221 0.0
C363 C 0.36244 0.54714 0.80599 0.0
C364 C 0.39448 0.52953 0.79084 0.0
H365 H 0.28822 0.53108 0.81833 0.0
H366 H 0.37705 0.58545 0.81734 0.0
S367 S 0.3588 0.40131 0.75141 0.0
N368 N 0.30673 0.40028 0.76239 0.0
N369 N 0.40138 0.45855 0.76348 0.0
C370 C 0.37389 0.47959 0.77675 0.0
C371 C 0.32226 0.44787 0.77701 0.0
C372 C 0.14369 0.24628 0.31665 0.0
C373 C 0.12717 0.20526 0.27259 0.0
C374 C 0.1208 0.2744 0.31708 0.0
C375 C 0.08197 0.26331 0.27167 0.0
H376 H 0.17339 0.25566 0.35281 0.0
H377 H 0.13061 0.30196 0.35706 0.0
S378 S 1.02389 0.15832 0.14909 0.0
N379 N 0.06815 0.15347 0.18604 0.0
N380 N 1.02895 0.20921 0.18024 0.0
C381 C 0.06825 0.22482 0.22313 0.0
C382 C 0.08926 0.19452 0.22605 0.0
C383 C 0.16052 0.98775 0.24684 0.0
C384 C 0.12975 0.9456 0.28317 0.0
C385 C 0.21074 1.00862 0.25373 0.0
C386 C 0.23196 0.98899 0.29859 0.0
H387 H 0.14582 1.00563 0.21526 0.0
H388 H 0.23332 0.04238 0.22728 0.0
S389 S 0.16629 0.87187 0.38938 0.0
N390 N 0.12297 0.87853 0.35219 0.0
N391 N 0.21835 0.9209 0.36972 0.0
C392 C 0.20158 0.94466 0.33007 0.0
C393 C 0.15018 0.9223 0.32127 0.0
C394 C 0.85904 0.89932 0.22412 0.0
C395 C 0.85655 0.9302 0.27408 0.0
C396 C 0.8275 0.84903 0.22689 0.0
C397 C 0.79327 0.82744 0.28049 0.0
H398 H 0.8865 0.91392 0.18409 0.0
H399 H 0.83411 0.82633 0.19212 0.0
S400 S 0.76716 0.89316 0.417 0.0
N401 N 0.81243 0.93651 0.37294 0.0
N402 N 0.75516 0.84137 0.37946 0.0
C403 C 0.78834 0.8582 0.32769 0.0
C404 C 0.81985 0.9096 0.32461 0.0
C405 C 0.24377 0.10467 0.7251 0.0
C406 C 0.20422 0.09642 0.76771 0.0
C407 C 0.27274 0.08357 0.74006 0.0
C408 C 0.2645 0.05559 0.79999 0.0
H409 H 0.25364 0.1291 0.68152 0.0
H410 H 0.30188 0.08964 0.70515 0.0
S411 S 0.15984 1.01777 0.92203 0.0
N412 N 0.15204 0.05026 0.86254 0.0
N413 N 0.2107 1.01912 0.90053 0.0
C414 C 0.22362 0.04635 0.84176 0.0
C415 C 0.19215 0.06404 0.82259 0.0
C416 C 0.92102 0.80401 0.82039 0.0
C417 C 0.94347 0.84385 0.77481 0.0
C418 C 0.87032 0.77433 0.8225 0.0
C419 C 0.84045 0.78233 0.77743 0.0
H420 H 0.94263 0.79687 0.85702 0.0
H421 H 0.85438 0.74823 0.86398 0.0
S422 S 0.8808 0.8794 0.64485 0.0
N423 N 0.9316 0.889 0.6828 0.0
N424 N 0.83705 0.82996 0.68122 0.0
C425 C 0.86289 0.81859 0.72623 0.0
C426 C 0.91415 0.85065 0.72689 0.0
C427 C 0.9558 0.19679 0.81571 0.0
C428 C 0.99177 0.22625 0.76832 0.0
C429 C 0.93673 0.14628 0.81582 0.0
C430 C 0.95379 0.12371 0.76945 0.0
H431 H 0.94601 0.21328 0.85733 0.0
H432 H 0.90952 0.12495 0.85405 0.0
S433 S 0.04719 0.18447 0.63458 0.0
N434 N 0.04093 0.2284 0.67046 0.0
N435 N 1.00829 0.13438 0.67491 0.0
C436 C 0.98789 0.15228 0.71968 0.0
C437 C 1.0053 0.20314 0.71724 0.0
loop_
_geom_bond_atom_site_label_1
_geom_bond_atom_site_label_2
_geom_bond_distance
_geom_bond_site_symmetry_2
_ccdc_geom_bond_type
Pr0 C2 2.880 . S
Pr0 O20 2.562 . S
Pr0 O21 2.490 . S
Pr0 O22 2.695 . S
Pr0 O23 2.512 . S
Pr0 O25 2.437 . S
Pr0 O28 2.436 . S
Pr0 O30 2.438 . S
Pr1 C11 2.880 . S
Pr1 O22 2.436 . S
Pr1 O24 2.438 . S
Pr1 O26 2.562 . S
Pr1 O27 2.490 . S
Pr1 O28 2.695 . S
Pr1 O29 2.512 . S
Pr1 O31 2.437 . S
C2 Pr0 2.880 . S
C2 C3 1.491 . S
C2 O20 1.254 . S
C2 O21 1.225 . S
C3 C2 1.491 . S
C3 C4 1.392 . S
C3 C8 1.356 . S
C4 C3 1.392 . S
C4 C5 1.368 . S
C4 H32 0.929 . S
C5 C4 1.368 . S
C5 C6 1.386 . S
C5 H33 0.929 . S
C6 C5 1.386 . S
C6 C7 1.373 . S
C7 C6 1.373 . S
C7 C8 1.409 . S
C7 H34 0.931 . S
C8 C3 1.356 . S
C8 C7 1.409 . S
C8 H35 0.930 . S
C9 O22 1.270 . S
C9 O23 1.248 . S
C10 O24 1.267 . S
C10 O25 1.278 . S
C11 Pr1 2.880 . S
C11 C12 1.491 . S
C11 O26 1.254 . S
C11 O27 1.225 . S
C12 C11 1.491 . S
C12 C13 1.392 . S
C12 C17 1.356 . S
C13 C12 1.392 . S
C13 C14 1.368 . S
C13 H36 0.929 . S
C14 C13 1.368 . S
C14 C15 1.386 . S
C14 H37 0.929 . S
C15 C14 1.386 . S
C15 C16 1.373 . S
C16 C15 1.373 . S
C16 C17 1.409 . S
C16 H38 0.931 . S
C17 C12 1.356 . S
C17 C16 1.409 . S
C17 H39 0.930 . S
C18 O28 1.270 . S
C18 O29 1.248 . S
C19 O30 1.267 . S
C19 O31 1.278 . S
O20 Pr0 2.562 . S
O20 C2 1.254 . S
O21 Pr0 2.490 . S
O21 C2 1.225 . S
O22 Pr0 2.695 . S
O22 Pr1 2.436 . S
O22 C9 1.270 . S
O23 Pr0 2.512 . S
O23 C9 1.248 . S
O24 Pr1 2.438 . S
O24 C10 1.267 . S
O25 Pr0 2.437 . S
O25 C10 1.278 . S
O26 Pr1 2.562 . S
O26 C11 1.254 . S
O27 Pr1 2.490 . S
O27 C11 1.225 . S
O28 Pr0 2.436 . S
O28 Pr1 2.695 . S
O28 C18 1.270 . S
O29 Pr1 2.512 . S
O29 C18 1.248 . S
O30 Pr0 2.438 . S
O30 C19 1.267 . S
O31 Pr1 2.437 . S
O31 C19 1.278 . S
H32 C4 0.929 . S
H33 C5 0.929 . S
H34 C7 0.931 . S
H35 C8 0.930 . S
H36 C13 0.929 . S
H37 C14 0.929 . S
H38 C16 0.931 . S
H39 C17 0.930 . S
Pr40 C42 2.880 . S
Pr40 O60 2.562 . S
Pr40 O61 2.490 . S
Pr40 O62 2.695 . S
Pr40 O63 2.512 . S
Pr40 O65 2.437 . S
Pr40 O68 2.436 . S
Pr40 O70 2.438 . S
Pr41 C51 2.880 . S
Pr41 O62 2.436 . S
Pr41 O64 2.438 . S
Pr41 O66 2.562 . S
Pr41 O67 2.490 . S
Pr41 O68 2.695 . S
Pr41 O69 2.512 . S
Pr41 O71 2.437 . S
C42 Pr40 2.880 . S
C42 C43 1.491 . S
C42 O60 1.254 . S
C42 O61 1.225 . S
C43 C42 1.491 . S
C43 C44 1.392 . S
C43 C48 1.356 . S
C44 C43 1.392 . S
C44 C45 1.368 1_655 S
C44 H72 0.929 . S
C45 C44 1.368 1_455 S
C45 C46 1.386 . S
C45 H73 0.929 . S
C46 C45 1.386 . S
C46 C47 1.373 . S
C47 C46 1.373 . S
C47 C48 1.409 1_455 S
C47 H74 0.931 . S
C48 C43 1.356 . S
C48 C47 1.409 1_655 S
C48 H75 0.930 . S
C49 O62 1.270 . S
C49 O63 1.248 . S
C50 O64 1.267 . S
C50 O65 1.278 . S
C51 Pr41 2.880 . S
C51 C52 1.491 . S
C51 O66 1.254 . S
C51 O67 1.225 . S
C52 C51 1.491 . S
C52 C53 1.392 . S
C52 C57 1.356 . S
C53 C52 1.392 . S
C53 C54 1.368 . S
C53 H76 0.929 . S
C54 C53 1.368 . S
C54 C55 1.386 . S
C54 H77 0.929 . S
C55 C54 1.386 . S
C55 C56 1.373 . S
C56 C55 1.373 . S
C56 C57 1.409 . S
C56 H78 0.931 . S
C57 C52 1.356 . S
C57 C56 1.409 . S
C57 H79 0.930 . S
C58 O68 1.270 . S
C58 O69 1.248 . S
C59 O70 1.267 . S
C59 O71 1.278 . S
O60 Pr40 2.562 . S
O60 C42 1.254 . S
O61 Pr40 2.490 . S
O61 C42 1.225 . S
O62 Pr40 2.695 . S
O62 Pr41 2.436 . S
O62 C49 1.270 . S
O63 Pr40 2.512 . S
O63 C49 1.248 . S
O64 Pr41 2.438 . S
O64 C50 1.267 . S
O65 Pr40 2.437 . S
O65 C50 1.278 . S
O66 Pr41 2.562 . S
O66 C51 1.254 . S
O67 Pr41 2.490 . S
O67 C51 1.225 . S
O68 Pr40 2.436 . S
O68 Pr41 2.695 . S
O68 C58 1.270 . S
O69 Pr41 2.512 . S
O69 C58 1.248 . S
O70 Pr40 2.438 . S
O70 C59 1.267 . S
O71 Pr41 2.437 . S
O71 C59 1.278 . S
H72 C44 0.929 . S
H73 C45 0.929 . S
H74 C47 0.931 . S
H75 C48 0.930 . S
H76 C53 0.929 . S
H77 C54 0.929 . S
H78 C56 0.931 . S
H79 C57 0.930 . S
Pr80 C82 2.880 . S
Pr80 O100 2.562 . S
Pr80 O101 2.490 . S
Pr80 O102 2.695 . S
Pr80 O103 2.512 . S
Pr80 O105 2.437 . S
Pr80 O108 2.436 . S
Pr80 O110 2.438 . S
Pr81 C91 2.880 . S
Pr81 O102 2.436 . S
Pr81 O104 2.438 . S
Pr81 O106 2.562 . S
Pr81 O107 2.490 . S
Pr81 O108 2.695 . S
Pr81 O109 2.512 . S
Pr81 O111 2.437 . S
C82 Pr80 2.880 . S
C82 C83 1.491 . S
C82 O100 1.254 . S
C82 O101 1.225 . S
C83 C82 1.491 . S
C83 C84 1.392 . S
C83 C88 1.356 . S
C84 C83 1.392 . S
C84 C85 1.368 1_545 S
C84 H112 0.929 . S
C85 C84 1.368 1_565 S
C85 C86 1.386 . S
C85 H113 0.929 . S
C86 C85 1.386 . S
C86 C87 1.373 . S
C87 C86 1.373 . S
C87 C88 1.409 1_565 S
C87 H114 0.931 . S
C88 C83 1.356 . S
C88 C87 1.409 1_545 S
C88 H115 0.930 . S
C89 O102 1.270 . S
C89 O103 1.248 . S
C90 O104 1.267 . S
C90 O105 1.278 . S
C91 Pr81 2.880 . S
C91 C92 1.491 . S
C91 O106 1.254 . S
C91 O107 1.225 . S
C92 C91 1.491 . S
C92 C93 1.392 . S
C92 C97 1.356 . S
C93 C92 1.392 . S
C93 C94 1.368 . S
C93 H116 0.929 . S
C94 C93 1.368 . S
C94 C95 1.386 . S
C94 H117 0.929 . S
C95 C94 1.386 . S
C95 C96 1.373 . S
C96 C95 1.373 . S
C96 C97 1.409 . S
C96 H118 0.931 . S
C97 C92 1.356 . S
C97 C96 1.409 . S
C97 H119 0.930 . S
C98 O108 1.270 . S
C98 O109 1.248 . S
C99 O110 1.267 . S
C99 O111 1.278 . S
O100 Pr80 2.562 . S
O100 C82 1.254 . S
O101 Pr80 2.490 . S
O101 C82 1.225 . S
O102 Pr80 2.695 . S
O102 Pr81 2.436 . S
O102 C89 1.270 . S
O103 Pr80 2.512 . S
O103 C89 1.248 . S
O104 Pr81 2.438 . S
O104 C90 1.267 . S
O105 Pr80 2.437 . S
O105 C90 1.278 . S
O106 Pr81 2.562 . S
O106 C91 1.254 . S
O107 Pr81 2.490 . S
O107 C91 1.225 . S
O108 Pr80 2.436 . S
O108 Pr81 2.695 . S
O108 C98 1.270 . S
O109 Pr81 2.512 . S
O109 C98 1.248 . S
O110 Pr80 2.438 . S
O110 C99 1.267 . S
O111 Pr81 2.437 . S
O111 C99 1.278 . S
H112 C84 0.929 . S
H113 C85 0.929 . S
H114 C87 0.931 . S
H115 C88 0.930 . S
H116 C93 0.929 . S
H117 C94 0.929 . S
H118 C96 0.931 . S
H119 C97 0.930 . S
Pr120 C122 2.880 . S
Pr120 O140 2.562 . S
Pr120 O141 2.490 . S
Pr120 O142 2.695 . S
Pr120 O143 2.512 . S
Pr120 O145 2.437 . S
Pr120 O148 2.436 . S
Pr120 O150 2.438 . S
Pr121 C131 2.880 . S
Pr121 O142 2.436 . S
Pr121 O144 2.438 . S
Pr121 O146 2.562 . S
Pr121 O147 2.490 . S
Pr121 O148 2.695 . S
Pr121 O149 2.512 . S
Pr121 O151 2.437 . S
C122 Pr120 2.880 . S
C122 C123 1.491 . S
C122 O140 1.254 . S
C122 O141 1.225 . S
C123 C122 1.491 . S
C123 C124 1.392 . S
C123 C128 1.356 . S
C124 C123 1.392 . S
C124 C125 1.368 . S
C124 H152 0.929 . S
C125 C124 1.368 . S
C125 C126 1.386 . S
C125 H153 0.929 . S
C126 C125 1.386 . S
C126 C127 1.373 . S
C127 C126 1.373 . S
C127 C128 1.409 . S
C127 H154 0.931 . S
C128 C123 1.356 . S
C128 C127 1.409 . S
C128 H155 0.930 . S
C129 O142 1.270 . S
C129 O143 1.248 . S
C130 O144 1.267 . S
C130 O145 1.278 . S
C131 Pr121 2.880 . S
C131 C132 1.491 . S
C131 O146 1.254 . S
C131 O147 1.225 . S
C132 C131 1.491 . S
C132 C133 1.392 . S
C132 C137 1.356 . S
C133 C132 1.392 . S
C133 C134 1.368 . S
C133 H156 0.929 . S
C134 C133 1.368 . S
C134 C135 1.386 . S
C134 H157 0.929 . S
C135 C134 1.386 . S
C135 C136 1.373 . S
C136 C135 1.373 . S
C136 C137 1.409 . S
C136 H158 0.931 . S
C137 C132 1.356 . S
C137 C136 1.409 . S
C137 H159 0.930 . S
C138 O148 1.270 . S
C138 O149 1.248 . S
C139 O150 1.267 . S
C139 O151 1.278 . S
O140 Pr120 2.562 . S
O140 C122 1.254 . S
O141 Pr120 2.490 . S
O141 C122 1.225 . S
O142 Pr120 2.695 . S
O142 Pr121 2.436 . S
O142 C129 1.270 . S
O143 Pr120 2.512 . S
O143 C129 1.248 . S
O144 Pr121 2.438 . S
O144 C130 1.267 . S
O145 Pr120 2.437 . S
O145 C130 1.278 . S
O146 Pr121 2.562 . S
O146 C131 1.254 . S
O147 Pr121 2.490 . S
O147 C131 1.225 . S
O148 Pr120 2.436 . S
O148 Pr121 2.695 . S
O148 C138 1.270 . S
O149 Pr121 2.512 . S
O149 C138 1.248 . S
O150 Pr120 2.438 . S
O150 C139 1.267 . S
O151 Pr121 2.437 . S
O151 C139 1.278 . S
H152 C124 0.929 . S
H153 C125 0.929 . S
H154 C127 0.931 . S
H155 C128 0.930 . S
H156 C133 0.929 . S
H157 C134 0.929 . S
H158 C136 0.931 . S
H159 C137 0.930 . S
Pr160 C162 2.880 . S
Pr160 O180 2.562 . S
Pr160 O181 2.490 . S
Pr160 O182 2.695 . S
Pr160 O183 2.512 . S
Pr160 O185 2.437 . S
Pr160 O188 2.436 . S
Pr160 O190 2.438 . S
Pr161 C171 2.880 . S
Pr161 O182 2.436 . S
Pr161 O184 2.438 . S
Pr161 O186 2.562 . S
Pr161 O187 2.490 . S
Pr161 O188 2.695 . S
Pr161 O189 2.512 . S
Pr161 O191 2.437 . S
C162 Pr160 2.880 . S
C162 C163 1.491 . S
C162 O180 1.254 . S
C162 O181 1.225 . S
C163 C162 1.491 . S
C163 C164 1.392 . S
C163 C168 1.356 . S
C164 C163 1.392 . S
C164 C165 1.368 . S
C164 H192 0.929 . S
C165 C164 1.368 . S
C165 C166 1.386 . S
C165 H193 0.929 . S
C166 C165 1.386 . S
C166 C167 1.373 . S
C167 C166 1.373 . S
C167 C168 1.409 . S
C167 H194 0.931 . S
C168 C163 1.356 . S
C168 C167 1.409 . S
C168 H195 0.930 . S
C169 O182 1.270 . S
C169 O183 1.248 . S
C170 O184 1.267 . S
C170 O185 1.278 . S
C171 Pr161 2.880 . S
C171 C172 1.491 . S
C171 O186 1.254 . S
C171 O187 1.225 . S
C172 C171 1.491 . S
C172 C173 1.392 . S
C172 C177 1.356 . S
C173 C172 1.392 . S
C173 C174 1.368 1_455 S
C173 H196 0.929 . S
C174 C173 1.368 1_655 S
C174 C175 1.386 . S
C174 H197 0.929 . S
C175 C174 1.386 . S
C175 C176 1.373 . S
C176 C175 1.373 . S
C176 C177 1.409 1_655 S
C176 H198 0.931 . S
C177 C172 1.356 . S
C177 C176 1.409 1_455 S
C177 H199 0.930 . S
C178 O188 1.270 . S
C178 O189 1.248 . S
C179 O190 1.267 . S
C179 O191 1.278 . S
O180 Pr160 2.562 . S
O180 C162 1.254 . S
O181 Pr160 2.490 . S
O181 C162 1.225 . S
O182 Pr160 2.695 . S
O182 Pr161 2.436 . S
O182 C169 1.270 . S
O183 Pr160 2.512 . S
O183 C169 1.248 . S
O184 Pr161 2.438 . S
O184 C170 1.267 . S
O185 Pr160 2.437 . S
O185 C170 1.278 . S
O186 Pr161 2.562 . S
O186 C171 1.254 . S
O187 Pr161 2.490 . S
O187 C171 1.225 . S
O188 Pr160 2.436 . S
O188 Pr161 2.695 . S
O188 C178 1.270 . S
O189 Pr161 2.512 . S
O189 C178 1.248 . S
O190 Pr160 2.438 . S
O190 C179 1.267 . S
O191 Pr161 2.437 . S
O191 C179 1.278 . S
H192 C164 0.929 . S
H193 C165 0.929 . S
H194 C167 0.931 . S
H195 C168 0.930 . S
H196 C173 0.929 . S
H197 C174 0.929 . S
H198 C176 0.931 . S
H199 C177 0.930 . S
Pr200 C202 2.880 . S
Pr200 O220 2.562 . S
Pr200 O221 2.490 . S
Pr200 O222 2.695 . S
Pr200 O223 2.512 . S
Pr200 O225 2.437 . S
Pr200 O228 2.436 . S
Pr200 O230 2.438 . S
Pr201 C211 2.880 . S
Pr201 O222 2.436 . S
Pr201 O224 2.438 . S
Pr201 O226 2.562 . S
Pr201 O227 2.490 . S
Pr201 O228 2.695 . S
Pr201 O229 2.512 . S
Pr201 O231 2.437 . S
C202 Pr200 2.880 . S
C202 C203 1.491 . S
C202 O220 1.254 . S
C202 O221 1.225 . S
C203 C202 1.491 . S
C203 C204 1.392 . S
C203 C208 1.356 . S
C204 C203 1.392 . S
C204 C205 1.368 . S
C204 H232 0.929 . S
C205 C204 1.368 . S
C205 C206 1.386 . S
C205 H233 0.929 . S
C206 C205 1.386 . S
C206 C207 1.373 . S
C207 C206 1.373 . S
C207 C208 1.409 . S
C207 H234 0.931 . S
C208 C203 1.356 . S
C208 C207 1.409 . S
C208 H235 0.930 . S
C209 O222 1.270 . S
C209 O223 1.248 . S
C210 O224 1.267 . S
C210 O225 1.278 . S
C211 Pr201 2.880 . S
C211 C212 1.491 . S
C211 O226 1.254 . S
C211 O227 1.225 . S
C212 C211 1.491 . S
C212 C213 1.392 . S
C212 C217 1.356 . S
C213 C212 1.392 . S
C213 C214 1.368 1_565 S
C213 H236 0.929 . S
C214 C213 1.368 1_545 S
C214 C215 1.386 . S
C214 H237 0.929 . S
C215 C214 1.386 . S
C215 C216 1.373 . S
C216 C215 1.373 . S
C216 C217 1.409 1_545 S
C216 H238 0.931 . S
C217 C212 1.356 . S
C217 C216 1.409 1_565 S
C217 H239 0.930 . S
C218 O228 1.270 . S
C218 O229 1.248 . S
C219 O230 1.267 . S
C219 O231 1.278 . S
O220 Pr200 2.562 . S
O220 C202 1.254 . S
O221 Pr200 2.490 . S
O221 C202 1.225 . S
O222 Pr200 2.695 . S
O222 Pr201 2.436 . S
O222 C209 1.270 . S
O223 Pr200 2.512 . S
O223 C209 1.248 . S
O224 Pr201 2.438 . S
O224 C210 1.267 . S
O225 Pr200 2.437 . S
O225 C210 1.278 . S
O226 Pr201 2.562 . S
O226 C211 1.254 . S
O227 Pr201 2.490 . S
O227 C211 1.225 . S
O228 Pr200 2.436 . S
O228 Pr201 2.695 . S
O228 C218 1.270 . S
O229 Pr201 2.512 . S
O229 C218 1.248 . S
O230 Pr200 2.438 . S
O230 C219 1.267 . S
O231 Pr201 2.437 . S
O231 C219 1.278 . S
H232 C204 0.929 . S
H233 C205 0.929 . S
H234 C207 0.931 . S
H235 C208 0.930 . S
H236 C213 0.929 . S
H237 C214 0.929 . S
H238 C216 0.931 . S
H239 C217 0.930 . S
C240 C241 1.388 . S
C240 C242 1.399 1_565 S
C240 H244 0.931 1_565 S
C241 C240 1.388 . S
C241 C250 1.429 1_556 S
C242 C240 1.399 1_545 S
C242 C243 1.363 1_556 S
C242 H245 0.929 . S
C243 C242 1.363 1_554 S
C243 C249 1.428 1_545 S
H244 C240 0.931 1_545 S
H245 C242 0.929 . S
S246 N247 1.613 . S
S246 N248 1.610 . S
N247 S246 1.613 . S
N247 C250 1.350 . S
N248 S246 1.610 . S
N248 C249 1.351 . S
C249 C243 1.428 1_565 S
C249 N248 1.351 . S
C249 C250 1.434 . S
C250 C241 1.429 1_554 S
C250 N247 1.350 . S
C250 C249 1.434 . S
C251 C252 1.369 . S
C251 C253 1.419 . S
C251 H255 0.930 . S
C252 C251 1.369 . S
C252 C261 1.429 . S
C253 C251 1.419 . S
C253 C254 1.363 . S
C253 H256 0.929 . S
C254 C253 1.363 . S
C254 C260 1.428 . S
H255 C251 0.930 . S
H256 C253 0.929 . S
S257 N258 1.613 . S
S257 N259 1.610 . S
N258 S257 1.613 . S
N258 C261 1.350 . S
N259 S257 1.610 . S
N259 C260 1.351 . S
C260 C254 1.428 . S
C260 N259 1.351 . S
C260 C261 1.434 . S
C261 C252 1.429 . S
C261 N258 1.350 . S
C261 C260 1.434 . S
C262 C263 1.369 . S
C262 C264 1.419 1_655 S
C262 H266 0.930 . S
C263 C262 1.369 . S
C263 C272 1.429 1_554 S
C264 C262 1.419 1_455 S
C264 C265 1.363 1_554 S
C264 H267 0.929 . S
C265 C264 1.363 1_556 S
C265 C271 1.428 . S
H266 C262 0.930 . S
H267 C264 0.929 . S
S268 N269 1.613 . S
S268 N270 1.610 1_655 S
N269 S268 1.613 . S
N269 C272 1.350 . S
N270 S268 1.610 1_455 S
N270 C271 1.351 . S
C271 C265 1.428 . S
C271 N270 1.351 . S
C271 C272 1.434 1_455 S
C272 C263 1.429 1_556 S
C272 N269 1.350 . S
C272 C271 1.434 1_655 S
C273 C274 1.369 . S
C273 C275 1.419 1_545 S
C273 H277 0.930 . S
C274 C273 1.369 . S
C274 C283 1.429 . S
C275 C273 1.419 1_565 S
C275 C276 1.363 . S
C275 H278 0.929 . S
C276 C275 1.363 . S
C276 C282 1.428 . S
H277 C273 0.930 . S
H278 C275 0.929 . S
S279 N280 1.613 1_565 S
S279 N281 1.610 . S
N280 S279 1.613 1_545 S
N280 C283 1.350 . S
N281 S279 1.610 . S
N281 C282 1.351 . S
C282 C276 1.428 . S
C282 N281 1.351 . S
C282 C283 1.434 1_565 S
C283 C274 1.429 . S
C283 N280 1.350 . S
C283 C282 1.434 1_545 S
C284 C285 1.369 . S
C284 C286 1.419 1_556 S
C284 H288 0.930 . S
C285 C284 1.369 . S
C285 C294 1.429 . S
C286 C284 1.419 1_554 S
C286 C287 1.363 . S
C286 H289 0.929 . S
C287 C286 1.363 . S
C287 C293 1.428 . S
H288 C284 0.930 . S
H289 C286 0.929 . S
S290 N291 1.613 . S
S290 N292 1.610 1_556 S
N291 S290 1.613 . S
N291 C294 1.350 . S
N292 S290 1.610 1_554 S
N292 C293 1.351 . S
C293 C287 1.428 . S
C293 N292 1.351 . S
C293 C294 1.434 1_554 S
C294 C285 1.429 . S
C294 N291 1.350 . S
C294 C293 1.434 1_556 S
C295 C296 1.369 . S
C295 C297 1.419 1_655 S
C295 H299 0.930 . S
C296 C295 1.369 . S
C296 C305 1.429 . S
C297 C295 1.419 1_455 S
C297 C298 1.363 . S
C297 H300 0.929 . S
C298 C297 1.363 . S
C298 C304 1.428 . S
H299 C295 0.930 . S
H300 C297 0.929 . S
S301 N302 1.613 . S
S301 N303 1.610 1_655 S
N302 S301 1.613 . S
N302 C305 1.350 . S
N303 S301 1.610 1_455 S
N303 C304 1.351 . S
C304 C298 1.428 . S
C304 N303 1.351 . S
C304 C305 1.434 1_455 S
C305 C296 1.429 . S
C305 N302 1.350 . S
C305 C304 1.434 1_655 S
C306 C307 1.369 . S
C306 C308 1.419 . S
C306 H310 0.930 . S
C307 C306 1.369 . S
C307 C316 1.429 . S
C308 C306 1.419 . S
C308 C309 1.363 . S
C308 H311 0.929 . S
C309 C308 1.363 . S
C309 C315 1.428 . S
H310 C306 0.930 . S
H311 C308 0.929 . S
S312 N313 1.613 . S
S312 N314 1.610 . S
N313 S312 1.613 . S
N313 C316 1.350 . S
N314 S312 1.610 . S
N314 C315 1.351 . S
C315 C309 1.428 . S
C315 N314 1.351 . S
C315 C316 1.434 . S
C316 C307 1.429 . S
C316 N313 1.350 . S
C316 C315 1.434 . S
C317 C318 1.369 . S
C317 C319 1.419 . S
C317 H321 0.930 . S
C318 C317 1.369 . S
C318 C327 1.429 . S
C319 C317 1.419 . S
C319 C320 1.363 . S
C319 H322 0.929 . S
C320 C319 1.363 . S
C320 C326 1.428 . S
H321 C317 0.930 . S
H322 C319 0.929 . S
S323 N324 1.613 . S
S323 N325 1.610 . S
N324 S323 1.613 . S
N324 C327 1.350 . S
N325 S323 1.610 . S
N325 C326 1.351 . S
C326 C320 1.428 . S
C326 N325 1.351 . S
C326 C327 1.434 . S
C327 C318 1.429 . S
C327 N324 1.350 . S
C327 C326 1.434 . S
C328 C329 1.369 . S
C328 C330 1.419 . S
C328 H332 0.930 . S
C329 C328 1.369 . S
C329 C338 1.429 . S
C330 C328 1.419 . S
C330 C331 1.363 . S
C330 H333 0.929 . S
C331 C330 1.363 . S
C331 C337 1.428 . S
H332 C328 0.930 . S
H333 C330 0.929 . S
S334 N335 1.613 . S
S334 N336 1.610 . S
N335 S334 1.613 . S
N335 C338 1.350 . S
N336 S334 1.610 . S
N336 C337 1.351 . S
C337 C331 1.428 . S
C337 N336 1.351 . S
C337 C338 1.434 . S
C338 C329 1.429 . S
C338 N335 1.350 . S
C338 C337 1.434 . S
C339 C340 1.369 . S
C339 C341 1.419 . S
C339 H343 0.930 . S
C340 C339 1.369 . S
C340 C349 1.429 . S
C341 C339 1.419 . S
C341 C342 1.363 . S
C341 H344 0.929 . S
C342 C341 1.363 . S
C342 C348 1.428 . S
H343 C339 0.930 . S
H344 C341 0.929 . S
S345 N346 1.613 . S
S345 N347 1.610 . S
N346 S345 1.613 . S
N346 C349 1.350 . S
N347 S345 1.610 . S
N347 C348 1.351 . S
C348 C342 1.428 . S
C348 N347 1.351 . S
C348 C349 1.434 . S
C349 C340 1.429 . S
C349 N346 1.350 . S
C349 C348 1.434 . S
C350 C351 1.369 . S
C350 C352 1.419 . S
C350 H354 0.930 . S
C351 C350 1.369 . S
C351 C360 1.429 . S
C352 C350 1.419 . S
C352 C353 1.363 . S
C352 H355 0.929 . S
C353 C352 1.363 . S
C353 C359 1.428 . S
H354 C350 0.930 . S
H355 C352 0.929 . S
S356 N357 1.613 . S
S356 N358 1.610 . S
N357 S356 1.613 . S
N357 C360 1.350 . S
N358 S356 1.610 . S
N358 C359 1.351 . S
C359 C353 1.428 . S
C359 N358 1.351 . S
C359 C360 1.434 . S
C360 C351 1.429 . S
C360 N357 1.350 . S
C360 C359 1.434 . S
C361 C362 1.369 . S
C361 C363 1.419 . S
C361 H365 0.930 . S
C362 C361 1.369 . S
C362 C371 1.429 . S
C363 C361 1.419 . S
C363 C364 1.363 . S
C363 H366 0.929 . S
C364 C363 1.363 . S
C364 C370 1.428 . S
H365 C361 0.930 . S
H366 C363 0.929 . S
S367 N368 1.613 . S
S367 N369 1.610 . S
N368 S367 1.613 . S
N368 C371 1.350 . S
N369 S367 1.610 . S
N369 C370 1.351 . S
C370 C364 1.428 . S
C370 N369 1.351 . S
C370 C371 1.434 . S
C371 C362 1.429 . S
C371 N368 1.350 . S
C371 C370 1.434 . S
C372 C373 1.369 . S
C372 C374 1.419 . S
C372 H376 0.930 . S
C373 C372 1.369 . S
C373 C382 1.429 1_455 S
C374 C372 1.419 . S
C374 C375 1.363 . S
C374 H377 0.929 . S
C375 C374 1.363 . S
C375 C381 1.428 1_455 S
H376 C372 0.930 . S
H377 C374 0.929 . S
S378 N379 1.613 . S
S378 N380 1.610 . S
N379 S378 1.613 . S
N379 C382 1.350 . S
N380 S378 1.610 . S
N380 C381 1.351 . S
C381 C375 1.428 1_655 S
C381 N380 1.351 . S
C381 C382 1.434 . S
C382 C373 1.429 1_655 S
C382 N379 1.350 . S
C382 C381 1.434 . S
C383 C384 1.369 1_545 S
C383 C385 1.419 . S
C383 H387 0.930 . S
C384 C383 1.369 1_565 S
C384 C393 1.429 . S
C385 C383 1.419 . S
C385 C386 1.363 1_545 S
C385 H388 0.929 . S
C386 C385 1.363 1_565 S
C386 C392 1.428 . S
H387 C383 0.930 . S
H388 C385 0.929 . S
S389 N390 1.613 . S
S389 N391 1.610 . S
N390 S389 1.613 . S
N390 C393 1.350 . S
N391 S389 1.610 . S
N391 C392 1.351 . S
C392 C386 1.428 . S
C392 N391 1.351 . S
C392 C393 1.434 . S
C393 C384 1.429 . S
C393 N390 1.350 . S
C393 C392 1.434 . S
C394 C395 1.369 . S
C394 C396 1.419 . S
C394 H398 0.930 . S
C395 C394 1.369 . S
C395 C404 1.429 . S
C396 C394 1.419 . S
C396 C397 1.363 . S
C396 H399 0.929 . S
C397 C396 1.363 . S
C397 C403 1.428 . S
H398 C394 0.930 . S
H399 C396 0.929 . S
S400 N401 1.613 . S
S400 N402 1.610 . S
N401 S400 1.613 . S
N401 C404 1.350 . S
N402 S400 1.610 . S
N402 C403 1.351 . S
C403 C397 1.428 . S
C403 N402 1.351 . S
C403 C404 1.434 . S
C404 C395 1.429 . S
C404 N401 1.350 . S
C404 C403 1.434 . S
C405 C406 1.369 . S
C405 C407 1.419 . S
C405 H409 0.930 . S
C406 C405 1.369 . S
C406 C415 1.429 1_545 S
C407 C405 1.419 . S
C407 C408 1.363 . S
C407 H410 0.929 . S
C408 C407 1.363 . S
C408 C414 1.428 1_545 S
H409 C405 0.930 . S
H410 C407 0.929 . S
S411 N412 1.613 . S
S411 N413 1.610 . S
N412 S411 1.613 . S
N412 C415 1.350 . S
N413 S411 1.610 . S
N413 C414 1.351 . S
C414 C408 1.428 1_565 S
C414 N413 1.351 . S
C414 C415 1.434 . S
C415 C406 1.429 1_565 S
C415 N412 1.350 . S
C415 C414 1.434 . S
C416 C417 1.369 . S
C416 C418 1.419 . S
C416 H420 0.930 . S
C417 C416 1.369 . S
C417 C426 1.429 . S
C418 C416 1.419 . S
C418 C419 1.363 . S
C418 H421 0.929 . S
C419 C418 1.363 . S
C419 C425 1.428 . S
H420 C416 0.930 . S
H421 C418 0.929 . S
S422 N423 1.613 . S
S422 N424 1.610 . S
N423 S422 1.613 . S
N423 C426 1.350 . S
N424 S422 1.610 . S
N424 C425 1.351 . S
C425 C419 1.428 . S
C425 N424 1.351 . S
C425 C426 1.434 . S
C426 C417 1.429 . S
C426 N423 1.350 . S
C426 C425 1.434 . S
C427 C428 1.369 . S
C427 C429 1.419 . S
C427 H431 0.930 . S
C428 C427 1.369 . S
C428 C437 1.429 1_655 S
C429 C427 1.419 . S
C429 C430 1.363 . S
C429 H432 0.929 . S
C430 C429 1.363 . S
C430 C436 1.428 1_655 S
H431 C427 0.930 . S
H432 C429 0.929 . S
S433 N434 1.613 . S
S433 N435 1.610 . S
N434 S433 1.613 . S
N434 C437 1.350 . S
N435 S433 1.610 . S
N435 C436 1.351 . S
C436 C430 1.428 1_455 S
C436 N435 1.351 . S
C436 C437 1.434 . S
C437 C428 1.429 1_455 S
C437 N434 1.350 . S
C437 C436 1.434 . S
C241 C178 2.634 . S
C243 C18 2.367 . S
C252 C209 2.364 . S
C254 C49 2.636 . S
C263 C98 2.373 . S
C265 C138 2.631 . S
C274 C9 2.631 . S
C276 C169 2.371 . S
C285 C218 2.630 . S
C287 C58 2.372 . S
C296 C89 2.635 . S
C298 C129 2.367 . S
C307 C15 1.943 . S
C309 C99 1.865 . S
C318 C55 1.947 . S
C320 C19 1.859 . S
C329 C95 1.946 . S
C331 C59 1.859 . S
C340 C126 1.947 . S
C342 C170 1.861 . S
C351 C166 1.942 . S
C353 C210 1.866 . S
C362 C130 1.858 . S
C364 C206 1.947 . S
C373 C6 1.433 . S
C375 C90 1.507 1_455 S
C384 C46 1.419 . S
C386 C10 1.513 1_565 S
C395 C86 1.421 . S
C397 C50 1.512 . S
C406 C135 1.428 . S
C408 C179 1.507 1_545 S
C417 C175 1.433 . S
C419 C219 1.506 . S
C428 C139 1.507 1_655 S
C430 C215 1.430 . S
