# Generated by pormake.
# Topology snk, (6)-cn, num edge types: 1
# Building blocks:
#     Node 0, Type 0, BuildingBlock: CIFDUS_clean_sbu_1, # of connection points: 6
#     Node 1, Type 0, BuildingBlock: CIFDUS_clean_sbu_1, # of connection points: 6
#     Node 2, Type 0, BuildingBlock: CIFDUS_clean_sbu_1, # of connection points: 6
#     Node 3, Type 0, BuildingBlock: CIFDUS_clean_sbu_1, # of connection points: 6
#     Node 4, Type 0, BuildingBlock: CIFDUS_clean_sbu_1, # of connection points: 6
#     Node 5, Type 0, BuildingBlock: CIFDUS_clean_sbu_1, # of connection points: 6
#     Node 6, Type 0, BuildingBlock: CIFDUS_clean_sbu_1, # of connection points: 6
#     Node 7, Type 0, BuildingBlock: CIFDUS_clean_sbu_1, # of connection points: 6
#     Edge 8, Type (0, 0), BuildingBlock: MIFKUJ_clean_linker_0, # of connection points: 2
#     Edge 9, Type (0, 0), BuildingBlock: MIFKUJ_clean_linker_0, # of connection points: 2
#     Edge 10, Type (0, 0), BuildingBlock: MIFKUJ_clean_linker_0, # of connection points: 2
#     Edge 11, Type (0, 0), BuildingBlock: MIFKUJ_clean_linker_0, # of connection points: 2
#     Edge 12, Type (0, 0), BuildingBlock: MIFKUJ_clean_linker_0, # of connection points: 2
#     Edge 13, Type (0, 0), BuildingBlock: MIFKUJ_clean_linker_0, # of connection points: 2
#     Edge 14, Type (0, 0), BuildingBlock: MIFKUJ_clean_linker_0, # of connection points: 2
#     Edge 15, Type (0, 0), BuildingBlock: MIFKUJ_clean_linker_0, # of connection points: 2
#     Edge 16, Type (0, 0), BuildingBlock: MIFKUJ_clean_linker_0, # of connection points: 2
#     Edge 17, Type (0, 0), BuildingBlock: MIFKUJ_clean_linker_0, # of connection points: 2
#     Edge 18, Type (0, 0), BuildingBlock: MIFKUJ_clean_linker_0, # of connection points: 2
#     Edge 19, Type (0, 0), BuildingBlock: MIFKUJ_clean_linker_0, # of connection points: 2
#     Edge 20, Type (0, 0), BuildingBlock: MIFKUJ_clean_linker_0, # of connection points: 2
#     Edge 21, Type (0, 0), BuildingBlock: MIFKUJ_clean_linker_0, # of connection points: 2
#     Edge 22, Type (0, 0), BuildingBlock: MIFKUJ_clean_linker_0, # of connection points: 2
#     Edge 23, Type (0, 0), BuildingBlock: MIFKUJ_clean_linker_0, # of connection points: 2
#     Edge 24, Type (0, 0), BuildingBlock: MIFKUJ_clean_linker_0, # of connection points: 2
#     Edge 25, Type (0, 0), BuildingBlock: MIFKUJ_clean_linker_0, # of connection points: 2
#     Edge 26, Type (0, 0), BuildingBlock: MIFKUJ_clean_linker_0, # of connection points: 2
#     Edge 27, Type (0, 0), BuildingBlock: MIFKUJ_clean_linker_0, # of connection points: 2
#     Edge 28, Type (0, 0), BuildingBlock: MIFKUJ_clean_linker_0, # of connection points: 2
#     Edge 29, Type (0, 0), BuildingBlock: MIFKUJ_clean_linker_0, # of connection points: 2
#     Edge 30, Type (0, 0), BuildingBlock: MIFKUJ_clean_linker_0, # of connection points: 2
#     Edge 31, Type (0, 0), BuildingBlock: MIFKUJ_clean_linker_0, # of connection points: 2
# Relax obj value: 0.031
# Max RMSD: 0.087
# Mean RMSD: 0.083
data_MOF--net-snk--node1-CIFDUS_clean_sbu_1--edge1-MIFKUJ_clean_linker_0
_symmetry_space_group_name_H-M    P1
_symmetry_Int_Tables_number       1
_symmetry_cell_setting            triclinic
loop_
_symmetry_equiv_pos_as_xyz
'x, y, z'
_cell_length_a     55.134689
_cell_length_b     55.185868
_cell_length_c     20.246507
_cell_angle_alpha  90.380191
_cell_angle_beta   90.149366
_cell_angle_gamma 89.923544
loop_
_atom_site_label
_atom_site_type_symbol
_atom_site_fract_x
_atom_site_fract_y
_atom_site_fract_z
_atom_type_partial_charge
O0 O 0.98285 0.97588 0.52691 0.0
Mn1 Mn 0.00481 0.00645 0.51337 0.0
O2 O 0.95051 0.98939 0.58404 0.0
Mn3 Mn 0.96033 0.02129 0.58933 0.0
O4 O 0.02511 0.03894 0.49988 0.0
O5 O 0.03396 0.98125 0.51157 0.0
Mn6 Mn 0.05045 1.00239 0.46257 0.0
O7 O 0.99947 0.00379 0.41123 0.0
O8 O 0.0624 0.02715 0.51234 0.0
O9 O 0.01054 0.0083 0.61698 0.0
O10 O 0.97955 0.029 0.65983 0.0
O11 O 0.07024 0.97784 0.45831 0.0
O12 O 0.03752 0.01023 0.38113 0.0
C13 C 0.95689 0.04431 0.50948 0.0
C14 C 0.96246 0.97251 0.55607 0.0
C15 C 0.04743 0.04412 0.51033 0.0
C16 C 0.05416 0.96901 0.4982 0.0
C17 C 0.01526 0.00811 0.36665 0.0
C18 C 0.9999 0.01871 0.66602 0.0
O19 O 0.97506 0.02911 0.51497 0.0
O20 O 0.94101 0.04453 0.55661 0.0
O21 O 0.28751 0.73557 0.78452 0.0
Mn22 Mn 0.25477 0.75534 0.76511 0.0
O23 O 0.27643 0.69869 0.76276 0.0
Mn24 Mn 0.2501 0.7084 0.80977 0.0
O25 O 0.22319 0.77703 0.74717 0.0
O26 O 0.27631 0.78595 0.77097 0.0
Mn27 Mn 0.26327 0.80345 0.70575 0.0
O28 O 0.25998 0.75028 0.66339 0.0
O29 O 0.23574 0.81552 0.74296 0.0
O30 O 0.24934 0.7591 0.86717 0.0
O31 O 0.2553 0.72053 0.89411 0.0
O32 O 0.29436 0.81315 0.70949 0.0
O33 O 0.25676 0.78797 0.62662 0.0
C34 C 0.21791 0.70529 0.76598 0.0
C35 C 0.29323 0.71343 0.77296 0.0
C36 C 0.21876 0.80008 0.74676 0.0
C37 C 0.29667 0.79608 0.75266 0.0
C38 C 0.25749 0.76539 0.61625 0.0
C39 C 0.25255 0.74258 0.91062 0.0
O40 O 0.23028 0.72576 0.7593 0.0
O41 O 0.2258 0.68818 0.80414 0.0
O42 O 0.53006 0.97638 0.97487 0.0
Mn43 Mn 0.50701 0.00601 0.99683 0.0
O44 O 0.56435 0.99233 0.93572 0.0
Mn45 Mn 0.55138 0.02275 0.93017 0.0
O46 O 0.48436 0.03762 0.01776 0.0
O47 O 0.47872 0.97881 0.99094 0.0
Mn48 Mn 0.46596 0.99817 0.05395 0.0
O49 O 0.51517 0.99989 0.09684 0.0
O50 O 0.44829 0.02182 0.01739 0.0
O51 O 0.50049 0.01117 0.89385 0.0
O52 O 0.53388 0.02906 0.8563 0.0
O53 O 0.44878 0.97259 0.06657 0.0
O54 O 0.47872 0.00537 0.13533 0.0
C55 C 0.55384 0.04636 0.00749 0.0
C56 C 0.5519 0.97429 0.95348 0.0
C57 C 0.46112 0.0404 0.01601 0.0
C58 C 0.46017 0.96574 0.01395 0.0
C59 C 0.50091 1.00248 0.14557 0.0
C60 C 0.51276 0.02091 0.84686 0.0
O61 O 0.53571 0.03075 0.00341 0.0
O62 O 0.56961 0.04685 0.96009 0.0
O63 O 0.28155 0.27982 0.233 0.0
Mn64 Mn 0.25306 0.25515 0.24346 0.0
O65 O 0.26788 0.30566 0.15689 0.0
Mn66 Mn 0.23565 0.2964 0.15777 0.0
O67 O 0.22473 0.22984 0.25622 0.0
O68 O 0.2792 0.22867 0.25242 0.0
Mn69 Mn 0.27164 0.2135 0.32564 0.0
O70 O 0.25187 0.26262 0.34593 0.0
O71 O 0.24173 0.19944 0.31384 0.0
O72 O 0.25343 0.24813 0.14016 0.0
O73 O 0.22727 0.27431 0.09436 0.0
O74 O 0.29835 0.19763 0.29879 0.0
O75 O 0.27393 0.23406 0.39613 0.0
C76 C 0.21854 0.30261 0.24885 0.0
C77 C 0.28455 0.29786 0.19444 0.0
C78 C 0.22353 0.20929 0.28602 0.0
C79 C 0.29676 0.21266 0.25001 0.0
C80 C 0.26187 0.25354 0.39761 0.0
C81 C 0.24046 0.25547 0.09091 0.0
O82 O 0.22696 0.2814 0.23128 0.0
O83 O 0.21744 0.31838 0.20185 0.0
O84 O 0.78263 0.22971 0.28133 0.0
Mn85 Mn 0.75431 0.25425 0.26336 0.0
O86 O 0.76606 0.20244 0.35046 0.0
Mn87 Mn 0.73462 0.2145 0.35031 0.0
O88 O 0.72518 0.27851 0.24691 0.0
O89 O 0.7798 0.28129 0.25383 0.0
Mn90 Mn 0.77072 0.29669 0.18128 0.0
O91 O 0.75489 0.24547 0.16158 0.0
O92 O 0.74105 0.31101 0.19684 0.0
O93 O 0.75374 0.263 0.36594 0.0
O94 O 0.72715 0.23781 0.41147 0.0
O95 O 0.79761 0.31275 0.20651 0.0
O96 O 0.77237 0.27649 0.10925 0.0
C97 C 0.71364 0.20943 0.26507 0.0
C98 C 0.78397 0.21065 0.31764 0.0
C99 C 0.72329 0.30001 0.22289 0.0
C100 C 0.79703 0.29762 0.25517 0.0
C101 C 0.76317 0.25549 0.10911 0.0
C102 C 0.7404 0.25643 0.41481 0.0
O103 O 0.72979 0.22658 0.27108 0.0
O104 O 0.7105 0.19595 0.31646 0.0
O105 O 0.78298 0.77803 0.73183 0.0
Mn106 Mn 0.754 0.75401 0.7447 0.0
O107 O 0.76826 0.8035 0.65666 0.0
Mn108 Mn 0.73582 0.79629 0.66629 0.0
O109 O 0.72537 0.72894 0.76005 0.0
O110 O 0.77853 0.7256 0.74544 0.0
Mn111 Mn 0.77088 0.70848 0.81591 0.0
O112 O 0.75537 0.76065 0.84692 0.0
O113 O 0.74298 0.6935 0.78839 0.0
O114 O 0.75184 0.74851 0.64065 0.0
O115 O 0.72477 0.77534 0.60297 0.0
O116 O 0.8025 0.70173 0.80028 0.0
O117 O 0.76678 0.72566 0.89228 0.0
C118 C 0.72078 0.80223 0.76139 0.0
C119 C 0.7857 0.79534 0.69069 0.0
C120 C 0.72428 0.70614 0.77438 0.0
C121 C 0.80053 0.71712 0.75263 0.0
C122 C 0.75991 0.7474 0.89713 0.0
C123 C 0.73809 0.75681 0.59415 0.0
O124 O 0.72799 0.78096 0.74029 0.0
O125 O 0.72062 0.81883 0.71654 0.0
O126 O 0.4821 0.47555 0.02618 0.0
Mn127 Mn 0.50574 0.50458 0.01144 0.0
O128 O 0.45886 0.49124 0.10672 0.0
Mn129 Mn 0.46952 0.52297 0.09911 0.0
O130 O 0.5285 0.53481 -0.00186 0.0
O131 O 0.534 0.48022 0.00422 0.0
Mn132 Mn 0.55151 0.49118 0.93785 0.0
O133 O 0.49894 0.5038 0.90882 0.0
O134 O 0.56406 0.52098 0.9601 0.0
O135 O 0.514 0.50415 0.11377 0.0
O136 O 0.49307 0.53404 0.15528 0.0
O137 O 0.56778 0.46441 0.96227 0.0
O138 O 0.5334 0.4905 0.8619 0.0
C139 C 0.45777 0.54358 0.02265 0.0
C140 C 0.46495 0.47373 0.06884 0.0
C141 C 0.55067 0.53807 0.98094 0.0
C142 C 0.55081 0.46342 0.00636 0.0
C143 C 0.51161 0.4978 0.85798 0.0
C144 C 0.51001 0.51908 0.16106 0.0
O145 O 0.47643 0.52879 0.01505 0.0
O146 O 0.44709 0.54471 0.07961 0.0
O147 O 0.02872 0.47538 0.48583 0.0
Mn148 Mn 0.00524 0.50536 0.49442 0.0
O149 O 0.05554 0.48703 0.41121 0.0
Mn150 Mn 0.04899 0.51955 0.41943 0.0
O151 O 0.9806 0.53474 0.50652 0.0
O152 O 0.97696 0.48012 0.49417 0.0
Mn153 Mn 0.96418 0.48781 0.57186 0.0
O154 O 0.01161 0.50486 0.59811 0.0
O155 O 0.95189 0.51879 0.5711 0.0
O156 O 1.00039 0.50742 0.38934 0.0
O157 O 0.03038 0.53131 0.35276 0.0
O158 O 0.94444 0.4643 0.54531 0.0
O159 O 0.98432 0.47999 0.6399 0.0
C160 C 0.05418 0.53684 0.51259 0.0
C161 C 0.04662 0.47094 0.44757 0.0
C162 C 0.96065 0.53656 0.53955 0.0
C163 C 0.95898 0.46433 0.49507 0.0
C164 C 1.00347 0.49218 0.64616 0.0
C165 C 0.01025 0.52058 0.34374 0.0
O166 O 0.03279 0.53066 0.49007 0.0
O167 O 0.07173 0.53318 0.47145 0.0
H168 H 0.03778 0.06867 0.39756 0.0
H169 H 0.06403 0.09937 0.34726 0.0
H170 H 0.10841 0.10047 0.52305 0.0
H171 H 0.08248 0.06963 0.57275 0.0
H172 H 0.0979 0.14553 0.47896 0.0
H173 H 0.12685 0.0702 0.39202 0.0
H174 H 0.12675 0.03128 0.33158 0.0
H175 H 0.10848 0.06805 0.15199 0.0
H176 H 0.10808 0.10719 0.21156 0.0
H177 H 0.21034 0.19202 0.40283 0.0
H178 H 0.17532 0.16797 0.43039 0.0
H179 H 0.14763 0.17616 0.23215 0.0
H180 H 0.18407 0.20001 0.20298 0.0
H181 H 0.14467 0.12934 0.27441 0.0
H182 H 0.12013 0.20617 0.36894 0.0
H183 H 0.12495 0.24349 0.43546 0.0
H184 H 0.13966 0.20101 0.60796 0.0
H185 H 0.13513 0.16347 0.54243 0.0
C186 C 0.05254 0.07627 0.4264 0.0
C187 C 0.05765 0.06748 0.49001 0.0
C188 C 0.06785 0.09332 0.39701 0.0
C189 C 0.08831 0.10197 0.43113 0.0
C190 C 0.09272 0.09401 0.49582 0.0
C191 C 0.07769 0.07675 0.52469 0.0
C192 C 0.1049 0.11988 0.40095 0.0
C193 C 0.10811 0.14197 0.43417 0.0
C194 C 0.11792 0.11534 0.3418 0.0
C195 C 0.11691 0.09163 0.30666 0.0
C196 C 0.12234 0.06997 0.33994 0.0
C197 C 0.12251 0.04786 0.30572 0.0
C198 C 0.11747 0.04717 0.23807 0.0
C199 C 0.11226 0.06859 0.20447 0.0
C200 C 0.11203 0.09074 0.23846 0.0
C201 C 0.19676 0.18892 0.36489 0.0
C202 C 0.19999 0.1978 0.30064 0.0
C203 C 0.17654 0.17531 0.38103 0.0
C204 C 0.1585 0.1706 0.33392 0.0
C205 C 0.16126 0.17981 0.26953 0.0
C206 C 0.18188 0.19355 0.253 0.0
C207 C 0.13772 0.15494 0.35279 0.0
C208 C 0.13386 0.13318 0.31793 0.0
C209 C 0.12436 0.15945 0.41133 0.0
C210 C 0.1273 0.18204 0.45069 0.0
C211 C 0.12451 0.20481 0.42097 0.0
C212 C 0.12716 0.226 0.45854 0.0
C213 C 0.1326 0.22462 0.52589 0.0
C214 C 0.1354 0.20206 0.55584 0.0
C215 C 0.13273 0.18083 0.51854 0.0
H216 H 0.13462 0.24105 0.55487 0.0
H217 H 0.1177 0.03006 0.21162 0.0
H218 H 0.0426 0.95152 0.62285 0.0
H219 H 0.06308 0.91734 0.67857 0.0
H220 H 0.10333 0.90249 0.50002 0.0
H221 H 0.08216 0.9346 0.44445 0.0
H222 H 0.09202 0.86312 0.54638 0.0
H223 H 0.12438 0.93687 0.63865 0.0
H224 H 0.12532 0.97515 0.70209 0.0
H225 H 0.10483 0.93724 0.87778 0.0
H226 H 0.10329 0.89878 0.81507 0.0
H227 H 0.20702 0.81513 0.62595 0.0
H228 H 0.17164 0.83862 0.59318 0.0
H229 H 0.1414 0.83016 0.78813 0.0
H230 H 0.17777 0.8072 0.82186 0.0
H231 H 0.14009 0.87643 0.75036 0.0
H232 H 0.11741 0.80024 0.63831 0.0
H233 H 0.1238 0.76604 0.56098 0.0
H234 H 0.13675 0.81586 0.40297 0.0
H235 H 0.13068 0.85029 0.47929 0.0
C236 C 0.05515 0.94026 0.59528 0.0
C237 C 0.06076 0.94574 0.52933 0.0
C238 C 0.0672 0.92107 0.62738 0.0
C239 C 0.08508 0.90744 0.59389 0.0
C240 C 0.0896 0.91244 0.52726 0.0
C241 C 0.07741 0.93096 0.49535 0.0
C242 C 0.09973 0.88804 0.62598 0.0
C243 C 0.10251 0.86614 0.59112 0.0
C244 C 0.11329 0.89167 0.68484 0.0
C245 C 0.11316 0.915 0.72178 0.0
C246 C 0.11964 0.93674 0.69052 0.0
C247 C 0.12038 0.95847 0.72643 0.0
C248 C 0.11499 0.95865 0.79383 0.0
C249 C 0.10885 0.9371 0.82548 0.0
C250 C 0.10798 0.91534 0.78974 0.0
C251 C 0.19246 0.81768 0.66123 0.0
C252 C 0.19479 0.80902 0.726 0.0
C253 C 0.17218 0.83108 0.64241 0.0
C254 C 0.15348 0.8358 0.68765 0.0
C255 C 0.15546 0.82651 0.75212 0.0
C256 C 0.17603 0.81321 0.77125 0.0
C257 C 0.1331 0.85215 0.6688 0.0
C258 C 0.12916 0.87331 0.70648 0.0
C259 C 0.11957 0.84867 0.60997 0.0
C260 C 0.12361 0.82781 0.56465 0.0
C261 C 0.12177 0.80387 0.58719 0.0
C262 C 0.1253 0.78446 0.54347 0.0
C263 C 0.13067 0.78878 0.47713 0.0
C264 C 0.13256 0.81252 0.45432 0.0
C265 C 0.12903 0.83197 0.49775 0.0
H266 H 0.13336 0.77372 0.4434 0.0
H267 H 0.11568 0.97547 0.8216 0.0
H268 H 0.34374 0.78844 0.72413 0.0
H269 H 0.37622 0.81458 0.76515 0.0
H270 H 0.32869 0.84192 0.91723 0.0
H271 H 0.29612 0.81571 0.87579 0.0
H272 H 0.34599 0.87815 0.84046 0.0
H273 H 0.38034 0.81017 0.95406 0.0
H274 H 0.39438 0.76791 0.95901 0.0
H275 H 0.44943 0.78303 0.81533 0.0
H276 H 0.43519 0.82533 0.80814 0.0
H277 H 0.41532 0.94876 0.0382 0.0
H278 H 0.39319 0.91712 0.98601 0.0
H279 H 0.452 0.90457 0.85002 0.0
H280 H 0.47582 0.93715 0.90539 0.0
H281 H 0.4318 0.86161 0.89982 0.0
H282 H 0.39905 0.93151 0.79379 0.0
H283 H 0.3838 0.9735 0.78917 0.0
H284 H 0.3256 0.95516 0.92006 0.0
H285 H 0.34059 0.91311 0.92592 0.0
C286 C 0.34073 0.79884 0.76896 0.0
C287 C 0.3175 0.79971 0.79732 0.0
C288 C 0.35922 0.81415 0.79176 0.0
C289 C 0.35487 0.83057 0.84373 0.0
C290 C 0.33246 0.82957 0.87671 0.0
C291 C 0.314 0.81411 0.85406 0.0
C292 C 0.37258 0.85037 0.85868 0.0
C293 C 0.36469 0.87449 0.85397 0.0
C294 C 0.39728 0.84579 0.87346 0.0
C295 C 0.40657 0.82079 0.88009 0.0
C296 C 0.39539 0.80444 0.92335 0.0
C297 C 0.40339 0.78047 0.92653 0.0
C298 C 0.42281 0.77276 0.88746 0.0
C299 C 0.43438 0.78904 0.84548 0.0
C300 C 0.42634 0.81301 0.84179 0.0
C301 C 0.4242 0.93951 -0.00241 0.0
C302 C 0.44785 0.94569 0.97685 0.0
C303 C 0.41103 0.92136 0.96692 0.0
C304 C 0.42048 0.90875 0.91294 0.0
C305 C 0.44418 0.91436 0.89132 0.0
C306 C 0.45777 0.93294 0.9228 0.0
C307 C 0.4051 0.88935 0.88288 0.0
C308 C 0.41326 0.86528 0.8849 0.0
C309 C 0.38056 0.89399 0.86536 0.0
C310 C 0.37097 0.91911 0.86023 0.0
C311 C 0.38301 0.93642 0.82161 0.0
C312 C 0.37441 0.96025 0.81879 0.0
C313 C 0.35375 0.96699 0.85429 0.0
C314 C 0.34157 0.94989 0.89245 0.0
C315 C 0.35006 0.92603 0.89533 0.0
H316 H 0.34718 0.98546 0.85224 0.0
H317 H 0.42891 0.75417 0.88944 0.0
H318 H 0.47921 0.08647 0.04958 0.0
H319 H 0.45478 0.12242 0.08122 0.0
H320 H 0.38931 0.08084 0.05262 0.0
H321 H 0.41264 0.04661 0.01721 0.0
H322 H 0.3833 0.11962 0.99494 0.0
H323 H 0.41046 0.09862 0.214 0.0
H324 H 0.43698 0.09216 0.31069 0.0
H325 H 0.46694 0.16338 0.28786 0.0
H326 H 0.44039 0.17035 0.19144 0.0
H327 H 0.28799 0.17802 0.16261 0.0
H328 H 0.31958 0.15307 0.11598 0.0
H329 H 0.37257 0.20823 0.16246 0.0
H330 H 0.34077 0.23182 0.21829 0.0
H331 H 0.38958 0.16851 0.20012 0.0
H332 H 0.34963 0.18708 0.98713 0.0
H333 H 0.31238 0.1893 0.91938 0.0
H334 H 0.29907 0.11368 0.95216 0.0
H335 H 0.33611 0.11104 0.0202 0.0
C336 C 0.4596 0.08533 0.04879 0.0
C337 C 0.44807 0.06362 0.02963 0.0
C338 C 0.44565 0.10572 0.06803 0.0
C339 C 0.42006 0.10448 0.06919 0.0
C340 C 0.40889 0.08264 0.05132 0.0
C341 C 0.4225 0.06287 0.03083 0.0
C342 C 0.40409 0.12576 0.08386 0.0
C343 C 0.38484 0.13032 0.03991 0.0
C344 C 0.4059 0.14002 0.14205 0.0
C345 C 0.42378 0.13483 0.19483 0.0
C346 C 0.42306 0.11271 0.2288 0.0
C347 C 0.43792 0.10905 0.28392 0.0
C348 C 0.45365 0.12734 0.3053 0.0
C349 C 0.45477 0.14922 0.27118 0.0
C350 C 0.43979 0.15305 0.21639 0.0
C351 C 0.30612 0.18551 0.15942 0.0
C352 C 0.31176 0.20721 0.19226 0.0
C353 C 0.32442 0.17108 0.13264 0.0
C354 C 0.34872 0.17882 0.13324 0.0
C355 C 0.35403 0.20177 0.16058 0.0
C356 C 0.33575 0.21567 0.19077 0.0
C357 C 0.36859 0.16196 0.11177 0.0
C358 C 0.38854 0.1583 0.15424 0.0
C359 C 0.36684 0.14757 0.05369 0.0
C360 C 0.3457 0.14888 0.0084 0.0
C361 C 0.33886 0.17091 0.97932 0.0
C362 C 0.31773 0.17224 0.9411 0.0
C363 C 0.30339 0.15164 0.93141 0.0
C364 C 0.31024 0.1296 0.95945 0.0
C365 C 0.33135 0.12814 -0.00246 0.0
H366 H 0.28696 0.15277 0.90222 0.0
H367 H 0.46481 0.12466 0.34867 0.0
H368 H 0.96844 0.94186 0.65756 0.0
H369 H 0.94233 0.90739 0.68401 0.0
H370 H 0.90554 0.91553 0.49696 0.0
H371 H 0.93148 0.95032 0.4713 0.0
H372 H 0.87427 0.91541 0.59637 0.0
H373 H 0.94147 0.86564 0.53034 0.0
H374 H 0.98405 0.85194 0.53081 0.0
H375 H 0.97883 0.83525 0.73716 0.0
H376 H 0.93628 0.84918 0.73809 0.0
H377 H 0.80247 0.81322 0.57648 0.0
H378 H 0.83667 0.84027 0.56061 0.0
H379 H 0.85665 0.83251 0.76546 0.0
H380 H 0.82182 0.80512 0.7821 0.0
H381 H 0.89696 0.8328 0.66994 0.0
H382 H 0.82825 0.88068 0.73236 0.0
H383 H 0.78589 0.89503 0.72976 0.0
H384 H 0.79407 0.91565 0.52694 0.0
H385 H 0.83638 0.90108 0.52799 0.0
C386 C 0.95545 0.93554 0.62108 0.0
C387 C 0.95228 0.94813 0.56172 0.0
C388 C 0.94044 0.91598 0.63631 0.0
C389 C 0.92203 0.90879 0.59235 0.0
C390 C 0.91968 0.92073 0.53151 0.0
C391 C 0.93466 0.94034 0.51641 0.0
C392 C 0.90378 0.8905 0.61238 0.0
C393 C 0.87925 0.89725 0.61157 0.0
C394 C 0.9103 0.86715 0.63489 0.0
C395 C 0.9358 0.85866 0.63442 0.0
C396 C 0.94947 0.85923 0.57593 0.0
C397 C 0.97358 0.85139 0.57592 0.0
C398 C 0.98416 0.84279 0.63402 0.0
C399 C 0.97062 0.84195 0.69222 0.0
C400 C 0.9465 0.84979 0.6925 0.0
C401 C 0.81432 0.81692 0.61813 0.0
C402 C 0.80936 0.80726 0.68075 0.0
C403 C 0.83381 0.83245 0.60894 0.0
C404 C 0.84883 0.83876 0.6621 0.0
C405 C 0.84508 0.82791 0.72394 0.0
C406 C 0.82535 0.8122 0.73331 0.0
C407 C 0.86754 0.85759 0.65221 0.0
C408 C 0.89209 0.85103 0.65515 0.0
C409 C 0.86106 0.88117 0.63132 0.0
C410 C 0.83544 0.88957 0.63013 0.0
C411 C 0.82094 0.88802 0.68698 0.0
C412 C 0.79695 0.89626 0.68583 0.0
C413 C 0.78728 0.9062 0.62818 0.0
C414 C 0.80158 0.90792 0.57154 0.0
C415 C 0.82557 0.89969 0.57241 0.0
H416 H 0.76872 0.91261 0.62744 0.0
H417 H 1.00283 0.83673 0.63392 0.0
H418 H 0.92257 0.03535 0.42028 0.0
H419 H 0.898 0.06687 0.3713 0.0
H420 H 0.95224 0.12003 0.42379 0.0
H421 H 0.97597 0.08824 0.4784 0.0
H422 H 0.91122 0.13461 0.46687 0.0
H423 H 0.93359 0.10137 0.25107 0.0
H424 H 0.93839 0.06761 0.17152 0.0
H425 H 0.8625 0.05128 0.18683 0.0
H426 H 0.85729 0.0847 0.2669 0.0
H427 H 0.83118 0.2264 0.33262 0.0
H428 H 0.86732 0.20063 0.34937 0.0
H429 H 0.82285 0.1368 0.32667 0.0
H430 H 0.78721 0.16218 0.31058 0.0
H431 H 0.86343 0.13185 0.25931 0.0
H432 H 0.83911 0.15717 0.47448 0.0
H433 H 0.82975 0.18533 0.56586 0.0
H434 H 0.90328 0.21081 0.56568 0.0
H435 H 0.91297 0.1832 0.47306 0.0
C436 C 0.92999 0.05351 0.41776 0.0
C437 C 0.95146 0.05924 0.4517 0.0
C438 C 0.91576 0.07172 0.38997 0.0
C439 C 0.92323 0.09606 0.39268 0.0
C440 C 0.94602 0.10145 0.42072 0.0
C441 C 0.95995 0.08319 0.45046 0.0
C442 C 0.90599 0.11584 0.3741 0.0
C443 C 0.90132 0.13441 0.42049 0.0
C444 C 0.89204 0.11502 0.31518 0.0
C445 C 0.89508 0.09557 0.26492 0.0
C446 C 0.91794 0.09059 0.23737 0.0
C447 C 0.92073 0.07148 0.19227 0.0
C448 C 0.90077 0.05732 0.17411 0.0
C449 C 0.87794 0.06229 0.20079 0.0
C450 C 0.87505 0.08135 0.24587 0.0
C451 C 0.82936 0.20687 0.33023 0.0
C452 C 0.8065 0.19621 0.32016 0.0
C453 C 0.84989 0.19219 0.34036 0.0
C454 C 0.84776 0.16676 0.33955 0.0
C455 C 0.825 0.15632 0.32742 0.0
C456 C 0.80463 0.17084 0.31831 0.0
C457 C 0.86885 0.15055 0.35175 0.0
C458 C 0.874 0.13254 0.30457 0.0
C459 C 0.8826 0.15142 0.41088 0.0
C460 C 0.87665 0.16844 0.46572 0.0
C461 C 0.8532 0.16906 0.49307 0.0
C462 C 0.84785 0.18487 0.54529 0.0
C463 C 0.86587 0.19995 0.57131 0.0
C464 C 0.8893 0.19921 0.54522 0.0
C465 C 0.89472 0.18351 0.49276 0.0
H466 H 0.86171 0.21213 0.61187 0.0
H467 H 0.90299 0.04251 0.13935 0.0
H468 H 0.72668 0.17057 0.1946 0.0
H469 H 0.69723 0.14385 0.14316 0.0
H470 H 0.64412 0.20141 0.14777 0.0
H471 H 0.67343 0.22759 0.20457 0.0
H472 H 0.62689 0.16629 0.20893 0.0
H473 H 0.6666 0.16899 -0.00145 0.0
H474 H 0.7018 0.16717 0.92379 0.0
H475 H 0.71533 0.09356 0.98075 0.0
H476 H 0.68044 0.09504 0.05663 0.0
H477 H 0.53787 0.09201 0.0333 0.0
H478 H 0.56569 0.12309 0.07583 0.0
H479 H 0.61463 0.0673 0.14171 0.0
H480 H 0.58639 0.03632 0.10188 0.0
H481 H 0.63353 0.10124 0.04008 0.0
H482 H 0.59772 0.09968 0.25453 0.0
H483 H 0.5661 0.10198 0.33954 0.0
H484 H 0.54697 0.17366 0.27587 0.0
H485 H 0.5786 0.17168 0.19003 0.0
C486 C 0.70918 0.17801 0.18086 0.0
C487 C 0.70239 0.20122 0.20309 0.0
C488 C 0.69215 0.16256 0.15162 0.0
C489 C 0.66814 0.17035 0.14161 0.0
C490 C 0.6624 0.19477 0.15546 0.0
C491 C 0.67932 0.21002 0.18657 0.0
C492 C 0.64843 0.15228 0.12846 0.0
C493 C 0.62816 0.15257 0.17046 0.0
C494 C 0.6504 0.1334 0.0808 0.0
C495 C 0.67094 0.13218 0.03357 0.0
C496 C 0.67712 0.15243 0.99531 0.0
C497 C 0.69703 0.15146 0.95274 0.0
C498 C 0.71081 0.13027 0.9476 0.0
C499 C 0.70464 0.10996 0.98477 0.0
C500 C 0.68476 0.11084 0.02748 0.0
C501 C 0.55364 0.08638 0.06134 0.0
C502 C 0.55975 0.06169 0.06496 0.0
C503 C 0.56987 0.10417 0.08416 0.0
C504 C 0.59254 0.0975 0.11032 0.0
C505 C 0.59737 0.07288 0.12102 0.0
C506 C 0.58088 0.05517 0.09975 0.0
C507 C 0.61202 0.11593 0.11946 0.0
C508 C 0.63224 0.11544 0.07723 0.0
C509 C 0.61011 0.1347 0.16667 0.0
C510 C 0.59023 0.1354 0.2154 0.0
C511 C 0.58649 0.11577 0.25796 0.0
C512 C 0.56863 0.11708 0.30654 0.0
C513 C 0.55441 0.13797 0.31305 0.0
C514 C 0.55796 0.1575 0.27069 0.0
C515 C 0.57587 0.1563 0.22213 0.0
H516 H 0.54075 0.13919 0.35111 0.0
H517 H 0.72626 0.12958 0.91474 0.0
H518 H 0.72425 0.82864 0.87441 0.0
H519 H 0.69034 0.85219 0.91947 0.0
H520 H 0.64057 0.81149 0.79758 0.0
H521 H 0.67437 0.7874 0.75443 0.0
H522 H 0.6398 0.8616 0.77242 0.0
H523 H 0.63359 0.80889 0.95975 0.0
H524 H 0.64222 0.78711 0.06316 0.0
H525 H 0.66387 0.85377 0.15655 0.0
H526 H 0.65594 0.87583 0.0533 0.0
H527 H 0.53798 0.93481 0.88 0.0
H528 H 0.56355 0.89938 0.85301 0.0
H529 H 0.61938 0.92691 0.98312 0.0
H530 H 0.59402 0.96183 0.00985 0.0
H531 H 0.6132 0.88035 0.00067 0.0
H532 H 0.62171 0.93378 0.81714 0.0
H533 H 0.60722 0.9582 0.72347 0.0
H534 H 0.5813 0.8939 0.62615 0.0
H535 H 0.59522 0.86908 0.71992 0.0
C536 C 0.70591 0.82357 0.86084 0.0
C537 C 0.70195 0.80574 0.8121 0.0
C538 C 0.68653 0.83737 0.88565 0.0
C539 C 0.66289 0.83385 0.86124 0.0
C540 C 0.65862 0.81458 0.81712 0.0
C541 C 0.67792 0.80041 0.79359 0.0
C542 C 0.64348 0.85203 0.8752 0.0
C543 C 0.63368 0.86543 0.8223 0.0
C544 C 0.63603 0.8577 0.94023 0.0
C545 C 0.64432 0.84395 -0.00137 0.0
C546 C 0.64072 0.8188 0.00185 0.0
C547 C 0.64526 0.80645 0.06067 0.0
C548 C 0.65327 0.81909 0.11664 0.0
C549 C 0.65738 0.84403 0.11344 0.0
C550 C 0.65305 0.85642 0.05467 0.0
C551 C 0.5554 0.93272 0.90421 0.0
C552 C 0.56392 0.9506 0.94816 0.0
C553 C 0.57015 0.9128 0.88794 0.0
C554 C 0.59349 0.91061 0.9156 0.0
C555 C 0.60147 0.92815 0.9612 0.0
C556 C 0.58692 0.94797 0.97694 0.0
C557 C 0.60991 0.89013 0.89862 0.0
C558 C 0.61925 0.87642 0.95076 0.0
C559 C 0.61728 0.88469 0.8332 0.0
C560 C 0.60922 0.89956 0.77616 0.0
C561 C 0.61272 0.92483 0.77611 0.0
C562 C 0.60465 0.93876 0.72291 0.0
C563 C 0.5933 0.92761 0.66898 0.0
C564 C 0.59007 0.9025 0.66804 0.0
C565 C 0.59805 0.88849 0.72123 0.0
H566 H 0.58701 0.93843 0.6279 0.0
H567 H 0.65664 0.80952 0.16222 0.0
H568 H 0.58963 0.5573 0.04361 0.0
H569 H 0.61291 0.59263 0.00768 0.0
H570 H 0.55887 0.60748 0.85886 0.0
H571 H 0.53527 0.57237 0.89596 0.0
H572 H 0.60716 0.60283 0.8101 0.0
H573 H 0.56455 0.64674 0.98207 0.0
H574 H 0.54991 0.65273 0.09603 0.0
H575 H 0.62327 0.65201 0.16785 0.0
H576 H 0.63832 0.64574 0.05438 0.0
H577 H 0.68112 0.70283 0.70375 0.0
H578 H 0.64459 0.68017 0.73787 0.0
H579 H 0.67961 0.66244 0.92239 0.0
H580 H 0.71525 0.68492 0.88929 0.0
H581 H 0.63496 0.67264 0.94577 0.0
H582 H 0.67868 0.62364 0.79062 0.0
H583 H 0.69752 0.61322 0.68385 0.0
H584 H 0.62807 0.61765 0.58818 0.0
H585 H 0.60887 0.62859 0.69429 0.0
C586 C 0.58227 0.56878 0.00522 0.0
C587 C 0.56044 0.56263 0.97363 0.0
C588 C 0.59563 0.58879 0.9843 0.0
C589 C 0.58759 0.60268 0.9306 0.0
C590 C 0.56529 0.59708 0.9006 0.0
C591 C 0.55168 0.5773 0.92241 0.0
C592 C 0.60346 0.62175 0.90293 0.0
C593 C 0.6128 0.61848 0.83898 0.0
C594 C 0.61151 0.64155 0.94167 0.0
C595 C 0.60253 0.64569 0.00978 0.0
C596 C 0.57754 0.64775 0.02222 0.0
C597 C 0.56918 0.65121 0.08672 0.0
C598 C 0.58565 0.65273 0.13916 0.0
C599 C 0.61053 0.65085 0.12719 0.0
C600 C 0.61899 0.6474 0.06277 0.0
C601 C 0.68067 0.69432 0.75177 0.0
C602 C 0.701 0.69522 0.79354 0.0
C603 C 0.65996 0.68132 0.77114 0.0
C604 C 0.65946 0.66938 0.83253 0.0
C605 C 0.67946 0.67142 0.87495 0.0
C606 C 0.69992 0.68414 0.8557 0.0
C607 C 0.6389 0.65373 0.85289 0.0
C608 C 0.62883 0.65745 0.91584 0.0
C609 C 0.63088 0.63384 0.81408 0.0
C610 C 0.6424 0.62738 0.75018 0.0
C611 C 0.66746 0.62269 0.74668 0.0
C612 C 0.6782 0.61664 0.68631 0.0
C613 C 0.66402 0.61489 0.6292 0.0
C614 C 0.63905 0.61912 0.63241 0.0
C615 C 0.62823 0.62528 0.69264 0.0
H616 H 0.67236 0.61018 0.58251 0.0
H617 H 0.57913 0.65538 0.18906 0.0
H618 H 0.71486 0.34687 0.25446 0.0
H619 H 0.67859 0.37071 0.23031 0.0
H620 H 0.64269 0.3065 0.15712 0.0
H621 H 0.67923 0.28239 0.18195 0.0
H622 H 0.64026 0.34662 0.07001 0.0
H623 H 0.62347 0.33135 0.30154 0.0
H624 H 0.63397 0.33059 0.42006 0.0
H625 H 0.64913 0.40688 0.41626 0.0
H626 H 0.63885 0.40804 0.29765 0.0
H627 H 0.53729 0.41645 -0.00197 0.0
H628 H 0.56071 0.38364 0.04839 0.0
H629 H 0.59816 0.43603 0.17054 0.0
H630 H 0.5739 0.46842 0.12244 0.0
H631 H 0.59682 0.3975 0.23449 0.0
H632 H 0.61863 0.41534 0.01159 0.0
H633 H 0.61352 0.41989 0.89126 0.0
H634 H 0.5959 0.34438 0.87296 0.0
H635 H 0.60054 0.33944 0.99339 0.0
C636 C 0.69899 0.33771 0.23484 0.0
C637 C 0.69969 0.31274 0.22098 0.0
C638 C 0.6783 0.35137 0.22086 0.0
C639 C 0.65783 0.34041 0.19219 0.0
C640 C 0.65823 0.31531 0.17957 0.0
C641 C 0.67894 0.3015 0.19451 0.0
C642 C 0.63661 0.35561 0.17306 0.0
C643 C 0.63031 0.35733 0.10602 0.0
C644 C 0.6244 0.37042 0.21958 0.0
C645 C 0.63044 0.36975 0.29085 0.0
C646 C 0.62913 0.34793 0.326 0.0
C647 C 0.63502 0.34744 0.39316 0.0
C648 C 0.64222 0.36867 0.42566 0.0
C649 C 0.64351 0.39046 0.39107 0.0
C650 C 0.6376 0.39105 0.32394 0.0
C651 C 0.54937 0.42067 0.03882 0.0
C652 C 0.5534 0.4449 0.05743 0.0
C653 C 0.5633 0.402 0.06625 0.0
C654 C 0.58192 0.40735 0.11167 0.0
C655 C 0.58409 0.43128 0.13535 0.0
C656 C 0.56986 0.44984 0.10872 0.0
C657 C 0.60027 0.38871 0.13111 0.0
C658 C 0.60628 0.38647 0.19822 0.0
C659 C 0.61278 0.37408 0.08412 0.0
C660 C 0.60954 0.37711 0.01175 0.0
C661 C 0.61339 0.39976 0.98204 0.0
C662 C 0.61064 0.4024 0.91378 0.0
C663 C 0.60429 0.38246 0.87453 0.0
C664 C 0.60073 0.35983 0.90346 0.0
C665 C 0.60341 0.3571 0.97173 0.0
H666 H 0.60221 0.38453 0.82169 0.0
H667 H 0.64678 0.36825 0.47767 0.0
H668 H 0.92337 0.46926 0.40578 0.0
H669 H 0.89846 0.43511 0.36886 0.0
H670 H 0.95342 0.3854 0.43606 0.0
H671 H 0.97817 0.41967 0.47443 0.0
H672 H 0.92544 0.37218 0.31072 0.0
H673 H 0.91386 0.39614 0.54279 0.0
H674 H 0.90411 0.42484 0.63293 0.0
H675 H 0.83642 0.44211 0.53889 0.0
H676 H 0.84587 0.41366 0.448 0.0
H677 H 0.84116 0.27722 0.2841 0.0
H678 H 0.87442 0.30072 0.33317 0.0
H679 H 0.8233 0.35723 0.38459 0.0
H680 H 0.79042 0.33234 0.34453 0.0
H681 H 0.85429 0.36449 0.45816 0.0
H682 H 0.86371 0.34838 0.22124 0.0
H683 H 0.87139 0.32417 0.12037 0.0
H684 H 0.93834 0.29836 0.20305 0.0
H685 H 0.93094 0.32224 0.30448 0.0
C686 C 0.93085 0.45112 0.40876 0.0
C687 C 0.95296 0.44716 0.44179 0.0
C688 C 0.91634 0.43158 0.38897 0.0
C689 C 0.92388 0.40773 0.40099 0.0
C690 C 0.94724 0.4037 0.42655 0.0
C691 C 0.96164 0.42331 0.44718 0.0
C692 C 0.90645 0.38734 0.39359 0.0
C693 C 0.90988 0.37029 0.343 0.0
C694 C 0.88591 0.38526 0.43483 0.0
C695 C 0.8807 0.40296 0.48835 0.0
C696 C 0.89705 0.40627 0.54099 0.0
C697 C 0.89152 0.42242 0.59233 0.0
C698 C 0.86968 0.43532 0.59158 0.0
C699 C 0.85333 0.43213 0.53942 0.0
C700 C 0.85876 0.41599 0.48803 0.0
C701 C 0.83702 0.29388 0.31034 0.0
C702 C 0.81317 0.30287 0.31121 0.0
C703 C 0.85618 0.30788 0.33609 0.0
C704 C 0.85194 0.33167 0.35943 0.0
C705 C 0.82766 0.33922 0.36673 0.0
C706 C 0.80857 0.32475 0.34439 0.0
C707 C 0.8721 0.34952 0.37211 0.0
C708 C 0.86951 0.36615 0.42471 0.0
C709 C 0.89276 0.35188 0.33045 0.0
C710 C 0.89659 0.33677 0.2707 0.0
C711 C 0.87993 0.33734 0.21807 0.0
C712 C 0.88426 0.32373 0.16078 0.0
C713 C 0.90529 0.30967 0.15541 0.0
C714 C 0.92202 0.30918 0.20733 0.0
C715 C 0.91776 0.32272 0.26471 0.0
H716 H 0.90866 0.29922 0.11094 0.0
H717 H 0.86541 0.44775 0.63148 0.0
H718 H 0.79136 0.68203 0.66426 0.0
H719 H 0.82293 0.65518 0.62097 0.0
H720 H 0.87744 0.70738 0.67607 0.0
H721 H 0.84588 0.73365 0.72391 0.0
H722 H 0.87566 0.67416 0.53195 0.0
H723 H 0.88083 0.67707 0.7732 0.0
H724 H 0.86573 0.67411 0.88721 0.0
H725 H 0.84143 0.60148 0.84906 0.0
H726 H 0.85549 0.60436 0.7339 0.0
H727 H 0.9753 0.58449 0.52027 0.0
H728 H 0.95097 0.62131 0.54314 0.0
H729 H 0.88961 0.57668 0.59243 0.0
H730 H 0.91304 0.54059 0.56895 0.0
H731 H 0.89963 0.60996 0.68946 0.0
H732 H 0.88876 0.60561 0.45546 0.0
H733 H 0.8999 0.6054 0.33768 0.0
H734 H 0.93112 0.67629 0.35912 0.0
H735 H 0.92058 0.67669 0.47749 0.0
C736 C 0.80992 0.68848 0.66369 0.0
C737 C 0.81605 0.71027 0.69636 0.0
C738 C 0.82802 0.6728 0.64041 0.0
C739 C 0.85256 0.67902 0.64687 0.0
C740 C 0.8586 0.70209 0.67161 0.0
C741 C 0.84051 0.71741 0.69735 0.0
C742 C 0.87165 0.66084 0.6308 0.0
C743 C 0.88137 0.66043 0.56684 0.0
C744 C 0.8784 0.6424 0.67577 0.0
C745 C 0.86864 0.64123 0.74407 0.0
C746 C 0.87161 0.66075 0.78833 0.0
C747 C 0.86338 0.65901 0.85342 0.0
C748 C 0.85247 0.63769 0.87526 0.0
C749 C 0.84971 0.61807 0.83198 0.0
C750 C 0.85772 0.61979 0.7667 0.0
C751 C 0.95651 0.58264 0.53478 0.0
C752 C 0.94632 0.5595 0.54345 0.0
C753 C 0.94265 0.60365 0.54815 0.0
C754 C 0.91851 0.60174 0.57044 0.0
C755 C 0.90823 0.5787 0.57631 0.0
C756 C 0.92179 0.55799 0.56267 0.0
C757 C 0.90371 0.62324 0.59044 0.0
C758 C 0.89449 0.62407 0.65504 0.0
C759 C 0.89699 0.6417 0.54578 0.0
C760 C 0.90433 0.64098 0.47556 0.0
C761 C 0.89841 0.62096 0.43537 0.0
C762 C 0.90451 0.62085 0.36842 0.0
C763 C 0.91632 0.64077 0.34099 0.0
C764 C 0.92208 0.66082 0.38049 0.0
C765 C 0.91609 0.66098 0.44752 0.0
H766 H 0.92091 0.64071 0.28906 0.0
H767 H 0.8463 0.63632 0.92581 0.0
H768 H 0.28908 0.34605 0.20586 0.0
H769 H 0.32469 0.37052 0.18165 0.0
H770 H 0.36709 0.30558 0.15278 0.0
H771 H 0.33114 0.28075 0.17866 0.0
H772 H 0.39249 0.34516 0.21828 0.0
H773 H 0.34476 0.33181 0.01951 0.0
H774 H 0.30682 0.3313 0.95451 0.0
H775 H 0.29683 0.4073 0.99226 0.0
H776 H 0.33452 0.40822 0.05804 0.0
H777 H 0.47907 0.42568 0.05977 0.0
H778 H 0.45301 0.38992 0.07784 0.0
H779 H 0.39127 0.43704 0.10512 0.0
H780 H 0.41684 0.47221 0.0877 0.0
H781 H 0.3801 0.39957 0.02695 0.0
H782 H 0.42011 0.41425 0.23414 0.0
H783 H 0.45461 0.41845 0.31101 0.0
H784 H 0.47577 0.3449 0.27104 0.0
H785 H 0.4416 0.34041 0.19289 0.0
C786 C 0.30615 0.33697 0.19593 0.0
C787 C 0.30744 0.31158 0.19396 0.0
C788 C 0.32643 0.35096 0.1817 0.0
C789 C 0.34836 0.33987 0.16385 0.0
C790 C 0.35025 0.31445 0.16604 0.0
C791 C 0.32983 0.30032 0.18114 0.0
C792 C 0.36847 0.35514 0.13903 0.0
C793 C 0.39012 0.35662 0.1754 0.0
C794 C 0.36502 0.37057 0.08415 0.0
C795 C 0.34245 0.37004 0.04387 0.0
C796 C 0.33442 0.34838 0.01417 0.0
C797 C 0.31296 0.34803 0.97715 0.0
C798 C 0.29943 0.36925 0.96934 0.0
C799 C 0.30734 0.39088 -0.00168 0.0
C800 C 0.32877 0.39134 0.03535 0.0
C801 C 0.45987 0.42821 0.06882 0.0
C802 C 0.44995 0.45164 0.07268 0.0
C803 C 0.44507 0.40788 0.07958 0.0
C804 C 0.42021 0.41085 0.09319 0.0
C805 C 0.41034 0.43426 0.09472 0.0
C806 C 0.42503 0.45437 0.08497 0.0
C807 C 0.40399 0.39003 0.10696 0.0
C808 C 0.38292 0.38757 0.06854 0.0
C809 C 0.40772 0.37427 0.16098 0.0
C810 C 0.42858 0.37713 0.20671 0.0
C811 C 0.43233 0.39908 0.24095 0.0
C812 C 0.45177 0.40149 0.28494 0.0
C813 C 0.46744 0.38199 0.29566 0.0
C814 C 0.46368 0.36002 0.26246 0.0
C815 C 0.4443 0.35755 0.21826 0.0
H816 H 0.48245 0.38386 0.3299 0.0
H817 H 0.2828 0.36894 0.94089 0.0
H818 H 0.41091 0.54084 0.99255 0.0
H819 H 0.38703 0.57166 0.9385 0.0
H820 H 0.45259 0.60786 0.87772 0.0
H821 H 0.47682 0.57738 0.93737 0.0
H822 H 0.42338 0.63859 0.93576 0.0
H823 H 0.40819 0.57783 0.76376 0.0
H824 H 0.3965 0.5367 0.72726 0.0
H825 H 0.32748 0.5447 0.82276 0.0
H826 H 0.3388 0.58577 0.86016 0.0
H827 H 0.34155 0.71898 0.73796 0.0
H828 H 0.37508 0.69197 0.77271 0.0
H829 H 0.3266 0.65526 0.90534 0.0
H830 H 0.29386 0.68237 0.87342 0.0
H831 H 0.35011 0.62623 0.79732 0.0
H832 H 0.36175 0.67923 0.97875 0.0
H833 H 0.37053 0.71621 0.043 0.0
H834 H 0.4418 0.7193 0.95866 0.0
H835 H 0.43301 0.68297 0.89125 0.0
C836 C 0.42033 0.55482 0.96539 0.0
C837 C 0.44572 0.55659 0.96846 0.0
C838 C 0.40657 0.5725 0.93408 0.0
C839 C 0.41785 0.59202 0.90259 0.0
C840 C 0.44343 0.59288 0.90124 0.0
C841 C 0.45732 0.57528 0.93422 0.0
C842 C 0.40279 0.61269 0.87866 0.0
C843 C 0.40786 0.63603 0.90343 0.0
C844 C 0.38159 0.60916 0.83992 0.0
C845 C 0.37436 0.5849 0.8146 0.0
C846 C 0.3905 0.57083 0.77679 0.0
C847 C 0.38395 0.54752 0.75604 0.0
C848 C 0.36126 0.5381 0.77266 0.0
C849 C 0.34502 0.55203 0.80974 0.0
C850 C 0.35145 0.57537 0.83049 0.0
C851 C 0.33845 0.70572 0.7762 0.0
C852 C 0.31516 0.70257 0.80255 0.0
C853 C 0.35746 0.69025 0.79572 0.0
C854 C 0.35314 0.67149 0.84101 0.0
C855 C 0.33028 0.66952 0.87021 0.0
C856 C 0.31164 0.68508 0.85191 0.0
C857 C 0.37118 0.65208 0.85299 0.0
C858 C 0.36631 0.62896 0.82699 0.0
C859 C 0.39199 0.6556 0.89264 0.0
C860 C 0.3965 0.67867 0.92858 0.0
C861 C 0.37901 0.6882 0.97216 0.0
C862 C 0.38404 0.70899 0.00949 0.0
C863 C 0.40667 0.72016 0.00469 0.0
C864 C 0.42421 0.71073 0.96197 0.0
C865 C 0.41916 0.69014 0.92384 0.0
H866 H 0.41069 0.73604 0.03439 0.0
H867 H 0.35628 0.52001 0.75681 0.0
H868 H 0.17612 0.69243 0.82204 0.0
H869 H 0.1456 0.66627 0.77125 0.0
H870 H 0.17853 0.67676 0.58079 0.0
H871 H 0.20995 0.70255 0.6324 0.0
H872 H 0.11962 0.67757 0.60561 0.0
H873 H 0.1935 0.6313 0.61706 0.0
H874 H 0.23059 0.61512 0.66887 0.0
H875 H 0.18785 0.58163 0.8198 0.0
H876 H 0.15051 0.59805 0.76966 0.0
H877 H 0.05296 0.58103 0.46284 0.0
H878 H 0.07988 0.61296 0.49723 0.0
H879 H 0.09152 0.57692 0.68359 0.0
H880 H 0.06775 0.54236 0.64249 0.0
H881 H 0.13111 0.59009 0.65101 0.0
H882 H 0.05711 0.63904 0.64461 0.0
H883 H 0.02001 0.65441 0.5906 0.0
H884 H 0.06267 0.6829 0.43186 0.0
H885 H 0.09994 0.66752 0.48465 0.0
C886 C 0.17624 0.69007 0.76885 0.0
C887 C 0.19514 0.69984 0.73096 0.0
C888 C 0.15906 0.67477 0.74014 0.0
C889 C 0.16018 0.6692 0.67273 0.0
C890 C 0.17758 0.68074 0.63318 0.0
C891 C 0.19517 0.69586 0.66233 0.0
C892 C 0.14346 0.65062 0.64556 0.0
C893 C 0.12218 0.65836 0.61457 0.0
C894 C 0.14669 0.62568 0.65887 0.0
C895 C 0.1692 0.61629 0.69016 0.0
C896 C 0.19202 0.62086 0.66194 0.0
C897 C 0.21309 0.61154 0.69085 0.0
C898 C 0.21159 0.59745 0.74776 0.0
C899 C 0.189 0.59262 0.77584 0.0
C900 C 0.16788 0.60195 0.7472 0.0
C901 C 0.06028 0.58044 0.51258 0.0
C902 C 0.05781 0.55937 0.55049 0.0
C903 C 0.07586 0.59896 0.53258 0.0
C904 C 0.08761 0.5982 0.59426 0.0
C905 C 0.08293 0.5782 0.63557 0.0
C906 C 0.06868 0.55868 0.61316 0.0
C907 C 0.10629 0.61693 0.61274 0.0
C908 C 0.12816 0.60923 0.64213 0.0
C909 C 0.10353 0.64202 0.59847 0.0
C910 C 0.08123 0.65209 0.56846 0.0
C911 C 0.05853 0.64863 0.59828 0.0
C912 C 0.03749 0.6573 0.56781 0.0
C913 C 0.03898 0.66961 0.50783 0.0
C914 C 0.06153 0.6734 0.47834 0.0
C915 C 0.08262 0.66477 0.50858 0.0
H916 H 0.02265 0.67622 0.48421 0.0
H917 H 0.22792 0.59019 0.76994 0.0
H918 H 0.17285 0.28586 0.26123 0.0
H919 H 0.14023 0.31058 0.30863 0.0
H920 H 0.19348 0.35753 0.39896 0.0
H921 H 0.22592 0.33281 0.3516 0.0
H922 H 0.1557 0.35499 0.47558 0.0
H923 H 0.16938 0.37006 0.24888 0.0
H924 H 0.17317 0.36282 0.12909 0.0
H925 H 0.09852 0.34103 0.11928 0.0
H926 H 0.09437 0.34773 0.23933 0.0
H927 H 0.09266 0.46644 0.48638 0.0
H928 H 0.11988 0.43247 0.46607 0.0
H929 H 0.05997 0.39035 0.39009 0.0
H930 H 0.03257 0.42513 0.40885 0.0
H931 H 0.09901 0.38841 0.3086 0.0
H932 H 0.0881 0.37796 0.5453 0.0
H933 H 0.08783 0.39274 0.66058 0.0
H934 H 0.16252 0.41374 0.64384 0.0
H935 H 0.16316 0.39929 0.52831 0.0
C936 C 0.17753 0.30049 0.29484 0.0
C937 C 0.20192 0.30709 0.30401 0.0
C938 C 0.15888 0.31506 0.32035 0.0
C939 C 0.16437 0.33634 0.35586 0.0
C940 C 0.18872 0.34131 0.37141 0.0
C941 C 0.20732 0.32685 0.34553 0.0
C942 C 0.14508 0.35423 0.37323 0.0
C943 C 0.14332 0.36224 0.43893 0.0
C944 C 0.12898 0.36399 0.32537 0.0
C945 C 0.13169 0.35895 0.25352 0.0
C946 C 0.15387 0.36333 0.22147 0.0
C947 C 0.15605 0.35942 0.15341 0.0
C948 C 0.13613 0.35136 0.11665 0.0
C949 C 0.11397 0.34718 0.14787 0.0
C950 C 0.1117 0.351 0.21595 0.0
C951 C 0.08514 0.44964 0.46737 0.0
C952 C 0.06044 0.44812 0.4508 0.0
C953 C 0.10074 0.43021 0.45558 0.0
C954 C 0.092 0.40858 0.4276 0.0
C955 C 0.0671 0.40676 0.4124 0.0
C956 C 0.05138 0.42642 0.42402 0.0
C957 C 0.10929 0.38862 0.4112 0.0
C958 C 0.11095 0.38056 0.34541 0.0
C959 C 0.12588 0.37941 0.45837 0.0
C960 C 0.12564 0.38757 0.52824 0.0
C961 C 0.10444 0.38576 0.56624 0.0
C962 C 0.10422 0.39409 0.63158 0.0
C963 C 0.12514 0.40417 0.65951 0.0
C964 C 0.14634 0.40589 0.6222 0.0
C965 C 0.14666 0.39758 0.55685 0.0
H966 H 0.12492 0.41064 0.71009 0.0
H967 H 0.13783 0.34844 0.06394 0.0
H968 H 0.97556 0.98775 0.74061 0.0
H969 H 0.97658 0.98484 0.86088 0.0
H970 H 0.03792 0.03324 0.86711 0.0
H971 H 0.03639 0.03683 0.74558 0.0
H972 H 0.04018 0.99113 0.95462 0.0
H973 H 0.98815 0.05718 0.89855 0.0
H974 H 0.95438 0.07919 0.8461 0.0
H975 H 0.90324 0.03096 0.93571 0.0
H976 H 0.93676 0.00835 0.98775 0.0
H977 H 0.03839 0.03505 0.27624 0.0
H978 H 0.03402 0.03345 0.15686 0.0
H979 H 0.97356 0.98453 0.17583 0.0
H980 H 0.97804 0.98581 0.29726 0.0
H981 H 0.96904 0.02385 0.07614 0.0
H982 H 0.02175 0.95857 0.13522 0.0
H983 H 0.05595 0.9385 0.1915 0.0
H984 H 0.10595 0.98708 0.09857 0.0
H985 H 0.07201 0.00761 0.04229 0.0
C986 C 0.98972 0.99723 0.76758 0.0
C987 C 0.00611 0.01228 0.73421 0.0
C988 C 0.99008 0.99577 0.83618 0.0
C989 C 0.00702 0.00914 0.87276 0.0
C990 C 0.02459 0.02291 0.83944 0.0
C991 C 0.02395 0.02474 0.77028 0.0
C992 C 0.00572 0.0091 0.9458 0.0
C993 C 0.02476 0.99851 0.98121 0.0
C994 C 0.98516 0.01805 0.98022 0.0
C995 C 0.96503 0.03079 0.94612 0.0
C996 C 0.96974 0.05096 0.90607 0.0
C997 C 0.95063 0.06363 0.87668 0.0
C998 C 0.92668 0.05642 0.88732 0.0
C999 C 0.92181 0.03648 0.92729 0.0
C1000 C 0.94086 0.02371 0.95669 0.0
C1001 C 0.02395 0.0241 0.25531 0.0
C1002 C 0.00877 0.01025 0.29605 0.0
C1003 C 0.02154 0.02319 0.18701 0.0
C1004 C 0.00387 0.00846 0.15763 0.0
C1005 C 0.98748 0.99583 0.19788 0.0
C1006 C 0.98994 0.99669 0.26701 0.0
C1007 C 0.00357 0.00602 0.08477 0.0
C1008 C 0.98428 0.01617 0.04936 0.0
C1009 C 0.02389 0.99673 0.05024 0.0
C1010 C 0.04432 0.98475 0.085 0.0
C1011 C 0.04001 0.96513 0.12733 0.0
C1012 C 0.05936 0.95363 0.15907 0.0
C1013 C 0.0831 0.96153 0.1487 0.0
C1014 C 0.08755 0.98097 0.10657 0.0
C1015 C 0.06827 0.99253 0.07468 0.0
H1016 H 0.09806 0.95256 0.17321 0.0
H1017 H 0.91191 0.06634 0.86482 0.0
H1018 H 0.28291 0.73095 0.54446 0.0
H1019 H 0.28103 0.72514 0.4236 0.0
H1020 H 0.22296 0.77753 0.41259 0.0
H1021 H 0.2245 0.78286 0.53174 0.0
H1022 H 0.21441 0.74385 0.32771 0.0
H1023 H 0.28428 0.79198 0.38695 0.0
H1024 H 0.32361 0.80086 0.44012 0.0
H1025 H 0.35629 0.74119 0.33608 0.0
H1026 H 0.31705 0.73172 0.28311 0.0
H1027 H 0.22609 0.77601 0.98357 0.0
H1028 H 0.22513 0.77948 0.10525 0.0
H1029 H 0.28017 0.72406 0.11912 0.0
H1030 H 0.28132 0.72078 -0.00049 0.0
H1031 H 0.2898 0.75948 0.20231 0.0
H1032 H 0.21898 0.71225 0.14138 0.0
H1033 H 0.17922 0.70412 0.08976 0.0
H1034 H 0.14796 0.76376 0.19711 0.0
H1035 H 0.18762 0.77248 0.24861 0.0
C1036 C 0.26937 0.74063 0.5161 0.0
C1037 C 0.25397 0.75746 0.54711 0.0
C1038 C 0.26846 0.73756 0.44711 0.0
C1039 C 0.25217 0.75131 0.40865 0.0
C1040 C 0.23577 0.76681 0.4407 0.0
C1041 C 0.23671 0.76988 0.50893 0.0
C1042 C 0.25273 0.75096 0.33504 0.0
C1043 C 0.23089 0.74744 0.30032 0.0
C1044 C 0.2742 0.75551 0.29898 0.0
C1045 C 0.29766 0.76095 0.33178 0.0
C1046 C 0.29979 0.7806 0.37598 0.0
C1047 C 0.32208 0.78577 0.40597 0.0
C1048 C 0.34241 0.77155 0.39166 0.0
C1049 C 0.34051 0.75214 0.34728 0.0
C1050 C 0.31826 0.74686 0.3173 0.0
C1051 C 0.23825 0.76499 0.01287 0.0
C1052 C 0.25374 0.74811 0.98219 0.0
C1053 C 0.23751 0.76674 0.08224 0.0
C1054 C 0.25237 0.75177 0.12145 0.0
C1055 C 0.26848 0.73574 0.09025 0.0
C1056 C 0.2691 0.73389 0.02172 0.0
C1057 C 0.25152 0.75225 0.19495 0.0
C1058 C 0.27332 0.75586 0.22968 0.0
C1059 C 0.22997 0.74799 0.23093 0.0
C1060 C 0.20636 0.74323 0.19809 0.0
C1061 C 0.20372 0.72384 0.15328 0.0
C1062 C 0.18117 0.71907 0.12421 0.0
C1063 C 0.1611 0.73347 0.13995 0.0
C1064 C 0.16353 0.75267 0.18478 0.0
C1065 C 0.18604 0.75754 0.21388 0.0
H1066 H 0.14365 0.72969 0.11759 0.0
H1067 H 0.35967 0.77562 0.4148 0.0
H1068 H 0.47979 0.99027 0.78327 0.0
H1069 H 0.47638 0.98424 0.6628 0.0
H1070 H 0.52857 0.0415 0.63335 0.0
H1071 H 0.52961 0.04931 0.74982 0.0
H1072 H 0.5003 0.04589 0.54579 0.0
H1073 H 0.53841 0.9704 0.63144 0.0
H1074 H 0.53858 0.93147 0.6911 0.0
H1075 H 0.47563 0.90832 0.58253 0.0
H1076 H 0.47496 0.94714 0.52289 0.0
H1077 H 0.53855 0.02376 0.21565 0.0
H1078 H 0.54245 0.02421 0.33724 0.0
H1079 H 0.48213 0.97468 0.35095 0.0
H1080 H 0.47888 0.97363 0.23156 0.0
H1081 H 0.51202 0.96494 0.44419 0.0
H1082 H 0.47938 0.03832 0.3473 0.0
H1083 H 0.48065 0.07643 0.2848 0.0
H1084 H 0.5332 0.10519 0.42117 0.0
H1085 H 0.5341 0.06654 0.4802 0.0
C1086 C 0.48968 1.00213 0.75055 0.0
C1087 C 0.50502 0.02021 0.77649 0.0
C1088 C 0.48827 0.99826 0.68168 0.0
C1089 C 0.50276 0.01192 0.63819 0.0
C1090 C 0.51707 0.03061 0.6647 0.0
C1091 C 0.51769 0.03506 0.73214 0.0
C1092 C 0.50358 0.00768 0.56509 0.0
C1093 C 0.5034 0.02814 0.52406 0.0
C1094 C 0.50647 0.98452 0.53536 0.0
C1095 C 0.50644 0.96175 0.57349 0.0
C1096 C 0.52447 0.95709 0.62091 0.0
C1097 C 0.5247 0.93502 0.65452 0.0
C1098 C 0.50711 0.91747 0.6407 0.0
C1099 C 0.48921 0.92194 0.59334 0.0
C1100 C 0.48889 0.94396 0.5597 0.0
C1101 C 0.52684 0.01233 0.24493 0.0
C1102 C 0.50834 0.99876 0.21466 0.0
C1103 C 0.52884 0.01278 0.31424 0.0
C1104 C 0.51218 0.99987 0.35343 0.0
C1105 C 0.49513 0.98485 0.32227 0.0
C1106 C 0.49325 0.98431 0.25386 0.0
C1107 C 0.51044 0.00332 0.42626 0.0
C1108 C 0.50972 0.98271 0.4666 0.0
C1109 C 0.50708 0.02641 0.45569 0.0
C1110 C 0.50716 0.04926 0.41747 0.0
C1111 C 0.49171 0.05252 0.36285 0.0
C1112 C 0.49214 0.07423 0.32774 0.0
C1113 C 0.50719 0.09317 0.34839 0.0
C1114 C 0.5219 0.09041 0.40408 0.0
C1115 C 0.5222 0.06848 0.43788 0.0
H1116 H 0.50727 0.11004 0.3215 0.0
H1117 H 0.50738 0.90037 0.66659 0.0
H1118 H 0.27886 0.27101 0.02351 0.0
H1119 H 0.28202 0.27253 0.90294 0.0
H1120 H 0.2182 0.22779 0.88523 0.0
H1121 H 0.21448 0.22711 0.00624 0.0
H1122 H 0.25739 0.21562 0.79746 0.0
H1123 H 0.20991 0.284 0.86787 0.0
H1124 H 0.19895 0.32216 0.92439 0.0
H1125 H 0.25999 0.35766 0.83632 0.0
H1126 H 0.27165 0.31958 0.78054 0.0
H1127 H 0.22373 0.23807 0.46657 0.0
H1128 H 0.22119 0.23754 0.58731 0.0
H1129 H 0.2839 0.28402 0.59974 0.0
H1130 H 0.28685 0.28395 0.47861 0.0
H1131 H 0.24633 0.29552 0.6904 0.0
H1132 H 0.29329 0.22766 0.61775 0.0
H1133 H 0.30417 0.18977 0.55985 0.0
H1134 H 0.2444 0.15333 0.65137 0.0
H1135 H 0.23287 0.19113 0.70888 0.0
C1136 C 0.26615 0.26064 0.99375 0.0
C1137 C 0.24685 0.24831 0.02362 0.0
C1138 C 0.26769 0.26193 0.92511 0.0
C1139 C 0.25013 0.25057 0.88553 0.0
C1140 C 0.23183 0.23675 0.91526 0.0
C1141 C 0.22994 0.23599 0.98407 0.0
C1142 C 0.25055 0.25355 0.81313 0.0
C1143 C 0.25463 0.23301 0.77385 0.0
C1144 C 0.24769 0.27646 0.78293 0.0
C1145 C 0.24191 0.29878 0.82099 0.0
C1146 C 0.22133 0.29978 0.86178 0.0
C1147 C 0.21491 0.32145 0.89342 0.0
C1148 C 0.22886 0.34229 0.88434 0.0
C1149 C 0.24931 0.34147 0.84379 0.0
C1150 C 0.25585 0.31984 0.81225 0.0
C1151 C 0.23625 0.24909 0.49516 0.0
C1152 C 0.25507 0.26167 0.46377 0.0
C1153 C 0.23509 0.24836 0.56394 0.0
C1154 C 0.25263 0.26038 0.60214 0.0
C1155 C 0.27029 0.27454 0.57084 0.0
C1156 C 0.27173 0.27489 0.5019 0.0
C1157 C 0.25295 0.25755 0.67463 0.0
C1158 C 0.2491 0.27813 0.71397 0.0
C1159 C 0.25606 0.23468 0.70489 0.0
C1160 C 0.26195 0.21239 0.66674 0.0
C1161 C 0.28216 0.21172 0.62451 0.0
C1162 C 0.28853 0.19021 0.59203 0.0
C1163 C 0.27493 0.16918 0.6017 0.0
C1164 C 0.25487 0.16965 0.64369 0.0
C1165 C 0.24839 0.19112 0.67616 0.0
H1166 H 0.27999 0.15251 0.57686 0.0
H1167 H 0.22375 0.35909 0.90844 0.0
H1168 H 0.79588 0.23416 0.02749 0.0
H1169 H 0.79214 0.23176 0.90696 0.0
H1170 H 0.71768 0.2555 0.92106 0.0
H1171 H 0.72115 0.2565 0.04149 0.0
H1172 H 0.72136 0.22724 0.82042 0.0
H1173 H 0.76792 0.29651 0.89596 0.0
H1174 H 0.80147 0.31768 0.95291 0.0
H1175 H 0.8533 0.27808 0.83651 0.0
H1176 H 0.82004 0.25661 0.77915 0.0
H1177 H 0.70771 0.27476 0.50164 0.0
H1178 H 0.71148 0.27301 0.622 0.0
H1179 H 0.78625 0.25092 0.60174 0.0
H1180 H 0.78274 0.25402 0.48165 0.0
H1181 H 0.78293 0.27681 0.70514 0.0
H1182 H 0.73537 0.20804 0.62773 0.0
H1183 H 0.70129 0.18648 0.57419 0.0
H1184 H 0.65062 0.22571 0.69519 0.0
H1185 H 0.68439 0.24748 0.74933 0.0
C1186 C 0.77841 0.23758 0.00476 0.0
C1187 C 0.75866 0.245 0.04348 0.0
C1188 C 0.7764 0.23677 0.93587 0.0
C1189 C 0.75488 0.24428 0.90458 0.0
C1190 C 0.73454 0.24975 0.94373 0.0
C1191 C 0.73641 0.25004 0.01265 0.0
C1192 C 0.75397 0.24824 0.83181 0.0
C1193 C 0.73472 0.23827 0.79534 0.0
C1194 C 0.77157 0.26229 0.79846 0.0
C1195 C 0.79154 0.27482 0.83379 0.0
C1196 C 0.78649 0.29221 0.88291 0.0
C1197 C 0.80544 0.30429 0.91514 0.0
C1198 C 0.8295 0.29919 0.89844 0.0
C1199 C 0.83466 0.282 0.84944 0.0
C1200 C 0.81578 0.2699 0.81701 0.0
C1201 C 0.72525 0.27075 0.52324 0.0
C1202 C 0.74508 0.26507 0.48252 0.0
C1203 C 0.72724 0.26908 0.59197 0.0
C1204 C 0.74889 0.26091 0.62119 0.0
C1205 C 0.76926 0.25707 0.58066 0.0
C1206 C 0.7674 0.25927 0.51196 0.0
C1207 C 0.75027 0.25585 0.69347 0.0
C1208 C 0.76962 0.26566 0.72996 0.0
C1209 C 0.73266 0.24175 0.72685 0.0
C1210 C 0.71237 0.22954 0.692 0.0
C1211 C 0.71694 0.21223 0.64234 0.0
C1212 C 0.69769 0.19991 0.61212 0.0
C1213 C 0.67381 0.20476 0.63116 0.0
C1214 C 0.66912 0.22198 0.68042 0.0
C1215 C 0.68829 0.23428 0.71095 0.0
H1216 H 0.65894 0.19515 0.60786 0.0
H1217 H 0.84415 0.30859 0.92337 0.0
H1218 H 0.72381 0.72002 0.51015 0.0
H1219 H 0.72935 0.7195 0.38918 0.0
H1220 H 0.77155 0.78516 0.40297 0.0
H1221 H 0.76643 0.78539 0.52273 0.0
H1222 H 0.73475 0.78884 0.31139 0.0
H1223 H 0.79993 0.73603 0.36624 0.0
H1224 H 0.82022 0.70114 0.41808 0.0
H1225 H 0.77476 0.65228 0.3079 0.0
H1226 H 0.7539 0.68693 0.25614 0.0
H1227 H 0.78071 0.78384 0.97125 0.0
H1228 H 0.77899 0.78647 0.09308 0.0
H1229 H 0.72659 0.72851 0.09534 0.0
H1230 H 0.72759 0.72649 0.97507 0.0
H1231 H 0.77075 0.72217 0.17823 0.0
H1232 H 0.70848 0.77911 0.11496 0.0
H1233 H 0.69869 0.81494 0.04851 0.0
H1234 H 0.74262 0.85927 0.17598 0.0
H1235 H 0.75515 0.82311 0.23849 0.0
C1236 C 0.73484 0.73381 0.48717 0.0
C1237 C 0.74498 0.75254 0.52517 0.0
C1238 C 0.73783 0.73368 0.41835 0.0
C1239 C 0.75067 0.75247 0.38725 0.0
C1240 C 0.76145 0.77064 0.42586 0.0
C1241 C 0.75874 0.77058 0.49418 0.0
C1242 C 0.75224 0.75382 0.31435 0.0
C1243 C 0.74277 0.77434 0.28229 0.0
C1244 C 0.76283 0.735 0.27656 0.0
C1245 C 0.77513 0.71408 0.30796 0.0
C1246 C 0.79406 0.71785 0.35362 0.0
C1247 C 0.80571 0.69812 0.38286 0.0
C1248 C 0.79873 0.67451 0.36646 0.0
C1249 C 0.78011 0.67058 0.32067 0.0
C1250 C 0.76836 0.69026 0.29135 0.0
C1251 C 0.76814 0.77248 -0.00204 0.0
C1252 C 0.75403 0.75521 0.96438 0.0
C1253 C 0.76754 0.7736 0.0672 0.0
C1254 C 0.75308 0.75724 0.10273 0.0
C1255 C 0.73813 0.74095 0.06871 0.0
C1256 C 0.73839 0.74015 0.00018 0.0
C1257 C 0.75303 0.75694 0.17559 0.0
C1258 C 0.76271 0.73661 0.20751 0.0
C1259 C 0.74298 0.77612 0.21311 0.0
C1260 C 0.73322 0.79821 0.1807 0.0
C1261 C 0.71644 0.79638 0.12831 0.0
C1262 C 0.71055 0.81674 0.09092 0.0
C1263 C 0.71987 0.8394 0.10826 0.0
C1264 C 0.73542 0.84167 0.16255 0.0
C1265 C 0.74225 0.82116 0.19837 0.0
H1266 H 0.71501 0.85519 0.07969 0.0
H1267 H 0.8078 0.65925 0.38908 0.0
H1268 H 0.47356 0.47897 0.78457 0.0
H1269 H 0.46891 0.48295 0.6638 0.0
H1270 H 0.52955 0.53246 0.66105 0.0
H1271 H 0.53311 0.52954 0.78001 0.0
H1272 H 0.50053 0.5463 0.57485 0.0
H1273 H 0.53338 0.46676 0.63158 0.0
H1274 H 0.53204 0.42612 0.68166 0.0
H1275 H 0.4678 0.40926 0.57013 0.0
H1276 H 0.46869 0.44988 0.51985 0.0
H1277 H 0.54303 0.53847 0.24777 0.0
H1278 H 0.54172 0.53427 0.36846 0.0
H1279 H 0.48298 0.48296 0.3482 0.0
H1280 H 0.48597 0.48557 0.22857 0.0
H1281 H 0.50666 0.47004 0.44527 0.0
H1282 H 0.47613 0.55048 0.38436 0.0
H1283 H 0.47874 0.59157 0.33729 0.0
H1284 H 0.54096 0.60687 0.45856 0.0
H1285 H 0.53871 0.5659 0.50618 0.0
C1286 C 0.48513 0.49137 0.75797 0.0
C1287 C 0.50362 0.50403 0.79102 0.0
C1288 C 0.48281 0.49334 0.68903 0.0
C1289 C 0.49931 0.50755 0.65285 0.0
C1290 C 0.51659 0.52136 0.68724 0.0
C1291 C 0.51862 0.51972 0.7554 0.0
C1292 C 0.50013 0.50732 0.57935 0.0
C1293 C 0.50195 0.52957 0.54659 0.0
C1294 C 0.5016 0.48562 0.54187 0.0
C1295 C 0.50093 0.46139 0.5727 0.0
C1296 C 0.51889 0.45442 0.61819 0.0
C1297 C 0.51823 0.4314 0.64649 0.0
C1298 C 0.4998 0.41515 0.62927 0.0
C1299 C 0.48202 0.42188 0.58357 0.0
C1300 C 0.4826 0.44488 0.55515 0.0
C1301 C 0.5307 0.52552 0.26947 0.0
C1302 C 0.51502 0.5119 0.22931 0.0
C1303 C 0.52945 0.52356 0.33839 0.0
C1304 C 0.51162 0.50893 0.36795 0.0
C1305 C 0.49688 0.49441 0.3272 0.0
C1306 C 0.49873 0.49572 0.25867 0.0
C1307 C 0.50757 0.50907 0.44077 0.0
C1308 C 0.50503 0.48679 0.47329 0.0
C1309 C 0.50572 0.53078 0.47825 0.0
C1310 C 0.50736 0.55512 0.44828 0.0
C1311 C 0.49045 0.56258 0.40055 0.0
C1312 C 0.49183 0.58585 0.37394 0.0
C1313 C 0.51003 0.6018 0.39481 0.0
C1314 C 0.52688 0.59452 0.44239 0.0
C1315 C 0.52553 0.5713 0.46927 0.0
H1316 H 0.51105 0.61981 0.3742 0.0
H1317 H 0.49933 0.39733 0.65119 0.0
H1318 H 0.00669 0.45748 0.73899 0.0
H1319 H 0.00777 0.46395 0.8583 0.0
H1320 H 0.01941 0.54036 0.82848 0.0
H1321 H 0.01841 0.5339 0.70814 0.0
H1322 H 0.04543 0.52163 0.9359 0.0
H1323 H 0.96302 0.52229 0.85875 0.0
H1324 H 0.92636 0.5075 0.80129 0.0
H1325 H 0.92759 0.44267 0.91739 0.0
H1326 H 0.96438 0.457 0.97517 0.0
H1327 H 0.01051 0.55712 0.25566 0.0
H1328 H 0.01041 0.55298 0.13552 0.0
H1329 H 0.99393 0.47692 0.1536 0.0
H1330 H 0.99386 0.48108 0.2745 0.0
H1331 H 0.97014 0.4968 0.051 0.0
H1332 H 0.05269 0.49519 0.1265 0.0
H1333 H 0.09012 0.50884 0.18232 0.0
H1334 H 0.08936 0.57438 0.06918 0.0
H1335 H 0.05182 0.56118 0.01301 0.0
C1336 C 0.01031 0.47555 0.75784 0.0
C1337 C 0.01249 0.49519 0.71439 0.0
C1338 C 0.0106 0.47926 0.826 0.0
C1339 C 0.01295 0.50271 0.85217 0.0
C1340 C 0.01732 0.52213 0.80914 0.0
C1341 C 0.01708 0.5184 0.74049 0.0
C1342 C 0.00963 0.50683 0.92414 0.0
C1343 C 0.02883 0.51661 0.96099 0.0
C1344 C 0.98818 0.49966 0.95706 0.0
C1345 C 0.96659 0.49061 0.92076 0.0
C1346 C 0.95564 0.50476 0.87147 0.0
C1347 C 0.93478 0.4965 0.83902 0.0
C1348 C 0.92469 0.47414 0.85557 0.0
C1349 C 0.93544 0.45997 0.90456 0.0
C1350 C 0.95628 0.46817 0.93722 0.0
C1351 C 0.00606 0.53967 0.23394 0.0
C1352 C 1.00205 0.51944 0.27435 0.0
C1353 C 0.00641 0.53726 0.16532 0.0
C1354 C 1.0029 0.51451 0.1356 0.0
C1355 C 0.99693 0.49462 0.17557 0.0
C1356 C 0.99652 0.49706 0.24458 0.0
C1357 C 0.00601 0.51149 0.06308 0.0
C1358 C 0.98674 0.50193 0.02604 0.0
C1359 C 0.02745 0.51878 0.03007 0.0
C1360 C 0.04928 0.52733 0.0662 0.0
C1361 C 0.06032 0.51266 0.1142 0.0
C1362 C 0.08162 0.52027 0.14567 0.0
C1363 C 0.09207 0.5425 0.12945 0.0
C1364 C 0.08122 0.55719 0.08179 0.0
C1365 C 0.05995 0.54965 0.0501 0.0
H1366 H 0.10861 0.54831 0.15367 0.0
H1367 H 0.9085 0.46781 0.83053 0.0
loop_
_geom_bond_atom_site_label_1
_geom_bond_atom_site_label_2
_geom_bond_distance
_geom_bond_site_symmetry_2
_ccdc_geom_bond_type
O0 Mn1 2.163 1_665 S
O0 C14 1.244 . S
Mn1 O0 2.163 1_445 S
Mn1 O4 2.160 . S
Mn1 O5 2.221 1_545 S
Mn1 O7 2.163 1_455 S
Mn1 O9 2.160 . S
Mn1 O19 2.221 1_455 S
O2 Mn3 2.087 1_565 S
O2 C14 1.256 . S
Mn3 O2 2.087 1_545 S
Mn3 O10 2.089 . S
Mn3 O19 2.290 . S
Mn3 O20 2.251 . S
O4 Mn1 2.160 . S
O4 C15 1.239 . S
O5 Mn1 2.221 1_565 S
O5 Mn6 2.290 . S
O5 C16 1.278 . S
Mn6 O5 2.290 . S
Mn6 O8 2.089 1_565 S
Mn6 O11 2.251 . S
Mn6 O12 2.087 . S
O7 Mn1 2.163 1_655 S
O7 C17 1.244 1_645 S
O8 Mn6 2.089 1_545 S
O8 C15 1.256 . S
O9 Mn1 2.160 . S
O9 C18 1.239 1_455 S
O10 Mn3 2.089 . S
O10 C18 1.256 . S
O11 Mn6 2.251 . S
O11 C16 1.241 . S
O12 Mn6 2.087 . S
O12 C17 1.256 . S
C13 O19 1.278 . S
C13 O20 1.241 . S
C14 O0 1.244 . S
C14 O2 1.256 . S
C15 O4 1.239 . S
C15 O8 1.256 . S
C16 O5 1.278 . S
C16 O11 1.241 . S
C17 O7 1.244 1_465 S
C17 O12 1.256 . S
C18 O9 1.239 1_655 S
C18 O10 1.256 . S
O19 Mn1 2.221 1_655 S
O19 Mn3 2.290 . S
O19 C13 1.278 . S
O20 Mn3 2.251 . S
O20 C13 1.241 . S
O21 Mn22 2.163 . S
O21 C35 1.244 . S
Mn22 O21 2.163 . S
Mn22 O25 2.160 . S
Mn22 O26 2.221 . S
Mn22 O28 2.163 . S
Mn22 O30 2.160 . S
Mn22 O40 2.221 . S
O23 Mn24 2.087 . S
O23 C35 1.256 . S
Mn24 O23 2.087 . S
Mn24 O31 2.089 . S
Mn24 O40 2.290 . S
Mn24 O41 2.251 . S
O25 Mn22 2.160 . S
O25 C36 1.239 . S
O26 Mn22 2.221 . S
O26 Mn27 2.290 . S
O26 C37 1.278 . S
Mn27 O26 2.290 . S
Mn27 O29 2.089 . S
Mn27 O32 2.251 . S
Mn27 O33 2.087 . S
O28 Mn22 2.163 . S
O28 C38 1.244 . S
O29 Mn27 2.089 . S
O29 C36 1.256 . S
O30 Mn22 2.160 . S
O30 C39 1.239 . S
O31 Mn24 2.089 . S
O31 C39 1.256 . S
O32 Mn27 2.251 . S
O32 C37 1.241 . S
O33 Mn27 2.087 . S
O33 C38 1.256 . S
C34 O40 1.278 . S
C34 O41 1.241 . S
C35 O21 1.244 . S
C35 O23 1.256 . S
C36 O25 1.239 . S
C36 O29 1.256 . S
C37 O26 1.278 . S
C37 O32 1.241 . S
C38 O28 1.244 . S
C38 O33 1.256 . S
C39 O30 1.239 . S
C39 O31 1.256 . S
O40 Mn22 2.221 . S
O40 Mn24 2.290 . S
O40 C34 1.278 . S
O41 Mn24 2.251 . S
O41 C34 1.241 . S
O42 Mn43 2.163 1_565 S
O42 C56 1.244 . S
Mn43 O42 2.163 1_545 S
Mn43 O46 2.160 1_556 S
Mn43 O47 2.221 1_545 S
Mn43 O49 2.163 1_556 S
Mn43 O51 2.160 . S
Mn43 O61 2.221 . S
O44 Mn45 2.087 1_565 S
O44 C56 1.256 . S
Mn45 O44 2.087 1_545 S
Mn45 O52 2.089 . S
Mn45 O61 2.290 . S
Mn45 O62 2.251 1_556 S
O46 Mn43 2.160 1_554 S
O46 C57 1.239 . S
O47 Mn43 2.221 1_565 S
O47 Mn48 2.290 1_556 S
O47 C58 1.278 . S
Mn48 O47 2.290 1_554 S
Mn48 O50 2.089 1_565 S
Mn48 O53 2.251 . S
Mn48 O54 2.087 . S
O49 Mn43 2.163 1_554 S
O49 C59 1.244 1_545 S
O50 Mn48 2.089 1_545 S
O50 C57 1.256 . S
O51 Mn43 2.160 . S
O51 C60 1.239 . S
O52 Mn45 2.089 . S
O52 C60 1.256 . S
O53 Mn48 2.251 . S
O53 C58 1.241 1_554 S
O54 Mn48 2.087 . S
O54 C59 1.256 . S
C55 O61 1.278 1_554 S
C55 O62 1.241 . S
C56 O42 1.244 . S
C56 O44 1.256 . S
C57 O46 1.239 . S
C57 O50 1.256 . S
C58 O47 1.278 . S
C58 O53 1.241 1_556 S
C59 O49 1.244 1_565 S
C59 O54 1.256 . S
C60 O51 1.239 . S
C60 O52 1.256 . S
O61 Mn43 2.221 . S
O61 Mn45 2.290 . S
O61 C55 1.278 1_556 S
O62 Mn45 2.251 1_554 S
O62 C55 1.241 . S
O63 Mn64 2.163 . S
O63 C77 1.244 . S
Mn64 O63 2.163 . S
Mn64 O67 2.160 . S
Mn64 O68 2.221 . S
Mn64 O70 2.163 . S
Mn64 O72 2.160 . S
Mn64 O82 2.221 . S
O65 Mn66 2.087 . S
O65 C77 1.256 . S
Mn66 O65 2.087 . S
Mn66 O73 2.089 . S
Mn66 O82 2.290 . S
Mn66 O83 2.251 . S
O67 Mn64 2.160 . S
O67 C78 1.239 . S
O68 Mn64 2.221 . S
O68 Mn69 2.290 . S
O68 C79 1.278 . S
Mn69 O68 2.290 . S
Mn69 O71 2.089 . S
Mn69 O74 2.251 . S
Mn69 O75 2.087 . S
O70 Mn64 2.163 . S
O70 C80 1.244 . S
O71 Mn69 2.089 . S
O71 C78 1.256 . S
O72 Mn64 2.160 . S
O72 C81 1.239 . S
O73 Mn66 2.089 . S
O73 C81 1.256 . S
O74 Mn69 2.251 . S
O74 C79 1.241 . S
O75 Mn69 2.087 . S
O75 C80 1.256 . S
C76 O82 1.278 . S
C76 O83 1.241 . S
C77 O63 1.244 . S
C77 O65 1.256 . S
C78 O67 1.239 . S
C78 O71 1.256 . S
C79 O68 1.278 . S
C79 O74 1.241 . S
C80 O70 1.244 . S
C80 O75 1.256 . S
C81 O72 1.239 . S
C81 O73 1.256 . S
O82 Mn64 2.221 . S
O82 Mn66 2.290 . S
O82 C76 1.278 . S
O83 Mn66 2.251 . S
O83 C76 1.241 . S
O84 Mn85 2.163 . S
O84 C98 1.244 . S
Mn85 O84 2.163 . S
Mn85 O88 2.160 . S
Mn85 O89 2.221 . S
Mn85 O91 2.163 . S
Mn85 O93 2.160 . S
Mn85 O103 2.221 . S
O86 Mn87 2.087 . S
O86 C98 1.256 . S
Mn87 O86 2.087 . S
Mn87 O94 2.089 . S
Mn87 O103 2.290 . S
Mn87 O104 2.251 . S
O88 Mn85 2.160 . S
O88 C99 1.239 . S
O89 Mn85 2.221 . S
O89 Mn90 2.290 . S
O89 C100 1.278 . S
Mn90 O89 2.290 . S
Mn90 O92 2.089 . S
Mn90 O95 2.251 . S
Mn90 O96 2.087 . S
O91 Mn85 2.163 . S
O91 C101 1.244 . S
O92 Mn90 2.089 . S
O92 C99 1.256 . S
O93 Mn85 2.160 . S
O93 C102 1.239 . S
O94 Mn87 2.089 . S
O94 C102 1.256 . S
O95 Mn90 2.251 . S
O95 C100 1.241 . S
O96 Mn90 2.087 . S
O96 C101 1.256 . S
C97 O103 1.278 . S
C97 O104 1.241 . S
C98 O84 1.244 . S
C98 O86 1.256 . S
C99 O88 1.239 . S
C99 O92 1.256 . S
C100 O89 1.278 . S
C100 O95 1.241 . S
C101 O91 1.244 . S
C101 O96 1.256 . S
C102 O93 1.239 . S
C102 O94 1.256 . S
O103 Mn85 2.221 . S
O103 Mn87 2.290 . S
O103 C97 1.278 . S
O104 Mn87 2.251 . S
O104 C97 1.241 . S
O105 Mn106 2.163 . S
O105 C119 1.244 . S
Mn106 O105 2.163 . S
Mn106 O109 2.160 . S
Mn106 O110 2.221 . S
Mn106 O112 2.163 . S
Mn106 O114 2.160 . S
Mn106 O124 2.221 . S
O107 Mn108 2.087 . S
O107 C119 1.256 . S
Mn108 O107 2.087 . S
Mn108 O115 2.089 . S
Mn108 O124 2.290 . S
Mn108 O125 2.251 . S
O109 Mn106 2.160 . S
O109 C120 1.239 . S
O110 Mn106 2.221 . S
O110 Mn111 2.290 . S
O110 C121 1.278 . S
Mn111 O110 2.290 . S
Mn111 O113 2.089 . S
Mn111 O116 2.251 . S
Mn111 O117 2.087 . S
O112 Mn106 2.163 . S
O112 C122 1.244 . S
O113 Mn111 2.089 . S
O113 C120 1.256 . S
O114 Mn106 2.160 . S
O114 C123 1.239 . S
O115 Mn108 2.089 . S
O115 C123 1.256 . S
O116 Mn111 2.251 . S
O116 C121 1.241 . S
O117 Mn111 2.087 . S
O117 C122 1.256 . S
C118 O124 1.278 . S
C118 O125 1.241 . S
C119 O105 1.244 . S
C119 O107 1.256 . S
C120 O109 1.239 . S
C120 O113 1.256 . S
C121 O110 1.278 . S
C121 O116 1.241 . S
C122 O112 1.244 . S
C122 O117 1.256 . S
C123 O114 1.239 . S
C123 O115 1.256 . S
O124 Mn106 2.221 . S
O124 Mn108 2.290 . S
O124 C118 1.278 . S
O125 Mn108 2.251 . S
O125 C118 1.241 . S
O126 Mn127 2.163 . S
O126 C140 1.244 . S
Mn127 O126 2.163 . S
Mn127 O130 2.160 . S
Mn127 O131 2.221 . S
Mn127 O133 2.163 1_554 S
Mn127 O135 2.160 . S
Mn127 O145 2.221 . S
O128 Mn129 2.087 . S
O128 C140 1.256 . S
Mn129 O128 2.087 . S
Mn129 O136 2.089 . S
Mn129 O145 2.290 . S
Mn129 O146 2.251 . S
O130 Mn127 2.160 . S
O130 C141 1.239 1_554 S
O131 Mn127 2.221 . S
O131 Mn132 2.290 1_554 S
O131 C142 1.278 . S
Mn132 O131 2.290 1_556 S
Mn132 O134 2.089 . S
Mn132 O137 2.251 . S
Mn132 O138 2.087 . S
O133 Mn127 2.163 1_556 S
O133 C143 1.244 . S
O134 Mn132 2.089 . S
O134 C141 1.256 . S
O135 Mn127 2.160 . S
O135 C144 1.239 . S
O136 Mn129 2.089 . S
O136 C144 1.256 . S
O137 Mn132 2.251 . S
O137 C142 1.241 1_556 S
O138 Mn132 2.087 . S
O138 C143 1.256 . S
C139 O145 1.278 1_556 S
C139 O146 1.241 1_556 S
C140 O126 1.244 . S
C140 O128 1.256 . S
C141 O130 1.239 1_556 S
C141 O134 1.256 . S
C142 O131 1.278 . S
C142 O137 1.241 1_554 S
C143 O133 1.244 . S
C143 O138 1.256 . S
C144 O135 1.239 . S
C144 O136 1.256 . S
O145 Mn127 2.221 . S
O145 Mn129 2.290 . S
O145 C139 1.278 1_554 S
O146 Mn129 2.251 . S
O146 C139 1.241 1_554 S
O147 Mn148 2.163 . S
O147 C161 1.244 . S
Mn148 O147 2.163 . S
Mn148 O151 2.160 1_455 S
Mn148 O152 2.221 1_455 S
Mn148 O154 2.163 . S
Mn148 O156 2.160 1_455 S
Mn148 O166 2.221 . S
O149 Mn150 2.087 . S
O149 C161 1.256 . S
Mn150 O149 2.087 . S
Mn150 O157 2.089 . S
Mn150 O166 2.290 . S
Mn150 O167 2.251 . S
O151 Mn148 2.160 1_655 S
O151 C162 1.239 . S
O152 Mn148 2.221 1_655 S
O152 Mn153 2.290 . S
O152 C163 1.278 . S
Mn153 O152 2.290 . S
Mn153 O155 2.089 . S
Mn153 O158 2.251 . S
Mn153 O159 2.087 . S
O154 Mn148 2.163 . S
O154 C164 1.244 1_455 S
O155 Mn153 2.089 . S
O155 C162 1.256 . S
O156 Mn148 2.160 1_655 S
O156 C165 1.239 1_655 S
O157 Mn150 2.089 . S
O157 C165 1.256 . S
O158 Mn153 2.251 . S
O158 C163 1.241 . S
O159 Mn153 2.087 . S
O159 C164 1.256 . S
C160 O166 1.278 . S
C160 O167 1.241 . S
C161 O147 1.244 . S
C161 O149 1.256 . S
C162 O151 1.239 . S
C162 O155 1.256 . S
C163 O152 1.278 . S
C163 O158 1.241 . S
C164 O154 1.244 1_655 S
C164 O159 1.256 . S
C165 O156 1.239 1_455 S
C165 O157 1.256 . S
O166 Mn148 2.221 . S
O166 Mn150 2.290 . S
O166 C160 1.278 . S
O167 Mn150 2.251 . S
O167 C160 1.241 . S
H168 C186 0.951 . S
H169 C188 0.951 . S
H170 C190 0.950 . S
H171 C191 0.950 . S
H172 C193 0.950 . S
H173 C196 0.950 . S
H174 C197 0.950 . S
H175 C199 0.950 . S
H176 C200 0.950 . S
H177 C201 0.951 . S
H178 C203 0.951 . S
H179 C205 0.950 . S
H180 C206 0.950 . S
H181 C208 0.950 . S
H182 C211 0.950 . S
H183 C212 0.950 . S
H184 C214 0.950 . S
H185 C215 0.950 . S
C186 H168 0.951 . S
C186 C187 1.366 . S
C186 C188 1.388 . S
C187 C186 1.366 . S
C187 C191 1.385 . S
C188 H169 0.951 . S
C188 C186 1.388 . S
C188 C189 1.366 . S
C189 C188 1.366 . S
C189 C190 1.414 . S
C189 C192 1.499 . S
C190 H170 0.950 . S
C190 C189 1.414 . S
C190 C191 1.374 . S
C191 H171 0.950 . S
C191 C187 1.385 . S
C191 C190 1.374 . S
C192 C189 1.499 . S
C192 C193 1.373 . S
C192 C194 1.389 . S
C193 H172 0.950 . S
C193 C192 1.373 . S
C193 C209 1.377 . S
C194 C192 1.389 . S
C194 C195 1.524 . S
C194 C208 1.377 . S
C195 C194 1.524 . S
C195 C196 1.397 . S
C195 C200 1.363 . S
C196 H173 0.950 . S
C196 C195 1.397 . S
C196 C197 1.334 . S
C197 H174 0.950 . S
C197 C196 1.334 . S
C197 C198 1.287 . S
C198 C197 1.287 . S
C198 C199 1.524 . S
C198 H217 0.913 . S
C199 H175 0.950 . S
C199 C198 1.524 . S
C199 C200 1.415 . S
C200 H176 0.950 . S
C200 C195 1.363 . S
C200 C199 1.415 . S
C201 H177 0.951 . S
C201 C202 1.366 . S
C201 C203 1.388 . S
C202 C201 1.366 . S
C202 C206 1.385 . S
C203 H178 0.951 . S
C203 C201 1.388 . S
C203 C204 1.366 . S
C204 C203 1.366 . S
C204 C205 1.414 . S
C204 C207 1.499 . S
C205 H179 0.950 . S
C205 C204 1.414 . S
C205 C206 1.374 . S
C206 H180 0.950 . S
C206 C202 1.385 . S
C206 C205 1.374 . S
C207 C204 1.499 . S
C207 C208 1.373 . S
C207 C209 1.389 . S
C208 H181 0.950 . S
C208 C194 1.377 . S
C208 C207 1.373 . S
C209 C193 1.377 . S
C209 C207 1.389 . S
C209 C210 1.524 . S
C210 C209 1.524 . S
C210 C211 1.397 . S
C210 C215 1.363 . S
C211 H182 0.950 . S
C211 C210 1.397 . S
C211 C212 1.334 . S
C212 H183 0.950 . S
C212 C211 1.334 . S
C212 C213 1.287 . S
C213 C212 1.287 . S
C213 C214 1.524 . S
C213 H216 0.999 . S
C214 H184 0.950 . S
C214 C213 1.524 . S
C214 C215 1.415 . S
C215 H185 0.950 . S
C215 C210 1.363 . S
C215 C214 1.415 . S
H216 C213 0.999 . S
H217 C198 0.913 . S
H218 C236 0.951 . S
H219 C238 0.951 . S
H220 C240 0.950 . S
H221 C241 0.950 . S
H222 C243 0.950 . S
H223 C246 0.950 . S
H224 C247 0.950 . S
H225 C249 0.950 . S
H226 C250 0.950 . S
H227 C251 0.951 . S
H228 C253 0.951 . S
H229 C255 0.950 . S
H230 C256 0.950 . S
H231 C258 0.950 . S
H232 C261 0.950 . S
H233 C262 0.950 . S
H234 C264 0.950 . S
H235 C265 0.950 . S
C236 H218 0.951 . S
C236 C237 1.366 . S
C236 C238 1.388 . S
C237 C236 1.366 . S
C237 C241 1.385 . S
C238 H219 0.951 . S
C238 C236 1.388 . S
C238 C239 1.366 . S
C239 C238 1.366 . S
C239 C240 1.414 . S
C239 C242 1.499 . S
C240 H220 0.950 . S
C240 C239 1.414 . S
C240 C241 1.374 . S
C241 H221 0.950 . S
C241 C237 1.385 . S
C241 C240 1.374 . S
C242 C239 1.499 . S
C242 C243 1.373 . S
C242 C244 1.389 . S
C243 H222 0.950 . S
C243 C242 1.373 . S
C243 C259 1.377 . S
C244 C242 1.389 . S
C244 C245 1.524 . S
C244 C258 1.377 . S
C245 C244 1.524 . S
C245 C246 1.397 . S
C245 C250 1.363 . S
C246 H223 0.950 . S
C246 C245 1.397 . S
C246 C247 1.334 . S
C247 H224 0.950 . S
C247 C246 1.334 . S
C247 C248 1.287 . S
C248 C247 1.287 . S
C248 C249 1.524 . S
C248 H267 0.913 . S
C249 H225 0.950 . S
C249 C248 1.524 . S
C249 C250 1.415 . S
C250 H226 0.950 . S
C250 C245 1.363 . S
C250 C249 1.415 . S
C251 H227 0.951 . S
C251 C252 1.366 . S
C251 C253 1.388 . S
C252 C251 1.366 . S
C252 C256 1.385 . S
C253 H228 0.951 . S
C253 C251 1.388 . S
C253 C254 1.366 . S
C254 C253 1.366 . S
C254 C255 1.414 . S
C254 C257 1.499 . S
C255 H229 0.950 . S
C255 C254 1.414 . S
C255 C256 1.374 . S
C256 H230 0.950 . S
C256 C252 1.385 . S
C256 C255 1.374 . S
C257 C254 1.499 . S
C257 C258 1.373 . S
C257 C259 1.389 . S
C258 H231 0.950 . S
C258 C244 1.377 . S
C258 C257 1.373 . S
C259 C243 1.377 . S
C259 C257 1.389 . S
C259 C260 1.524 . S
C260 C259 1.524 . S
C260 C261 1.397 . S
C260 C265 1.363 . S
C261 H232 0.950 . S
C261 C260 1.397 . S
C261 C262 1.334 . S
C262 H233 0.950 . S
C262 C261 1.334 . S
C262 C263 1.287 . S
C263 C262 1.287 . S
C263 C264 1.524 . S
C263 H266 0.999 . S
C264 H234 0.950 . S
C264 C263 1.524 . S
C264 C265 1.415 . S
C265 H235 0.950 . S
C265 C260 1.363 . S
C265 C264 1.415 . S
H266 C263 0.999 . S
H267 C248 0.913 . S
H268 C286 0.951 . S
H269 C288 0.951 . S
H270 C290 0.950 . S
H271 C291 0.950 . S
H272 C293 0.950 . S
H273 C296 0.950 . S
H274 C297 0.950 . S
H275 C299 0.950 . S
H276 C300 0.950 . S
H277 C301 0.951 1_554 S
H278 C303 0.951 . S
H279 C305 0.950 . S
H280 C306 0.950 . S
H281 C308 0.950 . S
H282 C311 0.950 . S
H283 C312 0.950 . S
H284 C314 0.950 . S
H285 C315 0.950 . S
C286 H268 0.951 . S
C286 C287 1.366 . S
C286 C288 1.388 . S
C287 C286 1.366 . S
C287 C291 1.385 . S
C288 H269 0.951 . S
C288 C286 1.388 . S
C288 C289 1.366 . S
C289 C288 1.366 . S
C289 C290 1.414 . S
C289 C292 1.499 . S
C290 H270 0.950 . S
C290 C289 1.414 . S
C290 C291 1.374 . S
C291 H271 0.950 . S
C291 C287 1.385 . S
C291 C290 1.374 . S
C292 C289 1.499 . S
C292 C293 1.373 . S
C292 C294 1.389 . S
C293 H272 0.950 . S
C293 C292 1.373 . S
C293 C309 1.377 . S
C294 C292 1.389 . S
C294 C295 1.524 . S
C294 C308 1.377 . S
C295 C294 1.524 . S
C295 C296 1.397 . S
C295 C300 1.363 . S
C296 H273 0.950 . S
C296 C295 1.397 . S
C296 C297 1.334 . S
C297 H274 0.950 . S
C297 C296 1.334 . S
C297 C298 1.287 . S
C298 C297 1.287 . S
C298 C299 1.524 . S
C298 H317 0.913 . S
C299 H275 0.950 . S
C299 C298 1.524 . S
C299 C300 1.415 . S
C300 H276 0.950 . S
C300 C295 1.363 . S
C300 C299 1.415 . S
C301 H277 0.951 1_556 S
C301 C302 1.366 . S
C301 C303 1.388 . S
C302 C301 1.366 . S
C302 C306 1.385 . S
C303 H278 0.951 . S
C303 C301 1.388 . S
C303 C304 1.366 . S
C304 C303 1.366 . S
C304 C305 1.414 . S
C304 C307 1.499 . S
C305 H279 0.950 . S
C305 C304 1.414 . S
C305 C306 1.374 . S
C306 H280 0.950 . S
C306 C302 1.385 . S
C306 C305 1.374 . S
C307 C304 1.499 . S
C307 C308 1.373 . S
C307 C309 1.389 . S
C308 H281 0.950 . S
C308 C294 1.377 . S
C308 C307 1.373 . S
C309 C293 1.377 . S
C309 C307 1.389 . S
C309 C310 1.524 . S
C310 C309 1.524 . S
C310 C311 1.397 . S
C310 C315 1.363 . S
C311 H282 0.950 . S
C311 C310 1.397 . S
C311 C312 1.334 . S
C312 H283 0.950 . S
C312 C311 1.334 . S
C312 C313 1.287 . S
C313 C312 1.287 . S
C313 C314 1.524 . S
C313 H316 0.999 . S
C314 H284 0.950 . S
C314 C313 1.524 . S
C314 C315 1.415 . S
C315 H285 0.950 . S
C315 C310 1.363 . S
C315 C314 1.415 . S
H316 C313 0.999 . S
H317 C298 0.913 . S
H318 C336 0.951 . S
H319 C338 0.951 . S
H320 C340 0.950 . S
H321 C341 0.950 . S
H322 C343 0.950 . S
H323 C346 0.950 . S
H324 C347 0.950 . S
H325 C349 0.950 . S
H326 C350 0.950 . S
H327 C351 0.951 . S
H328 C353 0.951 . S
H329 C355 0.950 . S
H330 C356 0.950 . S
H331 C358 0.950 . S
H332 C361 0.950 . S
H333 C362 0.950 . S
H334 C364 0.950 . S
H335 C365 0.950 . S
C336 H318 0.951 . S
C336 C337 1.366 . S
C336 C338 1.388 . S
C337 C336 1.366 . S
C337 C341 1.385 . S
C338 H319 0.951 . S
C338 C336 1.388 . S
C338 C339 1.366 . S
C339 C338 1.366 . S
C339 C340 1.414 . S
C339 C342 1.499 . S
C340 H320 0.950 . S
C340 C339 1.414 . S
C340 C341 1.374 . S
C341 H321 0.950 . S
C341 C337 1.385 . S
C341 C340 1.374 . S
C342 C339 1.499 . S
C342 C343 1.373 . S
C342 C344 1.389 . S
C343 H322 0.950 . S
C343 C342 1.373 . S
C343 C359 1.377 . S
C344 C342 1.389 . S
C344 C345 1.524 . S
C344 C358 1.377 . S
C345 C344 1.524 . S
C345 C346 1.397 . S
C345 C350 1.363 . S
C346 H323 0.950 . S
C346 C345 1.397 . S
C346 C347 1.334 . S
C347 H324 0.950 . S
C347 C346 1.334 . S
C347 C348 1.287 . S
C348 C347 1.287 . S
C348 C349 1.524 . S
C348 H367 0.913 . S
C349 H325 0.950 . S
C349 C348 1.524 . S
C349 C350 1.415 . S
C350 H326 0.950 . S
C350 C345 1.363 . S
C350 C349 1.415 . S
C351 H327 0.951 . S
C351 C352 1.366 . S
C351 C353 1.388 . S
C352 C351 1.366 . S
C352 C356 1.385 . S
C353 H328 0.951 . S
C353 C351 1.388 . S
C353 C354 1.366 . S
C354 C353 1.366 . S
C354 C355 1.414 . S
C354 C357 1.499 . S
C355 H329 0.950 . S
C355 C354 1.414 . S
C355 C356 1.374 . S
C356 H330 0.950 . S
C356 C352 1.385 . S
C356 C355 1.374 . S
C357 C354 1.499 . S
C357 C358 1.373 . S
C357 C359 1.389 . S
C358 H331 0.950 . S
C358 C344 1.377 . S
C358 C357 1.373 . S
C359 C343 1.377 . S
C359 C357 1.389 . S
C359 C360 1.524 . S
C360 C359 1.524 . S
C360 C361 1.397 . S
C360 C365 1.363 . S
C361 H332 0.950 . S
C361 C360 1.397 . S
C361 C362 1.334 1_554 S
C362 H333 0.950 . S
C362 C361 1.334 1_556 S
C362 C363 1.287 . S
C363 C362 1.287 . S
C363 C364 1.524 . S
C363 H366 0.999 . S
C364 H334 0.950 . S
C364 C363 1.524 . S
C364 C365 1.415 1_556 S
C365 H335 0.950 . S
C365 C360 1.363 . S
C365 C364 1.415 1_554 S
H366 C363 0.999 . S
H367 C348 0.913 . S
H368 C386 0.951 . S
H369 C388 0.951 . S
H370 C390 0.950 . S
H371 C391 0.950 . S
H372 C393 0.950 . S
H373 C396 0.950 . S
H374 C397 0.950 . S
H375 C399 0.950 . S
H376 C400 0.950 . S
H377 C401 0.951 . S
H378 C403 0.951 . S
H379 C405 0.950 . S
H380 C406 0.950 . S
H381 C408 0.950 . S
H382 C411 0.950 . S
H383 C412 0.950 . S
H384 C414 0.950 . S
H385 C415 0.950 . S
C386 H368 0.951 . S
C386 C387 1.366 . S
C386 C388 1.388 . S
C387 C386 1.366 . S
C387 C391 1.385 . S
C388 H369 0.951 . S
C388 C386 1.388 . S
C388 C389 1.366 . S
C389 C388 1.366 . S
C389 C390 1.414 . S
C389 C392 1.499 . S
C390 H370 0.950 . S
C390 C389 1.414 . S
C390 C391 1.374 . S
C391 H371 0.950 . S
C391 C387 1.385 . S
C391 C390 1.374 . S
C392 C389 1.499 . S
C392 C393 1.373 . S
C392 C394 1.389 . S
C393 H372 0.950 . S
C393 C392 1.373 . S
C393 C409 1.377 . S
C394 C392 1.389 . S
C394 C395 1.524 . S
C394 C408 1.377 . S
C395 C394 1.524 . S
C395 C396 1.397 . S
C395 C400 1.363 . S
C396 H373 0.950 . S
C396 C395 1.397 . S
C396 C397 1.334 . S
C397 H374 0.950 . S
C397 C396 1.334 . S
C397 C398 1.287 . S
C398 C397 1.287 . S
C398 C399 1.524 . S
C398 H417 0.913 . S
C399 H375 0.950 . S
C399 C398 1.524 . S
C399 C400 1.415 . S
C400 H376 0.950 . S
C400 C395 1.363 . S
C400 C399 1.415 . S
C401 H377 0.951 . S
C401 C402 1.366 . S
C401 C403 1.388 . S
C402 C401 1.366 . S
C402 C406 1.385 . S
C403 H378 0.951 . S
C403 C401 1.388 . S
C403 C404 1.366 . S
C404 C403 1.366 . S
C404 C405 1.414 . S
C404 C407 1.499 . S
C405 H379 0.950 . S
C405 C404 1.414 . S
C405 C406 1.374 . S
C406 H380 0.950 . S
C406 C402 1.385 . S
C406 C405 1.374 . S
C407 C404 1.499 . S
C407 C408 1.373 . S
C407 C409 1.389 . S
C408 H381 0.950 . S
C408 C394 1.377 . S
C408 C407 1.373 . S
C409 C393 1.377 . S
C409 C407 1.389 . S
C409 C410 1.524 . S
C410 C409 1.524 . S
C410 C411 1.397 . S
C410 C415 1.363 . S
C411 H382 0.950 . S
C411 C410 1.397 . S
C411 C412 1.334 . S
C412 H383 0.950 . S
C412 C411 1.334 . S
C412 C413 1.287 . S
C413 C412 1.287 . S
C413 C414 1.524 . S
C413 H416 0.999 . S
C414 H384 0.950 . S
C414 C413 1.524 . S
C414 C415 1.415 . S
C415 H385 0.950 . S
C415 C410 1.363 . S
C415 C414 1.415 . S
H416 C413 0.999 . S
H417 C398 0.913 . S
H418 C436 0.951 . S
H419 C438 0.951 . S
H420 C440 0.950 . S
H421 C441 0.950 . S
H422 C443 0.950 . S
H423 C446 0.950 . S
H424 C447 0.950 . S
H425 C449 0.950 . S
H426 C450 0.950 . S
H427 C451 0.951 . S
H428 C453 0.951 . S
H429 C455 0.950 . S
H430 C456 0.950 . S
H431 C458 0.950 . S
H432 C461 0.950 . S
H433 C462 0.950 . S
H434 C464 0.950 . S
H435 C465 0.950 . S
C436 H418 0.951 . S
C436 C437 1.366 . S
C436 C438 1.388 . S
C437 C436 1.366 . S
C437 C441 1.385 . S
C438 H419 0.951 . S
C438 C436 1.388 . S
C438 C439 1.366 . S
C439 C438 1.366 . S
C439 C440 1.414 . S
C439 C442 1.499 . S
C440 H420 0.950 . S
C440 C439 1.414 . S
C440 C441 1.374 . S
C441 H421 0.950 . S
C441 C437 1.385 . S
C441 C440 1.374 . S
C442 C439 1.499 . S
C442 C443 1.373 . S
C442 C444 1.389 . S
C443 H422 0.950 . S
C443 C442 1.373 . S
C443 C459 1.377 . S
C444 C442 1.389 . S
C444 C445 1.524 . S
C444 C458 1.377 . S
C445 C444 1.524 . S
C445 C446 1.397 . S
C445 C450 1.363 . S
C446 H423 0.950 . S
C446 C445 1.397 . S
C446 C447 1.334 . S
C447 H424 0.950 . S
C447 C446 1.334 . S
C447 C448 1.287 . S
C448 C447 1.287 . S
C448 C449 1.524 . S
C448 H467 0.913 . S
C449 H425 0.950 . S
C449 C448 1.524 . S
C449 C450 1.415 . S
C450 H426 0.950 . S
C450 C445 1.363 . S
C450 C449 1.415 . S
C451 H427 0.951 . S
C451 C452 1.366 . S
C451 C453 1.388 . S
C452 C451 1.366 . S
C452 C456 1.385 . S
C453 H428 0.951 . S
C453 C451 1.388 . S
C453 C454 1.366 . S
C454 C453 1.366 . S
C454 C455 1.414 . S
C454 C457 1.499 . S
C455 H429 0.950 . S
C455 C454 1.414 . S
C455 C456 1.374 . S
C456 H430 0.950 . S
C456 C452 1.385 . S
C456 C455 1.374 . S
C457 C454 1.499 . S
C457 C458 1.373 . S
C457 C459 1.389 . S
C458 H431 0.950 . S
C458 C444 1.377 . S
C458 C457 1.373 . S
C459 C443 1.377 . S
C459 C457 1.389 . S
C459 C460 1.524 . S
C460 C459 1.524 . S
C460 C461 1.397 . S
C460 C465 1.363 . S
C461 H432 0.950 . S
C461 C460 1.397 . S
C461 C462 1.334 . S
C462 H433 0.950 . S
C462 C461 1.334 . S
C462 C463 1.287 . S
C463 C462 1.287 . S
C463 C464 1.524 . S
C463 H466 0.999 . S
C464 H434 0.950 . S
C464 C463 1.524 . S
C464 C465 1.415 . S
C465 H435 0.950 . S
C465 C460 1.363 . S
C465 C464 1.415 . S
H466 C463 0.999 . S
H467 C448 0.913 . S
H468 C486 0.951 . S
H469 C488 0.951 . S
H470 C490 0.950 . S
H471 C491 0.950 . S
H472 C493 0.950 . S
H473 C496 0.950 . S
H474 C497 0.950 . S
H475 C499 0.950 . S
H476 C500 0.950 . S
H477 C501 0.951 . S
H478 C503 0.951 . S
H479 C505 0.950 . S
H480 C506 0.950 . S
H481 C508 0.950 . S
H482 C511 0.950 . S
H483 C512 0.950 . S
H484 C514 0.950 . S
H485 C515 0.950 . S
C486 H468 0.951 . S
C486 C487 1.366 . S
C486 C488 1.388 . S
C487 C486 1.366 . S
C487 C491 1.385 . S
C488 H469 0.951 . S
C488 C486 1.388 . S
C488 C489 1.366 . S
C489 C488 1.366 . S
C489 C490 1.414 . S
C489 C492 1.499 . S
C490 H470 0.950 . S
C490 C489 1.414 . S
C490 C491 1.374 . S
C491 H471 0.950 . S
C491 C487 1.385 . S
C491 C490 1.374 . S
C492 C489 1.499 . S
C492 C493 1.373 . S
C492 C494 1.389 . S
C493 H472 0.950 . S
C493 C492 1.373 . S
C493 C509 1.377 . S
C494 C492 1.389 . S
C494 C495 1.524 . S
C494 C508 1.377 . S
C495 C494 1.524 . S
C495 C496 1.397 . S
C495 C500 1.363 . S
C496 H473 0.950 . S
C496 C495 1.397 . S
C496 C497 1.334 1_554 S
C497 H474 0.950 . S
C497 C496 1.334 1_556 S
C497 C498 1.287 . S
C498 C497 1.287 . S
C498 C499 1.524 . S
C498 H517 0.913 . S
C499 H475 0.950 . S
C499 C498 1.524 . S
C499 C500 1.415 1_556 S
C500 H476 0.950 . S
C500 C495 1.363 . S
C500 C499 1.415 1_554 S
C501 H477 0.951 . S
C501 C502 1.366 . S
C501 C503 1.388 . S
C502 C501 1.366 . S
C502 C506 1.385 . S
C503 H478 0.951 . S
C503 C501 1.388 . S
C503 C504 1.366 . S
C504 C503 1.366 . S
C504 C505 1.414 . S
C504 C507 1.499 . S
C505 H479 0.950 . S
C505 C504 1.414 . S
C505 C506 1.374 . S
C506 H480 0.950 . S
C506 C502 1.385 . S
C506 C505 1.374 . S
C507 C504 1.499 . S
C507 C508 1.373 . S
C507 C509 1.389 . S
C508 H481 0.950 . S
C508 C494 1.377 . S
C508 C507 1.373 . S
C509 C493 1.377 . S
C509 C507 1.389 . S
C509 C510 1.524 . S
C510 C509 1.524 . S
C510 C511 1.397 . S
C510 C515 1.363 . S
C511 H482 0.950 . S
C511 C510 1.397 . S
C511 C512 1.334 . S
C512 H483 0.950 . S
C512 C511 1.334 . S
C512 C513 1.287 . S
C513 C512 1.287 . S
C513 C514 1.524 . S
C513 H516 0.999 . S
C514 H484 0.950 . S
C514 C513 1.524 . S
C514 C515 1.415 . S
C515 H485 0.950 . S
C515 C510 1.363 . S
C515 C514 1.415 . S
H516 C513 0.999 . S
H517 C498 0.913 . S
H518 C536 0.951 . S
H519 C538 0.951 . S
H520 C540 0.950 . S
H521 C541 0.950 . S
H522 C543 0.950 . S
H523 C546 0.950 . S
H524 C547 0.950 . S
H525 C549 0.950 . S
H526 C550 0.950 . S
H527 C551 0.951 . S
H528 C553 0.951 . S
H529 C555 0.950 . S
H530 C556 0.950 1_554 S
H531 C558 0.950 . S
H532 C561 0.950 . S
H533 C562 0.950 . S
H534 C564 0.950 . S
H535 C565 0.950 . S
C536 H518 0.951 . S
C536 C537 1.366 . S
C536 C538 1.388 . S
C537 C536 1.366 . S
C537 C541 1.385 . S
C538 H519 0.951 . S
C538 C536 1.388 . S
C538 C539 1.366 . S
C539 C538 1.366 . S
C539 C540 1.414 . S
C539 C542 1.499 . S
C540 H520 0.950 . S
C540 C539 1.414 . S
C540 C541 1.374 . S
C541 H521 0.950 . S
C541 C537 1.385 . S
C541 C540 1.374 . S
C542 C539 1.499 . S
C542 C543 1.373 . S
C542 C544 1.389 . S
C543 H522 0.950 . S
C543 C542 1.373 . S
C543 C559 1.377 . S
C544 C542 1.389 . S
C544 C545 1.524 . S
C544 C558 1.377 . S
C545 C544 1.524 . S
C545 C546 1.397 . S
C545 C550 1.363 1_556 S
C546 H523 0.950 . S
C546 C545 1.397 . S
C546 C547 1.334 1_556 S
C547 H524 0.950 . S
C547 C546 1.334 1_554 S
C547 C548 1.287 . S
C548 C547 1.287 . S
C548 C549 1.524 . S
C548 H567 0.913 . S
C549 H525 0.950 . S
C549 C548 1.524 . S
C549 C550 1.415 . S
C550 H526 0.950 . S
C550 C545 1.363 1_554 S
C550 C549 1.415 . S
C551 H527 0.951 . S
C551 C552 1.366 . S
C551 C553 1.388 . S
C552 C551 1.366 . S
C552 C556 1.385 . S
C553 H528 0.951 . S
C553 C551 1.388 . S
C553 C554 1.366 . S
C554 C553 1.366 . S
C554 C555 1.414 . S
C554 C557 1.499 . S
C555 H529 0.950 . S
C555 C554 1.414 . S
C555 C556 1.374 . S
C556 H530 0.950 1_556 S
C556 C552 1.385 . S
C556 C555 1.374 . S
C557 C554 1.499 . S
C557 C558 1.373 . S
C557 C559 1.389 . S
C558 H531 0.950 . S
C558 C544 1.377 . S
C558 C557 1.373 . S
C559 C543 1.377 . S
C559 C557 1.389 . S
C559 C560 1.524 . S
C560 C559 1.524 . S
C560 C561 1.397 . S
C560 C565 1.363 . S
C561 H532 0.950 . S
C561 C560 1.397 . S
C561 C562 1.334 . S
C562 H533 0.950 . S
C562 C561 1.334 . S
C562 C563 1.287 . S
C563 C562 1.287 . S
C563 C564 1.524 . S
C563 H566 0.999 . S
C564 H534 0.950 . S
C564 C563 1.524 . S
C564 C565 1.415 . S
C565 H535 0.950 . S
C565 C560 1.363 . S
C565 C564 1.415 . S
H566 C563 0.999 . S
H567 C548 0.913 . S
H568 C586 0.951 . S
H569 C588 0.951 1_554 S
H570 C590 0.950 . S
H571 C591 0.950 . S
H572 C593 0.950 . S
H573 C596 0.950 1_556 S
H574 C597 0.950 . S
H575 C599 0.950 . S
H576 C600 0.950 . S
H577 C601 0.951 . S
H578 C603 0.951 . S
H579 C605 0.950 . S
H580 C606 0.950 . S
H581 C608 0.950 . S
H582 C611 0.950 . S
H583 C612 0.950 . S
H584 C614 0.950 . S
H585 C615 0.950 . S
C586 H568 0.951 . S
C586 C587 1.366 1_554 S
C586 C588 1.388 1_554 S
C587 C586 1.366 1_556 S
C587 C591 1.385 . S
C588 H569 0.951 1_556 S
C588 C586 1.388 1_556 S
C588 C589 1.366 . S
C589 C588 1.366 . S
C589 C590 1.414 . S
C589 C592 1.499 . S
C590 H570 0.950 . S
C590 C589 1.414 . S
C590 C591 1.374 . S
C591 H571 0.950 . S
C591 C587 1.385 . S
C591 C590 1.374 . S
C592 C589 1.499 . S
C592 C593 1.373 . S
C592 C594 1.389 . S
C593 H572 0.950 . S
C593 C592 1.373 . S
C593 C609 1.377 . S
C594 C592 1.389 . S
C594 C595 1.524 1_556 S
C594 C608 1.377 . S
C595 C594 1.524 1_554 S
C595 C596 1.397 . S
C595 C600 1.363 . S
C596 H573 0.950 1_554 S
C596 C595 1.397 . S
C596 C597 1.334 . S
C597 H574 0.950 . S
C597 C596 1.334 . S
C597 C598 1.287 . S
C598 C597 1.287 . S
C598 C599 1.524 . S
C598 H617 0.913 . S
C599 H575 0.950 . S
C599 C598 1.524 . S
C599 C600 1.415 . S
C600 H576 0.950 . S
C600 C595 1.363 . S
C600 C599 1.415 . S
C601 H577 0.951 . S
C601 C602 1.366 . S
C601 C603 1.388 . S
C602 C601 1.366 . S
C602 C606 1.385 . S
C603 H578 0.951 . S
C603 C601 1.388 . S
C603 C604 1.366 . S
C604 C603 1.366 . S
C604 C605 1.414 . S
C604 C607 1.499 . S
C605 H579 0.950 . S
C605 C604 1.414 . S
C605 C606 1.374 . S
C606 H580 0.950 . S
C606 C602 1.385 . S
C606 C605 1.374 . S
C607 C604 1.499 . S
C607 C608 1.373 . S
C607 C609 1.389 . S
C608 H581 0.950 . S
C608 C594 1.377 . S
C608 C607 1.373 . S
C609 C593 1.377 . S
C609 C607 1.389 . S
C609 C610 1.524 . S
C610 C609 1.524 . S
C610 C611 1.397 . S
C610 C615 1.363 . S
C611 H582 0.950 . S
C611 C610 1.397 . S
C611 C612 1.334 . S
C612 H583 0.950 . S
C612 C611 1.334 . S
C612 C613 1.287 . S
C613 C612 1.287 . S
C613 C614 1.524 . S
C613 H616 0.999 . S
C614 H584 0.950 . S
C614 C613 1.524 . S
C614 C615 1.415 . S
C615 H585 0.950 . S
C615 C610 1.363 . S
C615 C614 1.415 . S
H616 C613 0.999 . S
H617 C598 0.913 . S
H618 C636 0.951 . S
H619 C638 0.951 . S
H620 C640 0.950 . S
H621 C641 0.950 . S
H622 C643 0.950 . S
H623 C646 0.950 . S
H624 C647 0.950 . S
H625 C649 0.950 . S
H626 C650 0.950 . S
H627 C651 0.951 . S
H628 C653 0.951 . S
H629 C655 0.950 . S
H630 C656 0.950 . S
H631 C658 0.950 . S
H632 C661 0.950 . S
H633 C662 0.950 . S
H634 C664 0.950 . S
H635 C665 0.950 . S
C636 H618 0.951 . S
C636 C637 1.366 . S
C636 C638 1.388 . S
C637 C636 1.366 . S
C637 C641 1.385 . S
C638 H619 0.951 . S
C638 C636 1.388 . S
C638 C639 1.366 . S
C639 C638 1.366 . S
C639 C640 1.414 . S
C639 C642 1.499 . S
C640 H620 0.950 . S
C640 C639 1.414 . S
C640 C641 1.374 . S
C641 H621 0.950 . S
C641 C637 1.385 . S
C641 C640 1.374 . S
C642 C639 1.499 . S
C642 C643 1.373 . S
C642 C644 1.389 . S
C643 H622 0.950 . S
C643 C642 1.373 . S
C643 C659 1.377 . S
C644 C642 1.389 . S
C644 C645 1.524 . S
C644 C658 1.377 . S
C645 C644 1.524 . S
C645 C646 1.397 . S
C645 C650 1.363 . S
C646 H623 0.950 . S
C646 C645 1.397 . S
C646 C647 1.334 . S
C647 H624 0.950 . S
C647 C646 1.334 . S
C647 C648 1.287 . S
C648 C647 1.287 . S
C648 C649 1.524 . S
C648 H667 0.913 . S
C649 H625 0.950 . S
C649 C648 1.524 . S
C649 C650 1.415 . S
C650 H626 0.950 . S
C650 C645 1.363 . S
C650 C649 1.415 . S
C651 H627 0.951 . S
C651 C652 1.366 . S
C651 C653 1.388 . S
C652 C651 1.366 . S
C652 C656 1.385 . S
C653 H628 0.951 . S
C653 C651 1.388 . S
C653 C654 1.366 . S
C654 C653 1.366 . S
C654 C655 1.414 . S
C654 C657 1.499 . S
C655 H629 0.950 . S
C655 C654 1.414 . S
C655 C656 1.374 . S
C656 H630 0.950 . S
C656 C652 1.385 . S
C656 C655 1.374 . S
C657 C654 1.499 . S
C657 C658 1.373 . S
C657 C659 1.389 . S
C658 H631 0.950 . S
C658 C644 1.377 . S
C658 C657 1.373 . S
C659 C643 1.377 . S
C659 C657 1.389 . S
C659 C660 1.524 1_554 S
C660 C659 1.524 1_556 S
C660 C661 1.397 . S
C660 C665 1.363 . S
C661 H632 0.950 . S
C661 C660 1.397 . S
C661 C662 1.334 . S
C662 H633 0.950 . S
C662 C661 1.334 . S
C662 C663 1.287 . S
C663 C662 1.287 . S
C663 C664 1.524 . S
C663 H666 0.999 . S
C664 H634 0.950 . S
C664 C663 1.524 . S
C664 C665 1.415 . S
C665 H635 0.950 . S
C665 C660 1.363 . S
C665 C664 1.415 . S
H666 C663 0.999 . S
H667 C648 0.913 . S
H668 C686 0.951 . S
H669 C688 0.951 . S
H670 C690 0.950 . S
H671 C691 0.950 . S
H672 C693 0.950 . S
H673 C696 0.950 . S
H674 C697 0.950 . S
H675 C699 0.950 . S
H676 C700 0.950 . S
H677 C701 0.951 . S
H678 C703 0.951 . S
H679 C705 0.950 . S
H680 C706 0.950 . S
H681 C708 0.950 . S
H682 C711 0.950 . S
H683 C712 0.950 . S
H684 C714 0.950 . S
H685 C715 0.950 . S
C686 H668 0.951 . S
C686 C687 1.366 . S
C686 C688 1.388 . S
C687 C686 1.366 . S
C687 C691 1.385 . S
C688 H669 0.951 . S
C688 C686 1.388 . S
C688 C689 1.366 . S
C689 C688 1.366 . S
C689 C690 1.414 . S
C689 C692 1.499 . S
C690 H670 0.950 . S
C690 C689 1.414 . S
C690 C691 1.374 . S
C691 H671 0.950 . S
C691 C687 1.385 . S
C691 C690 1.374 . S
C692 C689 1.499 . S
C692 C693 1.373 . S
C692 C694 1.389 . S
C693 H672 0.950 . S
C693 C692 1.373 . S
C693 C709 1.377 . S
C694 C692 1.389 . S
C694 C695 1.524 . S
C694 C708 1.377 . S
C695 C694 1.524 . S
C695 C696 1.397 . S
C695 C700 1.363 . S
C696 H673 0.950 . S
C696 C695 1.397 . S
C696 C697 1.334 . S
C697 H674 0.950 . S
C697 C696 1.334 . S
C697 C698 1.287 . S
C698 C697 1.287 . S
C698 C699 1.524 . S
C698 H717 0.913 . S
C699 H675 0.950 . S
C699 C698 1.524 . S
C699 C700 1.415 . S
C700 H676 0.950 . S
C700 C695 1.363 . S
C700 C699 1.415 . S
C701 H677 0.951 . S
C701 C702 1.366 . S
C701 C703 1.388 . S
C702 C701 1.366 . S
C702 C706 1.385 . S
C703 H678 0.951 . S
C703 C701 1.388 . S
C703 C704 1.366 . S
C704 C703 1.366 . S
C704 C705 1.414 . S
C704 C707 1.499 . S
C705 H679 0.950 . S
C705 C704 1.414 . S
C705 C706 1.374 . S
C706 H680 0.950 . S
C706 C702 1.385 . S
C706 C705 1.374 . S
C707 C704 1.499 . S
C707 C708 1.373 . S
C707 C709 1.389 . S
C708 H681 0.950 . S
C708 C694 1.377 . S
C708 C707 1.373 . S
C709 C693 1.377 . S
C709 C707 1.389 . S
C709 C710 1.524 . S
C710 C709 1.524 . S
C710 C711 1.397 . S
C710 C715 1.363 . S
C711 H682 0.950 . S
C711 C710 1.397 . S
C711 C712 1.334 . S
C712 H683 0.950 . S
C712 C711 1.334 . S
C712 C713 1.287 . S
C713 C712 1.287 . S
C713 C714 1.524 . S
C713 H716 0.999 . S
C714 H684 0.950 . S
C714 C713 1.524 . S
C714 C715 1.415 . S
C715 H685 0.950 . S
C715 C710 1.363 . S
C715 C714 1.415 . S
H716 C713 0.999 . S
H717 C698 0.913 . S
H718 C736 0.951 . S
H719 C738 0.951 . S
H720 C740 0.950 . S
H721 C741 0.950 . S
H722 C743 0.950 . S
H723 C746 0.950 . S
H724 C747 0.950 . S
H725 C749 0.950 . S
H726 C750 0.950 . S
H727 C751 0.951 . S
H728 C753 0.951 . S
H729 C755 0.950 . S
H730 C756 0.950 . S
H731 C758 0.950 . S
H732 C761 0.950 . S
H733 C762 0.950 . S
H734 C764 0.950 . S
H735 C765 0.950 . S
C736 H718 0.951 . S
C736 C737 1.366 . S
C736 C738 1.388 . S
C737 C736 1.366 . S
C737 C741 1.385 . S
C738 H719 0.951 . S
C738 C736 1.388 . S
C738 C739 1.366 . S
C739 C738 1.366 . S
C739 C740 1.414 . S
C739 C742 1.499 . S
C740 H720 0.950 . S
C740 C739 1.414 . S
C740 C741 1.374 . S
C741 H721 0.950 . S
C741 C737 1.385 . S
C741 C740 1.374 . S
C742 C739 1.499 . S
C742 C743 1.373 . S
C742 C744 1.389 . S
C743 H722 0.950 . S
C743 C742 1.373 . S
C743 C759 1.377 . S
C744 C742 1.389 . S
C744 C745 1.524 . S
C744 C758 1.377 . S
C745 C744 1.524 . S
C745 C746 1.397 . S
C745 C750 1.363 . S
C746 H723 0.950 . S
C746 C745 1.397 . S
C746 C747 1.334 . S
C747 H724 0.950 . S
C747 C746 1.334 . S
C747 C748 1.287 . S
C748 C747 1.287 . S
C748 C749 1.524 . S
C748 H767 0.913 . S
C749 H725 0.950 . S
C749 C748 1.524 . S
C749 C750 1.415 . S
C750 H726 0.950 . S
C750 C745 1.363 . S
C750 C749 1.415 . S
C751 H727 0.951 . S
C751 C752 1.366 . S
C751 C753 1.388 . S
C752 C751 1.366 . S
C752 C756 1.385 . S
C753 H728 0.951 . S
C753 C751 1.388 . S
C753 C754 1.366 . S
C754 C753 1.366 . S
C754 C755 1.414 . S
C754 C757 1.499 . S
C755 H729 0.950 . S
C755 C754 1.414 . S
C755 C756 1.374 . S
C756 H730 0.950 . S
C756 C752 1.385 . S
C756 C755 1.374 . S
C757 C754 1.499 . S
C757 C758 1.373 . S
C757 C759 1.389 . S
C758 H731 0.950 . S
C758 C744 1.377 . S
C758 C757 1.373 . S
C759 C743 1.377 . S
C759 C757 1.389 . S
C759 C760 1.524 . S
C760 C759 1.524 . S
C760 C761 1.397 . S
C760 C765 1.363 . S
C761 H732 0.950 . S
C761 C760 1.397 . S
C761 C762 1.334 . S
C762 H733 0.950 . S
C762 C761 1.334 . S
C762 C763 1.287 . S
C763 C762 1.287 . S
C763 C764 1.524 . S
C763 H766 0.999 . S
C764 H734 0.950 . S
C764 C763 1.524 . S
C764 C765 1.415 . S
C765 H735 0.950 . S
C765 C760 1.363 . S
C765 C764 1.415 . S
H766 C763 0.999 . S
H767 C748 0.913 . S
H768 C786 0.951 . S
H769 C788 0.951 . S
H770 C790 0.950 . S
H771 C791 0.950 . S
H772 C793 0.950 . S
H773 C796 0.950 . S
H774 C797 0.950 . S
H775 C799 0.950 . S
H776 C800 0.950 . S
H777 C801 0.951 . S
H778 C803 0.951 . S
H779 C805 0.950 . S
H780 C806 0.950 . S
H781 C808 0.950 . S
H782 C811 0.950 . S
H783 C812 0.950 . S
H784 C814 0.950 . S
H785 C815 0.950 . S
C786 H768 0.951 . S
C786 C787 1.366 . S
C786 C788 1.388 . S
C787 C786 1.366 . S
C787 C791 1.385 . S
C788 H769 0.951 . S
C788 C786 1.388 . S
C788 C789 1.366 . S
C789 C788 1.366 . S
C789 C790 1.414 . S
C789 C792 1.499 . S
C790 H770 0.950 . S
C790 C789 1.414 . S
C790 C791 1.374 . S
C791 H771 0.950 . S
C791 C787 1.385 . S
C791 C790 1.374 . S
C792 C789 1.499 . S
C792 C793 1.373 . S
C792 C794 1.389 . S
C793 H772 0.950 . S
C793 C792 1.373 . S
C793 C809 1.377 . S
C794 C792 1.389 . S
C794 C795 1.524 . S
C794 C808 1.377 . S
C795 C794 1.524 . S
C795 C796 1.397 . S
C795 C800 1.363 . S
C796 H773 0.950 . S
C796 C795 1.397 . S
C796 C797 1.334 1_554 S
C797 H774 0.950 . S
C797 C796 1.334 1_556 S
C797 C798 1.287 . S
C798 C797 1.287 . S
C798 C799 1.524 . S
C798 H817 0.913 . S
C799 H775 0.950 . S
C799 C798 1.524 . S
C799 C800 1.415 1_556 S
C800 H776 0.950 . S
C800 C795 1.363 . S
C800 C799 1.415 1_554 S
C801 H777 0.951 . S
C801 C802 1.366 . S
C801 C803 1.388 . S
C802 C801 1.366 . S
C802 C806 1.385 . S
C803 H778 0.951 . S
C803 C801 1.388 . S
C803 C804 1.366 . S
C804 C803 1.366 . S
C804 C805 1.414 . S
C804 C807 1.499 . S
C805 H779 0.950 . S
C805 C804 1.414 . S
C805 C806 1.374 . S
C806 H780 0.950 . S
C806 C802 1.385 . S
C806 C805 1.374 . S
C807 C804 1.499 . S
C807 C808 1.373 . S
C807 C809 1.389 . S
C808 H781 0.950 . S
C808 C794 1.377 . S
C808 C807 1.373 . S
C809 C793 1.377 . S
C809 C807 1.389 . S
C809 C810 1.524 . S
C810 C809 1.524 . S
C810 C811 1.397 . S
C810 C815 1.363 . S
C811 H782 0.950 . S
C811 C810 1.397 . S
C811 C812 1.334 . S
C812 H783 0.950 . S
C812 C811 1.334 . S
C812 C813 1.287 . S
C813 C812 1.287 . S
C813 C814 1.524 . S
C813 H816 0.999 . S
C814 H784 0.950 . S
C814 C813 1.524 . S
C814 C815 1.415 . S
C815 H785 0.950 . S
C815 C810 1.363 . S
C815 C814 1.415 . S
H816 C813 0.999 . S
H817 C798 0.913 . S
H818 C836 0.951 . S
H819 C838 0.951 . S
H820 C840 0.950 . S
H821 C841 0.950 . S
H822 C843 0.950 . S
H823 C846 0.950 . S
H824 C847 0.950 . S
H825 C849 0.950 . S
H826 C850 0.950 . S
H827 C851 0.951 . S
H828 C853 0.951 . S
H829 C855 0.950 . S
H830 C856 0.950 . S
H831 C858 0.950 . S
H832 C861 0.950 . S
H833 C862 0.950 . S
H834 C864 0.950 . S
H835 C865 0.950 . S
C836 H818 0.951 . S
C836 C837 1.366 . S
C836 C838 1.388 . S
C837 C836 1.366 . S
C837 C841 1.385 . S
C838 H819 0.951 . S
C838 C836 1.388 . S
C838 C839 1.366 . S
C839 C838 1.366 . S
C839 C840 1.414 . S
C839 C842 1.499 . S
C840 H820 0.950 . S
C840 C839 1.414 . S
C840 C841 1.374 . S
C841 H821 0.950 . S
C841 C837 1.385 . S
C841 C840 1.374 . S
C842 C839 1.499 . S
C842 C843 1.373 . S
C842 C844 1.389 . S
C843 H822 0.950 . S
C843 C842 1.373 . S
C843 C859 1.377 . S
C844 C842 1.389 . S
C844 C845 1.524 . S
C844 C858 1.377 . S
C845 C844 1.524 . S
C845 C846 1.397 . S
C845 C850 1.363 . S
C846 H823 0.950 . S
C846 C845 1.397 . S
C846 C847 1.334 . S
C847 H824 0.950 . S
C847 C846 1.334 . S
C847 C848 1.287 . S
C848 C847 1.287 . S
C848 C849 1.524 . S
C848 H867 0.913 . S
C849 H825 0.950 . S
C849 C848 1.524 . S
C849 C850 1.415 . S
C850 H826 0.950 . S
C850 C845 1.363 . S
C850 C849 1.415 . S
C851 H827 0.951 . S
C851 C852 1.366 . S
C851 C853 1.388 . S
C852 C851 1.366 . S
C852 C856 1.385 . S
C853 H828 0.951 . S
C853 C851 1.388 . S
C853 C854 1.366 . S
C854 C853 1.366 . S
C854 C855 1.414 . S
C854 C857 1.499 . S
C855 H829 0.950 . S
C855 C854 1.414 . S
C855 C856 1.374 . S
C856 H830 0.950 . S
C856 C852 1.385 . S
C856 C855 1.374 . S
C857 C854 1.499 . S
C857 C858 1.373 . S
C857 C859 1.389 . S
C858 H831 0.950 . S
C858 C844 1.377 . S
C858 C857 1.373 . S
C859 C843 1.377 . S
C859 C857 1.389 . S
C859 C860 1.524 . S
C860 C859 1.524 . S
C860 C861 1.397 . S
C860 C865 1.363 . S
C861 H832 0.950 . S
C861 C860 1.397 . S
C861 C862 1.334 1_556 S
C862 H833 0.950 . S
C862 C861 1.334 1_554 S
C862 C863 1.287 1_554 S
C863 C862 1.287 1_556 S
C863 C864 1.524 . S
C863 H866 0.999 1_556 S
C864 H834 0.950 . S
C864 C863 1.524 . S
C864 C865 1.415 . S
C865 H835 0.950 . S
C865 C860 1.363 . S
C865 C864 1.415 . S
H866 C863 0.999 1_554 S
H867 C848 0.913 . S
H868 C886 0.951 . S
H869 C888 0.951 . S
H870 C890 0.950 . S
H871 C891 0.950 . S
H872 C893 0.950 . S
H873 C896 0.950 . S
H874 C897 0.950 . S
H875 C899 0.950 . S
H876 C900 0.950 . S
H877 C901 0.951 . S
H878 C903 0.951 . S
H879 C905 0.950 . S
H880 C906 0.950 . S
H881 C908 0.950 . S
H882 C911 0.950 . S
H883 C912 0.950 . S
H884 C914 0.950 . S
H885 C915 0.950 . S
C886 H868 0.951 . S
C886 C887 1.366 . S
C886 C888 1.388 . S
C887 C886 1.366 . S
C887 C891 1.385 . S
C888 H869 0.951 . S
C888 C886 1.388 . S
C888 C889 1.366 . S
C889 C888 1.366 . S
C889 C890 1.414 . S
C889 C892 1.499 . S
C890 H870 0.950 . S
C890 C889 1.414 . S
C890 C891 1.374 . S
C891 H871 0.950 . S
C891 C887 1.385 . S
C891 C890 1.374 . S
C892 C889 1.499 . S
C892 C893 1.373 . S
C892 C894 1.389 . S
C893 H872 0.950 . S
C893 C892 1.373 . S
C893 C909 1.377 . S
C894 C892 1.389 . S
C894 C895 1.524 . S
C894 C908 1.377 . S
C895 C894 1.524 . S
C895 C896 1.397 . S
C895 C900 1.363 . S
C896 H873 0.950 . S
C896 C895 1.397 . S
C896 C897 1.334 . S
C897 H874 0.950 . S
C897 C896 1.334 . S
C897 C898 1.287 . S
C898 C897 1.287 . S
C898 C899 1.524 . S
C898 H917 0.913 . S
C899 H875 0.950 . S
C899 C898 1.524 . S
C899 C900 1.415 . S
C900 H876 0.950 . S
C900 C895 1.363 . S
C900 C899 1.415 . S
C901 H877 0.951 . S
C901 C902 1.366 . S
C901 C903 1.388 . S
C902 C901 1.366 . S
C902 C906 1.385 . S
C903 H878 0.951 . S
C903 C901 1.388 . S
C903 C904 1.366 . S
C904 C903 1.366 . S
C904 C905 1.414 . S
C904 C907 1.499 . S
C905 H879 0.950 . S
C905 C904 1.414 . S
C905 C906 1.374 . S
C906 H880 0.950 . S
C906 C902 1.385 . S
C906 C905 1.374 . S
C907 C904 1.499 . S
C907 C908 1.373 . S
C907 C909 1.389 . S
C908 H881 0.950 . S
C908 C894 1.377 . S
C908 C907 1.373 . S
C909 C893 1.377 . S
C909 C907 1.389 . S
C909 C910 1.524 . S
C910 C909 1.524 . S
C910 C911 1.397 . S
C910 C915 1.363 . S
C911 H882 0.950 . S
C911 C910 1.397 . S
C911 C912 1.334 . S
C912 H883 0.950 . S
C912 C911 1.334 . S
C912 C913 1.287 . S
C913 C912 1.287 . S
C913 C914 1.524 . S
C913 H916 0.999 . S
C914 H884 0.950 . S
C914 C913 1.524 . S
C914 C915 1.415 . S
C915 H885 0.950 . S
C915 C910 1.363 . S
C915 C914 1.415 . S
H916 C913 0.999 . S
H917 C898 0.913 . S
H918 C936 0.951 . S
H919 C938 0.951 . S
H920 C940 0.950 . S
H921 C941 0.950 . S
H922 C943 0.950 . S
H923 C946 0.950 . S
H924 C947 0.950 . S
H925 C949 0.950 . S
H926 C950 0.950 . S
H927 C951 0.951 . S
H928 C953 0.951 . S
H929 C955 0.950 . S
H930 C956 0.950 . S
H931 C958 0.950 . S
H932 C961 0.950 . S
H933 C962 0.950 . S
H934 C964 0.950 . S
H935 C965 0.950 . S
C936 H918 0.951 . S
C936 C937 1.366 . S
C936 C938 1.388 . S
C937 C936 1.366 . S
C937 C941 1.385 . S
C938 H919 0.951 . S
C938 C936 1.388 . S
C938 C939 1.366 . S
C939 C938 1.366 . S
C939 C940 1.414 . S
C939 C942 1.499 . S
C940 H920 0.950 . S
C940 C939 1.414 . S
C940 C941 1.374 . S
C941 H921 0.950 . S
C941 C937 1.385 . S
C941 C940 1.374 . S
C942 C939 1.499 . S
C942 C943 1.373 . S
C942 C944 1.389 . S
C943 H922 0.950 . S
C943 C942 1.373 . S
C943 C959 1.377 . S
C944 C942 1.389 . S
C944 C945 1.524 . S
C944 C958 1.377 . S
C945 C944 1.524 . S
C945 C946 1.397 . S
C945 C950 1.363 . S
C946 H923 0.950 . S
C946 C945 1.397 . S
C946 C947 1.334 . S
C947 H924 0.950 . S
C947 C946 1.334 . S
C947 C948 1.287 . S
C948 C947 1.287 . S
C948 C949 1.524 . S
C948 H967 0.913 . S
C949 H925 0.950 . S
C949 C948 1.524 . S
C949 C950 1.415 . S
C950 H926 0.950 . S
C950 C945 1.363 . S
C950 C949 1.415 . S
C951 H927 0.951 . S
C951 C952 1.366 . S
C951 C953 1.388 . S
C952 C951 1.366 . S
C952 C956 1.385 . S
C953 H928 0.951 . S
C953 C951 1.388 . S
C953 C954 1.366 . S
C954 C953 1.366 . S
C954 C955 1.414 . S
C954 C957 1.499 . S
C955 H929 0.950 . S
C955 C954 1.414 . S
C955 C956 1.374 . S
C956 H930 0.950 . S
C956 C952 1.385 . S
C956 C955 1.374 . S
C957 C954 1.499 . S
C957 C958 1.373 . S
C957 C959 1.389 . S
C958 H931 0.950 . S
C958 C944 1.377 . S
C958 C957 1.373 . S
C959 C943 1.377 . S
C959 C957 1.389 . S
C959 C960 1.524 . S
C960 C959 1.524 . S
C960 C961 1.397 . S
C960 C965 1.363 . S
C961 H932 0.950 . S
C961 C960 1.397 . S
C961 C962 1.334 . S
C962 H933 0.950 . S
C962 C961 1.334 . S
C962 C963 1.287 . S
C963 C962 1.287 . S
C963 C964 1.524 . S
C963 H966 0.999 . S
C964 H934 0.950 . S
C964 C963 1.524 . S
C964 C965 1.415 . S
C965 H935 0.950 . S
C965 C960 1.363 . S
C965 C964 1.415 . S
H966 C963 0.999 . S
H967 C948 0.913 . S
H968 C986 0.952 . S
H969 C988 0.963 . S
H970 C990 0.950 . S
H971 C991 0.950 . S
H972 C993 0.950 . S
H973 C996 0.950 . S
H974 C997 0.950 . S
H975 C999 0.950 . S
H976 C1000 0.950 1_554 S
H977 C1001 0.951 . S
H978 C1003 0.951 . S
H979 C1005 0.950 . S
H980 C1006 0.950 . S
H981 C1008 0.950 . S
H982 C1011 0.950 . S
H983 C1012 0.950 . S
H984 C1014 0.950 . S
H985 C1015 0.950 1_545 S
C986 H968 0.952 . S
C986 C987 1.365 1_665 S
C986 C988 1.387 . S
C987 C986 1.365 1_445 S
C987 C991 1.385 . S
C988 H969 0.963 . S
C988 C986 1.387 . S
C988 C989 1.356 1_665 S
C989 C988 1.356 1_445 S
C989 C990 1.414 . S
C989 C992 1.499 . S
C990 H970 0.950 . S
C990 C989 1.414 . S
C990 C991 1.374 . S
C991 H971 0.950 . S
C991 C987 1.385 . S
C991 C990 1.374 . S
C992 C989 1.499 . S
C992 C993 1.373 1_545 S
C992 C994 1.389 1_455 S
C993 H972 0.950 . S
C993 C992 1.373 1_565 S
C993 C1009 1.377 1_556 S
C994 C992 1.389 1_655 S
C994 C995 1.524 . S
C994 C1008 1.377 1_556 S
C995 C994 1.524 . S
C995 C996 1.397 . S
C995 C1000 1.363 . S
C996 H973 0.950 . S
C996 C995 1.397 . S
C996 C997 1.334 . S
C997 H974 0.950 . S
C997 C996 1.334 . S
C997 C998 1.287 . S
C998 C997 1.287 . S
C998 C999 1.524 . S
C998 H1017 0.913 . S
C999 H975 0.950 . S
C999 C998 1.524 . S
C999 C1000 1.415 . S
C1000 H976 0.950 1_556 S
C1000 C995 1.363 . S
C1000 C999 1.415 . S
C1001 H977 0.951 . S
C1001 C1002 1.366 . S
C1001 C1003 1.388 . S
C1002 C1001 1.366 . S
C1002 C1006 1.385 1_445 S
C1003 H978 0.951 . S
C1003 C1001 1.388 . S
C1003 C1004 1.366 . S
C1004 C1003 1.366 . S
C1004 C1005 1.414 1_445 S
C1004 C1007 1.499 . S
C1005 H979 0.950 . S
C1005 C1004 1.414 1_665 S
C1005 C1006 1.374 . S
C1006 H980 0.950 . S
C1006 C1002 1.385 1_665 S
C1006 C1005 1.374 . S
C1007 C1004 1.499 . S
C1007 C1008 1.373 1_455 S
C1007 C1009 1.389 1_545 S
C1008 H981 0.950 . S
C1008 C994 1.377 1_554 S
C1008 C1007 1.373 1_655 S
C1009 C993 1.377 1_554 S
C1009 C1007 1.389 1_565 S
C1009 C1010 1.524 . S
C1010 C1009 1.524 . S
C1010 C1011 1.397 . S
C1010 C1015 1.363 . S
C1011 H982 0.950 . S
C1011 C1010 1.397 . S
C1011 C1012 1.334 . S
C1012 H983 0.950 . S
C1012 C1011 1.334 . S
C1012 C1013 1.287 . S
C1013 C1012 1.287 . S
C1013 C1014 1.524 . S
C1013 H1016 0.999 . S
C1014 H984 0.950 . S
C1014 C1013 1.524 . S
C1014 C1015 1.415 . S
C1015 H985 0.950 1_565 S
C1015 C1010 1.363 . S
C1015 C1014 1.415 . S
H1016 C1013 0.999 . S
H1017 C998 0.913 . S
H1018 C1036 0.951 . S
H1019 C1038 0.951 . S
H1020 C1040 0.950 . S
H1021 C1041 0.950 . S
H1022 C1043 0.950 . S
H1023 C1046 0.950 . S
H1024 C1047 0.950 . S
H1025 C1049 0.950 . S
H1026 C1050 0.950 . S
H1027 C1051 0.951 . S
H1028 C1053 0.951 . S
H1029 C1055 0.950 . S
H1030 C1056 0.950 1_556 S
H1031 C1058 0.950 . S
H1032 C1061 0.950 . S
H1033 C1062 0.950 . S
H1034 C1064 0.950 . S
H1035 C1065 0.950 . S
C1036 H1018 0.951 . S
C1036 C1037 1.366 . S
C1036 C1038 1.388 . S
C1037 C1036 1.366 . S
C1037 C1041 1.385 . S
C1038 H1019 0.951 . S
C1038 C1036 1.388 . S
C1038 C1039 1.366 . S
C1039 C1038 1.366 . S
C1039 C1040 1.414 . S
C1039 C1042 1.499 . S
C1040 H1020 0.950 . S
C1040 C1039 1.414 . S
C1040 C1041 1.374 . S
C1041 H1021 0.950 . S
C1041 C1037 1.385 . S
C1041 C1040 1.374 . S
C1042 C1039 1.499 . S
C1042 C1043 1.373 . S
C1042 C1044 1.389 . S
C1043 H1022 0.950 . S
C1043 C1042 1.373 . S
C1043 C1059 1.377 . S
C1044 C1042 1.389 . S
C1044 C1045 1.524 . S
C1044 C1058 1.377 . S
C1045 C1044 1.524 . S
C1045 C1046 1.397 . S
C1045 C1050 1.363 . S
C1046 H1023 0.950 . S
C1046 C1045 1.397 . S
C1046 C1047 1.334 . S
C1047 H1024 0.950 . S
C1047 C1046 1.334 . S
C1047 C1048 1.287 . S
C1048 C1047 1.287 . S
C1048 C1049 1.524 . S
C1048 H1067 0.913 . S
C1049 H1025 0.950 . S
C1049 C1048 1.524 . S
C1049 C1050 1.415 . S
C1050 H1026 0.950 . S
C1050 C1045 1.363 . S
C1050 C1049 1.415 . S
C1051 H1027 0.951 . S
C1051 C1052 1.366 1_554 S
C1051 C1053 1.388 . S
C1052 C1051 1.366 1_556 S
C1052 C1056 1.385 1_556 S
C1053 H1028 0.951 . S
C1053 C1051 1.388 . S
C1053 C1054 1.366 . S
C1054 C1053 1.366 . S
C1054 C1055 1.414 . S
C1054 C1057 1.499 . S
C1055 H1029 0.950 . S
C1055 C1054 1.414 . S
C1055 C1056 1.374 . S
C1056 H1030 0.950 1_554 S
C1056 C1052 1.385 1_554 S
C1056 C1055 1.374 . S
C1057 C1054 1.499 . S
C1057 C1058 1.373 . S
C1057 C1059 1.389 . S
C1058 H1031 0.950 . S
C1058 C1044 1.377 . S
C1058 C1057 1.373 . S
C1059 C1043 1.377 . S
C1059 C1057 1.389 . S
C1059 C1060 1.524 . S
C1060 C1059 1.524 . S
C1060 C1061 1.397 . S
C1060 C1065 1.363 . S
C1061 H1032 0.950 . S
C1061 C1060 1.397 . S
C1061 C1062 1.334 . S
C1062 H1033 0.950 . S
C1062 C1061 1.334 . S
C1062 C1063 1.287 . S
C1063 C1062 1.287 . S
C1063 C1064 1.524 . S
C1063 H1066 0.999 . S
C1064 H1034 0.950 . S
C1064 C1063 1.524 . S
C1064 C1065 1.415 . S
C1065 H1035 0.950 . S
C1065 C1060 1.363 . S
C1065 C1064 1.415 . S
H1066 C1063 0.999 . S
H1067 C1048 0.913 . S
H1068 C1086 0.951 . S
H1069 C1088 0.951 . S
H1070 C1090 0.950 . S
H1071 C1091 0.950 . S
H1072 C1093 0.950 . S
H1073 C1096 0.950 . S
H1074 C1097 0.950 . S
H1075 C1099 0.950 . S
H1076 C1100 0.950 . S
H1077 C1101 0.951 . S
H1078 C1103 0.951 . S
H1079 C1105 0.950 . S
H1080 C1106 0.950 . S
H1081 C1108 0.950 . S
H1082 C1111 0.950 . S
H1083 C1112 0.950 . S
H1084 C1114 0.950 . S
H1085 C1115 0.950 . S
C1086 H1068 0.951 . S
C1086 C1087 1.366 1_565 S
C1086 C1088 1.388 . S
C1087 C1086 1.366 1_545 S
C1087 C1091 1.385 . S
C1088 H1069 0.951 . S
C1088 C1086 1.388 . S
C1088 C1089 1.366 1_565 S
C1089 C1088 1.366 1_545 S
C1089 C1090 1.414 . S
C1089 C1092 1.499 . S
C1090 H1070 0.950 . S
C1090 C1089 1.414 . S
C1090 C1091 1.374 . S
C1091 H1071 0.950 . S
C1091 C1087 1.385 . S
C1091 C1090 1.374 . S
C1092 C1089 1.499 . S
C1092 C1093 1.373 . S
C1092 C1094 1.389 1_545 S
C1093 H1072 0.950 . S
C1093 C1092 1.373 . S
C1093 C1109 1.377 . S
C1094 C1092 1.389 1_565 S
C1094 C1095 1.524 . S
C1094 C1108 1.377 . S
C1095 C1094 1.524 . S
C1095 C1096 1.397 . S
C1095 C1100 1.363 . S
C1096 H1073 0.950 . S
C1096 C1095 1.397 . S
C1096 C1097 1.334 . S
C1097 H1074 0.950 . S
C1097 C1096 1.334 . S
C1097 C1098 1.287 . S
C1098 C1097 1.287 . S
C1098 C1099 1.524 . S
C1098 H1117 0.913 . S
C1099 H1075 0.950 . S
C1099 C1098 1.524 . S
C1099 C1100 1.415 . S
C1100 H1076 0.950 . S
C1100 C1095 1.363 . S
C1100 C1099 1.415 . S
C1101 H1077 0.951 . S
C1101 C1102 1.366 . S
C1101 C1103 1.388 . S
C1102 C1101 1.366 . S
C1102 C1106 1.385 1_545 S
C1103 H1078 0.951 . S
C1103 C1101 1.388 . S
C1103 C1104 1.366 . S
C1104 C1103 1.366 . S
C1104 C1105 1.414 1_545 S
C1104 C1107 1.499 . S
C1105 H1079 0.950 . S
C1105 C1104 1.414 1_565 S
C1105 C1106 1.374 . S
C1106 H1080 0.950 . S
C1106 C1102 1.385 1_565 S
C1106 C1105 1.374 . S
C1107 C1104 1.499 . S
C1107 C1108 1.373 1_545 S
C1107 C1109 1.389 . S
C1108 H1081 0.950 . S
C1108 C1094 1.377 . S
C1108 C1107 1.373 1_565 S
C1109 C1093 1.377 . S
C1109 C1107 1.389 . S
C1109 C1110 1.524 . S
C1110 C1109 1.524 . S
C1110 C1111 1.397 . S
C1110 C1115 1.363 . S
C1111 H1082 0.950 . S
C1111 C1110 1.397 . S
C1111 C1112 1.334 . S
C1112 H1083 0.950 . S
C1112 C1111 1.334 . S
C1112 C1113 1.287 . S
C1113 C1112 1.287 . S
C1113 C1114 1.524 . S
C1113 H1116 0.999 . S
C1114 H1084 0.950 . S
C1114 C1113 1.524 . S
C1114 C1115 1.415 . S
C1115 H1085 0.950 . S
C1115 C1110 1.363 . S
C1115 C1114 1.415 . S
H1116 C1113 0.999 . S
H1117 C1098 0.913 . S
H1118 C1136 0.951 1_554 S
H1119 C1138 0.951 . S
H1120 C1140 0.950 . S
H1121 C1141 0.950 1_554 S
H1122 C1143 0.950 . S
H1123 C1146 0.950 . S
H1124 C1147 0.950 . S
H1125 C1149 0.950 . S
H1126 C1150 0.950 . S
H1127 C1151 0.951 . S
H1128 C1153 0.951 . S
H1129 C1155 0.950 . S
H1130 C1156 0.950 . S
H1131 C1158 0.950 . S
H1132 C1161 0.950 . S
H1133 C1162 0.950 . S
H1134 C1164 0.950 . S
H1135 C1165 0.950 . S
C1136 H1118 0.951 1_556 S
C1136 C1137 1.366 1_556 S
C1136 C1138 1.388 . S
C1137 C1136 1.366 1_554 S
C1137 C1141 1.385 1_554 S
C1138 H1119 0.951 . S
C1138 C1136 1.388 . S
C1138 C1139 1.366 . S
C1139 C1138 1.366 . S
C1139 C1140 1.414 . S
C1139 C1142 1.499 . S
C1140 H1120 0.950 . S
C1140 C1139 1.414 . S
C1140 C1141 1.374 . S
C1141 H1121 0.950 1_556 S
C1141 C1137 1.385 1_556 S
C1141 C1140 1.374 . S
C1142 C1139 1.499 . S
C1142 C1143 1.373 . S
C1142 C1144 1.389 . S
C1143 H1122 0.950 . S
C1143 C1142 1.373 . S
C1143 C1159 1.377 . S
C1144 C1142 1.389 . S
C1144 C1145 1.524 . S
C1144 C1158 1.377 . S
C1145 C1144 1.524 . S
C1145 C1146 1.397 . S
C1145 C1150 1.363 . S
C1146 H1123 0.950 . S
C1146 C1145 1.397 . S
C1146 C1147 1.334 . S
C1147 H1124 0.950 . S
C1147 C1146 1.334 . S
C1147 C1148 1.287 . S
C1148 C1147 1.287 . S
C1148 C1149 1.524 . S
C1148 H1167 0.913 . S
C1149 H1125 0.950 . S
C1149 C1148 1.524 . S
C1149 C1150 1.415 . S
C1150 H1126 0.950 . S
C1150 C1145 1.363 . S
C1150 C1149 1.415 . S
C1151 H1127 0.951 . S
C1151 C1152 1.366 . S
C1151 C1153 1.388 . S
C1152 C1151 1.366 . S
C1152 C1156 1.385 . S
C1153 H1128 0.951 . S
C1153 C1151 1.388 . S
C1153 C1154 1.366 . S
C1154 C1153 1.366 . S
C1154 C1155 1.414 . S
C1154 C1157 1.499 . S
C1155 H1129 0.950 . S
C1155 C1154 1.414 . S
C1155 C1156 1.374 . S
C1156 H1130 0.950 . S
C1156 C1152 1.385 . S
C1156 C1155 1.374 . S
C1157 C1154 1.499 . S
C1157 C1158 1.373 . S
C1157 C1159 1.389 . S
C1158 H1131 0.950 . S
C1158 C1144 1.377 . S
C1158 C1157 1.373 . S
C1159 C1143 1.377 . S
C1159 C1157 1.389 . S
C1159 C1160 1.524 . S
C1160 C1159 1.524 . S
C1160 C1161 1.397 . S
C1160 C1165 1.363 . S
C1161 H1132 0.950 . S
C1161 C1160 1.397 . S
C1161 C1162 1.334 . S
C1162 H1133 0.950 . S
C1162 C1161 1.334 . S
C1162 C1163 1.287 . S
C1163 C1162 1.287 . S
C1163 C1164 1.524 . S
C1163 H1166 0.999 . S
C1164 H1134 0.950 . S
C1164 C1163 1.524 . S
C1164 C1165 1.415 . S
C1165 H1135 0.950 . S
C1165 C1160 1.363 . S
C1165 C1164 1.415 . S
H1166 C1163 0.999 . S
H1167 C1148 0.913 . S
H1168 C1186 0.951 . S
H1169 C1188 0.951 . S
H1170 C1190 0.950 . S
H1171 C1191 0.950 . S
H1172 C1193 0.950 . S
H1173 C1196 0.950 . S
H1174 C1197 0.950 . S
H1175 C1199 0.950 . S
H1176 C1200 0.950 . S
H1177 C1201 0.951 . S
H1178 C1203 0.951 . S
H1179 C1205 0.950 . S
H1180 C1206 0.950 . S
H1181 C1208 0.950 . S
H1182 C1211 0.950 . S
H1183 C1212 0.950 . S
H1184 C1214 0.950 . S
H1185 C1215 0.950 . S
C1186 H1168 0.951 . S
C1186 C1187 1.366 . S
C1186 C1188 1.388 1_554 S
C1187 C1186 1.366 . S
C1187 C1191 1.385 . S
C1188 H1169 0.951 . S
C1188 C1186 1.388 1_556 S
C1188 C1189 1.366 . S
C1189 C1188 1.366 . S
C1189 C1190 1.414 . S
C1189 C1192 1.499 . S
C1190 H1170 0.950 . S
C1190 C1189 1.414 . S
C1190 C1191 1.374 1_556 S
C1191 H1171 0.950 . S
C1191 C1187 1.385 . S
C1191 C1190 1.374 1_554 S
C1192 C1189 1.499 . S
C1192 C1193 1.373 . S
C1192 C1194 1.389 . S
C1193 H1172 0.950 . S
C1193 C1192 1.373 . S
C1193 C1209 1.377 . S
C1194 C1192 1.389 . S
C1194 C1195 1.524 . S
C1194 C1208 1.377 . S
C1195 C1194 1.524 . S
C1195 C1196 1.397 . S
C1195 C1200 1.363 . S
C1196 H1173 0.950 . S
C1196 C1195 1.397 . S
C1196 C1197 1.334 . S
C1197 H1174 0.950 . S
C1197 C1196 1.334 . S
C1197 C1198 1.287 . S
C1198 C1197 1.287 . S
C1198 C1199 1.524 . S
C1198 H1217 0.913 . S
C1199 H1175 0.950 . S
C1199 C1198 1.524 . S
C1199 C1200 1.415 . S
C1200 H1176 0.950 . S
C1200 C1195 1.363 . S
C1200 C1199 1.415 . S
C1201 H1177 0.951 . S
C1201 C1202 1.366 . S
C1201 C1203 1.388 . S
C1202 C1201 1.366 . S
C1202 C1206 1.385 . S
C1203 H1178 0.951 . S
C1203 C1201 1.388 . S
C1203 C1204 1.366 . S
C1204 C1203 1.366 . S
C1204 C1205 1.414 . S
C1204 C1207 1.499 . S
C1205 H1179 0.950 . S
C1205 C1204 1.414 . S
C1205 C1206 1.374 . S
C1206 H1180 0.950 . S
C1206 C1202 1.385 . S
C1206 C1205 1.374 . S
C1207 C1204 1.499 . S
C1207 C1208 1.373 . S
C1207 C1209 1.389 . S
C1208 H1181 0.950 . S
C1208 C1194 1.377 . S
C1208 C1207 1.373 . S
C1209 C1193 1.377 . S
C1209 C1207 1.389 . S
C1209 C1210 1.524 . S
C1210 C1209 1.524 . S
C1210 C1211 1.397 . S
C1210 C1215 1.363 . S
C1211 H1182 0.950 . S
C1211 C1210 1.397 . S
C1211 C1212 1.334 . S
C1212 H1183 0.950 . S
C1212 C1211 1.334 . S
C1212 C1213 1.287 . S
C1213 C1212 1.287 . S
C1213 C1214 1.524 . S
C1213 H1216 0.999 . S
C1214 H1184 0.950 . S
C1214 C1213 1.524 . S
C1214 C1215 1.415 . S
C1215 H1185 0.950 . S
C1215 C1210 1.363 . S
C1215 C1214 1.415 . S
H1216 C1213 0.999 . S
H1217 C1198 0.913 . S
H1218 C1236 0.951 . S
H1219 C1238 0.951 . S
H1220 C1240 0.950 . S
H1221 C1241 0.950 . S
H1222 C1243 0.950 . S
H1223 C1246 0.950 . S
H1224 C1247 0.950 . S
H1225 C1249 0.950 . S
H1226 C1250 0.950 . S
H1227 C1251 0.951 . S
H1228 C1253 0.951 . S
H1229 C1255 0.950 . S
H1230 C1256 0.950 . S
H1231 C1258 0.950 . S
H1232 C1261 0.950 . S
H1233 C1262 0.950 . S
H1234 C1264 0.950 . S
H1235 C1265 0.950 . S
C1236 H1218 0.951 . S
C1236 C1237 1.366 . S
C1236 C1238 1.388 . S
C1237 C1236 1.366 . S
C1237 C1241 1.385 . S
C1238 H1219 0.951 . S
C1238 C1236 1.388 . S
C1238 C1239 1.366 . S
C1239 C1238 1.366 . S
C1239 C1240 1.414 . S
C1239 C1242 1.499 . S
C1240 H1220 0.950 . S
C1240 C1239 1.414 . S
C1240 C1241 1.374 . S
C1241 H1221 0.950 . S
C1241 C1237 1.385 . S
C1241 C1240 1.374 . S
C1242 C1239 1.499 . S
C1242 C1243 1.373 . S
C1242 C1244 1.389 . S
C1243 H1222 0.950 . S
C1243 C1242 1.373 . S
C1243 C1259 1.377 . S
C1244 C1242 1.389 . S
C1244 C1245 1.524 . S
C1244 C1258 1.377 . S
C1245 C1244 1.524 . S
C1245 C1246 1.397 . S
C1245 C1250 1.363 . S
C1246 H1223 0.950 . S
C1246 C1245 1.397 . S
C1246 C1247 1.334 . S
C1247 H1224 0.950 . S
C1247 C1246 1.334 . S
C1247 C1248 1.287 . S
C1248 C1247 1.287 . S
C1248 C1249 1.524 . S
C1248 H1267 0.913 . S
C1249 H1225 0.950 . S
C1249 C1248 1.524 . S
C1249 C1250 1.415 . S
C1250 H1226 0.950 . S
C1250 C1245 1.363 . S
C1250 C1249 1.415 . S
C1251 H1227 0.951 . S
C1251 C1252 1.366 . S
C1251 C1253 1.388 1_556 S
C1252 C1251 1.366 . S
C1252 C1256 1.385 . S
C1253 H1228 0.951 . S
C1253 C1251 1.388 1_554 S
C1253 C1254 1.366 . S
C1254 C1253 1.366 . S
C1254 C1255 1.414 . S
C1254 C1257 1.499 . S
C1255 H1229 0.950 . S
C1255 C1254 1.414 . S
C1255 C1256 1.374 1_554 S
C1256 H1230 0.950 . S
C1256 C1252 1.385 . S
C1256 C1255 1.374 1_556 S
C1257 C1254 1.499 . S
C1257 C1258 1.373 . S
C1257 C1259 1.389 . S
C1258 H1231 0.950 . S
C1258 C1244 1.377 . S
C1258 C1257 1.373 . S
C1259 C1243 1.377 . S
C1259 C1257 1.389 . S
C1259 C1260 1.524 . S
C1260 C1259 1.524 . S
C1260 C1261 1.397 . S
C1260 C1265 1.363 . S
C1261 H1232 0.950 . S
C1261 C1260 1.397 . S
C1261 C1262 1.334 . S
C1262 H1233 0.950 . S
C1262 C1261 1.334 . S
C1262 C1263 1.287 . S
C1263 C1262 1.287 . S
C1263 C1264 1.524 . S
C1263 H1266 0.999 . S
C1264 H1234 0.950 . S
C1264 C1263 1.524 . S
C1264 C1265 1.415 . S
C1265 H1235 0.950 . S
C1265 C1260 1.363 . S
C1265 C1264 1.415 . S
H1266 C1263 0.999 . S
H1267 C1248 0.913 . S
H1268 C1286 0.951 . S
H1269 C1288 0.951 . S
H1270 C1290 0.950 . S
H1271 C1291 0.950 . S
H1272 C1293 0.950 . S
H1273 C1296 0.950 . S
H1274 C1297 0.950 . S
H1275 C1299 0.950 . S
H1276 C1300 0.950 . S
H1277 C1301 0.951 . S
H1278 C1303 0.951 . S
H1279 C1305 0.950 . S
H1280 C1306 0.950 . S
H1281 C1308 0.950 . S
H1282 C1311 0.950 . S
H1283 C1312 0.950 . S
H1284 C1314 0.950 . S
H1285 C1315 0.950 . S
C1286 H1268 0.951 . S
C1286 C1287 1.366 . S
C1286 C1288 1.388 . S
C1287 C1286 1.366 . S
C1287 C1291 1.385 . S
C1288 H1269 0.951 . S
C1288 C1286 1.388 . S
C1288 C1289 1.366 . S
C1289 C1288 1.366 . S
C1289 C1290 1.414 . S
C1289 C1292 1.499 . S
C1290 H1270 0.950 . S
C1290 C1289 1.414 . S
C1290 C1291 1.374 . S
C1291 H1271 0.950 . S
C1291 C1287 1.385 . S
C1291 C1290 1.374 . S
C1292 C1289 1.499 . S
C1292 C1293 1.373 . S
C1292 C1294 1.389 . S
C1293 H1272 0.950 . S
C1293 C1292 1.373 . S
C1293 C1309 1.377 . S
C1294 C1292 1.389 . S
C1294 C1295 1.524 . S
C1294 C1308 1.377 . S
C1295 C1294 1.524 . S
C1295 C1296 1.397 . S
C1295 C1300 1.363 . S
C1296 H1273 0.950 . S
C1296 C1295 1.397 . S
C1296 C1297 1.334 . S
C1297 H1274 0.950 . S
C1297 C1296 1.334 . S
C1297 C1298 1.287 . S
C1298 C1297 1.287 . S
C1298 C1299 1.524 . S
C1298 H1317 0.913 . S
C1299 H1275 0.950 . S
C1299 C1298 1.524 . S
C1299 C1300 1.415 . S
C1300 H1276 0.950 . S
C1300 C1295 1.363 . S
C1300 C1299 1.415 . S
C1301 H1277 0.951 . S
C1301 C1302 1.366 . S
C1301 C1303 1.388 . S
C1302 C1301 1.366 . S
C1302 C1306 1.385 . S
C1303 H1278 0.951 . S
C1303 C1301 1.388 . S
C1303 C1304 1.366 . S
C1304 C1303 1.366 . S
C1304 C1305 1.414 . S
C1304 C1307 1.499 . S
C1305 H1279 0.950 . S
C1305 C1304 1.414 . S
C1305 C1306 1.374 . S
C1306 H1280 0.950 . S
C1306 C1302 1.385 . S
C1306 C1305 1.374 . S
C1307 C1304 1.499 . S
C1307 C1308 1.373 . S
C1307 C1309 1.389 . S
C1308 H1281 0.950 . S
C1308 C1294 1.377 . S
C1308 C1307 1.373 . S
C1309 C1293 1.377 . S
C1309 C1307 1.389 . S
C1309 C1310 1.524 . S
C1310 C1309 1.524 . S
C1310 C1311 1.397 . S
C1310 C1315 1.363 . S
C1311 H1282 0.950 . S
C1311 C1310 1.397 . S
C1311 C1312 1.334 . S
C1312 H1283 0.950 . S
C1312 C1311 1.334 . S
C1312 C1313 1.287 . S
C1313 C1312 1.287 . S
C1313 C1314 1.524 . S
C1313 H1316 0.999 . S
C1314 H1284 0.950 . S
C1314 C1313 1.524 . S
C1314 C1315 1.415 . S
C1315 H1285 0.950 . S
C1315 C1310 1.363 . S
C1315 C1314 1.415 . S
H1316 C1313 0.999 . S
H1317 C1298 0.913 . S
H1318 C1336 0.961 . S
H1319 C1338 0.951 . S
H1320 C1340 0.950 . S
H1321 C1341 0.950 . S
H1322 C1343 0.950 . S
H1323 C1346 0.950 . S
H1324 C1347 0.950 . S
H1325 C1349 0.950 . S
H1326 C1350 0.950 . S
H1327 C1351 0.951 . S
H1328 C1353 0.951 . S
H1329 C1355 0.950 . S
H1330 C1356 0.952 . S
H1331 C1358 0.950 . S
H1332 C1361 0.950 . S
H1333 C1362 0.950 . S
H1334 C1364 0.950 . S
H1335 C1365 0.950 . S
C1336 H1318 0.961 . S
C1336 C1337 1.356 1_655 S
C1336 C1338 1.390 . S
C1337 C1336 1.356 1_455 S
C1337 C1341 1.385 . S
C1338 H1319 0.951 . S
C1338 C1336 1.390 . S
C1338 C1339 1.366 1_655 S
C1339 C1338 1.366 1_455 S
C1339 C1340 1.414 . S
C1339 C1342 1.499 . S
C1340 H1320 0.950 . S
C1340 C1339 1.414 . S
C1340 C1341 1.374 . S
C1341 H1321 0.950 . S
C1341 C1337 1.385 . S
C1341 C1340 1.374 . S
C1342 C1339 1.499 . S
C1342 C1343 1.373 . S
C1342 C1344 1.389 1_455 S
C1343 H1322 0.950 . S
C1343 C1342 1.373 . S
C1343 C1359 1.377 1_556 S
C1344 C1342 1.389 1_655 S
C1344 C1345 1.524 . S
C1344 C1358 1.377 1_556 S
C1345 C1344 1.524 . S
C1345 C1346 1.397 . S
C1345 C1350 1.363 . S
C1346 H1323 0.950 . S
C1346 C1345 1.397 . S
C1346 C1347 1.334 . S
C1347 H1324 0.950 . S
C1347 C1346 1.334 . S
C1347 C1348 1.287 . S
C1348 C1347 1.287 . S
C1348 C1349 1.524 . S
C1348 H1367 0.913 . S
C1349 H1325 0.950 . S
C1349 C1348 1.524 . S
C1349 C1350 1.415 . S
C1350 H1326 0.950 . S
C1350 C1345 1.363 . S
C1350 C1349 1.415 . S
C1351 H1327 0.951 . S
C1351 C1352 1.366 . S
C1351 C1353 1.388 . S
C1352 C1351 1.366 . S
C1352 C1356 1.383 1_455 S
C1353 H1328 0.951 . S
C1353 C1351 1.388 . S
C1353 C1354 1.366 . S
C1354 C1353 1.366 . S
C1354 C1355 1.415 1_455 S
C1354 C1357 1.499 . S
C1355 H1329 0.950 . S
C1355 C1354 1.415 1_655 S
C1355 C1356 1.373 . S
C1356 H1330 0.952 . S
C1356 C1352 1.383 1_655 S
C1356 C1355 1.373 . S
C1357 C1354 1.499 . S
C1357 C1358 1.373 1_455 S
C1357 C1359 1.389 . S
C1358 H1331 0.950 . S
C1358 C1344 1.377 1_554 S
C1358 C1357 1.373 1_655 S
C1359 C1343 1.377 1_554 S
C1359 C1357 1.389 . S
C1359 C1360 1.524 . S
C1360 C1359 1.524 . S
C1360 C1361 1.397 . S
C1360 C1365 1.363 . S
C1361 H1332 0.950 . S
C1361 C1360 1.397 . S
C1361 C1362 1.334 . S
C1362 H1333 0.950 . S
C1362 C1361 1.334 . S
C1362 C1363 1.287 . S
C1363 C1362 1.287 . S
C1363 C1364 1.524 . S
C1363 H1366 0.999 . S
C1364 H1334 0.950 . S
C1364 C1363 1.524 . S
C1364 C1365 1.415 . S
C1365 H1335 0.950 . S
C1365 C1360 1.363 . S
C1365 C1364 1.415 . S
H1366 C1363 0.999 . S
H1367 C1348 0.913 . S
C187 C15 1.269 . S
C202 C78 1.268 . S
C237 C16 1.327 . S
C252 C36 1.453 . S
C287 C37 1.493 . S
C302 C58 1.495 . S
C337 C57 1.453 . S
C352 C79 1.325 . S
C387 C14 1.514 . S
C402 C119 1.515 . S
C437 C13 1.295 . S
C452 C98 1.428 . S
C487 C97 1.221 . S
C502 C55 1.219 . S
C537 C118 1.295 . S
C552 C56 1.429 . S
C587 C141 1.267 . S
C602 C120 1.268 . S
C637 C99 1.452 . S
C652 C142 1.327 . S
C687 C163 1.495 . S
C702 C100 1.494 . S
C737 C121 1.328 . S
C752 C162 1.453 . S
C787 C77 1.515 . S
C802 C140 1.514 . S
C837 C139 1.296 . S
C852 C35 1.428 . S
C887 C34 1.222 . S
C902 C160 1.221 . S
C937 C76 1.296 . S
C952 C161 1.427 . S
C987 C18 1.292 1_455 S
C1002 C17 1.298 1_545 S
C1037 C38 1.291 . S
C1052 C39 1.287 . S
C1087 C60 1.287 . S
C1102 C59 1.291 1_545 S
C1137 C81 1.293 . S
C1152 C80 1.298 . S
C1187 C101 1.292 . S
C1202 C102 1.288 . S
C1237 C123 1.292 . S
C1252 C122 1.297 . S
C1287 C143 1.297 . S
C1302 C144 1.292 . S
C1337 C164 1.292 1_455 S
C1352 C165 1.288 . S
